# Generated by pormake.
# Topology wjp, (5)-cn, num edge types: 1
# Building blocks:
#     Node 0, Type 0, BuildingBlock: BEQFEK_clean_sbu_0, # of connection points: 5
#     Node 1, Type 0, BuildingBlock: BEQFEK_clean_sbu_0, # of connection points: 5
#     Node 2, Type 0, BuildingBlock: BEQFEK_clean_sbu_0, # of connection points: 5
#     Node 3, Type 0, BuildingBlock: BEQFEK_clean_sbu_0, # of connection points: 5
#     Node 4, Type 0, BuildingBlock: BEQFEK_clean_sbu_0, # of connection points: 5
#     Node 5, Type 0, BuildingBlock: BEQFEK_clean_sbu_0, # of connection points: 5
#     Node 6, Type 0, BuildingBlock: BEQFEK_clean_sbu_0, # of connection points: 5
#     Node 7, Type 0, BuildingBlock: BEQFEK_clean_sbu_0, # of connection points: 5
#     Node 8, Type 0, BuildingBlock: BEQFEK_clean_sbu_0, # of connection points: 5
#     Node 9, Type 0, BuildingBlock: BEQFEK_clean_sbu_0, # of connection points: 5
#     Node 10, Type 0, BuildingBlock: BEQFEK_clean_sbu_0, # of connection points: 5
#     Node 11, Type 0, BuildingBlock: BEQFEK_clean_sbu_0, # of connection points: 5
#     Edge 12, Type (0, 0), BuildingBlock: TEMPAE_clean_linker_10, # of connection points: 2
#     Edge 13, Type (0, 0), BuildingBlock: TEMPAE_clean_linker_10, # of connection points: 2
#     Edge 14, Type (0, 0), BuildingBlock: TEMPAE_clean_linker_10, # of connection points: 2
#     Edge 15, Type (0, 0), BuildingBlock: TEMPAE_clean_linker_10, # of connection points: 2
#     Edge 16, Type (0, 0), BuildingBlock: TEMPAE_clean_linker_10, # of connection points: 2
#     Edge 17, Type (0, 0), BuildingBlock: TEMPAE_clean_linker_10, # of connection points: 2
#     Edge 18, Type (0, 0), BuildingBlock: TEMPAE_clean_linker_10, # of connection points: 2
#     Edge 19, Type (0, 0), BuildingBlock: TEMPAE_clean_linker_10, # of connection points: 2
#     Edge 20, Type (0, 0), BuildingBlock: TEMPAE_clean_linker_10, # of connection points: 2
#     Edge 21, Type (0, 0), BuildingBlock: TEMPAE_clean_linker_10, # of connection points: 2
#     Edge 22, Type (0, 0), BuildingBlock: TEMPAE_clean_linker_10, # of connection points: 2
#     Edge 23, Type (0, 0), BuildingBlock: TEMPAE_clean_linker_10, # of connection points: 2
#     Edge 24, Type (0, 0), BuildingBlock: TEMPAE_clean_linker_10, # of connection points: 2
#     Edge 25, Type (0, 0), BuildingBlock: TEMPAE_clean_linker_10, # of connection points: 2
#     Edge 26, Type (0, 0), BuildingBlock: TEMPAE_clean_linker_10, # of connection points: 2
#     Edge 27, Type (0, 0), BuildingBlock: TEMPAE_clean_linker_10, # of connection points: 2
#     Edge 28, Type (0, 0), BuildingBlock: TEMPAE_clean_linker_10, # of connection points: 2
#     Edge 29, Type (0, 0), BuildingBlock: TEMPAE_clean_linker_10, # of connection points: 2
#     Edge 30, Type (0, 0), BuildingBlock: TEMPAE_clean_linker_10, # of connection points: 2
#     Edge 31, Type (0, 0), BuildingBlock: TEMPAE_clean_linker_10, # of connection points: 2
#     Edge 32, Type (0, 0), BuildingBlock: TEMPAE_clean_linker_10, # of connection points: 2
#     Edge 33, Type (0, 0), BuildingBlock: TEMPAE_clean_linker_10, # of connection points: 2
#     Edge 34, Type (0, 0), BuildingBlock: TEMPAE_clean_linker_10, # of connection points: 2
#     Edge 35, Type (0, 0), BuildingBlock: TEMPAE_clean_linker_10, # of connection points: 2
#     Edge 36, Type (0, 0), BuildingBlock: TEMPAE_clean_linker_10, # of connection points: 2
#     Edge 37, Type (0, 0), BuildingBlock: TEMPAE_clean_linker_10, # of connection points: 2
#     Edge 38, Type (0, 0), BuildingBlock: TEMPAE_clean_linker_10, # of connection points: 2
#     Edge 39, Type (0, 0), BuildingBlock: TEMPAE_clean_linker_10, # of connection points: 2
#     Edge 40, Type (0, 0), BuildingBlock: TEMPAE_clean_linker_10, # of connection points: 2
#     Edge 41, Type (0, 0), BuildingBlock: TEMPAE_clean_linker_10, # of connection points: 2
# Relax obj value: 0.469
# Max RMSD: 0.250
# Mean RMSD: 0.250
data_MOF--net-wjp--node1-BEQFEK_clean_sbu_0--edge1-TEMPAE_clean_linker_10
_symmetry_space_group_name_H-M    P1
_symmetry_Int_Tables_number       1
_symmetry_cell_setting            triclinic
loop_
_symmetry_equiv_pos_as_xyz
'x, y, z'
_cell_length_a     41.784444
_cell_length_b     41.763243
_cell_length_c     60.486353
_cell_angle_alpha  90.011162
_cell_angle_beta   89.970361
_cell_angle_gamma 119.98932
loop_
_atom_site_label
_atom_site_type_symbol
_atom_site_fract_x
_atom_site_fract_y
_atom_site_fract_z
_atom_type_partial_charge
Co0 Co 0.26365 0.21163 0.49823 0.0
Co1 Co 0.33843 0.28508 0.49365 0.0
C2 C 0.3324 0.23341 0.52743 0.0
O3 O 0.29887 0.21446 0.52121 0.0
O4 O 0.35474 0.26359 0.51771 0.0
C5 C 0.23076 0.13528 0.50177 0.0
O6 O 0.26562 0.14484 0.50443 0.0
C7 C 0.41289 0.34646 0.4794 0.0
C8 C 0.39639 0.38651 0.46822 0.0
C9 C 0.42622 0.38085 0.46947 0.0
N10 N 0.37654 0.33227 0.48346 0.0
N11 N 0.36717 0.3567 0.47698 0.0
C12 C 0.43467 0.32835 0.48578 0.0
H13 H 0.41702 0.30197 0.4946 0.0
H14 H 0.44672 0.32291 0.47093 0.0
H15 H 0.45801 0.34732 0.49656 0.0
C16 C 0.27966 0.20041 0.45283 0.0
N17 N 0.28676 0.22243 0.47053 0.0
N18 N 0.3201 0.25137 0.46879 0.0
C19 C 0.33572 0.24766 0.45003 0.0
C20 C 0.3107 0.21496 0.43949 0.0
C21 C 0.24473 0.16439 0.44936 0.0
H22 H 0.22091 0.16536 0.4567 0.0
H23 H 0.2473 0.14179 0.45718 0.0
H24 H 0.2397 0.15814 0.43143 0.0
O25 O 0.24537 0.24474 0.50568 0.0
O26 O 0.30006 0.296 0.50702 0.0
H27 H 0.3822 0.30093 0.44342 0.0
H28 H 0.38174 0.26401 0.42765 0.0
C29 C 0.37542 0.2717 0.44397 0.0
H30 H 0.39273 0.26865 0.45672 0.0
H31 H 0.34039 0.35248 0.47789 0.0
O32 O 0.22244 0.16032 0.49869 0.0
C33 C 0.26511 0.27892 0.50987 0.0
Co34 Co 0.0739 0.28899 0.67864 0.0
Co35 Co 0.05321 0.34618 0.66067 0.0
C36 C 0.10361 0.36501 0.69862 0.0
O37 O 0.09811 0.33235 0.69754 0.0
O38 O 0.08931 0.37698 0.68462 0.0
C39 C 0.13103 0.27615 0.68917 0.0
O40 O 0.14996 0.31152 0.68431 0.0
C41 C 0.05837 0.41115 0.63768 0.0
C42 C 9e-05 0.38955 0.62806 0.0
C43 C 0.03495 0.4205 0.62679 0.0
N44 N 0.03819 0.37606 0.64489 0.0
N45 N 0.00341 0.3634 0.63909 0.0
C46 C 0.09858 0.43575 0.64253 0.0
H47 H 0.10181 0.45682 0.65488 0.0
H48 H 0.11081 0.4195 0.64919 0.0
H49 H 0.11376 0.45059 0.62744 0.0
C50 C 0.09847 0.29192 0.63236 0.0
N51 N 0.0829 0.30207 0.64837 0.0
N52 N 0.07559 0.32717 0.64059 0.0
C53 C 0.08709 0.33425 0.61931 0.0
C54 C 0.1021 0.31228 0.61344 0.0
C55 C 0.11246 0.26551 0.63581 0.0
H56 H 0.09436 0.24348 0.64754 0.0
H57 H 0.14086 0.28085 0.64261 0.0
H58 H 0.11373 0.25229 0.62027 0.0
O59 O 0.02137 0.26268 0.68512 0.0
O60 O 0.00616 0.30401 0.67406 0.0
H61 H 0.05569 0.35775 0.60632 0.0
H62 H 0.0885 0.35726 0.58708 0.0
C63 C 0.08365 0.3612 0.60466 0.0
H64 H 0.10435 0.38968 0.60968 0.0
H65 H 0.9819 0.33682 0.64263 0.0
O66 O 0.09603 0.25912 0.68766 0.0
C67 C 0.99751 0.27282 0.68279 0.0
Co68 Co 0.79708 0.06465 0.81892 0.0
Co69 Co 0.71575 0.04764 0.81736 0.0
C70 C 0.76632 0.10406 0.84768 0.0
O71 O 0.79016 0.09631 0.84035 0.0
O72 O 0.73328 0.0872 0.84045 0.0
C73 C 0.86604 0.12292 0.81153 0.0
O74 O 0.84487 0.13736 0.80793 0.0
C75 C 0.64713 0.04871 0.80578 0.0
C76 C 0.61046 0.98992 0.79722 0.0
C77 C 0.61225 0.02389 0.79771 0.0
N78 N 0.66537 0.03025 0.80953 0.0
N79 N 0.64302 0.99505 0.80467 0.0
C80 C 0.66217 0.08885 0.81068 0.0
H81 H 0.69123 0.10197 0.81635 0.0
H82 H 0.66055 0.10355 0.79587 0.0
H83 H 0.64505 0.09165 0.82374 0.0
C84 C 0.79398 0.07639 0.77153 0.0
N85 N 0.777 0.06497 0.7912 0.0
N86 N 0.74568 0.06517 0.7909 0.0
C87 C 0.74356 0.0799 0.77137 0.0
C88 C 0.77426 0.08765 0.75849 0.0
C89 C 0.83084 0.0807 0.76591 0.0
H90 H 0.83782 0.06428 0.77728 0.0
H91 H 0.85237 0.11031 0.76662 0.0
H92 H 0.83042 0.0713 0.74869 0.0
O93 O 0.77465 0.01492 0.83068 0.0
O94 O 0.71654 0.00301 0.8307 0.0
H95 H 0.6873 0.06603 0.76743 0.0
H96 H 0.71902 0.1017 0.74889 0.0
C97 C 0.71528 0.09055 0.76594 0.0
H98 H 0.71783 0.11194 0.77778 0.0
H99 H 0.65044 0.97467 0.80574 0.0
O100 O 0.85118 0.08891 0.81668 0.0
C101 C 0.74062 0.99345 0.83495 0.0
Co102 Co 0.74164 0.78738 1.00046 0.0
Co103 Co 0.67589 0.71152 0.98532 0.0
C104 C 0.66629 0.7513 0.02265 0.0
O105 O 0.7001 0.77575 0.02022 0.0
O106 O 0.65046 0.72335 0.00978 0.0
C107 C 0.78597 0.85287 0.02539 0.0
O108 O 0.76829 0.83219 0.04252 0.0
C109 C 0.60662 0.64706 0.96755 0.0
C110 C 0.63179 0.62562 0.94394 0.0
C111 C 0.59809 0.61977 0.95167 0.0
N112 N 0.64368 0.66817 0.96881 0.0
N113 N 0.65838 0.65499 0.95471 0.0
C114 C 0.58039 0.65212 0.98199 0.0
H115 H 0.59313 0.66321 0.99831 0.0
H116 H 0.57398 0.67226 0.97412 0.0
H117 H 0.55429 0.62556 0.98438 0.0
C118 C 0.73409 0.80915 0.95585 0.0
N119 N 0.72602 0.78276 0.97108 0.0
N120 N 0.69664 0.75198 0.96486 0.0
C121 C 0.68442 0.75818 0.9455 0.0
C122 C 0.7077 0.79482 0.93924 0.0
C123 C 0.76519 0.84815 0.95802 0.0
H124 H 0.75748 0.86305 0.97018 0.0
H125 H 0.77164 0.86291 0.94194 0.0
H126 H 0.79023 0.84822 0.96416 0.0
O127 O 0.76133 0.75579 0.00781 0.0
O128 O 0.71441 0.70075 0.99871 0.0
H129 H 0.64018 0.74458 0.92207 0.0
H130 H 0.62653 0.71946 0.94795 0.0
C131 C 0.64834 0.73133 0.93508 0.0
H132 H 0.65073 0.70836 0.92762 0.0
H133 H 0.68675 0.66641 0.95227 0.0
O134 O 0.77939 0.83858 0.00624 0.0
C135 C 0.74668 0.72094 0.0068 0.0
Co136 Co 0.93789 0.72562 0.16021 0.0
Co137 Co 0.95162 0.65906 0.15621 0.0
C138 C 0.89283 0.65486 0.18588 0.0
O139 O 0.90163 0.68726 0.17961 0.0
O140 O 0.91019 0.63898 0.17876 0.0
C141 C 0.90829 0.77027 0.17435 0.0
O142 O 0.90423 0.75303 0.19321 0.0
C143 C 0.93991 0.58605 0.14285 0.0
C144 C 0.99717 0.60009 0.13508 0.0
C145 C 0.96087 0.57153 0.13429 0.0
N146 N 0.96288 0.62175 0.14799 0.0
N147 N 0.99708 0.62974 0.14366 0.0
C148 C 0.89915 0.56634 0.14706 0.0
H149 H 0.88855 0.58593 0.14601 0.0
H150 H 0.88385 0.54289 0.13556 0.0
H151 H 0.894 0.55507 0.16412 0.0
C152 C 0.92182 0.71168 0.11316 0.0
N153 N 0.93465 0.7054 0.13208 0.0
N154 N 0.93803 0.67588 0.12993 0.0
C155 C 0.92711 0.6624 0.10921 0.0
C156 C 0.91641 0.68458 0.098 0.0
C157 C 0.90948 0.73961 0.11094 0.0
H158 H 0.88555 0.73189 0.12204 0.0
H159 H 0.90129 0.74149 0.09379 0.0
H160 H 0.93225 0.76715 0.11605 0.0
O161 O 0.98718 0.74672 0.17308 0.0
O162 O 0.99841 0.70028 0.16989 0.0
H163 H 0.95002 0.62703 0.10464 0.0
H164 H 0.92134 0.62632 0.08211 0.0
C165 C 0.92467 0.62784 0.10036 0.0
H166 H 0.90038 0.60353 0.10766 0.0
H167 H 0.02025 0.6559 0.14569 0.0
O168 O 0.92406 0.76407 0.15833 0.0
C169 C 0.00822 0.73324 0.17588 0.0
Co170 Co 0.20723 0.94466 0.32246 0.0
Co171 Co 0.28482 0.95193 0.32 0.0
C172 C 0.23057 0.89872 0.35072 0.0
O173 O 0.20946 0.91028 0.34378 0.0
O174 O 0.26327 0.91216 0.34316 0.0
C175 C 0.13296 0.89526 0.31961 0.0
O176 O 0.14673 0.87374 0.3152 0.0
C177 C 0.34736 0.94021 0.30808 0.0
C178 C 0.38939 0.99724 0.29893 0.0
C179 C 0.38284 0.96135 0.29965 0.0
N180 N 0.33338 0.96264 0.31179 0.0
N181 N 0.35895 0.99674 0.3066 0.0
C182 C 0.32774 0.89978 0.31332 0.0
H183 H 0.29855 0.88977 0.31789 0.0
H184 H 0.32883 0.88365 0.29909 0.0
H185 H 0.34193 0.89499 0.32735 0.0
C186 C 0.20502 0.92714 0.27534 0.0
N187 N 0.22345 0.93906 0.29456 0.0
N188 N 0.25381 0.93697 0.29376 0.0
C189 C 0.25415 0.92133 0.27419 0.0
C190 C 0.22315 0.91445 0.26197 0.0
C191 C 0.16826 0.92369 0.27058 0.0
H192 H 0.14603 0.89466 0.27313 0.0
H193 H 0.16697 0.93064 0.25301 0.0
H194 H 0.16357 0.94251 0.28126 0.0
O195 O 0.23614 0.9947 0.33321 0.0
O196 O 0.29166 8e-05 0.3333 0.0
H197 H 0.30969 0.93293 0.2698 0.0
H198 H 0.27707 0.89936 0.25065 0.0
C199 C 0.2812 0.90939 0.26799 0.0
H200 H 0.27745 0.8867 0.27909 0.0
H201 H 0.35513 0.01956 0.30756 0.0
O202 O 0.15468 0.9296 0.32255 0.0
C203 C 0.27048 0.01332 0.33733 0.0
Co204 Co 0.78656 0.72676 0.34528 0.0
Co205 Co 0.70849 0.65713 0.34827 0.0
C206 C 0.76355 0.65627 0.31866 0.0
O207 O 0.78498 0.68917 0.32514 0.0
O208 O 0.73061 0.63786 0.32602 0.0
C209 C 0.86163 0.75383 0.3484 0.0
O210 O 0.84922 0.71884 0.35309 0.0
C211 C 0.64712 0.58329 0.36114 0.0
C212 C 0.60451 0.59759 0.3701 0.0
C213 C 0.6119 0.56877 0.37004 0.0
N214 N 0.66012 0.61928 0.35661 0.0
N215 N 0.6342 0.62739 0.36164 0.0
C216 C 0.66754 0.56315 0.35619 0.0
H217 H 0.6568 0.54769 0.34048 0.0
H218 H 0.69749 0.58286 0.35414 0.0
H219 H 0.66314 0.54278 0.36925 0.0
C220 C 0.78773 0.71396 0.39292 0.0
N221 N 0.7698 0.70651 0.37347 0.0
N222 N 0.73886 0.67459 0.37472 0.0
C223 C 0.73743 0.66 0.39496 0.0
C224 C 0.76844 0.68438 0.40705 0.0
C225 C 0.82498 0.74683 0.39733 0.0
H226 H 0.83017 0.77008 0.38627 0.0
H227 H 0.8466 0.73913 0.39492 0.0
H228 H 0.82679 0.75594 0.41474 0.0
O229 O 0.7577 0.7469 0.33298 0.0
O230 O 0.70163 0.69752 0.33372 0.0
H231 H 0.71215 0.6178 0.42004 0.0
H232 H 0.7117 0.60133 0.39247 0.0
C233 C 0.70887 0.62216 0.40227 0.0
H234 H 0.68096 0.61838 0.39967 0.0
H235 H 0.63741 0.65373 0.36017 0.0
O236 O 0.83883 0.76503 0.34519 0.0
C237 C 0.72341 0.73144 0.32878 0.0
Co238 Co 0.05159 0.7954 0.5079 0.0
Co239 Co 0.04378 0.71815 0.51589 0.0
C240 C 0.09925 0.77079 0.48402 0.0
O241 O 0.08853 0.79354 0.48896 0.0
O242 O 0.08409 0.73852 0.49261 0.0
C243 C 0.06808 0.86319 0.48838 0.0
O244 O 0.06699 0.84575 0.47006 0.0
C245 C 0.05582 0.65675 0.53114 0.0
C246 C 0.99814 0.6147 0.53899 0.0
C247 C 0.03396 0.62114 0.53929 0.0
N248 N 0.03374 0.67079 0.52642 0.0
N249 N -0.00067 0.64532 0.53105 0.0
C250 C 0.0965 0.67618 0.5268 0.0
H251 H 0.10621 0.70406 0.51977 0.0
H252 H 0.11172 0.67882 0.54232 0.0
H253 H 0.10275 0.65951 0.51514 0.0
C254 C 0.07291 0.80627 0.55412 0.0
N255 N 0.05784 0.78345 0.53678 0.0
N256 N 0.05774 0.75235 0.54044 0.0
C257 C 0.07339 0.7549 0.56047 0.0
C258 C 0.08382 0.78932 0.56964 0.0
C259 C 0.0817 0.84572 0.5544 0.0
H260 H 0.05715 0.84728 0.54902 0.0
H261 H 0.10463 0.86206 0.54269 0.0
H262 H 0.09 0.85797 0.57117 0.0
O263 O 0.0025 0.7636 0.4962 0.0
O264 O 0.99535 0.70801 0.50193 0.0
H265 H 0.05933 0.69921 0.56771 0.0
H266 H 0.09154 0.73316 0.58697 0.0
C267 C 0.08324 0.72756 0.56933 0.0
H268 H 0.10669 0.72956 0.55966 0.0
H269 H 0.97659 0.64903 0.52909 0.0
O270 O 0.06115 0.84615 0.50667 0.0
C271 C 0.98326 0.72872 0.49479 0.0
Co272 Co 0.26516 0.06428 0.68566 0.0
Co273 Co 0.32827 0.04565 0.68992 0.0
C274 C 0.3382 0.10463 0.66004 0.0
O275 O 0.30627 0.09762 0.66619 0.0
O276 O 0.35247 0.08599 0.66736 0.0
C277 C 0.25212 0.12162 0.69163 0.0
O278 O 0.28739 0.13691 0.69655 0.0
C279 C 0.39719 0.04701 0.70371 0.0
C280 C 0.37494 0.9882 0.71228 0.0
C281 C 0.40695 0.02229 0.71233 0.0
N282 N 0.36078 0.02837 0.69911 0.0
N283 N 0.34786 0.99317 0.70402 0.0
C284 C 0.42233 0.08724 0.69908 0.0
H285 H 0.4422 0.09025 0.68595 0.0
H286 H 0.40644 0.10053 0.69359 0.0
H287 H 0.43865 0.10165 0.71395 0.0
C288 C 0.27564 0.07467 0.73354 0.0
N289 N 0.28259 0.06344 0.71419 0.0
N290 N 0.31348 0.06249 0.71574 0.0
C291 C 0.32847 0.07604 0.73584 0.0
C292 C 0.30502 0.08438 0.74772 0.0
C293 C 0.24345 0.08022 0.73785 0.0
H294 H 0.22085 0.06438 0.7259 0.0
H295 H 0.25251 0.11008 0.73693 0.0
H296 H 0.23289 0.07093 0.75486 0.0
O297 O 0.23944 0.01502 0.6728 0.0
O298 O 0.28424 0.0013 0.67553 0.0
H299 H 0.36891 0.05989 0.7414 0.0
H300 H 0.37199 0.09492 0.76018 0.0
C301 C 0.3663 0.08493 0.74283 0.0
H302 H 0.38694 0.10671 0.73186 0.0
H303 H 0.32021 0.97266 0.70236 0.0
O304 O 0.2343 0.08762 0.68633 0.0
C305 C 0.25151 0.99282 0.66967 0.0
Co306 Co 0.20801 0.28909 0.82159 0.0
Co307 Co 0.28345 0.34443 0.8431 0.0
C308 C 0.25899 0.3663 0.80349 0.0
O309 O 0.23119 0.33389 0.80358 0.0
O310 O 0.28344 0.37728 0.81864 0.0
C311 C 0.14027 0.27958 0.8095 0.0
O312 O 0.15728 0.31429 0.8159 0.0
C313 C 0.3473 0.40652 0.86606 0.0
C314 C 0.35988 0.37511 0.89059 0.0
C315 C 0.37028 0.41062 0.88375 0.0
N316 N 0.32433 0.37014 0.86271 0.0
N317 N 0.33223 0.35162 0.87734 0.0
C318 C 0.34486 0.43639 0.85385 0.0
H319 H 0.31572 0.42705 0.84949 0.0
H320 H 0.35618 0.46203 0.86387 0.0
H321 H 0.36095 0.44253 0.83829 0.0
C322 C 0.18042 0.29154 0.86608 0.0
N323 N 0.20819 0.301 0.85161 0.0
N324 N 0.23923 0.32685 0.86032 0.0
C325 C 0.23179 0.33588 0.8804 0.0
C326 C 0.19411 0.31388 0.88467 0.0
C327 C 0.14185 0.26019 0.86273 0.0
H328 H 0.1418 0.23927 0.85142 0.0
H329 H 0.12464 0.27081 0.85546 0.0
H330 H 0.12932 0.24693 0.87878 0.0
O331 O 0.23336 0.26173 0.81683 0.0
O332 O 0.28851 0.30162 0.83046 0.0
H333 H 0.27701 0.35831 0.90305 0.0
H334 H 0.24597 0.37628 0.9065 0.0
C335 C 0.25953 0.36723 0.8942 0.0
H336 H 0.2776 0.39093 0.88344 0.0
H337 H 0.31809 0.32285 0.87859 0.0
O338 O 0.15713 0.26139 0.81057 0.0
C339 C 0.26671 0.27099 0.82086 0.0
Co340 Co 0.93282 0.20073 0.01488 0.0
Co341 Co 0.94111 0.27903 0.01616 0.0
C342 C 0.88694 0.22352 0.98612 0.0
O343 O 0.89787 0.20193 0.9933 0.0
O344 O 0.90088 0.25647 0.99346 0.0
C345 C 0.88571 0.12436 0.01764 0.0
O346 O 0.86085 0.13467 0.01565 0.0
C347 C 0.93229 0.34381 0.02758 0.0
C348 C 0.98986 0.3837 0.03703 0.0
C349 C 0.95467 0.37897 0.03626 0.0
N350 N 0.95338 0.32829 0.02387 0.0
N351 N 0.98781 0.35262 0.02922 0.0
C352 C 0.89209 0.32604 0.02199 0.0
H353 H 0.88817 0.34296 0.00931 0.0
H354 H 0.88156 0.29765 0.01557 0.0
H355 H 0.87573 0.32496 0.03666 0.0
C356 C 0.91611 0.20089 0.06185 0.0
N357 N 0.92829 0.21871 0.04245 0.0
N358 N 0.9267 0.24936 0.04281 0.0
C359 C 0.91123 0.2506 0.06225 0.0
C360 C 0.90394 0.21986 0.07491 0.0
C361 C 0.9109 0.16343 0.06679 0.0
H362 H 0.93179 0.15932 0.05795 0.0
H363 H 0.8827 0.14192 0.06176 0.0
H364 H 0.91357 0.16021 0.08479 0.0
O365 O 0.98238 0.22886 0.00305 0.0
O366 O 0.98806 0.28449 1.0022 0.0
H367 H 0.92308 0.30627 0.06628 0.0
H368 H 0.88793 0.27371 0.08474 0.0
C369 C 0.89922 0.27786 0.0677 0.0
H370 H 0.87755 0.27448 0.05585 0.0
H371 H 0.00976 0.34743 0.02837 0.0
O372 O 0.91974 0.14875 0.01754 0.0
C373 C 0.00078 0.26292 0.99811 0.0
Co374 Co 0.71521 0.92372 0.16041 0.0
Co375 Co 0.65239 0.93924 0.1748 0.0
C376 C 0.64097 0.88829 0.13763 0.0
O377 O 0.67395 0.89502 0.14019 0.0
O378 O 0.6269 0.90286 0.14997 0.0
C379 C 0.74488 0.87795 0.14799 0.0
O380 O 0.71056 0.85454 0.14241 0.0
C381 C 0.58382 0.93223 0.19481 0.0
C382 C 0.60557 0.98961 0.20645 0.0
C383 C 0.57409 0.95513 0.20604 0.0
N384 N 0.61972 0.95238 0.18906 0.0
N385 N 0.63234 0.98665 0.19598 0.0
C386 C 0.55901 0.89263 0.18859 0.0
H387 H 0.53765 0.89072 0.17691 0.0
H388 H 0.57497 0.88101 0.18071 0.0
H389 H 0.54446 0.87601 0.20336 0.0
C390 C 0.70558 0.89538 0.2057 0.0
N391 N 0.69845 0.91355 0.18987 0.0
N392 N 0.67083 0.91812 0.19617 0.0
C393 C 0.65927 0.90232 0.21635 0.0
C394 C 0.68059 0.88688 0.22282 0.0
C395 C 0.7348 0.8847 0.20409 0.0
H396 H 0.76036 0.90777 0.19691 0.0
H397 H 0.72489 0.86016 0.19322 0.0
H398 H 0.74134 0.87779 0.22058 0.0
O399 O 0.73767 0.97577 0.15311 0.0
O400 O 0.69338 0.98771 0.16227 0.0
H401 H 0.62683 0.92523 0.22842 0.0
H402 H 0.62427 0.8883 0.24527 0.0
C403 C 0.62597 0.89829 0.22808 0.0
H404 H 0.60088 0.878 0.21908 0.0
H405 H 0.65952 0.008 0.19385 0.0
O406 O 0.7529 0.90944 0.15557 0.0
C407 C 0.72539 0.99801 0.15434 0.0
C408 C 0.55117 0.51409 0.37892 0.0
C409 C 0.58944 0.53381 0.38213 0.0
C410 C 0.52802 0.48556 0.39337 0.0
C411 C 0.54357 0.47693 0.41164 0.0
C412 C 0.58242 0.49545 0.41426 0.0
C413 C 0.60493 0.52393 0.39954 0.0
C414 C 0.48673 0.46645 0.38992 0.0
C415 C 0.60006 0.48708 0.43349 0.0
C416 C 0.47827 0.44309 0.46047 0.0
C417 C 0.46178 0.4047 0.45829 0.0
C418 C 0.50678 0.467 0.44627 0.0
C419 C 0.5188 0.45207 0.4293 0.0
C420 C 0.50383 0.41332 0.42791 0.0
C421 C 0.47526 0.39001 0.44238 0.0
C422 C 0.5221 0.50815 0.44845 0.0
C423 C 0.51598 0.39636 0.41011 0.0
H424 H 0.53922 0.52213 0.36563 0.0
H425 H 0.63437 0.54012 0.40264 0.0
H426 H 0.47451 0.43602 0.39076 0.0
H427 H 0.47398 0.47457 0.40328 0.0
H428 H 0.47934 0.47367 0.37377 0.0
H429 H 0.63035 0.49935 0.4312 0.0
H430 H 0.59525 0.49853 0.44887 0.0
H431 H 0.58747 0.4568 0.43582 0.0
H432 H 0.46755 0.4544 0.47264 0.0
H433 H 0.46171 0.36036 0.44006 0.0
H434 H 0.5132 0.5183 0.43408 0.0
H435 H 0.55274 0.52298 0.44844 0.0
H436 H 0.51253 0.51541 0.4638 0.0
H437 H 0.50456 0.39846 0.39397 0.0
H438 H 0.5063 0.36674 0.41343 0.0
H439 H 0.54654 0.41147 0.40858 0.0
C440 C 0.07072 0.46961 0.59872 0.0
C441 C 0.04363 0.45505 0.61526 0.0
C442 C 0.07548 0.49953 0.58566 0.0
C443 C 0.05243 0.51492 0.58922 0.0
C444 C 0.02594 0.50104 0.60648 0.0
C445 C 0.02168 0.47106 0.61915 0.0
C446 C 0.10378 0.51334 0.56732 0.0
C447 C 0.00093 0.51676 0.61093 0.0
C448 C 0.07065 0.60714 0.56621 0.0
C449 C 0.04475 0.59553 0.54903 0.0
C450 C 0.07527 0.58133 0.57868 0.0
C451 C 0.05331 0.54316 0.57383 0.0
C452 C 0.02873 0.53164 0.55563 0.0
C453 C 0.02453 0.55797 0.54358 0.0
C454 C 0.10163 0.59469 0.598 0.0
C455 C 0.005 0.49126 0.54977 0.0
H456 H 0.08681 0.4564 0.59516 0.0
H457 H 0.00056 0.45954 0.63186 0.0
H458 H 0.08947 0.5056 0.55111 0.0
H459 H 0.12075 0.54394 0.56776 0.0
H460 H 0.1224 0.50157 0.56839 0.0
H461 H 0.98393 0.50486 0.62605 0.0
H462 H 0.01748 0.54722 0.61284 0.0
H463 H 0.98209 0.51094 0.59668 0.0
H464 H 0.0854 0.63601 0.57096 0.0
H465 H 0.00429 0.54904 0.53038 0.0
H466 H 0.11857 0.58102 0.59816 0.0
H467 H 0.08566 0.58732 0.61365 0.0
H468 H 0.12037 0.62513 0.59763 0.0
H469 H 0.02203 0.47773 0.54887 0.0
H470 H 0.99054 0.48727 0.53372 0.0
H471 H 0.98393 0.477 0.56285 0.0
C472 C 0.45734 0.00802 0.71814 0.0
C473 C 0.44167 0.02992 0.72316 0.0
C474 C 0.4873 0.01114 0.73036 0.0
C475 C 0.50136 0.0363 0.74829 0.0
C476 C 0.48611 0.0591 0.75309 0.0
C477 C 0.4563 0.05555 0.74048 0.0
C478 C 0.50296 0.98651 0.7246 0.0
C479 C 0.50006 0.08592 0.77221 0.0
C480 C 0.54725 0.00898 0.79269 0.0
C481 C 0.58466 0.03139 0.78746 0.0
C482 C 0.5199 0.01161 0.78072 0.0
C483 C 0.5303 0.03676 0.76282 0.0
C484 C 0.56818 0.06021 0.75789 0.0
C485 C 0.59496 0.05715 0.77026 0.0
C486 C 0.4798 0.98631 0.78662 0.0
C487 C 0.58035 0.08707 0.73881 0.0
H488 H 0.44559 0.98786 0.70492 0.0
H489 H 0.44319 0.07139 0.74498 0.0
H490 H 0.53337 0.00326 0.72251 0.0
H491 H 0.49751 0.96676 0.7383 0.0
H492 H 0.49078 0.97051 0.70919 0.0
H493 H 0.4875 0.1039 0.77254 0.0
H494 H 0.49348 0.07036 0.788 0.0
H495 H 0.53054 0.10367 0.77134 0.0
H496 H 0.53936 0.98872 0.80581 0.0
H497 H 0.62377 0.0734 0.76557 0.0
H498 H 0.4658 0.96621 0.77304 0.0
H499 H 0.46548 0.00245 0.7886 0.0
H500 H 0.47652 0.97068 0.80212 0.0
H501 H 0.57179 0.07153 0.72301 0.0
H502 H 0.61078 0.10578 0.7385 0.0
H503 H 0.56679 0.10408 0.7397 0.0
C504 C 0.55833 0.55673 0.93637 0.0
C505 C 0.56178 0.59026 0.94348 0.0
C506 C 0.52546 0.52906 0.92693 0.0
C507 C 0.49511 0.53497 0.92455 0.0
C508 C 0.49819 0.56861 0.93188 0.0
C509 C 0.53166 0.59605 0.94109 0.0
C510 C 0.5234 0.49365 0.91925 0.0
C511 C 0.46635 0.5758 0.92966 0.0
C512 C 0.42539 0.47422 0.8812 0.0
C513 C 0.39966 0.44474 0.89414 0.0
C514 C 0.45583 0.50475 0.89099 0.0
C515 C 0.46041 0.50574 0.91424 0.0
C516 C 0.43354 0.47674 0.92742 0.0
C517 C 0.40368 0.44642 0.91718 0.0
C518 C 0.48411 0.53492 0.87635 0.0
C519 C 0.43719 0.47696 0.95226 0.0
H520 H 0.58157 0.55216 0.93807 0.0
H521 H 0.53449 0.62237 0.94576 0.0
H522 H 0.50069 0.46967 0.92796 0.0
H523 H 0.51712 0.48968 0.9013 0.0
H524 H 0.54956 0.49349 0.92222 0.0
H525 H 0.47254 0.60257 0.93717 0.0
H526 H 0.4597 0.57604 0.91193 0.0
H527 H 0.44131 0.55327 0.93769 0.0
H528 H 0.42274 0.47263 0.86336 0.0
H529 H 0.38369 0.42362 0.9272 0.0
H530 H 0.51031 0.53422 0.87684 0.0
H531 H 0.49026 0.56246 0.88246 0.0
H532 H 0.47476 0.53186 0.8589 0.0
H533 H 0.46109 0.47358 0.9567 0.0
H534 H 0.41205 0.45441 0.96025 0.0
H535 H 0.44253 0.50382 0.95915 0.0
C536 C 0.96652 0.44221 0.04428 0.0
C537 C 0.94434 0.40402 0.04732 0.0
C538 C 0.96302 0.46722 0.05812 0.0
C539 C 0.93685 0.45363 0.07555 0.0
C540 C 0.91289 0.41507 0.07788 0.0
C541 C 0.91716 0.39066 0.06384 0.0
C542 C 0.98913 0.50813 0.05504 0.0
C543 C 0.88459 0.39951 0.09619 0.0
C544 C 0.96769 0.51733 0.12524 0.0
C545 C 0.94887 0.53681 0.12203 0.0
C546 C 0.9624 0.48872 0.11089 0.0
C547 C 0.93791 0.47965 0.09274 0.0
C548 C 0.91751 0.49809 0.09002 0.0
C549 C 0.92348 0.52674 0.10462 0.0
C550 C 0.98472 0.46976 0.11441 0.0
C551 C 0.89114 0.48919 0.07093 0.0
H552 H 0.98787 0.4525 0.0317 0.0
H553 H 0.90107 0.36123 0.06696 0.0
H554 H 0.97365 0.52331 0.05489 0.0
H555 H 0.00878 0.5189 0.06911 0.0
H556 H 0.00525 0.51428 0.03946 0.0
H557 H 0.86445 0.36969 0.09367 0.0
H558 H 0.89879 0.40274 0.11222 0.0
H559 H 0.86928 0.41481 0.09739 0.0
H560 H 0.98772 0.52553 0.13851 0.0
H561 H 0.91003 0.54274 0.1015 0.0
H562 H 0.00484 0.47698 0.10069 0.0
H563 H 0.96644 0.4393 0.11426 0.0
H564 H 0.00018 0.47789 0.13027 0.0
H565 H 0.90706 0.49951 0.05534 0.0
H566 H 0.87363 0.50209 0.07293 0.0
H567 H 0.87297 0.45885 0.06922 0.0
C568 C 0.52435 0.96898 0.21481 0.0
C569 C 0.53948 0.94599 0.2176 0.0
C570 C 0.49551 0.96534 0.22835 0.0
C571 C 0.48194 0.93845 0.24539 0.0
C572 C 0.49611 0.91411 0.24769 0.0
C573 C 0.52487 0.91823 0.23375 0.0
C574 C 0.48096 0.99165 0.22518 0.0
C575 C 0.48253 0.88527 0.26571 0.0
C576 C 0.44459 0.96808 0.2934 0.0
C577 C 0.40669 0.94927 0.28888 0.0
C578 C 0.46918 0.96275 0.28024 0.0
C579 C 0.45551 0.9385 0.26187 0.0
C580 C 0.41697 0.91798 0.25793 0.0
C581 C 0.39298 0.92375 0.27146 0.0
C582 C 0.51004 0.98497 0.28513 0.0
C583 C 0.40132 0.89206 0.23848 0.0
H584 H 0.53597 0.99065 0.20243 0.0
H585 H 0.53742 0.90128 0.23644 0.0
H586 H 0.45036 0.97614 0.22415 0.0
H587 H 0.48865 0.01047 0.23962 0.0
H588 H 0.49212 0.00869 0.21001 0.0
H589 H 0.49278 0.86553 0.2635 0.0
H590 H 0.49217 0.89907 0.28198 0.0
H591 H 0.45189 0.86956 0.26615 0.0
H592 H 0.45515 0.98816 0.30672 0.0
H593 H 0.36386 0.91024 0.26738 0.0
H594 H 0.52404 0.00614 0.27206 0.0
H595 H 0.52243 0.96687 0.28504 0.0
H596 H 0.51575 0.99923 0.30137 0.0
H597 H 0.40801 0.90841 0.22299 0.0
H598 H 0.37082 0.87421 0.2396 0.0
H599 H 0.4139 0.87419 0.23725 0.0
C600 C 0.10235 0.92477 0.47 0.0
C601 C 0.08308 0.90348 0.48841 0.0
C602 C 0.12251 0.96343 0.47131 0.0
C603 C 0.12305 0.98094 0.49146 0.0
C604 C 0.10131 0.95971 0.50952 0.0
C605 C 0.08161 0.92114 0.50779 0.0
C606 C 0.14542 0.98528 0.45171 0.0
C607 C 0.10095 0.97747 0.5312 0.0
C608 C 0.21166 0.06879 0.50502 0.0
C609 C 0.20241 0.09592 0.50007 0.0
C610 C 0.18588 0.03125 0.50241 0.0
C611 C 0.15 0.02066 0.49462 0.0
C612 C 0.14025 0.04783 0.48986 0.0
C613 C 0.16664 0.08528 0.49268 0.0
C614 C 0.19719 0.00296 0.50779 0.0
C615 C 0.10218 0.03736 0.48155 0.0
H616 H 0.10346 0.91124 0.45495 0.0
H617 H 0.06635 0.90478 0.52199 0.0
H618 H 0.14166 0.00934 0.44847 0.0
H619 H 0.17512 0.99619 0.45537 0.0
H620 H 0.13827 0.96816 0.43649 0.0
H621 H 0.07881 0.95775 0.54244 0.0
H622 H 0.12794 0.98778 0.53963 0.0
H623 H 0.09707 0.00155 0.52837 0.0
H624 H 0.23922 0.07686 0.51083 0.0
H625 H 0.15942 0.1062 0.48874 0.0
H626 H 0.19455 0.98637 0.49286 0.0
H627 H 0.1786 0.98358 0.52062 0.0
H628 H 0.2261 0.01586 0.51387 0.0
H629 H 0.09699 0.02267 0.46551 0.0
H630 H 0.09868 0.06182 0.47925 0.0
H631 H 0.08087 0.01808 0.49331 0.0
C632 C 0.18242 0.26474 0.68064 0.0
C633 C 0.15026 0.25529 0.69264 0.0
C634 C 0.19902 0.24283 0.68177 0.0
C635 C 0.18379 0.21165 0.69592 0.0
C636 C 0.15242 0.20318 0.70899 0.0
C637 C 0.1355 0.22475 0.70684 0.0
C638 C 0.23187 0.25215 0.66714 0.0
C639 C 0.13633 0.17096 0.72486 0.0
C640 C 0.20215 0.13436 0.68074 0.0
C641 C 0.23338 0.14332 0.69355 0.0
C642 C 0.18544 0.15624 0.68154 0.0
C643 C 0.19968 0.18695 0.69605 0.0
C644 C 0.23039 0.19523 0.70966 0.0
C645 C 0.24732 0.17366 0.70793 0.0
C646 C 0.15341 0.14728 0.66629 0.0
C647 C 0.24552 0.22701 0.72585 0.0
H648 H 0.19362 0.28829 0.66955 0.0
H649 H 0.11074 0.21778 0.71623 0.0
H650 H 0.25572 0.25625 0.6773 0.0
H651 H 0.22506 0.22881 0.65571 0.0
H652 H 0.24039 0.2775 0.65717 0.0
H653 H 0.11446 0.1706 0.7355 0.0
H654 H 0.12421 0.14464 0.71549 0.0
H655 H 0.15837 0.17202 0.73561 0.0
H656 H 0.19158 0.11101 0.66953 0.0
H657 H 0.27144 0.18046 0.7179 0.0
H658 H 0.16075 0.171 0.65507 0.0
H659 H 0.12897 0.14272 0.67601 0.0
H660 H 0.14558 0.12231 0.6561 0.0
H661 H 0.25497 0.25346 0.71694 0.0
H662 H 0.26903 0.22915 0.73561 0.0
H663 H 0.2234 0.22353 0.73744 0.0
C664 C 0.07789 0.26956 0.81766 0.0
C665 C 0.10036 0.26011 0.80539 0.0
C666 C 0.0394 0.24771 0.81674 0.0
C667 C 0.02321 0.21669 0.80248 0.0
C668 C 0.04583 0.20875 0.78878 0.0
C669 C 0.08434 0.23017 0.79076 0.0
C670 C 0.01621 0.2565 0.83204 0.0
C671 C 0.02944 0.17684 0.77269 0.0
C672 C 0.93018 0.13759 0.82 0.0
C673 C 0.90614 0.14555 0.8083 0.0
C674 C 0.9685 0.16039 0.81803 0.0
C675 C 0.98286 0.19098 0.8034 0.0
C676 C 0.95863 0.19818 0.79084 0.0
C677 C 0.92044 0.17575 0.79379 0.0
C678 C 0.99358 0.15256 0.83219 0.0
C679 C 0.97305 0.22972 0.77449 0.0
H680 H 0.09042 0.29272 0.82903 0.0
H681 H 0.10192 0.22324 0.78111 0.0
H682 H 0.99517 0.25944 0.8225 0.0
H683 H 0.0012 0.23338 0.84387 0.0
H684 H 0.03312 0.28231 0.84161 0.0
H685 H 0.05048 0.17779 0.76105 0.0
H686 H 0.01721 0.15036 0.78191 0.0
H687 H 0.00691 0.1769 0.76301 0.0
H688 H 0.91901 0.11434 0.83131 0.0
H689 H 0.90172 0.18175 0.78467 0.0
H690 H 0.01056 0.17663 0.84304 0.0
H691 H 0.01287 0.14838 0.82161 0.0
H692 H 0.97793 0.12768 0.84273 0.0
H693 H 0.98993 0.25643 0.78314 0.0
H694 H 0.95046 0.23078 0.76547 0.0
H695 H 0.99131 0.22691 0.76226 0.0
C696 C 0.80856 0.91116 0.04716 0.0
C697 C 0.80862 0.89338 0.02751 0.0
C698 C 0.82473 0.94975 0.04794 0.0
C699 C 0.84108 0.9707 0.0286 0.0
C700 C 0.84341 0.95308 0.0092 0.0
C701 C 0.82728 0.91462 0.00893 0.0
C702 C 0.82224 0.96781 0.069 0.0
C703 C 0.86065 0.97451 0.98822 0.0
C704 C 0.83733 0.05787 0.01795 0.0
C705 C 0.87417 0.08522 0.02139 0.0
C706 C 0.826 0.02047 0.02091 0.0
C707 C 0.85213 0.01031 0.02769 0.0
C708 C 0.88911 0.03783 0.0319 0.0
C709 C 0.89979 0.07506 0.02856 0.0
C710 C 0.78633 0.99177 0.01609 0.0
C711 C 0.91752 0.0279 0.03941 0.0
H712 H 0.79437 0.89488 0.06162 0.0
H713 H 0.82789 0.90109 0.99377 0.0
H714 H 0.84918 0.9927 0.07281 0.0
H715 H 0.80168 0.97699 0.06688 0.0
H716 H 0.81372 0.94861 0.08333 0.0
H717 H 0.86314 0.95709 0.97522 0.0
H718 H 0.84345 0.98575 0.98165 0.0
H719 H 0.88851 0.99833 0.99164 0.0
H720 H 0.81743 0.06562 0.01248 0.0
H721 H 0.92823 0.0962 0.03153 0.0
H722 H 0.77387 0.97342 0.03061 0.0
H723 H 0.7853 0.97416 1.00205 0.0
H724 H 0.76917 0.00438 0.01186 0.0
H725 H 0.90713 0.00926 0.05395 0.0
H726 H 0.94424 0.05269 0.04381 0.0
H727 H 0.92256 0.01275 0.02605 0.0
C728 C 0.80783 0.88948 0.15761 0.0
C729 C 0.77262 0.86595 0.1488 0.0
C730 C 0.83298 0.87704 0.16099 0.0
C731 C 0.82262 0.84025 0.15538 0.0
C732 C 0.7878 0.81689 0.14555 0.0
C733 C 0.76316 0.83004 0.14237 0.0
C734 C 0.87001 0.90278 0.17136 0.0
C735 C 0.77596 0.77752 0.13921 0.0
C736 C 0.89409 0.81017 0.15034 0.0
C737 C 0.88972 0.79196 0.17056 0.0
C738 C 0.87315 0.82699 0.14538 0.0
C739 C 0.84722 0.8254 0.161 0.0
C740 C 0.84366 0.80828 0.18176 0.0
C741 C 0.86508 0.79184 0.18633 0.0
C742 C 0.87787 0.8453 0.12315 0.0
C743 C 0.81621 0.80609 0.19883 0.0
H744 H 0.81542 0.91734 0.16254 0.0
H745 H 0.73608 0.81178 0.13546 0.0
H746 H 0.87141 0.89245 0.18802 0.0
H747 H 0.89261 0.90351 0.16134 0.0
H748 H 0.875 0.93141 0.17305 0.0
H749 H 0.74897 0.76376 0.13048 0.0
H750 H 0.79703 0.77679 0.12839 0.0
H751 H 0.77361 0.76134 0.15429 0.0
H752 H 0.91322 0.81052 0.13811 0.0
H753 H 0.86151 0.77777 0.20197 0.0
H754 H 0.88273 0.87378 0.12528 0.0
H755 H 0.85218 0.82969 0.11333 0.0
H756 H 0.9012 0.84663 0.11356 0.0
H757 H 0.8209 0.83413 0.20253 0.0
H758 H 0.81799 0.79322 0.21451 0.0
H759 H 0.78774 0.78958 0.19222 0.0
C760 C 0.07912 0.89447 0.33758 0.0
C761 C 0.09297 0.87916 0.32237 0.0
C762 C 0.04125 0.87684 0.34228 0.0
C763 C 0.01689 0.84376 0.33104 0.0
C764 C 0.03064 0.82927 0.31483 0.0
C765 C 0.06871 0.84694 0.31091 0.0
C766 C 0.02756 0.89264 0.35995 0.0
C767 C 0.00531 0.79453 0.30212 0.0
C768 C 0.92675 0.77236 0.35679 0.0
C769 C 0.90141 0.77909 0.3456 0.0
C770 C 0.96471 0.79437 0.3529 0.0
C771 C 0.97728 0.82306 0.33702 0.0
C772 C 0.95182 0.8305 0.32605 0.0
C773 C 0.91407 0.80862 0.33069 0.0
C774 C 0.99123 0.78626 0.36531 0.0
C775 C 0.96427 0.86044 0.30873 0.0
H776 H 0.09807 0.9193 0.34655 0.0
H777 H 0.07956 0.83538 0.29898 0.0
H778 H 0.00476 0.89628 0.35347 0.0
H779 H 0.01629 0.87304 0.37403 0.0
H780 H 0.0498 0.91968 0.36623 0.0
H781 H 0.02001 0.78896 0.28868 0.0
H782 H 0.99312 0.77051 0.31352 0.0
H783 H 0.98214 0.79671 0.29477 0.0
H784 H 0.91684 0.74969 0.36849 0.0
H785 H 0.89433 0.8136 0.32193 0.0
H786 H 0.01357 0.81193 0.3729 0.0
H787 H 0.00444 0.77584 0.35365 0.0
H788 H 0.97724 0.76532 0.37853 0.0
H789 H 0.98616 0.8872 0.31546 0.0
H790 H 0.94118 0.86402 0.30263 0.0
H791 H 0.97638 0.85344 0.29447 0.0
C792 C 0.32207 0.07186 0.35427 0.0
C793 C 0.28464 0.0496 0.34865 0.0
C794 C 0.33412 0.10415 0.36704 0.0
C795 C 0.30803 0.11391 0.37468 0.0
C796 C 0.2706 0.09239 0.36823 0.0
C797 C 0.25952 0.06088 0.35519 0.0
C798 C 0.37442 0.1269 0.37312 0.0
C799 C 0.24164 0.10136 0.37617 0.0
C800 C 0.31481 0.15946 0.42972 0.0
C801 C 0.31851 0.19331 0.42317 0.0
C802 C 0.31424 0.13439 0.41414 0.0
C803 C 0.31819 0.14372 0.3914 0.0
C804 C 0.3255 0.17941 0.38492 0.0
C805 C 0.32523 0.20379 0.40093 0.0
C806 C 0.306 0.09664 0.4219 0.0
C807 C 0.3309 0.19082 0.36094 0.0
H808 H 0.34179 0.06363 0.34916 0.0
H809 H 0.23056 0.0442 0.35089 0.0
H810 H 0.38421 0.15684 0.37134 0.0
H811 H 0.37817 0.12184 0.39068 0.0
H812 H 0.39198 0.11983 0.36276 0.0
H813 H 0.21403 0.08281 0.36885 0.0
H814 H 0.23918 0.0987 0.39444 0.0
H815 H 0.24986 0.13031 0.37198 0.0
H816 H 0.31026 0.15172 0.44704 0.0
H817 H 0.32834 0.23012 0.39593 0.0
H818 H 0.32553 0.08911 0.41438 0.0
H819 H 0.27773 0.07564 0.41659 0.0
H820 H 0.30759 0.09519 0.44018 0.0
H821 H 0.34849 0.18162 0.35248 0.0
H822 H 0.34372 0.22125 0.35907 0.0
H823 H 0.30373 0.1775 0.35247 0.0
C824 C 0.2219 0.30377 0.51135 0.0
C825 C 0.24749 0.29662 0.52189 0.0
C826 C 0.199 0.31288 0.5237 0.0
C827 C 0.2007 0.31304 0.54711 0.0
C828 C 0.22771 0.30731 0.55769 0.0
C829 C 0.25111 0.29965 0.54489 0.0
C830 C 0.17166 0.32025 0.51174 0.0
C831 C 0.22998 0.30632 0.58258 0.0
C832 C 0.15429 0.3475 0.58703 0.0
C833 C 0.12307 0.31418 0.59323 0.0
C834 C 0.17852 0.34818 0.57063 0.0
C835 C 0.17173 0.3146 0.56072 0.0
C836 C 0.13878 0.28137 0.56589 0.0
C837 C 0.11448 0.28179 0.58174 0.0
C838 C 0.21243 0.38443 0.56489 0.0
C839 C 0.13048 0.24482 0.55596 0.0
H840 H 0.21891 0.30096 0.49353 0.0
H841 H 0.27049 0.29336 0.55298 0.0
H842 H 0.14374 0.29544 0.5127 0.0
H843 H 0.17016 0.34352 0.51954 0.0
H844 H 0.179 0.32681 0.49401 0.0
H845 H 0.25362 0.30324 0.58819 0.0
H846 H 0.23279 0.33195 0.58989 0.0
H847 H 0.20409 0.28277 0.58917 0.0
H848 H 0.16079 0.3727 0.59578 0.0
H849 H 0.08968 0.25625 0.58611 0.0
H850 H 0.21723 0.38674 0.54676 0.0
H851 H 0.23701 0.38584 0.57284 0.0
H852 H 0.21006 0.40843 0.57064 0.0
H853 H 0.13159 0.24658 0.53767 0.0
H854 H 0.10289 0.22185 0.56095 0.0
H855 H 0.15176 0.23799 0.56136 0.0
C856 C 0.80096 0.10903 0.72097 0.0
C857 C 0.79267 0.11727 0.74187 0.0
C858 C 0.82929 0.13669 0.70806 0.0
C859 C 0.85044 0.17297 0.7167 0.0
C860 C 0.83972 0.18196 0.73694 0.0
C861 C 0.81067 0.15399 0.74919 0.0
C862 C 0.839 0.12609 0.68628 0.0
C863 C 0.86183 0.21988 0.74712 0.0
C864 C 0.95356 0.21984 0.7062 0.0
C865 C 0.9595 0.24781 0.69111 0.0
C866 C 0.91827 0.19546 0.71446 0.0
C867 C 0.88771 0.19865 0.70732 0.0
C868 C 0.89328 0.22658 0.69193 0.0
C869 C 0.92924 0.25111 0.68414 0.0
C870 C 0.91381 0.1662 0.73086 0.0
C871 C 0.86124 0.23024 0.68358 0.0
H872 H 0.78731 0.0805 0.71548 0.0
H873 H 0.80467 0.16012 0.7656 0.0
H874 H 0.84721 0.14847 0.6739 0.0
H875 H 0.86278 0.12157 0.68865 0.0
H876 H 0.81553 0.10021 0.6796 0.0
H877 H 0.8463 0.22434 0.76054 0.0
H878 H 0.88763 0.22284 0.75426 0.0
H879 H 0.86979 0.24184 0.73451 0.0
H880 H 0.97672 0.21712 0.71183 0.0
H881 H 0.93356 0.27248 0.67237 0.0
H882 H 0.89727 0.13839 0.72336 0.0
H883 H 0.89865 0.16708 0.74566 0.0
H884 H 0.94074 0.16957 0.73626 0.0
H885 H 0.8404 0.20392 0.67581 0.0
H886 H 0.87002 0.2529 0.67131 0.0
H887 H 0.84744 0.23564 0.69759 0.0
C888 C 0.75737 0.9514 0.8548 0.0
C889 C 0.7298 0.95813 0.84665 0.0
C890 C 0.74857 0.92053 0.86802 0.0
C891 C 0.71115 0.89516 0.87302 0.0
C892 C 0.68296 0.90055 0.86389 0.0
C893 C 0.69262 0.93218 0.85096 0.0
C894 C 0.7796 0.91619 0.8776 0.0
C895 C 0.64272 0.8737 0.86846 0.0
C896 C 0.69948 0.80746 0.89968 0.0
C897 C 0.70167 0.81663 0.9221 0.0
C898 C 0.69961 0.83152 0.88332 0.0
C899 C 0.70244 0.86555 0.88966 0.0
C900 C 0.70208 0.87352 0.91239 0.0
C901 C 0.70132 0.84877 0.92829 0.0
C902 C 0.69902 0.82159 0.85929 0.0
C903 C 0.7053 0.90947 0.91999 0.0
H904 H 0.78619 0.97109 0.85159 0.0
H905 H 0.67108 0.93691 0.84461 0.0
H906 H 0.77972 0.91862 0.89587 0.0
H907 H 0.77539 0.8884 0.87369 0.0
H908 H 0.80712 0.93733 0.87124 0.0
H909 H 0.63662 0.84482 0.86619 0.0
H910 H 0.63626 0.87657 0.88589 0.0
H911 H 0.6242 0.87859 0.85755 0.0
H912 H 0.69943 0.7824 0.89493 0.0
H913 H 0.70211 0.85539 0.94569 0.0
H914 H 0.72711 0.83833 0.85219 0.0
H915 H 0.68019 0.82793 0.84974 0.0
H916 H 0.69016 0.79188 0.85711 0.0
H917 H 0.73308 0.93273 0.91567 0.0
H918 H 0.70134 0.90997 0.93812 0.0
H919 H 0.68464 0.91436 0.91146 0.0
C920 C 0.77178 0.6772 0.00787 0.0
C921 C 0.76653 0.7045 0.01785 0.0
C922 C 0.79503 0.66576 0.01776 0.0
C923 C 0.81261 0.68165 0.03815 0.0
C924 C 0.80557 0.70778 0.04872 0.0
C925 C 0.78299 0.71906 0.03834 0.0
C926 C 0.80212 0.63814 0.00591 0.0
C927 C 0.8231 0.72517 0.07063 0.0
C928 C 0.85522 0.64753 0.08011 0.0
C929 C 0.89237 0.6751 0.07837 0.0
C930 C 0.82882 0.64629 0.06523 0.0
C931 C 0.8401 0.67328 0.04832 0.0
C932 C 0.8783 0.69816 0.04496 0.0
C933 C 0.90404 0.69895 0.06018 0.0
C934 C 0.78852 0.61919 0.06941 0.0
C935 C 0.89167 0.72693 0.02691 0.0
H936 H 0.75918 0.66611 0.99196 0.0
H937 H 0.77859 0.73994 0.04615 0.0
H938 H 0.83036 0.65264 0.99876 0.0
H939 H 0.80081 0.61701 0.01757 0.0
H940 H 0.78205 0.62402 0.99231 0.0
H941 H 0.81175 0.74205 0.07762 0.0
H942 H 0.81885 0.7036 0.08286 0.0
H943 H 0.85331 0.74336 0.06837 0.0
H944 H 0.84628 0.62922 0.09431 0.0
H945 H 0.93283 0.72031 0.05896 0.0
H946 H 0.77326 0.60855 0.05365 0.0
H947 H 0.776 0.63343 0.07838 0.0
H948 H 0.7848 0.59545 0.07962 0.0
H949 H 0.87626 0.71497 0.01134 0.0
H950 H 0.92169 0.73888 0.02369 0.0
H951 H 0.88678 0.74968 0.03195 0.0
C952 C 0.04624 0.78092 0.20376 0.0
C953 C 0.04394 0.75634 0.18722 0.0
C954 C 0.07974 0.80434 0.2144 0.0
C955 C 0.11218 0.80405 0.20792 0.0
C956 C 0.11007 0.7791 0.19131 0.0
C957 C 0.07576 0.75508 0.18134 0.0
C958 C 0.08038 0.82963 0.23251 0.0
C959 C 0.14415 0.77847 0.18373 0.0
C960 C 0.19549 0.89482 0.2245 0.0
C961 C 0.20389 0.88556 0.24505 0.0
C962 C 0.16804 0.86758 0.21098 0.0
C963 C 0.148 0.83052 0.21856 0.0
C964 C 0.1586 0.82072 0.23855 0.0
C965 C 0.18664 0.84842 0.2515 0.0
C966 C 0.15817 0.87912 0.18958 0.0
C967 C 0.13773 0.78181 0.24751 0.0
H968 H 0.02158 0.78163 0.20853 0.0
H969 H 0.07405 0.7362 0.16848 0.0
H970 H 0.09218 0.8252 0.24787 0.0
H971 H 0.09831 0.85891 0.22756 0.0
H972 H 0.0524 0.82511 0.23631 0.0
H973 H 0.13769 0.7565 0.17127 0.0
H974 H 0.16402 0.80561 0.17636 0.0
H975 H 0.15813 0.77406 0.19801 0.0
H976 H 0.20862 0.92367 0.21969 0.0
H977 H 0.1928 0.84148 0.26763 0.0
H978 H 0.13239 0.88022 0.1919 0.0
H979 H 0.15303 0.85873 0.17633 0.0
H980 H 0.18029 0.90682 0.18408 0.0
H981 H 0.11086 0.77657 0.25432 0.0
H982 H 0.15324 0.77732 0.26091 0.0
H983 H 0.13176 0.76126 0.23423 0.0
C984 C 0.94388 0.732 0.46533 0.0
C985 C 0.94721 0.71295 0.48343 0.0
C986 C 0.90986 0.71983 0.45487 0.0
C987 C 0.87794 0.68823 0.46306 0.0
C988 C 0.88115 0.66836 0.48113 0.0
C989 C 0.91599 0.68074 0.49098 0.0
C990 C 0.90807 0.74131 0.43523 0.0
C991 C 0.84767 0.63492 0.4905 0.0
C992 C 0.79529 0.69514 0.44487 0.0
C993 C 0.78639 0.67529 0.42506 0.0
C994 C 0.82239 0.69602 0.459 0.0
C995 C 0.84151 0.67735 0.45276 0.0
C996 C 0.82995 0.65439 0.43379 0.0
C997 C 0.80231 0.65351 0.42019 0.0
C998 C 0.83326 0.72017 0.47931 0.0
C999 C 0.84968 0.63431 0.42634 0.0
H1000 H 0.9681 0.75669 0.45931 0.0
H1001 H 0.91855 0.66613 0.50506 0.0
H1002 H 0.89523 0.7226 0.4209 0.0
H1003 H 0.89057 0.75357 0.43928 0.0
H1004 H 0.93579 0.76396 0.43017 0.0
H1005 H 0.82899 0.64354 0.4981 0.0
H1006 H 0.83192 0.61496 0.47717 0.0
H1007 H 0.85519 0.62068 0.50325 0.0
H1008 H 0.78309 0.71217 0.44847 0.0
H1009 H 0.79567 0.63855 0.40466 0.0
H1010 H 0.85904 0.74658 0.47589 0.0
H1011 H 0.83879 0.70663 0.4934 0.0
H1012 H 0.81149 0.72666 0.48421 0.0
H1013 H 0.87622 0.65433 0.41839 0.0
H1014 H 0.83306 0.61224 0.41417 0.0
H1015 H 0.8562 0.62183 0.44057 0.0
C1016 C 0.1472 0.83742 0.58019 0.0
C1017 C 0.11213 0.80941 0.58678 0.0
C1018 C 0.17187 0.8632 0.59544 0.0
C1019 C 0.16127 0.86064 0.61791 0.0
C1020 C 0.12711 0.83034 0.62495 0.0
C1021 C 0.1027 0.80513 0.60919 0.0
C1022 C 0.20773 0.8951 0.58708 0.0
C1023 C 0.11509 0.82618 0.64879 0.0
C1024 C 0.23563 0.9288 0.65726 0.0
C1025 C 0.22746 0.95758 0.65781 0.0
C1026 C 0.21347 0.89624 0.64512 0.0
C1027 C 0.18295 0.89276 0.6329 0.0
C1028 C 0.17433 0.92149 0.6337 0.0
C1029 C 0.19641 0.95325 0.64624 0.0
C1030 C 0.22312 0.86592 0.64498 0.0
C1031 C 0.14245 0.91932 0.62065 0.0
H1032 H 0.15432 0.8406 0.56276 0.0
H1033 H 0.07547 0.78347 0.61421 0.0
H1034 H 0.20595 0.92075 0.58736 0.0
H1035 H 0.23106 0.89972 0.5979 0.0
H1036 H 0.21397 0.89052 0.56989 0.0
H1037 H 0.09158 0.79808 0.65229 0.0
H1038 H 0.13834 0.83176 0.65999 0.0
H1039 H 0.10629 0.84661 0.65265 0.0
H1040 H 0.25941 0.93177 0.66624 0.0
H1041 H 0.18985 0.97529 0.64643 0.0
H1042 H 0.23265 0.86359 0.62825 0.0
H1043 H 0.19832 0.83893 0.64884 0.0
H1044 H 0.24522 0.87113 0.65706 0.0
H1045 H 0.14698 0.91747 0.60272 0.0
H1046 H 0.13896 0.9437 0.62342 0.0
H1047 H 0.11634 0.89405 0.62523 0.0
C1048 C 0.25962 0.21932 0.79695 0.0
C1049 C 0.27988 0.24573 0.81324 0.0
C1050 C 0.27044 0.19454 0.78932 0.0
C1051 C 0.30229 0.1957 0.7983 0.0
C1052 C 0.32295 0.22215 0.81481 0.0
C1053 C 0.31167 0.24714 0.82199 0.0
C1054 C 0.24762 0.16705 0.77156 0.0
C1055 C 0.35665 0.22373 0.825 0.0
C1056 C 0.29641 0.10468 0.78486 0.0
C1057 C 0.31543 0.1133 0.76474 0.0
C1058 C 0.29575 0.13244 0.79766 0.0
C1059 C 0.31358 0.16931 0.7897 0.0
C1060 C 0.33573 0.1785 0.77042 0.0
C1061 C 0.33662 0.15033 0.75826 0.0
C1062 C 0.27257 0.12153 0.81839 0.0
C1063 C 0.35452 0.21711 0.76096 0.0
H1064 H 0.2352 0.21815 0.78989 0.0
H1065 H 0.32735 0.26734 0.83465 0.0
H1066 H 0.26548 0.16927 0.75742 0.0
H1067 H 0.23525 0.1385 0.77811 0.0
H1068 H 0.22496 0.17126 0.76537 0.0
H1069 H 0.36959 0.2457 0.83776 0.0
H1070 H 0.34896 0.19671 0.83271 0.0
H1071 H 0.37744 0.22886 0.81202 0.0
H1072 H 0.27968 0.07594 0.78968 0.0
H1073 H 0.35077 0.15682 0.74245 0.0
H1074 H 0.24537 0.11892 0.81464 0.0
H1075 H 0.28597 0.14291 0.83141 0.0
H1076 H 0.26766 0.09459 0.82494 0.0
H1077 H 0.33359 0.22179 0.75255 0.0
H1078 H 0.37607 0.22134 0.74868 0.0
H1079 H 0.36738 0.23815 0.77418 0.0
C1080 C 0.05948 0.31382 0.98107 0.0
C1081 C 0.03546 0.2761 0.98522 0.0
C1082 C 0.09014 0.32549 0.96689 0.0
C1083 C 0.09625 0.29878 0.95622 0.0
C1084 C 0.07281 0.26083 0.96097 0.0
C1085 C 0.04312 0.25006 0.97555 0.0
C1086 C 0.11518 0.36626 0.96275 0.0
C1087 C 0.07777 0.2313 0.94968 0.0
C1088 C 0.13864 0.31475 0.89909 0.0
C1089 C 0.17204 0.31567 0.90339 0.0
C1090 C 0.1145 0.31108 0.91625 0.0
C1091 C 0.12453 0.30955 0.93842 0.0
C1092 C 0.15961 0.3135 0.94299 0.0
C1093 C 0.18282 0.31604 0.92537 0.0
C1094 C 0.07722 0.30642 0.91049 0.0
C1095 C 0.17182 0.31311 0.9664 0.0
H1096 H 0.054 0.33416 0.98857 0.0
H1097 H 0.02482 0.22083 0.97856 0.0
H1098 H 0.14459 0.37355 0.96362 0.0
H1099 H 0.11021 0.37328 0.94589 0.0
H1100 H 0.11039 0.38348 0.97483 0.0
H1101 H 0.05797 0.2031 0.9558 0.0
H1102 H 0.07376 0.2321 0.93159 0.0
H1103 H 0.10624 0.23648 0.95229 0.0
H1104 H 0.1308 0.31578 0.88216 0.0
H1105 H 0.20869 0.31688 0.92878 0.0
H1106 H 0.07239 0.32642 0.91989 0.0
H1107 H 0.05514 0.27825 0.91522 0.0
H1108 H 0.07453 0.31034 0.89256 0.0
H1109 H 0.16536 0.33059 0.97723 0.0
H1110 H 0.20191 0.32307 0.96739 0.0
H1111 H 0.15664 0.28451 0.97298 0.0
C1112 C 0.77454 0.04129 0.12869 0.0
C1113 C 0.74855 0.03569 0.14513 0.0
C1114 C 0.79747 0.07632 0.11961 0.0
C1115 C 0.79502 0.107 0.12742 0.0
C1116 C 0.7688 0.10168 0.144 0.0
C1117 C 0.7455 0.0659 0.15252 0.0
C1118 C 0.8244 0.08039 0.10159 0.0
C1119 C 0.7658 0.1338 0.15293 0.0
C1120 C 0.88417 0.19316 0.11256 0.0
C1121 C 0.875 0.20138 0.09192 0.0
C1122 C 0.85709 0.16501 0.12581 0.0
C1123 C 0.82032 0.14424 0.1179 0.0
C1124 C 0.81039 0.15517 0.09808 0.0
C1125 C 0.83793 0.18381 0.08535 0.0
C1126 C 0.86876 0.15482 0.14704 0.0
C1127 C 0.77173 0.13376 0.08885 0.0
H1128 H 0.77676 0.01802 0.12266 0.0
H1129 H 0.72553 0.06172 0.16526 0.0
H1130 H 0.81968 0.09285 0.08662 0.0
H1131 H 0.85314 0.09921 0.10716 0.0
H1132 H 0.82191 0.05352 0.09687 0.0
H1133 H 0.74336 0.12497 0.16536 0.0
H1134 H 0.79233 0.15409 0.16074 0.0
H1135 H 0.76059 0.14831 0.13927 0.0
H1136 H 0.91296 0.20659 0.11748 0.0
H1137 H 0.83102 0.18992 0.0692 0.0
H1138 H 0.87196 0.13033 0.14414 0.0
H1139 H 0.84751 0.14744 0.16007 0.0
H1140 H 0.89555 0.17774 0.15315 0.0
H1141 H 0.76769 0.10783 0.08122 0.0
H1142 H 0.76674 0.14976 0.07599 0.0
H1143 H 0.75079 0.12602 0.1021 0.0
C1144 C 0.73594 0.78503 0.30489 0.0
C1145 C 0.71009 0.75311 0.31622 0.0
C1146 C 0.72486 0.80507 0.29153 0.0
C1147 C 0.68686 0.79358 0.28969 0.0
C1148 C 0.66056 0.76226 0.30173 0.0
C1149 C 0.67244 0.74203 0.31466 0.0
C1150 C 0.75391 0.8378 0.27866 0.0
C1151 C 0.61991 0.74971 0.30058 0.0
C1152 C 0.67628 0.86991 0.26296 0.0
C1153 C 0.67351 0.85984 0.24068 0.0
C1154 C 0.67684 0.84661 0.2796 0.0
C1155 C 0.67533 0.81302 0.27364 0.0
C1156 C 0.66958 0.80162 0.25125 0.0
C1157 C 0.6684 0.82504 0.2351 0.0
C1158 C 0.68199 0.85933 0.30333 0.0
C1159 C 0.66833 0.7664 0.24399 0.0
H1160 H 0.7651 0.79383 0.30583 0.0
H1161 H 0.65232 0.71756 0.32346 0.0
H1162 H 0.74873 0.83267 0.26066 0.0
H1163 H 0.75247 0.86297 0.28266 0.0
H1164 H 0.78235 0.84344 0.2822 0.0
H1165 H 0.60367 0.72814 0.3131 0.0
H1166 H 0.61541 0.77349 0.30312 0.0
H1167 H 0.60912 0.73824 0.28394 0.0
H1168 H 0.68015 0.89682 0.26727 0.0
H1169 H 0.6657 0.81708 0.21783 0.0
H1170 H 0.71125 0.87037 0.30818 0.0
H1171 H 0.66466 0.8359 0.31452 0.0
H1172 H 0.67496 0.88147 0.3058 0.0
H1173 H 0.69637 0.76985 0.24541 0.0
H1174 H 0.65895 0.75916 0.22659 0.0
H1175 H 0.64965 0.74298 0.25478 0.0
C1176 C 0.37998 0.23855 0.55537 0.0
C1177 C 0.34434 0.21893 0.54628 0.0
C1178 C 0.38976 0.22478 0.57393 0.0
C1179 C 0.36316 0.19086 0.58365 0.0
C1180 C 0.32767 0.17049 0.574 0.0
C1181 C 0.31882 0.18467 0.55555 0.0
C1182 C 0.42802 0.24713 0.58355 0.0
C1183 C 0.29824 0.13419 0.5837 0.0
C1184 C 0.37303 0.12779 0.62441 0.0
C1185 C 0.35672 0.13364 0.64306 0.0
C1186 C 0.37984 0.14958 0.6053 0.0
C1187 C 0.37007 0.17761 0.60505 0.0
C1188 C 0.3581 0.18644 0.62484 0.0
C1189 C 0.35142 0.16423 0.64355 0.0
C1190 C 0.39352 0.13988 0.58471 0.0
C1191 C 0.34782 0.21632 0.62556 0.0
H1192 H 0.4 0.26489 0.54826 0.0
H1193 H 0.29128 0.16893 0.54867 0.0
H1194 H 0.42687 0.26204 0.59843 0.0
H1195 H 0.43896 0.22895 0.58875 0.0
H1196 H 0.44757 0.26787 0.57157 0.0
H1197 H 0.27265 0.12097 0.57356 0.0
H1198 H 0.30875 0.1146 0.58514 0.0
H1199 H 0.29092 0.13884 0.60057 0.0
H1200 H 0.37728 0.10422 0.62401 0.0
H1201 H 0.33931 0.16912 0.65812 0.0
H1202 H 0.41275 0.16514 0.57535 0.0
H1203 H 0.36969 0.12252 0.5738 0.0
H1204 H 0.40773 0.12411 0.58868 0.0
H1205 H 0.36859 0.24142 0.61671 0.0
H1206 H 0.34531 0.22402 0.64279 0.0
H1207 H 0.32083 0.20628 0.61718 0.0
C1208 C 0.16339 0.41895 0.71062 0.0
C1209 C 0.12907 0.38845 0.7161 0.0
C1210 C 0.19367 0.43106 0.72515 0.0
C1211 C 0.18932 0.41155 0.74514 0.0
C1212 C 0.15343 0.38395 0.75182 0.0
C1213 C 0.12376 0.37303 0.73725 0.0
C1214 C 0.23092 0.46196 0.71791 0.0
C1215 C 0.14702 0.36215 0.77293 0.0
C1216 C 0.25176 0.37713 0.7645 0.0
C1217 C 0.2591 0.391 0.7861 0.0
C1218 C 0.23292 0.38749 0.7496 0.0
C1219 C 0.2217 0.41287 0.75646 0.0
C1220 C 0.23463 0.43153 0.77692 0.0
C1221 C 0.25296 0.42003 0.79173 0.0
C1222 C 0.2202 0.36692 0.72791 0.0
C1223 C 0.22521 0.46029 0.78433 0.0
H1224 H 0.16761 0.43084 0.69421 0.0
H1225 H 0.09712 0.34942 0.74143 0.0
H1226 H 0.24861 0.47691 0.73229 0.0
H1227 H 0.24519 0.45037 0.7081 0.0
H1228 H 0.22791 0.48195 0.70724 0.0
H1229 H 0.11715 0.34416 0.77665 0.0
H1230 H 0.15962 0.34432 0.7714 0.0
H1231 H 0.16024 0.38095 0.78714 0.0
H1232 H 0.25657 0.35466 0.76019 0.0
H1233 H 0.25852 0.43076 0.80847 0.0
H1234 H 0.22478 0.38627 0.71416 0.0
H1235 H 0.19012 0.3468 0.72877 0.0
H1236 H 0.23478 0.35149 0.72397 0.0
H1237 H 0.22357 0.47612 0.77007 0.0
H1238 H 0.246 0.47981 0.79629 0.0
H1239 H 0.19794 0.44652 0.79271 0.0
C1240 C 0.81581 0.15513 0.86957 0.0
C1241 C 0.77791 0.13131 0.86597 0.0
C1242 C 0.82881 0.17526 0.88922 0.0
C1243 C 0.80328 0.17193 0.90571 0.0
C1244 C 0.76486 0.15118 0.90118 0.0
C1245 C 0.75253 0.13085 0.88134 0.0
C1246 C 0.87003 0.19714 0.89313 0.0
C1247 C 0.73677 0.14811 0.91796 0.0
C1248 C 0.84224 0.17231 0.96197 0.0
C1249 C 0.85948 0.20984 0.96784 0.0
C1250 C 0.82144 0.15918 0.94258 0.0
C1251 C 0.81712 0.184 0.92867 0.0
C1252 C 0.83146 0.22121 0.93547 0.0
C1253 C 0.85276 0.23382 0.95495 0.0
C1254 C 0.80675 0.11925 0.93612 0.0
C1255 C 0.8264 0.24828 0.92153 0.0
H1256 H 0.83565 0.15639 0.85753 0.0
H1257 H 0.72318 0.11289 0.87856 0.0
H1258 H 0.87829 0.22516 0.89939 0.0
H1259 H 0.87771 0.18307 0.90589 0.0
H1260 H 0.88608 0.19997 0.87788 0.0
H1261 H 0.70953 0.13925 0.91016 0.0
H1262 H 0.73297 0.1273 0.93063 0.0
H1263 H 0.74627 0.17486 0.92655 0.0
H1264 H 0.84651 0.15327 0.97201 0.0
H1265 H 0.86552 0.26276 0.95946 0.0
H1266 H 0.82179 0.11796 0.92132 0.0
H1267 H 0.77707 0.10596 0.93173 0.0
H1268 H 0.80998 0.10294 0.94955 0.0
H1269 H 0.84748 0.25911 0.90821 0.0
H1270 H 0.82979 0.27212 0.93151 0.0
H1271 H 0.79876 0.23476 0.9136 0.0
C1272 C 0.66617 0.77356 0.06036 0.0
C1273 C 0.64642 0.75727 0.04095 0.0
C1274 C 0.65303 0.78877 0.07603 0.0
C1275 C 0.61894 0.78753 0.07234 0.0
C1276 C 0.59713 0.76802 0.05377 0.0
C1277 C 0.61124 0.75311 0.03815 0.0
C1278 C 0.67729 0.80881 0.09564 0.0
C1279 C 0.56024 0.76512 0.0495 0.0
C1280 C 0.59966 0.82465 0.12422 0.0
C1281 C 0.61995 0.8626 0.1197 0.0
C1282 C 0.594 0.7986 0.1077 0.0
C1283 C 0.60971 0.8111 0.08648 0.0
C1284 C 0.62572 0.84913 0.0812 0.0
C1285 C 0.63077 0.87446 0.09796 0.0
C1286 C 0.57554 0.75824 0.11382 0.0
C1287 C 0.64249 0.86383 0.05876 0.0
H1288 H 0.69319 0.77633 0.06268 0.0
H1289 H 0.59593 0.74056 0.02312 0.0
H1290 H 0.68674 0.83877 0.09451 0.0
H1291 H 0.66148 0.79835 0.11124 0.0
H1292 H 0.70207 0.80556 0.09661 0.0
H1293 H 0.54253 0.74096 0.03885 0.0
H1294 H 0.5454 0.76275 0.06518 0.0
H1295 H 0.56461 0.79041 0.04084 0.0
H1296 H 0.59169 0.8155 0.14113 0.0
H1297 H 0.64688 0.90387 0.09457 0.0
H1298 H 0.59694 0.75111 0.11839 0.0
H1299 H 0.55964 0.74047 0.09967 0.0
H1300 H 0.55671 0.75191 0.12817 0.0
H1301 H 0.66905 0.86395 0.05736 0.0
H1302 H 0.64805 0.89249 0.05612 0.0
H1303 H 0.62403 0.84593 0.04542 0.0
C1304 C 0.86268 0.61251 0.21849 0.0
C1305 C 0.86341 0.63771 0.20289 0.0
C1306 C 0.84041 0.60382 0.23758 0.0
C1307 C 0.81905 0.62117 0.24113 0.0
C1308 C 0.81685 0.64341 0.22422 0.0
C1309 C 0.83878 0.65111 0.20531 0.0
C1310 C 0.84218 0.57857 0.25474 0.0
C1311 C 0.79449 0.66253 0.22708 0.0
C1312 C 0.75439 0.61041 0.28849 0.0
C1313 C 0.77784 0.64132 0.30137 0.0
C1314 C 0.76805 0.6009 0.26976 0.0
C1315 C 0.80572 0.62323 0.26368 0.0
C1316 C 0.8299 0.65251 0.27773 0.0
C1317 C 0.81575 0.66087 0.29641 0.0
C1318 C 0.74164 0.5685 0.25577 0.0
C1319 C 0.87026 0.67729 0.27205 0.0
H1320 H 0.88125 0.60161 0.21661 0.0
H1321 H 0.83844 0.66985 0.19303 0.0
H1322 H 0.86243 0.59539 0.2677 0.0
H1323 H 0.81495 0.56157 0.26285 0.0
H1324 H 0.85115 0.55996 0.24736 0.0
H1325 H 0.79285 0.67589 0.21157 0.0
H1326 H 0.76603 0.64258 0.23258 0.0
H1327 H 0.8074 0.68415 0.24002 0.0
H1328 H 0.72517 0.59475 0.29236 0.0
H1329 H 0.83439 0.68425 0.30655 0.0
H1330 H 0.7556 0.5545 0.24819 0.0
H1331 H 0.73091 0.5784 0.24222 0.0
H1332 H 0.71768 0.54803 0.26566 0.0
H1333 H 0.88359 0.66057 0.2687 0.0
H1334 H 0.8858 0.69723 0.28548 0.0
H1335 H 0.87269 0.6932 0.25682 0.0
C1336 C 0.23926 0.86328 0.38186 0.0
C1337 C 0.21603 0.87032 0.36848 0.0
C1338 C 0.22528 0.84068 0.4008 0.0
C1339 C 0.18747 0.82537 0.40653 0.0
C1340 C 0.16355 0.83005 0.39203 0.0
C1341 C 0.17804 0.85212 0.3732 0.0
C1342 C 0.25146 0.83527 0.41537 0.0
C1343 C 0.12304 0.81441 0.39731 0.0
C1344 C 0.13026 0.75839 0.45198 0.0
C1345 C 0.12885 0.78303 0.46716 0.0
C1346 C 0.15271 0.77175 0.43295 0.0
C1347 C 0.17368 0.81041 0.4291 0.0
C1348 C 0.17515 0.83512 0.44562 0.0
C1349 C 0.15291 0.82111 0.46442 0.0
C1350 C 0.15152 0.7445 0.41616 0.0
C1351 C 0.19708 0.87654 0.44242 0.0
H1352 H 0.26854 0.87675 0.37819 0.0
H1353 H 0.15958 0.85654 0.36269 0.0
H1354 H 0.26107 0.8557 0.42904 0.0
H1355 H 0.23761 0.80723 0.42282 0.0
H1356 H 0.27612 0.83942 0.406 0.0
H1357 H 0.10769 0.81814 0.38349 0.0
H1358 H 0.10982 0.7845 0.4011 0.0
H1359 H 0.12019 0.82841 0.41216 0.0
H1360 H 0.11204 0.72891 0.45412 0.0
H1361 H 0.1526 0.84031 0.47638 0.0
H1362 H 0.17896 0.75477 0.40831 0.0
H1363 H 0.13154 0.74073 0.40294 0.0
H1364 H 0.14257 0.7171 0.42378 0.0
H1365 H 0.22563 0.88529 0.43699 0.0
H1366 H 0.1985 0.89181 0.45777 0.0
H1367 H 0.18396 0.88469 0.42931 0.0
loop_
_geom_bond_atom_site_label_1
_geom_bond_atom_site_label_2
_geom_bond_distance
_geom_bond_site_symmetry_2
_ccdc_geom_bond_type
Co0 O3 1.970 . S
Co0 N17 1.989 . S
Co0 O25 1.967 . S
Co0 O32 1.920 . S
Co1 O4 1.966 . S
Co1 N10 2.022 . S
Co1 N18 1.993 . S
Co1 O26 1.941 . S
C2 O3 1.258 . S
C2 O4 1.263 . S
O3 Co0 1.970 . S
O3 C2 1.258 . S
O4 Co1 1.966 . S
O4 C2 1.263 . S
C5 O6 1.235 . S
C5 O32 1.289 . S
O6 C5 1.235 . S
C7 C9 1.400 . S
C7 N10 1.351 . S
C7 C12 1.501 . S
C8 C9 1.387 . S
C8 N11 1.341 . S
C9 C7 1.400 . S
C9 C8 1.387 . S
N10 Co1 2.022 . S
N10 C7 1.351 . S
N10 N11 1.365 . S
N11 C8 1.341 . S
N11 N10 1.365 . S
N11 H31 0.862 . S
C12 C7 1.501 . S
C12 H13 0.961 . S
C12 H14 0.961 . S
C12 H15 0.960 . S
H13 C12 0.961 . S
H14 C12 0.961 . S
H15 C12 0.960 . S
C16 N17 1.342 . S
C16 C20 1.401 . S
C16 C21 1.499 . S
N17 Co0 1.989 . S
N17 C16 1.342 . S
N17 N18 1.388 . S
N18 Co1 1.993 . S
N18 N17 1.388 . S
N18 C19 1.346 . S
C19 N18 1.346 . S
C19 C20 1.396 . S
C19 C29 1.510 . S
C20 C16 1.401 . S
C20 C19 1.396 . S
C21 C16 1.499 . S
C21 H22 0.959 . S
C21 H23 0.960 . S
C21 H24 0.961 . S
H22 C21 0.959 . S
H23 C21 0.960 . S
H24 C21 0.961 . S
O25 Co0 1.967 . S
O25 C33 1.258 . S
O26 Co1 1.941 . S
O26 C33 1.266 . S
H27 C29 0.959 . S
H28 C29 0.961 . S
C29 C19 1.510 . S
C29 H27 0.959 . S
C29 H28 0.961 . S
C29 H30 0.960 . S
H30 C29 0.960 . S
H31 N11 0.862 . S
O32 Co0 1.920 . S
O32 C5 1.289 . S
C33 O25 1.258 . S
C33 O26 1.266 . S
Co34 O37 1.970 . S
Co34 N51 1.989 . S
Co34 O59 1.967 . S
Co34 O66 1.920 . S
Co35 O38 1.966 . S
Co35 N44 2.022 . S
Co35 N52 1.993 . S
Co35 O60 1.941 . S
C36 O37 1.258 . S
C36 O38 1.263 . S
O37 Co34 1.970 . S
O37 C36 1.258 . S
O38 Co35 1.966 . S
O38 C36 1.263 . S
C39 O40 1.235 . S
C39 O66 1.289 . S
O40 C39 1.235 . S
C41 C43 1.400 . S
C41 N44 1.351 . S
C41 C46 1.501 . S
C42 C43 1.387 . S
C42 N45 1.341 . S
C43 C41 1.400 . S
C43 C42 1.387 . S
N44 Co35 2.022 . S
N44 C41 1.351 . S
N44 N45 1.365 . S
N45 C42 1.341 . S
N45 N44 1.365 . S
N45 H65 0.862 . S
C46 C41 1.501 . S
C46 H47 0.961 . S
C46 H48 0.961 . S
C46 H49 0.960 . S
H47 C46 0.961 . S
H48 C46 0.961 . S
H49 C46 0.960 . S
C50 N51 1.342 . S
C50 C54 1.401 . S
C50 C55 1.499 . S
N51 Co34 1.989 . S
N51 C50 1.342 . S
N51 N52 1.388 . S
N52 Co35 1.993 . S
N52 N51 1.388 . S
N52 C53 1.346 . S
C53 N52 1.346 . S
C53 C54 1.396 . S
C53 C63 1.510 . S
C54 C50 1.401 . S
C54 C53 1.396 . S
C55 C50 1.499 . S
C55 H56 0.959 . S
C55 H57 0.960 . S
C55 H58 0.961 . S
H56 C55 0.959 . S
H57 C55 0.960 . S
H58 C55 0.961 . S
O59 Co34 1.967 . S
O59 C67 1.258 . S
O60 Co35 1.941 . S
O60 C67 1.266 . S
H61 C63 0.959 . S
H62 C63 0.961 . S
C63 C53 1.510 . S
C63 H61 0.959 . S
C63 H62 0.961 . S
C63 H64 0.960 . S
H64 C63 0.960 . S
H65 N45 0.862 . S
O66 Co34 1.920 . S
O66 C39 1.289 . S
C67 O59 1.258 . S
C67 O60 1.266 . S
Co68 O71 1.970 . S
Co68 N85 1.989 . S
Co68 O93 1.967 . S
Co68 O100 1.920 . S
Co69 O72 1.966 . S
Co69 N78 2.022 . S
Co69 N86 1.993 . S
Co69 O94 1.941 . S
C70 O71 1.258 . S
C70 O72 1.263 . S
O71 Co68 1.970 . S
O71 C70 1.258 . S
O72 Co69 1.966 . S
O72 C70 1.263 . S
C73 O74 1.235 . S
C73 O100 1.289 . S
O74 C73 1.235 . S
C75 C77 1.400 . S
C75 N78 1.351 . S
C75 C80 1.501 . S
C76 C77 1.387 . S
C76 N79 1.341 . S
C77 C75 1.400 . S
C77 C76 1.387 . S
N78 Co69 2.022 . S
N78 C75 1.351 . S
N78 N79 1.365 . S
N79 C76 1.341 . S
N79 N78 1.365 . S
N79 H99 0.862 . S
C80 C75 1.501 . S
C80 H81 0.961 . S
C80 H82 0.961 . S
C80 H83 0.960 . S
H81 C80 0.961 . S
H82 C80 0.961 . S
H83 C80 0.960 . S
C84 N85 1.342 . S
C84 C88 1.401 . S
C84 C89 1.499 . S
N85 Co68 1.989 . S
N85 C84 1.342 . S
N85 N86 1.388 . S
N86 Co69 1.993 . S
N86 N85 1.388 . S
N86 C87 1.346 . S
C87 N86 1.346 . S
C87 C88 1.396 . S
C87 C97 1.510 . S
C88 C84 1.401 . S
C88 C87 1.396 . S
C89 C84 1.499 . S
C89 H90 0.959 . S
C89 H91 0.960 . S
C89 H92 0.961 . S
H90 C89 0.959 . S
H91 C89 0.960 . S
H92 C89 0.961 . S
O93 Co68 1.967 . S
O93 C101 1.258 . S
O94 Co69 1.941 . S
O94 C101 1.266 . S
H95 C97 0.959 . S
H96 C97 0.961 . S
C97 C87 1.510 . S
C97 H95 0.959 . S
C97 H96 0.961 . S
C97 H98 0.960 . S
H98 C97 0.960 . S
H99 N79 0.862 . S
O100 Co68 1.920 . S
O100 C73 1.289 . S
C101 O93 1.258 . S
C101 O94 1.266 . S
Co102 O105 1.970 . S
Co102 N119 1.989 . S
Co102 O127 1.967 . S
Co102 O134 1.920 . S
Co103 O106 1.966 . S
Co103 N112 2.022 . S
Co103 N120 1.993 . S
Co103 O128 1.941 . S
C104 O105 1.258 1_554 S
C104 O106 1.263 1_554 S
O105 Co102 1.970 . S
O105 C104 1.258 1_556 S
O106 Co103 1.966 . S
O106 C104 1.263 1_556 S
C107 O108 1.235 . S
C107 O134 1.289 . S
O108 C107 1.235 . S
C109 C111 1.400 . S
C109 N112 1.351 . S
C109 C114 1.501 . S
C110 C111 1.387 . S
C110 N113 1.341 . S
C111 C109 1.400 . S
C111 C110 1.387 . S
N112 Co103 2.022 . S
N112 C109 1.351 . S
N112 N113 1.365 . S
N113 C110 1.341 . S
N113 N112 1.365 . S
N113 H133 0.862 . S
C114 C109 1.501 . S
C114 H115 0.961 . S
C114 H116 0.961 . S
C114 H117 0.960 . S
H115 C114 0.961 . S
H116 C114 0.961 . S
H117 C114 0.960 . S
C118 N119 1.342 . S
C118 C122 1.401 . S
C118 C123 1.499 . S
N119 Co102 1.989 . S
N119 C118 1.342 . S
N119 N120 1.388 . S
N120 Co103 1.993 . S
N120 N119 1.388 . S
N120 C121 1.346 . S
C121 N120 1.346 . S
C121 C122 1.396 . S
C121 C131 1.510 . S
C122 C118 1.401 . S
C122 C121 1.396 . S
C123 C118 1.499 . S
C123 H124 0.959 . S
C123 H125 0.960 . S
C123 H126 0.961 . S
H124 C123 0.959 . S
H125 C123 0.960 . S
H126 C123 0.961 . S
O127 Co102 1.967 . S
O127 C135 1.258 . S
O128 Co103 1.941 . S
O128 C135 1.266 . S
H129 C131 0.959 . S
H130 C131 0.961 . S
C131 C121 1.510 . S
C131 H129 0.959 . S
C131 H130 0.961 . S
C131 H132 0.960 . S
H132 C131 0.960 . S
H133 N113 0.862 . S
O134 Co102 1.920 . S
O134 C107 1.289 . S
C135 O127 1.258 . S
C135 O128 1.266 . S
Co136 O139 1.970 . S
Co136 N153 1.989 . S
Co136 O161 1.967 . S
Co136 O168 1.920 . S
Co137 O140 1.966 . S
Co137 N146 2.022 . S
Co137 N154 1.993 . S
Co137 O162 1.941 . S
C138 O139 1.258 . S
C138 O140 1.263 . S
O139 Co136 1.970 . S
O139 C138 1.258 . S
O140 Co137 1.966 . S
O140 C138 1.263 . S
C141 O142 1.235 . S
C141 O168 1.289 . S
O142 C141 1.235 . S
C143 C145 1.400 . S
C143 N146 1.351 . S
C143 C148 1.501 . S
C144 C145 1.387 . S
C144 N147 1.341 . S
C145 C143 1.400 . S
C145 C144 1.387 . S
N146 Co137 2.022 . S
N146 C143 1.351 . S
N146 N147 1.365 . S
N147 C144 1.341 . S
N147 N146 1.365 . S
N147 H167 0.862 . S
C148 C143 1.501 . S
C148 H149 0.961 . S
C148 H150 0.961 . S
C148 H151 0.960 . S
H149 C148 0.961 . S
H150 C148 0.961 . S
H151 C148 0.960 . S
C152 N153 1.342 . S
C152 C156 1.401 . S
C152 C157 1.499 . S
N153 Co136 1.989 . S
N153 C152 1.342 . S
N153 N154 1.388 . S
N154 Co137 1.993 . S
N154 N153 1.388 . S
N154 C155 1.346 . S
C155 N154 1.346 . S
C155 C156 1.396 . S
C155 C165 1.510 . S
C156 C152 1.401 . S
C156 C155 1.396 . S
C157 C152 1.499 . S
C157 H158 0.959 . S
C157 H159 0.960 . S
C157 H160 0.961 . S
H158 C157 0.959 . S
H159 C157 0.960 . S
H160 C157 0.961 . S
O161 Co136 1.967 . S
O161 C169 1.258 . S
O162 Co137 1.941 . S
O162 C169 1.266 . S
H163 C165 0.959 . S
H164 C165 0.961 . S
C165 C155 1.510 . S
C165 H163 0.959 . S
C165 H164 0.961 . S
C165 H166 0.960 . S
H166 C165 0.960 . S
H167 N147 0.862 . S
O168 Co136 1.920 . S
O168 C141 1.289 . S
C169 O161 1.258 . S
C169 O162 1.266 . S
Co170 O173 1.970 . S
Co170 N187 1.989 . S
Co170 O195 1.967 . S
Co170 O202 1.920 . S
Co171 O174 1.966 . S
Co171 N180 2.022 . S
Co171 N188 1.993 . S
Co171 O196 1.941 . S
C172 O173 1.258 . S
C172 O174 1.263 . S
O173 Co170 1.970 . S
O173 C172 1.258 . S
O174 Co171 1.966 . S
O174 C172 1.263 . S
C175 O176 1.235 . S
C175 O202 1.289 . S
O176 C175 1.235 . S
C177 C179 1.400 . S
C177 N180 1.351 . S
C177 C182 1.501 . S
C178 C179 1.387 . S
C178 N181 1.341 . S
C179 C177 1.400 . S
C179 C178 1.387 . S
N180 Co171 2.022 . S
N180 C177 1.351 . S
N180 N181 1.365 . S
N181 C178 1.341 . S
N181 N180 1.365 . S
N181 H201 0.862 . S
C182 C177 1.501 . S
C182 H183 0.961 . S
C182 H184 0.961 . S
C182 H185 0.960 . S
H183 C182 0.961 . S
H184 C182 0.961 . S
H185 C182 0.960 . S
C186 N187 1.342 . S
C186 C190 1.401 . S
C186 C191 1.499 . S
N187 Co170 1.989 . S
N187 C186 1.342 . S
N187 N188 1.388 . S
N188 Co171 1.993 . S
N188 N187 1.388 . S
N188 C189 1.346 . S
C189 N188 1.346 . S
C189 C190 1.396 . S
C189 C199 1.510 . S
C190 C186 1.401 . S
C190 C189 1.396 . S
C191 C186 1.499 . S
C191 H192 0.959 . S
C191 H193 0.960 . S
C191 H194 0.961 . S
H192 C191 0.959 . S
H193 C191 0.960 . S
H194 C191 0.961 . S
O195 Co170 1.967 . S
O195 C203 1.258 . S
O196 Co171 1.941 . S
O196 C203 1.266 . S
H197 C199 0.959 . S
H198 C199 0.961 . S
C199 C189 1.510 . S
C199 H197 0.959 . S
C199 H198 0.961 . S
C199 H200 0.960 . S
H200 C199 0.960 . S
H201 N181 0.862 . S
O202 Co170 1.920 . S
O202 C175 1.289 . S
C203 O195 1.258 . S
C203 O196 1.266 . S
Co204 O207 1.970 . S
Co204 N221 1.989 . S
Co204 O229 1.967 . S
Co204 O236 1.920 . S
Co205 O208 1.966 . S
Co205 N214 2.022 . S
Co205 N222 1.993 . S
Co205 O230 1.941 . S
C206 O207 1.258 . S
C206 O208 1.263 . S
O207 Co204 1.970 . S
O207 C206 1.258 . S
O208 Co205 1.966 . S
O208 C206 1.263 . S
C209 O210 1.235 . S
C209 O236 1.289 . S
O210 C209 1.235 . S
C211 C213 1.400 . S
C211 N214 1.351 . S
C211 C216 1.501 . S
C212 C213 1.387 . S
C212 N215 1.341 . S
C213 C211 1.400 . S
C213 C212 1.387 . S
N214 Co205 2.022 . S
N214 C211 1.351 . S
N214 N215 1.365 . S
N215 C212 1.341 . S
N215 N214 1.365 . S
N215 H235 0.862 . S
C216 C211 1.501 . S
C216 H217 0.961 . S
C216 H218 0.961 . S
C216 H219 0.960 . S
H217 C216 0.961 . S
H218 C216 0.961 . S
H219 C216 0.960 . S
C220 N221 1.342 . S
C220 C224 1.401 . S
C220 C225 1.499 . S
N221 Co204 1.989 . S
N221 C220 1.342 . S
N221 N222 1.388 . S
N222 Co205 1.993 . S
N222 N221 1.388 . S
N222 C223 1.346 . S
C223 N222 1.346 . S
C223 C224 1.396 . S
C223 C233 1.510 . S
C224 C220 1.401 . S
C224 C223 1.396 . S
C225 C220 1.499 . S
C225 H226 0.959 . S
C225 H227 0.960 . S
C225 H228 0.961 . S
H226 C225 0.959 . S
H227 C225 0.960 . S
H228 C225 0.961 . S
O229 Co204 1.967 . S
O229 C237 1.258 . S
O230 Co205 1.941 . S
O230 C237 1.266 . S
H231 C233 0.959 . S
H232 C233 0.961 . S
C233 C223 1.510 . S
C233 H231 0.959 . S
C233 H232 0.961 . S
C233 H234 0.960 . S
H234 C233 0.960 . S
H235 N215 0.862 . S
O236 Co204 1.920 . S
O236 C209 1.289 . S
C237 O229 1.258 . S
C237 O230 1.266 . S
Co238 O241 1.970 . S
Co238 N255 1.989 . S
Co238 O263 1.967 . S
Co238 O270 1.920 . S
Co239 O242 1.966 . S
Co239 N248 2.022 . S
Co239 N256 1.993 . S
Co239 O264 1.941 . S
C240 O241 1.258 . S
C240 O242 1.263 . S
O241 Co238 1.970 . S
O241 C240 1.258 . S
O242 Co239 1.966 . S
O242 C240 1.263 . S
C243 O244 1.235 . S
C243 O270 1.289 . S
O244 C243 1.235 . S
C245 C247 1.400 . S
C245 N248 1.351 . S
C245 C250 1.501 . S
C246 C247 1.387 . S
C246 N249 1.341 . S
C247 C245 1.400 . S
C247 C246 1.387 . S
N248 Co239 2.022 . S
N248 C245 1.351 . S
N248 N249 1.365 . S
N249 C246 1.341 . S
N249 N248 1.365 . S
N249 H269 0.862 . S
C250 C245 1.501 . S
C250 H251 0.961 . S
C250 H252 0.961 . S
C250 H253 0.960 . S
H251 C250 0.961 . S
H252 C250 0.961 . S
H253 C250 0.960 . S
C254 N255 1.342 . S
C254 C258 1.401 . S
C254 C259 1.499 . S
N255 Co238 1.989 . S
N255 C254 1.342 . S
N255 N256 1.388 . S
N256 Co239 1.993 . S
N256 N255 1.388 . S
N256 C257 1.346 . S
C257 N256 1.346 . S
C257 C258 1.396 . S
C257 C267 1.510 . S
C258 C254 1.401 . S
C258 C257 1.396 . S
C259 C254 1.499 . S
C259 H260 0.959 . S
C259 H261 0.960 . S
C259 H262 0.961 . S
H260 C259 0.959 . S
H261 C259 0.960 . S
H262 C259 0.961 . S
O263 Co238 1.967 . S
O263 C271 1.258 . S
O264 Co239 1.941 . S
O264 C271 1.266 . S
H265 C267 0.959 . S
H266 C267 0.961 . S
C267 C257 1.510 . S
C267 H265 0.959 . S
C267 H266 0.961 . S
C267 H268 0.960 . S
H268 C267 0.960 . S
H269 N249 0.862 . S
O270 Co238 1.920 . S
O270 C243 1.289 . S
C271 O263 1.258 . S
C271 O264 1.266 . S
Co272 O275 1.970 . S
Co272 N289 1.989 . S
Co272 O297 1.967 . S
Co272 O304 1.920 . S
Co273 O276 1.966 . S
Co273 N282 2.022 . S
Co273 N290 1.993 . S
Co273 O298 1.941 . S
C274 O275 1.258 . S
C274 O276 1.263 . S
O275 Co272 1.970 . S
O275 C274 1.258 . S
O276 Co273 1.966 . S
O276 C274 1.263 . S
C277 O278 1.235 . S
C277 O304 1.289 . S
O278 C277 1.235 . S
C279 C281 1.400 . S
C279 N282 1.351 . S
C279 C284 1.501 . S
C280 C281 1.387 . S
C280 N283 1.341 . S
C281 C279 1.400 . S
C281 C280 1.387 . S
N282 Co273 2.022 . S
N282 C279 1.351 . S
N282 N283 1.365 . S
N283 C280 1.341 . S
N283 N282 1.365 . S
N283 H303 0.862 . S
C284 C279 1.501 . S
C284 H285 0.961 . S
C284 H286 0.961 . S
C284 H287 0.960 . S
H285 C284 0.961 . S
H286 C284 0.961 . S
H287 C284 0.960 . S
C288 N289 1.342 . S
C288 C292 1.401 . S
C288 C293 1.499 . S
N289 Co272 1.989 . S
N289 C288 1.342 . S
N289 N290 1.388 . S
N290 Co273 1.993 . S
N290 N289 1.388 . S
N290 C291 1.346 . S
C291 N290 1.346 . S
C291 C292 1.396 . S
C291 C301 1.510 . S
C292 C288 1.401 . S
C292 C291 1.396 . S
C293 C288 1.499 . S
C293 H294 0.959 . S
C293 H295 0.960 . S
C293 H296 0.961 . S
H294 C293 0.959 . S
H295 C293 0.960 . S
H296 C293 0.961 . S
O297 Co272 1.967 . S
O297 C305 1.258 . S
O298 Co273 1.941 . S
O298 C305 1.266 . S
H299 C301 0.959 . S
H300 C301 0.961 . S
C301 C291 1.510 . S
C301 H299 0.959 . S
C301 H300 0.961 . S
C301 H302 0.960 . S
H302 C301 0.960 . S
H303 N283 0.862 . S
O304 Co272 1.920 . S
O304 C277 1.289 . S
C305 O297 1.258 . S
C305 O298 1.266 . S
Co306 O309 1.970 . S
Co306 N323 1.989 . S
Co306 O331 1.967 . S
Co306 O338 1.920 . S
Co307 O310 1.966 . S
Co307 N316 2.022 . S
Co307 N324 1.993 . S
Co307 O332 1.941 . S
C308 O309 1.258 . S
C308 O310 1.263 . S
O309 Co306 1.970 . S
O309 C308 1.258 . S
O310 Co307 1.966 . S
O310 C308 1.263 . S
C311 O312 1.235 . S
C311 O338 1.289 . S
O312 C311 1.235 . S
C313 C315 1.400 . S
C313 N316 1.351 . S
C313 C318 1.501 . S
C314 C315 1.387 . S
C314 N317 1.341 . S
C315 C313 1.400 . S
C315 C314 1.387 . S
N316 Co307 2.022 . S
N316 C313 1.351 . S
N316 N317 1.365 . S
N317 C314 1.341 . S
N317 N316 1.365 . S
N317 H337 0.862 . S
C318 C313 1.501 . S
C318 H319 0.961 . S
C318 H320 0.961 . S
C318 H321 0.960 . S
H319 C318 0.961 . S
H320 C318 0.961 . S
H321 C318 0.960 . S
C322 N323 1.342 . S
C322 C326 1.401 . S
C322 C327 1.499 . S
N323 Co306 1.989 . S
N323 C322 1.342 . S
N323 N324 1.388 . S
N324 Co307 1.993 . S
N324 N323 1.388 . S
N324 C325 1.346 . S
C325 N324 1.346 . S
C325 C326 1.396 . S
C325 C335 1.510 . S
C326 C322 1.401 . S
C326 C325 1.396 . S
C327 C322 1.499 . S
C327 H328 0.959 . S
C327 H329 0.960 . S
C327 H330 0.961 . S
H328 C327 0.959 . S
H329 C327 0.960 . S
H330 C327 0.961 . S
O331 Co306 1.967 . S
O331 C339 1.258 . S
O332 Co307 1.941 . S
O332 C339 1.266 . S
H333 C335 0.959 . S
H334 C335 0.961 . S
C335 C325 1.510 . S
C335 H333 0.959 . S
C335 H334 0.961 . S
C335 H336 0.960 . S
H336 C335 0.960 . S
H337 N317 0.862 . S
O338 Co306 1.920 . S
O338 C311 1.289 . S
C339 O331 1.258 . S
C339 O332 1.266 . S
Co340 O343 1.970 . S
Co340 N357 1.989 . S
Co340 O365 1.967 . S
Co340 O372 1.920 . S
Co341 O344 1.966 . S
Co341 N350 2.022 . S
Co341 N358 1.993 . S
Co341 O366 1.941 . S
C342 O343 1.258 1_556 S
C342 O344 1.263 1_556 S
O343 Co340 1.970 . S
O343 C342 1.258 1_554 S
O344 Co341 1.966 . S
O344 C342 1.263 1_554 S
C345 O346 1.235 . S
C345 O372 1.289 . S
O346 C345 1.235 . S
C347 C349 1.400 . S
C347 N350 1.351 . S
C347 C352 1.501 . S
C348 C349 1.387 . S
C348 N351 1.341 . S
C349 C347 1.400 . S
C349 C348 1.387 . S
N350 Co341 2.022 . S
N350 C347 1.351 . S
N350 N351 1.365 . S
N351 C348 1.341 . S
N351 N350 1.365 . S
N351 H371 0.862 . S
C352 C347 1.501 . S
C352 H353 0.961 . S
C352 H354 0.961 . S
C352 H355 0.960 . S
H353 C352 0.961 . S
H354 C352 0.961 . S
H355 C352 0.960 . S
C356 N357 1.342 . S
C356 C360 1.401 . S
C356 C361 1.499 . S
N357 Co340 1.989 . S
N357 C356 1.342 . S
N357 N358 1.388 . S
N358 Co341 1.993 . S
N358 N357 1.388 . S
N358 C359 1.346 . S
C359 N358 1.346 . S
C359 C360 1.396 . S
C359 C369 1.510 . S
C360 C356 1.401 . S
C360 C359 1.396 . S
C361 C356 1.499 . S
C361 H362 0.959 . S
C361 H363 0.960 . S
C361 H364 0.961 . S
H362 C361 0.959 . S
H363 C361 0.960 . S
H364 C361 0.961 . S
O365 Co340 1.967 . S
O365 C373 1.258 . S
O366 Co341 1.941 . S
O366 C373 1.266 . S
H367 C369 0.959 . S
H368 C369 0.961 . S
C369 C359 1.510 . S
C369 H367 0.959 . S
C369 H368 0.961 . S
C369 H370 0.960 . S
H370 C369 0.960 . S
H371 N351 0.862 . S
O372 Co340 1.920 . S
O372 C345 1.289 . S
C373 O365 1.258 . S
C373 O366 1.266 . S
Co374 O377 1.970 . S
Co374 N391 1.989 . S
Co374 O399 1.967 . S
Co374 O406 1.920 . S
Co375 O378 1.966 . S
Co375 N384 2.022 . S
Co375 N392 1.993 . S
Co375 O400 1.941 . S
C376 O377 1.258 . S
C376 O378 1.263 . S
O377 Co374 1.970 . S
O377 C376 1.258 . S
O378 Co375 1.966 . S
O378 C376 1.263 . S
C379 O380 1.235 . S
C379 O406 1.289 . S
O380 C379 1.235 . S
C381 C383 1.400 . S
C381 N384 1.351 . S
C381 C386 1.501 . S
C382 C383 1.387 . S
C382 N385 1.341 . S
C383 C381 1.400 . S
C383 C382 1.387 . S
N384 Co375 2.022 . S
N384 C381 1.351 . S
N384 N385 1.365 . S
N385 C382 1.341 . S
N385 N384 1.365 . S
N385 H405 0.862 . S
C386 C381 1.501 . S
C386 H387 0.961 . S
C386 H388 0.961 . S
C386 H389 0.960 . S
H387 C386 0.961 . S
H388 C386 0.961 . S
H389 C386 0.960 . S
C390 N391 1.342 . S
C390 C394 1.401 . S
C390 C395 1.499 . S
N391 Co374 1.989 . S
N391 C390 1.342 . S
N391 N392 1.388 . S
N392 Co375 1.993 . S
N392 N391 1.388 . S
N392 C393 1.346 . S
C393 N392 1.346 . S
C393 C394 1.396 . S
C393 C403 1.510 . S
C394 C390 1.401 . S
C394 C393 1.396 . S
C395 C390 1.499 . S
C395 H396 0.959 . S
C395 H397 0.960 . S
C395 H398 0.961 . S
H396 C395 0.959 . S
H397 C395 0.960 . S
H398 C395 0.961 . S
O399 Co374 1.967 . S
O399 C407 1.258 . S
O400 Co375 1.941 . S
O400 C407 1.266 . S
H401 C403 0.959 . S
H402 C403 0.961 . S
C403 C393 1.510 . S
C403 H401 0.959 . S
C403 H402 0.961 . S
C403 H404 0.960 . S
H404 C403 0.960 . S
H405 N385 0.862 . S
O406 Co374 1.920 . S
O406 C379 1.289 . S
C407 O399 1.258 . S
C407 O400 1.266 . S
C408 C409 1.391 . S
C408 C410 1.394 . S
C408 H424 0.931 . S
C409 C408 1.391 . S
C409 C413 1.376 . S
C410 C408 1.394 . S
C410 C411 1.369 . S
C410 C414 1.531 . S
C411 C410 1.369 . S
C411 C412 1.410 . S
C411 C419 1.503 . S
C412 C411 1.410 . S
C412 C413 1.392 . S
C412 C415 1.511 . S
C413 C409 1.376 . S
C413 C412 1.392 . S
C413 H425 0.929 . S
C414 C410 1.531 . S
C414 H426 0.960 . S
C414 H427 0.962 . S
C414 H428 0.960 . S
C415 C412 1.511 . S
C415 H429 0.961 . S
C415 H430 0.961 . S
C415 H431 0.961 . S
C416 C417 1.370 . S
C416 C418 1.363 . S
C416 H432 0.931 . S
C417 C416 1.370 . S
C417 C421 1.408 . S
C418 C416 1.363 . S
C418 C419 1.370 . S
C418 C422 1.524 . S
C419 C411 1.503 . S
C419 C418 1.370 . S
C419 C420 1.403 . S
C420 C419 1.403 . S
C420 C421 1.404 . S
C420 C423 1.539 . S
C421 C417 1.408 . S
C421 C420 1.404 . S
C421 H433 0.930 . S
C422 C418 1.524 . S
C422 H434 0.956 . S
C422 H435 0.961 . S
C422 H436 0.961 . S
C423 C420 1.539 . S
C423 H437 0.958 . S
C423 H438 0.961 . S
C423 H439 0.960 . S
H424 C408 0.931 . S
H425 C413 0.929 . S
H426 C414 0.960 . S
H427 C414 0.962 . S
H428 C414 0.960 . S
H429 C415 0.961 . S
H430 C415 0.961 . S
H431 C415 0.961 . S
H432 C416 0.931 . S
H433 C421 0.930 . S
H434 C422 0.956 . S
H435 C422 0.961 . S
H436 C422 0.961 . S
H437 C423 0.958 . S
H438 C423 0.961 . S
H439 C423 0.960 . S
C440 C441 1.391 . S
C440 C442 1.394 . S
C440 H456 0.931 . S
C441 C440 1.391 . S
C441 C445 1.376 . S
C442 C440 1.394 . S
C442 C443 1.369 . S
C442 C446 1.531 . S
C443 C442 1.369 . S
C443 C444 1.410 . S
C443 C451 1.503 . S
C444 C443 1.410 . S
C444 C445 1.392 . S
C444 C447 1.511 . S
C445 C441 1.376 . S
C445 C444 1.392 . S
C445 H457 0.929 . S
C446 C442 1.531 . S
C446 H458 0.960 . S
C446 H459 0.962 . S
C446 H460 0.960 . S
C447 C444 1.511 . S
C447 H461 0.961 . S
C447 H462 0.961 . S
C447 H463 0.961 . S
C448 C449 1.370 . S
C448 C450 1.363 . S
C448 H464 0.931 . S
C449 C448 1.370 . S
C449 C453 1.408 . S
C450 C448 1.363 . S
C450 C451 1.370 . S
C450 C454 1.524 . S
C451 C443 1.503 . S
C451 C450 1.370 . S
C451 C452 1.403 . S
C452 C451 1.403 . S
C452 C453 1.404 . S
C452 C455 1.539 . S
C453 C449 1.408 . S
C453 C452 1.404 . S
C453 H465 0.930 . S
C454 C450 1.524 . S
C454 H466 0.956 . S
C454 H467 0.961 . S
C454 H468 0.961 . S
C455 C452 1.539 . S
C455 H469 0.958 . S
C455 H470 0.961 . S
C455 H471 0.960 . S
H456 C440 0.931 . S
H457 C445 0.929 . S
H458 C446 0.960 . S
H459 C446 0.962 . S
H460 C446 0.960 . S
H461 C447 0.961 . S
H462 C447 0.961 . S
H463 C447 0.961 . S
H464 C448 0.931 . S
H465 C453 0.930 . S
H466 C454 0.956 . S
H467 C454 0.961 . S
H468 C454 0.961 . S
H469 C455 0.958 . S
H470 C455 0.961 . S
H471 C455 0.960 . S
C472 C473 1.391 . S
C472 C474 1.394 . S
C472 H488 0.931 . S
C473 C472 1.391 . S
C473 C477 1.376 . S
C474 C472 1.394 . S
C474 C475 1.369 . S
C474 C478 1.531 . S
C475 C474 1.369 . S
C475 C476 1.410 . S
C475 C483 1.503 . S
C476 C475 1.410 . S
C476 C477 1.392 . S
C476 C479 1.511 . S
C477 C473 1.376 . S
C477 C476 1.392 . S
C477 H489 0.929 . S
C478 C474 1.531 . S
C478 H490 0.960 . S
C478 H491 0.962 . S
C478 H492 0.960 . S
C479 C476 1.511 . S
C479 H493 0.961 . S
C479 H494 0.961 . S
C479 H495 0.961 . S
C480 C481 1.370 . S
C480 C482 1.363 . S
C480 H496 0.931 . S
C481 C480 1.370 . S
C481 C485 1.408 . S
C482 C480 1.363 . S
C482 C483 1.370 . S
C482 C486 1.524 . S
C483 C475 1.503 . S
C483 C482 1.370 . S
C483 C484 1.403 . S
C484 C483 1.403 . S
C484 C485 1.404 . S
C484 C487 1.539 . S
C485 C481 1.408 . S
C485 C484 1.404 . S
C485 H497 0.930 . S
C486 C482 1.524 . S
C486 H498 0.956 . S
C486 H499 0.961 . S
C486 H500 0.961 . S
C487 C484 1.539 . S
C487 H501 0.958 . S
C487 H502 0.961 . S
C487 H503 0.960 . S
H488 C472 0.931 . S
H489 C477 0.929 . S
H490 C478 0.960 . S
H491 C478 0.962 . S
H492 C478 0.960 . S
H493 C479 0.961 . S
H494 C479 0.961 . S
H495 C479 0.961 . S
H496 C480 0.931 . S
H497 C485 0.930 . S
H498 C486 0.956 . S
H499 C486 0.961 . S
H500 C486 0.961 . S
H501 C487 0.958 . S
H502 C487 0.961 . S
H503 C487 0.960 . S
C504 C505 1.391 . S
C504 C506 1.394 . S
C504 H520 0.931 . S
C505 C504 1.391 . S
C505 C509 1.376 . S
C506 C504 1.394 . S
C506 C507 1.369 . S
C506 C510 1.531 . S
C507 C506 1.369 . S
C507 C508 1.410 . S
C507 C515 1.503 . S
C508 C507 1.410 . S
C508 C509 1.392 . S
C508 C511 1.511 . S
C509 C505 1.376 . S
C509 C508 1.392 . S
C509 H521 0.929 . S
C510 C506 1.531 . S
C510 H522 0.960 . S
C510 H523 0.962 . S
C510 H524 0.960 . S
C511 C508 1.511 . S
C511 H525 0.961 . S
C511 H526 0.961 . S
C511 H527 0.961 . S
C512 C513 1.370 . S
C512 C514 1.363 . S
C512 H528 0.931 . S
C513 C512 1.370 . S
C513 C517 1.408 . S
C514 C512 1.363 . S
C514 C515 1.370 . S
C514 C518 1.524 . S
C515 C507 1.503 . S
C515 C514 1.370 . S
C515 C516 1.403 . S
C516 C515 1.403 . S
C516 C517 1.404 . S
C516 C519 1.539 . S
C517 C513 1.408 . S
C517 C516 1.404 . S
C517 H529 0.930 . S
C518 C514 1.524 . S
C518 H530 0.956 . S
C518 H531 0.961 . S
C518 H532 0.961 . S
C519 C516 1.539 . S
C519 H533 0.958 . S
C519 H534 0.961 . S
C519 H535 0.960 . S
H520 C504 0.931 . S
H521 C509 0.929 . S
H522 C510 0.960 . S
H523 C510 0.962 . S
H524 C510 0.960 . S
H525 C511 0.961 . S
H526 C511 0.961 . S
H527 C511 0.961 . S
H528 C512 0.931 . S
H529 C517 0.930 . S
H530 C518 0.956 . S
H531 C518 0.961 . S
H532 C518 0.961 . S
H533 C519 0.958 . S
H534 C519 0.961 . S
H535 C519 0.960 . S
C536 C537 1.391 . S
C536 C538 1.394 . S
C536 H552 0.931 . S
C537 C536 1.391 . S
C537 C541 1.376 . S
C538 C536 1.394 . S
C538 C539 1.369 . S
C538 C542 1.531 . S
C539 C538 1.369 . S
C539 C540 1.410 . S
C539 C547 1.503 . S
C540 C539 1.410 . S
C540 C541 1.392 . S
C540 C543 1.511 . S
C541 C537 1.376 . S
C541 C540 1.392 . S
C541 H553 0.929 . S
C542 C538 1.531 . S
C542 H554 0.960 . S
C542 H555 0.962 . S
C542 H556 0.960 . S
C543 C540 1.511 . S
C543 H557 0.961 . S
C543 H558 0.961 . S
C543 H559 0.961 . S
C544 C545 1.370 . S
C544 C546 1.363 . S
C544 H560 0.931 . S
C545 C544 1.370 . S
C545 C549 1.408 . S
C546 C544 1.363 . S
C546 C547 1.370 . S
C546 C550 1.524 . S
C547 C539 1.503 . S
C547 C546 1.370 . S
C547 C548 1.403 . S
C548 C547 1.403 . S
C548 C549 1.404 . S
C548 C551 1.539 . S
C549 C545 1.408 . S
C549 C548 1.404 . S
C549 H561 0.930 . S
C550 C546 1.524 . S
C550 H562 0.956 . S
C550 H563 0.961 . S
C550 H564 0.961 . S
C551 C548 1.539 . S
C551 H565 0.958 . S
C551 H566 0.961 . S
C551 H567 0.960 . S
H552 C536 0.931 . S
H553 C541 0.929 . S
H554 C542 0.960 . S
H555 C542 0.962 . S
H556 C542 0.960 . S
H557 C543 0.961 . S
H558 C543 0.961 . S
H559 C543 0.961 . S
H560 C544 0.931 . S
H561 C549 0.930 . S
H562 C550 0.956 . S
H563 C550 0.961 . S
H564 C550 0.961 . S
H565 C551 0.958 . S
H566 C551 0.961 . S
H567 C551 0.960 . S
C568 C569 1.391 . S
C568 C570 1.394 . S
C568 H584 0.931 . S
C569 C568 1.391 . S
C569 C573 1.376 . S
C570 C568 1.394 . S
C570 C571 1.369 . S
C570 C574 1.531 . S
C571 C570 1.369 . S
C571 C572 1.410 . S
C571 C579 1.503 . S
C572 C571 1.410 . S
C572 C573 1.392 . S
C572 C575 1.511 . S
C573 C569 1.376 . S
C573 C572 1.392 . S
C573 H585 0.929 . S
C574 C570 1.531 . S
C574 H586 0.960 . S
C574 H587 0.962 . S
C574 H588 0.960 . S
C575 C572 1.511 . S
C575 H589 0.961 . S
C575 H590 0.961 . S
C575 H591 0.961 . S
C576 C577 1.370 . S
C576 C578 1.363 . S
C576 H592 0.931 . S
C577 C576 1.370 . S
C577 C581 1.408 . S
C578 C576 1.363 . S
C578 C579 1.370 . S
C578 C582 1.524 . S
C579 C571 1.503 . S
C579 C578 1.370 . S
C579 C580 1.403 . S
C580 C579 1.403 . S
C580 C581 1.404 . S
C580 C583 1.539 . S
C581 C577 1.408 . S
C581 C580 1.404 . S
C581 H593 0.930 . S
C582 C578 1.524 . S
C582 H594 0.956 . S
C582 H595 0.961 . S
C582 H596 0.961 . S
C583 C580 1.539 . S
C583 H597 0.958 . S
C583 H598 0.961 . S
C583 H599 0.960 . S
H584 C568 0.931 . S
H585 C573 0.929 . S
H586 C574 0.960 . S
H587 C574 0.962 . S
H588 C574 0.960 . S
H589 C575 0.961 . S
H590 C575 0.961 . S
H591 C575 0.961 . S
H592 C576 0.931 . S
H593 C581 0.930 . S
H594 C582 0.956 . S
H595 C582 0.961 . S
H596 C582 0.961 . S
H597 C583 0.958 . S
H598 C583 0.961 . S
H599 C583 0.960 . S
C600 C601 1.391 . S
C600 C602 1.394 . S
C600 H616 0.931 . S
C601 C600 1.391 . S
C601 C605 1.376 . S
C602 C600 1.394 . S
C602 C603 1.369 . S
C602 C606 1.531 . S
C603 C602 1.369 . S
C603 C604 1.410 . S
C603 C611 1.503 1_565 S
C604 C603 1.410 . S
C604 C605 1.392 . S
C604 C607 1.511 . S
C605 C601 1.376 . S
C605 C604 1.392 . S
C605 H617 0.929 . S
C606 C602 1.531 . S
C606 H618 0.960 . S
C606 H619 0.962 . S
C606 H620 0.960 . S
C607 C604 1.511 . S
C607 H621 0.961 . S
C607 H622 0.961 1_565 S
C607 H623 0.961 . S
C608 C609 1.370 . S
C608 C610 1.363 . S
C608 H624 0.931 . S
C609 C608 1.370 . S
C609 C613 1.408 . S
C610 C608 1.363 . S
C610 C611 1.370 . S
C610 C614 1.524 . S
C611 C603 1.503 1_545 S
C611 C610 1.370 . S
C611 C612 1.403 . S
C612 C611 1.403 . S
C612 C613 1.404 . S
C612 C615 1.539 . S
C613 C609 1.408 . S
C613 C612 1.404 . S
C613 H625 0.930 . S
C614 C610 1.524 . S
C614 H626 0.956 . S
C614 H627 0.961 . S
C614 H628 0.961 . S
C615 C612 1.539 . S
C615 H629 0.958 1_545 S
C615 H630 0.961 . S
C615 H631 0.960 1_545 S
H616 C600 0.931 . S
H617 C605 0.929 . S
H618 C606 0.960 . S
H619 C606 0.962 . S
H620 C606 0.960 . S
H621 C607 0.961 . S
H622 C607 0.961 1_545 S
H623 C607 0.961 . S
H624 C608 0.931 . S
H625 C613 0.930 . S
H626 C614 0.956 . S
H627 C614 0.961 . S
H628 C614 0.961 . S
H629 C615 0.958 1_565 S
H630 C615 0.961 . S
H631 C615 0.960 1_565 S
C632 C633 1.391 . S
C632 C634 1.394 . S
C632 H648 0.931 . S
C633 C632 1.391 . S
C633 C637 1.376 . S
C634 C632 1.394 . S
C634 C635 1.369 . S
C634 C638 1.531 . S
C635 C634 1.369 . S
C635 C636 1.410 . S
C635 C643 1.503 . S
C636 C635 1.410 . S
C636 C637 1.392 . S
C636 C639 1.511 . S
C637 C633 1.376 . S
C637 C636 1.392 . S
C637 H649 0.929 . S
C638 C634 1.531 . S
C638 H650 0.960 . S
C638 H651 0.962 . S
C638 H652 0.960 . S
C639 C636 1.511 . S
C639 H653 0.961 . S
C639 H654 0.961 . S
C639 H655 0.961 . S
C640 C641 1.370 . S
C640 C642 1.363 . S
C640 H656 0.931 . S
C641 C640 1.370 . S
C641 C645 1.408 . S
C642 C640 1.363 . S
C642 C643 1.370 . S
C642 C646 1.524 . S
C643 C635 1.503 . S
C643 C642 1.370 . S
C643 C644 1.403 . S
C644 C643 1.403 . S
C644 C645 1.404 . S
C644 C647 1.539 . S
C645 C641 1.408 . S
C645 C644 1.404 . S
C645 H657 0.930 . S
C646 C642 1.524 . S
C646 H658 0.956 . S
C646 H659 0.961 . S
C646 H660 0.961 . S
C647 C644 1.539 . S
C647 H661 0.958 . S
C647 H662 0.961 . S
C647 H663 0.960 . S
H648 C632 0.931 . S
H649 C637 0.929 . S
H650 C638 0.960 . S
H651 C638 0.962 . S
H652 C638 0.960 . S
H653 C639 0.961 . S
H654 C639 0.961 . S
H655 C639 0.961 . S
H656 C640 0.931 . S
H657 C645 0.930 . S
H658 C646 0.956 . S
H659 C646 0.961 . S
H660 C646 0.961 . S
H661 C647 0.958 . S
H662 C647 0.961 . S
H663 C647 0.960 . S
C664 C665 1.391 . S
C664 C666 1.394 . S
C664 H680 0.931 . S
C665 C664 1.391 . S
C665 C669 1.376 . S
C666 C664 1.394 . S
C666 C667 1.369 . S
C666 C670 1.531 1_455 S
C667 C666 1.369 . S
C667 C668 1.410 . S
C667 C675 1.503 1_455 S
C668 C667 1.410 . S
C668 C669 1.392 . S
C668 C671 1.511 . S
C669 C665 1.376 . S
C669 C668 1.392 . S
C669 H681 0.929 . S
C670 C666 1.531 1_655 S
C670 H682 0.960 . S
C670 H683 0.962 . S
C670 H684 0.960 1_655 S
C671 C668 1.511 . S
C671 H685 0.961 . S
C671 H686 0.961 . S
C671 H687 0.961 . S
C672 C673 1.370 . S
C672 C674 1.363 . S
C672 H688 0.931 . S
C673 C672 1.370 . S
C673 C677 1.408 . S
C674 C672 1.363 . S
C674 C675 1.370 . S
C674 C678 1.524 . S
C675 C667 1.503 1_655 S
C675 C674 1.370 . S
C675 C676 1.403 . S
C676 C675 1.403 . S
C676 C677 1.404 . S
C676 C679 1.539 . S
C677 C673 1.408 . S
C677 C676 1.404 . S
C677 H689 0.930 . S
C678 C674 1.524 . S
C678 H690 0.956 . S
C678 H691 0.950 1_655 S
C678 H692 0.961 . S
C679 C676 1.539 . S
C679 H693 0.958 . S
C679 H694 0.961 . S
C679 H695 0.960 1_655 S
H680 C664 0.931 . S
H681 C669 0.929 . S
H682 C670 0.960 . S
H683 C670 0.962 . S
H684 C670 0.960 1_455 S
H685 C671 0.961 . S
H686 C671 0.961 . S
H687 C671 0.961 . S
H688 C672 0.931 . S
H689 C677 0.930 . S
H690 C678 0.956 . S
H691 C678 0.950 1_455 S
H692 C678 0.961 . S
H693 C679 0.958 . S
H694 C679 0.961 . S
H695 C679 0.960 1_455 S
C696 C697 1.391 . S
C696 C698 1.394 . S
C696 H712 0.931 . S
C697 C696 1.391 . S
C697 C701 1.376 . S
C698 C696 1.394 . S
C698 C699 1.369 1_556 S
C698 C702 1.531 1_556 S
C699 C698 1.369 1_554 S
C699 C700 1.410 1_554 S
C699 C707 1.503 1_565 S
C700 C699 1.410 1_556 S
C700 C701 1.392 . S
C700 C703 1.510 1_556 S
C701 C697 1.376 . S
C701 C700 1.392 . S
C701 H713 0.929 . S
C702 C698 1.531 1_554 S
C702 H714 0.960 . S
C702 H715 0.962 1_554 S
C702 H716 0.960 . S
C703 C700 1.510 1_554 S
C703 H717 0.956 1_554 S
C703 H718 0.960 1_564 S
C703 H719 0.968 . S
C704 C705 1.370 1_556 S
C704 C706 1.363 . S
C704 H720 0.931 . S
C705 C704 1.370 1_554 S
C705 C709 1.408 . S
C706 C704 1.363 . S
C706 C707 1.370 1_556 S
C706 C710 1.524 . S
C707 C699 1.503 1_545 S
C707 C706 1.370 1_554 S
C707 C708 1.403 . S
C708 C707 1.403 . S
C708 C709 1.404 . S
C708 C711 1.539 1_545 S
C709 C705 1.408 . S
C709 C708 1.404 . S
C709 H721 0.930 . S
C710 C706 1.524 . S
C710 H722 0.956 . S
C710 H723 0.961 . S
C710 H724 0.961 . S
C711 C708 1.539 1_565 S
C711 H725 0.958 . S
C711 H726 0.961 1_565 S
C711 H727 0.960 . S
H712 C696 0.931 . S
H713 C701 0.929 . S
H714 C702 0.960 . S
H715 C702 0.962 1_556 S
H716 C702 0.960 . S
H717 C703 0.956 1_556 S
H718 C703 0.960 1_546 S
H719 C703 0.968 . S
H720 C704 0.931 . S
H721 C709 0.930 . S
H722 C710 0.956 . S
H723 C710 0.961 . S
H724 C710 0.961 . S
H725 C711 0.958 . S
H726 C711 0.961 1_545 S
H727 C711 0.960 . S
C728 C729 1.391 . S
C728 C730 1.394 . S
C728 H744 0.931 . S
C729 C728 1.391 . S
C729 C733 1.376 . S
C730 C728 1.394 . S
C730 C731 1.369 . S
C730 C734 1.531 . S
C731 C730 1.369 . S
C731 C732 1.410 . S
C731 C739 1.503 . S
C732 C731 1.410 . S
C732 C733 1.392 . S
C732 C735 1.511 . S
C733 C729 1.376 . S
C733 C732 1.392 . S
C733 H745 0.929 . S
C734 C730 1.531 . S
C734 H746 0.960 . S
C734 H747 0.962 . S
C734 H748 0.960 . S
C735 C732 1.511 . S
C735 H749 0.961 . S
C735 H750 0.961 . S
C735 H751 0.961 . S
C736 C737 1.370 . S
C736 C738 1.363 . S
C736 H752 0.931 . S
C737 C736 1.370 . S
C737 C741 1.408 . S
C738 C736 1.363 . S
C738 C739 1.370 . S
C738 C742 1.524 . S
C739 C731 1.503 . S
C739 C738 1.370 . S
C739 C740 1.403 . S
C740 C739 1.403 . S
C740 C741 1.404 . S
C740 C743 1.539 . S
C741 C737 1.408 . S
C741 C740 1.404 . S
C741 H753 0.930 . S
C742 C738 1.524 . S
C742 H754 0.956 . S
C742 H755 0.961 . S
C742 H756 0.961 . S
C743 C740 1.539 . S
C743 H757 0.958 . S
C743 H758 0.961 . S
C743 H759 0.960 . S
H744 C728 0.931 . S
H745 C733 0.929 . S
H746 C734 0.960 . S
H747 C734 0.962 . S
H748 C734 0.960 . S
H749 C735 0.961 . S
H750 C735 0.961 . S
H751 C735 0.961 . S
H752 C736 0.931 . S
H753 C741 0.930 . S
H754 C742 0.956 . S
H755 C742 0.961 . S
H756 C742 0.961 . S
H757 C743 0.958 . S
H758 C743 0.961 . S
H759 C743 0.960 . S
C760 C761 1.391 . S
C760 C762 1.394 . S
C760 H776 0.931 . S
C761 C760 1.391 . S
C761 C765 1.376 . S
C762 C760 1.394 . S
C762 C763 1.369 . S
C762 C766 1.531 . S
C763 C762 1.369 . S
C763 C764 1.410 . S
C763 C771 1.503 1_455 S
C764 C763 1.410 . S
C764 C765 1.392 . S
C764 C767 1.511 . S
C765 C761 1.376 . S
C765 C764 1.392 . S
C765 H777 0.929 . S
C766 C762 1.531 . S
C766 H778 0.960 1_455 S
C766 H779 0.962 . S
C766 H780 0.960 . S
C767 C764 1.511 . S
C767 H781 0.961 . S
C767 H782 0.961 1_455 S
C767 H783 0.961 1_455 S
C768 C769 1.370 . S
C768 C770 1.363 . S
C768 H784 0.931 . S
C769 C768 1.370 . S
C769 C773 1.408 . S
C770 C768 1.363 . S
C770 C771 1.370 . S
C770 C774 1.524 1_655 S
C771 C763 1.503 1_655 S
C771 C770 1.370 . S
C771 C772 1.403 . S
C772 C771 1.403 . S
C772 C773 1.404 . S
C772 C775 1.539 . S
C773 C769 1.408 . S
C773 C772 1.404 . S
C773 H785 0.930 . S
C774 C770 1.524 1_455 S
C774 H786 0.956 . S
C774 H787 0.961 . S
C774 H788 0.961 1_455 S
C775 C772 1.539 . S
C775 H789 0.958 . S
C775 H790 0.961 . S
C775 H791 0.960 . S
H776 C760 0.931 . S
H777 C765 0.929 . S
H778 C766 0.960 1_655 S
H779 C766 0.962 . S
H780 C766 0.960 . S
H781 C767 0.961 . S
H782 C767 0.961 1_655 S
H783 C767 0.961 1_655 S
H784 C768 0.931 . S
H785 C773 0.930 . S
H786 C774 0.956 . S
H787 C774 0.961 . S
H788 C774 0.961 1_655 S
H789 C775 0.958 . S
H790 C775 0.961 . S
H791 C775 0.960 . S
C792 C793 1.391 . S
C792 C794 1.394 . S
C792 H808 0.931 . S
C793 C792 1.391 . S
C793 C797 1.376 . S
C794 C792 1.394 . S
C794 C795 1.369 . S
C794 C798 1.531 . S
C795 C794 1.369 . S
C795 C796 1.410 . S
C795 C803 1.503 . S
C796 C795 1.410 . S
C796 C797 1.392 . S
C796 C799 1.511 . S
C797 C793 1.376 . S
C797 C796 1.392 . S
C797 H809 0.929 1_545 S
C798 C794 1.531 . S
C798 H810 0.960 . S
C798 H811 0.962 . S
C798 H812 0.960 . S
C799 C796 1.511 . S
C799 H813 0.961 . S
C799 H814 0.961 . S
C799 H815 0.961 . S
C800 C801 1.370 . S
C800 C802 1.363 . S
C800 H816 0.931 . S
C801 C800 1.370 . S
C801 C805 1.408 . S
C802 C800 1.363 . S
C802 C803 1.370 . S
C802 C806 1.524 . S
C803 C795 1.503 . S
C803 C802 1.370 . S
C803 C804 1.403 . S
C804 C803 1.403 . S
C804 C805 1.404 . S
C804 C807 1.539 . S
C805 C801 1.408 . S
C805 C804 1.404 . S
C805 H817 0.930 . S
C806 C802 1.524 . S
C806 H818 0.956 . S
C806 H819 0.961 . S
C806 H820 0.961 . S
C807 C804 1.539 . S
C807 H821 0.958 . S
C807 H822 0.961 . S
C807 H823 0.960 . S
H808 C792 0.931 . S
H809 C797 0.929 1_565 S
H810 C798 0.960 . S
H811 C798 0.962 . S
H812 C798 0.960 . S
H813 C799 0.961 . S
H814 C799 0.961 . S
H815 C799 0.961 . S
H816 C800 0.931 . S
H817 C805 0.930 . S
H818 C806 0.956 . S
H819 C806 0.961 . S
H820 C806 0.961 . S
H821 C807 0.958 . S
H822 C807 0.961 . S
H823 C807 0.960 . S
C824 C825 1.391 . S
C824 C826 1.394 . S
C824 H840 0.931 . S
C825 C824 1.391 . S
C825 C829 1.376 . S
C826 C824 1.394 . S
C826 C827 1.369 . S
C826 C830 1.531 . S
C827 C826 1.369 . S
C827 C828 1.410 . S
C827 C835 1.503 . S
C828 C827 1.410 . S
C828 C829 1.392 . S
C828 C831 1.511 . S
C829 C825 1.376 . S
C829 C828 1.392 . S
C829 H841 0.929 . S
C830 C826 1.531 . S
C830 H842 0.960 . S
C830 H843 0.962 . S
C830 H844 0.960 . S
C831 C828 1.511 . S
C831 H845 0.961 . S
C831 H846 0.961 . S
C831 H847 0.961 . S
C832 C833 1.370 . S
C832 C834 1.363 . S
C832 H848 0.931 . S
C833 C832 1.370 . S
C833 C837 1.408 . S
C834 C832 1.363 . S
C834 C835 1.370 . S
C834 C838 1.524 . S
C835 C827 1.503 . S
C835 C834 1.370 . S
C835 C836 1.403 . S
C836 C835 1.403 . S
C836 C837 1.404 . S
C836 C839 1.539 . S
C837 C833 1.408 . S
C837 C836 1.404 . S
C837 H849 0.930 . S
C838 C834 1.524 . S
C838 H850 0.956 . S
C838 H851 0.961 . S
C838 H852 0.961 . S
C839 C836 1.539 . S
C839 H853 0.958 . S
C839 H854 0.961 . S
C839 H855 0.960 . S
H840 C824 0.931 . S
H841 C829 0.929 . S
H842 C830 0.960 . S
H843 C830 0.962 . S
H844 C830 0.960 . S
H845 C831 0.961 . S
H846 C831 0.961 . S
H847 C831 0.961 . S
H848 C832 0.931 . S
H849 C837 0.930 . S
H850 C838 0.956 . S
H851 C838 0.961 . S
H852 C838 0.961 . S
H853 C839 0.958 . S
H854 C839 0.961 . S
H855 C839 0.960 . S
C856 C857 1.391 . S
C856 C858 1.394 . S
C856 H872 0.931 . S
C857 C856 1.391 . S
C857 C861 1.376 . S
C858 C856 1.394 . S
C858 C859 1.369 . S
C858 C862 1.531 . S
C859 C858 1.369 . S
C859 C860 1.410 . S
C859 C867 1.503 . S
C860 C859 1.410 . S
C860 C861 1.392 . S
C860 C863 1.511 . S
C861 C857 1.376 . S
C861 C860 1.392 . S
C861 H873 0.929 . S
C862 C858 1.531 . S
C862 H874 0.960 . S
C862 H875 0.962 . S
C862 H876 0.960 . S
C863 C860 1.511 . S
C863 H877 0.961 . S
C863 H878 0.961 . S
C863 H879 0.961 . S
C864 C865 1.370 . S
C864 C866 1.363 . S
C864 H880 0.931 1_655 S
C865 C864 1.370 . S
C865 C869 1.408 . S
C866 C864 1.363 . S
C866 C867 1.370 . S
C866 C870 1.524 . S
C867 C859 1.503 . S
C867 C866 1.370 . S
C867 C868 1.403 . S
C868 C867 1.403 . S
C868 C869 1.404 . S
C868 C871 1.539 . S
C869 C865 1.408 . S
C869 C868 1.404 . S
C869 H881 0.930 . S
C870 C866 1.524 . S
C870 H882 0.956 . S
C870 H883 0.961 . S
C870 H884 0.961 . S
C871 C868 1.539 . S
C871 H885 0.958 . S
C871 H886 0.961 . S
C871 H887 0.960 . S
H872 C856 0.931 . S
H873 C861 0.929 . S
H874 C862 0.960 . S
H875 C862 0.962 . S
H876 C862 0.960 . S
H877 C863 0.961 . S
H878 C863 0.961 . S
H879 C863 0.961 . S
H880 C864 0.931 1_455 S
H881 C869 0.930 . S
H882 C870 0.956 . S
H883 C870 0.961 . S
H884 C870 0.961 . S
H885 C871 0.958 . S
H886 C871 0.961 . S
H887 C871 0.960 . S
C888 C889 1.391 . S
C888 C890 1.394 . S
C888 H904 0.910 1_565 S
C889 C888 1.391 . S
C889 C893 1.376 . S
C890 C888 1.394 . S
C890 C891 1.369 . S
C890 C894 1.531 . S
C891 C890 1.369 . S
C891 C892 1.410 . S
C891 C899 1.503 . S
C892 C891 1.410 . S
C892 C893 1.392 . S
C892 C895 1.511 . S
C893 C889 1.376 . S
C893 C892 1.392 . S
C893 H905 0.929 . S
C894 C890 1.531 . S
C894 H906 0.960 . S
C894 H907 0.962 . S
C894 H908 0.960 . S
C895 C892 1.511 . S
C895 H909 0.961 . S
C895 H910 0.961 . S
C895 H911 0.961 . S
C896 C897 1.370 . S
C896 C898 1.363 . S
C896 H912 0.931 . S
C897 C896 1.370 . S
C897 C901 1.408 . S
C898 C896 1.363 . S
C898 C899 1.370 . S
C898 C902 1.524 . S
C899 C891 1.503 . S
C899 C898 1.370 . S
C899 C900 1.403 . S
C900 C899 1.403 . S
C900 C901 1.404 . S
C900 C903 1.539 . S
C901 C897 1.408 . S
C901 C900 1.404 . S
C901 H913 0.930 . S
C902 C898 1.524 . S
C902 H914 0.956 . S
C902 H915 0.961 . S
C902 H916 0.961 . S
C903 C900 1.539 . S
C903 H917 0.958 . S
C903 H918 0.961 . S
C903 H919 0.960 . S
H904 C888 0.910 1_545 S
H905 C893 0.929 . S
H906 C894 0.960 . S
H907 C894 0.962 . S
H908 C894 0.960 . S
H909 C895 0.961 . S
H910 C895 0.961 . S
H911 C895 0.961 . S
H912 C896 0.931 . S
H913 C901 0.930 . S
H914 C902 0.956 . S
H915 C902 0.961 . S
H916 C902 0.961 . S
H917 C903 0.958 . S
H918 C903 0.961 . S
H919 C903 0.960 . S
C920 C921 1.391 . S
C920 C922 1.394 . S
C920 H936 0.931 . S
C921 C920 1.391 . S
C921 C925 1.376 1_556 S
C922 C920 1.394 . S
C922 C923 1.369 1_556 S
C922 C926 1.531 . S
C923 C922 1.369 1_554 S
C923 C924 1.410 . S
C923 C931 1.503 . S
C924 C923 1.410 . S
C924 C925 1.392 . S
C924 C927 1.511 . S
C925 C921 1.376 1_554 S
C925 C924 1.392 . S
C925 H937 0.929 . S
C926 C922 1.531 . S
C926 H938 0.960 . S
C926 H939 0.962 . S
C926 H940 0.960 . S
C927 C924 1.511 . S
C927 H941 0.961 . S
C927 H942 0.961 . S
C927 H943 0.961 . S
C928 C929 1.370 . S
C928 C930 1.363 . S
C928 H944 0.931 . S
C929 C928 1.370 . S
C929 C933 1.408 . S
C930 C928 1.363 . S
C930 C931 1.370 . S
C930 C934 1.524 . S
C931 C923 1.503 . S
C931 C930 1.370 . S
C931 C932 1.403 . S
C932 C931 1.403 . S
C932 C933 1.404 . S
C932 C935 1.539 . S
C933 C929 1.408 . S
C933 C932 1.404 . S
C933 H945 0.930 . S
C934 C930 1.524 . S
C934 H946 0.956 . S
C934 H947 0.961 . S
C934 H948 0.961 . S
C935 C932 1.539 . S
C935 H949 0.958 . S
C935 H950 0.961 . S
C935 H951 0.960 . S
H936 C920 0.931 . S
H937 C925 0.929 . S
H938 C926 0.960 . S
H939 C926 0.962 . S
H940 C926 0.960 . S
H941 C927 0.961 . S
H942 C927 0.961 . S
H943 C927 0.961 . S
H944 C928 0.931 . S
H945 C933 0.930 . S
H946 C934 0.956 . S
H947 C934 0.961 . S
H948 C934 0.961 . S
H949 C935 0.958 . S
H950 C935 0.961 . S
H951 C935 0.960 . S
C952 C953 1.391 . S
C952 C954 1.394 . S
C952 H968 0.931 1_455 S
C953 C952 1.391 . S
C953 C957 1.376 . S
C954 C952 1.394 . S
C954 C955 1.369 . S
C954 C958 1.531 . S
C955 C954 1.369 . S
C955 C956 1.410 . S
C955 C963 1.503 . S
C956 C955 1.410 . S
C956 C957 1.392 . S
C956 C959 1.511 . S
C957 C953 1.376 . S
C957 C956 1.392 . S
C957 H969 0.929 . S
C958 C954 1.531 . S
C958 H970 0.960 . S
C958 H971 0.962 . S
C958 H972 0.960 . S
C959 C956 1.511 . S
C959 H973 0.961 . S
C959 H974 0.961 . S
C959 H975 0.961 . S
C960 C961 1.370 . S
C960 C962 1.363 . S
C960 H976 0.931 . S
C961 C960 1.370 . S
C961 C965 1.408 . S
C962 C960 1.363 . S
C962 C963 1.370 . S
C962 C966 1.524 . S
C963 C955 1.503 . S
C963 C962 1.370 . S
C963 C964 1.403 . S
C964 C963 1.403 . S
C964 C965 1.404 . S
C964 C967 1.539 . S
C965 C961 1.408 . S
C965 C964 1.404 . S
C965 H977 0.930 . S
C966 C962 1.524 . S
C966 H978 0.956 . S
C966 H979 0.961 . S
C966 H980 0.961 . S
C967 C964 1.539 . S
C967 H981 0.958 . S
C967 H982 0.961 . S
C967 H983 0.960 . S
H968 C952 0.931 1_655 S
H969 C957 0.929 . S
H970 C958 0.960 . S
H971 C958 0.962 . S
H972 C958 0.960 . S
H973 C959 0.961 . S
H974 C959 0.961 . S
H975 C959 0.961 . S
H976 C960 0.931 . S
H977 C965 0.930 . S
H978 C966 0.956 . S
H979 C966 0.961 . S
H980 C966 0.961 . S
H981 C967 0.958 . S
H982 C967 0.961 . S
H983 C967 0.960 . S
C984 C985 1.391 . S
C984 C986 1.394 . S
C984 H1000 0.931 1_655 S
C985 C984 1.391 . S
C985 C989 1.376 . S
C986 C984 1.394 . S
C986 C987 1.369 . S
C986 C990 1.531 . S
C987 C986 1.369 . S
C987 C988 1.410 . S
C987 C995 1.503 . S
C988 C987 1.410 . S
C988 C989 1.392 . S
C988 C991 1.511 . S
C989 C985 1.376 . S
C989 C988 1.392 . S
C989 H1001 0.929 . S
C990 C986 1.531 . S
C990 H1002 0.960 . S
C990 H1003 0.962 . S
C990 H1004 0.960 . S
C991 C988 1.511 . S
C991 H1005 0.961 . S
C991 H1006 0.961 . S
C991 H1007 0.961 . S
C992 C993 1.370 . S
C992 C994 1.363 . S
C992 H1008 0.931 . S
C993 C992 1.370 . S
C993 C997 1.408 . S
C994 C992 1.363 . S
C994 C995 1.370 . S
C994 C998 1.524 . S
C995 C987 1.503 . S
C995 C994 1.370 . S
C995 C996 1.403 . S
C996 C995 1.403 . S
C996 C997 1.404 . S
C996 C999 1.539 . S
C997 C993 1.408 . S
C997 C996 1.404 . S
C997 H1009 0.930 . S
C998 C994 1.524 . S
C998 H1010 0.956 . S
C998 H1011 0.961 . S
C998 H1012 0.961 . S
C999 C996 1.539 . S
C999 H1013 0.958 . S
C999 H1014 0.961 . S
C999 H1015 0.960 . S
H1000 C984 0.931 1_455 S
H1001 C989 0.929 . S
H1002 C990 0.960 . S
H1003 C990 0.962 . S
H1004 C990 0.960 . S
H1005 C991 0.961 . S
H1006 C991 0.961 . S
H1007 C991 0.961 . S
H1008 C992 0.931 . S
H1009 C997 0.930 . S
H1010 C998 0.956 . S
H1011 C998 0.961 . S
H1012 C998 0.961 . S
H1013 C999 0.958 . S
H1014 C999 0.961 . S
H1015 C999 0.960 . S
C1016 C1017 1.391 . S
C1016 C1018 1.394 . S
C1016 H1032 0.931 . S
C1017 C1016 1.391 . S
C1017 C1021 1.376 . S
C1018 C1016 1.394 . S
C1018 C1019 1.369 . S
C1018 C1022 1.531 . S
C1019 C1018 1.369 . S
C1019 C1020 1.410 . S
C1019 C1027 1.503 . S
C1020 C1019 1.410 . S
C1020 C1021 1.392 . S
C1020 C1023 1.511 . S
C1021 C1017 1.376 . S
C1021 C1020 1.392 . S
C1021 H1033 0.929 . S
C1022 C1018 1.531 . S
C1022 H1034 0.960 . S
C1022 H1035 0.962 . S
C1022 H1036 0.960 . S
C1023 C1020 1.511 . S
C1023 H1037 0.961 . S
C1023 H1038 0.961 . S
C1023 H1039 0.961 . S
C1024 C1025 1.370 . S
C1024 C1026 1.363 . S
C1024 H1040 0.931 . S
C1025 C1024 1.370 . S
C1025 C1029 1.401 1_565 S
C1026 C1024 1.363 . S
C1026 C1027 1.370 . S
C1026 C1030 1.524 . S
C1027 C1019 1.503 . S
C1027 C1026 1.370 . S
C1027 C1028 1.403 . S
C1028 C1027 1.403 . S
C1028 C1029 1.394 1_565 S
C1028 C1031 1.539 . S
C1029 C1025 1.401 1_545 S
C1029 C1028 1.394 1_545 S
C1029 H1041 0.947 . S
C1030 C1026 1.524 . S
C1030 H1042 0.956 . S
C1030 H1043 0.961 . S
C1030 H1044 0.961 . S
C1031 C1028 1.539 . S
C1031 H1045 0.958 . S
C1031 H1046 0.958 1_565 S
C1031 H1047 0.960 . S
H1032 C1016 0.931 . S
H1033 C1021 0.929 . S
H1034 C1022 0.960 . S
H1035 C1022 0.962 . S
H1036 C1022 0.960 . S
H1037 C1023 0.961 . S
H1038 C1023 0.961 . S
H1039 C1023 0.961 . S
H1040 C1024 0.931 . S
H1041 C1029 0.947 . S
H1042 C1030 0.956 . S
H1043 C1030 0.961 . S
H1044 C1030 0.961 . S
H1045 C1031 0.958 . S
H1046 C1031 0.958 1_545 S
H1047 C1031 0.960 . S
C1048 C1049 1.391 . S
C1048 C1050 1.394 . S
C1048 H1064 0.931 . S
C1049 C1048 1.391 . S
C1049 C1053 1.376 . S
C1050 C1048 1.394 . S
C1050 C1051 1.369 . S
C1050 C1054 1.531 . S
C1051 C1050 1.369 . S
C1051 C1052 1.410 . S
C1051 C1059 1.503 . S
C1052 C1051 1.410 . S
C1052 C1053 1.392 . S
C1052 C1055 1.511 . S
C1053 C1049 1.376 . S
C1053 C1052 1.392 . S
C1053 H1065 0.929 . S
C1054 C1050 1.531 . S
C1054 H1066 0.960 . S
C1054 H1067 0.962 . S
C1054 H1068 0.960 . S
C1055 C1052 1.511 . S
C1055 H1069 0.961 . S
C1055 H1070 0.961 . S
C1055 H1071 0.961 . S
C1056 C1057 1.370 . S
C1056 C1058 1.363 . S
C1056 H1072 0.931 . S
C1057 C1056 1.370 . S
C1057 C1061 1.408 . S
C1058 C1056 1.363 . S
C1058 C1059 1.370 . S
C1058 C1062 1.524 . S
C1059 C1051 1.503 . S
C1059 C1058 1.370 . S
C1059 C1060 1.403 . S
C1060 C1059 1.403 . S
C1060 C1061 1.404 . S
C1060 C1063 1.539 . S
C1061 C1057 1.408 . S
C1061 C1060 1.404 . S
C1061 H1073 0.930 . S
C1062 C1058 1.524 . S
C1062 H1074 0.956 . S
C1062 H1075 0.961 . S
C1062 H1076 0.961 . S
C1063 C1060 1.539 . S
C1063 H1077 0.958 . S
C1063 H1078 0.961 . S
C1063 H1079 0.960 . S
H1064 C1048 0.931 . S
H1065 C1053 0.929 . S
H1066 C1054 0.960 . S
H1067 C1054 0.962 . S
H1068 C1054 0.960 . S
H1069 C1055 0.961 . S
H1070 C1055 0.961 . S
H1071 C1055 0.961 . S
H1072 C1056 0.931 . S
H1073 C1061 0.930 . S
H1074 C1062 0.956 . S
H1075 C1062 0.961 . S
H1076 C1062 0.961 . S
H1077 C1063 0.958 . S
H1078 C1063 0.961 . S
H1079 C1063 0.960 . S
C1080 C1081 1.391 . S
C1080 C1082 1.394 1_554 S
C1080 H1096 0.931 . S
C1081 C1080 1.391 . S
C1081 C1085 1.376 . S
C1082 C1080 1.394 1_556 S
C1082 C1083 1.369 . S
C1082 C1086 1.531 . S
C1083 C1082 1.369 . S
C1083 C1084 1.410 . S
C1083 C1091 1.503 . S
C1084 C1083 1.410 . S
C1084 C1085 1.392 1_556 S
C1084 C1087 1.511 . S
C1085 C1081 1.376 . S
C1085 C1084 1.392 1_554 S
C1085 H1097 0.929 . S
C1086 C1082 1.531 . S
C1086 H1098 0.960 . S
C1086 H1099 0.962 . S
C1086 H1100 0.960 . S
C1087 C1084 1.511 . S
C1087 H1101 0.961 . S
C1087 H1102 0.961 . S
C1087 H1103 0.961 1_556 S
C1088 C1089 1.370 . S
C1088 C1090 1.363 . S
C1088 H1104 0.931 . S
C1089 C1088 1.370 . S
C1089 C1093 1.408 . S
C1090 C1088 1.363 . S
C1090 C1091 1.370 . S
C1090 C1094 1.524 . S
C1091 C1083 1.503 . S
C1091 C1090 1.370 . S
C1091 C1092 1.403 . S
C1092 C1091 1.403 . S
C1092 C1093 1.404 . S
C1092 C1095 1.539 1_556 S
C1093 C1089 1.408 . S
C1093 C1092 1.404 . S
C1093 H1105 0.930 . S
C1094 C1090 1.524 . S
C1094 H1106 0.956 . S
C1094 H1107 0.961 . S
C1094 H1108 0.961 . S
C1095 C1092 1.539 1_554 S
C1095 H1109 0.958 . S
C1095 H1110 0.961 . S
C1095 H1111 0.960 . S
H1096 C1080 0.931 . S
H1097 C1085 0.929 . S
H1098 C1086 0.960 . S
H1099 C1086 0.962 . S
H1100 C1086 0.960 . S
H1101 C1087 0.961 . S
H1102 C1087 0.961 . S
H1103 C1087 0.961 1_554 S
H1104 C1088 0.931 . S
H1105 C1093 0.930 . S
H1106 C1094 0.956 . S
H1107 C1094 0.961 . S
H1108 C1094 0.961 . S
H1109 C1095 0.958 . S
H1110 C1095 0.961 . S
H1111 C1095 0.960 . S
C1112 C1113 1.391 . S
C1112 C1114 1.394 . S
C1112 H1128 0.931 1_545 S
C1113 C1112 1.391 . S
C1113 C1117 1.376 . S
C1114 C1112 1.394 . S
C1114 C1115 1.369 . S
C1114 C1118 1.531 . S
C1115 C1114 1.369 . S
C1115 C1116 1.410 . S
C1115 C1123 1.503 . S
C1116 C1115 1.410 . S
C1116 C1117 1.392 . S
C1116 C1119 1.511 . S
C1117 C1113 1.376 . S
C1117 C1116 1.392 . S
C1117 H1129 0.929 . S
C1118 C1114 1.531 . S
C1118 H1130 0.960 . S
C1118 H1131 0.962 . S
C1118 H1132 0.960 . S
C1119 C1116 1.511 . S
C1119 H1133 0.961 . S
C1119 H1134 0.961 . S
C1119 H1135 0.961 . S
C1120 C1121 1.370 . S
C1120 C1122 1.363 . S
C1120 H1136 0.931 . S
C1121 C1120 1.370 . S
C1121 C1125 1.408 . S
C1122 C1120 1.363 . S
C1122 C1123 1.370 . S
C1122 C1126 1.524 . S
C1123 C1115 1.503 . S
C1123 C1122 1.370 . S
C1123 C1124 1.403 . S
C1124 C1123 1.403 . S
C1124 C1125 1.404 . S
C1124 C1127 1.539 . S
C1125 C1121 1.408 . S
C1125 C1124 1.404 . S
C1125 H1137 0.930 . S
C1126 C1122 1.524 . S
C1126 H1138 0.956 . S
C1126 H1139 0.961 . S
C1126 H1140 0.961 . S
C1127 C1124 1.539 . S
C1127 H1141 0.958 . S
C1127 H1142 0.961 . S
C1127 H1143 0.960 . S
H1128 C1112 0.931 1_565 S
H1129 C1117 0.929 . S
H1130 C1118 0.960 . S
H1131 C1118 0.962 . S
H1132 C1118 0.960 . S
H1133 C1119 0.961 . S
H1134 C1119 0.961 . S
H1135 C1119 0.961 . S
H1136 C1120 0.931 . S
H1137 C1125 0.930 . S
H1138 C1126 0.956 . S
H1139 C1126 0.961 . S
H1140 C1126 0.961 . S
H1141 C1127 0.958 . S
H1142 C1127 0.961 . S
H1143 C1127 0.960 . S
C1144 C1145 1.391 . S
C1144 C1146 1.394 . S
C1144 H1160 0.931 . S
C1145 C1144 1.391 . S
C1145 C1149 1.376 . S
C1146 C1144 1.394 . S
C1146 C1147 1.369 . S
C1146 C1150 1.531 . S
C1147 C1146 1.369 . S
C1147 C1148 1.410 . S
C1147 C1155 1.503 . S
C1148 C1147 1.410 . S
C1148 C1149 1.392 . S
C1148 C1151 1.511 . S
C1149 C1145 1.376 . S
C1149 C1148 1.392 . S
C1149 H1161 0.929 . S
C1150 C1146 1.531 . S
C1150 H1162 0.960 . S
C1150 H1163 0.962 . S
C1150 H1164 0.960 . S
C1151 C1148 1.511 . S
C1151 H1165 0.961 . S
C1151 H1166 0.961 . S
C1151 H1167 0.961 . S
C1152 C1153 1.370 . S
C1152 C1154 1.363 . S
C1152 H1168 0.931 . S
C1153 C1152 1.370 . S
C1153 C1157 1.408 . S
C1154 C1152 1.363 . S
C1154 C1155 1.370 . S
C1154 C1158 1.524 . S
C1155 C1147 1.503 . S
C1155 C1154 1.370 . S
C1155 C1156 1.403 . S
C1156 C1155 1.403 . S
C1156 C1157 1.404 . S
C1156 C1159 1.539 . S
C1157 C1153 1.408 . S
C1157 C1156 1.404 . S
C1157 H1169 0.930 . S
C1158 C1154 1.524 . S
C1158 H1170 0.956 . S
C1158 H1171 0.961 . S
C1158 H1172 0.961 . S
C1159 C1156 1.539 . S
C1159 H1173 0.958 . S
C1159 H1174 0.961 . S
C1159 H1175 0.960 . S
H1160 C1144 0.931 . S
H1161 C1149 0.929 . S
H1162 C1150 0.960 . S
H1163 C1150 0.962 . S
H1164 C1150 0.960 . S
H1165 C1151 0.961 . S
H1166 C1151 0.961 . S
H1167 C1151 0.961 . S
H1168 C1152 0.931 . S
H1169 C1157 0.930 . S
H1170 C1158 0.956 . S
H1171 C1158 0.961 . S
H1172 C1158 0.961 . S
H1173 C1159 0.958 . S
H1174 C1159 0.961 . S
H1175 C1159 0.960 . S
C1176 C1177 1.391 . S
C1176 C1178 1.394 . S
C1176 H1192 0.931 . S
C1177 C1176 1.391 . S
C1177 C1181 1.376 . S
C1178 C1176 1.394 . S
C1178 C1179 1.369 . S
C1178 C1182 1.531 . S
C1179 C1178 1.369 . S
C1179 C1180 1.410 . S
C1179 C1187 1.503 . S
C1180 C1179 1.410 . S
C1180 C1181 1.392 . S
C1180 C1183 1.511 . S
C1181 C1177 1.376 . S
C1181 C1180 1.392 . S
C1181 H1193 0.929 . S
C1182 C1178 1.531 . S
C1182 H1194 0.960 . S
C1182 H1195 0.962 . S
C1182 H1196 0.960 . S
C1183 C1180 1.511 . S
C1183 H1197 0.961 . S
C1183 H1198 0.961 . S
C1183 H1199 0.961 . S
C1184 C1185 1.370 . S
C1184 C1186 1.363 . S
C1184 H1200 0.931 . S
C1185 C1184 1.370 . S
C1185 C1189 1.408 . S
C1186 C1184 1.363 . S
C1186 C1187 1.370 . S
C1186 C1190 1.524 . S
C1187 C1179 1.503 . S
C1187 C1186 1.370 . S
C1187 C1188 1.403 . S
C1188 C1187 1.403 . S
C1188 C1189 1.404 . S
C1188 C1191 1.539 . S
C1189 C1185 1.408 . S
C1189 C1188 1.404 . S
C1189 H1201 0.930 . S
C1190 C1186 1.524 . S
C1190 H1202 0.956 . S
C1190 H1203 0.961 . S
C1190 H1204 0.961 . S
C1191 C1188 1.539 . S
C1191 H1205 0.958 . S
C1191 H1206 0.961 . S
C1191 H1207 0.960 . S
H1192 C1176 0.931 . S
H1193 C1181 0.929 . S
H1194 C1182 0.960 . S
H1195 C1182 0.962 . S
H1196 C1182 0.960 . S
H1197 C1183 0.961 . S
H1198 C1183 0.961 . S
H1199 C1183 0.961 . S
H1200 C1184 0.931 . S
H1201 C1189 0.930 . S
H1202 C1190 0.956 . S
H1203 C1190 0.961 . S
H1204 C1190 0.961 . S
H1205 C1191 0.958 . S
H1206 C1191 0.961 . S
H1207 C1191 0.960 . S
C1208 C1209 1.391 . S
C1208 C1210 1.394 . S
C1208 H1224 0.931 . S
C1209 C1208 1.391 . S
C1209 C1213 1.376 . S
C1210 C1208 1.394 . S
C1210 C1211 1.369 . S
C1210 C1214 1.531 . S
C1211 C1210 1.369 . S
C1211 C1212 1.410 . S
C1211 C1219 1.503 . S
C1212 C1211 1.410 . S
C1212 C1213 1.392 . S
C1212 C1215 1.511 . S
C1213 C1209 1.376 . S
C1213 C1212 1.392 . S
C1213 H1225 0.929 . S
C1214 C1210 1.531 . S
C1214 H1226 0.960 . S
C1214 H1227 0.962 . S
C1214 H1228 0.960 . S
C1215 C1212 1.511 . S
C1215 H1229 0.961 . S
C1215 H1230 0.961 . S
C1215 H1231 0.961 . S
C1216 C1217 1.370 . S
C1216 C1218 1.363 . S
C1216 H1232 0.931 . S
C1217 C1216 1.370 . S
C1217 C1221 1.408 . S
C1218 C1216 1.363 . S
C1218 C1219 1.370 . S
C1218 C1222 1.524 . S
C1219 C1211 1.503 . S
C1219 C1218 1.370 . S
C1219 C1220 1.403 . S
C1220 C1219 1.403 . S
C1220 C1221 1.404 . S
C1220 C1223 1.539 . S
C1221 C1217 1.408 . S
C1221 C1220 1.404 . S
C1221 H1233 0.930 . S
C1222 C1218 1.524 . S
C1222 H1234 0.956 . S
C1222 H1235 0.961 . S
C1222 H1236 0.961 . S
C1223 C1220 1.539 . S
C1223 H1237 0.958 . S
C1223 H1238 0.961 . S
C1223 H1239 0.960 . S
H1224 C1208 0.931 . S
H1225 C1213 0.929 . S
H1226 C1214 0.960 . S
H1227 C1214 0.962 . S
H1228 C1214 0.960 . S
H1229 C1215 0.961 . S
H1230 C1215 0.961 . S
H1231 C1215 0.961 . S
H1232 C1216 0.931 . S
H1233 C1221 0.930 . S
H1234 C1222 0.956 . S
H1235 C1222 0.961 . S
H1236 C1222 0.961 . S
H1237 C1223 0.958 . S
H1238 C1223 0.961 . S
H1239 C1223 0.960 . S
C1240 C1241 1.391 . S
C1240 C1242 1.394 . S
C1240 H1256 0.931 . S
C1241 C1240 1.391 . S
C1241 C1245 1.376 . S
C1242 C1240 1.394 . S
C1242 C1243 1.369 . S
C1242 C1246 1.531 . S
C1243 C1242 1.369 . S
C1243 C1244 1.410 . S
C1243 C1251 1.503 . S
C1244 C1243 1.410 . S
C1244 C1245 1.392 . S
C1244 C1247 1.511 . S
C1245 C1241 1.376 . S
C1245 C1244 1.392 . S
C1245 H1257 0.929 . S
C1246 C1242 1.531 . S
C1246 H1258 0.960 . S
C1246 H1259 0.962 . S
C1246 H1260 0.960 . S
C1247 C1244 1.511 . S
C1247 H1261 0.961 . S
C1247 H1262 0.961 . S
C1247 H1263 0.961 . S
C1248 C1249 1.370 . S
C1248 C1250 1.363 . S
C1248 H1264 0.931 . S
C1249 C1248 1.370 . S
C1249 C1253 1.408 . S
C1250 C1248 1.363 . S
C1250 C1251 1.370 . S
C1250 C1254 1.524 . S
C1251 C1243 1.503 . S
C1251 C1250 1.370 . S
C1251 C1252 1.403 . S
C1252 C1251 1.403 . S
C1252 C1253 1.404 . S
C1252 C1255 1.539 . S
C1253 C1249 1.408 . S
C1253 C1252 1.404 . S
C1253 H1265 0.930 . S
C1254 C1250 1.524 . S
C1254 H1266 0.956 . S
C1254 H1267 0.961 . S
C1254 H1268 0.961 . S
C1255 C1252 1.539 . S
C1255 H1269 0.958 . S
C1255 H1270 0.961 . S
C1255 H1271 0.960 . S
H1256 C1240 0.931 . S
H1257 C1245 0.929 . S
H1258 C1246 0.960 . S
H1259 C1246 0.962 . S
H1260 C1246 0.960 . S
H1261 C1247 0.961 . S
H1262 C1247 0.961 . S
H1263 C1247 0.961 . S
H1264 C1248 0.931 . S
H1265 C1253 0.930 . S
H1266 C1254 0.956 . S
H1267 C1254 0.961 . S
H1268 C1254 0.961 . S
H1269 C1255 0.958 . S
H1270 C1255 0.961 . S
H1271 C1255 0.960 . S
C1272 C1273 1.391 . S
C1272 C1274 1.394 . S
C1272 H1288 0.931 . S
C1273 C1272 1.391 . S
C1273 C1277 1.376 . S
C1274 C1272 1.394 . S
C1274 C1275 1.369 . S
C1274 C1278 1.531 . S
C1275 C1274 1.369 . S
C1275 C1276 1.410 . S
C1275 C1283 1.503 . S
C1276 C1275 1.410 . S
C1276 C1277 1.392 . S
C1276 C1279 1.511 . S
C1277 C1273 1.376 . S
C1277 C1276 1.392 . S
C1277 H1289 0.929 . S
C1278 C1274 1.531 . S
C1278 H1290 0.960 . S
C1278 H1291 0.962 . S
C1278 H1292 0.960 . S
C1279 C1276 1.511 . S
C1279 H1293 0.961 . S
C1279 H1294 0.961 . S
C1279 H1295 0.961 . S
C1280 C1281 1.370 . S
C1280 C1282 1.363 . S
C1280 H1296 0.931 . S
C1281 C1280 1.370 . S
C1281 C1285 1.408 . S
C1282 C1280 1.363 . S
C1282 C1283 1.370 . S
C1282 C1286 1.524 . S
C1283 C1275 1.503 . S
C1283 C1282 1.370 . S
C1283 C1284 1.403 . S
C1284 C1283 1.403 . S
C1284 C1285 1.404 . S
C1284 C1287 1.539 . S
C1285 C1281 1.408 . S
C1285 C1284 1.404 . S
C1285 H1297 0.930 . S
C1286 C1282 1.524 . S
C1286 H1298 0.956 . S
C1286 H1299 0.961 . S
C1286 H1300 0.961 . S
C1287 C1284 1.539 . S
C1287 H1301 0.958 . S
C1287 H1302 0.961 . S
C1287 H1303 0.960 . S
H1288 C1272 0.931 . S
H1289 C1277 0.929 . S
H1290 C1278 0.960 . S
H1291 C1278 0.962 . S
H1292 C1278 0.960 . S
H1293 C1279 0.961 . S
H1294 C1279 0.961 . S
H1295 C1279 0.961 . S
H1296 C1280 0.931 . S
H1297 C1285 0.930 . S
H1298 C1286 0.956 . S
H1299 C1286 0.961 . S
H1300 C1286 0.961 . S
H1301 C1287 0.958 . S
H1302 C1287 0.961 . S
H1303 C1287 0.960 . S
C1304 C1305 1.391 . S
C1304 C1306 1.394 . S
C1304 H1320 0.931 . S
C1305 C1304 1.391 . S
C1305 C1309 1.376 . S
C1306 C1304 1.394 . S
C1306 C1307 1.369 . S
C1306 C1310 1.531 . S
C1307 C1306 1.369 . S
C1307 C1308 1.410 . S
C1307 C1315 1.503 . S
C1308 C1307 1.410 . S
C1308 C1309 1.392 . S
C1308 C1311 1.511 . S
C1309 C1305 1.376 . S
C1309 C1308 1.392 . S
C1309 H1321 0.929 . S
C1310 C1306 1.531 . S
C1310 H1322 0.960 . S
C1310 H1323 0.962 . S
C1310 H1324 0.960 . S
C1311 C1308 1.511 . S
C1311 H1325 0.961 . S
C1311 H1326 0.961 . S
C1311 H1327 0.961 . S
C1312 C1313 1.370 . S
C1312 C1314 1.363 . S
C1312 H1328 0.931 . S
C1313 C1312 1.370 . S
C1313 C1317 1.408 . S
C1314 C1312 1.363 . S
C1314 C1315 1.370 . S
C1314 C1318 1.524 . S
C1315 C1307 1.503 . S
C1315 C1314 1.370 . S
C1315 C1316 1.403 . S
C1316 C1315 1.403 . S
C1316 C1317 1.404 . S
C1316 C1319 1.539 . S
C1317 C1313 1.408 . S
C1317 C1316 1.404 . S
C1317 H1329 0.930 . S
C1318 C1314 1.524 . S
C1318 H1330 0.956 . S
C1318 H1331 0.961 . S
C1318 H1332 0.961 . S
C1319 C1316 1.539 . S
C1319 H1333 0.958 . S
C1319 H1334 0.961 . S
C1319 H1335 0.960 . S
H1320 C1304 0.931 . S
H1321 C1309 0.929 . S
H1322 C1310 0.960 . S
H1323 C1310 0.962 . S
H1324 C1310 0.960 . S
H1325 C1311 0.961 . S
H1326 C1311 0.961 . S
H1327 C1311 0.961 . S
H1328 C1312 0.931 . S
H1329 C1317 0.930 . S
H1330 C1318 0.956 . S
H1331 C1318 0.961 . S
H1332 C1318 0.961 . S
H1333 C1319 0.958 . S
H1334 C1319 0.961 . S
H1335 C1319 0.960 . S
C1336 C1337 1.391 . S
C1336 C1338 1.394 . S
C1336 H1352 0.931 . S
C1337 C1336 1.391 . S
C1337 C1341 1.376 . S
C1338 C1336 1.394 . S
C1338 C1339 1.369 . S
C1338 C1342 1.531 . S
C1339 C1338 1.369 . S
C1339 C1340 1.410 . S
C1339 C1347 1.503 . S
C1340 C1339 1.410 . S
C1340 C1341 1.392 . S
C1340 C1343 1.511 . S
C1341 C1337 1.376 . S
C1341 C1340 1.392 . S
C1341 H1353 0.929 . S
C1342 C1338 1.531 . S
C1342 H1354 0.960 . S
C1342 H1355 0.962 . S
C1342 H1356 0.960 . S
C1343 C1340 1.511 . S
C1343 H1357 0.961 . S
C1343 H1358 0.961 . S
C1343 H1359 0.961 . S
C1344 C1345 1.370 . S
C1344 C1346 1.363 . S
C1344 H1360 0.931 . S
C1345 C1344 1.370 . S
C1345 C1349 1.408 . S
C1346 C1344 1.363 . S
C1346 C1347 1.370 . S
C1346 C1350 1.524 . S
C1347 C1339 1.503 . S
C1347 C1346 1.370 . S
C1347 C1348 1.403 . S
C1348 C1347 1.403 . S
C1348 C1349 1.404 . S
C1348 C1351 1.539 . S
C1349 C1345 1.408 . S
C1349 C1348 1.404 . S
C1349 H1361 0.930 . S
C1350 C1346 1.524 . S
C1350 H1362 0.956 . S
C1350 H1363 0.961 . S
C1350 H1364 0.961 . S
C1351 C1348 1.539 . S
C1351 H1365 0.958 . S
C1351 H1366 0.961 . S
C1351 H1367 0.960 . S
H1352 C1336 0.931 . S
H1353 C1341 0.929 . S
H1354 C1342 0.960 . S
H1355 C1342 0.962 . S
H1356 C1342 0.960 . S
H1357 C1343 0.961 . S
H1358 C1343 0.961 . S
H1359 C1343 0.961 . S
H1360 C1344 0.931 . S
H1361 C1349 0.930 . S
H1362 C1350 0.956 . S
H1363 C1350 0.961 . S
H1364 C1350 0.961 . S
H1365 C1351 0.958 . S
H1366 C1351 0.961 . S
H1367 C1351 0.960 . S
C409 C213 1.411 . S
C417 C9 1.399 . S
C441 C43 1.393 . S
C449 C247 1.401 . S
C473 C281 1.399 . S
C481 C77 1.394 . S
C505 C111 1.396 . S
C513 C315 1.393 . S
C537 C349 1.415 . S
C545 C145 1.401 . S
C569 C383 1.398 . S
C577 C179 1.394 . S
C601 C243 0.444 . S
C609 C5 0.412 . S
C633 C39 0.258 . S
C641 C277 0.332 . S
C665 C311 0.261 . S
C673 C73 0.335 . S
C697 C107 0.380 . S
C705 C345 0.390 . S
C729 C379 0.285 . S
C737 C141 0.324 . S
C761 C175 0.434 . S
C769 C209 0.377 . S
C793 C203 1.385 1_545 S
C801 C20 1.326 . S
C825 C33 1.371 . S
C833 C54 1.312 . S
C857 C88 1.349 . S
C865 C67 1.375 1_655 S
C889 C101 1.374 1_565 S
C897 C122 1.327 . S
C921 C135 1.357 . S
C929 C156 1.303 . S
C953 C169 1.364 1_455 S
C961 C190 1.322 . S
C985 C271 1.374 1_655 S
C993 C224 1.327 . S
C1017 C258 1.272 . S
C1025 C305 1.359 1_565 S
C1049 C339 1.341 . S
C1057 C292 1.304 . S
C1081 C373 1.383 1_455 S
C1089 C326 1.330 . S
C1113 C407 1.351 1_545 S
C1121 C360 1.313 . S
C1145 C237 1.342 . S
C1153 C394 1.305 . S
C1177 C2 1.878 . S
C1185 C274 1.863 . S
C1209 C36 1.887 . S
C1217 C308 1.868 . S
C1241 C70 1.886 . S
C1249 C342 1.877 . S
C1273 C104 1.852 . S
C1281 C376 1.875 . S
C1305 C138 1.846 . S
C1313 C206 1.858 . S
C1337 C172 1.854 . S
C1345 C240 1.857 . S
