# Generated by pormake.
# Topology uks, (4)-cn, num edge types: 1
# Building blocks:
#     Node 0, Type 0, BuildingBlock: NAWXER_clean_sbu_0, # of connection points: 4
#     Node 1, Type 0, BuildingBlock: NAWXER_clean_sbu_0, # of connection points: 4
#     Node 2, Type 0, BuildingBlock: NAWXER_clean_sbu_0, # of connection points: 4
#     Node 3, Type 0, BuildingBlock: NAWXER_clean_sbu_0, # of connection points: 4
#     Node 4, Type 0, BuildingBlock: NAWXER_clean_sbu_0, # of connection points: 4
#     Node 5, Type 0, BuildingBlock: NAWXER_clean_sbu_0, # of connection points: 4
#     Node 6, Type 0, BuildingBlock: NAWXER_clean_sbu_0, # of connection points: 4
#     Node 7, Type 0, BuildingBlock: NAWXER_clean_sbu_0, # of connection points: 4
#     Node 8, Type 0, BuildingBlock: NAWXER_clean_sbu_0, # of connection points: 4
#     Node 9, Type 0, BuildingBlock: NAWXER_clean_sbu_0, # of connection points: 4
#     Node 10, Type 0, BuildingBlock: NAWXER_clean_sbu_0, # of connection points: 4
#     Node 11, Type 0, BuildingBlock: NAWXER_clean_sbu_0, # of connection points: 4
#     Node 12, Type 0, BuildingBlock: NAWXER_clean_sbu_0, # of connection points: 4
#     Node 13, Type 0, BuildingBlock: NAWXER_clean_sbu_0, # of connection points: 4
#     Node 14, Type 0, BuildingBlock: NAWXER_clean_sbu_0, # of connection points: 4
#     Node 15, Type 0, BuildingBlock: NAWXER_clean_sbu_0, # of connection points: 4
#     Node 16, Type 0, BuildingBlock: NAWXER_clean_sbu_0, # of connection points: 4
#     Node 17, Type 0, BuildingBlock: NAWXER_clean_sbu_0, # of connection points: 4
#     Node 18, Type 0, BuildingBlock: NAWXER_clean_sbu_0, # of connection points: 4
#     Node 19, Type 0, BuildingBlock: NAWXER_clean_sbu_0, # of connection points: 4
#     Node 20, Type 0, BuildingBlock: NAWXER_clean_sbu_0, # of connection points: 4
#     Node 21, Type 0, BuildingBlock: NAWXER_clean_sbu_0, # of connection points: 4
#     Node 22, Type 0, BuildingBlock: NAWXER_clean_sbu_0, # of connection points: 4
#     Node 23, Type 0, BuildingBlock: NAWXER_clean_sbu_0, # of connection points: 4
#     Edge 24, Type (0, 0), BuildingBlock: KIFKEQ_clean_linker_1, # of connection points: 2
#     Edge 25, Type (0, 0), BuildingBlock: KIFKEQ_clean_linker_1, # of connection points: 2
#     Edge 26, Type (0, 0), BuildingBlock: KIFKEQ_clean_linker_1, # of connection points: 2
#     Edge 27, Type (0, 0), BuildingBlock: KIFKEQ_clean_linker_1, # of connection points: 2
#     Edge 28, Type (0, 0), BuildingBlock: KIFKEQ_clean_linker_1, # of connection points: 2
#     Edge 29, Type (0, 0), BuildingBlock: KIFKEQ_clean_linker_1, # of connection points: 2
#     Edge 30, Type (0, 0), BuildingBlock: KIFKEQ_clean_linker_1, # of connection points: 2
#     Edge 31, Type (0, 0), BuildingBlock: KIFKEQ_clean_linker_1, # of connection points: 2
#     Edge 32, Type (0, 0), BuildingBlock: KIFKEQ_clean_linker_1, # of connection points: 2
#     Edge 33, Type (0, 0), BuildingBlock: KIFKEQ_clean_linker_1, # of connection points: 2
#     Edge 34, Type (0, 0), BuildingBlock: KIFKEQ_clean_linker_1, # of connection points: 2
#     Edge 35, Type (0, 0), BuildingBlock: KIFKEQ_clean_linker_1, # of connection points: 2
#     Edge 36, Type (0, 0), BuildingBlock: KIFKEQ_clean_linker_1, # of connection points: 2
#     Edge 37, Type (0, 0), BuildingBlock: KIFKEQ_clean_linker_1, # of connection points: 2
#     Edge 38, Type (0, 0), BuildingBlock: KIFKEQ_clean_linker_1, # of connection points: 2
#     Edge 39, Type (0, 0), BuildingBlock: KIFKEQ_clean_linker_1, # of connection points: 2
#     Edge 40, Type (0, 0), BuildingBlock: KIFKEQ_clean_linker_1, # of connection points: 2
#     Edge 41, Type (0, 0), BuildingBlock: KIFKEQ_clean_linker_1, # of connection points: 2
#     Edge 42, Type (0, 0), BuildingBlock: KIFKEQ_clean_linker_1, # of connection points: 2
#     Edge 43, Type (0, 0), BuildingBlock: KIFKEQ_clean_linker_1, # of connection points: 2
#     Edge 44, Type (0, 0), BuildingBlock: KIFKEQ_clean_linker_1, # of connection points: 2
#     Edge 45, Type (0, 0), BuildingBlock: KIFKEQ_clean_linker_1, # of connection points: 2
#     Edge 46, Type (0, 0), BuildingBlock: KIFKEQ_clean_linker_1, # of connection points: 2
#     Edge 47, Type (0, 0), BuildingBlock: KIFKEQ_clean_linker_1, # of connection points: 2
#     Edge 48, Type (0, 0), BuildingBlock: KIFKEQ_clean_linker_1, # of connection points: 2
#     Edge 49, Type (0, 0), BuildingBlock: KIFKEQ_clean_linker_1, # of connection points: 2
#     Edge 50, Type (0, 0), BuildingBlock: KIFKEQ_clean_linker_1, # of connection points: 2
#     Edge 51, Type (0, 0), BuildingBlock: KIFKEQ_clean_linker_1, # of connection points: 2
#     Edge 52, Type (0, 0), BuildingBlock: KIFKEQ_clean_linker_1, # of connection points: 2
#     Edge 53, Type (0, 0), BuildingBlock: KIFKEQ_clean_linker_1, # of connection points: 2
#     Edge 54, Type (0, 0), BuildingBlock: KIFKEQ_clean_linker_1, # of connection points: 2
#     Edge 55, Type (0, 0), BuildingBlock: KIFKEQ_clean_linker_1, # of connection points: 2
#     Edge 56, Type (0, 0), BuildingBlock: KIFKEQ_clean_linker_1, # of connection points: 2
#     Edge 57, Type (0, 0), BuildingBlock: KIFKEQ_clean_linker_1, # of connection points: 2
#     Edge 58, Type (0, 0), BuildingBlock: KIFKEQ_clean_linker_1, # of connection points: 2
#     Edge 59, Type (0, 0), BuildingBlock: KIFKEQ_clean_linker_1, # of connection points: 2
#     Edge 60, Type (0, 0), BuildingBlock: KIFKEQ_clean_linker_1, # of connection points: 2
#     Edge 61, Type (0, 0), BuildingBlock: KIFKEQ_clean_linker_1, # of connection points: 2
#     Edge 62, Type (0, 0), BuildingBlock: KIFKEQ_clean_linker_1, # of connection points: 2
#     Edge 63, Type (0, 0), BuildingBlock: KIFKEQ_clean_linker_1, # of connection points: 2
#     Edge 64, Type (0, 0), BuildingBlock: KIFKEQ_clean_linker_1, # of connection points: 2
#     Edge 65, Type (0, 0), BuildingBlock: KIFKEQ_clean_linker_1, # of connection points: 2
#     Edge 66, Type (0, 0), BuildingBlock: KIFKEQ_clean_linker_1, # of connection points: 2
#     Edge 67, Type (0, 0), BuildingBlock: KIFKEQ_clean_linker_1, # of connection points: 2
#     Edge 68, Type (0, 0), BuildingBlock: KIFKEQ_clean_linker_1, # of connection points: 2
#     Edge 69, Type (0, 0), BuildingBlock: KIFKEQ_clean_linker_1, # of connection points: 2
#     Edge 70, Type (0, 0), BuildingBlock: KIFKEQ_clean_linker_1, # of connection points: 2
#     Edge 71, Type (0, 0), BuildingBlock: KIFKEQ_clean_linker_1, # of connection points: 2
# Relax obj value: 0.065
# Max RMSD: 0.064
# Mean RMSD: 0.064
data_MOF--net-uks--node1-NAWXER_clean_sbu_0--edge1-KIFKEQ_clean_linker_1
_symmetry_space_group_name_H-M    P1
_symmetry_Int_Tables_number       1
_symmetry_cell_setting            triclinic
loop_
_symmetry_equiv_pos_as_xyz
'x, y, z'
_cell_length_a     54.829333
_cell_length_b     54.596268
_cell_length_c     54.458634
_cell_angle_alpha  90.296434
_cell_angle_beta   90.697293
_cell_angle_gamma 89.806727
loop_
_atom_site_label
_atom_site_type_symbol
_atom_site_fract_x
_atom_site_fract_y
_atom_site_fract_z
_atom_type_partial_charge
C0 C 0.08211 0.39509 0.72825 0.0
C1 C 0.16769 0.41073 0.75515 0.0
O2 O 0.09863 0.39087 0.71236 0.0
Zn3 Zn 0.13695 0.39196 0.7081 0.0
O4 O 0.08839 0.40248 0.74966 0.0
Zn5 Zn 0.12411 0.40369 0.74418 0.0
O6 O 0.12728 0.432 0.71768 0.0
O7 O 0.13983 0.41666 0.68239 0.0
O8 O 0.14913 0.4133 0.76887 0.0
O9 O 0.16479 0.40342 0.73296 0.0
O10 O 0.14563 0.35705 0.70403 0.0
O11 O 0.13295 0.36628 0.7412 0.0
C12 C 0.13319 0.43507 0.69521 0.0
C13 C 0.14105 0.35047 0.72592 0.0
C14 C 0.58872 0.64773 0.19569 0.0
C15 C 0.67465 0.64574 0.22408 0.0
O16 O 0.59574 0.64457 0.21788 0.0
Zn17 Zn 0.6308 0.64653 0.21151 0.0
O18 O 0.60466 0.65031 0.1789 0.0
Zn19 Zn 0.64327 0.65177 0.17439 0.0
O20 O 0.64828 0.62291 0.15359 0.0
O21 O 0.63611 0.61359 0.19085 0.0
O22 O 0.67191 0.64819 0.20084 0.0
O23 O 0.65588 0.6447 0.23755 0.0
O24 O 0.63232 0.68363 0.20004 0.0
O25 O 0.64705 0.68563 0.16255 0.0
C26 C 0.64244 0.60678 0.16929 0.0
C27 C 0.63842 0.69631 0.18141 0.0
C28 C 0.3394 0.12222 0.7152 0.0
C29 C 0.42507 0.13742 0.69727 0.0
O30 O 0.34813 0.13176 0.696 0.0
Zn31 Zn 0.38205 0.13189 0.7067 0.0
O32 O 0.35362 0.11719 0.73339 0.0
Zn33 Zn 0.39189 0.11996 0.74254 0.0
O34 O 0.39339 0.14433 0.76915 0.0
O35 O 0.38324 0.1607 0.73365 0.0
O36 O 0.42204 0.12985 0.7193 0.0
O37 O 0.40653 0.14155 0.68363 0.0
O38 O 0.39075 0.09343 0.71015 0.0
O39 O 0.39956 0.08561 0.74903 0.0
C40 C 0.38773 0.16319 0.7567 0.0
C41 C 0.39718 0.0782 0.72692 0.0
C42 C 0.92602 0.88434 0.19626 0.0
C43 C 0.84017 0.87869 0.21934 0.0
O44 O 0.92122 0.89439 0.21697 0.0
Zn45 Zn 0.89068 0.90067 0.24007 0.0
O46 O 0.90903 0.87392 0.18401 0.0
Zn47 Zn 0.88267 0.87996 0.20679 0.0
O48 O 0.87764 0.91847 0.20387 0.0
O49 O 0.88722 0.93652 0.23901 0.0
O50 O 0.84941 0.8684 0.20056 0.0
O51 O 0.8537 0.89065 0.23444 0.0
O52 O 0.89869 0.88208 0.27016 0.0
O53 O 0.8925 0.85852 0.23768 0.0
C54 C 0.87957 0.938 0.21684 0.0
C55 C 0.8978 0.86077 0.26053 0.0
C56 C 0.14377 0.09785 0.83135 0.0
C57 C 0.1517 0.18005 0.79482 0.0
O58 O 0.13365 0.10045 0.81019 0.0
Zn59 Zn 0.12719 0.12781 0.78316 0.0
O60 O 0.1539 0.11624 0.84173 0.0
Zn61 Zn 0.14792 0.1401 0.81554 0.0
O62 O 0.11004 0.14586 0.81765 0.0
O63 O 0.09145 0.13235 0.78417 0.0
O64 O 0.16005 0.17401 0.81591 0.0
O65 O 0.13952 0.16446 0.78212 0.0
O66 O 0.14547 0.11456 0.75494 0.0
O67 O 0.16872 0.12492 0.78675 0.0
C68 C 0.09038 0.14257 0.80524 0.0
C69 C 0.16654 0.11612 0.76503 0.0
C70 C 0.93548 0.63457 0.31453 0.0
C71 C 0.84909 0.64229 0.28943 0.0
O72 O 0.92722 0.63266 0.29263 0.0
Zn73 Zn 0.89316 0.63967 0.30051 0.0
O74 O 0.92098 0.64037 0.33195 0.0
Zn75 Zn 0.883 0.64825 0.33759 0.0
O76 O 0.8755 0.62198 0.36037 0.0
O77 O 0.88506 0.60885 0.32326 0.0
O78 O 0.85286 0.64591 0.31243 0.0
O79 O 0.86721 0.63864 0.27549 0.0
O80 O 0.89549 0.67744 0.30988 0.0
O81 O 0.88292 0.68291 0.34782 0.0
C82 C 0.87895 0.60429 0.34542 0.0
C83 C 0.8912 0.69173 0.32804 0.0
C84 C 0.43632 0.39425 0.81271 0.0
C85 C 0.3474 0.39605 0.79608 0.0
O86 O 0.423 0.38728 0.83054 0.0
Zn87 Zn 0.38554 0.38068 0.83874 0.0
O88 O 0.42637 0.39886 0.79196 0.0
Zn89 Zn 0.39239 0.39319 0.80188 0.0
O90 O 0.38824 0.42123 0.82922 0.0
O91 O 0.38137 0.40464 0.86538 0.0
O92 O 0.36403 0.40012 0.78048 0.0
O93 O 0.35346 0.38871 0.81762 0.0
O94 O 0.38388 0.34486 0.84367 0.0
O95 O 0.3912 0.35444 0.80529 0.0
C96 C 0.38425 0.42369 0.85224 0.0
C97 C 0.38788 0.33809 0.82167 0.0
C98 C 0.58704 0.87975 0.31503 0.0
C99 C 0.66963 0.88763 0.28284 0.0
O100 O 0.58744 0.89086 0.29436 0.0
Zn101 Zn 0.61406 0.90302 0.26887 0.0
O102 O 0.60703 0.87305 0.32498 0.0
Zn103 Zn 0.62927 0.88453 0.3001 0.0
O104 O 0.62892 0.92358 0.3033 0.0
O105 O 0.61146 0.93892 0.2701 0.0
O106 O 0.66387 0.8778 0.30314 0.0
O107 O 0.65311 0.89771 0.26936 0.0
O108 O 0.6059 0.88408 0.23901 0.0
O109 O 0.62233 0.86184 0.26869 0.0
C110 C 0.62188 0.94224 0.29087 0.0
C111 C 0.61409 0.8636 0.24667 0.0
C112 C 0.74907 0.12228 0.35012 0.0
C113 C 0.69769 0.14353 0.42015 0.0
O114 O 0.75353 0.11708 0.3725 0.0
Zn115 Zn 0.72303 0.13044 0.38506 0.0
O116 O 0.72903 0.13289 0.34409 0.0
Zn117 Zn 0.69723 0.14779 0.36125 0.0
O118 O 0.7014 0.182 0.35213 0.0
O119 O 0.72997 0.16818 0.37737 0.0
O120 O 0.68838 0.1506 0.39963 0.0
O121 O 0.7172 0.13089 0.42004 0.0
O122 O 0.69591 0.10613 0.3696 0.0
O123 O 0.67158 0.12826 0.34593 0.0
C124 C 0.72103 0.18557 0.36436 0.0
C125 C 0.67759 0.10756 0.35477 0.0
C126 C 0.87293 0.18957 0.92272 0.0
C127 C 0.88032 0.19929 0.83326 0.0
O128 O 0.88415 0.20923 0.91681 0.0
Zn129 Zn 0.8949 0.22737 0.88374 0.0
O130 O 0.86523 0.17535 0.90579 0.0
Zn131 Zn 0.87555 0.19394 0.87731 0.0
O132 O 0.91456 0.19057 0.87724 0.0
O133 O 0.93042 0.22693 0.88489 0.0
O134 O 0.86869 0.18224 0.84387 0.0
O135 O 0.88999 0.21653 0.84607 0.0
O136 O 0.87687 0.25839 0.88434 0.0
O137 O 0.85334 0.22628 0.878 0.0
C138 C 0.93332 0.20437 0.87953 0.0
C139 C 0.85573 0.24953 0.88045 0.0
C140 C 0.81819 0.38429 0.4345 0.0
C141 C 0.783 0.40747 0.35344 0.0
O142 O 0.79701 0.3934 0.43097 0.0
Zn143 Zn 0.79854 0.3972 0.39498 0.0
O144 O 0.83205 0.38073 0.41606 0.0
Zn145 Zn 0.83209 0.38486 0.37734 0.0
O146 O 0.85783 0.40911 0.37237 0.0
O147 O 0.82535 0.42461 0.39042 0.0
O148 O 0.80476 0.39899 0.35323 0.0
O149 O 0.7718 0.40956 0.37377 0.0
O150 O 0.79842 0.36074 0.38254 0.0
O151 O 0.83345 0.3505 0.36573 0.0
C152 C 0.84674 0.42744 0.3817 0.0
C153 C 0.81172 0.34494 0.37162 0.0
C154 C 0.63511 0.31253 0.83238 0.0
C155 C 0.64814 0.34617 0.91554 0.0
O156 O 0.62958 0.30213 0.85243 0.0
Zn157 Zn 0.6404 0.32836 0.87454 0.0
O158 O 0.64508 0.3337 0.83299 0.0
Zn159 Zn 0.65596 0.36109 0.85879 0.0
O160 O 0.69166 0.36204 0.85362 0.0
O161 O 0.67884 0.32793 0.87068 0.0
O162 O 0.65491 0.36052 0.89832 0.0
O163 O 0.63798 0.32591 0.90999 0.0
O164 O 0.61472 0.35589 0.86567 0.0
O165 O 0.63302 0.38755 0.84907 0.0
C166 C 0.69637 0.34118 0.86305 0.0
C167 C 0.61348 0.37706 0.8558 0.0
C168 C 0.72161 0.39647 0.17884 0.0
C169 C 0.69528 0.38454 0.09223 0.0
O170 O 0.73529 0.39835 0.16019 0.0
Zn171 Zn 0.71062 0.39078 0.13464 0.0
O172 O 0.69932 0.39018 0.17577 0.0
Zn173 Zn 0.67421 0.38102 0.1473 0.0
O174 O 0.66789 0.34573 0.1535 0.0
O175 O 0.7047 0.35302 0.13941 0.0
O176 O 0.67897 0.38069 0.10842 0.0
O177 O 0.7166 0.39118 0.09913 0.0
O178 O 0.68601 0.42044 0.1381 0.0
O179 O 0.65025 0.40785 0.15114 0.0
C180 C 0.68848 0.3378 0.14619 0.0
C181 C 0.66407 0.42524 0.14431 0.0
C182 C 0.61331 0.23823 0.66488 0.0
C183 C 0.63289 0.2021 0.58393 0.0
O184 O 0.60899 0.24867 0.64435 0.0
Zn185 Zn 0.62159 0.22188 0.62358 0.0
O186 O 0.62317 0.21697 0.6652 0.0
Zn187 Zn 0.63685 0.18945 0.64134 0.0
O188 O 0.67154 0.19004 0.65107 0.0
O189 O 0.65874 0.2243 0.6338 0.0
O190 O 0.63843 0.1887 0.60243 0.0
O191 O 0.6228 0.22284 0.58751 0.0
O192 O 0.5961 0.19385 0.63125 0.0
O193 O 0.61469 0.16269 0.64927 0.0
C194 C 0.67572 0.2119 0.64421 0.0
C195 C 0.59515 0.17266 0.64118 0.0
C196 C 0.7734 0.17503 0.14141 0.0
C197 C 0.81845 0.09701 0.1436 0.0
O198 O 0.79645 0.17741 0.14488 0.0
Zn199 Zn 0.82855 0.15512 0.14716 0.0
O200 O 0.76467 0.1538 0.13742 0.0
Zn201 Zn 0.79548 0.13555 0.13924 0.0
O202 O 0.80519 0.13942 0.17722 0.0
O203 O 0.83902 0.16112 0.18132 0.0
O204 O 0.79607 0.09985 0.13763 0.0
O205 O 0.83197 0.11592 0.14662 0.0
O206 O 0.84812 0.16573 0.11949 0.0
O207 O 0.81489 0.14652 0.10714 0.0
C208 C 0.82186 0.14888 0.19089 0.0
C209 C 0.83464 0.15785 0.10202 0.0
C210 C 0.89373 0.26924 0.6705 0.0
C211 C 0.88067 0.3227 0.59945 0.0
O212 O 0.90208 0.26525 0.64911 0.0
Zn213 Zn 0.89142 0.29672 0.63544 0.0
O214 O 0.88395 0.28995 0.67563 0.0
Zn215 Zn 0.87413 0.32366 0.65802 0.0
O216 O 0.8393 0.322 0.66478 0.0
O217 O 0.85283 0.29244 0.64057 0.0
O218 O 0.87317 0.33233 0.61954 0.0
O219 O 0.89293 0.3029 0.60034 0.0
O220 O 0.91639 0.32151 0.65274 0.0
O221 O 0.89518 0.3478 0.6746 0.0
C222 C 0.83532 0.30252 0.65234 0.0
C223 C 0.91575 0.33991 0.66744 0.0
C224 C 0.34143 0.73906 0.1592 0.0
C225 C 0.41512 0.68996 0.15014 0.0
O226 O 0.36148 0.74572 0.14992 0.0
Zn227 Zn 0.37743 0.71394 0.15103 0.0
O228 O 0.33824 0.71649 0.16472 0.0
Zn229 Zn 0.35845 0.68263 0.16363 0.0
O230 O 0.35758 0.67394 0.19831 0.0
O231 O 0.37969 0.70668 0.19 0.0
O232 O 0.39699 0.67717 0.15737 0.0
O233 O 0.41155 0.71186 0.14309 0.0
O234 O 0.35967 0.69383 0.12232 0.0
O235 O 0.34145 0.66235 0.13902 0.0
C236 C 0.37176 0.69106 0.20549 0.0
C237 C 0.34647 0.67461 0.11999 0.0
C238 C 0.38662 0.80639 0.44405 0.0
C239 C 0.40439 0.75847 0.36979 0.0
O240 O 0.38067 0.81752 0.42419 0.0
Zn241 Zn 0.38269 0.81124 0.38553 0.0
O242 O 0.39704 0.78559 0.44272 0.0
Zn243 Zn 0.39739 0.78187 0.4072 0.0
O244 O 0.42391 0.80763 0.39462 0.0
O245 O 0.40452 0.83648 0.37387 0.0
O246 O 0.40846 0.75145 0.39175 0.0
O247 O 0.39555 0.77983 0.36573 0.0
O248 O 0.34843 0.81049 0.37522 0.0
O249 O 0.35974 0.77882 0.39767 0.0
C250 C 0.42443 0.8274 0.382 0.0
C251 C 0.34331 0.79013 0.38522 0.0
C252 C 0.21471 0.84233 0.88138 0.0
C253 C 0.17805 0.92536 0.88381 0.0
O254 O 0.22795 0.85902 0.8912 0.0
Zn255 Zn 0.22747 0.89691 0.89912 0.0
O256 O 0.19365 0.84778 0.87284 0.0
Zn257 Zn 0.19399 0.88292 0.88195 0.0
O258 O 0.2201 0.89649 0.85763 0.0
O259 O 0.25291 0.90958 0.87745 0.0
O260 O 0.16735 0.90634 0.87531 0.0
O261 O 0.19956 0.92334 0.89301 0.0
O262 O 0.23029 0.89614 0.93487 0.0
O263 O 0.1949 0.8821 0.92091 0.0
C264 C 0.24124 0.90625 0.85731 0.0
C265 C 0.20926 0.88724 0.9389 0.0
C266 C 0.18519 0.69865 0.36801 0.0
C267 C 0.10783 0.65355 0.36802 0.0
O268 O 0.16743 0.70984 0.37821 0.0
Zn269 Zn 0.13044 0.7043 0.38752 0.0
O270 O 0.18238 0.6767 0.36043 0.0
Zn271 Zn 0.14806 0.67363 0.36957 0.0
O272 O 0.13201 0.70035 0.34602 0.0
O273 O 0.11518 0.73015 0.3676 0.0
O274 O 0.12807 0.64533 0.36017 0.0
O275 O 0.1071 0.67445 0.37878 0.0
O276 O 0.13183 0.70549 0.42331 0.0
O277 O 0.15076 0.67294 0.40875 0.0
C278 C 0.12016 0.72057 0.34684 0.0
C279 C 0.14429 0.68613 0.42712 0.0
C280 C 0.29668 0.62978 0.94551 0.0
C281 C 0.27479 0.61131 0.85876 0.0
O282 O 0.31222 0.63635 0.92944 0.0
Zn283 Zn 0.31747 0.63631 0.89073 0.0
O284 O 0.27681 0.61976 0.93841 0.0
Zn285 Zn 0.28318 0.62047 0.90282 0.0
O286 O 0.31304 0.59558 0.90015 0.0
O287 O 0.34604 0.61473 0.88771 0.0
O288 O 0.26089 0.60762 0.87697 0.0
O289 O 0.29545 0.62159 0.86227 0.0
O290 O 0.31717 0.67147 0.88242 0.0
O291 O 0.28169 0.65853 0.8958 0.0
C292 C 0.33561 0.59502 0.89432 0.0
C293 C 0.2951 0.67592 0.88807 0.0
C294 C 0.10163 0.86357 0.15322 0.0
C295 C 0.18545 0.83237 0.16392 0.0
O296 O 0.10536 0.8419 0.14499 0.0
Zn297 Zn 0.13366 0.81568 0.14171 0.0
O298 O 0.1194 0.87569 0.16241 0.0
Zn299 Zn 0.14453 0.85043 0.15821 0.0
O300 O 0.14828 0.84839 0.11952 0.0
O301 O 0.13774 0.8115 0.10643 0.0
O302 O 0.17884 0.85418 0.16908 0.0
O303 O 0.17017 0.81754 0.15408 0.0
O304 O 0.12133 0.78978 0.16271 0.0
O305 O 0.13182 0.82331 0.18306 0.0
C306 C 0.1456 0.83291 0.10197 0.0
C307 C 0.1235 0.80141 0.18298 0.0
C308 C 0.23487 0.6148 0.68006 0.0
C309 C 0.20676 0.64188 0.59766 0.0
O310 O 0.21508 0.62723 0.67937 0.0
Zn311 Zn 0.19182 0.64592 0.65446 0.0
O312 O 0.24671 0.61101 0.66036 0.0
Zn313 Zn 0.22359 0.62795 0.63797 0.0
O314 O 0.2294 0.66438 0.64916 0.0
O315 O 0.19624 0.68031 0.66527 0.0
O316 O 0.22635 0.62988 0.60194 0.0
O317 O 0.19338 0.64838 0.61568 0.0
O318 O 0.16214 0.62626 0.65889 0.0
O319 O 0.19234 0.60573 0.64179 0.0
C320 C 0.21854 0.68247 0.65929 0.0
C321 C 0.17051 0.60637 0.64981 0.0
C322 C 0.32203 0.83499 0.668 0.0
C323 C 0.37494 0.90792 0.66912 0.0
O324 O 0.31287 0.85401 0.65775 0.0
Zn325 Zn 0.32229 0.89057 0.64899 0.0
O326 O 0.34393 0.83568 0.67611 0.0
Zn327 Zn 0.35109 0.86973 0.6673 0.0
O328 O 0.32686 0.88873 0.69042 0.0
O329 O 0.29873 0.90884 0.66922 0.0
O330 O 0.38107 0.8869 0.67727 0.0
O331 O 0.35439 0.91063 0.65801 0.0
O332 O 0.32158 0.89016 0.61308 0.0
O333 O 0.35218 0.86847 0.62829 0.0
C334 C 0.30836 0.90302 0.68984 0.0
C335 C 0.34016 0.87656 0.60968 0.0
H336 H 0.16844 0.22213 0.81772 0.0
H337 H 0.14286 0.19397 0.74775 0.0
H338 H 0.16998 0.26334 0.80018 0.0
H339 H 0.14381 0.23477 0.73061 0.0
H340 H 0.16034 0.31056 0.70118 0.0
H341 H 0.16779 0.26942 0.71767 0.0
H342 H 0.13925 0.29262 0.78766 0.0
H343 H 0.13227 0.33321 0.77161 0.0
C344 C 0.16338 0.22466 0.79861 0.0
C345 C 0.15521 0.2048 0.7843 0.0
C346 C 0.16413 0.24826 0.78856 0.0
C347 C 0.15681 0.25243 0.76399 0.0
C348 C 0.14979 0.23231 0.74946 0.0
C349 C 0.149 0.20887 0.75947 0.0
C350 C 0.15573 0.30681 0.72007 0.0
C351 C 0.14559 0.3252 0.73494 0.0
C352 C 0.16001 0.28327 0.72956 0.0
C353 C 0.15429 0.27774 0.75411 0.0
C354 C 0.14438 0.29627 0.7689 0.0
C355 C 0.14011 0.31958 0.75949 0.0
H356 H 0.69069 0.65718 0.27083 0.0
H357 H 0.71553 0.63048 0.20073 0.0
H358 H 0.73265 0.65678 0.28641 0.0
H359 H 0.75707 0.6286 0.21647 0.0
H360 H 0.83302 0.64989 0.24209 0.0
H361 H 0.79101 0.65103 0.22696 0.0
H362 H 0.76561 0.63395 0.29978 0.0
H363 H 0.80745 0.63432 0.31496 0.0
C364 C 0.70508 0.65087 0.25888 0.0
C365 C 0.69978 0.64402 0.23452 0.0
C366 C 0.72923 0.6505 0.26781 0.0
C367 C 0.74863 0.64278 0.25274 0.0
C368 C 0.743 0.63532 0.22855 0.0
C369 C 0.71902 0.63617 0.21953 0.0
C370 C 0.81842 0.6464 0.25481 0.0
C371 C 0.82362 0.64211 0.27972 0.0
C372 C 0.79422 0.64687 0.24613 0.0
C373 C 0.77455 0.64255 0.26205 0.0
C374 C 0.77996 0.63792 0.28694 0.0
C375 C 0.80409 0.63792 0.29566 0.0
H376 H 0.40124 0.31933 0.77747 0.0
H377 H 0.3762 0.29696 0.84879 0.0
H378 H 0.40109 0.27712 0.76368 0.0
H379 H 0.37555 0.25416 0.83461 0.0
H380 H 0.40066 0.17733 0.80393 0.0
H381 H 0.40077 0.21894 0.8212 0.0
H382 H 0.37183 0.24668 0.75264 0.0
H383 H 0.37222 0.20564 0.7354 0.0
C384 C 0.39559 0.3054 0.79027 0.0
C385 C 0.38852 0.31173 0.81425 0.0
C386 C 0.39536 0.28106 0.78225 0.0
C387 C 0.38793 0.26211 0.79783 0.0
C388 C 0.38144 0.26824 0.82209 0.0
C389 C 0.38172 0.29279 0.83021 0.0
C390 C 0.39425 0.19234 0.79261 0.0
C391 C 0.38668 0.18807 0.76815 0.0
C392 C 0.39421 0.2162 0.80255 0.0
C393 C 0.38661 0.23633 0.78826 0.0
C394 C 0.37837 0.23182 0.76408 0.0
C395 C 0.37847 0.20814 0.75419 0.0
H396 H 0.68896 0.91495 0.24655 0.0
H397 H 0.70661 0.85638 0.29689 0.0
H398 H 0.72894 0.91093 0.22812 0.0
H399 H 0.74702 0.85246 0.27827 0.0
H400 H 0.80863 0.83972 0.22059 0.0
H401 H 0.76638 0.84081 0.23567 0.0
H402 H 0.77137 0.91934 0.24424 0.0
H403 H 0.81309 0.91816 0.22957 0.0
C404 C 0.70144 0.90127 0.25378 0.0
C405 C 0.69471 0.88611 0.27333 0.0
C406 C 0.7243 0.89895 0.24315 0.0
C407 C 0.74097 0.8813 0.25168 0.0
C408 C 0.73433 0.86601 0.27118 0.0
C409 C 0.71141 0.8685 0.28204 0.0
C410 C 0.80033 0.85716 0.22519 0.0
C411 C 0.81383 0.87888 0.22381 0.0
C412 C 0.77641 0.85777 0.23408 0.0
C413 C 0.76573 0.88016 0.24119 0.0
C414 C 0.77906 0.90187 0.23875 0.0
C415 C 0.80289 0.9012 0.23033 0.0
H416 H 0.82472 0.17965 0.23109 0.0
H417 H 0.81752 0.10386 0.20953 0.0
H418 H 0.8135 0.16883 0.27328 0.0
H419 H 0.80691 0.09298 0.25136 0.0
H420 H 0.74228 0.09978 0.30656 0.0
H421 H 0.76737 0.1039 0.27029 0.0
H422 H 0.82106 0.14399 0.3129 0.0
H423 H 0.79574 0.13939 0.34959 0.0
C424 C 0.82165 0.16062 0.23563 0.0
C425 C 0.82165 0.14261 0.21716 0.0
C426 C 0.81527 0.15438 0.25971 0.0
C427 C 0.80894 0.13009 0.2655 0.0
C428 C 0.81127 0.11188 0.24739 0.0
C429 C 0.8174 0.11811 0.22348 0.0
C430 C 0.7599 0.10858 0.30837 0.0
C431 C 0.76732 0.11888 0.33084 0.0
C432 C 0.77429 0.11104 0.28761 0.0
C433 C 0.79622 0.12432 0.28872 0.0
C434 C 0.80425 0.13369 0.31152 0.0
C435 C 0.78997 0.13078 0.33253 0.0
H436 H 0.85412 0.25822 0.69644 0.0
H437 H 0.92918 0.23687 0.68643 0.0
H438 H 0.85166 0.23237 0.73245 0.0
H439 H 0.92684 0.21064 0.72296 0.0
H440 H 0.9198 0.21607 0.80974 0.0
H441 H 0.92385 0.22434 0.76625 0.0
H442 H 0.85328 0.1918 0.75229 0.0
H443 H 0.8492 0.18355 0.79638 0.0
C444 C 0.86997 0.24746 0.70172 0.0
C445 C 0.89195 0.24974 0.68898 0.0
C446 C 0.86848 0.23241 0.72221 0.0
C447 C 0.88908 0.21952 0.73069 0.0
C448 C 0.91069 0.22049 0.71692 0.0
C449 C 0.91206 0.23538 0.69603 0.0
C450 C 0.90532 0.21023 0.79733 0.0
C451 C 0.88395 0.19962 0.80644 0.0
C452 C 0.9078 0.21469 0.77232 0.0
C453 C 0.88884 0.2089 0.75579 0.0
C454 C 0.86814 0.19663 0.76465 0.0
C455 C 0.86579 0.19185 0.78982 0.0
H456 H 0.73654 0.39633 0.33803 0.0
H457 H 0.80378 0.42865 0.31415 0.0
H458 H 0.72153 0.39564 0.2956 0.0
H459 H 0.78856 0.42924 0.27199 0.0
H460 H 0.76883 0.39632 0.19682 0.0
H461 H 0.78221 0.40219 0.23939 0.0
H462 H 0.70756 0.41563 0.26052 0.0
H463 H 0.69429 0.40859 0.21841 0.0
C464 C 0.74771 0.40414 0.32381 0.0
C465 C 0.77126 0.41259 0.32938 0.0
C466 C 0.73919 0.4037 0.29938 0.0
C467 C 0.75395 0.41203 0.28004 0.0
C468 C 0.77689 0.42198 0.28608 0.0
C469 C 0.7855 0.42201 0.31035 0.0
C470 C 0.75537 0.40064 0.21058 0.0
C471 C 0.73051 0.40176 0.20422 0.0
C472 C 0.763 0.40418 0.23505 0.0
C473 C 0.74599 0.40934 0.2537 0.0
C474 C 0.72121 0.41116 0.247 0.0
C475 C 0.71359 0.40726 0.22271 0.0
H476 H 0.6095 0.28759 0.67547 0.0
H477 H 0.60842 0.21602 0.70882 0.0
H478 H 0.61086 0.30643 0.71643 0.0
H479 H 0.61071 0.23449 0.74923 0.0
H480 H 0.6045 0.27393 0.82177 0.0
H481 H 0.59339 0.25785 0.78117 0.0
H482 H 0.64151 0.31021 0.74765 0.0
H483 H 0.65189 0.32663 0.78787 0.0
C484 C 0.60906 0.27593 0.69149 0.0
C485 C 0.60915 0.25035 0.68888 0.0
C486 C 0.61015 0.28666 0.71497 0.0
C487 C 0.61132 0.27198 0.73624 0.0
C488 C 0.6097 0.24646 0.73346 0.0
C489 C 0.60857 0.23583 0.71015 0.0
C490 C 0.61272 0.28191 0.80571 0.0
C491 C 0.62917 0.30146 0.80811 0.0
C492 C 0.60633 0.27276 0.7824 0.0
C493 C 0.61641 0.28282 0.76099 0.0
C494 C 0.63289 0.30234 0.76355 0.0
C495 C 0.6391 0.31157 0.78673 0.0
H496 H 0.33094 0.78201 0.13503 0.0
H497 H 0.30776 0.73661 0.19499 0.0
H498 H 0.29508 0.80834 0.1407 0.0
H499 H 0.27288 0.76332 0.20147 0.0
H500 H 0.19681 0.78621 0.17615 0.0
H501 H 0.23651 0.76717 0.17818 0.0
H502 H 0.27053 0.83724 0.16556 0.0
H503 H 0.22983 0.8565 0.16291 0.0
C504 C 0.31846 0.77798 0.14972 0.0
C505 C 0.32177 0.75695 0.16419 0.0
C506 C 0.29804 0.79316 0.15312 0.0
C507 C 0.28083 0.78771 0.17127 0.0
C508 C 0.28535 0.7677 0.18687 0.0
C509 C 0.30536 0.75237 0.18317 0.0
C510 C 0.21272 0.79773 0.17415 0.0
C511 C 0.21021 0.82283 0.16926 0.0
C512 C 0.23561 0.7868 0.17553 0.0
C513 C 0.25685 0.80063 0.17213 0.0
C514 C 0.2545 0.82605 0.16813 0.0
C515 C 0.2313 0.83713 0.16687 0.0
H516 H 0.30408 0.80547 0.35697 0.0
H517 H 0.32897 0.74639 0.40364 0.0
H518 H 0.26629 0.78289 0.3485 0.0
H519 H 0.29157 0.72422 0.39532 0.0
H520 H 0.23121 0.67976 0.36071 0.0
H521 H 0.26976 0.70244 0.36183 0.0
H522 H 0.22999 0.77017 0.37153 0.0
H523 H 0.19183 0.74778 0.37012 0.0
C524 C 0.30146 0.78783 0.36553 0.0
C525 C 0.31953 0.77784 0.38105 0.0
C526 C 0.27989 0.77485 0.36062 0.0
C527 C 0.2761 0.75161 0.37101 0.0
C528 C 0.29413 0.7418 0.38659 0.0
C529 C 0.31549 0.75473 0.39159 0.0
C530 C 0.23077 0.69951 0.36268 0.0
C531 C 0.20854 0.71191 0.36566 0.0
C532 C 0.25278 0.71249 0.36346 0.0
C533 C 0.2529 0.7381 0.36698 0.0
C534 C 0.23056 0.75053 0.36864 0.0
C535 C 0.20869 0.7376 0.36806 0.0
H536 H 0.2402 0.82081 0.91792 0.0
H537 H 0.21195 0.8071 0.84483 0.0
H538 H 0.25996 0.78071 0.91804 0.0
H539 H 0.23255 0.76676 0.84475 0.0
H540 H 0.30547 0.71303 0.8555 0.0
H541 H 0.28438 0.7529 0.8519 0.0
H542 H 0.23912 0.73429 0.91321 0.0
H543 H 0.25948 0.69466 0.91648 0.0
C544 C 0.23816 0.80913 0.90188 0.0
C545 C 0.22439 0.81698 0.88143 0.0
C546 C 0.24955 0.78625 0.90195 0.0
C547 C 0.24796 0.77083 0.88134 0.0
C548 C 0.23419 0.7785 0.86078 0.0
C549 C 0.22221 0.80135 0.86093 0.0
C550 C 0.29108 0.71757 0.8682 0.0
C551 C 0.28418 0.70076 0.88631 0.0
C552 C 0.27887 0.74018 0.86597 0.0
C553 C 0.26001 0.74646 0.88216 0.0
C554 C 0.25348 0.72981 0.90042 0.0
C555 C 0.26522 0.70717 0.90231 0.0
H556 H 0.26731 0.68822 0.65381 0.0
H557 H 0.20268 0.72796 0.67549 0.0
H558 H 0.29155 0.72478 0.65908 0.0
H559 H 0.22744 0.76499 0.68128 0.0
H560 H 0.27436 0.83009 0.65421 0.0
H561 H 0.24897 0.79385 0.65551 0.0
H562 H 0.30853 0.75325 0.68852 0.0
H563 H 0.33435 0.78968 0.68675 0.0
C564 C 0.25821 0.70477 0.6599 0.0
C565 C 0.23288 0.70513 0.664 0.0
C566 C 0.27229 0.72576 0.6632 0.0
C567 C 0.26156 0.74788 0.67069 0.0
C568 C 0.23627 0.74827 0.67528 0.0
C569 C 0.22208 0.72707 0.67206 0.0
C570 C 0.28214 0.8135 0.66186 0.0
C571 C 0.30658 0.81278 0.67014 0.0
C572 C 0.26739 0.79273 0.66283 0.0
C573 C 0.27662 0.77058 0.67209 0.0
C574 C 0.30089 0.76996 0.68098 0.0
C575 C 0.31571 0.79084 0.68004 0.0
H576 H 0.89209 0.85311 0.31043 0.0
H577 H 0.91152 0.81666 0.24286 0.0
H578 H 0.89355 0.81345 0.33181 0.0
H579 H 0.91249 0.77773 0.26364 0.0
H580 H 0.92904 0.7116 0.30422 0.0
H581 H 0.93478 0.75415 0.29283 0.0
H582 H 0.86996 0.77432 0.33258 0.0
H583 H 0.8649 0.7314 0.34498 0.0
C584 C 0.89707 0.83677 0.30028 0.0
C585 C 0.90169 0.83804 0.27495 0.0
C586 C 0.89767 0.81405 0.31243 0.0
C587 C 0.90325 0.79233 0.29951 0.0
C588 C 0.90859 0.79398 0.2744 0.0
C589 C 0.90784 0.81641 0.26236 0.0
C590 C 0.91627 0.72519 0.31095 0.0
C591 C 0.89634 0.71817 0.32519 0.0
C592 C 0.91948 0.7496 0.30432 0.0
C593 C 0.90249 0.76764 0.31123 0.0
C594 C 0.88342 0.76093 0.32695 0.0
C595 C 0.88045 0.73636 0.334 0.0
H596 H 0.18798 0.39635 0.79908 0.0
H597 H 0.20486 0.4316 0.73077 0.0
H598 H 0.23145 0.39383 0.80918 0.0
H599 H 0.2481 0.43055 0.74122 0.0
H600 H 0.32426 0.39809 0.75093 0.0
H601 H 0.28079 0.40393 0.74259 0.0
H602 H 0.26801 0.41161 0.82048 0.0
H603 H 0.31104 0.40439 0.82865 0.0
C604 C 0.20098 0.40436 0.78666 0.0
C605 C 0.19304 0.41423 0.76421 0.0
C606 C 0.22601 0.40289 0.79235 0.0
C607 C 0.24368 0.41164 0.77587 0.0
C608 C 0.23537 0.42288 0.7541 0.0
C609 C 0.21048 0.42388 0.74825 0.0
C610 C 0.31211 0.40103 0.76621 0.0
C611 C 0.32114 0.40056 0.79043 0.0
C612 C 0.28711 0.4046 0.76149 0.0
C613 C 0.27052 0.40831 0.78085 0.0
C614 C 0.27984 0.40831 0.80504 0.0
C615 C 0.30468 0.4043 0.80974 0.0
H616 H 0.65388 0.83486 0.24429 0.0
H617 H 0.58225 0.8443 0.21198 0.0
H618 H 0.65935 0.79699 0.22122 0.0
H619 H 0.58753 0.80564 0.18899 0.0
H620 H 0.59737 0.71824 0.19704 0.0
H621 H 0.5909 0.76156 0.20605 0.0
H622 H 0.66231 0.77792 0.17804 0.0
H623 H 0.66857 0.73422 0.16851 0.0
C624 C 0.63938 0.82891 0.23196 0.0
C625 C 0.61752 0.84235 0.23008 0.0
C626 C 0.64264 0.80733 0.21855 0.0
C627 C 0.62392 0.79833 0.20323 0.0
C628 C 0.60229 0.8122 0.20064 0.0
C629 C 0.59925 0.83427 0.21372 0.0
C630 C 0.61144 0.7312 0.1922 0.0
C631 C 0.63352 0.72294 0.18219 0.0
C632 C 0.60765 0.75603 0.19721 0.0
C633 C 0.62609 0.77316 0.19281 0.0
C634 C 0.64777 0.76508 0.18162 0.0
C635 C 0.65135 0.74017 0.17608 0.0
H636 H 0.31884 0.08417 0.73892 0.0
H637 H 0.3007 0.14736 0.69507 0.0
H638 H 0.27576 0.07634 0.74522 0.0
H639 H 0.25733 0.14062 0.70269 0.0
H640 H 0.1786 0.12128 0.71617 0.0
H641 H 0.21991 0.11833 0.69924 0.0
H642 H 0.24704 0.0943 0.77008 0.0
H643 H 0.20634 0.09634 0.78619 0.0
C644 C 0.30554 0.09643 0.73066 0.0
C645 C 0.31309 0.1166 0.71687 0.0
C646 C 0.28079 0.09203 0.73433 0.0
C647 C 0.26288 0.10816 0.72498 0.0
C648 C 0.27046 0.12768 0.71007 0.0
C649 C 0.29533 0.13171 0.70586 0.0
C650 C 0.19337 0.11453 0.72769 0.0
C651 C 0.18931 0.10908 0.75248 0.0
C652 C 0.21709 0.11319 0.71817 0.0
C653 C 0.23704 0.10625 0.73328 0.0
C654 C 0.23236 0.09934 0.75761 0.0
C655 C 0.20891 0.10067 0.76699 0.0
H656 H 0.26429 0.92546 0.70024 0.0
H657 H 0.33204 0.90121 0.7336 0.0
H658 H 0.24837 0.93456 0.7412 0.0
H659 H 0.31606 0.90903 0.77383 0.0
H660 H 0.28608 0.92634 0.84656 0.0
H661 H 0.30225 0.93438 0.80566 0.0
H662 H 0.23457 0.90915 0.77288 0.0
H663 H 0.21834 0.90224 0.81309 0.0
C664 C 0.27583 0.92234 0.71621 0.0
C665 C 0.29914 0.91205 0.71367 0.0
C666 C 0.26674 0.92742 0.73969 0.0
C667 C 0.28079 0.92218 0.76095 0.0
C668 C 0.3047 0.91355 0.75809 0.0
C669 C 0.31375 0.90867 0.73483 0.0
C670 C 0.27463 0.92288 0.83057 0.0
C671 C 0.25113 0.9132 0.83314 0.0
C672 C 0.28385 0.92744 0.80712 0.0
C673 C 0.2698 0.92222 0.78584 0.0
C674 C 0.24588 0.91377 0.78866 0.0
C675 C 0.23668 0.90942 0.81192 0.0
H676 H 0.10331 0.7676 0.33851 0.0
H677 H 0.1224 0.70015 0.30147 0.0
H678 H 0.09801 0.78754 0.29858 0.0
H679 H 0.11814 0.72 0.26218 0.0
H680 H 0.10145 0.75703 0.19149 0.0
H681 H 0.09383 0.73819 0.2313 0.0
H682 H 0.12501 0.80138 0.26792 0.0
H683 H 0.13166 0.82039 0.22858 0.0
C684 C 0.10609 0.75698 0.32192 0.0
C685 C 0.11364 0.73243 0.32322 0.0
C686 C 0.10323 0.7684 0.29903 0.0
C687 C 0.1079 0.75547 0.27706 0.0
C688 C 0.1141 0.73056 0.27853 0.0
C689 C 0.11684 0.71921 0.30123 0.0
C690 C 0.10641 0.76694 0.20808 0.0
C691 C 0.11739 0.79008 0.2068 0.0
C692 C 0.1021 0.75616 0.23092 0.0
C693 C 0.10891 0.76819 0.25293 0.0
C694 C 0.11912 0.79168 0.25152 0.0
C695 C 0.1232 0.80249 0.22881 0.0
H696 H 0.22967 0.61294 0.83616 0.0
H697 H 0.30512 0.59489 0.82352 0.0
H698 H 0.2211 0.60891 0.79217 0.0
H699 H 0.29658 0.58963 0.77991 0.0
H700 H 0.27998 0.61905 0.70183 0.0
H701 H 0.28938 0.6138 0.74548 0.0
H702 H 0.21691 0.58516 0.7567 0.0
H703 H 0.20742 0.5917 0.71343 0.0
C704 C 0.24423 0.60739 0.82406 0.0
C705 C 0.26805 0.60441 0.83323 0.0
C706 C 0.2394 0.60501 0.79876 0.0
C707 C 0.25823 0.59921 0.78217 0.0
C708 C 0.28172 0.59476 0.79181 0.0
C709 C 0.28658 0.59754 0.81691 0.0
C710 C 0.26641 0.61098 0.71357 0.0
C711 C 0.24305 0.60572 0.70431 0.0
C712 C 0.27168 0.60799 0.73868 0.0
C713 C 0.25377 0.59937 0.75495 0.0
C714 C 0.23098 0.59248 0.74507 0.0
C715 C 0.22563 0.59587 0.72016 0.0
H716 H 0.39161 0.71011 0.36515 0.0
H717 H 0.4224 0.77084 0.32594 0.0
H718 H 0.38693 0.68737 0.32626 0.0
H719 H 0.41768 0.74867 0.28753 0.0
H720 H 0.41648 0.70494 0.221 0.0
H721 H 0.42979 0.71465 0.26266 0.0
H722 H 0.35957 0.69245 0.28985 0.0
H723 H 0.34658 0.68173 0.24785 0.0
C724 C 0.39818 0.71818 0.34836 0.0
C725 C 0.40751 0.74211 0.34845 0.0
C726 C 0.39519 0.70536 0.32609 0.0
C727 C 0.40182 0.71621 0.30374 0.0
C728 C 0.41267 0.73952 0.30433 0.0
C729 C 0.41537 0.75231 0.32636 0.0
C730 C 0.40402 0.70174 0.23594 0.0
C731 C 0.38034 0.69306 0.23122 0.0
C732 C 0.41164 0.70732 0.25981 0.0
C733 C 0.3956 0.70483 0.27956 0.0
C734 C 0.37243 0.69448 0.27507 0.0
C735 C 0.36491 0.68848 0.25105 0.0
H736 H 0.73913 0.35453 0.8396 0.0
H737 H 0.71086 0.3064 0.89511 0.0
H738 H 0.77942 0.3346 0.84403 0.0
H739 H 0.75039 0.28714 0.89958 0.0
H740 H 0.80871 0.23476 0.87537 0.0
H741 H 0.77228 0.25956 0.87094 0.0
H742 H 0.81557 0.32535 0.8752 0.0
H743 H 0.85274 0.3002 0.87948 0.0
C744 C 0.74154 0.34 0.85288 0.0
C745 C 0.72163 0.33172 0.86659 0.0
C746 C 0.76457 0.32866 0.85547 0.0
C747 C 0.76793 0.30897 0.87183 0.0
C748 C 0.7483 0.30181 0.88639 0.0
C749 C 0.72556 0.31293 0.88378 0.0
C750 C 0.81068 0.25449 0.87541 0.0
C751 C 0.83374 0.26543 0.87804 0.0
C752 C 0.78968 0.26875 0.87291 0.0
C753 C 0.79098 0.29445 0.87295 0.0
C754 C 0.81402 0.30558 0.87505 0.0
C755 C 0.83524 0.29119 0.8777 0.0
H756 H 0.82369 0.25952 0.62974 0.0
H757 H 0.79334 0.31589 0.67644 0.0
H758 H 0.78581 0.23688 0.6314 0.0
H759 H 0.75513 0.29285 0.6782 0.0
H760 H 0.68384 0.26074 0.6445 0.0
H761 H 0.72218 0.28223 0.64907 0.0
H762 H 0.75969 0.21331 0.65959 0.0
H763 H 0.72082 0.19144 0.65471 0.0
C764 C 0.80892 0.26716 0.64039 0.0
C765 C 0.81152 0.28972 0.6528 0.0
C766 C 0.78726 0.25393 0.64157 0.0
C767 C 0.76754 0.26292 0.65508 0.0
C768 C 0.77003 0.28549 0.66754 0.0
C769 C 0.79185 0.29873 0.66648 0.0
C770 C 0.7002 0.25003 0.64787 0.0
C771 C 0.69933 0.22428 0.64889 0.0
C772 C 0.72218 0.26247 0.65077 0.0
C773 C 0.74398 0.24953 0.65465 0.0
C774 C 0.74315 0.22377 0.65639 0.0
C775 C 0.72095 0.21124 0.6537 0.0
H776 H 0.71631 0.31736 0.11141 0.0
H777 H 0.67464 0.29865 0.17538 0.0
H778 H 0.73339 0.27635 0.1102 0.0
H779 H 0.69213 0.25685 0.17411 0.0
H780 H 0.72296 0.17816 0.1426 0.0
H781 H 0.69794 0.21577 0.14372 0.0
H782 H 0.76345 0.25929 0.14343 0.0
H783 H 0.78817 0.22241 0.14243 0.0
C784 C 0.71052 0.30431 0.12508 0.0
C785 C 0.69445 0.31138 0.14377 0.0
C786 C 0.72033 0.28079 0.12434 0.0
C787 C 0.71444 0.26356 0.14229 0.0
C788 C 0.69697 0.26986 0.16005 0.0
C789 C 0.68698 0.2937 0.16078 0.0
C790 C 0.73194 0.19579 0.14279 0.0
C791 C 0.7576 0.19723 0.14222 0.0
C792 C 0.71763 0.21725 0.14362 0.0
C793 C 0.72877 0.24041 0.14351 0.0
C794 C 0.75434 0.2417 0.14329 0.0
C795 C 0.76852 0.22048 0.14274 0.0
H796 H 0.76384 0.33669 0.364 0.0
H797 H 0.83355 0.29959 0.36511 0.0
H798 H 0.74307 0.29795 0.35913 0.0
H799 H 0.81246 0.26017 0.35969 0.0
H800 H 0.76303 0.19762 0.3887 0.0
H801 H 0.78655 0.23507 0.38591 0.0
H802 H 0.73477 0.2634 0.33272 0.0
H803 H 0.7108 0.22587 0.33584 0.0
C804 C 0.7748 0.32017 0.3629 0.0
C805 C 0.80036 0.32115 0.36532 0.0
C806 C 0.76282 0.29792 0.35982 0.0
C807 C 0.77603 0.2759 0.35912 0.0
C808 C 0.80175 0.27685 0.36045 0.0
C809 C 0.81385 0.29935 0.36337 0.0
C810 C 0.75656 0.2118 0.37638 0.0
C811 C 0.7348 0.20883 0.3627 0.0
C812 C 0.7703 0.23318 0.37456 0.0
C813 C 0.76266 0.25221 0.35902 0.0
C814 C 0.74107 0.24915 0.34504 0.0
C815 C 0.72728 0.22769 0.34686 0.0
H816 H 0.18048 0.56506 0.62402 0.0
H817 H 0.13065 0.59413 0.6777 0.0
H818 H 0.16658 0.52407 0.63216 0.0
H819 H 0.1155 0.55272 0.68505 0.0
H820 H 0.12858 0.47754 0.72097 0.0
H821 H 0.13131 0.51908 0.70629 0.0
H822 H 0.1389 0.49202 0.63198 0.0
H823 H 0.13733 0.44996 0.6471 0.0
C824 C 0.16598 0.56276 0.63714 0.0
C825 C 0.15705 0.58287 0.65062 0.0
C826 C 0.15778 0.53908 0.64166 0.0
C827 C 0.14018 0.53479 0.65964 0.0
C828 C 0.12958 0.5552 0.67153 0.0
C829 C 0.13801 0.57902 0.66713 0.0
C830 C 0.13065 0.48034 0.70143 0.0
C831 C 0.13304 0.46033 0.68524 0.0
C832 C 0.13192 0.50435 0.69292 0.0
C833 C 0.13534 0.50918 0.66787 0.0
C834 C 0.13668 0.48912 0.65147 0.0
C835 C 0.13573 0.46496 0.66008 0.0
H836 H 0.42948 0.64957 0.17605 0.0
H837 H 0.45777 0.70952 0.13353 0.0
H838 H 0.471 0.63721 0.18705 0.0
H839 H 0.49926 0.69705 0.14453 0.0
H840 H 0.57 0.65433 0.14977 0.0
H841 H 0.52804 0.66223 0.13764 0.0
H842 H 0.50574 0.655 0.21298 0.0
H843 H 0.54821 0.647 0.22541 0.0
C844 C 0.44454 0.65988 0.16868 0.0
C845 C 0.44028 0.68051 0.15378 0.0
C846 C 0.46831 0.65292 0.17525 0.0
C847 C 0.48836 0.66622 0.1668 0.0
C848 C 0.48416 0.68633 0.15122 0.0
C849 C 0.46039 0.69347 0.14489 0.0
C850 C 0.55624 0.65423 0.16387 0.0
C851 C 0.56258 0.65018 0.18867 0.0
C852 C 0.53216 0.65889 0.15684 0.0
C853 C 0.51364 0.65949 0.17435 0.0
C854 C 0.51967 0.65455 0.19906 0.0
C855 C 0.54396 0.65003 0.20619 0.0
H856 H 0.40226 0.91768 0.71071 0.0
H857 H 0.37673 0.94963 0.64279 0.0
H858 H 0.41408 0.95845 0.72572 0.0
H859 H 0.38762 0.98996 0.65772 0.0
H860 H 0.41351 0.06127 0.68325 0.0
H861 H 0.41656 0.01905 0.66923 0.0
H862 H 0.39269 0.99417 0.74021 0.0
H863 H 0.39091 0.03672 0.7546 0.0
C864 C 0.39995 0.93328 0.69868 0.0
C865 C 0.3886 0.93047 0.67556 0.0
C866 C 0.40632 0.95671 0.70742 0.0
C867 C 0.40158 0.9777 0.69312 0.0
C868 C 0.3919 0.97442 0.66928 0.0
C869 C 0.38556 0.95118 0.66065 0.0
C870 C 0.40924 0.04675 0.69598 0.0
C871 C 0.4016 0.05231 0.71991 0.0
C872 C 0.41089 0.02249 0.68792 0.0
C873 C 0.40439 1.00305 0.70336 0.0
C874 C 0.39802 1.00857 0.7278 0.0
C875 C 0.39682 0.03296 0.73604 0.0
H876 H 0.06191 0.84305 0.13126 0.0
H877 H 0.08324 0.90369 0.17797 0.0
H878 H 0.0195 0.85136 0.13933 0.0
H879 H 0.04021 0.91292 0.18522 0.0
H880 H 0.94233 0.87462 0.14971 0.0
H881 H 0.98437 0.87522 0.13547 0.0
H882 H 1.00903 0.89524 0.20857 0.0
H883 H 0.96714 0.89572 0.22233 0.0
C884 C 0.05753 0.85862 0.14283 0.0
C885 C 0.07607 0.87247 0.15431 0.0
C886 C 0.03302 0.86354 0.1473 0.0
C887 C 0.02624 0.88265 0.16321 0.0
C888 C 0.04474 0.89767 0.17331 0.0
C889 C 0.06943 0.89259 0.16895 0.0
C890 C 0.95676 0.87928 0.16264 0.0
C891 C 0.95139 0.88493 0.18717 0.0
C892 C 0.98091 0.8796 0.15453 0.0
C893 C 1.00028 0.88522 0.17086 0.0
C894 C 0.99471 0.8913 0.19528 0.0
C895 C 0.97061 0.8913 0.20327 0.0
H896 H 0.13597 0.93999 0.8594 0.0
H897 H 0.19698 0.96778 0.90192 0.0
H898 H 0.1233 0.98205 0.85039 0.0
H899 H 0.18529 1.00921 0.89202 0.0
H900 H 0.15701 0.08459 0.87849 0.0
H901 H 0.15997 0.04316 0.8951 0.0
H902 H 0.13625 0.01362 0.82499 0.0
H903 H 0.13219 0.05469 0.80903 0.0
C904 C 0.1465 0.955 0.86706 0.0
C905 C 0.16764 0.95041 0.88114 0.0
C906 C 0.13942 0.97917 0.8617 0.0
C907 C 0.15345 0.99926 0.87013 0.0
C908 C 0.17377 0.99449 0.88534 0.0
C909 C 0.18065 0.97051 0.89086 0.0
C910 C 0.15219 0.06921 0.86678 0.0
C911 C 0.14452 0.07302 0.8424 0.0
C912 C 0.15397 0.04539 0.87624 0.0
C913 C 0.14849 0.02479 0.8614 0.0
C914 C 0.14021 0.02881 0.83723 0.0
C915 C 0.13812 0.05253 0.82795 0.0
H916 H 0.97584 0.64036 0.2854 0.0
H917 H 0.95385 0.61843 0.35785 0.0
H918 H 0.01874 0.63838 0.29865 0.0
H919 H 0.9963 0.61552 0.37077 0.0
H920 H 0.06629 0.65618 0.3941 0.0
H921 H 0.0254 0.64632 0.38006 0.0
H922 H 0.05446 0.61503 0.31344 0.0
H923 H 0.09586 0.62548 0.32759 0.0
C924 C 0.9802 0.6346 0.30395 0.0
C925 C 0.9615 0.63006 0.32073 0.0
C926 C 1.00476 0.6333 0.31153 0.0
C927 C 0.01101 0.62717 0.33594 0.0
C928 C 0.99222 0.62093 0.35205 0.0
C929 C 0.96783 0.62256 0.34462 0.0
C930 C 0.06406 0.64659 0.37674 0.0
C931 C 0.0843 0.64158 0.36198 0.0
C932 C 0.04054 0.64085 0.36866 0.0
C933 C 0.03651 0.62996 0.3455 0.0
C934 C 0.05689 0.62364 0.33125 0.0
C935 C 0.08062 0.62928 0.3395 0.0
H936 H 0.37996 0.58283 0.87399 0.0
H937 H 0.31929 0.55217 0.91314 0.0
H938 H 0.39659 0.54157 0.8681 0.0
H939 H 0.33524 0.51133 0.90659 0.0
H940 H 0.39265 0.46646 0.82848 0.0
H941 H 0.38548 0.50784 0.84265 0.0
H942 H 0.36493 0.48028 0.91369 0.0
H943 H 0.37143 0.43829 0.89904 0.0
C944 C 0.37037 0.56739 0.88164 0.0
C945 C 0.34813 0.57084 0.89373 0.0
C946 C 0.37977 0.54369 0.87811 0.0
C947 C 0.36712 0.52296 0.88659 0.0
C948 C 0.34568 0.52669 0.89997 0.0
C949 C 0.33637 0.55025 0.90352 0.0
C950 C 0.38679 0.46908 0.84723 0.0
C951 C 0.38228 0.4489 0.86251 0.0
C952 C 0.38294 0.49301 0.85548 0.0
C953 C 0.37454 0.49758 0.87933 0.0
C954 C 0.37107 0.47746 0.89507 0.0
C955 C 0.37489 0.45337 0.88674 0.0
H956 H 0.43343 0.86987 0.35674 0.0
H957 H 0.4697 0.8087 0.39171 0.0
H958 H 0.47277 0.8849 0.34275 0.0
H959 H 0.50866 0.82307 0.37704 0.0
H960 H 0.57887 0.86226 0.36137 0.0
H961 H 0.5398 0.85265 0.37991 0.0
H962 H 0.50251 0.87478 0.3132 0.0
H963 H 0.5414 0.88521 0.29513 0.0
C964 C 0.44977 0.8597 0.36156 0.0
C965 C 0.44833 0.83804 0.3753 0.0
C966 C 0.47235 0.8682 0.35337 0.0
C967 C 0.49402 0.85514 0.35856 0.0
C968 C 0.49254 0.83387 0.37293 0.0
C969 C 0.47006 0.82551 0.38125 0.0
C970 C 0.56231 0.8652 0.35074 0.0
C971 C 0.56332 0.87442 0.32673 0.0
C972 C 0.53986 0.85958 0.36132 0.0
C973 C 0.51786 0.86282 0.34808 0.0
C974 C 0.51893 0.8724 0.32418 0.0
C975 C 0.54133 0.87821 0.3137 0.0
H976 H 0.63261 0.2276 0.54023 0.0
H977 H 0.64831 0.15644 0.57104 0.0
H978 H 0.64717 0.21319 0.50028 0.0
H979 H 0.66223 0.14204 0.53141 0.0
H980 H 0.71357 0.13336 0.46688 0.0
H981 H 0.6966 0.14774 0.50546 0.0
H982 H 0.63932 0.18559 0.4657 0.0
H983 H 0.65666 0.17159 0.42696 0.0
C984 C 0.63885 0.20884 0.53844 0.0
C985 C 0.63946 0.19329 0.55895 0.0
C986 C 0.64715 0.20054 0.51552 0.0
C987 C 0.65619 0.17649 0.51263 0.0
C988 C 0.65597 0.16081 0.533 0.0
C989 C 0.6478 0.16908 0.55578 0.0
C990 C 0.69728 0.14463 0.46631 0.0
C991 C 0.68648 0.15122 0.44375 0.0
C992 C 0.68745 0.15283 0.4885 0.0
C993 C 0.66649 0.16781 0.48879 0.0
C994 C 0.65561 0.17432 0.46622 0.0
C995 C 0.66546 0.1661 0.44398 0.0
H996 H 0.87611 0.17894 0.08366 0.0
H997 H 0.80805 0.14577 0.06091 0.0
H998 H 0.88643 0.1855 0.04069 0.0
H999 H 0.81799 0.15289 0.01815 0.0
H1000 H 0.85164 0.14873 0.94241 0.0
H1001 H 0.84369 0.14027 0.98552 0.0
H1002 H 0.87566 0.20981 1.00588 0.0
H1003 H 0.88419 0.2179 0.96292 0.0
C1004 C 0.86332 0.17311 0.06954 0.0
C1005 C 0.84125 0.16181 0.07585 0.0
C1006 C 0.86916 0.17699 0.04483 0.0
C1007 C 0.85308 0.16974 0.02576 0.0
C1008 C 0.83106 0.15837 0.03217 0.0
C1009 C 0.82527 0.15444 0.05681 0.0
C1010 C 0.85708 0.16216 0.95608 0.0
C1011 C 0.86854 0.184 0.94908 0.0
C1012 C 0.85238 0.15739 0.98087 0.0
C1013 C 0.85892 0.17438 0.99937 0.0
C1014 C 0.87063 0.1961 0.99232 0.0
C1015 C 0.87539 0.20082 0.96757 0.0
H1016 H 0.89072 0.3058 0.5531 0.0
H1017 H 0.85262 0.36364 0.59131 0.0
H1018 H 0.87524 0.32138 0.51406 0.0
H1019 H 0.83751 0.37952 0.55216 0.0
H1020 H 0.79363 0.38399 0.47863 0.0
H1021 H 0.80916 0.37003 0.51862 0.0
H1022 H 0.87926 0.35497 0.48641 0.0
H1023 H 0.86379 0.36829 0.4468 0.0
C1024 C 0.87931 0.32203 0.55319 0.0
C1025 C 0.87304 0.33346 0.57544 0.0
C1026 C 0.87043 0.33104 0.53073 0.0
C1027 C 0.85504 0.35175 0.52985 0.0
C1028 C 0.84901 0.36336 0.55209 0.0
C1029 C 0.85791 0.35436 0.57457 0.0
C1030 C 0.81236 0.37777 0.48016 0.0
C1031 C 0.82734 0.37715 0.45937 0.0
C1032 C 0.82133 0.36985 0.5031 0.0
C1033 C 0.84547 0.36113 0.50578 0.0
C1034 C 0.86047 0.36103 0.48505 0.0
C1035 C 0.85156 0.36887 0.46226 0.0
H1036 H 0.63703 0.32066 0.95729 0.0
H1037 H 0.67341 0.38601 0.93264 0.0
H1038 H 0.64925 0.33018 0.99952 0.0
H1039 H 0.68537 0.3956 0.97484 0.0
H1040 H 0.72394 0.38987 0.05113 0.0
H1041 H 0.71252 0.38078 1.00834 0.0
H1042 H 0.64039 0.36026 0.03145 0.0
H1043 H 0.65167 0.36899 0.07373 0.0
C1044 C 0.64743 0.33715 0.96086 0.0
C1045 C 0.65409 0.35259 0.94151 0.0
C1046 C 0.65443 0.34265 0.9851 0.0
C1047 C 0.66837 0.36366 0.9906 0.0
C1048 C 0.67494 0.37912 0.97126 0.0
C1049 C 0.66784 0.37371 0.94706 0.0
C1050 C 0.70565 0.38349 0.04702 0.0
C1051 C 0.6888 0.38015 0.06595 0.0
C1052 C 0.69906 0.37835 0.02251 0.0
C1053 C 0.67556 0.3696 0.01647 0.0
C1054 C 0.65875 0.36653 0.03542 0.0
C1055 C 0.66524 0.37175 0.05974 0.0
H1056 H 0.87173 0.58599 0.39183 0.0
H1057 H 0.88163 0.56369 0.31635 0.0
H1058 H 0.86883 0.54295 0.40373 0.0
H1059 H 0.8781 0.52111 0.32802 0.0
H1060 H 0.83006 0.4676 0.40598 0.0
H1061 H 0.84066 0.51004 0.39933 0.0
H1062 H 0.89685 0.4874 0.349 0.0
H1063 H 0.88557 0.44453 0.35511 0.0
C1064 C 0.87319 0.57196 0.37779 0.0
C1065 C 0.87677 0.57835 0.35313 0.0
C1066 C 0.87154 0.54728 0.38458 0.0
C1067 C 0.87334 0.52846 0.36685 0.0
C1068 C 0.87715 0.53497 0.34228 0.0
C1069 C 0.87889 0.55952 0.33554 0.0
C1070 C 0.84493 0.47156 0.39371 0.0
C1071 C 0.85674 0.45263 0.38079 0.0
C1072 C 0.85115 0.49601 0.39005 0.0
C1073 C 0.86943 0.50228 0.37341 0.0
C1074 C 0.88234 0.48326 0.36161 0.0
C1075 C 0.87606 0.45866 0.36527 0.0
H1076 H 0.4578 0.40619 0.856 0.0
H1077 H 0.47478 0.39058 0.78034 0.0
H1078 H 0.50091 0.40839 0.86614 0.0
H1079 H 0.51854 0.39177 0.79075 0.0
H1080 H 0.59778 0.40577 0.81696 0.0
H1081 H 0.55512 0.41454 0.80525 0.0
H1082 H 0.53114 0.37787 0.87078 0.0
H1083 H 0.57307 0.36979 0.88243 0.0
C1084 C 0.47082 0.40319 0.84147 0.0
C1085 C 0.46284 0.39774 0.81744 0.0
C1086 C 0.49563 0.4044 0.84731 0.0
C1087 C 0.51335 0.39974 0.82943 0.0
C1088 C 0.50544 0.39554 0.80501 0.0
C1089 C 0.48038 0.3947 0.79904 0.0
C1090 C 0.58332 0.40033 0.82914 0.0
C1091 C 0.5888 0.38723 0.8507 0.0
C1092 C 0.55888 0.40501 0.82227 0.0
C1093 C 0.53956 0.39691 0.83701 0.0
C1094 C 0.54535 0.3848 0.85907 0.0
C1095 C 0.56952 0.38006 0.86578 0.0
H1096 H 0.67276 0.06514 0.3803 0.0
H1097 H 0.65448 0.09838 0.31078 0.0
H1098 H 0.65618 0.02637 0.36585 0.0
H1099 H 0.63927 0.05912 0.29548 0.0
H1100 H 0.60112 0.98661 0.27785 0.0
H1101 H 0.61111 0.0272 0.29441 0.0
H1102 H 0.66672 0.99446 0.34086 0.0
H1103 H 0.65579 0.95438 0.32546 0.0
C1104 C 0.66516 0.06411 0.36186 0.0
C1105 C 0.66503 0.0848 0.34667 0.0
C1106 C 0.65586 0.04174 0.35339 0.0
C1107 C 0.64678 0.03916 0.32916 0.0
C1108 C 0.64586 0.0602 0.31426 0.0
C1109 C 0.65468 0.08279 0.323 0.0
C1110 C 0.61533 0.9882 0.29175 0.0
C1111 C 0.62747 0.96719 0.30046 0.0
C1112 C 0.62121 1.01151 0.30119 0.0
C1113 C 0.63966 0.0144 0.31929 0.0
C1114 C 0.65191 0.99324 0.32761 0.0
C1115 C 0.64575 0.97008 0.31855 0.0
H1116 H 0.08507 0.17016 0.84649 0.0
H1117 H 0.04306 0.13516 0.7886 0.0
H1118 H 0.04787 0.18456 0.86536 0.0
H1119 H 1.0054 0.14999 0.80767 0.0
H1120 H 0.94398 0.15797 0.86401 0.0
H1121 H 0.98151 0.1432 0.84562 0.0
H1122 H 0.01463 0.2139 0.85797 0.0
H1123 H 0.97699 0.22879 0.87654 0.0
C1124 C 0.06786 0.16553 0.83769 0.0
C1125 C 0.06712 0.15138 0.81597 0.0
C1126 C 0.04649 0.174 0.84851 0.0
C1127 C 0.02365 0.1685 0.83806 0.0
C1128 C 0.02275 0.15436 0.81631 0.0
C1129 C 0.04429 0.14597 0.8053 0.0
C1130 C 0.95933 0.17035 0.86315 0.0
C1131 C 0.95742 0.19462 0.87187 0.0
C1132 C 0.98077 0.16191 0.85229 0.0
C1133 C 1.00097 0.17742 0.85003 0.0
C1134 C 0.99941 0.20143 0.85951 0.0
C1135 C 0.97786 0.20996 0.87025 0.0
H1136 H 0.79514 0.05239 0.14358 0.0
H1137 H 0.86397 0.08683 0.16162 0.0
H1138 H 0.81015 0.01409 0.16149 0.0
H1139 H 0.87877 0.04877 0.17944 0.0
H1140 H 0.88443 0.98502 0.23529 0.0
H1141 H 0.86985 0.02312 0.21632 0.0
H1142 H 0.84155 0.98192 0.15445 0.0
H1143 H 0.85588 0.9442 0.17315 0.0
C1144 C 0.81355 0.05172 0.15097 0.0
C1145 C 0.8283 0.07273 0.15105 0.0
C1146 C 0.82214 0.02981 0.16132 0.0
C1147 C 0.84557 0.02849 0.17216 0.0
C1148 C 0.8605 0.04929 0.17164 0.0
C1149 C 0.85205 0.07106 0.16113 0.0
C1150 C 0.87515 0.98415 0.21764 0.0
C1151 C 0.87145 0.96153 0.20577 0.0
C1152 C 0.86687 1.00594 0.20672 0.0
C1153 C 0.85448 1.00551 0.18388 0.0
C1154 C 0.85076 0.98289 0.17214 0.0
C1155 C 0.85919 0.96125 0.18287 0.0
H1156 H 0.06414 0.39216 0.68182 0.0
H1157 H 0.0413 0.38877 0.75734 0.0
H1158 H 0.02341 0.38147 0.66804 0.0
H1159 H 0.99995 0.37747 0.7433 0.0
H1160 H 0.92292 0.37488 0.70377 0.0
H1161 H 0.96199 0.39057 0.71975 0.0
H1162 H 1.00025 0.34398 0.66868 0.0
H1163 H 0.96174 0.32875 0.65266 0.0
C1164 C 0.05038 0.38915 0.69558 0.0
C1165 C 0.05619 0.39098 0.72076 0.0
C1166 C 0.02693 0.3829 0.68761 0.0
C1167 C 1.00843 0.37809 0.70451 0.0
C1168 C 0.01378 0.38104 0.72976 0.0
C1169 C 0.03746 0.38746 0.73783 0.0
C1170 C 0.9397 0.36818 0.69585 0.0
C1171 C 0.93909 0.35066 0.67676 0.0
C1172 C 0.96209 0.37702 0.70516 0.0
C1173 C 0.98432 0.36869 0.69542 0.0
C1174 C 0.98356 0.35118 0.67638 0.0
C1175 C 0.96136 0.34234 0.66721 0.0
H1176 H 0.68623 0.46295 0.12145 0.0
H1177 H 0.62456 0.4468 0.16717 0.0
H1178 H 0.67815 0.50632 0.12546 0.0
H1179 H 0.6159 0.4908 0.17066 0.0
H1180 H 0.63291 0.56884 0.20005 0.0
H1181 H 0.63424 0.52523 0.19139 0.0
H1182 H 0.65262 0.54034 0.11605 0.0
H1183 H 0.65195 0.58428 0.12497 0.0
C1184 C 0.67062 0.46865 0.13209 0.0
C1185 C 0.6562 0.45132 0.14425 0.0
C1186 C 0.66585 0.49367 0.13419 0.0
C1187 C 0.64644 0.50224 0.14849 0.0
C1188 C 0.63124 0.48488 0.15977 0.0
C1189 C 0.63604 0.45965 0.15762 0.0
C1190 C 0.63717 0.56296 0.18157 0.0
C1191 C 0.64258 0.58017 0.16326 0.0
C1192 C 0.63765 0.53783 0.17653 0.0
C1193 C 0.6435 0.52911 0.15301 0.0
C1194 C 0.64834 0.54634 0.13449 0.0
C1195 C 0.64793 0.57157 0.13956 0.0
H1196 H 0.4387 0.14346 0.64951 0.0
H1197 H 0.46811 0.13697 0.72314 0.0
H1198 H 0.47987 0.14691 0.63361 0.0
H1199 H 0.50923 0.14137 0.70742 0.0
H1200 H 0.58276 0.1351 0.67225 0.0
H1201 H 0.54153 0.12335 0.68423 0.0
H1202 H 0.51142 0.17586 0.63293 0.0
H1203 H 0.55212 0.18674 0.62047 0.0
C1204 C 0.45395 0.14298 0.66234 0.0
C1205 C 0.45008 0.14016 0.68761 0.0
C1206 C 0.4776 0.14497 0.65323 0.0
C1207 C 0.498 0.14447 0.6692 0.0
C1208 C 0.49408 0.1414 0.69448 0.0
C1209 C 0.47043 0.13916 0.70355 0.0
C1210 C 0.56728 0.14362 0.66314 0.0
C1211 C 0.57077 0.16197 0.64555 0.0
C1212 C 0.54364 0.13713 0.6702 0.0
C1213 C 0.52305 0.14886 0.65979 0.0
C1214 C 0.52668 0.16621 0.64124 0.0
C1215 C 0.55016 0.17259 0.63417 0.0
H1216 H 0.3937 0.7871 0.49003 0.0
H1217 H 0.36556 0.85107 0.45272 0.0
H1218 H 0.38241 0.8051 0.52936 0.0
H1219 H 0.3548 0.8693 0.49207 0.0
H1220 H 0.31517 0.88184 0.56579 0.0
H1221 H 0.32658 0.86538 0.52563 0.0
H1222 H 0.39374 0.83739 0.55709 0.0
H1223 H 0.38216 0.85322 0.59702 0.0
C1224 C 0.38529 0.80508 0.49021 0.0
C1225 C 0.3806 0.81761 0.46817 0.0
C1226 C 0.3789 0.81549 0.5128 0.0
C1227 C 0.36771 0.83874 0.51397 0.0
C1228 C 0.36309 0.85127 0.4919 0.0
C1229 C 0.36944 0.84085 0.46932 0.0
C1230 C 0.33245 0.87234 0.56404 0.0
C1231 C 0.34765 0.86874 0.58469 0.0
C1232 C 0.33903 0.86293 0.54101 0.0
C1233 C 0.361 0.84979 0.53812 0.0
C1234 C 0.37646 0.84689 0.55867 0.0
C1235 C 0.36986 0.85617 0.5816 0.0
H1236 H 0.16708 0.80465 0.0665 0.0
H1237 H 0.14172 0.87802 0.08196 0.0
H1238 H 0.18397 0.81889 0.02744 0.0
H1239 H 0.15794 0.89196 0.04285 0.0
H1240 H 0.16365 0.89287 0.95618 0.0
H1241 H 0.14781 0.87925 0.99555 0.0
H1242 H 0.21961 0.85393 0.01681 0.0
H1243 H 0.23575 0.86825 0.9774 0.0
C1244 C 0.16474 0.82365 0.06133 0.0
C1245 C 0.15302 0.84023 0.07712 0.0
C1246 C 0.17463 0.83183 0.03922 0.0
C1247 C 0.17238 0.85653 0.03238 0.0
C1248 C 0.15995 0.87286 0.0478 0.0
C1249 C 0.15062 0.86485 0.07007 0.0
C1250 C 0.17614 0.88474 0.96942 0.0
C1251 C 0.20094 0.88177 0.96391 0.0
C1252 C 0.16706 0.8769 0.99185 0.0
C1253 C 0.18247 0.86538 1.00899 0.0
C1254 C 0.20737 0.86261 1.0037 0.0
C1255 C 0.21663 0.87104 0.98139 0.0
H1256 H 0.1645 0.66472 0.58435 0.0
H1257 H 0.22994 0.63357 0.55347 0.0
H1258 H 0.14968 0.67498 0.54366 0.0
H1259 H 0.21521 0.64458 0.51227 0.0
H1260 H 0.1689 0.64472 0.44113 0.0
H1261 H 0.18467 0.63423 0.48174 0.0
H1262 H 0.15598 0.70221 0.51053 0.0
H1263 H 0.13963 0.71239 0.46999 0.0
C1264 C 0.17591 0.66019 0.56886 0.0
C1265 C 0.19852 0.64829 0.57231 0.0
C1266 C 0.1674 0.66629 0.54541 0.0
C1267 C 0.18123 0.66081 0.52454 0.0
C1268 C 0.20391 0.64889 0.52789 0.0
C1269 C 0.21245 0.64269 0.55151 0.0
C1270 C 0.1658 0.6574 0.45614 0.0
C1271 C 0.15282 0.67938 0.45225 0.0
C1272 C 0.1751 0.65146 0.47944 0.0
C1273 C 0.17173 0.66734 0.49953 0.0
C1274 C 0.15868 0.68931 0.49563 0.0
C1275 C 0.1493 0.69522 0.47233 0.0
H1276 H 0.35313 0.69851 0.07683 0.0
H1277 H 0.31885 0.63425 0.1067 0.0
H1278 H 0.33943 0.68682 0.03595 0.0
H1279 H 0.30535 0.62223 0.06521 0.0
H1280 H 0.26751 0.62393 0.98641 0.0
H1281 H 0.27811 0.63394 0.02934 0.0
H1282 H 0.35022 0.6552 1.00686 0.0
H1283 H 0.33975 0.64575 0.96464 0.0
C1284 C 0.3427 0.6818 0.07472 0.0
C1285 C 0.33734 0.66722 0.09516 0.0
C1286 C 0.3349 0.67502 0.05115 0.0
C1287 C 0.32152 0.6534 0.04716 0.0
C1288 C 0.31555 0.63904 0.06762 0.0
C1289 C 0.32342 0.64585 0.09138 0.0
C1290 C 0.28561 0.63067 0.99073 0.0
C1291 C 0.30262 0.63429 0.97194 0.0
C1292 C 0.29173 0.63632 0.01532 0.0
C1293 C 0.31492 0.64574 0.02153 0.0
C1294 C 0.33201 0.64857 1.00276 0.0
C1295 C 0.32597 0.643 0.97843 0.0
loop_
_geom_bond_atom_site_label_1
_geom_bond_atom_site_label_2
_geom_bond_distance
_geom_bond_site_symmetry_2
_ccdc_geom_bond_type
C0 O2 1.247 . S
C0 O4 1.258 . S
C1 O8 1.247 . S
C1 O9 1.258 . S
O2 C0 1.247 . S
O2 Zn3 2.028 . S
Zn3 O2 2.028 . S
Zn3 O7 2.035 . S
Zn3 O9 2.035 . S
Zn3 O10 2.028 . S
O4 C0 1.258 . S
O4 Zn5 2.035 . S
Zn5 O4 2.035 . S
Zn5 O6 2.028 . S
Zn5 O8 2.028 . S
Zn5 O11 2.035 . S
O6 Zn5 2.028 . S
O6 C12 1.247 . S
O7 Zn3 2.035 . S
O7 C12 1.258 . S
O8 C1 1.247 . S
O8 Zn5 2.028 . S
O9 C1 1.258 . S
O9 Zn3 2.035 . S
O10 Zn3 2.028 . S
O10 C13 1.247 . S
O11 Zn5 2.035 . S
O11 C13 1.258 . S
C12 O6 1.247 . S
C12 O7 1.258 . S
C13 O10 1.247 . S
C13 O11 1.258 . S
C14 O16 1.247 . S
C14 O18 1.258 . S
C15 O22 1.247 . S
C15 O23 1.258 . S
O16 C14 1.247 . S
O16 Zn17 2.028 . S
Zn17 O16 2.028 . S
Zn17 O21 2.035 . S
Zn17 O23 2.035 . S
Zn17 O24 2.028 . S
O18 C14 1.258 . S
O18 Zn19 2.035 . S
Zn19 O18 2.035 . S
Zn19 O20 2.028 . S
Zn19 O22 2.028 . S
Zn19 O25 2.035 . S
O20 Zn19 2.028 . S
O20 C26 1.247 . S
O21 Zn17 2.035 . S
O21 C26 1.258 . S
O22 C15 1.247 . S
O22 Zn19 2.028 . S
O23 C15 1.258 . S
O23 Zn17 2.035 . S
O24 Zn17 2.028 . S
O24 C27 1.247 . S
O25 Zn19 2.035 . S
O25 C27 1.258 . S
C26 O20 1.247 . S
C26 O21 1.258 . S
C27 O24 1.247 . S
C27 O25 1.258 . S
C28 O30 1.247 . S
C28 O32 1.258 . S
C29 O36 1.247 . S
C29 O37 1.258 . S
O30 C28 1.247 . S
O30 Zn31 2.028 . S
Zn31 O30 2.028 . S
Zn31 O35 2.035 . S
Zn31 O37 2.035 . S
Zn31 O38 2.028 . S
O32 C28 1.258 . S
O32 Zn33 2.035 . S
Zn33 O32 2.035 . S
Zn33 O34 2.028 . S
Zn33 O36 2.028 . S
Zn33 O39 2.035 . S
O34 Zn33 2.028 . S
O34 C40 1.247 . S
O35 Zn31 2.035 . S
O35 C40 1.258 . S
O36 C29 1.247 . S
O36 Zn33 2.028 . S
O37 C29 1.258 . S
O37 Zn31 2.035 . S
O38 Zn31 2.028 . S
O38 C41 1.247 . S
O39 Zn33 2.035 . S
O39 C41 1.258 . S
C40 O34 1.247 . S
C40 O35 1.258 . S
C41 O38 1.247 . S
C41 O39 1.258 . S
C42 O44 1.247 . S
C42 O46 1.258 . S
C43 O50 1.247 . S
C43 O51 1.258 . S
O44 C42 1.247 . S
O44 Zn45 2.028 . S
Zn45 O44 2.028 . S
Zn45 O49 2.035 . S
Zn45 O51 2.035 . S
Zn45 O52 2.028 . S
O46 C42 1.258 . S
O46 Zn47 2.035 . S
Zn47 O46 2.035 . S
Zn47 O48 2.028 . S
Zn47 O50 2.028 . S
Zn47 O53 2.035 . S
O48 Zn47 2.028 . S
O48 C54 1.247 . S
O49 Zn45 2.035 . S
O49 C54 1.258 . S
O50 C43 1.247 . S
O50 Zn47 2.028 . S
O51 C43 1.258 . S
O51 Zn45 2.035 . S
O52 Zn45 2.028 . S
O52 C55 1.247 . S
O53 Zn47 2.035 . S
O53 C55 1.258 . S
C54 O48 1.247 . S
C54 O49 1.258 . S
C55 O52 1.247 . S
C55 O53 1.258 . S
C56 O58 1.247 . S
C56 O60 1.258 . S
C57 O64 1.247 . S
C57 O65 1.258 . S
O58 C56 1.247 . S
O58 Zn59 2.028 . S
Zn59 O58 2.028 . S
Zn59 O63 2.035 . S
Zn59 O65 2.035 . S
Zn59 O66 2.028 . S
O60 C56 1.258 . S
O60 Zn61 2.035 . S
Zn61 O60 2.035 . S
Zn61 O62 2.028 . S
Zn61 O64 2.028 . S
Zn61 O67 2.035 . S
O62 Zn61 2.028 . S
O62 C68 1.247 . S
O63 Zn59 2.035 . S
O63 C68 1.258 . S
O64 C57 1.247 . S
O64 Zn61 2.028 . S
O65 C57 1.258 . S
O65 Zn59 2.035 . S
O66 Zn59 2.028 . S
O66 C69 1.247 . S
O67 Zn61 2.035 . S
O67 C69 1.258 . S
C68 O62 1.247 . S
C68 O63 1.258 . S
C69 O66 1.247 . S
C69 O67 1.258 . S
C70 O72 1.247 . S
C70 O74 1.258 . S
C71 O78 1.247 . S
C71 O79 1.258 . S
O72 C70 1.247 . S
O72 Zn73 2.028 . S
Zn73 O72 2.028 . S
Zn73 O77 2.035 . S
Zn73 O79 2.035 . S
Zn73 O80 2.028 . S
O74 C70 1.258 . S
O74 Zn75 2.035 . S
Zn75 O74 2.035 . S
Zn75 O76 2.028 . S
Zn75 O78 2.028 . S
Zn75 O81 2.035 . S
O76 Zn75 2.028 . S
O76 C82 1.247 . S
O77 Zn73 2.035 . S
O77 C82 1.258 . S
O78 C71 1.247 . S
O78 Zn75 2.028 . S
O79 C71 1.258 . S
O79 Zn73 2.035 . S
O80 Zn73 2.028 . S
O80 C83 1.247 . S
O81 Zn75 2.035 . S
O81 C83 1.258 . S
C82 O76 1.247 . S
C82 O77 1.258 . S
C83 O80 1.247 . S
C83 O81 1.258 . S
C84 O86 1.247 . S
C84 O88 1.258 . S
C85 O92 1.247 . S
C85 O93 1.258 . S
O86 C84 1.247 . S
O86 Zn87 2.028 . S
Zn87 O86 2.028 . S
Zn87 O91 2.035 . S
Zn87 O93 2.035 . S
Zn87 O94 2.028 . S
O88 C84 1.258 . S
O88 Zn89 2.035 . S
Zn89 O88 2.035 . S
Zn89 O90 2.028 . S
Zn89 O92 2.028 . S
Zn89 O95 2.035 . S
O90 Zn89 2.028 . S
O90 C96 1.247 . S
O91 Zn87 2.035 . S
O91 C96 1.258 . S
O92 C85 1.247 . S
O92 Zn89 2.028 . S
O93 C85 1.258 . S
O93 Zn87 2.035 . S
O94 Zn87 2.028 . S
O94 C97 1.247 . S
O95 Zn89 2.035 . S
O95 C97 1.258 . S
C96 O90 1.247 . S
C96 O91 1.258 . S
C97 O94 1.247 . S
C97 O95 1.258 . S
C98 O100 1.247 . S
C98 O102 1.258 . S
C99 O106 1.247 . S
C99 O107 1.258 . S
O100 C98 1.247 . S
O100 Zn101 2.028 . S
Zn101 O100 2.028 . S
Zn101 O105 2.035 . S
Zn101 O107 2.035 . S
Zn101 O108 2.028 . S
O102 C98 1.258 . S
O102 Zn103 2.035 . S
Zn103 O102 2.035 . S
Zn103 O104 2.028 . S
Zn103 O106 2.028 . S
Zn103 O109 2.035 . S
O104 Zn103 2.028 . S
O104 C110 1.247 . S
O105 Zn101 2.035 . S
O105 C110 1.258 . S
O106 C99 1.247 . S
O106 Zn103 2.028 . S
O107 C99 1.258 . S
O107 Zn101 2.035 . S
O108 Zn101 2.028 . S
O108 C111 1.247 . S
O109 Zn103 2.035 . S
O109 C111 1.258 . S
C110 O104 1.247 . S
C110 O105 1.258 . S
C111 O108 1.247 . S
C111 O109 1.258 . S
C112 O114 1.247 . S
C112 O116 1.258 . S
C113 O120 1.247 . S
C113 O121 1.258 . S
O114 C112 1.247 . S
O114 Zn115 2.028 . S
Zn115 O114 2.028 . S
Zn115 O119 2.035 . S
Zn115 O121 2.035 . S
Zn115 O122 2.028 . S
O116 C112 1.258 . S
O116 Zn117 2.035 . S
Zn117 O116 2.035 . S
Zn117 O118 2.028 . S
Zn117 O120 2.028 . S
Zn117 O123 2.035 . S
O118 Zn117 2.028 . S
O118 C124 1.247 . S
O119 Zn115 2.035 . S
O119 C124 1.258 . S
O120 C113 1.247 . S
O120 Zn117 2.028 . S
O121 C113 1.258 . S
O121 Zn115 2.035 . S
O122 Zn115 2.028 . S
O122 C125 1.247 . S
O123 Zn117 2.035 . S
O123 C125 1.258 . S
C124 O118 1.247 . S
C124 O119 1.258 . S
C125 O122 1.247 . S
C125 O123 1.258 . S
C126 O128 1.247 . S
C126 O130 1.258 . S
C127 O134 1.247 . S
C127 O135 1.258 . S
O128 C126 1.247 . S
O128 Zn129 2.028 . S
Zn129 O128 2.028 . S
Zn129 O133 2.035 . S
Zn129 O135 2.035 . S
Zn129 O136 2.028 . S
O130 C126 1.258 . S
O130 Zn131 2.035 . S
Zn131 O130 2.035 . S
Zn131 O132 2.028 . S
Zn131 O134 2.028 . S
Zn131 O137 2.035 . S
O132 Zn131 2.028 . S
O132 C138 1.247 . S
O133 Zn129 2.035 . S
O133 C138 1.258 . S
O134 C127 1.247 . S
O134 Zn131 2.028 . S
O135 C127 1.258 . S
O135 Zn129 2.035 . S
O136 Zn129 2.028 . S
O136 C139 1.247 . S
O137 Zn131 2.035 . S
O137 C139 1.258 . S
C138 O132 1.247 . S
C138 O133 1.258 . S
C139 O136 1.247 . S
C139 O137 1.258 . S
C140 O142 1.247 . S
C140 O144 1.258 . S
C141 O148 1.247 . S
C141 O149 1.258 . S
O142 C140 1.247 . S
O142 Zn143 2.028 . S
Zn143 O142 2.028 . S
Zn143 O147 2.035 . S
Zn143 O149 2.035 . S
Zn143 O150 2.028 . S
O144 C140 1.258 . S
O144 Zn145 2.035 . S
Zn145 O144 2.035 . S
Zn145 O146 2.028 . S
Zn145 O148 2.028 . S
Zn145 O151 2.035 . S
O146 Zn145 2.028 . S
O146 C152 1.247 . S
O147 Zn143 2.035 . S
O147 C152 1.258 . S
O148 C141 1.247 . S
O148 Zn145 2.028 . S
O149 C141 1.258 . S
O149 Zn143 2.035 . S
O150 Zn143 2.028 . S
O150 C153 1.247 . S
O151 Zn145 2.035 . S
O151 C153 1.258 . S
C152 O146 1.247 . S
C152 O147 1.258 . S
C153 O150 1.247 . S
C153 O151 1.258 . S
C154 O156 1.247 . S
C154 O158 1.258 . S
C155 O162 1.247 . S
C155 O163 1.258 . S
O156 C154 1.247 . S
O156 Zn157 2.028 . S
Zn157 O156 2.028 . S
Zn157 O161 2.035 . S
Zn157 O163 2.035 . S
Zn157 O164 2.028 . S
O158 C154 1.258 . S
O158 Zn159 2.035 . S
Zn159 O158 2.035 . S
Zn159 O160 2.028 . S
Zn159 O162 2.028 . S
Zn159 O165 2.035 . S
O160 Zn159 2.028 . S
O160 C166 1.247 . S
O161 Zn157 2.035 . S
O161 C166 1.258 . S
O162 C155 1.247 . S
O162 Zn159 2.028 . S
O163 C155 1.258 . S
O163 Zn157 2.035 . S
O164 Zn157 2.028 . S
O164 C167 1.247 . S
O165 Zn159 2.035 . S
O165 C167 1.258 . S
C166 O160 1.247 . S
C166 O161 1.258 . S
C167 O164 1.247 . S
C167 O165 1.258 . S
C168 O170 1.247 . S
C168 O172 1.258 . S
C169 O176 1.247 . S
C169 O177 1.258 . S
O170 C168 1.247 . S
O170 Zn171 2.028 . S
Zn171 O170 2.028 . S
Zn171 O175 2.035 . S
Zn171 O177 2.035 . S
Zn171 O178 2.028 . S
O172 C168 1.258 . S
O172 Zn173 2.035 . S
Zn173 O172 2.035 . S
Zn173 O174 2.028 . S
Zn173 O176 2.028 . S
Zn173 O179 2.035 . S
O174 Zn173 2.028 . S
O174 C180 1.247 . S
O175 Zn171 2.035 . S
O175 C180 1.258 . S
O176 C169 1.247 . S
O176 Zn173 2.028 . S
O177 C169 1.258 . S
O177 Zn171 2.035 . S
O178 Zn171 2.028 . S
O178 C181 1.247 . S
O179 Zn173 2.035 . S
O179 C181 1.258 . S
C180 O174 1.247 . S
C180 O175 1.258 . S
C181 O178 1.247 . S
C181 O179 1.258 . S
C182 O184 1.247 . S
C182 O186 1.258 . S
C183 O190 1.247 . S
C183 O191 1.258 . S
O184 C182 1.247 . S
O184 Zn185 2.028 . S
Zn185 O184 2.028 . S
Zn185 O189 2.035 . S
Zn185 O191 2.035 . S
Zn185 O192 2.028 . S
O186 C182 1.258 . S
O186 Zn187 2.035 . S
Zn187 O186 2.035 . S
Zn187 O188 2.028 . S
Zn187 O190 2.028 . S
Zn187 O193 2.035 . S
O188 Zn187 2.028 . S
O188 C194 1.247 . S
O189 Zn185 2.035 . S
O189 C194 1.258 . S
O190 C183 1.247 . S
O190 Zn187 2.028 . S
O191 C183 1.258 . S
O191 Zn185 2.035 . S
O192 Zn185 2.028 . S
O192 C195 1.247 . S
O193 Zn187 2.035 . S
O193 C195 1.258 . S
C194 O188 1.247 . S
C194 O189 1.258 . S
C195 O192 1.247 . S
C195 O193 1.258 . S
C196 O198 1.247 . S
C196 O200 1.258 . S
C197 O204 1.247 . S
C197 O205 1.258 . S
O198 C196 1.247 . S
O198 Zn199 2.028 . S
Zn199 O198 2.028 . S
Zn199 O203 2.035 . S
Zn199 O205 2.035 . S
Zn199 O206 2.028 . S
O200 C196 1.258 . S
O200 Zn201 2.035 . S
Zn201 O200 2.035 . S
Zn201 O202 2.028 . S
Zn201 O204 2.028 . S
Zn201 O207 2.035 . S
O202 Zn201 2.028 . S
O202 C208 1.247 . S
O203 Zn199 2.035 . S
O203 C208 1.258 . S
O204 C197 1.247 . S
O204 Zn201 2.028 . S
O205 C197 1.258 . S
O205 Zn199 2.035 . S
O206 Zn199 2.028 . S
O206 C209 1.247 . S
O207 Zn201 2.035 . S
O207 C209 1.258 . S
C208 O202 1.247 . S
C208 O203 1.258 . S
C209 O206 1.247 . S
C209 O207 1.258 . S
C210 O212 1.247 . S
C210 O214 1.258 . S
C211 O218 1.247 . S
C211 O219 1.258 . S
O212 C210 1.247 . S
O212 Zn213 2.028 . S
Zn213 O212 2.028 . S
Zn213 O217 2.035 . S
Zn213 O219 2.035 . S
Zn213 O220 2.028 . S
O214 C210 1.258 . S
O214 Zn215 2.035 . S
Zn215 O214 2.035 . S
Zn215 O216 2.028 . S
Zn215 O218 2.028 . S
Zn215 O221 2.035 . S
O216 Zn215 2.028 . S
O216 C222 1.247 . S
O217 Zn213 2.035 . S
O217 C222 1.258 . S
O218 C211 1.247 . S
O218 Zn215 2.028 . S
O219 C211 1.258 . S
O219 Zn213 2.035 . S
O220 Zn213 2.028 . S
O220 C223 1.247 . S
O221 Zn215 2.035 . S
O221 C223 1.258 . S
C222 O216 1.247 . S
C222 O217 1.258 . S
C223 O220 1.247 . S
C223 O221 1.258 . S
C224 O226 1.247 . S
C224 O228 1.258 . S
C225 O232 1.247 . S
C225 O233 1.258 . S
O226 C224 1.247 . S
O226 Zn227 2.028 . S
Zn227 O226 2.028 . S
Zn227 O231 2.035 . S
Zn227 O233 2.035 . S
Zn227 O234 2.028 . S
O228 C224 1.258 . S
O228 Zn229 2.035 . S
Zn229 O228 2.035 . S
Zn229 O230 2.028 . S
Zn229 O232 2.028 . S
Zn229 O235 2.035 . S
O230 Zn229 2.028 . S
O230 C236 1.247 . S
O231 Zn227 2.035 . S
O231 C236 1.258 . S
O232 C225 1.247 . S
O232 Zn229 2.028 . S
O233 C225 1.258 . S
O233 Zn227 2.035 . S
O234 Zn227 2.028 . S
O234 C237 1.247 . S
O235 Zn229 2.035 . S
O235 C237 1.258 . S
C236 O230 1.247 . S
C236 O231 1.258 . S
C237 O234 1.247 . S
C237 O235 1.258 . S
C238 O240 1.247 . S
C238 O242 1.258 . S
C239 O246 1.247 . S
C239 O247 1.258 . S
O240 C238 1.247 . S
O240 Zn241 2.028 . S
Zn241 O240 2.028 . S
Zn241 O245 2.035 . S
Zn241 O247 2.035 . S
Zn241 O248 2.028 . S
O242 C238 1.258 . S
O242 Zn243 2.035 . S
Zn243 O242 2.035 . S
Zn243 O244 2.028 . S
Zn243 O246 2.028 . S
Zn243 O249 2.035 . S
O244 Zn243 2.028 . S
O244 C250 1.247 . S
O245 Zn241 2.035 . S
O245 C250 1.258 . S
O246 C239 1.247 . S
O246 Zn243 2.028 . S
O247 C239 1.258 . S
O247 Zn241 2.035 . S
O248 Zn241 2.028 . S
O248 C251 1.247 . S
O249 Zn243 2.035 . S
O249 C251 1.258 . S
C250 O244 1.247 . S
C250 O245 1.258 . S
C251 O248 1.247 . S
C251 O249 1.258 . S
C252 O254 1.247 . S
C252 O256 1.258 . S
C253 O260 1.247 . S
C253 O261 1.258 . S
O254 C252 1.247 . S
O254 Zn255 2.028 . S
Zn255 O254 2.028 . S
Zn255 O259 2.035 . S
Zn255 O261 2.035 . S
Zn255 O262 2.028 . S
O256 C252 1.258 . S
O256 Zn257 2.035 . S
Zn257 O256 2.035 . S
Zn257 O258 2.028 . S
Zn257 O260 2.028 . S
Zn257 O263 2.035 . S
O258 Zn257 2.028 . S
O258 C264 1.247 . S
O259 Zn255 2.035 . S
O259 C264 1.258 . S
O260 C253 1.247 . S
O260 Zn257 2.028 . S
O261 C253 1.258 . S
O261 Zn255 2.035 . S
O262 Zn255 2.028 . S
O262 C265 1.247 . S
O263 Zn257 2.035 . S
O263 C265 1.258 . S
C264 O258 1.247 . S
C264 O259 1.258 . S
C265 O262 1.247 . S
C265 O263 1.258 . S
C266 O268 1.247 . S
C266 O270 1.258 . S
C267 O274 1.247 . S
C267 O275 1.258 . S
O268 C266 1.247 . S
O268 Zn269 2.028 . S
Zn269 O268 2.028 . S
Zn269 O273 2.035 . S
Zn269 O275 2.035 . S
Zn269 O276 2.028 . S
O270 C266 1.258 . S
O270 Zn271 2.035 . S
Zn271 O270 2.035 . S
Zn271 O272 2.028 . S
Zn271 O274 2.028 . S
Zn271 O277 2.035 . S
O272 Zn271 2.028 . S
O272 C278 1.247 . S
O273 Zn269 2.035 . S
O273 C278 1.258 . S
O274 C267 1.247 . S
O274 Zn271 2.028 . S
O275 C267 1.258 . S
O275 Zn269 2.035 . S
O276 Zn269 2.028 . S
O276 C279 1.247 . S
O277 Zn271 2.035 . S
O277 C279 1.258 . S
C278 O272 1.247 . S
C278 O273 1.258 . S
C279 O276 1.247 . S
C279 O277 1.258 . S
C280 O282 1.247 . S
C280 O284 1.258 . S
C281 O288 1.247 . S
C281 O289 1.258 . S
O282 C280 1.247 . S
O282 Zn283 2.028 . S
Zn283 O282 2.028 . S
Zn283 O287 2.035 . S
Zn283 O289 2.035 . S
Zn283 O290 2.028 . S
O284 C280 1.258 . S
O284 Zn285 2.035 . S
Zn285 O284 2.035 . S
Zn285 O286 2.028 . S
Zn285 O288 2.028 . S
Zn285 O291 2.035 . S
O286 Zn285 2.028 . S
O286 C292 1.247 . S
O287 Zn283 2.035 . S
O287 C292 1.258 . S
O288 C281 1.247 . S
O288 Zn285 2.028 . S
O289 C281 1.258 . S
O289 Zn283 2.035 . S
O290 Zn283 2.028 . S
O290 C293 1.247 . S
O291 Zn285 2.035 . S
O291 C293 1.258 . S
C292 O286 1.247 . S
C292 O287 1.258 . S
C293 O290 1.247 . S
C293 O291 1.258 . S
C294 O296 1.247 . S
C294 O298 1.258 . S
C295 O302 1.247 . S
C295 O303 1.258 . S
O296 C294 1.247 . S
O296 Zn297 2.028 . S
Zn297 O296 2.028 . S
Zn297 O301 2.035 . S
Zn297 O303 2.035 . S
Zn297 O304 2.028 . S
O298 C294 1.258 . S
O298 Zn299 2.035 . S
Zn299 O298 2.035 . S
Zn299 O300 2.028 . S
Zn299 O302 2.028 . S
Zn299 O305 2.035 . S
O300 Zn299 2.028 . S
O300 C306 1.247 . S
O301 Zn297 2.035 . S
O301 C306 1.258 . S
O302 C295 1.247 . S
O302 Zn299 2.028 . S
O303 C295 1.258 . S
O303 Zn297 2.035 . S
O304 Zn297 2.028 . S
O304 C307 1.247 . S
O305 Zn299 2.035 . S
O305 C307 1.258 . S
C306 O300 1.247 . S
C306 O301 1.258 . S
C307 O304 1.247 . S
C307 O305 1.258 . S
C308 O310 1.247 . S
C308 O312 1.258 . S
C309 O316 1.247 . S
C309 O317 1.258 . S
O310 C308 1.247 . S
O310 Zn311 2.028 . S
Zn311 O310 2.028 . S
Zn311 O315 2.035 . S
Zn311 O317 2.035 . S
Zn311 O318 2.028 . S
O312 C308 1.258 . S
O312 Zn313 2.035 . S
Zn313 O312 2.035 . S
Zn313 O314 2.028 . S
Zn313 O316 2.028 . S
Zn313 O319 2.035 . S
O314 Zn313 2.028 . S
O314 C320 1.247 . S
O315 Zn311 2.035 . S
O315 C320 1.258 . S
O316 C309 1.247 . S
O316 Zn313 2.028 . S
O317 C309 1.258 . S
O317 Zn311 2.035 . S
O318 Zn311 2.028 . S
O318 C321 1.247 . S
O319 Zn313 2.035 . S
O319 C321 1.258 . S
C320 O314 1.247 . S
C320 O315 1.258 . S
C321 O318 1.247 . S
C321 O319 1.258 . S
C322 O324 1.247 . S
C322 O326 1.258 . S
C323 O330 1.247 . S
C323 O331 1.258 . S
O324 C322 1.247 . S
O324 Zn325 2.028 . S
Zn325 O324 2.028 . S
Zn325 O329 2.035 . S
Zn325 O331 2.035 . S
Zn325 O332 2.028 . S
O326 C322 1.258 . S
O326 Zn327 2.035 . S
Zn327 O326 2.035 . S
Zn327 O328 2.028 . S
Zn327 O330 2.028 . S
Zn327 O333 2.035 . S
O328 Zn327 2.028 . S
O328 C334 1.247 . S
O329 Zn325 2.035 . S
O329 C334 1.258 . S
O330 C323 1.247 . S
O330 Zn327 2.028 . S
O331 C323 1.258 . S
O331 Zn325 2.035 . S
O332 Zn325 2.028 . S
O332 C335 1.247 . S
O333 Zn327 2.035 . S
O333 C335 1.258 . S
C334 O328 1.247 . S
C334 O329 1.258 . S
C335 O332 1.247 . S
C335 O333 1.258 . S
H336 C344 0.950 . S
H337 C349 0.950 . S
H338 C346 0.950 . S
H339 C348 0.950 . S
H340 C350 0.950 . S
H341 C352 0.950 . S
H342 C354 0.950 . S
H343 C355 0.950 . S
C344 H336 0.950 . S
C344 C345 1.386 . S
C344 C346 1.391 . S
C345 C344 1.386 . S
C345 C349 1.393 . S
C346 H338 0.950 . S
C346 C344 1.391 . S
C346 C347 1.400 . S
C347 C346 1.400 . S
C347 C348 1.398 . S
C347 C353 1.491 . S
C348 H339 0.950 . S
C348 C347 1.398 . S
C348 C349 1.391 . S
C349 H337 0.950 . S
C349 C345 1.393 . S
C349 C348 1.391 . S
C350 H340 0.950 . S
C350 C351 1.386 . S
C350 C352 1.391 . S
C351 C350 1.386 . S
C351 C355 1.393 . S
C352 H341 0.950 . S
C352 C350 1.391 . S
C352 C353 1.400 . S
C353 C347 1.491 . S
C353 C352 1.400 . S
C353 C354 1.398 . S
C354 H342 0.950 . S
C354 C353 1.398 . S
C354 C355 1.391 . S
C355 H343 0.950 . S
C355 C351 1.393 . S
C355 C354 1.391 . S
H356 C364 0.950 . S
H357 C369 0.950 . S
H358 C366 0.950 . S
H359 C368 0.950 . S
H360 C370 0.950 . S
H361 C372 0.950 . S
H362 C374 0.950 . S
H363 C375 0.950 . S
C364 H356 0.950 . S
C364 C365 1.386 . S
C364 C366 1.391 . S
C365 C364 1.386 . S
C365 C369 1.393 . S
C366 H358 0.950 . S
C366 C364 1.391 . S
C366 C367 1.400 . S
C367 C366 1.400 . S
C367 C368 1.398 . S
C367 C373 1.491 . S
C368 H359 0.950 . S
C368 C367 1.398 . S
C368 C369 1.391 . S
C369 H357 0.950 . S
C369 C365 1.393 . S
C369 C368 1.391 . S
C370 H360 0.950 . S
C370 C371 1.386 . S
C370 C372 1.391 . S
C371 C370 1.386 . S
C371 C375 1.393 . S
C372 H361 0.950 . S
C372 C370 1.391 . S
C372 C373 1.400 . S
C373 C367 1.491 . S
C373 C372 1.400 . S
C373 C374 1.398 . S
C374 H362 0.950 . S
C374 C373 1.398 . S
C374 C375 1.391 . S
C375 H363 0.950 . S
C375 C371 1.393 . S
C375 C374 1.391 . S
H376 C384 0.950 . S
H377 C389 0.950 . S
H378 C386 0.950 . S
H379 C388 0.950 . S
H380 C390 0.950 . S
H381 C392 0.950 . S
H382 C394 0.950 . S
H383 C395 0.950 . S
C384 H376 0.950 . S
C384 C385 1.386 . S
C384 C386 1.391 . S
C385 C384 1.386 . S
C385 C389 1.393 . S
C386 H378 0.950 . S
C386 C384 1.391 . S
C386 C387 1.400 . S
C387 C386 1.400 . S
C387 C388 1.398 . S
C387 C393 1.491 . S
C388 H379 0.950 . S
C388 C387 1.398 . S
C388 C389 1.391 . S
C389 H377 0.950 . S
C389 C385 1.393 . S
C389 C388 1.391 . S
C390 H380 0.950 . S
C390 C391 1.386 . S
C390 C392 1.391 . S
C391 C390 1.386 . S
C391 C395 1.393 . S
C392 H381 0.950 . S
C392 C390 1.391 . S
C392 C393 1.400 . S
C393 C387 1.491 . S
C393 C392 1.400 . S
C393 C394 1.398 . S
C394 H382 0.950 . S
C394 C393 1.398 . S
C394 C395 1.391 . S
C395 H383 0.950 . S
C395 C391 1.393 . S
C395 C394 1.391 . S
H396 C404 0.950 . S
H397 C409 0.950 . S
H398 C406 0.950 . S
H399 C408 0.950 . S
H400 C410 0.950 . S
H401 C412 0.950 . S
H402 C414 0.950 . S
H403 C415 0.950 . S
C404 H396 0.950 . S
C404 C405 1.386 . S
C404 C406 1.391 . S
C405 C404 1.386 . S
C405 C409 1.393 . S
C406 H398 0.950 . S
C406 C404 1.391 . S
C406 C407 1.400 . S
C407 C406 1.400 . S
C407 C408 1.398 . S
C407 C413 1.491 . S
C408 H399 0.950 . S
C408 C407 1.398 . S
C408 C409 1.391 . S
C409 H397 0.950 . S
C409 C405 1.393 . S
C409 C408 1.391 . S
C410 H400 0.950 . S
C410 C411 1.386 . S
C410 C412 1.391 . S
C411 C410 1.386 . S
C411 C415 1.393 . S
C412 H401 0.950 . S
C412 C410 1.391 . S
C412 C413 1.400 . S
C413 C407 1.491 . S
C413 C412 1.400 . S
C413 C414 1.398 . S
C414 H402 0.950 . S
C414 C413 1.398 . S
C414 C415 1.391 . S
C415 H403 0.950 . S
C415 C411 1.393 . S
C415 C414 1.391 . S
H416 C424 0.950 . S
H417 C429 0.950 . S
H418 C426 0.950 . S
H419 C428 0.950 . S
H420 C430 0.950 . S
H421 C432 0.950 . S
H422 C434 0.950 . S
H423 C435 0.950 . S
C424 H416 0.950 . S
C424 C425 1.386 . S
C424 C426 1.391 . S
C425 C424 1.386 . S
C425 C429 1.393 . S
C426 H418 0.950 . S
C426 C424 1.391 . S
C426 C427 1.400 . S
C427 C426 1.400 . S
C427 C428 1.398 . S
C427 C433 1.491 . S
C428 H419 0.950 . S
C428 C427 1.398 . S
C428 C429 1.391 . S
C429 H417 0.950 . S
C429 C425 1.393 . S
C429 C428 1.391 . S
C430 H420 0.950 . S
C430 C431 1.386 . S
C430 C432 1.391 . S
C431 C430 1.386 . S
C431 C435 1.393 . S
C432 H421 0.950 . S
C432 C430 1.391 . S
C432 C433 1.400 . S
C433 C427 1.491 . S
C433 C432 1.400 . S
C433 C434 1.398 . S
C434 H422 0.950 . S
C434 C433 1.398 . S
C434 C435 1.391 . S
C435 H423 0.950 . S
C435 C431 1.393 . S
C435 C434 1.391 . S
H436 C444 0.950 . S
H437 C449 0.950 . S
H438 C446 0.950 . S
H439 C448 0.950 . S
H440 C450 0.950 . S
H441 C452 0.950 . S
H442 C454 0.950 . S
H443 C455 0.950 . S
C444 H436 0.950 . S
C444 C445 1.386 . S
C444 C446 1.391 . S
C445 C444 1.386 . S
C445 C449 1.393 . S
C446 H438 0.950 . S
C446 C444 1.391 . S
C446 C447 1.400 . S
C447 C446 1.400 . S
C447 C448 1.398 . S
C447 C453 1.491 . S
C448 H439 0.950 . S
C448 C447 1.398 . S
C448 C449 1.391 . S
C449 H437 0.950 . S
C449 C445 1.393 . S
C449 C448 1.391 . S
C450 H440 0.950 . S
C450 C451 1.386 . S
C450 C452 1.391 . S
C451 C450 1.386 . S
C451 C455 1.393 . S
C452 H441 0.950 . S
C452 C450 1.391 . S
C452 C453 1.400 . S
C453 C447 1.491 . S
C453 C452 1.400 . S
C453 C454 1.398 . S
C454 H442 0.950 . S
C454 C453 1.398 . S
C454 C455 1.391 . S
C455 H443 0.950 . S
C455 C451 1.393 . S
C455 C454 1.391 . S
H456 C464 0.950 . S
H457 C469 0.950 . S
H458 C466 0.950 . S
H459 C468 0.950 . S
H460 C470 0.950 . S
H461 C472 0.950 . S
H462 C474 0.950 . S
H463 C475 0.950 . S
C464 H456 0.950 . S
C464 C465 1.386 . S
C464 C466 1.391 . S
C465 C464 1.386 . S
C465 C469 1.393 . S
C466 H458 0.950 . S
C466 C464 1.391 . S
C466 C467 1.400 . S
C467 C466 1.400 . S
C467 C468 1.398 . S
C467 C473 1.491 . S
C468 H459 0.950 . S
C468 C467 1.398 . S
C468 C469 1.391 . S
C469 H457 0.950 . S
C469 C465 1.393 . S
C469 C468 1.391 . S
C470 H460 0.950 . S
C470 C471 1.386 . S
C470 C472 1.391 . S
C471 C470 1.386 . S
C471 C475 1.393 . S
C472 H461 0.950 . S
C472 C470 1.391 . S
C472 C473 1.400 . S
C473 C467 1.491 . S
C473 C472 1.400 . S
C473 C474 1.398 . S
C474 H462 0.950 . S
C474 C473 1.398 . S
C474 C475 1.391 . S
C475 H463 0.950 . S
C475 C471 1.393 . S
C475 C474 1.391 . S
H476 C484 0.950 . S
H477 C489 0.950 . S
H478 C486 0.950 . S
H479 C488 0.950 . S
H480 C490 0.950 . S
H481 C492 0.950 . S
H482 C494 0.950 . S
H483 C495 0.950 . S
C484 H476 0.950 . S
C484 C485 1.386 . S
C484 C486 1.391 . S
C485 C484 1.386 . S
C485 C489 1.393 . S
C486 H478 0.950 . S
C486 C484 1.391 . S
C486 C487 1.400 . S
C487 C486 1.400 . S
C487 C488 1.398 . S
C487 C493 1.491 . S
C488 H479 0.950 . S
C488 C487 1.398 . S
C488 C489 1.391 . S
C489 H477 0.950 . S
C489 C485 1.393 . S
C489 C488 1.391 . S
C490 H480 0.950 . S
C490 C491 1.386 . S
C490 C492 1.391 . S
C491 C490 1.386 . S
C491 C495 1.393 . S
C492 H481 0.950 . S
C492 C490 1.391 . S
C492 C493 1.400 . S
C493 C487 1.491 . S
C493 C492 1.400 . S
C493 C494 1.398 . S
C494 H482 0.950 . S
C494 C493 1.398 . S
C494 C495 1.391 . S
C495 H483 0.950 . S
C495 C491 1.393 . S
C495 C494 1.391 . S
H496 C504 0.950 . S
H497 C509 0.950 . S
H498 C506 0.950 . S
H499 C508 0.950 . S
H500 C510 0.950 . S
H501 C512 0.950 . S
H502 C514 0.950 . S
H503 C515 0.950 . S
C504 H496 0.950 . S
C504 C505 1.386 . S
C504 C506 1.391 . S
C505 C504 1.386 . S
C505 C509 1.393 . S
C506 H498 0.950 . S
C506 C504 1.391 . S
C506 C507 1.400 . S
C507 C506 1.400 . S
C507 C508 1.398 . S
C507 C513 1.491 . S
C508 H499 0.950 . S
C508 C507 1.398 . S
C508 C509 1.391 . S
C509 H497 0.950 . S
C509 C505 1.393 . S
C509 C508 1.391 . S
C510 H500 0.950 . S
C510 C511 1.386 . S
C510 C512 1.391 . S
C511 C510 1.386 . S
C511 C515 1.393 . S
C512 H501 0.950 . S
C512 C510 1.391 . S
C512 C513 1.400 . S
C513 C507 1.491 . S
C513 C512 1.400 . S
C513 C514 1.398 . S
C514 H502 0.950 . S
C514 C513 1.398 . S
C514 C515 1.391 . S
C515 H503 0.950 . S
C515 C511 1.393 . S
C515 C514 1.391 . S
H516 C524 0.950 . S
H517 C529 0.950 . S
H518 C526 0.950 . S
H519 C528 0.950 . S
H520 C530 0.950 . S
H521 C532 0.950 . S
H522 C534 0.950 . S
H523 C535 0.950 . S
C524 H516 0.950 . S
C524 C525 1.386 . S
C524 C526 1.391 . S
C525 C524 1.386 . S
C525 C529 1.393 . S
C526 H518 0.950 . S
C526 C524 1.391 . S
C526 C527 1.400 . S
C527 C526 1.400 . S
C527 C528 1.398 . S
C527 C533 1.491 . S
C528 H519 0.950 . S
C528 C527 1.398 . S
C528 C529 1.391 . S
C529 H517 0.950 . S
C529 C525 1.393 . S
C529 C528 1.391 . S
C530 H520 0.950 . S
C530 C531 1.386 . S
C530 C532 1.391 . S
C531 C530 1.386 . S
C531 C535 1.393 . S
C532 H521 0.950 . S
C532 C530 1.391 . S
C532 C533 1.400 . S
C533 C527 1.491 . S
C533 C532 1.400 . S
C533 C534 1.398 . S
C534 H522 0.950 . S
C534 C533 1.398 . S
C534 C535 1.391 . S
C535 H523 0.950 . S
C535 C531 1.393 . S
C535 C534 1.391 . S
H536 C544 0.950 . S
H537 C549 0.950 . S
H538 C546 0.950 . S
H539 C548 0.950 . S
H540 C550 0.950 . S
H541 C552 0.950 . S
H542 C554 0.950 . S
H543 C555 0.950 . S
C544 H536 0.950 . S
C544 C545 1.386 . S
C544 C546 1.391 . S
C545 C544 1.386 . S
C545 C549 1.393 . S
C546 H538 0.950 . S
C546 C544 1.391 . S
C546 C547 1.400 . S
C547 C546 1.400 . S
C547 C548 1.398 . S
C547 C553 1.491 . S
C548 H539 0.950 . S
C548 C547 1.398 . S
C548 C549 1.391 . S
C549 H537 0.950 . S
C549 C545 1.393 . S
C549 C548 1.391 . S
C550 H540 0.950 . S
C550 C551 1.386 . S
C550 C552 1.391 . S
C551 C550 1.386 . S
C551 C555 1.393 . S
C552 H541 0.950 . S
C552 C550 1.391 . S
C552 C553 1.400 . S
C553 C547 1.491 . S
C553 C552 1.400 . S
C553 C554 1.398 . S
C554 H542 0.950 . S
C554 C553 1.398 . S
C554 C555 1.391 . S
C555 H543 0.950 . S
C555 C551 1.393 . S
C555 C554 1.391 . S
H556 C564 0.950 . S
H557 C569 0.950 . S
H558 C566 0.950 . S
H559 C568 0.950 . S
H560 C570 0.950 . S
H561 C572 0.950 . S
H562 C574 0.950 . S
H563 C575 0.950 . S
C564 H556 0.950 . S
C564 C565 1.386 . S
C564 C566 1.391 . S
C565 C564 1.386 . S
C565 C569 1.393 . S
C566 H558 0.950 . S
C566 C564 1.391 . S
C566 C567 1.400 . S
C567 C566 1.400 . S
C567 C568 1.398 . S
C567 C573 1.491 . S
C568 H559 0.950 . S
C568 C567 1.398 . S
C568 C569 1.391 . S
C569 H557 0.950 . S
C569 C565 1.393 . S
C569 C568 1.391 . S
C570 H560 0.950 . S
C570 C571 1.386 . S
C570 C572 1.391 . S
C571 C570 1.386 . S
C571 C575 1.393 . S
C572 H561 0.950 . S
C572 C570 1.391 . S
C572 C573 1.400 . S
C573 C567 1.491 . S
C573 C572 1.400 . S
C573 C574 1.398 . S
C574 H562 0.950 . S
C574 C573 1.398 . S
C574 C575 1.391 . S
C575 H563 0.950 . S
C575 C571 1.393 . S
C575 C574 1.391 . S
H576 C584 0.950 . S
H577 C589 0.950 . S
H578 C586 0.950 . S
H579 C588 0.950 . S
H580 C590 0.950 . S
H581 C592 0.950 . S
H582 C594 0.950 . S
H583 C595 0.950 . S
C584 H576 0.950 . S
C584 C585 1.386 . S
C584 C586 1.391 . S
C585 C584 1.386 . S
C585 C589 1.393 . S
C586 H578 0.950 . S
C586 C584 1.391 . S
C586 C587 1.400 . S
C587 C586 1.400 . S
C587 C588 1.398 . S
C587 C593 1.491 . S
C588 H579 0.950 . S
C588 C587 1.398 . S
C588 C589 1.391 . S
C589 H577 0.950 . S
C589 C585 1.393 . S
C589 C588 1.391 . S
C590 H580 0.950 . S
C590 C591 1.386 . S
C590 C592 1.391 . S
C591 C590 1.386 . S
C591 C595 1.393 . S
C592 H581 0.950 . S
C592 C590 1.391 . S
C592 C593 1.400 . S
C593 C587 1.491 . S
C593 C592 1.400 . S
C593 C594 1.398 . S
C594 H582 0.950 . S
C594 C593 1.398 . S
C594 C595 1.391 . S
C595 H583 0.950 . S
C595 C591 1.393 . S
C595 C594 1.391 . S
H596 C604 0.950 . S
H597 C609 0.950 . S
H598 C606 0.950 . S
H599 C608 0.950 . S
H600 C610 0.950 . S
H601 C612 0.950 . S
H602 C614 0.950 . S
H603 C615 0.950 . S
C604 H596 0.950 . S
C604 C605 1.386 . S
C604 C606 1.391 . S
C605 C604 1.386 . S
C605 C609 1.393 . S
C606 H598 0.950 . S
C606 C604 1.391 . S
C606 C607 1.400 . S
C607 C606 1.400 . S
C607 C608 1.398 . S
C607 C613 1.491 . S
C608 H599 0.950 . S
C608 C607 1.398 . S
C608 C609 1.391 . S
C609 H597 0.950 . S
C609 C605 1.393 . S
C609 C608 1.391 . S
C610 H600 0.950 . S
C610 C611 1.386 . S
C610 C612 1.391 . S
C611 C610 1.386 . S
C611 C615 1.393 . S
C612 H601 0.950 . S
C612 C610 1.391 . S
C612 C613 1.400 . S
C613 C607 1.491 . S
C613 C612 1.400 . S
C613 C614 1.398 . S
C614 H602 0.950 . S
C614 C613 1.398 . S
C614 C615 1.391 . S
C615 H603 0.950 . S
C615 C611 1.393 . S
C615 C614 1.391 . S
H616 C624 0.950 . S
H617 C629 0.950 . S
H618 C626 0.950 . S
H619 C628 0.950 . S
H620 C630 0.950 . S
H621 C632 0.950 . S
H622 C634 0.950 . S
H623 C635 0.950 . S
C624 H616 0.950 . S
C624 C625 1.386 . S
C624 C626 1.391 . S
C625 C624 1.386 . S
C625 C629 1.393 . S
C626 H618 0.950 . S
C626 C624 1.391 . S
C626 C627 1.400 . S
C627 C626 1.400 . S
C627 C628 1.398 . S
C627 C633 1.491 . S
C628 H619 0.950 . S
C628 C627 1.398 . S
C628 C629 1.391 . S
C629 H617 0.950 . S
C629 C625 1.393 . S
C629 C628 1.391 . S
C630 H620 0.950 . S
C630 C631 1.386 . S
C630 C632 1.391 . S
C631 C630 1.386 . S
C631 C635 1.393 . S
C632 H621 0.950 . S
C632 C630 1.391 . S
C632 C633 1.400 . S
C633 C627 1.491 . S
C633 C632 1.400 . S
C633 C634 1.398 . S
C634 H622 0.950 . S
C634 C633 1.398 . S
C634 C635 1.391 . S
C635 H623 0.950 . S
C635 C631 1.393 . S
C635 C634 1.391 . S
H636 C644 0.950 . S
H637 C649 0.950 . S
H638 C646 0.950 . S
H639 C648 0.950 . S
H640 C650 0.950 . S
H641 C652 0.950 . S
H642 C654 0.950 . S
H643 C655 0.950 . S
C644 H636 0.950 . S
C644 C645 1.386 . S
C644 C646 1.391 . S
C645 C644 1.386 . S
C645 C649 1.393 . S
C646 H638 0.950 . S
C646 C644 1.391 . S
C646 C647 1.400 . S
C647 C646 1.400 . S
C647 C648 1.398 . S
C647 C653 1.491 . S
C648 H639 0.950 . S
C648 C647 1.398 . S
C648 C649 1.391 . S
C649 H637 0.950 . S
C649 C645 1.393 . S
C649 C648 1.391 . S
C650 H640 0.950 . S
C650 C651 1.386 . S
C650 C652 1.391 . S
C651 C650 1.386 . S
C651 C655 1.393 . S
C652 H641 0.950 . S
C652 C650 1.391 . S
C652 C653 1.400 . S
C653 C647 1.491 . S
C653 C652 1.400 . S
C653 C654 1.398 . S
C654 H642 0.950 . S
C654 C653 1.398 . S
C654 C655 1.391 . S
C655 H643 0.950 . S
C655 C651 1.393 . S
C655 C654 1.391 . S
H656 C664 0.950 . S
H657 C669 0.950 . S
H658 C666 0.950 . S
H659 C668 0.950 . S
H660 C670 0.950 . S
H661 C672 0.950 . S
H662 C674 0.950 . S
H663 C675 0.950 . S
C664 H656 0.950 . S
C664 C665 1.386 . S
C664 C666 1.391 . S
C665 C664 1.386 . S
C665 C669 1.393 . S
C666 H658 0.950 . S
C666 C664 1.391 . S
C666 C667 1.400 . S
C667 C666 1.400 . S
C667 C668 1.398 . S
C667 C673 1.491 . S
C668 H659 0.950 . S
C668 C667 1.398 . S
C668 C669 1.391 . S
C669 H657 0.950 . S
C669 C665 1.393 . S
C669 C668 1.391 . S
C670 H660 0.950 . S
C670 C671 1.386 . S
C670 C672 1.391 . S
C671 C670 1.386 . S
C671 C675 1.393 . S
C672 H661 0.950 . S
C672 C670 1.391 . S
C672 C673 1.400 . S
C673 C667 1.491 . S
C673 C672 1.400 . S
C673 C674 1.398 . S
C674 H662 0.950 . S
C674 C673 1.398 . S
C674 C675 1.391 . S
C675 H663 0.950 . S
C675 C671 1.393 . S
C675 C674 1.391 . S
H676 C684 0.950 . S
H677 C689 0.950 . S
H678 C686 0.950 . S
H679 C688 0.950 . S
H680 C690 0.950 . S
H681 C692 0.950 . S
H682 C694 0.950 . S
H683 C695 0.950 . S
C684 H676 0.950 . S
C684 C685 1.386 . S
C684 C686 1.391 . S
C685 C684 1.386 . S
C685 C689 1.393 . S
C686 H678 0.950 . S
C686 C684 1.391 . S
C686 C687 1.400 . S
C687 C686 1.400 . S
C687 C688 1.398 . S
C687 C693 1.491 . S
C688 H679 0.950 . S
C688 C687 1.398 . S
C688 C689 1.391 . S
C689 H677 0.950 . S
C689 C685 1.393 . S
C689 C688 1.391 . S
C690 H680 0.950 . S
C690 C691 1.386 . S
C690 C692 1.391 . S
C691 C690 1.386 . S
C691 C695 1.393 . S
C692 H681 0.950 . S
C692 C690 1.391 . S
C692 C693 1.400 . S
C693 C687 1.491 . S
C693 C692 1.400 . S
C693 C694 1.398 . S
C694 H682 0.950 . S
C694 C693 1.398 . S
C694 C695 1.391 . S
C695 H683 0.950 . S
C695 C691 1.393 . S
C695 C694 1.391 . S
H696 C704 0.950 . S
H697 C709 0.950 . S
H698 C706 0.950 . S
H699 C708 0.950 . S
H700 C710 0.950 . S
H701 C712 0.950 . S
H702 C714 0.950 . S
H703 C715 0.950 . S
C704 H696 0.950 . S
C704 C705 1.386 . S
C704 C706 1.391 . S
C705 C704 1.386 . S
C705 C709 1.393 . S
C706 H698 0.950 . S
C706 C704 1.391 . S
C706 C707 1.400 . S
C707 C706 1.400 . S
C707 C708 1.398 . S
C707 C713 1.491 . S
C708 H699 0.950 . S
C708 C707 1.398 . S
C708 C709 1.391 . S
C709 H697 0.950 . S
C709 C705 1.393 . S
C709 C708 1.391 . S
C710 H700 0.950 . S
C710 C711 1.386 . S
C710 C712 1.391 . S
C711 C710 1.386 . S
C711 C715 1.393 . S
C712 H701 0.950 . S
C712 C710 1.391 . S
C712 C713 1.400 . S
C713 C707 1.491 . S
C713 C712 1.400 . S
C713 C714 1.398 . S
C714 H702 0.950 . S
C714 C713 1.398 . S
C714 C715 1.391 . S
C715 H703 0.950 . S
C715 C711 1.393 . S
C715 C714 1.391 . S
H716 C724 0.950 . S
H717 C729 0.950 . S
H718 C726 0.950 . S
H719 C728 0.950 . S
H720 C730 0.950 . S
H721 C732 0.950 . S
H722 C734 0.950 . S
H723 C735 0.950 . S
C724 H716 0.950 . S
C724 C725 1.386 . S
C724 C726 1.391 . S
C725 C724 1.386 . S
C725 C729 1.393 . S
C726 H718 0.950 . S
C726 C724 1.391 . S
C726 C727 1.400 . S
C727 C726 1.400 . S
C727 C728 1.398 . S
C727 C733 1.491 . S
C728 H719 0.950 . S
C728 C727 1.398 . S
C728 C729 1.391 . S
C729 H717 0.950 . S
C729 C725 1.393 . S
C729 C728 1.391 . S
C730 H720 0.950 . S
C730 C731 1.386 . S
C730 C732 1.391 . S
C731 C730 1.386 . S
C731 C735 1.393 . S
C732 H721 0.950 . S
C732 C730 1.391 . S
C732 C733 1.400 . S
C733 C727 1.491 . S
C733 C732 1.400 . S
C733 C734 1.398 . S
C734 H722 0.950 . S
C734 C733 1.398 . S
C734 C735 1.391 . S
C735 H723 0.950 . S
C735 C731 1.393 . S
C735 C734 1.391 . S
H736 C744 0.950 . S
H737 C749 0.950 . S
H738 C746 0.950 . S
H739 C748 0.950 . S
H740 C750 0.950 . S
H741 C752 0.950 . S
H742 C754 0.950 . S
H743 C755 0.950 . S
C744 H736 0.950 . S
C744 C745 1.386 . S
C744 C746 1.391 . S
C745 C744 1.386 . S
C745 C749 1.393 . S
C746 H738 0.950 . S
C746 C744 1.391 . S
C746 C747 1.400 . S
C747 C746 1.400 . S
C747 C748 1.398 . S
C747 C753 1.491 . S
C748 H739 0.950 . S
C748 C747 1.398 . S
C748 C749 1.391 . S
C749 H737 0.950 . S
C749 C745 1.393 . S
C749 C748 1.391 . S
C750 H740 0.950 . S
C750 C751 1.386 . S
C750 C752 1.391 . S
C751 C750 1.386 . S
C751 C755 1.393 . S
C752 H741 0.950 . S
C752 C750 1.391 . S
C752 C753 1.400 . S
C753 C747 1.491 . S
C753 C752 1.400 . S
C753 C754 1.398 . S
C754 H742 0.950 . S
C754 C753 1.398 . S
C754 C755 1.391 . S
C755 H743 0.950 . S
C755 C751 1.393 . S
C755 C754 1.391 . S
H756 C764 0.950 . S
H757 C769 0.950 . S
H758 C766 0.950 . S
H759 C768 0.950 . S
H760 C770 0.950 . S
H761 C772 0.950 . S
H762 C774 0.950 . S
H763 C775 0.950 . S
C764 H756 0.950 . S
C764 C765 1.386 . S
C764 C766 1.391 . S
C765 C764 1.386 . S
C765 C769 1.393 . S
C766 H758 0.950 . S
C766 C764 1.391 . S
C766 C767 1.400 . S
C767 C766 1.400 . S
C767 C768 1.398 . S
C767 C773 1.491 . S
C768 H759 0.950 . S
C768 C767 1.398 . S
C768 C769 1.391 . S
C769 H757 0.950 . S
C769 C765 1.393 . S
C769 C768 1.391 . S
C770 H760 0.950 . S
C770 C771 1.386 . S
C770 C772 1.391 . S
C771 C770 1.386 . S
C771 C775 1.393 . S
C772 H761 0.950 . S
C772 C770 1.391 . S
C772 C773 1.400 . S
C773 C767 1.491 . S
C773 C772 1.400 . S
C773 C774 1.398 . S
C774 H762 0.950 . S
C774 C773 1.398 . S
C774 C775 1.391 . S
C775 H763 0.950 . S
C775 C771 1.393 . S
C775 C774 1.391 . S
H776 C784 0.950 . S
H777 C789 0.950 . S
H778 C786 0.950 . S
H779 C788 0.950 . S
H780 C790 0.950 . S
H781 C792 0.950 . S
H782 C794 0.950 . S
H783 C795 0.950 . S
C784 H776 0.950 . S
C784 C785 1.386 . S
C784 C786 1.391 . S
C785 C784 1.386 . S
C785 C789 1.393 . S
C786 H778 0.950 . S
C786 C784 1.391 . S
C786 C787 1.400 . S
C787 C786 1.400 . S
C787 C788 1.398 . S
C787 C793 1.491 . S
C788 H779 0.950 . S
C788 C787 1.398 . S
C788 C789 1.391 . S
C789 H777 0.950 . S
C789 C785 1.393 . S
C789 C788 1.391 . S
C790 H780 0.950 . S
C790 C791 1.386 . S
C790 C792 1.391 . S
C791 C790 1.386 . S
C791 C795 1.393 . S
C792 H781 0.950 . S
C792 C790 1.391 . S
C792 C793 1.400 . S
C793 C787 1.491 . S
C793 C792 1.400 . S
C793 C794 1.398 . S
C794 H782 0.950 . S
C794 C793 1.398 . S
C794 C795 1.391 . S
C795 H783 0.950 . S
C795 C791 1.393 . S
C795 C794 1.391 . S
H796 C804 0.950 . S
H797 C809 0.950 . S
H798 C806 0.950 . S
H799 C808 0.950 . S
H800 C810 0.950 . S
H801 C812 0.950 . S
H802 C814 0.950 . S
H803 C815 0.950 . S
C804 H796 0.950 . S
C804 C805 1.386 . S
C804 C806 1.391 . S
C805 C804 1.386 . S
C805 C809 1.393 . S
C806 H798 0.950 . S
C806 C804 1.391 . S
C806 C807 1.400 . S
C807 C806 1.400 . S
C807 C808 1.398 . S
C807 C813 1.491 . S
C808 H799 0.950 . S
C808 C807 1.398 . S
C808 C809 1.391 . S
C809 H797 0.950 . S
C809 C805 1.393 . S
C809 C808 1.391 . S
C810 H800 0.950 . S
C810 C811 1.386 . S
C810 C812 1.391 . S
C811 C810 1.386 . S
C811 C815 1.393 . S
C812 H801 0.950 . S
C812 C810 1.391 . S
C812 C813 1.400 . S
C813 C807 1.491 . S
C813 C812 1.400 . S
C813 C814 1.398 . S
C814 H802 0.950 . S
C814 C813 1.398 . S
C814 C815 1.391 . S
C815 H803 0.950 . S
C815 C811 1.393 . S
C815 C814 1.391 . S
H816 C824 0.950 . S
H817 C829 0.950 . S
H818 C826 0.950 . S
H819 C828 0.950 . S
H820 C830 0.950 . S
H821 C832 0.950 . S
H822 C834 0.950 . S
H823 C835 0.950 . S
C824 H816 0.950 . S
C824 C825 1.386 . S
C824 C826 1.391 . S
C825 C824 1.386 . S
C825 C829 1.393 . S
C826 H818 0.950 . S
C826 C824 1.391 . S
C826 C827 1.400 . S
C827 C826 1.400 . S
C827 C828 1.398 . S
C827 C833 1.491 . S
C828 H819 0.950 . S
C828 C827 1.398 . S
C828 C829 1.391 . S
C829 H817 0.950 . S
C829 C825 1.393 . S
C829 C828 1.391 . S
C830 H820 0.950 . S
C830 C831 1.386 . S
C830 C832 1.391 . S
C831 C830 1.386 . S
C831 C835 1.393 . S
C832 H821 0.950 . S
C832 C830 1.391 . S
C832 C833 1.400 . S
C833 C827 1.491 . S
C833 C832 1.400 . S
C833 C834 1.398 . S
C834 H822 0.950 . S
C834 C833 1.398 . S
C834 C835 1.391 . S
C835 H823 0.950 . S
C835 C831 1.393 . S
C835 C834 1.391 . S
H836 C844 0.950 . S
H837 C849 0.950 . S
H838 C846 0.950 . S
H839 C848 0.950 . S
H840 C850 0.950 . S
H841 C852 0.950 . S
H842 C854 0.950 . S
H843 C855 0.950 . S
C844 H836 0.950 . S
C844 C845 1.386 . S
C844 C846 1.391 . S
C845 C844 1.386 . S
C845 C849 1.393 . S
C846 H838 0.950 . S
C846 C844 1.391 . S
C846 C847 1.400 . S
C847 C846 1.400 . S
C847 C848 1.398 . S
C847 C853 1.491 . S
C848 H839 0.950 . S
C848 C847 1.398 . S
C848 C849 1.391 . S
C849 H837 0.950 . S
C849 C845 1.393 . S
C849 C848 1.391 . S
C850 H840 0.950 . S
C850 C851 1.386 . S
C850 C852 1.391 . S
C851 C850 1.386 . S
C851 C855 1.393 . S
C852 H841 0.950 . S
C852 C850 1.391 . S
C852 C853 1.400 . S
C853 C847 1.491 . S
C853 C852 1.400 . S
C853 C854 1.398 . S
C854 H842 0.950 . S
C854 C853 1.398 . S
C854 C855 1.391 . S
C855 H843 0.950 . S
C855 C851 1.393 . S
C855 C854 1.391 . S
H856 C864 0.950 . S
H857 C869 0.950 . S
H858 C866 0.950 . S
H859 C868 0.950 . S
H860 C870 0.950 . S
H861 C872 0.950 . S
H862 C874 0.950 . S
H863 C875 0.950 . S
C864 H856 0.950 . S
C864 C865 1.386 . S
C864 C866 1.391 . S
C865 C864 1.386 . S
C865 C869 1.393 . S
C866 H858 0.950 . S
C866 C864 1.391 . S
C866 C867 1.400 . S
C867 C866 1.400 . S
C867 C868 1.398 . S
C867 C873 1.491 1_565 S
C868 H859 0.950 . S
C868 C867 1.398 . S
C868 C869 1.391 . S
C869 H857 0.950 . S
C869 C865 1.393 . S
C869 C868 1.391 . S
C870 H860 0.950 . S
C870 C871 1.386 . S
C870 C872 1.391 . S
C871 C870 1.386 . S
C871 C875 1.393 . S
C872 H861 0.950 . S
C872 C870 1.391 . S
C872 C873 1.400 . S
C873 C867 1.491 1_545 S
C873 C872 1.400 . S
C873 C874 1.398 . S
C874 H862 0.950 . S
C874 C873 1.398 . S
C874 C875 1.391 . S
C875 H863 0.950 . S
C875 C871 1.393 . S
C875 C874 1.391 . S
H876 C884 0.950 . S
H877 C889 0.950 . S
H878 C886 0.950 . S
H879 C888 0.950 . S
H880 C890 0.950 . S
H881 C892 0.950 . S
H882 C894 0.950 . S
H883 C895 0.950 . S
C884 H876 0.950 . S
C884 C885 1.386 . S
C884 C886 1.391 . S
C885 C884 1.386 . S
C885 C889 1.393 . S
C886 H878 0.950 . S
C886 C884 1.391 . S
C886 C887 1.400 . S
C887 C886 1.400 . S
C887 C888 1.398 . S
C887 C893 1.491 1_455 S
C888 H879 0.950 . S
C888 C887 1.398 . S
C888 C889 1.391 . S
C889 H877 0.950 . S
C889 C885 1.393 . S
C889 C888 1.391 . S
C890 H880 0.950 . S
C890 C891 1.386 . S
C890 C892 1.391 . S
C891 C890 1.386 . S
C891 C895 1.393 . S
C892 H881 0.950 . S
C892 C890 1.391 . S
C892 C893 1.400 . S
C893 C887 1.491 1_655 S
C893 C892 1.400 . S
C893 C894 1.398 . S
C894 H882 0.950 . S
C894 C893 1.398 . S
C894 C895 1.391 . S
C895 H883 0.950 . S
C895 C891 1.393 . S
C895 C894 1.391 . S
H896 C904 0.950 . S
H897 C909 0.950 . S
H898 C906 0.950 . S
H899 C908 0.950 . S
H900 C910 0.950 . S
H901 C912 0.950 . S
H902 C914 0.950 . S
H903 C915 0.950 . S
C904 H896 0.950 . S
C904 C905 1.386 . S
C904 C906 1.391 . S
C905 C904 1.386 . S
C905 C909 1.393 . S
C906 H898 0.950 . S
C906 C904 1.391 . S
C906 C907 1.400 . S
C907 C906 1.400 . S
C907 C908 1.398 . S
C907 C913 1.491 1_565 S
C908 H899 0.950 . S
C908 C907 1.398 . S
C908 C909 1.391 . S
C909 H897 0.950 . S
C909 C905 1.393 . S
C909 C908 1.391 . S
C910 H900 0.950 . S
C910 C911 1.386 . S
C910 C912 1.391 . S
C911 C910 1.386 . S
C911 C915 1.393 . S
C912 H901 0.950 . S
C912 C910 1.391 . S
C912 C913 1.400 . S
C913 C907 1.491 1_545 S
C913 C912 1.400 . S
C913 C914 1.398 . S
C914 H902 0.950 . S
C914 C913 1.398 . S
C914 C915 1.391 . S
C915 H903 0.950 . S
C915 C911 1.393 . S
C915 C914 1.391 . S
H916 C924 0.950 . S
H917 C929 0.950 . S
H918 C926 0.950 . S
H919 C928 0.950 . S
H920 C930 0.950 . S
H921 C932 0.950 . S
H922 C934 0.950 . S
H923 C935 0.950 . S
C924 H916 0.950 . S
C924 C925 1.386 . S
C924 C926 1.391 . S
C925 C924 1.386 . S
C925 C929 1.393 . S
C926 H918 0.950 . S
C926 C924 1.391 . S
C926 C927 1.400 . S
C927 C926 1.400 . S
C927 C928 1.398 . S
C927 C933 1.491 1_655 S
C928 H919 0.950 . S
C928 C927 1.398 . S
C928 C929 1.391 . S
C929 H917 0.950 . S
C929 C925 1.393 . S
C929 C928 1.391 . S
C930 H920 0.950 . S
C930 C931 1.386 . S
C930 C932 1.391 . S
C931 C930 1.386 . S
C931 C935 1.393 . S
C932 H921 0.950 . S
C932 C930 1.391 . S
C932 C933 1.400 . S
C933 C927 1.491 1_455 S
C933 C932 1.400 . S
C933 C934 1.398 . S
C934 H922 0.950 . S
C934 C933 1.398 . S
C934 C935 1.391 . S
C935 H923 0.950 . S
C935 C931 1.393 . S
C935 C934 1.391 . S
H936 C944 0.950 . S
H937 C949 0.950 . S
H938 C946 0.950 . S
H939 C948 0.950 . S
H940 C950 0.950 . S
H941 C952 0.950 . S
H942 C954 0.950 . S
H943 C955 0.950 . S
C944 H936 0.950 . S
C944 C945 1.386 . S
C944 C946 1.391 . S
C945 C944 1.386 . S
C945 C949 1.393 . S
C946 H938 0.950 . S
C946 C944 1.391 . S
C946 C947 1.400 . S
C947 C946 1.400 . S
C947 C948 1.398 . S
C947 C953 1.491 . S
C948 H939 0.950 . S
C948 C947 1.398 . S
C948 C949 1.391 . S
C949 H937 0.950 . S
C949 C945 1.393 . S
C949 C948 1.391 . S
C950 H940 0.950 . S
C950 C951 1.386 . S
C950 C952 1.391 . S
C951 C950 1.386 . S
C951 C955 1.393 . S
C952 H941 0.950 . S
C952 C950 1.391 . S
C952 C953 1.400 . S
C953 C947 1.491 . S
C953 C952 1.400 . S
C953 C954 1.398 . S
C954 H942 0.950 . S
C954 C953 1.398 . S
C954 C955 1.391 . S
C955 H943 0.950 . S
C955 C951 1.393 . S
C955 C954 1.391 . S
H956 C964 0.950 . S
H957 C969 0.950 . S
H958 C966 0.950 . S
H959 C968 0.950 . S
H960 C970 0.950 . S
H961 C972 0.950 . S
H962 C974 0.950 . S
H963 C975 0.950 . S
C964 H956 0.950 . S
C964 C965 1.386 . S
C964 C966 1.391 . S
C965 C964 1.386 . S
C965 C969 1.393 . S
C966 H958 0.950 . S
C966 C964 1.391 . S
C966 C967 1.400 . S
C967 C966 1.400 . S
C967 C968 1.398 . S
C967 C973 1.491 . S
C968 H959 0.950 . S
C968 C967 1.398 . S
C968 C969 1.391 . S
C969 H957 0.950 . S
C969 C965 1.393 . S
C969 C968 1.391 . S
C970 H960 0.950 . S
C970 C971 1.386 . S
C970 C972 1.391 . S
C971 C970 1.386 . S
C971 C975 1.393 . S
C972 H961 0.950 . S
C972 C970 1.391 . S
C972 C973 1.400 . S
C973 C967 1.491 . S
C973 C972 1.400 . S
C973 C974 1.398 . S
C974 H962 0.950 . S
C974 C973 1.398 . S
C974 C975 1.391 . S
C975 H963 0.950 . S
C975 C971 1.393 . S
C975 C974 1.391 . S
H976 C984 0.950 . S
H977 C989 0.950 . S
H978 C986 0.950 . S
H979 C988 0.950 . S
H980 C990 0.950 . S
H981 C992 0.950 . S
H982 C994 0.950 . S
H983 C995 0.950 . S
C984 H976 0.950 . S
C984 C985 1.386 . S
C984 C986 1.391 . S
C985 C984 1.386 . S
C985 C989 1.393 . S
C986 H978 0.950 . S
C986 C984 1.391 . S
C986 C987 1.400 . S
C987 C986 1.400 . S
C987 C988 1.398 . S
C987 C993 1.491 . S
C988 H979 0.950 . S
C988 C987 1.398 . S
C988 C989 1.391 . S
C989 H977 0.950 . S
C989 C985 1.393 . S
C989 C988 1.391 . S
C990 H980 0.950 . S
C990 C991 1.386 . S
C990 C992 1.391 . S
C991 C990 1.386 . S
C991 C995 1.393 . S
C992 H981 0.950 . S
C992 C990 1.391 . S
C992 C993 1.400 . S
C993 C987 1.491 . S
C993 C992 1.400 . S
C993 C994 1.398 . S
C994 H982 0.950 . S
C994 C993 1.398 . S
C994 C995 1.391 . S
C995 H983 0.950 . S
C995 C991 1.393 . S
C995 C994 1.391 . S
H996 C1004 0.950 . S
H997 C1009 0.950 . S
H998 C1006 0.950 . S
H999 C1008 0.950 . S
H1000 C1010 0.950 . S
H1001 C1012 0.950 . S
H1002 C1014 0.950 . S
H1003 C1015 0.950 . S
C1004 H996 0.950 . S
C1004 C1005 1.386 . S
C1004 C1006 1.391 . S
C1005 C1004 1.386 . S
C1005 C1009 1.393 . S
C1006 H998 0.950 . S
C1006 C1004 1.391 . S
C1006 C1007 1.400 . S
C1007 C1006 1.400 . S
C1007 C1008 1.398 . S
C1007 C1013 1.491 1_554 S
C1008 H999 0.950 . S
C1008 C1007 1.398 . S
C1008 C1009 1.391 . S
C1009 H997 0.950 . S
C1009 C1005 1.393 . S
C1009 C1008 1.391 . S
C1010 H1000 0.950 . S
C1010 C1011 1.386 . S
C1010 C1012 1.391 . S
C1011 C1010 1.386 . S
C1011 C1015 1.393 . S
C1012 H1001 0.950 . S
C1012 C1010 1.391 . S
C1012 C1013 1.400 . S
C1013 C1007 1.491 1_556 S
C1013 C1012 1.400 . S
C1013 C1014 1.398 . S
C1014 H1002 0.950 . S
C1014 C1013 1.398 . S
C1014 C1015 1.391 . S
C1015 H1003 0.950 . S
C1015 C1011 1.393 . S
C1015 C1014 1.391 . S
H1016 C1024 0.950 . S
H1017 C1029 0.950 . S
H1018 C1026 0.950 . S
H1019 C1028 0.950 . S
H1020 C1030 0.950 . S
H1021 C1032 0.950 . S
H1022 C1034 0.950 . S
H1023 C1035 0.950 . S
C1024 H1016 0.950 . S
C1024 C1025 1.386 . S
C1024 C1026 1.391 . S
C1025 C1024 1.386 . S
C1025 C1029 1.393 . S
C1026 H1018 0.950 . S
C1026 C1024 1.391 . S
C1026 C1027 1.400 . S
C1027 C1026 1.400 . S
C1027 C1028 1.398 . S
C1027 C1033 1.491 . S
C1028 H1019 0.950 . S
C1028 C1027 1.398 . S
C1028 C1029 1.391 . S
C1029 H1017 0.950 . S
C1029 C1025 1.393 . S
C1029 C1028 1.391 . S
C1030 H1020 0.950 . S
C1030 C1031 1.386 . S
C1030 C1032 1.391 . S
C1031 C1030 1.386 . S
C1031 C1035 1.393 . S
C1032 H1021 0.950 . S
C1032 C1030 1.391 . S
C1032 C1033 1.400 . S
C1033 C1027 1.491 . S
C1033 C1032 1.400 . S
C1033 C1034 1.398 . S
C1034 H1022 0.950 . S
C1034 C1033 1.398 . S
C1034 C1035 1.391 . S
C1035 H1023 0.950 . S
C1035 C1031 1.393 . S
C1035 C1034 1.391 . S
H1036 C1044 0.950 . S
H1037 C1049 0.950 . S
H1038 C1046 0.950 . S
H1039 C1048 0.950 . S
H1040 C1050 0.950 . S
H1041 C1052 0.950 . S
H1042 C1054 0.950 . S
H1043 C1055 0.950 . S
C1044 H1036 0.950 . S
C1044 C1045 1.386 . S
C1044 C1046 1.391 . S
C1045 C1044 1.386 . S
C1045 C1049 1.393 . S
C1046 H1038 0.950 . S
C1046 C1044 1.391 . S
C1046 C1047 1.400 . S
C1047 C1046 1.400 . S
C1047 C1048 1.398 . S
C1047 C1053 1.491 1_556 S
C1048 H1039 0.950 . S
C1048 C1047 1.398 . S
C1048 C1049 1.391 . S
C1049 H1037 0.950 . S
C1049 C1045 1.393 . S
C1049 C1048 1.391 . S
C1050 H1040 0.950 . S
C1050 C1051 1.386 . S
C1050 C1052 1.391 . S
C1051 C1050 1.386 . S
C1051 C1055 1.393 . S
C1052 H1041 0.950 . S
C1052 C1050 1.391 . S
C1052 C1053 1.400 . S
C1053 C1047 1.491 1_554 S
C1053 C1052 1.400 . S
C1053 C1054 1.398 . S
C1054 H1042 0.950 . S
C1054 C1053 1.398 . S
C1054 C1055 1.391 . S
C1055 H1043 0.950 . S
C1055 C1051 1.393 . S
C1055 C1054 1.391 . S
H1056 C1064 0.950 . S
H1057 C1069 0.950 . S
H1058 C1066 0.950 . S
H1059 C1068 0.950 . S
H1060 C1070 0.950 . S
H1061 C1072 0.950 . S
H1062 C1074 0.950 . S
H1063 C1075 0.950 . S
C1064 H1056 0.950 . S
C1064 C1065 1.386 . S
C1064 C1066 1.391 . S
C1065 C1064 1.386 . S
C1065 C1069 1.393 . S
C1066 H1058 0.950 . S
C1066 C1064 1.391 . S
C1066 C1067 1.400 . S
C1067 C1066 1.400 . S
C1067 C1068 1.398 . S
C1067 C1073 1.491 . S
C1068 H1059 0.950 . S
C1068 C1067 1.398 . S
C1068 C1069 1.391 . S
C1069 H1057 0.950 . S
C1069 C1065 1.393 . S
C1069 C1068 1.391 . S
C1070 H1060 0.950 . S
C1070 C1071 1.386 . S
C1070 C1072 1.391 . S
C1071 C1070 1.386 . S
C1071 C1075 1.393 . S
C1072 H1061 0.950 . S
C1072 C1070 1.391 . S
C1072 C1073 1.400 . S
C1073 C1067 1.491 . S
C1073 C1072 1.400 . S
C1073 C1074 1.398 . S
C1074 H1062 0.950 . S
C1074 C1073 1.398 . S
C1074 C1075 1.391 . S
C1075 H1063 0.950 . S
C1075 C1071 1.393 . S
C1075 C1074 1.391 . S
H1076 C1084 0.950 . S
H1077 C1089 0.950 . S
H1078 C1086 0.950 . S
H1079 C1088 0.950 . S
H1080 C1090 0.950 . S
H1081 C1092 0.950 . S
H1082 C1094 0.950 . S
H1083 C1095 0.950 . S
C1084 H1076 0.950 . S
C1084 C1085 1.386 . S
C1084 C1086 1.391 . S
C1085 C1084 1.386 . S
C1085 C1089 1.393 . S
C1086 H1078 0.950 . S
C1086 C1084 1.391 . S
C1086 C1087 1.400 . S
C1087 C1086 1.400 . S
C1087 C1088 1.398 . S
C1087 C1093 1.491 . S
C1088 H1079 0.950 . S
C1088 C1087 1.398 . S
C1088 C1089 1.391 . S
C1089 H1077 0.950 . S
C1089 C1085 1.393 . S
C1089 C1088 1.391 . S
C1090 H1080 0.950 . S
C1090 C1091 1.386 . S
C1090 C1092 1.391 . S
C1091 C1090 1.386 . S
C1091 C1095 1.393 . S
C1092 H1081 0.950 . S
C1092 C1090 1.391 . S
C1092 C1093 1.400 . S
C1093 C1087 1.491 . S
C1093 C1092 1.400 . S
C1093 C1094 1.398 . S
C1094 H1082 0.950 . S
C1094 C1093 1.398 . S
C1094 C1095 1.391 . S
C1095 H1083 0.950 . S
C1095 C1091 1.393 . S
C1095 C1094 1.391 . S
H1096 C1104 0.950 . S
H1097 C1109 0.950 . S
H1098 C1106 0.950 . S
H1099 C1108 0.950 . S
H1100 C1110 0.950 . S
H1101 C1112 0.950 . S
H1102 C1114 0.950 . S
H1103 C1115 0.950 . S
C1104 H1096 0.950 . S
C1104 C1105 1.386 . S
C1104 C1106 1.391 . S
C1105 C1104 1.386 . S
C1105 C1109 1.393 . S
C1106 H1098 0.950 . S
C1106 C1104 1.391 . S
C1106 C1107 1.400 . S
C1107 C1106 1.400 . S
C1107 C1108 1.398 . S
C1107 C1113 1.491 1_545 S
C1108 H1099 0.950 . S
C1108 C1107 1.398 . S
C1108 C1109 1.391 . S
C1109 H1097 0.950 . S
C1109 C1105 1.393 . S
C1109 C1108 1.391 . S
C1110 H1100 0.950 . S
C1110 C1111 1.386 . S
C1110 C1112 1.391 . S
C1111 C1110 1.386 . S
C1111 C1115 1.393 . S
C1112 H1101 0.950 . S
C1112 C1110 1.391 . S
C1112 C1113 1.400 . S
C1113 C1107 1.491 1_565 S
C1113 C1112 1.400 . S
C1113 C1114 1.398 . S
C1114 H1102 0.950 . S
C1114 C1113 1.398 . S
C1114 C1115 1.391 . S
C1115 H1103 0.950 . S
C1115 C1111 1.393 . S
C1115 C1114 1.391 . S
H1116 C1124 0.950 . S
H1117 C1129 0.950 . S
H1118 C1126 0.950 . S
H1119 C1128 0.950 . S
H1120 C1130 0.950 . S
H1121 C1132 0.950 . S
H1122 C1134 0.950 . S
H1123 C1135 0.950 . S
C1124 H1116 0.950 . S
C1124 C1125 1.386 . S
C1124 C1126 1.391 . S
C1125 C1124 1.386 . S
C1125 C1129 1.393 . S
C1126 H1118 0.950 . S
C1126 C1124 1.391 . S
C1126 C1127 1.400 . S
C1127 C1126 1.400 . S
C1127 C1128 1.398 . S
C1127 C1133 1.491 1_455 S
C1128 H1119 0.950 . S
C1128 C1127 1.398 . S
C1128 C1129 1.391 . S
C1129 H1117 0.950 . S
C1129 C1125 1.393 . S
C1129 C1128 1.391 . S
C1130 H1120 0.950 . S
C1130 C1131 1.386 . S
C1130 C1132 1.391 . S
C1131 C1130 1.386 . S
C1131 C1135 1.393 . S
C1132 H1121 0.950 . S
C1132 C1130 1.391 . S
C1132 C1133 1.400 . S
C1133 C1127 1.491 1_655 S
C1133 C1132 1.400 . S
C1133 C1134 1.398 . S
C1134 H1122 0.950 . S
C1134 C1133 1.398 . S
C1134 C1135 1.391 . S
C1135 H1123 0.950 . S
C1135 C1131 1.393 . S
C1135 C1134 1.391 . S
H1136 C1144 0.950 . S
H1137 C1149 0.950 . S
H1138 C1146 0.950 . S
H1139 C1148 0.950 . S
H1140 C1150 0.950 . S
H1141 C1152 0.950 . S
H1142 C1154 0.950 . S
H1143 C1155 0.950 . S
C1144 H1136 0.950 . S
C1144 C1145 1.386 . S
C1144 C1146 1.391 . S
C1145 C1144 1.386 . S
C1145 C1149 1.393 . S
C1146 H1138 0.950 . S
C1146 C1144 1.391 . S
C1146 C1147 1.400 . S
C1147 C1146 1.400 . S
C1147 C1148 1.398 . S
C1147 C1153 1.491 1_545 S
C1148 H1139 0.950 . S
C1148 C1147 1.398 . S
C1148 C1149 1.391 . S
C1149 H1137 0.950 . S
C1149 C1145 1.393 . S
C1149 C1148 1.391 . S
C1150 H1140 0.950 . S
C1150 C1151 1.386 . S
C1150 C1152 1.391 . S
C1151 C1150 1.386 . S
C1151 C1155 1.393 . S
C1152 H1141 0.950 . S
C1152 C1150 1.391 . S
C1152 C1153 1.400 . S
C1153 C1147 1.491 1_565 S
C1153 C1152 1.400 . S
C1153 C1154 1.398 . S
C1154 H1142 0.950 . S
C1154 C1153 1.398 . S
C1154 C1155 1.391 . S
C1155 H1143 0.950 . S
C1155 C1151 1.393 . S
C1155 C1154 1.391 . S
H1156 C1164 0.950 . S
H1157 C1169 0.950 . S
H1158 C1166 0.950 . S
H1159 C1168 0.950 . S
H1160 C1170 0.950 . S
H1161 C1172 0.950 . S
H1162 C1174 0.950 . S
H1163 C1175 0.950 . S
C1164 H1156 0.950 . S
C1164 C1165 1.386 . S
C1164 C1166 1.391 . S
C1165 C1164 1.386 . S
C1165 C1169 1.393 . S
C1166 H1158 0.950 . S
C1166 C1164 1.391 . S
C1166 C1167 1.400 . S
C1167 C1166 1.400 . S
C1167 C1168 1.398 . S
C1167 C1173 1.491 1_455 S
C1168 H1159 0.950 . S
C1168 C1167 1.398 . S
C1168 C1169 1.391 . S
C1169 H1157 0.950 . S
C1169 C1165 1.393 . S
C1169 C1168 1.391 . S
C1170 H1160 0.950 . S
C1170 C1171 1.386 . S
C1170 C1172 1.391 . S
C1171 C1170 1.386 . S
C1171 C1175 1.393 . S
C1172 H1161 0.950 . S
C1172 C1170 1.391 . S
C1172 C1173 1.400 . S
C1173 C1167 1.491 1_655 S
C1173 C1172 1.400 . S
C1173 C1174 1.398 . S
C1174 H1162 0.950 . S
C1174 C1173 1.398 . S
C1174 C1175 1.391 . S
C1175 H1163 0.950 . S
C1175 C1171 1.393 . S
C1175 C1174 1.391 . S
H1176 C1184 0.950 . S
H1177 C1189 0.950 . S
H1178 C1186 0.950 . S
H1179 C1188 0.950 . S
H1180 C1190 0.950 . S
H1181 C1192 0.950 . S
H1182 C1194 0.950 . S
H1183 C1195 0.950 . S
C1184 H1176 0.950 . S
C1184 C1185 1.386 . S
C1184 C1186 1.391 . S
C1185 C1184 1.386 . S
C1185 C1189 1.393 . S
C1186 H1178 0.950 . S
C1186 C1184 1.391 . S
C1186 C1187 1.400 . S
C1187 C1186 1.400 . S
C1187 C1188 1.398 . S
C1187 C1193 1.491 . S
C1188 H1179 0.950 . S
C1188 C1187 1.398 . S
C1188 C1189 1.391 . S
C1189 H1177 0.950 . S
C1189 C1185 1.393 . S
C1189 C1188 1.391 . S
C1190 H1180 0.950 . S
C1190 C1191 1.386 . S
C1190 C1192 1.391 . S
C1191 C1190 1.386 . S
C1191 C1195 1.393 . S
C1192 H1181 0.950 . S
C1192 C1190 1.391 . S
C1192 C1193 1.400 . S
C1193 C1187 1.491 . S
C1193 C1192 1.400 . S
C1193 C1194 1.398 . S
C1194 H1182 0.950 . S
C1194 C1193 1.398 . S
C1194 C1195 1.391 . S
C1195 H1183 0.950 . S
C1195 C1191 1.393 . S
C1195 C1194 1.391 . S
H1196 C1204 0.950 . S
H1197 C1209 0.950 . S
H1198 C1206 0.950 . S
H1199 C1208 0.950 . S
H1200 C1210 0.950 . S
H1201 C1212 0.950 . S
H1202 C1214 0.950 . S
H1203 C1215 0.950 . S
C1204 H1196 0.950 . S
C1204 C1205 1.386 . S
C1204 C1206 1.391 . S
C1205 C1204 1.386 . S
C1205 C1209 1.393 . S
C1206 H1198 0.950 . S
C1206 C1204 1.391 . S
C1206 C1207 1.400 . S
C1207 C1206 1.400 . S
C1207 C1208 1.398 . S
C1207 C1213 1.491 . S
C1208 H1199 0.950 . S
C1208 C1207 1.398 . S
C1208 C1209 1.391 . S
C1209 H1197 0.950 . S
C1209 C1205 1.393 . S
C1209 C1208 1.391 . S
C1210 H1200 0.950 . S
C1210 C1211 1.386 . S
C1210 C1212 1.391 . S
C1211 C1210 1.386 . S
C1211 C1215 1.393 . S
C1212 H1201 0.950 . S
C1212 C1210 1.391 . S
C1212 C1213 1.400 . S
C1213 C1207 1.491 . S
C1213 C1212 1.400 . S
C1213 C1214 1.398 . S
C1214 H1202 0.950 . S
C1214 C1213 1.398 . S
C1214 C1215 1.391 . S
C1215 H1203 0.950 . S
C1215 C1211 1.393 . S
C1215 C1214 1.391 . S
H1216 C1224 0.950 . S
H1217 C1229 0.950 . S
H1218 C1226 0.950 . S
H1219 C1228 0.950 . S
H1220 C1230 0.950 . S
H1221 C1232 0.950 . S
H1222 C1234 0.950 . S
H1223 C1235 0.950 . S
C1224 H1216 0.950 . S
C1224 C1225 1.386 . S
C1224 C1226 1.391 . S
C1225 C1224 1.386 . S
C1225 C1229 1.393 . S
C1226 H1218 0.950 . S
C1226 C1224 1.391 . S
C1226 C1227 1.400 . S
C1227 C1226 1.400 . S
C1227 C1228 1.398 . S
C1227 C1233 1.491 . S
C1228 H1219 0.950 . S
C1228 C1227 1.398 . S
C1228 C1229 1.391 . S
C1229 H1217 0.950 . S
C1229 C1225 1.393 . S
C1229 C1228 1.391 . S
C1230 H1220 0.950 . S
C1230 C1231 1.386 . S
C1230 C1232 1.391 . S
C1231 C1230 1.386 . S
C1231 C1235 1.393 . S
C1232 H1221 0.950 . S
C1232 C1230 1.391 . S
C1232 C1233 1.400 . S
C1233 C1227 1.491 . S
C1233 C1232 1.400 . S
C1233 C1234 1.398 . S
C1234 H1222 0.950 . S
C1234 C1233 1.398 . S
C1234 C1235 1.391 . S
C1235 H1223 0.950 . S
C1235 C1231 1.393 . S
C1235 C1234 1.391 . S
H1236 C1244 0.950 . S
H1237 C1249 0.950 . S
H1238 C1246 0.950 . S
H1239 C1248 0.950 . S
H1240 C1250 0.950 . S
H1241 C1252 0.950 . S
H1242 C1254 0.950 . S
H1243 C1255 0.950 . S
C1244 H1236 0.950 . S
C1244 C1245 1.386 . S
C1244 C1246 1.391 . S
C1245 C1244 1.386 . S
C1245 C1249 1.393 . S
C1246 H1238 0.950 . S
C1246 C1244 1.391 . S
C1246 C1247 1.400 . S
C1247 C1246 1.400 . S
C1247 C1248 1.398 . S
C1247 C1253 1.491 1_554 S
C1248 H1239 0.950 . S
C1248 C1247 1.398 . S
C1248 C1249 1.391 . S
C1249 H1237 0.950 . S
C1249 C1245 1.393 . S
C1249 C1248 1.391 . S
C1250 H1240 0.950 . S
C1250 C1251 1.386 . S
C1250 C1252 1.391 . S
C1251 C1250 1.386 . S
C1251 C1255 1.393 . S
C1252 H1241 0.950 . S
C1252 C1250 1.391 . S
C1252 C1253 1.400 . S
C1253 C1247 1.491 1_556 S
C1253 C1252 1.400 . S
C1253 C1254 1.398 . S
C1254 H1242 0.950 . S
C1254 C1253 1.398 . S
C1254 C1255 1.391 . S
C1255 H1243 0.950 . S
C1255 C1251 1.393 . S
C1255 C1254 1.391 . S
H1256 C1264 0.950 . S
H1257 C1269 0.950 . S
H1258 C1266 0.950 . S
H1259 C1268 0.950 . S
H1260 C1270 0.950 . S
H1261 C1272 0.950 . S
H1262 C1274 0.950 . S
H1263 C1275 0.950 . S
C1264 H1256 0.950 . S
C1264 C1265 1.386 . S
C1264 C1266 1.391 . S
C1265 C1264 1.386 . S
C1265 C1269 1.393 . S
C1266 H1258 0.950 . S
C1266 C1264 1.391 . S
C1266 C1267 1.400 . S
C1267 C1266 1.400 . S
C1267 C1268 1.398 . S
C1267 C1273 1.491 . S
C1268 H1259 0.950 . S
C1268 C1267 1.398 . S
C1268 C1269 1.391 . S
C1269 H1257 0.950 . S
C1269 C1265 1.393 . S
C1269 C1268 1.391 . S
C1270 H1260 0.950 . S
C1270 C1271 1.386 . S
C1270 C1272 1.391 . S
C1271 C1270 1.386 . S
C1271 C1275 1.393 . S
C1272 H1261 0.950 . S
C1272 C1270 1.391 . S
C1272 C1273 1.400 . S
C1273 C1267 1.491 . S
C1273 C1272 1.400 . S
C1273 C1274 1.398 . S
C1274 H1262 0.950 . S
C1274 C1273 1.398 . S
C1274 C1275 1.391 . S
C1275 H1263 0.950 . S
C1275 C1271 1.393 . S
C1275 C1274 1.391 . S
H1276 C1284 0.950 . S
H1277 C1289 0.950 . S
H1278 C1286 0.950 . S
H1279 C1288 0.950 . S
H1280 C1290 0.950 . S
H1281 C1292 0.950 . S
H1282 C1294 0.950 . S
H1283 C1295 0.950 . S
C1284 H1276 0.950 . S
C1284 C1285 1.386 . S
C1284 C1286 1.391 . S
C1285 C1284 1.386 . S
C1285 C1289 1.393 . S
C1286 H1278 0.950 . S
C1286 C1284 1.391 . S
C1286 C1287 1.400 . S
C1287 C1286 1.400 . S
C1287 C1288 1.398 . S
C1287 C1293 1.491 1_554 S
C1288 H1279 0.950 . S
C1288 C1287 1.398 . S
C1288 C1289 1.391 . S
C1289 H1277 0.950 . S
C1289 C1285 1.393 . S
C1289 C1288 1.391 . S
C1290 H1280 0.950 . S
C1290 C1291 1.386 . S
C1290 C1292 1.391 . S
C1291 C1290 1.386 . S
C1291 C1295 1.393 . S
C1292 H1281 0.950 . S
C1292 C1290 1.391 . S
C1292 C1293 1.400 . S
C1293 C1287 1.491 1_556 S
C1293 C1292 1.400 . S
C1293 C1294 1.398 . S
C1294 H1282 0.950 . S
C1294 C1293 1.398 . S
C1294 C1295 1.391 . S
C1295 H1283 0.950 . S
C1295 C1291 1.393 . S
C1295 C1294 1.391 . S
C345 C57 1.460 . S
C351 C13 1.471 . S
C365 C15 1.464 . S
C371 C71 1.461 . S
C385 C97 1.469 . S
C391 C40 1.459 . S
C405 C99 1.468 . S
C411 C43 1.469 . S
C425 C208 1.460 . S
C431 C112 1.470 . S
C445 C210 1.465 . S
C451 C127 1.461 . S
C465 C141 1.461 . S
C471 C168 1.464 . S
C485 C182 1.467 . S
C491 C154 1.459 . S
C505 C224 1.472 . S
C511 C295 1.463 . S
C525 C251 1.460 . S
C531 C266 1.467 . S
C545 C252 1.467 . S
C551 C293 1.470 . S
C565 C320 1.472 . S
C571 C322 1.463 . S
C585 C55 1.459 . S
C591 C83 1.468 . S
C605 C1 1.466 . S
C611 C85 1.471 . S
C625 C111 1.470 . S
C631 C27 1.468 . S
C645 C28 1.462 . S
C651 C69 1.472 . S
C665 C334 1.460 . S
C671 C264 1.469 . S
C685 C278 1.460 . S
C691 C307 1.467 . S
C705 C281 1.463 . S
C711 C308 1.462 . S
C725 C239 1.459 . S
C731 C236 1.467 . S
C745 C166 1.467 . S
C751 C139 1.460 . S
C765 C222 1.462 . S
C771 C194 1.472 . S
C785 C180 1.462 . S
C791 C196 1.472 . S
C805 C153 1.460 . S
C811 C124 1.471 . S
C825 C321 1.488 . S
C831 C12 1.491 . S
C845 C225 1.491 . S
C851 C14 1.489 . S
C865 C323 1.489 . S
C871 C41 1.487 . S
C885 C294 1.488 . S
C891 C42 1.488 . S
C905 C253 1.491 . S
C911 C56 1.488 . S
C925 C70 1.487 . S
C931 C267 1.490 . S
C945 C292 1.490 . S
C951 C96 1.491 . S
C965 C250 1.491 . S
C971 C98 1.488 . S
C985 C183 1.487 . S
C991 C113 1.490 . S
C1005 C209 1.490 . S
C1011 C126 1.487 . S
C1025 C211 1.487 . S
C1031 C140 1.490 . S
C1045 C155 1.487 . S
C1051 C169 1.490 . S
C1065 C82 1.487 . S
C1071 C152 1.487 . S
C1085 C84 1.487 . S
C1091 C167 1.490 . S
C1105 C125 1.491 . S
C1111 C110 1.489 . S
C1125 C68 1.489 . S
C1131 C138 1.491 . S
C1145 C197 1.490 . S
C1151 C54 1.487 . S
C1165 C0 1.490 . S
C1171 C223 1.491 . S
C1185 C181 1.491 . S
C1191 C26 1.489 . S
C1205 C29 1.489 . S
C1211 C195 1.491 . S
C1225 C238 1.489 . S
C1231 C335 1.487 . S
C1245 C306 1.490 . S
C1251 C265 1.491 . S
C1265 C309 1.487 . S
C1271 C279 1.490 . S
C1285 C237 1.491 . S
C1291 C280 1.488 . S
