# Generated by pormake.
# Topology unr, (4)-cn, num edge types: 1
# Building blocks:
#     Node 0, Type 0, BuildingBlock: ICAMEG_clean_sbu_1, # of connection points: 4
#     Node 1, Type 0, BuildingBlock: ICAMEG_clean_sbu_1, # of connection points: 4
#     Node 2, Type 0, BuildingBlock: ICAMEG_clean_sbu_1, # of connection points: 4
#     Node 3, Type 0, BuildingBlock: ICAMEG_clean_sbu_1, # of connection points: 4
#     Node 4, Type 0, BuildingBlock: ICAMEG_clean_sbu_1, # of connection points: 4
#     Node 5, Type 0, BuildingBlock: ICAMEG_clean_sbu_1, # of connection points: 4
#     Node 6, Type 0, BuildingBlock: ICAMEG_clean_sbu_1, # of connection points: 4
#     Node 7, Type 0, BuildingBlock: ICAMEG_clean_sbu_1, # of connection points: 4
#     Node 8, Type 0, BuildingBlock: ICAMEG_clean_sbu_1, # of connection points: 4
#     Node 9, Type 0, BuildingBlock: ICAMEG_clean_sbu_1, # of connection points: 4
#     Node 10, Type 0, BuildingBlock: ICAMEG_clean_sbu_1, # of connection points: 4
#     Node 11, Type 0, BuildingBlock: ICAMEG_clean_sbu_1, # of connection points: 4
#     Node 12, Type 0, BuildingBlock: ICAMEG_clean_sbu_1, # of connection points: 4
#     Node 13, Type 0, BuildingBlock: ICAMEG_clean_sbu_1, # of connection points: 4
#     Node 14, Type 0, BuildingBlock: ICAMEG_clean_sbu_1, # of connection points: 4
#     Node 15, Type 0, BuildingBlock: ICAMEG_clean_sbu_1, # of connection points: 4
#     Node 16, Type 0, BuildingBlock: ICAMEG_clean_sbu_1, # of connection points: 4
#     Node 17, Type 0, BuildingBlock: ICAMEG_clean_sbu_1, # of connection points: 4
#     Node 18, Type 0, BuildingBlock: ICAMEG_clean_sbu_1, # of connection points: 4
#     Node 19, Type 0, BuildingBlock: ICAMEG_clean_sbu_1, # of connection points: 4
#     Node 20, Type 0, BuildingBlock: ICAMEG_clean_sbu_1, # of connection points: 4
#     Node 21, Type 0, BuildingBlock: ICAMEG_clean_sbu_1, # of connection points: 4
#     Node 22, Type 0, BuildingBlock: ICAMEG_clean_sbu_1, # of connection points: 4
#     Node 23, Type 0, BuildingBlock: ICAMEG_clean_sbu_1, # of connection points: 4
#     Node 24, Type 0, BuildingBlock: ICAMEG_clean_sbu_1, # of connection points: 4
#     Node 25, Type 0, BuildingBlock: ICAMEG_clean_sbu_1, # of connection points: 4
#     Node 26, Type 0, BuildingBlock: ICAMEG_clean_sbu_1, # of connection points: 4
#     Node 27, Type 0, BuildingBlock: ICAMEG_clean_sbu_1, # of connection points: 4
#     Node 28, Type 0, BuildingBlock: ICAMEG_clean_sbu_1, # of connection points: 4
#     Node 29, Type 0, BuildingBlock: ICAMEG_clean_sbu_1, # of connection points: 4
#     Node 30, Type 0, BuildingBlock: ICAMEG_clean_sbu_1, # of connection points: 4
#     Node 31, Type 0, BuildingBlock: ICAMEG_clean_sbu_1, # of connection points: 4
#     Node 32, Type 0, BuildingBlock: ICAMEG_clean_sbu_1, # of connection points: 4
#     Node 33, Type 0, BuildingBlock: ICAMEG_clean_sbu_1, # of connection points: 4
#     Node 34, Type 0, BuildingBlock: ICAMEG_clean_sbu_1, # of connection points: 4
#     Node 35, Type 0, BuildingBlock: ICAMEG_clean_sbu_1, # of connection points: 4
#     Edge 36, Type (0, 0), BuildingBlock: UVAHIK_clean_linker_0, # of connection points: 2
#     Edge 37, Type (0, 0), BuildingBlock: UVAHIK_clean_linker_0, # of connection points: 2
#     Edge 38, Type (0, 0), BuildingBlock: UVAHIK_clean_linker_0, # of connection points: 2
#     Edge 39, Type (0, 0), BuildingBlock: UVAHIK_clean_linker_0, # of connection points: 2
#     Edge 40, Type (0, 0), BuildingBlock: UVAHIK_clean_linker_0, # of connection points: 2
#     Edge 41, Type (0, 0), BuildingBlock: UVAHIK_clean_linker_0, # of connection points: 2
#     Edge 42, Type (0, 0), BuildingBlock: UVAHIK_clean_linker_0, # of connection points: 2
#     Edge 43, Type (0, 0), BuildingBlock: UVAHIK_clean_linker_0, # of connection points: 2
#     Edge 44, Type (0, 0), BuildingBlock: UVAHIK_clean_linker_0, # of connection points: 2
#     Edge 45, Type (0, 0), BuildingBlock: UVAHIK_clean_linker_0, # of connection points: 2
#     Edge 46, Type (0, 0), BuildingBlock: UVAHIK_clean_linker_0, # of connection points: 2
#     Edge 47, Type (0, 0), BuildingBlock: UVAHIK_clean_linker_0, # of connection points: 2
#     Edge 48, Type (0, 0), BuildingBlock: UVAHIK_clean_linker_0, # of connection points: 2
#     Edge 49, Type (0, 0), BuildingBlock: UVAHIK_clean_linker_0, # of connection points: 2
#     Edge 50, Type (0, 0), BuildingBlock: UVAHIK_clean_linker_0, # of connection points: 2
#     Edge 51, Type (0, 0), BuildingBlock: UVAHIK_clean_linker_0, # of connection points: 2
#     Edge 52, Type (0, 0), BuildingBlock: UVAHIK_clean_linker_0, # of connection points: 2
#     Edge 53, Type (0, 0), BuildingBlock: UVAHIK_clean_linker_0, # of connection points: 2
#     Edge 54, Type (0, 0), BuildingBlock: UVAHIK_clean_linker_0, # of connection points: 2
#     Edge 55, Type (0, 0), BuildingBlock: UVAHIK_clean_linker_0, # of connection points: 2
#     Edge 56, Type (0, 0), BuildingBlock: UVAHIK_clean_linker_0, # of connection points: 2
#     Edge 57, Type (0, 0), BuildingBlock: UVAHIK_clean_linker_0, # of connection points: 2
#     Edge 58, Type (0, 0), BuildingBlock: UVAHIK_clean_linker_0, # of connection points: 2
#     Edge 59, Type (0, 0), BuildingBlock: UVAHIK_clean_linker_0, # of connection points: 2
#     Edge 60, Type (0, 0), BuildingBlock: UVAHIK_clean_linker_0, # of connection points: 2
#     Edge 61, Type (0, 0), BuildingBlock: UVAHIK_clean_linker_0, # of connection points: 2
#     Edge 62, Type (0, 0), BuildingBlock: UVAHIK_clean_linker_0, # of connection points: 2
#     Edge 63, Type (0, 0), BuildingBlock: UVAHIK_clean_linker_0, # of connection points: 2
#     Edge 64, Type (0, 0), BuildingBlock: UVAHIK_clean_linker_0, # of connection points: 2
#     Edge 65, Type (0, 0), BuildingBlock: UVAHIK_clean_linker_0, # of connection points: 2
#     Edge 66, Type (0, 0), BuildingBlock: UVAHIK_clean_linker_0, # of connection points: 2
#     Edge 67, Type (0, 0), BuildingBlock: UVAHIK_clean_linker_0, # of connection points: 2
#     Edge 68, Type (0, 0), BuildingBlock: UVAHIK_clean_linker_0, # of connection points: 2
#     Edge 69, Type (0, 0), BuildingBlock: UVAHIK_clean_linker_0, # of connection points: 2
#     Edge 70, Type (0, 0), BuildingBlock: UVAHIK_clean_linker_0, # of connection points: 2
#     Edge 71, Type (0, 0), BuildingBlock: UVAHIK_clean_linker_0, # of connection points: 2
#     Edge 72, Type (0, 0), BuildingBlock: UVAHIK_clean_linker_0, # of connection points: 2
#     Edge 73, Type (0, 0), BuildingBlock: UVAHIK_clean_linker_0, # of connection points: 2
#     Edge 74, Type (0, 0), BuildingBlock: UVAHIK_clean_linker_0, # of connection points: 2
#     Edge 75, Type (0, 0), BuildingBlock: UVAHIK_clean_linker_0, # of connection points: 2
#     Edge 76, Type (0, 0), BuildingBlock: UVAHIK_clean_linker_0, # of connection points: 2
#     Edge 77, Type (0, 0), BuildingBlock: UVAHIK_clean_linker_0, # of connection points: 2
#     Edge 78, Type (0, 0), BuildingBlock: UVAHIK_clean_linker_0, # of connection points: 2
#     Edge 79, Type (0, 0), BuildingBlock: UVAHIK_clean_linker_0, # of connection points: 2
#     Edge 80, Type (0, 0), BuildingBlock: UVAHIK_clean_linker_0, # of connection points: 2
#     Edge 81, Type (0, 0), BuildingBlock: UVAHIK_clean_linker_0, # of connection points: 2
#     Edge 82, Type (0, 0), BuildingBlock: UVAHIK_clean_linker_0, # of connection points: 2
#     Edge 83, Type (0, 0), BuildingBlock: UVAHIK_clean_linker_0, # of connection points: 2
#     Edge 84, Type (0, 0), BuildingBlock: UVAHIK_clean_linker_0, # of connection points: 2
#     Edge 85, Type (0, 0), BuildingBlock: UVAHIK_clean_linker_0, # of connection points: 2
#     Edge 86, Type (0, 0), BuildingBlock: UVAHIK_clean_linker_0, # of connection points: 2
#     Edge 87, Type (0, 0), BuildingBlock: UVAHIK_clean_linker_0, # of connection points: 2
#     Edge 88, Type (0, 0), BuildingBlock: UVAHIK_clean_linker_0, # of connection points: 2
#     Edge 89, Type (0, 0), BuildingBlock: UVAHIK_clean_linker_0, # of connection points: 2
#     Edge 90, Type (0, 0), BuildingBlock: UVAHIK_clean_linker_0, # of connection points: 2
#     Edge 91, Type (0, 0), BuildingBlock: UVAHIK_clean_linker_0, # of connection points: 2
#     Edge 92, Type (0, 0), BuildingBlock: UVAHIK_clean_linker_0, # of connection points: 2
#     Edge 93, Type (0, 0), BuildingBlock: UVAHIK_clean_linker_0, # of connection points: 2
#     Edge 94, Type (0, 0), BuildingBlock: UVAHIK_clean_linker_0, # of connection points: 2
#     Edge 95, Type (0, 0), BuildingBlock: UVAHIK_clean_linker_0, # of connection points: 2
#     Edge 96, Type (0, 0), BuildingBlock: UVAHIK_clean_linker_0, # of connection points: 2
#     Edge 97, Type (0, 0), BuildingBlock: UVAHIK_clean_linker_0, # of connection points: 2
#     Edge 98, Type (0, 0), BuildingBlock: UVAHIK_clean_linker_0, # of connection points: 2
#     Edge 99, Type (0, 0), BuildingBlock: UVAHIK_clean_linker_0, # of connection points: 2
#     Edge 100, Type (0, 0), BuildingBlock: UVAHIK_clean_linker_0, # of connection points: 2
#     Edge 101, Type (0, 0), BuildingBlock: UVAHIK_clean_linker_0, # of connection points: 2
#     Edge 102, Type (0, 0), BuildingBlock: UVAHIK_clean_linker_0, # of connection points: 2
#     Edge 103, Type (0, 0), BuildingBlock: UVAHIK_clean_linker_0, # of connection points: 2
#     Edge 104, Type (0, 0), BuildingBlock: UVAHIK_clean_linker_0, # of connection points: 2
#     Edge 105, Type (0, 0), BuildingBlock: UVAHIK_clean_linker_0, # of connection points: 2
#     Edge 106, Type (0, 0), BuildingBlock: UVAHIK_clean_linker_0, # of connection points: 2
#     Edge 107, Type (0, 0), BuildingBlock: UVAHIK_clean_linker_0, # of connection points: 2
# Relax obj value: 0.329
# Max RMSD: 0.100
# Mean RMSD: 0.099
data_MOF--net-unr--node1-ICAMEG_clean_sbu_1--edge1-UVAHIK_clean_linker_0
_symmetry_space_group_name_H-M    P1
_symmetry_Int_Tables_number       1
_symmetry_cell_setting            triclinic
loop_
_symmetry_equiv_pos_as_xyz
'x, y, z'
_cell_length_a     65.882891
_cell_length_b     65.889375
_cell_length_c     147.01948
_cell_angle_alpha  89.988184
_cell_angle_beta   89.992634
_cell_angle_gamma 119.98904
loop_
_atom_site_label
_atom_site_type_symbol
_atom_site_fract_x
_atom_site_fract_y
_atom_site_fract_z
_atom_type_partial_charge
Co0 Co 0.17841 0.15954 0.17079 0.0
Co1 Co 0.15237 0.13751 0.19136 0.0
O2 O 0.17991 0.158 0.18407 0.0
C3 C 0.21742 0.15121 0.17421 0.0
O4 O 0.20278 0.134 0.17948 0.0
C5 C 0.18044 0.1815 0.20265 0.0
O6 O 0.19562 0.1922 0.1961 0.0
O7 O 0.13563 0.15249 0.18598 0.0
O8 O 0.14573 0.15478 0.17129 0.0
H9 H 0.06608 0.08361 0.1962 0.0
H10 H 0.21978 0.19806 0.18005 0.0
O11 O 0.21068 0.16378 0.17005 0.0
H12 H 0.18134 0.23603 0.16438 0.0
H13 H 0.21202 0.19116 0.13984 0.0
H14 H 0.14259 0.13264 0.15673 0.0
H15 H 0.16512 0.19334 0.16326 0.0
H16 H 0.21272 0.18926 0.15659 0.0
O17 O 0.16319 0.16083 0.20157 0.0
H18 H 0.10165 0.10865 0.18725 0.0
H19 H 0.14367 0.1238 0.21096 0.0
H20 H 0.14104 0.13404 0.13999 0.0
H21 H 0.23677 0.24085 0.18125 0.0
H22 H 0.17594 0.16348 0.13143 0.0
H23 H 0.21746 0.26011 0.17341 0.0
O24 O 0.1651 0.12515 0.16988 0.0
H25 H 0.22175 0.13674 0.20538 0.0
H26 H 0.14052 0.08811 0.19456 0.0
H27 H 0.16153 0.06901 0.20074 0.0
H28 H 0.20243 0.09337 0.20624 0.0
H29 H 0.20028 0.15508 0.19902 0.0
H30 H 0.10852 0.09901 0.22017 0.0
H31 H 0.06939 0.07864 0.21278 0.0
O32 O 0.14 0.11295 0.18159 0.0
C33 C 0.13224 0.15458 0.17759 0.0
C34 C 0.08305 0.09232 0.19949 0.0
C35 C 0.10686 0.10099 0.21294 0.0
N36 N 0.12475 0.11754 0.19856 0.0
C37 C 0.10326 0.10649 0.19445 0.0
C38 C 0.1267 0.11505 0.20769 0.0
C39 C 0.08491 0.08956 0.2088 0.0
C40 C 0.21134 0.20631 0.17658 0.0
N41 N 0.1914 0.19318 0.17164 0.0
C42 C 0.22101 0.23055 0.17731 0.0
C43 C 0.21016 0.24134 0.17291 0.0
C44 C 0.18987 0.22784 0.16786 0.0
C45 C 0.18069 0.20364 0.16729 0.0
C46 C 0.19667 0.17831 0.14349 0.0
C47 C 0.15777 0.14562 0.15306 0.0
C48 C 0.19697 0.17714 0.15297 0.0
N49 N 0.17761 0.16104 0.15763 0.0
C50 C 0.15683 0.14627 0.14358 0.0
C51 C 0.17642 0.16277 0.13878 0.0
C52 C 0.14807 0.1091 0.17432 0.0
C53 C 0.20387 0.12594 0.20307 0.0
C54 C 0.15831 0.09888 0.19694 0.0
C55 C 0.17011 0.08794 0.20044 0.0
C56 C 0.19305 0.1016 0.20353 0.0
N57 N 0.16898 0.12278 0.19656 0.0
C58 C 0.19151 0.13627 0.19953 0.0
Co59 Co 0.85947 0.01089 0.19039 0.0
Co60 Co 0.83765 0.01659 0.17019 0.0
O61 O 0.8402 0.02025 0.18346 0.0
C62 C 0.81797 -9e-05 0.20257 0.0
O63 O 0.80645 0.00312 0.19599 0.0
C64 C 0.84869 0.06499 0.17335 0.0
O65 O 0.8659 0.06705 0.1785 0.0
O66 O 0.87223 0.03609 0.16905 0.0
O67 O 0.88238 0.01963 0.18011 0.0
H68 H 0.85991 0.00145 0.13929 0.0
H69 H 0.84802 0.04564 0.19823 0.0
O70 O 0.83796 0.0019 0.20113 0.0
H71 H 0.93428 0.08512 0.19802 0.0
H72 H 0.89894 0.00294 0.21844 0.0
H73 H 0.88289 0.98365 0.18588 0.0
H74 H 0.91067 0.04459 0.19247 0.0
H75 H 0.87593 0.01633 0.20966 0.0
O76 O 0.83526 0.04564 0.16937 0.0
H77 H 0.86229 0.00505 0.15601 0.0
H78 H 0.80848 0.02268 0.15616 0.0
H79 H 0.90601 0.97 0.1944 0.0
H80 H 0.87095 0.086 0.204 0.0
H81 H 0.91421 0.97965 0.21081 0.0
H82 H 0.91443 0.10609 0.20389 0.0
O83 O 0.8406 0.97884 0.18548 0.0
H84 H 0.75834 0.99854 0.18149 0.0
H85 H 0.8014 0.97015 0.16291 0.0
H86 H 0.75851 0.94574 0.16443 0.0
H87 H 0.73667 0.95993 0.17376 0.0
H88 H 0.80128 0.02226 0.17986 0.0
H89 H 0.80565 0.01948 0.13943 0.0
H90 H 0.83142 0.00869 0.13089 0.0
O91 O 0.8403 0.98739 0.17075 0.0
C92 C 0.8874 0.03297 0.17319 0.0
C93 C 0.84851 0.00606 0.14294 0.0
C94 C 0.81808 0.01621 0.14302 0.0
N95 N 0.83535 0.01378 0.15705 0.0
C96 C 0.84972 0.00803 0.1524 0.0
C97 C 0.81978 0.01802 0.15248 0.0
C98 C 0.83254 0.01015 0.13823 0.0
C99 C 0.86688 0.05403 0.19831 0.0
N100 N 0.87791 0.04257 0.19511 0.0
C101 C 0.87981 0.07699 0.20152 0.0
C102 C 0.9042 0.08828 0.20143 0.0
C103 C 0.91535 0.07653 0.19814 0.0
C104 C 0.90185 0.05358 0.19498 0.0
C105 C 0.89551 0.99864 0.2113 0.0
C106 C 0.88641 0.98799 0.19301 0.0
C107 C 0.88244 0.00613 0.20629 0.0
N108 N 0.87811 0.00085 0.19725 0.0
C109 C 0.89951 0.98018 0.1978 0.0
C110 C 0.90408 0.98559 0.20701 0.0
C111 C 0.83851 0.97329 0.17709 0.0
C112 C 0.76766 0.99215 0.17741 0.0
C113 C 0.79207 0.97635 0.16705 0.0
C114 C 0.76776 0.9625 0.16785 0.0
C115 C 0.75551 0.97049 0.17308 0.0
N116 N 0.80386 0.99756 0.17134 0.0
C117 C 0.79197 0.00554 0.17644 0.0
Co118 Co 0.98674 0.84651 0.19188 0.0
Co119 Co 0.98033 0.82132 0.17092 0.0
O120 O 0.97871 0.81925 0.18423 0.0
C121 C 0.00347 0.81764 0.20211 0.0
O122 O -0.00096 0.80346 0.1952 0.0
C123 C 0.93313 0.78244 0.17471 0.0
O124 O 0.93122 0.79677 0.18039 0.0
O125 O 0.95956 0.8351 0.17079 0.0
O126 O 0.97365 0.85938 0.18272 0.0
H127 H 0.98983 0.86047 0.14063 0.0
H128 H 0.95701 0.79818 0.19929 0.0
O129 O 7e-05 0.83501 0.20155 0.0
H130 H 0.91029 0.83712 0.2031 0.0
H131 H 0.9951 0.88885 0.2214 0.0
H132 H 0.00821 0.89743 0.18826 0.0
H133 H 0.94973 0.85836 0.19633 0.0
H134 H 0.98383 0.8542 0.21176 0.0
O135 O 0.952 0.78932 0.17022 0.0
H136 H 0.98847 0.85804 0.15738 0.0
H137 H 0.9738 0.78758 0.15617 0.0
H138 H 0.0196 0.93251 0.19764 0.0
H139 H 0.91788 0.77648 0.20623 0.0
H140 H 0.01305 0.92835 0.21434 0.0
H141 H 0.89413 0.7959 0.20814 0.0
O142 O 0.01793 0.86361 0.186 0.0
H143 H 0.00306 0.76155 0.17959 0.0
H144 H 0.02649 0.83438 0.16249 0.0
H145 H 0.05253 0.81754 0.16262 0.0
H146 H 0.04084 0.78083 0.17119 0.0
H147 H 0.97769 0.77917 0.17939 0.0
H148 H 0.9748 0.78917 0.1394 0.0
H149 H 0.98297 0.82585 0.13152 0.0
O150 O 0.00854 0.85367 0.17138 0.0
C151 C 0.96101 0.85184 0.17559 0.0
C152 C 0.98635 0.84441 0.14398 0.0
C153 C 0.97789 0.80439 0.14329 0.0
N154 N 0.98133 0.82279 0.15774 0.0
C155 C 0.98564 0.84296 0.15347 0.0
C156 C 0.97732 0.80358 0.15278 0.0
C157 C 0.98248 0.82498 0.13888 0.0
C158 C 0.94712 0.80699 0.20026 0.0
N159 N 0.95596 0.8297 0.19754 0.0
C160 C 0.92481 0.7945 0.20413 0.0
C161 C 0.91146 0.80538 0.20518 0.0
C162 C 0.92051 0.8285 0.20235 0.0
C163 C 0.94288 0.84043 0.19851 0.0
C164 C 0.99801 0.89088 0.21413 0.0
C165 C 0.0052 0.89545 0.19551 0.0
C166 C 0.99172 0.87133 0.20864 0.0
N167 N 0.99523 0.87376 0.19944 0.0
C168 C 0.01173 0.91539 0.2008 0.0
C169 C 0.00807 0.91304 0.21017 0.0
C170 C 0.0225 0.86709 0.17753 0.0
C171 C 0.00836 0.77757 0.17583 0.0
C172 C 0.02139 0.81855 0.16633 0.0
C173 C 0.03615 0.80902 0.16633 0.0
C174 C 0.02956 0.7884 0.17113 0.0
N175 N 0.00065 0.80786 0.17099 0.0
C176 C 0.99403 0.78759 0.17567 0.0
Co177 Co 0.14297 0.15607 0.30768 0.0
Co178 Co 0.15899 0.17975 0.32894 0.0
O179 O 0.16074 0.18295 0.31565 0.0
C180 C 0.1887 0.18733 0.29774 0.0
O181 O 0.19673 0.20313 0.30422 0.0
C182 C 0.15028 0.21841 0.32525 0.0
O183 O 0.13462 0.20429 0.31935 0.0
O184 O 0.1244 0.16547 0.32853 0.0
O185 O 0.11616 0.14181 0.31649 0.0
H186 H 0.12658 0.1383 0.35865 0.0
H187 H 0.16001 0.2048 0.30079 0.0
O188 O 0.16874 0.16882 0.2984 0.0
H189 H 0.0748 0.16225 0.29554 0.0
H190 H 0.11309 0.11491 0.27765 0.0
H191 H 0.11486 0.10482 0.31082 0.0
H192 H 0.09405 0.14224 0.30249 0.0
H193 H 0.13439 0.14925 0.28766 0.0
O194 O 0.16211 0.2115 0.32983 0.0
H195 H 0.12934 0.14193 0.34193 0.0
H196 H 0.18444 0.2125 0.34418 0.0
H197 H 0.09325 0.07003 0.30107 0.0
H198 H 0.14158 0.22529 0.29368 0.0
H199 H 0.09225 0.07495 0.28435 0.0
H200 H 0.0986 0.20406 0.29103 0.0
O201 O 0.15775 0.13981 0.31362 0.0
H202 H 0.2419 0.24053 0.32132 0.0
H203 H 0.19173 0.16687 0.33781 0.0
H204 H 0.23466 0.18413 0.33822 0.0
H205 H 0.26006 0.22126 0.32995 0.0
H206 H 0.19888 0.22253 0.32101 0.0
H207 H 0.18217 0.2097 0.36092 0.0
H208 H 0.15314 0.17235 0.36826 0.0
O209 O 0.15535 0.14755 0.3283 0.0
C210 C 0.10994 0.14873 0.32351 0.0
C211 C 0.13938 0.15463 0.35553 0.0
C212 C 0.17055 0.19471 0.35681 0.0
N213 N 0.15723 0.1773 0.34209 0.0
C214 C 0.14108 0.15676 0.34607 0.0
C215 C 0.17174 0.1962 0.34732 0.0
C216 C 0.15427 0.17375 0.36092 0.0
C217 C 0.14147 0.19519 0.29949 0.0
N218 N 0.12833 0.17214 0.3019 0.0
C219 C 0.13104 0.207 0.29553 0.0
C220 C 0.10692 0.19511 0.29407 0.0
C221 C 0.09357 0.17166 0.29661 0.0
C222 C 0.1046 0.16043 0.30055 0.0
C223 C 0.11335 0.11254 0.28492 0.0
C224 C 0.11441 0.10713 0.30356 0.0
C225 C 0.12543 0.13191 0.29063 0.0
N226 N 0.12573 0.12906 0.29983 0.0
C227 C 0.10219 0.08735 0.29807 0.0
C228 C 0.10166 0.09013 0.28869 0.0
C229 C 0.15761 0.13534 0.32205 0.0
C230 C 0.23102 0.22434 0.32494 0.0
C231 C 0.20264 0.18291 0.33412 0.0
C232 C 0.22695 0.19266 0.33441 0.0
C233 C 0.2412 0.21351 0.32978 0.0
N234 N 0.1928 0.19361 0.32934 0.0
C235 C 0.20665 0.21408 0.32481 0.0
Co236 Co 0.83848 0.98625 0.3079 0.0
Co237 Co 0.81998 0.97926 0.33004 0.0
O238 O 0.81422 0.97843 0.31698 0.0
C239 C 0.83276 0.01964 0.29626 0.0
O240 O 0.85429 0.0354 0.29848 0.0
C241 C 0.78111 0.93205 0.32658 0.0
O242 O 0.7945 0.93113 0.32017 0.0
O243 O 0.83443 0.95923 0.32855 0.0
O244 O 0.85403 0.97258 0.31542 0.0
H245 H 0.86711 0.98775 0.35812 0.0
H246 H 0.78858 0.95907 0.30234 0.0
O247 O 0.82305 -0.00044 0.30006 0.0
H248 H 0.82189 0.90871 0.29486 0.0
H249 H 0.86951 0.99342 0.276 0.0
H250 H 0.89017 0.00806 0.30851 0.0
H251 H 0.8467 0.94785 0.30154 0.0
H252 H 0.83875 0.98238 0.28762 0.0
O253 O 0.78852 0.95041 0.33145 0.0
H254 H 0.86029 0.98743 0.34161 0.0
H255 H 0.7901 0.9709 0.34638 0.0
H256 H 0.92148 0.01931 0.29712 0.0
H257 H 0.76323 0.92016 0.29555 0.0
H258 H 0.91123 0.01201 0.28073 0.0
H259 H 0.77984 0.89464 0.2918 0.0
O260 O 0.85808 0.017 0.3139 0.0
H261 H 0.75832 0.00175 0.32506 0.0
H262 H 0.83386 0.02399 0.3398 0.0
H263 H 0.81654 0.04941 0.34158 0.0
H264 H 0.77846 0.03828 0.3342 0.0
H265 H 0.77638 0.97695 0.32339 0.0
H266 H 0.79606 0.97081 0.36295 0.0
H267 H 0.83484 0.9794 0.36891 0.0
O268 O 0.85177 0.00795 0.32875 0.0
C269 C 0.84927 0.96049 0.3227 0.0
C270 C 0.85017 0.9841 0.35561 0.0
C271 C 0.81028 0.97456 0.35832 0.0
N272 N 0.82493 0.97946 0.34305 0.0
C273 C 0.84624 0.98399 0.34627 0.0
C274 C 0.807 0.9746 0.34893 0.0
C275 C 0.83204 0.97938 0.36166 0.0
C276 C 0.79603 0.94821 0.30061 0.0
N277 N 0.81914 0.95582 0.30228 0.0
C278 C 0.78155 0.92613 0.29681 0.0
C279 C 0.79087 0.9118 0.29473 0.0
C280 C 0.81445 0.91968 0.29645 0.0
C281 C 0.8284 0.94185 0.30026 0.0
C282 C 0.8742 0.99666 0.28312 0.0
C283 C 0.88556 0.00477 0.3014 0.0
C284 C 0.85686 0.99045 0.28974 0.0
N285 N 0.86265 0.99452 0.29875 0.0
C286 C 0.90337 0.01119 0.29497 0.0
C287 C 0.8976 0.0071 0.28578 0.0
C288 C 0.86357 0.02174 0.32226 0.0
C289 C 0.7749 0.00675 0.32833 0.0
C290 C 0.81734 0.0191 0.33653 0.0
C291 C 0.80759 0.03352 0.33759 0.0
C292 C 0.78621 0.02726 0.33345 0.0
N293 N 0.80608 0.99896 0.33153 0.0
C294 C 0.78517 0.99275 0.32743 0.0
Co295 Co 0.01995 0.84042 0.32897 0.0
Co296 Co 0.01608 0.85429 0.30683 0.0
O297 O 0.02257 0.8369 0.31592 0.0
C298 C 0.06767 0.84952 0.32628 0.0
O299 O 0.06918 0.8645 0.32007 0.0
C300 C 0.98469 0.81668 0.29418 0.0
O301 O 0.96908 0.82317 0.29564 0.0
O302 O 0.98451 0.84266 0.31218 0.0
O303 O 0.99135 0.84347 0.32721 0.0
H304 H 0.98484 0.90553 0.29573 0.0
H305 H 0.02356 0.80004 0.32207 0.0
O306 O 0.04876 0.8379 0.33081 0.0
H307 H 0.94865 0.76544 0.33875 0.0
H308 H 0.02413 0.82153 0.36184 0.0
H309 H 0.00991 0.8711 0.34064 0.0
H310 H 0.97401 0.80835 0.33771 0.0
H311 H 0.02632 0.81729 0.34525 0.0
O312 O 0.00381 0.82625 0.29866 0.0
H313 H 0.99427 0.88417 0.30719 0.0
H314 H 0.02297 0.86053 0.28667 0.0
H315 H 0.00733 0.87579 0.35718 0.0
H316 H 0.99884 0.75703 0.323 0.0
H317 H 0.01446 0.85088 0.3679 0.0
H318 H 0.96107 0.73948 0.33139 0.0
O319 O 0.03989 0.87503 0.3281 0.0
H320 H 0.08363 0.84593 0.29562 0.0
H321 H 0.05547 0.9014 0.30144 0.0
H322 H 0.09548 0.91619 0.29558 0.0
H323 H 0.10979 0.88837 0.29261 0.0
H324 H 0.04385 0.83191 0.30162 0.0
H325 H 0.01381 0.8816 0.27499 0.0
H326 H 0.99461 0.90432 0.27949 0.0
O327 O 0.02874 0.88274 0.31474 0.0
C328 C 0.97858 0.84241 0.32046 0.0
C329 C 0.99323 0.89571 0.29368 0.0
C330 C 0.00949 0.88229 0.28204 0.0
N331 N 0.0092 0.87116 0.29762 0.0
C332 C 0.99862 0.8836 0.30014 0.0
C333 C 0.01464 0.8704 0.28869 0.0
C334 C 0.99871 0.89503 0.28457 0.0
C335 C 0.00721 0.79252 0.32577 0.0
N336 N 0.00029 0.80667 0.32987 0.0
C337 C 0.99326 0.76816 0.32626 0.0
C338 C 0.97206 0.75832 0.33096 0.0
C339 C 0.96507 0.77288 0.33509 0.0
C340 C 0.97947 0.79716 0.33445 0.0
C341 C 0.0209 0.83243 0.35724 0.0
C342 C 0.01282 0.86006 0.34527 0.0
C343 C 0.02214 0.83012 0.34784 0.0
N344 N 0.01794 0.84373 0.34199 0.0
C345 C 0.01144 0.86286 0.35462 0.0
C346 C 0.01547 0.8489 0.36063 0.0
C347 C 0.03957 0.88925 0.32231 0.0
C348 C 0.07756 0.85821 0.29685 0.0
C349 C 0.06157 0.88917 0.30021 0.0
C350 C 0.08423 0.89765 0.29685 0.0
C351 C 0.09225 0.88203 0.29518 0.0
N352 N 0.04724 0.86577 0.30183 0.0
C353 C 0.05499 0.85035 0.30019 0.0
Co354 Co 0.83772 0.85207 0.8076 0.0
Co355 Co 0.81886 0.83825 0.82965 0.0
O356 O 0.81336 0.8348 0.81656 0.0
C357 C 0.83212 0.81437 0.79513 0.0
O358 O 0.85417 0.82093 0.79674 0.0
C359 C 0.78071 0.84795 0.82661 0.0
O360 O 0.79434 0.86264 0.82035 0.0
O361 O 0.83396 0.87293 0.82877 0.0
O362 O 0.85312 0.88058 0.81548 0.0
H363 H 0.86581 0.873 0.85812 0.0
H364 H 0.78783 0.82965 0.802 0.0
O365 O 0.82235 0.82394 0.79946 0.0
H366 H 0.82081 0.91389 0.79575 0.0
H367 H 0.86883 0.87911 0.77589 0.0
H368 H 0.88939 0.882 0.8083 0.0
H369 H 0.84572 0.89914 0.80199 0.0
H370 H 0.83805 0.85812 0.7874 0.0
O371 O 0.7877 0.83623 0.83124 0.0
H372 H 0.85925 0.86841 0.84155 0.0
H373 H 0.78848 0.81547 0.84577 0.0
H374 H 0.92071 0.90326 0.79703 0.0
H375 H 0.7624 0.84364 0.79563 0.0
H376 H 0.91051 0.9019 0.78069 0.0
H377 H 0.77883 0.88605 0.79251 0.0
O378 O 0.85746 0.84053 0.81323 0.0
H379 H 0.75607 0.75523 0.82345 0.0
H380 H 0.83168 0.80569 0.83867 0.0
H381 H 0.81354 0.76272 0.83972 0.0
H382 H 0.77542 0.73718 0.8321 0.0
H383 H 0.77493 0.79829 0.82251 0.0
H384 H 0.79419 0.81962 0.8624 0.0
H385 H 0.83312 0.84848 0.86867 0.0
O386 O 0.8503 0.84078 0.82818 0.0
C387 C 0.84868 0.88711 0.82302 0.0
C388 C 0.84879 0.86029 0.85547 0.0
C389 C 0.80859 0.83035 0.85787 0.0
N390 N 0.82359 0.8415 0.8427 0.0
C391 C 0.845 0.85755 0.8461 0.0
C392 C 0.80545 0.8281 0.84846 0.0
C393 C 0.83044 0.84655 0.86139 0.0
C394 C 0.79522 0.84809 0.80053 0.0
N395 N 0.81829 0.86351 0.80231 0.0
C396 C 0.78068 0.85593 0.79698 0.0
C397 C 0.7899 0.87973 0.79525 0.0
C398 C 0.81345 0.89536 0.79708 0.0
C399 C 0.82745 0.8869 0.80064 0.0
C400 C 0.8735 0.87986 0.78299 0.0
C401 C 0.8848 0.88134 0.80121 0.0
C402 C 0.85615 0.86802 0.78954 0.0
N403 N 0.86191 0.86885 0.79852 0.0
C404 C 0.90261 0.89342 0.79485 0.0
C405 C 0.89688 0.89264 0.78569 0.0
C406 C 0.86249 0.83993 0.82158 0.0
C407 C 0.77265 0.76617 0.82682 0.0
C408 C 0.81514 0.79469 0.8353 0.0
C409 C 0.80493 0.77037 0.83594 0.0
C410 C 0.78353 0.75605 0.83166 0.0
N411 N 0.80431 0.80447 0.83057 0.0
C412 C 0.78338 0.79055 0.82633 0.0
Co413 Co 0.13034 0.97707 0.80869 0.0
Co414 Co 0.15678 0.97785 0.82855 0.0
O415 O 0.15109 0.96996 0.81566 0.0
C416 C 0.17108 0.99375 0.7959 0.0
O417 O 0.18538 0.00866 0.80198 0.0
C418 C 0.14452 0.92865 0.82751 0.0
O419 O 0.12587 0.92535 0.82304 0.0
O420 O 0.12252 0.95923 0.83098 0.0
O421 O 0.11017 0.97274 0.81956 0.0
H422 H 0.14235 0.00332 0.85891 0.0
H423 H 0.13966 0.93988 0.80218 0.0
O424 O 0.14935 0.98086 0.79761 0.0
H425 H 0.05392 0.90106 0.80599 0.0
H426 H 0.08512 0.97533 0.78079 0.0
H427 H 0.10807 0.006 0.81196 0.0
H428 H 0.07881 0.94326 0.80909 0.0
H429 H 0.10998 0.96506 0.79001 0.0
O430 O 0.15921 0.94901 0.83044 0.0
H431 H 0.1359 0.99437 0.84252 0.0
H432 H 0.18896 0.97571 0.84225 0.0
H433 H 0.08316 0.01665 0.803 0.0
H434 H 0.11536 0.8977 0.79883 0.0
H435 H 0.07149 0.00125 0.78729 0.0
H436 H 0.07218 0.87797 0.80079 0.0
O437 O 0.15034 0.01057 0.81184 0.0
H438 H 0.23221 0.992 0.81444 0.0
H439 H 0.19503 0.02567 0.83363 0.0
H440 H 0.23726 0.04918 0.83021 0.0
H441 H 0.25613 0.03233 0.82056 0.0
H442 H 0.18999 0.96916 0.81798 0.0
H443 H 0.19586 0.98425 0.85866 0.0
H444 H 0.17253 0.99827 0.86709 0.0
O445 O 0.15424 0.00689 0.8268 0.0
C446 C 0.10659 0.96139 0.82696 0.0
C447 C 0.15271 0.99733 0.85531 0.0
C448 C 0.18272 0.98659 0.85517 0.0
N449 N 0.16224 0.98482 0.84142 0.0
C450 C 0.14919 0.99233 0.84602 0.0
C451 C 0.17871 0.98176 0.84588 0.0
C452 C 0.16962 0.99447 0.85989 0.0
C453 C 0.12086 0.9315 0.80293 0.0
N454 N 0.1107 0.94405 0.80583 0.0
C455 C 0.1072 0.90758 0.80107 0.0
C456 C 0.08297 0.89651 0.80218 0.0
C457 C 0.07272 0.90945 0.8051 0.0
C458 C 0.08693 0.93333 0.80688 0.0
C459 C 0.09007 0.98213 0.78763 0.0
C460 C 0.10303 0.99917 0.80514 0.0
C461 C 0.10419 0.97642 0.79287 0.0
N462 N 0.1104 0.98484 0.80153 0.0
C463 C 0.08894 0.00529 0.8001 0.0
C464 C 0.08242 0.99666 0.79128 0.0
C465 C 0.15438 0.01882 0.8199 0.0
C466 C 0.2242 -0.00049 0.81867 0.0
C467 C 0.20311 0.01824 0.82941 0.0
C468 C 0.22703 0.03162 0.82751 0.0
C469 C 0.23761 0.02215 0.8221 0.0
N470 N 0.1901 0.99602 0.82605 0.0
C471 C 0.20033 0.98664 0.82072 0.0
Co472 Co 0.01071 0.15465 0.80749 0.0
Co473 Co 0.01919 0.17798 0.8288 0.0
O474 O 0.02002 0.18144 0.81553 0.0
C475 C 0.9958 0.18596 0.79786 0.0
O476 O 0.00322 0.20134 0.80449 0.0
C477 C 0.06615 0.21727 0.82497 0.0
O478 O 0.06776 0.20349 0.81893 0.0
O479 O 0.03993 0.16424 0.82801 0.0
O480 O 0.02356 0.14029 0.81612 0.0
H481 H 0.01209 0.13605 0.85822 0.0
H482 H 0.042 0.20344 0.80062 0.0
O483 O 0.99743 0.16752 0.79836 0.0
H484 H 0.08478 0.1612 0.79483 0.0
H485 H 0.99853 0.11387 0.77731 0.0
H486 H 0.98778 0.10336 0.81051 0.0
H487 H 0.04575 0.14101 0.80196 0.0
H488 H 0.01184 0.14808 0.78742 0.0
O489 O 0.04752 0.20994 0.82967 0.0
H490 H 0.0122 0.14007 0.84153 0.0
H491 H 0.02665 0.21022 0.84426 0.0
H492 H 0.97434 0.0687 0.80066 0.0
H493 H 0.0807 0.22412 0.79333 0.0
H494 H 0.9797 0.07384 0.78393 0.0
H495 H 0.1025 0.20305 0.79041 0.0
O496 O 0.97988 0.13829 0.81359 0.0
H497 H 0.99544 0.23798 0.82199 0.0
H498 H 0.97383 0.16424 0.83809 0.0
H499 H 0.94768 0.18091 0.83896 0.0
H500 H 0.95846 0.21807 0.83088 0.0
H501 H 0.02097 0.22057 0.82123 0.0
H502 H 0.0269 0.20704 0.86098 0.0
H503 H 0.01947 0.16971 0.86806 0.0
O504 O 0.99089 0.14558 0.8282 0.0
C505 C 0.0374 0.14751 0.82293 0.0
C506 C 0.01524 0.15237 0.85522 0.0
C507 C 0.02358 0.19223 0.85676 0.0
N508 N 0.01913 0.17525 0.84194 0.0
C509 C 0.01523 0.15472 0.84577 0.0
C510 C 0.02345 0.19393 0.8473 0.0
C511 C 0.01941 0.17127 0.86073 0.0
C512 C 0.05096 0.1939 0.7992 0.0
N513 N 0.04122 0.17083 0.80156 0.0
C514 C 0.07307 0.20582 0.79514 0.0
C515 C 0.08532 0.19401 0.79353 0.0
C516 C 0.0754 0.17055 0.79601 0.0
C517 C 0.05326 0.15921 0.80006 0.0
C518 C 0.99614 0.11141 0.78459 0.0
C519 C 0.99029 0.10577 0.80324 0.0
C520 C 0.00359 0.13071 0.79035 0.0
N521 N 0.00073 0.12774 0.79956 0.0
C522 C 0.98259 0.08606 0.7977 0.0
C523 C 0.98558 0.08895 0.78831 0.0
C524 C 0.97606 0.13351 0.82203 0.0
C525 C 0.99054 0.22177 0.82553 0.0
C526 C 0.97854 0.1803 0.83448 0.0
C527 C 0.96371 0.18971 0.83504 0.0
C528 C 0.96979 0.21058 0.83051 0.0
N529 N 0.99885 0.19136 0.82956 0.0
C530 C 0.00495 0.21185 0.82514 0.0
Co531 Co 0.85922 0.84448 0.69235 0.0
Co532 Co 0.8405 0.82133 0.67116 0.0
O533 O 0.84044 0.8178 0.68441 0.0
C534 C 0.81456 0.81317 0.70283 0.0
O535 O 0.80514 0.79881 0.69594 0.0
C536 C 0.84979 0.78272 0.67394 0.0
O537 O 0.86619 0.79679 0.67962 0.0
O538 O 0.87511 0.83571 0.67086 0.0
O539 O 0.8848 0.8591 0.68304 0.0
H540 H 0.86907 0.86368 0.64136 0.0
H541 H 0.84287 0.79575 0.69889 0.0
O542 O 0.83481 0.8313 0.70218 0.0
H543 H 0.92876 0.83764 0.7022 0.0
H544 H 0.89324 0.88478 0.72221 0.0
H545 H 0.88674 0.89584 0.68939 0.0
H546 H 0.9088 0.85803 0.69627 0.0
H547 H 0.87063 0.85073 0.7122 0.0
O548 O 0.83738 0.78966 0.66979 0.0
H549 H 0.86841 0.85956 0.65806 0.0
H550 H 0.81328 0.78895 0.65606 0.0
H551 H 0.90961 0.93034 0.69914 0.0
H552 H 0.86206 0.77484 0.705 0.0
H553 H 0.913 0.92494 0.71569 0.0
H554 H 0.90536 0.79575 0.70666 0.0
O555 O 0.84366 0.86087 0.68716 0.0
H556 H 0.75863 0.75985 0.67978 0.0
H557 H 0.80663 0.83437 0.6635 0.0
H558 H 0.76369 0.81689 0.6639 0.0
H559 H 0.73937 0.77932 0.67207 0.0
H560 H 0.80166 0.77808 0.6793 0.0
H561 H 0.81346 0.79222 0.63934 0.0
H562 H 0.84144 0.82984 0.63189 0.0
O563 O 0.8441 0.85344 0.6723 0.0
C564 C 0.89016 0.85236 0.67575 0.0
C565 C 0.85672 0.84723 0.64453 0.0
C566 C 0.82553 0.80712 0.64339 0.0
N567 N 0.84062 0.82415 0.65803 0.0
C568 C 0.85621 0.84483 0.65398 0.0
C569 C 0.82552 0.80536 0.65286 0.0
C570 C 0.84123 0.82823 0.63922 0.0
C571 C 0.86161 0.80518 0.69976 0.0
N572 N 0.87456 0.82826 0.69737 0.0
C573 C 0.87244 0.79315 0.70316 0.0
C574 C 0.89673 0.80487 0.70406 0.0
C575 C 0.90987 0.82836 0.70156 0.0
C576 C 0.89844 0.83981 0.69819 0.0
C577 C 0.89194 0.88736 0.71501 0.0
C578 C 0.88821 0.89331 0.69657 0.0
C579 C 0.87912 0.86815 0.70931 0.0
N580 N 0.87749 0.87127 0.7002 0.0
C581 C 0.90116 0.91293 0.70206 0.0
C582 C 0.90302 0.90989 0.71134 0.0
C583 C 0.84272 0.86555 0.67881 0.0
C584 C 0.76903 0.77623 0.67621 0.0
C585 C 0.79621 0.81815 0.66715 0.0
C586 C 0.77188 0.80827 0.66732 0.0
C587 C 0.75824 0.78718 0.67189 0.0
N588 N 0.80667 0.80734 0.67143 0.0
C589 C 0.79341 0.78662 0.67589 0.0
Co590 Co 0.15468 0.01208 0.69051 0.0
Co591 Co 0.17953 0.02012 0.66949 0.0
O592 O 0.18206 0.0217 0.68279 0.0
C593 C 0.18644 0.99905 0.7009 0.0
O594 O 0.20278 0.00761 0.69463 0.0
C595 C 0.21756 0.06771 0.67332 0.0
O596 O 0.20284 0.06924 0.6789 0.0
O597 O 0.1648 0.04005 0.66965 0.0
O598 O 0.14038 0.02404 0.68145 0.0
H599 H 0.1395 0.01047 0.6394 0.0
H600 H 0.20294 0.04499 0.69763 0.0
O601 O 0.16748 -0.00038 0.70001 0.0
H602 H 0.15796 0.08542 0.70226 0.0
H603 H 0.11161 -0.00023 0.72015 0.0
H604 H 0.10355 0.98796 0.68694 0.0
H605 H 0.13926 0.04614 0.69537 0.0
H606 H 0.14661 0.01359 0.71044 0.0
O607 O 0.21116 0.04896 0.6688 0.0
H608 H 0.14226 0.01144 0.65614 0.0
H609 H 0.21324 0.02787 0.65456 0.0
H610 H 0.06812 0.97398 0.69639 0.0
H611 H 0.22212 0.08396 0.70468 0.0
H612 H 0.07202 0.97988 0.71313 0.0
H613 H 0.19967 0.10459 0.70702 0.0
O614 O 0.13938 0.98101 0.68458 0.0
H615 H 0.2406 0.99897 0.67789 0.0
H616 H 0.1677 0.97467 0.66073 0.0
H617 H 0.18545 0.94942 0.66065 0.0
H618 H 0.22219 0.96156 0.66927 0.0
H619 H 0.22213 0.02358 0.67785 0.0
H620 H 0.21133 0.02728 0.6378 0.0
H621 H 0.17422 0.01842 0.63011 0.0
O622 O 0.14747 0.9913 0.66994 0.0
C623 C 0.14764 0.0374 0.67449 0.0
C624 C 0.15574 0.01424 0.64267 0.0
C625 C 0.19606 0.02371 0.64177 0.0
N626 N 0.17778 0.01941 0.65632 0.0
C627 C 0.15737 0.01473 0.65214 0.0
C628 C 0.19704 0.02404 0.65126 0.0
C629 C 0.17523 0.01873 0.63746 0.0
C630 C 0.19278 0.0534 0.6988 0.0
N631 N 0.16977 0.04283 0.69626 0.0
C632 C 0.20386 0.07569 0.70272 0.0
C633 C 0.19129 0.08729 0.70401 0.0
C634 C 0.1679 0.07655 0.70134 0.0
C635 C 0.15741 0.05426 0.69744 0.0
C636 C 0.10969 0.99714 0.71287 0.0
C637 C 0.10541 0.9907 0.69421 0.0
C638 C 0.12944 0.00488 0.70733 0.0
N639 N 0.12714 0.00173 0.69812 0.0
C640 C 0.08528 0.9827 0.69953 0.0
C641 C 0.08748 0.98599 0.70892 0.0
C642 C 0.13519 0.97668 0.67614 0.0
C643 C 0.22457 0.99348 0.67412 0.0
C644 C 0.18356 0.97997 0.66457 0.0
C645 C 0.1936 0.96565 0.66446 0.0
C646 C 0.21423 0.97248 0.66928 0.0
N647 N 0.19379 0.00052 0.66934 0.0
C648 C 0.21405 0.00736 0.67406 0.0
Co649 Co 0.98895 0.14385 0.69304 0.0
Co650 Co 0.98074 0.16056 0.67199 0.0
O651 O 0.97956 0.16182 0.6853 0.0
C652 C 0.00359 0.18929 0.7032 0.0
O653 O 0.99665 0.19784 0.69663 0.0
C654 C 0.93329 0.15129 0.67598 0.0
O655 O 0.93211 0.13563 0.6818 0.0
O656 O 0.96066 0.12596 0.67224 0.0
O657 O 0.97644 0.1174 0.68407 0.0
H658 H 0.98956 0.12946 0.64193 0.0
H659 H 0.95745 0.16055 0.70036 0.0
O660 O 0.00187 0.1692 0.70249 0.0
H661 H 0.91481 0.07508 0.705 0.0
H662 H 0.0008 0.11288 0.72271 0.0
H663 H 0.01233 0.11613 0.68949 0.0
H664 H 0.95397 0.09465 0.69797 0.0
H665 H 0.98746 0.13443 0.71299 0.0
O666 O 0.95188 0.16337 0.67134 0.0
H667 H 0.98897 0.1316 0.65868 0.0
H668 H 0.97282 0.18634 0.65703 0.0
H669 H 0.02583 0.09429 0.69895 0.0
H670 H 0.91859 0.14177 0.70756 0.0
H671 H 0.02007 0.09254 0.71569 0.0
H672 H 0.89687 0.09867 0.7099 0.0
O673 O 0.0199 0.15899 0.687 0.0
H674 H 0.00215 0.24301 0.68008 0.0
H675 H 0.02612 0.19389 0.6631 0.0
H676 H 0.05141 0.23687 0.66285 0.0
H677 H 0.03944 0.26174 0.67137 0.0
H678 H 0.9775 0.19995 0.68023 0.0
H679 H 0.97304 0.18467 0.64027 0.0
H680 H 0.98156 0.15614 0.63261 0.0
O681 O 0.0095 0.15721 0.67239 0.0
C682 C 0.96313 0.11137 0.67711 0.0
C683 C 0.98594 0.14204 0.64519 0.0
C684 C 0.97663 0.17301 0.64425 0.0
N685 N 0.98117 0.15927 0.65882 0.0
C686 C 0.98567 0.14339 0.65466 0.0
C687 C 0.97651 0.17385 0.65375 0.0
C688 C 0.98142 0.157 0.63996 0.0
C689 C 0.9485 0.14193 0.70152 0.0
N690 N 0.95835 0.12889 0.69889 0.0
C691 C 0.92631 0.13132 0.70553 0.0
C692 C 0.9141 0.10713 0.70682 0.0
C693 C 0.92415 0.09389 0.70407 0.0
C694 C 0.94636 0.10511 0.70008 0.0
C695 C 0.00337 0.11347 0.71542 0.0
C696 C 0.00965 0.11537 0.69676 0.0
C697 C 0.99589 0.12569 0.70988 0.0
N698 N -0.00104 0.12641 0.70066 0.0
C699 C 0.01738 0.10301 0.70209 0.0
C700 C 0.01417 0.10206 0.71148 0.0
C701 C 0.02409 0.1592 0.67854 0.0
C702 C 0.00757 0.23236 0.67635 0.0
C703 C 0.0209 0.20457 0.6669 0.0
C704 C 0.03524 0.22891 0.66669 0.0
C705 C 0.0285 0.24286 0.67146 0.0
N706 N 0.00042 0.19441 0.67173 0.0
C707 C 0.99366 0.20797 0.67639 0.0
Co708 Co 0.84702 0.49022 0.5037 0.0
Co709 Co 0.83 0.4777 0.52599 0.0
O710 O 0.85362 0.49448 0.51673 0.0
C711 C 0.88567 0.48105 0.50632 0.0
O712 O 0.87252 0.46645 0.5127 0.0
C713 C 0.83647 0.51606 0.53824 0.0
O714 O 0.81438 0.50953 0.53673 0.0
O715 O 0.80989 0.48901 0.52054 0.0
O716 O 0.81554 0.48747 0.50553 0.0
H717 H 0.74785 0.4272 0.53756 0.0
H718 H 0.89132 0.53085 0.51023 0.0
O719 O 0.87822 0.4925 0.50179 0.0
H720 H 0.85072 0.56481 0.49333 0.0
H721 H 0.86889 0.50715 0.47065 0.0
H722 H 0.80581 0.45905 0.49235 0.0
H723 H 0.83305 0.52195 0.49472 0.0
H724 H 0.87596 0.51229 0.4872 0.0
O725 O 0.84599 0.50621 0.53392 0.0
H726 H 0.77829 0.44784 0.52591 0.0
H727 H 0.83125 0.47268 0.54619 0.0
H728 H 0.7979 0.45346 0.47587 0.0
H729 H 0.90973 0.57381 0.50895 0.0
H730 H 0.82958 0.47763 0.4649 0.0
H731 H 0.88938 0.59105 0.50045 0.0
O732 O 0.83226 0.45562 0.50488 0.0
H733 H 0.90621 0.4866 0.53708 0.0
H734 H 0.82237 0.43089 0.53179 0.0
H735 H 0.84774 0.4164 0.53777 0.0
H736 H 0.88998 0.44434 0.54047 0.0
H737 H 0.88029 0.50032 0.53098 0.0
H738 H 0.80138 0.45233 0.55807 0.0
H739 H 0.75933 0.42937 0.55378 0.0
O740 O 0.81394 0.4488 0.51834 0.0
C741 C 0.80403 0.48893 0.51226 0.0
C742 C 0.76612 0.43712 0.53952 0.0
C743 C 0.79616 0.45122 0.55103 0.0
N744 N 0.80653 0.46141 0.53535 0.0
C745 C 0.78343 0.44884 0.53295 0.0
C746 C 0.81299 0.46269 0.54427 0.0
C747 C 0.77257 0.43835 0.54862 0.0
C748 C 0.88243 0.53823 0.50648 0.0
N749 N 0.86121 0.52392 0.50252 0.0
C750 C 0.89291 0.56256 0.5058 0.0
C751 C 0.88147 0.57222 0.50104 0.0
C752 C 0.85977 0.55751 0.49704 0.0
C753 C 0.84982 0.53326 0.49787 0.0
C754 C 0.85492 0.49657 0.47537 0.0
C755 C 0.81962 0.46976 0.48762 0.0
C756 C 0.85883 0.49938 0.48474 0.0
N757 N 0.84122 0.48618 0.49072 0.0
C758 C 0.81507 0.46646 0.4783 0.0
C759 C 0.83286 0.48 0.47214 0.0
C760 C 0.81791 0.4418 0.51081 0.0
C761 C 0.88781 0.47427 0.53596 0.0
C762 C 0.84075 0.44317 0.53291 0.0
C763 C 0.85501 0.43486 0.53633 0.0
C764 C 0.8787 0.45055 0.53785 0.0
N765 N 0.8498 0.46648 0.53108 0.0
C766 C 0.87301 0.48196 0.53256 0.0
Co767 Co 0.52373 0.3467 0.52496 0.0
Co768 Co 0.50857 0.3551 0.50368 0.0
O769 O 0.50657 0.35648 0.51696 0.0
C770 C 0.47823 0.33358 0.53484 0.0
O771 O 0.47091 0.34231 0.52846 0.0
C772 C 0.51776 0.40267 0.50734 0.0
O773 O 0.53342 0.40415 0.51322 0.0
O774 O 0.5432 0.37504 0.50425 0.0
O775 O 0.55062 0.3587 0.5162 0.0
H776 H 0.54135 0.34581 0.47411 0.0
H777 H 0.50795 0.37956 0.53174 0.0
O778 O 0.49779 0.33414 0.53418 0.0
H779 H 0.59299 0.41983 0.53727 0.0
H780 H 0.55228 0.33397 0.55506 0.0
H781 H 0.55089 0.32251 0.52187 0.0
H782 H 0.57285 0.38064 0.5303 0.0
H783 H 0.53186 0.34795 0.545 0.0
O784 O 0.50583 0.38394 0.50277 0.0
H785 H 0.53823 0.3466 0.49081 0.0
H786 H 0.48379 0.36299 0.48834 0.0
H787 H 0.5716 0.30837 0.53167 0.0
H788 H 0.52727 0.41844 0.53887 0.0
H789 H 0.57241 0.31409 0.54839 0.0
H790 H 0.57017 0.43898 0.54167 0.0
O791 O 0.50836 0.31569 0.51898 0.0
H792 H 0.42576 0.3338 0.51105 0.0
H793 H 0.47564 0.30979 0.49466 0.0
H794 H 0.43268 0.28455 0.4941 0.0
H795 H 0.40742 0.29654 0.50233 0.0
H796 H 0.46881 0.35841 0.51149 0.0
H797 H 0.48644 0.36258 0.4716 0.0
H798 H 0.51531 0.35384 0.46439 0.0
O799 O 0.51174 0.32625 0.50433 0.0
C800 C 0.5573 0.37222 0.50929 0.0
C801 C 0.52862 0.34954 0.47717 0.0
C802 C 0.49783 0.35898 0.47577 0.0
N803 N 0.51065 0.35454 0.49054 0.0
C804 C 0.52672 0.34992 0.48663 0.0
C805 C 0.49643 0.35921 0.48524 0.0
C806 C 0.51403 0.35407 0.47172 0.0
C807 C 0.52642 0.38793 0.53311 0.0
N808 N 0.53901 0.37737 0.53078 0.0
C809 C 0.53737 0.41017 0.53708 0.0
C810 C 0.56145 0.42172 0.53862 0.0
C811 C 0.57425 0.41099 0.53615 0.0
C812 C 0.56271 0.38875 0.5322 0.0
C813 C 0.55209 0.33141 0.54778 0.0
C814 C 0.55125 0.32517 0.52914 0.0
C815 C 0.54051 0.33925 0.54205 0.0
N816 N 0.54031 0.3362 0.53285 0.0
C817 C 0.56297 0.31708 0.53465 0.0
C818 C 0.56339 0.32027 0.54404 0.0
C819 C 0.50885 0.31149 0.51055 0.0
C820 C 0.43657 0.32838 0.50745 0.0
C821 C 0.46479 0.31503 0.49833 0.0
C822 C 0.44046 0.30071 0.49795 0.0
C823 C 0.4263 0.30746 0.50256 0.0
N824 N 0.47474 0.3355 0.50315 0.0
C825 C 0.46097 0.34226 0.50766 0.0
Co826 Co 0.64929 0.17521 0.52643 0.0
Co827 Co 0.64363 0.15143 0.50532 0.0
O828 O 0.64058 0.14818 0.51859 0.0
C829 C 0.66126 0.14307 0.53714 0.0
O830 O 0.65462 0.12764 0.53055 0.0
C831 C 0.59564 0.11312 0.5083 0.0
O832 O 0.59356 0.12733 0.51398 0.0
O833 O 0.62366 0.16611 0.50513 0.0
O834 O 0.63852 0.19002 0.51712 0.0
H835 H 0.65664 0.19321 0.47543 0.0
H836 H 0.61585 0.12672 0.53308 0.0
O837 O 0.66042 0.16187 0.53623 0.0
H838 H 0.5744 0.17106 0.53671 0.0
H839 H 0.65778 0.21672 0.55618 0.0
H840 H 0.67392 0.22652 0.52324 0.0
H841 H 0.6145 0.19024 0.53054 0.0
H842 H 0.6452 0.18225 0.54629 0.0
O843 O 0.61489 0.11986 0.5041 0.0
H844 H 0.65377 0.18946 0.49214 0.0
H845 H 0.63769 0.11863 0.49027 0.0
H846 H 0.68667 0.26144 0.53287 0.0
H847 H 0.57603 0.10704 0.53943 0.0
H848 H 0.6786 0.25667 0.54947 0.0
H849 H 0.55491 0.12917 0.54126 0.0
O850 O 0.68108 0.19081 0.52107 0.0
H851 H 0.66378 0.08984 0.51405 0.0
H852 H 0.69006 0.16377 0.49735 0.0
H853 H 0.71527 0.14598 0.49769 0.0
H854 H 0.70214 0.10872 0.50607 0.0
H855 H 0.63922 0.10835 0.51361 0.0
H856 H 0.64018 0.12154 0.47353 0.0
H857 H 0.64982 0.15907 0.46601 0.0
O858 O 0.67236 0.18343 0.50628 0.0
C859 C 0.6259 0.18312 0.50997 0.0
C860 C 0.65254 0.17679 0.47863 0.0
C861 C 0.64327 0.13656 0.47756 0.0
N862 N 0.64587 0.15396 0.49217 0.0
C863 C 0.65098 0.1746 0.48809 0.0
C864 C 0.64185 0.13501 0.48704 0.0
C865 C 0.64868 0.15762 0.47334 0.0
C866 C 0.60716 0.13672 0.53404 0.0
N867 N 0.61788 0.15981 0.53161 0.0
C868 C 0.58442 0.12536 0.53756 0.0
C869 C 0.57255 0.13777 0.53856 0.0
C870 C 0.58347 0.16125 0.53601 0.0
C871 C 0.60622 0.17202 0.53251 0.0
C872 C 0.66136 0.21903 0.54895 0.0
C873 C 0.67023 0.22427 0.53045 0.0
C874 C 0.65433 0.19957 0.54332 0.0
N875 N 0.65869 0.20234 0.53418 0.0
C876 C 0.67754 0.24412 0.53587 0.0
C877 C 0.67303 0.24143 0.54518 0.0
C878 C 0.6863 0.19541 0.5127 0.0
C879 C 0.6697 0.10609 0.51038 0.0
C880 C 0.68432 0.14767 0.50109 0.0
C881 C 0.69862 0.13762 0.50121 0.0
C882 C 0.69123 0.1167 0.50591 0.0
N883 N 0.66324 0.13718 0.50551 0.0
C884 C 0.65585 0.11663 0.5101 0.0
Co885 Co 0.80479 0.48924 0.64022 0.0
Co886 Co 0.82158 0.51236 0.66152 0.0
O887 O 0.82295 0.51594 0.64825 0.0
C888 C 0.85038 0.52039 0.63025 0.0
O889 O 0.85928 0.53479 0.63716 0.0
C890 C 0.81302 0.5513 0.65823 0.0
O891 O 0.7971 0.53737 0.65237 0.0
O892 O 0.78703 0.49832 0.66125 0.0
O893 O 0.77843 0.47462 0.64922 0.0
H894 H 0.78992 0.46989 0.6911 0.0
H895 H 0.82175 0.53791 0.6335 0.0
O896 O 0.83001 0.50236 0.63071 0.0
H897 H 0.73616 0.49618 0.62917 0.0
H898 H 0.77319 0.44889 0.61017 0.0
H899 H 0.77705 0.43789 0.64317 0.0
H900 H 0.75556 0.47574 0.63561 0.0
H901 H 0.79501 0.48296 0.62026 0.0
O902 O 0.82488 0.54415 0.66266 0.0
H903 H 0.79227 0.4741 0.6744 0.0
H904 H 0.84739 0.54461 0.67684 0.0
H905 H 0.75493 0.40337 0.63334 0.0
H906 H 0.80314 0.55886 0.62689 0.0
H907 H 0.75288 0.40875 0.61671 0.0
H908 H 0.75999 0.53803 0.62472 0.0
O909 O 0.81991 0.47291 0.64583 0.0
H910 H 0.90442 0.57331 0.65387 0.0
H911 H 0.8544 0.49901 0.67 0.0
H912 H 0.89732 0.51617 0.67026 0.0
H913 H 0.92265 0.55362 0.66218 0.0
H914 H 0.86141 0.55539 0.6537 0.0
H915 H 0.84551 0.54124 0.69358 0.0
H916 H 0.81668 0.50363 0.70081 0.0
O917 O 0.81789 0.48014 0.66061 0.0
C918 C 0.77241 0.4817 0.65623 0.0
C919 C 0.80262 0.48634 0.68803 0.0
C920 C 0.8338 0.52639 0.68942 0.0
N921 N 0.82013 0.50948 0.67466 0.0
C922 C 0.80409 0.4888 0.67858 0.0
C923 C 0.83476 0.52821 0.67995 0.0
C924 C 0.81763 0.50529 0.69347 0.0
C925 C 0.80309 0.52852 0.63241 0.0
N926 N 0.7899 0.50546 0.63481 0.0
C927 C 0.79258 0.54057 0.62873 0.0
C928 C 0.76837 0.52889 0.62754 0.0
C929 C 0.75499 0.50542 0.63004 0.0
C930 C 0.7661 0.49395 0.6337 0.0
C931 C 0.77391 0.44633 0.61741 0.0
C932 C 0.77615 0.44041 0.63595 0.0
C933 C 0.78629 0.46555 0.62315 0.0
N934 N 0.78717 0.46244 0.63231 0.0
C935 C 0.76363 0.42078 0.63041 0.0
C936 C 0.76252 0.42381 0.62108 0.0
C937 C 0.82017 0.46826 0.65422 0.0
C938 C 0.89357 0.55697 0.65742 0.0
C939 C 0.86528 0.51518 0.66638 0.0
C940 C 0.88958 0.52488 0.6666 0.0
C941 C 0.90379 0.54591 0.66207 0.0
N942 N 0.85539 0.5261 0.66178 0.0
C943 C 0.8692 0.54676 0.65736 0.0
Co944 Co 0.51131 0.31367 0.64262 0.0
Co945 Co 0.48543 0.31376 0.66253 0.0
O946 O 0.4833 0.30559 0.64967 0.0
C947 C 0.48612 0.32889 0.62976 0.0
O948 O 0.48664 0.344 0.63571 0.0
C949 C 0.44992 0.26403 0.66171 0.0
O950 O 0.46557 0.26136 0.65716 0.0
O951 O 0.50241 0.29644 0.66501 0.0
O952 O 0.52795 0.31048 0.65347 0.0
H953 H 0.52563 0.34135 0.69274 0.0
H954 H 0.4654 0.27507 0.63626 0.0
O955 O 0.49533 0.31637 0.63155 0.0
H956 H 0.51518 0.2394 0.64022 0.0
H957 H 0.55526 0.31325 0.61465 0.0
H958 H 0.56239 0.34432 0.64571 0.0
H959 H 0.53097 0.28147 0.64317 0.0
H960 H 0.52002 0.30186 0.62396 0.0
O961 O 0.4549 0.28424 0.66459 0.0
H962 H 0.52316 0.33199 0.67639 0.0
H963 H 0.45073 0.31054 0.67628 0.0
H964 H 0.59805 0.35612 0.63666 0.0
H965 H 0.44903 0.23299 0.63307 0.0
H966 H 0.59463 0.34052 0.621 0.0
H967 H 0.47393 0.21485 0.6351 0.0
O968 O 0.52364 0.34708 0.64565 0.0
H969 H 0.42182 0.32423 0.64843 0.0
H970 H 0.49304 0.36101 0.66741 0.0
H971 H 0.47271 0.38296 0.66391 0.0
H972 H 0.4368 0.36454 0.65437 0.0
H973 H 0.44278 0.30298 0.65205 0.0
H974 H 0.45233 0.31945 0.69265 0.0
H975 H 0.49002 0.33508 0.70098 0.0
O976 O 0.51629 0.3435 0.66063 0.0
C977 C 0.52084 0.2995 0.66099 0.0
C978 C 0.50913 0.33465 0.68918 0.0
C979 C 0.46798 0.32233 0.68913 0.0
N980 N 0.48691 0.32102 0.67537 0.0
C981 C 0.50766 0.32941 0.67992 0.0
C982 C 0.46718 0.31728 0.67987 0.0
C983 C 0.48914 0.33111 0.6938 0.0
C984 C 0.47645 0.26738 0.63703 0.0
N985 N 0.49912 0.28075 0.63988 0.0
C986 C 0.46705 0.24351 0.63526 0.0
C987 C 0.48102 0.23334 0.63642 0.0
C988 C 0.50415 0.2471 0.6393 0.0
C989 C 0.51297 0.27091 0.64099 0.0
C990 C 0.55698 0.32014 0.62147 0.0
C991 C 0.56072 0.3374 0.63892 0.0
C992 C 0.53708 0.3138 0.62676 0.0
N993 N 0.53912 0.32234 0.63539 0.0
C994 C 0.581 0.34417 0.63382 0.0
C995 C 0.57906 0.33544 0.62503 0.0
C996 C 0.52772 0.35551 0.65369 0.0
C997 C 0.43741 0.33242 0.65261 0.0
C998 C 0.47745 0.3529 0.66324 0.0
C999 C 0.46599 0.3654 0.66129 0.0
C1000 C 0.44584 0.35505 0.65594 0.0
N1001 N 0.46901 0.33069 0.65998 0.0
C1002 C 0.44931 0.32045 0.65471 0.0
Co1003 Co 0.68809 0.17433 0.66152 0.0
Co1004 Co 0.68749 0.19114 0.63919 0.0
O1005 O 0.6896 0.17067 0.6483 0.0
C1006 C 0.73418 0.17933 0.65831 0.0
O1007 O 0.73602 0.19344 0.65166 0.0
C1008 C 0.65815 0.14184 0.63163 0.0
O1009 O 0.66242 0.13209 0.63859 0.0
O1010 O 0.65948 0.18858 0.64537 0.0
O1011 O 0.66102 0.17976 0.66006 0.0
H1012 H 0.67761 0.25857 0.62912 0.0
H1013 H 0.68896 0.13236 0.6547 0.0
O1014 O 0.71563 0.16954 0.66314 0.0
H1015 H 0.61379 0.10178 0.67096 0.0
H1016 H 0.69123 0.15298 0.69415 0.0
H1017 H 0.68088 0.20628 0.6736 0.0
H1018 H 0.64126 0.14433 0.67001 0.0
H1019 H 0.69278 0.14921 0.67751 0.0
O1020 O 0.6663 0.16389 0.63129 0.0
H1021 H 0.68135 0.23265 0.64027 0.0
H1022 H 0.68779 0.19295 0.61885 0.0
H1023 H 0.679 0.21057 0.6902 0.0
H1024 H 0.66215 0.08967 0.65559 0.0
H1025 H 0.68419 0.18378 0.7006 0.0
H1026 H 0.62421 0.07413 0.66374 0.0
O1027 O 0.71 0.20888 0.66099 0.0
H1028 H 0.73959 0.16146 0.6271 0.0
H1029 H 0.73056 0.23076 0.63117 0.0
H1030 H 0.76622 0.23525 0.62388 0.0
H1031 H 0.7709 0.20041 0.62176 0.0
H1032 H 0.70452 0.15784 0.63448 0.0
H1033 H 0.68387 0.21829 0.60748 0.0
H1034 H 0.67886 0.25145 0.61259 0.0
O1035 O 0.70857 0.21921 0.64655 0.0
C1036 C 0.65167 0.18491 0.65351 0.0
C1037 C 0.67988 0.24424 0.62681 0.0
C1038 C 0.68336 0.22161 0.61466 0.0
N1039 N 0.68501 0.21145 0.63023 0.0
C1040 C 0.6821 0.22956 0.63309 0.0
C1041 C 0.6855 0.20728 0.62114 0.0
C1042 C 0.68055 0.24021 0.61754 0.0
C1043 C 0.67258 0.12573 0.65833 0.0
N1044 N 0.66668 0.14083 0.66229 0.0
C1045 C 0.65742 0.10154 0.65877 0.0
C1046 C 0.63613 0.09283 0.66333 0.0
C1047 C 0.63025 0.10834 0.66737 0.0
C1048 C 0.64583 0.13242 0.66678 0.0
C1049 C 0.68888 0.16472 0.68969 0.0
C1050 C 0.68298 0.19446 0.67808 0.0
C1051 C 0.68977 0.16268 0.68026 0.0
N1052 N 0.68668 0.17736 0.67459 0.0
C1053 C 0.68198 0.19702 0.68747 0.0
C1054 C 0.68492 0.182 0.6933 0.0
C1055 C 0.71605 0.22407 0.65468 0.0
C1056 C 0.73767 0.17674 0.62791 0.0
C1057 C 0.73238 0.21547 0.63027 0.0
C1058 C 0.75264 0.21814 0.62612 0.0
C1059 C 0.75525 0.1986 0.62493 0.0
N1060 N 0.71506 0.19394 0.63311 0.0
C1061 C 0.71764 0.17475 0.63202 0.0
Co1062 Co 0.51068 0.20049 0.13964 0.0
Co1063 Co 0.48563 0.17525 0.15981 0.0
O1064 O 0.48308 0.18022 0.14686 0.0
C1065 C 0.48506 0.15838 0.12774 0.0
O1066 O 0.48415 0.14472 0.13443 0.0
C1067 C 0.44889 0.18782 0.15874 0.0
O1068 O 0.46391 0.2059 0.15392 0.0
O1069 O 0.50161 0.20963 0.16197 0.0
O1070 O 0.52667 0.22162 0.15025 0.0
H1071 H 0.52648 0.1911 0.19001 0.0
H1072 H 0.46388 0.19013 0.13308 0.0
O1073 O 0.49536 0.18048 0.12879 0.0
H1074 H 0.50999 0.27616 0.13592 0.0
H1075 H 0.5531 0.24382 0.11127 0.0
H1076 H 0.56198 0.22334 0.14271 0.0
H1077 H 0.5278 0.25191 0.13946 0.0
H1078 H 0.51832 0.21941 0.12073 0.0
O1079 O 0.45462 0.17327 0.16179 0.0
H1080 H 0.52349 0.19672 0.17358 0.0
H1081 H 0.45168 0.14394 0.1738 0.0
H1082 H 0.5972 0.24782 0.13351 0.0
H1083 H 0.4455 0.21377 0.12932 0.0
H1084 H 0.5929 0.25825 0.11767 0.0
H1085 H 0.46856 0.2571 0.13079 0.0
O1086 O 0.52462 0.18102 0.14306 0.0
H1087 H 0.42322 0.09925 0.1465 0.0
H1088 H 0.49508 0.13703 0.16511 0.0
H1089 H 0.47589 0.09459 0.16206 0.0
H1090 H 0.43966 0.07543 0.1527 0.0
H1091 H 0.44308 0.14168 0.14966 0.0
H1092 H 0.45381 0.13788 0.19026 0.0
H1093 H 0.49145 0.16149 0.19846 0.0
O1094 O 0.51699 0.17742 0.15802 0.0
C1095 C 0.51948 0.22537 0.15778 0.0
C1096 C 0.51001 0.18063 0.18651 0.0
C1097 C 0.46921 0.15078 0.18664 0.0
N1098 N 0.48753 0.17046 0.17272 0.0
C1099 C 0.50824 0.18367 0.17719 0.0
C1100 C 0.4681 0.15431 0.17733 0.0
C1101 C 0.49034 0.16403 0.19124 0.0
C1102 C 0.47413 0.209 0.13362 0.0
N1103 N 0.49689 0.2196 0.13648 0.0
C1104 C 0.46359 0.22228 0.13153 0.0
C1105 C 0.47652 0.24659 0.13237 0.0
C1106 C 0.49976 0.25729 0.13525 0.0
C1107 C 0.50972 0.24345 0.13728 0.0
C1108 C 0.55521 0.23941 0.11817 0.0
C1109 C 0.55993 0.22784 0.13584 0.0
C1110 C 0.53557 0.22556 0.12355 0.0
N1111 N 0.5381 0.22003 0.13228 0.0
C1112 C 0.57996 0.24169 0.13066 0.0
C1113 C 0.57753 0.24752 0.12177 0.0
C1114 C 0.52883 0.1772 0.15116 0.0
C1115 C 0.43895 0.10739 0.15061 0.0
C1116 C 0.47936 0.12882 0.16101 0.0
C1117 C 0.46854 0.10478 0.15932 0.0
C1118 C 0.44821 0.09404 0.15408 0.0
N1119 N 0.47013 0.14178 0.1576 0.0
C1120 C 0.45022 0.13138 0.15245 0.0
Co1121 Co 0.80862 0.31784 0.14172 0.0
Co1122 Co 0.82252 0.30891 0.16312 0.0
O1123 O 0.82535 0.30787 0.14987 0.0
C1124 C 0.85456 0.33092 0.13221 0.0
O1125 O 0.86146 0.32203 0.13868 0.0
C1126 C 0.81395 0.26154 0.15945 0.0
O1127 O 0.79859 0.26005 0.15341 0.0
O1128 O 0.78797 0.28874 0.1622 0.0
O1129 O 0.78129 0.30573 0.15027 0.0
H1130 H 0.78764 0.31715 0.19232 0.0
H1131 H 0.82459 0.28495 0.13512 0.0
O1132 O 0.83503 0.33049 0.1327 0.0
H1133 H 0.73986 0.24507 0.12893 0.0
H1134 H 0.78171 0.33125 0.11137 0.0
H1135 H 0.78135 0.34202 0.14455 0.0
H1136 H 0.75976 0.28413 0.13601 0.0
H1137 H 0.80156 0.31702 0.12161 0.0
O1138 O 0.82548 0.2802 0.1641 0.0
H1139 H 0.79184 0.31679 0.17566 0.0
H1140 H 0.84648 0.30088 0.17873 0.0
H1141 H 0.76119 0.35639 0.13456 0.0
H1142 H 0.80552 0.24622 0.12788 0.0
H1143 H 0.76126 0.35102 0.11784 0.0
H1144 H 0.76278 0.22586 0.12475 0.0
O1145 O 0.82375 0.34873 0.1478 0.0
H1146 H 0.90595 0.33106 0.15656 0.0
H1147 H 0.8546 0.35406 0.17243 0.0
H1148 H 0.89748 0.37956 0.17339 0.0
H1149 H 0.92348 0.36808 0.16543 0.0
H1150 H 0.86297 0.30618 0.15572 0.0
H1151 H 0.84275 0.30086 0.19543 0.0
H1152 H 0.81324 0.30915 0.20233 0.0
O1153 O 0.81914 0.33764 0.1624 0.0
C1154 C 0.77418 0.29173 0.15704 0.0
C1155 C 0.80064 0.31362 0.1894 0.0
C1156 C 0.83155 0.30444 0.19114 0.0
N1157 N 0.81958 0.30911 0.17624 0.0
C1158 C 0.80316 0.31348 0.17997 0.0
C1159 C 0.83356 0.30445 0.18168 0.0
C1160 C 0.81499 0.3091 0.19501 0.0
C1161 C 0.8062 0.27668 0.1336 0.0
N1162 N 0.79356 0.28727 0.13582 0.0
C1163 C 0.79538 0.25451 0.12958 0.0
C1164 C 0.7714 0.24307 0.12785 0.0
C1165 C 0.75854 0.25382 0.13019 0.0
C1166 C 0.76995 0.27599 0.13421 0.0
C1167 C 0.78151 0.33365 0.11865 0.0
C1168 C 0.78138 0.33951 0.13729 0.0
C1169 C 0.79278 0.32569 0.12448 0.0
N1170 N 0.7925 0.32855 0.13368 0.0
C1171 C 0.76996 0.34773 0.13166 0.0
C1172 C 0.77004 0.34474 0.12228 0.0
C1173 C 0.82256 0.35263 0.1562 0.0
C1174 C 0.89481 0.33626 0.16005 0.0
C1175 C 0.86578 0.34904 0.16888 0.0
C1176 C 0.89006 0.3635 0.16948 0.0
C1177 C 0.90464 0.35704 0.16502 0.0
N1178 N 0.85628 0.32871 0.16397 0.0
C1179 C 0.87046 0.32223 0.15961 0.0
Co1180 Co 0.68186 0.4911 0.141 0.0
Co1181 Co 0.68866 0.51379 0.16245 0.0
O1182 O 0.69063 0.51755 0.14918 0.0
C1183 C 0.66748 0.52279 0.13137 0.0
O1184 O 0.67466 0.53786 0.13809 0.0
C1185 C 0.73635 0.55231 0.15913 0.0
O1186 O 0.73803 0.53837 0.15318 0.0
O1187 O 0.70868 0.49916 0.16206 0.0
O1188 O 0.69423 0.47651 0.14971 0.0
H1189 H 0.67792 0.47087 0.19192 0.0
H1190 H 0.71353 0.54026 0.13454 0.0
O1191 O 0.66904 0.50429 0.13178 0.0
H1192 H 0.75681 0.49844 0.12899 0.0
H1193 H 0.67178 0.45163 0.11065 0.0
H1194 H 0.65888 0.43971 0.14372 0.0
H1195 H 0.71732 0.47785 0.13573 0.0
H1196 H 0.68431 0.4854 0.12093 0.0
O1197 O 0.71744 0.54533 0.1636 0.0
H1198 H 0.67956 0.47527 0.17523 0.0
H1199 H 0.69568 0.54597 0.17788 0.0
H1200 H 0.64619 0.40549 0.13369 0.0
H1201 H 0.7527 0.56135 0.12766 0.0
H1202 H 0.65264 0.41133 0.11702 0.0
H1203 H 0.77475 0.54049 0.12486 0.0
O1204 O 0.6506 0.47427 0.1468 0.0
H1205 H 0.6678 0.57567 0.15515 0.0
H1206 H 0.64275 0.50093 0.17105 0.0
H1207 H 0.61746 0.51861 0.17149 0.0
H1208 H 0.62997 0.55629 0.16351 0.0
H1209 H 0.69243 0.55725 0.15481 0.0
H1210 H 0.69441 0.54241 0.1946 0.0
H1211 H 0.68537 0.50461 0.20172 0.0
O1212 O 0.65995 0.48184 0.16155 0.0
C1213 C 0.70673 0.48279 0.1569 0.0
C1214 C 0.68177 0.4874 0.18889 0.0
C1215 C 0.69105 0.52756 0.1904 0.0
N1216 N 0.68741 0.51076 0.17559 0.0
C1217 C 0.68264 0.48997 0.17945 0.0
C1218 C 0.69177 0.52948 0.18093 0.0
C1219 C 0.68598 0.50634 0.19439 0.0
C1220 C 0.7226 0.53082 0.13317 0.0
N1221 N 0.71273 0.50764 0.13537 0.0
C1222 C 0.74498 0.54297 0.12934 0.0
C1223 C 0.75737 0.53127 0.1278 0.0
C1224 C 0.74732 0.5077 0.13012 0.0
C1225 C 0.72492 0.49613 0.13394 0.0
C1226 C 0.66892 0.44886 0.1179 0.0
C1227 C 0.66186 0.44243 0.13648 0.0
C1228 C 0.67593 0.46791 0.12376 0.0
N1229 N 0.67248 0.46455 0.13293 0.0
C1230 C 0.65459 0.42296 0.13083 0.0
C1231 C 0.65819 0.42625 0.12148 0.0
C1232 C 0.64585 0.46964 0.15521 0.0
C1233 C 0.66214 0.55924 0.15865 0.0
C1234 C 0.64821 0.5172 0.16749 0.0
C1235 C 0.63387 0.52719 0.1678 0.0
C1236 C 0.64091 0.54835 0.16333 0.0
N1237 N 0.66899 0.52797 0.16286 0.0
C1238 C 0.67604 0.54875 0.1585 0.0
Co1239 Co 0.52178 0.17366 0.02633 0.0
Co1240 Co 0.50787 0.15129 0.0048 0.0
O1241 O 0.50474 0.1473 0.01804 0.0
C1242 C 0.47494 0.1419 0.03541 0.0
O1243 O 0.46757 0.127 0.02862 0.0
C1244 C 0.51592 0.11215 0.00846 0.0
O1245 O 0.53106 0.12574 0.01461 0.0
O1246 O 0.54238 0.16535 0.00576 0.0
O1247 O 0.54949 0.18834 0.01795 0.0
H1248 H 0.54347 0.19466 0.9757 0.0
H1249 H 0.5037 0.12443 0.03282 0.0
O1250 O 0.49503 0.16039 0.03521 0.0
H1251 H 0.5883 0.16608 0.0394 0.0
H1252 H 0.54865 0.21278 0.05688 0.0
H1253 H 0.55054 0.22508 0.02373 0.0
H1254 H 0.57003 0.18679 0.03225 0.0
H1255 H 0.52824 0.17914 0.04648 0.0
O1256 O 0.50466 0.11953 0.00377 0.0
H1257 H 0.53896 0.1899 0.99235 0.0
H1258 H 0.48398 0.11959 0.9891 0.0
H1259 H 0.57129 0.25918 0.03388 0.0
H1260 H 0.52115 0.10323 0.04011 0.0
H1261 H 0.57045 0.25314 0.05059 0.0
H1262 H 0.56381 0.124 0.04343 0.0
O1263 O 0.5079 0.19059 0.02019 0.0
H1264 H 0.4241 0.09025 0.01096 0.0
H1265 H 0.47626 0.16501 0.99549 0.0
H1266 H 0.43344 0.14796 0.99438 0.0
H1267 H 0.40704 0.11028 0.00214 0.0
H1268 H 0.46703 0.10805 0.01197 0.0
H1269 H 0.48801 0.12352 0.97242 0.0
H1270 H 0.51786 0.16131 0.96561 0.0
O1271 O 0.51153 0.18345 0.00556 0.0
C1272 C 0.55636 0.18172 0.01103 0.0
C1273 C 0.53033 0.17814 0.97858 0.0
C1274 C 0.49922 0.1382 0.97674 0.0
N1275 N 0.51105 0.15459 0.99169 0.0
C1276 C 0.52764 0.17537 0.98801 0.0
C1277 C 0.49704 0.13607 0.98619 0.0
C1278 C 0.51597 0.15941 0.97293 0.0
C1279 C 0.5221 0.13384 0.03441 0.0
N1280 N 0.53561 0.15703 0.03227 0.0
C1281 C 0.53198 0.12162 0.03847 0.0
C1282 C 0.55592 0.13326 0.04031 0.0
C1283 C 0.56966 0.15686 0.03805 0.0
C1284 C 0.55918 0.16849 0.03399 0.0
C1285 C 0.54919 0.21563 0.04961 0.0
C1286 C 0.55018 0.22228 0.03099 0.0
C1287 C 0.53761 0.19666 0.04369 0.0
N1288 N 0.53832 0.20012 0.03449 0.0
C1289 C 0.56193 0.24167 0.03671 0.0
C1290 C 0.56142 0.23827 0.04608 0.0
C1291 C 0.50888 0.1955 0.01176 0.0
C1292 C 0.43542 0.10669 0.00756 0.0
C1293 C 0.4649 0.14873 0.99897 0.0
C1294 C 0.44066 0.1391 0.99827 0.0
C1295 C 0.42586 0.11795 0.00262 0.0
N1296 N 0.47415 0.13761 0.00385 0.0
C1297 C 0.45975 0.11683 0.00809 0.0
Co1298 Co 0.8211 0.35427 0.02532 0.0
Co1299 Co 0.84516 0.35383 0.005 0.0
O1300 O 0.84836 0.36134 0.01795 0.0
C1301 C 0.84503 0.33638 0.03767 0.0
O1302 O 0.84274 0.3206 0.03167 0.0
C1303 C 0.88238 0.40287 0.00604 0.0
O1304 O 0.86751 0.40611 0.01088 0.0
O1305 O 0.82956 0.37272 0.00311 0.0
O1306 O 0.80454 0.35901 0.01481 0.0
H1307 H 0.8029 0.32938 0.97506 0.0
H1308 H 0.86822 0.39107 0.03146 0.0
O1309 O 0.83711 0.35012 0.03607 0.0
H1310 H 0.82159 0.43053 0.02899 0.0
H1311 H 0.78002 0.35574 0.054 0.0
H1312 H 0.76964 0.32574 0.02262 0.0
H1313 H 0.80375 0.38838 0.02567 0.0
H1314 H 0.81434 0.36594 0.04429 0.0
O1315 O 0.87636 0.38259 0.00292 0.0
H1316 H 0.80673 0.33792 0.99152 0.0
H1317 H 0.87828 0.3561 0.99072 0.0
H1318 H 0.73487 0.31519 0.03208 0.0
H1319 H 0.88664 0.43319 0.03501 0.0
H1320 H 0.73993 0.33025 0.04789 0.0
H1321 H 0.86332 0.45324 0.03372 0.0
O1322 O 0.80707 0.32081 0.02198 0.0
H1323 H 0.90706 0.33875 0.01784 0.0
H1324 H 0.83489 0.30606 0.99945 0.0
H1325 H 0.85359 0.28223 0.00223 0.0
H1326 H 0.88997 0.29859 0.01147 0.0
H1327 H 0.88769 0.36192 0.01494 0.0
H1328 H 0.87533 0.34798 0.97424 0.0
H1329 H 0.83738 0.3344 0.96632 0.0
O1330 O 0.81365 0.32487 0.00695 0.0
C1331 C 0.81184 0.37059 0.00742 0.0
C1332 C 0.8195 0.33518 0.97845 0.0
C1333 C 0.86016 0.34565 0.97798 0.0
N1334 N 0.84261 0.3472 0.99208 0.0
C1335 C 0.82174 0.33995 0.98776 0.0
C1336 C 0.86174 0.35025 0.9873 0.0
C1337 C 0.83886 0.33803 0.97354 0.0
C1338 C 0.85786 0.39959 0.03101 0.0
N1339 N 0.83493 0.38725 0.02836 0.0
C1340 C 0.86842 0.42347 0.03298 0.0
C1341 C 0.85534 0.43472 0.03224 0.0
C1342 C 0.83194 0.422 0.02958 0.0
C1343 C 0.82195 0.39814 0.02767 0.0
C1344 C 0.77759 0.3491 0.04712 0.0
C1345 C 0.77202 0.33243 0.02948 0.0
C1346 C 0.79696 0.35477 0.04159 0.0
N1347 N 0.79402 0.34653 0.03288 0.0
C1348 C 0.75224 0.32637 0.03481 0.0
C1349 C 0.7551 0.3348 0.04368 0.0
C1350 C 0.80229 0.31279 0.01389 0.0
C1351 C 0.89125 0.33145 0.01378 0.0
C1352 C 0.85069 0.31328 0.00349 0.0
C1353 C 0.86122 0.29972 0.00503 0.0
C1354 C 0.88164 0.30891 0.01021 0.0
N1355 N 0.86028 0.33541 0.00699 0.0
C1356 C 0.88025 0.34452 0.01209 0.0
Co1357 Co 0.6449 0.46422 0.02654 0.0
Co1358 Co 0.64403 0.48982 0.00661 0.0
O1359 O 0.63715 0.4846 0.0196 0.0
C1360 C 0.66169 0.50604 0.03865 0.0
O1361 O 0.67403 0.51993 0.03195 0.0
C1362 C 0.59476 0.47719 0.00811 0.0
O1363 O 0.59192 0.45907 0.01285 0.0
O1364 O 0.62556 0.45547 0.00437 0.0
O1365 O 0.63932 0.44334 0.0158 0.0
H1366 H 0.66766 0.47459 0.976 0.0
H1367 H 0.60868 0.47429 0.03362 0.0
O1368 O 0.65004 0.48395 0.03752 0.0
H1369 H 0.56889 0.38833 0.03048 0.0
H1370 H 0.64555 0.42039 0.05451 0.0
H1371 H 0.67321 0.44145 0.02291 0.0
H1372 H 0.61075 0.41277 0.02667 0.0
H1373 H 0.63463 0.44494 0.04542 0.0
O1374 O 0.6149 0.49179 0.00496 0.0
H1375 H 0.65983 0.46866 0.99248 0.0
H1376 H 0.64069 0.52137 0.99292 0.0
H1377 H 0.68448 0.41685 0.03174 0.0
H1378 H 0.56687 0.45046 0.03767 0.0
H1379 H 0.6706 0.40612 0.04767 0.0
H1380 H 0.54666 0.40717 0.03605 0.0
O1381 O 0.67814 0.48383 0.0229 0.0
H1382 H 0.65813 0.56552 0.02041 0.0
H1383 H 0.69141 0.52819 0.00108 0.0
H1384 H 0.71475 0.57058 0.00423 0.0
H1385 H 0.69809 0.58952 0.01395 0.0
H1386 H 0.63548 0.52316 0.01714 0.0
H1387 H 0.64809 0.52773 0.97642 0.0
H1388 H 0.66179 0.50431 0.96786 0.0
O1389 O 0.67332 0.48769 0.00803 0.0
C1390 C 0.62795 0.43968 0.00839 0.0
C1391 C 0.6618 0.48497 0.97966 0.0
C1392 C 0.65079 0.51478 0.97989 0.0
N1393 N 0.6501 0.49486 0.99366 0.0
C1394 C 0.65742 0.48176 0.98899 0.0
C1395 C 0.64659 0.51108 0.98923 0.0
C1396 C 0.65848 0.50163 0.9751 0.0
C1397 C 0.6001 0.45544 0.03302 0.0
N1398 N 0.61218 0.44496 0.02992 0.0
C1399 C 0.57638 0.44205 0.03527 0.0
C1400 C 0.56504 0.41776 0.03435 0.0
C1401 C 0.5775 0.40718 0.03122 0.0
C1402 C 0.60119 0.42113 0.02904 0.0
C1403 C 0.65169 0.42493 0.04758 0.0
C1404 C 0.66704 0.43684 0.02982 0.0
C1405 C 0.64561 0.43887 0.0424 0.0
N1406 N 0.65321 0.44457 0.03362 0.0
C1407 C 0.67351 0.42291 0.0348 0.0
C1408 C 0.66573 0.41692 0.04373 0.0
C1409 C 0.68575 0.48778 0.01474 0.0
C1410 C 0.66556 0.55749 0.01615 0.0
C1411 C 0.68407 0.5363 0.00534 0.0
C1412 C 0.69735 0.56031 0.00708 0.0
C1413 C 0.68799 0.57093 0.01253 0.0
N1414 N 0.66206 0.52325 0.00889 0.0
C1415 C 0.65278 0.53353 0.01425 0.0
Co1416 Co 0.51241 0.82527 0.83938 0.0
Co1417 Co 0.49344 0.80744 0.86149 0.0
O1418 O 0.51675 0.82815 0.85265 0.0
C1419 C 0.5528 0.81938 0.84295 0.0
O1420 O 0.5398 0.80485 0.84937 0.0
C1421 C 0.51402 0.85637 0.86945 0.0
O1422 O 0.52828 0.86624 0.86256 0.0
O1423 O 0.46878 0.81103 0.85517 0.0
O1424 O 0.48 0.82025 0.84058 0.0
H1425 H 0.41489 0.74054 0.87071 0.0
H1426 H 0.55516 0.86653 0.84668 0.0
O1427 O 0.54466 0.82965 0.83806 0.0
H1428 H 0.51245 0.89892 0.83024 0.0
H1429 H 0.53925 0.84811 0.80704 0.0
H1430 H 0.47387 0.7944 0.82686 0.0
H1431 H 0.49675 0.85623 0.8309 0.0
H1432 H 0.54347 0.85094 0.82374 0.0
O1433 O 0.49965 0.8344 0.8696 0.0
H1434 H 0.44546 0.76669 0.85989 0.0
H1435 H 0.49071 0.80445 0.8818 0.0
H1436 H 0.46882 0.79107 0.8102 0.0
H1437 H 0.57166 0.90934 0.84607 0.0
H1438 H 0.50167 0.81806 0.80017 0.0
H1439 H 0.55021 0.92579 0.83784 0.0
O1440 O 0.49931 0.79066 0.83965 0.0
H1441 H 0.57422 0.83477 0.8742 0.0
H1442 H 0.49543 0.76681 0.86931 0.0
H1443 H 0.52568 0.7611 0.87675 0.0
H1444 H 0.56542 0.79525 0.87928 0.0
H1445 H 0.54369 0.83962 0.86667 0.0
H1446 H 0.46054 0.77887 0.89285 0.0
H1447 H 0.42234 0.74657 0.88732 0.0
O1448 O 0.48632 0.77962 0.85393 0.0
C1449 C 0.4652 0.81511 0.84702 0.0
C1450 C 0.43149 0.7545 0.8732 0.0
C1451 C 0.4571 0.77604 0.88563 0.0
N1452 N 0.46993 0.78693 0.8702 0.0
C1453 C 0.4489 0.7693 0.86711 0.0
C1454 C 0.47409 0.79051 0.87934 0.0
C1455 C 0.43568 0.75791 0.88252 0.0
C1456 C 0.54581 0.87355 0.84302 0.0
N1457 N 0.525 0.85888 0.83885 0.0
C1458 C 0.5552 0.89781 0.84273 0.0
C1459 C 0.54314 0.90703 0.83812 0.0
C1460 C 0.52193 0.89196 0.83387 0.0
C1461 C 0.51307 0.86779 0.83431 0.0
C1462 C 0.52479 0.83629 0.81134 0.0
C1463 C 0.48818 0.80632 0.82254 0.0
C1464 C 0.52708 0.83779 0.8208 0.0
N1465 N 0.50884 0.82301 0.82626 0.0
C1466 C 0.48525 0.8043 0.81311 0.0
C1467 C 0.50369 0.81943 0.80749 0.0
C1468 C 0.48943 0.77513 0.8458 0.0
C1469 C 0.55691 0.81978 0.87322 0.0
C1470 C 0.51264 0.78181 0.8704 0.0
C1471 C 0.52971 0.77844 0.87462 0.0
C1472 C 0.55199 0.7976 0.87604 0.0
N1473 N 0.51748 0.80366 0.8677 0.0
C1474 C 0.53938 0.82247 0.86902 0.0
Co1475 Co 0.19846 0.68562 0.85738 0.0
Co1476 Co 0.17106 0.68516 0.83783 0.0
O1477 O 0.1779 0.69344 0.85065 0.0
C1478 C 0.15878 0.67071 0.87055 0.0
O1479 O 0.1438 0.65613 0.86456 0.0
C1480 C 0.18475 0.73478 0.83874 0.0
O1481 O 0.20356 0.73778 0.843 0.0
O1482 O 0.20517 0.70281 0.83501 0.0
O1483 O 0.21755 0.68885 0.84628 0.0
H1484 H 0.18208 0.65774 0.8073 0.0
H1485 H 0.19128 0.72408 0.86404 0.0
O1486 O 0.1805 0.68284 0.86867 0.0
H1487 H 0.27646 0.76019 0.85915 0.0
H1488 H 0.24489 0.68656 0.88475 0.0
H1489 H 0.219 0.65523 0.85384 0.0
H1490 H 0.2502 0.71806 0.85633 0.0
H1491 H 0.22024 0.69767 0.87583 0.0
O1492 O 0.16948 0.71445 0.83597 0.0
H1493 H 0.18998 0.6672 0.82361 0.0
H1494 H 0.13845 0.6879 0.82451 0.0
H1495 H 0.24364 0.64372 0.86251 0.0
H1496 H 0.21698 0.76623 0.8671 0.0
H1497 H 0.2568 0.65944 0.87808 0.0
H1498 H 0.25989 0.78459 0.8646 0.0
O1499 O 0.17732 0.65216 0.85445 0.0
H1500 H 0.09757 0.67386 0.8528 0.0
H1501 H 0.13149 0.63766 0.83319 0.0
H1502 H 0.08947 0.61532 0.8371 0.0
H1503 H 0.07224 0.63345 0.84695 0.0
H1504 H 0.13953 0.6955 0.84877 0.0
H1505 H 0.13012 0.67887 0.80819 0.0
H1506 H 0.15195 0.66357 0.79948 0.0
O1507 O 0.17272 0.65562 0.83954 0.0
C1508 C 0.22088 0.69987 0.8388 0.0
C1509 C 0.17237 0.66429 0.81103 0.0
C1510 C 0.14324 0.67619 0.81152 0.0
N1511 N 0.16448 0.6778 0.82502 0.0
C1512 C 0.17671 0.66959 0.82027 0.0
C1513 C 0.14805 0.6813 0.82076 0.0
C1514 C 0.15548 0.66759 0.80664 0.0
C1515 C 0.20997 0.73187 0.86306 0.0
N1516 N 0.2192 0.71859 0.86002 0.0
C1517 C 0.22442 0.75577 0.86476 0.0
C1518 C 0.24849 0.76607 0.86333 0.0
C1519 C 0.2578 0.7524 0.86027 0.0
C1520 C 0.24281 0.72855 0.85866 0.0
C1521 C 0.23929 0.67961 0.87797 0.0
C1522 C 0.22467 0.6622 0.8606 0.0
C1523 C 0.22528 0.6858 0.87289 0.0
N1524 N 0.21823 0.67717 0.8643 0.0
C1525 C 0.23862 0.6556 0.86548 0.0
C1526 C 0.24597 0.6644 0.87422 0.0
C1527 C 0.17264 0.6437 0.84643 0.0
C1528 C 0.10485 0.66579 0.84848 0.0
C1529 C 0.12413 0.64564 0.8375 0.0
C1530 C 0.10032 0.63293 0.83968 0.0
C1531 C 0.09066 0.64311 0.8452 0.0
N1532 N 0.1379 0.66791 0.84071 0.0
C1533 C 0.12858 0.67799 0.84615 0.0
Co1534 Co 0.31722 0.50927 0.85877 0.0
Co1535 Co 0.30964 0.48665 0.83733 0.0
O1536 O 0.30829 0.48281 0.85059 0.0
C1537 C 0.33214 0.47785 0.86832 0.0
O1538 O 0.3243 0.46224 0.86178 0.0
C1539 C 0.26245 0.44751 0.84092 0.0
O1540 O 0.26078 0.46123 0.84698 0.0
O1541 O 0.28905 0.50058 0.83803 0.0
O1542 O 0.30449 0.52381 0.85018 0.0
H1543 H 0.31827 0.52952 0.80802 0.0
H1544 H 0.28587 0.46019 0.86538 0.0
O1545 O 0.33048 0.49628 0.86785 0.0
H1546 H 0.24267 0.50196 0.87124 0.0
H1547 H 0.32836 0.54896 0.88914 0.0
H1548 H 0.34008 0.56064 0.85601 0.0
H1549 H 0.28189 0.52251 0.86428 0.0
H1550 H 0.31548 0.51512 0.87886 0.0
O1551 O 0.28118 0.45482 0.83628 0.0
H1552 H 0.31753 0.52505 0.8247 0.0
H1553 H 0.30239 0.45472 0.82179 0.0
H1554 H 0.35308 0.59494 0.86603 0.0
H1555 H 0.24699 0.43915 0.87251 0.0
H1556 H 0.34723 0.58921 0.88273 0.0
H1557 H 0.22498 0.45999 0.87546 0.0
O1558 O 0.34819 0.52595 0.85282 0.0
H1559 H 0.33256 0.42608 0.8442 0.0
H1560 H 0.35522 0.50026 0.82826 0.0
H1561 H 0.38115 0.48333 0.8275 0.0
H1562 H 0.36984 0.44594 0.8355 0.0
H1563 H 0.30726 0.44374 0.84485 0.0
H1564 H 0.30276 0.45835 0.80507 0.0
H1565 H 0.31085 0.496 0.79809 0.0
O1566 O 0.33811 0.51893 0.83811 0.0
C1567 C 0.29114 0.51696 0.84322 0.0
C1568 C 0.31482 0.51306 0.81098 0.0
C1569 C 0.30609 0.4731 0.80933 0.0
N1570 N 0.3102 0.48975 0.8242 0.0
C1571 C 0.31447 0.51045 0.82042 0.0
C1572 C 0.30587 0.47114 0.81879 0.0
C1573 C 0.31063 0.49423 0.80541 0.0
C1574 C 0.27682 0.46963 0.86682 0.0
N1575 N 0.28656 0.49276 0.86457 0.0
C1576 C 0.25461 0.45751 0.87078 0.0
C1577 C 0.24224 0.46918 0.87242 0.0
C1578 C 0.25215 0.49271 0.87005 0.0
C1579 C 0.27439 0.50426 0.86609 0.0
C1580 C 0.33095 0.55168 0.88187 0.0
C1581 C 0.33734 0.55798 0.86326 0.0
C1582 C 0.32374 0.53259 0.87602 0.0
N1583 N 0.32685 0.53588 0.86683 0.0
C1584 C 0.3448 0.57748 0.8689 0.0
C1585 C 0.34153 0.57426 0.87827 0.0
C1586 C 0.3526 0.53076 0.84441 0.0
C1587 C 0.33769 0.44238 0.84069 0.0
C1588 C 0.35028 0.4841 0.83183 0.0
C1589 C 0.36498 0.47454 0.83134 0.0
C1590 C 0.35861 0.45355 0.83582 0.0
N1591 N 0.3298 0.47307 0.83664 0.0
C1592 C 0.32341 0.45245 0.84103 0.0
Co1593 Co 0.47177 0.81833 0.9745 0.0
Co1594 Co 0.49072 0.84331 0.99546 0.0
O1595 O 0.49095 0.84556 0.98216 0.0
C1596 C 0.51667 0.84819 0.9639 0.0
O1597 O 0.52609 0.86337 0.97054 0.0
C1598 C 0.48229 0.88224 0.9919 0.0
O1599 O 0.46594 0.86803 0.98624 0.0
O1600 O 0.45615 0.82944 0.99567 0.0
O1601 O 0.44596 0.8052 0.98373 0.0
H1602 H 0.46153 0.8038 0.02571 0.0
H1603 H 0.4895 0.86691 0.96733 0.0
O1604 O 0.49645 0.83008 0.96476 0.0
H1605 H 0.40382 0.82646 0.96347 0.0
H1606 H 0.43778 0.77606 0.94497 0.0
H1607 H 0.44267 0.76734 0.97808 0.0
H1608 H 0.42271 0.80576 0.97012 0.0
H1609 H 0.46098 0.8107 0.95463 0.0
O1610 O 0.49437 0.87528 0.99628 0.0
H1611 H 0.46238 0.80642 0.00897 0.0
H1612 H 0.51813 0.87688 0.01023 0.0
H1613 H 0.41915 0.73227 0.96867 0.0
H1614 H 0.47139 0.88806 0.96051 0.0
H1615 H 0.41659 0.7365 0.95199 0.0
H1616 H 0.4282 0.86789 0.95857 0.0
O1617 O 0.48623 0.80142 0.98024 0.0
H1618 H 0.57298 0.90305 0.98651 0.0
H1619 H 0.52404 0.83035 0.00374 0.0
H1620 H 0.56691 0.84721 0.00346 0.0
H1621 H 0.5917 0.88386 0.99481 0.0
H1622 H 0.53 0.88544 0.98689 0.0
H1623 H 0.51776 0.8751 0.02699 0.0
H1624 H 0.48937 0.83832 0.03484 0.0
O1625 O 0.48667 0.81101 0.9949 0.0
C1626 C 0.44086 0.81265 0.99089 0.0
C1627 C 0.47405 0.81989 0.02237 0.0
C1628 C 0.50559 0.85992 0.02309 0.0
N1629 N 0.49046 0.84168 0.00863 0.0
C1630 C 0.47466 0.82145 0.01289 0.0
C1631 C 0.5057 0.86084 0.0136 0.0
C1632 C 0.48966 0.83928 0.02749 0.0
C1633 C 0.47082 0.85774 0.96633 0.0
N1634 N 0.45735 0.83489 0.96896 0.0
C1635 C 0.4606 0.86993 0.96254 0.0
C1636 C 0.43636 0.85864 0.96148 0.0
C1637 C 0.42268 0.83541 0.96423 0.0
C1638 C 0.43351 0.82378 0.968 0.0
C1639 C 0.43873 0.77399 0.95223 0.0
C1640 C 0.44156 0.76936 0.97083 0.0
C1641 C 0.4519 0.79354 0.95774 0.0
N1642 N 0.45308 0.79108 0.96693 0.0
C1643 C 0.42825 0.74942 0.96554 0.0
C1644 C 0.42684 0.7518 0.95617 0.0
C1645 C 0.48733 0.79778 0.9887 0.0
C1646 C 0.56237 0.88707 0.9903 0.0
C1647 C 0.53467 0.84616 0.99988 0.0
C1648 C 0.55896 0.8557 0.99979 0.0
C1649 C 0.57286 0.87628 0.99495 0.0
N1650 N 0.5245 0.85682 0.99528 0.0
C1651 C 0.53802 0.87704 0.99055 0.0
Co1652 Co 0.17767 0.65482 0.9762 0.0
Co1653 Co 0.15242 0.6461 0.99716 0.0
O1654 O 0.15006 0.64465 0.98385 0.0
C1655 C 0.14555 0.66722 0.96572 0.0
O1656 O 0.12911 0.65842 0.97195 0.0
C1657 C 0.1148 0.59828 0.99327 0.0
O1658 O 0.12961 0.59699 0.98765 0.0
O1659 O 0.16756 0.62656 0.99699 0.0
O1660 O 0.19222 0.6432 0.9853 0.0
H1661 H 0.19227 0.65592 0.0273 0.0
H1662 H 0.12976 0.62137 0.96893 0.0
O1663 O 0.16465 0.66697 0.96667 0.0
H1664 H 0.17607 0.58228 0.96444 0.0
H1665 H 0.22145 0.66821 0.94667 0.0
H1666 H 0.22876 0.67973 0.9799 0.0
H1667 H 0.19403 0.62147 0.97138 0.0
H1668 H 0.18621 0.65369 0.95629 0.0
O1669 O 0.121 0.61698 0.99779 0.0
H1670 H 0.1897 0.65513 0.01055 0.0
H1671 H 0.11842 0.63773 0.01204 0.0
H1672 H 0.26442 0.69442 0.97055 0.0
H1673 H 0.1113 0.58248 0.96182 0.0
H1674 H 0.2609 0.68867 0.9538 0.0
H1675 H 0.13443 0.56253 0.95955 0.0
O1676 O 0.19236 0.68582 0.98217 0.0
H1677 H 0.09066 0.66621 0.98868 0.0
H1678 H 0.16349 0.69125 0.00599 0.0
H1679 H 0.14519 0.716 0.00607 0.0
H1680 H 0.10847 0.7035 0.99739 0.0
H1681 H 0.10967 0.64211 0.98872 0.0
H1682 H 0.12014 0.63814 0.0288 0.0
H1683 H 0.15731 0.64739 0.03654 0.0
O1684 O 0.18428 0.67521 0.99678 0.0
C1685 C 0.18498 0.62966 0.9922 0.0
C1686 C 0.17601 0.65198 0.02401 0.0
C1687 C 0.13552 0.64196 0.02485 0.0
N1688 N 0.15403 0.64669 0.01033 0.0
C1689 C 0.17448 0.65159 0.01453 0.0
C1690 C 0.13464 0.64173 0.01536 0.0
C1691 C 0.15638 0.64716 0.02919 0.0
C1692 C 0.1402 0.61325 0.96779 0.0
N1693 N 0.16317 0.62414 0.9704 0.0
C1694 C 0.12953 0.59101 0.96383 0.0
C1695 C 0.14249 0.57979 0.96259 0.0
C1696 C 0.16584 0.59086 0.96533 0.0
C1697 C 0.17591 0.61309 0.96926 0.0
C1698 C 0.22321 0.67078 0.95396 0.0
C1699 C 0.22706 0.67705 0.97263 0.0
C1700 C 0.20332 0.66264 0.95944 0.0
N1701 N 0.20541 0.66572 0.96866 0.0
C1702 C 0.24733 0.68546 0.96736 0.0
C1703 C 0.24534 0.68225 0.95796 0.0
C1704 C 0.19644 0.69005 0.99062 0.0
C1705 C 0.10667 0.67186 0.99249 0.0
C1706 C 0.14764 0.68579 0.00212 0.0
C1707 C 0.13729 0.69983 0.00223 0.0
C1708 C 0.11668 0.69279 0.99737 0.0
N1709 N 0.13774 0.66531 0.9973 0.0
C1710 C 0.1175 0.65827 0.99254 0.0
Co1711 Co 0.35252 0.5053 0.99531 0.0
Co1712 Co 0.34896 0.52735 0.9747 0.0
O1713 O 0.35587 0.50684 0.98204 0.0
C1714 C 0.39986 0.51339 0.99212 0.0
O1715 O 0.40271 0.53066 0.98682 0.0
C1716 C 0.33345 0.48348 0.96335 0.0
O1717 O 0.3381 0.47283 0.96987 0.0
O1718 O 0.3171 0.51227 0.97995 0.0
O1719 O 0.32469 0.51019 0.99469 0.0
H1720 H 0.31655 0.58117 0.96966 0.0
H1721 H 0.35536 0.46671 0.98612 0.0
O1722 O 0.3804 0.50089 0.99619 0.0
H1723 H 0.27866 0.42896 0.00157 0.0
H1724 H 0.35364 0.47359 0.02634 0.0
H1725 H 0.34343 0.53231 0.00927 0.0
H1726 H 0.30525 0.47162 0.00273 0.0
H1727 H 0.35662 0.47548 0.0096 0.0
O1728 O 0.33671 0.50409 0.96447 0.0
H1729 H 0.32691 0.55611 0.97868 0.0
H1730 H 0.35441 0.54117 0.9551 0.0
H1731 H 0.34011 0.53093 0.026 0.0
H1732 H 0.32943 0.42394 0.98487 0.0
H1733 H 0.34523 0.50139 0.03465 0.0
H1734 H 0.29073 0.4048 0.9926 0.0
O1735 O 0.37367 0.53968 0.99624 0.0
H1736 H 0.41958 0.52841 0.96099 0.0
H1737 H 0.38648 0.5768 0.97159 0.0
H1738 H 0.42674 0.59603 0.96556 0.0
H1739 H 0.44354 0.5718 0.96017 0.0
H1740 H 0.37961 0.50994 0.9672 0.0
H1741 H 0.34422 0.56598 0.94582 0.0
H1742 H 0.32522 0.58626 0.95311 0.0
O1743 O 0.36085 0.55184 0.98449 0.0
C1744 C 0.31148 0.51025 0.98833 0.0
C1745 C 0.3249 0.5725 0.96642 0.0
C1746 C 0.3404 0.56395 0.95303 0.0
N1747 N 0.34143 0.54733 0.96744 0.0
C1748 C 0.33087 0.55833 0.97149 0.0
C1749 C 0.34609 0.54989 0.95832 0.0
C1750 C 0.32975 0.57533 0.95713 0.0
C1751 C 0.3386 0.4585 0.98954 0.0
N1752 N 0.33178 0.47168 0.99444 0.0
C1753 C 0.32396 0.43428 0.98879 0.0
C1754 C 0.30224 0.42355 0.99312 0.0
C1755 C 0.29545 0.4371 0.99814 0.0
C1756 C 0.31053 0.46128 0.99873 0.0
C1757 C 0.3513 0.48648 0.02265 0.0
C1758 C 0.34548 0.51929 0.01298 0.0
C1759 C 0.35299 0.48765 0.01317 0.0
N1760 N 0.34991 0.50381 0.00846 0.0
C1761 C 0.34368 0.51864 0.02246 0.0
C1762 C 0.34658 0.50209 0.0273 0.0
C1763 C 0.37271 0.55571 0.99178 0.0
C1764 C 0.41239 0.53916 0.96325 0.0
C1765 C 0.3936 0.56608 0.96926 0.0
C1766 C 0.41644 0.5771 0.96584 0.0
C1767 C 0.42585 0.5635 0.96281 0.0
N1768 N 0.38042 0.54217 0.96962 0.0
C1769 C 0.38961 0.52876 0.9667 0.0
Co1770 Co 0.18129 0.52749 0.47445 0.0
Co1771 Co 0.15448 0.50517 0.49489 0.0
O1772 O 0.15346 0.50695 0.48159 0.0
C1773 C 0.15361 0.4836 0.46308 0.0
O1774 O 0.13861 0.47268 0.46966 0.0
C1775 C 0.11575 0.51376 0.49122 0.0
O1776 O 0.13056 0.53084 0.48594 0.0
O1777 O 0.16793 0.53955 0.49587 0.0
O1778 O 0.19341 0.55189 0.48428 0.0
H1779 H 0.19087 0.52999 0.52587 0.0
H1780 H 0.13375 0.51016 0.46649 0.0
O1781 O 0.1707 0.50435 0.46418 0.0
H1782 H 0.17262 0.59627 0.46504 0.0
H1783 H 0.22618 0.56643 0.44587 0.0
H1784 H 0.23187 0.55609 0.47881 0.0
H1785 H 0.19335 0.577 0.47134 0.0
H1786 H 0.19068 0.54156 0.4549 0.0
O1787 O 0.1223 0.50115 0.49547 0.0
H1788 H 0.18989 0.53169 0.50912 0.0
H1789 H 0.11963 0.47534 0.50891 0.0
H1790 H 0.26777 0.58119 0.47005 0.0
H1791 H 0.11258 0.52869 0.46 0.0
H1792 H 0.26506 0.58652 0.45346 0.0
H1793 H 0.13196 0.57208 0.45928 0.0
O1794 O 0.19774 0.51231 0.47991 0.0
H1795 H 0.09604 0.42414 0.48417 0.0
H1796 H 0.16727 0.47104 0.50246 0.0
H1797 H 0.15083 0.42832 0.50126 0.0
H1798 H 0.11492 0.40456 0.49208 0.0
H1799 H 0.11326 0.46695 0.48545 0.0
H1800 H 0.11977 0.47315 0.52566 0.0
H1801 H 0.15562 0.50055 0.53425 0.0
O1802 O 0.1871 0.50972 0.49455 0.0
C1803 C 0.18513 0.55565 0.49151 0.0
C1804 C 0.17518 0.51788 0.5222 0.0
C1805 C 0.13526 0.486 0.52209 0.0
N1806 N 0.15484 0.50344 0.50804 0.0
C1807 C 0.17456 0.5187 0.51272 0.0
C1808 C 0.13528 0.48734 0.51261 0.0
C1809 C 0.15539 0.50138 0.5269 0.0
C1810 C 0.14255 0.52899 0.46604 0.0
N1811 N 0.16495 0.54239 0.46917 0.0
C1812 C 0.13036 0.53942 0.46242 0.0
C1813 C 0.14122 0.56377 0.46204 0.0
C1814 C 0.16402 0.57734 0.46528 0.0
C1815 C 0.17566 0.56631 0.46885 0.0
C1816 C 0.22758 0.56429 0.4531 0.0
C1817 C 0.23052 0.55841 0.4716 0.0
C1818 C 0.20755 0.5502 0.45825 0.0
N1819 N 0.20917 0.54751 0.46739 0.0
C1820 C 0.25092 0.57261 0.46667 0.0
C1821 C 0.24939 0.57556 0.45736 0.0
C1822 C 0.20079 0.51001 0.48832 0.0
C1823 C 0.11171 0.4343 0.48818 0.0
C1824 C 0.1518 0.46087 0.49836 0.0
C1825 C 0.14249 0.43666 0.49776 0.0
C1826 C 0.12232 0.42333 0.49262 0.0
N1827 N 0.14133 0.47152 0.49397 0.0
C1828 C 0.1215 0.45855 0.48895 0.0
Co1829 Co 0.47289 0.65394 0.47685 0.0
Co1830 Co 0.49488 0.64826 0.49701 0.0
O1831 O 0.49221 0.64455 0.48374 0.0
C1832 C 0.51418 0.66468 0.46458 0.0
O1833 O 0.52573 0.66139 0.47113 0.0
C1834 C 0.48378 0.59985 0.49386 0.0
O1835 O 0.46654 0.59779 0.48874 0.0
O1836 O 0.4603 0.62875 0.49819 0.0
O1837 O 0.45013 0.64532 0.48718 0.0
H1838 H 0.47288 0.6635 0.52794 0.0
H1839 H 0.48411 0.61903 0.469 0.0
O1840 O 0.49427 0.66282 0.46606 0.0
H1841 H 0.39787 0.57979 0.46936 0.0
H1842 H 0.43317 0.66186 0.44887 0.0
H1843 H 0.44962 0.68128 0.48141 0.0
H1844 H 0.42165 0.62035 0.47486 0.0
H1845 H 0.45621 0.64845 0.45761 0.0
O1846 O 0.49728 0.61921 0.49782 0.0
H1847 H 0.47036 0.65985 0.51122 0.0
H1848 H 0.52415 0.64221 0.511 0.0
H1849 H 0.42645 0.69497 0.47294 0.0
H1850 H 0.46101 0.57864 0.46327 0.0
H1851 H 0.41805 0.68524 0.45654 0.0
H1852 H 0.41754 0.55866 0.46347 0.0
O1853 O 0.4919 0.686 0.48173 0.0
H1854 H 0.57408 0.6663 0.48559 0.0
H1855 H 0.53118 0.69471 0.50426 0.0
H1856 H 0.57406 0.71913 0.50267 0.0
H1857 H 0.59582 0.70492 0.4933 0.0
H1858 H 0.53116 0.64257 0.48728 0.0
H1859 H 0.52713 0.64546 0.52772 0.0
H1860 H 0.50143 0.65628 0.5363 0.0
O1861 O 0.49222 0.67746 0.49646 0.0
C1862 C 0.44513 0.6319 0.49407 0.0
C1863 C 0.48424 0.65888 0.52428 0.0
C1864 C 0.51467 0.64872 0.52416 0.0
N1865 N 0.49729 0.65111 0.51014 0.0
C1866 C 0.48295 0.65687 0.51481 0.0
C1867 C 0.51289 0.64688 0.51469 0.0
C1868 C 0.50025 0.6548 0.52896 0.0
C1869 C 0.46525 0.6107 0.46895 0.0
N1870 N 0.45433 0.62223 0.47217 0.0
C1871 C 0.45223 0.58771 0.46576 0.0
C1872 C 0.42785 0.57649 0.4659 0.0
C1873 C 0.4168 0.58832 0.4692 0.0
C1874 C 0.43039 0.6113 0.47233 0.0
C1875 C 0.43669 0.66619 0.45601 0.0
C1876 C 0.44601 0.67691 0.47429 0.0
C1877 C 0.44978 0.65869 0.461 0.0
N1878 N 0.45422 0.66401 0.47003 0.0
C1879 C 0.43289 0.68474 0.46952 0.0
C1880 C 0.42821 0.6793 0.46032 0.0
C1881 C 0.49401 0.69156 0.49012 0.0
C1882 C 0.5648 0.67269 0.48969 0.0
C1883 C 0.54048 0.68851 0.50009 0.0
C1884 C 0.56478 0.70236 0.49926 0.0
C1885 C 0.57698 0.69437 0.49401 0.0
N1886 N 0.52865 0.66728 0.49582 0.0
C1887 C 0.5405 0.6593 0.49069 0.0
Co1888 Co 0.34588 0.81891 0.47536 0.0
Co1889 Co 0.35222 0.84361 0.49642 0.0
O1890 O 0.35383 0.84597 0.48312 0.0
C1891 C 0.32901 0.84789 0.4653 0.0
O1892 O 0.33351 0.86199 0.47224 0.0
C1893 C 0.39939 0.88263 0.49269 0.0
O1894 O 0.40132 0.8684 0.48697 0.0
O1895 O 0.37306 0.8299 0.49644 0.0
O1896 O 0.35908 0.80592 0.48443 0.0
H1897 H 0.34286 0.80388 0.52657 0.0
H1898 H 0.37548 0.86743 0.46811 0.0
O1899 O 0.33245 0.83053 0.46579 0.0
H1900 H 0.42241 0.82881 0.46397 0.0
H1901 H 0.33757 0.77726 0.44567 0.0
H1902 H 0.32457 0.76793 0.4788 0.0
H1903 H 0.38299 0.80732 0.47075 0.0
H1904 H 0.34878 0.81168 0.45544 0.0
O1905 O 0.38051 0.87564 0.49719 0.0
H1906 H 0.3442 0.80665 0.50982 0.0
H1907 H 0.35867 0.87702 0.5113 0.0
H1908 H 0.31324 0.73307 0.46929 0.0
H1909 H 0.41458 0.88938 0.46116 0.0
H1910 H 0.31974 0.73761 0.45259 0.0
H1911 H 0.43844 0.87013 0.45908 0.0
O1912 O 0.31472 0.8016 0.48124 0.0
H1913 H 0.32926 0.90339 0.48806 0.0
H1914 H 0.30604 0.83025 0.50489 0.0
H1915 H 0.2799 0.84698 0.5049 0.0
H1916 H 0.29149 0.88385 0.49646 0.0
H1917 H 0.35473 0.88589 0.48813 0.0
H1918 H 0.35768 0.87509 0.52807 0.0
H1919 H 0.34962 0.83828 0.5358 0.0
O1920 O 0.32407 0.81123 0.49589 0.0
C1921 C 0.37167 0.8133 0.49157 0.0
C1922 C 0.34629 0.81999 0.52327 0.0
C1923 C 0.35463 0.85996 0.52411 0.0
N1924 N 0.35123 0.84188 0.50959 0.0
C1925 C 0.34699 0.82163 0.51379 0.0
C1926 C 0.3552 0.86096 0.51462 0.0
C1927 C 0.35011 0.8393 0.52845 0.0
C1928 C 0.38542 0.8587 0.46706 0.0
N1929 N 0.37664 0.83593 0.4697 0.0
C1930 C 0.40771 0.87132 0.46319 0.0
C1931 C 0.42111 0.86054 0.46205 0.0
C1932 C 0.41214 0.83737 0.4648 0.0
C1933 C 0.38978 0.82529 0.46864 0.0
C1934 C 0.33468 0.77506 0.45294 0.0
C1935 C 0.32756 0.77008 0.47155 0.0
C1936 C 0.34095 0.79448 0.45851 0.0
N1937 N 0.33747 0.79184 0.4677 0.0
C1938 C 0.32106 0.75026 0.46619 0.0
C1939 C 0.32469 0.75282 0.45683 0.0
C1940 C 0.31014 0.79792 0.4897 0.0
C1941 C 0.32401 0.88731 0.49176 0.0
C1942 C 0.3111 0.84615 0.50111 0.0
C1943 C 0.29628 0.85561 0.50119 0.0
C1944 C 0.30281 0.87632 0.49646 0.0
N1945 N 0.33183 0.85699 0.49645 0.0
C1946 C 0.33839 0.87735 0.49184 0.0
Co1947 Co 0.18869 0.50994 0.35825 0.0
Co1948 Co 0.17309 0.4867 0.33693 0.0
O1949 O 0.1711 0.4832 0.35021 0.0
C1950 C 0.14287 0.47832 0.36808 0.0
O1951 O 0.13501 0.46264 0.36156 0.0
C1952 C 0.18171 0.44794 0.34054 0.0
O1953 O 0.19728 0.46195 0.34648 0.0
O1954 O 0.20767 0.50095 0.33743 0.0
O1955 O 0.21562 0.52446 0.3495 0.0
H1956 H 0.20609 0.52878 0.30737 0.0
H1957 H 0.17173 0.46109 0.365 0.0
O1958 O 0.16278 0.49693 0.36748 0.0
H1959 H 0.25686 0.50387 0.37045 0.0
H1960 H 0.21798 0.55057 0.38842 0.0
H1961 H 0.21671 0.56127 0.35527 0.0
H1962 H 0.23757 0.52386 0.36353 0.0
H1963 H 0.19695 0.5164 0.3783 0.0
O1964 O 0.16996 0.45495 0.33595 0.0
H1965 H 0.20302 0.52478 0.32407 0.0
H1966 H 0.14792 0.45429 0.32157 0.0
H1967 H 0.23805 0.59588 0.36512 0.0
H1968 H 0.19021 0.44061 0.37208 0.0
H1969 H 0.2388 0.59065 0.38183 0.0
H1970 H 0.23314 0.46196 0.37483 0.0
O1971 O 0.17388 0.52621 0.35233 0.0
H1972 H 0.09002 0.42582 0.34427 0.0
H1973 H 0.14055 0.4998 0.32803 0.0
H1974 H 0.09764 0.48258 0.3275 0.0
H1975 H 0.07206 0.44529 0.33565 0.0
H1976 H 0.13303 0.44378 0.34469 0.0
H1977 H 0.15052 0.45744 0.30483 0.0
H1978 H 0.1797 0.49494 0.29764 0.0
O1979 O 0.17675 0.5189 0.33765 0.0
C1980 C 0.22201 0.51763 0.3425 0.0
C1981 C 0.19323 0.51239 0.31043 0.0
C1982 C 0.16206 0.47234 0.309 0.0
N1983 N 0.17511 0.48943 0.32378 0.0
C1984 C 0.19135 0.51005 0.31988 0.0
C1985 C 0.16069 0.47065 0.31848 0.0
C1986 C 0.17844 0.49338 0.30497 0.0
C1987 C 0.19025 0.47075 0.36635 0.0
N1988 N 0.20335 0.49386 0.36401 0.0
C1989 C 0.20071 0.45895 0.37029 0.0
C1990 C 0.2248 0.4709 0.3718 0.0
C1991 C 0.23811 0.49441 0.36935 0.0
C1992 C 0.22705 0.50563 0.36542 0.0
C1993 C 0.21782 0.55307 0.38115 0.0
C1994 C 0.21704 0.55882 0.36252 0.0
C1995 C 0.2059 0.5338 0.37538 0.0
N1996 N 0.20573 0.53682 0.36619 0.0
C1997 C 0.22912 0.5785 0.36807 0.0
C1998 C 0.22951 0.57555 0.37745 0.0
C1999 C 0.17429 0.53093 0.34392 0.0
C2000 C 0.10098 0.44208 0.3407 0.0
C2001 C 0.12956 0.48369 0.33167 0.0
C2002 C 0.10526 0.47396 0.33131 0.0
C2003 C 0.09091 0.45302 0.33587 0.0
N2004 N 0.1393 0.47287 0.33643 0.0
C2005 C 0.12535 0.45231 0.3409 0.0
Co2006 Co 0.49353 0.67932 0.35929 0.0
Co2007 Co 0.51223 0.6866 0.33717 0.0
O2008 O 0.51785 0.68717 0.35024 0.0
C2009 C 0.49892 0.64559 0.37085 0.0
O2010 O 0.47736 0.62996 0.36861 0.0
C2011 C 0.55124 0.73366 0.34076 0.0
O2012 O 0.53785 0.73456 0.34717 0.0
O2013 O 0.49793 0.70675 0.33871 0.0
O2014 O 0.47819 0.69326 0.3518 0.0
H2015 H 0.46545 0.67883 0.30907 0.0
H2016 H 0.54339 0.70617 0.36493 0.0
O2017 O 0.50876 0.66573 0.3671 0.0
H2018 H 0.51045 0.75678 0.37253 0.0
H2019 H 0.46226 0.67178 0.39117 0.0
H2020 H 0.44187 0.65779 0.35862 0.0
H2021 H 0.48553 0.71779 0.36575 0.0
H2022 H 0.4931 0.68285 0.37958 0.0
O2023 O 0.54378 0.71537 0.33584 0.0
H2024 H 0.47209 0.67883 0.32558 0.0
H2025 H 0.54223 0.69509 0.32085 0.0
H2026 H 0.41049 0.64652 0.36998 0.0
H2027 H 0.56885 0.74491 0.37183 0.0
H2028 H 0.42061 0.65349 0.38639 0.0
H2029 H 0.55243 0.77056 0.37563 0.0
O2030 O 0.47384 0.6487 0.35322 0.0
H2031 H 0.57353 0.6636 0.3421 0.0
H2032 H 0.49822 0.64199 0.3273 0.0
H2033 H 0.51536 0.61643 0.32546 0.0
H2034 H 0.55332 0.62723 0.33287 0.0
H2035 H 0.55565 0.68854 0.34383 0.0
H2036 H 0.53643 0.69549 0.30428 0.0
H2037 H 0.49777 0.6872 0.2983 0.0
O2038 O 0.48036 0.65799 0.33838 0.0
C2039 C 0.48307 0.70548 0.34456 0.0
C2040 C 0.48234 0.68236 0.31159 0.0
C2041 C 0.52219 0.69174 0.30891 0.0
N2042 N 0.50742 0.68665 0.32416 0.0
C2043 C 0.48617 0.68228 0.32093 0.0
C2044 C 0.52538 0.69152 0.31829 0.0
C2045 C 0.50049 0.68708 0.30555 0.0
C2046 C 0.53602 0.71707 0.36669 0.0
N2047 N 0.51295 0.70962 0.36499 0.0
C2048 C 0.55056 0.73906 0.37054 0.0
C2049 C 0.54135 0.75346 0.37266 0.0
C2050 C 0.51781 0.74575 0.37091 0.0
C2051 C 0.5038 0.72367 0.36704 0.0
C2052 C 0.45763 0.66868 0.38404 0.0
C2053 C 0.44643 0.66094 0.36574 0.0
C2054 C 0.47502 0.67491 0.37744 0.0
N2055 N 0.4693 0.67102 0.36842 0.0
C2056 C 0.42858 0.6545 0.37215 0.0
C2057 C 0.43427 0.65841 0.38135 0.0
C2058 C 0.46844 0.64412 0.34484 0.0
C2059 C 0.557 0.65873 0.33883 0.0
C2060 C 0.51469 0.64674 0.33058 0.0
C2061 C 0.52434 0.63223 0.32949 0.0
C2062 C 0.54565 0.63832 0.33365 0.0
N2063 N 0.52599 0.66679 0.33563 0.0
C2064 C 0.54683 0.67282 0.33976 0.0
Co2065 Co 0.31645 0.81159 0.36052 0.0
Co2066 Co 0.31297 0.82612 0.33843 0.0
O2067 O 0.3101 0.82923 0.3515 0.0
C2068 C 0.34764 0.84889 0.37331 0.0
O2069 O 0.36327 0.84242 0.37186 0.0
C2070 C 0.26519 0.81689 0.34107 0.0
O2071 O 0.2636 0.80174 0.34722 0.0
O2072 O 0.29305 0.79149 0.33914 0.0
O2073 O 0.30391 0.78336 0.35249 0.0
H2074 H 0.32615 0.79166 0.31008 0.0
H2075 H 0.28857 0.83381 0.36581 0.0
O2076 O 0.32858 0.8394 0.3688 0.0
H2077 H 0.23688 0.74935 0.37149 0.0
H2078 H 0.31824 0.78341 0.39225 0.0
H2079 H 0.33825 0.7817 0.36005 0.0
H2080 H 0.27699 0.76432 0.3657 0.0
H2081 H 0.30926 0.80481 0.38065 0.0
O2082 O 0.28417 0.82866 0.3366 0.0
H2083 H 0.32326 0.79583 0.32663 0.0
H2084 H 0.30686 0.84973 0.32226 0.0
H2085 H 0.34751 0.76004 0.37143 0.0
H2086 H 0.24869 0.8196 0.37173 0.0
H2087 H 0.33749 0.76081 0.38766 0.0
H2088 H 0.2225 0.77707 0.37456 0.0
O2089 O 0.34811 0.82338 0.35523 0.0
H2090 H 0.33387 0.90929 0.34479 0.0
H2091 H 0.35906 0.8585 0.32986 0.0
H2092 H 0.3844 0.90145 0.32903 0.0
H2093 H 0.37179 0.92714 0.3365 0.0
H2094 H 0.30917 0.86625 0.34552 0.0
H2095 H 0.30936 0.84602 0.30565 0.0
H2096 H 0.31918 0.81689 0.29947 0.0
O2097 O 0.34156 0.82306 0.3402 0.0
C2098 C 0.29325 0.77709 0.34487 0.0
C2099 C 0.32198 0.80451 0.31269 0.0
C2100 C 0.31252 0.83499 0.3102 0.0
N2101 N 0.31522 0.82322 0.3254 0.0
C2102 C 0.32042 0.80701 0.32206 0.0
C2103 C 0.3111 0.83699 0.31961 0.0
C2104 C 0.31804 0.81864 0.30674 0.0
C2105 C 0.27742 0.81532 0.36715 0.0
N2106 N 0.2852 0.79996 0.36546 0.0
C2107 C 0.25479 0.80736 0.37045 0.0
C2108 C 0.24009 0.78349 0.37202 0.0
C2109 C 0.24814 0.76793 0.37029 0.0
C2110 C 0.27086 0.77651 0.36698 0.0
C2111 C 0.32266 0.78291 0.3852 0.0
C2112 C 0.33379 0.78209 0.36709 0.0
C2113 C 0.31761 0.79498 0.37859 0.0
N2114 N 0.32318 0.79447 0.36967 0.0
C2115 C 0.33909 0.7698 0.37351 0.0
C2116 C 0.33347 0.77024 0.38262 0.0
C2117 C 0.3542 0.82391 0.34696 0.0
C2118 C 0.33953 0.89828 0.34149 0.0
C2119 C 0.35352 0.86957 0.33317 0.0
C2120 C 0.3679 0.89388 0.33265 0.0
C2121 C 0.36081 0.90828 0.33684 0.0
N2122 N 0.33262 0.8599 0.3377 0.0
C2123 C 0.32559 0.8739 0.34185 0.0
C2124 C 0.09588 0.15538 0.18171 0.0
C2125 C 0.10947 0.15235 0.17507 0.0
C2126 C 0.07222 0.14757 0.18014 0.0
C2127 C 0.02397 0.12174 0.16304 0.0
H2128 H 0.98868 0.0839 0.18369 0.0
C2129 C 0.92773 0.03882 0.17334 0.0
C2130 C 0.91229 0.04642 0.17048 0.0
C2131 C 0.95186 0.05347 0.17256 0.0
C2132 C 0.99826 0.09431 0.17785 0.0
H2133 H 0.10946 0.1409 0.16123 0.0
H2134 H 0.06803 0.12679 0.15857 0.0
H2135 H 0.03074 0.10895 0.18494 0.0
H2136 H 0.90996 0.0747 0.16395 0.0
H2137 H 0.95248 0.1005 0.16259 0.0
H2138 H 0.9911 0.10621 0.1559 0.0
C2139 C 0.07568 0.13537 0.16496 0.0
C2140 C 0.02237 0.109 0.17861 0.0
C2141 C 0.09947 0.14342 0.1665 0.0
C2142 C 0.92146 0.06835 0.16619 0.0
C2143 C 0.94576 0.08313 0.16543 0.0
C2144 C -0.00036 0.107 0.16229 0.0
C2145 C 0.06157 0.13631 0.17194 0.0
C2146 C 0.0356 0.12272 0.1712 0.0
C2147 C 0.96115 0.07612 0.16894 0.0
C2148 C 0.98667 0.09281 0.16965 0.0
H2149 H 0.10316 0.16253 0.18833 0.0
H2150 H 0.06195 0.14912 0.18556 0.0
H2151 H 0.03369 0.13216 0.15722 0.0
H2152 H 0.92121 0.02189 0.17657 0.0
H2153 H 0.96331 0.04738 0.17512 0.0
C2154 C 0.83373 0.93439 0.18122 0.0
C2155 C 0.83937 0.95197 0.17468 0.0
C2156 C 0.84058 0.91767 0.17998 0.0
C2157 C 0.87015 0.89629 0.164 0.0
H2158 H 0.90088 0.89436 0.18621 0.0
C2159 C 0.95128 0.88363 0.17729 0.0
C2160 C 0.94628 0.86222 0.17333 0.0
C2161 C 0.93567 0.89193 0.17642 0.0
C2162 C 0.89244 0.89476 0.17994 0.0
H2163 H 0.8544 0.96431 0.1613 0.0
H2164 H 0.86697 0.93565 0.15927 0.0
H2165 H 0.87556 0.91114 0.18648 0.0
H2166 H 0.92157 0.83339 0.16489 0.0
H2167 H 0.89404 0.84801 0.16341 0.0
H2168 H 0.88828 0.88083 0.15743 0.0
C2169 C 0.85702 0.9345 0.1653 0.0
C2170 C 0.87754 0.90402 0.18012 0.0
C2171 C 0.84984 0.95103 0.16648 0.0
C2172 C 0.92591 0.84997 0.16801 0.0
C2173 C 0.91015 0.8583 0.16717 0.0
C2174 C 0.88519 0.88699 0.16383 0.0
C2175 C 0.85356 0.91843 0.17226 0.0
C2176 C 0.86652 0.90533 0.17213 0.0
C2177 C 0.91458 0.879 0.17162 0.0
C2178 C 0.89695 0.88672 0.17176 0.0
H2179 H 0.82535 0.93446 0.18755 0.0
H2180 H 0.83701 0.90507 0.18535 0.0
H2181 H 0.8618 0.89689 0.15775 0.0
H2182 H 0.96698 0.89369 0.18131 0.0
H2183 H 0.93988 0.90828 0.17972 0.0
C2184 C 0.11429 0.06838 0.17345 0.0
C2185 C 0.13768 0.08458 0.17128 0.0
C2186 C 0.10505 0.04462 0.17159 0.0
C2187 C 0.12187 0.00063 0.17074 0.0
H2188 H 0.05952 0.96166 0.16085 0.0
C2189 C 0.04538 0.89707 0.16558 0.0
C2190 C 0.04298 0.88964 0.1747 0.0
C2191 C 0.06132 0.92027 0.16324 0.0
C2192 C 0.07714 0.97228 0.16347 0.0
H2193 H 0.16966 0.08879 0.16531 0.0
H2194 H 0.15352 0.04687 0.16225 0.0
H2195 H 0.07807 0.00424 0.15986 0.0
H2196 H 0.05712 0.90023 0.18832 0.0
H2197 H 0.08498 0.94056 0.18419 0.0
H2198 H 0.12036 0.96863 0.17481 0.0
C2199 C 0.14236 0.05275 0.16528 0.0
C2200 C 0.08765 0.99662 0.16296 0.0
C2201 C 0.1515 0.07667 0.16698 0.0
C2202 C 0.05837 0.90536 0.18125 0.0
C2203 C 0.07445 0.92849 0.17888 0.0
C2204 C 0.11121 0.97624 0.17136 0.0
C2205 C 0.11913 0.03652 0.16767 0.0
C2206 C 0.10984 0.01101 0.16679 0.0
C2207 C 0.07538 0.9364 0.16993 0.0
C2208 C 0.0885 0.96185 0.16793 0.0
H2209 H 0.10326 0.07401 0.17677 0.0
H2210 H 0.08716 0.03244 0.17358 0.0
H2211 H 0.13894 0.01138 0.17381 0.0
H2212 H 0.03399 0.88542 0.16034 0.0
H2213 H 0.06189 0.92587 0.15627 0.0
C2214 C 0.14259 0.10035 0.33219 0.0
C2215 C 0.15551 0.11262 0.32448 0.0
C2216 C 0.13513 0.07655 0.33322 0.0
C2217 C 0.12055 0.02654 0.31824 0.0
H2218 H 0.10347 0.99158 0.34085 0.0
C2219 C 0.07162 0.9238 0.33057 0.0
C2220 C 0.05349 0.91471 0.32409 0.0
C2221 C 0.0864 0.94804 0.33144 0.0
C2222 C 0.10836 0.00109 0.33448 0.0
H2223 H 0.17312 0.11042 0.31239 0.0
H2224 H 0.16106 0.06923 0.3144 0.0
H2225 H 0.12853 0.0342 0.34117 0.0
H2226 H 0.03581 0.92394 0.31382 0.0
H2227 H 0.06105 0.96593 0.31549 0.0
H2228 H 0.10071 0.99365 0.31153 0.0
C2229 C 0.15578 0.07764 0.31945 0.0
C2230 C 0.12256 0.02553 0.33466 0.0
C2231 C 0.16289 0.10131 0.31833 0.0
C2232 C 0.0498 0.93032 0.3188 0.0
C2233 C 0.0644 0.95443 0.31971 0.0
C2234 C 0.10657 0.00224 0.31806 0.0
C2235 C 0.14073 0.06466 0.32663 0.0
C2236 C 0.12844 0.03859 0.32654 0.0
C2237 C 0.08325 0.96359 0.32587 0.0
C2238 C 0.09979 0.98926 0.32618 0.0
H2239 H 0.13658 0.10857 0.33704 0.0
H2240 H 0.12351 0.06717 0.33882 0.0
H2241 H 0.12431 0.03591 0.31184 0.0
H2242 H 0.07494 0.91221 0.33474 0.0
H2243 H 0.10078 0.95455 0.33624 0.0
C2244 C 0.8984 0.04324 0.33243 0.0
C2245 C 0.88662 0.04243 0.32435 0.0
C2246 C 0.92223 0.05954 0.33345 0.0
C2247 C 0.9732 0.09102 0.31854 0.0
H2248 H 0.00697 0.11478 0.34122 0.0
C2249 C 0.07541 0.14845 0.33092 0.0
C2250 C 0.08457 0.13739 0.32546 0.0
C2251 C 0.05113 0.13907 0.33165 0.0
C2252 C 0.99777 0.10846 0.33483 0.0
H2253 H 0.88985 0.05987 0.31147 0.0
H2254 H 0.9311 0.08878 0.31338 0.0
H2255 H 0.96428 0.09728 0.34097 0.0
H2256 H 0.07544 0.10699 0.31701 0.0
H2257 H 0.03342 0.09055 0.31842 0.0
H2258 H 0.00645 0.10213 0.31238 0.0
C2259 C 0.92222 0.07624 0.31878 0.0
C2260 C 0.97333 0.0983 0.33469 0.0
C2261 C 0.89852 0.05975 0.31771 0.0
C2262 C 0.069 0.11616 0.32116 0.0
C2263 C 0.04488 0.10679 0.32192 0.0
C2264 C 0.99749 0.10117 0.31868 0.0
C2265 C 0.93466 0.07554 0.32645 0.0
C2266 C 0.96072 0.08909 0.32656 0.0
C2267 C 0.03566 0.11847 0.32694 0.0
C2268 C 0.01002 0.1095 0.32685 0.0
H2269 H 0.88975 0.03021 0.3377 0.0
H2270 H 0.9312 0.05843 0.33943 0.0
H2271 H 0.96417 0.08382 0.31218 0.0
H2272 H 0.08696 0.16485 0.33431 0.0
H2273 H 0.04452 0.14844 0.33558 0.0
C2274 C 0.88105 0.95169 0.31907 0.0
C2275 C 0.86074 0.94632 0.32402 0.0
C2276 C 0.89068 0.93709 0.31949 0.0
C2277 C 0.89078 0.88898 0.33251 0.0
H2278 H 0.91594 0.88104 0.30981 0.0
C2279 C 0.95604 0.85499 0.33039 0.0
C2280 C 0.95775 0.84478 0.32224 0.0
C2281 C 0.93971 0.86252 0.33125 0.0
C2282 C 0.90859 0.88255 0.31619 0.0
H2283 H 0.83498 0.92178 0.33352 0.0
H2284 H 0.85162 0.89592 0.33413 0.0
H2285 H 0.89689 0.90428 0.31009 0.0
H2286 H 0.94192 0.83202 0.30901 0.0
H2287 H 0.91277 0.84415 0.31066 0.0
H2288 H 0.90217 0.86678 0.33855 0.0
C2289 C 0.86026 0.91162 0.33001 0.0
C2290 C 0.89804 0.89635 0.31638 0.0
C2291 C 0.85072 0.92642 0.32966 0.0
C2292 C 0.9413 0.84018 0.31532 0.0
C2293 C 0.92472 0.84734 0.31624 0.0
C2294 C 0.90118 0.87493 0.3323 0.0
C2295 C 0.88009 0.91656 0.32478 0.0
C2296 C 0.88954 0.90024 0.32458 0.0
C2297 C 0.9245 0.85967 0.32403 0.0
C2298 C 0.91065 0.87192 0.32416 0.0
H2299 H 0.88938 0.96704 0.31474 0.0
H2300 H 0.90637 0.94184 0.31558 0.0
H2301 H 0.8844 0.89159 0.33894 0.0
H2302 H 0.9684 0.85877 0.33587 0.0
H2303 H 0.9402 0.87201 0.33733 0.0
C2304 C 0.89976 0.84174 0.81665 0.0
C2305 C 0.88554 0.84219 0.82368 0.0
C2306 C 0.92343 0.84954 0.81819 0.0
C2307 C 0.97048 0.87054 0.83582 0.0
H2308 H 0.0068 0.91491 0.81688 0.0
C2309 C 0.07299 0.92558 0.83377 0.0
C2310 C 0.08221 0.94832 0.83022 0.0
C2311 C 0.04868 0.91074 0.83439 0.0
C2312 C 0.99692 0.9027 0.82226 0.0
H2313 H 0.88453 0.84873 0.83811 0.0
H2314 H 0.92589 0.86285 0.84073 0.0
H2315 H 0.96498 0.8897 0.81489 0.0
H2316 H 0.07361 0.97423 0.82544 0.0
H2317 H 0.03141 0.94868 0.82676 0.0
H2318 H 0.00277 0.88437 0.84328 0.0
C2319 C 0.91876 0.85639 0.83402 0.0
C2320 C 0.97296 0.8879 0.82105 0.0
C2321 C 0.895 0.84839 0.8325 0.0
C2322 C 0.06693 0.9567 0.82813 0.0
C2323 C 0.04279 0.94201 0.82881 0.0
C2324 C 0.99465 0.8854 0.83703 0.0
C2325 C 0.93347 0.85813 0.82678 0.0
C2326 C 0.95935 0.87181 0.82784 0.0
C2327 C 0.03339 0.91854 0.8315 0.0
C2328 C 0.00798 0.90194 0.83032 0.0
H2329 H 0.89299 0.83671 0.8098 0.0
H2330 H 0.93418 0.85006 0.81252 0.0
H2331 H 0.96048 0.85824 0.84116 0.0
H2332 H 0.08441 0.91865 0.83535 0.0
H2333 H 0.0419 0.89274 0.8365 0.0
C2334 C 0.07355 0.14869 0.82906 0.0
C2335 C 0.0519 0.13652 0.82453 0.0
C2336 C 0.08871 0.13954 0.8293 0.0
C2337 C 0.1131 0.11044 0.83191 0.0
H2338 H 0.11414 0.07913 0.80974 0.0
C2339 C 0.14649 0.04473 0.82992 0.0
C2340 C 0.15385 0.04072 0.82147 0.0
C2341 C 0.13964 0.06158 0.83076 0.0
C2342 C 0.11457 0.08823 0.81593 0.0
H2343 H 0.02847 0.10456 0.81728 0.0
H2344 H 0.05443 0.08841 0.81793 0.0
H2345 H 0.09031 0.0975 0.81048 0.0
H2346 H 0.16263 0.0532 0.80759 0.0
H2347 H 0.15167 0.08326 0.80915 0.0
H2348 H 0.13767 0.10127 0.83731 0.0
C2349 C 0.06015 0.10534 0.82102 0.0
C2350 C 0.10047 0.09839 0.81641 0.0
C2351 C 0.04516 0.11452 0.82071 0.0
C2352 C 0.15668 0.05563 0.81415 0.0
C2353 C 0.15018 0.07272 0.81503 0.0
C2354 C 0.12741 0.10035 0.83141 0.0
C2355 C 0.0824 0.11804 0.82506 0.0
C2356 C 0.09906 0.10908 0.82447 0.0
C2357 C 0.14034 0.075 0.8232 0.0
C2358 C 0.12795 0.0887 0.82346 0.0
H2359 H 0.07925 0.16575 0.83203 0.0
H2360 H 0.10573 0.14976 0.83246 0.0
H2361 H 0.11245 0.1186 0.83821 0.0
H2362 H 0.14414 0.0336 0.83571 0.0
H2363 H 0.13212 0.06275 0.83715 0.0
C2364 C 0.8797 0.92812 0.81952 0.0
C2365 C 0.86027 0.91259 0.82478 0.0
C2366 C 0.88923 0.95225 0.82037 0.0
C2367 C 0.89476 -3e-05 0.81848 0.0
H2368 H 0.90478 0.03251 0.84145 0.0
C2369 C 0.93693 0.09904 0.81839 0.0
C2370 C 0.95569 0.11062 0.8245 0.0
C2371 C 0.92057 0.07535 0.81958 0.0
C2372 C 0.90207 0.02367 0.83498 0.0
H2373 H 0.83615 0.91028 0.83532 0.0
H2374 H 0.85273 0.95267 0.83672 0.0
H2375 H 0.88723 0.98987 0.84131 0.0
H2376 H 0.97083 0.10697 0.83706 0.0
H2377 H 0.94281 0.06553 0.83897 0.0
H2378 H 0.91059 0.03348 0.81213 0.0
C2379 C 0.86066 0.94607 0.83199 0.0
C2380 C 0.89184 0.99923 0.8349 0.0
C2381 C 0.85116 0.9218 0.83118 0.0
C2382 C 0.95658 0.09856 0.83223 0.0
C2383 C 0.94042 0.07473 0.83334 0.0
C2384 C 0.90504 0.02427 0.81856 0.0
C2385 C 0.87946 0.96152 0.82643 0.0
C2386 C 0.88857 0.98719 0.82664 0.0
C2387 C 0.92285 0.0626 0.8268 0.0
C2388 C 0.90919 0.03652 0.82681 0.0
H2389 H 0.88737 0.92165 0.81461 0.0
H2390 H 0.90415 0.96367 0.81617 0.0
H2391 H 0.89202 0.99121 0.81199 0.0
H2392 H 0.9356 0.10798 0.81243 0.0
H2393 H 0.90683 0.06673 0.81456 0.0
C2394 C 0.95491 0.07039 0.67913 0.0
C2395 C 0.94899 0.08606 0.67509 0.0
C2396 C 0.94 0.04629 0.6784 0.0
C2397 C 0.89824 0.99917 0.68203 0.0
H2398 H 0.8665 0.9659 0.66006 0.0
C2399 C 0.83981 0.90049 0.68345 0.0
C2400 C 0.84457 0.88836 0.6767 0.0
C2401 C 0.84705 0.92419 0.68235 0.0
C2402 C 0.8752 0.97497 0.66626 0.0
H2403 H 0.92331 0.08868 0.6667 0.0
H2404 H 0.89702 0.04629 0.66548 0.0
H2405 H 0.89216 0.00852 0.65964 0.0
H2406 H 0.85862 0.89101 0.66312 0.0
H2407 H 0.87186 0.93245 0.66132 0.0
H2408 H 0.88245 0.96594 0.6886 0.0
C2409 C 0.91331 0.05279 0.66918 0.0
C2410 C 0.88976 -0.00063 0.66602 0.0
C2411 C 0.92837 0.07704 0.66988 0.0
C2412 C 0.85475 0.89986 0.66847 0.0
C2413 C 0.86229 0.92367 0.66742 0.0
C2414 C 0.88382 0.97493 0.68226 0.0
C2415 C 0.91869 0.03721 0.67366 0.0
C2416 C 0.90184 0.01163 0.67387 0.0
C2417 C 0.85953 0.93637 0.67453 0.0
C2418 C 0.87237 0.96243 0.67436 0.0
H2419 H 0.97082 0.07673 0.68308 0.0
H2420 H 0.94496 0.03474 0.68172 0.0
H2421 H 0.9069 0.00815 0.68824 0.0
H2422 H 0.83168 0.89202 0.68981 0.0
H2423 H 0.84401 0.93328 0.68785 0.0
C2424 C 0.10074 0.9377 0.67993 0.0
C2425 C 0.11262 0.95593 0.67363 0.0
C2426 C 0.07707 0.92132 0.67871 0.0
C2427 C 0.02578 0.90157 0.66307 0.0
H2428 H 0.99351 0.89679 0.68571 0.0
C2429 C 0.9238 0.85248 0.66764 0.0
C2430 C 0.91528 0.86366 0.67337 0.0
C2431 C 0.94798 0.86162 0.6666 0.0
C2432 C 0.00223 0.89801 0.67932 0.0
H2433 H 0.10962 0.9699 0.66065 0.0
H2434 H 0.0682 0.94176 0.65865 0.0
H2435 H 0.0357 0.91422 0.6857 0.0
H2436 H 0.92539 0.89408 0.68193 0.0
H2437 H 0.96723 0.91007 0.68 0.0
H2438 H 0.99197 0.88617 0.65668 0.0
C2439 C 0.07716 0.93988 0.66448 0.0
C2440 C 0.02645 0.90765 0.67933 0.0
C2441 C 0.10096 0.95609 0.66565 0.0
C2442 C 0.93134 0.88483 0.67757 0.0
C2443 C 0.95535 0.89394 0.67652 0.0
C2444 C 0.00138 0.89187 0.66306 0.0
C2445 C 0.06469 0.92305 0.67123 0.0
C2446 C 0.03863 0.90992 0.67119 0.0
C2447 C 0.96395 0.88207 0.67127 0.0
C2448 C 0.98947 0.89052 0.67117 0.0
H2449 H 0.10936 0.93691 0.68609 0.0
H2450 H 0.06814 0.90814 0.6839 0.0
H2451 H 0.03462 0.90293 0.65669 0.0
H2452 H 0.91185 0.83611 0.66431 0.0
H2453 H 0.95413 0.85213 0.6625 0.0
C2454 C 0.06252 0.16227 0.68226 0.0
C2455 C 0.04467 0.15716 0.67591 0.0
C2456 C 0.07866 0.15477 0.68078 0.0
C2457 C 0.09879 0.12537 0.66424 0.0
H2458 H 0.10205 0.09412 0.68608 0.0
C2459 C 0.14777 0.07201 0.66723 0.0
C2460 C 0.13632 0.05142 0.67248 0.0
C2461 C 0.13857 0.08708 0.66661 0.0
C2462 C 0.10125 0.10268 0.67991 0.0
H2463 H 0.03124 0.14228 0.6626 0.0
H2464 H 0.05897 0.12866 0.66013 0.0
H2465 H 0.08477 0.11899 0.68682 0.0
H2466 H 0.10536 0.02964 0.68059 0.0
H2467 H 0.08928 0.05559 0.67938 0.0
H2468 H 0.11452 0.10797 0.65731 0.0
C2469 C 0.0607 0.13865 0.66622 0.0
C2470 C 0.0917 0.11731 0.68036 0.0
C2471 C 0.04471 0.14642 0.66765 0.0
C2472 C 0.11482 0.04551 0.6766 0.0
C2473 C 0.10566 0.06046 0.67596 0.0
C2474 C 0.10843 0.11064 0.6638 0.0
C2475 C 0.0771 0.14172 0.67297 0.0
C2476 C 0.09001 0.1286 0.67252 0.0
C2477 C 0.11778 0.08176 0.67122 0.0
C2478 C 0.10925 0.09875 0.67161 0.0
H2479 H 0.06319 0.17084 0.68863 0.0
H2480 H 0.09152 0.15802 0.68601 0.0
H2481 H 0.09788 0.13393 0.65809 0.0
H2482 H 0.16439 0.07705 0.66398 0.0
H2483 H 0.14827 0.10337 0.6629 0.0
C2484 C 0.59258 0.40728 0.50269 0.0
C2485 C 0.58276 0.38602 0.50752 0.0
C2486 C 0.61696 0.42192 0.50229 0.0
C2487 C 0.66955 0.43379 0.51533 0.0
H2488 H 0.7043 0.46827 0.49401 0.0
C2489 C 0.76864 0.4904 0.51751 0.0
C2490 C 0.78093 0.48681 0.51047 0.0
C2491 C 0.74496 0.4834 0.51648 0.0
C2492 C 0.69483 0.45877 0.50003 0.0
H2493 H 0.59075 0.36267 0.51514 0.0
H2494 H 0.63296 0.38775 0.51425 0.0
H2495 H 0.66164 0.44358 0.49319 0.0
H2496 H 0.77847 0.47501 0.49652 0.0
H2497 H 0.73712 0.46214 0.49484 0.0
H2498 H 0.70243 0.4478 0.52208 0.0
C2499 C 0.62196 0.39356 0.51102 0.0
C2500 C 0.67039 0.44477 0.49957 0.0
C2501 C 0.59774 0.37908 0.51148 0.0
C2502 C 0.76953 0.47791 0.50211 0.0
C2503 C 0.74575 0.47062 0.50112 0.0
C2504 C 0.69384 0.44762 0.51578 0.0
C2505 C 0.63186 0.41547 0.50668 0.0
C2506 C 0.65756 0.43173 0.50717 0.0
C2507 C 0.73294 0.47234 0.50844 0.0
C2508 C 0.70688 0.46003 0.50811 0.0
H2509 H 0.58146 0.41313 0.4996 0.0
H2510 H 0.62406 0.43869 0.49889 0.0
H2511 H 0.66015 0.42438 0.52138 0.0
H2512 H 0.77696 0.49755 0.52399 0.0
H2513 H 0.7358 0.48565 0.52216 0.0
C2514 C 0.52226 0.2905 0.50015 0.0
C2515 C 0.5106 0.29064 0.50814 0.0
C2516 C 0.5295 0.27401 0.49901 0.0
C2517 C 0.54733 0.24116 0.51382 0.0
H2518 H 0.55905 0.21868 0.49115 0.0
C2519 C 0.59245 0.18383 0.50203 0.0
C2520 C 0.61237 0.19479 0.50765 0.0
C2521 C 0.5778 0.19343 0.50105 0.0
C2522 C 0.55569 0.22466 0.49754 0.0
H2523 H 0.49483 0.27191 0.52065 0.0
H2524 H 0.50673 0.2427 0.51851 0.0
H2525 H 0.53397 0.23637 0.49123 0.0
H2526 H 0.63346 0.22528 0.51608 0.0
H2527 H 0.60825 0.24204 0.51426 0.0
H2528 H 0.56897 0.22967 0.52014 0.0
C2529 C 0.5111 0.25585 0.51329 0.0
C2530 C 0.54146 0.2349 0.49758 0.0
C2531 C 0.50413 0.27248 0.51448 0.0
C2532 C 0.61808 0.21618 0.51181 0.0
C2533 C 0.60354 0.22574 0.51081 0.0
C2534 C 0.56145 0.231 0.51377 0.0
C2535 C 0.52498 0.2572 0.50579 0.0
C2536 C 0.53743 0.2436 0.50572 0.0
C2537 C 0.58287 0.21412 0.50566 0.0
C2538 C 0.56625 0.22313 0.50562 0.0
H2539 H 0.52747 0.30422 0.49511 0.0
H2540 H 0.54018 0.27561 0.49315 0.0
H2541 H 0.545 0.24799 0.5202 0.0
H2542 H 0.58759 0.1673 0.49874 0.0
H2543 H 0.56198 0.18412 0.49702 0.0
C2544 C 0.70782 0.23012 0.50251 0.0
C2545 C 0.70729 0.21807 0.51048 0.0
C2546 C 0.72447 0.25383 0.50148 0.0
C2547 C 0.75886 0.3045 0.51636 0.0
H2548 H 0.77955 0.33813 0.49351 0.0
C2549 C 0.81531 0.40649 0.50315 0.0
C2550 C 0.80612 0.41623 0.50928 0.0
C2551 C 0.80555 0.38215 0.50258 0.0
C2552 C 0.77415 0.329 0.49996 0.0
H2553 H 0.72537 0.22059 0.52311 0.0
H2554 H 0.75507 0.26159 0.52112 0.0
H2555 H 0.76133 0.29546 0.49365 0.0
H2556 H 0.77864 0.40808 0.51917 0.0
H2557 H 0.76133 0.36593 0.51798 0.0
H2558 H 0.77188 0.33784 0.5227 0.0
C2559 C 0.74203 0.25309 0.51584 0.0
C2560 C 0.76352 0.30453 0.50003 0.0
C2561 C 0.72515 0.22951 0.51695 0.0
C2562 C 0.78636 0.40117 0.51448 0.0
C2563 C 0.77654 0.37697 0.51385 0.0
C2564 C 0.76961 0.32885 0.51629 0.0
C2565 C 0.74114 0.26587 0.50833 0.0
C2566 C 0.75531 0.29193 0.50823 0.0
C2567 C 0.78636 0.36714 0.50807 0.0
C2568 C 0.77683 0.34138 0.50808 0.0
H2569 H 0.69429 0.22182 0.4974 0.0
H2570 H 0.72311 0.26303 0.49562 0.0
H2571 H 0.7525 0.29554 0.5228 0.0
H2572 H 0.83058 0.41766 0.49907 0.0
H2573 H 0.81356 0.37514 0.49807 0.0
C2574 C 0.80829 0.43381 0.66451 0.0
C2575 C 0.81925 0.44595 0.65648 0.0
C2576 C 0.80245 0.41041 0.66563 0.0
C2577 C 0.78737 0.36016 0.65092 0.0
H2578 H 0.78346 0.32724 0.67331 0.0
C2579 C 0.75042 0.2619 0.65016 0.0
C2580 C 0.73325 0.24872 0.65666 0.0
C2581 C 0.76484 0.28596 0.65124 0.0
C2582 C 0.78439 0.33624 0.66703 0.0
H2583 H 0.83501 0.44401 0.6438 0.0
H2584 H 0.82551 0.40357 0.64587 0.0
H2585 H 0.80298 0.3702 0.67328 0.0
H2586 H 0.71859 0.2499 0.6697 0.0
H2587 H 0.74353 0.29248 0.67151 0.0
H2588 H 0.7684 0.32659 0.64468 0.0
C2589 C 0.82066 0.41178 0.65117 0.0
C2590 C 0.79558 0.36079 0.667 0.0
C2591 C 0.82624 0.435 0.65 0.0
C2592 C 0.7317 0.25978 0.66458 0.0
C2593 C 0.74601 0.28409 0.66562 0.0
C2594 C 0.77628 0.33582 0.65095 0.0
C2595 C 0.80768 0.39887 0.65877 0.0
C2596 C 0.79721 0.37299 0.65893 0.0
C2597 C 0.76218 0.29751 0.65878 0.0
C2598 C 0.77467 0.32352 0.65897 0.0
H2599 H 0.80268 0.44177 0.66964 0.0
H2600 H 0.79244 0.40097 0.67157 0.0
H2601 H 0.7876 0.36888 0.64465 0.0
H2602 H 0.7524 0.25367 0.64412 0.0
H2603 H 0.7776 0.29567 0.64599 0.0
C2604 C 0.5612 0.38221 0.66367 0.0
C2605 C 0.54986 0.37774 0.65519 0.0
C2606 C 0.58487 0.39914 0.66447 0.0
C2607 C 0.63638 0.42452 0.64959 0.0
H2608 H 0.66923 0.45529 0.67176 0.0
C2609 C 0.73806 0.48365 0.66254 0.0
C2610 C 0.74708 0.47098 0.65808 0.0
C2611 C 0.71383 0.47494 0.66284 0.0
C2612 C 0.66033 0.44701 0.66548 0.0
H2613 H 0.55352 0.38966 0.64123 0.0
H2614 H 0.5945 0.41989 0.64272 0.0
H2615 H 0.6268 0.43882 0.67082 0.0
H2616 H 0.73787 0.43857 0.65105 0.0
H2617 H 0.69585 0.42312 0.65183 0.0
H2618 H 0.6697 0.43281 0.6442 0.0
C2619 C 0.58544 0.4096 0.64865 0.0
C2620 C 0.63599 0.43743 0.66497 0.0
C2621 C 0.56188 0.39242 0.64782 0.0
C2622 C 0.73146 0.44888 0.65444 0.0
C2623 C 0.70737 0.44012 0.65481 0.0
C2624 C 0.66059 0.43419 0.65009 0.0
C2625 C 0.59758 0.41219 0.65684 0.0
C2626 C 0.62366 0.42561 0.65707 0.0
C2627 C 0.69829 0.45338 0.65874 0.0
C2628 C 0.67279 0.44497 0.65811 0.0
H2629 H 0.55245 0.3713 0.66951 0.0
H2630 H 0.59354 0.40056 0.67088 0.0
H2631 H 0.62759 0.41526 0.64344 0.0
H2632 H 0.74971 0.50082 0.66537 0.0
H2633 H 0.70739 0.48557 0.66592 0.0
C2634 C 0.62014 0.19306 0.64851 0.0
C2635 C 0.63232 0.18949 0.6556 0.0
C2636 C 0.60509 0.2017 0.65034 0.0
C2637 C 0.57496 0.21594 0.66856 0.0
H2638 H 0.58627 0.26623 0.65195 0.0
C2639 C 0.55796 0.29919 0.66312 0.0
C2640 C 0.53365 0.28813 0.66442 0.0
C2641 C 0.56957 0.28648 0.66384 0.0
C2642 C 0.58309 0.25244 0.65673 0.0
H2643 H 0.63668 0.19039 0.67027 0.0
H2644 H 0.6108 0.20601 0.67342 0.0
H2645 H 0.60525 0.24342 0.64932 0.0
H2646 H 0.50259 0.25564 0.66814 0.0
H2647 H 0.52288 0.23313 0.66924 0.0
H2648 H 0.55303 0.22556 0.67606 0.0
C2649 C 0.61277 0.20196 0.66645 0.0
C2650 C 0.59366 0.23903 0.65512 0.0
C2651 C 0.62771 0.19309 0.66463 0.0
C2652 C 0.52142 0.2646 0.66721 0.0
C2653 C 0.53303 0.25171 0.6678 0.0
C2654 C 0.56429 0.22945 0.67018 0.0
C2655 C 0.60202 0.20721 0.65929 0.0
C2656 C 0.58973 0.22059 0.66099 0.0
C2657 C 0.55703 0.26231 0.6657 0.0
C2658 C 0.56842 0.24797 0.6643 0.0
H2659 H 0.62297 0.19012 0.64149 0.0
H2660 H 0.59654 0.20495 0.64469 0.0
H2661 H 0.57154 0.2018 0.6732 0.0
H2662 H 0.56776 0.31737 0.661 0.0
H2663 H 0.5882 0.2953 0.66242 0.0
C2664 C 0.73386 0.28504 0.15472 0.0
C2665 C 0.74861 0.27754 0.15845 0.0
C2666 C 0.70965 0.27031 0.15472 0.0
C2667 C 0.66265 0.23097 0.14923 0.0
H2668 H 0.62628 0.19121 0.16928 0.0
C2669 C 0.56387 0.17564 0.14552 0.0
C2670 C 0.55117 0.17758 0.15282 0.0
C2671 C 0.58735 0.18192 0.14662 0.0
C2672 C 0.6362 0.2022 0.16362 0.0
H2673 H 0.74952 0.2491 0.16551 0.0
H2674 H 0.70697 0.22308 0.16541 0.0
H2675 H 0.66875 0.21602 0.17084 0.0
H2676 H 0.55254 0.18537 0.16722 0.0
H2677 H 0.59351 0.19703 0.16906 0.0
H2678 H 0.63036 0.21841 0.14216 0.0
C2679 C 0.7142 0.24049 0.16255 0.0
C2680 C 0.66055 0.21628 0.16449 0.0
C2681 C 0.73855 0.25539 0.16262 0.0
C2682 C 0.56182 0.18379 0.16143 0.0
C2683 C 0.5854 0.19041 0.1625 0.0
C2684 C 0.63843 0.2171 0.14838 0.0
C2685 C 0.69955 0.24758 0.15836 0.0
C2686 C 0.67396 0.23122 0.15736 0.0
C2687 C 0.59875 0.19063 0.155 0.0
C2688 C 0.62478 0.2028 0.15561 0.0
H2689 H 0.74107 0.30213 0.15155 0.0
H2690 H 0.69884 0.27661 0.15169 0.0
H2691 H 0.67249 0.24185 0.14352 0.0
H2692 H 0.55608 0.17056 0.13882 0.0
H2693 H 0.5969 0.18115 0.14076 0.0
C2694 C 0.82762 0.39181 0.15231 0.0
C2695 C 0.82063 0.37341 0.15858 0.0
C2696 C 0.82076 0.40855 0.15347 0.0
C2697 C 0.78983 0.42927 0.16901 0.0
H2698 H 0.76474 0.43688 0.14623 0.0
C2699 C 0.73981 0.48128 0.16482 0.0
C2700 C 0.72042 0.47109 0.15891 0.0
C2701 C 0.7544 0.47157 0.1657 0.0
C2702 C 0.77157 0.43487 0.15266 0.0
H2703 H 0.8028 0.35939 0.17142 0.0
H2704 H 0.79026 0.38814 0.17329 0.0
H2705 H 0.78811 0.41791 0.14629 0.0
H2706 H 0.70027 0.44186 0.14979 0.0
H2707 H 0.7253 0.42488 0.15145 0.0
H2708 H 0.77209 0.44538 0.17538 0.0
C2709 C 0.80129 0.3899 0.16754 0.0
C2710 C 0.78536 0.42434 0.15268 0.0
C2711 C 0.80844 0.37331 0.16645 0.0
C2712 C 0.71525 0.45038 0.15429 0.0
C2713 C 0.72969 0.4407 0.1552 0.0
C2714 C 0.7759 0.43984 0.16899 0.0
C2715 C 0.80645 0.40705 0.16084 0.0
C2716 C 0.79437 0.42102 0.16086 0.0
C2717 C 0.7498 0.45152 0.1607 0.0
C2718 C 0.76619 0.44223 0.16082 0.0
H2719 H 0.83732 0.39257 0.14625 0.0
H2720 H 0.82563 0.42195 0.14831 0.0
H2721 H 0.79666 0.42716 0.17542 0.0
H2722 H 0.74428 0.49726 0.16846 0.0
H2723 H 0.76976 0.48027 0.17 0.0
C2724 C 0.5189 0.25893 0.16552 0.0
C2725 C 0.53148 0.24974 0.1611 0.0
C2726 C 0.52884 0.28321 0.16657 0.0
C2727 C 0.55927 0.33696 0.16998 0.0
H2728 H 0.58908 0.36838 0.14744 0.0
C2729 C 0.62354 0.43657 0.16612 0.0
C2730 C 0.62507 0.44687 0.15758 0.0
C2731 C 0.6075 0.41283 0.16756 0.0
C2732 C 0.58048 0.35993 0.15374 0.0
H2733 H 0.56496 0.25834 0.15516 0.0
H2734 H 0.58237 0.30044 0.15715 0.0
H2735 H 0.57177 0.32628 0.14859 0.0
H2736 H 0.60896 0.4411 0.14425 0.0
H2737 H 0.58067 0.39996 0.14685 0.0
H2738 H 0.56826 0.37096 0.17511 0.0
C2739 C 0.56468 0.28907 0.15958 0.0
C2740 C 0.5709 0.33579 0.15445 0.0
C2741 C 0.55477 0.26497 0.15849 0.0
C2742 C 0.60854 0.43362 0.15086 0.0
C2743 C 0.5924 0.40999 0.15233 0.0
C2744 C 0.56902 0.36131 0.16928 0.0
C2745 C 0.55147 0.29851 0.16323 0.0
C2746 C 0.56058 0.32408 0.16261 0.0
C2747 C 0.59257 0.39904 0.16051 0.0
C2748 C 0.57992 0.37306 0.16117 0.0
H2749 H 0.50085 0.24756 0.16755 0.0
H2750 H 0.5183 0.29004 0.16942 0.0
H2751 H 0.55131 0.32831 0.17633 0.0
H2752 H 0.63589 0.4463 0.17148 0.0
H2753 H 0.60809 0.40496 0.17395 0.0
C2754 C 0.62353 0.40005 0.00747 0.0
C2755 C 0.61539 0.41534 0.00503 0.0
C2756 C 0.60922 0.37596 0.00643 0.0
C2757 C 0.56866 0.32955 0.0119 0.0
H2758 H 0.53042 0.29387 0.9914 0.0
C2759 C 0.50797 0.23187 0.0159 0.0
C2760 C 0.51122 0.21837 0.00928 0.0
C2761 C 0.51563 0.2555 0.01431 0.0
C2762 C 0.54095 0.30367 0.99718 0.0
H2763 H 0.58666 0.4176 0.9989 0.0
H2764 H 0.56145 0.37511 0.99708 0.0
H2765 H 0.55613 0.33651 0.99001 0.0
H2766 H 0.52276 0.21851 0.99543 0.0
H2767 H 0.53654 0.25985 0.99276 0.0
H2768 H 0.5543 0.29713 0.01903 0.0
C2769 C 0.57896 0.38191 0.99978 0.0
C2770 C 0.55556 0.32801 0.99639 0.0
C2771 C 0.59341 0.40619 0.00079 0.0
C2772 C 0.52017 0.22844 0.00071 0.0
C2773 C 0.528 0.25216 0.99916 0.0
C2774 C 0.55407 0.30544 0.0127 0.0
C2775 C 0.5864 0.36658 0.00298 0.0
C2776 C 0.5699 0.34105 0.0037 0.0
C2777 C 0.52685 0.26618 0.00611 0.0
C2778 C 0.54023 0.29213 0.00534 0.0
H2779 H 0.64051 0.40664 0.01066 0.0
H2780 H 0.6156 0.36455 0.00876 0.0
H2781 H 0.57919 0.33921 0.0177 0.0
H2782 H 0.50079 0.2246 0.02252 0.0
H2783 H 0.51396 0.26573 0.01972 0.0
C2784 C 0.7679 0.27597 0.01974 0.0
C2785 C 0.77979 0.29089 0.0124 0.0
C2786 C 0.74435 0.25874 0.01891 0.0
C2787 C 0.69383 0.23064 0.00259 0.0
H2788 H 0.65938 0.23243 0.02366 0.0
C2789 C 0.59165 0.18121 0.00488 0.0
C2790 C 0.58189 0.19296 0.00952 0.0
C2791 C 0.61599 0.1906 0.00467 0.0
C2792 C 0.6687 0.23184 0.01768 0.0
H2793 H 0.77687 0.29791 0.99818 0.0
H2794 H 0.73578 0.26854 0.99683 0.0
H2795 H 0.70163 0.25138 0.02434 0.0
H2796 H 0.58996 0.22444 0.01704 0.0
H2797 H 0.63213 0.24105 0.01643 0.0
H2798 H 0.66063 0.21214 0.99581 0.0
C2799 C 0.74458 0.2698 0.0032 0.0
C2800 C 0.69301 0.24234 0.01813 0.0
C2801 C 0.76824 0.28679 0.00399 0.0
C2802 C 0.59692 0.2148 0.01351 0.0
C2803 C 0.62112 0.22423 0.01323 0.0
C2804 C 0.6694 0.22023 0.00213 0.0
C2805 C 0.73206 0.2563 0.01078 0.0
C2806 C 0.70599 0.24226 0.01055 0.0
C2807 C 0.63095 0.21195 0.00905 0.0
C2808 C 0.65663 0.22122 0.00961 0.0
H2809 H 0.77641 0.27846 0.02628 0.0
H2810 H 0.73547 0.24814 0.02481 0.0
H2811 H 0.70322 0.22998 0.99666 0.0
H2812 H 0.58048 0.16428 0.00177 0.0
H2813 H 0.623 0.18069 0.00139 0.0
C2814 C 0.77684 0.37533 0.00677 0.0
C2815 C 0.80046 0.38389 0.00455 0.0
C2816 C 0.76735 0.39003 0.00646 0.0
C2817 C 0.7601 0.42846 0.01353 0.0
H2818 H 0.76906 0.47492 0.99539 0.0
C2819 C 0.72159 0.4871 0.01992 0.0
C2820 C 0.70752 0.48723 0.01276 0.0
C2821 C 0.73814 0.48015 0.01837 0.0
C2822 C 0.76649 0.46206 0.00053 0.0
H2823 H 0.83225 0.414 0.99961 0.0
H2824 H 0.81561 0.43995 0.99912 0.0
H2825 H 0.78551 0.44921 0.99286 0.0
H2826 H 0.70181 0.48287 0.99817 0.0
H2827 H 0.73016 0.47022 0.99553 0.0
H2828 H 0.74046 0.44037 0.02107 0.0
C2829 C 0.80442 0.42179 0.00104 0.0
C2830 C 0.77598 0.44744 0.99909 0.0
C2831 C 0.81391 0.40692 0.00128 0.0
C2832 C 0.71214 0.48272 0.00387 0.0
C2833 C 0.72854 0.47555 0.00234 0.0
C2834 C 0.75069 0.44298 0.01497 0.0
C2835 C 0.78135 0.41372 0.00403 0.0
C2836 C 0.77243 0.43015 0.00551 0.0
C2837 C 0.74083 0.473 0.00965 0.0
C2838 C 0.75348 0.45978 0.00845 0.0
H2839 H 0.76607 0.35759 0.00927 0.0
H2840 H 0.74932 0.38314 0.00856 0.0
H2841 H 0.75751 0.41569 0.01872 0.0
H2842 H 0.71878 0.49085 0.02683 0.0
H2843 H 0.74785 0.47905 0.02411 0.0
C2844 C 0.25591 0.73519 0.83259 0.0
C2845 C 0.24486 0.71151 0.83517 0.0
C2846 C 0.28039 0.7483 0.83195 0.0
C2847 C 0.32971 0.74759 0.84286 0.0
H2848 H 0.36894 0.79918 0.82679 0.0
C2849 C 0.43373 0.80761 0.83566 0.0
C2850 C 0.44151 0.81095 0.84475 0.0
C2851 C 0.41002 0.79886 0.83368 0.0
C2852 C 0.35817 0.78479 0.83132 0.0
H2853 H 0.25012 0.68228 0.83813 0.0
H2854 H 0.2926 0.7048 0.83663 0.0
H2855 H 0.32677 0.77519 0.82371 0.0
H2856 H 0.43091 0.8101 0.85879 0.0
H2857 H 0.38983 0.79544 0.8553 0.0
H2858 H 0.36071 0.75664 0.8504 0.0
C2859 C 0.28262 0.71351 0.8354 0.0
C2860 C 0.33407 0.77114 0.82957 0.0
C2861 C 0.25831 0.70056 0.83616 0.0
C2862 C 0.42547 0.80736 0.85172 0.0
C2863 C 0.40188 0.79882 0.84973 0.0
C2864 C 0.35359 0.76116 0.84461 0.0
C2865 C 0.294 0.73779 0.8338 0.0
C2866 C 0.31965 0.75227 0.8353 0.0
C2867 C 0.39371 0.79347 0.84073 0.0
C2868 C 0.36814 0.77994 0.83888 0.0
H2869 H 0.24588 0.74405 0.8319 0.0
H2870 H 0.28866 0.76697 0.83071 0.0
H2871 H 0.31905 0.73351 0.84754 0.0
H2872 H 0.44563 0.81035 0.83011 0.0
H2873 H 0.40428 0.79495 0.82667 0.0
C2874 C 0.17009 0.60676 0.85216 0.0
C2875 C 0.17283 0.62163 0.84484 0.0
C2876 C 0.17664 0.58971 0.85127 0.0
C2877 C 0.19978 0.56245 0.83487 0.0
H2878 H 0.23717 0.56581 0.85577 0.0
C2879 C 0.2829 0.54959 0.84553 0.0
C2880 C 0.27649 0.52777 0.84162 0.0
C2881 C 0.26767 0.55849 0.84525 0.0
C2882 C 0.22695 0.56479 0.84985 0.0
H2883 H 0.18233 0.62865 0.83058 0.0
H2884 H 0.19443 0.59959 0.82912 0.0
H2885 H 0.21287 0.58365 0.85654 0.0
H2886 H 0.24949 0.49856 0.834 0.0
H2887 H 0.22258 0.51402 0.83362 0.0
H2888 H 0.21518 0.54467 0.82803 0.0
C2889 C 0.18696 0.60075 0.83552 0.0
C2890 C 0.21256 0.57463 0.85035 0.0
C2891 C 0.18005 0.61755 0.83637 0.0
C2892 C 0.25494 0.5155 0.83704 0.0
C2893 C 0.23953 0.52434 0.83683 0.0
C2894 C 0.21439 0.5527 0.83434 0.0
C2895 C 0.18645 0.58744 0.84309 0.0
C2896 C 0.19907 0.57398 0.84282 0.0
C2897 C 0.2455 0.54565 0.84115 0.0
C2898 C 0.22855 0.55427 0.84177 0.0
H2899 H 0.16426 0.60926 0.85874 0.0
H2900 H 0.17528 0.57924 0.85716 0.0
H2901 H 0.18944 0.56138 0.82897 0.0
H2902 H 0.2995 0.55961 0.84902 0.0
H2903 H 0.27313 0.5753 0.8484 0.0
C2904 C 0.39205 0.56397 0.84844 0.0
C2905 C 0.37375 0.5532 0.8421 0.0
C2906 C 0.40937 0.58736 0.84738 0.0
C2907 C 0.43389 0.63937 0.83215 0.0
H2908 H 0.44002 0.67167 0.8549 0.0
C2909 C 0.46969 0.73994 0.83564 0.0
C2910 C 0.48199 0.75058 0.84366 0.0
C2911 C 0.45994 0.71573 0.83438 0.0
C2912 C 0.43894 0.66299 0.84852 0.0
H2913 H 0.36042 0.55785 0.82925 0.0
H2914 H 0.39049 0.59894 0.82749 0.0
H2915 H 0.41778 0.62935 0.85448 0.0
H2916 H 0.49586 0.74504 0.85617 0.0
H2917 H 0.47956 0.70323 0.8539 0.0
H2918 H 0.45482 0.67345 0.82618 0.0
C2919 C 0.39155 0.58923 0.83324 0.0
C2920 C 0.42617 0.63865 0.84828 0.0
C2921 C 0.37429 0.56568 0.83426 0.0
C2922 C 0.48587 0.73711 0.85005 0.0
C2923 C 0.47651 0.71315 0.84875 0.0
C2924 C 0.44683 0.66393 0.83239 0.0
C2925 C 0.40861 0.60058 0.84002 0.0
C2926 C 0.4235 0.62649 0.84011 0.0
C2927 C 0.46265 0.70199 0.84108 0.0
C2928 C 0.44952 0.67598 0.8406 0.0
H2929 H 0.39231 0.5547 0.85449 0.0
H2930 H 0.42267 0.59545 0.8526 0.0
H2931 H 0.43208 0.63046 0.82575 0.0
H2932 H 0.46658 0.75007 0.8306 0.0
H2933 H 0.44933 0.70764 0.8284 0.0
C2934 C 0.40854 0.58831 0.99906 0.0
C2935 C 0.3867 0.58023 0.99483 0.0
C2936 C 0.42318 0.61226 0.00075 0.0
C2937 C 0.4241 0.66811 0.0032 0.0
H2938 H 0.48449 0.69658 0.99108 0.0
C2939 C 0.48504 0.7596 0.98485 0.0
C2940 C 0.48542 0.77524 0.99145 0.0
C2941 C 0.47819 0.7365 0.98717 0.0
C2942 C 0.46782 0.68885 0.9946 0.0
H2943 H 0.36253 0.59051 0.98945 0.0
H2944 H 0.38776 0.63213 0.99264 0.0
H2945 H 0.46069 0.65381 0.99211 0.0
H2946 H 0.48096 0.77933 0.00586 0.0
H2947 H 0.46878 0.73893 0.00985 0.0
H2948 H 0.43065 0.70296 0.00536 0.0
C2949 C 0.39366 0.62006 0.99458 0.0
C2950 C 0.4543 0.66443 0.99524 0.0
C2951 C 0.37928 0.59628 0.99272 0.0
C2952 C 0.48065 0.76775 0.00057 0.0
C2953 C 0.47359 0.74458 0.00287 0.0
C2954 C 0.43772 0.69247 0.00267 0.0
C2955 C 0.41594 0.62834 0.99843 0.0
C2956 C 0.432 0.65388 0.99928 0.0
C2957 C 0.47148 0.72852 0.99613 0.0
C2958 C 0.45939 0.70307 0.99812 0.0
H2959 H 0.41475 0.57629 0.00068 0.0
H2960 H 0.44031 0.61827 0.00372 0.0
H2961 H 0.40698 0.66036 0.00636 0.0
H2962 H 0.48872 0.76478 0.97778 0.0
H2963 H 0.47661 0.72448 0.98183 0.0
C2964 C 0.23051 0.72938 0.98694 0.0
C2965 C 0.21884 0.71095 0.99318 0.0
C2966 C 0.25412 0.74594 0.98817 0.0
C2967 C 0.30566 0.76562 0.0037 0.0
H2968 H 0.33767 0.77078 0.98094 0.0
C2969 C 0.39933 0.78096 0.98906 0.0
C2970 C 0.41576 0.802 0.99325 0.0
C2971 C 0.37541 0.7724 0.99012 0.0
C2972 C 0.32902 0.76949 0.98736 0.0
H2973 H 0.22211 0.69681 0.00607 0.0
H2974 H 0.26343 0.72527 0.00808 0.0
H2975 H 0.2955 0.75354 0.98103 0.0
H2976 H 0.4199 0.82988 0.00228 0.0
H2977 H 0.37776 0.81477 0.00411 0.0
H2978 H 0.33953 0.78071 0.01003 0.0
C2979 C 0.25436 0.72717 0.00229 0.0
C2980 C 0.30481 0.75995 0.9874 0.0
C2981 C 0.23061 0.71077 0.00112 0.0
C2982 C 0.40767 0.81361 0.99896 0.0
C2983 C 0.38358 0.80499 1.00001 0.0
C2984 C 0.33005 0.77523 0.00365 0.0
C2985 C 0.26666 0.7442 0.99559 0.0
C2986 C 0.29272 0.75748 0.99558 0.0
C2987 C 0.36726 0.78467 0.99536 0.0
C2988 C 0.34185 0.77667 0.9955 0.0
H2989 H 0.22179 0.73018 0.98081 0.0
H2990 H 0.26291 0.75927 0.98301 0.0
H2991 H 0.29689 0.76412 0.0101 0.0
H2992 H 0.40491 0.77137 0.98472 0.0
H2993 H 0.36325 0.75635 0.98665 0.0
C2994 C 0.1853 0.59506 0.99924 0.0
C2995 C 0.19672 0.61605 0.99423 0.0
C2996 C 0.19501 0.58043 0.99984 0.0
C2997 C 0.23444 0.56722 0.98676 0.0
H2998 H 0.23608 0.53399 0.00826 0.0
C2999 C 0.27376 0.50815 0.98414 0.0
C3000 C 0.29085 0.51238 0.99074 0.0
C3001 C 0.25759 0.51563 0.98554 0.0
C3002 C 0.23568 0.54313 0.0022 0.0
H3003 H 0.22811 0.63901 0.98655 0.0
H3004 H 0.24512 0.61386 0.98774 0.0
H3005 H 0.21885 0.55942 0.00914 0.0
H3006 H 0.30299 0.52584 0.00433 0.0
H3007 H 0.27519 0.53947 0.00666 0.0
H3008 H 0.25198 0.55199 0.97986 0.0
C3009 C 0.22837 0.60831 0.99098 0.0
C3010 C 0.22571 0.55756 0.0027 0.0
C3011 C 0.21868 0.62281 0.99034 0.0
C3012 C 0.29006 0.52233 0.9991 0.0
C3013 C 0.27405 0.53012 0.00045 0.0
C3014 C 0.24435 0.55291 0.98626 0.0
C3015 C 0.21631 0.58661 0.99546 0.0
C3016 C 0.22544 0.57011 0.99501 0.0
C3017 C 0.25838 0.52784 0.9935 0.0
C3018 C 0.24538 0.54088 0.99399 0.0
H3019 H 0.16833 0.58937 0.00229 0.0
H3020 H 0.18534 0.56382 0.00335 0.0
H3021 H 0.23409 0.57629 0.98067 0.0
H3022 H 0.27371 0.50021 0.97768 0.0
H3023 H 0.24528 0.51299 0.98015 0.0
C3024 C 0.23303 0.52064 0.49962 0.0
C3025 C 0.22342 0.51208 0.49097 0.0
C3026 C 0.25674 0.52863 0.5013 0.0
C3027 C 0.31059 0.55574 0.48802 0.0
H3028 H 0.34098 0.55766 0.51086 0.0
C3029 C 0.40479 0.62604 0.49397 0.0
C3030 C 0.42022 0.61835 0.49675 0.0
C3031 C 0.38066 0.61128 0.49465 0.0
C3032 C 0.33268 0.55712 0.50443 0.0
H3033 H 0.23035 0.50245 0.4777 0.0
H3034 H 0.27143 0.51576 0.48073 0.0
H3035 H 0.29848 0.5316 0.50924 0.0
H3036 H 0.42253 0.58981 0.50306 0.0
H3037 H 0.38 0.56383 0.50423 0.0
H3038 H 0.34444 0.58122 0.4832 0.0
C3039 C 0.2609 0.51707 0.4861 0.0
C3040 C 0.30841 0.54231 0.50351 0.0
C3041 C 0.23731 0.50931 0.48439 0.0
C3042 C 0.41104 0.59622 0.50089 0.0
C3043 C 0.38673 0.58134 0.50154 0.0
C3044 C 0.33464 0.57051 0.48895 0.0
C3045 C 0.27117 0.528 0.4944 0.0
C3046 C 0.2971 0.54164 0.4953 0.0
C3047 C 0.37137 0.58845 0.49808 0.0
C3048 C 0.34591 0.57169 0.4972 0.0
H3049 H 0.22279 0.52294 0.50485 0.0
H3050 H 0.2641 0.53695 0.50777 0.0
H3051 H 0.30246 0.55603 0.48165 0.0
H3052 H 0.41134 0.6431 0.49087 0.0
H3053 H 0.36922 0.61742 0.49213 0.0
C3054 C 0.49885 0.73049 0.486 0.0
C3055 C 0.49314 0.71288 0.49253 0.0
C3056 C 0.49199 0.7472 0.48722 0.0
C3057 C 0.46225 0.7685 0.50315 0.0
H3058 H 0.43196 0.77081 0.48088 0.0
C3059 C 0.40667 0.81498 0.49916 0.0
C3060 C 0.38641 0.80289 0.49378 0.0
C3061 C 0.4224 0.80661 0.49999 0.0
C3062 C 0.44026 0.77029 0.48717 0.0
H3063 H 0.47793 0.70045 0.50588 0.0
H3064 H 0.46535 0.7291 0.50788 0.0
H3065 H 0.45719 0.75393 0.48065 0.0
H3066 H 0.36588 0.77167 0.48564 0.0
H3067 H 0.39292 0.757 0.48722 0.0
H3068 H 0.44407 0.78393 0.5097 0.0
C3069 C 0.47537 0.73029 0.50187 0.0
C3070 C 0.45512 0.76098 0.48702 0.0
C3071 C 0.48256 0.71377 0.50071 0.0
C3072 C 0.38149 0.78161 0.48972 0.0
C3073 C 0.39707 0.77326 0.49058 0.0
C3074 C 0.44725 0.77784 0.50331 0.0
C3075 C 0.47892 0.7464 0.49492 0.0
C3076 C 0.46599 0.75954 0.49502 0.0
C3077 C 0.41806 0.78603 0.49546 0.0
C3078 C 0.43565 0.77825 0.49535 0.0
H3079 H 0.50731 0.73046 0.47968 0.0
H3080 H 0.49564 0.75984 0.48185 0.0
H3081 H 0.47049 0.76781 0.50943 0.0
H3082 H 0.41095 0.83146 0.50236 0.0
H3083 H 0.43842 0.81678 0.50382 0.0
C3084 C 0.27424 0.75979 0.48587 0.0
C3085 C 0.28973 0.77523 0.49247 0.0
C3086 C 0.25825 0.73655 0.48812 0.0
C3087 C 0.22172 0.68843 0.4954 0.0
H3088 H 0.25521 0.66006 0.50632 0.0
C3089 C 0.1817 0.58785 0.49907 0.0
C3090 C 0.1955 0.58011 0.49463 0.0
C3091 C 0.19082 0.61171 0.50091 0.0
C3092 C 0.24553 0.66777 0.50339 0.0
H3093 H 0.29898 0.77884 0.50679 0.0
H3094 H 0.27122 0.73819 0.51065 0.0
H3095 H 0.27363 0.70267 0.50566 0.0
H3096 H 0.22988 0.59094 0.48903 0.0
H3097 H 0.24594 0.63239 0.49246 0.0
H3098 H 0.19402 0.65337 0.4928 0.0
C3099 C 0.27166 0.7441 0.50373 0.0
C3100 C 0.25597 0.69213 0.50306 0.0
C3101 C 0.2875 0.76741 0.50151 0.0
C3102 C 0.21885 0.59642 0.49246 0.0
C3103 C 0.22808 0.62011 0.49445 0.0
C3104 C 0.21114 0.66401 0.49584 0.0
C3105 C 0.2575 0.72825 0.49699 0.0
C3106 C 0.24448 0.7027 0.49881 0.0
C3107 C 0.21402 0.62804 0.49852 0.0
C3108 C 0.22329 0.65351 0.49957 0.0
H3109 H 0.27535 0.76523 0.47885 0.0
H3110 H 0.24764 0.7247 0.48276 0.0
H3111 H 0.21247 0.69614 0.49211 0.0
H3112 H 0.16358 0.57565 0.50075 0.0
H3113 H 0.17968 0.61744 0.50405 0.0
C3114 C 0.28283 0.73587 0.34822 0.0
C3115 C 0.27934 0.75169 0.34298 0.0
C3116 C 0.26822 0.7118 0.34718 0.0
C3117 C 0.22594 0.66397 0.34854 0.0
H3118 H 0.20452 0.63284 0.32525 0.0
C3119 C 0.1691 0.56497 0.34773 0.0
C3120 C 0.17657 0.55377 0.34157 0.0
C3121 C 0.1764 0.5887 0.34673 0.0
C3122 C 0.21034 0.64128 0.33181 0.0
H3123 H 0.25824 0.75458 0.33228 0.0
H3124 H 0.23238 0.71231 0.33056 0.0
H3125 H 0.22972 0.67542 0.3258 0.0
H3126 H 0.19585 0.55812 0.32907 0.0
H3127 H 0.20923 0.59963 0.32748 0.0
H3128 H 0.20788 0.63009 0.35458 0.0
C3129 C 0.24662 0.71863 0.33542 0.0
C3130 C 0.22462 0.66569 0.33212 0.0
C3131 C 0.26141 0.74283 0.33641 0.0
C3132 C 0.18977 0.56625 0.33394 0.0
C3133 C 0.19742 0.59011 0.33302 0.0
C3134 C 0.21187 0.63968 0.34823 0.0
C3135 C 0.24957 0.70287 0.34094 0.0
C3136 C 0.23298 0.67723 0.34049 0.0
C3137 C 0.19172 0.60187 0.33964 0.0
C3138 C 0.20416 0.62793 0.33986 0.0
H3139 H 0.29666 0.74208 0.35326 0.0
H3140 H 0.27141 0.70015 0.35137 0.0
H3141 H 0.23163 0.67233 0.35512 0.0
H3142 H 0.15866 0.5557 0.35361 0.0
H3143 H 0.17105 0.59702 0.3518 0.0
C3144 C 0.25674 0.51795 0.33527 0.0
C3145 C 0.24743 0.52901 0.34064 0.0
C3146 C 0.28103 0.52733 0.33465 0.0
C3147 C 0.33448 0.55787 0.33171 0.0
H3148 H 0.36739 0.58245 0.35449 0.0
C3149 C 0.43384 0.6228 0.33453 0.0
C3150 C 0.44536 0.62354 0.34268 0.0
C3151 C 0.41003 0.60659 0.33342 0.0
C3152 C 0.35855 0.57527 0.3481 0.0
H3153 H 0.25631 0.5594 0.34906 0.0
H3154 H 0.29837 0.57585 0.34784 0.0
H3155 H 0.32513 0.56424 0.35408 0.0
H3156 H 0.44164 0.60606 0.35559 0.0
H3157 H 0.40041 0.57732 0.35352 0.0
H3158 H 0.36815 0.56896 0.32575 0.0
C3159 C 0.28701 0.5596 0.34432 0.0
C3160 C 0.33428 0.56518 0.34783 0.0
C3161 C 0.26287 0.55024 0.34497 0.0
C3162 C 0.43319 0.60623 0.3493 0.0
C3163 C 0.40949 0.58985 0.34813 0.0
C3164 C 0.35891 0.56797 0.33198 0.0
C3165 C 0.29637 0.54792 0.33939 0.0
C3166 C 0.322 0.55687 0.33961 0.0
C3167 C 0.39733 0.59062 0.34039 0.0
C3168 C 0.37127 0.57716 0.34015 0.0
H3169 H 0.24528 0.50153 0.33187 0.0
H3170 H 0.28775 0.51794 0.33079 0.0
H3171 H 0.32548 0.55156 0.32528 0.0
H3172 H 0.44271 0.63581 0.32928 0.0
H3173 H 0.40128 0.60776 0.32738 0.0
C3174 C 0.39145 0.82611 0.35212 0.0
C3175 C 0.37507 0.82161 0.34518 0.0
C3176 C 0.40806 0.81898 0.3512 0.0
C3177 C 0.43174 0.7916 0.33511 0.0
H3178 H 0.43574 0.7619 0.35726 0.0
C3179 C 0.48188 0.73976 0.33767 0.0
C3180 C 0.47173 0.71978 0.34327 0.0
C3181 C 0.47244 0.75465 0.33735 0.0
C3182 C 0.43467 0.76993 0.35099 0.0
H3183 H 0.36458 0.80784 0.33152 0.0
H3184 H 0.39282 0.79465 0.33005 0.0
H3185 H 0.41677 0.78521 0.35758 0.0
H3186 H 0.44297 0.69901 0.35249 0.0
H3187 H 0.42616 0.72438 0.3517 0.0
H3188 H 0.44852 0.77496 0.32845 0.0
C3189 C 0.39324 0.80404 0.33615 0.0
C3190 C 0.42417 0.78376 0.3512 0.0
C3191 C 0.37689 0.81155 0.33701 0.0
C3192 C 0.4514 0.71443 0.3482 0.0
C3193 C 0.44187 0.72911 0.34781 0.0
C3194 C 0.4421 0.77751 0.33488 0.0
C3195 C 0.40837 0.80678 0.34339 0.0
C3196 C 0.42221 0.79451 0.34325 0.0
C3197 C 0.45259 0.74972 0.34256 0.0
C3198 C 0.44323 0.76611 0.34279 0.0
H3199 H 0.39075 0.83416 0.35845 0.0
H3200 H 0.41994 0.82209 0.3568 0.0
H3201 H 0.43083 0.79984 0.32887 0.0
H3202 H 0.49763 0.74439 0.33382 0.0
H3203 H 0.48117 0.77041 0.33326 0.0
C3204 C 0.20653 0.21452 0.28459 0.0
C3205 C 0.19965 0.19278 0.28868 0.0
C3206 C 0.21003 0.21722 0.27516 0.0
C3207 C 0.18708 0.17919 0.25519 0.0
H3208 H 0.22745 0.23527 0.24135 0.0
C3209 C 0.16665 0.18383 0.21812 0.0
C3210 C 0.1853 0.191 0.21198 0.0
C3211 C 0.17094 0.18825 0.22739 0.0
C3212 C 0.21615 0.21947 0.24514 0.0
H3213 H 0.19345 0.15768 0.28644 0.0
H3214 H 0.20075 0.16267 0.27013 0.0
H3215 H 0.23334 0.23451 0.25782 0.0
H3216 H 0.22311 0.20983 0.21061 0.0
H3217 H 0.23069 0.21716 0.22693 0.0
H3218 H 0.17005 0.16392 0.24266 0.0
C3219 C 0.20258 0.1774 0.27406 0.0
C3220 C 0.21944 0.21907 0.25456 0.0
C3221 C 0.19866 0.17458 0.28341 0.0
C3222 C 0.20841 0.20421 0.2152 0.0
C3223 C 0.21274 0.20839 0.22455 0.0
C3224 C 0.18382 0.17959 0.24586 0.0
C3225 C 0.20693 0.19826 0.26975 0.0
C3226 C 0.20489 0.19887 0.25968 0.0
C3227 C 0.194 0.19956 0.23076 0.0
C3228 C 0.19809 0.19977 0.24072 0.0
H3229 H 0.20711 0.22872 0.28852 0.0
H3230 H 0.21333 0.23351 0.27206 0.0
H3231 H 0.17518 0.16349 0.25891 0.0
H3232 H 0.14866 0.17384 0.2158 0.0
H3233 H 0.15612 0.18181 0.23197 0.0
C3234 C 0.82124 0.99174 0.21885 0.0
C3235 C 0.81055 0.99849 0.21216 0.0
C3236 C 0.81859 0.99498 0.22803 0.0
C3237 C 0.78533 0.00452 0.24549 0.0
H3238 H 0.84626 0.03884 0.25707 0.0
C3239 C 0.8348 0.043 0.28251 0.0
C3240 C 0.82259 0.02241 0.28768 0.0
C3241 C 0.82888 0.04341 0.27341 0.0
C3242 C 0.82908 0.02968 0.25395 0.0
H3243 H 0.78709 0.01218 0.20989 0.0
H3244 H 0.78223 0.01763 0.22613 0.0
H3245 H 0.8438 0.03105 0.24086 0.0
H3246 H 0.79281 0.98699 0.28765 0.0
H3247 H 0.78282 0.98761 0.27178 0.0
H3248 H 0.77064 0.00254 0.25873 0.0
C3249 C 0.7928 0.00999 0.22416 0.0
C3250 C 0.8277 0.02496 0.24467 0.0
C3251 C 0.79555 0.00681 0.2149 0.0
C3252 C 0.80277 0.0031 0.28384 0.0
C3253 C 0.79692 0.00348 0.27473 0.0
C3254 C 0.7867 0.00909 0.25486 0.0
C3255 C 0.8051 0.00496 0.23076 0.0
C3256 C 0.80586 0.01185 0.24039 0.0
C3257 C 0.81069 0.02321 0.26929 0.0
C3258 C 0.80864 0.02136 0.25921 0.0
H3259 H 0.83263 0.98495 0.21698 0.0
H3260 H 0.82786 0.99052 0.233 0.0
H3261 H 0.76829 0.99444 0.24232 0.0
H3262 H 0.84995 0.0583 0.28528 0.0
H3263 H 0.83948 0.05908 0.26944 0.0
C3264 C 0.9665 0.79941 0.27912 0.0
C3265 C 0.98347 0.80369 0.28579 0.0
C3266 C 0.96883 0.79268 0.27034 0.0
C3267 C 0.01649 0.80288 0.25508 0.0
H3268 H 0.96589 0.76749 0.23809 0.0
C3269 C 0.01832 0.82852 0.21793 0.0
C3270 C 0.00751 0.81111 0.21125 0.0
C3271 C 0.01804 0.82243 0.22703 0.0
C3272 C 0.9803 0.77706 0.24276 0.0
H3273 H 0.01474 0.80173 0.28874 0.0
H3274 H 0.01862 0.78982 0.27345 0.0
H3275 H 0.95788 0.76359 0.25442 0.0
H3276 H 0.9889 0.77366 0.20878 0.0
H3277 H 0.98815 0.76295 0.2248 0.0
H3278 H 0.03869 0.81712 0.24343 0.0
C3279 C 0.00383 0.79217 0.27495 0.0
C3280 C 0.97566 0.775 0.25211 0.0
C3281 C 0.00152 0.7989 0.28373 0.0
C3282 C 0.99755 0.78745 0.21378 0.0
C3283 C 0.99694 0.78132 0.22294 0.0
C3284 C 0.02108 0.80502 0.24576 0.0
C3285 C 0.98812 0.79004 0.26806 0.0
C3286 C 0.99356 0.78848 0.25835 0.0
C3287 C 0.00667 0.79877 0.22967 0.0
C3288 C 0.00289 0.79276 0.23949 0.0
H3289 H 0.95234 0.80285 0.28048 0.0
H3290 H 0.95646 0.79129 0.26518 0.0
H3291 H 0.03067 0.8137 0.25968 0.0
H3292 H 0.02607 0.84689 0.21617 0.0
H3293 H 0.02547 0.83628 0.23206 0.0
C3294 C 0.79136 0.78278 0.71461 0.0
C3295 C 0.80424 0.80644 0.71201 0.0
C3296 C 0.78596 0.77674 0.72379 0.0
C3297 C 0.78428 0.80051 0.74648 0.0
H3298 H 0.80775 0.76079 0.7555 0.0
C3299 C 0.79776 0.79598 0.78456 0.0
C3300 C 0.82068 0.8012 0.78672 0.0
C3301 C 0.78893 0.78895 0.77578 0.0
C3302 C 0.80091 0.77174 0.75308 0.0
H3303 H 0.82013 0.84227 0.71681 0.0
H3304 H 0.81038 0.83181 0.73271 0.0
H3305 H 0.80366 0.76409 0.73912 0.0
H3306 H 0.85139 0.80091 0.78158 0.0
H3307 H 0.8361 0.78888 0.76626 0.0
H3308 H 0.7829 0.80937 0.76034 0.0
C3309 C 0.80449 0.81787 0.72774 0.0
C3310 C 0.79834 0.77344 0.74371 0.0
C3311 C 0.81016 0.82388 0.71863 0.0
C3312 C 0.83371 0.79712 0.78014 0.0
C3313 C 0.82488 0.79012 0.77135 0.0
C3314 C 0.78675 0.79874 0.75583 0.0
C3315 C 0.79299 0.79428 0.73047 0.0
C3316 C 0.79083 0.78854 0.74031 0.0
C3317 C 0.80281 0.78698 0.76896 0.0
C3318 C 0.79588 0.78499 0.75923 0.0
H3319 H 0.78674 0.76898 0.70966 0.0
H3320 H 0.777 0.75841 0.72571 0.0
H3321 H 0.77826 0.81213 0.74405 0.0
H3322 H 0.78712 0.79866 0.7895 0.0
H3323 H 0.77168 0.78621 0.7742 0.0
C3324 C 0.16542 0.97193 0.7815 0.0
C3325 C 0.17929 0.99206 0.78673 0.0
C3326 C 0.17051 0.97109 0.77238 0.0
C3327 C 0.2132 0.99692 0.75389 0.0
H3328 H 0.15748 0.97951 0.73953 0.0
C3329 C 0.21203 0.00892 0.71458 0.0
C3330 C 0.19139 0.99323 0.70997 0.0
C3331 C 0.21376 0.00692 0.724 0.0
C3332 C 0.17315 0.98392 0.7434 0.0
H3333 H 0.21045 0.02644 0.78668 0.0
H3334 H 0.2193 0.02503 0.7705 0.0
H3335 H 0.15534 0.98011 0.75594 0.0
H3336 H 0.15741 0.96201 0.71128 0.0
H3337 H 0.1609 0.9576 0.72756 0.0
H3338 H 0.23098 0.0007 0.74121 0.0
C3339 C 0.2045 0.00992 0.77356 0.0
C3340 C 0.17192 0.98442 0.75283 0.0
C3341 C 0.19942 0.01075 0.78279 0.0
C3342 C 0.17347 0.97433 0.71472 0.0
C3343 C 0.17539 0.97203 0.72405 0.0
C3344 C 0.21441 0.99624 0.74436 0.0
C3345 C 0.18954 0.99038 0.76822 0.0
C3346 C 0.19182 0.9907 0.75819 0.0
C3347 C 0.19496 0.98903 0.7289 0.0
C3348 C 0.19428 0.98948 0.73902 0.0
H3349 H 0.15004 0.95702 0.78437 0.0
H3350 H 0.15896 0.95562 0.76846 0.0
H3351 H 0.2288 0.00187 0.75789 0.0
H3352 H 0.22595 0.02383 0.71105 0.0
H3353 H 0.22906 0.02033 0.7275 0.0
C3354 C 0.02263 0.19573 0.7183 0.0
C3355 C 0.00841 0.19982 0.71236 0.0
C3356 C 0.02258 0.19986 0.72759 0.0
C3357 C 0.00203 0.22424 0.74584 0.0
H3358 H 0.99399 0.16935 0.75873 0.0
C3359 C 0.00431 0.21466 0.78528 0.0
C3360 C 0.99064 0.19195 0.78882 0.0
C3361 C 0.00426 0.21861 0.77591 0.0
C3362 C 0.99589 0.18469 0.75525 0.0
H3363 H 0.98441 0.2132 0.71132 0.0
H3364 H 0.98397 0.22007 0.72767 0.0
H3365 H 0.00111 0.17254 0.74252 0.0
H3366 H 0.96439 0.1562 0.78564 0.0
H3367 H 0.96355 0.16322 0.76942 0.0
H3368 H 0.99646 0.23612 0.75873 0.0
C3369 C 0.99538 0.21394 0.72512 0.0
C3370 C 0.00043 0.18673 0.74596 0.0
C3371 C 0.99566 0.21005 0.71576 0.0
C3372 C 0.9752 0.17384 0.78305 0.0
C3373 C 0.9749 0.17783 0.77376 0.0
C3374 C 0.99754 0.22223 0.75523 0.0
C3375 C 0.00799 0.20779 0.73117 0.0
C3376 C 0.0037 0.20655 0.74113 0.0
C3377 C 0.99039 0.19992 0.77001 0.0
C3378 C 0.99431 0.20233 0.76002 0.0
H3379 H 0.03276 0.18801 0.71584 0.0
H3380 H 0.03297 0.19554 0.73205 0.0
H3381 H 0.00443 0.2397 0.74229 0.0
H3382 H 0.01652 0.22887 0.78959 0.0
H3383 H 0.01639 0.23581 0.77323 0.0
C3384 C 0.83562 0.53473 0.55296 0.0
C3385 C 0.84823 0.52962 0.54654 0.0
C3386 C 0.84456 0.54218 0.56171 0.0
C3387 C 0.88178 0.53324 0.57762 0.0
H3388 H 0.86541 0.56942 0.59373 0.0
C3389 C 0.85603 0.50932 0.61469 0.0
C3390 C 0.86158 0.5269 0.62121 0.0
C3391 C 0.86253 0.51514 0.60563 0.0
C3392 C 0.8706 0.55966 0.58931 0.0
H3393 H 0.88125 0.53078 0.54397 0.0
H3394 H 0.89691 0.54406 0.55918 0.0
H3395 H 0.86207 0.57225 0.57729 0.0
H3396 H 0.87933 0.56441 0.62346 0.0
H3397 H 0.89056 0.57467 0.60748 0.0
H3398 H 0.8894 0.51995 0.58964 0.0
C3399 C 0.87987 0.54176 0.55752 0.0
C3400 C 0.86845 0.56109 0.5799 0.0
C3401 C 0.87092 0.53427 0.54878 0.0
C3402 C 0.87497 0.55051 0.61858 0.0
C3403 C 0.88122 0.55637 0.60944 0.0
C3404 C 0.88387 0.53178 0.58702 0.0
C3405 C 0.86635 0.54477 0.56421 0.0
C3406 C 0.87319 0.54723 0.57396 0.0
C3407 C 0.87453 0.5387 0.60284 0.0
C3408 C 0.87744 0.54427 0.59298 0.0
H3409 H 0.81813 0.53143 0.55145 0.0
H3410 H 0.83358 0.54421 0.56669 0.0
H3411 H 0.88541 0.52216 0.57328 0.0
H3412 H 0.8457 0.49097 0.61653 0.0
H3413 H 0.85686 0.5011 0.60071 0.0
C3414 C 0.46519 0.30831 0.54851 0.0
C3415 C 0.46684 0.32757 0.5438 0.0
C3416 C 0.46048 0.30578 0.55781 0.0
C3417 C 0.44566 0.33022 0.57808 0.0
H3418 H 0.48736 0.31278 0.58987 0.0
C3419 C 0.47451 0.34519 0.6165 0.0
C3420 C 0.47608 0.32672 0.62058 0.0
C3421 C 0.46856 0.34398 0.60726 0.0
C3422 C 0.47539 0.31742 0.5867 0.0
H3423 H 0.46362 0.35859 0.54491 0.0
H3424 H 0.45616 0.35467 0.5613 0.0
H3425 H 0.48495 0.31217 0.57346 0.0
H3426 H 0.4705 0.29168 0.61846 0.0
H3427 H 0.46004 0.28957 0.60253 0.0
H3428 H 0.43692 0.33624 0.59154 0.0
C3429 C 0.45787 0.34116 0.55779 0.0
C3430 C 0.47387 0.31693 0.57726 0.0
C3431 C 0.46208 0.3434 0.5484 0.0
C3432 C 0.4699 0.30641 0.61548 0.0
C3433 C 0.46391 0.30518 0.60634 0.0
C3434 C 0.44735 0.33089 0.58761 0.0
C3435 C 0.4581 0.32288 0.56267 0.0
C3436 C 0.45881 0.32305 0.5728 0.0
C3437 C 0.46406 0.32426 0.60204 0.0
C3438 C 0.46207 0.32423 0.59199 0.0
H3439 H 0.4688 0.29589 0.54508 0.0
H3440 H 0.46003 0.29106 0.56129 0.0
H3441 H 0.43393 0.3351 0.57486 0.0
H3442 H 0.47911 0.36101 0.62028 0.0
H3443 H 0.4688 0.35893 0.60409 0.0
C3444 C 0.6509 0.11404 0.54977 0.0
C3445 C 0.66474 0.13694 0.54643 0.0
C3446 C 0.64965 0.10971 0.55916 0.0
C3447 C 0.65555 0.14231 0.58009 0.0
H3448 H 0.64845 0.08753 0.59277 0.0
C3449 C 0.63472 0.13353 0.61757 0.0
C3450 C 0.64959 0.12913 0.623 0.0
C3451 C 0.63253 0.1284 0.6083 0.0
C3452 C 0.65038 0.1029 0.58931 0.0
H3453 H 0.68986 0.17275 0.55007 0.0
H3454 H 0.68846 0.1651 0.56632 0.0
H3455 H 0.65621 0.0916 0.57633 0.0
H3456 H 0.67248 0.1144 0.62323 0.0
H3457 H 0.66921 0.10596 0.60693 0.0
H3458 H 0.65052 0.15414 0.59291 0.0
C3459 C 0.67792 0.1506 0.5618 0.0
C3460 C 0.65473 0.10519 0.5799 0.0
C3461 C 0.67892 0.15496 0.55249 0.0
C3462 C 0.66061 0.1176 0.61919 0.0
C3463 C 0.65879 0.11286 0.60984 0.0
C3464 C 0.65123 0.14005 0.5894 0.0
C3465 C 0.66237 0.12821 0.56528 0.0
C3466 C 0.65765 0.12511 0.57523 0.0
C3467 C 0.64573 0.11941 0.60422 0.0
C3468 C 0.64862 0.12038 0.59416 0.0
H3469 H 0.63964 0.09987 0.54524 0.0
H3470 H 0.63753 0.09227 0.56163 0.0
H3471 H 0.65717 0.15764 0.57669 0.0
H3472 H 0.6261 0.14248 0.62037 0.0
H3473 H 0.62177 0.13303 0.60421 0.0
C3474 C 0.46414 0.15316 0.04996 0.0
C3475 C 0.46252 0.13545 0.0442 0.0
C3476 C 0.45686 0.14821 0.059 0.0
C3477 C 0.45694 0.1122 0.07718 0.0
H3478 H 0.42721 0.14107 0.09053 0.0
C3479 C 0.46708 0.1255 0.11627 0.0
C3480 C 0.4741 0.14865 0.11881 0.0
C3481 C 0.45825 0.11743 0.10751 0.0
C3482 C 0.43546 0.13278 0.08691 0.0
H3483 H 0.45123 0.09849 0.0432 0.0
H3484 H 0.43898 0.08989 0.05918 0.0
H3485 H 0.42421 0.13852 0.07397 0.0
H3486 H 0.47634 0.18112 0.1143 0.0
H3487 H 0.46141 0.16731 0.09921 0.0
H3488 H 0.46972 0.10806 0.09004 0.0
C3489 C 0.44554 0.10751 0.05662 0.0
C3490 C 0.43362 0.13123 0.07744 0.0
C3491 C 0.45237 0.11239 0.04749 0.0
C3492 C 0.47129 0.16322 0.11257 0.0
C3493 C 0.4624 0.15518 0.10391 0.0
C3494 C 0.45897 0.11395 0.08666 0.0
C3495 C 0.44826 0.12552 0.0625 0.0
C3496 C 0.44516 0.12182 0.07247 0.0
C3497 C 0.45603 0.13232 0.10121 0.0
C3498 C 0.44916 0.12525 0.09158 0.0
H3499 H 0.47205 0.17111 0.04759 0.0
H3500 H 0.45944 0.1625 0.06339 0.0
H3501 H 0.46614 0.105 0.0735 0.0
H3502 H 0.46897 0.11384 0.12095 0.0
H3503 H 0.45343 0.09969 0.10563 0.0
C3504 C 0.85538 0.3186 0.05079 0.0
C3505 C 0.8556 0.33799 0.0467 0.0
C3506 C 0.86173 0.31958 0.05997 0.0
C3507 C 0.85879 0.34851 0.08047 0.0
H3508 H 0.89685 0.32638 0.09218 0.0
C3509 C 0.86925 0.35654 0.11868 0.0
C3510 C 0.8662 0.33664 0.12331 0.0
C3511 C 0.87405 0.35902 0.10938 0.0
C3512 C 0.88608 0.33252 0.089 0.0
H3513 H 0.86478 0.37425 0.04869 0.0
H3514 H 0.8759 0.37592 0.06452 0.0
H3515 H 0.89348 0.32524 0.07551 0.0
H3516 H 0.86695 0.3043 0.12209 0.0
H3517 H 0.87448 0.3081 0.10571 0.0
H3518 H 0.85043 0.35495 0.09374 0.0
C3519 C 0.87037 0.35984 0.06077 0.0
C3520 C 0.88418 0.33185 0.07948 0.0
C3521 C 0.86399 0.35885 0.05169 0.0
C3522 C 0.86962 0.31999 0.11865 0.0
C3523 C 0.87388 0.32218 0.10927 0.0
C3524 C 0.86049 0.34897 0.08991 0.0
C3525 C 0.86841 0.33997 0.06511 0.0
C3526 C 0.87067 0.34008 0.07514 0.0
C3527 C 0.87505 0.34122 0.10445 0.0
C3528 C 0.87432 0.34122 0.09432 0.0
H3529 H 0.84904 0.30234 0.04708 0.0
H3530 H 0.86007 0.30401 0.06317 0.0
H3531 H 0.84776 0.35441 0.07734 0.0
H3532 H 0.86664 0.36957 0.12215 0.0
H3533 H 0.87562 0.3743 0.10596 0.0
C3534 C 0.6745 0.55191 0.1191 0.0
C3535 C 0.66176 0.5289 0.12246 0.0
C3536 C 0.67266 0.55655 0.10992 0.0
C3537 C 0.63725 0.5321 0.08911 0.0
H3538 H 0.69664 0.55613 0.07652 0.0
C3539 C 0.64351 0.5006 0.05394 0.0
C3540 C 0.66056 0.51548 0.04766 0.0
C3541 C 0.64265 0.50844 0.06264 0.0
C3542 C 0.67996 0.54999 0.07989 0.0
H3543 H 0.63606 0.49306 0.11912 0.0
H3544 H 0.63225 0.50122 0.10324 0.0
H3545 H 0.69605 0.55924 0.09306 0.0
H3546 H 0.6897 0.5506 0.04551 0.0
H3547 H 0.6883 0.56439 0.0609 0.0
H3548 H 0.62106 0.52197 0.07603 0.0
C3549 C 0.64376 0.51567 0.10762 0.0
C3550 C 0.67963 0.55176 0.08938 0.0
C3551 C 0.64597 0.51096 0.1167 0.0
C3552 C 0.67641 0.53871 0.05022 0.0
C3553 C 0.67563 0.54657 0.05902 0.0
C3554 C 0.63759 0.53052 0.07965 0.0
C3555 C 0.65764 0.53833 0.10406 0.0
C3556 C 0.65821 0.54186 0.09409 0.0
C3557 C 0.6588 0.53141 0.06535 0.0
C3558 C 0.65887 0.53838 0.07497 0.0
H3559 H 0.68702 0.56599 0.12339 0.0
H3560 H 0.68356 0.57415 0.10733 0.0
H3561 H 0.62053 0.5246 0.09257 0.0
H3562 H 0.6309 0.48263 0.05221 0.0
H3563 H 0.62975 0.49611 0.06736 0.0
C3564 C 0.52107 0.83637 0.94833 0.0
C3565 C 0.52618 0.85434 0.9546 0.0
C3566 C 0.52439 0.8412 0.93905 0.0
C3567 C 0.54844 0.88793 0.92139 0.0
H3568 H 0.49401 0.84156 0.90816 0.0
C3569 C 0.54115 0.87906 0.88202 0.0
C3570 C 0.51857 0.8685 0.87824 0.0
C3571 C 0.54424 0.88294 0.89141 0.0
C3572 C 0.50918 0.85496 0.91174 0.0
H3573 H 0.54034 0.89173 0.95616 0.0
H3574 H 0.54574 0.90018 0.93985 0.0
H3575 H 0.49709 0.83653 0.92427 0.0
H3576 H 0.48198 0.85609 0.881 0.0
H3577 H 0.48745 0.86415 0.89726 0.0
H3578 H 0.56023 0.90649 0.90873 0.0
C3579 C 0.53947 0.88239 0.94212 0.0
C3580 C 0.51119 0.85179 0.92098 0.0
C3581 C 0.53644 0.87757 0.95147 0.0
C3582 C 0.49956 0.8643 0.88378 0.0
C3583 C 0.50269 0.86861 0.89311 0.0
C3584 C 0.54641 0.89114 0.91207 0.0
C3585 C 0.53246 0.86406 0.9358 0.0
C3586 C 0.53093 0.86803 0.92592 0.0
C3587 C 0.52479 0.87653 0.89711 0.0
C3588 C 0.52672 0.87462 0.90713 0.0
H3589 H 0.51329 0.81833 0.95057 0.0
H3590 H 0.51948 0.82677 0.93437 0.0
H3591 H 0.56385 0.90078 0.92502 0.0
H3592 H 0.55603 0.88208 0.87788 0.0
H3593 H 0.5615 0.88904 0.89426 0.0
C3594 C 0.15871 0.69174 0.95185 0.0
C3595 C 0.14064 0.67306 0.95664 0.0
C3596 C 0.15676 0.69399 0.94251 0.0
C3597 C 0.11751 0.67037 0.92227 0.0
H3598 H 0.17601 0.68464 0.91064 0.0
C3599 C 0.13078 0.65487 0.88381 0.0
C3600 C 0.1513 0.67287 0.87981 0.0
C3601 C 0.12613 0.65603 0.89306 0.0
C3602 C 0.15959 0.68087 0.91376 0.0
H3603 H 0.1058 0.64286 0.95563 0.0
H3604 H 0.1026 0.6463 0.93917 0.0
H3605 H 0.17405 0.68552 0.92705 0.0
H3606 H 0.18185 0.70711 0.88211 0.0
H3607 H 0.17367 0.70913 0.89806 0.0
H3608 H 0.10308 0.66504 0.90876 0.0
C3609 C 0.11806 0.65956 0.94264 0.0
C3610 C 0.15848 0.68151 0.9232 0.0
C3611 C 0.11984 0.65759 0.95207 0.0
C3612 C 0.16612 0.69271 0.88502 0.0
C3613 C 0.16146 0.6939 0.89417 0.0
C3614 C 0.11861 0.66957 0.91274 0.0
C3615 C 0.13699 0.67718 0.93771 0.0
C3616 C 0.13756 0.6766 0.92759 0.0
C3617 C 0.14193 0.67523 0.89838 0.0
C3618 C 0.1398 0.67513 0.90842 0.0
H3619 H 0.17489 0.7039 0.95525 0.0
H3620 H 0.17137 0.70822 0.93897 0.0
H3621 H 0.1011 0.6664 0.92544 0.0
H3622 H 0.11901 0.63942 0.87993 0.0
H3623 H 0.11093 0.64141 0.89615 0.0
C3624 C 0.32339 0.45056 0.88139 0.0
C3625 C 0.33812 0.4723 0.87727 0.0
C3626 C 0.32471 0.44782 0.89079 0.0
C3627 C 0.34093 0.48585 0.91079 0.0
H3628 H 0.3256 0.42971 0.92451 0.0
C3629 C 0.31689 0.48104 0.94797 0.0
C3630 C 0.32864 0.47399 0.95402 0.0
C3631 C 0.31653 0.47664 0.93869 0.0
C3632 C 0.33 0.44552 0.92075 0.0
H3633 H 0.36726 0.50732 0.87939 0.0
H3634 H 0.37045 0.50223 0.89564 0.0
H3635 H 0.33156 0.43045 0.90799 0.0
H3636 H 0.34784 0.45535 0.95524 0.0
H3637 H 0.34765 0.448 0.93888 0.0
H3638 H 0.33972 0.50113 0.92339 0.0
C3639 C 0.35729 0.48755 0.89176 0.0
C3640 C 0.3333 0.44592 0.91131 0.0
C3641 C 0.35568 0.49042 0.88245 0.0
C3642 C 0.33857 0.46089 0.95071 0.0
C3643 C 0.33847 0.4567 0.94135 0.0
C3644 C 0.33765 0.48545 0.92014 0.0
C3645 C 0.34094 0.46672 0.89614 0.0
C3646 C 0.33879 0.46613 0.90622 0.0
C3647 C 0.32827 0.46542 0.93522 0.0
C3648 C 0.33187 0.46524 0.92524 0.0
H3649 H 0.30952 0.43643 0.87753 0.0
H3650 H 0.31183 0.43156 0.89394 0.0
H3651 H 0.34463 0.50157 0.9071 0.0
H3652 H 0.30886 0.49095 0.95036 0.0
H3653 H 0.30795 0.483 0.93417 0.0
C3654 C 0.1671 0.48194 0.44748 0.0
C3655 C 0.14861 0.47426 0.45373 0.0
C3656 C 0.16253 0.4776 0.43821 0.0
C3657 C 0.11698 0.44568 0.42066 0.0
H3658 H 0.15643 0.50211 0.40687 0.0
C3659 C 0.12559 0.45095 0.3812 0.0
C3660 C 0.13192 0.4726 0.37714 0.0
C3661 C 0.12226 0.44817 0.39063 0.0
C3662 C 0.14494 0.48627 0.4106 0.0
H3663 H 0.11086 0.45461 0.4553 0.0
H3664 H 0.1028 0.44738 0.439 0.0
H3665 H 0.16216 0.50174 0.42307 0.0
H3666 H 0.13732 0.50739 0.37944 0.0
H3667 H 0.13028 0.5022 0.39576 0.0
H3668 H 0.09959 0.43042 0.40804 0.0
C3669 C 0.12084 0.45652 0.44128 0.0
C3670 C 0.14856 0.48592 0.4199 0.0
C3671 C 0.12545 0.46064 0.45062 0.0
C3672 C 0.13251 0.49055 0.38245 0.0
C3673 C 0.12875 0.48764 0.3918 0.0
C3674 C 0.11332 0.44603 0.41127 0.0
C3675 C 0.13936 0.46582 0.43497 0.0
C3676 C 0.13486 0.46559 0.42505 0.0
C3677 C 0.12499 0.46694 0.39608 0.0
C3678 C 0.12733 0.46638 0.40613 0.0
H3679 H 0.18514 0.49226 0.4497 0.0
H3680 H 0.17721 0.48442 0.43355 0.0
H3681 H 0.10611 0.42975 0.42445 0.0
H3682 H 0.12534 0.43696 0.37725 0.0
H3683 H 0.11942 0.43201 0.3937 0.0
C3684 C 0.52892 0.66179 0.38327 0.0
C3685 C 0.50899 0.64262 0.37942 0.0
C3686 C 0.53474 0.66127 0.39238 0.0
C3687 C 0.54487 0.65538 0.41222 0.0
H3688 H 0.48787 0.63378 0.42625 0.0
C3689 C 0.53636 0.65763 0.45219 0.0
C3690 C 0.52147 0.66605 0.45498 0.0
C3691 C 0.53897 0.65444 0.44292 0.0
C3692 C 0.50395 0.63977 0.42243 0.0
H3693 H 0.48138 0.60682 0.38179 0.0
H3694 H 0.49179 0.6058 0.39762 0.0
H3695 H 0.4853 0.6261 0.41004 0.0
H3696 H 0.49947 0.67975 0.45022 0.0
H3697 H 0.50403 0.67416 0.43418 0.0
H3698 H 0.56336 0.66983 0.42476 0.0
C3699 C 0.50251 0.62147 0.39366 0.0
C3700 C 0.5025 0.63511 0.41315 0.0
C3701 C 0.49661 0.62202 0.38457 0.0
C3702 C 0.51077 0.67288 0.44832 0.0
C3703 C 0.5133 0.66962 0.43913 0.0
C3704 C 0.5463 0.65989 0.4216 0.0
C3705 C 0.52083 0.64154 0.3978 0.0
C3706 C 0.5229 0.64331 0.40787 0.0
C3707 C 0.52667 0.65955 0.43635 0.0
C3708 C 0.52581 0.6527 0.42671 0.0
H3709 H 0.539 0.6779 0.37948 0.0
H3710 H 0.54894 0.67704 0.39533 0.0
H3711 H 0.5609 0.66183 0.40834 0.0
H3712 H 0.54481 0.6522 0.45717 0.0
H3713 H 0.54947 0.64673 0.44092 0.0
C3714 C 0.31388 0.83713 0.44951 0.0
C3715 C 0.32485 0.8545 0.45619 0.0
C3716 C 0.31411 0.84328 0.44042 0.0
C3717 C 0.35196 0.88864 0.42471 0.0
H3718 H 0.30156 0.85212 0.40779 0.0
C3719 C 0.36574 0.8661 0.38839 0.0
C3720 C 0.34882 0.86185 0.38171 0.0
C3721 C 0.3634 0.87286 0.39717 0.0
C3722 C 0.31575 0.86291 0.41239 0.0
H3723 H 0.34362 0.89193 0.4587 0.0
H3724 H 0.34426 0.90274 0.4427 0.0
H3725 H 0.29352 0.84875 0.42404 0.0
H3726 H 0.31761 0.86389 0.37873 0.0
H3727 H 0.31371 0.87587 0.394 0.0
H3728 H 0.37441 0.90201 0.41306 0.0
C3729 C 0.33541 0.88437 0.44454 0.0
C3730 C 0.31114 0.8608 0.42171 0.0
C3731 C 0.33487 0.87818 0.45369 0.0
C3732 C 0.3308 0.86669 0.38375 0.0
C3733 C 0.32848 0.87346 0.39251 0.0
C3734 C 0.35661 0.89067 0.41537 0.0
C3735 C 0.32556 0.86696 0.43779 0.0
C3736 C 0.32934 0.873 0.42798 0.0
C3737 C 0.34414 0.87558 0.39943 0.0
C3738 C 0.3387 0.87722 0.40912 0.0
H3739 H 0.30609 0.81875 0.45125 0.0
H3740 H 0.30658 0.82945 0.43539 0.0
H3741 H 0.36638 0.89816 0.42939 0.0
H3742 H 0.37988 0.86261 0.38706 0.0
H3743 H 0.37574 0.87423 0.40233 0.0
C3744 C 0.24885 0.14147 0.17738 0.0
C3745 C 0.24155 0.15567 0.17298 0.0
C3746 C 0.27146 0.14525 0.17606 0.0
C3747 C 0.33069 0.18974 0.16871 0.0
H3748 H 0.33872 0.13606 0.16449 0.0
C3749 C 0.4183 0.19929 0.15665 0.0
C3750 C 0.4253 0.18429 0.16056 0.0
C3751 C 0.39598 0.19595 0.15833 0.0
C3752 C 0.33681 0.15121 0.16577 0.0
H3753 H 0.25234 0.18519 0.16384 0.0
H3754 H 0.29182 0.19171 0.16151 0.0
H3755 H 0.29961 0.13011 0.1672 0.0
H3756 H 0.4144 0.15405 0.16931 0.0
H3757 H 0.37553 0.1484 0.17232 0.0
H3758 H 0.36789 0.21085 0.1673 0.0
C3759 C 0.28009 0.17776 0.16603 0.0
C3760 C 0.31441 0.1478 0.16732 0.0
C3761 C 0.25744 0.17394 0.16732 0.0
C3762 C 0.40951 0.16588 0.16618 0.0
C3763 C 0.3872 0.16256 0.16787 0.0
C3764 C 0.3531 0.19315 0.16719 0.0
C3765 C 0.28728 0.16336 0.17034 0.0
C3766 C 0.31111 0.16703 0.16879 0.0
C3767 C 0.38018 0.17755 0.16395 0.0
C3768 C 0.35641 0.17393 0.16568 0.0
H3769 H 0.23708 0.12732 0.18182 0.0
H3770 H 0.27662 0.13408 0.17957 0.0
H3771 H 0.32871 0.20487 0.16995 0.0
H3772 H 0.43001 0.21357 0.15224 0.0
H3773 H 0.39098 0.20758 0.1551 0.0
C3774 C 0.85877 0.10611 0.17689 0.0
C3775 C 0.84497 0.08513 0.17212 0.0
C3776 C 0.85537 0.12522 0.17566 0.0
C3777 C 0.81198 0.14091 0.16751 0.0
H3778 H 0.86604 0.20334 0.16554 0.0
C3779 C 0.8046 0.2206 0.15601 0.0
C3780 C 0.81774 0.24151 0.1609 0.0
C3781 C 0.80797 0.20155 0.15747 0.0
C3782 C 0.85078 0.18604 0.16617 0.0
H3783 H 0.81675 0.06769 0.16233 0.0
H3784 H 0.81106 0.10113 0.16011 0.0
H3785 H 0.87175 0.16991 0.16798 0.0
H3786 H 0.84486 0.25894 0.17111 0.0
H3787 H 0.85067 0.22562 0.17366 0.0
H3788 H 0.79103 0.15705 0.16564 0.0
C3789 C 0.82428 0.10272 0.16489 0.0
C3790 C 0.85404 0.1669 0.16758 0.0
C3791 C 0.82764 0.0836 0.16613 0.0
C3792 C 0.83446 0.24306 0.16723 0.0
C3793 C 0.83788 0.22403 0.16866 0.0
C3794 C 0.80873 0.16004 0.16608 0.0
C3795 C 0.83813 0.12375 0.16963 0.0
C3796 C 0.83467 0.14412 0.16825 0.0
C3797 C 0.82462 0.20306 0.16381 0.0
C3798 C 0.82809 0.18279 0.16538 0.0
H3799 H 0.87218 0.1078 0.18159 0.0
H3800 H 0.8661 0.14107 0.17951 0.0
H3801 H 0.79669 0.12363 0.16814 0.0
H3802 H 0.79165 0.21887 0.15106 0.0
H3803 H 0.79772 0.18571 0.15355 0.0
C3804 C 0.89244 0.75064 0.17839 0.0
C3805 C 0.9132 0.75851 0.17338 0.0
C3806 C 0.87339 0.72821 0.17698 0.0
C3807 C 0.85747 0.67012 0.1677 0.0
H3808 H 0.79507 0.66209 0.16639 0.0
C3809 C 0.77735 0.58393 0.15577 0.0
C3810 C 0.75647 0.57599 0.16071 0.0
C3811 C 0.79648 0.60621 0.15735 0.0
C3812 C 0.81236 0.66401 0.16684 0.0
H3813 H 0.93037 0.74894 0.16301 0.0
H3814 H 0.89703 0.70987 0.16049 0.0
H3815 H 0.8286 0.70091 0.1692 0.0
H3816 H 0.73924 0.58523 0.17117 0.0
H3817 H 0.77273 0.62405 0.17397 0.0
H3818 H 0.84122 0.63322 0.16532 0.0
C3819 C 0.89557 0.72096 0.16558 0.0
C3820 C 0.83155 0.68623 0.16845 0.0
C3821 C 0.91462 0.74339 0.16699 0.0
C3822 C 0.75507 0.59085 0.16723 0.0
C3823 C 0.77421 0.61313 0.16881 0.0
C3824 C 0.83827 0.6479 0.16608 0.0
C3825 C 0.87471 0.71317 0.17053 0.0
C3826 C 0.85432 0.68952 0.1689 0.0
C3827 C 0.79514 0.62102 0.1639 0.0
C3828 C 0.81552 0.64461 0.16562 0.0
H3829 H 0.89084 0.76181 0.1834 0.0
H3830 H 0.85767 0.72258 0.18099 0.0
H3831 H 0.87476 0.67204 0.16814 0.0
H3832 H 0.77895 0.57296 0.15066 0.0
H3833 H 0.81227 0.61193 0.15337 0.0
C3834 C 0.19077 0.41625 0.34417 0.0
C3835 C 0.17806 0.42418 0.33907 0.0
C3836 C 0.18764 0.39393 0.34269 0.0
C3837 C 0.16685 0.34709 0.32552 0.0
H3838 H 0.16378 0.30851 0.34599 0.0
C3839 C 0.14111 0.25002 0.32158 0.0
C3840 C 0.15389 0.24217 0.32668 0.0
C3841 C 0.14419 0.27232 0.32305 0.0
C3842 C 0.16487 0.31919 0.3402 0.0
H3843 H 0.15187 0.41484 0.3285 0.0
H3844 H 0.14627 0.37579 0.32598 0.0
H3845 H 0.1686 0.34718 0.34871 0.0
H3846 H 0.18012 0.25164 0.33725 0.0
H3847 H 0.18562 0.29064 0.33974 0.0
H3848 H 0.16312 0.31908 0.31701 0.0
C3849 C 0.15889 0.38696 0.33103 0.0
C3850 C 0.16762 0.34132 0.34176 0.0
C3851 C 0.16201 0.40927 0.33252 0.0
C3852 C 0.16994 0.25714 0.33323 0.0
C3853 C 0.173 0.27943 0.33469 0.0
C3854 C 0.16411 0.32495 0.32396 0.0
C3855 C 0.17172 0.37908 0.33609 0.0
C3856 C 0.16865 0.35551 0.33444 0.0
C3857 C 0.1601 0.28723 0.32964 0.0
C3858 C 0.1631 0.31077 0.33129 0.0
H3859 H 0.20328 0.42731 0.34928 0.0
H3860 H 0.19797 0.38846 0.34662 0.0
H3861 H 0.16795 0.35776 0.31973 0.0
H3862 H 0.1286 0.23891 0.31649 0.0
H3863 H 0.13381 0.27774 0.31911 0.0
C3864 C 0.5834 0.77368 0.34494 0.0
C3865 C 0.57494 0.75387 0.3393 0.0
C3866 C 0.60574 0.79288 0.34358 0.0
C3867 C 0.65184 0.82131 0.32625 0.0
H3868 H 0.6916 0.85276 0.34701 0.0
C3869 C 0.74901 0.89196 0.32245 0.0
C3870 C 0.75745 0.91181 0.32806 0.0
C3871 C 0.72669 0.87273 0.32382 0.0
C3872 C 0.68059 0.84432 0.34115 0.0
H3873 H 0.58332 0.73856 0.32786 0.0
H3874 H 0.62246 0.77208 0.32554 0.0
H3875 H 0.65277 0.81884 0.34941 0.0
H3876 H 0.74907 0.92714 0.33949 0.0
H3877 H 0.70996 0.89358 0.34185 0.0
H3878 H 0.67967 0.84679 0.31799 0.0
C3879 C 0.61167 0.77285 0.33093 0.0
C3880 C 0.65838 0.8249 0.34253 0.0
C3881 C 0.58931 0.75361 0.3323 0.0
C3882 C 0.74308 0.91207 0.33507 0.0
C3883 C 0.72074 0.89281 0.33645 0.0
C3884 C 0.67406 0.84073 0.32487 0.0
C3885 C 0.62011 0.79269 0.33656 0.0
C3886 C 0.64377 0.81319 0.33509 0.0
C3887 C 0.71233 0.87294 0.33084 0.0
C3888 C 0.68867 0.85244 0.33231 0.0
H3889 H 0.57276 0.77444 0.3504 0.0
H3890 H 0.61164 0.80803 0.34795 0.0
H3891 H 0.64084 0.81288 0.32039 0.0
H3892 H 0.75965 0.8912 0.31698 0.0
H3893 H 0.72081 0.85757 0.31946 0.0
C3894 C 0.08695 0.83054 0.33464 0.0
C3895 C 0.08782 0.84602 0.32788 0.0
C3896 C 0.10612 0.82732 0.33607 0.0
C3897 C 0.15929 0.83428 0.32483 0.0
H3898 H 0.17904 0.8317 0.34944 0.0
C3899 C 0.24594 0.83595 0.33274 0.0
C3900 C 0.24504 0.82041 0.33948 0.0
C3901 C 0.22677 0.83917 0.33131 0.0
C3902 C 0.17359 0.83216 0.34253 0.0
H3903 H 0.10943 0.87022 0.3173 0.0
H3904 H 0.14286 0.86477 0.31988 0.0
H3905 H 0.14525 0.8368 0.34698 0.0
H3906 H 0.2234 0.79612 0.35003 0.0
H3907 H 0.18998 0.80159 0.34746 0.0
H3908 H 0.18763 0.82964 0.32038 0.0
C3909 C 0.12731 0.85493 0.324 0.0
C3910 C 0.15423 0.83505 0.34113 0.0
C3911 C 0.10819 0.85816 0.32257 0.0
C3912 C 0.22466 0.80822 0.34477 0.0
C3913 C 0.20555 0.81147 0.34335 0.0
C3914 C 0.17864 0.83139 0.32624 0.0
C3915 C 0.12649 0.83948 0.33076 0.0
C3916 C 0.14688 0.83615 0.33226 0.0
C3917 C 0.20638 0.82697 0.33661 0.0
C3918 C 0.18599 0.83029 0.3351 0.0
H3919 H 0.07147 0.82087 0.33882 0.0
H3920 H 0.10489 0.81509 0.34127 0.0
H3921 H 0.15383 0.83473 0.31792 0.0
H3922 H 0.26143 0.84565 0.32857 0.0
H3923 H 0.22802 0.85144 0.32613 0.0
C3924 C 0.74305 0.83059 0.83531 0.0
C3925 C 0.75733 0.84509 0.82826 0.0
C3926 C 0.721 0.82808 0.83687 0.0
C3927 C 0.68618 0.85686 0.83262 0.0
H3928 H 0.63351 0.79545 0.83814 0.0
C3929 C 0.59051 0.83782 0.83422 0.0
C3930 C 0.57662 0.82334 0.84135 0.0
C3931 C 0.61279 0.84092 0.83261 0.0
C3932 C 0.6481 0.81275 0.8367 0.0
H3933 H 0.75964 0.86814 0.81726 0.0
H3934 H 0.72109 0.86354 0.81994 0.0
H3935 H 0.67195 0.79982 0.83534 0.0
H3936 H 0.57538 0.80117 0.85252 0.0
H3937 H 0.61422 0.80671 0.84974 0.0
H3938 H 0.66226 0.86976 0.83397 0.0
C3939 C 0.72707 0.85442 0.82434 0.0
C3940 C 0.67011 0.81525 0.8351 0.0
C3941 C 0.74911 0.85695 0.82279 0.0
C3942 C 0.58556 0.8123 0.84692 0.0
C3943 C 0.60777 0.81537 0.84531 0.0
C3944 C 0.66414 0.85435 0.83421 0.0
C3945 C 0.71279 0.83999 0.83141 0.0
C3946 C 0.6894 0.83734 0.83307 0.0
C3947 C 0.62155 0.82957 0.8381 0.0
C3948 C 0.6449 0.83228 0.83629 0.0
H3949 H 0.74893 0.82128 0.83966 0.0
H3950 H 0.71051 0.81705 0.84244 0.0
H3951 H 0.70079 0.87417 0.83119 0.0
H3952 H 0.58409 0.84657 0.82981 0.0
H3953 H 0.62296 0.85182 0.82696 0.0
C3954 C 0.16099 0.752 0.83285 0.0
C3955 C 0.18095 0.75486 0.83744 0.0
C3956 C 0.1572 0.77092 0.83181 0.0
C3957 C 0.18763 0.8355 0.83212 0.0
H3958 H 0.1251 0.82577 0.83582 0.0
C3959 C 0.16863 0.912 0.83361 0.0
C3960 C 0.14867 0.90884 0.82891 0.0
C3961 C 0.17266 0.89327 0.83477 0.0
C3962 C 0.14261 0.82871 0.83468 0.0
H3963 H 0.21262 0.77978 0.84453 0.0
H3964 H 0.20588 0.8127 0.84277 0.0
H3965 H 0.13202 0.79292 0.83749 0.0
H3966 H 0.11731 0.88356 0.82175 0.0
H3967 H 0.12444 0.85098 0.82374 0.0
H3968 H 0.19821 0.87131 0.82931 0.0
C3969 C 0.19332 0.79593 0.83988 0.0
C3970 C 0.14657 0.8099 0.83562 0.0
C3971 C 0.19711 0.77703 0.84092 0.0
C3972 C 0.1328 0.88656 0.82544 0.0
C3973 C 0.13681 0.86785 0.82662 0.0
C3974 C 0.18367 0.85433 0.83118 0.0
C3975 C 0.17329 0.79306 0.83533 0.0
C3976 C 0.16911 0.81307 0.83434 0.0
C3977 C 0.1568 0.871 0.83128 0.0
C3978 C 0.16111 0.85112 0.83243 0.0
H3979 H 0.14823 0.73515 0.83007 0.0
H3980 H 0.14176 0.76824 0.82817 0.0
H3981 H 0.20514 0.83843 0.83097 0.0
H3982 H 0.18118 0.92896 0.83637 0.0
H3983 H 0.18808 0.89616 0.83848 0.0
C3984 C 0.22187 0.41539 0.84454 0.0
C3985 C 0.24247 0.42371 0.83938 0.0
C3986 C 0.20282 0.39304 0.84298 0.0
C3987 C 0.18692 0.3357 0.83299 0.0
H3988 H 0.12425 0.32714 0.83252 0.0
C3989 C 0.10664 0.24943 0.82125 0.0
C3990 C 0.08608 0.24113 0.82644 0.0
C3991 C 0.12568 0.27181 0.82277 0.0
C3992 C 0.14162 0.32921 0.83272 0.0
H3993 H 0.25933 0.41505 0.82858 0.0
H3994 H 0.22598 0.37611 0.82583 0.0
H3995 H 0.15772 0.36597 0.83538 0.0
H3996 H 0.0693 0.24986 0.83725 0.0
H3997 H 0.10263 0.28884 0.83993 0.0
H3998 H 0.17082 0.29894 0.83033 0.0
C3999 C 0.22466 0.38679 0.83113 0.0
C4000 C 0.16078 0.35144 0.83437 0.0
C4001 C 0.24371 0.40914 0.83268 0.0
C4002 C 0.08488 0.25575 0.83312 0.0
C4003 C 0.10392 0.27813 0.83463 0.0
C4004 C 0.16776 0.31348 0.83134 0.0
C4005 C 0.20398 0.37853 0.83625 0.0
C4006 C 0.18364 0.35492 0.83452 0.0
C4007 C 0.12456 0.28637 0.8295 0.0
C4008 C 0.14491 0.31 0.8312 0.0
H4009 H 0.22041 0.42613 0.84978 0.0
H4010 H 0.18725 0.38704 0.84712 0.0
H4011 H 0.20429 0.33777 0.83319 0.0
H4012 H 0.10807 0.23865 0.81602 0.0
H4013 H 0.14122 0.27779 0.81862 0.0
C4014 C 0.80417 0.58325 0.65482 0.0
C4015 C 0.81706 0.57519 0.65972 0.0
C4016 C 0.80777 0.60574 0.6563 0.0
C4017 C 0.85077 0.66368 0.66535 0.0
H4018 H 0.79704 0.6727 0.66703 0.0
C4019 C 0.8589 0.75085 0.67713 0.0
C4020 C 0.84583 0.75889 0.67234 0.0
C4021 C 0.85533 0.7284 0.67557 0.0
C4022 C 0.81223 0.67051 0.66648 0.0
H4023 H 0.84395 0.58445 0.66999 0.0
H4024 H 0.85009 0.62365 0.67262 0.0
H4025 H 0.79105 0.63358 0.66428 0.0
H4026 H 0.81871 0.74967 0.66217 0.0
H4027 H 0.81266 0.71055 0.6594 0.0
H4028 H 0.87195 0.70061 0.66754 0.0
C4029 C 0.83736 0.61265 0.66757 0.0
C4030 C 0.8088 0.64811 0.6649 0.0
C4031 C 0.83375 0.59015 0.6661 0.0
C4032 C 0.82903 0.74397 0.66599 0.0
C4033 C 0.82547 0.72152 0.66443 0.0
C4034 C 0.8542 0.68608 0.66692 0.0
C4035 C 0.82437 0.62066 0.6627 0.0
C4036 C 0.82803 0.64446 0.66433 0.0
C4037 C 0.83862 0.71351 0.6692 0.0
C4038 C 0.83497 0.68973 0.66751 0.0
H4039 H 0.79126 0.5722 0.64982 0.0
H4040 H 0.79772 0.61154 0.65236 0.0
H4041 H 0.86595 0.66147 0.66481 0.0
H4042 H 0.87188 0.76186 0.68211 0.0
H4043 H 0.8655 0.72261 0.67944 0.0
C4044 C 0.40982 0.24589 0.66856 0.0
C4045 C 0.42634 0.24371 0.66323 0.0
C4046 C 0.38738 0.22671 0.66983 0.0
C4047 C 0.34483 0.17066 0.65947 0.0
H4048 H 0.31595 0.15657 0.68335 0.0
C4049 C 0.2579 0.08587 0.66672 0.0
C4050 C 0.24158 0.08771 0.6723 0.0
C4051 C 0.28058 0.10482 0.66573 0.0
C4052 C 0.32367 0.16043 0.67662 0.0
H4053 H 0.43231 0.21971 0.65507 0.0
H4054 H 0.39316 0.18628 0.65733 0.0
H4055 H 0.35535 0.18998 0.68142 0.0
H4056 H 0.23625 0.11083 0.68124 0.0
H4057 H 0.27571 0.14402 0.6794 0.0
H4058 H 0.31314 0.1413 0.65464 0.0
C4059 C 0.39753 0.20285 0.66046 0.0
C4060 C 0.34623 0.17954 0.67553 0.0
C4061 C 0.41999 0.22197 0.65923 0.0
C4062 C 0.24842 0.10885 0.6769 0.0
C4063 C 0.27109 0.12782 0.67589 0.0
C4064 C 0.32225 0.15162 0.66056 0.0
C4065 C 0.38098 0.20504 0.66576 0.0
C4066 C 0.35704 0.18482 0.66694 0.0
C4067 C 0.28741 0.12603 0.67029 0.0
C4068 C 0.31142 0.14627 0.66915 0.0
H4069 H 0.41418 0.26242 0.67173 0.0
H4070 H 0.37489 0.22896 0.67388 0.0
H4071 H 0.3526 0.17453 0.65275 0.0
H4072 H 0.2532 0.06976 0.66312 0.0
H4073 H 0.29285 0.10277 0.66147 0.0
C4074 C 0.77453 0.18679 0.65507 0.0
C4075 C 0.75396 0.17548 0.66031 0.0
C4076 C 0.79363 0.18396 0.65711 0.0
C4077 C 0.81041 0.14514 0.66865 0.0
H4078 H 0.87248 0.20016 0.66841 0.0
C4079 C 0.89272 0.14212 0.68006 0.0
C4080 C 0.91288 0.15453 0.67467 0.0
C4081 C 0.87321 0.1448 0.67869 0.0
C4082 C 0.85529 0.1846 0.66842 0.0
H4083 H 0.73712 0.15198 0.67169 0.0
H4084 H 0.77064 0.14706 0.67525 0.0
H4085 H 0.83839 0.20423 0.66522 0.0
H4086 H 0.92847 0.17958 0.66364 0.0
H4087 H 0.89435 0.18401 0.66117 0.0
H4088 H 0.82734 0.12546 0.67175 0.0
C4089 C 0.77188 0.15805 0.66955 0.0
C4090 C 0.83578 0.18693 0.6666 0.0
C4091 C 0.75275 0.16094 0.66753 0.0
C4092 C 0.91322 0.16982 0.66793 0.0
C4093 C 0.89371 0.17246 0.66655 0.0
C4094 C 0.82995 0.14279 0.67045 0.0
C4095 C 0.79258 0.1697 0.6644 0.0
C4096 C 0.81315 0.16721 0.66663 0.0
C4097 C 0.87347 0.15993 0.67189 0.0
C4098 C 0.85262 0.16248 0.67029 0.0
H4099 H 0.77598 0.19799 0.64942 0.0
H4100 H 0.80922 0.19285 0.65292 0.0
H4101 H 0.7932 0.1296 0.66863 0.0
H4102 H 0.89195 0.13031 0.68535 0.0
H4103 H 0.85799 0.13515 0.68299 0.0
C4104 C 0.07629 0.49273 0.49862 0.0
C4105 C 0.0917 0.50955 0.49238 0.0
C4106 C 0.0538 0.48932 0.49992 0.0
C4107 C 0.00865 0.49876 0.4892 0.0
H4108 H 0.98577 0.49326 0.51389 0.0
C4109 C 0.92376 0.50011 0.49784 0.0
C4110 C 0.90914 0.48426 0.50451 0.0
C4111 C 0.94602 0.50315 0.49622 0.0
C4112 C 0.99179 0.4945 0.50695 0.0
H4113 H 0.09547 0.53569 0.48249 0.0
H4114 H 0.05625 0.52978 0.4848 0.0
H4115 H 0.02448 0.49818 0.51124 0.0
H4116 H 0.90633 0.45909 0.51469 0.0
H4117 H 0.94492 0.46416 0.51177 0.0
H4118 H 0.97591 0.49501 0.4849 0.0
C4119 C 0.06152 0.51915 0.48864 0.0
C4120 C 0.01396 0.49731 0.50544 0.0
C4121 C 0.08404 0.52262 0.48737 0.0
C4122 C 0.91718 0.47149 0.50951 0.0
C4123 C 0.93937 0.4745 0.50788 0.0
C4124 C 0.98643 0.49589 0.49071 0.0
C4125 C 0.04623 0.50259 0.49498 0.0
C4126 C 0.02261 0.49945 0.49655 0.0
C4127 C 0.95407 0.4904 0.50124 0.0
C4128 C 0.97775 0.49369 0.4996 0.0
H4129 H 0.08164 0.48232 0.50257 0.0
H4130 H 0.04228 0.47622 0.50476 0.0
H4131 H 0.01477 0.5001 0.48226 0.0
H4132 H 0.91809 0.51027 0.4939 0.0
H4133 H 0.95705 0.51575 0.49113 0.0
C4134 C 0.49718 0.42133 0.49975 0.0
C4135 C 0.51408 0.4228 0.50596 0.0
C4136 C 0.49385 0.44044 0.49839 0.0
C4137 C 0.52341 0.50448 0.50096 0.0
H4138 H 0.46046 0.49491 0.49935 0.0
C4139 C 0.50491 0.58122 0.50101 0.0
C4140 C 0.48747 0.57968 0.49508 0.0
C4141 C 0.50821 0.56206 0.50224 0.0
C4142 C 0.47815 0.49784 0.49967 0.0
H4143 H 0.5406 0.44538 0.51568 0.0
H4144 H 0.53469 0.47869 0.51333 0.0
H4145 H 0.46603 0.46138 0.50172 0.0
H4146 H 0.46002 0.55696 0.48569 0.0
H4147 H 0.46599 0.52362 0.48777 0.0
H4148 H 0.53556 0.54091 0.49888 0.0
C4149 C 0.52422 0.46285 0.50944 0.0
C4150 C 0.48133 0.47864 0.50104 0.0
C4151 C 0.52751 0.44372 0.51081 0.0
C4152 C 0.47351 0.55865 0.49036 0.0
C4153 C 0.47685 0.53951 0.49158 0.0
C4154 C 0.52024 0.52367 0.49957 0.0
C4155 C 0.50739 0.46142 0.50321 0.0
C4156 C 0.504 0.48177 0.50171 0.0
C4157 C 0.49419 0.54098 0.49755 0.0
C4158 C 0.49757 0.52056 0.49893 0.0
H4159 H 0.48656 0.40545 0.4959 0.0
H4160 H 0.48092 0.43891 0.49348 0.0
H4161 H 0.5411 0.50738 0.50131 0.0
H4162 H 0.51592 0.59716 0.50477 0.0
H4163 H 0.52152 0.56365 0.50698 0.0
C4164 C 0.57724 0.07437 0.50035 0.0
C4165 C 0.57558 0.08939 0.50671 0.0
C4166 C 0.55816 0.05205 0.49877 0.0
C4167 C 0.49395 0.01732 0.5012 0.0
H4168 H 0.50374 0.96429 0.4985 0.0
C4169 C 0.4177 0.92173 0.50037 0.0
C4170 C 0.41927 0.90658 0.49404 0.0
C4171 C 0.43671 0.94419 0.50178 0.0
C4172 C 0.50076 0.97897 0.49913 0.0
H4173 H 0.55269 0.0927 0.51648 0.0
H4174 H 0.51948 0.05366 0.51378 0.0
H4175 H 0.53717 0.00316 0.50131 0.0
H4176 H 0.44187 0.90323 0.48414 0.0
H4177 H 0.47495 0.9425 0.48658 0.0
H4178 H 0.45751 0.99311 0.49904 0.0
C4179 C 0.53542 0.05927 0.50992 0.0
C4180 C 0.5199 0.00123 0.50074 0.0
C4181 C 0.5545 0.08159 0.5115 0.0
C4182 C 0.44014 0.91443 0.4891 0.0
C4183 C 0.45915 0.93688 0.49053 0.0
C4184 C 0.4748 0.99506 0.49959 0.0
C4185 C 0.53703 0.04428 0.50352 0.0
C4186 C 0.5167 0.02064 0.5018 0.0
C4187 C 0.45767 0.95197 0.49691 0.0
C4188 C 0.478 0.97565 0.49854 0.0
H4189 H 0.59324 0.07988 0.49654 0.0
H4190 H 0.55985 0.041 0.49373 0.0
H4191 H 0.49096 0.032 0.50184 0.0
H4192 H 0.40187 0.9162 0.50429 0.0
H4193 H 0.43512 0.95532 0.50682 0.0
C4194 C 0.49619 0.0738 1.00022 0.0
C4195 C 0.51221 0.08841 0.00685 0.0
C4196 C 0.49299 0.05152 0.99859 0.0
C4197 C 0.5015 0.00536 0.00896 0.0
H4198 H 0.49629 0.98369 0.98409 0.0
C4199 C 0.50281 0.921 0.99982 0.0
C4200 C 0.48633 0.90615 0.99337 0.0
C4201 C 0.50619 0.94338 0.00138 0.0
C4202 C 0.49749 0.98941 0.99107 0.0
H4203 H 0.53734 0.09106 0.017 0.0
H4204 H 0.53191 0.05226 0.01407 0.0
H4205 H 0.50157 0.02246 0.98705 0.0
H4206 H 0.4607 0.90323 0.9834 0.0
H4207 H 0.46653 0.94226 0.98618 0.0
H4208 H 0.49747 0.97232 0.01298 0.0
C4209 C 0.52164 0.05793 0.01021 0.0
C4210 C 0.50049 0.01159 0.99277 0.0
C4211 C 0.52484 0.08022 0.01185 0.0
C4212 C 0.47352 0.91424 0.98843 0.0
C4213 C 0.47694 0.93665 0.98998 0.0
C4214 C 0.49854 0.98319 0.00726 0.0
C4215 C 0.50573 0.04337 0.00355 0.0
C4216 C 0.50252 0.0198 0.00174 0.0
C4217 C 0.49322 0.9514 0.99651 0.0
C4218 C 0.49649 0.97499 0.9983 0.0
H4219 H 0.48611 0.07956 0.99627 0.0
H4220 H 0.48035 0.04058 0.9935 0.0
H4221 H 0.50265 0.01104 0.01595 0.0
H4222 H 0.51303 0.91533 0.00372 0.0
H4223 H 0.51909 0.95448 0.00637 0.0
C4224 C 0.91351 0.44443 0.00861 0.0
C4225 C 0.90626 0.42265 0.00446 0.0
C4226 C 0.93619 0.46308 0.00728 0.0
C4227 C 0.98656 0.4855 0.99178 0.0
H4228 H 0.02097 0.52344 0.01254 0.0
C4229 C 0.08421 0.55698 0.98971 0.0
C4230 C 0.09097 0.57802 0.99438 0.0
C4231 C 0.06175 0.53773 0.99085 0.0
C4232 C 0.0115 0.51318 0.00665 0.0
H4233 H 0.91705 0.40337 0.99562 0.0
H4234 H 0.95676 0.43606 0.99331 0.0
H4235 H 0.98159 0.4903 0.01467 0.0
H4236 H 0.07938 0.5955 0.00381 0.0
H4237 H 0.04012 0.56205 0.00569 0.0
H4238 H 0.01641 0.50851 0.98375 0.0
C4239 C 0.9448 0.43868 0.99754 0.0
C4240 C 0.98896 0.49419 0.00788 0.0
C4241 C 0.92212 0.41996 0.9989 0.0
C4242 C 0.07476 0.57949 1.00016 0.0
C4243 C 0.0523 0.56027 0.00128 0.0
C4244 C 0.0091 0.50456 0.99054 0.0
C4245 C 0.95209 0.46039 0.00176 0.0
C4246 C 0.97621 0.48022 0.00045 0.0
C4247 C 0.04557 0.53915 0.99667 0.0
C4248 C 0.02177 0.51867 0.99797 0.0
H4249 H 0.90173 0.44709 0.01293 0.0
H4250 H 0.94122 0.4797 0.01052 0.0
H4251 H 0.97703 0.47519 0.98591 0.0
H4252 H 0.09631 0.55528 0.98522 0.0
H4253 H 0.05718 0.52163 0.98728 0.0
C4254 C 0.41662 0.49034 0.99914 0.0
C4255 C 0.41938 0.50876 0.99348 0.0
C4256 C 0.43528 0.48634 0.00057 0.0
C4257 C 0.49214 0.49868 0.99095 0.0
H4258 H 0.5036 0.48443 0.01536 0.0
C4259 C 0.577 0.49902 0.00085 0.0
C4260 C 0.57458 0.48059 0.00641 0.0
C4261 C 0.55784 0.5021 0.9992 0.0
C4262 C 0.50047 0.48815 0.00849 0.0
H4263 H 0.4438 0.53728 0.98484 0.0
H4264 H 0.47641 0.53047 0.98745 0.0
H4265 H 0.47039 0.49024 0.01254 0.0
H4266 H 0.5502 0.451 0.01464 0.0
H4267 H 0.51676 0.45635 0.01172 0.0
H4268 H 0.52235 0.49675 0.98692 0.0
C4269 C 0.45975 0.51894 0.99068 0.0
C4270 C 0.48144 0.49144 0.00687 0.0
C4271 C 0.4411 0.52293 0.98923 0.0
C4272 C 0.55264 0.46537 0.01032 0.0
C4273 C 0.53352 0.4685 0.00869 0.0
C4274 C 0.5112 0.49543 0.99257 0.0
C4275 C 0.45708 0.50067 0.9964 0.0
C4276 C 0.47708 0.49678 0.99808 0.0
C4277 C 0.5359 0.48687 0.0031 0.0
C4278 C 0.51558 0.49017 0.00136 0.0
H4279 H 0.40007 0.47904 0.00248 0.0
H4280 H 0.43258 0.47191 0.00491 0.0
H4281 H 0.48904 0.50242 0.98407 0.0
H4282 H 0.59368 0.51108 0.99775 0.0
H4283 H 0.56027 0.51659 0.99495 0.0
loop_
_geom_bond_atom_site_label_1
_geom_bond_atom_site_label_2
_geom_bond_distance
_geom_bond_site_symmetry_2
_ccdc_geom_bond_type
Co0 O2 2.143 . S
Co0 O8 2.074 . S
Co0 O11 2.093 . S
Co0 O24 2.097 . S
Co0 N41 2.151 . S
Co0 N49 2.214 . S
Co1 O2 2.160 . S
Co1 O7 2.058 . S
Co1 O17 2.057 . S
Co1 O32 2.037 . S
Co1 N36 2.145 . S
Co1 N57 2.257 . S
O2 Co0 2.143 . S
O2 Co1 2.160 . S
C3 O4 1.278 . S
C3 O11 1.224 . S
O4 C3 1.278 . S
C5 O6 1.245 . S
C5 O17 1.232 . S
O6 C5 1.245 . S
O7 Co1 2.058 . S
O7 C33 1.269 . S
O8 Co0 2.074 . S
O8 C33 1.257 . S
H9 C34 0.930 . S
H10 C40 0.930 . S
O11 Co0 2.093 . S
O11 C3 1.224 . S
H12 C44 0.929 . S
H13 C46 0.930 . S
H14 C47 0.930 . S
H15 C45 0.929 . S
H16 C48 0.928 . S
O17 Co1 2.057 . S
O17 C5 1.232 . S
H18 C37 0.929 . S
H19 C38 0.929 . S
H20 C50 0.931 . S
H21 C42 0.929 . S
H22 C51 0.930 . S
H23 C43 0.931 . S
O24 Co0 2.097 . S
O24 C52 1.214 . S
H25 C53 0.929 . S
H26 C54 0.929 . S
H27 C55 0.930 . S
H28 C56 0.929 . S
H29 C58 0.930 . S
H30 C35 0.930 . S
H31 C39 0.930 . S
O32 Co1 2.037 . S
O32 C52 1.234 . S
C33 O7 1.269 . S
C33 O8 1.257 . S
C34 H9 0.930 . S
C34 C37 1.388 . S
C34 C39 1.418 . S
C35 H30 0.930 . S
C35 C38 1.404 . S
C35 C39 1.353 . S
N36 Co1 2.145 . S
N36 C37 1.397 . S
N36 C38 1.334 . S
C37 H18 0.929 . S
C37 C34 1.388 . S
C37 N36 1.397 . S
C38 H19 0.929 . S
C38 C35 1.404 . S
C38 N36 1.334 . S
C39 H31 0.930 . S
C39 C34 1.418 . S
C39 C35 1.353 . S
C40 H10 0.930 . S
C40 N41 1.330 . S
C40 C42 1.446 . S
N41 Co0 2.151 . S
N41 C40 1.330 . S
N41 C45 1.418 . S
C42 H21 0.929 . S
C42 C40 1.446 . S
C42 C43 1.332 . S
C43 H23 0.931 . S
C43 C42 1.332 . S
C43 C44 1.267 . S
C44 H12 0.929 . S
C44 C43 1.267 . S
C44 C45 1.251 . S
C45 H15 0.929 . S
C45 N41 1.418 . S
C45 C44 1.251 . S
C46 H13 0.930 . S
C46 C48 1.406 . S
C46 C51 1.261 . S
C47 H14 0.930 . S
C47 N49 1.325 . S
C47 C50 1.357 . S
C48 H16 0.928 . S
C48 C46 1.406 . S
C48 N49 1.261 . S
N49 Co0 2.214 . S
N49 C47 1.325 . S
N49 C48 1.261 . S
C50 H20 0.931 . S
C50 C47 1.357 . S
C50 C51 1.312 . S
C51 H22 0.930 . S
C51 C46 1.261 . S
C51 C50 1.312 . S
C52 O24 1.214 . S
C52 O32 1.234 . S
C53 H25 0.929 . S
C53 C56 1.391 . S
C53 C58 1.391 . S
C54 H26 0.929 . S
C54 C55 1.390 . S
C54 N57 1.391 . S
C55 H27 0.930 . S
C55 C54 1.390 . S
C55 C56 1.392 . S
C56 H28 0.929 . S
C56 C53 1.391 . S
C56 C55 1.392 . S
N57 Co1 2.257 . S
N57 C54 1.391 . S
N57 C58 1.388 . S
C58 H29 0.930 . S
C58 C53 1.391 . S
C58 N57 1.388 . S
Co59 O61 2.143 . S
Co59 O67 2.074 . S
Co59 O70 2.093 . S
Co59 O83 2.097 1_545 S
Co59 N100 2.151 . S
Co59 N108 2.214 . S
Co60 O61 2.160 . S
Co60 O66 2.058 . S
Co60 O76 2.057 . S
Co60 O91 2.037 1_545 S
Co60 N95 2.145 . S
Co60 N116 2.257 1_545 S
O61 Co59 2.143 . S
O61 Co60 2.160 . S
C62 O63 1.264 . S
C62 O70 1.246 1_565 S
O63 C62 1.264 . S
C64 O65 1.245 . S
C64 O76 1.232 . S
O65 C64 1.245 . S
O66 Co60 2.058 . S
O66 C92 1.269 . S
O67 Co59 2.074 . S
O67 C92 1.257 . S
H68 C93 0.930 . S
H69 C99 0.930 . S
O70 Co59 2.093 . S
O70 C62 1.246 1_545 S
H71 C103 0.929 . S
H72 C105 0.930 . S
H73 C106 0.930 . S
H74 C104 0.929 . S
H75 C107 0.928 . S
O76 Co60 2.057 . S
O76 C64 1.232 . S
H77 C96 0.929 1_565 S
H78 C97 0.929 . S
H79 C109 0.931 . S
H80 C101 0.929 . S
H81 C110 0.930 . S
H82 C102 0.931 . S
O83 Co59 2.097 1_565 S
O83 C111 1.214 . S
H84 C112 0.929 . S
H85 C113 0.929 . S
H86 C114 0.930 . S
H87 C115 0.929 . S
H88 C117 0.930 1_545 S
H89 C94 0.930 . S
H90 C98 0.925 1_565 S
O91 Co60 2.037 1_565 S
O91 C111 1.234 . S
C92 O66 1.269 . S
C92 O67 1.257 . S
C93 H68 0.930 . S
C93 C96 1.388 1_565 S
C93 C98 1.418 1_565 S
C94 H89 0.930 . S
C94 C97 1.404 . S
C94 C98 1.353 . S
N95 Co60 2.145 . S
N95 C96 1.397 . S
N95 C97 1.334 . S
C96 H77 0.929 1_545 S
C96 C93 1.388 1_545 S
C96 N95 1.397 . S
C97 H78 0.929 . S
C97 C94 1.404 . S
C97 N95 1.334 . S
C98 H90 0.925 1_545 S
C98 C93 1.418 1_545 S
C98 C94 1.353 . S
C99 H69 0.930 . S
C99 N100 1.330 . S
C99 C101 1.446 . S
N100 Co59 2.151 . S
N100 C99 1.330 . S
N100 C104 1.418 . S
C101 H80 0.929 . S
C101 C99 1.446 . S
C101 C102 1.332 . S
C102 H82 0.931 . S
C102 C101 1.332 . S
C102 C103 1.267 . S
C103 H71 0.929 . S
C103 C102 1.267 . S
C103 C104 1.251 . S
C104 H74 0.929 . S
C104 N100 1.418 . S
C104 C103 1.251 . S
C105 H72 0.930 . S
C105 C107 1.406 . S
C105 C110 1.261 1_545 S
C106 H73 0.930 . S
C106 N108 1.325 1_565 S
C106 C109 1.357 . S
C107 H75 0.928 . S
C107 C105 1.406 . S
C107 N108 1.261 . S
N108 Co59 2.214 . S
N108 C106 1.325 1_545 S
N108 C107 1.261 . S
C109 H79 0.931 . S
C109 C106 1.357 . S
C109 C110 1.312 . S
C110 H81 0.930 . S
C110 C105 1.261 1_565 S
C110 C109 1.312 . S
C111 O83 1.214 . S
C111 O91 1.234 . S
C112 H84 0.929 . S
C112 C115 1.391 . S
C112 C117 1.391 . S
C113 H85 0.929 . S
C113 C114 1.390 . S
C113 N116 1.391 . S
C114 H86 0.930 . S
C114 C113 1.390 . S
C114 C115 1.392 . S
C115 H87 0.929 . S
C115 C112 1.391 . S
C115 C114 1.392 . S
N116 Co60 2.257 1_565 S
N116 C113 1.391 . S
N116 C117 1.388 . S
C117 H88 0.930 1_565 S
C117 C112 1.391 . S
C117 N116 1.388 . S
Co118 O120 2.143 . S
Co118 O126 2.074 . S
Co118 O129 2.093 . S
Co118 O142 2.097 1_655 S
Co118 N159 2.151 . S
Co118 N167 2.214 . S
Co119 O120 2.160 . S
Co119 O125 2.058 . S
Co119 O135 2.057 . S
Co119 O150 2.037 1_655 S
Co119 N154 2.145 . S
Co119 N175 2.257 1_655 S
O120 Co118 2.143 . S
O120 Co119 2.160 . S
C121 O122 1.278 . S
C121 O129 1.224 1_455 S
O122 C121 1.278 . S
C123 O124 1.245 . S
C123 O135 1.232 . S
O124 C123 1.245 . S
O125 Co119 2.058 . S
O125 C151 1.269 . S
O126 Co118 2.074 . S
O126 C151 1.257 . S
H127 C152 0.930 . S
H128 C158 0.930 . S
O129 Co118 2.093 . S
O129 C121 1.224 1_655 S
H130 C162 0.929 . S
H131 C164 0.930 . S
H132 C165 0.930 . S
H133 C163 0.929 . S
H134 C166 0.928 . S
O135 Co119 2.057 . S
O135 C123 1.232 . S
H136 C155 0.936 1_455 S
H137 C156 0.929 . S
H138 C168 0.931 . S
H139 C160 0.929 . S
H140 C169 0.930 . S
H141 C161 0.931 . S
O142 Co118 2.097 1_455 S
O142 C170 1.214 . S
H143 C171 0.929 . S
H144 C172 0.929 . S
H145 C173 0.930 . S
H146 C174 0.929 . S
H147 C176 0.930 1_655 S
H148 C153 0.930 . S
H149 C157 0.914 1_455 S
O150 Co119 2.037 1_455 S
O150 C170 1.234 . S
C151 O125 1.269 . S
C151 O126 1.257 . S
C152 H127 0.930 . S
C152 C155 1.383 1_455 S
C152 C157 1.418 1_455 S
C153 H148 0.930 . S
C153 C156 1.404 . S
C153 C157 1.353 . S
N154 Co119 2.145 . S
N154 C155 1.398 . S
N154 C156 1.334 . S
C155 H136 0.936 1_655 S
C155 C152 1.383 1_655 S
C155 N154 1.398 . S
C156 H137 0.929 . S
C156 C153 1.404 . S
C156 N154 1.334 . S
C157 H149 0.914 1_655 S
C157 C152 1.418 1_655 S
C157 C153 1.353 . S
C158 H128 0.930 . S
C158 N159 1.330 . S
C158 C160 1.446 . S
N159 Co118 2.151 . S
N159 C158 1.330 . S
N159 C163 1.418 . S
C160 H139 0.929 . S
C160 C158 1.446 . S
C160 C161 1.332 . S
C161 H141 0.931 . S
C161 C160 1.332 . S
C161 C162 1.267 . S
C162 H130 0.929 . S
C162 C161 1.267 . S
C162 C163 1.251 . S
C163 H133 0.929 . S
C163 N159 1.418 . S
C163 C162 1.251 . S
C164 H131 0.930 . S
C164 C166 1.406 . S
C164 C169 1.261 1_655 S
C165 H132 0.930 . S
C165 N167 1.325 1_455 S
C165 C168 1.357 . S
C166 H134 0.928 . S
C166 C164 1.406 . S
C166 N167 1.261 . S
N167 Co118 2.214 . S
N167 C165 1.325 1_655 S
N167 C166 1.261 . S
C168 H138 0.931 . S
C168 C165 1.357 . S
C168 C169 1.312 . S
C169 H140 0.930 . S
C169 C164 1.261 1_455 S
C169 C168 1.312 . S
C170 O142 1.214 . S
C170 O150 1.234 . S
C171 H143 0.929 . S
C171 C174 1.391 . S
C171 C176 1.391 . S
C172 H144 0.929 . S
C172 C173 1.390 . S
C172 N175 1.391 . S
C173 H145 0.930 . S
C173 C172 1.390 . S
C173 C174 1.392 . S
C174 H146 0.929 . S
C174 C171 1.391 . S
C174 C173 1.392 . S
N175 Co119 2.257 1_455 S
N175 C172 1.391 . S
N175 C176 1.388 . S
C176 H147 0.930 1_455 S
C176 C171 1.391 . S
C176 N175 1.388 . S
Co177 O179 2.143 . S
Co177 O185 2.074 . S
Co177 O188 2.093 . S
Co177 O201 2.097 . S
Co177 N218 2.151 . S
Co177 N226 2.214 . S
Co178 O179 2.160 . S
Co178 O184 2.058 . S
Co178 O194 2.057 . S
Co178 O209 2.037 . S
Co178 N213 2.145 . S
Co178 N234 2.257 . S
O179 Co177 2.143 . S
O179 Co178 2.160 . S
C180 O181 1.278 . S
C180 O188 1.224 . S
O181 C180 1.278 . S
C182 O183 1.245 . S
C182 O194 1.232 . S
O183 C182 1.245 . S
O184 Co178 2.058 . S
O184 C210 1.269 . S
O185 Co177 2.074 . S
O185 C210 1.257 . S
H186 C211 0.930 . S
H187 C217 0.930 . S
O188 Co177 2.093 . S
O188 C180 1.224 . S
H189 C221 0.929 . S
H190 C223 0.930 . S
H191 C224 0.930 . S
H192 C222 0.929 . S
H193 C225 0.928 . S
O194 Co178 2.057 . S
O194 C182 1.232 . S
H195 C214 0.929 . S
H196 C215 0.929 . S
H197 C227 0.931 . S
H198 C219 0.929 . S
H199 C228 0.930 . S
H200 C220 0.931 . S
O201 Co177 2.097 . S
O201 C229 1.214 . S
H202 C230 0.929 . S
H203 C231 0.929 . S
H204 C232 0.930 . S
H205 C233 0.929 . S
H206 C235 0.930 . S
H207 C212 0.930 . S
H208 C216 0.930 . S
O209 Co178 2.037 . S
O209 C229 1.234 . S
C210 O184 1.269 . S
C210 O185 1.257 . S
C211 H186 0.930 . S
C211 C214 1.388 . S
C211 C216 1.418 . S
C212 H207 0.930 . S
C212 C215 1.404 . S
C212 C216 1.353 . S
N213 Co178 2.145 . S
N213 C214 1.397 . S
N213 C215 1.334 . S
C214 H195 0.929 . S
C214 C211 1.388 . S
C214 N213 1.397 . S
C215 H196 0.929 . S
C215 C212 1.404 . S
C215 N213 1.334 . S
C216 H208 0.930 . S
C216 C211 1.418 . S
C216 C212 1.353 . S
C217 H187 0.930 . S
C217 N218 1.330 . S
C217 C219 1.446 . S
N218 Co177 2.151 . S
N218 C217 1.330 . S
N218 C222 1.418 . S
C219 H198 0.929 . S
C219 C217 1.446 . S
C219 C220 1.332 . S
C220 H200 0.931 . S
C220 C219 1.332 . S
C220 C221 1.267 . S
C221 H189 0.929 . S
C221 C220 1.267 . S
C221 C222 1.251 . S
C222 H192 0.929 . S
C222 N218 1.418 . S
C222 C221 1.251 . S
C223 H190 0.930 . S
C223 C225 1.406 . S
C223 C228 1.261 . S
C224 H191 0.930 . S
C224 N226 1.325 . S
C224 C227 1.357 . S
C225 H193 0.928 . S
C225 C223 1.406 . S
C225 N226 1.261 . S
N226 Co177 2.214 . S
N226 C224 1.325 . S
N226 C225 1.261 . S
C227 H197 0.931 . S
C227 C224 1.357 . S
C227 C228 1.312 . S
C228 H199 0.930 . S
C228 C223 1.261 . S
C228 C227 1.312 . S
C229 O201 1.214 . S
C229 O209 1.234 . S
C230 H202 0.929 . S
C230 C233 1.391 . S
C230 C235 1.391 . S
C231 H203 0.929 . S
C231 C232 1.390 . S
C231 N234 1.391 . S
C232 H204 0.930 . S
C232 C231 1.390 . S
C232 C233 1.392 . S
C233 H205 0.929 . S
C233 C230 1.391 . S
C233 C232 1.392 . S
N234 Co178 2.257 . S
N234 C231 1.391 . S
N234 C235 1.388 . S
C235 H206 0.930 . S
C235 C230 1.391 . S
C235 N234 1.388 . S
Co236 O238 2.143 . S
Co236 O244 2.074 . S
Co236 O247 2.093 . S
Co236 O260 2.097 1_565 S
Co236 N277 2.151 . S
Co236 N285 2.214 . S
Co237 O238 2.160 . S
Co237 O243 2.058 . S
Co237 O253 2.057 . S
Co237 O268 2.037 1_565 S
Co237 N272 2.145 . S
Co237 N293 2.257 1_565 S
O238 Co236 2.143 . S
O238 Co237 2.160 . S
C239 O240 1.297 . S
C239 O247 1.190 1_545 S
O240 C239 1.297 . S
C241 O242 1.245 . S
C241 O253 1.232 . S
O242 C241 1.245 . S
O243 Co237 2.058 . S
O243 C269 1.269 . S
O244 Co236 2.074 . S
O244 C269 1.257 . S
H245 C270 0.930 . S
H246 C276 0.930 . S
O247 Co236 2.093 . S
O247 C239 1.190 1_565 S
H248 C280 0.929 . S
H249 C282 0.930 . S
H250 C283 0.930 . S
H251 C281 0.929 . S
H252 C284 0.928 . S
O253 Co237 2.057 . S
O253 C241 1.232 . S
H254 C273 0.929 1_545 S
H255 C274 0.929 . S
H256 C286 0.931 . S
H257 C278 0.929 . S
H258 C287 0.930 . S
H259 C279 0.931 . S
O260 Co236 2.097 1_545 S
O260 C288 1.214 . S
H261 C289 0.929 . S
H262 C290 0.929 . S
H263 C291 0.930 . S
H264 C292 0.929 . S
H265 C294 0.930 1_565 S
H266 C271 0.930 . S
H267 C275 0.922 1_545 S
O268 Co237 2.037 1_545 S
O268 C288 1.234 . S
C269 O243 1.269 . S
C269 O244 1.257 . S
C270 H245 0.930 . S
C270 C273 1.388 1_545 S
C270 C275 1.418 1_545 S
C271 H266 0.930 . S
C271 C274 1.404 . S
C271 C275 1.353 . S
N272 Co237 2.145 . S
N272 C273 1.397 . S
N272 C274 1.334 . S
C273 H254 0.929 1_565 S
C273 C270 1.388 1_565 S
C273 N272 1.397 . S
C274 H255 0.929 . S
C274 C271 1.404 . S
C274 N272 1.334 . S
C275 H267 0.922 1_565 S
C275 C270 1.418 1_565 S
C275 C271 1.353 . S
C276 H246 0.930 . S
C276 N277 1.330 . S
C276 C278 1.446 . S
N277 Co236 2.151 . S
N277 C276 1.330 . S
N277 C281 1.418 . S
C278 H257 0.929 . S
C278 C276 1.446 . S
C278 C279 1.332 . S
C279 H259 0.931 . S
C279 C278 1.332 . S
C279 C280 1.267 . S
C280 H248 0.929 . S
C280 C279 1.267 . S
C280 C281 1.251 . S
C281 H251 0.929 . S
C281 N277 1.418 . S
C281 C280 1.251 . S
C282 H249 0.930 . S
C282 C284 1.406 . S
C282 C287 1.261 1_565 S
C283 H250 0.930 . S
C283 N285 1.325 1_545 S
C283 C286 1.357 . S
C284 H252 0.928 . S
C284 C282 1.406 . S
C284 N285 1.261 . S
N285 Co236 2.214 . S
N285 C283 1.325 1_565 S
N285 C284 1.261 . S
C286 H256 0.931 . S
C286 C283 1.357 . S
C286 C287 1.312 . S
C287 H258 0.930 . S
C287 C282 1.261 1_545 S
C287 C286 1.312 . S
C288 O260 1.214 . S
C288 O268 1.234 . S
C289 H261 0.929 . S
C289 C292 1.391 . S
C289 C294 1.391 . S
C290 H262 0.929 . S
C290 C291 1.390 . S
C290 N293 1.391 . S
C291 H263 0.930 . S
C291 C290 1.390 . S
C291 C292 1.392 . S
C292 H264 0.929 . S
C292 C289 1.391 . S
C292 C291 1.392 . S
N293 Co237 2.257 1_545 S
N293 C290 1.391 . S
N293 C294 1.388 . S
C294 H265 0.930 1_545 S
C294 C289 1.391 . S
C294 N293 1.388 . S
Co295 O297 2.143 . S
Co295 O303 2.074 1_455 S
Co295 O306 2.093 . S
Co295 O319 2.097 . S
Co295 N336 2.151 1_455 S
Co295 N344 2.214 . S
Co296 O297 2.160 . S
Co296 O302 2.058 1_455 S
Co296 O312 2.057 . S
Co296 O327 2.037 . S
Co296 N331 2.145 . S
Co296 N352 2.257 . S
O297 Co295 2.143 . S
O297 Co296 2.160 . S
C298 O299 1.278 . S
C298 O306 1.224 . S
O299 C298 1.278 . S
C300 O301 1.251 1_455 S
C300 O312 1.226 . S
O301 C300 1.251 1_655 S
O302 Co296 2.058 1_655 S
O302 C328 1.269 . S
O303 Co295 2.074 1_655 S
O303 C328 1.257 . S
H304 C329 0.930 . S
H305 C335 0.930 1_455 S
O306 Co295 2.093 . S
O306 C298 1.224 . S
H307 C339 0.929 . S
H308 C341 0.930 . S
H309 C342 0.930 . S
H310 C340 0.929 . S
H311 C343 0.928 . S
O312 Co296 2.057 . S
O312 C300 1.226 . S
H313 C332 0.929 . S
H314 C333 0.929 . S
H315 C345 0.931 . S
H316 C337 0.929 . S
H317 C346 0.930 . S
H318 C338 0.931 . S
O319 Co295 2.097 . S
O319 C347 1.214 . S
H320 C348 0.929 . S
H321 C349 0.929 . S
H322 C350 0.930 . S
H323 C351 0.929 . S
H324 C353 0.930 . S
H325 C330 0.930 . S
H326 C334 0.930 . S
O327 Co296 2.037 . S
O327 C347 1.234 . S
C328 O302 1.269 . S
C328 O303 1.257 . S
C329 H304 0.930 . S
C329 C332 1.388 . S
C329 C334 1.418 . S
C330 H325 0.930 . S
C330 C333 1.404 . S
C330 C334 1.353 . S
N331 Co296 2.145 . S
N331 C332 1.397 . S
N331 C333 1.334 . S
C332 H313 0.929 . S
C332 C329 1.388 . S
C332 N331 1.397 . S
C333 H314 0.929 . S
C333 C330 1.404 . S
C333 N331 1.334 . S
C334 H326 0.930 . S
C334 C329 1.418 . S
C334 C330 1.353 . S
C335 H305 0.930 1_655 S
C335 N336 1.330 . S
C335 C337 1.446 . S
N336 Co295 2.151 1_655 S
N336 C335 1.330 . S
N336 C340 1.418 . S
C337 H316 0.929 . S
C337 C335 1.446 . S
C337 C338 1.332 . S
C338 H318 0.931 . S
C338 C337 1.332 . S
C338 C339 1.267 . S
C339 H307 0.929 . S
C339 C338 1.267 . S
C339 C340 1.251 . S
C340 H310 0.929 . S
C340 N336 1.418 . S
C340 C339 1.251 . S
C341 H308 0.930 . S
C341 C343 1.406 . S
C341 C346 1.261 . S
C342 H309 0.930 . S
C342 N344 1.325 . S
C342 C345 1.357 . S
C343 H311 0.928 . S
C343 C341 1.406 . S
C343 N344 1.261 . S
N344 Co295 2.214 . S
N344 C342 1.325 . S
N344 C343 1.261 . S
C345 H315 0.931 . S
C345 C342 1.357 . S
C345 C346 1.312 . S
C346 H317 0.930 . S
C346 C341 1.261 . S
C346 C345 1.312 . S
C347 O319 1.214 . S
C347 O327 1.234 . S
C348 H320 0.929 . S
C348 C351 1.391 . S
C348 C353 1.391 . S
C349 H321 0.929 . S
C349 C350 1.390 . S
C349 N352 1.391 . S
C350 H322 0.930 . S
C350 C349 1.390 . S
C350 C351 1.392 . S
C351 H323 0.929 . S
C351 C348 1.391 . S
C351 C350 1.392 . S
N352 Co296 2.257 . S
N352 C349 1.391 . S
N352 C353 1.388 . S
C353 H324 0.930 . S
C353 C348 1.391 . S
C353 N352 1.388 . S
Co354 O356 2.143 . S
Co354 O362 2.074 . S
Co354 O365 2.093 . S
Co354 O378 2.097 . S
Co354 N395 2.151 . S
Co354 N403 2.214 . S
Co355 O356 2.160 . S
Co355 O361 2.058 . S
Co355 O371 2.057 . S
Co355 O386 2.037 . S
Co355 N390 2.145 . S
Co355 N411 2.257 . S
O356 Co354 2.143 . S
O356 Co355 2.160 . S
C357 O358 1.278 . S
C357 O365 1.224 . S
O358 C357 1.278 . S
C359 O360 1.245 . S
C359 O371 1.232 . S
O360 C359 1.245 . S
O361 Co355 2.058 . S
O361 C387 1.269 . S
O362 Co354 2.074 . S
O362 C387 1.257 . S
H363 C388 0.930 . S
H364 C394 0.930 . S
O365 Co354 2.093 . S
O365 C357 1.224 . S
H366 C398 0.929 . S
H367 C400 0.930 . S
H368 C401 0.930 . S
H369 C399 0.929 . S
H370 C402 0.928 . S
O371 Co355 2.057 . S
O371 C359 1.232 . S
H372 C391 0.929 . S
H373 C392 0.929 . S
H374 C404 0.931 . S
H375 C396 0.929 . S
H376 C405 0.930 . S
H377 C397 0.931 . S
O378 Co354 2.097 . S
O378 C406 1.214 . S
H379 C407 0.929 . S
H380 C408 0.929 . S
H381 C409 0.930 . S
H382 C410 0.929 . S
H383 C412 0.930 . S
H384 C389 0.930 . S
H385 C393 0.930 . S
O386 Co355 2.037 . S
O386 C406 1.234 . S
C387 O361 1.269 . S
C387 O362 1.257 . S
C388 H363 0.930 . S
C388 C391 1.388 . S
C388 C393 1.418 . S
C389 H384 0.930 . S
C389 C392 1.404 . S
C389 C393 1.353 . S
N390 Co355 2.145 . S
N390 C391 1.397 . S
N390 C392 1.334 . S
C391 H372 0.929 . S
C391 C388 1.388 . S
C391 N390 1.397 . S
C392 H373 0.929 . S
C392 C389 1.404 . S
C392 N390 1.334 . S
C393 H385 0.930 . S
C393 C388 1.418 . S
C393 C389 1.353 . S
C394 H364 0.930 . S
C394 N395 1.330 . S
C394 C396 1.446 . S
N395 Co354 2.151 . S
N395 C394 1.330 . S
N395 C399 1.418 . S
C396 H375 0.929 . S
C396 C394 1.446 . S
C396 C397 1.332 . S
C397 H377 0.931 . S
C397 C396 1.332 . S
C397 C398 1.267 . S
C398 H366 0.929 . S
C398 C397 1.267 . S
C398 C399 1.251 . S
C399 H369 0.929 . S
C399 N395 1.418 . S
C399 C398 1.251 . S
C400 H367 0.930 . S
C400 C402 1.406 . S
C400 C405 1.261 . S
C401 H368 0.930 . S
C401 N403 1.325 . S
C401 C404 1.357 . S
C402 H370 0.928 . S
C402 C400 1.406 . S
C402 N403 1.261 . S
N403 Co354 2.214 . S
N403 C401 1.325 . S
N403 C402 1.261 . S
C404 H374 0.931 . S
C404 C401 1.357 . S
C404 C405 1.312 . S
C405 H376 0.930 . S
C405 C400 1.261 . S
C405 C404 1.312 . S
C406 O378 1.214 . S
C406 O386 1.234 . S
C407 H379 0.929 . S
C407 C410 1.391 . S
C407 C412 1.391 . S
C408 H380 0.929 . S
C408 C409 1.390 . S
C408 N411 1.391 . S
C409 H381 0.930 . S
C409 C408 1.390 . S
C409 C410 1.392 . S
C410 H382 0.929 . S
C410 C407 1.391 . S
C410 C409 1.392 . S
N411 Co355 2.257 . S
N411 C408 1.391 . S
N411 C412 1.388 . S
C412 H383 0.930 . S
C412 C407 1.391 . S
C412 N411 1.388 . S
Co413 O415 2.143 . S
Co413 O421 2.074 . S
Co413 O424 2.093 . S
Co413 O437 2.097 1_565 S
Co413 N454 2.151 . S
Co413 N462 2.214 . S
Co414 O415 2.160 . S
Co414 O420 2.058 . S
Co414 O430 2.057 . S
Co414 O445 2.037 1_565 S
Co414 N449 2.145 . S
Co414 N470 2.257 1_565 S
O415 Co413 2.143 . S
O415 Co414 2.160 . S
C416 O417 1.265 . S
C416 O424 1.245 1_545 S
O417 C416 1.265 . S
C418 O419 1.245 . S
C418 O430 1.232 . S
O419 C418 1.245 . S
O420 Co414 2.058 . S
O420 C446 1.269 . S
O421 Co413 2.074 . S
O421 C446 1.257 . S
H422 C447 0.930 . S
H423 C453 0.930 . S
O424 Co413 2.093 . S
O424 C416 1.245 1_565 S
H425 C457 0.929 . S
H426 C459 0.930 . S
H427 C460 0.930 . S
H428 C458 0.929 . S
H429 C461 0.928 . S
O430 Co414 2.057 . S
O430 C418 1.232 . S
H431 C450 0.929 1_545 S
H432 C451 0.929 . S
H433 C463 0.931 . S
H434 C455 0.929 . S
H435 C464 0.930 . S
H436 C456 0.931 . S
O437 Co413 2.097 1_545 S
O437 C465 1.214 . S
H438 C466 0.929 . S
H439 C467 0.929 . S
H440 C468 0.930 . S
H441 C469 0.929 . S
H442 C471 0.930 1_565 S
H443 C448 0.930 . S
H444 C452 0.924 1_545 S
O445 Co414 2.037 1_545 S
O445 C465 1.234 . S
C446 O420 1.269 . S
C446 O421 1.257 . S
C447 H422 0.930 . S
C447 C450 1.388 1_545 S
C447 C452 1.418 1_545 S
C448 H443 0.930 . S
C448 C451 1.404 . S
C448 C452 1.353 . S
N449 Co414 2.145 . S
N449 C450 1.397 . S
N449 C451 1.334 . S
C450 H431 0.929 1_565 S
C450 C447 1.388 1_565 S
C450 N449 1.397 . S
C451 H432 0.929 . S
C451 C448 1.404 . S
C451 N449 1.334 . S
C452 H444 0.924 1_565 S
C452 C447 1.418 1_565 S
C452 C448 1.353 . S
C453 H423 0.930 . S
C453 N454 1.330 . S
C453 C455 1.446 . S
N454 Co413 2.151 . S
N454 C453 1.330 . S
N454 C458 1.418 . S
C455 H434 0.929 . S
C455 C453 1.446 . S
C455 C456 1.332 . S
C456 H436 0.931 . S
C456 C455 1.332 . S
C456 C457 1.267 . S
C457 H425 0.929 . S
C457 C456 1.267 . S
C457 C458 1.251 . S
C458 H428 0.929 . S
C458 N454 1.418 . S
C458 C457 1.251 . S
C459 H426 0.930 . S
C459 C461 1.406 . S
C459 C464 1.261 1_565 S
C460 H427 0.930 . S
C460 N462 1.325 1_545 S
C460 C463 1.357 . S
C461 H429 0.928 . S
C461 C459 1.406 . S
C461 N462 1.261 . S
N462 Co413 2.214 . S
N462 C460 1.325 1_565 S
N462 C461 1.261 . S
C463 H433 0.931 . S
C463 C460 1.357 . S
C463 C464 1.312 . S
C464 H435 0.930 . S
C464 C459 1.261 1_545 S
C464 C463 1.312 . S
C465 O437 1.214 . S
C465 O445 1.234 . S
C466 H438 0.929 . S
C466 C469 1.391 . S
C466 C471 1.391 . S
C467 H439 0.929 . S
C467 C468 1.390 . S
C467 N470 1.391 . S
C468 H440 0.930 . S
C468 C467 1.390 . S
C468 C469 1.392 . S
C469 H441 0.929 . S
C469 C466 1.391 . S
C469 C468 1.392 . S
N470 Co414 2.257 1_545 S
N470 C467 1.391 . S
N470 C471 1.388 . S
C471 H442 0.930 1_545 S
C471 C466 1.391 . S
C471 N470 1.388 . S
Co472 O474 2.143 . S
Co472 O480 2.074 . S
Co472 O483 2.093 . S
Co472 O496 2.097 1_455 S
Co472 N513 2.151 . S
Co472 N521 2.214 . S
Co473 O474 2.160 . S
Co473 O479 2.058 . S
Co473 O489 2.057 . S
Co473 O504 2.037 1_455 S
Co473 N508 2.145 . S
Co473 N529 2.257 1_455 S
O474 Co472 2.143 . S
O474 Co473 2.160 . S
C475 O476 1.278 . S
C475 O483 1.224 1_655 S
O476 C475 1.278 . S
C477 O478 1.245 . S
C477 O489 1.232 . S
O478 C477 1.245 . S
O479 Co473 2.058 . S
O479 C505 1.269 . S
O480 Co472 2.074 . S
O480 C505 1.257 . S
H481 C506 0.930 . S
H482 C512 0.930 . S
O483 Co472 2.093 . S
O483 C475 1.224 1_455 S
H484 C516 0.929 . S
H485 C518 0.930 . S
H486 C519 0.930 . S
H487 C517 0.929 . S
H488 C520 0.928 . S
O489 Co473 2.057 . S
O489 C477 1.232 . S
H490 C509 0.929 1_655 S
H491 C510 0.929 . S
H492 C522 0.931 . S
H493 C514 0.929 . S
H494 C523 0.930 . S
H495 C515 0.931 . S
O496 Co472 2.097 1_655 S
O496 C524 1.214 . S
H497 C525 0.929 . S
H498 C526 0.929 . S
H499 C527 0.930 . S
H500 C528 0.929 . S
H501 C530 0.930 1_455 S
H502 C507 0.930 . S
H503 C511 0.918 1_655 S
O504 Co473 2.037 1_655 S
O504 C524 1.234 . S
C505 O479 1.269 . S
C505 O480 1.257 . S
C506 H481 0.930 . S
C506 C509 1.388 1_655 S
C506 C511 1.418 1_655 S
C507 H502 0.930 . S
C507 C510 1.404 . S
C507 C511 1.353 . S
N508 Co473 2.145 . S
N508 C509 1.397 . S
N508 C510 1.334 . S
C509 H490 0.929 1_455 S
C509 C506 1.388 1_455 S
C509 N508 1.397 . S
C510 H491 0.929 . S
C510 C507 1.404 . S
C510 N508 1.334 . S
C511 H503 0.918 1_455 S
C511 C506 1.418 1_455 S
C511 C507 1.353 . S
C512 H482 0.930 . S
C512 N513 1.330 . S
C512 C514 1.446 . S
N513 Co472 2.151 . S
N513 C512 1.330 . S
N513 C517 1.418 . S
C514 H493 0.929 . S
C514 C512 1.446 . S
C514 C515 1.332 . S
C515 H495 0.931 . S
C515 C514 1.332 . S
C515 C516 1.267 . S
C516 H484 0.929 . S
C516 C515 1.267 . S
C516 C517 1.251 . S
C517 H487 0.929 . S
C517 N513 1.418 . S
C517 C516 1.251 . S
C518 H485 0.930 . S
C518 C520 1.406 . S
C518 C523 1.261 1_455 S
C519 H486 0.930 . S
C519 N521 1.325 1_655 S
C519 C522 1.357 . S
C520 H488 0.928 . S
C520 C518 1.406 . S
C520 N521 1.261 . S
N521 Co472 2.214 . S
N521 C519 1.325 1_455 S
N521 C520 1.261 . S
C522 H492 0.931 . S
C522 C519 1.357 . S
C522 C523 1.312 . S
C523 H494 0.930 . S
C523 C518 1.261 1_655 S
C523 C522 1.312 . S
C524 O496 1.214 . S
C524 O504 1.234 . S
C525 H497 0.929 . S
C525 C528 1.391 . S
C525 C530 1.391 . S
C526 H498 0.929 . S
C526 C527 1.390 . S
C526 N529 1.391 . S
C527 H499 0.930 . S
C527 C526 1.390 . S
C527 C528 1.392 . S
C528 H500 0.929 . S
C528 C525 1.391 . S
C528 C527 1.392 . S
N529 Co473 2.257 1_655 S
N529 C526 1.391 . S
N529 C530 1.388 . S
C530 H501 0.930 1_655 S
C530 C525 1.391 . S
C530 N529 1.388 . S
Co531 O533 2.143 . S
Co531 O539 2.074 . S
Co531 O542 2.093 . S
Co531 O555 2.097 . S
Co531 N572 2.151 . S
Co531 N580 2.214 . S
Co532 O533 2.160 . S
Co532 O538 2.058 . S
Co532 O548 2.057 . S
Co532 O563 2.037 . S
Co532 N567 2.145 . S
Co532 N588 2.257 . S
O533 Co531 2.143 . S
O533 Co532 2.160 . S
C534 O535 1.278 . S
C534 O542 1.224 . S
O535 C534 1.278 . S
C536 O537 1.245 . S
C536 O548 1.232 . S
O537 C536 1.245 . S
O538 Co532 2.058 . S
O538 C564 1.269 . S
O539 Co531 2.074 . S
O539 C564 1.257 . S
H540 C565 0.930 . S
H541 C571 0.930 . S
O542 Co531 2.093 . S
O542 C534 1.224 . S
H543 C575 0.929 . S
H544 C577 0.930 . S
H545 C578 0.930 . S
H546 C576 0.929 . S
H547 C579 0.928 . S
O548 Co532 2.057 . S
O548 C536 1.232 . S
H549 C568 0.929 . S
H550 C569 0.929 . S
H551 C581 0.931 . S
H552 C573 0.929 . S
H553 C582 0.930 . S
H554 C574 0.931 . S
O555 Co531 2.097 . S
O555 C583 1.214 . S
H556 C584 0.929 . S
H557 C585 0.929 . S
H558 C586 0.930 . S
H559 C587 0.929 . S
H560 C589 0.930 . S
H561 C566 0.930 . S
H562 C570 0.930 . S
O563 Co532 2.037 . S
O563 C583 1.234 . S
C564 O538 1.269 . S
C564 O539 1.257 . S
C565 H540 0.930 . S
C565 C568 1.388 . S
C565 C570 1.418 . S
C566 H561 0.930 . S
C566 C569 1.404 . S
C566 C570 1.353 . S
N567 Co532 2.145 . S
N567 C568 1.397 . S
N567 C569 1.334 . S
C568 H549 0.929 . S
C568 C565 1.388 . S
C568 N567 1.397 . S
C569 H550 0.929 . S
C569 C566 1.404 . S
C569 N567 1.334 . S
C570 H562 0.930 . S
C570 C565 1.418 . S
C570 C566 1.353 . S
C571 H541 0.930 . S
C571 N572 1.330 . S
C571 C573 1.446 . S
N572 Co531 2.151 . S
N572 C571 1.330 . S
N572 C576 1.418 . S
C573 H552 0.929 . S
C573 C571 1.446 . S
C573 C574 1.332 . S
C574 H554 0.931 . S
C574 C573 1.332 . S
C574 C575 1.267 . S
C575 H543 0.929 . S
C575 C574 1.267 . S
C575 C576 1.251 . S
C576 H546 0.929 . S
C576 N572 1.418 . S
C576 C575 1.251 . S
C577 H544 0.930 . S
C577 C579 1.406 . S
C577 C582 1.261 . S
C578 H545 0.930 . S
C578 N580 1.325 . S
C578 C581 1.357 . S
C579 H547 0.928 . S
C579 C577 1.406 . S
C579 N580 1.261 . S
N580 Co531 2.214 . S
N580 C578 1.325 . S
N580 C579 1.261 . S
C581 H551 0.931 . S
C581 C578 1.357 . S
C581 C582 1.312 . S
C582 H553 0.930 . S
C582 C577 1.261 . S
C582 C581 1.312 . S
C583 O555 1.214 . S
C583 O563 1.234 . S
C584 H556 0.929 . S
C584 C587 1.391 . S
C584 C589 1.391 . S
C585 H557 0.929 . S
C585 C586 1.390 . S
C585 N588 1.391 . S
C586 H558 0.930 . S
C586 C585 1.390 . S
C586 C587 1.392 . S
C587 H559 0.929 . S
C587 C584 1.391 . S
C587 C586 1.392 . S
N588 Co532 2.257 . S
N588 C585 1.391 . S
N588 C589 1.388 . S
C589 H560 0.930 . S
C589 C584 1.391 . S
C589 N588 1.388 . S
Co590 O592 2.143 . S
Co590 O598 2.074 . S
Co590 O601 2.093 . S
Co590 O614 2.097 1_545 S
Co590 N631 2.151 . S
Co590 N639 2.214 . S
Co591 O592 2.160 . S
Co591 O597 2.058 . S
Co591 O607 2.057 . S
Co591 O622 2.037 1_545 S
Co591 N626 2.145 . S
Co591 N647 2.257 1_545 S
O592 Co590 2.143 . S
O592 Co591 2.160 . S
C593 O594 1.296 . S
C593 O601 1.191 1_565 S
O594 C593 1.296 . S
C595 O596 1.245 . S
C595 O607 1.232 . S
O596 C595 1.245 . S
O597 Co591 2.058 . S
O597 C623 1.269 . S
O598 Co590 2.074 . S
O598 C623 1.257 . S
H599 C624 0.930 . S
H600 C630 0.930 . S
O601 Co590 2.093 . S
O601 C593 1.191 1_545 S
H602 C634 0.929 . S
H603 C636 0.930 . S
H604 C637 0.930 . S
H605 C635 0.929 . S
H606 C638 0.928 . S
O607 Co591 2.057 . S
O607 C595 1.232 . S
H608 C627 0.929 1_565 S
H609 C628 0.929 . S
H610 C640 0.931 . S
H611 C632 0.929 . S
H612 C641 0.930 . S
H613 C633 0.931 . S
O614 Co590 2.097 1_565 S
O614 C642 1.214 . S
H615 C643 0.929 . S
H616 C644 0.929 . S
H617 C645 0.930 . S
H618 C646 0.929 . S
H619 C648 0.930 1_545 S
H620 C625 0.930 . S
H621 C629 0.920 1_565 S
O622 Co591 2.037 1_565 S
O622 C642 1.234 . S
C623 O597 1.269 . S
C623 O598 1.257 . S
C624 H599 0.930 . S
C624 C627 1.388 1_565 S
C624 C629 1.418 1_565 S
C625 H620 0.930 . S
C625 C628 1.404 . S
C625 C629 1.353 . S
N626 Co591 2.145 . S
N626 C627 1.397 . S
N626 C628 1.334 . S
C627 H608 0.929 1_545 S
C627 C624 1.388 1_545 S
C627 N626 1.397 . S
C628 H609 0.929 . S
C628 C625 1.404 . S
C628 N626 1.334 . S
C629 H621 0.920 1_545 S
C629 C624 1.418 1_545 S
C629 C625 1.353 . S
C630 H600 0.930 . S
C630 N631 1.330 . S
C630 C632 1.446 . S
N631 Co590 2.151 . S
N631 C630 1.330 . S
N631 C635 1.418 . S
C632 H611 0.929 . S
C632 C630 1.446 . S
C632 C633 1.332 . S
C633 H613 0.931 . S
C633 C632 1.332 . S
C633 C634 1.267 . S
C634 H602 0.929 . S
C634 C633 1.267 . S
C634 C635 1.251 . S
C635 H605 0.929 . S
C635 N631 1.418 . S
C635 C634 1.251 . S
C636 H603 0.930 . S
C636 C638 1.406 . S
C636 C641 1.261 1_545 S
C637 H604 0.930 . S
C637 N639 1.325 1_565 S
C637 C640 1.357 . S
C638 H606 0.928 . S
C638 C636 1.406 . S
C638 N639 1.261 . S
N639 Co590 2.214 . S
N639 C637 1.325 1_545 S
N639 C638 1.261 . S
C640 H610 0.931 . S
C640 C637 1.357 . S
C640 C641 1.312 . S
C641 H612 0.930 . S
C641 C636 1.261 1_565 S
C641 C640 1.312 . S
C642 O614 1.214 . S
C642 O622 1.234 . S
C643 H615 0.929 . S
C643 C646 1.391 . S
C643 C648 1.391 . S
C644 H616 0.929 . S
C644 C645 1.390 . S
C644 N647 1.391 . S
C645 H617 0.930 . S
C645 C644 1.390 . S
C645 C646 1.392 . S
C646 H618 0.929 . S
C646 C643 1.391 . S
C646 C645 1.392 . S
N647 Co591 2.257 1_565 S
N647 C644 1.391 . S
N647 C648 1.388 . S
C648 H619 0.930 1_565 S
C648 C643 1.391 . S
C648 N647 1.388 . S
Co649 O651 2.143 . S
Co649 O657 2.074 . S
Co649 O660 2.093 . S
Co649 O673 2.097 1_655 S
Co649 N690 2.151 . S
Co649 N698 2.214 . S
Co650 O651 2.160 . S
Co650 O656 2.058 . S
Co650 O666 2.057 . S
Co650 O681 2.037 1_655 S
Co650 N685 2.145 . S
Co650 N706 2.257 1_655 S
O651 Co649 2.143 . S
O651 Co650 2.160 . S
C652 O653 1.266 . S
C652 O660 1.243 1_455 S
O653 C652 1.266 . S
C654 O655 1.245 . S
C654 O666 1.232 . S
O655 C654 1.245 . S
O656 Co650 2.058 . S
O656 C682 1.269 . S
O657 Co649 2.074 . S
O657 C682 1.257 . S
H658 C683 0.930 . S
H659 C689 0.930 . S
O660 Co649 2.093 . S
O660 C652 1.243 1_655 S
H661 C693 0.929 . S
H662 C695 0.930 . S
H663 C696 0.930 . S
H664 C694 0.929 . S
H665 C697 0.928 . S
O666 Co650 2.057 . S
O666 C654 1.232 . S
H667 C686 0.929 1_455 S
H668 C687 0.929 . S
H669 C699 0.931 . S
H670 C691 0.929 . S
H671 C700 0.930 . S
H672 C692 0.931 . S
O673 Co649 2.097 1_455 S
O673 C701 1.214 . S
H674 C702 0.929 . S
H675 C703 0.929 . S
H676 C704 0.930 . S
H677 C705 0.929 . S
H678 C707 0.930 1_655 S
H679 C684 0.930 . S
H680 C688 0.925 1_455 S
O681 Co650 2.037 1_455 S
O681 C701 1.234 . S
C682 O656 1.269 . S
C682 O657 1.257 . S
C683 H658 0.930 . S
C683 C686 1.388 1_455 S
C683 C688 1.418 1_455 S
C684 H679 0.930 . S
C684 C687 1.404 . S
C684 C688 1.353 . S
N685 Co650 2.145 . S
N685 C686 1.397 . S
N685 C687 1.334 . S
C686 H667 0.929 1_655 S
C686 C683 1.388 1_655 S
C686 N685 1.397 . S
C687 H668 0.929 . S
C687 C684 1.404 . S
C687 N685 1.334 . S
C688 H680 0.925 1_655 S
C688 C683 1.418 1_655 S
C688 C684 1.353 . S
C689 H659 0.930 . S
C689 N690 1.330 . S
C689 C691 1.446 . S
N690 Co649 2.151 . S
N690 C689 1.330 . S
N690 C694 1.418 . S
C691 H670 0.929 . S
C691 C689 1.446 . S
C691 C692 1.332 . S
C692 H672 0.931 . S
C692 C691 1.332 . S
C692 C693 1.267 . S
C693 H661 0.929 . S
C693 C692 1.267 . S
C693 C694 1.251 . S
C694 H664 0.929 . S
C694 N690 1.418 . S
C694 C693 1.251 . S
C695 H662 0.930 . S
C695 C697 1.406 . S
C695 C700 1.261 1_655 S
C696 H663 0.930 . S
C696 N698 1.325 1_455 S
C696 C699 1.357 . S
C697 H665 0.928 . S
C697 C695 1.406 . S
C697 N698 1.261 . S
N698 Co649 2.214 . S
N698 C696 1.325 1_655 S
N698 C697 1.261 . S
C699 H669 0.931 . S
C699 C696 1.357 . S
C699 C700 1.312 . S
C700 H671 0.930 . S
C700 C695 1.261 1_455 S
C700 C699 1.312 . S
C701 O673 1.214 . S
C701 O681 1.234 . S
C702 H674 0.929 . S
C702 C705 1.391 . S
C702 C707 1.391 . S
C703 H675 0.929 . S
C703 C704 1.390 . S
C703 N706 1.391 . S
C704 H676 0.930 . S
C704 C703 1.390 . S
C704 C705 1.392 . S
C705 H677 0.929 . S
C705 C702 1.391 . S
C705 C704 1.392 . S
N706 Co650 2.257 1_455 S
N706 C703 1.391 . S
N706 C707 1.388 . S
C707 H678 0.930 1_455 S
C707 C702 1.391 . S
C707 N706 1.388 . S
Co708 O710 2.143 . S
Co708 O716 2.074 . S
Co708 O719 2.093 . S
Co708 O732 2.097 . S
Co708 N749 2.151 . S
Co708 N757 2.214 . S
Co709 O710 2.160 . S
Co709 O715 2.058 . S
Co709 O725 2.057 . S
Co709 O740 2.037 . S
Co709 N744 2.145 . S
Co709 N765 2.257 . S
O710 Co708 2.143 . S
O710 Co709 2.160 . S
C711 O712 1.278 . S
C711 O719 1.224 . S
O712 C711 1.278 . S
C713 O714 1.245 . S
C713 O725 1.232 . S
O714 C713 1.245 . S
O715 Co709 2.058 . S
O715 C741 1.269 . S
O716 Co708 2.074 . S
O716 C741 1.257 . S
H717 C742 0.930 . S
H718 C748 0.930 . S
O719 Co708 2.093 . S
O719 C711 1.224 . S
H720 C752 0.929 . S
H721 C754 0.930 . S
H722 C755 0.930 . S
H723 C753 0.929 . S
H724 C756 0.928 . S
O725 Co709 2.057 . S
O725 C713 1.232 . S
H726 C745 0.929 . S
H727 C746 0.929 . S
H728 C758 0.931 . S
H729 C750 0.929 . S
H730 C759 0.930 . S
H731 C751 0.931 . S
O732 Co708 2.097 . S
O732 C760 1.214 . S
H733 C761 0.929 . S
H734 C762 0.929 . S
H735 C763 0.930 . S
H736 C764 0.929 . S
H737 C766 0.930 . S
H738 C743 0.930 . S
H739 C747 0.930 . S
O740 Co709 2.037 . S
O740 C760 1.234 . S
C741 O715 1.269 . S
C741 O716 1.257 . S
C742 H717 0.930 . S
C742 C745 1.388 . S
C742 C747 1.418 . S
C743 H738 0.930 . S
C743 C746 1.404 . S
C743 C747 1.353 . S
N744 Co709 2.145 . S
N744 C745 1.397 . S
N744 C746 1.334 . S
C745 H726 0.929 . S
C745 C742 1.388 . S
C745 N744 1.397 . S
C746 H727 0.929 . S
C746 C743 1.404 . S
C746 N744 1.334 . S
C747 H739 0.930 . S
C747 C742 1.418 . S
C747 C743 1.353 . S
C748 H718 0.930 . S
C748 N749 1.330 . S
C748 C750 1.446 . S
N749 Co708 2.151 . S
N749 C748 1.330 . S
N749 C753 1.418 . S
C750 H729 0.929 . S
C750 C748 1.446 . S
C750 C751 1.332 . S
C751 H731 0.931 . S
C751 C750 1.332 . S
C751 C752 1.267 . S
C752 H720 0.929 . S
C752 C751 1.267 . S
C752 C753 1.251 . S
C753 H723 0.929 . S
C753 N749 1.418 . S
C753 C752 1.251 . S
C754 H721 0.930 . S
C754 C756 1.406 . S
C754 C759 1.261 . S
C755 H722 0.930 . S
C755 N757 1.325 . S
C755 C758 1.357 . S
C756 H724 0.928 . S
C756 C754 1.406 . S
C756 N757 1.261 . S
N757 Co708 2.214 . S
N757 C755 1.325 . S
N757 C756 1.261 . S
C758 H728 0.931 . S
C758 C755 1.357 . S
C758 C759 1.312 . S
C759 H730 0.930 . S
C759 C754 1.261 . S
C759 C758 1.312 . S
C760 O732 1.214 . S
C760 O740 1.234 . S
C761 H733 0.929 . S
C761 C764 1.391 . S
C761 C766 1.391 . S
C762 H734 0.929 . S
C762 C763 1.390 . S
C762 N765 1.391 . S
C763 H735 0.930 . S
C763 C762 1.390 . S
C763 C764 1.392 . S
C764 H736 0.929 . S
C764 C761 1.391 . S
C764 C763 1.392 . S
N765 Co709 2.257 . S
N765 C762 1.391 . S
N765 C766 1.388 . S
C766 H737 0.930 . S
C766 C761 1.391 . S
C766 N765 1.388 . S
Co767 O769 2.143 . S
Co767 O775 2.074 . S
Co767 O778 2.093 . S
Co767 O791 2.097 . S
Co767 N808 2.151 . S
Co767 N816 2.214 . S
Co768 O769 2.160 . S
Co768 O774 2.058 . S
Co768 O784 2.057 . S
Co768 O799 2.037 . S
Co768 N803 2.145 . S
Co768 N824 2.257 . S
O769 Co767 2.143 . S
O769 Co768 2.160 . S
C770 O771 1.278 . S
C770 O778 1.224 . S
O771 C770 1.278 . S
C772 O773 1.245 . S
C772 O784 1.232 . S
O773 C772 1.245 . S
O774 Co768 2.058 . S
O774 C800 1.269 . S
O775 Co767 2.074 . S
O775 C800 1.257 . S
H776 C801 0.930 . S
H777 C807 0.930 . S
O778 Co767 2.093 . S
O778 C770 1.224 . S
H779 C811 0.929 . S
H780 C813 0.930 . S
H781 C814 0.930 . S
H782 C812 0.929 . S
H783 C815 0.928 . S
O784 Co768 2.057 . S
O784 C772 1.232 . S
H785 C804 0.929 . S
H786 C805 0.929 . S
H787 C817 0.931 . S
H788 C809 0.929 . S
H789 C818 0.930 . S
H790 C810 0.931 . S
O791 Co767 2.097 . S
O791 C819 1.214 . S
H792 C820 0.929 . S
H793 C821 0.929 . S
H794 C822 0.930 . S
H795 C823 0.929 . S
H796 C825 0.930 . S
H797 C802 0.930 . S
H798 C806 0.930 . S
O799 Co768 2.037 . S
O799 C819 1.234 . S
C800 O774 1.269 . S
C800 O775 1.257 . S
C801 H776 0.930 . S
C801 C804 1.388 . S
C801 C806 1.418 . S
C802 H797 0.930 . S
C802 C805 1.404 . S
C802 C806 1.353 . S
N803 Co768 2.145 . S
N803 C804 1.397 . S
N803 C805 1.334 . S
C804 H785 0.929 . S
C804 C801 1.388 . S
C804 N803 1.397 . S
C805 H786 0.929 . S
C805 C802 1.404 . S
C805 N803 1.334 . S
C806 H798 0.930 . S
C806 C801 1.418 . S
C806 C802 1.353 . S
C807 H777 0.930 . S
C807 N808 1.330 . S
C807 C809 1.446 . S
N808 Co767 2.151 . S
N808 C807 1.330 . S
N808 C812 1.418 . S
C809 H788 0.929 . S
C809 C807 1.446 . S
C809 C810 1.332 . S
C810 H790 0.931 . S
C810 C809 1.332 . S
C810 C811 1.267 . S
C811 H779 0.929 . S
C811 C810 1.267 . S
C811 C812 1.251 . S
C812 H782 0.929 . S
C812 N808 1.418 . S
C812 C811 1.251 . S
C813 H780 0.930 . S
C813 C815 1.406 . S
C813 C818 1.261 . S
C814 H781 0.930 . S
C814 N816 1.325 . S
C814 C817 1.357 . S
C815 H783 0.928 . S
C815 C813 1.406 . S
C815 N816 1.261 . S
N816 Co767 2.214 . S
N816 C814 1.325 . S
N816 C815 1.261 . S
C817 H787 0.931 . S
C817 C814 1.357 . S
C817 C818 1.312 . S
C818 H789 0.930 . S
C818 C813 1.261 . S
C818 C817 1.312 . S
C819 O791 1.214 . S
C819 O799 1.234 . S
C820 H792 0.929 . S
C820 C823 1.391 . S
C820 C825 1.391 . S
C821 H793 0.929 . S
C821 C822 1.390 . S
C821 N824 1.391 . S
C822 H794 0.930 . S
C822 C821 1.390 . S
C822 C823 1.392 . S
C823 H795 0.929 . S
C823 C820 1.391 . S
C823 C822 1.392 . S
N824 Co768 2.257 . S
N824 C821 1.391 . S
N824 C825 1.388 . S
C825 H796 0.930 . S
C825 C820 1.391 . S
C825 N824 1.388 . S
Co826 O828 2.143 . S
Co826 O834 2.074 . S
Co826 O837 2.093 . S
Co826 O850 2.097 . S
Co826 N867 2.151 . S
Co826 N875 2.214 . S
Co827 O828 2.160 . S
Co827 O833 2.058 . S
Co827 O843 2.057 . S
Co827 O858 2.037 . S
Co827 N862 2.145 . S
Co827 N883 2.257 . S
O828 Co826 2.143 . S
O828 Co827 2.160 . S
C829 O830 1.278 . S
C829 O837 1.224 . S
O830 C829 1.278 . S
C831 O832 1.245 . S
C831 O843 1.232 . S
O832 C831 1.245 . S
O833 Co827 2.058 . S
O833 C859 1.269 . S
O834 Co826 2.074 . S
O834 C859 1.257 . S
H835 C860 0.930 . S
H836 C866 0.930 . S
O837 Co826 2.093 . S
O837 C829 1.224 . S
H838 C870 0.929 . S
H839 C872 0.930 . S
H840 C873 0.930 . S
H841 C871 0.929 . S
H842 C874 0.928 . S
O843 Co827 2.057 . S
O843 C831 1.232 . S
H844 C863 0.929 . S
H845 C864 0.929 . S
H846 C876 0.931 . S
H847 C868 0.929 . S
H848 C877 0.930 . S
H849 C869 0.931 . S
O850 Co826 2.097 . S
O850 C878 1.214 . S
H851 C879 0.929 . S
H852 C880 0.929 . S
H853 C881 0.930 . S
H854 C882 0.929 . S
H855 C884 0.930 . S
H856 C861 0.930 . S
H857 C865 0.930 . S
O858 Co827 2.037 . S
O858 C878 1.234 . S
C859 O833 1.269 . S
C859 O834 1.257 . S
C860 H835 0.930 . S
C860 C863 1.388 . S
C860 C865 1.418 . S
C861 H856 0.930 . S
C861 C864 1.404 . S
C861 C865 1.353 . S
N862 Co827 2.145 . S
N862 C863 1.397 . S
N862 C864 1.334 . S
C863 H844 0.929 . S
C863 C860 1.388 . S
C863 N862 1.397 . S
C864 H845 0.929 . S
C864 C861 1.404 . S
C864 N862 1.334 . S
C865 H857 0.930 . S
C865 C860 1.418 . S
C865 C861 1.353 . S
C866 H836 0.930 . S
C866 N867 1.330 . S
C866 C868 1.446 . S
N867 Co826 2.151 . S
N867 C866 1.330 . S
N867 C871 1.418 . S
C868 H847 0.929 . S
C868 C866 1.446 . S
C868 C869 1.332 . S
C869 H849 0.931 . S
C869 C868 1.332 . S
C869 C870 1.267 . S
C870 H838 0.929 . S
C870 C869 1.267 . S
C870 C871 1.251 . S
C871 H841 0.929 . S
C871 N867 1.418 . S
C871 C870 1.251 . S
C872 H839 0.930 . S
C872 C874 1.406 . S
C872 C877 1.261 . S
C873 H840 0.930 . S
C873 N875 1.325 . S
C873 C876 1.357 . S
C874 H842 0.928 . S
C874 C872 1.406 . S
C874 N875 1.261 . S
N875 Co826 2.214 . S
N875 C873 1.325 . S
N875 C874 1.261 . S
C876 H846 0.931 . S
C876 C873 1.357 . S
C876 C877 1.312 . S
C877 H848 0.930 . S
C877 C872 1.261 . S
C877 C876 1.312 . S
C878 O850 1.214 . S
C878 O858 1.234 . S
C879 H851 0.929 . S
C879 C882 1.391 . S
C879 C884 1.391 . S
C880 H852 0.929 . S
C880 C881 1.390 . S
C880 N883 1.391 . S
C881 H853 0.930 . S
C881 C880 1.390 . S
C881 C882 1.392 . S
C882 H854 0.929 . S
C882 C879 1.391 . S
C882 C881 1.392 . S
N883 Co827 2.257 . S
N883 C880 1.391 . S
N883 C884 1.388 . S
C884 H855 0.930 . S
C884 C879 1.391 . S
C884 N883 1.388 . S
Co885 O887 2.143 . S
Co885 O893 2.074 . S
Co885 O896 2.093 . S
Co885 O909 2.097 . S
Co885 N926 2.151 . S
Co885 N934 2.214 . S
Co886 O887 2.160 . S
Co886 O892 2.058 . S
Co886 O902 2.057 . S
Co886 O917 2.037 . S
Co886 N921 2.145 . S
Co886 N942 2.257 . S
O887 Co885 2.143 . S
O887 Co886 2.160 . S
C888 O889 1.278 . S
C888 O896 1.224 . S
O889 C888 1.278 . S
C890 O891 1.245 . S
C890 O902 1.232 . S
O891 C890 1.245 . S
O892 Co886 2.058 . S
O892 C918 1.269 . S
O893 Co885 2.074 . S
O893 C918 1.257 . S
H894 C919 0.930 . S
H895 C925 0.930 . S
O896 Co885 2.093 . S
O896 C888 1.224 . S
H897 C929 0.929 . S
H898 C931 0.930 . S
H899 C932 0.930 . S
H900 C930 0.929 . S
H901 C933 0.928 . S
O902 Co886 2.057 . S
O902 C890 1.232 . S
H903 C922 0.929 . S
H904 C923 0.929 . S
H905 C935 0.931 . S
H906 C927 0.929 . S
H907 C936 0.930 . S
H908 C928 0.931 . S
O909 Co885 2.097 . S
O909 C937 1.214 . S
H910 C938 0.929 . S
H911 C939 0.929 . S
H912 C940 0.930 . S
H913 C941 0.929 . S
H914 C943 0.930 . S
H915 C920 0.930 . S
H916 C924 0.930 . S
O917 Co886 2.037 . S
O917 C937 1.234 . S
C918 O892 1.269 . S
C918 O893 1.257 . S
C919 H894 0.930 . S
C919 C922 1.388 . S
C919 C924 1.418 . S
C920 H915 0.930 . S
C920 C923 1.404 . S
C920 C924 1.353 . S
N921 Co886 2.145 . S
N921 C922 1.397 . S
N921 C923 1.334 . S
C922 H903 0.929 . S
C922 C919 1.388 . S
C922 N921 1.397 . S
C923 H904 0.929 . S
C923 C920 1.404 . S
C923 N921 1.334 . S
C924 H916 0.930 . S
C924 C919 1.418 . S
C924 C920 1.353 . S
C925 H895 0.930 . S
C925 N926 1.330 . S
C925 C927 1.446 . S
N926 Co885 2.151 . S
N926 C925 1.330 . S
N926 C930 1.418 . S
C927 H906 0.929 . S
C927 C925 1.446 . S
C927 C928 1.332 . S
C928 H908 0.931 . S
C928 C927 1.332 . S
C928 C929 1.267 . S
C929 H897 0.929 . S
C929 C928 1.267 . S
C929 C930 1.251 . S
C930 H900 0.929 . S
C930 N926 1.418 . S
C930 C929 1.251 . S
C931 H898 0.930 . S
C931 C933 1.406 . S
C931 C936 1.261 . S
C932 H899 0.930 . S
C932 N934 1.325 . S
C932 C935 1.357 . S
C933 H901 0.928 . S
C933 C931 1.406 . S
C933 N934 1.261 . S
N934 Co885 2.214 . S
N934 C932 1.325 . S
N934 C933 1.261 . S
C935 H905 0.931 . S
C935 C932 1.357 . S
C935 C936 1.312 . S
C936 H907 0.930 . S
C936 C931 1.261 . S
C936 C935 1.312 . S
C937 O909 1.214 . S
C937 O917 1.234 . S
C938 H910 0.929 . S
C938 C941 1.391 . S
C938 C943 1.391 . S
C939 H911 0.929 . S
C939 C940 1.390 . S
C939 N942 1.391 . S
C940 H912 0.930 . S
C940 C939 1.390 . S
C940 C941 1.392 . S
C941 H913 0.929 . S
C941 C938 1.391 . S
C941 C940 1.392 . S
N942 Co886 2.257 . S
N942 C939 1.391 . S
N942 C943 1.388 . S
C943 H914 0.930 . S
C943 C938 1.391 . S
C943 N942 1.388 . S
Co944 O946 2.143 . S
Co944 O952 2.074 . S
Co944 O955 2.093 . S
Co944 O968 2.097 . S
Co944 N985 2.151 . S
Co944 N993 2.214 . S
Co945 O946 2.160 . S
Co945 O951 2.058 . S
Co945 O961 2.057 . S
Co945 O976 2.037 . S
Co945 N980 2.145 . S
Co945 N1001 2.257 . S
O946 Co944 2.143 . S
O946 Co945 2.160 . S
C947 O948 1.278 . S
C947 O955 1.224 . S
O948 C947 1.278 . S
C949 O950 1.245 . S
C949 O961 1.232 . S
O950 C949 1.245 . S
O951 Co945 2.058 . S
O951 C977 1.269 . S
O952 Co944 2.074 . S
O952 C977 1.257 . S
H953 C978 0.930 . S
H954 C984 0.930 . S
O955 Co944 2.093 . S
O955 C947 1.224 . S
H956 C988 0.929 . S
H957 C990 0.930 . S
H958 C991 0.930 . S
H959 C989 0.929 . S
H960 C992 0.928 . S
O961 Co945 2.057 . S
O961 C949 1.232 . S
H962 C981 0.929 . S
H963 C982 0.929 . S
H964 C994 0.931 . S
H965 C986 0.929 . S
H966 C995 0.930 . S
H967 C987 0.931 . S
O968 Co944 2.097 . S
O968 C996 1.214 . S
H969 C997 0.929 . S
H970 C998 0.929 . S
H971 C999 0.930 . S
H972 C1000 0.929 . S
H973 C1002 0.930 . S
H974 C979 0.930 . S
H975 C983 0.930 . S
O976 Co945 2.037 . S
O976 C996 1.234 . S
C977 O951 1.269 . S
C977 O952 1.257 . S
C978 H953 0.930 . S
C978 C981 1.388 . S
C978 C983 1.418 . S
C979 H974 0.930 . S
C979 C982 1.404 . S
C979 C983 1.353 . S
N980 Co945 2.145 . S
N980 C981 1.397 . S
N980 C982 1.334 . S
C981 H962 0.929 . S
C981 C978 1.388 . S
C981 N980 1.397 . S
C982 H963 0.929 . S
C982 C979 1.404 . S
C982 N980 1.334 . S
C983 H975 0.930 . S
C983 C978 1.418 . S
C983 C979 1.353 . S
C984 H954 0.930 . S
C984 N985 1.330 . S
C984 C986 1.446 . S
N985 Co944 2.151 . S
N985 C984 1.330 . S
N985 C989 1.418 . S
C986 H965 0.929 . S
C986 C984 1.446 . S
C986 C987 1.332 . S
C987 H967 0.931 . S
C987 C986 1.332 . S
C987 C988 1.267 . S
C988 H956 0.929 . S
C988 C987 1.267 . S
C988 C989 1.251 . S
C989 H959 0.929 . S
C989 N985 1.418 . S
C989 C988 1.251 . S
C990 H957 0.930 . S
C990 C992 1.406 . S
C990 C995 1.261 . S
C991 H958 0.930 . S
C991 N993 1.325 . S
C991 C994 1.357 . S
C992 H960 0.928 . S
C992 C990 1.406 . S
C992 N993 1.261 . S
N993 Co944 2.214 . S
N993 C991 1.325 . S
N993 C992 1.261 . S
C994 H964 0.931 . S
C994 C991 1.357 . S
C994 C995 1.312 . S
C995 H966 0.930 . S
C995 C990 1.261 . S
C995 C994 1.312 . S
C996 O968 1.214 . S
C996 O976 1.234 . S
C997 H969 0.929 . S
C997 C1000 1.391 . S
C997 C1002 1.391 . S
C998 H970 0.929 . S
C998 C999 1.390 . S
C998 N1001 1.391 . S
C999 H971 0.930 . S
C999 C998 1.390 . S
C999 C1000 1.392 . S
C1000 H972 0.929 . S
C1000 C997 1.391 . S
C1000 C999 1.392 . S
N1001 Co945 2.257 . S
N1001 C998 1.391 . S
N1001 C1002 1.388 . S
C1002 H973 0.930 . S
C1002 C997 1.391 . S
C1002 N1001 1.388 . S
Co1003 O1005 2.143 . S
Co1003 O1011 2.074 . S
Co1003 O1014 2.093 . S
Co1003 O1027 2.097 . S
Co1003 N1044 2.151 . S
Co1003 N1052 2.214 . S
Co1004 O1005 2.160 . S
Co1004 O1010 2.058 . S
Co1004 O1020 2.057 . S
Co1004 O1035 2.037 . S
Co1004 N1039 2.145 . S
Co1004 N1060 2.257 . S
O1005 Co1003 2.143 . S
O1005 Co1004 2.160 . S
C1006 O1007 1.278 . S
C1006 O1014 1.224 . S
O1007 C1006 1.278 . S
C1008 O1009 1.245 . S
C1008 O1020 1.232 . S
O1009 C1008 1.245 . S
O1010 Co1004 2.058 . S
O1010 C1036 1.269 . S
O1011 Co1003 2.074 . S
O1011 C1036 1.257 . S
H1012 C1037 0.930 . S
H1013 C1043 0.930 . S
O1014 Co1003 2.093 . S
O1014 C1006 1.224 . S
H1015 C1047 0.929 . S
H1016 C1049 0.930 . S
H1017 C1050 0.930 . S
H1018 C1048 0.929 . S
H1019 C1051 0.928 . S
O1020 Co1004 2.057 . S
O1020 C1008 1.232 . S
H1021 C1040 0.929 . S
H1022 C1041 0.929 . S
H1023 C1053 0.931 . S
H1024 C1045 0.929 . S
H1025 C1054 0.930 . S
H1026 C1046 0.931 . S
O1027 Co1003 2.097 . S
O1027 C1055 1.214 . S
H1028 C1056 0.929 . S
H1029 C1057 0.929 . S
H1030 C1058 0.930 . S
H1031 C1059 0.929 . S
H1032 C1061 0.930 . S
H1033 C1038 0.930 . S
H1034 C1042 0.930 . S
O1035 Co1004 2.037 . S
O1035 C1055 1.234 . S
C1036 O1010 1.269 . S
C1036 O1011 1.257 . S
C1037 H1012 0.930 . S
C1037 C1040 1.388 . S
C1037 C1042 1.418 . S
C1038 H1033 0.930 . S
C1038 C1041 1.404 . S
C1038 C1042 1.353 . S
N1039 Co1004 2.145 . S
N1039 C1040 1.397 . S
N1039 C1041 1.334 . S
C1040 H1021 0.929 . S
C1040 C1037 1.388 . S
C1040 N1039 1.397 . S
C1041 H1022 0.929 . S
C1041 C1038 1.404 . S
C1041 N1039 1.334 . S
C1042 H1034 0.930 . S
C1042 C1037 1.418 . S
C1042 C1038 1.353 . S
C1043 H1013 0.930 . S
C1043 N1044 1.330 . S
C1043 C1045 1.446 . S
N1044 Co1003 2.151 . S
N1044 C1043 1.330 . S
N1044 C1048 1.418 . S
C1045 H1024 0.929 . S
C1045 C1043 1.446 . S
C1045 C1046 1.332 . S
C1046 H1026 0.931 . S
C1046 C1045 1.332 . S
C1046 C1047 1.267 . S
C1047 H1015 0.929 . S
C1047 C1046 1.267 . S
C1047 C1048 1.251 . S
C1048 H1018 0.929 . S
C1048 N1044 1.418 . S
C1048 C1047 1.251 . S
C1049 H1016 0.930 . S
C1049 C1051 1.406 . S
C1049 C1054 1.261 . S
C1050 H1017 0.930 . S
C1050 N1052 1.325 . S
C1050 C1053 1.357 . S
C1051 H1019 0.928 . S
C1051 C1049 1.406 . S
C1051 N1052 1.261 . S
N1052 Co1003 2.214 . S
N1052 C1050 1.325 . S
N1052 C1051 1.261 . S
C1053 H1023 0.931 . S
C1053 C1050 1.357 . S
C1053 C1054 1.312 . S
C1054 H1025 0.930 . S
C1054 C1049 1.261 . S
C1054 C1053 1.312 . S
C1055 O1027 1.214 . S
C1055 O1035 1.234 . S
C1056 H1028 0.929 . S
C1056 C1059 1.391 . S
C1056 C1061 1.391 . S
C1057 H1029 0.929 . S
C1057 C1058 1.390 . S
C1057 N1060 1.391 . S
C1058 H1030 0.930 . S
C1058 C1057 1.390 . S
C1058 C1059 1.392 . S
C1059 H1031 0.929 . S
C1059 C1056 1.391 . S
C1059 C1058 1.392 . S
N1060 Co1004 2.257 . S
N1060 C1057 1.391 . S
N1060 C1061 1.388 . S
C1061 H1032 0.930 . S
C1061 C1056 1.391 . S
C1061 N1060 1.388 . S
Co1062 O1064 2.143 . S
Co1062 O1070 2.074 . S
Co1062 O1073 2.093 . S
Co1062 O1086 2.097 . S
Co1062 N1103 2.151 . S
Co1062 N1111 2.214 . S
Co1063 O1064 2.160 . S
Co1063 O1069 2.058 . S
Co1063 O1079 2.057 . S
Co1063 O1094 2.037 . S
Co1063 N1098 2.145 . S
Co1063 N1119 2.257 . S
O1064 Co1062 2.143 . S
O1064 Co1063 2.160 . S
C1065 O1066 1.278 . S
C1065 O1073 1.224 . S
O1066 C1065 1.278 . S
C1067 O1068 1.245 . S
C1067 O1079 1.232 . S
O1068 C1067 1.245 . S
O1069 Co1063 2.058 . S
O1069 C1095 1.269 . S
O1070 Co1062 2.074 . S
O1070 C1095 1.257 . S
H1071 C1096 0.930 . S
H1072 C1102 0.930 . S
O1073 Co1062 2.093 . S
O1073 C1065 1.224 . S
H1074 C1106 0.929 . S
H1075 C1108 0.930 . S
H1076 C1109 0.930 . S
H1077 C1107 0.929 . S
H1078 C1110 0.928 . S
O1079 Co1063 2.057 . S
O1079 C1067 1.232 . S
H1080 C1099 0.929 . S
H1081 C1100 0.929 . S
H1082 C1112 0.931 . S
H1083 C1104 0.929 . S
H1084 C1113 0.930 . S
H1085 C1105 0.931 . S
O1086 Co1062 2.097 . S
O1086 C1114 1.214 . S
H1087 C1115 0.929 . S
H1088 C1116 0.929 . S
H1089 C1117 0.930 . S
H1090 C1118 0.929 . S
H1091 C1120 0.930 . S
H1092 C1097 0.930 . S
H1093 C1101 0.930 . S
O1094 Co1063 2.037 . S
O1094 C1114 1.234 . S
C1095 O1069 1.269 . S
C1095 O1070 1.257 . S
C1096 H1071 0.930 . S
C1096 C1099 1.388 . S
C1096 C1101 1.418 . S
C1097 H1092 0.930 . S
C1097 C1100 1.404 . S
C1097 C1101 1.353 . S
N1098 Co1063 2.145 . S
N1098 C1099 1.397 . S
N1098 C1100 1.334 . S
C1099 H1080 0.929 . S
C1099 C1096 1.388 . S
C1099 N1098 1.397 . S
C1100 H1081 0.929 . S
C1100 C1097 1.404 . S
C1100 N1098 1.334 . S
C1101 H1093 0.930 . S
C1101 C1096 1.418 . S
C1101 C1097 1.353 . S
C1102 H1072 0.930 . S
C1102 N1103 1.330 . S
C1102 C1104 1.446 . S
N1103 Co1062 2.151 . S
N1103 C1102 1.330 . S
N1103 C1107 1.418 . S
C1104 H1083 0.929 . S
C1104 C1102 1.446 . S
C1104 C1105 1.332 . S
C1105 H1085 0.931 . S
C1105 C1104 1.332 . S
C1105 C1106 1.267 . S
C1106 H1074 0.929 . S
C1106 C1105 1.267 . S
C1106 C1107 1.251 . S
C1107 H1077 0.929 . S
C1107 N1103 1.418 . S
C1107 C1106 1.251 . S
C1108 H1075 0.930 . S
C1108 C1110 1.406 . S
C1108 C1113 1.261 . S
C1109 H1076 0.930 . S
C1109 N1111 1.325 . S
C1109 C1112 1.357 . S
C1110 H1078 0.928 . S
C1110 C1108 1.406 . S
C1110 N1111 1.261 . S
N1111 Co1062 2.214 . S
N1111 C1109 1.325 . S
N1111 C1110 1.261 . S
C1112 H1082 0.931 . S
C1112 C1109 1.357 . S
C1112 C1113 1.312 . S
C1113 H1084 0.930 . S
C1113 C1108 1.261 . S
C1113 C1112 1.312 . S
C1114 O1086 1.214 . S
C1114 O1094 1.234 . S
C1115 H1087 0.929 . S
C1115 C1118 1.391 . S
C1115 C1120 1.391 . S
C1116 H1088 0.929 . S
C1116 C1117 1.390 . S
C1116 N1119 1.391 . S
C1117 H1089 0.930 . S
C1117 C1116 1.390 . S
C1117 C1118 1.392 . S
C1118 H1090 0.929 . S
C1118 C1115 1.391 . S
C1118 C1117 1.392 . S
N1119 Co1063 2.257 . S
N1119 C1116 1.391 . S
N1119 C1120 1.388 . S
C1120 H1091 0.930 . S
C1120 C1115 1.391 . S
C1120 N1119 1.388 . S
Co1121 O1123 2.143 . S
Co1121 O1129 2.074 . S
Co1121 O1132 2.093 . S
Co1121 O1145 2.097 . S
Co1121 N1162 2.151 . S
Co1121 N1170 2.214 . S
Co1122 O1123 2.160 . S
Co1122 O1128 2.058 . S
Co1122 O1138 2.057 . S
Co1122 O1153 2.037 . S
Co1122 N1157 2.145 . S
Co1122 N1178 2.257 . S
O1123 Co1121 2.143 . S
O1123 Co1122 2.160 . S
C1124 O1125 1.278 . S
C1124 O1132 1.224 . S
O1125 C1124 1.278 . S
C1126 O1127 1.245 . S
C1126 O1138 1.232 . S
O1127 C1126 1.245 . S
O1128 Co1122 2.058 . S
O1128 C1154 1.269 . S
O1129 Co1121 2.074 . S
O1129 C1154 1.257 . S
H1130 C1155 0.930 . S
H1131 C1161 0.930 . S
O1132 Co1121 2.093 . S
O1132 C1124 1.224 . S
H1133 C1165 0.929 . S
H1134 C1167 0.930 . S
H1135 C1168 0.930 . S
H1136 C1166 0.929 . S
H1137 C1169 0.928 . S
O1138 Co1122 2.057 . S
O1138 C1126 1.232 . S
H1139 C1158 0.929 . S
H1140 C1159 0.929 . S
H1141 C1171 0.931 . S
H1142 C1163 0.929 . S
H1143 C1172 0.930 . S
H1144 C1164 0.931 . S
O1145 Co1121 2.097 . S
O1145 C1173 1.214 . S
H1146 C1174 0.929 . S
H1147 C1175 0.929 . S
H1148 C1176 0.930 . S
H1149 C1177 0.929 . S
H1150 C1179 0.930 . S
H1151 C1156 0.930 . S
H1152 C1160 0.930 . S
O1153 Co1122 2.037 . S
O1153 C1173 1.234 . S
C1154 O1128 1.269 . S
C1154 O1129 1.257 . S
C1155 H1130 0.930 . S
C1155 C1158 1.388 . S
C1155 C1160 1.418 . S
C1156 H1151 0.930 . S
C1156 C1159 1.404 . S
C1156 C1160 1.353 . S
N1157 Co1122 2.145 . S
N1157 C1158 1.397 . S
N1157 C1159 1.334 . S
C1158 H1139 0.929 . S
C1158 C1155 1.388 . S
C1158 N1157 1.397 . S
C1159 H1140 0.929 . S
C1159 C1156 1.404 . S
C1159 N1157 1.334 . S
C1160 H1152 0.930 . S
C1160 C1155 1.418 . S
C1160 C1156 1.353 . S
C1161 H1131 0.930 . S
C1161 N1162 1.330 . S
C1161 C1163 1.446 . S
N1162 Co1121 2.151 . S
N1162 C1161 1.330 . S
N1162 C1166 1.418 . S
C1163 H1142 0.929 . S
C1163 C1161 1.446 . S
C1163 C1164 1.332 . S
C1164 H1144 0.931 . S
C1164 C1163 1.332 . S
C1164 C1165 1.267 . S
C1165 H1133 0.929 . S
C1165 C1164 1.267 . S
C1165 C1166 1.251 . S
C1166 H1136 0.929 . S
C1166 N1162 1.418 . S
C1166 C1165 1.251 . S
C1167 H1134 0.930 . S
C1167 C1169 1.406 . S
C1167 C1172 1.261 . S
C1168 H1135 0.930 . S
C1168 N1170 1.325 . S
C1168 C1171 1.357 . S
C1169 H1137 0.928 . S
C1169 C1167 1.406 . S
C1169 N1170 1.261 . S
N1170 Co1121 2.214 . S
N1170 C1168 1.325 . S
N1170 C1169 1.261 . S
C1171 H1141 0.931 . S
C1171 C1168 1.357 . S
C1171 C1172 1.312 . S
C1172 H1143 0.930 . S
C1172 C1167 1.261 . S
C1172 C1171 1.312 . S
C1173 O1145 1.214 . S
C1173 O1153 1.234 . S
C1174 H1146 0.929 . S
C1174 C1177 1.391 . S
C1174 C1179 1.391 . S
C1175 H1147 0.929 . S
C1175 C1176 1.390 . S
C1175 N1178 1.391 . S
C1176 H1148 0.930 . S
C1176 C1175 1.390 . S
C1176 C1177 1.392 . S
C1177 H1149 0.929 . S
C1177 C1174 1.391 . S
C1177 C1176 1.392 . S
N1178 Co1122 2.257 . S
N1178 C1175 1.391 . S
N1178 C1179 1.388 . S
C1179 H1150 0.930 . S
C1179 C1174 1.391 . S
C1179 N1178 1.388 . S
Co1180 O1182 2.143 . S
Co1180 O1188 2.074 . S
Co1180 O1191 2.093 . S
Co1180 O1204 2.097 . S
Co1180 N1221 2.151 . S
Co1180 N1229 2.214 . S
Co1181 O1182 2.160 . S
Co1181 O1187 2.058 . S
Co1181 O1197 2.057 . S
Co1181 O1212 2.037 . S
Co1181 N1216 2.145 . S
Co1181 N1237 2.257 . S
O1182 Co1180 2.143 . S
O1182 Co1181 2.160 . S
C1183 O1184 1.278 . S
C1183 O1191 1.224 . S
O1184 C1183 1.278 . S
C1185 O1186 1.245 . S
C1185 O1197 1.232 . S
O1186 C1185 1.245 . S
O1187 Co1181 2.058 . S
O1187 C1213 1.269 . S
O1188 Co1180 2.074 . S
O1188 C1213 1.257 . S
H1189 C1214 0.930 . S
H1190 C1220 0.930 . S
O1191 Co1180 2.093 . S
O1191 C1183 1.224 . S
H1192 C1224 0.929 . S
H1193 C1226 0.930 . S
H1194 C1227 0.930 . S
H1195 C1225 0.929 . S
H1196 C1228 0.928 . S
O1197 Co1181 2.057 . S
O1197 C1185 1.232 . S
H1198 C1217 0.929 . S
H1199 C1218 0.929 . S
H1200 C1230 0.931 . S
H1201 C1222 0.929 . S
H1202 C1231 0.930 . S
H1203 C1223 0.931 . S
O1204 Co1180 2.097 . S
O1204 C1232 1.214 . S
H1205 C1233 0.929 . S
H1206 C1234 0.929 . S
H1207 C1235 0.930 . S
H1208 C1236 0.929 . S
H1209 C1238 0.930 . S
H1210 C1215 0.930 . S
H1211 C1219 0.930 . S
O1212 Co1181 2.037 . S
O1212 C1232 1.234 . S
C1213 O1187 1.269 . S
C1213 O1188 1.257 . S
C1214 H1189 0.930 . S
C1214 C1217 1.388 . S
C1214 C1219 1.418 . S
C1215 H1210 0.930 . S
C1215 C1218 1.404 . S
C1215 C1219 1.353 . S
N1216 Co1181 2.145 . S
N1216 C1217 1.397 . S
N1216 C1218 1.334 . S
C1217 H1198 0.929 . S
C1217 C1214 1.388 . S
C1217 N1216 1.397 . S
C1218 H1199 0.929 . S
C1218 C1215 1.404 . S
C1218 N1216 1.334 . S
C1219 H1211 0.930 . S
C1219 C1214 1.418 . S
C1219 C1215 1.353 . S
C1220 H1190 0.930 . S
C1220 N1221 1.330 . S
C1220 C1222 1.446 . S
N1221 Co1180 2.151 . S
N1221 C1220 1.330 . S
N1221 C1225 1.418 . S
C1222 H1201 0.929 . S
C1222 C1220 1.446 . S
C1222 C1223 1.332 . S
C1223 H1203 0.931 . S
C1223 C1222 1.332 . S
C1223 C1224 1.267 . S
C1224 H1192 0.929 . S
C1224 C1223 1.267 . S
C1224 C1225 1.251 . S
C1225 H1195 0.929 . S
C1225 N1221 1.418 . S
C1225 C1224 1.251 . S
C1226 H1193 0.930 . S
C1226 C1228 1.406 . S
C1226 C1231 1.261 . S
C1227 H1194 0.930 . S
C1227 N1229 1.325 . S
C1227 C1230 1.357 . S
C1228 H1196 0.928 . S
C1228 C1226 1.406 . S
C1228 N1229 1.261 . S
N1229 Co1180 2.214 . S
N1229 C1227 1.325 . S
N1229 C1228 1.261 . S
C1230 H1200 0.931 . S
C1230 C1227 1.357 . S
C1230 C1231 1.312 . S
C1231 H1202 0.930 . S
C1231 C1226 1.261 . S
C1231 C1230 1.312 . S
C1232 O1204 1.214 . S
C1232 O1212 1.234 . S
C1233 H1205 0.929 . S
C1233 C1236 1.391 . S
C1233 C1238 1.391 . S
C1234 H1206 0.929 . S
C1234 C1235 1.390 . S
C1234 N1237 1.391 . S
C1235 H1207 0.930 . S
C1235 C1234 1.390 . S
C1235 C1236 1.392 . S
C1236 H1208 0.929 . S
C1236 C1233 1.391 . S
C1236 C1235 1.392 . S
N1237 Co1181 2.257 . S
N1237 C1234 1.391 . S
N1237 C1238 1.388 . S
C1238 H1209 0.930 . S
C1238 C1233 1.391 . S
C1238 N1237 1.388 . S
Co1239 O1241 2.143 . S
Co1239 O1247 2.074 . S
Co1239 O1250 2.093 . S
Co1239 O1263 2.097 . S
Co1239 N1280 2.151 . S
Co1239 N1288 2.214 . S
Co1240 O1241 2.168 . S
Co1240 O1246 2.058 1_554 S
Co1240 O1256 2.056 1_554 S
Co1240 O1271 2.038 . S
Co1240 N1275 2.136 1_554 S
Co1240 N1296 2.254 . S
O1241 Co1239 2.143 . S
O1241 Co1240 2.168 . S
C1242 O1243 1.278 . S
C1242 O1250 1.224 . S
O1243 C1242 1.278 . S
C1244 O1245 1.245 . S
C1244 O1256 1.232 1_554 S
O1245 C1244 1.245 . S
O1246 Co1240 2.058 1_556 S
O1246 C1272 1.267 1_556 S
O1247 Co1239 2.074 . S
O1247 C1272 1.257 . S
H1248 C1273 0.930 . S
H1249 C1279 0.930 . S
O1250 Co1239 2.093 . S
O1250 C1242 1.224 . S
H1251 C1283 0.929 . S
H1252 C1285 0.930 . S
H1253 C1286 0.930 . S
H1254 C1284 0.929 . S
H1255 C1287 0.928 . S
O1256 Co1240 2.056 1_556 S
O1256 C1244 1.232 1_556 S
H1257 C1276 0.929 . S
H1258 C1277 0.929 . S
H1259 C1289 0.931 . S
H1260 C1281 0.929 . S
H1261 C1290 0.930 . S
H1262 C1282 0.931 . S
O1263 Co1239 2.097 . S
O1263 C1291 1.214 . S
H1264 C1292 0.929 . S
H1265 C1293 0.929 . S
H1266 C1294 0.930 . S
H1267 C1295 0.929 . S
H1268 C1297 0.930 . S
H1269 C1274 0.930 . S
H1270 C1278 0.930 . S
O1271 Co1240 2.038 . S
O1271 C1291 1.234 . S
C1272 O1246 1.267 1_554 S
C1272 O1247 1.257 . S
C1273 H1248 0.930 . S
C1273 C1276 1.388 . S
C1273 C1278 1.418 . S
C1274 H1269 0.930 . S
C1274 C1277 1.404 . S
C1274 C1278 1.353 . S
N1275 Co1240 2.136 1_556 S
N1275 C1276 1.397 . S
N1275 C1277 1.334 . S
C1276 H1257 0.929 . S
C1276 C1273 1.388 . S
C1276 N1275 1.397 . S
C1277 H1258 0.929 . S
C1277 C1274 1.404 . S
C1277 N1275 1.334 . S
C1278 H1270 0.930 . S
C1278 C1273 1.418 . S
C1278 C1274 1.353 . S
C1279 H1249 0.930 . S
C1279 N1280 1.330 . S
C1279 C1281 1.446 . S
N1280 Co1239 2.151 . S
N1280 C1279 1.330 . S
N1280 C1284 1.418 . S
C1281 H1260 0.929 . S
C1281 C1279 1.446 . S
C1281 C1282 1.332 . S
C1282 H1262 0.931 . S
C1282 C1281 1.332 . S
C1282 C1283 1.267 . S
C1283 H1251 0.929 . S
C1283 C1282 1.267 . S
C1283 C1284 1.251 . S
C1284 H1254 0.929 . S
C1284 N1280 1.418 . S
C1284 C1283 1.251 . S
C1285 H1252 0.930 . S
C1285 C1287 1.406 . S
C1285 C1290 1.261 . S
C1286 H1253 0.930 . S
C1286 N1288 1.325 . S
C1286 C1289 1.357 . S
C1287 H1255 0.928 . S
C1287 C1285 1.406 . S
C1287 N1288 1.261 . S
N1288 Co1239 2.214 . S
N1288 C1286 1.325 . S
N1288 C1287 1.261 . S
C1289 H1259 0.931 . S
C1289 C1286 1.357 . S
C1289 C1290 1.312 . S
C1290 H1261 0.930 . S
C1290 C1285 1.261 . S
C1290 C1289 1.312 . S
C1291 O1263 1.214 . S
C1291 O1271 1.234 . S
C1292 H1264 0.929 . S
C1292 C1295 1.391 . S
C1292 C1297 1.391 . S
C1293 H1265 0.929 . S
C1293 C1294 1.390 . S
C1293 N1296 1.348 1_556 S
C1294 H1266 0.930 . S
C1294 C1293 1.390 . S
C1294 C1295 1.392 1_556 S
C1295 H1267 0.929 . S
C1295 C1292 1.391 . S
C1295 C1294 1.392 1_554 S
N1296 Co1240 2.254 . S
N1296 C1293 1.348 1_554 S
N1296 C1297 1.453 . S
C1297 H1268 0.930 . S
C1297 C1292 1.391 . S
C1297 N1296 1.453 . S
Co1298 O1300 2.143 . S
Co1298 O1306 2.074 . S
Co1298 O1309 2.093 . S
Co1298 O1322 2.097 . S
Co1298 N1339 2.151 . S
Co1298 N1347 2.214 . S
Co1299 O1300 2.161 . S
Co1299 O1305 2.058 1_554 S
Co1299 O1315 2.057 1_554 S
Co1299 O1330 2.037 . S
Co1299 N1334 2.143 1_554 S
Co1299 N1355 2.254 . S
O1300 Co1298 2.143 . S
O1300 Co1299 2.161 . S
C1301 O1302 1.278 . S
C1301 O1309 1.224 . S
O1302 C1301 1.278 . S
C1303 O1304 1.245 . S
C1303 O1315 1.232 1_554 S
O1304 C1303 1.245 . S
O1305 Co1299 2.058 1_556 S
O1305 C1331 1.263 1_556 S
O1306 Co1298 2.074 . S
O1306 C1331 1.257 . S
H1307 C1332 0.930 . S
H1308 C1338 0.930 . S
O1309 Co1298 2.093 . S
O1309 C1301 1.224 . S
H1310 C1342 0.929 . S
H1311 C1344 0.930 . S
H1312 C1345 0.930 . S
H1313 C1343 0.929 . S
H1314 C1346 0.928 . S
O1315 Co1299 2.057 1_556 S
O1315 C1303 1.232 1_556 S
H1316 C1335 0.929 . S
H1317 C1336 0.929 . S
H1318 C1348 0.931 . S
H1319 C1340 0.929 . S
H1320 C1349 0.930 . S
H1321 C1341 0.931 . S
O1322 Co1298 2.097 . S
O1322 C1350 1.214 . S
H1323 C1351 0.929 . S
H1324 C1352 0.929 . S
H1325 C1353 0.930 . S
H1326 C1354 0.929 . S
H1327 C1356 0.930 . S
H1328 C1333 0.930 . S
H1329 C1337 0.930 . S
O1330 Co1299 2.037 . S
O1330 C1350 1.234 . S
C1331 O1305 1.263 1_554 S
C1331 O1306 1.257 . S
C1332 H1307 0.930 . S
C1332 C1335 1.388 . S
C1332 C1337 1.418 . S
C1333 H1328 0.930 . S
C1333 C1336 1.404 . S
C1333 C1337 1.353 . S
N1334 Co1299 2.143 1_556 S
N1334 C1335 1.397 . S
N1334 C1336 1.334 . S
C1335 H1316 0.929 . S
C1335 C1332 1.388 . S
C1335 N1334 1.397 . S
C1336 H1317 0.929 . S
C1336 C1333 1.404 . S
C1336 N1334 1.334 . S
C1337 H1329 0.930 . S
C1337 C1332 1.418 . S
C1337 C1333 1.353 . S
C1338 H1308 0.930 . S
C1338 N1339 1.330 . S
C1338 C1340 1.446 . S
N1339 Co1298 2.151 . S
N1339 C1338 1.330 . S
N1339 C1343 1.418 . S
C1340 H1319 0.929 . S
C1340 C1338 1.446 . S
C1340 C1341 1.332 . S
C1341 H1321 0.931 . S
C1341 C1340 1.332 . S
C1341 C1342 1.267 . S
C1342 H1310 0.929 . S
C1342 C1341 1.267 . S
C1342 C1343 1.251 . S
C1343 H1313 0.929 . S
C1343 N1339 1.418 . S
C1343 C1342 1.251 . S
C1344 H1311 0.930 . S
C1344 C1346 1.406 . S
C1344 C1349 1.261 . S
C1345 H1312 0.930 . S
C1345 N1347 1.325 . S
C1345 C1348 1.357 . S
C1346 H1314 0.928 . S
C1346 C1344 1.406 . S
C1346 N1347 1.261 . S
N1347 Co1298 2.214 . S
N1347 C1345 1.325 . S
N1347 C1346 1.261 . S
C1348 H1318 0.931 . S
C1348 C1345 1.357 . S
C1348 C1349 1.312 . S
C1349 H1320 0.930 . S
C1349 C1344 1.261 . S
C1349 C1348 1.312 . S
C1350 O1322 1.214 . S
C1350 O1330 1.234 . S
C1351 H1323 0.929 . S
C1351 C1354 1.391 . S
C1351 C1356 1.391 . S
C1352 H1324 0.929 . S
C1352 C1353 1.390 . S
C1352 N1355 1.350 1_556 S
C1353 H1325 0.930 . S
C1353 C1352 1.390 . S
C1353 C1354 1.392 1_556 S
C1354 H1326 0.929 . S
C1354 C1351 1.391 . S
C1354 C1353 1.392 1_554 S
N1355 Co1299 2.254 . S
N1355 C1352 1.350 1_554 S
N1355 C1356 1.449 . S
C1356 H1327 0.930 . S
C1356 C1351 1.391 . S
C1356 N1355 1.449 . S
Co1357 O1359 2.143 . S
Co1357 O1365 2.074 . S
Co1357 O1368 2.093 . S
Co1357 O1381 2.097 . S
Co1357 N1398 2.151 . S
Co1357 N1406 2.214 . S
Co1358 O1359 2.158 . S
Co1358 O1364 2.058 1_554 S
Co1358 O1374 2.058 1_554 S
Co1358 O1389 2.037 . S
Co1358 N1393 2.146 1_554 S
Co1358 N1414 2.254 . S
O1359 Co1357 2.143 . S
O1359 Co1358 2.158 . S
C1360 O1361 1.278 . S
C1360 O1368 1.224 . S
O1361 C1360 1.278 . S
C1362 O1363 1.245 . S
C1362 O1374 1.232 1_554 S
O1363 C1362 1.245 . S
O1364 Co1358 2.058 1_556 S
O1364 C1390 1.262 1_556 S
O1365 Co1357 2.074 . S
O1365 C1390 1.257 . S
H1366 C1391 0.930 . S
H1367 C1397 0.930 . S
O1368 Co1357 2.093 . S
O1368 C1360 1.224 . S
H1369 C1401 0.929 . S
H1370 C1403 0.930 . S
H1371 C1404 0.930 . S
H1372 C1402 0.929 . S
H1373 C1405 0.928 . S
O1374 Co1358 2.058 1_556 S
O1374 C1362 1.232 1_556 S
H1375 C1394 0.929 . S
H1376 C1395 0.929 . S
H1377 C1407 0.931 . S
H1378 C1399 0.929 . S
H1379 C1408 0.930 . S
H1380 C1400 0.931 . S
O1381 Co1357 2.097 . S
O1381 C1409 1.214 . S
H1382 C1410 0.929 . S
H1383 C1411 0.929 . S
H1384 C1412 0.930 . S
H1385 C1413 0.929 . S
H1386 C1415 0.930 . S
H1387 C1392 0.930 . S
H1388 C1396 0.930 . S
O1389 Co1358 2.037 . S
O1389 C1409 1.234 . S
C1390 O1364 1.262 1_554 S
C1390 O1365 1.257 . S
C1391 H1366 0.930 . S
C1391 C1394 1.388 . S
C1391 C1396 1.418 . S
C1392 H1387 0.930 . S
C1392 C1395 1.404 . S
C1392 C1396 1.353 . S
N1393 Co1358 2.146 1_556 S
N1393 C1394 1.397 . S
N1393 C1395 1.334 . S
C1394 H1375 0.929 . S
C1394 C1391 1.388 . S
C1394 N1393 1.397 . S
C1395 H1376 0.929 . S
C1395 C1392 1.404 . S
C1395 N1393 1.334 . S
C1396 H1388 0.930 . S
C1396 C1391 1.418 . S
C1396 C1392 1.353 . S
C1397 H1367 0.930 . S
C1397 N1398 1.330 . S
C1397 C1399 1.446 . S
N1398 Co1357 2.151 . S
N1398 C1397 1.330 . S
N1398 C1402 1.418 . S
C1399 H1378 0.929 . S
C1399 C1397 1.446 . S
C1399 C1400 1.332 . S
C1400 H1380 0.931 . S
C1400 C1399 1.332 . S
C1400 C1401 1.267 . S
C1401 H1369 0.929 . S
C1401 C1400 1.267 . S
C1401 C1402 1.251 . S
C1402 H1372 0.929 . S
C1402 N1398 1.418 . S
C1402 C1401 1.251 . S
C1403 H1370 0.930 . S
C1403 C1405 1.406 . S
C1403 C1408 1.261 . S
C1404 H1371 0.930 . S
C1404 N1406 1.325 . S
C1404 C1407 1.357 . S
C1405 H1373 0.928 . S
C1405 C1403 1.406 . S
C1405 N1406 1.261 . S
N1406 Co1357 2.214 . S
N1406 C1404 1.325 . S
N1406 C1405 1.261 . S
C1407 H1377 0.931 . S
C1407 C1404 1.357 . S
C1407 C1408 1.312 . S
C1408 H1379 0.930 . S
C1408 C1403 1.261 . S
C1408 C1407 1.312 . S
C1409 O1381 1.214 . S
C1409 O1389 1.234 . S
C1410 H1382 0.929 . S
C1410 C1413 1.391 . S
C1410 C1415 1.391 . S
C1411 H1383 0.929 . S
C1411 C1412 1.390 . S
C1411 N1414 1.352 1_556 S
C1412 H1384 0.930 . S
C1412 C1411 1.390 . S
C1412 C1413 1.392 1_556 S
C1413 H1385 0.929 . S
C1413 C1410 1.391 . S
C1413 C1412 1.392 1_554 S
N1414 Co1358 2.254 . S
N1414 C1411 1.352 1_554 S
N1414 C1415 1.446 . S
C1415 H1386 0.930 . S
C1415 C1410 1.391 . S
C1415 N1414 1.446 . S
Co1416 O1418 2.143 . S
Co1416 O1424 2.074 . S
Co1416 O1427 2.093 . S
Co1416 O1440 2.097 . S
Co1416 N1457 2.151 . S
Co1416 N1465 2.214 . S
Co1417 O1418 2.160 . S
Co1417 O1423 2.058 . S
Co1417 O1433 2.057 . S
Co1417 O1448 2.037 . S
Co1417 N1452 2.145 . S
Co1417 N1473 2.257 . S
O1418 Co1416 2.143 . S
O1418 Co1417 2.160 . S
C1419 O1420 1.278 . S
C1419 O1427 1.224 . S
O1420 C1419 1.278 . S
C1421 O1422 1.245 . S
C1421 O1433 1.232 . S
O1422 C1421 1.245 . S
O1423 Co1417 2.058 . S
O1423 C1449 1.269 . S
O1424 Co1416 2.074 . S
O1424 C1449 1.257 . S
H1425 C1450 0.930 . S
H1426 C1456 0.930 . S
O1427 Co1416 2.093 . S
O1427 C1419 1.224 . S
H1428 C1460 0.929 . S
H1429 C1462 0.930 . S
H1430 C1463 0.930 . S
H1431 C1461 0.929 . S
H1432 C1464 0.928 . S
O1433 Co1417 2.057 . S
O1433 C1421 1.232 . S
H1434 C1453 0.929 . S
H1435 C1454 0.929 . S
H1436 C1466 0.931 . S
H1437 C1458 0.929 . S
H1438 C1467 0.930 . S
H1439 C1459 0.931 . S
O1440 Co1416 2.097 . S
O1440 C1468 1.214 . S
H1441 C1469 0.929 . S
H1442 C1470 0.929 . S
H1443 C1471 0.930 . S
H1444 C1472 0.929 . S
H1445 C1474 0.930 . S
H1446 C1451 0.930 . S
H1447 C1455 0.930 . S
O1448 Co1417 2.037 . S
O1448 C1468 1.234 . S
C1449 O1423 1.269 . S
C1449 O1424 1.257 . S
C1450 H1425 0.930 . S
C1450 C1453 1.388 . S
C1450 C1455 1.418 . S
C1451 H1446 0.930 . S
C1451 C1454 1.404 . S
C1451 C1455 1.353 . S
N1452 Co1417 2.145 . S
N1452 C1453 1.397 . S
N1452 C1454 1.334 . S
C1453 H1434 0.929 . S
C1453 C1450 1.388 . S
C1453 N1452 1.397 . S
C1454 H1435 0.929 . S
C1454 C1451 1.404 . S
C1454 N1452 1.334 . S
C1455 H1447 0.930 . S
C1455 C1450 1.418 . S
C1455 C1451 1.353 . S
C1456 H1426 0.930 . S
C1456 N1457 1.330 . S
C1456 C1458 1.446 . S
N1457 Co1416 2.151 . S
N1457 C1456 1.330 . S
N1457 C1461 1.418 . S
C1458 H1437 0.929 . S
C1458 C1456 1.446 . S
C1458 C1459 1.332 . S
C1459 H1439 0.931 . S
C1459 C1458 1.332 . S
C1459 C1460 1.267 . S
C1460 H1428 0.929 . S
C1460 C1459 1.267 . S
C1460 C1461 1.251 . S
C1461 H1431 0.929 . S
C1461 N1457 1.418 . S
C1461 C1460 1.251 . S
C1462 H1429 0.930 . S
C1462 C1464 1.406 . S
C1462 C1467 1.261 . S
C1463 H1430 0.930 . S
C1463 N1465 1.325 . S
C1463 C1466 1.357 . S
C1464 H1432 0.928 . S
C1464 C1462 1.406 . S
C1464 N1465 1.261 . S
N1465 Co1416 2.214 . S
N1465 C1463 1.325 . S
N1465 C1464 1.261 . S
C1466 H1436 0.931 . S
C1466 C1463 1.357 . S
C1466 C1467 1.312 . S
C1467 H1438 0.930 . S
C1467 C1462 1.261 . S
C1467 C1466 1.312 . S
C1468 O1440 1.214 . S
C1468 O1448 1.234 . S
C1469 H1441 0.929 . S
C1469 C1472 1.391 . S
C1469 C1474 1.391 . S
C1470 H1442 0.929 . S
C1470 C1471 1.390 . S
C1470 N1473 1.391 . S
C1471 H1443 0.930 . S
C1471 C1470 1.390 . S
C1471 C1472 1.392 . S
C1472 H1444 0.929 . S
C1472 C1469 1.391 . S
C1472 C1471 1.392 . S
N1473 Co1417 2.257 . S
N1473 C1470 1.391 . S
N1473 C1474 1.388 . S
C1474 H1445 0.930 . S
C1474 C1469 1.391 . S
C1474 N1473 1.388 . S
Co1475 O1477 2.143 . S
Co1475 O1483 2.074 . S
Co1475 O1486 2.093 . S
Co1475 O1499 2.097 . S
Co1475 N1516 2.151 . S
Co1475 N1524 2.214 . S
Co1476 O1477 2.160 . S
Co1476 O1482 2.058 . S
Co1476 O1492 2.057 . S
Co1476 O1507 2.037 . S
Co1476 N1511 2.145 . S
Co1476 N1532 2.257 . S
O1477 Co1475 2.143 . S
O1477 Co1476 2.160 . S
C1478 O1479 1.278 . S
C1478 O1486 1.224 . S
O1479 C1478 1.278 . S
C1480 O1481 1.245 . S
C1480 O1492 1.232 . S
O1481 C1480 1.245 . S
O1482 Co1476 2.058 . S
O1482 C1508 1.269 . S
O1483 Co1475 2.074 . S
O1483 C1508 1.257 . S
H1484 C1509 0.930 . S
H1485 C1515 0.930 . S
O1486 Co1475 2.093 . S
O1486 C1478 1.224 . S
H1487 C1519 0.929 . S
H1488 C1521 0.930 . S
H1489 C1522 0.930 . S
H1490 C1520 0.929 . S
H1491 C1523 0.928 . S
O1492 Co1476 2.057 . S
O1492 C1480 1.232 . S
H1493 C1512 0.929 . S
H1494 C1513 0.929 . S
H1495 C1525 0.931 . S
H1496 C1517 0.929 . S
H1497 C1526 0.930 . S
H1498 C1518 0.931 . S
O1499 Co1475 2.097 . S
O1499 C1527 1.214 . S
H1500 C1528 0.929 . S
H1501 C1529 0.929 . S
H1502 C1530 0.930 . S
H1503 C1531 0.929 . S
H1504 C1533 0.930 . S
H1505 C1510 0.930 . S
H1506 C1514 0.930 . S
O1507 Co1476 2.037 . S
O1507 C1527 1.234 . S
C1508 O1482 1.269 . S
C1508 O1483 1.257 . S
C1509 H1484 0.930 . S
C1509 C1512 1.388 . S
C1509 C1514 1.418 . S
C1510 H1505 0.930 . S
C1510 C1513 1.404 . S
C1510 C1514 1.353 . S
N1511 Co1476 2.145 . S
N1511 C1512 1.397 . S
N1511 C1513 1.334 . S
C1512 H1493 0.929 . S
C1512 C1509 1.388 . S
C1512 N1511 1.397 . S
C1513 H1494 0.929 . S
C1513 C1510 1.404 . S
C1513 N1511 1.334 . S
C1514 H1506 0.930 . S
C1514 C1509 1.418 . S
C1514 C1510 1.353 . S
C1515 H1485 0.930 . S
C1515 N1516 1.330 . S
C1515 C1517 1.446 . S
N1516 Co1475 2.151 . S
N1516 C1515 1.330 . S
N1516 C1520 1.418 . S
C1517 H1496 0.929 . S
C1517 C1515 1.446 . S
C1517 C1518 1.332 . S
C1518 H1498 0.931 . S
C1518 C1517 1.332 . S
C1518 C1519 1.267 . S
C1519 H1487 0.929 . S
C1519 C1518 1.267 . S
C1519 C1520 1.251 . S
C1520 H1490 0.929 . S
C1520 N1516 1.418 . S
C1520 C1519 1.251 . S
C1521 H1488 0.930 . S
C1521 C1523 1.406 . S
C1521 C1526 1.261 . S
C1522 H1489 0.930 . S
C1522 N1524 1.325 . S
C1522 C1525 1.357 . S
C1523 H1491 0.928 . S
C1523 C1521 1.406 . S
C1523 N1524 1.261 . S
N1524 Co1475 2.214 . S
N1524 C1522 1.325 . S
N1524 C1523 1.261 . S
C1525 H1495 0.931 . S
C1525 C1522 1.357 . S
C1525 C1526 1.312 . S
C1526 H1497 0.930 . S
C1526 C1521 1.261 . S
C1526 C1525 1.312 . S
C1527 O1499 1.214 . S
C1527 O1507 1.234 . S
C1528 H1500 0.929 . S
C1528 C1531 1.391 . S
C1528 C1533 1.391 . S
C1529 H1501 0.929 . S
C1529 C1530 1.390 . S
C1529 N1532 1.391 . S
C1530 H1502 0.930 . S
C1530 C1529 1.390 . S
C1530 C1531 1.392 . S
C1531 H1503 0.929 . S
C1531 C1528 1.391 . S
C1531 C1530 1.392 . S
N1532 Co1476 2.257 . S
N1532 C1529 1.391 . S
N1532 C1533 1.388 . S
C1533 H1504 0.930 . S
C1533 C1528 1.391 . S
C1533 N1532 1.388 . S
Co1534 O1536 2.143 . S
Co1534 O1542 2.074 . S
Co1534 O1545 2.093 . S
Co1534 O1558 2.097 . S
Co1534 N1575 2.151 . S
Co1534 N1583 2.214 . S
Co1535 O1536 2.160 . S
Co1535 O1541 2.058 . S
Co1535 O1551 2.057 . S
Co1535 O1566 2.037 . S
Co1535 N1570 2.145 . S
Co1535 N1591 2.257 . S
O1536 Co1534 2.143 . S
O1536 Co1535 2.160 . S
C1537 O1538 1.278 . S
C1537 O1545 1.224 . S
O1538 C1537 1.278 . S
C1539 O1540 1.245 . S
C1539 O1551 1.232 . S
O1540 C1539 1.245 . S
O1541 Co1535 2.058 . S
O1541 C1567 1.269 . S
O1542 Co1534 2.074 . S
O1542 C1567 1.257 . S
H1543 C1568 0.930 . S
H1544 C1574 0.930 . S
O1545 Co1534 2.093 . S
O1545 C1537 1.224 . S
H1546 C1578 0.929 . S
H1547 C1580 0.930 . S
H1548 C1581 0.930 . S
H1549 C1579 0.929 . S
H1550 C1582 0.928 . S
O1551 Co1535 2.057 . S
O1551 C1539 1.232 . S
H1552 C1571 0.929 . S
H1553 C1572 0.929 . S
H1554 C1584 0.931 . S
H1555 C1576 0.929 . S
H1556 C1585 0.930 . S
H1557 C1577 0.931 . S
O1558 Co1534 2.097 . S
O1558 C1586 1.214 . S
H1559 C1587 0.929 . S
H1560 C1588 0.929 . S
H1561 C1589 0.930 . S
H1562 C1590 0.929 . S
H1563 C1592 0.930 . S
H1564 C1569 0.930 . S
H1565 C1573 0.930 . S
O1566 Co1535 2.037 . S
O1566 C1586 1.234 . S
C1567 O1541 1.269 . S
C1567 O1542 1.257 . S
C1568 H1543 0.930 . S
C1568 C1571 1.388 . S
C1568 C1573 1.418 . S
C1569 H1564 0.930 . S
C1569 C1572 1.404 . S
C1569 C1573 1.353 . S
N1570 Co1535 2.145 . S
N1570 C1571 1.397 . S
N1570 C1572 1.334 . S
C1571 H1552 0.929 . S
C1571 C1568 1.388 . S
C1571 N1570 1.397 . S
C1572 H1553 0.929 . S
C1572 C1569 1.404 . S
C1572 N1570 1.334 . S
C1573 H1565 0.930 . S
C1573 C1568 1.418 . S
C1573 C1569 1.353 . S
C1574 H1544 0.930 . S
C1574 N1575 1.330 . S
C1574 C1576 1.446 . S
N1575 Co1534 2.151 . S
N1575 C1574 1.330 . S
N1575 C1579 1.418 . S
C1576 H1555 0.929 . S
C1576 C1574 1.446 . S
C1576 C1577 1.332 . S
C1577 H1557 0.931 . S
C1577 C1576 1.332 . S
C1577 C1578 1.267 . S
C1578 H1546 0.929 . S
C1578 C1577 1.267 . S
C1578 C1579 1.251 . S
C1579 H1549 0.929 . S
C1579 N1575 1.418 . S
C1579 C1578 1.251 . S
C1580 H1547 0.930 . S
C1580 C1582 1.406 . S
C1580 C1585 1.261 . S
C1581 H1548 0.930 . S
C1581 N1583 1.325 . S
C1581 C1584 1.357 . S
C1582 H1550 0.928 . S
C1582 C1580 1.406 . S
C1582 N1583 1.261 . S
N1583 Co1534 2.214 . S
N1583 C1581 1.325 . S
N1583 C1582 1.261 . S
C1584 H1554 0.931 . S
C1584 C1581 1.357 . S
C1584 C1585 1.312 . S
C1585 H1556 0.930 . S
C1585 C1580 1.261 . S
C1585 C1584 1.312 . S
C1586 O1558 1.214 . S
C1586 O1566 1.234 . S
C1587 H1559 0.929 . S
C1587 C1590 1.391 . S
C1587 C1592 1.391 . S
C1588 H1560 0.929 . S
C1588 C1589 1.390 . S
C1588 N1591 1.391 . S
C1589 H1561 0.930 . S
C1589 C1588 1.390 . S
C1589 C1590 1.392 . S
C1590 H1562 0.929 . S
C1590 C1587 1.391 . S
C1590 C1589 1.392 . S
N1591 Co1535 2.257 . S
N1591 C1588 1.391 . S
N1591 C1592 1.388 . S
C1592 H1563 0.930 . S
C1592 C1587 1.391 . S
C1592 N1591 1.388 . S
Co1593 O1595 2.143 . S
Co1593 O1601 2.074 . S
Co1593 O1604 2.093 . S
Co1593 O1617 2.097 . S
Co1593 N1634 2.151 . S
Co1593 N1642 2.214 . S
Co1594 O1595 2.183 . S
Co1594 O1600 2.058 1_556 S
Co1594 O1610 2.054 1_556 S
Co1594 O1625 2.039 . S
Co1594 N1629 2.121 1_556 S
Co1594 N1650 2.258 . S
O1595 Co1593 2.143 . S
O1595 Co1594 2.183 . S
C1596 O1597 1.278 . S
C1596 O1604 1.224 . S
O1597 C1596 1.278 . S
C1598 O1599 1.245 . S
C1598 O1610 1.232 1_556 S
O1599 C1598 1.245 . S
O1600 Co1594 2.058 1_554 S
O1600 C1626 1.275 1_554 S
O1601 Co1593 2.074 . S
O1601 C1626 1.257 . S
H1602 C1627 0.930 . S
H1603 C1633 0.930 . S
O1604 Co1593 2.093 . S
O1604 C1596 1.224 . S
H1605 C1637 0.929 . S
H1606 C1639 0.930 . S
H1607 C1640 0.930 . S
H1608 C1638 0.929 . S
H1609 C1641 0.928 . S
O1610 Co1594 2.054 1_554 S
O1610 C1598 1.232 1_554 S
H1611 C1630 0.929 . S
H1612 C1631 0.929 . S
H1613 C1643 0.931 . S
H1614 C1635 0.929 . S
H1615 C1644 0.930 . S
H1616 C1636 0.931 . S
O1617 Co1593 2.097 . S
O1617 C1645 1.214 . S
H1618 C1646 0.929 . S
H1619 C1647 0.929 . S
H1620 C1648 0.930 . S
H1621 C1649 0.929 . S
H1622 C1651 0.930 . S
H1623 C1628 0.930 . S
H1624 C1632 0.930 . S
O1625 Co1594 2.039 . S
O1625 C1645 1.234 . S
C1626 O1600 1.275 1_556 S
C1626 O1601 1.257 . S
C1627 H1602 0.930 . S
C1627 C1630 1.388 . S
C1627 C1632 1.418 . S
C1628 H1623 0.930 . S
C1628 C1631 1.404 . S
C1628 C1632 1.353 . S
N1629 Co1594 2.121 1_554 S
N1629 C1630 1.397 . S
N1629 C1631 1.334 . S
C1630 H1611 0.929 . S
C1630 C1627 1.388 . S
C1630 N1629 1.397 . S
C1631 H1612 0.929 . S
C1631 C1628 1.404 . S
C1631 N1629 1.334 . S
C1632 H1624 0.930 . S
C1632 C1627 1.418 . S
C1632 C1628 1.353 . S
C1633 H1603 0.930 . S
C1633 N1634 1.330 . S
C1633 C1635 1.446 . S
N1634 Co1593 2.151 . S
N1634 C1633 1.330 . S
N1634 C1638 1.418 . S
C1635 H1614 0.929 . S
C1635 C1633 1.446 . S
C1635 C1636 1.332 . S
C1636 H1616 0.931 . S
C1636 C1635 1.332 . S
C1636 C1637 1.267 . S
C1637 H1605 0.929 . S
C1637 C1636 1.267 . S
C1637 C1638 1.251 . S
C1638 H1608 0.929 . S
C1638 N1634 1.418 . S
C1638 C1637 1.251 . S
C1639 H1606 0.930 . S
C1639 C1641 1.406 . S
C1639 C1644 1.261 . S
C1640 H1607 0.930 . S
C1640 N1642 1.325 . S
C1640 C1643 1.357 . S
C1641 H1609 0.928 . S
C1641 C1639 1.406 . S
C1641 N1642 1.261 . S
N1642 Co1593 2.214 . S
N1642 C1640 1.325 . S
N1642 C1641 1.261 . S
C1643 H1613 0.931 . S
C1643 C1640 1.357 . S
C1643 C1644 1.312 . S
C1644 H1615 0.930 . S
C1644 C1639 1.261 . S
C1644 C1643 1.312 . S
C1645 O1617 1.214 . S
C1645 O1625 1.234 . S
C1646 H1618 0.929 . S
C1646 C1649 1.391 . S
C1646 C1651 1.391 . S
C1647 H1619 0.929 . S
C1647 C1648 1.390 . S
C1647 N1650 1.391 1_554 S
C1648 H1620 0.930 . S
C1648 C1647 1.390 . S
C1648 C1649 1.392 1_554 S
C1649 H1621 0.929 . S
C1649 C1646 1.391 . S
C1649 C1648 1.392 1_556 S
N1650 Co1594 2.258 . S
N1650 C1647 1.391 1_556 S
N1650 C1651 1.388 . S
C1651 H1622 0.930 . S
C1651 C1646 1.391 . S
C1651 N1650 1.388 . S
Co1652 O1654 2.143 . S
Co1652 O1660 2.074 . S
Co1652 O1663 2.093 . S
Co1652 O1676 2.097 . S
Co1652 N1693 2.151 . S
Co1652 N1701 2.214 . S
Co1653 O1654 2.195 . S
Co1653 O1659 2.058 . S
Co1653 O1669 2.053 1_556 S
Co1653 O1684 2.041 . S
Co1653 N1688 2.109 1_556 S
Co1653 N1709 2.259 . S
O1654 Co1652 2.143 . S
O1654 Co1653 2.195 . S
C1655 O1656 1.278 . S
C1655 O1663 1.224 . S
O1656 C1655 1.278 . S
C1657 O1658 1.245 . S
C1657 O1669 1.232 1_556 S
O1658 C1657 1.245 . S
O1659 Co1653 2.058 . S
O1659 C1685 1.266 . S
O1660 Co1652 2.074 . S
O1660 C1685 1.257 . S
H1661 C1686 0.930 . S
H1662 C1692 0.930 . S
O1663 Co1652 2.093 . S
O1663 C1655 1.224 . S
H1664 C1696 0.929 . S
H1665 C1698 0.930 . S
H1666 C1699 0.930 . S
H1667 C1697 0.929 . S
H1668 C1700 0.928 . S
O1669 Co1653 2.053 1_554 S
O1669 C1657 1.232 1_554 S
H1670 C1689 0.929 . S
H1671 C1690 0.929 . S
H1672 C1702 0.931 . S
H1673 C1694 0.929 . S
H1674 C1703 0.930 . S
H1675 C1695 0.931 . S
O1676 Co1652 2.097 . S
O1676 C1704 1.214 . S
H1677 C1705 0.929 . S
H1678 C1706 0.929 . S
H1679 C1707 0.930 . S
H1680 C1708 0.929 . S
H1681 C1710 0.930 . S
H1682 C1687 0.930 . S
H1683 C1691 0.930 . S
O1684 Co1653 2.041 . S
O1684 C1704 1.234 . S
C1685 O1659 1.266 . S
C1685 O1660 1.257 . S
C1686 H1661 0.930 . S
C1686 C1689 1.388 . S
C1686 C1691 1.418 . S
C1687 H1682 0.930 . S
C1687 C1690 1.404 . S
C1687 C1691 1.353 . S
N1688 Co1653 2.109 1_554 S
N1688 C1689 1.397 . S
N1688 C1690 1.334 . S
C1689 H1670 0.929 . S
C1689 C1686 1.388 . S
C1689 N1688 1.397 . S
C1690 H1671 0.929 . S
C1690 C1687 1.404 . S
C1690 N1688 1.334 . S
C1691 H1683 0.930 . S
C1691 C1686 1.418 . S
C1691 C1687 1.353 . S
C1692 H1662 0.930 . S
C1692 N1693 1.330 . S
C1692 C1694 1.446 . S
N1693 Co1652 2.151 . S
N1693 C1692 1.330 . S
N1693 C1697 1.418 . S
C1694 H1673 0.929 . S
C1694 C1692 1.446 . S
C1694 C1695 1.332 . S
C1695 H1675 0.931 . S
C1695 C1694 1.332 . S
C1695 C1696 1.267 . S
C1696 H1664 0.929 . S
C1696 C1695 1.267 . S
C1696 C1697 1.251 . S
C1697 H1667 0.929 . S
C1697 N1693 1.418 . S
C1697 C1696 1.251 . S
C1698 H1665 0.930 . S
C1698 C1700 1.406 . S
C1698 C1703 1.261 . S
C1699 H1666 0.930 . S
C1699 N1701 1.325 . S
C1699 C1702 1.357 . S
C1700 H1668 0.928 . S
C1700 C1698 1.406 . S
C1700 N1701 1.261 . S
N1701 Co1652 2.214 . S
N1701 C1699 1.325 . S
N1701 C1700 1.261 . S
C1702 H1672 0.931 . S
C1702 C1699 1.357 . S
C1702 C1703 1.312 . S
C1703 H1674 0.930 . S
C1703 C1698 1.261 . S
C1703 C1702 1.312 . S
C1704 O1676 1.214 . S
C1704 O1684 1.234 . S
C1705 H1677 0.929 . S
C1705 C1708 1.391 . S
C1705 C1710 1.391 . S
C1706 H1678 0.929 . S
C1706 C1707 1.390 . S
C1706 N1709 1.391 1_554 S
C1707 H1679 0.930 . S
C1707 C1706 1.390 . S
C1707 C1708 1.392 1_554 S
C1708 H1680 0.929 . S
C1708 C1705 1.391 . S
C1708 C1707 1.392 1_556 S
N1709 Co1653 2.259 . S
N1709 C1706 1.391 1_556 S
N1709 C1710 1.388 . S
C1710 H1681 0.930 . S
C1710 C1705 1.391 . S
C1710 N1709 1.388 . S
Co1711 O1713 2.076 1_554 S
Co1711 O1719 2.065 1_554 S
Co1711 O1722 2.104 . S
Co1711 O1735 2.094 1_554 S
Co1711 N1752 2.161 . S
Co1711 N1760 2.280 . S
Co1712 O1713 2.160 . S
Co1712 O1718 2.058 . S
Co1712 O1728 2.057 . S
Co1712 O1743 2.037 . S
Co1712 N1747 2.145 . S
Co1712 N1768 2.257 . S
O1713 Co1711 2.076 1_556 S
O1713 Co1712 2.160 . S
C1714 O1715 1.278 . S
C1714 O1722 1.224 1_556 S
O1715 C1714 1.278 . S
C1716 O1717 1.245 . S
C1716 O1728 1.232 . S
O1717 C1716 1.245 . S
O1718 Co1712 2.058 . S
O1718 C1744 1.269 . S
O1719 Co1711 2.065 1_556 S
O1719 C1744 1.257 . S
H1720 C1745 0.930 . S
H1721 C1751 0.934 . S
O1722 Co1711 2.104 . S
O1722 C1714 1.224 1_554 S
H1723 C1755 0.929 . S
H1724 C1757 0.930 . S
H1725 C1758 0.930 . S
H1726 C1756 0.929 . S
H1727 C1759 0.928 . S
O1728 Co1712 2.057 . S
O1728 C1716 1.232 . S
H1729 C1748 0.929 . S
H1730 C1749 0.929 . S
H1731 C1761 0.931 . S
H1732 C1753 0.903 1_556 S
H1733 C1762 0.930 . S
H1734 C1754 0.931 . S
O1735 Co1711 2.094 1_556 S
O1735 C1763 1.223 . S
H1736 C1764 0.929 . S
H1737 C1765 0.929 . S
H1738 C1766 0.930 . S
H1739 C1767 0.929 . S
H1740 C1769 0.930 . S
H1741 C1746 0.930 . S
H1742 C1750 0.930 . S
O1743 Co1712 2.037 . S
O1743 C1763 1.234 . S
C1744 O1718 1.269 . S
C1744 O1719 1.257 . S
C1745 H1720 0.930 . S
C1745 C1748 1.388 . S
C1745 C1750 1.418 . S
C1746 H1741 0.930 . S
C1746 C1749 1.404 . S
C1746 C1750 1.353 . S
N1747 Co1712 2.145 . S
N1747 C1748 1.397 . S
N1747 C1749 1.334 . S
C1748 H1729 0.929 . S
C1748 C1745 1.388 . S
C1748 N1747 1.397 . S
C1749 H1730 0.929 . S
C1749 C1746 1.404 . S
C1749 N1747 1.334 . S
C1750 H1742 0.930 . S
C1750 C1745 1.418 . S
C1750 C1746 1.353 . S
C1751 H1721 0.934 . S
C1751 N1752 1.327 1_556 S
C1751 C1753 1.444 1_556 S
N1752 Co1711 2.161 . S
N1752 C1751 1.327 1_554 S
N1752 C1756 1.418 . S
C1753 H1732 0.903 1_554 S
C1753 C1751 1.444 1_554 S
C1753 C1754 1.332 . S
C1754 H1734 0.931 . S
C1754 C1753 1.332 . S
C1754 C1755 1.267 . S
C1755 H1723 0.929 . S
C1755 C1754 1.267 . S
C1755 C1756 1.251 . S
C1756 H1726 0.929 . S
C1756 N1752 1.418 . S
C1756 C1755 1.251 . S
C1757 H1724 0.930 . S
C1757 C1759 1.406 . S
C1757 C1762 1.261 . S
C1758 H1725 0.930 . S
C1758 N1760 1.325 . S
C1758 C1761 1.357 . S
C1759 H1727 0.928 . S
C1759 C1757 1.406 . S
C1759 N1760 1.261 . S
N1760 Co1711 2.280 . S
N1760 C1758 1.325 . S
N1760 C1759 1.261 . S
C1761 H1731 0.931 . S
C1761 C1758 1.357 . S
C1761 C1762 1.312 . S
C1762 H1733 0.930 . S
C1762 C1757 1.261 . S
C1762 C1761 1.312 . S
C1763 O1735 1.223 . S
C1763 O1743 1.234 . S
C1764 H1736 0.929 . S
C1764 C1767 1.391 . S
C1764 C1769 1.391 . S
C1765 H1737 0.929 . S
C1765 C1766 1.390 . S
C1765 N1768 1.391 . S
C1766 H1738 0.930 . S
C1766 C1765 1.390 . S
C1766 C1767 1.392 . S
C1767 H1739 0.929 . S
C1767 C1764 1.391 . S
C1767 C1766 1.392 . S
N1768 Co1712 2.257 . S
N1768 C1765 1.391 . S
N1768 C1769 1.388 . S
C1769 H1740 0.930 . S
C1769 C1764 1.391 . S
C1769 N1768 1.388 . S
Co1770 O1772 2.143 . S
Co1770 O1778 2.074 . S
Co1770 O1781 2.093 . S
Co1770 O1794 2.097 . S
Co1770 N1811 2.151 . S
Co1770 N1819 2.214 . S
Co1771 O1772 2.160 . S
Co1771 O1777 2.058 . S
Co1771 O1787 2.057 . S
Co1771 O1802 2.037 . S
Co1771 N1806 2.145 . S
Co1771 N1827 2.257 . S
O1772 Co1770 2.143 . S
O1772 Co1771 2.160 . S
C1773 O1774 1.278 . S
C1773 O1781 1.224 . S
O1774 C1773 1.278 . S
C1775 O1776 1.245 . S
C1775 O1787 1.232 . S
O1776 C1775 1.245 . S
O1777 Co1771 2.058 . S
O1777 C1803 1.269 . S
O1778 Co1770 2.074 . S
O1778 C1803 1.257 . S
H1779 C1804 0.930 . S
H1780 C1810 0.930 . S
O1781 Co1770 2.093 . S
O1781 C1773 1.224 . S
H1782 C1814 0.929 . S
H1783 C1816 0.930 . S
H1784 C1817 0.930 . S
H1785 C1815 0.929 . S
H1786 C1818 0.928 . S
O1787 Co1771 2.057 . S
O1787 C1775 1.232 . S
H1788 C1807 0.929 . S
H1789 C1808 0.929 . S
H1790 C1820 0.931 . S
H1791 C1812 0.929 . S
H1792 C1821 0.930 . S
H1793 C1813 0.931 . S
O1794 Co1770 2.097 . S
O1794 C1822 1.214 . S
H1795 C1823 0.929 . S
H1796 C1824 0.929 . S
H1797 C1825 0.930 . S
H1798 C1826 0.929 . S
H1799 C1828 0.930 . S
H1800 C1805 0.930 . S
H1801 C1809 0.930 . S
O1802 Co1771 2.037 . S
O1802 C1822 1.234 . S
C1803 O1777 1.269 . S
C1803 O1778 1.257 . S
C1804 H1779 0.930 . S
C1804 C1807 1.388 . S
C1804 C1809 1.418 . S
C1805 H1800 0.930 . S
C1805 C1808 1.404 . S
C1805 C1809 1.353 . S
N1806 Co1771 2.145 . S
N1806 C1807 1.397 . S
N1806 C1808 1.334 . S
C1807 H1788 0.929 . S
C1807 C1804 1.388 . S
C1807 N1806 1.397 . S
C1808 H1789 0.929 . S
C1808 C1805 1.404 . S
C1808 N1806 1.334 . S
C1809 H1801 0.930 . S
C1809 C1804 1.418 . S
C1809 C1805 1.353 . S
C1810 H1780 0.930 . S
C1810 N1811 1.330 . S
C1810 C1812 1.446 . S
N1811 Co1770 2.151 . S
N1811 C1810 1.330 . S
N1811 C1815 1.418 . S
C1812 H1791 0.929 . S
C1812 C1810 1.446 . S
C1812 C1813 1.332 . S
C1813 H1793 0.931 . S
C1813 C1812 1.332 . S
C1813 C1814 1.267 . S
C1814 H1782 0.929 . S
C1814 C1813 1.267 . S
C1814 C1815 1.251 . S
C1815 H1785 0.929 . S
C1815 N1811 1.418 . S
C1815 C1814 1.251 . S
C1816 H1783 0.930 . S
C1816 C1818 1.406 . S
C1816 C1821 1.261 . S
C1817 H1784 0.930 . S
C1817 N1819 1.325 . S
C1817 C1820 1.357 . S
C1818 H1786 0.928 . S
C1818 C1816 1.406 . S
C1818 N1819 1.261 . S
N1819 Co1770 2.214 . S
N1819 C1817 1.325 . S
N1819 C1818 1.261 . S
C1820 H1790 0.931 . S
C1820 C1817 1.357 . S
C1820 C1821 1.312 . S
C1821 H1792 0.930 . S
C1821 C1816 1.261 . S
C1821 C1820 1.312 . S
C1822 O1794 1.214 . S
C1822 O1802 1.234 . S
C1823 H1795 0.929 . S
C1823 C1826 1.391 . S
C1823 C1828 1.391 . S
C1824 H1796 0.929 . S
C1824 C1825 1.390 . S
C1824 N1827 1.391 . S
C1825 H1797 0.930 . S
C1825 C1824 1.390 . S
C1825 C1826 1.392 . S
C1826 H1798 0.929 . S
C1826 C1823 1.391 . S
C1826 C1825 1.392 . S
N1827 Co1771 2.257 . S
N1827 C1824 1.391 . S
N1827 C1828 1.388 . S
C1828 H1799 0.930 . S
C1828 C1823 1.391 . S
C1828 N1827 1.388 . S
Co1829 O1831 2.143 . S
Co1829 O1837 2.074 . S
Co1829 O1840 2.093 . S
Co1829 O1853 2.097 . S
Co1829 N1870 2.151 . S
Co1829 N1878 2.214 . S
Co1830 O1831 2.160 . S
Co1830 O1836 2.058 . S
Co1830 O1846 2.057 . S
Co1830 O1861 2.037 . S
Co1830 N1865 2.145 . S
Co1830 N1886 2.257 . S
O1831 Co1829 2.143 . S
O1831 Co1830 2.160 . S
C1832 O1833 1.278 . S
C1832 O1840 1.224 . S
O1833 C1832 1.278 . S
C1834 O1835 1.245 . S
C1834 O1846 1.232 . S
O1835 C1834 1.245 . S
O1836 Co1830 2.058 . S
O1836 C1862 1.269 . S
O1837 Co1829 2.074 . S
O1837 C1862 1.257 . S
H1838 C1863 0.930 . S
H1839 C1869 0.930 . S
O1840 Co1829 2.093 . S
O1840 C1832 1.224 . S
H1841 C1873 0.929 . S
H1842 C1875 0.930 . S
H1843 C1876 0.930 . S
H1844 C1874 0.929 . S
H1845 C1877 0.928 . S
O1846 Co1830 2.057 . S
O1846 C1834 1.232 . S
H1847 C1866 0.929 . S
H1848 C1867 0.929 . S
H1849 C1879 0.931 . S
H1850 C1871 0.929 . S
H1851 C1880 0.930 . S
H1852 C1872 0.931 . S
O1853 Co1829 2.097 . S
O1853 C1881 1.214 . S
H1854 C1882 0.929 . S
H1855 C1883 0.929 . S
H1856 C1884 0.930 . S
H1857 C1885 0.929 . S
H1858 C1887 0.930 . S
H1859 C1864 0.930 . S
H1860 C1868 0.930 . S
O1861 Co1830 2.037 . S
O1861 C1881 1.234 . S
C1862 O1836 1.269 . S
C1862 O1837 1.257 . S
C1863 H1838 0.930 . S
C1863 C1866 1.388 . S
C1863 C1868 1.418 . S
C1864 H1859 0.930 . S
C1864 C1867 1.404 . S
C1864 C1868 1.353 . S
N1865 Co1830 2.145 . S
N1865 C1866 1.397 . S
N1865 C1867 1.334 . S
C1866 H1847 0.929 . S
C1866 C1863 1.388 . S
C1866 N1865 1.397 . S
C1867 H1848 0.929 . S
C1867 C1864 1.404 . S
C1867 N1865 1.334 . S
C1868 H1860 0.930 . S
C1868 C1863 1.418 . S
C1868 C1864 1.353 . S
C1869 H1839 0.930 . S
C1869 N1870 1.330 . S
C1869 C1871 1.446 . S
N1870 Co1829 2.151 . S
N1870 C1869 1.330 . S
N1870 C1874 1.418 . S
C1871 H1850 0.929 . S
C1871 C1869 1.446 . S
C1871 C1872 1.332 . S
C1872 H1852 0.931 . S
C1872 C1871 1.332 . S
C1872 C1873 1.267 . S
C1873 H1841 0.929 . S
C1873 C1872 1.267 . S
C1873 C1874 1.251 . S
C1874 H1844 0.929 . S
C1874 N1870 1.418 . S
C1874 C1873 1.251 . S
C1875 H1842 0.930 . S
C1875 C1877 1.406 . S
C1875 C1880 1.261 . S
C1876 H1843 0.930 . S
C1876 N1878 1.325 . S
C1876 C1879 1.357 . S
C1877 H1845 0.928 . S
C1877 C1875 1.406 . S
C1877 N1878 1.261 . S
N1878 Co1829 2.214 . S
N1878 C1876 1.325 . S
N1878 C1877 1.261 . S
C1879 H1849 0.931 . S
C1879 C1876 1.357 . S
C1879 C1880 1.312 . S
C1880 H1851 0.930 . S
C1880 C1875 1.261 . S
C1880 C1879 1.312 . S
C1881 O1853 1.214 . S
C1881 O1861 1.234 . S
C1882 H1854 0.929 . S
C1882 C1885 1.391 . S
C1882 C1887 1.391 . S
C1883 H1855 0.929 . S
C1883 C1884 1.390 . S
C1883 N1886 1.391 . S
C1884 H1856 0.930 . S
C1884 C1883 1.390 . S
C1884 C1885 1.392 . S
C1885 H1857 0.929 . S
C1885 C1882 1.391 . S
C1885 C1884 1.392 . S
N1886 Co1830 2.257 . S
N1886 C1883 1.391 . S
N1886 C1887 1.388 . S
C1887 H1858 0.930 . S
C1887 C1882 1.391 . S
C1887 N1886 1.388 . S
Co1888 O1890 2.143 . S
Co1888 O1896 2.074 . S
Co1888 O1899 2.093 . S
Co1888 O1912 2.097 . S
Co1888 N1929 2.151 . S
Co1888 N1937 2.214 . S
Co1889 O1890 2.160 . S
Co1889 O1895 2.058 . S
Co1889 O1905 2.057 . S
Co1889 O1920 2.037 . S
Co1889 N1924 2.145 . S
Co1889 N1945 2.257 . S
O1890 Co1888 2.143 . S
O1890 Co1889 2.160 . S
C1891 O1892 1.278 . S
C1891 O1899 1.224 . S
O1892 C1891 1.278 . S
C1893 O1894 1.245 . S
C1893 O1905 1.232 . S
O1894 C1893 1.245 . S
O1895 Co1889 2.058 . S
O1895 C1921 1.269 . S
O1896 Co1888 2.074 . S
O1896 C1921 1.257 . S
H1897 C1922 0.930 . S
H1898 C1928 0.930 . S
O1899 Co1888 2.093 . S
O1899 C1891 1.224 . S
H1900 C1932 0.929 . S
H1901 C1934 0.930 . S
H1902 C1935 0.930 . S
H1903 C1933 0.929 . S
H1904 C1936 0.928 . S
O1905 Co1889 2.057 . S
O1905 C1893 1.232 . S
H1906 C1925 0.929 . S
H1907 C1926 0.929 . S
H1908 C1938 0.931 . S
H1909 C1930 0.929 . S
H1910 C1939 0.930 . S
H1911 C1931 0.931 . S
O1912 Co1888 2.097 . S
O1912 C1940 1.214 . S
H1913 C1941 0.929 . S
H1914 C1942 0.929 . S
H1915 C1943 0.930 . S
H1916 C1944 0.929 . S
H1917 C1946 0.930 . S
H1918 C1923 0.930 . S
H1919 C1927 0.930 . S
O1920 Co1889 2.037 . S
O1920 C1940 1.234 . S
C1921 O1895 1.269 . S
C1921 O1896 1.257 . S
C1922 H1897 0.930 . S
C1922 C1925 1.388 . S
C1922 C1927 1.418 . S
C1923 H1918 0.930 . S
C1923 C1926 1.404 . S
C1923 C1927 1.353 . S
N1924 Co1889 2.145 . S
N1924 C1925 1.397 . S
N1924 C1926 1.334 . S
C1925 H1906 0.929 . S
C1925 C1922 1.388 . S
C1925 N1924 1.397 . S
C1926 H1907 0.929 . S
C1926 C1923 1.404 . S
C1926 N1924 1.334 . S
C1927 H1919 0.930 . S
C1927 C1922 1.418 . S
C1927 C1923 1.353 . S
C1928 H1898 0.930 . S
C1928 N1929 1.330 . S
C1928 C1930 1.446 . S
N1929 Co1888 2.151 . S
N1929 C1928 1.330 . S
N1929 C1933 1.418 . S
C1930 H1909 0.929 . S
C1930 C1928 1.446 . S
C1930 C1931 1.332 . S
C1931 H1911 0.931 . S
C1931 C1930 1.332 . S
C1931 C1932 1.267 . S
C1932 H1900 0.929 . S
C1932 C1931 1.267 . S
C1932 C1933 1.251 . S
C1933 H1903 0.929 . S
C1933 N1929 1.418 . S
C1933 C1932 1.251 . S
C1934 H1901 0.930 . S
C1934 C1936 1.406 . S
C1934 C1939 1.261 . S
C1935 H1902 0.930 . S
C1935 N1937 1.325 . S
C1935 C1938 1.357 . S
C1936 H1904 0.928 . S
C1936 C1934 1.406 . S
C1936 N1937 1.261 . S
N1937 Co1888 2.214 . S
N1937 C1935 1.325 . S
N1937 C1936 1.261 . S
C1938 H1908 0.931 . S
C1938 C1935 1.357 . S
C1938 C1939 1.312 . S
C1939 H1910 0.930 . S
C1939 C1934 1.261 . S
C1939 C1938 1.312 . S
C1940 O1912 1.214 . S
C1940 O1920 1.234 . S
C1941 H1913 0.929 . S
C1941 C1944 1.391 . S
C1941 C1946 1.391 . S
C1942 H1914 0.929 . S
C1942 C1943 1.390 . S
C1942 N1945 1.391 . S
C1943 H1915 0.930 . S
C1943 C1942 1.390 . S
C1943 C1944 1.392 . S
C1944 H1916 0.929 . S
C1944 C1941 1.391 . S
C1944 C1943 1.392 . S
N1945 Co1889 2.257 . S
N1945 C1942 1.391 . S
N1945 C1946 1.388 . S
C1946 H1917 0.930 . S
C1946 C1941 1.391 . S
C1946 N1945 1.388 . S
Co1947 O1949 2.143 . S
Co1947 O1955 2.074 . S
Co1947 O1958 2.093 . S
Co1947 O1971 2.097 . S
Co1947 N1988 2.151 . S
Co1947 N1996 2.214 . S
Co1948 O1949 2.160 . S
Co1948 O1954 2.058 . S
Co1948 O1964 2.057 . S
Co1948 O1979 2.037 . S
Co1948 N1983 2.145 . S
Co1948 N2004 2.257 . S
O1949 Co1947 2.143 . S
O1949 Co1948 2.160 . S
C1950 O1951 1.278 . S
C1950 O1958 1.224 . S
O1951 C1950 1.278 . S
C1952 O1953 1.245 . S
C1952 O1964 1.232 . S
O1953 C1952 1.245 . S
O1954 Co1948 2.058 . S
O1954 C1980 1.269 . S
O1955 Co1947 2.074 . S
O1955 C1980 1.257 . S
H1956 C1981 0.930 . S
H1957 C1987 0.930 . S
O1958 Co1947 2.093 . S
O1958 C1950 1.224 . S
H1959 C1991 0.929 . S
H1960 C1993 0.930 . S
H1961 C1994 0.930 . S
H1962 C1992 0.929 . S
H1963 C1995 0.928 . S
O1964 Co1948 2.057 . S
O1964 C1952 1.232 . S
H1965 C1984 0.929 . S
H1966 C1985 0.929 . S
H1967 C1997 0.931 . S
H1968 C1989 0.929 . S
H1969 C1998 0.930 . S
H1970 C1990 0.931 . S
O1971 Co1947 2.097 . S
O1971 C1999 1.214 . S
H1972 C2000 0.929 . S
H1973 C2001 0.929 . S
H1974 C2002 0.930 . S
H1975 C2003 0.929 . S
H1976 C2005 0.930 . S
H1977 C1982 0.930 . S
H1978 C1986 0.930 . S
O1979 Co1948 2.037 . S
O1979 C1999 1.234 . S
C1980 O1954 1.269 . S
C1980 O1955 1.257 . S
C1981 H1956 0.930 . S
C1981 C1984 1.388 . S
C1981 C1986 1.418 . S
C1982 H1977 0.930 . S
C1982 C1985 1.404 . S
C1982 C1986 1.353 . S
N1983 Co1948 2.145 . S
N1983 C1984 1.397 . S
N1983 C1985 1.334 . S
C1984 H1965 0.929 . S
C1984 C1981 1.388 . S
C1984 N1983 1.397 . S
C1985 H1966 0.929 . S
C1985 C1982 1.404 . S
C1985 N1983 1.334 . S
C1986 H1978 0.930 . S
C1986 C1981 1.418 . S
C1986 C1982 1.353 . S
C1987 H1957 0.930 . S
C1987 N1988 1.330 . S
C1987 C1989 1.446 . S
N1988 Co1947 2.151 . S
N1988 C1987 1.330 . S
N1988 C1992 1.418 . S
C1989 H1968 0.929 . S
C1989 C1987 1.446 . S
C1989 C1990 1.332 . S
C1990 H1970 0.931 . S
C1990 C1989 1.332 . S
C1990 C1991 1.267 . S
C1991 H1959 0.929 . S
C1991 C1990 1.267 . S
C1991 C1992 1.251 . S
C1992 H1962 0.929 . S
C1992 N1988 1.418 . S
C1992 C1991 1.251 . S
C1993 H1960 0.930 . S
C1993 C1995 1.406 . S
C1993 C1998 1.261 . S
C1994 H1961 0.930 . S
C1994 N1996 1.325 . S
C1994 C1997 1.357 . S
C1995 H1963 0.928 . S
C1995 C1993 1.406 . S
C1995 N1996 1.261 . S
N1996 Co1947 2.214 . S
N1996 C1994 1.325 . S
N1996 C1995 1.261 . S
C1997 H1967 0.931 . S
C1997 C1994 1.357 . S
C1997 C1998 1.312 . S
C1998 H1969 0.930 . S
C1998 C1993 1.261 . S
C1998 C1997 1.312 . S
C1999 O1971 1.214 . S
C1999 O1979 1.234 . S
C2000 H1972 0.929 . S
C2000 C2003 1.391 . S
C2000 C2005 1.391 . S
C2001 H1973 0.929 . S
C2001 C2002 1.390 . S
C2001 N2004 1.391 . S
C2002 H1974 0.930 . S
C2002 C2001 1.390 . S
C2002 C2003 1.392 . S
C2003 H1975 0.929 . S
C2003 C2000 1.391 . S
C2003 C2002 1.392 . S
N2004 Co1948 2.257 . S
N2004 C2001 1.391 . S
N2004 C2005 1.388 . S
C2005 H1976 0.930 . S
C2005 C2000 1.391 . S
C2005 N2004 1.388 . S
Co2006 O2008 2.143 . S
Co2006 O2014 2.074 . S
Co2006 O2017 2.093 . S
Co2006 O2030 2.097 . S
Co2006 N2047 2.151 . S
Co2006 N2055 2.214 . S
Co2007 O2008 2.160 . S
Co2007 O2013 2.058 . S
Co2007 O2023 2.057 . S
Co2007 O2038 2.037 . S
Co2007 N2042 2.145 . S
Co2007 N2063 2.257 . S
O2008 Co2006 2.143 . S
O2008 Co2007 2.160 . S
C2009 O2010 1.278 . S
C2009 O2017 1.224 . S
O2010 C2009 1.278 . S
C2011 O2012 1.245 . S
C2011 O2023 1.232 . S
O2012 C2011 1.245 . S
O2013 Co2007 2.058 . S
O2013 C2039 1.269 . S
O2014 Co2006 2.074 . S
O2014 C2039 1.257 . S
H2015 C2040 0.930 . S
H2016 C2046 0.930 . S
O2017 Co2006 2.093 . S
O2017 C2009 1.224 . S
H2018 C2050 0.929 . S
H2019 C2052 0.930 . S
H2020 C2053 0.930 . S
H2021 C2051 0.929 . S
H2022 C2054 0.928 . S
O2023 Co2007 2.057 . S
O2023 C2011 1.232 . S
H2024 C2043 0.929 . S
H2025 C2044 0.929 . S
H2026 C2056 0.931 . S
H2027 C2048 0.929 . S
H2028 C2057 0.930 . S
H2029 C2049 0.931 . S
O2030 Co2006 2.097 . S
O2030 C2058 1.214 . S
H2031 C2059 0.929 . S
H2032 C2060 0.929 . S
H2033 C2061 0.930 . S
H2034 C2062 0.929 . S
H2035 C2064 0.930 . S
H2036 C2041 0.930 . S
H2037 C2045 0.930 . S
O2038 Co2007 2.037 . S
O2038 C2058 1.234 . S
C2039 O2013 1.269 . S
C2039 O2014 1.257 . S
C2040 H2015 0.930 . S
C2040 C2043 1.388 . S
C2040 C2045 1.418 . S
C2041 H2036 0.930 . S
C2041 C2044 1.404 . S
C2041 C2045 1.353 . S
N2042 Co2007 2.145 . S
N2042 C2043 1.397 . S
N2042 C2044 1.334 . S
C2043 H2024 0.929 . S
C2043 C2040 1.388 . S
C2043 N2042 1.397 . S
C2044 H2025 0.929 . S
C2044 C2041 1.404 . S
C2044 N2042 1.334 . S
C2045 H2037 0.930 . S
C2045 C2040 1.418 . S
C2045 C2041 1.353 . S
C2046 H2016 0.930 . S
C2046 N2047 1.330 . S
C2046 C2048 1.446 . S
N2047 Co2006 2.151 . S
N2047 C2046 1.330 . S
N2047 C2051 1.418 . S
C2048 H2027 0.929 . S
C2048 C2046 1.446 . S
C2048 C2049 1.332 . S
C2049 H2029 0.931 . S
C2049 C2048 1.332 . S
C2049 C2050 1.267 . S
C2050 H2018 0.929 . S
C2050 C2049 1.267 . S
C2050 C2051 1.251 . S
C2051 H2021 0.929 . S
C2051 N2047 1.418 . S
C2051 C2050 1.251 . S
C2052 H2019 0.930 . S
C2052 C2054 1.406 . S
C2052 C2057 1.261 . S
C2053 H2020 0.930 . S
C2053 N2055 1.325 . S
C2053 C2056 1.357 . S
C2054 H2022 0.928 . S
C2054 C2052 1.406 . S
C2054 N2055 1.261 . S
N2055 Co2006 2.214 . S
N2055 C2053 1.325 . S
N2055 C2054 1.261 . S
C2056 H2026 0.931 . S
C2056 C2053 1.357 . S
C2056 C2057 1.312 . S
C2057 H2028 0.930 . S
C2057 C2052 1.261 . S
C2057 C2056 1.312 . S
C2058 O2030 1.214 . S
C2058 O2038 1.234 . S
C2059 H2031 0.929 . S
C2059 C2062 1.391 . S
C2059 C2064 1.391 . S
C2060 H2032 0.929 . S
C2060 C2061 1.390 . S
C2060 N2063 1.391 . S
C2061 H2033 0.930 . S
C2061 C2060 1.390 . S
C2061 C2062 1.392 . S
C2062 H2034 0.929 . S
C2062 C2059 1.391 . S
C2062 C2061 1.392 . S
N2063 Co2007 2.257 . S
N2063 C2060 1.391 . S
N2063 C2064 1.388 . S
C2064 H2035 0.930 . S
C2064 C2059 1.391 . S
C2064 N2063 1.388 . S
Co2065 O2067 2.143 . S
Co2065 O2073 2.074 . S
Co2065 O2076 2.093 . S
Co2065 O2089 2.097 . S
Co2065 N2106 2.151 . S
Co2065 N2114 2.214 . S
Co2066 O2067 2.160 . S
Co2066 O2072 2.058 . S
Co2066 O2082 2.057 . S
Co2066 O2097 2.037 . S
Co2066 N2101 2.145 . S
Co2066 N2122 2.257 . S
O2067 Co2065 2.143 . S
O2067 Co2066 2.160 . S
C2068 O2069 1.278 . S
C2068 O2076 1.224 . S
O2069 C2068 1.278 . S
C2070 O2071 1.245 . S
C2070 O2082 1.232 . S
O2071 C2070 1.245 . S
O2072 Co2066 2.058 . S
O2072 C2098 1.269 . S
O2073 Co2065 2.074 . S
O2073 C2098 1.257 . S
H2074 C2099 0.930 . S
H2075 C2105 0.930 . S
O2076 Co2065 2.093 . S
O2076 C2068 1.224 . S
H2077 C2109 0.929 . S
H2078 C2111 0.930 . S
H2079 C2112 0.930 . S
H2080 C2110 0.929 . S
H2081 C2113 0.928 . S
O2082 Co2066 2.057 . S
O2082 C2070 1.232 . S
H2083 C2102 0.929 . S
H2084 C2103 0.929 . S
H2085 C2115 0.931 . S
H2086 C2107 0.929 . S
H2087 C2116 0.930 . S
H2088 C2108 0.931 . S
O2089 Co2065 2.097 . S
O2089 C2117 1.214 . S
H2090 C2118 0.929 . S
H2091 C2119 0.929 . S
H2092 C2120 0.930 . S
H2093 C2121 0.929 . S
H2094 C2123 0.930 . S
H2095 C2100 0.930 . S
H2096 C2104 0.930 . S
O2097 Co2066 2.037 . S
O2097 C2117 1.234 . S
C2098 O2072 1.269 . S
C2098 O2073 1.257 . S
C2099 H2074 0.930 . S
C2099 C2102 1.388 . S
C2099 C2104 1.418 . S
C2100 H2095 0.930 . S
C2100 C2103 1.404 . S
C2100 C2104 1.353 . S
N2101 Co2066 2.145 . S
N2101 C2102 1.397 . S
N2101 C2103 1.334 . S
C2102 H2083 0.929 . S
C2102 C2099 1.388 . S
C2102 N2101 1.397 . S
C2103 H2084 0.929 . S
C2103 C2100 1.404 . S
C2103 N2101 1.334 . S
C2104 H2096 0.930 . S
C2104 C2099 1.418 . S
C2104 C2100 1.353 . S
C2105 H2075 0.930 . S
C2105 N2106 1.330 . S
C2105 C2107 1.446 . S
N2106 Co2065 2.151 . S
N2106 C2105 1.330 . S
N2106 C2110 1.418 . S
C2107 H2086 0.929 . S
C2107 C2105 1.446 . S
C2107 C2108 1.332 . S
C2108 H2088 0.931 . S
C2108 C2107 1.332 . S
C2108 C2109 1.267 . S
C2109 H2077 0.929 . S
C2109 C2108 1.267 . S
C2109 C2110 1.251 . S
C2110 H2080 0.929 . S
C2110 N2106 1.418 . S
C2110 C2109 1.251 . S
C2111 H2078 0.930 . S
C2111 C2113 1.406 . S
C2111 C2116 1.261 . S
C2112 H2079 0.930 . S
C2112 N2114 1.325 . S
C2112 C2115 1.357 . S
C2113 H2081 0.928 . S
C2113 C2111 1.406 . S
C2113 N2114 1.261 . S
N2114 Co2065 2.214 . S
N2114 C2112 1.325 . S
N2114 C2113 1.261 . S
C2115 H2085 0.931 . S
C2115 C2112 1.357 . S
C2115 C2116 1.312 . S
C2116 H2087 0.930 . S
C2116 C2111 1.261 . S
C2116 C2115 1.312 . S
C2117 O2089 1.214 . S
C2117 O2097 1.234 . S
C2118 H2090 0.929 . S
C2118 C2121 1.391 . S
C2118 C2123 1.391 . S
C2119 H2091 0.929 . S
C2119 C2120 1.390 . S
C2119 N2122 1.391 . S
C2120 H2092 0.930 . S
C2120 C2119 1.390 . S
C2120 C2121 1.392 . S
C2121 H2093 0.929 . S
C2121 C2118 1.391 . S
C2121 C2120 1.392 . S
N2122 Co2066 2.257 . S
N2122 C2119 1.391 . S
N2122 C2123 1.388 . S
C2123 H2094 0.930 . S
C2123 C2118 1.391 . S
C2123 N2122 1.388 . S
C2124 C2125 1.349 . S
C2124 C2126 1.327 . S
C2124 H2149 0.950 . S
C2125 C2124 1.349 . S
C2125 C2141 1.349 . S
C2126 C2124 1.327 . S
C2126 C2145 1.429 . S
C2126 H2150 0.950 . S
C2127 C2144 1.529 1_455 S
C2127 C2146 1.368 . S
C2127 H2151 0.949 . S
H2128 C2132 0.949 . S
C2129 C2130 1.349 . S
C2129 C2131 1.327 . S
C2129 H2152 0.950 . S
C2130 C2129 1.349 . S
C2130 C2142 1.349 . S
C2131 C2129 1.327 . S
C2131 C2147 1.429 . S
C2131 H2153 0.950 . S
C2132 H2128 0.949 . S
C2132 C2140 1.574 1_655 S
C2132 C2148 1.368 . S
H2133 C2141 0.950 . S
H2134 C2139 0.950 . S
H2135 C2140 0.949 . S
H2136 C2142 0.950 . S
H2137 C2143 0.950 . S
H2138 C2144 0.962 . S
C2139 H2134 0.950 . S
C2139 C2141 1.327 . S
C2139 C2145 1.429 . S
C2140 C2132 1.574 1_455 S
C2140 H2135 0.949 . S
C2140 C2146 1.368 . S
C2141 C2125 1.349 . S
C2141 H2133 0.950 . S
C2141 C2139 1.327 . S
C2142 C2130 1.349 . S
C2142 H2136 0.950 . S
C2142 C2143 1.327 . S
C2143 H2137 0.950 . S
C2143 C2142 1.327 . S
C2143 C2147 1.429 . S
C2144 C2127 1.529 1_655 S
C2144 H2138 0.962 . S
C2144 C2148 1.400 . S
C2145 C2126 1.429 . S
C2145 C2139 1.429 . S
C2145 C2146 1.523 . S
C2146 C2127 1.368 . S
C2146 C2140 1.368 . S
C2146 C2145 1.523 . S
C2147 C2131 1.429 . S
C2147 C2143 1.429 . S
C2147 C2148 1.523 . S
C2148 C2132 1.368 . S
C2148 C2144 1.400 . S
C2148 C2147 1.523 . S
H2149 C2124 0.950 . S
H2150 C2126 0.950 . S
H2151 C2127 0.949 . S
H2152 C2129 0.950 . S
H2153 C2131 0.950 . S
C2154 C2155 1.349 . S
C2154 C2156 1.327 . S
C2154 H2179 0.950 . S
C2155 C2154 1.349 . S
C2155 C2171 1.349 . S
C2156 C2154 1.327 . S
C2156 C2175 1.429 . S
C2156 H2180 0.950 . S
C2157 C2174 1.574 . S
C2157 C2176 1.368 . S
C2157 H2181 0.949 . S
H2158 C2162 0.949 . S
C2159 C2160 1.349 . S
C2159 C2161 1.327 . S
C2159 H2182 0.950 . S
C2160 C2159 1.349 . S
C2160 C2172 1.349 . S
C2161 C2159 1.327 . S
C2161 C2177 1.429 . S
C2161 H2183 0.950 . S
C2162 H2158 0.949 . S
C2162 C2170 1.574 . S
C2162 C2178 1.368 . S
H2163 C2171 0.950 . S
H2164 C2169 0.950 . S
H2165 C2170 0.949 . S
H2166 C2172 0.950 . S
H2167 C2173 0.950 . S
H2168 C2174 0.949 . S
C2169 H2164 0.950 . S
C2169 C2171 1.327 . S
C2169 C2175 1.429 . S
C2170 C2162 1.574 . S
C2170 H2165 0.949 . S
C2170 C2176 1.368 . S
C2171 C2155 1.349 . S
C2171 H2163 0.950 . S
C2171 C2169 1.327 . S
C2172 C2160 1.349 . S
C2172 H2166 0.950 . S
C2172 C2173 1.327 . S
C2173 H2167 0.950 . S
C2173 C2172 1.327 . S
C2173 C2177 1.429 . S
C2174 C2157 1.574 . S
C2174 H2168 0.949 . S
C2174 C2178 1.368 . S
C2175 C2156 1.429 . S
C2175 C2169 1.429 . S
C2175 C2176 1.523 . S
C2176 C2157 1.368 . S
C2176 C2170 1.368 . S
C2176 C2175 1.523 . S
C2177 C2161 1.429 . S
C2177 C2173 1.429 . S
C2177 C2178 1.523 . S
C2178 C2162 1.368 . S
C2178 C2174 1.368 . S
C2178 C2177 1.523 . S
H2179 C2154 0.950 . S
H2180 C2156 0.950 . S
H2181 C2157 0.949 . S
H2182 C2159 0.950 . S
H2183 C2161 0.950 . S
C2184 C2185 1.349 . S
C2184 C2186 1.327 . S
C2184 H2209 0.950 . S
C2185 C2184 1.349 . S
C2185 C2201 1.349 . S
C2186 C2184 1.327 . S
C2186 C2205 1.429 . S
C2186 H2210 0.950 . S
C2187 C2204 1.531 1_545 S
C2187 C2206 1.400 . S
C2187 H2211 0.961 . S
H2188 C2192 0.949 . S
C2189 C2190 1.349 . S
C2189 C2191 1.327 . S
C2189 H2212 0.950 . S
C2190 C2189 1.349 . S
C2190 C2202 1.349 . S
C2191 C2189 1.327 . S
C2191 C2207 1.429 . S
C2191 H2213 0.950 . S
C2192 H2188 0.949 . S
C2192 C2200 1.574 1_565 S
C2192 C2208 1.368 . S
H2193 C2201 0.950 . S
H2194 C2199 0.950 . S
H2195 C2200 0.949 . S
H2196 C2202 0.950 . S
H2197 C2203 0.950 . S
H2198 C2204 0.949 . S
C2199 H2194 0.950 . S
C2199 C2201 1.327 . S
C2199 C2205 1.429 . S
C2200 C2192 1.574 1_545 S
C2200 H2195 0.949 . S
C2200 C2206 1.368 . S
C2201 C2185 1.349 . S
C2201 H2193 0.950 . S
C2201 C2199 1.327 . S
C2202 C2190 1.349 . S
C2202 H2196 0.950 . S
C2202 C2203 1.327 . S
C2203 H2197 0.950 . S
C2203 C2202 1.327 . S
C2203 C2207 1.429 . S
C2204 C2187 1.531 1_565 S
C2204 H2198 0.949 . S
C2204 C2208 1.368 . S
C2205 C2186 1.429 . S
C2205 C2199 1.429 . S
C2205 C2206 1.523 . S
C2206 C2187 1.400 . S
C2206 C2200 1.368 . S
C2206 C2205 1.523 . S
C2207 C2191 1.429 . S
C2207 C2203 1.429 . S
C2207 C2208 1.523 . S
C2208 C2192 1.368 . S
C2208 C2204 1.368 . S
C2208 C2207 1.523 . S
H2209 C2184 0.950 . S
H2210 C2186 0.950 . S
H2211 C2187 0.961 . S
H2212 C2189 0.950 . S
H2213 C2191 0.950 . S
C2214 C2215 1.349 . S
C2214 C2216 1.327 . S
C2214 H2239 0.950 . S
C2215 C2214 1.349 . S
C2215 C2231 1.349 . S
C2216 C2214 1.327 . S
C2216 C2235 1.429 . S
C2216 H2240 0.950 . S
C2217 C2234 1.574 1_545 S
C2217 C2236 1.368 . S
C2217 H2241 0.949 . S
H2218 C2222 0.949 . S
C2219 C2220 1.349 . S
C2219 C2221 1.327 . S
C2219 H2242 0.950 . S
C2220 C2219 1.349 . S
C2220 C2232 1.349 . S
C2221 C2219 1.327 . S
C2221 C2237 1.429 . S
C2221 H2243 0.950 . S
C2222 H2218 0.949 . S
C2222 C2230 1.574 1_565 S
C2222 C2238 1.368 . S
H2223 C2231 0.950 . S
H2224 C2229 0.950 . S
H2225 C2230 0.949 . S
H2226 C2232 0.950 . S
H2227 C2233 0.950 . S
H2228 C2234 0.949 . S
C2229 H2224 0.950 . S
C2229 C2231 1.327 . S
C2229 C2235 1.429 . S
C2230 C2222 1.574 1_545 S
C2230 H2225 0.949 . S
C2230 C2236 1.368 . S
C2231 C2215 1.349 . S
C2231 H2223 0.950 . S
C2231 C2229 1.327 . S
C2232 C2220 1.349 . S
C2232 H2226 0.950 . S
C2232 C2233 1.327 . S
C2233 H2227 0.950 . S
C2233 C2232 1.327 . S
C2233 C2237 1.429 . S
C2234 C2217 1.574 1_565 S
C2234 H2228 0.949 . S
C2234 C2238 1.368 . S
C2235 C2216 1.429 . S
C2235 C2229 1.429 . S
C2235 C2236 1.523 . S
C2236 C2217 1.368 . S
C2236 C2230 1.368 . S
C2236 C2235 1.523 . S
C2237 C2221 1.429 . S
C2237 C2233 1.429 . S
C2237 C2238 1.523 . S
C2238 C2222 1.368 . S
C2238 C2234 1.368 . S
C2238 C2237 1.523 . S
H2239 C2214 0.950 . S
H2240 C2216 0.950 . S
H2241 C2217 0.949 . S
H2242 C2219 0.950 . S
H2243 C2221 0.950 . S
C2244 C2245 1.349 . S
C2244 C2246 1.327 . S
C2244 H2269 0.950 . S
C2245 C2244 1.349 . S
C2245 C2261 1.349 . S
C2246 C2244 1.327 . S
C2246 C2265 1.429 . S
C2246 H2270 0.950 . S
C2247 C2264 1.574 1_655 S
C2247 C2266 1.368 . S
C2247 H2271 0.949 . S
H2248 C2252 0.949 . S
C2249 C2250 1.349 . S
C2249 C2251 1.327 . S
C2249 H2272 0.950 . S
C2250 C2249 1.349 . S
C2250 C2262 1.349 . S
C2251 C2249 1.327 . S
C2251 C2267 1.429 . S
C2251 H2273 0.950 . S
C2252 H2248 0.949 . S
C2252 C2260 1.574 1_455 S
C2252 C2268 1.368 . S
H2253 C2261 0.950 . S
H2254 C2259 0.950 . S
H2255 C2260 0.949 . S
H2256 C2262 0.950 . S
H2257 C2263 0.950 . S
H2258 C2264 0.949 . S
C2259 H2254 0.950 . S
C2259 C2261 1.327 . S
C2259 C2265 1.429 . S
C2260 C2252 1.574 1_655 S
C2260 H2255 0.949 . S
C2260 C2266 1.368 . S
C2261 C2245 1.349 . S
C2261 H2253 0.950 . S
C2261 C2259 1.327 . S
C2262 C2250 1.349 . S
C2262 H2256 0.950 . S
C2262 C2263 1.327 . S
C2263 H2257 0.950 . S
C2263 C2262 1.327 . S
C2263 C2267 1.429 . S
C2264 C2247 1.574 1_455 S
C2264 H2258 0.949 . S
C2264 C2268 1.368 . S
C2265 C2246 1.429 . S
C2265 C2259 1.429 . S
C2265 C2266 1.523 . S
C2266 C2247 1.368 . S
C2266 C2260 1.368 . S
C2266 C2265 1.523 . S
C2267 C2251 1.429 . S
C2267 C2263 1.429 . S
C2267 C2268 1.523 . S
C2268 C2252 1.368 . S
C2268 C2264 1.368 . S
C2268 C2267 1.523 . S
H2269 C2244 0.950 . S
H2270 C2246 0.950 . S
H2271 C2247 0.949 . S
H2272 C2249 0.950 . S
H2273 C2251 0.950 . S
C2274 C2275 1.349 . S
C2274 C2276 1.327 . S
C2274 H2299 0.950 . S
C2275 C2274 1.349 . S
C2275 C2291 1.349 . S
C2276 C2274 1.327 . S
C2276 C2295 1.429 . S
C2276 H2300 0.950 . S
C2277 C2294 1.574 . S
C2277 C2296 1.368 . S
C2277 H2301 0.949 . S
H2278 C2282 0.949 . S
C2279 C2280 1.349 . S
C2279 C2281 1.327 . S
C2279 H2302 0.950 . S
C2280 C2279 1.349 . S
C2280 C2292 1.349 . S
C2281 C2279 1.327 . S
C2281 C2297 1.429 . S
C2281 H2303 0.950 . S
C2282 H2278 0.949 . S
C2282 C2290 1.574 . S
C2282 C2298 1.368 . S
H2283 C2291 0.950 . S
H2284 C2289 0.950 . S
H2285 C2290 0.949 . S
H2286 C2292 0.950 . S
H2287 C2293 0.950 . S
H2288 C2294 0.949 . S
C2289 H2284 0.950 . S
C2289 C2291 1.327 . S
C2289 C2295 1.429 . S
C2290 C2282 1.574 . S
C2290 H2285 0.949 . S
C2290 C2296 1.368 . S
C2291 C2275 1.349 . S
C2291 H2283 0.950 . S
C2291 C2289 1.327 . S
C2292 C2280 1.349 . S
C2292 H2286 0.950 . S
C2292 C2293 1.327 . S
C2293 H2287 0.950 . S
C2293 C2292 1.327 . S
C2293 C2297 1.429 . S
C2294 C2277 1.574 . S
C2294 H2288 0.949 . S
C2294 C2298 1.368 . S
C2295 C2276 1.429 . S
C2295 C2289 1.429 . S
C2295 C2296 1.523 . S
C2296 C2277 1.368 . S
C2296 C2290 1.368 . S
C2296 C2295 1.523 . S
C2297 C2281 1.429 . S
C2297 C2293 1.429 . S
C2297 C2298 1.523 . S
C2298 C2282 1.368 . S
C2298 C2294 1.368 . S
C2298 C2297 1.523 . S
H2299 C2274 0.950 . S
H2300 C2276 0.950 . S
H2301 C2277 0.949 . S
H2302 C2279 0.950 . S
H2303 C2281 0.950 . S
C2304 C2305 1.349 . S
C2304 C2306 1.327 . S
C2304 H2329 0.950 . S
C2305 C2304 1.349 . S
C2305 C2321 1.349 . S
C2306 C2304 1.327 . S
C2306 C2325 1.429 . S
C2306 H2330 0.950 . S
C2307 C2324 1.545 1_655 S
C2307 C2326 1.368 . S
C2307 H2331 0.949 . S
H2308 C2312 0.949 . S
C2309 C2310 1.349 . S
C2309 C2311 1.327 . S
C2309 H2332 0.950 . S
C2310 C2309 1.349 . S
C2310 C2322 1.349 . S
C2311 C2309 1.327 . S
C2311 C2327 1.429 . S
C2311 H2333 0.950 . S
C2312 H2308 0.949 . S
C2312 C2320 1.574 1_455 S
C2312 C2328 1.368 . S
H2313 C2321 0.950 . S
H2314 C2319 0.950 . S
H2315 C2320 0.949 . S
H2316 C2322 0.950 . S
H2317 C2323 0.950 . S
H2318 C2324 0.974 . S
C2319 H2314 0.950 . S
C2319 C2321 1.327 . S
C2319 C2325 1.429 . S
C2320 C2312 1.574 1_655 S
C2320 H2315 0.949 . S
C2320 C2326 1.368 . S
C2321 C2305 1.349 . S
C2321 H2313 0.950 . S
C2321 C2319 1.327 . S
C2322 C2310 1.349 . S
C2322 H2316 0.950 . S
C2322 C2323 1.327 . S
C2323 H2317 0.950 . S
C2323 C2322 1.327 . S
C2323 C2327 1.429 . S
C2324 C2307 1.545 1_455 S
C2324 H2318 0.974 . S
C2324 C2328 1.371 . S
C2325 C2306 1.429 . S
C2325 C2319 1.429 . S
C2325 C2326 1.523 . S
C2326 C2307 1.368 . S
C2326 C2320 1.368 . S
C2326 C2325 1.523 . S
C2327 C2311 1.429 . S
C2327 C2323 1.429 . S
C2327 C2328 1.523 . S
C2328 C2312 1.368 . S
C2328 C2324 1.371 . S
C2328 C2327 1.523 . S
H2329 C2304 0.950 . S
H2330 C2306 0.950 . S
H2331 C2307 0.949 . S
H2332 C2309 0.950 . S
H2333 C2311 0.950 . S
C2334 C2335 1.349 . S
C2334 C2336 1.327 . S
C2334 H2359 0.950 . S
C2335 C2334 1.349 . S
C2335 C2351 1.349 . S
C2336 C2334 1.327 . S
C2336 C2355 1.429 . S
C2336 H2360 0.950 . S
C2337 C2354 1.574 . S
C2337 C2356 1.368 . S
C2337 H2361 0.949 . S
H2338 C2342 0.949 . S
C2339 C2340 1.349 . S
C2339 C2341 1.327 . S
C2339 H2362 0.950 . S
C2340 C2339 1.349 . S
C2340 C2352 1.349 . S
C2341 C2339 1.327 . S
C2341 C2357 1.429 . S
C2341 H2363 0.950 . S
C2342 H2338 0.949 . S
C2342 C2350 1.574 . S
C2342 C2358 1.368 . S
H2343 C2351 0.950 . S
H2344 C2349 0.950 . S
H2345 C2350 0.949 . S
H2346 C2352 0.950 . S
H2347 C2353 0.950 . S
H2348 C2354 0.949 . S
C2349 H2344 0.950 . S
C2349 C2351 1.327 . S
C2349 C2355 1.429 . S
C2350 C2342 1.574 . S
C2350 H2345 0.949 . S
C2350 C2356 1.368 . S
C2351 C2335 1.349 . S
C2351 H2343 0.950 . S
C2351 C2349 1.327 . S
C2352 C2340 1.349 . S
C2352 H2346 0.950 . S
C2352 C2353 1.327 . S
C2353 H2347 0.950 . S
C2353 C2352 1.327 . S
C2353 C2357 1.429 . S
C2354 C2337 1.574 . S
C2354 H2348 0.949 . S
C2354 C2358 1.368 . S
C2355 C2336 1.429 . S
C2355 C2349 1.429 . S
C2355 C2356 1.523 . S
C2356 C2337 1.368 . S
C2356 C2350 1.368 . S
C2356 C2355 1.523 . S
C2357 C2341 1.429 . S
C2357 C2353 1.429 . S
C2357 C2358 1.523 . S
C2358 C2342 1.368 . S
C2358 C2354 1.368 . S
C2358 C2357 1.523 . S
H2359 C2334 0.950 . S
H2360 C2336 0.950 . S
H2361 C2337 0.949 . S
H2362 C2339 0.950 . S
H2363 C2341 0.950 . S
C2364 C2365 1.349 . S
C2364 C2366 1.327 . S
C2364 H2389 0.950 . S
C2365 C2364 1.349 . S
C2365 C2381 1.349 . S
C2366 C2364 1.327 . S
C2366 C2385 1.429 . S
C2366 H2390 0.950 . S
C2367 C2384 1.574 1_565 S
C2367 C2386 1.368 . S
C2367 H2391 0.949 . S
H2368 C2372 0.949 . S
C2369 C2370 1.349 . S
C2369 C2371 1.327 . S
C2369 H2392 0.950 . S
C2370 C2369 1.349 . S
C2370 C2382 1.349 . S
C2371 C2369 1.327 . S
C2371 C2387 1.429 . S
C2371 H2393 0.950 . S
C2372 H2368 0.949 . S
C2372 C2380 1.574 1_545 S
C2372 C2388 1.368 . S
H2373 C2381 0.950 . S
H2374 C2379 0.950 . S
H2375 C2380 0.949 . S
H2376 C2382 0.950 . S
H2377 C2383 0.950 . S
H2378 C2384 0.949 . S
C2379 H2374 0.950 . S
C2379 C2381 1.327 . S
C2379 C2385 1.429 . S
C2380 C2372 1.574 1_565 S
C2380 H2375 0.949 . S
C2380 C2386 1.368 . S
C2381 C2365 1.349 . S
C2381 H2373 0.950 . S
C2381 C2379 1.327 . S
C2382 C2370 1.349 . S
C2382 H2376 0.950 . S
C2382 C2383 1.327 . S
C2383 H2377 0.950 . S
C2383 C2382 1.327 . S
C2383 C2387 1.429 . S
C2384 C2367 1.574 1_545 S
C2384 H2378 0.949 . S
C2384 C2388 1.368 . S
C2385 C2366 1.429 . S
C2385 C2379 1.429 . S
C2385 C2386 1.523 . S
C2386 C2367 1.368 . S
C2386 C2380 1.368 . S
C2386 C2385 1.523 . S
C2387 C2371 1.429 . S
C2387 C2383 1.429 . S
C2387 C2388 1.523 . S
C2388 C2372 1.368 . S
C2388 C2384 1.368 . S
C2388 C2387 1.523 . S
H2389 C2364 0.950 . S
H2390 C2366 0.950 . S
H2391 C2367 0.949 . S
H2392 C2369 0.950 . S
H2393 C2371 0.950 . S
C2394 C2395 1.349 . S
C2394 C2396 1.327 . S
C2394 H2419 0.950 . S
C2395 C2394 1.349 . S
C2395 C2411 1.349 . S
C2396 C2394 1.327 . S
C2396 C2415 1.429 . S
C2396 H2420 0.950 . S
C2397 C2414 1.574 1_545 S
C2397 C2416 1.368 . S
C2397 H2421 0.949 . S
H2398 C2402 0.949 . S
C2399 C2400 1.349 . S
C2399 C2401 1.327 . S
C2399 H2422 0.950 . S
C2400 C2399 1.349 . S
C2400 C2412 1.349 . S
C2401 C2399 1.327 . S
C2401 C2417 1.429 . S
C2401 H2423 0.950 . S
C2402 H2398 0.949 . S
C2402 C2410 1.574 1_565 S
C2402 C2418 1.368 . S
H2403 C2411 0.950 . S
H2404 C2409 0.950 . S
H2405 C2410 0.949 . S
H2406 C2412 0.950 . S
H2407 C2413 0.950 . S
H2408 C2414 0.949 . S
C2409 H2404 0.950 . S
C2409 C2411 1.327 . S
C2409 C2415 1.429 . S
C2410 C2402 1.574 1_545 S
C2410 H2405 0.949 . S
C2410 C2416 1.368 . S
C2411 C2395 1.349 . S
C2411 H2403 0.950 . S
C2411 C2409 1.327 . S
C2412 C2400 1.349 . S
C2412 H2406 0.950 . S
C2412 C2413 1.327 . S
C2413 H2407 0.950 . S
C2413 C2412 1.327 . S
C2413 C2417 1.429 . S
C2414 C2397 1.574 1_565 S
C2414 H2408 0.949 . S
C2414 C2418 1.368 . S
C2415 C2396 1.429 . S
C2415 C2409 1.429 . S
C2415 C2416 1.523 . S
C2416 C2397 1.368 . S
C2416 C2410 1.368 . S
C2416 C2415 1.523 . S
C2417 C2401 1.429 . S
C2417 C2413 1.429 . S
C2417 C2418 1.523 . S
C2418 C2402 1.368 . S
C2418 C2414 1.368 . S
C2418 C2417 1.523 . S
H2419 C2394 0.950 . S
H2420 C2396 0.950 . S
H2421 C2397 0.949 . S
H2422 C2399 0.950 . S
H2423 C2401 0.950 . S
C2424 C2425 1.349 . S
C2424 C2426 1.327 . S
C2424 H2449 0.950 . S
C2425 C2424 1.349 . S
C2425 C2441 1.349 . S
C2426 C2424 1.327 . S
C2426 C2445 1.429 . S
C2426 H2450 0.950 . S
C2427 C2444 1.532 1_455 S
C2427 C2446 1.368 . S
C2427 H2451 0.949 . S
H2428 C2432 0.949 . S
C2429 C2430 1.349 . S
C2429 C2431 1.327 . S
C2429 H2452 0.950 . S
C2430 C2429 1.349 . S
C2430 C2442 1.349 . S
C2431 C2429 1.327 . S
C2431 C2447 1.429 . S
C2431 H2453 0.950 . S
C2432 H2428 0.949 . S
C2432 C2440 1.574 1_655 S
C2432 C2448 1.368 . S
H2433 C2441 0.950 . S
H2434 C2439 0.950 . S
H2435 C2440 0.949 . S
H2436 C2442 0.950 . S
H2437 C2443 0.950 . S
H2438 C2444 0.960 . S
C2439 H2434 0.950 . S
C2439 C2441 1.327 . S
C2439 C2445 1.429 . S
C2440 C2432 1.574 1_455 S
C2440 H2435 0.949 . S
C2440 C2446 1.368 . S
C2441 C2425 1.349 . S
C2441 H2433 0.950 . S
C2441 C2439 1.327 . S
C2442 C2430 1.349 . S
C2442 H2436 0.950 . S
C2442 C2443 1.327 . S
C2443 H2437 0.950 . S
C2443 C2442 1.327 . S
C2443 C2447 1.429 . S
C2444 C2427 1.532 1_655 S
C2444 H2438 0.960 . S
C2444 C2448 1.400 . S
C2445 C2426 1.429 . S
C2445 C2439 1.429 . S
C2445 C2446 1.523 . S
C2446 C2427 1.368 . S
C2446 C2440 1.368 . S
C2446 C2445 1.523 . S
C2447 C2431 1.429 . S
C2447 C2443 1.429 . S
C2447 C2448 1.523 . S
C2448 C2432 1.368 . S
C2448 C2444 1.400 . S
C2448 C2447 1.523 . S
H2449 C2424 0.950 . S
H2450 C2426 0.950 . S
H2451 C2427 0.949 . S
H2452 C2429 0.950 . S
H2453 C2431 0.950 . S
C2454 C2455 1.349 . S
C2454 C2456 1.327 . S
C2454 H2479 0.950 . S
C2455 C2454 1.349 . S
C2455 C2471 1.349 . S
C2456 C2454 1.327 . S
C2456 C2475 1.429 . S
C2456 H2480 0.950 . S
C2457 C2474 1.574 . S
C2457 C2476 1.368 . S
C2457 H2481 0.949 . S
H2458 C2462 0.949 . S
C2459 C2460 1.349 . S
C2459 C2461 1.327 . S
C2459 H2482 0.950 . S
C2460 C2459 1.349 . S
C2460 C2472 1.349 . S
C2461 C2459 1.327 . S
C2461 C2477 1.429 . S
C2461 H2483 0.950 . S
C2462 H2458 0.949 . S
C2462 C2470 1.574 . S
C2462 C2478 1.368 . S
H2463 C2471 0.950 . S
H2464 C2469 0.950 . S
H2465 C2470 0.949 . S
H2466 C2472 0.950 . S
H2467 C2473 0.950 . S
H2468 C2474 0.949 . S
C2469 H2464 0.950 . S
C2469 C2471 1.327 . S
C2469 C2475 1.429 . S
C2470 C2462 1.574 . S
C2470 H2465 0.949 . S
C2470 C2476 1.368 . S
C2471 C2455 1.349 . S
C2471 H2463 0.950 . S
C2471 C2469 1.327 . S
C2472 C2460 1.349 . S
C2472 H2466 0.950 . S
C2472 C2473 1.327 . S
C2473 H2467 0.950 . S
C2473 C2472 1.327 . S
C2473 C2477 1.429 . S
C2474 C2457 1.574 . S
C2474 H2468 0.949 . S
C2474 C2478 1.368 . S
C2475 C2456 1.429 . S
C2475 C2469 1.429 . S
C2475 C2476 1.523 . S
C2476 C2457 1.368 . S
C2476 C2470 1.368 . S
C2476 C2475 1.523 . S
C2477 C2461 1.429 . S
C2477 C2473 1.429 . S
C2477 C2478 1.523 . S
C2478 C2462 1.368 . S
C2478 C2474 1.368 . S
C2478 C2477 1.523 . S
H2479 C2454 0.950 . S
H2480 C2456 0.950 . S
H2481 C2457 0.949 . S
H2482 C2459 0.950 . S
H2483 C2461 0.950 . S
C2484 C2485 1.349 . S
C2484 C2486 1.327 . S
C2484 H2509 0.950 . S
C2485 C2484 1.349 . S
C2485 C2501 1.349 . S
C2486 C2484 1.327 . S
C2486 C2505 1.429 . S
C2486 H2510 0.950 . S
C2487 C2504 1.574 . S
C2487 C2506 1.368 . S
C2487 H2511 0.949 . S
H2488 C2492 0.949 . S
C2489 C2490 1.349 . S
C2489 C2491 1.327 . S
C2489 H2512 0.950 . S
C2490 C2489 1.349 . S
C2490 C2502 1.349 . S
C2491 C2489 1.327 . S
C2491 C2507 1.429 . S
C2491 H2513 0.950 . S
C2492 H2488 0.949 . S
C2492 C2500 1.574 . S
C2492 C2508 1.368 . S
H2493 C2501 0.950 . S
H2494 C2499 0.950 . S
H2495 C2500 0.949 . S
H2496 C2502 0.950 . S
H2497 C2503 0.950 . S
H2498 C2504 0.949 . S
C2499 H2494 0.950 . S
C2499 C2501 1.327 . S
C2499 C2505 1.429 . S
C2500 C2492 1.574 . S
C2500 H2495 0.949 . S
C2500 C2506 1.368 . S
C2501 C2485 1.349 . S
C2501 H2493 0.950 . S
C2501 C2499 1.327 . S
C2502 C2490 1.349 . S
C2502 H2496 0.950 . S
C2502 C2503 1.327 . S
C2503 H2497 0.950 . S
C2503 C2502 1.327 . S
C2503 C2507 1.429 . S
C2504 C2487 1.574 . S
C2504 H2498 0.949 . S
C2504 C2508 1.368 . S
C2505 C2486 1.429 . S
C2505 C2499 1.429 . S
C2505 C2506 1.523 . S
C2506 C2487 1.368 . S
C2506 C2500 1.368 . S
C2506 C2505 1.523 . S
C2507 C2491 1.429 . S
C2507 C2503 1.429 . S
C2507 C2508 1.523 . S
C2508 C2492 1.368 . S
C2508 C2504 1.368 . S
C2508 C2507 1.523 . S
H2509 C2484 0.950 . S
H2510 C2486 0.950 . S
H2511 C2487 0.949 . S
H2512 C2489 0.950 . S
H2513 C2491 0.950 . S
C2514 C2515 1.349 . S
C2514 C2516 1.327 . S
C2514 H2539 0.950 . S
C2515 C2514 1.349 . S
C2515 C2531 1.349 . S
C2516 C2514 1.327 . S
C2516 C2535 1.429 . S
C2516 H2540 0.950 . S
C2517 C2534 1.574 . S
C2517 C2536 1.368 . S
C2517 H2541 0.949 . S
H2518 C2522 0.949 . S
C2519 C2520 1.349 . S
C2519 C2521 1.327 . S
C2519 H2542 0.950 . S
C2520 C2519 1.349 . S
C2520 C2532 1.349 . S
C2521 C2519 1.327 . S
C2521 C2537 1.429 . S
C2521 H2543 0.950 . S
C2522 H2518 0.949 . S
C2522 C2530 1.574 . S
C2522 C2538 1.368 . S
H2523 C2531 0.950 . S
H2524 C2529 0.950 . S
H2525 C2530 0.949 . S
H2526 C2532 0.950 . S
H2527 C2533 0.950 . S
H2528 C2534 0.949 . S
C2529 H2524 0.950 . S
C2529 C2531 1.327 . S
C2529 C2535 1.429 . S
C2530 C2522 1.574 . S
C2530 H2525 0.949 . S
C2530 C2536 1.368 . S
C2531 C2515 1.349 . S
C2531 H2523 0.950 . S
C2531 C2529 1.327 . S
C2532 C2520 1.349 . S
C2532 H2526 0.950 . S
C2532 C2533 1.327 . S
C2533 H2527 0.950 . S
C2533 C2532 1.327 . S
C2533 C2537 1.429 . S
C2534 C2517 1.574 . S
C2534 H2528 0.949 . S
C2534 C2538 1.368 . S
C2535 C2516 1.429 . S
C2535 C2529 1.429 . S
C2535 C2536 1.523 . S
C2536 C2517 1.368 . S
C2536 C2530 1.368 . S
C2536 C2535 1.523 . S
C2537 C2521 1.429 . S
C2537 C2533 1.429 . S
C2537 C2538 1.523 . S
C2538 C2522 1.368 . S
C2538 C2534 1.368 . S
C2538 C2537 1.523 . S
H2539 C2514 0.950 . S
H2540 C2516 0.950 . S
H2541 C2517 0.949 . S
H2542 C2519 0.950 . S
H2543 C2521 0.950 . S
C2544 C2545 1.349 . S
C2544 C2546 1.327 . S
C2544 H2569 0.950 . S
C2545 C2544 1.349 . S
C2545 C2561 1.349 . S
C2546 C2544 1.327 . S
C2546 C2565 1.429 . S
C2546 H2570 0.950 . S
C2547 C2564 1.574 . S
C2547 C2566 1.368 . S
C2547 H2571 0.949 . S
H2548 C2552 0.949 . S
C2549 C2550 1.349 . S
C2549 C2551 1.327 . S
C2549 H2572 0.950 . S
C2550 C2549 1.349 . S
C2550 C2562 1.349 . S
C2551 C2549 1.327 . S
C2551 C2567 1.429 . S
C2551 H2573 0.950 . S
C2552 H2548 0.949 . S
C2552 C2560 1.574 . S
C2552 C2568 1.368 . S
H2553 C2561 0.950 . S
H2554 C2559 0.950 . S
H2555 C2560 0.949 . S
H2556 C2562 0.950 . S
H2557 C2563 0.950 . S
H2558 C2564 0.949 . S
C2559 H2554 0.950 . S
C2559 C2561 1.327 . S
C2559 C2565 1.429 . S
C2560 C2552 1.574 . S
C2560 H2555 0.949 . S
C2560 C2566 1.368 . S
C2561 C2545 1.349 . S
C2561 H2553 0.950 . S
C2561 C2559 1.327 . S
C2562 C2550 1.349 . S
C2562 H2556 0.950 . S
C2562 C2563 1.327 . S
C2563 H2557 0.950 . S
C2563 C2562 1.327 . S
C2563 C2567 1.429 . S
C2564 C2547 1.574 . S
C2564 H2558 0.949 . S
C2564 C2568 1.368 . S
C2565 C2546 1.429 . S
C2565 C2559 1.429 . S
C2565 C2566 1.523 . S
C2566 C2547 1.368 . S
C2566 C2560 1.368 . S
C2566 C2565 1.523 . S
C2567 C2551 1.429 . S
C2567 C2563 1.429 . S
C2567 C2568 1.523 . S
C2568 C2552 1.368 . S
C2568 C2564 1.368 . S
C2568 C2567 1.523 . S
H2569 C2544 0.950 . S
H2570 C2546 0.950 . S
H2571 C2547 0.949 . S
H2572 C2549 0.950 . S
H2573 C2551 0.950 . S
C2574 C2575 1.349 . S
C2574 C2576 1.327 . S
C2574 H2599 0.950 . S
C2575 C2574 1.349 . S
C2575 C2591 1.349 . S
C2576 C2574 1.327 . S
C2576 C2595 1.429 . S
C2576 H2600 0.950 . S
C2577 C2594 1.574 . S
C2577 C2596 1.368 . S
C2577 H2601 0.949 . S
H2578 C2582 0.949 . S
C2579 C2580 1.349 . S
C2579 C2581 1.327 . S
C2579 H2602 0.950 . S
C2580 C2579 1.349 . S
C2580 C2592 1.349 . S
C2581 C2579 1.327 . S
C2581 C2597 1.429 . S
C2581 H2603 0.950 . S
C2582 H2578 0.949 . S
C2582 C2590 1.574 . S
C2582 C2598 1.368 . S
H2583 C2591 0.950 . S
H2584 C2589 0.950 . S
H2585 C2590 0.949 . S
H2586 C2592 0.950 . S
H2587 C2593 0.950 . S
H2588 C2594 0.949 . S
C2589 H2584 0.950 . S
C2589 C2591 1.327 . S
C2589 C2595 1.429 . S
C2590 C2582 1.574 . S
C2590 H2585 0.949 . S
C2590 C2596 1.368 . S
C2591 C2575 1.349 . S
C2591 H2583 0.950 . S
C2591 C2589 1.327 . S
C2592 C2580 1.349 . S
C2592 H2586 0.950 . S
C2592 C2593 1.327 . S
C2593 H2587 0.950 . S
C2593 C2592 1.327 . S
C2593 C2597 1.429 . S
C2594 C2577 1.574 . S
C2594 H2588 0.949 . S
C2594 C2598 1.368 . S
C2595 C2576 1.429 . S
C2595 C2589 1.429 . S
C2595 C2596 1.523 . S
C2596 C2577 1.368 . S
C2596 C2590 1.368 . S
C2596 C2595 1.523 . S
C2597 C2581 1.429 . S
C2597 C2593 1.429 . S
C2597 C2598 1.523 . S
C2598 C2582 1.368 . S
C2598 C2594 1.368 . S
C2598 C2597 1.523 . S
H2599 C2574 0.950 . S
H2600 C2576 0.950 . S
H2601 C2577 0.949 . S
H2602 C2579 0.950 . S
H2603 C2581 0.950 . S
C2604 C2605 1.349 . S
C2604 C2606 1.327 . S
C2604 H2629 0.950 . S
C2605 C2604 1.349 . S
C2605 C2621 1.349 . S
C2606 C2604 1.327 . S
C2606 C2625 1.429 . S
C2606 H2630 0.950 . S
C2607 C2624 1.574 . S
C2607 C2626 1.368 . S
C2607 H2631 0.949 . S
H2608 C2612 0.949 . S
C2609 C2610 1.349 . S
C2609 C2611 1.327 . S
C2609 H2632 0.950 . S
C2610 C2609 1.349 . S
C2610 C2622 1.349 . S
C2611 C2609 1.327 . S
C2611 C2627 1.429 . S
C2611 H2633 0.950 . S
C2612 H2608 0.949 . S
C2612 C2620 1.574 . S
C2612 C2628 1.368 . S
H2613 C2621 0.950 . S
H2614 C2619 0.950 . S
H2615 C2620 0.949 . S
H2616 C2622 0.950 . S
H2617 C2623 0.950 . S
H2618 C2624 0.949 . S
C2619 H2614 0.950 . S
C2619 C2621 1.327 . S
C2619 C2625 1.429 . S
C2620 C2612 1.574 . S
C2620 H2615 0.949 . S
C2620 C2626 1.368 . S
C2621 C2605 1.349 . S
C2621 H2613 0.950 . S
C2621 C2619 1.327 . S
C2622 C2610 1.349 . S
C2622 H2616 0.950 . S
C2622 C2623 1.327 . S
C2623 H2617 0.950 . S
C2623 C2622 1.327 . S
C2623 C2627 1.429 . S
C2624 C2607 1.574 . S
C2624 H2618 0.949 . S
C2624 C2628 1.368 . S
C2625 C2606 1.429 . S
C2625 C2619 1.429 . S
C2625 C2626 1.523 . S
C2626 C2607 1.368 . S
C2626 C2620 1.368 . S
C2626 C2625 1.523 . S
C2627 C2611 1.429 . S
C2627 C2623 1.429 . S
C2627 C2628 1.523 . S
C2628 C2612 1.368 . S
C2628 C2624 1.368 . S
C2628 C2627 1.523 . S
H2629 C2604 0.950 . S
H2630 C2606 0.950 . S
H2631 C2607 0.949 . S
H2632 C2609 0.950 . S
H2633 C2611 0.950 . S
C2634 C2635 1.349 . S
C2634 C2636 1.327 . S
C2634 H2659 0.950 . S
C2635 C2634 1.349 . S
C2635 C2651 1.349 . S
C2636 C2634 1.327 . S
C2636 C2655 1.429 . S
C2636 H2660 0.950 . S
C2637 C2654 1.574 . S
C2637 C2656 1.368 . S
C2637 H2661 0.949 . S
H2638 C2642 0.949 . S
C2639 C2640 1.349 . S
C2639 C2641 1.327 . S
C2639 H2662 0.950 . S
C2640 C2639 1.349 . S
C2640 C2652 1.349 . S
C2641 C2639 1.327 . S
C2641 C2657 1.429 . S
C2641 H2663 0.950 . S
C2642 H2638 0.949 . S
C2642 C2650 1.574 . S
C2642 C2658 1.368 . S
H2643 C2651 0.950 . S
H2644 C2649 0.950 . S
H2645 C2650 0.949 . S
H2646 C2652 0.950 . S
H2647 C2653 0.950 . S
H2648 C2654 0.949 . S
C2649 H2644 0.950 . S
C2649 C2651 1.327 . S
C2649 C2655 1.429 . S
C2650 C2642 1.574 . S
C2650 H2645 0.949 . S
C2650 C2656 1.368 . S
C2651 C2635 1.349 . S
C2651 H2643 0.950 . S
C2651 C2649 1.327 . S
C2652 C2640 1.349 . S
C2652 H2646 0.950 . S
C2652 C2653 1.327 . S
C2653 H2647 0.950 . S
C2653 C2652 1.327 . S
C2653 C2657 1.429 . S
C2654 C2637 1.574 . S
C2654 H2648 0.949 . S
C2654 C2658 1.368 . S
C2655 C2636 1.429 . S
C2655 C2649 1.429 . S
C2655 C2656 1.523 . S
C2656 C2637 1.368 . S
C2656 C2650 1.368 . S
C2656 C2655 1.523 . S
C2657 C2641 1.429 . S
C2657 C2653 1.429 . S
C2657 C2658 1.523 . S
C2658 C2642 1.368 . S
C2658 C2654 1.368 . S
C2658 C2657 1.523 . S
H2659 C2634 0.950 . S
H2660 C2636 0.950 . S
H2661 C2637 0.949 . S
H2662 C2639 0.950 . S
H2663 C2641 0.950 . S
C2664 C2665 1.349 . S
C2664 C2666 1.327 . S
C2664 H2689 0.950 . S
C2665 C2664 1.349 . S
C2665 C2681 1.349 . S
C2666 C2664 1.327 . S
C2666 C2685 1.429 . S
C2666 H2690 0.950 . S
C2667 C2684 1.574 . S
C2667 C2686 1.368 . S
C2667 H2691 0.949 . S
H2668 C2672 0.949 . S
C2669 C2670 1.349 . S
C2669 C2671 1.327 . S
C2669 H2692 0.950 . S
C2670 C2669 1.349 . S
C2670 C2682 1.349 . S
C2671 C2669 1.327 . S
C2671 C2687 1.429 . S
C2671 H2693 0.950 . S
C2672 H2668 0.949 . S
C2672 C2680 1.574 . S
C2672 C2688 1.368 . S
H2673 C2681 0.950 . S
H2674 C2679 0.950 . S
H2675 C2680 0.949 . S
H2676 C2682 0.950 . S
H2677 C2683 0.950 . S
H2678 C2684 0.949 . S
C2679 H2674 0.950 . S
C2679 C2681 1.327 . S
C2679 C2685 1.429 . S
C2680 C2672 1.574 . S
C2680 H2675 0.949 . S
C2680 C2686 1.368 . S
C2681 C2665 1.349 . S
C2681 H2673 0.950 . S
C2681 C2679 1.327 . S
C2682 C2670 1.349 . S
C2682 H2676 0.950 . S
C2682 C2683 1.327 . S
C2683 H2677 0.950 . S
C2683 C2682 1.327 . S
C2683 C2687 1.429 . S
C2684 C2667 1.574 . S
C2684 H2678 0.949 . S
C2684 C2688 1.368 . S
C2685 C2666 1.429 . S
C2685 C2679 1.429 . S
C2685 C2686 1.523 . S
C2686 C2667 1.368 . S
C2686 C2680 1.368 . S
C2686 C2685 1.523 . S
C2687 C2671 1.429 . S
C2687 C2683 1.429 . S
C2687 C2688 1.523 . S
C2688 C2672 1.368 . S
C2688 C2684 1.368 . S
C2688 C2687 1.523 . S
H2689 C2664 0.950 . S
H2690 C2666 0.950 . S
H2691 C2667 0.949 . S
H2692 C2669 0.950 . S
H2693 C2671 0.950 . S
C2694 C2695 1.349 . S
C2694 C2696 1.327 . S
C2694 H2719 0.950 . S
C2695 C2694 1.349 . S
C2695 C2711 1.349 . S
C2696 C2694 1.327 . S
C2696 C2715 1.429 . S
C2696 H2720 0.950 . S
C2697 C2714 1.574 . S
C2697 C2716 1.368 . S
C2697 H2721 0.949 . S
H2698 C2702 0.949 . S
C2699 C2700 1.349 . S
C2699 C2701 1.327 . S
C2699 H2722 0.950 . S
C2700 C2699 1.349 . S
C2700 C2712 1.349 . S
C2701 C2699 1.327 . S
C2701 C2717 1.429 . S
C2701 H2723 0.950 . S
C2702 H2698 0.949 . S
C2702 C2710 1.574 . S
C2702 C2718 1.368 . S
H2703 C2711 0.950 . S
H2704 C2709 0.950 . S
H2705 C2710 0.949 . S
H2706 C2712 0.950 . S
H2707 C2713 0.950 . S
H2708 C2714 0.949 . S
C2709 H2704 0.950 . S
C2709 C2711 1.327 . S
C2709 C2715 1.429 . S
C2710 C2702 1.574 . S
C2710 H2705 0.949 . S
C2710 C2716 1.368 . S
C2711 C2695 1.349 . S
C2711 H2703 0.950 . S
C2711 C2709 1.327 . S
C2712 C2700 1.349 . S
C2712 H2706 0.950 . S
C2712 C2713 1.327 . S
C2713 H2707 0.950 . S
C2713 C2712 1.327 . S
C2713 C2717 1.429 . S
C2714 C2697 1.574 . S
C2714 H2708 0.949 . S
C2714 C2718 1.368 . S
C2715 C2696 1.429 . S
C2715 C2709 1.429 . S
C2715 C2716 1.523 . S
C2716 C2697 1.368 . S
C2716 C2710 1.368 . S
C2716 C2715 1.523 . S
C2717 C2701 1.429 . S
C2717 C2713 1.429 . S
C2717 C2718 1.523 . S
C2718 C2702 1.368 . S
C2718 C2714 1.368 . S
C2718 C2717 1.523 . S
H2719 C2694 0.950 . S
H2720 C2696 0.950 . S
H2721 C2697 0.949 . S
H2722 C2699 0.950 . S
H2723 C2701 0.950 . S
C2724 C2725 1.349 . S
C2724 C2726 1.327 . S
C2724 H2749 0.950 . S
C2725 C2724 1.349 . S
C2725 C2741 1.349 . S
C2726 C2724 1.327 . S
C2726 C2745 1.429 . S
C2726 H2750 0.950 . S
C2727 C2744 1.574 . S
C2727 C2746 1.368 . S
C2727 H2751 0.949 . S
H2728 C2732 0.949 . S
C2729 C2730 1.349 . S
C2729 C2731 1.327 . S
C2729 H2752 0.950 . S
C2730 C2729 1.349 . S
C2730 C2742 1.349 . S
C2731 C2729 1.327 . S
C2731 C2747 1.429 . S
C2731 H2753 0.950 . S
C2732 H2728 0.949 . S
C2732 C2740 1.574 . S
C2732 C2748 1.368 . S
H2733 C2741 0.950 . S
H2734 C2739 0.950 . S
H2735 C2740 0.949 . S
H2736 C2742 0.950 . S
H2737 C2743 0.950 . S
H2738 C2744 0.949 . S
C2739 H2734 0.950 . S
C2739 C2741 1.327 . S
C2739 C2745 1.429 . S
C2740 C2732 1.574 . S
C2740 H2735 0.949 . S
C2740 C2746 1.368 . S
C2741 C2725 1.349 . S
C2741 H2733 0.950 . S
C2741 C2739 1.327 . S
C2742 C2730 1.349 . S
C2742 H2736 0.950 . S
C2742 C2743 1.327 . S
C2743 H2737 0.950 . S
C2743 C2742 1.327 . S
C2743 C2747 1.429 . S
C2744 C2727 1.574 . S
C2744 H2738 0.949 . S
C2744 C2748 1.368 . S
C2745 C2726 1.429 . S
C2745 C2739 1.429 . S
C2745 C2746 1.523 . S
C2746 C2727 1.368 . S
C2746 C2740 1.368 . S
C2746 C2745 1.523 . S
C2747 C2731 1.429 . S
C2747 C2743 1.429 . S
C2747 C2748 1.523 . S
C2748 C2732 1.368 . S
C2748 C2744 1.368 . S
C2748 C2747 1.523 . S
H2749 C2724 0.950 . S
H2750 C2726 0.950 . S
H2751 C2727 0.949 . S
H2752 C2729 0.950 . S
H2753 C2731 0.950 . S
C2754 C2755 1.349 1_556 S
C2754 C2756 1.327 . S
C2754 H2779 0.950 . S
C2755 C2754 1.349 1_554 S
C2755 C2771 1.349 . S
C2756 C2754 1.327 . S
C2756 C2775 1.429 1_556 S
C2756 H2780 0.950 . S
C2757 C2774 1.574 . S
C2757 C2776 1.368 . S
C2757 H2781 0.949 . S
H2758 C2762 0.949 . S
C2759 C2760 1.349 . S
C2759 C2761 1.327 . S
C2759 H2782 0.950 . S
C2760 C2759 1.349 . S
C2760 C2772 1.308 1_554 S
C2761 C2759 1.327 . S
C2761 C2777 1.429 . S
C2761 H2783 0.950 . S
C2762 H2758 0.949 . S
C2762 C2770 1.574 . S
C2762 C2778 1.368 1_556 S
H2763 C2771 0.950 . S
H2764 C2769 0.950 . S
H2765 C2770 0.949 . S
H2766 C2772 0.989 . S
H2767 C2773 0.950 . S
H2768 C2774 0.949 . S
C2769 H2764 0.950 . S
C2769 C2771 1.327 . S
C2769 C2775 1.429 . S
C2770 C2762 1.574 . S
C2770 H2765 0.949 . S
C2770 C2776 1.368 1_556 S
C2771 C2755 1.349 . S
C2771 H2763 0.950 . S
C2771 C2769 1.327 . S
C2772 C2760 1.308 1_556 S
C2772 H2766 0.989 . S
C2772 C2773 1.332 . S
C2773 H2767 0.950 . S
C2773 C2772 1.332 . S
C2773 C2777 1.429 1_556 S
C2774 C2757 1.574 . S
C2774 H2768 0.949 . S
C2774 C2778 1.368 . S
C2775 C2756 1.429 1_554 S
C2775 C2769 1.429 . S
C2775 C2776 1.523 . S
C2776 C2757 1.368 . S
C2776 C2770 1.368 1_554 S
C2776 C2775 1.523 . S
C2777 C2761 1.429 . S
C2777 C2773 1.429 1_554 S
C2777 C2778 1.523 . S
C2778 C2762 1.368 1_554 S
C2778 C2774 1.368 . S
C2778 C2777 1.523 . S
H2779 C2754 0.950 . S
H2780 C2756 0.950 . S
H2781 C2757 0.949 . S
H2782 C2759 0.950 . S
H2783 C2761 0.950 . S
C2784 C2785 1.349 . S
C2784 C2786 1.327 . S
C2784 H2809 0.950 . S
C2785 C2784 1.349 . S
C2785 C2801 1.303 1_554 S
C2786 C2784 1.327 . S
C2786 C2805 1.429 . S
C2786 H2810 0.950 . S
C2787 C2804 1.574 . S
C2787 C2806 1.368 1_556 S
C2787 H2811 0.949 . S
H2788 C2792 0.949 . S
C2789 C2790 1.349 1_556 S
C2789 C2791 1.327 . S
C2789 H2812 0.950 . S
C2790 C2789 1.349 1_554 S
C2790 C2802 1.349 . S
C2791 C2789 1.327 . S
C2791 C2807 1.429 1_556 S
C2791 H2813 0.950 . S
C2792 H2788 0.949 . S
C2792 C2800 1.574 . S
C2792 C2808 1.368 . S
H2793 C2801 0.994 . S
H2794 C2799 0.950 . S
H2795 C2800 0.949 . S
H2796 C2802 0.950 . S
H2797 C2803 0.950 . S
H2798 C2804 0.949 . S
C2799 H2794 0.950 . S
C2799 C2801 1.332 . S
C2799 C2805 1.429 1_556 S
C2800 C2792 1.574 . S
C2800 H2795 0.949 . S
C2800 C2806 1.368 . S
C2801 C2785 1.303 1_556 S
C2801 H2793 0.994 . S
C2801 C2799 1.332 . S
C2802 C2790 1.349 . S
C2802 H2796 0.950 . S
C2802 C2803 1.327 . S
C2803 H2797 0.950 . S
C2803 C2802 1.327 . S
C2803 C2807 1.429 . S
C2804 C2787 1.574 . S
C2804 H2798 0.949 . S
C2804 C2808 1.368 1_556 S
C2805 C2786 1.429 . S
C2805 C2799 1.429 1_554 S
C2805 C2806 1.523 . S
C2806 C2787 1.368 1_554 S
C2806 C2800 1.368 . S
C2806 C2805 1.523 . S
C2807 C2791 1.429 1_554 S
C2807 C2803 1.429 . S
C2807 C2808 1.523 . S
C2808 C2792 1.368 . S
C2808 C2804 1.368 1_554 S
C2808 C2807 1.523 . S
H2809 C2784 0.950 . S
H2810 C2786 0.950 . S
H2811 C2787 0.949 . S
H2812 C2789 0.950 . S
H2813 C2791 0.950 . S
C2814 C2815 1.349 1_556 S
C2814 C2816 1.327 . S
C2814 H2839 0.950 . S
C2815 C2814 1.349 1_554 S
C2815 C2831 1.349 . S
C2816 C2814 1.327 . S
C2816 C2835 1.429 1_556 S
C2816 H2840 0.950 . S
C2817 C2834 1.574 . S
C2817 C2836 1.368 . S
C2817 H2841 0.949 . S
H2818 C2822 0.949 . S
C2819 C2820 1.349 . S
C2819 C2821 1.327 . S
C2819 H2842 0.950 . S
C2820 C2819 1.349 . S
C2820 C2832 1.301 1_554 S
C2821 C2819 1.327 . S
C2821 C2837 1.429 . S
C2821 H2843 0.950 . S
C2822 H2818 0.949 . S
C2822 C2830 1.574 . S
C2822 C2838 1.368 1_556 S
H2823 C2831 0.950 . S
H2824 C2829 0.950 . S
H2825 C2830 0.949 . S
H2826 C2832 0.996 . S
H2827 C2833 0.950 . S
H2828 C2834 0.949 . S
C2829 H2824 0.950 . S
C2829 C2831 1.327 . S
C2829 C2835 1.429 . S
C2830 C2822 1.574 . S
C2830 H2825 0.949 . S
C2830 C2836 1.368 1_556 S
C2831 C2815 1.349 . S
C2831 H2823 0.950 . S
C2831 C2829 1.327 . S
C2832 C2820 1.301 1_556 S
C2832 H2826 0.996 . S
C2832 C2833 1.333 . S
C2833 H2827 0.950 . S
C2833 C2832 1.333 . S
C2833 C2837 1.429 1_556 S
C2834 C2817 1.574 . S
C2834 H2828 0.949 . S
C2834 C2838 1.368 . S
C2835 C2816 1.429 1_554 S
C2835 C2829 1.429 . S
C2835 C2836 1.523 . S
C2836 C2817 1.368 . S
C2836 C2830 1.368 1_554 S
C2836 C2835 1.523 . S
C2837 C2821 1.429 . S
C2837 C2833 1.429 1_554 S
C2837 C2838 1.523 . S
C2838 C2822 1.368 1_554 S
C2838 C2834 1.368 . S
C2838 C2837 1.523 . S
H2839 C2814 0.950 . S
H2840 C2816 0.950 . S
H2841 C2817 0.949 . S
H2842 C2819 0.950 . S
H2843 C2821 0.950 . S
C2844 C2845 1.349 . S
C2844 C2846 1.327 . S
C2844 H2869 0.950 . S
C2845 C2844 1.349 . S
C2845 C2861 1.349 . S
C2846 C2844 1.327 . S
C2846 C2865 1.429 . S
C2846 H2870 0.950 . S
C2847 C2864 1.574 . S
C2847 C2866 1.368 . S
C2847 H2871 0.949 . S
H2848 C2852 0.949 . S
C2849 C2850 1.349 . S
C2849 C2851 1.327 . S
C2849 H2872 0.950 . S
C2850 C2849 1.349 . S
C2850 C2862 1.349 . S
C2851 C2849 1.327 . S
C2851 C2867 1.429 . S
C2851 H2873 0.950 . S
C2852 H2848 0.949 . S
C2852 C2860 1.574 . S
C2852 C2868 1.368 . S
H2853 C2861 0.950 . S
H2854 C2859 0.950 . S
H2855 C2860 0.949 . S
H2856 C2862 0.950 . S
H2857 C2863 0.950 . S
H2858 C2864 0.949 . S
C2859 H2854 0.950 . S
C2859 C2861 1.327 . S
C2859 C2865 1.429 . S
C2860 C2852 1.574 . S
C2860 H2855 0.949 . S
C2860 C2866 1.368 . S
C2861 C2845 1.349 . S
C2861 H2853 0.950 . S
C2861 C2859 1.327 . S
C2862 C2850 1.349 . S
C2862 H2856 0.950 . S
C2862 C2863 1.327 . S
C2863 H2857 0.950 . S
C2863 C2862 1.327 . S
C2863 C2867 1.429 . S
C2864 C2847 1.574 . S
C2864 H2858 0.949 . S
C2864 C2868 1.368 . S
C2865 C2846 1.429 . S
C2865 C2859 1.429 . S
C2865 C2866 1.523 . S
C2866 C2847 1.368 . S
C2866 C2860 1.368 . S
C2866 C2865 1.523 . S
C2867 C2851 1.429 . S
C2867 C2863 1.429 . S
C2867 C2868 1.523 . S
C2868 C2852 1.368 . S
C2868 C2864 1.368 . S
C2868 C2867 1.523 . S
H2869 C2844 0.950 . S
H2870 C2846 0.950 . S
H2871 C2847 0.949 . S
H2872 C2849 0.950 . S
H2873 C2851 0.950 . S
C2874 C2875 1.349 . S
C2874 C2876 1.327 . S
C2874 H2899 0.950 . S
C2875 C2874 1.349 . S
C2875 C2891 1.349 . S
C2876 C2874 1.327 . S
C2876 C2895 1.429 . S
C2876 H2900 0.950 . S
C2877 C2894 1.574 . S
C2877 C2896 1.368 . S
C2877 H2901 0.949 . S
H2878 C2882 0.949 . S
C2879 C2880 1.349 . S
C2879 C2881 1.327 . S
C2879 H2902 0.950 . S
C2880 C2879 1.349 . S
C2880 C2892 1.349 . S
C2881 C2879 1.327 . S
C2881 C2897 1.429 . S
C2881 H2903 0.950 . S
C2882 H2878 0.949 . S
C2882 C2890 1.574 . S
C2882 C2898 1.368 . S
H2883 C2891 0.950 . S
H2884 C2889 0.950 . S
H2885 C2890 0.949 . S
H2886 C2892 0.950 . S
H2887 C2893 0.950 . S
H2888 C2894 0.949 . S
C2889 H2884 0.950 . S
C2889 C2891 1.327 . S
C2889 C2895 1.429 . S
C2890 C2882 1.574 . S
C2890 H2885 0.949 . S
C2890 C2896 1.368 . S
C2891 C2875 1.349 . S
C2891 H2883 0.950 . S
C2891 C2889 1.327 . S
C2892 C2880 1.349 . S
C2892 H2886 0.950 . S
C2892 C2893 1.327 . S
C2893 H2887 0.950 . S
C2893 C2892 1.327 . S
C2893 C2897 1.429 . S
C2894 C2877 1.574 . S
C2894 H2888 0.949 . S
C2894 C2898 1.368 . S
C2895 C2876 1.429 . S
C2895 C2889 1.429 . S
C2895 C2896 1.523 . S
C2896 C2877 1.368 . S
C2896 C2890 1.368 . S
C2896 C2895 1.523 . S
C2897 C2881 1.429 . S
C2897 C2893 1.429 . S
C2897 C2898 1.523 . S
C2898 C2882 1.368 . S
C2898 C2894 1.368 . S
C2898 C2897 1.523 . S
H2899 C2874 0.950 . S
H2900 C2876 0.950 . S
H2901 C2877 0.949 . S
H2902 C2879 0.950 . S
H2903 C2881 0.950 . S
C2904 C2905 1.349 . S
C2904 C2906 1.327 . S
C2904 H2929 0.950 . S
C2905 C2904 1.349 . S
C2905 C2921 1.349 . S
C2906 C2904 1.327 . S
C2906 C2925 1.429 . S
C2906 H2930 0.950 . S
C2907 C2924 1.574 . S
C2907 C2926 1.368 . S
C2907 H2931 0.949 . S
H2908 C2912 0.949 . S
C2909 C2910 1.349 . S
C2909 C2911 1.327 . S
C2909 H2932 0.950 . S
C2910 C2909 1.349 . S
C2910 C2922 1.349 . S
C2911 C2909 1.327 . S
C2911 C2927 1.429 . S
C2911 H2933 0.950 . S
C2912 H2908 0.949 . S
C2912 C2920 1.574 . S
C2912 C2928 1.368 . S
H2913 C2921 0.950 . S
H2914 C2919 0.950 . S
H2915 C2920 0.949 . S
H2916 C2922 0.950 . S
H2917 C2923 0.950 . S
H2918 C2924 0.949 . S
C2919 H2914 0.950 . S
C2919 C2921 1.327 . S
C2919 C2925 1.429 . S
C2920 C2912 1.574 . S
C2920 H2915 0.949 . S
C2920 C2926 1.368 . S
C2921 C2905 1.349 . S
C2921 H2913 0.950 . S
C2921 C2919 1.327 . S
C2922 C2910 1.349 . S
C2922 H2916 0.950 . S
C2922 C2923 1.327 . S
C2923 H2917 0.950 . S
C2923 C2922 1.327 . S
C2923 C2927 1.429 . S
C2924 C2907 1.574 . S
C2924 H2918 0.949 . S
C2924 C2928 1.368 . S
C2925 C2906 1.429 . S
C2925 C2919 1.429 . S
C2925 C2926 1.523 . S
C2926 C2907 1.368 . S
C2926 C2920 1.368 . S
C2926 C2925 1.523 . S
C2927 C2911 1.429 . S
C2927 C2923 1.429 . S
C2927 C2928 1.523 . S
C2928 C2912 1.368 . S
C2928 C2924 1.368 . S
C2928 C2927 1.523 . S
H2929 C2904 0.950 . S
H2930 C2906 0.950 . S
H2931 C2907 0.949 . S
H2932 C2909 0.950 . S
H2933 C2911 0.950 . S
C2934 C2935 1.349 1_554 S
C2934 C2936 1.327 . S
C2934 H2959 0.950 . S
C2935 C2934 1.349 1_556 S
C2935 C2951 1.349 . S
C2936 C2934 1.327 . S
C2936 C2955 1.429 1_554 S
C2936 H2960 0.950 . S
C2937 C2954 1.574 . S
C2937 C2956 1.368 . S
C2937 H2961 0.949 . S
H2938 C2942 0.949 . S
C2939 C2940 1.349 . S
C2939 C2941 1.327 . S
C2939 H2962 0.950 . S
C2940 C2939 1.349 . S
C2940 C2952 1.326 1_556 S
C2941 C2939 1.327 . S
C2941 C2957 1.429 . S
C2941 H2963 0.950 . S
C2942 H2938 0.949 . S
C2942 C2950 1.574 . S
C2942 C2958 1.368 1_554 S
H2943 C2951 0.950 . S
H2944 C2949 0.950 . S
H2945 C2950 0.949 . S
H2946 C2952 0.972 . S
H2947 C2953 1.035 . S
H2948 C2954 0.949 . S
C2949 H2944 0.950 . S
C2949 C2951 1.327 . S
C2949 C2955 1.429 . S
C2950 C2942 1.574 . S
C2950 H2945 0.949 . S
C2950 C2956 1.368 1_554 S
C2951 C2935 1.349 . S
C2951 H2943 0.950 . S
C2951 C2949 1.327 . S
C2952 C2940 1.326 1_554 S
C2952 H2946 0.972 . S
C2952 C2953 1.325 . S
C2953 H2947 1.035 . S
C2953 C2952 1.325 . S
C2953 C2957 1.357 1_554 S
C2954 C2937 1.574 . S
C2954 H2948 0.949 . S
C2954 C2958 1.368 . S
C2955 C2936 1.429 1_556 S
C2955 C2949 1.429 . S
C2955 C2956 1.523 . S
C2956 C2937 1.368 . S
C2956 C2950 1.368 1_556 S
C2956 C2955 1.523 . S
C2957 C2941 1.429 . S
C2957 C2953 1.357 1_556 S
C2957 C2958 1.523 . S
C2958 C2942 1.368 1_556 S
C2958 C2954 1.368 . S
C2958 C2957 1.523 . S
H2959 C2934 0.950 . S
H2960 C2936 0.950 . S
H2961 C2937 0.949 . S
H2962 C2939 0.950 . S
H2963 C2941 0.950 . S
C2964 C2965 1.349 . S
C2964 C2966 1.327 . S
C2964 H2989 0.950 . S
C2965 C2964 1.349 . S
C2965 C2981 1.343 . S
C2966 C2964 1.327 . S
C2966 C2985 1.429 . S
C2966 H2990 0.950 . S
C2967 C2984 1.574 . S
C2967 C2986 1.368 1_554 S
C2967 H2991 0.949 . S
H2968 C2972 0.949 . S
C2969 C2970 1.349 1_554 S
C2969 C2971 1.327 . S
C2969 H2992 0.950 . S
C2970 C2969 1.349 1_556 S
C2970 C2982 1.349 . S
C2971 C2969 1.327 . S
C2971 C2987 1.429 1_554 S
C2971 H2993 0.950 . S
C2972 H2968 0.949 . S
C2972 C2980 1.574 . S
C2972 C2988 1.368 . S
H2973 C2981 0.956 1_554 S
H2974 C2979 0.993 . S
H2975 C2980 0.949 . S
H2976 C2982 0.950 . S
H2977 C2983 0.950 . S
H2978 C2984 0.949 . S
C2979 H2974 0.993 . S
C2979 C2981 1.325 1_554 S
C2979 C2985 1.392 1_554 S
C2980 C2972 1.574 . S
C2980 H2975 0.949 . S
C2980 C2986 1.368 . S
C2981 C2965 1.343 . S
C2981 H2973 0.956 1_556 S
C2981 C2979 1.325 1_556 S
C2982 C2970 1.349 . S
C2982 H2976 0.950 . S
C2982 C2983 1.327 . S
C2983 H2977 0.950 . S
C2983 C2982 1.327 . S
C2983 C2987 1.429 . S
C2984 C2967 1.574 . S
C2984 H2978 0.949 . S
C2984 C2988 1.368 1_554 S
C2985 C2966 1.429 . S
C2985 C2979 1.392 1_556 S
C2985 C2986 1.523 . S
C2986 C2967 1.368 1_556 S
C2986 C2980 1.368 . S
C2986 C2985 1.523 . S
C2987 C2971 1.429 1_556 S
C2987 C2983 1.429 . S
C2987 C2988 1.523 . S
C2988 C2972 1.368 . S
C2988 C2984 1.368 1_556 S
C2988 C2987 1.523 . S
H2989 C2964 0.950 . S
H2990 C2966 0.950 . S
H2991 C2967 0.949 . S
H2992 C2969 0.950 . S
H2993 C2971 0.950 . S
C2994 C2995 1.349 1_554 S
C2994 C2996 1.327 . S
C2994 H3019 0.950 . S
C2995 C2994 1.349 1_556 S
C2995 C3011 1.349 . S
C2996 C2994 1.327 . S
C2996 C3015 1.429 1_554 S
C2996 H3020 0.950 . S
C2997 C3014 1.574 . S
C2997 C3016 1.368 . S
C2997 H3021 0.949 . S
H2998 C3002 0.949 . S
C2999 C3000 1.349 . S
C2999 C3001 1.327 . S
C2999 H3022 0.950 . S
C3000 C2999 1.349 . S
C3000 C3012 1.348 1_556 S
C3001 C2999 1.327 . S
C3001 C3017 1.429 . S
C3001 H3023 0.950 . S
C3002 H2998 0.949 . S
C3002 C3010 1.574 . S
C3002 C3018 1.368 1_554 S
H3003 C3011 0.950 . S
H3004 C3009 0.950 . S
H3005 C3010 0.949 . S
H3006 C3012 0.950 . S
H3007 C3013 1.010 . S
H3008 C3014 0.949 . S
C3009 H3004 0.950 . S
C3009 C3011 1.327 . S
C3009 C3015 1.429 . S
C3010 C3002 1.574 . S
C3010 H3005 0.949 . S
C3010 C3016 1.368 1_554 S
C3011 C2995 1.349 . S
C3011 H3003 0.950 . S
C3011 C3009 1.327 . S
C3012 C3000 1.348 1_554 S
C3012 H3006 0.950 . S
C3012 C3013 1.325 . S
C3013 H3007 1.010 . S
C3013 C3012 1.325 . S
C3013 C3017 1.377 1_554 S
C3014 C2997 1.574 . S
C3014 H3008 0.949 . S
C3014 C3018 1.368 . S
C3015 C2996 1.429 1_556 S
C3015 C3009 1.429 . S
C3015 C3016 1.523 . S
C3016 C2997 1.368 . S
C3016 C3010 1.368 1_556 S
C3016 C3015 1.523 . S
C3017 C3001 1.429 . S
C3017 C3013 1.377 1_556 S
C3017 C3018 1.523 . S
C3018 C3002 1.368 1_556 S
C3018 C3014 1.368 . S
C3018 C3017 1.523 . S
H3019 C2994 0.950 . S
H3020 C2996 0.950 . S
H3021 C2997 0.949 . S
H3022 C2999 0.950 . S
H3023 C3001 0.950 . S
C3024 C3025 1.349 . S
C3024 C3026 1.327 . S
C3024 H3049 0.950 . S
C3025 C3024 1.349 . S
C3025 C3041 1.349 . S
C3026 C3024 1.327 . S
C3026 C3045 1.429 . S
C3026 H3050 0.950 . S
C3027 C3044 1.574 . S
C3027 C3046 1.368 . S
C3027 H3051 0.949 . S
H3028 C3032 0.949 . S
C3029 C3030 1.349 . S
C3029 C3031 1.327 . S
C3029 H3052 0.950 . S
C3030 C3029 1.349 . S
C3030 C3042 1.349 . S
C3031 C3029 1.327 . S
C3031 C3047 1.429 . S
C3031 H3053 0.950 . S
C3032 H3028 0.949 . S
C3032 C3040 1.574 . S
C3032 C3048 1.368 . S
H3033 C3041 0.950 . S
H3034 C3039 0.950 . S
H3035 C3040 0.949 . S
H3036 C3042 0.950 . S
H3037 C3043 0.950 . S
H3038 C3044 0.949 . S
C3039 H3034 0.950 . S
C3039 C3041 1.327 . S
C3039 C3045 1.429 . S
C3040 C3032 1.574 . S
C3040 H3035 0.949 . S
C3040 C3046 1.368 . S
C3041 C3025 1.349 . S
C3041 H3033 0.950 . S
C3041 C3039 1.327 . S
C3042 C3030 1.349 . S
C3042 H3036 0.950 . S
C3042 C3043 1.327 . S
C3043 H3037 0.950 . S
C3043 C3042 1.327 . S
C3043 C3047 1.429 . S
C3044 C3027 1.574 . S
C3044 H3038 0.949 . S
C3044 C3048 1.368 . S
C3045 C3026 1.429 . S
C3045 C3039 1.429 . S
C3045 C3046 1.523 . S
C3046 C3027 1.368 . S
C3046 C3040 1.368 . S
C3046 C3045 1.523 . S
C3047 C3031 1.429 . S
C3047 C3043 1.429 . S
C3047 C3048 1.523 . S
C3048 C3032 1.368 . S
C3048 C3044 1.368 . S
C3048 C3047 1.523 . S
H3049 C3024 0.950 . S
H3050 C3026 0.950 . S
H3051 C3027 0.949 . S
H3052 C3029 0.950 . S
H3053 C3031 0.950 . S
C3054 C3055 1.349 . S
C3054 C3056 1.327 . S
C3054 H3079 0.950 . S
C3055 C3054 1.349 . S
C3055 C3071 1.349 . S
C3056 C3054 1.327 . S
C3056 C3075 1.429 . S
C3056 H3080 0.950 . S
C3057 C3074 1.574 . S
C3057 C3076 1.368 . S
C3057 H3081 0.949 . S
H3058 C3062 0.949 . S
C3059 C3060 1.349 . S
C3059 C3061 1.327 . S
C3059 H3082 0.950 . S
C3060 C3059 1.349 . S
C3060 C3072 1.349 . S
C3061 C3059 1.327 . S
C3061 C3077 1.429 . S
C3061 H3083 0.950 . S
C3062 H3058 0.949 . S
C3062 C3070 1.574 . S
C3062 C3078 1.368 . S
H3063 C3071 0.950 . S
H3064 C3069 0.950 . S
H3065 C3070 0.949 . S
H3066 C3072 0.950 . S
H3067 C3073 0.950 . S
H3068 C3074 0.949 . S
C3069 H3064 0.950 . S
C3069 C3071 1.327 . S
C3069 C3075 1.429 . S
C3070 C3062 1.574 . S
C3070 H3065 0.949 . S
C3070 C3076 1.368 . S
C3071 C3055 1.349 . S
C3071 H3063 0.950 . S
C3071 C3069 1.327 . S
C3072 C3060 1.349 . S
C3072 H3066 0.950 . S
C3072 C3073 1.327 . S
C3073 H3067 0.950 . S
C3073 C3072 1.327 . S
C3073 C3077 1.429 . S
C3074 C3057 1.574 . S
C3074 H3068 0.949 . S
C3074 C3078 1.368 . S
C3075 C3056 1.429 . S
C3075 C3069 1.429 . S
C3075 C3076 1.523 . S
C3076 C3057 1.368 . S
C3076 C3070 1.368 . S
C3076 C3075 1.523 . S
C3077 C3061 1.429 . S
C3077 C3073 1.429 . S
C3077 C3078 1.523 . S
C3078 C3062 1.368 . S
C3078 C3074 1.368 . S
C3078 C3077 1.523 . S
H3079 C3054 0.950 . S
H3080 C3056 0.950 . S
H3081 C3057 0.949 . S
H3082 C3059 0.950 . S
H3083 C3061 0.950 . S
C3084 C3085 1.349 . S
C3084 C3086 1.327 . S
C3084 H3109 0.950 . S
C3085 C3084 1.349 . S
C3085 C3101 1.349 . S
C3086 C3084 1.327 . S
C3086 C3105 1.429 . S
C3086 H3110 0.950 . S
C3087 C3104 1.574 . S
C3087 C3106 1.368 . S
C3087 H3111 0.949 . S
H3088 C3092 0.949 . S
C3089 C3090 1.349 . S
C3089 C3091 1.327 . S
C3089 H3112 0.950 . S
C3090 C3089 1.349 . S
C3090 C3102 1.349 . S
C3091 C3089 1.327 . S
C3091 C3107 1.429 . S
C3091 H3113 0.950 . S
C3092 H3088 0.949 . S
C3092 C3100 1.574 . S
C3092 C3108 1.368 . S
H3093 C3101 0.950 . S
H3094 C3099 0.950 . S
H3095 C3100 0.949 . S
H3096 C3102 0.950 . S
H3097 C3103 0.950 . S
H3098 C3104 0.949 . S
C3099 H3094 0.950 . S
C3099 C3101 1.327 . S
C3099 C3105 1.429 . S
C3100 C3092 1.574 . S
C3100 H3095 0.949 . S
C3100 C3106 1.368 . S
C3101 C3085 1.349 . S
C3101 H3093 0.950 . S
C3101 C3099 1.327 . S
C3102 C3090 1.349 . S
C3102 H3096 0.950 . S
C3102 C3103 1.327 . S
C3103 H3097 0.950 . S
C3103 C3102 1.327 . S
C3103 C3107 1.429 . S
C3104 C3087 1.574 . S
C3104 H3098 0.949 . S
C3104 C3108 1.368 . S
C3105 C3086 1.429 . S
C3105 C3099 1.429 . S
C3105 C3106 1.523 . S
C3106 C3087 1.368 . S
C3106 C3100 1.368 . S
C3106 C3105 1.523 . S
C3107 C3091 1.429 . S
C3107 C3103 1.429 . S
C3107 C3108 1.523 . S
C3108 C3092 1.368 . S
C3108 C3104 1.368 . S
C3108 C3107 1.523 . S
H3109 C3084 0.950 . S
H3110 C3086 0.950 . S
H3111 C3087 0.949 . S
H3112 C3089 0.950 . S
H3113 C3091 0.950 . S
C3114 C3115 1.349 . S
C3114 C3116 1.327 . S
C3114 H3139 0.950 . S
C3115 C3114 1.349 . S
C3115 C3131 1.349 . S
C3116 C3114 1.327 . S
C3116 C3135 1.429 . S
C3116 H3140 0.950 . S
C3117 C3134 1.574 . S
C3117 C3136 1.368 . S
C3117 H3141 0.949 . S
H3118 C3122 0.949 . S
C3119 C3120 1.349 . S
C3119 C3121 1.327 . S
C3119 H3142 0.950 . S
C3120 C3119 1.349 . S
C3120 C3132 1.349 . S
C3121 C3119 1.327 . S
C3121 C3137 1.429 . S
C3121 H3143 0.950 . S
C3122 H3118 0.949 . S
C3122 C3130 1.574 . S
C3122 C3138 1.368 . S
H3123 C3131 0.950 . S
H3124 C3129 0.950 . S
H3125 C3130 0.949 . S
H3126 C3132 0.950 . S
H3127 C3133 0.950 . S
H3128 C3134 0.949 . S
C3129 H3124 0.950 . S
C3129 C3131 1.327 . S
C3129 C3135 1.429 . S
C3130 C3122 1.574 . S
C3130 H3125 0.949 . S
C3130 C3136 1.368 . S
C3131 C3115 1.349 . S
C3131 H3123 0.950 . S
C3131 C3129 1.327 . S
C3132 C3120 1.349 . S
C3132 H3126 0.950 . S
C3132 C3133 1.327 . S
C3133 H3127 0.950 . S
C3133 C3132 1.327 . S
C3133 C3137 1.429 . S
C3134 C3117 1.574 . S
C3134 H3128 0.949 . S
C3134 C3138 1.368 . S
C3135 C3116 1.429 . S
C3135 C3129 1.429 . S
C3135 C3136 1.523 . S
C3136 C3117 1.368 . S
C3136 C3130 1.368 . S
C3136 C3135 1.523 . S
C3137 C3121 1.429 . S
C3137 C3133 1.429 . S
C3137 C3138 1.523 . S
C3138 C3122 1.368 . S
C3138 C3134 1.368 . S
C3138 C3137 1.523 . S
H3139 C3114 0.950 . S
H3140 C3116 0.950 . S
H3141 C3117 0.949 . S
H3142 C3119 0.950 . S
H3143 C3121 0.950 . S
C3144 C3145 1.349 . S
C3144 C3146 1.327 . S
C3144 H3169 0.950 . S
C3145 C3144 1.349 . S
C3145 C3161 1.349 . S
C3146 C3144 1.327 . S
C3146 C3165 1.429 . S
C3146 H3170 0.950 . S
C3147 C3164 1.574 . S
C3147 C3166 1.368 . S
C3147 H3171 0.949 . S
H3148 C3152 0.949 . S
C3149 C3150 1.349 . S
C3149 C3151 1.327 . S
C3149 H3172 0.950 . S
C3150 C3149 1.349 . S
C3150 C3162 1.349 . S
C3151 C3149 1.327 . S
C3151 C3167 1.429 . S
C3151 H3173 0.950 . S
C3152 H3148 0.949 . S
C3152 C3160 1.574 . S
C3152 C3168 1.368 . S
H3153 C3161 0.950 . S
H3154 C3159 0.950 . S
H3155 C3160 0.949 . S
H3156 C3162 0.950 . S
H3157 C3163 0.950 . S
H3158 C3164 0.949 . S
C3159 H3154 0.950 . S
C3159 C3161 1.327 . S
C3159 C3165 1.429 . S
C3160 C3152 1.574 . S
C3160 H3155 0.949 . S
C3160 C3166 1.368 . S
C3161 C3145 1.349 . S
C3161 H3153 0.950 . S
C3161 C3159 1.327 . S
C3162 C3150 1.349 . S
C3162 H3156 0.950 . S
C3162 C3163 1.327 . S
C3163 H3157 0.950 . S
C3163 C3162 1.327 . S
C3163 C3167 1.429 . S
C3164 C3147 1.574 . S
C3164 H3158 0.949 . S
C3164 C3168 1.368 . S
C3165 C3146 1.429 . S
C3165 C3159 1.429 . S
C3165 C3166 1.523 . S
C3166 C3147 1.368 . S
C3166 C3160 1.368 . S
C3166 C3165 1.523 . S
C3167 C3151 1.429 . S
C3167 C3163 1.429 . S
C3167 C3168 1.523 . S
C3168 C3152 1.368 . S
C3168 C3164 1.368 . S
C3168 C3167 1.523 . S
H3169 C3144 0.950 . S
H3170 C3146 0.950 . S
H3171 C3147 0.949 . S
H3172 C3149 0.950 . S
H3173 C3151 0.950 . S
C3174 C3175 1.349 . S
C3174 C3176 1.327 . S
C3174 H3199 0.950 . S
C3175 C3174 1.349 . S
C3175 C3191 1.349 . S
C3176 C3174 1.327 . S
C3176 C3195 1.429 . S
C3176 H3200 0.950 . S
C3177 C3194 1.574 . S
C3177 C3196 1.368 . S
C3177 H3201 0.949 . S
H3178 C3182 0.949 . S
C3179 C3180 1.349 . S
C3179 C3181 1.327 . S
C3179 H3202 0.950 . S
C3180 C3179 1.349 . S
C3180 C3192 1.349 . S
C3181 C3179 1.327 . S
C3181 C3197 1.429 . S
C3181 H3203 0.950 . S
C3182 H3178 0.949 . S
C3182 C3190 1.574 . S
C3182 C3198 1.368 . S
H3183 C3191 0.950 . S
H3184 C3189 0.950 . S
H3185 C3190 0.949 . S
H3186 C3192 0.950 . S
H3187 C3193 0.950 . S
H3188 C3194 0.949 . S
C3189 H3184 0.950 . S
C3189 C3191 1.327 . S
C3189 C3195 1.429 . S
C3190 C3182 1.574 . S
C3190 H3185 0.949 . S
C3190 C3196 1.368 . S
C3191 C3175 1.349 . S
C3191 H3183 0.950 . S
C3191 C3189 1.327 . S
C3192 C3180 1.349 . S
C3192 H3186 0.950 . S
C3192 C3193 1.327 . S
C3193 H3187 0.950 . S
C3193 C3192 1.327 . S
C3193 C3197 1.429 . S
C3194 C3177 1.574 . S
C3194 H3188 0.949 . S
C3194 C3198 1.368 . S
C3195 C3176 1.429 . S
C3195 C3189 1.429 . S
C3195 C3196 1.523 . S
C3196 C3177 1.368 . S
C3196 C3190 1.368 . S
C3196 C3195 1.523 . S
C3197 C3181 1.429 . S
C3197 C3193 1.429 . S
C3197 C3198 1.523 . S
C3198 C3182 1.368 . S
C3198 C3194 1.368 . S
C3198 C3197 1.523 . S
H3199 C3174 0.950 . S
H3200 C3176 0.950 . S
H3201 C3177 0.949 . S
H3202 C3179 0.950 . S
H3203 C3181 0.950 . S
C3204 C3205 1.349 . S
C3204 C3206 1.327 . S
C3204 H3229 0.950 . S
C3205 C3204 1.349 . S
C3205 C3221 1.349 . S
C3206 C3204 1.327 . S
C3206 C3225 1.429 . S
C3206 H3230 0.950 . S
C3207 C3224 1.574 . S
C3207 C3226 1.368 . S
C3207 H3231 0.949 . S
H3208 C3212 0.949 . S
C3209 C3210 1.349 . S
C3209 C3211 1.327 . S
C3209 H3232 0.950 . S
C3210 C3209 1.349 . S
C3210 C3222 1.349 . S
C3211 C3209 1.327 . S
C3211 C3227 1.429 . S
C3211 H3233 0.950 . S
C3212 H3208 0.949 . S
C3212 C3220 1.574 . S
C3212 C3228 1.368 . S
H3213 C3221 0.950 . S
H3214 C3219 0.950 . S
H3215 C3220 0.949 . S
H3216 C3222 0.950 . S
H3217 C3223 0.950 . S
H3218 C3224 0.949 . S
C3219 H3214 0.950 . S
C3219 C3221 1.327 . S
C3219 C3225 1.429 . S
C3220 C3212 1.574 . S
C3220 H3215 0.949 . S
C3220 C3226 1.368 . S
C3221 C3205 1.349 . S
C3221 H3213 0.950 . S
C3221 C3219 1.327 . S
C3222 C3210 1.349 . S
C3222 H3216 0.950 . S
C3222 C3223 1.327 . S
C3223 H3217 0.950 . S
C3223 C3222 1.327 . S
C3223 C3227 1.429 . S
C3224 C3207 1.574 . S
C3224 H3218 0.949 . S
C3224 C3228 1.368 . S
C3225 C3206 1.429 . S
C3225 C3219 1.429 . S
C3225 C3226 1.523 . S
C3226 C3207 1.368 . S
C3226 C3220 1.368 . S
C3226 C3225 1.523 . S
C3227 C3211 1.429 . S
C3227 C3223 1.429 . S
C3227 C3228 1.523 . S
C3228 C3212 1.368 . S
C3228 C3224 1.368 . S
C3228 C3227 1.523 . S
H3229 C3204 0.950 . S
H3230 C3206 0.950 . S
H3231 C3207 0.949 . S
H3232 C3209 0.950 . S
H3233 C3211 0.950 . S
C3234 C3235 1.349 . S
C3234 C3236 1.327 . S
C3234 H3259 0.950 . S
C3235 C3234 1.349 . S
C3235 C3251 1.349 1_565 S
C3236 C3234 1.327 . S
C3236 C3255 1.470 . S
C3236 H3260 0.950 . S
C3237 C3254 1.574 . S
C3237 C3256 1.352 1_545 S
C3237 H3261 0.949 . S
H3238 C3242 0.949 . S
C3239 C3240 1.349 . S
C3239 C3241 1.327 . S
C3239 H3262 0.950 . S
C3240 C3239 1.349 . S
C3240 C3252 1.349 1_545 S
C3241 C3239 1.327 . S
C3241 C3257 1.474 . S
C3241 H3263 0.950 . S
C3242 H3238 0.949 . S
C3242 C3250 1.574 . S
C3242 C3258 1.348 1_565 S
H3243 C3251 0.950 . S
H3244 C3249 0.950 . S
H3245 C3250 0.949 . S
H3246 C3252 0.950 . S
H3247 C3253 0.950 . S
H3248 C3254 0.949 . S
C3249 H3244 0.950 . S
C3249 C3251 1.327 . S
C3249 C3255 1.389 1_545 S
C3250 C3242 1.574 . S
C3250 H3245 0.949 . S
C3250 C3256 1.385 . S
C3251 C3235 1.349 1_545 S
C3251 H3243 0.950 . S
C3251 C3249 1.327 . S
C3252 C3240 1.349 1_565 S
C3252 H3246 0.950 . S
C3252 C3253 1.327 . S
C3253 H3247 0.950 . S
C3253 C3252 1.327 . S
C3253 C3257 1.385 1_565 S
C3254 C3237 1.574 . S
C3254 H3248 0.949 . S
C3254 C3258 1.389 . S
C3255 C3236 1.470 . S
C3255 C3249 1.389 1_565 S
C3255 C3256 1.523 . S
C3256 C3237 1.352 1_565 S
C3256 C3250 1.385 . S
C3256 C3255 1.523 . S
C3257 C3241 1.474 . S
C3257 C3253 1.385 1_545 S
C3257 C3258 1.523 . S
C3258 C3242 1.348 1_545 S
C3258 C3254 1.389 . S
C3258 C3257 1.523 . S
H3259 C3234 0.950 . S
H3260 C3236 0.950 . S
H3261 C3237 0.949 . S
H3262 C3239 0.950 . S
H3263 C3241 0.950 . S
C3264 C3265 1.349 . S
C3264 C3266 1.327 . S
C3264 H3289 0.950 . S
C3265 C3264 1.349 . S
C3265 C3281 1.349 1_655 S
C3266 C3264 1.327 . S
C3266 C3285 1.452 . S
C3266 H3290 0.950 . S
C3267 C3284 1.574 . S
C3267 C3286 1.360 1_455 S
C3267 H3291 0.949 . S
H3268 C3272 0.949 . S
C3269 C3270 1.349 . S
C3269 C3271 1.327 . S
C3269 H3292 0.950 . S
C3270 C3269 1.349 . S
C3270 C3282 1.349 1_455 S
C3271 C3269 1.327 . S
C3271 C3287 1.457 . S
C3271 H3293 0.950 . S
C3272 H3268 0.949 . S
C3272 C3280 1.574 . S
C3272 C3288 1.355 1_655 S
H3273 C3281 0.950 . S
H3274 C3279 0.950 . S
H3275 C3280 0.949 . S
H3276 C3282 0.950 . S
H3277 C3283 0.950 . S
H3278 C3284 0.949 . S
C3279 H3274 0.950 . S
C3279 C3281 1.327 . S
C3279 C3285 1.407 1_455 S
C3280 C3272 1.574 . S
C3280 H3275 0.949 . S
C3280 C3286 1.377 . S
C3281 C3265 1.349 1_455 S
C3281 H3273 0.950 . S
C3281 C3279 1.327 . S
C3282 C3270 1.349 1_655 S
C3282 H3276 0.950 . S
C3282 C3283 1.327 . S
C3283 H3277 0.950 . S
C3283 C3282 1.327 . S
C3283 C3287 1.403 1_655 S
C3284 C3267 1.574 . S
C3284 H3278 0.949 . S
C3284 C3288 1.382 . S
C3285 C3266 1.452 . S
C3285 C3279 1.407 1_655 S
C3285 C3286 1.523 . S
C3286 C3267 1.360 1_655 S
C3286 C3280 1.377 . S
C3286 C3285 1.523 . S
C3287 C3271 1.457 . S
C3287 C3283 1.403 1_455 S
C3287 C3288 1.523 . S
C3288 C3272 1.355 1_455 S
C3288 C3284 1.382 . S
C3288 C3287 1.523 . S
H3289 C3264 0.950 . S
H3290 C3266 0.950 . S
H3291 C3267 0.949 . S
H3292 C3269 0.950 . S
H3293 C3271 0.950 . S
C3294 C3295 1.349 . S
C3294 C3296 1.327 . S
C3294 H3319 0.950 . S
C3295 C3294 1.349 . S
C3295 C3311 1.349 . S
C3296 C3294 1.327 . S
C3296 C3315 1.429 . S
C3296 H3320 0.950 . S
C3297 C3314 1.574 . S
C3297 C3316 1.368 . S
C3297 H3321 0.949 . S
H3298 C3302 0.949 . S
C3299 C3300 1.349 . S
C3299 C3301 1.327 . S
C3299 H3322 0.950 . S
C3300 C3299 1.349 . S
C3300 C3312 1.349 . S
C3301 C3299 1.327 . S
C3301 C3317 1.429 . S
C3301 H3323 0.950 . S
C3302 H3298 0.949 . S
C3302 C3310 1.574 . S
C3302 C3318 1.368 . S
H3303 C3311 0.950 . S
H3304 C3309 0.950 . S
H3305 C3310 0.949 . S
H3306 C3312 0.950 . S
H3307 C3313 0.950 . S
H3308 C3314 0.949 . S
C3309 H3304 0.950 . S
C3309 C3311 1.327 . S
C3309 C3315 1.429 . S
C3310 C3302 1.574 . S
C3310 H3305 0.949 . S
C3310 C3316 1.368 . S
C3311 C3295 1.349 . S
C3311 H3303 0.950 . S
C3311 C3309 1.327 . S
C3312 C3300 1.349 . S
C3312 H3306 0.950 . S
C3312 C3313 1.327 . S
C3313 H3307 0.950 . S
C3313 C3312 1.327 . S
C3313 C3317 1.429 . S
C3314 C3297 1.574 . S
C3314 H3308 0.949 . S
C3314 C3318 1.368 . S
C3315 C3296 1.429 . S
C3315 C3309 1.429 . S
C3315 C3316 1.523 . S
C3316 C3297 1.368 . S
C3316 C3310 1.368 . S
C3316 C3315 1.523 . S
C3317 C3301 1.429 . S
C3317 C3313 1.429 . S
C3317 C3318 1.523 . S
C3318 C3302 1.368 . S
C3318 C3314 1.368 . S
C3318 C3317 1.523 . S
H3319 C3294 0.950 . S
H3320 C3296 0.950 . S
H3321 C3297 0.949 . S
H3322 C3299 0.950 . S
H3323 C3301 0.950 . S
C3324 C3325 1.349 1_565 S
C3324 C3326 1.327 . S
C3324 H3349 0.950 . S
C3325 C3324 1.349 1_545 S
C3325 C3341 1.349 . S
C3326 C3324 1.327 . S
C3326 C3345 1.413 1_565 S
C3326 H3350 0.950 . S
C3327 C3344 1.574 . S
C3327 C3346 1.375 . S
C3327 H3351 0.949 . S
H3328 C3332 0.949 . S
C3329 C3330 1.349 1_545 S
C3329 C3331 1.327 . S
C3329 H3352 0.950 . S
C3330 C3329 1.349 1_565 S
C3330 C3342 1.349 . S
C3331 C3329 1.327 . S
C3331 C3347 1.412 1_545 S
C3331 H3353 0.950 . S
C3332 H3328 0.949 . S
C3332 C3340 1.574 . S
C3332 C3348 1.377 . S
H3333 C3341 0.950 . S
H3334 C3339 0.950 . S
H3335 C3340 0.949 . S
H3336 C3342 0.950 . S
H3337 C3343 0.950 . S
H3338 C3344 0.949 . S
C3339 H3334 0.950 . S
C3339 C3341 1.327 . S
C3339 C3345 1.446 . S
C3340 C3332 1.574 . S
C3340 H3335 0.949 . S
C3340 C3346 1.362 1_565 S
C3341 C3325 1.349 . S
C3341 H3333 0.950 . S
C3341 C3339 1.327 . S
C3342 C3330 1.349 . S
C3342 H3336 0.950 . S
C3342 C3343 1.327 . S
C3343 H3337 0.950 . S
C3343 C3342 1.327 . S
C3343 C3347 1.448 . S
C3344 C3327 1.574 . S
C3344 H3338 0.949 . S
C3344 C3348 1.360 1_545 S
C3345 C3326 1.413 1_545 S
C3345 C3339 1.446 . S
C3345 C3346 1.523 . S
C3346 C3327 1.375 . S
C3346 C3340 1.362 1_545 S
C3346 C3345 1.523 . S
C3347 C3331 1.412 1_565 S
C3347 C3343 1.448 . S
C3347 C3348 1.523 . S
C3348 C3332 1.377 . S
C3348 C3344 1.360 1_565 S
C3348 C3347 1.523 . S
H3349 C3324 0.950 . S
H3350 C3326 0.950 . S
H3351 C3327 0.949 . S
H3352 C3329 0.950 . S
H3353 C3331 0.950 . S
C3354 C3355 1.368 1_655 S
C3354 C3356 1.328 . S
C3354 H3379 0.932 . S
C3355 C3354 1.368 1_455 S
C3355 C3371 1.349 . S
C3356 C3354 1.328 . S
C3356 C3375 1.443 1_655 S
C3356 H3380 0.950 . S
C3357 C3374 1.574 . S
C3357 C3376 1.364 . S
C3357 H3381 0.949 . S
H3358 C3362 0.949 . S
C3359 C3360 1.361 1_455 S
C3359 C3361 1.328 . S
C3359 H3382 0.938 . S
C3360 C3359 1.361 1_655 S
C3360 C3372 1.349 . S
C3361 C3359 1.328 . S
C3361 C3377 1.429 1_455 S
C3361 H3383 0.950 . S
C3362 H3358 0.949 . S
C3362 C3370 1.574 . S
C3362 C3378 1.358 . S
H3363 C3371 0.950 . S
H3364 C3369 0.950 . S
H3365 C3370 0.949 . S
H3366 C3372 0.950 . S
H3367 C3373 0.950 . S
H3368 C3374 0.949 . S
C3369 H3364 0.950 . S
C3369 C3371 1.327 . S
C3369 C3375 1.416 . S
C3370 C3362 1.574 . S
C3370 H3365 0.949 . S
C3370 C3376 1.372 1_655 S
C3371 C3355 1.349 . S
C3371 H3363 0.950 . S
C3371 C3369 1.327 . S
C3372 C3360 1.349 . S
C3372 H3366 0.950 . S
C3372 C3373 1.327 . S
C3373 H3367 0.950 . S
C3373 C3372 1.327 . S
C3373 C3377 1.429 . S
C3374 C3357 1.574 . S
C3374 H3368 0.949 . S
C3374 C3378 1.379 1_455 S
C3375 C3356 1.443 1_455 S
C3375 C3369 1.416 . S
C3375 C3376 1.523 . S
C3376 C3357 1.364 . S
C3376 C3370 1.372 1_455 S
C3376 C3375 1.523 . S
C3377 C3361 1.429 1_655 S
C3377 C3373 1.429 . S
C3377 C3378 1.524 . S
C3378 C3362 1.358 . S
C3378 C3374 1.379 1_655 S
C3378 C3377 1.524 . S
H3379 C3354 0.932 . S
H3380 C3356 0.950 . S
H3381 C3357 0.949 . S
H3382 C3359 0.938 . S
H3383 C3361 0.950 . S
C3384 C3385 1.349 . S
C3384 C3386 1.327 . S
C3384 H3409 0.950 . S
C3385 C3384 1.349 . S
C3385 C3401 1.349 . S
C3386 C3384 1.327 . S
C3386 C3405 1.429 . S
C3386 H3410 0.950 . S
C3387 C3404 1.574 . S
C3387 C3406 1.368 . S
C3387 H3411 0.949 . S
H3388 C3392 0.949 . S
C3389 C3390 1.349 . S
C3389 C3391 1.327 . S
C3389 H3412 0.950 . S
C3390 C3389 1.349 . S
C3390 C3402 1.349 . S
C3391 C3389 1.327 . S
C3391 C3407 1.429 . S
C3391 H3413 0.950 . S
C3392 H3388 0.949 . S
C3392 C3400 1.574 . S
C3392 C3408 1.368 . S
H3393 C3401 0.950 . S
H3394 C3399 0.950 . S
H3395 C3400 0.949 . S
H3396 C3402 0.950 . S
H3397 C3403 0.950 . S
H3398 C3404 0.949 . S
C3399 H3394 0.950 . S
C3399 C3401 1.327 . S
C3399 C3405 1.429 . S
C3400 C3392 1.574 . S
C3400 H3395 0.949 . S
C3400 C3406 1.368 . S
C3401 C3385 1.349 . S
C3401 H3393 0.950 . S
C3401 C3399 1.327 . S
C3402 C3390 1.349 . S
C3402 H3396 0.950 . S
C3402 C3403 1.327 . S
C3403 H3397 0.950 . S
C3403 C3402 1.327 . S
C3403 C3407 1.429 . S
C3404 C3387 1.574 . S
C3404 H3398 0.949 . S
C3404 C3408 1.368 . S
C3405 C3386 1.429 . S
C3405 C3399 1.429 . S
C3405 C3406 1.523 . S
C3406 C3387 1.368 . S
C3406 C3400 1.368 . S
C3406 C3405 1.523 . S
C3407 C3391 1.429 . S
C3407 C3403 1.429 . S
C3407 C3408 1.523 . S
C3408 C3392 1.368 . S
C3408 C3404 1.368 . S
C3408 C3407 1.523 . S
H3409 C3384 0.950 . S
H3410 C3386 0.950 . S
H3411 C3387 0.949 . S
H3412 C3389 0.950 . S
H3413 C3391 0.950 . S
C3414 C3415 1.349 . S
C3414 C3416 1.327 . S
C3414 H3439 0.950 . S
C3415 C3414 1.349 . S
C3415 C3431 1.349 . S
C3416 C3414 1.327 . S
C3416 C3435 1.429 . S
C3416 H3440 0.950 . S
C3417 C3434 1.574 . S
C3417 C3436 1.368 . S
C3417 H3441 0.949 . S
H3418 C3422 0.949 . S
C3419 C3420 1.349 . S
C3419 C3421 1.327 . S
C3419 H3442 0.950 . S
C3420 C3419 1.349 . S
C3420 C3432 1.349 . S
C3421 C3419 1.327 . S
C3421 C3437 1.429 . S
C3421 H3443 0.950 . S
C3422 H3418 0.949 . S
C3422 C3430 1.574 . S
C3422 C3438 1.368 . S
H3423 C3431 0.950 . S
H3424 C3429 0.950 . S
H3425 C3430 0.949 . S
H3426 C3432 0.950 . S
H3427 C3433 0.950 . S
H3428 C3434 0.949 . S
C3429 H3424 0.950 . S
C3429 C3431 1.327 . S
C3429 C3435 1.429 . S
C3430 C3422 1.574 . S
C3430 H3425 0.949 . S
C3430 C3436 1.368 . S
C3431 C3415 1.349 . S
C3431 H3423 0.950 . S
C3431 C3429 1.327 . S
C3432 C3420 1.349 . S
C3432 H3426 0.950 . S
C3432 C3433 1.327 . S
C3433 H3427 0.950 . S
C3433 C3432 1.327 . S
C3433 C3437 1.429 . S
C3434 C3417 1.574 . S
C3434 H3428 0.949 . S
C3434 C3438 1.368 . S
C3435 C3416 1.429 . S
C3435 C3429 1.429 . S
C3435 C3436 1.523 . S
C3436 C3417 1.368 . S
C3436 C3430 1.368 . S
C3436 C3435 1.523 . S
C3437 C3421 1.429 . S
C3437 C3433 1.429 . S
C3437 C3438 1.523 . S
C3438 C3422 1.368 . S
C3438 C3434 1.368 . S
C3438 C3437 1.523 . S
H3439 C3414 0.950 . S
H3440 C3416 0.950 . S
H3441 C3417 0.949 . S
H3442 C3419 0.950 . S
H3443 C3421 0.950 . S
C3444 C3445 1.349 . S
C3444 C3446 1.327 . S
C3444 H3469 0.950 . S
C3445 C3444 1.349 . S
C3445 C3461 1.349 . S
C3446 C3444 1.327 . S
C3446 C3465 1.429 . S
C3446 H3470 0.950 . S
C3447 C3464 1.574 . S
C3447 C3466 1.368 . S
C3447 H3471 0.949 . S
H3448 C3452 0.949 . S
C3449 C3450 1.349 . S
C3449 C3451 1.327 . S
C3449 H3472 0.950 . S
C3450 C3449 1.349 . S
C3450 C3462 1.349 . S
C3451 C3449 1.327 . S
C3451 C3467 1.429 . S
C3451 H3473 0.950 . S
C3452 H3448 0.949 . S
C3452 C3460 1.574 . S
C3452 C3468 1.368 . S
H3453 C3461 0.950 . S
H3454 C3459 0.950 . S
H3455 C3460 0.949 . S
H3456 C3462 0.950 . S
H3457 C3463 0.950 . S
H3458 C3464 0.949 . S
C3459 H3454 0.950 . S
C3459 C3461 1.327 . S
C3459 C3465 1.429 . S
C3460 C3452 1.574 . S
C3460 H3455 0.949 . S
C3460 C3466 1.368 . S
C3461 C3445 1.349 . S
C3461 H3453 0.950 . S
C3461 C3459 1.327 . S
C3462 C3450 1.349 . S
C3462 H3456 0.950 . S
C3462 C3463 1.327 . S
C3463 H3457 0.950 . S
C3463 C3462 1.327 . S
C3463 C3467 1.429 . S
C3464 C3447 1.574 . S
C3464 H3458 0.949 . S
C3464 C3468 1.368 . S
C3465 C3446 1.429 . S
C3465 C3459 1.429 . S
C3465 C3466 1.523 . S
C3466 C3447 1.368 . S
C3466 C3460 1.368 . S
C3466 C3465 1.523 . S
C3467 C3451 1.429 . S
C3467 C3463 1.429 . S
C3467 C3468 1.523 . S
C3468 C3452 1.368 . S
C3468 C3464 1.368 . S
C3468 C3467 1.523 . S
H3469 C3444 0.950 . S
H3470 C3446 0.950 . S
H3471 C3447 0.949 . S
H3472 C3449 0.950 . S
H3473 C3451 0.950 . S
C3474 C3475 1.349 . S
C3474 C3476 1.327 . S
C3474 H3499 0.950 . S
C3475 C3474 1.349 . S
C3475 C3491 1.349 . S
C3476 C3474 1.327 . S
C3476 C3495 1.429 . S
C3476 H3500 0.950 . S
C3477 C3494 1.574 . S
C3477 C3496 1.368 . S
C3477 H3501 0.949 . S
H3478 C3482 0.949 . S
C3479 C3480 1.349 . S
C3479 C3481 1.327 . S
C3479 H3502 0.950 . S
C3480 C3479 1.349 . S
C3480 C3492 1.349 . S
C3481 C3479 1.327 . S
C3481 C3497 1.429 . S
C3481 H3503 0.950 . S
C3482 H3478 0.949 . S
C3482 C3490 1.574 . S
C3482 C3498 1.368 . S
H3483 C3491 0.950 . S
H3484 C3489 0.950 . S
H3485 C3490 0.949 . S
H3486 C3492 0.950 . S
H3487 C3493 0.950 . S
H3488 C3494 0.949 . S
C3489 H3484 0.950 . S
C3489 C3491 1.327 . S
C3489 C3495 1.429 . S
C3490 C3482 1.574 . S
C3490 H3485 0.949 . S
C3490 C3496 1.368 . S
C3491 C3475 1.349 . S
C3491 H3483 0.950 . S
C3491 C3489 1.327 . S
C3492 C3480 1.349 . S
C3492 H3486 0.950 . S
C3492 C3493 1.327 . S
C3493 H3487 0.950 . S
C3493 C3492 1.327 . S
C3493 C3497 1.429 . S
C3494 C3477 1.574 . S
C3494 H3488 0.949 . S
C3494 C3498 1.368 . S
C3495 C3476 1.429 . S
C3495 C3489 1.429 . S
C3495 C3496 1.523 . S
C3496 C3477 1.368 . S
C3496 C3490 1.368 . S
C3496 C3495 1.523 . S
C3497 C3481 1.429 . S
C3497 C3493 1.429 . S
C3497 C3498 1.523 . S
C3498 C3482 1.368 . S
C3498 C3494 1.368 . S
C3498 C3497 1.523 . S
H3499 C3474 0.950 . S
H3500 C3476 0.950 . S
H3501 C3477 0.949 . S
H3502 C3479 0.950 . S
H3503 C3481 0.950 . S
C3504 C3505 1.349 . S
C3504 C3506 1.327 . S
C3504 H3529 0.950 . S
C3505 C3504 1.349 . S
C3505 C3521 1.349 . S
C3506 C3504 1.327 . S
C3506 C3525 1.429 . S
C3506 H3530 0.950 . S
C3507 C3524 1.574 . S
C3507 C3526 1.368 . S
C3507 H3531 0.949 . S
H3508 C3512 0.949 . S
C3509 C3510 1.349 . S
C3509 C3511 1.327 . S
C3509 H3532 0.950 . S
C3510 C3509 1.349 . S
C3510 C3522 1.349 . S
C3511 C3509 1.327 . S
C3511 C3527 1.429 . S
C3511 H3533 0.950 . S
C3512 H3508 0.949 . S
C3512 C3520 1.574 . S
C3512 C3528 1.368 . S
H3513 C3521 0.950 . S
H3514 C3519 0.950 . S
H3515 C3520 0.949 . S
H3516 C3522 0.950 . S
H3517 C3523 0.950 . S
H3518 C3524 0.949 . S
C3519 H3514 0.950 . S
C3519 C3521 1.327 . S
C3519 C3525 1.429 . S
C3520 C3512 1.574 . S
C3520 H3515 0.949 . S
C3520 C3526 1.368 . S
C3521 C3505 1.349 . S
C3521 H3513 0.950 . S
C3521 C3519 1.327 . S
C3522 C3510 1.349 . S
C3522 H3516 0.950 . S
C3522 C3523 1.327 . S
C3523 H3517 0.950 . S
C3523 C3522 1.327 . S
C3523 C3527 1.429 . S
C3524 C3507 1.574 . S
C3524 H3518 0.949 . S
C3524 C3528 1.368 . S
C3525 C3506 1.429 . S
C3525 C3519 1.429 . S
C3525 C3526 1.523 . S
C3526 C3507 1.368 . S
C3526 C3520 1.368 . S
C3526 C3525 1.523 . S
C3527 C3511 1.429 . S
C3527 C3523 1.429 . S
C3527 C3528 1.523 . S
C3528 C3512 1.368 . S
C3528 C3524 1.368 . S
C3528 C3527 1.523 . S
H3529 C3504 0.950 . S
H3530 C3506 0.950 . S
H3531 C3507 0.949 . S
H3532 C3509 0.950 . S
H3533 C3511 0.950 . S
C3534 C3535 1.349 . S
C3534 C3536 1.327 . S
C3534 H3559 0.950 . S
C3535 C3534 1.349 . S
C3535 C3551 1.349 . S
C3536 C3534 1.327 . S
C3536 C3555 1.429 . S
C3536 H3560 0.950 . S
C3537 C3554 1.574 . S
C3537 C3556 1.368 . S
C3537 H3561 0.949 . S
H3538 C3542 0.949 . S
C3539 C3540 1.349 . S
C3539 C3541 1.327 . S
C3539 H3562 0.950 . S
C3540 C3539 1.349 . S
C3540 C3552 1.349 . S
C3541 C3539 1.327 . S
C3541 C3557 1.429 . S
C3541 H3563 0.950 . S
C3542 H3538 0.949 . S
C3542 C3550 1.574 . S
C3542 C3558 1.368 . S
H3543 C3551 0.950 . S
H3544 C3549 0.950 . S
H3545 C3550 0.949 . S
H3546 C3552 0.950 . S
H3547 C3553 0.950 . S
H3548 C3554 0.949 . S
C3549 H3544 0.950 . S
C3549 C3551 1.327 . S
C3549 C3555 1.429 . S
C3550 C3542 1.574 . S
C3550 H3545 0.949 . S
C3550 C3556 1.368 . S
C3551 C3535 1.349 . S
C3551 H3543 0.950 . S
C3551 C3549 1.327 . S
C3552 C3540 1.349 . S
C3552 H3546 0.950 . S
C3552 C3553 1.327 . S
C3553 H3547 0.950 . S
C3553 C3552 1.327 . S
C3553 C3557 1.429 . S
C3554 C3537 1.574 . S
C3554 H3548 0.949 . S
C3554 C3558 1.368 . S
C3555 C3536 1.429 . S
C3555 C3549 1.429 . S
C3555 C3556 1.523 . S
C3556 C3537 1.368 . S
C3556 C3550 1.368 . S
C3556 C3555 1.523 . S
C3557 C3541 1.429 . S
C3557 C3553 1.429 . S
C3557 C3558 1.523 . S
C3558 C3542 1.368 . S
C3558 C3554 1.368 . S
C3558 C3557 1.523 . S
H3559 C3534 0.950 . S
H3560 C3536 0.950 . S
H3561 C3537 0.949 . S
H3562 C3539 0.950 . S
H3563 C3541 0.950 . S
C3564 C3565 1.349 . S
C3564 C3566 1.327 . S
C3564 H3589 0.950 . S
C3565 C3564 1.349 . S
C3565 C3581 1.349 . S
C3566 C3564 1.327 . S
C3566 C3585 1.429 . S
C3566 H3590 0.950 . S
C3567 C3584 1.574 . S
C3567 C3586 1.368 . S
C3567 H3591 0.949 . S
H3568 C3572 0.949 . S
C3569 C3570 1.349 . S
C3569 C3571 1.327 . S
C3569 H3592 0.950 . S
C3570 C3569 1.349 . S
C3570 C3582 1.349 . S
C3571 C3569 1.327 . S
C3571 C3587 1.429 . S
C3571 H3593 0.950 . S
C3572 H3568 0.949 . S
C3572 C3580 1.574 . S
C3572 C3588 1.368 . S
H3573 C3581 0.950 . S
H3574 C3579 0.950 . S
H3575 C3580 0.949 . S
H3576 C3582 0.950 . S
H3577 C3583 0.950 . S
H3578 C3584 0.949 . S
C3579 H3574 0.950 . S
C3579 C3581 1.327 . S
C3579 C3585 1.429 . S
C3580 C3572 1.574 . S
C3580 H3575 0.949 . S
C3580 C3586 1.368 . S
C3581 C3565 1.349 . S
C3581 H3573 0.950 . S
C3581 C3579 1.327 . S
C3582 C3570 1.349 . S
C3582 H3576 0.950 . S
C3582 C3583 1.327 . S
C3583 H3577 0.950 . S
C3583 C3582 1.327 . S
C3583 C3587 1.429 . S
C3584 C3567 1.574 . S
C3584 H3578 0.949 . S
C3584 C3588 1.368 . S
C3585 C3566 1.429 . S
C3585 C3579 1.429 . S
C3585 C3586 1.523 . S
C3586 C3567 1.368 . S
C3586 C3580 1.368 . S
C3586 C3585 1.523 . S
C3587 C3571 1.429 . S
C3587 C3583 1.429 . S
C3587 C3588 1.523 . S
C3588 C3572 1.368 . S
C3588 C3584 1.368 . S
C3588 C3587 1.523 . S
H3589 C3564 0.950 . S
H3590 C3566 0.950 . S
H3591 C3567 0.949 . S
H3592 C3569 0.950 . S
H3593 C3571 0.950 . S
C3594 C3595 1.349 . S
C3594 C3596 1.327 . S
C3594 H3619 0.950 . S
C3595 C3594 1.349 . S
C3595 C3611 1.349 . S
C3596 C3594 1.327 . S
C3596 C3615 1.429 . S
C3596 H3620 0.950 . S
C3597 C3614 1.574 . S
C3597 C3616 1.368 . S
C3597 H3621 0.949 . S
H3598 C3602 0.949 . S
C3599 C3600 1.349 . S
C3599 C3601 1.327 . S
C3599 H3622 0.950 . S
C3600 C3599 1.349 . S
C3600 C3612 1.349 . S
C3601 C3599 1.327 . S
C3601 C3617 1.429 . S
C3601 H3623 0.950 . S
C3602 H3598 0.949 . S
C3602 C3610 1.574 . S
C3602 C3618 1.368 . S
H3603 C3611 0.950 . S
H3604 C3609 0.950 . S
H3605 C3610 0.949 . S
H3606 C3612 0.950 . S
H3607 C3613 0.950 . S
H3608 C3614 0.949 . S
C3609 H3604 0.950 . S
C3609 C3611 1.327 . S
C3609 C3615 1.429 . S
C3610 C3602 1.574 . S
C3610 H3605 0.949 . S
C3610 C3616 1.368 . S
C3611 C3595 1.349 . S
C3611 H3603 0.950 . S
C3611 C3609 1.327 . S
C3612 C3600 1.349 . S
C3612 H3606 0.950 . S
C3612 C3613 1.327 . S
C3613 H3607 0.950 . S
C3613 C3612 1.327 . S
C3613 C3617 1.429 . S
C3614 C3597 1.574 . S
C3614 H3608 0.949 . S
C3614 C3618 1.368 . S
C3615 C3596 1.429 . S
C3615 C3609 1.429 . S
C3615 C3616 1.523 . S
C3616 C3597 1.368 . S
C3616 C3610 1.368 . S
C3616 C3615 1.523 . S
C3617 C3601 1.429 . S
C3617 C3613 1.429 . S
C3617 C3618 1.523 . S
C3618 C3602 1.368 . S
C3618 C3614 1.368 . S
C3618 C3617 1.523 . S
H3619 C3594 0.950 . S
H3620 C3596 0.950 . S
H3621 C3597 0.949 . S
H3622 C3599 0.950 . S
H3623 C3601 0.950 . S
C3624 C3625 1.349 . S
C3624 C3626 1.327 . S
C3624 H3649 0.950 . S
C3625 C3624 1.349 . S
C3625 C3641 1.349 . S
C3626 C3624 1.327 . S
C3626 C3645 1.429 . S
C3626 H3650 0.950 . S
C3627 C3644 1.574 . S
C3627 C3646 1.368 . S
C3627 H3651 0.949 . S
H3628 C3632 0.949 . S
C3629 C3630 1.349 . S
C3629 C3631 1.327 . S
C3629 H3652 0.950 . S
C3630 C3629 1.349 . S
C3630 C3642 1.349 . S
C3631 C3629 1.327 . S
C3631 C3647 1.429 . S
C3631 H3653 0.950 . S
C3632 H3628 0.949 . S
C3632 C3640 1.574 . S
C3632 C3648 1.368 . S
H3633 C3641 0.950 . S
H3634 C3639 0.950 . S
H3635 C3640 0.949 . S
H3636 C3642 0.950 . S
H3637 C3643 0.950 . S
H3638 C3644 0.949 . S
C3639 H3634 0.950 . S
C3639 C3641 1.327 . S
C3639 C3645 1.429 . S
C3640 C3632 1.574 . S
C3640 H3635 0.949 . S
C3640 C3646 1.368 . S
C3641 C3625 1.349 . S
C3641 H3633 0.950 . S
C3641 C3639 1.327 . S
C3642 C3630 1.349 . S
C3642 H3636 0.950 . S
C3642 C3643 1.327 . S
C3643 H3637 0.950 . S
C3643 C3642 1.327 . S
C3643 C3647 1.429 . S
C3644 C3627 1.574 . S
C3644 H3638 0.949 . S
C3644 C3648 1.368 . S
C3645 C3626 1.429 . S
C3645 C3639 1.429 . S
C3645 C3646 1.523 . S
C3646 C3627 1.368 . S
C3646 C3640 1.368 . S
C3646 C3645 1.523 . S
C3647 C3631 1.429 . S
C3647 C3643 1.429 . S
C3647 C3648 1.523 . S
C3648 C3632 1.368 . S
C3648 C3644 1.368 . S
C3648 C3647 1.523 . S
H3649 C3624 0.950 . S
H3650 C3626 0.950 . S
H3651 C3627 0.949 . S
H3652 C3629 0.950 . S
H3653 C3631 0.950 . S
C3654 C3655 1.349 . S
C3654 C3656 1.327 . S
C3654 H3679 0.950 . S
C3655 C3654 1.349 . S
C3655 C3671 1.349 . S
C3656 C3654 1.327 . S
C3656 C3675 1.429 . S
C3656 H3680 0.950 . S
C3657 C3674 1.574 . S
C3657 C3676 1.368 . S
C3657 H3681 0.949 . S
H3658 C3662 0.949 . S
C3659 C3660 1.349 . S
C3659 C3661 1.327 . S
C3659 H3682 0.950 . S
C3660 C3659 1.349 . S
C3660 C3672 1.349 . S
C3661 C3659 1.327 . S
C3661 C3677 1.429 . S
C3661 H3683 0.950 . S
C3662 H3658 0.949 . S
C3662 C3670 1.574 . S
C3662 C3678 1.368 . S
H3663 C3671 0.950 . S
H3664 C3669 0.950 . S
H3665 C3670 0.949 . S
H3666 C3672 0.950 . S
H3667 C3673 0.950 . S
H3668 C3674 0.949 . S
C3669 H3664 0.950 . S
C3669 C3671 1.327 . S
C3669 C3675 1.429 . S
C3670 C3662 1.574 . S
C3670 H3665 0.949 . S
C3670 C3676 1.368 . S
C3671 C3655 1.349 . S
C3671 H3663 0.950 . S
C3671 C3669 1.327 . S
C3672 C3660 1.349 . S
C3672 H3666 0.950 . S
C3672 C3673 1.327 . S
C3673 H3667 0.950 . S
C3673 C3672 1.327 . S
C3673 C3677 1.429 . S
C3674 C3657 1.574 . S
C3674 H3668 0.949 . S
C3674 C3678 1.368 . S
C3675 C3656 1.429 . S
C3675 C3669 1.429 . S
C3675 C3676 1.523 . S
C3676 C3657 1.368 . S
C3676 C3670 1.368 . S
C3676 C3675 1.523 . S
C3677 C3661 1.429 . S
C3677 C3673 1.429 . S
C3677 C3678 1.523 . S
C3678 C3662 1.368 . S
C3678 C3674 1.368 . S
C3678 C3677 1.523 . S
H3679 C3654 0.950 . S
H3680 C3656 0.950 . S
H3681 C3657 0.949 . S
H3682 C3659 0.950 . S
H3683 C3661 0.950 . S
C3684 C3685 1.349 . S
C3684 C3686 1.327 . S
C3684 H3709 0.950 . S
C3685 C3684 1.349 . S
C3685 C3701 1.349 . S
C3686 C3684 1.327 . S
C3686 C3705 1.429 . S
C3686 H3710 0.950 . S
C3687 C3704 1.574 . S
C3687 C3706 1.368 . S
C3687 H3711 0.949 . S
H3688 C3692 0.949 . S
C3689 C3690 1.349 . S
C3689 C3691 1.327 . S
C3689 H3712 0.950 . S
C3690 C3689 1.349 . S
C3690 C3702 1.349 . S
C3691 C3689 1.327 . S
C3691 C3707 1.429 . S
C3691 H3713 0.950 . S
C3692 H3688 0.949 . S
C3692 C3700 1.574 . S
C3692 C3708 1.368 . S
H3693 C3701 0.950 . S
H3694 C3699 0.950 . S
H3695 C3700 0.949 . S
H3696 C3702 0.950 . S
H3697 C3703 0.950 . S
H3698 C3704 0.949 . S
C3699 H3694 0.950 . S
C3699 C3701 1.327 . S
C3699 C3705 1.429 . S
C3700 C3692 1.574 . S
C3700 H3695 0.949 . S
C3700 C3706 1.368 . S
C3701 C3685 1.349 . S
C3701 H3693 0.950 . S
C3701 C3699 1.327 . S
C3702 C3690 1.349 . S
C3702 H3696 0.950 . S
C3702 C3703 1.327 . S
C3703 H3697 0.950 . S
C3703 C3702 1.327 . S
C3703 C3707 1.429 . S
C3704 C3687 1.574 . S
C3704 H3698 0.949 . S
C3704 C3708 1.368 . S
C3705 C3686 1.429 . S
C3705 C3699 1.429 . S
C3705 C3706 1.523 . S
C3706 C3687 1.368 . S
C3706 C3700 1.368 . S
C3706 C3705 1.523 . S
C3707 C3691 1.429 . S
C3707 C3703 1.429 . S
C3707 C3708 1.523 . S
C3708 C3692 1.368 . S
C3708 C3704 1.368 . S
C3708 C3707 1.523 . S
H3709 C3684 0.950 . S
H3710 C3686 0.950 . S
H3711 C3687 0.949 . S
H3712 C3689 0.950 . S
H3713 C3691 0.950 . S
C3714 C3715 1.349 . S
C3714 C3716 1.327 . S
C3714 H3739 0.950 . S
C3715 C3714 1.349 . S
C3715 C3731 1.349 . S
C3716 C3714 1.327 . S
C3716 C3735 1.429 . S
C3716 H3740 0.950 . S
C3717 C3734 1.574 . S
C3717 C3736 1.368 . S
C3717 H3741 0.949 . S
H3718 C3722 0.949 . S
C3719 C3720 1.349 . S
C3719 C3721 1.327 . S
C3719 H3742 0.950 . S
C3720 C3719 1.349 . S
C3720 C3732 1.349 . S
C3721 C3719 1.327 . S
C3721 C3737 1.429 . S
C3721 H3743 0.950 . S
C3722 H3718 0.949 . S
C3722 C3730 1.574 . S
C3722 C3738 1.368 . S
H3723 C3731 0.950 . S
H3724 C3729 0.950 . S
H3725 C3730 0.949 . S
H3726 C3732 0.950 . S
H3727 C3733 0.950 . S
H3728 C3734 0.949 . S
C3729 H3724 0.950 . S
C3729 C3731 1.327 . S
C3729 C3735 1.429 . S
C3730 C3722 1.574 . S
C3730 H3725 0.949 . S
C3730 C3736 1.368 . S
C3731 C3715 1.349 . S
C3731 H3723 0.950 . S
C3731 C3729 1.327 . S
C3732 C3720 1.349 . S
C3732 H3726 0.950 . S
C3732 C3733 1.327 . S
C3733 H3727 0.950 . S
C3733 C3732 1.327 . S
C3733 C3737 1.429 . S
C3734 C3717 1.574 . S
C3734 H3728 0.949 . S
C3734 C3738 1.368 . S
C3735 C3716 1.429 . S
C3735 C3729 1.429 . S
C3735 C3736 1.523 . S
C3736 C3717 1.368 . S
C3736 C3730 1.368 . S
C3736 C3735 1.523 . S
C3737 C3721 1.429 . S
C3737 C3733 1.429 . S
C3737 C3738 1.523 . S
C3738 C3722 1.368 . S
C3738 C3734 1.368 . S
C3738 C3737 1.523 . S
H3739 C3714 0.950 . S
H3740 C3716 0.950 . S
H3741 C3717 0.949 . S
H3742 C3719 0.950 . S
H3743 C3721 0.950 . S
C3744 C3745 1.349 . S
C3744 C3746 1.327 . S
C3744 H3769 0.950 . S
C3745 C3744 1.349 . S
C3745 C3761 1.349 . S
C3746 C3744 1.327 . S
C3746 C3765 1.429 . S
C3746 H3770 0.950 . S
C3747 C3764 1.574 . S
C3747 C3766 1.368 . S
C3747 H3771 0.949 . S
H3748 C3752 0.949 . S
C3749 C3750 1.349 . S
C3749 C3751 1.327 . S
C3749 H3772 0.950 . S
C3750 C3749 1.349 . S
C3750 C3762 1.349 . S
C3751 C3749 1.327 . S
C3751 C3767 1.429 . S
C3751 H3773 0.950 . S
C3752 H3748 0.949 . S
C3752 C3760 1.574 . S
C3752 C3768 1.368 . S
H3753 C3761 0.950 . S
H3754 C3759 0.950 . S
H3755 C3760 0.949 . S
H3756 C3762 0.950 . S
H3757 C3763 0.950 . S
H3758 C3764 0.949 . S
C3759 H3754 0.950 . S
C3759 C3761 1.327 . S
C3759 C3765 1.429 . S
C3760 C3752 1.574 . S
C3760 H3755 0.949 . S
C3760 C3766 1.368 . S
C3761 C3745 1.349 . S
C3761 H3753 0.950 . S
C3761 C3759 1.327 . S
C3762 C3750 1.349 . S
C3762 H3756 0.950 . S
C3762 C3763 1.327 . S
C3763 H3757 0.950 . S
C3763 C3762 1.327 . S
C3763 C3767 1.429 . S
C3764 C3747 1.574 . S
C3764 H3758 0.949 . S
C3764 C3768 1.368 . S
C3765 C3746 1.429 . S
C3765 C3759 1.429 . S
C3765 C3766 1.523 . S
C3766 C3747 1.368 . S
C3766 C3760 1.368 . S
C3766 C3765 1.523 . S
C3767 C3751 1.429 . S
C3767 C3763 1.429 . S
C3767 C3768 1.523 . S
C3768 C3752 1.368 . S
C3768 C3764 1.368 . S
C3768 C3767 1.523 . S
H3769 C3744 0.950 . S
H3770 C3746 0.950 . S
H3771 C3747 0.949 . S
H3772 C3749 0.950 . S
H3773 C3751 0.950 . S
C3774 C3775 1.349 . S
C3774 C3776 1.327 . S
C3774 H3799 0.950 . S
C3775 C3774 1.349 . S
C3775 C3791 1.349 . S
C3776 C3774 1.327 . S
C3776 C3795 1.429 . S
C3776 H3800 0.950 . S
C3777 C3794 1.574 . S
C3777 C3796 1.368 . S
C3777 H3801 0.949 . S
H3778 C3782 0.949 . S
C3779 C3780 1.349 . S
C3779 C3781 1.327 . S
C3779 H3802 0.950 . S
C3780 C3779 1.349 . S
C3780 C3792 1.349 . S
C3781 C3779 1.327 . S
C3781 C3797 1.429 . S
C3781 H3803 0.950 . S
C3782 H3778 0.949 . S
C3782 C3790 1.574 . S
C3782 C3798 1.368 . S
H3783 C3791 0.950 . S
H3784 C3789 0.950 . S
H3785 C3790 0.949 . S
H3786 C3792 0.950 . S
H3787 C3793 0.950 . S
H3788 C3794 0.949 . S
C3789 H3784 0.950 . S
C3789 C3791 1.327 . S
C3789 C3795 1.429 . S
C3790 C3782 1.574 . S
C3790 H3785 0.949 . S
C3790 C3796 1.368 . S
C3791 C3775 1.349 . S
C3791 H3783 0.950 . S
C3791 C3789 1.327 . S
C3792 C3780 1.349 . S
C3792 H3786 0.950 . S
C3792 C3793 1.327 . S
C3793 H3787 0.950 . S
C3793 C3792 1.327 . S
C3793 C3797 1.429 . S
C3794 C3777 1.574 . S
C3794 H3788 0.949 . S
C3794 C3798 1.368 . S
C3795 C3776 1.429 . S
C3795 C3789 1.429 . S
C3795 C3796 1.523 . S
C3796 C3777 1.368 . S
C3796 C3790 1.368 . S
C3796 C3795 1.523 . S
C3797 C3781 1.429 . S
C3797 C3793 1.429 . S
C3797 C3798 1.523 . S
C3798 C3782 1.368 . S
C3798 C3794 1.368 . S
C3798 C3797 1.523 . S
H3799 C3774 0.950 . S
H3800 C3776 0.950 . S
H3801 C3777 0.949 . S
H3802 C3779 0.950 . S
H3803 C3781 0.950 . S
C3804 C3805 1.349 . S
C3804 C3806 1.327 . S
C3804 H3829 0.950 . S
C3805 C3804 1.349 . S
C3805 C3821 1.349 . S
C3806 C3804 1.327 . S
C3806 C3825 1.429 . S
C3806 H3830 0.950 . S
C3807 C3824 1.574 . S
C3807 C3826 1.368 . S
C3807 H3831 0.949 . S
H3808 C3812 0.949 . S
C3809 C3810 1.349 . S
C3809 C3811 1.327 . S
C3809 H3832 0.950 . S
C3810 C3809 1.349 . S
C3810 C3822 1.349 . S
C3811 C3809 1.327 . S
C3811 C3827 1.429 . S
C3811 H3833 0.950 . S
C3812 H3808 0.949 . S
C3812 C3820 1.574 . S
C3812 C3828 1.368 . S
H3813 C3821 0.950 . S
H3814 C3819 0.950 . S
H3815 C3820 0.949 . S
H3816 C3822 0.950 . S
H3817 C3823 0.950 . S
H3818 C3824 0.949 . S
C3819 H3814 0.950 . S
C3819 C3821 1.327 . S
C3819 C3825 1.429 . S
C3820 C3812 1.574 . S
C3820 H3815 0.949 . S
C3820 C3826 1.368 . S
C3821 C3805 1.349 . S
C3821 H3813 0.950 . S
C3821 C3819 1.327 . S
C3822 C3810 1.349 . S
C3822 H3816 0.950 . S
C3822 C3823 1.327 . S
C3823 H3817 0.950 . S
C3823 C3822 1.327 . S
C3823 C3827 1.429 . S
C3824 C3807 1.574 . S
C3824 H3818 0.949 . S
C3824 C3828 1.368 . S
C3825 C3806 1.429 . S
C3825 C3819 1.429 . S
C3825 C3826 1.523 . S
C3826 C3807 1.368 . S
C3826 C3820 1.368 . S
C3826 C3825 1.523 . S
C3827 C3811 1.429 . S
C3827 C3823 1.429 . S
C3827 C3828 1.523 . S
C3828 C3812 1.368 . S
C3828 C3824 1.368 . S
C3828 C3827 1.523 . S
H3829 C3804 0.950 . S
H3830 C3806 0.950 . S
H3831 C3807 0.949 . S
H3832 C3809 0.950 . S
H3833 C3811 0.950 . S
C3834 C3835 1.349 . S
C3834 C3836 1.327 . S
C3834 H3859 0.950 . S
C3835 C3834 1.349 . S
C3835 C3851 1.349 . S
C3836 C3834 1.327 . S
C3836 C3855 1.429 . S
C3836 H3860 0.950 . S
C3837 C3854 1.574 . S
C3837 C3856 1.368 . S
C3837 H3861 0.949 . S
H3838 C3842 0.949 . S
C3839 C3840 1.349 . S
C3839 C3841 1.327 . S
C3839 H3862 0.950 . S
C3840 C3839 1.349 . S
C3840 C3852 1.349 . S
C3841 C3839 1.327 . S
C3841 C3857 1.429 . S
C3841 H3863 0.950 . S
C3842 H3838 0.949 . S
C3842 C3850 1.574 . S
C3842 C3858 1.368 . S
H3843 C3851 0.950 . S
H3844 C3849 0.950 . S
H3845 C3850 0.949 . S
H3846 C3852 0.950 . S
H3847 C3853 0.950 . S
H3848 C3854 0.949 . S
C3849 H3844 0.950 . S
C3849 C3851 1.327 . S
C3849 C3855 1.429 . S
C3850 C3842 1.574 . S
C3850 H3845 0.949 . S
C3850 C3856 1.368 . S
C3851 C3835 1.349 . S
C3851 H3843 0.950 . S
C3851 C3849 1.327 . S
C3852 C3840 1.349 . S
C3852 H3846 0.950 . S
C3852 C3853 1.327 . S
C3853 H3847 0.950 . S
C3853 C3852 1.327 . S
C3853 C3857 1.429 . S
C3854 C3837 1.574 . S
C3854 H3848 0.949 . S
C3854 C3858 1.368 . S
C3855 C3836 1.429 . S
C3855 C3849 1.429 . S
C3855 C3856 1.523 . S
C3856 C3837 1.368 . S
C3856 C3850 1.368 . S
C3856 C3855 1.523 . S
C3857 C3841 1.429 . S
C3857 C3853 1.429 . S
C3857 C3858 1.523 . S
C3858 C3842 1.368 . S
C3858 C3854 1.368 . S
C3858 C3857 1.523 . S
H3859 C3834 0.950 . S
H3860 C3836 0.950 . S
H3861 C3837 0.949 . S
H3862 C3839 0.950 . S
H3863 C3841 0.950 . S
C3864 C3865 1.349 . S
C3864 C3866 1.327 . S
C3864 H3889 0.950 . S
C3865 C3864 1.349 . S
C3865 C3881 1.349 . S
C3866 C3864 1.327 . S
C3866 C3885 1.429 . S
C3866 H3890 0.950 . S
C3867 C3884 1.574 . S
C3867 C3886 1.368 . S
C3867 H3891 0.949 . S
H3868 C3872 0.949 . S
C3869 C3870 1.349 . S
C3869 C3871 1.327 . S
C3869 H3892 0.950 . S
C3870 C3869 1.349 . S
C3870 C3882 1.349 . S
C3871 C3869 1.327 . S
C3871 C3887 1.429 . S
C3871 H3893 0.950 . S
C3872 H3868 0.949 . S
C3872 C3880 1.574 . S
C3872 C3888 1.368 . S
H3873 C3881 0.950 . S
H3874 C3879 0.950 . S
H3875 C3880 0.949 . S
H3876 C3882 0.950 . S
H3877 C3883 0.950 . S
H3878 C3884 0.949 . S
C3879 H3874 0.950 . S
C3879 C3881 1.327 . S
C3879 C3885 1.429 . S
C3880 C3872 1.574 . S
C3880 H3875 0.949 . S
C3880 C3886 1.368 . S
C3881 C3865 1.349 . S
C3881 H3873 0.950 . S
C3881 C3879 1.327 . S
C3882 C3870 1.349 . S
C3882 H3876 0.950 . S
C3882 C3883 1.327 . S
C3883 H3877 0.950 . S
C3883 C3882 1.327 . S
C3883 C3887 1.429 . S
C3884 C3867 1.574 . S
C3884 H3878 0.949 . S
C3884 C3888 1.368 . S
C3885 C3866 1.429 . S
C3885 C3879 1.429 . S
C3885 C3886 1.523 . S
C3886 C3867 1.368 . S
C3886 C3880 1.368 . S
C3886 C3885 1.523 . S
C3887 C3871 1.429 . S
C3887 C3883 1.429 . S
C3887 C3888 1.523 . S
C3888 C3872 1.368 . S
C3888 C3884 1.368 . S
C3888 C3887 1.523 . S
H3889 C3864 0.950 . S
H3890 C3866 0.950 . S
H3891 C3867 0.949 . S
H3892 C3869 0.950 . S
H3893 C3871 0.950 . S
C3894 C3895 1.349 . S
C3894 C3896 1.327 . S
C3894 H3919 0.950 . S
C3895 C3894 1.349 . S
C3895 C3911 1.349 . S
C3896 C3894 1.327 . S
C3896 C3915 1.429 . S
C3896 H3920 0.950 . S
C3897 C3914 1.574 . S
C3897 C3916 1.368 . S
C3897 H3921 0.949 . S
H3898 C3902 0.949 . S
C3899 C3900 1.349 . S
C3899 C3901 1.327 . S
C3899 H3922 0.950 . S
C3900 C3899 1.349 . S
C3900 C3912 1.349 . S
C3901 C3899 1.327 . S
C3901 C3917 1.429 . S
C3901 H3923 0.950 . S
C3902 H3898 0.949 . S
C3902 C3910 1.574 . S
C3902 C3918 1.368 . S
H3903 C3911 0.950 . S
H3904 C3909 0.950 . S
H3905 C3910 0.949 . S
H3906 C3912 0.950 . S
H3907 C3913 0.950 . S
H3908 C3914 0.949 . S
C3909 H3904 0.950 . S
C3909 C3911 1.327 . S
C3909 C3915 1.429 . S
C3910 C3902 1.574 . S
C3910 H3905 0.949 . S
C3910 C3916 1.368 . S
C3911 C3895 1.349 . S
C3911 H3903 0.950 . S
C3911 C3909 1.327 . S
C3912 C3900 1.349 . S
C3912 H3906 0.950 . S
C3912 C3913 1.327 . S
C3913 H3907 0.950 . S
C3913 C3912 1.327 . S
C3913 C3917 1.429 . S
C3914 C3897 1.574 . S
C3914 H3908 0.949 . S
C3914 C3918 1.368 . S
C3915 C3896 1.429 . S
C3915 C3909 1.429 . S
C3915 C3916 1.523 . S
C3916 C3897 1.368 . S
C3916 C3910 1.368 . S
C3916 C3915 1.523 . S
C3917 C3901 1.429 . S
C3917 C3913 1.429 . S
C3917 C3918 1.523 . S
C3918 C3902 1.368 . S
C3918 C3914 1.368 . S
C3918 C3917 1.523 . S
H3919 C3894 0.950 . S
H3920 C3896 0.950 . S
H3921 C3897 0.949 . S
H3922 C3899 0.950 . S
H3923 C3901 0.950 . S
C3924 C3925 1.349 . S
C3924 C3926 1.327 . S
C3924 H3949 0.950 . S
C3925 C3924 1.349 . S
C3925 C3941 1.349 . S
C3926 C3924 1.327 . S
C3926 C3945 1.429 . S
C3926 H3950 0.950 . S
C3927 C3944 1.574 . S
C3927 C3946 1.368 . S
C3927 H3951 0.949 . S
H3928 C3932 0.949 . S
C3929 C3930 1.349 . S
C3929 C3931 1.327 . S
C3929 H3952 0.950 . S
C3930 C3929 1.349 . S
C3930 C3942 1.349 . S
C3931 C3929 1.327 . S
C3931 C3947 1.429 . S
C3931 H3953 0.950 . S
C3932 H3928 0.949 . S
C3932 C3940 1.574 . S
C3932 C3948 1.368 . S
H3933 C3941 0.950 . S
H3934 C3939 0.950 . S
H3935 C3940 0.949 . S
H3936 C3942 0.950 . S
H3937 C3943 0.950 . S
H3938 C3944 0.949 . S
C3939 H3934 0.950 . S
C3939 C3941 1.327 . S
C3939 C3945 1.429 . S
C3940 C3932 1.574 . S
C3940 H3935 0.949 . S
C3940 C3946 1.368 . S
C3941 C3925 1.349 . S
C3941 H3933 0.950 . S
C3941 C3939 1.327 . S
C3942 C3930 1.349 . S
C3942 H3936 0.950 . S
C3942 C3943 1.327 . S
C3943 H3937 0.950 . S
C3943 C3942 1.327 . S
C3943 C3947 1.429 . S
C3944 C3927 1.574 . S
C3944 H3938 0.949 . S
C3944 C3948 1.368 . S
C3945 C3926 1.429 . S
C3945 C3939 1.429 . S
C3945 C3946 1.523 . S
C3946 C3927 1.368 . S
C3946 C3940 1.368 . S
C3946 C3945 1.523 . S
C3947 C3931 1.429 . S
C3947 C3943 1.429 . S
C3947 C3948 1.523 . S
C3948 C3932 1.368 . S
C3948 C3944 1.368 . S
C3948 C3947 1.523 . S
H3949 C3924 0.950 . S
H3950 C3926 0.950 . S
H3951 C3927 0.949 . S
H3952 C3929 0.950 . S
H3953 C3931 0.950 . S
C3954 C3955 1.349 . S
C3954 C3956 1.327 . S
C3954 H3979 0.950 . S
C3955 C3954 1.349 . S
C3955 C3971 1.349 . S
C3956 C3954 1.327 . S
C3956 C3975 1.429 . S
C3956 H3980 0.950 . S
C3957 C3974 1.574 . S
C3957 C3976 1.368 . S
C3957 H3981 0.949 . S
H3958 C3962 0.949 . S
C3959 C3960 1.349 . S
C3959 C3961 1.327 . S
C3959 H3982 0.950 . S
C3960 C3959 1.349 . S
C3960 C3972 1.349 . S
C3961 C3959 1.327 . S
C3961 C3977 1.429 . S
C3961 H3983 0.950 . S
C3962 H3958 0.949 . S
C3962 C3970 1.574 . S
C3962 C3978 1.368 . S
H3963 C3971 0.950 . S
H3964 C3969 0.950 . S
H3965 C3970 0.949 . S
H3966 C3972 0.950 . S
H3967 C3973 0.950 . S
H3968 C3974 0.949 . S
C3969 H3964 0.950 . S
C3969 C3971 1.327 . S
C3969 C3975 1.429 . S
C3970 C3962 1.574 . S
C3970 H3965 0.949 . S
C3970 C3976 1.368 . S
C3971 C3955 1.349 . S
C3971 H3963 0.950 . S
C3971 C3969 1.327 . S
C3972 C3960 1.349 . S
C3972 H3966 0.950 . S
C3972 C3973 1.327 . S
C3973 H3967 0.950 . S
C3973 C3972 1.327 . S
C3973 C3977 1.429 . S
C3974 C3957 1.574 . S
C3974 H3968 0.949 . S
C3974 C3978 1.368 . S
C3975 C3956 1.429 . S
C3975 C3969 1.429 . S
C3975 C3976 1.523 . S
C3976 C3957 1.368 . S
C3976 C3970 1.368 . S
C3976 C3975 1.523 . S
C3977 C3961 1.429 . S
C3977 C3973 1.429 . S
C3977 C3978 1.523 . S
C3978 C3962 1.368 . S
C3978 C3974 1.368 . S
C3978 C3977 1.523 . S
H3979 C3954 0.950 . S
H3980 C3956 0.950 . S
H3981 C3957 0.949 . S
H3982 C3959 0.950 . S
H3983 C3961 0.950 . S
C3984 C3985 1.349 . S
C3984 C3986 1.327 . S
C3984 H4009 0.950 . S
C3985 C3984 1.349 . S
C3985 C4001 1.349 . S
C3986 C3984 1.327 . S
C3986 C4005 1.429 . S
C3986 H4010 0.950 . S
C3987 C4004 1.574 . S
C3987 C4006 1.368 . S
C3987 H4011 0.949 . S
H3988 C3992 0.949 . S
C3989 C3990 1.349 . S
C3989 C3991 1.327 . S
C3989 H4012 0.950 . S
C3990 C3989 1.349 . S
C3990 C4002 1.349 . S
C3991 C3989 1.327 . S
C3991 C4007 1.429 . S
C3991 H4013 0.950 . S
C3992 H3988 0.949 . S
C3992 C4000 1.574 . S
C3992 C4008 1.368 . S
H3993 C4001 0.950 . S
H3994 C3999 0.950 . S
H3995 C4000 0.949 . S
H3996 C4002 0.950 . S
H3997 C4003 0.950 . S
H3998 C4004 0.949 . S
C3999 H3994 0.950 . S
C3999 C4001 1.327 . S
C3999 C4005 1.429 . S
C4000 C3992 1.574 . S
C4000 H3995 0.949 . S
C4000 C4006 1.368 . S
C4001 C3985 1.349 . S
C4001 H3993 0.950 . S
C4001 C3999 1.327 . S
C4002 C3990 1.349 . S
C4002 H3996 0.950 . S
C4002 C4003 1.327 . S
C4003 H3997 0.950 . S
C4003 C4002 1.327 . S
C4003 C4007 1.429 . S
C4004 C3987 1.574 . S
C4004 H3998 0.949 . S
C4004 C4008 1.368 . S
C4005 C3986 1.429 . S
C4005 C3999 1.429 . S
C4005 C4006 1.523 . S
C4006 C3987 1.368 . S
C4006 C4000 1.368 . S
C4006 C4005 1.523 . S
C4007 C3991 1.429 . S
C4007 C4003 1.429 . S
C4007 C4008 1.523 . S
C4008 C3992 1.368 . S
C4008 C4004 1.368 . S
C4008 C4007 1.523 . S
H4009 C3984 0.950 . S
H4010 C3986 0.950 . S
H4011 C3987 0.949 . S
H4012 C3989 0.950 . S
H4013 C3991 0.950 . S
C4014 C4015 1.349 . S
C4014 C4016 1.327 . S
C4014 H4039 0.950 . S
C4015 C4014 1.349 . S
C4015 C4031 1.349 . S
C4016 C4014 1.327 . S
C4016 C4035 1.429 . S
C4016 H4040 0.950 . S
C4017 C4034 1.574 . S
C4017 C4036 1.368 . S
C4017 H4041 0.949 . S
H4018 C4022 0.949 . S
C4019 C4020 1.349 . S
C4019 C4021 1.327 . S
C4019 H4042 0.950 . S
C4020 C4019 1.349 . S
C4020 C4032 1.349 . S
C4021 C4019 1.327 . S
C4021 C4037 1.429 . S
C4021 H4043 0.950 . S
C4022 H4018 0.949 . S
C4022 C4030 1.574 . S
C4022 C4038 1.368 . S
H4023 C4031 0.950 . S
H4024 C4029 0.950 . S
H4025 C4030 0.949 . S
H4026 C4032 0.950 . S
H4027 C4033 0.950 . S
H4028 C4034 0.949 . S
C4029 H4024 0.950 . S
C4029 C4031 1.327 . S
C4029 C4035 1.429 . S
C4030 C4022 1.574 . S
C4030 H4025 0.949 . S
C4030 C4036 1.368 . S
C4031 C4015 1.349 . S
C4031 H4023 0.950 . S
C4031 C4029 1.327 . S
C4032 C4020 1.349 . S
C4032 H4026 0.950 . S
C4032 C4033 1.327 . S
C4033 H4027 0.950 . S
C4033 C4032 1.327 . S
C4033 C4037 1.429 . S
C4034 C4017 1.574 . S
C4034 H4028 0.949 . S
C4034 C4038 1.368 . S
C4035 C4016 1.429 . S
C4035 C4029 1.429 . S
C4035 C4036 1.523 . S
C4036 C4017 1.368 . S
C4036 C4030 1.368 . S
C4036 C4035 1.523 . S
C4037 C4021 1.429 . S
C4037 C4033 1.429 . S
C4037 C4038 1.523 . S
C4038 C4022 1.368 . S
C4038 C4034 1.368 . S
C4038 C4037 1.523 . S
H4039 C4014 0.950 . S
H4040 C4016 0.950 . S
H4041 C4017 0.949 . S
H4042 C4019 0.950 . S
H4043 C4021 0.950 . S
C4044 C4045 1.349 . S
C4044 C4046 1.327 . S
C4044 H4069 0.950 . S
C4045 C4044 1.349 . S
C4045 C4061 1.349 . S
C4046 C4044 1.327 . S
C4046 C4065 1.429 . S
C4046 H4070 0.950 . S
C4047 C4064 1.574 . S
C4047 C4066 1.368 . S
C4047 H4071 0.949 . S
H4048 C4052 0.949 . S
C4049 C4050 1.349 . S
C4049 C4051 1.327 . S
C4049 H4072 0.950 . S
C4050 C4049 1.349 . S
C4050 C4062 1.349 . S
C4051 C4049 1.327 . S
C4051 C4067 1.429 . S
C4051 H4073 0.950 . S
C4052 H4048 0.949 . S
C4052 C4060 1.574 . S
C4052 C4068 1.368 . S
H4053 C4061 0.950 . S
H4054 C4059 0.950 . S
H4055 C4060 0.949 . S
H4056 C4062 0.950 . S
H4057 C4063 0.950 . S
H4058 C4064 0.949 . S
C4059 H4054 0.950 . S
C4059 C4061 1.327 . S
C4059 C4065 1.429 . S
C4060 C4052 1.574 . S
C4060 H4055 0.949 . S
C4060 C4066 1.368 . S
C4061 C4045 1.349 . S
C4061 H4053 0.950 . S
C4061 C4059 1.327 . S
C4062 C4050 1.349 . S
C4062 H4056 0.950 . S
C4062 C4063 1.327 . S
C4063 H4057 0.950 . S
C4063 C4062 1.327 . S
C4063 C4067 1.429 . S
C4064 C4047 1.574 . S
C4064 H4058 0.949 . S
C4064 C4068 1.368 . S
C4065 C4046 1.429 . S
C4065 C4059 1.429 . S
C4065 C4066 1.523 . S
C4066 C4047 1.368 . S
C4066 C4060 1.368 . S
C4066 C4065 1.523 . S
C4067 C4051 1.429 . S
C4067 C4063 1.429 . S
C4067 C4068 1.523 . S
C4068 C4052 1.368 . S
C4068 C4064 1.368 . S
C4068 C4067 1.523 . S
H4069 C4044 0.950 . S
H4070 C4046 0.950 . S
H4071 C4047 0.949 . S
H4072 C4049 0.950 . S
H4073 C4051 0.950 . S
C4074 C4075 1.349 . S
C4074 C4076 1.327 . S
C4074 H4099 0.950 . S
C4075 C4074 1.349 . S
C4075 C4091 1.349 . S
C4076 C4074 1.327 . S
C4076 C4095 1.429 . S
C4076 H4100 0.950 . S
C4077 C4094 1.574 . S
C4077 C4096 1.368 . S
C4077 H4101 0.949 . S
H4078 C4082 0.949 . S
C4079 C4080 1.349 . S
C4079 C4081 1.327 . S
C4079 H4102 0.950 . S
C4080 C4079 1.349 . S
C4080 C4092 1.349 . S
C4081 C4079 1.327 . S
C4081 C4097 1.429 . S
C4081 H4103 0.950 . S
C4082 H4078 0.949 . S
C4082 C4090 1.574 . S
C4082 C4098 1.368 . S
H4083 C4091 0.950 . S
H4084 C4089 0.950 . S
H4085 C4090 0.949 . S
H4086 C4092 0.950 . S
H4087 C4093 0.950 . S
H4088 C4094 0.949 . S
C4089 H4084 0.950 . S
C4089 C4091 1.327 . S
C4089 C4095 1.429 . S
C4090 C4082 1.574 . S
C4090 H4085 0.949 . S
C4090 C4096 1.368 . S
C4091 C4075 1.349 . S
C4091 H4083 0.950 . S
C4091 C4089 1.327 . S
C4092 C4080 1.349 . S
C4092 H4086 0.950 . S
C4092 C4093 1.327 . S
C4093 H4087 0.950 . S
C4093 C4092 1.327 . S
C4093 C4097 1.429 . S
C4094 C4077 1.574 . S
C4094 H4088 0.949 . S
C4094 C4098 1.368 . S
C4095 C4076 1.429 . S
C4095 C4089 1.429 . S
C4095 C4096 1.523 . S
C4096 C4077 1.368 . S
C4096 C4090 1.368 . S
C4096 C4095 1.523 . S
C4097 C4081 1.429 . S
C4097 C4093 1.429 . S
C4097 C4098 1.523 . S
C4098 C4082 1.368 . S
C4098 C4094 1.368 . S
C4098 C4097 1.523 . S
H4099 C4074 0.950 . S
H4100 C4076 0.950 . S
H4101 C4077 0.949 . S
H4102 C4079 0.950 . S
H4103 C4081 0.950 . S
C4104 C4105 1.349 . S
C4104 C4106 1.327 . S
C4104 H4129 0.950 . S
C4105 C4104 1.349 . S
C4105 C4121 1.349 . S
C4106 C4104 1.327 . S
C4106 C4125 1.429 . S
C4106 H4130 0.950 . S
C4107 C4124 1.574 1_455 S
C4107 C4126 1.368 . S
C4107 H4131 0.949 . S
H4108 C4112 0.949 . S
C4109 C4110 1.349 . S
C4109 C4111 1.327 . S
C4109 H4132 0.950 . S
C4110 C4109 1.349 . S
C4110 C4122 1.349 . S
C4111 C4109 1.327 . S
C4111 C4127 1.429 . S
C4111 H4133 0.950 . S
C4112 H4108 0.949 . S
C4112 C4120 1.574 1_655 S
C4112 C4128 1.368 . S
H4113 C4121 0.950 . S
H4114 C4119 0.950 . S
H4115 C4120 0.949 . S
H4116 C4122 0.950 . S
H4117 C4123 0.950 . S
H4118 C4124 0.949 . S
C4119 H4114 0.950 . S
C4119 C4121 1.327 . S
C4119 C4125 1.429 . S
C4120 C4112 1.574 1_455 S
C4120 H4115 0.949 . S
C4120 C4126 1.368 . S
C4121 C4105 1.349 . S
C4121 H4113 0.950 . S
C4121 C4119 1.327 . S
C4122 C4110 1.349 . S
C4122 H4116 0.950 . S
C4122 C4123 1.327 . S
C4123 H4117 0.950 . S
C4123 C4122 1.327 . S
C4123 C4127 1.429 . S
C4124 C4107 1.574 1_655 S
C4124 H4118 0.949 . S
C4124 C4128 1.368 . S
C4125 C4106 1.429 . S
C4125 C4119 1.429 . S
C4125 C4126 1.523 . S
C4126 C4107 1.368 . S
C4126 C4120 1.368 . S
C4126 C4125 1.523 . S
C4127 C4111 1.429 . S
C4127 C4123 1.429 . S
C4127 C4128 1.523 . S
C4128 C4112 1.368 . S
C4128 C4124 1.368 . S
C4128 C4127 1.523 . S
H4129 C4104 0.950 . S
H4130 C4106 0.950 . S
H4131 C4107 0.949 . S
H4132 C4109 0.950 . S
H4133 C4111 0.950 . S
C4134 C4135 1.349 . S
C4134 C4136 1.327 . S
C4134 H4159 0.950 . S
C4135 C4134 1.349 . S
C4135 C4151 1.349 . S
C4136 C4134 1.327 . S
C4136 C4155 1.429 . S
C4136 H4160 0.950 . S
C4137 C4154 1.574 . S
C4137 C4156 1.368 . S
C4137 H4161 0.949 . S
H4138 C4142 0.949 . S
C4139 C4140 1.349 . S
C4139 C4141 1.327 . S
C4139 H4162 0.950 . S
C4140 C4139 1.349 . S
C4140 C4152 1.349 . S
C4141 C4139 1.327 . S
C4141 C4157 1.429 . S
C4141 H4163 0.950 . S
C4142 H4138 0.949 . S
C4142 C4150 1.574 . S
C4142 C4158 1.368 . S
H4143 C4151 0.950 . S
H4144 C4149 0.950 . S
H4145 C4150 0.949 . S
H4146 C4152 0.950 . S
H4147 C4153 0.950 . S
H4148 C4154 0.949 . S
C4149 H4144 0.950 . S
C4149 C4151 1.327 . S
C4149 C4155 1.429 . S
C4150 C4142 1.574 . S
C4150 H4145 0.949 . S
C4150 C4156 1.368 . S
C4151 C4135 1.349 . S
C4151 H4143 0.950 . S
C4151 C4149 1.327 . S
C4152 C4140 1.349 . S
C4152 H4146 0.950 . S
C4152 C4153 1.327 . S
C4153 H4147 0.950 . S
C4153 C4152 1.327 . S
C4153 C4157 1.429 . S
C4154 C4137 1.574 . S
C4154 H4148 0.949 . S
C4154 C4158 1.368 . S
C4155 C4136 1.429 . S
C4155 C4149 1.429 . S
C4155 C4156 1.523 . S
C4156 C4137 1.368 . S
C4156 C4150 1.368 . S
C4156 C4155 1.523 . S
C4157 C4141 1.429 . S
C4157 C4153 1.429 . S
C4157 C4158 1.523 . S
C4158 C4142 1.368 . S
C4158 C4154 1.368 . S
C4158 C4157 1.523 . S
H4159 C4134 0.950 . S
H4160 C4136 0.950 . S
H4161 C4137 0.949 . S
H4162 C4139 0.950 . S
H4163 C4141 0.950 . S
C4164 C4165 1.349 . S
C4164 C4166 1.327 . S
C4164 H4189 0.950 . S
C4165 C4164 1.349 . S
C4165 C4181 1.349 . S
C4166 C4164 1.327 . S
C4166 C4185 1.429 . S
C4166 H4190 0.950 . S
C4167 C4184 1.574 1_545 S
C4167 C4186 1.368 . S
C4167 H4191 0.949 . S
H4168 C4172 0.949 . S
C4169 C4170 1.349 . S
C4169 C4171 1.327 . S
C4169 H4192 0.950 . S
C4170 C4169 1.349 . S
C4170 C4182 1.349 . S
C4171 C4169 1.327 . S
C4171 C4187 1.429 . S
C4171 H4193 0.950 . S
C4172 H4168 0.949 . S
C4172 C4180 1.574 1_565 S
C4172 C4188 1.368 . S
H4173 C4181 0.950 . S
H4174 C4179 0.950 . S
H4175 C4180 0.949 . S
H4176 C4182 0.950 . S
H4177 C4183 0.950 . S
H4178 C4184 0.949 . S
C4179 H4174 0.950 . S
C4179 C4181 1.327 . S
C4179 C4185 1.429 . S
C4180 C4172 1.574 1_545 S
C4180 H4175 0.949 . S
C4180 C4186 1.368 . S
C4181 C4165 1.349 . S
C4181 H4173 0.950 . S
C4181 C4179 1.327 . S
C4182 C4170 1.349 . S
C4182 H4176 0.950 . S
C4182 C4183 1.327 . S
C4183 H4177 0.950 . S
C4183 C4182 1.327 . S
C4183 C4187 1.429 . S
C4184 C4167 1.574 1_565 S
C4184 H4178 0.949 . S
C4184 C4188 1.368 . S
C4185 C4166 1.429 . S
C4185 C4179 1.429 . S
C4185 C4186 1.523 . S
C4186 C4167 1.368 . S
C4186 C4180 1.368 . S
C4186 C4185 1.523 . S
C4187 C4171 1.429 . S
C4187 C4183 1.429 . S
C4187 C4188 1.523 . S
C4188 C4172 1.368 . S
C4188 C4184 1.368 . S
C4188 C4187 1.523 . S
H4189 C4164 0.950 . S
H4190 C4166 0.950 . S
H4191 C4167 0.949 . S
H4192 C4169 0.950 . S
H4193 C4171 0.950 . S
C4194 C4195 1.349 1_556 S
C4194 C4196 1.327 . S
C4194 H4219 0.950 . S
C4195 C4194 1.349 1_554 S
C4195 C4211 1.349 . S
C4196 C4194 1.327 . S
C4196 C4215 1.366 1_556 S
C4196 H4220 0.950 . S
C4197 C4214 1.574 1_545 S
C4197 C4216 1.394 . S
C4197 H4221 0.949 . S
H4198 C4202 0.949 . S
C4199 C4200 1.349 1_554 S
C4199 C4201 1.327 . S
C4199 H4222 0.950 . S
C4200 C4199 1.349 1_556 S
C4200 C4212 1.349 . S
C4201 C4199 1.327 . S
C4201 C4217 1.358 1_554 S
C4201 H4223 0.950 . S
C4202 H4198 0.949 . S
C4202 C4210 1.574 1_565 S
C4202 C4218 1.403 . S
H4203 C4211 0.950 . S
H4204 C4209 0.950 . S
H4205 C4210 0.949 . S
H4206 C4212 0.950 . S
H4207 C4213 0.950 . S
H4208 C4214 0.949 . S
C4209 H4204 0.950 . S
C4209 C4211 1.327 . S
C4209 C4215 1.499 . S
C4210 C4202 1.574 1_545 S
C4210 H4205 0.949 . S
C4210 C4216 1.342 1_556 S
C4211 C4195 1.349 . S
C4211 H4203 0.950 . S
C4211 C4209 1.327 . S
C4212 C4200 1.349 . S
C4212 H4206 0.950 . S
C4212 C4213 1.327 . S
C4213 H4207 0.950 . S
C4213 C4212 1.327 . S
C4213 C4217 1.509 . S
C4214 C4197 1.574 1_565 S
C4214 H4208 0.949 . S
C4214 C4218 1.333 1_554 S
C4215 C4196 1.366 1_554 S
C4215 C4209 1.499 . S
C4215 C4216 1.522 . S
C4216 C4197 1.394 . S
C4216 C4210 1.342 1_554 S
C4216 C4215 1.522 . S
C4217 C4201 1.358 1_556 S
C4217 C4213 1.509 . S
C4217 C4218 1.522 . S
C4218 C4202 1.403 . S
C4218 C4214 1.333 1_556 S
C4218 C4217 1.522 . S
H4219 C4194 0.950 . S
H4220 C4196 0.950 . S
H4221 C4197 0.949 . S
H4222 C4199 0.950 . S
H4223 C4201 0.950 . S
C4224 C4225 1.349 . S
C4224 C4226 1.327 . S
C4224 H4249 0.950 . S
C4225 C4224 1.349 . S
C4225 C4241 1.349 1_554 S
C4226 C4224 1.327 . S
C4226 C4245 1.496 . S
C4226 H4250 0.950 . S
C4227 C4244 1.574 1_655 S
C4227 C4246 1.349 1_556 S
C4227 H4251 0.949 . S
H4228 C4232 0.949 . S
C4229 C4230 1.349 . S
C4229 C4231 1.327 . S
C4229 H4252 0.950 . S
C4230 C4229 1.349 . S
C4230 C4242 1.349 1_556 S
C4231 C4229 1.327 . S
C4231 C4247 1.524 . S
C4231 H4253 0.950 . S
C4232 H4228 0.949 . S
C4232 C4240 1.574 1_455 S
C4232 C4248 1.321 1_554 S
H4233 C4241 0.950 . S
H4234 C4239 0.950 . S
H4235 C4240 0.949 . S
H4236 C4242 0.950 . S
H4237 C4243 0.950 . S
H4238 C4244 0.949 . S
C4239 H4234 0.950 . S
C4239 C4241 1.327 . S
C4239 C4245 1.368 1_556 S
C4240 C4232 1.574 1_655 S
C4240 H4235 0.949 . S
C4240 C4246 1.387 . S
C4241 C4225 1.349 1_556 S
C4241 H4233 0.950 . S
C4241 C4239 1.327 . S
C4242 C4230 1.349 1_554 S
C4242 H4236 0.950 . S
C4242 C4243 1.327 . S
C4243 H4237 0.950 . S
C4243 C4242 1.327 . S
C4243 C4247 1.344 1_554 S
C4244 C4227 1.574 1_455 S
C4244 H4238 0.949 . S
C4244 C4248 1.415 . S
C4245 C4226 1.496 . S
C4245 C4239 1.368 1_554 S
C4245 C4246 1.522 . S
C4246 C4227 1.349 1_554 S
C4246 C4240 1.387 . S
C4246 C4245 1.522 . S
C4247 C4231 1.524 . S
C4247 C4243 1.344 1_556 S
C4247 C4248 1.522 . S
C4248 C4232 1.321 1_556 S
C4248 C4244 1.415 . S
C4248 C4247 1.522 . S
H4249 C4224 0.950 . S
H4250 C4226 0.950 . S
H4251 C4227 0.949 . S
H4252 C4229 0.950 . S
H4253 C4231 0.950 . S
C4254 C4255 1.349 1_554 S
C4254 C4256 1.327 . S
C4254 H4279 0.950 . S
C4255 C4254 1.349 1_556 S
C4255 C4271 1.349 . S
C4256 C4254 1.327 . S
C4256 C4275 1.429 1_554 S
C4256 H4280 0.950 . S
C4257 C4274 1.574 . S
C4257 C4276 1.407 . S
C4257 H4281 0.949 . S
H4258 C4262 0.949 . S
C4259 C4260 1.349 1_556 S
C4259 C4261 1.327 . S
C4259 H4282 0.950 . S
C4260 C4259 1.349 1_554 S
C4260 C4272 1.349 . S
C4261 C4259 1.327 . S
C4261 C4277 1.388 1_556 S
C4261 H4283 0.950 . S
C4262 H4258 0.949 . S
C4262 C4270 1.574 . S
C4262 C4278 1.378 . S
H4263 C4271 0.950 . S
H4264 C4269 0.950 . S
H4265 C4270 0.949 . S
H4266 C4272 0.950 . S
H4267 C4273 0.950 . S
H4268 C4274 0.949 . S
C4269 H4264 0.950 . S
C4269 C4271 1.327 . S
C4269 C4275 1.429 . S
C4270 C4262 1.574 . S
C4270 H4265 0.949 . S
C4270 C4276 1.329 1_554 S
C4271 C4255 1.349 . S
C4271 H4263 0.950 . S
C4271 C4269 1.327 . S
C4272 C4260 1.349 . S
C4272 H4266 0.950 . S
C4272 C4273 1.327 . S
C4273 H4267 0.950 . S
C4273 C4272 1.327 . S
C4273 C4277 1.476 . S
C4274 C4257 1.574 . S
C4274 H4268 0.949 . S
C4274 C4278 1.358 1_556 S
C4275 C4256 1.429 1_556 S
C4275 C4269 1.429 . S
C4275 C4276 1.527 . S
C4276 C4257 1.407 . S
C4276 C4270 1.329 1_556 S
C4276 C4275 1.527 . S
C4277 C4261 1.388 1_554 S
C4277 C4273 1.476 . S
C4277 C4278 1.521 . S
C4278 C4262 1.378 . S
C4278 C4274 1.358 1_554 S
C4278 C4277 1.521 . S
H4279 C4254 0.950 . S
H4280 C4256 0.950 . S
H4281 C4257 0.949 . S
H4282 C4259 0.950 . S
H4283 C4261 0.950 . S
C2125 C33 1.308 . S
C2130 C92 1.346 . S
C2155 C111 1.326 . S
C2160 C151 1.347 . S
C2185 C52 1.345 . S
C2190 C170 1.329 . S
C2215 C229 1.329 . S
C2220 C347 1.344 . S
C2245 C288 1.327 . S
C2250 C210 1.347 . S
C2275 C269 1.347 . S
C2280 C328 1.308 . S
C2305 C406 1.326 . S
C2310 C446 1.347 . S
C2335 C505 1.346 . S
C2340 C465 1.325 . S
C2365 C387 1.349 . S
C2370 C524 1.328 . S
C2395 C682 1.349 . S
C2400 C583 1.328 . S
C2425 C642 1.326 . S
C2430 C564 1.347 . S
C2455 C701 1.327 . S
C2460 C623 1.348 . S
C2485 C800 1.346 . S
C2490 C741 1.308 . S
C2515 C819 1.326 . S
C2520 C859 1.347 . S
C2545 C878 1.329 . S
C2550 C760 1.345 . S
C2575 C937 1.329 . S
C2580 C1055 1.344 . S
C2605 C996 1.326 . S
C2610 C918 1.347 . S
C2635 C1036 1.308 . S
C2640 C977 1.347 . S
C2665 C1154 1.347 . S
C2670 C1114 1.326 . S
C2695 C1173 1.325 . S
C2700 C1213 1.346 . S
C2725 C1095 1.349 . S
C2730 C1232 1.328 . S
C2755 C1390 1.349 . S
C2760 C1291 1.328 . S
C2785 C1350 1.325 . S
C2790 C1272 1.346 . S
C2815 C1331 1.348 . S
C2820 C1409 1.327 . S
C2845 C1508 1.346 . S
C2850 C1449 1.308 . S
C2875 C1527 1.326 . S
C2880 C1567 1.347 . S
C2905 C1586 1.329 . S
C2910 C1468 1.345 . S
C2935 C1763 1.344 . S
C2940 C1645 1.328 . S
C2965 C1704 1.326 . S
C2970 C1626 1.347 . S
C2995 C1685 1.347 . S
C3000 C1744 1.309 . S
C3025 C1822 1.326 . S
C3030 C1862 1.347 . S
C3055 C1881 1.325 . S
C3060 C1921 1.346 . S
C3085 C1940 1.328 . S
C3090 C1803 1.349 . S
C3115 C2098 1.349 . S
C3120 C1999 1.328 . S
C3145 C1980 1.346 . S
C3150 C2058 1.325 . S
C3175 C2117 1.327 . S
C3180 C2039 1.348 . S
C3205 C180 1.858 . S
C3210 C5 1.871 . S
C3235 C62 1.861 . S
C3240 C239 1.872 . S
C3265 C300 1.872 1_655 S
C3270 C121 1.859 . S
C3295 C534 1.859 . S
C3300 C357 1.859 . S
C3325 C416 1.855 . S
C3330 C593 1.866 . S
C3355 C652 1.856 . S
C3360 C475 1.859 . S
C3385 C713 1.871 . S
C3390 C888 1.858 . S
C3415 C770 1.864 . S
C3420 C947 1.864 . S
C3445 C829 1.858 . S
C3450 C1008 1.871 . S
C3475 C1242 1.859 . S
C3480 C1065 1.859 . S
C3505 C1301 1.858 . S
C3510 C1124 1.858 . S
C3535 C1183 1.859 . S
C3540 C1360 1.859 . S
C3565 C1596 1.858 . S
C3570 C1421 1.871 . S
C3595 C1655 1.864 . S
C3600 C1478 1.864 . S
C3625 C1537 1.859 . S
C3630 C1716 1.872 . S
C3655 C1773 1.859 . S
C3660 C1950 1.859 . S
C3685 C2009 1.858 . S
C3690 C1832 1.858 . S
C3715 C1891 1.859 . S
C3720 C2068 1.859 . S
C3745 C3 1.525 . S
C3750 C1067 1.538 . S
C3775 C64 1.536 . S
C3780 C1126 1.536 . S
C3805 C123 1.541 . S
C3810 C1185 1.541 . S
C3835 C1952 1.540 . S
C3840 C182 1.540 . S
C3865 C2011 1.537 . S
C3870 C241 1.537 . S
C3895 C298 1.526 . S
C3900 C2070 1.539 . S
C3925 C359 1.538 . S
C3930 C1419 1.525 . S
C3955 C1480 1.536 . S
C3960 C418 1.536 . S
C3985 C1539 1.541 . S
C3990 C477 1.541 . S
C4015 C890 1.540 . S
C4020 C536 1.540 . S
C4045 C949 1.537 . S
C4050 C595 1.537 . S
C4075 C1006 1.526 . S
C4080 C654 1.539 . S
C4105 C1775 1.538 . S
C4110 C711 1.525 . S
C4135 C772 1.537 . S
C4140 C1834 1.537 . S
C4165 C831 1.541 . S
C4170 C1893 1.541 . S
C4195 C1244 1.540 . S
C4200 C1598 1.540 . S
C4225 C1303 1.537 . S
C4230 C1657 1.537 . S
C4255 C1714 1.527 . S
C4260 C1362 1.539 . S
