# Generated by pormake.
# Topology vbm, (6)-cn, num edge types: 1
# Building blocks:
#     Node 0, Type 0, BuildingBlock: UKALOJ_clean_sbu_0, # of connection points: 6
#     Node 1, Type 0, BuildingBlock: UKALOJ_clean_sbu_0, # of connection points: 6
#     Node 2, Type 0, BuildingBlock: UKALOJ_clean_sbu_0, # of connection points: 6
#     Node 3, Type 0, BuildingBlock: UKALOJ_clean_sbu_0, # of connection points: 6
#     Node 4, Type 0, BuildingBlock: UKALOJ_clean_sbu_0, # of connection points: 6
#     Node 5, Type 0, BuildingBlock: UKALOJ_clean_sbu_0, # of connection points: 6
#     Node 6, Type 0, BuildingBlock: UKALOJ_clean_sbu_0, # of connection points: 6
#     Node 7, Type 0, BuildingBlock: UKALOJ_clean_sbu_0, # of connection points: 6
#     Node 8, Type 0, BuildingBlock: UKALOJ_clean_sbu_0, # of connection points: 6
#     Node 9, Type 0, BuildingBlock: UKALOJ_clean_sbu_0, # of connection points: 6
#     Node 10, Type 0, BuildingBlock: UKALOJ_clean_sbu_0, # of connection points: 6
#     Node 11, Type 0, BuildingBlock: UKALOJ_clean_sbu_0, # of connection points: 6
#     Node 12, Type 0, BuildingBlock: UKALOJ_clean_sbu_0, # of connection points: 6
#     Node 13, Type 0, BuildingBlock: UKALOJ_clean_sbu_0, # of connection points: 6
#     Node 14, Type 0, BuildingBlock: UKALOJ_clean_sbu_0, # of connection points: 6
#     Node 15, Type 0, BuildingBlock: UKALOJ_clean_sbu_0, # of connection points: 6
#     Edge 16, Type (0, 0), BuildingBlock: OJICUG_clean_linker_0, # of connection points: 2
#     Edge 17, Type (0, 0), BuildingBlock: OJICUG_clean_linker_0, # of connection points: 2
#     Edge 18, Type (0, 0), BuildingBlock: OJICUG_clean_linker_0, # of connection points: 2
#     Edge 19, Type (0, 0), BuildingBlock: OJICUG_clean_linker_0, # of connection points: 2
#     Edge 20, Type (0, 0), BuildingBlock: OJICUG_clean_linker_0, # of connection points: 2
#     Edge 21, Type (0, 0), BuildingBlock: OJICUG_clean_linker_0, # of connection points: 2
#     Edge 22, Type (0, 0), BuildingBlock: OJICUG_clean_linker_0, # of connection points: 2
#     Edge 23, Type (0, 0), BuildingBlock: OJICUG_clean_linker_0, # of connection points: 2
#     Edge 24, Type (0, 0), BuildingBlock: OJICUG_clean_linker_0, # of connection points: 2
#     Edge 25, Type (0, 0), BuildingBlock: OJICUG_clean_linker_0, # of connection points: 2
#     Edge 26, Type (0, 0), BuildingBlock: OJICUG_clean_linker_0, # of connection points: 2
#     Edge 27, Type (0, 0), BuildingBlock: OJICUG_clean_linker_0, # of connection points: 2
#     Edge 28, Type (0, 0), BuildingBlock: OJICUG_clean_linker_0, # of connection points: 2
#     Edge 29, Type (0, 0), BuildingBlock: OJICUG_clean_linker_0, # of connection points: 2
#     Edge 30, Type (0, 0), BuildingBlock: OJICUG_clean_linker_0, # of connection points: 2
#     Edge 31, Type (0, 0), BuildingBlock: OJICUG_clean_linker_0, # of connection points: 2
#     Edge 32, Type (0, 0), BuildingBlock: OJICUG_clean_linker_0, # of connection points: 2
#     Edge 33, Type (0, 0), BuildingBlock: OJICUG_clean_linker_0, # of connection points: 2
#     Edge 34, Type (0, 0), BuildingBlock: OJICUG_clean_linker_0, # of connection points: 2
#     Edge 35, Type (0, 0), BuildingBlock: OJICUG_clean_linker_0, # of connection points: 2
#     Edge 36, Type (0, 0), BuildingBlock: OJICUG_clean_linker_0, # of connection points: 2
#     Edge 37, Type (0, 0), BuildingBlock: OJICUG_clean_linker_0, # of connection points: 2
#     Edge 38, Type (0, 0), BuildingBlock: OJICUG_clean_linker_0, # of connection points: 2
#     Edge 39, Type (0, 0), BuildingBlock: OJICUG_clean_linker_0, # of connection points: 2
#     Edge 40, Type (0, 0), BuildingBlock: OJICUG_clean_linker_0, # of connection points: 2
#     Edge 41, Type (0, 0), BuildingBlock: OJICUG_clean_linker_0, # of connection points: 2
#     Edge 42, Type (0, 0), BuildingBlock: OJICUG_clean_linker_0, # of connection points: 2
#     Edge 43, Type (0, 0), BuildingBlock: OJICUG_clean_linker_0, # of connection points: 2
#     Edge 44, Type (0, 0), BuildingBlock: OJICUG_clean_linker_0, # of connection points: 2
#     Edge 45, Type (0, 0), BuildingBlock: OJICUG_clean_linker_0, # of connection points: 2
#     Edge 46, Type (0, 0), BuildingBlock: OJICUG_clean_linker_0, # of connection points: 2
#     Edge 47, Type (0, 0), BuildingBlock: OJICUG_clean_linker_0, # of connection points: 2
#     Edge 48, Type (0, 0), BuildingBlock: OJICUG_clean_linker_0, # of connection points: 2
#     Edge 49, Type (0, 0), BuildingBlock: OJICUG_clean_linker_0, # of connection points: 2
#     Edge 50, Type (0, 0), BuildingBlock: OJICUG_clean_linker_0, # of connection points: 2
#     Edge 51, Type (0, 0), BuildingBlock: OJICUG_clean_linker_0, # of connection points: 2
#     Edge 52, Type (0, 0), BuildingBlock: OJICUG_clean_linker_0, # of connection points: 2
#     Edge 53, Type (0, 0), BuildingBlock: OJICUG_clean_linker_0, # of connection points: 2
#     Edge 54, Type (0, 0), BuildingBlock: OJICUG_clean_linker_0, # of connection points: 2
#     Edge 55, Type (0, 0), BuildingBlock: OJICUG_clean_linker_0, # of connection points: 2
#     Edge 56, Type (0, 0), BuildingBlock: OJICUG_clean_linker_0, # of connection points: 2
#     Edge 57, Type (0, 0), BuildingBlock: OJICUG_clean_linker_0, # of connection points: 2
#     Edge 58, Type (0, 0), BuildingBlock: OJICUG_clean_linker_0, # of connection points: 2
#     Edge 59, Type (0, 0), BuildingBlock: OJICUG_clean_linker_0, # of connection points: 2
#     Edge 60, Type (0, 0), BuildingBlock: OJICUG_clean_linker_0, # of connection points: 2
#     Edge 61, Type (0, 0), BuildingBlock: OJICUG_clean_linker_0, # of connection points: 2
#     Edge 62, Type (0, 0), BuildingBlock: OJICUG_clean_linker_0, # of connection points: 2
#     Edge 63, Type (0, 0), BuildingBlock: OJICUG_clean_linker_0, # of connection points: 2
# Relax obj value: 0.035
# Max RMSD: 0.076
# Mean RMSD: 0.076
data_MOF--net-vbm--node1-UKALOJ_clean_sbu_0--edge1-OJICUG_clean_linker_0
_symmetry_space_group_name_H-M    P1
_symmetry_Int_Tables_number       1
_symmetry_cell_setting            triclinic
loop_
_symmetry_equiv_pos_as_xyz
'x, y, z'
_cell_length_a     43.45238
_cell_length_b     11.235485
_cell_length_c     64.31891
_cell_angle_alpha  90.009325
_cell_angle_beta   89.989607
_cell_angle_gamma 90.000962
loop_
_atom_site_label
_atom_site_type_symbol
_atom_site_fract_x
_atom_site_fract_y
_atom_site_fract_z
_atom_type_partial_charge
Zn0 Zn 0.11161 0.10012 0.16668 0.0
O1 O 0.06374 0.07333 0.17031 0.0
C2 C 0.11711 0.85687 0.14971 0.0
Zn3 Zn 0.10969 0.1015 0.13204 0.0
C4 C 0.04831 0.06271 0.15363 0.0
O5 O 0.0618 0.07557 0.13623 0.0
C6 C 0.17295 0.13965 0.14514 0.0
O7 O 0.10426 0.28825 0.13169 0.0
O8 O 0.10584 0.28701 0.16585 0.0
N9 N 0.1029 0.08887 0.10065 0.0
C10 C 0.11608 0.13566 0.08347 0.0
C11 C 0.08275 0.00886 0.07338 0.0
N12 N 0.08211 0.01084 0.09426 0.0
N13 N 0.10382 0.08633 0.06619 0.0
C14 C 0.10769 0.04454 0.21453 0.0
C15 C 0.14046 0.16859 0.22629 0.0
N16 N 0.1181 0.10875 0.19823 0.0
N17 N 0.13826 0.18623 0.20566 0.0
N18 N 0.1214 0.08059 0.23232 0.0
H19 H 0.08214 0.91399 0.19666 0.0
H20 H 0.06288 0.9711 0.21919 0.0
H21 H 0.09374 0.86656 0.22239 0.0
C22 C 0.08551 0.94276 0.21292 0.0
C23 C 0.14232 0.22181 0.08373 0.0
H24 H 0.14141 0.27809 0.09788 0.0
H25 H 0.14201 0.27881 0.06966 0.0
H26 H 0.16424 0.17117 0.08383 0.0
O27 O 0.15763 0.12725 0.12844 0.0
O28 O 0.1594 0.12778 0.16255 0.0
C29 C 0.10443 0.34466 0.14885 0.0
O30 O 0.1177 0.91334 0.16683 0.0
O31 O 0.11515 0.9146 0.13279 0.0
Zn32 Zn 0.85927 0.85634 0.1667 0.0
O33 O 0.90714 0.88316 0.17033 0.0
C34 C 0.85379 0.09956 0.14974 0.0
Zn35 Zn 0.8612 0.8549 0.13206 0.0
C36 C 0.92258 0.89367 0.15365 0.0
O37 O 0.90909 0.88074 0.13625 0.0
C38 C 0.79794 0.81683 0.14517 0.0
O39 O 0.86661 0.66814 0.13171 0.0
O40 O 0.86505 0.66946 0.16587 0.0
N41 N 0.86801 0.86745 0.10067 0.0
C42 C 0.85472 0.82116 0.08349 0.0
C43 C 0.88826 0.94717 0.0734 0.0
N44 N 0.88892 0.94498 0.09428 0.0
N45 N 0.86704 0.87031 0.06622 0.0
C46 C 0.86315 0.91212 0.21455 0.0
C47 C 0.83039 0.78798 0.22632 0.0
N48 N 0.85277 0.84778 0.19825 0.0
N49 N 0.83262 0.77025 0.20569 0.0
N50 N 0.84942 0.8761 0.23234 0.0
H51 H 0.88873 0.04254 0.19668 0.0
H52 H 0.9079 -0.0141 0.21927 0.0
H53 H 0.87699 0.09029 0.22237 0.0
C54 C 0.88529 0.014 0.21295 0.0
C55 C 0.82835 0.73562 0.08374 0.0
H56 H 0.82926 0.6789 0.09784 0.0
H57 H 0.82849 0.67901 0.06962 0.0
H58 H 0.80651 0.78675 0.08395 0.0
O59 O 0.81326 0.82925 0.12847 0.0
O60 O 0.81148 0.82866 0.16258 0.0
C61 C 0.86645 0.61177 0.14887 0.0
O62 O 0.85318 0.04312 0.16685 0.0
O63 O 0.85576 0.0418 0.13282 0.0
Zn64 Zn 0.1095 0.85529 0.41364 0.0
O65 O 0.10407 0.66853 0.41399 0.0
C66 C 0.17276 0.81715 0.40053 0.0
Zn67 Zn 0.11143 0.85667 0.37899 0.0
C68 C 0.10424 0.61213 0.39683 0.0
O69 O 0.10565 0.66979 0.37983 0.0
C70 C 0.11691 0.09992 0.39596 0.0
O71 O 0.06356 0.8835 0.37536 0.0
O72 O 0.0616 0.88118 0.40943 0.0
N73 N 0.11794 0.848 0.34745 0.0
C74 C 0.10757 0.91226 0.33114 0.0
C75 C 0.14032 0.78806 0.31939 0.0
N76 N 0.13809 0.77044 0.34002 0.0
N77 N 0.1213 0.87615 0.31336 0.0
C78 C 0.11591 0.82151 0.46221 0.0
C79 C 0.08244 0.94782 0.47228 0.0
N80 N 0.10267 0.86793 0.44502 0.0
N81 N 0.0818 0.94565 0.45141 0.0
N82 N 0.1036 0.87077 0.47948 0.0
H83 H 0.14133 0.67914 0.44785 0.0
H84 H 0.14204 0.67907 0.47607 0.0
H85 H 0.16411 0.78672 0.46178 0.0
C86 C 0.14224 0.73576 0.46196 0.0
C87 C 0.08542 0.01415 0.33274 0.0
H88 H 0.08199 0.04279 0.349 0.0
H89 H 0.06281 -0.014 0.32642 0.0
H90 H 0.09372 0.09038 0.3233 0.0
O91 O 0.11752 0.04345 0.37884 0.0
O92 O 0.11495 0.04218 0.41288 0.0
C93 C 0.04812 0.89408 0.39204 0.0
O94 O 0.15743 0.82959 0.41723 0.0
O95 O 0.15921 0.82898 0.38313 0.0
Zn96 Zn 0.85911 0.10075 0.379 0.0
O97 O 0.90698 0.07392 0.37537 0.0
C98 C 0.85362 0.85753 0.39597 0.0
Zn99 Zn 0.86103 0.10219 0.41364 0.0
C100 C 0.92241 0.06336 0.39205 0.0
O101 O 0.90892 0.07628 0.40944 0.0
C102 C 0.79777 0.1403 0.40054 0.0
O103 O 0.86646 0.28894 0.41399 0.0
O104 O 0.86489 0.28763 0.37983 0.0
N105 N 0.86783 0.08966 0.44503 0.0
C106 C 0.85459 0.13622 0.46221 0.0
C107 C 0.88802 0.00984 0.4723 0.0
N108 N 0.88867 0.01189 0.45143 0.0
N109 N 0.86687 0.08702 0.47948 0.0
C110 C 0.86304 0.04499 0.33115 0.0
C111 C 0.83026 0.169 0.31938 0.0
N112 N 0.85262 0.10928 0.34745 0.0
N113 N 0.83246 0.18672 0.34001 0.0
N114 N 0.84932 0.08097 0.31336 0.0
H115 H 0.88858 0.91452 0.34903 0.0
H116 H 0.90784 0.97151 0.32649 0.0
H117 H 0.87698 0.86697 0.3233 0.0
C118 C 0.88521 0.94321 0.33276 0.0
C119 C 0.82827 0.22205 0.46195 0.0
H120 H 0.82919 0.27853 0.44782 0.0
H121 H 0.82849 0.27888 0.47605 0.0
H122 H 0.80639 0.17116 0.46179 0.0
O123 O 0.8131 0.12789 0.41723 0.0
O124 O 0.81132 0.12844 0.38313 0.0
C125 C 0.86629 0.34532 0.39683 0.0
O126 O 0.85301 0.91397 0.37886 0.0
O127 O 0.85558 0.91529 0.41289 0.0
Zn128 Zn 0.86085 0.8565 0.91365 0.0
O129 O 0.86629 0.66975 0.914 0.0
C130 C 0.7976 0.81839 0.90055 0.0
Zn131 Zn 0.85893 0.85789 0.87901 0.0
C132 C 0.86611 0.61335 0.89684 0.0
O133 O 0.8647 0.671 0.87984 0.0
C134 C 0.85344 0.10114 0.89597 0.0
O135 O 0.9068 0.88469 0.87537 0.0
O136 O 0.90874 0.88243 0.90945 0.0
N137 N 0.85243 0.84924 0.84746 0.0
C138 C 0.86284 0.91346 0.83116 0.0
C139 C 0.83006 0.78937 0.8194 0.0
N140 N 0.83227 0.77175 0.84004 0.0
N141 N 0.84911 0.87739 0.81337 0.0
C142 C 0.85447 0.8224 0.96222 0.0
C143 C 0.88783 0.94911 0.9723 0.0
N144 N 0.86766 0.86913 0.94504 0.0
N145 N 0.88846 0.94711 0.95143 0.0
N146 N 0.86674 0.87171 0.97949 0.0
H147 H 0.82912 0.67998 0.94782 0.0
H148 H 0.8285 0.67938 0.97604 0.0
H149 H 0.8063 0.78702 0.96185 0.0
C150 C 0.82821 0.73633 0.96196 0.0
C151 C 0.88501 0.01526 0.83276 0.0
H152 H 0.88839 0.04401 0.84902 0.0
H153 H 0.90763 -0.01304 0.82648 0.0
H154 H 0.87677 0.09146 0.82329 0.0
O155 O 0.85284 0.04467 0.87886 0.0
O156 O 0.8554 0.0434 0.91289 0.0
C157 C 0.92223 0.8953 0.89205 0.0
O158 O 0.81292 0.83079 0.91725 0.0
O159 O 0.81114 0.83024 0.88315 0.0
Zn160 Zn 0.11125 0.102 0.87898 0.0
O161 O 0.06337 0.07515 0.87536 0.0
C162 C 0.11673 0.85878 0.89595 0.0
Zn163 Zn 0.10932 0.10344 0.91363 0.0
C164 C 0.04794 0.06461 0.89203 0.0
O165 O 0.06142 0.07756 0.90943 0.0
C166 C 0.17258 0.14156 0.90052 0.0
O167 O 0.1039 0.29019 0.91398 0.0
O168 O 0.10546 0.28888 0.87982 0.0
N169 N 0.1025 0.09089 0.94502 0.0
C170 C 0.11579 0.13714 0.9622 0.0
C171 C 0.08224 0.01118 0.97228 0.0
N172 N 0.08158 0.01339 0.95141 0.0
N173 N 0.10347 0.088 0.97947 0.0
C174 C 0.10737 0.04623 0.83113 0.0
C175 C 0.14012 0.17036 0.81937 0.0
N176 N 0.11775 0.11055 0.84743 0.0
N177 N 0.1379 0.18807 0.84 0.0
N178 N 0.12109 0.08225 0.81335 0.0
H179 H 0.0818 0.91577 0.84901 0.0
H180 H 0.0626 0.97252 0.82644 0.0
H181 H 0.0935 0.8681 0.82331 0.0
C182 C 0.08521 0.94436 0.83274 0.0
C183 C 0.14218 0.22263 0.96195 0.0
H184 H 0.14126 0.2794 0.94786 0.0
H185 H 0.14205 0.27919 0.97608 0.0
H186 H 0.16401 0.17147 0.96173 0.0
O187 O 0.15725 0.12912 0.91722 0.0
O188 O 0.15903 0.12971 0.88311 0.0
C189 C 0.10406 0.34657 0.89682 0.0
O190 O 0.11735 0.91522 0.87884 0.0
O191 O 0.11476 0.91654 0.91287 0.0
Zn192 Zn 0.85901 0.10134 0.6667 0.0
O193 O 0.90689 0.07452 0.67032 0.0
C194 C 0.85352 0.85809 0.64973 0.0
Zn195 Zn 0.86094 0.10272 0.63205 0.0
C196 C 0.92232 0.06394 0.65364 0.0
O197 O 0.90883 0.07682 0.63625 0.0
C198 C 0.79768 0.14087 0.64516 0.0
O199 O 0.86637 0.28947 0.6317 0.0
O200 O 0.86479 0.28822 0.66586 0.0
N201 N 0.86775 0.09007 0.60066 0.0
C202 C 0.85452 0.13654 0.58348 0.0
C203 C 0.88797 0.01016 0.5734 0.0
N204 N 0.88861 0.01231 0.59428 0.0
N205 N 0.86682 0.08727 0.56621 0.0
C206 C 0.86289 0.04574 0.71455 0.0
C207 C 0.83014 0.1699 0.72631 0.0
N208 N 0.85251 0.10999 0.69824 0.0
N209 N 0.83236 0.18754 0.70567 0.0
N210 N 0.84917 0.08183 0.73233 0.0
H211 H 0.88846 0.91521 0.69668 0.0
H212 H 0.90766 0.97206 0.71925 0.0
H213 H 0.87676 0.86765 0.72239 0.0
C214 C 0.88505 0.94387 0.71295 0.0
C215 C 0.8282 0.22234 0.58373 0.0
H216 H 0.82912 0.27892 0.59785 0.0
H217 H 0.82842 0.27908 0.56963 0.0
H218 H 0.80633 0.17143 0.5839 0.0
O219 O 0.81301 0.12844 0.62846 0.0
O220 O 0.81123 0.12902 0.66257 0.0
C221 C 0.8662 0.34588 0.64886 0.0
O222 O 0.85292 0.91455 0.66684 0.0
O223 O 0.85549 0.91582 0.63281 0.0
Zn224 Zn 0.11136 0.85759 0.66669 0.0
O225 O 0.06348 0.88437 0.67031 0.0
C226 C 0.11684 0.10081 0.64972 0.0
Zn227 Zn 0.10944 0.85615 0.63204 0.0
C228 C 0.04805 0.89491 0.65364 0.0
O229 O 0.06154 0.88201 0.63624 0.0
C230 C 0.1727 0.81811 0.64515 0.0
O231 O 0.10402 0.66939 0.6317 0.0
O232 O 0.10559 0.6707 0.66586 0.0
N233 N 0.10265 0.86868 0.60066 0.0
C234 C 0.11588 0.82208 0.58348 0.0
C235 C 0.08246 0.94849 0.57338 0.0
N236 N 0.08181 0.94647 0.59426 0.0
N237 N 0.1036 0.87128 0.5662 0.0
C238 C 0.10743 0.91335 0.71454 0.0
C239 C 0.1402 0.78933 0.72631 0.0
N240 N 0.11784 0.84906 0.69824 0.0
N241 N 0.138 0.7716 0.70567 0.0
N242 N 0.12115 0.87737 0.73233 0.0
H243 H 0.08187 0.04379 0.69666 0.0
H244 H 0.06264 -0.0131 0.71921 0.0
H245 H 0.09351 0.09141 0.72237 0.0
C246 C 0.08526 0.01515 0.71293 0.0
C247 C 0.14219 0.73622 0.58374 0.0
H248 H 0.14127 0.67978 0.59787 0.0
H249 H 0.14196 0.67935 0.56965 0.0
H250 H 0.16407 0.78709 0.58389 0.0
O251 O 0.15737 0.83049 0.62845 0.0
O252 O 0.15915 0.82995 0.66256 0.0
C253 C 0.10418 0.61302 0.64886 0.0
O254 O 0.11744 0.04437 0.66683 0.0
O255 O 0.11488 0.04305 0.6328 0.0
Zn256 Zn 0.6116 0.6002 0.16671 0.0
O257 O 0.56373 0.57337 0.17033 0.0
C258 C 0.6171 0.35695 0.14974 0.0
Zn259 Zn 0.60969 0.60158 0.13206 0.0
C260 C 0.5483 0.56275 0.15365 0.0
O261 O 0.5618 0.57562 0.13626 0.0
C262 C 0.67294 0.63975 0.14517 0.0
O263 O 0.60425 0.78833 0.13171 0.0
O264 O 0.60582 0.78708 0.16587 0.0
N265 N 0.6029 0.58895 0.10068 0.0
C266 C 0.61607 0.63577 0.0835 0.0
C267 C 0.58275 0.50891 0.07341 0.0
N268 N 0.58212 0.51088 0.09428 0.0
N269 N 0.60381 0.58642 0.06622 0.0
C270 C 0.60768 0.54461 0.21456 0.0
C271 C 0.64045 0.6687 0.22632 0.0
N272 N 0.61809 0.60883 0.19825 0.0
N273 N 0.63824 0.68633 0.20568 0.0
N274 N 0.62139 0.58068 0.23234 0.0
H275 H 0.58213 0.41405 0.19669 0.0
H276 H 0.56288 0.47111 0.21923 0.0
H277 H 0.59374 0.36661 0.22242 0.0
C278 C 0.58551 0.4428 0.21295 0.0
C279 C 0.64231 0.72195 0.08376 0.0
H280 H 0.64139 0.77821 0.09791 0.0
H281 H 0.64199 0.77899 0.06969 0.0
H282 H 0.66423 0.67135 0.08385 0.0
O283 O 0.65762 0.62734 0.12847 0.0
O284 O 0.65939 0.62789 0.16258 0.0
C285 C 0.60441 0.84474 0.14888 0.0
O286 O 0.6177 0.41342 0.16685 0.0
O287 O 0.61515 0.41468 0.13282 0.0
Zn288 Zn 0.36122 0.35472 0.13205 0.0
O289 O 0.36663 0.16797 0.1317 0.0
C290 C 0.29795 0.31665 0.14515 0.0
Zn291 Zn 0.35928 0.35617 0.16669 0.0
C292 C 0.36646 0.11159 0.14886 0.0
O293 O 0.36506 0.16928 0.16586 0.0
C294 C 0.35381 0.59938 0.14973 0.0
O295 O 0.40715 0.38299 0.17032 0.0
O296 O 0.40911 0.38057 0.13625 0.0
N297 N 0.35277 0.3476 0.19824 0.0
C298 C 0.36315 0.41192 0.21454 0.0
C299 C 0.33039 0.2878 0.22631 0.0
N300 N 0.33262 0.27008 0.20567 0.0
N301 N 0.34941 0.3759 0.23233 0.0
C302 C 0.35474 0.32107 0.08348 0.0
C303 C 0.38831 0.44694 0.0734 0.0
N304 N 0.36804 0.36727 0.10066 0.0
N305 N 0.38898 0.44471 0.09427 0.0
N306 N 0.36708 0.37018 0.06621 0.0
H307 H 0.32926 0.17883 0.09781 0.0
H308 H 0.32846 0.17911 0.06959 0.0
H309 H 0.30652 0.28685 0.08396 0.0
C310 C 0.32834 0.23563 0.08373 0.0
C311 C 0.3853 0.51379 0.21294 0.0
H312 H 0.38872 0.54237 0.19667 0.0
H313 H 0.40791 0.48564 0.21925 0.0
H314 H 0.37701 0.59006 0.22237 0.0
O315 O 0.35318 0.54295 0.16684 0.0
O316 O 0.35578 0.54162 0.13281 0.0
C317 C 0.42259 0.39351 0.15365 0.0
O318 O 0.31328 0.32908 0.12846 0.0
O319 O 0.31149 0.32848 0.16256 0.0
Zn320 Zn 0.6095 0.35536 0.41366 0.0
O321 O 0.60408 0.16861 0.41402 0.0
C322 C 0.67276 0.31727 0.40056 0.0
Zn323 Zn 0.61144 0.35675 0.37902 0.0
C324 C 0.60425 0.11221 0.39686 0.0
O325 O 0.60566 0.16986 0.37986 0.0
C326 C 0.61692 0.6 0.39598 0.0
O327 O 0.56357 0.38353 0.37539 0.0
O328 O 0.56161 0.38123 0.40946 0.0
N329 N 0.61795 0.34809 0.34747 0.0
C330 C 0.60757 0.41234 0.33117 0.0
C331 C 0.64033 0.28817 0.31941 0.0
N332 N 0.6381 0.27054 0.34005 0.0
N333 N 0.62131 0.37624 0.31338 0.0
C334 C 0.61592 0.32161 0.46224 0.0
C335 C 0.58244 0.44788 0.47231 0.0
N336 N 0.60268 0.36801 0.44505 0.0
N337 N 0.5818 0.4457 0.45143 0.0
N338 N 0.6036 0.37085 0.4795 0.0
H339 H 0.64135 0.17926 0.44788 0.0
H340 H 0.64206 0.17923 0.4761 0.0
H341 H 0.66412 0.28688 0.46181 0.0
C342 C 0.64226 0.2359 0.46199 0.0
C343 C 0.58542 0.5142 0.33276 0.0
H344 H 0.58199 0.54285 0.34903 0.0
H345 H 0.56281 0.48602 0.32645 0.0
H346 H 0.59371 0.59043 0.32333 0.0
O347 O 0.61752 0.54353 0.37887 0.0
O348 O 0.61495 0.54226 0.4129 0.0
C349 C 0.54813 0.39411 0.39206 0.0
O350 O 0.65744 0.32969 0.41726 0.0
O351 O 0.65922 0.3291 0.38315 0.0
Zn352 Zn 0.361 0.60196 0.41364 0.0
O353 O 0.36644 0.78871 0.41398 0.0
C354 C 0.29775 0.64008 0.40052 0.0
Zn355 Zn 0.3591 0.60052 0.37899 0.0
C356 C 0.36627 0.84509 0.39682 0.0
O357 O 0.36487 0.78741 0.37982 0.0
C358 C 0.3536 0.3573 0.39596 0.0
O359 O 0.40697 0.5737 0.37537 0.0
O360 O 0.4089 0.57606 0.40945 0.0
N361 N 0.35262 0.60905 0.34744 0.0
C362 C 0.36303 0.54476 0.33114 0.0
C363 C 0.33027 0.66879 0.31937 0.0
N364 N 0.33247 0.68651 0.34 0.0
N365 N 0.34932 0.58074 0.31335 0.0
C366 C 0.35457 0.63611 0.4622 0.0
C367 C 0.38795 0.50956 0.4723 0.0
N368 N 0.36779 0.58942 0.44503 0.0
N369 N 0.3886 0.51155 0.45143 0.0
N370 N 0.36683 0.58687 0.47948 0.0
H371 H 0.3292 0.77844 0.44779 0.0
H372 H 0.32854 0.77902 0.47602 0.0
H373 H 0.30639 0.6713 0.4618 0.0
C374 C 0.32828 0.72207 0.46193 0.0
C375 C 0.3852 0.44295 0.33276 0.0
H376 H 0.38858 0.4143 0.34903 0.0
H377 H 0.40783 0.47121 0.32648 0.0
H378 H 0.37696 0.3667 0.32331 0.0
O379 O 0.353 0.41374 0.37885 0.0
O380 O 0.35555 0.41506 0.41288 0.0
C381 C 0.4224 0.56315 0.39205 0.0
O382 O 0.31307 0.62767 0.41722 0.0
O383 O 0.3113 0.62821 0.38312 0.0
Zn384 Zn 0.3589 0.35836 0.879 0.0
O385 O 0.40677 0.38519 0.87537 0.0
C386 C 0.35339 0.60162 0.89596 0.0
Zn387 Zn 0.36081 0.35698 0.91364 0.0
C388 C 0.42219 0.39582 0.89205 0.0
O389 O 0.4087 0.38295 0.90945 0.0
C390 C 0.29756 0.31879 0.90053 0.0
O391 O 0.36625 0.17023 0.91399 0.0
O392 O 0.36468 0.17148 0.87983 0.0
N393 N 0.3676 0.36961 0.94503 0.0
C394 C 0.35443 0.32278 0.9622 0.0
C395 C 0.38774 0.44965 0.9723 0.0
N396 N 0.38837 0.44769 0.95142 0.0
N397 N 0.36668 0.37212 0.97948 0.0
C398 C 0.36282 0.41398 0.83115 0.0
C399 C 0.33006 0.2899 0.81938 0.0
N400 N 0.35241 0.34974 0.84745 0.0
N401 N 0.33226 0.27225 0.84002 0.0
N402 N 0.34911 0.37793 0.81336 0.0
H403 H 0.38837 0.54452 0.84902 0.0
H404 H 0.40761 0.48752 0.82648 0.0
H405 H 0.37675 0.59201 0.8233 0.0
C406 C 0.38499 0.5158 0.83276 0.0
C407 C 0.32819 0.23658 0.96194 0.0
H408 H 0.32911 0.18033 0.94779 0.0
H409 H 0.32851 0.17954 0.97601 0.0
H410 H 0.30627 0.28717 0.96185 0.0
O411 O 0.31288 0.33121 0.91723 0.0
O412 O 0.31111 0.33067 0.88313 0.0
C413 C 0.36609 0.11382 0.89683 0.0
O414 O 0.3528 0.54515 0.87885 0.0
O415 O 0.35534 0.54388 0.91288 0.0
Zn416 Zn 0.60929 0.60371 0.91365 0.0
O417 O 0.60389 0.79046 0.914 0.0
C418 C 0.67256 0.64172 0.90055 0.0
Zn419 Zn 0.61123 0.60226 0.87901 0.0
C420 C 0.60405 0.84684 0.89684 0.0
O421 O 0.60546 0.78915 0.87985 0.0
C422 C 0.6167 0.35905 0.89598 0.0
O423 O 0.56336 0.57548 0.87538 0.0
O424 O 0.5614 0.57789 0.90945 0.0
N425 N 0.61774 0.61082 0.84746 0.0
C426 C 0.60735 0.5465 0.83116 0.0
C427 C 0.64012 0.67059 0.81939 0.0
N428 N 0.63789 0.68831 0.84003 0.0
N429 N 0.62109 0.5825 0.81337 0.0
C430 C 0.61577 0.63738 0.96223 0.0
C431 C 0.5822 0.51151 0.97231 0.0
N432 N 0.60247 0.59117 0.94504 0.0
N433 N 0.58153 0.51372 0.95143 0.0
N434 N 0.60343 0.58828 0.9795 0.0
H435 H 0.64126 0.77961 0.94789 0.0
H436 H 0.64205 0.77936 0.97611 0.0
H437 H 0.66399 0.67161 0.96175 0.0
C438 C 0.64217 0.72282 0.96198 0.0
C439 C 0.58519 0.44465 0.83277 0.0
H440 H 0.58177 0.41608 0.84904 0.0
H441 H 0.56259 0.47282 0.82646 0.0
H442 H 0.59348 0.36837 0.82334 0.0
O443 O 0.61731 0.41548 0.87887 0.0
O444 O 0.61472 0.41681 0.9129 0.0
C445 C 0.54792 0.56497 0.89206 0.0
O446 O 0.65723 0.62932 0.91725 0.0
O447 O 0.65902 0.62991 0.88314 0.0
Zn448 Zn 0.35906 0.60196 0.66669 0.0
O449 O 0.40693 0.57516 0.67032 0.0
C450 C 0.35358 0.35871 0.64972 0.0
Zn451 Zn 0.36099 0.60334 0.63205 0.0
C452 C 0.42237 0.56458 0.65365 0.0
O453 O 0.40889 0.57747 0.63625 0.0
C454 C 0.29773 0.64141 0.64515 0.0
O455 O 0.36642 0.79009 0.63169 0.0
O456 O 0.36483 0.78884 0.66585 0.0
N457 N 0.36783 0.59071 0.60066 0.0
C458 C 0.35458 0.63705 0.58347 0.0
C459 C 0.38808 0.51087 0.5734 0.0
N460 N 0.38872 0.51306 0.59428 0.0
N461 N 0.3669 0.58784 0.56621 0.0
C462 C 0.36292 0.54636 0.71454 0.0
C463 C 0.33015 0.67051 0.7263 0.0
N464 N 0.35254 0.61061 0.69823 0.0
N465 N 0.33239 0.68814 0.70566 0.0
N466 N 0.34919 0.58244 0.73232 0.0
H467 H 0.3885 0.41584 0.69668 0.0
H468 H 0.40769 0.47271 0.71925 0.0
H469 H 0.3768 0.36828 0.72239 0.0
C470 C 0.38508 0.44451 0.71294 0.0
C471 C 0.32822 0.72271 0.58372 0.0
H472 H 0.32913 0.77939 0.59782 0.0
H473 H 0.32841 0.77934 0.5696 0.0
H474 H 0.30637 0.67167 0.58391 0.0
O475 O 0.31306 0.629 0.62845 0.0
O476 O 0.31127 0.6296 0.66255 0.0
C477 C 0.36624 0.8465 0.64886 0.0
O478 O 0.35297 0.41517 0.66684 0.0
O479 O 0.35555 0.41644 0.6328 0.0
Zn480 Zn 0.60946 0.35636 0.63207 0.0
O481 O 0.60402 0.1696 0.63173 0.0
C482 C 0.67271 0.31818 0.64518 0.0
Zn483 Zn 0.61137 0.3578 0.66672 0.0
C484 C 0.60418 0.11323 0.64889 0.0
O485 O 0.60559 0.17091 0.66589 0.0
C486 C 0.61687 0.60102 0.64975 0.0
O487 O 0.56349 0.38466 0.67034 0.0
O488 O 0.56156 0.3823 0.63627 0.0
N489 N 0.61785 0.34927 0.69827 0.0
C490 C 0.60744 0.41358 0.71456 0.0
C491 C 0.6402 0.28953 0.72634 0.0
N492 N 0.638 0.2718 0.70571 0.0
N493 N 0.62115 0.3776 0.73236 0.0
C494 C 0.6159 0.32225 0.58351 0.0
C495 C 0.5825 0.44875 0.57341 0.0
N496 N 0.60267 0.36889 0.60068 0.0
N497 N 0.58184 0.44673 0.59429 0.0
N498 N 0.60363 0.37149 0.56623 0.0
H499 H 0.64127 0.17992 0.59791 0.0
H500 H 0.64195 0.17944 0.56968 0.0
H501 H 0.66408 0.28715 0.58391 0.0
C502 C 0.64219 0.23633 0.58377 0.0
C503 C 0.58528 0.5154 0.71295 0.0
H504 H 0.5819 0.54405 0.69668 0.0
H505 H 0.56265 0.48716 0.71923 0.0
H506 H 0.59353 0.59165 0.7224 0.0
O507 O 0.61747 0.54458 0.66686 0.0
O508 O 0.61491 0.54326 0.63283 0.0
C509 C 0.54807 0.39524 0.65366 0.0
O510 O 0.65739 0.33061 0.62849 0.0
O511 O 0.65916 0.33006 0.66259 0.0
C512 C 0.22064 0.20437 0.16349 0.0
C513 C 0.20535 0.18032 0.1447 0.0
H514 H 0.26127 0.26829 0.17833 0.0
C515 C 0.22051 0.20465 0.12585 0.0
H516 H 0.20962 0.18778 0.17832 0.0
C517 C 0.25039 0.25178 0.12585 0.0
C518 C 0.26555 0.27598 0.14471 0.0
H519 H 0.20926 0.18815 0.11111 0.0
H520 H 0.26164 0.26839 0.11111 0.0
C521 C 0.25026 0.2518 0.16349 0.0
C522 C 0.75037 0.75192 0.12587 0.0
C523 C 0.76553 0.77614 0.14473 0.0
H524 H 0.70925 0.68824 0.11113 0.0
C525 C 0.75024 0.75198 0.16352 0.0
H526 H 0.76163 0.76852 0.11114 0.0
C527 C 0.72063 0.70454 0.16352 0.0
C528 C 0.70534 0.68045 0.14473 0.0
H529 H 0.76126 0.7685 0.17835 0.0
H530 H 0.70961 0.68795 0.17835 0.0
C531 C 0.7205 0.70477 0.12587 0.0
C532 C 0.25019 0.70504 0.41982 0.0
C533 C 0.26535 0.68077 0.40096 0.0
H534 H 0.20906 0.76875 0.43456 0.0
C535 C 0.25007 0.70489 0.38218 0.0
H536 H 0.26144 0.68847 0.43456 0.0
C537 C 0.22045 0.75234 0.38218 0.0
C538 C 0.20516 0.77646 0.40097 0.0
H539 H 0.26108 0.68834 0.36735 0.0
H540 H 0.20944 0.76889 0.36735 0.0
C541 C 0.22031 0.75219 0.41982 0.0
C542 C 0.7502 0.2052 0.41984 0.0
C543 C 0.76537 0.18098 0.40098 0.0
H544 H 0.70907 0.26885 0.43459 0.0
C545 C 0.75008 0.20513 0.3822 0.0
H546 H 0.76146 0.18862 0.43458 0.0
C547 C 0.72046 0.25254 0.38221 0.0
C548 C 0.70517 0.27662 0.40099 0.0
H549 H 0.7611 0.18861 0.36737 0.0
H550 H 0.70945 0.26911 0.36738 0.0
C551 C 0.72033 0.25233 0.41985 0.0
C552 C 0.72014 0.70648 0.91985 0.0
C553 C 0.70497 0.68231 0.90099 0.0
H554 H 0.76128 0.77001 0.93459 0.0
C555 C 0.72027 0.70643 0.8822 0.0
H556 H 0.70888 0.68992 0.93459 0.0
C557 C 0.74989 0.75376 0.88221 0.0
C558 C 0.76518 0.77779 0.90099 0.0
H559 H 0.70925 0.68995 0.86737 0.0
H560 H 0.76091 0.77031 0.86737 0.0
C561 C 0.75002 0.75352 0.91985 0.0
C562 C 0.24988 0.25397 0.88218 0.0
C563 C 0.26516 0.27806 0.90097 0.0
H564 H 0.20925 0.18998 0.86734 0.0
C565 C 0.25 0.2537 0.91982 0.0
H566 H 0.26089 0.27059 0.86735 0.0
C567 C 0.22013 0.20651 0.91982 0.0
C568 C 0.20498 0.18228 0.90096 0.0
H569 H 0.26125 0.27023 0.93456 0.0
H570 H 0.20888 0.18988 0.93456 0.0
C571 C 0.22026 0.20649 0.88218 0.0
C572 C 0.72039 0.25323 0.66352 0.0
C573 C 0.70511 0.27742 0.64474 0.0
H574 H 0.761 0.18913 0.67835 0.0
C575 C 0.72026 0.25315 0.62588 0.0
H576 H 0.70937 0.26978 0.67836 0.0
C577 C 0.75013 0.20594 0.62587 0.0
C578 C 0.76528 0.18161 0.64473 0.0
H579 H 0.70901 0.26976 0.61114 0.0
H580 H 0.76138 0.18938 0.61113 0.0
C581 C 0.75 0.20572 0.66352 0.0
C582 C 0.2204 0.75344 0.66349 0.0
C583 C 0.20511 0.7775 0.64471 0.0
H584 H 0.26104 0.68959 0.67832 0.0
C585 C 0.22028 0.75328 0.62585 0.0
H586 H 0.20938 0.76996 0.67833 0.0
C587 C 0.25016 0.70623 0.62585 0.0
C588 C 0.26532 0.68202 0.64471 0.0
H589 H 0.20902 0.7698 0.61111 0.0
H590 H 0.26142 0.6897 0.61111 0.0
C591 C 0.25002 0.7061 0.66349 0.0
C592 C 0.09278 0.9539 0.28285 0.0
C593 C 0.12068 0.92895 0.29299 0.0
H594 H 0.0711 0.02305 0.25535 0.0
C595 C 0.1485 0.9534 0.28277 0.0
H596 H 0.07105 0.93386 0.29029 0.0
C597 C 0.14853 0.00331 0.26293 0.0
C598 C 0.12074 0.02783 0.25268 0.0
H599 H 0.17027 0.93485 0.29029 0.0
H600 H 0.17032 0.02179 0.25542 0.0
C601 C 0.0928 0.00296 0.2628 0.0
C602 C 0.82219 0.00354 0.28276 0.0
C603 C 0.84998 0.02811 0.293 0.0
H604 H 0.80045 0.93494 0.2554 0.0
C605 C 0.87792 0.00318 0.28288 0.0
H606 H 0.8004 0.02208 0.29026 0.0
C607 C 0.87794 0.954 0.26283 0.0
C608 C 0.85003 0.929 0.2527 0.0
H609 H 0.89962 0.02329 0.29033 0.0
H610 H 0.89966 0.93392 0.2554 0.0
C611 C 0.82222 0.95352 0.26292 0.0
C612 C 0.82198 0.00456 0.76292 0.0
C613 C 0.84979 0.02903 0.7527 0.0
H614 H 0.80018 0.93615 0.79028 0.0
C615 C 0.87771 0.00411 0.76283 0.0
H616 H 0.80021 0.0231 0.75541 0.0
C617 C 0.8777 0.95504 0.78288 0.0
C618 C 0.84977 0.93015 0.79301 0.0
H619 H 0.89943 0.02416 0.75539 0.0
H620 H 0.8994 0.93497 0.79033 0.0
C621 C 0.82197 0.95465 0.78277 0.0
C622 C 0.09255 0.00436 0.78286 0.0
C623 C 0.12047 0.02936 0.79299 0.0
H624 H 0.07086 0.93506 0.75537 0.0
C625 C 0.14828 0.00485 0.78276 0.0
H626 H 0.07083 0.02444 0.7903 0.0
C627 C 0.14829 0.95483 0.76292 0.0
C628 C 0.1205 0.93025 0.75269 0.0
H629 H 0.17005 0.02343 0.79028 0.0
H630 H 0.17008 0.93629 0.75541 0.0
C631 C 0.09257 0.95518 0.76281 0.0
C632 C 0.6485 0.45351 0.2828 0.0
C633 C 0.62069 0.42904 0.29302 0.0
H634 H 0.67031 0.52192 0.25544 0.0
C635 C 0.59278 0.45396 0.28288 0.0
H636 H 0.67028 0.43498 0.29032 0.0
C637 C 0.5928 0.50302 0.26283 0.0
C638 C 0.62073 0.52791 0.25271 0.0
H639 H 0.57106 0.4339 0.29032 0.0
H640 H 0.57109 0.52309 0.25538 0.0
C641 C 0.64852 0.50342 0.26295 0.0
C642 C 0.32219 0.50331 0.28275 0.0
C643 C 0.34998 0.52787 0.29299 0.0
H644 H 0.30044 0.43472 0.25539 0.0
C645 C 0.37792 0.50294 0.28287 0.0
H646 H 0.3004 0.52185 0.29026 0.0
C647 C 0.37794 0.45377 0.26283 0.0
C648 C 0.35003 0.42878 0.25269 0.0
H649 H 0.39962 0.52305 0.29032 0.0
H650 H 0.39966 0.43369 0.25539 0.0
C651 C 0.32222 0.4533 0.26291 0.0
C652 C 0.32198 0.45523 0.78276 0.0
C653 C 0.34977 0.43073 0.793 0.0
H654 H 0.30022 0.5237 0.75539 0.0
C655 C 0.3777 0.45563 0.78287 0.0
H656 H 0.30019 0.43672 0.79026 0.0
C657 C 0.37772 0.50472 0.76282 0.0
C658 C 0.34981 0.52965 0.75269 0.0
H659 H 0.3994 0.43556 0.79032 0.0
H660 H 0.39944 0.52477 0.75539 0.0
C661 C 0.32199 0.50516 0.76291 0.0
C662 C 0.64827 0.50505 0.78279 0.0
C663 C 0.62046 0.5296 0.79301 0.0
H664 H 0.67008 0.43647 0.75545 0.0
C665 C 0.59255 0.50463 0.78288 0.0
H666 H 0.67005 0.52362 0.79031 0.0
C667 C 0.59257 0.45545 0.76283 0.0
C668 C 0.6205 0.43048 0.75272 0.0
H669 H 0.57083 0.52474 0.79032 0.0
H670 H 0.57086 0.43535 0.75539 0.0
C671 C 0.64829 0.45503 0.76295 0.0
C672 C 0.10564 0.20417 1.01198 0.0
C673 C 0.11187 0.099 1.00095 0.0
H674 H 0.09846 0.28264 0.04215 0.0
C675 C 0.12042 -0.00361 1.01191 0.0
H676 H 0.09832 0.28336 1.00377 0.0
C677 C 0.12051 -0.00402 0.03358 0.0
C678 C 0.11205 0.09818 0.0447 0.0
H679 H 0.12493 0.91423 1.00364 0.0
H680 H 0.12509 0.91351 0.04172 0.0
C681 C 0.10573 0.20376 0.03382 0.0
C682 C 0.86481 0.75439 1.01188 0.0
C683 C 0.8585 0.85995 1.00099 0.0
H684 H 0.8722 0.67486 0.04193 0.0
C685 C 0.85004 0.96218 1.0121 0.0
H686 H 0.87207 0.67549 1.00355 0.0
C687 C 0.85012 0.96182 0.03376 0.0
C688 C 0.85865 0.85924 0.04474 0.0
H689 H 0.84547 0.04463 1.00394 0.0
H690 H 0.8456 0.04401 0.04202 0.0
C691 C 0.86488 0.75404 0.03371 0.0
C692 C 0.12042 0.96195 0.51199 0.0
C693 C 0.11193 0.85947 0.50096 0.0
H694 H 0.12496 0.04446 0.54185 0.0
C695 C 0.10565 0.75416 0.51194 0.0
H696 H 0.12496 0.04422 0.50377 0.0
C697 C 0.10565 0.7543 0.53377 0.0
C698 C 0.11192 0.85974 0.54472 0.0
H699 H 0.09836 0.67507 0.50368 0.0
H700 H 0.09836 0.6753 0.54206 0.0
C701 C 0.12041 0.96208 0.53366 0.0
C702 C 0.85002 -0.0038 0.53369 0.0
C703 C 0.85851 0.09864 0.54472 0.0
H704 H 0.84549 0.91378 0.50382 0.0
C705 C 0.86479 0.20398 0.53376 0.0
H706 H 0.84547 0.9139 0.5419 0.0
C707 C 0.8648 0.20391 0.51192 0.0
C708 C 0.85854 0.0985 0.50097 0.0
H709 H 0.87208 0.28304 0.54203 0.0
H710 H 0.8721 0.28292 0.50365 0.0
C711 C 0.85003 -0.00387 0.51202 0.0
C712 C 0.62049 0.49614 0.03359 0.0
C713 C 0.61204 0.59831 0.04473 0.0
H714 H 0.6249 0.41445 1.00365 0.0
C715 C 0.60572 0.70392 0.03385 0.0
H716 H 0.62507 0.41365 0.04174 0.0
C717 C 0.60562 0.70437 1.01201 0.0
C718 C 0.61185 0.59923 1.00097 0.0
H719 H 0.59845 0.78278 0.04219 0.0
H720 H 0.5983 0.78359 1.00381 0.0
C721 C 0.62039 0.4966 1.01193 0.0
C722 C 0.35001 0.46237 1.01211 0.0
C723 C 0.35845 0.36021 1.00098 0.0
H724 H 0.34561 0.54404 0.04206 0.0
C725 C 0.36478 0.2546 1.01185 0.0
H726 H 0.34543 0.54487 1.00397 0.0
C727 C 0.36488 0.25412 0.03369 0.0
C728 C 0.35866 0.35925 0.04473 0.0
H729 H 0.37204 0.17575 1.00351 0.0
H730 H 0.37221 0.1749 0.04189 0.0
C731 C 0.35011 0.4619 0.03378 0.0
C732 C 0.60566 0.2543 0.51197 0.0
C733 C 0.61193 0.35959 0.50099 0.0
H734 H 0.59837 0.17547 0.54209 0.0
C735 C 0.62043 0.46208 0.51201 0.0
H736 H 0.59837 0.1752 0.50371 0.0
C737 C 0.62044 0.46223 0.53368 0.0
C738 C 0.61194 0.3599 0.54475 0.0
H739 H 0.62498 0.54433 0.50379 0.0
H740 H 0.62498 0.54461 0.54187 0.0
C741 C 0.60567 0.25445 0.53381 0.0
C742 C 0.35005 0.49649 0.53371 0.0
C743 C 0.35856 0.59902 0.54472 0.0
H744 H 0.34549 0.41383 0.50387 0.0
C745 C 0.36482 0.70427 0.53373 0.0
H746 H 0.34552 0.41427 0.54195 0.0
C747 C 0.36481 0.70403 0.51189 0.0
C748 C 0.35853 0.59852 0.50097 0.0
H749 H 0.37212 0.7834 0.54197 0.0
H750 H 0.3721 0.78297 0.50359 0.0
C751 C 0.35004 0.49625 0.51205 0.0
C752 C 0.97038 0.95586 0.17294 0.0
C753 C 0.95512 0.93262 0.15408 0.0
H754 H 0.01185 0.0164 0.18767 0.0
C755 C 0.97053 0.95549 0.13529 0.0
H756 H 0.95902 0.94021 0.18768 0.0
C757 C 0.00037 0.00071 0.13529 0.0
C758 C 0.01577 0.02374 0.15407 0.0
H759 H 0.95944 0.93966 0.12046 0.0
H760 H 0.01147 0.01642 0.12046 0.0
C761 C 0.0005 0.00064 0.17294 0.0
C762 C 0.97034 0.00137 0.41039 0.0
C763 C 0.95495 0.02434 0.39161 0.0
H764 H 0.01127 0.94031 0.42522 0.0
C765 C 0.97021 0.00113 0.37275 0.0
H766 H 0.95925 0.01717 0.42522 0.0
C767 C 0.00033 0.95629 0.37274 0.0
C768 C 0.01559 0.9331 0.3916 0.0
H769 H 0.95886 0.01685 0.35801 0.0
H770 H 0.01168 0.94055 0.358 0.0
C771 C 0.00018 0.95609 0.41039 0.0
C772 C 0.00014 0.00233 0.87274 0.0
C773 C 0.0154 0.02559 0.8916 0.0
H774 H 0.95869 0.94171 0.85801 0.0
C775 C 0.0 0.00266 0.91039 0.0
H776 H 0.0115 0.01802 0.858 0.0
C777 C 0.97016 0.95737 0.91039 0.0
C778 C 0.95477 0.93433 0.89161 0.0
H779 H 0.01109 0.0185 0.92522 0.0
H780 H 0.95907 0.94162 0.92523 0.0
C781 C 0.97003 0.95748 0.87275 0.0
C782 C 0.97012 0.00183 0.67294 0.0
C783 C 0.95486 0.02497 0.65408 0.0
H784 H 0.01159 0.94138 0.68768 0.0
C785 C 0.97026 0.00199 0.63529 0.0
H786 H 0.95877 0.01756 0.68768 0.0
C787 C 0.00011 0.95677 0.63529 0.0
C788 C 0.01551 0.93386 0.65407 0.0
H789 H 0.95917 0.01773 0.62046 0.0
H790 H 0.0112 0.94099 0.62046 0.0
C791 C 0.00024 0.95706 0.67294 0.0
C792 C 0.47038 0.45576 0.17295 0.0
C793 C 0.45513 0.4325 0.15409 0.0
H794 H 0.51184 0.51636 0.18769 0.0
C795 C 0.47054 0.45541 0.1353 0.0
H796 H 0.45902 0.44008 0.18769 0.0
C797 C 0.50038 0.50068 0.1353 0.0
C798 C 0.51577 0.52372 0.15409 0.0
H799 H 0.45945 0.43957 0.12047 0.0
H800 H 0.51148 0.51641 0.12047 0.0
C801 C 0.50049 0.50059 0.17295 0.0
C802 C 0.47021 0.501 0.37276 0.0
C803 C 0.45494 0.52418 0.39162 0.0
H804 H 0.51169 0.44051 0.35802 0.0
C805 C 0.47033 0.50124 0.41041 0.0
H806 H 0.45887 0.51669 0.35802 0.0
C807 C 0.50018 0.45602 0.41041 0.0
C808 C 0.51559 0.43306 0.39162 0.0
H809 H 0.45923 0.51702 0.42524 0.0
H810 H 0.51126 0.44027 0.42524 0.0
C811 C 0.50033 0.45622 0.37276 0.0
C812 C 0.47001 0.45795 0.87276 0.0
C813 C 0.45473 0.43484 0.89162 0.0
H814 H 0.51148 0.51841 0.85802 0.0
C815 C 0.47012 0.45788 0.9104 0.0
H816 H 0.45866 0.44217 0.85801 0.0
C817 C 0.49996 0.50313 0.9104 0.0
C818 C 0.51538 0.52601 0.89162 0.0
H819 H 0.45902 0.44216 0.92523 0.0
H820 H 0.51105 0.51897 0.92523 0.0
C821 C 0.50012 0.50275 0.87276 0.0
C822 C 0.47031 0.50257 0.63531 0.0
C823 C 0.4549 0.52557 0.65409 0.0
H824 H 0.51125 0.44147 0.62048 0.0
C825 C 0.47016 0.50236 0.67295 0.0
H826 H 0.45923 0.51837 0.62047 0.0
C827 C 0.50027 0.4575 0.67295 0.0
C828 C 0.51554 0.43428 0.65409 0.0
H829 H 0.4588 0.51809 0.68769 0.0
H830 H 0.51161 0.44176 0.6877 0.0
C831 C 0.50015 0.45727 0.63531 0.0
C832 C 0.11339 0.66122 0.16822 0.0
C833 C 0.11519 0.72539 0.14951 0.0
H834 H 0.10802 0.49116 0.1827 0.0
C835 C 0.11257 0.66354 0.13057 0.0
H836 H 0.115 0.70622 0.18308 0.0
C837 C 0.10825 0.54032 0.13035 0.0
C838 C 0.10642 0.47614 0.14906 0.0
H839 H 0.1136 0.71039 0.11587 0.0
H840 H 0.10664 0.49533 0.1155 0.0
C841 C 0.10905 0.53799 0.168 0.0
C842 C 0.85832 0.29285 0.1306 0.0
C843 C 0.8557 0.23104 0.14953 0.0
H844 H 0.86426 0.46104 0.11552 0.0
C845 C 0.85749 0.29525 0.16824 0.0
H846 H 0.8573 0.24598 0.11589 0.0
C847 C 0.86183 0.41848 0.16802 0.0
C848 C 0.86446 0.48029 0.14908 0.0
H849 H 0.85588 0.25027 0.1831 0.0
H850 H 0.86285 0.46534 0.18272 0.0
C851 C 0.86264 0.41607 0.13038 0.0
C852 C 0.1132 0.29558 0.37745 0.0
C853 C 0.115 0.2314 0.39616 0.0
H854 H 0.10784 0.46564 0.36297 0.0
C855 C 0.11238 0.29324 0.4151 0.0
H856 H 0.11482 0.25058 0.3626 0.0
C857 C 0.10805 0.41646 0.41532 0.0
C858 C 0.10623 0.48065 0.39661 0.0
H859 H 0.1134 0.24639 0.4298 0.0
H860 H 0.10644 0.46145 0.43018 0.0
C861 C 0.10886 0.4188 0.37768 0.0
C862 C 0.86247 0.54101 0.41532 0.0
C863 C 0.8643 0.4768 0.39661 0.0
H864 H 0.85713 0.71109 0.42981 0.0
C865 C 0.86167 0.53862 0.37768 0.0
H866 H 0.86409 0.49604 0.43018 0.0
C867 C 0.85733 0.66184 0.37746 0.0
C868 C 0.85553 0.72605 0.39617 0.0
H869 H 0.86269 0.49177 0.36298 0.0
H870 H 0.85571 0.70683 0.36261 0.0
C871 C 0.85815 0.66423 0.41511 0.0
C872 C 0.85715 0.29679 0.87747 0.0
C873 C 0.85535 0.23262 0.89618 0.0
H874 H 0.86252 0.46685 0.86299 0.0
C875 C 0.85797 0.29446 0.91511 0.0
H876 H 0.85554 0.25179 0.86261 0.0
C877 C 0.86229 0.41769 0.91533 0.0
C878 C 0.86412 0.48186 0.89662 0.0
H879 H 0.85695 0.24762 0.92982 0.0
H880 H 0.86391 0.46268 0.93019 0.0
C881 C 0.86149 0.42002 0.87769 0.0
C882 C 0.10869 0.53986 0.87767 0.0
C883 C 0.10605 0.47805 0.8966 0.0
H884 H 0.11464 0.70807 0.86259 0.0
C885 C 0.10787 0.54226 0.91531 0.0
H886 H 0.10767 0.49301 0.86296 0.0
C887 C 0.11219 0.66549 0.91509 0.0
C888 C 0.11482 0.7273 0.89616 0.0
H889 H 0.10625 0.4973 0.93017 0.0
H890 H 0.11321 0.71236 0.92979 0.0
C891 C 0.11303 0.66309 0.87745 0.0
C892 C 0.85724 0.66243 0.66823 0.0
C893 C 0.85544 0.72661 0.64952 0.0
H894 H 0.8626 0.49237 0.68271 0.0
C895 C 0.85806 0.66477 0.63059 0.0
H896 H 0.85562 0.70743 0.68309 0.0
C897 C 0.86238 0.54154 0.63037 0.0
C898 C 0.86421 0.47736 0.64908 0.0
H899 H 0.85703 0.71161 0.61589 0.0
H900 H 0.864 0.49655 0.61551 0.0
C901 C 0.86158 0.5392 0.66801 0.0
C902 C 0.11313 0.29649 0.66823 0.0
C903 C 0.11493 0.23229 0.64951 0.0
H904 H 0.10777 0.46657 0.68271 0.0
C905 C 0.11231 0.29411 0.63058 0.0
H906 H 0.11474 0.25151 0.68308 0.0
C907 C 0.108 0.41733 0.63036 0.0
C908 C 0.10617 0.48154 0.64907 0.0
H909 H 0.11334 0.24724 0.61588 0.0
H910 H 0.10638 0.4623 0.61551 0.0
C911 C 0.1088 0.41972 0.66801 0.0
C912 C 0.60824 0.0404 0.13038 0.0
C913 C 0.60641 0.97622 0.14909 0.0
H914 H 0.6136 0.21046 0.1159 0.0
C915 C 0.60904 0.03807 0.16802 0.0
H916 H 0.60663 -0.0046 0.11552 0.0
C917 C 0.61338 0.16129 0.16825 0.0
C918 C 0.61519 0.22547 0.14953 0.0
H919 H 0.608 -0.00876 0.18273 0.0
H920 H 0.61499 0.2063 0.1831 0.0
C921 C 0.61257 0.16362 0.1306 0.0
C922 C 0.35834 0.79267 0.13059 0.0
C923 C 0.35572 0.73086 0.14952 0.0
H924 H 0.36428 0.96086 0.11551 0.0
C925 C 0.3575 0.79507 0.16823 0.0
H926 H 0.35733 0.7458 0.11588 0.0
C927 C 0.36183 0.9183 0.16801 0.0
C928 C 0.36447 -0.01989 0.14908 0.0
H929 H 0.35588 0.75009 0.18309 0.0
H930 H 0.36285 0.96516 0.18271 0.0
C931 C 0.36266 0.9159 0.13037 0.0
C932 C 0.60888 0.91888 0.3777 0.0
C933 C 0.60624 -0.01927 0.39664 0.0
H934 H 0.61483 0.75066 0.36262 0.0
C935 C 0.60806 0.91654 0.41535 0.0
H936 H 0.60785 0.96572 0.363 0.0
C937 C 0.61238 0.79331 0.41513 0.0
C938 C 0.615 0.73148 0.39619 0.0
H939 H 0.60644 0.96153 0.43021 0.0
H940 H 0.6134 0.74647 0.42983 0.0
C941 C 0.61321 0.79566 0.37748 0.0
C942 C 0.36166 0.03839 0.37767 0.0
C943 C 0.36428 0.97657 0.39661 0.0
H944 H 0.35571 0.2066 0.3626 0.0
C945 C 0.36245 0.04078 0.41532 0.0
H946 H 0.36269 -0.00846 0.36297 0.0
C947 C 0.35813 0.164 0.4151 0.0
C948 C 0.35551 0.22582 0.39617 0.0
H949 H 0.36406 -0.00419 0.43018 0.0
H950 H 0.3571 0.21087 0.4298 0.0
C951 C 0.35732 0.16161 0.37745 0.0
C952 C 0.35793 0.79494 0.9151 0.0
C953 C 0.35531 0.7331 0.89617 0.0
H954 H 0.36386 0.96316 0.93018 0.0
C955 C 0.35712 0.79727 0.87746 0.0
H956 H 0.35689 0.7481 0.9298 0.0
C957 C 0.36146 0.92049 0.87768 0.0
C958 C 0.36409 -0.01766 0.89661 0.0
H959 H 0.35551 0.75226 0.8626 0.0
H960 H 0.3625 0.96732 0.86297 0.0
C961 C 0.36225 0.91817 0.91532 0.0
C962 C 0.61216 0.16576 0.91512 0.0
C963 C 0.61479 0.22757 0.89618 0.0
H964 H 0.60623 -0.00244 0.9302 0.0
C965 C 0.613 0.16336 0.87747 0.0
H966 H 0.61318 0.21263 0.92982 0.0
C967 C 0.60868 0.04013 0.87769 0.0
C968 C 0.60604 0.97831 0.89663 0.0
H969 H 0.61462 0.20834 0.86262 0.0
H970 H 0.60766 -0.00673 0.86299 0.0
C971 C 0.60785 0.04253 0.91534 0.0
C972 C 0.36162 0.03982 0.66801 0.0
C973 C 0.36425 0.97798 0.64907 0.0
H974 H 0.35566 0.20805 0.68308 0.0
C975 C 0.36244 0.04216 0.63036 0.0
H976 H 0.36264 -0.00701 0.68271 0.0
C977 C 0.35812 0.16539 0.63058 0.0
C978 C 0.35549 0.22723 0.64952 0.0
H979 H 0.36406 -0.00282 0.6155 0.0
H980 H 0.3571 0.21224 0.61588 0.0
C981 C 0.35728 0.16305 0.66823 0.0
C982 C 0.61234 0.79432 0.63061 0.0
C983 C 0.61496 0.7325 0.64954 0.0
H984 H 0.60639 0.96251 0.61553 0.0
C985 C 0.61315 0.7967 0.66825 0.0
H986 H 0.61336 0.74745 0.61591 0.0
C987 C 0.60881 0.91992 0.66804 0.0
C988 C 0.60618 -0.01826 0.6491 0.0
H989 H 0.61477 0.75172 0.68311 0.0
H990 H 0.60778 0.96677 0.68274 0.0
C991 C 0.60801 0.91754 0.63039 0.0
loop_
_geom_bond_atom_site_label_1
_geom_bond_atom_site_label_2
_geom_bond_distance
_geom_bond_site_symmetry_2
_ccdc_geom_bond_type
Zn0 O1 2.055 . S
Zn0 O8 2.046 . S
Zn0 N16 2.036 . S
Zn0 O28 2.053 . S
Zn0 O30 2.066 1_545 S
O1 Zn0 2.055 . S
O1 C4 1.259 . S
C2 O30 1.256 . S
C2 O31 1.244 . S
Zn3 O5 2.046 . S
Zn3 O7 2.055 . S
Zn3 N9 2.036 . S
Zn3 O27 2.066 . S
Zn3 O31 2.053 1_545 S
C4 O1 1.259 . S
C4 O5 1.254 . S
O5 Zn3 2.046 . S
O5 C4 1.254 . S
C6 O27 1.256 . S
C6 O28 1.244 . S
O7 Zn3 2.055 . S
O7 C29 1.259 . S
O8 Zn0 2.046 . S
O8 C29 1.254 . S
N9 Zn3 2.036 . S
N9 C10 1.298 . S
N9 N12 1.404 . S
C10 N9 1.298 . S
C10 N13 1.367 . S
C10 C23 1.481 . S
C11 N12 1.300 . S
C11 N13 1.379 . S
N12 N9 1.404 . S
N12 C11 1.300 . S
N13 C10 1.367 . S
N13 C11 1.379 . S
C14 N16 1.298 . S
C14 N18 1.367 . S
C14 C22 1.481 1_545 S
C15 N17 1.299 . S
C15 N18 1.379 . S
N16 Zn0 2.036 . S
N16 C14 1.298 . S
N16 N17 1.398 . S
N17 C15 1.299 . S
N17 N16 1.398 . S
N18 C14 1.367 . S
N18 C15 1.379 . S
H19 C22 0.980 1_545 S
H20 C22 0.981 1_545 S
H21 C22 0.981 . S
C22 C14 1.481 1_565 S
C22 H19 0.980 1_565 S
C22 H20 0.981 1_565 S
C22 H21 0.981 . S
C23 C10 1.481 . S
C23 H24 0.980 . S
C23 H25 0.981 . S
C23 H26 0.981 . S
H24 C23 0.980 . S
H25 C23 0.981 . S
H26 C23 0.981 . S
O27 Zn3 2.066 . S
O27 C6 1.256 . S
O28 Zn0 2.053 . S
O28 C6 1.244 . S
C29 O7 1.259 . S
C29 O8 1.254 . S
O30 Zn0 2.066 1_565 S
O30 C2 1.256 . S
O31 C2 1.244 . S
O31 Zn3 2.053 1_565 S
Zn32 O33 2.055 . S
Zn32 O40 2.046 . S
Zn32 N48 2.036 . S
Zn32 O60 2.053 . S
Zn32 O62 2.066 1_565 S
O33 Zn32 2.055 . S
O33 C36 1.259 . S
C34 O62 1.256 . S
C34 O63 1.244 . S
Zn35 O37 2.046 . S
Zn35 O39 2.055 . S
Zn35 N41 2.036 . S
Zn35 O59 2.066 . S
Zn35 O63 2.053 1_565 S
C36 O33 1.259 . S
C36 O37 1.254 . S
O37 Zn35 2.046 . S
O37 C36 1.254 . S
C38 O59 1.256 . S
C38 O60 1.244 . S
O39 Zn35 2.055 . S
O39 C61 1.259 . S
O40 Zn32 2.046 . S
O40 C61 1.254 . S
N41 Zn35 2.036 . S
N41 C42 1.298 . S
N41 N44 1.404 . S
C42 N41 1.298 . S
C42 N45 1.367 . S
C42 C55 1.481 . S
C43 N44 1.300 . S
C43 N45 1.379 . S
N44 N41 1.404 . S
N44 C43 1.300 . S
N45 C42 1.367 . S
N45 C43 1.379 . S
C46 N48 1.298 . S
C46 N50 1.367 . S
C46 C54 1.481 1_565 S
C47 N49 1.299 . S
C47 N50 1.379 . S
N48 Zn32 2.036 . S
N48 C46 1.298 . S
N48 N49 1.398 . S
N49 C47 1.299 . S
N49 N48 1.398 . S
N50 C46 1.367 . S
N50 C47 1.379 . S
H51 C54 0.980 1_565 S
H52 C54 0.981 1_565 S
H53 C54 0.981 . S
C54 C46 1.481 1_545 S
C54 H51 0.980 1_545 S
C54 H52 0.981 1_545 S
C54 H53 0.981 . S
C55 C42 1.481 . S
C55 H56 0.980 . S
C55 H57 0.981 . S
C55 H58 0.981 . S
H56 C55 0.980 . S
H57 C55 0.981 . S
H58 C55 0.981 . S
O59 Zn35 2.066 . S
O59 C38 1.256 . S
O60 Zn32 2.053 . S
O60 C38 1.244 . S
C61 O39 1.259 . S
C61 O40 1.254 . S
O62 Zn32 2.066 1_545 S
O62 C34 1.256 . S
O63 C34 1.244 . S
O63 Zn35 2.053 1_545 S
Zn64 O65 2.055 . S
Zn64 O72 2.046 . S
Zn64 N80 2.036 . S
Zn64 O92 2.053 1_565 S
Zn64 O94 2.066 . S
O65 Zn64 2.055 . S
O65 C68 1.259 . S
C66 O94 1.256 . S
C66 O95 1.244 . S
Zn67 O69 2.046 . S
Zn67 O71 2.055 . S
Zn67 N73 2.036 . S
Zn67 O91 2.066 1_565 S
Zn67 O95 2.053 . S
C68 O65 1.259 . S
C68 O69 1.254 . S
O69 Zn67 2.046 . S
O69 C68 1.254 . S
C70 O91 1.256 . S
C70 O92 1.244 . S
O71 Zn67 2.055 . S
O71 C93 1.259 . S
O72 Zn64 2.046 . S
O72 C93 1.254 . S
N73 Zn67 2.036 . S
N73 C74 1.298 . S
N73 N76 1.398 . S
C74 N73 1.298 . S
C74 N77 1.367 . S
C74 C87 1.481 1_565 S
C75 N76 1.299 . S
C75 N77 1.379 . S
N76 N73 1.398 . S
N76 C75 1.299 . S
N77 C74 1.367 . S
N77 C75 1.379 . S
C78 N80 1.298 . S
C78 N82 1.367 . S
C78 C86 1.481 . S
C79 N81 1.300 . S
C79 N82 1.379 . S
N80 Zn64 2.036 . S
N80 C78 1.298 . S
N80 N81 1.404 . S
N81 C79 1.300 . S
N81 N80 1.404 . S
N82 C78 1.367 . S
N82 C79 1.379 . S
H83 C86 0.980 . S
H84 C86 0.981 . S
H85 C86 0.981 . S
C86 C78 1.481 . S
C86 H83 0.980 . S
C86 H84 0.981 . S
C86 H85 0.981 . S
C87 C74 1.481 1_545 S
C87 H88 0.980 1_545 S
C87 H89 0.981 1_545 S
C87 H90 0.981 . S
H88 C87 0.980 1_565 S
H89 C87 0.981 1_565 S
H90 C87 0.981 . S
O91 Zn67 2.066 1_545 S
O91 C70 1.256 . S
O92 Zn64 2.053 1_545 S
O92 C70 1.244 . S
C93 O71 1.259 . S
C93 O72 1.254 . S
O94 Zn64 2.066 . S
O94 C66 1.256 . S
O95 C66 1.244 . S
O95 Zn67 2.053 . S
Zn96 O97 2.055 . S
Zn96 O104 2.046 . S
Zn96 N112 2.036 . S
Zn96 O124 2.053 . S
Zn96 O126 2.066 1_545 S
O97 Zn96 2.055 . S
O97 C100 1.259 . S
C98 O126 1.256 . S
C98 O127 1.244 . S
Zn99 O101 2.046 . S
Zn99 O103 2.055 . S
Zn99 N105 2.036 . S
Zn99 O123 2.066 . S
Zn99 O127 2.053 1_545 S
C100 O97 1.259 . S
C100 O101 1.254 . S
O101 Zn99 2.046 . S
O101 C100 1.254 . S
C102 O123 1.256 . S
C102 O124 1.244 . S
O103 Zn99 2.055 . S
O103 C125 1.259 . S
O104 Zn96 2.046 . S
O104 C125 1.254 . S
N105 Zn99 2.036 . S
N105 C106 1.298 . S
N105 N108 1.404 . S
C106 N105 1.298 . S
C106 N109 1.367 . S
C106 C119 1.481 . S
C107 N108 1.300 . S
C107 N109 1.379 . S
N108 N105 1.404 . S
N108 C107 1.300 . S
N109 C106 1.367 . S
N109 C107 1.379 . S
C110 N112 1.298 . S
C110 N114 1.367 . S
C110 C118 1.481 1_545 S
C111 N113 1.299 . S
C111 N114 1.379 . S
N112 Zn96 2.036 . S
N112 C110 1.298 . S
N112 N113 1.398 . S
N113 C111 1.299 . S
N113 N112 1.398 . S
N114 C110 1.367 . S
N114 C111 1.379 . S
H115 C118 0.980 1_545 S
H116 C118 0.981 1_545 S
H117 C118 0.981 . S
C118 C110 1.481 1_565 S
C118 H115 0.980 1_565 S
C118 H116 0.981 1_565 S
C118 H117 0.981 . S
C119 C106 1.481 . S
C119 H120 0.980 . S
C119 H121 0.981 . S
C119 H122 0.981 . S
H120 C119 0.980 . S
H121 C119 0.981 . S
H122 C119 0.981 . S
O123 Zn99 2.066 . S
O123 C102 1.256 . S
O124 Zn96 2.053 . S
O124 C102 1.244 . S
C125 O103 1.259 . S
C125 O104 1.254 . S
O126 Zn96 2.066 1_565 S
O126 C98 1.256 . S
O127 C98 1.244 . S
O127 Zn99 2.053 1_565 S
Zn128 O129 2.055 . S
Zn128 O136 2.046 . S
Zn128 N144 2.036 . S
Zn128 O156 2.053 1_565 S
Zn128 O158 2.066 . S
O129 Zn128 2.055 . S
O129 C132 1.259 . S
C130 O158 1.256 . S
C130 O159 1.244 . S
Zn131 O133 2.046 . S
Zn131 O135 2.055 . S
Zn131 N137 2.036 . S
Zn131 O155 2.066 1_565 S
Zn131 O159 2.053 . S
C132 O129 1.259 . S
C132 O133 1.254 . S
O133 Zn131 2.046 . S
O133 C132 1.254 . S
C134 O155 1.256 . S
C134 O156 1.244 . S
O135 Zn131 2.055 . S
O135 C157 1.259 . S
O136 Zn128 2.046 . S
O136 C157 1.254 . S
N137 Zn131 2.036 . S
N137 C138 1.298 . S
N137 N140 1.398 . S
C138 N137 1.298 . S
C138 N141 1.367 . S
C138 C151 1.481 1_565 S
C139 N140 1.299 . S
C139 N141 1.379 . S
N140 N137 1.398 . S
N140 C139 1.299 . S
N141 C138 1.367 . S
N141 C139 1.379 . S
C142 N144 1.298 . S
C142 N146 1.367 . S
C142 C150 1.481 . S
C143 N145 1.300 . S
C143 N146 1.379 . S
N144 Zn128 2.036 . S
N144 C142 1.298 . S
N144 N145 1.404 . S
N145 C143 1.300 . S
N145 N144 1.404 . S
N146 C142 1.367 . S
N146 C143 1.379 . S
H147 C150 0.980 . S
H148 C150 0.981 . S
H149 C150 0.981 . S
C150 C142 1.481 . S
C150 H147 0.980 . S
C150 H148 0.981 . S
C150 H149 0.981 . S
C151 C138 1.481 1_545 S
C151 H152 0.980 1_545 S
C151 H153 0.981 1_545 S
C151 H154 0.981 . S
H152 C151 0.980 1_565 S
H153 C151 0.981 1_565 S
H154 C151 0.981 . S
O155 Zn131 2.066 1_545 S
O155 C134 1.256 . S
O156 Zn128 2.053 1_545 S
O156 C134 1.244 . S
C157 O135 1.259 . S
C157 O136 1.254 . S
O158 Zn128 2.066 . S
O158 C130 1.256 . S
O159 C130 1.244 . S
O159 Zn131 2.053 . S
Zn160 O161 2.055 . S
Zn160 O168 2.046 . S
Zn160 N176 2.036 . S
Zn160 O188 2.053 . S
Zn160 O190 2.066 1_545 S
O161 Zn160 2.055 . S
O161 C164 1.259 . S
C162 O190 1.256 . S
C162 O191 1.244 . S
Zn163 O165 2.046 . S
Zn163 O167 2.055 . S
Zn163 N169 2.036 . S
Zn163 O187 2.066 . S
Zn163 O191 2.053 1_545 S
C164 O161 1.259 . S
C164 O165 1.254 . S
O165 Zn163 2.046 . S
O165 C164 1.254 . S
C166 O187 1.256 . S
C166 O188 1.244 . S
O167 Zn163 2.055 . S
O167 C189 1.259 . S
O168 Zn160 2.046 . S
O168 C189 1.254 . S
N169 Zn163 2.036 . S
N169 C170 1.298 . S
N169 N172 1.404 . S
C170 N169 1.298 . S
C170 N173 1.367 . S
C170 C183 1.481 . S
C171 N172 1.300 . S
C171 N173 1.379 . S
N172 N169 1.404 . S
N172 C171 1.300 . S
N173 C170 1.367 . S
N173 C171 1.379 . S
C174 N176 1.298 . S
C174 N178 1.367 . S
C174 C182 1.481 1_545 S
C175 N177 1.299 . S
C175 N178 1.379 . S
N176 Zn160 2.036 . S
N176 C174 1.298 . S
N176 N177 1.398 . S
N177 C175 1.299 . S
N177 N176 1.398 . S
N178 C174 1.367 . S
N178 C175 1.379 . S
H179 C182 0.980 1_545 S
H180 C182 0.981 1_545 S
H181 C182 0.981 . S
C182 C174 1.481 1_565 S
C182 H179 0.980 1_565 S
C182 H180 0.981 1_565 S
C182 H181 0.981 . S
C183 C170 1.481 . S
C183 H184 0.980 . S
C183 H185 0.981 . S
C183 H186 0.981 . S
H184 C183 0.980 . S
H185 C183 0.981 . S
H186 C183 0.981 . S
O187 Zn163 2.066 . S
O187 C166 1.256 . S
O188 Zn160 2.053 . S
O188 C166 1.244 . S
C189 O167 1.259 . S
C189 O168 1.254 . S
O190 Zn160 2.066 1_565 S
O190 C162 1.256 . S
O191 C162 1.244 . S
O191 Zn163 2.053 1_565 S
Zn192 O193 2.055 . S
Zn192 O200 2.046 . S
Zn192 N208 2.036 . S
Zn192 O220 2.053 . S
Zn192 O222 2.066 1_545 S
O193 Zn192 2.055 . S
O193 C196 1.259 . S
C194 O222 1.256 . S
C194 O223 1.244 . S
Zn195 O197 2.046 . S
Zn195 O199 2.055 . S
Zn195 N201 2.036 . S
Zn195 O219 2.066 . S
Zn195 O223 2.053 1_545 S
C196 O193 1.259 . S
C196 O197 1.254 . S
O197 Zn195 2.046 . S
O197 C196 1.254 . S
C198 O219 1.256 . S
C198 O220 1.244 . S
O199 Zn195 2.055 . S
O199 C221 1.259 . S
O200 Zn192 2.046 . S
O200 C221 1.254 . S
N201 Zn195 2.036 . S
N201 C202 1.298 . S
N201 N204 1.404 . S
C202 N201 1.298 . S
C202 N205 1.367 . S
C202 C215 1.481 . S
C203 N204 1.300 . S
C203 N205 1.379 . S
N204 N201 1.404 . S
N204 C203 1.300 . S
N205 C202 1.367 . S
N205 C203 1.379 . S
C206 N208 1.298 . S
C206 N210 1.367 . S
C206 C214 1.481 1_545 S
C207 N209 1.299 . S
C207 N210 1.379 . S
N208 Zn192 2.036 . S
N208 C206 1.298 . S
N208 N209 1.398 . S
N209 C207 1.299 . S
N209 N208 1.398 . S
N210 C206 1.367 . S
N210 C207 1.379 . S
H211 C214 0.980 1_545 S
H212 C214 0.981 1_545 S
H213 C214 0.981 . S
C214 C206 1.481 1_565 S
C214 H211 0.980 1_565 S
C214 H212 0.981 1_565 S
C214 H213 0.981 . S
C215 C202 1.481 . S
C215 H216 0.980 . S
C215 H217 0.981 . S
C215 H218 0.981 . S
H216 C215 0.980 . S
H217 C215 0.981 . S
H218 C215 0.981 . S
O219 Zn195 2.066 . S
O219 C198 1.256 . S
O220 Zn192 2.053 . S
O220 C198 1.244 . S
C221 O199 1.259 . S
C221 O200 1.254 . S
O222 Zn192 2.066 1_565 S
O222 C194 1.256 . S
O223 C194 1.244 . S
O223 Zn195 2.053 1_565 S
Zn224 O225 2.055 . S
Zn224 O232 2.046 . S
Zn224 N240 2.036 . S
Zn224 O252 2.053 . S
Zn224 O254 2.066 1_565 S
O225 Zn224 2.055 . S
O225 C228 1.259 . S
C226 O254 1.256 . S
C226 O255 1.244 . S
Zn227 O229 2.046 . S
Zn227 O231 2.055 . S
Zn227 N233 2.036 . S
Zn227 O251 2.066 . S
Zn227 O255 2.053 1_565 S
C228 O225 1.259 . S
C228 O229 1.254 . S
O229 Zn227 2.046 . S
O229 C228 1.254 . S
C230 O251 1.256 . S
C230 O252 1.244 . S
O231 Zn227 2.055 . S
O231 C253 1.259 . S
O232 Zn224 2.046 . S
O232 C253 1.254 . S
N233 Zn227 2.036 . S
N233 C234 1.298 . S
N233 N236 1.404 . S
C234 N233 1.298 . S
C234 N237 1.367 . S
C234 C247 1.481 . S
C235 N236 1.300 . S
C235 N237 1.379 . S
N236 N233 1.404 . S
N236 C235 1.300 . S
N237 C234 1.367 . S
N237 C235 1.379 . S
C238 N240 1.298 . S
C238 N242 1.367 . S
C238 C246 1.481 1_565 S
C239 N241 1.299 . S
C239 N242 1.379 . S
N240 Zn224 2.036 . S
N240 C238 1.298 . S
N240 N241 1.398 . S
N241 C239 1.299 . S
N241 N240 1.398 . S
N242 C238 1.367 . S
N242 C239 1.379 . S
H243 C246 0.980 1_565 S
H244 C246 0.981 1_565 S
H245 C246 0.981 . S
C246 C238 1.481 1_545 S
C246 H243 0.980 1_545 S
C246 H244 0.981 1_545 S
C246 H245 0.981 . S
C247 C234 1.481 . S
C247 H248 0.980 . S
C247 H249 0.981 . S
C247 H250 0.981 . S
H248 C247 0.980 . S
H249 C247 0.981 . S
H250 C247 0.981 . S
O251 Zn227 2.066 . S
O251 C230 1.256 . S
O252 Zn224 2.053 . S
O252 C230 1.244 . S
C253 O231 1.259 . S
C253 O232 1.254 . S
O254 Zn224 2.066 1_545 S
O254 C226 1.256 . S
O255 C226 1.244 . S
O255 Zn227 2.053 1_545 S
Zn256 O257 2.055 . S
Zn256 O264 2.046 . S
Zn256 N272 2.036 . S
Zn256 O284 2.053 . S
Zn256 O286 2.066 . S
O257 Zn256 2.055 . S
O257 C260 1.259 . S
C258 O286 1.256 . S
C258 O287 1.244 . S
Zn259 O261 2.046 . S
Zn259 O263 2.055 . S
Zn259 N265 2.036 . S
Zn259 O283 2.066 . S
Zn259 O287 2.053 . S
C260 O257 1.259 . S
C260 O261 1.254 . S
O261 Zn259 2.046 . S
O261 C260 1.254 . S
C262 O283 1.256 . S
C262 O284 1.244 . S
O263 Zn259 2.055 . S
O263 C285 1.259 . S
O264 Zn256 2.046 . S
O264 C285 1.254 . S
N265 Zn259 2.036 . S
N265 C266 1.298 . S
N265 N268 1.398 . S
C266 N265 1.298 . S
C266 N269 1.367 . S
C266 C279 1.481 . S
C267 N268 1.299 . S
C267 N269 1.379 . S
N268 N265 1.398 . S
N268 C267 1.299 . S
N269 C266 1.367 . S
N269 C267 1.379 . S
C270 N272 1.298 . S
C270 N274 1.367 . S
C270 C278 1.481 . S
C271 N273 1.299 . S
C271 N274 1.379 . S
N272 Zn256 2.036 . S
N272 C270 1.298 . S
N272 N273 1.398 . S
N273 C271 1.299 . S
N273 N272 1.398 . S
N274 C270 1.367 . S
N274 C271 1.379 . S
H275 C278 0.980 . S
H276 C278 0.981 . S
H277 C278 0.981 . S
C278 C270 1.481 . S
C278 H275 0.980 . S
C278 H276 0.981 . S
C278 H277 0.981 . S
C279 C266 1.481 . S
C279 H280 0.980 . S
C279 H281 0.981 . S
C279 H282 0.981 . S
H280 C279 0.980 . S
H281 C279 0.981 . S
H282 C279 0.981 . S
O283 Zn259 2.066 . S
O283 C262 1.256 . S
O284 Zn256 2.053 . S
O284 C262 1.244 . S
C285 O263 1.259 . S
C285 O264 1.254 . S
O286 Zn256 2.066 . S
O286 C258 1.256 . S
O287 C258 1.244 . S
O287 Zn259 2.053 . S
Zn288 O289 2.055 . S
Zn288 O296 2.046 . S
Zn288 N304 2.036 . S
Zn288 O316 2.053 . S
Zn288 O318 2.066 . S
O289 Zn288 2.055 . S
O289 C292 1.259 . S
C290 O318 1.256 . S
C290 O319 1.244 . S
Zn291 O293 2.046 . S
Zn291 O295 2.055 . S
Zn291 N297 2.036 . S
Zn291 O315 2.066 . S
Zn291 O319 2.053 . S
C292 O289 1.259 . S
C292 O293 1.254 . S
O293 Zn291 2.046 . S
O293 C292 1.254 . S
C294 O315 1.256 . S
C294 O316 1.244 . S
O295 Zn291 2.055 . S
O295 C317 1.259 . S
O296 Zn288 2.046 . S
O296 C317 1.254 . S
N297 Zn291 2.036 . S
N297 C298 1.298 . S
N297 N300 1.398 . S
C298 N297 1.298 . S
C298 N301 1.367 . S
C298 C311 1.481 . S
C299 N300 1.299 . S
C299 N301 1.379 . S
N300 N297 1.398 . S
N300 C299 1.299 . S
N301 C298 1.367 . S
N301 C299 1.379 . S
C302 N304 1.298 . S
C302 N306 1.367 . S
C302 C310 1.481 . S
C303 N305 1.299 . S
C303 N306 1.379 . S
N304 Zn288 2.036 . S
N304 C302 1.298 . S
N304 N305 1.398 . S
N305 C303 1.299 . S
N305 N304 1.398 . S
N306 C302 1.367 . S
N306 C303 1.379 . S
H307 C310 0.980 . S
H308 C310 0.981 . S
H309 C310 0.981 . S
C310 C302 1.481 . S
C310 H307 0.980 . S
C310 H308 0.981 . S
C310 H309 0.981 . S
C311 C298 1.481 . S
C311 H312 0.980 . S
C311 H313 0.981 . S
C311 H314 0.981 . S
H312 C311 0.980 . S
H313 C311 0.981 . S
H314 C311 0.981 . S
O315 Zn291 2.066 . S
O315 C294 1.256 . S
O316 Zn288 2.053 . S
O316 C294 1.244 . S
C317 O295 1.259 . S
C317 O296 1.254 . S
O318 Zn288 2.066 . S
O318 C290 1.256 . S
O319 C290 1.244 . S
O319 Zn291 2.053 . S
Zn320 O321 2.055 . S
Zn320 O328 2.046 . S
Zn320 N336 2.036 . S
Zn320 O348 2.053 . S
Zn320 O350 2.066 . S
O321 Zn320 2.055 . S
O321 C324 1.259 . S
C322 O350 1.256 . S
C322 O351 1.244 . S
Zn323 O325 2.046 . S
Zn323 O327 2.055 . S
Zn323 N329 2.036 . S
Zn323 O347 2.066 . S
Zn323 O351 2.053 . S
C324 O321 1.259 . S
C324 O325 1.254 . S
O325 Zn323 2.046 . S
O325 C324 1.254 . S
C326 O347 1.256 . S
C326 O348 1.244 . S
O327 Zn323 2.055 . S
O327 C349 1.259 . S
O328 Zn320 2.046 . S
O328 C349 1.254 . S
N329 Zn323 2.036 . S
N329 C330 1.298 . S
N329 N332 1.398 . S
C330 N329 1.298 . S
C330 N333 1.367 . S
C330 C343 1.481 . S
C331 N332 1.299 . S
C331 N333 1.379 . S
N332 N329 1.398 . S
N332 C331 1.299 . S
N333 C330 1.367 . S
N333 C331 1.379 . S
C334 N336 1.298 . S
C334 N338 1.367 . S
C334 C342 1.481 . S
C335 N337 1.299 . S
C335 N338 1.379 . S
N336 Zn320 2.036 . S
N336 C334 1.298 . S
N336 N337 1.398 . S
N337 C335 1.299 . S
N337 N336 1.398 . S
N338 C334 1.367 . S
N338 C335 1.379 . S
H339 C342 0.980 . S
H340 C342 0.981 . S
H341 C342 0.981 . S
C342 C334 1.481 . S
C342 H339 0.980 . S
C342 H340 0.981 . S
C342 H341 0.981 . S
C343 C330 1.481 . S
C343 H344 0.980 . S
C343 H345 0.981 . S
C343 H346 0.981 . S
H344 C343 0.980 . S
H345 C343 0.981 . S
H346 C343 0.981 . S
O347 Zn323 2.066 . S
O347 C326 1.256 . S
O348 Zn320 2.053 . S
O348 C326 1.244 . S
C349 O327 1.259 . S
C349 O328 1.254 . S
O350 Zn320 2.066 . S
O350 C322 1.256 . S
O351 C322 1.244 . S
O351 Zn323 2.053 . S
Zn352 O353 2.055 . S
Zn352 O360 2.046 . S
Zn352 N368 2.036 . S
Zn352 O380 2.053 . S
Zn352 O382 2.066 . S
O353 Zn352 2.055 . S
O353 C356 1.259 . S
C354 O382 1.256 . S
C354 O383 1.244 . S
Zn355 O357 2.046 . S
Zn355 O359 2.055 . S
Zn355 N361 2.036 . S
Zn355 O379 2.066 . S
Zn355 O383 2.053 . S
C356 O353 1.259 . S
C356 O357 1.254 . S
O357 Zn355 2.046 . S
O357 C356 1.254 . S
C358 O379 1.256 . S
C358 O380 1.244 . S
O359 Zn355 2.055 . S
O359 C381 1.259 . S
O360 Zn352 2.046 . S
O360 C381 1.254 . S
N361 Zn355 2.036 . S
N361 C362 1.298 . S
N361 N364 1.398 . S
C362 N361 1.298 . S
C362 N365 1.367 . S
C362 C375 1.481 . S
C363 N364 1.299 . S
C363 N365 1.379 . S
N364 N361 1.398 . S
N364 C363 1.299 . S
N365 C362 1.367 . S
N365 C363 1.379 . S
C366 N368 1.298 . S
C366 N370 1.367 . S
C366 C374 1.481 . S
C367 N369 1.299 . S
C367 N370 1.379 . S
N368 Zn352 2.036 . S
N368 C366 1.298 . S
N368 N369 1.398 . S
N369 C367 1.299 . S
N369 N368 1.398 . S
N370 C366 1.367 . S
N370 C367 1.379 . S
H371 C374 0.980 . S
H372 C374 0.981 . S
H373 C374 0.981 . S
C374 C366 1.481 . S
C374 H371 0.980 . S
C374 H372 0.981 . S
C374 H373 0.981 . S
C375 C362 1.481 . S
C375 H376 0.980 . S
C375 H377 0.981 . S
C375 H378 0.981 . S
H376 C375 0.980 . S
H377 C375 0.981 . S
H378 C375 0.981 . S
O379 Zn355 2.066 . S
O379 C358 1.256 . S
O380 Zn352 2.053 . S
O380 C358 1.244 . S
C381 O359 1.259 . S
C381 O360 1.254 . S
O382 Zn352 2.066 . S
O382 C354 1.256 . S
O383 C354 1.244 . S
O383 Zn355 2.053 . S
Zn384 O385 2.055 . S
Zn384 O392 2.046 . S
Zn384 N400 2.036 . S
Zn384 O412 2.053 . S
Zn384 O414 2.066 . S
O385 Zn384 2.055 . S
O385 C388 1.259 . S
C386 O414 1.256 . S
C386 O415 1.244 . S
Zn387 O389 2.046 . S
Zn387 O391 2.055 . S
Zn387 N393 2.036 . S
Zn387 O411 2.066 . S
Zn387 O415 2.053 . S
C388 O385 1.259 . S
C388 O389 1.254 . S
O389 Zn387 2.046 . S
O389 C388 1.254 . S
C390 O411 1.256 . S
C390 O412 1.244 . S
O391 Zn387 2.055 . S
O391 C413 1.259 . S
O392 Zn384 2.046 . S
O392 C413 1.254 . S
N393 Zn387 2.036 . S
N393 C394 1.298 . S
N393 N396 1.398 . S
C394 N393 1.298 . S
C394 N397 1.367 . S
C394 C407 1.481 . S
C395 N396 1.299 . S
C395 N397 1.379 . S
N396 N393 1.398 . S
N396 C395 1.299 . S
N397 C394 1.367 . S
N397 C395 1.379 . S
C398 N400 1.298 . S
C398 N402 1.367 . S
C398 C406 1.481 . S
C399 N401 1.299 . S
C399 N402 1.379 . S
N400 Zn384 2.036 . S
N400 C398 1.298 . S
N400 N401 1.398 . S
N401 C399 1.299 . S
N401 N400 1.398 . S
N402 C398 1.367 . S
N402 C399 1.379 . S
H403 C406 0.980 . S
H404 C406 0.981 . S
H405 C406 0.981 . S
C406 C398 1.481 . S
C406 H403 0.980 . S
C406 H404 0.981 . S
C406 H405 0.981 . S
C407 C394 1.481 . S
C407 H408 0.980 . S
C407 H409 0.981 . S
C407 H410 0.981 . S
H408 C407 0.980 . S
H409 C407 0.981 . S
H410 C407 0.981 . S
O411 Zn387 2.066 . S
O411 C390 1.256 . S
O412 Zn384 2.053 . S
O412 C390 1.244 . S
C413 O391 1.259 . S
C413 O392 1.254 . S
O414 Zn384 2.066 . S
O414 C386 1.256 . S
O415 C386 1.244 . S
O415 Zn387 2.053 . S
Zn416 O417 2.055 . S
Zn416 O424 2.046 . S
Zn416 N432 2.036 . S
Zn416 O444 2.053 . S
Zn416 O446 2.066 . S
O417 Zn416 2.055 . S
O417 C420 1.259 . S
C418 O446 1.256 . S
C418 O447 1.244 . S
Zn419 O421 2.046 . S
Zn419 O423 2.055 . S
Zn419 N425 2.036 . S
Zn419 O443 2.066 . S
Zn419 O447 2.053 . S
C420 O417 1.259 . S
C420 O421 1.254 . S
O421 Zn419 2.046 . S
O421 C420 1.254 . S
C422 O443 1.256 . S
C422 O444 1.244 . S
O423 Zn419 2.055 . S
O423 C445 1.259 . S
O424 Zn416 2.046 . S
O424 C445 1.254 . S
N425 Zn419 2.036 . S
N425 C426 1.298 . S
N425 N428 1.398 . S
C426 N425 1.298 . S
C426 N429 1.367 . S
C426 C439 1.481 . S
C427 N428 1.299 . S
C427 N429 1.379 . S
N428 N425 1.398 . S
N428 C427 1.299 . S
N429 C426 1.367 . S
N429 C427 1.379 . S
C430 N432 1.298 . S
C430 N434 1.367 . S
C430 C438 1.481 . S
C431 N433 1.299 . S
C431 N434 1.379 . S
N432 Zn416 2.036 . S
N432 C430 1.298 . S
N432 N433 1.398 . S
N433 C431 1.299 . S
N433 N432 1.398 . S
N434 C430 1.367 . S
N434 C431 1.379 . S
H435 C438 0.980 . S
H436 C438 0.981 . S
H437 C438 0.981 . S
C438 C430 1.481 . S
C438 H435 0.980 . S
C438 H436 0.981 . S
C438 H437 0.981 . S
C439 C426 1.481 . S
C439 H440 0.980 . S
C439 H441 0.981 . S
C439 H442 0.981 . S
H440 C439 0.980 . S
H441 C439 0.981 . S
H442 C439 0.981 . S
O443 Zn419 2.066 . S
O443 C422 1.256 . S
O444 Zn416 2.053 . S
O444 C422 1.244 . S
C445 O423 1.259 . S
C445 O424 1.254 . S
O446 Zn416 2.066 . S
O446 C418 1.256 . S
O447 C418 1.244 . S
O447 Zn419 2.053 . S
Zn448 O449 2.055 . S
Zn448 O456 2.046 . S
Zn448 N464 2.036 . S
Zn448 O476 2.053 . S
Zn448 O478 2.066 . S
O449 Zn448 2.055 . S
O449 C452 1.259 . S
C450 O478 1.256 . S
C450 O479 1.244 . S
Zn451 O453 2.046 . S
Zn451 O455 2.055 . S
Zn451 N457 2.036 . S
Zn451 O475 2.066 . S
Zn451 O479 2.053 . S
C452 O449 1.259 . S
C452 O453 1.254 . S
O453 Zn451 2.046 . S
O453 C452 1.254 . S
C454 O475 1.256 . S
C454 O476 1.244 . S
O455 Zn451 2.055 . S
O455 C477 1.259 . S
O456 Zn448 2.046 . S
O456 C477 1.254 . S
N457 Zn451 2.036 . S
N457 C458 1.298 . S
N457 N460 1.398 . S
C458 N457 1.298 . S
C458 N461 1.367 . S
C458 C471 1.481 . S
C459 N460 1.299 . S
C459 N461 1.379 . S
N460 N457 1.398 . S
N460 C459 1.299 . S
N461 C458 1.367 . S
N461 C459 1.379 . S
C462 N464 1.298 . S
C462 N466 1.367 . S
C462 C470 1.481 . S
C463 N465 1.299 . S
C463 N466 1.379 . S
N464 Zn448 2.036 . S
N464 C462 1.298 . S
N464 N465 1.398 . S
N465 C463 1.299 . S
N465 N464 1.398 . S
N466 C462 1.367 . S
N466 C463 1.379 . S
H467 C470 0.980 . S
H468 C470 0.981 . S
H469 C470 0.981 . S
C470 C462 1.481 . S
C470 H467 0.980 . S
C470 H468 0.981 . S
C470 H469 0.981 . S
C471 C458 1.481 . S
C471 H472 0.980 . S
C471 H473 0.981 . S
C471 H474 0.981 . S
H472 C471 0.980 . S
H473 C471 0.981 . S
H474 C471 0.981 . S
O475 Zn451 2.066 . S
O475 C454 1.256 . S
O476 Zn448 2.053 . S
O476 C454 1.244 . S
C477 O455 1.259 . S
C477 O456 1.254 . S
O478 Zn448 2.066 . S
O478 C450 1.256 . S
O479 C450 1.244 . S
O479 Zn451 2.053 . S
Zn480 O481 2.055 . S
Zn480 O488 2.046 . S
Zn480 N496 2.036 . S
Zn480 O508 2.053 . S
Zn480 O510 2.066 . S
O481 Zn480 2.055 . S
O481 C484 1.259 . S
C482 O510 1.256 . S
C482 O511 1.244 . S
Zn483 O485 2.046 . S
Zn483 O487 2.055 . S
Zn483 N489 2.036 . S
Zn483 O507 2.066 . S
Zn483 O511 2.053 . S
C484 O481 1.259 . S
C484 O485 1.254 . S
O485 Zn483 2.046 . S
O485 C484 1.254 . S
C486 O507 1.256 . S
C486 O508 1.244 . S
O487 Zn483 2.055 . S
O487 C509 1.259 . S
O488 Zn480 2.046 . S
O488 C509 1.254 . S
N489 Zn483 2.036 . S
N489 C490 1.298 . S
N489 N492 1.398 . S
C490 N489 1.298 . S
C490 N493 1.367 . S
C490 C503 1.481 . S
C491 N492 1.299 . S
C491 N493 1.379 . S
N492 N489 1.398 . S
N492 C491 1.299 . S
N493 C490 1.367 . S
N493 C491 1.379 . S
C494 N496 1.298 . S
C494 N498 1.367 . S
C494 C502 1.481 . S
C495 N497 1.299 . S
C495 N498 1.379 . S
N496 Zn480 2.036 . S
N496 C494 1.298 . S
N496 N497 1.398 . S
N497 C495 1.299 . S
N497 N496 1.398 . S
N498 C494 1.367 . S
N498 C495 1.379 . S
H499 C502 0.980 . S
H500 C502 0.981 . S
H501 C502 0.981 . S
C502 C494 1.481 . S
C502 H499 0.980 . S
C502 H500 0.981 . S
C502 H501 0.981 . S
C503 C490 1.481 . S
C503 H504 0.980 . S
C503 H505 0.981 . S
C503 H506 0.981 . S
H504 C503 0.980 . S
H505 C503 0.981 . S
H506 C503 0.981 . S
O507 Zn483 2.066 . S
O507 C486 1.256 . S
O508 Zn480 2.053 . S
O508 C486 1.244 . S
C509 O487 1.259 . S
C509 O488 1.254 . S
O510 Zn480 2.066 . S
O510 C482 1.256 . S
O511 C482 1.244 . S
O511 Zn483 2.053 . S
C512 C513 1.387 . S
C512 H516 0.950 . S
C512 C521 1.390 . S
C513 C512 1.387 . S
C513 C515 1.387 . S
H514 C521 0.950 . S
C515 C513 1.387 . S
C515 C517 1.390 . S
C515 H519 0.950 . S
H516 C512 0.950 . S
C517 C515 1.390 . S
C517 C518 1.387 . S
C517 H520 0.950 . S
C518 C517 1.387 . S
C518 C521 1.387 . S
H519 C515 0.950 . S
H520 C517 0.950 . S
C521 C512 1.390 . S
C521 H514 0.950 . S
C521 C518 1.387 . S
C522 C523 1.387 . S
C522 H526 0.950 . S
C522 C531 1.390 . S
C523 C522 1.387 . S
C523 C525 1.387 . S
H524 C531 0.950 . S
C525 C523 1.387 . S
C525 C527 1.390 . S
C525 H529 0.950 . S
H526 C522 0.950 . S
C527 C525 1.390 . S
C527 C528 1.387 . S
C527 H530 0.950 . S
C528 C527 1.387 . S
C528 C531 1.387 . S
H529 C525 0.950 . S
H530 C527 0.950 . S
C531 C522 1.390 . S
C531 H524 0.950 . S
C531 C528 1.387 . S
C532 C533 1.387 . S
C532 H536 0.950 . S
C532 C541 1.390 . S
C533 C532 1.387 . S
C533 C535 1.387 . S
H534 C541 0.950 . S
C535 C533 1.387 . S
C535 C537 1.390 . S
C535 H539 0.950 . S
H536 C532 0.950 . S
C537 C535 1.390 . S
C537 C538 1.387 . S
C537 H540 0.950 . S
C538 C537 1.387 . S
C538 C541 1.387 . S
H539 C535 0.950 . S
H540 C537 0.950 . S
C541 C532 1.390 . S
C541 H534 0.950 . S
C541 C538 1.387 . S
C542 C543 1.387 . S
C542 H546 0.950 . S
C542 C551 1.390 . S
C543 C542 1.387 . S
C543 C545 1.387 . S
H544 C551 0.950 . S
C545 C543 1.387 . S
C545 C547 1.390 . S
C545 H549 0.950 . S
H546 C542 0.950 . S
C547 C545 1.390 . S
C547 C548 1.387 . S
C547 H550 0.950 . S
C548 C547 1.387 . S
C548 C551 1.387 . S
H549 C545 0.950 . S
H550 C547 0.950 . S
C551 C542 1.390 . S
C551 H544 0.950 . S
C551 C548 1.387 . S
C552 C553 1.387 . S
C552 H556 0.950 . S
C552 C561 1.390 . S
C553 C552 1.387 . S
C553 C555 1.387 . S
H554 C561 0.950 . S
C555 C553 1.387 . S
C555 C557 1.390 . S
C555 H559 0.950 . S
H556 C552 0.950 . S
C557 C555 1.390 . S
C557 C558 1.387 . S
C557 H560 0.950 . S
C558 C557 1.387 . S
C558 C561 1.387 . S
H559 C555 0.950 . S
H560 C557 0.950 . S
C561 C552 1.390 . S
C561 H554 0.950 . S
C561 C558 1.387 . S
C562 C563 1.387 . S
C562 H566 0.950 . S
C562 C571 1.390 . S
C563 C562 1.387 . S
C563 C565 1.387 . S
H564 C571 0.950 . S
C565 C563 1.387 . S
C565 C567 1.390 . S
C565 H569 0.950 . S
H566 C562 0.950 . S
C567 C565 1.390 . S
C567 C568 1.387 . S
C567 H570 0.950 . S
C568 C567 1.387 . S
C568 C571 1.387 . S
H569 C565 0.950 . S
H570 C567 0.950 . S
C571 C562 1.390 . S
C571 H564 0.950 . S
C571 C568 1.387 . S
C572 C573 1.387 . S
C572 H576 0.950 . S
C572 C581 1.390 . S
C573 C572 1.387 . S
C573 C575 1.387 . S
H574 C581 0.950 . S
C575 C573 1.387 . S
C575 C577 1.390 . S
C575 H579 0.950 . S
H576 C572 0.950 . S
C577 C575 1.390 . S
C577 C578 1.387 . S
C577 H580 0.950 . S
C578 C577 1.387 . S
C578 C581 1.387 . S
H579 C575 0.950 . S
H580 C577 0.950 . S
C581 C572 1.390 . S
C581 H574 0.950 . S
C581 C578 1.387 . S
C582 C583 1.387 . S
C582 H586 0.950 . S
C582 C591 1.390 . S
C583 C582 1.387 . S
C583 C585 1.387 . S
H584 C591 0.950 . S
C585 C583 1.387 . S
C585 C587 1.390 . S
C585 H589 0.950 . S
H586 C582 0.950 . S
C587 C585 1.390 . S
C587 C588 1.387 . S
C587 H590 0.950 . S
C588 C587 1.387 . S
C588 C591 1.387 . S
H589 C585 0.950 . S
H590 C587 0.950 . S
C591 C582 1.390 . S
C591 H584 0.950 . S
C591 C588 1.387 . S
C592 C593 1.387 . S
C592 H596 0.950 . S
C592 C601 1.390 1_565 S
C593 C592 1.387 . S
C593 C595 1.387 . S
H594 C601 0.950 . S
C595 C593 1.387 . S
C595 C597 1.390 1_565 S
C595 H599 0.950 . S
H596 C592 0.950 . S
C597 C595 1.390 1_545 S
C597 C598 1.387 . S
C597 H600 0.950 . S
C598 C597 1.387 . S
C598 C601 1.387 . S
H599 C595 0.950 . S
H600 C597 0.950 . S
C601 C592 1.390 1_545 S
C601 H594 0.950 . S
C601 C598 1.387 . S
C602 C603 1.387 . S
C602 H606 0.950 . S
C602 C611 1.390 1_545 S
C603 C602 1.387 . S
C603 C605 1.387 . S
H604 C611 0.950 . S
C605 C603 1.387 . S
C605 C607 1.390 1_545 S
C605 H609 0.950 . S
H606 C602 0.950 . S
C607 C605 1.390 1_565 S
C607 C608 1.387 . S
C607 H610 0.950 . S
C608 C607 1.387 . S
C608 C611 1.387 . S
H609 C605 0.950 . S
H610 C607 0.950 . S
C611 C602 1.390 1_565 S
C611 H604 0.950 . S
C611 C608 1.387 . S
C612 C613 1.387 . S
C612 H616 0.950 . S
C612 C621 1.390 1_545 S
C613 C612 1.387 . S
C613 C615 1.387 . S
H614 C621 0.950 . S
C615 C613 1.387 . S
C615 C617 1.390 1_545 S
C615 H619 0.950 . S
H616 C612 0.950 . S
C617 C615 1.390 1_565 S
C617 C618 1.387 . S
C617 H620 0.950 . S
C618 C617 1.387 . S
C618 C621 1.387 . S
H619 C615 0.950 . S
H620 C617 0.950 . S
C621 C612 1.390 1_565 S
C621 H614 0.950 . S
C621 C618 1.387 . S
C622 C623 1.387 . S
C622 H626 0.950 . S
C622 C631 1.390 1_545 S
C623 C622 1.387 . S
C623 C625 1.387 . S
H624 C631 0.950 . S
C625 C623 1.387 . S
C625 C627 1.390 1_545 S
C625 H629 0.950 . S
H626 C622 0.950 . S
C627 C625 1.390 1_565 S
C627 C628 1.387 . S
C627 H630 0.950 . S
C628 C627 1.387 . S
C628 C631 1.387 . S
H629 C625 0.950 . S
H630 C627 0.950 . S
C631 C622 1.390 1_565 S
C631 H624 0.950 . S
C631 C628 1.387 . S
C632 C633 1.387 . S
C632 H636 0.950 . S
C632 C641 1.390 . S
C633 C632 1.387 . S
C633 C635 1.387 . S
H634 C641 0.950 . S
C635 C633 1.387 . S
C635 C637 1.390 . S
C635 H639 0.950 . S
H636 C632 0.950 . S
C637 C635 1.390 . S
C637 C638 1.387 . S
C637 H640 0.950 . S
C638 C637 1.387 . S
C638 C641 1.387 . S
H639 C635 0.950 . S
H640 C637 0.950 . S
C641 C632 1.390 . S
C641 H634 0.950 . S
C641 C638 1.387 . S
C642 C643 1.387 . S
C642 H646 0.950 . S
C642 C651 1.390 . S
C643 C642 1.387 . S
C643 C645 1.387 . S
H644 C651 0.950 . S
C645 C643 1.387 . S
C645 C647 1.390 . S
C645 H649 0.950 . S
H646 C642 0.950 . S
C647 C645 1.390 . S
C647 C648 1.387 . S
C647 H650 0.950 . S
C648 C647 1.387 . S
C648 C651 1.387 . S
H649 C645 0.950 . S
H650 C647 0.950 . S
C651 C642 1.390 . S
C651 H644 0.950 . S
C651 C648 1.387 . S
C652 C653 1.387 . S
C652 H656 0.950 . S
C652 C661 1.390 . S
C653 C652 1.387 . S
C653 C655 1.387 . S
H654 C661 0.950 . S
C655 C653 1.387 . S
C655 C657 1.390 . S
C655 H659 0.950 . S
H656 C652 0.950 . S
C657 C655 1.390 . S
C657 C658 1.387 . S
C657 H660 0.950 . S
C658 C657 1.387 . S
C658 C661 1.387 . S
H659 C655 0.950 . S
H660 C657 0.950 . S
C661 C652 1.390 . S
C661 H654 0.950 . S
C661 C658 1.387 . S
C662 C663 1.387 . S
C662 H666 0.950 . S
C662 C671 1.390 . S
C663 C662 1.387 . S
C663 C665 1.387 . S
H664 C671 0.950 . S
C665 C663 1.387 . S
C665 C667 1.390 . S
C665 H669 0.950 . S
H666 C662 0.950 . S
C667 C665 1.390 . S
C667 C668 1.387 . S
C667 H670 0.950 . S
C668 C667 1.387 . S
C668 C671 1.387 . S
H669 C665 0.950 . S
H670 C667 0.950 . S
C671 C662 1.390 . S
C671 H664 0.950 . S
C671 C668 1.387 . S
C672 C673 1.387 . S
C672 H676 0.950 . S
C672 C681 1.390 1_556 S
C673 C672 1.387 . S
C673 C675 1.387 . S
H674 C681 0.950 . S
C675 C673 1.387 . S
C675 C677 1.390 1_556 S
C675 H679 0.950 1_545 S
H676 C672 0.950 . S
C677 C675 1.390 1_554 S
C677 C678 1.387 . S
C677 H680 0.950 1_545 S
C678 C677 1.387 . S
C678 C681 1.387 . S
H679 C675 0.950 1_565 S
H680 C677 0.950 1_565 S
C681 C672 1.390 1_554 S
C681 H674 0.950 . S
C681 C678 1.387 . S
C682 C683 1.387 . S
C682 H686 0.950 . S
C682 C691 1.390 1_556 S
C683 C682 1.387 . S
C683 C685 1.387 . S
H684 C691 0.950 . S
C685 C683 1.387 . S
C685 C687 1.390 1_556 S
C685 H689 0.950 1_565 S
H686 C682 0.950 . S
C687 C685 1.390 1_554 S
C687 C688 1.387 . S
C687 H690 0.950 1_565 S
C688 C687 1.387 . S
C688 C691 1.387 . S
H689 C685 0.950 1_545 S
H690 C687 0.950 1_545 S
C691 C682 1.390 1_554 S
C691 H684 0.950 . S
C691 C688 1.387 . S
C692 C693 1.387 . S
C692 H696 0.950 1_565 S
C692 C701 1.390 . S
C693 C692 1.387 . S
C693 C695 1.387 . S
H694 C701 0.950 1_545 S
C695 C693 1.387 . S
C695 C697 1.390 . S
C695 H699 0.950 . S
H696 C692 0.950 1_545 S
C697 C695 1.390 . S
C697 C698 1.387 . S
C697 H700 0.950 . S
C698 C697 1.387 . S
C698 C701 1.387 . S
H699 C695 0.950 . S
H700 C697 0.950 . S
C701 C692 1.390 . S
C701 H694 0.950 1_565 S
C701 C698 1.387 . S
C702 C703 1.387 . S
C702 H706 0.950 1_545 S
C702 C711 1.390 . S
C703 C702 1.387 . S
C703 C705 1.387 . S
H704 C711 0.950 1_565 S
C705 C703 1.387 . S
C705 C707 1.390 . S
C705 H709 0.950 . S
H706 C702 0.950 1_565 S
C707 C705 1.390 . S
C707 C708 1.387 . S
C707 H710 0.950 . S
C708 C707 1.387 . S
C708 C711 1.387 . S
H709 C705 0.950 . S
H710 C707 0.950 . S
C711 C702 1.390 . S
C711 H704 0.950 1_545 S
C711 C708 1.387 . S
C712 C713 1.387 . S
C712 H716 0.950 . S
C712 C721 1.390 1_554 S
C713 C712 1.387 . S
C713 C715 1.387 . S
H714 C721 0.950 . S
C715 C713 1.387 . S
C715 C717 1.390 1_554 S
C715 H719 0.950 . S
H716 C712 0.950 . S
C717 C715 1.390 1_556 S
C717 C718 1.387 . S
C717 H720 0.950 . S
C718 C717 1.387 . S
C718 C721 1.387 . S
H719 C715 0.950 . S
H720 C717 0.950 . S
C721 C712 1.390 1_556 S
C721 H714 0.950 . S
C721 C718 1.387 . S
C722 C723 1.387 . S
C722 H726 0.950 . S
C722 C731 1.390 1_556 S
C723 C722 1.387 . S
C723 C725 1.387 . S
H724 C731 0.950 . S
C725 C723 1.387 . S
C725 C727 1.390 1_556 S
C725 H729 0.950 . S
H726 C722 0.950 . S
C727 C725 1.390 1_554 S
C727 C728 1.387 . S
C727 H730 0.950 . S
C728 C727 1.387 . S
C728 C731 1.387 . S
H729 C725 0.950 . S
H730 C727 0.950 . S
C731 C722 1.390 1_554 S
C731 H724 0.950 . S
C731 C728 1.387 . S
C732 C733 1.387 . S
C732 H736 0.950 . S
C732 C741 1.390 . S
C733 C732 1.387 . S
C733 C735 1.387 . S
H734 C741 0.950 . S
C735 C733 1.387 . S
C735 C737 1.390 . S
C735 H739 0.950 . S
H736 C732 0.950 . S
C737 C735 1.390 . S
C737 C738 1.387 . S
C737 H740 0.950 . S
C738 C737 1.387 . S
C738 C741 1.387 . S
H739 C735 0.950 . S
H740 C737 0.950 . S
C741 C732 1.390 . S
C741 H734 0.950 . S
C741 C738 1.387 . S
C742 C743 1.387 . S
C742 H746 0.950 . S
C742 C751 1.390 . S
C743 C742 1.387 . S
C743 C745 1.387 . S
H744 C751 0.950 . S
C745 C743 1.387 . S
C745 C747 1.390 . S
C745 H749 0.950 . S
H746 C742 0.950 . S
C747 C745 1.390 . S
C747 C748 1.387 . S
C747 H750 0.950 . S
C748 C747 1.387 . S
C748 C751 1.387 . S
H749 C745 0.950 . S
H750 C747 0.950 . S
C751 C742 1.390 . S
C751 H744 0.950 . S
C751 C748 1.387 . S
C752 C753 1.387 . S
C752 H756 0.950 . S
C752 C761 1.390 1_665 S
C753 C752 1.387 . S
C753 C755 1.387 . S
H754 C761 0.950 . S
C755 C753 1.387 . S
C755 C757 1.390 1_665 S
C755 H759 0.950 . S
H756 C752 0.950 . S
C757 C755 1.390 1_445 S
C757 C758 1.387 . S
C757 H760 0.950 . S
C758 C757 1.387 . S
C758 C761 1.387 . S
H759 C755 0.950 . S
H760 C757 0.950 . S
C761 C752 1.390 1_445 S
C761 H754 0.950 . S
C761 C758 1.387 . S
C762 C763 1.387 . S
C762 H766 0.950 . S
C762 C771 1.390 1_645 S
C763 C762 1.387 . S
C763 C765 1.387 . S
H764 C771 0.950 . S
C765 C763 1.387 . S
C765 C767 1.390 1_645 S
C765 H769 0.950 . S
H766 C762 0.950 . S
C767 C765 1.390 1_465 S
C767 C768 1.387 . S
C767 H770 0.950 . S
C768 C767 1.387 . S
C768 C771 1.387 . S
H769 C765 0.950 . S
H770 C767 0.950 . S
C771 C762 1.390 1_465 S
C771 H764 0.950 . S
C771 C768 1.387 . S
C772 C773 1.387 . S
C772 H776 0.950 . S
C772 C781 1.390 1_445 S
C773 C772 1.387 . S
C773 C775 1.387 . S
H774 C781 0.950 . S
C775 C773 1.387 . S
C775 C777 1.390 1_445 S
C775 H779 0.950 . S
H776 C772 0.950 . S
C777 C775 1.390 1_665 S
C777 C778 1.387 . S
C777 H780 0.950 . S
C778 C777 1.387 . S
C778 C781 1.387 . S
H779 C775 0.950 . S
H780 C777 0.950 . S
C781 C772 1.390 1_665 S
C781 H774 0.950 . S
C781 C778 1.387 . S
C782 C783 1.387 . S
C782 H786 0.950 . S
C782 C791 1.390 1_645 S
C783 C782 1.387 . S
C783 C785 1.387 . S
H784 C791 0.950 . S
C785 C783 1.387 . S
C785 C787 1.390 1_645 S
C785 H789 0.950 . S
H786 C782 0.950 . S
C787 C785 1.390 1_465 S
C787 C788 1.387 . S
C787 H790 0.950 . S
C788 C787 1.387 . S
C788 C791 1.387 . S
H789 C785 0.950 . S
H790 C787 0.950 . S
C791 C782 1.390 1_465 S
C791 H784 0.950 . S
C791 C788 1.387 . S
C792 C793 1.387 . S
C792 H796 0.950 . S
C792 C801 1.390 . S
C793 C792 1.387 . S
C793 C795 1.387 . S
H794 C801 0.950 . S
C795 C793 1.387 . S
C795 C797 1.390 . S
C795 H799 0.950 . S
H796 C792 0.950 . S
C797 C795 1.390 . S
C797 C798 1.387 . S
C797 H800 0.950 . S
C798 C797 1.387 . S
C798 C801 1.387 . S
H799 C795 0.950 . S
H800 C797 0.950 . S
C801 C792 1.390 . S
C801 H794 0.950 . S
C801 C798 1.387 . S
C802 C803 1.387 . S
C802 H806 0.950 . S
C802 C811 1.390 . S
C803 C802 1.387 . S
C803 C805 1.387 . S
H804 C811 0.950 . S
C805 C803 1.387 . S
C805 C807 1.390 . S
C805 H809 0.950 . S
H806 C802 0.950 . S
C807 C805 1.390 . S
C807 C808 1.387 . S
C807 H810 0.950 . S
C808 C807 1.387 . S
C808 C811 1.387 . S
H809 C805 0.950 . S
H810 C807 0.950 . S
C811 C802 1.390 . S
C811 H804 0.950 . S
C811 C808 1.387 . S
C812 C813 1.387 . S
C812 H816 0.950 . S
C812 C821 1.390 . S
C813 C812 1.387 . S
C813 C815 1.387 . S
H814 C821 0.950 . S
C815 C813 1.387 . S
C815 C817 1.390 . S
C815 H819 0.950 . S
H816 C812 0.950 . S
C817 C815 1.390 . S
C817 C818 1.387 . S
C817 H820 0.950 . S
C818 C817 1.387 . S
C818 C821 1.387 . S
H819 C815 0.950 . S
H820 C817 0.950 . S
C821 C812 1.390 . S
C821 H814 0.950 . S
C821 C818 1.387 . S
C822 C823 1.387 . S
C822 H826 0.950 . S
C822 C831 1.390 . S
C823 C822 1.387 . S
C823 C825 1.387 . S
H824 C831 0.950 . S
C825 C823 1.387 . S
C825 C827 1.390 . S
C825 H829 0.950 . S
H826 C822 0.950 . S
C827 C825 1.390 . S
C827 C828 1.387 . S
C827 H830 0.950 . S
C828 C827 1.387 . S
C828 C831 1.387 . S
H829 C825 0.950 . S
H830 C827 0.950 . S
C831 C822 1.390 . S
C831 H824 0.950 . S
C831 C828 1.387 . S
C832 C833 1.387 . S
C832 H836 0.950 . S
C832 C841 1.390 . S
C833 C832 1.387 . S
C833 C835 1.387 . S
H834 C841 0.950 . S
C835 C833 1.387 . S
C835 C837 1.390 . S
C835 H839 0.950 . S
H836 C832 0.950 . S
C837 C835 1.390 . S
C837 C838 1.387 . S
C837 H840 0.950 . S
C838 C837 1.387 . S
C838 C841 1.387 . S
H839 C835 0.950 . S
H840 C837 0.950 . S
C841 C832 1.390 . S
C841 H834 0.950 . S
C841 C838 1.387 . S
C842 C843 1.387 . S
C842 H846 0.950 . S
C842 C851 1.390 . S
C843 C842 1.387 . S
C843 C845 1.387 . S
H844 C851 0.950 . S
C845 C843 1.387 . S
C845 C847 1.390 . S
C845 H849 0.950 . S
H846 C842 0.950 . S
C847 C845 1.390 . S
C847 C848 1.387 . S
C847 H850 0.950 . S
C848 C847 1.387 . S
C848 C851 1.387 . S
H849 C845 0.950 . S
H850 C847 0.950 . S
C851 C842 1.390 . S
C851 H844 0.950 . S
C851 C848 1.387 . S
C852 C853 1.387 . S
C852 H856 0.950 . S
C852 C861 1.390 . S
C853 C852 1.387 . S
C853 C855 1.387 . S
H854 C861 0.950 . S
C855 C853 1.387 . S
C855 C857 1.390 . S
C855 H859 0.950 . S
H856 C852 0.950 . S
C857 C855 1.390 . S
C857 C858 1.387 . S
C857 H860 0.950 . S
C858 C857 1.387 . S
C858 C861 1.387 . S
H859 C855 0.950 . S
H860 C857 0.950 . S
C861 C852 1.390 . S
C861 H854 0.950 . S
C861 C858 1.387 . S
C862 C863 1.387 . S
C862 H866 0.950 . S
C862 C871 1.390 . S
C863 C862 1.387 . S
C863 C865 1.387 . S
H864 C871 0.950 . S
C865 C863 1.387 . S
C865 C867 1.390 . S
C865 H869 0.950 . S
H866 C862 0.950 . S
C867 C865 1.390 . S
C867 C868 1.387 . S
C867 H870 0.950 . S
C868 C867 1.387 . S
C868 C871 1.387 . S
H869 C865 0.950 . S
H870 C867 0.950 . S
C871 C862 1.390 . S
C871 H864 0.950 . S
C871 C868 1.387 . S
C872 C873 1.387 . S
C872 H876 0.950 . S
C872 C881 1.390 . S
C873 C872 1.387 . S
C873 C875 1.387 . S
H874 C881 0.950 . S
C875 C873 1.387 . S
C875 C877 1.390 . S
C875 H879 0.950 . S
H876 C872 0.950 . S
C877 C875 1.390 . S
C877 C878 1.387 . S
C877 H880 0.950 . S
C878 C877 1.387 . S
C878 C881 1.387 . S
H879 C875 0.950 . S
H880 C877 0.950 . S
C881 C872 1.390 . S
C881 H874 0.950 . S
C881 C878 1.387 . S
C882 C883 1.387 . S
C882 H886 0.950 . S
C882 C891 1.390 . S
C883 C882 1.387 . S
C883 C885 1.387 . S
H884 C891 0.950 . S
C885 C883 1.387 . S
C885 C887 1.390 . S
C885 H889 0.950 . S
H886 C882 0.950 . S
C887 C885 1.390 . S
C887 C888 1.387 . S
C887 H890 0.950 . S
C888 C887 1.387 . S
C888 C891 1.387 . S
H889 C885 0.950 . S
H890 C887 0.950 . S
C891 C882 1.390 . S
C891 H884 0.950 . S
C891 C888 1.387 . S
C892 C893 1.387 . S
C892 H896 0.950 . S
C892 C901 1.390 . S
C893 C892 1.387 . S
C893 C895 1.387 . S
H894 C901 0.950 . S
C895 C893 1.387 . S
C895 C897 1.390 . S
C895 H899 0.950 . S
H896 C892 0.950 . S
C897 C895 1.390 . S
C897 C898 1.387 . S
C897 H900 0.950 . S
C898 C897 1.387 . S
C898 C901 1.387 . S
H899 C895 0.950 . S
H900 C897 0.950 . S
C901 C892 1.390 . S
C901 H894 0.950 . S
C901 C898 1.387 . S
C902 C903 1.387 . S
C902 H906 0.950 . S
C902 C911 1.390 . S
C903 C902 1.387 . S
C903 C905 1.387 . S
H904 C911 0.950 . S
C905 C903 1.387 . S
C905 C907 1.390 . S
C905 H909 0.950 . S
H906 C902 0.950 . S
C907 C905 1.390 . S
C907 C908 1.387 . S
C907 H910 0.950 . S
C908 C907 1.387 . S
C908 C911 1.387 . S
H909 C905 0.950 . S
H910 C907 0.950 . S
C911 C902 1.390 . S
C911 H904 0.950 . S
C911 C908 1.387 . S
C912 C913 1.387 . S
C912 H916 0.950 . S
C912 C921 1.390 . S
C913 C912 1.387 . S
C913 C915 1.387 . S
H914 C921 0.950 . S
C915 C913 1.387 . S
C915 C917 1.390 . S
C915 H919 0.950 . S
H916 C912 0.950 . S
C917 C915 1.390 . S
C917 C918 1.387 . S
C917 H920 0.950 . S
C918 C917 1.387 . S
C918 C921 1.387 . S
H919 C915 0.950 . S
H920 C917 0.950 . S
C921 C912 1.390 . S
C921 H914 0.950 . S
C921 C918 1.387 . S
C922 C923 1.387 . S
C922 H926 0.950 . S
C922 C931 1.390 . S
C923 C922 1.387 . S
C923 C925 1.387 . S
H924 C931 0.950 . S
C925 C923 1.387 . S
C925 C927 1.390 . S
C925 H929 0.950 . S
H926 C922 0.950 . S
C927 C925 1.390 . S
C927 C928 1.387 . S
C927 H930 0.950 . S
C928 C927 1.387 . S
C928 C931 1.387 . S
H929 C925 0.950 . S
H930 C927 0.950 . S
C931 C922 1.390 . S
C931 H924 0.950 . S
C931 C928 1.387 . S
C932 C933 1.387 . S
C932 H936 0.950 . S
C932 C941 1.390 . S
C933 C932 1.387 . S
C933 C935 1.387 . S
H934 C941 0.950 . S
C935 C933 1.387 . S
C935 C937 1.390 . S
C935 H939 0.950 . S
H936 C932 0.950 . S
C937 C935 1.390 . S
C937 C938 1.387 . S
C937 H940 0.950 . S
C938 C937 1.387 . S
C938 C941 1.387 . S
H939 C935 0.950 . S
H940 C937 0.950 . S
C941 C932 1.390 . S
C941 H934 0.950 . S
C941 C938 1.387 . S
C942 C943 1.387 . S
C942 H946 0.950 . S
C942 C951 1.390 . S
C943 C942 1.387 . S
C943 C945 1.387 . S
H944 C951 0.950 . S
C945 C943 1.387 . S
C945 C947 1.390 . S
C945 H949 0.950 . S
H946 C942 0.950 . S
C947 C945 1.390 . S
C947 C948 1.387 . S
C947 H950 0.950 . S
C948 C947 1.387 . S
C948 C951 1.387 . S
H949 C945 0.950 . S
H950 C947 0.950 . S
C951 C942 1.390 . S
C951 H944 0.950 . S
C951 C948 1.387 . S
C952 C953 1.387 . S
C952 H956 0.950 . S
C952 C961 1.390 . S
C953 C952 1.387 . S
C953 C955 1.387 . S
H954 C961 0.950 . S
C955 C953 1.387 . S
C955 C957 1.390 . S
C955 H959 0.950 . S
H956 C952 0.950 . S
C957 C955 1.390 . S
C957 C958 1.387 . S
C957 H960 0.950 . S
C958 C957 1.387 . S
C958 C961 1.387 . S
H959 C955 0.950 . S
H960 C957 0.950 . S
C961 C952 1.390 . S
C961 H954 0.950 . S
C961 C958 1.387 . S
C962 C963 1.387 . S
C962 H966 0.950 . S
C962 C971 1.390 . S
C963 C962 1.387 . S
C963 C965 1.387 . S
H964 C971 0.950 . S
C965 C963 1.387 . S
C965 C967 1.390 . S
C965 H969 0.950 . S
H966 C962 0.950 . S
C967 C965 1.390 . S
C967 C968 1.387 . S
C967 H970 0.950 . S
C968 C967 1.387 . S
C968 C971 1.387 . S
H969 C965 0.950 . S
H970 C967 0.950 . S
C971 C962 1.390 . S
C971 H964 0.950 . S
C971 C968 1.387 . S
C972 C973 1.387 . S
C972 H976 0.950 . S
C972 C981 1.390 . S
C973 C972 1.387 . S
C973 C975 1.387 . S
H974 C981 0.950 . S
C975 C973 1.387 . S
C975 C977 1.390 . S
C975 H979 0.950 . S
H976 C972 0.950 . S
C977 C975 1.390 . S
C977 C978 1.387 . S
C977 H980 0.950 . S
C978 C977 1.387 . S
C978 C981 1.387 . S
H979 C975 0.950 . S
H980 C977 0.950 . S
C981 C972 1.390 . S
C981 H974 0.950 . S
C981 C978 1.387 . S
C982 C983 1.387 . S
C982 H986 0.950 . S
C982 C991 1.390 . S
C983 C982 1.387 . S
C983 C985 1.387 . S
H984 C991 0.950 . S
C985 C983 1.387 . S
C985 C987 1.390 . S
C985 H989 0.950 . S
H986 C982 0.950 . S
C987 C985 1.390 . S
C987 C988 1.387 . S
C987 H990 0.950 . S
C988 C987 1.387 . S
C988 C991 1.387 . S
H989 C985 0.950 . S
H990 C987 0.950 . S
C991 C982 1.390 . S
C991 H984 0.950 . S
C991 C988 1.387 . S
C513 C6 1.511 . S
C518 C290 1.511 . S
C523 C38 1.511 . S
C528 C262 1.511 . S
C533 C354 1.511 . S
C538 C66 1.511 . S
C543 C102 1.511 . S
C548 C322 1.511 . S
C553 C418 1.511 . S
C558 C130 1.511 . S
C563 C390 1.511 . S
C568 C166 1.511 . S
C573 C482 1.511 . S
C578 C198 1.511 . S
C583 C230 1.511 . S
C588 C454 1.511 . S
C593 N77 1.467 . S
C598 N18 1.467 . S
C603 N114 1.469 . S
C608 N50 1.469 . S
C613 N210 1.467 . S
C618 N141 1.467 . S
C623 N178 1.469 . S
C628 N242 1.469 . S
C633 N333 1.469 . S
C638 N274 1.469 . S
C643 N365 1.469 . S
C648 N301 1.469 . S
C653 N402 1.467 . S
C658 N466 1.467 . S
C663 N429 1.467 . S
C668 N493 1.467 . S
C673 N173 1.490 . S
C678 N13 1.488 . S
C683 N146 1.490 . S
C688 N45 1.488 . S
C693 N82 1.490 . S
C698 N237 1.488 . S
C703 N205 1.488 . S
C708 N109 1.490 . S
C713 N269 1.490 . S
C718 N434 1.488 . S
C723 N397 1.488 . S
C728 N306 1.491 . S
C733 N338 1.488 . S
C738 N498 1.490 . S
C743 N461 1.488 . S
C748 N370 1.490 . S
C753 C36 1.512 . S
C758 C4 1.512 . S
C763 C100 1.512 . S
C768 C93 1.512 . S
C773 C164 1.512 . S
C778 C157 1.512 . S
C783 C196 1.512 . S
C788 C228 1.512 . S
C793 C317 1.512 . S
C798 C260 1.512 . S
C803 C381 1.512 . S
C808 C349 1.512 . S
C813 C388 1.512 . S
C818 C445 1.512 . S
C823 C452 1.512 . S
C828 C509 1.512 . S
C833 C2 1.452 . S
C838 C29 1.452 . S
C843 C34 1.452 . S
C848 C61 1.452 . S
C853 C70 1.452 . S
C858 C68 1.452 . S
C863 C125 1.452 . S
C868 C98 1.452 . S
C873 C134 1.452 . S
C878 C132 1.452 . S
C883 C189 1.452 . S
C888 C162 1.452 . S
C893 C194 1.452 . S
C898 C221 1.452 . S
C903 C226 1.452 . S
C908 C253 1.452 . S
C913 C285 1.452 1_545 S
C918 C258 1.452 . S
C923 C294 1.452 . S
C928 C292 1.452 1_565 S
C933 C324 1.452 1_565 S
C938 C326 1.452 . S
C943 C356 1.452 1_545 S
C948 C358 1.452 . S
C953 C386 1.452 . S
C958 C413 1.452 1_565 S
C963 C422 1.452 . S
C968 C420 1.452 1_545 S
C973 C477 1.452 1_545 S
C978 C450 1.452 . S
C983 C486 1.452 . S
C988 C484 1.452 1_565 S
