# Generated by pormake.
# Topology uow, (4)-cn, num edge types: 1
# Building blocks:
#     Node 0, Type 0, BuildingBlock: ESEHIV_clean_sbu_0, # of connection points: 4
#     Node 1, Type 0, BuildingBlock: ESEHIV_clean_sbu_0, # of connection points: 4
#     Node 2, Type 0, BuildingBlock: ESEHIV_clean_sbu_0, # of connection points: 4
#     Node 3, Type 0, BuildingBlock: ESEHIV_clean_sbu_0, # of connection points: 4
#     Node 4, Type 0, BuildingBlock: ESEHIV_clean_sbu_0, # of connection points: 4
#     Node 5, Type 0, BuildingBlock: ESEHIV_clean_sbu_0, # of connection points: 4
#     Node 6, Type 0, BuildingBlock: ESEHIV_clean_sbu_0, # of connection points: 4
#     Node 7, Type 0, BuildingBlock: ESEHIV_clean_sbu_0, # of connection points: 4
#     Node 8, Type 0, BuildingBlock: ESEHIV_clean_sbu_0, # of connection points: 4
#     Node 9, Type 0, BuildingBlock: ESEHIV_clean_sbu_0, # of connection points: 4
#     Node 10, Type 0, BuildingBlock: ESEHIV_clean_sbu_0, # of connection points: 4
#     Node 11, Type 0, BuildingBlock: ESEHIV_clean_sbu_0, # of connection points: 4
#     Node 12, Type 0, BuildingBlock: ESEHIV_clean_sbu_0, # of connection points: 4
#     Node 13, Type 0, BuildingBlock: ESEHIV_clean_sbu_0, # of connection points: 4
#     Node 14, Type 0, BuildingBlock: ESEHIV_clean_sbu_0, # of connection points: 4
#     Node 15, Type 0, BuildingBlock: ESEHIV_clean_sbu_0, # of connection points: 4
#     Node 16, Type 0, BuildingBlock: ESEHIV_clean_sbu_0, # of connection points: 4
#     Node 17, Type 0, BuildingBlock: ESEHIV_clean_sbu_0, # of connection points: 4
#     Node 18, Type 0, BuildingBlock: ESEHIV_clean_sbu_0, # of connection points: 4
#     Node 19, Type 0, BuildingBlock: ESEHIV_clean_sbu_0, # of connection points: 4
#     Node 20, Type 0, BuildingBlock: ESEHIV_clean_sbu_0, # of connection points: 4
#     Node 21, Type 0, BuildingBlock: ESEHIV_clean_sbu_0, # of connection points: 4
#     Node 22, Type 0, BuildingBlock: ESEHIV_clean_sbu_0, # of connection points: 4
#     Node 23, Type 0, BuildingBlock: ESEHIV_clean_sbu_0, # of connection points: 4
#     Node 24, Type 0, BuildingBlock: ESEHIV_clean_sbu_0, # of connection points: 4
#     Node 25, Type 0, BuildingBlock: ESEHIV_clean_sbu_0, # of connection points: 4
#     Node 26, Type 0, BuildingBlock: ESEHIV_clean_sbu_0, # of connection points: 4
#     Node 27, Type 0, BuildingBlock: ESEHIV_clean_sbu_0, # of connection points: 4
#     Node 28, Type 0, BuildingBlock: ESEHIV_clean_sbu_0, # of connection points: 4
#     Node 29, Type 0, BuildingBlock: ESEHIV_clean_sbu_0, # of connection points: 4
#     Node 30, Type 0, BuildingBlock: ESEHIV_clean_sbu_0, # of connection points: 4
#     Node 31, Type 0, BuildingBlock: ESEHIV_clean_sbu_0, # of connection points: 4
#     Edge 32, Type (0, 0), BuildingBlock: CIFDUS_clean_linker_0, # of connection points: 2
#     Edge 33, Type (0, 0), BuildingBlock: CIFDUS_clean_linker_0, # of connection points: 2
#     Edge 34, Type (0, 0), BuildingBlock: CIFDUS_clean_linker_0, # of connection points: 2
#     Edge 35, Type (0, 0), BuildingBlock: CIFDUS_clean_linker_0, # of connection points: 2
#     Edge 36, Type (0, 0), BuildingBlock: CIFDUS_clean_linker_0, # of connection points: 2
#     Edge 37, Type (0, 0), BuildingBlock: CIFDUS_clean_linker_0, # of connection points: 2
#     Edge 38, Type (0, 0), BuildingBlock: CIFDUS_clean_linker_0, # of connection points: 2
#     Edge 39, Type (0, 0), BuildingBlock: CIFDUS_clean_linker_0, # of connection points: 2
#     Edge 40, Type (0, 0), BuildingBlock: CIFDUS_clean_linker_0, # of connection points: 2
#     Edge 41, Type (0, 0), BuildingBlock: CIFDUS_clean_linker_0, # of connection points: 2
#     Edge 42, Type (0, 0), BuildingBlock: CIFDUS_clean_linker_0, # of connection points: 2
#     Edge 43, Type (0, 0), BuildingBlock: CIFDUS_clean_linker_0, # of connection points: 2
#     Edge 44, Type (0, 0), BuildingBlock: CIFDUS_clean_linker_0, # of connection points: 2
#     Edge 45, Type (0, 0), BuildingBlock: CIFDUS_clean_linker_0, # of connection points: 2
#     Edge 46, Type (0, 0), BuildingBlock: CIFDUS_clean_linker_0, # of connection points: 2
#     Edge 47, Type (0, 0), BuildingBlock: CIFDUS_clean_linker_0, # of connection points: 2
#     Edge 48, Type (0, 0), BuildingBlock: CIFDUS_clean_linker_0, # of connection points: 2
#     Edge 49, Type (0, 0), BuildingBlock: CIFDUS_clean_linker_0, # of connection points: 2
#     Edge 50, Type (0, 0), BuildingBlock: CIFDUS_clean_linker_0, # of connection points: 2
#     Edge 51, Type (0, 0), BuildingBlock: CIFDUS_clean_linker_0, # of connection points: 2
#     Edge 52, Type (0, 0), BuildingBlock: CIFDUS_clean_linker_0, # of connection points: 2
#     Edge 53, Type (0, 0), BuildingBlock: CIFDUS_clean_linker_0, # of connection points: 2
#     Edge 54, Type (0, 0), BuildingBlock: CIFDUS_clean_linker_0, # of connection points: 2
#     Edge 55, Type (0, 0), BuildingBlock: CIFDUS_clean_linker_0, # of connection points: 2
#     Edge 56, Type (0, 0), BuildingBlock: CIFDUS_clean_linker_0, # of connection points: 2
#     Edge 57, Type (0, 0), BuildingBlock: CIFDUS_clean_linker_0, # of connection points: 2
#     Edge 58, Type (0, 0), BuildingBlock: CIFDUS_clean_linker_0, # of connection points: 2
#     Edge 59, Type (0, 0), BuildingBlock: CIFDUS_clean_linker_0, # of connection points: 2
#     Edge 60, Type (0, 0), BuildingBlock: CIFDUS_clean_linker_0, # of connection points: 2
#     Edge 61, Type (0, 0), BuildingBlock: CIFDUS_clean_linker_0, # of connection points: 2
#     Edge 62, Type (0, 0), BuildingBlock: CIFDUS_clean_linker_0, # of connection points: 2
#     Edge 63, Type (0, 0), BuildingBlock: CIFDUS_clean_linker_0, # of connection points: 2
#     Edge 64, Type (0, 0), BuildingBlock: CIFDUS_clean_linker_0, # of connection points: 2
#     Edge 65, Type (0, 0), BuildingBlock: CIFDUS_clean_linker_0, # of connection points: 2
#     Edge 66, Type (0, 0), BuildingBlock: CIFDUS_clean_linker_0, # of connection points: 2
#     Edge 67, Type (0, 0), BuildingBlock: CIFDUS_clean_linker_0, # of connection points: 2
#     Edge 68, Type (0, 0), BuildingBlock: CIFDUS_clean_linker_0, # of connection points: 2
#     Edge 69, Type (0, 0), BuildingBlock: CIFDUS_clean_linker_0, # of connection points: 2
#     Edge 70, Type (0, 0), BuildingBlock: CIFDUS_clean_linker_0, # of connection points: 2
#     Edge 71, Type (0, 0), BuildingBlock: CIFDUS_clean_linker_0, # of connection points: 2
#     Edge 72, Type (0, 0), BuildingBlock: CIFDUS_clean_linker_0, # of connection points: 2
#     Edge 73, Type (0, 0), BuildingBlock: CIFDUS_clean_linker_0, # of connection points: 2
#     Edge 74, Type (0, 0), BuildingBlock: CIFDUS_clean_linker_0, # of connection points: 2
#     Edge 75, Type (0, 0), BuildingBlock: CIFDUS_clean_linker_0, # of connection points: 2
#     Edge 76, Type (0, 0), BuildingBlock: CIFDUS_clean_linker_0, # of connection points: 2
#     Edge 77, Type (0, 0), BuildingBlock: CIFDUS_clean_linker_0, # of connection points: 2
#     Edge 78, Type (0, 0), BuildingBlock: CIFDUS_clean_linker_0, # of connection points: 2
#     Edge 79, Type (0, 0), BuildingBlock: CIFDUS_clean_linker_0, # of connection points: 2
#     Edge 80, Type (0, 0), BuildingBlock: CIFDUS_clean_linker_0, # of connection points: 2
#     Edge 81, Type (0, 0), BuildingBlock: CIFDUS_clean_linker_0, # of connection points: 2
#     Edge 82, Type (0, 0), BuildingBlock: CIFDUS_clean_linker_0, # of connection points: 2
#     Edge 83, Type (0, 0), BuildingBlock: CIFDUS_clean_linker_0, # of connection points: 2
#     Edge 84, Type (0, 0), BuildingBlock: CIFDUS_clean_linker_0, # of connection points: 2
#     Edge 85, Type (0, 0), BuildingBlock: CIFDUS_clean_linker_0, # of connection points: 2
#     Edge 86, Type (0, 0), BuildingBlock: CIFDUS_clean_linker_0, # of connection points: 2
#     Edge 87, Type (0, 0), BuildingBlock: CIFDUS_clean_linker_0, # of connection points: 2
#     Edge 88, Type (0, 0), BuildingBlock: CIFDUS_clean_linker_0, # of connection points: 2
#     Edge 89, Type (0, 0), BuildingBlock: CIFDUS_clean_linker_0, # of connection points: 2
#     Edge 90, Type (0, 0), BuildingBlock: CIFDUS_clean_linker_0, # of connection points: 2
#     Edge 91, Type (0, 0), BuildingBlock: CIFDUS_clean_linker_0, # of connection points: 2
#     Edge 92, Type (0, 0), BuildingBlock: CIFDUS_clean_linker_0, # of connection points: 2
#     Edge 93, Type (0, 0), BuildingBlock: CIFDUS_clean_linker_0, # of connection points: 2
#     Edge 94, Type (0, 0), BuildingBlock: CIFDUS_clean_linker_0, # of connection points: 2
#     Edge 95, Type (0, 0), BuildingBlock: CIFDUS_clean_linker_0, # of connection points: 2
# Relax obj value: 0.065
# Max RMSD: 0.247
# Mean RMSD: 0.223
data_MOF--net-uow--node1-ESEHIV_clean_sbu_0--edge1-CIFDUS_clean_linker_0
_symmetry_space_group_name_H-M    P1
_symmetry_Int_Tables_number       1
_symmetry_cell_setting            triclinic
loop_
_symmetry_equiv_pos_as_xyz
'x, y, z'
_cell_length_a     56.331642
_cell_length_b     61.434228
_cell_length_c     42.863397
_cell_angle_alpha  90.036986
_cell_angle_beta   89.841462
_cell_angle_gamma 90.080639
loop_
_atom_site_label
_atom_site_type_symbol
_atom_site_fract_x
_atom_site_fract_y
_atom_site_fract_z
_atom_type_partial_charge
Cu0 Cu 0.08078 0.39062 0.31989 0.0
N1 N 0.09868 0.37227 0.34558 0.0
N2 N 0.10609 0.34552 0.37984 0.0
C3 C 0.09014 0.36026 0.36944 0.0
C4 C 0.12562 0.34876 0.36201 0.0
C5 C 0.12097 0.36518 0.34092 0.0
O6 O 0.04888 0.3912 0.33675 0.0
C7 C 0.09721 0.38128 0.25892 0.0
O8 O 0.11534 0.39338 0.26732 0.0
H9 H 0.07222 0.36182 0.37818 0.0
H10 H 0.13254 0.37069 0.32235 0.0
N11 N 0.093 0.41899 0.31877 0.0
N12 N 0.09823 0.4538 0.30454 0.0
C13 C 0.08548 0.43533 0.30031 0.0
C14 C 0.11109 0.42732 0.33535 0.0
C15 C 0.11435 0.44876 0.32667 0.0
C16 C 0.0364 0.37393 0.33641 0.0
O17 O 0.04486 0.35652 0.32245 0.0
H18 H 0.07087 0.4336 0.28417 0.0
H19 H 0.12135 0.41834 0.35231 0.0
O20 O 0.08023 0.3783 0.27811 0.0
H21 H 0.14167 0.33913 0.36275 0.0
H22 H 0.12794 0.45958 0.3355 0.0
Cu23 Cu 0.88135 0.82629 0.54232 0.0
N24 N 0.89757 0.8287 0.50426 0.0
N25 N 0.91031 0.83887 0.45698 0.0
C26 C 0.89429 0.84241 0.48003 0.0
C27 C 0.924 0.82234 0.4671 0.0
C28 C 0.91608 0.8161 0.49609 0.0
O29 O 0.84848 0.83597 0.53988 0.0
C30 C 0.91916 0.8366 0.5826 0.0
O31 O 0.929 0.8199 0.56849 0.0
H32 H 0.88061 0.85476 0.47938 0.0
H33 H 0.92322 0.80311 0.51023 0.0
N34 N 0.8808 0.79692 0.55359 0.0
N35 N 0.88647 0.76605 0.58014 0.0
C36 C 0.88781 0.788 0.58074 0.0
C37 C 0.87451 0.78008 0.53531 0.0
C38 C 0.87797 0.76101 0.55161 0.0
C39 C 0.83492 0.83176 0.5169 0.0
O40 O 0.8437 0.82186 0.49227 0.0
H41 H 0.894 0.79743 0.60044 0.0
H42 H 0.86846 0.78158 0.51148 0.0
O43 O 0.89843 0.84257 0.57439 0.0
H44 H 0.93842 0.81495 0.45414 0.0
H45 H 0.87531 0.74471 0.54268 0.0
Cu46 Cu 0.43003 0.63783 0.81246 0.0
N47 N 0.40848 0.65394 0.8365 0.0
N48 N 0.39327 0.6765 0.87244 0.0
C49 C 0.41324 0.6676 0.86036 0.0
C50 C 0.37532 0.66799 0.85549 0.0
C51 C 0.38474 0.65412 0.83344 0.0
O52 O 0.46073 0.63896 0.83235 0.0
C53 C 0.41555 0.64798 0.75112 0.0
O54 O 0.39635 0.63719 0.75923 0.0
H55 H 0.43094 0.67073 0.86898 0.0
H56 H 0.37496 0.64482 0.81632 0.0
N57 N 0.42038 0.60872 0.81072 0.0
N58 N 0.41624 0.57405 0.79555 0.0
C59 C 0.42499 0.59394 0.78824 0.0
C60 C 0.40833 0.59787 0.83295 0.0
C61 C 0.40574 0.57652 0.82368 0.0
C62 C 0.4724 0.65661 0.83459 0.0
O63 O 0.46382 0.67445 0.82209 0.0
H64 H 0.43498 0.59763 0.76729 0.0
H65 H 0.40205 0.605 0.85452 0.0
O66 O 0.43231 0.65003 0.77075 0.0
H67 H 0.35669 0.67178 0.8584 0.0
H68 H 0.39664 0.56385 0.83657 0.0
Cu69 Cu 0.64534 0.1983 0.02387 0.0
N70 N 0.63023 0.19921 0.98535 0.0
N71 N 0.62205 0.19232 0.93532 0.0
C72 C 0.63668 0.18822 0.95954 0.0
C73 C 0.60576 0.20647 0.94649 0.0
C74 C 0.61088 0.2107 0.97737 0.0
O75 O 0.67712 0.1871 0.01582 0.0
C76 C 0.62329 0.18309 0.0807 0.0
O77 O 0.63663 0.19742 0.09519 0.0
H78 H 0.65164 0.17721 0.95877 0.0
H79 H 0.60125 0.22142 0.99291 0.0
N80 N 0.64776 0.22672 0.0389 0.0
N81 N 0.63977 0.25843 0.06228 0.0
C82 C 0.63161 0.23833 0.0551 0.0
C83 C 0.6666 0.23994 0.03534 0.0
C84 C 0.6618 0.25943 0.04982 0.0
C85 C 0.69465 0.1889 0.03432 0.0
O86 O 0.69106 0.19645 0.06263 0.0
H87 H 0.61426 0.23212 0.06138 0.0
H88 H 0.6828 0.23562 0.02326 0.0
O89 O 0.62575 0.18041 0.05137 0.0
H90 H 0.59138 0.21353 0.93324 0.0
H91 H 0.67391 0.27305 0.05161 0.0
Cu92 Cu 0.08522 0.63876 0.22397 0.0
N93 N 0.10253 0.65449 0.19403 0.0
N94 N 0.1132 0.68316 0.16488 0.0
C95 C 0.10295 0.67638 0.1917 0.0
C96 C 0.11978 0.66482 0.14987 0.0
C97 C 0.11324 0.64718 0.16793 0.0
O98 O 0.05232 0.6429 0.21282 0.0
C99 C 0.08247 0.64564 0.29024 0.0
O100 O 0.06735 0.62934 0.29084 0.0
H101 H 0.09479 0.68713 0.20858 0.0
H102 H 0.1154 0.63025 0.16177 0.0
N103 N 0.0916 0.60878 0.22163 0.0
N104 N 0.09586 0.57341 0.23353 0.0
C105 C 0.09527 0.5941 0.2446 0.0
C106 C 0.08981 0.59697 0.19532 0.0
C107 C 0.09262 0.57532 0.20245 0.0
C108 C 0.04203 0.66122 0.2155 0.0
O109 O 0.05291 0.67714 0.23013 0.0
H110 H 0.0964 0.59839 0.26902 0.0
H111 H 0.08573 0.60359 0.1726 0.0
O112 O 0.09191 0.65135 0.26453 0.0
H113 H 0.12829 0.66419 0.12722 0.0
H114 H 0.0919 0.56203 0.18592 0.0
Cu115 Cu 0.6468 0.81769 0.4904 0.0
N116 N 0.63631 0.81799 0.53182 0.0
N117 N 0.62784 0.8284 0.58059 0.0
C118 C 0.63803 0.83406 0.55314 0.0
C119 C 0.61933 0.80809 0.57619 0.0
C120 C 0.62456 0.80175 0.54615 0.0
O121 O 0.679 0.82937 0.4866 0.0
C122 C 0.62097 0.83358 0.43668 0.0
O123 O 0.6367 0.82342 0.41932 0.0
H124 H 0.64647 0.84957 0.54855 0.0
H125 H 0.62015 0.78632 0.53544 0.0
N126 N 0.64787 0.78876 0.47733 0.0
N127 N 0.63987 0.75735 0.45309 0.0
C128 C 0.6335 0.77839 0.45711 0.0
C129 C 0.66371 0.7738 0.48668 0.0
C130 C 0.65885 0.75444 0.47182 0.0
C131 C 0.69388 0.82714 0.50874 0.0
O132 O 0.68691 0.81814 0.53499 0.0
H133 H 0.6189 0.78625 0.44533 0.0
H134 H 0.67781 0.77681 0.50322 0.0
O135 O 0.62328 0.83359 0.46625 0.0
H136 H 0.61036 0.79832 0.59362 0.0
H137 H 0.66848 0.73938 0.47492 0.0
Cu138 Cu 0.43384 0.39268 0.70269 0.0
N139 N 0.41213 0.37656 0.67912 0.0
N140 N 0.39693 0.35376 0.64358 0.0
C141 C 0.41694 0.36173 0.65674 0.0
C142 C 0.37892 0.364 0.65839 0.0
C143 C 0.38834 0.37803 0.68017 0.0
O144 O 0.46402 0.39158 0.68125 0.0
C145 C 0.41841 0.38134 0.76281 0.0
O146 O 0.39887 0.39091 0.75336 0.0
H147 H 0.43475 0.35725 0.6498 0.0
H148 H 0.37853 0.38874 0.69552 0.0
N149 N 0.42407 0.42173 0.70436 0.0
N150 N 0.41883 0.45626 0.71958 0.0
C151 C 0.42733 0.4364 0.72739 0.0
C152 C 0.41314 0.43262 0.68132 0.0
C153 C 0.40987 0.45387 0.6906 0.0
C154 C 0.47721 0.3748 0.681 0.0
O155 O 0.47111 0.35779 0.69779 0.0
H156 H 0.4362 0.43268 0.74911 0.0
H157 H 0.40808 0.42557 0.65917 0.0
O158 O 0.43615 0.38052 0.7444 0.0
H159 H 0.36021 0.36144 0.65405 0.0
H160 H 0.40136 0.46652 0.67712 0.0
Cu161 Cu 0.88318 0.20321 1.00112 0.0
N162 N 0.89979 0.19936 0.03833 0.0
N163 N 0.90746 0.1881 0.08693 0.0
C164 C 0.89352 0.18572 0.06151 0.0
C165 C 0.92319 0.20385 0.07921 0.0
C166 C 0.91834 0.21082 0.0493 0.0
O167 O 0.85045 0.19554 1.01083 0.0
C168 C 0.91929 0.18991 0.96127 0.0
O169 O 0.93062 0.2048 0.97748 0.0
H170 H 0.87867 0.17461 0.05985 0.0
H171 H 0.92712 0.22387 0.03687 0.0
N172 N 0.88456 0.23256 0.98968 0.0
N173 N 0.89311 0.26306 0.96349 0.0
C174 C 0.894 0.2411 0.96347 0.0
C175 C 0.87724 0.24968 1.00673 0.0
C176 C 0.88243 0.26853 0.99061 0.0
C177 C 0.83303 0.1938 0.99218 0.0
O178 O 0.83655 0.19627 0.96208 0.0
H179 H 0.90135 0.23143 0.94471 0.0
H180 H 0.86909 0.24851 0.02955 0.0
O181 O 0.89772 0.18575 0.96814 0.0
H182 H 0.93657 0.21058 0.09451 0.0
H183 H 0.87922 0.28498 0.99862 0.0
Cu184 Cu 0.97465 0.64339 0.74261 0.0
N185 N 0.94624 0.65144 0.72367 0.0
N186 N 0.92051 0.66939 0.69363 0.0
C187 C 0.94306 0.66832 0.70414 0.0
C188 C 0.90913 0.65243 0.70706 0.0
C189 C 0.92506 0.6414 0.72562 0.0
O190 O 0.99957 0.6593 0.72069 0.0
C191 C 0.96025 0.66598 0.79738 0.0
O192 O 0.94785 0.67753 0.7775 0.0
H193 H 0.95717 0.67932 0.69731 0.0
H194 H 0.92154 0.62701 0.73941 0.0
N195 N 0.97835 0.61346 0.73611 0.0
N196 N 0.98057 0.5773 0.74272 0.0
C197 C 0.97963 0.59705 0.75692 0.0
C198 C 0.97843 0.60391 0.70792 0.0
C199 C 0.9798 0.58174 0.71185 0.0
C200 C 0.01957 0.65149 0.71242 0.0
O201 O 0.02551 0.63182 0.72147 0.0
H202 H 0.97955 0.59963 0.78188 0.0
H203 H 0.97701 0.61253 0.68601 0.0
O204 O 0.97346 0.65066 0.78713 0.0
H205 H 0.89059 0.64835 0.70388 0.0
H206 H 0.9794 0.56988 0.69321 0.0
Cu207 Cu 0.12063 0.20016 0.51586 0.0
N208 N 0.10035 0.18183 0.49325 0.0
N209 N 0.07343 0.16898 0.45951 0.0
C210 C 0.08492 0.18683 0.47033 0.0
C211 C 0.08219 0.1522 0.47621 0.0
C212 C 0.09858 0.16015 0.49691 0.0
O213 O 0.12232 0.22888 0.49667 0.0
C214 C 0.11138 0.18414 0.57617 0.0
O215 O 0.12194 0.16687 0.56464 0.0
H216 H 0.08207 0.20321 0.462 0.0
H217 H 0.10883 0.1506 0.51315 0.0
N218 N 0.15138 0.18879 0.51366 0.0
N219 N 0.19097 0.18661 0.51598 0.0
C220 C 0.17146 0.19796 0.52458 0.0
C221 C 0.15844 0.17109 0.49763 0.0
C222 C 0.18277 0.16964 0.49914 0.0
C223 C 0.10515 0.24192 0.49207 0.0
O224 O 0.08378 0.23666 0.50188 0.0
H225 H 0.17177 0.21313 0.53744 0.0
H226 H 0.14685 0.16032 0.48482 0.0
O227 O 0.10965 0.20113 0.55923 0.0
H228 H 0.07748 0.13523 0.47345 0.0
H229 H 0.19357 0.15713 0.48841 0.0
Cu230 Cu 0.55089 0.39254 0.21379 0.0
N231 N 0.57643 0.38081 0.19183 0.0
N232 N 0.59915 0.36107 0.15989 0.0
C233 C 0.57726 0.36359 0.17236 0.0
C234 C 0.61249 0.37718 0.17215 0.0
C235 C 0.59845 0.38926 0.19187 0.0
O236 O 0.52114 0.37942 0.19986 0.0
C237 C 0.56306 0.36898 0.26797 0.0
O238 O 0.56376 0.35252 0.24841 0.0
H239 H 0.56208 0.35346 0.16693 0.0
H240 H 0.6038 0.40342 0.20513 0.0
N241 N 0.55072 0.42245 0.20523 0.0
N242 N 0.54754 0.45868 0.20875 0.0
C243 C 0.54444 0.43939 0.22353 0.0
C244 C 0.55822 0.43135 0.17828 0.0
C245 C 0.5562 0.45359 0.1803 0.0
C246 C 0.51422 0.38275 0.17199 0.0
O247 O 0.5276 0.39452 0.15338 0.0
H248 H 0.53777 0.43759 0.24709 0.0
H249 H 0.56507 0.42227 0.15861 0.0
O250 O 0.55679 0.38763 0.25795 0.0
H251 H 0.63113 0.37995 0.16732 0.0
H252 H 0.56136 0.46514 0.16247 0.0
Cu253 Cu 0.405 0.81891 1.01281 0.0
N254 N 0.42229 0.83899 0.98926 0.0
N255 N 0.44666 0.85208 0.95247 0.0
C256 C 0.44051 0.83459 0.96988 0.0
C257 C 0.43169 0.86807 0.96144 0.0
C258 C 0.41664 0.85992 0.98393 0.0
O259 O 0.41208 0.79036 0.99506 0.0
C260 C 0.41637 0.83952 0.07026 0.0
O261 O 0.41208 0.85728 0.05424 0.0
H262 H 0.44852 0.81865 0.968 0.0
H263 H 0.40179 0.86833 0.99448 0.0
N264 N 0.37299 0.82498 1.00566 0.0
N265 N 0.33356 0.82852 1.00914 0.0
C266 C 0.35387 0.82391 0.02464 0.0
C267 C 0.36451 0.83051 0.97748 0.0
C268 C 0.34033 0.83278 0.97953 0.0
C269 C 0.39674 0.77518 0.99291 0.0
O270 O 0.37589 0.77773 1.00618 0.0
H271 H 0.3548 0.8193 0.04897 0.0
H272 H 0.37527 0.83255 0.95674 0.0
O273 O 0.41371 0.82107 0.05701 0.0
H274 H 0.4308 0.8842 0.95141 0.0
H275 H 0.32868 0.83738 0.96062 0.0
Cu276 Cu 0.97716 0.38626 0.79007 0.0
N277 N 0.95084 0.37332 0.80909 0.0
N278 N 0.92708 0.3544 0.84091 0.0
C279 C 0.94977 0.35851 0.83228 0.0
C280 C 0.91351 0.36697 0.82236 0.0
C281 C 0.92819 0.37854 0.80275 0.0
O282 O 1.0065 0.37499 0.80798 0.0
C283 C 0.96963 0.36181 0.73487 0.0
O284 O 0.96669 0.34566 0.7546 0.0
H285 H 0.96524 0.35142 0.84319 0.0
H286 H 0.9228 0.39029 0.78538 0.0
N287 N 0.97479 0.41629 0.7972 0.0
N288 N 0.97605 0.4526 0.79168 0.0
C289 C 0.98268 0.43306 0.77967 0.0
C290 C 0.9628 0.42543 0.82096 0.0
C291 C 0.96353 0.44767 0.81768 0.0
C292 C 0.0126 0.38039 0.83554 0.0
O293 O 0.99876 0.39348 0.85157 0.0
H294 H 0.99279 0.43086 0.75842 0.0
H295 H 0.95366 0.41646 0.83908 0.0
O296 O 0.97518 0.38055 0.74539 0.0
H297 H 0.89431 0.36775 0.82295 0.0
H298 H 0.95472 0.45919 0.83286 0.0
Cu299 Cu 0.40089 0.20745 0.51457 0.0
N300 N 0.41847 0.18673 0.53595 0.0
N301 N 0.44256 0.17172 0.57116 0.0
C302 C 0.43424 0.19045 0.55882 0.0
C303 C 0.43151 0.15565 0.55524 0.0
C304 C 0.41662 0.16499 0.53361 0.0
O305 O 0.41172 0.23607 0.52807 0.0
C306 C 0.42385 0.19698 0.4577 0.0
O307 O 0.44281 0.19673 0.47548 0.0
H308 H 0.43939 0.20661 0.56622 0.0
H309 H 0.40487 0.15656 0.51772 0.0
N310 N 0.36964 0.2043 0.52822 0.0
N311 N 0.33022 0.20061 0.53118 0.0
C312 C 0.34936 0.20162 0.51203 0.0
C313 C 0.36317 0.2049 0.55841 0.0
C314 C 0.33895 0.20262 0.56035 0.0
C315 C 0.39778 0.25236 0.52808 0.0
O316 O 0.37695 0.25047 0.51461 0.0
H317 H 0.34865 0.20079 0.48683 0.0
H318 H 0.37535 0.20689 0.57768 0.0
O319 O 0.40392 0.20215 0.46979 0.0
H320 H 0.43353 0.13839 0.55938 0.0
H321 H 0.32863 0.20213 0.58167 0.0
Cu322 Cu 0.544 0.63749 0.29316 0.0
N323 N 0.5731 0.64434 0.31112 0.0
N324 N 0.60001 0.66185 0.34003 0.0
C325 C 0.57672 0.65933 0.33347 0.0
C326 C 0.61139 0.64765 0.32108 0.0
C327 C 0.59472 0.63688 0.30328 0.0
O328 O 0.52048 0.65476 0.31533 0.0
C329 C 0.55684 0.6617 0.24016 0.0
O330 O 0.56647 0.67427 0.26147 0.0
H331 H 0.56245 0.66834 0.34436 0.0
H332 H 0.59813 0.62493 0.28528 0.0
N333 N 0.53815 0.60798 0.30055 0.0
N334 N 0.53691 0.57165 0.29716 0.0
C335 C 0.54159 0.59052 0.28198 0.0
C336 C 0.53115 0.5999 0.32824 0.0
C337 C 0.53027 0.57759 0.32622 0.0
C338 C 0.49903 0.64916 0.3203 0.0
O339 O 0.4907 0.6314 0.30719 0.0
H340 H 0.54814 0.59161 0.25827 0.0
H341 H 0.5273 0.60964 0.34867 0.0
O342 O 0.54539 0.64479 0.2488 0.0
H343 H 0.63042 0.64564 0.31937 0.0
H344 H 0.52517 0.5666 0.34479 0.0
Cu345 Cu 0.12398 0.83183 0.03491 0.0
N346 N 0.10631 0.85378 0.05408 0.0
N347 N 0.08273 0.87303 0.08577 0.0
C348 C 0.09092 0.85298 0.07822 0.0
C349 C 0.09329 0.88677 0.06543 0.0
C350 C 0.10777 0.87488 0.04605 0.0
O351 O 0.11554 0.80291 0.0501 0.0
C352 C 0.10006 0.83958 0.97747 0.0
O353 O 0.08121 0.84151 0.99538 0.0
H354 H 0.08618 0.83813 0.09029 0.0
H355 H 0.11877 0.88115 0.02738 0.0
N356 N 0.15582 0.83682 0.04445 0.0
N357 N 0.19552 0.83642 0.04286 0.0
C358 C 0.17519 0.82937 0.02941 0.0
C359 C 0.16408 0.84896 0.06819 0.0
C360 C 0.18851 0.84876 0.06729 0.0
C361 C 0.11952 0.79788 0.07845 0.0
O362 O 0.12797 0.81284 0.09734 0.0
H363 H 0.1743 0.81892 1.00911 0.0
H364 H 0.15305 0.85751 0.08485 0.0
O365 O 0.11987 0.83454 0.98984 0.0
H366 H 0.09054 0.90418 0.06432 0.0
H367 H 0.20013 0.85749 0.08299 0.0
Cu368 Cu 0.59173 0.89175 0.80871 0.0
N369 N 0.60845 0.87303 0.8351 0.0
N370 N 0.61427 0.84753 0.87164 0.0
C371 C 0.59927 0.86259 0.86001 0.0
C372 C 0.63393 0.84889 0.85358 0.0
C373 C 0.63025 0.86458 0.83104 0.0
O374 O 0.55989 0.89364 0.82548 0.0
C375 C 0.60865 0.88131 0.74828 0.0
O376 O 0.62763 0.89202 0.75734 0.0
H377 H 0.58158 0.86554 0.86885 0.0
H378 H 0.64214 0.86874 0.81211 0.0
N379 N 0.60512 0.91957 0.80834 0.0
N380 N 0.61368 0.95363 0.79371 0.0
C381 C 0.60294 0.93473 0.78583 0.0
C382 C 0.61766 0.92914 0.83123 0.0
C383 C 0.62295 0.95017 0.82229 0.0
C384 C 0.54678 0.87678 0.82636 0.0
O385 O 0.55425 0.85886 0.81276 0.0
H386 H 0.59314 0.9321 0.76447 0.0
H387 H 0.62233 0.92143 0.85304 0.0
O388 O 0.59111 0.87953 0.7669 0.0
H389 H 0.64932 0.83845 0.85532 0.0
H390 H 0.6329 0.96196 0.83575 0.0
Cu391 Cu 0.37715 0.32557 0.02123 0.0
N392 N 0.39239 0.32403 0.9827 0.0
N393 N 0.40162 0.33164 0.93312 0.0
C394 C 0.38742 0.33637 0.95765 0.0
C395 C 0.41615 0.31568 0.94331 0.0
C396 C 0.41038 0.31102 0.97392 0.0
O397 O 0.34616 0.33831 1.01286 0.0
C398 C 0.40119 0.33989 0.07733 0.0
O399 O 0.38926 0.32476 0.09233 0.0
H400 H 0.37382 0.34879 0.95768 0.0
H401 H 0.41866 0.29898 0.98873 0.0
N402 N 0.37265 0.29732 0.03625 0.0
N403 N 0.37779 0.26458 0.05795 0.0
C404 C 0.38777 0.28414 0.05164 0.0
C405 C 0.35264 0.28568 0.03253 0.0
C406 C 0.35569 0.26558 0.04593 0.0
C407 C 0.32865 0.33857 0.03168 0.0
O408 O 0.33175 0.33205 0.06057 0.0
H409 H 0.40573 0.28871 0.05773 0.0
H410 H 0.33688 0.29145 0.02082 0.0
O411 O 0.39729 0.34303 0.04841 0.0
H412 H 0.42973 0.3077 0.92957 0.0
H413 H 0.34246 0.25282 0.04714 0.0
Cu414 Cu 0.92218 0.12983 0.32152 0.0
N415 N 0.90165 0.14921 0.34191 0.0
N416 N 0.88854 0.17602 0.373 0.0
C417 C 0.90766 0.16483 0.36256 0.0
C418 C 0.86979 0.16695 0.35825 0.0
C419 C 0.87792 0.15048 0.33916 0.0
O420 O 0.95169 0.12962 0.34443 0.0
C421 C 0.91091 0.13905 0.25895 0.0
O422 O 0.89012 0.13118 0.26717 0.0
H423 H 0.92576 0.16811 0.36944 0.0
H424 H 0.86726 0.14006 0.32442 0.0
N425 N 0.90949 0.10162 0.32202 0.0
N426 N 0.90419 0.06596 0.31344 0.0
C427 C 0.91634 0.08412 0.3052 0.0
C428 C 0.89244 0.09432 0.3414 0.0
C429 C 0.88911 0.07242 0.33615 0.0
C430 C 0.96632 0.1454 0.34347 0.0
O431 O 0.96204 0.16194 0.3249 0.0
H432 H 0.93043 0.08458 0.288 0.0
H433 H 0.88336 0.10418 0.35858 0.0
O434 O 0.92751 0.13961 0.27899 0.0
H435 H 0.85142 0.17164 0.36125 0.0
H436 H 0.87651 0.06207 0.34819 0.0
Cu437 Cu 0.14306 0.70631 0.53721 0.0
N438 N 0.12331 0.70702 0.50241 0.0
N439 N 0.10661 0.69751 0.45724 0.0
C440 C 0.11904 0.69065 0.48225 0.0
C441 C 0.10284 0.71894 0.46192 0.0
C442 C 0.11312 0.72475 0.48985 0.0
O443 O 0.17277 0.69328 0.52375 0.0
C444 C 0.10659 0.69625 0.57914 0.0
O445 O 0.0959 0.71167 0.56329 0.0
H446 H 0.12603 0.67436 0.48501 0.0
H447 H 0.11393 0.74094 0.49975 0.0
N448 N 0.15007 0.73486 0.54911 0.0
N449 N 0.14954 0.76754 0.57219 0.0
C450 C 0.13928 0.74764 0.57041 0.0
C451 C 0.16773 0.74698 0.5371 0.0
C452 C 0.16751 0.76707 0.55126 0.0
C453 C 0.19139 0.69365 0.54048 0.0
O454 O 0.18983 0.70051 0.56946 0.0
H455 H 0.12406 0.74256 0.58397 0.0
H456 H 0.17998 0.74151 0.51927 0.0
O457 O 0.12761 0.69081 0.57138 0.0
H458 H 0.09377 0.72972 0.44593 0.0
H459 H 0.17986 0.78018 0.54664 0.0
Cu460 Cu 0.59403 0.13311 0.70309 0.0
N461 N 0.61054 0.15239 0.67708 0.0
N462 N 0.6162 0.17877 0.64169 0.0
C463 C 0.60054 0.1648 0.65483 0.0
C464 C 0.63704 0.17469 0.65611 0.0
C465 C 0.63348 0.15844 0.67791 0.0
O466 O 0.56262 0.13003 0.68565 0.0
C467 C 0.6101 0.14594 0.76249 0.0
O468 O 0.63049 0.13855 0.75201 0.0
H469 H 0.58199 0.16375 0.64874 0.0
H470 H 0.64653 0.15197 0.69386 0.0
N471 N 0.60825 0.10571 0.7042 0.0
N472 N 0.61651 0.07176 0.71942 0.0
C473 C 0.60572 0.0907 0.72686 0.0
C474 C 0.62113 0.09603 0.68168 0.0
C475 C 0.62623 0.07505 0.69098 0.0
C476 C 0.54759 0.14535 0.68809 0.0
O477 O 0.55299 0.16251 0.70498 0.0
H478 H 0.59541 0.09339 0.74786 0.0
H479 H 0.62596 0.10354 0.65974 0.0
O480 O 0.59196 0.14502 0.74493 0.0
H481 H 0.6535 0.18338 0.65217 0.0
H482 H 0.63619 0.06312 0.67777 0.0
Cu483 Cu 0.14153 0.32646 0.99986 0.0
N484 N 0.12472 0.32631 0.03735 0.0
N485 N 0.11396 0.33545 0.086 0.0
C486 C 0.13103 0.33664 0.06375 0.0
C487 C 0.0963 0.3237 0.07279 0.0
C488 C 0.10298 0.31814 0.04285 0.0
O489 O 0.17284 0.33815 1.00943 0.0
C490 C 0.12108 0.34091 0.94155 0.0
O491 O 0.13413 0.32598 0.92787 0.0
H492 H 0.14771 0.34518 0.06615 0.0
H493 H 0.09244 0.30939 0.02589 0.0
N494 N 0.14506 0.2979 0.98556 0.0
N495 N 0.13957 0.26622 0.96088 0.0
C496 C 0.13003 0.28573 0.96838 0.0
C497 C 0.16449 0.28553 0.98955 0.0
C498 C 0.16121 0.26605 0.97433 0.0
C499 C 0.19048 0.33847 0.99082 0.0
O500 O 0.18743 0.33256 0.96164 0.0
H501 H 0.11282 0.29137 0.96066 0.0
H502 H 0.18013 0.29051 1.00231 0.0
O503 O 0.12312 0.34406 0.97082 0.0
H504 H 0.07933 0.31998 0.0834 0.0
H505 H 0.17381 0.25279 0.97324 0.0
Cu506 Cu 0.92718 0.88873 0.22533 0.0
N507 N 0.90458 0.87171 0.20491 0.0
N508 N 0.8887 0.8444 0.17744 0.0
C509 C 0.90895 0.85407 0.18708 0.0
C510 C 0.87096 0.85653 0.18961 0.0
C511 C 0.88082 0.8734 0.20646 0.0
O512 O 0.95755 0.8797 0.20811 0.0
C513 C 0.94303 0.8822 0.28745 0.0
O514 O 0.9641 0.88593 0.27535 0.0
H515 H 0.9266 0.84794 0.18233 0.0
H516 H 0.87137 0.88574 0.21951 0.0
N517 N 0.9217 0.91821 0.21695 0.0
N518 N 0.91873 0.95442 0.22164 0.0
C519 C 0.92265 0.93536 0.23662 0.0
C520 C 0.91693 0.92664 0.18874 0.0
C521 C 0.9151 0.94891 0.19152 0.0
C522 C 0.97471 0.89247 0.20193 0.0
O523 O 0.97313 0.91311 0.20967 0.0
H524 H 0.92667 0.93391 0.26121 0.0
H525 H 0.91513 0.91721 0.16756 0.0
O526 O 0.92489 0.88298 0.26989 0.0
H527 H 0.85219 0.85329 0.18682 0.0
H528 H 0.91119 0.96015 0.17279 0.0
Cu529 Cu 0.37704 0.70795 0.49389 0.0
N530 N 0.39446 0.70651 0.5308 0.0
N531 N 0.40386 0.6967 0.5795 0.0
C532 C 0.39039 0.69237 0.55418 0.0
C533 C 0.41702 0.71425 0.5715 0.0
C534 C 0.41109 0.72032 0.54151 0.0
O535 O 0.34552 0.69765 0.50496 0.0
C536 C 0.41417 0.69371 0.45582 0.0
O537 O 0.42603 0.70733 0.47357 0.0
H538 H 0.37735 0.67948 0.55274 0.0
H539 H 0.41776 0.73429 0.52884 0.0
N540 N 0.375 0.73687 0.4806 0.0
N541 N 0.38213 0.76801 0.45523 0.0
C542 C 0.38886 0.74714 0.45956 0.0
C543 C 0.35892 0.75171 0.48985 0.0
C544 C 0.36324 0.77093 0.47421 0.0
C545 C 0.32717 0.6979 0.48775 0.0
O546 O 0.32908 0.7042 0.45857 0.0
H547 H 0.40333 0.73941 0.44722 0.0
H548 H 0.34503 0.74872 0.50678 0.0
O549 O 0.39216 0.6907 0.46124 0.0
H550 H 0.42927 0.72274 0.58665 0.0
H551 H 0.35346 0.78597 0.47698 0.0
Cu552 Cu 0.47501 0.14099 0.22817 0.0
N553 N 0.45125 0.15569 0.20614 0.0
N554 N 0.43213 0.17867 0.1746 0.0
C555 C 0.45275 0.17425 0.1894 0.0
C556 C 0.41718 0.16241 0.18254 0.0
C557 C 0.42899 0.14832 0.20188 0.0
O558 O 0.50588 0.15008 0.2117 0.0
C559 C 0.45277 0.15107 0.28642 0.0
O560 O 0.43309 0.14754 0.27088 0.0
H561 H 0.46879 0.18386 0.18726 0.0
H562 H 0.42196 0.13344 0.21173 0.0
N563 N 0.47077 0.11107 0.22066 0.0
N564 N 0.4709 0.0746 0.22288 0.0
C565 C 0.4764 0.09339 0.2379 0.0
C566 C 0.46134 0.1031 0.19419 0.0
C567 C 0.46136 0.0808 0.19547 0.0
C568 C 0.51143 0.14617 0.1834 0.0
O569 O 0.49611 0.13591 0.16561 0.0
H570 H 0.48474 0.09428 0.26058 0.0
H571 H 0.455 0.11289 0.175 0.0
O572 O 0.47267 0.14835 0.27265 0.0
H573 H 0.39898 0.1608 0.17485 0.0
H574 H 0.45464 0.06997 0.17762 0.0
Cu575 Cu 0.62318 0.70676 1.01441 0.0
N576 N 0.60209 0.68972 0.9914 0.0
N577 N 0.57551 0.67829 0.95639 0.0
C578 C 0.58875 0.69523 0.96662 0.0
C579 C 0.58103 0.66151 0.97537 0.0
C580 C 0.59748 0.66857 0.99674 0.0
O581 O 0.62507 0.73618 0.99792 0.0
C582 C 0.59433 0.70006 0.06845 0.0
O583 O 0.57727 0.69681 0.04814 0.0
H584 H 0.58891 0.71123 0.95617 0.0
H585 H 0.60531 0.65908 0.01529 0.0
N586 N 0.65321 0.69493 1.00814 0.0
N587 N 0.69234 0.68965 1.01023 0.0
C588 C 0.67327 0.69871 0.0243 0.0
C589 C 0.65981 0.68305 0.98321 0.0
C590 C 0.68394 0.67975 0.98443 0.0
C591 C 0.60794 0.74889 0.99163 0.0
O592 O 0.58612 0.74299 0.9985 0.0
H593 H 0.67404 0.70871 0.04509 0.0
H594 H 0.64797 0.67779 0.96485 0.0
O595 O 0.61494 0.70551 0.05879 0.0
H596 H 0.5733 0.64539 0.97453 0.0
H597 H 0.69453 0.67098 0.96749 0.0
Cu598 Cu 0.05276 0.88759 0.74328 0.0
N599 N 0.07948 0.87621 0.72338 0.0
N600 N 0.10201 0.85413 0.6944 0.0
C601 C 0.08139 0.85639 0.71022 0.0
C602 C 0.1135 0.87327 0.69788 0.0
C603 C 0.09954 0.88687 0.71572 0.0
O604 O 0.02605 0.87281 0.72364 0.0
C605 C 0.07368 0.87812 0.80215 0.0
O606 O 0.0936 0.87978 0.78636 0.0
H607 H 0.06741 0.84428 0.71094 0.0
H608 H 0.10339 0.90358 0.72192 0.0
N609 N 0.05178 0.91734 0.73395 0.0
N610 N 0.05312 0.95373 0.73574 0.0
C611 C 0.05268 0.93506 0.75257 0.0
C612 C 0.0516 0.92507 0.70461 0.0
C613 C 0.05237 0.9474 0.70561 0.0
C614 C 1.00704 0.88173 0.71397 0.0
O615 O 1.00307 0.90235 0.7202 0.0
H616 H 0.05367 0.93427 0.77776 0.0
H617 H 0.0512 0.91502 0.68388 0.0
O618 O 0.05405 0.88156 0.7882 0.0
H619 H 0.13061 0.87729 0.68785 0.0
H620 H 0.05232 0.95817 0.68562 0.0
Cu621 Cu 0.89281 0.31312 0.51735 0.0
N622 N 0.90597 0.33188 0.48779 0.0
N623 N 0.92935 0.3451 0.45011 0.0
C624 C 0.92503 0.32823 0.46954 0.0
C625 C 0.9123 0.35989 0.45645 0.0
C626 C 0.89787 0.35166 0.47962 0.0
O627 O 0.89039 0.28448 0.49809 0.0
C628 C 0.92176 0.33058 0.56506 0.0
O629 O 0.92034 0.34819 0.54782 0.0
H630 H 0.93559 0.31356 0.47071 0.0
H631 H 0.88245 0.35947 0.48967 0.0
N632 N 0.86271 0.32352 0.52777 0.0
N633 N 0.82375 0.33024 0.52838 0.0
C634 C 0.8413 0.31776 0.51636 0.0
C635 C 0.85849 0.33998 0.54773 0.0
C636 C 0.83454 0.34418 0.54813 0.0
C637 C 0.9081 0.27168 0.49642 0.0
O638 O 0.92802 0.27723 0.51019 0.0
H639 H 0.83873 0.30516 0.49903 0.0
H640 H 0.87199 0.34857 0.56073 0.0
O641 O 0.91184 0.31313 0.55549 0.0
H642 H 0.91012 0.37539 0.44481 0.0
H643 H 0.82571 0.35652 0.56196 0.0
Cu644 Cu 0.47674 0.8927 0.29647 0.0
N645 N 0.44953 0.88469 0.31877 0.0
N646 N 0.42312 0.86589 0.34714 0.0
C647 C 0.44407 0.86527 0.33162 0.0
C648 C 0.41517 0.88648 0.34365 0.0
C649 C 0.43145 0.89797 0.32619 0.0
O650 O 0.50422 0.87616 0.31114 0.0
C651 C 0.464 0.86976 0.24133 0.0
O652 O 0.4626 0.85306 0.26038 0.0
H653 H 0.45535 0.85109 0.32975 0.0
H654 H 0.43042 0.91497 0.31979 0.0
N655 N 0.48286 0.92226 0.30456 0.0
N656 N 0.48344 0.95871 0.30267 0.0
C657 C 0.47667 0.94013 0.28811 0.0
C658 C 0.494 0.9299 0.33007 0.0
C659 C 0.49434 0.95224 0.32902 0.0
C660 C 0.5073 0.87349 0.34037 0.0
O661 O 0.49091 0.88048 0.35978 0.0
H662 H 0.46701 0.93954 0.26633 0.0
H663 H 0.50136 0.91998 0.3484 0.0
O664 O 0.47059 0.88816 0.25209 0.0
H665 H 0.39906 0.89304 0.35374 0.0
H666 H 0.50227 0.96292 0.3462 0.0
Cu667 Cu 0.90168 0.70357 0.02977 0.0
N668 N 0.92125 0.68325 0.04912 0.0
N669 N 0.94426 0.66618 0.08372 0.0
C670 C 0.9329 0.68489 0.0764 0.0
C671 C 0.93941 0.65237 0.06 0.0
C672 C 0.92513 0.66288 0.03891 0.0
O673 O 0.90575 0.73225 0.049 0.0
C674 C 0.92871 0.6988 0.97367 0.0
O675 O 0.94648 0.69514 0.99272 0.0
H676 H 0.93262 0.69937 0.09076 0.0
H677 H 0.91799 0.65618 0.01756 0.0
N678 N 0.8706 0.69398 0.03626 0.0
N679 N 0.83125 0.69006 0.03422 0.0
C680 C 0.85049 0.69993 0.02164 0.0
C681 C 0.86386 0.67976 0.05847 0.0
C682 C 0.83961 0.67738 0.05736 0.0
C683 C 0.89544 0.73638 0.07486 0.0
O684 O 0.88272 0.72107 0.08825 0.0
H685 H 0.84991 0.71154 1.00266 0.0
H686 H 0.87578 0.67189 0.07466 0.0
O687 O 0.90842 0.70371 0.98492 0.0
H688 H 0.94594 0.6359 0.05766 0.0
H689 H 0.82896 0.66695 0.0722 0.0
Cu690 Cu 0.05341 0.13586 0.80469 0.0
N691 N 0.08092 0.14631 0.82343 0.0
N692 N 0.10599 0.16734 0.85039 0.0
C693 C 0.08374 0.16518 0.83903 0.0
C694 C 0.11747 0.14903 0.84152 0.0
C695 C 0.10197 0.13613 0.82494 0.0
O696 O 0.0272 0.15259 0.82214 0.0
C697 C 0.06166 0.15747 0.74733 0.0
O698 O 0.06184 0.17491 0.76509 0.0
H699 H 0.06974 0.17708 0.84176 0.0
H700 H 0.10565 0.12031 0.81498 0.0
N701 N 0.05019 0.1066 0.81607 0.0
N702 N 0.04734 0.07024 0.81549 0.0
C703 C 0.04949 0.08857 0.79811 0.0
C704 C 0.04862 0.09947 0.84565 0.0
C705 C 0.0468 0.07714 0.84539 0.0
C706 C 1.00713 0.14463 0.82991 0.0
O707 O 1.00211 0.12438 0.82258 0.0
H708 H 0.05035 0.08893 0.77289 0.0
H709 H 0.04891 0.10988 0.86601 0.0
O710 O 0.05714 0.13905 0.75969 0.0
H711 H 0.13564 0.14496 0.84713 0.0
H712 H 0.04566 0.06678 0.86576 0.0
Cu713 Cu 0.62104 0.31825 0.49425 0.0
N714 N 0.59458 0.33102 0.51325 0.0
N715 N 0.5686 0.34292 0.54875 0.0
C716 C 0.5886 0.33131 0.54374 0.0
C717 C 0.56173 0.35006 0.52046 0.0
C718 C 0.57769 0.34264 0.49866 0.0
O719 O 0.62612 0.28926 0.51136 0.0
C720 C 0.61538 0.33671 0.43526 0.0
O721 O 0.62083 0.35432 0.45112 0.0
H722 H 0.59877 0.32337 0.56184 0.0
H723 H 0.57688 0.34549 0.47383 0.0
N724 N 0.64759 0.33513 0.50383 0.0
N725 N 0.68506 0.34621 0.51078 0.0
C726 C 0.67072 0.33028 0.49973 0.0
C727 C 0.64721 0.35465 0.51796 0.0
C728 C 0.6702 0.36152 0.52227 0.0
C729 C 0.6092 0.27724 0.52104 0.0
O730 O 0.5872 0.28364 0.51687 0.0
H731 H 0.67681 0.31536 0.48895 0.0
H732 H 0.63128 0.36314 0.52507 0.0
O733 O 0.61552 0.3184 0.44928 0.0
H734 H 0.54599 0.35961 0.51583 0.0
H735 H 0.67548 0.37642 0.53381 0.0
H736 H 0.12738 0.38851 0.21039 0.0
H737 H 0.06625 0.3504 0.23731 0.0
H738 H 0.06628 0.33257 0.18634 0.0
H739 H 0.08394 0.3275 0.1345 0.0
H740 H 0.1441 0.36698 0.10714 0.0
H741 H 0.1443 0.38414 0.15804 0.0
C742 C 0.11404 0.37631 0.20515 0.0
C743 C 0.09687 0.3708 0.22773 0.0
C744 C 0.11406 0.36619 0.17573 0.0
C745 C 0.07966 0.35502 0.22039 0.0
C746 C 0.07969 0.34476 0.19124 0.0
C747 C 0.09702 0.33997 0.13935 0.0
C748 C 0.11403 0.34567 0.11652 0.0
C749 C 0.09683 0.3502 0.16873 0.0
C750 C 0.13094 0.36178 0.12394 0.0
C751 C 0.13101 0.37183 0.15318 0.0
H752 H 0.9024 0.87835 0.3222 0.0
H753 H 0.97855 0.8714 0.32753 0.0
H754 H 0.97511 0.85837 0.38103 0.0
H755 H 0.95052 0.8473 0.42553 0.0
H756 H 0.87454 0.85444 0.42128 0.0
H757 H 0.87784 0.86937 0.36839 0.0
C758 C 0.91824 0.87408 0.33512 0.0
C759 C 0.9407 0.87569 0.32068 0.0
C760 C 0.91617 0.86665 0.3661 0.0
C761 C 0.96105 0.8703 0.33793 0.0
C762 C 0.95911 0.86279 0.36857 0.0
C763 C 0.93469 0.85215 0.41301 0.0
C764 C 0.9123 0.84957 0.42714 0.0
C765 C 0.93677 0.86064 0.38273 0.0
C766 C 0.89197 0.85636 0.41094 0.0
C767 C 0.89386 0.86475 0.38064 0.0
H768 H 0.38239 0.64772 0.70513 0.0
H769 H 0.45304 0.67058 0.72624 0.0
H770 H 0.45585 0.68735 0.67469 0.0
H771 H 0.4381 0.69578 0.62369 0.0
H772 H 0.36698 0.67361 0.60363 0.0
H773 H 0.36474 0.65611 0.6544 0.0
C774 C 0.39844 0.65633 0.6985 0.0
C775 C 0.41745 0.65788 0.71963 0.0
C776 C 0.39992 0.66602 0.66887 0.0
C777 C 0.4381 0.66913 0.71052 0.0
C778 C 0.43974 0.67874 0.681 0.0
C779 C 0.42205 0.68725 0.63045 0.0
C780 C 0.4028 0.68605 0.60956 0.0
C781 C 0.42071 0.67738 0.66002 0.0
C782 C 0.38227 0.6746 0.61876 0.0
C783 C 0.38087 0.66468 0.64801 0.0
H784 H 0.64565 0.1514 0.80458 0.0
H785 H 0.57045 0.16148 0.79202 0.0
H786 H 0.56752 0.17684 0.84446 0.0
H787 H 0.58626 0.18711 0.89408 0.0
H788 H 0.66158 0.17757 0.90601 0.0
H789 H 0.66441 0.1621 0.85379 0.0
C790 C 0.6286 0.15694 0.81326 0.0
C791 C 0.60831 0.15526 0.79433 0.0
C792 C 0.62703 0.1658 0.84343 0.0
C793 C 0.58637 0.16257 0.80604 0.0
C794 C 0.58467 0.17136 0.83606 0.0
C795 C 0.60334 0.18185 0.88519 0.0
C796 C 0.62365 0.18348 0.90415 0.0
C797 C 0.60489 0.17307 0.85496 0.0
C798 C 0.64557 0.17625 0.89226 0.0
C799 C 0.64725 0.1675 0.86226 0.0
H800 H 0.07845 0.63208 0.35067 0.0
H801 H 0.09866 0.68722 0.29414 0.0
H802 H 0.10719 0.70837 0.34097 0.0
H803 H 0.10923 0.71125 0.398 0.0
H804 H 0.0915 0.65582 0.45492 0.0
H805 H 0.08176 0.63466 0.40808 0.0
C806 C 0.08468 0.64874 0.34866 0.0
C807 C 0.08784 0.65808 0.31897 0.0
C808 C 0.09001 0.66073 0.37576 0.0
C809 C 0.09617 0.6796 0.3167 0.0
C810 C 0.101 0.69175 0.34347 0.0
C811 C 0.10304 0.6946 0.40007 0.0
C812 C 0.10083 0.68512 0.42976 0.0
C813 C 0.09799 0.68249 0.3731 0.0
C814 C 0.09333 0.66338 0.43222 0.0
C815 C 0.08773 0.65134 0.40549 0.0
H816 H 0.59388 0.82671 0.62488 0.0
H817 H 0.65977 0.85829 0.60054 0.0
H818 H 0.6593 0.87806 0.65006 0.0
H819 H 0.64095 0.88526 0.70117 0.0
H820 H 0.57498 0.85355 0.72538 0.0
H821 H 0.57481 0.83484 0.67513 0.0
C822 C 0.60819 0.83784 0.63047 0.0
C823 C 0.62691 0.8409 0.60908 0.0
C824 C 0.60783 0.84908 0.65902 0.0
C825 C 0.64506 0.85576 0.61642 0.0
C826 C 0.64487 0.86696 0.64484 0.0
C827 C 0.62649 0.87429 0.69546 0.0
C828 C 0.60808 0.87073 0.71717 0.0
C829 C 0.62646 0.8636 0.66644 0.0
C830 C 0.5894 0.85659 0.7092 0.0
C831 C 0.5893 0.84585 0.68045 0.0
H832 H 0.43787 0.33462 0.89173 0.0
H833 H 0.36405 0.35095 0.90523 0.0
H834 H 0.36302 0.36818 0.85414 0.0
H835 H 0.38278 0.37839 0.8054 0.0
H836 H 0.45634 0.36152 0.79086 0.0
H837 H 0.45766 0.34455 0.84241 0.0
C838 C 0.4215 0.34176 0.88342 0.0
C839 C 0.40111 0.34151 0.90254 0.0
C840 C 0.42095 0.35156 0.85377 0.0
C841 C 0.38014 0.35116 0.8914 0.0
C842 C 0.37947 0.36093 0.86202 0.0
C843 C 0.39914 0.37105 0.81346 0.0
C844 C 0.41943 0.37127 0.79423 0.0
C845 C 0.39976 0.36125 0.84303 0.0
C846 C 0.44044 0.3616 0.80513 0.0
C847 C 0.44121 0.35188 0.83463 0.0
H848 H 0.94117 0.18251 0.13109 0.0
H849 H 0.86742 0.16979 0.11073 0.0
H850 H 0.86239 0.15271 0.16149 0.0
H851 H 0.87837 0.14239 0.21245 0.0
H852 H 0.95174 0.15596 0.23389 0.0
H853 H 0.95733 0.17186 0.18214 0.0
C854 C 0.92396 0.17613 0.13777 0.0
C855 C 0.90476 0.17749 0.11685 0.0
C856 C 0.92105 0.16652 0.16733 0.0
C857 C 0.88267 0.16877 0.12592 0.0
C858 C 0.87969 0.1591 0.15515 0.0
C859 C 0.89563 0.14874 0.20582 0.0
C860 C 0.91458 0.14799 0.22713 0.0
C861 C 0.8987 0.15799 0.17611 0.0
C862 C 0.93681 0.15633 0.21803 0.0
C863 C 0.94003 0.16545 0.18841 0.0
H864 H 0.92663 0.69034 0.82661 0.0
H865 H 0.98902 0.6517 0.84462 0.0
H866 H 0.9853 0.65927 0.90049 0.0
H867 H 0.96397 0.67641 0.94431 0.0
H868 H 0.90041 0.71344 0.92638 0.0
H869 H 0.90502 0.70702 0.87037 0.0
C870 C 0.9395 0.68362 0.84271 0.0
C871 C 0.95816 0.67052 0.83134 0.0
C872 C 0.93704 0.68777 0.87483 0.0
C873 C 0.97449 0.6618 0.85266 0.0
C874 C 0.97239 0.66615 0.88463 0.0
C875 C 0.95121 0.68322 0.92814 0.0
C876 C 0.93193 0.69553 0.93957 0.0
C877 C 0.9537 0.67908 0.89599 0.0
C878 C 0.9154 0.70394 0.91827 0.0
C879 C 0.91803 0.70026 0.88622 0.0
H880 H 0.10103 0.14798 0.60981 0.0
H881 H 0.09784 0.21808 0.61397 0.0
H882 H 0.08145 0.21604 0.66692 0.0
H883 H 0.06911 0.19422 0.71263 0.0
H884 H 0.07135 0.12407 0.70717 0.0
H885 H 0.08683 0.12629 0.65406 0.0
C886 C 0.0968 0.16285 0.62227 0.0
C887 C 0.10091 0.18318 0.60801 0.0
C888 C 0.08712 0.16153 0.65248 0.0
C889 C 0.09494 0.20223 0.62439 0.0
C890 C 0.08558 0.20106 0.65469 0.0
C891 C 0.07284 0.17941 0.69977 0.0
C892 C 0.06914 0.15899 0.71407 0.0
C893 C 0.08172 0.18079 0.66905 0.0
C894 C 0.07396 0.13999 0.69688 0.0
C895 C 0.08292 0.14124 0.66649 0.0
H896 H 0.60176 0.37371 0.40598 0.0
H897 H 0.60811 0.3044 0.39199 0.0
H898 H 0.59204 0.3082 0.33922 0.0
H899 H 0.57629 0.33134 0.29703 0.0
H900 H 0.5691 0.40052 0.31223 0.0
H901 H 0.5852 0.39655 0.36468 0.0
C902 C 0.59979 0.3594 0.39138 0.0
C903 C 0.60635 0.3388 0.40289 0.0
C904 C 0.59021 0.36168 0.36133 0.0
C905 C 0.60331 0.32045 0.38371 0.0
C906 C 0.59407 0.32262 0.35355 0.0
C907 C 0.57815 0.34556 0.31184 0.0
C908 C 0.57149 0.36623 0.30056 0.0
C909 C 0.58743 0.34316 0.34212 0.0
C910 C 0.57399 0.38442 0.3202 0.0
C911 C 0.5833 0.38218 0.35022 0.0
H912 H 0.45064 0.83264 0.21075 0.0
H913 H 0.46031 0.90172 0.19718 0.0
H914 H 0.44631 0.89838 0.14355 0.0
H915 H 0.43078 0.87609 0.10068 0.0
H916 H 0.42167 0.8069 0.11349 0.0
H917 H 0.43593 0.81009 0.1672 0.0
C918 C 0.44978 0.84698 0.19606 0.0
C919 C 0.45653 0.86743 0.20817 0.0
C920 C 0.4417 0.84494 0.16509 0.0
C921 C 0.4553 0.88578 0.18863 0.0
C922 C 0.44722 0.88389 0.15791 0.0
C923 C 0.43184 0.86166 0.11518 0.0
C924 C 0.425 0.84128 0.10299 0.0
C925 C 0.44025 0.86359 0.14595 0.0
C926 C 0.42675 0.8228 0.12217 0.0
C927 C 0.43493 0.82462 0.15293 0.0
H928 H 0.95465 0.32468 0.70582 0.0
H929 H 0.97241 0.39195 0.68802 0.0
H930 H 0.96057 0.38772 0.63362 0.0
H931 H 0.94303 0.36567 0.59189 0.0
H932 H 0.92453 0.29859 0.60958 0.0
H933 H 0.93899 0.30201 0.66311 0.0
C934 C 0.95613 0.3384 0.69001 0.0
C935 C 0.96432 0.35866 0.70118 0.0
C936 C 0.94907 0.33592 0.65871 0.0
C937 C 0.96613 0.37619 0.68022 0.0
C938 C 0.95932 0.3738 0.64905 0.0
C939 C 0.94231 0.3517 0.60732 0.0
C940 C 0.93254 0.33192 0.59665 0.0
C941 C 0.95043 0.35384 0.63817 0.0
C942 C 0.93189 0.31402 0.61708 0.0
C943 C 0.94011 0.31598 0.64776 0.0
H944 H 0.41352 0.16445 0.31825 0.0
H945 H 0.48922 0.15627 0.32814 0.0
H946 H 0.48699 0.17016 0.38158 0.0
H947 H 0.4635 0.18441 0.42564 0.0
H948 H 0.38787 0.19293 0.41526 0.0
H949 H 0.39021 0.17927 0.36181 0.0
C950 C 0.42957 0.16562 0.33206 0.0
C951 C 0.45152 0.15919 0.31911 0.0
C952 C 0.42819 0.1738 0.36269 0.0
C953 C 0.47209 0.16104 0.33742 0.0
C954 C 0.47083 0.16901 0.36801 0.0
C955 C 0.44751 0.18338 0.41169 0.0
C956 C 0.42551 0.18972 0.42461 0.0
C957 C 0.44897 0.17545 0.3809 0.0
C958 C 0.40504 0.18823 0.40604 0.0
C959 C 0.40635 0.18035 0.37544 0.0
H960 H 0.59012 0.68842 0.2149 0.0
H961 H 0.53154 0.64658 0.19007 0.0
H962 H 0.53741 0.65554 0.13492 0.0
H963 H 0.55949 0.67496 0.09376 0.0
H964 H 0.61956 0.715 0.11851 0.0
H965 H 0.61275 0.70709 0.17376 0.0
C966 C 0.57855 0.68131 0.19745 0.0
C967 C 0.5603 0.66694 0.20665 0.0
C968 C 0.58231 0.68623 0.16579 0.0
C969 C 0.5457 0.65767 0.18366 0.0
C970 C 0.54904 0.66282 0.15212 0.0
C971 C 0.571 0.68209 0.11126 0.0
C972 C 0.58991 0.69571 0.10202 0.0
C973 C 0.5673 0.67706 0.14292 0.0
C974 C 0.60488 0.7045 0.12497 0.0
C975 C 0.60099 0.69998 0.15656 0.0
H976 H 0.11191 0.86398 0.83496 0.0
H977 H 0.03692 0.87683 0.84437 0.0
H978 H 0.03834 0.86549 0.89907 0.0
H979 H 0.06103 0.85236 0.94444 0.0
H980 H 0.13597 0.83929 0.93438 0.0
H981 H 0.1343 0.85015 0.87969 0.0
C982 C 0.09583 0.86438 0.84892 0.0
C983 C 0.07434 0.87139 0.83549 0.0
C984 C 0.09675 0.8577 0.88027 0.0
C985 C 0.05371 0.87157 0.85402 0.0
C986 C 0.05451 0.86507 0.88533 0.0
C987 C 0.077 0.85177 0.93028 0.0
C988 C 0.09862 0.845 0.94368 0.0
C989 C 0.07594 0.85812 0.89873 0.0
C990 C 0.11908 0.84438 0.92484 0.0
C991 C 0.11816 0.85065 0.89351 0.0
H992 H 0.13926 0.32176 0.41033 0.0
H993 H 0.06349 0.32951 0.39988 0.0
H994 H 0.05661 0.29924 0.43517 0.0
H995 H 0.07188 0.26909 0.46708 0.0
H996 H 0.14758 0.26018 0.47551 0.0
H997 H 0.15455 0.29206 0.44281 0.0
C998 C 0.12122 0.31684 0.41558 0.0
C999 C 0.10203 0.32814 0.40214 0.0
C1000 C 0.11729 0.299 0.43555 0.0
C1001 C 0.07876 0.32155 0.40991 0.0
C1002 C 0.07474 0.30401 0.43004 0.0
C1003 C 0.08991 0.27421 0.462 0.0
C1004 C 0.10915 0.26216 0.47377 0.0
C1005 C 0.09384 0.29246 0.44275 0.0
C1006 C 0.1324 0.26904 0.46673 0.0
C1007 C 0.13642 0.28731 0.44798 0.0
H1008 H 0.95698 0.82137 0.61475 0.0
H1009 H 0.90987 0.8765 0.60873 0.0
H1010 H 0.93212 0.89495 0.65009 0.0
H1011 H 0.96609 0.89596 0.68642 0.0
H1012 H 0.01256 0.84025 0.69235 0.0
H1013 H 0.98926 0.82148 0.65282 0.0
C1014 C 0.95155 0.83744 0.62244 0.0
C1015 C 0.93194 0.84764 0.60839 0.0
C1016 C 0.96428 0.84784 0.64632 0.0
C1017 C 0.92495 0.86831 0.61905 0.0
C1018 C 0.93768 0.87887 0.64269 0.0
C1019 C 0.971 0.87963 0.6793 0.0
C1020 C 0.99118 0.86963 0.69235 0.0
C1021 C 0.95752 0.86886 0.65632 0.0
C1022 C 0.99718 0.84842 0.6828 0.0
C1023 C 0.9839 0.83765 0.66005 0.0
H1024 H 0.36628 0.74212 0.97916 0.0
H1025 H 0.437 0.76562 0.95948 0.0
H1026 H 0.44262 0.73647 0.92135 0.0
H1027 H 0.42646 0.7057 0.8911 0.0
H1028 H 0.35561 0.68261 0.91084 0.0
H1029 H 0.35103 0.7103 0.95111 0.0
C1030 C 0.38304 0.74078 0.9668 0.0
C1031 C 0.40114 0.75615 0.97221 0.0
C1032 C 0.38605 0.72416 0.94457 0.0
C1033 C 0.42272 0.75407 0.95586 0.0
C1034 C 0.42594 0.73742 0.93393 0.0
C1035 C 0.41014 0.7065 0.90447 0.0
C1036 C 0.39133 0.69212 0.89759 0.0
C1037 C 0.40758 0.72257 0.92772 0.0
C1038 C 0.37023 0.69366 0.91509 0.0
C1039 C 0.36763 0.70944 0.93832 0.0
H1040 H 0.60829 0.18962 0.1408 0.0
H1041 H 0.59302 0.15225 0.05785 0.0
H1042 H 0.55775 0.1371 0.08276 0.0
H1043 H 0.52999 0.13589 0.12675 0.0
H1044 H 0.54467 0.17317 0.20987 0.0
H1045 H 0.58139 0.18683 0.18624 0.0
C1046 C 0.59741 0.17797 0.12828 0.0
C1047 C 0.60335 0.1722 0.09737 0.0
C1048 C 0.5769 0.16941 0.14267 0.0
C1049 C 0.58894 0.15708 0.08157 0.0
C1050 C 0.56868 0.14843 0.09578 0.0
C1051 C 0.54123 0.14695 0.13982 0.0
C1052 C 0.53442 0.15361 0.16999 0.0
C1053 C 0.56227 0.15474 0.1261 0.0
C1054 C 0.54939 0.16779 0.1866 0.0
C1055 C 0.5704 0.17564 0.17307 0.0
H1056 H 0.10936 0.69689 0.10528 0.0
H1057 H 0.12035 0.71926 0.19946 0.0
H1058 H 0.12265 0.75688 0.1811 0.0
H1059 H 0.12208 0.78335 0.13826 0.0
H1060 H 0.11018 0.76126 0.04398 0.0
H1061 H 0.10761 0.72364 0.06236 0.0
C1062 C 0.11246 0.71 0.1217 0.0
C1063 C 0.11486 0.70527 0.15369 0.0
C1064 C 0.11348 0.73164 0.11097 0.0
C1065 C 0.11836 0.72248 0.17478 0.0
C1066 C 0.11972 0.74398 0.16427 0.0
C1067 C 0.11884 0.77034 0.12168 0.0
C1068 C 0.11642 0.77518 0.08973 0.0
C1069 C 0.11733 0.74876 0.13242 0.0
C1070 C 0.11208 0.75806 0.06869 0.0
C1071 C 0.1107 0.73651 0.07918 0.0
H1072 H 0.52189 0.87399 0.40048 0.0
H1073 H 0.54366 0.85333 0.30854 0.0
H1074 H 0.5811 0.83965 0.32994 0.0
H1075 H 0.60754 0.83338 0.37515 0.0
H1076 H 0.5852 0.85501 0.46654 0.0
H1077 H 0.54824 0.86862 0.44482 0.0
C1078 C 0.53473 0.86641 0.38503 0.0
C1079 C 0.52984 0.86458 0.35294 0.0
C1080 C 0.55625 0.85887 0.3974 0.0
C1081 C 0.54689 0.85491 0.33334 0.0
C1082 C 0.56833 0.84712 0.34557 0.0
C1083 C 0.59466 0.8412 0.39028 0.0
C1084 C 0.59926 0.84311 0.42252 0.0
C1085 C 0.57323 0.84903 0.37761 0.0
C1086 C 0.58227 0.85327 0.4417 0.0
C1087 C 0.56103 0.86104 0.42931 0.0
H1088 H 0.36979 0.28779 0.53758 0.0
H1089 H 0.43753 0.26042 0.56314 0.0
H1090 H 0.44381 0.29007 0.6003 0.0
H1091 H 0.42866 0.32229 0.62836 0.0
H1092 H 0.36073 0.34917 0.60264 0.0
H1093 H 0.35589 0.32107 0.5631 0.0
C1094 C 0.38609 0.2884 0.55097 0.0
C1095 C 0.4031 0.27179 0.54757 0.0
C1096 C 0.38942 0.30528 0.57268 0.0
C1097 C 0.4241 0.27295 0.56521 0.0
C1098 C 0.42767 0.28986 0.58661 0.0
C1099 C 0.41294 0.32221 0.61385 0.0
C1100 C 0.39496 0.33778 0.61889 0.0
C1101 C 0.41024 0.30591 0.59098 0.0
C1102 C 0.37464 0.3372 0.59989 0.0
C1103 C 0.37191 0.32119 0.57704 0.0
H1104 H 0.96431 0.13195 0.85431 0.0
H1105 H 0.01444 0.18524 0.85389 0.0
H1106 H 0.99125 0.20396 0.89368 0.0
H1107 H 0.95829 0.20436 0.93085 0.0
H1108 H 0.90751 0.15175 0.93156 0.0
H1109 H 0.92939 0.13365 0.88934 0.0
C1110 C 0.97003 0.14777 0.86265 0.0
C1111 C 0.99125 0.15705 0.85117 0.0
C1112 C 0.95663 0.15849 0.88581 0.0
C1113 C 0.99828 0.17763 0.86224 0.0
C1114 C 0.98506 0.18835 0.88515 0.0
C1115 C 0.95196 0.18892 0.9218 0.0
C1116 C 0.93148 0.17926 0.93464 0.0
C1117 C 0.96449 0.17875 0.8975 0.0
C1118 C 0.92329 0.15947 0.92219 0.0
C1119 C 0.93581 0.14912 0.89808 0.0
H1120 H 0.93477 0.7109 0.68556 0.0
H1121 H 0.88444 0.66313 0.65292 0.0
H1122 H 0.86882 0.68924 0.61528 0.0
H1123 H 0.87013 0.72541 0.59071 0.0
H1124 H 0.921 0.77288 0.62291 0.0
H1125 H 0.93566 0.74718 0.66165 0.0
C1126 C 0.9205 0.70614 0.67008 0.0
C1127 C 0.9109 0.68503 0.67199 0.0
C1128 C 0.91165 0.72122 0.64842 0.0
C1129 C 0.89204 0.67931 0.65217 0.0
C1130 C 0.88318 0.6942 0.63049 0.0
C1131 C 0.88448 0.73009 0.60612 0.0
C1132 C 0.89443 0.75107 0.60382 0.0
C1133 C 0.89295 0.71516 0.62828 0.0
C1134 C 0.91278 0.75698 0.62436 0.0
C1135 C 0.92131 0.74222 0.6464 0.0
H1136 H 0.99936 0.1776 0.35051 0.0
H1137 H 0.97848 0.11472 0.38643 0.0
H1138 H 1.00976 0.11662 0.4254 0.0
H1139 H 0.04178 0.13651 0.45053 0.0
H1140 H 0.06394 0.19892 0.41431 0.0
H1141 H 0.03303 0.19695 0.37464 0.0
C1142 C 1.00176 0.16424 0.36671 0.0
C1143 C 0.98651 0.14607 0.36552 0.0
C1144 C 0.01981 0.16543 0.38926 0.0
C1145 C 0.9899 0.12891 0.38675 0.0
C1146 C 1.00777 0.13 0.40915 0.0
C1147 C 0.04025 0.1496 0.43378 0.0
C1148 C 0.05537 0.16783 0.43564 0.0
C1149 C 0.02267 0.14824 0.41077 0.0
C1150 C 0.05249 0.18478 0.41389 0.0
C1151 C 0.03487 0.18361 0.39098 0.0
H1152 H 0.64854 0.30155 0.06081 0.0
H1153 H 0.60453 0.25297 0.10514 0.0
H1154 H 0.58656 0.28097 0.13804 0.0
H1155 H 0.58522 0.31911 0.15659 0.0
H1156 H 0.63084 0.36687 0.11356 0.0
H1157 H 0.6466 0.3393 0.07817 0.0
C1158 C 0.63515 0.29697 0.07778 0.0
C1159 C 0.62811 0.27508 0.08054 0.0
C1160 C 0.62527 0.31305 0.09706 0.0
C1161 C 0.61024 0.26967 0.10222 0.0
C1162 C 0.60004 0.28567 0.12124 0.0
C1163 C 0.59839 0.32345 0.13919 0.0
C1164 C 0.60699 0.34494 0.1378 0.0
C1165 C 0.60764 0.30739 0.11914 0.0
C1166 C 0.62422 0.35037 0.11535 0.0
C1167 C 0.63317 0.33464 0.09505 0.0
H1168 H 0.4681 0.88812 0.92973 0.0
H1169 H 0.46479 0.81828 0.91905 0.0
H1170 H 0.49451 0.81998 0.87781 0.0
H1171 H 0.52217 0.84111 0.84553 0.0
H1172 H 0.52535 0.91096 0.85592 0.0
H1173 H 0.49439 0.90943 0.89584 0.0
C1174 C 0.4736 0.87327 0.9182 0.0
C1175 C 0.46418 0.8531 0.92782 0.0
C1176 C 0.49057 0.87436 0.89418 0.0
C1177 C 0.47193 0.83402 0.91273 0.0
C1178 C 0.48883 0.83498 0.88886 0.0
C1179 C 0.51588 0.85605 0.85619 0.0
C1180 C 0.52608 0.87612 0.84769 0.0
C1181 C 0.49834 0.85504 0.87949 0.0
C1182 C 0.51782 0.89529 0.86199 0.0
C1183 C 0.50018 0.89443 0.88493 0.0
H1184 H 0.8762 0.30253 0.94804 0.0
H1185 H 0.93129 0.25629 0.92621 0.0
H1186 H 0.94738 0.28093 0.88667 0.0
H1187 H 0.94551 0.3157 0.85778 0.0
H1188 H 0.88974 0.36134 0.87903 0.0
H1189 H 0.87433 0.33707 0.91939 0.0
C1190 C 0.89183 0.29794 0.93479 0.0
C1191 C 0.9025 0.27761 0.94008 0.0
C1192 C 0.90088 0.31213 0.91196 0.0
C1193 C 0.92255 0.27173 0.92235 0.0
C1194 C 0.93185 0.28588 0.89986 0.0
C1195 C 0.93013 0.32034 0.87149 0.0
C1196 C 0.91877 0.34026 0.86543 0.0
C1197 C 0.92114 0.30612 0.89441 0.0
C1198 C 0.89863 0.346 0.88304 0.0
C1199 C 0.88986 0.33216 0.90619 0.0
H1200 H 0.51565 0.17811 0.68099 0.0
H1201 H 0.53227 0.11328 0.64873 0.0
H1202 H 0.50053 0.11549 0.61026 0.0
H1203 H 0.47011 0.13678 0.58331 0.0
H1204 H 0.45328 0.20148 0.61588 0.0
H1205 H 0.48334 0.19843 0.65633 0.0
C1206 C 0.51217 0.16434 0.66583 0.0
C1207 C 0.52644 0.14562 0.66767 0.0
C1208 C 0.49409 0.1658 0.64345 0.0
C1209 C 0.52162 0.12794 0.6478 0.0
C1210 C 0.50352 0.1292 0.62568 0.0
C1211 C 0.4727 0.15011 0.59948 0.0
C1212 C 0.45952 0.16942 0.59615 0.0
C1213 C 0.48994 0.14821 0.62291 0.0
C1214 C 0.46344 0.18659 0.61729 0.0
C1215 C 0.48054 0.18481 0.64067 0.0
H1216 H 0.65987 0.7205 0.4305 0.0
H1217 H 0.59523 0.75822 0.42915 0.0
H1218 H 0.57735 0.73205 0.39361 0.0
H1219 H 0.58009 0.69877 0.36257 0.0
H1220 H 0.64388 0.65994 0.36606 0.0
H1221 H 0.66199 0.68633 0.40119 0.0
C1222 C 0.64177 0.72294 0.42285 0.0
C1223 C 0.62905 0.74149 0.43262 0.0
C1224 C 0.63142 0.70765 0.40266 0.0
C1225 C 0.6057 0.74439 0.42181 0.0
C1226 C 0.59535 0.72932 0.40156 0.0
C1227 C 0.59782 0.6958 0.37125 0.0
C1228 C 0.61052 0.67725 0.36146 0.0
C1229 C 0.60806 0.71092 0.3918 0.0
C1230 C 0.63371 0.67413 0.37271 0.0
C1231 C 0.64407 0.68918 0.393 0.0
H1232 H 0.04812 0.84779 0.1106 0.0
H1233 H 0.07987 0.91164 0.11592 0.0
H1234 H 0.04996 0.92293 0.15368 0.0
H1235 H 0.01353 0.91543 0.18311 0.0
H1236 H 0.9816 0.85161 0.17814 0.0
H1237 H 0.01304 0.8395 0.14292 0.0
C1238 C 0.04871 0.86406 0.12035 0.0
C1239 C 0.06608 0.8789 0.11001 0.0
C1240 C 0.03137 0.8705 0.14216 0.0
C1241 C 0.06643 0.9 0.12284 0.0
C1242 C 0.04939 0.90646 0.14462 0.0
C1243 C 0.01354 0.89881 0.17458 0.0
C1244 C 0.99511 0.88454 0.18316 0.0
C1245 C 0.03155 0.89198 0.15407 0.0
C1246 C 0.99551 0.863 0.17191 0.0
C1247 C 0.01347 0.85605 0.15166 0.0
H1248 H 0.57581 0.77519 0.96251 0.0
H1249 H 0.65091 0.76751 0.97896 0.0
H1250 H 0.65943 0.79809 0.94445 0.0
H1251 H 0.64582 0.8258 0.90732 0.0
H1252 H 0.57082 0.83258 0.88943 0.0
H1253 H 0.56212 0.80397 0.92698 0.0
C1254 C 0.59403 0.78036 0.95886 0.0
C1255 C 0.61266 0.76894 0.97327 0.0
C1256 C 0.59889 0.79784 0.93857 0.0
C1257 C 0.63617 0.77588 0.96812 0.0
C1258 C 0.6411 0.79338 0.9483 0.0
C1259 C 0.62758 0.82102 0.91157 0.0
C1260 C 0.6091 0.83143 0.89535 0.0
C1261 C 0.62264 0.80424 0.93297 0.0
C1262 C 0.5855 0.82518 0.90168 0.0
C1263 C 0.58045 0.80863 0.92308 0.0
H1264 H 0.49232 0.39246 0.11759 0.0
H1265 H 0.48506 0.35245 0.19976 0.0
H1266 H 0.44861 0.33649 0.1786 0.0
H1267 H 0.41975 0.33281 0.13549 0.0
H1268 H 0.42772 0.37316 0.05362 0.0
H1269 H 0.46279 0.39015 0.07613 0.0
C1270 C 0.48279 0.38027 0.13098 0.0
C1271 C 0.49156 0.37355 0.16014 0.0
C1272 C 0.46189 0.37123 0.11872 0.0
C1273 C 0.47877 0.35789 0.17723 0.0
C1274 C 0.45792 0.34875 0.16512 0.0
C1275 C 0.429 0.34549 0.12271 0.0
C1276 C 0.42107 0.35158 0.09278 0.0
C1277 C 0.44942 0.35515 0.13572 0.0
C1278 C 0.43338 0.36803 0.0766 0.0
C1279 C 0.45352 0.37776 0.08943 0.0
H1280 H 0.87307 0.25936 0.45615 0.0
H1281 H 0.94103 0.23919 0.49223 0.0
H1282 H 0.94078 0.20758 0.4577 0.0
H1283 H 0.92175 0.18605 0.41643 0.0
H1284 H 0.8545 0.20705 0.37898 0.0
H1285 H 0.85393 0.23765 0.41509 0.0
C1286 C 0.88775 0.24797 0.45667 0.0
C1287 C 0.90703 0.25171 0.47684 0.0
C1288 C 0.88766 0.22991 0.43643 0.0
C1289 C 0.92595 0.23679 0.47698 0.0
C1290 C 0.92585 0.21868 0.45717 0.0
C1291 C 0.90703 0.19736 0.4159 0.0
C1292 C 0.88821 0.19406 0.39478 0.0
C1293 C 0.90691 0.21518 0.43657 0.0
C1294 C 0.86912 0.20885 0.39507 0.0
C1295 C 0.86882 0.22651 0.41567 0.0
H1296 H 0.06634 0.70992 0.60788 0.0
H1297 H 0.11895 0.65899 0.61042 0.0
H1298 H 0.09732 0.64114 0.65296 0.0
H1299 H 0.06251 0.63931 0.68802 0.0
H1300 H 1.01037 0.69076 0.68527 0.0
H1301 H 0.03292 0.70913 0.64445 0.0
C1302 C 0.07313 0.69491 0.61771 0.0
C1303 C 0.09414 0.68571 0.60573 0.0
C1304 C 0.06069 0.68484 0.64222 0.0
C1305 C 0.1028 0.6664 0.6191 0.0
C1306 C 0.09042 0.65618 0.64342 0.0
C1307 C 0.05617 0.65463 0.6787 0.0
C1308 C 0.03465 0.66353 0.68972 0.0
C1309 C 0.06922 0.66516 0.655 0.0
C1310 C 0.02681 0.68346 0.67733 0.0
C1311 C 0.03966 0.69398 0.65386 0.0
H1312 H 0.57779 0.25286 0.55431 0.0
H1313 H 0.65219 0.25759 0.53097 0.0
H1314 H 0.66087 0.22697 0.5655 0.0
H1315 H 0.64748 0.19965 0.60377 0.0
H1316 H 0.57315 0.19651 0.62853 0.0
H1317 H 0.56441 0.22539 0.59177 0.0
C1318 C 0.59589 0.24709 0.55649 0.0
C1319 C 0.61428 0.25756 0.54 0.0
C1320 C 0.60083 0.22971 0.57676 0.0
C1321 C 0.63766 0.24988 0.54336 0.0
C1322 C 0.64266 0.23238 0.56318 0.0
C1323 C 0.62938 0.2053 0.60129 0.0
C1324 C 0.61109 0.19566 0.6191 0.0
C1325 C 0.62442 0.22233 0.58031 0.0
C1326 C 0.58767 0.20317 0.61503 0.0
C1327 C 0.58261 0.21989 0.59405 0.0
H1328 H 0.03159 0.39162 0.89148 0.0
H1329 H 0.04342 0.34991 0.8119 0.0
H1330 H 0.07889 0.33499 0.83677 0.0
H1331 H 0.10559 0.33265 0.88224 0.0
H1332 H 0.09306 0.3743 0.96179 0.0
H1333 H 0.05902 0.39046 0.93562 0.0
C1334 C 0.04192 0.3793 0.87945 0.0
C1335 C 0.03469 0.37183 0.8499 0.0
C1336 C 0.06226 0.37078 0.8939 0.0
C1337 C 0.04848 0.35595 0.83468 0.0
C1338 C 0.06879 0.3474 0.8489 0.0
C1339 C 0.09559 0.34544 0.89373 0.0
C1340 C 0.10193 0.35217 0.92405 0.0
C1341 C 0.07575 0.35455 0.87865 0.0
C1342 C 0.08864 0.36871 0.93854 0.0
C1343 C 0.06908 0.37796 0.92362 0.0
H1344 H 0.86638 0.753 0.11915 0.0
H1345 H 0.92861 0.76848 0.06462 0.0
H1346 H 0.93215 0.8035 0.09173 0.0
H1347 H 0.91772 0.82949 0.13185 0.0
H1348 H 0.85469 0.81387 0.18462 0.0
H1349 H 0.85121 0.77922 0.15718 0.0
C1350 C 0.88075 0.76401 0.11315 0.0
C1351 C 0.89732 0.75804 0.09005 0.0
C1352 C 0.88249 0.78413 0.12853 0.0
C1353 C 0.91562 0.77266 0.0823 0.0
C1354 C 0.91767 0.79267 0.09786 0.0
C1355 C 0.90328 0.81845 0.13732 0.0
C1356 C 0.8865 0.82426 0.16031 0.0
C1357 C 0.90127 0.79853 0.12117 0.0
C1358 C 0.86768 0.80992 0.16685 0.0
C1359 C 0.86576 0.79004 0.15128 0.0
H1360 H 0.45667 0.70471 0.43083 0.0
H1361 H 0.39854 0.65957 0.41985 0.0
H1362 H 0.4191 0.64242 0.37579 0.0
H1363 H 0.45433 0.6396 0.34151 0.0
H1364 H 0.51193 0.6854 0.3529 0.0
H1365 H 0.49066 0.70304 0.39545 0.0
C1366 C 0.44846 0.69109 0.41889 0.0
C1367 C 0.4262 0.68329 0.42886 0.0
C1368 C 0.46025 0.68148 0.39351 0.0
C1369 C 0.41571 0.66583 0.41275 0.0
C1370 C 0.42746 0.65604 0.38754 0.0
C1371 C 0.46213 0.65357 0.35309 0.0
C1372 C 0.48479 0.66106 0.34398 0.0
C1373 C 0.44983 0.66365 0.37782 0.0
C1374 C 0.49458 0.67921 0.35933 0.0
C1375 C 0.48246 0.6893 0.3838 0.0
H1376 H 0.40387 0.17722 0.12451 0.0
H1377 H 0.4488 0.22005 0.17778 0.0
H1378 H 0.43702 0.25083 0.1448 0.0
H1379 H 0.41151 0.26583 0.10296 0.0
H1380 H 0.36698 0.22213 0.05014 0.0
H1381 H 0.38079 0.19149 0.08102 0.0
C1382 C 0.41105 0.19331 0.12895 0.0
C1383 C 0.42691 0.19644 0.1538 0.0
C1384 C 0.4041 0.21079 0.1101 0.0
C1385 C 0.43657 0.21725 0.15876 0.0
C1386 C 0.42973 0.23484 0.14002 0.0
C1387 C 0.40511 0.24957 0.09793 0.0
C1388 C 0.38792 0.24639 0.07452 0.0
C1389 C 0.41319 0.23186 0.11588 0.0
C1390 C 0.37976 0.22517 0.06844 0.0
C1391 C 0.38775 0.20757 0.08599 0.0
H1392 H 0.49373 0.69241 0.85928 0.0
H1393 H 0.49938 0.62244 0.85393 0.0
H1394 H 0.533 0.62321 0.88971 0.0
H1395 H 0.55935 0.64346 0.92442 0.0
H1396 H 0.55221 0.7132 0.93242 0.0
H1397 H 0.52099 0.71283 0.89318 0.0
C1398 C 0.5025 0.67736 0.86565 0.0
C1399 C 0.49403 0.6574 0.85402 0.0
C1400 C 0.52153 0.67786 0.88675 0.0
C1401 C 0.50547 0.63802 0.86268 0.0
C1402 C 0.52469 0.63843 0.88315 0.0
C1403 C 0.55093 0.65859 0.9178 0.0
C1404 C 0.55811 0.67828 0.93171 0.0
C1405 C 0.53259 0.65822 0.89574 0.0
C1406 C 0.54729 0.69779 0.92208 0.0
C1407 C 0.52926 0.69759 0.89973 0.0
H1408 H 0.12827 0.85537 0.64192 0.0
H1409 H 0.09167 0.81167 0.70433 0.0
H1410 H 0.10321 0.78065 0.67185 0.0
H1411 H 0.12398 0.76603 0.62587 0.0
H1412 H 0.1594 0.81029 0.56274 0.0
H1413 H 0.1485 0.84087 0.59574 0.0
C1414 C 0.12305 0.83904 0.64861 0.0
C1415 C 0.10923 0.83583 0.67558 0.0
C1416 C 0.12962 0.82134 0.62974 0.0
C1417 C 0.10217 0.81459 0.68356 0.0
C1418 C 0.10884 0.79685 0.66506 0.0
C1419 C 0.12916 0.78234 0.61909 0.0
C1420 C 0.14267 0.78565 0.59177 0.0
C1421 C 0.12252 0.80004 0.63802 0.0
C1422 C 0.1494 0.80703 0.58379 0.0
C1423 C 0.14302 0.82464 0.60259 0.0
H1424 H 0.94975 0.38205 0.42914 0.0
H1425 H 0.95136 0.31215 0.41964 0.0
H1426 H 0.98389 0.31504 0.38216 0.0
H1427 H 0.01263 0.3373 0.35328 0.0
H1428 H 0.01153 0.40721 0.36334 0.0
H1429 H 0.97768 0.40445 0.3989 0.0
C1430 C 0.957 0.36746 0.41859 0.0
C1431 C 0.94815 0.34691 0.42734 0.0
C1432 C 0.97574 0.36925 0.39705 0.0
C1433 C 0.95805 0.32815 0.41375 0.0
C1434 C 0.97656 0.32979 0.39213 0.0
C1435 C 1.00482 0.35197 0.36294 0.0
C1436 C 0.01459 0.37244 0.35561 0.0
C1437 C 0.98565 0.35024 0.38378 0.0
C1438 C 1.00437 0.39125 0.3686 0.0
C1439 C 0.98505 0.38968 0.389 0.0
H1440 H 0.44451 0.83105 0.37366 0.0
H1441 H 0.37637 0.86185 0.36114 0.0
H1442 H 0.35764 0.83422 0.3937 0.0
H1443 H 0.36055 0.80151 0.42636 0.0
H1444 H 0.42841 0.77028 0.43826 0.0
H1445 H 0.44716 0.79754 0.4048 0.0
C1446 C 0.42553 0.83161 0.37766 0.0
C1447 C 0.41198 0.84872 0.36504 0.0
C1448 C 0.41476 0.81552 0.39632 0.0
C1449 C 0.38739 0.84918 0.37092 0.0
C1450 C 0.37659 0.83328 0.38945 0.0
C1451 C 0.37946 0.80075 0.42177 0.0
C1452 C 0.39304 0.7839 0.43493 0.0
C1453 C 0.39013 0.81649 0.4025 0.0
C1454 C 0.41748 0.78293 0.42825 0.0
C1455 C 0.42824 0.7986 0.40922 0.0
H1456 H 0.01379 0.63181 0.18622 0.0
H1457 H 0.02232 0.70076 0.20208 0.0
H1458 H 0.9915 0.70845 0.16371 0.0
H1459 H 0.96534 0.69568 0.12178 0.0
H1460 H 0.95638 0.6266 0.10694 0.0
H1461 H 0.98438 0.61899 0.14849 0.0
C1462 C 1.00868 0.64852 0.18164 0.0
C1463 C 0.02055 0.66567 0.19675 0.0
C1464 C 0.99116 0.65285 0.15929 0.0
C1465 C 0.01352 0.68722 0.19076 0.0
C1466 C 0.99599 0.69165 0.16864 0.0
C1467 C 0.96912 0.67895 0.12788 0.0
C1468 C 0.95901 0.6618 0.11053 0.0
C1469 C 0.98516 0.6746 0.15214 0.0
C1470 C 0.96431 0.64021 0.11904 0.0
C1471 C 0.98024 0.63579 0.14307 0.0
H1472 H 0.16341 0.2382 0.92416 0.0
H1473 H 0.09294 0.25659 0.95334 0.0
H1474 H 0.07601 0.22765 0.92097 0.0
H1475 H 0.08149 0.19639 0.88563 0.0
H1476 H 0.15226 0.17878 0.85608 0.0
H1477 H 0.1688 0.20784 0.8879 0.0
C1478 C 0.14436 0.23577 0.92369 0.0
C1479 C 0.12949 0.24944 0.94138 0.0
C1480 C 0.13481 0.21914 0.90508 0.0
C1481 C 0.10478 0.24638 0.93984 0.0
C1482 C 0.09511 0.22977 0.92144 0.0
C1483 C 0.1005 0.19901 0.88582 0.0
C1484 C 0.11554 0.18516 0.86852 0.0
C1485 C 0.10998 0.21597 0.90405 0.0
C1486 C 0.1402 0.1888 0.86949 0.0
C1487 C 0.14972 0.20555 0.88758 0.0
H1488 H 0.54688 0.37956 0.56639 0.0
H1489 H 0.56244 0.31414 0.59581 0.0
H1490 H 0.53682 0.31879 0.64172 0.0
H1491 H 0.50702 0.34048 0.67045 0.0
H1492 H 0.49184 0.40605 0.64015 0.0
H1493 H 0.52039 0.40238 0.59777 0.0
C1494 C 0.54474 0.36641 0.58303 0.0
C1495 C 0.55619 0.34647 0.57765 0.0
C1496 C 0.52998 0.3692 0.60907 0.0
C1497 C 0.55378 0.32964 0.59959 0.0
C1498 C 0.53904 0.33227 0.62567 0.0
C1499 C 0.51019 0.35407 0.65483 0.0
C1500 C 0.49702 0.3734 0.65828 0.0
C1501 C 0.5266 0.35183 0.63025 0.0
C1502 C 0.50153 0.39091 0.63796 0.0
C1503 C 0.51783 0.38883 0.61361 0.0
H1504 H 0.11258 0.49388 0.32372 0.0
H1505 H 0.07823 0.46018 0.24775 0.0
H1506 H 0.07394 0.49433 0.21969 0.0
H1507 H 0.08008 0.53358 0.21622 0.0
H1508 H 0.11574 0.56761 0.29072 0.0
H1509 H 0.11926 0.53353 0.3198 0.0
C1510 C 0.10433 0.49392 0.30093 0.0
C1511 C 0.0957 0.47427 0.28808 0.0
C1512 C 0.1021 0.51373 0.2846 0.0
C1513 C 0.08473 0.4749 0.25863 0.0
C1514 C 0.0824 0.49448 0.24238 0.0
C1515 C 0.08891 0.53364 0.23861 0.0
C1516 C 0.09778 0.5533 0.25101 0.0
C1517 C 0.09106 0.51396 0.25507 0.0
C1518 C 0.10859 0.55288 0.28057 0.0
C1519 C 0.11072 0.53332 0.29718 0.0
H1520 H 0.80194 0.83162 0.4703 0.0
H1521 H 0.80935 0.83947 0.5699 0.0
H1522 H 0.76629 0.84037 0.57578 0.0
H1523 H 0.72656 0.83567 0.55333 0.0
H1524 H 0.71868 0.82888 0.45376 0.0
H1525 H 0.76181 0.8311 0.44714 0.0
C1526 C 0.79413 0.83377 0.49325 0.0
C1527 C 0.80891 0.83521 0.51965 0.0
C1528 C 0.76925 0.83437 0.4965 0.0
C1529 C 0.79847 0.83827 0.54917 0.0
C1530 C 0.7738 0.8387 0.55259 0.0
C1531 C 0.73427 0.83495 0.53013 0.0
C1532 C 0.71946 0.83189 0.50411 0.0
C1533 C 0.75903 0.83627 0.52653 0.0
C1534 C 0.72967 0.83126 0.47417 0.0
C1535 C 0.75436 0.83239 0.4704 0.0
H1536 H 0.42042 0.49757 0.69824 0.0
H1537 H 0.41819 0.45944 0.78264 0.0
H1538 H 0.41765 0.49274 0.81387 0.0
H1539 H 0.41699 0.53275 0.81714 0.0
H1540 H 0.41888 0.5708 0.73264 0.0
H1541 H 0.42039 0.5375 0.70152 0.0
C1542 C 0.41964 0.49652 0.72345 0.0
C1543 C 0.41921 0.47596 0.73802 0.0
C1544 C 0.41929 0.51575 0.74125 0.0
C1545 C 0.41873 0.47498 0.77079 0.0
C1546 C 0.41828 0.49404 0.78867 0.0
C1547 C 0.41757 0.53377 0.79192 0.0
C1548 C 0.41771 0.55431 0.77729 0.0
C1549 C 0.41841 0.51452 0.77415 0.0
C1550 C 0.41896 0.55527 0.74455 0.0
C1551 C 0.41969 0.53621 0.72672 0.0
H1552 H 0.79186 0.18578 0.96026 0.0
H1553 H 0.81932 0.19508 0.05327 0.0
H1554 H 0.77928 0.19299 0.07467 0.0
H1555 H 0.73616 0.19076 0.06693 0.0
H1556 H 0.70853 0.18093 0.97414 0.0
H1557 H 0.74878 0.18075 0.95299 0.0
C1558 C 0.78911 0.18721 0.98523 0.0
C1559 C 0.80866 0.19079 1.005 0.0
C1560 C 0.76592 0.18592 0.99754 0.0
C1561 C 0.80469 0.1924 0.03737 0.0
C1562 C 0.78174 0.19124 0.04971 0.0
C1563 C 0.73892 0.18834 0.04212 0.0
C1564 C 0.71923 0.18602 0.02222 0.0
C1565 C 0.76217 0.18832 0.03 0.0
C1566 C 0.72326 0.18278 0.99011 0.0
C1567 C 0.74633 0.18276 0.97791 0.0
H1568 H 0.97136 0.4914 0.82145 0.0
H1569 H 0.98974 0.46295 0.7324 0.0
H1570 H 0.99429 0.49913 0.71012 0.0
H1571 H 0.99144 0.53872 0.71511 0.0
H1572 H 0.97008 0.56703 0.80314 0.0
H1573 H 0.96843 0.53097 0.82641 0.0
C1574 C 0.97614 0.49293 0.79709 0.0
C1575 C 0.97995 0.47414 0.77876 0.0
C1576 C 0.97822 0.51387 0.78411 0.0
C1577 C 0.98678 0.47685 0.74737 0.0
C1578 C 0.98926 0.49765 0.73446 0.0
C1579 C 0.98619 0.53718 0.73931 0.0
C1580 C 0.9807 0.5559 0.75705 0.0
C1581 C 0.98473 0.51626 0.7525 0.0
C1582 C 0.97457 0.5532 0.78869 0.0
C1583 C 0.97347 0.53246 0.80208 0.0
H1584 H 0.29188 0.21409 0.56362 0.0
H1585 H 0.31301 0.18034 0.47975 0.0
H1586 H 0.27139 0.17357 0.46706 0.0
H1587 H 0.22911 0.17621 0.48073 0.0
H1588 H 0.20815 0.20903 0.56542 0.0
H1589 H 0.24966 0.21719 0.57688 0.0
C1590 C 0.28744 0.20511 0.54267 0.0
C1591 C 0.30563 0.19758 0.52282 0.0
C1592 C 0.2635 0.20109 0.5357 0.0
C1593 C 0.29943 0.18646 0.49535 0.0
C1594 C 0.27562 0.18245 0.48818 0.0
C1595 C 0.2336 0.18498 0.50183 0.0
C1596 C 0.21548 0.19185 0.5223 0.0
C1597 C 0.25753 0.1895 0.50836 0.0
C1598 C 0.22166 0.20368 0.54916 0.0
C1599 C 0.24542 0.20826 0.55581 0.0
H1600 H 0.53218 0.55799 0.23762 0.0
H1601 H 0.54716 0.53561 0.33085 0.0
H1602 H 0.55067 0.49833 0.31197 0.0
H1603 H 0.5505 0.47201 0.26868 0.0
H1604 H 0.53566 0.49438 0.17543 0.0
H1605 H 0.53136 0.53158 0.19447 0.0
C1606 C 0.53638 0.54498 0.25374 0.0
C1607 C 0.53933 0.54967 0.28562 0.0
C1608 C 0.53845 0.52349 0.2427 0.0
C1609 C 0.54446 0.53251 0.30627 0.0
C1610 C 0.54659 0.51114 0.29547 0.0
C1611 C 0.54604 0.48497 0.25261 0.0
C1612 C 0.54354 0.48036 0.22065 0.0
C1613 C 0.54363 0.50642 0.26373 0.0
C1614 C 0.53804 0.49747 0.20008 0.0
C1615 C 0.53549 0.51878 0.21096 0.0
H1616 H 0.23548 0.83846 0.07776 0.0
H1617 H 0.21018 0.82569 0.98451 0.0
H1618 H 0.25081 0.82077 0.96643 0.0
H1619 H 0.29349 0.82154 0.97639 0.0
H1620 H 0.31931 0.83601 0.06877 0.0
H1621 H 0.27847 0.83868 0.08792 0.0
C1622 C 0.2388 0.83475 0.05344 0.0
C1623 C 0.21962 0.83258 0.03256 0.0
C1624 C 0.26233 0.83223 0.04302 0.0
C1625 C 0.2244 0.82726 1.00125 0.0
C1626 C 0.24771 0.82457 0.9908 0.0
C1627 C 0.29026 0.82546 1.00068 0.0
C1628 C 0.30954 0.82883 0.021 0.0
C1629 C 0.26679 0.82727 1.01138 0.0
C1630 C 0.30489 0.83325 0.05261 0.0
C1631 C 0.28151 0.83491 0.06353 0.0
H1632 H 0.61475 0.99472 0.81583 0.0
H1633 H 0.61455 0.95717 0.73084 0.0
H1634 H 0.61584 0.99063 0.70004 0.0
H1635 H 0.61668 0.03065 0.69728 0.0
H1636 H 0.6162 0.06821 0.78226 0.0
H1637 H 0.61557 0.03474 0.81307 0.0
C1638 C 0.61521 0.99387 0.79058 0.0
C1639 C 0.6146 0.97345 0.77567 0.0
C1640 C 0.61578 1.0132 0.77303 0.0
C1641 C 0.61476 0.97265 0.74289 0.0
C1642 C 0.61562 0.99179 0.72527 0.0
C1643 C 0.61668 0.03149 0.72253 0.0
C1644 C 0.61655 0.05192 0.73744 0.0
C1645 C 0.6161 1.01216 0.74008 0.0
C1646 C 0.61609 0.05272 0.77022 0.0
C1647 C 0.61583 0.03358 0.78784 0.0
H1648 H 0.28726 0.34197 0.06475 0.0
H1649 H 0.31523 0.34388 0.97092 0.0
H1650 H 0.27507 0.34545 0.95003 0.0
H1651 H 0.23184 0.34321 0.95806 0.0
H1652 H 0.20385 0.34189 0.05189 0.0
H1653 H 0.244 0.34335 0.0729 0.0
C1654 C 0.2846 0.343 0.03974 0.0
C1655 C 0.30433 0.34258 0.01951 0.0
C1656 C 0.26135 0.34386 0.02776 0.0
C1657 C 0.30046 0.3441 0.98715 0.0
C1658 C 0.27744 0.34492 0.9751 0.0
C1659 C 0.2345 0.34349 0.9831 0.0
C1660 C 0.21477 0.34221 1.00327 0.0
C1661 C 0.25773 0.34433 0.99514 0.0
C1662 C 0.21862 0.34279 0.03571 0.0
C1663 C 0.24164 0.34355 0.04781 0.0
H1664 H 0.91873 0.05413 0.25566 0.0
H1665 H 0.89598 0.02824 0.34435 0.0
H1666 H 0.89903 0.99128 0.32402 0.0
H1667 H 0.90711 0.96613 0.28055 0.0
H1668 H 0.92995 0.99195 0.19188 0.0
H1669 H 0.928 0.02889 0.21263 0.0
C1670 C 0.91468 0.0404 0.27063 0.0
C1671 C 0.90698 0.04408 0.30146 0.0
C1672 C 0.9164 0.01907 0.25872 0.0
C1673 C 0.90156 0.02601 0.32039 0.0
C1674 C 0.90342 1.0048 0.30882 0.0
C1675 C 0.91191 0.97981 0.26588 0.0
C1676 C 0.91853 0.97617 0.23461 0.0
C1677 C 0.91066 1.00111 0.27795 0.0
C1678 C 0.92442 0.9942 0.21585 0.0
C1679 C 0.92343 0.01538 0.22776 0.0
H1680 H 0.28447 0.69337 0.45817 0.0
H1681 H 0.31664 0.69285 0.54949 0.0
H1682 H 0.27764 0.68978 0.57375 0.0
H1683 H 0.23419 0.69019 0.56944 0.0
H1684 H 0.20181 0.69009 0.4783 0.0
H1685 H 0.24096 0.69015 0.45377 0.0
C1686 C 0.28296 0.69238 0.48336 0.0
C1687 C 0.30351 0.69361 0.5019 0.0
C1688 C 0.26038 0.69055 0.49731 0.0
C1689 C 0.30119 0.69205 0.53454 0.0
C1690 C 0.27884 0.69034 0.54852 0.0
C1691 C 0.23568 0.6899 0.54421 0.0
C1692 C 0.21503 0.69035 0.52582 0.0
C1693 C 0.25828 0.69001 0.53018 0.0
C1694 C 0.21735 0.68977 0.49312 0.0
C1695 C 0.23977 0.68993 0.47901 0.0
H1696 H 0.47109 0.05949 0.28218 0.0
H1697 H 0.47863 0.03947 0.18621 0.0
H1698 H 0.48209 1.00161 0.20228 0.0
H1699 H 0.48313 0.97387 0.24365 0.0
H1700 H 0.47633 0.99374 0.33969 0.0
H1701 H 0.47261 0.03172 0.32369 0.0
C1702 C 0.47373 0.04687 0.26485 0.0
C1703 C 0.47439 0.0524 0.23302 0.0
C1704 C 0.47578 0.02497 0.27427 0.0
C1705 C 0.47761 0.03573 0.21084 0.0
C1706 C 0.4797 0.01401 0.22 0.0
C1707 C 0.4806 0.98651 0.26099 0.0
C1708 C 0.48004 0.98095 0.29278 0.0
C1709 C 0.47865 1.00839 0.25163 0.0
C1710 C 0.47708 0.99758 0.31506 0.0
C1711 C 0.47489 0.01933 0.30593 0.0
H1712 H 0.79313 0.68966 0.07191 0.0
H1713 H 0.81458 0.69519 0.97568 0.0
H1714 H 0.77292 0.69603 0.95952 0.0
H1715 H 0.73044 0.69362 0.97282 0.0
H1716 H 0.709 0.68893 0.06915 0.0
H1717 H 0.75064 0.68936 0.08543 0.0
C1718 C 0.78862 0.69103 0.04742 0.0
C1719 C 0.80683 0.69215 0.02495 0.0
C1720 C 0.7647 0.69158 0.03842 0.0
C1721 C 0.80084 0.6944 0.99335 0.0
C1722 C 0.77706 0.69474 0.98413 0.0
C1723 C 0.73495 0.69263 0.99734 0.0
C1724 C 0.71676 0.69099 0.01978 0.0
C1725 C 0.75886 0.69308 1.00644 0.0
C1726 C 0.72274 0.69023 0.05154 0.0
C1727 C 0.7465 0.6904 0.06079 0.0
H1728 H 0.06569 0.05371 0.76216 0.0
H1729 H 0.02647 0.03618 0.84501 0.0
H1730 H 0.02559 0.99824 0.82832 0.0
H1731 H 0.03549 0.96987 0.78969 0.0
H1732 H 0.0743 0.98764 0.70667 0.0
H1733 H 0.07554 0.02549 0.72368 0.0
C1734 C 0.05674 0.04166 0.77643 0.0
C1735 C 0.04624 0.04791 0.80487 0.0
C1736 C 0.0562 0.0198 0.76663 0.0
C1737 C 0.03502 0.03189 0.82323 0.0
C1738 C 0.0344 1.01014 0.81364 0.0
C1739 C 0.0444 0.982 0.77551 0.0
C1740 C 0.05467 0.97588 0.74687 0.0
C1741 C 0.04499 1.00387 0.7854 0.0
C1742 C 0.06593 0.9919 0.72859 0.0
C1743 C 0.06674 1.01358 0.73835 0.0
H1744 H 0.71529 0.31181 0.50754 0.0
H1745 H 0.71315 0.38189 0.51535 0.0
H1746 H 0.75603 0.38301 0.52082 0.0
H1747 H 0.79411 0.36423 0.52524 0.0
H1748 H 0.7972 0.29449 0.51598 0.0
H1749 H 0.75407 0.29312 0.50835 0.0
C1750 C 0.72415 0.32736 0.51 0.0
C1751 C 0.71073 0.34671 0.51154 0.0
C1752 C 0.74906 0.32796 0.51282 0.0
C1753 C 0.72276 0.36667 0.51488 0.0
C1754 C 0.74739 0.36737 0.5178 0.0
C1755 C 0.78532 0.34874 0.52161 0.0
C1756 C 0.79873 0.32947 0.52154 0.0
C1757 C 0.76066 0.34813 0.51726 0.0
C1758 C 0.78722 0.30953 0.51605 0.0
C1759 C 0.76258 0.30876 0.51186 0.0
loop_
_geom_bond_atom_site_label_1
_geom_bond_atom_site_label_2
_geom_bond_distance
_geom_bond_site_symmetry_2
_ccdc_geom_bond_type
Cu0 N1 1.999 . S
Cu0 O6 1.974 . S
Cu0 N11 1.985 . S
Cu0 O20 1.959 . S
N1 Cu0 1.999 . S
N1 C3 1.263 . S
N1 C5 1.389 . S
N2 C3 1.358 . S
N2 C4 1.400 . S
C3 N1 1.263 . S
C3 N2 1.358 . S
C3 H9 0.930 . S
C4 N2 1.400 . S
C4 C5 1.351 . S
C4 H21 0.930 . S
C5 N1 1.389 . S
C5 C4 1.351 . S
C5 H10 0.930 . S
O6 Cu0 1.974 . S
O6 C16 1.282 . S
C7 O8 1.261 . S
C7 O20 1.251 . S
O8 C7 1.261 . S
H9 C3 0.930 . S
H10 C5 0.930 . S
N11 Cu0 1.985 . S
N11 C13 1.335 . S
N11 C14 1.390 . S
N12 C13 1.345 . S
N12 C15 1.336 . S
C13 N11 1.335 . S
C13 N12 1.345 . S
C13 H18 0.930 . S
C14 N11 1.390 . S
C14 C15 1.346 . S
C14 H19 0.930 . S
C15 N12 1.336 . S
C15 C14 1.346 . S
C15 H22 0.929 . S
C16 O6 1.282 . S
C16 O17 1.216 . S
O17 C16 1.216 . S
H18 C13 0.930 . S
H19 C14 0.930 . S
O20 Cu0 1.959 . S
O20 C7 1.251 . S
H21 C4 0.930 . S
H22 C15 0.929 . S
Cu23 N24 1.999 . S
Cu23 O29 1.974 . S
Cu23 N34 1.985 . S
Cu23 O43 1.959 . S
N24 Cu23 1.999 . S
N24 C26 1.263 . S
N24 C28 1.389 . S
N25 C26 1.358 . S
N25 C27 1.400 . S
C26 N24 1.263 . S
C26 N25 1.358 . S
C26 H32 0.930 . S
C27 N25 1.400 . S
C27 C28 1.351 . S
C27 H44 0.930 . S
C28 N24 1.389 . S
C28 C27 1.351 . S
C28 H33 0.930 . S
O29 Cu23 1.974 . S
O29 C39 1.282 . S
C30 O31 1.261 . S
C30 O43 1.251 . S
O31 C30 1.261 . S
H32 C26 0.930 . S
H33 C28 0.930 . S
N34 Cu23 1.985 . S
N34 C36 1.335 . S
N34 C37 1.390 . S
N35 C36 1.345 . S
N35 C38 1.336 . S
C36 N34 1.335 . S
C36 N35 1.345 . S
C36 H41 0.930 . S
C37 N34 1.390 . S
C37 C38 1.346 . S
C37 H42 0.930 . S
C38 N35 1.336 . S
C38 C37 1.346 . S
C38 H45 0.929 . S
C39 O29 1.282 . S
C39 O40 1.216 . S
O40 C39 1.216 . S
H41 C36 0.930 . S
H42 C37 0.930 . S
O43 Cu23 1.959 . S
O43 C30 1.251 . S
H44 C27 0.930 . S
H45 C38 0.929 . S
Cu46 N47 1.999 . S
Cu46 O52 1.974 . S
Cu46 N57 1.985 . S
Cu46 O66 1.959 . S
N47 Cu46 1.999 . S
N47 C49 1.263 . S
N47 C51 1.389 . S
N48 C49 1.358 . S
N48 C50 1.400 . S
C49 N47 1.263 . S
C49 N48 1.358 . S
C49 H55 0.930 . S
C50 N48 1.400 . S
C50 C51 1.351 . S
C50 H67 0.930 . S
C51 N47 1.389 . S
C51 C50 1.351 . S
C51 H56 0.930 . S
O52 Cu46 1.974 . S
O52 C62 1.282 . S
C53 O54 1.261 . S
C53 O66 1.251 . S
O54 C53 1.261 . S
H55 C49 0.930 . S
H56 C51 0.930 . S
N57 Cu46 1.985 . S
N57 C59 1.335 . S
N57 C60 1.390 . S
N58 C59 1.345 . S
N58 C61 1.336 . S
C59 N57 1.335 . S
C59 N58 1.345 . S
C59 H64 0.930 . S
C60 N57 1.390 . S
C60 C61 1.346 . S
C60 H65 0.930 . S
C61 N58 1.336 . S
C61 C60 1.346 . S
C61 H68 0.929 . S
C62 O52 1.282 . S
C62 O63 1.216 . S
O63 C62 1.216 . S
H64 C59 0.930 . S
H65 C60 0.930 . S
O66 Cu46 1.959 . S
O66 C53 1.251 . S
H67 C50 0.930 . S
H68 C61 0.929 . S
Cu69 N70 1.999 1_554 S
Cu69 O75 1.974 . S
Cu69 N80 1.985 . S
Cu69 O89 1.959 . S
N70 Cu69 1.999 1_556 S
N70 C72 1.263 . S
N70 C74 1.389 . S
N71 C72 1.358 . S
N71 C73 1.400 . S
C72 N70 1.263 . S
C72 N71 1.358 . S
C72 H78 0.930 . S
C73 N71 1.400 . S
C73 C74 1.351 . S
C73 H90 0.930 . S
C74 N70 1.389 . S
C74 C73 1.351 . S
C74 H79 0.930 . S
O75 Cu69 1.974 . S
O75 C85 1.282 . S
C76 O77 1.261 . S
C76 O89 1.251 . S
O77 C76 1.261 . S
H78 C72 0.930 . S
H79 C74 0.930 . S
N80 Cu69 1.985 . S
N80 C82 1.335 . S
N80 C83 1.390 . S
N81 C82 1.345 . S
N81 C84 1.336 . S
C82 N80 1.335 . S
C82 N81 1.345 . S
C82 H87 0.930 . S
C83 N80 1.390 . S
C83 C84 1.346 . S
C83 H88 0.930 . S
C84 N81 1.336 . S
C84 C83 1.346 . S
C84 H91 0.929 . S
C85 O75 1.282 . S
C85 O86 1.216 . S
O86 C85 1.216 . S
H87 C82 0.930 . S
H88 C83 0.930 . S
O89 Cu69 1.959 . S
O89 C76 1.251 . S
H90 C73 0.930 . S
H91 C84 0.929 . S
Cu92 N93 1.999 . S
Cu92 O98 1.974 . S
Cu92 N103 1.985 . S
Cu92 O112 1.959 . S
N93 Cu92 1.999 . S
N93 C95 1.263 . S
N93 C97 1.389 . S
N94 C95 1.358 . S
N94 C96 1.400 . S
C95 N93 1.263 . S
C95 N94 1.358 . S
C95 H101 0.930 . S
C96 N94 1.400 . S
C96 C97 1.351 . S
C96 H113 0.930 . S
C97 N93 1.389 . S
C97 C96 1.351 . S
C97 H102 0.930 . S
O98 Cu92 1.974 . S
O98 C108 1.282 . S
C99 O100 1.261 . S
C99 O112 1.251 . S
O100 C99 1.261 . S
H101 C95 0.930 . S
H102 C97 0.930 . S
N103 Cu92 1.985 . S
N103 C105 1.335 . S
N103 C106 1.390 . S
N104 C105 1.345 . S
N104 C107 1.336 . S
C105 N103 1.335 . S
C105 N104 1.345 . S
C105 H110 0.930 . S
C106 N103 1.390 . S
C106 C107 1.346 . S
C106 H111 0.930 . S
C107 N104 1.336 . S
C107 C106 1.346 . S
C107 H114 0.929 . S
C108 O98 1.282 . S
C108 O109 1.216 . S
O109 C108 1.216 . S
H110 C105 0.930 . S
H111 C106 0.930 . S
O112 Cu92 1.959 . S
O112 C99 1.251 . S
H113 C96 0.930 . S
H114 C107 0.929 . S
Cu115 N116 1.999 . S
Cu115 O121 1.974 . S
Cu115 N126 1.985 . S
Cu115 O135 1.959 . S
N116 Cu115 1.999 . S
N116 C118 1.263 . S
N116 C120 1.389 . S
N117 C118 1.358 . S
N117 C119 1.400 . S
C118 N116 1.263 . S
C118 N117 1.358 . S
C118 H124 0.930 . S
C119 N117 1.400 . S
C119 C120 1.351 . S
C119 H136 0.930 . S
C120 N116 1.389 . S
C120 C119 1.351 . S
C120 H125 0.930 . S
O121 Cu115 1.974 . S
O121 C131 1.282 . S
C122 O123 1.261 . S
C122 O135 1.251 . S
O123 C122 1.261 . S
H124 C118 0.930 . S
H125 C120 0.930 . S
N126 Cu115 1.985 . S
N126 C128 1.335 . S
N126 C129 1.390 . S
N127 C128 1.345 . S
N127 C130 1.336 . S
C128 N126 1.335 . S
C128 N127 1.345 . S
C128 H133 0.930 . S
C129 N126 1.390 . S
C129 C130 1.346 . S
C129 H134 0.930 . S
C130 N127 1.336 . S
C130 C129 1.346 . S
C130 H137 0.929 . S
C131 O121 1.282 . S
C131 O132 1.216 . S
O132 C131 1.216 . S
H133 C128 0.930 . S
H134 C129 0.930 . S
O135 Cu115 1.959 . S
O135 C122 1.251 . S
H136 C119 0.930 . S
H137 C130 0.929 . S
Cu138 N139 1.999 . S
Cu138 O144 1.974 . S
Cu138 N149 1.985 . S
Cu138 O158 1.959 . S
N139 Cu138 1.999 . S
N139 C141 1.263 . S
N139 C143 1.389 . S
N140 C141 1.358 . S
N140 C142 1.400 . S
C141 N139 1.263 . S
C141 N140 1.358 . S
C141 H147 0.930 . S
C142 N140 1.400 . S
C142 C143 1.351 . S
C142 H159 0.930 . S
C143 N139 1.389 . S
C143 C142 1.351 . S
C143 H148 0.930 . S
O144 Cu138 1.974 . S
O144 C154 1.282 . S
C145 O146 1.261 . S
C145 O158 1.251 . S
O146 C145 1.261 . S
H147 C141 0.930 . S
H148 C143 0.930 . S
N149 Cu138 1.985 . S
N149 C151 1.335 . S
N149 C152 1.390 . S
N150 C151 1.345 . S
N150 C153 1.336 . S
C151 N149 1.335 . S
C151 N150 1.345 . S
C151 H156 0.930 . S
C152 N149 1.390 . S
C152 C153 1.346 . S
C152 H157 0.930 . S
C153 N150 1.336 . S
C153 C152 1.346 . S
C153 H160 0.929 . S
C154 O144 1.282 . S
C154 O155 1.216 . S
O155 C154 1.216 . S
H156 C151 0.930 . S
H157 C152 0.930 . S
O158 Cu138 1.959 . S
O158 C145 1.251 . S
H159 C142 0.930 . S
H160 C153 0.929 . S
Cu161 N162 1.999 1_556 S
Cu161 O167 1.974 . S
Cu161 N172 1.985 . S
Cu161 O181 1.959 . S
N162 Cu161 1.999 1_554 S
N162 C164 1.263 . S
N162 C166 1.389 . S
N163 C164 1.358 . S
N163 C165 1.400 . S
C164 N162 1.263 . S
C164 N163 1.358 . S
C164 H170 0.930 . S
C165 N163 1.400 . S
C165 C166 1.351 . S
C165 H182 0.930 . S
C166 N162 1.389 . S
C166 C165 1.351 . S
C166 H171 0.930 . S
O167 Cu161 1.974 . S
O167 C177 1.282 . S
C168 O169 1.261 . S
C168 O181 1.251 . S
O169 C168 1.261 . S
H170 C164 0.930 . S
H171 C166 0.930 . S
N172 Cu161 1.985 . S
N172 C174 1.335 . S
N172 C175 1.390 . S
N173 C174 1.345 . S
N173 C176 1.336 . S
C174 N172 1.335 . S
C174 N173 1.345 . S
C174 H179 0.930 . S
C175 N172 1.390 . S
C175 C176 1.346 . S
C175 H180 0.930 . S
C176 N173 1.336 . S
C176 C175 1.346 . S
C176 H183 0.929 . S
C177 O167 1.282 . S
C177 O178 1.216 . S
O178 C177 1.216 . S
H179 C174 0.930 . S
H180 C175 0.930 . S
O181 Cu161 1.959 . S
O181 C168 1.251 . S
H182 C165 0.930 . S
H183 C176 0.929 . S
Cu184 N185 1.999 . S
Cu184 O190 1.974 . S
Cu184 N195 1.985 . S
Cu184 O204 1.959 . S
N185 Cu184 1.999 . S
N185 C187 1.263 . S
N185 C189 1.389 . S
N186 C187 1.358 . S
N186 C188 1.400 . S
C187 N185 1.263 . S
C187 N186 1.358 . S
C187 H193 0.930 . S
C188 N186 1.400 . S
C188 C189 1.351 . S
C188 H205 0.930 . S
C189 N185 1.389 . S
C189 C188 1.351 . S
C189 H194 0.930 . S
O190 Cu184 1.974 . S
O190 C200 1.282 . S
C191 O192 1.261 . S
C191 O204 1.251 . S
O192 C191 1.261 . S
H193 C187 0.930 . S
H194 C189 0.930 . S
N195 Cu184 1.985 . S
N195 C197 1.335 . S
N195 C198 1.390 . S
N196 C197 1.345 . S
N196 C199 1.336 . S
C197 N195 1.335 . S
C197 N196 1.345 . S
C197 H202 0.930 . S
C198 N195 1.390 . S
C198 C199 1.346 . S
C198 H203 0.930 . S
C199 N196 1.336 . S
C199 C198 1.346 . S
C199 H206 0.929 . S
C200 O190 1.282 . S
C200 O201 1.216 . S
O201 C200 1.216 . S
H202 C197 0.930 . S
H203 C198 0.930 . S
O204 Cu184 1.959 . S
O204 C191 1.251 . S
H205 C188 0.930 . S
H206 C199 0.929 . S
Cu207 N208 1.999 . S
Cu207 O213 1.974 . S
Cu207 N218 1.985 . S
Cu207 O227 1.959 . S
N208 Cu207 1.999 . S
N208 C210 1.263 . S
N208 C212 1.389 . S
N209 C210 1.358 . S
N209 C211 1.400 . S
C210 N208 1.263 . S
C210 N209 1.358 . S
C210 H216 0.930 . S
C211 N209 1.400 . S
C211 C212 1.351 . S
C211 H228 0.930 . S
C212 N208 1.389 . S
C212 C211 1.351 . S
C212 H217 0.930 . S
O213 Cu207 1.974 . S
O213 C223 1.282 . S
C214 O215 1.261 . S
C214 O227 1.251 . S
O215 C214 1.261 . S
H216 C210 0.930 . S
H217 C212 0.930 . S
N218 Cu207 1.985 . S
N218 C220 1.335 . S
N218 C221 1.390 . S
N219 C220 1.345 . S
N219 C222 1.336 . S
C220 N218 1.335 . S
C220 N219 1.345 . S
C220 H225 0.930 . S
C221 N218 1.390 . S
C221 C222 1.346 . S
C221 H226 0.930 . S
C222 N219 1.336 . S
C222 C221 1.346 . S
C222 H229 0.929 . S
C223 O213 1.282 . S
C223 O224 1.216 . S
O224 C223 1.216 . S
H225 C220 0.930 . S
H226 C221 0.930 . S
O227 Cu207 1.959 . S
O227 C214 1.251 . S
H228 C211 0.930 . S
H229 C222 0.929 . S
Cu230 N231 1.999 . S
Cu230 O236 1.974 . S
Cu230 N241 1.985 . S
Cu230 O250 1.959 . S
N231 Cu230 1.999 . S
N231 C233 1.263 . S
N231 C235 1.389 . S
N232 C233 1.358 . S
N232 C234 1.400 . S
C233 N231 1.263 . S
C233 N232 1.358 . S
C233 H239 0.930 . S
C234 N232 1.400 . S
C234 C235 1.351 . S
C234 H251 0.930 . S
C235 N231 1.389 . S
C235 C234 1.351 . S
C235 H240 0.930 . S
O236 Cu230 1.974 . S
O236 C246 1.282 . S
C237 O238 1.261 . S
C237 O250 1.251 . S
O238 C237 1.261 . S
H239 C233 0.930 . S
H240 C235 0.930 . S
N241 Cu230 1.985 . S
N241 C243 1.335 . S
N241 C244 1.390 . S
N242 C243 1.345 . S
N242 C245 1.336 . S
C243 N241 1.335 . S
C243 N242 1.345 . S
C243 H248 0.930 . S
C244 N241 1.390 . S
C244 C245 1.346 . S
C244 H249 0.930 . S
C245 N242 1.336 . S
C245 C244 1.346 . S
C245 H252 0.929 . S
C246 O236 1.282 . S
C246 O247 1.216 . S
O247 C246 1.216 . S
H248 C243 0.930 . S
H249 C244 0.930 . S
O250 Cu230 1.959 . S
O250 C237 1.251 . S
H251 C234 0.930 . S
H252 C245 0.929 . S
Cu253 N254 1.999 . S
Cu253 O259 1.974 . S
Cu253 N264 1.985 . S
Cu253 O273 1.959 . S
N254 Cu253 1.999 . S
N254 C256 1.263 . S
N254 C258 1.389 . S
N255 C256 1.358 . S
N255 C257 1.400 . S
C256 N254 1.263 . S
C256 N255 1.358 . S
C256 H262 0.930 . S
C257 N255 1.400 . S
C257 C258 1.351 . S
C257 H274 0.930 . S
C258 N254 1.389 . S
C258 C257 1.351 . S
C258 H263 0.930 . S
O259 Cu253 1.974 . S
O259 C269 1.282 . S
C260 O261 1.261 . S
C260 O273 1.251 1_554 S
O261 C260 1.261 . S
H262 C256 0.930 . S
H263 C258 0.930 . S
N264 Cu253 1.985 . S
N264 C266 1.335 . S
N264 C267 1.390 . S
N265 C266 1.345 . S
N265 C268 1.336 . S
C266 N264 1.335 . S
C266 N265 1.345 . S
C266 H271 0.930 . S
C267 N264 1.390 . S
C267 C268 1.346 . S
C267 H272 0.930 . S
C268 N265 1.336 . S
C268 C267 1.346 . S
C268 H275 0.929 . S
C269 O259 1.282 . S
C269 O270 1.216 . S
O270 C269 1.216 . S
H271 C266 0.930 . S
H272 C267 0.930 . S
O273 Cu253 1.959 . S
O273 C260 1.251 1_556 S
H274 C257 0.930 . S
H275 C268 0.929 . S
Cu276 N277 1.999 . S
Cu276 O282 1.974 . S
Cu276 N287 1.985 . S
Cu276 O296 1.959 . S
N277 Cu276 1.999 . S
N277 C279 1.263 . S
N277 C281 1.389 . S
N278 C279 1.358 . S
N278 C280 1.400 . S
C279 N277 1.263 . S
C279 N278 1.358 . S
C279 H285 0.930 . S
C280 N278 1.400 . S
C280 C281 1.351 . S
C280 H297 0.930 . S
C281 N277 1.389 . S
C281 C280 1.351 . S
C281 H286 0.930 . S
O282 Cu276 1.974 . S
O282 C292 1.282 . S
C283 O284 1.261 . S
C283 O296 1.251 . S
O284 C283 1.261 . S
H285 C279 0.930 . S
H286 C281 0.930 . S
N287 Cu276 1.985 . S
N287 C289 1.335 . S
N287 C290 1.390 . S
N288 C289 1.345 . S
N288 C291 1.336 . S
C289 N287 1.335 . S
C289 N288 1.345 . S
C289 H294 0.930 . S
C290 N287 1.390 . S
C290 C291 1.346 . S
C290 H295 0.930 . S
C291 N288 1.336 . S
C291 C290 1.346 . S
C291 H298 0.929 . S
C292 O282 1.282 . S
C292 O293 1.216 . S
O293 C292 1.216 . S
H294 C289 0.930 . S
H295 C290 0.930 . S
O296 Cu276 1.959 . S
O296 C283 1.251 . S
H297 C280 0.930 . S
H298 C291 0.929 . S
Cu299 N300 1.999 . S
Cu299 O305 1.974 . S
Cu299 N310 1.985 . S
Cu299 O319 1.959 . S
N300 Cu299 1.999 . S
N300 C302 1.263 . S
N300 C304 1.389 . S
N301 C302 1.358 . S
N301 C303 1.400 . S
C302 N300 1.263 . S
C302 N301 1.358 . S
C302 H308 0.930 . S
C303 N301 1.400 . S
C303 C304 1.351 . S
C303 H320 0.930 . S
C304 N300 1.389 . S
C304 C303 1.351 . S
C304 H309 0.930 . S
O305 Cu299 1.974 . S
O305 C315 1.282 . S
C306 O307 1.261 . S
C306 O319 1.251 . S
O307 C306 1.261 . S
H308 C302 0.930 . S
H309 C304 0.930 . S
N310 Cu299 1.985 . S
N310 C312 1.335 . S
N310 C313 1.390 . S
N311 C312 1.345 . S
N311 C314 1.336 . S
C312 N310 1.335 . S
C312 N311 1.345 . S
C312 H317 0.930 . S
C313 N310 1.390 . S
C313 C314 1.346 . S
C313 H318 0.930 . S
C314 N311 1.336 . S
C314 C313 1.346 . S
C314 H321 0.929 . S
C315 O305 1.282 . S
C315 O316 1.216 . S
O316 C315 1.216 . S
H317 C312 0.930 . S
H318 C313 0.930 . S
O319 Cu299 1.959 . S
O319 C306 1.251 . S
H320 C303 0.930 . S
H321 C314 0.929 . S
Cu322 N323 1.999 . S
Cu322 O328 1.974 . S
Cu322 N333 1.985 . S
Cu322 O342 1.959 . S
N323 Cu322 1.999 . S
N323 C325 1.263 . S
N323 C327 1.389 . S
N324 C325 1.358 . S
N324 C326 1.400 . S
C325 N323 1.263 . S
C325 N324 1.358 . S
C325 H331 0.930 . S
C326 N324 1.400 . S
C326 C327 1.351 . S
C326 H343 0.930 . S
C327 N323 1.389 . S
C327 C326 1.351 . S
C327 H332 0.930 . S
O328 Cu322 1.974 . S
O328 C338 1.282 . S
C329 O330 1.261 . S
C329 O342 1.251 . S
O330 C329 1.261 . S
H331 C325 0.930 . S
H332 C327 0.930 . S
N333 Cu322 1.985 . S
N333 C335 1.335 . S
N333 C336 1.390 . S
N334 C335 1.345 . S
N334 C337 1.336 . S
C335 N333 1.335 . S
C335 N334 1.345 . S
C335 H340 0.930 . S
C336 N333 1.390 . S
C336 C337 1.346 . S
C336 H341 0.930 . S
C337 N334 1.336 . S
C337 C336 1.346 . S
C337 H344 0.929 . S
C338 O328 1.282 . S
C338 O339 1.216 . S
O339 C338 1.216 . S
H340 C335 0.930 . S
H341 C336 0.930 . S
O342 Cu322 1.959 . S
O342 C329 1.251 . S
H343 C326 0.930 . S
H344 C337 0.929 . S
Cu345 N346 1.999 . S
Cu345 O351 1.974 . S
Cu345 N356 1.985 . S
Cu345 O365 1.959 . S
N346 Cu345 1.999 . S
N346 C348 1.263 . S
N346 C350 1.389 . S
N347 C348 1.358 . S
N347 C349 1.400 . S
C348 N346 1.263 . S
C348 N347 1.358 . S
C348 H354 0.930 . S
C349 N347 1.400 . S
C349 C350 1.351 . S
C349 H366 0.930 . S
C350 N346 1.389 . S
C350 C349 1.351 . S
C350 H355 0.930 . S
O351 Cu345 1.974 . S
O351 C361 1.282 . S
C352 O353 1.261 . S
C352 O365 1.251 1_556 S
O353 C352 1.261 . S
H354 C348 0.930 . S
H355 C350 0.930 . S
N356 Cu345 1.985 . S
N356 C358 1.335 . S
N356 C359 1.390 . S
N357 C358 1.345 . S
N357 C360 1.336 . S
C358 N356 1.335 . S
C358 N357 1.345 . S
C358 H363 0.930 . S
C359 N356 1.390 . S
C359 C360 1.346 . S
C359 H364 0.930 . S
C360 N357 1.336 . S
C360 C359 1.346 . S
C360 H367 0.929 . S
C361 O351 1.282 . S
C361 O362 1.216 . S
O362 C361 1.216 . S
H363 C358 0.930 . S
H364 C359 0.930 . S
O365 Cu345 1.959 . S
O365 C352 1.251 1_554 S
H366 C349 0.930 . S
H367 C360 0.929 . S
Cu368 N369 1.999 . S
Cu368 O374 1.974 . S
Cu368 N379 1.985 . S
Cu368 O388 1.959 . S
N369 Cu368 1.999 . S
N369 C371 1.263 . S
N369 C373 1.389 . S
N370 C371 1.358 . S
N370 C372 1.400 . S
C371 N369 1.263 . S
C371 N370 1.358 . S
C371 H377 0.930 . S
C372 N370 1.400 . S
C372 C373 1.351 . S
C372 H389 0.930 . S
C373 N369 1.389 . S
C373 C372 1.351 . S
C373 H378 0.930 . S
O374 Cu368 1.974 . S
O374 C384 1.282 . S
C375 O376 1.261 . S
C375 O388 1.251 . S
O376 C375 1.261 . S
H377 C371 0.930 . S
H378 C373 0.930 . S
N379 Cu368 1.985 . S
N379 C381 1.335 . S
N379 C382 1.390 . S
N380 C381 1.345 . S
N380 C383 1.336 . S
C381 N379 1.335 . S
C381 N380 1.345 . S
C381 H386 0.930 . S
C382 N379 1.390 . S
C382 C383 1.346 . S
C382 H387 0.930 . S
C383 N380 1.336 . S
C383 C382 1.346 . S
C383 H390 0.929 . S
C384 O374 1.282 . S
C384 O385 1.216 . S
O385 C384 1.216 . S
H386 C381 0.930 . S
H387 C382 0.930 . S
O388 Cu368 1.959 . S
O388 C375 1.251 . S
H389 C372 0.930 . S
H390 C383 0.929 . S
Cu391 N392 1.999 1_554 S
Cu391 O397 1.974 . S
Cu391 N402 1.985 . S
Cu391 O411 1.959 . S
N392 Cu391 1.999 1_556 S
N392 C394 1.263 . S
N392 C396 1.389 . S
N393 C394 1.358 . S
N393 C395 1.400 . S
C394 N392 1.263 . S
C394 N393 1.358 . S
C394 H400 0.930 . S
C395 N393 1.400 . S
C395 C396 1.351 . S
C395 H412 0.930 . S
C396 N392 1.389 . S
C396 C395 1.351 . S
C396 H401 0.930 . S
O397 Cu391 1.974 . S
O397 C407 1.282 . S
C398 O399 1.261 . S
C398 O411 1.251 . S
O399 C398 1.261 . S
H400 C394 0.930 . S
H401 C396 0.930 . S
N402 Cu391 1.985 . S
N402 C404 1.335 . S
N402 C405 1.390 . S
N403 C404 1.345 . S
N403 C406 1.336 . S
C404 N402 1.335 . S
C404 N403 1.345 . S
C404 H409 0.930 . S
C405 N402 1.390 . S
C405 C406 1.346 . S
C405 H410 0.930 . S
C406 N403 1.336 . S
C406 C405 1.346 . S
C406 H413 0.929 . S
C407 O397 1.282 . S
C407 O408 1.216 . S
O408 C407 1.216 . S
H409 C404 0.930 . S
H410 C405 0.930 . S
O411 Cu391 1.959 . S
O411 C398 1.251 . S
H412 C395 0.930 . S
H413 C406 0.929 . S
Cu414 N415 1.999 . S
Cu414 O420 1.974 . S
Cu414 N425 1.985 . S
Cu414 O434 1.959 . S
N415 Cu414 1.999 . S
N415 C417 1.263 . S
N415 C419 1.389 . S
N416 C417 1.358 . S
N416 C418 1.400 . S
C417 N415 1.263 . S
C417 N416 1.358 . S
C417 H423 0.930 . S
C418 N416 1.400 . S
C418 C419 1.351 . S
C418 H435 0.930 . S
C419 N415 1.389 . S
C419 C418 1.351 . S
C419 H424 0.930 . S
O420 Cu414 1.974 . S
O420 C430 1.282 . S
C421 O422 1.261 . S
C421 O434 1.251 . S
O422 C421 1.261 . S
H423 C417 0.930 . S
H424 C419 0.930 . S
N425 Cu414 1.985 . S
N425 C427 1.335 . S
N425 C428 1.390 . S
N426 C427 1.345 . S
N426 C429 1.336 . S
C427 N425 1.335 . S
C427 N426 1.345 . S
C427 H432 0.930 . S
C428 N425 1.390 . S
C428 C429 1.346 . S
C428 H433 0.930 . S
C429 N426 1.336 . S
C429 C428 1.346 . S
C429 H436 0.929 . S
C430 O420 1.282 . S
C430 O431 1.216 . S
O431 C430 1.216 . S
H432 C427 0.930 . S
H433 C428 0.930 . S
O434 Cu414 1.959 . S
O434 C421 1.251 . S
H435 C418 0.930 . S
H436 C429 0.929 . S
Cu437 N438 1.999 . S
Cu437 O443 1.974 . S
Cu437 N448 1.985 . S
Cu437 O457 1.959 . S
N438 Cu437 1.999 . S
N438 C440 1.263 . S
N438 C442 1.389 . S
N439 C440 1.358 . S
N439 C441 1.400 . S
C440 N438 1.263 . S
C440 N439 1.358 . S
C440 H446 0.930 . S
C441 N439 1.400 . S
C441 C442 1.351 . S
C441 H458 0.930 . S
C442 N438 1.389 . S
C442 C441 1.351 . S
C442 H447 0.930 . S
O443 Cu437 1.974 . S
O443 C453 1.282 . S
C444 O445 1.261 . S
C444 O457 1.251 . S
O445 C444 1.261 . S
H446 C440 0.930 . S
H447 C442 0.930 . S
N448 Cu437 1.985 . S
N448 C450 1.335 . S
N448 C451 1.390 . S
N449 C450 1.345 . S
N449 C452 1.336 . S
C450 N448 1.335 . S
C450 N449 1.345 . S
C450 H455 0.930 . S
C451 N448 1.390 . S
C451 C452 1.346 . S
C451 H456 0.930 . S
C452 N449 1.336 . S
C452 C451 1.346 . S
C452 H459 0.929 . S
C453 O443 1.282 . S
C453 O454 1.216 . S
O454 C453 1.216 . S
H455 C450 0.930 . S
H456 C451 0.930 . S
O457 Cu437 1.959 . S
O457 C444 1.251 . S
H458 C441 0.930 . S
H459 C452 0.929 . S
Cu460 N461 1.999 . S
Cu460 O466 1.974 . S
Cu460 N471 1.985 . S
Cu460 O480 1.959 . S
N461 Cu460 1.999 . S
N461 C463 1.263 . S
N461 C465 1.389 . S
N462 C463 1.358 . S
N462 C464 1.400 . S
C463 N461 1.263 . S
C463 N462 1.358 . S
C463 H469 0.930 . S
C464 N462 1.400 . S
C464 C465 1.351 . S
C464 H481 0.930 . S
C465 N461 1.389 . S
C465 C464 1.351 . S
C465 H470 0.930 . S
O466 Cu460 1.974 . S
O466 C476 1.282 . S
C467 O468 1.261 . S
C467 O480 1.251 . S
O468 C467 1.261 . S
H469 C463 0.930 . S
H470 C465 0.930 . S
N471 Cu460 1.985 . S
N471 C473 1.335 . S
N471 C474 1.390 . S
N472 C473 1.345 . S
N472 C475 1.336 . S
C473 N471 1.335 . S
C473 N472 1.345 . S
C473 H478 0.930 . S
C474 N471 1.390 . S
C474 C475 1.346 . S
C474 H479 0.930 . S
C475 N472 1.336 . S
C475 C474 1.346 . S
C475 H482 0.929 . S
C476 O466 1.282 . S
C476 O477 1.216 . S
O477 C476 1.216 . S
H478 C473 0.930 . S
H479 C474 0.930 . S
O480 Cu460 1.959 . S
O480 C467 1.251 . S
H481 C464 0.930 . S
H482 C475 0.929 . S
Cu483 N484 1.999 1_556 S
Cu483 O489 1.974 . S
Cu483 N494 1.985 . S
Cu483 O503 1.959 . S
N484 Cu483 1.999 1_554 S
N484 C486 1.263 . S
N484 C488 1.389 . S
N485 C486 1.358 . S
N485 C487 1.400 . S
C486 N484 1.263 . S
C486 N485 1.358 . S
C486 H492 0.930 . S
C487 N485 1.400 . S
C487 C488 1.351 . S
C487 H504 0.930 . S
C488 N484 1.389 . S
C488 C487 1.351 . S
C488 H493 0.930 . S
O489 Cu483 1.974 . S
O489 C499 1.282 . S
C490 O491 1.261 . S
C490 O503 1.251 . S
O491 C490 1.261 . S
H492 C486 0.930 . S
H493 C488 0.930 . S
N494 Cu483 1.985 . S
N494 C496 1.335 . S
N494 C497 1.390 . S
N495 C496 1.345 . S
N495 C498 1.336 . S
C496 N494 1.335 . S
C496 N495 1.345 . S
C496 H501 0.930 . S
C497 N494 1.390 . S
C497 C498 1.346 . S
C497 H502 0.930 . S
C498 N495 1.336 . S
C498 C497 1.346 . S
C498 H505 0.929 . S
C499 O489 1.282 . S
C499 O500 1.216 . S
O500 C499 1.216 . S
H501 C496 0.930 . S
H502 C497 0.930 . S
O503 Cu483 1.959 . S
O503 C490 1.251 . S
H504 C487 0.930 . S
H505 C498 0.929 . S
Cu506 N507 1.999 . S
Cu506 O512 1.974 . S
Cu506 N517 1.985 . S
Cu506 O526 1.959 . S
N507 Cu506 1.999 . S
N507 C509 1.263 . S
N507 C511 1.389 . S
N508 C509 1.358 . S
N508 C510 1.400 . S
C509 N507 1.263 . S
C509 N508 1.358 . S
C509 H515 0.930 . S
C510 N508 1.400 . S
C510 C511 1.351 . S
C510 H527 0.930 . S
C511 N507 1.389 . S
C511 C510 1.351 . S
C511 H516 0.930 . S
O512 Cu506 1.974 . S
O512 C522 1.282 . S
C513 O514 1.261 . S
C513 O526 1.251 . S
O514 C513 1.261 . S
H515 C509 0.930 . S
H516 C511 0.930 . S
N517 Cu506 1.985 . S
N517 C519 1.335 . S
N517 C520 1.390 . S
N518 C519 1.345 . S
N518 C521 1.336 . S
C519 N517 1.335 . S
C519 N518 1.345 . S
C519 H524 0.930 . S
C520 N517 1.390 . S
C520 C521 1.346 . S
C520 H525 0.930 . S
C521 N518 1.336 . S
C521 C520 1.346 . S
C521 H528 0.929 . S
C522 O512 1.282 . S
C522 O523 1.216 . S
O523 C522 1.216 . S
H524 C519 0.930 . S
H525 C520 0.930 . S
O526 Cu506 1.959 . S
O526 C513 1.251 . S
H527 C510 0.930 . S
H528 C521 0.929 . S
Cu529 N530 1.999 . S
Cu529 O535 1.974 . S
Cu529 N540 1.985 . S
Cu529 O549 1.959 . S
N530 Cu529 1.999 . S
N530 C532 1.263 . S
N530 C534 1.389 . S
N531 C532 1.358 . S
N531 C533 1.400 . S
C532 N530 1.263 . S
C532 N531 1.358 . S
C532 H538 0.930 . S
C533 N531 1.400 . S
C533 C534 1.351 . S
C533 H550 0.930 . S
C534 N530 1.389 . S
C534 C533 1.351 . S
C534 H539 0.930 . S
O535 Cu529 1.974 . S
O535 C545 1.282 . S
C536 O537 1.261 . S
C536 O549 1.251 . S
O537 C536 1.261 . S
H538 C532 0.930 . S
H539 C534 0.930 . S
N540 Cu529 1.985 . S
N540 C542 1.335 . S
N540 C543 1.390 . S
N541 C542 1.345 . S
N541 C544 1.336 . S
C542 N540 1.335 . S
C542 N541 1.345 . S
C542 H547 0.930 . S
C543 N540 1.390 . S
C543 C544 1.346 . S
C543 H548 0.930 . S
C544 N541 1.336 . S
C544 C543 1.346 . S
C544 H551 0.929 . S
C545 O535 1.282 . S
C545 O546 1.216 . S
O546 C545 1.216 . S
H547 C542 0.930 . S
H548 C543 0.930 . S
O549 Cu529 1.959 . S
O549 C536 1.251 . S
H550 C533 0.930 . S
H551 C544 0.929 . S
Cu552 N553 1.999 . S
Cu552 O558 1.974 . S
Cu552 N563 1.985 . S
Cu552 O572 1.959 . S
N553 Cu552 1.999 . S
N553 C555 1.263 . S
N553 C557 1.389 . S
N554 C555 1.358 . S
N554 C556 1.400 . S
C555 N553 1.263 . S
C555 N554 1.358 . S
C555 H561 0.930 . S
C556 N554 1.400 . S
C556 C557 1.351 . S
C556 H573 0.930 . S
C557 N553 1.389 . S
C557 C556 1.351 . S
C557 H562 0.930 . S
O558 Cu552 1.974 . S
O558 C568 1.282 . S
C559 O560 1.261 . S
C559 O572 1.251 . S
O560 C559 1.261 . S
H561 C555 0.930 . S
H562 C557 0.930 . S
N563 Cu552 1.985 . S
N563 C565 1.335 . S
N563 C566 1.390 . S
N564 C565 1.345 . S
N564 C567 1.336 . S
C565 N563 1.335 . S
C565 N564 1.345 . S
C565 H570 0.930 . S
C566 N563 1.390 . S
C566 C567 1.346 . S
C566 H571 0.930 . S
C567 N564 1.336 . S
C567 C566 1.346 . S
C567 H574 0.929 . S
C568 O558 1.282 . S
C568 O569 1.216 . S
O569 C568 1.216 . S
H570 C565 0.930 . S
H571 C566 0.930 . S
O572 Cu552 1.959 . S
O572 C559 1.251 . S
H573 C556 0.930 . S
H574 C567 0.929 . S
Cu575 N576 1.999 . S
Cu575 O581 1.974 . S
Cu575 N586 1.985 . S
Cu575 O595 1.959 . S
N576 Cu575 1.999 . S
N576 C578 1.263 . S
N576 C580 1.389 . S
N577 C578 1.358 . S
N577 C579 1.400 . S
C578 N576 1.263 . S
C578 N577 1.358 . S
C578 H584 0.930 . S
C579 N577 1.400 . S
C579 C580 1.351 . S
C579 H596 0.930 . S
C580 N576 1.389 . S
C580 C579 1.351 . S
C580 H585 0.930 . S
O581 Cu575 1.974 . S
O581 C591 1.282 . S
C582 O583 1.261 . S
C582 O595 1.251 1_554 S
O583 C582 1.261 . S
H584 C578 0.930 . S
H585 C580 0.930 . S
N586 Cu575 1.985 . S
N586 C588 1.335 . S
N586 C589 1.390 . S
N587 C588 1.345 . S
N587 C590 1.336 . S
C588 N586 1.335 . S
C588 N587 1.345 . S
C588 H593 0.930 . S
C589 N586 1.390 . S
C589 C590 1.346 . S
C589 H594 0.930 . S
C590 N587 1.336 . S
C590 C589 1.346 . S
C590 H597 0.929 . S
C591 O581 1.282 . S
C591 O592 1.216 . S
O592 C591 1.216 . S
H593 C588 0.930 . S
H594 C589 0.930 . S
O595 Cu575 1.959 . S
O595 C582 1.251 1_556 S
H596 C579 0.930 . S
H597 C590 0.929 . S
Cu598 N599 1.999 . S
Cu598 O604 1.974 . S
Cu598 N609 1.985 . S
Cu598 O618 1.959 . S
N599 Cu598 1.999 . S
N599 C601 1.263 . S
N599 C603 1.389 . S
N600 C601 1.358 . S
N600 C602 1.400 . S
C601 N599 1.263 . S
C601 N600 1.358 . S
C601 H607 0.930 . S
C602 N600 1.400 . S
C602 C603 1.351 . S
C602 H619 0.930 . S
C603 N599 1.389 . S
C603 C602 1.351 . S
C603 H608 0.930 . S
O604 Cu598 1.974 . S
O604 C614 1.282 . S
C605 O606 1.261 . S
C605 O618 1.251 . S
O606 C605 1.261 . S
H607 C601 0.930 . S
H608 C603 0.930 . S
N609 Cu598 1.985 . S
N609 C611 1.335 . S
N609 C612 1.390 . S
N610 C611 1.345 . S
N610 C613 1.336 . S
C611 N609 1.335 . S
C611 N610 1.345 . S
C611 H616 0.930 . S
C612 N609 1.390 . S
C612 C613 1.346 . S
C612 H617 0.930 . S
C613 N610 1.336 . S
C613 C612 1.346 . S
C613 H620 0.929 . S
C614 O604 1.282 . S
C614 O615 1.216 . S
O615 C614 1.216 . S
H616 C611 0.930 . S
H617 C612 0.930 . S
O618 Cu598 1.959 . S
O618 C605 1.251 . S
H619 C602 0.930 . S
H620 C613 0.929 . S
Cu621 N622 1.999 . S
Cu621 O627 1.974 . S
Cu621 N632 1.985 . S
Cu621 O641 1.959 . S
N622 Cu621 1.999 . S
N622 C624 1.263 . S
N622 C626 1.389 . S
N623 C624 1.358 . S
N623 C625 1.400 . S
C624 N622 1.263 . S
C624 N623 1.358 . S
C624 H630 0.930 . S
C625 N623 1.400 . S
C625 C626 1.351 . S
C625 H642 0.930 . S
C626 N622 1.389 . S
C626 C625 1.351 . S
C626 H631 0.930 . S
O627 Cu621 1.974 . S
O627 C637 1.282 . S
C628 O629 1.261 . S
C628 O641 1.251 . S
O629 C628 1.261 . S
H630 C624 0.930 . S
H631 C626 0.930 . S
N632 Cu621 1.985 . S
N632 C634 1.335 . S
N632 C635 1.390 . S
N633 C634 1.345 . S
N633 C636 1.336 . S
C634 N632 1.335 . S
C634 N633 1.345 . S
C634 H639 0.930 . S
C635 N632 1.390 . S
C635 C636 1.346 . S
C635 H640 0.930 . S
C636 N633 1.336 . S
C636 C635 1.346 . S
C636 H643 0.929 . S
C637 O627 1.282 . S
C637 O638 1.216 . S
O638 C637 1.216 . S
H639 C634 0.930 . S
H640 C635 0.930 . S
O641 Cu621 1.959 . S
O641 C628 1.251 . S
H642 C625 0.930 . S
H643 C636 0.929 . S
Cu644 N645 1.999 . S
Cu644 O650 1.974 . S
Cu644 N655 1.985 . S
Cu644 O664 1.959 . S
N645 Cu644 1.999 . S
N645 C647 1.263 . S
N645 C649 1.389 . S
N646 C647 1.358 . S
N646 C648 1.400 . S
C647 N645 1.263 . S
C647 N646 1.358 . S
C647 H653 0.930 . S
C648 N646 1.400 . S
C648 C649 1.351 . S
C648 H665 0.930 . S
C649 N645 1.389 . S
C649 C648 1.351 . S
C649 H654 0.930 . S
O650 Cu644 1.974 . S
O650 C660 1.282 . S
C651 O652 1.261 . S
C651 O664 1.251 . S
O652 C651 1.261 . S
H653 C647 0.930 . S
H654 C649 0.930 . S
N655 Cu644 1.985 . S
N655 C657 1.335 . S
N655 C658 1.390 . S
N656 C657 1.345 . S
N656 C659 1.336 . S
C657 N655 1.335 . S
C657 N656 1.345 . S
C657 H662 0.930 . S
C658 N655 1.390 . S
C658 C659 1.346 . S
C658 H663 0.930 . S
C659 N656 1.336 . S
C659 C658 1.346 . S
C659 H666 0.929 . S
C660 O650 1.282 . S
C660 O661 1.216 . S
O661 C660 1.216 . S
H662 C657 0.930 . S
H663 C658 0.930 . S
O664 Cu644 1.959 . S
O664 C651 1.251 . S
H665 C648 0.930 . S
H666 C659 0.929 . S
Cu667 N668 1.999 . S
Cu667 O673 1.974 . S
Cu667 N678 1.985 . S
Cu667 O687 1.959 . S
N668 Cu667 1.999 . S
N668 C670 1.263 . S
N668 C672 1.389 . S
N669 C670 1.358 . S
N669 C671 1.400 . S
C670 N668 1.263 . S
C670 N669 1.358 . S
C670 H676 0.930 . S
C671 N669 1.400 . S
C671 C672 1.351 . S
C671 H688 0.930 . S
C672 N668 1.389 . S
C672 C671 1.351 . S
C672 H677 0.930 . S
O673 Cu667 1.974 . S
O673 C683 1.282 . S
C674 O675 1.261 . S
C674 O687 1.251 1_556 S
O675 C674 1.261 . S
H676 C670 0.930 . S
H677 C672 0.930 . S
N678 Cu667 1.985 . S
N678 C680 1.335 . S
N678 C681 1.390 . S
N679 C680 1.345 . S
N679 C682 1.336 . S
C680 N678 1.335 . S
C680 N679 1.345 . S
C680 H685 0.930 . S
C681 N678 1.390 . S
C681 C682 1.346 . S
C681 H686 0.930 . S
C682 N679 1.336 . S
C682 C681 1.346 . S
C682 H689 0.929 . S
C683 O673 1.282 . S
C683 O684 1.216 . S
O684 C683 1.216 . S
H685 C680 0.930 . S
H686 C681 0.930 . S
O687 Cu667 1.959 . S
O687 C674 1.251 1_554 S
H688 C671 0.930 . S
H689 C682 0.929 . S
Cu690 N691 1.999 . S
Cu690 O696 1.974 . S
Cu690 N701 1.985 . S
Cu690 O710 1.959 . S
N691 Cu690 1.999 . S
N691 C693 1.263 . S
N691 C695 1.389 . S
N692 C693 1.358 . S
N692 C694 1.400 . S
C693 N691 1.263 . S
C693 N692 1.358 . S
C693 H699 0.930 . S
C694 N692 1.400 . S
C694 C695 1.351 . S
C694 H711 0.930 . S
C695 N691 1.389 . S
C695 C694 1.351 . S
C695 H700 0.930 . S
O696 Cu690 1.974 . S
O696 C706 1.282 . S
C697 O698 1.261 . S
C697 O710 1.251 . S
O698 C697 1.261 . S
H699 C693 0.930 . S
H700 C695 0.930 . S
N701 Cu690 1.985 . S
N701 C703 1.335 . S
N701 C704 1.390 . S
N702 C703 1.345 . S
N702 C705 1.336 . S
C703 N701 1.335 . S
C703 N702 1.345 . S
C703 H708 0.930 . S
C704 N701 1.390 . S
C704 C705 1.346 . S
C704 H709 0.930 . S
C705 N702 1.336 . S
C705 C704 1.346 . S
C705 H712 0.929 . S
C706 O696 1.282 . S
C706 O707 1.216 . S
O707 C706 1.216 . S
H708 C703 0.930 . S
H709 C704 0.930 . S
O710 Cu690 1.959 . S
O710 C697 1.251 . S
H711 C694 0.930 . S
H712 C705 0.929 . S
Cu713 N714 1.999 . S
Cu713 O719 1.974 . S
Cu713 N724 1.985 . S
Cu713 O733 1.959 . S
N714 Cu713 1.999 . S
N714 C716 1.263 . S
N714 C718 1.389 . S
N715 C716 1.358 . S
N715 C717 1.400 . S
C716 N714 1.263 . S
C716 N715 1.358 . S
C716 H722 0.930 . S
C717 N715 1.400 . S
C717 C718 1.351 . S
C717 H734 0.930 . S
C718 N714 1.389 . S
C718 C717 1.351 . S
C718 H723 0.930 . S
O719 Cu713 1.974 . S
O719 C729 1.282 . S
C720 O721 1.261 . S
C720 O733 1.251 . S
O721 C720 1.261 . S
H722 C716 0.930 . S
H723 C718 0.930 . S
N724 Cu713 1.985 . S
N724 C726 1.335 . S
N724 C727 1.390 . S
N725 C726 1.345 . S
N725 C728 1.336 . S
C726 N724 1.335 . S
C726 N725 1.345 . S
C726 H731 0.930 . S
C727 N724 1.390 . S
C727 C728 1.346 . S
C727 H732 0.930 . S
C728 N725 1.336 . S
C728 C727 1.346 . S
C728 H735 0.929 . S
C729 O719 1.282 . S
C729 O730 1.216 . S
O730 C729 1.216 . S
H731 C726 0.930 . S
H732 C727 0.930 . S
O733 Cu713 1.959 . S
O733 C720 1.251 . S
H734 C717 0.930 . S
H735 C728 0.929 . S
H736 C742 0.930 . S
H737 C745 0.930 . S
H738 C746 0.930 . S
H739 C747 0.930 . S
H740 C750 0.930 . S
H741 C751 0.930 . S
C742 H736 0.930 . S
C742 C743 1.355 . S
C742 C744 1.415 . S
C743 C742 1.355 . S
C743 C745 1.419 . S
C744 C742 1.415 . S
C744 C749 1.425 . S
C744 C751 1.409 . S
C745 H737 0.930 . S
C745 C743 1.419 . S
C745 C746 1.362 . S
C746 H738 0.930 . S
C746 C745 1.362 . S
C746 C749 1.409 . S
C747 H739 0.930 . S
C747 C748 1.355 . S
C747 C749 1.415 . S
C748 C747 1.355 . S
C748 C750 1.419 . S
C749 C744 1.425 . S
C749 C746 1.409 . S
C749 C747 1.415 . S
C750 H740 0.930 . S
C750 C748 1.419 . S
C750 C751 1.362 . S
C751 H741 0.930 . S
C751 C744 1.409 . S
C751 C750 1.362 . S
H752 C758 0.930 . S
H753 C761 0.930 . S
H754 C762 0.930 . S
H755 C763 0.930 . S
H756 C766 0.930 . S
H757 C767 0.930 . S
C758 H752 0.930 . S
C758 C759 1.355 . S
C758 C760 1.415 . S
C759 C758 1.355 . S
C759 C761 1.419 . S
C760 C758 1.415 . S
C760 C765 1.425 . S
C760 C767 1.409 . S
C761 H753 0.930 . S
C761 C759 1.419 . S
C761 C762 1.362 . S
C762 H754 0.930 . S
C762 C761 1.362 . S
C762 C765 1.409 . S
C763 H755 0.930 . S
C763 C764 1.355 . S
C763 C765 1.415 . S
C764 C763 1.355 . S
C764 C766 1.419 . S
C765 C760 1.425 . S
C765 C762 1.409 . S
C765 C763 1.415 . S
C766 H756 0.930 . S
C766 C764 1.419 . S
C766 C767 1.362 . S
C767 H757 0.930 . S
C767 C760 1.409 . S
C767 C766 1.362 . S
H768 C774 0.930 . S
H769 C777 0.930 . S
H770 C778 0.930 . S
H771 C779 0.930 . S
H772 C782 0.930 . S
H773 C783 0.930 . S
C774 H768 0.930 . S
C774 C775 1.355 . S
C774 C776 1.415 . S
C775 C774 1.355 . S
C775 C777 1.419 . S
C776 C774 1.415 . S
C776 C781 1.425 . S
C776 C783 1.409 . S
C777 H769 0.930 . S
C777 C775 1.419 . S
C777 C778 1.362 . S
C778 H770 0.930 . S
C778 C777 1.362 . S
C778 C781 1.409 . S
C779 H771 0.930 . S
C779 C780 1.355 . S
C779 C781 1.415 . S
C780 C779 1.355 . S
C780 C782 1.419 . S
C781 C776 1.425 . S
C781 C778 1.409 . S
C781 C779 1.415 . S
C782 H772 0.930 . S
C782 C780 1.419 . S
C782 C783 1.362 . S
C783 H773 0.930 . S
C783 C776 1.409 . S
C783 C782 1.362 . S
H784 C790 0.930 . S
H785 C793 0.930 . S
H786 C794 0.930 . S
H787 C795 0.930 . S
H788 C798 0.930 . S
H789 C799 0.930 . S
C790 H784 0.930 . S
C790 C791 1.355 . S
C790 C792 1.415 . S
C791 C790 1.355 . S
C791 C793 1.419 . S
C792 C790 1.415 . S
C792 C797 1.425 . S
C792 C799 1.409 . S
C793 H785 0.930 . S
C793 C791 1.419 . S
C793 C794 1.362 . S
C794 H786 0.930 . S
C794 C793 1.362 . S
C794 C797 1.409 . S
C795 H787 0.930 . S
C795 C796 1.355 . S
C795 C797 1.415 . S
C796 C795 1.355 . S
C796 C798 1.419 . S
C797 C792 1.425 . S
C797 C794 1.409 . S
C797 C795 1.415 . S
C798 H788 0.930 . S
C798 C796 1.419 . S
C798 C799 1.362 . S
C799 H789 0.930 . S
C799 C792 1.409 . S
C799 C798 1.362 . S
H800 C806 0.930 . S
H801 C809 0.930 . S
H802 C810 0.930 . S
H803 C811 0.930 . S
H804 C814 0.930 . S
H805 C815 0.930 . S
C806 H800 0.930 . S
C806 C807 1.355 . S
C806 C808 1.415 . S
C807 C806 1.355 . S
C807 C809 1.419 . S
C808 C806 1.415 . S
C808 C813 1.425 . S
C808 C815 1.409 . S
C809 H801 0.930 . S
C809 C807 1.419 . S
C809 C810 1.362 . S
C810 H802 0.930 . S
C810 C809 1.362 . S
C810 C813 1.409 . S
C811 H803 0.930 . S
C811 C812 1.355 . S
C811 C813 1.415 . S
C812 C811 1.355 . S
C812 C814 1.419 . S
C813 C808 1.425 . S
C813 C810 1.409 . S
C813 C811 1.415 . S
C814 H804 0.930 . S
C814 C812 1.419 . S
C814 C815 1.362 . S
C815 H805 0.930 . S
C815 C808 1.409 . S
C815 C814 1.362 . S
H816 C822 0.930 . S
H817 C825 0.930 . S
H818 C826 0.930 . S
H819 C827 0.930 . S
H820 C830 0.930 . S
H821 C831 0.930 . S
C822 H816 0.930 . S
C822 C823 1.355 . S
C822 C824 1.415 . S
C823 C822 1.355 . S
C823 C825 1.419 . S
C824 C822 1.415 . S
C824 C829 1.425 . S
C824 C831 1.409 . S
C825 H817 0.930 . S
C825 C823 1.419 . S
C825 C826 1.362 . S
C826 H818 0.930 . S
C826 C825 1.362 . S
C826 C829 1.409 . S
C827 H819 0.930 . S
C827 C828 1.355 . S
C827 C829 1.415 . S
C828 C827 1.355 . S
C828 C830 1.419 . S
C829 C824 1.425 . S
C829 C826 1.409 . S
C829 C827 1.415 . S
C830 H820 0.930 . S
C830 C828 1.419 . S
C830 C831 1.362 . S
C831 H821 0.930 . S
C831 C824 1.409 . S
C831 C830 1.362 . S
H832 C838 0.930 . S
H833 C841 0.930 . S
H834 C842 0.930 . S
H835 C843 0.930 . S
H836 C846 0.930 . S
H837 C847 0.930 . S
C838 H832 0.930 . S
C838 C839 1.355 . S
C838 C840 1.415 . S
C839 C838 1.355 . S
C839 C841 1.419 . S
C840 C838 1.415 . S
C840 C845 1.425 . S
C840 C847 1.409 . S
C841 H833 0.930 . S
C841 C839 1.419 . S
C841 C842 1.362 . S
C842 H834 0.930 . S
C842 C841 1.362 . S
C842 C845 1.409 . S
C843 H835 0.930 . S
C843 C844 1.355 . S
C843 C845 1.415 . S
C844 C843 1.355 . S
C844 C846 1.419 . S
C845 C840 1.425 . S
C845 C842 1.409 . S
C845 C843 1.415 . S
C846 H836 0.930 . S
C846 C844 1.419 . S
C846 C847 1.362 . S
C847 H837 0.930 . S
C847 C840 1.409 . S
C847 C846 1.362 . S
H848 C854 0.930 . S
H849 C857 0.930 . S
H850 C858 0.930 . S
H851 C859 0.930 . S
H852 C862 0.930 . S
H853 C863 0.930 . S
C854 H848 0.930 . S
C854 C855 1.355 . S
C854 C856 1.415 . S
C855 C854 1.355 . S
C855 C857 1.419 . S
C856 C854 1.415 . S
C856 C861 1.425 . S
C856 C863 1.409 . S
C857 H849 0.930 . S
C857 C855 1.419 . S
C857 C858 1.362 . S
C858 H850 0.930 . S
C858 C857 1.362 . S
C858 C861 1.409 . S
C859 H851 0.930 . S
C859 C860 1.355 . S
C859 C861 1.415 . S
C860 C859 1.355 . S
C860 C862 1.419 . S
C861 C856 1.425 . S
C861 C858 1.409 . S
C861 C859 1.415 . S
C862 H852 0.930 . S
C862 C860 1.419 . S
C862 C863 1.362 . S
C863 H853 0.930 . S
C863 C856 1.409 . S
C863 C862 1.362 . S
H864 C870 0.930 . S
H865 C873 0.930 . S
H866 C874 0.930 . S
H867 C875 0.930 . S
H868 C878 0.930 . S
H869 C879 0.930 . S
C870 H864 0.930 . S
C870 C871 1.355 . S
C870 C872 1.415 . S
C871 C870 1.355 . S
C871 C873 1.419 . S
C872 C870 1.415 . S
C872 C877 1.425 . S
C872 C879 1.409 . S
C873 H865 0.930 . S
C873 C871 1.419 . S
C873 C874 1.362 . S
C874 H866 0.930 . S
C874 C873 1.362 . S
C874 C877 1.409 . S
C875 H867 0.930 . S
C875 C876 1.355 . S
C875 C877 1.415 . S
C876 C875 1.355 . S
C876 C878 1.419 . S
C877 C872 1.425 . S
C877 C874 1.409 . S
C877 C875 1.415 . S
C878 H868 0.930 . S
C878 C876 1.419 . S
C878 C879 1.362 . S
C879 H869 0.930 . S
C879 C872 1.409 . S
C879 C878 1.362 . S
H880 C886 0.930 . S
H881 C889 0.930 . S
H882 C890 0.930 . S
H883 C891 0.930 . S
H884 C894 0.930 . S
H885 C895 0.930 . S
C886 H880 0.930 . S
C886 C887 1.355 . S
C886 C888 1.415 . S
C887 C886 1.355 . S
C887 C889 1.419 . S
C888 C886 1.415 . S
C888 C893 1.425 . S
C888 C895 1.409 . S
C889 H881 0.930 . S
C889 C887 1.419 . S
C889 C890 1.362 . S
C890 H882 0.930 . S
C890 C889 1.362 . S
C890 C893 1.409 . S
C891 H883 0.930 . S
C891 C892 1.355 . S
C891 C893 1.415 . S
C892 C891 1.355 . S
C892 C894 1.419 . S
C893 C888 1.425 . S
C893 C890 1.409 . S
C893 C891 1.415 . S
C894 H884 0.930 . S
C894 C892 1.419 . S
C894 C895 1.362 . S
C895 H885 0.930 . S
C895 C888 1.409 . S
C895 C894 1.362 . S
H896 C902 0.930 . S
H897 C905 0.930 . S
H898 C906 0.930 . S
H899 C907 0.930 . S
H900 C910 0.930 . S
H901 C911 0.930 . S
C902 H896 0.930 . S
C902 C903 1.355 . S
C902 C904 1.415 . S
C903 C902 1.355 . S
C903 C905 1.419 . S
C904 C902 1.415 . S
C904 C909 1.425 . S
C904 C911 1.409 . S
C905 H897 0.930 . S
C905 C903 1.419 . S
C905 C906 1.362 . S
C906 H898 0.930 . S
C906 C905 1.362 . S
C906 C909 1.409 . S
C907 H899 0.930 . S
C907 C908 1.355 . S
C907 C909 1.415 . S
C908 C907 1.355 . S
C908 C910 1.419 . S
C909 C904 1.425 . S
C909 C906 1.409 . S
C909 C907 1.415 . S
C910 H900 0.930 . S
C910 C908 1.419 . S
C910 C911 1.362 . S
C911 H901 0.930 . S
C911 C904 1.409 . S
C911 C910 1.362 . S
H912 C918 0.930 . S
H913 C921 0.930 . S
H914 C922 0.930 . S
H915 C923 0.930 . S
H916 C926 0.930 . S
H917 C927 0.930 . S
C918 H912 0.930 . S
C918 C919 1.355 . S
C918 C920 1.415 . S
C919 C918 1.355 . S
C919 C921 1.419 . S
C920 C918 1.415 . S
C920 C925 1.425 . S
C920 C927 1.409 . S
C921 H913 0.930 . S
C921 C919 1.419 . S
C921 C922 1.362 . S
C922 H914 0.930 . S
C922 C921 1.362 . S
C922 C925 1.409 . S
C923 H915 0.930 . S
C923 C924 1.355 . S
C923 C925 1.415 . S
C924 C923 1.355 . S
C924 C926 1.419 . S
C925 C920 1.425 . S
C925 C922 1.409 . S
C925 C923 1.415 . S
C926 H916 0.930 . S
C926 C924 1.419 . S
C926 C927 1.362 . S
C927 H917 0.930 . S
C927 C920 1.409 . S
C927 C926 1.362 . S
H928 C934 0.930 . S
H929 C937 0.930 . S
H930 C938 0.930 . S
H931 C939 0.930 . S
H932 C942 0.930 . S
H933 C943 0.930 . S
C934 H928 0.930 . S
C934 C935 1.355 . S
C934 C936 1.415 . S
C935 C934 1.355 . S
C935 C937 1.419 . S
C936 C934 1.415 . S
C936 C941 1.425 . S
C936 C943 1.409 . S
C937 H929 0.930 . S
C937 C935 1.419 . S
C937 C938 1.362 . S
C938 H930 0.930 . S
C938 C937 1.362 . S
C938 C941 1.409 . S
C939 H931 0.930 . S
C939 C940 1.355 . S
C939 C941 1.415 . S
C940 C939 1.355 . S
C940 C942 1.419 . S
C941 C936 1.425 . S
C941 C938 1.409 . S
C941 C939 1.415 . S
C942 H932 0.930 . S
C942 C940 1.419 . S
C942 C943 1.362 . S
C943 H933 0.930 . S
C943 C936 1.409 . S
C943 C942 1.362 . S
H944 C950 0.930 . S
H945 C953 0.930 . S
H946 C954 0.930 . S
H947 C955 0.930 . S
H948 C958 0.930 . S
H949 C959 0.930 . S
C950 H944 0.930 . S
C950 C951 1.355 . S
C950 C952 1.415 . S
C951 C950 1.355 . S
C951 C953 1.419 . S
C952 C950 1.415 . S
C952 C957 1.425 . S
C952 C959 1.409 . S
C953 H945 0.930 . S
C953 C951 1.419 . S
C953 C954 1.362 . S
C954 H946 0.930 . S
C954 C953 1.362 . S
C954 C957 1.409 . S
C955 H947 0.930 . S
C955 C956 1.355 . S
C955 C957 1.415 . S
C956 C955 1.355 . S
C956 C958 1.419 . S
C957 C952 1.425 . S
C957 C954 1.409 . S
C957 C955 1.415 . S
C958 H948 0.930 . S
C958 C956 1.419 . S
C958 C959 1.362 . S
C959 H949 0.930 . S
C959 C952 1.409 . S
C959 C958 1.362 . S
H960 C966 0.930 . S
H961 C969 0.930 . S
H962 C970 0.930 . S
H963 C971 0.930 . S
H964 C974 0.930 . S
H965 C975 0.930 . S
C966 H960 0.930 . S
C966 C967 1.355 . S
C966 C968 1.415 . S
C967 C966 1.355 . S
C967 C969 1.419 . S
C968 C966 1.415 . S
C968 C973 1.425 . S
C968 C975 1.409 . S
C969 H961 0.930 . S
C969 C967 1.419 . S
C969 C970 1.362 . S
C970 H962 0.930 . S
C970 C969 1.362 . S
C970 C973 1.409 . S
C971 H963 0.930 . S
C971 C972 1.355 . S
C971 C973 1.415 . S
C972 C971 1.355 . S
C972 C974 1.419 . S
C973 C968 1.425 . S
C973 C970 1.409 . S
C973 C971 1.415 . S
C974 H964 0.930 . S
C974 C972 1.419 . S
C974 C975 1.362 . S
C975 H965 0.930 . S
C975 C968 1.409 . S
C975 C974 1.362 . S
H976 C982 0.930 . S
H977 C985 0.930 . S
H978 C986 0.930 . S
H979 C987 0.930 . S
H980 C990 0.930 . S
H981 C991 0.930 . S
C982 H976 0.930 . S
C982 C983 1.355 . S
C982 C984 1.415 . S
C983 C982 1.355 . S
C983 C985 1.419 . S
C984 C982 1.415 . S
C984 C989 1.425 . S
C984 C991 1.409 . S
C985 H977 0.930 . S
C985 C983 1.419 . S
C985 C986 1.362 . S
C986 H978 0.930 . S
C986 C985 1.362 . S
C986 C989 1.409 . S
C987 H979 0.930 . S
C987 C988 1.355 . S
C987 C989 1.415 . S
C988 C987 1.355 . S
C988 C990 1.419 . S
C989 C984 1.425 . S
C989 C986 1.409 . S
C989 C987 1.415 . S
C990 H980 0.930 . S
C990 C988 1.419 . S
C990 C991 1.362 . S
C991 H981 0.930 . S
C991 C984 1.409 . S
C991 C990 1.362 . S
H992 C998 0.930 . S
H993 C1001 0.930 . S
H994 C1002 0.930 . S
H995 C1003 0.930 . S
H996 C1006 0.930 . S
H997 C1007 0.930 . S
C998 H992 0.930 . S
C998 C999 1.355 . S
C998 C1000 1.415 . S
C999 C998 1.355 . S
C999 C1001 1.419 . S
C1000 C998 1.415 . S
C1000 C1005 1.425 . S
C1000 C1007 1.409 . S
C1001 H993 0.930 . S
C1001 C999 1.419 . S
C1001 C1002 1.362 . S
C1002 H994 0.930 . S
C1002 C1001 1.362 . S
C1002 C1005 1.409 . S
C1003 H995 0.930 . S
C1003 C1004 1.355 . S
C1003 C1005 1.415 . S
C1004 C1003 1.355 . S
C1004 C1006 1.419 . S
C1005 C1000 1.425 . S
C1005 C1002 1.409 . S
C1005 C1003 1.415 . S
C1006 H996 0.930 . S
C1006 C1004 1.419 . S
C1006 C1007 1.362 . S
C1007 H997 0.930 . S
C1007 C1000 1.409 . S
C1007 C1006 1.362 . S
H1008 C1014 0.930 . S
H1009 C1017 0.930 . S
H1010 C1018 0.930 . S
H1011 C1019 0.930 . S
H1012 C1022 0.930 . S
H1013 C1023 0.927 1_455 S
C1014 H1008 0.930 . S
C1014 C1015 1.355 . S
C1014 C1016 1.415 . S
C1015 C1014 1.355 . S
C1015 C1017 1.419 . S
C1016 C1014 1.415 . S
C1016 C1021 1.425 . S
C1016 C1023 1.428 . S
C1017 H1009 0.930 . S
C1017 C1015 1.419 . S
C1017 C1018 1.362 . S
C1018 H1010 0.930 . S
C1018 C1017 1.362 . S
C1018 C1021 1.409 . S
C1019 H1011 0.930 . S
C1019 C1020 1.355 1_655 S
C1019 C1021 1.415 . S
C1020 C1019 1.355 1_455 S
C1020 C1022 1.419 . S
C1021 C1016 1.425 . S
C1021 C1018 1.409 . S
C1021 C1019 1.415 . S
C1022 H1012 0.930 . S
C1022 C1020 1.419 . S
C1022 C1023 1.347 1_455 S
C1023 H1013 0.927 1_655 S
C1023 C1016 1.428 . S
C1023 C1022 1.347 1_655 S
H1024 C1030 0.930 . S
H1025 C1033 0.930 . S
H1026 C1034 0.930 . S
H1027 C1035 0.930 . S
H1028 C1038 0.930 . S
H1029 C1039 0.930 . S
C1030 H1024 0.930 . S
C1030 C1031 1.355 . S
C1030 C1032 1.415 . S
C1031 C1030 1.355 . S
C1031 C1033 1.419 . S
C1032 C1030 1.415 . S
C1032 C1037 1.425 . S
C1032 C1039 1.409 . S
C1033 H1025 0.930 . S
C1033 C1031 1.419 . S
C1033 C1034 1.362 . S
C1034 H1026 0.930 . S
C1034 C1033 1.362 . S
C1034 C1037 1.409 . S
C1035 H1027 0.930 . S
C1035 C1036 1.355 . S
C1035 C1037 1.415 . S
C1036 C1035 1.355 . S
C1036 C1038 1.419 . S
C1037 C1032 1.425 . S
C1037 C1034 1.409 . S
C1037 C1035 1.415 . S
C1038 H1028 0.930 . S
C1038 C1036 1.419 . S
C1038 C1039 1.362 . S
C1039 H1029 0.930 . S
C1039 C1032 1.409 . S
C1039 C1038 1.362 . S
H1040 C1046 0.930 . S
H1041 C1049 0.930 . S
H1042 C1050 0.930 . S
H1043 C1051 0.930 . S
H1044 C1054 0.930 . S
H1045 C1055 0.930 . S
C1046 H1040 0.930 . S
C1046 C1047 1.355 . S
C1046 C1048 1.415 . S
C1047 C1046 1.355 . S
C1047 C1049 1.419 . S
C1048 C1046 1.415 . S
C1048 C1053 1.425 . S
C1048 C1055 1.409 . S
C1049 H1041 0.930 . S
C1049 C1047 1.419 . S
C1049 C1050 1.362 . S
C1050 H1042 0.930 . S
C1050 C1049 1.362 . S
C1050 C1053 1.409 . S
C1051 H1043 0.930 . S
C1051 C1052 1.355 . S
C1051 C1053 1.415 . S
C1052 C1051 1.355 . S
C1052 C1054 1.419 . S
C1053 C1048 1.425 . S
C1053 C1050 1.409 . S
C1053 C1051 1.415 . S
C1054 H1044 0.930 . S
C1054 C1052 1.419 . S
C1054 C1055 1.362 . S
C1055 H1045 0.930 . S
C1055 C1048 1.409 . S
C1055 C1054 1.362 . S
H1056 C1062 0.930 . S
H1057 C1065 0.930 . S
H1058 C1066 0.930 . S
H1059 C1067 0.930 . S
H1060 C1070 0.930 . S
H1061 C1071 0.930 . S
C1062 H1056 0.930 . S
C1062 C1063 1.355 . S
C1062 C1064 1.415 . S
C1063 C1062 1.355 . S
C1063 C1065 1.419 . S
C1064 C1062 1.415 . S
C1064 C1069 1.425 . S
C1064 C1071 1.409 . S
C1065 H1057 0.930 . S
C1065 C1063 1.419 . S
C1065 C1066 1.362 . S
C1066 H1058 0.930 . S
C1066 C1065 1.362 . S
C1066 C1069 1.409 . S
C1067 H1059 0.930 . S
C1067 C1068 1.355 . S
C1067 C1069 1.415 . S
C1068 C1067 1.355 . S
C1068 C1070 1.419 . S
C1069 C1064 1.425 . S
C1069 C1066 1.409 . S
C1069 C1067 1.415 . S
C1070 H1060 0.930 . S
C1070 C1068 1.419 . S
C1070 C1071 1.362 . S
C1071 H1061 0.930 . S
C1071 C1064 1.409 . S
C1071 C1070 1.362 . S
H1072 C1078 0.930 . S
H1073 C1081 0.930 . S
H1074 C1082 0.930 . S
H1075 C1083 0.930 . S
H1076 C1086 0.930 . S
H1077 C1087 0.930 . S
C1078 H1072 0.930 . S
C1078 C1079 1.355 . S
C1078 C1080 1.415 . S
C1079 C1078 1.355 . S
C1079 C1081 1.419 . S
C1080 C1078 1.415 . S
C1080 C1085 1.425 . S
C1080 C1087 1.409 . S
C1081 H1073 0.930 . S
C1081 C1079 1.419 . S
C1081 C1082 1.362 . S
C1082 H1074 0.930 . S
C1082 C1081 1.362 . S
C1082 C1085 1.409 . S
C1083 H1075 0.930 . S
C1083 C1084 1.355 . S
C1083 C1085 1.415 . S
C1084 C1083 1.355 . S
C1084 C1086 1.419 . S
C1085 C1080 1.425 . S
C1085 C1082 1.409 . S
C1085 C1083 1.415 . S
C1086 H1076 0.930 . S
C1086 C1084 1.419 . S
C1086 C1087 1.362 . S
C1087 H1077 0.930 . S
C1087 C1080 1.409 . S
C1087 C1086 1.362 . S
H1088 C1094 0.930 . S
H1089 C1097 0.930 . S
H1090 C1098 0.930 . S
H1091 C1099 0.930 . S
H1092 C1102 0.930 . S
H1093 C1103 0.930 . S
C1094 H1088 0.930 . S
C1094 C1095 1.355 . S
C1094 C1096 1.415 . S
C1095 C1094 1.355 . S
C1095 C1097 1.419 . S
C1096 C1094 1.415 . S
C1096 C1101 1.425 . S
C1096 C1103 1.409 . S
C1097 H1089 0.930 . S
C1097 C1095 1.419 . S
C1097 C1098 1.362 . S
C1098 H1090 0.930 . S
C1098 C1097 1.362 . S
C1098 C1101 1.409 . S
C1099 H1091 0.930 . S
C1099 C1100 1.355 . S
C1099 C1101 1.415 . S
C1100 C1099 1.355 . S
C1100 C1102 1.419 . S
C1101 C1096 1.425 . S
C1101 C1098 1.409 . S
C1101 C1099 1.415 . S
C1102 H1092 0.930 . S
C1102 C1100 1.419 . S
C1102 C1103 1.362 . S
C1103 H1093 0.930 . S
C1103 C1096 1.409 . S
C1103 C1102 1.362 . S
H1104 C1110 0.923 1_455 S
H1105 C1113 0.930 . S
H1106 C1114 0.930 . S
H1107 C1115 0.930 . S
H1108 C1118 0.930 . S
H1109 C1119 0.930 . S
C1110 H1104 0.923 1_655 S
C1110 C1111 1.344 1_655 S
C1110 C1112 1.432 . S
C1111 C1110 1.344 1_455 S
C1111 C1113 1.419 . S
C1112 C1110 1.432 . S
C1112 C1117 1.425 . S
C1112 C1119 1.409 . S
C1113 H1105 0.930 . S
C1113 C1111 1.419 . S
C1113 C1114 1.362 1_455 S
C1114 H1106 0.930 . S
C1114 C1113 1.362 1_655 S
C1114 C1117 1.409 . S
C1115 H1107 0.930 . S
C1115 C1116 1.355 . S
C1115 C1117 1.415 . S
C1116 C1115 1.355 . S
C1116 C1118 1.419 . S
C1117 C1112 1.425 . S
C1117 C1114 1.409 . S
C1117 C1115 1.415 . S
C1118 H1108 0.930 . S
C1118 C1116 1.419 . S
C1118 C1119 1.362 . S
C1119 H1109 0.930 . S
C1119 C1112 1.409 . S
C1119 C1118 1.362 . S
H1120 C1126 0.930 . S
H1121 C1129 0.930 . S
H1122 C1130 0.930 . S
H1123 C1131 0.930 . S
H1124 C1134 0.930 . S
H1125 C1135 0.930 . S
C1126 H1120 0.930 . S
C1126 C1127 1.355 . S
C1126 C1128 1.415 . S
C1127 C1126 1.355 . S
C1127 C1129 1.419 . S
C1128 C1126 1.415 . S
C1128 C1133 1.425 . S
C1128 C1135 1.409 . S
C1129 H1121 0.930 . S
C1129 C1127 1.419 . S
C1129 C1130 1.362 . S
C1130 H1122 0.930 . S
C1130 C1129 1.362 . S
C1130 C1133 1.409 . S
C1131 H1123 0.930 . S
C1131 C1132 1.355 . S
C1131 C1133 1.415 . S
C1132 C1131 1.355 . S
C1132 C1134 1.419 . S
C1133 C1128 1.425 . S
C1133 C1130 1.409 . S
C1133 C1131 1.415 . S
C1134 H1124 0.930 . S
C1134 C1132 1.419 . S
C1134 C1135 1.362 . S
C1135 H1125 0.930 . S
C1135 C1128 1.409 . S
C1135 C1134 1.362 . S
H1136 C1142 0.930 . S
H1137 C1145 0.930 . S
H1138 C1146 0.930 . S
H1139 C1147 0.930 . S
H1140 C1150 0.930 . S
H1141 C1151 0.930 . S
C1142 H1136 0.930 . S
C1142 C1143 1.355 . S
C1142 C1144 1.415 . S
C1143 C1142 1.355 . S
C1143 C1145 1.419 . S
C1144 C1142 1.415 . S
C1144 C1149 1.425 . S
C1144 C1151 1.409 1_655 S
C1145 H1137 0.930 . S
C1145 C1143 1.419 . S
C1145 C1146 1.362 . S
C1146 H1138 0.930 . S
C1146 C1145 1.362 . S
C1146 C1149 1.409 . S
C1147 H1139 0.930 . S
C1147 C1148 1.355 . S
C1147 C1149 1.415 1_455 S
C1148 C1147 1.355 . S
C1148 C1150 1.419 . S
C1149 C1144 1.425 . S
C1149 C1146 1.409 . S
C1149 C1147 1.415 1_655 S
C1150 H1140 0.930 . S
C1150 C1148 1.419 . S
C1150 C1151 1.362 . S
C1151 H1141 0.930 . S
C1151 C1144 1.409 1_455 S
C1151 C1150 1.362 . S
H1152 C1158 0.930 . S
H1153 C1161 0.930 . S
H1154 C1162 0.930 . S
H1155 C1163 0.930 . S
H1156 C1166 0.930 . S
H1157 C1167 0.930 . S
C1158 H1152 0.930 . S
C1158 C1159 1.355 . S
C1158 C1160 1.415 . S
C1159 C1158 1.355 . S
C1159 C1161 1.419 . S
C1160 C1158 1.415 . S
C1160 C1165 1.425 . S
C1160 C1167 1.409 . S
C1161 H1153 0.930 . S
C1161 C1159 1.419 . S
C1161 C1162 1.362 . S
C1162 H1154 0.930 . S
C1162 C1161 1.362 . S
C1162 C1165 1.409 . S
C1163 H1155 0.930 . S
C1163 C1164 1.355 . S
C1163 C1165 1.415 . S
C1164 C1163 1.355 . S
C1164 C1166 1.419 . S
C1165 C1160 1.425 . S
C1165 C1162 1.409 . S
C1165 C1163 1.415 . S
C1166 H1156 0.930 . S
C1166 C1164 1.419 . S
C1166 C1167 1.362 . S
C1167 H1157 0.930 . S
C1167 C1160 1.409 . S
C1167 C1166 1.362 . S
H1168 C1174 0.930 . S
H1169 C1177 0.930 . S
H1170 C1178 0.930 . S
H1171 C1179 0.930 . S
H1172 C1182 0.930 . S
H1173 C1183 0.930 . S
C1174 H1168 0.930 . S
C1174 C1175 1.355 . S
C1174 C1176 1.415 . S
C1175 C1174 1.355 . S
C1175 C1177 1.419 . S
C1176 C1174 1.415 . S
C1176 C1181 1.425 . S
C1176 C1183 1.409 . S
C1177 H1169 0.930 . S
C1177 C1175 1.419 . S
C1177 C1178 1.362 . S
C1178 H1170 0.930 . S
C1178 C1177 1.362 . S
C1178 C1181 1.409 . S
C1179 H1171 0.930 . S
C1179 C1180 1.355 . S
C1179 C1181 1.415 . S
C1180 C1179 1.355 . S
C1180 C1182 1.419 . S
C1181 C1176 1.425 . S
C1181 C1178 1.409 . S
C1181 C1179 1.415 . S
C1182 H1172 0.930 . S
C1182 C1180 1.419 . S
C1182 C1183 1.362 . S
C1183 H1173 0.930 . S
C1183 C1176 1.409 . S
C1183 C1182 1.362 . S
H1184 C1190 0.930 . S
H1185 C1193 0.930 . S
H1186 C1194 0.930 . S
H1187 C1195 0.930 . S
H1188 C1198 0.930 . S
H1189 C1199 0.930 . S
C1190 H1184 0.930 . S
C1190 C1191 1.355 . S
C1190 C1192 1.415 . S
C1191 C1190 1.355 . S
C1191 C1193 1.419 . S
C1192 C1190 1.415 . S
C1192 C1197 1.425 . S
C1192 C1199 1.409 . S
C1193 H1185 0.930 . S
C1193 C1191 1.419 . S
C1193 C1194 1.362 . S
C1194 H1186 0.930 . S
C1194 C1193 1.362 . S
C1194 C1197 1.409 . S
C1195 H1187 0.930 . S
C1195 C1196 1.355 . S
C1195 C1197 1.415 . S
C1196 C1195 1.355 . S
C1196 C1198 1.419 . S
C1197 C1192 1.425 . S
C1197 C1194 1.409 . S
C1197 C1195 1.415 . S
C1198 H1188 0.930 . S
C1198 C1196 1.419 . S
C1198 C1199 1.362 . S
C1199 H1189 0.930 . S
C1199 C1192 1.409 . S
C1199 C1198 1.362 . S
H1200 C1206 0.930 . S
H1201 C1209 0.930 . S
H1202 C1210 0.930 . S
H1203 C1211 0.930 . S
H1204 C1214 0.930 . S
H1205 C1215 0.930 . S
C1206 H1200 0.930 . S
C1206 C1207 1.355 . S
C1206 C1208 1.415 . S
C1207 C1206 1.355 . S
C1207 C1209 1.419 . S
C1208 C1206 1.415 . S
C1208 C1213 1.425 . S
C1208 C1215 1.409 . S
C1209 H1201 0.930 . S
C1209 C1207 1.419 . S
C1209 C1210 1.362 . S
C1210 H1202 0.930 . S
C1210 C1209 1.362 . S
C1210 C1213 1.409 . S
C1211 H1203 0.930 . S
C1211 C1212 1.355 . S
C1211 C1213 1.415 . S
C1212 C1211 1.355 . S
C1212 C1214 1.419 . S
C1213 C1208 1.425 . S
C1213 C1210 1.409 . S
C1213 C1211 1.415 . S
C1214 H1204 0.930 . S
C1214 C1212 1.419 . S
C1214 C1215 1.362 . S
C1215 H1205 0.930 . S
C1215 C1208 1.409 . S
C1215 C1214 1.362 . S
H1216 C1222 0.930 . S
H1217 C1225 0.930 . S
H1218 C1226 0.930 . S
H1219 C1227 0.930 . S
H1220 C1230 0.930 . S
H1221 C1231 0.930 . S
C1222 H1216 0.930 . S
C1222 C1223 1.355 . S
C1222 C1224 1.415 . S
C1223 C1222 1.355 . S
C1223 C1225 1.419 . S
C1224 C1222 1.415 . S
C1224 C1229 1.425 . S
C1224 C1231 1.409 . S
C1225 H1217 0.930 . S
C1225 C1223 1.419 . S
C1225 C1226 1.362 . S
C1226 H1218 0.930 . S
C1226 C1225 1.362 . S
C1226 C1229 1.409 . S
C1227 H1219 0.930 . S
C1227 C1228 1.355 . S
C1227 C1229 1.415 . S
C1228 C1227 1.355 . S
C1228 C1230 1.419 . S
C1229 C1224 1.425 . S
C1229 C1226 1.409 . S
C1229 C1227 1.415 . S
C1230 H1220 0.930 . S
C1230 C1228 1.419 . S
C1230 C1231 1.362 . S
C1231 H1221 0.930 . S
C1231 C1224 1.409 . S
C1231 C1230 1.362 . S
H1232 C1238 0.930 . S
H1233 C1241 0.930 . S
H1234 C1242 0.930 . S
H1235 C1243 0.930 . S
H1236 C1246 0.930 . S
H1237 C1247 0.930 . S
C1238 H1232 0.930 . S
C1238 C1239 1.355 . S
C1238 C1240 1.415 1_455 S
C1239 C1238 1.355 . S
C1239 C1241 1.419 . S
C1240 C1238 1.415 1_655 S
C1240 C1245 1.425 . S
C1240 C1247 1.409 . S
C1241 H1233 0.930 . S
C1241 C1239 1.419 . S
C1241 C1242 1.362 . S
C1242 H1234 0.930 . S
C1242 C1241 1.362 . S
C1242 C1245 1.409 1_455 S
C1243 H1235 0.930 . S
C1243 C1244 1.355 . S
C1243 C1245 1.415 . S
C1244 C1243 1.355 . S
C1244 C1246 1.419 . S
C1245 C1240 1.425 . S
C1245 C1242 1.409 1_655 S
C1245 C1243 1.415 . S
C1246 H1236 0.930 . S
C1246 C1244 1.419 . S
C1246 C1247 1.362 . S
C1247 H1237 0.930 . S
C1247 C1240 1.409 . S
C1247 C1246 1.362 . S
H1248 C1254 0.930 . S
H1249 C1257 0.930 . S
H1250 C1258 0.930 . S
H1251 C1259 0.930 . S
H1252 C1262 0.930 . S
H1253 C1263 0.930 . S
C1254 H1248 0.930 . S
C1254 C1255 1.355 . S
C1254 C1256 1.415 . S
C1255 C1254 1.355 . S
C1255 C1257 1.419 . S
C1256 C1254 1.415 . S
C1256 C1261 1.425 . S
C1256 C1263 1.409 . S
C1257 H1249 0.930 . S
C1257 C1255 1.419 . S
C1257 C1258 1.362 . S
C1258 H1250 0.930 . S
C1258 C1257 1.362 . S
C1258 C1261 1.409 . S
C1259 H1251 0.930 . S
C1259 C1260 1.355 . S
C1259 C1261 1.415 . S
C1260 C1259 1.355 . S
C1260 C1262 1.419 . S
C1261 C1256 1.425 . S
C1261 C1258 1.409 . S
C1261 C1259 1.415 . S
C1262 H1252 0.930 . S
C1262 C1260 1.419 . S
C1262 C1263 1.362 . S
C1263 H1253 0.930 . S
C1263 C1256 1.409 . S
C1263 C1262 1.362 . S
H1264 C1270 0.930 . S
H1265 C1273 0.930 . S
H1266 C1274 0.930 . S
H1267 C1275 0.930 . S
H1268 C1278 0.930 . S
H1269 C1279 0.930 . S
C1270 H1264 0.930 . S
C1270 C1271 1.355 . S
C1270 C1272 1.415 . S
C1271 C1270 1.355 . S
C1271 C1273 1.419 . S
C1272 C1270 1.415 . S
C1272 C1277 1.425 . S
C1272 C1279 1.409 . S
C1273 H1265 0.930 . S
C1273 C1271 1.419 . S
C1273 C1274 1.362 . S
C1274 H1266 0.930 . S
C1274 C1273 1.362 . S
C1274 C1277 1.409 . S
C1275 H1267 0.930 . S
C1275 C1276 1.355 . S
C1275 C1277 1.415 . S
C1276 C1275 1.355 . S
C1276 C1278 1.419 . S
C1277 C1272 1.425 . S
C1277 C1274 1.409 . S
C1277 C1275 1.415 . S
C1278 H1268 0.930 . S
C1278 C1276 1.419 . S
C1278 C1279 1.362 . S
C1279 H1269 0.930 . S
C1279 C1272 1.409 . S
C1279 C1278 1.362 . S
H1280 C1286 0.930 . S
H1281 C1289 0.930 . S
H1282 C1290 0.930 . S
H1283 C1291 0.930 . S
H1284 C1294 0.930 . S
H1285 C1295 0.930 . S
C1286 H1280 0.930 . S
C1286 C1287 1.355 . S
C1286 C1288 1.415 . S
C1287 C1286 1.355 . S
C1287 C1289 1.419 . S
C1288 C1286 1.415 . S
C1288 C1293 1.425 . S
C1288 C1295 1.409 . S
C1289 H1281 0.930 . S
C1289 C1287 1.419 . S
C1289 C1290 1.362 . S
C1290 H1282 0.930 . S
C1290 C1289 1.362 . S
C1290 C1293 1.409 . S
C1291 H1283 0.930 . S
C1291 C1292 1.355 . S
C1291 C1293 1.415 . S
C1292 C1291 1.355 . S
C1292 C1294 1.419 . S
C1293 C1288 1.425 . S
C1293 C1290 1.409 . S
C1293 C1291 1.415 . S
C1294 H1284 0.930 . S
C1294 C1292 1.419 . S
C1294 C1295 1.362 . S
C1295 H1285 0.930 . S
C1295 C1288 1.409 . S
C1295 C1294 1.362 . S
H1296 C1302 0.930 . S
H1297 C1305 0.930 . S
H1298 C1306 0.930 . S
H1299 C1307 0.930 . S
H1300 C1310 0.930 . S
H1301 C1311 0.930 . S
C1302 H1296 0.930 . S
C1302 C1303 1.355 . S
C1302 C1304 1.415 . S
C1303 C1302 1.355 . S
C1303 C1305 1.419 . S
C1304 C1302 1.415 . S
C1304 C1309 1.425 . S
C1304 C1311 1.410 1_455 S
C1305 H1297 0.930 . S
C1305 C1303 1.419 . S
C1305 C1306 1.362 . S
C1306 H1298 0.930 . S
C1306 C1305 1.362 . S
C1306 C1309 1.409 . S
C1307 H1299 0.930 . S
C1307 C1308 1.355 1_455 S
C1307 C1309 1.415 . S
C1308 C1307 1.355 1_655 S
C1308 C1310 1.419 . S
C1309 C1304 1.425 . S
C1309 C1306 1.409 . S
C1309 C1307 1.415 . S
C1310 H1300 0.930 . S
C1310 C1308 1.419 . S
C1310 C1311 1.361 . S
C1311 H1301 0.930 . S
C1311 C1304 1.410 1_655 S
C1311 C1310 1.361 . S
H1312 C1318 0.930 . S
H1313 C1321 0.930 . S
H1314 C1322 0.930 . S
H1315 C1323 0.930 . S
H1316 C1326 0.930 . S
H1317 C1327 0.930 . S
C1318 H1312 0.930 . S
C1318 C1319 1.355 . S
C1318 C1320 1.415 . S
C1319 C1318 1.355 . S
C1319 C1321 1.419 . S
C1320 C1318 1.415 . S
C1320 C1325 1.425 . S
C1320 C1327 1.409 . S
C1321 H1313 0.930 . S
C1321 C1319 1.419 . S
C1321 C1322 1.362 . S
C1322 H1314 0.930 . S
C1322 C1321 1.362 . S
C1322 C1325 1.409 . S
C1323 H1315 0.930 . S
C1323 C1324 1.355 . S
C1323 C1325 1.415 . S
C1324 C1323 1.355 . S
C1324 C1326 1.419 . S
C1325 C1320 1.425 . S
C1325 C1322 1.409 . S
C1325 C1323 1.415 . S
C1326 H1316 0.930 . S
C1326 C1324 1.419 . S
C1326 C1327 1.362 . S
C1327 H1317 0.930 . S
C1327 C1320 1.409 . S
C1327 C1326 1.362 . S
H1328 C1334 0.930 . S
H1329 C1337 0.930 . S
H1330 C1338 0.930 . S
H1331 C1339 0.930 . S
H1332 C1342 0.930 . S
H1333 C1343 0.930 . S
C1334 H1328 0.930 . S
C1334 C1335 1.355 . S
C1334 C1336 1.415 1_655 S
C1335 C1334 1.355 . S
C1335 C1337 1.419 1_655 S
C1336 C1334 1.415 1_455 S
C1336 C1341 1.425 . S
C1336 C1343 1.409 . S
C1337 H1329 0.930 . S
C1337 C1335 1.419 1_455 S
C1337 C1338 1.362 . S
C1338 H1330 0.930 . S
C1338 C1337 1.362 . S
C1338 C1341 1.409 . S
C1339 H1331 0.930 . S
C1339 C1340 1.355 . S
C1339 C1341 1.415 . S
C1340 C1339 1.355 . S
C1340 C1342 1.419 . S
C1341 C1336 1.425 . S
C1341 C1338 1.409 . S
C1341 C1339 1.415 . S
C1342 H1332 0.930 . S
C1342 C1340 1.419 . S
C1342 C1343 1.362 . S
C1343 H1333 0.930 . S
C1343 C1336 1.409 . S
C1343 C1342 1.362 . S
H1344 C1350 0.930 . S
H1345 C1353 0.930 . S
H1346 C1354 0.930 . S
H1347 C1355 0.930 . S
H1348 C1358 0.930 . S
H1349 C1359 0.930 . S
C1350 H1344 0.930 . S
C1350 C1351 1.355 . S
C1350 C1352 1.415 . S
C1351 C1350 1.355 . S
C1351 C1353 1.419 . S
C1352 C1350 1.415 . S
C1352 C1357 1.425 . S
C1352 C1359 1.409 . S
C1353 H1345 0.930 . S
C1353 C1351 1.419 . S
C1353 C1354 1.362 . S
C1354 H1346 0.930 . S
C1354 C1353 1.362 . S
C1354 C1357 1.409 . S
C1355 H1347 0.930 . S
C1355 C1356 1.355 . S
C1355 C1357 1.415 . S
C1356 C1355 1.355 . S
C1356 C1358 1.419 . S
C1357 C1352 1.425 . S
C1357 C1354 1.409 . S
C1357 C1355 1.415 . S
C1358 H1348 0.930 . S
C1358 C1356 1.419 . S
C1358 C1359 1.362 . S
C1359 H1349 0.930 . S
C1359 C1352 1.409 . S
C1359 C1358 1.362 . S
H1360 C1366 0.930 . S
H1361 C1369 0.930 . S
H1362 C1370 0.930 . S
H1363 C1371 0.930 . S
H1364 C1374 0.930 . S
H1365 C1375 0.930 . S
C1366 H1360 0.930 . S
C1366 C1367 1.355 . S
C1366 C1368 1.415 . S
C1367 C1366 1.355 . S
C1367 C1369 1.419 . S
C1368 C1366 1.415 . S
C1368 C1373 1.425 . S
C1368 C1375 1.409 . S
C1369 H1361 0.930 . S
C1369 C1367 1.419 . S
C1369 C1370 1.362 . S
C1370 H1362 0.930 . S
C1370 C1369 1.362 . S
C1370 C1373 1.409 . S
C1371 H1363 0.930 . S
C1371 C1372 1.355 . S
C1371 C1373 1.415 . S
C1372 C1371 1.355 . S
C1372 C1374 1.419 . S
C1373 C1368 1.425 . S
C1373 C1370 1.409 . S
C1373 C1371 1.415 . S
C1374 H1364 0.930 . S
C1374 C1372 1.419 . S
C1374 C1375 1.362 . S
C1375 H1365 0.930 . S
C1375 C1368 1.409 . S
C1375 C1374 1.362 . S
H1376 C1382 0.930 . S
H1377 C1385 0.930 . S
H1378 C1386 0.930 . S
H1379 C1387 0.930 . S
H1380 C1390 0.930 . S
H1381 C1391 0.930 . S
C1382 H1376 0.930 . S
C1382 C1383 1.355 . S
C1382 C1384 1.415 . S
C1383 C1382 1.355 . S
C1383 C1385 1.419 . S
C1384 C1382 1.415 . S
C1384 C1389 1.425 . S
C1384 C1391 1.409 . S
C1385 H1377 0.930 . S
C1385 C1383 1.419 . S
C1385 C1386 1.362 . S
C1386 H1378 0.930 . S
C1386 C1385 1.362 . S
C1386 C1389 1.409 . S
C1387 H1379 0.930 . S
C1387 C1388 1.355 . S
C1387 C1389 1.415 . S
C1388 C1387 1.355 . S
C1388 C1390 1.419 . S
C1389 C1384 1.425 . S
C1389 C1386 1.409 . S
C1389 C1387 1.415 . S
C1390 H1380 0.930 . S
C1390 C1388 1.419 . S
C1390 C1391 1.362 . S
C1391 H1381 0.930 . S
C1391 C1384 1.409 . S
C1391 C1390 1.362 . S
H1392 C1398 0.930 . S
H1393 C1401 0.930 . S
H1394 C1402 0.930 . S
H1395 C1403 0.930 . S
H1396 C1406 0.930 . S
H1397 C1407 0.930 . S
C1398 H1392 0.930 . S
C1398 C1399 1.355 . S
C1398 C1400 1.415 . S
C1399 C1398 1.355 . S
C1399 C1401 1.419 . S
C1400 C1398 1.415 . S
C1400 C1405 1.425 . S
C1400 C1407 1.409 . S
C1401 H1393 0.930 . S
C1401 C1399 1.419 . S
C1401 C1402 1.362 . S
C1402 H1394 0.930 . S
C1402 C1401 1.362 . S
C1402 C1405 1.409 . S
C1403 H1395 0.930 . S
C1403 C1404 1.355 . S
C1403 C1405 1.415 . S
C1404 C1403 1.355 . S
C1404 C1406 1.419 . S
C1405 C1400 1.425 . S
C1405 C1402 1.409 . S
C1405 C1403 1.415 . S
C1406 H1396 0.930 . S
C1406 C1404 1.419 . S
C1406 C1407 1.362 . S
C1407 H1397 0.930 . S
C1407 C1400 1.409 . S
C1407 C1406 1.362 . S
H1408 C1414 0.930 . S
H1409 C1417 0.930 . S
H1410 C1418 0.930 . S
H1411 C1419 0.930 . S
H1412 C1422 0.930 . S
H1413 C1423 0.930 . S
C1414 H1408 0.930 . S
C1414 C1415 1.355 . S
C1414 C1416 1.415 . S
C1415 C1414 1.355 . S
C1415 C1417 1.419 . S
C1416 C1414 1.415 . S
C1416 C1421 1.425 . S
C1416 C1423 1.409 . S
C1417 H1409 0.930 . S
C1417 C1415 1.419 . S
C1417 C1418 1.362 . S
C1418 H1410 0.930 . S
C1418 C1417 1.362 . S
C1418 C1421 1.409 . S
C1419 H1411 0.930 . S
C1419 C1420 1.355 . S
C1419 C1421 1.415 . S
C1420 C1419 1.355 . S
C1420 C1422 1.419 . S
C1421 C1416 1.425 . S
C1421 C1418 1.409 . S
C1421 C1419 1.415 . S
C1422 H1412 0.930 . S
C1422 C1420 1.419 . S
C1422 C1423 1.362 . S
C1423 H1413 0.930 . S
C1423 C1416 1.409 . S
C1423 C1422 1.362 . S
H1424 C1430 0.930 . S
H1425 C1433 0.930 . S
H1426 C1434 0.930 . S
H1427 C1435 0.930 . S
H1428 C1438 0.930 . S
H1429 C1439 0.927 1_655 S
C1430 H1424 0.930 . S
C1430 C1431 1.355 . S
C1430 C1432 1.419 . S
C1431 C1430 1.355 . S
C1431 C1433 1.419 . S
C1432 C1430 1.419 . S
C1432 C1437 1.423 1_655 S
C1432 C1439 1.407 1_655 S
C1433 H1425 0.930 . S
C1433 C1431 1.419 . S
C1433 C1434 1.362 1_655 S
C1434 H1426 0.930 . S
C1434 C1433 1.362 1_455 S
C1434 C1437 1.409 . S
C1435 H1427 0.930 . S
C1435 C1436 1.355 . S
C1435 C1437 1.415 . S
C1436 C1435 1.355 . S
C1436 C1438 1.419 . S
C1437 C1432 1.423 1_455 S
C1437 C1434 1.409 . S
C1437 C1435 1.415 . S
C1438 H1428 0.930 . S
C1438 C1436 1.419 . S
C1438 C1439 1.362 . S
C1439 H1429 0.927 1_455 S
C1439 C1432 1.407 1_455 S
C1439 C1438 1.362 . S
H1440 C1446 0.930 . S
H1441 C1449 0.930 . S
H1442 C1450 0.930 . S
H1443 C1451 0.930 . S
H1444 C1454 0.930 . S
H1445 C1455 0.930 . S
C1446 H1440 0.930 . S
C1446 C1447 1.355 . S
C1446 C1448 1.415 . S
C1447 C1446 1.355 . S
C1447 C1449 1.419 . S
C1448 C1446 1.415 . S
C1448 C1453 1.425 . S
C1448 C1455 1.409 . S
C1449 H1441 0.930 . S
C1449 C1447 1.419 . S
C1449 C1450 1.362 . S
C1450 H1442 0.930 . S
C1450 C1449 1.362 . S
C1450 C1453 1.409 . S
C1451 H1443 0.930 . S
C1451 C1452 1.355 . S
C1451 C1453 1.415 . S
C1452 C1451 1.355 . S
C1452 C1454 1.419 . S
C1453 C1448 1.425 . S
C1453 C1450 1.409 . S
C1453 C1451 1.415 . S
C1454 H1444 0.930 . S
C1454 C1452 1.419 . S
C1454 C1455 1.362 . S
C1455 H1445 0.930 . S
C1455 C1448 1.409 . S
C1455 C1454 1.362 . S
H1456 C1462 0.930 . S
H1457 C1465 0.930 . S
H1458 C1466 0.930 . S
H1459 C1467 0.930 . S
H1460 C1470 0.930 . S
H1461 C1471 0.930 . S
C1462 H1456 0.930 . S
C1462 C1463 1.355 . S
C1462 C1464 1.415 . S
C1463 C1462 1.355 . S
C1463 C1465 1.419 . S
C1464 C1462 1.415 . S
C1464 C1469 1.425 . S
C1464 C1471 1.409 1_455 S
C1465 H1457 0.930 . S
C1465 C1463 1.419 . S
C1465 C1466 1.362 . S
C1466 H1458 0.930 . S
C1466 C1465 1.362 . S
C1466 C1469 1.409 . S
C1467 H1459 0.930 . S
C1467 C1468 1.355 . S
C1467 C1469 1.415 1_655 S
C1468 C1467 1.355 . S
C1468 C1470 1.419 . S
C1469 C1464 1.425 . S
C1469 C1466 1.409 . S
C1469 C1467 1.415 1_455 S
C1470 H1460 0.930 . S
C1470 C1468 1.419 . S
C1470 C1471 1.362 . S
C1471 H1461 0.930 . S
C1471 C1464 1.409 1_655 S
C1471 C1470 1.362 . S
H1472 C1478 0.930 . S
H1473 C1481 0.930 . S
H1474 C1482 0.930 . S
H1475 C1483 0.930 . S
H1476 C1486 0.930 . S
H1477 C1487 0.930 . S
C1478 H1472 0.930 . S
C1478 C1479 1.355 . S
C1478 C1480 1.415 . S
C1479 C1478 1.355 . S
C1479 C1481 1.419 . S
C1480 C1478 1.415 . S
C1480 C1485 1.425 . S
C1480 C1487 1.409 . S
C1481 H1473 0.930 . S
C1481 C1479 1.419 . S
C1481 C1482 1.362 . S
C1482 H1474 0.930 . S
C1482 C1481 1.362 . S
C1482 C1485 1.409 . S
C1483 H1475 0.930 . S
C1483 C1484 1.355 . S
C1483 C1485 1.415 . S
C1484 C1483 1.355 . S
C1484 C1486 1.419 . S
C1485 C1480 1.425 . S
C1485 C1482 1.409 . S
C1485 C1483 1.415 . S
C1486 H1476 0.930 . S
C1486 C1484 1.419 . S
C1486 C1487 1.362 . S
C1487 H1477 0.930 . S
C1487 C1480 1.409 . S
C1487 C1486 1.362 . S
H1488 C1494 0.930 . S
H1489 C1497 0.930 . S
H1490 C1498 0.930 . S
H1491 C1499 0.930 . S
H1492 C1502 0.930 . S
H1493 C1503 0.930 . S
C1494 H1488 0.930 . S
C1494 C1495 1.355 . S
C1494 C1496 1.415 . S
C1495 C1494 1.355 . S
C1495 C1497 1.419 . S
C1496 C1494 1.415 . S
C1496 C1501 1.425 . S
C1496 C1503 1.409 . S
C1497 H1489 0.930 . S
C1497 C1495 1.419 . S
C1497 C1498 1.362 . S
C1498 H1490 0.930 . S
C1498 C1497 1.362 . S
C1498 C1501 1.409 . S
C1499 H1491 0.930 . S
C1499 C1500 1.355 . S
C1499 C1501 1.415 . S
C1500 C1499 1.355 . S
C1500 C1502 1.419 . S
C1501 C1496 1.425 . S
C1501 C1498 1.409 . S
C1501 C1499 1.415 . S
C1502 H1492 0.930 . S
C1502 C1500 1.419 . S
C1502 C1503 1.362 . S
C1503 H1493 0.930 . S
C1503 C1496 1.409 . S
C1503 C1502 1.362 . S
H1504 C1510 0.930 . S
H1505 C1513 0.930 . S
H1506 C1514 0.930 . S
H1507 C1515 0.930 . S
H1508 C1518 0.930 . S
H1509 C1519 0.930 . S
C1510 H1504 0.930 . S
C1510 C1511 1.355 . S
C1510 C1512 1.415 . S
C1511 C1510 1.355 . S
C1511 C1513 1.419 . S
C1512 C1510 1.415 . S
C1512 C1517 1.425 . S
C1512 C1519 1.409 . S
C1513 H1505 0.930 . S
C1513 C1511 1.419 . S
C1513 C1514 1.362 . S
C1514 H1506 0.930 . S
C1514 C1513 1.362 . S
C1514 C1517 1.409 . S
C1515 H1507 0.930 . S
C1515 C1516 1.355 . S
C1515 C1517 1.415 . S
C1516 C1515 1.355 . S
C1516 C1518 1.419 . S
C1517 C1512 1.425 . S
C1517 C1514 1.409 . S
C1517 C1515 1.415 . S
C1518 H1508 0.930 . S
C1518 C1516 1.419 . S
C1518 C1519 1.362 . S
C1519 H1509 0.930 . S
C1519 C1512 1.409 . S
C1519 C1518 1.362 . S
H1520 C1526 0.930 . S
H1521 C1529 0.930 . S
H1522 C1530 0.930 . S
H1523 C1531 0.930 . S
H1524 C1534 0.930 . S
H1525 C1535 0.930 . S
C1526 H1520 0.930 . S
C1526 C1527 1.355 . S
C1526 C1528 1.415 . S
C1527 C1526 1.355 . S
C1527 C1529 1.419 . S
C1528 C1526 1.415 . S
C1528 C1533 1.425 . S
C1528 C1535 1.409 . S
C1529 H1521 0.930 . S
C1529 C1527 1.419 . S
C1529 C1530 1.362 . S
C1530 H1522 0.930 . S
C1530 C1529 1.362 . S
C1530 C1533 1.409 . S
C1531 H1523 0.930 . S
C1531 C1532 1.355 . S
C1531 C1533 1.415 . S
C1532 C1531 1.355 . S
C1532 C1534 1.419 . S
C1533 C1528 1.425 . S
C1533 C1530 1.409 . S
C1533 C1531 1.415 . S
C1534 H1524 0.930 . S
C1534 C1532 1.419 . S
C1534 C1535 1.362 . S
C1535 H1525 0.930 . S
C1535 C1528 1.409 . S
C1535 C1534 1.362 . S
H1536 C1542 0.930 . S
H1537 C1545 0.930 . S
H1538 C1546 0.930 . S
H1539 C1547 0.930 . S
H1540 C1550 0.930 . S
H1541 C1551 0.930 . S
C1542 H1536 0.930 . S
C1542 C1543 1.355 . S
C1542 C1544 1.415 . S
C1543 C1542 1.355 . S
C1543 C1545 1.419 . S
C1544 C1542 1.415 . S
C1544 C1549 1.425 . S
C1544 C1551 1.409 . S
C1545 H1537 0.930 . S
C1545 C1543 1.419 . S
C1545 C1546 1.362 . S
C1546 H1538 0.930 . S
C1546 C1545 1.362 . S
C1546 C1549 1.409 . S
C1547 H1539 0.930 . S
C1547 C1548 1.355 . S
C1547 C1549 1.415 . S
C1548 C1547 1.355 . S
C1548 C1550 1.419 . S
C1549 C1544 1.425 . S
C1549 C1546 1.409 . S
C1549 C1547 1.415 . S
C1550 H1540 0.930 . S
C1550 C1548 1.419 . S
C1550 C1551 1.362 . S
C1551 H1541 0.930 . S
C1551 C1544 1.409 . S
C1551 C1550 1.362 . S
H1552 C1558 0.930 . S
H1553 C1561 0.930 . S
H1554 C1562 0.930 . S
H1555 C1563 0.930 . S
H1556 C1566 0.930 . S
H1557 C1567 0.930 . S
C1558 H1552 0.930 . S
C1558 C1559 1.355 . S
C1558 C1560 1.415 . S
C1559 C1558 1.355 . S
C1559 C1561 1.419 1_556 S
C1560 C1558 1.415 . S
C1560 C1565 1.425 1_556 S
C1560 C1567 1.409 . S
C1561 H1553 0.930 . S
C1561 C1559 1.419 1_554 S
C1561 C1562 1.362 . S
C1562 H1554 0.930 . S
C1562 C1561 1.362 . S
C1562 C1565 1.409 . S
C1563 H1555 0.930 . S
C1563 C1564 1.355 . S
C1563 C1565 1.415 . S
C1564 C1563 1.355 . S
C1564 C1566 1.419 1_554 S
C1565 C1560 1.425 1_554 S
C1565 C1562 1.409 . S
C1565 C1563 1.415 . S
C1566 H1556 0.930 . S
C1566 C1564 1.419 1_556 S
C1566 C1567 1.362 . S
C1567 H1557 0.930 . S
C1567 C1560 1.409 . S
C1567 C1566 1.362 . S
H1568 C1574 0.930 . S
H1569 C1577 0.930 . S
H1570 C1578 0.930 . S
H1571 C1579 0.930 . S
H1572 C1582 0.930 . S
H1573 C1583 0.930 . S
C1574 H1568 0.930 . S
C1574 C1575 1.355 . S
C1574 C1576 1.415 . S
C1575 C1574 1.355 . S
C1575 C1577 1.419 . S
C1576 C1574 1.415 . S
C1576 C1581 1.425 . S
C1576 C1583 1.409 . S
C1577 H1569 0.930 . S
C1577 C1575 1.419 . S
C1577 C1578 1.362 . S
C1578 H1570 0.930 . S
C1578 C1577 1.362 . S
C1578 C1581 1.409 . S
C1579 H1571 0.930 . S
C1579 C1580 1.355 . S
C1579 C1581 1.415 . S
C1580 C1579 1.355 . S
C1580 C1582 1.419 . S
C1581 C1576 1.425 . S
C1581 C1578 1.409 . S
C1581 C1579 1.415 . S
C1582 H1572 0.930 . S
C1582 C1580 1.419 . S
C1582 C1583 1.362 . S
C1583 H1573 0.930 . S
C1583 C1576 1.409 . S
C1583 C1582 1.362 . S
H1584 C1590 0.930 . S
H1585 C1593 0.930 . S
H1586 C1594 0.930 . S
H1587 C1595 0.930 . S
H1588 C1598 0.930 . S
H1589 C1599 0.930 . S
C1590 H1584 0.930 . S
C1590 C1591 1.355 . S
C1590 C1592 1.415 . S
C1591 C1590 1.355 . S
C1591 C1593 1.419 . S
C1592 C1590 1.415 . S
C1592 C1597 1.425 . S
C1592 C1599 1.409 . S
C1593 H1585 0.930 . S
C1593 C1591 1.419 . S
C1593 C1594 1.362 . S
C1594 H1586 0.930 . S
C1594 C1593 1.362 . S
C1594 C1597 1.409 . S
C1595 H1587 0.930 . S
C1595 C1596 1.355 . S
C1595 C1597 1.415 . S
C1596 C1595 1.355 . S
C1596 C1598 1.419 . S
C1597 C1592 1.425 . S
C1597 C1594 1.409 . S
C1597 C1595 1.415 . S
C1598 H1588 0.930 . S
C1598 C1596 1.419 . S
C1598 C1599 1.362 . S
C1599 H1589 0.930 . S
C1599 C1592 1.409 . S
C1599 C1598 1.362 . S
H1600 C1606 0.930 . S
H1601 C1609 0.930 . S
H1602 C1610 0.930 . S
H1603 C1611 0.930 . S
H1604 C1614 0.930 . S
H1605 C1615 0.930 . S
C1606 H1600 0.930 . S
C1606 C1607 1.355 . S
C1606 C1608 1.415 . S
C1607 C1606 1.355 . S
C1607 C1609 1.419 . S
C1608 C1606 1.415 . S
C1608 C1613 1.425 . S
C1608 C1615 1.409 . S
C1609 H1601 0.930 . S
C1609 C1607 1.419 . S
C1609 C1610 1.362 . S
C1610 H1602 0.930 . S
C1610 C1609 1.362 . S
C1610 C1613 1.409 . S
C1611 H1603 0.930 . S
C1611 C1612 1.355 . S
C1611 C1613 1.415 . S
C1612 C1611 1.355 . S
C1612 C1614 1.419 . S
C1613 C1608 1.425 . S
C1613 C1610 1.409 . S
C1613 C1611 1.415 . S
C1614 H1604 0.930 . S
C1614 C1612 1.419 . S
C1614 C1615 1.362 . S
C1615 H1605 0.930 . S
C1615 C1608 1.409 . S
C1615 C1614 1.362 . S
H1616 C1622 0.930 . S
H1617 C1625 0.930 . S
H1618 C1626 0.930 . S
H1619 C1627 0.930 . S
H1620 C1630 0.930 . S
H1621 C1631 0.930 . S
C1622 H1616 0.930 . S
C1622 C1623 1.355 . S
C1622 C1624 1.416 . S
C1623 C1622 1.355 . S
C1623 C1625 1.419 . S
C1624 C1622 1.416 . S
C1624 C1629 1.425 1_556 S
C1624 C1631 1.408 1_556 S
C1625 H1617 0.930 . S
C1625 C1623 1.419 . S
C1625 C1626 1.362 . S
C1626 H1618 0.930 . S
C1626 C1625 1.362 . S
C1626 C1629 1.408 1_556 S
C1627 H1619 0.930 . S
C1627 C1628 1.355 . S
C1627 C1629 1.416 . S
C1628 C1627 1.355 . S
C1628 C1630 1.419 . S
C1629 C1624 1.425 1_554 S
C1629 C1626 1.408 1_554 S
C1629 C1627 1.416 . S
C1630 H1620 0.930 . S
C1630 C1628 1.419 . S
C1630 C1631 1.362 . S
C1631 H1621 0.930 . S
C1631 C1624 1.408 1_554 S
C1631 C1630 1.362 . S
H1632 C1638 0.930 . S
H1633 C1641 0.930 . S
H1634 C1642 0.930 . S
H1635 C1643 0.930 . S
H1636 C1646 0.930 . S
H1637 C1647 0.930 . S
C1638 H1632 0.930 . S
C1638 C1639 1.355 . S
C1638 C1640 1.415 . S
C1639 C1638 1.355 . S
C1639 C1641 1.419 . S
C1640 C1638 1.415 . S
C1640 C1645 1.425 1_565 S
C1640 C1647 1.409 1_565 S
C1641 H1633 0.930 . S
C1641 C1639 1.419 . S
C1641 C1642 1.362 . S
C1642 H1634 0.930 . S
C1642 C1641 1.362 . S
C1642 C1645 1.409 1_565 S
C1643 H1635 0.930 . S
C1643 C1644 1.355 . S
C1643 C1645 1.415 . S
C1644 C1643 1.355 . S
C1644 C1646 1.419 . S
C1645 C1640 1.425 1_545 S
C1645 C1642 1.409 1_545 S
C1645 C1643 1.415 . S
C1646 H1636 0.930 . S
C1646 C1644 1.419 . S
C1646 C1647 1.362 . S
C1647 H1637 0.930 . S
C1647 C1640 1.409 1_545 S
C1647 C1646 1.362 . S
H1648 C1654 0.930 . S
H1649 C1657 0.930 . S
H1650 C1658 0.930 . S
H1651 C1659 0.930 . S
H1652 C1662 0.930 . S
H1653 C1663 0.930 . S
C1654 H1648 0.930 . S
C1654 C1655 1.355 . S
C1654 C1656 1.415 . S
C1655 C1654 1.355 . S
C1655 C1657 1.419 1_554 S
C1656 C1654 1.415 . S
C1656 C1661 1.425 1_554 S
C1656 C1663 1.409 . S
C1657 H1649 0.930 . S
C1657 C1655 1.419 1_556 S
C1657 C1658 1.362 . S
C1658 H1650 0.930 . S
C1658 C1657 1.362 . S
C1658 C1661 1.409 . S
C1659 H1651 0.930 . S
C1659 C1660 1.355 . S
C1659 C1661 1.415 . S
C1660 C1659 1.355 . S
C1660 C1662 1.419 1_556 S
C1661 C1656 1.425 1_556 S
C1661 C1658 1.409 . S
C1661 C1659 1.415 . S
C1662 H1652 0.930 . S
C1662 C1660 1.419 1_554 S
C1662 C1663 1.362 . S
C1663 H1653 0.930 . S
C1663 C1656 1.409 . S
C1663 C1662 1.362 . S
H1664 C1670 0.930 . S
H1665 C1673 0.930 . S
H1666 C1674 0.930 . S
H1667 C1675 0.930 . S
H1668 C1678 0.930 . S
H1669 C1679 0.930 . S
C1670 H1664 0.930 . S
C1670 C1671 1.355 . S
C1670 C1672 1.415 . S
C1671 C1670 1.355 . S
C1671 C1673 1.419 . S
C1672 C1670 1.415 . S
C1672 C1677 1.425 1_545 S
C1672 C1679 1.409 1_545 S
C1673 H1665 0.930 . S
C1673 C1671 1.419 . S
C1673 C1674 1.362 . S
C1674 H1666 0.930 . S
C1674 C1673 1.362 . S
C1674 C1677 1.409 1_545 S
C1675 H1667 0.930 . S
C1675 C1676 1.355 . S
C1675 C1677 1.415 . S
C1676 C1675 1.355 . S
C1676 C1678 1.419 . S
C1677 C1672 1.425 1_565 S
C1677 C1674 1.409 1_565 S
C1677 C1675 1.415 . S
C1678 H1668 0.930 . S
C1678 C1676 1.419 . S
C1678 C1679 1.362 . S
C1679 H1669 0.930 . S
C1679 C1672 1.409 1_565 S
C1679 C1678 1.362 . S
H1680 C1686 0.930 . S
H1681 C1689 0.930 . S
H1682 C1690 0.930 . S
H1683 C1691 0.930 . S
H1684 C1694 0.930 . S
H1685 C1695 0.930 . S
C1686 H1680 0.930 . S
C1686 C1687 1.355 . S
C1686 C1688 1.415 . S
C1687 C1686 1.355 . S
C1687 C1689 1.419 . S
C1688 C1686 1.415 . S
C1688 C1693 1.425 . S
C1688 C1695 1.409 . S
C1689 H1681 0.930 . S
C1689 C1687 1.419 . S
C1689 C1690 1.362 . S
C1690 H1682 0.930 . S
C1690 C1689 1.362 . S
C1690 C1693 1.409 . S
C1691 H1683 0.930 . S
C1691 C1692 1.355 . S
C1691 C1693 1.415 . S
C1692 C1691 1.355 . S
C1692 C1694 1.419 . S
C1693 C1688 1.425 . S
C1693 C1690 1.409 . S
C1693 C1691 1.415 . S
C1694 H1684 0.930 . S
C1694 C1692 1.419 . S
C1694 C1695 1.362 . S
C1695 H1685 0.930 . S
C1695 C1688 1.409 . S
C1695 C1694 1.362 . S
H1696 C1702 0.930 . S
H1697 C1705 0.930 . S
H1698 C1706 0.930 . S
H1699 C1707 0.930 . S
H1700 C1710 0.930 . S
H1701 C1711 0.930 . S
C1702 H1696 0.930 . S
C1702 C1703 1.355 . S
C1702 C1704 1.415 . S
C1703 C1702 1.355 . S
C1703 C1705 1.419 . S
C1704 C1702 1.415 . S
C1704 C1709 1.425 1_545 S
C1704 C1711 1.409 1_545 S
C1705 H1697 0.930 . S
C1705 C1703 1.419 . S
C1705 C1706 1.362 . S
C1706 H1698 0.930 . S
C1706 C1705 1.362 . S
C1706 C1709 1.409 1_545 S
C1707 H1699 0.930 . S
C1707 C1708 1.355 . S
C1707 C1709 1.415 . S
C1708 C1707 1.355 . S
C1708 C1710 1.419 . S
C1709 C1704 1.425 1_565 S
C1709 C1706 1.409 1_565 S
C1709 C1707 1.415 . S
C1710 H1700 0.930 . S
C1710 C1708 1.419 . S
C1710 C1711 1.362 . S
C1711 H1701 0.930 . S
C1711 C1704 1.409 1_565 S
C1711 C1710 1.362 . S
H1712 C1718 0.930 . S
H1713 C1721 0.931 . S
H1714 C1722 0.930 . S
H1715 C1723 0.930 . S
H1716 C1726 0.931 . S
H1717 C1727 0.930 . S
C1718 H1712 0.930 . S
C1718 C1719 1.355 . S
C1718 C1720 1.415 . S
C1719 C1718 1.355 . S
C1719 C1721 1.419 . S
C1720 C1718 1.415 . S
C1720 C1725 1.425 1_556 S
C1720 C1727 1.409 . S
C1721 H1713 0.931 . S
C1721 C1719 1.419 . S
C1721 C1722 1.362 1_556 S
C1722 H1714 0.930 . S
C1722 C1721 1.362 1_554 S
C1722 C1725 1.409 . S
C1723 H1715 0.930 . S
C1723 C1724 1.355 . S
C1723 C1725 1.415 . S
C1724 C1723 1.355 . S
C1724 C1726 1.419 . S
C1725 C1720 1.425 1_554 S
C1725 C1722 1.409 . S
C1725 C1723 1.415 . S
C1726 H1716 0.931 . S
C1726 C1724 1.419 . S
C1726 C1727 1.362 1_554 S
C1727 H1717 0.930 . S
C1727 C1720 1.409 . S
C1727 C1726 1.362 1_556 S
H1728 C1734 0.930 . S
H1729 C1737 0.930 . S
H1730 C1738 0.930 . S
H1731 C1739 0.930 . S
H1732 C1742 0.930 . S
H1733 C1743 0.930 . S
C1734 H1728 0.930 . S
C1734 C1735 1.355 . S
C1734 C1736 1.415 . S
C1735 C1734 1.355 . S
C1735 C1737 1.419 . S
C1736 C1734 1.415 . S
C1736 C1741 1.425 1_545 S
C1736 C1743 1.409 1_545 S
C1737 H1729 0.930 . S
C1737 C1735 1.419 . S
C1737 C1738 1.362 . S
C1738 H1730 0.930 . S
C1738 C1737 1.362 . S
C1738 C1741 1.409 1_545 S
C1739 H1731 0.930 . S
C1739 C1740 1.355 . S
C1739 C1741 1.415 . S
C1740 C1739 1.355 . S
C1740 C1742 1.419 . S
C1741 C1736 1.425 1_565 S
C1741 C1738 1.409 1_565 S
C1741 C1739 1.415 . S
C1742 H1732 0.930 . S
C1742 C1740 1.419 . S
C1742 C1743 1.362 . S
C1743 H1733 0.930 . S
C1743 C1736 1.409 1_565 S
C1743 C1742 1.362 . S
H1744 C1750 0.930 . S
H1745 C1753 0.930 . S
H1746 C1754 0.930 . S
H1747 C1755 0.930 . S
H1748 C1758 0.930 . S
H1749 C1759 0.930 . S
C1750 H1744 0.930 . S
C1750 C1751 1.355 . S
C1750 C1752 1.415 . S
C1751 C1750 1.355 . S
C1751 C1753 1.419 . S
C1752 C1750 1.415 . S
C1752 C1757 1.425 . S
C1752 C1759 1.409 . S
C1753 H1745 0.930 . S
C1753 C1751 1.419 . S
C1753 C1754 1.362 . S
C1754 H1746 0.930 . S
C1754 C1753 1.362 . S
C1754 C1757 1.409 . S
C1755 H1747 0.930 . S
C1755 C1756 1.355 . S
C1755 C1757 1.415 . S
C1756 C1755 1.355 . S
C1756 C1758 1.419 . S
C1757 C1752 1.425 . S
C1757 C1754 1.409 . S
C1757 C1755 1.415 . S
C1758 H1748 0.930 . S
C1758 C1756 1.419 . S
C1758 C1759 1.362 . S
C1759 H1749 0.930 . S
C1759 C1752 1.409 . S
C1759 C1758 1.362 . S
C743 C7 2.120 . S
C748 N485 1.963 . S
C759 C513 2.137 . S
C764 N25 1.900 . S
C775 C53 2.092 . S
C780 N531 1.956 . S
C791 C467 2.130 . S
C796 N71 1.888 . S
C807 C99 2.098 . S
C812 N439 1.976 . S
C823 N117 1.893 . S
C828 C375 2.135 . S
C839 N393 1.914 . S
C844 C145 2.104 . S
C855 N163 1.966 . S
C860 C421 2.093 . S
C871 C191 2.338 . S
C876 C674 2.362 . S
C887 C214 2.318 . S
C892 C697 2.364 . S
C903 C720 2.343 . S
C908 C237 2.367 . S
C919 C651 2.373 . S
C924 C260 2.325 . S
C935 C283 2.369 . S
C940 C628 2.318 . S
C951 C559 2.359 . S
C956 C306 2.353 . S
C967 C329 2.333 . S
C972 C582 2.353 . S
C983 C605 2.355 . S
C988 C352 2.356 . S
C999 N2 1.862 . S
C1004 C223 1.755 . S
C1015 C30 2.031 . S
C1020 C614 1.961 . S
C1031 C269 1.791 . S
C1036 N48 1.824 . S
C1047 C76 2.026 . S
C1052 C568 1.952 . S
C1063 N94 1.839 . S
C1068 C361 1.750 . S
C1079 C660 1.932 . S
C1084 C122 2.038 . S
C1095 C315 1.804 . S
C1100 N140 1.827 . S
C1111 C706 1.951 . S
C1116 C168 2.035 . S
C1127 N186 1.561 . S
C1132 N35 1.646 . S
C1143 C430 1.428 . S
C1148 N209 1.412 . S
C1159 N81 1.668 . S
C1164 N232 1.567 . S
C1175 N255 1.432 . S
C1180 C384 1.416 . S
C1191 N173 1.667 . S
C1196 N278 1.566 . S
C1207 C476 1.341 . S
C1212 N301 1.416 . S
C1223 N127 1.679 . S
C1228 N324 1.603 . S
C1239 N347 1.353 . S
C1244 C522 1.371 . S
C1255 C591 1.797 . S
C1260 N370 1.870 . S
C1271 C246 1.896 . S
C1276 C398 2.035 . S
C1287 C637 1.753 . S
C1292 N416 1.835 . S
C1303 C444 2.028 . S
C1308 C200 1.960 . S
C1319 C729 1.748 . S
C1324 N462 1.853 . S
C1335 C292 1.898 . S
C1340 C490 2.036 . S
C1351 C683 1.757 . S
C1356 N508 1.832 . S
C1367 C536 2.034 . S
C1372 C338 1.953 . S
C1383 N554 1.633 . S
C1388 N403 1.622 . S
C1399 C62 1.336 . S
C1404 N577 1.406 . S
C1415 N600 1.641 . S
C1420 N449 1.632 . S
C1431 N623 1.439 . S
C1436 C16 1.402 . S
C1447 N646 1.567 . S
C1452 N541 1.634 . S
C1463 C108 1.386 . S
C1468 N669 1.354 . S
C1479 N495 1.631 . S
C1484 N692 1.568 . S
C1495 N715 1.357 . S
C1500 C154 1.393 . S
C1511 N12 1.556 . S
C1516 N104 1.580 . S
C1527 C39 1.733 . S
C1532 C131 1.713 . S
C1543 N150 1.570 . S
C1548 N58 1.578 . S
C1559 C177 1.755 . S
C1564 C85 1.740 . S
C1575 N288 1.497 . S
C1580 N196 1.505 . S
C1591 N311 1.405 . S
C1596 N219 1.409 . S
C1607 N334 1.425 . S
C1612 N242 1.453 . S
C1623 N357 1.357 1_556 S
C1628 N265 1.397 1_554 S
C1639 N380 1.580 . S
C1644 N472 1.563 . S
C1655 C407 1.754 . S
C1660 C499 1.739 . S
C1671 N426 1.520 . S
C1676 N518 1.513 . S
C1687 C545 1.755 . S
C1692 C453 1.742 . S
C1703 N564 1.420 . S
C1708 N656 1.440 . S
C1719 N679 1.353 1_556 S
C1724 N587 1.394 1_554 S
C1735 N702 1.431 . S
C1740 N610 1.462 . S
C1751 N725 1.337 . S
C1756 N633 1.311 . S
