# Generated by pormake.
# Topology wlh, (5)-cn, num edge types: 1
# Building blocks:
#     Node 0, Type 0, BuildingBlock: XOMCOT_clean_sbu_1, # of connection points: 5
#     Node 1, Type 0, BuildingBlock: XOMCOT_clean_sbu_1, # of connection points: 5
#     Node 2, Type 0, BuildingBlock: XOMCOT_clean_sbu_1, # of connection points: 5
#     Node 3, Type 0, BuildingBlock: XOMCOT_clean_sbu_1, # of connection points: 5
#     Node 4, Type 0, BuildingBlock: XOMCOT_clean_sbu_1, # of connection points: 5
#     Node 5, Type 0, BuildingBlock: XOMCOT_clean_sbu_1, # of connection points: 5
#     Node 6, Type 0, BuildingBlock: XOMCOT_clean_sbu_1, # of connection points: 5
#     Node 7, Type 0, BuildingBlock: XOMCOT_clean_sbu_1, # of connection points: 5
#     Node 8, Type 0, BuildingBlock: XOMCOT_clean_sbu_1, # of connection points: 5
#     Node 9, Type 0, BuildingBlock: XOMCOT_clean_sbu_1, # of connection points: 5
#     Node 10, Type 0, BuildingBlock: XOMCOT_clean_sbu_1, # of connection points: 5
#     Node 11, Type 0, BuildingBlock: XOMCOT_clean_sbu_1, # of connection points: 5
#     Node 12, Type 0, BuildingBlock: XOMCOT_clean_sbu_1, # of connection points: 5
#     Node 13, Type 0, BuildingBlock: XOMCOT_clean_sbu_1, # of connection points: 5
#     Node 14, Type 0, BuildingBlock: XOMCOT_clean_sbu_1, # of connection points: 5
#     Node 15, Type 0, BuildingBlock: XOMCOT_clean_sbu_1, # of connection points: 5
#     Node 16, Type 0, BuildingBlock: XOMCOT_clean_sbu_1, # of connection points: 5
#     Node 17, Type 0, BuildingBlock: XOMCOT_clean_sbu_1, # of connection points: 5
#     Node 18, Type 0, BuildingBlock: XOMCOT_clean_sbu_1, # of connection points: 5
#     Node 19, Type 0, BuildingBlock: XOMCOT_clean_sbu_1, # of connection points: 5
#     Node 20, Type 0, BuildingBlock: XOMCOT_clean_sbu_1, # of connection points: 5
#     Node 21, Type 0, BuildingBlock: XOMCOT_clean_sbu_1, # of connection points: 5
#     Node 22, Type 0, BuildingBlock: XOMCOT_clean_sbu_1, # of connection points: 5
#     Node 23, Type 0, BuildingBlock: XOMCOT_clean_sbu_1, # of connection points: 5
#     Node 24, Type 0, BuildingBlock: XOMCOT_clean_sbu_1, # of connection points: 5
#     Node 25, Type 0, BuildingBlock: XOMCOT_clean_sbu_1, # of connection points: 5
#     Node 26, Type 0, BuildingBlock: XOMCOT_clean_sbu_1, # of connection points: 5
#     Node 27, Type 0, BuildingBlock: XOMCOT_clean_sbu_1, # of connection points: 5
#     Node 28, Type 0, BuildingBlock: XOMCOT_clean_sbu_1, # of connection points: 5
#     Node 29, Type 0, BuildingBlock: XOMCOT_clean_sbu_1, # of connection points: 5
#     Node 30, Type 0, BuildingBlock: XOMCOT_clean_sbu_1, # of connection points: 5
#     Node 31, Type 0, BuildingBlock: XOMCOT_clean_sbu_1, # of connection points: 5
#     Node 32, Type 0, BuildingBlock: XOMCOT_clean_sbu_1, # of connection points: 5
#     Node 33, Type 0, BuildingBlock: XOMCOT_clean_sbu_1, # of connection points: 5
#     Node 34, Type 0, BuildingBlock: XOMCOT_clean_sbu_1, # of connection points: 5
#     Node 35, Type 0, BuildingBlock: XOMCOT_clean_sbu_1, # of connection points: 5
#     Edge 36, Type (0, 0), BuildingBlock: TEMPAE_clean_linker_10, # of connection points: 2
#     Edge 37, Type (0, 0), BuildingBlock: TEMPAE_clean_linker_10, # of connection points: 2
#     Edge 38, Type (0, 0), BuildingBlock: TEMPAE_clean_linker_10, # of connection points: 2
#     Edge 39, Type (0, 0), BuildingBlock: TEMPAE_clean_linker_10, # of connection points: 2
#     Edge 40, Type (0, 0), BuildingBlock: TEMPAE_clean_linker_10, # of connection points: 2
#     Edge 41, Type (0, 0), BuildingBlock: TEMPAE_clean_linker_10, # of connection points: 2
#     Edge 42, Type (0, 0), BuildingBlock: TEMPAE_clean_linker_10, # of connection points: 2
#     Edge 43, Type (0, 0), BuildingBlock: TEMPAE_clean_linker_10, # of connection points: 2
#     Edge 44, Type (0, 0), BuildingBlock: TEMPAE_clean_linker_10, # of connection points: 2
#     Edge 45, Type (0, 0), BuildingBlock: TEMPAE_clean_linker_10, # of connection points: 2
#     Edge 46, Type (0, 0), BuildingBlock: TEMPAE_clean_linker_10, # of connection points: 2
#     Edge 47, Type (0, 0), BuildingBlock: TEMPAE_clean_linker_10, # of connection points: 2
#     Edge 48, Type (0, 0), BuildingBlock: TEMPAE_clean_linker_10, # of connection points: 2
#     Edge 49, Type (0, 0), BuildingBlock: TEMPAE_clean_linker_10, # of connection points: 2
#     Edge 50, Type (0, 0), BuildingBlock: TEMPAE_clean_linker_10, # of connection points: 2
#     Edge 51, Type (0, 0), BuildingBlock: TEMPAE_clean_linker_10, # of connection points: 2
#     Edge 52, Type (0, 0), BuildingBlock: TEMPAE_clean_linker_10, # of connection points: 2
#     Edge 53, Type (0, 0), BuildingBlock: TEMPAE_clean_linker_10, # of connection points: 2
#     Edge 54, Type (0, 0), BuildingBlock: TEMPAE_clean_linker_10, # of connection points: 2
#     Edge 55, Type (0, 0), BuildingBlock: TEMPAE_clean_linker_10, # of connection points: 2
#     Edge 56, Type (0, 0), BuildingBlock: TEMPAE_clean_linker_10, # of connection points: 2
#     Edge 57, Type (0, 0), BuildingBlock: TEMPAE_clean_linker_10, # of connection points: 2
#     Edge 58, Type (0, 0), BuildingBlock: TEMPAE_clean_linker_10, # of connection points: 2
#     Edge 59, Type (0, 0), BuildingBlock: TEMPAE_clean_linker_10, # of connection points: 2
#     Edge 60, Type (0, 0), BuildingBlock: TEMPAE_clean_linker_10, # of connection points: 2
#     Edge 61, Type (0, 0), BuildingBlock: TEMPAE_clean_linker_10, # of connection points: 2
#     Edge 62, Type (0, 0), BuildingBlock: TEMPAE_clean_linker_10, # of connection points: 2
#     Edge 63, Type (0, 0), BuildingBlock: TEMPAE_clean_linker_10, # of connection points: 2
#     Edge 64, Type (0, 0), BuildingBlock: TEMPAE_clean_linker_10, # of connection points: 2
#     Edge 65, Type (0, 0), BuildingBlock: TEMPAE_clean_linker_10, # of connection points: 2
#     Edge 66, Type (0, 0), BuildingBlock: TEMPAE_clean_linker_10, # of connection points: 2
#     Edge 67, Type (0, 0), BuildingBlock: TEMPAE_clean_linker_10, # of connection points: 2
#     Edge 68, Type (0, 0), BuildingBlock: TEMPAE_clean_linker_10, # of connection points: 2
#     Edge 69, Type (0, 0), BuildingBlock: TEMPAE_clean_linker_10, # of connection points: 2
#     Edge 70, Type (0, 0), BuildingBlock: TEMPAE_clean_linker_10, # of connection points: 2
#     Edge 71, Type (0, 0), BuildingBlock: TEMPAE_clean_linker_10, # of connection points: 2
#     Edge 72, Type (0, 0), BuildingBlock: TEMPAE_clean_linker_10, # of connection points: 2
#     Edge 73, Type (0, 0), BuildingBlock: TEMPAE_clean_linker_10, # of connection points: 2
#     Edge 74, Type (0, 0), BuildingBlock: TEMPAE_clean_linker_10, # of connection points: 2
#     Edge 75, Type (0, 0), BuildingBlock: TEMPAE_clean_linker_10, # of connection points: 2
#     Edge 76, Type (0, 0), BuildingBlock: TEMPAE_clean_linker_10, # of connection points: 2
#     Edge 77, Type (0, 0), BuildingBlock: TEMPAE_clean_linker_10, # of connection points: 2
#     Edge 78, Type (0, 0), BuildingBlock: TEMPAE_clean_linker_10, # of connection points: 2
#     Edge 79, Type (0, 0), BuildingBlock: TEMPAE_clean_linker_10, # of connection points: 2
#     Edge 80, Type (0, 0), BuildingBlock: TEMPAE_clean_linker_10, # of connection points: 2
#     Edge 81, Type (0, 0), BuildingBlock: TEMPAE_clean_linker_10, # of connection points: 2
#     Edge 82, Type (0, 0), BuildingBlock: TEMPAE_clean_linker_10, # of connection points: 2
#     Edge 83, Type (0, 0), BuildingBlock: TEMPAE_clean_linker_10, # of connection points: 2
#     Edge 84, Type (0, 0), BuildingBlock: TEMPAE_clean_linker_10, # of connection points: 2
#     Edge 85, Type (0, 0), BuildingBlock: TEMPAE_clean_linker_10, # of connection points: 2
#     Edge 86, Type (0, 0), BuildingBlock: TEMPAE_clean_linker_10, # of connection points: 2
#     Edge 87, Type (0, 0), BuildingBlock: TEMPAE_clean_linker_10, # of connection points: 2
#     Edge 88, Type (0, 0), BuildingBlock: TEMPAE_clean_linker_10, # of connection points: 2
#     Edge 89, Type (0, 0), BuildingBlock: TEMPAE_clean_linker_10, # of connection points: 2
#     Edge 90, Type (0, 0), BuildingBlock: TEMPAE_clean_linker_10, # of connection points: 2
#     Edge 91, Type (0, 0), BuildingBlock: TEMPAE_clean_linker_10, # of connection points: 2
#     Edge 92, Type (0, 0), BuildingBlock: TEMPAE_clean_linker_10, # of connection points: 2
#     Edge 93, Type (0, 0), BuildingBlock: TEMPAE_clean_linker_10, # of connection points: 2
#     Edge 94, Type (0, 0), BuildingBlock: TEMPAE_clean_linker_10, # of connection points: 2
#     Edge 95, Type (0, 0), BuildingBlock: TEMPAE_clean_linker_10, # of connection points: 2
#     Edge 96, Type (0, 0), BuildingBlock: TEMPAE_clean_linker_10, # of connection points: 2
#     Edge 97, Type (0, 0), BuildingBlock: TEMPAE_clean_linker_10, # of connection points: 2
#     Edge 98, Type (0, 0), BuildingBlock: TEMPAE_clean_linker_10, # of connection points: 2
#     Edge 99, Type (0, 0), BuildingBlock: TEMPAE_clean_linker_10, # of connection points: 2
#     Edge 100, Type (0, 0), BuildingBlock: TEMPAE_clean_linker_10, # of connection points: 2
#     Edge 101, Type (0, 0), BuildingBlock: TEMPAE_clean_linker_10, # of connection points: 2
#     Edge 102, Type (0, 0), BuildingBlock: TEMPAE_clean_linker_10, # of connection points: 2
#     Edge 103, Type (0, 0), BuildingBlock: TEMPAE_clean_linker_10, # of connection points: 2
#     Edge 104, Type (0, 0), BuildingBlock: TEMPAE_clean_linker_10, # of connection points: 2
#     Edge 105, Type (0, 0), BuildingBlock: TEMPAE_clean_linker_10, # of connection points: 2
#     Edge 106, Type (0, 0), BuildingBlock: TEMPAE_clean_linker_10, # of connection points: 2
#     Edge 107, Type (0, 0), BuildingBlock: TEMPAE_clean_linker_10, # of connection points: 2
#     Edge 108, Type (0, 0), BuildingBlock: TEMPAE_clean_linker_10, # of connection points: 2
#     Edge 109, Type (0, 0), BuildingBlock: TEMPAE_clean_linker_10, # of connection points: 2
#     Edge 110, Type (0, 0), BuildingBlock: TEMPAE_clean_linker_10, # of connection points: 2
#     Edge 111, Type (0, 0), BuildingBlock: TEMPAE_clean_linker_10, # of connection points: 2
#     Edge 112, Type (0, 0), BuildingBlock: TEMPAE_clean_linker_10, # of connection points: 2
#     Edge 113, Type (0, 0), BuildingBlock: TEMPAE_clean_linker_10, # of connection points: 2
#     Edge 114, Type (0, 0), BuildingBlock: TEMPAE_clean_linker_10, # of connection points: 2
#     Edge 115, Type (0, 0), BuildingBlock: TEMPAE_clean_linker_10, # of connection points: 2
#     Edge 116, Type (0, 0), BuildingBlock: TEMPAE_clean_linker_10, # of connection points: 2
#     Edge 117, Type (0, 0), BuildingBlock: TEMPAE_clean_linker_10, # of connection points: 2
#     Edge 118, Type (0, 0), BuildingBlock: TEMPAE_clean_linker_10, # of connection points: 2
#     Edge 119, Type (0, 0), BuildingBlock: TEMPAE_clean_linker_10, # of connection points: 2
#     Edge 120, Type (0, 0), BuildingBlock: TEMPAE_clean_linker_10, # of connection points: 2
#     Edge 121, Type (0, 0), BuildingBlock: TEMPAE_clean_linker_10, # of connection points: 2
#     Edge 122, Type (0, 0), BuildingBlock: TEMPAE_clean_linker_10, # of connection points: 2
#     Edge 123, Type (0, 0), BuildingBlock: TEMPAE_clean_linker_10, # of connection points: 2
#     Edge 124, Type (0, 0), BuildingBlock: TEMPAE_clean_linker_10, # of connection points: 2
#     Edge 125, Type (0, 0), BuildingBlock: TEMPAE_clean_linker_10, # of connection points: 2
# Relax obj value: 0.341
# Max RMSD: 0.231
# Mean RMSD: 0.231
data_MOF--net-wlh--node1-XOMCOT_clean_sbu_1--edge1-TEMPAE_clean_linker_10
_symmetry_space_group_name_H-M    P1
_symmetry_Int_Tables_number       1
_symmetry_cell_setting            triclinic
loop_
_symmetry_equiv_pos_as_xyz
'x, y, z'
_cell_length_a     39.738619
_cell_length_b     39.736535
_cell_length_c     154.48323
_cell_angle_alpha  89.991663
_cell_angle_beta   90.009056
_cell_angle_gamma 119.99547
loop_
_atom_site_label
_atom_site_type_symbol
_atom_site_fract_x
_atom_site_fract_y
_atom_site_fract_z
_atom_type_partial_charge
C0 C 0.11843 0.25476 0.1938 0.0
C1 C 0.1355 0.23194 0.19367 0.0
N2 N 0.11256 0.19945 0.18908 0.0
N3 N 0.08482 0.2367 0.18936 0.0
C4 C 0.08201 0.20319 0.18657 0.0
H5 H 0.13035 0.28328 0.19668 0.0
Co6 Co 0.05338 0.25722 0.18649 0.0
C7 C 0.98558 0.188 0.17883 0.0
O8 O 0.9884 0.20704 0.17166 0.0
N9 N 0.02191 0.27846 0.18354 0.0
C10 C 0.97419 0.2924 0.18394 0.0
C11 C 0.98627 0.26734 0.18678 0.0
C12 C 0.03061 0.31006 0.17865 0.0
N13 N 1.00211 0.31917 0.17881 0.0
O14 O 0.069 0.2589 0.17476 0.0
H15 H 0.97053 0.24319 0.19116 0.0
H16 H 0.05783 0.32711 0.17528 0.0
O17 O 0.0095 0.2051 0.18499 0.0
C18 C 0.1014 0.28937 0.17321 0.0
O19 O 0.11541 0.31737 0.179 0.0
N20 N 0.04144 0.25738 0.19819 0.0
C21 C 0.03335 0.26354 0.21593 0.0
C22 C 0.01724 0.22702 0.21196 0.0
C23 C 0.02213 0.22454 0.20309 0.0
C24 C 0.05716 0.29317 0.20192 0.0
C25 C 0.05354 0.29695 0.21082 0.0
H26 H 0.01156 0.19623 0.20027 0.0
H27 H 0.07333 0.31889 0.19798 0.0
H28 H 0.05836 0.18237 0.1826 0.0
H29 H 0.16335 0.2395 0.19647 0.0
H30 H 0.94713 0.29128 0.18555 0.0
H31 H 1.00228 0.20059 0.21574 0.0
H32 H 0.06657 0.32564 0.21368 0.0
C33 C 0.72357 0.86366 0.19745 0.0
C34 C 0.74526 0.90369 0.19721 0.0
N35 N 0.77036 0.91426 0.19052 0.0
N36 N 0.73509 0.84908 0.19097 0.0
C37 C 0.76323 0.88052 0.18682 0.0
H38 H 0.70131 0.84627 0.20212 0.0
Co39 Co 0.71682 0.79704 0.18824 0.0
C40 C 0.78062 0.80438 0.17718 0.0
O41 O 0.75634 0.7846 0.17091 0.0
N42 N 0.69877 0.74468 0.18547 0.0
C43 C 0.69623 0.68767 0.18408 0.0
C44 C 0.7193 0.72607 0.18628 0.0
C45 C 0.66289 0.71665 0.18301 0.0
N46 N 0.66085 0.68189 0.18209 0.0
O47 O 0.70232 0.8065 0.17713 0.0
H48 H 0.74903 0.73937 0.18851 0.0
H49 H 0.63866 0.72142 0.18199 0.0
O50 O 0.76801 0.81077 0.1842 0.0
C51 C 0.67035 0.80652 0.17768 0.0
O52 O 0.65054 0.79417 0.18493 0.0
N53 N 0.72883 0.78831 0.19938 0.0
C54 C 0.73891 0.77559 0.21671 0.0
C55 C 0.77045 0.80276 0.21172 0.0
C56 C 0.76482 0.80866 0.20304 0.0
C57 C 0.69787 0.76201 0.20411 0.0
C58 C 0.70237 0.75469 0.21272 0.0
H59 H 0.78904 0.83057 0.19937 0.0
H60 H 0.66934 0.74685 0.20118 0.0
H61 H 0.77804 0.87863 0.18113 0.0
H62 H 0.74334 0.92334 0.20177 0.0
H63 H 0.70441 0.66545 0.18413 0.0
H64 H 0.79901 0.82026 0.21454 0.0
H65 H 0.67724 0.73302 0.21623 0.0
C66 C 0.0969 0.84485 0.19331 0.0
C67 C 0.057 0.8259 0.19252 0.0
N68 N 0.04751 0.84694 0.18724 0.0
N69 N 0.11233 0.87776 0.18861 0.0
C70 C 0.08167 0.87815 0.18497 0.0
H71 H 0.11366 0.835 0.19693 0.0
Co72 Co 0.16435 0.91261 0.18658 0.0
C73 C 0.16208 0.97817 0.17832 0.0
O74 O 0.18359 0.97772 0.17191 0.0
N75 N 0.21712 0.94795 0.1845 0.0
C76 C 0.27613 0.99981 0.18585 0.0
C77 C 0.23756 0.98397 0.18795 0.0
C78 C 0.24388 0.94281 0.18021 0.0
N79 N 0.27991 0.9739 0.18098 0.0
O80 O 0.15541 0.89684 0.17473 0.0
H81 H 0.22532 0.99742 0.19198 0.0
H82 H 0.23751 0.91637 0.17686 0.0
O83 O 0.15235 0.95352 0.18444 0.0
C84 C 0.1555 0.86521 0.17344 0.0
O85 O 0.16907 0.85235 0.17959 0.0
N86 N 0.17177 0.92508 0.19837 0.0
C87 C 0.18596 0.94211 0.21591 0.0
C88 C 0.15773 0.94713 0.2116 0.0
C89 C 0.15109 0.93851 0.20279 0.0
C90 C 0.19808 0.91838 0.20255 0.0
C91 C 0.20619 0.92743 0.2113 0.0
H92 H 0.12914 0.94233 0.19955 0.0
H93 H 0.2133 0.90653 0.19902 0.0
H94 H 0.08447 0.90093 0.18069 0.0
H95 H 0.03673 0.79839 0.19547 0.0
H96 H 0.29966 0.02799 0.1878 0.0
H97 H 0.14138 0.95815 0.215 0.0
H98 H 0.22777 0.92265 0.21447 0.0
C99 C 0.25004 0.11897 0.29708 0.0
C100 C 0.23622 0.14436 0.29817 0.0
N101 N 0.22642 0.14359 0.30655 0.0
N102 N 0.24802 0.10135 0.30469 0.0
C103 C 0.23554 0.11867 0.31038 0.0
H104 H 0.25963 0.11285 0.29103 0.0
Co105 Co 0.26067 0.06239 0.30734 0.0
C106 C 0.17358 0.0228 0.31169 0.0
O107 O 0.16968 0.05193 0.309 0.0
N108 N 0.27489 0.02518 0.31006 0.0
C109 C 0.27426 0.96937 0.31202 0.0
C110 C 0.25246 0.98611 0.30972 0.0
C111 C 0.31043 0.03148 0.31238 0.0
N112 N 0.31074 0.99799 0.31364 0.0
O113 O 0.27522 0.08418 0.31869 0.0
H114 H 0.22248 0.9707 0.30766 0.0
H115 H 0.33566 0.06005 0.31312 0.0
O116 O 0.20685 0.02494 0.31132 0.0
C117 C 0.30782 0.11568 0.31855 0.0
O118 O 0.32963 0.12303 0.31162 0.0
N119 N 0.24858 0.04264 0.29596 0.0
C120 C 0.23763 0.0189 0.27871 0.0
C121 C 0.20735 0.01821 0.28346 0.0
C122 C 0.21333 0.03001 0.29209 0.0
C123 C 0.27853 0.04387 0.29137 0.0
C124 C 0.2735 0.0315 0.28276 0.0
H125 H 0.19002 0.03058 0.29546 0.0
H126 H 0.30668 0.05496 0.29438 0.0
H127 H 0.23029 0.11074 0.31714 0.0
H128 H 0.23145 0.16017 0.29307 0.0
H129 H 0.26438 0.93858 0.31224 0.0
H130 H 0.17934 0.00892 0.2805 0.0
H131 H 0.29769 0.03287 0.27922 0.0
C132 C 0.89811 0.15301 0.29963 0.0
C133 C 0.87902 0.11304 0.29912 0.0
N134 N 0.89787 0.10026 0.3042 0.0
N135 N 0.92868 0.16519 0.30503 0.0
C136 C 0.92774 0.13235 0.30771 0.0
H137 H 0.88953 0.1719 0.29651 0.0
Co138 Co 0.96013 0.21566 0.30903 0.0
C139 C 0.01754 0.20581 0.31958 0.0
O140 O 0.01279 0.22251 0.32644 0.0
N141 N 0.99183 0.26667 0.31299 0.0
C142 C 0.04382 0.32403 0.31591 0.0
C143 C 0.0311 0.28714 0.31284 0.0
C144 C 0.98135 0.29221 0.31591 0.0
N145 N 0.01249 0.32718 0.31778 0.0
O146 O 0.93315 0.19952 0.31987 0.0
H147 H 0.0495 0.27629 0.31048 0.0
H148 H 0.95156 0.28552 0.31661 0.0
O149 O 0.99817 0.20196 0.31271 0.0
C150 C 0.90068 0.19849 0.31909 0.0
O151 O 0.89592 0.21564 0.3123 0.0
N152 N 0.98304 0.23053 0.29813 0.0
C153 C 0.00469 0.24886 0.28082 0.0
C154 C 0.02231 0.23314 0.28608 0.0
C155 C 0.0108 0.22376 0.29471 0.0
C156 C 0.96658 0.24696 0.29324 0.0
C157 C 0.97677 0.25616 0.28457 0.0
H158 H 0.02373 0.21036 0.29849 0.0
H159 H 0.94429 0.25162 0.29605 0.0
H160 H 0.94732 0.13162 0.31247 0.0
H161 H 0.85314 0.09476 0.29539 0.0
H162 H 0.07373 0.34715 0.31647 0.0
H163 H 0.04441 0.22751 0.28353 0.0
H164 H 0.96174 0.2675 0.28079 0.0
C165 C 0.86316 0.73658 0.3006 0.0
C166 C 0.90322 0.75476 0.30045 0.0
N167 N 0.91723 0.78321 0.30644 0.0
N168 N 0.8523 0.75423 0.30652 0.0
C169 C 0.88581 0.78219 0.31001 0.0
H170 H 0.84324 0.71217 0.29666 0.0
Co171 Co 0.80268 0.74182 0.31005 0.0
C172 C 0.80443 0.8166 0.30897 0.0
O173 O 0.77102 0.79822 0.30487 0.0
N174 N 0.75245 0.72812 0.31422 0.0
C175 C 0.70709 0.72743 0.32286 0.0
C176 C 0.74503 0.74843 0.32021 0.0
C177 C 0.71867 0.69369 0.31377 0.0
N178 N 0.69044 0.69289 0.31881 0.0
O179 O 0.81752 0.7374 0.3215 0.0
H180 H 0.76638 0.77593 0.32296 0.0
H181 H 0.71563 0.66833 0.31048 0.0
O182 O 0.82068 0.79781 0.31177 0.0
C183 C 0.81258 0.70383 0.32313 0.0
O184 O 0.79123 0.67529 0.31778 0.0
N185 N 0.78952 0.74491 0.29829 0.0
C186 C 0.77521 0.74867 0.28064 0.0
C187 C 0.80795 0.7789 0.28467 0.0
C188 C 0.81474 0.7763 0.29342 0.0
C189 C 0.75878 0.71421 0.29435 0.0
C190 C 0.75056 0.71582 0.2856 0.0
H191 H 0.84094 0.79959 0.29624 0.0
H192 H 0.7411 0.68768 0.29781 0.0
H193 H 0.88715 0.80173 0.31505 0.0
H194 H 0.92065 0.74747 0.29631 0.0
H195 H 0.69332 0.73634 0.32767 0.0
H196 H 0.82891 0.80411 0.28107 0.0
H197 H 0.72527 0.69134 0.28275 0.0
C198 C 0.87696 0.74314 0.80405 0.0
C199 C 0.85617 0.7624 0.80445 0.0
N200 N 0.8752 0.79347 0.80971 0.0
N201 N 0.90903 0.76213 0.80898 0.0
C202 C 0.90712 0.7925 0.81233 0.0
H203 H 0.86876 0.71647 0.80058 0.0
Co204 Co 0.94501 0.74685 0.8117 0.0
C205 C 0.00463 0.81671 0.82086 0.0
O206 O 0.0028 0.79613 0.82768 0.0
N207 N 0.9812 0.73122 0.81454 0.0
C208 C 0.03634 0.72987 0.81581 0.0
C209 C 0.02003 0.75163 0.81321 0.0
C210 C 0.97452 0.69668 0.81771 0.0
N211 N 0.00763 0.69529 0.81858 0.0
O212 O 0.92564 0.73844 0.82327 0.0
H213 H 0.03552 0.78028 0.81035 0.0
H214 H 0.94599 0.67288 0.81931 0.0
O215 O 0.98318 0.80014 0.81431 0.0
C216 C 0.89461 0.70613 0.82449 0.0
O217 O 0.88379 0.67904 0.81854 0.0
N218 N 0.9616 0.7539 0.80017 0.0
C219 C 0.98168 0.76001 0.78268 0.0
C220 C 0.98298 0.7915 0.78712 0.0
C221 C 0.97299 0.78791 0.79587 0.0
C222 C 0.95929 0.72269 0.79597 0.0
C223 C 0.96983 0.7253 0.78727 0.0
H224 H 0.97334 0.81219 0.79911 0.0
H225 H 0.94917 0.69554 0.79938 0.0
H226 H 0.92852 0.8132 0.81675 0.0
H227 H 0.82862 0.75345 0.80131 0.0
H228 H 0.06677 0.73832 0.81546 0.0
H229 H 0.99072 0.8185 0.78385 0.0
H230 H 0.96867 0.70026 0.78419 0.0
C231 C 0.26961 0.14055 0.80324 0.0
C232 C 0.24998 0.10058 0.8039 0.0
N233 N 0.21681 0.08927 0.80836 0.0
N234 N 0.2488 0.15428 0.80723 0.0
C235 C 0.2169 0.12248 0.81025 0.0
H236 H 0.2979 0.15857 0.80036 0.0
Co237 Co 0.26433 0.20577 0.80964 0.0
C238 C 0.19349 0.19669 0.81802 0.0
O239 O 0.21301 0.21266 0.82515 0.0
N240 N 0.28018 0.25783 0.81217 0.0
C241 C 0.28525 0.31614 0.81141 0.0
C242 C 0.26303 0.27761 0.80919 0.0
C243 C 0.3125 0.2849 0.81629 0.0
N244 N 0.31623 0.32057 0.81587 0.0
O245 O 0.27001 0.19501 0.82143 0.0
H246 H 0.2368 0.26508 0.80534 0.0
H247 H 0.33385 0.2791 0.81919 0.0
O248 O 0.21075 0.19228 0.81153 0.0
C249 C 0.30165 0.19543 0.82307 0.0
O250 O 0.33007 0.21164 0.81741 0.0
N251 N 0.26015 0.21478 0.79787 0.0
C252 C 0.25765 0.22795 0.78024 0.0
C253 C 0.22514 0.19821 0.78445 0.0
C254 C 0.22694 0.19212 0.79329 0.0
C255 C 0.29244 0.24313 0.79383 0.0
C256 C 0.2916 0.25072 0.78502 0.0
H257 H 0.20188 0.1686 0.79641 0.0
H258 H 0.31898 0.26 0.79747 0.0
H259 H 0.19464 0.12383 0.81398 0.0
H260 H 0.26019 0.0816 0.80156 0.0
H261 H 0.27948 0.33926 0.80976 0.0
H262 H 0.1985 0.17992 0.78094 0.0
H263 H 0.31743 0.27356 0.78194 0.0
C264 C 0.86341 0.12554 0.80357 0.0
C265 C 0.90345 0.14559 0.80376 0.0
N266 N 0.91527 0.12829 0.80956 0.0
N267 N 0.85015 0.09574 0.8092 0.0
C268 C 0.88234 0.09837 0.81281 0.0
H269 H 0.84509 0.13204 0.79955 0.0
Co270 Co 0.79848 0.05999 0.81164 0.0
C271 C 0.80451 0.99904 0.82149 0.0
O272 O 0.78054 0.99762 0.82752 0.0
N273 N 0.74611 0.02389 0.81409 0.0
C274 C 0.68808 0.97021 0.81341 0.0
C275 C 0.72691 0.98633 0.81151 0.0
C276 C 0.71831 0.02971 0.81766 0.0
N277 N 0.68282 0.9975 0.81728 0.0
O278 O 0.8067 0.0817 0.82301 0.0
H279 H 0.7401 0.97197 0.80815 0.0
H280 H 0.72352 0.05739 0.82012 0.0
O281 O 0.81336 0.02265 0.81519 0.0
C282 C 0.80601 0.1134 0.82263 0.0
O283 O 0.79147 0.12004 0.81562 0.0
N284 N 0.79169 0.04176 0.80025 0.0
C285 C 0.78317 0.02195 0.78281 0.0
C286 C 0.811 0.01922 0.78785 0.0
C287 C 0.81474 0.02916 0.7966 0.0
C288 C 0.76488 0.04515 0.7954 0.0
C289 C 0.75963 0.03469 0.78667 0.0
H290 H 0.83705 0.02794 0.80035 0.0
H291 H 0.74774 0.0564 0.79831 0.0
H292 H 0.88165 0.07897 0.8178 0.0
H293 H 0.92235 0.17041 0.7998 0.0
H294 H 0.66532 0.9409 0.81194 0.0
H295 H 0.82984 0.00976 0.78503 0.0
H296 H 0.73827 0.03769 0.78291 0.0
C297 C 0.74289 0.86718 0.69657 0.0
C298 C 0.76284 0.84713 0.69609 0.0
N299 N 0.79388 0.86695 0.69086 0.0
N300 N 0.76139 0.89954 0.69172 0.0
C301 C 0.79211 0.89852 0.6883 0.0
H302 H 0.71635 0.85853 0.70012 0.0
Co303 Co 0.74552 0.93546 0.68959 0.0
C304 C 0.81297 0.9981 0.68041 0.0
O305 O 0.79033 0.99757 0.67415 0.0
N306 N 0.72924 0.9718 0.68742 0.0
C307 C 0.72479 0.02531 0.68857 0.0
C308 C 0.74701 0.00866 0.69045 0.0
C309 C 0.69644 0.96695 0.68359 0.0
N310 N 0.6931 0.99907 0.68425 0.0
O311 O 0.7351 0.91693 0.67795 0.0
H312 H 0.77387 0.02216 0.69409 0.0
H313 H 0.67459 0.94001 0.68071 0.0
O314 O 0.79844 0.97453 0.68674 0.0
C315 C 0.70238 0.88573 0.67732 0.0
O316 O 0.6779 0.87586 0.68382 0.0
N317 N 0.75393 0.95042 0.70121 0.0
C318 C 0.76083 0.96676 0.71883 0.0
C319 C 0.79271 0.97079 0.7141 0.0
C320 C 0.78871 0.96257 0.70526 0.0
C321 C 0.72238 0.94544 0.70577 0.0
C322 C 0.72538 0.95416 0.71458 0.0
H323 H 0.81328 0.96503 0.70171 0.0
H324 H 0.69471 0.93452 0.70253 0.0
H325 H 0.81283 0.92062 0.684 0.0
H326 H 0.7546 0.81975 0.69923 0.0
H327 H 0.73111 0.05428 0.69032 0.0
H328 H 0.82042 0.98018 0.71723 0.0
H329 H 0.70004 0.95019 0.71808 0.0
C330 C 0.14137 0.87244 0.69569 0.0
C331 C 0.16041 0.91241 0.69509 0.0
N332 N 0.13875 0.92249 0.69019 0.0
N333 N 0.10791 0.85753 0.69119 0.0
C334 C 0.10718 0.88864 0.68791 0.0
H335 H 0.15143 0.85528 0.69906 0.0
Co336 Co 0.0729 0.80542 0.68916 0.0
C337 C 0.0085 0.80797 0.6804 0.0
O338 O 0.00876 0.78564 0.67416 0.0
N339 N 0.03754 0.75256 0.68709 0.0
C340 C 0.98528 0.69374 0.6883 0.0
C341 C 1.00109 0.7324 0.69032 0.0
C342 C 0.04297 0.72552 0.68301 0.0
N343 N 0.01164 0.68955 0.6837 0.0
O344 O 0.08964 0.81403 0.6774 0.0
H345 H 0.98729 0.7449 0.69416 0.0
H346 H 0.06977 0.73162 0.67988 0.0
O347 O 0.03263 0.81773 0.68662 0.0
C348 C 0.12109 0.81374 0.67602 0.0
O349 O 0.13331 0.79864 0.68195 0.0
N350 N 0.05919 0.79863 0.70089 0.0
C351 C 0.0424 0.78814 0.71857 0.0
C352 C 0.03819 0.816 0.71383 0.0
C353 C 0.04659 0.8207 0.705 0.0
C354 C 0.06473 0.77232 0.7054 0.0
C355 C 0.05585 0.7661 0.7142 0.0
H356 H 0.04381 0.84277 0.70151 0.0
H357 H 0.07576 0.75578 0.70211 0.0
H358 H 0.08467 0.88649 0.68363 0.0
H359 H 0.18793 0.93242 0.69807 0.0
H360 H 0.95675 0.67043 0.69012 0.0
H361 H 0.02918 0.83467 0.71692 0.0
H362 H 0.05931 0.74401 0.71752 0.0
C363 C 0.139 0.26999 0.69377 0.0
C364 C 0.09896 0.24908 0.69357 0.0
N365 N 0.08773 0.21565 0.68922 0.0
N366 N 0.15298 0.24981 0.68961 0.0
C367 C 0.12117 0.217 0.6869 0.0
H368 H 0.15684 0.29848 0.69658 0.0
Co369 Co 0.20486 0.26656 0.68715 0.0
C370 C 0.19637 0.19553 0.67886 0.0
O371 O 0.21018 0.21381 0.67149 0.0
N372 N 0.25732 0.28352 0.68458 0.0
C373 C 0.316 0.28934 0.68525 0.0
C374 C 0.27762 0.26695 0.68757 0.0
C375 C 0.284 0.3157 0.68033 0.0
N376 N 0.31989 0.31989 0.68068 0.0
O377 O 0.19385 0.27211 0.67539 0.0
H378 H 0.26552 0.24089 0.69148 0.0
H379 H 0.27777 0.33656 0.67733 0.0
O380 O 0.19265 0.2135 0.68528 0.0
C381 C 0.19485 0.30408 0.67385 0.0
O382 O 0.21087 0.33204 0.67961 0.0
N383 N 0.21416 0.26254 0.69892 0.0
C384 C 0.22729 0.25996 0.71655 0.0
C385 C 0.19781 0.22735 0.71232 0.0
C386 C 0.19173 0.2292 0.70348 0.0
C387 C 0.24231 0.2949 0.70298 0.0
C388 C 0.24987 0.29403 0.71179 0.0
H389 H 0.16836 0.20405 0.70035 0.0
H390 H 0.259 0.32153 0.69936 0.0
H391 H 0.12257 0.19468 0.68319 0.0
H392 H 0.07976 0.25839 0.69623 0.0
H393 H 0.33937 0.28389 0.68686 0.0
H394 H 0.17966 0.20062 0.71581 0.0
H395 H 0.27253 0.31992 0.7149 0.0
C396 C 0.77244 0.58904 0.52513 0.0
C397 C 0.79172 0.56833 0.52562 0.0
N398 N 0.77343 0.53678 0.52045 0.0
N399 N 0.74201 0.57052 0.51973 0.0
C400 C 0.74321 0.53886 0.51704 0.0
H401 H 0.78139 0.61698 0.52806 0.0
Co402 Co 0.71285 0.59022 0.51486 0.0
C403 C 0.63403 0.52298 0.51326 0.0
O404 O 0.62083 0.54538 0.51611 0.0
N405 N 0.68515 0.61154 0.50935 0.0
C406 C 0.65167 0.62122 0.49902 0.0
C407 C 0.66323 0.59636 0.50216 0.0
C408 C 0.68845 0.64708 0.51007 0.0
N409 N 0.66764 0.65329 0.50399 0.0
O410 O 0.73771 0.59271 0.50417 0.0
H411 H 0.65729 0.56948 0.49909 0.0
H412 H 0.7084 0.66951 0.51439 0.0
O413 O 0.67065 0.53715 0.51219 0.0
C414 C 0.76823 0.62462 0.5024 0.0
O415 O 0.7757 0.65576 0.50686 0.0
N416 N 0.69029 0.58774 0.52594 0.0
C417 C 0.66296 0.58279 0.54293 0.0
C418 C 0.66158 0.55057 0.53888 0.0
C419 C 0.67552 0.5537 0.53049 0.0
C420 C 0.6941 0.62006 0.52995 0.0
C421 C 0.67967 0.61802 0.53833 0.0
H422 H 0.67551 0.52865 0.52777 0.0
H423 H 0.70986 0.64801 0.52691 0.0
H424 H 0.7234 0.51902 0.51226 0.0
H425 H 0.81844 0.57729 0.52912 0.0
H426 H 0.63383 0.61643 0.49336 0.0
H427 H 0.65115 0.52324 0.54225 0.0
H428 H 0.68237 0.6441 0.5412 0.0
C429 C 0.40489 0.19164 0.5322 0.0
C430 C 0.4233 0.23163 0.53194 0.0
N431 N 0.44762 0.24391 0.5251 0.0
N432 N 0.41812 0.1791 0.52564 0.0
C433 C 0.44381 0.21152 0.52139 0.0
H434 H 0.38332 0.17289 0.53687 0.0
Co435 Co 0.40335 0.12849 0.52262 0.0
C436 C 0.47196 0.13876 0.51278 0.0
O437 O 0.45009 0.11679 0.50641 0.0
N438 N 0.3882 0.07722 0.5196 0.0
C439 C 0.38436 0.0194 0.51977 0.0
C440 C 0.4074 0.0582 0.52165 0.0
C441 C 0.3537 0.04944 0.51641 0.0
N442 N 0.35078 0.01412 0.51647 0.0
O443 O 0.39144 0.13925 0.51128 0.0
H444 H 0.43553 0.07135 0.52476 0.0
H445 H 0.33032 0.0545 0.51458 0.0
O446 O 0.4564 0.14521 0.5193 0.0
C447 C 0.35991 0.14033 0.51138 0.0
O448 O 0.33707 0.12553 0.51815 0.0
N449 N 0.4134 0.11906 0.53394 0.0
C450 C 0.42253 0.10669 0.55129 0.0
C451 C 0.45366 0.13562 0.54657 0.0
C452 C 0.44855 0.14131 0.53787 0.0
C453 C 0.38269 0.09104 0.53846 0.0
C454 C 0.38681 0.0839 0.54713 0.0
H455 H 0.47248 0.16455 0.53439 0.0
H456 H 0.3547 0.07449 0.53534 0.0
H457 H 0.45968 0.21136 0.51571 0.0
H458 H 0.41884 0.25017 0.53636 0.0
H459 H 0.39112 0.99659 0.52098 0.0
H460 H 0.48159 0.1539 0.54961 0.0
H461 H 0.362 0.0617 0.55064 0.0
C462 C 0.80421 0.21671 0.52816 0.0
C463 C 0.76416 0.1962 0.52811 0.0
N464 N 0.75132 0.21348 0.52252 0.0
N465 N 0.81671 0.24692 0.52267 0.0
C466 C 0.78398 0.24405 0.51931 0.0
H467 H 0.82303 0.20958 0.53181 0.0
Co468 Co 0.86787 0.28198 0.51959 0.0
C469 C 0.85649 0.33958 0.50961 0.0
O470 O 0.87664 0.33886 0.50294 0.0
N471 N 0.91958 0.31724 0.5165 0.0
C472 C 0.97586 0.37205 0.51463 0.0
C473 C 0.93796 0.35633 0.5173 0.0
C474 C 0.94736 0.30984 0.51358 0.0
N475 N 0.98177 0.34279 0.51233 0.0
O476 O 0.85633 0.25971 0.5083 0.0
H477 H 0.92486 0.3725 0.51981 0.0
H478 H 0.94255 0.28094 0.51239 0.0
O479 O 0.85212 0.31878 0.51624 0.0
C480 C 0.8567 0.22792 0.50777 0.0
O481 O 0.87161 0.21809 0.51422 0.0
N482 N 0.87831 0.30127 0.53089 0.0
C483 C 0.893 0.32104 0.54832 0.0
C484 C 0.87488 0.33638 0.54316 0.0
C485 C 0.86729 0.32574 0.53446 0.0
C486 C 0.89652 0.28659 0.53577 0.0
C487 C 0.90394 0.29589 0.54454 0.0
H488 H 0.85193 0.33676 0.53074 0.0
H489 H 0.9046 0.26689 0.53285 0.0
H490 H 0.78428 0.26391 0.51451 0.0
H491 H 0.74616 0.17008 0.53178 0.0
H492 H 0.99773 0.40258 0.51459 0.0
H493 H 0.86555 0.35546 0.54591 0.0
H494 H 0.91801 0.2835 0.54833 0.0
C495 C 0.93776 0.47566 0.63905 0.0
C496 C 0.91566 0.49345 0.63943 0.0
N497 N 0.87886 0.46628 0.64136 0.0
N498 N 0.91507 0.43752 0.64079 0.0
C499 C 0.87925 0.43264 0.64212 0.0
H500 H 0.96861 0.48972 0.63777 0.0
Co501 Co 0.93339 0.40293 0.64208 0.0
C502 C 0.86928 0.33654 0.65103 0.0
O503 O 0.89343 0.33678 0.65688 0.0
N504 N 0.95226 0.36804 0.64332 0.0
C505 C 0.95941 0.3165 0.64118 0.0
C506 C 0.93666 0.33276 0.63949 0.0
C507 C 0.98431 0.37226 0.6474 0.0
N508 N 0.9893 0.34136 0.64616 0.0
O509 O 0.94337 0.41819 0.65392 0.0
H510 H 0.91052 0.31974 0.63561 0.0
H511 H 0.00428 0.39776 0.65103 0.0
O512 O 0.88189 0.36165 0.64497 0.0
C513 C 0.97577 0.44874 0.65541 0.0
O514 O 0.00283 0.46114 0.64942 0.0
N515 N 0.92502 0.39109 0.63029 0.0
C516 C 0.92003 0.37847 0.61244 0.0
C517 C 0.88638 0.36282 0.61759 0.0
C518 C 0.88943 0.36996 0.62648 0.0
C519 C 0.95799 0.40702 0.62544 0.0
C520 C 0.9562 0.40116 0.6165 0.0
H521 H 0.86308 0.35836 0.63024 0.0
H522 H 0.98586 0.4245 0.62855 0.0
H523 H 0.85407 0.40533 0.64388 0.0
H524 H 0.9258 0.52394 0.63832 0.0
H525 H 0.95436 0.28852 0.63895 0.0
H526 H 0.85781 0.34486 0.61481 0.0
H527 H 0.98294 0.41472 0.61281 0.0
C528 C 0.52562 0.46315 0.63352 0.0
C529 C 0.50887 0.42361 0.63464 0.0
N530 N 0.53569 0.41605 0.63804 0.0
N531 N 0.56284 0.48051 0.63616 0.0
C532 C 0.56817 0.45117 0.63888 0.0
H533 H 0.51128 0.47846 0.6312 0.0
Co534 Co 0.59579 0.53394 0.63706 0.0
C535 C 0.67368 0.53929 0.63483 0.0
O536 O 0.68259 0.56395 0.62844 0.0
N537 N 0.62912 0.58958 0.63816 0.0
C538 C 0.66897 0.65219 0.63494 0.0
C539 C 0.65387 0.61473 0.63216 0.0
C540 C 0.63022 0.61349 0.6446 0.0
N541 N 0.65392 0.65161 0.64273 0.0
O542 O 0.58614 0.52815 0.64924 0.0
H543 H 0.65941 0.60726 0.62582 0.0
H544 H 0.6127 0.60354 0.65039 0.0
O545 O 0.64093 0.52601 0.63869 0.0
C546 C 0.55513 0.52831 0.65128 0.0
O547 O 0.54072 0.54277 0.64571 0.0
N548 N 0.60038 0.53672 0.62491 0.0
C549 C 0.60411 0.54306 0.60687 0.0
C550 C 0.61236 0.51676 0.61115 0.0
C551 C 0.61002 0.51381 0.62016 0.0
C552 C 0.58776 0.55883 0.62084 0.0
C553 C 0.59074 0.56358 0.61187 0.0
H554 H 0.61614 0.49321 0.62333 0.0
H555 H 0.57707 0.57442 0.62464 0.0
H556 H 0.59512 0.45557 0.6416 0.0
H557 H 0.47884 0.40234 0.63335 0.0
H558 H 0.68875 0.67803 0.63135 0.0
H559 H 0.62051 0.49844 0.60761 0.0
H560 H 0.58352 0.58394 0.60897 0.0
C561 C 0.54188 0.06838 0.63799 0.0
C562 C 0.58189 0.08713 0.63831 0.0
N563 N 0.59468 0.12062 0.64273 0.0
N564 N 0.52965 0.09011 0.64213 0.0
C565 C 0.56234 0.12162 0.64495 0.0
H566 H 0.52285 0.04032 0.63511 0.0
Co567 Co 0.4787 0.07659 0.6445 0.0
C568 C 0.48786 0.14851 0.65232 0.0
O569 O 0.46792 0.12903 0.65915 0.0
N570 N 0.42695 0.06251 0.64692 0.0
C571 C 0.36918 0.05845 0.64575 0.0
C572 C 0.40798 0.08012 0.64372 0.0
C573 C 0.39912 0.03047 0.65097 0.0
N574 N 0.36379 0.02737 0.65032 0.0
O575 O 0.48879 0.07101 0.65634 0.0
H576 H 0.42121 0.10612 0.63978 0.0
H577 H 0.40404 0.00868 0.65394 0.0
O578 O 0.49423 0.13082 0.64622 0.0
C579 C 0.48662 0.03857 0.658 0.0
O580 O 0.46965 0.01034 0.65233 0.0
N581 N 0.47023 0.08053 0.63272 0.0
C582 C 0.45781 0.082 0.61504 0.0
C583 C 0.48751 0.11471 0.6192 0.0
C584 C 0.49321 0.11344 0.62807 0.0
C585 C 0.44186 0.04809 0.62873 0.0
C586 C 0.43465 0.04841 0.61989 0.0
H587 H 0.5167 0.13864 0.63116 0.0
H588 H 0.42473 0.02182 0.63244 0.0
H589 H 0.56237 0.14466 0.64867 0.0
H590 H 0.59998 0.07636 0.63569 0.0
H591 H 0.34649 0.06447 0.64384 0.0
H592 H 0.50606 0.14106 0.61562 0.0
H593 H 0.41181 0.02246 0.61684 0.0
C594 C 0.50719 0.05746 0.12981 0.0
C595 C 0.48692 0.07731 0.13035 0.0
N596 N 0.50246 0.10365 0.13679 0.0
N597 N 0.53557 0.07163 0.13581 0.0
C598 C 0.53177 0.09946 0.13994 0.0
H599 H 0.5014 0.03401 0.1254 0.0
Co600 Co 0.57113 0.05617 0.13889 0.0
C601 C 0.62371 0.12931 0.14837 0.0
O602 O 0.61257 0.11271 0.156 0.0
N603 N 0.60711 0.0411 0.14216 0.0
C604 C 0.66264 0.04185 0.14461 0.0
C605 C 0.64623 0.06306 0.14171 0.0
C606 C 0.60044 0.00634 0.14518 0.0
N607 N 0.6338 0.00619 0.14675 0.0
O608 O 0.55039 0.04746 0.15031 0.0
H609 H 0.66202 0.09253 0.1393 0.0
H610 H 0.57179 0.98167 0.14625 0.0
O611 O 0.6091 0.10963 0.14149 0.0
C612 C 0.51993 0.0147 0.15151 0.0
O613 O 0.50947 0.98792 0.1455 0.0
N614 N 0.58917 0.06286 0.12748 0.0
C615 C 0.61376 0.06821 0.11039 0.0
C616 C 0.61438 0.10007 0.11446 0.0
C617 C 0.6019 0.09679 0.12303 0.0
C618 C 0.58724 0.03124 0.12354 0.0
C619 C 0.59996 0.03345 0.11503 0.0
H620 H 0.60187 0.12133 0.12603 0.0
H621 H 0.57578 0.00411 0.12703 0.0
H622 H 0.55024 0.11634 0.14523 0.0
H623 H 0.46228 0.0722 0.12641 0.0
H624 H 0.69338 0.05161 0.145 0.0
H625 H 0.62463 0.12733 0.11107 0.0
H626 H 0.59833 0.00801 0.11205 0.0
C627 C 0.90356 0.442 0.13421 0.0
C628 C 0.8793 0.40329 0.13584 0.0
N629 N 0.84508 0.3984 0.13866 0.0
N630 N 0.88487 0.46181 0.13592 0.0
C631 C 0.84911 0.43427 0.13859 0.0
H632 H 0.93353 0.45508 0.13216 0.0
Co633 Co 0.90835 0.51643 0.13561 0.0
C634 C 0.84928 0.51756 0.14096 0.0
O635 O 0.8516 0.52058 0.13247 0.0
N636 N 0.93236 0.57096 0.13548 0.0
C637 C 0.95345 0.63087 0.13062 0.0
C638 C 0.93185 0.59197 0.12867 0.0
C639 C 0.95352 0.59769 0.14158 0.0
N640 N 0.96729 0.63452 0.13873 0.0
O641 O 0.94672 0.51687 0.14333 0.0
H642 H 0.91726 0.57967 0.12261 0.0
H643 H 0.95934 0.59032 0.14793 0.0
O644 O 0.8758 0.5146 0.14498 0.0
C645 C 0.97843 0.52851 0.14744 0.0
O646 O 0.00762 0.56384 0.14619 0.0
N647 N 0.93618 0.51837 0.12563 0.0
C648 C 0.96069 0.53445 0.10848 0.0
C649 C 0.92326 0.50455 0.11054 0.0
C650 C 0.91123 0.49809 0.11909 0.0
C651 C 0.97428 0.54442 0.1239 0.0
C652 C 0.98716 0.55324 0.11528 0.0
H653 H 0.88074 0.47883 0.12041 0.0
H654 H 0.99358 0.56144 0.12908 0.0
H655 H 0.82689 0.44044 0.14075 0.0
H656 H 0.88654 0.38059 0.13505 0.0
H657 H 0.95861 0.65461 0.12636 0.0
H658 H 0.90214 0.48842 0.10554 0.0
H659 H 0.01638 0.57656 0.11396 0.0
C660 C 0.53271 0.46664 0.14465 0.0
C661 C 0.57183 0.48413 0.14642 0.0
N662 N 0.58019 0.45617 0.14844 0.0
N663 N 0.51646 0.42787 0.14561 0.0
C664 C 0.54625 0.42236 0.14787 0.0
H665 H 0.51691 0.48131 0.14293 0.0
Co666 Co 0.46328 0.39276 0.14513 0.0
C667 C 0.45464 0.32106 0.15288 0.0
O668 O 0.42659 0.31776 0.15794 0.0
N669 N 0.40914 0.35712 0.14462 0.0
C670 C 0.35232 0.30651 0.14066 0.0
C671 C 0.39193 0.32482 0.13963 0.0
C672 C 0.37913 0.35731 0.14873 0.0
N673 N 0.34437 0.32697 0.14641 0.0
O674 O 0.46075 0.40373 0.15707 0.0
H675 H 0.40718 0.31492 0.1355 0.0
H676 H 0.38233 0.37933 0.15329 0.0
O677 O 0.47194 0.35024 0.14785 0.0
C678 C 0.45688 0.43369 0.15748 0.0
O679 O 0.44485 0.4434 0.15048 0.0
N680 N 0.46738 0.38625 0.13331 0.0
C681 C 0.46956 0.38182 0.11538 0.0
C682 C 0.48527 0.36424 0.12061 0.0
C683 C 0.48443 0.36727 0.12961 0.0
C684 C 0.45279 0.40421 0.12833 0.0
C685 C 0.45355 0.40237 0.11933 0.0
H686 H 0.49744 0.35434 0.13354 0.0
H687 H 0.44015 0.41977 0.1314 0.0
H688 H 0.54322 0.39434 0.14928 0.0
H689 H 0.59264 0.51493 0.14612 0.0
H690 H 0.33103 0.27992 0.13754 0.0
H691 H 0.49845 0.34868 0.11776 0.0
H692 H 0.44109 0.41627 0.1155 0.0
C693 C 0.42636 0.24038 0.03147 0.0
C694 C 0.44376 0.21791 0.03204 0.0
N695 N 0.47553 0.23397 0.02695 0.0
N696 N 0.44713 0.27037 0.02605 0.0
C697 C 0.47676 0.26547 0.02338 0.0
H698 H 0.39961 0.23451 0.03459 0.0
Co699 Co 0.43382 0.30634 0.02202 0.0
C700 C 0.5055 0.35781 0.01185 0.0
O701 O 0.48658 0.35603 0.00473 0.0
N702 N 0.41992 0.34219 0.01803 0.0
C703 C 0.4199 0.39668 0.01467 0.0
C704 C 0.44233 0.38123 0.01737 0.0
C705 C 0.38377 0.3348 0.01599 0.0
N706 N 0.38309 0.36744 0.01387 0.0
O707 O 0.42217 0.28043 0.01107 0.0
H708 H 0.4728 0.39778 0.01901 0.0
H709 H 0.3583 0.30613 0.01618 0.0
O710 O 0.48706 0.33984 0.01863 0.0
C711 C 0.38998 0.24852 0.01132 0.0
O712 O 0.3664 0.24296 0.01782 0.0
N713 N 0.44327 0.32902 0.03299 0.0
C714 C 0.45035 0.34921 0.05046 0.0
C715 C 0.48233 0.36776 0.04486 0.0
C716 C 0.4783 0.35711 0.03614 0.0
C717 C 0.41142 0.31227 0.0382 0.0
C718 C 0.41431 0.32166 0.04697 0.0
H719 H 0.50374 0.37105 0.03209 0.0
H720 H 0.3839 0.29014 0.03559 0.0
H721 H 0.49789 0.28347 0.01856 0.0
H722 H 0.43374 0.19173 0.03584 0.0
H723 H 0.42953 0.42717 0.01371 0.0
H724 H 0.5105 0.38988 0.0472 0.0
H725 H 0.38885 0.30623 0.05103 0.0
C726 C 0.79917 0.18585 0.02514 0.0
C727 C 0.82219 0.22567 0.02461 0.0
N728 N 0.80195 0.24008 0.02056 0.0
N729 N 0.76451 0.17518 0.02149 0.0
C730 C 0.76703 0.20864 0.01878 0.0
H731 H 0.80786 0.16578 0.02755 0.0
Co732 Co 0.72683 0.12512 0.0184 0.0
C733 C 0.65352 0.12548 0.02062 0.0
O734 O 0.64008 0.09269 0.02491 0.0
N735 N 0.68997 0.07429 0.01463 0.0
C736 C 0.64354 0.02675 0.00671 0.0
C737 C 0.66007 0.06502 0.00913 0.0
C738 C 0.69217 0.04135 0.01502 0.0
N739 N 0.66371 0.01182 0.01045 0.0
O740 O 0.74278 0.13969 0.00672 0.0
H741 H 0.65197 0.08527 0.00656 0.0
H742 H 0.71609 0.03976 0.01791 0.0
O743 O 0.68768 0.14175 0.01734 0.0
C744 C 0.77244 0.13697 0.00477 0.0
O745 O 0.77996 0.11411 0.00953 0.0
N746 N 0.71398 0.11284 0.03037 0.0
C747 C 0.69845 0.09941 0.04809 0.0
C748 C 0.70109 0.13232 0.04417 0.0
C749 C 0.70926 0.1387 0.03537 0.0
C750 C 0.7139 0.0819 0.03425 0.0
C751 C 0.70515 0.07405 0.04306 0.0
H752 H 0.71156 0.16466 0.03256 0.0
H753 H 0.72169 0.06365 0.03069 0.0
H754 H 0.74407 0.20948 0.01523 0.0
H755 H 0.85215 0.24225 0.02667 0.0
H756 H 0.61943 0.01149 0.00228 0.0
H757 H 0.6965 0.15287 0.04786 0.0
H758 H 0.70467 0.04898 0.04596 0.0
C759 C 0.84201 0.596 0.02906 0.0
C760 C 0.80195 0.57733 0.02937 0.0
N761 N 0.78738 0.54605 0.02408 0.0
N762 N 0.85267 0.57651 0.02364 0.0
C763 C 0.81901 0.54633 0.02079 0.0
H764 H 0.86198 0.6232 0.03216 0.0
Co765 Co 0.90141 0.59258 0.01895 0.0
C766 C 0.88398 0.52017 0.00957 0.0
O767 O 0.89596 0.53834 0.00213 0.0
N768 N 0.95053 0.60928 0.01411 0.0
C769 C 0.00703 0.61405 0.01056 0.0
C770 C 0.9699 0.58947 0.01345 0.0
C771 C 0.97685 0.64604 0.01181 0.0
N772 N 0.01141 0.64964 0.00962 0.0
O773 O 0.88116 0.59784 0.00808 0.0
H774 H 0.95874 0.55966 0.01541 0.0
H775 H 0.97138 0.67009 0.0121 0.0
O776 O 0.88567 0.53897 0.01639 0.0
C777 C 0.87957 0.62881 0.00703 0.0
O778 O 0.89893 0.65785 0.01241 0.0
N779 N 0.92029 0.58842 0.02981 0.0
C780 C 0.95058 0.58486 0.04592 0.0
C781 C 0.91712 0.55254 0.04257 0.0
C782 C 0.90256 0.55486 0.03451 0.0
C783 C 0.95188 0.6206 0.03307 0.0
C784 C 0.96793 0.61927 0.04102 0.0
H785 H 0.8765 0.52981 0.03212 0.0
H786 H 0.96492 0.64752 0.02947 0.0
H787 H 0.81805 0.52626 0.01597 0.0
H788 H 0.78522 0.58744 0.03291 0.0
H789 H 0.0298 0.6069 0.00973 0.0
H790 H 0.90158 0.52577 0.0462 0.0
H791 H 0.99373 0.64505 0.04328 0.0
C792 C 0.46319 0.93547 0.86167 0.0
C793 C 0.483 0.91527 0.86134 0.0
N794 N 0.46096 0.88175 0.85703 0.0
N795 N 0.42885 0.91472 0.85761 0.0
C796 C 0.42833 0.88225 0.85484 0.0
H797 H 0.47327 0.96366 0.86459 0.0
Co798 Co 0.39262 0.93024 0.85557 0.0
C799 C 0.32614 0.85999 0.84816 0.0
O800 O 0.3238 0.88049 0.84176 0.0
N801 N 0.3561 0.94641 0.85352 0.0
C802 C 0.30404 0.95304 0.85519 0.0
C803 C 0.32052 0.93075 0.85719 0.0
C804 C 0.36033 0.97796 0.84921 0.0
N805 N 0.3291 0.98263 0.85016 0.0
O806 O 0.40678 0.93521 0.84363 0.0
H807 H 0.30794 0.9055 0.86136 0.0
H808 H 0.38639 0.99824 0.84578 0.0
O809 O 0.35237 0.87651 0.85392 0.0
C810 C 0.43764 0.96705 0.84189 0.0
O811 O 0.44981 0.99556 0.84752 0.0
N812 N 0.38196 0.92682 0.86743 0.0
C813 C 0.37518 0.92757 0.88541 0.0
C814 C 0.36804 0.89358 0.88105 0.0
C815 C 0.37145 0.89376 0.87206 0.0
C816 C 0.38939 0.96022 0.87151 0.0
C817 C 0.38552 0.96108 0.88048 0.0
H818 H 0.36718 0.86771 0.86887 0.0
H819 H 0.39874 0.98647 0.86778 0.0
H820 H 0.40512 0.86008 0.85098 0.0
H821 H 0.51132 0.92451 0.86411 0.0
H822 H 0.27611 0.94831 0.85737 0.0
H823 H 0.36109 0.86728 0.88455 0.0
H824 H 0.39088 0.9879 0.88349 0.0
C825 C 0.07196 0.53095 0.86687 0.0
C826 C 0.09158 0.57105 0.86676 0.0
N827 N 0.12078 0.58358 0.86094 0.0
N828 N 0.08885 0.51826 0.8612 0.0
C829 C 0.11825 0.55083 0.85768 0.0
H830 H 0.0465 0.51223 0.87067 0.0
Co831 Co 0.07248 0.46726 0.85782 0.0
C832 C 0.14439 0.48365 0.84828 0.0
O833 O 0.12666 0.47474 0.84075 0.0
N834 N 0.05605 0.41608 0.85429 0.0
C835 C 0.05449 0.36027 0.85162 0.0
C836 C 0.07697 0.39777 0.85452 0.0
C837 C 0.0206 0.38876 0.85141 0.0
N838 N 0.01902 0.35463 0.84971 0.0
O839 O 0.0634 0.4807 0.84653 0.0
H840 H 0.1065 0.41045 0.85685 0.0
H841 H 0.99633 0.39364 0.85061 0.0
O842 O 0.12564 0.48191 0.85512 0.0
C843 C 0.03158 0.4812 0.84666 0.0
O844 O 0.00843 0.46524 0.85334 0.0
N845 N 0.07917 0.45486 0.86915 0.0
C846 C 0.083 0.43919 0.88664 0.0
C847 C 0.11509 0.46974 0.88243 0.0
C848 C 0.11259 0.47705 0.87369 0.0
C849 C 0.04763 0.42518 0.8731 0.0
C850 C 0.04912 0.41642 0.8818 0.0
H851 H 0.13692 0.50178 0.87068 0.0
H852 H 0.02083 0.40861 0.86954 0.0
H853 H 0.13717 0.55037 0.85273 0.0
H854 H 0.08411 0.58933 0.87052 0.0
H855 H 0.06314 0.33846 0.85117 0.0
H856 H 0.14149 0.48892 0.88591 0.0
H857 H 0.02369 0.39232 0.8847 0.0
C858 C 0.46879 0.53919 0.86349 0.0
C859 C 0.42878 0.51993 0.86294 0.0
N860 N 0.4184 0.54186 0.85822 0.0
N861 N 0.48338 0.57303 0.85915 0.0
C862 C 0.45206 0.57376 0.85601 0.0
H863 H 0.48618 0.52893 0.86668 0.0
Co864 Co 0.53522 0.60832 0.85688 0.0
C865 C 0.52611 0.66987 0.84833 0.0
O866 O 0.54007 0.66492 0.84104 0.0
N867 N 0.58759 0.64408 0.8545 0.0
C868 C 0.64598 0.69711 0.85546 0.0
C869 C 0.60729 0.68099 0.8575 0.0
C870 C 0.61489 0.63867 0.85055 0.0
N871 N 0.65059 0.67049 0.85108 0.0
O872 O 0.52513 0.592 0.84508 0.0
H873 H 0.59456 0.69479 0.86125 0.0
H874 H 0.60924 0.61153 0.84767 0.0
O875 O 0.52268 0.64893 0.85489 0.0
C876 C 0.52592 0.56095 0.84349 0.0
O877 O 0.54171 0.54866 0.84923 0.0
N878 N 0.54361 0.62134 0.86866 0.0
C879 C 0.5556 0.63595 0.88634 0.0
C880 C 0.52666 0.63976 0.88204 0.0
C881 C 0.52117 0.6324 0.87317 0.0
C882 C 0.57124 0.61653 0.87279 0.0
C883 C 0.57823 0.62439 0.88163 0.0
H884 H 0.49822 0.63469 0.86997 0.0
H885 H 0.58793 0.60647 0.86921 0.0
H886 H 0.4539 0.59646 0.85183 0.0
H887 H 0.40895 0.49204 0.8658 0.0
H888 H 0.66908 0.72591 0.85718 0.0
H889 H 0.50848 0.64838 0.8855 0.0
H890 H 0.60044 0.62059 0.88479 0.0
C891 C 0.61154 0.78626 0.97392 0.0
C892 C 0.59472 0.80913 0.97471 0.0
N893 N 0.56181 0.78966 0.9794 0.0
N894 N 0.58941 0.75246 0.97809 0.0
C895 C 0.55946 0.75536 0.98137 0.0
H896 H 0.63886 0.79423 0.97079 0.0
Co897 Co 0.60294 0.71456 0.98007 0.0
C898 C 0.53327 0.65158 0.98854 0.0
O899 O 0.55465 0.64868 0.99466 0.0
N900 N 0.61745 0.67676 0.9821 0.0
C901 C 0.62199 0.62341 0.9806 0.0
C902 C 0.59978 0.64028 0.97885 0.0
C903 C 0.65009 0.68114 0.98591 0.0
N904 N 0.6535 0.64914 0.98506 0.0
O905 O 0.61194 0.73105 0.99184 0.0
H906 H 0.57327 0.62738 0.97509 0.0
H907 H 0.67202 0.70786 0.98885 0.0
O908 O 0.54926 0.67676 0.98255 0.0
C909 C 0.64419 0.76253 0.99271 0.0
O910 O 0.67033 0.77181 0.98659 0.0
N911 N 0.59539 0.7012 0.96831 0.0
C912 C 0.58885 0.68689 0.95057 0.0
C913 C 0.55743 0.68402 0.95529 0.0
C914 C 0.56124 0.6912 0.96418 0.0
C915 C 0.62655 0.70499 0.96378 0.0
C916 C 0.62368 0.69725 0.9549 0.0
H917 H 0.537 0.68966 0.9677 0.0
H918 H 0.65381 0.71419 0.96707 0.0
H919 H 0.53678 0.73293 0.98528 0.0
H920 H 0.60667 0.83835 0.97222 0.0
H921 H 0.61598 0.59483 0.9786 0.0
H922 H 0.53017 0.67629 0.95213 0.0
H923 H 0.64871 0.70027 0.95142 0.0
C924 C 0.25135 0.83497 0.96933 0.0
C925 C 0.22936 0.79504 0.9688 0.0
N926 N 0.24336 0.77969 0.97458 0.0
N927 N 0.27903 0.84459 0.9754 0.0
C928 C 0.27328 0.81035 0.97851 0.0
H929 H 0.24723 0.8557 0.96561 0.0
Co930 Co 0.3145 0.89425 0.97929 0.0
C931 C 0.36743 0.87686 0.98953 0.0
O932 O 0.36441 0.89436 0.99645 0.0
N933 N 0.34984 0.94446 0.98324 0.0
C934 C 0.40394 1.00035 0.98593 0.0
C935 C 0.38906 0.96251 0.98324 0.0
C936 C 0.34164 0.97218 0.98576 0.0
N937 N 0.37406 0.00642 0.98745 0.0
O938 O 0.28896 0.88019 0.99025 0.0
H939 H 0.4059 0.94952 0.98111 0.0
H940 H 0.3125 0.96764 0.98617 0.0
O941 O 0.34949 0.87584 0.98261 0.0
C942 C 0.25733 0.88098 0.98987 0.0
O943 O 0.25238 0.89889 0.98325 0.0
N944 N 0.33673 0.9072 0.96827 0.0
C945 C 0.35585 0.92117 0.95074 0.0
C946 C 0.35823 0.89151 0.95517 0.0
C947 C 0.34871 0.8851 0.96395 0.0
C948 C 0.33503 0.93665 0.96417 0.0
C949 C 0.34517 0.94462 0.95546 0.0
H950 H 0.34866 0.86081 0.96711 0.0
H951 H 0.3244 0.95322 0.96758 0.0
H952 H 0.28993 0.80788 0.98376 0.0
H953 H 0.20517 0.77863 0.96447 0.0
H954 H 0.4344 0.02216 0.98639 0.0
H955 H 0.36541 0.872 0.95182 0.0
H956 H 0.34354 0.96829 0.95241 0.0
C957 C 0.19747 0.41257 0.97146 0.0
C958 C 0.23736 0.42917 0.97154 0.0
N959 N 0.25223 0.45989 0.97697 0.0
N960 N 0.18735 0.43301 0.97674 0.0
C961 C 0.22118 0.46153 0.97998 0.0
H962 H 0.17705 0.38626 0.96811 0.0
Co963 Co 0.13794 0.41932 0.98067 0.0
C964 C 0.13709 0.4932 0.98043 0.0
O965 O 0.10277 0.47472 0.97672 0.0
N966 N 0.08789 0.40438 0.98519 0.0
C967 C 0.04323 0.40155 0.99441 0.0
C968 C 0.08132 0.42269 0.99181 0.0
C969 C 0.05335 0.37108 0.98421 0.0
N970 N 0.0256 0.36906 0.9896 0.0
O971 O 0.15485 0.41542 0.99196 0.0
H972 H 0.10332 0.44894 0.9949 0.0
H973 H 0.04909 0.34698 0.98024 0.0
O974 O 0.15476 0.47483 0.9825 0.0
C975 C 0.15273 0.38255 0.99281 0.0
O976 O 0.1308 0.35499 0.9873 0.0
N977 N 0.12293 0.42142 0.96908 0.0
C978 C 0.10716 0.42107 0.95138 0.0
C979 C 0.13719 0.45427 0.95534 0.0
C980 C 0.14498 0.45361 0.96412 0.0
C981 C 0.09544 0.38811 0.9652 0.0
C982 C 0.08623 0.38757 0.95645 0.0
H983 H 0.17008 0.4786 0.96682 0.0
H984 H 0.08208 0.36112 0.96869 0.0
H985 H 0.22273 0.48226 0.98473 0.0
H986 H 0.25384 0.41829 0.96817 0.0
H987 H 0.02991 0.40891 -0.00037 0.0
H988 H 0.15577 0.48019 0.95164 0.0
H989 H 0.06352 0.36079 0.95367 0.0
C990 C 0.21693 0.40984 0.46565 0.0
C991 C 0.19423 0.42707 0.46627 0.0
N992 N 0.20754 0.45246 0.47293 0.0
N993 N 0.24463 0.42478 0.47181 0.0
C994 C 0.23808 0.45046 0.47611 0.0
H995 H 0.21288 0.38717 0.46118 0.0
Co996 Co 0.28021 0.40982 0.47519 0.0
C997 C 0.3306 0.48371 0.48505 0.0
O998 O 0.3181 0.4676 0.49268 0.0
N999 N 0.31573 0.39453 0.47879 0.0
C1000 C 0.37004 0.39442 0.48226 0.0
C1001 C 0.35482 0.41664 0.47926 0.0
C1002 C 0.30798 0.35878 0.48136 0.0
N1003 N 0.34055 0.35802 0.48353 0.0
O1004 O 0.25642 0.39878 0.48641 0.0
H1005 H 0.37144 0.44694 0.47746 0.0
H1006 H 0.279 0.33382 0.48169 0.0
O1007 O 0.31725 0.4634 0.4782 0.0
C1008 C 0.22405 0.36703 0.48611 0.0
O1009 O 0.2176 0.3442 0.4794 0.0
N1010 N 0.30061 0.41861 0.46392 0.0
C1011 C 0.32068 0.42564 0.44639 0.0
C1012 C 0.32127 0.45663 0.4509 0.0
C1013 C 0.31116 0.45254 0.45964 0.0
C1014 C 0.30001 0.3882 0.4597 0.0
C1015 C 0.31044 0.39126 0.45097 0.0
H1016 H 0.30981 0.476 0.46284 0.0
H1017 H 0.29041 0.36101 0.46305 0.0
H1018 H 0.25508 0.4669 0.48162 0.0
H1019 H 0.16924 0.42053 0.46231 0.0
H1020 H 0.40049 0.40408 0.48328 0.0
H1021 H 0.32786 0.48334 0.44763 0.0
H1022 H 0.30986 0.36663 0.44783 0.0
C1023 C 0.59804 0.80299 0.46844 0.0
C1024 C 0.57605 0.76408 0.4703 0.0
N1025 N 0.5432 0.7578 0.47427 0.0
N1026 N 0.57924 0.82132 0.47117 0.0
C1027 C 0.54582 0.79304 0.47471 0.0
H1028 H 0.62647 0.8173 0.46545 0.0
Co1029 Co 0.60195 0.87508 0.47085 0.0
C1030 C 0.53878 0.89345 0.47477 0.0
O1031 O 0.55942 0.92937 0.47203 0.0
N1032 N 0.62747 0.93075 0.47046 0.0
C1033 C 0.6547 0.99177 0.46558 0.0
C1034 C 0.63097 0.95336 0.46355 0.0
C1035 C 0.64959 0.95686 0.47664 0.0
N1036 N 0.66667 0.99404 0.4738 0.0
O1037 O 0.61629 0.87567 0.48259 0.0
H1038 H 0.61712 0.9432 0.45735 0.0
H1039 H 0.65433 0.94895 0.48303 0.0
O1040 O 0.55284 0.87072 0.47463 0.0
C1041 C 0.64879 0.87704 0.48348 0.0
O1042 O 0.67304 0.88942 0.4769 0.0
N1043 N 0.58878 0.87165 0.45912 0.0
C1044 C 0.57899 0.86954 0.44124 0.0
C1045 C 0.54821 0.86223 0.44681 0.0
C1046 C 0.55346 0.86272 0.45576 0.0
C1047 C 0.61843 0.87707 0.4538 0.0
C1048 C 0.61423 0.87628 0.44482 0.0
H1049 H 0.529 0.85581 0.45989 0.0
H1050 H 0.64587 0.88303 0.45658 0.0
H1051 H 0.52449 0.79829 0.47782 0.0
H1052 H 0.58367 0.74209 0.46883 0.0
H1053 H 0.66257 0.01618 0.46131 0.0
H1054 H 0.52025 0.8559 0.44427 0.0
H1055 H 0.63863 0.88193 0.44073 0.0
C1056 C 0.19965 0.79667 0.47779 0.0
C1057 C 0.23956 0.81866 0.47799 0.0
N1058 N 0.25362 0.79474 0.47962 0.0
N1059 N 0.18871 0.75921 0.47939 0.0
C1060 C 0.22235 0.75895 0.48045 0.0
H1061 H 0.17977 0.80738 0.47672 0.0
Co1062 Co 0.13736 0.71998 0.4808 0.0
C1063 C 0.14267 0.65689 0.48941 0.0
O1064 O 0.11758 0.65419 0.4953 0.0
N1065 N 0.08515 0.68079 0.48218 0.0
C1066 C 0.02901 0.62621 0.47994 0.0
C1067 C 0.06856 0.64461 0.47877 0.0
C1068 C 0.05506 0.68345 0.48548 0.0
N1069 N 0.0207 0.65071 0.48417 0.0
O1070 O 0.14167 0.73485 0.49266 0.0
H1071 H 0.08408 0.63297 0.47528 0.0
H1072 H 0.05776 0.70945 0.48835 0.0
O1073 O 0.15361 0.68271 0.48351 0.0
C1074 C 0.13742 0.764 0.4942 0.0
O1075 O 0.11989 0.77391 0.48837 0.0
N1076 N 0.13455 0.70789 0.46903 0.0
C1077 C 0.12647 0.68902 0.45146 0.0
C1078 C 0.15564 0.68826 0.45645 0.0
C1079 C 0.15899 0.69747 0.46523 0.0
C1080 C 0.10736 0.71081 0.46424 0.0
C1081 C 0.10224 0.70072 0.45549 0.0
H1082 H 0.18146 0.69637 0.46893 0.0
H1083 H 0.08879 0.72001 0.46729 0.0
H1084 H 0.22413 0.73335 0.482 0.0
H1085 H 0.25694 0.8497 0.47695 0.0
H1086 H 0.00788 0.59748 0.47768 0.0
H1087 H 0.176 0.68083 0.45363 0.0
H1088 H 0.07903 0.70149 0.452 0.0
C1089 C 0.06424 0.52919 0.36124 0.0
C1090 C 0.08414 0.50988 0.35954 0.0
N1091 N 0.11762 0.53453 0.35547 0.0
N1092 N 0.08492 0.56584 0.35827 0.0
C1093 C 0.11719 0.56825 0.35475 0.0
H1094 H 0.03598 0.51706 0.36426 0.0
Co1095 Co 0.06702 0.60103 0.35829 0.0
C1096 C 0.14058 0.67766 0.35804 0.0
O1097 O 0.12763 0.68972 0.36443 0.0
N1098 N 0.04671 0.63621 0.35822 0.0
C1099 C 0.02597 0.67667 0.36241 0.0
C1100 C 0.0484 0.66071 0.36455 0.0
C1101 C 0.02264 0.63834 0.35226 0.0
N1102 N 0.00944 0.66237 0.35471 0.0
O1103 O 0.05371 0.58811 0.34644 0.0
H1104 H 0.06379 0.66621 0.3706 0.0
H1105 H 0.01321 0.6212 0.34641 0.0
O1106 O 0.11934 0.64356 0.35492 0.0
C1107 C 0.021 0.55678 0.34608 0.0
O1108 O 0.99823 0.54751 0.3529 0.0
N1109 N 0.07809 0.60881 0.37016 0.0
C1110 C 0.08886 0.61652 0.38805 0.0
C1111 C 0.11984 0.62397 0.3825 0.0
C1112 C 0.11375 0.61955 0.37358 0.0
C1113 C 0.04681 0.59694 0.37548 0.0
C1114 C 0.05169 0.6019 0.38441 0.0
H1115 H 0.13772 0.62466 0.36942 0.0
H1116 H 0.0181 0.58537 0.37271 0.0
H1117 H 0.13988 0.59423 0.35172 0.0
H1118 H 0.07414 0.47973 0.36103 0.0
H1119 H 0.02147 0.69663 0.36634 0.0
H1120 H 0.14859 0.63305 0.38499 0.0
H1121 H 0.02661 0.59526 0.38835 0.0
C1122 C 0.46044 0.53298 0.35922 0.0
C1123 C 0.48257 0.57266 0.35805 0.0
N1124 N 0.46457 0.58353 0.3522 0.0
N1125 N 0.42854 0.51907 0.35421 0.0
C1126 C 0.43192 0.55042 0.35002 0.0
H1127 H 0.46773 0.51523 0.36324 0.0
Co1128 Co 0.39164 0.46758 0.35198 0.0
C1129 C 0.33265 0.47887 0.34282 0.0
O1130 O 0.33465 0.46029 0.33598 0.0
N1131 N 0.35467 0.41561 0.34961 0.0
C1132 C 0.29936 0.35919 0.34849 0.0
C1133 C 0.31582 0.39764 0.35084 0.0
C1134 C 0.36122 0.38726 0.34674 0.0
N1135 N 0.32805 0.35277 0.34597 0.0
O1136 O 0.40955 0.47618 0.34028 0.0
H1137 H 0.30039 0.41137 0.35344 0.0
H1138 H 0.38971 0.39165 0.34525 0.0
O1139 O 0.35369 0.4832 0.34943 0.0
C1140 C 0.44084 0.47501 0.33948 0.0
O1141 O 0.45092 0.45997 0.34586 0.0
N1142 N 0.37688 0.46011 0.36365 0.0
C1143 C 0.36292 0.45036 0.38146 0.0
C1144 C 0.35894 0.47874 0.37687 0.0
C1145 C 0.36604 0.48314 0.36797 0.0
C1146 C 0.38119 0.43261 0.36797 0.0
C1147 C 0.3738 0.42685 0.37684 0.0
H1148 H 0.36421 0.50604 0.36462 0.0
H1149 H 0.3909 0.41531 0.36453 0.0
H1150 H 0.41106 0.54876 0.3453 0.0
H1151 H 0.5103 0.5917 0.36107 0.0
H1152 H 0.26886 0.3374 0.34882 0.0
H1153 H 0.3516 0.49828 0.38016 0.0
H1154 H 0.37685 0.40426 0.38003 0.0
C1155 C 0.47398 0.92291 0.35632 0.0
C1156 C 0.43397 0.90297 0.35653 0.0
N1157 N 0.42116 0.87065 0.35169 0.0
N1158 N 0.48622 0.90327 0.35134 0.0
C1159 C 0.45332 0.87155 0.34861 0.0
H1160 H 0.49301 0.95024 0.35949 0.0
Co1161 Co 0.53761 0.92037 0.34835 0.0
C1162 C 0.52921 0.85441 0.33745 0.0
O1163 O 0.55097 0.87701 0.33114 0.0
N1164 N 0.58978 0.93806 0.34541 0.0
C1165 C 0.6468 0.94079 0.34385 0.0
C1166 C 0.60846 0.9176 0.3461 0.0
C1167 C 0.61779 0.97407 0.34299 0.0
N1168 N 0.65267 0.97634 0.34194 0.0
O1169 O 0.52725 0.9353 0.33732 0.0
H1170 H 0.59528 0.88783 0.34831 0.0
H1171 H 0.61291 0.99827 0.34206 0.0
O1172 O 0.52278 0.86907 0.34413 0.0
C1173 C 0.52744 0.96737 0.338 0.0
O1174 O 0.54311 0.98834 0.34499 0.0
N1175 N 0.54655 0.90754 0.35941 0.0
C1176 C 0.55729 0.89579 0.37676 0.0
C1177 C 0.53569 0.86412 0.37122 0.0
C1178 C 0.53023 0.87059 0.36259 0.0
C1179 C 0.56808 0.93866 0.36462 0.0
C1180 C 0.57384 0.93348 0.37332 0.0
H1181 H 0.51195 0.84579 0.35859 0.0
H1182 H 0.57992 0.96773 0.36204 0.0
H1183 H 0.45268 0.84998 0.34425 0.0
H1184 H 0.4157 0.91127 0.36006 0.0
H1185 H 0.66898 0.93256 0.34387 0.0
H1186 H 0.52262 0.83451 0.37355 0.0
H1187 H 0.59002 0.95887 0.37736 0.0
C1188 C 0.14513 0.16142 0.19212 0.0
C1189 C 0.11974 0.16805 0.18703 0.0
C1190 C 0.15196 0.13072 0.19028 0.0
C1191 C 0.13257 0.1056 0.18324 0.0
C1192 C 0.10713 0.11217 0.17803 0.0
C1193 C 0.10126 0.14343 0.17994 0.0
C1194 C 0.17967 0.12495 0.19594 0.0
C1195 C 0.08574 0.08592 0.17049 0.0
C1196 C 0.1747 0.04481 0.17454 0.0
C1197 C 0.15258 0.00967 0.179 0.0
C1198 C 0.16818 0.07614 0.17577 0.0
C1199 C 0.1384 0.07199 0.18146 0.0
C1200 C 0.11507 0.03609 0.18573 0.0
C1201 C 0.12266 0.0055 0.1845 0.0
C1202 C 0.194 0.11411 0.17119 0.0
C1203 C 0.08255 0.03021 0.19172 0.0
H1204 H 0.1593 0.17983 0.19765 0.0
H1205 H 0.08228 0.14858 0.17582 0.0
H1206 H 0.16387 0.0964 0.19925 0.0
H1207 H 0.20266 0.12471 0.19191 0.0
H1208 H 0.19374 0.14802 0.20093 0.0
H1209 H 0.06694 0.09495 0.16708 0.0
H1210 H 0.10679 0.08584 0.16579 0.0
H1211 H 0.06737 0.05561 0.17281 0.0
H1212 H 0.19803 0.04831 0.17033 0.0
H1213 H 0.10527 0.9783 0.18791 0.0
H1214 H 0.21087 0.13709 0.17603 0.0
H1215 H 0.17617 0.12348 0.16749 0.0
H1216 H 0.21467 0.11208 0.16667 0.0
H1217 H 0.09466 0.04992 0.19737 0.0
H1218 H 0.06561 0.99984 0.19412 0.0
H1219 H 0.06249 0.03765 0.18834 0.0
C1220 C 0.9248 0.12857 0.17367 0.0
C1221 C 0.95391 0.14704 0.17995 0.0
C1222 C 0.89418 0.0902 0.17485 0.0
C1223 C 0.89247 0.06988 0.18253 0.0
C1224 C 0.92198 0.08822 0.18884 0.0
C1225 C 0.95238 0.12634 0.18745 0.0
C1226 C 0.86353 0.07147 0.16792 0.0
C1227 C 0.92129 0.06772 0.19714 0.0
C1228 C 0.79629 0.98539 0.19033 0.0
C1229 C 0.80002 0.95316 0.18811 0.0
C1230 C 0.82573 0.02344 0.18839 0.0
C1231 C 0.85975 0.02956 0.18405 0.0
C1232 C 0.86334 0.99717 0.1816 0.0
C1233 C 0.83357 0.95946 0.18368 0.0
C1234 C 0.8208 0.05718 0.19115 0.0
C1235 C 0.89907 0.00236 0.17695 0.0
H1236 H 0.92574 0.14416 0.16783 0.0
H1237 H 0.97493 0.1399 0.19229 0.0
H1238 H 0.86183 0.0441 0.1657 0.0
H1239 H 0.83464 0.06372 0.1706 0.0
H1240 H 0.86947 0.09078 0.16224 0.0
H1241 H 0.94635 0.08609 0.20141 0.0
H1242 H 0.89406 0.05931 0.20074 0.0
H1243 H 0.92168 0.04061 0.19564 0.0
H1244 H 0.77032 0.98091 0.19363 0.0
H1245 H 0.83717 0.93498 0.18202 0.0
H1246 H 0.82404 0.07574 0.18548 0.0
H1247 H 0.84385 0.07551 0.19585 0.0
H1248 H 0.79205 0.04752 0.19418 0.0
H1249 H 0.90456 0.02043 0.17108 0.0
H1250 H 0.89636 0.97417 0.17502 0.0
H1251 H 0.92485 0.01788 0.18121 0.0
C1252 C 0.83164 0.78911 0.17246 0.0
C1253 C 0.82144 0.81354 0.17686 0.0
C1254 C 0.86904 0.79401 0.1733 0.0
C1255 C 0.89692 0.8245 0.17854 0.0
C1256 C 0.88734 0.85062 0.18257 0.0
C1257 C 0.84956 0.84454 0.18176 0.0
C1258 C 0.87801 0.76529 0.169 0.0
C1259 C 0.91649 0.88408 0.18803 0.0
C1260 C 0.97675 0.81529 0.18984 0.0
C1261 C 0.00918 0.83876 0.18467 0.0
C1262 C 0.9398 0.80933 0.18774 0.0
C1263 C 0.93518 0.82763 0.18033 0.0
C1264 C 0.96748 0.85041 0.17494 0.0
C1265 C 0.00398 0.85542 0.17713 0.0
C1266 C 0.90591 0.78435 0.19359 0.0
C1267 C 0.96377 0.87054 0.167 0.0
H1268 H 0.8098 0.7649 0.16873 0.0
H1269 H 0.84173 0.86361 0.18513 0.0
H1270 H 0.90562 0.78068 0.16532 0.0
H1271 H 0.88185 0.74751 0.17402 0.0
H1272 H 0.8545 0.74546 0.16453 0.0
H1273 H 0.90568 0.90391 0.18999 0.0
H1274 H 0.92303 0.87269 0.19397 0.0
H1275 H 0.94416 0.9011 0.18444 0.0
H1276 H 0.98035 0.80244 0.19569 0.0
H1277 H 0.02852 0.87276 0.17295 0.0
H1278 H 0.88141 0.76175 0.18976 0.0
H1279 H 0.89543 0.8025 0.19675 0.0
H1280 H 0.91371 0.76985 0.19872 0.0
H1281 H 0.94019 0.84935 0.16275 0.0
H1282 H 0.99115 0.88531 0.16321 0.0
H1283 H 0.95583 0.89252 0.16898 0.0
C1284 C 0.0479 0.17037 0.31289 0.0
C1285 C 0.04922 0.19646 0.31918 0.0
C1286 C 0.07917 0.16389 0.31171 0.0
C1287 C 0.11292 0.18429 0.31688 0.0
C1288 C 0.11415 0.20999 0.32339 0.0
C1289 C 0.08213 0.21564 0.3245 0.0
C1290 C 0.0763 0.13567 0.3048 0.0
C1291 C 0.14968 0.23235 0.329 0.0
C1292 C 0.17645 0.13816 0.31692 0.0
C1293 C 0.20251 0.15814 0.31014 0.0
C1294 C 0.14864 0.14794 0.31956 0.0
C1295 C 0.14674 0.17853 0.31534 0.0
C1296 C 0.17462 0.20059 0.30892 0.0
C1297 C 0.20212 0.19008 0.30639 0.0
C1298 C 0.11956 0.12369 0.32644 0.0
C1299 C 0.174 0.23388 0.30437 0.0
H1300 H 0.02245 0.15526 0.3088 0.0
H1301 H 0.08346 0.2361 0.32931 0.0
H1302 H 0.09908 0.15121 0.29983 0.0
H1303 H 0.08139 0.113 0.30767 0.0
H1304 H 0.04751 0.12117 0.30154 0.0
H1305 H 0.14496 0.24888 0.33419 0.0
H1306 H 0.15817 0.21234 0.33201 0.0
H1307 H 0.17446 0.2531 0.32494 0.0
H1308 H 0.17605 0.1133 0.31988 0.0
H1309 H 0.22258 0.20617 0.30128 0.0
H1310 H 0.09069 0.10531 0.3234 0.0
H1311 H 0.11636 0.14253 0.33127 0.0
H1312 H 0.12797 0.10441 0.32986 0.0
H1313 H 0.14789 0.2224 0.30017 0.0
H1314 H 0.20018 0.25088 0.30029 0.0
H1315 H 0.17208 0.25368 0.30915 0.0
C1316 C 0.83661 0.88059 0.31665 0.0
C1317 C 0.82527 0.8593 0.30894 0.0
C1318 C 0.85127 0.92102 0.31657 0.0
C1319 C 0.85545 0.94031 0.30858 0.0
C1320 C 0.84602 0.91892 0.30075 0.0
C1321 C 0.83047 0.8786 0.30105 0.0
C1322 C 0.86038 0.94269 0.32505 0.0
C1323 C 0.85083 0.93835 0.29208 0.0
C1324 C 0.84844 0.03187 0.30674 0.0
C1325 C 0.8875 0.06058 0.30584 0.0
C1326 C 0.83779 0.99284 0.30805 0.0
C1327 C 0.86692 0.98219 0.30832 0.0
C1328 C 0.90653 0.01126 0.30758 0.0
C1329 C 0.91635 0.05022 0.30644 0.0
C1330 C 0.79529 0.96288 0.309 0.0
C1331 C 0.93838 1.00106 0.30764 0.0
H1332 H 0.83217 0.86538 0.32275 0.0
H1333 H 0.82175 0.86192 0.29509 0.0
H1334 H 0.88985 0.9687 0.32486 0.0
H1335 H 0.83945 0.95304 0.32614 0.0
H1336 H 0.85869 0.92423 0.33062 0.0
H1337 H 0.84574 0.91825 0.28659 0.0
H1338 H 0.82998 0.9491 0.29153 0.0
H1339 H 0.88051 0.96384 0.29147 0.0
H1340 H 0.82625 0.04008 0.30644 0.0
H1341 H 0.94656 0.07249 0.30571 0.0
H1342 H 0.79037 0.94754 0.31527 0.0
H1343 H 0.78636 0.94075 0.3038 0.0
H1344 H 0.77632 0.97596 0.30867 0.0
H1345 H 0.93561 0.98314 0.31339 0.0
H1346 H 0.9678 0.02729 0.30765 0.0
H1347 H 0.93563 0.98345 0.30183 0.0
C1348 C 0.10135 0.98246 0.312 0.0
C1349 C 0.1376 0.98493 0.31313 0.0
C1350 C 0.0669 0.94655 0.3118 0.0
C1351 C 0.06844 0.91199 0.31288 0.0
C1352 C 0.10451 0.91423 0.31462 0.0
C1353 C 0.13875 0.95075 0.31472 0.0
C1354 C 0.02905 0.9456 0.30998 0.0
C1355 C 0.10716 0.87803 0.316 0.0
C1356 C 0.96843 0.82523 0.31676 0.0
C1357 C 0.95717 0.81107 0.30831 0.0
C1358 C 0.00586 0.85624 0.31849 0.0
C1359 C 0.03238 0.87388 0.31158 0.0
C1360 C 0.02192 0.85811 0.30313 0.0
C1361 C 0.98447 0.82667 0.30161 0.0
C1362 C 0.01615 0.87161 0.32762 0.0
C1363 C 0.04923 0.87622 0.29557 0.0
H1364 H 0.09986 0.00862 0.3109 0.0
H1365 H 0.1664 0.95234 0.31581 0.0
H1366 H 0.01699 0.9308 0.30371 0.0
H1367 H 0.00736 0.9288 0.31506 0.0
H1368 H 0.03263 0.97516 0.30967 0.0
H1369 H 0.13623 0.88482 0.31842 0.0
H1370 H 0.08473 0.85831 0.32067 0.0
H1371 H 0.10157 0.86208 0.30979 0.0
H1372 H 0.94752 0.81266 0.32197 0.0
H1373 H 0.97577 0.81584 0.29508 0.0
H1374 H 0.01657 0.89968 0.32809 0.0
H1375 H 0.04557 0.87715 0.32936 0.0
H1376 H 0.99495 0.85122 0.33241 0.0
H1377 H 0.05274 0.90522 0.29417 0.0
H1378 H 0.03838 0.85817 0.28962 0.0
H1379 H 0.07838 0.88063 0.29715 0.0
C1380 C 0.84992 0.97714 0.81631 0.0
C1381 C 0.81711 0.96973 0.82117 0.0
C1382 C 0.85997 0.9483 0.81506 0.0
C1383 C 0.83625 0.91084 0.81863 0.0
C1384 C 0.80376 0.90352 0.82378 0.0
C1385 C 0.79474 0.93319 0.82505 0.0
C1386 C 0.89535 0.95763 0.80969 0.0
C1387 C 0.77758 0.86389 0.82764 0.0
C1388 C 0.83883 0.82797 0.80691 0.0
C1389 C 0.86386 0.82154 0.81217 0.0
C1390 C 0.82888 0.85626 0.80905 0.0
C1391 C 0.84451 0.87897 0.81662 0.0
C1392 C 0.86916 0.87217 0.82205 0.0
C1393 C 0.87838 0.8435 0.81979 0.0
C1394 C 0.80222 0.8624 0.80312 0.0
C1395 C 0.88645 0.89574 0.83018 0.0
H1396 H 0.86748 0.00545 0.81335 0.0
H1397 H 0.76919 0.92721 0.82876 0.0
H1398 H 0.9145 0.9495 0.81325 0.0
H1399 H 0.88624 0.94039 0.80362 0.0
H1400 H 0.91245 0.98894 0.80798 0.0
H1401 H 0.75516 0.86365 0.83198 0.0
H1402 H 0.76272 0.84252 0.82237 0.0
H1403 H 0.79489 0.85397 0.83137 0.0
H1404 H 0.82766 0.81153 0.80098 0.0
H1405 H 0.89701 0.83836 0.82403 0.0
H1406 H 0.81807 0.89203 0.8003 0.0
H1407 H 0.7773 0.86021 0.80683 0.0
H1408 H 0.7908 0.84096 0.79775 0.0
H1409 H 0.9053 0.92682 0.82847 0.0
H1410 H 0.90402 0.88595 0.83387 0.0
H1411 H 0.86309 0.89374 0.83445 0.0
C1412 C 0.16264 0.04419 0.81785 0.0
C1413 C 0.18794 0.0503 0.81091 0.0
C1414 C 0.13313 0.00673 0.82012 0.0
C1415 C 0.129 0.97436 0.81541 0.0
C1416 C 0.15516 0.98005 0.8086 0.0
C1417 C 0.18415 0.01792 0.8064 0.0
C1418 C 0.10578 0.0019 0.82742 0.0
C1419 C 0.15195 0.94618 0.80349 0.0
C1420 C 0.06966 0.87276 0.8249 0.0
C1421 C 0.03509 0.85803 0.82014 0.0
C1422 C 0.10043 0.91078 0.82351 0.0
C1423 C 0.09616 0.93471 0.81732 0.0
C1424 C 0.06071 0.92041 0.81275 0.0
C1425 C 0.03075 0.88216 0.81417 0.0
C1426 C 0.13796 0.92487 0.82843 0.0
C1427 C 0.05468 0.94525 0.80624 0.0
H1428 H 0.16574 0.06865 0.82156 0.0
H1429 H 0.20324 0.02213 0.80101 0.0
H1430 H 0.07571 0.98909 0.82489 0.0
H1431 H 0.10568 0.98154 0.83234 0.0
H1432 H 0.11374 0.02991 0.83063 0.0
H1433 H 0.17611 0.95523 0.79878 0.0
H1434 H 0.15191 0.9242 0.80792 0.0
H1435 H 0.12406 0.93184 0.79989 0.0
H1436 H 0.07327 0.8541 0.82947 0.0
H1437 H 0.00394 0.87097 0.81052 0.0
H1438 H 0.1463 0.95275 0.83173 0.0
H1439 H 0.16167 0.93043 0.82383 0.0
H1440 H 0.13592 0.9035 0.83333 0.0
H1441 H 0.06058 0.97298 0.80927 0.0
H1442 H 0.0247 0.93046 0.80357 0.0
H1443 H 0.07542 0.95262 0.80079 0.0
C1444 C 0.13275 0.17357 0.8093 0.0
C1445 C 0.15197 0.18569 0.81728 0.0
C1446 C 0.09389 0.16419 0.80837 0.0
C1447 C 0.0735 0.16673 0.81563 0.0
C1448 C 0.09252 0.17851 0.82374 0.0
C1449 C 0.13157 0.18797 0.82446 0.0
C1450 C 0.07476 0.15193 0.7996 0.0
C1451 C 0.07164 0.18127 0.83163 0.0
C1452 C 0.98513 0.17683 0.81076 0.0
C1453 C 0.95469 0.13835 0.81157 0.0
C1454 C 0.02384 0.18665 0.81227 0.0
C1455 C 0.03236 0.15728 0.81466 0.0
C1456 C 1.00167 0.11855 0.81569 0.0
C1457 C 0.96325 0.10956 0.81413 0.0
C1458 C 0.0557 0.22832 0.81113 0.0
C1459 C 0.00948 0.08638 0.81823 0.0
H1460 H 0.14819 0.17181 0.8037 0.0
H1461 H 0.1461 0.19721 0.83067 0.0
H1462 H 0.04861 0.12261 0.80002 0.0
H1463 H 0.06497 0.17227 0.79743 0.0
H1464 H 0.09457 0.15125 0.79462 0.0
H1465 H 0.09035 0.19042 0.83749 0.0
H1466 H 0.06165 0.20243 0.83046 0.0
H1467 H 0.04542 0.15272 0.83293 0.0
H1468 H 0.97866 0.1993 0.80893 0.0
H1469 H 0.93999 0.0797 0.81467 0.0
H1470 H 0.07523 0.23025 0.80579 0.0
H1471 H 0.0736 0.23884 0.81709 0.0
H1472 H 0.0441 0.24796 0.80965 0.0
H1473 H 0.02688 0.08252 0.81312 0.0
H1474 H 0.98227 0.05821 0.81922 0.0
H1475 H 0.02678 0.09416 0.82429 0.0
C1476 C 0.98324 0.85033 0.68579 0.0
C1477 C 0.97773 0.81851 0.68079 0.0
C1478 C 0.95329 0.85895 0.68685 0.0
C1479 C 0.91666 0.83467 0.68296 0.0
C1480 C 0.91121 0.80301 0.67774 0.0
C1481 C 0.94197 0.79552 0.67665 0.0
C1482 C 0.96059 0.89349 0.6923 0.0
C1483 C 0.87245 0.77618 0.67358 0.0
C1484 C 0.83027 0.83279 0.69398 0.0
C1485 C 0.82332 0.85721 0.68862 0.0
C1486 C 0.85993 0.82451 0.69209 0.0
C1487 C 0.88363 0.84139 0.68471 0.0
C1488 C 0.87646 0.86552 0.67919 0.0
C1489 C 0.84624 0.87287 0.68117 0.0
C1490 C 0.86638 0.79824 0.69809 0.0
C1491 C 0.90124 0.88424 0.67129 0.0
H1492 H 0.01097 0.86838 0.68895 0.0
H1493 H 0.93751 0.77074 0.67283 0.0
H1494 H 0.95226 0.91234 0.68868 0.0
H1495 H 0.94233 0.88338 0.69821 0.0
H1496 H 0.99151 0.91121 0.69429 0.0
H1497 H 0.87355 0.75416 0.66934 0.0
H1498 H 0.85028 0.76085 0.67868 0.0
H1499 H 0.86264 0.79309 0.66967 0.0
H1500 H 0.81312 0.82078 0.69978 0.0
H1501 H 0.8407 0.89101 0.67685 0.0
H1502 H 0.89542 0.8148 0.70116 0.0
H1503 H 0.86589 0.77411 0.69437 0.0
H1504 H 0.84407 0.78568 0.70327 0.0
H1505 H 0.93187 0.90361 0.67327 0.0
H1506 H 0.89135 0.9016 0.66755 0.0
H1507 H 0.90076 0.86171 0.66697 0.0
C1508 C 0.11697 0.96859 0.68603 0.0
C1509 C 0.14725 0.96109 0.68781 0.0
C1510 C 0.12461 0.00616 0.68397 0.0
C1511 C 0.1635 0.03716 0.68373 0.0
C1512 C 0.19426 0.02968 0.68533 0.0
C1513 C 0.18577 0.99174 0.68734 0.0
C1514 C 0.09096 0.01286 0.68229 0.0
C1515 C 0.23613 0.06193 0.68512 0.0
C1516 C 0.18616 0.1323 0.67285 0.0
C1517 C 0.18739 0.15478 0.67997 0.0
C1518 C 0.17827 0.09387 0.67395 0.0
C1519 C 0.17182 0.07773 0.68238 0.0
C1520 C 0.17312 0.10034 0.68958 0.0
C1521 C 0.18074 0.13844 0.68829 0.0
C1522 C 0.17674 0.07049 0.6661 0.0
C1523 C 0.16669 0.08437 0.69868 0.0
H1524 H 0.08711 0.94523 0.68646 0.0
H1525 H 0.20933 0.98608 0.68853 0.0
H1526 H 0.08981 0.03181 0.68741 0.0
H1527 H 0.09504 0.02807 0.67602 0.0
H1528 H 0.06263 0.98529 0.68215 0.0
H1529 H 0.25671 0.05099 0.68607 0.0
H1530 H 0.24272 0.07756 0.67885 0.0
H1531 H 0.2412 0.08336 0.69029 0.0
H1532 H 0.1912 0.14465 0.6664 0.0
H1533 H 0.18198 0.1556 0.69385 0.0
H1534 H 0.14773 0.04394 0.66564 0.0
H1535 H 0.19845 0.06084 0.66674 0.0
H1536 H 0.1825 0.08726 0.66 0.0
H1537 H 0.13753 0.05807 0.69921 0.0
H1538 H 0.16894 0.10583 0.70359 0.0
H1539 H 0.18842 0.07551 0.70024 0.0
C1540 C 0.86787 0.06328 0.67597 0.0
C1541 C 0.85445 0.0289 0.68075 0.0
C1542 C 0.90622 0.09416 0.67688 0.0
C1543 C 0.93192 0.09033 0.68262 0.0
C1544 C 0.9189 0.05512 0.68722 0.0
C1545 C 0.88028 0.02498 0.68628 0.0
C1546 C 0.91883 0.13136 0.67193 0.0
C1547 C 0.94554 0.04955 0.69328 0.0
C1548 C 0.04096 0.15895 0.68051 0.0
C1549 C 0.04847 0.18508 0.68735 0.0
C1550 C 0.00323 0.12818 0.67885 0.0
C1551 C 0.97197 0.12359 0.68408 0.0
C1552 C 0.9791 0.15032 0.69086 0.0
C1553 C 0.01719 0.18054 0.69244 0.0
C1554 C 0.99691 0.10024 0.67158 0.0
C1555 C 0.9465 0.14668 0.69654 0.0
H1556 H 0.84802 0.06663 0.67172 0.0
H1557 H 0.87021 0.99837 0.68994 0.0
H1558 H 0.926 0.15544 0.67654 0.0
H1559 H 0.94553 0.1393 0.66816 0.0
H1560 H 0.89598 0.12909 0.66743 0.0
H1561 H 0.93164 0.01966 0.69599 0.0
H1562 H 0.9725 0.05554 0.68984 0.0
H1563 H 0.9542 0.07046 0.69873 0.0
H1564 H 0.06453 0.16248 0.67639 0.0
H1565 H 0.02247 0.20015 0.69779 0.0
H1566 H 0.97548 0.0997 0.6669 0.0
H1567 H 0.98471 0.07037 0.67419 0.0
H1568 H 0.02421 0.108 0.66805 0.0
H1569 H 0.92324 0.14632 0.6925 0.0
H1570 H 0.95654 0.17083 0.70129 0.0
H1571 H 0.93341 0.11881 0.70014 0.0
C1572 C 0.81317 0.50587 0.52346 0.0
C1573 C 0.78562 0.50893 0.51833 0.0
C1574 C 0.82524 0.47904 0.52147 0.0
C1575 C 0.80897 0.45409 0.51425 0.0
C1576 C 0.7814 0.45704 0.50901 0.0
C1577 C 0.77029 0.4845 0.51107 0.0
C1578 C 0.85504 0.477 0.52717 0.0
C1579 C 0.76316 0.43075 0.50129 0.0
C1580 C 0.86161 0.40311 0.50562 0.0
C1581 C 0.84225 0.36751 0.51001 0.0
C1582 C 0.85082 0.43152 0.50684 0.0
C1583 C 0.81948 0.42369 0.51244 0.0
C1584 C 0.79883 0.3871 0.51658 0.0
C1585 C 0.81074 0.35965 0.51539 0.0
C1586 C 0.87384 0.47042 0.50241 0.0
C1587 C 0.76466 0.37722 0.52243 0.0
H1588 H 0.82509 0.52406 0.52912 0.0
H1589 H 0.74971 0.48674 0.50689 0.0
H1590 H 0.84184 0.44826 0.53041 0.0
H1591 H 0.87963 0.47996 0.5232 0.0
H1592 H 0.86665 0.49998 0.53222 0.0
H1593 H 0.74246 0.43703 0.4978 0.0
H1594 H 0.78603 0.43399 0.49669 0.0
H1595 H 0.74741 0.39997 0.50343 0.0
H1596 H 0.88621 0.40939 0.50152 0.0
H1597 H 0.79555 0.33205 0.51876 0.0
H1598 H 0.88868 0.49354 0.50735 0.0
H1599 H 0.8542 0.47745 0.49872 0.0
H1600 H 0.89608 0.47123 0.49792 0.0
H1601 H 0.77457 0.39649 0.52819 0.0
H1602 H 0.7501 0.34656 0.52468 0.0
H1603 H 0.743 0.38221 0.51901 0.0
C1604 C 0.4912 0.31282 0.5286 0.0
C1605 C 0.47343 0.28329 0.52242 0.0
C1606 C 0.5177 0.35106 0.52613 0.0
C1607 C 0.52634 0.36002 0.51724 0.0
C1608 C 0.50813 0.33038 0.51095 0.0
C1609 C 0.48192 0.2923 0.51362 0.0
C1610 C 0.53656 0.38187 0.53304 0.0
C1611 C 0.51605 0.33892 0.50141 0.0
C1612 C 0.56676 0.46668 0.51243 0.0
C1613 C 0.60689 0.48071 0.51266 0.0
C1614 C 0.54006 0.42698 0.51337 0.0
C1615 C 0.55388 0.40072 0.51462 0.0
C1616 C 0.59433 0.41437 0.51429 0.0
C1617 C 0.62043 0.4543 0.51328 0.0
C1618 C 0.49715 0.41348 0.51354 0.0
C1619 C 0.61013 0.38717 0.51555 0.0
H1620 H 0.48499 0.30579 0.5354 0.0
H1621 H 0.46768 0.26957 0.50883 0.0
H1622 H 0.56863 0.39547 0.53266 0.0
H1623 H 0.52937 0.40518 0.53196 0.0
H1624 H 0.52707 0.36998 0.53966 0.0
H1625 H 0.50153 0.31214 0.4974 0.0
H1626 H 0.50556 0.35876 0.4993 0.0
H1627 H 0.54777 0.35388 0.50014 0.0
H1628 H 0.55613 0.48695 0.51184 0.0
H1629 H 0.65142 0.46498 0.51345 0.0
H1630 H 0.48551 0.40323 0.52014 0.0
H1631 H 0.48119 0.38862 0.50907 0.0
H1632 H 0.49105 0.43693 0.5117 0.0
H1633 H 0.60525 0.37671 0.52234 0.0
H1634 H 0.64175 0.40149 0.51415 0.0
H1635 H 0.59461 0.3613 0.51132 0.0
C1636 C 0.70256 0.21772 0.51318 0.0
C1637 C 0.71139 0.20206 0.52043 0.0
C1638 C 0.66421 0.20837 0.51134 0.0
C1639 C 0.63357 0.18204 0.51674 0.0
C1640 C 0.64194 0.16523 0.52391 0.0
C1641 C 0.68062 0.17566 0.5257 0.0
C1642 C 0.65658 0.22727 0.50368 0.0
C1643 C 0.61001 0.13659 0.52977 0.0
C1644 C 0.53889 0.18364 0.51829 0.0
C1645 C 0.51405 0.15208 0.51304 0.0
C1646 C 0.57817 0.19455 0.51929 0.0
C1647 C 0.59284 0.17288 0.51509 0.0
C1648 C 0.56811 0.14151 0.50962 0.0
C1649 C 0.52907 0.13172 0.50859 0.0
C1650 C 0.60372 0.22872 0.52503 0.0
C1651 C 0.58246 0.11732 0.50512 0.0
H1652 H 0.7255 0.23746 0.50891 0.0
H1653 H 0.68661 0.16345 0.53135 0.0
H1654 H 0.63568 0.20473 0.49919 0.0
H1655 H 0.64318 0.24442 0.50593 0.0
H1656 H 0.68353 0.24684 0.50005 0.0
H1657 H 0.621 0.12441 0.53477 0.0
H1658 H 0.59584 0.15104 0.53307 0.0
H1659 H 0.58735 0.11228 0.5259 0.0
H1660 H 0.52748 0.19965 0.5217 0.0
H1661 H 0.50993 0.1071 0.50458 0.0
H1662 H 0.63039 0.2496 0.52149 0.0
H1663 H 0.613 0.21858 0.53076 0.0
H1664 H 0.58864 0.24424 0.52731 0.0
H1665 H 0.60889 0.13618 0.50128 0.0
H1666 H 0.56019 0.09516 0.50076 0.0
H1667 H 0.59064 0.10227 0.51003 0.0
C1668 C 0.69723 0.50385 0.64445 0.0
C1669 C 0.70058 0.52459 0.63684 0.0
C1670 C 0.72382 0.49109 0.6463 0.0
C1671 C 0.75397 0.49881 0.64033 0.0
C1672 C 0.75676 0.51889 0.63256 0.0
C1673 C 0.73031 0.53168 0.63095 0.0
C1674 C 0.72014 0.47004 0.65468 0.0
C1675 C 0.78798 0.52724 0.62593 0.0
C1676 C 0.8507 0.5067 0.64569 0.0
C1677 C 0.84597 0.47203 0.64221 0.0
C1678 C 0.81987 0.51442 0.64578 0.0
C1679 C 0.78359 0.48712 0.64214 0.0
C1680 C 0.77806 0.45112 0.63904 0.0
C1681 C 0.80927 0.44391 0.63917 0.0
C1682 C 0.82686 0.55281 0.64931 0.0
C1683 C 0.74007 0.42134 0.63502 0.0
H1684 H 0.67429 0.49819 0.64902 0.0
H1685 H 0.73295 0.54722 0.62499 0.0
H1686 H 0.71855 0.44182 0.65338 0.0
H1687 H 0.74632 0.4875 0.65872 0.0
H1688 H 0.69404 0.4646 0.65843 0.0
H1689 H 0.78509 0.54169 0.62005 0.0
H1690 H 0.81706 0.5463 0.6288 0.0
H1691 H 0.78678 0.49982 0.62395 0.0
H1692 H 0.87883 0.52813 0.64821 0.0
H1693 H 0.80555 0.41709 0.63647 0.0
H1694 H 0.80243 0.54846 0.65354 0.0
H1695 H 0.82849 0.57182 0.64387 0.0
H1696 H 0.85435 0.5681 0.65306 0.0
H1697 H 0.71518 0.41695 0.63908 0.0
H1698 H 0.73855 0.39288 0.63409 0.0
H1699 H 0.73679 0.43199 0.62861 0.0
C1700 C 0.48202 0.20666 0.65625 0.0
C1701 C 0.49893 0.18986 0.65114 0.0
C1702 C 0.48933 0.24454 0.6546 0.0
C1703 C 0.51443 0.26627 0.64772 0.0
C1704 C 0.53281 0.25003 0.64278 0.0
C1705 C 0.52473 0.21202 0.64452 0.0
C1706 C 0.46902 0.26074 0.65999 0.0
C1707 C 0.56017 0.27239 0.63547 0.0
C1708 C 0.50047 0.34432 0.63685 0.0
C1709 C 0.53028 0.37856 0.64055 0.0
C1710 C 0.4948 0.3077 0.6392 0.0
C1711 C 0.51972 0.30505 0.64537 0.0
C1712 C 0.54985 0.33938 0.64916 0.0
C1713 C 0.55464 0.37564 0.64674 0.0
C1714 C 0.46224 0.27179 0.63501 0.0
C1715 C 0.5771 0.33782 0.65575 0.0
H1716 H 0.46199 0.18975 0.66137 0.0
H1717 H 0.53826 0.19944 0.6406 0.0
H1718 H 0.49041 0.28959 0.66264 0.0
H1719 H 0.44858 0.26499 0.65586 0.0
H1720 H 0.45244 0.24126 0.66545 0.0
H1721 H 0.57411 0.25669 0.63263 0.0
H1722 H 0.54402 0.27762 0.63028 0.0
H1723 H 0.58324 0.3012 0.63779 0.0
H1724 H 0.48178 0.34607 0.63199 0.0
H1725 H 0.5773 0.40165 0.64979 0.0
H1726 H 0.44264 0.25164 0.64006 0.0
H1727 H 0.47433 0.25618 0.63137 0.0
H1728 H 0.44477 0.27871 0.6305 0.0
H1729 H 0.56038 0.32041 0.66143 0.0
H1730 H 0.59936 0.36718 0.65801 0.0
H1731 H 0.59212 0.3232 0.65292 0.0
C1732 C 0.64272 0.17441 0.65185 0.0
C1733 C 0.63433 0.1494 0.64474 0.0
C1734 C 0.68078 0.20419 0.65356 0.0
C1735 C 0.71136 0.20897 0.64807 0.0
C1736 C 0.70339 0.18301 0.64108 0.0
C1737 C 0.66499 0.15362 0.63949 0.0
C1738 C 0.68808 0.23123 0.66109 0.0
C1739 C 0.7353 0.18699 0.63512 0.0
C1740 C 0.80115 0.30843 0.64569 0.0
C1741 C 0.82822 0.30489 0.65086 0.0
C1742 C 0.7628 0.27777 0.64491 0.0
C1743 C 0.75129 0.24243 0.64932 0.0
C1744 C 0.77822 0.23886 0.6547 0.0
C1745 C 0.81635 0.27027 0.65545 0.0
C1746 C 0.7348 0.28299 0.63923 0.0
C1747 C 0.76707 0.20151 0.65945 0.0
H1748 H 0.61949 0.17089 0.65609 0.0
H1749 H 0.65887 0.13469 0.63396 0.0
H1750 H 0.71106 0.23231 0.66535 0.0
H1751 H 0.69864 0.26114 0.65865 0.0
H1752 H 0.66151 0.22229 0.66502 0.0
H1753 H 0.72477 0.16287 0.63035 0.0
H1754 H 0.74758 0.21485 0.63153 0.0
H1755 H 0.75929 0.18764 0.63893 0.0
H1756 H 0.80998 0.33512 0.64216 0.0
H1757 H 0.83717 0.26724 0.65942 0.0
H1758 H 0.70828 0.27636 0.64294 0.0
H1759 H 0.72559 0.26236 0.63372 0.0
H1760 H 0.74776 0.31298 0.63661 0.0
H1761 H 0.74081 0.19277 0.66345 0.0
H1762 H 0.79078 0.20405 0.6637 0.0
H1763 H 0.75973 0.17785 0.65471 0.0
C1764 C 0.47287 0.14478 0.13413 0.0
C1765 C 0.49141 0.13133 0.13973 0.0
C1766 C 0.46508 0.17413 0.13674 0.0
C1767 C 0.47628 0.1906 0.14511 0.0
C1768 C 0.49379 0.17626 0.15088 0.0
C1769 C 0.50088 0.14673 0.14814 0.0
C1770 C 0.44593 0.18836 0.13042 0.0
C1771 C 0.50616 0.19295 0.15986 0.0
C1772 C 0.4959 0.29394 0.14775 0.0
C1773 C 0.46172 0.28807 0.15177 0.0
C1774 C 0.50132 0.26255 0.14574 0.0
C1775 C 0.4716 0.2242 0.14767 0.0
C1776 C 0.4374 0.21811 0.15191 0.0
C1777 C 0.43298 0.25017 0.15397 0.0
C1778 C 0.5386 0.2704 0.14139 0.0
C1779 C 0.40492 0.17767 0.15401 0.0
H1780 H 0.46556 0.13329 0.12762 0.0
H1781 H 0.51433 0.13603 0.15261 0.0
H1782 H 0.42029 0.18766 0.13347 0.0
H1783 H 0.46654 0.219 0.12865 0.0
H1784 H 0.43643 0.17069 0.12441 0.0
H1785 H 0.51845 0.17783 0.16365 0.0
H1786 H 0.52842 0.22421 0.15942 0.0
H1787 H 0.48106 0.19092 0.16346 0.0
H1788 H 0.5183 0.32315 0.14607 0.0
H1789 H 0.40633 0.24536 0.15699 0.0
H1790 H 0.53214 0.25699 0.13486 0.0
H1791 H 0.55263 0.25699 0.14516 0.0
H1792 H 0.55956 0.30198 0.1407 0.0
H1793 H 0.39287 0.16111 0.14792 0.0
H1794 H 0.38098 0.17793 0.15766 0.0
H1795 H 0.41612 0.16182 0.15787 0.0
C1796 C 0.77414 0.35666 0.14076 0.0
C1797 C 0.81187 0.36233 0.14138 0.0
C1798 C 0.74154 0.32045 0.14272 0.0
C1799 C 0.74688 0.28921 0.14529 0.0
C1800 C 0.78491 0.29533 0.14632 0.0
C1801 C 0.81686 0.33179 0.14439 0.0
C1802 C 0.70143 0.31519 0.14165 0.0
C1803 C 0.79192 0.26285 0.14907 0.0
C1804 C 0.66578 0.19536 0.15488 0.0
C1805 C 0.65387 0.1708 0.14763 0.0
C1806 C 0.6951 0.23451 0.15418 0.0
C1807 C 0.7131 0.24919 0.14606 0.0
C1808 C 0.70066 0.22468 0.13871 0.0
C1809 C 0.6712 0.18589 0.13958 0.0
C1810 C 0.70738 0.25994 0.16214 0.0
C1811 C 0.71929 0.23907 0.12995 0.0
H1812 H 0.76997 0.38003 0.13845 0.0
H1813 H 0.84586 0.33617 0.14513 0.0
H1814 H 0.68722 0.29679 0.1359 0.0
H1815 H 0.68307 0.30004 0.14735 0.0
H1816 H 0.70226 0.34336 0.14079 0.0
H1817 H 0.8232 0.27313 0.15019 0.0
H1818 H 0.77566 0.24903 0.15509 0.0
H1819 H 0.78109 0.24009 0.14398 0.0
H1820 H 0.65231 0.18398 0.16111 0.0
H1821 H 0.66241 0.16713 0.13396 0.0
H1822 H 0.70676 0.28708 0.16083 0.0
H1823 H 0.73772 0.26846 0.16385 0.0
H1824 H 0.68845 0.24507 0.16779 0.0
H1825 H 0.71804 0.26538 0.12808 0.0
H1826 H 0.70501 0.21681 0.12481 0.0
H1827 H 0.75041 0.24739 0.13026 0.0
C1828 C 0.64472 0.49308 0.15527 0.0
C1829 C 0.61802 0.46143 0.15029 0.0
C1830 C 0.68336 0.50151 0.15615 0.0
C1831 C 0.6958 0.47849 0.1517 0.0
C1832 C 0.66816 0.44484 0.14719 0.0
C1833 C 0.62947 0.43651 0.14662 0.0
C1834 C 0.71141 0.53656 0.16135 0.0
C1835 C 0.68008 0.41955 0.1423 0.0
C1836 C 0.79365 0.52877 0.1407 0.0
C1837 C 0.81406 0.51376 0.14512 0.0
C1838 C 0.75586 0.51881 0.14305 0.0
C1839 C 0.73803 0.49373 0.15018 0.0
C1840 C 0.75965 0.48107 0.15517 0.0
C1841 C 0.79753 0.49102 0.15253 0.0
C1842 C 0.73414 0.53303 0.1375 0.0
C1843 C 0.74219 0.45531 0.16297 0.0
H1844 H 0.63556 0.5118 0.15828 0.0
H1845 H 0.60876 0.41197 0.1428 0.0
H1846 H 0.73116 0.53012 0.16518 0.0
H1847 H 0.72962 0.5609 0.15691 0.0
H1848 H 0.69602 0.54629 0.16581 0.0
H1849 H 0.65462 0.39233 0.13993 0.0
H1850 H 0.69816 0.43586 0.13665 0.0
H1851 H 0.69796 0.41185 0.14646 0.0
H1852 H 0.80658 0.54688 0.13504 0.0
H1853 H 0.81317 0.47927 0.15596 0.0
H1854 H 0.723 0.54843 0.14153 0.0
H1855 H 0.70871 0.50788 0.13445 0.0
H1856 H 0.7526 0.55304 0.13229 0.0
H1857 H 0.72303 0.46318 0.16662 0.0
H1858 H 0.76507 0.45709 0.1674 0.0
H1859 H 0.72431 0.4247 0.16083 0.0
C1860 C 0.62015 0.15292 0.02905 0.0
C1861 C 0.63149 0.14607 0.02097 0.0
C1862 C 0.59662 0.16979 0.02969 0.0
C1863 C 0.58302 0.17876 0.02205 0.0
C1864 C 0.59485 0.1723 0.01385 0.0
C1865 C 0.6196 0.15652 0.01341 0.0
C1866 C 0.58563 0.17721 0.03856 0.0
C1867 C 0.58014 0.18059 0.00558 0.0
C1868 C 0.48891 0.1802 0.02502 0.0
C1869 C 0.50224 0.22012 0.02541 0.0
C1870 C 0.51477 0.16638 0.0236 0.0
C1871 C 0.55502 0.19318 0.02272 0.0
C1872 C 0.5686 0.23358 0.02305 0.0
C1873 C 0.54196 0.24655 0.02431 0.0
C1874 C 0.49909 0.12308 0.02318 0.0
C1875 C 0.61135 0.26307 0.02238 0.0
H1876 H 0.62967 0.1449 0.03488 0.0
H1877 H 0.62826 0.1508 0.00718 0.0
H1878 H 0.59218 0.20775 0.03907 0.0
H1879 H 0.55394 0.15825 0.03959 0.0
H1880 H 0.60124 0.17155 0.04382 0.0
H1881 H 0.59305 0.17515 -0.00026 0.0
H1882 H 0.54806 0.16195 0.00524 0.0
H1883 H 0.58679 0.21122 0.00547 0.0
H1884 H 0.45815 0.1598 0.02576 0.0
H1885 H 0.5523 0.27744 0.0247 0.0
H1886 H 0.51014 0.11382 0.02875 0.0
H1887 H 0.50935 0.11558 0.0172 0.0
H1888 H 0.46682 0.10627 0.02331 0.0
H1889 H 0.62713 0.25945 0.0279 0.0
H1890 H 0.61697 0.29342 0.02239 0.0
H1891 H 0.62366 0.25832 0.01636 0.0
C1892 C 0.84644 0.45659 0.01713 0.0
C1893 C 0.87109 0.47833 0.01032 0.0
C1894 C 0.83536 0.41741 0.0183 0.0
C1895 C 0.84987 0.39965 0.01263 0.0
C1896 C 0.87453 0.42133 0.00569 0.0
C1897 C 0.88455 0.46039 0.00456 0.0
C1898 C 0.80835 0.39511 0.02567 0.0
C1899 C 0.89106 0.40353 -0.00039 0.0
C1900 C 0.84901 0.31065 0.02192 0.0
C1901 C 0.81529 0.28011 0.01819 0.0
C1902 C 0.86151 0.34961 0.01988 0.0
C1903 C 0.83942 0.35849 0.0141 0.0
C1904 C 0.80595 0.328 0.01015 0.0
C1905 C 0.79452 0.28931 0.01217 0.0
C1906 C 0.89785 0.38134 0.02411 0.0
C1907 C 0.7815 0.33624 0.00396 0.0
H1908 H 0.83569 0.47024 0.02155 0.0
H1909 H 0.90386 0.47721 -0.00066 0.0
H1910 H 0.78245 0.3687 0.02316 0.0
H1911 H 0.82324 0.38538 0.03026 0.0
H1912 H 0.79847 0.41277 0.02929 0.0
H1913 H 0.90904 0.42396 0.99441 0.0
H1914 H 0.90929 0.39459 0.00329 0.0
H1915 H 0.86728 0.37696 0.99657 0.0
H1916 H 0.86544 0.30437 0.02657 0.0
H1917 H 0.76912 0.26644 0.00901 0.0
H1918 H 0.89011 0.39824 0.02858 0.0
H1919 H 0.91771 0.40181 0.01914 0.0
H1920 H 0.91367 0.36962 0.02782 0.0
H1921 H 0.76918 0.35216 0.00739 0.0
H1922 H 0.7572 0.30927 0.00115 0.0
H1923 H 0.79971 0.3551 -0.0014 0.0
C1924 C 0.71669 0.52051 0.0263 0.0
C1925 C 0.74705 0.51978 0.0218 0.0
C1926 C 0.67758 0.495 0.02416 0.0
C1927 C 0.66835 0.46764 0.01742 0.0
C1928 C 0.69856 0.46685 0.01278 0.0
C1929 C 0.73734 0.49291 0.01498 0.0
C1930 C 0.64606 0.49691 0.02922 0.0
C1931 C 0.68993 0.43796 0.00557 0.0
C1932 C 0.56921 0.37662 0.01867 0.0
C1933 C 0.54788 0.38437 0.01256 0.0
C1934 C 0.60865 0.403 0.02013 0.0
C1935 C 0.62707 0.43852 0.01552 0.0
C1936 C 0.60589 0.44628 0.00922 0.0
C1937 C 0.56654 0.41884 0.00774 0.0
C1938 C 0.63039 0.39309 0.02674 0.0
C1939 C 0.62448 0.48403 0.00423 0.0
H1940 H 0.7232 0.54065 0.03159 0.0
H1941 H 0.75979 0.49189 0.01126 0.0
H1942 H 0.62611 0.50028 0.02474 0.0
H1943 H 0.62851 0.46936 0.03282 0.0
H1944 H 0.65799 0.52135 0.03392 0.0
H1945 H 0.71676 0.44154 0.00247 0.0
H1946 H 0.67301 0.40793 0.00814 0.0
H1947 H 0.67187 0.4412 0.00053 0.0
H1948 H 0.55491 0.34993 0.0224 0.0
H1949 H 0.55001 0.42509 0.00308 0.0
H1950 H 0.63976 0.41406 0.03219 0.0
H1951 H 0.65698 0.39551 0.0238 0.0
H1952 H 0.61243 0.36326 0.02938 0.0
H1953 H 0.63446 0.5088 0.00879 0.0
H1954 H 0.6042 0.48545 -0.00051 0.0
H1955 H 0.65049 0.48783 0.00072 0.0
C1956 C 0.50969 0.7119 0.85735 0.0
C1957 C 0.5159 0.70088 0.84914 0.0
C1958 C 0.50075 0.74165 0.85831 0.0
C1959 C 0.49755 0.76072 0.85088 0.0
C1960 C 0.50345 0.74957 0.84257 0.0
C1961 C 0.51278 0.7199 0.84179 0.0
C1962 C 0.49504 0.7529 0.86731 0.0
C1963 C 0.49982 0.76894 0.83449 0.0
C1964 C 0.44042 0.81314 0.85388 0.0
C1965 C 0.47018 0.85173 0.85509 0.0
C1966 C 0.44891 0.78341 0.85226 0.0
C1967 C 0.48812 0.79238 0.85188 0.0
C1968 C 0.51831 0.83135 0.85292 0.0
C1969 C 0.50898 0.86054 0.85449 0.0
C1970 C 0.41586 0.74225 0.85114 0.0
C1971 C 0.5605 0.84211 0.85256 0.0
H1972 H 0.51236 0.69764 0.86307 0.0
H1973 H 0.51739 0.71147 0.83543 0.0
H1974 H 0.51622 0.78403 0.86849 0.0
H1975 H 0.46554 0.74915 0.8679 0.0
H1976 H 0.49871 0.73531 0.87242 0.0
H1977 H 0.50511 0.7568 0.8285 0.0
H1978 H 0.47032 0.76537 0.83414 0.0
H1979 H 0.52085 0.8006 0.83472 0.0
H1980 H 0.41038 0.80592 0.85442 0.0
H1981 H 0.53213 0.89033 0.85523 0.0
H1982 H 0.41626 0.72383 0.85649 0.0
H1983 H 0.41937 0.72983 0.84501 0.0
H1984 H 0.38706 0.74048 0.85109 0.0
H1985 H 0.56685 0.82735 0.85788 0.0
H1986 H 0.58049 0.87394 0.85315 0.0
H1987 H 0.5667 0.83205 0.84638 0.0
C1988 C 0.30413 0.79382 0.8542 0.0
C1989 C 0.29614 0.81861 0.84925 0.0
C1990 C 0.27537 0.75507 0.85573 0.0
C1991 C 0.23739 0.74101 0.85242 0.0
C1992 C 0.22924 0.76583 0.84736 0.0
C1993 C 0.25885 0.80422 0.84576 0.0
C1994 C 0.28557 0.72932 0.86096 0.0
C1995 C 0.18899 0.75215 0.84383 0.0
C1996 C 0.17006 0.63163 0.85087 0.0
C1997 C 0.14877 0.6233 0.85862 0.0
C1998 C 0.19881 0.66971 0.84876 0.0
C1999 C 0.20606 0.70059 0.85442 0.0
C2000 C 0.18396 0.69273 0.86211 0.0
C2001 C 0.15586 0.65425 0.86414 0.0
C2002 C 0.22193 0.67679 0.84053 0.0
C2003 C 0.19036 0.72496 0.86825 0.0
H2004 H 0.33298 0.80473 0.85687 0.0
H2005 H 0.25242 0.82336 0.842 0.0
H2006 H 0.26857 0.72063 0.86706 0.0
H2007 H 0.27777 0.70232 0.85732 0.0
H2008 H 0.31697 0.74396 0.86261 0.0
H2009 H 0.18756 0.77477 0.83988 0.0
H2010 H 0.17938 0.72585 0.83978 0.0
H2011 H 0.16803 0.74391 0.84926 0.0
H2012 H 0.16446 0.60844 0.84641 0.0
H2013 H 0.14 0.64846 0.87016 0.0
H2014 H 0.25327 0.69001 0.8421 0.0
H2015 H 0.21868 0.69764 0.83633 0.0
H2016 H 0.21274 0.64964 0.83681 0.0
H2017 H 0.2202 0.73868 0.87095 0.0
H2018 H 0.16933 0.71437 0.87371 0.0
H2019 H 0.18771 0.74787 0.86473 0.0
C2020 C 0.37184 0.56357 0.85449 0.0
C2021 C 0.37972 0.53329 0.8559 0.0
C2022 C 0.33418 0.55588 0.85252 0.0
C2023 C 0.3035 0.51692 0.85197 0.0
C2024 C 0.31142 0.48619 0.85314 0.0
C2025 C 0.34943 0.49475 0.8551 0.0
C2026 C 0.327 0.58951 0.85132 0.0
C2027 C 0.27955 0.44425 0.85257 0.0
C2028 C 0.20219 0.49762 0.8573 0.0
C2029 C 0.18538 0.49286 0.84907 0.0
C2030 C 0.24044 0.50531 0.8583 0.0
C2031 C 0.26273 0.50842 0.85089 0.0
C2032 C 0.24614 0.50378 0.84255 0.0
C2033 C 0.2076 0.49601 0.84173 0.0
C2034 C 0.25694 0.50999 0.86732 0.0
C2035 C 0.26911 0.50706 0.8345 0.0
H2036 H 0.39496 0.59342 0.85517 0.0
H2037 H 0.35544 0.47124 0.85601 0.0
H2038 H 0.31126 0.58627 0.84516 0.0
H2039 H 0.30837 0.58967 0.85665 0.0
H2040 H 0.35442 0.61799 0.85126 0.0
H2041 H 0.29093 0.42384 0.85302 0.0
H2042 H 0.25838 0.43767 0.85789 0.0
H2043 H 0.26349 0.43893 0.84638 0.0
H2044 H 0.18536 0.49497 0.86302 0.0
H2045 H 0.19491 0.49235 0.83535 0.0
H2046 H 0.28314 0.53913 0.86802 0.0
H2047 H 0.26609 0.48816 0.86845 0.0
H2048 H 0.23571 0.50656 0.87241 0.0
H2049 H 0.29548 0.53626 0.83419 0.0
H2050 H 0.25193 0.50233 0.82849 0.0
H2051 H 0.27903 0.48547 0.83472 0.0
C2052 C 0.38809 0.83183 0.98348 0.0
C2053 C 0.39446 0.8614 0.98934 0.0
C2054 C 0.41496 0.81891 0.98262 0.0
C2055 C 0.44955 0.83661 0.98759 0.0
C2056 C 0.45568 0.8658 0.99368 0.0
C2057 C 0.42782 0.87758 0.99455 0.0
C2058 C 0.40681 0.78711 0.97618 0.0
C2059 C 0.49242 0.88576 -0.00099 0.0
C2060 C 0.50821 0.78475 0.98859 0.0
C2061 C 0.53501 0.80277 0.98182 0.0
C2062 C 0.48072 0.79589 0.99066 0.0
C2063 C 0.48024 0.82621 0.98596 0.0
C2064 C 0.50803 0.84549 0.97935 0.0
C2065 C 0.53479 0.8334 0.97733 0.0
C2066 C 0.45153 0.77454 0.99775 0.0
C2067 C 0.5089 0.87836 0.97425 0.0
H2068 H 0.36215 0.81897 0.9795 0.0
H2069 H 0.43296 0.90062 -0.00095 0.0
H2070 H 0.42811 0.79909 0.9708 0.0
H2071 H 0.41021 0.76384 0.97931 0.0
H2072 H 0.37707 0.77398 0.97342 0.0
H2073 H 0.49152 0.90576 0.00391 0.0
H2074 H 0.49745 0.86399 0.00237 0.0
H2075 H 0.51768 0.90273 0.99469 0.0
H2076 H 0.50848 0.76176 0.99228 0.0
H2077 H 0.55496 0.84753 0.97206 0.0
H2078 H 0.42179 0.7593 0.99497 0.0
H2079 H 0.45235 0.7954 0.00263 0.0
H2080 H 0.45686 0.75284 0.00107 0.0
H2081 H 0.48178 0.86728 0.97042 0.0
H2082 H 0.53403 0.89216 0.96975 0.0
H2083 H 0.51033 0.90093 0.9787 0.0
C2084 C 0.25554 0.7267 0.97873 0.0
C2085 C 0.22956 0.73912 0.97622 0.0
C2086 C 0.24279 0.68713 0.98003 0.0
C2087 C 0.203 0.65933 0.9789 0.0
C2088 C 0.17649 0.67181 0.97656 0.0
C2089 C 0.19014 0.71152 0.97521 0.0
C2090 C 0.27209 0.67499 0.98236 0.0
C2091 C 0.13375 0.64313 0.97538 0.0
C2092 C 0.17155 0.55554 0.97254 0.0
C2093 C 0.15789 0.53587 0.9804 0.0
C2094 C 0.18774 0.59594 0.97205 0.0
C2095 C 0.18935 0.61702 0.97958 0.0
C2096 C 0.17606 0.59723 0.98759 0.0
C2097 C 0.16064 0.55673 0.98791 0.0
C2098 C 0.20193 0.61586 0.96341 0.0
C2099 C 0.17677 0.61862 0.99572 0.0
H2100 H 0.28612 0.74787 0.97941 0.0
H2101 H 0.16989 0.72104 0.9734 0.0
H2102 H 0.26298 0.65714 0.98834 0.0
H2103 H 0.27352 0.65667 0.97712 0.0
H2104 H 0.30165 0.7003 0.98338 0.0
H2105 H 0.11693 0.65756 0.9736 0.0
H2106 H 0.12964 0.62191 0.97024 0.0
H2107 H 0.12155 0.6265 0.98145 0.0
H2108 H 0.16883 0.53917 0.96671 0.0
H2109 H 0.14945 0.54118 0.99396 0.0
H2110 H 0.23209 0.64053 0.964 0.0
H2111 H 0.18346 0.62792 0.96125 0.0
H2112 H 0.20128 0.59574 0.95833 0.0
H2113 H 0.20649 0.64324 0.9969 0.0
H2114 H 0.16719 0.5994 0.0015 0.0
H2115 H 0.15739 0.63104 0.99492 0.0
C2116 C 0.46662 0.63226 0.98329 0.0
C2117 C 0.4912 0.62309 0.98796 0.0
C2118 C 0.42721 0.60475 0.9821 0.0
C2119 C 0.41215 0.5668 0.98552 0.0
C2120 C 0.43668 0.55753 0.99037 0.0
C2121 C 0.47587 0.58594 0.99161 0.0
C2122 C 0.40186 0.61611 0.97706 0.0
C2123 C 0.42191 0.51721 0.99398 0.0
C2124 C 0.30221 0.50532 0.98725 0.0
C2125 C 0.29246 0.48468 0.9794 0.0
C2126 C 0.34106 0.53141 0.98944 0.0
C2127 C 0.37108 0.53666 0.9837 0.0
C2128 C 0.36163 0.51467 0.97597 0.0
C2129 C 0.32249 0.48915 0.97389 0.0
C2130 C 0.34987 0.55417 0.99776 0.0
C2131 C 0.39284 0.51889 0.96975 0.0
H2132 H 0.47828 0.66101 0.9805 0.0
H2133 H 0.49485 0.5786 0.99516 0.0
H2134 H 0.3916 0.59869 0.97103 0.0
H2135 H 0.37576 0.60978 0.98091 0.0
H2136 H 0.41743 0.64741 0.97529 0.0
H2137 H 0.44385 0.5154 0.9981 0.0
H2138 H 0.39522 0.50798 0.99786 0.0
H2139 H 0.41407 0.49623 0.98857 0.0
H2140 H 0.2795 0.50128 0.99171 0.0
H2141 H 0.31543 0.47351 0.96781 0.0
H2142 H 0.36342 0.58562 0.99628 0.0
H2143 H 0.371 0.55022 0.00169 0.0
H2144 H 0.32339 0.54533 0.00172 0.0
H2145 H 0.40766 0.54856 0.96695 0.0
H2146 H 0.38096 0.4975 0.96438 0.0
H2147 H 0.41516 0.51509 0.97323 0.0
C2148 C 0.12495 0.5873 0.49075 0.0
C2149 C 0.15215 0.62559 0.48843 0.0
C2150 C 0.13123 0.5564 0.48871 0.0
C2151 C 0.16597 0.56423 0.48446 0.0
C2152 C 0.19427 0.60309 0.48246 0.0
C2153 C 0.18674 0.63322 0.48436 0.0
C2154 C 0.10006 0.51531 0.49078 0.0
C2155 C 0.23215 0.61278 0.47814 0.0
C2156 C 0.2005 0.49083 0.48465 0.0
C2157 C 0.19305 0.47703 0.47609 0.0
C2158 C 0.19086 0.51838 0.48755 0.0
C2159 C 0.17246 0.5319 0.48182 0.0
C2160 C 0.16256 0.51628 0.47335 0.0
C2161 C 0.17321 0.48923 0.47057 0.0
C2162 C 0.20205 0.53432 0.49662 0.0
C2163 C 0.14199 0.52922 0.46712 0.0
H2164 H 0.09789 0.58124 0.49379 0.0
H2165 H 0.20779 0.6628 0.48256 0.0
H2166 H 0.08924 0.49834 0.4847 0.0
H2167 H 0.11217 0.50076 0.4948 0.0
H2168 H 0.07508 0.51419 0.49427 0.0
H2169 H 0.25215 0.64462 0.47757 0.0
H2170 H 0.24697 0.60002 0.48185 0.0
H2171 H 0.22639 0.59994 0.47155 0.0
H2172 H 0.21455 0.48063 0.48908 0.0
H2173 H 0.16722 0.47874 0.46396 0.0
H2174 H 0.17674 0.53256 0.50007 0.0
H2175 H 0.22474 0.56547 0.49631 0.0
H2176 H 0.21346 0.51859 0.50048 0.0
H2177 H 0.11596 0.52738 0.47023 0.0
H2178 H 0.13283 0.51148 0.46111 0.0
H2179 H 0.16158 0.56005 0.46531 0.0
C2180 C 0.52008 0.69177 0.47997 0.0
C2181 C 0.51216 0.72089 0.47732 0.0
C2182 C 0.49004 0.6544 0.48213 0.0
C2183 C 0.45092 0.64568 0.48159 0.0
C2184 C 0.44276 0.67547 0.47934 0.0
C2185 C 0.4735 0.71275 0.47725 0.0
C2186 C 0.50019 0.62376 0.4846 0.0
C2187 C 0.4015 0.66748 0.47871 0.0
C2188 C 0.37724 0.54085 0.47617 0.0
C2189 C 0.36068 0.52547 0.48427 0.0
C2190 C 0.40597 0.57997 0.47522 0.0
C2191 C 0.41878 0.60463 0.48255 0.0
C2192 C 0.40203 0.58952 0.49075 0.0
C2193 C 0.3732 0.55009 0.49152 0.0
C2194 C 0.42307 0.59475 0.46635 0.0
C2195 C 0.4149 0.61489 0.49872 0.0
H2196 H 0.5499 0.69807 0.48024 0.0
H2197 H 0.46715 0.73505 0.47519 0.0
H2198 H 0.485 0.60889 0.49065 0.0
H2199 H 0.49032 0.60139 0.47944 0.0
H2200 H 0.53194 0.63613 0.48555 0.0
H2201 H 0.40016 0.69456 0.47786 0.0
H2202 H 0.3869 0.64815 0.4731 0.0
H2203 H 0.38486 0.6522 0.48459 0.0
H2204 H 0.36818 0.52217 0.47054 0.0
H2205 H 0.36055 0.53858 0.4978 0.0
H2206 H 0.45458 0.60462 0.46642 0.0
H2207 H 0.42 0.62015 0.46459 0.0
H2208 H 0.40893 0.5722 0.46126 0.0
H2209 H 0.44613 0.6256 0.49997 0.0
H2210 H 0.39803 0.59918 0.50456 0.0
H2211 H 0.41166 0.64075 0.49768 0.0
C2212 C 0.32021 0.83834 0.48471 0.0
C2213 C 0.29378 0.80524 0.48011 0.0
C2214 C 0.35993 0.85025 0.48484 0.0
C2215 C 0.37369 0.82953 0.47991 0.0
C2216 C 0.34689 0.79558 0.47537 0.0
C2217 C 0.30709 0.78346 0.47566 0.0
C2218 C 0.38726 0.88572 0.49004 0.0
C2219 C 0.36039 0.77341 0.46979 0.0
C2220 C 0.47622 0.89008 0.47127 0.0
C2221 C 0.49688 0.87733 0.47634 0.0
C2222 C 0.43606 0.87416 0.47227 0.0
C2223 C 0.41623 0.84575 0.47874 0.0
C2224 C 0.43709 0.83318 0.484 0.0
C2225 C 0.47715 0.84859 0.48262 0.0
C2226 C 0.41478 0.8874 0.46632 0.0
C2227 C 0.4172 0.80387 0.49115 0.0
H2228 H 0.30969 0.85498 0.48816 0.0
H2229 H 0.2865 0.75803 0.47205 0.0
H2230 H 0.40743 0.87995 0.49388 0.0
H2231 H 0.40512 0.91019 0.48559 0.0
H2232 H 0.37141 0.89491 0.4945 0.0
H2233 H 0.33573 0.7463 0.46713 0.0
H2234 H 0.37783 0.79204 0.46431 0.0
H2235 H 0.37943 0.76579 0.47354 0.0
H2236 H 0.49135 0.91183 0.4663 0.0
H2237 H 0.49321 0.83874 0.48653 0.0
H2238 H 0.40186 0.90181 0.47011 0.0
H2239 H 0.39059 0.86196 0.46303 0.0
H2240 H 0.43414 0.90806 0.4613 0.0
H2241 H 0.40252 0.81427 0.49563 0.0
H2242 H 0.43788 0.79849 0.49491 0.0
H2243 H 0.39445 0.7759 0.48839 0.0
C2244 C 0.3059 0.51726 0.34978 0.0
C2245 C 0.30287 0.4908 0.34339 0.0
C2246 C 0.27619 0.52606 0.35103 0.0
C2247 C 0.24237 0.50769 0.34582 0.0
C2248 C 0.23973 0.48204 0.33915 0.0
C2249 C 0.27015 0.47406 0.33798 0.0
C2250 C 0.28039 0.55396 0.35815 0.0
C2251 C 0.20405 0.46173 0.3335 0.0
C2252 C 0.15087 0.49605 0.35636 0.0
C2253 C 0.14774 0.52664 0.35266 0.0
C2254 C 0.18083 0.48894 0.354 0.0
C2255 C 0.20877 0.51322 0.34782 0.0
C2256 C 0.20548 0.54366 0.34391 0.0
C2257 C 0.17492 0.54987 0.34634 0.0
C2258 C 0.18316 0.456 0.35829 0.0
C2259 C 0.23474 0.57019 0.3373 0.0
H2260 H 0.33133 0.53068 0.35392 0.0
H2261 H 0.26757 0.45352 0.33304 0.0
H2262 H 0.27505 0.57693 0.35558 0.0
H2263 H 0.25838 0.53819 0.36325 0.0
H2264 H 0.30968 0.56802 0.36118 0.0
H2265 H 0.20775 0.44508 0.32817 0.0
H2266 H 0.17876 0.44135 0.33748 0.0
H2267 H 0.19702 0.48311 0.33065 0.0
H2268 H 0.13048 0.4781 0.3613 0.0
H2269 H 0.1725 0.57307 0.34328 0.0
H2270 H 0.21014 0.4678 0.3622 0.0
H2271 H 0.18451 0.43656 0.35332 0.0
H2272 H 0.15794 0.43843 0.36259 0.0
H2273 H 0.26392 0.58639 0.34033 0.0
H2274 H 0.22719 0.59148 0.33459 0.0
H2275 H 0.2368 0.55288 0.33191 0.0
C2276 C 0.48552 0.78693 0.34265 0.0
C2277 C 0.51784 0.81284 0.33773 0.0
C2278 C 0.47718 0.7487 0.34412 0.0
C2279 C 0.50227 0.73624 0.34075 0.0
C2280 C 0.53421 0.76182 0.33551 0.0
C2281 C 0.54143 0.7998 0.334 0.0
C2282 C 0.44229 0.72214 0.34957 0.0
C2283 C 0.56192 0.7498 0.33189 0.0
C2284 C 0.50213 0.65509 0.35379 0.0
C2285 C 0.47708 0.62212 0.34893 0.0
C2286 C 0.51195 0.69256 0.351 0.0
C2287 C 0.49613 0.69725 0.34318 0.0
C2288 C 0.47215 0.66431 0.33805 0.0
C2289 C 0.46313 0.62724 0.34096 0.0
C2290 C 0.53813 0.72703 0.35659 0.0
C2291 C 0.45475 0.66801 0.32967 0.0
H2292 H 0.46715 0.79684 0.34554 0.0
H2293 H 0.56671 0.81989 0.33028 0.0
H2294 H 0.42416 0.69414 0.34618 0.0
H2295 H 0.45208 0.71559 0.35575 0.0
H2296 H 0.42394 0.7352 0.35109 0.0
H2297 H 0.58295 0.77153 0.32726 0.0
H2298 H 0.57842 0.74631 0.33727 0.0
H2299 H 0.54575 0.72132 0.32857 0.0
H2300 H 0.51305 0.65162 0.35995 0.0
H2301 H 0.44471 0.60222 0.337 0.0
H2302 H 0.52136 0.74008 0.35928 0.0
H2303 H 0.56213 0.74971 0.35266 0.0
H2304 H 0.55083 0.71892 0.36206 0.0
H2305 H 0.43386 0.67815 0.33104 0.0
H2306 H 0.43927 0.64002 0.3261 0.0
H2307 H 0.47769 0.68998 0.32541 0.0
C2308 C 0.35218 0.85012 0.34948 0.0
C2309 C 0.38144 0.84056 0.35045 0.0
C2310 C 0.31288 0.8211 0.34921 0.0
C2311 C 0.30258 0.78159 0.35013 0.0
C2312 C 0.3322 0.7717 0.35063 0.0
C2313 C 0.37134 0.80135 0.35071 0.0
C2314 C 0.28232 0.8329 0.34845 0.0
C2315 C 0.32262 0.73009 0.35175 0.0
C2316 C 0.2086 0.72233 0.36243 0.0
C2317 C 0.18222 0.70118 0.35583 0.0
C2318 C 0.24799 0.74724 0.36066 0.0
C2319 C 0.26144 0.75189 0.35202 0.0
C2320 C 0.23517 0.72976 0.34532 0.0
C2321 C 0.19575 0.70417 0.34733 0.0
C2322 C 0.27502 0.76942 0.36804 0.0
C2323 C 0.24835 0.73425 0.33603 0.0
H2324 H 0.36011 0.88044 0.34912 0.0
H2325 H 0.39401 0.79398 0.35147 0.0
H2326 H 0.26016 0.81469 0.34357 0.0
H2327 H 0.2672 0.82827 0.35475 0.0
H2328 H 0.295 0.86395 0.34662 0.0
H2329 H 0.3484 0.72666 0.35068 0.0
H2330 H 0.31176 0.72033 0.35842 0.0
H2331 H 0.29928 0.71066 0.34722 0.0
H2332 H 0.19834 0.71951 0.36904 0.0
H2333 H 0.17532 0.68777 0.34223 0.0
H2334 H 0.28602 0.80098 0.36724 0.0
H2335 H 0.30054 0.76511 0.36803 0.0
H2336 H 0.2605 0.76031 0.37445 0.0
H2337 H 0.25632 0.76374 0.3337 0.0
H2338 H 0.22541 0.71246 0.33172 0.0
H2339 H 0.27467 0.73144 0.33548 0.0
C2340 C 0.30085 0.32469 0.15803 0.0
C2341 C 0.3065 0.31824 0.14938 0.0
C2342 C 0.26411 0.31632 0.16103 0.0
C2343 C 0.23242 0.30195 0.15517 0.0
C2344 C 0.23795 0.29522 0.14643 0.0
C2345 C 0.27487 0.30311 0.14366 0.0
C2346 C 0.25929 0.32319 0.17045 0.0
C2347 C 0.20511 0.28058 0.13997 0.0
C2348 C 0.13296 0.25676 0.1658 0.0
C2349 C 0.12836 0.28933 0.16668 0.0
C2350 C 0.16591 0.25978 0.16168 0.0
C2351 C 0.1942 0.296 0.15818 0.0
C2352 C 0.18771 0.32795 0.15838 0.0
C2353 C 0.15516 0.32438 0.16275 0.0
C2354 C 0.17195 0.22517 0.16178 0.0
C2355 C 0.21657 0.36677 0.15453 0.0
H2356 H 0.32516 0.33584 0.16248 0.0
H2357 H 0.27932 0.2984 0.13695 0.0
H2358 H 0.25144 0.34625 0.17101 0.0
H2359 H 0.23527 0.29639 0.17336 0.0
H2360 H 0.28617 0.33211 0.17426 0.0
H2361 H 0.21384 0.27564 0.13347 0.0
H2362 H 0.18004 0.25298 0.14228 0.0
H2363 H 0.19504 0.30196 0.13933 0.0
H2364 H 0.11257 0.22978 0.16896 0.0
H2365 H 0.15164 0.3496 0.16348 0.0
H2366 H 0.19443 0.23003 0.16666 0.0
H2367 H 0.18252 0.22142 0.15541 0.0
H2368 H 0.14488 0.19787 0.16346 0.0
H2369 H 0.24324 0.38059 0.15856 0.0
H2370 H 0.20474 0.38683 0.15416 0.0
H2371 H 0.22515 0.36294 0.14793 0.0
C2372 C 0.6308 0.83669 0.17355 0.0
C2373 C 0.66043 0.82863 0.17145 0.0
C2374 C 0.62517 0.86333 0.16873 0.0
C2375 C 0.64905 0.88172 0.16147 0.0
C2376 C 0.67716 0.87164 0.15893 0.0
C2377 C 0.68285 0.8455 0.16401 0.0
C2378 C 0.59535 0.87371 0.17179 0.0
C2379 C 0.70243 0.88982 0.15107 0.0
C2380 C 0.6147 0.93684 0.14724 0.0
C2381 C 0.63819 0.97498 0.1502 0.0
C2382 C 0.61915 0.9063 0.15054 0.0
C2383 C 0.64691 0.91406 0.15713 0.0
C2384 C 0.6708 0.95267 0.1601 0.0
C2385 C 0.66646 0.98269 0.1565 0.0
C2386 C 0.59395 0.86575 0.14705 0.0
C2387 C 0.70007 0.96213 0.16727 0.0
H2388 H 0.6132 0.82379 0.17927 0.0
H2389 H 0.70568 0.83931 0.16232 0.0
H2390 H 0.61028 0.90449 0.17393 0.0
H2391 H 0.57557 0.87081 0.16642 0.0
H2392 H 0.57761 0.85517 0.17725 0.0
H2393 H 0.71839 0.87461 0.1492 0.0
H2394 H 0.68465 0.88947 0.1455 0.0
H2395 H 0.72399 0.92063 0.15247 0.0
H2396 H 0.59325 0.9311 0.14227 0.0
H2397 H 0.68442 0.01221 0.1588 0.0
H2398 H 0.57392 0.84673 0.15217 0.0
H2399 H 0.61224 0.8532 0.14509 0.0
H2400 H 0.57638 0.86519 0.1414 0.0
H2401 H 0.68494 0.94639 0.17325 0.0
H2402 H 0.71682 0.99373 0.16872 0.0
H2403 H 0.72081 0.95229 0.16548 0.0
C2404 C 0.13916 0.80861 0.16392 0.0
C2405 C 0.13156 0.83793 0.16653 0.0
C2406 C 0.11259 0.77744 0.15879 0.0
C2407 C 0.07717 0.77513 0.15632 0.0
C2408 C 0.07007 0.80558 0.15862 0.0
C2409 C 0.09755 0.83683 0.16365 0.0
C2410 C 0.12164 0.74597 0.15637 0.0
C2411 C 0.03253 0.80409 0.15621 0.0
C2412 C 0.0198 0.70329 0.13842 0.0
C2413 C 0.99349 0.67031 0.14315 0.0
C2414 C 0.04649 0.7379 0.1426 0.0
C2415 C 0.04692 0.73977 0.15174 0.0
C2416 C 0.0199 0.70689 0.15656 0.0
C2417 C 0.99365 0.67255 0.15221 0.0
C2418 C 0.07496 0.77213 0.13723 0.0
C2419 C 0.01917 0.70777 0.16633 0.0
H2420 H 0.16537 0.80932 0.16616 0.0
H2421 H 0.09121 0.85908 0.16577 0.0
H2422 H 0.10099 0.71849 0.15968 0.0
H2423 H 0.11799 0.74039 0.1493 0.0
H2424 H 0.15168 0.75362 0.1582 0.0
H2425 H 0.03298 0.8316 0.15779 0.0
H2426 H 0.02656 0.79805 0.1492 0.0
H2427 H 0.00811 0.78004 0.15978 0.0
H2428 H 0.02032 0.70175 0.13143 0.0
H2429 H 0.97313 0.64745 0.1559 0.0
H2430 H 0.10499 0.77852 0.1386 0.0
H2431 H 0.07344 0.79842 0.13897 0.0
H2432 H 0.06944 0.76679 0.13017 0.0
H2433 H 0.04701 0.71191 0.16894 0.0
H2434 H 0.995 0.6806 0.1691 0.0
H2435 H 0.0162 0.73269 0.16857 0.0
C2436 C 0.34967 0.30451 0.34616 0.0
C2437 C 0.32404 0.31645 0.34315 0.0
C2438 C 0.34654 0.26947 0.34333 0.0
C2439 C 0.31794 0.24655 0.33712 0.0
C2440 C 0.29153 0.25823 0.33416 0.0
C2441 C 0.29459 0.2928 0.33732 0.0
C2442 C 0.37434 0.25736 0.34685 0.0
C2443 C 0.26115 0.23514 0.32739 0.0
C2444 C 0.34055 0.18664 0.3216 0.0
C2445 C 0.31445 0.14847 0.32426 0.0
C2446 C 0.3422 0.21865 0.3258 0.0
C2447 C 0.31811 0.21261 0.33306 0.0
C2448 C 0.29338 0.17432 0.33613 0.0
C2449 C 0.29143 0.14261 0.33161 0.0
C2450 C 0.36831 0.25886 0.32218 0.0
C2451 C 0.26806 0.16676 0.34399 0.0
H2452 H 0.37198 0.32257 0.35078 0.0
H2453 H 0.27487 0.3022 0.335 0.0
H2454 H 0.35813 0.22668 0.34905 0.0
H2455 H 0.39452 0.25923 0.34167 0.0
H2456 H 0.3918 0.27594 0.35234 0.0
H2457 H 0.24229 0.24768 0.32594 0.0
H2458 H 0.27553 0.23419 0.32131 0.0
H2459 H 0.24249 0.20472 0.32958 0.0
H2460 H 0.35832 0.19162 0.3159 0.0
H2461 H 0.27113 0.11324 0.33369 0.0
H2462 H 0.38872 0.27808 0.32723 0.0
H2463 H 0.35049 0.27183 0.32013 0.0
H2464 H 0.38549 0.25861 0.31653 0.0
H2465 H 0.28503 0.18674 0.34933 0.0
H2466 H 0.25521 0.13632 0.34631 0.0
H2467 H 0.24404 0.17227 0.34238 0.0
C2468 C 0.71354 0.00547 0.33359 0.0
C2469 C 0.68914 0.00964 0.3395 0.0
C2470 C 0.74925 0.03746 0.3311 0.0
C2471 C 0.76138 0.07443 0.3348 0.0
C2472 C 0.73733 0.07852 0.341 0.0
C2473 C 0.70118 0.04617 0.34317 0.0
C2474 C 0.77329 0.03189 0.32429 0.0
C2475 C 0.74967 0.11711 0.34528 0.0
C2476 C 0.86827 0.14967 0.33114 0.0
C2477 C 0.86575 0.1704 0.32406 0.0
C2478 C 0.83445 0.11952 0.33502 0.0
C2479 C 0.79742 0.10923 0.33157 0.0
C2480 C 0.7948 0.1308 0.32459 0.0
C2481 C 0.82882 0.16136 0.32102 0.0
C2482 C 0.83839 0.0979 0.34262 0.0
C2483 C 0.75613 0.12036 0.32055 0.0
H2484 H 0.70409 0.97721 0.33074 0.0
H2485 H 0.68255 0.04919 0.34785 0.0
H2486 H 0.77526 0.04896 0.31843 0.0
H2487 H 0.80333 0.04275 0.32665 0.0
H2488 H 0.76072 1.00092 0.3224 0.0
H2489 H 0.72955 0.11464 0.35055 0.0
H2490 H 0.77937 0.1293 0.34799 0.0
H2491 H 0.75068 0.13812 0.34041 0.0
H2492 H 0.89662 0.15642 0.33353 0.0
H2493 H 0.82633 0.17699 0.31554 0.0
H2494 H 0.83045 0.06804 0.34061 0.0
H2495 H 0.81816 0.09526 0.34787 0.0
H2496 H 0.86847 0.1125 0.34523 0.0
H2497 H 0.74245 0.0905 0.31785 0.0
H2498 H 0.759 0.14062 0.31527 0.0
H2499 H 0.73609 0.12054 0.32552 0.0
C2500 C 0.83046 0.66155 0.33156 0.0
C2501 C 0.83836 0.69899 0.32931 0.0
C2502 C 0.85779 0.65575 0.33607 0.0
C2503 C 0.89408 0.68818 0.33834 0.0
C2504 C 0.90157 0.72619 0.33642 0.0
C2505 C 0.87355 0.73116 0.33195 0.0
C2506 C 0.84836 0.6148 0.33815 0.0
C2507 C 0.93991 0.76162 0.33867 0.0
C2508 C 0.95429 0.67428 0.35555 0.0
C2509 C 0.98053 0.6686 0.35054 0.0
C2510 C 0.92621 0.68088 0.35167 0.0
C2511 C 0.92437 0.68208 0.34254 0.0
C2512 C 0.95085 0.67653 0.33743 0.0
C2513 C 0.97846 0.66955 0.3415 0.0
C2514 C 0.89842 0.68647 0.35733 0.0
C2515 C 0.95009 0.67814 0.32768 0.0
H2516 H 0.8033 0.63658 0.32955 0.0
H2517 H 0.88011 0.76018 0.33014 0.0
H2518 H 0.86841 0.60795 0.33457 0.0
H2519 H 0.85263 0.61203 0.34515 0.0
H2520 H 0.81803 0.59291 0.33639 0.0
H2521 H 0.93819 0.78865 0.33835 0.0
H2522 H 0.94964 0.75913 0.34524 0.0
H2523 H 0.96237 0.7643 0.33401 0.0
H2524 H 0.95534 0.67296 0.36254 0.0
H2525 H 0.9989 0.66552 0.33762 0.0
H2526 H 0.86805 0.66395 0.35583 0.0
H2527 H 0.90112 0.71515 0.35599 0.0
H2528 H 0.90378 0.68483 0.36434 0.0
H2529 H 0.92138 0.65539 0.32522 0.0
H2530 H 0.97303 0.67387 0.32464 0.0
H2531 H 0.95415 0.70664 0.32557 0.0
C2532 C 0.86004 0.73525 0.83215 0.0
C2533 C 0.8651 0.7032 0.83074 0.0
C2534 C 0.82625 0.73072 0.83614 0.0
C2535 C 0.79743 0.6934 0.83903 0.0
C2536 C 0.80405 0.66164 0.83826 0.0
C2537 C 0.83747 0.66679 0.83398 0.0
C2538 C 0.82023 0.76531 0.83659 0.0
C2539 C 0.77488 0.62176 0.84157 0.0
C2540 C 0.71813 0.68734 0.85387 0.0
C2541 C 0.68678 0.67474 0.84814 0.0
C2542 C 0.75415 0.69284 0.85105 0.0
C2543 C 0.7592 0.68684 0.84222 0.0
C2544 C 0.72758 0.67448 0.83639 0.0
C2545 C 0.69149 0.66788 0.83947 0.0
C2546 C 0.7868 0.70519 0.85749 0.0
C2547 C 0.73209 0.669 0.82688 0.0
H2548 H 0.88108 0.7634 0.82957 0.0
H2549 H 0.84133 0.64197 0.83288 0.0
H2550 H 0.80143 0.76382 0.83111 0.0
H2551 H 0.80556 0.76554 0.84267 0.0
H2552 H 0.84816 0.79315 0.83609 0.0
H2553 H 0.78662 0.60158 0.84151 0.0
H2554 H 0.76588 0.62365 0.84827 0.0
H2555 H 0.74846 0.60922 0.83745 0.0
H2556 H 0.71418 0.69247 0.86058 0.0
H2557 H 0.66719 0.65856 0.83507 0.0
H2558 H 0.81142 0.73407 0.85567 0.0
H2559 H 0.7977 0.68435 0.85739 0.0
H2560 H 0.77763 0.70692 0.86419 0.0
H2561 H 0.75602 0.69631 0.82411 0.0
H2562 H 0.7051 0.66064 0.82316 0.0
H2563 H 0.74002 0.64613 0.82599 0.0
C2564 C 0.26942 0.13106 0.83053 0.0
C2565 C 0.30243 0.16777 0.82936 0.0
C2566 C 0.27217 0.10077 0.83454 0.0
C2567 C 0.30864 0.10778 0.83769 0.0
C2568 C 0.34129 0.14572 0.83718 0.0
C2569 C 0.33794 0.17507 0.83288 0.0
C2570 C 0.23664 0.06072 0.83472 0.0
C2571 C 0.38032 0.15487 0.84076 0.0
C2572 C 0.31138 0.03301 0.85266 0.0
C2573 C 0.32442 0.01418 0.84706 0.0
C2574 C 0.30639 0.06373 0.84974 0.0
C2575 C 0.31351 0.07507 0.84094 0.0
C2576 C 0.32602 0.05557 0.83522 0.0
C2577 C 0.33199 0.0258 0.83839 0.0
C2578 C 0.29366 0.08413 0.85606 0.0
C2579 C 0.33262 0.06585 0.82573 0.0
H2580 H 0.24194 0.12508 0.82774 0.0
H2581 H 0.36351 0.20341 0.83198 0.0
H2582 H 0.23756 0.04392 0.82908 0.0
H2583 H 0.23551 0.04454 0.84066 0.0
H2584 H 0.20947 0.06213 0.8343 0.0
H2585 H 0.40136 0.18659 0.84082 0.0
H2586 H 0.37711 0.14352 0.84745 0.0
H2587 H 0.39258 0.1404 0.83676 0.0
H2588 H 0.30574 0.02403 0.85938 0.0
H2589 H 0.34165 0.01084 0.83407 0.0
H2590 H 0.26552 0.08097 0.85396 0.0
H2591 H 0.31521 0.11568 0.85617 0.0
H2592 H 0.29031 0.07247 0.86274 0.0
H2593 H 0.30594 0.06343 0.82282 0.0
H2594 H 0.34057 0.04676 0.82207 0.0
H2595 H 0.35621 0.09641 0.82493 0.0
C2596 C 0.85118 0.14251 0.83537 0.0
C2597 C 0.8309 0.1466 0.82839 0.0
C2598 C 0.87975 0.17534 0.83983 0.0
C2599 C 0.88886 0.21306 0.83711 0.0
C2600 C 0.8673 0.21716 0.83032 0.0
C2601 C 0.83828 0.18396 0.82615 0.0
C2602 C 0.9013 0.16973 0.84722 0.0
C2603 C 0.87652 0.25673 0.82706 0.0
C2604 C 0.94945 0.30504 0.8503 0.0
C2605 C 0.98638 0.31903 0.84667 0.0
C2606 C 0.9177 0.26961 0.84754 0.0
C2607 C 0.92285 0.24841 0.8408 0.0
C2608 C 0.9602 0.26258 0.83711 0.0
C2609 C 0.99158 0.29741 0.84018 0.0
C2610 C 0.87867 0.25492 0.85182 0.0
C2611 C 0.96685 0.24153 0.82974 0.0
H2612 H 0.84566 0.11382 0.83716 0.0
H2613 H 0.82284 0.18761 0.82078 0.0
H2614 H 0.93134 0.17863 0.84515 0.0
H2615 H 0.90342 0.18827 0.8528 0.0
H2616 H 0.88699 0.13897 0.84939 0.0
H2617 H 0.8559 0.25493 0.82197 0.0
H2618 H 0.87582 0.27474 0.83246 0.0
H2619 H 0.90634 0.27204 0.82432 0.0
H2620 H 0.94568 0.32153 0.85542 0.0
H2621 H 0.02018 0.3084 0.83738 0.0
H2622 H 0.86713 0.22455 0.85405 0.0
H2623 H 0.85759 0.25469 0.84707 0.0
H2624 H 0.88022 0.27309 0.85743 0.0
H2625 H 0.95805 0.21138 0.83169 0.0
H2626 H 0.99771 0.25627 0.82763 0.0
H2627 H 0.9486 0.23963 0.82411 0.0
C2628 C 0.66121 0.68624 0.65655 0.0
C2629 C 0.65957 0.68533 0.64749 0.0
C2630 C 0.66894 0.72002 0.66114 0.0
C2631 C 0.67458 0.7534 0.65655 0.0
C2632 C 0.67223 0.75228 0.64741 0.0
C2633 C 0.66488 0.7184 0.64301 0.0
C2634 C 0.67145 0.72015 0.67089 0.0
C2635 C 0.67738 0.78689 0.64227 0.0
C2636 C 0.65787 0.82661 0.66887 0.0
C2637 C 0.69591 0.85569 0.67083 0.0
C2638 C 0.65058 0.79365 0.66407 0.0
C2639 C 0.68212 0.78926 0.66129 0.0
C2640 C 0.7207 0.81906 0.66305 0.0
C2641 C 0.72715 0.85213 0.66774 0.0
C2642 C 0.60906 0.76297 0.66221 0.0
C2643 C 0.75513 0.81533 0.66028 0.0
H2644 H 0.65738 0.66087 0.66002 0.0
H2645 H 0.66292 0.71765 0.63601 0.0
H2646 H 0.70032 0.7438 0.67304 0.0
H2647 H 0.64928 0.72599 0.67375 0.0
H2648 H 0.66698 0.69212 0.67348 0.0
H2649 H 0.67457 0.78127 0.63519 0.0
H2650 H 0.65538 0.79473 0.64429 0.0
H2651 H 0.7064 0.81241 0.64359 0.0
H2652 H 0.63366 0.82918 0.67131 0.0
H2653 H 0.7566 0.87413 0.66938 0.0
H2654 H 0.60229 0.73542 0.66547 0.0
H2655 H 0.60496 0.75696 0.65515 0.0
H2656 H 0.58795 0.7717 0.66444 0.0
H2657 H 0.7536 0.7894 0.66338 0.0
H2658 H 0.78326 0.84127 0.66205 0.0
H2659 H 0.75448 0.811 0.65318 0.0
C2660 C 0.15394 0.87813 0.66866 0.0
C2661 C 0.14987 0.84125 0.66978 0.0
C2662 C 0.18761 0.90856 0.66489 0.0
C2663 C 0.21697 0.90135 0.66179 0.0
C2664 C 0.21125 0.86321 0.6622 0.0
C2665 C 0.17814 0.83381 0.66636 0.0
C2666 C 0.19301 0.94899 0.66488 0.0
C2667 C 0.24113 0.85393 0.65868 0.0
C2668 C 0.296 0.9776 0.64738 0.0
C2669 C 0.32722 0.99564 0.65317 0.0
C2670 C 0.26004 0.9465 0.65005 0.0
C2671 C 0.25492 0.93411 0.65879 0.0
C2672 C 0.28633 0.95281 0.66468 0.0
C2673 C 0.32236 0.98292 0.66175 0.0
C2674 C 0.22772 0.92663 0.64351 0.0
C2675 C 0.28176 0.94129 0.67411 0.0
H2676 H 0.13227 0.88409 0.67132 0.0
H2677 H 0.17506 0.80532 0.66724 0.0
H2678 H 0.21677 0.96768 0.66941 0.0
H2679 H 0.20164 0.96226 0.65836 0.0
H2680 H 0.16627 0.94919 0.6669 0.0
H2681 H 0.22994 0.82213 0.65841 0.0
H2682 H 0.25035 0.86623 0.65209 0.0
H2683 H 0.2673 0.86735 0.66287 0.0
H2684 H 0.3001 0.98744 0.64072 0.0
H2685 H 0.34658 0.99727 0.6662 0.0
H2686 H 0.20221 0.92902 0.64552 0.0
H2687 H 0.2182 0.89521 0.64322 0.0
H2688 H 0.2367 0.93922 0.63693 0.0
H2689 H 0.25717 0.94322 0.67698 0.0
H2690 H 0.30842 0.95997 0.67793 0.0
H2691 H 0.27486 0.91068 0.67472 0.0
C2692 C 0.13026 0.27438 0.66661 0.0
C2693 C 0.16811 0.3059 0.66748 0.0
C2694 C 0.10115 0.2789 0.66252 0.0
C2695 C 0.11054 0.31547 0.65897 0.0
C2696 C 0.1495 0.34643 0.65922 0.0
C2697 C 0.17765 0.34148 0.66362 0.0
C2698 C 0.05987 0.24539 0.66262 0.0
C2699 C 0.16105 0.38548 0.65526 0.0
C2700 C 0.03748 0.32048 0.64385 0.0
C2701 C 0.02034 0.33591 0.6493 0.0
C2702 C 0.0672 0.31411 0.64686 0.0
C2703 C 0.07929 0.32234 0.6556 0.0
C2704 C 0.06176 0.33762 0.66115 0.0
C2705 C 0.03289 0.34477 0.65789 0.0
C2706 C 0.08584 0.29883 0.64068 0.0
C2707 C 0.07313 0.34593 0.67057 0.0
H2708 H 0.12262 0.24699 0.6697 0.0
H2709 H 0.20688 0.36591 0.66434 0.0
H2710 H 0.04222 0.25228 0.66707 0.0
H2711 H 0.04663 0.24075 0.65609 0.0
H2712 H 0.05805 0.2179 0.66481 0.0
H2713 H 0.1931 0.40469 0.65501 0.0
H2714 H 0.14924 0.38181 0.64861 0.0
H2715 H 0.14865 0.40017 0.65914 0.0
H2716 H 0.02791 0.31394 0.63719 0.0
H2717 H 0.01927 0.35628 0.66211 0.0
H2718 H 0.08155 0.27057 0.64303 0.0
H2719 H 0.11764 0.31925 0.64039 0.0
H2720 H 0.07375 0.29478 0.63403 0.0
H2721 H 0.06938 0.31931 0.67379 0.0
H2722 H 0.0556 0.35622 0.6741 0.0
H2723 H 0.10425 0.36841 0.67112 0.0
C2724 C 0.8044 0.59152 0.49763 0.0
C2725 C 0.80009 0.62449 0.49749 0.0
C2726 C 0.83895 0.59352 0.49482 0.0
C2727 C 0.86951 0.62914 0.49159 0.0
C2728 C 0.86399 0.66158 0.49079 0.0
C2729 C 0.82958 0.65904 0.49388 0.0
C2730 C 0.84346 0.55823 0.49599 0.0
C2731 C 0.89524 0.69961 0.48707 0.0
C2732 C 0.97461 0.6542 0.49422 0.0
C2733 C 0.98269 0.64468 0.48606 0.0
C2734 C 0.9375 0.64819 0.49617 0.0
C2735 C 0.90828 0.63362 0.4897 0.0
C2736 C 0.91648 0.6242 0.48142 0.0
C2737 C 0.95349 0.62934 0.47974 0.0
C2738 C 0.92946 0.6572 0.50518 0.0
C2739 C 0.88626 0.60897 0.47435 0.0
H2740 H 0.78187 0.56476 0.50047 0.0
H2741 H 0.82626 0.68452 0.49374 0.0
H2742 H 0.86256 0.55647 0.491 0.0
H2743 H 0.85667 0.55987 0.50242 0.0
H2744 H 0.81486 0.53101 0.49578 0.0
H2745 H 0.88465 0.72035 0.48591 0.0
H2746 H 0.92019 0.71326 0.4916 0.0
H2747 H 0.90611 0.69457 0.48087 0.0
H2748 H 0.99723 0.66568 0.4991 0.0
H2749 H 0.96002 0.62226 0.47342 0.0
H2750 H 0.90405 0.63116 0.50798 0.0
H2751 H 0.92206 0.68066 0.5049 0.0
H2752 H 0.9547 0.6665 0.50958 0.0
H2753 H 0.86057 0.58134 0.47644 0.0
H2754 H 0.89749 0.60373 0.46821 0.0
H2755 H 0.8762 0.63003 0.47308 0.0
C2756 C 0.32193 0.28875 0.48286 0.0
C2757 C 0.34364 0.3255 0.48666 0.0
C2758 C 0.32522 0.25699 0.48581 0.0
C2759 C 0.34978 0.26183 0.49292 0.0
C2760 C 0.37181 0.29902 0.49677 0.0
C2761 C 0.36893 0.33048 0.4935 0.0
C2762 C 0.30226 0.2182 0.48134 0.0
C2763 C 0.39781 0.30548 0.50447 0.0
C2764 C 0.32443 0.17514 0.50741 0.0
C2765 C 0.35445 0.16723 0.50561 0.0
C2766 C 0.32226 0.20528 0.50321 0.0
C2767 C 0.3501 0.22756 0.49682 0.0
C2768 C 0.37922 0.21838 0.4946 0.0
C2769 C 0.38135 0.18861 0.4991 0.0
C2770 C 0.29141 0.21468 0.50598 0.0
C2771 C 0.40894 0.24082 0.48769 0.0
H2772 H 0.30287 0.28509 0.47748 0.0
H2773 H 0.38566 0.35892 0.49644 0.0
H2774 H 0.32175 0.20685 0.47952 0.0
H2775 H 0.28005 0.19684 0.48582 0.0
H2776 H 0.28735 0.22007 0.47543 0.0
H2777 H 0.4103 0.33527 0.50716 0.0
H2778 H 0.38137 0.28426 0.50967 0.0
H2779 H 0.42204 0.30083 0.50254 0.0
H2780 H 0.3035 0.15899 0.51244 0.0
H2781 H 0.40473 0.18287 0.49767 0.0
H2782 H 0.27397 0.21414 0.50032 0.0
H2783 H 0.30544 0.24448 0.50872 0.0
H2784 H 0.27142 0.19405 0.51092 0.0
H2785 H 0.3947 0.24451 0.48188 0.0
H2786 H 0.42545 0.22626 0.48576 0.0
H2787 H 0.42988 0.27023 0.49014 0.0
C2788 C 0.72348 0.06041 0.4737 0.0
C2789 C 0.69415 0.02893 0.47831 0.0
C2790 C 0.75063 0.09458 0.47793 0.0
C2791 C 0.74842 0.09755 0.48701 0.0
C2792 C 0.7187 0.06604 0.49171 0.0
C2793 C 0.69205 0.03203 0.48731 0.0
C2794 C 0.78209 0.12727 0.47269 0.0
C2795 C 0.71518 0.06821 0.5014 0.0
C2796 C 0.83868 0.16683 0.49974 0.0
C2797 C 0.83233 0.19794 0.50134 0.0
C2798 C 0.81215 0.13453 0.49488 0.0
C2799 C 0.7781 0.133 0.49163 0.0
C2800 C 0.7721 0.16491 0.49299 0.0
C2801 C 0.79947 0.19716 0.49778 0.0
C2802 C 0.81994 0.10141 0.49348 0.0
C2803 C 0.736 0.16426 0.48972 0.0
H2804 H 0.72572 0.05804 0.46676 0.0
H2805 H 0.66925 0.00802 0.49089 0.0
H2806 H 0.78124 0.15444 0.47375 0.0
H2807 H 0.81103 0.13278 0.47486 0.0
H2808 H 0.77919 0.12079 0.46564 0.0
H2809 H 0.68968 0.04179 0.50406 0.0
H2810 H 0.74181 0.07186 0.50459 0.0
H2811 H 0.71254 0.09392 0.5031 0.0
H2812 H 0.86398 0.16727 0.50251 0.0
H2813 H 0.79406 0.22083 0.49912 0.0
H2814 H 0.81849 0.09455 0.48649 0.0
H2815 H 0.79726 0.07494 0.49679 0.0
H2816 H 0.84881 0.10807 0.496 0.0
H2817 H 0.73277 0.15856 0.48265 0.0
H2818 H 0.73644 0.19199 0.491 0.0
H2819 H 0.70998 0.14031 0.49289 0.0
C2820 C 0.01382 0.50267 0.66575 0.0
C2821 C 0.97813 0.47712 0.66188 0.0
C2822 C 0.0191 0.53564 0.67028 0.0
C2823 C 0.9884 0.54401 0.67061 0.0
C2824 C 0.95178 0.51739 0.667 0.0
C2825 C 0.94689 0.48384 0.66282 0.0
C2826 C 0.05816 0.56256 0.67429 0.0
C2827 C 0.91862 0.52572 0.66695 0.0
C2828 C 0.99209 0.62083 0.6859 0.0
C2829 C 0.00738 0.65362 0.68053 0.0
C2830 C 0.9866 0.58515 0.68283 0.0
C2831 C 0.99547 0.58197 0.6741 0.0
C2832 C 0.0108 0.61508 0.66864 0.0
C2833 C 0.01717 0.65071 0.67198 0.0
C2834 C 0.97134 0.55091 0.68893 0.0
C2835 C 0.01968 0.61269 0.65924 0.0
H2836 H 0.03805 0.49761 0.66497 0.0
H2837 H 0.91945 0.46451 0.65969 0.0
H2838 H 0.07323 0.58981 0.67047 0.0
H2839 H 0.05451 0.57051 0.68097 0.0
H2840 H 0.07703 0.54932 0.67451 0.0
H2841 H 0.89134 0.50094 0.66438 0.0
H2842 H 0.91308 0.53252 0.67357 0.0
H2843 H 0.9265 0.55159 0.66286 0.0
H2844 H 0.98487 0.62336 0.69254 0.0
H2845 H 0.02863 0.67608 0.66783 0.0
H2846 H 0.99155 0.53927 0.68908 0.0
H2847 H 0.9429 0.52724 0.68658 0.0
H2848 H 0.9676 0.55869 0.69562 0.0
H2849 H 0.04201 0.60384 0.65869 0.0
H2850 H 0.03038 0.6408 0.65581 0.0
H2851 H 0.99318 0.59021 0.6559 0.0
C2852 C 0.52395 0.46447 0.65892 0.0
C2853 C 0.52874 0.50172 0.658 0.0
C2854 C 0.49145 0.43486 0.66324 0.0
C2855 C 0.46391 0.44321 0.66702 0.0
C2856 C 0.47063 0.48174 0.66678 0.0
C2857 C 0.50253 0.51032 0.66212 0.0
C2858 C 0.48506 0.39407 0.66308 0.0
C2859 C 0.44293 0.49231 0.67101 0.0
C2860 C 0.35776 0.36367 0.66876 0.0
C2861 C 0.3556 0.35135 0.67733 0.0
C2862 C 0.39306 0.39296 0.66528 0.0
C2863 C 0.42663 0.41127 0.6706 0.0
C2864 C 0.42426 0.39938 0.67933 0.0
C2865 C 0.38892 0.36912 0.68254 0.0
C2866 C 0.39454 0.40394 0.65587 0.0
C2867 C 0.45897 0.41879 0.68528 0.0
H2868 H 0.54389 0.45754 0.65568 0.0
H2869 H 0.5061 0.53907 0.66139 0.0
H2870 H 0.4754 0.37993 0.6695 0.0
H2871 H 0.46179 0.37645 0.65835 0.0
H2872 H 0.51172 0.39353 0.66116 0.0
H2873 H 0.45502 0.52426 0.67128 0.0
H2874 H 0.41531 0.47925 0.66731 0.0
H2875 H 0.4359 0.48051 0.67769 0.0
H2876 H 0.33202 0.34955 0.66473 0.0
H2877 H 0.38703 0.35962 0.68919 0.0
H2878 H 0.41753 0.40099 0.65247 0.0
H2879 H 0.40214 0.43479 0.65534 0.0
H2880 H 0.36643 0.38564 0.65251 0.0
H2881 H 0.48297 0.41504 0.68272 0.0
H2882 H 0.45206 0.40685 0.69195 0.0
H2883 H 0.46976 0.45048 0.68556 0.0
C2884 C 0.5512 0.06757 0.66527 0.0
C2885 C 0.5133 0.03622 0.66432 0.0
C2886 C 0.58028 0.06255 0.66922 0.0
C2887 C 0.57085 0.02557 0.67253 0.0
C2888 C 0.53181 0.99479 0.67226 0.0
C2889 C 0.50366 1.0003 0.66801 0.0
C2890 C 0.62158 0.09604 0.66914 0.0
C2891 C 0.52016 0.95538 0.67601 0.0
C2892 C 0.64818 0.99567 0.67287 0.0
C2893 C 0.66147 0.00414 0.68141 0.0
C2894 C 0.61913 0.00313 0.66986 0.0
C2895 C 0.60208 0.01811 0.67564 0.0
C2896 C 0.61484 0.02575 0.68435 0.0
C2897 C 0.64484 0.01927 0.68709 0.0
C2898 C 0.60723 0.99569 0.66046 0.0
C2899 C 0.59688 0.04088 0.69075 0.0
H2900 H 0.55894 0.09529 0.66235 0.0
H2901 H 0.47438 0.976 0.66727 0.0
H2902 H 0.637 0.09741 0.67522 0.0
H2903 H 0.63753 0.09192 0.66372 0.0
H2904 H 0.62275 0.12432 0.66819 0.0
H2905 H 0.4881 0.93635 0.67633 0.0
H2906 H 0.53218 0.94082 0.67196 0.0
H2907 H 0.53228 0.95845 0.68263 0.0
H2908 H 0.66148 0.98441 0.66849 0.0
H2909 H 0.65517 0.02562 0.69371 0.0
H2910 H 0.61122 0.02275 0.65741 0.0
H2911 H 0.57597 0.97358 0.65994 0.0
H2912 H 0.62428 0.98537 0.65675 0.0
H2913 H 0.60191 0.0697 0.68862 0.0
H2914 H 0.60896 0.0438 0.69737 0.0
H2915 H 0.56496 0.02103 0.69101 0.0
C2916 C 0.31938 0.97359 0.16879 0.0
C2917 C 0.31558 0.97837 0.17763 0.0
C2918 C 0.35502 0.98066 0.16534 0.0
C2919 C 0.38709 0.99135 0.17095 0.0
C2920 C 0.38295 0.99518 0.17994 0.0
C2921 C 0.34735 0.98928 0.18315 0.0
C2922 C 0.35862 0.97755 0.15569 0.0
C2923 C 0.41616 0.00578 0.18612 0.0
C2924 C 0.46386 0.97314 0.16107 0.0
C2925 C 0.49106 0.01026 0.15809 0.0
C2926 C 0.43115 0.96704 0.16581 0.0
C2927 C 0.42489 0.99863 0.16733 0.0
C2928 C 0.45343 0.03658 0.16475 0.0
C2929 C 0.48648 0.04199 0.16026 0.0
C2930 C 0.40229 0.92644 0.16878 0.0
C2931 C 0.44782 0.07114 0.16604 0.0
H2932 H 0.29474 0.9656 0.16457 0.0
H2933 H 0.34407 0.99282 0.19 0.0
H2934 H 0.38234 0.00551 0.15312 0.0
H2935 H 0.36638 0.95493 0.15424 0.0
H2936 H 0.33131 0.97016 0.15221 0.0
H2937 H 0.4076 0.00568 0.19297 0.0
H2938 H 0.42702 0.98504 0.18543 0.0
H2939 H 0.44064 0.03512 0.18455 0.0
H2940 H 0.46746 0.94859 0.15942 0.0
H2941 H 0.50727 0.0707 0.15791 0.0
H2942 H 0.37539 0.91492 0.16485 0.0
H2943 H 0.39413 0.92674 0.17564 0.0
H2944 H 0.41391 0.90629 0.16814 0.0
H2945 H 0.42947 0.07191 0.16071 0.0
H2946 H 0.47597 0.09886 0.16592 0.0
H2947 H 0.43296 0.06937 0.17224 0.0
C2948 C 0.95189 0.46237 0.15403 0.0
C2949 C 0.98328 0.50019 0.15286 0.0
C2950 C 0.95642 0.43384 0.15836 0.0
C2951 C 0.99295 0.44359 0.16195 0.0
C2952 C 0.02436 0.4822 0.16118 0.0
C2953 C 0.01928 0.50993 0.15657 0.0
C2954 C 0.92223 0.39297 0.15888 0.0
C2955 C 0.06341 0.4941 0.16518 0.0
C2956 C 0.98958 0.37392 0.1793 0.0
C2957 C 1.00202 0.35169 0.17472 0.0
C2958 C 0.98805 0.40495 0.17533 0.0
C2959 C 0.99804 0.41319 0.16648 0.0
C2960 C 0.01092 0.39092 0.16183 0.0
C2961 C 0.01332 0.36081 0.16606 0.0
C2962 C 0.97522 0.42857 0.18059 0.0
C2963 C 0.02087 0.39802 0.15233 0.0
H2964 H 0.92364 0.45474 0.15146 0.0
H2965 H 0.04365 0.53912 0.15579 0.0
H2966 H 0.92949 0.37266 0.15555 0.0
H2967 H 0.91572 0.38352 0.16572 0.0
H2968 H 0.89564 0.39033 0.15586 0.0
H2969 H 0.08416 0.5257 0.16445 0.0
H2970 H 0.05994 0.4867 0.17217 0.0
H2971 H 0.07615 0.47782 0.16209 0.0
H2972 H 0.98129 0.36708 0.18604 0.0
H2973 H 0.02269 0.3434 0.16252 0.0
H2974 H 0.94714 0.42415 0.17808 0.0
H2975 H 0.99674 0.46 0.17998 0.0
H2976 H 0.97159 0.42055 0.18756 0.0
H2977 H 0.9949 0.39315 0.14862 0.0
H2978 H 0.0311 0.37868 0.1497 0.0
H2979 H 0.0438 0.42864 0.15126 0.0
C2980 C 0.47412 0.49759 0.16392 0.0
C2981 C 0.47789 0.4643 0.16407 0.0
C2982 C 0.50144 0.53207 0.16798 0.0
C2983 C 0.53281 0.53308 0.17254 0.0
C2984 C 0.53447 0.49844 0.1735 0.0
C2985 C 0.50711 0.46443 0.16919 0.0
C2986 C 0.49874 0.56832 0.16666 0.0
C2987 C 0.56685 0.49797 0.1785 0.0
C2988 C 0.62853 0.6284 0.17177 0.0
C2989 C 0.628 0.64551 0.17962 0.0
C2990 C 0.59776 0.59175 0.16942 0.0
C2991 C 0.56623 0.57129 0.1752 0.0
C2992 C 0.56606 0.5883 0.18326 0.0
C2993 C 0.59683 0.62557 0.18533 0.0
C2994 C 0.59883 0.5751 0.1607 0.0
C2995 C 0.53372 0.56689 0.18971 0.0
H2996 H 0.45141 0.49765 0.16004 0.0
H2997 H 0.51034 0.43892 0.16935 0.0
H2998 H 0.50249 0.58372 0.17288 0.0
H2999 H 0.52247 0.58846 0.16228 0.0
H3000 H 0.47055 0.56185 0.16375 0.0
H3001 H 0.55934 0.46793 0.1803 0.0
H3002 H 0.59346 0.5106 0.17445 0.0
H3003 H 0.57373 0.51574 0.18447 0.0
H3004 H 0.65308 0.644 0.16746 0.0
H3005 H 0.59719 0.63883 0.19148 0.0
H3006 H 0.57292 0.56942 0.15685 0.0
H3007 H 0.59783 0.54692 0.16156 0.0
H3008 H 0.62533 0.59481 0.15694 0.0
H3009 H 0.50559 0.56084 0.18688 0.0
H3010 H 0.53859 0.58358 0.19581 0.0
H3011 H 0.53113 0.53844 0.19129 0.0
C3012 C 0.35124 0.05383 0.9864 0.0
C3013 C 0.37662 0.0426 0.98994 0.0
C3014 C 0.35357 0.08909 0.98879 0.0
C3015 C 0.38132 0.11321 0.99504 0.0
C3016 C 0.40741 0.10221 -0.00147 0.0
C3017 C 0.40492 0.06721 0.99588 0.0
C3018 C 0.32601 0.10029 0.98473 0.0
C3019 C 0.43681 0.1264 0.00536 0.0
C3020 C 0.40814 0.21848 -0.00087 0.0
C3021 C 0.38455 0.21437 0.00626 0.0
C3022 C 0.4062 0.18568 0.99512 0.0
C3023 C 0.38094 0.14809 -0.0015 0.0
C3024 C 0.3565 0.14383 0.00557 0.0
C3025 C 0.35819 0.17685 0.00926 0.0
C3026 C 0.43209 0.19132 0.98747 0.0
C3027 C 0.32985 0.10449 0.00953 0.0
H3028 H 0.32982 0.03517 0.98168 0.0
H3029 H 0.42439 0.05843 -0.00135 0.0
H3030 H 0.30559 0.09973 0.9897 0.0
H3031 H 0.3424 0.13038 0.98217 0.0
H3032 H 0.30883 0.0804 0.97938 0.0
H3033 H 0.45851 0.11699 0.00643 0.0
H3034 H 0.45246 0.15759 0.00357 0.0
H3035 H 0.4215 0.12363 0.01155 0.0
H3036 H 0.42862 0.24733 0.99678 0.0
H3037 H 0.34003 0.17322 0.01482 0.0
H3038 H 0.4149 0.17149 0.98212 0.0
H3039 H 0.45459 0.18396 0.98934 0.0
H3040 H 0.44684 0.2217 0.98504 0.0
H3041 H 0.31002 0.08418 0.00455 0.0
H3042 H 0.31205 0.10603 0.0149 0.0
H3043 H 0.34733 0.09197 0.01209 0.0
C3044 C 0.83911 0.16735 -0.00149 0.0
C3045 C 0.80475 0.16852 -0.00024 0.0
C3046 C 0.8735 0.2004 0.99585 0.0
C3047 C 0.87351 0.23549 0.99424 0.0
C3048 C 0.83823 0.23611 0.99483 0.0
C3049 C 0.80423 0.20261 0.9976 0.0
C3050 C 0.91048 0.19848 0.9954 0.0
C3051 C 0.83691 0.27279 0.99303 0.0
C3052 C 0.96936 0.32722 -0.00112 0.0
C3053 C 0.98656 0.33692 0.99065 0.0
C3054 C 0.93209 0.29501 8e-05 0.0
C3055 C 0.91118 0.2721 0.99285 0.0
C3056 C 0.92776 0.28262 0.98448 0.0
C3057 C 0.96543 0.31466 0.98349 0.0
C3058 C 0.91576 0.28461 0.00914 0.0
C3059 C 0.90598 0.25962 0.97659 0.0
H3060 H 0.8398 0.14114 0.00012 0.0
H3061 H 0.77789 0.20392 -0.00146 0.0
H3062 H 0.92536 0.21001 0.98912 0.0
H3063 H 0.93063 0.21689 0.00058 0.0
H3064 H 0.90506 0.16838 0.9962 0.0
H3065 H 0.80668 0.26746 0.99285 0.0
H3066 H 0.85307 0.29459 0.99814 0.0
H3067 H 0.85128 0.28567 0.98677 0.0
H3068 H 0.98564 0.34406 0.00444 0.0
H3069 H 0.97839 0.32247 0.97711 0.0
H3070 H 0.91337 0.2566 0.01108 0.0
H3071 H 0.88612 0.28064 0.00938 0.0
H3072 H 0.93418 0.30712 0.01395 0.0
H3073 H 0.90241 0.23011 0.9769 0.0
H3074 H 0.92126 0.27371 0.97048 0.0
H3075 H 0.87645 0.25603 0.97644 0.0
C3076 C 0.85297 0.66358 -0.00149 0.0
C3077 C 0.84833 0.62858 0.00175 0.0
C3078 C 0.82137 0.66562 0.99502 0.0
C3079 C 0.78387 0.63213 0.99506 0.0
C3080 C 0.77931 0.59627 0.998 0.0
C3081 C 0.81174 0.59484 0.00119 0.0
C3082 C 0.82787 0.70405 0.99163 0.0
C3083 C 0.73992 0.55989 0.99842 0.0
C3084 C 0.7 0.65272 0.99607 0.0
C3085 C 0.68589 0.64464 0.98758 0.0
C3086 C 0.73106 0.64754 -0.00134 0.0
C3087 C 0.74936 0.63544 0.99251 0.0
C3088 C 0.73529 0.62757 0.98389 0.0
C3089 C 0.70332 0.63168 0.98157 0.0
C3090 C 0.74409 0.65468 0.00798 0.0
C3091 C 0.75421 0.6151 0.97712 0.0
H3092 H 0.88119 0.68971 -0.00106 0.0
H3093 H 0.8078 0.56775 0.00377 0.0
H3094 H 0.81447 0.70019 0.98513 0.0
H3095 H 0.81371 0.71544 0.99599 0.0
H3096 H 0.85924 0.72608 0.99116 0.0
H3097 H 0.74254 0.53334 0.99831 0.0
H3098 H 0.72547 0.55992 0.00457 0.0
H3099 H 0.72083 0.55824 0.99301 0.0
H3100 H 0.6861 0.66229 0.00071 0.0
H3101 H 0.69235 0.6256 0.975 0.0
H3102 H 0.77455 0.67889 0.0084 0.0
H3103 H 0.74333 0.62845 0.01071 0.0
H3104 H 0.72558 0.662 0.01205 0.0
H3105 H 0.78545 0.63727 0.97654 0.0
H3106 H 0.7403 0.61088 0.97067 0.0
H3107 H 0.75255 0.58748 0.97911 0.0
C3108 C 0.61485 0.97818 0.81411 0.0
C3109 C 0.64622 0.99336 0.81989 0.0
C3110 C 0.57853 0.97291 0.81661 0.0
C3111 C 0.57316 0.98181 0.8252 0.0
C3112 C 0.60479 0.99677 0.83109 0.0
C3113 C 0.64117 0.00302 0.82831 0.0
C3114 C 0.546 0.95806 0.81007 0.0
C3115 C 0.60004 0.00555 0.84037 0.0
C3116 C 0.4938 0.00315 0.83196 0.0
C3117 C 0.46648 0.96784 0.83572 0.0
C3118 C 0.52741 0.00728 0.82796 0.0
C3119 C 0.53466 0.9758 0.82806 0.0
C3120 C 0.50621 0.93949 0.83149 0.0
C3121 C 0.472 0.93573 0.83509 0.0
C3122 C 0.55622 0.04603 0.82408 0.0
C3123 C 0.51318 0.9055 0.832 0.0
H3124 H 0.61905 0.97095 0.80759 0.0
H3125 H 0.66546 0.01435 0.83277 0.0
H3126 H 0.52128 0.93 0.81228 0.0
H3127 H 0.53517 0.97886 0.80947 0.0
H3128 H 0.55531 0.9538 0.80358 0.0
H3129 H 0.62702 0.01552 0.84421 0.0
H3130 H 0.59182 0.02842 0.8406 0.0
H3131 H 0.57623 0.97922 0.84349 0.0
H3132 H 0.48964 0.02805 0.83246 0.0
H3133 H 0.45109 0.90842 0.83802 0.0
H3134 H 0.56573 0.04197 0.8176 0.0
H3135 H 0.58241 0.06053 0.82825 0.0
H3136 H 0.54392 0.06561 0.82343 0.0
H3137 H 0.52194 0.89982 0.8256 0.0
H3138 H 0.4871 0.87853 0.83427 0.0
H3139 H 0.53738 0.91251 0.83657 0.0
C3140 C 0.0415 0.6702 0.82752 0.0
C3141 C 0.01183 0.66342 0.82167 0.0
C3142 C 0.04544 0.63938 0.83079 0.0
C3143 C 0.01975 0.60097 0.82793 0.0
C3144 C 0.99076 0.59425 0.82173 0.0
C3145 C 0.98672 0.62552 0.81878 0.0
C3146 C 0.07605 0.64776 0.83758 0.0
C3147 C 0.96361 0.55396 0.81831 0.0
C3148 C 0.04889 0.52564 0.83375 0.0
C3149 C 0.02582 0.50828 0.84108 0.0
C3150 C 0.04613 0.55479 0.82914 0.0
C3151 C 0.02064 0.5676 0.83211 0.0
C3152 C 0.99686 0.54962 0.83941 0.0
C3153 C 0.99929 0.51987 0.8437 0.0
C3154 C 0.07113 0.57249 0.82123 0.0
C3155 C 0.97003 0.56299 0.84295 0.0
H3156 H 0.06081 0.69958 0.82974 0.0
H3157 H 0.96424 0.62052 0.81414 0.0
H3158 H 0.06186 0.63283 0.84371 0.0
H3159 H 0.0951 0.63629 0.83551 0.0
H3160 H 0.09447 0.67935 0.83891 0.0
H3161 H 0.94578 0.55428 0.81281 0.0
H3162 H 0.98039 0.54001 0.81616 0.0
H3163 H 0.94377 0.53565 0.82354 0.0
H3164 H 0.06948 0.51689 0.83169 0.0
H3165 H 0.9815 0.50694 0.84939 0.0
H3166 H 0.09398 0.60279 0.82265 0.0
H3167 H 0.0534 0.57357 0.8158 0.0
H3168 H 0.08546 0.55599 0.81911 0.0
H3169 H 0.98718 0.59404 0.84485 0.0
H3170 H 0.9534 0.54587 0.84869 0.0
H3171 H 0.9491 0.56061 0.83791 0.0
C3172 C 0.46122 0.52709 0.83627 0.0
C3173 C 0.49875 0.53256 0.83714 0.0
C3174 C 0.43152 0.49363 0.83227 0.0
C3175 C 0.44009 0.46591 0.8287 0.0
C3176 C 0.47877 0.47307 0.82891 0.0
C3177 C 0.50746 0.50589 0.8333 0.0
C3178 C 0.3905 0.48662 0.83246 0.0
C3179 C 0.48947 0.44502 0.82491 0.0
C3180 C 0.36069 0.35966 0.82756 0.0
C3181 C 0.34787 0.35658 0.81902 0.0
C3182 C 0.39023 0.39528 0.83084 0.0
C3183 C 0.40824 0.42819 0.82532 0.0
C3184 C 0.3959 0.42486 0.81661 0.0
C3185 C 0.3654 0.38922 0.8136 0.0
C3186 C 0.40173 0.39784 0.84023 0.0
C3187 C 0.41508 0.45884 0.81045 0.0
H3188 H 0.45426 0.54744 0.8393 0.0
H3189 H 0.53644 0.51002 0.834 0.0
H3190 H 0.37734 0.47914 0.82592 0.0
H3191 H 0.37243 0.46157 0.83676 0.0
H3192 H 0.38917 0.51226 0.83489 0.0
H3193 H 0.52144 0.45728 0.82461 0.0
H3194 H 0.47671 0.4179 0.82879 0.0
H3195 H 0.47743 0.43706 0.81827 0.0
H3196 H 0.34674 0.33438 0.83174 0.0
H3197 H 0.35551 0.38655 0.80697 0.0
H3198 H 0.39866 0.42101 0.84352 0.0
H3199 H 0.43268 0.40581 0.84074 0.0
H3200 H 0.38381 0.37004 0.84374 0.0
H3201 H 0.41138 0.48312 0.81283 0.0
H3202 H 0.40292 0.45109 0.8038 0.0
H3203 H 0.44677 0.46962 0.81015 0.0
C3204 C 0.61317 0.79234 0.00171 0.0
C3205 C 0.64676 0.79424 0.99825 0.0
C3206 C 0.61395 0.82587 0.00493 0.0
C3207 C 0.64907 0.86203 0.00464 0.0
C3208 C 0.68354 0.86344 0.00174 0.0
C3209 C 0.682 0.82951 -0.00134 0.0
C3210 C 0.57669 0.823 0.00811 0.0
C3211 C 0.72152 0.90139 0.0012 0.0
C3212 C 0.64596 0.955 0.0011 0.0
C3213 C 0.65828 0.97347 0.00915 0.0
C3214 C 0.6417 0.9182 -0.00036 0.0
C3215 C 0.64936 0.89905 0.00644 0.0
C3216 C 0.66038 0.9169 0.01469 0.0
C3217 C 0.66518 0.95414 0.01591 0.0
C3218 C 0.63036 0.90048 0.99071 0.0
C3219 C 0.6676 0.89691 0.02217 0.0
H3220 H 0.58573 0.76528 0.0014 0.0
H3221 H 0.70813 0.83121 0.99605 0.0
H3222 H 0.5817 0.839 0.0143 0.0
H3223 H 0.56628 0.83657 0.00333 0.0
H3224 H 0.5534 0.79237 0.00908 0.0
H3225 H 0.74621 0.89712 -0.0006 0.0
H3226 H 0.71906 0.92038 0.99627 0.0
H3227 H 0.72827 0.91697 0.00747 0.0
H3228 H 0.64084 0.96993 0.99584 0.0
H3229 H 0.67407 0.96811 0.02218 0.0
H3230 H 0.60443 0.87103 0.99108 0.0
H3231 H 0.65431 0.89724 0.98791 0.0
H3232 H 0.62384 0.91835 0.98623 0.0
H3233 H 0.64265 0.86701 0.02296 0.0
H3234 H 0.67224 0.91293 0.02835 0.0
H3235 H 0.69365 0.89433 0.02084 0.0
C3236 C 0.07112 0.68483 0.00102 0.0
C3237 C 0.04709 0.68468 0.00766 0.0
C3238 C 0.10633 0.71853 -0.00094 0.0
C3239 C 0.11831 0.75262 0.00404 0.0
C3240 C 0.09461 0.75225 0.01094 0.0
C3241 C 0.05893 0.71839 0.01258 0.0
C3242 C 0.13023 0.71786 0.99153 0.0
C3243 C 0.10695 0.78756 0.01657 0.0
C3244 C 0.22508 0.82825 0.00106 0.0
C3245 C 0.2227 0.85279 0.99486 0.0
C3246 C 0.19122 0.79676 0.00455 0.0
C3247 C 0.15428 0.78919 0.0016 0.0
C3248 C 0.1518 0.815 0.99568 0.0
C3249 C 0.18595 0.84673 0.9925 0.0
C3250 C 0.19504 0.77056 0.01106 0.0
C3251 C 0.11313 0.80763 0.99221 0.0
H3252 H 0.06183 0.65865 0.99725 0.0
H3253 H 0.04062 0.71791 0.01783 0.0
H3254 H 0.13421 0.74028 0.98671 0.0
H3255 H 0.15953 0.72488 0.99378 0.0
H3256 H 0.11646 0.68914 0.98827 0.0
H3257 H 0.08665 0.78163 0.02205 0.0
H3258 H 0.13649 0.79771 0.01919 0.0
H3259 H 0.10842 0.81165 0.01265 0.0
H3260 H 0.2533 0.83272 0.00295 0.0
H3261 H 0.18366 0.8655 0.98773 0.0
H3262 H 0.1881 0.74274 0.0079 0.0
H3263 H 0.17419 0.76365 0.01646 0.0
H3264 H 0.22491 0.78388 0.01376 0.0
H3265 H 0.09938 0.78031 0.98839 0.0
H3266 H 0.11607 0.83161 0.988 0.0
H3267 H 0.09313 0.80384 0.99761 0.0
C3268 C 0.18912 0.34791 0.9959 0.0
C3269 C 0.18329 0.3793 0.99763 0.0
C3270 C 0.22179 0.34714 -0.00095 0.0
C3271 C 0.24881 0.37786 0.00434 0.0
C3272 C 0.24213 0.40871 0.00651 0.0
C3273 C 0.20972 0.40937 0.00302 0.0
C3274 C 0.22846 0.31442 0.9963 0.0
C3275 C 0.2698 0.44179 0.01225 0.0
C3276 C 0.31594 0.35235 0.01663 0.0
C3277 C 0.34987 0.37102 0.01166 0.0
C3278 C 0.28354 0.3562 0.01462 0.0
C3279 C 0.28465 0.37797 0.00725 0.0
C3280 C 0.31908 0.39712 0.00223 0.0
C3281 C 0.35153 0.39399 0.00461 0.0
C3282 C 0.24807 0.33688 0.02035 0.0
C3283 C 0.32143 0.42023 0.99426 0.0
H3284 H 0.16916 0.32465 0.99168 0.0
H3285 H 0.20564 0.43388 0.00435 0.0
H3286 H 0.2563 0.32644 0.9927 0.0
H3287 H 0.23081 0.29908 0.00206 0.0
H3288 H 0.20477 0.29288 0.9921 0.0
H3289 H 0.25584 0.45754 0.01505 0.0
H3290 H 0.28072 0.43122 0.01761 0.0
H3291 H 0.29516 0.46281 0.00837 0.0
H3292 H 0.3151 0.33529 0.02219 0.0
H3293 H 0.37797 0.40857 0.00081 0.0
H3294 H 0.22347 0.31324 0.01675 0.0
H3295 H 0.23915 0.35821 0.02227 0.0
H3296 H 0.25324 0.32435 0.02629 0.0
H3297 H 0.29636 0.40281 0.98991 0.0
H3298 H 0.34868 0.42968 0.99056 0.0
H3299 H 0.32019 0.44646 0.99617 0.0
C3300 C 0.03128 0.32262 0.51262 0.0
C3301 C 0.01782 0.34657 0.50932 0.0
C3302 C 0.06701 0.32692 0.50989 0.0
C3303 C 0.08906 0.35488 0.50347 0.0
C3304 C 0.07555 0.37924 0.50015 0.0
C3305 C 0.04042 0.37519 0.50322 0.0
C3306 C 0.08111 0.30146 0.51385 0.0
C3307 C 0.09766 0.40896 0.49319 0.0
C3308 C 0.19483 0.38599 0.49837 0.0
C3309 C 0.19039 0.36137 0.49141 0.0
C3310 C 0.16216 0.38329 0.50262 0.0
C3311 C 0.12426 0.3562 0.49966 0.0
C3312 C 0.11975 0.33101 0.49273 0.0
C3313 C 0.1527 0.33345 0.48882 0.0
C3314 C 0.16837 0.41021 0.51009 0.0
C3315 C 0.08007 0.30265 0.48915 0.0
H3316 H 0.01412 0.30103 0.51746 0.0
H3317 H 0.02996 0.39373 0.50069 0.0
H3318 H 0.08126 0.28138 0.50888 0.0
H3319 H 0.11143 0.31961 0.51618 0.0
H3320 H 0.0626 0.28393 0.51934 0.0
H3321 H 0.08188 0.42376 0.49088 0.0
H3322 H 0.12636 0.43132 0.49571 0.0
H3323 H 0.10308 0.39489 0.48757 0.0
H3324 H 0.22378 0.40781 0.50038 0.0
H3325 H 0.14874 0.31444 0.48341 0.0
H3326 H 0.14701 0.39476 0.51533 0.0
H3327 H 0.16427 0.43442 0.50784 0.0
H3328 H 0.19816 0.42291 0.51281 0.0
H3329 H 0.06149 0.28245 0.4943 0.0
H3330 H 0.08156 0.28523 0.48369 0.0
H3331 H 0.06559 0.31869 0.48683 0.0
C3332 C 0.6201 0.82078 0.49368 0.0
C3333 C 0.65315 0.85245 0.49005 0.0
C3334 C 0.6225 0.79018 0.49761 0.0
C3335 C 0.65885 0.7917 0.49802 0.0
C3336 C 0.69284 0.82563 0.49525 0.0
C3337 C 0.68955 0.85558 0.49128 0.0
C3338 C 0.58555 0.75455 0.50049 0.0
C3339 C 0.73222 0.82864 0.49564 0.0
C3340 C 0.66961 0.71275 0.50952 0.0
C3341 C 0.66552 0.68811 0.5026 0.0
C3342 C 0.66709 0.74646 0.5082 0.0
C3343 C 0.66041 0.75568 0.49976 0.0
C3344 C 0.65612 0.73083 0.49276 0.0
C3345 C 0.65886 0.69754 0.49426 0.0
C3346 C 0.67156 0.77217 0.51582 0.0
C3347 C 0.6491 0.73964 0.48363 0.0
H3348 H 0.59181 0.81809 0.49276 0.0
H3349 H 0.71521 0.88018 0.48855 0.0
H3350 H 0.57772 0.73078 0.49575 0.0
H3351 H 0.5897 0.74421 0.50685 0.0
H3352 H 0.56086 0.76012 0.50096 0.0
H3353 H 0.75618 0.85896 0.49465 0.0
H3354 H 0.73654 0.81797 0.50194 0.0
H3355 H 0.73412 0.81017 0.49049 0.0
H3356 H 0.6743 0.70541 0.51599 0.0
H3357 H 0.65636 0.67917 0.48884 0.0
H3358 H 0.6452 0.77486 0.51648 0.0
H3359 H 0.69645 0.80183 0.51472 0.0
H3360 H 0.67633 0.76078 0.52199 0.0
H3361 H 0.62322 0.7433 0.48344 0.0
H3362 H 0.64455 0.71639 0.47899 0.0
H3363 H 0.67432 0.76737 0.48142 0.0
C3364 C 0.1555 0.82272 0.50316 0.0
C3365 C 0.16406 0.79436 0.5003 0.0
C3366 C 0.18422 0.85734 0.50696 0.0
C3367 C 0.22265 0.86416 0.50771 0.0
C3368 C 0.23087 0.83458 0.50532 0.0
C3369 C 0.20128 0.79973 0.50178 0.0
C3370 C 0.174 0.88765 0.50966 0.0
C3371 C 0.27145 0.84065 0.50601 0.0
C3372 C 0.30415 0.96911 0.50585 0.0
C3373 C 0.31739 0.97747 0.51438 0.0
C3374 C 0.27344 0.93219 0.50359 0.0
C3375 C 0.25488 0.90351 0.51011 0.0
C3376 C 0.26761 0.91239 0.5188 0.0
C3377 C 0.29922 0.94916 0.52081 0.0
C3378 C 0.2616 0.92349 0.49421 0.0
C3379 C 0.24803 0.88308 0.52595 0.0
H3380 H 0.12677 0.81864 0.50202 0.0
H3381 H 0.20819 0.77806 0.49952 0.0
H3382 H 0.18621 0.89943 0.51614 0.0
H3383 H 0.1869 0.91223 0.50501 0.0
H3384 H 0.14208 0.87582 0.50983 0.0
H3385 H 0.27376 0.81622 0.50315 0.0
H3386 H 0.29253 0.86797 0.50271 0.0
H3387 H 0.28016 0.84358 0.51291 0.0
H3388 H 0.31877 0.99114 0.50092 0.0
H3389 H 0.30979 0.95603 0.5274 0.0
H3390 H 0.23054 0.91481 0.49345 0.0
H3391 H 0.2649 0.89872 0.49199 0.0
H3392 H 0.27922 0.94882 0.48994 0.0
H3393 H 0.21619 0.87158 0.52581 0.0
H3394 H 0.25926 0.8957 0.53245 0.0
H3395 H 0.25275 0.85811 0.52498 0.0
C3396 C 0.98881 0.37382 0.31716 0.0
C3397 C 0.01284 0.36141 0.32091 0.0
C3398 C 0.98982 0.40789 0.32003 0.0
C3399 C 0.01446 0.42916 0.32702 0.0
C3400 C 0.03886 0.41668 0.3308 0.0
C3401 C 0.03814 0.38326 0.32761 0.0
C3402 C 0.96446 0.42104 0.31563 0.0
C3403 C 0.06486 0.43791 0.33841 0.0
C3404 C 0.0413 0.53239 0.33319 0.0
C3405 C 0.0151 0.52549 0.33997 0.0
C3406 C 0.03998 0.50134 0.32852 0.0
C3407 C 0.01259 0.46259 0.33085 0.0
C3408 C 0.98501 0.45561 0.33741 0.0
C3409 C 0.98618 0.48709 0.34176 0.0
C3410 C 0.06908 0.51001 0.32137 0.0
C3411 C 0.95595 0.41482 0.34027 0.0
H3412 H 0.9698 0.35718 0.31188 0.0
H3413 H 0.05664 0.37349 0.33049 0.0
H3414 H 0.94198 0.41899 0.3202 0.0
H3415 H 0.98217 0.45196 0.31367 0.0
H3416 H 0.9497 0.40333 0.30981 0.0
H3417 H 0.08223 0.42456 0.34056 0.0
H3418 H 0.08512 0.46869 0.33669 0.0
H3419 H 0.047 0.43789 0.34393 0.0
H3420 H 0.0637 0.56193 0.33175 0.0
H3421 H 0.96575 0.48128 0.34698 0.0
H3422 H 0.05487 0.49114 0.31568 0.0
H3423 H 0.09194 0.50392 0.32367 0.0
H3424 H 0.08331 0.54089 0.3193 0.0
H3425 H 0.93892 0.39706 0.33467 0.0
H3426 H 0.93542 0.41434 0.34522 0.0
H3427 H 0.97158 0.40072 0.34305 0.0
C3428 C 0.50489 0.49794 0.33243 0.0
C3429 C 0.47128 0.50082 0.33327 0.0
C3430 C 0.53875 0.52794 0.32868 0.0
C3431 C 0.53894 0.56157 0.32558 0.0
C3432 C 0.50402 0.56304 0.32565 0.0
C3433 C 0.47052 0.5326 0.32951 0.0
C3434 C 0.57529 0.52515 0.32879 0.0
C3435 C 0.5028 0.59807 0.32228 0.0
C3436 C 0.63485 0.65506 0.32855 0.0
C3437 C 0.65194 0.66054 0.32035 0.0
C3438 C 0.59769 0.6236 0.33024 0.0
C3439 C 0.57677 0.59694 0.32353 0.0
C3440 C 0.59336 0.60281 0.31516 0.0
C3441 C 0.63095 0.63437 0.31369 0.0
C3442 C 0.58129 0.61831 0.33929 0.0
C3443 C 0.57157 0.57558 0.3078 0.0
H3444 H 0.50559 0.47332 0.33526 0.0
H3445 H 0.4447 0.53514 0.33013 0.0
H3446 H 0.59 0.53328 0.32241 0.0
H3447 H 0.59581 0.54584 0.33365 0.0
H3448 H 0.56931 0.49548 0.33048 0.0
H3449 H 0.47252 0.59195 0.32137 0.0
H3450 H 0.51743 0.62237 0.32696 0.0
H3451 H 0.51856 0.60795 0.31604 0.0
H3452 H 0.65103 0.67488 0.33375 0.0
H3453 H 0.64384 0.63886 0.30731 0.0
H3454 H 0.57608 0.59023 0.342 0.0
H3455 H 0.55291 0.61735 0.33914 0.0
H3456 H 0.60101 0.64201 0.34373 0.0
H3457 H 0.56726 0.54629 0.30919 0.0
H3458 H 0.58717 0.58584 0.30154 0.0
H3459 H 0.54232 0.57243 0.30715 0.0
C3460 C 0.37989 0.01673 0.31243 0.0
C3461 C 0.34316 0.99342 0.31613 0.0
C3462 C 0.41169 0.01241 0.31483 0.0
C3463 C 0.40688 0.98497 0.32128 0.0
C3464 C 0.36968 0.96118 0.32499 0.0
C3465 C 0.3382 0.96535 0.32228 0.0
C3466 C 0.45054 0.03752 0.31054 0.0
C3467 C 0.36339 0.93232 0.33206 0.0
C3468 C 0.48027 0.95164 0.32566 0.0
C3469 C 0.50097 0.97532 0.33269 0.0
C3470 C 0.45079 0.9557 0.32156 0.0
C3471 C 0.44117 0.98337 0.32471 0.0
C3472 C 0.46294 0.00818 0.3316 0.0
C3473 C 0.49282 0.00424 0.3354 0.0
C3474 C 0.42901 0.92946 0.31406 0.0
C3475 C 0.45326 0.03753 0.33531 0.0
H3476 H 0.38354 0.03801 0.30759 0.0
H3477 H 0.30981 0.94748 0.32516 0.0
H3478 H 0.47157 0.05804 0.31533 0.0
H3479 H 0.46237 0.01924 0.3081 0.0
H3480 H 0.44857 0.05457 0.30506 0.0
H3481 H 0.33248 0.91527 0.33409 0.0
H3482 H 0.37292 0.91184 0.32985 0.0
H3483 H 0.38124 0.94787 0.33779 0.0
H3484 H 0.48633 0.92925 0.32351 0.0
H3485 H 0.50849 0.02274 0.34083 0.0
H3486 H 0.42672 0.9466 0.30865 0.0
H3487 H 0.39902 0.90808 0.31611 0.0
H3488 H 0.44325 0.91331 0.31164 0.0
H3489 H 0.45383 0.0572 0.33016 0.0
H3490 H 0.47373 0.05544 0.34051 0.0
H3491 H 0.42341 0.02224 0.33803 0.0
C3492 C 0.01983 0.22923 0.26654 0.0
C3493 C 0.01347 0.25543 0.27139 0.0
C3494 C 0.02535 0.23334 0.25755 0.0
C3495 C 0.02374 0.26396 0.25325 0.0
C3496 C 0.01814 0.29098 0.25809 0.0
C3497 C 0.01346 0.28662 0.26711 0.0
C3498 C 0.03178 0.20421 0.25262 0.0
C3499 C 0.01593 0.32382 0.25373 0.0
C3500 C 0.06414 0.28844 0.23038 0.0
C3501 C 0.03057 0.26633 0.22543 0.0
C3502 C 0.06234 0.2885 0.23946 0.0
C3503 C 0.02601 0.26642 0.24364 0.0
C3504 C 0.99186 0.24515 0.23864 0.0
C3505 C 0.99462 0.24508 0.22959 0.0
C3506 C 0.09944 0.31101 0.24457 0.0
C3507 C 0.95249 0.22179 0.24285 0.0
H3508 H 0.01929 0.20465 0.26971 0.0
H3509 H 0.00934 0.30748 0.27079 0.0
H3510 H 0.00671 0.18688 0.24828 0.0
H3511 H 0.05803 0.21943 0.24849 0.0
H3512 H 0.0353 0.18397 0.25699 0.0
H3513 H 0.01281 0.34318 0.25844 0.0
H3514 H 0.04239 0.34149 0.24979 0.0
H3515 H 0.99074 0.31179 0.24924 0.0
H3516 H 0.09201 0.30455 0.22716 0.0
H3517 H 0.96864 0.2282 0.22574 0.0
H3518 H 0.10472 0.2906 0.24845 0.0
H3519 H 0.09685 0.331 0.24918 0.0
H3520 H 0.12503 0.32823 0.24034 0.0
H3521 H 0.95166 0.19794 0.24675 0.0
H3522 H 0.92856 0.20893 0.23803 0.0
H3523 H 0.94715 0.24044 0.24734 0.0
C3524 C 0.71381 0.76291 0.23198 0.0
C3525 C 0.74358 0.77003 0.22609 0.0
C3526 C 0.71766 0.75773 0.24083 0.0
C3527 C 0.75253 0.76069 0.24392 0.0
C3528 C 0.78281 0.76804 0.23805 0.0
C3529 C 0.77783 0.77224 0.2292 0.0
C3530 C 0.68452 0.74947 0.24687 0.0
C3531 C 0.82066 0.77197 0.24115 0.0
C3532 C 0.77702 0.78708 0.26758 0.0
C3533 C 0.76799 0.75121 0.27127 0.0
C3534 C 0.77253 0.79061 0.25868 0.0
C3535 C 0.75772 0.75728 0.25335 0.0
C3536 C 0.74765 0.72081 0.25702 0.0
C3537 C 0.75324 0.71826 0.26592 0.0
C3538 C 0.78394 0.8301 0.25499 0.0
C3539 C 0.73114 0.68451 0.25155 0.0
H3540 H 0.68755 0.76197 0.22972 0.0
H3541 H 0.8008 0.77714 0.22471 0.0
H3542 H 0.67617 0.72265 0.25065 0.0
H3543 H 0.69383 0.77361 0.25157 0.0
H3544 H 0.65851 0.74585 0.24336 0.0
H3545 H 0.84137 0.77778 0.23576 0.0
H3546 H 0.83455 0.79605 0.2459 0.0
H3547 H 0.81515 0.74501 0.24451 0.0
H3548 H 0.78766 0.81259 0.27166 0.0
H3549 H 0.7467 0.69052 0.26865 0.0
H3550 H 0.75833 0.82956 0.25198 0.0
H3551 H 0.80601 0.83771 0.24983 0.0
H3552 H 0.796 0.85331 0.25999 0.0
H3553 H 0.70463 0.6801 0.24815 0.0
H3554 H 0.7236 0.65817 0.25545 0.0
H3555 H 0.75246 0.68773 0.24652 0.0
C3556 C 0.23245 0.9786 0.22781 0.0
C3557 C 0.19446 0.95236 0.22515 0.0
C3558 C 0.2408 0.98963 0.23653 0.0
C3559 C 0.21052 0.97329 0.24273 0.0
C3560 C 0.17223 0.94608 0.24008 0.0
C3561 C 0.16456 0.93629 0.23129 0.0
C3562 C 0.28179 0.0194 0.23906 0.0
C3563 C 0.13934 0.92743 0.24652 0.0
C3564 C 0.23778 0.97793 0.26646 0.0
C3565 C 0.23199 0.00788 0.26947 0.0
C3566 C 0.23075 0.96618 0.25776 0.0
C3567 C 0.21861 0.98558 0.25194 0.0
C3568 C 0.21365 0.0165 0.25494 0.0
C3569 C 0.21996 0.02697 0.2637 0.0
C3570 C 0.23557 0.93259 0.25484 0.0
C3571 C 0.2016 0.03847 0.24889 0.0
H3572 H 0.25546 0.99118 0.22302 0.0
H3573 H 0.13524 0.91576 0.22921 0.0
H3574 H 0.28214 0.04516 0.24194 0.0
H3575 H 0.29275 0.00723 0.24407 0.0
H3576 H 0.30203 0.02909 0.23346 0.0
H3577 H 0.11172 0.9053 0.24348 0.0
H3578 H 0.14695 0.91336 0.25178 0.0
H3579 H 0.13453 0.94996 0.24957 0.0
H3580 H 0.24686 0.9631 0.27098 0.0
H3581 H 0.21581 0.05035 0.26605 0.0
H3582 H 0.25723 0.94198 0.24954 0.0
H3583 H 0.20764 0.90906 0.25223 0.0
H3584 H 0.2451 0.92055 0.26018 0.0
H3585 H 0.22212 0.05029 0.24337 0.0
H3586 H 0.20068 0.06286 0.25218 0.0
H3587 H 0.1724 0.0185 0.24618 0.0
C3588 C 0.97173 0.73103 0.76776 0.0
C3589 C 0.99166 0.76314 0.77329 0.0
C3590 C 0.98036 0.73382 0.75889 0.0
C3591 C 0.00889 0.76982 0.7554 0.0
C3592 C 0.02911 0.80235 0.76091 0.0
C3593 C 0.02064 0.79848 0.76979 0.0
C3594 C 0.95869 0.69829 0.75324 0.0
C3595 C 0.05932 0.84142 0.7574 0.0
C3596 C 0.05523 0.77335 0.73367 0.0
C3597 C 0.03335 0.78262 0.72801 0.0
C3598 C 0.0471 0.76835 0.74257 0.0
C3599 C 0.01704 0.77373 0.74595 0.0
C3600 C 0.99496 0.78326 0.74032 0.0
C3601 C 0.00301 0.78704 0.73142 0.0
C3602 C 0.0708 0.75745 0.74836 0.0
C3603 C 0.96304 0.78982 0.74371 0.0
H3604 H 0.94881 0.70375 0.77031 0.0
H3605 H 0.03686 0.82329 0.774 0.0
H3606 H 0.9411 0.70329 0.74838 0.0
H3607 H 0.97956 0.69272 0.74964 0.0
H3608 H 0.93904 0.67192 0.75704 0.0
H3609 H 0.07209 0.86397 0.76253 0.0
H3610 H 0.08308 0.83901 0.75424 0.0
H3611 H 0.0461 0.85125 0.75239 0.0
H3612 H 0.07917 0.77051 0.73118 0.0
H3613 H 0.9853 0.79335 0.72713 0.0
H3614 H 0.05131 0.73067 0.75204 0.0
H3615 H 0.08706 0.78085 0.75315 0.0
H3616 H 0.09188 0.75247 0.74465 0.0
H3617 H 0.94031 0.76311 0.74692 0.0
H3618 H 0.9492 0.79799 0.7385 0.0
H3619 H 0.97495 0.81323 0.74865 0.0
C3620 C 0.24437 0.20385 0.76502 0.0
C3621 C 0.25616 0.23465 0.77087 0.0
C3622 C 0.24173 0.20939 0.75613 0.0
C3623 C 0.25026 0.24643 0.75306 0.0
C3624 C 0.2624 0.2777 0.75896 0.0
C3625 C 0.26562 0.27152 0.7678 0.0
C3626 C 0.22945 0.17551 0.75003 0.0
C3627 C 0.27099 0.31738 0.75596 0.0
C3628 C 0.27059 0.26779 0.72904 0.0
C3629 C 0.23381 0.25839 0.72593 0.0
C3630 C 0.27652 0.26429 0.73788 0.0
C3631 C 0.24505 0.25192 0.74373 0.0
C3632 C 0.20811 0.24348 0.74063 0.0
C3633 C 0.20284 0.24641 0.73174 0.0
C3634 C 0.3161 0.27278 0.74093 0.0
C3635 C 0.17404 0.23097 0.74668 0.0
H3636 H 0.23741 0.17543 0.76741 0.0
H3637 H 0.27449 0.29523 0.77235 0.0
H3638 H 0.20137 0.16808 0.74695 0.0
H3639 H 0.25118 0.18348 0.74478 0.0
H3640 H 0.22608 0.14927 0.75339 0.0
H3641 H 0.28086 0.3388 0.76134 0.0
H3642 H 0.29373 0.32844 0.75087 0.0
H3643 H 0.2445 0.31532 0.75303 0.0
H3644 H 0.29443 0.2768 0.72452 0.0
H3645 H 0.17448 0.23948 0.72931 0.0
H3646 H 0.31397 0.2462 0.74381 0.0
H3647 H 0.32699 0.29534 0.74605 0.0
H3648 H 0.33769 0.28287 0.73558 0.0
H3649 H 0.16653 0.20278 0.74972 0.0
H3650 H 0.1479 0.2277 0.7433 0.0
H3651 H 0.18184 0.25251 0.75197 0.0
C3652 C 0.81235 0.03276 0.76809 0.0
C3653 C 0.77983 0.01311 0.77346 0.0
C3654 C 0.8095 0.02557 0.75916 0.0
C3655 C 0.77347 0.99741 0.75558 0.0
C3656 C 0.74067 0.97705 0.76103 0.0
C3657 C 0.74415 0.98554 0.76991 0.0
C3658 C 0.84489 0.04846 0.75353 0.0
C3659 C 0.70202 0.94621 0.75748 0.0
C3660 C 0.75494 0.00174 0.73161 0.0
C3661 C 0.76422 0.97474 0.72821 0.0
C3662 C 0.75821 0.00972 0.74052 0.0
C3663 C 0.77009 0.98943 0.74614 0.0
C3664 C 0.77899 0.96172 0.74272 0.0
C3665 C 0.77639 0.95505 0.73376 0.0
C3666 C 0.74933 0.04009 0.7439 0.0
C3667 C 0.79093 0.93892 0.74853 0.0
H3668 H 0.83983 0.05435 0.77087 0.0
H3669 H 0.71912 0.97027 0.77412 0.0
H3670 H 0.85249 0.02848 0.75018 0.0
H3671 H 0.8385 0.06427 0.74846 0.0
H3672 H 0.87052 0.06983 0.75731 0.0
H3673 H 0.67973 0.9322 0.76263 0.0
H3674 H 0.69121 0.95915 0.75263 0.0
H3675 H 0.70551 0.92347 0.75411 0.0
H3676 H 0.74573 0.01705 0.72727 0.0
H3677 H 0.7832 0.9339 0.7311 0.0
H3678 H 0.775 0.0631 0.74737 0.0
H3679 H 0.72508 0.02682 0.74862 0.0
H3680 H 0.74128 0.05383 0.73864 0.0
H3681 H 0.81807 0.95899 0.75202 0.0
H3682 H 0.79576 0.91764 0.74487 0.0
H3683 H 0.76818 0.92304 0.75348 0.0
C3684 C 0.58702 0.55982 0.59235 0.0
C3685 C 0.61014 0.54951 0.59733 0.0
C3686 C 0.59373 0.56753 0.58345 0.0
C3687 C 0.62331 0.56348 0.57934 0.0
C3688 C 0.64627 0.55244 0.58425 0.0
C3689 C 0.63991 0.54632 0.59318 0.0
C3690 C 0.56933 0.58025 0.57845 0.0
C3691 C 0.67757 0.54694 0.58007 0.0
C3692 C 0.6188 0.54448 0.5552 0.0
C3693 C 0.64958 0.57972 0.55208 0.0
C3694 C 0.60936 0.53905 0.56402 0.0
C3695 C 0.63011 0.57011 0.56986 0.0
C3696 C 0.65928 0.6066 0.5667 0.0
C3697 C 0.66909 0.61082 0.55788 0.0
C3698 C 0.57857 0.49943 0.56715 0.0
C3699 C 0.68121 0.6408 0.5727 0.0
H3700 H 0.56345 0.56173 0.59536 0.0
H3701 H 0.65874 0.53944 0.59692 0.0
H3702 H 0.58839 0.60811 0.57509 0.0
H3703 H 0.55226 0.55846 0.57341 0.0
H3704 H 0.54892 0.58408 0.58269 0.0
H3705 H 0.69163 0.5365 0.58473 0.0
H3706 H 0.66503 0.52565 0.5747 0.0
H3707 H 0.70026 0.57478 0.57725 0.0
H3708 H 0.60261 0.52057 0.55077 0.0
H3709 H 0.69311 0.63811 0.55563 0.0
H3710 H 0.55619 0.50173 0.57097 0.0
H3711 H 0.592 0.48716 0.57149 0.0
H3712 H 0.56402 0.47878 0.56173 0.0
H3713 H 0.66072 0.64439 0.57695 0.0
H3714 H 0.69917 0.66831 0.5691 0.0
H3715 H 0.70065 0.63555 0.57694 0.0
C3716 C 0.48235 0.09355 0.59986 0.0
C3717 C 0.4515 0.08291 0.60564 0.0
C3718 C 0.47715 0.09557 0.59094 0.0
C3719 C 0.44045 0.08762 0.58778 0.0
C3720 C 0.40913 0.07666 0.5936 0.0
C3721 C 0.41495 0.07401 0.60248 0.0
C3722 C 0.511 0.10658 0.58491 0.0
C3723 C 0.36982 0.06874 0.59049 0.0
C3724 C 0.44031 0.13332 0.56623 0.0
C3725 C 0.42687 0.10154 0.56061 0.0
C3726 C 0.44423 0.12902 0.57512 0.0
C3727 C 0.43528 0.09219 0.57841 0.0
C3728 C 0.42192 0.06002 0.57273 0.0
C3729 C 0.41743 0.065 0.56389 0.0
C3730 C 0.45782 0.16383 0.58099 0.0
C3731 C 0.41287 0.02053 0.57598 0.0
H3732 H 0.51052 0.10009 0.60234 0.0
H3733 H 0.39123 0.06603 0.60699 0.0
H3734 H 0.50266 0.08432 0.57977 0.0
H3735 H 0.51913 0.13455 0.58167 0.0
H3736 H 0.53692 0.1096 0.58836 0.0
H3737 H 0.34836 0.05992 0.59584 0.0
H3738 H 0.37263 0.09519 0.58737 0.0
H3739 H 0.35833 0.04543 0.58553 0.0
H3740 H 0.44718 0.16147 0.56368 0.0
H3741 H 0.40722 0.04052 0.55951 0.0
H3742 H 0.48558 0.17055 0.58414 0.0
H3743 H 0.43623 0.15727 0.58621 0.0
H3744 H 0.46225 0.19007 0.57745 0.0
H3745 H 0.43906 0.02258 0.57906 0.0
H3746 H 0.40306 0.9986 0.57071 0.0
H3747 H 0.38986 0.01013 0.581 0.0
C3748 C 0.88612 0.36862 0.59813 0.0
C3749 C 0.91735 0.37119 0.60293 0.0
C3750 C 0.88261 0.36062 0.58922 0.0
C3751 C 0.91151 0.35599 0.58494 0.0
C3752 C 0.94351 0.35931 0.58967 0.0
C3753 C 0.94582 0.36641 0.59862 0.0
C3754 C 0.84777 0.3568 0.58441 0.0
C3755 C 0.9752 0.3551 0.5853 0.0
C3756 C 0.88512 0.3 0.56376 0.0
C3757 C 0.89906 0.33012 0.55767 0.0
C3758 C 0.88896 0.30802 0.57266 0.0
C3759 C 0.90791 0.34712 0.57552 0.0
C3760 C 0.92275 0.37767 0.56937 0.0
C3761 C 0.91774 0.36877 0.56051 0.0
C3762 C 0.87205 0.27465 0.57901 0.0
C3763 C 0.94382 0.41971 0.57217 0.0
H3764 H 0.86436 0.37305 0.60131 0.0
H3765 H 0.96975 0.36766 0.60225 0.0
H3766 H 0.85738 0.37885 0.57919 0.0
H3767 H 0.83173 0.32781 0.58129 0.0
H3768 H 0.82747 0.36047 0.58873 0.0
H3769 H 0.9991 0.36036 0.58982 0.0
H3770 H 0.96295 0.32544 0.58258 0.0
H3771 H 0.98756 0.37586 0.57983 0.0
H3772 H 0.8703 0.2701 0.56154 0.0
H3773 H 0.9287 0.39202 0.55577 0.0
H3774 H 0.84994 0.27623 0.58311 0.0
H3775 H 0.8951 0.27667 0.5834 0.0
H3776 H 0.85822 0.24593 0.57573 0.0
H3777 H 0.92402 0.42609 0.57598 0.0
H3778 H 0.95496 0.43998 0.56657 0.0
H3779 H 0.96862 0.42546 0.57643 0.0
C3780 C 0.65811 0.05643 0.06021 0.0
C3781 C 0.68894 0.09214 0.05742 0.0
C3782 C 0.64624 0.05069 0.06891 0.0
C3783 C 0.66614 0.08121 0.07494 0.0
C3784 C 0.69836 0.11675 0.07221 0.0
C3785 C 0.70917 0.12188 0.06346 0.0
C3786 C 0.61147 0.01257 0.07156 0.0
C3787 C 0.72076 0.14973 0.07847 0.0
C3788 C 0.61323 0.08628 0.09492 0.0
C3789 C 0.62684 0.07101 0.10131 0.0
C3790 C 0.62529 0.0891 0.08628 0.0
C3791 C 0.65206 0.07688 0.08402 0.0
C3792 C 0.66594 0.06146 0.09045 0.0
C3793 C 0.6529 0.05843 0.09902 0.0
C3794 C 0.60943 0.10522 0.07959 0.0
C3795 C 0.69498 0.04875 0.08831 0.0
H3796 H 0.64231 0.03355 0.05551 0.0
H3797 H 0.73327 0.14938 0.0613 0.0
H3798 H 0.619 0.99988 0.07711 0.0
H3799 H 0.58772 0.01761 0.07372 0.0
H3800 H 0.60046 0.99111 0.06619 0.0
H3801 H 0.74681 0.17432 0.07544 0.0
H3802 H 0.70175 0.16066 0.08092 0.0
H3803 H 0.73016 0.13936 0.08414 0.0
H3804 H 0.59273 0.0956 0.09667 0.0
H3805 H 0.66367 0.04689 0.10398 0.0
H3806 H 0.59549 0.08399 0.07425 0.0
H3807 H 0.6335 0.13209 0.07672 0.0
H3808 H 0.58777 0.11212 0.08236 0.0
H3809 H 0.6832 0.02615 0.08319 0.0
H3810 H 0.70255 0.03697 0.09404 0.0
H3811 H 0.72197 0.07375 0.08572 0.0
C3812 C 0.98157 0.61538 0.06022 0.0
C3813 C 0.96566 0.58298 0.05467 0.0
C3814 C 0.9907 0.61228 0.06886 0.0
C3815 C 0.98254 0.57569 0.07213 0.0
C3816 C 0.96938 0.5437 0.06642 0.0
C3817 C 0.96169 0.5479 0.05774 0.0
C3818 C 0.00613 0.64749 0.07466 0.0
C3819 C 0.95999 0.50405 0.06963 0.0
C3820 C 0.00458 0.55919 0.09532 0.0
C3821 C 0.96902 0.54851 0.09937 0.0
C3822 C 0.01035 0.56977 0.08649 0.0
C3823 C 0.97957 0.56884 0.08164 0.0
C3824 C 0.94429 0.55951 0.08581 0.0
C3825 C 0.93985 0.55033 0.09461 0.0
C3826 C 0.04888 0.58092 0.08234 0.0
C3827 C 0.91052 0.55794 0.08093 0.0
H3828 H 0.98496 0.64275 0.058 0.0
H3829 H 0.95094 0.52305 0.05346 0.0
H3830 H 0.98207 0.64577 0.07863 0.0
H3831 H 0.02847 0.64864 0.07915 0.0
H3832 H 0.01898 0.67488 0.07086 0.0
H3833 H 0.95457 0.48347 0.06424 0.0
H3834 H 0.984 0.50615 0.07368 0.0
H3835 H 0.93358 0.49186 0.07375 0.0
H3836 H 0.02743 0.55833 0.09897 0.0
H3837 H 0.91288 0.54384 0.09776 0.0
H3838 H 0.05822 0.60625 0.07798 0.0
H3839 H 0.04595 0.55637 0.07836 0.0
H3840 H 0.07192 0.58805 0.08725 0.0
H3841 H 0.91919 0.58677 0.07809 0.0
H3842 H 0.88477 0.54927 0.08513 0.0
H3843 H 0.90183 0.53684 0.07552 0.0
C3844 C 0.42522 0.35717 0.06481 0.0
C3845 C 0.45496 0.35697 0.05995 0.0
C3846 C 0.42827 0.36197 0.07382 0.0
C3847 C 0.46215 0.36732 0.07808 0.0
C3848 C 0.49268 0.36812 0.07321 0.0
C3849 C 0.48859 0.36261 0.06422 0.0
C3850 C 0.39497 0.36069 0.07882 0.0
C3851 C 0.52942 0.37415 0.07752 0.0
C3852 C 0.48198 0.41137 0.10061 0.0
C3853 C 0.46923 0.37837 0.10583 0.0
C3854 C 0.48048 0.4083 0.09155 0.0
C3855 C 0.46527 0.37126 0.08766 0.0
C3856 C 0.45256 0.33786 0.09292 0.0
C3857 C 0.45498 0.34187 0.10195 0.0
C3858 C 0.49498 0.44464 0.08615 0.0
C3859 C 0.4357 0.29782 0.089 0.0
H3860 H 0.3994 0.35346 0.06156 0.0
H3861 H 0.51147 0.3618 0.06058 0.0
H3862 H 0.38375 0.33669 0.08361 0.0
H3863 H 0.40521 0.38811 0.08248 0.0
H3864 H 0.37066 0.35635 0.07453 0.0
H3865 H 0.55129 0.3761 0.07276 0.0
H3866 H 0.54257 0.40117 0.08144 0.0
H3867 H 0.5225 0.34973 0.08201 0.0
H3868 H 0.49334 0.43965 0.10362 0.0
H3869 H 0.44477 0.31631 0.10601 0.0
H3870 H 0.4709 0.44288 0.08218 0.0
H3871 H 0.51783 0.44726 0.08162 0.0
H3872 H 0.50711 0.47134 0.09018 0.0
H3873 H 0.4096 0.29112 0.08511 0.0
H3874 H 0.42736 0.27487 0.094 0.0
H3875 H 0.45706 0.29676 0.08456 0.0
C3876 C 0.33884 0.93611 0.93611 0.0
C3877 C 0.3616 0.92569 0.94118 0.0
C3878 C 0.3423 0.93849 0.92707 0.0
C3879 C 0.36836 0.92919 0.92294 0.0
C3880 C 0.39165 0.91895 0.92797 0.0
C3881 C 0.38836 0.91782 0.93703 0.0
C3882 C 0.31746 0.95023 0.92193 0.0
C3883 C 0.41936 0.90826 0.92378 0.0
C3884 C 0.34568 0.89527 0.89961 0.0
C3885 C 0.37306 0.92826 0.89504 0.0
C3886 C 0.3443 0.89501 0.90868 0.0
C3887 C 0.37021 0.92889 0.91333 0.0
C3888 C 0.39746 0.96251 0.9088 0.0
C3889 C 0.3989 0.96164 0.89973 0.0
C3890 C 0.31514 0.85839 0.91329 0.0
C3891 C 0.42505 0.99943 0.91353 0.0
H3892 H 0.31743 0.94145 0.93917 0.0
H3893 H 0.40661 0.91042 0.94085 0.0
H3894 H 0.33587 0.9745 0.91748 0.0
H3895 H 0.29655 0.92551 0.91788 0.0
H3896 H 0.30086 0.9594 0.92615 0.0
H3897 H 0.43567 0.90127 0.92861 0.0
H3898 H 0.40299 0.88267 0.9195 0.0
H3899 H 0.4405 0.93249 0.91965 0.0
H3900 H 0.32506 0.86955 0.89609 0.0
H3901 H 0.42071 0.98708 0.89633 0.0
H3902 H 0.29463 0.86395 0.91705 0.0
H3903 H 0.33028 0.84928 0.91797 0.0
H3904 H 0.29816 0.83401 0.90875 0.0
H3905 H 0.4084 0.00899 0.91762 0.0
H3906 H 0.44376 0.02341 0.90904 0.0
H3907 H 0.44398 0.99407 0.91791 0.0
C3908 C 0.05134 0.4211 0.90131 0.0
C3909 C 0.08433 0.43254 0.89611 0.0
C3910 C 0.05269 0.41656 0.91029 0.0
C3911 C 0.08809 0.42454 0.91422 0.0
C3912 C 0.12136 0.43565 0.90902 0.0
C3913 C 0.11896 0.43906 0.90004 0.0
C3914 C 0.01641 0.40399 0.9156 0.0
C3915 C 0.15978 0.44485 0.91299 0.0
C3916 C 0.10421 0.45457 0.93785 0.0
C3917 C 0.09979 0.42097 0.94191 0.0
C3918 C 0.1003 0.45603 0.92886 0.0
C3919 C 0.09081 0.42278 0.92379 0.0
C3920 C 0.08495 0.38834 0.92785 0.0
C3921 C 0.08992 0.38796 0.93684 0.0
C3922 C 0.10718 0.49347 0.92476 0.0
C3923 C 0.07409 0.35208 0.92267 0.0
H3924 H 0.02458 0.4166 0.89842 0.0
H3925 H 0.14441 0.44712 0.89609 0.0
H3926 H 0.0105 0.3787 0.91971 0.0
H3927 H 0.02064 0.42786 0.92 0.0
H3928 H 0.99052 0.39599 0.9115 0.0
H3929 H 0.18284 0.45276 0.90804 0.0
H3930 H 0.16947 0.46939 0.9176 0.0
H3931 H 0.15649 0.41951 0.91671 0.0
H3932 H 0.11104 0.47999 0.9417 0.0
H3933 H 0.08702 0.36201 0.93984 0.0
H3934 H 0.081 0.48846 0.92112 0.0
H3935 H 0.13144 0.5039 0.92005 0.0
H3936 H 0.11435 0.51672 0.92961 0.0
H3937 H 0.04806 0.3443 0.91865 0.0
H3938 H 0.06793 0.32692 0.92686 0.0
H3939 H 0.09809 0.35745 0.9182 0.0
C3940 C 0.59382 0.65263 0.9375 0.0
C3941 C 0.58547 0.67992 0.94113 0.0
C3942 C 0.58955 0.64495 0.92857 0.0
C3943 C 0.57754 0.66577 0.92315 0.0
C3944 C 0.56987 0.69397 0.92679 0.0
C3945 C 0.5735 0.70038 0.93576 0.0
C3946 C 0.59719 0.61409 0.92496 0.0
C3947 C 0.5578 0.71734 0.92121 0.0
C3948 C 0.59823 0.66973 0.89903 0.0
C3949 C 0.56148 0.64315 0.89576 0.0
C3950 C 0.60389 0.67754 0.90794 0.0
C3951 C 0.57221 0.65756 0.9137 0.0
C3952 C 0.5352 0.63012 0.91042 0.0
C3953 C 0.53019 0.62358 0.90147 0.0
C3954 C 0.64356 0.70761 0.91118 0.0
C3955 C 0.50091 0.60764 0.91636 0.0
H3956 H 0.60285 0.63668 0.94168 0.0
H3957 H 0.5674 0.72175 0.93858 0.0
H3958 H 0.57057 0.59106 0.92177 0.0
H3959 H 0.62026 0.62681 0.91995 0.0
H3960 H 0.60626 0.60048 0.93004 0.0
H3961 H 0.55459 0.73934 0.925 0.0
H3962 H 0.57961 0.73244 0.91603 0.0
H3963 H 0.52971 0.69772 0.91799 0.0
H3964 H 0.62232 0.68501 0.89459 0.0
H3965 H 0.50186 0.60276 0.89891 0.0
H3966 H 0.65445 0.69431 0.91592 0.0
H3967 H 0.64159 0.73113 0.9146 0.0
H3968 H 0.66507 0.72069 0.90585 0.0
H3969 H 0.5081 0.59199 0.92131 0.0
H3970 H 0.47451 0.58622 0.9128 0.0
H3971 H 0.49413 0.62794 0.91985 0.0
C3972 C 0.38021 0.43694 0.39625 0.0
C3973 C 0.35691 0.44608 0.39103 0.0
C3974 C 0.37498 0.43288 0.40525 0.0
C3975 C 0.34626 0.43886 0.4092 0.0
C3976 C 0.32284 0.4484 0.40401 0.0
C3977 C 0.32819 0.45155 0.395 0.0
C3978 C 0.40024 0.42223 0.41055 0.0
C3979 C 0.29217 0.45541 0.40799 0.0
C3980 C 0.30742 0.39635 0.43146 0.0
C3981 C 0.32863 0.42857 0.43689 0.0
C3982 C 0.31337 0.39911 0.42247 0.0
C3983 C 0.34069 0.43514 0.41876 0.0
C3984 C 0.36237 0.46774 0.42418 0.0
C3985 C 0.35635 0.46397 0.43317 0.0
C3986 C 0.29006 0.36354 0.41692 0.0
C3987 C 0.39153 0.50677 0.42046 0.0
H3988 H 0.40302 0.43341 0.39332 0.0
H3989 H 0.30958 0.45801 0.39106 0.0
H3990 H 0.41751 0.44562 0.41528 0.0
H3991 H 0.3818 0.39536 0.41431 0.0
H3992 H 0.42051 0.41747 0.40647 0.0
H3993 H 0.27701 0.46351 0.40309 0.0
H3994 H 0.27027 0.4289 0.41141 0.0
H3995 H 0.3056 0.47902 0.41287 0.0
H3996 H 0.28542 0.36902 0.4342 0.0
H3997 H 0.37342 0.48891 0.43728 0.0
H3998 H 0.30983 0.35774 0.41293 0.0
H3999 H 0.27137 0.36865 0.4124 0.0
H4000 H 0.27128 0.33726 0.42084 0.0
H4001 H 0.41421 0.50428 0.4168 0.0
H4002 H 0.40589 0.52931 0.42554 0.0
H4003 H 0.37689 0.51664 0.41583 0.0
C4004 C 0.52955 0.8602 0.39073 0.0
C4005 C 0.56104 0.88966 0.38615 0.0
C4006 C 0.5321 0.855 0.39964 0.0
C4007 C 0.56675 0.88026 0.40413 0.0
C4008 C 0.59877 0.9098 0.39955 0.0
C4009 C 0.59564 0.91396 0.39061 0.0
C4010 C 0.49744 0.82292 0.40429 0.0
C4011 C 0.63613 0.93747 0.40413 0.0
C4012 C 0.55983 0.89358 0.42827 0.0
C4013 C 0.57473 0.87112 0.43175 0.0
C4014 C 0.55712 0.89681 0.41929 0.0
C4015 C 0.56906 0.87662 0.41366 0.0
C4016 C 0.58351 0.85335 0.41715 0.0
C4017 C 0.58647 0.85113 0.42616 0.0
C4018 C 0.54205 0.92234 0.41582 0.0
C4019 C 0.59587 0.83086 0.41135 0.0
H4020 H 0.50244 0.84167 0.3874 0.0
H4021 H 0.62035 0.93637 0.38712 0.0
H4022 H 0.50615 0.80435 0.4079 0.0
H4023 H 0.4862 0.83563 0.40909 0.0
H4024 H 0.47352 0.80429 0.39977 0.0
H4025 H 0.65848 0.95862 0.39962 0.0
H4026 H 0.63033 0.95382 0.40917 0.0
H4027 H 0.64813 0.92102 0.40746 0.0
H4028 H 0.55116 0.90939 0.43259 0.0
H4029 H 0.5977 0.8335 0.42886 0.0
H4030 H 0.51619 0.90501 0.41169 0.0
H4031 H 0.56452 0.9456 0.4117 0.0
H4032 H 0.53396 0.93607 0.42107 0.0
H4033 H 0.57141 0.81113 0.40709 0.0
H4034 H 0.60551 0.81331 0.41509 0.0
H4035 H 0.62004 0.85115 0.4071 0.0
C4036 C 0.10842 0.6952 0.43617 0.0
C4037 C 0.12132 0.67752 0.44216 0.0
C4038 C 0.10274 0.68405 0.42744 0.0
C4039 C 0.11148 0.6555 0.42454 0.0
C4040 C 0.12515 0.63799 0.43048 0.0
C4041 C 0.12921 0.64867 0.43923 0.0
C4042 C 0.08729 0.70278 0.42131 0.0
C4043 C 0.13573 0.60815 0.42758 0.0
C4044 C 0.06625 0.60265 0.40355 0.0
C4045 C 0.09544 0.62491 0.3975 0.0
C4046 C 0.07104 0.6123 0.41237 0.0
C4047 C 0.10642 0.64413 0.41528 0.0
C4048 C 0.13662 0.66577 0.4093 0.0
C4049 C 0.13053 0.65636 0.40049 0.0
C4050 C 0.03788 0.58903 0.41854 0.0
C4051 C 0.17517 0.69929 0.41221 0.0
H4052 H 0.10297 0.71805 0.43825 0.0
H4053 H 0.13833 0.63406 0.44378 0.0
H4054 H 0.10912 0.71915 0.41622 0.0
H4055 H 0.0608 0.6801 0.41801 0.0
H4056 H 0.08004 0.72304 0.42468 0.0
H4057 H 0.14758 0.59855 0.43295 0.0
H4058 H 0.10978 0.58232 0.4249 0.0
H4059 H 0.1577 0.62034 0.42233 0.0
H4060 H 0.03939 0.57773 0.40141 0.0
H4061 H 0.15312 0.67434 0.39592 0.0
H4062 H 0.02912 0.60845 0.42175 0.0
H4063 H 0.04724 0.57607 0.42369 0.0
H4064 H 0.01209 0.56533 0.41522 0.0
H4065 H 0.17103 0.72307 0.41475 0.0
H4066 H 0.19674 0.71104 0.40686 0.0
H4067 H 0.18733 0.68992 0.41755 0.0
loop_
_geom_bond_atom_site_label_1
_geom_bond_atom_site_label_2
_geom_bond_distance
_geom_bond_site_symmetry_2
_ccdc_geom_bond_type
C0 C1 1.351 . S
C0 N3 1.368 . S
C0 H5 0.931 . S
C1 C0 1.351 . S
C1 N2 1.373 . S
C1 H29 0.930 . S
N2 C1 1.373 . S
N2 C4 1.340 . S
N3 C0 1.368 . S
N3 C4 1.321 . S
N3 Co6 2.135 . S
C4 N2 1.340 . S
C4 N3 1.321 . S
C4 H28 0.930 . S
H5 C0 0.931 . S
Co6 N3 2.135 . S
Co6 N9 2.121 . S
Co6 O14 2.055 . S
Co6 O17 2.039 . S
Co6 N20 2.140 . S
C7 O8 1.227 . S
C7 O17 1.265 . S
O8 C7 1.227 . S
N9 Co6 2.121 . S
N9 C11 1.375 . S
N9 C12 1.313 . S
C10 C11 1.338 . S
C10 N13 1.377 . S
C10 H30 0.930 1_455 S
C11 N9 1.375 . S
C11 C10 1.338 . S
C11 H15 0.931 1_455 S
C12 N9 1.313 . S
C12 N13 1.344 . S
C12 H16 0.930 . S
N13 C10 1.377 . S
N13 C12 1.344 . S
O14 Co6 2.055 . S
O14 C18 1.253 . S
H15 C11 0.931 1_655 S
H16 C12 0.930 . S
O17 Co6 2.039 . S
O17 C7 1.265 . S
C18 O14 1.253 . S
C18 O19 1.227 . S
O19 C18 1.227 . S
N20 Co6 2.140 . S
N20 C23 1.346 . S
N20 C24 1.345 . S
C21 C22 1.387 . S
C21 C25 1.391 . S
C22 C21 1.387 . S
C22 C23 1.369 . S
C22 H31 0.929 . S
C23 N20 1.346 . S
C23 C22 1.369 . S
C23 H26 0.928 . S
C24 N20 1.345 . S
C24 C25 1.371 . S
C24 H27 0.931 . S
C25 C21 1.391 . S
C25 C24 1.371 . S
C25 H32 0.930 . S
H26 C23 0.928 . S
H27 C24 0.931 . S
H28 C4 0.930 . S
H29 C1 0.930 . S
H30 C10 0.930 1_655 S
H31 C22 0.929 . S
H32 C25 0.930 . S
C33 C34 1.351 . S
C33 N36 1.368 . S
C33 H38 0.931 . S
C34 C33 1.351 . S
C34 N35 1.373 . S
C34 H62 0.930 . S
N35 C34 1.373 . S
N35 C37 1.340 . S
N36 C33 1.368 . S
N36 C37 1.321 . S
N36 Co39 2.135 . S
C37 N35 1.340 . S
C37 N36 1.321 . S
C37 H61 0.930 . S
H38 C33 0.931 . S
Co39 N36 2.135 . S
Co39 N42 2.121 . S
Co39 O47 2.055 . S
Co39 O50 2.039 . S
Co39 N53 2.140 . S
C40 O41 1.227 . S
C40 O50 1.265 . S
O41 C40 1.227 . S
N42 Co39 2.121 . S
N42 C44 1.375 . S
N42 C45 1.313 . S
C43 C44 1.338 . S
C43 N46 1.377 . S
C43 H63 0.930 . S
C44 N42 1.375 . S
C44 C43 1.338 . S
C44 H48 0.931 . S
C45 N42 1.313 . S
C45 N46 1.344 . S
C45 H49 0.930 . S
N46 C43 1.377 . S
N46 C45 1.344 . S
O47 Co39 2.055 . S
O47 C51 1.253 . S
H48 C44 0.931 . S
H49 C45 0.930 . S
O50 Co39 2.039 . S
O50 C40 1.265 . S
C51 O47 1.253 . S
C51 O52 1.227 . S
O52 C51 1.227 . S
N53 Co39 2.140 . S
N53 C56 1.346 . S
N53 C57 1.345 . S
C54 C55 1.387 . S
C54 C58 1.391 . S
C55 C54 1.387 . S
C55 C56 1.369 . S
C55 H64 0.929 . S
C56 N53 1.346 . S
C56 C55 1.369 . S
C56 H59 0.928 . S
C57 N53 1.345 . S
C57 C58 1.371 . S
C57 H60 0.931 . S
C58 C54 1.391 . S
C58 C57 1.371 . S
C58 H65 0.930 . S
H59 C56 0.928 . S
H60 C57 0.931 . S
H61 C37 0.930 . S
H62 C34 0.930 . S
H63 C43 0.930 . S
H64 C55 0.929 . S
H65 C58 0.930 . S
C66 C67 1.351 . S
C66 N69 1.368 . S
C66 H71 0.931 . S
C67 C66 1.351 . S
C67 N68 1.373 . S
C67 H95 0.930 . S
N68 C67 1.373 . S
N68 C70 1.340 . S
N69 C66 1.368 . S
N69 C70 1.321 . S
N69 Co72 2.135 . S
C70 N68 1.340 . S
C70 N69 1.321 . S
C70 H94 0.930 . S
H71 C66 0.931 . S
Co72 N69 2.135 . S
Co72 N75 2.121 . S
Co72 O80 2.055 . S
Co72 O83 2.039 . S
Co72 N86 2.140 . S
C73 O74 1.227 . S
C73 O83 1.265 . S
O74 C73 1.227 . S
N75 Co72 2.121 . S
N75 C77 1.375 . S
N75 C78 1.313 . S
C76 C77 1.338 . S
C76 N79 1.377 . S
C76 H96 0.930 1_565 S
C77 N75 1.375 . S
C77 C76 1.338 . S
C77 H81 0.924 1_565 S
C78 N75 1.313 . S
C78 N79 1.344 . S
C78 H82 0.930 . S
N79 C76 1.377 . S
N79 C78 1.344 . S
O80 Co72 2.055 . S
O80 C84 1.253 . S
H81 C77 0.924 1_545 S
H82 C78 0.930 . S
O83 Co72 2.039 . S
O83 C73 1.265 . S
C84 O80 1.253 . S
C84 O85 1.227 . S
O85 C84 1.227 . S
N86 Co72 2.140 . S
N86 C89 1.346 . S
N86 C90 1.345 . S
C87 C88 1.387 . S
C87 C91 1.391 . S
C88 C87 1.387 . S
C88 C89 1.369 . S
C88 H97 0.929 . S
C89 N86 1.346 . S
C89 C88 1.369 . S
C89 H92 0.928 . S
C90 N86 1.345 . S
C90 C91 1.371 . S
C90 H93 0.931 . S
C91 C87 1.391 . S
C91 C90 1.371 . S
C91 H98 0.930 . S
H92 C89 0.928 . S
H93 C90 0.931 . S
H94 C70 0.930 . S
H95 C67 0.930 . S
H96 C76 0.930 1_545 S
H97 C88 0.929 . S
H98 C91 0.930 . S
C99 C100 1.351 . S
C99 N102 1.368 . S
C99 H104 0.931 . S
C100 C99 1.351 . S
C100 N101 1.373 . S
C100 H128 0.930 . S
N101 C100 1.373 . S
N101 C103 1.340 . S
N102 C99 1.368 . S
N102 C103 1.321 . S
N102 Co105 2.135 . S
C103 N101 1.340 . S
C103 N102 1.321 . S
C103 H127 0.930 . S
H104 C99 0.931 . S
Co105 N102 2.135 . S
Co105 N108 2.121 . S
Co105 O113 2.055 . S
Co105 O116 2.039 . S
Co105 N119 2.140 . S
C106 O107 1.227 . S
C106 O116 1.265 . S
O107 C106 1.227 . S
N108 Co105 2.121 . S
N108 C110 1.375 . S
N108 C111 1.313 . S
C109 C110 1.338 . S
C109 N112 1.377 . S
C109 H129 0.930 1_545 S
C110 N108 1.375 . S
C110 C109 1.338 . S
C110 H114 0.931 1_545 S
C111 N108 1.313 . S
C111 N112 1.344 . S
C111 H115 0.930 . S
N112 C109 1.377 . S
N112 C111 1.344 . S
O113 Co105 2.055 . S
O113 C117 1.253 . S
H114 C110 0.931 1_565 S
H115 C111 0.930 . S
O116 Co105 2.039 . S
O116 C106 1.265 . S
C117 O113 1.253 . S
C117 O118 1.227 . S
O118 C117 1.227 . S
N119 Co105 2.140 . S
N119 C122 1.346 . S
N119 C123 1.345 . S
C120 C121 1.387 . S
C120 C124 1.391 . S
C121 C120 1.387 . S
C121 C122 1.369 . S
C121 H130 0.929 . S
C122 N119 1.346 . S
C122 C121 1.369 . S
C122 H125 0.928 . S
C123 N119 1.345 . S
C123 C124 1.371 . S
C123 H126 0.931 . S
C124 C120 1.391 . S
C124 C123 1.371 . S
C124 H131 0.930 . S
H125 C122 0.928 . S
H126 C123 0.931 . S
H127 C103 0.930 . S
H128 C100 0.930 . S
H129 C109 0.930 1_565 S
H130 C121 0.929 . S
H131 C124 0.930 . S
C132 C133 1.351 . S
C132 N135 1.368 . S
C132 H137 0.931 . S
C133 C132 1.351 . S
C133 N134 1.373 . S
C133 H161 0.930 . S
N134 C133 1.373 . S
N134 C136 1.340 . S
N135 C132 1.368 . S
N135 C136 1.321 . S
N135 Co138 2.135 . S
C136 N134 1.340 . S
C136 N135 1.321 . S
C136 H160 0.930 . S
H137 C132 0.931 . S
Co138 N135 2.135 . S
Co138 N141 2.121 . S
Co138 O146 2.055 . S
Co138 O149 2.039 . S
Co138 N152 2.140 . S
C139 O140 1.227 . S
C139 O149 1.265 . S
O140 C139 1.227 . S
N141 Co138 2.121 . S
N141 C143 1.375 . S
N141 C144 1.313 . S
C142 C143 1.338 . S
C142 N145 1.377 . S
C142 H162 0.930 1_655 S
C143 N141 1.375 . S
C143 C142 1.338 . S
C143 H147 0.924 1_655 S
C144 N141 1.313 . S
C144 N145 1.344 . S
C144 H148 0.930 . S
N145 C142 1.377 . S
N145 C144 1.344 . S
O146 Co138 2.055 . S
O146 C150 1.253 . S
H147 C143 0.924 1_455 S
H148 C144 0.930 . S
O149 Co138 2.039 . S
O149 C139 1.265 . S
C150 O146 1.253 . S
C150 O151 1.227 . S
O151 C150 1.227 . S
N152 Co138 2.140 . S
N152 C155 1.346 . S
N152 C156 1.345 . S
C153 C154 1.387 . S
C153 C157 1.391 . S
C154 C153 1.387 . S
C154 C155 1.369 . S
C154 H163 0.929 . S
C155 N152 1.346 . S
C155 C154 1.369 . S
C155 H158 0.928 . S
C156 N152 1.345 . S
C156 C157 1.371 . S
C156 H159 0.931 . S
C157 C153 1.391 . S
C157 C156 1.371 . S
C157 H164 0.930 . S
H158 C155 0.928 . S
H159 C156 0.931 . S
H160 C136 0.930 . S
H161 C133 0.930 . S
H162 C142 0.930 1_455 S
H163 C154 0.929 . S
H164 C157 0.930 . S
C165 C166 1.351 . S
C165 N168 1.368 . S
C165 H170 0.931 . S
C166 C165 1.351 . S
C166 N167 1.373 . S
C166 H194 0.930 . S
N167 C166 1.373 . S
N167 C169 1.340 . S
N168 C165 1.368 . S
N168 C169 1.321 . S
N168 Co171 2.135 . S
C169 N167 1.340 . S
C169 N168 1.321 . S
C169 H193 0.930 . S
H170 C165 0.931 . S
Co171 N168 2.135 . S
Co171 N174 2.121 . S
Co171 O179 2.055 . S
Co171 O182 2.039 . S
Co171 N185 2.140 . S
C172 O173 1.227 . S
C172 O182 1.265 . S
O173 C172 1.227 . S
N174 Co171 2.121 . S
N174 C176 1.375 . S
N174 C177 1.313 . S
C175 C176 1.338 . S
C175 N178 1.377 . S
C175 H195 0.930 . S
C176 N174 1.375 . S
C176 C175 1.338 . S
C176 H180 0.931 . S
C177 N174 1.313 . S
C177 N178 1.344 . S
C177 H181 0.930 . S
N178 C175 1.377 . S
N178 C177 1.344 . S
O179 Co171 2.055 . S
O179 C183 1.253 . S
H180 C176 0.931 . S
H181 C177 0.930 . S
O182 Co171 2.039 . S
O182 C172 1.265 . S
C183 O179 1.253 . S
C183 O184 1.227 . S
O184 C183 1.227 . S
N185 Co171 2.140 . S
N185 C188 1.346 . S
N185 C189 1.345 . S
C186 C187 1.387 . S
C186 C190 1.391 . S
C187 C186 1.387 . S
C187 C188 1.369 . S
C187 H196 0.929 . S
C188 N185 1.346 . S
C188 C187 1.369 . S
C188 H191 0.928 . S
C189 N185 1.345 . S
C189 C190 1.371 . S
C189 H192 0.931 . S
C190 C186 1.391 . S
C190 C189 1.371 . S
C190 H197 0.930 . S
H191 C188 0.928 . S
H192 C189 0.931 . S
H193 C169 0.930 . S
H194 C166 0.930 . S
H195 C175 0.930 . S
H196 C187 0.929 . S
H197 C190 0.930 . S
C198 C199 1.351 . S
C198 N201 1.368 . S
C198 H203 0.931 . S
C199 C198 1.351 . S
C199 N200 1.373 . S
C199 H227 0.930 . S
N200 C199 1.373 . S
N200 C202 1.340 . S
N201 C198 1.368 . S
N201 C202 1.321 . S
N201 Co204 2.135 . S
C202 N200 1.340 . S
C202 N201 1.321 . S
C202 H226 0.930 . S
H203 C198 0.931 . S
Co204 N201 2.135 . S
Co204 N207 2.121 . S
Co204 O212 2.055 . S
Co204 O215 2.039 . S
Co204 N218 2.140 . S
C205 O206 1.227 . S
C205 O215 1.265 . S
O206 C205 1.227 . S
N207 Co204 2.121 . S
N207 C209 1.375 . S
N207 C210 1.313 . S
C208 C209 1.338 . S
C208 N211 1.377 . S
C208 H228 0.930 1_655 S
C209 N207 1.375 . S
C209 C208 1.338 . S
C209 H213 0.931 1_655 S
C210 N207 1.313 . S
C210 N211 1.344 . S
C210 H214 0.930 . S
N211 C208 1.377 . S
N211 C210 1.344 . S
O212 Co204 2.055 . S
O212 C216 1.253 . S
H213 C209 0.931 1_455 S
H214 C210 0.930 . S
O215 Co204 2.039 . S
O215 C205 1.265 . S
C216 O212 1.253 . S
C216 O217 1.227 . S
O217 C216 1.227 . S
N218 Co204 2.140 . S
N218 C221 1.346 . S
N218 C222 1.345 . S
C219 C220 1.387 . S
C219 C223 1.391 . S
C220 C219 1.387 . S
C220 C221 1.369 . S
C220 H229 0.929 . S
C221 N218 1.346 . S
C221 C220 1.369 . S
C221 H224 0.928 . S
C222 N218 1.345 . S
C222 C223 1.371 . S
C222 H225 0.931 . S
C223 C219 1.391 . S
C223 C222 1.371 . S
C223 H230 0.930 . S
H224 C221 0.928 . S
H225 C222 0.931 . S
H226 C202 0.930 . S
H227 C199 0.930 . S
H228 C208 0.930 1_455 S
H229 C220 0.929 . S
H230 C223 0.930 . S
C231 C232 1.351 . S
C231 N234 1.368 . S
C231 H236 0.931 . S
C232 C231 1.351 . S
C232 N233 1.373 . S
C232 H260 0.930 . S
N233 C232 1.373 . S
N233 C235 1.340 . S
N234 C231 1.368 . S
N234 C235 1.321 . S
N234 Co237 2.135 . S
C235 N233 1.340 . S
C235 N234 1.321 . S
C235 H259 0.930 . S
H236 C231 0.931 . S
Co237 N234 2.135 . S
Co237 N240 2.121 . S
Co237 O245 2.055 . S
Co237 O248 2.039 . S
Co237 N251 2.140 . S
C238 O239 1.227 . S
C238 O248 1.265 . S
O239 C238 1.227 . S
N240 Co237 2.121 . S
N240 C242 1.375 . S
N240 C243 1.313 . S
C241 C242 1.338 . S
C241 N244 1.377 . S
C241 H261 0.930 . S
C242 N240 1.375 . S
C242 C241 1.338 . S
C242 H246 0.931 . S
C243 N240 1.313 . S
C243 N244 1.344 . S
C243 H247 0.930 . S
N244 C241 1.377 . S
N244 C243 1.344 . S
O245 Co237 2.055 . S
O245 C249 1.253 . S
H246 C242 0.931 . S
H247 C243 0.930 . S
O248 Co237 2.039 . S
O248 C238 1.265 . S
C249 O245 1.253 . S
C249 O250 1.227 . S
O250 C249 1.227 . S
N251 Co237 2.140 . S
N251 C254 1.346 . S
N251 C255 1.345 . S
C252 C253 1.387 . S
C252 C256 1.391 . S
C253 C252 1.387 . S
C253 C254 1.369 . S
C253 H262 0.929 . S
C254 N251 1.346 . S
C254 C253 1.369 . S
C254 H257 0.928 . S
C255 N251 1.345 . S
C255 C256 1.371 . S
C255 H258 0.931 . S
C256 C252 1.391 . S
C256 C255 1.371 . S
C256 H263 0.930 . S
H257 C254 0.928 . S
H258 C255 0.931 . S
H259 C235 0.930 . S
H260 C232 0.930 . S
H261 C241 0.930 . S
H262 C253 0.929 . S
H263 C256 0.930 . S
C264 C265 1.351 . S
C264 N267 1.368 . S
C264 H269 0.931 . S
C265 C264 1.351 . S
C265 N266 1.373 . S
C265 H293 0.930 . S
N266 C265 1.373 . S
N266 C268 1.340 . S
N267 C264 1.368 . S
N267 C268 1.321 . S
N267 Co270 2.135 . S
C268 N266 1.340 . S
C268 N267 1.321 . S
C268 H292 0.930 . S
H269 C264 0.931 . S
Co270 N267 2.135 . S
Co270 N273 2.121 . S
Co270 O278 2.055 . S
Co270 O281 2.039 . S
Co270 N284 2.140 . S
C271 O272 1.227 . S
C271 O281 1.265 . S
O272 C271 1.227 . S
N273 Co270 2.121 . S
N273 C275 1.375 . S
N273 C276 1.313 . S
C274 C275 1.338 . S
C274 N277 1.377 . S
C274 H294 0.930 1_545 S
C275 N273 1.375 . S
C275 C274 1.338 . S
C275 H279 0.924 1_545 S
C276 N273 1.313 . S
C276 N277 1.344 . S
C276 H280 0.930 . S
N277 C274 1.377 . S
N277 C276 1.344 . S
O278 Co270 2.055 . S
O278 C282 1.253 . S
H279 C275 0.924 1_565 S
H280 C276 0.930 . S
O281 Co270 2.039 . S
O281 C271 1.265 . S
C282 O278 1.253 . S
C282 O283 1.227 . S
O283 C282 1.227 . S
N284 Co270 2.140 . S
N284 C287 1.346 . S
N284 C288 1.345 . S
C285 C286 1.387 . S
C285 C289 1.391 . S
C286 C285 1.387 . S
C286 C287 1.369 . S
C286 H295 0.929 . S
C287 N284 1.346 . S
C287 C286 1.369 . S
C287 H290 0.928 . S
C288 N284 1.345 . S
C288 C289 1.371 . S
C288 H291 0.931 . S
C289 C285 1.391 . S
C289 C288 1.371 . S
C289 H296 0.930 . S
H290 C287 0.928 . S
H291 C288 0.931 . S
H292 C268 0.930 . S
H293 C265 0.930 . S
H294 C274 0.930 1_565 S
H295 C286 0.929 . S
H296 C289 0.930 . S
C297 C298 1.351 . S
C297 N300 1.368 . S
C297 H302 0.931 . S
C298 C297 1.351 . S
C298 N299 1.373 . S
C298 H326 0.930 . S
N299 C298 1.373 . S
N299 C301 1.340 . S
N300 C297 1.368 . S
N300 C301 1.321 . S
N300 Co303 2.135 . S
C301 N299 1.340 . S
C301 N300 1.321 . S
C301 H325 0.930 . S
H302 C297 0.931 . S
Co303 N300 2.135 . S
Co303 N306 2.121 . S
Co303 O311 2.055 . S
Co303 O314 2.039 . S
Co303 N317 2.140 . S
C304 O305 1.227 . S
C304 O314 1.265 . S
O305 C304 1.227 . S
N306 Co303 2.121 . S
N306 C308 1.375 . S
N306 C309 1.313 . S
C307 C308 1.338 . S
C307 N310 1.377 . S
C307 H327 0.930 1_565 S
C308 N306 1.375 . S
C308 C307 1.338 . S
C308 H312 0.931 1_565 S
C309 N306 1.313 . S
C309 N310 1.344 . S
C309 H313 0.930 . S
N310 C307 1.377 . S
N310 C309 1.344 . S
O311 Co303 2.055 . S
O311 C315 1.253 . S
H312 C308 0.931 1_545 S
H313 C309 0.930 . S
O314 Co303 2.039 . S
O314 C304 1.265 . S
C315 O311 1.253 . S
C315 O316 1.227 . S
O316 C315 1.227 . S
N317 Co303 2.140 . S
N317 C320 1.346 . S
N317 C321 1.345 . S
C318 C319 1.387 . S
C318 C322 1.391 . S
C319 C318 1.387 . S
C319 C320 1.369 . S
C319 H328 0.929 . S
C320 N317 1.346 . S
C320 C319 1.369 . S
C320 H323 0.928 . S
C321 N317 1.345 . S
C321 C322 1.371 . S
C321 H324 0.931 . S
C322 C318 1.391 . S
C322 C321 1.371 . S
C322 H329 0.930 . S
H323 C320 0.928 . S
H324 C321 0.931 . S
H325 C301 0.930 . S
H326 C298 0.930 . S
H327 C307 0.930 1_545 S
H328 C319 0.929 . S
H329 C322 0.930 . S
C330 C331 1.351 . S
C330 N333 1.368 . S
C330 H335 0.931 . S
C331 C330 1.351 . S
C331 N332 1.373 . S
C331 H359 0.930 . S
N332 C331 1.373 . S
N332 C334 1.340 . S
N333 C330 1.368 . S
N333 C334 1.321 . S
N333 Co336 2.135 . S
C334 N332 1.340 . S
C334 N333 1.321 . S
C334 H358 0.930 . S
H335 C330 0.931 . S
Co336 N333 2.135 . S
Co336 N339 2.121 . S
Co336 O344 2.055 . S
Co336 O347 2.039 . S
Co336 N350 2.140 . S
C337 O338 1.227 . S
C337 O347 1.265 . S
O338 C337 1.227 . S
N339 Co336 2.121 . S
N339 C341 1.375 . S
N339 C342 1.313 . S
C340 C341 1.338 . S
C340 N343 1.377 . S
C340 H360 0.930 1_455 S
C341 N339 1.375 . S
C341 C340 1.338 . S
C341 H345 0.924 1_455 S
C342 N339 1.313 . S
C342 N343 1.344 . S
C342 H346 0.930 . S
N343 C340 1.377 . S
N343 C342 1.344 . S
O344 Co336 2.055 . S
O344 C348 1.253 . S
H345 C341 0.924 1_655 S
H346 C342 0.930 . S
O347 Co336 2.039 . S
O347 C337 1.265 . S
C348 O344 1.253 . S
C348 O349 1.227 . S
O349 C348 1.227 . S
N350 Co336 2.140 . S
N350 C353 1.346 . S
N350 C354 1.345 . S
C351 C352 1.387 . S
C351 C355 1.391 . S
C352 C351 1.387 . S
C352 C353 1.369 . S
C352 H361 0.929 . S
C353 N350 1.346 . S
C353 C352 1.369 . S
C353 H356 0.928 . S
C354 N350 1.345 . S
C354 C355 1.371 . S
C354 H357 0.931 . S
C355 C351 1.391 . S
C355 C354 1.371 . S
C355 H362 0.930 . S
H356 C353 0.928 . S
H357 C354 0.931 . S
H358 C334 0.930 . S
H359 C331 0.930 . S
H360 C340 0.930 1_655 S
H361 C352 0.929 . S
H362 C355 0.930 . S
C363 C364 1.351 . S
C363 N366 1.368 . S
C363 H368 0.931 . S
C364 C363 1.351 . S
C364 N365 1.373 . S
C364 H392 0.930 . S
N365 C364 1.373 . S
N365 C367 1.340 . S
N366 C363 1.368 . S
N366 C367 1.321 . S
N366 Co369 2.135 . S
C367 N365 1.340 . S
C367 N366 1.321 . S
C367 H391 0.930 . S
H368 C363 0.931 . S
Co369 N366 2.135 . S
Co369 N372 2.121 . S
Co369 O377 2.055 . S
Co369 O380 2.039 . S
Co369 N383 2.140 . S
C370 O371 1.227 . S
C370 O380 1.265 . S
O371 C370 1.227 . S
N372 Co369 2.121 . S
N372 C374 1.375 . S
N372 C375 1.313 . S
C373 C374 1.338 . S
C373 N376 1.377 . S
C373 H393 0.930 . S
C374 N372 1.375 . S
C374 C373 1.338 . S
C374 H378 0.931 . S
C375 N372 1.313 . S
C375 N376 1.344 . S
C375 H379 0.930 . S
N376 C373 1.377 . S
N376 C375 1.344 . S
O377 Co369 2.055 . S
O377 C381 1.253 . S
H378 C374 0.931 . S
H379 C375 0.930 . S
O380 Co369 2.039 . S
O380 C370 1.265 . S
C381 O377 1.253 . S
C381 O382 1.227 . S
O382 C381 1.227 . S
N383 Co369 2.140 . S
N383 C386 1.346 . S
N383 C387 1.345 . S
C384 C385 1.387 . S
C384 C388 1.391 . S
C385 C384 1.387 . S
C385 C386 1.369 . S
C385 H394 0.929 . S
C386 N383 1.346 . S
C386 C385 1.369 . S
C386 H389 0.928 . S
C387 N383 1.345 . S
C387 C388 1.371 . S
C387 H390 0.931 . S
C388 C384 1.391 . S
C388 C387 1.371 . S
C388 H395 0.930 . S
H389 C386 0.928 . S
H390 C387 0.931 . S
H391 C367 0.930 . S
H392 C364 0.930 . S
H393 C373 0.930 . S
H394 C385 0.929 . S
H395 C388 0.930 . S
C396 C397 1.351 . S
C396 N399 1.368 . S
C396 H401 0.931 . S
C397 C396 1.351 . S
C397 N398 1.373 . S
C397 H425 0.930 . S
N398 C397 1.373 . S
N398 C400 1.340 . S
N399 C396 1.368 . S
N399 C400 1.321 . S
N399 Co402 2.135 . S
C400 N398 1.340 . S
C400 N399 1.321 . S
C400 H424 0.930 . S
H401 C396 0.931 . S
Co402 N399 2.135 . S
Co402 N405 2.121 . S
Co402 O410 2.055 . S
Co402 O413 2.039 . S
Co402 N416 2.140 . S
C403 O404 1.227 . S
C403 O413 1.265 . S
O404 C403 1.227 . S
N405 Co402 2.121 . S
N405 C407 1.375 . S
N405 C408 1.313 . S
C406 C407 1.338 . S
C406 N409 1.377 . S
C406 H426 0.930 . S
C407 N405 1.375 . S
C407 C406 1.338 . S
C407 H411 0.931 . S
C408 N405 1.313 . S
C408 N409 1.344 . S
C408 H412 0.930 . S
N409 C406 1.377 . S
N409 C408 1.344 . S
O410 Co402 2.055 . S
O410 C414 1.253 . S
H411 C407 0.931 . S
H412 C408 0.930 . S
O413 Co402 2.039 . S
O413 C403 1.265 . S
C414 O410 1.253 . S
C414 O415 1.227 . S
O415 C414 1.227 . S
N416 Co402 2.140 . S
N416 C419 1.346 . S
N416 C420 1.345 . S
C417 C418 1.387 . S
C417 C421 1.391 . S
C418 C417 1.387 . S
C418 C419 1.369 . S
C418 H427 0.929 . S
C419 N416 1.346 . S
C419 C418 1.369 . S
C419 H422 0.928 . S
C420 N416 1.345 . S
C420 C421 1.371 . S
C420 H423 0.931 . S
C421 C417 1.391 . S
C421 C420 1.371 . S
C421 H428 0.930 . S
H422 C419 0.928 . S
H423 C420 0.931 . S
H424 C400 0.930 . S
H425 C397 0.930 . S
H426 C406 0.930 . S
H427 C418 0.929 . S
H428 C421 0.930 . S
C429 C430 1.351 . S
C429 N432 1.368 . S
C429 H434 0.931 . S
C430 C429 1.351 . S
C430 N431 1.373 . S
C430 H458 0.930 . S
N431 C430 1.373 . S
N431 C433 1.340 . S
N432 C429 1.368 . S
N432 C433 1.321 . S
N432 Co435 2.135 . S
C433 N431 1.340 . S
C433 N432 1.321 . S
C433 H457 0.930 . S
H434 C429 0.931 . S
Co435 N432 2.135 . S
Co435 N438 2.121 . S
Co435 O443 2.055 . S
Co435 O446 2.039 . S
Co435 N449 2.140 . S
C436 O437 1.227 . S
C436 O446 1.265 . S
O437 C436 1.227 . S
N438 Co435 2.121 . S
N438 C440 1.375 . S
N438 C441 1.313 . S
C439 C440 1.338 . S
C439 N442 1.377 . S
C439 H459 0.930 . S
C440 N438 1.375 . S
C440 C439 1.338 . S
C440 H444 0.931 . S
C441 N438 1.313 . S
C441 N442 1.344 . S
C441 H445 0.930 . S
N442 C439 1.377 . S
N442 C441 1.344 . S
O443 Co435 2.055 . S
O443 C447 1.253 . S
H444 C440 0.931 . S
H445 C441 0.930 . S
O446 Co435 2.039 . S
O446 C436 1.265 . S
C447 O443 1.253 . S
C447 O448 1.227 . S
O448 C447 1.227 . S
N449 Co435 2.140 . S
N449 C452 1.346 . S
N449 C453 1.345 . S
C450 C451 1.387 . S
C450 C454 1.391 . S
C451 C450 1.387 . S
C451 C452 1.369 . S
C451 H460 0.929 . S
C452 N449 1.346 . S
C452 C451 1.369 . S
C452 H455 0.928 . S
C453 N449 1.345 . S
C453 C454 1.371 . S
C453 H456 0.931 . S
C454 C450 1.391 . S
C454 C453 1.371 . S
C454 H461 0.930 . S
H455 C452 0.928 . S
H456 C453 0.931 . S
H457 C433 0.930 . S
H458 C430 0.930 . S
H459 C439 0.930 . S
H460 C451 0.929 . S
H461 C454 0.930 . S
C462 C463 1.351 . S
C462 N465 1.368 . S
C462 H467 0.931 . S
C463 C462 1.351 . S
C463 N464 1.373 . S
C463 H491 0.930 . S
N464 C463 1.373 . S
N464 C466 1.340 . S
N465 C462 1.368 . S
N465 C466 1.321 . S
N465 Co468 2.135 . S
C466 N464 1.340 . S
C466 N465 1.321 . S
C466 H490 0.930 . S
H467 C462 0.931 . S
Co468 N465 2.135 . S
Co468 N471 2.121 . S
Co468 O476 2.055 . S
Co468 O479 2.039 . S
Co468 N482 2.140 . S
C469 O470 1.227 . S
C469 O479 1.265 . S
O470 C469 1.227 . S
N471 Co468 2.121 . S
N471 C473 1.375 . S
N471 C474 1.313 . S
C472 C473 1.338 . S
C472 N475 1.377 . S
C472 H492 0.930 . S
C473 N471 1.375 . S
C473 C472 1.338 . S
C473 H477 0.931 . S
C474 N471 1.313 . S
C474 N475 1.344 . S
C474 H478 0.930 . S
N475 C472 1.377 . S
N475 C474 1.344 . S
O476 Co468 2.055 . S
O476 C480 1.253 . S
H477 C473 0.931 . S
H478 C474 0.930 . S
O479 Co468 2.039 . S
O479 C469 1.265 . S
C480 O476 1.253 . S
C480 O481 1.227 . S
O481 C480 1.227 . S
N482 Co468 2.140 . S
N482 C485 1.346 . S
N482 C486 1.345 . S
C483 C484 1.387 . S
C483 C487 1.391 . S
C484 C483 1.387 . S
C484 C485 1.369 . S
C484 H493 0.929 . S
C485 N482 1.346 . S
C485 C484 1.369 . S
C485 H488 0.928 . S
C486 N482 1.345 . S
C486 C487 1.371 . S
C486 H489 0.931 . S
C487 C483 1.391 . S
C487 C486 1.371 . S
C487 H494 0.930 . S
H488 C485 0.928 . S
H489 C486 0.931 . S
H490 C466 0.930 . S
H491 C463 0.930 . S
H492 C472 0.930 . S
H493 C484 0.929 . S
H494 C487 0.930 . S
C495 C496 1.351 . S
C495 N498 1.368 . S
C495 H500 0.931 . S
C496 C495 1.351 . S
C496 N497 1.373 . S
C496 H524 0.930 . S
N497 C496 1.373 . S
N497 C499 1.340 . S
N498 C495 1.368 . S
N498 C499 1.321 . S
N498 Co501 2.135 . S
C499 N497 1.340 . S
C499 N498 1.321 . S
C499 H523 0.930 . S
H500 C495 0.931 . S
Co501 N498 2.135 . S
Co501 N504 2.121 . S
Co501 O509 2.055 . S
Co501 O512 2.039 . S
Co501 N515 2.140 . S
C502 O503 1.227 . S
C502 O512 1.265 . S
O503 C502 1.227 . S
N504 Co501 2.121 . S
N504 C506 1.375 . S
N504 C507 1.313 . S
C505 C506 1.338 . S
C505 N508 1.377 . S
C505 H525 0.930 . S
C506 N504 1.375 . S
C506 C505 1.338 . S
C506 H510 0.931 . S
C507 N504 1.313 . S
C507 N508 1.344 . S
C507 H511 0.932 . S
N508 C505 1.377 . S
N508 C507 1.344 . S
O509 Co501 2.055 . S
O509 C513 1.253 . S
H510 C506 0.931 . S
H511 C507 0.932 . S
O512 Co501 2.039 . S
O512 C502 1.265 . S
C513 O509 1.253 . S
C513 O514 1.227 . S
O514 C513 1.227 . S
N515 Co501 2.140 . S
N515 C518 1.346 . S
N515 C519 1.345 . S
C516 C517 1.387 . S
C516 C520 1.391 . S
C517 C516 1.387 . S
C517 C518 1.369 . S
C517 H526 0.929 . S
C518 N515 1.346 . S
C518 C517 1.369 . S
C518 H521 0.928 . S
C519 N515 1.345 . S
C519 C520 1.371 . S
C519 H522 0.931 . S
C520 C516 1.391 . S
C520 C519 1.371 . S
C520 H527 0.930 1_655 S
H521 C518 0.928 . S
H522 C519 0.931 . S
H523 C499 0.930 . S
H524 C496 0.930 . S
H525 C505 0.930 . S
H526 C517 0.929 . S
H527 C520 0.930 1_455 S
C528 C529 1.351 . S
C528 N531 1.368 . S
C528 H533 0.931 . S
C529 C528 1.351 . S
C529 N530 1.373 . S
C529 H557 0.930 . S
N530 C529 1.373 . S
N530 C532 1.340 . S
N531 C528 1.368 . S
N531 C532 1.321 . S
N531 Co534 2.135 . S
C532 N530 1.340 . S
C532 N531 1.321 . S
C532 H556 0.930 . S
H533 C528 0.931 . S
Co534 N531 2.135 . S
Co534 N537 2.121 . S
Co534 O542 2.055 . S
Co534 O545 2.039 . S
Co534 N548 2.140 . S
C535 O536 1.227 . S
C535 O545 1.265 . S
O536 C535 1.227 . S
N537 Co534 2.121 . S
N537 C539 1.375 . S
N537 C540 1.313 . S
C538 C539 1.338 . S
C538 N541 1.377 . S
C538 H558 0.930 . S
C539 N537 1.375 . S
C539 C538 1.338 . S
C539 H543 0.931 . S
C540 N537 1.313 . S
C540 N541 1.344 . S
C540 H544 0.930 . S
N541 C538 1.377 . S
N541 C540 1.344 . S
O542 Co534 2.055 . S
O542 C546 1.253 . S
H543 C539 0.931 . S
H544 C540 0.930 . S
O545 Co534 2.039 . S
O545 C535 1.265 . S
C546 O542 1.253 . S
C546 O547 1.227 . S
O547 C546 1.227 . S
N548 Co534 2.140 . S
N548 C551 1.346 . S
N548 C552 1.345 . S
C549 C550 1.387 . S
C549 C553 1.391 . S
C550 C549 1.387 . S
C550 C551 1.369 . S
C550 H559 0.929 . S
C551 N548 1.346 . S
C551 C550 1.369 . S
C551 H554 0.928 . S
C552 N548 1.345 . S
C552 C553 1.371 . S
C552 H555 0.931 . S
C553 C549 1.391 . S
C553 C552 1.371 . S
C553 H560 0.930 . S
H554 C551 0.928 . S
H555 C552 0.931 . S
H556 C532 0.930 . S
H557 C529 0.930 . S
H558 C538 0.930 . S
H559 C550 0.929 . S
H560 C553 0.930 . S
C561 C562 1.351 . S
C561 N564 1.368 . S
C561 H566 0.931 . S
C562 C561 1.351 . S
C562 N563 1.373 . S
C562 H590 0.930 . S
N563 C562 1.373 . S
N563 C565 1.340 . S
N564 C561 1.368 . S
N564 C565 1.321 . S
N564 Co567 2.135 . S
C565 N563 1.340 . S
C565 N564 1.321 . S
C565 H589 0.930 . S
H566 C561 0.931 . S
Co567 N564 2.135 . S
Co567 N570 2.121 . S
Co567 O575 2.055 . S
Co567 O578 2.039 . S
Co567 N581 2.140 . S
C568 O569 1.227 . S
C568 O578 1.265 . S
O569 C568 1.227 . S
N570 Co567 2.121 . S
N570 C572 1.375 . S
N570 C573 1.313 . S
C571 C572 1.338 . S
C571 N574 1.377 . S
C571 H591 0.930 . S
C572 N570 1.375 . S
C572 C571 1.338 . S
C572 H576 0.931 . S
C573 N570 1.313 . S
C573 N574 1.344 . S
C573 H577 0.938 . S
N574 C571 1.377 . S
N574 C573 1.344 . S
O575 Co567 2.055 . S
O575 C579 1.253 . S
H576 C572 0.931 . S
H577 C573 0.938 . S
O578 Co567 2.039 . S
O578 C568 1.265 . S
C579 O575 1.253 . S
C579 O580 1.227 . S
O580 C579 1.227 . S
N581 Co567 2.140 . S
N581 C584 1.346 . S
N581 C585 1.345 . S
C582 C583 1.387 . S
C582 C586 1.391 . S
C583 C582 1.387 . S
C583 C584 1.369 . S
C583 H592 0.929 . S
C584 N581 1.346 . S
C584 C583 1.369 . S
C584 H587 0.928 . S
C585 N581 1.345 . S
C585 C586 1.371 . S
C585 H588 0.931 . S
C586 C582 1.391 . S
C586 C585 1.371 . S
C586 H593 0.930 1_545 S
H587 C584 0.928 . S
H588 C585 0.931 . S
H589 C565 0.930 . S
H590 C562 0.930 . S
H591 C571 0.930 . S
H592 C583 0.929 . S
H593 C586 0.930 1_565 S
C594 C595 1.351 . S
C594 N597 1.368 . S
C594 H599 0.931 . S
C595 C594 1.351 . S
C595 N596 1.373 . S
C595 H623 0.930 . S
N596 C595 1.373 . S
N596 C598 1.340 . S
N597 C594 1.368 . S
N597 C598 1.321 . S
N597 Co600 2.135 . S
C598 N596 1.340 . S
C598 N597 1.321 . S
C598 H622 0.930 . S
H599 C594 0.931 . S
Co600 N597 2.135 . S
Co600 N603 2.121 . S
Co600 O608 2.055 . S
Co600 O611 2.039 . S
Co600 N614 2.140 . S
C601 O602 1.227 . S
C601 O611 1.265 . S
O602 C601 1.227 . S
N603 Co600 2.121 . S
N603 C605 1.375 . S
N603 C606 1.313 . S
C604 C605 1.338 . S
C604 N607 1.377 . S
C604 H624 0.930 . S
C605 N603 1.375 . S
C605 C604 1.338 . S
C605 H609 0.931 . S
C606 N603 1.313 . S
C606 N607 1.344 . S
C606 H610 0.932 . S
N607 C604 1.377 . S
N607 C606 1.344 . S
O608 Co600 2.055 . S
O608 C612 1.253 . S
H609 C605 0.931 . S
H610 C606 0.932 . S
O611 Co600 2.039 . S
O611 C601 1.265 . S
C612 O608 1.253 . S
C612 O613 1.227 . S
O613 C612 1.227 . S
N614 Co600 2.140 . S
N614 C617 1.346 . S
N614 C618 1.345 . S
C615 C616 1.387 . S
C615 C619 1.391 . S
C616 C615 1.387 . S
C616 C617 1.369 . S
C616 H625 0.929 . S
C617 N614 1.346 . S
C617 C616 1.369 . S
C617 H620 0.928 . S
C618 N614 1.345 . S
C618 C619 1.371 . S
C618 H621 0.931 . S
C619 C615 1.391 . S
C619 C618 1.371 . S
C619 H626 0.930 1_545 S
H620 C617 0.928 . S
H621 C618 0.931 . S
H622 C598 0.930 . S
H623 C595 0.930 . S
H624 C604 0.930 . S
H625 C616 0.929 . S
H626 C619 0.930 1_565 S
C627 C628 1.351 . S
C627 N630 1.368 . S
C627 H632 0.931 . S
C628 C627 1.351 . S
C628 N629 1.373 . S
C628 H656 0.930 . S
N629 C628 1.373 . S
N629 C631 1.340 . S
N630 C627 1.368 . S
N630 C631 1.321 . S
N630 Co633 2.135 . S
C631 N629 1.340 . S
C631 N630 1.321 . S
C631 H655 0.930 . S
H632 C627 0.931 . S
Co633 N630 2.135 . S
Co633 N636 2.121 . S
Co633 O641 2.055 . S
Co633 O644 2.039 . S
Co633 N647 2.140 . S
C634 O635 1.227 . S
C634 O644 1.265 . S
O635 C634 1.227 . S
N636 Co633 2.121 . S
N636 C638 1.375 . S
N636 C639 1.313 . S
C637 C638 1.338 . S
C637 N640 1.377 . S
C637 H657 0.930 . S
C638 N636 1.375 . S
C638 C637 1.338 . S
C638 H642 0.931 . S
C639 N636 1.313 . S
C639 N640 1.344 . S
C639 H643 0.938 . S
N640 C637 1.377 . S
N640 C639 1.344 . S
O641 Co633 2.055 . S
O641 C645 1.253 . S
H642 C638 0.931 . S
H643 C639 0.938 . S
O644 Co633 2.039 . S
O644 C634 1.265 . S
C645 O641 1.253 . S
C645 O646 1.227 . S
O646 C645 1.227 . S
N647 Co633 2.140 . S
N647 C650 1.346 . S
N647 C651 1.345 . S
C648 C649 1.387 . S
C648 C652 1.391 . S
C649 C648 1.387 . S
C649 C650 1.369 . S
C649 H658 0.929 . S
C650 N647 1.346 . S
C650 C649 1.369 . S
C650 H653 0.928 . S
C651 N647 1.345 . S
C651 C652 1.371 . S
C651 H654 0.931 . S
C652 C648 1.391 . S
C652 C651 1.371 . S
C652 H659 0.930 1_655 S
H653 C650 0.928 . S
H654 C651 0.931 . S
H655 C631 0.930 . S
H656 C628 0.930 . S
H657 C637 0.930 . S
H658 C649 0.929 . S
H659 C652 0.930 1_455 S
C660 C661 1.351 . S
C660 N663 1.368 . S
C660 H665 0.931 . S
C661 C660 1.351 . S
C661 N662 1.373 . S
C661 H689 0.930 . S
N662 C661 1.373 . S
N662 C664 1.340 . S
N663 C660 1.368 . S
N663 C664 1.321 . S
N663 Co666 2.135 . S
C664 N662 1.340 . S
C664 N663 1.321 . S
C664 H688 0.930 . S
H665 C660 0.931 . S
Co666 N663 2.135 . S
Co666 N669 2.121 . S
Co666 O674 2.055 . S
Co666 O677 2.039 . S
Co666 N680 2.140 . S
C667 O668 1.227 . S
C667 O677 1.265 . S
O668 C667 1.227 . S
N669 Co666 2.121 . S
N669 C671 1.375 . S
N669 C672 1.313 . S
C670 C671 1.338 . S
C670 N673 1.377 . S
C670 H690 0.930 . S
C671 N669 1.375 . S
C671 C670 1.338 . S
C671 H675 0.931 . S
C672 N669 1.313 . S
C672 N673 1.344 . S
C672 H676 0.930 . S
N673 C670 1.377 . S
N673 C672 1.344 . S
O674 Co666 2.055 . S
O674 C678 1.253 . S
H675 C671 0.931 . S
H676 C672 0.930 . S
O677 Co666 2.039 . S
O677 C667 1.265 . S
C678 O674 1.253 . S
C678 O679 1.227 . S
O679 C678 1.227 . S
N680 Co666 2.140 . S
N680 C683 1.346 . S
N680 C684 1.345 . S
C681 C682 1.387 . S
C681 C685 1.391 . S
C682 C681 1.387 . S
C682 C683 1.369 . S
C682 H691 0.929 . S
C683 N680 1.346 . S
C683 C682 1.369 . S
C683 H686 0.928 . S
C684 N680 1.345 . S
C684 C685 1.371 . S
C684 H687 0.931 . S
C685 C681 1.391 . S
C685 C684 1.371 . S
C685 H692 0.930 . S
H686 C683 0.928 . S
H687 C684 0.931 . S
H688 C664 0.930 . S
H689 C661 0.930 . S
H690 C670 0.930 . S
H691 C682 0.929 . S
H692 C685 0.930 . S
C693 C694 1.351 . S
C693 N696 1.368 . S
C693 H698 0.931 . S
C694 C693 1.351 . S
C694 N695 1.373 . S
C694 H722 0.930 . S
N695 C694 1.373 . S
N695 C697 1.340 . S
N696 C693 1.368 . S
N696 C697 1.321 . S
N696 Co699 2.135 . S
C697 N695 1.340 . S
C697 N696 1.321 . S
C697 H721 0.930 . S
H698 C693 0.931 . S
Co699 N696 2.135 . S
Co699 N702 2.121 . S
Co699 O707 2.055 . S
Co699 O710 2.039 . S
Co699 N713 2.140 . S
C700 O701 1.227 . S
C700 O710 1.265 . S
O701 C700 1.227 . S
N702 Co699 2.121 . S
N702 C704 1.375 . S
N702 C705 1.313 . S
C703 C704 1.338 . S
C703 N706 1.377 . S
C703 H723 0.930 . S
C704 N702 1.375 . S
C704 C703 1.338 . S
C704 H708 0.931 . S
C705 N702 1.313 . S
C705 N706 1.344 . S
C705 H709 0.930 . S
N706 C703 1.377 . S
N706 C705 1.344 . S
O707 Co699 2.055 . S
O707 C711 1.253 . S
H708 C704 0.931 . S
H709 C705 0.930 . S
O710 Co699 2.039 . S
O710 C700 1.265 . S
C711 O707 1.253 . S
C711 O712 1.227 . S
O712 C711 1.227 . S
N713 Co699 2.140 . S
N713 C716 1.346 . S
N713 C717 1.345 . S
C714 C715 1.387 . S
C714 C718 1.391 . S
C715 C714 1.387 . S
C715 C716 1.369 . S
C715 H724 0.929 . S
C716 N713 1.346 . S
C716 C715 1.369 . S
C716 H719 0.928 . S
C717 N713 1.345 . S
C717 C718 1.371 . S
C717 H720 0.931 . S
C718 C714 1.391 . S
C718 C717 1.371 . S
C718 H725 0.930 . S
H719 C716 0.928 . S
H720 C717 0.931 . S
H721 C697 0.930 . S
H722 C694 0.930 . S
H723 C703 0.930 . S
H724 C715 0.929 . S
H725 C718 0.930 . S
C726 C727 1.351 . S
C726 N729 1.368 . S
C726 H731 0.931 . S
C727 C726 1.351 . S
C727 N728 1.373 . S
C727 H755 0.930 . S
N728 C727 1.373 . S
N728 C730 1.340 . S
N729 C726 1.368 . S
N729 C730 1.321 . S
N729 Co732 2.135 . S
C730 N728 1.340 . S
C730 N729 1.321 . S
C730 H754 0.930 . S
H731 C726 0.931 . S
Co732 N729 2.135 . S
Co732 N735 2.121 . S
Co732 O740 2.055 . S
Co732 O743 2.039 . S
Co732 N746 2.140 . S
C733 O734 1.227 . S
C733 O743 1.265 . S
O734 C733 1.227 . S
N735 Co732 2.121 . S
N735 C737 1.375 . S
N735 C738 1.313 . S
C736 C737 1.338 . S
C736 N739 1.377 . S
C736 H756 0.930 . S
C737 N735 1.375 . S
C737 C736 1.338 . S
C737 H741 0.931 . S
C738 N735 1.313 . S
C738 N739 1.344 . S
C738 H742 0.930 . S
N739 C736 1.377 . S
N739 C738 1.344 . S
O740 Co732 2.055 . S
O740 C744 1.253 . S
H741 C737 0.931 . S
H742 C738 0.930 . S
O743 Co732 2.039 . S
O743 C733 1.265 . S
C744 O740 1.253 . S
C744 O745 1.227 . S
O745 C744 1.227 . S
N746 Co732 2.140 . S
N746 C749 1.346 . S
N746 C750 1.345 . S
C747 C748 1.387 . S
C747 C751 1.391 . S
C748 C747 1.387 . S
C748 C749 1.369 . S
C748 H757 0.929 . S
C749 N746 1.346 . S
C749 C748 1.369 . S
C749 H752 0.928 . S
C750 N746 1.345 . S
C750 C751 1.371 . S
C750 H753 0.931 . S
C751 C747 1.391 . S
C751 C750 1.371 . S
C751 H758 0.930 . S
H752 C749 0.928 . S
H753 C750 0.931 . S
H754 C730 0.930 . S
H755 C727 0.930 . S
H756 C736 0.930 . S
H757 C748 0.929 . S
H758 C751 0.930 . S
C759 C760 1.351 . S
C759 N762 1.368 . S
C759 H764 0.931 . S
C760 C759 1.351 . S
C760 N761 1.373 . S
C760 H788 0.930 . S
N761 C760 1.373 . S
N761 C763 1.340 . S
N762 C759 1.368 . S
N762 C763 1.321 . S
N762 Co765 2.135 . S
C763 N761 1.340 . S
C763 N762 1.321 . S
C763 H787 0.930 . S
H764 C759 0.931 . S
Co765 N762 2.135 . S
Co765 N768 2.121 . S
Co765 O773 2.055 . S
Co765 O776 2.039 . S
Co765 N779 2.140 . S
C766 O767 1.227 . S
C766 O776 1.265 . S
O767 C766 1.227 . S
N768 Co765 2.121 . S
N768 C770 1.375 . S
N768 C771 1.313 . S
C769 C770 1.338 . S
C769 N772 1.377 . S
C769 H789 0.930 . S
C770 N768 1.375 . S
C770 C769 1.338 . S
C770 H774 0.931 . S
C771 N768 1.313 . S
C771 N772 1.344 . S
C771 H775 0.930 . S
N772 C769 1.377 . S
N772 C771 1.344 . S
O773 Co765 2.055 . S
O773 C777 1.253 . S
H774 C770 0.931 . S
H775 C771 0.930 . S
O776 Co765 2.039 . S
O776 C766 1.265 . S
C777 O773 1.253 . S
C777 O778 1.227 . S
O778 C777 1.227 . S
N779 Co765 2.140 . S
N779 C782 1.346 . S
N779 C783 1.345 . S
C780 C781 1.387 . S
C780 C784 1.391 . S
C781 C780 1.387 . S
C781 C782 1.369 . S
C781 H790 0.929 . S
C782 N779 1.346 . S
C782 C781 1.369 . S
C782 H785 0.928 . S
C783 N779 1.345 . S
C783 C784 1.371 . S
C783 H786 0.931 . S
C784 C780 1.391 . S
C784 C783 1.371 . S
C784 H791 0.930 . S
H785 C782 0.928 . S
H786 C783 0.931 . S
H787 C763 0.930 . S
H788 C760 0.930 . S
H789 C769 0.930 . S
H790 C781 0.929 . S
H791 C784 0.930 . S
C792 C793 1.351 . S
C792 N795 1.368 . S
C792 H797 0.931 . S
C793 C792 1.351 . S
C793 N794 1.373 . S
C793 H821 0.930 . S
N794 C793 1.373 . S
N794 C796 1.340 . S
N795 C792 1.368 . S
N795 C796 1.321 . S
N795 Co798 2.135 . S
C796 N794 1.340 . S
C796 N795 1.321 . S
C796 H820 0.930 . S
H797 C792 0.931 . S
Co798 N795 2.135 . S
Co798 N801 2.121 . S
Co798 O806 2.055 . S
Co798 O809 2.039 . S
Co798 N812 2.140 . S
C799 O800 1.227 . S
C799 O809 1.265 . S
O800 C799 1.227 . S
N801 Co798 2.121 . S
N801 C803 1.375 . S
N801 C804 1.313 . S
C802 C803 1.338 . S
C802 N805 1.377 . S
C802 H822 0.930 . S
C803 N801 1.375 . S
C803 C802 1.338 . S
C803 H807 0.931 . S
C804 N801 1.313 . S
C804 N805 1.344 . S
C804 H808 0.932 . S
N805 C802 1.377 . S
N805 C804 1.344 . S
O806 Co798 2.055 . S
O806 C810 1.253 . S
H807 C803 0.931 . S
H808 C804 0.932 . S
O809 Co798 2.039 . S
O809 C799 1.265 . S
C810 O806 1.253 . S
C810 O811 1.227 . S
O811 C810 1.227 . S
N812 Co798 2.140 . S
N812 C815 1.346 . S
N812 C816 1.345 . S
C813 C814 1.387 . S
C813 C817 1.391 . S
C814 C813 1.387 . S
C814 C815 1.369 . S
C814 H823 0.929 . S
C815 N812 1.346 . S
C815 C814 1.369 . S
C815 H818 0.928 . S
C816 N812 1.345 . S
C816 C817 1.371 . S
C816 H819 0.931 . S
C817 C813 1.391 . S
C817 C816 1.371 . S
C817 H824 0.930 1_565 S
H818 C815 0.928 . S
H819 C816 0.931 . S
H820 C796 0.930 . S
H821 C793 0.930 . S
H822 C802 0.930 . S
H823 C814 0.929 . S
H824 C817 0.930 1_545 S
C825 C826 1.351 . S
C825 N828 1.368 . S
C825 H830 0.931 . S
C826 C825 1.351 . S
C826 N827 1.373 . S
C826 H854 0.930 . S
N827 C826 1.373 . S
N827 C829 1.340 . S
N828 C825 1.368 . S
N828 C829 1.321 . S
N828 Co831 2.135 . S
C829 N827 1.340 . S
C829 N828 1.321 . S
C829 H853 0.930 . S
H830 C825 0.931 . S
Co831 N828 2.135 . S
Co831 N834 2.121 . S
Co831 O839 2.055 . S
Co831 O842 2.039 . S
Co831 N845 2.140 . S
C832 O833 1.227 . S
C832 O842 1.265 . S
O833 C832 1.227 . S
N834 Co831 2.121 . S
N834 C836 1.375 . S
N834 C837 1.313 . S
C835 C836 1.338 . S
C835 N838 1.377 . S
C835 H855 0.930 . S
C836 N834 1.375 . S
C836 C835 1.338 . S
C836 H840 0.931 . S
C837 N834 1.313 . S
C837 N838 1.344 . S
C837 H841 0.938 . S
N838 C835 1.377 . S
N838 C837 1.344 . S
O839 Co831 2.055 . S
O839 C843 1.253 . S
H840 C836 0.931 . S
H841 C837 0.938 . S
O842 Co831 2.039 . S
O842 C832 1.265 . S
C843 O839 1.253 . S
C843 O844 1.227 . S
O844 C843 1.227 . S
N845 Co831 2.140 . S
N845 C848 1.346 . S
N845 C849 1.345 . S
C846 C847 1.387 . S
C846 C850 1.391 . S
C847 C846 1.387 . S
C847 C848 1.369 . S
C847 H856 0.929 . S
C848 N845 1.346 . S
C848 C847 1.369 . S
C848 H851 0.928 . S
C849 N845 1.345 . S
C849 C850 1.371 . S
C849 H852 0.931 . S
C850 C846 1.391 . S
C850 C849 1.371 . S
C850 H857 0.930 1_455 S
H851 C848 0.928 . S
H852 C849 0.931 . S
H853 C829 0.930 . S
H854 C826 0.930 . S
H855 C835 0.930 . S
H856 C847 0.929 . S
H857 C850 0.930 1_655 S
C858 C859 1.351 . S
C858 N861 1.368 . S
C858 H863 0.931 . S
C859 C858 1.351 . S
C859 N860 1.373 . S
C859 H887 0.930 . S
N860 C859 1.373 . S
N860 C862 1.340 . S
N861 C858 1.368 . S
N861 C862 1.321 . S
N861 Co864 2.135 . S
C862 N860 1.340 . S
C862 N861 1.321 . S
C862 H886 0.930 . S
H863 C858 0.931 . S
Co864 N861 2.135 . S
Co864 N867 2.121 . S
Co864 O872 2.055 . S
Co864 O875 2.039 . S
Co864 N878 2.140 . S
C865 O866 1.227 . S
C865 O875 1.265 . S
O866 C865 1.227 . S
N867 Co864 2.121 . S
N867 C869 1.375 . S
N867 C870 1.313 . S
C868 C869 1.338 . S
C868 N871 1.377 . S
C868 H888 0.930 . S
C869 N867 1.375 . S
C869 C868 1.338 . S
C869 H873 0.931 . S
C870 N867 1.313 . S
C870 N871 1.344 . S
C870 H874 0.930 . S
N871 C868 1.377 . S
N871 C870 1.344 . S
O872 Co864 2.055 . S
O872 C876 1.253 . S
H873 C869 0.931 . S
H874 C870 0.930 . S
O875 Co864 2.039 . S
O875 C865 1.265 . S
C876 O872 1.253 . S
C876 O877 1.227 . S
O877 C876 1.227 . S
N878 Co864 2.140 . S
N878 C881 1.346 . S
N878 C882 1.345 . S
C879 C880 1.387 . S
C879 C883 1.391 . S
C880 C879 1.387 . S
C880 C881 1.369 . S
C880 H889 0.929 . S
C881 N878 1.346 . S
C881 C880 1.369 . S
C881 H884 0.928 . S
C882 N878 1.345 . S
C882 C883 1.371 . S
C882 H885 0.931 . S
C883 C879 1.391 . S
C883 C882 1.371 . S
C883 H890 0.930 . S
H884 C881 0.928 . S
H885 C882 0.931 . S
H886 C862 0.930 . S
H887 C859 0.930 . S
H888 C868 0.930 . S
H889 C880 0.929 . S
H890 C883 0.930 . S
C891 C892 1.351 . S
C891 N894 1.368 . S
C891 H896 0.931 . S
C892 C891 1.351 . S
C892 N893 1.373 . S
C892 H920 0.930 . S
N893 C892 1.373 . S
N893 C895 1.340 . S
N894 C891 1.368 . S
N894 C895 1.321 . S
N894 Co897 2.135 . S
C895 N893 1.340 . S
C895 N894 1.321 . S
C895 H919 0.930 . S
H896 C891 0.931 . S
Co897 N894 2.135 . S
Co897 N900 2.121 . S
Co897 O905 2.055 . S
Co897 O908 2.039 . S
Co897 N911 2.140 . S
C898 O899 1.227 . S
C898 O908 1.265 . S
O899 C898 1.227 . S
N900 Co897 2.121 . S
N900 C902 1.375 . S
N900 C903 1.313 . S
C901 C902 1.338 . S
C901 N904 1.377 . S
C901 H921 0.930 . S
C902 N900 1.375 . S
C902 C901 1.338 . S
C902 H906 0.931 . S
C903 N900 1.313 . S
C903 N904 1.344 . S
C903 H907 0.930 . S
N904 C901 1.377 . S
N904 C903 1.344 . S
O905 Co897 2.055 . S
O905 C909 1.253 . S
H906 C902 0.931 . S
H907 C903 0.930 . S
O908 Co897 2.039 . S
O908 C898 1.265 . S
C909 O905 1.253 . S
C909 O910 1.227 . S
O910 C909 1.227 . S
N911 Co897 2.140 . S
N911 C914 1.346 . S
N911 C915 1.345 . S
C912 C913 1.387 . S
C912 C916 1.391 . S
C913 C912 1.387 . S
C913 C914 1.369 . S
C913 H922 0.929 . S
C914 N911 1.346 . S
C914 C913 1.369 . S
C914 H917 0.928 . S
C915 N911 1.345 . S
C915 C916 1.371 . S
C915 H918 0.931 . S
C916 C912 1.391 . S
C916 C915 1.371 . S
C916 H923 0.930 . S
H917 C914 0.928 . S
H918 C915 0.931 . S
H919 C895 0.930 . S
H920 C892 0.930 . S
H921 C901 0.930 . S
H922 C913 0.929 . S
H923 C916 0.930 . S
C924 C925 1.351 . S
C924 N927 1.368 . S
C924 H929 0.931 . S
C925 C924 1.351 . S
C925 N926 1.373 . S
C925 H953 0.930 . S
N926 C925 1.373 . S
N926 C928 1.340 . S
N927 C924 1.368 . S
N927 C928 1.321 . S
N927 Co930 2.135 . S
C928 N926 1.340 . S
C928 N927 1.321 . S
C928 H952 0.930 . S
H929 C924 0.931 . S
Co930 N927 2.135 . S
Co930 N933 2.121 . S
Co930 O938 2.055 . S
Co930 O941 2.039 . S
Co930 N944 2.140 . S
C931 O932 1.227 . S
C931 O941 1.265 . S
O932 C931 1.227 . S
N933 Co930 2.121 . S
N933 C935 1.375 . S
N933 C936 1.313 . S
C934 C935 1.338 . S
C934 N937 1.377 . S
C934 H954 0.930 . S
C935 N933 1.375 . S
C935 C934 1.338 . S
C935 H939 0.931 . S
C936 N933 1.313 . S
C936 N937 1.344 . S
C936 H940 0.930 . S
N937 C934 1.377 . S
N937 C936 1.344 . S
O938 Co930 2.055 . S
O938 C942 1.253 . S
H939 C935 0.931 . S
H940 C936 0.930 . S
O941 Co930 2.039 . S
O941 C931 1.265 . S
C942 O938 1.253 . S
C942 O943 1.227 . S
O943 C942 1.227 . S
N944 Co930 2.140 . S
N944 C947 1.346 . S
N944 C948 1.345 . S
C945 C946 1.387 . S
C945 C949 1.391 . S
C946 C945 1.387 . S
C946 C947 1.369 . S
C946 H955 0.929 . S
C947 N944 1.346 . S
C947 C946 1.369 . S
C947 H950 0.928 . S
C948 N944 1.345 . S
C948 C949 1.371 . S
C948 H951 0.931 . S
C949 C945 1.391 . S
C949 C948 1.371 . S
C949 H956 0.930 . S
H950 C947 0.928 . S
H951 C948 0.931 . S
H952 C928 0.930 . S
H953 C925 0.930 . S
H954 C934 0.930 . S
H955 C946 0.929 . S
H956 C949 0.930 . S
C957 C958 1.351 . S
C957 N960 1.368 . S
C957 H962 0.931 . S
C958 C957 1.351 . S
C958 N959 1.373 . S
C958 H986 0.930 . S
N959 C958 1.373 . S
N959 C961 1.340 . S
N960 C957 1.368 . S
N960 C961 1.321 . S
N960 Co963 2.135 . S
C961 N959 1.340 . S
C961 N960 1.321 . S
C961 H985 0.930 . S
H962 C957 0.931 . S
Co963 N960 2.135 . S
Co963 N966 2.121 . S
Co963 O971 2.055 . S
Co963 O974 2.039 . S
Co963 N977 2.140 . S
C964 O965 1.227 . S
C964 O974 1.265 . S
O965 C964 1.227 . S
N966 Co963 2.121 . S
N966 C968 1.375 . S
N966 C969 1.313 . S
C967 C968 1.338 . S
C967 N970 1.377 . S
C967 H987 0.930 . S
C968 N966 1.375 . S
C968 C967 1.338 . S
C968 H972 0.931 . S
C969 N966 1.313 . S
C969 N970 1.344 . S
C969 H973 0.930 . S
N970 C967 1.377 . S
N970 C969 1.344 . S
O971 Co963 2.055 . S
O971 C975 1.253 . S
H972 C968 0.931 . S
H973 C969 0.930 . S
O974 Co963 2.039 . S
O974 C964 1.265 . S
C975 O971 1.253 . S
C975 O976 1.227 . S
O976 C975 1.227 . S
N977 Co963 2.140 . S
N977 C980 1.346 . S
N977 C981 1.345 . S
C978 C979 1.387 . S
C978 C982 1.391 . S
C979 C978 1.387 . S
C979 C980 1.369 . S
C979 H988 0.929 . S
C980 N977 1.346 . S
C980 C979 1.369 . S
C980 H983 0.928 . S
C981 N977 1.345 . S
C981 C982 1.371 . S
C981 H984 0.931 . S
C982 C978 1.391 . S
C982 C981 1.371 . S
C982 H989 0.930 . S
H983 C980 0.928 . S
H984 C981 0.931 . S
H985 C961 0.930 . S
H986 C958 0.930 . S
H987 C967 0.930 . S
H988 C979 0.929 . S
H989 C982 0.930 . S
C990 C991 1.351 . S
C990 N993 1.368 . S
C990 H995 0.931 . S
C991 C990 1.351 . S
C991 N992 1.373 . S
C991 H1019 0.930 . S
N992 C991 1.373 . S
N992 C994 1.340 . S
N993 C990 1.368 . S
N993 C994 1.321 . S
N993 Co996 2.135 . S
C994 N992 1.340 . S
C994 N993 1.321 . S
C994 H1018 0.930 . S
H995 C990 0.931 . S
Co996 N993 2.135 . S
Co996 N999 2.121 . S
Co996 O1004 2.055 . S
Co996 O1007 2.039 . S
Co996 N1010 2.140 . S
C997 O998 1.227 . S
C997 O1007 1.265 . S
O998 C997 1.227 . S
N999 Co996 2.121 . S
N999 C1001 1.375 . S
N999 C1002 1.313 . S
C1000 C1001 1.338 . S
C1000 N1003 1.377 . S
C1000 H1020 0.930 . S
C1001 N999 1.375 . S
C1001 C1000 1.338 . S
C1001 H1005 0.931 . S
C1002 N999 1.313 . S
C1002 N1003 1.344 . S
C1002 H1006 0.930 . S
N1003 C1000 1.377 . S
N1003 C1002 1.344 . S
O1004 Co996 2.055 . S
O1004 C1008 1.253 . S
H1005 C1001 0.931 . S
H1006 C1002 0.930 . S
O1007 Co996 2.039 . S
O1007 C997 1.265 . S
C1008 O1004 1.253 . S
C1008 O1009 1.227 . S
O1009 C1008 1.227 . S
N1010 Co996 2.140 . S
N1010 C1013 1.346 . S
N1010 C1014 1.345 . S
C1011 C1012 1.387 . S
C1011 C1015 1.391 . S
C1012 C1011 1.387 . S
C1012 C1013 1.369 . S
C1012 H1021 0.929 . S
C1013 N1010 1.346 . S
C1013 C1012 1.369 . S
C1013 H1016 0.928 . S
C1014 N1010 1.345 . S
C1014 C1015 1.371 . S
C1014 H1017 0.931 . S
C1015 C1011 1.391 . S
C1015 C1014 1.371 . S
C1015 H1022 0.930 . S
H1016 C1013 0.928 . S
H1017 C1014 0.931 . S
H1018 C994 0.930 . S
H1019 C991 0.930 . S
H1020 C1000 0.930 . S
H1021 C1012 0.929 . S
H1022 C1015 0.930 . S
C1023 C1024 1.351 . S
C1023 N1026 1.368 . S
C1023 H1028 0.931 . S
C1024 C1023 1.351 . S
C1024 N1025 1.373 . S
C1024 H1052 0.930 . S
N1025 C1024 1.373 . S
N1025 C1027 1.340 . S
N1026 C1023 1.368 . S
N1026 C1027 1.321 . S
N1026 Co1029 2.135 . S
C1027 N1025 1.340 . S
C1027 N1026 1.321 . S
C1027 H1051 0.930 . S
H1028 C1023 0.931 . S
Co1029 N1026 2.135 . S
Co1029 N1032 2.121 . S
Co1029 O1037 2.055 . S
Co1029 O1040 2.039 . S
Co1029 N1043 2.140 . S
C1030 O1031 1.227 . S
C1030 O1040 1.265 . S
O1031 C1030 1.227 . S
N1032 Co1029 2.121 . S
N1032 C1034 1.375 . S
N1032 C1035 1.313 . S
C1033 C1034 1.338 . S
C1033 N1036 1.377 . S
C1033 H1053 0.930 . S
C1034 N1032 1.375 . S
C1034 C1033 1.338 . S
C1034 H1038 0.931 . S
C1035 N1032 1.313 . S
C1035 N1036 1.344 . S
C1035 H1039 0.930 . S
N1036 C1033 1.377 . S
N1036 C1035 1.344 . S
O1037 Co1029 2.055 . S
O1037 C1041 1.253 . S
H1038 C1034 0.931 . S
H1039 C1035 0.930 . S
O1040 Co1029 2.039 . S
O1040 C1030 1.265 . S
C1041 O1037 1.253 . S
C1041 O1042 1.227 . S
O1042 C1041 1.227 . S
N1043 Co1029 2.140 . S
N1043 C1046 1.346 . S
N1043 C1047 1.345 . S
C1044 C1045 1.387 . S
C1044 C1048 1.391 . S
C1045 C1044 1.387 . S
C1045 C1046 1.369 . S
C1045 H1054 0.929 . S
C1046 N1043 1.346 . S
C1046 C1045 1.369 . S
C1046 H1049 0.928 . S
C1047 N1043 1.345 . S
C1047 C1048 1.371 . S
C1047 H1050 0.931 . S
C1048 C1044 1.391 . S
C1048 C1047 1.371 . S
C1048 H1055 0.930 . S
H1049 C1046 0.928 . S
H1050 C1047 0.931 . S
H1051 C1027 0.930 . S
H1052 C1024 0.930 . S
H1053 C1033 0.930 . S
H1054 C1045 0.929 . S
H1055 C1048 0.930 . S
C1056 C1057 1.351 . S
C1056 N1059 1.368 . S
C1056 H1061 0.931 . S
C1057 C1056 1.351 . S
C1057 N1058 1.373 . S
C1057 H1085 0.930 . S
N1058 C1057 1.373 . S
N1058 C1060 1.340 . S
N1059 C1056 1.368 . S
N1059 C1060 1.321 . S
N1059 Co1062 2.135 . S
C1060 N1058 1.340 . S
C1060 N1059 1.321 . S
C1060 H1084 0.930 . S
H1061 C1056 0.931 . S
Co1062 N1059 2.135 . S
Co1062 N1065 2.121 . S
Co1062 O1070 2.055 . S
Co1062 O1073 2.039 . S
Co1062 N1076 2.140 . S
C1063 O1064 1.227 . S
C1063 O1073 1.265 . S
O1064 C1063 1.227 . S
N1065 Co1062 2.121 . S
N1065 C1067 1.375 . S
N1065 C1068 1.313 . S
C1066 C1067 1.338 . S
C1066 N1069 1.377 . S
C1066 H1086 0.930 . S
C1067 N1065 1.375 . S
C1067 C1066 1.338 . S
C1067 H1071 0.931 . S
C1068 N1065 1.313 . S
C1068 N1069 1.344 . S
C1068 H1072 0.930 . S
N1069 C1066 1.377 . S
N1069 C1068 1.344 . S
O1070 Co1062 2.055 . S
O1070 C1074 1.253 . S
H1071 C1067 0.931 . S
H1072 C1068 0.930 . S
O1073 Co1062 2.039 . S
O1073 C1063 1.265 . S
C1074 O1070 1.253 . S
C1074 O1075 1.227 . S
O1075 C1074 1.227 . S
N1076 Co1062 2.140 . S
N1076 C1079 1.346 . S
N1076 C1080 1.345 . S
C1077 C1078 1.387 . S
C1077 C1081 1.391 . S
C1078 C1077 1.387 . S
C1078 C1079 1.369 . S
C1078 H1087 0.929 . S
C1079 N1076 1.346 . S
C1079 C1078 1.369 . S
C1079 H1082 0.928 . S
C1080 N1076 1.345 . S
C1080 C1081 1.371 . S
C1080 H1083 0.931 . S
C1081 C1077 1.391 . S
C1081 C1080 1.371 . S
C1081 H1088 0.930 . S
H1082 C1079 0.928 . S
H1083 C1080 0.931 . S
H1084 C1060 0.930 . S
H1085 C1057 0.930 . S
H1086 C1066 0.930 . S
H1087 C1078 0.929 . S
H1088 C1081 0.930 . S
C1089 C1090 1.351 . S
C1089 N1092 1.368 . S
C1089 H1094 0.931 . S
C1090 C1089 1.351 . S
C1090 N1091 1.373 . S
C1090 H1118 0.930 . S
N1091 C1090 1.373 . S
N1091 C1093 1.340 . S
N1092 C1089 1.368 . S
N1092 C1093 1.321 . S
N1092 Co1095 2.135 . S
C1093 N1091 1.340 . S
C1093 N1092 1.321 . S
C1093 H1117 0.930 . S
H1094 C1089 0.931 . S
Co1095 N1092 2.135 . S
Co1095 N1098 2.121 . S
Co1095 O1103 2.055 . S
Co1095 O1106 2.039 . S
Co1095 N1109 2.140 . S
C1096 O1097 1.227 . S
C1096 O1106 1.265 . S
O1097 C1096 1.227 . S
N1098 Co1095 2.121 . S
N1098 C1100 1.375 . S
N1098 C1101 1.313 . S
C1099 C1100 1.338 . S
C1099 N1102 1.377 . S
C1099 H1119 0.930 . S
C1100 N1098 1.375 . S
C1100 C1099 1.338 . S
C1100 H1104 0.931 . S
C1101 N1098 1.313 . S
C1101 N1102 1.344 . S
C1101 H1105 0.932 . S
N1102 C1099 1.377 . S
N1102 C1101 1.344 . S
O1103 Co1095 2.055 . S
O1103 C1107 1.253 . S
H1104 C1100 0.931 . S
H1105 C1101 0.932 . S
O1106 Co1095 2.039 . S
O1106 C1096 1.265 . S
C1107 O1103 1.253 . S
C1107 O1108 1.227 . S
O1108 C1107 1.227 . S
N1109 Co1095 2.140 . S
N1109 C1112 1.346 . S
N1109 C1113 1.345 . S
C1110 C1111 1.387 . S
C1110 C1114 1.391 . S
C1111 C1110 1.387 . S
C1111 C1112 1.369 . S
C1111 H1120 0.929 . S
C1112 N1109 1.346 . S
C1112 C1111 1.369 . S
C1112 H1115 0.928 . S
C1113 N1109 1.345 . S
C1113 C1114 1.371 . S
C1113 H1116 0.931 . S
C1114 C1110 1.391 . S
C1114 C1113 1.371 . S
C1114 H1121 0.930 1_455 S
H1115 C1112 0.928 . S
H1116 C1113 0.931 . S
H1117 C1093 0.930 . S
H1118 C1090 0.930 . S
H1119 C1099 0.930 . S
H1120 C1111 0.929 . S
H1121 C1114 0.930 1_655 S
C1122 C1123 1.351 . S
C1122 N1125 1.368 . S
C1122 H1127 0.931 . S
C1123 C1122 1.351 . S
C1123 N1124 1.373 . S
C1123 H1151 0.930 . S
N1124 C1123 1.373 . S
N1124 C1126 1.340 . S
N1125 C1122 1.368 . S
N1125 C1126 1.321 . S
N1125 Co1128 2.135 . S
C1126 N1124 1.340 . S
C1126 N1125 1.321 . S
C1126 H1150 0.930 . S
H1127 C1122 0.931 . S
Co1128 N1125 2.135 . S
Co1128 N1131 2.121 . S
Co1128 O1136 2.055 . S
Co1128 O1139 2.039 . S
Co1128 N1142 2.140 . S
C1129 O1130 1.227 . S
C1129 O1139 1.265 . S
O1130 C1129 1.227 . S
N1131 Co1128 2.121 . S
N1131 C1133 1.375 . S
N1131 C1134 1.313 . S
C1132 C1133 1.338 . S
C1132 N1135 1.377 . S
C1132 H1152 0.930 . S
C1133 N1131 1.375 . S
C1133 C1132 1.338 . S
C1133 H1137 0.931 . S
C1134 N1131 1.313 . S
C1134 N1135 1.344 . S
C1134 H1138 0.930 . S
N1135 C1132 1.377 . S
N1135 C1134 1.344 . S
O1136 Co1128 2.055 . S
O1136 C1140 1.253 . S
H1137 C1133 0.931 . S
H1138 C1134 0.930 . S
O1139 Co1128 2.039 . S
O1139 C1129 1.265 . S
C1140 O1136 1.253 . S
C1140 O1141 1.227 . S
O1141 C1140 1.227 . S
N1142 Co1128 2.140 . S
N1142 C1145 1.346 . S
N1142 C1146 1.345 . S
C1143 C1144 1.387 . S
C1143 C1147 1.391 . S
C1144 C1143 1.387 . S
C1144 C1145 1.369 . S
C1144 H1153 0.929 . S
C1145 N1142 1.346 . S
C1145 C1144 1.369 . S
C1145 H1148 0.928 . S
C1146 N1142 1.345 . S
C1146 C1147 1.371 . S
C1146 H1149 0.931 . S
C1147 C1143 1.391 . S
C1147 C1146 1.371 . S
C1147 H1154 0.930 . S
H1148 C1145 0.928 . S
H1149 C1146 0.931 . S
H1150 C1126 0.930 . S
H1151 C1123 0.930 . S
H1152 C1132 0.930 . S
H1153 C1144 0.929 . S
H1154 C1147 0.930 . S
C1155 C1156 1.351 . S
C1155 N1158 1.368 . S
C1155 H1160 0.931 . S
C1156 C1155 1.351 . S
C1156 N1157 1.373 . S
C1156 H1184 0.930 . S
N1157 C1156 1.373 . S
N1157 C1159 1.340 . S
N1158 C1155 1.368 . S
N1158 C1159 1.321 . S
N1158 Co1161 2.135 . S
C1159 N1157 1.340 . S
C1159 N1158 1.321 . S
C1159 H1183 0.930 . S
H1160 C1155 0.931 . S
Co1161 N1158 2.135 . S
Co1161 N1164 2.121 . S
Co1161 O1169 2.055 . S
Co1161 O1172 2.039 . S
Co1161 N1175 2.140 . S
C1162 O1163 1.227 . S
C1162 O1172 1.265 . S
O1163 C1162 1.227 . S
N1164 Co1161 2.121 . S
N1164 C1166 1.375 . S
N1164 C1167 1.313 . S
C1165 C1166 1.338 . S
C1165 N1168 1.377 . S
C1165 H1185 0.930 . S
C1166 N1164 1.375 . S
C1166 C1165 1.338 . S
C1166 H1170 0.931 . S
C1167 N1164 1.313 . S
C1167 N1168 1.344 . S
C1167 H1171 0.938 . S
N1168 C1165 1.377 . S
N1168 C1167 1.344 . S
O1169 Co1161 2.055 . S
O1169 C1173 1.253 . S
H1170 C1166 0.931 . S
H1171 C1167 0.938 . S
O1172 Co1161 2.039 . S
O1172 C1162 1.265 . S
C1173 O1169 1.253 . S
C1173 O1174 1.227 . S
O1174 C1173 1.227 . S
N1175 Co1161 2.140 . S
N1175 C1178 1.346 . S
N1175 C1179 1.345 . S
C1176 C1177 1.387 . S
C1176 C1180 1.391 . S
C1177 C1176 1.387 . S
C1177 C1178 1.369 . S
C1177 H1186 0.929 . S
C1178 N1175 1.346 . S
C1178 C1177 1.369 . S
C1178 H1181 0.928 . S
C1179 N1175 1.345 . S
C1179 C1180 1.371 . S
C1179 H1182 0.931 . S
C1180 C1176 1.391 . S
C1180 C1179 1.371 . S
C1180 H1187 0.930 1_565 S
H1181 C1178 0.928 . S
H1182 C1179 0.931 . S
H1183 C1159 0.930 . S
H1184 C1156 0.930 . S
H1185 C1165 0.930 . S
H1186 C1177 0.929 . S
H1187 C1180 0.930 1_545 S
C1188 C1189 1.391 . S
C1188 C1190 1.394 . S
C1188 H1204 0.931 . S
C1189 C1188 1.391 . S
C1189 C1193 1.376 . S
C1190 C1188 1.394 . S
C1190 C1191 1.369 . S
C1190 C1194 1.531 . S
C1191 C1190 1.369 . S
C1191 C1192 1.410 . S
C1191 C1199 1.503 . S
C1192 C1191 1.410 . S
C1192 C1193 1.392 . S
C1192 C1195 1.511 . S
C1193 C1189 1.376 . S
C1193 C1192 1.392 . S
C1193 H1205 0.929 . S
C1194 C1190 1.531 . S
C1194 H1206 0.960 . S
C1194 H1207 0.962 . S
C1194 H1208 0.960 . S
C1195 C1192 1.511 . S
C1195 H1209 0.961 . S
C1195 H1210 0.961 . S
C1195 H1211 0.961 . S
C1196 C1197 1.370 . S
C1196 C1198 1.363 . S
C1196 H1212 0.931 . S
C1197 C1196 1.370 . S
C1197 C1201 1.408 1_545 S
C1198 C1196 1.363 . S
C1198 C1199 1.370 . S
C1198 C1202 1.524 . S
C1199 C1191 1.503 . S
C1199 C1198 1.370 . S
C1199 C1200 1.403 . S
C1200 C1199 1.403 . S
C1200 C1201 1.404 1_545 S
C1200 C1203 1.539 . S
C1201 C1197 1.408 1_565 S
C1201 C1200 1.404 1_565 S
C1201 H1213 0.930 . S
C1202 C1198 1.524 . S
C1202 H1214 0.956 . S
C1202 H1215 0.961 . S
C1202 H1216 0.961 . S
C1203 C1200 1.539 . S
C1203 H1217 0.958 . S
C1203 H1218 0.961 1_545 S
C1203 H1219 0.960 . S
H1204 C1188 0.931 . S
H1205 C1193 0.929 . S
H1206 C1194 0.960 . S
H1207 C1194 0.962 . S
H1208 C1194 0.960 . S
H1209 C1195 0.961 . S
H1210 C1195 0.961 . S
H1211 C1195 0.961 . S
H1212 C1196 0.931 . S
H1213 C1201 0.930 . S
H1214 C1202 0.956 . S
H1215 C1202 0.961 . S
H1216 C1202 0.961 . S
H1217 C1203 0.958 . S
H1218 C1203 0.961 1_565 S
H1219 C1203 0.960 . S
C1220 C1221 1.391 . S
C1220 C1222 1.394 . S
C1220 H1236 0.935 . S
C1221 C1220 1.391 . S
C1221 C1225 1.376 . S
C1222 C1220 1.394 . S
C1222 C1223 1.369 . S
C1222 C1226 1.531 . S
C1223 C1222 1.369 . S
C1223 C1224 1.410 . S
C1223 C1231 1.503 . S
C1224 C1223 1.410 . S
C1224 C1225 1.392 . S
C1224 C1227 1.511 . S
C1225 C1221 1.376 . S
C1225 C1224 1.392 . S
C1225 H1237 0.929 . S
C1226 C1222 1.531 . S
C1226 H1238 0.960 . S
C1226 H1239 0.962 . S
C1226 H1240 0.960 . S
C1227 C1224 1.511 . S
C1227 H1241 0.961 . S
C1227 H1242 0.961 . S
C1227 H1243 0.961 . S
C1228 C1229 1.370 . S
C1228 C1230 1.363 1_565 S
C1228 H1244 0.931 . S
C1229 C1228 1.370 . S
C1229 C1233 1.408 . S
C1230 C1228 1.363 1_545 S
C1230 C1231 1.370 . S
C1230 C1234 1.524 . S
C1231 C1223 1.503 . S
C1231 C1230 1.370 . S
C1231 C1232 1.403 . S
C1232 C1231 1.403 . S
C1232 C1233 1.404 1_545 S
C1232 C1235 1.539 . S
C1233 C1229 1.408 . S
C1233 C1232 1.404 1_565 S
C1233 H1245 0.930 . S
C1234 C1230 1.524 . S
C1234 H1246 0.956 . S
C1234 H1247 0.961 . S
C1234 H1248 0.961 . S
C1235 C1232 1.539 . S
C1235 H1249 0.958 . S
C1235 H1250 0.961 . S
C1235 H1251 0.960 . S
H1236 C1220 0.935 . S
H1237 C1225 0.929 . S
H1238 C1226 0.960 . S
H1239 C1226 0.962 . S
H1240 C1226 0.960 . S
H1241 C1227 0.961 . S
H1242 C1227 0.961 . S
H1243 C1227 0.961 . S
H1244 C1228 0.931 . S
H1245 C1233 0.930 . S
H1246 C1234 0.956 . S
H1247 C1234 0.961 . S
H1248 C1234 0.961 . S
H1249 C1235 0.958 . S
H1250 C1235 0.961 . S
H1251 C1235 0.960 . S
C1252 C1253 1.391 . S
C1252 C1254 1.394 . S
C1252 H1268 0.931 . S
C1253 C1252 1.391 . S
C1253 C1257 1.376 . S
C1254 C1252 1.394 . S
C1254 C1255 1.369 . S
C1254 C1258 1.531 . S
C1255 C1254 1.369 . S
C1255 C1256 1.410 . S
C1255 C1263 1.503 . S
C1256 C1255 1.410 . S
C1256 C1257 1.392 . S
C1256 C1259 1.511 . S
C1257 C1253 1.376 . S
C1257 C1256 1.392 . S
C1257 H1269 0.929 . S
C1258 C1254 1.531 . S
C1258 H1270 0.960 . S
C1258 H1271 0.962 . S
C1258 H1272 0.960 . S
C1259 C1256 1.511 . S
C1259 H1273 0.961 . S
C1259 H1274 0.961 . S
C1259 H1275 0.961 . S
C1260 C1261 1.370 1_655 S
C1260 C1262 1.363 . S
C1260 H1276 0.931 . S
C1261 C1260 1.370 1_455 S
C1261 C1265 1.408 . S
C1262 C1260 1.363 . S
C1262 C1263 1.370 . S
C1262 C1266 1.524 . S
C1263 C1255 1.503 . S
C1263 C1262 1.370 . S
C1263 C1264 1.403 . S
C1264 C1263 1.403 . S
C1264 C1265 1.404 1_655 S
C1264 C1267 1.539 . S
C1265 C1261 1.408 . S
C1265 C1264 1.404 1_455 S
C1265 H1277 0.930 . S
C1266 C1262 1.524 . S
C1266 H1278 0.956 . S
C1266 H1279 0.961 . S
C1266 H1280 0.961 . S
C1267 C1264 1.539 . S
C1267 H1281 0.958 . S
C1267 H1282 0.961 1_655 S
C1267 H1283 0.960 . S
H1268 C1252 0.931 . S
H1269 C1257 0.929 . S
H1270 C1258 0.960 . S
H1271 C1258 0.962 . S
H1272 C1258 0.960 . S
H1273 C1259 0.961 . S
H1274 C1259 0.961 . S
H1275 C1259 0.961 . S
H1276 C1260 0.931 . S
H1277 C1265 0.930 . S
H1278 C1266 0.956 . S
H1279 C1266 0.961 . S
H1280 C1266 0.961 . S
H1281 C1267 0.958 . S
H1282 C1267 0.961 1_455 S
H1283 C1267 0.960 . S
C1284 C1285 1.391 . S
C1284 C1286 1.394 . S
C1284 H1300 0.931 1_455 S
C1285 C1284 1.391 . S
C1285 C1289 1.376 . S
C1286 C1284 1.394 . S
C1286 C1287 1.369 . S
C1286 C1290 1.531 . S
C1287 C1286 1.369 . S
C1287 C1288 1.410 . S
C1287 C1295 1.503 . S
C1288 C1287 1.410 . S
C1288 C1289 1.392 . S
C1288 C1291 1.511 . S
C1289 C1285 1.376 . S
C1289 C1288 1.392 . S
C1289 H1301 0.929 . S
C1290 C1286 1.531 . S
C1290 H1302 0.960 . S
C1290 H1303 0.962 . S
C1290 H1304 0.960 1_455 S
C1291 C1288 1.511 . S
C1291 H1305 0.961 . S
C1291 H1306 0.961 . S
C1291 H1307 0.961 . S
C1292 C1293 1.370 . S
C1292 C1294 1.363 . S
C1292 H1308 0.931 . S
C1293 C1292 1.370 . S
C1293 C1297 1.408 . S
C1294 C1292 1.363 . S
C1294 C1295 1.370 . S
C1294 C1298 1.524 . S
C1295 C1287 1.503 . S
C1295 C1294 1.370 . S
C1295 C1296 1.403 . S
C1296 C1295 1.403 . S
C1296 C1297 1.404 . S
C1296 C1299 1.539 . S
C1297 C1293 1.408 . S
C1297 C1296 1.404 . S
C1297 H1309 0.930 . S
C1298 C1294 1.524 . S
C1298 H1310 0.956 . S
C1298 H1311 0.961 . S
C1298 H1312 0.961 . S
C1299 C1296 1.539 . S
C1299 H1313 0.958 . S
C1299 H1314 0.961 . S
C1299 H1315 0.960 . S
H1300 C1284 0.931 1_655 S
H1301 C1289 0.929 . S
H1302 C1290 0.960 . S
H1303 C1290 0.962 . S
H1304 C1290 0.960 1_655 S
H1305 C1291 0.961 . S
H1306 C1291 0.961 . S
H1307 C1291 0.961 . S
H1308 C1292 0.931 . S
H1309 C1297 0.930 . S
H1310 C1298 0.956 . S
H1311 C1298 0.961 . S
H1312 C1298 0.961 . S
H1313 C1299 0.958 . S
H1314 C1299 0.961 . S
H1315 C1299 0.960 . S
C1316 C1317 1.391 . S
C1316 C1318 1.394 . S
C1316 H1332 0.931 . S
C1317 C1316 1.391 . S
C1317 C1321 1.376 . S
C1318 C1316 1.394 . S
C1318 C1319 1.369 . S
C1318 C1322 1.531 . S
C1319 C1318 1.369 . S
C1319 C1320 1.410 . S
C1319 C1327 1.503 . S
C1320 C1319 1.410 . S
C1320 C1321 1.392 . S
C1320 C1323 1.511 . S
C1321 C1317 1.376 . S
C1321 C1320 1.392 . S
C1321 H1333 0.929 . S
C1322 C1318 1.531 . S
C1322 H1334 0.960 . S
C1322 H1335 0.962 . S
C1322 H1336 0.960 . S
C1323 C1320 1.511 . S
C1323 H1337 0.961 . S
C1323 H1338 0.961 . S
C1323 H1339 0.961 . S
C1324 C1325 1.370 . S
C1324 C1326 1.363 1_545 S
C1324 H1340 0.931 . S
C1325 C1324 1.370 . S
C1325 C1329 1.408 . S
C1326 C1324 1.363 1_565 S
C1326 C1327 1.370 . S
C1326 C1330 1.524 . S
C1327 C1319 1.503 . S
C1327 C1326 1.370 . S
C1327 C1328 1.403 . S
C1328 C1327 1.403 . S
C1328 C1329 1.404 1_565 S
C1328 C1331 1.539 . S
C1329 C1325 1.408 . S
C1329 C1328 1.404 1_545 S
C1329 H1341 0.930 . S
C1330 C1326 1.524 . S
C1330 H1342 0.956 . S
C1330 H1343 0.961 . S
C1330 H1344 0.961 . S
C1331 C1328 1.539 . S
C1331 H1345 0.958 . S
C1331 H1346 0.961 . S
C1331 H1347 0.960 . S
H1332 C1316 0.931 . S
H1333 C1321 0.929 . S
H1334 C1322 0.960 . S
H1335 C1322 0.962 . S
H1336 C1322 0.960 . S
H1337 C1323 0.961 . S
H1338 C1323 0.961 . S
H1339 C1323 0.961 . S
H1340 C1324 0.931 . S
H1341 C1329 0.930 . S
H1342 C1330 0.956 . S
H1343 C1330 0.961 . S
H1344 C1330 0.961 . S
H1345 C1331 0.958 . S
H1346 C1331 0.961 . S
H1347 C1331 0.960 . S
C1348 C1349 1.391 . S
C1348 C1350 1.394 . S
C1348 H1364 0.931 . S
C1349 C1348 1.391 . S
C1349 C1353 1.376 . S
C1350 C1348 1.394 . S
C1350 C1351 1.369 . S
C1350 C1354 1.531 . S
C1351 C1350 1.369 . S
C1351 C1352 1.410 . S
C1351 C1359 1.503 . S
C1352 C1351 1.410 . S
C1352 C1353 1.392 . S
C1352 C1355 1.511 . S
C1353 C1349 1.376 . S
C1353 C1352 1.392 . S
C1353 H1365 0.929 . S
C1354 C1350 1.531 . S
C1354 H1366 0.960 . S
C1354 H1367 0.962 . S
C1354 H1368 0.960 . S
C1355 C1352 1.511 . S
C1355 H1369 0.961 . S
C1355 H1370 0.961 . S
C1355 H1371 0.961 . S
C1356 C1357 1.370 . S
C1356 C1358 1.363 1_655 S
C1356 H1372 0.931 . S
C1357 C1356 1.370 . S
C1357 C1361 1.408 . S
C1358 C1356 1.363 1_455 S
C1358 C1359 1.370 . S
C1358 C1362 1.524 . S
C1359 C1351 1.503 . S
C1359 C1358 1.370 . S
C1359 C1360 1.403 . S
C1360 C1359 1.403 . S
C1360 C1361 1.404 1_455 S
C1360 C1363 1.539 . S
C1361 C1357 1.408 . S
C1361 C1360 1.404 1_655 S
C1361 H1373 0.930 . S
C1362 C1358 1.524 . S
C1362 H1374 0.956 . S
C1362 H1375 0.961 . S
C1362 H1376 0.961 . S
C1363 C1360 1.539 . S
C1363 H1377 0.958 . S
C1363 H1378 0.961 . S
C1363 H1379 0.960 . S
H1364 C1348 0.931 . S
H1365 C1353 0.929 . S
H1366 C1354 0.960 . S
H1367 C1354 0.962 . S
H1368 C1354 0.960 . S
H1369 C1355 0.961 . S
H1370 C1355 0.961 . S
H1371 C1355 0.961 . S
H1372 C1356 0.931 . S
H1373 C1361 0.930 . S
H1374 C1362 0.956 . S
H1375 C1362 0.961 . S
H1376 C1362 0.961 . S
H1377 C1363 0.958 . S
H1378 C1363 0.961 . S
H1379 C1363 0.960 . S
C1380 C1381 1.391 . S
C1380 C1382 1.394 . S
C1380 H1396 0.931 1_565 S
C1381 C1380 1.391 . S
C1381 C1385 1.376 . S
C1382 C1380 1.394 . S
C1382 C1383 1.369 . S
C1382 C1386 1.531 . S
C1383 C1382 1.369 . S
C1383 C1384 1.410 . S
C1383 C1391 1.503 . S
C1384 C1383 1.410 . S
C1384 C1385 1.392 . S
C1384 C1387 1.511 . S
C1385 C1381 1.376 . S
C1385 C1384 1.392 . S
C1385 H1397 0.929 . S
C1386 C1382 1.531 . S
C1386 H1398 0.960 . S
C1386 H1399 0.962 . S
C1386 H1400 0.960 . S
C1387 C1384 1.511 . S
C1387 H1401 0.961 . S
C1387 H1402 0.961 . S
C1387 H1403 0.961 . S
C1388 C1389 1.370 . S
C1388 C1390 1.363 . S
C1388 H1404 0.931 . S
C1389 C1388 1.370 . S
C1389 C1393 1.408 . S
C1390 C1388 1.363 . S
C1390 C1391 1.370 . S
C1390 C1394 1.524 . S
C1391 C1383 1.503 . S
C1391 C1390 1.370 . S
C1391 C1392 1.403 . S
C1392 C1391 1.403 . S
C1392 C1393 1.404 . S
C1392 C1395 1.539 . S
C1393 C1389 1.408 . S
C1393 C1392 1.404 . S
C1393 H1405 0.930 . S
C1394 C1390 1.524 . S
C1394 H1406 0.956 . S
C1394 H1407 0.961 . S
C1394 H1408 0.961 . S
C1395 C1392 1.539 . S
C1395 H1409 0.958 . S
C1395 H1410 0.961 . S
C1395 H1411 0.960 . S
H1396 C1380 0.931 1_545 S
H1397 C1385 0.929 . S
H1398 C1386 0.960 . S
H1399 C1386 0.962 . S
H1400 C1386 0.960 . S
H1401 C1387 0.961 . S
H1402 C1387 0.961 . S
H1403 C1387 0.961 . S
H1404 C1388 0.931 . S
H1405 C1393 0.930 . S
H1406 C1394 0.956 . S
H1407 C1394 0.961 . S
H1408 C1394 0.961 . S
H1409 C1395 0.958 . S
H1410 C1395 0.961 . S
H1411 C1395 0.960 . S
C1412 C1413 1.391 . S
C1412 C1414 1.394 1_545 S
C1412 H1428 0.931 . S
C1413 C1412 1.391 . S
C1413 C1417 1.376 . S
C1414 C1412 1.394 1_565 S
C1414 C1415 1.369 . S
C1414 C1418 1.531 . S
C1415 C1414 1.369 . S
C1415 C1416 1.410 . S
C1415 C1423 1.503 . S
C1416 C1415 1.410 . S
C1416 C1417 1.392 1_565 S
C1416 C1419 1.511 . S
C1417 C1413 1.376 . S
C1417 C1416 1.392 1_545 S
C1417 H1429 0.929 . S
C1418 C1414 1.531 . S
C1418 H1430 0.960 . S
C1418 H1431 0.962 . S
C1418 H1432 0.960 . S
C1419 C1416 1.511 . S
C1419 H1433 0.961 . S
C1419 H1434 0.961 . S
C1419 H1435 0.961 . S
C1420 C1421 1.370 . S
C1420 C1422 1.363 . S
C1420 H1436 0.931 . S
C1421 C1420 1.370 . S
C1421 C1425 1.431 . S
C1422 C1420 1.363 . S
C1422 C1423 1.370 . S
C1422 C1426 1.524 . S
C1423 C1415 1.503 . S
C1423 C1422 1.370 . S
C1423 C1424 1.403 . S
C1424 C1423 1.403 . S
C1424 C1425 1.411 . S
C1424 C1427 1.539 . S
C1425 C1421 1.431 . S
C1425 C1424 1.411 . S
C1425 H1437 0.901 1_455 S
C1426 C1422 1.524 . S
C1426 H1438 0.956 . S
C1426 H1439 0.961 . S
C1426 H1440 0.961 . S
C1427 C1424 1.539 . S
C1427 H1441 0.958 . S
C1427 H1442 0.961 1_455 S
C1427 H1443 0.960 . S
H1428 C1412 0.931 . S
H1429 C1417 0.929 . S
H1430 C1418 0.960 . S
H1431 C1418 0.962 . S
H1432 C1418 0.960 . S
H1433 C1419 0.961 . S
H1434 C1419 0.961 . S
H1435 C1419 0.961 . S
H1436 C1420 0.931 . S
H1437 C1425 0.901 1_655 S
H1438 C1426 0.956 . S
H1439 C1426 0.961 . S
H1440 C1426 0.961 . S
H1441 C1427 0.958 . S
H1442 C1427 0.961 1_655 S
H1443 C1427 0.960 . S
C1444 C1445 1.391 . S
C1444 C1446 1.394 . S
C1444 H1460 0.931 . S
C1445 C1444 1.391 . S
C1445 C1449 1.376 . S
C1446 C1444 1.394 . S
C1446 C1447 1.369 . S
C1446 C1450 1.531 . S
C1447 C1446 1.369 . S
C1447 C1448 1.410 . S
C1447 C1455 1.503 . S
C1448 C1447 1.410 . S
C1448 C1449 1.392 . S
C1448 C1451 1.511 . S
C1449 C1445 1.376 . S
C1449 C1448 1.392 . S
C1449 H1461 0.929 . S
C1450 C1446 1.531 . S
C1450 H1462 0.960 . S
C1450 H1463 0.962 . S
C1450 H1464 0.960 . S
C1451 C1448 1.511 . S
C1451 H1465 0.961 . S
C1451 H1466 0.961 . S
C1451 H1467 0.961 . S
C1452 C1453 1.370 1_455 S
C1452 C1454 1.363 . S
C1452 H1468 0.931 . S
C1453 C1452 1.370 1_655 S
C1453 C1457 1.408 . S
C1454 C1452 1.363 . S
C1454 C1455 1.370 . S
C1454 C1458 1.524 . S
C1455 C1447 1.503 . S
C1455 C1454 1.370 . S
C1455 C1456 1.403 . S
C1456 C1455 1.403 . S
C1456 C1457 1.404 1_455 S
C1456 C1459 1.539 . S
C1457 C1453 1.408 . S
C1457 C1456 1.404 1_655 S
C1457 H1469 0.930 . S
C1458 C1454 1.524 . S
C1458 H1470 0.956 . S
C1458 H1471 0.961 . S
C1458 H1472 0.961 . S
C1459 C1456 1.539 . S
C1459 H1473 0.958 . S
C1459 H1474 0.961 1_455 S
C1459 H1475 0.960 . S
H1460 C1444 0.931 . S
H1461 C1449 0.929 . S
H1462 C1450 0.960 . S
H1463 C1450 0.962 . S
H1464 C1450 0.960 . S
H1465 C1451 0.961 . S
H1466 C1451 0.961 . S
H1467 C1451 0.961 . S
H1468 C1452 0.931 . S
H1469 C1457 0.930 . S
H1470 C1458 0.956 . S
H1471 C1458 0.961 . S
H1472 C1458 0.961 . S
H1473 C1459 0.958 . S
H1474 C1459 0.961 1_655 S
H1475 C1459 0.960 . S
C1476 C1477 1.391 . S
C1476 C1478 1.394 . S
C1476 H1492 0.931 1_655 S
C1477 C1476 1.391 . S
C1477 C1481 1.376 . S
C1478 C1476 1.394 . S
C1478 C1479 1.369 . S
C1478 C1482 1.531 . S
C1479 C1478 1.369 . S
C1479 C1480 1.410 . S
C1479 C1487 1.503 . S
C1480 C1479 1.410 . S
C1480 C1481 1.392 . S
C1480 C1483 1.511 . S
C1481 C1477 1.376 . S
C1481 C1480 1.392 . S
C1481 H1493 0.929 . S
C1482 C1478 1.531 . S
C1482 H1494 0.960 . S
C1482 H1495 0.962 . S
C1482 H1496 0.960 1_655 S
C1483 C1480 1.511 . S
C1483 H1497 0.961 . S
C1483 H1498 0.961 . S
C1483 H1499 0.961 . S
C1484 C1485 1.370 . S
C1484 C1486 1.363 . S
C1484 H1500 0.931 . S
C1485 C1484 1.370 . S
C1485 C1489 1.408 . S
C1486 C1484 1.363 . S
C1486 C1487 1.370 . S
C1486 C1490 1.524 . S
C1487 C1479 1.503 . S
C1487 C1486 1.370 . S
C1487 C1488 1.403 . S
C1488 C1487 1.403 . S
C1488 C1489 1.404 . S
C1488 C1491 1.539 . S
C1489 C1485 1.408 . S
C1489 C1488 1.404 . S
C1489 H1501 0.930 . S
C1490 C1486 1.524 . S
C1490 H1502 0.956 . S
C1490 H1503 0.961 . S
C1490 H1504 0.961 . S
C1491 C1488 1.539 . S
C1491 H1505 0.958 . S
C1491 H1506 0.961 . S
C1491 H1507 0.960 . S
H1492 C1476 0.931 1_455 S
H1493 C1481 0.929 . S
H1494 C1482 0.960 . S
H1495 C1482 0.962 . S
H1496 C1482 0.960 1_455 S
H1497 C1483 0.961 . S
H1498 C1483 0.961 . S
H1499 C1483 0.961 . S
H1500 C1484 0.931 . S
H1501 C1489 0.930 . S
H1502 C1490 0.956 . S
H1503 C1490 0.961 . S
H1504 C1490 0.961 . S
H1505 C1491 0.958 . S
H1506 C1491 0.961 . S
H1507 C1491 0.960 . S
C1508 C1509 1.391 . S
C1508 C1510 1.394 1_565 S
C1508 H1524 0.931 . S
C1509 C1508 1.391 . S
C1509 C1513 1.376 . S
C1510 C1508 1.394 1_545 S
C1510 C1511 1.369 . S
C1510 C1514 1.531 . S
C1511 C1510 1.369 . S
C1511 C1512 1.410 . S
C1511 C1519 1.503 . S
C1512 C1511 1.410 . S
C1512 C1513 1.392 1_545 S
C1512 C1515 1.511 . S
C1513 C1509 1.376 . S
C1513 C1512 1.392 1_565 S
C1513 H1525 0.929 . S
C1514 C1510 1.531 . S
C1514 H1526 0.960 . S
C1514 H1527 0.962 . S
C1514 H1528 0.960 . S
C1515 C1512 1.511 . S
C1515 H1529 0.961 . S
C1515 H1530 0.961 . S
C1515 H1531 0.961 . S
C1516 C1517 1.370 . S
C1516 C1518 1.363 . S
C1516 H1532 0.931 . S
C1517 C1516 1.370 . S
C1517 C1521 1.408 . S
C1518 C1516 1.363 . S
C1518 C1519 1.370 . S
C1518 C1522 1.524 . S
C1519 C1511 1.503 . S
C1519 C1518 1.370 . S
C1519 C1520 1.403 . S
C1520 C1519 1.403 . S
C1520 C1521 1.404 . S
C1520 C1523 1.539 . S
C1521 C1517 1.408 . S
C1521 C1520 1.404 . S
C1521 H1533 0.930 . S
C1522 C1518 1.524 . S
C1522 H1534 0.956 . S
C1522 H1535 0.961 . S
C1522 H1536 0.961 . S
C1523 C1520 1.539 . S
C1523 H1537 0.958 . S
C1523 H1538 0.961 . S
C1523 H1539 0.960 . S
H1524 C1508 0.931 . S
H1525 C1513 0.929 . S
H1526 C1514 0.960 . S
H1527 C1514 0.962 . S
H1528 C1514 0.960 . S
H1529 C1515 0.961 . S
H1530 C1515 0.961 . S
H1531 C1515 0.961 . S
H1532 C1516 0.931 . S
H1533 C1521 0.930 . S
H1534 C1522 0.956 . S
H1535 C1522 0.961 . S
H1536 C1522 0.961 . S
H1537 C1523 0.958 . S
H1538 C1523 0.961 . S
H1539 C1523 0.960 . S
C1540 C1541 1.391 . S
C1540 C1542 1.394 . S
C1540 H1556 0.931 . S
C1541 C1540 1.391 . S
C1541 C1545 1.376 . S
C1542 C1540 1.394 . S
C1542 C1543 1.369 . S
C1542 C1546 1.531 . S
C1543 C1542 1.369 . S
C1543 C1544 1.410 . S
C1543 C1551 1.503 . S
C1544 C1543 1.410 . S
C1544 C1545 1.392 . S
C1544 C1547 1.511 . S
C1545 C1541 1.376 . S
C1545 C1544 1.392 . S
C1545 H1557 0.929 1_545 S
C1546 C1542 1.531 . S
C1546 H1558 0.960 . S
C1546 H1559 0.962 . S
C1546 H1560 0.960 . S
C1547 C1544 1.511 . S
C1547 H1561 0.961 . S
C1547 H1562 0.961 . S
C1547 H1563 0.961 . S
C1548 C1549 1.370 . S
C1548 C1550 1.363 1_455 S
C1548 H1564 0.931 . S
C1549 C1548 1.370 . S
C1549 C1553 1.408 . S
C1550 C1548 1.363 1_655 S
C1550 C1551 1.370 . S
C1550 C1554 1.524 . S
C1551 C1543 1.503 . S
C1551 C1550 1.370 . S
C1551 C1552 1.403 . S
C1552 C1551 1.403 . S
C1552 C1553 1.404 1_655 S
C1552 C1555 1.539 . S
C1553 C1549 1.408 . S
C1553 C1552 1.404 1_455 S
C1553 H1565 0.930 . S
C1554 C1550 1.524 . S
C1554 H1566 0.956 . S
C1554 H1567 0.961 . S
C1554 H1568 0.961 . S
C1555 C1552 1.539 . S
C1555 H1569 0.958 . S
C1555 H1570 0.961 . S
C1555 H1571 0.960 . S
H1556 C1540 0.931 . S
H1557 C1545 0.929 1_565 S
H1558 C1546 0.960 . S
H1559 C1546 0.962 . S
H1560 C1546 0.960 . S
H1561 C1547 0.961 . S
H1562 C1547 0.961 . S
H1563 C1547 0.961 . S
H1564 C1548 0.931 . S
H1565 C1553 0.930 . S
H1566 C1554 0.956 . S
H1567 C1554 0.961 . S
H1568 C1554 0.961 . S
H1569 C1555 0.958 . S
H1570 C1555 0.961 . S
H1571 C1555 0.960 . S
C1572 C1573 1.391 . S
C1572 C1574 1.394 . S
C1572 H1588 0.931 . S
C1573 C1572 1.391 . S
C1573 C1577 1.376 . S
C1574 C1572 1.394 . S
C1574 C1575 1.369 . S
C1574 C1578 1.531 . S
C1575 C1574 1.369 . S
C1575 C1576 1.410 . S
C1575 C1583 1.503 . S
C1576 C1575 1.410 . S
C1576 C1577 1.392 . S
C1576 C1579 1.511 . S
C1577 C1573 1.376 . S
C1577 C1576 1.392 . S
C1577 H1589 0.929 . S
C1578 C1574 1.531 . S
C1578 H1590 0.960 . S
C1578 H1591 0.962 . S
C1578 H1592 0.960 . S
C1579 C1576 1.511 . S
C1579 H1593 0.961 . S
C1579 H1594 0.961 . S
C1579 H1595 0.961 . S
C1580 C1581 1.370 . S
C1580 C1582 1.363 . S
C1580 H1596 0.931 . S
C1581 C1580 1.370 . S
C1581 C1585 1.408 . S
C1582 C1580 1.363 . S
C1582 C1583 1.370 . S
C1582 C1586 1.524 . S
C1583 C1575 1.503 . S
C1583 C1582 1.370 . S
C1583 C1584 1.403 . S
C1584 C1583 1.403 . S
C1584 C1585 1.404 . S
C1584 C1587 1.539 . S
C1585 C1581 1.408 . S
C1585 C1584 1.404 . S
C1585 H1597 0.930 . S
C1586 C1582 1.524 . S
C1586 H1598 0.956 . S
C1586 H1599 0.961 . S
C1586 H1600 0.961 . S
C1587 C1584 1.539 . S
C1587 H1601 0.958 . S
C1587 H1602 0.961 . S
C1587 H1603 0.960 . S
H1588 C1572 0.931 . S
H1589 C1577 0.929 . S
H1590 C1578 0.960 . S
H1591 C1578 0.962 . S
H1592 C1578 0.960 . S
H1593 C1579 0.961 . S
H1594 C1579 0.961 . S
H1595 C1579 0.961 . S
H1596 C1580 0.931 . S
H1597 C1585 0.930 . S
H1598 C1586 0.956 . S
H1599 C1586 0.961 . S
H1600 C1586 0.961 . S
H1601 C1587 0.958 . S
H1602 C1587 0.961 . S
H1603 C1587 0.960 . S
C1604 C1605 1.391 . S
C1604 C1606 1.394 . S
C1604 H1620 0.931 . S
C1605 C1604 1.391 . S
C1605 C1609 1.376 . S
C1606 C1604 1.394 . S
C1606 C1607 1.369 . S
C1606 C1610 1.531 . S
C1607 C1606 1.369 . S
C1607 C1608 1.410 . S
C1607 C1615 1.503 . S
C1608 C1607 1.410 . S
C1608 C1609 1.392 . S
C1608 C1611 1.511 . S
C1609 C1605 1.376 . S
C1609 C1608 1.392 . S
C1609 H1621 0.929 . S
C1610 C1606 1.531 . S
C1610 H1622 0.960 . S
C1610 H1623 0.962 . S
C1610 H1624 0.960 . S
C1611 C1608 1.511 . S
C1611 H1625 0.961 . S
C1611 H1626 0.961 . S
C1611 H1627 0.961 . S
C1612 C1613 1.370 . S
C1612 C1614 1.363 . S
C1612 H1628 0.931 . S
C1613 C1612 1.370 . S
C1613 C1617 1.408 . S
C1614 C1612 1.363 . S
C1614 C1615 1.370 . S
C1614 C1618 1.524 . S
C1615 C1607 1.503 . S
C1615 C1614 1.370 . S
C1615 C1616 1.403 . S
C1616 C1615 1.403 . S
C1616 C1617 1.404 . S
C1616 C1619 1.539 . S
C1617 C1613 1.408 . S
C1617 C1616 1.404 . S
C1617 H1629 0.930 . S
C1618 C1614 1.524 . S
C1618 H1630 0.956 . S
C1618 H1631 0.961 . S
C1618 H1632 0.961 . S
C1619 C1616 1.539 . S
C1619 H1633 0.958 . S
C1619 H1634 0.961 . S
C1619 H1635 0.960 . S
H1620 C1604 0.931 . S
H1621 C1609 0.929 . S
H1622 C1610 0.960 . S
H1623 C1610 0.962 . S
H1624 C1610 0.960 . S
H1625 C1611 0.961 . S
H1626 C1611 0.961 . S
H1627 C1611 0.961 . S
H1628 C1612 0.931 . S
H1629 C1617 0.930 . S
H1630 C1618 0.956 . S
H1631 C1618 0.961 . S
H1632 C1618 0.961 . S
H1633 C1619 0.958 . S
H1634 C1619 0.961 . S
H1635 C1619 0.960 . S
C1636 C1637 1.391 . S
C1636 C1638 1.394 . S
C1636 H1652 0.931 . S
C1637 C1636 1.391 . S
C1637 C1641 1.376 . S
C1638 C1636 1.394 . S
C1638 C1639 1.369 . S
C1638 C1642 1.531 . S
C1639 C1638 1.369 . S
C1639 C1640 1.410 . S
C1639 C1647 1.503 . S
C1640 C1639 1.410 . S
C1640 C1641 1.392 . S
C1640 C1643 1.511 . S
C1641 C1637 1.376 . S
C1641 C1640 1.392 . S
C1641 H1653 0.929 . S
C1642 C1638 1.531 . S
C1642 H1654 0.960 . S
C1642 H1655 0.962 . S
C1642 H1656 0.960 . S
C1643 C1640 1.511 . S
C1643 H1657 0.961 . S
C1643 H1658 0.961 . S
C1643 H1659 0.961 . S
C1644 C1645 1.370 . S
C1644 C1646 1.363 . S
C1644 H1660 0.931 . S
C1645 C1644 1.370 . S
C1645 C1649 1.408 . S
C1646 C1644 1.363 . S
C1646 C1647 1.370 . S
C1646 C1650 1.524 . S
C1647 C1639 1.503 . S
C1647 C1646 1.370 . S
C1647 C1648 1.403 . S
C1648 C1647 1.403 . S
C1648 C1649 1.404 . S
C1648 C1651 1.539 . S
C1649 C1645 1.408 . S
C1649 C1648 1.404 . S
C1649 H1661 0.930 . S
C1650 C1646 1.524 . S
C1650 H1662 0.956 . S
C1650 H1663 0.961 . S
C1650 H1664 0.961 . S
C1651 C1648 1.539 . S
C1651 H1665 0.958 . S
C1651 H1666 0.961 . S
C1651 H1667 0.960 . S
H1652 C1636 0.931 . S
H1653 C1641 0.929 . S
H1654 C1642 0.960 . S
H1655 C1642 0.962 . S
H1656 C1642 0.960 . S
H1657 C1643 0.961 . S
H1658 C1643 0.961 . S
H1659 C1643 0.961 . S
H1660 C1644 0.931 . S
H1661 C1649 0.930 . S
H1662 C1650 0.956 . S
H1663 C1650 0.961 . S
H1664 C1650 0.961 . S
H1665 C1651 0.958 . S
H1666 C1651 0.961 . S
H1667 C1651 0.960 . S
C1668 C1669 1.391 . S
C1668 C1670 1.394 . S
C1668 H1684 0.931 . S
C1669 C1668 1.391 . S
C1669 C1673 1.376 . S
C1670 C1668 1.394 . S
C1670 C1671 1.369 . S
C1670 C1674 1.531 . S
C1671 C1670 1.369 . S
C1671 C1672 1.410 . S
C1671 C1679 1.503 . S
C1672 C1671 1.410 . S
C1672 C1673 1.392 . S
C1672 C1675 1.511 . S
C1673 C1669 1.376 . S
C1673 C1672 1.392 . S
C1673 H1685 0.929 . S
C1674 C1670 1.531 . S
C1674 H1686 0.960 . S
C1674 H1687 0.962 . S
C1674 H1688 0.960 . S
C1675 C1672 1.511 . S
C1675 H1689 0.961 . S
C1675 H1690 0.961 . S
C1675 H1691 0.961 . S
C1676 C1677 1.370 . S
C1676 C1678 1.363 . S
C1676 H1692 0.931 . S
C1677 C1676 1.370 . S
C1677 C1681 1.408 . S
C1678 C1676 1.363 . S
C1678 C1679 1.370 . S
C1678 C1682 1.524 . S
C1679 C1671 1.503 . S
C1679 C1678 1.370 . S
C1679 C1680 1.403 . S
C1680 C1679 1.403 . S
C1680 C1681 1.404 . S
C1680 C1683 1.539 . S
C1681 C1677 1.408 . S
C1681 C1680 1.404 . S
C1681 H1693 0.930 . S
C1682 C1678 1.524 . S
C1682 H1694 0.956 . S
C1682 H1695 0.961 . S
C1682 H1696 0.961 . S
C1683 C1680 1.539 . S
C1683 H1697 0.958 . S
C1683 H1698 0.961 . S
C1683 H1699 0.960 . S
H1684 C1668 0.931 . S
H1685 C1673 0.929 . S
H1686 C1674 0.960 . S
H1687 C1674 0.962 . S
H1688 C1674 0.960 . S
H1689 C1675 0.961 . S
H1690 C1675 0.961 . S
H1691 C1675 0.961 . S
H1692 C1676 0.931 . S
H1693 C1681 0.930 . S
H1694 C1682 0.956 . S
H1695 C1682 0.961 . S
H1696 C1682 0.961 . S
H1697 C1683 0.958 . S
H1698 C1683 0.961 . S
H1699 C1683 0.960 . S
C1700 C1701 1.391 . S
C1700 C1702 1.394 . S
C1700 H1716 0.931 . S
C1701 C1700 1.391 . S
C1701 C1705 1.376 . S
C1702 C1700 1.394 . S
C1702 C1703 1.369 . S
C1702 C1706 1.531 . S
C1703 C1702 1.369 . S
C1703 C1704 1.410 . S
C1703 C1711 1.503 . S
C1704 C1703 1.410 . S
C1704 C1705 1.392 . S
C1704 C1707 1.511 . S
C1705 C1701 1.376 . S
C1705 C1704 1.392 . S
C1705 H1717 0.929 . S
C1706 C1702 1.531 . S
C1706 H1718 0.960 . S
C1706 H1719 0.962 . S
C1706 H1720 0.960 . S
C1707 C1704 1.511 . S
C1707 H1721 0.961 . S
C1707 H1722 0.961 . S
C1707 H1723 0.961 . S
C1708 C1709 1.370 . S
C1708 C1710 1.363 . S
C1708 H1724 0.931 . S
C1709 C1708 1.370 . S
C1709 C1713 1.408 . S
C1710 C1708 1.363 . S
C1710 C1711 1.370 . S
C1710 C1714 1.524 . S
C1711 C1703 1.503 . S
C1711 C1710 1.370 . S
C1711 C1712 1.403 . S
C1712 C1711 1.403 . S
C1712 C1713 1.404 . S
C1712 C1715 1.539 . S
C1713 C1709 1.408 . S
C1713 C1712 1.404 . S
C1713 H1725 0.930 . S
C1714 C1710 1.524 . S
C1714 H1726 0.956 . S
C1714 H1727 0.961 . S
C1714 H1728 0.961 . S
C1715 C1712 1.539 . S
C1715 H1729 0.958 . S
C1715 H1730 0.961 . S
C1715 H1731 0.960 . S
H1716 C1700 0.931 . S
H1717 C1705 0.929 . S
H1718 C1706 0.960 . S
H1719 C1706 0.962 . S
H1720 C1706 0.960 . S
H1721 C1707 0.961 . S
H1722 C1707 0.961 . S
H1723 C1707 0.961 . S
H1724 C1708 0.931 . S
H1725 C1713 0.930 . S
H1726 C1714 0.956 . S
H1727 C1714 0.961 . S
H1728 C1714 0.961 . S
H1729 C1715 0.958 . S
H1730 C1715 0.961 . S
H1731 C1715 0.960 . S
C1732 C1733 1.391 . S
C1732 C1734 1.394 . S
C1732 H1748 0.931 . S
C1733 C1732 1.391 . S
C1733 C1737 1.376 . S
C1734 C1732 1.394 . S
C1734 C1735 1.369 . S
C1734 C1738 1.531 . S
C1735 C1734 1.369 . S
C1735 C1736 1.410 . S
C1735 C1743 1.503 . S
C1736 C1735 1.410 . S
C1736 C1737 1.392 . S
C1736 C1739 1.511 . S
C1737 C1733 1.376 . S
C1737 C1736 1.392 . S
C1737 H1749 0.929 . S
C1738 C1734 1.531 . S
C1738 H1750 0.960 . S
C1738 H1751 0.962 . S
C1738 H1752 0.960 . S
C1739 C1736 1.511 . S
C1739 H1753 0.961 . S
C1739 H1754 0.961 . S
C1739 H1755 0.961 . S
C1740 C1741 1.370 . S
C1740 C1742 1.363 . S
C1740 H1756 0.931 . S
C1741 C1740 1.370 . S
C1741 C1745 1.408 . S
C1742 C1740 1.363 . S
C1742 C1743 1.370 . S
C1742 C1746 1.524 . S
C1743 C1735 1.503 . S
C1743 C1742 1.370 . S
C1743 C1744 1.403 . S
C1744 C1743 1.403 . S
C1744 C1745 1.404 . S
C1744 C1747 1.539 . S
C1745 C1741 1.408 . S
C1745 C1744 1.404 . S
C1745 H1757 0.930 . S
C1746 C1742 1.524 . S
C1746 H1758 0.956 . S
C1746 H1759 0.961 . S
C1746 H1760 0.961 . S
C1747 C1744 1.539 . S
C1747 H1761 0.958 . S
C1747 H1762 0.961 . S
C1747 H1763 0.960 . S
H1748 C1732 0.931 . S
H1749 C1737 0.929 . S
H1750 C1738 0.960 . S
H1751 C1738 0.962 . S
H1752 C1738 0.960 . S
H1753 C1739 0.961 . S
H1754 C1739 0.961 . S
H1755 C1739 0.961 . S
H1756 C1740 0.931 . S
H1757 C1745 0.930 . S
H1758 C1746 0.956 . S
H1759 C1746 0.961 . S
H1760 C1746 0.961 . S
H1761 C1747 0.958 . S
H1762 C1747 0.961 . S
H1763 C1747 0.960 . S
C1764 C1765 1.391 . S
C1764 C1766 1.394 . S
C1764 H1780 0.931 . S
C1765 C1764 1.391 . S
C1765 C1769 1.376 . S
C1766 C1764 1.394 . S
C1766 C1767 1.369 . S
C1766 C1770 1.531 . S
C1767 C1766 1.369 . S
C1767 C1768 1.410 . S
C1767 C1775 1.503 . S
C1768 C1767 1.410 . S
C1768 C1769 1.392 . S
C1768 C1771 1.511 . S
C1769 C1765 1.376 . S
C1769 C1768 1.392 . S
C1769 H1781 0.929 . S
C1770 C1766 1.531 . S
C1770 H1782 0.960 . S
C1770 H1783 0.962 . S
C1770 H1784 0.960 . S
C1771 C1768 1.511 . S
C1771 H1785 0.961 . S
C1771 H1786 0.961 . S
C1771 H1787 0.961 . S
C1772 C1773 1.370 . S
C1772 C1774 1.363 . S
C1772 H1788 0.931 . S
C1773 C1772 1.370 . S
C1773 C1777 1.408 . S
C1774 C1772 1.363 . S
C1774 C1775 1.370 . S
C1774 C1778 1.524 . S
C1775 C1767 1.503 . S
C1775 C1774 1.370 . S
C1775 C1776 1.403 . S
C1776 C1775 1.403 . S
C1776 C1777 1.404 . S
C1776 C1779 1.539 . S
C1777 C1773 1.408 . S
C1777 C1776 1.404 . S
C1777 H1789 0.930 . S
C1778 C1774 1.524 . S
C1778 H1790 0.956 . S
C1778 H1791 0.961 . S
C1778 H1792 0.961 . S
C1779 C1776 1.539 . S
C1779 H1793 0.958 . S
C1779 H1794 0.961 . S
C1779 H1795 0.960 . S
H1780 C1764 0.931 . S
H1781 C1769 0.929 . S
H1782 C1770 0.960 . S
H1783 C1770 0.962 . S
H1784 C1770 0.960 . S
H1785 C1771 0.961 . S
H1786 C1771 0.961 . S
H1787 C1771 0.961 . S
H1788 C1772 0.931 . S
H1789 C1777 0.930 . S
H1790 C1778 0.956 . S
H1791 C1778 0.961 . S
H1792 C1778 0.961 . S
H1793 C1779 0.958 . S
H1794 C1779 0.961 . S
H1795 C1779 0.960 . S
C1796 C1797 1.391 . S
C1796 C1798 1.394 . S
C1796 H1812 0.931 . S
C1797 C1796 1.391 . S
C1797 C1801 1.376 . S
C1798 C1796 1.394 . S
C1798 C1799 1.369 . S
C1798 C1802 1.531 . S
C1799 C1798 1.369 . S
C1799 C1800 1.410 . S
C1799 C1807 1.503 . S
C1800 C1799 1.410 . S
C1800 C1801 1.392 . S
C1800 C1803 1.511 . S
C1801 C1797 1.376 . S
C1801 C1800 1.392 . S
C1801 H1813 0.929 . S
C1802 C1798 1.531 . S
C1802 H1814 0.960 . S
C1802 H1815 0.962 . S
C1802 H1816 0.960 . S
C1803 C1800 1.511 . S
C1803 H1817 0.961 . S
C1803 H1818 0.961 . S
C1803 H1819 0.961 . S
C1804 C1805 1.370 . S
C1804 C1806 1.363 . S
C1804 H1820 0.931 . S
C1805 C1804 1.370 . S
C1805 C1809 1.408 . S
C1806 C1804 1.363 . S
C1806 C1807 1.370 . S
C1806 C1810 1.524 . S
C1807 C1799 1.503 . S
C1807 C1806 1.370 . S
C1807 C1808 1.403 . S
C1808 C1807 1.403 . S
C1808 C1809 1.404 . S
C1808 C1811 1.539 . S
C1809 C1805 1.408 . S
C1809 C1808 1.404 . S
C1809 H1821 0.930 . S
C1810 C1806 1.524 . S
C1810 H1822 0.956 . S
C1810 H1823 0.961 . S
C1810 H1824 0.961 . S
C1811 C1808 1.539 . S
C1811 H1825 0.958 . S
C1811 H1826 0.961 . S
C1811 H1827 0.960 . S
H1812 C1796 0.931 . S
H1813 C1801 0.929 . S
H1814 C1802 0.960 . S
H1815 C1802 0.962 . S
H1816 C1802 0.960 . S
H1817 C1803 0.961 . S
H1818 C1803 0.961 . S
H1819 C1803 0.961 . S
H1820 C1804 0.931 . S
H1821 C1809 0.930 . S
H1822 C1810 0.956 . S
H1823 C1810 0.961 . S
H1824 C1810 0.961 . S
H1825 C1811 0.958 . S
H1826 C1811 0.961 . S
H1827 C1811 0.960 . S
C1828 C1829 1.391 . S
C1828 C1830 1.394 . S
C1828 H1844 0.931 . S
C1829 C1828 1.391 . S
C1829 C1833 1.376 . S
C1830 C1828 1.394 . S
C1830 C1831 1.369 . S
C1830 C1834 1.531 . S
C1831 C1830 1.369 . S
C1831 C1832 1.410 . S
C1831 C1839 1.503 . S
C1832 C1831 1.410 . S
C1832 C1833 1.392 . S
C1832 C1835 1.511 . S
C1833 C1829 1.376 . S
C1833 C1832 1.392 . S
C1833 H1845 0.929 . S
C1834 C1830 1.531 . S
C1834 H1846 0.960 . S
C1834 H1847 0.962 . S
C1834 H1848 0.960 . S
C1835 C1832 1.511 . S
C1835 H1849 0.961 . S
C1835 H1850 0.961 . S
C1835 H1851 0.961 . S
C1836 C1837 1.370 . S
C1836 C1838 1.363 . S
C1836 H1852 0.931 . S
C1837 C1836 1.370 . S
C1837 C1841 1.408 . S
C1838 C1836 1.363 . S
C1838 C1839 1.370 . S
C1838 C1842 1.524 . S
C1839 C1831 1.503 . S
C1839 C1838 1.370 . S
C1839 C1840 1.403 . S
C1840 C1839 1.403 . S
C1840 C1841 1.404 . S
C1840 C1843 1.539 . S
C1841 C1837 1.408 . S
C1841 C1840 1.404 . S
C1841 H1853 0.930 . S
C1842 C1838 1.524 . S
C1842 H1854 0.956 . S
C1842 H1855 0.961 . S
C1842 H1856 0.961 . S
C1843 C1840 1.539 . S
C1843 H1857 0.958 . S
C1843 H1858 0.961 . S
C1843 H1859 0.960 . S
H1844 C1828 0.931 . S
H1845 C1833 0.929 . S
H1846 C1834 0.960 . S
H1847 C1834 0.962 . S
H1848 C1834 0.960 . S
H1849 C1835 0.961 . S
H1850 C1835 0.961 . S
H1851 C1835 0.961 . S
H1852 C1836 0.931 . S
H1853 C1841 0.930 . S
H1854 C1842 0.956 . S
H1855 C1842 0.961 . S
H1856 C1842 0.961 . S
H1857 C1843 0.958 . S
H1858 C1843 0.961 . S
H1859 C1843 0.960 . S
C1860 C1861 1.391 . S
C1860 C1862 1.394 . S
C1860 H1876 0.931 . S
C1861 C1860 1.391 . S
C1861 C1865 1.376 . S
C1862 C1860 1.394 . S
C1862 C1863 1.369 . S
C1862 C1866 1.531 . S
C1863 C1862 1.369 . S
C1863 C1864 1.410 . S
C1863 C1871 1.503 . S
C1864 C1863 1.410 . S
C1864 C1865 1.392 . S
C1864 C1867 1.511 . S
C1865 C1861 1.376 . S
C1865 C1864 1.392 . S
C1865 H1877 0.929 . S
C1866 C1862 1.531 . S
C1866 H1878 0.960 . S
C1866 H1879 0.962 . S
C1866 H1880 0.960 . S
C1867 C1864 1.511 . S
C1867 H1881 0.961 . S
C1867 H1882 0.961 . S
C1867 H1883 0.961 . S
C1868 C1869 1.370 . S
C1868 C1870 1.363 . S
C1868 H1884 0.931 . S
C1869 C1868 1.370 . S
C1869 C1873 1.408 . S
C1870 C1868 1.363 . S
C1870 C1871 1.370 . S
C1870 C1874 1.524 . S
C1871 C1863 1.503 . S
C1871 C1870 1.370 . S
C1871 C1872 1.403 . S
C1872 C1871 1.403 . S
C1872 C1873 1.404 . S
C1872 C1875 1.539 . S
C1873 C1869 1.408 . S
C1873 C1872 1.404 . S
C1873 H1885 0.930 . S
C1874 C1870 1.524 . S
C1874 H1886 0.956 . S
C1874 H1887 0.961 . S
C1874 H1888 0.961 . S
C1875 C1872 1.539 . S
C1875 H1889 0.958 . S
C1875 H1890 0.961 . S
C1875 H1891 0.960 . S
H1876 C1860 0.931 . S
H1877 C1865 0.929 . S
H1878 C1866 0.960 . S
H1879 C1866 0.962 . S
H1880 C1866 0.960 . S
H1881 C1867 0.961 . S
H1882 C1867 0.961 . S
H1883 C1867 0.961 . S
H1884 C1868 0.931 . S
H1885 C1873 0.930 . S
H1886 C1874 0.956 . S
H1887 C1874 0.961 . S
H1888 C1874 0.961 . S
H1889 C1875 0.958 . S
H1890 C1875 0.961 . S
H1891 C1875 0.960 . S
C1892 C1893 1.391 . S
C1892 C1894 1.394 . S
C1892 H1908 0.931 . S
C1893 C1892 1.391 . S
C1893 C1897 1.376 . S
C1894 C1892 1.394 . S
C1894 C1895 1.369 . S
C1894 C1898 1.531 . S
C1895 C1894 1.369 . S
C1895 C1896 1.410 . S
C1895 C1903 1.503 . S
C1896 C1895 1.410 . S
C1896 C1897 1.392 . S
C1896 C1899 1.511 . S
C1897 C1893 1.376 . S
C1897 C1896 1.392 . S
C1897 H1909 0.929 . S
C1898 C1894 1.531 . S
C1898 H1910 0.960 . S
C1898 H1911 0.962 . S
C1898 H1912 0.960 . S
C1899 C1896 1.511 . S
C1899 H1913 0.961 . S
C1899 H1914 0.961 . S
C1899 H1915 0.961 . S
C1900 C1901 1.370 . S
C1900 C1902 1.363 . S
C1900 H1916 0.931 . S
C1901 C1900 1.370 . S
C1901 C1905 1.408 . S
C1902 C1900 1.363 . S
C1902 C1903 1.370 . S
C1902 C1906 1.524 . S
C1903 C1895 1.503 . S
C1903 C1902 1.370 . S
C1903 C1904 1.403 . S
C1904 C1903 1.403 . S
C1904 C1905 1.404 . S
C1904 C1907 1.539 . S
C1905 C1901 1.408 . S
C1905 C1904 1.404 . S
C1905 H1917 0.930 . S
C1906 C1902 1.524 . S
C1906 H1918 0.956 . S
C1906 H1919 0.961 . S
C1906 H1920 0.961 . S
C1907 C1904 1.539 . S
C1907 H1921 0.958 . S
C1907 H1922 0.961 . S
C1907 H1923 0.960 . S
H1908 C1892 0.931 . S
H1909 C1897 0.929 . S
H1910 C1898 0.960 . S
H1911 C1898 0.962 . S
H1912 C1898 0.960 . S
H1913 C1899 0.961 . S
H1914 C1899 0.961 . S
H1915 C1899 0.961 . S
H1916 C1900 0.931 . S
H1917 C1905 0.930 . S
H1918 C1906 0.956 . S
H1919 C1906 0.961 . S
H1920 C1906 0.961 . S
H1921 C1907 0.958 . S
H1922 C1907 0.961 . S
H1923 C1907 0.960 . S
C1924 C1925 1.391 . S
C1924 C1926 1.394 . S
C1924 H1940 0.931 . S
C1925 C1924 1.391 . S
C1925 C1929 1.376 . S
C1926 C1924 1.394 . S
C1926 C1927 1.369 . S
C1926 C1930 1.531 . S
C1927 C1926 1.369 . S
C1927 C1928 1.410 . S
C1927 C1935 1.503 . S
C1928 C1927 1.410 . S
C1928 C1929 1.392 . S
C1928 C1931 1.511 . S
C1929 C1925 1.376 . S
C1929 C1928 1.392 . S
C1929 H1941 0.929 . S
C1930 C1926 1.531 . S
C1930 H1942 0.960 . S
C1930 H1943 0.962 . S
C1930 H1944 0.960 . S
C1931 C1928 1.511 . S
C1931 H1945 0.961 . S
C1931 H1946 0.961 . S
C1931 H1947 0.961 . S
C1932 C1933 1.370 . S
C1932 C1934 1.363 . S
C1932 H1948 0.931 . S
C1933 C1932 1.370 . S
C1933 C1937 1.408 . S
C1934 C1932 1.363 . S
C1934 C1935 1.370 . S
C1934 C1938 1.524 . S
C1935 C1927 1.503 . S
C1935 C1934 1.370 . S
C1935 C1936 1.403 . S
C1936 C1935 1.403 . S
C1936 C1937 1.404 . S
C1936 C1939 1.539 . S
C1937 C1933 1.408 . S
C1937 C1936 1.404 . S
C1937 H1949 0.930 . S
C1938 C1934 1.524 . S
C1938 H1950 0.956 . S
C1938 H1951 0.961 . S
C1938 H1952 0.961 . S
C1939 C1936 1.539 . S
C1939 H1953 0.958 . S
C1939 H1954 0.961 . S
C1939 H1955 0.960 . S
H1940 C1924 0.931 . S
H1941 C1929 0.929 . S
H1942 C1930 0.960 . S
H1943 C1930 0.962 . S
H1944 C1930 0.960 . S
H1945 C1931 0.961 . S
H1946 C1931 0.961 . S
H1947 C1931 0.961 . S
H1948 C1932 0.931 . S
H1949 C1937 0.930 . S
H1950 C1938 0.956 . S
H1951 C1938 0.961 . S
H1952 C1938 0.961 . S
H1953 C1939 0.958 . S
H1954 C1939 0.961 . S
H1955 C1939 0.960 . S
C1956 C1957 1.391 . S
C1956 C1958 1.394 . S
C1956 H1972 0.931 . S
C1957 C1956 1.391 . S
C1957 C1961 1.376 . S
C1958 C1956 1.394 . S
C1958 C1959 1.369 . S
C1958 C1962 1.531 . S
C1959 C1958 1.369 . S
C1959 C1960 1.410 . S
C1959 C1967 1.503 . S
C1960 C1959 1.410 . S
C1960 C1961 1.392 . S
C1960 C1963 1.511 . S
C1961 C1957 1.376 . S
C1961 C1960 1.392 . S
C1961 H1973 0.929 . S
C1962 C1958 1.531 . S
C1962 H1974 0.960 . S
C1962 H1975 0.962 . S
C1962 H1976 0.960 . S
C1963 C1960 1.511 . S
C1963 H1977 0.961 . S
C1963 H1978 0.961 . S
C1963 H1979 0.961 . S
C1964 C1965 1.370 . S
C1964 C1966 1.363 . S
C1964 H1980 0.931 . S
C1965 C1964 1.370 . S
C1965 C1969 1.408 . S
C1966 C1964 1.363 . S
C1966 C1967 1.370 . S
C1966 C1970 1.524 . S
C1967 C1959 1.503 . S
C1967 C1966 1.370 . S
C1967 C1968 1.403 . S
C1968 C1967 1.403 . S
C1968 C1969 1.404 . S
C1968 C1971 1.539 . S
C1969 C1965 1.408 . S
C1969 C1968 1.404 . S
C1969 H1981 0.930 . S
C1970 C1966 1.524 . S
C1970 H1982 0.956 . S
C1970 H1983 0.961 . S
C1970 H1984 0.961 . S
C1971 C1968 1.539 . S
C1971 H1985 0.958 . S
C1971 H1986 0.961 . S
C1971 H1987 0.960 . S
H1972 C1956 0.931 . S
H1973 C1961 0.929 . S
H1974 C1962 0.960 . S
H1975 C1962 0.962 . S
H1976 C1962 0.960 . S
H1977 C1963 0.961 . S
H1978 C1963 0.961 . S
H1979 C1963 0.961 . S
H1980 C1964 0.931 . S
H1981 C1969 0.930 . S
H1982 C1970 0.956 . S
H1983 C1970 0.961 . S
H1984 C1970 0.961 . S
H1985 C1971 0.958 . S
H1986 C1971 0.961 . S
H1987 C1971 0.960 . S
C1988 C1989 1.391 . S
C1988 C1990 1.394 . S
C1988 H2004 0.931 . S
C1989 C1988 1.391 . S
C1989 C1993 1.376 . S
C1990 C1988 1.394 . S
C1990 C1991 1.369 . S
C1990 C1994 1.531 . S
C1991 C1990 1.369 . S
C1991 C1992 1.410 . S
C1991 C1999 1.503 . S
C1992 C1991 1.410 . S
C1992 C1993 1.392 . S
C1992 C1995 1.511 . S
C1993 C1989 1.376 . S
C1993 C1992 1.392 . S
C1993 H2005 0.929 . S
C1994 C1990 1.531 . S
C1994 H2006 0.960 . S
C1994 H2007 0.962 . S
C1994 H2008 0.960 . S
C1995 C1992 1.511 . S
C1995 H2009 0.961 . S
C1995 H2010 0.961 . S
C1995 H2011 0.961 . S
C1996 C1997 1.370 . S
C1996 C1998 1.363 . S
C1996 H2012 0.931 . S
C1997 C1996 1.370 . S
C1997 C2001 1.408 . S
C1998 C1996 1.363 . S
C1998 C1999 1.370 . S
C1998 C2002 1.524 . S
C1999 C1991 1.503 . S
C1999 C1998 1.370 . S
C1999 C2000 1.403 . S
C2000 C1999 1.403 . S
C2000 C2001 1.404 . S
C2000 C2003 1.539 . S
C2001 C1997 1.408 . S
C2001 C2000 1.404 . S
C2001 H2013 0.930 . S
C2002 C1998 1.524 . S
C2002 H2014 0.956 . S
C2002 H2015 0.961 . S
C2002 H2016 0.961 . S
C2003 C2000 1.539 . S
C2003 H2017 0.958 . S
C2003 H2018 0.961 . S
C2003 H2019 0.960 . S
H2004 C1988 0.931 . S
H2005 C1993 0.929 . S
H2006 C1994 0.960 . S
H2007 C1994 0.962 . S
H2008 C1994 0.960 . S
H2009 C1995 0.961 . S
H2010 C1995 0.961 . S
H2011 C1995 0.961 . S
H2012 C1996 0.931 . S
H2013 C2001 0.930 . S
H2014 C2002 0.956 . S
H2015 C2002 0.961 . S
H2016 C2002 0.961 . S
H2017 C2003 0.958 . S
H2018 C2003 0.961 . S
H2019 C2003 0.960 . S
C2020 C2021 1.391 . S
C2020 C2022 1.394 . S
C2020 H2036 0.931 . S
C2021 C2020 1.391 . S
C2021 C2025 1.376 . S
C2022 C2020 1.394 . S
C2022 C2023 1.369 . S
C2022 C2026 1.531 . S
C2023 C2022 1.369 . S
C2023 C2024 1.410 . S
C2023 C2031 1.503 . S
C2024 C2023 1.410 . S
C2024 C2025 1.392 . S
C2024 C2027 1.511 . S
C2025 C2021 1.376 . S
C2025 C2024 1.392 . S
C2025 H2037 0.929 . S
C2026 C2022 1.531 . S
C2026 H2038 0.960 . S
C2026 H2039 0.962 . S
C2026 H2040 0.960 . S
C2027 C2024 1.511 . S
C2027 H2041 0.961 . S
C2027 H2042 0.961 . S
C2027 H2043 0.961 . S
C2028 C2029 1.370 . S
C2028 C2030 1.363 . S
C2028 H2044 0.931 . S
C2029 C2028 1.370 . S
C2029 C2033 1.408 . S
C2030 C2028 1.363 . S
C2030 C2031 1.370 . S
C2030 C2034 1.524 . S
C2031 C2023 1.503 . S
C2031 C2030 1.370 . S
C2031 C2032 1.403 . S
C2032 C2031 1.403 . S
C2032 C2033 1.404 . S
C2032 C2035 1.539 . S
C2033 C2029 1.408 . S
C2033 C2032 1.404 . S
C2033 H2045 0.930 . S
C2034 C2030 1.524 . S
C2034 H2046 0.956 . S
C2034 H2047 0.961 . S
C2034 H2048 0.961 . S
C2035 C2032 1.539 . S
C2035 H2049 0.958 . S
C2035 H2050 0.961 . S
C2035 H2051 0.960 . S
H2036 C2020 0.931 . S
H2037 C2025 0.929 . S
H2038 C2026 0.960 . S
H2039 C2026 0.962 . S
H2040 C2026 0.960 . S
H2041 C2027 0.961 . S
H2042 C2027 0.961 . S
H2043 C2027 0.961 . S
H2044 C2028 0.931 . S
H2045 C2033 0.930 . S
H2046 C2034 0.956 . S
H2047 C2034 0.961 . S
H2048 C2034 0.961 . S
H2049 C2035 0.958 . S
H2050 C2035 0.961 . S
H2051 C2035 0.960 . S
C2052 C2053 1.391 . S
C2052 C2054 1.394 . S
C2052 H2068 0.931 . S
C2053 C2052 1.391 . S
C2053 C2057 1.376 . S
C2054 C2052 1.394 . S
C2054 C2055 1.369 . S
C2054 C2058 1.531 . S
C2055 C2054 1.369 . S
C2055 C2056 1.410 . S
C2055 C2063 1.503 . S
C2056 C2055 1.410 . S
C2056 C2057 1.392 . S
C2056 C2059 1.511 . S
C2057 C2053 1.376 . S
C2057 C2056 1.392 . S
C2057 H2069 0.929 . S
C2058 C2054 1.531 . S
C2058 H2070 0.960 . S
C2058 H2071 0.962 . S
C2058 H2072 0.960 . S
C2059 C2056 1.511 . S
C2059 H2073 0.961 . S
C2059 H2074 0.961 . S
C2059 H2075 0.961 . S
C2060 C2061 1.370 . S
C2060 C2062 1.363 . S
C2060 H2076 0.931 . S
C2061 C2060 1.370 . S
C2061 C2065 1.408 . S
C2062 C2060 1.363 . S
C2062 C2063 1.370 . S
C2062 C2066 1.524 . S
C2063 C2055 1.503 . S
C2063 C2062 1.370 . S
C2063 C2064 1.403 . S
C2064 C2063 1.403 . S
C2064 C2065 1.404 . S
C2064 C2067 1.539 . S
C2065 C2061 1.408 . S
C2065 C2064 1.404 . S
C2065 H2077 0.930 . S
C2066 C2062 1.524 . S
C2066 H2078 0.956 . S
C2066 H2079 0.961 . S
C2066 H2080 0.961 . S
C2067 C2064 1.539 . S
C2067 H2081 0.958 . S
C2067 H2082 0.961 . S
C2067 H2083 0.960 . S
H2068 C2052 0.931 . S
H2069 C2057 0.929 . S
H2070 C2058 0.960 . S
H2071 C2058 0.962 . S
H2072 C2058 0.960 . S
H2073 C2059 0.961 . S
H2074 C2059 0.961 . S
H2075 C2059 0.961 . S
H2076 C2060 0.931 . S
H2077 C2065 0.930 . S
H2078 C2066 0.956 . S
H2079 C2066 0.961 . S
H2080 C2066 0.961 . S
H2081 C2067 0.958 . S
H2082 C2067 0.961 . S
H2083 C2067 0.960 . S
C2084 C2085 1.391 . S
C2084 C2086 1.394 . S
C2084 H2100 0.931 . S
C2085 C2084 1.391 . S
C2085 C2089 1.376 . S
C2086 C2084 1.394 . S
C2086 C2087 1.369 . S
C2086 C2090 1.531 . S
C2087 C2086 1.369 . S
C2087 C2088 1.410 . S
C2087 C2095 1.503 . S
C2088 C2087 1.410 . S
C2088 C2089 1.392 . S
C2088 C2091 1.511 . S
C2089 C2085 1.376 . S
C2089 C2088 1.392 . S
C2089 H2101 0.929 . S
C2090 C2086 1.531 . S
C2090 H2102 0.960 . S
C2090 H2103 0.962 . S
C2090 H2104 0.960 . S
C2091 C2088 1.511 . S
C2091 H2105 0.961 . S
C2091 H2106 0.961 . S
C2091 H2107 0.961 . S
C2092 C2093 1.370 . S
C2092 C2094 1.363 . S
C2092 H2108 0.931 . S
C2093 C2092 1.370 . S
C2093 C2097 1.408 . S
C2094 C2092 1.363 . S
C2094 C2095 1.370 . S
C2094 C2098 1.524 . S
C2095 C2087 1.503 . S
C2095 C2094 1.370 . S
C2095 C2096 1.403 . S
C2096 C2095 1.403 . S
C2096 C2097 1.404 . S
C2096 C2099 1.539 . S
C2097 C2093 1.408 . S
C2097 C2096 1.404 . S
C2097 H2109 0.930 . S
C2098 C2094 1.524 . S
C2098 H2110 0.956 . S
C2098 H2111 0.961 . S
C2098 H2112 0.961 . S
C2099 C2096 1.539 . S
C2099 H2113 0.958 . S
C2099 H2114 0.961 . S
C2099 H2115 0.960 . S
H2100 C2084 0.931 . S
H2101 C2089 0.929 . S
H2102 C2090 0.960 . S
H2103 C2090 0.962 . S
H2104 C2090 0.960 . S
H2105 C2091 0.961 . S
H2106 C2091 0.961 . S
H2107 C2091 0.961 . S
H2108 C2092 0.931 . S
H2109 C2097 0.930 . S
H2110 C2098 0.956 . S
H2111 C2098 0.961 . S
H2112 C2098 0.961 . S
H2113 C2099 0.958 . S
H2114 C2099 0.961 . S
H2115 C2099 0.960 . S
C2116 C2117 1.391 . S
C2116 C2118 1.394 . S
C2116 H2132 0.931 . S
C2117 C2116 1.391 . S
C2117 C2121 1.376 . S
C2118 C2116 1.394 . S
C2118 C2119 1.369 . S
C2118 C2122 1.531 . S
C2119 C2118 1.369 . S
C2119 C2120 1.410 . S
C2119 C2127 1.503 . S
C2120 C2119 1.410 . S
C2120 C2121 1.392 . S
C2120 C2123 1.511 . S
C2121 C2117 1.376 . S
C2121 C2120 1.392 . S
C2121 H2133 0.929 . S
C2122 C2118 1.531 . S
C2122 H2134 0.960 . S
C2122 H2135 0.962 . S
C2122 H2136 0.960 . S
C2123 C2120 1.511 . S
C2123 H2137 0.961 . S
C2123 H2138 0.961 . S
C2123 H2139 0.961 . S
C2124 C2125 1.370 . S
C2124 C2126 1.363 . S
C2124 H2140 0.931 . S
C2125 C2124 1.370 . S
C2125 C2129 1.408 . S
C2126 C2124 1.363 . S
C2126 C2127 1.370 . S
C2126 C2130 1.524 . S
C2127 C2119 1.503 . S
C2127 C2126 1.370 . S
C2127 C2128 1.403 . S
C2128 C2127 1.403 . S
C2128 C2129 1.404 . S
C2128 C2131 1.539 . S
C2129 C2125 1.408 . S
C2129 C2128 1.404 . S
C2129 H2141 0.930 . S
C2130 C2126 1.524 . S
C2130 H2142 0.956 . S
C2130 H2143 0.961 . S
C2130 H2144 0.961 . S
C2131 C2128 1.539 . S
C2131 H2145 0.958 . S
C2131 H2146 0.961 . S
C2131 H2147 0.960 . S
H2132 C2116 0.931 . S
H2133 C2121 0.929 . S
H2134 C2122 0.960 . S
H2135 C2122 0.962 . S
H2136 C2122 0.960 . S
H2137 C2123 0.961 . S
H2138 C2123 0.961 . S
H2139 C2123 0.961 . S
H2140 C2124 0.931 . S
H2141 C2129 0.930 . S
H2142 C2130 0.956 . S
H2143 C2130 0.961 . S
H2144 C2130 0.961 . S
H2145 C2131 0.958 . S
H2146 C2131 0.961 . S
H2147 C2131 0.960 . S
C2148 C2149 1.391 . S
C2148 C2150 1.394 . S
C2148 H2164 0.931 . S
C2149 C2148 1.391 . S
C2149 C2153 1.376 . S
C2150 C2148 1.394 . S
C2150 C2151 1.369 . S
C2150 C2154 1.531 . S
C2151 C2150 1.369 . S
C2151 C2152 1.410 . S
C2151 C2159 1.503 . S
C2152 C2151 1.410 . S
C2152 C2153 1.392 . S
C2152 C2155 1.511 . S
C2153 C2149 1.376 . S
C2153 C2152 1.392 . S
C2153 H2165 0.929 . S
C2154 C2150 1.531 . S
C2154 H2166 0.960 . S
C2154 H2167 0.962 . S
C2154 H2168 0.960 . S
C2155 C2152 1.511 . S
C2155 H2169 0.961 . S
C2155 H2170 0.961 . S
C2155 H2171 0.961 . S
C2156 C2157 1.370 . S
C2156 C2158 1.363 . S
C2156 H2172 0.931 . S
C2157 C2156 1.370 . S
C2157 C2161 1.408 . S
C2158 C2156 1.363 . S
C2158 C2159 1.370 . S
C2158 C2162 1.524 . S
C2159 C2151 1.503 . S
C2159 C2158 1.370 . S
C2159 C2160 1.403 . S
C2160 C2159 1.403 . S
C2160 C2161 1.404 . S
C2160 C2163 1.539 . S
C2161 C2157 1.408 . S
C2161 C2160 1.404 . S
C2161 H2173 0.930 . S
C2162 C2158 1.524 . S
C2162 H2174 0.956 . S
C2162 H2175 0.961 . S
C2162 H2176 0.961 . S
C2163 C2160 1.539 . S
C2163 H2177 0.958 . S
C2163 H2178 0.961 . S
C2163 H2179 0.960 . S
H2164 C2148 0.931 . S
H2165 C2153 0.929 . S
H2166 C2154 0.960 . S
H2167 C2154 0.962 . S
H2168 C2154 0.960 . S
H2169 C2155 0.961 . S
H2170 C2155 0.961 . S
H2171 C2155 0.961 . S
H2172 C2156 0.931 . S
H2173 C2161 0.930 . S
H2174 C2162 0.956 . S
H2175 C2162 0.961 . S
H2176 C2162 0.961 . S
H2177 C2163 0.958 . S
H2178 C2163 0.961 . S
H2179 C2163 0.960 . S
C2180 C2181 1.391 . S
C2180 C2182 1.394 . S
C2180 H2196 0.931 . S
C2181 C2180 1.391 . S
C2181 C2185 1.376 . S
C2182 C2180 1.394 . S
C2182 C2183 1.369 . S
C2182 C2186 1.531 . S
C2183 C2182 1.369 . S
C2183 C2184 1.410 . S
C2183 C2191 1.503 . S
C2184 C2183 1.410 . S
C2184 C2185 1.392 . S
C2184 C2187 1.511 . S
C2185 C2181 1.376 . S
C2185 C2184 1.392 . S
C2185 H2197 0.929 . S
C2186 C2182 1.531 . S
C2186 H2198 0.960 . S
C2186 H2199 0.962 . S
C2186 H2200 0.960 . S
C2187 C2184 1.511 . S
C2187 H2201 0.961 . S
C2187 H2202 0.961 . S
C2187 H2203 0.961 . S
C2188 C2189 1.370 . S
C2188 C2190 1.363 . S
C2188 H2204 0.931 . S
C2189 C2188 1.370 . S
C2189 C2193 1.408 . S
C2190 C2188 1.363 . S
C2190 C2191 1.370 . S
C2190 C2194 1.524 . S
C2191 C2183 1.503 . S
C2191 C2190 1.370 . S
C2191 C2192 1.403 . S
C2192 C2191 1.403 . S
C2192 C2193 1.404 . S
C2192 C2195 1.539 . S
C2193 C2189 1.408 . S
C2193 C2192 1.404 . S
C2193 H2205 0.930 . S
C2194 C2190 1.524 . S
C2194 H2206 0.956 . S
C2194 H2207 0.961 . S
C2194 H2208 0.961 . S
C2195 C2192 1.539 . S
C2195 H2209 0.958 . S
C2195 H2210 0.961 . S
C2195 H2211 0.960 . S
H2196 C2180 0.931 . S
H2197 C2185 0.929 . S
H2198 C2186 0.960 . S
H2199 C2186 0.962 . S
H2200 C2186 0.960 . S
H2201 C2187 0.961 . S
H2202 C2187 0.961 . S
H2203 C2187 0.961 . S
H2204 C2188 0.931 . S
H2205 C2193 0.930 . S
H2206 C2194 0.956 . S
H2207 C2194 0.961 . S
H2208 C2194 0.961 . S
H2209 C2195 0.958 . S
H2210 C2195 0.961 . S
H2211 C2195 0.960 . S
C2212 C2213 1.391 . S
C2212 C2214 1.394 . S
C2212 H2228 0.931 . S
C2213 C2212 1.391 . S
C2213 C2217 1.376 . S
C2214 C2212 1.394 . S
C2214 C2215 1.369 . S
C2214 C2218 1.531 . S
C2215 C2214 1.369 . S
C2215 C2216 1.410 . S
C2215 C2223 1.503 . S
C2216 C2215 1.410 . S
C2216 C2217 1.392 . S
C2216 C2219 1.511 . S
C2217 C2213 1.376 . S
C2217 C2216 1.392 . S
C2217 H2229 0.929 . S
C2218 C2214 1.531 . S
C2218 H2230 0.960 . S
C2218 H2231 0.962 . S
C2218 H2232 0.960 . S
C2219 C2216 1.511 . S
C2219 H2233 0.961 . S
C2219 H2234 0.961 . S
C2219 H2235 0.961 . S
C2220 C2221 1.370 . S
C2220 C2222 1.363 . S
C2220 H2236 0.931 . S
C2221 C2220 1.370 . S
C2221 C2225 1.408 . S
C2222 C2220 1.363 . S
C2222 C2223 1.370 . S
C2222 C2226 1.524 . S
C2223 C2215 1.503 . S
C2223 C2222 1.370 . S
C2223 C2224 1.403 . S
C2224 C2223 1.403 . S
C2224 C2225 1.404 . S
C2224 C2227 1.539 . S
C2225 C2221 1.408 . S
C2225 C2224 1.404 . S
C2225 H2237 0.930 . S
C2226 C2222 1.524 . S
C2226 H2238 0.956 . S
C2226 H2239 0.961 . S
C2226 H2240 0.961 . S
C2227 C2224 1.539 . S
C2227 H2241 0.958 . S
C2227 H2242 0.961 . S
C2227 H2243 0.960 . S
H2228 C2212 0.931 . S
H2229 C2217 0.929 . S
H2230 C2218 0.960 . S
H2231 C2218 0.962 . S
H2232 C2218 0.960 . S
H2233 C2219 0.961 . S
H2234 C2219 0.961 . S
H2235 C2219 0.961 . S
H2236 C2220 0.931 . S
H2237 C2225 0.930 . S
H2238 C2226 0.956 . S
H2239 C2226 0.961 . S
H2240 C2226 0.961 . S
H2241 C2227 0.958 . S
H2242 C2227 0.961 . S
H2243 C2227 0.960 . S
C2244 C2245 1.391 . S
C2244 C2246 1.394 . S
C2244 H2260 0.931 . S
C2245 C2244 1.391 . S
C2245 C2249 1.376 . S
C2246 C2244 1.394 . S
C2246 C2247 1.369 . S
C2246 C2250 1.531 . S
C2247 C2246 1.369 . S
C2247 C2248 1.410 . S
C2247 C2255 1.503 . S
C2248 C2247 1.410 . S
C2248 C2249 1.392 . S
C2248 C2251 1.511 . S
C2249 C2245 1.376 . S
C2249 C2248 1.392 . S
C2249 H2261 0.929 . S
C2250 C2246 1.531 . S
C2250 H2262 0.960 . S
C2250 H2263 0.962 . S
C2250 H2264 0.960 . S
C2251 C2248 1.511 . S
C2251 H2265 0.961 . S
C2251 H2266 0.961 . S
C2251 H2267 0.961 . S
C2252 C2253 1.370 . S
C2252 C2254 1.363 . S
C2252 H2268 0.931 . S
C2253 C2252 1.370 . S
C2253 C2257 1.408 . S
C2254 C2252 1.363 . S
C2254 C2255 1.370 . S
C2254 C2258 1.524 . S
C2255 C2247 1.503 . S
C2255 C2254 1.370 . S
C2255 C2256 1.403 . S
C2256 C2255 1.403 . S
C2256 C2257 1.404 . S
C2256 C2259 1.539 . S
C2257 C2253 1.408 . S
C2257 C2256 1.404 . S
C2257 H2269 0.930 . S
C2258 C2254 1.524 . S
C2258 H2270 0.956 . S
C2258 H2271 0.961 . S
C2258 H2272 0.961 . S
C2259 C2256 1.539 . S
C2259 H2273 0.958 . S
C2259 H2274 0.961 . S
C2259 H2275 0.960 . S
H2260 C2244 0.931 . S
H2261 C2249 0.929 . S
H2262 C2250 0.960 . S
H2263 C2250 0.962 . S
H2264 C2250 0.960 . S
H2265 C2251 0.961 . S
H2266 C2251 0.961 . S
H2267 C2251 0.961 . S
H2268 C2252 0.931 . S
H2269 C2257 0.930 . S
H2270 C2258 0.956 . S
H2271 C2258 0.961 . S
H2272 C2258 0.961 . S
H2273 C2259 0.958 . S
H2274 C2259 0.961 . S
H2275 C2259 0.960 . S
C2276 C2277 1.391 . S
C2276 C2278 1.394 . S
C2276 H2292 0.931 . S
C2277 C2276 1.391 . S
C2277 C2281 1.376 . S
C2278 C2276 1.394 . S
C2278 C2279 1.369 . S
C2278 C2282 1.531 . S
C2279 C2278 1.369 . S
C2279 C2280 1.410 . S
C2279 C2287 1.503 . S
C2280 C2279 1.410 . S
C2280 C2281 1.392 . S
C2280 C2283 1.511 . S
C2281 C2277 1.376 . S
C2281 C2280 1.392 . S
C2281 H2293 0.929 . S
C2282 C2278 1.531 . S
C2282 H2294 0.960 . S
C2282 H2295 0.962 . S
C2282 H2296 0.960 . S
C2283 C2280 1.511 . S
C2283 H2297 0.961 . S
C2283 H2298 0.961 . S
C2283 H2299 0.961 . S
C2284 C2285 1.370 . S
C2284 C2286 1.363 . S
C2284 H2300 0.931 . S
C2285 C2284 1.370 . S
C2285 C2289 1.408 . S
C2286 C2284 1.363 . S
C2286 C2287 1.370 . S
C2286 C2290 1.524 . S
C2287 C2279 1.503 . S
C2287 C2286 1.370 . S
C2287 C2288 1.403 . S
C2288 C2287 1.403 . S
C2288 C2289 1.404 . S
C2288 C2291 1.539 . S
C2289 C2285 1.408 . S
C2289 C2288 1.404 . S
C2289 H2301 0.930 . S
C2290 C2286 1.524 . S
C2290 H2302 0.956 . S
C2290 H2303 0.961 . S
C2290 H2304 0.961 . S
C2291 C2288 1.539 . S
C2291 H2305 0.958 . S
C2291 H2306 0.961 . S
C2291 H2307 0.960 . S
H2292 C2276 0.931 . S
H2293 C2281 0.929 . S
H2294 C2282 0.960 . S
H2295 C2282 0.962 . S
H2296 C2282 0.960 . S
H2297 C2283 0.961 . S
H2298 C2283 0.961 . S
H2299 C2283 0.961 . S
H2300 C2284 0.931 . S
H2301 C2289 0.930 . S
H2302 C2290 0.956 . S
H2303 C2290 0.961 . S
H2304 C2290 0.961 . S
H2305 C2291 0.958 . S
H2306 C2291 0.961 . S
H2307 C2291 0.960 . S
C2308 C2309 1.391 . S
C2308 C2310 1.394 . S
C2308 H2324 0.931 . S
C2309 C2308 1.391 . S
C2309 C2313 1.376 . S
C2310 C2308 1.394 . S
C2310 C2311 1.369 . S
C2310 C2314 1.531 . S
C2311 C2310 1.369 . S
C2311 C2312 1.410 . S
C2311 C2319 1.503 . S
C2312 C2311 1.410 . S
C2312 C2313 1.392 . S
C2312 C2315 1.511 . S
C2313 C2309 1.376 . S
C2313 C2312 1.392 . S
C2313 H2325 0.929 . S
C2314 C2310 1.531 . S
C2314 H2326 0.960 . S
C2314 H2327 0.962 . S
C2314 H2328 0.960 . S
C2315 C2312 1.511 . S
C2315 H2329 0.961 . S
C2315 H2330 0.961 . S
C2315 H2331 0.961 . S
C2316 C2317 1.370 . S
C2316 C2318 1.363 . S
C2316 H2332 0.931 . S
C2317 C2316 1.370 . S
C2317 C2321 1.408 . S
C2318 C2316 1.363 . S
C2318 C2319 1.370 . S
C2318 C2322 1.524 . S
C2319 C2311 1.503 . S
C2319 C2318 1.370 . S
C2319 C2320 1.403 . S
C2320 C2319 1.403 . S
C2320 C2321 1.404 . S
C2320 C2323 1.539 . S
C2321 C2317 1.408 . S
C2321 C2320 1.404 . S
C2321 H2333 0.930 . S
C2322 C2318 1.524 . S
C2322 H2334 0.956 . S
C2322 H2335 0.961 . S
C2322 H2336 0.961 . S
C2323 C2320 1.539 . S
C2323 H2337 0.958 . S
C2323 H2338 0.961 . S
C2323 H2339 0.960 . S
H2324 C2308 0.931 . S
H2325 C2313 0.929 . S
H2326 C2314 0.960 . S
H2327 C2314 0.962 . S
H2328 C2314 0.960 . S
H2329 C2315 0.961 . S
H2330 C2315 0.961 . S
H2331 C2315 0.961 . S
H2332 C2316 0.931 . S
H2333 C2321 0.930 . S
H2334 C2322 0.956 . S
H2335 C2322 0.961 . S
H2336 C2322 0.961 . S
H2337 C2323 0.958 . S
H2338 C2323 0.961 . S
H2339 C2323 0.960 . S
C2340 C2341 1.391 . S
C2340 C2342 1.394 . S
C2340 H2356 0.931 . S
C2341 C2340 1.391 . S
C2341 C2345 1.376 . S
C2342 C2340 1.394 . S
C2342 C2343 1.369 . S
C2342 C2346 1.531 . S
C2343 C2342 1.369 . S
C2343 C2344 1.410 . S
C2343 C2351 1.503 . S
C2344 C2343 1.410 . S
C2344 C2345 1.392 . S
C2344 C2347 1.511 . S
C2345 C2341 1.376 . S
C2345 C2344 1.392 . S
C2345 H2357 0.929 . S
C2346 C2342 1.531 . S
C2346 H2358 0.960 . S
C2346 H2359 0.962 . S
C2346 H2360 0.960 . S
C2347 C2344 1.511 . S
C2347 H2361 0.961 . S
C2347 H2362 0.961 . S
C2347 H2363 0.961 . S
C2348 C2349 1.370 . S
C2348 C2350 1.363 . S
C2348 H2364 0.931 . S
C2349 C2348 1.370 . S
C2349 C2353 1.408 . S
C2350 C2348 1.363 . S
C2350 C2351 1.370 . S
C2350 C2354 1.524 . S
C2351 C2343 1.503 . S
C2351 C2350 1.370 . S
C2351 C2352 1.403 . S
C2352 C2351 1.403 . S
C2352 C2353 1.404 . S
C2352 C2355 1.539 . S
C2353 C2349 1.408 . S
C2353 C2352 1.404 . S
C2353 H2365 0.930 . S
C2354 C2350 1.524 . S
C2354 H2366 0.956 . S
C2354 H2367 0.961 . S
C2354 H2368 0.961 . S
C2355 C2352 1.539 . S
C2355 H2369 0.958 . S
C2355 H2370 0.961 . S
C2355 H2371 0.960 . S
H2356 C2340 0.931 . S
H2357 C2345 0.929 . S
H2358 C2346 0.960 . S
H2359 C2346 0.962 . S
H2360 C2346 0.960 . S
H2361 C2347 0.961 . S
H2362 C2347 0.961 . S
H2363 C2347 0.961 . S
H2364 C2348 0.931 . S
H2365 C2353 0.930 . S
H2366 C2354 0.956 . S
H2367 C2354 0.961 . S
H2368 C2354 0.961 . S
H2369 C2355 0.958 . S
H2370 C2355 0.961 . S
H2371 C2355 0.960 . S
C2372 C2373 1.391 . S
C2372 C2374 1.394 . S
C2372 H2388 0.931 . S
C2373 C2372 1.391 . S
C2373 C2377 1.376 . S
C2374 C2372 1.394 . S
C2374 C2375 1.369 . S
C2374 C2378 1.531 . S
C2375 C2374 1.369 . S
C2375 C2376 1.410 . S
C2375 C2383 1.503 . S
C2376 C2375 1.410 . S
C2376 C2377 1.392 . S
C2376 C2379 1.511 . S
C2377 C2373 1.376 . S
C2377 C2376 1.392 . S
C2377 H2389 0.929 . S
C2378 C2374 1.531 . S
C2378 H2390 0.960 . S
C2378 H2391 0.962 . S
C2378 H2392 0.960 . S
C2379 C2376 1.511 . S
C2379 H2393 0.961 . S
C2379 H2394 0.961 . S
C2379 H2395 0.961 . S
C2380 C2381 1.370 . S
C2380 C2382 1.363 . S
C2380 H2396 0.931 . S
C2381 C2380 1.370 . S
C2381 C2385 1.408 . S
C2382 C2380 1.363 . S
C2382 C2383 1.370 . S
C2382 C2386 1.524 . S
C2383 C2375 1.503 . S
C2383 C2382 1.370 . S
C2383 C2384 1.403 . S
C2384 C2383 1.403 . S
C2384 C2385 1.404 . S
C2384 C2387 1.539 . S
C2385 C2381 1.408 . S
C2385 C2384 1.404 . S
C2385 H2397 0.930 1_565 S
C2386 C2382 1.524 . S
C2386 H2398 0.956 . S
C2386 H2399 0.961 . S
C2386 H2400 0.961 . S
C2387 C2384 1.539 . S
C2387 H2401 0.958 1_565 S
C2387 H2402 0.961 1_565 S
C2387 H2403 0.960 . S
H2388 C2372 0.931 . S
H2389 C2377 0.929 . S
H2390 C2378 0.960 . S
H2391 C2378 0.962 . S
H2392 C2378 0.960 . S
H2393 C2379 0.961 . S
H2394 C2379 0.961 . S
H2395 C2379 0.961 . S
H2396 C2380 0.931 . S
H2397 C2385 0.930 1_545 S
H2398 C2386 0.956 . S
H2399 C2386 0.961 . S
H2400 C2386 0.961 . S
H2401 C2387 0.958 1_545 S
H2402 C2387 0.961 1_545 S
H2403 C2387 0.960 . S
C2404 C2405 1.391 . S
C2404 C2406 1.394 . S
C2404 H2420 0.931 . S
C2405 C2404 1.391 . S
C2405 C2409 1.376 . S
C2406 C2404 1.394 . S
C2406 C2407 1.369 . S
C2406 C2410 1.531 . S
C2407 C2406 1.369 . S
C2407 C2408 1.410 . S
C2407 C2415 1.503 . S
C2408 C2407 1.410 . S
C2408 C2409 1.392 . S
C2408 C2411 1.511 . S
C2409 C2405 1.376 . S
C2409 C2408 1.392 . S
C2409 H2421 0.929 . S
C2410 C2406 1.531 . S
C2410 H2422 0.960 . S
C2410 H2423 0.962 . S
C2410 H2424 0.960 . S
C2411 C2408 1.511 . S
C2411 H2425 0.961 . S
C2411 H2426 0.961 . S
C2411 H2427 0.961 . S
C2412 C2413 1.370 . S
C2412 C2414 1.363 . S
C2412 H2428 0.931 . S
C2413 C2412 1.370 . S
C2413 C2417 1.408 . S
C2414 C2412 1.363 . S
C2414 C2415 1.370 . S
C2414 C2418 1.524 . S
C2415 C2407 1.503 . S
C2415 C2414 1.370 . S
C2415 C2416 1.403 . S
C2416 C2415 1.403 . S
C2416 C2417 1.404 . S
C2416 C2419 1.539 . S
C2417 C2413 1.408 . S
C2417 C2416 1.404 . S
C2417 H2429 0.930 . S
C2418 C2414 1.524 . S
C2418 H2430 0.956 . S
C2418 H2431 0.961 . S
C2418 H2432 0.961 . S
C2419 C2416 1.539 . S
C2419 H2433 0.958 . S
C2419 H2434 0.961 . S
C2419 H2435 0.960 . S
H2420 C2404 0.931 . S
H2421 C2409 0.929 . S
H2422 C2410 0.960 . S
H2423 C2410 0.962 . S
H2424 C2410 0.960 . S
H2425 C2411 0.961 . S
H2426 C2411 0.961 . S
H2427 C2411 0.961 . S
H2428 C2412 0.931 . S
H2429 C2417 0.930 . S
H2430 C2418 0.956 . S
H2431 C2418 0.961 . S
H2432 C2418 0.961 . S
H2433 C2419 0.958 . S
H2434 C2419 0.961 . S
H2435 C2419 0.960 . S
C2436 C2437 1.391 . S
C2436 C2438 1.394 . S
C2436 H2452 0.931 . S
C2437 C2436 1.391 . S
C2437 C2441 1.376 . S
C2438 C2436 1.394 . S
C2438 C2439 1.369 . S
C2438 C2442 1.531 . S
C2439 C2438 1.369 . S
C2439 C2440 1.410 . S
C2439 C2447 1.503 . S
C2440 C2439 1.410 . S
C2440 C2441 1.392 . S
C2440 C2443 1.511 . S
C2441 C2437 1.376 . S
C2441 C2440 1.392 . S
C2441 H2453 0.929 . S
C2442 C2438 1.531 . S
C2442 H2454 0.960 . S
C2442 H2455 0.962 . S
C2442 H2456 0.960 . S
C2443 C2440 1.511 . S
C2443 H2457 0.961 . S
C2443 H2458 0.961 . S
C2443 H2459 0.961 . S
C2444 C2445 1.370 . S
C2444 C2446 1.363 . S
C2444 H2460 0.931 . S
C2445 C2444 1.370 . S
C2445 C2449 1.408 . S
C2446 C2444 1.363 . S
C2446 C2447 1.370 . S
C2446 C2450 1.524 . S
C2447 C2439 1.503 . S
C2447 C2446 1.370 . S
C2447 C2448 1.403 . S
C2448 C2447 1.403 . S
C2448 C2449 1.404 . S
C2448 C2451 1.539 . S
C2449 C2445 1.408 . S
C2449 C2448 1.404 . S
C2449 H2461 0.930 . S
C2450 C2446 1.524 . S
C2450 H2462 0.956 . S
C2450 H2463 0.961 . S
C2450 H2464 0.961 . S
C2451 C2448 1.539 . S
C2451 H2465 0.958 . S
C2451 H2466 0.961 . S
C2451 H2467 0.960 . S
H2452 C2436 0.931 . S
H2453 C2441 0.929 . S
H2454 C2442 0.960 . S
H2455 C2442 0.962 . S
H2456 C2442 0.960 . S
H2457 C2443 0.961 . S
H2458 C2443 0.961 . S
H2459 C2443 0.961 . S
H2460 C2444 0.931 . S
H2461 C2449 0.930 . S
H2462 C2450 0.956 . S
H2463 C2450 0.961 . S
H2464 C2450 0.961 . S
H2465 C2451 0.958 . S
H2466 C2451 0.961 . S
H2467 C2451 0.960 . S
C2468 C2469 1.391 . S
C2468 C2470 1.394 . S
C2468 H2484 0.931 1_545 S
C2469 C2468 1.391 . S
C2469 C2473 1.376 . S
C2470 C2468 1.394 . S
C2470 C2471 1.369 . S
C2470 C2474 1.531 . S
C2471 C2470 1.369 . S
C2471 C2472 1.410 . S
C2471 C2479 1.503 . S
C2472 C2471 1.410 . S
C2472 C2473 1.392 . S
C2472 C2475 1.511 . S
C2473 C2469 1.376 . S
C2473 C2472 1.392 . S
C2473 H2485 0.929 . S
C2474 C2470 1.531 . S
C2474 H2486 0.960 . S
C2474 H2487 0.962 . S
C2474 H2488 0.931 1_545 S
C2475 C2472 1.511 . S
C2475 H2489 0.961 . S
C2475 H2490 0.961 . S
C2475 H2491 0.961 . S
C2476 C2477 1.370 . S
C2476 C2478 1.363 . S
C2476 H2492 0.931 . S
C2477 C2476 1.370 . S
C2477 C2481 1.408 . S
C2478 C2476 1.363 . S
C2478 C2479 1.370 . S
C2478 C2482 1.524 . S
C2479 C2471 1.503 . S
C2479 C2478 1.370 . S
C2479 C2480 1.403 . S
C2480 C2479 1.403 . S
C2480 C2481 1.404 . S
C2480 C2483 1.539 . S
C2481 C2477 1.408 . S
C2481 C2480 1.404 . S
C2481 H2493 0.930 . S
C2482 C2478 1.524 . S
C2482 H2494 0.956 . S
C2482 H2495 0.961 . S
C2482 H2496 0.961 . S
C2483 C2480 1.539 . S
C2483 H2497 0.958 . S
C2483 H2498 0.961 . S
C2483 H2499 0.960 . S
H2484 C2468 0.931 1_565 S
H2485 C2473 0.929 . S
H2486 C2474 0.960 . S
H2487 C2474 0.962 . S
H2488 C2474 0.931 1_565 S
H2489 C2475 0.961 . S
H2490 C2475 0.961 . S
H2491 C2475 0.961 . S
H2492 C2476 0.931 . S
H2493 C2481 0.930 . S
H2494 C2482 0.956 . S
H2495 C2482 0.961 . S
H2496 C2482 0.961 . S
H2497 C2483 0.958 . S
H2498 C2483 0.961 . S
H2499 C2483 0.960 . S
C2500 C2501 1.391 . S
C2500 C2502 1.394 . S
C2500 H2516 0.931 . S
C2501 C2500 1.391 . S
C2501 C2505 1.376 . S
C2502 C2500 1.394 . S
C2502 C2503 1.369 . S
C2502 C2506 1.531 . S
C2503 C2502 1.369 . S
C2503 C2504 1.410 . S
C2503 C2511 1.503 . S
C2504 C2503 1.410 . S
C2504 C2505 1.392 . S
C2504 C2507 1.511 . S
C2505 C2501 1.376 . S
C2505 C2504 1.392 . S
C2505 H2517 0.929 . S
C2506 C2502 1.531 . S
C2506 H2518 0.960 . S
C2506 H2519 0.962 . S
C2506 H2520 0.960 . S
C2507 C2504 1.511 . S
C2507 H2521 0.961 . S
C2507 H2522 0.961 . S
C2507 H2523 0.961 . S
C2508 C2509 1.370 . S
C2508 C2510 1.363 . S
C2508 H2524 0.931 . S
C2509 C2508 1.370 . S
C2509 C2513 1.408 . S
C2510 C2508 1.363 . S
C2510 C2511 1.370 . S
C2510 C2514 1.524 . S
C2511 C2503 1.503 . S
C2511 C2510 1.370 . S
C2511 C2512 1.403 . S
C2512 C2511 1.403 . S
C2512 C2513 1.404 . S
C2512 C2515 1.539 . S
C2513 C2509 1.408 . S
C2513 C2512 1.404 . S
C2513 H2525 0.930 1_655 S
C2514 C2510 1.524 . S
C2514 H2526 0.956 . S
C2514 H2527 0.961 . S
C2514 H2528 0.961 . S
C2515 C2512 1.539 . S
C2515 H2529 0.958 . S
C2515 H2530 0.961 1_655 S
C2515 H2531 0.960 . S
H2516 C2500 0.931 . S
H2517 C2505 0.929 . S
H2518 C2506 0.960 . S
H2519 C2506 0.962 . S
H2520 C2506 0.960 . S
H2521 C2507 0.961 . S
H2522 C2507 0.961 . S
H2523 C2507 0.961 . S
H2524 C2508 0.931 . S
H2525 C2513 0.930 1_455 S
H2526 C2514 0.956 . S
H2527 C2514 0.961 . S
H2528 C2514 0.961 . S
H2529 C2515 0.958 . S
H2530 C2515 0.961 1_455 S
H2531 C2515 0.960 . S
C2532 C2533 1.391 . S
C2532 C2534 1.394 . S
C2532 H2548 0.931 . S
C2533 C2532 1.391 . S
C2533 C2537 1.376 . S
C2534 C2532 1.394 . S
C2534 C2535 1.369 . S
C2534 C2538 1.531 . S
C2535 C2534 1.369 . S
C2535 C2536 1.410 . S
C2535 C2543 1.503 . S
C2536 C2535 1.410 . S
C2536 C2537 1.392 . S
C2536 C2539 1.511 . S
C2537 C2533 1.376 . S
C2537 C2536 1.392 . S
C2537 H2549 0.929 . S
C2538 C2534 1.531 . S
C2538 H2550 0.960 . S
C2538 H2551 0.962 . S
C2538 H2552 0.960 . S
C2539 C2536 1.511 . S
C2539 H2553 0.961 . S
C2539 H2554 0.961 . S
C2539 H2555 0.961 . S
C2540 C2541 1.370 . S
C2540 C2542 1.363 . S
C2540 H2556 0.931 . S
C2541 C2540 1.370 . S
C2541 C2545 1.408 . S
C2542 C2540 1.363 . S
C2542 C2543 1.370 . S
C2542 C2546 1.524 . S
C2543 C2535 1.503 . S
C2543 C2542 1.370 . S
C2543 C2544 1.403 . S
C2544 C2543 1.403 . S
C2544 C2545 1.404 . S
C2544 C2547 1.539 . S
C2545 C2541 1.408 . S
C2545 C2544 1.404 . S
C2545 H2557 0.930 . S
C2546 C2542 1.524 . S
C2546 H2558 0.956 . S
C2546 H2559 0.961 . S
C2546 H2560 0.961 . S
C2547 C2544 1.539 . S
C2547 H2561 0.958 . S
C2547 H2562 0.961 . S
C2547 H2563 0.960 . S
H2548 C2532 0.931 . S
H2549 C2537 0.929 . S
H2550 C2538 0.960 . S
H2551 C2538 0.962 . S
H2552 C2538 0.960 . S
H2553 C2539 0.961 . S
H2554 C2539 0.961 . S
H2555 C2539 0.961 . S
H2556 C2540 0.931 . S
H2557 C2545 0.930 . S
H2558 C2546 0.956 . S
H2559 C2546 0.961 . S
H2560 C2546 0.961 . S
H2561 C2547 0.958 . S
H2562 C2547 0.961 . S
H2563 C2547 0.960 . S
C2564 C2565 1.391 . S
C2564 C2566 1.394 . S
C2564 H2580 0.931 . S
C2565 C2564 1.391 . S
C2565 C2569 1.376 . S
C2566 C2564 1.394 . S
C2566 C2567 1.369 . S
C2566 C2570 1.531 . S
C2567 C2566 1.369 . S
C2567 C2568 1.410 . S
C2567 C2575 1.503 . S
C2568 C2567 1.410 . S
C2568 C2569 1.392 . S
C2568 C2571 1.511 . S
C2569 C2565 1.376 . S
C2569 C2568 1.392 . S
C2569 H2581 0.929 . S
C2570 C2566 1.531 . S
C2570 H2582 0.960 . S
C2570 H2583 0.962 . S
C2570 H2584 0.960 . S
C2571 C2568 1.511 . S
C2571 H2585 0.961 . S
C2571 H2586 0.961 . S
C2571 H2587 0.961 . S
C2572 C2573 1.370 . S
C2572 C2574 1.363 . S
C2572 H2588 0.931 . S
C2573 C2572 1.370 . S
C2573 C2577 1.408 . S
C2574 C2572 1.363 . S
C2574 C2575 1.370 . S
C2574 C2578 1.524 . S
C2575 C2567 1.503 . S
C2575 C2574 1.370 . S
C2575 C2576 1.403 . S
C2576 C2575 1.403 . S
C2576 C2577 1.404 . S
C2576 C2579 1.539 . S
C2577 C2573 1.408 . S
C2577 C2576 1.404 . S
C2577 H2589 0.930 1_545 S
C2578 C2574 1.524 . S
C2578 H2590 0.956 . S
C2578 H2591 0.961 . S
C2578 H2592 0.961 . S
C2579 C2576 1.539 . S
C2579 H2593 0.958 1_545 S
C2579 H2594 0.961 1_545 S
C2579 H2595 0.960 . S
H2580 C2564 0.931 . S
H2581 C2569 0.929 . S
H2582 C2570 0.960 . S
H2583 C2570 0.962 . S
H2584 C2570 0.960 . S
H2585 C2571 0.961 . S
H2586 C2571 0.961 . S
H2587 C2571 0.961 . S
H2588 C2572 0.931 . S
H2589 C2577 0.930 1_565 S
H2590 C2578 0.956 . S
H2591 C2578 0.961 . S
H2592 C2578 0.961 . S
H2593 C2579 0.958 1_565 S
H2594 C2579 0.961 1_565 S
H2595 C2579 0.960 . S
C2596 C2597 1.391 . S
C2596 C2598 1.394 . S
C2596 H2612 0.931 . S
C2597 C2596 1.391 . S
C2597 C2601 1.376 . S
C2598 C2596 1.394 . S
C2598 C2599 1.369 . S
C2598 C2602 1.531 . S
C2599 C2598 1.369 . S
C2599 C2600 1.410 . S
C2599 C2607 1.503 . S
C2600 C2599 1.410 . S
C2600 C2601 1.392 . S
C2600 C2603 1.511 . S
C2601 C2597 1.376 . S
C2601 C2600 1.392 . S
C2601 H2613 0.929 . S
C2602 C2598 1.531 . S
C2602 H2614 0.960 . S
C2602 H2615 0.962 . S
C2602 H2616 0.960 . S
C2603 C2600 1.511 . S
C2603 H2617 0.961 . S
C2603 H2618 0.961 . S
C2603 H2619 0.961 . S
C2604 C2605 1.370 . S
C2604 C2606 1.363 . S
C2604 H2620 0.931 . S
C2605 C2604 1.370 . S
C2605 C2609 1.408 . S
C2606 C2604 1.363 . S
C2606 C2607 1.370 . S
C2606 C2610 1.524 . S
C2607 C2599 1.503 . S
C2607 C2606 1.370 . S
C2607 C2608 1.403 . S
C2608 C2607 1.403 . S
C2608 C2609 1.404 . S
C2608 C2611 1.539 . S
C2609 C2605 1.408 . S
C2609 C2608 1.404 . S
C2609 H2621 0.930 1_655 S
C2610 C2606 1.524 . S
C2610 H2622 0.956 . S
C2610 H2623 0.961 . S
C2610 H2624 0.961 . S
C2611 C2608 1.539 . S
C2611 H2625 0.958 . S
C2611 H2626 0.961 1_655 S
C2611 H2627 0.960 . S
H2612 C2596 0.931 . S
H2613 C2601 0.929 . S
H2614 C2602 0.960 . S
H2615 C2602 0.962 . S
H2616 C2602 0.960 . S
H2617 C2603 0.961 . S
H2618 C2603 0.961 . S
H2619 C2603 0.961 . S
H2620 C2604 0.931 . S
H2621 C2609 0.930 1_455 S
H2622 C2610 0.956 . S
H2623 C2610 0.961 . S
H2624 C2610 0.961 . S
H2625 C2611 0.958 . S
H2626 C2611 0.961 1_455 S
H2627 C2611 0.960 . S
C2628 C2629 1.391 . S
C2628 C2630 1.394 . S
C2628 H2644 0.931 . S
C2629 C2628 1.391 . S
C2629 C2633 1.376 . S
C2630 C2628 1.394 . S
C2630 C2631 1.369 . S
C2630 C2634 1.531 . S
C2631 C2630 1.369 . S
C2631 C2632 1.410 . S
C2631 C2639 1.503 . S
C2632 C2631 1.410 . S
C2632 C2633 1.392 . S
C2632 C2635 1.511 . S
C2633 C2629 1.376 . S
C2633 C2632 1.392 . S
C2633 H2645 0.929 . S
C2634 C2630 1.531 . S
C2634 H2646 0.960 . S
C2634 H2647 0.962 . S
C2634 H2648 0.960 . S
C2635 C2632 1.511 . S
C2635 H2649 0.961 . S
C2635 H2650 0.961 . S
C2635 H2651 0.961 . S
C2636 C2637 1.370 . S
C2636 C2638 1.363 . S
C2636 H2652 0.931 . S
C2637 C2636 1.370 . S
C2637 C2641 1.408 . S
C2638 C2636 1.363 . S
C2638 C2639 1.370 . S
C2638 C2642 1.524 . S
C2639 C2631 1.503 . S
C2639 C2638 1.370 . S
C2639 C2640 1.403 . S
C2640 C2639 1.403 . S
C2640 C2641 1.404 . S
C2640 C2643 1.539 . S
C2641 C2637 1.408 . S
C2641 C2640 1.404 . S
C2641 H2653 0.930 . S
C2642 C2638 1.524 . S
C2642 H2654 0.956 . S
C2642 H2655 0.961 . S
C2642 H2656 0.961 . S
C2643 C2640 1.539 . S
C2643 H2657 0.958 . S
C2643 H2658 0.961 . S
C2643 H2659 0.960 . S
H2644 C2628 0.931 . S
H2645 C2633 0.929 . S
H2646 C2634 0.960 . S
H2647 C2634 0.962 . S
H2648 C2634 0.960 . S
H2649 C2635 0.961 . S
H2650 C2635 0.961 . S
H2651 C2635 0.961 . S
H2652 C2636 0.931 . S
H2653 C2641 0.930 . S
H2654 C2642 0.956 . S
H2655 C2642 0.961 . S
H2656 C2642 0.961 . S
H2657 C2643 0.958 . S
H2658 C2643 0.961 . S
H2659 C2643 0.960 . S
C2660 C2661 1.391 . S
C2660 C2662 1.394 . S
C2660 H2676 0.931 . S
C2661 C2660 1.391 . S
C2661 C2665 1.376 . S
C2662 C2660 1.394 . S
C2662 C2663 1.369 . S
C2662 C2666 1.531 . S
C2663 C2662 1.369 . S
C2663 C2664 1.410 . S
C2663 C2671 1.503 . S
C2664 C2663 1.410 . S
C2664 C2665 1.392 . S
C2664 C2667 1.511 . S
C2665 C2661 1.376 . S
C2665 C2664 1.392 . S
C2665 H2677 0.929 . S
C2666 C2662 1.531 . S
C2666 H2678 0.960 . S
C2666 H2679 0.962 . S
C2666 H2680 0.960 . S
C2667 C2664 1.511 . S
C2667 H2681 0.961 . S
C2667 H2682 0.961 . S
C2667 H2683 0.961 . S
C2668 C2669 1.370 . S
C2668 C2670 1.363 . S
C2668 H2684 0.931 . S
C2669 C2668 1.370 . S
C2669 C2673 1.408 . S
C2670 C2668 1.363 . S
C2670 C2671 1.370 . S
C2670 C2674 1.524 . S
C2671 C2663 1.503 . S
C2671 C2670 1.370 . S
C2671 C2672 1.403 . S
C2672 C2671 1.403 . S
C2672 C2673 1.404 . S
C2672 C2675 1.539 . S
C2673 C2669 1.408 . S
C2673 C2672 1.404 . S
C2673 H2685 0.930 1_565 S
C2674 C2670 1.524 . S
C2674 H2686 0.956 . S
C2674 H2687 0.961 . S
C2674 H2688 0.961 . S
C2675 C2672 1.539 . S
C2675 H2689 0.958 . S
C2675 H2690 0.961 . S
C2675 H2691 0.960 . S
H2676 C2660 0.931 . S
H2677 C2665 0.929 . S
H2678 C2666 0.960 . S
H2679 C2666 0.962 . S
H2680 C2666 0.960 . S
H2681 C2667 0.961 . S
H2682 C2667 0.961 . S
H2683 C2667 0.961 . S
H2684 C2668 0.931 . S
H2685 C2673 0.930 1_545 S
H2686 C2674 0.956 . S
H2687 C2674 0.961 . S
H2688 C2674 0.961 . S
H2689 C2675 0.958 . S
H2690 C2675 0.961 . S
H2691 C2675 0.960 . S
C2692 C2693 1.391 . S
C2692 C2694 1.394 . S
C2692 H2708 0.931 . S
C2693 C2692 1.391 . S
C2693 C2697 1.376 . S
C2694 C2692 1.394 . S
C2694 C2695 1.369 . S
C2694 C2698 1.531 . S
C2695 C2694 1.369 . S
C2695 C2696 1.410 . S
C2695 C2703 1.503 . S
C2696 C2695 1.410 . S
C2696 C2697 1.392 . S
C2696 C2699 1.511 . S
C2697 C2693 1.376 . S
C2697 C2696 1.392 . S
C2697 H2709 0.929 . S
C2698 C2694 1.531 . S
C2698 H2710 0.960 . S
C2698 H2711 0.962 . S
C2698 H2712 0.960 . S
C2699 C2696 1.511 . S
C2699 H2713 0.961 . S
C2699 H2714 0.961 . S
C2699 H2715 0.961 . S
C2700 C2701 1.370 . S
C2700 C2702 1.363 . S
C2700 H2716 0.931 . S
C2701 C2700 1.370 . S
C2701 C2705 1.408 . S
C2702 C2700 1.363 . S
C2702 C2703 1.370 . S
C2702 C2706 1.524 . S
C2703 C2695 1.503 . S
C2703 C2702 1.370 . S
C2703 C2704 1.403 . S
C2704 C2703 1.403 . S
C2704 C2705 1.404 . S
C2704 C2707 1.539 . S
C2705 C2701 1.408 . S
C2705 C2704 1.404 . S
C2705 H2717 0.930 . S
C2706 C2702 1.524 . S
C2706 H2718 0.956 . S
C2706 H2719 0.961 . S
C2706 H2720 0.961 . S
C2707 C2704 1.539 . S
C2707 H2721 0.958 . S
C2707 H2722 0.961 . S
C2707 H2723 0.960 . S
H2708 C2692 0.931 . S
H2709 C2697 0.929 . S
H2710 C2698 0.960 . S
H2711 C2698 0.962 . S
H2712 C2698 0.960 . S
H2713 C2699 0.961 . S
H2714 C2699 0.961 . S
H2715 C2699 0.961 . S
H2716 C2700 0.931 . S
H2717 C2705 0.930 . S
H2718 C2706 0.956 . S
H2719 C2706 0.961 . S
H2720 C2706 0.961 . S
H2721 C2707 0.958 . S
H2722 C2707 0.961 . S
H2723 C2707 0.960 . S
C2724 C2725 1.391 . S
C2724 C2726 1.394 . S
C2724 H2740 0.931 . S
C2725 C2724 1.391 . S
C2725 C2729 1.376 . S
C2726 C2724 1.394 . S
C2726 C2727 1.369 . S
C2726 C2730 1.531 . S
C2727 C2726 1.369 . S
C2727 C2728 1.410 . S
C2727 C2735 1.503 . S
C2728 C2727 1.410 . S
C2728 C2729 1.392 . S
C2728 C2731 1.511 . S
C2729 C2725 1.376 . S
C2729 C2728 1.392 . S
C2729 H2741 0.929 . S
C2730 C2726 1.531 . S
C2730 H2742 0.960 . S
C2730 H2743 0.962 . S
C2730 H2744 0.960 . S
C2731 C2728 1.511 . S
C2731 H2745 0.961 . S
C2731 H2746 0.961 . S
C2731 H2747 0.961 . S
C2732 C2733 1.370 . S
C2732 C2734 1.363 1_455 S
C2732 H2748 0.931 . S
C2733 C2732 1.370 . S
C2733 C2737 1.408 1_455 S
C2734 C2732 1.363 1_655 S
C2734 C2735 1.370 . S
C2734 C2738 1.524 . S
C2735 C2727 1.503 . S
C2735 C2734 1.370 . S
C2735 C2736 1.403 . S
C2736 C2735 1.403 . S
C2736 C2737 1.404 . S
C2736 C2739 1.539 . S
C2737 C2733 1.408 1_655 S
C2737 C2736 1.404 . S
C2737 H2749 0.930 . S
C2738 C2734 1.524 . S
C2738 H2750 0.956 . S
C2738 H2751 0.961 . S
C2738 H2752 0.961 1_655 S
C2739 C2736 1.539 . S
C2739 H2753 0.958 . S
C2739 H2754 0.961 . S
C2739 H2755 0.960 . S
H2740 C2724 0.931 . S
H2741 C2729 0.929 . S
H2742 C2730 0.960 . S
H2743 C2730 0.962 . S
H2744 C2730 0.960 . S
H2745 C2731 0.961 . S
H2746 C2731 0.961 . S
H2747 C2731 0.961 . S
H2748 C2732 0.931 . S
H2749 C2737 0.930 . S
H2750 C2738 0.956 . S
H2751 C2738 0.961 . S
H2752 C2738 0.961 1_455 S
H2753 C2739 0.958 . S
H2754 C2739 0.961 . S
H2755 C2739 0.960 . S
C2756 C2757 1.391 . S
C2756 C2758 1.394 . S
C2756 H2772 0.931 . S
C2757 C2756 1.391 . S
C2757 C2761 1.376 . S
C2758 C2756 1.394 . S
C2758 C2759 1.369 . S
C2758 C2762 1.531 . S
C2759 C2758 1.369 . S
C2759 C2760 1.410 . S
C2759 C2767 1.503 . S
C2760 C2759 1.410 . S
C2760 C2761 1.392 . S
C2760 C2763 1.511 . S
C2761 C2757 1.376 . S
C2761 C2760 1.392 . S
C2761 H2773 0.929 . S
C2762 C2758 1.531 . S
C2762 H2774 0.960 . S
C2762 H2775 0.962 . S
C2762 H2776 0.960 . S
C2763 C2760 1.511 . S
C2763 H2777 0.961 . S
C2763 H2778 0.961 . S
C2763 H2779 0.961 . S
C2764 C2765 1.370 . S
C2764 C2766 1.363 . S
C2764 H2780 0.931 . S
C2765 C2764 1.370 . S
C2765 C2769 1.408 . S
C2766 C2764 1.363 . S
C2766 C2767 1.370 . S
C2766 C2770 1.524 . S
C2767 C2759 1.503 . S
C2767 C2766 1.370 . S
C2767 C2768 1.403 . S
C2768 C2767 1.403 . S
C2768 C2769 1.404 . S
C2768 C2771 1.539 . S
C2769 C2765 1.408 . S
C2769 C2768 1.404 . S
C2769 H2781 0.930 . S
C2770 C2766 1.524 . S
C2770 H2782 0.956 . S
C2770 H2783 0.961 . S
C2770 H2784 0.961 . S
C2771 C2768 1.539 . S
C2771 H2785 0.958 . S
C2771 H2786 0.961 . S
C2771 H2787 0.960 . S
H2772 C2756 0.931 . S
H2773 C2761 0.929 . S
H2774 C2762 0.960 . S
H2775 C2762 0.962 . S
H2776 C2762 0.960 . S
H2777 C2763 0.961 . S
H2778 C2763 0.961 . S
H2779 C2763 0.961 . S
H2780 C2764 0.931 . S
H2781 C2769 0.930 . S
H2782 C2770 0.956 . S
H2783 C2770 0.961 . S
H2784 C2770 0.961 . S
H2785 C2771 0.958 . S
H2786 C2771 0.961 . S
H2787 C2771 0.960 . S
C2788 C2789 1.391 1_545 S
C2788 C2790 1.394 . S
C2788 H2804 0.931 1_545 S
C2789 C2788 1.391 1_565 S
C2789 C2793 1.376 1_565 S
C2790 C2788 1.394 . S
C2790 C2791 1.369 . S
C2790 C2794 1.531 . S
C2791 C2790 1.369 . S
C2791 C2792 1.410 . S
C2791 C2799 1.503 . S
C2792 C2791 1.410 . S
C2792 C2793 1.392 . S
C2792 C2795 1.511 . S
C2793 C2789 1.376 1_545 S
C2793 C2792 1.392 . S
C2793 H2805 0.929 1_545 S
C2794 C2790 1.531 . S
C2794 H2806 0.960 . S
C2794 H2807 0.962 . S
C2794 H2808 0.960 . S
C2795 C2792 1.511 . S
C2795 H2809 0.961 . S
C2795 H2810 0.961 . S
C2795 H2811 0.961 . S
C2796 C2797 1.370 . S
C2796 C2798 1.363 . S
C2796 H2812 0.931 . S
C2797 C2796 1.370 . S
C2797 C2801 1.408 . S
C2798 C2796 1.363 . S
C2798 C2799 1.370 . S
C2798 C2802 1.524 . S
C2799 C2791 1.503 . S
C2799 C2798 1.370 . S
C2799 C2800 1.403 . S
C2800 C2799 1.403 . S
C2800 C2801 1.404 . S
C2800 C2803 1.539 . S
C2801 C2797 1.408 . S
C2801 C2800 1.404 . S
C2801 H2813 0.930 . S
C2802 C2798 1.524 . S
C2802 H2814 0.956 . S
C2802 H2815 0.961 . S
C2802 H2816 0.961 . S
C2803 C2800 1.539 . S
C2803 H2817 0.958 . S
C2803 H2818 0.961 . S
C2803 H2819 0.960 . S
H2804 C2788 0.931 1_565 S
H2805 C2793 0.929 1_565 S
H2806 C2794 0.960 . S
H2807 C2794 0.962 . S
H2808 C2794 0.960 . S
H2809 C2795 0.961 . S
H2810 C2795 0.961 . S
H2811 C2795 0.961 . S
H2812 C2796 0.931 . S
H2813 C2801 0.930 . S
H2814 C2802 0.956 . S
H2815 C2802 0.961 . S
H2816 C2802 0.961 . S
H2817 C2803 0.958 . S
H2818 C2803 0.961 . S
H2819 C2803 0.960 . S
C2820 C2821 1.391 1_455 S
C2820 C2822 1.394 . S
C2820 H2836 0.931 . S
C2821 C2820 1.391 1_655 S
C2821 C2825 1.376 . S
C2822 C2820 1.394 . S
C2822 C2823 1.369 . S
C2822 C2826 1.531 . S
C2823 C2822 1.369 . S
C2823 C2824 1.410 1_455 S
C2823 C2831 1.503 . S
C2824 C2823 1.410 1_655 S
C2824 C2825 1.392 . S
C2824 C2827 1.511 . S
C2825 C2821 1.376 . S
C2825 C2824 1.392 . S
C2825 H2837 0.929 . S
C2826 C2822 1.531 . S
C2826 H2838 0.960 . S
C2826 H2839 0.962 . S
C2826 H2840 0.960 . S
C2827 C2824 1.511 . S
C2827 H2841 0.961 . S
C2827 H2842 0.961 . S
C2827 H2843 0.961 . S
C2828 C2829 1.370 . S
C2828 C2830 1.363 . S
C2828 H2844 0.931 . S
C2829 C2828 1.370 . S
C2829 C2833 1.408 . S
C2830 C2828 1.363 . S
C2830 C2831 1.370 . S
C2830 C2834 1.524 . S
C2831 C2823 1.503 . S
C2831 C2830 1.370 . S
C2831 C2832 1.403 . S
C2832 C2831 1.403 . S
C2832 C2833 1.404 . S
C2832 C2835 1.539 . S
C2833 C2829 1.408 . S
C2833 C2832 1.404 . S
C2833 H2845 0.930 . S
C2834 C2830 1.524 . S
C2834 H2846 0.956 . S
C2834 H2847 0.961 . S
C2834 H2848 0.961 . S
C2835 C2832 1.539 . S
C2835 H2849 0.958 . S
C2835 H2850 0.946 1_455 S
C2835 H2851 0.960 1_455 S
H2836 C2820 0.931 . S
H2837 C2825 0.929 . S
H2838 C2826 0.960 . S
H2839 C2826 0.962 . S
H2840 C2826 0.960 . S
H2841 C2827 0.961 . S
H2842 C2827 0.961 . S
H2843 C2827 0.961 . S
H2844 C2828 0.931 . S
H2845 C2833 0.930 . S
H2846 C2834 0.956 . S
H2847 C2834 0.961 . S
H2848 C2834 0.961 . S
H2849 C2835 0.958 . S
H2850 C2835 0.946 1_655 S
H2851 C2835 0.960 1_655 S
C2852 C2853 1.391 . S
C2852 C2854 1.394 . S
C2852 H2868 0.931 . S
C2853 C2852 1.391 . S
C2853 C2857 1.376 . S
C2854 C2852 1.394 . S
C2854 C2855 1.369 . S
C2854 C2858 1.531 . S
C2855 C2854 1.369 . S
C2855 C2856 1.410 . S
C2855 C2863 1.503 . S
C2856 C2855 1.410 . S
C2856 C2857 1.392 . S
C2856 C2859 1.511 . S
C2857 C2853 1.376 . S
C2857 C2856 1.392 . S
C2857 H2869 0.929 . S
C2858 C2854 1.531 . S
C2858 H2870 0.960 . S
C2858 H2871 0.962 . S
C2858 H2872 0.960 . S
C2859 C2856 1.511 . S
C2859 H2873 0.961 . S
C2859 H2874 0.961 . S
C2859 H2875 0.961 . S
C2860 C2861 1.370 . S
C2860 C2862 1.363 . S
C2860 H2876 0.931 . S
C2861 C2860 1.370 . S
C2861 C2865 1.408 . S
C2862 C2860 1.363 . S
C2862 C2863 1.370 . S
C2862 C2866 1.524 . S
C2863 C2855 1.503 . S
C2863 C2862 1.370 . S
C2863 C2864 1.403 . S
C2864 C2863 1.403 . S
C2864 C2865 1.404 . S
C2864 C2867 1.539 . S
C2865 C2861 1.408 . S
C2865 C2864 1.404 . S
C2865 H2877 0.930 . S
C2866 C2862 1.524 . S
C2866 H2878 0.956 . S
C2866 H2879 0.961 . S
C2866 H2880 0.961 . S
C2867 C2864 1.539 . S
C2867 H2881 0.958 . S
C2867 H2882 0.961 . S
C2867 H2883 0.960 . S
H2868 C2852 0.931 . S
H2869 C2857 0.929 . S
H2870 C2858 0.960 . S
H2871 C2858 0.962 . S
H2872 C2858 0.960 . S
H2873 C2859 0.961 . S
H2874 C2859 0.961 . S
H2875 C2859 0.961 . S
H2876 C2860 0.931 . S
H2877 C2865 0.930 . S
H2878 C2866 0.956 . S
H2879 C2866 0.961 . S
H2880 C2866 0.961 . S
H2881 C2867 0.958 . S
H2882 C2867 0.961 . S
H2883 C2867 0.960 . S
C2884 C2885 1.391 . S
C2884 C2886 1.394 . S
C2884 H2900 0.931 . S
C2885 C2884 1.391 . S
C2885 C2889 1.376 1_545 S
C2886 C2884 1.394 . S
C2886 C2887 1.369 1_545 S
C2886 C2890 1.531 . S
C2887 C2886 1.369 1_565 S
C2887 C2888 1.410 . S
C2887 C2895 1.503 . S
C2888 C2887 1.410 . S
C2888 C2889 1.392 . S
C2888 C2891 1.511 . S
C2889 C2885 1.376 1_565 S
C2889 C2888 1.392 . S
C2889 H2901 0.929 . S
C2890 C2886 1.531 . S
C2890 H2902 0.960 . S
C2890 H2903 0.962 . S
C2890 H2904 0.960 . S
C2891 C2888 1.511 . S
C2891 H2905 0.961 . S
C2891 H2906 0.961 . S
C2891 H2907 0.961 . S
C2892 C2893 1.370 . S
C2892 C2894 1.363 . S
C2892 H2908 0.931 . S
C2893 C2892 1.370 . S
C2893 C2897 1.408 . S
C2894 C2892 1.363 . S
C2894 C2895 1.370 . S
C2894 C2898 1.524 . S
C2895 C2887 1.503 . S
C2895 C2894 1.370 . S
C2895 C2896 1.403 1_565 S
C2896 C2895 1.403 1_545 S
C2896 C2897 1.404 1_545 S
C2896 C2899 1.539 . S
C2897 C2893 1.408 . S
C2897 C2896 1.404 1_565 S
C2897 H2909 0.930 1_565 S
C2898 C2894 1.524 . S
C2898 H2910 0.956 . S
C2898 H2911 0.961 . S
C2898 H2912 0.961 . S
C2899 C2896 1.539 . S
C2899 H2913 0.958 . S
C2899 H2914 0.961 . S
C2899 H2915 0.960 . S
H2900 C2884 0.931 . S
H2901 C2889 0.929 . S
H2902 C2890 0.960 . S
H2903 C2890 0.962 . S
H2904 C2890 0.960 . S
H2905 C2891 0.961 . S
H2906 C2891 0.961 . S
H2907 C2891 0.961 . S
H2908 C2892 0.931 . S
H2909 C2897 0.930 1_545 S
H2910 C2898 0.956 . S
H2911 C2898 0.961 . S
H2912 C2898 0.961 . S
H2913 C2899 0.958 . S
H2914 C2899 0.961 . S
H2915 C2899 0.960 . S
C2916 C2917 1.391 . S
C2916 C2918 1.394 . S
C2916 H2932 0.931 . S
C2917 C2916 1.391 . S
C2917 C2921 1.376 . S
C2918 C2916 1.394 . S
C2918 C2919 1.369 . S
C2918 C2922 1.531 . S
C2919 C2918 1.369 . S
C2919 C2920 1.410 . S
C2919 C2927 1.503 . S
C2920 C2919 1.410 . S
C2920 C2921 1.392 . S
C2920 C2923 1.511 1_565 S
C2921 C2917 1.376 . S
C2921 C2920 1.392 . S
C2921 H2933 0.929 . S
C2922 C2918 1.531 . S
C2922 H2934 0.960 . S
C2922 H2935 0.962 . S
C2922 H2936 0.960 . S
C2923 C2920 1.511 1_545 S
C2923 H2937 0.961 . S
C2923 H2938 0.961 . S
C2923 H2939 0.961 . S
C2924 C2925 1.370 1_565 S
C2924 C2926 1.363 . S
C2924 H2940 0.931 . S
C2925 C2924 1.370 1_545 S
C2925 C2929 1.408 . S
C2926 C2924 1.363 . S
C2926 C2927 1.370 . S
C2926 C2930 1.524 . S
C2927 C2919 1.503 . S
C2927 C2926 1.370 . S
C2927 C2928 1.403 1_565 S
C2928 C2927 1.403 1_545 S
C2928 C2929 1.404 . S
C2928 C2931 1.539 . S
C2929 C2925 1.408 . S
C2929 C2928 1.404 . S
C2929 H2941 0.930 . S
C2930 C2926 1.524 . S
C2930 H2942 0.956 . S
C2930 H2943 0.961 . S
C2930 H2944 0.961 . S
C2931 C2928 1.539 . S
C2931 H2945 0.958 . S
C2931 H2946 0.961 . S
C2931 H2947 0.960 . S
H2932 C2916 0.931 . S
H2933 C2921 0.929 . S
H2934 C2922 0.960 . S
H2935 C2922 0.962 . S
H2936 C2922 0.960 . S
H2937 C2923 0.961 . S
H2938 C2923 0.961 . S
H2939 C2923 0.961 . S
H2940 C2924 0.931 . S
H2941 C2929 0.930 . S
H2942 C2930 0.956 . S
H2943 C2930 0.961 . S
H2944 C2930 0.961 . S
H2945 C2931 0.958 . S
H2946 C2931 0.961 . S
H2947 C2931 0.960 . S
C2948 C2949 1.391 . S
C2948 C2950 1.394 . S
C2948 H2964 0.931 . S
C2949 C2948 1.391 . S
C2949 C2953 1.376 1_655 S
C2950 C2948 1.394 . S
C2950 C2951 1.369 1_655 S
C2950 C2954 1.531 . S
C2951 C2950 1.369 1_455 S
C2951 C2952 1.410 . S
C2951 C2959 1.503 . S
C2952 C2951 1.410 . S
C2952 C2953 1.392 . S
C2952 C2955 1.511 . S
C2953 C2949 1.376 1_455 S
C2953 C2952 1.392 . S
C2953 H2965 0.929 . S
C2954 C2950 1.531 . S
C2954 H2966 0.960 . S
C2954 H2967 0.962 . S
C2954 H2968 0.960 . S
C2955 C2952 1.511 . S
C2955 H2969 0.961 . S
C2955 H2970 0.961 . S
C2955 H2971 0.961 . S
C2956 C2957 1.370 . S
C2956 C2958 1.363 . S
C2956 H2972 0.931 . S
C2957 C2956 1.370 . S
C2957 C2961 1.408 . S
C2958 C2956 1.363 . S
C2958 C2959 1.370 . S
C2958 C2962 1.524 . S
C2959 C2951 1.503 . S
C2959 C2958 1.370 . S
C2959 C2960 1.403 . S
C2960 C2959 1.403 . S
C2960 C2961 1.404 . S
C2960 C2963 1.539 1_455 S
C2961 C2957 1.408 . S
C2961 C2960 1.404 . S
C2961 H2973 0.930 . S
C2962 C2958 1.524 . S
C2962 H2974 0.956 . S
C2962 H2975 0.961 . S
C2962 H2976 0.961 . S
C2963 C2960 1.539 1_655 S
C2963 H2977 0.958 . S
C2963 H2978 0.961 1_655 S
C2963 H2979 0.960 1_655 S
H2964 C2948 0.931 . S
H2965 C2953 0.929 . S
H2966 C2954 0.960 . S
H2967 C2954 0.962 . S
H2968 C2954 0.960 . S
H2969 C2955 0.961 . S
H2970 C2955 0.961 . S
H2971 C2955 0.961 . S
H2972 C2956 0.931 . S
H2973 C2961 0.930 . S
H2974 C2962 0.956 . S
H2975 C2962 0.961 . S
H2976 C2962 0.961 . S
H2977 C2963 0.958 . S
H2978 C2963 0.961 1_455 S
H2979 C2963 0.960 1_455 S
C2980 C2981 1.391 . S
C2980 C2982 1.394 . S
C2980 H2996 0.931 . S
C2981 C2980 1.391 . S
C2981 C2985 1.376 . S
C2982 C2980 1.394 . S
C2982 C2983 1.369 . S
C2982 C2986 1.531 . S
C2983 C2982 1.369 . S
C2983 C2984 1.410 . S
C2983 C2991 1.503 . S
C2984 C2983 1.410 . S
C2984 C2985 1.392 . S
C2984 C2987 1.511 . S
C2985 C2981 1.376 . S
C2985 C2984 1.392 . S
C2985 H2997 0.929 . S
C2986 C2982 1.531 . S
C2986 H2998 0.960 . S
C2986 H2999 0.962 . S
C2986 H3000 0.960 . S
C2987 C2984 1.511 . S
C2987 H3001 0.961 . S
C2987 H3002 0.961 . S
C2987 H3003 0.961 . S
C2988 C2989 1.370 . S
C2988 C2990 1.363 . S
C2988 H3004 0.931 . S
C2989 C2988 1.370 . S
C2989 C2993 1.408 . S
C2990 C2988 1.363 . S
C2990 C2991 1.370 . S
C2990 C2994 1.524 . S
C2991 C2983 1.503 . S
C2991 C2990 1.370 . S
C2991 C2992 1.403 . S
C2992 C2991 1.403 . S
C2992 C2993 1.404 . S
C2992 C2995 1.539 . S
C2993 C2989 1.408 . S
C2993 C2992 1.404 . S
C2993 H3005 0.930 . S
C2994 C2990 1.524 . S
C2994 H3006 0.956 . S
C2994 H3007 0.961 . S
C2994 H3008 0.961 . S
C2995 C2992 1.539 . S
C2995 H3009 0.958 . S
C2995 H3010 0.961 . S
C2995 H3011 0.960 . S
H2996 C2980 0.931 . S
H2997 C2985 0.929 . S
H2998 C2986 0.960 . S
H2999 C2986 0.962 . S
H3000 C2986 0.960 . S
H3001 C2987 0.961 . S
H3002 C2987 0.961 . S
H3003 C2987 0.961 . S
H3004 C2988 0.931 . S
H3005 C2993 0.930 . S
H3006 C2994 0.956 . S
H3007 C2994 0.961 . S
H3008 C2994 0.961 . S
H3009 C2995 0.958 . S
H3010 C2995 0.961 . S
H3011 C2995 0.960 . S
C3012 C3013 1.391 . S
C3012 C3014 1.394 1_565 S
C3012 H3028 0.931 . S
C3013 C3012 1.391 . S
C3013 C3017 1.376 1_565 S
C3014 C3012 1.394 1_545 S
C3014 C3015 1.369 . S
C3014 C3018 1.531 1_556 S
C3015 C3014 1.369 . S
C3015 C3016 1.410 . S
C3015 C3023 1.503 1_556 S
C3016 C3015 1.410 . S
C3016 C3017 1.392 . S
C3016 C3019 1.511 . S
C3017 C3013 1.376 1_545 S
C3017 C3016 1.392 . S
C3017 H3029 0.929 . S
C3018 C3014 1.531 1_554 S
C3018 H3030 0.960 . S
C3018 H3031 1.012 . S
C3018 H3032 0.960 1_545 S
C3019 C3016 1.511 . S
C3019 H3033 0.961 . S
C3019 H3034 0.961 . S
C3019 H3035 1.019 . S
C3020 C3021 1.370 . S
C3020 C3022 1.360 . S
C3020 H3036 0.931 . S
C3021 C3020 1.370 . S
C3021 C3025 1.408 . S
C3022 C3020 1.360 . S
C3022 C3023 1.368 . S
C3022 C3026 1.530 1_554 S
C3023 C3015 1.503 1_554 S
C3023 C3022 1.368 . S
C3023 C3024 1.403 . S
C3024 C3023 1.403 . S
C3024 C3025 1.404 . S
C3024 C3027 1.539 . S
C3025 C3021 1.408 . S
C3025 C3024 1.404 . S
C3025 H3037 0.930 . S
C3026 C3022 1.530 1_556 S
C3026 H3038 0.956 . S
C3026 H3039 0.961 . S
C3026 H3040 0.961 . S
C3027 C3024 1.539 . S
C3027 H3041 0.958 . S
C3027 H3042 0.961 . S
C3027 H3043 0.960 . S
H3028 C3012 0.931 . S
H3029 C3017 0.929 . S
H3030 C3018 0.960 . S
H3031 C3018 1.012 . S
H3032 C3018 0.960 1_565 S
H3033 C3019 0.961 . S
H3034 C3019 0.961 . S
H3035 C3019 1.019 . S
H3036 C3020 0.931 . S
H3037 C3025 0.930 . S
H3038 C3026 0.956 . S
H3039 C3026 0.961 . S
H3040 C3026 0.961 . S
H3041 C3027 0.958 . S
H3042 C3027 0.961 . S
H3043 C3027 0.960 . S
C3044 C3045 1.391 . S
C3044 C3046 1.393 . S
C3044 H3060 0.931 . S
C3045 C3044 1.391 . S
C3045 C3049 1.376 . S
C3046 C3044 1.393 . S
C3046 C3047 1.369 . S
C3046 C3050 1.531 1_554 S
C3047 C3046 1.369 . S
C3047 C3048 1.410 . S
C3047 C3055 1.503 1_554 S
C3048 C3047 1.410 . S
C3048 C3049 1.392 . S
C3048 C3051 1.511 . S
C3049 C3045 1.376 . S
C3049 C3048 1.392 . S
C3049 H3061 0.929 . S
C3050 C3046 1.531 1_556 S
C3050 H3062 0.960 . S
C3050 H3063 0.962 . S
C3050 H3064 0.960 . S
C3051 C3048 1.511 . S
C3051 H3065 0.961 . S
C3051 H3066 0.961 . S
C3051 H3067 0.961 . S
C3052 C3053 1.370 . S
C3052 C3054 1.425 1_455 S
C3052 H3068 0.931 . S
C3053 C3052 1.370 . S
C3053 C3057 1.408 1_455 S
C3054 C3052 1.425 1_655 S
C3054 C3055 1.409 . S
C3054 C3058 1.432 1_556 S
C3055 C3047 1.503 1_556 S
C3055 C3054 1.409 . S
C3055 C3056 1.403 . S
C3056 C3055 1.403 . S
C3056 C3057 1.404 . S
C3056 C3059 1.539 . S
C3057 C3053 1.408 1_655 S
C3057 C3056 1.404 . S
C3057 H3069 0.930 . S
C3058 C3054 1.432 1_554 S
C3058 H3070 0.956 . S
C3058 H3071 0.961 . S
C3058 H3072 0.961 1_655 S
C3059 C3056 1.539 . S
C3059 H3073 0.958 . S
C3059 H3074 0.961 . S
C3059 H3075 0.960 . S
H3060 C3044 0.931 . S
H3061 C3049 0.929 . S
H3062 C3050 0.960 . S
H3063 C3050 0.962 . S
H3064 C3050 0.960 . S
H3065 C3051 0.961 . S
H3066 C3051 0.961 . S
H3067 C3051 0.961 . S
H3068 C3052 0.931 . S
H3069 C3057 0.930 . S
H3070 C3058 0.956 . S
H3071 C3058 0.961 . S
H3072 C3058 0.961 1_455 S
H3073 C3059 0.958 . S
H3074 C3059 0.961 . S
H3075 C3059 0.960 . S
C3076 C3077 1.391 . S
C3076 C3078 1.347 1_554 S
C3076 H3092 0.931 . S
C3077 C3076 1.391 . S
C3077 C3081 1.376 . S
C3078 C3076 1.347 1_556 S
C3078 C3079 1.349 1_556 S
C3078 C3082 1.603 . S
C3079 C3078 1.349 1_554 S
C3079 C3080 1.410 . S
C3079 C3087 1.503 1_554 S
C3080 C3079 1.410 . S
C3080 C3081 1.392 . S
C3080 C3083 1.511 . S
C3081 C3077 1.376 . S
C3081 C3080 1.392 . S
C3081 H3093 0.929 . S
C3082 C3078 1.603 . S
C3082 H3094 0.960 . S
C3082 H3095 0.962 . S
C3082 H3096 0.960 . S
C3083 C3080 1.511 . S
C3083 H3097 0.961 . S
C3083 H3098 0.961 . S
C3083 H3099 0.961 . S
C3084 C3085 1.370 . S
C3084 C3086 1.363 . S
C3084 H3100 0.931 . S
C3085 C3084 1.370 . S
C3085 C3089 1.408 . S
C3086 C3084 1.363 . S
C3086 C3087 1.370 . S
C3086 C3090 1.524 1_556 S
C3087 C3079 1.503 1_556 S
C3087 C3086 1.370 . S
C3087 C3088 1.403 . S
C3088 C3087 1.403 . S
C3088 C3089 1.404 . S
C3088 C3091 1.539 . S
C3089 C3085 1.408 . S
C3089 C3088 1.404 . S
C3089 H3101 0.930 . S
C3090 C3086 1.524 1_554 S
C3090 H3102 0.956 . S
C3090 H3103 0.961 . S
C3090 H3104 0.961 . S
C3091 C3088 1.539 . S
C3091 H3105 0.958 . S
C3091 H3106 0.961 . S
C3091 H3107 0.960 . S
H3092 C3076 0.931 . S
H3093 C3081 0.929 . S
H3094 C3082 0.960 . S
H3095 C3082 0.962 . S
H3096 C3082 0.960 . S
H3097 C3083 0.961 . S
H3098 C3083 0.961 . S
H3099 C3083 0.961 . S
H3100 C3084 0.931 . S
H3101 C3089 0.930 . S
H3102 C3090 0.956 . S
H3103 C3090 0.961 . S
H3104 C3090 0.961 . S
H3105 C3091 0.958 . S
H3106 C3091 0.961 . S
H3107 C3091 0.960 . S
C3108 C3109 1.391 . S
C3108 C3110 1.394 . S
C3108 H3124 0.931 . S
C3109 C3108 1.391 . S
C3109 C3113 1.376 . S
C3110 C3108 1.394 . S
C3110 C3111 1.369 . S
C3110 C3114 1.531 . S
C3111 C3110 1.369 . S
C3111 C3112 1.410 . S
C3111 C3119 1.503 . S
C3112 C3111 1.410 . S
C3112 C3113 1.392 . S
C3112 C3115 1.511 1_545 S
C3113 C3109 1.376 . S
C3113 C3112 1.392 . S
C3113 H3125 0.929 . S
C3114 C3110 1.531 . S
C3114 H3126 0.960 . S
C3114 H3127 0.962 . S
C3114 H3128 0.960 . S
C3115 C3112 1.511 1_565 S
C3115 H3129 0.961 . S
C3115 H3130 0.961 . S
C3115 H3131 0.961 . S
C3116 C3117 1.370 1_545 S
C3116 C3118 1.363 . S
C3116 H3132 0.931 . S
C3117 C3116 1.370 1_565 S
C3117 C3121 1.408 . S
C3118 C3116 1.363 . S
C3118 C3119 1.370 . S
C3118 C3122 1.524 . S
C3119 C3111 1.503 . S
C3119 C3118 1.370 . S
C3119 C3120 1.403 1_545 S
C3120 C3119 1.403 1_565 S
C3120 C3121 1.404 . S
C3120 C3123 1.539 . S
C3121 C3117 1.408 . S
C3121 C3120 1.404 . S
C3121 H3133 0.930 . S
C3122 C3118 1.524 . S
C3122 H3134 0.956 . S
C3122 H3135 0.961 . S
C3122 H3136 0.961 . S
C3123 C3120 1.539 . S
C3123 H3137 0.958 . S
C3123 H3138 0.961 . S
C3123 H3139 0.960 . S
H3124 C3108 0.931 . S
H3125 C3113 0.929 . S
H3126 C3114 0.960 . S
H3127 C3114 0.962 . S
H3128 C3114 0.960 . S
H3129 C3115 0.961 . S
H3130 C3115 0.961 . S
H3131 C3115 0.961 . S
H3132 C3116 0.931 . S
H3133 C3121 0.930 . S
H3134 C3122 0.956 . S
H3135 C3122 0.961 . S
H3136 C3122 0.961 . S
H3137 C3123 0.958 . S
H3138 C3123 0.961 . S
H3139 C3123 0.960 . S
C3140 C3141 1.391 . S
C3140 C3142 1.391 1_655 S
C3140 H3156 0.931 1_655 S
C3141 C3140 1.391 . S
C3141 C3145 1.376 . S
C3142 C3140 1.391 1_455 S
C3142 C3143 1.368 1_455 S
C3142 C3146 1.534 . S
C3143 C3142 1.368 1_655 S
C3143 C3144 1.410 . S
C3143 C3151 1.503 . S
C3144 C3143 1.410 . S
C3144 C3145 1.392 . S
C3144 C3147 1.511 . S
C3145 C3141 1.376 . S
C3145 C3144 1.392 . S
C3145 H3157 0.929 . S
C3146 C3142 1.534 . S
C3146 H3158 0.960 . S
C3146 H3159 0.962 . S
C3146 H3160 0.960 . S
C3147 C3144 1.511 . S
C3147 H3161 0.961 . S
C3147 H3162 0.961 . S
C3147 H3163 0.961 . S
C3148 C3149 1.370 . S
C3148 C3150 1.363 . S
C3148 H3164 0.931 . S
C3149 C3148 1.370 . S
C3149 C3153 1.408 1_455 S
C3150 C3148 1.363 . S
C3150 C3151 1.370 1_455 S
C3150 C3154 1.524 . S
C3151 C3143 1.503 . S
C3151 C3150 1.370 1_655 S
C3151 C3152 1.403 . S
C3152 C3151 1.403 . S
C3152 C3153 1.404 . S
C3152 C3155 1.539 . S
C3153 C3149 1.408 1_655 S
C3153 C3152 1.404 . S
C3153 H3165 0.930 . S
C3154 C3150 1.524 . S
C3154 H3166 0.956 . S
C3154 H3167 0.961 1_455 S
C3154 H3168 0.961 . S
C3155 C3152 1.539 . S
C3155 H3169 0.958 . S
C3155 H3170 0.961 . S
C3155 H3171 0.960 . S
H3156 C3140 0.931 1_455 S
H3157 C3145 0.929 . S
H3158 C3146 0.960 . S
H3159 C3146 0.962 . S
H3160 C3146 0.960 . S
H3161 C3147 0.961 . S
H3162 C3147 0.961 . S
H3163 C3147 0.961 . S
H3164 C3148 0.931 . S
H3165 C3153 0.930 . S
H3166 C3154 0.956 . S
H3167 C3154 0.961 1_655 S
H3168 C3154 0.961 . S
H3169 C3155 0.958 . S
H3170 C3155 0.961 . S
H3171 C3155 0.960 . S
C3172 C3173 1.391 . S
C3172 C3174 1.394 . S
C3172 H3188 0.931 . S
C3173 C3172 1.391 . S
C3173 C3177 1.376 . S
C3174 C3172 1.394 . S
C3174 C3175 1.369 . S
C3174 C3178 1.531 . S
C3175 C3174 1.369 . S
C3175 C3176 1.410 . S
C3175 C3183 1.503 . S
C3176 C3175 1.410 . S
C3176 C3177 1.392 . S
C3176 C3179 1.511 . S
C3177 C3173 1.376 . S
C3177 C3176 1.392 . S
C3177 H3189 0.929 . S
C3178 C3174 1.531 . S
C3178 H3190 0.960 . S
C3178 H3191 0.962 . S
C3178 H3192 0.960 . S
C3179 C3176 1.511 . S
C3179 H3193 0.961 . S
C3179 H3194 0.961 . S
C3179 H3195 0.961 . S
C3180 C3181 1.370 . S
C3180 C3182 1.363 . S
C3180 H3196 0.931 . S
C3181 C3180 1.370 . S
C3181 C3185 1.408 . S
C3182 C3180 1.363 . S
C3182 C3183 1.370 . S
C3182 C3186 1.524 . S
C3183 C3175 1.503 . S
C3183 C3182 1.370 . S
C3183 C3184 1.403 . S
C3184 C3183 1.403 . S
C3184 C3185 1.404 . S
C3184 C3187 1.539 . S
C3185 C3181 1.408 . S
C3185 C3184 1.404 . S
C3185 H3197 0.930 . S
C3186 C3182 1.524 . S
C3186 H3198 0.956 . S
C3186 H3199 0.961 . S
C3186 H3200 0.961 . S
C3187 C3184 1.539 . S
C3187 H3201 0.958 . S
C3187 H3202 0.961 . S
C3187 H3203 0.960 . S
H3188 C3172 0.931 . S
H3189 C3177 0.929 . S
H3190 C3178 0.960 . S
H3191 C3178 0.962 . S
H3192 C3178 0.960 . S
H3193 C3179 0.961 . S
H3194 C3179 0.961 . S
H3195 C3179 0.961 . S
H3196 C3180 0.931 . S
H3197 C3185 0.930 . S
H3198 C3186 0.956 . S
H3199 C3186 0.961 . S
H3200 C3186 0.961 . S
H3201 C3187 0.958 . S
H3202 C3187 0.961 . S
H3203 C3187 0.960 . S
C3204 C3205 1.391 . S
C3204 C3206 1.393 . S
C3204 H3220 0.931 . S
C3205 C3204 1.391 . S
C3205 C3209 1.376 . S
C3206 C3204 1.393 . S
C3206 C3207 1.369 . S
C3206 C3210 1.532 1_556 S
C3207 C3206 1.369 . S
C3207 C3208 1.410 . S
C3207 C3215 1.503 1_556 S
C3208 C3207 1.410 . S
C3208 C3209 1.392 . S
C3208 C3211 1.511 . S
C3209 C3205 1.376 . S
C3209 C3208 1.392 . S
C3209 H3221 0.929 . S
C3210 C3206 1.532 1_554 S
C3210 H3222 0.960 . S
C3210 H3223 0.962 . S
C3210 H3224 0.960 . S
C3211 C3208 1.511 . S
C3211 H3225 0.961 . S
C3211 H3226 0.961 . S
C3211 H3227 0.961 . S
C3212 C3213 1.370 . S
C3212 C3214 1.426 1_545 S
C3212 H3228 0.931 . S
C3213 C3212 1.370 . S
C3213 C3217 1.408 1_545 S
C3214 C3212 1.426 1_565 S
C3214 C3215 1.409 . S
C3214 C3218 1.431 1_554 S
C3215 C3207 1.503 1_554 S
C3215 C3214 1.409 . S
C3215 C3216 1.403 . S
C3216 C3215 1.403 . S
C3216 C3217 1.404 . S
C3216 C3219 1.539 . S
C3217 C3213 1.408 1_565 S
C3217 C3216 1.404 . S
C3217 H3229 0.930 . S
C3218 C3214 1.431 1_556 S
C3218 H3230 0.956 . S
C3218 H3231 0.961 . S
C3218 H3232 0.961 . S
C3219 C3216 1.539 . S
C3219 H3233 0.958 . S
C3219 H3234 0.961 . S
C3219 H3235 0.960 . S
H3220 C3204 0.931 . S
H3221 C3209 0.929 . S
H3222 C3210 0.960 . S
H3223 C3210 0.962 . S
H3224 C3210 0.960 . S
H3225 C3211 0.961 . S
H3226 C3211 0.961 . S
H3227 C3211 0.961 . S
H3228 C3212 0.931 . S
H3229 C3217 0.930 . S
H3230 C3218 0.956 . S
H3231 C3218 0.961 . S
H3232 C3218 0.961 . S
H3233 C3219 0.958 . S
H3234 C3219 0.961 . S
H3235 C3219 0.960 . S
C3236 C3237 1.391 1_455 S
C3236 C3238 1.394 . S
C3236 H3252 0.931 1_455 S
C3237 C3236 1.391 1_655 S
C3237 C3241 1.376 . S
C3238 C3236 1.394 . S
C3238 C3239 1.369 . S
C3238 C3242 1.531 1_554 S
C3239 C3238 1.369 . S
C3239 C3240 1.410 . S
C3239 C3247 1.503 1_554 S
C3240 C3239 1.410 . S
C3240 C3241 1.392 1_455 S
C3240 C3243 1.511 . S
C3241 C3237 1.376 . S
C3241 C3240 1.392 1_655 S
C3241 H3253 0.929 . S
C3242 C3238 1.531 1_556 S
C3242 H3254 0.960 . S
C3242 H3255 0.954 . S
C3242 H3256 0.960 . S
C3243 C3240 1.511 . S
C3243 H3257 0.961 . S
C3243 H3258 0.961 . S
C3243 H3259 0.957 1_554 S
C3244 C3245 1.370 . S
C3244 C3246 1.369 1_556 S
C3244 H3260 0.931 . S
C3245 C3244 1.370 . S
C3245 C3249 1.408 . S
C3246 C3244 1.369 1_554 S
C3246 C3247 1.376 1_554 S
C3246 C3250 1.513 . S
C3247 C3239 1.503 1_556 S
C3247 C3246 1.376 1_556 S
C3247 C3248 1.403 . S
C3248 C3247 1.403 . S
C3248 C3249 1.404 . S
C3248 C3251 1.539 . S
C3249 C3245 1.408 . S
C3249 C3248 1.404 . S
C3249 H3261 0.930 . S
C3250 C3246 1.513 . S
C3250 H3262 0.956 . S
C3250 H3263 0.961 . S
C3250 H3264 0.961 . S
C3251 C3248 1.539 . S
C3251 H3265 0.958 . S
C3251 H3266 0.961 . S
C3251 H3267 0.960 . S
H3252 C3236 0.931 1_655 S
H3253 C3241 0.929 . S
H3254 C3242 0.960 . S
H3255 C3242 0.954 . S
H3256 C3242 0.960 . S
H3257 C3243 0.961 . S
H3258 C3243 0.961 . S
H3259 C3243 0.957 1_556 S
H3260 C3244 0.931 . S
H3261 C3249 0.930 . S
H3262 C3250 0.956 . S
H3263 C3250 0.961 . S
H3264 C3250 0.961 . S
H3265 C3251 0.958 . S
H3266 C3251 0.961 . S
H3267 C3251 0.960 . S
C3268 C3269 1.391 . S
C3268 C3270 1.394 . S
C3268 H3284 0.931 . S
C3269 C3268 1.391 . S
C3269 C3273 1.376 . S
C3270 C3268 1.394 . S
C3270 C3271 1.369 . S
C3270 C3274 1.531 . S
C3271 C3270 1.369 . S
C3271 C3272 1.415 . S
C3271 C3279 1.503 1_556 S
C3272 C3271 1.415 . S
C3272 C3273 1.399 . S
C3272 C3275 1.499 1_556 S
C3273 C3269 1.376 . S
C3273 C3272 1.399 . S
C3273 H3285 0.929 . S
C3274 C3270 1.531 . S
C3274 H3286 0.960 . S
C3274 H3287 0.962 . S
C3274 H3288 0.960 . S
C3275 C3272 1.499 1_554 S
C3275 H3289 0.961 . S
C3275 H3290 0.961 . S
C3275 H3291 0.961 . S
C3276 C3277 1.370 . S
C3276 C3278 1.363 . S
C3276 H3292 0.931 . S
C3277 C3276 1.370 . S
C3277 C3281 1.408 . S
C3278 C3276 1.363 . S
C3278 C3279 1.370 . S
C3278 C3282 1.524 . S
C3279 C3271 1.503 1_554 S
C3279 C3278 1.370 . S
C3279 C3280 1.403 . S
C3280 C3279 1.403 . S
C3280 C3281 1.404 . S
C3280 C3283 1.539 1_554 S
C3281 C3277 1.408 . S
C3281 C3280 1.404 . S
C3281 H3293 0.930 . S
C3282 C3278 1.524 . S
C3282 H3294 0.956 . S
C3282 H3295 0.961 . S
C3282 H3296 0.961 . S
C3283 C3280 1.539 1_556 S
C3283 H3297 0.958 . S
C3283 H3298 0.959 . S
C3283 H3299 0.960 . S
H3284 C3268 0.931 . S
H3285 C3273 0.929 . S
H3286 C3274 0.960 . S
H3287 C3274 0.962 . S
H3288 C3274 0.960 . S
H3289 C3275 0.961 . S
H3290 C3275 0.961 . S
H3291 C3275 0.961 . S
H3292 C3276 0.931 . S
H3293 C3281 0.930 . S
H3294 C3282 0.956 . S
H3295 C3282 0.961 . S
H3296 C3282 0.961 . S
H3297 C3283 0.958 . S
H3298 C3283 0.959 . S
H3299 C3283 0.960 . S
C3300 C3301 1.391 . S
C3300 C3302 1.394 1_655 S
C3300 H3316 0.931 . S
C3301 C3300 1.391 . S
C3301 C3305 1.376 1_655 S
C3302 C3300 1.394 1_455 S
C3302 C3303 1.369 . S
C3302 C3306 1.531 . S
C3303 C3302 1.369 . S
C3303 C3304 1.410 . S
C3303 C3311 1.503 . S
C3304 C3303 1.410 . S
C3304 C3305 1.392 . S
C3304 C3307 1.511 . S
C3305 C3301 1.376 1_455 S
C3305 C3304 1.392 . S
C3305 H3317 0.929 . S
C3306 C3302 1.531 . S
C3306 H3318 0.960 . S
C3306 H3319 0.962 . S
C3306 H3320 0.960 . S
C3307 C3304 1.511 . S
C3307 H3321 0.961 . S
C3307 H3322 0.961 . S
C3307 H3323 0.961 . S
C3308 C3309 1.370 . S
C3308 C3310 1.363 . S
C3308 H3324 0.931 . S
C3309 C3308 1.370 . S
C3309 C3313 1.408 . S
C3310 C3308 1.363 . S
C3310 C3311 1.370 . S
C3310 C3314 1.524 . S
C3311 C3303 1.503 . S
C3311 C3310 1.370 . S
C3311 C3312 1.403 . S
C3312 C3311 1.403 . S
C3312 C3313 1.404 . S
C3312 C3315 1.539 . S
C3313 C3309 1.408 . S
C3313 C3312 1.404 . S
C3313 H3325 0.930 . S
C3314 C3310 1.524 . S
C3314 H3326 0.956 . S
C3314 H3327 0.961 . S
C3314 H3328 0.961 . S
C3315 C3312 1.539 . S
C3315 H3329 0.958 . S
C3315 H3330 0.961 . S
C3315 H3331 0.960 . S
H3316 C3300 0.931 . S
H3317 C3305 0.929 . S
H3318 C3306 0.960 . S
H3319 C3306 0.962 . S
H3320 C3306 0.960 . S
H3321 C3307 0.961 . S
H3322 C3307 0.961 . S
H3323 C3307 0.961 . S
H3324 C3308 0.931 . S
H3325 C3313 0.930 . S
H3326 C3314 0.956 . S
H3327 C3314 0.961 . S
H3328 C3314 0.961 . S
H3329 C3315 0.958 . S
H3330 C3315 0.961 . S
H3331 C3315 0.960 . S
C3332 C3333 1.391 . S
C3332 C3334 1.394 . S
C3332 H3348 0.931 . S
C3333 C3332 1.391 . S
C3333 C3337 1.376 . S
C3334 C3332 1.394 . S
C3334 C3335 1.369 . S
C3334 C3338 1.531 . S
C3335 C3334 1.369 . S
C3335 C3336 1.410 . S
C3335 C3343 1.503 . S
C3336 C3335 1.410 . S
C3336 C3337 1.392 . S
C3336 C3339 1.511 . S
C3337 C3333 1.376 . S
C3337 C3336 1.392 . S
C3337 H3349 0.929 . S
C3338 C3334 1.531 . S
C3338 H3350 0.960 . S
C3338 H3351 0.962 . S
C3338 H3352 0.960 . S
C3339 C3336 1.511 . S
C3339 H3353 0.961 . S
C3339 H3354 0.961 . S
C3339 H3355 0.961 . S
C3340 C3341 1.370 . S
C3340 C3342 1.363 . S
C3340 H3356 0.931 . S
C3341 C3340 1.370 . S
C3341 C3345 1.408 . S
C3342 C3340 1.363 . S
C3342 C3343 1.370 . S
C3342 C3346 1.524 . S
C3343 C3335 1.503 . S
C3343 C3342 1.370 . S
C3343 C3344 1.403 . S
C3344 C3343 1.403 . S
C3344 C3345 1.404 . S
C3344 C3347 1.539 . S
C3345 C3341 1.408 . S
C3345 C3344 1.404 . S
C3345 H3357 0.930 . S
C3346 C3342 1.524 . S
C3346 H3358 0.956 . S
C3346 H3359 0.961 . S
C3346 H3360 0.961 . S
C3347 C3344 1.539 . S
C3347 H3361 0.958 . S
C3347 H3362 0.961 . S
C3347 H3363 0.960 . S
H3348 C3332 0.931 . S
H3349 C3337 0.929 . S
H3350 C3338 0.960 . S
H3351 C3338 0.962 . S
H3352 C3338 0.960 . S
H3353 C3339 0.961 . S
H3354 C3339 0.961 . S
H3355 C3339 0.961 . S
H3356 C3340 0.931 . S
H3357 C3345 0.930 . S
H3358 C3346 0.956 . S
H3359 C3346 0.961 . S
H3360 C3346 0.961 . S
H3361 C3347 0.958 . S
H3362 C3347 0.961 . S
H3363 C3347 0.960 . S
C3364 C3365 1.391 . S
C3364 C3366 1.394 . S
C3364 H3380 0.931 . S
C3365 C3364 1.391 . S
C3365 C3369 1.376 . S
C3366 C3364 1.394 . S
C3366 C3367 1.369 . S
C3366 C3370 1.531 . S
C3367 C3366 1.369 . S
C3367 C3368 1.410 . S
C3367 C3375 1.503 . S
C3368 C3367 1.410 . S
C3368 C3369 1.392 . S
C3368 C3371 1.511 . S
C3369 C3365 1.376 . S
C3369 C3368 1.392 . S
C3369 H3381 0.929 . S
C3370 C3366 1.531 . S
C3370 H3382 0.960 . S
C3370 H3383 0.962 . S
C3370 H3384 0.960 . S
C3371 C3368 1.511 . S
C3371 H3385 0.961 . S
C3371 H3386 0.961 . S
C3371 H3387 0.961 . S
C3372 C3373 1.370 . S
C3372 C3374 1.363 1_545 S
C3372 H3388 0.931 . S
C3373 C3372 1.370 . S
C3373 C3377 1.408 1_545 S
C3374 C3372 1.363 1_565 S
C3374 C3375 1.370 . S
C3374 C3378 1.524 . S
C3375 C3367 1.503 . S
C3375 C3374 1.370 . S
C3375 C3376 1.403 . S
C3376 C3375 1.403 . S
C3376 C3377 1.404 . S
C3376 C3379 1.539 . S
C3377 C3373 1.408 1_565 S
C3377 C3376 1.404 . S
C3377 H3389 0.930 . S
C3378 C3374 1.524 . S
C3378 H3390 0.956 . S
C3378 H3391 0.961 . S
C3378 H3392 0.961 . S
C3379 C3376 1.539 . S
C3379 H3393 0.958 . S
C3379 H3394 0.961 . S
C3379 H3395 0.960 . S
H3380 C3364 0.931 . S
H3381 C3369 0.929 . S
H3382 C3370 0.960 . S
H3383 C3370 0.962 . S
H3384 C3370 0.960 . S
H3385 C3371 0.961 . S
H3386 C3371 0.961 . S
H3387 C3371 0.961 . S
H3388 C3372 0.931 . S
H3389 C3377 0.930 . S
H3390 C3378 0.956 . S
H3391 C3378 0.961 . S
H3392 C3378 0.961 . S
H3393 C3379 0.958 . S
H3394 C3379 0.961 . S
H3395 C3379 0.960 . S
C3396 C3397 1.391 . S
C3396 C3398 1.394 . S
C3396 H3412 0.931 . S
C3397 C3396 1.391 . S
C3397 C3401 1.376 . S
C3398 C3396 1.394 . S
C3398 C3399 1.369 . S
C3398 C3402 1.531 . S
C3399 C3398 1.369 . S
C3399 C3400 1.440 . S
C3399 C3407 1.503 . S
C3400 C3399 1.440 . S
C3400 C3401 1.386 . S
C3400 C3403 1.488 1_655 S
C3401 C3397 1.376 . S
C3401 C3400 1.386 . S
C3401 H3413 0.929 1_655 S
C3402 C3398 1.531 . S
C3402 H3414 0.960 . S
C3402 H3415 0.962 . S
C3402 H3416 0.960 . S
C3403 C3400 1.488 1_455 S
C3403 H3417 0.961 . S
C3403 H3418 0.961 . S
C3403 H3419 0.961 . S
C3404 C3405 1.370 . S
C3404 C3406 1.363 . S
C3404 H3420 0.931 . S
C3405 C3404 1.370 . S
C3405 C3409 1.408 1_455 S
C3406 C3404 1.363 . S
C3406 C3407 1.370 1_455 S
C3406 C3410 1.524 . S
C3407 C3399 1.503 . S
C3407 C3406 1.370 1_655 S
C3407 C3408 1.403 . S
C3408 C3407 1.403 . S
C3408 C3409 1.404 . S
C3408 C3411 1.539 . S
C3409 C3405 1.408 1_655 S
C3409 C3408 1.404 . S
C3409 H3421 0.930 . S
C3410 C3406 1.524 . S
C3410 H3422 0.956 1_455 S
C3410 H3423 0.961 . S
C3410 H3424 0.961 . S
C3411 C3408 1.539 . S
C3411 H3425 0.958 . S
C3411 H3426 0.961 . S
C3411 H3427 0.960 . S
H3412 C3396 0.931 . S
H3413 C3401 0.929 1_455 S
H3414 C3402 0.960 . S
H3415 C3402 0.962 . S
H3416 C3402 0.960 . S
H3417 C3403 0.961 . S
H3418 C3403 0.961 . S
H3419 C3403 0.961 . S
H3420 C3404 0.931 . S
H3421 C3409 0.930 . S
H3422 C3410 0.956 1_655 S
H3423 C3410 0.961 . S
H3424 C3410 0.961 . S
H3425 C3411 0.958 . S
H3426 C3411 0.961 . S
H3427 C3411 0.960 . S
C3428 C3429 1.391 . S
C3428 C3430 1.394 . S
C3428 H3444 0.931 . S
C3429 C3428 1.391 . S
C3429 C3433 1.376 . S
C3430 C3428 1.394 . S
C3430 C3431 1.369 . S
C3430 C3434 1.531 . S
C3431 C3430 1.369 . S
C3431 C3432 1.410 . S
C3431 C3439 1.503 . S
C3432 C3431 1.410 . S
C3432 C3433 1.392 . S
C3432 C3435 1.511 . S
C3433 C3429 1.376 . S
C3433 C3432 1.392 . S
C3433 H3445 0.929 . S
C3434 C3430 1.531 . S
C3434 H3446 0.960 . S
C3434 H3447 0.962 . S
C3434 H3448 0.960 . S
C3435 C3432 1.511 . S
C3435 H3449 0.961 . S
C3435 H3450 0.961 . S
C3435 H3451 0.961 . S
C3436 C3437 1.370 . S
C3436 C3438 1.363 . S
C3436 H3452 0.931 . S
C3437 C3436 1.370 . S
C3437 C3441 1.408 . S
C3438 C3436 1.363 . S
C3438 C3439 1.370 . S
C3438 C3442 1.524 . S
C3439 C3431 1.503 . S
C3439 C3438 1.370 . S
C3439 C3440 1.403 . S
C3440 C3439 1.403 . S
C3440 C3441 1.404 . S
C3440 C3443 1.539 . S
C3441 C3437 1.408 . S
C3441 C3440 1.404 . S
C3441 H3453 0.930 . S
C3442 C3438 1.524 . S
C3442 H3454 0.956 . S
C3442 H3455 0.961 . S
C3442 H3456 0.961 . S
C3443 C3440 1.539 . S
C3443 H3457 0.958 . S
C3443 H3458 0.961 . S
C3443 H3459 0.960 . S
H3444 C3428 0.931 . S
H3445 C3433 0.929 . S
H3446 C3434 0.960 . S
H3447 C3434 0.962 . S
H3448 C3434 0.960 . S
H3449 C3435 0.961 . S
H3450 C3435 0.961 . S
H3451 C3435 0.961 . S
H3452 C3436 0.931 . S
H3453 C3441 0.930 . S
H3454 C3442 0.956 . S
H3455 C3442 0.961 . S
H3456 C3442 0.961 . S
H3457 C3443 0.958 . S
H3458 C3443 0.961 . S
H3459 C3443 0.960 . S
C3460 C3461 1.391 . S
C3460 C3462 1.394 . S
C3460 H3476 0.931 . S
C3461 C3460 1.391 . S
C3461 C3465 1.376 . S
C3462 C3460 1.394 . S
C3462 C3463 1.369 . S
C3462 C3466 1.531 . S
C3463 C3462 1.369 . S
C3463 C3464 1.410 . S
C3463 C3471 1.503 . S
C3464 C3463 1.410 . S
C3464 C3465 1.392 . S
C3464 C3467 1.511 1_545 S
C3465 C3461 1.376 . S
C3465 C3464 1.392 . S
C3465 H3477 0.929 . S
C3466 C3462 1.531 . S
C3466 H3478 0.960 . S
C3466 H3479 0.962 . S
C3466 H3480 0.960 . S
C3467 C3464 1.511 1_565 S
C3467 H3481 0.961 . S
C3467 H3482 0.961 . S
C3467 H3483 0.961 1_565 S
C3468 C3469 1.370 . S
C3468 C3470 1.363 . S
C3468 H3484 0.931 . S
C3469 C3468 1.370 . S
C3469 C3473 1.408 1_565 S
C3470 C3468 1.363 . S
C3470 C3471 1.370 1_565 S
C3470 C3474 1.524 . S
C3471 C3463 1.503 . S
C3471 C3470 1.370 1_545 S
C3471 C3472 1.403 . S
C3472 C3471 1.403 . S
C3472 C3473 1.404 . S
C3472 C3475 1.539 . S
C3473 C3469 1.408 1_545 S
C3473 C3472 1.404 . S
C3473 H3485 0.930 . S
C3474 C3470 1.524 . S
C3474 H3486 0.956 . S
C3474 H3487 0.961 . S
C3474 H3488 0.961 . S
C3475 C3472 1.539 . S
C3475 H3489 0.958 . S
C3475 H3490 0.961 . S
C3475 H3491 0.960 . S
H3476 C3460 0.931 . S
H3477 C3465 0.929 . S
H3478 C3466 0.960 . S
H3479 C3466 0.962 . S
H3480 C3466 0.960 . S
H3481 C3467 0.961 . S
H3482 C3467 0.961 . S
H3483 C3467 0.961 1_545 S
H3484 C3468 0.931 . S
H3485 C3473 0.930 . S
H3486 C3474 0.956 . S
H3487 C3474 0.961 . S
H3488 C3474 0.961 . S
H3489 C3475 0.958 . S
H3490 C3475 0.961 . S
H3491 C3475 0.960 . S
C3492 C3493 1.391 . S
C3492 C3494 1.394 . S
C3492 H3508 0.931 . S
C3493 C3492 1.391 . S
C3493 C3497 1.376 . S
C3494 C3492 1.394 . S
C3494 C3495 1.369 . S
C3494 C3498 1.531 1_655 S
C3495 C3494 1.369 . S
C3495 C3496 1.410 . S
C3495 C3503 1.503 1_655 S
C3496 C3495 1.410 . S
C3496 C3497 1.392 . S
C3496 C3499 1.511 . S
C3497 C3493 1.376 . S
C3497 C3496 1.392 . S
C3497 H3509 0.929 . S
C3498 C3494 1.531 1_455 S
C3498 H3510 0.960 . S
C3498 H3511 0.962 . S
C3498 H3512 0.960 1_455 S
C3499 C3496 1.511 . S
C3499 H3513 0.961 . S
C3499 H3514 0.961 . S
C3499 H3515 0.961 . S
C3500 C3501 1.370 . S
C3500 C3502 1.363 . S
C3500 H3516 0.931 . S
C3501 C3500 1.370 . S
C3501 C3505 1.408 . S
C3502 C3500 1.363 . S
C3502 C3503 1.370 . S
C3502 C3506 1.524 . S
C3503 C3495 1.503 1_455 S
C3503 C3502 1.370 . S
C3503 C3504 1.403 1_455 S
C3504 C3503 1.403 1_655 S
C3504 C3505 1.404 1_655 S
C3504 C3507 1.539 . S
C3505 C3501 1.408 . S
C3505 C3504 1.404 1_455 S
C3505 H3517 0.930 . S
C3506 C3502 1.524 . S
C3506 H3518 0.956 . S
C3506 H3519 0.961 . S
C3506 H3520 0.961 . S
C3507 C3504 1.539 . S
C3507 H3521 0.958 . S
C3507 H3522 0.961 . S
C3507 H3523 0.960 . S
H3508 C3492 0.931 . S
H3509 C3497 0.929 . S
H3510 C3498 0.960 . S
H3511 C3498 0.962 . S
H3512 C3498 0.960 1_655 S
H3513 C3499 0.961 . S
H3514 C3499 0.961 . S
H3515 C3499 0.961 . S
H3516 C3500 0.931 . S
H3517 C3505 0.930 . S
H3518 C3506 0.956 . S
H3519 C3506 0.961 . S
H3520 C3506 0.961 . S
H3521 C3507 0.958 . S
H3522 C3507 0.961 . S
H3523 C3507 0.960 . S
C3524 C3525 1.391 . S
C3524 C3526 1.394 . S
C3524 H3540 0.931 . S
C3525 C3524 1.391 . S
C3525 C3529 1.376 . S
C3526 C3524 1.394 . S
C3526 C3527 1.369 . S
C3526 C3530 1.531 . S
C3527 C3526 1.369 . S
C3527 C3528 1.410 . S
C3527 C3535 1.503 . S
C3528 C3527 1.410 . S
C3528 C3529 1.392 . S
C3528 C3531 1.511 . S
C3529 C3525 1.376 . S
C3529 C3528 1.392 . S
C3529 H3541 0.929 . S
C3530 C3526 1.531 . S
C3530 H3542 0.960 . S
C3530 H3543 0.962 . S
C3530 H3544 0.960 . S
C3531 C3528 1.511 . S
C3531 H3545 0.961 . S
C3531 H3546 0.961 . S
C3531 H3547 0.961 . S
C3532 C3533 1.370 . S
C3532 C3534 1.363 . S
C3532 H3548 0.931 . S
C3533 C3532 1.370 . S
C3533 C3537 1.408 . S
C3534 C3532 1.363 . S
C3534 C3535 1.370 . S
C3534 C3538 1.524 . S
C3535 C3527 1.503 . S
C3535 C3534 1.370 . S
C3535 C3536 1.403 . S
C3536 C3535 1.403 . S
C3536 C3537 1.404 . S
C3536 C3539 1.539 . S
C3537 C3533 1.408 . S
C3537 C3536 1.404 . S
C3537 H3549 0.930 . S
C3538 C3534 1.524 . S
C3538 H3550 0.956 . S
C3538 H3551 0.961 . S
C3538 H3552 0.961 . S
C3539 C3536 1.539 . S
C3539 H3553 0.958 . S
C3539 H3554 0.961 . S
C3539 H3555 0.960 . S
H3540 C3524 0.931 . S
H3541 C3529 0.929 . S
H3542 C3530 0.960 . S
H3543 C3530 0.962 . S
H3544 C3530 0.960 . S
H3545 C3531 0.961 . S
H3546 C3531 0.961 . S
H3547 C3531 0.961 . S
H3548 C3532 0.931 . S
H3549 C3537 0.930 . S
H3550 C3538 0.956 . S
H3551 C3538 0.961 . S
H3552 C3538 0.961 . S
H3553 C3539 0.958 . S
H3554 C3539 0.961 . S
H3555 C3539 0.960 . S
C3556 C3557 1.391 . S
C3556 C3558 1.394 . S
C3556 H3572 0.931 . S
C3557 C3556 1.391 . S
C3557 C3561 1.376 . S
C3558 C3556 1.394 . S
C3558 C3559 1.369 . S
C3558 C3562 1.531 . S
C3559 C3558 1.369 . S
C3559 C3560 1.410 . S
C3559 C3567 1.503 1_565 S
C3560 C3559 1.410 . S
C3560 C3561 1.392 . S
C3560 C3563 1.511 . S
C3561 C3557 1.376 . S
C3561 C3560 1.392 . S
C3561 H3573 0.929 . S
C3562 C3558 1.531 . S
C3562 H3574 0.960 1_565 S
C3562 H3575 0.962 . S
C3562 H3576 0.960 . S
C3563 C3560 1.511 . S
C3563 H3577 0.961 . S
C3563 H3578 0.963 . S
C3563 H3579 0.961 1_565 S
C3564 C3565 1.370 . S
C3564 C3566 1.379 . S
C3564 H3580 0.931 . S
C3565 C3564 1.370 . S
C3565 C3569 1.408 . S
C3566 C3564 1.379 . S
C3566 C3567 1.384 . S
C3566 C3570 1.496 1_545 S
C3567 C3559 1.503 1_545 S
C3567 C3566 1.384 . S
C3567 C3568 1.403 . S
C3568 C3567 1.403 . S
C3568 C3569 1.404 . S
C3568 C3571 1.539 . S
C3569 C3565 1.408 . S
C3569 C3568 1.404 . S
C3569 H3581 0.930 . S
C3570 C3566 1.496 1_565 S
C3570 H3582 0.956 . S
C3570 H3583 0.961 . S
C3570 H3584 0.961 . S
C3571 C3568 1.539 . S
C3571 H3585 0.958 . S
C3571 H3586 0.961 . S
C3571 H3587 0.960 . S
H3572 C3556 0.931 . S
H3573 C3561 0.929 . S
H3574 C3562 0.960 1_545 S
H3575 C3562 0.962 . S
H3576 C3562 0.960 . S
H3577 C3563 0.961 . S
H3578 C3563 0.963 . S
H3579 C3563 0.961 1_545 S
H3580 C3564 0.931 . S
H3581 C3569 0.930 . S
H3582 C3570 0.956 . S
H3583 C3570 0.961 . S
H3584 C3570 0.961 . S
H3585 C3571 0.958 . S
H3586 C3571 0.961 . S
H3587 C3571 0.960 . S
C3588 C3589 1.391 . S
C3588 C3590 1.394 . S
C3588 H3604 0.931 . S
C3589 C3588 1.391 . S
C3589 C3593 1.376 . S
C3590 C3588 1.394 . S
C3590 C3591 1.369 . S
C3590 C3594 1.531 . S
C3591 C3590 1.369 . S
C3591 C3592 1.410 . S
C3591 C3599 1.503 1_655 S
C3592 C3591 1.410 . S
C3592 C3593 1.392 . S
C3592 C3595 1.511 . S
C3593 C3589 1.376 . S
C3593 C3592 1.392 . S
C3593 H3605 0.929 . S
C3594 C3590 1.531 . S
C3594 H3606 0.960 . S
C3594 H3607 0.962 . S
C3594 H3608 0.960 . S
C3595 C3592 1.511 . S
C3595 H3609 0.961 1_655 S
C3595 H3610 0.961 1_655 S
C3595 H3611 0.961 . S
C3596 C3597 1.370 . S
C3596 C3598 1.363 . S
C3596 H3612 0.931 . S
C3597 C3596 1.370 . S
C3597 C3601 1.408 . S
C3598 C3596 1.363 . S
C3598 C3599 1.370 . S
C3598 C3602 1.524 . S
C3599 C3591 1.503 1_455 S
C3599 C3598 1.370 . S
C3599 C3600 1.403 1_455 S
C3600 C3599 1.403 1_655 S
C3600 C3601 1.404 1_655 S
C3600 C3603 1.539 . S
C3601 C3597 1.408 . S
C3601 C3600 1.404 1_455 S
C3601 H3613 0.930 . S
C3602 C3598 1.524 . S
C3602 H3614 0.956 . S
C3602 H3615 0.961 . S
C3602 H3616 0.961 . S
C3603 C3600 1.539 . S
C3603 H3617 0.958 . S
C3603 H3618 0.961 . S
C3603 H3619 0.960 . S
H3604 C3588 0.931 . S
H3605 C3593 0.929 . S
H3606 C3594 0.960 . S
H3607 C3594 0.962 . S
H3608 C3594 0.960 . S
H3609 C3595 0.961 1_455 S
H3610 C3595 0.961 1_455 S
H3611 C3595 0.961 . S
H3612 C3596 0.931 . S
H3613 C3601 0.930 . S
H3614 C3602 0.956 . S
H3615 C3602 0.961 . S
H3616 C3602 0.961 . S
H3617 C3603 0.958 . S
H3618 C3603 0.961 . S
H3619 C3603 0.960 . S
C3620 C3621 1.391 . S
C3620 C3622 1.394 . S
C3620 H3636 0.931 . S
C3621 C3620 1.391 . S
C3621 C3625 1.376 . S
C3622 C3620 1.394 . S
C3622 C3623 1.369 . S
C3622 C3626 1.531 . S
C3623 C3622 1.369 . S
C3623 C3624 1.410 . S
C3623 C3631 1.503 . S
C3624 C3623 1.410 . S
C3624 C3625 1.392 . S
C3624 C3627 1.511 . S
C3625 C3621 1.376 . S
C3625 C3624 1.392 . S
C3625 H3637 0.929 . S
C3626 C3622 1.531 . S
C3626 H3638 0.960 . S
C3626 H3639 0.962 . S
C3626 H3640 0.960 . S
C3627 C3624 1.511 . S
C3627 H3641 0.961 . S
C3627 H3642 0.961 . S
C3627 H3643 0.961 . S
C3628 C3629 1.370 . S
C3628 C3630 1.363 . S
C3628 H3644 0.931 . S
C3629 C3628 1.370 . S
C3629 C3633 1.408 . S
C3630 C3628 1.363 . S
C3630 C3631 1.370 . S
C3630 C3634 1.524 . S
C3631 C3623 1.503 . S
C3631 C3630 1.370 . S
C3631 C3632 1.403 . S
C3632 C3631 1.403 . S
C3632 C3633 1.404 . S
C3632 C3635 1.539 . S
C3633 C3629 1.408 . S
C3633 C3632 1.404 . S
C3633 H3645 0.930 . S
C3634 C3630 1.524 . S
C3634 H3646 0.956 . S
C3634 H3647 0.961 . S
C3634 H3648 0.961 . S
C3635 C3632 1.539 . S
C3635 H3649 0.958 . S
C3635 H3650 0.961 . S
C3635 H3651 0.960 . S
H3636 C3620 0.931 . S
H3637 C3625 0.929 . S
H3638 C3626 0.960 . S
H3639 C3626 0.962 . S
H3640 C3626 0.960 . S
H3641 C3627 0.961 . S
H3642 C3627 0.961 . S
H3643 C3627 0.961 . S
H3644 C3628 0.931 . S
H3645 C3633 0.930 . S
H3646 C3634 0.956 . S
H3647 C3634 0.961 . S
H3648 C3634 0.961 . S
H3649 C3635 0.958 . S
H3650 C3635 0.961 . S
H3651 C3635 0.960 . S
C3652 C3653 1.391 . S
C3652 C3654 1.394 . S
C3652 H3668 0.931 . S
C3653 C3652 1.391 . S
C3653 C3657 1.376 . S
C3654 C3652 1.394 . S
C3654 C3655 1.369 . S
C3654 C3658 1.516 1_545 S
C3655 C3654 1.369 . S
C3655 C3656 1.410 . S
C3655 C3663 1.503 1_545 S
C3656 C3655 1.410 . S
C3656 C3657 1.392 . S
C3656 C3659 1.511 . S
C3657 C3653 1.376 . S
C3657 C3656 1.392 . S
C3657 H3669 0.929 . S
C3658 C3654 1.516 1_565 S
C3658 H3670 0.974 . S
C3658 H3671 0.956 1_565 S
C3658 H3672 0.968 . S
C3659 C3656 1.511 . S
C3659 H3673 0.961 . S
C3659 H3674 0.961 . S
C3659 H3675 0.961 1_545 S
C3660 C3661 1.370 . S
C3660 C3662 1.381 . S
C3660 H3676 0.931 . S
C3661 C3660 1.370 . S
C3661 C3665 1.408 . S
C3662 C3660 1.381 . S
C3662 C3663 1.383 . S
C3662 C3666 1.494 1_565 S
C3663 C3655 1.503 1_565 S
C3663 C3662 1.383 . S
C3663 C3664 1.403 . S
C3664 C3663 1.403 . S
C3664 C3665 1.404 . S
C3664 C3667 1.539 . S
C3665 C3661 1.408 . S
C3665 C3664 1.404 . S
C3665 H3677 0.930 . S
C3666 C3662 1.494 1_545 S
C3666 H3678 0.956 . S
C3666 H3679 0.961 . S
C3666 H3680 0.961 . S
C3667 C3664 1.539 . S
C3667 H3681 0.958 . S
C3667 H3682 0.961 . S
C3667 H3683 0.960 . S
H3668 C3652 0.931 . S
H3669 C3657 0.929 . S
H3670 C3658 0.974 . S
H3671 C3658 0.956 1_545 S
H3672 C3658 0.968 . S
H3673 C3659 0.961 . S
H3674 C3659 0.961 . S
H3675 C3659 0.961 1_565 S
H3676 C3660 0.931 . S
H3677 C3665 0.930 . S
H3678 C3666 0.956 . S
H3679 C3666 0.961 . S
H3680 C3666 0.961 . S
H3681 C3667 0.958 . S
H3682 C3667 0.961 . S
H3683 C3667 0.960 . S
C3684 C3685 1.391 . S
C3684 C3686 1.394 . S
C3684 H3700 0.931 . S
C3685 C3684 1.391 . S
C3685 C3689 1.376 . S
C3686 C3684 1.394 . S
C3686 C3687 1.369 . S
C3686 C3690 1.531 . S
C3687 C3686 1.369 . S
C3687 C3688 1.410 . S
C3687 C3695 1.503 . S
C3688 C3687 1.410 . S
C3688 C3689 1.392 . S
C3688 C3691 1.511 . S
C3689 C3685 1.376 . S
C3689 C3688 1.392 . S
C3689 H3701 0.929 . S
C3690 C3686 1.531 . S
C3690 H3702 0.960 . S
C3690 H3703 0.962 . S
C3690 H3704 0.960 . S
C3691 C3688 1.511 . S
C3691 H3705 0.961 . S
C3691 H3706 0.961 . S
C3691 H3707 0.961 . S
C3692 C3693 1.370 . S
C3692 C3694 1.363 . S
C3692 H3708 0.931 . S
C3693 C3692 1.370 . S
C3693 C3697 1.408 . S
C3694 C3692 1.363 . S
C3694 C3695 1.370 . S
C3694 C3698 1.524 . S
C3695 C3687 1.503 . S
C3695 C3694 1.370 . S
C3695 C3696 1.403 . S
C3696 C3695 1.403 . S
C3696 C3697 1.404 . S
C3696 C3699 1.539 . S
C3697 C3693 1.408 . S
C3697 C3696 1.404 . S
C3697 H3709 0.930 . S
C3698 C3694 1.524 . S
C3698 H3710 0.956 . S
C3698 H3711 0.961 . S
C3698 H3712 0.961 . S
C3699 C3696 1.539 . S
C3699 H3713 0.958 . S
C3699 H3714 0.961 . S
C3699 H3715 0.960 . S
H3700 C3684 0.931 . S
H3701 C3689 0.929 . S
H3702 C3690 0.960 . S
H3703 C3690 0.962 . S
H3704 C3690 0.960 . S
H3705 C3691 0.961 . S
H3706 C3691 0.961 . S
H3707 C3691 0.961 . S
H3708 C3692 0.931 . S
H3709 C3697 0.930 . S
H3710 C3698 0.956 . S
H3711 C3698 0.961 . S
H3712 C3698 0.961 . S
H3713 C3699 0.958 . S
H3714 C3699 0.961 . S
H3715 C3699 0.960 . S
C3716 C3717 1.391 . S
C3716 C3718 1.394 . S
C3716 H3732 0.931 . S
C3717 C3716 1.391 . S
C3717 C3721 1.376 . S
C3718 C3716 1.394 . S
C3718 C3719 1.369 . S
C3718 C3722 1.531 . S
C3719 C3718 1.369 . S
C3719 C3720 1.410 . S
C3719 C3727 1.503 . S
C3720 C3719 1.410 . S
C3720 C3721 1.392 . S
C3720 C3723 1.511 . S
C3721 C3717 1.376 . S
C3721 C3720 1.392 . S
C3721 H3733 0.929 . S
C3722 C3718 1.531 . S
C3722 H3734 0.960 . S
C3722 H3735 0.962 . S
C3722 H3736 0.960 . S
C3723 C3720 1.511 . S
C3723 H3737 0.961 . S
C3723 H3738 0.961 . S
C3723 H3739 0.961 . S
C3724 C3725 1.370 . S
C3724 C3726 1.363 . S
C3724 H3740 0.931 . S
C3725 C3724 1.370 . S
C3725 C3729 1.408 . S
C3726 C3724 1.363 . S
C3726 C3727 1.370 . S
C3726 C3730 1.524 . S
C3727 C3719 1.503 . S
C3727 C3726 1.370 . S
C3727 C3728 1.403 . S
C3728 C3727 1.403 . S
C3728 C3729 1.404 . S
C3728 C3731 1.539 . S
C3729 C3725 1.408 . S
C3729 C3728 1.404 . S
C3729 H3741 0.930 . S
C3730 C3726 1.524 . S
C3730 H3742 0.956 . S
C3730 H3743 0.961 . S
C3730 H3744 0.961 . S
C3731 C3728 1.539 . S
C3731 H3745 0.958 . S
C3731 H3746 0.961 1_545 S
C3731 H3747 0.960 . S
H3732 C3716 0.931 . S
H3733 C3721 0.929 . S
H3734 C3722 0.960 . S
H3735 C3722 0.962 . S
H3736 C3722 0.960 . S
H3737 C3723 0.961 . S
H3738 C3723 0.961 . S
H3739 C3723 0.961 . S
H3740 C3724 0.931 . S
H3741 C3729 0.930 . S
H3742 C3730 0.956 . S
H3743 C3730 0.961 . S
H3744 C3730 0.961 . S
H3745 C3731 0.958 . S
H3746 C3731 0.961 1_565 S
H3747 C3731 0.960 . S
C3748 C3749 1.391 . S
C3748 C3750 1.394 . S
C3748 H3764 0.931 . S
C3749 C3748 1.391 . S
C3749 C3753 1.376 . S
C3750 C3748 1.394 . S
C3750 C3751 1.369 . S
C3750 C3754 1.531 . S
C3751 C3750 1.369 . S
C3751 C3752 1.410 . S
C3751 C3759 1.503 . S
C3752 C3751 1.410 . S
C3752 C3753 1.392 . S
C3752 C3755 1.511 . S
C3753 C3749 1.376 . S
C3753 C3752 1.392 . S
C3753 H3765 0.929 . S
C3754 C3750 1.531 . S
C3754 H3766 0.960 . S
C3754 H3767 0.962 . S
C3754 H3768 0.960 . S
C3755 C3752 1.511 . S
C3755 H3769 0.961 1_655 S
C3755 H3770 0.961 . S
C3755 H3771 0.961 1_655 S
C3756 C3757 1.370 . S
C3756 C3758 1.363 . S
C3756 H3772 0.931 . S
C3757 C3756 1.370 . S
C3757 C3761 1.408 . S
C3758 C3756 1.363 . S
C3758 C3759 1.370 . S
C3758 C3762 1.524 . S
C3759 C3751 1.503 . S
C3759 C3758 1.370 . S
C3759 C3760 1.403 . S
C3760 C3759 1.403 . S
C3760 C3761 1.404 . S
C3760 C3763 1.539 . S
C3761 C3757 1.408 . S
C3761 C3760 1.404 . S
C3761 H3773 0.930 . S
C3762 C3758 1.524 . S
C3762 H3774 0.956 . S
C3762 H3775 0.961 . S
C3762 H3776 0.961 . S
C3763 C3760 1.539 . S
C3763 H3777 0.958 . S
C3763 H3778 0.961 . S
C3763 H3779 0.960 . S
H3764 C3748 0.931 . S
H3765 C3753 0.929 . S
H3766 C3754 0.960 . S
H3767 C3754 0.962 . S
H3768 C3754 0.960 . S
H3769 C3755 0.961 1_455 S
H3770 C3755 0.961 . S
H3771 C3755 0.961 1_455 S
H3772 C3756 0.931 . S
H3773 C3761 0.930 . S
H3774 C3762 0.956 . S
H3775 C3762 0.961 . S
H3776 C3762 0.961 . S
H3777 C3763 0.958 . S
H3778 C3763 0.961 . S
H3779 C3763 0.960 . S
C3780 C3781 1.391 . S
C3780 C3782 1.394 . S
C3780 H3796 0.931 . S
C3781 C3780 1.391 . S
C3781 C3785 1.376 . S
C3782 C3780 1.394 . S
C3782 C3783 1.369 . S
C3782 C3786 1.531 . S
C3783 C3782 1.369 . S
C3783 C3784 1.410 . S
C3783 C3791 1.503 . S
C3784 C3783 1.410 . S
C3784 C3785 1.392 . S
C3784 C3787 1.511 . S
C3785 C3781 1.376 . S
C3785 C3784 1.392 . S
C3785 H3797 0.929 . S
C3786 C3782 1.531 . S
C3786 H3798 0.960 . S
C3786 H3799 0.962 . S
C3786 H3800 0.960 . S
C3787 C3784 1.511 . S
C3787 H3801 0.961 . S
C3787 H3802 0.961 . S
C3787 H3803 0.961 . S
C3788 C3789 1.370 . S
C3788 C3790 1.363 . S
C3788 H3804 0.931 . S
C3789 C3788 1.370 . S
C3789 C3793 1.408 . S
C3790 C3788 1.363 . S
C3790 C3791 1.370 . S
C3790 C3794 1.524 . S
C3791 C3783 1.503 . S
C3791 C3790 1.370 . S
C3791 C3792 1.403 . S
C3792 C3791 1.403 . S
C3792 C3793 1.404 . S
C3792 C3795 1.539 . S
C3793 C3789 1.408 . S
C3793 C3792 1.404 . S
C3793 H3805 0.902 1_545 S
C3794 C3790 1.524 . S
C3794 H3806 0.956 . S
C3794 H3807 0.961 . S
C3794 H3808 0.961 . S
C3795 C3792 1.539 . S
C3795 H3809 0.958 1_545 S
C3795 H3810 0.961 1_545 S
C3795 H3811 0.960 . S
H3796 C3780 0.931 . S
H3797 C3785 0.929 . S
H3798 C3786 0.960 . S
H3799 C3786 0.962 . S
H3800 C3786 0.960 . S
H3801 C3787 0.961 . S
H3802 C3787 0.961 . S
H3803 C3787 0.961 . S
H3804 C3788 0.931 . S
H3805 C3793 0.902 1_565 S
H3806 C3794 0.956 . S
H3807 C3794 0.961 . S
H3808 C3794 0.961 . S
H3809 C3795 0.958 1_565 S
H3810 C3795 0.961 1_565 S
H3811 C3795 0.960 . S
C3812 C3813 1.391 . S
C3812 C3814 1.394 . S
C3812 H3828 0.931 . S
C3813 C3812 1.391 . S
C3813 C3817 1.376 . S
C3814 C3812 1.394 . S
C3814 C3815 1.369 . S
C3814 C3818 1.531 . S
C3815 C3814 1.369 . S
C3815 C3816 1.410 . S
C3815 C3823 1.503 . S
C3816 C3815 1.410 . S
C3816 C3817 1.392 . S
C3816 C3819 1.511 . S
C3817 C3813 1.376 . S
C3817 C3816 1.392 . S
C3817 H3829 0.929 . S
C3818 C3814 1.531 . S
C3818 H3830 0.960 . S
C3818 H3831 0.962 . S
C3818 H3832 0.960 . S
C3819 C3816 1.511 . S
C3819 H3833 0.961 . S
C3819 H3834 0.961 . S
C3819 H3835 0.961 . S
C3820 C3821 1.370 . S
C3820 C3822 1.363 . S
C3820 H3836 0.931 1_655 S
C3821 C3820 1.370 . S
C3821 C3825 1.408 . S
C3822 C3820 1.363 . S
C3822 C3823 1.370 . S
C3822 C3826 1.524 . S
C3823 C3815 1.503 . S
C3823 C3822 1.370 . S
C3823 C3824 1.403 . S
C3824 C3823 1.403 . S
C3824 C3825 1.404 . S
C3824 C3827 1.539 . S
C3825 C3821 1.408 . S
C3825 C3824 1.404 . S
C3825 H3837 0.930 . S
C3826 C3822 1.524 . S
C3826 H3838 0.956 . S
C3826 H3839 0.961 . S
C3826 H3840 0.961 1_655 S
C3827 C3824 1.539 . S
C3827 H3841 0.958 . S
C3827 H3842 0.961 . S
C3827 H3843 0.960 . S
H3828 C3812 0.931 . S
H3829 C3817 0.929 . S
H3830 C3818 0.960 . S
H3831 C3818 0.962 . S
H3832 C3818 0.960 . S
H3833 C3819 0.961 . S
H3834 C3819 0.961 . S
H3835 C3819 0.961 . S
H3836 C3820 0.931 1_455 S
H3837 C3825 0.930 . S
H3838 C3826 0.956 . S
H3839 C3826 0.961 . S
H3840 C3826 0.961 1_455 S
H3841 C3827 0.958 . S
H3842 C3827 0.961 . S
H3843 C3827 0.960 . S
C3844 C3845 1.391 . S
C3844 C3846 1.394 . S
C3844 H3860 0.931 . S
C3845 C3844 1.391 . S
C3845 C3849 1.376 . S
C3846 C3844 1.394 . S
C3846 C3847 1.369 . S
C3846 C3850 1.531 . S
C3847 C3846 1.369 . S
C3847 C3848 1.410 . S
C3847 C3855 1.503 . S
C3848 C3847 1.410 . S
C3848 C3849 1.392 . S
C3848 C3851 1.511 . S
C3849 C3845 1.376 . S
C3849 C3848 1.392 . S
C3849 H3861 0.929 . S
C3850 C3846 1.531 . S
C3850 H3862 0.960 . S
C3850 H3863 0.962 . S
C3850 H3864 0.960 . S
C3851 C3848 1.511 . S
C3851 H3865 0.961 . S
C3851 H3866 0.961 . S
C3851 H3867 0.961 . S
C3852 C3853 1.370 . S
C3852 C3854 1.363 . S
C3852 H3868 0.931 . S
C3853 C3852 1.370 . S
C3853 C3857 1.408 . S
C3854 C3852 1.363 . S
C3854 C3855 1.370 . S
C3854 C3858 1.524 . S
C3855 C3847 1.503 . S
C3855 C3854 1.370 . S
C3855 C3856 1.403 . S
C3856 C3855 1.403 . S
C3856 C3857 1.404 . S
C3856 C3859 1.539 . S
C3857 C3853 1.408 . S
C3857 C3856 1.404 . S
C3857 H3869 0.930 . S
C3858 C3854 1.524 . S
C3858 H3870 0.956 . S
C3858 H3871 0.961 . S
C3858 H3872 0.961 . S
C3859 C3856 1.539 . S
C3859 H3873 0.958 . S
C3859 H3874 0.961 . S
C3859 H3875 0.960 . S
H3860 C3844 0.931 . S
H3861 C3849 0.929 . S
H3862 C3850 0.960 . S
H3863 C3850 0.962 . S
H3864 C3850 0.960 . S
H3865 C3851 0.961 . S
H3866 C3851 0.961 . S
H3867 C3851 0.961 . S
H3868 C3852 0.931 . S
H3869 C3857 0.930 . S
H3870 C3858 0.956 . S
H3871 C3858 0.961 . S
H3872 C3858 0.961 . S
H3873 C3859 0.958 . S
H3874 C3859 0.961 . S
H3875 C3859 0.960 . S
C3876 C3877 1.391 . S
C3876 C3878 1.394 . S
C3876 H3892 0.931 . S
C3877 C3876 1.391 . S
C3877 C3881 1.376 . S
C3878 C3876 1.394 . S
C3878 C3879 1.369 . S
C3878 C3882 1.531 . S
C3879 C3878 1.369 . S
C3879 C3880 1.410 . S
C3879 C3887 1.503 . S
C3880 C3879 1.410 . S
C3880 C3881 1.392 . S
C3880 C3883 1.511 . S
C3881 C3877 1.376 . S
C3881 C3880 1.392 . S
C3881 H3893 0.929 . S
C3882 C3878 1.531 . S
C3882 H3894 0.960 . S
C3882 H3895 0.962 . S
C3882 H3896 0.960 . S
C3883 C3880 1.511 . S
C3883 H3897 0.961 . S
C3883 H3898 0.961 . S
C3883 H3899 0.961 . S
C3884 C3885 1.370 . S
C3884 C3886 1.363 . S
C3884 H3900 0.931 . S
C3885 C3884 1.370 . S
C3885 C3889 1.408 . S
C3886 C3884 1.363 . S
C3886 C3887 1.370 . S
C3886 C3890 1.524 . S
C3887 C3879 1.503 . S
C3887 C3886 1.370 . S
C3887 C3888 1.403 . S
C3888 C3887 1.403 . S
C3888 C3889 1.404 . S
C3888 C3891 1.539 1_565 S
C3889 C3885 1.408 . S
C3889 C3888 1.404 . S
C3889 H3901 0.930 1_565 S
C3890 C3886 1.524 . S
C3890 H3902 0.956 . S
C3890 H3903 0.961 . S
C3890 H3904 0.961 . S
C3891 C3888 1.539 1_545 S
C3891 H3905 0.958 . S
C3891 H3906 0.961 . S
C3891 H3907 0.960 1_545 S
H3892 C3876 0.931 . S
H3893 C3881 0.929 . S
H3894 C3882 0.960 . S
H3895 C3882 0.962 . S
H3896 C3882 0.960 . S
H3897 C3883 0.961 . S
H3898 C3883 0.961 . S
H3899 C3883 0.961 . S
H3900 C3884 0.931 . S
H3901 C3889 0.930 1_545 S
H3902 C3890 0.956 . S
H3903 C3890 0.961 . S
H3904 C3890 0.961 . S
H3905 C3891 0.958 . S
H3906 C3891 0.961 . S
H3907 C3891 0.960 1_565 S
C3908 C3909 1.391 . S
C3908 C3910 1.394 . S
C3908 H3924 0.931 1_455 S
C3909 C3908 1.391 . S
C3909 C3913 1.376 . S
C3910 C3908 1.394 . S
C3910 C3911 1.369 . S
C3910 C3914 1.546 . S
C3911 C3910 1.369 . S
C3911 C3912 1.410 . S
C3911 C3919 1.503 . S
C3912 C3911 1.410 . S
C3912 C3913 1.392 . S
C3912 C3915 1.511 . S
C3913 C3909 1.376 . S
C3913 C3912 1.392 . S
C3913 H3925 0.929 . S
C3914 C3910 1.546 . S
C3914 H3926 0.985 . S
C3914 H3927 0.947 1_455 S
C3914 H3928 0.936 1_455 S
C3915 C3912 1.511 . S
C3915 H3929 0.961 . S
C3915 H3930 0.961 . S
C3915 H3931 0.961 . S
C3916 C3917 1.370 . S
C3916 C3918 1.363 . S
C3916 H3932 0.931 . S
C3917 C3916 1.370 . S
C3917 C3921 1.408 . S
C3918 C3916 1.363 . S
C3918 C3919 1.370 . S
C3918 C3922 1.524 . S
C3919 C3911 1.503 . S
C3919 C3918 1.370 . S
C3919 C3920 1.403 . S
C3920 C3919 1.403 . S
C3920 C3921 1.404 . S
C3920 C3923 1.539 . S
C3921 C3917 1.408 . S
C3921 C3920 1.404 . S
C3921 H3933 0.930 . S
C3922 C3918 1.524 . S
C3922 H3934 0.956 . S
C3922 H3935 0.961 . S
C3922 H3936 0.961 . S
C3923 C3920 1.539 . S
C3923 H3937 0.958 . S
C3923 H3938 0.961 . S
C3923 H3939 0.960 . S
H3924 C3908 0.931 1_655 S
H3925 C3913 0.929 . S
H3926 C3914 0.985 . S
H3927 C3914 0.947 1_655 S
H3928 C3914 0.936 1_655 S
H3929 C3915 0.961 . S
H3930 C3915 0.961 . S
H3931 C3915 0.961 . S
H3932 C3916 0.931 . S
H3933 C3921 0.930 . S
H3934 C3922 0.956 . S
H3935 C3922 0.961 . S
H3936 C3922 0.961 . S
H3937 C3923 0.958 . S
H3938 C3923 0.961 . S
H3939 C3923 0.960 . S
C3940 C3941 1.391 . S
C3940 C3942 1.394 . S
C3940 H3956 0.931 . S
C3941 C3940 1.391 . S
C3941 C3945 1.376 . S
C3942 C3940 1.394 . S
C3942 C3943 1.369 . S
C3942 C3946 1.531 . S
C3943 C3942 1.369 . S
C3943 C3944 1.410 . S
C3943 C3951 1.503 . S
C3944 C3943 1.410 . S
C3944 C3945 1.392 . S
C3944 C3947 1.511 . S
C3945 C3941 1.376 . S
C3945 C3944 1.392 . S
C3945 H3957 0.929 . S
C3946 C3942 1.531 . S
C3946 H3958 0.960 . S
C3946 H3959 0.962 . S
C3946 H3960 0.960 . S
C3947 C3944 1.511 . S
C3947 H3961 0.961 . S
C3947 H3962 0.961 . S
C3947 H3963 0.961 . S
C3948 C3949 1.370 . S
C3948 C3950 1.363 . S
C3948 H3964 0.931 . S
C3949 C3948 1.370 . S
C3949 C3953 1.408 . S
C3950 C3948 1.363 . S
C3950 C3951 1.370 . S
C3950 C3954 1.524 . S
C3951 C3943 1.503 . S
C3951 C3950 1.370 . S
C3951 C3952 1.403 . S
C3952 C3951 1.403 . S
C3952 C3953 1.404 . S
C3952 C3955 1.539 . S
C3953 C3949 1.408 . S
C3953 C3952 1.404 . S
C3953 H3965 0.930 . S
C3954 C3950 1.524 . S
C3954 H3966 0.956 . S
C3954 H3967 0.961 . S
C3954 H3968 0.961 . S
C3955 C3952 1.539 . S
C3955 H3969 0.958 . S
C3955 H3970 0.961 . S
C3955 H3971 0.960 . S
H3956 C3940 0.931 . S
H3957 C3945 0.929 . S
H3958 C3946 0.960 . S
H3959 C3946 0.962 . S
H3960 C3946 0.960 . S
H3961 C3947 0.961 . S
H3962 C3947 0.961 . S
H3963 C3947 0.961 . S
H3964 C3948 0.931 . S
H3965 C3953 0.930 . S
H3966 C3954 0.956 . S
H3967 C3954 0.961 . S
H3968 C3954 0.961 . S
H3969 C3955 0.958 . S
H3970 C3955 0.961 . S
H3971 C3955 0.960 . S
C3972 C3973 1.391 . S
C3972 C3974 1.394 . S
C3972 H3988 0.931 . S
C3973 C3972 1.391 . S
C3973 C3977 1.376 . S
C3974 C3972 1.394 . S
C3974 C3975 1.369 . S
C3974 C3978 1.531 . S
C3975 C3974 1.369 . S
C3975 C3976 1.410 . S
C3975 C3983 1.503 . S
C3976 C3975 1.410 . S
C3976 C3977 1.392 . S
C3976 C3979 1.511 . S
C3977 C3973 1.376 . S
C3977 C3976 1.392 . S
C3977 H3989 0.929 . S
C3978 C3974 1.531 . S
C3978 H3990 0.960 . S
C3978 H3991 0.962 . S
C3978 H3992 0.960 . S
C3979 C3976 1.511 . S
C3979 H3993 0.961 . S
C3979 H3994 0.961 . S
C3979 H3995 0.961 . S
C3980 C3981 1.370 . S
C3980 C3982 1.363 . S
C3980 H3996 0.931 . S
C3981 C3980 1.370 . S
C3981 C3985 1.408 . S
C3982 C3980 1.363 . S
C3982 C3983 1.370 . S
C3982 C3986 1.524 . S
C3983 C3975 1.503 . S
C3983 C3982 1.370 . S
C3983 C3984 1.403 . S
C3984 C3983 1.403 . S
C3984 C3985 1.404 . S
C3984 C3987 1.539 . S
C3985 C3981 1.408 . S
C3985 C3984 1.404 . S
C3985 H3997 0.930 . S
C3986 C3982 1.524 . S
C3986 H3998 0.956 . S
C3986 H3999 0.961 . S
C3986 H4000 0.961 . S
C3987 C3984 1.539 . S
C3987 H4001 0.958 . S
C3987 H4002 0.961 . S
C3987 H4003 0.960 . S
H3988 C3972 0.931 . S
H3989 C3977 0.929 . S
H3990 C3978 0.960 . S
H3991 C3978 0.962 . S
H3992 C3978 0.960 . S
H3993 C3979 0.961 . S
H3994 C3979 0.961 . S
H3995 C3979 0.961 . S
H3996 C3980 0.931 . S
H3997 C3985 0.930 . S
H3998 C3986 0.956 . S
H3999 C3986 0.961 . S
H4000 C3986 0.961 . S
H4001 C3987 0.958 . S
H4002 C3987 0.961 . S
H4003 C3987 0.960 . S
C4004 C4005 1.391 . S
C4004 C4006 1.394 . S
C4004 H4020 0.931 . S
C4005 C4004 1.391 . S
C4005 C4009 1.376 . S
C4006 C4004 1.394 . S
C4006 C4007 1.369 . S
C4006 C4010 1.531 . S
C4007 C4006 1.369 . S
C4007 C4008 1.410 . S
C4007 C4015 1.503 . S
C4008 C4007 1.410 . S
C4008 C4009 1.392 . S
C4008 C4011 1.511 . S
C4009 C4005 1.376 . S
C4009 C4008 1.392 . S
C4009 H4021 0.929 . S
C4010 C4006 1.531 . S
C4010 H4022 0.960 . S
C4010 H4023 0.962 . S
C4010 H4024 0.960 . S
C4011 C4008 1.511 . S
C4011 H4025 0.961 1_565 S
C4011 H4026 0.961 . S
C4011 H4027 0.961 . S
C4012 C4013 1.370 . S
C4012 C4014 1.363 . S
C4012 H4028 0.931 . S
C4013 C4012 1.370 . S
C4013 C4017 1.408 . S
C4014 C4012 1.363 . S
C4014 C4015 1.370 . S
C4014 C4018 1.524 . S
C4015 C4007 1.503 . S
C4015 C4014 1.370 . S
C4015 C4016 1.403 . S
C4016 C4015 1.403 . S
C4016 C4017 1.404 . S
C4016 C4019 1.539 . S
C4017 C4013 1.408 . S
C4017 C4016 1.404 . S
C4017 H4029 0.930 . S
C4018 C4014 1.524 . S
C4018 H4030 0.956 . S
C4018 H4031 0.961 . S
C4018 H4032 0.961 . S
C4019 C4016 1.539 . S
C4019 H4033 0.958 . S
C4019 H4034 0.961 . S
C4019 H4035 0.960 . S
H4020 C4004 0.931 . S
H4021 C4009 0.929 . S
H4022 C4010 0.960 . S
H4023 C4010 0.962 . S
H4024 C4010 0.960 . S
H4025 C4011 0.961 1_545 S
H4026 C4011 0.961 . S
H4027 C4011 0.961 . S
H4028 C4012 0.931 . S
H4029 C4017 0.930 . S
H4030 C4018 0.956 . S
H4031 C4018 0.961 . S
H4032 C4018 0.961 . S
H4033 C4019 0.958 . S
H4034 C4019 0.961 . S
H4035 C4019 0.960 . S
C4036 C4037 1.391 . S
C4036 C4038 1.394 . S
C4036 H4052 0.931 . S
C4037 C4036 1.391 . S
C4037 C4041 1.376 . S
C4038 C4036 1.394 . S
C4038 C4039 1.369 . S
C4038 C4042 1.531 . S
C4039 C4038 1.369 . S
C4039 C4040 1.410 . S
C4039 C4047 1.503 . S
C4040 C4039 1.410 . S
C4040 C4041 1.392 . S
C4040 C4043 1.511 . S
C4041 C4037 1.376 . S
C4041 C4040 1.392 . S
C4041 H4053 0.929 . S
C4042 C4038 1.531 . S
C4042 H4054 0.960 . S
C4042 H4055 0.962 . S
C4042 H4056 0.960 . S
C4043 C4040 1.511 . S
C4043 H4057 0.961 . S
C4043 H4058 0.961 . S
C4043 H4059 0.961 . S
C4044 C4045 1.370 . S
C4044 C4046 1.363 . S
C4044 H4060 0.918 1_455 S
C4045 C4044 1.370 . S
C4045 C4049 1.408 . S
C4046 C4044 1.363 . S
C4046 C4047 1.370 . S
C4046 C4050 1.524 . S
C4047 C4039 1.503 . S
C4047 C4046 1.370 . S
C4047 C4048 1.403 . S
C4048 C4047 1.403 . S
C4048 C4049 1.404 . S
C4048 C4051 1.539 . S
C4049 C4045 1.408 . S
C4049 C4048 1.404 . S
C4049 H4061 0.930 . S
C4050 C4046 1.524 . S
C4050 H4062 0.956 . S
C4050 H4063 0.961 . S
C4050 H4064 0.961 1_455 S
C4051 C4048 1.539 . S
C4051 H4065 0.958 . S
C4051 H4066 0.961 . S
C4051 H4067 0.960 . S
H4052 C4036 0.931 . S
H4053 C4041 0.929 . S
H4054 C4042 0.960 . S
H4055 C4042 0.962 . S
H4056 C4042 0.960 . S
H4057 C4043 0.961 . S
H4058 C4043 0.961 . S
H4059 C4043 0.961 . S
H4060 C4044 0.918 1_655 S
H4061 C4049 0.930 . S
H4062 C4050 0.956 . S
H4063 C4050 0.961 . S
H4064 C4050 0.961 1_655 S
H4065 C4051 0.958 . S
H4066 C4051 0.961 . S
H4067 C4051 0.960 . S
C1189 N2 1.120 . S
C1197 C73 1.071 1_545 S
C1221 C7 1.029 1_655 S
C1229 N35 1.107 . S
C1253 C40 1.120 . S
C1261 N68 1.072 . S
C1285 C139 1.022 1_455 S
C1293 N101 1.104 . S
C1317 C172 1.022 . S
C1325 N134 1.107 . S
C1349 C106 1.115 1_565 S
C1357 N167 1.064 . S
C1381 C271 1.084 1_565 S
C1389 N200 1.081 . S
C1413 N233 1.098 . S
C1421 C205 1.074 1_455 S
C1445 C238 1.081 . S
C1453 N266 1.082 . S
C1477 C337 1.131 1_655 S
C1485 N299 1.062 . S
C1509 N332 1.112 . S
C1517 C370 1.070 . S
C1541 C304 1.022 1_545 S
C1549 N365 1.107 . S
C1573 N398 1.103 . S
C1581 C469 1.080 . S
C1605 N431 1.139 . S
C1613 C403 1.058 . S
C1637 N464 1.068 . S
C1645 C436 1.081 . S
C1669 C535 1.054 . S
C1677 N497 1.100 . S
C1701 C568 1.126 . S
C1709 N530 1.069 . S
C1733 N563 1.023 . S
C1741 C502 1.103 . S
C1765 N596 1.089 . S
C1773 C667 1.080 . S
C1797 N629 1.117 . S
C1805 C601 1.067 . S
C1829 N662 1.027 . S
C1837 C634 1.103 . S
C1861 C733 1.033 . S
C1869 N695 1.102 . S
C1893 C766 1.137 . S
C1901 N728 1.058 . S
C1925 N761 1.046 . S
C1933 C700 1.097 . S
C1957 C865 1.124 . S
C1965 N794 1.061 . S
C1989 C799 1.047 . S
C1997 N827 1.090 . S
C2021 N860 1.026 . S
C2029 C832 1.101 . S
C2053 C931 1.038 . S
C2061 N893 1.095 . S
C2085 N926 1.031 . S
C2093 C964 1.105 . S
C2117 C898 1.020 . S
C2125 N959 1.107 . S
C2149 C1063 1.025 . S
C2157 N992 1.106 . S
C2181 N1025 1.066 . S
C2189 C997 1.087 . S
C2213 N1058 1.071 . S
C2221 C1030 1.085 . S
C2245 C1129 1.135 . S
C2253 N1091 1.060 . S
C2277 C1162 1.085 . S
C2285 N1124 1.080 . S
C2309 N1157 1.034 . S
C2317 C1096 1.101 . S
C2341 N673 1.438 . S
C2349 C18 1.433 . S
C2373 C51 1.399 . S
C2381 N607 1.405 1_565 S
C2405 C84 1.423 . S
C2413 N640 1.414 1_455 S
C2437 N1135 1.422 . S
C2445 C117 1.424 . S
C2469 N1168 1.397 1_545 S
C2477 C150 1.421 . S
C2501 C183 1.409 . S
C2509 N1102 1.408 1_655 S
C2533 C216 1.434 . S
C2541 N871 1.423 . S
C2565 C249 1.404 . S
C2573 N805 1.408 1_545 S
C2597 C282 1.399 . S
C2605 N838 1.406 1_655 S
C2629 N541 1.400 . S
C2637 C315 1.420 . S
C2661 C348 1.409 . S
C2669 N574 1.411 1_565 S
C2693 C381 1.434 . S
C2701 N508 1.423 1_455 S
C2725 C414 1.412 . S
C2733 N1069 1.416 . S
C2757 N1003 1.419 . S
C2765 C447 1.423 . S
C2789 N1036 1.410 . S
C2797 C480 1.419 . S
C2821 C513 1.410 . S
C2829 N343 1.408 . S
C2853 C546 1.411 . S
C2861 N376 1.415 . S
C2885 C579 1.408 . S
C2893 N310 1.414 . S
C2917 N79 1.387 . S
C2925 C612 1.414 . S
C2949 C645 1.406 . S
C2957 N13 1.410 . S
C2981 C678 1.441 . S
C2989 N46 1.426 . S
C3013 N937 1.396 . S
C3021 C711 1.418 . S
C3045 C744 1.409 . S
C3053 N970 1.411 . S
C3077 C777 1.405 . S
C3085 N904 1.409 . S
C3109 N277 1.396 . S
C3117 C810 1.416 . S
C3141 N211 1.412 . S
C3149 C843 1.427 . S
C3173 C876 1.436 . S
C3181 N244 1.426 . S
C3205 C909 1.438 . S
C3213 N739 1.427 . S
C3237 N772 1.411 . S
C3245 C942 1.426 . S
C3269 C975 1.399 . S
C3277 N706 1.406 . S
C3301 N475 1.401 . S
C3309 C1008 1.420 . S
C3333 C1041 1.398 . S
C3341 N409 1.406 . S
C3365 C1074 1.438 . S
C3373 N442 1.424 . S
C3397 N145 1.412 . S
C3405 C1107 1.424 . S
C3429 C1140 1.441 . S
C3437 N178 1.426 . S
C3461 N112 1.424 . S
C3469 C1173 1.428 . S
C3493 C153 1.557 . S
C3501 C21 1.523 . S
C3525 C54 1.540 . S
C3533 C186 1.550 . S
C3557 C87 1.500 . S
C3565 C120 1.548 . S
C3589 C219 1.559 . S
C3597 C351 1.522 . S
C3621 C252 1.519 . S
C3629 C384 1.531 . S
C3653 C285 1.503 . S
C3661 C318 1.552 . S
C3685 C549 1.538 . S
C3693 C417 1.551 . S
C3717 C582 1.567 . S
C3725 C450 1.537 . S
C3749 C516 1.567 . S
C3757 C483 1.527 . S
C3781 C747 1.555 . S
C3789 C615 1.540 . S
C3813 C780 1.525 . S
C3821 C648 1.528 . S
C3845 C714 1.559 . S
C3853 C681 1.522 . S
C3877 C945 1.533 . S
C3885 C813 1.551 . S
C3909 C846 1.515 . S
C3917 C978 1.552 . S
C3941 C912 1.497 . S
C3949 C879 1.543 . S
C3973 C1143 1.554 . S
C3981 C1011 1.522 . S
C4005 C1176 1.498 . S
C4013 C1044 1.550 . S
C4037 C1077 1.541 . S
C4045 C1110 1.523 . S
