# Generated by pormake.
# Topology zfv, (5)-cn, num edge types: 1
# Building blocks:
#     Node 0, Type 0, BuildingBlock: BEQFEK_clean_sbu_0, # of connection points: 5
#     Node 1, Type 0, BuildingBlock: BEQFEK_clean_sbu_0, # of connection points: 5
#     Node 2, Type 0, BuildingBlock: BEQFEK_clean_sbu_0, # of connection points: 5
#     Node 3, Type 0, BuildingBlock: BEQFEK_clean_sbu_0, # of connection points: 5
#     Node 4, Type 0, BuildingBlock: BEQFEK_clean_sbu_0, # of connection points: 5
#     Node 5, Type 0, BuildingBlock: BEQFEK_clean_sbu_0, # of connection points: 5
#     Node 6, Type 0, BuildingBlock: BEQFEK_clean_sbu_0, # of connection points: 5
#     Node 7, Type 0, BuildingBlock: BEQFEK_clean_sbu_0, # of connection points: 5
#     Node 8, Type 0, BuildingBlock: BEQFEK_clean_sbu_0, # of connection points: 5
#     Node 9, Type 0, BuildingBlock: BEQFEK_clean_sbu_0, # of connection points: 5
#     Node 10, Type 0, BuildingBlock: BEQFEK_clean_sbu_0, # of connection points: 5
#     Node 11, Type 0, BuildingBlock: BEQFEK_clean_sbu_0, # of connection points: 5
#     Node 12, Type 0, BuildingBlock: BEQFEK_clean_sbu_0, # of connection points: 5
#     Node 13, Type 0, BuildingBlock: BEQFEK_clean_sbu_0, # of connection points: 5
#     Node 14, Type 0, BuildingBlock: BEQFEK_clean_sbu_0, # of connection points: 5
#     Node 15, Type 0, BuildingBlock: BEQFEK_clean_sbu_0, # of connection points: 5
#     Edge 16, Type (0, 0), None
#     Edge 17, Type (0, 0), None
#     Edge 18, Type (0, 0), None
#     Edge 19, Type (0, 0), None
#     Edge 20, Type (0, 0), None
#     Edge 21, Type (0, 0), None
#     Edge 22, Type (0, 0), None
#     Edge 23, Type (0, 0), None
#     Edge 24, Type (0, 0), None
#     Edge 25, Type (0, 0), None
#     Edge 26, Type (0, 0), None
#     Edge 27, Type (0, 0), None
#     Edge 28, Type (0, 0), None
#     Edge 29, Type (0, 0), None
#     Edge 30, Type (0, 0), None
#     Edge 31, Type (0, 0), None
#     Edge 32, Type (0, 0), None
#     Edge 33, Type (0, 0), None
#     Edge 34, Type (0, 0), None
#     Edge 35, Type (0, 0), None
#     Edge 36, Type (0, 0), None
#     Edge 37, Type (0, 0), None
#     Edge 38, Type (0, 0), None
#     Edge 39, Type (0, 0), None
#     Edge 40, Type (0, 0), None
#     Edge 41, Type (0, 0), None
#     Edge 42, Type (0, 0), None
#     Edge 43, Type (0, 0), None
#     Edge 44, Type (0, 0), None
#     Edge 45, Type (0, 0), None
#     Edge 46, Type (0, 0), None
#     Edge 47, Type (0, 0), None
#     Edge 48, Type (0, 0), None
#     Edge 49, Type (0, 0), None
#     Edge 50, Type (0, 0), None
#     Edge 51, Type (0, 0), None
#     Edge 52, Type (0, 0), None
#     Edge 53, Type (0, 0), None
#     Edge 54, Type (0, 0), None
#     Edge 55, Type (0, 0), None
# Relax obj value: 0.079
# Max RMSD: 0.141
# Mean RMSD: 0.141
data_MOF--net-zfv--node1-BEQFEK_clean_sbu_0--edge1-none
_symmetry_space_group_name_H-M    P1
_symmetry_Int_Tables_number       1
_symmetry_cell_setting            triclinic
loop_
_symmetry_equiv_pos_as_xyz
'x, y, z'
_cell_length_a     35.973971
_cell_length_b     35.975661
_cell_length_c     11.296647
_cell_angle_alpha  89.9958
_cell_angle_beta   90.000263
_cell_angle_gamma 89.999545
loop_
_atom_site_label
_atom_site_type_symbol
_atom_site_fract_x
_atom_site_fract_y
_atom_site_fract_z
_atom_type_partial_charge
Co0 Co 0.00547 0.61189 0.21889 0.0
Co1 Co 0.00105 0.628 0.9479 0.0
C2 C 0.94449 0.66072 0.10445 0.0
O3 O 0.96054 0.64488 0.19199 0.0
O4 O 0.95624 0.65646 -0.00154 0.0
C5 C 0.99116 0.61588 0.46574 0.0
O6 O 0.96717 0.64124 0.43251 0.0
C7 C 0.98607 0.62711 0.69077 0.0
C8 C 0.03962 0.60541 0.62424 0.0
C9 C 0.00416 0.61525 0.58889 0.0
N10 N 0.00962 0.62406 0.78216 0.0
N11 N 0.04162 0.61119 0.74172 0.0
C12 C 0.9465 0.63831 0.70434 0.0
H13 H 0.93535 0.62868 0.7905 0.0
H14 H 0.92931 0.62704 0.63121 0.0
H15 H 0.9455 0.66903 0.7053 0.0
C16 C 0.01322 0.53392 0.11853 0.0
N17 N 0.0073 0.57088 0.11044 0.0
N18 N -0.00179 0.57863 0.00094 0.0
C19 C 0.99443 0.54698 0.9385 0.0
C20 C 0.00504 0.51728 0.00878 0.0
C21 C 0.02946 0.51614 0.22645 0.0
H22 H 0.04965 0.53541 0.26837 0.0
H23 H 0.00707 0.51101 0.29198 0.0
H24 H 0.04361 0.48965 0.20415 0.0
O25 O 0.04871 0.64403 0.20183 0.0
O26 O 0.04572 0.65531 0.00942 0.0
H27 H 0.99374 0.54899 0.74887 0.0
H28 H 0.96025 0.51747 0.81227 0.0
C29 C 0.97412 0.5448 0.82307 0.0
H30 H 0.95259 0.56671 0.81926 0.0
H31 H 0.06451 0.60519 0.79519 0.0
O32 O 0.00838 0.59704 0.38775 0.0
C33 C 0.06114 0.65983 0.10994 0.0
Co34 Co 0.63774 0.7504 0.46889 0.0
Co35 Co 0.6216 0.74599 0.1979 0.0
C36 C 0.58894 0.6894 0.35448 0.0
O37 O 0.60478 0.70545 0.44201 0.0
O38 O 0.59318 0.70116 0.24849 0.0
C39 C 0.63368 0.73615 0.71573 0.0
O40 O 0.60827 0.71222 0.68246 0.0
C41 C 0.62247 0.73104 0.94075 0.0
C42 C 0.64414 0.7846 0.87422 0.0
C43 C 0.63432 0.74914 0.83887 0.0
N44 N 0.62552 0.75459 0.03215 0.0
N45 N 0.63837 0.7866 -0.00829 0.0
C46 C 0.61128 0.69148 0.9543 0.0
H47 H 0.62091 0.68032 0.04046 0.0
H48 H 0.62258 0.6743 0.88117 0.0
H49 H 0.58057 0.69046 0.95522 0.0
C50 C 0.71571 0.75814 0.36848 0.0
N51 N 0.67874 0.75224 0.3604 0.0
N52 N 0.67099 0.74318 0.25088 0.0
C53 C 0.70263 0.7394 0.18841 0.0
C54 C 0.73234 0.74997 0.2587 0.0
C55 C 0.73351 0.77432 0.47644 0.0
H56 H 0.71426 0.79452 0.51841 0.0
H57 H 0.73861 0.75192 0.54191 0.0
H58 H 0.76002 0.78845 0.45417 0.0
O59 O 0.60558 0.79362 0.45186 0.0
O60 O 0.59428 0.79064 0.25945 0.0
H61 H 0.70061 0.73878 -0.00122 0.0
H62 H 0.73212 0.70524 0.06204 0.0
C63 C 0.7048 0.71913 0.07291 0.0
H64 H 0.68287 0.69761 0.06906 0.0
H65 H 0.64436 0.80948 0.04519 0.0
O66 O 0.65258 0.75331 0.63776 0.0
C67 C 0.58976 0.80605 0.35998 0.0
Co68 Co 0.49946 0.38254 0.7189 0.0
Co69 Co 0.50388 0.36644 0.44793 0.0
C70 C 0.5604 0.33366 0.60449 0.0
O71 O 0.54436 0.3495 0.69203 0.0
O72 O 0.54866 0.33795 0.49849 0.0
C73 C 0.51382 0.37858 0.96579 0.0
O74 O 0.53786 0.35326 0.9326 0.0
C75 C 0.5189 0.36736 0.19084 0.0
C76 C 0.46534 0.38901 0.12421 0.0
C77 C 0.50081 0.3792 0.08892 0.0
N78 N 0.49532 0.37039 0.28218 0.0
N79 N 0.46332 0.38324 0.24169 0.0
C80 C 0.55846 0.35618 0.2045 0.0
H81 H 0.56961 0.36588 0.29057 0.0
H82 H 0.57565 0.36738 0.13126 0.0
H83 H 0.55946 0.32546 0.20578 0.0
C84 C 0.49175 0.46052 0.61857 0.0
N85 N 0.49766 0.42356 0.61047 0.0
N86 N 0.50675 0.41582 0.50096 0.0
C87 C 0.51052 0.44747 0.43853 0.0
C88 C 0.49992 0.47716 0.50882 0.0
C89 C 0.47551 0.47829 0.72649 0.0
H90 H 0.45532 0.45902 0.76841 0.0
H91 H 0.49789 0.48343 0.79201 0.0
H92 H 0.46135 0.50479 0.70419 0.0
O93 O 0.45619 0.35044 0.70183 0.0
O94 O 0.45918 0.33916 0.50941 0.0
H95 H 0.51119 0.44545 0.24889 0.0
H96 H 0.54468 0.477 0.31223 0.0
C97 C 0.53082 0.44966 0.32307 0.0
H98 H 0.55237 0.42777 0.31927 0.0
H99 H 0.44042 0.38921 0.29512 0.0
O100 O 0.49657 0.39737 0.88776 0.0
C101 C 0.44375 0.33465 0.60993 0.0
Co102 Co 0.86711 0.24415 0.96897 0.0
Co103 Co 0.88321 0.24858 0.69799 0.0
C104 C 0.91593 0.30513 0.85454 0.0
O105 O 0.9001 0.28908 0.94207 0.0
O106 O 0.91167 0.29339 0.74854 0.0
C107 C 0.87108 0.25848 0.21583 0.0
O108 O 0.89641 0.28249 0.1826 0.0
C109 C 0.8823 0.26357 0.44086 0.0
C110 C 0.86064 0.21002 0.37432 0.0
C111 C 0.87045 0.24548 0.33897 0.0
N112 N 0.87926 0.24001 0.53224 0.0
N113 N 0.86641 0.20801 0.4918 0.0
C114 C 0.89349 0.30314 0.45444 0.0
H115 H 0.88385 0.31428 0.54058 0.0
H116 H 0.88223 0.32033 0.38129 0.0
H117 H 0.92421 0.30414 0.45546 0.0
C118 C 0.78913 0.2364 0.86861 0.0
N119 N 0.82609 0.24233 0.86052 0.0
N120 N 0.83384 0.25142 0.75102 0.0
C121 C 0.80219 0.25519 0.68857 0.0
C122 C 0.77249 0.24457 0.75885 0.0
C123 C 0.77136 0.22016 0.97652 0.0
H124 H 0.79064 0.19999 0.0185 0.0
H125 H 0.7662 0.24254 0.04201 0.0
H126 H 0.74487 0.20598 0.95421 0.0
O127 O 0.89924 0.20091 0.9519 0.0
O128 O 0.91053 0.20391 0.75949 0.0
H129 H 0.80421 0.25589 0.49894 0.0
H130 H 0.77266 0.28936 0.56233 0.0
C131 C 0.8 0.2755 0.57314 0.0
H132 H 0.8219 0.29705 0.56937 0.0
H133 H 0.86043 0.18512 0.54527 0.0
O134 O 0.85226 0.24124 0.13783 0.0
C135 C 0.91504 0.18848 0.86001 0.0
Co136 Co 0.00549 0.38257 0.76429 0.0
Co137 Co 0.00106 0.36647 0.03528 0.0
C138 C 0.94452 0.33374 0.87872 0.0
O139 O 0.96057 0.34957 0.79118 0.0
O140 O 0.95626 0.33801 0.98472 0.0
C141 C 0.99114 0.37862 0.51742 0.0
O142 O 0.96711 0.35331 0.55064 0.0
C143 C 0.98606 0.36739 0.29239 0.0
C144 C 0.03962 0.38905 0.35896 0.0
C145 C 0.00415 0.37924 0.39429 0.0
N146 N 0.00962 0.37042 0.20102 0.0
N147 N 0.04163 0.38327 0.24149 0.0
C148 C 0.94649 0.3562 0.27878 0.0
H149 H 0.93535 0.36585 0.19264 0.0
H150 H 0.9293 0.36745 0.35194 0.0
H151 H 0.94549 0.32548 0.27772 0.0
C152 C 0.01321 0.46055 0.8646 0.0
N153 N 0.0073 0.42359 0.87272 0.0
N154 N -0.00179 0.41585 0.98222 0.0
C155 C 0.99443 0.4475 0.04464 0.0
C156 C 0.00502 0.47719 0.97432 0.0
C157 C 0.02945 0.47832 0.75667 0.0
H158 H 0.04963 0.45905 0.71474 0.0
H159 H 0.00706 0.48346 0.69116 0.0
H160 H 0.0436 0.50482 0.77897 0.0
O161 O 0.04873 0.35044 0.78138 0.0
O162 O 0.04574 0.33916 0.97379 0.0
H163 H 0.99374 0.44548 0.23427 0.0
H164 H 0.96026 0.47702 0.17089 0.0
C165 C 0.97412 0.44969 0.16008 0.0
H166 H 0.95258 0.42778 0.16387 0.0
H167 H 0.06452 0.38925 0.18803 0.0
O168 O 0.0084 0.39742 0.59543 0.0
C169 C 0.06116 0.33464 0.87328 0.0
Co170 Co 0.86706 0.7503 0.01421 0.0
Co171 Co 0.88315 0.74584 0.28518 0.0
C172 C 0.91588 0.6893 0.12863 0.0
O173 O 0.90006 0.70537 0.04109 0.0
O174 O 0.91161 0.70104 0.23464 0.0
C175 C 0.87099 0.73592 0.76733 0.0
O176 O 0.89627 0.71185 0.80053 0.0
C177 C 0.88221 0.73083 0.54229 0.0
C178 C 0.86058 0.7844 0.60886 0.0
C179 C 0.87037 0.74892 0.64419 0.0
N180 N 0.87919 0.75439 0.45092 0.0
N181 N 0.86635 0.78641 0.49138 0.0
C182 C 0.89338 0.69126 0.52868 0.0
H183 H 0.88371 0.68011 0.44257 0.0
H184 H 0.88213 0.67407 0.60187 0.0
H185 H 0.92409 0.69024 0.52755 0.0
C186 C 0.78909 0.7581 0.11453 0.0
N187 N 0.82605 0.75213 0.12262 0.0
N188 N 0.83377 0.74301 0.23211 0.0
C189 C 0.80212 0.73926 0.29453 0.0
C190 C 0.77244 0.74991 0.22424 0.0
C191 C 0.77134 0.7744 0.00666 0.0
H192 H 0.79064 0.79457 0.9648 0.0
H193 H 0.76617 0.75204 0.94106 0.0
H194 H 0.74486 0.78858 0.029 0.0
O195 O 0.8992 0.79353 0.0313 0.0
O196 O 0.91047 0.79052 0.22372 0.0
H197 H 0.80413 0.73853 0.48416 0.0
H198 H 0.77255 0.70509 0.42071 0.0
C199 C 0.7999 0.71893 0.40993 0.0
H200 H 0.82179 0.69737 0.4137 0.0
H201 H 0.86039 0.8093 0.43792 0.0
O202 O 0.85222 0.75321 0.84535 0.0
C203 C 0.915 0.80595 0.12322 0.0
Co204 Co 0.49942 0.61189 0.26431 0.0
Co205 Co 0.50387 0.62798 0.53528 0.0
C206 C 0.56038 0.66077 0.37869 0.0
O207 O 0.54433 0.64493 0.29116 0.0
O208 O 0.54865 0.65648 0.4847 0.0
C209 C 0.51381 0.61583 0.01743 0.0
O210 O 0.53787 0.64112 0.05061 0.0
C211 C 0.51888 0.62706 0.79238 0.0
C212 C 0.46532 0.60541 0.85899 0.0
C213 C 0.5008 0.61521 0.89429 0.0
N214 N 0.49531 0.62403 0.70103 0.0
N215 N 0.46331 0.61118 0.74151 0.0
C216 C 0.55845 0.63825 0.77873 0.0
H217 H 0.5696 0.62856 0.69264 0.0
H218 H 0.57565 0.62703 0.85195 0.0
H219 H 0.55945 0.66896 0.7775 0.0
C220 C 0.49174 0.53391 0.36463 0.0
N221 N 0.49764 0.57087 0.37274 0.0
N222 N 0.50674 0.57861 0.48224 0.0
C223 C 0.51052 0.54696 0.54466 0.0
C224 C 0.49994 0.51726 0.47435 0.0
C225 C 0.47549 0.51614 0.25672 0.0
H226 H 0.4553 0.53541 0.21481 0.0
H227 H 0.49787 0.511 0.19118 0.0
H228 H 0.46134 0.48964 0.27903 0.0
O229 O 0.45616 0.64399 0.28141 0.0
O230 O 0.45916 0.65527 0.47382 0.0
H231 H 0.5112 0.54897 0.7343 0.0
H232 H 0.54468 0.51743 0.67095 0.0
C233 C 0.53083 0.54476 0.66012 0.0
H234 H 0.55237 0.56666 0.66391 0.0
H235 H 0.44041 0.60521 0.68807 0.0
O236 O 0.49653 0.59705 0.09545 0.0
C237 C 0.44373 0.65978 0.37332 0.0
Co238 Co 0.63779 0.24405 0.51424 0.0
Co239 Co 0.62168 0.24847 0.78522 0.0
C240 C 0.58899 0.30505 0.62868 0.0
O241 O 0.60482 0.289 0.54114 0.0
O242 O 0.59323 0.29329 0.73467 0.0
C243 C 0.6337 0.25825 0.26741 0.0
O244 O 0.6082 0.28207 0.30068 0.0
C245 C 0.62252 0.26338 0.04239 0.0
C246 C 0.64433 0.20986 0.10882 0.0
C247 C 0.63441 0.24529 0.14425 0.0
N248 N 0.62565 0.23986 0.95095 0.0
N249 N 0.63859 0.20788 0.99132 0.0
C250 C 0.61125 0.30292 0.02893 0.0
H251 H 0.62085 0.31411 0.94278 0.0
H252 H 0.62253 0.32011 0.10207 0.0
H253 H 0.58053 0.30387 0.02807 0.0
C254 C 0.71577 0.23634 0.61462 0.0
N255 N 0.6788 0.24223 0.6227 0.0
N256 N 0.67105 0.25132 0.73219 0.0
C257 C 0.70269 0.25513 0.79464 0.0
C258 C 0.7324 0.24456 0.72436 0.0
C259 C 0.73357 0.22013 0.50671 0.0
H260 H 0.71432 0.19993 0.46476 0.0
H261 H 0.7387 0.24252 0.4412 0.0
H262 H 0.76007 0.20599 0.52903 0.0
O263 O 0.60564 0.20083 0.53129 0.0
O264 O 0.59436 0.20382 0.7237 0.0
H265 H 0.70069 0.25583 0.98427 0.0
H266 H 0.73216 0.28936 0.92085 0.0
C267 C 0.70485 0.27545 0.91006 0.0
H268 H 0.6829 0.29694 0.91386 0.0
H269 H 0.64464 0.18502 0.93779 0.0
O270 O 0.65265 0.24115 0.34538 0.0
C271 C 0.58984 0.1884 0.62319 0.0
Co272 Co 0.36709 0.25036 0.51427 0.0
Co273 Co 0.3832 0.24592 0.78525 0.0
C274 C 0.41591 0.18936 0.62868 0.0
O275 O 0.40008 0.20543 0.54115 0.0
O276 O 0.41165 0.20111 0.73469 0.0
C277 C 0.37104 0.23601 0.2674 0.0
O278 O 0.39635 0.21197 0.30062 0.0
C279 C 0.38228 0.23092 0.04237 0.0
C280 C 0.36062 0.28448 0.10891 0.0
C281 C 0.37043 0.24901 0.14426 0.0
N282 N 0.37925 0.25448 0.95099 0.0
N283 N 0.3664 0.28649 0.99144 0.0
C284 C 0.39347 0.19136 0.02878 0.0
H285 H 0.38384 0.18021 0.94263 0.0
H286 H 0.3822 0.17416 0.10192 0.0
H287 H 0.42419 0.19035 0.02779 0.0
C288 C 0.28911 0.25809 0.61462 0.0
N289 N 0.32608 0.25218 0.62272 0.0
N290 N 0.33382 0.24308 0.73221 0.0
C291 C 0.30218 0.2393 0.79465 0.0
C292 C 0.27248 0.2499 0.72437 0.0
C293 C 0.27133 0.27431 0.5067 0.0
H294 H 0.29059 0.2945 0.46474 0.0
H295 H 0.2662 0.25192 0.4412 0.0
H296 H 0.24483 0.28845 0.52899 0.0
O297 O 0.39925 0.29359 0.53135 0.0
O298 O 0.41053 0.29058 0.72376 0.0
H299 H 0.30419 0.23858 0.98428 0.0
H300 H 0.27266 0.2051 0.92087 0.0
C301 C 0.29999 0.21897 0.91006 0.0
H302 H 0.3219 0.19743 0.91382 0.0
H303 H 0.36042 0.30938 0.93797 0.0
O304 O 0.35225 0.25327 0.34541 0.0
C305 C 0.41505 0.30601 0.62325 0.0
Co306 Co 0.13776 0.74415 0.01432 0.0
Co307 Co 0.12165 0.74858 0.2853 0.0
C308 C 0.08892 0.80513 0.12872 0.0
O309 O 0.10476 0.78908 0.0412 0.0
O310 O 0.09319 0.79338 0.23472 0.0
C311 C 0.13379 0.75849 0.76745 0.0
O312 O 0.10846 0.7825 0.80066 0.0
C313 C 0.12256 0.76357 0.54241 0.0
C314 C 0.14422 0.71002 0.60899 0.0
C315 C 0.13441 0.74549 0.64431 0.0
N316 N 0.12559 0.74001 0.45105 0.0
N317 N 0.13845 0.70801 0.49152 0.0
C318 C 0.11137 0.80314 0.5288 0.0
H319 H 0.12102 0.81429 0.44267 0.0
H320 H 0.12263 0.82033 0.60196 0.0
H321 H 0.08065 0.80415 0.52774 0.0
C322 C 0.21573 0.73639 0.1147 0.0
N323 N 0.17877 0.74233 0.12278 0.0
N324 N 0.17102 0.75142 0.23227 0.0
C325 C 0.20267 0.75518 0.29472 0.0
C326 C 0.23237 0.74456 0.22446 0.0
C327 C 0.23351 0.72016 0.00679 0.0
H328 H 0.21423 0.69998 0.96484 0.0
H329 H 0.23865 0.74254 0.94127 0.0
H330 H 0.26 0.706 0.02909 0.0
O331 O 0.10562 0.70092 0.03138 0.0
O332 O 0.09433 0.70391 0.2238 0.0
H333 H 0.20066 0.75588 0.48436 0.0
H334 H 0.2322 0.78935 0.42096 0.0
C335 C 0.20486 0.7755 0.41015 0.0
H336 H 0.18296 0.79704 0.41393 0.0
H337 H 0.14443 0.68512 0.43806 0.0
O338 O 0.1526 0.74125 0.84546 0.0
C339 C 0.08982 0.68849 0.12328 0.0
Co340 Co 0.13777 0.25031 0.96894 0.0
Co341 Co 0.12166 0.24587 0.69795 0.0
C342 C 0.08894 0.18932 0.85453 0.0
O343 O 0.10478 0.20537 0.94206 0.0
O344 O 0.0932 0.20107 0.74853 0.0
C345 C 0.13378 0.23598 0.2158 0.0
O346 O 0.10844 0.21198 0.18258 0.0
C347 C 0.12256 0.23089 0.44083 0.0
C348 C 0.14424 0.28444 0.37427 0.0
C349 C 0.13442 0.24898 0.33894 0.0
N350 N 0.12561 0.25444 0.53221 0.0
N351 N 0.13847 0.28645 0.49175 0.0
C352 C 0.11137 0.19132 0.45442 0.0
H353 H 0.12101 0.18017 0.54057 0.0
H354 H 0.12264 0.17413 0.38128 0.0
H355 H 0.08065 0.19032 0.45543 0.0
C356 C 0.21574 0.25805 0.86858 0.0
N357 N 0.17878 0.25213 0.86049 0.0
N358 N 0.17104 0.24303 0.75099 0.0
C359 C 0.20269 0.23926 0.68855 0.0
C360 C 0.23238 0.24986 0.75884 0.0
C361 C 0.23352 0.27428 0.97649 0.0
H362 H 0.21424 0.29447 0.01843 0.0
H363 H 0.23866 0.2519 0.04201 0.0
H364 H 0.26001 0.28844 0.95419 0.0
O365 O 0.10563 0.29354 0.95187 0.0
O366 O 0.09435 0.29055 0.75945 0.0
H367 H 0.20067 0.23858 0.49892 0.0
H368 H 0.23221 0.20509 0.5623 0.0
C369 C 0.20488 0.21896 0.57311 0.0
H370 H 0.18297 0.19742 0.56932 0.0
H371 H 0.14445 0.30933 0.54521 0.0
O372 O 0.15261 0.25321 0.1378 0.0
C373 C 0.08984 0.30597 0.85996 0.0
Co374 Co 0.36708 0.74408 0.46901 0.0
Co375 Co 0.38318 0.74853 0.19802 0.0
C376 C 0.41587 0.80509 0.35459 0.0
O377 O 0.40005 0.78903 0.44213 0.0
O378 O 0.41162 0.79334 0.2486 0.0
C379 C 0.37104 0.75842 0.71587 0.0
O380 O 0.39635 0.78246 0.68264 0.0
C381 C 0.38227 0.76352 0.9409 0.0
C382 C 0.3606 0.70996 0.87437 0.0
C383 C 0.37042 0.74542 0.83901 0.0
N384 N 0.37923 0.73996 0.03228 0.0
N385 N 0.36638 0.70795 -0.00815 0.0
C386 C 0.39346 0.80308 0.95446 0.0
H387 H 0.38385 0.81423 0.04064 0.0
H388 H 0.38217 0.82027 0.88135 0.0
H389 H 0.42418 0.80409 0.95539 0.0
C390 C 0.2891 0.73636 0.36867 0.0
N391 N 0.32607 0.74226 0.36056 0.0
N392 N 0.33381 0.75135 0.25106 0.0
C393 C 0.30216 0.75515 0.18863 0.0
C394 C 0.27246 0.74456 0.25893 0.0
C395 C 0.27131 0.72014 0.47659 0.0
H396 H 0.29058 0.69995 0.51855 0.0
H397 H 0.26619 0.74253 0.54209 0.0
H398 H 0.24481 0.706 0.4543 0.0
O399 O 0.39924 0.70086 0.45193 0.0
O400 O 0.41052 0.70386 0.25951 0.0
H401 H 0.30418 0.75586 -0.001 0.0
H402 H 0.27265 0.78935 0.06241 0.0
C403 C 0.29998 0.77547 0.07322 0.0
H404 H 0.32189 0.79701 0.06945 0.0
H405 H 0.3604 0.68507 0.04532 0.0
O406 O 0.35224 0.74116 0.63786 0.0
C407 C 0.41504 0.68844 0.36002 0.0
Co408 Co 0.50544 0.11189 0.71891 0.0
Co409 Co 0.50101 0.12799 0.44792 0.0
C410 C 0.44449 0.16075 0.60449 0.0
O411 O 0.46054 0.14491 0.69203 0.0
O412 O 0.45623 0.15649 0.49849 0.0
C413 C 0.49109 0.11585 0.96578 0.0
O414 O 0.46708 0.14118 0.93257 0.0
C415 C 0.48601 0.12708 0.19081 0.0
C416 C 0.53956 0.10539 0.12425 0.0
C417 C 0.5041 0.11522 0.08892 0.0
N418 N 0.50957 0.12403 0.28218 0.0
N419 N 0.54157 0.11116 0.24173 0.0
C420 C 0.44645 0.13829 0.20442 0.0
H421 H 0.4353 0.12864 0.29056 0.0
H422 H 0.42925 0.12704 0.13126 0.0
H423 H 0.44546 0.16901 0.20549 0.0
C424 C 0.51314 0.03392 0.61859 0.0
N425 N 0.50723 0.07088 0.61049 0.0
N426 N 0.49813 0.07862 0.50099 0.0
C427 C 0.49434 0.04698 0.43856 0.0
C428 C 0.50495 0.01728 0.50884 0.0
C429 C 0.52938 0.01614 0.72648 0.0
H430 H 0.54958 0.0354 0.76838 0.0
H431 H 0.50701 0.01101 0.79204 0.0
H432 H 0.54352 0.98964 0.70418 0.0
O433 O 0.5487 0.14398 0.7018 0.0
O434 O 0.54571 0.15526 0.50938 0.0
H435 H 0.49364 0.04899 0.24893 0.0
H436 H 0.46015 0.01747 0.31234 0.0
C437 C 0.47402 0.04479 0.32314 0.0
H438 H 0.45249 0.06671 0.31935 0.0
H439 H 0.56446 0.10517 0.29519 0.0
O440 O 0.50834 0.09704 0.88777 0.0
C441 C 0.56115 0.15975 0.60988 0.0
Co442 Co -0.00067 0.88255 0.21893 0.0
Co443 Co 0.00378 0.86645 0.94795 0.0
C444 C 0.06033 0.83373 0.10452 0.0
O445 O 0.04427 0.84956 0.19206 0.0
O446 O 0.04858 0.83799 -0.00148 0.0
C447 C 0.01368 0.87859 0.46579 0.0
O448 O 0.03772 0.85328 0.43259 0.0
C449 C 0.01877 0.86736 0.69083 0.0
C450 C 0.96522 0.88903 0.62427 0.0
C451 C 0.00068 0.87921 0.58893 0.0
N452 N 0.99521 0.8704 0.7822 0.0
N453 N 0.96321 0.88326 0.74174 0.0
C454 C 0.05834 0.85617 0.70443 0.0
H455 H 0.06949 0.86582 0.79057 0.0
H456 H 0.07553 0.86743 0.63127 0.0
H457 H 0.05934 0.82546 0.70547 0.0
C458 C 0.9916 0.96052 0.11858 0.0
N459 N -0.00248 0.92356 0.11048 0.0
N460 N 0.00662 0.91582 0.00098 0.0
C461 C 0.0104 0.94747 0.93855 0.0
C462 C -0.00021 0.97717 0.00883 0.0
C463 C 0.97537 0.9783 0.22649 0.0
H464 H 0.95517 0.95903 0.26841 0.0
H465 H -0.00225 0.98342 0.29202 0.0
H466 H 0.96123 0.0048 0.20419 0.0
O467 O 0.9561 0.85041 0.20184 0.0
O468 O 0.9591 0.83914 0.00942 0.0
H469 H 0.01109 0.94546 0.74892 0.0
H470 H 0.04458 0.97699 0.81231 0.0
C471 C 0.03071 0.94966 0.82312 0.0
H472 H 0.05225 0.92775 0.81933 0.0
H473 H 0.94032 0.88923 0.7952 0.0
O474 O 0.99643 0.89739 0.38778 0.0
C475 C 0.94367 0.83462 0.10993 0.0
Co476 Co 0.50538 0.88259 0.26434 0.0
Co477 Co 0.50096 0.86648 0.53534 0.0
C478 C 0.44444 0.83372 0.37878 0.0
O479 O 0.46048 0.84956 0.29124 0.0
O480 O 0.45618 0.83799 0.48478 0.0
C481 C 0.49103 0.87863 0.01748 0.0
O482 O 0.46701 0.8533 0.05069 0.0
C483 C 0.48596 0.8674 0.79244 0.0
C484 C 0.53951 0.88907 0.85903 0.0
C485 C 0.50404 0.87925 0.89434 0.0
N486 N 0.50952 0.87044 0.70108 0.0
N487 N 0.54153 0.88329 0.74156 0.0
C488 C 0.44639 0.85621 0.77881 0.0
H489 H 0.43524 0.86588 0.6927 0.0
H490 H 0.42919 0.86744 0.852 0.0
H491 H 0.44539 0.82549 0.77766 0.0
C492 C 0.5131 0.96055 0.36466 0.0
N493 N 0.50718 0.92359 0.37278 0.0
N494 N 0.49809 0.91585 0.48228 0.0
C495 C 0.49432 0.9475 0.5447 0.0
C496 C 0.50492 0.97719 0.47439 0.0
C497 C 0.52935 0.97832 0.25676 0.0
H498 H 0.54954 0.95905 0.21485 0.0
H499 H 0.50698 0.98346 0.19121 0.0
H500 H 0.54351 0.00481 0.27906 0.0
O501 O 0.54864 0.85049 0.28143 0.0
O502 O 0.54566 0.8392 0.47385 0.0
H503 H 0.49364 0.94549 0.73434 0.0
H504 H 0.46016 0.97704 0.67097 0.0
C505 C 0.47401 0.9497 0.66016 0.0
H506 H 0.45247 0.9278 0.66397 0.0
H507 H 0.56442 0.88928 0.68811 0.0
O508 O 0.50828 0.89744 0.09549 0.0
C509 C 0.56108 0.83471 0.37333 0.0
Co510 Co -0.00063 0.11188 0.76432 0.0
Co511 Co 0.00382 0.12798 0.03531 0.0
C512 C 0.06036 0.16071 0.87873 0.0
O513 O 0.0443 0.14488 0.79119 0.0
O514 O 0.04861 0.15644 0.98473 0.0
C515 C 0.01373 0.11583 0.51745 0.0
O516 O 0.03778 0.14113 0.55065 0.0
C517 C 0.01882 0.12705 0.29241 0.0
C518 C 0.96526 0.10541 0.359 0.0
C519 C 0.00073 0.11521 0.39432 0.0
N520 N 0.99525 0.12403 0.20105 0.0
N521 N 0.96324 0.11118 0.24152 0.0
C522 C 0.05839 0.13823 0.2788 0.0
H523 H 0.06953 0.12857 0.19267 0.0
H524 H 0.07558 0.12698 0.35197 0.0
H525 H 0.0594 0.16895 0.27769 0.0
C526 C 0.99163 0.03391 0.86464 0.0
N527 N -0.00244 0.07087 0.87276 0.0
N528 N 0.00665 0.0786 0.98226 0.0
C529 C 0.01042 0.04695 0.04469 0.0
C530 C -0.00018 0.01726 0.97437 0.0
C531 C 0.97539 0.01614 0.75673 0.0
H532 H 0.95521 0.03542 0.7148 0.0
H533 H -0.00223 0.011 0.6912 0.0
H534 H 0.96123 0.98965 0.77902 0.0
O535 O 0.95614 0.14401 0.78141 0.0
O536 O 0.95913 0.15529 0.97383 0.0
H537 H 0.0111 0.04896 0.23432 0.0
H538 H 0.04458 0.01741 0.17096 0.0
C539 C 0.03073 0.04475 0.16014 0.0
H540 H 0.05227 0.06664 0.16394 0.0
H541 H 0.94035 0.10521 0.18807 0.0
O542 O 0.99647 0.09704 0.59547 0.0
C543 C 0.94371 0.15981 0.87332 0.0
loop_
_geom_bond_atom_site_label_1
_geom_bond_atom_site_label_2
_geom_bond_distance
_geom_bond_site_symmetry_2
_ccdc_geom_bond_type
Co0 O3 1.970 1_455 S
Co0 N17 1.989 . S
Co0 O25 1.967 . S
Co0 O32 1.920 . S
Co1 O4 1.966 1_455 S
Co1 N10 2.022 . S
Co1 N18 1.993 1_556 S
Co1 O26 1.941 . S
C2 O3 1.258 . S
C2 O4 1.263 1_554 S
O3 Co0 1.970 1_655 S
O3 C2 1.258 . S
O4 Co1 1.966 1_655 S
O4 C2 1.263 1_556 S
C5 O6 1.235 . S
C5 O32 1.289 1_655 S
O6 C5 1.235 . S
C7 C9 1.400 . S
C7 N10 1.351 1_655 S
C7 C12 1.501 . S
C8 C9 1.387 1_455 S
C8 N11 1.341 . S
C9 C7 1.400 . S
C9 C8 1.387 1_655 S
N10 Co1 2.022 . S
N10 C7 1.351 1_455 S
N10 N11 1.365 . S
N11 C8 1.341 . S
N11 N10 1.365 . S
N11 H31 0.862 . S
C12 C7 1.501 . S
C12 H13 0.961 . S
C12 H14 0.961 . S
C12 H15 0.960 . S
H13 C12 0.961 . S
H14 C12 0.961 . S
H15 C12 0.960 . S
C16 N17 1.342 . S
C16 C20 1.401 . S
C16 C21 1.499 . S
N17 Co0 1.989 . S
N17 C16 1.342 . S
N17 N18 1.388 . S
N18 Co1 1.993 1_554 S
N18 N17 1.388 . S
N18 C19 1.346 1_554 S
C19 N18 1.346 1_556 S
C19 C20 1.396 1_556 S
C19 C29 1.510 . S
C20 C16 1.401 . S
C20 C19 1.396 1_554 S
C21 C16 1.499 . S
C21 H22 0.959 . S
C21 H23 0.960 . S
C21 H24 0.961 . S
H22 C21 0.959 . S
H23 C21 0.960 . S
H24 C21 0.961 . S
O25 Co0 1.967 . S
O25 C33 1.258 . S
O26 Co1 1.941 . S
O26 C33 1.266 1_556 S
H27 C29 0.959 . S
H28 C29 0.961 1_655 S
C29 C19 1.510 . S
C29 H27 0.959 . S
C29 H28 0.961 1_455 S
C29 H30 0.960 . S
H30 C29 0.960 . S
H31 N11 0.862 . S
O32 Co0 1.920 . S
O32 C5 1.289 1_455 S
C33 O25 1.258 . S
C33 O26 1.266 1_554 S
Co34 O37 1.970 . S
Co34 N51 1.989 . S
Co34 O59 1.967 . S
Co34 O66 1.920 . S
Co35 O38 1.966 . S
Co35 N44 2.022 . S
Co35 N52 1.993 . S
Co35 O60 1.941 . S
C36 O37 1.258 . S
C36 O38 1.263 . S
O37 Co34 1.970 . S
O37 C36 1.258 . S
O38 Co35 1.966 . S
O38 C36 1.263 . S
C39 O40 1.235 . S
C39 O66 1.289 . S
O40 C39 1.235 . S
C41 C43 1.400 . S
C41 N44 1.351 1_556 S
C41 C46 1.501 . S
C42 C43 1.387 . S
C42 N45 1.341 . S
C43 C41 1.400 . S
C43 C42 1.387 . S
N44 Co35 2.022 . S
N44 C41 1.351 1_554 S
N44 N45 1.365 1_554 S
N45 C42 1.341 . S
N45 N44 1.365 1_556 S
N45 H65 0.862 . S
C46 C41 1.501 . S
C46 H47 0.961 1_556 S
C46 H48 0.961 . S
C46 H49 0.960 . S
H47 C46 0.961 1_554 S
H48 C46 0.961 . S
H49 C46 0.960 . S
C50 N51 1.342 . S
C50 C54 1.401 . S
C50 C55 1.499 . S
N51 Co34 1.989 . S
N51 C50 1.342 . S
N51 N52 1.388 . S
N52 Co35 1.993 . S
N52 N51 1.388 . S
N52 C53 1.346 . S
C53 N52 1.346 . S
C53 C54 1.396 . S
C53 C63 1.510 . S
C54 C50 1.401 . S
C54 C53 1.396 . S
C55 C50 1.499 . S
C55 H56 0.959 . S
C55 H57 0.960 . S
C55 H58 0.961 . S
H56 C55 0.959 . S
H57 C55 0.960 . S
H58 C55 0.961 . S
O59 Co34 1.967 . S
O59 C67 1.258 . S
O60 Co35 1.941 . S
O60 C67 1.266 . S
H61 C63 0.959 . S
H62 C63 0.961 . S
C63 C53 1.510 . S
C63 H61 0.959 . S
C63 H62 0.961 . S
C63 H64 0.960 . S
H64 C63 0.960 . S
H65 N45 0.862 . S
O66 Co34 1.920 . S
O66 C39 1.289 . S
C67 O59 1.258 . S
C67 O60 1.266 . S
Co68 O71 1.970 . S
Co68 N85 1.989 . S
Co68 O93 1.967 . S
Co68 O100 1.920 . S
Co69 O72 1.966 . S
Co69 N78 2.022 . S
Co69 N86 1.993 . S
Co69 O94 1.941 . S
C70 O71 1.258 . S
C70 O72 1.263 . S
O71 Co68 1.970 . S
O71 C70 1.258 . S
O72 Co69 1.966 . S
O72 C70 1.263 . S
C73 O74 1.235 . S
C73 O100 1.289 . S
O74 C73 1.235 . S
C75 C77 1.400 . S
C75 N78 1.351 . S
C75 C80 1.501 . S
C76 C77 1.387 . S
C76 N79 1.341 . S
C77 C75 1.400 . S
C77 C76 1.387 . S
N78 Co69 2.022 . S
N78 C75 1.351 . S
N78 N79 1.365 . S
N79 C76 1.341 . S
N79 N78 1.365 . S
N79 H99 0.862 . S
C80 C75 1.501 . S
C80 H81 0.961 . S
C80 H82 0.961 . S
C80 H83 0.960 . S
H81 C80 0.961 . S
H82 C80 0.961 . S
H83 C80 0.960 . S
C84 N85 1.342 . S
C84 C88 1.401 . S
C84 C89 1.499 . S
N85 Co68 1.989 . S
N85 C84 1.342 . S
N85 N86 1.388 . S
N86 Co69 1.993 . S
N86 N85 1.388 . S
N86 C87 1.346 . S
C87 N86 1.346 . S
C87 C88 1.396 . S
C87 C97 1.510 . S
C88 C84 1.401 . S
C88 C87 1.396 . S
C89 C84 1.499 . S
C89 H90 0.959 . S
C89 H91 0.960 . S
C89 H92 0.961 . S
H90 C89 0.959 . S
H91 C89 0.960 . S
H92 C89 0.961 . S
O93 Co68 1.967 . S
O93 C101 1.258 . S
O94 Co69 1.941 . S
O94 C101 1.266 . S
H95 C97 0.959 . S
H96 C97 0.961 . S
C97 C87 1.510 . S
C97 H95 0.959 . S
C97 H96 0.961 . S
C97 H98 0.960 . S
H98 C97 0.960 . S
H99 N79 0.862 . S
O100 Co68 1.920 . S
O100 C73 1.289 . S
C101 O93 1.258 . S
C101 O94 1.266 . S
Co102 O105 1.970 . S
Co102 N119 1.989 . S
Co102 O127 1.967 . S
Co102 O134 1.920 1_556 S
Co103 O106 1.966 . S
Co103 N112 2.022 . S
Co103 N120 1.993 . S
Co103 O128 1.941 . S
C104 O105 1.258 . S
C104 O106 1.263 . S
O105 Co102 1.970 . S
O105 C104 1.258 . S
O106 Co103 1.966 . S
O106 C104 1.263 . S
C107 O108 1.235 . S
C107 O134 1.289 . S
O108 C107 1.235 . S
C109 C111 1.400 . S
C109 N112 1.351 . S
C109 C114 1.501 . S
C110 C111 1.387 . S
C110 N113 1.341 . S
C111 C109 1.400 . S
C111 C110 1.387 . S
N112 Co103 2.022 . S
N112 C109 1.351 . S
N112 N113 1.365 . S
N113 C110 1.341 . S
N113 N112 1.365 . S
N113 H133 0.862 . S
C114 C109 1.501 . S
C114 H115 0.961 . S
C114 H116 0.961 . S
C114 H117 0.960 . S
H115 C114 0.961 . S
H116 C114 0.961 . S
H117 C114 0.960 . S
C118 N119 1.342 . S
C118 C122 1.401 . S
C118 C123 1.499 1_556 S
N119 Co102 1.989 . S
N119 C118 1.342 . S
N119 N120 1.388 . S
N120 Co103 1.993 . S
N120 N119 1.388 . S
N120 C121 1.346 . S
C121 N120 1.346 . S
C121 C122 1.396 . S
C121 C131 1.510 . S
C122 C118 1.401 . S
C122 C121 1.396 . S
C123 C118 1.499 1_554 S
C123 H124 0.959 . S
C123 H125 0.960 . S
C123 H126 0.961 . S
H124 C123 0.959 . S
H125 C123 0.960 . S
H126 C123 0.961 . S
O127 Co102 1.967 . S
O127 C135 1.258 . S
O128 Co103 1.941 . S
O128 C135 1.266 . S
H129 C131 0.959 . S
H130 C131 0.961 . S
C131 C121 1.510 . S
C131 H129 0.959 . S
C131 H130 0.961 . S
C131 H132 0.960 . S
H132 C131 0.960 . S
H133 N113 0.862 . S
O134 Co102 1.920 1_554 S
O134 C107 1.289 . S
C135 O127 1.258 . S
C135 O128 1.266 . S
Co136 O139 1.970 1_455 S
Co136 N153 1.989 . S
Co136 O161 1.967 . S
Co136 O168 1.920 . S
Co137 O140 1.966 1_455 S
Co137 N146 2.022 . S
Co137 N154 1.993 1_554 S
Co137 O162 1.941 . S
C138 O139 1.258 . S
C138 O140 1.263 1_556 S
O139 Co136 1.970 1_655 S
O139 C138 1.258 . S
O140 Co137 1.966 1_655 S
O140 C138 1.263 1_554 S
C141 O142 1.235 . S
C141 O168 1.289 1_655 S
O142 C141 1.235 . S
C143 C145 1.400 . S
C143 N146 1.351 1_655 S
C143 C148 1.501 . S
C144 C145 1.387 1_455 S
C144 N147 1.341 . S
C145 C143 1.400 . S
C145 C144 1.387 1_655 S
N146 Co137 2.022 . S
N146 C143 1.351 1_455 S
N146 N147 1.365 . S
N147 C144 1.341 . S
N147 N146 1.365 . S
N147 H167 0.862 . S
C148 C143 1.501 . S
C148 H149 0.961 . S
C148 H150 0.961 . S
C148 H151 0.960 . S
H149 C148 0.961 . S
H150 C148 0.961 . S
H151 C148 0.960 . S
C152 N153 1.342 . S
C152 C156 1.401 . S
C152 C157 1.499 . S
N153 Co136 1.989 . S
N153 C152 1.342 . S
N153 N154 1.388 . S
N154 Co137 1.993 1_556 S
N154 N153 1.388 . S
N154 C155 1.346 1_556 S
C155 N154 1.346 1_554 S
C155 C156 1.396 1_554 S
C155 C165 1.510 . S
C156 C152 1.401 . S
C156 C155 1.396 1_556 S
C157 C152 1.499 . S
C157 H158 0.959 . S
C157 H159 0.960 . S
C157 H160 0.961 . S
H158 C157 0.959 . S
H159 C157 0.960 . S
H160 C157 0.961 . S
O161 Co136 1.967 . S
O161 C169 1.258 . S
O162 Co137 1.941 . S
O162 C169 1.266 1_554 S
H163 C165 0.959 . S
H164 C165 0.961 1_655 S
C165 C155 1.510 . S
C165 H163 0.959 . S
C165 H164 0.961 1_455 S
C165 H166 0.960 . S
H166 C165 0.960 . S
H167 N147 0.862 . S
O168 Co136 1.920 . S
O168 C141 1.289 1_455 S
C169 O161 1.258 . S
C169 O162 1.266 1_556 S
Co170 O173 1.970 . S
Co170 N187 1.989 . S
Co170 O195 1.967 . S
Co170 O202 1.920 1_554 S
Co171 O174 1.966 . S
Co171 N180 2.022 . S
Co171 N188 1.993 . S
Co171 O196 1.941 . S
C172 O173 1.258 . S
C172 O174 1.263 . S
O173 Co170 1.970 . S
O173 C172 1.258 . S
O174 Co171 1.966 . S
O174 C172 1.263 . S
C175 O176 1.235 . S
C175 O202 1.289 . S
O176 C175 1.235 . S
C177 C179 1.400 . S
C177 N180 1.351 . S
C177 C182 1.501 . S
C178 C179 1.387 . S
C178 N181 1.341 . S
C179 C177 1.400 . S
C179 C178 1.387 . S
N180 Co171 2.022 . S
N180 C177 1.351 . S
N180 N181 1.365 . S
N181 C178 1.341 . S
N181 N180 1.365 . S
N181 H201 0.862 . S
C182 C177 1.501 . S
C182 H183 0.961 . S
C182 H184 0.961 . S
C182 H185 0.960 . S
H183 C182 0.961 . S
H184 C182 0.961 . S
H185 C182 0.960 . S
C186 N187 1.342 . S
C186 C190 1.401 . S
C186 C191 1.499 1_554 S
N187 Co170 1.989 . S
N187 C186 1.342 . S
N187 N188 1.388 . S
N188 Co171 1.993 . S
N188 N187 1.388 . S
N188 C189 1.346 . S
C189 N188 1.346 . S
C189 C190 1.396 . S
C189 C199 1.510 . S
C190 C186 1.401 . S
C190 C189 1.396 . S
C191 C186 1.499 1_556 S
C191 H192 0.959 . S
C191 H193 0.960 . S
C191 H194 0.961 . S
H192 C191 0.959 . S
H193 C191 0.960 . S
H194 C191 0.961 . S
O195 Co170 1.967 . S
O195 C203 1.258 . S
O196 Co171 1.941 . S
O196 C203 1.266 . S
H197 C199 0.959 . S
H198 C199 0.961 . S
C199 C189 1.510 . S
C199 H197 0.959 . S
C199 H198 0.961 . S
C199 H200 0.960 . S
H200 C199 0.960 . S
H201 N181 0.862 . S
O202 Co170 1.920 1_556 S
O202 C175 1.289 . S
C203 O195 1.258 . S
C203 O196 1.266 . S
Co204 O207 1.970 . S
Co204 N221 1.989 . S
Co204 O229 1.967 . S
Co204 O236 1.920 . S
Co205 O208 1.966 . S
Co205 N214 2.022 . S
Co205 N222 1.993 . S
Co205 O230 1.941 . S
C206 O207 1.258 . S
C206 O208 1.263 . S
O207 Co204 1.970 . S
O207 C206 1.258 . S
O208 Co205 1.966 . S
O208 C206 1.263 . S
C209 O210 1.235 . S
C209 O236 1.289 . S
O210 C209 1.235 . S
C211 C213 1.400 . S
C211 N214 1.351 . S
C211 C216 1.501 . S
C212 C213 1.387 . S
C212 N215 1.341 . S
C213 C211 1.400 . S
C213 C212 1.387 . S
N214 Co205 2.022 . S
N214 C211 1.351 . S
N214 N215 1.365 . S
N215 C212 1.341 . S
N215 N214 1.365 . S
N215 H235 0.862 . S
C216 C211 1.501 . S
C216 H217 0.961 . S
C216 H218 0.961 . S
C216 H219 0.960 . S
H217 C216 0.961 . S
H218 C216 0.961 . S
H219 C216 0.960 . S
C220 N221 1.342 . S
C220 C224 1.401 . S
C220 C225 1.499 . S
N221 Co204 1.989 . S
N221 C220 1.342 . S
N221 N222 1.388 . S
N222 Co205 1.993 . S
N222 N221 1.388 . S
N222 C223 1.346 . S
C223 N222 1.346 . S
C223 C224 1.396 . S
C223 C233 1.510 . S
C224 C220 1.401 . S
C224 C223 1.396 . S
C225 C220 1.499 . S
C225 H226 0.959 . S
C225 H227 0.960 . S
C225 H228 0.961 . S
H226 C225 0.959 . S
H227 C225 0.960 . S
H228 C225 0.961 . S
O229 Co204 1.967 . S
O229 C237 1.258 . S
O230 Co205 1.941 . S
O230 C237 1.266 . S
H231 C233 0.959 . S
H232 C233 0.961 . S
C233 C223 1.510 . S
C233 H231 0.959 . S
C233 H232 0.961 . S
C233 H234 0.960 . S
H234 C233 0.960 . S
H235 N215 0.862 . S
O236 Co204 1.920 . S
O236 C209 1.289 . S
C237 O229 1.258 . S
C237 O230 1.266 . S
Co238 O241 1.970 . S
Co238 N255 1.989 . S
Co238 O263 1.967 . S
Co238 O270 1.920 . S
Co239 O242 1.966 . S
Co239 N248 2.022 . S
Co239 N256 1.993 . S
Co239 O264 1.941 . S
C240 O241 1.258 . S
C240 O242 1.263 . S
O241 Co238 1.970 . S
O241 C240 1.258 . S
O242 Co239 1.966 . S
O242 C240 1.263 . S
C243 O244 1.235 . S
C243 O270 1.289 . S
O244 C243 1.235 . S
C245 C247 1.400 . S
C245 N248 1.351 1_554 S
C245 C250 1.501 . S
C246 C247 1.387 . S
C246 N249 1.341 . S
C247 C245 1.400 . S
C247 C246 1.387 . S
N248 Co239 2.022 . S
N248 C245 1.351 1_556 S
N248 N249 1.365 1_556 S
N249 C246 1.341 . S
N249 N248 1.365 1_554 S
N249 H269 0.862 . S
C250 C245 1.501 . S
C250 H251 0.961 1_554 S
C250 H252 0.961 . S
C250 H253 0.960 . S
H251 C250 0.961 1_556 S
H252 C250 0.961 . S
H253 C250 0.960 . S
C254 N255 1.342 . S
C254 C258 1.401 . S
C254 C259 1.499 . S
N255 Co238 1.989 . S
N255 C254 1.342 . S
N255 N256 1.388 . S
N256 Co239 1.993 . S
N256 N255 1.388 . S
N256 C257 1.346 . S
C257 N256 1.346 . S
C257 C258 1.396 . S
C257 C267 1.510 . S
C258 C254 1.401 . S
C258 C257 1.396 . S
C259 C254 1.499 . S
C259 H260 0.959 . S
C259 H261 0.960 . S
C259 H262 0.961 . S
H260 C259 0.959 . S
H261 C259 0.960 . S
H262 C259 0.961 . S
O263 Co238 1.967 . S
O263 C271 1.258 . S
O264 Co239 1.941 . S
O264 C271 1.266 . S
H265 C267 0.959 . S
H266 C267 0.961 . S
C267 C257 1.510 . S
C267 H265 0.959 . S
C267 H266 0.961 . S
C267 H268 0.960 . S
H268 C267 0.960 . S
H269 N249 0.862 . S
O270 Co238 1.920 . S
O270 C243 1.289 . S
C271 O263 1.258 . S
C271 O264 1.266 . S
Co272 O275 1.970 . S
Co272 N289 1.989 . S
Co272 O297 1.967 . S
Co272 O304 1.920 . S
Co273 O276 1.966 . S
Co273 N282 2.022 . S
Co273 N290 1.993 . S
Co273 O298 1.941 . S
C274 O275 1.258 . S
C274 O276 1.263 . S
O275 Co272 1.970 . S
O275 C274 1.258 . S
O276 Co273 1.966 . S
O276 C274 1.263 . S
C277 O278 1.235 . S
C277 O304 1.289 . S
O278 C277 1.235 . S
C279 C281 1.400 . S
C279 N282 1.351 1_554 S
C279 C284 1.501 . S
C280 C281 1.387 . S
C280 N283 1.341 . S
C281 C279 1.400 . S
C281 C280 1.387 . S
N282 Co273 2.022 . S
N282 C279 1.351 1_556 S
N282 N283 1.365 1_556 S
N283 C280 1.341 . S
N283 N282 1.365 1_554 S
N283 H303 0.862 . S
C284 C279 1.501 . S
C284 H285 0.961 1_554 S
C284 H286 0.961 . S
C284 H287 0.960 . S
H285 C284 0.961 1_556 S
H286 C284 0.961 . S
H287 C284 0.960 . S
C288 N289 1.342 . S
C288 C292 1.401 . S
C288 C293 1.499 . S
N289 Co272 1.989 . S
N289 C288 1.342 . S
N289 N290 1.388 . S
N290 Co273 1.993 . S
N290 N289 1.388 . S
N290 C291 1.346 . S
C291 N290 1.346 . S
C291 C292 1.396 . S
C291 C301 1.510 . S
C292 C288 1.401 . S
C292 C291 1.396 . S
C293 C288 1.499 . S
C293 H294 0.959 . S
C293 H295 0.960 . S
C293 H296 0.961 . S
H294 C293 0.959 . S
H295 C293 0.960 . S
H296 C293 0.961 . S
O297 Co272 1.967 . S
O297 C305 1.258 . S
O298 Co273 1.941 . S
O298 C305 1.266 . S
H299 C301 0.959 . S
H300 C301 0.961 . S
C301 C291 1.510 . S
C301 H299 0.959 . S
C301 H300 0.961 . S
C301 H302 0.960 . S
H302 C301 0.960 . S
H303 N283 0.862 . S
O304 Co272 1.920 . S
O304 C277 1.289 . S
C305 O297 1.258 . S
C305 O298 1.266 . S
Co306 O309 1.970 . S
Co306 N323 1.989 . S
Co306 O331 1.967 . S
Co306 O338 1.920 1_554 S
Co307 O310 1.966 . S
Co307 N316 2.022 . S
Co307 N324 1.993 . S
Co307 O332 1.941 . S
C308 O309 1.258 . S
C308 O310 1.263 . S
O309 Co306 1.970 . S
O309 C308 1.258 . S
O310 Co307 1.966 . S
O310 C308 1.263 . S
C311 O312 1.235 . S
C311 O338 1.289 . S
O312 C311 1.235 . S
C313 C315 1.400 . S
C313 N316 1.351 . S
C313 C318 1.501 . S
C314 C315 1.387 . S
C314 N317 1.341 . S
C315 C313 1.400 . S
C315 C314 1.387 . S
N316 Co307 2.022 . S
N316 C313 1.351 . S
N316 N317 1.365 . S
N317 C314 1.341 . S
N317 N316 1.365 . S
N317 H337 0.862 . S
C318 C313 1.501 . S
C318 H319 0.961 . S
C318 H320 0.961 . S
C318 H321 0.960 . S
H319 C318 0.961 . S
H320 C318 0.961 . S
H321 C318 0.960 . S
C322 N323 1.342 . S
C322 C326 1.401 . S
C322 C327 1.499 1_554 S
N323 Co306 1.989 . S
N323 C322 1.342 . S
N323 N324 1.388 . S
N324 Co307 1.993 . S
N324 N323 1.388 . S
N324 C325 1.346 . S
C325 N324 1.346 . S
C325 C326 1.396 . S
C325 C335 1.510 . S
C326 C322 1.401 . S
C326 C325 1.396 . S
C327 C322 1.499 1_556 S
C327 H328 0.959 . S
C327 H329 0.960 . S
C327 H330 0.961 . S
H328 C327 0.959 . S
H329 C327 0.960 . S
H330 C327 0.961 . S
O331 Co306 1.967 . S
O331 C339 1.258 . S
O332 Co307 1.941 . S
O332 C339 1.266 . S
H333 C335 0.959 . S
H334 C335 0.961 . S
C335 C325 1.510 . S
C335 H333 0.959 . S
C335 H334 0.961 . S
C335 H336 0.960 . S
H336 C335 0.960 . S
H337 N317 0.862 . S
O338 Co306 1.920 1_556 S
O338 C311 1.289 . S
C339 O331 1.258 . S
C339 O332 1.266 . S
Co340 O343 1.970 . S
Co340 N357 1.989 . S
Co340 O365 1.967 . S
Co340 O372 1.920 1_556 S
Co341 O344 1.966 . S
Co341 N350 2.022 . S
Co341 N358 1.993 . S
Co341 O366 1.941 . S
C342 O343 1.258 . S
C342 O344 1.263 . S
O343 Co340 1.970 . S
O343 C342 1.258 . S
O344 Co341 1.966 . S
O344 C342 1.263 . S
C345 O346 1.235 . S
C345 O372 1.289 . S
O346 C345 1.235 . S
C347 C349 1.400 . S
C347 N350 1.351 . S
C347 C352 1.501 . S
C348 C349 1.387 . S
C348 N351 1.341 . S
C349 C347 1.400 . S
C349 C348 1.387 . S
N350 Co341 2.022 . S
N350 C347 1.351 . S
N350 N351 1.365 . S
N351 C348 1.341 . S
N351 N350 1.365 . S
N351 H371 0.862 . S
C352 C347 1.501 . S
C352 H353 0.961 . S
C352 H354 0.961 . S
C352 H355 0.960 . S
H353 C352 0.961 . S
H354 C352 0.961 . S
H355 C352 0.960 . S
C356 N357 1.342 . S
C356 C360 1.401 . S
C356 C361 1.499 1_556 S
N357 Co340 1.989 . S
N357 C356 1.342 . S
N357 N358 1.388 . S
N358 Co341 1.993 . S
N358 N357 1.388 . S
N358 C359 1.346 . S
C359 N358 1.346 . S
C359 C360 1.396 . S
C359 C369 1.510 . S
C360 C356 1.401 . S
C360 C359 1.396 . S
C361 C356 1.499 1_554 S
C361 H362 0.959 . S
C361 H363 0.960 . S
C361 H364 0.961 . S
H362 C361 0.959 . S
H363 C361 0.960 . S
H364 C361 0.961 . S
O365 Co340 1.967 . S
O365 C373 1.258 . S
O366 Co341 1.941 . S
O366 C373 1.266 . S
H367 C369 0.959 . S
H368 C369 0.961 . S
C369 C359 1.510 . S
C369 H367 0.959 . S
C369 H368 0.961 . S
C369 H370 0.960 . S
H370 C369 0.960 . S
H371 N351 0.862 . S
O372 Co340 1.920 1_554 S
O372 C345 1.289 . S
C373 O365 1.258 . S
C373 O366 1.266 . S
Co374 O377 1.970 . S
Co374 N391 1.989 . S
Co374 O399 1.967 . S
Co374 O406 1.920 . S
Co375 O378 1.966 . S
Co375 N384 2.022 . S
Co375 N392 1.993 . S
Co375 O400 1.941 . S
C376 O377 1.258 . S
C376 O378 1.263 . S
O377 Co374 1.970 . S
O377 C376 1.258 . S
O378 Co375 1.966 . S
O378 C376 1.263 . S
C379 O380 1.235 . S
C379 O406 1.289 . S
O380 C379 1.235 . S
C381 C383 1.400 . S
C381 N384 1.351 1_556 S
C381 C386 1.501 . S
C382 C383 1.387 . S
C382 N385 1.341 . S
C383 C381 1.400 . S
C383 C382 1.387 . S
N384 Co375 2.022 . S
N384 C381 1.351 1_554 S
N384 N385 1.365 1_554 S
N385 C382 1.341 . S
N385 N384 1.365 1_556 S
N385 H405 0.862 . S
C386 C381 1.501 . S
C386 H387 0.961 1_556 S
C386 H388 0.961 . S
C386 H389 0.960 . S
H387 C386 0.961 1_554 S
H388 C386 0.961 . S
H389 C386 0.960 . S
C390 N391 1.342 . S
C390 C394 1.401 . S
C390 C395 1.499 . S
N391 Co374 1.989 . S
N391 C390 1.342 . S
N391 N392 1.388 . S
N392 Co375 1.993 . S
N392 N391 1.388 . S
N392 C393 1.346 . S
C393 N392 1.346 . S
C393 C394 1.396 . S
C393 C403 1.510 . S
C394 C390 1.401 . S
C394 C393 1.396 . S
C395 C390 1.499 . S
C395 H396 0.959 . S
C395 H397 0.960 . S
C395 H398 0.961 . S
H396 C395 0.959 . S
H397 C395 0.960 . S
H398 C395 0.961 . S
O399 Co374 1.967 . S
O399 C407 1.258 . S
O400 Co375 1.941 . S
O400 C407 1.266 . S
H401 C403 0.959 . S
H402 C403 0.961 . S
C403 C393 1.510 . S
C403 H401 0.959 . S
C403 H402 0.961 . S
C403 H404 0.960 . S
H404 C403 0.960 . S
H405 N385 0.862 . S
O406 Co374 1.920 . S
O406 C379 1.289 . S
C407 O399 1.258 . S
C407 O400 1.266 . S
Co408 O411 1.970 . S
Co408 N425 1.989 . S
Co408 O433 1.967 . S
Co408 O440 1.920 . S
Co409 O412 1.966 . S
Co409 N418 2.022 . S
Co409 N426 1.993 . S
Co409 O434 1.941 . S
C410 O411 1.258 . S
C410 O412 1.263 . S
O411 Co408 1.970 . S
O411 C410 1.258 . S
O412 Co409 1.966 . S
O412 C410 1.263 . S
C413 O414 1.235 . S
C413 O440 1.289 . S
O414 C413 1.235 . S
C415 C417 1.400 . S
C415 N418 1.351 . S
C415 C420 1.501 . S
C416 C417 1.387 . S
C416 N419 1.341 . S
C417 C415 1.400 . S
C417 C416 1.387 . S
N418 Co409 2.022 . S
N418 C415 1.351 . S
N418 N419 1.365 . S
N419 C416 1.341 . S
N419 N418 1.365 . S
N419 H439 0.862 . S
C420 C415 1.501 . S
C420 H421 0.961 . S
C420 H422 0.961 . S
C420 H423 0.960 . S
H421 C420 0.961 . S
H422 C420 0.961 . S
H423 C420 0.960 . S
C424 N425 1.342 . S
C424 C428 1.401 . S
C424 C429 1.499 . S
N425 Co408 1.989 . S
N425 C424 1.342 . S
N425 N426 1.388 . S
N426 Co409 1.993 . S
N426 N425 1.388 . S
N426 C427 1.346 . S
C427 N426 1.346 . S
C427 C428 1.396 . S
C427 C437 1.510 . S
C428 C424 1.401 . S
C428 C427 1.396 . S
C429 C424 1.499 . S
C429 H430 0.959 . S
C429 H431 0.960 . S
C429 H432 0.961 . S
H430 C429 0.959 . S
H431 C429 0.960 . S
H432 C429 0.961 . S
O433 Co408 1.967 . S
O433 C441 1.258 . S
O434 Co409 1.941 . S
O434 C441 1.266 . S
H435 C437 0.959 . S
H436 C437 0.961 . S
C437 C427 1.510 . S
C437 H435 0.959 . S
C437 H436 0.961 . S
C437 H438 0.960 . S
H438 C437 0.960 . S
H439 N419 0.862 . S
O440 Co408 1.920 . S
O440 C413 1.289 . S
C441 O433 1.258 . S
C441 O434 1.266 . S
Co442 O445 1.970 . S
Co442 N459 1.989 1_455 S
Co442 O467 1.967 1_455 S
Co442 O474 1.920 1_455 S
Co443 O446 1.966 1_655 S
Co443 N452 2.022 . S
Co443 N460 1.993 1_656 S
Co443 O468 1.941 . S
C444 O445 1.258 . S
C444 O446 1.263 1_554 S
O445 Co442 1.970 . S
O445 C444 1.258 . S
O446 Co443 1.966 1_455 S
O446 C444 1.263 1_556 S
C447 O448 1.235 . S
C447 O474 1.289 1_455 S
O448 C447 1.235 . S
C449 C451 1.400 . S
C449 N452 1.351 1_455 S
C449 C454 1.501 . S
C450 C451 1.387 1_655 S
C450 N453 1.341 . S
C451 C449 1.400 . S
C451 C450 1.387 1_455 S
N452 Co443 2.022 . S
N452 C449 1.351 1_655 S
N452 N453 1.365 . S
N453 C450 1.341 . S
N453 N452 1.365 . S
N453 H473 0.862 . S
C454 C449 1.501 . S
C454 H455 0.961 . S
C454 H456 0.961 . S
C454 H457 0.960 . S
H455 C454 0.961 . S
H456 C454 0.961 . S
H457 C454 0.960 . S
C458 N459 1.342 . S
C458 C462 1.401 . S
C458 C463 1.499 . S
N459 Co442 1.989 1_655 S
N459 C458 1.342 . S
N459 N460 1.388 1_655 S
N460 Co443 1.993 1_454 S
N460 N459 1.388 1_455 S
N460 C461 1.346 1_454 S
C461 N460 1.346 1_656 S
C461 C462 1.396 1_556 S
C461 C471 1.510 . S
C462 C458 1.401 . S
C462 C461 1.396 1_554 S
C463 C458 1.499 . S
C463 H464 0.959 . S
C463 H465 0.960 1_655 S
C463 H466 0.961 . S
H464 C463 0.959 . S
H465 C463 0.960 1_455 S
H466 C463 0.961 . S
O467 Co442 1.967 1_655 S
O467 C475 1.258 . S
O468 Co443 1.941 . S
O468 C475 1.266 1_556 S
H469 C471 0.959 . S
H470 C471 0.961 1_455 S
C471 C461 1.510 . S
C471 H469 0.959 . S
C471 H470 0.961 1_655 S
C471 H472 0.960 1_655 S
H472 C471 0.960 1_455 S
H473 N453 0.862 . S
O474 Co442 1.920 1_655 S
O474 C447 1.289 1_655 S
C475 O467 1.258 . S
C475 O468 1.266 1_554 S
Co476 O479 1.970 . S
Co476 N493 1.989 . S
Co476 O501 1.967 . S
Co476 O508 1.920 . S
Co477 O480 1.966 . S
Co477 N486 2.022 . S
Co477 N494 1.993 . S
Co477 O502 1.941 . S
C478 O479 1.258 . S
C478 O480 1.263 . S
O479 Co476 1.970 . S
O479 C478 1.258 . S
O480 Co477 1.966 . S
O480 C478 1.263 . S
C481 O482 1.235 . S
C481 O508 1.289 . S
O482 C481 1.235 . S
C483 C485 1.400 . S
C483 N486 1.351 . S
C483 C488 1.501 . S
C484 C485 1.387 . S
C484 N487 1.341 . S
C485 C483 1.400 . S
C485 C484 1.387 . S
N486 Co477 2.022 . S
N486 C483 1.351 . S
N486 N487 1.365 . S
N487 C484 1.341 . S
N487 N486 1.365 . S
N487 H507 0.862 . S
C488 C483 1.501 . S
C488 H489 0.961 . S
C488 H490 0.961 . S
C488 H491 0.960 . S
H489 C488 0.961 . S
H490 C488 0.961 . S
H491 C488 0.960 . S
C492 N493 1.342 . S
C492 C496 1.401 . S
C492 C497 1.499 . S
N493 Co476 1.989 . S
N493 C492 1.342 . S
N493 N494 1.388 . S
N494 Co477 1.993 . S
N494 N493 1.388 . S
N494 C495 1.346 . S
C495 N494 1.346 . S
C495 C496 1.396 . S
C495 C505 1.510 . S
C496 C492 1.401 . S
C496 C495 1.396 . S
C497 C492 1.499 . S
C497 H498 0.959 . S
C497 H499 0.960 . S
C497 H500 0.961 . S
H498 C497 0.959 . S
H499 C497 0.960 . S
H500 C497 0.961 . S
O501 Co476 1.967 . S
O501 C509 1.258 . S
O502 Co477 1.941 . S
O502 C509 1.266 . S
H503 C505 0.959 . S
H504 C505 0.961 . S
C505 C495 1.510 . S
C505 H503 0.959 . S
C505 H504 0.961 . S
C505 H506 0.960 . S
H506 C505 0.960 . S
H507 N487 0.862 . S
O508 Co476 1.920 . S
O508 C481 1.289 . S
C509 O501 1.258 . S
C509 O502 1.266 . S
Co510 O513 1.970 . S
Co510 N527 1.989 1_455 S
Co510 O535 1.967 1_455 S
Co510 O542 1.920 1_455 S
Co511 O514 1.966 1_655 S
Co511 N520 2.022 . S
Co511 N528 1.993 1_654 S
Co511 O536 1.941 . S
C512 O513 1.258 . S
C512 O514 1.263 1_556 S
O513 Co510 1.970 . S
O513 C512 1.258 . S
O514 Co511 1.966 1_455 S
O514 C512 1.263 1_554 S
C515 O516 1.235 . S
C515 O542 1.289 1_455 S
O516 C515 1.235 . S
C517 C519 1.400 . S
C517 N520 1.351 1_455 S
C517 C522 1.501 . S
C518 C519 1.387 1_655 S
C518 N521 1.341 . S
C519 C517 1.400 . S
C519 C518 1.387 1_455 S
N520 Co511 2.022 . S
N520 C517 1.351 1_655 S
N520 N521 1.365 . S
N521 C518 1.341 . S
N521 N520 1.365 . S
N521 H541 0.862 . S
C522 C517 1.501 . S
C522 H523 0.961 . S
C522 H524 0.961 . S
C522 H525 0.960 . S
H523 C522 0.961 . S
H524 C522 0.961 . S
H525 C522 0.960 . S
C526 N527 1.342 . S
C526 C530 1.401 . S
C526 C531 1.499 . S
N527 Co510 1.989 1_655 S
N527 C526 1.342 . S
N527 N528 1.388 1_655 S
N528 Co511 1.993 1_456 S
N528 N527 1.388 1_455 S
N528 C529 1.346 1_456 S
C529 N528 1.346 1_654 S
C529 C530 1.396 1_554 S
C529 C539 1.510 . S
C530 C526 1.401 . S
C530 C529 1.396 1_556 S
C531 C526 1.499 . S
C531 H532 0.959 . S
C531 H533 0.960 1_655 S
C531 H534 0.961 . S
H532 C531 0.959 . S
H533 C531 0.960 1_455 S
H534 C531 0.961 . S
O535 Co510 1.967 1_655 S
O535 C543 1.258 . S
O536 Co511 1.941 . S
O536 C543 1.266 1_554 S
H537 C539 0.959 . S
H538 C539 0.961 1_455 S
C539 C529 1.510 . S
C539 H537 0.959 . S
C539 H538 0.961 1_655 S
C539 H540 0.960 1_655 S
H540 C539 0.960 1_455 S
H541 N521 0.862 . S
O542 Co510 1.920 1_655 S
O542 C515 1.289 1_655 S
C543 O535 1.258 . S
C543 O536 1.266 1_556 S
C9 C5 1.511 . S
C43 C39 1.511 . S
C77 C73 1.511 1_554 S
C111 C107 1.511 . S
C145 C141 1.511 . S
C179 C175 1.511 . S
C213 C209 1.511 1_556 S
C243 C247 1.511 . S
C277 C281 1.511 . S
C315 C311 1.511 . S
C349 C345 1.511 . S
C379 C383 1.511 . S
C413 C417 1.511 1_556 S
C451 C447 1.511 . S
C481 C485 1.511 1_554 S
C519 C515 1.511 . S
C20 C156 1.703 1_554 S
C190 C54 1.703 . S
C224 C88 1.704 . S
C122 C258 1.703 . S
C360 C292 1.703 . S
C326 C394 1.703 . S
C428 C496 1.704 1_545 S
C462 C530 1.703 1_564 S
C339 C33 1.196 . S
C509 C67 1.196 . S
C101 C305 1.196 . S
C543 C135 1.196 . S
C373 C169 1.196 . S
C475 C203 1.196 . S
C237 C407 1.196 . S
C271 C441 1.196 . S
C138 C104 1.721 . S
C410 C274 1.721 . S
C36 C206 1.721 . S
C444 C308 1.721 . S
C172 C2 1.721 . S
C342 C512 1.721 . S
C240 C70 1.721 . S
C478 C376 1.721 . S
