# Generated by pormake.
# Topology zfe, (5)-cn, num edge types: 1
# Building blocks:
#     Node 0, Type 0, BuildingBlock: XOMCOT_clean_sbu_0, # of connection points: 5
#     Node 1, Type 0, BuildingBlock: XOMCOT_clean_sbu_0, # of connection points: 5
#     Node 2, Type 0, BuildingBlock: XOMCOT_clean_sbu_0, # of connection points: 5
#     Node 3, Type 0, BuildingBlock: XOMCOT_clean_sbu_0, # of connection points: 5
#     Node 4, Type 0, BuildingBlock: XOMCOT_clean_sbu_0, # of connection points: 5
#     Node 5, Type 0, BuildingBlock: XOMCOT_clean_sbu_0, # of connection points: 5
#     Node 6, Type 0, BuildingBlock: XOMCOT_clean_sbu_0, # of connection points: 5
#     Node 7, Type 0, BuildingBlock: XOMCOT_clean_sbu_0, # of connection points: 5
#     Node 8, Type 0, BuildingBlock: XOMCOT_clean_sbu_0, # of connection points: 5
#     Node 9, Type 0, BuildingBlock: XOMCOT_clean_sbu_0, # of connection points: 5
#     Node 10, Type 0, BuildingBlock: XOMCOT_clean_sbu_0, # of connection points: 5
#     Node 11, Type 0, BuildingBlock: XOMCOT_clean_sbu_0, # of connection points: 5
#     Node 12, Type 0, BuildingBlock: XOMCOT_clean_sbu_0, # of connection points: 5
#     Node 13, Type 0, BuildingBlock: XOMCOT_clean_sbu_0, # of connection points: 5
#     Node 14, Type 0, BuildingBlock: XOMCOT_clean_sbu_0, # of connection points: 5
#     Node 15, Type 0, BuildingBlock: XOMCOT_clean_sbu_0, # of connection points: 5
#     Edge 16, Type (0, 0), BuildingBlock: KIFKEQ_clean_linker_1, # of connection points: 2
#     Edge 17, Type (0, 0), BuildingBlock: KIFKEQ_clean_linker_1, # of connection points: 2
#     Edge 18, Type (0, 0), BuildingBlock: KIFKEQ_clean_linker_1, # of connection points: 2
#     Edge 19, Type (0, 0), BuildingBlock: KIFKEQ_clean_linker_1, # of connection points: 2
#     Edge 20, Type (0, 0), BuildingBlock: KIFKEQ_clean_linker_1, # of connection points: 2
#     Edge 21, Type (0, 0), BuildingBlock: KIFKEQ_clean_linker_1, # of connection points: 2
#     Edge 22, Type (0, 0), BuildingBlock: KIFKEQ_clean_linker_1, # of connection points: 2
#     Edge 23, Type (0, 0), BuildingBlock: KIFKEQ_clean_linker_1, # of connection points: 2
#     Edge 24, Type (0, 0), BuildingBlock: KIFKEQ_clean_linker_1, # of connection points: 2
#     Edge 25, Type (0, 0), BuildingBlock: KIFKEQ_clean_linker_1, # of connection points: 2
#     Edge 26, Type (0, 0), BuildingBlock: KIFKEQ_clean_linker_1, # of connection points: 2
#     Edge 27, Type (0, 0), BuildingBlock: KIFKEQ_clean_linker_1, # of connection points: 2
#     Edge 28, Type (0, 0), BuildingBlock: KIFKEQ_clean_linker_1, # of connection points: 2
#     Edge 29, Type (0, 0), BuildingBlock: KIFKEQ_clean_linker_1, # of connection points: 2
#     Edge 30, Type (0, 0), BuildingBlock: KIFKEQ_clean_linker_1, # of connection points: 2
#     Edge 31, Type (0, 0), BuildingBlock: KIFKEQ_clean_linker_1, # of connection points: 2
#     Edge 32, Type (0, 0), BuildingBlock: KIFKEQ_clean_linker_1, # of connection points: 2
#     Edge 33, Type (0, 0), BuildingBlock: KIFKEQ_clean_linker_1, # of connection points: 2
#     Edge 34, Type (0, 0), BuildingBlock: KIFKEQ_clean_linker_1, # of connection points: 2
#     Edge 35, Type (0, 0), BuildingBlock: KIFKEQ_clean_linker_1, # of connection points: 2
#     Edge 36, Type (0, 0), BuildingBlock: KIFKEQ_clean_linker_1, # of connection points: 2
#     Edge 37, Type (0, 0), BuildingBlock: KIFKEQ_clean_linker_1, # of connection points: 2
#     Edge 38, Type (0, 0), BuildingBlock: KIFKEQ_clean_linker_1, # of connection points: 2
#     Edge 39, Type (0, 0), BuildingBlock: KIFKEQ_clean_linker_1, # of connection points: 2
#     Edge 40, Type (0, 0), BuildingBlock: KIFKEQ_clean_linker_1, # of connection points: 2
#     Edge 41, Type (0, 0), BuildingBlock: KIFKEQ_clean_linker_1, # of connection points: 2
#     Edge 42, Type (0, 0), BuildingBlock: KIFKEQ_clean_linker_1, # of connection points: 2
#     Edge 43, Type (0, 0), BuildingBlock: KIFKEQ_clean_linker_1, # of connection points: 2
#     Edge 44, Type (0, 0), BuildingBlock: KIFKEQ_clean_linker_1, # of connection points: 2
#     Edge 45, Type (0, 0), BuildingBlock: KIFKEQ_clean_linker_1, # of connection points: 2
#     Edge 46, Type (0, 0), BuildingBlock: KIFKEQ_clean_linker_1, # of connection points: 2
#     Edge 47, Type (0, 0), BuildingBlock: KIFKEQ_clean_linker_1, # of connection points: 2
#     Edge 48, Type (0, 0), BuildingBlock: KIFKEQ_clean_linker_1, # of connection points: 2
#     Edge 49, Type (0, 0), BuildingBlock: KIFKEQ_clean_linker_1, # of connection points: 2
#     Edge 50, Type (0, 0), BuildingBlock: KIFKEQ_clean_linker_1, # of connection points: 2
#     Edge 51, Type (0, 0), BuildingBlock: KIFKEQ_clean_linker_1, # of connection points: 2
#     Edge 52, Type (0, 0), BuildingBlock: KIFKEQ_clean_linker_1, # of connection points: 2
#     Edge 53, Type (0, 0), BuildingBlock: KIFKEQ_clean_linker_1, # of connection points: 2
#     Edge 54, Type (0, 0), BuildingBlock: KIFKEQ_clean_linker_1, # of connection points: 2
#     Edge 55, Type (0, 0), BuildingBlock: KIFKEQ_clean_linker_1, # of connection points: 2
# Relax obj value: 0.211
# Max RMSD: 0.180
# Mean RMSD: 0.180
data_MOF--net-zfe--node1-XOMCOT_clean_sbu_0--edge1-KIFKEQ_clean_linker_1
_symmetry_space_group_name_H-M    P1
_symmetry_Int_Tables_number       1
_symmetry_cell_setting            triclinic
loop_
_symmetry_equiv_pos_as_xyz
'x, y, z'
_cell_length_a     55.837288
_cell_length_b     55.855903
_cell_length_c     28.128545
_cell_angle_alpha  90.069203
_cell_angle_beta   89.928214
_cell_angle_gamma 89.957747
loop_
_atom_site_label
_atom_site_type_symbol
_atom_site_fract_x
_atom_site_fract_y
_atom_site_fract_z
_atom_type_partial_charge
Co0 Co 0.04528 0.23192 0.03278 0.0
C1 C 0.08637 0.26711 0.02036 0.0
C2 C 0.05144 0.28139 1.00571 0.0
C3 C 0.06801 0.29891 0.997 0.0
N4 N 0.06278 0.2613 0.01981 0.0
N5 N 0.08993 0.28996 1.00603 0.0
H6 H 0.10072 0.25505 0.02948 0.0
H7 H 0.03229 0.283 1.00099 0.0
C8 C 0.04187 0.23931 0.9278 0.0
O9 O 0.06429 0.24634 0.92852 0.0
N10 N 0.02675 0.20354 0.04551 0.0
C11 C 0.03298 0.18458 0.07224 0.0
C12 C 0.01431 0.16844 0.07191 0.0
C13 C 0.00447 0.1989 0.02964 0.0
N14 N 0.99639 0.17748 0.04508 0.0
C15 C 0.09063 0.20893 0.04334 0.0
C16 C 0.08325 0.17458 0.97423 0.0
C17 C 0.10167 0.17103 1.00737 0.0
C18 C 0.10585 0.1891 0.04102 0.0
C19 C 0.06828 0.19454 0.97809 0.0
N20 N 0.0717 0.21128 0.01297 0.0
H21 H 0.09291 0.2213 0.07249 0.0
H22 H 0.05259 0.19499 0.95587 0.0
H23 H 0.04981 0.18268 0.09083 0.0
H24 H 0.99447 0.21096 1.00706 0.0
O25 O 0.05321 0.23437 0.09932 0.0
O26 O 0.02122 0.25078 0.06655 0.0
O27 O 0.03142 0.23274 0.96615 0.0
C28 C 0.0338 0.24684 0.1048 0.0
H29 H 0.06424 0.31695 0.98509 0.0
H30 H 0.01384 0.1516 0.09085 0.0
H31 H 0.0794 0.16127 0.94729 0.0
H32 H 0.11951 0.18709 0.06801 0.0
Co33 Co 0.77398 0.04446 0.05358 0.0
C34 C 0.73805 0.08377 0.04633 0.0
C35 C 0.72902 0.05282 1.00453 0.0
C36 C 0.71062 0.06905 1.00116 0.0
N37 N 0.74614 0.06197 0.03284 0.0
N38 N 0.71629 0.08845 0.02738 0.0
H39 H 0.74726 0.09537 0.07116 0.0
H40 H 0.7295 0.03514 0.98883 0.0
C41 C 0.79592 0.0242 0.96363 0.0
O42 O 0.81719 0.0271 0.98269 0.0
N43 N 0.80139 0.0258 0.07437 0.0
C44 C 0.82086 0.03232 0.09955 0.0
C45 C 0.83538 0.0126 0.10533 0.0
C46 C 0.80399 1.00206 0.06684 0.0
N47 N 0.82483 0.99358 0.0844 0.0
C48 C 0.80211 0.08552 0.07671 0.0
C49 C 0.82168 0.09325 0.98795 0.0
C50 C 0.83262 0.10363 0.02785 0.0
C51 C 0.82142 0.10104 0.07202 0.0
C52 C 0.80196 0.07797 0.99432 0.0
N53 N 0.79431 0.07216 0.03909 0.0
H54 H 0.79506 0.08273 0.11192 0.0
H55 H 0.79375 0.07019 0.96333 0.0
H56 H 0.82457 0.04993 0.11325 0.0
H57 H 0.79088 0.99137 0.04813 0.0
O58 O 0.76671 0.05217 0.11901 0.0
O59 O 0.75346 0.01993 0.08202 0.0
O60 O 0.77712 0.03071 0.98651 0.0
C61 C 0.7548 0.03234 0.12124 0.0
H62 H 0.69405 0.06658 0.98184 0.0
H63 H 0.85262 0.01251 0.12282 0.0
H64 H 0.82908 0.09571 0.9527 0.0
H65 H 0.8285 0.10974 0.10345 0.0
Co66 Co 0.96118 0.77185 0.06937 0.0
C67 C 0.92037 0.73692 0.05887 0.0
C68 C 0.95237 0.72645 0.02208 0.0
C69 C 0.93512 0.70946 0.01386 0.0
N70 N 0.94316 0.74383 0.04987 0.0
N71 N 0.91494 0.71604 0.0368 0.0
H72 H 0.90792 0.74676 0.08075 0.0
H73 H 0.97056 0.72609 0.00882 0.0
C74 C 0.9886 0.78668 0.97901 0.0
O75 O 0.99575 0.80696 0.99765 0.0
N76 N 0.98001 0.79935 0.08921 0.0
C77 C 0.97226 0.82105 0.10357 0.0
C78 C 0.99182 0.83554 0.11118 0.0
C79 C 0.00416 0.80061 0.09088 0.0
N80 N 0.01192 0.8228 0.10243 0.0
C81 C 0.91612 0.79461 0.0854 0.0
C82 C 0.91908 0.82799 0.01344 0.0
C83 C 0.90167 0.83107 0.04898 0.0
C84 C 0.89951 0.81321 0.08363 0.0
C85 C 0.93504 0.80867 0.01582 0.0
N86 N 0.93431 0.79291 0.053 0.0
H87 H 0.91507 0.7825 0.1151 0.0
H88 H 0.94878 0.80775 0.98931 0.0
H89 H 0.95375 0.82641 0.10695 0.0
H90 H 0.01574 0.78595 0.08058 0.0
O91 O 0.95313 0.76647 0.13508 0.0
O92 O 0.98483 0.75099 0.09944 0.0
O93 O 0.97465 0.7726 1.00192 0.0
C94 C 0.97242 0.75368 0.13841 0.0
H95 H 0.93747 0.69322 0.99334 0.0
H96 H 0.99115 0.85442 0.11981 0.0
H97 H 0.9215 0.84119 0.9857 0.0
H98 H 0.88587 0.81422 0.11096 0.0
Co99 Co 0.23127 0.96032 0.06164 0.0
C100 C 0.26627 0.91876 0.04851 0.0
C101 C 0.28 0.95348 0.03076 0.0
C102 C 0.29743 0.93689 0.02144 0.0
N103 N 0.2603 0.94232 0.0474 0.0
N104 N 0.28886 0.91506 0.03239 0.0
H105 H 0.25455 0.90447 0.05943 0.0
H106 H 0.2814 0.97257 0.02495 0.0
C107 C 0.23607 0.96193 0.95621 0.0
O108 O 0.24005 0.93876 0.95773 0.0
N109 N 0.20336 0.97957 0.07503 0.0
C110 C 0.18511 0.97478 0.10479 0.0
C111 C 0.16954 0.99397 0.10431 0.0
C112 C 0.19884 1.00148 0.0572 0.0
N113 N 0.1782 0.0108 0.07431 0.0
C114 C 0.20872 0.91491 0.07442 0.0
C115 C 0.17216 0.9226 0.01018 0.0
C116 C 0.17018 0.90352 0.04231 0.0
C117 C 0.18923 0.89925 0.0735 0.0
C118 C 0.19207 0.93774 0.012 0.0
N119 N 0.20999 0.93404 0.04431 0.0
H120 H 0.22179 0.91271 0.10232 0.0
H121 H 0.19179 0.9537 0.99043 0.0
H122 H 0.18336 0.95859 0.12557 0.0
H123 H 0.2105 0.01031 0.03205 0.0
O124 O 0.23434 0.95303 0.12827 0.0
O125 O 0.25071 0.98449 0.09335 0.0
O126 O 0.2318 0.97345 0.99463 0.0
C127 C 0.24684 0.97249 0.13236 0.0
H128 H 0.31521 0.94064 1.00798 0.0
H129 H 0.15333 0.99548 0.12521 0.0
H130 H 0.15777 0.92666 0.98567 0.0
H131 H 0.18823 0.88512 0.09976 0.0
Co132 Co 0.04608 0.77599 0.53693 0.0
C133 C 0.08611 0.73967 0.53772 0.0
C134 C 0.05736 0.73164 0.58586 0.0
C135 C 0.07345 0.71314 0.58719 0.0
N136 N 0.0652 0.74844 0.55516 0.0
N137 N 0.09149 0.71814 0.55704 0.0
H138 H 0.09646 0.74792 0.50975 0.0
H139 H 0.04045 0.73218 0.60457 0.0
C140 C 0.01837 0.78925 0.62839 0.0
O141 O 0.01024 0.80938 0.61074 0.0
N142 N 0.02612 0.80286 0.51817 0.0
C143 C 0.03299 0.82465 0.50287 0.0
C144 C 0.01286 0.83852 0.49622 0.0
C145 C 1.00193 0.80336 0.51781 0.0
N146 N 0.99331 0.82525 0.5065 0.0
C147 C 0.09083 0.79965 0.52252 0.0
C148 C 0.08568 0.8339 0.59258 0.0
C149 C 0.10351 0.83708 0.55799 0.0
C150 C 0.10673 0.81889 0.52422 0.0
C151 C 0.07034 0.81413 0.59007 0.0
N152 N 0.07216 0.79789 0.5538 0.0
H153 H 0.09264 0.78718 0.49354 0.0
H154 H 0.05614 0.81326 0.61555 0.0
H155 H 0.05129 0.83039 0.49786 0.0
H156 H 0.991 0.78858 0.52994 0.0
O157 O 0.05414 0.7714 0.47095 0.0
O158 O 0.0232 0.75445 0.50654 0.0
O159 O 0.0328 0.77596 0.60465 0.0
C160 C 0.03542 0.7578 0.46754 0.0
H161 H 0.07175 0.69686 0.60779 0.0
H162 H 0.01276 0.85716 0.4858 0.0
H163 H 0.0824 0.84738 0.61951 0.0
H164 H 0.12068 0.82007 0.49755 0.0
Co165 Co 0.23107 0.05012 0.5338 0.0
C166 C 0.26831 0.0899 0.53865 0.0
C167 C 0.28017 0.05552 0.56322 0.0
C168 C 0.29918 0.07095 0.5649 0.0
N169 N 0.26071 0.0672 0.54684 0.0
N170 N 0.29178 0.0925 0.54946 0.0
H171 H 0.2576 0.10401 0.52354 0.0
H172 H 0.28058 0.03672 0.57236 0.0
C173 C 0.23724 0.0474 0.63872 0.0
O174 O 0.24214 0.0704 0.63747 0.0
N175 N 0.20251 0.03182 0.52115 0.0
C176 C 0.18314 0.03839 0.49594 0.0
C177 C 0.1673 0.01948 0.49512 0.0
C178 C 0.19842 0.00909 0.53489 0.0
N179 N 0.17695 1.00101 0.51959 0.0
C180 C 0.20916 0.09612 0.52385 0.0
C181 C 0.17339 0.08831 0.58994 0.0
C182 C 0.17094 0.10734 0.55789 0.0
C183 C 0.18967 0.11179 0.52597 0.0
C184 C 0.19327 0.07318 0.58694 0.0
N185 N 0.2107 0.07679 0.55344 0.0
H186 H 0.2216 0.09821 0.49484 0.0
H187 H 0.1931 0.05712 0.60818 0.0
H188 H 0.18072 0.05567 0.47931 0.0
H189 H 0.21125 0.99858 0.55471 0.0
O190 O 0.23355 0.05785 0.46717 0.0
O191 O 0.24961 0.02579 0.5005 0.0
O192 O 0.23202 0.03631 0.60028 0.0
C193 C 0.24568 0.03818 0.46204 0.0
H194 H 0.31724 0.0666 0.57594 0.0
H195 H 0.14998 0.01948 0.47795 0.0
H196 H 0.15924 0.08413 0.61496 0.0
H197 H 0.18825 0.12589 0.49973 0.0
Co198 Co 0.9594 0.2342 0.50268 0.0
C199 C 0.91823 0.26838 0.51047 0.0
C200 C 0.94832 0.27776 0.55429 0.0
C201 C 0.9305 0.29423 0.56185 0.0
N202 N 0.94062 0.26144 0.52256 0.0
N203 N 0.91159 0.28837 0.53447 0.0
H204 H 0.90701 0.25893 0.48532 0.0
H205 H 0.9658 0.27774 0.57078 0.0
C206 C 0.97734 0.21384 0.59571 0.0
O207 O 0.97285 0.19203 0.58059 0.0
N208 N 0.97953 0.20739 0.48385 0.0
C209 C 0.97494 0.18845 0.4556 0.0
C210 C 0.995 0.1741 0.45398 0.0
C211 C 1.00258 0.20471 0.49725 0.0
N212 N 0.01243 0.18421 0.48059 0.0
C213 C 0.92081 0.20341 0.47745 0.0
C214 C 0.9099 0.18642 0.56691 0.0
C215 C 0.90166 0.17388 0.52685 0.0
C216 C 0.90575 0.18378 0.48202 0.0
C217 C 0.92475 0.20653 0.56054 0.0
N218 N 0.93229 0.21287 0.51597 0.0
H219 H 0.92461 0.20955 0.442 0.0
H220 H 0.93103 0.21604 0.59149 0.0
H221 H 0.95846 0.18505 0.43693 0.0
H222 H 0.0117 0.21757 0.51948 0.0
O223 O 0.95211 0.2407 0.43717 0.0
O224 O 0.98339 0.25555 0.47488 0.0
O225 O 0.97264 0.23202 0.56971 0.0
C226 C 0.97146 0.25339 0.43526 0.0
H227 H 0.93154 0.30967 0.58507 0.0
H228 H 0.99627 0.15732 0.43498 0.0
H229 H 0.90614 0.18002 0.60247 0.0
H230 H 0.8986 0.17548 0.45022 0.0
Co231 Co 0.77548 0.96042 0.52252 0.0
C232 C 0.73886 0.92144 0.52944 0.0
C233 C 0.72945 0.95354 0.56751 0.0
C234 C 0.71084 0.93766 0.57131 0.0
N235 N 0.74693 0.9435 0.54123 0.0
N236 N 0.71672 0.91755 0.54747 0.0
H237 H 0.74846 0.90899 0.50687 0.0
H238 H 0.72998 0.97151 0.58184 0.0
C239 C 0.79748 0.97665 0.61521 0.0
O240 O 0.81872 0.97253 0.59672 0.0
N241 N 0.80357 0.9788 0.50439 0.0
C242 C 0.82289 0.97269 0.47818 0.0
C243 C 0.83822 0.99199 0.47624 0.0
C244 C 0.80706 1.00199 0.51625 0.0
N245 N 0.8283 0.01034 0.50051 0.0
C246 C 0.80308 0.91952 0.49564 0.0
C247 C 0.81821 0.9059 0.58487 0.0
C248 C 0.82925 0.89564 0.54478 0.0
C249 C 0.82047 0.90182 0.49988 0.0
C250 C 0.8004 0.92342 0.57888 0.0
N251 N 0.79479 0.93168 0.5345 0.0
H252 H 0.79769 0.92452 0.46028 0.0
H253 H 0.79177 0.93065 0.61005 0.0
H254 H 0.82593 0.9557 0.4611 0.0
H255 H 0.79462 0.01221 0.53774 0.0
O256 O 0.76833 0.9544 0.45645 0.0
O257 O 0.75589 0.98626 0.49594 0.0
O258 O 0.77857 0.97235 0.59084 0.0
C259 C 0.75691 0.97455 0.45583 0.0
H260 H 0.69405 0.94073 0.58964 0.0
H261 H 0.8553 0.9925 0.45802 0.0
H262 H 0.82367 0.90085 0.6204 0.0
H263 H 0.82809 0.89426 0.46776 0.0
Co264 Co 0.54635 0.73277 0.56899 0.0
C265 C 0.58733 0.76893 0.5616 0.0
C266 C 0.55343 0.78062 0.53431 0.0
C267 C 0.56924 0.79923 0.53076 0.0
N268 N 0.56452 0.7615 0.5536 0.0
N269 N 0.5905 0.79192 0.54783 0.0
H270 H 0.60113 0.75855 0.57857 0.0
H271 H 0.53471 0.78113 0.52447 0.0
C272 C 0.54497 0.73564 0.46353 0.0
O273 O 0.56836 0.73812 0.46497 0.0
N274 N 0.52677 0.70523 0.58334 0.0
C275 C 0.53128 0.68725 0.61383 0.0
C276 C 0.51214 0.67162 0.61288 0.0
C277 C 0.50508 0.7005 0.56463 0.0
N278 N 0.49566 0.67998 0.58183 0.0
C279 C 0.59204 0.71029 0.58038 0.0
C280 C 0.5833 0.67259 0.51925 0.0
C281 C 0.60336 0.67137 0.54927 0.0
C282 C 0.60807 0.69111 0.57869 0.0
C283 C 0.56803 0.69242 0.5212 0.0
N284 N 0.57231 0.71097 0.55184 0.0
H285 H 0.59451 0.72348 0.60787 0.0
H286 H 0.55155 0.69167 0.50121 0.0
H287 H 0.5473 0.68564 0.63517 0.0
H288 H 0.49655 0.71184 0.53854 0.0
O289 O 0.55396 0.73624 0.6354 0.0
O290 O 0.52258 0.75283 0.60055 0.0
O291 O 0.5331 0.733 0.50209 0.0
C292 C 0.53471 0.7491 0.63946 0.0
H293 H 0.56537 0.81699 0.51738 0.0
H294 H 0.51049 0.65553 0.63397 0.0
H295 H 0.57831 0.65763 0.49689 0.0
H296 H 0.62332 0.69128 0.6024 0.0
Co297 Co 0.2752 0.5464 0.53505 0.0
C298 C 0.2395 0.58771 0.5341 0.0
C299 C 0.22607 0.55424 0.50774 0.0
C300 C 0.20763 0.57042 0.50803 0.0
N301 N 0.24615 0.56487 0.52398 0.0
N302 N 0.21605 0.59139 0.52446 0.0
H303 H 0.25086 0.60108 0.55 0.0
H304 H 0.22481 0.5356 0.49761 0.0
C305 C 0.26785 0.54457 0.43017 0.0
O306 O 0.26352 0.56768 0.43184 0.0
N307 N 0.30309 0.5267 0.54553 0.0
C308 C 0.32314 0.53205 0.56985 0.0
C309 C 0.33826 0.51251 0.56815 0.0
C310 C 0.30606 0.50407 0.52994 0.0
N311 N 0.32745 0.49492 0.54309 0.0
C312 C 0.29904 0.59122 0.54634 0.0
C313 C 0.33317 0.58364 0.47679 0.0
C314 C 0.33678 0.60216 0.50976 0.0
C315 C 0.31887 0.60636 0.54374 0.0
C316 C 0.3131 0.5688 0.48078 0.0
N317 N 0.2964 0.57242 0.51572 0.0
H318 H 0.28713 0.59332 0.57623 0.0
H319 H 0.31244 0.55307 0.45855 0.0
H320 H 0.32649 0.5489 0.58762 0.0
H321 H 0.29284 0.49458 0.50911 0.0
O322 O 0.27376 0.5536 0.60197 0.0
O323 O 0.25602 0.52255 0.56819 0.0
O324 O 0.27305 0.53323 0.46826 0.0
C325 C 0.26086 0.53446 0.6069 0.0
H326 H 0.18924 0.56694 0.49802 0.0
H327 H 0.35565 0.51121 0.5849 0.0
H328 H 0.34645 0.57968 0.44983 0.0
H329 H 0.32105 0.61996 0.57087 0.0
Co330 Co 0.46164 0.27635 0.55787 0.0
C331 C 0.42203 0.24053 0.55237 0.0
C332 C 0.45357 0.2304 0.51316 0.0
C333 C 0.43737 0.21201 0.51055 0.0
N334 N 0.44405 0.24821 0.53936 0.0
N335 N 0.41762 0.21834 0.53512 0.0
H336 H 0.41006 0.25037 0.57555 0.0
H337 H 0.47147 0.23045 0.49842 0.0
C338 C 0.4815 0.29604 0.46619 0.0
O339 O 0.47774 0.31762 0.4833 0.0
N340 N 0.48058 0.30401 0.57624 0.0
C341 C 0.4744 0.32415 0.59976 0.0
C342 C 0.4943 0.33856 0.60372 0.0
C343 C 0.50429 0.30618 0.56786 0.0
N344 N 0.5131 0.32731 0.58332 0.0
C345 C 0.42113 0.30627 0.57664 0.0
C346 C 0.41112 0.31926 0.48418 0.0
C347 C 0.39998 0.33172 0.5215 0.0
C348 C 0.40425 0.3241 0.56807 0.0
C349 C 0.42762 0.30102 0.49451 0.0
N350 N 0.43422 0.29648 0.54046 0.0
H351 H 0.42472 0.30165 0.61312 0.0
H352 H 0.43541 0.29116 0.46538 0.0
H353 H 0.45693 0.32843 0.61353 0.0
H354 H 0.51473 0.2925 0.55013 0.0
O355 O 0.4534 0.27105 0.62366 0.0
O356 O 0.48559 0.25612 0.58909 0.0
O357 O 0.47582 0.27764 0.49099 0.0
C358 C 0.47294 0.25874 0.62779 0.0
H359 H 0.44007 0.19499 0.49288 0.0
H360 H 0.49464 0.35619 0.61965 0.0
H361 H 0.40746 0.32385 0.44751 0.0
H362 H 0.39578 0.33286 0.59808 0.0
Co363 Co 0.73388 0.46213 0.55851 0.0
C364 C 0.76955 0.42268 0.54335 0.0
C365 C 0.77976 0.45593 0.51106 0.0
C366 C 0.79705 0.43914 0.50101 0.0
N367 N 0.76246 0.44564 0.53734 0.0
N368 N 0.79062 0.41817 0.52113 0.0
H369 H 0.75954 0.40948 0.56304 0.0
H370 H 0.77979 0.47446 0.49996 0.0
C371 C 0.71392 0.48667 0.46974 0.0
O372 O 0.69273 0.48816 0.48975 0.0
N373 N 0.70568 0.47944 0.57999 0.0
C374 C 0.68425 0.47073 0.5939 0.0
C375 C 0.66872 0.48962 0.60062 0.0
C376 C 0.70317 0.50351 0.58068 0.0
N377 N 0.68063 0.51014 0.59194 0.0
C378 C 0.71238 0.41681 0.57766 0.0
C379 C 0.6808 0.41602 0.50244 0.0
C380 C 0.67685 0.4005 0.54088 0.0
C381 C 0.69409 0.39989 0.57696 0.0
C382 C 0.69996 0.43221 0.50377 0.0
N383 N 0.71424 0.43394 0.54313 0.0
H384 H 0.72417 0.41677 0.60791 0.0
H385 H 0.7023 0.4437 0.47374 0.0
H386 H 0.6797 0.45203 0.59716 0.0
H387 H 0.71693 0.51579 0.56886 0.0
O388 O 0.74067 0.45425 0.62384 0.0
O389 O 0.75379 0.48687 0.58843 0.0
O390 O 0.73121 0.4762 0.49145 0.0
C391 C 0.75227 0.47421 0.62728 0.0
H392 H 0.81333 0.44233 0.48109 0.0
H393 H 0.6499 0.48833 0.60949 0.0
H394 H 0.6685 0.41677 0.47278 0.0
H395 H 0.69277 0.38732 0.60612 0.0
Co396 Co 0.54866 0.27267 0.02721 0.0
C397 C 0.58791 0.23631 0.04016 0.0
C398 C 0.55517 0.22768 0.07638 0.0
C399 C 0.57145 0.20985 0.08508 0.0
N400 N 0.56542 0.24436 0.04858 0.0
N401 N 0.59213 0.21523 0.06257 0.0
H402 H 0.60086 0.24551 0.0183 0.0
H403 H 0.53687 0.2283 0.089 0.0
C404 C 0.52411 0.2929 0.11609 0.0
O405 O 0.52267 0.31405 0.09602 0.0
N406 N 0.53084 0.3004 1.0057 0.0
C407 C 0.5388 0.32142 0.98828 0.0
C408 C 0.51932 0.33614 0.98047 0.0
C409 C 0.50676 0.30231 1.00652 0.0
N410 N 0.49924 0.32416 0.99263 0.0
C411 C 0.59375 0.29449 1.00712 0.0
C412 C 0.59424 0.32673 0.08136 0.0
C413 C 0.60971 0.33055 0.04271 0.0
C414 C 0.61042 0.31304 1.00705 0.0
C415 C 0.57825 0.3074 0.08069 0.0
N416 N 0.57665 0.29275 0.0418 0.0
H417 H 0.59394 0.28239 0.9773 0.0
H418 H 0.56687 0.30514 0.11095 0.0
H419 H 0.55735 0.32613 0.98286 0.0
H420 H 0.4951 0.2883 0.01953 0.0
O421 O 0.55646 0.26568 0.96184 0.0
O422 O 0.52407 0.25236 0.99787 0.0
O423 O 0.53465 0.27558 0.09445 0.0
C424 C 0.53656 0.25394 0.95877 0.0
H425 H 0.56801 0.19379 0.10543 0.0
H426 H 0.52003 0.35461 0.96897 0.0
H427 H 0.59342 0.33923 0.11075 0.0
H428 H 0.62295 0.31426 0.97774 0.0
Co429 Co 0.73196 0.54712 0.02813 0.0
C430 C 0.76606 0.58806 0.0376 0.0
C431 C 0.7758 0.55744 0.07955 0.0
C432 C 0.79237 0.57513 0.08726 0.0
N433 N 0.75923 0.56555 0.04884 0.0
N434 N 0.78629 0.59439 0.06103 0.0
H435 H 0.75643 0.59953 0.01322 0.0
H436 H 0.77597 0.53972 0.09501 0.0
C437 C 0.71152 0.52634 0.11856 0.0
O438 O 0.69001 0.52925 0.10054 0.0
N439 N 0.70515 0.52744 1.00779 0.0
C440 C 0.6852 0.53323 0.9834 0.0
C441 C 0.67126 0.51306 0.97857 0.0
C442 C 0.70337 0.50367 0.01583 0.0
N443 N 0.68261 0.49445 0.9993 0.0
C444 C 0.70152 0.587 1.00785 0.0
C445 C 0.68616 0.59633 0.09926 0.0
C446 C 0.67455 0.60759 0.06112 0.0
C447 C 0.68332 0.60362 0.01522 0.0
C448 C 0.70488 0.58014 0.09022 0.0
N449 N 0.7107 0.5739 0.04457 0.0
H450 H 0.707 0.58367 0.97172 0.0
H451 H 0.71415 0.5724 0.12005 0.0
H452 H 0.68072 0.55066 0.96978 0.0
H453 H 0.71699 0.49351 0.03425 0.0
O454 O 0.7381 0.55575 0.96294 0.0
O455 O 0.75337 0.52386 0.99771 0.0
O456 O 0.72998 0.53272 0.09461 0.0
C457 C 0.75093 0.53654 0.95907 0.0
H458 H 0.80808 0.5737 0.10958 0.0
H459 H 0.65382 0.51242 0.96193 0.0
H460 H 0.6806 0.59974 0.13554 0.0
H461 H 0.6752 0.61219 0.98468 0.0
Co462 Co 0.45945 0.73157 0.03902 0.0
C463 C 0.41817 0.76726 0.03961 0.0
C464 C 0.44906 0.77802 0.0794 0.0
C465 C 0.43288 0.79645 0.08016 0.0
N466 N 0.43991 0.75946 0.05464 0.0
N467 N 0.41349 0.78972 0.0552 0.0
H468 H 0.40659 0.7578 0.01547 0.0
H469 H 0.46687 0.77851 0.09441 0.0
C470 C 0.46077 0.73355 0.14471 0.0
O471 O 0.43727 0.73477 0.14346 0.0
N472 N 0.48024 0.70493 0.0243 0.0
C473 C 0.47573 0.68586 0.99639 0.0
C474 C 0.49549 0.671 0.99718 0.0
C475 C 0.5026 0.70168 0.04106 0.0
N476 N 0.51235 0.68101 0.02529 0.0
C477 C 0.41465 0.70748 0.02743 0.0
C478 C 0.42492 0.66965 0.08723 0.0
C479 C 0.40516 0.66784 0.05669 0.0
C480 C 0.39957 0.68758 0.02807 0.0
C481 C 0.43939 0.69009 0.08599 0.0
N482 N 0.43441 0.70867 0.05584 0.0
H483 H 0.41161 0.72069 1.00039 0.0
H484 H 0.45588 0.68983 0.10599 0.0
H485 H 0.45921 0.68288 0.97724 0.0
H486 H 0.51138 0.71405 0.06499 0.0
O487 O 0.45176 0.73483 0.97267 0.0
O488 O 0.4823 0.75277 1.00792 0.0
O489 O 0.47272 0.73202 0.10598 0.0
C490 C 0.47041 0.74854 0.96888 0.0
H491 H 0.43543 0.81377 0.09669 0.0
H492 H 0.49737 0.65425 0.97813 0.0
H493 H 0.43035 0.65468 0.10912 0.0
H494 H 0.3845 0.6871 1.00388 0.0
Co495 Co 0.27618 0.45718 1.00756 0.0
C496 C 0.2388 0.41757 0.0094 0.0
C497 C 0.2275 0.45097 0.03974 0.0
C498 C 0.2085 0.4355 0.04072 0.0
N499 N 0.24665 0.43987 0.02047 0.0
N500 N 0.21553 0.41455 0.02156 0.0
H501 H 0.24913 0.40413 0.9911 0.0
H502 H 0.22727 0.46943 0.05139 0.0
C503 C 0.27049 0.45901 0.11269 0.0
O504 O 0.26605 0.43593 0.11094 0.0
N505 N 0.30465 0.47569 0.99524 0.0
C506 C 0.32371 0.46966 0.96845 0.0
C507 C 0.33985 0.48833 0.96951 0.0
C508 C 0.30924 0.49783 0.01187 0.0
N509 N 0.33072 0.50604 0.99689 0.0
C510 C 0.29805 0.41135 0.99547 0.0
C511 C 0.33401 0.4183 0.06142 0.0
C512 C 0.33618 0.39943 0.02877 0.0
C513 C 0.31734 0.39548 0.99688 0.0
C514 C 0.31428 0.4337 0.05904 0.0
N515 N 0.2967 0.43043 0.02577 0.0
H516 H 0.28555 0.40952 0.96659 0.0
H517 H 0.31464 0.44965 0.08069 0.0
H518 H 0.32577 0.45286 0.9497 0.0
H519 H 0.29684 0.50786 0.03376 0.0
O520 O 0.27356 0.44995 0.94082 0.0
O521 O 0.25744 0.4817 0.97546 0.0
O522 O 0.27536 0.47042 0.07449 0.0
C523 C 0.26131 0.46958 0.93655 0.0
H524 H 0.1907 0.43948 0.05389 0.0
H525 H 0.35706 0.48865 0.95184 0.0
H526 H 0.34837 0.42243 0.08593 0.0
H527 H 0.31821 0.38114 0.97098 0.0
H528 H 0.12853 0.2889 0.06461 0.0
H529 H 0.1012 0.32051 0.9359 0.0
H530 H 0.16248 0.31694 0.06314 0.0
H531 H 0.13494 0.3481 0.93383 0.0
H532 H 0.16933 0.41585 0.9952 0.0
H533 H 0.14205 0.38232 0.9868 0.0
H534 H 0.19948 0.33321 0.01967 0.0
H535 H 0.22704 0.36738 0.02867 0.0
C536 C 0.13017 0.3014 0.03539 0.0
C537 C 0.11207 0.30291 1.00087 0.0
C538 C 0.14956 0.31741 0.03447 0.0
C539 C 0.15111 0.33504 0.99885 0.0
C540 C 0.13396 0.33512 0.96234 0.0
C541 C 0.11466 0.31933 0.96347 0.0
C542 C 0.1762 0.39792 1.00052 0.0
C543 C 0.20026 0.39423 0.01286 0.0
C544 C 0.16062 0.37864 0.99524 0.0
C545 C 0.16861 0.35505 1.00232 0.0
C546 C 0.19281 0.3512 0.0141 0.0
C547 C 0.20858 0.37066 0.01888 0.0
H548 H 0.72798 0.13558 0.02817 0.0
H549 H 0.66934 0.08635 0.04709 0.0
H550 H 0.70014 0.16955 0.03884 0.0
H551 H 0.64184 0.11984 0.05854 0.0
H552 H 0.60591 0.18306 0.12911 0.0
H553 H 0.63826 0.15409 0.1231 0.0
H554 H 0.66025 0.18504 0.98965 0.0
H555 H 0.62712 0.21386 0.99465 0.0
C556 C 0.70923 0.1321 0.03515 0.0
C557 C 0.70071 0.10845 0.03676 0.0
C558 C 0.69334 0.15143 0.04088 0.0
C559 C 0.66888 0.14726 0.04956 0.0
C560 C 0.66061 0.12356 0.05217 0.0
C561 C 0.67629 0.10442 0.04545 0.0
C562 C 0.61751 0.18379 0.09832 0.0
C563 C 0.61344 0.20049 0.06176 0.0
C564 C 0.63619 0.16727 0.09516 0.0
C565 C 0.65157 0.1672 0.05573 0.0
C566 C 0.64865 0.1848 0.02054 0.0
C567 C 0.62968 0.20128 0.02343 0.0
H568 H 0.81152 0.61536 0.13128 0.0
H569 H 0.79201 0.62294 0.98376 0.0
H570 H 0.83953 0.64843 0.12389 0.0
H571 H 0.81972 0.65676 0.97637 0.0
H572 H 0.89792 0.68593 0.96931 0.0
H573 H 0.86305 0.66008 0.9748 0.0
H574 H 0.84573 0.69075 0.11165 0.0
H575 H 0.88131 0.71608 0.10687 0.0
C576 C 0.813 0.62437 0.09736 0.0
C577 C 0.79983 0.61632 0.05791 0.0
C578 C 0.82888 0.64355 0.09323 0.0
C579 C 0.83206 0.65521 0.04944 0.0
C580 C 0.81793 0.64797 0.01049 0.0
C581 C 0.80189 0.62877 0.01475 0.0
C582 C 0.8867 0.6872 1.00061 0.0
C583 C 0.89271 0.70281 0.03804 0.0
C584 C 0.86645 0.6726 1.00344 0.0
C585 C 0.85159 0.6732 0.04378 0.0
C586 C 0.85695 0.68961 0.08031 0.0
C587 C 0.87725 0.70428 0.07743 0.0
H588 H 0.28746 0.8765 0.09127 0.0
H589 H 0.32023 0.90364 0.96332 0.0
H590 H 0.31556 0.84257 0.09079 0.0
H591 H 0.34808 0.87007 0.96271 0.0
H592 H 0.41527 0.83605 0.03056 0.0
H593 H 0.38172 0.8633 0.01968 0.0
H594 H 0.33224 0.80532 0.04515 0.0
H595 H 0.36637 0.77776 0.05599 0.0
C596 C 0.30024 0.87487 0.06246 0.0
C597 C 0.30201 0.89294 0.02789 0.0
C598 C 0.31629 0.85548 0.06212 0.0
C599 C 0.33429 0.85391 0.02715 0.0
C600 C 0.33474 0.87104 0.99065 0.0
C601 C 0.31882 0.89029 0.99105 0.0
C602 C 0.39723 0.82907 0.03342 0.0
C603 C 0.39337 0.80487 0.04419 0.0
C604 C 0.378 0.84462 0.02689 0.0
C605 C 0.35431 0.83645 0.03142 0.0
C606 C 0.35031 0.8121 0.04155 0.0
C607 C 0.36974 0.79635 0.04736 0.0
H608 H 0.13892 0.72854 0.55218 0.0
H609 H 0.08766 0.67146 0.53713 0.0
H610 H 0.17187 0.69931 0.54612 0.0
H611 H 0.11998 0.64254 0.52938 0.0
H612 H 0.17612 0.59243 0.57671 0.0
H613 H 0.14751 0.62516 0.58325 0.0
H614 H 0.19371 0.66971 0.49735 0.0
H615 H 0.22292 0.63668 0.49273 0.0
C616 C 0.1348 0.70982 0.54649 0.0
C617 C 0.11086 0.70211 0.54568 0.0
C618 C 0.15358 0.69308 0.54312 0.0
C619 C 0.14861 0.66844 0.53856 0.0
C620 C 0.12456 0.66119 0.53461 0.0
C621 C 0.10599 0.67775 0.53857 0.0
C622 C 0.18028 0.60939 0.56001 0.0
C623 C 0.20154 0.61211 0.53411 0.0
C624 C 0.16382 0.62809 0.56319 0.0
C625 C 0.16793 0.64993 0.53965 0.0
C626 C 0.18992 0.65314 0.5158 0.0
C627 C 0.20665 0.63434 0.51319 0.0
H628 H 0.41971 0.173 0.56487 0.0
H629 H 0.37043 0.22876 0.52479 0.0
H630 H 0.38699 0.14434 0.56852 0.0
H631 H 0.3372 0.19972 0.52675 0.0
H632 H 0.28283 0.13858 0.57489 0.0
H633 H 0.31201 0.17168 0.57479 0.0
H634 H 0.36395 0.12513 0.50785 0.0
H635 H 0.33525 0.09245 0.50949 0.0
C636 C 0.4017 0.17907 0.55715 0.0
C637 C 0.39754 0.20291 0.54411 0.0
C638 C 0.38296 0.16266 0.55879 0.0
C639 C 0.35953 0.16954 0.54656 0.0
C640 C 0.35505 0.19382 0.53618 0.0
C641 C 0.37396 0.21042 0.53511 0.0
C642 C 0.30041 0.13575 0.55961 0.0
C643 C 0.30702 0.11298 0.54283 0.0
C644 C 0.31711 0.1546 0.55959 0.0
C645 C 0.34055 0.15088 0.54248 0.0
C646 C 0.34638 0.12845 0.52283 0.0
C647 C 0.32992 0.10975 0.52338 0.0
H648 H 0.78896 0.3815 0.58469 0.0
H649 H 0.82273 0.40418 0.45407 0.0
H650 H 0.814 0.3457 0.58529 0.0
H651 H 0.84836 0.36903 0.45574 0.0
H652 H 0.88506 0.29732 0.45567 0.0
H653 H 0.85154 0.32563 0.44963 0.0
H654 H 0.8559 0.33875 0.60081 0.0
H655 H 0.88874 0.31031 0.60658 0.0
C656 C 0.80151 0.37879 0.55585 0.0
C657 C 0.80401 0.396 0.51973 0.0
C658 C 0.81602 0.35832 0.55638 0.0
C659 C 0.83337 0.35453 0.52077 0.0
C660 C 0.8351 0.3712 0.48354 0.0
C661 C 0.82061 0.39162 0.48301 0.0
C662 C 0.87837 0.30586 0.48761 0.0
C663 C 0.88962 0.30184 0.53149 0.0
C664 C 0.85936 0.32223 0.48418 0.0
C665 C 0.85113 0.33466 0.52469 0.0
C666 C 0.86156 0.32944 0.56893 0.0
C667 C 0.88056 0.31329 0.57222 0.0
H668 H 0.59117 0.83564 0.58642 0.0
H669 H 0.63619 0.78241 0.52065 0.0
H670 H 0.62395 0.86427 0.58489 0.0
H671 H 0.66935 0.81151 0.51738 0.0
H672 H 0.72734 0.8705 0.55943 0.0
H673 H 0.69828 0.8373 0.56169 0.0
H674 H 0.64204 0.88654 0.52191 0.0
H675 H 0.67076 0.91925 0.52136 0.0
C676 C 0.60828 0.8301 0.57192 0.0
C677 C 0.61118 0.807 0.55329 0.0
C678 C 0.62702 0.84652 0.57056 0.0
C679 C 0.64912 0.84044 0.54971 0.0
C680 C 0.65254 0.8168 0.53349 0.0
C681 C 0.63367 0.80015 0.53542 0.0
C682 C 0.7088 0.87391 0.55046 0.0
C683 C 0.70111 0.89736 0.5408 0.0
C684 C 0.69217 0.85501 0.55182 0.0
C685 C 0.66769 0.85937 0.54325 0.0
C686 C 0.66056 0.88263 0.53035 0.0
C687 C 0.67699 0.90136 0.52956 0.0
H688 H 0.20039 0.04936 0.03423 0.0
H689 H 0.13207 0.02506 0.08822 0.0
H690 H 0.18255 0.08754 0.01333 0.0
H691 H 0.11466 0.06373 0.06984 0.0
H692 H 0.08302 0.12626 0.99268 0.0
H693 H 0.1021 0.0878 1.00529 0.0
H694 H 0.16735 0.12358 0.04719 0.0
H695 H 0.14868 0.16221 0.03156 0.0
C696 C 0.18158 0.05201 0.0417 0.0
C697 C 0.16774 0.03382 0.06287 0.0
C698 C 0.1714 0.07415 0.03018 0.0
C699 C 0.14712 0.07882 0.03972 0.0
C700 C 0.13332 0.06072 0.06116 0.0
C701 C 0.14345 0.03853 0.0724 0.0
C702 C 0.10165 0.12604 1.0033 0.0
C703 C 0.11428 0.14751 0.01091 0.0
C704 C 0.11248 0.10388 0.01145 0.0
C705 C 0.13621 0.10247 0.02792 0.0
C706 C 0.1491 0.12389 0.03425 0.0
C707 C 0.1383 0.14611 0.02574 0.0
H708 H 0.98532 0.13025 0.04702 0.0
H709 H 0.95484 0.20024 0.02225 0.0
H710 H 0.94594 0.11228 0.03726 0.0
H711 H 0.91539 0.18215 0.01214 0.0
H712 H 0.85017 0.13641 0.96304 0.0
H713 H 0.89047 0.1542 0.9616 0.0
H714 H 0.90948 0.11309 0.08594 0.0
H715 H 0.8699 0.09527 0.08686 0.0
C716 C 0.97025 0.14184 0.03958 0.0
C717 C 0.97329 0.16675 0.0361 0.0
C718 C 0.94767 0.13152 0.03379 0.0
C719 C 0.9275 0.14582 0.02432 0.0
C720 C 0.93061 0.17063 0.01899 0.0
C721 C 0.95325 0.18099 0.02488 0.0
C722 C 0.86308 0.13118 0.9898 0.0
C723 C 0.85678 0.11469 0.02539 0.0
C724 C 0.88605 0.14142 0.98916 0.0
C725 C 0.90318 0.13498 0.02359 0.0
C726 C 0.89686 0.11824 0.05858 0.0
C727 C 0.87402 0.10825 0.05946 0.0
H728 H 0.88852 0.85443 0.13048 0.0
H729 H 0.88372 0.85979 0.97742 0.0
H730 H 0.86801 0.89233 0.13864 0.0
H731 H 0.86457 0.89885 0.98574 0.0
H732 H 0.81268 0.95995 0.01846 0.0
H733 H 0.82921 0.91987 0.00996 0.0
H734 H 0.87658 0.93325 0.12841 0.0
H735 H 0.8591 0.97265 0.13873 0.0
C736 C 0.88287 0.8635 0.09841 0.0
C737 C 0.88774 0.85379 0.0532 0.0
C738 C 0.87146 0.88559 0.10317 0.0
C739 C 0.86487 0.89889 0.06291 0.0
C740 C 0.86924 0.88905 0.0176 0.0
C741 C 0.8805 0.86674 0.0128 0.0
C742 C 0.82631 0.95425 0.04328 0.0
C743 C 0.83441 0.96966 0.07952 0.0
C744 C 0.83605 0.93131 0.03792 0.0
C745 C 0.85423 0.92322 0.0685 0.0
C746 C 0.86233 0.93865 0.10463 0.0
C747 C 0.8525 0.96147 0.1102 0.0
H748 H 0.16358 0.85522 0.05545 0.0
H749 H 0.12496 0.92197 0.04342 0.0
H750 H 0.12593 0.83437 0.07236 0.0
H751 H 0.0875 0.90115 0.05946 0.0
H752 H 0.03024 0.86242 0.14482 0.0
H753 H 0.06891 0.88103 0.12921 0.0
H754 H 0.08702 0.82349 0.0331 0.0
H755 H 0.04823 0.80504 0.0479 0.0
C756 C 0.14705 0.86538 0.05599 0.0
C757 C 0.14726 0.89023 0.04783 0.0
C758 C 0.12551 0.85344 0.0655 0.0
C759 C 0.10378 0.86616 0.06766 0.0
C760 C 0.10398 0.8909 0.05869 0.0
C761 C 0.12542 0.90277 0.04878 0.0
C762 C 0.04241 0.85369 0.12037 0.0
C763 C 0.0359 0.83226 0.09748 0.0
C764 C 0.06459 0.86438 0.11138 0.0
C765 C 0.08092 0.85386 0.07952 0.0
C766 C 0.07488 0.83196 0.05806 0.0
C767 C 0.05262 0.82132 0.06679 0.0
H768 H 0.14202 0.9796 0.46746 0.0
H769 H 0.18875 0.96849 0.58785 0.0
H770 H 0.12518 0.94004 0.47881 0.0
H771 H 0.17274 0.92827 0.59755 0.0
H772 H 0.11991 0.86665 0.62964 0.0
H773 H 0.13766 0.90636 0.62147 0.0
H774 H 0.13555 0.89919 0.46858 0.0
H775 H 0.11658 0.86044 0.47657 0.0
C776 C 0.14875 0.96881 0.4964 0.0
C777 C 0.16686 0.97742 0.5266 0.0
C778 C 0.13928 0.94587 0.50252 0.0
C779 C 0.14774 0.93078 0.53882 0.0
C780 C 0.16568 0.93942 0.56938 0.0
C781 C 0.17509 0.96246 0.5634 0.0
C782 C 0.12316 0.87358 0.59429 0.0
C783 C 0.11674 0.8602 0.55383 0.0
C784 C 0.13358 0.89628 0.58959 0.0
C785 C 0.13788 0.90613 0.54433 0.0
C786 C 0.13212 0.89242 0.50401 0.0
C787 C 0.1216 0.86989 0.50866 0.0
H788 H 0.04544 0.2015 0.54417 0.0
H789 H 0.0336 0.14434 0.44268 0.0
H790 H 0.08374 0.18391 0.56498 0.0
H791 H 0.0717 0.12679 0.46459 0.0
H792 H 0.12647 0.08745 0.55572 0.0
H793 H 0.08849 0.10696 0.53793 0.0
H794 H 0.12458 0.17508 0.52747 0.0
H795 H 0.1628 0.15549 0.54574 0.0
C796 C 0.05081 0.18537 0.52585 0.0
C797 C 0.03589 0.17445 0.49162 0.0
C798 C 0.07292 0.17528 0.53801 0.0
C799 C 0.08062 0.15388 0.51676 0.0
C800 C 0.06605 0.14311 0.48217 0.0
C801 C 0.04408 0.1533 0.46959 0.0
C802 C 0.12628 0.10667 0.55063 0.0
C803 C 0.14764 0.11996 0.55246 0.0
C804 C 0.10456 0.11778 0.53981 0.0
C805 C 0.1036 0.1425 0.53088 0.0
C806 C 0.12478 0.156 0.5343 0.0
C807 C 0.14664 0.1448 0.54461 0.0
H808 H 0.87545 0.02088 0.50684 0.0
H809 H 0.80495 0.05228 0.51668 0.0
H810 H 0.89337 0.05995 0.52052 0.0
H811 H 0.82293 0.09162 0.53002 0.0
H812 H 0.86529 0.15729 0.58504 0.0
H813 H 0.84741 0.11699 0.58436 0.0
H814 H 0.89691 0.0958 0.47383 0.0
H815 H 0.91483 0.13525 0.47544 0.0
C816 C 0.86376 0.03616 0.51159 0.0
C817 C 0.83877 0.03348 0.50994 0.0
C818 C 0.87403 0.05858 0.51964 0.0
C819 C 0.8596 0.07899 0.52596 0.0
C820 C 0.83457 0.07624 0.52578 0.0
C821 C 0.82426 0.05371 0.5179 0.0
C822 C 0.8724 0.14384 0.56112 0.0
C823 C 0.89123 0.14948 0.52991 0.0
C824 C 0.8621 0.12088 0.56042 0.0
C825 C 0.87074 0.10316 0.52901 0.0
C826 C 0.88997 0.10882 0.49888 0.0
C827 C 0.90008 0.13158 0.49942 0.0
H828 H 0.97889 0.87089 0.52395 0.0
H829 H 0.95233 0.7989 0.50476 0.0
H830 H 0.93845 0.88495 0.53846 0.0
H831 H 0.91173 0.8129 0.52135 0.0
H832 H 0.84092 0.85536 0.49365 0.0
H833 H 0.88032 0.83693 0.48646 0.0
H834 H 0.907 0.88345 0.59715 0.0
H835 H 0.86783 0.90257 0.60289 0.0
C836 C 0.96445 0.85802 0.5225 0.0
C837 C 0.96902 0.83371 0.51287 0.0
C838 C 0.94121 0.86605 0.53174 0.0
C839 C 0.92179 0.85003 0.53172 0.0
C840 C 0.92624 0.82576 0.52158 0.0
C841 C 0.94956 0.8177 0.51233 0.0
C842 C 0.85513 0.86147 0.51686 0.0
C843 C 0.85127 0.88069 0.54839 0.0
C844 C 0.87771 0.85077 0.51295 0.0
C845 C 0.897 0.859 0.54058 0.0
C846 C 0.89269 0.87704 0.57453 0.0
C847 C 0.8701 0.88776 0.57839 0.0
H848 H 0.70074 0.55229 0.61688 0.0
H849 H 0.63777 0.52107 0.55349 0.0
H850 H 0.68378 0.59247 0.60504 0.0
H851 H 0.62101 0.56106 0.54097 0.0
H852 H 0.61395 0.63796 0.47987 0.0
H853 H 0.63334 0.59909 0.49005 0.0
H854 H 0.64506 0.61464 0.63836 0.0
H855 H 0.62459 0.65276 0.62945 0.0
C856 C 0.6833 0.55409 0.60046 0.0
C857 C 0.67044 0.53366 0.58653 0.0
C858 C 0.67362 0.57697 0.59373 0.0
C859 C 0.65117 0.5798 0.57186 0.0
C860 C 0.63843 0.55936 0.55756 0.0
C861 C 0.64788 0.53652 0.5652 0.0
C862 C 0.6205 0.63314 0.51478 0.0
C863 C 0.61754 0.64874 0.55376 0.0
C864 C 0.63171 0.61091 0.52046 0.0
C865 C 0.64066 0.60393 0.56499 0.0
C866 C 0.63855 0.61972 0.60354 0.0
C867 C 0.62694 0.64173 0.59815 0.0
H868 H 0.38173 0.58369 0.49548 0.0
H869 H 0.34518 0.64931 0.53287 0.0
H870 H 0.42006 0.60301 0.50897 0.0
H871 H 0.38359 0.66822 0.54923 0.0
H872 H 0.45743 0.7017 0.53963 0.0
H873 H 0.41976 0.68348 0.51663 0.0
H874 H 0.44351 0.61591 0.57446 0.0
H875 H 0.48175 0.63374 0.59501 0.0
C876 C 0.38181 0.60235 0.50591 0.0
C877 C 0.36022 0.6149 0.51301 0.0
C878 C 0.40387 0.61333 0.51453 0.0
C879 C 0.40502 0.63711 0.53087 0.0
C880 C 0.38348 0.64993 0.53643 0.0
C881 C 0.36139 0.63899 0.52749 0.0
C882 C 0.45488 0.68288 0.54695 0.0
C883 C 0.47292 0.66926 0.56917 0.0
C884 C 0.43303 0.67247 0.5342 0.0
C885 C 0.42849 0.64817 0.54354 0.0
C886 C 0.44645 0.63457 0.56593 0.0
C887 C 0.46836 0.64494 0.57842 0.0
H888 H 0.30164 0.45441 0.52844 0.0
H889 H 0.37395 0.4815 0.53544 0.0
H890 H 0.31708 0.41416 0.51413 0.0
H891 H 0.38941 0.44118 0.52232 0.0
H892 H 0.41124 0.36941 0.46401 0.0
H893 H 0.39224 0.40886 0.46259 0.0
H894 H 0.33847 0.38392 0.56128 0.0
H895 H 0.35718 0.34444 0.56193 0.0
C896 C 0.32082 0.45184 0.52652 0.0
C897 C 0.33656 0.47121 0.53329 0.0
C898 C 0.32968 0.42872 0.51866 0.0
C899 C 0.35448 0.42443 0.51704 0.0
C900 C 0.3702 0.44389 0.52279 0.0
C901 C 0.36135 0.46697 0.53095 0.0
C902 C 0.39496 0.37217 0.4843 0.0
C903 C 0.38577 0.35386 0.51326 0.0
C904 C 0.38426 0.39485 0.48398 0.0
C905 C 0.36403 0.39964 0.51232 0.0
C906 C 0.35397 0.38085 0.5389 0.0
C907 C 0.36476 0.35825 0.53947 0.0
H908 H 0.54676 0.31246 0.51937 0.0
H909 H 0.53435 0.36323 0.63291 0.0
H910 H 0.58709 0.32805 0.50923 0.0
H911 H 0.57393 0.37975 0.62067 0.0
H912 H 0.6526 0.39076 0.62315 0.0
H913 H 0.61449 0.37105 0.633 0.0
H914 H 0.60912 0.36182 0.48085 0.0
H915 H 0.64852 0.38001 0.47104 0.0
C916 C 0.55255 0.32687 0.54234 0.0
C917 C 0.53714 0.33643 0.57725 0.0
C918 C 0.57565 0.33606 0.53599 0.0
C919 C 0.5839 0.35514 0.56417 0.0
C920 C 0.56844 0.36476 0.59883 0.0
C921 C 0.54548 0.35546 0.60545 0.0
C922 C 0.64378 0.38397 0.59166 0.0
C923 C 0.65395 0.38694 0.5462 0.0
C924 C 0.62154 0.37304 0.59734 0.0
C925 C 0.60844 0.36513 0.55774 0.0
C926 C 0.61872 0.36757 0.51225 0.0
C927 C 0.64124 0.3783 0.50656 0.0
H928 H 0.69751 0.46089 0.06327 0.0
H929 H 0.64719 0.47275 0.94899 0.0
H930 H 0.68208 0.42053 0.07338 0.0
H931 H 0.63081 0.43314 0.9612 0.0
H932 H 0.61949 0.35444 0.96006 0.0
H933 H 0.63923 0.39252 0.94966 0.0
H934 H 0.64838 0.39855 0.10172 0.0
H935 H 0.63016 0.35923 0.11205 0.0
C936 C 0.68325 0.45498 0.04011 0.0
C937 C 0.67374 0.47028 1.00507 0.0
C938 C 0.67414 0.43185 0.04644 0.0
C939 C 0.65519 0.42343 0.01812 0.0
C940 C 0.64569 0.43874 0.9832 0.0
C941 C 0.65491 0.46173 0.97659 0.0
C942 C 0.62626 0.36342 0.99141 0.0
C943 C 0.62324 0.35345 0.037 0.0
C944 C 0.63722 0.38564 0.98541 0.0
C945 C 0.64515 0.3989 0.02483 0.0
C946 C 0.64264 0.38882 0.07044 0.0
C947 C 0.63188 0.36634 0.07644 0.0
H948 H 0.52564 0.63437 0.0288 0.0
H949 H 0.55229 0.70631 0.04728 0.0
H950 H 0.56548 0.61851 0.04548 0.0
H951 H 0.59206 0.69044 0.06495 0.0
H952 H 0.66331 0.65103 0.02232 0.0
H953 H 0.62389 0.66987 0.01921 0.0
H954 H 0.59553 0.61444 0.11013 0.0
H955 H 0.63499 0.59542 0.11269 0.0
C956 C 0.53999 0.6468 0.03649 0.0
C957 C 0.53578 0.67162 0.03645 0.0
C958 C 0.56276 0.63771 0.04668 0.0
C959 C 0.58194 0.65321 0.05674 0.0
C960 C 0.57769 0.67802 0.05716 0.0
C961 C 0.55486 0.68711 0.04735 0.0
C962 C 0.64875 0.64314 0.04238 0.0
C963 C 0.65221 0.6217 0.06758 0.0
C964 C 0.62618 0.65397 0.04075 0.0
C965 C 0.6065 0.6435 0.06398 0.0
C966 C 0.61027 0.62276 0.09133 0.0
C967 C 0.63292 0.61204 0.09331 0.0
H968 H 0.32135 0.53514 0.07236 0.0
H969 H 0.36444 0.52941 0.94513 0.0
H970 H 0.33824 0.57458 0.08795 0.0
H971 H 0.38207 0.56825 0.9619 0.0
H972 H 0.38946 0.64819 0.97334 0.0
H973 H 0.37076 0.60958 0.96071 0.0
H974 H 0.37494 0.59492 0.11123 0.0
H975 H 0.39272 0.63438 0.12436 0.0
C976 C 0.3344 0.54223 0.04767 0.0
C977 C 0.34136 0.52905 1.00722 0.0
C978 C 0.34431 0.56477 0.05697 0.0
C979 C 0.36143 0.5747 0.02607 0.0
C980 C 0.36864 0.56135 0.98608 0.0
C981 C 0.35872 0.53888 0.97674 0.0
C982 C 0.38594 0.63706 1.00405 0.0
C983 C 0.39246 0.64459 0.05001 0.0
C984 C 0.37556 0.61465 0.99663 0.0
C985 C 0.37155 0.59898 0.03484 0.0
C986 C 0.37765 0.60659 0.08099 0.0
C987 C 0.38803 0.62913 0.08848 0.0
H988 H 0.46462 0.3105 0.05472 0.0
H989 H 0.47956 0.35983 0.94039 0.0
H990 H 0.42457 0.32721 0.06291 0.0
H991 H 0.43966 0.37717 0.94968 0.0
H992 H 0.35899 0.38669 0.94656 0.0
H993 H 0.3977 0.36728 0.93737 0.0
H994 H 0.40516 0.36399 0.09005 0.0
H995 H 0.36584 0.3827 0.09934 0.0
C996 C 0.4593 0.32476 0.03097 0.0
C997 C 0.47528 0.33369 0.99655 0.0
C998 C 0.43641 0.33457 0.03616 0.0
C999 C 0.42888 0.35354 1.00702 0.0
C1000 C 0.44479 0.36238 0.97238 0.0
C1001 C 0.46773 0.35261 0.96729 0.0
C1002 C 0.3686 0.38138 0.97827 0.0
C1003 C 0.35916 0.38609 0.02376 0.0
C1004 C 0.391 0.37058 0.97294 0.0
C1005 C 0.40462 0.36421 0.01292 0.0
C1006 C 0.39505 0.3685 0.05847 0.0
C1007 C 0.3726 0.37938 0.06383 0.0
H1008 H 0.94665 0.25578 0.35266 0.0
H1009 H 0.01685 0.26854 0.41154 0.0
H1010 H 0.96261 0.25973 0.273 0.0
H1011 H 0.03293 0.27343 0.33108 0.0
H1012 H 0.05616 0.2381 0.18884 0.0
H1013 H 0.04175 0.24626 0.26856 0.0
H1014 H 0.97967 0.2819 0.21019 0.0
H1015 H 0.99386 0.27286 0.12982 0.0
C1016 C 0.96545 0.26012 0.34859 0.0
C1017 C 0.98054 0.26156 0.38847 0.0
C1018 C 0.97462 0.26256 0.30266 0.0
C1019 C 0.99918 0.2666 0.29522 0.0
C1020 C 0.014 0.26983 0.33535 0.0
C1021 C 0.00477 0.26732 0.38154 0.0
C1022 C 0.03955 0.24792 0.19288 0.0
C1023 C 0.02601 0.25457 0.15289 0.0
C1024 C 0.03137 0.25284 0.23884 0.0
C1025 C 0.00944 0.2647 0.2462 0.0
C1026 C 0.99645 0.27239 0.20603 0.0
C1027 C 0.00461 0.26732 0.15989 0.0
H1028 H 0.73688 0.94985 0.38299 0.0
H1029 H 0.75884 0.02077 0.42448 0.0
H1030 H 0.72973 0.96371 0.30223 0.0
H1031 H 0.75348 0.03456 0.34306 0.0
H1032 H 0.73808 0.05841 0.19586 0.0
H1033 H 0.73207 0.04507 0.2774 0.0
H1034 H 0.75027 0.97282 0.23476 0.0
H1035 H 0.75451 0.98617 0.15288 0.0
C1036 C 0.73988 0.96856 0.37478 0.0
C1037 C 0.74827 0.98428 0.41001 0.0
C1038 C 0.73614 0.9765 0.32817 0.0
C1039 C 0.74142 1.00026 0.31505 0.0
C1040 C 0.74881 0.01623 0.35122 0.0
C1041 C 0.75194 0.00837 0.3982 0.0
C1042 C 0.74009 0.03955 0.2039 0.0
C1043 C 0.74661 0.0233 0.168 0.0
C1044 C 0.737 0.03189 0.25092 0.0
C1045 C 0.74107 0.00783 0.26369 0.0
C1046 C 0.74656 0.99141 0.22695 0.0
C1047 C 0.74904 0.99902 0.17967 0.0
H1048 H 0.94807 0.75557 0.22196 0.0
H1049 H 0.01612 0.73431 0.16226 0.0
H1050 H 0.9638 0.75027 0.30147 0.0
H1051 H 0.03182 0.72808 0.2425 0.0
H1052 H 0.05915 0.76175 0.38354 0.0
H1053 H 0.04393 0.75425 0.3043 0.0
H1054 H 0.97841 0.72624 0.3644 0.0
H1055 H 0.99352 0.73466 0.44434 0.0
C1056 C 0.96628 0.74915 0.22581 0.0
C1057 C 0.98094 0.74565 0.18571 0.0
C1058 C 0.97528 0.7459 0.27165 0.0
C1059 C 0.99922 0.73896 0.27878 0.0
C1060 C 0.01343 0.73388 0.23848 0.0
C1061 C 0.00439 0.73723 0.19242 0.0
C1062 C 0.04162 0.75365 0.38001 0.0
C1063 C 0.02742 0.74909 0.42032 0.0
C1064 C 0.03294 0.74912 0.33433 0.0
C1065 C 0.0098 0.73979 0.32758 0.0
C1066 C 0.99615 0.73383 0.36812 0.0
C1067 C 0.00485 0.73847 0.41401 0.0
H1068 H 0.23932 0.06112 0.37768 0.0
H1069 H 0.26723 0.99569 0.43768 0.0
H1070 H 0.24514 0.04522 0.2981 0.0
H1071 H 0.2737 0.97988 0.35757 0.0
H1072 H 0.24268 0.94919 0.21672 0.0
H1073 H 0.24771 0.96548 0.29607 0.0
H1074 H 0.27189 0.03242 0.236 0.0
H1075 H 0.26621 0.01613 0.15597 0.0
C1076 C 0.24716 0.04348 0.37386 0.0
C1077 C 0.25257 0.02957 0.41407 0.0
C1078 C 0.25069 0.03441 0.32807 0.0
C1079 C 0.25977 0.01117 0.32121 0.0
C1080 C 0.26633 0.99771 0.3615 0.0
C1081 C 0.26276 0.00681 0.40744 0.0
C1082 C 0.24944 0.96727 0.22033 0.0
C1083 C 0.25383 0.98144 0.17998 0.0
C1084 C 0.25251 0.97659 0.26601 0.0
C1085 C 0.26007 1.00035 0.27265 0.0
C1086 C 0.26569 0.01415 0.23222 0.0
C1087 C 0.26262 0.00478 0.18634 0.0
H1088 H 0.02791 0.80083 0.92943 0.0
H1089 H 0.96119 0.76255 0.91412 0.0
H1090 H 0.0352 0.79688 0.84397 0.0
H1091 H 0.96823 0.75925 0.82819 0.0
H1092 H 0.97861 0.80117 0.67891 0.0
H1093 H 0.97166 0.79596 0.76416 0.0
H1094 H 0.0403 0.76117 0.77781 0.0
H1095 H 0.04704 0.76572 0.69199 0.0
C1096 C 0.01493 0.79137 0.90783 0.0
C1097 C 0.99396 0.78206 0.92833 0.0
C1098 C 0.01917 0.78901 0.85906 0.0
C1099 C 1.00227 0.77777 0.82967 0.0
C1100 C 0.98153 0.76797 0.85022 0.0
C1101 C 0.97756 0.7698 0.89929 0.0
C1102 C 0.99205 0.79207 0.69997 0.0
C1103 C 0.01338 0.7839 0.67891 0.0
C1104 C 0.98801 0.78899 0.74863 0.0
C1105 C 0.00545 0.77817 0.77738 0.0
C1106 C 0.02659 0.76954 0.75626 0.0
C1107 C 0.03039 0.77209 0.70727 0.0
H1108 H 0.25064 0.06473 0.72556 0.0
H1109 H 0.22291 1.00133 0.65687 0.0
H1110 H 0.25018 0.04411 0.80169 0.0
H1111 H 0.22188 0.98085 0.73342 0.0
H1112 H 0.22394 0.00861 0.93798 0.0
H1113 H 0.22351 0.02898 0.86136 0.0
H1114 H 0.24785 0.96412 0.79269 0.0
H1115 H 0.2477 0.94362 0.86901 0.0
C1116 C 0.24431 0.04642 0.7267 0.0
C1117 C 0.23685 0.03469 0.68502 0.0
C1118 C 0.2439 0.03462 0.77052 0.0
C1119 C 0.23594 0.0108 0.77389 0.0
C1120 C 0.22843 0.99908 0.73214 0.0
C1121 C 0.22892 0.01086 0.68823 0.0
C1122 C 0.22919 0.99869 0.90654 0.0
C1123 C 0.23586 0.97447 0.90972 0.0
C1124 C 0.22906 0.01041 0.86256 0.0
C1125 C 0.23567 0.99823 0.82069 0.0
C1126 C 0.2423 0.97399 0.82398 0.0
C1127 C 0.24236 0.96226 0.86789 0.0
H1128 H 0.04157 0.27093 0.85485 0.0
H1129 H 0.01563 0.2014 0.89632 0.0
H1130 H 0.02423 0.26578 0.77633 0.0
H1131 H 1.00028 0.19482 0.81647 0.0
H1132 H 0.96081 0.1931 0.67669 0.0
H1133 H 0.97383 0.20057 0.7579 0.0
H1134 H 0.02818 0.24905 0.70477 0.0
H1135 H 0.01326 0.24311 0.6245 0.0
C1136 C 0.03221 0.25443 0.84679 0.0
C1137 C 0.02981 0.23662 0.88148 0.0
C1138 C 0.02252 0.25122 0.8014 0.0
C1139 C 0.01101 0.22964 0.7888 0.0
C1140 C 0.00849 0.21191 0.82425 0.0
C1141 C 0.01744 0.21554 0.87022 0.0
C1142 C 0.97549 0.2054 0.6828 0.0
C1143 C 0.98605 0.21757 0.64461 0.0
C1144 C 0.98318 0.20961 0.72944 0.0
C1145 C 1.00224 0.22551 0.73892 0.0
C1146 C 0.01303 0.23725 0.69994 0.0
C1147 C 0.00472 0.23367 0.65357 0.0
H1148 H 0.83301 0.99493 0.67065 0.0
H1149 H 0.75808 0.97599 0.6743 0.0
H1150 H 0.83129 0.00618 0.75394 0.0
H1151 H 0.75648 0.9865 0.75874 0.0
H1152 H 0.83 1.00054 0.91272 0.0
H1153 H 0.82908 0.98884 0.8296 0.0
H1154 H 0.75762 0.0179 0.81669 0.0
H1155 H 0.7583 0.02887 0.90096 0.0
C1156 C 0.81614 0.99304 0.68934 0.0
C1157 C 0.79573 0.98441 0.66573 0.0
C1158 C 0.81518 0.99934 0.73743 0.0
C1159 C 0.79383 0.99695 0.76371 0.0
C1160 C 0.77322 0.98876 0.73981 0.0
C1161 C 0.77414 0.98264 0.69135 0.0
C1162 C 0.81402 0.00437 0.89228 0.0
C1163 C 0.7943 0.01581 0.91352 0.0
C1164 C 0.81354 0.9978 0.84431 0.0
C1165 C 0.79343 1.00274 0.81578 0.0
C1166 C 0.77339 0.01364 0.83739 0.0
C1167 C 0.77379 0.02001 0.88574 0.0
H1168 H 0.51294 0.77027 0.94512 0.0
H1169 H 0.44683 0.74416 0.88487 0.0
H1170 H 0.52862 0.77713 0.86497 0.0
H1171 H 0.46255 0.75034 0.8054 0.0
H1172 H 0.49167 0.76987 0.66325 0.0
H1173 H 0.47583 0.77653 0.74337 0.0
H1174 H 0.54239 0.75101 0.80304 0.0
H1175 H 0.55827 0.74503 0.72358 0.0
C1176 C 0.50162 0.76638 0.91485 0.0
C1177 C 0.47875 0.75646 0.92137 0.0
C1178 C 0.51064 0.77014 0.86888 0.0
C1179 C 0.49697 0.76407 0.82852 0.0
C1180 C 0.47356 0.75549 0.83537 0.0
C1181 C 0.46458 0.75175 0.88114 0.0
C1182 C 0.50305 0.7662 0.69354 0.0
C1183 C 0.52613 0.75672 0.68704 0.0
C1184 C 0.49394 0.76985 0.73949 0.0
C1185 C 0.50772 0.7641 0.77987 0.0
C1186 C 0.5313 0.75591 0.77304 0.0
C1187 C 0.54036 0.75229 0.72729 0.0
H1188 H 0.2657 0.44616 0.85222 0.0
H1189 H 0.24143 0.51296 0.91298 0.0
H1190 H 0.26006 0.46217 0.77284 0.0
H1191 H 0.23517 0.52894 0.83297 0.0
H1192 H 0.26727 0.55756 0.69103 0.0
H1193 H 0.2618 0.54178 0.77066 0.0
H1194 H 0.23339 0.47622 0.71172 0.0
H1195 H 0.23947 0.49195 0.63144 0.0
C1196 C 0.25868 0.46415 0.84862 0.0
C1197 C 0.25426 0.47839 0.88894 0.0
C1198 C 0.25525 0.47329 0.80294 0.0
C1199 C 0.24729 0.49693 0.79633 0.0
C1200 C 0.24166 0.51077 0.83676 0.0
C1201 C 0.24509 0.50159 0.88261 0.0
C1202 C 0.25953 0.5399 0.69496 0.0
C1203 C 0.25404 0.5259 0.65486 0.0
C1204 C 0.2562 0.5309 0.74079 0.0
C1205 C 0.24728 0.50764 0.74778 0.0
C1206 C 0.24062 0.49408 0.70763 0.0
C1207 C 0.24396 0.50313 0.66162 0.0
H1208 H 0.56099 0.25427 0.87523 0.0
H1209 H 0.49176 0.23713 0.93448 0.0
H1210 H 0.54512 0.24999 0.79565 0.0
H1211 H 0.47586 0.23175 0.8541 0.0
H1212 H 0.44961 0.2641 0.71202 0.0
H1213 H 0.4647 0.25707 0.79143 0.0
H1214 H 0.52984 0.22758 0.73214 0.0
H1215 H 0.5149 0.23568 0.65199 0.0
C1216 C 0.54244 0.24895 0.87128 0.0
C1217 C 0.52758 0.2463 0.91137 0.0
C1218 C 0.53333 0.2463 0.82531 0.0
C1219 C 0.50905 0.24075 0.81789 0.0
C1220 C 0.49453 0.23653 0.85818 0.0
C1221 C 0.50368 0.23934 0.9044 0.0
C1222 C 0.46705 0.25582 0.71574 0.0
C1223 C 0.48114 0.25069 0.67548 0.0
C1224 C 0.47568 0.25156 0.7616 0.0
C1225 C 0.49865 0.24187 0.76876 0.0
C1226 C 0.51225 0.2355 0.72829 0.0
C1227 C 0.50363 0.23994 0.6822 0.0
H1228 H 0.75091 0.44982 0.71068 0.0
H1229 H 0.77095 0.51827 0.6518 0.0
H1230 H 0.75649 0.46524 0.79029 0.0
H1231 H 0.77767 0.53366 0.73222 0.0
H1232 H 0.77263 0.49395 0.9339 0.0
H1233 H 0.77999 0.47911 0.85328 0.0
H1234 H 0.75368 0.54592 0.79599 0.0
H1235 H 0.74745 0.56088 0.87581 0.0
C1236 C 0.75711 0.46808 0.71469 0.0
C1237 C 0.76022 0.48288 0.67471 0.0
C1238 C 0.76053 0.47692 0.76068 0.0
C1239 C 0.76736 0.50085 0.76827 0.0
C1240 C 0.77194 0.51527 0.72804 0.0
C1241 C 0.76832 0.50641 0.6818 0.0
C1242 C 0.769 0.50561 0.90402 0.0
C1243 C 0.75926 0.52851 0.9114 0.0
C1244 C 0.77298 0.49705 0.85766 0.0
C1245 C 0.76715 0.51113 0.81761 0.0
C1246 C 0.7587 0.53453 0.82545 0.0
C1247 C 0.75491 0.54309 0.87157 0.0
H1248 H 0.53432 0.25667 0.17989 0.0
H1249 H 0.49713 0.3242 0.16731 0.0
H1250 H 0.52493 0.25582 0.26515 0.0
H1251 H 0.48754 0.32316 0.25138 0.0
H1252 H 0.48242 0.25542 0.41014 0.0
H1253 H 0.49244 0.25279 0.32537 0.0
H1254 H 0.50919 0.32826 0.32459 0.0
H1255 H 0.49888 0.33096 0.40826 0.0
C1256 C 0.52394 0.27117 0.1951 0.0
C1257 C 0.51676 0.29066 0.16677 0.0
C1258 C 0.51852 0.27067 0.24396 0.0
C1259 C 0.50583 0.28964 0.26543 0.0
C1260 C 0.49789 0.30855 0.23649 0.0
C1261 C 0.5033 0.30908 0.18803 0.0
C1262 C 0.48842 0.27139 0.39187 0.0
C1263 C 0.48958 0.29347 0.41599 0.0
C1264 C 0.49422 0.26987 0.34329 0.0
C1265 C 0.50126 0.29039 0.31783 0.0
C1266 C 0.50326 0.3122 0.34261 0.0
C1267 C 0.49746 0.31372 0.39084 0.0
H1268 H 0.75047 0.47648 0.40647 0.0
H1269 H 0.68235 0.51279 0.41762 0.0
H1270 H 0.7514 0.48514 0.32097 0.0
H1271 H 0.68347 0.52164 0.33327 0.0
H1272 H 0.75179 0.52654 0.17526 0.0
H1273 H 0.75416 0.51725 0.26025 0.0
H1274 H 0.67895 0.4993 0.26046 0.0
H1275 H 0.67649 0.50886 0.17642 0.0
C1276 C 0.73585 0.48652 0.39089 0.0
C1277 C 0.7162 0.49368 0.4189 0.0
C1278 C 0.7364 0.49151 0.3419 0.0
C1279 C 0.7173 0.50373 0.31997 0.0
C1280 C 0.69819 0.51164 0.34855 0.0
C1281 C 0.69763 0.50667 0.39717 0.0
C1282 C 0.73582 0.52041 0.19342 0.0
C1283 C 0.71389 0.51869 0.169 0.0
C1284 C 0.7372 0.51504 0.24214 0.0
C1285 C 0.71667 0.50787 0.26748 0.0
C1286 C 0.695 0.50533 0.24248 0.0
C1287 C 0.69363 0.51069 0.19405 0.0
H1288 H 0.49768 0.74436 0.44532 0.0
H1289 H 0.56426 0.72549 0.37673 0.0
H1290 H 0.47761 0.74441 0.36852 0.0
H1291 H 0.54408 0.72405 0.30026 0.0
H1292 H 0.50736 0.74534 0.16302 0.0
H1293 H 0.52744 0.74641 0.2398 0.0
H1294 H 0.46262 0.72117 0.30763 0.0
H1295 H 0.44233 0.72157 0.23121 0.0
C1296 C 0.50796 0.73995 0.4138 0.0
C1297 C 0.53256 0.73504 0.41705 0.0
C1298 C 0.49642 0.73979 0.36964 0.0
C1299 C 0.5091 0.73422 0.32767 0.0
C1300 C 0.53371 0.72897 0.33131 0.0
C1301 C 0.54532 0.72962 0.37533 0.0
C1302 C 0.49745 0.74007 0.19444 0.0
C1303 C 0.47325 0.73349 0.19111 0.0
C1304 C 0.509 0.7405 0.23858 0.0
C1305 C 0.49676 0.73388 0.28044 0.0
C1306 C 0.47259 0.72694 0.27668 0.0
C1307 C 0.46094 0.72698 0.2327 0.0
H1308 H 0.28321 0.50548 0.13141 0.0
H1309 H 0.25727 0.44111 0.19916 0.0
H1310 H 0.2829 0.526 0.20801 0.0
H1311 H 0.2564 0.46175 0.27538 0.0
H1312 H 0.25515 0.56232 0.34319 0.0
H1313 H 0.25574 0.54173 0.2668 0.0
H1314 H 0.28235 0.47786 0.33536 0.0
H1315 H 0.28119 0.49826 0.41193 0.0
C1316 C 0.27732 0.49573 0.16258 0.0
C1317 C 0.27028 0.47163 0.15911 0.0
C1318 C 0.27702 0.50754 0.2065 0.0
C1319 C 0.26961 0.49556 0.24798 0.0
C1320 C 0.26257 0.47145 0.24438 0.0
C1321 C 0.26294 0.45964 0.20055 0.0
C1322 C 0.26109 0.54387 0.34201 0.0
C1323 C 0.26807 0.53195 0.38375 0.0
C1324 C 0.26159 0.5321 0.2981 0.0
C1325 C 0.26913 0.50812 0.29478 0.0
C1326 C 0.27611 0.49621 0.3366 0.0
C1327 C 0.27555 0.50796 0.38055 0.0
loop_
_geom_bond_atom_site_label_1
_geom_bond_atom_site_label_2
_geom_bond_distance
_geom_bond_site_symmetry_2
_ccdc_geom_bond_type
Co0 N4 2.148 . S
Co0 N10 2.128 . S
Co0 N20 2.194 . S
Co0 O25 2.351 . S
Co0 O26 2.155 . S
Co0 O27 2.096 1_554 S
C1 N4 1.301 . S
C1 N5 1.328 . S
C1 H6 0.930 . S
C2 C3 1.333 . S
C2 N4 1.317 1_556 S
C2 H7 0.930 . S
C3 C2 1.333 . S
C3 N5 1.350 1_556 S
C3 H29 0.931 . S
N4 Co0 2.148 . S
N4 C1 1.301 . S
N4 C2 1.317 1_554 S
N5 C1 1.328 . S
N5 C3 1.350 1_554 S
H6 C1 0.930 . S
H7 C2 0.930 . S
C8 O9 1.224 . S
C8 O27 1.247 . S
O9 C8 1.224 . S
N10 Co0 2.128 . S
N10 C11 1.355 . S
N10 C13 1.311 1_454 S
C11 N10 1.355 . S
C11 C12 1.363 1_455 S
C11 H23 0.929 . S
C12 C11 1.363 1_655 S
C12 N14 1.375 . S
C12 H30 0.931 . S
C13 N10 1.311 1_656 S
C13 N14 1.347 1_556 S
C13 H24 0.929 . S
N14 C12 1.375 . S
N14 C13 1.347 1_554 S
C15 C18 1.365 . S
C15 N20 1.328 . S
C15 H21 0.929 . S
C16 C17 1.362 1_556 S
C16 C19 1.378 . S
C16 H31 0.929 . S
C17 C16 1.362 1_554 S
C17 C18 1.366 . S
C18 C15 1.365 . S
C18 C17 1.366 . S
C18 H32 0.930 . S
C19 C16 1.378 . S
C19 N20 1.315 1_556 S
C19 H22 0.930 . S
N20 Co0 2.194 . S
N20 C15 1.328 . S
N20 C19 1.315 1_554 S
H21 C15 0.929 . S
H22 C19 0.930 . S
H23 C11 0.929 . S
H24 C13 0.929 . S
O25 Co0 2.351 . S
O25 C28 1.244 . S
O26 Co0 2.155 . S
O26 C28 1.240 . S
O27 Co0 2.096 1_556 S
O27 C8 1.247 . S
C28 O25 1.244 . S
C28 O26 1.240 . S
H29 C3 0.931 . S
H30 C12 0.931 . S
H31 C16 0.929 . S
H32 C18 0.930 . S
Co33 N37 2.148 . S
Co33 N43 2.128 . S
Co33 N53 2.194 . S
Co33 O58 2.351 . S
Co33 O59 2.155 . S
Co33 O60 2.096 1_554 S
C34 N37 1.301 . S
C34 N38 1.328 . S
C34 H39 0.930 . S
C35 C36 1.333 . S
C35 N37 1.317 1_556 S
C35 H40 0.930 . S
C36 C35 1.333 . S
C36 N38 1.350 1_556 S
C36 H62 0.931 . S
N37 Co33 2.148 . S
N37 C34 1.301 . S
N37 C35 1.317 1_554 S
N38 C34 1.328 . S
N38 C36 1.350 1_554 S
H39 C34 0.930 . S
H40 C35 0.930 . S
C41 O42 1.224 . S
C41 O60 1.247 . S
O42 C41 1.224 . S
N43 Co33 2.128 . S
N43 C44 1.355 . S
N43 C46 1.311 1_544 S
C44 N43 1.355 . S
C44 C45 1.363 1_545 S
C44 H56 0.929 . S
C45 C44 1.363 1_565 S
C45 N47 1.375 . S
C45 H63 0.931 . S
C46 N43 1.311 1_566 S
C46 N47 1.347 1_556 S
C46 H57 0.929 . S
N47 C45 1.375 . S
N47 C46 1.347 1_554 S
C48 C51 1.365 . S
C48 N53 1.328 . S
C48 H54 0.929 . S
C49 C50 1.362 1_556 S
C49 C52 1.378 . S
C49 H64 0.929 . S
C50 C49 1.362 1_554 S
C50 C51 1.366 . S
C51 C48 1.365 . S
C51 C50 1.366 . S
C51 H65 0.930 . S
C52 C49 1.378 . S
C52 N53 1.315 1_556 S
C52 H55 0.930 . S
N53 Co33 2.194 . S
N53 C48 1.328 . S
N53 C52 1.315 1_554 S
H54 C48 0.929 . S
H55 C52 0.930 . S
H56 C44 0.929 . S
H57 C46 0.929 . S
O58 Co33 2.351 . S
O58 C61 1.244 . S
O59 Co33 2.155 . S
O59 C61 1.240 . S
O60 Co33 2.096 1_556 S
O60 C41 1.247 . S
C61 O58 1.244 . S
C61 O59 1.240 . S
H62 C36 0.931 . S
H63 C45 0.931 . S
H64 C49 0.929 . S
H65 C51 0.930 . S
Co66 N70 2.148 . S
Co66 N76 2.128 . S
Co66 N86 2.194 . S
Co66 O91 2.351 . S
Co66 O92 2.155 . S
Co66 O93 2.096 1_554 S
C67 N70 1.301 . S
C67 N71 1.328 . S
C67 H72 0.930 . S
C68 C69 1.333 . S
C68 N70 1.317 1_556 S
C68 H73 0.930 . S
C69 C68 1.333 . S
C69 N71 1.350 1_556 S
C69 H95 0.931 . S
N70 Co66 2.148 . S
N70 C67 1.301 . S
N70 C68 1.317 1_554 S
N71 C67 1.328 . S
N71 C69 1.350 1_554 S
H72 C67 0.930 . S
H73 C68 0.930 . S
C74 O75 1.224 . S
C74 O93 1.247 . S
O75 C74 1.224 . S
N76 Co66 2.128 . S
N76 C77 1.355 . S
N76 C79 1.311 1_654 S
C77 N76 1.355 . S
C77 C78 1.363 1_655 S
C77 H89 0.929 . S
C78 C77 1.363 1_455 S
C78 N80 1.375 . S
C78 H96 0.931 . S
C79 N76 1.311 1_456 S
C79 N80 1.347 1_556 S
C79 H90 0.929 . S
N80 C78 1.375 . S
N80 C79 1.347 1_554 S
C81 C84 1.365 . S
C81 N86 1.328 . S
C81 H87 0.929 . S
C82 C83 1.362 1_556 S
C82 C85 1.378 . S
C82 H97 0.929 . S
C83 C82 1.362 1_554 S
C83 C84 1.366 . S
C84 C81 1.365 . S
C84 C83 1.366 . S
C84 H98 0.930 . S
C85 C82 1.378 . S
C85 N86 1.315 1_556 S
C85 H88 0.930 . S
N86 Co66 2.194 . S
N86 C81 1.328 . S
N86 C85 1.315 1_554 S
H87 C81 0.929 . S
H88 C85 0.930 . S
H89 C77 0.929 . S
H90 C79 0.929 . S
O91 Co66 2.351 . S
O91 C94 1.244 . S
O92 Co66 2.155 . S
O92 C94 1.240 . S
O93 Co66 2.096 1_556 S
O93 C74 1.247 . S
C94 O91 1.244 . S
C94 O92 1.240 . S
H95 C69 0.931 . S
H96 C78 0.931 . S
H97 C82 0.929 . S
H98 C84 0.930 . S
Co99 N103 2.148 . S
Co99 N109 2.128 . S
Co99 N119 2.194 . S
Co99 O124 2.351 . S
Co99 O125 2.155 . S
Co99 O126 2.096 1_554 S
C100 N103 1.301 . S
C100 N104 1.328 . S
C100 H105 0.930 . S
C101 C102 1.333 . S
C101 N103 1.317 1_556 S
C101 H106 0.930 . S
C102 C101 1.333 . S
C102 N104 1.350 1_556 S
C102 H128 0.931 . S
N103 Co99 2.148 . S
N103 C100 1.301 . S
N103 C101 1.317 1_554 S
N104 C100 1.328 . S
N104 C102 1.350 1_554 S
H105 C100 0.930 . S
H106 C101 0.930 . S
C107 O108 1.224 . S
C107 O126 1.247 . S
O108 C107 1.224 . S
N109 Co99 2.128 . S
N109 C110 1.355 . S
N109 C112 1.311 1_564 S
C110 N109 1.355 . S
C110 C111 1.363 1_565 S
C110 H122 0.929 . S
C111 C110 1.363 1_545 S
C111 N113 1.375 . S
C111 H129 0.931 . S
C112 N109 1.311 1_546 S
C112 N113 1.347 1_556 S
C112 H123 0.929 . S
N113 C111 1.375 . S
N113 C112 1.347 1_554 S
C114 C117 1.365 . S
C114 N119 1.328 . S
C114 H120 0.929 . S
C115 C116 1.362 1_556 S
C115 C118 1.378 . S
C115 H130 0.929 . S
C116 C115 1.362 1_554 S
C116 C117 1.366 . S
C117 C114 1.365 . S
C117 C116 1.366 . S
C117 H131 0.930 . S
C118 C115 1.378 . S
C118 N119 1.315 1_556 S
C118 H121 0.930 . S
N119 Co99 2.194 . S
N119 C114 1.328 . S
N119 C118 1.315 1_554 S
H120 C114 0.929 . S
H121 C118 0.930 . S
H122 C110 0.929 . S
H123 C112 0.929 . S
O124 Co99 2.351 . S
O124 C127 1.244 . S
O125 Co99 2.155 . S
O125 C127 1.240 . S
O126 Co99 2.096 1_556 S
O126 C107 1.247 . S
C127 O124 1.244 . S
C127 O125 1.240 . S
H128 C102 0.931 . S
H129 C111 0.931 . S
H130 C115 0.929 . S
H131 C117 0.930 . S
Co132 N136 2.148 . S
Co132 N142 2.128 . S
Co132 N152 2.194 . S
Co132 O157 2.351 . S
Co132 O158 2.155 . S
Co132 O159 2.096 . S
C133 N136 1.301 . S
C133 N137 1.328 . S
C133 H138 0.930 . S
C134 C135 1.333 . S
C134 N136 1.317 . S
C134 H139 0.930 . S
C135 C134 1.333 . S
C135 N137 1.350 . S
C135 H161 0.931 . S
N136 Co132 2.148 . S
N136 C133 1.301 . S
N136 C134 1.317 . S
N137 C133 1.328 . S
N137 C135 1.350 . S
H138 C133 0.930 . S
H139 C134 0.930 . S
C140 O141 1.224 . S
C140 O159 1.247 . S
O141 C140 1.224 . S
N142 Co132 2.128 . S
N142 C143 1.355 . S
N142 C145 1.311 1_455 S
C143 N142 1.355 . S
C143 C144 1.363 1_455 S
C143 H155 0.929 . S
C144 C143 1.363 1_655 S
C144 N146 1.375 . S
C144 H162 0.931 . S
C145 N142 1.311 1_655 S
C145 N146 1.347 . S
C145 H156 0.929 . S
N146 C144 1.375 . S
N146 C145 1.347 . S
C147 C150 1.365 . S
C147 N152 1.328 . S
C147 H153 0.929 . S
C148 C149 1.362 . S
C148 C151 1.378 . S
C148 H163 0.929 . S
C149 C148 1.362 . S
C149 C150 1.366 . S
C150 C147 1.365 . S
C150 C149 1.366 . S
C150 H164 0.930 . S
C151 C148 1.378 . S
C151 N152 1.315 . S
C151 H154 0.930 . S
N152 Co132 2.194 . S
N152 C147 1.328 . S
N152 C151 1.315 . S
H153 C147 0.929 . S
H154 C151 0.930 . S
H155 C143 0.929 . S
H156 C145 0.929 . S
O157 Co132 2.351 . S
O157 C160 1.244 . S
O158 Co132 2.155 . S
O158 C160 1.240 . S
O159 Co132 2.096 . S
O159 C140 1.247 . S
C160 O157 1.244 . S
C160 O158 1.240 . S
H161 C135 0.931 . S
H162 C144 0.931 . S
H163 C148 0.929 . S
H164 C150 0.930 . S
Co165 N169 2.148 . S
Co165 N175 2.128 . S
Co165 N185 2.194 . S
Co165 O190 2.351 . S
Co165 O191 2.155 . S
Co165 O192 2.096 . S
C166 N169 1.301 . S
C166 N170 1.328 . S
C166 H171 0.930 . S
C167 C168 1.333 . S
C167 N169 1.317 . S
C167 H172 0.930 . S
C168 C167 1.333 . S
C168 N170 1.350 . S
C168 H194 0.931 . S
N169 Co165 2.148 . S
N169 C166 1.301 . S
N169 C167 1.317 . S
N170 C166 1.328 . S
N170 C168 1.350 . S
H171 C166 0.930 . S
H172 C167 0.930 . S
C173 O174 1.224 . S
C173 O192 1.247 . S
O174 C173 1.224 . S
N175 Co165 2.128 . S
N175 C176 1.355 . S
N175 C178 1.311 1_545 S
C176 N175 1.355 . S
C176 C177 1.363 1_545 S
C176 H188 0.929 . S
C177 C176 1.363 1_565 S
C177 N179 1.375 . S
C177 H195 0.931 . S
C178 N175 1.311 1_565 S
C178 N179 1.347 . S
C178 H189 0.929 . S
N179 C177 1.375 . S
N179 C178 1.347 . S
C180 C183 1.365 . S
C180 N185 1.328 . S
C180 H186 0.929 . S
C181 C182 1.362 . S
C181 C184 1.378 . S
C181 H196 0.929 . S
C182 C181 1.362 . S
C182 C183 1.366 . S
C183 C180 1.365 . S
C183 C182 1.366 . S
C183 H197 0.930 . S
C184 C181 1.378 . S
C184 N185 1.315 . S
C184 H187 0.930 . S
N185 Co165 2.194 . S
N185 C180 1.328 . S
N185 C184 1.315 . S
H186 C180 0.929 . S
H187 C184 0.930 . S
H188 C176 0.929 . S
H189 C178 0.929 . S
O190 Co165 2.351 . S
O190 C193 1.244 . S
O191 Co165 2.155 . S
O191 C193 1.240 . S
O192 Co165 2.096 . S
O192 C173 1.247 . S
C193 O190 1.244 . S
C193 O191 1.240 . S
H194 C168 0.931 . S
H195 C177 0.931 . S
H196 C181 0.929 . S
H197 C183 0.930 . S
Co198 N202 2.148 . S
Co198 N208 2.128 . S
Co198 N218 2.194 . S
Co198 O223 2.351 . S
Co198 O224 2.155 . S
Co198 O225 2.096 . S
C199 N202 1.301 . S
C199 N203 1.328 . S
C199 H204 0.930 . S
C200 C201 1.333 . S
C200 N202 1.317 . S
C200 H205 0.930 . S
C201 C200 1.333 . S
C201 N203 1.350 . S
C201 H227 0.931 . S
N202 Co198 2.148 . S
N202 C199 1.301 . S
N202 C200 1.317 . S
N203 C199 1.328 . S
N203 C201 1.350 . S
H204 C199 0.930 . S
H205 C200 0.930 . S
C206 O207 1.224 . S
C206 O225 1.247 . S
O207 C206 1.224 . S
N208 Co198 2.128 . S
N208 C209 1.355 . S
N208 C211 1.311 1_655 S
C209 N208 1.355 . S
C209 C210 1.363 1_655 S
C209 H221 0.929 . S
C210 C209 1.363 1_455 S
C210 N212 1.375 . S
C210 H228 0.931 . S
C211 N208 1.311 1_455 S
C211 N212 1.347 . S
C211 H222 0.929 . S
N212 C210 1.375 . S
N212 C211 1.347 . S
C213 C216 1.365 . S
C213 N218 1.328 . S
C213 H219 0.929 . S
C214 C215 1.362 . S
C214 C217 1.378 . S
C214 H229 0.929 . S
C215 C214 1.362 . S
C215 C216 1.366 . S
C216 C213 1.365 . S
C216 C215 1.366 . S
C216 H230 0.930 . S
C217 C214 1.378 . S
C217 N218 1.315 . S
C217 H220 0.930 . S
N218 Co198 2.194 . S
N218 C213 1.328 . S
N218 C217 1.315 . S
H219 C213 0.929 . S
H220 C217 0.930 . S
H221 C209 0.929 . S
H222 C211 0.929 . S
O223 Co198 2.351 . S
O223 C226 1.244 . S
O224 Co198 2.155 . S
O224 C226 1.240 . S
O225 Co198 2.096 . S
O225 C206 1.247 . S
C226 O223 1.244 . S
C226 O224 1.240 . S
H227 C201 0.931 . S
H228 C210 0.931 . S
H229 C214 0.929 . S
H230 C216 0.930 . S
Co231 N235 2.148 . S
Co231 N241 2.128 . S
Co231 N251 2.194 . S
Co231 O256 2.351 . S
Co231 O257 2.155 . S
Co231 O258 2.096 . S
C232 N235 1.301 . S
C232 N236 1.328 . S
C232 H237 0.930 . S
C233 C234 1.333 . S
C233 N235 1.317 . S
C233 H238 0.930 . S
C234 C233 1.333 . S
C234 N236 1.350 . S
C234 H260 0.931 . S
N235 Co231 2.148 . S
N235 C232 1.301 . S
N235 C233 1.317 . S
N236 C232 1.328 . S
N236 C234 1.350 . S
H237 C232 0.930 . S
H238 C233 0.930 . S
C239 O240 1.224 . S
C239 O258 1.247 . S
O240 C239 1.224 . S
N241 Co231 2.128 . S
N241 C242 1.355 . S
N241 C244 1.311 1_565 S
C242 N241 1.355 . S
C242 C243 1.363 1_565 S
C242 H254 0.929 . S
C243 C242 1.363 1_545 S
C243 N245 1.375 . S
C243 H261 0.931 . S
C244 N241 1.311 1_545 S
C244 N245 1.347 . S
C244 H255 0.929 . S
N245 C243 1.375 . S
N245 C244 1.347 . S
C246 C249 1.365 . S
C246 N251 1.328 . S
C246 H252 0.929 . S
C247 C248 1.362 . S
C247 C250 1.378 . S
C247 H262 0.929 . S
C248 C247 1.362 . S
C248 C249 1.366 . S
C249 C246 1.365 . S
C249 C248 1.366 . S
C249 H263 0.930 . S
C250 C247 1.378 . S
C250 N251 1.315 . S
C250 H253 0.930 . S
N251 Co231 2.194 . S
N251 C246 1.328 . S
N251 C250 1.315 . S
H252 C246 0.929 . S
H253 C250 0.930 . S
H254 C242 0.929 . S
H255 C244 0.929 . S
O256 Co231 2.351 . S
O256 C259 1.244 . S
O257 Co231 2.155 . S
O257 C259 1.240 . S
O258 Co231 2.096 . S
O258 C239 1.247 . S
C259 O256 1.244 . S
C259 O257 1.240 . S
H260 C234 0.931 . S
H261 C243 0.931 . S
H262 C247 0.929 . S
H263 C249 0.930 . S
Co264 N268 2.148 . S
Co264 N274 2.128 . S
Co264 N284 2.194 . S
Co264 O289 2.351 . S
Co264 O290 2.155 . S
Co264 O291 2.096 . S
C265 N268 1.301 . S
C265 N269 1.328 . S
C265 H270 0.930 . S
C266 C267 1.333 . S
C266 N268 1.317 . S
C266 H271 0.930 . S
C267 C266 1.333 . S
C267 N269 1.350 . S
C267 H293 0.931 . S
N268 Co264 2.148 . S
N268 C265 1.301 . S
N268 C266 1.317 . S
N269 C265 1.328 . S
N269 C267 1.350 . S
H270 C265 0.930 . S
H271 C266 0.930 . S
C272 O273 1.224 . S
C272 O291 1.247 . S
O273 C272 1.224 . S
N274 Co264 2.128 . S
N274 C275 1.355 . S
N274 C277 1.311 . S
C275 N274 1.355 . S
C275 C276 1.363 . S
C275 H287 0.929 . S
C276 C275 1.363 . S
C276 N278 1.375 . S
C276 H294 0.931 . S
C277 N274 1.311 . S
C277 N278 1.347 . S
C277 H288 0.929 . S
N278 C276 1.375 . S
N278 C277 1.347 . S
C279 C282 1.365 . S
C279 N284 1.328 . S
C279 H285 0.929 . S
C280 C281 1.362 . S
C280 C283 1.378 . S
C280 H295 0.929 . S
C281 C280 1.362 . S
C281 C282 1.366 . S
C282 C279 1.365 . S
C282 C281 1.366 . S
C282 H296 0.930 . S
C283 C280 1.378 . S
C283 N284 1.315 . S
C283 H286 0.930 . S
N284 Co264 2.194 . S
N284 C279 1.328 . S
N284 C283 1.315 . S
H285 C279 0.929 . S
H286 C283 0.930 . S
H287 C275 0.929 . S
H288 C277 0.929 . S
O289 Co264 2.351 . S
O289 C292 1.244 . S
O290 Co264 2.155 . S
O290 C292 1.240 . S
O291 Co264 2.096 . S
O291 C272 1.247 . S
C292 O289 1.244 . S
C292 O290 1.240 . S
H293 C267 0.931 . S
H294 C276 0.931 . S
H295 C280 0.929 . S
H296 C282 0.930 . S
Co297 N301 2.148 . S
Co297 N307 2.128 . S
Co297 N317 2.194 . S
Co297 O322 2.351 . S
Co297 O323 2.155 . S
Co297 O324 2.096 . S
C298 N301 1.301 . S
C298 N302 1.328 . S
C298 H303 0.930 . S
C299 C300 1.333 . S
C299 N301 1.317 . S
C299 H304 0.930 . S
C300 C299 1.333 . S
C300 N302 1.350 . S
C300 H326 0.931 . S
N301 Co297 2.148 . S
N301 C298 1.301 . S
N301 C299 1.317 . S
N302 C298 1.328 . S
N302 C300 1.350 . S
H303 C298 0.930 . S
H304 C299 0.930 . S
C305 O306 1.224 . S
C305 O324 1.247 . S
O306 C305 1.224 . S
N307 Co297 2.128 . S
N307 C308 1.355 . S
N307 C310 1.311 . S
C308 N307 1.355 . S
C308 C309 1.363 . S
C308 H320 0.929 . S
C309 C308 1.363 . S
C309 N311 1.375 . S
C309 H327 0.931 . S
C310 N307 1.311 . S
C310 N311 1.347 . S
C310 H321 0.929 . S
N311 C309 1.375 . S
N311 C310 1.347 . S
C312 C315 1.365 . S
C312 N317 1.328 . S
C312 H318 0.929 . S
C313 C314 1.362 . S
C313 C316 1.378 . S
C313 H328 0.929 . S
C314 C313 1.362 . S
C314 C315 1.366 . S
C315 C312 1.365 . S
C315 C314 1.366 . S
C315 H329 0.930 . S
C316 C313 1.378 . S
C316 N317 1.315 . S
C316 H319 0.930 . S
N317 Co297 2.194 . S
N317 C312 1.328 . S
N317 C316 1.315 . S
H318 C312 0.929 . S
H319 C316 0.930 . S
H320 C308 0.929 . S
H321 C310 0.929 . S
O322 Co297 2.351 . S
O322 C325 1.244 . S
O323 Co297 2.155 . S
O323 C325 1.240 . S
O324 Co297 2.096 . S
O324 C305 1.247 . S
C325 O322 1.244 . S
C325 O323 1.240 . S
H326 C300 0.931 . S
H327 C309 0.931 . S
H328 C313 0.929 . S
H329 C315 0.930 . S
Co330 N334 2.148 . S
Co330 N340 2.128 . S
Co330 N350 2.194 . S
Co330 O355 2.351 . S
Co330 O356 2.155 . S
Co330 O357 2.096 . S
C331 N334 1.301 . S
C331 N335 1.328 . S
C331 H336 0.930 . S
C332 C333 1.333 . S
C332 N334 1.317 . S
C332 H337 0.930 . S
C333 C332 1.333 . S
C333 N335 1.350 . S
C333 H359 0.931 . S
N334 Co330 2.148 . S
N334 C331 1.301 . S
N334 C332 1.317 . S
N335 C331 1.328 . S
N335 C333 1.350 . S
H336 C331 0.930 . S
H337 C332 0.930 . S
C338 O339 1.224 . S
C338 O357 1.247 . S
O339 C338 1.224 . S
N340 Co330 2.128 . S
N340 C341 1.355 . S
N340 C343 1.311 . S
C341 N340 1.355 . S
C341 C342 1.363 . S
C341 H353 0.929 . S
C342 C341 1.363 . S
C342 N344 1.375 . S
C342 H360 0.931 . S
C343 N340 1.311 . S
C343 N344 1.347 . S
C343 H354 0.929 . S
N344 C342 1.375 . S
N344 C343 1.347 . S
C345 C348 1.365 . S
C345 N350 1.328 . S
C345 H351 0.929 . S
C346 C347 1.362 . S
C346 C349 1.378 . S
C346 H361 0.929 . S
C347 C346 1.362 . S
C347 C348 1.366 . S
C348 C345 1.365 . S
C348 C347 1.366 . S
C348 H362 0.930 . S
C349 C346 1.378 . S
C349 N350 1.315 . S
C349 H352 0.930 . S
N350 Co330 2.194 . S
N350 C345 1.328 . S
N350 C349 1.315 . S
H351 C345 0.929 . S
H352 C349 0.930 . S
H353 C341 0.929 . S
H354 C343 0.929 . S
O355 Co330 2.351 . S
O355 C358 1.244 . S
O356 Co330 2.155 . S
O356 C358 1.240 . S
O357 Co330 2.096 . S
O357 C338 1.247 . S
C358 O355 1.244 . S
C358 O356 1.240 . S
H359 C333 0.931 . S
H360 C342 0.931 . S
H361 C346 0.929 . S
H362 C348 0.930 . S
Co363 N367 2.148 . S
Co363 N373 2.128 . S
Co363 N383 2.194 . S
Co363 O388 2.351 . S
Co363 O389 2.155 . S
Co363 O390 2.096 . S
C364 N367 1.301 . S
C364 N368 1.328 . S
C364 H369 0.930 . S
C365 C366 1.333 . S
C365 N367 1.317 . S
C365 H370 0.930 . S
C366 C365 1.333 . S
C366 N368 1.350 . S
C366 H392 0.931 . S
N367 Co363 2.148 . S
N367 C364 1.301 . S
N367 C365 1.317 . S
N368 C364 1.328 . S
N368 C366 1.350 . S
H369 C364 0.930 . S
H370 C365 0.930 . S
C371 O372 1.224 . S
C371 O390 1.247 . S
O372 C371 1.224 . S
N373 Co363 2.128 . S
N373 C374 1.355 . S
N373 C376 1.311 . S
C374 N373 1.355 . S
C374 C375 1.363 . S
C374 H386 0.929 . S
C375 C374 1.363 . S
C375 N377 1.375 . S
C375 H393 0.931 . S
C376 N373 1.311 . S
C376 N377 1.347 . S
C376 H387 0.929 . S
N377 C375 1.375 . S
N377 C376 1.347 . S
C378 C381 1.365 . S
C378 N383 1.328 . S
C378 H384 0.929 . S
C379 C380 1.362 . S
C379 C382 1.378 . S
C379 H394 0.929 . S
C380 C379 1.362 . S
C380 C381 1.366 . S
C381 C378 1.365 . S
C381 C380 1.366 . S
C381 H395 0.930 . S
C382 C379 1.378 . S
C382 N383 1.315 . S
C382 H385 0.930 . S
N383 Co363 2.194 . S
N383 C378 1.328 . S
N383 C382 1.315 . S
H384 C378 0.929 . S
H385 C382 0.930 . S
H386 C374 0.929 . S
H387 C376 0.929 . S
O388 Co363 2.351 . S
O388 C391 1.244 . S
O389 Co363 2.155 . S
O389 C391 1.240 . S
O390 Co363 2.096 . S
O390 C371 1.247 . S
C391 O388 1.244 . S
C391 O389 1.240 . S
H392 C366 0.931 . S
H393 C375 0.931 . S
H394 C379 0.929 . S
H395 C381 0.930 . S
Co396 N400 2.148 . S
Co396 N406 2.128 . S
Co396 N416 2.194 . S
Co396 O421 2.351 1_554 S
Co396 O422 2.155 1_554 S
Co396 O423 2.096 . S
C397 N400 1.301 . S
C397 N401 1.328 . S
C397 H402 0.918 1_554 S
C398 C399 1.333 . S
C398 N400 1.317 . S
C398 H403 0.930 . S
C399 C398 1.333 . S
C399 N401 1.350 . S
C399 H425 0.931 . S
N400 Co396 2.148 . S
N400 C397 1.301 . S
N400 C398 1.317 . S
N401 C397 1.328 . S
N401 C399 1.350 . S
H402 C397 0.918 1_556 S
H403 C398 0.930 . S
C404 O405 1.224 . S
C404 O423 1.247 . S
O405 C404 1.224 . S
N406 Co396 2.128 . S
N406 C407 1.355 . S
N406 C409 1.311 . S
C407 N406 1.355 . S
C407 C408 1.363 . S
C407 H419 0.929 1_554 S
C408 C407 1.363 . S
C408 N410 1.375 . S
C408 H426 0.931 . S
C409 N406 1.311 . S
C409 N410 1.347 . S
C409 H420 0.929 . S
N410 C408 1.375 . S
N410 C409 1.347 . S
C411 C414 1.365 . S
C411 N416 1.328 . S
C411 H417 0.929 1_554 S
C412 C413 1.362 . S
C412 C415 1.378 . S
C412 H427 0.929 . S
C413 C412 1.362 . S
C413 C414 1.366 . S
C414 C411 1.365 . S
C414 C413 1.366 . S
C414 H428 0.930 1_554 S
C415 C412 1.378 . S
C415 N416 1.315 . S
C415 H418 0.930 . S
N416 Co396 2.194 . S
N416 C411 1.328 . S
N416 C415 1.315 . S
H417 C411 0.929 1_556 S
H418 C415 0.930 . S
H419 C407 0.929 1_556 S
H420 C409 0.929 . S
O421 Co396 2.351 1_556 S
O421 C424 1.244 . S
O422 Co396 2.155 1_556 S
O422 C424 1.240 . S
O423 Co396 2.096 . S
O423 C404 1.247 . S
C424 O421 1.244 . S
C424 O422 1.240 . S
H425 C399 0.931 . S
H426 C408 0.931 . S
H427 C412 0.929 . S
H428 C414 0.930 1_556 S
Co429 N433 2.148 . S
Co429 N439 2.128 . S
Co429 N449 2.194 . S
Co429 O454 2.351 1_554 S
Co429 O455 2.155 1_554 S
Co429 O456 2.096 . S
C430 N433 1.301 . S
C430 N434 1.328 . S
C430 H435 0.918 1_554 S
C431 C432 1.333 . S
C431 N433 1.317 . S
C431 H436 0.930 . S
C432 C431 1.333 . S
C432 N434 1.350 . S
C432 H458 0.931 . S
N433 Co429 2.148 . S
N433 C430 1.301 . S
N433 C431 1.317 . S
N434 C430 1.328 . S
N434 C432 1.350 . S
H435 C430 0.918 1_556 S
H436 C431 0.930 . S
C437 O438 1.224 . S
C437 O456 1.247 . S
O438 C437 1.224 . S
N439 Co429 2.128 . S
N439 C440 1.355 . S
N439 C442 1.311 . S
C440 N439 1.355 . S
C440 C441 1.363 . S
C440 H452 0.929 1_554 S
C441 C440 1.363 . S
C441 N443 1.375 . S
C441 H459 0.931 . S
C442 N439 1.311 . S
C442 N443 1.347 . S
C442 H453 0.929 . S
N443 C441 1.375 . S
N443 C442 1.347 . S
C444 C447 1.365 . S
C444 N449 1.328 . S
C444 H450 0.929 1_554 S
C445 C446 1.362 . S
C445 C448 1.378 . S
C445 H460 0.929 . S
C446 C445 1.362 . S
C446 C447 1.366 . S
C447 C444 1.365 . S
C447 C446 1.366 . S
C447 H461 0.930 1_554 S
C448 C445 1.378 . S
C448 N449 1.315 . S
C448 H451 0.930 . S
N449 Co429 2.194 . S
N449 C444 1.328 . S
N449 C448 1.315 . S
H450 C444 0.929 1_556 S
H451 C448 0.930 . S
H452 C440 0.929 1_556 S
H453 C442 0.929 . S
O454 Co429 2.351 1_556 S
O454 C457 1.244 . S
O455 Co429 2.155 1_556 S
O455 C457 1.240 . S
O456 Co429 2.096 . S
O456 C437 1.247 . S
C457 O454 1.244 . S
C457 O455 1.240 . S
H458 C432 0.931 . S
H459 C441 0.931 . S
H460 C445 0.929 . S
H461 C447 0.930 1_556 S
Co462 N466 2.148 . S
Co462 N472 2.128 . S
Co462 N482 2.194 . S
Co462 O487 2.351 1_554 S
Co462 O488 2.155 1_554 S
Co462 O489 2.096 . S
C463 N466 1.301 . S
C463 N467 1.328 . S
C463 H468 0.918 1_554 S
C464 C465 1.333 . S
C464 N466 1.317 . S
C464 H469 0.930 . S
C465 C464 1.333 . S
C465 N467 1.350 . S
C465 H491 0.931 . S
N466 Co462 2.148 . S
N466 C463 1.301 . S
N466 C464 1.317 . S
N467 C463 1.328 . S
N467 C465 1.350 . S
H468 C463 0.918 1_556 S
H469 C464 0.930 . S
C470 O471 1.224 . S
C470 O489 1.247 . S
O471 C470 1.224 . S
N472 Co462 2.128 . S
N472 C473 1.355 . S
N472 C475 1.311 . S
C473 N472 1.355 . S
C473 C474 1.363 . S
C473 H485 0.929 1_554 S
C474 C473 1.363 . S
C474 N476 1.375 . S
C474 H492 0.931 . S
C475 N472 1.311 . S
C475 N476 1.347 . S
C475 H486 0.929 . S
N476 C474 1.375 . S
N476 C475 1.347 . S
C477 C480 1.365 . S
C477 N482 1.328 . S
C477 H483 0.929 1_554 S
C478 C479 1.362 . S
C478 C481 1.378 . S
C478 H493 0.929 . S
C479 C478 1.362 . S
C479 C480 1.366 . S
C480 C477 1.365 . S
C480 C479 1.366 . S
C480 H494 0.930 1_554 S
C481 C478 1.378 . S
C481 N482 1.315 . S
C481 H484 0.930 . S
N482 Co462 2.194 . S
N482 C477 1.328 . S
N482 C481 1.315 . S
H483 C477 0.929 1_556 S
H484 C481 0.930 . S
H485 C473 0.929 1_556 S
H486 C475 0.929 . S
O487 Co462 2.351 1_556 S
O487 C490 1.244 . S
O488 Co462 2.155 1_556 S
O488 C490 1.240 . S
O489 Co462 2.096 . S
O489 C470 1.247 . S
C490 O487 1.244 . S
C490 O488 1.240 . S
H491 C465 0.931 . S
H492 C474 0.931 . S
H493 C478 0.929 . S
H494 C480 0.930 1_556 S
Co495 N499 2.148 . S
Co495 N505 2.128 . S
Co495 N515 2.194 . S
Co495 O520 2.351 1_554 S
Co495 O521 2.155 1_554 S
Co495 O522 2.096 . S
C496 N499 1.301 . S
C496 N500 1.328 . S
C496 H501 0.918 1_554 S
C497 C498 1.333 . S
C497 N499 1.317 . S
C497 H502 0.930 . S
C498 C497 1.333 . S
C498 N500 1.350 . S
C498 H524 0.931 . S
N499 Co495 2.148 . S
N499 C496 1.301 . S
N499 C497 1.317 . S
N500 C496 1.328 . S
N500 C498 1.350 . S
H501 C496 0.918 1_556 S
H502 C497 0.930 . S
C503 O504 1.224 . S
C503 O522 1.247 . S
O504 C503 1.224 . S
N505 Co495 2.128 . S
N505 C506 1.355 . S
N505 C508 1.311 . S
C506 N505 1.355 . S
C506 C507 1.363 . S
C506 H518 0.929 1_554 S
C507 C506 1.363 . S
C507 N509 1.375 . S
C507 H525 0.931 . S
C508 N505 1.311 . S
C508 N509 1.347 . S
C508 H519 0.929 . S
N509 C507 1.375 . S
N509 C508 1.347 . S
C510 C513 1.365 . S
C510 N515 1.328 . S
C510 H516 0.929 1_554 S
C511 C512 1.362 . S
C511 C514 1.378 . S
C511 H526 0.929 . S
C512 C511 1.362 . S
C512 C513 1.366 . S
C513 C510 1.365 . S
C513 C512 1.366 . S
C513 H527 0.930 1_554 S
C514 C511 1.378 . S
C514 N515 1.315 . S
C514 H517 0.930 . S
N515 Co495 2.194 . S
N515 C510 1.328 . S
N515 C514 1.315 . S
H516 C510 0.929 1_556 S
H517 C514 0.930 . S
H518 C506 0.929 1_556 S
H519 C508 0.929 . S
O520 Co495 2.351 1_556 S
O520 C523 1.244 . S
O521 Co495 2.155 1_556 S
O521 C523 1.240 . S
O522 Co495 2.096 . S
O522 C503 1.247 . S
C523 O520 1.244 . S
C523 O521 1.240 . S
H524 C498 0.931 . S
H525 C507 0.931 . S
H526 C511 0.929 . S
H527 C513 0.930 1_556 S
H528 C536 0.950 . S
H529 C541 0.950 . S
H530 C538 0.950 . S
H531 C540 0.950 . S
H532 C542 0.950 . S
H533 C544 0.950 . S
H534 C546 0.950 . S
H535 C547 0.950 . S
C536 H528 0.950 . S
C536 C537 1.386 . S
C536 C538 1.391 . S
C537 C536 1.386 . S
C537 C541 1.393 1_554 S
C538 H530 0.950 . S
C538 C536 1.391 . S
C538 C539 1.400 . S
C539 C538 1.400 . S
C539 C540 1.398 1_554 S
C539 C545 1.491 . S
C540 H531 0.950 . S
C540 C539 1.398 1_556 S
C540 C541 1.391 . S
C541 H529 0.950 . S
C541 C537 1.393 1_556 S
C541 C540 1.391 . S
C542 H532 0.950 . S
C542 C543 1.386 1_556 S
C542 C544 1.391 . S
C543 C542 1.386 1_554 S
C543 C547 1.393 . S
C544 H533 0.950 . S
C544 C542 1.391 . S
C544 C545 1.400 1_556 S
C545 C539 1.491 . S
C545 C544 1.400 1_554 S
C545 C546 1.398 . S
C546 H534 0.950 . S
C546 C545 1.398 . S
C546 C547 1.391 . S
C547 H535 0.950 . S
C547 C543 1.393 . S
C547 C546 1.391 . S
H548 C556 0.950 . S
H549 C561 0.950 . S
H550 C558 0.950 . S
H551 C560 0.950 . S
H552 C562 0.950 . S
H553 C564 0.950 . S
H554 C566 0.950 . S
H555 C567 0.950 . S
C556 H548 0.950 . S
C556 C557 1.386 1_556 S
C556 C558 1.391 . S
C557 C556 1.386 1_554 S
C557 C561 1.393 . S
C558 H550 0.950 . S
C558 C556 1.391 . S
C558 C559 1.400 1_556 S
C559 C558 1.400 1_554 S
C559 C560 1.398 . S
C559 C565 1.491 . S
C560 H551 0.950 . S
C560 C559 1.398 . S
C560 C561 1.391 . S
C561 H549 0.950 . S
C561 C557 1.393 . S
C561 C560 1.391 . S
C562 H552 0.950 . S
C562 C563 1.386 . S
C562 C564 1.391 . S
C563 C562 1.386 . S
C563 C567 1.393 1_554 S
C564 H553 0.950 . S
C564 C562 1.391 . S
C564 C565 1.400 . S
C565 C559 1.491 . S
C565 C564 1.400 . S
C565 C566 1.398 1_554 S
C566 H554 0.950 . S
C566 C565 1.398 1_556 S
C566 C567 1.391 . S
C567 H555 0.950 . S
C567 C563 1.393 1_556 S
C567 C566 1.391 . S
H568 C576 0.950 . S
H569 C581 0.950 . S
H570 C578 0.950 . S
H571 C580 0.950 . S
H572 C582 0.951 . S
H573 C584 0.950 . S
H574 C586 0.950 . S
H575 C587 0.950 . S
C576 H568 0.950 . S
C576 C577 1.386 . S
C576 C578 1.391 . S
C577 C576 1.386 . S
C577 C581 1.393 . S
C578 H570 0.950 . S
C578 C576 1.391 . S
C578 C579 1.400 . S
C579 C578 1.400 . S
C579 C580 1.398 . S
C579 C585 1.491 . S
C580 H571 0.950 . S
C580 C579 1.398 . S
C580 C581 1.391 . S
C581 H569 0.950 . S
C581 C577 1.393 . S
C581 C580 1.391 . S
C582 H572 0.951 . S
C582 C583 1.386 . S
C582 C584 1.391 . S
C583 C582 1.386 . S
C583 C587 1.393 . S
C584 H573 0.950 . S
C584 C582 1.391 . S
C584 C585 1.400 . S
C585 C579 1.491 . S
C585 C584 1.400 . S
C585 C586 1.398 . S
C586 H574 0.950 . S
C586 C585 1.398 . S
C586 C587 1.391 . S
C587 H575 0.950 . S
C587 C583 1.393 . S
C587 C586 1.391 . S
H588 C596 0.950 . S
H589 C601 0.950 . S
H590 C598 0.950 . S
H591 C600 0.950 . S
H592 C602 0.950 . S
H593 C604 0.950 . S
H594 C606 0.950 . S
H595 C607 0.950 . S
C596 H588 0.950 . S
C596 C597 1.386 . S
C596 C598 1.391 . S
C597 C596 1.386 . S
C597 C601 1.393 1_554 S
C598 H590 0.950 . S
C598 C596 1.391 . S
C598 C599 1.400 . S
C599 C598 1.400 . S
C599 C600 1.398 1_554 S
C599 C605 1.491 . S
C600 H591 0.950 . S
C600 C599 1.398 1_556 S
C600 C601 1.391 . S
C601 H589 0.950 . S
C601 C597 1.393 1_556 S
C601 C600 1.391 . S
C602 H592 0.950 . S
C602 C603 1.386 1_556 S
C602 C604 1.391 . S
C603 C602 1.386 1_554 S
C603 C607 1.393 . S
C604 H593 0.950 . S
C604 C602 1.391 . S
C604 C605 1.400 1_556 S
C605 C599 1.491 . S
C605 C604 1.400 1_554 S
C605 C606 1.398 . S
C606 H594 0.950 . S
C606 C605 1.398 . S
C606 C607 1.391 . S
C607 H595 0.950 . S
C607 C603 1.393 . S
C607 C606 1.391 . S
H608 C616 0.950 . S
H609 C621 0.950 . S
H610 C618 0.950 . S
H611 C620 0.950 . S
H612 C622 0.950 . S
H613 C624 0.950 . S
H614 C626 0.950 . S
H615 C627 0.950 . S
C616 H608 0.950 . S
C616 C617 1.386 . S
C616 C618 1.391 . S
C617 C616 1.386 . S
C617 C621 1.393 . S
C618 H610 0.950 . S
C618 C616 1.391 . S
C618 C619 1.400 . S
C619 C618 1.400 . S
C619 C620 1.398 . S
C619 C625 1.491 . S
C620 H611 0.950 . S
C620 C619 1.398 . S
C620 C621 1.391 . S
C621 H609 0.950 . S
C621 C617 1.393 . S
C621 C620 1.391 . S
C622 H612 0.950 . S
C622 C623 1.386 . S
C622 C624 1.391 . S
C623 C622 1.386 . S
C623 C627 1.393 . S
C624 H613 0.950 . S
C624 C622 1.391 . S
C624 C625 1.400 . S
C625 C619 1.491 . S
C625 C624 1.400 . S
C625 C626 1.398 . S
C626 H614 0.950 . S
C626 C625 1.398 . S
C626 C627 1.391 . S
C627 H615 0.950 . S
C627 C623 1.393 . S
C627 C626 1.391 . S
H628 C636 0.950 . S
H629 C641 0.950 . S
H630 C638 0.950 . S
H631 C640 0.950 . S
H632 C642 0.950 . S
H633 C644 0.950 . S
H634 C646 0.950 . S
H635 C647 0.950 . S
C636 H628 0.950 . S
C636 C637 1.386 . S
C636 C638 1.391 . S
C637 C636 1.386 . S
C637 C641 1.393 . S
C638 H630 0.950 . S
C638 C636 1.391 . S
C638 C639 1.400 . S
C639 C638 1.400 . S
C639 C640 1.398 . S
C639 C645 1.491 . S
C640 H631 0.950 . S
C640 C639 1.398 . S
C640 C641 1.391 . S
C641 H629 0.950 . S
C641 C637 1.393 . S
C641 C640 1.391 . S
C642 H632 0.950 . S
C642 C643 1.386 . S
C642 C644 1.391 . S
C643 C642 1.386 . S
C643 C647 1.393 . S
C644 H633 0.950 . S
C644 C642 1.391 . S
C644 C645 1.400 . S
C645 C639 1.491 . S
C645 C644 1.400 . S
C645 C646 1.398 . S
C646 H634 0.950 . S
C646 C645 1.398 . S
C646 C647 1.391 . S
C647 H635 0.950 . S
C647 C643 1.393 . S
C647 C646 1.391 . S
H648 C656 0.950 . S
H649 C661 0.950 . S
H650 C658 0.950 . S
H651 C660 0.950 . S
H652 C662 0.950 . S
H653 C664 0.950 . S
H654 C666 0.950 . S
H655 C667 0.950 . S
C656 H648 0.950 . S
C656 C657 1.386 . S
C656 C658 1.391 . S
C657 C656 1.386 . S
C657 C661 1.393 . S
C658 H650 0.950 . S
C658 C656 1.391 . S
C658 C659 1.400 . S
C659 C658 1.400 . S
C659 C660 1.398 . S
C659 C665 1.491 . S
C660 H651 0.950 . S
C660 C659 1.398 . S
C660 C661 1.391 . S
C661 H649 0.950 . S
C661 C657 1.393 . S
C661 C660 1.391 . S
C662 H652 0.950 . S
C662 C663 1.386 . S
C662 C664 1.391 . S
C663 C662 1.386 . S
C663 C667 1.393 . S
C664 H653 0.950 . S
C664 C662 1.391 . S
C664 C665 1.400 . S
C665 C659 1.491 . S
C665 C664 1.400 . S
C665 C666 1.398 . S
C666 H654 0.950 . S
C666 C665 1.398 . S
C666 C667 1.391 . S
C667 H655 0.950 . S
C667 C663 1.393 . S
C667 C666 1.391 . S
H668 C676 0.950 . S
H669 C681 0.950 . S
H670 C678 0.950 . S
H671 C680 0.950 . S
H672 C682 0.950 . S
H673 C684 0.950 . S
H674 C686 0.950 . S
H675 C687 0.950 . S
C676 H668 0.950 . S
C676 C677 1.386 . S
C676 C678 1.391 . S
C677 C676 1.386 . S
C677 C681 1.393 . S
C678 H670 0.950 . S
C678 C676 1.391 . S
C678 C679 1.400 . S
C679 C678 1.400 . S
C679 C680 1.398 . S
C679 C685 1.491 . S
C680 H671 0.950 . S
C680 C679 1.398 . S
C680 C681 1.391 . S
C681 H669 0.950 . S
C681 C677 1.393 . S
C681 C680 1.391 . S
C682 H672 0.950 . S
C682 C683 1.386 . S
C682 C684 1.391 . S
C683 C682 1.386 . S
C683 C687 1.393 . S
C684 H673 0.950 . S
C684 C682 1.391 . S
C684 C685 1.400 . S
C685 C679 1.491 . S
C685 C684 1.400 . S
C685 C686 1.398 . S
C686 H674 0.950 . S
C686 C685 1.398 . S
C686 C687 1.391 . S
C687 H675 0.950 . S
C687 C683 1.393 . S
C687 C686 1.391 . S
H688 C696 0.950 . S
H689 C701 0.950 . S
H690 C698 0.950 . S
H691 C700 0.950 . S
H692 C702 0.950 . S
H693 C704 0.950 . S
H694 C706 0.950 . S
H695 C707 0.950 . S
C696 H688 0.950 . S
C696 C697 1.386 1_554 S
C696 C698 1.391 . S
C697 C696 1.386 1_556 S
C697 C701 1.393 . S
C698 H690 0.950 . S
C698 C696 1.391 . S
C698 C699 1.400 1_554 S
C699 C698 1.400 1_556 S
C699 C700 1.398 . S
C699 C705 1.491 . S
C700 H691 0.950 . S
C700 C699 1.398 . S
C700 C701 1.391 . S
C701 H689 0.950 . S
C701 C697 1.393 . S
C701 C700 1.391 . S
C702 H692 0.950 . S
C702 C703 1.386 1_556 S
C702 C704 1.391 . S
C703 C702 1.386 1_554 S
C703 C707 1.393 . S
C704 H693 0.950 . S
C704 C702 1.391 . S
C704 C705 1.400 . S
C705 C699 1.491 . S
C705 C704 1.400 . S
C705 C706 1.398 1_556 S
C706 H694 0.950 . S
C706 C705 1.398 1_554 S
C706 C707 1.391 . S
C707 H695 0.950 . S
C707 C703 1.393 . S
C707 C706 1.391 . S
H708 C716 0.950 . S
H709 C721 0.950 . S
H710 C718 0.950 . S
H711 C720 0.950 . S
H712 C722 0.950 . S
H713 C724 0.950 . S
H714 C726 0.950 . S
H715 C727 0.950 . S
C716 H708 0.950 . S
C716 C717 1.386 1_554 S
C716 C718 1.391 . S
C717 C716 1.386 1_556 S
C717 C721 1.393 . S
C718 H710 0.950 . S
C718 C716 1.391 . S
C718 C719 1.400 1_554 S
C719 C718 1.400 1_556 S
C719 C720 1.398 . S
C719 C725 1.491 . S
C720 H711 0.950 . S
C720 C719 1.398 . S
C720 C721 1.391 . S
C721 H709 0.950 . S
C721 C717 1.393 . S
C721 C720 1.391 . S
C722 H712 0.950 . S
C722 C723 1.386 1_556 S
C722 C724 1.391 . S
C723 C722 1.386 1_554 S
C723 C727 1.393 . S
C724 H713 0.950 . S
C724 C722 1.391 . S
C724 C725 1.400 . S
C725 C719 1.491 . S
C725 C724 1.400 . S
C725 C726 1.398 1_556 S
C726 H714 0.950 . S
C726 C725 1.398 1_554 S
C726 C727 1.391 . S
C727 H715 0.950 . S
C727 C723 1.393 . S
C727 C726 1.391 . S
H728 C736 0.950 . S
H729 C741 0.950 . S
H730 C738 0.950 . S
H731 C740 0.950 . S
H732 C742 0.950 . S
H733 C744 0.950 . S
H734 C746 0.950 . S
H735 C747 0.950 . S
C736 H728 0.950 . S
C736 C737 1.386 . S
C736 C738 1.391 . S
C737 C736 1.386 . S
C737 C741 1.393 1_554 S
C738 H730 0.950 . S
C738 C736 1.391 . S
C738 C739 1.400 1_554 S
C739 C738 1.400 1_556 S
C739 C740 1.398 . S
C739 C745 1.491 . S
C740 H731 0.950 . S
C740 C739 1.398 . S
C740 C741 1.391 . S
C741 H729 0.950 . S
C741 C737 1.393 1_556 S
C741 C740 1.391 . S
C742 H732 0.950 . S
C742 C743 1.386 . S
C742 C744 1.391 . S
C743 C742 1.386 . S
C743 C747 1.393 1_556 S
C744 H733 0.950 . S
C744 C742 1.391 . S
C744 C745 1.400 . S
C745 C739 1.491 . S
C745 C744 1.400 . S
C745 C746 1.398 1_556 S
C746 H734 0.950 . S
C746 C745 1.398 1_554 S
C746 C747 1.391 . S
C747 H735 0.950 . S
C747 C743 1.393 1_554 S
C747 C746 1.391 . S
H748 C756 0.950 . S
H749 C761 0.950 . S
H750 C758 0.950 . S
H751 C760 0.950 . S
H752 C762 0.950 . S
H753 C764 0.950 . S
H754 C766 0.950 . S
H755 C767 0.950 . S
C756 H748 0.950 . S
C756 C757 1.386 . S
C756 C758 1.391 . S
C757 C756 1.386 . S
C757 C761 1.393 1_554 S
C758 H750 0.950 . S
C758 C756 1.391 . S
C758 C759 1.400 1_554 S
C759 C758 1.400 1_556 S
C759 C760 1.398 . S
C759 C765 1.491 . S
C760 H751 0.950 . S
C760 C759 1.398 . S
C760 C761 1.391 . S
C761 H749 0.950 . S
C761 C757 1.393 1_556 S
C761 C760 1.391 . S
C762 H752 0.950 . S
C762 C763 1.386 . S
C762 C764 1.391 . S
C763 C762 1.386 . S
C763 C767 1.393 1_556 S
C764 H753 0.950 . S
C764 C762 1.391 . S
C764 C765 1.400 . S
C765 C759 1.491 . S
C765 C764 1.400 . S
C765 C766 1.398 1_556 S
C766 H754 0.950 . S
C766 C765 1.398 1_554 S
C766 C767 1.391 . S
C767 H755 0.950 . S
C767 C763 1.393 1_554 S
C767 C766 1.391 . S
H768 C776 0.950 . S
H769 C781 0.950 . S
H770 C778 0.950 . S
H771 C780 0.950 . S
H772 C782 0.950 . S
H773 C784 0.950 . S
H774 C786 0.950 . S
H775 C787 0.950 . S
C776 H768 0.950 . S
C776 C777 1.386 . S
C776 C778 1.391 . S
C777 C776 1.386 . S
C777 C781 1.393 . S
C778 H770 0.950 . S
C778 C776 1.391 . S
C778 C779 1.400 . S
C779 C778 1.400 . S
C779 C780 1.398 . S
C779 C785 1.491 . S
C780 H771 0.950 . S
C780 C779 1.398 . S
C780 C781 1.391 . S
C781 H769 0.950 . S
C781 C777 1.393 . S
C781 C780 1.391 . S
C782 H772 0.950 . S
C782 C783 1.386 . S
C782 C784 1.391 . S
C783 C782 1.386 . S
C783 C787 1.393 . S
C784 H773 0.950 . S
C784 C782 1.391 . S
C784 C785 1.400 . S
C785 C779 1.491 . S
C785 C784 1.400 . S
C785 C786 1.398 . S
C786 H774 0.950 . S
C786 C785 1.398 . S
C786 C787 1.391 . S
C787 H775 0.950 . S
C787 C783 1.393 . S
C787 C786 1.391 . S
H788 C796 0.950 . S
H789 C801 0.950 . S
H790 C798 0.950 . S
H791 C800 0.950 . S
H792 C802 0.950 . S
H793 C804 0.950 . S
H794 C806 0.950 . S
H795 C807 0.950 . S
C796 H788 0.950 . S
C796 C797 1.386 . S
C796 C798 1.391 . S
C797 C796 1.386 . S
C797 C801 1.393 . S
C798 H790 0.950 . S
C798 C796 1.391 . S
C798 C799 1.400 . S
C799 C798 1.400 . S
C799 C800 1.398 . S
C799 C805 1.491 . S
C800 H791 0.950 . S
C800 C799 1.398 . S
C800 C801 1.391 . S
C801 H789 0.950 . S
C801 C797 1.393 . S
C801 C800 1.391 . S
C802 H792 0.950 . S
C802 C803 1.386 . S
C802 C804 1.391 . S
C803 C802 1.386 . S
C803 C807 1.393 . S
C804 H793 0.950 . S
C804 C802 1.391 . S
C804 C805 1.400 . S
C805 C799 1.491 . S
C805 C804 1.400 . S
C805 C806 1.398 . S
C806 H794 0.950 . S
C806 C805 1.398 . S
C806 C807 1.391 . S
C807 H795 0.950 . S
C807 C803 1.393 . S
C807 C806 1.391 . S
H808 C816 0.950 . S
H809 C821 0.950 . S
H810 C818 0.950 . S
H811 C820 0.950 . S
H812 C822 0.950 . S
H813 C824 0.950 . S
H814 C826 0.950 . S
H815 C827 0.950 . S
C816 H808 0.950 . S
C816 C817 1.386 . S
C816 C818 1.391 . S
C817 C816 1.386 . S
C817 C821 1.393 . S
C818 H810 0.950 . S
C818 C816 1.391 . S
C818 C819 1.400 . S
C819 C818 1.400 . S
C819 C820 1.398 . S
C819 C825 1.491 . S
C820 H811 0.950 . S
C820 C819 1.398 . S
C820 C821 1.391 . S
C821 H809 0.950 . S
C821 C817 1.393 . S
C821 C820 1.391 . S
C822 H812 0.950 . S
C822 C823 1.386 . S
C822 C824 1.391 . S
C823 C822 1.386 . S
C823 C827 1.393 . S
C824 H813 0.950 . S
C824 C822 1.391 . S
C824 C825 1.400 . S
C825 C819 1.491 . S
C825 C824 1.400 . S
C825 C826 1.398 . S
C826 H814 0.950 . S
C826 C825 1.398 . S
C826 C827 1.391 . S
C827 H815 0.950 . S
C827 C823 1.393 . S
C827 C826 1.391 . S
H828 C836 0.950 . S
H829 C841 0.950 . S
H830 C838 0.950 . S
H831 C840 0.950 . S
H832 C842 0.950 . S
H833 C844 0.950 . S
H834 C846 0.950 . S
H835 C847 0.950 . S
C836 H828 0.950 . S
C836 C837 1.386 . S
C836 C838 1.391 . S
C837 C836 1.386 . S
C837 C841 1.393 . S
C838 H830 0.950 . S
C838 C836 1.391 . S
C838 C839 1.400 . S
C839 C838 1.400 . S
C839 C840 1.398 . S
C839 C845 1.491 . S
C840 H831 0.950 . S
C840 C839 1.398 . S
C840 C841 1.391 . S
C841 H829 0.950 . S
C841 C837 1.393 . S
C841 C840 1.391 . S
C842 H832 0.950 . S
C842 C843 1.386 . S
C842 C844 1.391 . S
C843 C842 1.386 . S
C843 C847 1.393 . S
C844 H833 0.950 . S
C844 C842 1.391 . S
C844 C845 1.400 . S
C845 C839 1.491 . S
C845 C844 1.400 . S
C845 C846 1.398 . S
C846 H834 0.950 . S
C846 C845 1.398 . S
C846 C847 1.391 . S
C847 H835 0.950 . S
C847 C843 1.393 . S
C847 C846 1.391 . S
H848 C856 0.950 . S
H849 C861 0.950 . S
H850 C858 0.950 . S
H851 C860 0.950 . S
H852 C862 0.950 . S
H853 C864 0.950 . S
H854 C866 0.950 . S
H855 C867 0.950 . S
C856 H848 0.950 . S
C856 C857 1.386 . S
C856 C858 1.391 . S
C857 C856 1.386 . S
C857 C861 1.393 . S
C858 H850 0.950 . S
C858 C856 1.391 . S
C858 C859 1.400 . S
C859 C858 1.400 . S
C859 C860 1.398 . S
C859 C865 1.491 . S
C860 H851 0.950 . S
C860 C859 1.398 . S
C860 C861 1.391 . S
C861 H849 0.950 . S
C861 C857 1.393 . S
C861 C860 1.391 . S
C862 H852 0.950 . S
C862 C863 1.386 . S
C862 C864 1.391 . S
C863 C862 1.386 . S
C863 C867 1.393 . S
C864 H853 0.950 . S
C864 C862 1.391 . S
C864 C865 1.400 . S
C865 C859 1.491 . S
C865 C864 1.400 . S
C865 C866 1.398 . S
C866 H854 0.950 . S
C866 C865 1.398 . S
C866 C867 1.391 . S
C867 H855 0.950 . S
C867 C863 1.393 . S
C867 C866 1.391 . S
H868 C876 0.950 . S
H869 C881 0.950 . S
H870 C878 0.950 . S
H871 C880 0.950 . S
H872 C882 0.950 . S
H873 C884 0.950 . S
H874 C886 0.950 . S
H875 C887 0.950 . S
C876 H868 0.950 . S
C876 C877 1.386 . S
C876 C878 1.391 . S
C877 C876 1.386 . S
C877 C881 1.393 . S
C878 H870 0.950 . S
C878 C876 1.391 . S
C878 C879 1.400 . S
C879 C878 1.400 . S
C879 C880 1.398 . S
C879 C885 1.491 . S
C880 H871 0.950 . S
C880 C879 1.398 . S
C880 C881 1.391 . S
C881 H869 0.950 . S
C881 C877 1.393 . S
C881 C880 1.391 . S
C882 H872 0.950 . S
C882 C883 1.386 . S
C882 C884 1.391 . S
C883 C882 1.386 . S
C883 C887 1.393 . S
C884 H873 0.950 . S
C884 C882 1.391 . S
C884 C885 1.400 . S
C885 C879 1.491 . S
C885 C884 1.400 . S
C885 C886 1.398 . S
C886 H874 0.950 . S
C886 C885 1.398 . S
C886 C887 1.391 . S
C887 H875 0.950 . S
C887 C883 1.393 . S
C887 C886 1.391 . S
H888 C896 0.950 . S
H889 C901 0.950 . S
H890 C898 0.950 . S
H891 C900 0.950 . S
H892 C902 0.950 . S
H893 C904 0.950 . S
H894 C906 0.950 . S
H895 C907 0.950 . S
C896 H888 0.950 . S
C896 C897 1.386 . S
C896 C898 1.391 . S
C897 C896 1.386 . S
C897 C901 1.393 . S
C898 H890 0.950 . S
C898 C896 1.391 . S
C898 C899 1.400 . S
C899 C898 1.400 . S
C899 C900 1.398 . S
C899 C905 1.491 . S
C900 H891 0.950 . S
C900 C899 1.398 . S
C900 C901 1.391 . S
C901 H889 0.950 . S
C901 C897 1.393 . S
C901 C900 1.391 . S
C902 H892 0.950 . S
C902 C903 1.386 . S
C902 C904 1.391 . S
C903 C902 1.386 . S
C903 C907 1.393 . S
C904 H893 0.950 . S
C904 C902 1.391 . S
C904 C905 1.400 . S
C905 C899 1.491 . S
C905 C904 1.400 . S
C905 C906 1.398 . S
C906 H894 0.950 . S
C906 C905 1.398 . S
C906 C907 1.391 . S
C907 H895 0.950 . S
C907 C903 1.393 . S
C907 C906 1.391 . S
H908 C916 0.950 . S
H909 C921 0.950 . S
H910 C918 0.950 . S
H911 C920 0.950 . S
H912 C922 0.950 . S
H913 C924 0.950 . S
H914 C926 0.950 . S
H915 C927 0.950 . S
C916 H908 0.950 . S
C916 C917 1.386 . S
C916 C918 1.391 . S
C917 C916 1.386 . S
C917 C921 1.393 . S
C918 H910 0.950 . S
C918 C916 1.391 . S
C918 C919 1.400 . S
C919 C918 1.400 . S
C919 C920 1.398 . S
C919 C925 1.491 . S
C920 H911 0.950 . S
C920 C919 1.398 . S
C920 C921 1.391 . S
C921 H909 0.950 . S
C921 C917 1.393 . S
C921 C920 1.391 . S
C922 H912 0.950 . S
C922 C923 1.386 . S
C922 C924 1.391 . S
C923 C922 1.386 . S
C923 C927 1.393 . S
C924 H913 0.950 . S
C924 C922 1.391 . S
C924 C925 1.400 . S
C925 C919 1.491 . S
C925 C924 1.400 . S
C925 C926 1.398 . S
C926 H914 0.950 . S
C926 C925 1.398 . S
C926 C927 1.391 . S
C927 H915 0.950 . S
C927 C923 1.393 . S
C927 C926 1.391 . S
H928 C936 0.950 . S
H929 C941 0.950 . S
H930 C938 0.950 . S
H931 C940 0.950 . S
H932 C942 0.950 . S
H933 C944 0.950 . S
H934 C946 0.950 . S
H935 C947 0.950 . S
C936 H928 0.950 . S
C936 C937 1.386 . S
C936 C938 1.391 . S
C937 C936 1.386 . S
C937 C941 1.393 . S
C938 H930 0.950 . S
C938 C936 1.391 . S
C938 C939 1.400 . S
C939 C938 1.400 . S
C939 C940 1.398 . S
C939 C945 1.491 . S
C940 H931 0.950 . S
C940 C939 1.398 . S
C940 C941 1.391 . S
C941 H929 0.950 . S
C941 C937 1.393 . S
C941 C940 1.391 . S
C942 H932 0.950 . S
C942 C943 1.386 . S
C942 C944 1.391 . S
C943 C942 1.386 . S
C943 C947 1.393 . S
C944 H933 0.950 . S
C944 C942 1.391 . S
C944 C945 1.400 . S
C945 C939 1.491 . S
C945 C944 1.400 . S
C945 C946 1.398 . S
C946 H934 0.950 . S
C946 C945 1.398 . S
C946 C947 1.391 . S
C947 H935 0.950 . S
C947 C943 1.393 . S
C947 C946 1.391 . S
H948 C956 0.950 . S
H949 C961 0.950 . S
H950 C958 0.950 1_556 S
H951 C960 0.950 . S
H952 C962 0.950 . S
H953 C964 0.950 . S
H954 C966 0.950 1_556 S
H955 C967 0.950 1_556 S
C956 H948 0.950 . S
C956 C957 1.386 . S
C956 C958 1.391 . S
C957 C956 1.386 . S
C957 C961 1.393 . S
C958 H950 0.950 1_554 S
C958 C956 1.391 . S
C958 C959 1.400 . S
C959 C958 1.400 . S
C959 C960 1.398 . S
C959 C965 1.491 . S
C960 H951 0.950 . S
C960 C959 1.398 . S
C960 C961 1.391 . S
C961 H949 0.950 . S
C961 C957 1.393 . S
C961 C960 1.391 . S
C962 H952 0.950 . S
C962 C963 1.386 . S
C962 C964 1.391 . S
C963 C962 1.386 . S
C963 C967 1.393 . S
C964 H953 0.950 . S
C964 C962 1.391 . S
C964 C965 1.400 . S
C965 C959 1.491 . S
C965 C964 1.400 . S
C965 C966 1.398 . S
C966 H954 0.950 1_554 S
C966 C965 1.398 . S
C966 C967 1.391 . S
C967 H955 0.950 1_554 S
C967 C963 1.393 . S
C967 C966 1.391 . S
H968 C976 0.950 . S
H969 C981 0.950 . S
H970 C978 0.950 . S
H971 C980 0.950 . S
H972 C982 0.950 . S
H973 C984 0.950 . S
H974 C986 0.950 . S
H975 C987 0.950 . S
C976 H968 0.950 . S
C976 C977 1.386 . S
C976 C978 1.391 . S
C977 C976 1.386 . S
C977 C981 1.393 . S
C978 H970 0.950 . S
C978 C976 1.391 . S
C978 C979 1.400 . S
C979 C978 1.400 . S
C979 C980 1.398 . S
C979 C985 1.491 . S
C980 H971 0.950 . S
C980 C979 1.398 . S
C980 C981 1.391 . S
C981 H969 0.950 . S
C981 C977 1.393 . S
C981 C980 1.391 . S
C982 H972 0.950 . S
C982 C983 1.386 . S
C982 C984 1.391 . S
C983 C982 1.386 . S
C983 C987 1.393 . S
C984 H973 0.950 . S
C984 C982 1.391 . S
C984 C985 1.400 . S
C985 C979 1.491 . S
C985 C984 1.400 . S
C985 C986 1.398 . S
C986 H974 0.950 . S
C986 C985 1.398 . S
C986 C987 1.391 . S
C987 H975 0.950 . S
C987 C983 1.393 . S
C987 C986 1.391 . S
H988 C996 0.950 . S
H989 C1001 0.950 . S
H990 C998 0.950 . S
H991 C1000 0.950 . S
H992 C1002 0.950 . S
H993 C1004 0.950 . S
H994 C1006 0.950 . S
H995 C1007 0.950 . S
C996 H988 0.950 . S
C996 C997 1.386 . S
C996 C998 1.391 . S
C997 C996 1.386 . S
C997 C1001 1.393 . S
C998 H990 0.950 . S
C998 C996 1.391 . S
C998 C999 1.400 . S
C999 C998 1.400 . S
C999 C1000 1.398 . S
C999 C1005 1.491 . S
C1000 H991 0.950 . S
C1000 C999 1.398 . S
C1000 C1001 1.391 . S
C1001 H989 0.950 . S
C1001 C997 1.393 . S
C1001 C1000 1.391 . S
C1002 H992 0.950 . S
C1002 C1003 1.386 . S
C1002 C1004 1.391 . S
C1003 C1002 1.386 . S
C1003 C1007 1.393 . S
C1004 H993 0.950 . S
C1004 C1002 1.391 . S
C1004 C1005 1.400 . S
C1005 C999 1.491 . S
C1005 C1004 1.400 . S
C1005 C1006 1.398 . S
C1006 H994 0.950 . S
C1006 C1005 1.398 . S
C1006 C1007 1.391 . S
C1007 H995 0.950 . S
C1007 C1003 1.393 . S
C1007 C1006 1.391 . S
H1008 C1016 0.950 . S
H1009 C1021 0.950 . S
H1010 C1018 0.950 . S
H1011 C1020 0.950 . S
H1012 C1022 0.950 . S
H1013 C1024 0.950 . S
H1014 C1026 0.950 . S
H1015 C1027 0.950 . S
C1016 H1008 0.950 . S
C1016 C1017 1.386 . S
C1016 C1018 1.391 . S
C1017 C1016 1.386 . S
C1017 C1021 1.393 1_655 S
C1018 H1010 0.950 . S
C1018 C1016 1.391 . S
C1018 C1019 1.400 . S
C1019 C1018 1.400 . S
C1019 C1020 1.398 1_655 S
C1019 C1025 1.491 1_655 S
C1020 H1011 0.950 . S
C1020 C1019 1.398 1_455 S
C1020 C1021 1.391 . S
C1021 H1009 0.950 . S
C1021 C1017 1.393 1_455 S
C1021 C1020 1.391 . S
C1022 H1012 0.950 . S
C1022 C1023 1.386 . S
C1022 C1024 1.391 . S
C1023 C1022 1.386 . S
C1023 C1027 1.393 1_455 S
C1024 H1013 0.950 . S
C1024 C1022 1.391 . S
C1024 C1025 1.400 . S
C1025 C1019 1.491 1_455 S
C1025 C1024 1.400 . S
C1025 C1026 1.398 1_455 S
C1026 H1014 0.950 . S
C1026 C1025 1.398 1_655 S
C1026 C1027 1.391 . S
C1027 H1015 0.950 . S
C1027 C1023 1.393 1_655 S
C1027 C1026 1.391 . S
H1028 C1036 0.950 . S
H1029 C1041 0.950 . S
H1030 C1038 0.950 . S
H1031 C1040 0.950 . S
H1032 C1042 0.950 . S
H1033 C1044 0.950 . S
H1034 C1046 0.950 . S
H1035 C1047 0.950 . S
C1036 H1028 0.950 . S
C1036 C1037 1.386 . S
C1036 C1038 1.391 . S
C1037 C1036 1.386 . S
C1037 C1041 1.393 1_565 S
C1038 H1030 0.950 . S
C1038 C1036 1.391 . S
C1038 C1039 1.400 . S
C1039 C1038 1.400 . S
C1039 C1040 1.398 1_565 S
C1039 C1045 1.491 1_565 S
C1040 H1031 0.950 . S
C1040 C1039 1.398 1_545 S
C1040 C1041 1.391 . S
C1041 H1029 0.950 . S
C1041 C1037 1.393 1_545 S
C1041 C1040 1.391 . S
C1042 H1032 0.950 . S
C1042 C1043 1.386 . S
C1042 C1044 1.391 . S
C1043 C1042 1.386 . S
C1043 C1047 1.393 1_545 S
C1044 H1033 0.950 . S
C1044 C1042 1.391 . S
C1044 C1045 1.400 . S
C1045 C1039 1.491 1_545 S
C1045 C1044 1.400 . S
C1045 C1046 1.398 1_545 S
C1046 H1034 0.950 . S
C1046 C1045 1.398 1_565 S
C1046 C1047 1.391 . S
C1047 H1035 0.950 . S
C1047 C1043 1.393 1_565 S
C1047 C1046 1.391 . S
H1048 C1056 0.950 . S
H1049 C1061 0.950 . S
H1050 C1058 0.950 . S
H1051 C1060 0.948 1_455 S
H1052 C1062 0.950 . S
H1053 C1064 0.950 . S
H1054 C1066 0.948 1_655 S
H1055 C1067 0.950 . S
C1056 H1048 0.950 . S
C1056 C1057 1.386 . S
C1056 C1058 1.391 . S
C1057 C1056 1.386 . S
C1057 C1061 1.393 . S
C1058 H1050 0.950 . S
C1058 C1056 1.391 . S
C1058 C1059 1.400 . S
C1059 C1058 1.400 . S
C1059 C1060 1.399 . S
C1059 C1065 1.491 1_655 S
C1060 H1051 0.948 1_655 S
C1060 C1059 1.399 . S
C1060 C1061 1.392 . S
C1061 H1049 0.950 . S
C1061 C1057 1.393 . S
C1061 C1060 1.392 . S
C1062 H1052 0.950 . S
C1062 C1063 1.386 . S
C1062 C1064 1.391 . S
C1063 C1062 1.386 . S
C1063 C1067 1.393 . S
C1064 H1053 0.950 . S
C1064 C1062 1.391 . S
C1064 C1065 1.400 . S
C1065 C1059 1.491 1_455 S
C1065 C1064 1.400 . S
C1065 C1066 1.399 . S
C1066 H1054 0.948 1_455 S
C1066 C1065 1.399 . S
C1066 C1067 1.392 . S
C1067 H1055 0.950 . S
C1067 C1063 1.393 . S
C1067 C1066 1.392 . S
H1068 C1076 0.950 . S
H1069 C1081 0.950 . S
H1070 C1078 0.950 . S
H1071 C1080 0.950 . S
H1072 C1082 0.950 . S
H1073 C1084 0.950 . S
H1074 C1086 0.950 . S
H1075 C1087 0.950 . S
C1076 H1068 0.950 . S
C1076 C1077 1.386 . S
C1076 C1078 1.391 . S
C1077 C1076 1.386 . S
C1077 C1081 1.393 1_545 S
C1078 H1070 0.950 . S
C1078 C1076 1.391 . S
C1078 C1079 1.400 . S
C1079 C1078 1.400 . S
C1079 C1080 1.398 1_545 S
C1079 C1085 1.491 1_545 S
C1080 H1071 0.950 . S
C1080 C1079 1.398 1_565 S
C1080 C1081 1.391 . S
C1081 H1069 0.950 . S
C1081 C1077 1.393 1_565 S
C1081 C1080 1.391 . S
C1082 H1072 0.950 . S
C1082 C1083 1.386 . S
C1082 C1084 1.391 . S
C1083 C1082 1.386 . S
C1083 C1087 1.393 1_565 S
C1084 H1073 0.950 . S
C1084 C1082 1.391 . S
C1084 C1085 1.400 . S
C1085 C1079 1.491 1_565 S
C1085 C1084 1.400 . S
C1085 C1086 1.398 1_565 S
C1086 H1074 0.950 . S
C1086 C1085 1.398 1_545 S
C1086 C1087 1.391 . S
C1087 H1075 0.950 . S
C1087 C1083 1.393 1_545 S
C1087 C1086 1.391 . S
H1088 C1096 0.950 . S
H1089 C1101 0.950 . S
H1090 C1098 0.950 . S
H1091 C1100 0.950 . S
H1092 C1102 0.950 . S
H1093 C1104 0.950 . S
H1094 C1106 0.950 . S
H1095 C1107 0.950 . S
C1096 H1088 0.950 . S
C1096 C1097 1.386 1_455 S
C1096 C1098 1.391 . S
C1097 C1096 1.386 1_655 S
C1097 C1101 1.393 . S
C1098 H1090 0.950 . S
C1098 C1096 1.391 . S
C1098 C1099 1.400 1_455 S
C1099 C1098 1.400 1_655 S
C1099 C1100 1.398 . S
C1099 C1105 1.491 1_655 S
C1100 H1091 0.950 . S
C1100 C1099 1.398 . S
C1100 C1101 1.391 . S
C1101 H1089 0.950 . S
C1101 C1097 1.393 . S
C1101 C1100 1.391 . S
C1102 H1092 0.950 . S
C1102 C1103 1.386 1_655 S
C1102 C1104 1.391 . S
C1103 C1102 1.386 1_455 S
C1103 C1107 1.393 . S
C1104 H1093 0.950 . S
C1104 C1102 1.391 . S
C1104 C1105 1.400 1_655 S
C1105 C1099 1.491 1_455 S
C1105 C1104 1.400 1_455 S
C1105 C1106 1.398 . S
C1106 H1094 0.950 . S
C1106 C1105 1.398 . S
C1106 C1107 1.391 . S
C1107 H1095 0.950 . S
C1107 C1103 1.393 . S
C1107 C1106 1.391 . S
H1108 C1116 0.950 . S
H1109 C1121 0.950 . S
H1110 C1118 0.950 . S
H1111 C1120 0.950 . S
H1112 C1122 0.950 . S
H1113 C1124 0.950 . S
H1114 C1126 0.950 . S
H1115 C1127 0.950 . S
C1116 H1108 0.950 . S
C1116 C1117 1.386 . S
C1116 C1118 1.391 . S
C1117 C1116 1.386 . S
C1117 C1121 1.393 1_545 S
C1118 H1110 0.950 . S
C1118 C1116 1.391 . S
C1118 C1119 1.400 . S
C1119 C1118 1.400 . S
C1119 C1120 1.398 1_545 S
C1119 C1125 1.491 1_545 S
C1120 H1111 0.950 . S
C1120 C1119 1.398 1_565 S
C1120 C1121 1.391 . S
C1121 H1109 0.950 . S
C1121 C1117 1.393 1_565 S
C1121 C1120 1.391 . S
C1122 H1112 0.950 . S
C1122 C1123 1.386 . S
C1122 C1124 1.391 . S
C1123 C1122 1.386 . S
C1123 C1127 1.393 1_565 S
C1124 H1113 0.950 . S
C1124 C1122 1.391 . S
C1124 C1125 1.400 . S
C1125 C1119 1.491 1_565 S
C1125 C1124 1.400 . S
C1125 C1126 1.398 1_565 S
C1126 H1114 0.950 . S
C1126 C1125 1.398 1_545 S
C1126 C1127 1.391 . S
C1127 H1115 0.950 . S
C1127 C1123 1.393 1_545 S
C1127 C1126 1.391 . S
H1128 C1136 0.950 . S
H1129 C1141 0.950 . S
H1130 C1138 0.950 . S
H1131 C1140 0.950 . S
H1132 C1142 0.950 . S
H1133 C1144 0.950 . S
H1134 C1146 0.950 . S
H1135 C1147 0.950 . S
C1136 H1128 0.950 . S
C1136 C1137 1.386 . S
C1136 C1138 1.391 . S
C1137 C1136 1.386 . S
C1137 C1141 1.393 1_455 S
C1138 H1130 0.950 . S
C1138 C1136 1.391 . S
C1138 C1139 1.400 . S
C1139 C1138 1.400 . S
C1139 C1140 1.398 1_455 S
C1139 C1145 1.491 1_455 S
C1140 H1131 0.950 . S
C1140 C1139 1.398 1_655 S
C1140 C1141 1.391 . S
C1141 H1129 0.950 . S
C1141 C1137 1.393 1_655 S
C1141 C1140 1.391 . S
C1142 H1132 0.950 . S
C1142 C1143 1.386 . S
C1142 C1144 1.391 . S
C1143 C1142 1.386 . S
C1143 C1147 1.393 1_655 S
C1144 H1133 0.950 . S
C1144 C1142 1.391 . S
C1144 C1145 1.400 . S
C1145 C1139 1.491 1_655 S
C1145 C1144 1.400 . S
C1145 C1146 1.398 1_655 S
C1146 H1134 0.950 . S
C1146 C1145 1.398 1_455 S
C1146 C1147 1.391 . S
C1147 H1135 0.950 . S
C1147 C1143 1.393 1_455 S
C1147 C1146 1.391 . S
H1148 C1156 0.950 . S
H1149 C1161 0.950 . S
H1150 C1158 0.950 . S
H1151 C1160 0.950 . S
H1152 C1162 0.950 . S
H1153 C1164 0.950 . S
H1154 C1166 0.950 . S
H1155 C1167 0.950 . S
C1156 H1148 0.950 . S
C1156 C1157 1.386 1_545 S
C1156 C1158 1.391 . S
C1157 C1156 1.386 1_565 S
C1157 C1161 1.393 . S
C1158 H1150 0.950 . S
C1158 C1156 1.391 . S
C1158 C1159 1.400 1_545 S
C1159 C1158 1.400 1_565 S
C1159 C1160 1.398 . S
C1159 C1165 1.491 1_565 S
C1160 H1151 0.950 . S
C1160 C1159 1.398 . S
C1160 C1161 1.391 . S
C1161 H1149 0.950 . S
C1161 C1157 1.393 . S
C1161 C1160 1.391 . S
C1162 H1152 0.950 . S
C1162 C1163 1.386 1_565 S
C1162 C1164 1.391 . S
C1163 C1162 1.386 1_545 S
C1163 C1167 1.393 . S
C1164 H1153 0.950 . S
C1164 C1162 1.391 . S
C1164 C1165 1.400 1_565 S
C1165 C1159 1.491 1_545 S
C1165 C1164 1.400 1_545 S
C1165 C1166 1.398 . S
C1166 H1154 0.950 . S
C1166 C1165 1.398 . S
C1166 C1167 1.391 . S
C1167 H1155 0.950 . S
C1167 C1163 1.393 . S
C1167 C1166 1.391 . S
H1168 C1176 0.950 . S
H1169 C1181 0.950 . S
H1170 C1178 0.950 . S
H1171 C1180 0.950 . S
H1172 C1182 0.950 . S
H1173 C1184 0.950 . S
H1174 C1186 0.950 . S
H1175 C1187 0.950 . S
C1176 H1168 0.950 . S
C1176 C1177 1.386 . S
C1176 C1178 1.391 . S
C1177 C1176 1.386 . S
C1177 C1181 1.393 . S
C1178 H1170 0.950 . S
C1178 C1176 1.391 . S
C1178 C1179 1.400 . S
C1179 C1178 1.400 . S
C1179 C1180 1.398 . S
C1179 C1185 1.491 . S
C1180 H1171 0.950 . S
C1180 C1179 1.398 . S
C1180 C1181 1.391 . S
C1181 H1169 0.950 . S
C1181 C1177 1.393 . S
C1181 C1180 1.391 . S
C1182 H1172 0.950 . S
C1182 C1183 1.386 . S
C1182 C1184 1.391 . S
C1183 C1182 1.386 . S
C1183 C1187 1.393 . S
C1184 H1173 0.950 . S
C1184 C1182 1.391 . S
C1184 C1185 1.400 . S
C1185 C1179 1.491 . S
C1185 C1184 1.400 . S
C1185 C1186 1.398 . S
C1186 H1174 0.950 . S
C1186 C1185 1.398 . S
C1186 C1187 1.391 . S
C1187 H1175 0.950 . S
C1187 C1183 1.393 . S
C1187 C1186 1.391 . S
H1188 C1196 0.950 . S
H1189 C1201 0.950 . S
H1190 C1198 0.950 . S
H1191 C1200 0.950 . S
H1192 C1202 0.950 . S
H1193 C1204 0.950 . S
H1194 C1206 0.950 . S
H1195 C1207 0.950 . S
C1196 H1188 0.950 . S
C1196 C1197 1.386 . S
C1196 C1198 1.391 . S
C1197 C1196 1.386 . S
C1197 C1201 1.393 . S
C1198 H1190 0.950 . S
C1198 C1196 1.391 . S
C1198 C1199 1.400 . S
C1199 C1198 1.400 . S
C1199 C1200 1.398 . S
C1199 C1205 1.491 . S
C1200 H1191 0.950 . S
C1200 C1199 1.398 . S
C1200 C1201 1.391 . S
C1201 H1189 0.950 . S
C1201 C1197 1.393 . S
C1201 C1200 1.391 . S
C1202 H1192 0.950 . S
C1202 C1203 1.386 . S
C1202 C1204 1.391 . S
C1203 C1202 1.386 . S
C1203 C1207 1.393 . S
C1204 H1193 0.950 . S
C1204 C1202 1.391 . S
C1204 C1205 1.400 . S
C1205 C1199 1.491 . S
C1205 C1204 1.400 . S
C1205 C1206 1.398 . S
C1206 H1194 0.950 . S
C1206 C1205 1.398 . S
C1206 C1207 1.391 . S
C1207 H1195 0.950 . S
C1207 C1203 1.393 . S
C1207 C1206 1.391 . S
H1208 C1216 0.950 . S
H1209 C1221 0.950 . S
H1210 C1218 0.950 . S
H1211 C1220 0.950 . S
H1212 C1222 0.950 . S
H1213 C1224 0.950 . S
H1214 C1226 0.950 . S
H1215 C1227 0.950 . S
C1216 H1208 0.950 . S
C1216 C1217 1.386 . S
C1216 C1218 1.391 . S
C1217 C1216 1.386 . S
C1217 C1221 1.393 . S
C1218 H1210 0.950 . S
C1218 C1216 1.391 . S
C1218 C1219 1.400 . S
C1219 C1218 1.400 . S
C1219 C1220 1.398 . S
C1219 C1225 1.491 . S
C1220 H1211 0.950 . S
C1220 C1219 1.398 . S
C1220 C1221 1.391 . S
C1221 H1209 0.950 . S
C1221 C1217 1.393 . S
C1221 C1220 1.391 . S
C1222 H1212 0.950 . S
C1222 C1223 1.386 . S
C1222 C1224 1.391 . S
C1223 C1222 1.386 . S
C1223 C1227 1.393 . S
C1224 H1213 0.950 . S
C1224 C1222 1.391 . S
C1224 C1225 1.400 . S
C1225 C1219 1.491 . S
C1225 C1224 1.400 . S
C1225 C1226 1.398 . S
C1226 H1214 0.950 . S
C1226 C1225 1.398 . S
C1226 C1227 1.391 . S
C1227 H1215 0.950 . S
C1227 C1223 1.393 . S
C1227 C1226 1.391 . S
H1228 C1236 0.950 . S
H1229 C1241 0.950 . S
H1230 C1238 0.950 . S
H1231 C1240 0.950 . S
H1232 C1242 0.950 . S
H1233 C1244 0.950 . S
H1234 C1246 0.950 . S
H1235 C1247 0.950 . S
C1236 H1228 0.950 . S
C1236 C1237 1.386 . S
C1236 C1238 1.391 . S
C1237 C1236 1.386 . S
C1237 C1241 1.393 . S
C1238 H1230 0.950 . S
C1238 C1236 1.391 . S
C1238 C1239 1.400 . S
C1239 C1238 1.400 . S
C1239 C1240 1.398 . S
C1239 C1245 1.491 . S
C1240 H1231 0.950 . S
C1240 C1239 1.398 . S
C1240 C1241 1.391 . S
C1241 H1229 0.950 . S
C1241 C1237 1.393 . S
C1241 C1240 1.391 . S
C1242 H1232 0.950 . S
C1242 C1243 1.386 . S
C1242 C1244 1.391 . S
C1243 C1242 1.386 . S
C1243 C1247 1.393 . S
C1244 H1233 0.950 . S
C1244 C1242 1.391 . S
C1244 C1245 1.400 . S
C1245 C1239 1.491 . S
C1245 C1244 1.400 . S
C1245 C1246 1.398 . S
C1246 H1234 0.950 . S
C1246 C1245 1.398 . S
C1246 C1247 1.391 . S
C1247 H1235 0.950 . S
C1247 C1243 1.393 . S
C1247 C1246 1.391 . S
H1248 C1256 0.950 . S
H1249 C1261 0.950 . S
H1250 C1258 0.950 . S
H1251 C1260 0.950 . S
H1252 C1262 0.950 . S
H1253 C1264 0.950 . S
H1254 C1266 0.950 . S
H1255 C1267 0.950 . S
C1256 H1248 0.950 . S
C1256 C1257 1.386 . S
C1256 C1258 1.391 . S
C1257 C1256 1.386 . S
C1257 C1261 1.393 . S
C1258 H1250 0.950 . S
C1258 C1256 1.391 . S
C1258 C1259 1.400 . S
C1259 C1258 1.400 . S
C1259 C1260 1.398 . S
C1259 C1265 1.491 . S
C1260 H1251 0.950 . S
C1260 C1259 1.398 . S
C1260 C1261 1.391 . S
C1261 H1249 0.950 . S
C1261 C1257 1.393 . S
C1261 C1260 1.391 . S
C1262 H1252 0.950 . S
C1262 C1263 1.386 . S
C1262 C1264 1.391 . S
C1263 C1262 1.386 . S
C1263 C1267 1.393 . S
C1264 H1253 0.950 . S
C1264 C1262 1.391 . S
C1264 C1265 1.400 . S
C1265 C1259 1.491 . S
C1265 C1264 1.400 . S
C1265 C1266 1.398 . S
C1266 H1254 0.950 . S
C1266 C1265 1.398 . S
C1266 C1267 1.391 . S
C1267 H1255 0.950 . S
C1267 C1263 1.393 . S
C1267 C1266 1.391 . S
H1268 C1276 0.950 . S
H1269 C1281 0.950 . S
H1270 C1278 0.950 . S
H1271 C1280 0.950 . S
H1272 C1282 0.950 . S
H1273 C1284 0.950 . S
H1274 C1286 0.950 . S
H1275 C1287 0.950 . S
C1276 H1268 0.950 . S
C1276 C1277 1.386 . S
C1276 C1278 1.391 . S
C1277 C1276 1.386 . S
C1277 C1281 1.393 . S
C1278 H1270 0.950 . S
C1278 C1276 1.391 . S
C1278 C1279 1.400 . S
C1279 C1278 1.400 . S
C1279 C1280 1.398 . S
C1279 C1285 1.491 . S
C1280 H1271 0.950 . S
C1280 C1279 1.398 . S
C1280 C1281 1.391 . S
C1281 H1269 0.950 . S
C1281 C1277 1.393 . S
C1281 C1280 1.391 . S
C1282 H1272 0.950 . S
C1282 C1283 1.386 . S
C1282 C1284 1.391 . S
C1283 C1282 1.386 . S
C1283 C1287 1.393 . S
C1284 H1273 0.950 . S
C1284 C1282 1.391 . S
C1284 C1285 1.400 . S
C1285 C1279 1.491 . S
C1285 C1284 1.400 . S
C1285 C1286 1.398 . S
C1286 H1274 0.950 . S
C1286 C1285 1.398 . S
C1286 C1287 1.391 . S
C1287 H1275 0.950 . S
C1287 C1283 1.393 . S
C1287 C1286 1.391 . S
H1288 C1296 0.950 . S
H1289 C1301 0.950 . S
H1290 C1298 0.950 . S
H1291 C1300 0.950 . S
H1292 C1302 0.950 . S
H1293 C1304 0.950 . S
H1294 C1306 0.950 . S
H1295 C1307 0.950 . S
C1296 H1288 0.950 . S
C1296 C1297 1.386 . S
C1296 C1298 1.391 . S
C1297 C1296 1.386 . S
C1297 C1301 1.393 . S
C1298 H1290 0.950 . S
C1298 C1296 1.391 . S
C1298 C1299 1.400 . S
C1299 C1298 1.400 . S
C1299 C1300 1.398 . S
C1299 C1305 1.491 . S
C1300 H1291 0.950 . S
C1300 C1299 1.398 . S
C1300 C1301 1.391 . S
C1301 H1289 0.950 . S
C1301 C1297 1.393 . S
C1301 C1300 1.391 . S
C1302 H1292 0.950 . S
C1302 C1303 1.386 . S
C1302 C1304 1.391 . S
C1303 C1302 1.386 . S
C1303 C1307 1.393 . S
C1304 H1293 0.950 . S
C1304 C1302 1.391 . S
C1304 C1305 1.400 . S
C1305 C1299 1.491 . S
C1305 C1304 1.400 . S
C1305 C1306 1.398 . S
C1306 H1294 0.950 . S
C1306 C1305 1.398 . S
C1306 C1307 1.391 . S
C1307 H1295 0.950 . S
C1307 C1303 1.393 . S
C1307 C1306 1.391 . S
H1308 C1316 0.950 . S
H1309 C1321 0.950 . S
H1310 C1318 0.950 . S
H1311 C1320 0.950 . S
H1312 C1322 0.950 . S
H1313 C1324 0.950 . S
H1314 C1326 0.950 . S
H1315 C1327 0.950 . S
C1316 H1308 0.950 . S
C1316 C1317 1.386 . S
C1316 C1318 1.391 . S
C1317 C1316 1.386 . S
C1317 C1321 1.393 . S
C1318 H1310 0.950 . S
C1318 C1316 1.391 . S
C1318 C1319 1.400 . S
C1319 C1318 1.400 . S
C1319 C1320 1.398 . S
C1319 C1325 1.491 . S
C1320 H1311 0.950 . S
C1320 C1319 1.398 . S
C1320 C1321 1.391 . S
C1321 H1309 0.950 . S
C1321 C1317 1.393 . S
C1321 C1320 1.391 . S
C1322 H1312 0.950 . S
C1322 C1323 1.386 . S
C1322 C1324 1.391 . S
C1323 C1322 1.386 . S
C1323 C1327 1.393 . S
C1324 H1313 0.950 . S
C1324 C1322 1.391 . S
C1324 C1325 1.400 . S
C1325 C1319 1.491 . S
C1325 C1324 1.400 . S
C1325 C1326 1.398 . S
C1326 H1314 0.950 . S
C1326 C1325 1.398 . S
C1326 C1327 1.391 . S
C1327 H1315 0.950 . S
C1327 C1323 1.393 . S
C1327 C1326 1.391 . S
C537 N5 1.316 . S
C543 N500 1.304 . S
C557 N38 1.309 . S
C563 N401 1.322 . S
C577 N434 1.301 . S
C583 N71 1.308 . S
C597 N104 1.316 . S
C603 N467 1.304 . S
C617 N137 1.307 . S
C623 N302 1.301 . S
C637 N335 1.329 . S
C643 N170 1.323 . S
C657 N368 1.301 . S
C663 N203 1.310 . S
C677 N269 1.329 . S
C683 N236 1.324 . S
C697 N113 1.580 1_556 S
C703 C17 1.622 . S
C717 N14 1.561 1_556 S
C723 C50 1.622 . S
C737 C83 1.622 . S
C743 N47 1.560 1_556 S
C757 C116 1.622 . S
C763 N80 1.579 1_556 S
C777 N179 1.559 . S
C783 C149 1.622 . S
C797 N212 1.568 . S
C803 C182 1.624 . S
C817 N245 1.561 . S
C823 C215 1.622 . S
C837 N146 1.569 . S
C843 C248 1.621 . S
C857 N377 1.570 . S
C863 C281 1.621 . S
C877 C314 1.621 . S
C883 N278 1.568 . S
C897 N311 1.577 . S
C903 C347 1.621 . S
C917 N344 1.572 . S
C923 C380 1.624 . S
C937 N443 1.575 . S
C943 C413 1.624 . S
C957 N476 1.570 . S
C963 C446 1.621 . S
C977 N509 1.576 . S
C983 C479 1.623 . S
C997 N410 1.574 . S
C1003 C512 1.624 . S
C1017 C226 1.775 . S
C1023 C28 1.758 . S
C1037 C259 1.774 . S
C1043 C61 1.759 . S
C1057 C94 1.767 . S
C1063 C160 1.766 . S
C1077 C193 1.774 . S
C1083 C127 1.759 . S
C1097 C74 0.704 . S
C1103 C140 0.666 . S
C1117 C173 0.664 . S
C1123 C107 0.684 . S
C1137 C8 0.663 . S
C1143 C206 0.691 . S
C1157 C239 0.708 . S
C1163 C41 0.670 . S
C1177 C490 1.760 . S
C1183 C292 1.773 . S
C1197 C523 1.775 . S
C1203 C325 1.758 . S
C1217 C424 1.770 . S
C1223 C358 1.763 . S
C1237 C391 1.770 . S
C1243 C457 1.764 . S
C1257 C404 0.672 . S
C1263 C338 0.710 . S
C1277 C371 0.664 . S
C1283 C437 0.701 . S
C1297 C272 0.714 . S
C1303 C470 0.690 . S
C1317 C503 0.712 . S
C1323 C305 0.698 . S
