# Generated by pormake.
# Topology whb, (6)-cn, num edge types: 1
# Building blocks:
#     Node 0, Type 0, BuildingBlock: KUMBUR_clean_sbu_1, # of connection points: 6
#     Node 1, Type 0, BuildingBlock: KUMBUR_clean_sbu_1, # of connection points: 6
#     Node 2, Type 0, BuildingBlock: KUMBUR_clean_sbu_1, # of connection points: 6
#     Node 3, Type 0, BuildingBlock: KUMBUR_clean_sbu_1, # of connection points: 6
#     Node 4, Type 0, BuildingBlock: KUMBUR_clean_sbu_1, # of connection points: 6
#     Node 5, Type 0, BuildingBlock: KUMBUR_clean_sbu_1, # of connection points: 6
#     Node 6, Type 0, BuildingBlock: KUMBUR_clean_sbu_1, # of connection points: 6
#     Node 7, Type 0, BuildingBlock: KUMBUR_clean_sbu_1, # of connection points: 6
#     Edge 8, Type (0, 0), BuildingBlock: ZUJKAS_clean_linker_0, # of connection points: 2
#     Edge 9, Type (0, 0), BuildingBlock: ZUJKAS_clean_linker_0, # of connection points: 2
#     Edge 10, Type (0, 0), BuildingBlock: ZUJKAS_clean_linker_0, # of connection points: 2
#     Edge 11, Type (0, 0), BuildingBlock: ZUJKAS_clean_linker_0, # of connection points: 2
#     Edge 12, Type (0, 0), BuildingBlock: ZUJKAS_clean_linker_0, # of connection points: 2
#     Edge 13, Type (0, 0), BuildingBlock: ZUJKAS_clean_linker_0, # of connection points: 2
#     Edge 14, Type (0, 0), BuildingBlock: ZUJKAS_clean_linker_0, # of connection points: 2
#     Edge 15, Type (0, 0), BuildingBlock: ZUJKAS_clean_linker_0, # of connection points: 2
#     Edge 16, Type (0, 0), BuildingBlock: ZUJKAS_clean_linker_0, # of connection points: 2
#     Edge 17, Type (0, 0), BuildingBlock: ZUJKAS_clean_linker_0, # of connection points: 2
#     Edge 18, Type (0, 0), BuildingBlock: ZUJKAS_clean_linker_0, # of connection points: 2
#     Edge 19, Type (0, 0), BuildingBlock: ZUJKAS_clean_linker_0, # of connection points: 2
#     Edge 20, Type (0, 0), BuildingBlock: ZUJKAS_clean_linker_0, # of connection points: 2
#     Edge 21, Type (0, 0), BuildingBlock: ZUJKAS_clean_linker_0, # of connection points: 2
#     Edge 22, Type (0, 0), BuildingBlock: ZUJKAS_clean_linker_0, # of connection points: 2
#     Edge 23, Type (0, 0), BuildingBlock: ZUJKAS_clean_linker_0, # of connection points: 2
#     Edge 24, Type (0, 0), BuildingBlock: ZUJKAS_clean_linker_0, # of connection points: 2
#     Edge 25, Type (0, 0), BuildingBlock: ZUJKAS_clean_linker_0, # of connection points: 2
#     Edge 26, Type (0, 0), BuildingBlock: ZUJKAS_clean_linker_0, # of connection points: 2
#     Edge 27, Type (0, 0), BuildingBlock: ZUJKAS_clean_linker_0, # of connection points: 2
#     Edge 28, Type (0, 0), BuildingBlock: ZUJKAS_clean_linker_0, # of connection points: 2
#     Edge 29, Type (0, 0), BuildingBlock: ZUJKAS_clean_linker_0, # of connection points: 2
#     Edge 30, Type (0, 0), BuildingBlock: ZUJKAS_clean_linker_0, # of connection points: 2
#     Edge 31, Type (0, 0), BuildingBlock: ZUJKAS_clean_linker_0, # of connection points: 2
# Relax obj value: 0.508
# Max RMSD: 0.309
# Mean RMSD: 0.259
data_MOF--net-whb--node1-KUMBUR_clean_sbu_1--edge1-ZUJKAS_clean_linker_0
_symmetry_space_group_name_H-M    P1
_symmetry_Int_Tables_number       1
_symmetry_cell_setting            triclinic
loop_
_symmetry_equiv_pos_as_xyz
'x, y, z'
_cell_length_a     39.792416
_cell_length_b     39.592754
_cell_length_c     54.306683
_cell_angle_alpha  103.15289
_cell_angle_beta   89.415587
_cell_angle_gamma 101.37218
loop_
_atom_site_label
_atom_site_type_symbol
_atom_site_fract_x
_atom_site_fract_y
_atom_site_fract_z
_atom_type_partial_charge
Tb0 Tb 0.12035 0.35971 0.07758 0.0
C1 C 0.15753 0.33119 0.18093 0.0
N2 N 0.15491 0.30719 0.15852 0.0
C3 C 0.20666 0.29025 0.16911 0.0
C4 C 0.18573 0.33704 0.19791 0.0
C5 C 0.1777 0.28501 0.15322 0.0
C6 C 0.2111 0.31696 0.19131 0.0
C7 C 0.12927 0.36885 0.21223 0.0
C8 C 0.12987 0.34676 0.18797 0.0
C9 C 0.15831 0.37697 0.22862 0.0
C10 C 0.18659 0.36113 0.22143 0.0
Tb11 Tb 0.10871 0.30368 0.13252 0.0
N12 N 0.10218 0.33737 0.17183 0.0
C13 C 0.09893 0.38055 0.21964 0.0
C14 C 0.07174 0.34649 0.17961 0.0
C15 C 0.06982 0.36873 0.20343 0.0
H16 H 0.17394 0.26383 0.13633 0.0
H17 H 1.04595 0.37679 0.20924 0.0
H18 H 1.04755 0.32437 0.04397 0.0
H19 H 0.2508 0.3799 0.04594 0.0
H20 H 1.04921 0.33745 0.16712 0.0
H21 H 0.09733 0.39759 0.23812 0.0
H22 H 0.2032 0.39427 0.07321 0.0
H23 H 0.22533 0.2735 0.16433 0.0
H24 H 0.15857 0.39413 0.24729 0.0
H25 H 0.20822 0.36638 0.23465 0.0
H26 H 1.02925 0.28574 0.00201 0.0
H27 H 0.23325 0.32063 0.20379 0.0
H28 H 0.2392 0.33203 0.00701 0.0
N29 N 0.10067 0.32442 0.03884 0.0
C30 C 0.1247 0.31377 0.02268 0.0
C31 C 0.05621 0.29336 0.0076 0.0
C32 C 0.11544 0.2915 -0.00146 0.0
C33 C 0.06673 0.31551 0.03134 0.0
C34 C 0.08064 0.28085 -0.00875 0.0
N35 N 0.16589 0.35164 0.05205 0.0
C36 C 0.19815 0.37207 0.05703 0.0
C37 C 0.18466 0.31949 0.01285 0.0
C38 C 0.15866 0.32749 0.02974 0.0
C39 C 0.21845 0.33744 0.01941 0.0
C40 C 0.22509 0.36447 0.04134 0.0
H41 H 0.07244 0.26372 0.97288 0.0
H42 H 0.13464 0.26458 0.96357 0.0
H43 H 0.19542 0.28878 0.97624 0.0
O44 O 0.13156 0.39712 0.0551 0.0
O45 O 0.09504 0.30425 0.07368 0.0
O46 O 0.12656 0.27925 0.09612 0.0
O47 O 0.09682 0.40398 0.08541 0.0
O48 O 0.16781 0.3605 0.09956 0.0
O49 O 0.15931 0.30877 0.11423 0.0
O50 O 0.07376 0.25644 0.11771 0.0
O51 O 0.10056 0.35722 0.13547 0.0
O52 O 0.14169 0.38739 0.11533 0.0
O53 O 0.09559 0.26674 0.15529 0.0
O54 O 0.05969 0.31443 0.11998 0.0
O55 O 0.06606 0.34845 0.08926 0.0
C56 C 0.11227 0.27965 0.07466 0.0
C57 C 0.08742 0.42674 0.04993 0.0
C58 C 0.07767 0.4678 0.02456 0.0
C59 C 1.04455 0.44733 0.01785 0.0
C60 C 1.0544 0.40671 0.04292 0.0
C61 C 1.03308 0.41699 0.02699 0.0
C62 C 0.09898 0.4572 0.04069 0.0
C63 C 0.17971 0.33533 0.1071 0.0
C64 C 0.11043 0.41609 0.06647 0.0
C65 C 0.14121 0.28178 0.98216 0.0
C66 C 0.17582 0.29555 -0.01062 0.0
C67 C 0.12572 0.38401 0.13605 0.0
C68 C 1.03802 0.2342 0.14789 0.0
C69 C 1.00079 0.21837 0.18155 0.0
C70 C 0.97317 0.20609 0.16361 0.0
C71 C 1.00982 0.22204 0.13061 0.0
C72 C 1.0332 0.23277 0.17341 0.0
C73 C 0.97765 0.20837 0.13851 0.0
C74 C 1.04702 0.33077 0.10441 0.0
C75 C 0.07262 0.24615 0.13883 0.0
H76 H 1.02732 0.45501 0.00579 0.0
H77 H 1.04514 0.38323 0.04978 0.0
H78 H 1.00755 0.40143 0.02176 0.0
H79 H 0.12475 0.47233 0.04581 0.0
H80 H 0.9481 0.19377 0.16863 0.0
H81 H 1.01267 0.22257 0.11083 0.0
H82 H 1.05481 0.24268 0.18678 0.0
H83 H 0.95619 0.19874 0.12497 0.0
Tb84 Tb 0.41547 0.16561 0.59101 0.0
C85 C 0.31502 0.06196 0.49386 0.0
N86 N 0.3484 0.07773 0.49846 0.0
C87 C 0.36494 1.02855 0.46971 0.0
C88 C 0.30503 1.0283 0.47748 0.0
C89 C 0.37339 0.06219 0.48595 0.0
C90 C 0.33059 1.01126 0.46573 0.0
C91 C 0.25578 0.0673 0.49845 0.0
C92 C 0.29099 0.08102 0.50417 0.0
C93 C 0.24531 1.03302 0.48315 0.0
C94 C 0.26995 1.01349 0.47268 0.0
Tb95 Tb 0.36058 0.13122 0.52689 0.0
N96 N 0.30244 0.11418 0.51828 0.0
C97 C 0.2324 0.08894 0.50747 0.0
C98 C 0.27978 0.13603 0.52609 0.0
C99 C 0.24453 0.12363 0.52104 0.0
H100 H 0.39994 0.07551 0.48868 0.0
H101 H 0.2267 0.14084 0.52743 0.0
H102 H 0.37551 0.1275 0.63527 0.0
H103 H 0.47451 0.30387 0.60388 0.0
H104 H 0.28876 0.16311 0.53629 0.0
H105 H 0.20511 0.07953 0.50342 0.0
H106 H 0.46872 0.23942 0.58666 0.0
H107 H 0.3849 1.01604 0.46023 0.0
H108 H 0.21836 1.02183 0.4787 0.0
H109 H 0.26165 0.98752 0.46032 0.0
H110 H 0.33812 0.1435 0.67082 0.0
H111 H 0.32406 0.98534 0.45301 0.0
H112 H 0.43247 0.32618 0.63407 0.0
N113 N 0.38376 0.17822 0.62646 0.0
C114 C 0.38113 0.2125 0.63483 0.0
C115 C 0.34951 0.16308 0.66057 0.0
C116 C 0.36074 0.22318 0.6554 0.0
C117 C 0.37061 0.1541 0.64035 0.0
C118 C 0.34369 0.19757 0.66766 0.0
N119 N 0.42435 0.2256 0.60715 0.0
C120 C 0.45106 0.24895 0.60048 0.0
C121 C 0.40445 0.27374 0.63499 0.0
C122 C 0.40261 0.23731 0.62491 0.0
C123 C 0.43013 0.29794 0.62679 0.0
C124 C 0.45406 0.28544 0.60991 0.0
H125 H 0.32775 0.2046 0.68355 0.0
H126 H 0.34407 0.26802 0.6796 0.0
H127 H 0.38245 0.31246 0.66161 0.0
O128 O 0.46375 0.15069 0.5879 0.0
O129 O 0.40384 0.20352 0.5691 0.0
O130 O 0.34974 0.17953 0.55302 0.0
O131 O 0.44545 0.17232 0.62403 0.0
O132 O 0.43867 0.17196 0.5554 0.0
O133 O 0.41276 0.1209 0.52878 0.0
O134 O 0.35377 0.14003 0.49077 0.0
O135 O 0.3738 0.0854 0.53938 0.0
O136 O 0.39989 0.10587 0.5801 0.0
O137 O 0.39364 0.17408 0.51642 0.0
O138 O 0.33063 0.14025 0.56113 0.0
O139 O 0.36593 0.13015 0.59081 0.0
C140 C 0.37315 0.20775 0.56304 0.0
C141 C 0.50458 0.18674 0.61947 0.0
C142 C 0.54789 0.2157 0.65335 0.0
C143 C 0.56315 0.23844 0.63802 0.0
C144 C 0.52091 0.20879 0.60424 0.0
C145 C 0.55 0.23457 0.61354 0.0
C146 C 0.51872 0.18957 0.64352 0.0
C147 C 0.44061 0.14455 0.53712 0.0
C148 C 0.47136 0.16254 0.61189 0.0
C149 C 0.36003 0.25929 0.66411 0.0
C150 C 0.38192 0.2846 0.6539 0.0
C151 C 0.38657 0.07962 0.56027 0.0
C152 C 0.36124 0.20161 0.49397 0.0
C153 C 0.31103 0.22896 0.49513 0.0
C154 C 0.33279 0.2622 0.49763 0.0
C155 C 0.38269 0.23492 0.49615 0.0
C156 C 0.32563 0.19899 0.49304 0.0
C157 C 0.36845 0.26501 0.4978 0.0
C158 C 0.33549 0.1309 0.58228 0.0
C159 C 0.3753 0.17039 0.49595 0.0
H160 H 0.58507 0.25943 0.64486 0.0
H161 H 0.51092 0.20654 0.58539 0.0
H162 H 0.56213 0.25198 0.60186 0.0
H163 H 0.50656 0.17112 0.65445 0.0
H164 H 0.32231 0.28588 0.49953 0.0
H165 H 0.4103 0.23778 0.49731 0.0
H166 H 0.30897 0.17355 0.49193 0.0
H167 H 0.38511 0.29071 0.49986 0.0
Tb168 Tb 0.60215 0.30835 0.13231 0.0
C169 C 0.67545 0.37987 0.04257 0.0
N170 N 0.67123 0.39172 0.06758 0.0
C171 C 0.72726 0.42898 0.07167 0.0
C172 C 0.70626 0.39107 0.0311 0.0
C173 C 0.69595 0.41727 0.08203 0.0
C174 C 0.73268 0.41535 0.04617 0.0
C175 C 0.64913 0.34868 0.00171 0.0
C176 C 0.64753 0.3591 0.02821 0.0
C177 C 0.68037 0.35773 -0.00983 0.0
C178 C 0.70895 0.37892 0.00487 0.0
Tb179 Tb 0.62024 0.36936 0.08324 0.0
N180 N 0.6178 0.3521 0.0401 0.0
C181 C 0.61892 0.3311 0.98765 0.0
C182 C 0.58781 0.33731 0.02642 0.0
C183 C 0.58799 0.32598 4e-05 0.0
H184 H 0.69181 0.42807 0.1017 0.0
H185 H 0.56429 0.3134 -0.0107 0.0
H186 H 0.5538 0.34652 0.17518 0.0
H187 H 0.68956 0.22324 0.14132 0.0
H188 H 0.56383 0.33354 0.03594 0.0
H189 H 0.61897 0.32262 0.96723 0.0
H190 H 0.64932 0.2472 0.11889 0.0
H191 H 0.74713 0.44854 0.08333 0.0
H192 H 0.68232 0.34965 0.96985 0.0
H193 H 0.73253 0.38685 -0.00433 0.0
H194 H 0.5538 0.36607 0.22179 0.0
H195 H 0.75681 0.42466 0.03812 0.0
H196 H 0.7004 0.24571 0.18757 0.0
N197 N 0.59854 0.32481 0.17524 0.0
C198 C 0.62198 0.31642 0.18946 0.0
C199 C 0.5733 0.35229 0.21293 0.0
C200 C 0.62291 0.3266 0.21607 0.0
C201 C 0.57337 0.3412 0.18653 0.0
C202 C 0.59861 0.34556 0.22777 0.0
N203 N 0.63852 0.28354 0.15177 0.0
C204 C 0.65406 0.25723 0.13896 0.0
C205 C 0.66531 0.28186 0.19094 0.0
C206 C 0.6428 0.2947 0.17718 0.0
C207 C 0.68298 0.25646 0.17773 0.0
C208 C 0.67684 0.24363 0.15165 0.0
H209 H 0.5984 0.35395 0.2482 0.0
H210 H 0.64839 0.3239 0.25048 0.0
H211 H 0.68554 0.28443 0.2284 0.0
O212 O 0.5701 0.26661 0.14427 0.0
O213 O 0.60472 0.36515 0.1441 0.0
O214 O 0.64611 0.38956 0.1208 0.0
O215 O 0.56213 0.27591 0.10754 0.0
O216 O 0.65819 0.31981 0.12417 0.0
O217 O 0.66797 0.35325 0.09314 0.0
O218 O 0.59749 0.40926 0.10548 0.0
O219 O 0.59744 0.31284 0.06953 0.0
O220 O 0.62314 0.28753 0.09602 0.0
O221 O 0.60836 0.4084 0.06637 0.0
O222 O 0.56742 0.34038 0.08633 0.0
O223 O 0.56648 0.34339 0.12868 0.0
C224 C 0.63332 0.38743 0.14287 0.0
C225 C 0.55397 0.21658 0.11004 0.0
C226 C 0.57513 0.16246 0.10828 0.0
C227 C 0.55842 0.14733 0.08463 0.0
C228 C 0.53667 0.20095 0.08654 0.0
C229 C 0.5388 0.16643 0.07401 0.0
C230 C 0.57272 0.19686 0.12091 0.0
C231 C 0.67879 0.336 0.10892 0.0
C232 C 0.55438 0.25402 0.12217 0.0
C233 C 0.64693 0.31604 0.23 0.0
C234 C 0.66809 0.29358 0.21743 0.0
C235 C 0.61106 0.28676 0.07349 0.0
C236 C 0.61409 0.46447 0.09367 0.0
C237 C 0.62481 0.52091 0.08082 0.0
C238 C 0.64469 0.53665 0.10326 0.0
C239 C 0.63427 0.48063 0.11585 0.0
C240 C 0.60936 0.48478 0.07635 0.0
C241 C 0.64932 0.51659 0.12061 0.0
C242 C 0.55038 0.34265 0.10739 0.0
C243 C 0.59876 0.42633 0.08747 0.0
H244 H 0.56028 0.12082 0.07461 0.0
H245 H 0.52203 0.21563 0.07771 0.0
H246 H 0.52541 0.15453 0.05596 0.0
H247 H 0.58638 0.20848 0.13897 0.0
H248 H 0.65721 0.5643 0.10717 0.0
H249 H 0.63866 0.46552 0.1294 0.0
H250 H 0.59359 0.4723 0.05931 0.0
H251 H 0.66493 0.52889 0.13771 0.0
Tb252 Tb 0.34679 0.62895 0.54516 0.0
C253 C 0.31061 0.68021 0.6617 0.0
N254 N 0.31141 0.64842 0.64618 0.0
C255 C 0.33747 0.63102 0.67971 0.0
C256 C 0.32446 0.68947 0.68664 0.0
C257 C 0.3231 0.62314 0.65512 0.0
C258 C 0.33884 0.66464 0.69537 0.0
C259 C 0.28787 0.73374 0.66921 0.0
C260 C 0.29276 0.70187 0.65319 0.0
C261 C 0.30358 0.74454 0.69357 0.0
C262 C 0.32193 0.7224 0.70228 0.0
Tb263 Tb 0.29114 0.63951 0.60549 0.0
N264 N 0.27747 0.68985 0.62987 0.0
C265 C 0.26612 0.7528 0.66064 0.0
C266 C 0.25425 0.70688 0.62212 0.0
C267 C 0.24874 0.73895 0.63715 0.0
H268 H 0.32217 0.59715 0.64309 0.0
H269 H 0.23111 0.75293 0.63062 0.0
H270 H 0.40504 0.70285 0.5506 0.0
H271 H 0.2872 0.53489 0.46167 0.0
H272 H 0.24096 0.69627 0.60395 0.0
H273 H 0.26163 0.77747 0.67234 0.0
H274 H 0.3076 0.55467 0.50638 0.0
H275 H 0.34759 0.61123 0.6865 0.0
H276 H 0.30059 0.76921 0.70613 0.0
H277 H 0.33282 0.73032 0.72142 0.0
H278 H 0.4264 0.7456 0.52442 0.0
H279 H 0.34983 0.67065 0.71442 0.0
H280 H 0.2991 0.57627 0.43319 0.0
N281 N 0.37013 0.66875 0.52192 0.0
C282 C 0.35877 0.66167 0.49754 0.0
C283 C 0.40726 0.72213 0.51663 0.0
C284 C 0.37028 0.68506 0.48179 0.0
C285 C 0.39524 0.69778 0.53136 0.0
C286 C 0.39435 0.71601 0.49182 0.0
N287 N 0.32966 0.60706 0.50355 0.0
C288 C 0.31278 0.573 0.49421 0.0
C289 C 0.32691 0.61937 0.46223 0.0
C290 C 0.3376 0.6295 0.48796 0.0
C291 C 0.30787 0.58515 0.45285 0.0
C292 C 0.3012 0.56169 0.46885 0.0
H293 H 0.40384 0.73476 0.48039 0.0
H294 H 0.36658 0.69385 0.44401 0.0
H295 H 0.32845 0.63617 0.42684 0.0
O296 O 0.37571 0.60136 0.56248 0.0
O297 O 0.29078 0.61244 0.53876 0.0
O298 O 0.27234 0.65149 0.57143 0.0
O299 O 0.38989 0.61289 0.52657 0.0
O300 O 0.31254 0.58096 0.55285 0.0
O301 O 0.31584 0.59254 0.59587 0.0
O302 O 0.25025 0.62215 0.62727 0.0
O303 O 0.3438 0.63282 0.60674 0.0
O304 O 0.36966 0.66547 0.58032 0.0
O305 O 0.25151 0.59766 0.5877 0.0
O306 O 0.30916 0.69231 0.59539 0.0
O307 O 0.33792 0.68408 0.55727 0.0
C308 C 0.26797 0.63126 0.54847 0.0
C309 C 0.43395 0.61175 0.55531 0.0
C310 C 0.48721 0.59559 0.56539 0.0
C311 C 0.49917 0.63043 0.57933 0.0
C312 C 0.44654 0.64666 0.56877 0.0
C313 C 0.47889 0.65582 0.58092 0.0
C314 C 0.45435 0.58639 0.55364 0.0
C315 C 0.31378 0.56947 0.5738 0.0
C316 C 0.39845 0.60034 0.54527 0.0
C317 C 0.35836 0.6761 0.4564 0.0
C318 C 0.33666 0.64326 0.44662 0.0
C319 C 0.36837 0.65768 0.60251 0.0
C320 C 0.19668 0.60157 0.60456 0.0
C321 C 0.14318 0.615 0.62311 0.0
C322 C 0.12693 0.6035 0.59897 0.0
C323 C 0.17967 0.58937 0.58068 0.0
C324 C 0.17811 0.61407 0.62568 0.0
C325 C 0.14511 0.59068 0.57793 0.0
C326 C 0.32504 0.70456 0.57641 0.0
C327 C 0.23325 0.60014 0.6078 0.0
H328 H 0.52459 0.63828 0.5883 0.0
H329 H 0.43133 0.66671 0.57026 0.0
H330 H 0.48834 0.68272 0.59145 0.0
H331 H 0.44454 0.55937 0.54334 0.0
H332 H 0.10006 0.60388 0.59642 0.0
H333 H 0.19302 0.57885 0.5641 0.0
H334 H 0.19096 0.62344 0.64418 0.0
H335 H 0.13232 0.58156 0.55944 0.0
Tb336 Tb 0.57808 0.86904 0.88904 0.0
C337 C 0.57026 0.90597 0.77873 0.0
N338 N 0.59585 0.90257 0.7936 0.0
C339 C 0.62138 0.87233 0.75709 0.0
C340 C 0.56824 0.89149 0.75246 0.0
C341 C 0.62212 0.88732 0.78312 0.0
C342 C 0.59392 0.87379 0.74175 0.0
C343 C 0.52277 0.93439 0.77499 0.0
C344 C 0.54804 0.92691 0.78972 0.0
C345 C 0.51886 0.9181 0.74903 0.0
C346 C 0.54161 0.89661 0.73776 0.0
Tb347 Tb 0.59283 0.92418 0.83613 0.0
N348 N 0.5534 0.94253 0.8146 0.0
C349 C 0.50338 0.95915 0.7866 0.0
C350 C 0.53637 0.96857 0.82562 0.0
C351 C 0.51068 0.97682 0.81194 0.0
H352 H 0.64324 0.88592 0.79489 0.0
H353 H 0.49651 0.99671 0.82094 0.0
H354 H 0.5061 0.80962 0.87373 0.0
H355 H 0.63706 0.93307 0.98103 0.0
H356 H 0.54182 0.98203 0.84523 0.0
H357 H 0.48365 0.9657 0.77599 0.0
H358 H 0.63597 0.90888 0.9347 0.0
H359 H 0.64185 0.85951 0.74893 0.0
H360 H 0.49923 0.92298 0.73737 0.0
H361 H 0.53918 0.88523 0.71758 0.0
H362 H 0.45146 0.79156 0.89381 0.0
H363 H 0.5934 0.86224 0.72162 0.0
H364 H 0.58324 0.92608 0.00434 0.0
N365 N 0.52774 0.84856 0.90639 0.0
C366 C 0.52437 0.86263 0.93122 0.0
C367 C 0.47169 0.8118 0.90452 0.0
C368 C 0.49402 0.85285 0.94365 0.0
C369 C 0.50262 0.8221 0.8932 0.0
C370 C 0.46713 0.82768 0.92977 0.0
N371 N 0.58199 0.89011 0.93189 0.0
C372 C 0.61237 0.90602 0.94477 0.0
C373 C 0.552 0.89717 0.97091 0.0
C374 C 0.55272 0.88438 0.94454 0.0
C375 C 0.58261 0.91579 0.98405 0.0
C376 C 0.61307 0.91966 0.97096 0.0
H377 H 0.44331 0.81943 0.93858 0.0
H378 H 0.469 0.86047 0.9796 0.0
H379 H 0.51995 0.89934 0.00355 0.0
O380 O 0.60192 0.82872 0.86868 0.0
O381 O 0.60034 0.92601 0.89996 0.0
O382 O 0.57256 0.94735 0.87208 0.0
O383 O 0.59018 0.83197 0.9079 0.0
O384 O 0.63049 0.89829 0.88444 0.0
O385 O 0.63067 0.89205 0.84165 0.0
O386 O 0.62063 0.9662 0.8218 0.0
O387 O 0.59333 0.86801 0.82805 0.0
O388 O 0.55205 0.84497 0.85187 0.0
O389 O 0.63362 0.95917 0.85839 0.0
O390 O 0.53723 0.91145 0.84496 0.0
O391 O 0.52933 0.88302 0.87875 0.0
C392 C 0.58632 0.95104 0.89459 0.0
C393 C 0.58578 0.77486 0.88224 0.0
C394 C 0.57722 0.71924 0.8961 0.0
C395 C 0.5566 0.70247 0.87415 0.0
C396 C 0.5649 0.75767 0.86055 0.0
C397 C 0.55056 0.72162 0.85654 0.0
C398 C 0.59189 0.7555 0.89985 0.0
C399 C 0.64727 0.89485 0.8632 0.0
C400 C 0.60051 0.81311 0.88749 0.0
C401 C 0.49222 0.8673 0.96968 0.0
C402 C 0.52122 0.88945 0.98332 0.0
C403 C 0.56528 0.84531 0.82971 0.0
C404 C 0.64413 1.01803 0.85365 0.0
C405 C 0.64465 0.07817 0.84874 0.0
C406 C 0.66148 0.09162 0.87269 0.0
C407 C 0.66076 1.03226 0.87752 0.0
C408 C 0.6353 1.04108 0.83973 0.0
C409 C 0.669 0.06878 0.88702 0.0
C410 C 0.51745 0.8972 0.86147 0.0
C411 C 0.63937 0.97957 0.84258 0.0
H412 H 0.5446 0.67472 0.87081 0.0
H413 H 0.55947 0.77203 0.8468 0.0
H414 H 0.53441 0.70852 0.83983 0.0
H415 H 0.60816 0.76879 0.91651 0.0
H416 H 0.66997 0.11977 0.88018 0.0
H417 H 0.6681 1.01518 0.88863 0.0
H418 H 0.62171 1.02993 0.82166 0.0
H419 H 0.6824 0.07949 0.9052 0.0
Tb420 Tb 0.91395 0.58634 0.36831 0.0
C421 C 0.846 0.55371 0.47283 0.0
N422 N 0.83516 0.54889 0.44852 0.0
C423 C 0.79885 0.49354 0.45062 0.0
C424 C 0.83463 0.52809 0.48691 0.0
C425 C 0.8104 0.52022 0.43769 0.0
C426 C 0.81136 0.49728 0.47526 0.0
C427 C 0.87632 0.5935 0.50987 0.0
C428 C 0.86635 0.58576 0.48407 0.0
C429 C 0.86671 0.56744 0.52381 0.0
C430 C 0.84587 0.53475 0.51234 0.0
Tb431 Tb 0.85797 0.59234 0.42818 0.0
N432 N 0.8741 0.61034 0.47008 0.0
C433 C 0.89448 0.62756 0.521 0.0
C434 C 0.89016 0.64415 0.4811 0.0
C435 C 0.90102 0.65314 0.50662 0.0
H436 H 0.80042 0.51739 0.41873 0.0
H437 H 0.91438 0.67977 0.51517 0.0
H438 H 0.88093 0.6285 0.33144 0.0
H439 H 0.97933 0.47705 0.34189 0.0
H440 H 0.89522 0.66402 0.47009 0.0
H441 H 0.90268 0.63464 0.54079 0.0
H442 H 0.96658 0.53181 0.3694 0.0
H443 H 0.78008 0.47034 0.44169 0.0
H444 H 0.87436 0.5727 0.54363 0.0
H445 H 0.83774 0.51529 0.52348 0.0
H446 H 0.85589 0.61472 0.28794 0.0
H447 H 0.80203 0.47685 0.48538 0.0
H448 H 0.95004 0.45288 0.29969 0.0
N449 N 0.89423 0.57816 0.32755 0.0
C450 C 0.89646 0.54708 0.31159 0.0
C451 C 0.86706 0.59531 0.2944 0.0
C452 C 0.88291 0.53806 0.28657 0.0
C453 C 0.88124 0.60304 0.31904 0.0
C454 C 0.86723 0.56235 0.27825 0.0
N455 N 0.92995 0.53772 0.34335 0.0
C456 C 0.95388 0.52143 0.351 0.0
C457 C 0.92167 0.49507 0.30337 0.0
C458 C 0.9153 0.526 0.31982 0.0
C459 C 0.94434 0.47677 0.31173 0.0
C460 C 0.96102 0.49041 0.3355 0.0
H461 H 0.85638 0.55647 0.25917 0.0
H462 H 0.8763 0.49819 0.25128 0.0
H463 H 0.9105 0.46048 0.266 0.0
O464 O 0.95539 0.60559 0.34766 0.0
O465 O 0.86078 0.59098 0.36663 0.0
O466 O 0.83551 0.55673 0.39229 0.0
O467 O 0.9513 0.62991 0.38697 0.0
O468 O 0.89717 0.53256 0.37714 0.0
O469 O 0.87011 0.5389 0.41595 0.0
O470 O 0.82426 0.61596 0.41119 0.0
O471 O 0.91371 0.61235 0.43452 0.0
O472 O 0.93331 0.57423 0.40209 0.0
O473 O 0.81734 0.60936 0.44925 0.0
O474 O 0.88931 0.6421 0.42165 0.0
O475 O 0.88709 0.63172 0.37854 0.0
C476 C 0.83682 0.56518 0.37027 0.0
C477 C 1.0072 0.62748 0.3727 0.0
C478 C 0.06012 0.60702 0.3597 0.0
C479 C 0.07685 0.62866 0.38207 0.0
C480 C 1.02443 0.64901 0.39496 0.0
C481 C 0.05898 0.64941 0.39962 0.0
C482 C 1.02526 0.60643 0.35521 0.0
C483 C 0.88258 0.51939 0.39615 0.0
C484 C 0.97087 0.62795 0.36761 0.0
C485 C 0.88694 0.50595 0.27049 0.0
C486 C 0.90639 0.48447 0.27887 0.0
C487 C 0.93744 0.59472 0.42493 0.0
C488 C 0.76825 0.59286 0.42163 0.0
C489 C 0.72038 0.54806 0.42992 0.0
C490 C 0.70917 0.54091 0.40442 0.0
C491 C 0.75591 0.586 0.39644 0.0
C492 C 0.7496 0.57465 0.43839 0.0
C493 C 0.72659 0.56015 0.38795 0.0
C494 C 0.88747 0.65384 0.40093 0.0
C495 C 0.80286 0.61456 0.42936 0.0
H496 H 0.10368 0.62949 0.38595 0.0
H497 H 1.01119 0.66561 0.40874 0.0
H498 H 0.07207 0.66612 0.41676 0.0
H499 H 1.01252 0.59022 0.33772 0.0
H500 H 0.68711 0.5203 0.39708 0.0
H501 H 0.76962 0.59966 0.38306 0.0
H502 H 0.75835 0.58083 0.45801 0.0
H503 H 0.71777 0.55445 0.36837 0.0
Tb504 Tb 0.08965 0.91732 0.82813 0.0
C505 C 0.06683 0.92924 0.94654 0.0
N506 N 0.09375 0.92377 0.9318 0.0
C507 C 0.13182 0.96659 0.96288 0.0
C508 C 0.07095 0.95455 0.96973 0.0
C509 C 0.12629 0.94079 0.94012 0.0
C510 C 0.10392 0.97406 0.97751 0.0
C511 C 1.00766 0.90832 0.95521 0.0
C512 C 1.0358 0.90682 0.93936 0.0
C513 C 1.01074 0.93502 0.97759 0.0
C514 C 1.04238 0.95822 0.98482 0.0
Tb515 Tb 0.08149 0.88458 0.89351 0.0
N516 N 1.03435 0.88123 0.91791 0.0
C517 C 0.97804 0.88193 0.94864 0.0
C518 C 1.00659 0.85389 0.91238 0.0
C519 C 0.97777 0.85416 0.9274 0.0
H520 H 0.14793 0.93521 0.92888 0.0
H521 H 0.95539 0.83308 0.92255 0.0
H522 H 1.04167 0.97688 0.83084 0.0
H523 H 0.11793 0.81761 0.74943 0.0
H524 H 1.00636 0.83258 0.89585 0.0
H525 H 0.95579 0.88203 0.96031 0.0
H526 H 0.12755 0.85779 0.79195 0.0
H527 H 0.15756 0.98077 0.96907 0.0
H528 H 0.98927 0.93707 -0.0101 0.0
H529 H 1.04483 0.97787 0.00256 0.0
H530 H 0.99495 0.9866 0.80511 0.0
H531 H 0.10826 0.9939 -0.00483 0.0
H532 H 0.0688 0.81814 0.72205 0.0
N533 N 1.04752 0.92927 0.80518 0.0
C534 C 1.03866 0.90728 0.78223 0.0
C535 C 1.00686 0.96401 0.79852 0.0
C536 C 1.01258 0.91189 0.76672 0.0
C537 C 1.03325 0.95845 0.81304 0.0
C538 C 0.99611 0.94031 0.77541 0.0
N539 N 0.08374 0.88009 0.78886 0.0
C540 C 0.10589 0.85805 0.78022 0.0
C541 C 1.05116 0.8595 0.74928 0.0
C542 C 0.0576 0.88171 0.77369 0.0
C543 C 0.07282 0.83571 0.7407 0.0
C544 C 0.10058 0.83533 0.75613 0.0
H545 H 0.97587 0.94481 0.76409 0.0
H546 H 0.9846 0.89163 0.73062 0.0
H547 H 1.01844 0.84558 0.71533 0.0
O548 O 0.12915 0.96172 0.84153 0.0
O549 O 0.09076 0.86438 0.83227 0.0
O550 O 1.05286 0.84821 0.8607 0.0
O551 O 0.11673 0.9423 0.80161 0.0
O552 O 0.13011 0.89109 0.83872 0.0
O553 O 0.13379 0.90695 0.88228 0.0
O554 O 0.08804 0.85489 0.91991 0.0
O555 O 0.10692 0.93673 0.88953 0.0
O556 O 0.07521 0.95307 0.86168 0.0
O557 O 0.10381 0.83986 0.88154 0.0
O558 O 1.03208 0.89347 0.87962 0.0
O559 O 1.03566 0.90929 0.84028 0.0
C560 C 0.06341 0.84335 0.83752 0.0
C561 C 0.13274 1.00392 0.81616 0.0
C562 C 0.14383 0.04781 0.79026 0.0
C563 C 0.12861 0.07084 0.80857 0.0
C564 C 0.11747 1.02726 0.83412 0.0
C565 C 0.11558 0.06056 0.83032 0.0
C566 C 0.14591 1.01439 0.79436 0.0
C567 C 0.14853 0.89944 0.86022 0.0
C568 C 0.13377 0.96796 0.81904 0.0
C569 C 1.00478 0.8888 0.74279 0.0
C570 C 1.02406 0.86261 0.73408 0.0
C571 C 0.0891 0.95873 0.88434 0.0
C572 C 0.13374 0.82489 0.91358 0.0
C573 C 0.16016 0.78484 0.93152 0.0
C574 C 0.19145 0.80944 0.93446 0.0
C575 C 0.16493 0.8493 0.91691 0.0
C576 C 0.13145 0.79277 0.92083 0.0
C577 C 0.19377 0.84142 0.92708 0.0
C578 C 1.01827 0.90156 0.86001 0.0
C579 C 0.10271 0.83301 0.90394 0.0
H580 H 0.12632 0.09659 0.8059 0.0
H581 H 0.10675 1.01976 0.85096 0.0
H582 H 0.1037 0.07839 0.8442 0.0
H583 H 0.1579 0.99643 0.78061 0.0
H584 H 0.21406 0.80396 0.94246 0.0
H585 H 0.16672 0.87448 0.91199 0.0
H586 H 0.10695 0.77446 0.91888 0.0
H587 H 0.21787 0.86033 0.92953 0.0
Tb588 Tb 0.85104 0.09788 0.45102 0.0
C589 C 0.76741 0.99316 0.34928 0.0
N590 N 0.79779 1.01568 0.34999 0.0
C591 C 0.81074 0.98223 0.30956 0.0
C592 C 0.75671 0.96467 0.32831 0.0
C593 C 0.82016 1.00989 0.33097 0.0
C594 C 0.77855 0.95986 0.308 0.0
C595 C 0.71961 0.97106 0.3726 0.0
C596 C 0.74921 0.99666 0.37087 0.0
C597 C 0.70689 0.94428 0.35114 0.0
C598 C 0.7255 0.94107 0.32894 0.0
Tb599 Tb 0.80912 0.06458 0.38277 0.0
N600 N 0.76369 1.02192 0.39127 0.0
C601 C 0.70552 0.97136 0.39627 0.0
C602 C 0.75296 1.01828 0.41477 0.0
C603 C 0.72306 0.99429 0.4176 0.0
H604 H 0.84498 1.02723 0.332 0.0
H605 H 0.71419 0.99279 0.43631 0.0
H606 H 0.80392 1.03267 0.47419 0.0
H607 H 0.89756 0.23609 0.49413 0.0
H608 H 0.7675 1.0328 0.43163 0.0
H609 H 0.68287 0.95218 0.39852 0.0
H610 H 0.89587 0.17993 0.46247 0.0
H611 H 0.82826 0.97822 0.29429 0.0
H612 H 0.68388 0.92475 0.35197 0.0
H613 H 0.71646 0.91929 0.31291 0.0
H614 H 0.76983 1.0274 0.51141 0.0
H615 H 0.77136 0.93827 0.29152 0.0
H616 H 0.86092 0.23722 0.53132 0.0
N617 N 0.81934 0.08896 0.48539 0.0
C618 C 0.81854 0.11828 0.50394 0.0
C619 C 0.78329 0.05318 0.50949 0.0
C620 C 0.79937 0.11638 0.52574 0.0
C621 C 0.80277 0.05639 0.48824 0.0
C622 C 0.78132 0.08332 0.52822 0.0
N623 N 0.85667 0.15037 0.48039 0.0
C624 C 0.87883 0.18052 0.47809 0.0
C625 C 0.83831 0.18133 0.52011 0.0
C626 C 0.83753 0.15021 0.50115 0.0
C627 C 0.85958 0.21272 0.51719 0.0
C628 C 0.88025 0.21221 0.49621 0.0
H629 H 0.76623 0.08071 0.54465 0.0
H630 H 0.78431 0.14657 0.56116 0.0
H631 H 0.81856 0.20352 0.55627 0.0
O632 O 0.88712 0.06466 0.4478 0.0
O633 O 0.85151 0.1411 0.43076 0.0
O634 O 0.80863 0.12154 0.39913 0.0
O635 O 0.8922 0.11238 0.47747 0.0
O636 O 0.88107 0.11631 0.4211 0.0
O637 O 0.86334 0.0668 0.39099 0.0
O638 O 0.78427 0.0701 0.3499 0.0
O639 O 0.83765 1.02776 0.39369 0.0
O640 O 0.83066 1.03958 0.43657 0.0
O641 O 0.83855 0.0891 0.35748 0.0
O642 O 0.77379 0.08851 0.40992 0.0
O643 O 0.79525 0.0952 0.45119 0.0
C644 C 0.8306 0.14735 0.41415 0.0
C645 C 0.91993 0.06875 0.48541 0.0
C646 C 0.9686 0.07281 0.51349 0.0
C647 C 0.9533 1.04015 0.51863 0.0
C648 C 0.9043 1.03656 0.49101 0.0
C649 C 0.92106 1.02233 0.50761 0.0
C650 C 0.95168 0.08675 0.49686 0.0
C651 C 0.8853 0.09645 0.39901 0.0
C652 C 0.90508 0.08492 0.46754 0.0
C653 C 0.79908 0.14744 0.54437 0.0
C654 C 0.81852 0.17987 0.54155 0.0
C655 C 0.83538 1.0173 0.41511 0.0
C656 C 0.81157 0.11951 0.33363 0.0
C657 C 0.79293 0.14575 0.30099 0.0
C658 C 0.81362 0.17848 0.31271 0.0
C659 C 0.833 0.15216 0.34462 0.0
C660 C 0.79169 0.11652 0.31183 0.0
C661 C 0.83355 0.18156 0.3344 0.0
C662 C 0.77116 0.09635 0.43493 0.0
C663 C 0.81262 0.08736 0.34266 0.0
H664 H 0.96618 1.0286 0.53113 0.0
H665 H 0.87953 1.0225 0.48253 0.0
H666 H 0.90917 0.9973 0.51177 0.0
H667 H 0.96383 0.11144 0.49217 0.0
H668 H 0.81523 0.20137 0.30467 0.0
H669 H 0.84981 0.15488 0.36078 0.0
H670 H 0.77575 0.09115 0.303 0.0
H671 H 0.85004 0.20661 0.343 0.0
H672 H 0.89958 0.06328 0.35139 0.0
H673 H 0.92805 0.09084 0.31903 0.0
H674 H 0.95486 0.19053 0.37388 0.0
H675 H 0.92384 0.16357 0.40589 0.0
H676 H 0.93165 0.20294 0.33479 0.0
H677 H 1.02317 0.11681 0.30088 0.0
H678 H 0.98111 0.08976 0.29831 0.0
H679 H 0.99957 0.11391 0.32907 0.0
C680 C 0.91177 0.091 0.35663 0.0
C681 C 0.90867 0.11141 0.38103 0.0
C682 C 0.92853 0.1067 0.33815 0.0
C683 C 0.94416 0.14277 0.34396 0.0
C684 C 0.94297 0.16269 0.36882 0.0
H685 H 1.04789 0.20804 0.21484 0.0
H686 H 1.03861 0.19821 0.2571 0.0
C687 C 0.92536 0.14718 0.38717 0.0
C688 C 0.95891 0.16016 0.32359 0.0
H689 H 1.00536 0.14701 0.27042 0.0
C690 C 0.94842 0.19111 0.32103 0.0
C691 C 0.98151 0.14552 0.30588 0.0
C692 C 0.99726 0.11493 0.30891 0.0
C693 C 0.95845 0.20668 0.30063 0.0
C694 C 0.97795 0.18974 0.28141 0.0
C695 C 0.98989 0.15986 0.28473 0.0
C696 C 0.98481 0.20109 0.25715 0.0
C697 C 0.94814 0.24126 0.30023 0.0
C698 C 0.95802 0.20696 0.24305 0.0
C699 C 0.96368 0.21444 0.21926 0.0
C700 C 0.99592 0.21452 0.20825 0.0
C701 C 1.02283 0.20894 0.22255 0.0
C702 C 1.01742 0.20274 0.24676 0.0
H703 H 0.94711 0.25734 0.31978 0.0
H704 H 0.96619 0.25719 0.28952 0.0
H705 H 0.922 0.23577 0.29143 0.0
H706 H 0.93231 0.20476 0.25004 0.0
H707 H 0.94238 0.21945 0.20937 0.0
H708 H 0.51357 0.19883 0.6947 0.0
H709 H 0.53807 0.19202 0.73314 0.0
H710 H 0.63882 0.23807 0.71224 0.0
H711 H 0.61519 0.23932 0.67153 0.0
H712 H 0.64743 0.18843 0.727 0.0
H713 H 0.56689 0.24641 0.79979 0.0
H714 H 0.53741 0.21483 0.77731 0.0
H715 H 0.56399 0.25223 0.76796 0.0
C716 C 0.54106 0.20697 0.69783 0.0
C717 C 0.56232 0.21846 0.67922 0.0
C718 C 0.55502 0.20423 0.72054 0.0
C719 C 0.59042 0.21507 0.72615 0.0
C720 C 0.61142 0.22931 0.70851 0.0
H721 H 0.63385 0.14682 0.86362 0.0
H722 H 0.62875 0.18738 0.83689 0.0
C723 C 0.59767 0.23046 0.68518 0.0
C724 C 0.60565 0.20652 0.74839 0.0
H725 H 0.58561 0.19255 0.80694 0.0
C726 C 0.63439 0.19045 0.74474 0.0
C727 C 0.59008 0.21014 0.7722 0.0
C728 C 0.5632 0.23232 0.77953 0.0
C729 C 0.6457 0.17507 0.76309 0.0
C730 C 0.62626 0.17326 0.7849 0.0
C731 C 0.59976 0.19239 0.78976 0.0
C732 C 0.63116 0.1494 0.80155 0.0
C733 C 0.67822 0.16069 0.75857 0.0
C734 C 0.63373 0.11429 0.79079 0.0
C735 C 0.63847 0.09155 0.806 0.0
C736 C 0.63886 0.10257 0.83257 0.0
C737 C 0.63466 0.13737 0.84334 0.0
C738 C 0.63128 0.16062 0.82802 0.0
H739 H 0.69696 0.17753 0.74886 0.0
H740 H 0.69051 0.15934 0.77649 0.0
H741 H 0.6723 0.13382 0.74591 0.0
H742 H 0.63211 0.10425 0.77048 0.0
H743 H 0.64226 0.06545 0.79666 0.0
H744 H 0.80213 0.49603 0.36 0.0
H745 H 0.76467 0.46473 0.32267 0.0
H746 H 0.77786 0.56142 0.29648 0.0
H747 H 0.81322 0.59284 0.33424 0.0
H748 H 0.71409 0.52796 0.28889 0.0
H749 H 0.79795 0.4326 0.25258 0.0
H750 H 0.78301 0.43069 0.28362 0.0
H751 H 0.81087 0.47016 0.27879 0.0
C752 C 0.79657 0.51055 0.34637 0.0
C753 C 0.81133 0.54661 0.34958 0.0
C754 C 0.77558 0.49259 0.3249 0.0
C755 C 0.76924 0.51043 0.30629 0.0
C756 C 0.78266 0.54686 0.31029 0.0
H757 H 0.7024 0.4139 0.14929 0.0
H758 H 0.73475 0.44443 0.18892 0.0
C759 C 0.80323 0.56475 0.33176 0.0
C760 C 0.74875 0.49165 0.28257 0.0
H761 H 0.74481 0.42377 0.23024 0.0
C762 C 0.72082 0.50515 0.27608 0.0
C763 C 0.75797 0.4624 0.2655 0.0
C764 C 0.78928 0.44829 0.27028 0.0
C765 C 0.70189 0.49035 0.25315 0.0
C766 C 0.71014 0.46013 0.23655 0.0
C767 C 0.73816 0.44666 0.243 0.0
C768 C 0.69031 0.44236 0.21233 0.0
C769 C 0.67407 0.5082 0.24664 0.0
C770 C 0.65453 0.43111 0.2121 0.0
C771 C 0.63599 0.41466 0.18938 0.0
C772 C 0.65282 0.4077 0.16649 0.0
C773 C 0.68863 0.41893 0.16663 0.0
C774 C 0.70718 0.43609 0.18933 0.0
H775 H 0.67874 0.53659 0.25663 0.0
H776 H 0.67215 0.50643 0.22599 0.0
H777 H 0.64909 0.49519 0.2527 0.0
H778 H 0.64084 0.43486 0.22952 0.0
H779 H 0.60838 0.40757 0.18974 0.0
H780 H 0.14566 0.60079 0.6699 0.0
H781 H 0.11994 0.62848 0.7084 0.0
H782 H 0.07208 0.68722 0.66607 0.0
H783 H 0.09808 0.65996 0.62746 0.0
H784 H 0.13541 0.70288 0.72633 0.0
H785 H 0.99498 0.65193 0.71189 0.0
H786 H 1.02614 0.62935 0.69436 0.0
H787 H 1.01604 0.66766 0.68601 0.0
C788 C 0.12941 0.61938 0.66873 0.0
C789 C 0.12419 0.62849 0.6457 0.0
C790 C 0.11451 0.63491 0.69069 0.0
C791 C 0.09384 0.65957 0.69 0.0
C792 C 0.08737 0.66766 0.66687 0.0
H793 H 1.02519 0.8253 0.79392 0.0
H794 H 1.02758 0.7741 0.75918 0.0
C795 C 0.10233 0.65215 0.64486 0.0
C796 C 0.083 0.68021 0.71392 0.0
H797 H 1.0133 0.7017 0.74631 0.0
C798 C 0.10873 0.7023 0.7309 0.0
C799 C 1.04817 0.67956 0.71959 0.0
C800 C 1.01965 0.65566 0.70213 0.0
C801 C 0.10069 0.72474 0.75308 0.0
C802 C 0.06579 0.72423 0.75885 0.0
C803 C 1.03998 0.70172 0.74201 0.0
C804 C 0.05611 0.74923 0.78119 0.0
C805 C 0.12982 0.74981 0.76946 0.0
C806 C 0.06892 0.75077 0.80552 0.0
C807 C 0.06821 0.78036 0.82512 0.0
C808 C 1.05392 0.80816 0.82066 0.0
C809 C 1.03701 0.80436 0.79741 0.0
C810 C 1.03817 0.77505 0.77769 0.0
H811 H 0.15379 0.75367 0.75887 0.0
H812 H 0.12333 0.77611 0.77711 0.0
H813 H 0.13514 0.7386 0.78564 0.0
H814 H 0.08197 0.73055 0.8088 0.0
H815 H 0.08125 0.78276 0.84302 0.0
H816 H 0.3243 0.07269 0.6012 0.0
H817 H 0.28393 0.05941 0.63345 0.0
H818 H 0.24221 0.15134 0.63102 0.0
H819 H 0.28232 0.16412 0.59795 0.0
H820 H 0.28663 0.1048 0.67935 0.0
H821 H 0.15574 0.07715 0.63523 0.0
H822 H 0.1937 0.0759 0.61678 0.0
H823 H 0.18312 0.11762 0.63179 0.0
C824 C 0.30574 0.08939 0.60698 0.0
C825 C 0.30617 0.11929 0.59713 0.0
C826 C 0.28281 0.0819 0.62547 0.0
C827 C 0.26 0.10432 0.63467 0.0
C828 C 0.25914 0.1333 0.6239 0.0
H829 H 0.18056 0.11248 0.78618 0.0
H830 H 0.20587 0.12904 0.7483 0.0
C831 C 0.28197 0.14058 0.60503 0.0
C832 C 0.24031 0.09924 0.65737 0.0
H833 H 0.15956 0.08044 0.67932 0.0
C834 C 0.25886 0.09972 0.67935 0.0
C835 C 0.20405 0.09227 0.65729 0.0
C836 C 0.18286 0.09038 0.63398 0.0
C837 C 0.24228 0.09305 0.70114 0.0
C838 C 0.20606 0.08627 0.70117 0.0
C839 C 0.18736 0.08598 0.67928 0.0
C840 C 0.18744 0.07766 0.72345 0.0
C841 C 0.26373 0.09221 0.72369 0.0
C842 C 0.16776 0.04364 0.72184 0.0
C843 C 0.15308 1.03414 0.74342 0.0
C844 C 0.1577 0.05856 0.76702 0.0
C845 C 0.17637 0.09307 0.76832 0.0
C846 C 0.19104 0.10252 0.74673 0.0
H847 H 0.29056 0.09039 0.71869 0.0
H848 H 0.26445 0.11687 0.73848 0.0
H849 H 0.25247 0.06943 0.73191 0.0
H850 H 0.1646 1.02409 0.70403 0.0
H851 H 0.13829 1.00758 0.74165 0.0
H852 H 0.63507 0.14387 0.0919 0.0
H853 H 0.67708 0.12709 0.11735 0.0
H854 H 0.60543 0.12532 0.17747 0.0
H855 H 0.56372 0.1418 0.15211 0.0
H856 H 0.70198 0.17205 0.16236 0.0
H857 H 0.6471 1.03994 0.17882 0.0
H858 H 0.63233 0.05579 0.15301 0.0
H859 H 0.6165 0.06834 0.18427 0.0
C860 C 0.62796 0.13832 0.11011 0.0
C861 C 0.59629 0.14364 0.12012 0.0
C862 C 0.65191 0.12898 0.12464 0.0
C863 C 0.64416 0.12452 0.14914 0.0
C864 C 0.61162 0.12771 0.15839 0.0
H865 H 0.75452 0.19019 0.28897 0.0
H866 H 0.72249 0.18297 0.24928 0.0
C867 C 0.58787 0.13723 0.14399 0.0
C868 C 0.67136 0.12255 0.16675 0.0
H869 H 0.68702 0.07906 0.21149 0.0
C870 C 0.69921 0.15127 0.1727 0.0
C871 C 0.66781 0.09536 0.18008 0.0
C872 C 0.63947 0.06294 0.17352 0.0
C873 C 0.72237 0.1547 0.19278 0.0
C874 C 0.71712 0.129 0.20748 0.0
C875 C 0.69068 0.09903 0.20043 0.0
C876 C 0.73741 0.13377 0.2311 0.0
C877 C 0.75171 0.18627 0.19841 0.0
C878 C 0.75563 0.10804 0.23423 0.0
C879 C 0.77371 0.11199 0.25693 0.0
C880 C 0.77371 0.14166 0.27694 0.0
C881 C 0.75535 0.16733 0.27376 0.0
C882 C 0.73718 0.16329 0.25109 0.0
H883 H 0.75864 0.19651 0.18122 0.0
H884 H 0.74387 0.20785 0.21276 0.0
H885 H 0.77477 0.1796 0.20596 0.0
H886 H 0.75594 0.08498 0.21907 0.0
H887 H 0.78799 0.09198 0.25874 0.0
H888 H 0.59232 0.8191 0.78506 0.0
H889 H 0.5618 0.79073 0.74459 0.0
H890 H 0.46524 0.79053 0.78157 0.0
H891 H 0.49594 0.8217 0.82176 0.0
H892 H 0.52262 0.731 0.72771 0.0
H893 H 0.44664 0.83269 0.72459 0.0
H894 H 0.48032 0.83943 0.74819 0.0
H895 H 0.43796 0.81551 0.75231 0.0
C896 C 0.56457 0.81377 0.78438 0.0
C897 C 0.54651 0.82373 0.80628 0.0
C898 C 0.54711 0.79713 0.76131 0.0
C899 C 0.5111 0.78937 0.75975 0.0
C900 C 0.49297 0.7974 0.78201 0.0
H901 H 0.39045 0.63276 0.64059 0.0
H902 H 0.42589 0.66618 0.6778 0.0
C903 C 0.51053 0.81468 0.80507 0.0
C904 C 0.49281 0.77194 0.73494 0.0
H905 H 0.42861 0.77652 0.69524 0.0
C906 C 0.50228 0.74121 0.72055 0.0
C907 C 0.46689 0.78565 0.7251 0.0
C908 C 0.45765 0.82036 0.73823 0.0
C909 C 0.48596 0.7233 0.69711 0.0
C910 C 0.45825 0.73545 0.68822 0.0
C911 C 0.44948 0.76682 0.70217 0.0
C912 C 0.43712 0.71519 0.66516 0.0
C913 C 0.49908 0.69185 0.682 0.0
C914 C 0.43063 0.73169 0.64582 0.0
C915 C 0.40913 0.71277 0.62486 0.0
C916 C 0.3937 0.67715 0.62304 0.0
C917 C 0.40115 0.66048 0.64193 0.0
C918 C 0.42205 0.67941 0.66298 0.0
H919 H 0.52682 0.69422 0.68627 0.0
H920 H 0.48516 0.66742 0.68719 0.0
H921 H 0.49533 0.68889 0.66133 0.0
H922 H 0.44189 0.75928 0.64707 0.0
H923 H 0.40381 0.72623 0.61051 0.0
H924 H 1.04063 0.5378 0.335 0.0
H925 H 0.06818 0.50571 0.29917 0.0
H926 H 0.14939 0.59732 0.30443 0.0
H927 H 0.12179 0.62972 0.34031 0.0
H928 H 0.11493 0.57 0.25605 0.0
H929 H 0.1569 0.46456 0.29244 0.0
H930 H 0.1137 0.46885 0.30013 0.0
H931 H 0.14871 0.50473 0.31301 0.0
C932 C 0.06465 0.55088 0.32876 0.0
C933 C 0.07908 0.58622 0.34033 0.0
C934 C 0.08051 0.53245 0.30847 0.0
C935 C 0.11102 0.54906 0.29941 0.0
C936 C 0.12606 0.58399 0.31139 0.0
H937 H 0.18449 0.41818 0.16325 0.0
H938 H 0.18941 0.46416 0.20299 0.0
C939 C 0.11035 0.60237 0.33187 0.0
C940 C 0.12462 0.53109 0.27566 0.0
H941 H 0.14795 0.45352 0.24722 0.0
C942 C 0.12295 0.54492 0.2542 0.0
C943 C 0.13541 0.49862 0.27336 0.0
C944 C 0.13914 0.48344 0.29602 0.0
C945 C 0.12912 0.52565 0.23013 0.0
C946 C 0.13707 0.49184 0.22759 0.0
C947 C 0.14153 0.47934 0.24926 0.0
C948 C 0.13567 0.46703 0.20267 0.0
C949 C 0.12552 0.54079 0.20742 0.0
C950 C 0.1039 0.45364 0.1896 0.0
C951 C 0.10104 0.42736 0.16737 0.0
C952 C 0.12995 0.41431 0.15778 0.0
C953 C 0.16203 0.4284 0.17031 0.0
C954 C 0.16481 0.4544 0.19291 0.0
H955 H 0.12904 0.57011 0.21283 0.0
H956 H 0.1444 0.53338 0.19302 0.0
H957 H 0.09939 0.52999 0.19866 0.0
H958 H 0.08104 0.4626 0.19712 0.0
H959 H 0.07605 0.41659 0.15797 0.0
H960 H 0.14294 0.99764 0.91506 0.0
H961 H 0.14466 0.0531 0.94649 0.0
H962 H 1.04133 0.05409 0.92378 0.0
H963 H 1.03919 0.99774 0.89268 0.0
H964 H 0.13553 0.11865 0.93891 0.0
H965 H 1.03782 0.06468 0.00131 0.0
H966 H 0.05846 1.03676 0.97746 0.0
H967 H 1.02458 0.05605 0.96854 0.0
C968 C 0.12044 1.00946 0.91704 0.0
C969 C 0.09063 0.99317 0.902 0.0
C970 C 0.12156 1.04124 0.9348 0.0
C971 C 0.09293 0.0573 0.93773 0.0
C972 C 0.06344 1.04167 0.92212 0.0
H973 H 0.05677 0.24678 0.04325 0.0
H974 H 1.05224 0.19399 0.0086 0.0
C975 C 0.06233 1.00977 0.90429 0.0
C976 C 0.09432 0.09061 0.95703 0.0
H977 H 0.05959 0.12644 0.01217 0.0
C978 C 0.1189 0.12044 0.95492 0.0
C979 C 0.0727 0.09265 0.9779 0.0
C980 C 1.04707 0.06081 0.98169 0.0
C981 C 0.1223 0.15246 0.97309 0.0
C982 C 0.10076 0.15453 -0.00597 0.0
C983 C 0.07594 0.12478 -0.00399 0.0
C984 C 0.10399 0.18713 0.01437 0.0
C985 C 0.14873 0.18383 0.96959 0.0
C986 C 0.1345 0.20058 0.02914 0.0
C987 C 0.1372 0.23088 0.0487 0.0
C988 C 0.10946 0.24816 0.05374 0.0
C989 C 0.07882 0.23446 0.0392 0.0
C990 C 0.07611 0.20417 0.01962 0.0
H991 H 0.15579 0.18123 0.94949 0.0
H992 H 0.13922 0.20875 0.97607 0.0
H993 H 0.1723 0.18574 0.98099 0.0
H994 H 0.15607 0.1874 0.02572 0.0
H995 H 0.16099 0.24089 0.05986 0.0
H996 H 0.49986 0.19464 0.54051 0.0
H997 H 0.55559 0.1869 0.52311 0.0
H998 H 0.51349 0.07691 0.49048 0.0
H999 H 0.45798 0.08424 0.50852 0.0
H1000 H 0.57671 0.08625 0.51412 0.0
H1001 H 0.58295 0.1776 0.44978 0.0
H1002 H 0.57642 0.19753 0.48216 0.0
H1003 H 0.54397 0.1622 0.46468 0.0
C1004 C 0.50249 0.16874 0.52977 0.0
C1005 C 0.47434 0.14008 0.52597 0.0
C1006 C 0.53434 0.16443 0.51954 0.0
C1007 C 0.5388 0.13142 0.50508 0.0
C1008 C 0.51077 0.10271 0.50141 0.0
H1009 H 0.71044 0.08935 0.40849 0.0
H1010 H 0.65462 0.09749 0.42542 0.0
C1011 C 0.47891 0.107 0.51162 0.0
C1012 C 0.57277 0.12659 0.49422 0.0
H1013 H 0.6336 0.15612 0.45478 0.0
C1014 C 0.58909 0.1015 0.50111 0.0
C1015 C 0.58889 0.1461 0.47695 0.0
C1016 C 0.57207 0.17213 0.46772 0.0
C1017 C 0.62113 0.09584 0.49161 0.0
C1018 C 0.63775 0.11614 0.47496 0.0
C1019 C 0.62116 0.14078 0.46771 0.0
C1020 C 0.67214 0.11191 0.46469 0.0
C1021 C 0.63659 0.06765 0.49915 0.0
C1022 C 0.70098 0.11792 0.48099 0.0
C1023 C 0.73303 0.11333 0.47135 0.0
C1024 C 0.73726 0.10275 0.44512 0.0
C1025 C 0.70843 0.09751 0.42879 0.0
C1026 C 0.67635 0.10212 0.43846 0.0
H1027 H 0.61697 0.04832 0.50622 0.0
H1028 H 0.64924 0.05306 0.48298 0.0
H1029 H 0.65623 0.0803 0.51458 0.0
H1030 H 0.69878 0.12632 0.50126 0.0
H1031 H 0.75446 0.11816 0.48455 0.0
H1032 H 0.57724 0.74092 0.94773 0.0
H1033 H 0.58643 0.70789 0.97917 0.0
H1034 H 0.59868 0.61898 0.91947 0.0
H1035 H 0.58976 0.65194 0.88784 0.0
H1036 H 0.55436 0.60053 0.95679 0.0
H1037 H 0.67702 0.68583 -0.00023 0.0
H1038 H 0.64287 0.70917 -0.00129 0.0
H1039 H 0.65972 0.68802 0.9697 0.0
C1040 C 0.58237 0.71453 0.94126 0.0
C1041 C 0.58298 0.69917 0.91524 0.0
C1042 C 0.58761 0.69568 0.95928 0.0
C1043 C 0.59378 0.66119 0.95167 0.0
C1044 C 0.59409 0.64563 0.92575 0.0
H1045 H 0.62681 0.5005 0.02925 0.0
H1046 H 0.61884 0.53434 -0.00193 0.0
C1047 C 0.58884 0.66445 0.9077 0.0
C1048 C 0.5989 0.64095 0.97074 0.0
H1049 H 0.65058 0.64156 0.02076 0.0
C1050 C 0.57549 0.60938 0.9707 0.0
C1051 C 0.62643 0.65264 -0.01108 0.0
C1052 C 0.65315 0.6856 -0.01077 0.0
C1053 C 0.57852 0.58946 -0.01138 0.0
C1054 C 0.60606 0.60113 0.00678 0.0
C1055 C 0.62946 0.63272 0.00685 0.0
C1056 C 0.61118 0.58074 0.02575 0.0
C1057 C 0.55179 0.5565 -0.01171 0.0
C1058 C 0.61044 0.59592 0.05171 0.0
C1059 C 0.61498 0.57662 0.06962 0.0
C1060 C 0.62052 0.5418 0.06189 0.0
C1061 C 0.62185 0.52695 0.03585 0.0
C1062 C 0.61733 0.54626 0.01798 0.0
H1063 H 0.52792 0.55628 0.97776 0.0
H1064 H 0.56207 0.53292 0.9788 0.0
H1065 H 0.54522 0.55405 0.00782 0.0
H1066 H 0.60588 0.62256 0.05811 0.0
H1067 H 0.61358 0.58876 0.0895 0.0
H1068 H 0.21596 0.66611 0.56397 0.0
H1069 H 0.16062 0.65942 0.54313 0.0
H1070 H 0.18925 0.58406 0.47989 0.0
H1071 H 0.24473 0.58965 0.50129 0.0
H1072 H 0.14245 0.67297 0.50041 0.0
H1073 H 0.09826 0.52967 0.49502 0.0
H1074 H 0.13669 0.55502 0.51265 0.0
H1075 H 0.1373 0.53926 0.47889 0.0
C1076 C 0.21073 0.64801 0.54565 0.0
C1077 C 0.23499 0.62818 0.5345 0.0
C1078 C 0.17887 0.64427 0.53368 0.0
C1079 C 0.17027 0.62079 0.51007 0.0
C1080 C 0.19478 0.60168 0.49841 0.0
H1081 H 0.99242 0.56534 0.40811 0.0
H1082 H 1.04774 0.5732 0.4293 0.0
C1083 C 0.22672 0.60516 0.51057 0.0
C1084 C 0.1358 0.61693 0.49785 0.0
H1085 H 0.06331 0.55668 0.47336 0.0
C1086 C 0.12513 0.64751 0.49457 0.0
C1087 C 0.11291 0.58381 0.4904 0.0
C1088 C 0.12167 0.55013 0.49464 0.0
C1089 C 0.09274 0.64585 0.48364 0.0
C1090 C 0.07006 0.61269 0.4759 0.0
C1091 C 0.08065 0.58213 0.47925 0.0
C1092 C 1.03587 0.60872 0.4633 0.0
C1093 C 0.08341 0.67964 0.48015 0.0
C1094 C 1.01033 0.62601 0.47529 0.0
C1095 C 0.97828 0.62167 0.46303 0.0
C1096 C 0.97103 0.5997 0.43863 0.0
C1097 C 0.99669 0.58231 0.42689 0.0
C1098 C 1.02857 0.58676 0.43903 0.0
H1099 H 0.10656 0.70053 0.48004 0.0
H1100 H 0.06819 0.67518 0.4623 0.0
H1101 H 0.06765 0.68966 0.4961 0.0
H1102 H 1.01507 0.64267 0.4942 0.0
H1103 H 0.9593 0.63548 0.47267 0.0
H1104 H 0.56319 1.00897 0.88776 0.0
H1105 H 0.56909 0.06676 0.91667 0.0
H1106 H 0.62248 1.03083 0.97135 0.0
H1107 H 0.61849 0.97355 0.94181 0.0
H1108 H 0.54399 0.08448 0.9621 0.0
H1109 H 0.6855 0.12256 0.97033 0.0
H1110 H 0.66359 0.08369 0.94793 0.0
H1111 H 0.67 0.08237 0.98041 0.0
C1112 C 0.57639 1.01324 0.90585 0.0
C1113 C 0.58997 0.98615 0.91252 0.0
C1114 C 0.57969 0.04643 0.92241 0.0
C1115 C 0.59647 0.05337 0.94615 0.0
C1116 C 0.60996 1.02641 0.95297 0.0
H1117 H 0.63544 0.22797 0.07661 0.0
H1118 H 0.62975 0.17225 0.04556 0.0
C1119 C 0.60714 0.99333 0.93619 0.0
C1120 C 0.5987 0.08842 0.96398 0.0
H1121 H 0.65471 0.15826 0.00013 0.0
C1122 C 0.56823 0.10072 0.97032 0.0
C1123 C 0.63033 0.10972 0.97463 0.0
C1124 C 0.66421 0.09907 0.96777 0.0
C1125 C 0.56835 0.13316 0.98752 0.0
C1126 C 0.59994 0.15421 -0.00151 0.0
C1127 C 0.63045 0.14209 -0.00813 0.0
C1128 C 0.60212 0.18828 0.0175 0.0
C1129 C 0.53444 0.14397 -0.00598 0.0
C1130 C 0.5884 0.21611 0.01227 0.0
C1131 C 0.59089 0.248 0.03044 0.0
C1132 C 0.60805 0.25315 0.0539 0.0
C1133 C 0.62207 0.22528 0.05886 0.0
C1134 C 0.61899 0.19326 0.04098 0.0
H1135 H 0.51302 0.12057 -0.00878 0.0
H1136 H 0.53466 0.15931 0.01383 0.0
H1137 H 0.52913 0.16079 0.98132 0.0
H1138 H 0.57578 0.21323 -0.00587 0.0
H1139 H 0.57914 0.26837 0.0261 0.0
H1140 H 0.52748 0.57963 0.60025 0.0
H1141 H 0.57171 0.5435 0.59116 0.0
H1142 H 0.54328 0.51922 0.51161 0.0
H1143 H 0.49879 0.55376 0.52067 0.0
H1144 H 0.56481 0.464 0.52434 0.0
H1145 H 0.65762 0.59035 0.56392 0.0
H1146 H 0.62776 0.57125 0.58441 0.0
H1147 H 0.61268 0.59052 0.56075 0.0
C1148 C 0.5304 0.56589 0.58093 0.0
C1149 C 0.51013 0.56981 0.56109 0.0
C1150 C 0.55559 0.54531 0.57577 0.0
C1151 C 0.56131 0.52927 0.55065 0.0
C1152 C 0.53931 0.53117 0.53117 0.0
H1153 H 0.65099 0.52464 0.43112 0.0
H1154 H 0.61937 0.50277 0.46455 0.0
C1155 C 0.51392 0.5511 0.53634 0.0
C1156 C 0.59291 0.51562 0.54328 0.0
H1157 H 0.67447 0.55068 0.53026 0.0
C1158 C 0.58931 0.48236 0.52637 0.0
C1159 C 0.62524 0.53909 0.54645 0.0
C1160 C 0.63132 0.57481 0.56482 0.0
C1161 C 0.61507 0.47471 0.50943 0.0
C1162 C 0.64494 0.50083 0.50977 0.0
C1163 C 0.65109 0.53102 0.52974 0.0
C1164 C 0.66441 0.50294 0.48668 0.0
C1165 C 0.60865 0.4404 0.48966 0.0
C1166 C 0.70033 0.50965 0.48768 0.0
C1167 C 0.71862 0.52219 0.46841 0.0
C1168 C 0.70133 0.52877 0.44798 0.0
C1169 C 0.66533 0.51957 0.44626 0.0
C1170 C 0.64711 0.50675 0.46539 0.0
H1171 H 0.59359 0.41868 0.49745 0.0
H1172 H 0.5934 0.44326 0.47353 0.0
H1173 H 0.63307 0.43298 0.48251 0.0
H1174 H 0.71416 0.50731 0.50409 0.0
H1175 H 0.7463 0.52835 0.47024 0.0
H1176 H 0.12721 0.71826 0.90744 0.0
H1177 H 0.11743 0.66459 0.9239 0.0
H1178 H 0.17587 0.72244 -0.00789 0.0
H1179 H 0.18523 0.77642 0.976 0.0
H1180 H 0.16638 0.62899 0.94136 0.0
H1181 H 0.08092 0.67957 0.01662 0.0
H1182 H 0.09145 0.69947 -0.00999 0.0
H1183 H 0.12211 0.70774 0.01578 0.0
C1184 C 0.13796 0.71955 0.92595 0.0
C1185 C 0.15678 0.75163 0.94051 0.0
C1186 C 0.13251 0.68886 0.93525 0.0
C1187 C 0.14554 0.68973 0.95933 0.0
C1188 C 0.16524 0.72138 0.9736 0.0
H1189 H 0.11463 0.53188 0.0503 0.0
H1190 H 0.13383 0.58528 0.03434 0.0
C1191 C 0.17083 0.75209 0.96427 0.0
C1192 C 0.13776 0.65766 0.96969 0.0
H1193 H 0.09352 0.62354 0.01562 0.0
C1194 C 0.15051 0.62774 0.95762 0.0
C1195 C 0.11708 0.65625 -0.0091 0.0
C1196 C 0.10181 0.68732 0.00404 0.0
C1197 C 0.14328 0.59638 0.96633 0.0
C1198 C 0.12216 0.59477 0.98733 0.0
C1199 C 0.10974 0.62487 -0.00045 0.0
C1200 C 0.11186 0.56189 -0.00343 0.0
C1201 C 0.1587 0.56543 0.95319 0.0
C1202 C 0.09295 0.53112 0.98068 0.0
C1203 C 0.08217 0.5005 -0.01032 0.0
C1204 C 0.08984 0.50015 0.01484 0.0
C1205 C 0.10874 0.53108 0.03073 0.0
C1206 C 0.11955 0.56168 0.02169 0.0
H1207 H 0.18165 0.57403 0.94263 0.0
H1208 H 0.16613 0.55105 0.96693 0.0
H1209 H 0.13947 0.54672 0.93939 0.0
H1210 H 0.08611 0.5309 0.96138 0.0
H1211 H 0.06791 0.47707 0.97688 0.0
H1212 H 0.27388 0.2709 0.52721 0.0
H1213 H 0.21311 0.25469 0.53643 0.0
H1214 H 0.20264 0.16027 0.47648 0.0
H1215 H 0.26237 0.17703 0.46659 0.0
H1216 H 0.14762 0.18776 0.47777 0.0
H1217 H 0.18141 0.17967 0.57516 0.0
H1218 H 0.18983 0.22361 0.56978 0.0
H1219 H 0.21382 0.19189 0.55364 0.0
C1220 C 0.25839 0.24711 0.51572 0.0
C1221 C 0.27321 0.2246 0.49678 0.0
C1222 C 0.22377 0.23768 0.52117 0.0
C1223 C 0.20366 0.2056 0.50776 0.0
C1224 C 0.21773 0.18488 0.48738 0.0
H1225 H 1.02763 0.04725 0.50909 0.0
H1226 H 0.086 0.08308 0.51325 0.0
C1227 C 0.25199 0.19443 0.4818 0.0
C1228 C 0.16842 0.19211 0.51508 0.0
H1229 H 0.12307 0.15976 0.5615 0.0
C1230 C 0.14223 0.18202 0.49618 0.0
C1231 C 0.16135 0.18473 0.53921 0.0
C1232 C 0.18811 0.19524 0.56054 0.0
C1233 C 0.10973 0.16343 0.5003 0.0
C1234 C 0.10319 0.15474 0.52393 0.0
C1235 C 0.1286 0.16618 0.54332 0.0
C1236 C 0.07008 0.13277 0.52804 0.0
C1237 C 0.08274 0.15211 0.4791 0.0
C1238 C 1.04233 0.14885 0.53616 0.0
C1239 C 1.00913 0.12851 0.53383 0.0
C1240 C 1.00333 0.09185 0.52332 0.0
C1241 C 1.0315 0.07537 0.51748 0.0
C1242 C 0.06475 0.0958 0.51975 0.0
H1243 H 0.09133 0.16266 0.4623 0.0
H1244 H 0.07636 0.12276 0.47325 0.0
H1245 H 0.05889 0.16129 0.48574 0.0
H1246 H 1.04606 0.17738 0.54249 0.0
H1247 H 0.98773 0.14175 0.53845 0.0
H1248 H 1.0073 0.35811 0.07519 0.0
H1249 H 0.94577 0.35782 0.07676 0.0
H1250 H 0.93752 0.30189 0.1366 0.0
H1251 H 0.999 0.30202 0.13512 0.0
H1252 H 0.88877 0.30089 0.06947 0.0
H1253 H 0.89034 0.38458 0.16656 0.0
H1254 H 0.92891 0.38149 0.14911 0.0
H1255 H 0.90966 0.34664 0.16404 0.0
C1256 C 0.99263 0.34581 0.08875 0.0
C1257 C 1.00886 0.33037 0.10508 0.0
C1258 C 0.95714 0.34561 0.08963 0.0
C1259 C 0.93656 0.33036 0.10709 0.0
C1260 C 0.95255 0.31457 0.12327 0.0
H1261 H 0.71679 0.31425 0.1429 0.0
H1262 H 0.77785 0.31131 0.14217 0.0
C1263 C 0.988 0.31453 0.12227 0.0
C1264 C 0.89851 0.33042 0.108 0.0
H1265 H 0.83584 0.35918 0.14645 0.0
C1266 C 0.87731 0.31376 0.08632 0.0
C1267 C 0.88298 0.34685 0.12996 0.0
C1268 C 0.90409 0.36619 0.15371 0.0
C1269 C 0.84149 0.31265 0.08604 0.0
C1270 C 0.82597 0.32968 0.10786 0.0
C1271 C 0.8472 0.34611 0.12963 0.0
C1272 C 0.78814 0.33124 0.10831 0.0
C1273 C 0.82056 0.29216 0.06245 0.0
C1274 C 0.77285 0.34386 0.08985 0.0
C1275 C 0.73771 0.34506 0.09003 0.0
C1276 C 0.71645 0.33434 0.10897 0.0
C1277 C 0.73186 0.32233 0.12777 0.0
C1278 C 0.76709 0.32087 0.12746 0.0
H1279 H 0.83336 0.27137 0.05131 0.0
H1280 H 0.7946 0.27933 0.06704 0.0
H1281 H 0.81775 0.3105 0.05025 0.0
H1282 H 0.78816 0.3531 0.07521 0.0
H1283 H 0.72721 0.35425 0.07508 0.0
H1284 H 0.39232 0.05369 0.60321 0.0
H1285 H 0.382 0.99186 0.60714 0.0
H1286 H 0.35954 0.95617 0.52699 0.0
H1287 H 0.36941 1.01768 0.52297 0.0
H1288 H 0.32058 0.93574 0.59347 0.0
H1289 H 0.43167 0.89829 0.53932 0.0
H1290 H 0.42881 0.94387 0.55218 0.0
H1291 H 0.40475 0.9192 0.52377 0.0
C1292 C 0.38554 1.03279 0.58629 0.0
C1293 C 0.38218 1.04138 0.56266 0.0
C1294 C 0.37939 0.99715 0.58862 0.0
C1295 C 0.37023 0.96862 0.56737 0.0
C1296 C 0.367 0.97715 0.54377 0.0
H1297 H 0.33569 0.73569 0.53577 0.0
H1298 H 0.34545 0.79819 0.53484 0.0
C1299 C 0.37267 1.01272 0.54149 0.0
C1300 C 0.36368 0.93023 0.56981 0.0
H1301 H 0.39198 0.85203 0.55057 0.0
C1302 C 0.33636 0.91753 0.58417 0.0
C1303 C 0.38381 0.90579 0.55767 0.0
C1304 C 0.4141 0.91736 0.54251 0.0
C1305 C 0.32813 0.88155 0.58608 0.0
C1306 C 0.34846 0.85701 0.57406 0.0
C1307 C 0.37603 0.87001 0.55991 0.0
C1308 C 0.34129 0.81784 0.57513 0.0
C1309 C 0.29663 0.8701 0.60015 0.0
C1310 C 0.33554 0.80652 0.59804 0.0
C1311 C 0.32939 0.77011 0.59855 0.0
C1312 C 0.32954 0.74357 0.57626 0.0
C1313 C 0.33555 0.75493 0.55346 0.0
C1314 C 0.34122 0.79112 0.55291 0.0
H1315 H 0.27816 0.88797 0.60086 0.0
H1316 H 0.28331 0.84269 0.59124 0.0
H1317 H 0.3043 0.87116 0.61994 0.0
H1318 H 0.33647 0.82584 0.61578 0.0
H1319 H 0.32543 0.76286 0.61658 0.0
H1320 H 0.47729 0.90513 0.82262 0.0
H1321 H 0.41564 0.90565 0.82187 0.0
H1322 H 0.40914 0.88971 0.89771 0.0
H1323 H 0.47071 0.88942 0.89873 0.0
H1324 H 0.35515 0.84321 0.84087 0.0
H1325 H 0.3675 0.98567 0.88798 0.0
H1326 H 0.40044 0.97022 0.86785 0.0
H1327 H 0.39492 0.95983 0.89824 0.0
C1328 C 0.46293 0.90202 0.83927 0.0
C1329 C 0.4795 0.89743 0.8608 0.0
C1330 C 0.42744 0.9021 0.83874 0.0
C1331 C 0.40738 0.89779 0.85975 0.0
C1332 C 0.42378 0.8931 0.88121 0.0
H1333 H 0.1976 0.92515 0.89925 0.0
H1334 H 0.25865 0.92307 0.89872 0.0
C1335 C 0.45918 0.89283 0.88172 0.0
C1336 C 0.36948 0.89827 0.85936 0.0
H1337 H 0.31168 0.95238 0.87739 0.0
C1338 C 0.34566 0.86712 0.84876 0.0
C1339 C 0.35672 0.92921 0.86992 0.0
C1340 C 0.381 0.96333 0.88167 0.0
C1341 C 0.30978 0.866 0.84863 0.0
C1342 C 0.29686 0.89721 0.85876 0.0
C1343 C 0.32092 0.92835 0.86945 0.0
C1344 C 0.25877 0.89808 0.85889 0.0
C1345 C 0.28611 0.83084 0.83841 0.0
C1346 C 0.23759 0.88532 0.8367 0.0
C1347 C 0.20217 0.88583 0.83709 0.0
C1348 C 0.18661 0.89953 0.85964 0.0
C1349 C 0.20805 0.91343 0.88162 0.0
C1350 C 0.24336 0.91257 0.88128 0.0
H1351 H 0.29869 0.80837 0.8391 0.0
H1352 H 0.26225 0.8281 0.84918 0.0
H1353 H 0.27908 0.8287 0.81831 0.0
H1354 H 0.24844 0.87512 0.81885 0.0
H1355 H 0.18696 0.87533 0.81962 0.0
H1356 H 0.78488 0.17807 0.39239 0.0
H1357 H 0.79307 0.23886 0.38625 0.0
H1358 H 0.89342 0.26325 0.4226 0.0
H1359 H 0.88575 0.2029 0.42813 0.0
H1360 H 0.80296 0.30345 0.41808 0.0
H1361 H 0.91758 0.29964 0.36026 0.0
H1362 H 0.89215 0.26032 0.3675 0.0
H1363 H 0.9241 0.28913 0.39004 0.0
C1364 C 0.80872 0.19636 0.39911 0.0
C1365 C 0.8345 0.18504 0.41098 0.0
C1366 C 0.81343 0.23135 0.39557 0.0
C1367 C 0.84423 0.25619 0.4035 0.0
C1368 C 0.8697 0.24496 0.41564 0.0
H1369 H 0.87291 0.48755 0.4363 0.0
H1370 H 0.86316 0.42497 0.43656 0.0
C1371 C 0.86498 0.21017 0.41921 0.0
C1372 C 0.84952 0.29389 0.39984 0.0
H1373 H 0.90584 0.35732 0.37779 0.0
C1374 C 0.82541 0.31499 0.40911 0.0
C1375 C 0.8784 0.30954 0.38771 0.0
C1376 C 0.90433 0.28838 0.37556 0.0
C1377 C 0.82986 0.35088 0.40747 0.0
C1378 C 0.8597 0.36712 0.39663 0.0
C1379 C 0.88318 0.34565 0.38649 0.0
C1380 C 0.86717 0.40625 0.39619 0.0
C1381 C 0.80198 0.37086 0.41712 0.0
C1382 C 0.8745 0.41794 0.3736 0.0
C1383 C 0.88036 0.45442 0.37341 0.0
C1384 C 0.87923 0.48045 0.39583 0.0
C1385 C 0.87318 0.46866 0.41845 0.0
C1386 C 0.8674 0.43246 0.41864 0.0
H1387 H 0.77683 0.35259 0.41684 0.0
H1388 H 0.80845 0.38549 0.43702 0.0
H1389 H 0.79924 0.39019 0.40569 0.0
H1390 H 0.87496 0.39875 0.35593 0.0
H1391 H 0.88497 0.46212 0.35558 0.0
H1392 H 0.23291 0.3933 0.11156 0.0
H1393 H 0.29477 0.39471 0.11029 0.0
H1394 H 0.27555 0.28194 0.10354 0.0
H1395 H 0.21376 0.28019 0.10334 0.0
H1396 H 0.33949 0.38066 0.13971 0.0
H1397 H 0.33959 0.28709 0.04718 0.0
H1398 H 0.30222 0.30459 0.05824 0.0
H1399 H 0.31225 0.26763 0.06881 0.0
C1400 C 0.24175 0.36865 0.10935 0.0
C1401 C 0.21789 0.33656 0.10723 0.0
C1402 C 0.27739 0.36952 0.10884 0.0
C1403 C 0.29051 0.33834 0.10625 0.0
C1404 C 0.26667 0.30639 0.10479 0.0
H1405 H 0.50482 0.33597 0.14546 0.0
H1406 H 0.44328 0.33516 0.14504 0.0
C1407 C 0.23105 0.30548 0.1051 0.0
C1408 C 0.32888 0.33944 0.10567 0.0
H1409 H 0.39134 0.30163 0.07248 0.0
C1410 C 0.35069 0.36338 0.1249 0.0
C1411 C 0.34429 0.31756 0.08621 0.0
C1412 C 0.32344 0.29305 0.0638 0.0
C1413 C 0.38667 0.36553 0.12553 0.0
C1414 C 0.40188 0.34247 0.10673 0.0
C1415 C 0.38017 0.31907 0.08719 0.0
C1416 C 0.44005 0.34241 0.10686 0.0
C1417 C 0.40807 0.39336 0.1461 0.0
C1418 C 0.45947 0.34537 0.08529 0.0
C1419 C 0.49499 0.34539 0.08539 0.0
C1420 C 0.51236 0.34239 0.10707 0.0
C1421 C 0.4928 0.3389 0.12849 0.0
C1422 C 0.45732 0.33866 0.12833 0.0
H1423 H 0.39483 0.41563 0.15355 0.0
H1424 H 0.41248 0.38139 0.16207 0.0
H1425 H 0.43333 0.40421 0.13916 0.0
H1426 H 0.44721 0.34807 0.06832 0.0
H1427 H 0.50888 0.348 0.06845 0.0
H1428 H 0.4193 0.26917 0.56072 0.0
H1429 H 0.40877 0.32879 0.56338 0.0
H1430 H 0.30055 0.28986 0.56845 0.0
H1431 H 0.31122 0.23032 0.56625 0.0
H1432 H 0.37789 0.35891 0.5357 0.0
H1433 H 0.30841 0.37376 0.62472 0.0
H1434 H 0.32968 0.33724 0.61361 0.0
H1435 H 0.28744 0.33604 0.6013 0.0
C1436 C 0.39328 0.27332 0.56295 0.0
C1437 C 0.36636 0.24456 0.56398 0.0
C1438 C 0.38712 0.3077 0.56417 0.0
C1439 C 0.35373 0.31502 0.56659 0.0
C1440 C 0.32672 0.28603 0.56715 0.0
H1441 H 0.33218 0.54024 0.61229 0.0
H1442 H 0.34206 0.48046 0.61004 0.0
C1443 C 0.33286 0.25155 0.56573 0.0
C1444 C 0.34739 0.35241 0.56786 0.0
H1445 H 0.30665 0.41704 0.60093 0.0
C1446 C 0.36234 0.37146 0.5501 0.0
C1447 C 0.32762 0.37005 0.58674 0.0
C1448 C 0.31268 0.3534 0.60783 0.0
C1449 C 0.35794 0.40642 0.55044 0.0
C1450 C 0.33693 0.42349 0.56865 0.0
C1451 C 0.32237 0.4046 0.58662 0.0
C1452 C 0.3305 0.46087 0.56984 0.0
C1453 C 0.37711 0.42508 0.53164 0.0
C1454 C 0.31997 0.47106 0.54826 0.0
C1455 C 0.31456 0.50577 0.54951 0.0
C1456 C 0.31881 0.53181 0.57247 0.0
C1457 C 0.32852 0.52141 0.59417 0.0
C1458 C 0.33422 0.4868 0.59288 0.0
H1459 H 0.40008 0.41399 0.52512 0.0
H1460 H 0.36009 0.42138 0.51478 0.0
H1461 H 0.38554 0.45388 0.53986 0.0
H1462 H 0.31552 0.45201 0.53028 0.0
H1463 H 0.30673 0.51206 0.53235 0.0
H1464 H 0.69033 0.88913 0.8229 0.0
H1465 H 0.752 0.89038 0.82299 0.0
H1466 H 0.75376 0.90475 0.90405 0.0
H1467 H 0.69177 0.90286 0.904 0.0
H1468 H 0.80668 0.93978 0.84326 0.0
H1469 H 0.80465 0.82518 0.88598 0.0
H1470 H 0.76601 0.83536 0.87502 0.0
H1471 H 0.78569 0.85906 0.90536 0.0
C1472 C 0.70361 0.89237 0.84081 0.0
C1473 C 0.68547 0.89565 0.86343 0.0
C1474 C 0.73923 0.89316 0.84083 0.0
C1475 C 0.75814 0.89703 0.86345 0.0
C1476 C 0.74015 0.90076 0.88614 0.0
H1477 H 0.97649 0.91028 0.9009 0.0
H1478 H 0.91477 0.90922 0.90137 0.0
C1479 C 0.70445 0.89994 0.88612 0.0
C1480 C 0.79652 0.89787 0.86317 0.0
H1481 H 0.85948 0.85935 0.88136 0.0
C1482 C 0.81806 0.922 0.85152 0.0
C1483 C 0.81207 0.87488 0.87389 0.0
C1484 C 0.79092 0.84692 0.88555 0.0
C1485 C 0.85407 0.92424 0.85073 0.0
C1486 C 0.86961 0.90122 0.86142 0.0
C1487 C 0.84809 0.87714 0.87312 0.0
C1488 C 0.90791 0.9018 0.86088 0.0
C1489 C 0.87523 0.95214 0.83902 0.0
C1490 C 0.92549 0.89765 0.83801 0.0
C1491 C 0.96106 0.89792 0.8377 0.0
C1492 C 0.98032 0.90194 0.86024 0.0
C1493 C 0.9627 0.90615 0.88307 0.0
C1494 C 0.92717 0.90584 0.88337 0.0
H1495 H 0.86159 0.97396 0.83867 0.0
H1496 H 0.90023 0.96358 0.84945 0.0
H1497 H 0.8803 0.93997 0.81918 0.0
H1498 H 0.91161 0.89363 0.82021 0.0
H1499 H 0.97336 0.89433 0.81967 0.0
H1500 H 0.87947 0.70517 0.44362 0.0
H1501 H 0.87088 0.76562 0.44649 0.0
H1502 H 0.87454 0.74889 0.36541 0.0
H1503 H 0.88354 0.68865 0.36247 0.0
H1504 H 0.82076 0.79266 0.42859 0.0
H1505 H 0.94171 0.84162 0.3854 0.0
H1506 H 0.91601 0.80294 0.36542 0.0
H1507 H 0.93384 0.80015 0.39505 0.0
C1508 C 0.87875 0.7143 0.42633 0.0
C1509 C 0.8826 0.6915 0.40279 0.0
C1510 C 0.87366 0.74915 0.42801 0.0
C1511 C 0.87256 0.76285 0.40626 0.0
C1512 C 0.87607 0.73996 0.3827 0.0
H1513 H 0.83423 0.98327 0.45491 0.0
H1514 H 0.84326 0.92339 0.45373 0.0
C1515 C 0.88103 0.70507 0.38101 0.0
C1516 C 0.86718 0.80052 0.40819 0.0
H1517 H 0.90096 0.87895 0.3917 0.0
C1518 C 0.83851 0.81149 0.42061 0.0
C1519 C 0.88999 0.82579 0.39788 0.0
C1520 C 0.92229 0.81724 0.3854 0.0
C1521 C 0.83163 0.84588 0.42238 0.0
C1522 C 0.85442 0.87116 0.41201 0.0
C1523 C 0.88319 0.86019 0.39971 0.0
C1524 C 0.84873 0.90858 0.41317 0.0
C1525 C 0.79913 0.85423 0.43461 0.0
C1526 C 0.84958 0.92176 0.39107 0.0
C1527 C 0.84493 0.95646 0.39181 0.0
C1528 C 0.83941 0.97975 0.41473 0.0
C1529 C 0.83848 0.96662 0.43687 0.0
C1530 C 0.8433 0.93185 0.43614 0.0
H1531 H 0.77976 0.82976 0.43446 0.0
H1532 H 0.80512 0.86844 0.45464 0.0
H1533 H 0.78762 0.87127 0.42489 0.0
H1534 H 0.8537 0.90502 0.373 0.0
H1535 H 0.8458 0.96504 0.37421 0.0
loop_
_geom_bond_atom_site_label_1
_geom_bond_atom_site_label_2
_geom_bond_distance
_geom_bond_site_symmetry_2
_ccdc_geom_bond_type
Tb0 N29 2.617 1_455 S
Tb0 N35 2.572 . S
Tb0 O44 2.465 . S
Tb0 O45 2.387 . S
Tb0 O47 2.428 . S
Tb0 O48 2.308 . S
Tb0 O52 2.349 . S
Tb0 O55 2.393 1_455 S
Tb0 C64 2.802 . S
C1 N2 1.379 . S
C1 C4 1.416 . S
C1 C8 1.424 . S
N2 C1 1.379 . S
N2 C5 1.334 . S
N2 Tb11 2.617 . S
C3 C5 1.390 . S
C3 C6 1.339 . S
C3 H23 0.930 . S
C4 C1 1.416 . S
C4 C6 1.416 . S
C4 C10 1.448 . S
C5 N2 1.334 . S
C5 C3 1.390 . S
C5 H16 0.930 . S
C6 C3 1.339 . S
C6 C4 1.416 . S
C6 H27 0.930 . S
C7 C8 1.413 . S
C7 C9 1.427 . S
C7 C13 1.416 1_455 S
C8 C1 1.424 . S
C8 C7 1.413 . S
C8 N12 1.361 . S
C9 C7 1.427 . S
C9 C10 1.328 . S
C9 H24 0.929 . S
C10 C4 1.448 . S
C10 C9 1.328 . S
C10 H25 0.930 . S
Tb11 N2 2.617 . S
Tb11 N12 2.572 . S
Tb11 O46 2.349 . S
Tb11 O49 2.393 . S
Tb11 O50 2.477 . S
Tb11 O51 2.387 . S
Tb11 O53 2.428 . S
Tb11 O54 2.308 1_455 S
Tb11 C75 2.802 . S
N12 C8 1.361 . S
N12 Tb11 2.572 . S
N12 C14 1.340 1_455 S
C13 C7 1.416 1_655 S
C13 C15 1.332 . S
C13 H21 0.931 . S
C14 N12 1.340 1_655 S
C14 C15 1.407 . S
C14 H20 0.930 . S
C15 C13 1.332 . S
C15 C14 1.407 . S
C15 H17 0.929 . S
H16 C5 0.930 . S
H17 C15 0.929 . S
H18 C33 0.930 . S
H19 C40 0.929 . S
H20 C14 0.930 . S
H21 C13 0.931 . S
H22 C36 0.930 . S
H23 C3 0.930 . S
H24 C9 0.929 . S
H25 C10 0.930 . S
H26 C31 0.930 . S
H27 C6 0.930 . S
H28 C39 0.931 . S
N29 Tb0 2.617 1_655 S
N29 C30 1.379 1_655 S
N29 C33 1.334 . S
C30 N29 1.379 1_455 S
C30 C32 1.416 1_454 S
C30 C38 1.424 . S
C31 H26 0.930 . S
C31 C33 1.390 . S
C31 C34 1.339 1_554 S
C32 C30 1.416 1_656 S
C32 C34 1.416 . S
C32 C65 1.448 1_655 S
C33 H18 0.930 . S
C33 N29 1.334 . S
C33 C31 1.390 . S
C34 C31 1.339 1_556 S
C34 C32 1.416 . S
C34 H41 0.930 . S
N35 Tb0 2.572 . S
N35 C36 1.340 . S
N35 C38 1.361 . S
C36 H22 0.930 . S
C36 N35 1.340 . S
C36 C40 1.407 . S
C37 C38 1.413 1_556 S
C37 C39 1.416 . S
C37 C66 1.427 . S
C38 C30 1.424 . S
C38 N35 1.361 . S
C38 C37 1.413 1_554 S
C39 H28 0.931 . S
C39 C37 1.416 . S
C39 C40 1.332 1_556 S
C40 H19 0.929 . S
C40 C36 1.407 . S
C40 C39 1.332 1_554 S
H41 C34 0.930 . S
H42 C65 0.930 1_655 S
H43 C66 0.929 . S
O44 Tb0 2.465 . S
O44 C64 1.264 . S
O45 Tb0 2.387 . S
O45 C56 1.264 . S
O46 Tb11 2.349 . S
O46 C56 1.243 . S
O47 Tb0 2.428 . S
O47 C64 1.256 . S
O48 Tb0 2.308 . S
O48 C63 1.266 . S
O49 Tb11 2.393 . S
O49 C63 1.248 . S
O50 Tb11 2.477 . S
O50 C75 1.284 . S
O51 Tb11 2.387 . S
O51 C67 1.264 . S
O52 Tb0 2.349 . S
O52 C67 1.243 . S
O53 Tb11 2.428 . S
O53 C75 1.256 . S
O54 Tb11 2.308 1_655 S
O54 C74 1.266 . S
O55 Tb0 2.393 1_655 S
O55 C74 1.248 . S
C56 O45 1.264 . S
C56 O46 1.243 . S
C57 C60 1.399 . S
C57 C62 1.383 . S
C57 C64 1.496 . S
C58 C59 1.399 . S
C58 C62 1.389 . S
C59 C58 1.399 . S
C59 C61 1.380 . S
C59 H76 0.929 . S
C60 C57 1.399 . S
C60 C61 1.392 . S
C60 H77 0.929 . S
C61 C59 1.380 . S
C61 C60 1.392 . S
C61 H78 0.929 . S
C62 C57 1.383 . S
C62 C58 1.389 . S
C62 H79 0.931 . S
C63 O48 1.266 . S
C63 O49 1.248 . S
C64 Tb0 2.802 . S
C64 O44 1.264 . S
C64 O47 1.256 . S
C64 C57 1.496 . S
C65 C32 1.448 1_455 S
C65 H42 0.930 1_455 S
C65 C66 1.328 . S
C66 C37 1.427 . S
C66 H43 0.929 . S
C66 C65 1.328 . S
C67 O51 1.264 . S
C67 O52 1.243 . S
C68 C71 1.399 . S
C68 C72 1.383 1_455 S
C68 C75 1.496 . S
C69 C70 1.399 . S
C69 C72 1.389 . S
C70 C69 1.399 . S
C70 C73 1.380 1_655 S
C70 H80 0.929 . S
C71 C68 1.399 . S
C71 C73 1.392 . S
C71 H81 0.929 . S
C72 C68 1.383 1_655 S
C72 C69 1.389 . S
C72 H82 0.931 . S
C73 C70 1.380 1_455 S
C73 C71 1.392 . S
C73 H83 0.929 . S
C74 O54 1.266 . S
C74 O55 1.248 . S
C75 Tb11 2.802 . S
C75 O50 1.284 . S
C75 O53 1.256 . S
C75 C68 1.496 . S
H76 C59 0.929 . S
H77 C60 0.929 . S
H78 C61 0.929 . S
H79 C62 0.931 . S
H80 C70 0.929 . S
H81 C71 0.929 . S
H82 C72 0.931 . S
H83 C73 0.929 . S
Tb84 N113 2.617 . S
Tb84 N119 2.572 . S
Tb84 O128 2.465 . S
Tb84 O129 2.387 . S
Tb84 O131 2.428 . S
Tb84 O132 2.308 . S
Tb84 O136 2.349 . S
Tb84 O139 2.393 . S
Tb84 C148 2.802 . S
C85 N86 1.379 . S
C85 C88 1.416 . S
C85 C92 1.424 . S
N86 C85 1.379 . S
N86 C89 1.334 . S
N86 Tb95 2.617 . S
C87 C89 1.390 . S
C87 C90 1.339 . S
C87 H107 0.930 . S
C88 C85 1.416 . S
C88 C90 1.416 . S
C88 C94 1.448 1_545 S
C89 N86 1.334 . S
C89 C87 1.390 . S
C89 H100 0.930 . S
C90 C87 1.339 . S
C90 C88 1.416 . S
C90 H111 0.929 1_545 S
C91 C92 1.413 1_565 S
C91 C93 1.427 . S
C91 C97 1.416 . S
C92 C85 1.424 . S
C92 C91 1.413 1_545 S
C92 N96 1.361 . S
C93 C91 1.427 . S
C93 C94 1.328 . S
C93 H108 0.929 . S
C94 C88 1.448 1_565 S
C94 C93 1.328 . S
C94 H109 0.930 . S
Tb95 N86 2.617 . S
Tb95 N96 2.572 . S
Tb95 O130 2.349 . S
Tb95 O133 2.393 . S
Tb95 O134 2.465 . S
Tb95 O135 2.387 . S
Tb95 O137 2.428 . S
Tb95 O138 2.308 . S
Tb95 C159 2.802 . S
N96 C92 1.361 . S
N96 Tb95 2.572 . S
N96 C98 1.340 . S
C97 C91 1.416 . S
C97 C99 1.332 1_565 S
C97 H105 0.931 . S
C98 N96 1.340 . S
C98 C99 1.407 . S
C98 H104 0.930 . S
C99 C97 1.332 1_545 S
C99 C98 1.407 . S
C99 H101 0.929 . S
H100 C89 0.930 . S
H101 C99 0.929 . S
H102 C117 0.930 . S
H103 C124 0.929 . S
H104 C98 0.930 . S
H105 C97 0.931 . S
H106 C120 0.930 . S
H107 C87 0.930 . S
H108 C93 0.929 . S
H109 C94 0.930 . S
H110 C115 0.930 . S
H111 C90 0.929 1_565 S
H112 C123 0.931 . S
N113 Tb84 2.617 . S
N113 C114 1.379 . S
N113 C117 1.334 . S
C114 N113 1.379 . S
C114 C116 1.416 . S
C114 C122 1.424 . S
C115 H110 0.930 . S
C115 C117 1.390 . S
C115 C118 1.339 . S
C116 C114 1.416 . S
C116 C118 1.416 . S
C116 C149 1.448 . S
C117 H102 0.930 . S
C117 N113 1.334 . S
C117 C115 1.390 . S
C118 C115 1.339 . S
C118 C116 1.416 . S
C118 H125 0.930 . S
N119 Tb84 2.572 . S
N119 C120 1.340 . S
N119 C122 1.361 . S
C120 H106 0.930 . S
C120 N119 1.340 . S
C120 C124 1.407 . S
C121 C122 1.413 . S
C121 C123 1.416 . S
C121 C150 1.427 . S
C122 C114 1.424 . S
C122 N119 1.361 . S
C122 C121 1.413 . S
C123 H112 0.931 . S
C123 C121 1.416 . S
C123 C124 1.332 . S
C124 H103 0.929 . S
C124 C120 1.407 . S
C124 C123 1.332 . S
H125 C118 0.930 . S
H126 C149 0.930 . S
H127 C150 0.929 . S
O128 Tb84 2.465 . S
O128 C148 1.264 . S
O129 Tb84 2.387 . S
O129 C140 1.264 . S
O130 Tb95 2.349 . S
O130 C140 1.243 . S
O131 Tb84 2.428 . S
O131 C148 1.256 . S
O132 Tb84 2.308 . S
O132 C147 1.266 . S
O133 Tb95 2.393 . S
O133 C147 1.248 . S
O134 Tb95 2.465 . S
O134 C159 1.264 . S
O135 Tb95 2.387 . S
O135 C151 1.264 . S
O136 Tb84 2.349 . S
O136 C151 1.243 . S
O137 Tb95 2.428 . S
O137 C159 1.256 . S
O138 Tb95 2.308 . S
O138 C158 1.266 . S
O139 Tb84 2.393 . S
O139 C158 1.248 . S
C140 O129 1.264 . S
C140 O130 1.243 . S
C141 C144 1.399 . S
C141 C146 1.383 . S
C141 C148 1.496 . S
C142 C143 1.399 . S
C142 C146 1.389 . S
C143 C142 1.399 . S
C143 C145 1.380 . S
C143 H160 0.929 . S
C144 C141 1.399 . S
C144 C145 1.392 . S
C144 H161 0.929 . S
C145 C143 1.380 . S
C145 C144 1.392 . S
C145 H162 0.929 . S
C146 C141 1.383 . S
C146 C142 1.389 . S
C146 H163 0.931 . S
C147 O132 1.266 . S
C147 O133 1.248 . S
C148 Tb84 2.802 . S
C148 O128 1.264 . S
C148 O131 1.256 . S
C148 C141 1.496 . S
C149 C116 1.448 . S
C149 H126 0.930 . S
C149 C150 1.328 . S
C150 C121 1.427 . S
C150 H127 0.929 . S
C150 C149 1.328 . S
C151 O135 1.264 . S
C151 O136 1.243 . S
C152 C155 1.399 . S
C152 C156 1.383 . S
C152 C159 1.496 . S
C153 C154 1.399 . S
C153 C156 1.389 . S
C154 C153 1.399 . S
C154 C157 1.380 . S
C154 H164 0.929 . S
C155 C152 1.399 . S
C155 C157 1.392 . S
C155 H165 0.929 . S
C156 C152 1.383 . S
C156 C153 1.389 . S
C156 H166 0.931 . S
C157 C154 1.380 . S
C157 C155 1.392 . S
C157 H167 0.929 . S
C158 O138 1.266 . S
C158 O139 1.248 . S
C159 Tb95 2.802 . S
C159 O134 1.264 . S
C159 O137 1.256 . S
C159 C152 1.496 . S
H160 C143 0.929 . S
H161 C144 0.929 . S
H162 C145 0.929 . S
H163 C146 0.931 . S
H164 C154 0.929 . S
H165 C155 0.929 . S
H166 C156 0.931 . S
H167 C157 0.929 . S
Tb168 N197 2.617 . S
Tb168 N203 2.572 . S
Tb168 O212 2.465 . S
Tb168 O213 2.387 . S
Tb168 O215 2.428 . S
Tb168 O216 2.308 . S
Tb168 O220 2.349 . S
Tb168 O223 2.393 . S
Tb168 C232 2.802 . S
C169 N170 1.379 . S
C169 C172 1.416 . S
C169 C176 1.424 . S
N170 C169 1.379 . S
N170 C173 1.334 . S
N170 Tb179 2.617 . S
C171 C173 1.390 . S
C171 C174 1.339 . S
C171 H191 0.930 . S
C172 C169 1.416 . S
C172 C174 1.416 . S
C172 C178 1.448 1_554 S
C173 N170 1.334 . S
C173 C171 1.390 . S
C173 H184 0.930 . S
C174 C171 1.339 . S
C174 C172 1.416 . S
C174 H195 0.930 1_554 S
C175 C176 1.383 1_556 S
C175 C177 1.455 . S
C175 C181 1.416 . S
C176 C169 1.424 . S
C176 C175 1.383 1_554 S
C176 N180 1.361 . S
C177 C175 1.455 . S
C177 C178 1.328 . S
C177 H192 0.929 . S
C178 C172 1.448 1_556 S
C178 C177 1.328 . S
C178 H193 0.930 . S
Tb179 N170 2.617 . S
Tb179 N180 2.572 . S
Tb179 O214 2.349 . S
Tb179 O217 2.393 . S
Tb179 O218 2.465 . S
Tb179 O219 2.387 . S
Tb179 O221 2.428 . S
Tb179 O222 2.308 . S
Tb179 C243 2.802 . S
N180 C176 1.361 . S
N180 Tb179 2.572 . S
N180 C182 1.340 . S
C181 C175 1.416 . S
C181 C183 1.317 1_556 S
C181 H189 0.946 . S
C182 N180 1.340 . S
C182 C183 1.407 . S
C182 H188 0.930 . S
C183 C181 1.317 1_554 S
C183 C182 1.407 . S
C183 H185 0.929 . S
H184 C173 0.930 . S
H185 C183 0.929 . S
H186 C201 0.930 . S
H187 C208 0.929 . S
H188 C182 0.930 . S
H189 C181 0.946 . S
H190 C204 0.930 . S
H191 C171 0.930 . S
H192 C177 0.929 . S
H193 C178 0.930 . S
H194 C199 0.930 . S
H195 C174 0.930 1_556 S
H196 C207 0.931 . S
N197 Tb168 2.617 . S
N197 C198 1.379 . S
N197 C201 1.334 . S
C198 N197 1.379 . S
C198 C200 1.416 . S
C198 C206 1.424 . S
C199 H194 0.930 . S
C199 C201 1.390 . S
C199 C202 1.339 . S
C200 C198 1.416 . S
C200 C202 1.416 . S
C200 C233 1.448 . S
C201 H186 0.930 . S
C201 N197 1.334 . S
C201 C199 1.390 . S
C202 C199 1.339 . S
C202 C200 1.416 . S
C202 H209 0.930 . S
N203 Tb168 2.572 . S
N203 C204 1.340 . S
N203 C206 1.361 . S
C204 H190 0.930 . S
C204 N203 1.340 . S
C204 C208 1.407 . S
C205 C206 1.413 . S
C205 C207 1.416 . S
C205 C234 1.427 . S
C206 C198 1.424 . S
C206 N203 1.361 . S
C206 C205 1.413 . S
C207 H196 0.931 . S
C207 C205 1.416 . S
C207 C208 1.332 . S
C208 H187 0.929 . S
C208 C204 1.407 . S
C208 C207 1.332 . S
H209 C202 0.930 . S
H210 C233 0.930 . S
H211 C234 0.929 . S
O212 Tb168 2.465 . S
O212 C232 1.264 . S
O213 Tb168 2.387 . S
O213 C224 1.264 . S
O214 Tb179 2.349 . S
O214 C224 1.243 . S
O215 Tb168 2.428 . S
O215 C232 1.256 . S
O216 Tb168 2.308 . S
O216 C231 1.266 . S
O217 Tb179 2.393 . S
O217 C231 1.248 . S
O218 Tb179 2.465 . S
O218 C243 1.264 . S
O219 Tb179 2.387 . S
O219 C235 1.264 . S
O220 Tb168 2.349 . S
O220 C235 1.243 . S
O221 Tb179 2.428 . S
O221 C243 1.256 . S
O222 Tb179 2.308 . S
O222 C242 1.266 . S
O223 Tb168 2.393 . S
O223 C242 1.248 . S
C224 O213 1.264 . S
C224 O214 1.243 . S
C225 C228 1.399 . S
C225 C230 1.383 . S
C225 C232 1.496 . S
C226 C227 1.399 . S
C226 C230 1.389 . S
C227 C226 1.399 . S
C227 C229 1.380 . S
C227 H244 0.929 . S
C228 C225 1.399 . S
C228 C229 1.392 . S
C228 H245 0.929 . S
C229 C227 1.380 . S
C229 C228 1.392 . S
C229 H246 0.929 . S
C230 C225 1.383 . S
C230 C226 1.389 . S
C230 H247 0.931 . S
C231 O216 1.266 . S
C231 O217 1.248 . S
C232 Tb168 2.802 . S
C232 O212 1.264 . S
C232 O215 1.256 . S
C232 C225 1.496 . S
C233 C200 1.448 . S
C233 H210 0.930 . S
C233 C234 1.328 . S
C234 C205 1.427 . S
C234 H211 0.929 . S
C234 C233 1.328 . S
C235 O219 1.264 . S
C235 O220 1.243 . S
C236 C239 1.399 . S
C236 C240 1.383 . S
C236 C243 1.496 . S
C237 C238 1.399 . S
C237 C240 1.389 . S
C238 C237 1.399 . S
C238 C241 1.380 . S
C238 H248 0.929 . S
C239 C236 1.399 . S
C239 C241 1.392 . S
C239 H249 0.929 . S
C240 C236 1.383 . S
C240 C237 1.389 . S
C240 H250 0.931 . S
C241 C238 1.380 . S
C241 C239 1.392 . S
C241 H251 0.929 . S
C242 O222 1.266 . S
C242 O223 1.248 . S
C243 Tb179 2.802 . S
C243 O218 1.264 . S
C243 O221 1.256 . S
C243 C236 1.496 . S
H244 C227 0.929 . S
H245 C228 0.929 . S
H246 C229 0.929 . S
H247 C230 0.931 . S
H248 C238 0.929 . S
H249 C239 0.929 . S
H250 C240 0.931 . S
H251 C241 0.929 . S
Tb252 N281 2.617 . S
Tb252 N287 2.572 . S
Tb252 O296 2.465 . S
Tb252 O297 2.387 . S
Tb252 O299 2.428 . S
Tb252 O300 2.308 . S
Tb252 O304 2.349 . S
Tb252 O307 2.393 . S
Tb252 C316 2.802 . S
C253 N254 1.379 . S
C253 C256 1.416 . S
C253 C260 1.424 . S
N254 C253 1.379 . S
N254 C257 1.334 . S
N254 Tb263 2.617 . S
C255 C257 1.390 . S
C255 C258 1.339 . S
C255 H275 0.930 . S
C256 C253 1.416 . S
C256 C258 1.416 . S
C256 C262 1.448 . S
C257 N254 1.334 . S
C257 C255 1.390 . S
C257 H268 0.930 . S
C258 C255 1.339 . S
C258 C256 1.416 . S
C258 H279 0.930 . S
C259 C260 1.413 . S
C259 C261 1.427 . S
C259 C265 1.416 . S
C260 C253 1.424 . S
C260 C259 1.413 . S
C260 N264 1.361 . S
C261 C259 1.427 . S
C261 C262 1.328 . S
C261 H276 0.929 . S
C262 C256 1.448 . S
C262 C261 1.328 . S
C262 H277 0.930 . S
Tb263 N254 2.617 . S
Tb263 N264 2.572 . S
Tb263 O298 2.349 . S
Tb263 O301 2.393 . S
Tb263 O302 2.465 . S
Tb263 O303 2.387 . S
Tb263 O305 2.428 . S
Tb263 O306 2.308 . S
Tb263 C327 2.802 . S
N264 C260 1.361 . S
N264 Tb263 2.572 . S
N264 C266 1.340 . S
C265 C259 1.416 . S
C265 C267 1.332 . S
C265 H273 0.931 . S
C266 N264 1.340 . S
C266 C267 1.407 . S
C266 H272 0.930 . S
C267 C265 1.332 . S
C267 C266 1.407 . S
C267 H269 0.929 . S
H268 C257 0.930 . S
H269 C267 0.929 . S
H270 C285 0.930 . S
H271 C292 0.929 . S
H272 C266 0.930 . S
H273 C265 0.931 . S
H274 C288 0.930 . S
H275 C255 0.930 . S
H276 C261 0.929 . S
H277 C262 0.930 . S
H278 C283 0.930 . S
H279 C258 0.930 . S
H280 C291 0.931 . S
N281 Tb252 2.617 . S
N281 C282 1.379 . S
N281 C285 1.334 . S
C282 N281 1.379 . S
C282 C284 1.416 . S
C282 C290 1.424 . S
C283 H278 0.930 . S
C283 C285 1.390 . S
C283 C286 1.339 . S
C284 C282 1.416 . S
C284 C286 1.416 . S
C284 C317 1.448 . S
C285 H270 0.930 . S
C285 N281 1.334 . S
C285 C283 1.390 . S
C286 C283 1.339 . S
C286 C284 1.416 . S
C286 H293 0.930 . S
N287 Tb252 2.572 . S
N287 C288 1.340 . S
N287 C290 1.361 . S
C288 H274 0.930 . S
C288 N287 1.340 . S
C288 C292 1.407 . S
C289 C290 1.413 . S
C289 C291 1.416 . S
C289 C318 1.427 . S
C290 C282 1.424 . S
C290 N287 1.361 . S
C290 C289 1.413 . S
C291 H280 0.931 . S
C291 C289 1.416 . S
C291 C292 1.332 . S
C292 H271 0.929 . S
C292 C288 1.407 . S
C292 C291 1.332 . S
H293 C286 0.930 . S
H294 C317 0.930 . S
H295 C318 0.929 . S
O296 Tb252 2.465 . S
O296 C316 1.264 . S
O297 Tb252 2.387 . S
O297 C308 1.264 . S
O298 Tb263 2.349 . S
O298 C308 1.243 . S
O299 Tb252 2.428 . S
O299 C316 1.256 . S
O300 Tb252 2.308 . S
O300 C315 1.266 . S
O301 Tb263 2.393 . S
O301 C315 1.248 . S
O302 Tb263 2.465 . S
O302 C327 1.264 . S
O303 Tb263 2.387 . S
O303 C319 1.264 . S
O304 Tb252 2.349 . S
O304 C319 1.243 . S
O305 Tb263 2.428 . S
O305 C327 1.256 . S
O306 Tb263 2.308 . S
O306 C326 1.266 . S
O307 Tb252 2.393 . S
O307 C326 1.248 . S
C308 O297 1.264 . S
C308 O298 1.243 . S
C309 C312 1.399 . S
C309 C314 1.383 . S
C309 C316 1.496 . S
C310 C311 1.399 . S
C310 C314 1.389 . S
C311 C310 1.399 . S
C311 C313 1.380 . S
C311 H328 0.929 . S
C312 C309 1.399 . S
C312 C313 1.392 . S
C312 H329 0.929 . S
C313 C311 1.380 . S
C313 C312 1.392 . S
C313 H330 0.929 . S
C314 C309 1.383 . S
C314 C310 1.389 . S
C314 H331 0.931 . S
C315 O300 1.266 . S
C315 O301 1.248 . S
C316 Tb252 2.802 . S
C316 O296 1.264 . S
C316 O299 1.256 . S
C316 C309 1.496 . S
C317 C284 1.448 . S
C317 H294 0.930 . S
C317 C318 1.328 . S
C318 C289 1.427 . S
C318 H295 0.929 . S
C318 C317 1.328 . S
C319 O303 1.264 . S
C319 O304 1.243 . S
C320 C323 1.399 . S
C320 C324 1.383 . S
C320 C327 1.496 . S
C321 C322 1.399 . S
C321 C324 1.389 . S
C322 C321 1.399 . S
C322 C325 1.380 . S
C322 H332 0.929 . S
C323 C320 1.399 . S
C323 C325 1.392 . S
C323 H333 0.929 . S
C324 C320 1.383 . S
C324 C321 1.389 . S
C324 H334 0.931 . S
C325 C322 1.380 . S
C325 C323 1.392 . S
C325 H335 0.929 . S
C326 O306 1.266 . S
C326 O307 1.248 . S
C327 Tb263 2.802 . S
C327 O302 1.264 . S
C327 O305 1.256 . S
C327 C320 1.496 . S
H328 C311 0.929 . S
H329 C312 0.929 . S
H330 C313 0.929 . S
H331 C314 0.931 . S
H332 C322 0.929 . S
H333 C323 0.929 . S
H334 C324 0.931 . S
H335 C325 0.929 . S
Tb336 N365 2.617 . S
Tb336 N371 2.572 . S
Tb336 O380 2.465 . S
Tb336 O381 2.387 . S
Tb336 O383 2.428 . S
Tb336 O384 2.308 . S
Tb336 O388 2.349 . S
Tb336 O391 2.393 . S
Tb336 C400 2.802 . S
C337 N338 1.379 . S
C337 C340 1.416 . S
C337 C344 1.424 . S
N338 C337 1.379 . S
N338 C341 1.334 . S
N338 Tb347 2.617 . S
C339 C341 1.390 . S
C339 C342 1.339 . S
C339 H359 0.930 . S
C340 C337 1.416 . S
C340 C342 1.416 . S
C340 C346 1.448 . S
C341 N338 1.334 . S
C341 C339 1.390 . S
C341 H352 0.930 . S
C342 C339 1.339 . S
C342 C340 1.416 . S
C342 H363 0.930 . S
C343 C344 1.413 . S
C343 C345 1.427 . S
C343 C349 1.416 . S
C344 C337 1.424 . S
C344 C343 1.413 . S
C344 N348 1.361 . S
C345 C343 1.427 . S
C345 C346 1.328 . S
C345 H360 0.929 . S
C346 C340 1.448 . S
C346 C345 1.328 . S
C346 H361 0.930 . S
Tb347 N338 2.617 . S
Tb347 N348 2.572 . S
Tb347 O382 2.349 . S
Tb347 O385 2.393 . S
Tb347 O386 2.465 . S
Tb347 O387 2.387 . S
Tb347 O389 2.428 . S
Tb347 O390 2.308 . S
Tb347 C411 2.802 . S
N348 C344 1.361 . S
N348 Tb347 2.572 . S
N348 C350 1.340 . S
C349 C343 1.416 . S
C349 C351 1.332 . S
C349 H357 0.931 . S
C350 N348 1.340 . S
C350 C351 1.407 . S
C350 H356 0.930 . S
C351 C349 1.332 . S
C351 C350 1.407 . S
C351 H353 0.929 . S
H352 C341 0.930 . S
H353 C351 0.929 . S
H354 C369 0.930 . S
H355 C376 0.929 . S
H356 C350 0.930 . S
H357 C349 0.931 . S
H358 C372 0.930 . S
H359 C339 0.930 . S
H360 C345 0.929 . S
H361 C346 0.930 . S
H362 C367 0.930 . S
H363 C342 0.930 . S
H364 C375 0.945 . S
N365 Tb336 2.617 . S
N365 C366 1.379 . S
N365 C369 1.334 . S
C366 N365 1.379 . S
C366 C368 1.416 . S
C366 C374 1.424 . S
C367 H362 0.930 . S
C367 C369 1.390 . S
C367 C370 1.339 . S
C368 C366 1.416 . S
C368 C370 1.416 . S
C368 C401 1.448 1_556 S
C369 H354 0.930 . S
C369 N365 1.334 . S
C369 C367 1.390 . S
C370 C367 1.339 . S
C370 C368 1.416 . S
C370 H377 0.930 1_556 S
N371 Tb336 2.572 . S
N371 C372 1.340 . S
N371 C374 1.361 . S
C372 H358 0.930 . S
C372 N371 1.340 . S
C372 C376 1.407 . S
C373 C374 1.384 1_554 S
C373 C375 1.416 . S
C373 C402 1.454 . S
C374 C366 1.424 . S
C374 N371 1.361 . S
C374 C373 1.384 1_556 S
C375 H364 0.945 . S
C375 C373 1.416 . S
C375 C376 1.318 1_554 S
C376 H355 0.929 . S
C376 C372 1.407 . S
C376 C375 1.318 1_556 S
H377 C370 0.930 1_554 S
H378 C401 0.930 . S
H379 C402 0.929 . S
O380 Tb336 2.465 . S
O380 C400 1.264 . S
O381 Tb336 2.387 . S
O381 C392 1.264 . S
O382 Tb347 2.349 . S
O382 C392 1.243 . S
O383 Tb336 2.428 . S
O383 C400 1.256 . S
O384 Tb336 2.308 . S
O384 C399 1.266 . S
O385 Tb347 2.393 . S
O385 C399 1.248 . S
O386 Tb347 2.465 . S
O386 C411 1.264 . S
O387 Tb347 2.387 . S
O387 C403 1.264 . S
O388 Tb336 2.349 . S
O388 C403 1.243 . S
O389 Tb347 2.428 . S
O389 C411 1.256 . S
O390 Tb347 2.308 . S
O390 C410 1.266 . S
O391 Tb336 2.393 . S
O391 C410 1.248 . S
C392 O381 1.264 . S
C392 O382 1.243 . S
C393 C396 1.399 . S
C393 C398 1.383 . S
C393 C400 1.496 . S
C394 C395 1.399 . S
C394 C398 1.389 . S
C395 C394 1.399 . S
C395 C397 1.380 . S
C395 H412 0.929 . S
C396 C393 1.399 . S
C396 C397 1.392 . S
C396 H413 0.929 . S
C397 C395 1.380 . S
C397 C396 1.392 . S
C397 H414 0.929 . S
C398 C393 1.383 . S
C398 C394 1.389 . S
C398 H415 0.931 . S
C399 O384 1.266 . S
C399 O385 1.248 . S
C400 Tb336 2.802 . S
C400 O380 1.264 . S
C400 O383 1.256 . S
C400 C393 1.496 . S
C401 C368 1.448 1_554 S
C401 H378 0.930 . S
C401 C402 1.328 . S
C402 C373 1.454 . S
C402 H379 0.929 . S
C402 C401 1.328 . S
C403 O387 1.264 . S
C403 O388 1.243 . S
C404 C407 1.399 . S
C404 C408 1.383 . S
C404 C411 1.496 . S
C405 C406 1.399 . S
C405 C408 1.389 1_545 S
C406 C405 1.399 . S
C406 C409 1.380 . S
C406 H416 0.929 . S
C407 C404 1.399 . S
C407 C409 1.392 1_565 S
C407 H417 0.929 . S
C408 C404 1.383 . S
C408 C405 1.389 1_565 S
C408 H418 0.931 . S
C409 C406 1.380 . S
C409 C407 1.392 1_545 S
C409 H419 0.929 . S
C410 O390 1.266 . S
C410 O391 1.248 . S
C411 Tb347 2.802 . S
C411 O386 1.264 . S
C411 O389 1.256 . S
C411 C404 1.496 . S
H412 C395 0.929 . S
H413 C396 0.929 . S
H414 C397 0.929 . S
H415 C398 0.931 . S
H416 C406 0.929 . S
H417 C407 0.929 . S
H418 C408 0.931 . S
H419 C409 0.929 . S
Tb420 N449 2.617 . S
Tb420 N455 2.572 . S
Tb420 O464 2.465 . S
Tb420 O465 2.387 . S
Tb420 O467 2.428 . S
Tb420 O468 2.308 . S
Tb420 O472 2.349 . S
Tb420 O475 2.393 . S
Tb420 C484 2.802 . S
C421 N422 1.379 . S
C421 C424 1.416 . S
C421 C428 1.424 . S
N422 C421 1.379 . S
N422 C425 1.334 . S
N422 Tb431 2.617 . S
C423 C425 1.390 . S
C423 C426 1.339 . S
C423 H443 0.930 . S
C424 C421 1.416 . S
C424 C426 1.416 . S
C424 C430 1.448 . S
C425 N422 1.334 . S
C425 C423 1.390 . S
C425 H436 0.930 . S
C426 C423 1.339 . S
C426 C424 1.416 . S
C426 H447 0.930 . S
C427 C428 1.413 . S
C427 C429 1.427 . S
C427 C433 1.416 . S
C428 C421 1.424 . S
C428 C427 1.413 . S
C428 N432 1.361 . S
C429 C427 1.427 . S
C429 C430 1.328 . S
C429 H444 0.929 . S
C430 C424 1.448 . S
C430 C429 1.328 . S
C430 H445 0.930 . S
Tb431 N422 2.617 . S
Tb431 N432 2.572 . S
Tb431 O466 2.349 . S
Tb431 O469 2.393 . S
Tb431 O470 2.465 . S
Tb431 O471 2.387 . S
Tb431 O473 2.428 . S
Tb431 O474 2.308 . S
Tb431 C495 2.802 . S
N432 C428 1.361 . S
N432 Tb431 2.572 . S
N432 C434 1.340 . S
C433 C427 1.416 . S
C433 C435 1.332 . S
C433 H441 0.931 . S
C434 N432 1.340 . S
C434 C435 1.407 . S
C434 H440 0.930 . S
C435 C433 1.332 . S
C435 C434 1.407 . S
C435 H437 0.929 . S
H436 C425 0.930 . S
H437 C435 0.929 . S
H438 C453 0.930 . S
H439 C460 0.929 . S
H440 C434 0.930 . S
H441 C433 0.931 . S
H442 C456 0.930 . S
H443 C423 0.930 . S
H444 C429 0.929 . S
H445 C430 0.930 . S
H446 C451 0.930 . S
H447 C426 0.930 . S
H448 C459 0.931 . S
N449 Tb420 2.617 . S
N449 C450 1.379 . S
N449 C453 1.334 . S
C450 N449 1.379 . S
C450 C452 1.416 . S
C450 C458 1.424 . S
C451 H446 0.930 . S
C451 C453 1.390 . S
C451 C454 1.339 . S
C452 C450 1.416 . S
C452 C454 1.416 . S
C452 C485 1.448 . S
C453 H438 0.930 . S
C453 N449 1.334 . S
C453 C451 1.390 . S
C454 C451 1.339 . S
C454 C452 1.416 . S
C454 H461 0.930 . S
N455 Tb420 2.572 . S
N455 C456 1.340 . S
N455 C458 1.361 . S
C456 H442 0.930 . S
C456 N455 1.340 . S
C456 C460 1.407 . S
C457 C458 1.413 . S
C457 C459 1.416 . S
C457 C486 1.427 . S
C458 C450 1.424 . S
C458 N455 1.361 . S
C458 C457 1.413 . S
C459 H448 0.931 . S
C459 C457 1.416 . S
C459 C460 1.332 . S
C460 H439 0.929 . S
C460 C456 1.407 . S
C460 C459 1.332 . S
H461 C454 0.930 . S
H462 C485 0.930 . S
H463 C486 0.929 . S
O464 Tb420 2.465 . S
O464 C484 1.264 . S
O465 Tb420 2.387 . S
O465 C476 1.264 . S
O466 Tb431 2.349 . S
O466 C476 1.243 . S
O467 Tb420 2.428 . S
O467 C484 1.256 . S
O468 Tb420 2.308 . S
O468 C483 1.266 . S
O469 Tb431 2.393 . S
O469 C483 1.248 . S
O470 Tb431 2.465 . S
O470 C495 1.264 . S
O471 Tb431 2.387 . S
O471 C487 1.264 . S
O472 Tb420 2.349 . S
O472 C487 1.243 . S
O473 Tb431 2.428 . S
O473 C495 1.256 . S
O474 Tb431 2.308 . S
O474 C494 1.266 . S
O475 Tb420 2.393 . S
O475 C494 1.248 . S
C476 O465 1.264 . S
C476 O466 1.243 . S
C477 C480 1.399 . S
C477 C482 1.383 . S
C477 C484 1.496 . S
C478 C479 1.399 1_655 S
C478 C482 1.389 . S
C479 C478 1.399 1_455 S
C479 C481 1.380 1_455 S
C479 H496 0.929 . S
C480 C477 1.399 . S
C480 C481 1.392 . S
C480 H497 0.929 . S
C481 C479 1.380 1_655 S
C481 C480 1.392 . S
C481 H498 0.929 1_655 S
C482 C477 1.383 . S
C482 C478 1.389 . S
C482 H499 0.931 . S
C483 O468 1.266 . S
C483 O469 1.248 . S
C484 Tb420 2.802 . S
C484 O464 1.264 . S
C484 O467 1.256 . S
C484 C477 1.496 . S
C485 C452 1.448 . S
C485 H462 0.930 . S
C485 C486 1.328 . S
C486 C457 1.427 . S
C486 H463 0.929 . S
C486 C485 1.328 . S
C487 O471 1.264 . S
C487 O472 1.243 . S
C488 C491 1.399 . S
C488 C492 1.383 . S
C488 C495 1.496 . S
C489 C490 1.399 . S
C489 C492 1.389 . S
C490 C489 1.399 . S
C490 C493 1.380 . S
C490 H500 0.929 . S
C491 C488 1.399 . S
C491 C493 1.392 . S
C491 H501 0.929 . S
C492 C488 1.383 . S
C492 C489 1.389 . S
C492 H502 0.931 . S
C493 C490 1.380 . S
C493 C491 1.392 . S
C493 H503 0.929 . S
C494 O474 1.266 . S
C494 O475 1.248 . S
C495 Tb431 2.802 . S
C495 O470 1.264 . S
C495 O473 1.256 . S
C495 C488 1.496 . S
H496 C479 0.929 . S
H497 C480 0.929 . S
H498 C481 0.929 1_455 S
H499 C482 0.931 . S
H500 C490 0.929 . S
H501 C491 0.929 . S
H502 C492 0.931 . S
H503 C493 0.929 . S
Tb504 N533 2.617 . S
Tb504 N539 2.572 . S
Tb504 O548 2.465 . S
Tb504 O549 2.387 . S
Tb504 O551 2.428 . S
Tb504 O552 2.308 . S
Tb504 O556 2.349 . S
Tb504 O559 2.393 . S
Tb504 C568 2.802 . S
C505 N506 1.379 . S
C505 C508 1.416 1_556 S
C505 C512 1.424 . S
N506 C505 1.379 . S
N506 C509 1.334 . S
N506 Tb515 2.617 . S
C507 C509 1.390 . S
C507 C510 1.339 1_556 S
C507 H527 0.930 . S
C508 C505 1.416 1_554 S
C508 C510 1.416 . S
C508 C514 1.448 . S
C509 N506 1.334 . S
C509 C507 1.390 . S
C509 H520 0.930 . S
C510 C507 1.339 1_554 S
C510 C508 1.416 . S
C510 H531 0.930 . S
C511 C512 1.413 1_554 S
C511 C513 1.427 . S
C511 C517 1.416 . S
C512 C505 1.424 . S
C512 C511 1.413 1_556 S
C512 N516 1.361 . S
C513 C511 1.427 . S
C513 C514 1.328 . S
C513 H528 0.929 . S
C514 C508 1.448 . S
C514 C513 1.328 . S
C514 H529 0.930 . S
Tb515 N506 2.617 . S
Tb515 N516 2.572 . S
Tb515 O550 2.349 . S
Tb515 O553 2.393 . S
Tb515 O554 2.465 . S
Tb515 O555 2.387 . S
Tb515 O557 2.428 . S
Tb515 O558 2.308 . S
Tb515 C579 2.802 . S
N516 C512 1.361 . S
N516 Tb515 2.572 . S
N516 C518 1.340 . S
C517 C511 1.416 . S
C517 C519 1.332 1_454 S
C517 H525 0.931 1_455 S
C518 N516 1.340 . S
C518 C519 1.407 1_455 S
C518 H524 0.930 1_455 S
C519 C517 1.332 1_656 S
C519 C518 1.407 1_655 S
C519 H521 0.929 . S
H520 C509 0.930 . S
H521 C519 0.929 . S
H522 C537 0.930 . S
H523 C544 0.929 . S
H524 C518 0.930 1_655 S
H525 C517 0.931 1_655 S
H526 C540 0.930 . S
H527 C507 0.930 . S
H528 C513 0.929 . S
H529 C514 0.930 . S
H530 C535 0.930 . S
H531 C510 0.930 . S
H532 C543 0.931 . S
N533 Tb504 2.617 . S
N533 C534 1.379 . S
N533 C537 1.334 1_455 S
C534 N533 1.379 . S
C534 C536 1.416 . S
C534 C542 1.424 . S
C535 H530 0.930 . S
C535 C537 1.390 . S
C535 C538 1.339 . S
C536 C534 1.416 . S
C536 C538 1.416 1_455 S
C536 C569 1.448 . S
C537 H522 0.930 . S
C537 N533 1.334 1_655 S
C537 C535 1.390 . S
C538 C535 1.339 . S
C538 C536 1.416 1_655 S
C538 H545 0.930 . S
N539 Tb504 2.572 . S
N539 C540 1.340 . S
N539 C542 1.361 . S
C540 H526 0.930 . S
C540 N539 1.340 . S
C540 C544 1.407 . S
C541 C542 1.413 . S
C541 C543 1.416 . S
C541 C570 1.427 . S
C542 C534 1.424 . S
C542 N539 1.361 . S
C542 C541 1.413 . S
C543 H532 0.931 . S
C543 C541 1.416 . S
C543 C544 1.332 . S
C544 H523 0.929 . S
C544 C540 1.407 . S
C544 C543 1.332 . S
H545 C538 0.930 . S
H546 C569 0.930 . S
H547 C570 0.929 . S
O548 Tb504 2.465 . S
O548 C568 1.264 . S
O549 Tb504 2.387 . S
O549 C560 1.264 . S
O550 Tb515 2.349 . S
O550 C560 1.243 . S
O551 Tb504 2.428 . S
O551 C568 1.256 . S
O552 Tb504 2.308 . S
O552 C567 1.266 . S
O553 Tb515 2.393 . S
O553 C567 1.248 . S
O554 Tb515 2.465 . S
O554 C579 1.264 . S
O555 Tb515 2.387 . S
O555 C571 1.264 . S
O556 Tb504 2.349 . S
O556 C571 1.243 . S
O557 Tb515 2.428 . S
O557 C579 1.256 . S
O558 Tb515 2.308 . S
O558 C578 1.266 1_455 S
O559 Tb504 2.393 . S
O559 C578 1.248 1_455 S
C560 O549 1.264 . S
C560 O550 1.243 . S
C561 C564 1.399 . S
C561 C566 1.383 1_565 S
C561 C568 1.496 . S
C562 C563 1.399 . S
C562 C566 1.389 . S
C563 C562 1.399 . S
C563 C565 1.380 . S
C563 H580 0.929 . S
C564 C561 1.399 . S
C564 C565 1.392 1_565 S
C564 H581 0.929 . S
C565 C563 1.380 . S
C565 C564 1.392 1_545 S
C565 H582 0.929 . S
C566 C561 1.383 1_545 S
C566 C562 1.389 . S
C566 H583 0.931 1_545 S
C567 O552 1.266 . S
C567 O553 1.248 . S
C568 Tb504 2.802 . S
C568 O548 1.264 . S
C568 O551 1.256 . S
C568 C561 1.496 . S
C569 C536 1.448 . S
C569 H546 0.930 . S
C569 C570 1.328 . S
C570 C541 1.427 . S
C570 H547 0.929 . S
C570 C569 1.328 . S
C571 O555 1.264 . S
C571 O556 1.243 . S
C572 C575 1.399 . S
C572 C576 1.383 . S
C572 C579 1.496 . S
C573 C574 1.399 1_655 S
C573 C576 1.389 1_655 S
C574 C573 1.399 1_455 S
C574 C577 1.380 . S
C574 H584 0.929 . S
C575 C572 1.399 . S
C575 C577 1.392 . S
C575 H585 0.929 . S
C576 C572 1.383 . S
C576 C573 1.389 1_455 S
C576 H586 0.931 1_455 S
C577 C574 1.380 . S
C577 C575 1.392 . S
C577 H587 0.929 . S
C578 O558 1.266 1_655 S
C578 O559 1.248 1_655 S
C579 Tb515 2.802 . S
C579 O554 1.264 . S
C579 O557 1.256 . S
C579 C572 1.496 . S
H580 C563 0.929 . S
H581 C564 0.929 . S
H582 C565 0.929 . S
H583 C566 0.931 1_565 S
H584 C574 0.929 . S
H585 C575 0.929 . S
H586 C576 0.931 1_655 S
H587 C577 0.929 . S
Tb588 N617 2.617 . S
Tb588 N623 2.572 . S
Tb588 O632 2.465 . S
Tb588 O633 2.387 . S
Tb588 O635 2.428 . S
Tb588 O636 2.308 . S
Tb588 O640 2.349 1_545 S
Tb588 O643 2.393 . S
Tb588 C652 2.802 . S
C589 N590 1.379 . S
C589 C592 1.416 . S
C589 C596 1.424 . S
N590 C589 1.379 . S
N590 C593 1.334 . S
N590 Tb599 2.617 1_565 S
C591 C593 1.390 . S
C591 C594 1.339 . S
C591 H611 0.930 . S
C592 C589 1.416 . S
C592 C594 1.416 . S
C592 C598 1.448 . S
C593 N590 1.334 . S
C593 C591 1.390 . S
C593 H604 0.930 1_565 S
C594 C591 1.339 . S
C594 C592 1.416 . S
C594 H615 0.930 . S
C595 C596 1.413 . S
C595 C597 1.427 . S
C595 C601 1.416 . S
C596 C589 1.424 . S
C596 C595 1.413 . S
C596 N600 1.361 . S
C597 C595 1.427 . S
C597 C598 1.328 . S
C597 H612 0.929 . S
C598 C592 1.448 . S
C598 C597 1.328 . S
C598 H613 0.930 . S
Tb599 N590 2.617 1_545 S
Tb599 N600 2.572 1_545 S
Tb599 O634 2.349 . S
Tb599 O637 2.393 . S
Tb599 O638 2.465 . S
Tb599 O639 2.387 1_545 S
Tb599 O641 2.428 . S
Tb599 O642 2.308 . S
Tb599 C663 2.802 . S
N600 C596 1.361 . S
N600 Tb599 2.572 1_565 S
N600 C602 1.340 . S
C601 C595 1.416 . S
C601 C603 1.332 . S
C601 H609 0.931 . S
C602 N600 1.340 . S
C602 C603 1.407 . S
C602 H608 0.930 . S
C603 C601 1.332 . S
C603 C602 1.407 . S
C603 H605 0.929 . S
H604 C593 0.930 1_545 S
H605 C603 0.929 . S
H606 C621 0.930 . S
H607 C628 0.929 . S
H608 C602 0.930 . S
H609 C601 0.931 . S
H610 C624 0.930 . S
H611 C591 0.930 . S
H612 C597 0.929 . S
H613 C598 0.930 . S
H614 C619 0.930 . S
H615 C594 0.930 . S
H616 C627 0.931 . S
N617 Tb588 2.617 . S
N617 C618 1.379 . S
N617 C621 1.334 . S
C618 N617 1.379 . S
C618 C620 1.416 . S
C618 C626 1.424 . S
C619 H614 0.930 . S
C619 C621 1.390 . S
C619 C622 1.339 . S
C620 C618 1.416 . S
C620 C622 1.416 . S
C620 C653 1.448 . S
C621 H606 0.930 . S
C621 N617 1.334 . S
C621 C619 1.390 . S
C622 C619 1.339 . S
C622 C620 1.416 . S
C622 H629 0.930 . S
N623 Tb588 2.572 . S
N623 C624 1.340 . S
N623 C626 1.361 . S
C624 H610 0.930 . S
C624 N623 1.340 . S
C624 C628 1.407 . S
C625 C626 1.413 . S
C625 C627 1.416 . S
C625 C654 1.427 . S
C626 C618 1.424 . S
C626 N623 1.361 . S
C626 C625 1.413 . S
C627 H616 0.931 . S
C627 C625 1.416 . S
C627 C628 1.332 . S
C628 H607 0.929 . S
C628 C624 1.407 . S
C628 C627 1.332 . S
H629 C622 0.930 . S
H630 C653 0.930 . S
H631 C654 0.929 . S
O632 Tb588 2.465 . S
O632 C652 1.264 . S
O633 Tb588 2.387 . S
O633 C644 1.264 . S
O634 Tb599 2.349 . S
O634 C644 1.243 . S
O635 Tb588 2.428 . S
O635 C652 1.256 . S
O636 Tb588 2.308 . S
O636 C651 1.266 . S
O637 Tb599 2.393 . S
O637 C651 1.248 . S
O638 Tb599 2.465 . S
O638 C663 1.264 . S
O639 Tb599 2.387 1_565 S
O639 C655 1.264 . S
O640 Tb588 2.349 1_565 S
O640 C655 1.243 . S
O641 Tb599 2.428 . S
O641 C663 1.256 . S
O642 Tb599 2.308 . S
O642 C662 1.266 . S
O643 Tb588 2.393 . S
O643 C662 1.248 . S
C644 O633 1.264 . S
C644 O634 1.243 . S
C645 C648 1.399 . S
C645 C650 1.383 . S
C645 C652 1.496 . S
C646 C647 1.399 . S
C646 C650 1.389 . S
C647 C646 1.399 . S
C647 C649 1.380 . S
C647 H664 0.929 1_545 S
C648 C645 1.399 . S
C648 C649 1.392 . S
C648 H665 0.929 . S
C649 C647 1.380 . S
C649 C648 1.392 . S
C649 H666 0.929 . S
C650 C645 1.383 . S
C650 C646 1.389 . S
C650 H667 0.931 . S
C651 O636 1.266 . S
C651 O637 1.248 . S
C652 Tb588 2.802 . S
C652 O632 1.264 . S
C652 O635 1.256 . S
C652 C645 1.496 . S
C653 C620 1.448 . S
C653 H630 0.930 . S
C653 C654 1.328 . S
C654 C625 1.427 . S
C654 H631 0.929 . S
C654 C653 1.328 . S
C655 O639 1.264 . S
C655 O640 1.243 . S
C656 C659 1.399 . S
C656 C660 1.383 . S
C656 C663 1.496 . S
C657 C658 1.399 . S
C657 C660 1.389 . S
C658 C657 1.399 . S
C658 C661 1.380 . S
C658 H668 0.929 . S
C659 C656 1.399 . S
C659 C661 1.392 . S
C659 H669 0.929 . S
C660 C656 1.383 . S
C660 C657 1.389 . S
C660 H670 0.931 . S
C661 C658 1.380 . S
C661 C659 1.392 . S
C661 H671 0.929 . S
C662 O642 1.266 . S
C662 O643 1.248 . S
C663 Tb599 2.802 . S
C663 O638 1.264 . S
C663 O641 1.256 . S
C663 C656 1.496 . S
H664 C647 0.929 1_565 S
H665 C648 0.929 . S
H666 C649 0.929 . S
H667 C650 0.931 . S
H668 C658 0.929 . S
H669 C659 0.929 . S
H670 C660 0.931 . S
H671 C661 0.929 . S
H672 C680 0.929 . S
H673 C682 0.930 . S
H674 C684 0.930 . S
H675 C687 0.929 . S
H676 C690 0.930 . S
H677 C692 0.960 . S
H678 C692 0.960 . S
H679 C692 0.960 . S
C680 H672 0.929 . S
C680 C681 1.377 . S
C680 C682 1.384 . S
C681 C680 1.377 . S
C681 C687 1.390 . S
C682 H673 0.930 . S
C682 C680 1.384 . S
C682 C683 1.372 . S
C683 C682 1.372 . S
C683 C684 1.400 . S
C683 C688 1.490 . S
C684 H674 0.930 . S
C684 C683 1.400 . S
C684 C687 1.386 . S
H685 C701 0.930 . S
H686 C702 0.931 . S
C687 H675 0.929 . S
C687 C681 1.390 . S
C687 C684 1.386 . S
C688 C683 1.490 . S
C688 C690 1.395 . S
C688 C691 1.403 . S
H689 C695 0.930 . S
C690 H676 0.930 . S
C690 C688 1.395 . S
C690 C693 1.403 . S
C691 C688 1.403 . S
C691 C692 1.524 . S
C691 C695 1.400 . S
C692 H677 0.960 . S
C692 H678 0.960 . S
C692 H679 0.960 . S
C692 C691 1.524 . S
C693 C690 1.403 . S
C693 C694 1.392 . S
C693 C697 1.495 . S
C694 C693 1.392 . S
C694 C695 1.385 . S
C694 C696 1.478 . S
C695 H689 0.930 . S
C695 C691 1.400 . S
C695 C694 1.385 . S
C696 C694 1.478 . S
C696 C698 1.381 . S
C696 C702 1.383 . S
C697 C693 1.495 . S
C697 H703 0.959 1_545 S
C697 H704 0.961 . S
C697 H705 0.960 . S
C698 C696 1.381 . S
C698 C699 1.394 . S
C698 H706 0.930 . S
C699 C698 1.394 . S
C699 C700 1.383 . S
C699 H707 0.929 . S
C700 C699 1.383 . S
C700 C701 1.377 . S
C701 H685 0.930 . S
C701 C700 1.377 . S
C701 C702 1.379 . S
C702 H686 0.931 . S
C702 C696 1.383 . S
C702 C701 1.379 . S
H703 C697 0.959 1_565 S
H704 C697 0.961 . S
H705 C697 0.960 . S
H706 C698 0.930 . S
H707 C699 0.929 . S
H708 C716 0.929 . S
H709 C718 0.930 . S
H710 C720 0.930 . S
H711 C723 0.929 . S
H712 C726 0.930 . S
H713 C728 0.960 . S
H714 C728 0.960 . S
H715 C728 0.960 . S
C716 H708 0.929 . S
C716 C717 1.377 . S
C716 C718 1.384 . S
C717 C716 1.377 . S
C717 C723 1.390 . S
C718 H709 0.930 . S
C718 C716 1.384 . S
C718 C719 1.372 . S
C719 C718 1.372 . S
C719 C720 1.400 . S
C719 C724 1.490 . S
C720 H710 0.930 . S
C720 C719 1.400 . S
C720 C723 1.386 . S
H721 C737 0.930 . S
H722 C738 0.931 . S
C723 H711 0.929 . S
C723 C717 1.390 . S
C723 C720 1.386 . S
C724 C719 1.490 . S
C724 C726 1.395 . S
C724 C727 1.403 . S
H725 C731 0.930 . S
C726 H712 0.930 . S
C726 C724 1.395 . S
C726 C729 1.403 . S
C727 C724 1.403 . S
C727 C728 1.524 . S
C727 C731 1.400 . S
C728 H713 0.960 . S
C728 H714 0.960 . S
C728 H715 0.960 . S
C728 C727 1.524 . S
C729 C726 1.403 . S
C729 C730 1.392 . S
C729 C733 1.495 . S
C730 C729 1.392 . S
C730 C731 1.385 . S
C730 C732 1.478 . S
C731 H725 0.930 . S
C731 C727 1.400 . S
C731 C730 1.385 . S
C732 C730 1.478 . S
C732 C734 1.381 1_545 S
C732 C738 1.383 . S
C733 C729 1.495 . S
C733 H739 0.959 . S
C733 H740 0.961 . S
C733 H741 0.960 1_545 S
C734 C732 1.381 1_565 S
C734 C735 1.394 . S
C734 H742 0.930 . S
C735 C734 1.394 . S
C735 C736 1.383 . S
C735 H743 0.929 . S
C736 C735 1.383 . S
C736 C737 1.377 1_565 S
C737 H721 0.930 . S
C737 C736 1.377 1_545 S
C737 C738 1.379 . S
C738 H722 0.931 . S
C738 C732 1.383 . S
C738 C737 1.379 . S
H739 C733 0.959 . S
H740 C733 0.961 . S
H741 C733 0.960 1_565 S
H742 C734 0.930 . S
H743 C735 0.929 . S
H744 C752 0.929 . S
H745 C754 0.930 . S
H746 C756 0.930 . S
H747 C759 0.929 . S
H748 C762 0.930 . S
H749 C764 0.960 . S
H750 C764 0.960 . S
H751 C764 0.960 . S
C752 H744 0.929 . S
C752 C753 1.377 . S
C752 C754 1.384 . S
C753 C752 1.377 . S
C753 C759 1.390 . S
C754 H745 0.930 . S
C754 C752 1.384 . S
C754 C755 1.372 . S
C755 C754 1.372 . S
C755 C756 1.400 . S
C755 C760 1.490 . S
C756 H746 0.930 . S
C756 C755 1.400 . S
C756 C759 1.386 . S
H757 C773 0.930 . S
H758 C774 0.931 . S
C759 H747 0.929 . S
C759 C753 1.390 . S
C759 C756 1.386 . S
C760 C755 1.490 . S
C760 C762 1.395 . S
C760 C763 1.403 . S
H761 C767 0.930 . S
C762 H748 0.930 . S
C762 C760 1.395 . S
C762 C765 1.403 . S
C763 C760 1.403 . S
C763 C764 1.524 . S
C763 C767 1.400 . S
C764 H749 0.960 . S
C764 H750 0.960 . S
C764 H751 0.960 . S
C764 C763 1.524 . S
C765 C762 1.403 . S
C765 C766 1.392 . S
C765 C769 1.495 . S
C766 C765 1.392 . S
C766 C767 1.385 . S
C766 C768 1.478 . S
C767 H761 0.930 . S
C767 C763 1.400 . S
C767 C766 1.385 . S
C768 C766 1.478 . S
C768 C770 1.381 . S
C768 C774 1.383 . S
C769 C765 1.495 . S
C769 H775 0.959 . S
C769 H776 0.961 . S
C769 H777 0.960 . S
C770 C768 1.381 . S
C770 C771 1.394 . S
C770 H778 0.930 . S
C771 C770 1.394 . S
C771 C772 1.383 . S
C771 H779 0.929 . S
C772 C771 1.383 . S
C772 C773 1.377 . S
C773 H757 0.930 . S
C773 C772 1.377 . S
C773 C774 1.379 . S
C774 H758 0.931 . S
C774 C768 1.383 . S
C774 C773 1.379 . S
H775 C769 0.959 . S
H776 C769 0.961 . S
H777 C769 0.960 . S
H778 C770 0.930 . S
H779 C771 0.929 . S
H780 C788 0.929 . S
H781 C790 0.930 . S
H782 C792 0.930 . S
H783 C795 0.929 . S
H784 C798 0.930 . S
H785 C800 0.960 . S
H786 C800 0.960 . S
H787 C800 0.960 . S
C788 H780 0.929 . S
C788 C789 1.377 . S
C788 C790 1.384 . S
C789 C788 1.377 . S
C789 C795 1.390 . S
C790 H781 0.930 . S
C790 C788 1.384 . S
C790 C791 1.372 . S
C791 C790 1.372 . S
C791 C792 1.400 . S
C791 C796 1.490 . S
C792 H782 0.930 . S
C792 C791 1.400 . S
C792 C795 1.386 . S
H793 C809 0.930 . S
H794 C810 0.931 . S
C795 H783 0.929 . S
C795 C789 1.390 . S
C795 C792 1.386 . S
C796 C791 1.490 . S
C796 C798 1.395 . S
C796 C799 1.403 . S
H797 C803 0.930 . S
C798 H784 0.930 . S
C798 C796 1.395 . S
C798 C801 1.403 . S
C799 C796 1.403 . S
C799 C800 1.524 . S
C799 C803 1.400 . S
C800 H785 0.960 . S
C800 H786 0.960 . S
C800 H787 0.960 . S
C800 C799 1.524 . S
C801 C798 1.403 . S
C801 C802 1.392 . S
C801 C805 1.495 . S
C802 C801 1.392 . S
C802 C803 1.385 . S
C802 C804 1.478 . S
C803 H797 0.930 . S
C803 C799 1.400 . S
C803 C802 1.385 . S
C804 C802 1.478 . S
C804 C806 1.381 . S
C804 C810 1.383 . S
C805 C801 1.495 . S
C805 H811 0.959 . S
C805 H812 0.961 . S
C805 H813 0.960 . S
C806 C804 1.381 . S
C806 C807 1.394 . S
C806 H814 0.930 . S
C807 C806 1.394 . S
C807 C808 1.383 . S
C807 H815 0.929 . S
C808 C807 1.383 . S
C808 C809 1.377 . S
C809 H793 0.930 . S
C809 C808 1.377 . S
C809 C810 1.379 . S
C810 H794 0.931 . S
C810 C804 1.383 . S
C810 C809 1.379 . S
H811 C805 0.959 . S
H812 C805 0.961 . S
H813 C805 0.960 . S
H814 C806 0.930 . S
H815 C807 0.929 . S
H816 C824 0.929 . S
H817 C826 0.930 . S
H818 C828 0.930 . S
H819 C831 0.929 . S
H820 C834 0.930 . S
H821 C836 0.960 . S
H822 C836 0.960 . S
H823 C836 0.960 . S
C824 H816 0.929 . S
C824 C825 1.377 . S
C824 C826 1.384 . S
C825 C824 1.377 . S
C825 C831 1.390 . S
C826 H817 0.930 . S
C826 C824 1.384 . S
C826 C827 1.372 . S
C827 C826 1.372 . S
C827 C828 1.400 . S
C827 C832 1.490 . S
C828 H818 0.930 . S
C828 C827 1.400 . S
C828 C831 1.386 . S
H829 C845 0.930 . S
H830 C846 0.931 . S
C831 H819 0.929 . S
C831 C825 1.390 . S
C831 C828 1.386 . S
C832 C827 1.490 . S
C832 C834 1.395 . S
C832 C835 1.403 . S
H833 C839 0.930 . S
C834 H820 0.930 . S
C834 C832 1.395 . S
C834 C837 1.403 . S
C835 C832 1.403 . S
C835 C836 1.524 . S
C835 C839 1.400 . S
C836 H821 0.960 . S
C836 H822 0.960 . S
C836 H823 0.960 . S
C836 C835 1.524 . S
C837 C834 1.403 . S
C837 C838 1.392 . S
C837 C841 1.495 . S
C838 C837 1.392 . S
C838 C839 1.385 . S
C838 C840 1.478 . S
C839 H833 0.930 . S
C839 C835 1.400 . S
C839 C838 1.385 . S
C840 C838 1.478 . S
C840 C842 1.381 . S
C840 C846 1.383 . S
C841 C837 1.495 . S
C841 H847 0.959 1_545 S
C841 H848 0.961 . S
C841 H849 0.960 1_545 S
C842 C840 1.381 . S
C842 C843 1.394 . S
C842 H850 0.930 . S
C843 C842 1.394 . S
C843 C844 1.383 . S
C843 H851 0.929 . S
C844 C843 1.383 . S
C844 C845 1.377 . S
C845 H829 0.930 . S
C845 C844 1.377 . S
C845 C846 1.379 . S
C846 H830 0.931 . S
C846 C840 1.383 . S
C846 C845 1.379 . S
H847 C841 0.959 1_565 S
H848 C841 0.961 . S
H849 C841 0.960 1_565 S
H850 C842 0.930 . S
H851 C843 0.929 . S
H852 C860 0.929 . S
H853 C862 0.930 . S
H854 C864 0.930 . S
H855 C867 0.929 . S
H856 C870 0.930 . S
H857 C872 0.960 . S
H858 C872 0.960 . S
H859 C872 0.960 . S
C860 H852 0.929 . S
C860 C861 1.377 . S
C860 C862 1.384 . S
C861 C860 1.377 . S
C861 C867 1.390 . S
C862 H853 0.930 . S
C862 C860 1.384 . S
C862 C863 1.372 . S
C863 C862 1.372 . S
C863 C864 1.400 . S
C863 C868 1.490 . S
C864 H854 0.930 . S
C864 C863 1.400 . S
C864 C867 1.386 . S
H865 C881 0.930 . S
H866 C882 0.931 . S
C867 H855 0.929 . S
C867 C861 1.390 . S
C867 C864 1.386 . S
C868 C863 1.490 . S
C868 C870 1.395 . S
C868 C871 1.403 . S
H869 C875 0.930 . S
C870 H856 0.930 . S
C870 C868 1.395 . S
C870 C873 1.403 . S
C871 C868 1.403 . S
C871 C872 1.524 . S
C871 C875 1.400 . S
C872 H857 0.960 . S
C872 H858 0.960 . S
C872 H859 0.960 . S
C872 C871 1.524 . S
C873 C870 1.403 . S
C873 C874 1.392 . S
C873 C877 1.495 . S
C874 C873 1.392 . S
C874 C875 1.385 . S
C874 C876 1.478 . S
C875 H869 0.930 . S
C875 C871 1.400 . S
C875 C874 1.385 . S
C876 C874 1.478 . S
C876 C878 1.381 . S
C876 C882 1.383 . S
C877 C873 1.495 . S
C877 H883 0.959 . S
C877 H884 0.961 . S
C877 H885 0.960 . S
C878 C876 1.381 . S
C878 C879 1.394 . S
C878 H886 0.930 . S
C879 C878 1.394 . S
C879 C880 1.383 . S
C879 H887 0.929 . S
C880 C879 1.383 . S
C880 C881 1.377 . S
C881 H865 0.930 . S
C881 C880 1.377 . S
C881 C882 1.379 . S
C882 H866 0.931 . S
C882 C876 1.383 . S
C882 C881 1.379 . S
H883 C877 0.959 . S
H884 C877 0.961 . S
H885 C877 0.960 . S
H886 C878 0.930 . S
H887 C879 0.929 . S
H888 C896 0.929 . S
H889 C898 0.930 . S
H890 C900 0.930 . S
H891 C903 0.929 . S
H892 C906 0.930 . S
H893 C908 0.960 . S
H894 C908 0.960 . S
H895 C908 0.960 . S
C896 H888 0.929 . S
C896 C897 1.377 . S
C896 C898 1.384 . S
C897 C896 1.377 . S
C897 C903 1.390 . S
C898 H889 0.930 . S
C898 C896 1.384 . S
C898 C899 1.372 . S
C899 C898 1.372 . S
C899 C900 1.400 . S
C899 C904 1.490 . S
C900 H890 0.930 . S
C900 C899 1.400 . S
C900 C903 1.386 . S
H901 C917 0.930 . S
H902 C918 0.931 . S
C903 H891 0.929 . S
C903 C897 1.390 . S
C903 C900 1.386 . S
C904 C899 1.490 . S
C904 C906 1.395 . S
C904 C907 1.403 . S
H905 C911 0.930 . S
C906 H892 0.930 . S
C906 C904 1.395 . S
C906 C909 1.403 . S
C907 C904 1.403 . S
C907 C908 1.524 . S
C907 C911 1.400 . S
C908 H893 0.960 . S
C908 H894 0.960 . S
C908 H895 0.960 . S
C908 C907 1.524 . S
C909 C906 1.403 . S
C909 C910 1.392 . S
C909 C913 1.495 . S
C910 C909 1.392 . S
C910 C911 1.385 . S
C910 C912 1.478 . S
C911 H905 0.930 . S
C911 C907 1.400 . S
C911 C910 1.385 . S
C912 C910 1.478 . S
C912 C914 1.381 . S
C912 C918 1.383 . S
C913 C909 1.495 . S
C913 H919 0.959 . S
C913 H920 0.961 . S
C913 H921 0.960 . S
C914 C912 1.381 . S
C914 C915 1.394 . S
C914 H922 0.930 . S
C915 C914 1.394 . S
C915 C916 1.383 . S
C915 H923 0.929 . S
C916 C915 1.383 . S
C916 C917 1.377 . S
C917 H901 0.930 . S
C917 C916 1.377 . S
C917 C918 1.379 . S
C918 H902 0.931 . S
C918 C912 1.383 . S
C918 C917 1.379 . S
H919 C913 0.959 . S
H920 C913 0.961 . S
H921 C913 0.960 . S
H922 C914 0.930 . S
H923 C915 0.929 . S
H924 C932 0.929 . S
H925 C934 0.930 . S
H926 C936 0.930 . S
H927 C939 0.929 . S
H928 C942 0.930 . S
H929 C944 0.960 . S
H930 C944 0.960 . S
H931 C944 0.960 . S
C932 H924 0.929 . S
C932 C933 1.377 . S
C932 C934 1.384 . S
C933 C932 1.377 . S
C933 C939 1.390 . S
C934 H925 0.930 . S
C934 C932 1.384 . S
C934 C935 1.368 1_655 S
C935 C934 1.368 1_455 S
C935 C936 1.397 . S
C935 C940 1.497 . S
C936 H926 0.930 . S
C936 C935 1.397 . S
C936 C939 1.386 1_455 S
H937 C953 0.930 . S
H938 C954 0.931 . S
C939 H927 0.929 . S
C939 C933 1.390 . S
C939 C936 1.386 1_655 S
C940 C935 1.497 . S
C940 C942 1.395 1_455 S
C940 C943 1.403 . S
H941 C947 0.930 . S
C942 H928 0.930 . S
C942 C940 1.395 1_655 S
C942 C945 1.403 . S
C943 C940 1.403 . S
C943 C944 1.524 . S
C943 C947 1.400 . S
C944 H929 0.960 . S
C944 H930 0.960 . S
C944 H931 0.960 . S
C944 C943 1.524 . S
C945 C942 1.403 . S
C945 C946 1.392 1_655 S
C945 C949 1.495 . S
C946 C945 1.392 1_455 S
C946 C947 1.385 . S
C946 C948 1.478 . S
C947 H941 0.930 . S
C947 C943 1.400 . S
C947 C946 1.385 . S
C948 C946 1.478 . S
C948 C950 1.381 . S
C948 C954 1.383 . S
C949 C945 1.495 . S
C949 H955 0.959 . S
C949 H956 0.961 . S
C949 H957 0.960 . S
C950 C948 1.381 . S
C950 C951 1.394 . S
C950 H958 0.930 . S
C951 C950 1.394 . S
C951 C952 1.383 . S
C951 H959 0.929 . S
C952 C951 1.383 . S
C952 C953 1.377 . S
C953 H937 0.930 . S
C953 C952 1.377 . S
C953 C954 1.379 . S
C954 H938 0.931 . S
C954 C948 1.383 . S
C954 C953 1.379 . S
H955 C949 0.959 . S
H956 C949 0.961 . S
H957 C949 0.960 . S
H958 C950 0.930 . S
H959 C951 0.929 . S
H960 C968 0.929 . S
H961 C970 0.933 1_545 S
H962 C972 0.930 . S
H963 C975 0.929 . S
H964 C978 0.930 . S
H965 C980 0.960 . S
H966 C980 0.960 . S
H967 C980 0.960 . S
C968 H960 0.929 . S
C968 C969 1.377 . S
C968 C970 1.384 . S
C969 C968 1.377 . S
C969 C975 1.390 . S
C970 H961 0.933 1_565 S
C970 C968 1.384 . S
C970 C971 1.372 1_565 S
C971 C970 1.372 1_545 S
C971 C972 1.400 . S
C971 C976 1.490 . S
C972 H962 0.930 . S
C972 C971 1.400 . S
C972 C975 1.386 1_545 S
H973 C989 0.930 . S
H974 C990 0.931 . S
C975 H963 0.929 . S
C975 C969 1.390 . S
C975 C972 1.386 1_565 S
C976 C971 1.490 . S
C976 C978 1.395 . S
C976 C979 1.403 . S
H977 C983 0.930 . S
C978 H964 0.930 . S
C978 C976 1.395 . S
C978 C981 1.403 1_556 S
C979 C976 1.403 . S
C979 C980 1.524 1_455 S
C979 C983 1.400 1_556 S
C980 H965 0.960 . S
C980 H966 0.960 . S
C980 H967 0.960 . S
C980 C979 1.524 1_655 S
C981 C978 1.403 1_554 S
C981 C982 1.392 . S
C981 C985 1.495 . S
C982 C981 1.392 . S
C982 C983 1.385 . S
C982 C984 1.478 . S
C983 H977 0.930 . S
C983 C979 1.400 1_554 S
C983 C982 1.385 . S
C984 C982 1.478 . S
C984 C986 1.381 . S
C984 C990 1.383 . S
C985 C981 1.495 . S
C985 H991 0.959 . S
C985 H992 0.961 . S
C985 H993 0.960 . S
C986 C984 1.381 . S
C986 C987 1.394 . S
C986 H994 0.930 . S
C987 C986 1.394 . S
C987 C988 1.383 . S
C987 H995 0.929 . S
C988 C987 1.383 . S
C988 C989 1.377 . S
C989 H973 0.930 . S
C989 C988 1.377 . S
C989 C990 1.379 . S
C990 H974 0.931 . S
C990 C984 1.383 . S
C990 C989 1.379 . S
H991 C985 0.959 . S
H992 C985 0.961 . S
H993 C985 0.960 . S
H994 C986 0.930 . S
H995 C987 0.929 . S
H996 C1004 0.929 . S
H997 C1006 0.930 . S
H998 C1008 0.930 . S
H999 C1011 0.929 . S
H1000 C1014 0.930 . S
H1001 C1016 0.960 . S
H1002 C1016 0.960 . S
H1003 C1016 0.960 . S
C1004 H996 0.929 . S
C1004 C1005 1.377 . S
C1004 C1006 1.384 . S
C1005 C1004 1.377 . S
C1005 C1011 1.390 . S
C1006 H997 0.930 . S
C1006 C1004 1.384 . S
C1006 C1007 1.372 . S
C1007 C1006 1.372 . S
C1007 C1008 1.400 . S
C1007 C1012 1.490 . S
C1008 H998 0.930 . S
C1008 C1007 1.400 . S
C1008 C1011 1.386 . S
H1009 C1025 0.930 1_565 S
H1010 C1026 0.931 . S
C1011 H999 0.929 . S
C1011 C1005 1.390 . S
C1011 C1008 1.386 . S
C1012 C1007 1.490 . S
C1012 C1014 1.395 . S
C1012 C1015 1.403 . S
H1013 C1019 0.930 . S
C1014 H1000 0.930 . S
C1014 C1012 1.395 . S
C1014 C1017 1.403 . S
C1015 C1012 1.403 . S
C1015 C1016 1.524 . S
C1015 C1019 1.400 . S
C1016 H1001 0.960 . S
C1016 H1002 0.960 . S
C1016 H1003 0.960 . S
C1016 C1015 1.524 . S
C1017 C1014 1.403 . S
C1017 C1018 1.392 . S
C1017 C1021 1.495 . S
C1018 C1017 1.392 . S
C1018 C1019 1.385 . S
C1018 C1020 1.478 . S
C1019 H1013 0.930 . S
C1019 C1015 1.400 . S
C1019 C1018 1.385 . S
C1020 C1018 1.478 . S
C1020 C1022 1.381 . S
C1020 C1026 1.383 . S
C1021 C1017 1.495 . S
C1021 H1027 0.959 . S
C1021 H1028 0.961 . S
C1021 H1029 0.960 . S
C1022 C1020 1.381 . S
C1022 C1023 1.394 . S
C1022 H1030 0.930 . S
C1023 C1022 1.394 . S
C1023 C1024 1.383 . S
C1023 H1031 0.929 . S
C1024 C1023 1.383 . S
C1024 C1025 1.377 . S
C1025 H1009 0.930 1_545 S
C1025 C1024 1.377 . S
C1025 C1026 1.379 . S
C1026 H1010 0.931 . S
C1026 C1020 1.383 . S
C1026 C1025 1.379 . S
H1027 C1021 0.959 . S
H1028 C1021 0.961 . S
H1029 C1021 0.960 . S
H1030 C1022 0.930 . S
H1031 C1023 0.929 . S
H1032 C1040 0.929 . S
H1033 C1042 0.930 . S
H1034 C1044 0.930 . S
H1035 C1047 0.929 . S
H1036 C1050 0.930 . S
H1037 C1052 0.960 . S
H1038 C1052 0.960 . S
H1039 C1052 0.960 . S
C1040 H1032 0.929 . S
C1040 C1041 1.377 . S
C1040 C1042 1.384 . S
C1041 C1040 1.377 . S
C1041 C1047 1.390 . S
C1042 H1033 0.930 . S
C1042 C1040 1.384 . S
C1042 C1043 1.372 . S
C1043 C1042 1.372 . S
C1043 C1044 1.400 . S
C1043 C1048 1.490 . S
C1044 H1034 0.930 . S
C1044 C1043 1.400 . S
C1044 C1047 1.386 . S
H1045 C1061 0.930 . S
H1046 C1062 0.931 . S
C1047 H1035 0.929 . S
C1047 C1041 1.390 . S
C1047 C1044 1.386 . S
C1048 C1043 1.490 . S
C1048 C1050 1.395 . S
C1048 C1051 1.403 1_556 S
H1049 C1055 0.930 . S
C1050 H1036 0.930 . S
C1050 C1048 1.395 . S
C1050 C1053 1.403 . S
C1051 C1048 1.403 1_554 S
C1051 C1052 1.524 . S
C1051 C1055 1.400 . S
C1052 H1037 0.960 . S
C1052 H1038 0.960 . S
C1052 H1039 0.960 . S
C1052 C1051 1.524 . S
C1053 C1050 1.403 . S
C1053 C1054 1.392 1_556 S
C1053 C1057 1.495 . S
C1054 C1053 1.392 1_554 S
C1054 C1055 1.385 . S
C1054 C1056 1.478 . S
C1055 H1049 0.930 . S
C1055 C1051 1.400 . S
C1055 C1054 1.385 . S
C1056 C1054 1.478 . S
C1056 C1058 1.381 . S
C1056 C1062 1.383 . S
C1057 C1053 1.495 . S
C1057 H1063 0.959 . S
C1057 H1064 0.961 . S
C1057 H1065 0.960 . S
C1058 C1056 1.381 . S
C1058 C1059 1.394 . S
C1058 H1066 0.930 . S
C1059 C1058 1.394 . S
C1059 C1060 1.383 . S
C1059 H1067 0.929 . S
C1060 C1059 1.383 . S
C1060 C1061 1.377 . S
C1061 H1045 0.930 . S
C1061 C1060 1.377 . S
C1061 C1062 1.379 . S
C1062 H1046 0.931 . S
C1062 C1056 1.383 . S
C1062 C1061 1.379 . S
H1063 C1057 0.959 . S
H1064 C1057 0.961 . S
H1065 C1057 0.960 . S
H1066 C1058 0.930 . S
H1067 C1059 0.929 . S
H1068 C1076 0.929 . S
H1069 C1078 0.930 . S
H1070 C1080 0.930 . S
H1071 C1083 0.929 . S
H1072 C1086 0.930 . S
H1073 C1088 0.960 . S
H1074 C1088 0.960 . S
H1075 C1088 0.960 . S
C1076 H1068 0.929 . S
C1076 C1077 1.377 . S
C1076 C1078 1.384 . S
C1077 C1076 1.377 . S
C1077 C1083 1.390 . S
C1078 H1069 0.930 . S
C1078 C1076 1.384 . S
C1078 C1079 1.372 . S
C1079 C1078 1.372 . S
C1079 C1080 1.400 . S
C1079 C1084 1.490 . S
C1080 H1070 0.930 . S
C1080 C1079 1.400 . S
C1080 C1083 1.386 . S
H1081 C1097 0.930 . S
H1082 C1098 0.931 1_455 S
C1083 H1071 0.929 . S
C1083 C1077 1.390 . S
C1083 C1080 1.386 . S
C1084 C1079 1.490 . S
C1084 C1086 1.395 . S
C1084 C1087 1.403 . S
H1085 C1091 0.930 . S
C1086 H1072 0.930 . S
C1086 C1084 1.395 . S
C1086 C1089 1.403 . S
C1087 C1084 1.403 . S
C1087 C1088 1.524 . S
C1087 C1091 1.400 . S
C1088 H1073 0.960 . S
C1088 H1074 0.960 . S
C1088 H1075 0.960 . S
C1088 C1087 1.524 . S
C1089 C1086 1.403 . S
C1089 C1090 1.392 . S
C1089 C1093 1.495 . S
C1090 C1089 1.392 . S
C1090 C1091 1.385 . S
C1090 C1092 1.478 . S
C1091 H1085 0.930 . S
C1091 C1087 1.400 . S
C1091 C1090 1.385 . S
C1092 C1090 1.478 . S
C1092 C1094 1.381 1_455 S
C1092 C1098 1.383 1_455 S
C1093 C1089 1.495 . S
C1093 H1099 0.959 . S
C1093 H1100 0.961 . S
C1093 H1101 0.960 . S
C1094 C1092 1.381 1_655 S
C1094 C1095 1.394 . S
C1094 H1102 0.930 . S
C1095 C1094 1.394 . S
C1095 C1096 1.383 . S
C1095 H1103 0.929 . S
C1096 C1095 1.383 . S
C1096 C1097 1.377 . S
C1097 H1081 0.930 . S
C1097 C1096 1.377 . S
C1097 C1098 1.379 . S
C1098 H1082 0.931 1_655 S
C1098 C1092 1.383 1_655 S
C1098 C1097 1.379 . S
H1099 C1093 0.959 . S
H1100 C1093 0.961 . S
H1101 C1093 0.960 . S
H1102 C1094 0.930 . S
H1103 C1095 0.929 . S
H1104 C1112 0.929 . S
H1105 C1114 0.930 . S
H1106 C1116 0.930 . S
H1107 C1119 0.929 . S
H1108 C1122 0.930 . S
H1109 C1124 0.960 . S
H1110 C1124 0.960 1_556 S
H1111 C1124 0.960 . S
C1112 H1104 0.929 . S
C1112 C1113 1.377 . S
C1112 C1114 1.384 1_565 S
C1113 C1112 1.377 . S
C1113 C1119 1.390 . S
C1114 H1105 0.930 . S
C1114 C1112 1.384 1_545 S
C1114 C1115 1.372 . S
C1115 C1114 1.372 . S
C1115 C1116 1.400 1_545 S
C1115 C1120 1.490 . S
C1116 H1106 0.930 . S
C1116 C1115 1.400 1_565 S
C1116 C1119 1.386 . S
H1117 C1133 0.930 . S
H1118 C1134 0.931 . S
C1119 H1107 0.929 . S
C1119 C1113 1.390 . S
C1119 C1116 1.386 . S
C1120 C1115 1.490 . S
C1120 C1122 1.395 . S
C1120 C1123 1.403 1_556 S
H1121 C1127 0.930 . S
C1122 H1108 0.930 . S
C1122 C1120 1.395 . S
C1122 C1125 1.403 . S
C1123 C1120 1.403 1_554 S
C1123 C1124 1.524 . S
C1123 C1127 1.400 . S
C1124 H1109 0.960 . S
C1124 H1110 0.960 1_554 S
C1124 H1111 0.960 . S
C1124 C1123 1.524 . S
C1125 C1122 1.403 . S
C1125 C1126 1.392 1_556 S
C1125 C1129 1.495 . S
C1126 C1125 1.392 1_554 S
C1126 C1127 1.385 . S
C1126 C1128 1.478 . S
C1127 H1121 0.930 . S
C1127 C1123 1.400 . S
C1127 C1126 1.385 . S
C1128 C1126 1.478 . S
C1128 C1130 1.381 . S
C1128 C1134 1.383 . S
C1129 C1125 1.495 . S
C1129 H1135 0.959 . S
C1129 H1136 0.961 . S
C1129 H1137 0.960 . S
C1130 C1128 1.381 . S
C1130 C1131 1.394 . S
C1130 H1138 0.930 . S
C1131 C1130 1.394 . S
C1131 C1132 1.383 . S
C1131 H1139 0.929 . S
C1132 C1131 1.383 . S
C1132 C1133 1.377 . S
C1133 H1117 0.930 . S
C1133 C1132 1.377 . S
C1133 C1134 1.379 . S
C1134 H1118 0.931 . S
C1134 C1128 1.383 . S
C1134 C1133 1.379 . S
H1135 C1129 0.959 . S
H1136 C1129 0.961 . S
H1137 C1129 0.960 . S
H1138 C1130 0.930 . S
H1139 C1131 0.929 . S
H1140 C1148 0.929 . S
H1141 C1150 0.930 . S
H1142 C1152 0.930 . S
H1143 C1155 0.929 . S
H1144 C1158 0.930 . S
H1145 C1160 0.960 . S
H1146 C1160 0.960 . S
H1147 C1160 0.960 . S
C1148 H1140 0.929 . S
C1148 C1149 1.377 . S
C1148 C1150 1.384 . S
C1149 C1148 1.377 . S
C1149 C1155 1.390 . S
C1150 H1141 0.930 . S
C1150 C1148 1.384 . S
C1150 C1151 1.372 . S
C1151 C1150 1.372 . S
C1151 C1152 1.400 . S
C1151 C1156 1.490 . S
C1152 H1142 0.930 . S
C1152 C1151 1.400 . S
C1152 C1155 1.386 . S
H1153 C1169 0.930 . S
H1154 C1170 0.931 . S
C1155 H1143 0.929 . S
C1155 C1149 1.390 . S
C1155 C1152 1.386 . S
C1156 C1151 1.490 . S
C1156 C1158 1.395 . S
C1156 C1159 1.403 . S
H1157 C1163 0.930 . S
C1158 H1144 0.930 . S
C1158 C1156 1.395 . S
C1158 C1161 1.403 . S
C1159 C1156 1.403 . S
C1159 C1160 1.524 . S
C1159 C1163 1.400 . S
C1160 H1145 0.960 . S
C1160 H1146 0.960 . S
C1160 H1147 0.960 . S
C1160 C1159 1.524 . S
C1161 C1158 1.403 . S
C1161 C1162 1.392 . S
C1161 C1165 1.495 . S
C1162 C1161 1.392 . S
C1162 C1163 1.385 . S
C1162 C1164 1.478 . S
C1163 H1157 0.930 . S
C1163 C1159 1.400 . S
C1163 C1162 1.385 . S
C1164 C1162 1.478 . S
C1164 C1166 1.381 . S
C1164 C1170 1.383 . S
C1165 C1161 1.495 . S
C1165 H1171 0.959 . S
C1165 H1172 0.961 . S
C1165 H1173 0.960 . S
C1166 C1164 1.381 . S
C1166 C1167 1.394 . S
C1166 H1174 0.930 . S
C1167 C1166 1.394 . S
C1167 C1168 1.383 . S
C1167 H1175 0.929 . S
C1168 C1167 1.383 . S
C1168 C1169 1.377 . S
C1169 H1153 0.930 . S
C1169 C1168 1.377 . S
C1169 C1170 1.379 . S
C1170 H1154 0.931 . S
C1170 C1164 1.383 . S
C1170 C1169 1.379 . S
H1171 C1165 0.959 . S
H1172 C1165 0.961 . S
H1173 C1165 0.960 . S
H1174 C1166 0.930 . S
H1175 C1167 0.929 . S
H1176 C1184 0.929 . S
H1177 C1186 0.930 . S
H1178 C1188 0.930 1_554 S
H1179 C1191 0.929 . S
H1180 C1194 0.930 . S
H1181 C1196 0.961 1_554 S
H1182 C1196 0.960 . S
H1183 C1196 0.960 1_554 S
C1184 H1176 0.929 . S
C1184 C1185 1.377 . S
C1184 C1186 1.384 . S
C1185 C1184 1.377 . S
C1185 C1191 1.390 1_455 S
C1186 H1177 0.930 . S
C1186 C1184 1.384 . S
C1186 C1187 1.372 . S
C1187 C1186 1.372 . S
C1187 C1188 1.400 . S
C1187 C1192 1.490 . S
C1188 H1178 0.930 1_556 S
C1188 C1187 1.400 . S
C1188 C1191 1.386 1_455 S
H1189 C1205 0.930 . S
H1190 C1206 0.931 . S
C1191 H1179 0.929 . S
C1191 C1185 1.390 1_655 S
C1191 C1188 1.386 1_655 S
C1192 C1187 1.490 . S
C1192 C1194 1.395 . S
C1192 C1195 1.403 . S
H1193 C1199 0.930 . S
C1194 H1180 0.930 . S
C1194 C1192 1.395 . S
C1194 C1197 1.390 1_556 S
C1195 C1192 1.403 . S
C1195 C1196 1.524 1_455 S
C1195 C1199 1.400 1_556 S
C1196 H1181 0.961 1_556 S
C1196 H1182 0.960 . S
C1196 H1183 0.960 1_556 S
C1196 C1195 1.524 1_655 S
C1197 C1194 1.390 1_554 S
C1197 C1198 1.405 . S
C1197 C1201 1.497 . S
C1198 C1197 1.405 . S
C1198 C1199 1.385 . S
C1198 C1200 1.478 . S
C1199 H1193 0.930 . S
C1199 C1195 1.400 1_554 S
C1199 C1198 1.385 . S
C1200 C1198 1.478 . S
C1200 C1202 1.381 . S
C1200 C1206 1.383 . S
C1201 C1197 1.497 . S
C1201 H1207 0.959 1_554 S
C1201 H1208 0.961 . S
C1201 H1209 0.960 1_554 S
C1202 C1200 1.381 . S
C1202 C1203 1.394 . S
C1202 H1210 0.930 1_554 S
C1203 C1202 1.394 . S
C1203 C1204 1.383 . S
C1203 H1211 0.929 . S
C1204 C1203 1.383 . S
C1204 C1205 1.377 . S
C1205 H1189 0.930 . S
C1205 C1204 1.377 . S
C1205 C1206 1.379 . S
C1206 H1190 0.931 . S
C1206 C1200 1.383 . S
C1206 C1205 1.379 . S
H1207 C1201 0.959 1_556 S
H1208 C1201 0.961 . S
H1209 C1201 0.960 1_556 S
H1210 C1202 0.930 1_556 S
H1211 C1203 0.929 . S
H1212 C1220 0.929 . S
H1213 C1222 0.930 . S
H1214 C1224 0.930 . S
H1215 C1227 0.929 . S
H1216 C1230 0.930 . S
H1217 C1232 0.960 . S
H1218 C1232 0.960 . S
H1219 C1232 0.960 . S
C1220 H1212 0.929 . S
C1220 C1221 1.377 . S
C1220 C1222 1.384 . S
C1221 C1220 1.377 . S
C1221 C1227 1.390 . S
C1222 H1213 0.930 . S
C1222 C1220 1.384 . S
C1222 C1223 1.372 . S
C1223 C1222 1.372 . S
C1223 C1224 1.400 . S
C1223 C1228 1.490 . S
C1224 H1214 0.930 . S
C1224 C1223 1.400 . S
C1224 C1227 1.386 . S
H1225 C1241 0.930 . S
H1226 C1242 0.941 . S
C1227 H1215 0.929 . S
C1227 C1221 1.390 . S
C1227 C1224 1.386 . S
C1228 C1223 1.490 . S
C1228 C1230 1.395 . S
C1228 C1231 1.403 . S
H1229 C1235 0.930 . S
C1230 H1216 0.930 . S
C1230 C1228 1.395 . S
C1230 C1233 1.403 . S
C1231 C1228 1.403 . S
C1231 C1232 1.524 . S
C1231 C1235 1.400 . S
C1232 H1217 0.960 . S
C1232 H1218 0.960 . S
C1232 H1219 0.960 . S
C1232 C1231 1.524 . S
C1233 C1230 1.403 . S
C1233 C1234 1.392 . S
C1233 C1237 1.495 . S
C1234 C1233 1.392 . S
C1234 C1235 1.385 . S
C1234 C1236 1.478 1_455 S
C1235 H1229 0.930 . S
C1235 C1231 1.400 . S
C1235 C1234 1.385 . S
C1236 C1234 1.478 1_655 S
C1236 C1238 1.381 . S
C1236 C1242 1.383 . S
C1237 C1233 1.495 . S
C1237 H1243 0.959 . S
C1237 H1244 0.961 . S
C1237 H1245 0.960 . S
C1238 C1236 1.381 . S
C1238 C1239 1.394 . S
C1238 H1246 0.930 . S
C1239 C1238 1.394 . S
C1239 C1240 1.383 . S
C1239 H1247 0.929 . S
C1240 C1239 1.383 . S
C1240 C1241 1.377 1_545 S
C1241 H1225 0.930 . S
C1241 C1240 1.377 1_565 S
C1241 C1242 1.379 1_565 S
C1242 H1226 0.941 . S
C1242 C1236 1.383 . S
C1242 C1241 1.379 1_545 S
H1243 C1237 0.959 . S
H1244 C1237 0.961 . S
H1245 C1237 0.960 . S
H1246 C1238 0.930 . S
H1247 C1239 0.929 . S
H1248 C1256 0.929 . S
H1249 C1258 0.930 . S
H1250 C1260 0.930 . S
H1251 C1263 0.929 . S
H1252 C1266 0.930 . S
H1253 C1268 0.960 . S
H1254 C1268 0.960 . S
H1255 C1268 0.960 . S
C1256 H1248 0.929 . S
C1256 C1257 1.377 . S
C1256 C1258 1.384 . S
C1257 C1256 1.377 . S
C1257 C1263 1.390 . S
C1258 H1249 0.930 . S
C1258 C1256 1.384 . S
C1258 C1259 1.372 . S
C1259 C1258 1.372 . S
C1259 C1260 1.400 . S
C1259 C1264 1.490 . S
C1260 H1250 0.930 . S
C1260 C1259 1.400 . S
C1260 C1263 1.386 . S
H1261 C1277 0.930 . S
H1262 C1278 0.931 . S
C1263 H1251 0.929 . S
C1263 C1257 1.390 . S
C1263 C1260 1.386 . S
C1264 C1259 1.490 . S
C1264 C1266 1.395 . S
C1264 C1267 1.403 . S
H1265 C1271 0.930 . S
C1266 H1252 0.930 . S
C1266 C1264 1.395 . S
C1266 C1269 1.403 . S
C1267 C1264 1.403 . S
C1267 C1268 1.524 . S
C1267 C1271 1.400 . S
C1268 H1253 0.960 . S
C1268 H1254 0.960 . S
C1268 H1255 0.960 . S
C1268 C1267 1.524 . S
C1269 C1266 1.403 . S
C1269 C1270 1.392 . S
C1269 C1273 1.495 . S
C1270 C1269 1.392 . S
C1270 C1271 1.385 . S
C1270 C1272 1.478 . S
C1271 H1265 0.930 . S
C1271 C1267 1.400 . S
C1271 C1270 1.385 . S
C1272 C1270 1.478 . S
C1272 C1274 1.381 . S
C1272 C1278 1.383 . S
C1273 C1269 1.495 . S
C1273 H1279 0.959 . S
C1273 H1280 0.961 . S
C1273 H1281 0.960 . S
C1274 C1272 1.381 . S
C1274 C1275 1.394 . S
C1274 H1282 0.930 . S
C1275 C1274 1.394 . S
C1275 C1276 1.383 . S
C1275 H1283 0.929 . S
C1276 C1275 1.383 . S
C1276 C1277 1.377 . S
C1277 H1261 0.930 . S
C1277 C1276 1.377 . S
C1277 C1278 1.379 . S
C1278 H1262 0.931 . S
C1278 C1272 1.383 . S
C1278 C1277 1.379 . S
H1279 C1273 0.959 . S
H1280 C1273 0.961 . S
H1281 C1273 0.960 . S
H1282 C1274 0.930 . S
H1283 C1275 0.929 . S
H1284 C1292 0.929 . S
H1285 C1294 0.930 . S
H1286 C1296 0.930 . S
H1287 C1299 0.929 . S
H1288 C1302 0.930 . S
H1289 C1304 0.960 . S
H1290 C1304 0.960 . S
H1291 C1304 0.960 . S
C1292 H1284 0.929 . S
C1292 C1293 1.377 . S
C1292 C1294 1.384 . S
C1293 C1292 1.377 . S
C1293 C1299 1.390 . S
C1294 H1285 0.930 . S
C1294 C1292 1.384 . S
C1294 C1295 1.372 . S
C1295 C1294 1.372 . S
C1295 C1296 1.400 . S
C1295 C1300 1.490 . S
C1296 H1286 0.930 . S
C1296 C1295 1.400 . S
C1296 C1299 1.386 . S
H1297 C1313 0.930 . S
H1298 C1314 0.931 . S
C1299 H1287 0.929 . S
C1299 C1293 1.390 . S
C1299 C1296 1.386 . S
C1300 C1295 1.490 . S
C1300 C1302 1.395 . S
C1300 C1303 1.403 . S
H1301 C1307 0.930 . S
C1302 H1288 0.930 . S
C1302 C1300 1.395 . S
C1302 C1305 1.403 . S
C1303 C1300 1.403 . S
C1303 C1304 1.524 . S
C1303 C1307 1.400 . S
C1304 H1289 0.960 . S
C1304 H1290 0.960 . S
C1304 H1291 0.960 . S
C1304 C1303 1.524 . S
C1305 C1302 1.403 . S
C1305 C1306 1.392 . S
C1305 C1309 1.495 . S
C1306 C1305 1.392 . S
C1306 C1307 1.385 . S
C1306 C1308 1.478 . S
C1307 H1301 0.930 . S
C1307 C1303 1.400 . S
C1307 C1306 1.385 . S
C1308 C1306 1.478 . S
C1308 C1310 1.381 . S
C1308 C1314 1.383 . S
C1309 C1305 1.495 . S
C1309 H1315 0.959 . S
C1309 H1316 0.961 . S
C1309 H1317 0.960 . S
C1310 C1308 1.381 . S
C1310 C1311 1.394 . S
C1310 H1318 0.930 . S
C1311 C1310 1.394 . S
C1311 C1312 1.383 . S
C1311 H1319 0.929 . S
C1312 C1311 1.383 . S
C1312 C1313 1.377 . S
C1313 H1297 0.930 . S
C1313 C1312 1.377 . S
C1313 C1314 1.379 . S
C1314 H1298 0.931 . S
C1314 C1308 1.383 . S
C1314 C1313 1.379 . S
H1315 C1309 0.959 . S
H1316 C1309 0.961 . S
H1317 C1309 0.960 . S
H1318 C1310 0.930 . S
H1319 C1311 0.929 . S
H1320 C1328 0.929 . S
H1321 C1330 0.930 . S
H1322 C1332 0.930 . S
H1323 C1335 0.929 . S
H1324 C1338 0.930 . S
H1325 C1340 0.960 . S
H1326 C1340 0.960 . S
H1327 C1340 0.960 . S
C1328 H1320 0.929 . S
C1328 C1329 1.377 . S
C1328 C1330 1.384 . S
C1329 C1328 1.377 . S
C1329 C1335 1.390 . S
C1330 H1321 0.930 . S
C1330 C1328 1.384 . S
C1330 C1331 1.372 . S
C1331 C1330 1.372 . S
C1331 C1332 1.400 . S
C1331 C1336 1.490 . S
C1332 H1322 0.930 . S
C1332 C1331 1.400 . S
C1332 C1335 1.386 . S
H1333 C1349 0.930 . S
H1334 C1350 0.931 . S
C1335 H1323 0.929 . S
C1335 C1329 1.390 . S
C1335 C1332 1.386 . S
C1336 C1331 1.490 . S
C1336 C1338 1.395 . S
C1336 C1339 1.403 . S
H1337 C1343 0.930 . S
C1338 H1324 0.930 . S
C1338 C1336 1.395 . S
C1338 C1341 1.403 . S
C1339 C1336 1.403 . S
C1339 C1340 1.524 . S
C1339 C1343 1.400 . S
C1340 H1325 0.960 . S
C1340 H1326 0.960 . S
C1340 H1327 0.960 . S
C1340 C1339 1.524 . S
C1341 C1338 1.403 . S
C1341 C1342 1.392 . S
C1341 C1345 1.495 . S
C1342 C1341 1.392 . S
C1342 C1343 1.385 . S
C1342 C1344 1.478 . S
C1343 H1337 0.930 . S
C1343 C1339 1.400 . S
C1343 C1342 1.385 . S
C1344 C1342 1.478 . S
C1344 C1346 1.381 . S
C1344 C1350 1.383 . S
C1345 C1341 1.495 . S
C1345 H1351 0.959 . S
C1345 H1352 0.961 . S
C1345 H1353 0.960 . S
C1346 C1344 1.381 . S
C1346 C1347 1.394 . S
C1346 H1354 0.930 . S
C1347 C1346 1.394 . S
C1347 C1348 1.383 . S
C1347 H1355 0.929 . S
C1348 C1347 1.383 . S
C1348 C1349 1.377 . S
C1349 H1333 0.930 . S
C1349 C1348 1.377 . S
C1349 C1350 1.379 . S
C1350 H1334 0.931 . S
C1350 C1344 1.383 . S
C1350 C1349 1.379 . S
H1351 C1345 0.959 . S
H1352 C1345 0.961 . S
H1353 C1345 0.960 . S
H1354 C1346 0.930 . S
H1355 C1347 0.929 . S
H1356 C1364 0.929 . S
H1357 C1366 0.930 . S
H1358 C1368 0.930 . S
H1359 C1371 0.929 . S
H1360 C1374 0.930 . S
H1361 C1376 0.960 . S
H1362 C1376 0.960 . S
H1363 C1376 0.960 . S
C1364 H1356 0.929 . S
C1364 C1365 1.377 . S
C1364 C1366 1.384 . S
C1365 C1364 1.377 . S
C1365 C1371 1.390 . S
C1366 H1357 0.930 . S
C1366 C1364 1.384 . S
C1366 C1367 1.372 . S
C1367 C1366 1.372 . S
C1367 C1368 1.400 . S
C1367 C1372 1.490 . S
C1368 H1358 0.930 . S
C1368 C1367 1.400 . S
C1368 C1371 1.386 . S
H1369 C1385 0.930 . S
H1370 C1386 0.931 . S
C1371 H1359 0.929 . S
C1371 C1365 1.390 . S
C1371 C1368 1.386 . S
C1372 C1367 1.490 . S
C1372 C1374 1.395 . S
C1372 C1375 1.403 . S
H1373 C1379 0.930 . S
C1374 H1360 0.930 . S
C1374 C1372 1.395 . S
C1374 C1377 1.403 . S
C1375 C1372 1.403 . S
C1375 C1376 1.524 . S
C1375 C1379 1.400 . S
C1376 H1361 0.960 . S
C1376 H1362 0.960 . S
C1376 H1363 0.960 . S
C1376 C1375 1.524 . S
C1377 C1374 1.403 . S
C1377 C1378 1.392 . S
C1377 C1381 1.495 . S
C1378 C1377 1.392 . S
C1378 C1379 1.385 . S
C1378 C1380 1.478 . S
C1379 H1373 0.930 . S
C1379 C1375 1.400 . S
C1379 C1378 1.385 . S
C1380 C1378 1.478 . S
C1380 C1382 1.381 . S
C1380 C1386 1.383 . S
C1381 C1377 1.495 . S
C1381 H1387 0.959 . S
C1381 H1388 0.961 . S
C1381 H1389 0.960 . S
C1382 C1380 1.381 . S
C1382 C1383 1.394 . S
C1382 H1390 0.930 . S
C1383 C1382 1.394 . S
C1383 C1384 1.383 . S
C1383 H1391 0.929 . S
C1384 C1383 1.383 . S
C1384 C1385 1.377 . S
C1385 H1369 0.930 . S
C1385 C1384 1.377 . S
C1385 C1386 1.379 . S
C1386 H1370 0.931 . S
C1386 C1380 1.383 . S
C1386 C1385 1.379 . S
H1387 C1381 0.959 . S
H1388 C1381 0.961 . S
H1389 C1381 0.960 . S
H1390 C1382 0.930 . S
H1391 C1383 0.929 . S
H1392 C1400 0.929 . S
H1393 C1402 0.930 . S
H1394 C1404 0.930 . S
H1395 C1407 0.929 . S
H1396 C1410 0.930 . S
H1397 C1412 0.960 . S
H1398 C1412 0.960 . S
H1399 C1412 0.960 . S
C1400 H1392 0.929 . S
C1400 C1401 1.377 . S
C1400 C1402 1.384 . S
C1401 C1400 1.377 . S
C1401 C1407 1.390 . S
C1402 H1393 0.930 . S
C1402 C1400 1.384 . S
C1402 C1403 1.372 . S
C1403 C1402 1.372 . S
C1403 C1404 1.400 . S
C1403 C1408 1.490 . S
C1404 H1394 0.930 . S
C1404 C1403 1.400 . S
C1404 C1407 1.386 . S
H1405 C1421 0.930 . S
H1406 C1422 0.931 . S
C1407 H1395 0.929 . S
C1407 C1401 1.390 . S
C1407 C1404 1.386 . S
C1408 C1403 1.490 . S
C1408 C1410 1.395 . S
C1408 C1411 1.403 . S
H1409 C1415 0.930 . S
C1410 H1396 0.930 . S
C1410 C1408 1.395 . S
C1410 C1413 1.403 . S
C1411 C1408 1.403 . S
C1411 C1412 1.524 . S
C1411 C1415 1.400 . S
C1412 H1397 0.960 . S
C1412 H1398 0.960 . S
C1412 H1399 0.960 . S
C1412 C1411 1.524 . S
C1413 C1410 1.403 . S
C1413 C1414 1.392 . S
C1413 C1417 1.495 . S
C1414 C1413 1.392 . S
C1414 C1415 1.385 . S
C1414 C1416 1.478 . S
C1415 H1409 0.930 . S
C1415 C1411 1.400 . S
C1415 C1414 1.385 . S
C1416 C1414 1.478 . S
C1416 C1418 1.381 . S
C1416 C1422 1.383 . S
C1417 C1413 1.495 . S
C1417 H1423 0.959 . S
C1417 H1424 0.961 . S
C1417 H1425 0.960 . S
C1418 C1416 1.381 . S
C1418 C1419 1.394 . S
C1418 H1426 0.930 . S
C1419 C1418 1.394 . S
C1419 C1420 1.383 . S
C1419 H1427 0.929 . S
C1420 C1419 1.383 . S
C1420 C1421 1.377 . S
C1421 H1405 0.930 . S
C1421 C1420 1.377 . S
C1421 C1422 1.379 . S
C1422 H1406 0.931 . S
C1422 C1416 1.383 . S
C1422 C1421 1.379 . S
H1423 C1417 0.959 . S
H1424 C1417 0.961 . S
H1425 C1417 0.960 . S
H1426 C1418 0.930 . S
H1427 C1419 0.929 . S
H1428 C1436 0.929 . S
H1429 C1438 0.930 . S
H1430 C1440 0.930 . S
H1431 C1443 0.929 . S
H1432 C1446 0.930 . S
H1433 C1448 0.960 . S
H1434 C1448 0.960 . S
H1435 C1448 0.960 . S
C1436 H1428 0.929 . S
C1436 C1437 1.377 . S
C1436 C1438 1.384 . S
C1437 C1436 1.377 . S
C1437 C1443 1.390 . S
C1438 H1429 0.930 . S
C1438 C1436 1.384 . S
C1438 C1439 1.372 . S
C1439 C1438 1.372 . S
C1439 C1440 1.400 . S
C1439 C1444 1.490 . S
C1440 H1430 0.930 . S
C1440 C1439 1.400 . S
C1440 C1443 1.386 . S
H1441 C1457 0.930 . S
H1442 C1458 0.931 . S
C1443 H1431 0.929 . S
C1443 C1437 1.390 . S
C1443 C1440 1.386 . S
C1444 C1439 1.490 . S
C1444 C1446 1.395 . S
C1444 C1447 1.403 . S
H1445 C1451 0.930 . S
C1446 H1432 0.930 . S
C1446 C1444 1.395 . S
C1446 C1449 1.403 . S
C1447 C1444 1.403 . S
C1447 C1448 1.524 . S
C1447 C1451 1.400 . S
C1448 H1433 0.960 . S
C1448 H1434 0.960 . S
C1448 H1435 0.960 . S
C1448 C1447 1.524 . S
C1449 C1446 1.403 . S
C1449 C1450 1.392 . S
C1449 C1453 1.495 . S
C1450 C1449 1.392 . S
C1450 C1451 1.385 . S
C1450 C1452 1.478 . S
C1451 H1445 0.930 . S
C1451 C1447 1.400 . S
C1451 C1450 1.385 . S
C1452 C1450 1.478 . S
C1452 C1454 1.381 . S
C1452 C1458 1.383 . S
C1453 C1449 1.495 . S
C1453 H1459 0.959 . S
C1453 H1460 0.961 . S
C1453 H1461 0.960 . S
C1454 C1452 1.381 . S
C1454 C1455 1.394 . S
C1454 H1462 0.930 . S
C1455 C1454 1.394 . S
C1455 C1456 1.383 . S
C1455 H1463 0.929 . S
C1456 C1455 1.383 . S
C1456 C1457 1.377 . S
C1457 H1441 0.930 . S
C1457 C1456 1.377 . S
C1457 C1458 1.379 . S
C1458 H1442 0.931 . S
C1458 C1452 1.383 . S
C1458 C1457 1.379 . S
H1459 C1453 0.959 . S
H1460 C1453 0.961 . S
H1461 C1453 0.960 . S
H1462 C1454 0.930 . S
H1463 C1455 0.929 . S
H1464 C1472 0.929 . S
H1465 C1474 0.930 . S
H1466 C1476 0.930 . S
H1467 C1479 0.929 . S
H1468 C1482 0.930 . S
H1469 C1484 0.960 . S
H1470 C1484 0.960 . S
H1471 C1484 0.960 . S
C1472 H1464 0.929 . S
C1472 C1473 1.377 . S
C1472 C1474 1.384 . S
C1473 C1472 1.377 . S
C1473 C1479 1.390 . S
C1474 H1465 0.930 . S
C1474 C1472 1.384 . S
C1474 C1475 1.372 . S
C1475 C1474 1.372 . S
C1475 C1476 1.400 . S
C1475 C1480 1.490 . S
C1476 H1466 0.930 . S
C1476 C1475 1.400 . S
C1476 C1479 1.386 . S
H1477 C1493 0.930 . S
H1478 C1494 0.931 . S
C1479 H1467 0.929 . S
C1479 C1473 1.390 . S
C1479 C1476 1.386 . S
C1480 C1475 1.490 . S
C1480 C1482 1.395 . S
C1480 C1483 1.403 . S
H1481 C1487 0.930 . S
C1482 H1468 0.930 . S
C1482 C1480 1.395 . S
C1482 C1485 1.403 . S
C1483 C1480 1.403 . S
C1483 C1484 1.524 . S
C1483 C1487 1.400 . S
C1484 H1469 0.960 . S
C1484 H1470 0.960 . S
C1484 H1471 0.960 . S
C1484 C1483 1.524 . S
C1485 C1482 1.403 . S
C1485 C1486 1.392 . S
C1485 C1489 1.495 . S
C1486 C1485 1.392 . S
C1486 C1487 1.385 . S
C1486 C1488 1.478 . S
C1487 H1481 0.930 . S
C1487 C1483 1.400 . S
C1487 C1486 1.385 . S
C1488 C1486 1.478 . S
C1488 C1490 1.381 . S
C1488 C1494 1.383 . S
C1489 C1485 1.495 . S
C1489 H1495 0.959 . S
C1489 H1496 0.961 . S
C1489 H1497 0.960 . S
C1490 C1488 1.381 . S
C1490 C1491 1.394 . S
C1490 H1498 0.930 . S
C1491 C1490 1.394 . S
C1491 C1492 1.383 . S
C1491 H1499 0.929 . S
C1492 C1491 1.383 . S
C1492 C1493 1.377 . S
C1493 H1477 0.930 . S
C1493 C1492 1.377 . S
C1493 C1494 1.379 . S
C1494 H1478 0.931 . S
C1494 C1488 1.383 . S
C1494 C1493 1.379 . S
H1495 C1489 0.959 . S
H1496 C1489 0.961 . S
H1497 C1489 0.960 . S
H1498 C1490 0.930 . S
H1499 C1491 0.929 . S
H1500 C1508 0.929 . S
H1501 C1510 0.930 . S
H1502 C1512 0.930 . S
H1503 C1515 0.929 . S
H1504 C1518 0.930 . S
H1505 C1520 0.960 . S
H1506 C1520 0.960 . S
H1507 C1520 0.960 . S
C1508 H1500 0.929 . S
C1508 C1509 1.377 . S
C1508 C1510 1.384 . S
C1509 C1508 1.377 . S
C1509 C1515 1.390 . S
C1510 H1501 0.930 . S
C1510 C1508 1.384 . S
C1510 C1511 1.372 . S
C1511 C1510 1.372 . S
C1511 C1512 1.400 . S
C1511 C1516 1.490 . S
C1512 H1502 0.930 . S
C1512 C1511 1.400 . S
C1512 C1515 1.386 . S
H1513 C1529 0.930 . S
H1514 C1530 0.931 . S
C1515 H1503 0.929 . S
C1515 C1509 1.390 . S
C1515 C1512 1.386 . S
C1516 C1511 1.490 . S
C1516 C1518 1.395 . S
C1516 C1519 1.403 . S
H1517 C1523 0.930 . S
C1518 H1504 0.930 . S
C1518 C1516 1.395 . S
C1518 C1521 1.403 . S
C1519 C1516 1.403 . S
C1519 C1520 1.524 . S
C1519 C1523 1.400 . S
C1520 H1505 0.960 . S
C1520 H1506 0.960 . S
C1520 H1507 0.960 . S
C1520 C1519 1.524 . S
C1521 C1518 1.403 . S
C1521 C1522 1.392 . S
C1521 C1525 1.495 . S
C1522 C1521 1.392 . S
C1522 C1523 1.385 . S
C1522 C1524 1.478 . S
C1523 H1517 0.930 . S
C1523 C1519 1.400 . S
C1523 C1522 1.385 . S
C1524 C1522 1.478 . S
C1524 C1526 1.381 . S
C1524 C1530 1.383 . S
C1525 C1521 1.495 . S
C1525 H1531 0.959 . S
C1525 H1532 0.961 . S
C1525 H1533 0.960 . S
C1526 C1524 1.381 . S
C1526 C1527 1.394 . S
C1526 H1534 0.930 . S
C1527 C1526 1.394 . S
C1527 C1528 1.383 . S
C1527 H1535 0.929 . S
C1528 C1527 1.383 . S
C1528 C1529 1.377 . S
C1529 H1513 0.930 . S
C1529 C1528 1.377 . S
C1529 C1530 1.379 . S
C1530 H1514 0.931 . S
C1530 C1524 1.383 . S
C1530 C1529 1.379 . S
H1531 C1525 0.959 . S
H1532 C1525 0.961 . S
H1533 C1525 0.960 . S
H1534 C1526 0.930 . S
H1535 C1527 0.929 . S
C681 C651 0.657 . S
C700 C69 0.734 . S
C717 C142 1.779 . S
C736 C405 1.372 1_565 S
C753 C476 1.220 . S
C772 C224 1.202 . S
C789 C321 0.892 . S
C808 C560 0.517 . S
C825 C158 0.658 . S
C844 C562 0.667 . S
C861 C226 1.404 . S
C880 C657 1.754 . S
C897 C403 1.175 . S
C916 C319 1.232 . S
C933 C478 0.916 . S
C952 C67 0.537 . S
C969 C571 1.179 . S
C988 C56 1.183 . S
C1005 C147 3.165 . S
C1024 C662 3.154 . S
C1041 C394 1.504 . S
C1060 C237 1.526 . S
C1077 C308 3.492 . S
C1096 C487 3.496 . S
C1113 C392 2.115 . S
C1132 C235 2.127 . S
C1149 C310 0.989 . S
C1168 C489 0.936 . S
C1185 C573 2.657 1_455 S
C1204 C58 2.678 . S
C1221 C153 1.152 . S
C1240 C646 1.175 . S
C1257 C74 2.727 . S
C1276 C231 2.833 . S
C1293 C151 2.951 1_565 S
C1312 C326 2.867 . S
C1329 C410 2.830 . S
C1348 C567 2.739 . S
C1365 C644 2.949 . S
C1384 C483 2.848 . S
C1401 C63 2.490 . S
C1420 C242 2.545 . S
C1437 C140 2.677 . S
C1456 C315 2.696 . S
C1473 C399 2.536 . S
C1492 C578 2.481 . S
C1509 C494 2.695 . S
C1528 C655 2.682 . S
