# Generated by pormake.
# Topology ske, (6)-cn, num edge types: 1
# Building blocks:
#     Node 0, Type 0, BuildingBlock: KUMJIN_clean_sbu_1, # of connection points: 6
#     Node 1, Type 0, BuildingBlock: KUMJIN_clean_sbu_1, # of connection points: 6
#     Node 2, Type 0, BuildingBlock: KUMJIN_clean_sbu_1, # of connection points: 6
#     Node 3, Type 0, BuildingBlock: KUMJIN_clean_sbu_1, # of connection points: 6
#     Node 4, Type 0, BuildingBlock: KUMJIN_clean_sbu_1, # of connection points: 6
#     Node 5, Type 0, BuildingBlock: KUMJIN_clean_sbu_1, # of connection points: 6
#     Node 6, Type 0, BuildingBlock: KUMJIN_clean_sbu_1, # of connection points: 6
#     Node 7, Type 0, BuildingBlock: KUMJIN_clean_sbu_1, # of connection points: 6
#     Edge 8, Type (0, 0), BuildingBlock: TEMPAE_clean_linker_10, # of connection points: 2
#     Edge 9, Type (0, 0), BuildingBlock: TEMPAE_clean_linker_10, # of connection points: 2
#     Edge 10, Type (0, 0), BuildingBlock: TEMPAE_clean_linker_10, # of connection points: 2
#     Edge 11, Type (0, 0), BuildingBlock: TEMPAE_clean_linker_10, # of connection points: 2
#     Edge 12, Type (0, 0), BuildingBlock: TEMPAE_clean_linker_10, # of connection points: 2
#     Edge 13, Type (0, 0), BuildingBlock: TEMPAE_clean_linker_10, # of connection points: 2
#     Edge 14, Type (0, 0), BuildingBlock: TEMPAE_clean_linker_10, # of connection points: 2
#     Edge 15, Type (0, 0), BuildingBlock: TEMPAE_clean_linker_10, # of connection points: 2
#     Edge 16, Type (0, 0), BuildingBlock: TEMPAE_clean_linker_10, # of connection points: 2
#     Edge 17, Type (0, 0), BuildingBlock: TEMPAE_clean_linker_10, # of connection points: 2
#     Edge 18, Type (0, 0), BuildingBlock: TEMPAE_clean_linker_10, # of connection points: 2
#     Edge 19, Type (0, 0), BuildingBlock: TEMPAE_clean_linker_10, # of connection points: 2
#     Edge 20, Type (0, 0), BuildingBlock: TEMPAE_clean_linker_10, # of connection points: 2
#     Edge 21, Type (0, 0), BuildingBlock: TEMPAE_clean_linker_10, # of connection points: 2
#     Edge 22, Type (0, 0), BuildingBlock: TEMPAE_clean_linker_10, # of connection points: 2
#     Edge 23, Type (0, 0), BuildingBlock: TEMPAE_clean_linker_10, # of connection points: 2
#     Edge 24, Type (0, 0), BuildingBlock: TEMPAE_clean_linker_10, # of connection points: 2
#     Edge 25, Type (0, 0), BuildingBlock: TEMPAE_clean_linker_10, # of connection points: 2
#     Edge 26, Type (0, 0), BuildingBlock: TEMPAE_clean_linker_10, # of connection points: 2
#     Edge 27, Type (0, 0), BuildingBlock: TEMPAE_clean_linker_10, # of connection points: 2
#     Edge 28, Type (0, 0), BuildingBlock: TEMPAE_clean_linker_10, # of connection points: 2
#     Edge 29, Type (0, 0), BuildingBlock: TEMPAE_clean_linker_10, # of connection points: 2
#     Edge 30, Type (0, 0), BuildingBlock: TEMPAE_clean_linker_10, # of connection points: 2
#     Edge 31, Type (0, 0), BuildingBlock: TEMPAE_clean_linker_10, # of connection points: 2
# Relax obj value: 0.218
# Max RMSD: 0.233
# Mean RMSD: 0.231
data_MOF--net-ske--node1-KUMJIN_clean_sbu_1--edge1-TEMPAE_clean_linker_10
_symmetry_space_group_name_H-M    P1
_symmetry_Int_Tables_number       1
_symmetry_cell_setting            triclinic
loop_
_symmetry_equiv_pos_as_xyz
'x, y, z'
_cell_length_a     99.581485
_cell_length_b     30.292841
_cell_length_c     15.352121
_cell_angle_alpha  98.112994
_cell_angle_beta   89.964831
_cell_angle_gamma 89.988634
loop_
_atom_site_label
_atom_site_type_symbol
_atom_site_fract_x
_atom_site_fract_y
_atom_site_fract_z
_atom_type_partial_charge
Eu0 Eu 0.15231 0.261 0.56457 0.0
C1 C 0.10006 0.23337 0.74969 0.0
N2 N 0.10523 0.20808 0.67721 0.0
C3 C 0.10052 0.14132 0.73853 0.0
C4 C 0.09539 0.21335 0.8215 0.0
C5 C 0.10517 0.16267 0.66929 0.0
C6 C 0.09569 0.16677 0.81521 0.0
C7 C 0.09432 0.3064 0.82682 0.0
C8 C 0.09955 0.27943 0.75201 0.0
C9 C 0.09014 0.28672 0.89986 0.0
C10 C 0.09061 0.24032 0.89704 0.0
Eu11 Eu 0.11182 0.24629 0.56115 0.0
N12 N 0.10356 0.2976 0.67996 0.0
C13 C 0.09302 0.35224 0.82491 0.0
C14 C 0.10115 0.34152 0.6751 0.0
C15 C 0.09619 0.3697 0.74806 0.0
H16 H 0.1087 0.14305 0.60947 0.0
H17 H 0.09458 0.40472 0.74435 0.0
H18 H 0.15884 0.36977 0.63312 0.0
H19 H 0.17661 0.15248 0.2985 0.0
H20 H 0.10265 0.35491 0.61445 0.0
H21 H 0.08906 0.37409 0.881 0.0
H22 H 0.16341 0.17111 0.43608 0.0
H23 H 0.10065 0.10529 0.73269 0.0
H24 H 0.08623 0.30702 0.95814 0.0
H25 H 0.08715 0.22559 0.95336 0.0
H26 H 0.16849 0.43416 0.57266 0.0
H27 H 0.09218 0.15015 0.86897 0.0
H28 H 0.18465 0.21293 0.21856 0.0
N29 N 0.16163 0.32479 0.51481 0.0
C30 C 0.16751 0.31795 0.43411 0.0
C31 C 0.16813 0.40178 0.53262 0.0
C32 C 0.17345 0.35353 0.39787 0.0
C33 C 0.16251 0.36535 0.56618 0.0
C34 C 0.17339 0.39604 0.44741 0.0
N35 N 0.16373 0.24076 0.43091 0.0
C36 C 0.16687 0.19741 0.40077 0.0
C37 C 0.17624 0.26565 0.3129 0.0
C38 C 0.1688 0.27457 0.39158 0.0
C39 C 0.17887 0.22114 0.27847 0.0
C40 C 0.17436 0.1869 0.32345 0.0
H41 H 0.17784 0.42424 0.4219 0.0
H42 H 0.18435 0.37217 0.28634 0.0
H43 H 0.18686 0.29513 0.21215 0.0
O44 O 0.1632 0.21827 0.64443 0.0
O45 O 0.14232 0.23889 0.42972 0.0
O46 O 0.12079 0.26817 0.43699 0.0
O47 O 0.17303 0.27586 0.60615 0.0
O48 O 0.14419 0.191 0.56792 0.0
O49 O 0.1234 0.18564 0.49858 0.0
O50 O 0.09073 0.26285 0.54129 0.0
O51 O 0.12528 0.22992 0.67437 0.0
O52 O 0.14092 0.2851 0.69055 0.0
O53 O 0.09848 0.19923 0.48213 0.0
O54 O 0.11958 0.31263 0.52856 0.0
O55 O 0.13903 0.32106 0.61039 0.0
C56 C 0.13168 0.25431 0.39193 0.0
C57 C 0.18132 0.24972 0.73351 0.0
C58 C 0.20249 0.24898 0.81501 0.0
C59 C 0.19545 0.26451 0.89301 0.0
C60 C 0.17457 0.26519 0.81192 0.0
C61 C 0.18162 0.27247 0.89127 0.0
C62 C 0.19525 0.24173 0.73526 0.0
C63 C 0.13425 0.16756 0.52763 0.0
C64 C 0.17415 0.242 0.64884 0.0
C65 C 0.1799 0.34516 0.31577 0.0
C66 C 0.18135 0.30127 0.27352 0.0
C67 C 0.13268 0.25876 0.72581 0.0
C68 C 0.07987 0.22866 0.41232 0.0
C69 C 0.05763 0.23139 0.34518 0.0
C70 C 0.06385 0.23158 0.26291 0.0
C71 C 0.08585 0.22915 0.32972 0.0
C72 C 0.06577 0.23022 0.41991 0.0
C73 C 0.07785 0.23071 0.2555 0.0
C74 C 0.12975 0.33696 0.56249 0.0
C75 C 0.0881 0.22566 0.49108 0.0
H76 H 0.20066 0.27105 0.95539 0.0
H77 H 0.16388 0.27166 0.81161 0.0
H78 H 0.17635 0.28448 0.95169 0.0
H79 H 0.20038 0.22926 0.67447 0.0
H80 H 0.05788 0.23288 0.20438 0.0
H81 H 0.09667 0.22801 0.32258 0.0
H82 H 0.06115 0.2296 0.48368 0.0
H83 H 0.08252 0.2311 0.1919 0.0
Eu84 Eu 0.90131 0.24799 0.56216 0.0
C85 C 0.84504 0.24235 0.37665 0.0
N86 N 0.85032 0.27456 0.43733 0.0
C87 C 0.84186 0.33129 0.35779 0.0
C88 C 0.83848 0.2534 0.30125 0.0
C89 C 0.84856 0.3186 0.4304 0.0
C90 C 0.83696 0.29852 0.29228 0.0
C91 C 0.83975 0.16435 0.33234 0.0
C92 C 0.84557 0.19848 0.39256 0.0
C93 C 0.83403 0.1748 0.25411 0.0
C94 C 0.83333 0.21928 0.23882 0.0
Eu95 Eu 0.86063 0.25106 0.56103 0.0
N96 N 0.85076 0.18972 0.47018 0.0
C97 C 0.83928 0.12111 0.35447 0.0
C98 C 0.84903 0.14869 0.49566 0.0
C99 C 0.8437 0.11345 0.43731 0.0
H100 H 0.85256 0.34378 0.48021 0.0
H101 H 0.84276 0.08064 0.45694 0.0
H102 H 0.90672 0.13621 0.55516 0.0
H103 H 0.9193 0.38311 0.8047 0.0
H104 H 0.85162 0.14307 0.56143 0.0
H105 H 0.83493 0.09394 0.30993 0.0
H106 H 0.90913 0.34878 0.66375 0.0
H107 H 0.84063 0.36624 0.35189 0.0
H108 H 0.82965 0.14895 0.20666 0.0
H109 H 0.82847 0.22704 0.17971 0.0
H110 H 0.91222 0.08374 0.65809 0.0
H111 H 0.83188 0.30838 0.23568 0.0
H112 H 0.92587 0.33556 0.91618 0.0
N113 N 0.90766 0.19378 0.65217 0.0
C114 C 0.91234 0.21032 0.73363 0.0
C115 C 0.91202 0.11922 0.68088 0.0
C116 C 0.9164 0.18156 0.79346 0.0
C117 C 0.90844 0.14909 0.62326 0.0
C118 C 0.91575 0.13548 0.76702 0.0
N119 N 0.90976 0.2832 0.69725 0.0
C120 C 0.91194 0.32808 0.71268 0.0
C121 C 0.91955 0.27422 0.8369 0.0
C122 C 0.91383 0.25616 0.75564 0.0
C123 C 0.92147 0.32044 0.85458 0.0
C124 C 0.91773 0.34744 0.79194 0.0
H125 H 0.91873 0.1123 0.8111 0.0
H126 H 0.92452 0.17795 0.92327 0.0
H127 H 0.92734 0.25904 0.96106 0.0
O128 O 0.91604 0.2884 0.50323 0.0
O129 O 0.88893 0.2744 0.68584 0.0
O130 O 0.87112 0.22712 0.6772 0.0
O131 O 0.92162 0.22295 0.52976 0.0
O132 O 0.89235 0.31251 0.53032 0.0
O133 O 0.87115 0.31819 0.59499 0.0
O134 O 0.83979 0.23989 0.59931 0.0
O135 O 0.87165 0.26714 0.43733 0.0
O136 O 0.89139 0.22666 0.42829 0.0
O137 O 0.85045 0.2978 0.66098 0.0
O138 O 0.87165 0.18865 0.58776 0.0
O139 O 0.89054 0.18482 0.50133 0.0
C140 C 0.88025 0.25072 0.72465 0.0
C141 C 0.93364 0.25175 0.41723 0.0
C142 C 0.95583 0.24508 0.34751 0.0
C143 C 0.94954 0.2421 0.26478 0.0
C144 C 0.92761 0.24875 0.33414 0.0
C145 C 0.93554 0.24376 0.25833 0.0
C146 C 0.94773 0.24958 0.42365 0.0
C147 C 0.88169 0.33573 0.56025 0.0
C148 C 0.92549 0.25844 0.49813 0.0
C149 C 0.92148 0.19956 0.87626 0.0
C150 C 0.92314 0.24573 0.89768 0.0
C151 C 0.88159 0.2466 0.39088 0.0
C152 C 0.82687 0.30508 0.64187 0.0
C153 C 0.80247 0.31606 0.65356 0.0
C154 C 0.80405 0.35751 0.62335 0.0
C155 C 0.8281 0.34695 0.61332 0.0
C156 C 0.81401 0.28985 0.6623 0.0
C157 C 0.81675 0.37271 0.60347 0.0
C158 C 0.88036 0.16554 0.53559 0.0
C159 C 0.8389 0.27742 0.65168 0.0
H160 H 0.95545 0.23812 0.20493 0.0
H161 H 0.91681 0.25066 0.32812 0.0
H162 H 0.93083 0.24141 0.19431 0.0
H163 H 0.95238 0.25245 0.48802 0.0
H164 H 0.79548 0.37891 0.61736 0.0
H165 H 0.83783 0.36009 0.59933 0.0
H166 H 0.81301 0.2577 0.68494 0.0
H167 H 0.81783 0.40494 0.58145 0.0
Eu168 Eu 0.15377 0.74115 0.47855 0.0
C169 C 0.09907 0.7598 0.30451 0.0
N170 N 0.10534 0.78708 0.36978 0.0
C171 C 0.10037 0.85063 0.29861 0.0
C172 C 0.09381 0.77679 0.23071 0.0
C173 C 0.10558 0.83214 0.36995 0.0
C174 C 0.09462 0.82276 0.22807 0.0
C175 C 0.09072 0.68623 0.24767 0.0
C176 C 0.09753 0.7151 0.31325 0.0
C177 C 0.08617 0.70242 0.17149 0.0
C178 C 0.08769 0.74763 0.16313 0.0
Eu179 Eu 0.11333 0.75381 0.48936 0.0
N180 N 0.10185 0.70057 0.38836 0.0
C181 C 0.08819 0.64243 0.26222 0.0
C182 C 0.09845 0.65905 0.40573 0.0
C183 C 0.09181 0.62911 0.34238 0.0
H184 H 0.1099 0.8536 0.42494 0.0
H185 H 0.08937 0.59592 0.35583 0.0
H186 H 0.16235 0.63244 0.43238 0.0
H187 H 0.1739 0.86745 0.73221 0.0
H188 H 0.10068 0.64889 0.46878 0.0
H189 H 0.08296 0.61924 0.21358 0.0
H190 H 0.16147 0.83897 0.59597 0.0
H191 H 0.1008 0.88629 0.29799 0.0
H192 H 0.08108 0.68056 0.11995 0.0
H193 H 0.0838 0.75989 0.10515 0.0
H194 H 0.17384 0.5755 0.50542 0.0
H195 H 0.09065 0.83712 0.17267 0.0
H196 H 0.18424 0.81441 0.82119 0.0
N197 N 0.16445 0.68365 0.54176 0.0
C198 C 0.17039 0.69626 0.62114 0.0
C199 C 0.17281 0.60921 0.5391 0.0
C200 C 0.17733 0.66501 0.66436 0.0
C201 C 0.16612 0.64141 0.4985 0.0
C202 C 0.1782 0.62084 0.62313 0.0
N203 N 0.16429 0.77095 0.61102 0.0
C204 C 0.16583 0.81579 0.63541 0.0
C205 C 0.17772 0.7559 0.7338 0.0
C206 C 0.17055 0.74122 0.65587 0.0
C207 C 0.17875 0.80183 0.76194 0.0
C208 C 0.17291 0.8319 0.71196 0.0
H209 H 0.18345 0.59586 0.65414 0.0
H210 H 0.18892 0.65549 0.77974 0.0
H211 H 0.18927 0.73508 0.84044 0.0
O212 O 0.16507 0.78329 0.39959 0.0
O213 O 0.14359 0.76163 0.61391 0.0
O214 O 0.12299 0.7267 0.60546 0.0
O215 O 0.17423 0.7238 0.43406 0.0
O216 O 0.14514 0.80844 0.4597 0.0
O217 O 0.12593 0.81365 0.54383 0.0
O218 O 0.0921 0.74634 0.52945 0.0
O219 O 0.12536 0.76676 0.3674 0.0
O220 O 0.14201 0.71447 0.35504 0.0
O221 O 0.10357 0.80608 0.57871 0.0
O222 O 0.12149 0.68608 0.51264 0.0
O223 O 0.14185 0.67726 0.43746 0.0
C224 C 0.1335 0.74291 0.65141 0.0
C225 C 0.18247 0.74979 0.30658 0.0
C226 C 0.20329 0.74747 0.22093 0.0
C227 C 0.19584 0.73271 0.14441 0.0
C228 C 0.17527 0.73516 0.2296 0.0
C229 C 0.18194 0.72673 0.14889 0.0
C230 C 0.19645 0.75599 0.30203 0.0
C231 C 0.13562 0.83209 0.50351 0.0
C232 C 0.1757 0.75795 0.39264 0.0
C233 C 0.1837 0.67915 0.7451 0.0
C234 C 0.18393 0.7245 0.77961 0.0
C235 C 0.13329 0.73865 0.31812 0.0
C236 C 0.0805 0.80509 0.6298 0.0
C237 C 0.05651 0.80766 0.66798 0.0
C238 C 0.05893 0.84709 0.72628 0.0
C239 C 0.08251 0.84416 0.6895 0.0
C240 C 0.06743 0.78678 0.61926 0.0
C241 C 0.0718 0.86489 0.73715 0.0
C242 C 0.13148 0.66126 0.4765 0.0
C243 C 0.09212 0.78534 0.57752 0.0
H244 H 0.20074 0.72643 0.08083 0.0
H245 H 0.16455 0.73026 0.23219 0.0
H246 H 0.17631 0.71556 0.08954 0.0
H247 H 0.20201 0.76688 0.36192 0.0
H248 H 0.0508 0.86479 0.76289 0.0
H249 H 0.09238 0.85908 0.69907 0.0
H250 H 0.06579 0.75658 0.57362 0.0
H251 H 0.07347 0.89522 0.78226 0.0
Eu252 Eu 0.90076 0.74419 0.45528 0.0
C253 C 0.84648 0.69239 0.6152 0.0
N254 N 0.85135 0.68034 0.53255 0.0
C255 C 0.84503 0.60439 0.53809 0.0
C256 C 0.84131 0.66023 0.66438 0.0
C257 C 0.84969 0.63775 0.49134 0.0
C258 C 0.84114 0.6155 0.62584 0.0
C259 C 0.83891 0.75145 0.72795 0.0
C260 C 0.84542 0.73739 0.64721 0.0
C261 C 0.83452 0.71951 0.77961 0.0
C262 C 0.83582 0.67396 0.74817 0.0
Eu263 Eu 0.86011 0.73887 0.46196 0.0
N264 N 0.85003 0.76754 0.59678 0.0
C265 C 0.83668 0.79715 0.75298 0.0
C266 C 0.84744 0.81196 0.61884 0.0
C267 C 0.84083 0.8275 0.69768 0.0
H268 H 0.85195 0.62944 0.42217 0.0
H269 H 0.83896 0.86279 0.71581 0.0
H270 H 0.90803 0.84369 0.40178 0.0
H271 H 0.91009 0.57718 0.27247 0.0
H272 H 0.8506 0.83528 0.57566 0.0
H273 H 0.8316 0.80927 0.81414 0.0
H274 H 0.90509 0.63072 0.40314 0.0
H275 H 0.84421 0.57033 0.50593 0.0
H276 H 0.82976 0.72967 0.84275 0.0
H277 H 0.83197 0.64971 0.78741 0.0
H278 H 0.91765 0.87587 0.27567 0.0
H279 H 0.83731 0.58974 0.66149 0.0
H280 H 0.91652 0.60389 0.13347 0.0
N281 N 0.90858 0.77728 0.33588 0.0
C282 C 0.91243 0.7491 0.26334 0.0
C283 C 0.91615 0.84024 0.27118 0.0
C284 C 0.91788 0.76593 0.18987 0.0
C285 C 0.91064 0.8221 0.34202 0.0
C286 C 0.91974 0.81206 0.19461 0.0
N287 N 0.90631 0.68786 0.33652 0.0
C288 C 0.90676 0.64321 0.34184 0.0
C289 C 0.91462 0.67362 0.18728 0.0
C290 C 0.91087 0.70334 0.26263 0.0
C291 C 0.91377 0.62776 0.19002 0.0
C292 C 0.91006 0.61254 0.26818 0.0
H293 H 0.92394 0.82623 0.13961 0.0
H294 H 0.9253 0.74876 0.05674 0.0
H295 H 0.92237 0.66802 0.05419 0.0
O296 O 0.92166 0.72351 0.46246 0.0
O297 O 0.88755 0.76498 0.34526 0.0
O298 O 0.87062 0.71404 0.33223 0.0
O299 O 0.91536 0.78555 0.53718 0.0
O300 O 0.89153 0.68222 0.4968 0.0
O301 O 0.87212 0.67584 0.41515 0.0
O302 O 0.84824 0.7797 0.38342 0.0
O303 O 0.87134 0.76353 0.59122 0.0
O304 O 0.89176 0.72709 0.58364 0.0
O305 O 0.8392 0.72232 0.42765 0.0
O306 O 0.86918 0.80718 0.45246 0.0
O307 O 0.89089 0.80965 0.51042 0.0
C308 C 0.87918 0.73884 0.29548 0.0
C309 C 0.93419 0.74848 0.58919 0.0
C310 C 0.95703 0.74162 0.64477 0.0
C311 C 0.95168 0.72389 0.71728 0.0
C312 C 0.92907 0.73095 0.66213 0.0
C313 C 0.9378 0.7189 0.72603 0.0
C314 C 0.94815 0.75415 0.58111 0.0
C315 C 0.88114 0.65893 0.46358 0.0
C316 C 0.92529 0.75791 0.51761 0.0
C317 C 0.92126 0.73639 0.11424 0.0
C318 C 0.91955 0.69041 0.11271 0.0
C319 C 0.88135 0.74481 0.62925 0.0
C320 C 0.83021 0.74467 0.29874 0.0
C321 C 0.80896 0.74014 0.21736 0.0
C322 C 0.81606 0.72336 0.1404 0.0
C323 C 0.83702 0.72784 0.22131 0.0
C324 C 0.8162 0.75086 0.29658 0.0
C325 C 0.82997 0.71736 0.14253 0.0
C326 C 0.87987 0.82912 0.48664 0.0
C327 C 0.8375 0.75508 0.38266 0.0
H328 H 0.95824 0.71433 0.76769 0.0
H329 H 0.91837 0.72608 0.66892 0.0
H330 H 0.93379 0.70533 0.78222 0.0
H331 H 0.95212 0.76717 0.52407 0.0
H332 H 0.81088 0.71547 0.07812 0.0
H333 H 0.84775 0.72282 0.22207 0.0
H334 H 0.81093 0.76341 0.35682 0.0
H335 H 0.83532 0.70458 0.08283 0.0
Eu336 Eu 0.65239 0.74897 0.06729 0.0
C337 C 0.60075 0.70772 0.24057 0.0
N338 N 0.60537 0.69134 0.15883 0.0
C339 C 0.601 0.61669 0.18688 0.0
C340 C 0.5967 0.67882 0.30019 0.0
C341 C 0.60456 0.64671 0.12951 0.0
C342 C 0.59732 0.63277 0.27325 0.0
C343 C 0.59364 0.77146 0.34471 0.0
C344 C 0.5993 0.75356 0.26312 0.0
C345 C 0.59006 0.74282 0.40524 0.0
C346 C 0.59168 0.69665 0.38329 0.0
Eu347 Eu 0.61164 0.74575 0.06917 0.0
N348 N 0.60336 0.78075 0.20493 0.0
C349 C 0.59175 0.81769 0.36293 0.0
C350 C 0.60119 0.82564 0.22088 0.0
C351 C 0.59546 0.84485 0.30049 0.0
H352 H 0.60625 0.634 0.06127 0.0
H353 H 0.59391 0.88053 0.31366 0.0
H354 H 0.66063 0.84281 0.99187 0.0
H355 H 0.67013 0.57902 0.95583 0.0
H356 H 0.60398 0.84646 0.17208 0.0
H357 H 0.5874 0.83269 0.4248 0.0
H358 H 0.66127 0.64045 0.06279 0.0
H359 H 0.60076 0.58125 0.16374 0.0
H360 H 0.5859 0.75601 0.46885 0.0
H361 H 0.58866 0.67494 0.43014 0.0
H362 H 0.67247 0.86679 0.86443 0.0
H363 H 0.59434 0.60948 0.31715 0.0
H364 H 0.67806 0.59409 0.81012 0.0
N365 N 0.66272 0.77389 0.94523 0.0
C366 C 0.66802 0.74224 0.88341 0.0
C367 C 0.6712 0.83167 0.86863 0.0
C368 C 0.67461 0.75418 0.80884 0.0
C369 C 0.66451 0.81813 0.94052 0.0
C370 C 0.67613 0.79954 0.8019 0.0
N371 N 0.66221 0.68834 0.9741 0.0
C372 C 0.66388 0.64685 0.99754 0.0
C373 C 0.67328 0.66449 0.83571 0.0
C374 C 0.66745 0.69804 0.89724 0.0
C375 C 0.67371 0.62083 0.85571 0.0
C376 C 0.66922 0.61217 0.93781 0.0
H377 H 0.68123 0.81007 0.74597 0.0
H378 H 0.68467 0.7291 0.68662 0.0
H379 H 0.68344 0.65047 0.70987 0.0
O380 O 0.6733 0.73756 0.10386 0.0
O381 O 0.64138 0.76507 0.94372 0.0
O382 O 0.62153 0.72502 0.93474 0.0
O383 O 0.66261 0.79482 0.16836 0.0
O384 O 0.64139 0.6865 0.09312 0.0
O385 O 0.62242 0.68285 1.00741 0.0
O386 O 0.59681 0.78669 0.01245 0.0
O387 O 0.62411 0.77188 0.19247 0.0
O388 O 0.64196 0.72466 0.18338 0.0
O389 O 0.59134 0.72076 0.03658 0.0
O390 O 0.62061 0.80983 0.0364 0.0
O391 O 0.64173 0.8158 0.10198 0.0
C392 C 0.63142 0.74464 0.89735 0.0
C393 C 0.68612 0.80308 0.14673 0.0
C394 C 0.7106 0.81316 0.14592 0.0
C395 C 0.70861 0.85685 0.12714 0.0
C396 C 0.68453 0.84692 0.12826 0.0
C397 C 0.6957 0.87345 0.11838 0.0
C398 C 0.69922 0.78641 0.15599 0.0
C399 C 0.63265 0.66357 0.04095 0.0
C400 C 0.67421 0.77484 0.15704 0.0
C401 C 0.67978 0.72066 0.74514 0.0
C402 C 0.67905 0.67587 0.75832 0.0
C403 C 0.6328 0.7481 0.23099 0.0
C404 C 0.57904 0.75096 0.92696 0.0
C405 C 0.55671 0.74794 0.85922 0.0
C406 C 0.56289 0.74247 0.77586 0.0
C407 C 0.58495 0.74564 0.8433 0.0
C408 C 0.56494 0.75189 0.93471 0.0
C409 C 0.57689 0.74125 0.76817 0.0
C410 C 0.63122 0.83313 0.06657 0.0
C411 C 0.58737 0.75671 1.00703 0.0
H412 H 0.71707 0.8786 0.12054 0.0
H413 H 0.67464 0.86095 0.12177 0.0
H414 H 0.69434 0.90719 0.10436 0.0
H415 H 0.70053 0.75261 0.17006 0.0
H416 H 0.5569 0.73872 0.71642 0.0
H417 H 0.59576 0.74519 0.83632 0.0
H418 H 0.5604 0.75663 0.99958 0.0
H419 H 0.58151 0.73704 0.70367 0.0
Eu420 Eu 0.40005 0.75647 0.07393 0.0
C421 C 0.34278 0.74514 0.89521 0.0
N422 N 0.34851 0.77751 0.95351 0.0
C423 C 0.3396 0.83397 0.87521 0.0
C424 C 0.33573 0.75599 0.82149 0.0
C425 C 0.34668 0.82151 0.94654 0.0
C426 C 0.33424 0.80103 0.81175 0.0
C427 C 0.33702 0.66722 0.85452 0.0
C428 C 0.34334 0.70137 0.91209 0.0
C429 C 0.33074 0.67746 0.77788 0.0
C430 C 0.33004 0.72178 0.76162 0.0
Eu431 Eu 0.35944 0.75438 0.07506 0.0
N432 N 0.34912 0.69277 0.98817 0.0
C433 C 0.33666 0.62417 0.87769 0.0
C434 C 0.34771 0.6518 0.01459 0.0
C435 C 0.34179 0.61666 0.95892 0.0
H436 H 0.3508 0.84683 0.99572 0.0
H437 H 0.34105 0.58393 0.97914 0.0
H438 H 0.40753 0.64686 0.07431 0.0
H439 H 0.41427 0.89982 0.31031 0.0
H440 H 0.3511 0.64599 0.07883 0.0
H441 H 0.33194 0.597 0.83516 0.0
H442 H 0.40493 0.86069 0.17071 0.0
H443 H 0.33832 0.86887 0.86906 0.0
H444 H 0.32596 0.65157 0.73247 0.0
H445 H 0.32477 0.72937 0.70383 0.0
H446 H 0.41559 0.59853 0.17906 0.0
H447 H 0.32881 0.81074 0.75634 0.0
H448 H 0.42257 0.85626 0.42409 0.0
N449 N 0.40787 0.70607 0.16742 0.0
C450 C 0.41246 0.72523 0.24754 0.0
C451 C 0.41449 0.634 0.19985 0.0
C452 C 0.41759 0.69889 0.30872 0.0
C453 C 0.4096 0.66148 0.14113 0.0
C454 C 0.41822 0.65264 0.28469 0.0
N455 N 0.40761 0.79628 0.20741 0.0
C456 C 0.40845 0.84168 0.22071 0.0
C457 C 0.41803 0.79236 0.34751 0.0
C458 C 0.41268 0.77153 0.26707 0.0
C459 C 0.41852 0.83904 0.36312 0.0
C460 C 0.41379 0.86378 0.2992 0.0
H461 H 0.42211 0.63127 0.32975 0.0
H462 H 0.42622 0.69974 0.43856 0.0
H463 H 0.42661 0.78151 0.47245 0.0
O464 O 0.41427 0.79788 0.01261 0.0
O465 O 0.38738 0.77986 0.19803 0.0
O466 O 0.37027 0.72993 0.18912 0.0
O467 O 0.42068 0.73417 0.04414 0.0
O468 O 0.39022 0.8183 0.03586 0.0
O469 O 0.36966 0.82213 0.10758 0.0
O470 O 0.33867 0.74355 0.11529 0.0
O471 O 0.36981 0.76879 0.94794 0.0
O472 O 0.39027 0.7322 0.94081 0.0
O473 O 0.34968 0.80056 0.17779 0.0
O474 O 0.37092 0.69235 0.099 0.0
O475 O 0.39036 0.69045 0.01699 0.0
C476 C 0.37928 0.75411 0.23648 0.0
C477 C 0.43243 0.76217 0.92997 0.0
C478 C 0.45474 0.75264 0.86213 0.0
C479 C 0.44857 0.74733 0.77878 0.0
C480 C 0.42655 0.75707 0.84627 0.0
C481 C 0.4346 0.74962 0.77113 0.0
C482 C 0.44651 0.7601 0.93767 0.0
C483 C 0.37938 0.84029 0.06619 0.0
C484 C 0.42411 0.76941 1.01015 0.0
C485 C 0.42239 0.71952 0.39049 0.0
C486 C 0.42267 0.7661 0.40967 0.0
C487 C 0.38007 0.74971 0.90246 0.0
C488 C 0.3262 0.80985 0.15755 0.0
C489 C 0.30176 0.8206 0.15465 0.0
C490 C 0.30392 0.86448 0.13748 0.0
C491 C 0.32797 0.85382 0.14018 0.0
C492 C 0.31303 0.79344 0.16504 0.0
C493 C 0.3169 0.88079 0.1302 0.0
C494 C 0.3799 0.67058 0.04692 0.0
C495 C 0.33799 0.7811 0.16783 0.0
H496 H 0.45457 0.74211 0.71933 0.0
H497 H 0.41577 0.75903 0.83923 0.0
H498 H 0.43001 0.7458 0.70662 0.0
H499 H 0.45104 0.76381 1.00251 0.0
H500 H 0.29555 0.88659 0.13087 0.0
H501 H 0.33791 0.86756 0.13442 0.0
H502 H 0.31159 0.75948 0.17783 0.0
H503 H 0.3184 0.91465 0.11715 0.0
Eu504 Eu 0.65162 0.24026 1.00357 0.0
C505 C 0.5957 0.24234 0.81866 0.0
N506 N 0.60098 0.27293 0.88258 0.0
C507 C 0.59287 0.33256 0.80971 0.0
C508 C 0.58925 0.25589 0.74507 0.0
C509 C 0.59944 0.31751 0.88044 0.0
C510 C 0.58785 0.30162 0.74132 0.0
C511 C 0.59078 0.16509 0.76344 0.0
C512 C 0.59638 0.1975 0.8284 0.0
C513 C 0.58507 0.17826 0.68748 0.0
C514 C 0.58423 0.22356 0.67857 0.0
Eu515 Eu 0.61075 0.24554 1.00344 0.0
N516 N 0.60163 0.18588 0.90383 0.0
C517 C 0.5906 0.12059 0.77834 0.0
C518 C 0.60026 0.14319 0.92191 0.0
C519 C 0.59512 0.10976 0.85865 0.0
H520 H 0.60344 0.34129 0.93299 0.0
H521 H 0.5944 0.0758 0.87266 0.0
H522 H 0.65877 0.13055 0.9928 0.0
H523 H 0.66879 0.37638 0.24798 0.0
H524 H 0.60283 0.13462 0.98565 0.0
H525 H 0.58642 0.09472 0.73001 0.0
H526 H 0.65884 0.34167 0.1068 0.0
H527 H 0.59177 0.36794 0.80767 0.0
H528 H 0.58086 0.15375 0.63658 0.0
H529 H 0.57945 0.23329 0.62081 0.0
H530 H 0.66532 0.07752 0.09309 0.0
H531 H 0.58286 0.31334 0.6862 0.0
H532 H 0.67571 0.32904 0.35901 0.0
N533 N 0.65895 0.18688 0.09228 0.0
C534 C 0.66327 0.2033 0.17454 0.0
C535 C 0.66452 0.1127 0.11752 0.0
C536 C 0.66782 0.17456 0.23305 0.0
C537 C 0.66044 0.14268 0.06137 0.0
C538 C 0.66795 0.12861 0.20443 0.0
N539 N 0.65977 0.27598 0.13982 0.0
C540 C 0.6617 0.32104 0.15568 0.0
C541 C 0.66972 0.26742 0.27942 0.0
C542 C 0.66407 0.24915 0.19813 0.0
C543 C 0.67134 0.31375 0.29748 0.0
C544 C 0.6674 0.34062 0.23506 0.0
H545 H 0.67134 0.10539 0.24739 0.0
H546 H 0.67605 0.17105 0.36261 0.0
H547 H 0.67784 0.25238 0.40284 0.0
O548 O 0.66635 0.28023 0.94187 0.0
O549 O 0.63949 0.26567 0.12952 0.0
O550 O 0.62071 0.22208 0.12226 0.0
O551 O 0.67113 0.21285 0.95762 0.0
O552 O 0.64267 0.30544 0.97439 0.0
O553 O 0.62186 0.31073 0.04416 0.0
O554 O 0.5896 0.2342 0.0351 0.0
O555 O 0.62219 0.26272 0.88248 0.0
O556 O 0.64086 0.21772 0.87303 0.0
O557 O 0.60009 0.29112 0.10252 0.0
O558 O 0.62093 0.18272 0.03432 0.0
O559 O 0.64022 0.17686 0.95056 0.0
C560 C 0.63044 0.24331 0.16847 0.0
C561 C 0.68932 0.26323 0.96382 0.0
C562 C 0.71281 0.27998 0.93358 0.0
C563 C 0.71513 0.28938 0.02459 0.0
C564 C 0.69211 0.27185 0.05413 0.0
C565 C 0.70486 0.28511 0.08426 0.0
C566 C 0.69982 0.26671 0.90318 0.0
C567 C 0.63237 0.32873 1.01028 0.0
C568 C 0.67561 0.24954 0.93354 0.0
C569 C 0.67265 0.19263 0.31647 0.0
C570 C 0.67371 0.23895 0.33932 0.0
C571 C 0.63168 0.24011 0.83545 0.0
C572 C 0.57675 0.29997 0.07723 0.0
C573 C 0.55238 0.31199 0.08005 0.0
C574 C 0.55454 0.35572 0.06237 0.0
C575 C 0.57856 0.34409 0.06071 0.0
C576 C 0.56357 0.28394 0.08624 0.0
C577 C 0.56752 0.37149 0.05254 0.0
C578 C 0.6305 0.15877 0.99161 0.0
C579 C 0.58852 0.27132 0.08865 0.0
H580 H 0.72501 0.29923 0.04968 0.0
H581 H 0.68451 0.26787 0.10179 0.0
H582 H 0.70681 0.29175 0.15425 0.0
H583 H 0.69789 0.25945 0.83315 0.0
H584 H 0.54615 0.37781 0.05604 0.0
H585 H 0.5885 0.35773 0.05492 0.0
H586 H 0.56206 0.25025 0.10044 0.0
H587 H 0.56905 0.40532 0.03943 0.0
Eu588 Eu 0.39804 0.24127 0.94163 0.0
C589 C 0.33822 0.25349 0.11228 0.0
N590 N 0.34587 0.22264 0.06204 0.0
C591 C 0.33822 0.16582 0.14418 0.0
C592 C 0.33067 0.2419 0.18343 0.0
C593 C 0.34554 0.17893 0.07448 0.0
C594 C 0.33087 0.19754 0.19958 0.0
C595 C 0.32887 0.32813 0.13715 0.0
C596 C 0.33731 0.29602 0.08913 0.0
C597 C 0.32198 0.31754 0.21135 0.0
C598 C 0.32285 0.27448 0.23431 0.0
Eu599 Eu 0.35737 0.24685 0.94316 0.0
N600 N 0.34378 0.30487 0.01561 0.0
C601 C 0.32712 0.3692 0.10677 0.0
C602 C 0.34136 0.34365 0.98241 0.0
C603 C 0.33317 0.37659 0.02805 0.0
H604 H 0.35087 0.1542 0.03039 0.0
H605 H 0.33143 0.4075 1.00207 0.0
H606 H 0.41093 0.34144 0.9164 0.0
H607 H 0.40405 0.08172 0.72988 0.0
H608 H 0.34571 0.34918 0.92031 0.0
H609 H 0.3207 0.39468 0.14165 0.0
H610 H 0.39779 0.13155 0.86504 0.0
H611 H 0.33816 0.13123 0.15466 0.0
H612 H 0.31558 0.34194 0.24955 0.0
H613 H 0.31713 0.26637 0.28999 0.0
H614 H 0.42056 0.37898 0.79786 0.0
H615 H 0.32515 0.18727 0.25334 0.0
H616 H 0.41382 0.11321 0.6038 0.0
N617 N 0.40797 0.2798 0.83441 0.0
C618 C 0.41135 0.25446 0.7571 0.0
C619 C 0.41775 0.34416 0.7848 0.0
C620 C 0.41745 0.27384 0.68863 0.0
C621 C 0.41189 0.32327 0.851 0.0
C622 C 0.42029 0.31954 0.70256 0.0
N623 N 0.40316 0.19079 0.81408 0.0
C624 C 0.4017 0.14574 0.80971 0.0
C625 C 0.41308 0.18133 0.66931 0.0
C626 C 0.40921 0.20862 0.74746 0.0
C627 C 0.41101 0.13527 0.66278 0.0
C628 C 0.40541 0.11739 0.73361 0.0
H629 H 0.42495 0.33568 0.65161 0.0
H630 H 0.42553 0.26133 0.55633 0.0
H631 H 0.42166 0.18042 0.53929 0.0
O632 O 0.41229 0.19865 0.9998 0.0
O633 O 0.38445 0.22248 0.82075 0.0
O634 O 0.36807 0.27455 0.83196 0.0
O635 O 0.41868 0.26308 0.97204 0.0
O636 O 0.38766 0.18572 0.99791 0.0
O637 O 0.36821 0.17969 0.9167 0.0
O638 O 0.33705 0.25332 0.89167 0.0
O639 O 0.36712 0.23948 0.07581 0.0
O640 O 0.38864 0.26948 0.07529 0.0
O641 O 0.34936 0.19744 0.83839 0.0
O642 O 0.36753 0.31419 0.94243 0.0
O643 O 0.39045 0.31256 0.97818 0.0
C644 C 0.37734 0.25172 0.78468 0.0
C645 C 0.43088 0.23258 0.08112 0.0
C646 C 0.45355 0.24316 0.14292 0.0
C647 C 0.44798 0.24446 0.22766 0.0
C648 C 0.4256 0.23353 0.16596 0.0
C649 C 0.43414 0.23953 0.23882 0.0
C650 C 0.44481 0.23715 0.06989 0.0
C651 C 0.37701 0.16321 0.96752 0.0
C652 C 0.42215 0.22704 1.00289 0.0
C653 C 0.42092 0.24692 0.60972 0.0
C654 C 0.41878 0.2008 0.6002 0.0
C655 C 0.37797 0.25677 0.11739 0.0
C656 C 0.32577 0.18505 0.8502 0.0
C657 C 0.30143 0.17173 0.84621 0.0
C658 C 0.30379 0.12895 0.86877 0.0
C659 C 0.32776 0.14213 0.87264 0.0
C660 C 0.31254 0.19976 0.83739 0.0
C661 C 0.31683 0.11441 0.88185 0.0
C662 C 0.37907 0.33369 0.96697 0.0
C663 C 0.33735 0.21496 0.84185 0.0
H664 H 0.45428 0.24991 0.28564 0.0
H665 H 0.41493 0.2296 0.17572 0.0
H666 H 0.43001 0.24055 0.30433 0.0
H667 H 0.44882 0.23551 1.00386 0.0
H668 H 0.2955 0.10685 0.87767 0.0
H669 H 0.33775 0.12995 0.88359 0.0
H670 H 0.31094 0.23278 0.81987 0.0
H671 H 0.31848 0.0815 0.89963 0.0
C672 C 0.22292 0.22012 0.88584 0.0
C673 C 0.21727 0.24008 0.81716 0.0
C674 C 0.23677 0.21124 0.88871 0.0
C675 C 0.24529 0.2224 0.82114 0.0
C676 C 0.2397 0.24281 0.75189 0.0
C677 C 0.2258 0.25141 0.75074 0.0
C678 C 0.24225 0.18928 0.96361 0.0
C679 C 0.2484 0.2553 0.67861 0.0
C680 C 0.28291 0.22906 0.87088 0.0
C681 C 0.28733 0.18658 0.83343 0.0
C682 C 0.26933 0.24163 0.86565 0.0
C683 C 0.25993 0.21111 0.82163 0.0
C684 C 0.26445 0.16878 0.7812 0.0
C685 C 0.27804 0.15709 0.78759 0.0
C686 C 0.26496 0.28707 0.90966 0.0
C687 C 0.25484 0.13531 0.73297 0.0
H688 H 0.21645 0.21061 0.93684 0.0
H689 H 0.22162 0.26742 0.69804 0.0
H690 H 0.24669 0.15646 0.93756 0.0
H691 H 0.25039 0.20998 0.99765 0.0
H692 H 0.2344 0.18408 0.0126 0.0
H693 H 0.24259 0.27181 0.63054 0.0
H694 H 0.25654 0.27808 0.70623 0.0
H695 H 0.25326 0.22502 0.64311 0.0
H696 H 0.28997 0.25195 0.90699 0.0
H697 H 0.28139 0.12448 0.75718 0.0
H698 H 0.25797 0.28334 0.96441 0.0
H699 H 0.25945 0.30486 0.8623 0.0
H700 H 0.27359 0.30796 0.93643 0.0
H701 H 0.24722 0.12567 0.77951 0.0
H702 H 0.26004 0.10467 0.70159 0.0
H703 H 0.2494 0.15035 0.68138 0.0
C704 C 0.72856 0.24666 0.81404 0.0
C705 C 0.72427 0.28362 0.8729 0.0
C706 C 0.74085 0.24759 0.76861 0.0
C707 C 0.74894 0.28649 0.78204 0.0
C708 C 0.74425 0.32461 0.8379 0.0
C709 C 0.73203 0.32262 0.88278 0.0
C710 C 0.74547 0.20626 0.70974 0.0
C711 C 0.75241 0.36702 0.85332 0.0
C712 C 0.787 0.28403 0.75838 0.0
C713 C 0.78884 0.30197 0.67979 0.0
C714 C 0.77405 0.27649 0.78996 0.0
C715 C 0.76262 0.28718 0.74199 0.0
C716 C 0.76442 0.3029 0.66021 0.0
C717 C 0.77747 0.31002 0.6301 0.0
C718 C 0.77262 0.25939 0.87721 0.0
C719 C 0.75255 0.31445 0.60661 0.0
H720 H 0.72265 0.21631 0.80707 0.0
H721 H 0.72871 0.35127 0.92812 0.0
H722 H 0.74875 0.21466 0.64501 0.0
H723 H 0.75425 0.19179 0.74 0.0
H724 H 0.73747 0.18051 0.69896 0.0
H725 H 0.74698 0.39449 0.8944 0.0
H726 H 0.76195 0.36075 0.88679 0.0
H727 H 0.75504 0.37811 0.78962 0.0
H728 H 0.79568 0.27794 0.79759 0.0
H729 H 0.77877 0.32306 0.56842 0.0
H730 H 0.76547 0.23104 0.87142 0.0
H731 H 0.76847 0.28616 0.92674 0.0
H732 H 0.78237 0.24834 0.90188 0.0
H733 H 0.74512 0.28688 0.59906 0.0
H734 H 0.75556 0.32142 0.54022 0.0
H735 H 0.74744 0.34443 0.64141 0.0
C736 C 0.2777 0.81545 0.10493 0.0
C737 C 0.28771 0.80411 0.16228 0.0
C738 C 0.26419 0.8039 0.11544 0.0
C739 C 0.26051 0.77996 0.18462 0.0
C740 C 0.27061 0.76701 0.24099 0.0
C741 C 0.28408 0.77927 0.22925 0.0
C742 C 0.2538 0.81827 0.05354 0.0
C743 C 0.26714 0.7412 0.31515 0.0
C744 C 0.22412 0.79276 0.26152 0.0
C745 C 0.2181 0.75448 0.21567 0.0
C746 C 0.23795 0.80089 0.25369 0.0
C747 C 0.24604 0.76988 0.19908 0.0
C748 C 0.24009 0.73059 0.15449 0.0
C749 C 0.22621 0.72346 0.16303 0.0
C750 C 0.24384 0.84337 0.30189 0.0
C751 C 0.24834 0.69645 0.09637 0.0
H752 H 0.28041 0.83384 0.05189 0.0
H753 H 0.29169 0.77061 0.27431 0.0
H754 H 0.24818 0.78885 0.02113 0.0
H755 H 0.24641 0.84089 0.09117 0.0
H756 H 0.25833 0.8358 1.00184 0.0
H757 H 0.27621 0.73117 0.34959 0.0
H758 H 0.26067 0.76187 0.36371 0.0
H759 H 0.26136 0.71082 0.28966 0.0
H760 H 0.21793 0.81712 0.30163 0.0
H761 H 0.22169 0.69347 0.1284 0.0
H762 H 0.24768 0.86438 0.25369 0.0
H763 H 0.25248 0.83561 0.34273 0.0
H764 H 0.23637 0.863 0.34505 0.0
H765 H 0.25237 0.71141 0.03983 0.0
H766 H 0.24239 0.66641 0.07056 0.0
H767 H 0.25706 0.68596 0.13345 0.0
C768 C 0.72805 0.77311 0.22502 0.0
C769 C 0.72459 0.79654 0.1556 0.0
C770 C 0.74148 0.76104 0.23877 0.0
C771 C 0.75171 0.7726 0.18177 0.0
C772 C 0.7482 0.79505 0.11013 0.0
C773 C 0.73473 0.80657 0.09786 0.0
C774 C 0.74478 0.73693 0.31563 0.0
C775 C 0.75872 0.80779 0.04729 0.0
C776 C 0.78816 0.78601 0.25739 0.0
C777 C 0.7941 0.74694 0.21401 0.0
C778 C 0.77432 0.79413 0.24967 0.0
C779 C 0.76615 0.76239 0.19758 0.0
C780 C 0.772 0.72224 0.15599 0.0
C781 C 0.78587 0.71507 0.16453 0.0
C782 C 0.76853 0.83746 0.29486 0.0
C783 C 0.76367 0.68732 0.10052 0.0
H784 H 0.72033 0.76549 0.27037 0.0
H785 H 0.73214 0.82393 0.0431 0.0
H786 H 0.75049 0.70601 0.29283 0.0
H787 H 0.75126 0.7583 0.36292 0.0
H788 H 0.73563 0.72802 0.35077 0.0
H789 H 0.75431 0.82426 0.99372 0.0
H790 H 0.76611 0.83083 0.08362 0.0
H791 H 0.7643 0.77774 0.01732 0.0
H792 H 0.79442 0.81101 0.29512 0.0
H793 H 0.79031 0.68445 0.13194 0.0
H794 H 0.75978 0.83084 0.33585 0.0
H795 H 0.76488 0.85768 0.24478 0.0
H796 H 0.776 0.85741 0.33732 0.0
H797 H 0.75486 0.6782 0.13843 0.0
H798 H 0.76952 0.65663 0.07762 0.0
H799 H 0.75979 0.70098 0.04208 0.0
C800 C 0.14403 0.90136 0.44951 0.0
C801 C 0.13577 0.88131 0.50683 0.0
C802 C 0.14398 0.94777 0.4499 0.0
C803 C 0.13558 0.97491 0.50967 0.0
C804 C 0.12728 0.95492 0.56809 0.0
C805 C 0.12743 0.90839 0.56567 0.0
C806 C 0.15286 0.96773 0.38589 0.0
C807 C 0.11826 0.98274 0.63337 0.0
C808 C 0.14434 0.09767 0.56925 0.0
C809 C 0.135 0.11816 0.51939 0.0
C810 C 0.14466 0.05114 0.56643 0.0
C811 C 0.13553 0.02427 0.51167 0.0
C812 C 0.12625 0.04462 0.45984 0.0
C813 C 0.12605 0.0913 0.46466 0.0
C814 C 0.15463 0.03079 0.62335 0.0
C815 C 0.11646 0.01708 0.39987 0.0
H816 H 0.15044 0.88074 0.40327 0.0
H817 H 0.12101 0.89325 0.61027 0.0
H818 H 0.14666 0.98657 0.34371 0.0
H819 H 0.15999 0.99172 0.42227 0.0
H820 H 0.1587 0.942 0.34291 0.0
H821 H 0.11245 0.96211 0.67449 0.0
H822 H 0.12435 0.00717 0.67733 0.0
H823 H 0.1111 0.00203 0.59822 0.0
H824 H 0.15124 0.11804 0.61224 0.0
H825 H 0.11882 0.10675 0.42567 0.0
H826 H 0.1611 0.00641 0.58198 0.0
H827 H 0.1492 0.01232 0.67004 0.0
H828 H 0.16115 0.05625 0.66158 0.0
H829 H 0.12196 0.99216 0.35313 0.0
H830 H 0.11019 0.03786 0.36168 0.0
H831 H 0.10973 0.99835 0.43916 0.0
C832 C 0.89216 0.40349 0.51158 0.0
C833 C 0.88133 0.38391 0.55058 0.0
C834 C 0.89177 0.4483 0.4977 0.0
C835 C 0.88023 0.47433 0.52288 0.0
C836 C 0.86931 0.45504 0.56302 0.0
C837 C 0.87002 0.41019 0.57689 0.0
C838 C 0.9037 0.46777 0.45573 0.0
C839 C 0.85677 0.48155 0.59004 0.0
C840 C 0.88492 0.60002 0.55838 0.0
C841 C 0.88037 0.6118 0.4784 0.0
C842 C 0.88466 0.55559 0.57437 0.0
C843 C 0.87978 0.52198 0.50855 0.0
C844 C 0.87504 0.53376 0.42784 0.0
C845 C 0.87548 0.57858 0.41347 0.0
C846 C 0.88979 0.54455 0.66131 0.0
C847 C 0.8697 0.49894 0.35626 0.0
H848 H 0.90099 0.38376 0.49116 0.0
H849 H 0.86162 0.39565 0.60749 0.0
H850 H 0.90058 0.48003 0.39406 0.0
H851 H 0.90768 0.49678 0.50045 0.0
H852 H 0.91193 0.44313 0.44016 0.0
H853 H 0.84952 0.46257 0.62541 0.0
H854 H 0.85936 0.513 0.63293 0.0
H855 H 0.85176 0.49083 0.53072 0.0
H856 H 0.88866 0.62574 0.60884 0.0
H857 H 0.87212 0.58762 0.3512 0.0
H858 H 0.89853 0.52171 0.65002 0.0
H859 H 0.8819 0.52699 0.69422 0.0
H860 H 0.8929 0.57476 0.70645 0.0
H861 H 0.86582 0.51379 0.29909 0.0
H862 H 0.8615 0.47981 0.3825 0.0
H863 H 0.87778 0.47488 0.33302 0.0
C864 C 0.86868 0.90118 0.46529 0.0
C865 C 0.87969 0.87867 0.49563 0.0
C866 C 0.86858 0.94788 0.47076 0.0
C867 C 0.87973 0.9728 0.50755 0.0
C868 C 0.89083 0.95043 0.53891 0.0
C869 C 0.89067 0.90372 0.53266 0.0
C870 C 0.85654 0.97058 0.43688 0.0
C871 C 0.90288 0.97587 0.579 0.0
C872 C 0.88519 0.0901 0.45228 0.0
C873 C 0.88002 0.11627 0.52732 0.0
C874 C 0.88509 0.04331 0.44466 0.0
C875 C 0.87976 0.02234 0.514 0.0
C876 C 0.87456 0.04873 0.59 0.0
C877 C 0.87477 0.09535 0.59575 0.0
C878 C 0.89071 0.01632 0.36256 0.0
C879 C 0.86886 0.02773 0.66556 0.0
H880 H 0.86013 0.88234 0.43655 0.0
H881 H 0.89923 0.88687 0.55658 0.0
H882 H 0.85204 0.99424 0.49077 0.0
H883 H 0.8597 0.99029 0.38473 0.0
H884 H 0.8487 0.94643 0.4096 0.0
H885 H 0.91076 0.9535 0.59946 0.0
H886 H 0.90732 0.99593 0.5311 0.0
H887 H 0.89976 -0.0005 0.63738 0.0
H888 H 0.88926 0.10624 0.39936 0.0
H889 H 0.87095 0.11552 0.65451 0.0
H890 H 0.88288 0.99355 0.33043 0.0
H891 H 0.89913 0.99527 0.38002 0.0
H892 H 0.89439 0.03769 0.31442 0.0
H893 H 0.8605 0.00496 0.64203 0.0
H894 H 0.86508 0.05297 0.71956 0.0
H895 H 0.87669 0.00739 0.69258 0.0
C896 C 0.12358 0.58327 0.43056 0.0
C897 C 0.13141 0.61351 0.48596 0.0
C898 C 0.12265 0.53836 0.44356 0.0
C899 C 0.13065 0.52257 0.50936 0.0
C900 C 0.13895 0.5531 0.56357 0.0
C901 C 0.13872 0.5985 0.55371 0.0
C902 C 0.11283 0.50903 0.3871 0.0
C903 C 0.14807 0.53806 0.6322 0.0
C904 C 0.12441 0.41695 0.61233 0.0
C905 C 0.13014 0.38428 0.5501 0.0
C906 C 0.12379 0.46162 0.59771 0.0
C907 C 0.13026 0.47465 0.52284 0.0
C908 C 0.13657 0.44161 0.46145 0.0
C909 C 0.13589 0.39659 0.47397 0.0
C910 C 0.11592 0.49377 0.66267 0.0
C911 C 0.14419 0.45364 0.38306 0.0
H912 H 0.11798 0.59476 0.3777 0.0
H913 H 0.14438 0.62229 0.59876 0.0
H914 H 0.11117 0.47619 0.4093 0.0
H915 H 0.10299 0.52625 0.38661 0.0
H916 H 0.11649 0.50371 0.31811 0.0
H917 H 0.15568 0.5637 0.65601 0.0
H918 H 0.14207 0.53156 0.68976 0.0
H919 H 0.15333 0.50671 0.60552 0.0
H920 H 0.1201 0.40759 0.67182 0.0
H921 H 0.14025 0.37106 0.42557 0.0
H922 H 0.11412 0.52649 0.64029 0.0
H923 H 0.12132 0.49907 0.72652 0.0
H924 H 0.10603 0.47892 0.6754 0.0
H925 H 0.13702 0.4626 0.33328 0.0
H926 H 0.15043 0.42551 0.35121 0.0
H927 H 0.15078 0.48287 0.40301 0.0
C928 C 0.63825 0.59356 0.10105 0.0
C929 C 0.63294 0.6144 0.03277 0.0
C930 C 0.63833 0.54702 0.09582 0.0
C931 C 0.63291 0.52069 0.02059 0.0
C932 C 0.62755 0.54155 0.95127 0.0
C933 C 0.62762 0.58827 0.95827 0.0
C934 C 0.64408 0.52606 0.17126 0.0
C935 C 0.62166 0.51452 0.87016 0.0
C936 C 0.64342 0.39901 0.97752 0.0
C937 C 0.63251 0.37784 1.01216 0.0
C938 C 0.64362 0.44545 0.97892 0.0
C939 C 0.63263 0.47133 0.01554 0.0
C940 C 0.62154 0.45022 0.04992 0.0
C941 C 0.62164 0.40382 0.04819 0.0
C942 C 0.65565 0.4669 0.942 0.0
C943 C 0.60963 0.47672 0.08956 0.0
H944 H 0.6422 0.61373 0.15937 0.0
H945 H 0.6235 0.60442 0.90551 0.0
H946 H 0.63619 0.50669 0.20003 0.0
H947 H 0.65222 0.5024 0.14712 0.0
H948 H 0.6482 0.55125 0.2241 0.0
H949 H 0.61807 0.53581 0.82164 0.0
H950 H 0.62928 0.4909 0.838 0.0
H951 H 0.6131 0.49435 0.88889 0.0
H952 H 0.65188 0.37937 0.94955 0.0
H953 H 0.61316 0.38796 0.07532 0.0
H954 H 0.66049 0.49051 0.99451 0.0
H955 H 0.65242 0.48648 0.88982 0.0
H956 H 0.66324 0.44199 0.91393 0.0
H957 H 0.61285 0.49947 0.14891 0.0
H958 H 0.60146 0.45499 0.1086 0.0
H959 H 0.60554 0.49775 0.04222 0.0
C960 C 0.38677 0.90536 0.99381 0.0
C961 C 0.37811 0.88772 0.05232 0.0
C962 C 0.38567 0.94986 0.9787 0.0
C963 C 0.3757 0.97772 0.02343 0.0
C964 C 0.36681 0.96007 0.0818 0.0
C965 C 0.36812 0.91532 0.09556 0.0
C966 C 0.39531 0.96722 0.91549 0.0
C967 C 0.35606 0.98867 0.13092 0.0
C968 C 0.38346 0.10169 0.05181 0.0
C969 C 0.37593 0.11616 0.98393 0.0
C970 C 0.38314 0.05709 0.06685 0.0
C971 C 0.37514 0.02589 0.01248 0.0
C972 C 0.36724 0.04043 0.94517 0.0
C973 C 0.36771 0.08544 0.93174 0.0
C974 C 0.39163 0.04318 0.13986 0.0
C975 C 0.35858 0.00822 0.88579 0.0
H976 H 0.39444 0.88431 0.95923 0.0
H977 H 0.36137 0.9021 0.14089 0.0
H978 H 0.38965 0.98166 0.864 0.0
H979 H 0.40154 0.99429 0.95116 0.0
H980 H 0.40209 0.94077 0.88292 0.0
H981 H 0.34935 0.96917 0.16905 0.0
H982 H 0.36081 0.01567 0.17703 0.0
H983 H 0.34986 0.00482 0.08435 0.0
H984 H 0.38971 0.12528 0.09326 0.0
H985 H 0.36187 0.09633 0.87917 0.0
H986 H 0.39939 0.01902 0.11162 0.0
H987 H 0.38532 0.02617 0.18455 0.0
H988 H 0.39673 0.07194 0.17925 0.0
H989 H 0.36505 0.98362 0.84495 0.0
H990 H 0.35222 0.02536 0.8414 0.0
H991 H 0.35197 0.9893 0.92546 0.0
C992 C 0.38839 0.40704 0.93782 0.0
C993 C 0.37911 0.38315 0.98101 0.0
C994 C 0.38869 0.45379 0.95155 0.0
C995 C 0.37868 0.47768 1.00447 0.0
C996 C 0.36884 0.45362 0.04558 0.0
C997 C 0.36945 0.40675 0.0354 0.0
C998 C 0.39975 0.47699 0.90821 0.0
C999 C 0.35765 0.47665 0.1008 0.0
C1000 C 0.38263 0.59909 0.10691 0.0
C1001 C 0.37963 0.62156 0.03584 0.0
C1002 C 0.38281 0.55232 0.09702 0.0
C1003 C 0.37857 0.5275 0.01631 0.0
C1004 C 0.37459 0.55063 0.94614 0.0
C1005 C 0.37574 0.5973 0.95567 0.0
C1006 C 0.38761 0.53022 0.17358 0.0
C1007 C 0.36896 0.52691 0.86087 0.0
H1008 H 0.39526 0.38952 0.89126 0.0
H1009 H 0.36235 0.38858 0.07021 0.0
H1010 H 0.39641 0.48282 0.84193 0.0
H1011 H 0.40247 0.50954 0.9468 0.0
H1012 H 0.40893 0.45593 0.89933 0.0
H1013 H 0.34833 0.45642 0.09326 0.0
H1014 H 0.36053 0.47994 0.17119 0.0
H1015 H 0.35537 0.51025 0.0838 0.0
H1016 H 0.38522 0.61812 0.16984 0.0
H1017 H 0.37306 0.61497 0.90143 0.0
H1018 H 0.39201 0.49679 0.15219 0.0
H1019 H 0.37902 0.5266 0.21798 0.0
H1020 H 0.39525 0.5511 0.21275 0.0
H1021 H 0.37697 0.52339 0.8101 0.0
H1022 H 0.36079 0.54697 0.83652 0.0
H1023 H 0.36492 0.4934 0.8673 0.0
C1024 C 0.62591 0.09631 0.07646 0.0
C1025 C 0.63107 0.11083 1.00037 0.0
C1026 C 0.62646 0.05132 0.08801 0.0
C1027 C 0.63225 0.01994 0.02162 0.0
C1028 C 0.63754 0.03438 0.94467 0.0
C1029 C 0.63685 0.07977 0.93483 0.0
C1030 C 0.62073 0.03736 0.17109 0.0
C1031 C 0.6438 0.00183 0.87257 0.0
C1032 C 0.64245 0.90818 0.08707 0.0
C1033 C 0.63149 0.88118 0.0567 0.0
C1034 C 0.64298 0.95321 0.07465 0.0
C1035 C 0.63223 0.97181 0.03163 0.0
C1036 C 0.62112 0.94487 1.00127 0.0
C1037 C 0.62089 0.89995 0.01403 0.0
C1038 C 0.65503 0.98086 0.10747 0.0
C1039 C 0.6094 0.96359 0.95576 0.0
H1040 H 0.62155 0.1203 0.12776 0.0
H1041 H 0.64081 0.09099 0.87592 0.0
H1042 H 0.61238 0.01343 0.15438 0.0
H1043 H 0.62853 0.02006 0.20527 0.0
H1044 H 0.6169 0.06614 0.21733 0.0
H1045 H 0.64789 0.01862 0.81841 0.0
H1046 H 0.65205 0.98327 0.89977 0.0
H1047 H 0.63622 0.97694 0.8448 0.0
H1048 H 0.65068 0.89415 0.12033 0.0
H1049 H 0.61236 0.87955 0.99012 0.0
H1050 H 0.65182 0.01012 0.15463 0.0
H1051 H 0.66002 0.99376 0.05156 0.0
H1052 H 0.6625 0.9615 0.14033 0.0
H1053 H 0.60464 0.99106 1.00072 0.0
H1054 H 0.60165 0.93797 0.93442 0.0
H1055 H 0.61296 0.97788 0.8972 0.0
C1056 C 0.14229 0.23625 0.24081 0.0
C1057 C 0.1317 0.25517 0.29391 0.0
C1058 C 0.14269 0.23769 0.14936 0.0
C1059 C 0.13198 0.25751 0.10793 0.0
C1060 C 0.12104 0.27575 0.1605 0.0
C1061 C 0.12111 0.27484 0.25241 0.0
C1062 C 0.15478 0.21857 0.09772 0.0
C1063 C 0.10909 0.29541 0.11937 0.0
C1064 C 0.13754 0.29506 0.88152 0.0
C1065 C 0.13272 0.25845 0.82354 0.0
C1066 C 0.13746 0.29512 0.97368 0.0
C1067 C 0.13212 0.25818 1.00968 0.0
C1068 C 0.12731 0.22108 0.95131 0.0
C1069 C 0.12791 0.22137 0.85956 0.0
C1070 C 0.14324 0.33458 0.03264 0.0
C1071 C 0.12151 0.18091 0.98584 0.0
H1072 H 0.15029 0.21978 0.27044 0.0
H1073 H 0.11276 0.28946 0.29166 0.0
H1074 H 0.15188 0.20037 0.03268 0.0
H1075 H 0.16153 0.24628 0.08597 0.0
H1076 H 0.16052 0.19542 0.13365 0.0
H1077 H 0.10179 0.31089 0.16934 0.0
H1078 H 0.11239 0.3209 0.07864 0.0
H1079 H 0.10388 0.26873 0.0751 0.0
H1080 H 0.14143 0.32378 0.85483 0.0
H1081 H 0.12462 0.19225 0.81578 0.0
H1082 H 0.15158 0.32337 0.0722 0.0
H1083 H 0.13547 0.34969 0.07941 0.0
H1084 H 0.14711 0.36059 0.99487 0.0
H1085 H 0.12879 0.16755 0.03014 0.0
H1086 H 0.11882 0.15381 0.93219 0.0
H1087 H 0.11236 0.19088 0.02506 0.0
C1088 C 0.89127 0.22177 0.23826 0.0
C1089 C 0.88193 0.24726 0.29288 0.0
C1090 C 0.89157 0.22259 0.14625 0.0
C1091 C 0.88202 0.24833 0.10653 0.0
C1092 C 0.87262 0.27412 0.16137 0.0
C1093 C 0.87289 0.27388 0.25311 0.0
C1094 C 0.90231 0.1966 0.09176 0.0
C1095 C 0.86196 0.30134 0.12341 0.0
C1096 C 0.88745 0.28372 0.8784 0.0
C1097 C 0.88064 0.25042 0.82245 0.0
C1098 C 0.88837 0.28264 0.96992 0.0
C1099 C 0.8818 0.24846 1.0081 0.0
C1100 C 0.87447 0.21565 0.95237 0.0
C1101 C 0.87412 0.21669 0.86062 0.0
C1102 C 0.89641 0.31818 0.02589 0.0
C1103 C 0.86681 0.1797 0.98992 0.0
H1104 H 0.89842 0.20119 0.26735 0.0
H1105 H 0.866 0.295 0.29381 0.0
H1106 H 0.89775 0.1741 0.03641 0.0
H1107 H 0.90893 0.22015 0.06281 0.0
H1108 H 0.90858 0.17647 0.13124 0.0
H1109 H 0.85741 0.32658 0.17439 0.0
H1110 H 0.86605 0.31884 0.07046 0.0
H1111 H 0.85389 0.27866 0.09423 0.0
H1112 H 0.89207 0.31087 0.85059 0.0
H1113 H 0.86868 0.19094 0.81868 0.0
H1114 H 0.90505 0.30249 0.05535 0.0
H1115 H 0.89019 0.3349 0.08086 0.0
H1116 H 0.90026 0.34393 0.98752 0.0
H1117 H 0.87379 0.15957 0.02458 0.0
H1118 H 0.8614 0.15705 0.93841 0.0
H1119 H 0.85941 0.19515 0.03913 0.0
C1120 C 0.12757 0.77309 0.18214 0.0
C1121 C 0.13347 0.73821 0.22 0.0
C1122 C 0.12735 0.77316 0.09026 0.0
C1123 C 0.13363 0.73819 0.0335 0.0
C1124 C 0.13997 0.70342 0.07131 0.0
C1125 C 0.13963 0.70347 0.16351 0.0
C1126 C 0.12031 0.81075 0.05395 0.0
C1127 C 0.14726 0.66635 0.01433 0.0
C1128 C 0.12365 0.71795 0.78906 0.0
C1129 C 0.13359 0.74151 0.74925 0.0
C1130 C 0.12353 0.71665 0.88085 0.0
C1131 C 0.13374 0.73859 0.9351 0.0
C1132 C 0.1438 0.76229 0.89539 0.0
C1133 C 0.14345 0.76399 0.80391 0.0
C1134 C 0.11234 0.69219 0.92004 0.0
C1135 C 0.15504 0.78568 0.94946 0.0
H1136 H 0.1232 0.80088 0.22454 0.0
H1137 H 0.14431 0.67638 0.19146 0.0
H1138 H 0.127 0.82577 1.00837 0.0
H1139 H 0.11137 0.79744 0.01577 0.0
H1140 H 0.11698 0.83746 0.10661 0.0
H1141 H 0.15209 0.64262 0.05361 0.0
H1142 H 0.14015 0.64767 0.96721 0.0
H1143 H 0.15511 0.68056 0.97507 0.0
H1144 H 0.11586 0.70062 0.74854 0.0
H1145 H 0.15085 0.78361 0.77552 0.0
H1146 H 0.1069 0.7154 0.97045 0.0
H1147 H 0.11656 0.66521 0.95366 0.0
H1148 H 0.10503 0.67733 0.86963 0.0
H1149 H 0.15107 0.80622 1.00947 0.0
H1150 H 0.16098 0.80757 0.91183 0.0
H1151 H 0.16187 0.76039 0.97111 0.0
C1152 C 0.87186 0.7702 0.78149 0.0
C1153 C 0.8811 0.74423 0.72728 0.0
C1154 C 0.871 0.76833 0.87274 0.0
C1155 C 0.88008 0.74127 0.91303 0.0
C1156 C 0.88982 0.71624 0.85934 0.0
C1157 C 0.89007 0.71747 0.76754 0.0
C1158 C 0.86013 0.79476 0.92534 0.0
C1159 C 0.90031 0.68924 0.89914 0.0
C1160 C 0.88532 0.7743 0.16139 0.0
C1161 C 0.87899 0.73961 0.19762 0.0
C1162 C 0.88608 0.77453 0.06966 0.0
C1163 C 0.87967 0.74051 1.01134 0.0
C1164 C 0.87265 0.70654 0.04755 0.0
C1165 C 0.87268 0.70586 0.13962 0.0
C1166 C 0.89389 0.8111 0.03514 0.0
C1167 C 0.86494 0.67116 0.98898 0.0
H1168 H 0.8653 0.79246 0.7527 0.0
H1169 H 0.89738 0.69741 0.72734 0.0
H1170 H 0.85181 0.77187 0.93675 0.0
H1171 H 0.8638 0.81035 0.99062 0.0
H1172 H 0.85604 0.82147 0.89034 0.0
H1173 H 0.90638 0.66835 0.84829 0.0
H1174 H 0.90717 0.71228 0.94034 0.0
H1175 H 0.89561 0.66734 0.94262 0.0
H1176 H 0.88983 0.80142 0.20497 0.0
H1177 H 0.86768 0.67892 0.16617 0.0
H1178 H 0.88767 0.82759 0.98924 0.0
H1179 H 0.90274 0.79639 0.9977 0.0
H1180 H 0.89743 0.83697 0.08871 0.0
H1181 H 0.85768 0.68712 0.94819 0.0
H1182 H 0.85935 0.6486 0.02719 0.0
H1183 H 0.87192 0.65089 0.94331 0.0
C1184 C 0.63892 0.71401 0.36688 0.0
C1185 C 0.63247 0.74789 0.3288 0.0
C1186 C 0.63859 0.71305 0.45866 0.0
C1187 C 0.63136 0.74614 0.51451 0.0
C1188 C 0.62487 0.78049 0.47642 0.0
C1189 C 0.62576 0.78144 0.38485 0.0
C1190 C 0.64616 0.67689 0.49613 0.0
C1191 C 0.61696 0.81635 0.53252 0.0
C1192 C 0.62176 0.71993 0.7448 0.0
C1193 C 0.63114 0.74519 0.79934 0.0
C1194 C 0.6215 0.72064 0.65278 0.0
C1195 C 0.63113 0.74605 0.61294 0.0
C1196 C 0.6406 0.77158 0.66769 0.0
C1197 C 0.64028 0.77145 0.75947 0.0
C1198 C 0.61071 0.69496 0.59842 0.0
C1199 C 0.65135 0.79839 0.62963 0.0
H1200 H 0.64427 0.68805 0.32482 0.0
H1201 H 0.62119 0.8087 0.35708 0.0
H1202 H 0.6536 0.69213 0.54518 0.0
H1203 H 0.63912 0.65699 0.53095 0.0
H1204 H 0.6515 0.65405 0.44453 0.0
H1205 H 0.61315 0.84217 0.49416 0.0
H1206 H 0.60829 0.80099 0.56242 0.0
H1207 H 0.62325 0.83293 0.58717 0.0
H1208 H 0.61455 0.69957 0.77395 0.0
H1209 H 0.64723 0.79236 0.80012 0.0
H1210 H 0.6152 0.6726 0.54253 0.0
H1211 H 0.60407 0.71874 0.57026 0.0
H1212 H 0.60445 0.67471 0.63782 0.0
H1213 H 0.65945 0.77547 0.60167 0.0
H1214 H 0.65583 0.82389 0.68036 0.0
H1215 H 0.6474 0.81551 0.5758 0.0
C1216 C 0.3707 0.77335 0.76296 0.0
C1217 C 0.38041 0.74981 0.80428 0.0
C1218 C 0.37062 0.77365 0.67119 0.0
C1219 C 0.3808 0.75091 0.61796 0.0
C1220 C 0.39089 0.72798 0.65916 0.0
C1221 C 0.39045 0.72709 0.75112 0.0
C1222 C 0.35939 0.79771 0.63132 0.0
C1223 C 0.40231 0.70498 0.60624 0.0
C1224 C 0.374 0.71793 0.37105 0.0
C1225 C 0.37976 0.75339 0.33406 0.0
C1226 C 0.3743 0.71663 0.46268 0.0
C1227 C 0.38078 0.75113 0.51958 0.0
C1228 C 0.38664 0.78695 0.48254 0.0
C1229 C 0.3858 0.78806 0.39099 0.0
C1230 C 0.36749 0.67859 0.49883 0.0
C1231 C 0.39376 0.82429 0.53982 0.0
H1232 H 0.36312 0.79201 0.80239 0.0
H1233 H 0.39805 0.70864 0.7813 0.0
H1234 H 0.36325 0.81752 0.58123 0.0
H1235 H 0.35225 0.77276 0.59792 0.0
H1236 H 0.3538 0.82044 0.68174 0.0
H1237 H 0.40917 0.68755 0.64711 0.0
H1238 H 0.39836 0.68042 0.55185 0.0
H1239 H 0.40818 0.72996 0.57591 0.0
H1240 H 0.36919 0.69103 0.32822 0.0
H1241 H 0.38982 0.81643 0.36401 0.0
H1242 H 0.35958 0.69184 0.54648 0.0
H1243 H 0.37485 0.66054 0.53496 0.0
H1244 H 0.36281 0.65447 0.44634 0.0
H1245 H 0.38698 0.83989 0.59274 0.0
H1246 H 0.39736 0.85057 0.50185 0.0
H1247 H 0.4025 0.81064 0.57207 0.0
C1248 C 0.6377 0.2762 0.32213 0.0
C1249 C 0.63079 0.24311 0.26635 0.0
C1250 C 0.6386 0.27527 0.41371 0.0
C1251 C 0.63189 0.24146 0.45222 0.0
C1252 C 0.62441 0.20896 0.39669 0.0
C1253 C 0.62409 0.20984 0.30484 0.0
C1254 C 0.64675 0.31059 0.46938 0.0
C1255 C 0.61652 0.17363 0.43456 0.0
C1256 C 0.64134 0.21487 0.68269 0.0
C1257 C 0.63213 0.24089 0.73741 0.0
C1258 C 0.64157 0.21535 0.59048 0.0
C1259 C 0.63213 0.24149 0.55077 0.0
C1260 C 0.62293 0.26811 0.60582 0.0
C1261 C 0.62327 0.26814 0.69766 0.0
C1262 C 0.65207 0.18839 0.53555 0.0
C1263 C 0.6124 0.29591 0.5681 0.0
H1264 H 0.64239 0.30318 0.29417 0.0
H1265 H 0.61854 0.18434 0.26306 0.0
H1266 H 0.64067 0.3272 0.52514 0.0
H1267 H 0.65546 0.2947 0.4977 0.0
H1268 H 0.65053 0.33649 0.43107 0.0
H1269 H 0.61106 0.15107 0.38313 0.0
H1270 H 0.62333 0.1533 0.46995 0.0
H1271 H 0.60913 0.1897 0.48322 0.0
H1272 H 0.64846 0.19421 0.71187 0.0
H1273 H 0.61654 0.28993 0.73845 0.0
H1274 H 0.65844 0.211 0.50222 0.0
H1275 H 0.64723 0.16463 0.48339 0.0
H1276 H 0.65863 0.16941 0.57556 0.0
H1277 H 0.61641 0.31205 0.51306 0.0
H1278 H 0.60832 0.32233 0.61866 0.0
H1279 H 0.604 0.27388 0.54195 0.0
C1280 C 0.38988 0.27389 0.26588 0.0
C1281 C 0.37843 0.25898 0.21652 0.0
C1282 C 0.39046 0.27372 0.35824 0.0
C1283 C 0.37922 0.25915 0.40379 0.0
C1284 C 0.36758 0.245 0.35463 0.0
C1285 C 0.3674 0.24462 0.26256 0.0
C1286 C 0.40325 0.28805 0.40664 0.0
C1287 C 0.35525 0.22973 0.39938 0.0
C1288 C 0.38226 0.21688 0.62793 0.0
C1289 C 0.37814 0.25393 0.68751 0.0
C1290 C 0.38317 0.21865 0.53653 0.0
C1291 C 0.37953 0.25814 0.50229 0.0
C1292 C 0.37525 0.2956 0.5622 0.0
C1293 C 0.37465 0.29308 0.65352 0.0
C1294 C 0.38793 0.17795 0.47634 0.0
C1295 C 0.3711 0.33827 0.52956 0.0
H1296 H 0.39851 0.28529 0.23231 0.0
H1297 H 0.35853 0.23259 0.22666 0.0
H1298 H 0.40109 0.3119 0.46673 0.0
H1299 H 0.40814 0.25844 0.42793 0.0
H1300 H 0.41045 0.30369 0.36487 0.0
H1301 H 0.34669 0.22248 0.35342 0.0
H1302 H 0.35761 0.19914 0.42847 0.0
H1303 H 0.35208 0.25565 0.45391 0.0
H1304 H 0.38456 0.186 0.65268 0.0
H1305 H 0.37141 0.32195 0.69856 0.0
H1306 H 0.39674 0.18665 0.43786 0.0
H1307 H 0.37992 0.16597 0.42865 0.0
H1308 H 0.39079 0.15029 0.51303 0.0
H1309 H 0.37938 0.35059 0.49103 0.0
H1310 H 0.36837 0.36484 0.58419 0.0
H1311 H 0.36235 0.33185 0.48488 0.0
C1312 C 0.03486 0.20349 0.29304 0.0
C1313 C 0.04268 0.2322 0.35231 0.0
C1314 C 0.02075 0.20483 0.29656 0.0
C1315 C 0.01423 0.23613 0.36005 0.0
C1316 C 0.02208 0.26488 0.42078 0.0
C1317 C 0.0362 0.26233 0.41662 0.0
C1318 C 0.01281 0.17305 0.2315 0.0
C1319 C 0.01557 0.29913 0.48873 0.0
C1320 C 0.97869 0.2692 0.30335 0.0
C1321 C 0.97079 0.24398 0.35381 0.0
C1322 C 0.9928 0.26767 0.30631 0.0
C1323 C 0.99924 0.23984 0.36035 0.0
C1324 C 0.99132 0.21464 0.41224 0.0
C1325 C 0.9772 0.21722 0.40876 0.0
C1326 C 1.00082 0.29559 0.25086 0.0
C1327 C 0.99775 0.18418 0.46996 0.0
H1328 H 0.03981 0.17975 0.24389 0.0
H1329 H 0.04219 0.28482 0.46218 0.0
H1330 H 1.00563 0.15387 0.26684 0.0
H1331 H 0.00683 0.19209 0.1885 0.0
H1332 H 0.01936 0.14919 0.18931 0.0
H1333 H 0.00973 0.32308 0.4554 0.0
H1334 H 0.00842 0.28271 0.52929 0.0
H1335 H 0.02305 0.31802 0.53297 0.0
H1336 H 0.97382 0.29044 0.26169 0.0
H1337 H 0.97117 0.19737 0.44742 0.0
H1338 H 0.00686 0.2736 0.20182 0.0
H1339 H 0.00794 0.31725 0.2929 0.0
H1340 H 0.99432 0.31694 0.21535 0.0
H1341 H 1.00363 0.15795 0.42876 0.0
H1342 H 0.99022 0.16781 0.50822 0.0
H1343 H 1.00486 0.20322 0.51654 0.0
C1344 C 0.97727 0.78778 0.62014 0.0
C1345 C 0.97183 0.747 0.63615 0.0
C1346 C 0.99125 0.79436 0.61857 0.0
C1347 C 1.00005 0.75906 0.63172 0.0
C1348 C 0.99458 0.71719 0.64401 0.0
C1349 C 0.98056 0.71182 0.64701 0.0
C1350 C 0.99661 0.83974 0.60664 0.0
C1351 C 1.00355 0.67838 0.65636 0.0
C1352 C 0.03706 0.77383 0.57543 0.0
C1353 C 0.04247 0.78992 0.65833 0.0
C1354 C 0.02337 0.76219 0.5658 0.0
C1355 C 0.01484 0.76725 0.6406 0.0
C1356 C 0.02037 0.78187 0.72464 0.0
C1357 C 0.03408 0.79243 0.7325 0.0
C1358 C 0.01795 0.74579 0.47527 0.0
C1359 C 0.0117 0.78792 0.80626 0.0
H1360 H 0.97057 0.81513 0.61215 0.0
H1361 H 0.9764 0.68003 0.65822 0.0
H1362 H 1.00192 0.85459 0.66731 0.0
H1363 H 1.00401 0.83672 0.55209 0.0
H1364 H 0.98851 0.86294 0.59243 0.0
H1365 H 0.99781 0.6469 0.65587 0.0
H1366 H 0.01126 0.67336 0.60367 0.0
H1367 H 0.00893 0.68558 0.72002 0.0
H1368 H 0.0434 0.77187 0.51761 0.0
H1369 H 0.03818 0.80368 0.79719 0.0
H1370 H 0.011 0.771 0.45469 0.0
H1371 H 0.01211 0.71464 0.47613 0.0
H1372 H 0.02606 0.73937 0.4254 0.0
H1373 H 1.00378 0.81305 0.79994 0.0
H1374 H 0.01757 0.79902 0.86691 0.0
H1375 H 0.00658 0.7562 0.81391 0.0
C1376 C 0.53492 0.72652 0.9262 0.0
C1377 C 0.54174 0.74981 0.86675 0.0
C1378 C 0.52079 0.72668 0.93098 0.0
C1379 C 0.51324 0.75094 0.87542 0.0
C1380 C 0.52008 0.77526 0.81666 0.0
C1381 C 0.53419 0.77431 0.8129 0.0
C1382 C 0.51392 0.70011 0.99422 0.0
C1383 C 0.51248 0.80194 0.75684 0.0
C1384 C 0.47708 0.71834 0.81505 0.0
C1385 C 0.4697 0.75077 0.86953 0.0
C1386 C 0.4912 0.71741 0.81788 0.0
C1387 C 0.4982 0.74984 0.8763 0.0
C1388 C 0.49081 0.78215 0.93273 0.0
C1389 C 0.47667 0.78214 0.92888 0.0
C1390 C 0.49863 0.68208 0.75718 0.0
C1391 C 0.49785 0.81747 0.99564 0.0
H1392 H 0.54064 0.7072 0.96755 0.0
H1393 H 0.53935 0.79301 0.76779 0.0
H1394 H 0.50707 0.7219 0.03823 0.0
H1395 H 0.50769 0.67351 0.95705 0.0
H1396 H 0.5212 0.68441 0.0353 0.0
H1397 H 0.51927 0.82031 0.71717 0.0
H1398 H 0.50604 0.77942 0.71134 0.0
H1399 H 0.50576 0.8263 0.79623 0.0
H1400 H 0.47179 0.69355 0.76994 0.0
H1401 H 0.47108 0.80757 0.97067 0.0
H1402 H 0.50548 0.66334 0.79569 0.0
H1403 H 0.50493 0.69803 0.71076 0.0
H1404 H 0.49173 0.65806 0.71848 0.0
H1405 H 0.50483 0.80173 0.03839 0.0
H1406 H 0.49068 0.83891 0.03801 0.0
H1407 H 0.50396 0.83893 0.95807 0.0
C1408 C 0.47334 0.27302 0.06651 0.0
C1409 C 0.46837 0.24872 0.13108 0.0
C1410 C 0.4872 0.27979 0.05663 0.0
C1411 C 0.49641 0.26237 0.11333 0.0
C1412 C 0.49152 0.2372 0.17764 0.0
C1413 C 0.47761 0.23049 0.1854 0.0
C1414 C 0.49197 0.30662 0.98684 0.0
C1415 C 0.50096 0.21822 0.23973 0.0
C1416 C 0.53348 0.25678 0.0476 0.0
C1417 C 0.53839 0.29682 0.09357 0.0
C1418 C 0.51989 0.24468 0.0542 0.0
C1419 C 0.51105 0.27303 0.10894 0.0
C1420 C 0.51611 0.31268 0.15778 0.0
C1421 C 0.52966 0.32414 0.14919 0.0
C1422 C 0.51488 0.20233 1.00049 0.0
C1423 C 0.50714 0.34358 0.21791 0.0
H1424 H 0.46637 0.28785 0.02485 0.0
H1425 H 0.47397 0.21092 0.23438 0.0
H1426 H 0.49665 0.33808 0.01846 0.0
H1427 H 0.49976 0.28784 0.94515 0.0
H1428 H 0.48366 0.31507 0.94386 0.0
H1429 H 0.49564 0.19779 0.28357 0.0
H1430 H 0.50872 0.19726 0.20202 0.0
H1431 H 0.50627 0.24577 0.28115 0.0
H1432 H 0.54017 0.23572 1.00408 0.0
H1433 H 0.53344 0.35487 0.18569 0.0
H1434 H 0.50738 0.21058 0.95188 0.0
H1435 H 0.50977 0.18109 0.04356 0.0
H1436 H 0.52313 0.1828 0.96463 0.0
H1437 H 0.49913 0.35706 0.17888 0.0
H1438 H 0.51276 0.37201 0.25448 0.0
H1439 H 0.50213 0.32498 0.26611 0.0
loop_
_geom_bond_atom_site_label_1
_geom_bond_atom_site_label_2
_geom_bond_distance
_geom_bond_site_symmetry_2
_ccdc_geom_bond_type
Eu0 N29 2.600 . S
Eu0 N35 2.562 . S
Eu0 O44 2.462 . S
Eu0 O45 2.373 . S
Eu0 O47 2.432 . S
Eu0 O48 2.291 . S
Eu0 O52 2.335 . S
Eu0 O55 2.372 . S
Eu0 C64 2.787 . S
C1 N2 1.365 . S
C1 C4 1.405 . S
C1 C8 1.448 . S
N2 C1 1.365 . S
N2 C5 1.319 . S
N2 Eu11 2.600 . S
C3 C5 1.397 . S
C3 C6 1.367 . S
C3 H23 0.931 . S
C4 C1 1.405 . S
C4 C6 1.403 . S
C4 C10 1.439 . S
C5 N2 1.319 . S
C5 C3 1.397 . S
C5 H16 0.930 . S
C6 C3 1.367 . S
C6 C4 1.403 . S
C6 H27 0.929 . S
C7 C8 1.430 . S
C7 C9 1.387 . S
C7 C13 1.404 . S
C8 C1 1.448 . S
C8 C7 1.430 . S
C8 N12 1.351 . S
C9 C7 1.387 . S
C9 C10 1.374 . S
C9 H24 0.931 . S
C10 C4 1.439 . S
C10 C9 1.374 . S
C10 H25 0.931 . S
Eu11 N2 2.600 . S
Eu11 N12 2.562 . S
Eu11 O46 2.335 . S
Eu11 O49 2.372 . S
Eu11 O50 2.462 . S
Eu11 O51 2.373 . S
Eu11 O53 2.432 . S
Eu11 O54 2.291 . S
Eu11 C75 2.787 . S
N12 C8 1.351 . S
N12 Eu11 2.562 . S
N12 C14 1.325 . S
C13 C7 1.404 . S
C13 C15 1.366 . S
C13 H21 0.930 . S
C14 N12 1.325 . S
C14 C15 1.416 . S
C14 H20 0.929 . S
C15 C13 1.366 . S
C15 C14 1.416 . S
C15 H17 0.930 . S
H16 C5 0.930 . S
H17 C15 0.930 . S
H18 C33 0.930 . S
H19 C40 0.930 . S
H20 C14 0.929 . S
H21 C13 0.930 . S
H22 C36 0.929 . S
H23 C3 0.931 . S
H24 C9 0.931 . S
H25 C10 0.931 . S
H26 C31 0.931 . S
H27 C6 0.929 . S
H28 C39 0.930 . S
N29 Eu0 2.600 . S
N29 C30 1.365 . S
N29 C33 1.319 . S
C30 N29 1.365 . S
C30 C32 1.405 . S
C30 C38 1.448 . S
C31 H26 0.931 . S
C31 C33 1.397 . S
C31 C34 1.367 . S
C32 C30 1.405 . S
C32 C34 1.403 . S
C32 C65 1.439 . S
C33 H18 0.930 . S
C33 N29 1.319 . S
C33 C31 1.397 . S
C34 C31 1.367 . S
C34 C32 1.403 . S
C34 H41 0.929 . S
N35 Eu0 2.562 . S
N35 C36 1.325 . S
N35 C38 1.351 . S
C36 H22 0.929 . S
C36 N35 1.325 . S
C36 C40 1.416 . S
C37 C38 1.430 . S
C37 C39 1.404 . S
C37 C66 1.387 . S
C38 C30 1.448 . S
C38 N35 1.351 . S
C38 C37 1.430 . S
C39 H28 0.930 . S
C39 C37 1.404 . S
C39 C40 1.366 . S
C40 H19 0.930 . S
C40 C36 1.416 . S
C40 C39 1.366 . S
H41 C34 0.929 . S
H42 C65 0.931 . S
H43 C66 0.931 . S
O44 Eu0 2.462 . S
O44 C64 1.252 . S
O45 Eu0 2.373 . S
O45 C56 1.249 . S
O46 Eu11 2.335 . S
O46 C56 1.264 . S
O47 Eu0 2.432 . S
O47 C64 1.268 . S
O48 Eu0 2.291 . S
O48 C63 1.255 . S
O49 Eu11 2.372 . S
O49 C63 1.257 . S
O50 Eu11 2.462 . S
O50 C75 1.252 . S
O51 Eu11 2.373 . S
O51 C67 1.249 . S
O52 Eu0 2.335 . S
O52 C67 1.264 . S
O53 Eu11 2.432 . S
O53 C75 1.268 . S
O54 Eu11 2.291 . S
O54 C74 1.255 . S
O55 Eu0 2.372 . S
O55 C74 1.257 . S
C56 O45 1.249 . S
C56 O46 1.264 . S
C57 C60 1.382 . S
C57 C62 1.390 . S
C57 C64 1.506 . S
C58 C59 1.398 . S
C58 C62 1.392 . S
C59 C58 1.398 . S
C59 C61 1.372 . S
C59 H76 0.931 . S
C60 C57 1.382 . S
C60 C61 1.390 . S
C60 H77 0.931 . S
C61 C59 1.372 . S
C61 C60 1.390 . S
C61 H78 0.929 . S
C62 C57 1.390 . S
C62 C58 1.392 . S
C62 H79 0.930 . S
C63 O48 1.255 . S
C63 O49 1.257 . S
C64 Eu0 2.787 . S
C64 O44 1.252 . S
C64 O47 1.268 . S
C64 C57 1.506 . S
C65 C32 1.439 . S
C65 H42 0.931 . S
C65 C66 1.374 . S
C66 C37 1.387 . S
C66 H43 0.931 . S
C66 C65 1.374 . S
C67 O51 1.249 . S
C67 O52 1.264 . S
C68 C71 1.382 . S
C68 C72 1.390 . S
C68 C75 1.506 . S
C69 C70 1.398 . S
C69 C72 1.392 . S
C70 C69 1.398 . S
C70 C73 1.372 . S
C70 H80 0.931 . S
C71 C68 1.382 . S
C71 C73 1.390 . S
C71 H81 0.931 . S
C72 C68 1.390 . S
C72 C69 1.392 . S
C72 H82 0.930 . S
C73 C70 1.372 . S
C73 C71 1.390 . S
C73 H83 0.929 . S
C74 O54 1.255 . S
C74 O55 1.257 . S
C75 Eu11 2.787 . S
C75 O50 1.252 . S
C75 O53 1.268 . S
C75 C68 1.506 . S
H76 C59 0.931 . S
H77 C60 0.931 . S
H78 C61 0.929 . S
H79 C62 0.930 . S
H80 C70 0.931 . S
H81 C71 0.931 . S
H82 C72 0.930 . S
H83 C73 0.929 . S
Eu84 N113 2.600 . S
Eu84 N119 2.562 . S
Eu84 O128 2.462 . S
Eu84 O129 2.373 . S
Eu84 O131 2.432 . S
Eu84 O132 2.291 . S
Eu84 O136 2.335 . S
Eu84 O139 2.372 . S
Eu84 C148 2.787 . S
C85 N86 1.365 . S
C85 C88 1.405 . S
C85 C92 1.448 . S
N86 C85 1.365 . S
N86 C89 1.319 . S
N86 Eu95 2.600 . S
C87 C89 1.397 . S
C87 C90 1.367 . S
C87 H107 0.931 . S
C88 C85 1.405 . S
C88 C90 1.403 . S
C88 C94 1.439 . S
C89 N86 1.319 . S
C89 C87 1.397 . S
C89 H100 0.930 . S
C90 C87 1.367 . S
C90 C88 1.403 . S
C90 H111 0.929 . S
C91 C92 1.430 . S
C91 C93 1.387 . S
C91 C97 1.404 . S
C92 C85 1.448 . S
C92 C91 1.430 . S
C92 N96 1.351 . S
C93 C91 1.387 . S
C93 C94 1.374 . S
C93 H108 0.931 . S
C94 C88 1.439 . S
C94 C93 1.374 . S
C94 H109 0.931 . S
Eu95 N86 2.600 . S
Eu95 N96 2.562 . S
Eu95 O130 2.335 . S
Eu95 O133 2.372 . S
Eu95 O134 2.462 . S
Eu95 O135 2.373 . S
Eu95 O137 2.432 . S
Eu95 O138 2.291 . S
Eu95 C159 2.787 . S
N96 C92 1.351 . S
N96 Eu95 2.562 . S
N96 C98 1.325 . S
C97 C91 1.404 . S
C97 C99 1.366 . S
C97 H105 0.930 . S
C98 N96 1.325 . S
C98 C99 1.416 . S
C98 H104 0.929 . S
C99 C97 1.366 . S
C99 C98 1.416 . S
C99 H101 0.930 . S
H100 C89 0.930 . S
H101 C99 0.930 . S
H102 C117 0.930 . S
H103 C124 0.930 . S
H104 C98 0.929 . S
H105 C97 0.930 . S
H106 C120 0.929 . S
H107 C87 0.931 . S
H108 C93 0.931 . S
H109 C94 0.931 . S
H110 C115 0.931 . S
H111 C90 0.929 . S
H112 C123 0.930 . S
N113 Eu84 2.600 . S
N113 C114 1.365 . S
N113 C117 1.319 . S
C114 N113 1.365 . S
C114 C116 1.405 . S
C114 C122 1.448 . S
C115 H110 0.931 . S
C115 C117 1.397 . S
C115 C118 1.367 . S
C116 C114 1.405 . S
C116 C118 1.403 . S
C116 C149 1.439 . S
C117 H102 0.930 . S
C117 N113 1.319 . S
C117 C115 1.397 . S
C118 C115 1.367 . S
C118 C116 1.403 . S
C118 H125 0.929 . S
N119 Eu84 2.562 . S
N119 C120 1.325 . S
N119 C122 1.351 . S
C120 H106 0.929 . S
C120 N119 1.325 . S
C120 C124 1.416 . S
C121 C122 1.430 . S
C121 C123 1.404 . S
C121 C150 1.387 . S
C122 C114 1.448 . S
C122 N119 1.351 . S
C122 C121 1.430 . S
C123 H112 0.930 . S
C123 C121 1.404 . S
C123 C124 1.366 . S
C124 H103 0.930 . S
C124 C120 1.416 . S
C124 C123 1.366 . S
H125 C118 0.929 . S
H126 C149 0.931 . S
H127 C150 0.931 . S
O128 Eu84 2.462 . S
O128 C148 1.252 . S
O129 Eu84 2.373 . S
O129 C140 1.249 . S
O130 Eu95 2.335 . S
O130 C140 1.264 . S
O131 Eu84 2.432 . S
O131 C148 1.268 . S
O132 Eu84 2.291 . S
O132 C147 1.255 . S
O133 Eu95 2.372 . S
O133 C147 1.257 . S
O134 Eu95 2.462 . S
O134 C159 1.252 . S
O135 Eu95 2.373 . S
O135 C151 1.249 . S
O136 Eu84 2.335 . S
O136 C151 1.264 . S
O137 Eu95 2.432 . S
O137 C159 1.268 . S
O138 Eu95 2.291 . S
O138 C158 1.255 . S
O139 Eu84 2.372 . S
O139 C158 1.257 . S
C140 O129 1.249 . S
C140 O130 1.264 . S
C141 C144 1.382 . S
C141 C146 1.390 . S
C141 C148 1.506 . S
C142 C143 1.398 . S
C142 C146 1.392 . S
C143 C142 1.398 . S
C143 C145 1.372 . S
C143 H160 0.931 . S
C144 C141 1.382 . S
C144 C145 1.390 . S
C144 H161 0.931 . S
C145 C143 1.372 . S
C145 C144 1.390 . S
C145 H162 0.929 . S
C146 C141 1.390 . S
C146 C142 1.392 . S
C146 H163 0.930 . S
C147 O132 1.255 . S
C147 O133 1.257 . S
C148 Eu84 2.787 . S
C148 O128 1.252 . S
C148 O131 1.268 . S
C148 C141 1.506 . S
C149 C116 1.439 . S
C149 H126 0.931 . S
C149 C150 1.374 . S
C150 C121 1.387 . S
C150 H127 0.931 . S
C150 C149 1.374 . S
C151 O135 1.249 . S
C151 O136 1.264 . S
C152 C155 1.382 . S
C152 C156 1.390 . S
C152 C159 1.506 . S
C153 C154 1.398 . S
C153 C156 1.392 . S
C154 C153 1.398 . S
C154 C157 1.372 . S
C154 H164 0.931 . S
C155 C152 1.382 . S
C155 C157 1.390 . S
C155 H165 0.931 . S
C156 C152 1.390 . S
C156 C153 1.392 . S
C156 H166 0.930 . S
C157 C154 1.372 . S
C157 C155 1.390 . S
C157 H167 0.929 . S
C158 O138 1.255 . S
C158 O139 1.257 . S
C159 Eu95 2.787 . S
C159 O134 1.252 . S
C159 O137 1.268 . S
C159 C152 1.506 . S
H160 C143 0.931 . S
H161 C144 0.931 . S
H162 C145 0.929 . S
H163 C146 0.930 . S
H164 C154 0.931 . S
H165 C155 0.931 . S
H166 C156 0.930 . S
H167 C157 0.929 . S
Eu168 N197 2.600 . S
Eu168 N203 2.562 . S
Eu168 O212 2.462 . S
Eu168 O213 2.373 . S
Eu168 O215 2.432 . S
Eu168 O216 2.291 . S
Eu168 O220 2.335 . S
Eu168 O223 2.372 . S
Eu168 C232 2.787 . S
C169 N170 1.365 . S
C169 C172 1.405 . S
C169 C176 1.448 . S
N170 C169 1.365 . S
N170 C173 1.319 . S
N170 Eu179 2.600 . S
C171 C173 1.397 . S
C171 C174 1.367 . S
C171 H191 0.931 . S
C172 C169 1.405 . S
C172 C174 1.403 . S
C172 C178 1.439 . S
C173 N170 1.319 . S
C173 C171 1.397 . S
C173 H184 0.930 . S
C174 C171 1.367 . S
C174 C172 1.403 . S
C174 H195 0.929 . S
C175 C176 1.430 . S
C175 C177 1.387 . S
C175 C181 1.404 . S
C176 C169 1.448 . S
C176 C175 1.430 . S
C176 N180 1.351 . S
C177 C175 1.387 . S
C177 C178 1.374 . S
C177 H192 0.931 . S
C178 C172 1.439 . S
C178 C177 1.374 . S
C178 H193 0.931 . S
Eu179 N170 2.600 . S
Eu179 N180 2.562 . S
Eu179 O214 2.335 . S
Eu179 O217 2.372 . S
Eu179 O218 2.462 . S
Eu179 O219 2.373 . S
Eu179 O221 2.432 . S
Eu179 O222 2.291 . S
Eu179 C243 2.787 . S
N180 C176 1.351 . S
N180 Eu179 2.562 . S
N180 C182 1.325 . S
C181 C175 1.404 . S
C181 C183 1.366 . S
C181 H189 0.930 . S
C182 N180 1.325 . S
C182 C183 1.416 . S
C182 H188 0.929 . S
C183 C181 1.366 . S
C183 C182 1.416 . S
C183 H185 0.930 . S
H184 C173 0.930 . S
H185 C183 0.930 . S
H186 C201 0.930 . S
H187 C208 0.930 . S
H188 C182 0.929 . S
H189 C181 0.930 . S
H190 C204 0.929 . S
H191 C171 0.931 . S
H192 C177 0.931 . S
H193 C178 0.931 . S
H194 C199 0.931 . S
H195 C174 0.929 . S
H196 C207 0.930 . S
N197 Eu168 2.600 . S
N197 C198 1.365 . S
N197 C201 1.319 . S
C198 N197 1.365 . S
C198 C200 1.405 . S
C198 C206 1.448 . S
C199 H194 0.931 . S
C199 C201 1.397 . S
C199 C202 1.367 . S
C200 C198 1.405 . S
C200 C202 1.403 . S
C200 C233 1.439 . S
C201 H186 0.930 . S
C201 N197 1.319 . S
C201 C199 1.397 . S
C202 C199 1.367 . S
C202 C200 1.403 . S
C202 H209 0.929 . S
N203 Eu168 2.562 . S
N203 C204 1.325 . S
N203 C206 1.351 . S
C204 H190 0.929 . S
C204 N203 1.325 . S
C204 C208 1.416 . S
C205 C206 1.430 . S
C205 C207 1.404 . S
C205 C234 1.387 . S
C206 C198 1.448 . S
C206 N203 1.351 . S
C206 C205 1.430 . S
C207 H196 0.930 . S
C207 C205 1.404 . S
C207 C208 1.366 . S
C208 H187 0.930 . S
C208 C204 1.416 . S
C208 C207 1.366 . S
H209 C202 0.929 . S
H210 C233 0.931 . S
H211 C234 0.931 . S
O212 Eu168 2.462 . S
O212 C232 1.252 . S
O213 Eu168 2.373 . S
O213 C224 1.249 . S
O214 Eu179 2.335 . S
O214 C224 1.264 . S
O215 Eu168 2.432 . S
O215 C232 1.268 . S
O216 Eu168 2.291 . S
O216 C231 1.255 . S
O217 Eu179 2.372 . S
O217 C231 1.257 . S
O218 Eu179 2.462 . S
O218 C243 1.252 . S
O219 Eu179 2.373 . S
O219 C235 1.249 . S
O220 Eu168 2.335 . S
O220 C235 1.264 . S
O221 Eu179 2.432 . S
O221 C243 1.268 . S
O222 Eu179 2.291 . S
O222 C242 1.255 . S
O223 Eu168 2.372 . S
O223 C242 1.257 . S
C224 O213 1.249 . S
C224 O214 1.264 . S
C225 C228 1.382 . S
C225 C230 1.390 . S
C225 C232 1.506 . S
C226 C227 1.398 . S
C226 C230 1.392 . S
C227 C226 1.398 . S
C227 C229 1.372 . S
C227 H244 0.931 . S
C228 C225 1.382 . S
C228 C229 1.390 . S
C228 H245 0.931 . S
C229 C227 1.372 . S
C229 C228 1.390 . S
C229 H246 0.929 . S
C230 C225 1.390 . S
C230 C226 1.392 . S
C230 H247 0.930 . S
C231 O216 1.255 . S
C231 O217 1.257 . S
C232 Eu168 2.787 . S
C232 O212 1.252 . S
C232 O215 1.268 . S
C232 C225 1.506 . S
C233 C200 1.439 . S
C233 H210 0.931 . S
C233 C234 1.374 . S
C234 C205 1.387 . S
C234 H211 0.931 . S
C234 C233 1.374 . S
C235 O219 1.249 . S
C235 O220 1.264 . S
C236 C239 1.382 . S
C236 C240 1.390 . S
C236 C243 1.506 . S
C237 C238 1.398 . S
C237 C240 1.392 . S
C238 C237 1.398 . S
C238 C241 1.372 . S
C238 H248 0.931 . S
C239 C236 1.382 . S
C239 C241 1.390 . S
C239 H249 0.931 . S
C240 C236 1.390 . S
C240 C237 1.392 . S
C240 H250 0.930 . S
C241 C238 1.372 . S
C241 C239 1.390 . S
C241 H251 0.929 . S
C242 O222 1.255 . S
C242 O223 1.257 . S
C243 Eu179 2.787 . S
C243 O218 1.252 . S
C243 O221 1.268 . S
C243 C236 1.506 . S
H244 C227 0.931 . S
H245 C228 0.931 . S
H246 C229 0.929 . S
H247 C230 0.930 . S
H248 C238 0.931 . S
H249 C239 0.931 . S
H250 C240 0.930 . S
H251 C241 0.929 . S
Eu252 N281 2.600 . S
Eu252 N287 2.562 . S
Eu252 O296 2.462 . S
Eu252 O297 2.373 . S
Eu252 O299 2.432 . S
Eu252 O300 2.291 . S
Eu252 O304 2.335 . S
Eu252 O307 2.372 . S
Eu252 C316 2.787 . S
C253 N254 1.365 . S
C253 C256 1.405 . S
C253 C260 1.448 . S
N254 C253 1.365 . S
N254 C257 1.319 . S
N254 Eu263 2.600 . S
C255 C257 1.397 . S
C255 C258 1.367 . S
C255 H275 0.931 . S
C256 C253 1.405 . S
C256 C258 1.403 . S
C256 C262 1.439 . S
C257 N254 1.319 . S
C257 C255 1.397 . S
C257 H268 0.930 . S
C258 C255 1.367 . S
C258 C256 1.403 . S
C258 H279 0.929 . S
C259 C260 1.430 . S
C259 C261 1.387 . S
C259 C265 1.404 . S
C260 C253 1.448 . S
C260 C259 1.430 . S
C260 N264 1.351 . S
C261 C259 1.387 . S
C261 C262 1.374 . S
C261 H276 0.931 . S
C262 C256 1.439 . S
C262 C261 1.374 . S
C262 H277 0.931 . S
Eu263 N254 2.600 . S
Eu263 N264 2.562 . S
Eu263 O298 2.335 . S
Eu263 O301 2.372 . S
Eu263 O302 2.462 . S
Eu263 O303 2.373 . S
Eu263 O305 2.432 . S
Eu263 O306 2.291 . S
Eu263 C327 2.787 . S
N264 C260 1.351 . S
N264 Eu263 2.562 . S
N264 C266 1.325 . S
C265 C259 1.404 . S
C265 C267 1.366 . S
C265 H273 0.930 . S
C266 N264 1.325 . S
C266 C267 1.416 . S
C266 H272 0.929 . S
C267 C265 1.366 . S
C267 C266 1.416 . S
C267 H269 0.930 . S
H268 C257 0.930 . S
H269 C267 0.930 . S
H270 C285 0.930 . S
H271 C292 0.930 . S
H272 C266 0.929 . S
H273 C265 0.930 . S
H274 C288 0.929 . S
H275 C255 0.931 . S
H276 C261 0.931 . S
H277 C262 0.931 . S
H278 C283 0.931 . S
H279 C258 0.929 . S
H280 C291 0.930 . S
N281 Eu252 2.600 . S
N281 C282 1.365 . S
N281 C285 1.319 . S
C282 N281 1.365 . S
C282 C284 1.405 . S
C282 C290 1.448 . S
C283 H278 0.931 . S
C283 C285 1.397 . S
C283 C286 1.367 . S
C284 C282 1.405 . S
C284 C286 1.403 . S
C284 C317 1.439 . S
C285 H270 0.930 . S
C285 N281 1.319 . S
C285 C283 1.397 . S
C286 C283 1.367 . S
C286 C284 1.403 . S
C286 H293 0.929 . S
N287 Eu252 2.562 . S
N287 C288 1.325 . S
N287 C290 1.351 . S
C288 H274 0.929 . S
C288 N287 1.325 . S
C288 C292 1.416 . S
C289 C290 1.430 . S
C289 C291 1.404 . S
C289 C318 1.387 . S
C290 C282 1.448 . S
C290 N287 1.351 . S
C290 C289 1.430 . S
C291 H280 0.930 . S
C291 C289 1.404 . S
C291 C292 1.366 . S
C292 H271 0.930 . S
C292 C288 1.416 . S
C292 C291 1.366 . S
H293 C286 0.929 . S
H294 C317 0.931 . S
H295 C318 0.931 . S
O296 Eu252 2.462 . S
O296 C316 1.252 . S
O297 Eu252 2.373 . S
O297 C308 1.249 . S
O298 Eu263 2.335 . S
O298 C308 1.264 . S
O299 Eu252 2.432 . S
O299 C316 1.268 . S
O300 Eu252 2.291 . S
O300 C315 1.255 . S
O301 Eu263 2.372 . S
O301 C315 1.257 . S
O302 Eu263 2.462 . S
O302 C327 1.252 . S
O303 Eu263 2.373 . S
O303 C319 1.249 . S
O304 Eu252 2.335 . S
O304 C319 1.264 . S
O305 Eu263 2.432 . S
O305 C327 1.268 . S
O306 Eu263 2.291 . S
O306 C326 1.255 . S
O307 Eu252 2.372 . S
O307 C326 1.257 . S
C308 O297 1.249 . S
C308 O298 1.264 . S
C309 C312 1.382 . S
C309 C314 1.390 . S
C309 C316 1.506 . S
C310 C311 1.398 . S
C310 C314 1.392 . S
C311 C310 1.398 . S
C311 C313 1.372 . S
C311 H328 0.931 . S
C312 C309 1.382 . S
C312 C313 1.390 . S
C312 H329 0.931 . S
C313 C311 1.372 . S
C313 C312 1.390 . S
C313 H330 0.929 . S
C314 C309 1.390 . S
C314 C310 1.392 . S
C314 H331 0.930 . S
C315 O300 1.255 . S
C315 O301 1.257 . S
C316 Eu252 2.787 . S
C316 O296 1.252 . S
C316 O299 1.268 . S
C316 C309 1.506 . S
C317 C284 1.439 . S
C317 H294 0.931 . S
C317 C318 1.374 . S
C318 C289 1.387 . S
C318 H295 0.931 . S
C318 C317 1.374 . S
C319 O303 1.249 . S
C319 O304 1.264 . S
C320 C323 1.382 . S
C320 C324 1.390 . S
C320 C327 1.506 . S
C321 C322 1.398 . S
C321 C324 1.392 . S
C322 C321 1.398 . S
C322 C325 1.372 . S
C322 H332 0.931 . S
C323 C320 1.382 . S
C323 C325 1.390 . S
C323 H333 0.931 . S
C324 C320 1.390 . S
C324 C321 1.392 . S
C324 H334 0.930 . S
C325 C322 1.372 . S
C325 C323 1.390 . S
C325 H335 0.929 . S
C326 O306 1.255 . S
C326 O307 1.257 . S
C327 Eu263 2.787 . S
C327 O302 1.252 . S
C327 O305 1.268 . S
C327 C320 1.506 . S
H328 C311 0.931 . S
H329 C312 0.931 . S
H330 C313 0.929 . S
H331 C314 0.930 . S
H332 C322 0.931 . S
H333 C323 0.931 . S
H334 C324 0.930 . S
H335 C325 0.929 . S
Eu336 N365 2.600 . S
Eu336 N371 2.562 . S
Eu336 O380 2.462 1_556 S
Eu336 O381 2.373 . S
Eu336 O383 2.432 1_556 S
Eu336 O384 2.291 . S
Eu336 O388 2.335 1_556 S
Eu336 O391 2.372 1_556 S
Eu336 C400 2.787 1_556 S
C337 N338 1.365 . S
C337 C340 1.405 . S
C337 C344 1.448 . S
N338 C337 1.365 . S
N338 C341 1.319 . S
N338 Eu347 2.600 . S
C339 C341 1.397 . S
C339 C342 1.367 . S
C339 H359 0.931 . S
C340 C337 1.405 . S
C340 C342 1.403 . S
C340 C346 1.439 . S
C341 N338 1.319 . S
C341 C339 1.397 . S
C341 H352 0.930 . S
C342 C339 1.367 . S
C342 C340 1.403 . S
C342 H363 0.929 . S
C343 C344 1.430 . S
C343 C345 1.387 . S
C343 C349 1.404 . S
C344 C337 1.448 . S
C344 C343 1.430 . S
C344 N348 1.351 . S
C345 C343 1.387 . S
C345 C346 1.374 . S
C345 H360 0.931 . S
C346 C340 1.439 . S
C346 C345 1.374 . S
C346 H361 0.931 . S
Eu347 N338 2.600 . S
Eu347 N348 2.562 . S
Eu347 O382 2.335 1_554 S
Eu347 O385 2.372 1_554 S
Eu347 O386 2.462 1_554 S
Eu347 O387 2.373 . S
Eu347 O389 2.432 1_554 S
Eu347 O390 2.291 . S
Eu347 C411 2.787 1_554 S
N348 C344 1.351 . S
N348 Eu347 2.562 . S
N348 C350 1.325 . S
C349 C343 1.404 . S
C349 C351 1.366 . S
C349 H357 0.930 . S
C350 N348 1.325 . S
C350 C351 1.416 . S
C350 H356 0.929 . S
C351 C349 1.366 . S
C351 C350 1.416 . S
C351 H353 0.930 . S
H352 C341 0.930 . S
H353 C351 0.930 . S
H354 C369 0.930 . S
H355 C376 0.930 . S
H356 C350 0.929 . S
H357 C349 0.930 . S
H358 C372 0.929 . S
H359 C339 0.931 . S
H360 C345 0.931 . S
H361 C346 0.931 . S
H362 C367 0.931 . S
H363 C342 0.929 . S
H364 C375 0.930 . S
N365 Eu336 2.600 . S
N365 C366 1.365 . S
N365 C369 1.319 . S
C366 N365 1.365 . S
C366 C368 1.405 . S
C366 C374 1.448 . S
C367 H362 0.931 . S
C367 C369 1.397 . S
C367 C370 1.367 . S
C368 C366 1.405 . S
C368 C370 1.403 . S
C368 C401 1.439 . S
C369 H354 0.930 . S
C369 N365 1.319 . S
C369 C367 1.397 . S
C370 C367 1.367 . S
C370 C368 1.403 . S
C370 H377 0.929 . S
N371 Eu336 2.562 . S
N371 C372 1.325 . S
N371 C374 1.351 . S
C372 H358 0.929 . S
C372 N371 1.325 . S
C372 C376 1.416 . S
C373 C374 1.430 . S
C373 C375 1.404 . S
C373 C402 1.387 . S
C374 C366 1.448 . S
C374 N371 1.351 . S
C374 C373 1.430 . S
C375 H364 0.930 . S
C375 C373 1.404 . S
C375 C376 1.366 . S
C376 H355 0.930 . S
C376 C372 1.416 . S
C376 C375 1.366 . S
H377 C370 0.929 . S
H378 C401 0.931 . S
H379 C402 0.931 . S
O380 Eu336 2.462 1_554 S
O380 C400 1.252 . S
O381 Eu336 2.373 . S
O381 C392 1.249 . S
O382 Eu347 2.335 1_556 S
O382 C392 1.264 . S
O383 Eu336 2.432 1_554 S
O383 C400 1.268 . S
O384 Eu336 2.291 . S
O384 C399 1.255 . S
O385 Eu347 2.372 1_556 S
O385 C399 1.257 . S
O386 Eu347 2.462 1_556 S
O386 C411 1.252 . S
O387 Eu347 2.373 . S
O387 C403 1.249 . S
O388 Eu336 2.335 1_554 S
O388 C403 1.264 . S
O389 Eu347 2.432 1_556 S
O389 C411 1.268 . S
O390 Eu347 2.291 . S
O390 C410 1.255 . S
O391 Eu336 2.372 1_554 S
O391 C410 1.257 . S
C392 O381 1.249 . S
C392 O382 1.264 . S
C393 C396 1.382 . S
C393 C398 1.390 . S
C393 C400 1.506 . S
C394 C395 1.398 . S
C394 C398 1.392 . S
C395 C394 1.398 . S
C395 C397 1.372 . S
C395 H412 0.931 . S
C396 C393 1.382 . S
C396 C397 1.390 . S
C396 H413 0.931 . S
C397 C395 1.372 . S
C397 C396 1.390 . S
C397 H414 0.929 . S
C398 C393 1.390 . S
C398 C394 1.392 . S
C398 H415 0.930 . S
C399 O384 1.255 . S
C399 O385 1.257 . S
C400 Eu336 2.787 1_554 S
C400 O380 1.252 . S
C400 O383 1.268 . S
C400 C393 1.506 . S
C401 C368 1.439 . S
C401 H378 0.931 . S
C401 C402 1.374 . S
C402 C373 1.387 . S
C402 H379 0.931 . S
C402 C401 1.374 . S
C403 O387 1.249 . S
C403 O388 1.264 . S
C404 C407 1.382 . S
C404 C408 1.390 . S
C404 C411 1.506 . S
C405 C406 1.398 . S
C405 C408 1.392 . S
C406 C405 1.398 . S
C406 C409 1.372 . S
C406 H416 0.931 . S
C407 C404 1.382 . S
C407 C409 1.390 . S
C407 H417 0.931 . S
C408 C404 1.390 . S
C408 C405 1.392 . S
C408 H418 0.930 . S
C409 C406 1.372 . S
C409 C407 1.390 . S
C409 H419 0.929 . S
C410 O390 1.255 . S
C410 O391 1.257 . S
C411 Eu347 2.787 1_556 S
C411 O386 1.252 . S
C411 O389 1.268 . S
C411 C404 1.506 . S
H412 C395 0.931 . S
H413 C396 0.931 . S
H414 C397 0.929 . S
H415 C398 0.930 . S
H416 C406 0.931 . S
H417 C407 0.931 . S
H418 C408 0.930 . S
H419 C409 0.929 . S
Eu420 N449 2.600 . S
Eu420 N455 2.562 . S
Eu420 O464 2.462 1_554 S
Eu420 O465 2.373 . S
Eu420 O467 2.432 1_554 S
Eu420 O468 2.291 . S
Eu420 O472 2.335 1_554 S
Eu420 O475 2.372 1_554 S
Eu420 C484 2.787 1_554 S
C421 N422 1.365 . S
C421 C424 1.405 . S
C421 C428 1.448 . S
N422 C421 1.365 . S
N422 C425 1.319 . S
N422 Eu431 2.600 . S
C423 C425 1.397 . S
C423 C426 1.367 . S
C423 H443 0.931 . S
C424 C421 1.405 . S
C424 C426 1.403 . S
C424 C430 1.439 . S
C425 N422 1.319 . S
C425 C423 1.397 . S
C425 H436 0.930 . S
C426 C423 1.367 . S
C426 C424 1.403 . S
C426 H447 0.929 . S
C427 C428 1.430 . S
C427 C429 1.387 . S
C427 C433 1.404 . S
C428 C421 1.448 . S
C428 C427 1.430 . S
C428 N432 1.351 . S
C429 C427 1.387 . S
C429 C430 1.374 . S
C429 H444 0.931 . S
C430 C424 1.439 . S
C430 C429 1.374 . S
C430 H445 0.931 . S
Eu431 N422 2.600 . S
Eu431 N432 2.562 . S
Eu431 O466 2.335 1_556 S
Eu431 O469 2.372 1_556 S
Eu431 O470 2.462 1_556 S
Eu431 O471 2.373 . S
Eu431 O473 2.432 1_556 S
Eu431 O474 2.291 . S
Eu431 C495 2.787 1_556 S
N432 C428 1.351 . S
N432 Eu431 2.562 . S
N432 C434 1.325 . S
C433 C427 1.404 . S
C433 C435 1.366 . S
C433 H441 0.930 . S
C434 N432 1.325 . S
C434 C435 1.416 . S
C434 H440 0.929 . S
C435 C433 1.366 . S
C435 C434 1.416 . S
C435 H437 0.930 . S
H436 C425 0.930 . S
H437 C435 0.930 . S
H438 C453 0.930 . S
H439 C460 0.930 . S
H440 C434 0.929 . S
H441 C433 0.930 . S
H442 C456 0.929 . S
H443 C423 0.931 . S
H444 C429 0.931 . S
H445 C430 0.931 . S
H446 C451 0.931 . S
H447 C426 0.929 . S
H448 C459 0.930 . S
N449 Eu420 2.600 . S
N449 C450 1.365 . S
N449 C453 1.319 . S
C450 N449 1.365 . S
C450 C452 1.405 . S
C450 C458 1.448 . S
C451 H446 0.931 . S
C451 C453 1.397 . S
C451 C454 1.367 . S
C452 C450 1.405 . S
C452 C454 1.403 . S
C452 C485 1.439 . S
C453 H438 0.930 . S
C453 N449 1.319 . S
C453 C451 1.397 . S
C454 C451 1.367 . S
C454 C452 1.403 . S
C454 H461 0.929 . S
N455 Eu420 2.562 . S
N455 C456 1.325 . S
N455 C458 1.351 . S
C456 H442 0.929 . S
C456 N455 1.325 . S
C456 C460 1.416 . S
C457 C458 1.430 . S
C457 C459 1.404 . S
C457 C486 1.387 . S
C458 C450 1.448 . S
C458 N455 1.351 . S
C458 C457 1.430 . S
C459 H448 0.930 . S
C459 C457 1.404 . S
C459 C460 1.366 . S
C460 H439 0.930 . S
C460 C456 1.416 . S
C460 C459 1.366 . S
H461 C454 0.929 . S
H462 C485 0.931 . S
H463 C486 0.931 . S
O464 Eu420 2.462 1_556 S
O464 C484 1.252 . S
O465 Eu420 2.373 . S
O465 C476 1.249 . S
O466 Eu431 2.335 1_554 S
O466 C476 1.264 . S
O467 Eu420 2.432 1_556 S
O467 C484 1.268 . S
O468 Eu420 2.291 . S
O468 C483 1.255 . S
O469 Eu431 2.372 1_554 S
O469 C483 1.257 . S
O470 Eu431 2.462 1_554 S
O470 C495 1.252 . S
O471 Eu431 2.373 . S
O471 C487 1.249 . S
O472 Eu420 2.335 1_556 S
O472 C487 1.264 . S
O473 Eu431 2.432 1_554 S
O473 C495 1.268 . S
O474 Eu431 2.291 . S
O474 C494 1.255 . S
O475 Eu420 2.372 1_556 S
O475 C494 1.257 . S
C476 O465 1.249 . S
C476 O466 1.264 . S
C477 C480 1.382 . S
C477 C482 1.390 . S
C477 C484 1.506 . S
C478 C479 1.398 . S
C478 C482 1.392 . S
C479 C478 1.398 . S
C479 C481 1.372 . S
C479 H496 0.931 . S
C480 C477 1.382 . S
C480 C481 1.390 . S
C480 H497 0.931 . S
C481 C479 1.372 . S
C481 C480 1.390 . S
C481 H498 0.929 . S
C482 C477 1.390 . S
C482 C478 1.392 . S
C482 H499 0.930 . S
C483 O468 1.255 . S
C483 O469 1.257 . S
C484 Eu420 2.787 1_556 S
C484 O464 1.252 . S
C484 O467 1.268 . S
C484 C477 1.506 . S
C485 C452 1.439 . S
C485 H462 0.931 . S
C485 C486 1.374 . S
C486 C457 1.387 . S
C486 H463 0.931 . S
C486 C485 1.374 . S
C487 O471 1.249 . S
C487 O472 1.264 . S
C488 C491 1.382 . S
C488 C492 1.390 . S
C488 C495 1.506 . S
C489 C490 1.398 . S
C489 C492 1.392 . S
C490 C489 1.398 . S
C490 C493 1.372 . S
C490 H500 0.931 . S
C491 C488 1.382 . S
C491 C493 1.390 . S
C491 H501 0.931 . S
C492 C488 1.390 . S
C492 C489 1.392 . S
C492 H502 0.930 . S
C493 C490 1.372 . S
C493 C491 1.390 . S
C493 H503 0.929 . S
C494 O474 1.255 . S
C494 O475 1.257 . S
C495 Eu431 2.787 1_554 S
C495 O470 1.252 . S
C495 O473 1.268 . S
C495 C488 1.506 . S
H496 C479 0.931 . S
H497 C480 0.931 . S
H498 C481 0.929 . S
H499 C482 0.930 . S
H500 C490 0.931 . S
H501 C491 0.931 . S
H502 C492 0.930 . S
H503 C493 0.929 . S
Eu504 N533 2.600 . S
Eu504 N539 2.562 . S
Eu504 O548 2.462 1_554 S
Eu504 O549 2.373 . S
Eu504 O551 2.432 1_554 S
Eu504 O552 2.291 . S
Eu504 O556 2.335 1_554 S
Eu504 O559 2.372 1_554 S
Eu504 C568 2.787 1_554 S
C505 N506 1.365 . S
C505 C508 1.405 . S
C505 C512 1.448 . S
N506 C505 1.365 . S
N506 C509 1.319 . S
N506 Eu515 2.600 . S
C507 C509 1.397 . S
C507 C510 1.367 . S
C507 H527 0.931 . S
C508 C505 1.405 . S
C508 C510 1.403 . S
C508 C514 1.439 . S
C509 N506 1.319 . S
C509 C507 1.397 . S
C509 H520 0.930 . S
C510 C507 1.367 . S
C510 C508 1.403 . S
C510 H531 0.929 . S
C511 C512 1.430 . S
C511 C513 1.387 . S
C511 C517 1.404 . S
C512 C505 1.448 . S
C512 C511 1.430 . S
C512 N516 1.351 . S
C513 C511 1.387 . S
C513 C514 1.374 . S
C513 H528 0.931 . S
C514 C508 1.439 . S
C514 C513 1.374 . S
C514 H529 0.931 . S
Eu515 N506 2.600 . S
Eu515 N516 2.562 . S
Eu515 O550 2.335 1_556 S
Eu515 O553 2.372 1_556 S
Eu515 O554 2.462 1_556 S
Eu515 O555 2.373 . S
Eu515 O557 2.432 1_556 S
Eu515 O558 2.291 . S
Eu515 C579 2.787 1_556 S
N516 C512 1.351 . S
N516 Eu515 2.562 . S
N516 C518 1.325 . S
C517 C511 1.404 . S
C517 C519 1.366 . S
C517 H525 0.930 . S
C518 N516 1.325 . S
C518 C519 1.416 . S
C518 H524 0.929 . S
C519 C517 1.366 . S
C519 C518 1.416 . S
C519 H521 0.930 . S
H520 C509 0.930 . S
H521 C519 0.930 . S
H522 C537 0.930 . S
H523 C544 0.930 . S
H524 C518 0.929 . S
H525 C517 0.930 . S
H526 C540 0.929 . S
H527 C507 0.931 . S
H528 C513 0.931 . S
H529 C514 0.931 . S
H530 C535 0.931 . S
H531 C510 0.929 . S
H532 C543 0.930 . S
N533 Eu504 2.600 . S
N533 C534 1.365 . S
N533 C537 1.319 . S
C534 N533 1.365 . S
C534 C536 1.405 . S
C534 C542 1.448 . S
C535 H530 0.931 . S
C535 C537 1.397 . S
C535 C538 1.367 . S
C536 C534 1.405 . S
C536 C538 1.403 . S
C536 C569 1.439 . S
C537 H522 0.930 . S
C537 N533 1.319 . S
C537 C535 1.397 . S
C538 C535 1.367 . S
C538 C536 1.403 . S
C538 H545 0.929 . S
N539 Eu504 2.562 . S
N539 C540 1.325 . S
N539 C542 1.351 . S
C540 H526 0.929 . S
C540 N539 1.325 . S
C540 C544 1.416 . S
C541 C542 1.430 . S
C541 C543 1.404 . S
C541 C570 1.387 . S
C542 C534 1.448 . S
C542 N539 1.351 . S
C542 C541 1.430 . S
C543 H532 0.930 . S
C543 C541 1.404 . S
C543 C544 1.366 . S
C544 H523 0.930 . S
C544 C540 1.416 . S
C544 C543 1.366 . S
H545 C538 0.929 . S
H546 C569 0.931 . S
H547 C570 0.931 . S
O548 Eu504 2.462 1_556 S
O548 C568 1.252 . S
O549 Eu504 2.373 . S
O549 C560 1.249 . S
O550 Eu515 2.335 1_554 S
O550 C560 1.264 . S
O551 Eu504 2.432 1_556 S
O551 C568 1.268 . S
O552 Eu504 2.291 . S
O552 C567 1.255 . S
O553 Eu515 2.372 1_554 S
O553 C567 1.257 . S
O554 Eu515 2.462 1_554 S
O554 C579 1.252 . S
O555 Eu515 2.373 . S
O555 C571 1.249 . S
O556 Eu504 2.335 1_556 S
O556 C571 1.264 . S
O557 Eu515 2.432 1_554 S
O557 C579 1.268 . S
O558 Eu515 2.291 . S
O558 C578 1.255 . S
O559 Eu504 2.372 1_556 S
O559 C578 1.257 . S
C560 O549 1.249 . S
C560 O550 1.264 . S
C561 C564 1.382 . S
C561 C566 1.390 . S
C561 C568 1.506 . S
C562 C563 1.398 . S
C562 C566 1.392 . S
C563 C562 1.398 . S
C563 C565 1.372 . S
C563 H580 0.931 . S
C564 C561 1.382 . S
C564 C565 1.390 . S
C564 H581 0.931 . S
C565 C563 1.372 . S
C565 C564 1.390 . S
C565 H582 0.929 . S
C566 C561 1.390 . S
C566 C562 1.392 . S
C566 H583 0.930 . S
C567 O552 1.255 . S
C567 O553 1.257 . S
C568 Eu504 2.787 1_556 S
C568 O548 1.252 . S
C568 O551 1.268 . S
C568 C561 1.506 . S
C569 C536 1.439 . S
C569 H546 0.931 . S
C569 C570 1.374 . S
C570 C541 1.387 . S
C570 H547 0.931 . S
C570 C569 1.374 . S
C571 O555 1.249 . S
C571 O556 1.264 . S
C572 C575 1.382 . S
C572 C576 1.390 . S
C572 C579 1.506 . S
C573 C574 1.398 . S
C573 C576 1.392 . S
C574 C573 1.398 . S
C574 C577 1.372 . S
C574 H584 0.931 . S
C575 C572 1.382 . S
C575 C577 1.390 . S
C575 H585 0.931 . S
C576 C572 1.390 . S
C576 C573 1.392 . S
C576 H586 0.930 . S
C577 C574 1.372 . S
C577 C575 1.390 . S
C577 H587 0.929 . S
C578 O558 1.255 . S
C578 O559 1.257 . S
C579 Eu515 2.787 1_554 S
C579 O554 1.252 . S
C579 O557 1.268 . S
C579 C572 1.506 . S
H580 C563 0.931 . S
H581 C564 0.931 . S
H582 C565 0.929 . S
H583 C566 0.930 . S
H584 C574 0.931 . S
H585 C575 0.931 . S
H586 C576 0.930 . S
H587 C577 0.929 . S
Eu588 N617 2.600 . S
Eu588 N623 2.562 . S
Eu588 O632 2.462 1_556 S
Eu588 O633 2.373 . S
Eu588 O635 2.432 1_556 S
Eu588 O636 2.291 . S
Eu588 O640 2.335 1_556 S
Eu588 O643 2.372 1_556 S
Eu588 C652 2.787 1_556 S
C589 N590 1.365 . S
C589 C592 1.405 . S
C589 C596 1.448 . S
N590 C589 1.365 . S
N590 C593 1.319 . S
N590 Eu599 2.600 . S
C591 C593 1.397 . S
C591 C594 1.367 . S
C591 H611 0.931 . S
C592 C589 1.405 . S
C592 C594 1.403 . S
C592 C598 1.439 . S
C593 N590 1.319 . S
C593 C591 1.397 . S
C593 H604 0.930 . S
C594 C591 1.367 . S
C594 C592 1.403 . S
C594 H615 0.929 . S
C595 C596 1.430 . S
C595 C597 1.387 . S
C595 C601 1.404 . S
C596 C589 1.448 . S
C596 C595 1.430 . S
C596 N600 1.351 . S
C597 C595 1.387 . S
C597 C598 1.374 . S
C597 H612 0.931 . S
C598 C592 1.439 . S
C598 C597 1.374 . S
C598 H613 0.931 . S
Eu599 N590 2.600 . S
Eu599 N600 2.562 . S
Eu599 O634 2.335 1_554 S
Eu599 O637 2.372 1_554 S
Eu599 O638 2.462 1_554 S
Eu599 O639 2.373 . S
Eu599 O641 2.432 1_554 S
Eu599 O642 2.291 . S
Eu599 C663 2.787 1_554 S
N600 C596 1.351 . S
N600 Eu599 2.562 . S
N600 C602 1.325 . S
C601 C595 1.404 . S
C601 C603 1.366 . S
C601 H609 0.930 . S
C602 N600 1.325 . S
C602 C603 1.416 . S
C602 H608 0.929 . S
C603 C601 1.366 . S
C603 C602 1.416 . S
C603 H605 0.930 . S
H604 C593 0.930 . S
H605 C603 0.930 . S
H606 C621 0.930 . S
H607 C628 0.930 . S
H608 C602 0.929 . S
H609 C601 0.930 . S
H610 C624 0.929 . S
H611 C591 0.931 . S
H612 C597 0.931 . S
H613 C598 0.931 . S
H614 C619 0.931 . S
H615 C594 0.929 . S
H616 C627 0.930 . S
N617 Eu588 2.600 . S
N617 C618 1.365 . S
N617 C621 1.319 . S
C618 N617 1.365 . S
C618 C620 1.405 . S
C618 C626 1.448 . S
C619 H614 0.931 . S
C619 C621 1.397 . S
C619 C622 1.367 . S
C620 C618 1.405 . S
C620 C622 1.403 . S
C620 C653 1.439 . S
C621 H606 0.930 . S
C621 N617 1.319 . S
C621 C619 1.397 . S
C622 C619 1.367 . S
C622 C620 1.403 . S
C622 H629 0.929 . S
N623 Eu588 2.562 . S
N623 C624 1.325 . S
N623 C626 1.351 . S
C624 H610 0.929 . S
C624 N623 1.325 . S
C624 C628 1.416 . S
C625 C626 1.430 . S
C625 C627 1.404 . S
C625 C654 1.387 . S
C626 C618 1.448 . S
C626 N623 1.351 . S
C626 C625 1.430 . S
C627 H616 0.930 . S
C627 C625 1.404 . S
C627 C628 1.366 . S
C628 H607 0.930 . S
C628 C624 1.416 . S
C628 C627 1.366 . S
H629 C622 0.929 . S
H630 C653 0.931 . S
H631 C654 0.931 . S
O632 Eu588 2.462 1_554 S
O632 C652 1.252 . S
O633 Eu588 2.373 . S
O633 C644 1.249 . S
O634 Eu599 2.335 1_556 S
O634 C644 1.264 . S
O635 Eu588 2.432 1_554 S
O635 C652 1.268 . S
O636 Eu588 2.291 . S
O636 C651 1.255 . S
O637 Eu599 2.372 1_556 S
O637 C651 1.257 . S
O638 Eu599 2.462 1_556 S
O638 C663 1.252 . S
O639 Eu599 2.373 . S
O639 C655 1.249 . S
O640 Eu588 2.335 1_554 S
O640 C655 1.264 . S
O641 Eu599 2.432 1_556 S
O641 C663 1.268 . S
O642 Eu599 2.291 . S
O642 C662 1.255 . S
O643 Eu588 2.372 1_554 S
O643 C662 1.257 . S
C644 O633 1.249 . S
C644 O634 1.264 . S
C645 C648 1.382 . S
C645 C650 1.390 . S
C645 C652 1.506 . S
C646 C647 1.398 . S
C646 C650 1.392 . S
C647 C646 1.398 . S
C647 C649 1.372 . S
C647 H664 0.931 . S
C648 C645 1.382 . S
C648 C649 1.390 . S
C648 H665 0.931 . S
C649 C647 1.372 . S
C649 C648 1.390 . S
C649 H666 0.929 . S
C650 C645 1.390 . S
C650 C646 1.392 . S
C650 H667 0.930 . S
C651 O636 1.255 . S
C651 O637 1.257 . S
C652 Eu588 2.787 1_554 S
C652 O632 1.252 . S
C652 O635 1.268 . S
C652 C645 1.506 . S
C653 C620 1.439 . S
C653 H630 0.931 . S
C653 C654 1.374 . S
C654 C625 1.387 . S
C654 H631 0.931 . S
C654 C653 1.374 . S
C655 O639 1.249 . S
C655 O640 1.264 . S
C656 C659 1.382 . S
C656 C660 1.390 . S
C656 C663 1.506 . S
C657 C658 1.398 . S
C657 C660 1.392 . S
C658 C657 1.398 . S
C658 C661 1.372 . S
C658 H668 0.931 . S
C659 C656 1.382 . S
C659 C661 1.390 . S
C659 H669 0.931 . S
C660 C656 1.390 . S
C660 C657 1.392 . S
C660 H670 0.930 . S
C661 C658 1.372 . S
C661 C659 1.390 . S
C661 H671 0.929 . S
C662 O642 1.255 . S
C662 O643 1.257 . S
C663 Eu599 2.787 1_556 S
C663 O638 1.252 . S
C663 O641 1.268 . S
C663 C656 1.506 . S
H664 C647 0.931 . S
H665 C648 0.931 . S
H666 C649 0.929 . S
H667 C650 0.930 . S
H668 C658 0.931 . S
H669 C659 0.931 . S
H670 C660 0.930 . S
H671 C661 0.929 . S
C672 C673 1.391 . S
C672 C674 1.394 . S
C672 H688 0.931 . S
C673 C672 1.391 . S
C673 C677 1.376 . S
C674 C672 1.394 . S
C674 C675 1.369 . S
C674 C678 1.531 . S
C675 C674 1.369 . S
C675 C676 1.410 . S
C675 C683 1.503 . S
C676 C675 1.410 . S
C676 C677 1.392 . S
C676 C679 1.511 . S
C677 C673 1.376 . S
C677 C676 1.392 . S
C677 H689 0.929 . S
C678 C674 1.531 . S
C678 H690 0.960 . S
C678 H691 0.962 . S
C678 H692 0.960 . S
C679 C676 1.511 . S
C679 H693 0.961 . S
C679 H694 0.961 . S
C679 H695 0.961 . S
C680 C681 1.370 . S
C680 C682 1.363 . S
C680 H696 0.931 . S
C681 C680 1.370 . S
C681 C685 1.408 . S
C682 C680 1.363 . S
C682 C683 1.370 . S
C682 C686 1.524 . S
C683 C675 1.503 . S
C683 C682 1.370 . S
C683 C684 1.403 . S
C684 C683 1.403 . S
C684 C685 1.404 . S
C684 C687 1.539 . S
C685 C681 1.408 . S
C685 C684 1.404 . S
C685 H697 0.930 . S
C686 C682 1.524 . S
C686 H698 0.956 . S
C686 H699 0.961 . S
C686 H700 0.961 . S
C687 C684 1.539 . S
C687 H701 0.958 . S
C687 H702 0.961 . S
C687 H703 0.960 . S
H688 C672 0.931 . S
H689 C677 0.929 . S
H690 C678 0.960 . S
H691 C678 0.962 . S
H692 C678 0.960 . S
H693 C679 0.961 . S
H694 C679 0.961 . S
H695 C679 0.961 . S
H696 C680 0.931 . S
H697 C685 0.930 . S
H698 C686 0.956 . S
H699 C686 0.961 . S
H700 C686 0.961 . S
H701 C687 0.958 . S
H702 C687 0.961 . S
H703 C687 0.960 . S
C704 C705 1.391 . S
C704 C706 1.394 . S
C704 H720 0.931 . S
C705 C704 1.391 . S
C705 C709 1.376 . S
C706 C704 1.394 . S
C706 C707 1.369 . S
C706 C710 1.531 . S
C707 C706 1.369 . S
C707 C708 1.410 . S
C707 C715 1.503 . S
C708 C707 1.410 . S
C708 C709 1.392 . S
C708 C711 1.511 . S
C709 C705 1.376 . S
C709 C708 1.392 . S
C709 H721 0.929 . S
C710 C706 1.531 . S
C710 H722 0.960 . S
C710 H723 0.962 . S
C710 H724 0.960 . S
C711 C708 1.511 . S
C711 H725 0.961 . S
C711 H726 0.961 . S
C711 H727 0.961 . S
C712 C713 1.370 . S
C712 C714 1.363 . S
C712 H728 0.931 . S
C713 C712 1.370 . S
C713 C717 1.408 . S
C714 C712 1.363 . S
C714 C715 1.370 . S
C714 C718 1.524 . S
C715 C707 1.503 . S
C715 C714 1.370 . S
C715 C716 1.403 . S
C716 C715 1.403 . S
C716 C717 1.404 . S
C716 C719 1.539 . S
C717 C713 1.408 . S
C717 C716 1.404 . S
C717 H729 0.930 . S
C718 C714 1.524 . S
C718 H730 0.956 . S
C718 H731 0.961 . S
C718 H732 0.961 . S
C719 C716 1.539 . S
C719 H733 0.958 . S
C719 H734 0.961 . S
C719 H735 0.960 . S
H720 C704 0.931 . S
H721 C709 0.929 . S
H722 C710 0.960 . S
H723 C710 0.962 . S
H724 C710 0.960 . S
H725 C711 0.961 . S
H726 C711 0.961 . S
H727 C711 0.961 . S
H728 C712 0.931 . S
H729 C717 0.930 . S
H730 C718 0.956 . S
H731 C718 0.961 . S
H732 C718 0.961 . S
H733 C719 0.958 . S
H734 C719 0.961 . S
H735 C719 0.960 . S
C736 C737 1.391 . S
C736 C738 1.394 . S
C736 H752 0.931 . S
C737 C736 1.391 . S
C737 C741 1.376 . S
C738 C736 1.394 . S
C738 C739 1.369 . S
C738 C742 1.531 . S
C739 C738 1.369 . S
C739 C740 1.410 . S
C739 C747 1.503 . S
C740 C739 1.410 . S
C740 C741 1.392 . S
C740 C743 1.511 . S
C741 C737 1.376 . S
C741 C740 1.392 . S
C741 H753 0.929 . S
C742 C738 1.531 . S
C742 H754 0.960 . S
C742 H755 0.962 . S
C742 H756 0.960 . S
C743 C740 1.511 . S
C743 H757 0.961 . S
C743 H758 0.961 . S
C743 H759 0.961 . S
C744 C745 1.370 . S
C744 C746 1.363 . S
C744 H760 0.931 . S
C745 C744 1.370 . S
C745 C749 1.408 . S
C746 C744 1.363 . S
C746 C747 1.370 . S
C746 C750 1.524 . S
C747 C739 1.503 . S
C747 C746 1.370 . S
C747 C748 1.403 . S
C748 C747 1.403 . S
C748 C749 1.404 . S
C748 C751 1.539 . S
C749 C745 1.408 . S
C749 C748 1.404 . S
C749 H761 0.930 . S
C750 C746 1.524 . S
C750 H762 0.956 . S
C750 H763 0.961 . S
C750 H764 0.961 . S
C751 C748 1.539 . S
C751 H765 0.958 . S
C751 H766 0.961 . S
C751 H767 0.960 . S
H752 C736 0.931 . S
H753 C741 0.929 . S
H754 C742 0.960 . S
H755 C742 0.962 . S
H756 C742 0.960 . S
H757 C743 0.961 . S
H758 C743 0.961 . S
H759 C743 0.961 . S
H760 C744 0.931 . S
H761 C749 0.930 . S
H762 C750 0.956 . S
H763 C750 0.961 . S
H764 C750 0.961 . S
H765 C751 0.958 . S
H766 C751 0.961 . S
H767 C751 0.960 . S
C768 C769 1.391 . S
C768 C770 1.394 . S
C768 H784 0.931 . S
C769 C768 1.391 . S
C769 C773 1.376 . S
C770 C768 1.394 . S
C770 C771 1.369 . S
C770 C774 1.531 . S
C771 C770 1.369 . S
C771 C772 1.410 . S
C771 C779 1.503 . S
C772 C771 1.410 . S
C772 C773 1.392 . S
C772 C775 1.511 . S
C773 C769 1.376 . S
C773 C772 1.392 . S
C773 H785 0.929 . S
C774 C770 1.531 . S
C774 H786 0.960 . S
C774 H787 0.962 . S
C774 H788 0.960 . S
C775 C772 1.511 . S
C775 H789 0.961 . S
C775 H790 0.961 . S
C775 H791 0.961 . S
C776 C777 1.370 . S
C776 C778 1.363 . S
C776 H792 0.931 . S
C777 C776 1.370 . S
C777 C781 1.408 . S
C778 C776 1.363 . S
C778 C779 1.370 . S
C778 C782 1.524 . S
C779 C771 1.503 . S
C779 C778 1.370 . S
C779 C780 1.403 . S
C780 C779 1.403 . S
C780 C781 1.404 . S
C780 C783 1.539 . S
C781 C777 1.408 . S
C781 C780 1.404 . S
C781 H793 0.930 . S
C782 C778 1.524 . S
C782 H794 0.956 . S
C782 H795 0.961 . S
C782 H796 0.961 . S
C783 C780 1.539 . S
C783 H797 0.958 . S
C783 H798 0.961 . S
C783 H799 0.960 . S
H784 C768 0.931 . S
H785 C773 0.929 . S
H786 C774 0.960 . S
H787 C774 0.962 . S
H788 C774 0.960 . S
H789 C775 0.961 . S
H790 C775 0.961 . S
H791 C775 0.961 . S
H792 C776 0.931 . S
H793 C781 0.930 . S
H794 C782 0.956 . S
H795 C782 0.961 . S
H796 C782 0.961 . S
H797 C783 0.958 . S
H798 C783 0.961 . S
H799 C783 0.960 . S
C800 C801 1.391 . S
C800 C802 1.394 . S
C800 H816 0.931 . S
C801 C800 1.391 . S
C801 C805 1.376 . S
C802 C800 1.394 . S
C802 C803 1.369 . S
C802 C806 1.531 . S
C803 C802 1.369 . S
C803 C804 1.410 . S
C803 C811 1.503 1_565 S
C804 C803 1.410 . S
C804 C805 1.392 . S
C804 C807 1.511 . S
C805 C801 1.376 . S
C805 C804 1.392 . S
C805 H817 0.929 . S
C806 C802 1.531 . S
C806 H818 0.960 . S
C806 H819 0.962 . S
C806 H820 0.960 . S
C807 C804 1.511 . S
C807 H821 0.961 . S
C807 H822 0.961 1_565 S
C807 H823 0.961 . S
C808 C809 1.370 . S
C808 C810 1.363 . S
C808 H824 0.931 . S
C809 C808 1.370 . S
C809 C813 1.408 . S
C810 C808 1.363 . S
C810 C811 1.370 . S
C810 C814 1.524 . S
C811 C803 1.503 1_545 S
C811 C810 1.370 . S
C811 C812 1.403 . S
C812 C811 1.403 . S
C812 C813 1.404 . S
C812 C815 1.539 . S
C813 C809 1.408 . S
C813 C812 1.404 . S
C813 H825 0.930 . S
C814 C810 1.524 . S
C814 H826 0.956 . S
C814 H827 0.961 . S
C814 H828 0.961 . S
C815 C812 1.539 . S
C815 H829 0.958 . S
C815 H830 0.961 . S
C815 H831 0.960 1_545 S
H816 C800 0.931 . S
H817 C805 0.929 . S
H818 C806 0.960 . S
H819 C806 0.962 . S
H820 C806 0.960 . S
H821 C807 0.961 . S
H822 C807 0.961 1_545 S
H823 C807 0.961 . S
H824 C808 0.931 . S
H825 C813 0.930 . S
H826 C814 0.956 . S
H827 C814 0.961 . S
H828 C814 0.961 . S
H829 C815 0.958 . S
H830 C815 0.961 . S
H831 C815 0.960 1_565 S
C832 C833 1.391 . S
C832 C834 1.394 . S
C832 H848 0.931 . S
C833 C832 1.391 . S
C833 C837 1.376 . S
C834 C832 1.394 . S
C834 C835 1.369 . S
C834 C838 1.531 . S
C835 C834 1.369 . S
C835 C836 1.410 . S
C835 C843 1.503 . S
C836 C835 1.410 . S
C836 C837 1.392 . S
C836 C839 1.511 . S
C837 C833 1.376 . S
C837 C836 1.392 . S
C837 H849 0.929 . S
C838 C834 1.531 . S
C838 H850 0.960 . S
C838 H851 0.962 . S
C838 H852 0.960 . S
C839 C836 1.511 . S
C839 H853 0.961 . S
C839 H854 0.961 . S
C839 H855 0.961 . S
C840 C841 1.370 . S
C840 C842 1.363 . S
C840 H856 0.931 . S
C841 C840 1.370 . S
C841 C845 1.408 . S
C842 C840 1.363 . S
C842 C843 1.370 . S
C842 C846 1.524 . S
C843 C835 1.503 . S
C843 C842 1.370 . S
C843 C844 1.403 . S
C844 C843 1.403 . S
C844 C845 1.404 . S
C844 C847 1.539 . S
C845 C841 1.408 . S
C845 C844 1.404 . S
C845 H857 0.930 . S
C846 C842 1.524 . S
C846 H858 0.956 . S
C846 H859 0.961 . S
C846 H860 0.961 . S
C847 C844 1.539 . S
C847 H861 0.958 . S
C847 H862 0.961 . S
C847 H863 0.960 . S
H848 C832 0.931 . S
H849 C837 0.929 . S
H850 C838 0.960 . S
H851 C838 0.962 . S
H852 C838 0.960 . S
H853 C839 0.961 . S
H854 C839 0.961 . S
H855 C839 0.961 . S
H856 C840 0.931 . S
H857 C845 0.930 . S
H858 C846 0.956 . S
H859 C846 0.961 . S
H860 C846 0.961 . S
H861 C847 0.958 . S
H862 C847 0.961 . S
H863 C847 0.960 . S
C864 C865 1.391 . S
C864 C866 1.394 . S
C864 H880 0.931 . S
C865 C864 1.391 . S
C865 C869 1.376 . S
C866 C864 1.394 . S
C866 C867 1.369 . S
C866 C870 1.531 . S
C867 C866 1.369 . S
C867 C868 1.410 . S
C867 C875 1.503 1_565 S
C868 C867 1.410 . S
C868 C869 1.392 . S
C868 C871 1.511 . S
C869 C865 1.376 . S
C869 C868 1.392 . S
C869 H881 0.929 . S
C870 C866 1.531 . S
C870 H882 0.960 . S
C870 H883 0.962 . S
C870 H884 0.960 . S
C871 C868 1.511 . S
C871 H885 0.961 . S
C871 H886 0.961 1_565 S
C871 H887 0.961 1_565 S
C872 C873 1.370 . S
C872 C874 1.363 . S
C872 H888 0.931 . S
C873 C872 1.370 . S
C873 C877 1.408 . S
C874 C872 1.363 . S
C874 C875 1.370 . S
C874 C878 1.524 . S
C875 C867 1.503 1_545 S
C875 C874 1.370 . S
C875 C876 1.403 . S
C876 C875 1.403 . S
C876 C877 1.404 . S
C876 C879 1.539 . S
C877 C873 1.408 . S
C877 C876 1.404 . S
C877 H889 0.930 . S
C878 C874 1.524 . S
C878 H890 0.956 1_545 S
C878 H891 0.961 1_545 S
C878 H892 0.961 . S
C879 C876 1.539 . S
C879 H893 0.958 . S
C879 H894 0.961 . S
C879 H895 0.960 . S
H880 C864 0.931 . S
H881 C869 0.929 . S
H882 C870 0.960 . S
H883 C870 0.962 . S
H884 C870 0.960 . S
H885 C871 0.961 . S
H886 C871 0.961 1_545 S
H887 C871 0.961 1_545 S
H888 C872 0.931 . S
H889 C877 0.930 . S
H890 C878 0.956 1_565 S
H891 C878 0.961 1_565 S
H892 C878 0.961 . S
H893 C879 0.958 . S
H894 C879 0.961 . S
H895 C879 0.960 . S
C896 C897 1.391 . S
C896 C898 1.394 . S
C896 H912 0.931 . S
C897 C896 1.391 . S
C897 C901 1.376 . S
C898 C896 1.394 . S
C898 C899 1.369 . S
C898 C902 1.531 . S
C899 C898 1.369 . S
C899 C900 1.410 . S
C899 C907 1.503 . S
C900 C899 1.410 . S
C900 C901 1.392 . S
C900 C903 1.511 . S
C901 C897 1.376 . S
C901 C900 1.392 . S
C901 H913 0.929 . S
C902 C898 1.531 . S
C902 H914 0.960 . S
C902 H915 0.962 . S
C902 H916 0.960 . S
C903 C900 1.511 . S
C903 H917 0.961 . S
C903 H918 0.961 . S
C903 H919 0.961 . S
C904 C905 1.370 . S
C904 C906 1.363 . S
C904 H920 0.931 . S
C905 C904 1.370 . S
C905 C909 1.408 . S
C906 C904 1.363 . S
C906 C907 1.370 . S
C906 C910 1.524 . S
C907 C899 1.503 . S
C907 C906 1.370 . S
C907 C908 1.403 . S
C908 C907 1.403 . S
C908 C909 1.404 . S
C908 C911 1.539 . S
C909 C905 1.408 . S
C909 C908 1.404 . S
C909 H921 0.930 . S
C910 C906 1.524 . S
C910 H922 0.956 . S
C910 H923 0.961 . S
C910 H924 0.961 . S
C911 C908 1.539 . S
C911 H925 0.958 . S
C911 H926 0.961 . S
C911 H927 0.960 . S
H912 C896 0.931 . S
H913 C901 0.929 . S
H914 C902 0.960 . S
H915 C902 0.962 . S
H916 C902 0.960 . S
H917 C903 0.961 . S
H918 C903 0.961 . S
H919 C903 0.961 . S
H920 C904 0.931 . S
H921 C909 0.930 . S
H922 C910 0.956 . S
H923 C910 0.961 . S
H924 C910 0.961 . S
H925 C911 0.958 . S
H926 C911 0.961 . S
H927 C911 0.960 . S
C928 C929 1.391 1_554 S
C928 C930 1.394 . S
C928 H944 0.931 . S
C929 C928 1.391 1_556 S
C929 C933 1.376 . S
C930 C928 1.394 . S
C930 C931 1.369 . S
C930 C934 1.531 . S
C931 C930 1.369 . S
C931 C932 1.410 1_554 S
C931 C939 1.503 . S
C932 C931 1.410 1_556 S
C932 C933 1.392 . S
C932 C935 1.511 . S
C933 C929 1.376 . S
C933 C932 1.392 . S
C933 H945 0.929 . S
C934 C930 1.531 . S
C934 H946 0.960 . S
C934 H947 0.962 . S
C934 H948 0.960 . S
C935 C932 1.511 . S
C935 H949 0.961 . S
C935 H950 0.961 . S
C935 H951 0.961 . S
C936 C937 1.370 1_556 S
C936 C938 1.363 . S
C936 H952 0.931 . S
C937 C936 1.370 1_554 S
C937 C941 1.408 . S
C938 C936 1.363 . S
C938 C939 1.370 1_556 S
C938 C942 1.524 . S
C939 C931 1.503 . S
C939 C938 1.370 1_554 S
C939 C940 1.403 . S
C940 C939 1.403 . S
C940 C941 1.404 . S
C940 C943 1.539 . S
C941 C937 1.408 . S
C941 C940 1.404 . S
C941 H953 0.930 . S
C942 C938 1.524 . S
C942 H954 0.956 . S
C942 H955 0.961 . S
C942 H956 0.961 . S
C943 C940 1.539 . S
C943 H957 0.958 . S
C943 H958 0.961 . S
C943 H959 0.960 . S
H944 C928 0.931 . S
H945 C933 0.929 . S
H946 C934 0.960 . S
H947 C934 0.962 . S
H948 C934 0.960 . S
H949 C935 0.961 . S
H950 C935 0.961 . S
H951 C935 0.961 . S
H952 C936 0.931 . S
H953 C941 0.930 . S
H954 C942 0.956 . S
H955 C942 0.961 . S
H956 C942 0.961 . S
H957 C943 0.958 . S
H958 C943 0.961 . S
H959 C943 0.960 . S
C960 C961 1.391 1_556 S
C960 C962 1.394 . S
C960 H976 0.931 . S
C961 C960 1.391 1_554 S
C961 C965 1.376 . S
C962 C960 1.394 . S
C962 C963 1.369 . S
C962 C966 1.531 . S
C963 C962 1.369 . S
C963 C964 1.410 . S
C963 C971 1.503 1_565 S
C964 C963 1.410 . S
C964 C965 1.392 1_556 S
C964 C967 1.512 1_556 S
C965 C961 1.376 . S
C965 C964 1.392 1_554 S
C965 H977 0.929 . S
C966 C962 1.531 . S
C966 H978 0.960 . S
C966 H979 0.962 1_556 S
C966 H980 0.960 . S
C967 C964 1.512 1_554 S
C967 H981 0.966 . S
C967 H982 0.963 1_565 S
C967 H983 0.952 1_554 S
C968 C969 1.370 1_554 S
C968 C970 1.363 . S
C968 H984 0.931 . S
C969 C968 1.370 1_556 S
C969 C973 1.408 . S
C970 C968 1.363 . S
C970 C971 1.370 1_554 S
C970 C974 1.524 . S
C971 C963 1.503 1_545 S
C971 C970 1.370 1_556 S
C971 C972 1.403 . S
C972 C971 1.403 . S
C972 C973 1.404 . S
C972 C975 1.539 . S
C973 C969 1.408 . S
C973 C972 1.404 . S
C973 H985 0.930 . S
C974 C970 1.524 . S
C974 H986 0.956 . S
C974 H987 0.961 . S
C974 H988 0.961 . S
C975 C972 1.539 . S
C975 H989 0.958 . S
C975 H990 0.961 . S
C975 H991 0.960 1_545 S
H976 C960 0.931 . S
H977 C965 0.929 . S
H978 C966 0.960 . S
H979 C966 0.962 1_554 S
H980 C966 0.960 . S
H981 C967 0.966 . S
H982 C967 0.963 1_545 S
H983 C967 0.952 1_556 S
H984 C968 0.931 . S
H985 C973 0.930 . S
H986 C974 0.956 . S
H987 C974 0.961 . S
H988 C974 0.961 . S
H989 C975 0.958 . S
H990 C975 0.961 . S
H991 C975 0.960 1_565 S
C992 C993 1.391 1_556 S
C992 C994 1.394 . S
C992 H1008 0.931 . S
C993 C992 1.391 1_554 S
C993 C997 1.376 . S
C994 C992 1.394 . S
C994 C995 1.369 . S
C994 C998 1.531 . S
C995 C994 1.369 . S
C995 C996 1.410 1_556 S
C995 C1003 1.503 . S
C996 C995 1.410 1_554 S
C996 C997 1.392 . S
C996 C999 1.511 . S
C997 C993 1.376 . S
C997 C996 1.392 . S
C997 H1009 0.929 . S
C998 C994 1.531 . S
C998 H1010 0.960 . S
C998 H1011 0.962 . S
C998 H1012 0.960 . S
C999 C996 1.511 . S
C999 H1013 0.961 . S
C999 H1014 0.961 . S
C999 H1015 0.961 . S
C1000 C1001 1.370 1_554 S
C1000 C1002 1.363 . S
C1000 H1016 0.931 . S
C1001 C1000 1.370 1_556 S
C1001 C1005 1.408 . S
C1002 C1000 1.363 . S
C1002 C1003 1.370 1_554 S
C1002 C1006 1.524 . S
C1003 C995 1.503 . S
C1003 C1002 1.370 1_556 S
C1003 C1004 1.403 . S
C1004 C1003 1.403 . S
C1004 C1005 1.404 . S
C1004 C1007 1.539 . S
C1005 C1001 1.408 . S
C1005 C1004 1.404 . S
C1005 H1017 0.930 . S
C1006 C1002 1.524 . S
C1006 H1018 0.956 . S
C1006 H1019 0.961 . S
C1006 H1020 0.961 . S
C1007 C1004 1.539 . S
C1007 H1021 0.958 . S
C1007 H1022 0.961 . S
C1007 H1023 0.960 . S
H1008 C992 0.931 . S
H1009 C997 0.929 . S
H1010 C998 0.960 . S
H1011 C998 0.962 . S
H1012 C998 0.960 . S
H1013 C999 0.961 . S
H1014 C999 0.961 . S
H1015 C999 0.961 . S
H1016 C1000 0.931 . S
H1017 C1005 0.930 . S
H1018 C1006 0.956 . S
H1019 C1006 0.961 . S
H1020 C1006 0.961 . S
H1021 C1007 0.958 . S
H1022 C1007 0.961 . S
H1023 C1007 0.960 . S
C1024 C1025 1.391 . S
C1024 C1026 1.394 . S
C1024 H1040 0.931 1_556 S
C1025 C1024 1.391 . S
C1025 C1029 1.376 . S
C1026 C1024 1.394 . S
C1026 C1027 1.369 . S
C1026 C1030 1.531 1_556 S
C1027 C1026 1.369 . S
C1027 C1028 1.410 . S
C1027 C1035 1.503 1_545 S
C1028 C1027 1.410 . S
C1028 C1029 1.392 . S
C1028 C1031 1.511 . S
C1029 C1025 1.376 . S
C1029 C1028 1.392 . S
C1029 H1041 0.929 . S
C1030 C1026 1.531 1_554 S
C1030 H1042 0.960 1_544 S
C1030 H1043 0.962 . S
C1030 H1044 0.960 1_554 S
C1031 C1028 1.511 . S
C1031 H1045 0.961 . S
C1031 H1046 0.961 1_545 S
C1031 H1047 0.961 . S
C1032 C1033 1.370 . S
C1032 C1034 1.363 . S
C1032 H1048 0.931 . S
C1033 C1032 1.370 . S
C1033 C1037 1.408 1_554 S
C1034 C1032 1.363 . S
C1034 C1035 1.370 1_554 S
C1034 C1038 1.524 . S
C1035 C1027 1.503 1_565 S
C1035 C1034 1.370 1_556 S
C1035 C1036 1.403 . S
C1036 C1035 1.403 . S
C1036 C1037 1.404 . S
C1036 C1039 1.539 . S
C1037 C1033 1.408 1_556 S
C1037 C1036 1.404 . S
C1037 H1049 0.930 . S
C1038 C1034 1.524 . S
C1038 H1050 0.956 1_565 S
C1038 H1051 0.961 1_565 S
C1038 H1052 0.961 . S
C1039 C1036 1.539 . S
C1039 H1053 0.958 . S
C1039 H1054 0.961 . S
C1039 H1055 0.960 . S
H1040 C1024 0.931 1_554 S
H1041 C1029 0.929 . S
H1042 C1030 0.960 1_566 S
H1043 C1030 0.962 . S
H1044 C1030 0.960 1_556 S
H1045 C1031 0.961 . S
H1046 C1031 0.961 1_565 S
H1047 C1031 0.961 . S
H1048 C1032 0.931 . S
H1049 C1037 0.930 . S
H1050 C1038 0.956 1_545 S
H1051 C1038 0.961 1_545 S
H1052 C1038 0.961 . S
H1053 C1039 0.958 . S
H1054 C1039 0.961 . S
H1055 C1039 0.960 . S
C1056 C1057 1.391 . S
C1056 C1058 1.394 . S
C1056 H1072 0.931 . S
C1057 C1056 1.391 . S
C1057 C1061 1.376 . S
C1058 C1056 1.394 . S
C1058 C1059 1.369 . S
C1058 C1062 1.531 . S
C1059 C1058 1.369 . S
C1059 C1060 1.410 . S
C1059 C1067 1.503 1_554 S
C1060 C1059 1.410 . S
C1060 C1061 1.392 . S
C1060 C1063 1.511 . S
C1061 C1057 1.376 . S
C1061 C1060 1.392 . S
C1061 H1073 0.929 . S
C1062 C1058 1.531 . S
C1062 H1074 0.960 1_554 S
C1062 H1075 0.962 . S
C1062 H1076 0.960 . S
C1063 C1060 1.511 . S
C1063 H1077 0.961 . S
C1063 H1078 0.961 1_554 S
C1063 H1079 0.961 . S
C1064 C1065 1.370 . S
C1064 C1066 1.363 . S
C1064 H1080 0.931 . S
C1065 C1064 1.370 . S
C1065 C1069 1.408 . S
C1066 C1064 1.363 . S
C1066 C1067 1.370 . S
C1066 C1070 1.524 . S
C1067 C1059 1.503 1_556 S
C1067 C1066 1.370 . S
C1067 C1068 1.403 . S
C1068 C1067 1.403 . S
C1068 C1069 1.404 . S
C1068 C1071 1.539 . S
C1069 C1065 1.408 . S
C1069 C1068 1.404 . S
C1069 H1081 0.930 . S
C1070 C1066 1.524 . S
C1070 H1082 0.956 1_556 S
C1070 H1083 0.961 1_556 S
C1070 H1084 0.961 . S
C1071 C1068 1.539 . S
C1071 H1085 0.958 . S
C1071 H1086 0.961 . S
C1071 H1087 0.960 . S
H1072 C1056 0.931 . S
H1073 C1061 0.929 . S
H1074 C1062 0.960 1_556 S
H1075 C1062 0.962 . S
H1076 C1062 0.960 . S
H1077 C1063 0.961 . S
H1078 C1063 0.961 1_556 S
H1079 C1063 0.961 . S
H1080 C1064 0.931 . S
H1081 C1069 0.930 . S
H1082 C1070 0.956 1_554 S
H1083 C1070 0.961 1_554 S
H1084 C1070 0.961 . S
H1085 C1071 0.958 . S
H1086 C1071 0.961 . S
H1087 C1071 0.960 . S
C1088 C1089 1.391 . S
C1088 C1090 1.394 . S
C1088 H1104 0.931 . S
C1089 C1088 1.391 . S
C1089 C1093 1.376 . S
C1090 C1088 1.394 . S
C1090 C1091 1.369 . S
C1090 C1094 1.531 1_554 S
C1091 C1090 1.369 . S
C1091 C1092 1.410 . S
C1091 C1099 1.503 1_554 S
C1092 C1091 1.410 . S
C1092 C1093 1.392 . S
C1092 C1095 1.511 . S
C1093 C1089 1.376 . S
C1093 C1092 1.392 . S
C1093 H1105 0.929 . S
C1094 C1090 1.531 1_556 S
C1094 H1106 0.960 . S
C1094 H1107 0.962 . S
C1094 H1108 0.960 1_556 S
C1095 C1092 1.511 . S
C1095 H1109 0.961 . S
C1095 H1110 0.961 . S
C1095 H1111 0.961 . S
C1096 C1097 1.370 . S
C1096 C1098 1.363 . S
C1096 H1112 0.931 . S
C1097 C1096 1.370 . S
C1097 C1101 1.408 . S
C1098 C1096 1.363 . S
C1098 C1099 1.370 . S
C1098 C1102 1.524 . S
C1099 C1091 1.503 1_556 S
C1099 C1098 1.370 . S
C1099 C1100 1.403 . S
C1100 C1099 1.403 . S
C1100 C1101 1.404 . S
C1100 C1103 1.539 . S
C1101 C1097 1.408 . S
C1101 C1100 1.404 . S
C1101 H1113 0.930 . S
C1102 C1098 1.524 . S
C1102 H1114 0.956 . S
C1102 H1115 0.961 1_556 S
C1102 H1116 0.961 . S
C1103 C1100 1.539 . S
C1103 H1117 0.958 . S
C1103 H1118 0.961 . S
C1103 H1119 0.960 . S
H1104 C1088 0.931 . S
H1105 C1093 0.929 . S
H1106 C1094 0.960 . S
H1107 C1094 0.962 . S
H1108 C1094 0.960 1_554 S
H1109 C1095 0.961 . S
H1110 C1095 0.961 . S
H1111 C1095 0.961 . S
H1112 C1096 0.931 . S
H1113 C1101 0.930 . S
H1114 C1102 0.956 . S
H1115 C1102 0.961 1_554 S
H1116 C1102 0.961 . S
H1117 C1103 0.958 . S
H1118 C1103 0.961 . S
H1119 C1103 0.960 . S
C1120 C1121 1.391 . S
C1120 C1122 1.394 . S
C1120 H1136 0.931 . S
C1121 C1120 1.391 . S
C1121 C1125 1.376 . S
C1122 C1120 1.394 . S
C1122 C1123 1.369 . S
C1122 C1126 1.531 . S
C1123 C1122 1.369 . S
C1123 C1124 1.410 . S
C1123 C1131 1.503 1_554 S
C1124 C1123 1.410 . S
C1124 C1125 1.392 . S
C1124 C1127 1.511 . S
C1125 C1121 1.376 . S
C1125 C1124 1.392 . S
C1125 H1137 0.929 . S
C1126 C1122 1.531 . S
C1126 H1138 0.960 . S
C1126 H1139 0.962 . S
C1126 H1140 0.960 . S
C1127 C1124 1.511 . S
C1127 H1141 0.961 . S
C1127 H1142 0.961 1_554 S
C1127 H1143 0.961 . S
C1128 C1129 1.370 . S
C1128 C1130 1.363 . S
C1128 H1144 0.931 . S
C1129 C1128 1.370 . S
C1129 C1133 1.408 . S
C1130 C1128 1.363 . S
C1130 C1131 1.370 . S
C1130 C1134 1.524 . S
C1131 C1123 1.503 1_556 S
C1131 C1130 1.370 . S
C1131 C1132 1.403 . S
C1132 C1131 1.403 . S
C1132 C1133 1.404 . S
C1132 C1135 1.539 . S
C1133 C1129 1.408 . S
C1133 C1132 1.404 . S
C1133 H1145 0.930 . S
C1134 C1130 1.524 . S
C1134 H1146 0.956 1_556 S
C1134 H1147 0.961 1_556 S
C1134 H1148 0.961 . S
C1135 C1132 1.539 . S
C1135 H1149 0.958 1_556 S
C1135 H1150 0.961 . S
C1135 H1151 0.960 1_556 S
H1136 C1120 0.931 . S
H1137 C1125 0.929 . S
H1138 C1126 0.960 . S
H1139 C1126 0.962 . S
H1140 C1126 0.960 . S
H1141 C1127 0.961 . S
H1142 C1127 0.961 1_556 S
H1143 C1127 0.961 . S
H1144 C1128 0.931 . S
H1145 C1133 0.930 . S
H1146 C1134 0.956 1_554 S
H1147 C1134 0.961 1_554 S
H1148 C1134 0.961 . S
H1149 C1135 0.958 1_554 S
H1150 C1135 0.961 . S
H1151 C1135 0.960 1_554 S
C1152 C1153 1.391 . S
C1152 C1154 1.394 . S
C1152 H1168 0.931 . S
C1153 C1152 1.391 . S
C1153 C1157 1.376 . S
C1154 C1152 1.394 . S
C1154 C1155 1.369 . S
C1154 C1158 1.531 . S
C1155 C1154 1.369 . S
C1155 C1156 1.410 . S
C1155 C1163 1.503 1_556 S
C1156 C1155 1.410 . S
C1156 C1157 1.392 . S
C1156 C1159 1.511 . S
C1157 C1153 1.376 . S
C1157 C1156 1.392 . S
C1157 H1169 0.929 . S
C1158 C1154 1.531 . S
C1158 H1170 0.960 1_556 S
C1158 H1171 0.962 1_556 S
C1158 H1172 0.960 . S
C1159 C1156 1.511 . S
C1159 H1173 0.961 . S
C1159 H1174 0.961 1_556 S
C1159 H1175 0.961 . S
C1160 C1161 1.370 . S
C1160 C1162 1.363 . S
C1160 H1176 0.931 . S
C1161 C1160 1.370 . S
C1161 C1165 1.408 . S
C1162 C1160 1.363 . S
C1162 C1163 1.370 . S
C1162 C1166 1.524 . S
C1163 C1155 1.503 1_554 S
C1163 C1162 1.370 . S
C1163 C1164 1.403 . S
C1164 C1163 1.403 . S
C1164 C1165 1.404 . S
C1164 C1167 1.539 . S
C1165 C1161 1.408 . S
C1165 C1164 1.404 . S
C1165 H1177 0.930 . S
C1166 C1162 1.524 . S
C1166 H1178 0.956 . S
C1166 H1179 0.961 . S
C1166 H1180 0.961 . S
C1167 C1164 1.539 . S
C1167 H1181 0.958 . S
C1167 H1182 0.961 . S
C1167 H1183 0.960 1_554 S
H1168 C1152 0.931 . S
H1169 C1157 0.929 . S
H1170 C1158 0.960 1_554 S
H1171 C1158 0.962 1_554 S
H1172 C1158 0.960 . S
H1173 C1159 0.961 . S
H1174 C1159 0.961 1_554 S
H1175 C1159 0.961 . S
H1176 C1160 0.931 . S
H1177 C1165 0.930 . S
H1178 C1166 0.956 . S
H1179 C1166 0.961 . S
H1180 C1166 0.961 . S
H1181 C1167 0.958 . S
H1182 C1167 0.961 . S
H1183 C1167 0.960 1_556 S
C1184 C1185 1.391 . S
C1184 C1186 1.394 . S
C1184 H1200 0.931 . S
C1185 C1184 1.391 . S
C1185 C1189 1.376 . S
C1186 C1184 1.394 . S
C1186 C1187 1.369 . S
C1186 C1190 1.531 . S
C1187 C1186 1.369 . S
C1187 C1188 1.410 . S
C1187 C1195 1.503 . S
C1188 C1187 1.410 . S
C1188 C1189 1.392 . S
C1188 C1191 1.511 . S
C1189 C1185 1.376 . S
C1189 C1188 1.392 . S
C1189 H1201 0.929 . S
C1190 C1186 1.531 . S
C1190 H1202 0.960 . S
C1190 H1203 0.962 . S
C1190 H1204 0.960 . S
C1191 C1188 1.511 . S
C1191 H1205 0.961 . S
C1191 H1206 0.961 . S
C1191 H1207 0.961 . S
C1192 C1193 1.370 . S
C1192 C1194 1.363 . S
C1192 H1208 0.931 . S
C1193 C1192 1.370 . S
C1193 C1197 1.408 . S
C1194 C1192 1.363 . S
C1194 C1195 1.370 . S
C1194 C1198 1.524 . S
C1195 C1187 1.503 . S
C1195 C1194 1.370 . S
C1195 C1196 1.403 . S
C1196 C1195 1.403 . S
C1196 C1197 1.404 . S
C1196 C1199 1.539 . S
C1197 C1193 1.408 . S
C1197 C1196 1.404 . S
C1197 H1209 0.930 . S
C1198 C1194 1.524 . S
C1198 H1210 0.956 . S
C1198 H1211 0.961 . S
C1198 H1212 0.961 . S
C1199 C1196 1.539 . S
C1199 H1213 0.958 . S
C1199 H1214 0.961 . S
C1199 H1215 0.960 . S
H1200 C1184 0.931 . S
H1201 C1189 0.929 . S
H1202 C1190 0.960 . S
H1203 C1190 0.962 . S
H1204 C1190 0.960 . S
H1205 C1191 0.961 . S
H1206 C1191 0.961 . S
H1207 C1191 0.961 . S
H1208 C1192 0.931 . S
H1209 C1197 0.930 . S
H1210 C1198 0.956 . S
H1211 C1198 0.961 . S
H1212 C1198 0.961 . S
H1213 C1199 0.958 . S
H1214 C1199 0.961 . S
H1215 C1199 0.960 . S
C1216 C1217 1.391 . S
C1216 C1218 1.394 . S
C1216 H1232 0.931 . S
C1217 C1216 1.391 . S
C1217 C1221 1.376 . S
C1218 C1216 1.394 . S
C1218 C1219 1.369 . S
C1218 C1222 1.531 . S
C1219 C1218 1.369 . S
C1219 C1220 1.410 . S
C1219 C1227 1.503 . S
C1220 C1219 1.410 . S
C1220 C1221 1.392 . S
C1220 C1223 1.511 . S
C1221 C1217 1.376 . S
C1221 C1220 1.392 . S
C1221 H1233 0.929 . S
C1222 C1218 1.531 . S
C1222 H1234 0.960 . S
C1222 H1235 0.962 . S
C1222 H1236 0.960 . S
C1223 C1220 1.511 . S
C1223 H1237 0.961 . S
C1223 H1238 0.961 . S
C1223 H1239 0.961 . S
C1224 C1225 1.370 . S
C1224 C1226 1.363 . S
C1224 H1240 0.931 . S
C1225 C1224 1.370 . S
C1225 C1229 1.408 . S
C1226 C1224 1.363 . S
C1226 C1227 1.370 . S
C1226 C1230 1.524 . S
C1227 C1219 1.503 . S
C1227 C1226 1.370 . S
C1227 C1228 1.403 . S
C1228 C1227 1.403 . S
C1228 C1229 1.404 . S
C1228 C1231 1.539 . S
C1229 C1225 1.408 . S
C1229 C1228 1.404 . S
C1229 H1241 0.930 . S
C1230 C1226 1.524 . S
C1230 H1242 0.956 . S
C1230 H1243 0.961 . S
C1230 H1244 0.961 . S
C1231 C1228 1.539 . S
C1231 H1245 0.958 . S
C1231 H1246 0.961 . S
C1231 H1247 0.960 . S
H1232 C1216 0.931 . S
H1233 C1221 0.929 . S
H1234 C1222 0.960 . S
H1235 C1222 0.962 . S
H1236 C1222 0.960 . S
H1237 C1223 0.961 . S
H1238 C1223 0.961 . S
H1239 C1223 0.961 . S
H1240 C1224 0.931 . S
H1241 C1229 0.930 . S
H1242 C1230 0.956 . S
H1243 C1230 0.961 . S
H1244 C1230 0.961 . S
H1245 C1231 0.958 . S
H1246 C1231 0.961 . S
H1247 C1231 0.960 . S
C1248 C1249 1.391 . S
C1248 C1250 1.394 . S
C1248 H1264 0.931 . S
C1249 C1248 1.391 . S
C1249 C1253 1.376 . S
C1250 C1248 1.394 . S
C1250 C1251 1.369 . S
C1250 C1254 1.531 . S
C1251 C1250 1.369 . S
C1251 C1252 1.410 . S
C1251 C1259 1.503 . S
C1252 C1251 1.410 . S
C1252 C1253 1.392 . S
C1252 C1255 1.511 . S
C1253 C1249 1.376 . S
C1253 C1252 1.392 . S
C1253 H1265 0.929 . S
C1254 C1250 1.531 . S
C1254 H1266 0.960 . S
C1254 H1267 0.962 . S
C1254 H1268 0.960 . S
C1255 C1252 1.511 . S
C1255 H1269 0.961 . S
C1255 H1270 0.961 . S
C1255 H1271 0.961 . S
C1256 C1257 1.370 . S
C1256 C1258 1.363 . S
C1256 H1272 0.931 . S
C1257 C1256 1.370 . S
C1257 C1261 1.408 . S
C1258 C1256 1.363 . S
C1258 C1259 1.370 . S
C1258 C1262 1.524 . S
C1259 C1251 1.503 . S
C1259 C1258 1.370 . S
C1259 C1260 1.403 . S
C1260 C1259 1.403 . S
C1260 C1261 1.404 . S
C1260 C1263 1.539 . S
C1261 C1257 1.408 . S
C1261 C1260 1.404 . S
C1261 H1273 0.930 . S
C1262 C1258 1.524 . S
C1262 H1274 0.956 . S
C1262 H1275 0.961 . S
C1262 H1276 0.961 . S
C1263 C1260 1.539 . S
C1263 H1277 0.958 . S
C1263 H1278 0.961 . S
C1263 H1279 0.960 . S
H1264 C1248 0.931 . S
H1265 C1253 0.929 . S
H1266 C1254 0.960 . S
H1267 C1254 0.962 . S
H1268 C1254 0.960 . S
H1269 C1255 0.961 . S
H1270 C1255 0.961 . S
H1271 C1255 0.961 . S
H1272 C1256 0.931 . S
H1273 C1261 0.930 . S
H1274 C1262 0.956 . S
H1275 C1262 0.961 . S
H1276 C1262 0.961 . S
H1277 C1263 0.958 . S
H1278 C1263 0.961 . S
H1279 C1263 0.960 . S
C1280 C1281 1.391 . S
C1280 C1282 1.394 . S
C1280 H1296 0.931 . S
C1281 C1280 1.391 . S
C1281 C1285 1.376 . S
C1282 C1280 1.394 . S
C1282 C1283 1.369 . S
C1282 C1286 1.531 . S
C1283 C1282 1.369 . S
C1283 C1284 1.410 . S
C1283 C1291 1.503 . S
C1284 C1283 1.410 . S
C1284 C1285 1.392 . S
C1284 C1287 1.511 . S
C1285 C1281 1.376 . S
C1285 C1284 1.392 . S
C1285 H1297 0.929 . S
C1286 C1282 1.531 . S
C1286 H1298 0.960 . S
C1286 H1299 0.962 . S
C1286 H1300 0.960 . S
C1287 C1284 1.511 . S
C1287 H1301 0.961 . S
C1287 H1302 0.961 . S
C1287 H1303 0.961 . S
C1288 C1289 1.370 . S
C1288 C1290 1.363 . S
C1288 H1304 0.931 . S
C1289 C1288 1.370 . S
C1289 C1293 1.408 . S
C1290 C1288 1.363 . S
C1290 C1291 1.370 . S
C1290 C1294 1.524 . S
C1291 C1283 1.503 . S
C1291 C1290 1.370 . S
C1291 C1292 1.403 . S
C1292 C1291 1.403 . S
C1292 C1293 1.404 . S
C1292 C1295 1.539 . S
C1293 C1289 1.408 . S
C1293 C1292 1.404 . S
C1293 H1305 0.930 . S
C1294 C1290 1.524 . S
C1294 H1306 0.956 . S
C1294 H1307 0.961 . S
C1294 H1308 0.961 . S
C1295 C1292 1.539 . S
C1295 H1309 0.958 . S
C1295 H1310 0.961 . S
C1295 H1311 0.960 . S
H1296 C1280 0.931 . S
H1297 C1285 0.929 . S
H1298 C1286 0.960 . S
H1299 C1286 0.962 . S
H1300 C1286 0.960 . S
H1301 C1287 0.961 . S
H1302 C1287 0.961 . S
H1303 C1287 0.961 . S
H1304 C1288 0.931 . S
H1305 C1293 0.930 . S
H1306 C1294 0.956 . S
H1307 C1294 0.961 . S
H1308 C1294 0.961 . S
H1309 C1295 0.958 . S
H1310 C1295 0.961 . S
H1311 C1295 0.960 . S
C1312 C1313 1.391 . S
C1312 C1314 1.394 . S
C1312 H1328 0.931 . S
C1313 C1312 1.391 . S
C1313 C1317 1.376 . S
C1314 C1312 1.394 . S
C1314 C1315 1.369 . S
C1314 C1318 1.531 . S
C1315 C1314 1.369 . S
C1315 C1316 1.410 . S
C1315 C1323 1.503 1_455 S
C1316 C1315 1.410 . S
C1316 C1317 1.392 . S
C1316 C1319 1.511 . S
C1317 C1313 1.376 . S
C1317 C1316 1.392 . S
C1317 H1329 0.929 . S
C1318 C1314 1.531 . S
C1318 H1330 0.960 1_455 S
C1318 H1331 0.962 . S
C1318 H1332 0.960 . S
C1319 C1316 1.511 . S
C1319 H1333 0.961 . S
C1319 H1334 0.961 1_455 S
C1319 H1335 0.961 . S
C1320 C1321 1.370 . S
C1320 C1322 1.363 . S
C1320 H1336 0.931 . S
C1321 C1320 1.370 . S
C1321 C1325 1.408 . S
C1322 C1320 1.363 . S
C1322 C1323 1.370 . S
C1322 C1326 1.524 . S
C1323 C1315 1.503 1_655 S
C1323 C1322 1.370 . S
C1323 C1324 1.403 . S
C1324 C1323 1.403 . S
C1324 C1325 1.404 . S
C1324 C1327 1.539 . S
C1325 C1321 1.408 . S
C1325 C1324 1.404 . S
C1325 H1337 0.930 . S
C1326 C1322 1.524 . S
C1326 H1338 0.982 . S
C1326 H1339 0.919 1_655 S
C1326 H1340 0.961 . S
C1327 C1324 1.539 . S
C1327 H1341 0.958 . S
C1327 H1342 0.961 . S
C1327 H1343 0.967 . S
H1328 C1312 0.931 . S
H1329 C1317 0.929 . S
H1330 C1318 0.960 1_655 S
H1331 C1318 0.962 . S
H1332 C1318 0.960 . S
H1333 C1319 0.961 . S
H1334 C1319 0.961 1_655 S
H1335 C1319 0.961 . S
H1336 C1320 0.931 . S
H1337 C1325 0.930 . S
H1338 C1326 0.982 . S
H1339 C1326 0.919 1_455 S
H1340 C1326 0.961 . S
H1341 C1327 0.958 . S
H1342 C1327 0.961 . S
H1343 C1327 0.967 . S
C1344 C1345 1.391 . S
C1344 C1346 1.394 . S
C1344 H1360 0.931 . S
C1345 C1344 1.391 . S
C1345 C1349 1.376 . S
C1346 C1344 1.394 . S
C1346 C1347 1.369 . S
C1346 C1350 1.531 . S
C1347 C1346 1.369 . S
C1347 C1348 1.410 . S
C1347 C1355 1.503 1_655 S
C1348 C1347 1.410 . S
C1348 C1349 1.392 . S
C1348 C1351 1.511 . S
C1349 C1345 1.376 . S
C1349 C1348 1.392 . S
C1349 H1361 0.929 . S
C1350 C1346 1.531 . S
C1350 H1362 0.960 1_655 S
C1350 H1363 0.962 . S
C1350 H1364 0.960 . S
C1351 C1348 1.511 . S
C1351 H1365 0.961 . S
C1351 H1366 0.961 1_655 S
C1351 H1367 0.961 . S
C1352 C1353 1.370 . S
C1352 C1354 1.363 . S
C1352 H1368 0.931 . S
C1353 C1352 1.370 . S
C1353 C1357 1.408 . S
C1354 C1352 1.363 . S
C1354 C1355 1.370 . S
C1354 C1358 1.524 . S
C1355 C1347 1.503 1_455 S
C1355 C1354 1.370 . S
C1355 C1356 1.403 . S
C1356 C1355 1.403 . S
C1356 C1357 1.404 . S
C1356 C1359 1.539 . S
C1357 C1353 1.408 . S
C1357 C1356 1.404 . S
C1357 H1369 0.930 . S
C1358 C1354 1.524 . S
C1358 H1370 0.982 . S
C1358 H1371 0.919 1_455 S
C1358 H1372 0.961 . S
C1359 C1356 1.539 . S
C1359 H1373 0.958 . S
C1359 H1374 0.961 . S
C1359 H1375 0.966 . S
H1360 C1344 0.931 . S
H1361 C1349 0.929 . S
H1362 C1350 0.960 1_455 S
H1363 C1350 0.962 . S
H1364 C1350 0.960 . S
H1365 C1351 0.961 . S
H1366 C1351 0.961 1_455 S
H1367 C1351 0.961 . S
H1368 C1352 0.931 . S
H1369 C1357 0.930 . S
H1370 C1358 0.982 . S
H1371 C1358 0.919 1_655 S
H1372 C1358 0.961 . S
H1373 C1359 0.958 . S
H1374 C1359 0.961 . S
H1375 C1359 0.966 . S
C1376 C1377 1.391 . S
C1376 C1378 1.394 . S
C1376 H1392 0.931 . S
C1377 C1376 1.391 . S
C1377 C1381 1.376 . S
C1378 C1376 1.394 . S
C1378 C1379 1.369 . S
C1378 C1382 1.532 . S
C1379 C1378 1.369 . S
C1379 C1380 1.410 . S
C1379 C1387 1.503 . S
C1380 C1379 1.410 . S
C1380 C1381 1.392 . S
C1380 C1383 1.511 . S
C1381 C1377 1.376 . S
C1381 C1380 1.392 . S
C1381 H1393 0.929 . S
C1382 C1378 1.532 . S
C1382 H1394 0.959 . S
C1382 H1395 0.961 1_556 S
C1382 H1396 0.959 1_556 S
C1383 C1380 1.511 . S
C1383 H1397 0.961 . S
C1383 H1398 0.961 . S
C1383 H1399 0.961 . S
C1384 C1385 1.370 . S
C1384 C1386 1.363 . S
C1384 H1400 0.931 . S
C1385 C1384 1.370 . S
C1385 C1389 1.408 . S
C1386 C1384 1.363 . S
C1386 C1387 1.370 . S
C1386 C1390 1.524 . S
C1387 C1379 1.503 . S
C1387 C1386 1.370 . S
C1387 C1388 1.403 . S
C1388 C1387 1.403 . S
C1388 C1389 1.404 . S
C1388 C1391 1.539 . S
C1389 C1385 1.408 . S
C1389 C1388 1.404 . S
C1389 H1401 0.930 . S
C1390 C1386 1.524 . S
C1390 H1402 0.956 . S
C1390 H1403 0.961 . S
C1390 H1404 0.961 . S
C1391 C1388 1.539 . S
C1391 H1405 0.958 . S
C1391 H1406 0.961 . S
C1391 H1407 0.960 . S
H1392 C1376 0.931 . S
H1393 C1381 0.929 . S
H1394 C1382 0.959 . S
H1395 C1382 0.961 1_554 S
H1396 C1382 0.959 1_554 S
H1397 C1383 0.961 . S
H1398 C1383 0.961 . S
H1399 C1383 0.961 . S
H1400 C1384 0.931 . S
H1401 C1389 0.930 . S
H1402 C1390 0.956 . S
H1403 C1390 0.961 . S
H1404 C1390 0.961 . S
H1405 C1391 0.958 . S
H1406 C1391 0.961 . S
H1407 C1391 0.960 . S
C1408 C1409 1.391 . S
C1408 C1410 1.394 . S
C1408 H1424 0.931 . S
C1409 C1408 1.391 . S
C1409 C1413 1.376 . S
C1410 C1408 1.394 . S
C1410 C1411 1.369 . S
C1410 C1414 1.531 . S
C1411 C1410 1.369 . S
C1411 C1412 1.410 . S
C1411 C1419 1.503 . S
C1412 C1411 1.410 . S
C1412 C1413 1.392 . S
C1412 C1415 1.511 . S
C1413 C1409 1.376 . S
C1413 C1412 1.392 . S
C1413 H1425 0.929 . S
C1414 C1410 1.531 . S
C1414 H1426 0.960 . S
C1414 H1427 0.962 . S
C1414 H1428 0.960 . S
C1415 C1412 1.511 . S
C1415 H1429 0.961 . S
C1415 H1430 0.961 . S
C1415 H1431 0.961 . S
C1416 C1417 1.370 . S
C1416 C1418 1.363 . S
C1416 H1432 0.931 . S
C1417 C1416 1.370 . S
C1417 C1421 1.408 . S
C1418 C1416 1.363 . S
C1418 C1419 1.370 . S
C1418 C1422 1.524 . S
C1419 C1411 1.503 . S
C1419 C1418 1.370 . S
C1419 C1420 1.403 . S
C1420 C1419 1.403 . S
C1420 C1421 1.404 . S
C1420 C1423 1.539 . S
C1421 C1417 1.408 . S
C1421 C1420 1.404 . S
C1421 H1433 0.930 . S
C1422 C1418 1.524 . S
C1422 H1434 0.956 . S
C1422 H1435 0.961 . S
C1422 H1436 0.961 . S
C1423 C1420 1.539 . S
C1423 H1437 0.958 . S
C1423 H1438 0.961 . S
C1423 H1439 0.960 . S
H1424 C1408 0.931 . S
H1425 C1413 0.929 . S
H1426 C1414 0.960 . S
H1427 C1414 0.962 . S
H1428 C1414 0.960 . S
H1429 C1415 0.961 . S
H1430 C1415 0.961 . S
H1431 C1415 0.961 . S
H1432 C1416 0.931 . S
H1433 C1421 0.930 . S
H1434 C1422 0.956 . S
H1435 C1422 0.961 . S
H1436 C1422 0.961 . S
H1437 C1423 0.958 . S
H1438 C1423 0.961 . S
H1439 C1423 0.960 . S
C673 C58 1.595 . S
C681 C657 1.530 . S
C705 C562 1.581 . S
C713 C153 1.531 . S
C737 C489 1.601 . S
C745 C226 1.526 . S
C769 C394 1.601 . S
C777 C321 1.525 . S
C801 C231 2.439 . S
C809 C63 2.448 . S
C833 C147 0.687 . S
C841 C315 0.634 . S
C865 C326 2.455 . S
C873 C158 2.457 . S
C897 C242 0.577 . S
C905 C74 0.621 . S
C929 C399 2.454 . S
C937 C567 2.457 . S
C961 C483 0.613 . S
C969 C651 0.593 . S
C993 C662 2.471 . S
C1001 C494 2.467 . S
C1025 C578 0.609 . S
C1033 C410 0.613 . S
C1057 C56 1.777 . S
C1065 C67 1.754 . S
C1089 C151 1.760 . S
C1097 C140 1.763 . S
C1121 C235 1.752 . S
C1129 C224 1.763 . S
C1153 C319 1.740 . S
C1161 C308 1.770 . S
C1185 C403 1.777 . S
C1193 C392 1.754 . S
C1217 C487 1.760 . S
C1225 C476 1.760 . S
C1249 C560 1.777 . S
C1257 C571 1.754 . S
C1281 C655 1.771 . S
C1289 C644 1.757 . S
C1313 C69 2.011 . S
C1321 C142 2.010 . S
C1345 C310 2.005 . S
C1353 C237 2.008 . S
C1377 C405 2.036 . S
C1385 C478 2.019 . S
C1409 C646 1.972 . S
C1417 C573 1.994 . S
