# Generated by pormake.
# Topology ukh, (4)-cn, num edge types: 1
# Building blocks:
#     Node 0, Type 0, BuildingBlock: TATPOV_clean_sbu_0, # of connection points: 4
#     Node 1, Type 0, BuildingBlock: TATPOV_clean_sbu_0, # of connection points: 4
#     Node 2, Type 0, BuildingBlock: TATPOV_clean_sbu_0, # of connection points: 4
#     Node 3, Type 0, BuildingBlock: TATPOV_clean_sbu_0, # of connection points: 4
#     Node 4, Type 0, BuildingBlock: TATPOV_clean_sbu_0, # of connection points: 4
#     Node 5, Type 0, BuildingBlock: TATPOV_clean_sbu_0, # of connection points: 4
#     Node 6, Type 0, BuildingBlock: TATPOV_clean_sbu_0, # of connection points: 4
#     Node 7, Type 0, BuildingBlock: TATPOV_clean_sbu_0, # of connection points: 4
#     Node 8, Type 0, BuildingBlock: TATPOV_clean_sbu_0, # of connection points: 4
#     Node 9, Type 0, BuildingBlock: TATPOV_clean_sbu_0, # of connection points: 4
#     Node 10, Type 0, BuildingBlock: TATPOV_clean_sbu_0, # of connection points: 4
#     Node 11, Type 0, BuildingBlock: TATPOV_clean_sbu_0, # of connection points: 4
#     Edge 12, Type (0, 0), BuildingBlock: MIFKUJ_clean_linker_0, # of connection points: 2
#     Edge 13, Type (0, 0), BuildingBlock: MIFKUJ_clean_linker_0, # of connection points: 2
#     Edge 14, Type (0, 0), BuildingBlock: MIFKUJ_clean_linker_0, # of connection points: 2
#     Edge 15, Type (0, 0), BuildingBlock: MIFKUJ_clean_linker_0, # of connection points: 2
#     Edge 16, Type (0, 0), BuildingBlock: MIFKUJ_clean_linker_0, # of connection points: 2
#     Edge 17, Type (0, 0), BuildingBlock: MIFKUJ_clean_linker_0, # of connection points: 2
#     Edge 18, Type (0, 0), BuildingBlock: MIFKUJ_clean_linker_0, # of connection points: 2
#     Edge 19, Type (0, 0), BuildingBlock: MIFKUJ_clean_linker_0, # of connection points: 2
#     Edge 20, Type (0, 0), BuildingBlock: MIFKUJ_clean_linker_0, # of connection points: 2
#     Edge 21, Type (0, 0), BuildingBlock: MIFKUJ_clean_linker_0, # of connection points: 2
#     Edge 22, Type (0, 0), BuildingBlock: MIFKUJ_clean_linker_0, # of connection points: 2
#     Edge 23, Type (0, 0), BuildingBlock: MIFKUJ_clean_linker_0, # of connection points: 2
#     Edge 24, Type (0, 0), BuildingBlock: MIFKUJ_clean_linker_0, # of connection points: 2
#     Edge 25, Type (0, 0), BuildingBlock: MIFKUJ_clean_linker_0, # of connection points: 2
#     Edge 26, Type (0, 0), BuildingBlock: MIFKUJ_clean_linker_0, # of connection points: 2
#     Edge 27, Type (0, 0), BuildingBlock: MIFKUJ_clean_linker_0, # of connection points: 2
#     Edge 28, Type (0, 0), BuildingBlock: MIFKUJ_clean_linker_0, # of connection points: 2
#     Edge 29, Type (0, 0), BuildingBlock: MIFKUJ_clean_linker_0, # of connection points: 2
#     Edge 30, Type (0, 0), BuildingBlock: MIFKUJ_clean_linker_0, # of connection points: 2
#     Edge 31, Type (0, 0), BuildingBlock: MIFKUJ_clean_linker_0, # of connection points: 2
#     Edge 32, Type (0, 0), BuildingBlock: MIFKUJ_clean_linker_0, # of connection points: 2
#     Edge 33, Type (0, 0), BuildingBlock: MIFKUJ_clean_linker_0, # of connection points: 2
#     Edge 34, Type (0, 0), BuildingBlock: MIFKUJ_clean_linker_0, # of connection points: 2
#     Edge 35, Type (0, 0), BuildingBlock: MIFKUJ_clean_linker_0, # of connection points: 2
# Relax obj value: 0.153
# Max RMSD: 0.200
# Mean RMSD: 0.199
data_MOF--net-ukh--node1-TATPOV_clean_sbu_0--edge1-MIFKUJ_clean_linker_0
_symmetry_space_group_name_H-M    P1
_symmetry_Int_Tables_number       1
_symmetry_cell_setting            triclinic
loop_
_symmetry_equiv_pos_as_xyz
'x, y, z'
_cell_length_a     39.688462
_cell_length_b     39.708108
_cell_length_c     83.785456
_cell_angle_alpha  89.98112
_cell_angle_beta   90.036057
_cell_angle_gamma 119.9844
loop_
_atom_site_label
_atom_site_type_symbol
_atom_site_fract_x
_atom_site_fract_y
_atom_site_fract_z
_atom_type_partial_charge
Zn0 Zn 0.36801 0.26336 0.02797 0.0
Zn1 Zn 0.33597 0.2285 0.05593 0.0
O2 O 0.35633 0.19447 0.04622 0.0
O3 O 0.38034 0.2212 0.02287 0.0
O4 O 0.31653 0.20509 0.07769 0.0
O5 O 0.40668 0.31194 0.03948 0.0
O6 O 0.37619 0.28482 0.06186 0.0
C7 C 0.37237 0.19462 0.03302 0.0
C8 C 0.28529 0.23674 0.03069 0.0
O9 O 0.28822 0.22333 0.04412 0.0
O10 O 0.31508 0.25569 0.02198 0.0
C11 C 0.29674 0.16892 0.08073 0.0
O12 O 0.28649 0.14377 0.06898 0.0
C13 C 0.40249 0.31404 0.05435 0.0
Zn14 Zn 0.10979 0.35769 0.36086 0.0
Zn15 Zn 0.10892 0.32363 0.38852 0.0
O16 O 0.16143 0.33699 0.37826 0.0
O17 O 0.16066 0.36171 0.35484 0.0
O18 O 0.11177 0.30366 0.41034 0.0
O19 O 0.1088 0.40176 0.37225 0.0
O20 O 0.09903 0.36833 0.39441 0.0
C21 C 0.17732 0.35086 0.36479 0.0
C22 C 0.04595 0.27791 0.36409 0.0
O23 O 0.06269 0.27839 0.37715 0.0
O24 O 0.05922 0.30827 0.35554 0.0
C25 C 0.08304 0.29071 0.41987 0.0
O26 O 0.05038 0.28813 0.41495 0.0
C27 C 0.10141 0.39748 0.38704 0.0
Zn28 Zn 0.74197 0.11108 0.69624 0.0
Zn29 Zn 0.77567 0.11188 0.72404 0.0
O30 O 0.81434 0.16425 0.7136 0.0
O31 O 0.78866 0.16201 0.69005 0.0
O32 O 0.79855 0.11497 0.74585 0.0
O33 O 0.69649 0.10956 0.70758 0.0
O34 O 0.72078 0.10118 0.72986 0.0
C35 C 0.81615 0.17936 0.69996 0.0
C36 C 0.7595 0.04851 0.69997 0.0
O37 O 0.77558 0.06595 0.71293 0.0
O38 O 0.74177 0.0608 0.69126 0.0
C39 C 0.78327 0.0857 0.75512 0.0
O40 O 0.75382 0.05294 0.74994 0.0
C41 C 0.69358 0.10263 0.72241 0.0
Zn42 Zn 0.62963 0.75181 0.02256 0.0
Zn43 Zn 0.65976 0.78621 0.05087 0.0
O44 O 0.64401 0.8226 0.03961 0.0
O45 O 0.61635 0.79303 0.01712 0.0
O46 O 0.67612 0.80949 0.0729 0.0
O47 O 0.59071 0.70257 0.03369 0.0
O48 O 0.61659 0.73101 0.05654 0.0
C49 C 0.62704 0.82154 0.02652 0.0
C50 C 0.71179 0.7765 0.02691 0.0
O51 O 0.70734 0.78732 0.04069 0.0
O52 O 0.68355 0.76122 0.01719 0.0
C53 C 0.71035 0.82859 0.07858 0.0
O54 O 0.74025 0.83601 0.0695 0.0
C55 C 0.59186 0.70133 0.04876 0.0
Zn56 Zn 0.87506 0.62674 0.36532 0.0
Zn57 Zn 0.88528 0.66417 0.39314 0.0
O58 O 0.83132 0.65215 0.38506 0.0
O59 O 0.82061 0.61759 0.36316 0.0
O60 O 0.88804 0.68473 0.41535 0.0
O61 O 0.88472 0.58646 0.37547 0.0
O62 O 0.89673 0.61989 0.39772 0.0
C63 C 0.80944 0.6335 0.37332 0.0
C64 C 0.93903 0.70817 0.36595 0.0
O65 O 0.92876 0.70804 0.38037 0.0
O66 O 0.92113 0.67779 0.35743 0.0
C67 C 0.88668 0.71495 0.41925 0.0
O68 O 0.88415 0.73676 0.40805 0.0
C69 C 0.89514 0.59156 0.38995 0.0
Zn70 Zn 0.2435 0.87345 0.6989 0.0
Zn71 Zn 0.21226 0.88233 0.72602 0.0
O72 O 0.17224 0.82843 0.71728 0.0
O73 O 0.19811 0.81935 0.69564 0.0
O74 O 0.18997 0.8835 0.74751 0.0
O75 O 0.29122 0.88163 0.71064 0.0
O76 O 0.26734 0.89378 0.73214 0.0
C77 C 0.17024 0.80732 0.70545 0.0
C78 C 0.22649 0.93769 0.69879 0.0
O79 O 0.21336 0.92607 0.71281 0.0
O80 O 0.24087 0.92072 0.69081 0.0
C81 C 0.20907 0.91108 0.7573 0.0
O82 O 0.24261 0.94056 0.75281 0.0
C83 C 0.29478 0.89183 0.72514 0.0
Zn84 Zn 0.74439 0.6315 0.64091 0.0
Zn85 Zn 0.77941 0.66834 0.61349 0.0
O86 O 0.81654 0.65279 0.62393 0.0
O87 O 0.78761 0.62013 0.64572 0.0
O88 O 0.80464 0.68892 0.59208 0.0
O89 O 0.69683 0.59299 0.62877 0.0
O90 O 0.72442 0.62567 0.60685 0.0
C91 C 0.81642 0.63411 0.63632 0.0
C92 C 0.76583 0.71387 0.63908 0.0
O93 O 0.77943 0.71323 0.62538 0.0
O94 O 0.74967 0.68337 0.6476 0.0
C95 C 0.80813 0.71863 0.58482 0.0
O96 O 0.79557 0.74008 0.59165 0.0
C97 C 0.69533 0.59805 0.61393 0.0
Zn98 Zn 0.11932 0.75757 0.98037 0.0
Zn99 Zn 0.11977 0.79047 0.95201 0.0
O100 O 0.17321 0.82832 0.96221 0.0
O101 O 0.17298 0.80106 0.98513 0.0
O102 O 0.12109 0.81188 0.92996 0.0
O103 O 0.11239 0.70971 0.96914 0.0
O104 O 0.10842 0.7354 0.94641 0.0
C105 C 0.18996 0.82868 0.97527 0.0
C106 C 0.0591 0.77872 0.97705 0.0
O107 O 0.07409 0.79066 0.9633 0.0
O108 O 0.07282 0.7634 0.98639 0.0
C109 C 0.14495 0.84601 0.92509 0.0
O110 O 0.17074 0.87128 0.93506 0.0
C111 C 0.10727 0.70732 0.95419 0.0
Zn112 Zn 0.36239 0.09799 0.30313 0.0
Zn113 Zn 0.32587 0.09825 0.27628 0.0
O114 O 0.34214 0.15098 0.28707 0.0
O115 O 0.37307 0.15146 0.30895 0.0
O116 O 0.3044 0.10287 0.25508 0.0
O117 O 0.4014 0.09037 0.29077 0.0
O118 O 0.36848 0.08638 0.26905 0.0
C119 C 0.3602 0.1679 0.29984 0.0
C120 C 0.28054 0.03745 0.30155 0.0
O121 O 0.28092 0.05255 0.28806 0.0
O122 O 0.3113 0.0512 0.30988 0.0
C123 C 0.28633 0.07403 0.24575 0.0
O124 O 0.2791 0.03948 0.25045 0.0
C125 C 0.39628 0.08472 0.27589 0.0
Zn126 Zn 0.25966 0.36243 0.63975 0.0
Zn127 Zn 0.22436 0.33005 0.6121 0.0
O128 O 0.18629 0.34375 0.62325 0.0
O129 O 0.21481 0.36961 0.64611 0.0
O130 O 0.20134 0.31121 0.59015 0.0
O131 O 0.30616 0.4049 0.62855 0.0
O132 O 0.27909 0.37484 0.60611 0.0
C133 C 0.18623 0.3587 0.63672 0.0
C134 C 0.2408 0.28198 0.63579 0.0
O135 O 0.22514 0.28378 0.62276 0.0
O136 O 0.25801 0.31163 0.64471 0.0
C137 C 0.16547 0.29527 0.58655 0.0
O138 O 0.13987 0.2884 0.59784 0.0
C139 C 0.30771 0.40214 0.61356 0.0
Zn140 Zn 0.88697 0.25636 0.975 0.0
Zn141 Zn 0.88608 0.22389 0.94684 0.0
O142 O 0.83136 0.18882 0.95622 0.0
O143 O 0.8332 0.21298 0.98005 0.0
O144 O 0.88277 0.20142 0.92491 0.0
O145 O 0.89485 0.3047 0.96396 0.0
O146 O 0.90212 0.28058 0.94143 0.0
C147 C 0.81506 0.18737 0.96951 0.0
C148 C 0.94511 0.23252 0.97203 0.0
O149 O 0.92882 0.21887 0.95861 0.0
O150 O 0.93362 0.25082 0.9808 0.0
C151 C 0.8629 0.16546 0.92149 0.0
O152 O 0.84415 0.1402 0.93289 0.0
C153 C 0.90289 0.30848 0.94923 0.0
Zn154 Zn 0.62793 0.88041 0.30274 0.0
Zn155 Zn 0.66334 0.8831 0.27489 0.0
O156 O 0.65178 0.83142 0.28523 0.0
O157 O 0.61928 0.82668 0.30721 0.0
O158 O 0.68112 0.88008 0.25265 0.0
O159 O 0.58681 0.88739 0.29174 0.0
O160 O 0.61803 0.89236 0.26942 0.0
C161 C 0.6341 0.81279 0.29777 0.0
C162 C 0.70951 0.94331 0.29997 0.0
O163 O 0.70846 0.92927 0.28617 0.0
O164 O 0.67957 0.92814 0.30883 0.0
C165 C 0.71516 0.8969 0.24673 0.0
O166 O 0.74512 0.9193 0.25581 0.0
C167 C 0.59039 0.89309 0.27682 0.0
H168 H 0.52907 0.63673 0.03673 0.0
H169 H 0.49396 0.57259 0.04888 0.0
H170 H 0.56265 0.61709 0.09172 0.0
H171 H 0.59832 0.68178 0.07954 0.0
H172 H 0.56433 0.55487 0.08079 0.0
H173 H 0.46549 0.58189 0.09407 0.0
H174 H 0.41992 0.60652 0.09067 0.0
H175 H 0.36143 0.52402 0.05309 0.0
H176 H 0.40697 0.49926 0.05607 0.0
H177 H 0.38636 0.33784 0.08257 0.0
H178 H 0.4188 0.40424 0.09324 0.0
H179 H 0.50264 0.44153 0.055 0.0
H180 H 0.47059 0.37573 0.04434 0.0
H181 H 0.42216 0.46406 0.07703 0.0
H182 H 0.58679 0.51602 0.06538 0.0
H183 H 0.63203 0.49135 0.06973 0.0
H184 H 0.55849 0.4162 0.10691 0.0
H185 H 0.51306 0.4408 0.10298 0.0
C186 C 0.53626 0.63315 0.04886 0.0
C187 C 0.5667 0.66426 0.05712 0.0
C188 C 0.51591 0.59648 0.05585 0.0
C189 C 0.52547 0.59011 0.07126 0.0
C190 C 0.5547 0.62147 0.07985 0.0
C191 C 0.57497 0.65838 0.07287 0.0
C192 C 0.50818 0.54974 0.07726 0.0
C193 C 0.5332 0.53503 0.08027 0.0
C194 C 0.4675 0.52413 0.07716 0.0
C195 C 0.43974 0.5387 0.07531 0.0
C196 C 0.44304 0.56911 0.08502 0.0
C197 C 0.41719 0.58309 0.08317 0.0
C198 C 0.38779 0.56684 0.07168 0.0
C199 C 0.38417 0.53654 0.06201 0.0
C200 C 0.40995 0.52245 0.0638 0.0
C201 C 0.41234 0.36002 0.07671 0.0
C202 C 0.42575 0.35173 0.06253 0.0
C203 C 0.43076 0.3979 0.08281 0.0
C204 C 0.46323 0.42775 0.07498 0.0
C205 C 0.47802 0.41886 0.06141 0.0
C206 C 0.45946 0.38126 0.05523 0.0
C207 C 0.47855 0.46905 0.07928 0.0
C208 C 0.45317 0.48396 0.07817 0.0
C209 C 0.51885 0.49485 0.08132 0.0
C210 C 0.54643 0.48028 0.08386 0.0
C211 C 0.58038 0.49448 0.07458 0.0
C212 C 0.60604 0.48043 0.07695 0.0
C213 C 0.59813 0.45221 0.08858 0.0
C214 C 0.56455 0.438 0.09788 0.0
C215 C 0.5388 0.45196 0.09557 0.0
H216 H 0.61802 0.44136 0.09038 0.0
H217 H 0.36782 0.57772 0.07026 0.0
H218 H 0.13305 0.4752 0.3825 0.0
H219 H 0.10552 0.5153 0.39093 0.0
H220 H 0.01498 0.41731 0.41648 0.0
H221 H 0.04419 0.37817 0.40896 0.0
H222 H 0.04299 0.50433 0.38041 0.0
H223 H 0.96538 0.44211 0.44171 0.0
H224 H 0.97975 0.42203 0.4675 0.0
H225 H 0.10223 0.49383 0.45889 0.0
H226 H 0.08866 0.51478 0.43316 0.0
H227 H 0.88083 0.5201 0.38037 0.0
H228 H 0.91881 0.48921 0.3872 0.0
H229 H 0.98436 0.5797 0.42151 0.0
H230 H 0.9457 0.61039 0.41502 0.0
H231 H 0.97726 0.50755 0.43027 0.0
H232 H 0.01996 0.59546 0.38628 0.0
H233 H 0.01248 0.62386 0.36128 0.0
H234 H 0.97482 0.5155 0.33704 0.0
H235 H 0.98155 0.4863 0.36199 0.0
C236 C 0.10813 0.46279 0.39042 0.0
C237 C 0.09052 0.42366 0.39502 0.0
C238 C 0.0923 0.48561 0.39519 0.0
C239 C 0.05787 0.46937 0.40424 0.0
C240 C 0.04186 0.43092 0.40976 0.0
C241 C 0.05844 0.40842 0.40537 0.0
C242 C 0.03547 0.49011 0.40552 0.0
C243 C 0.02917 0.50532 0.39143 0.0
C244 C 0.01758 0.49207 0.41987 0.0
C245 C 0.02595 0.47982 0.43543 0.0
C246 C 0.99538 0.45379 0.44535 0.0
C247 C 0.00339 0.44221 0.45996 0.0
C248 C 0.04187 0.45661 0.46482 0.0
C249 C 0.07243 0.48261 0.45509 0.0
C250 C 0.0646 0.49429 0.44048 0.0
C251 C 0.90249 0.53279 0.38972 0.0
C252 C 0.91081 0.56804 0.39694 0.0
C253 C 0.92412 0.51508 0.39364 0.0
C254 C 0.95492 0.5327 0.40459 0.0
C255 C 0.96078 0.56575 0.41299 0.0
C256 C 0.93872 0.58328 0.40922 0.0
C257 C 0.98442 0.5203 0.40513 0.0
C258 C 0.99181 0.50678 0.41944 0.0
C259 C 0.00466 0.5211 0.39113 0.0
C260 C 0.00097 0.53862 0.37603 0.0
C261 C 0.00985 0.57762 0.37565 0.0
C262 C 0.00577 0.59387 0.36148 0.0
C263 C 0.9931 0.57147 0.34759 0.0
C264 C 0.98459 0.53281 0.34782 0.0
C265 C 0.98857 0.5164 0.36196 0.0
H266 H 0.98995 0.58409 0.33663 0.0
H267 H 0.04803 0.44773 0.47615 0.0
H268 H 0.32497 0.94406 0.7497 0.0
H269 H 0.39398 0.9828 0.75677 0.0
H270 H 0.41998 0.91309 0.72519 0.0
H271 H 0.35149 0.87498 0.71779 0.0
H272 H 0.4603 0.97622 0.76673 0.0
H273 H 0.48426 0.97388 0.69882 0.0
H274 H 0.44728 0.96304 0.67382 0.0
H275 H 0.37571 0.00196 0.69643 0.0
H276 H 0.41271 0.01368 0.72145 0.0
H277 H 0.65741 0.04644 0.74489 0.0
H278 H 0.58907 0.01581 0.75259 0.0
H279 H 0.57759 0.10265 0.72591 0.0
H280 H 0.64526 0.13158 0.71731 0.0
H281 H 0.52723 0.0384 0.71605 0.0
H282 H 0.56315 0.08845 0.76844 0.0
H283 H 0.59883 0.10413 0.79395 0.0
H284 H 0.55094 0.98252 0.80373 0.0
H285 H 0.51533 0.96605 0.77817 0.0
C286 C 0.34521 0.93612 0.7447 0.0
C287 C 0.33307 0.90709 0.73292 0.0
C288 C 0.3846 0.95821 0.74881 0.0
C289 C 0.41205 0.95123 0.74125 0.0
C290 C 0.39921 0.91919 0.73099 0.0
C291 C 0.36009 0.89752 0.72673 0.0
C292 C 0.45383 0.9811 0.74147 0.0
C293 C 0.47518 0.99003 0.75572 0.0
C294 C 0.47269 0.00018 0.7272 0.0
C295 C 0.45103 0.9943 0.71204 0.0
C296 C 0.46079 0.98034 0.69841 0.0
C297 C 0.43981 0.97402 0.68425 0.0
C298 C 0.4091 0.98169 0.68355 0.0
C299 C 0.39943 0.99591 0.69699 0.0
C300 C 0.42039 0.00239 0.71117 0.0
C301 C 0.64053 0.05961 0.74107 0.0
C302 C 0.6563 0.09103 0.73037 0.0
C303 C 0.60144 0.04221 0.74557 0.0
C304 C 0.5779 0.05676 0.73981 0.0
C305 C 0.59494 0.09056 0.73037 0.0
C306 C 0.63361 0.10719 0.72549 0.0
C307 C 0.53483 0.03339 0.74131 0.0
C308 C 0.51286 0.02539 0.72724 0.0
C309 C 0.51557 0.01635 0.75586 0.0
C310 C 0.53672 0.02603 0.77132 0.0
C311 C 0.56041 0.06503 0.77597 0.0
C312 C 0.58059 0.07407 0.79046 0.0
C313 C 0.57717 0.04435 0.80045 0.0
C314 C 0.55353 0.00551 0.79598 0.0
C315 C 0.53327 0.9963 0.7815 0.0
H316 H 0.59277 0.05142 0.81166 0.0
H317 H 0.39283 0.97669 0.67258 0.0
H318 H 0.63321 0.5299 0.6237 0.0
H319 H 0.56826 0.49689 0.61221 0.0
H320 H 0.6076 0.57937 0.57341 0.0
H321 H 0.67313 0.61298 0.58499 0.0
H322 H 0.5456 0.57496 0.58734 0.0
H323 H 0.57374 0.48379 0.56504 0.0
H324 H 0.59991 0.4392 0.56327 0.0
H325 H 0.52155 0.36769 0.60009 0.0
H326 H 0.49528 0.41212 0.60227 0.0
H327 H 0.33021 0.39326 0.58362 0.0
H328 H 0.39569 0.42988 0.57218 0.0
H329 H 0.43383 0.50509 0.6134 0.0
H330 H 0.36891 0.46923 0.62472 0.0
H331 H 0.45732 0.4322 0.58489 0.0
H332 H 0.50727 0.59124 0.60618 0.0
H333 H 0.48101 0.63586 0.6065 0.0
H334 H 0.40337 0.57231 0.56811 0.0
H335 H 0.42954 0.52762 0.56736 0.0
C336 C 0.62836 0.54058 0.61253 0.0
C337 C 0.65824 0.57425 0.60533 0.0
C338 C 0.5912 0.52146 0.60588 0.0
C339 C 0.58307 0.53549 0.59187 0.0
C340 C 0.6133 0.56797 0.58419 0.0
C341 C 0.65071 0.58705 0.5908 0.0
C342 C 0.54202 0.51903 0.58676 0.0
C343 C 0.52629 0.54379 0.5865 0.0
C344 C 0.51701 0.47848 0.58505 0.0
C345 C 0.53252 0.45139 0.58381 0.0
C346 C 0.5622 0.45867 0.57282 0.0
C347 C 0.57705 0.4334 0.57174 0.0
C348 C 0.56239 0.40063 0.58156 0.0
C349 C 0.53283 0.39305 0.59247 0.0
C350 C 0.51787 0.41823 0.59361 0.0
C351 C 0.35232 0.41831 0.59001 0.0
C352 C 0.3445 0.42814 0.60516 0.0
C353 C 0.38972 0.43912 0.58347 0.0
C354 C 0.41965 0.47037 0.59187 0.0
C355 C 0.41114 0.48158 0.60653 0.0
C356 C 0.37399 0.46078 0.61308 0.0
C357 C 0.46083 0.48799 0.58677 0.0
C358 C 0.47661 0.46345 0.58512 0.0
C359 C 0.48588 0.52877 0.58646 0.0
C360 C 0.4704 0.55598 0.58673 0.0
C361 C 0.48484 0.58694 0.5977 0.0
C362 C 0.46989 0.61221 0.59799 0.0
C363 C 0.44052 0.60691 0.58734 0.0
C364 C 0.42607 0.57634 0.57637 0.0
C365 C 0.44092 0.551 0.57602 0.0
H366 H 0.42897 0.62649 0.5876 0.0
H367 H 0.57394 0.3811 0.58071 0.0
H368 H 0.95478 0.33998 0.92464 0.0
H369 H 0.993 0.40934 0.91803 0.0
H370 H 0.92343 0.43323 0.9506 0.0
H371 H 0.88601 0.36445 0.95757 0.0
H372 H 0.98517 0.47524 0.90886 0.0
H373 H 0.98403 0.49687 0.97704 0.0
H374 H 0.97452 0.45934 0.00177 0.0
H375 H 0.01458 0.38998 0.97807 0.0
H376 H 0.02496 0.42753 0.95331 0.0
H377 H 0.05048 0.67034 0.93204 0.0
H378 H 0.0214 0.60234 0.92396 0.0
H379 H 0.1106 0.59325 0.94995 0.0
H380 H 0.1378 0.66042 0.95896 0.0
H381 H 0.04741 0.54123 0.95969 0.0
H382 H 0.09592 0.58049 0.90729 0.0
H383 H 0.10991 0.61711 0.88208 0.0
H384 H 0.98757 0.56537 0.87276 0.0
H385 H 0.97278 0.52888 0.89804 0.0
C386 C 0.94681 0.35988 0.92996 0.0
C387 C 0.91804 0.34711 0.94187 0.0
C388 C 0.96858 0.39944 0.92613 0.0
C389 C 0.96145 0.42634 0.93407 0.0
C390 C 0.92964 0.41287 0.9445 0.0
C391 C 0.90838 0.37362 0.94851 0.0
C392 C 0.99089 0.4682 0.934 0.0
C393 C -0.00096 0.48993 0.91989 0.0
C394 C 0.01003 0.48682 0.9483 0.0
C395 C 0.00493 0.46481 0.9633 0.0
C396 C 0.99103 0.47378 0.97715 0.0
C397 C 0.98546 0.45247 0.99116 0.0
C398 C 0.99384 0.42222 0.99148 0.0
C399 C 0.008 0.41334 0.9778 0.0
C400 C 0.01372 0.43461 0.96378 0.0
C401 C 0.0644 0.65402 0.93563 0.0
C402 C 0.09602 0.67021 0.94623 0.0
C403 C 0.04794 0.61518 0.93092 0.0
C404 C 0.06371 0.59242 0.93634 0.0
C405 C 0.09761 0.60998 0.94573 0.0
C406 C 0.11323 0.64834 0.95086 0.0
C407 C 0.04151 0.54941 0.93456 0.0
C408 C 0.03442 0.52708 0.94846 0.0
C409 C 0.02453 0.53045 0.91994 0.0
C410 C 0.03324 0.5521 0.90464 0.0
C411 C 0.07197 0.5771 0.89993 0.0
C412 C 0.08006 0.59782 0.88561 0.0
C413 C 0.04965 0.59362 0.87584 0.0
C414 C 0.0111 0.5686 0.88034 0.0
C415 C 0.00284 0.54784 0.89466 0.0
H416 H 0.05598 0.60972 0.86477 0.0
H417 H 0.98942 0.40572 0.00232 0.0
H418 H 0.46552 0.0923 0.28493 0.0
H419 H 0.49836 0.06051 0.27321 0.0
H420 H 0.41381 0.0157 0.23513 0.0
H421 H 0.38035 0.04749 0.24697 0.0
H422 H 0.41866 0.95879 0.24938 0.0
H423 H 0.50932 0.07631 0.22581 0.0
H424 H 0.55403 0.14686 0.22324 0.0
H425 H 0.62691 0.14213 0.26002 0.0
H426 H 0.58239 0.07167 0.26301 0.0
H427 H 0.59899 0.923 0.24662 0.0
H428 H 0.56274 0.95176 0.23474 0.0
H429 H 0.48896 0.91883 0.27635 0.0
H430 H 0.52449 0.88984 0.28814 0.0
H431 H 0.56131 0.01241 0.24652 0.0
H432 H 0.40264 0.90564 0.26894 0.0
H433 H 0.3578 0.83491 0.27019 0.0
H434 H 0.42014 0.81748 0.23224 0.0
H435 H 0.46504 0.88817 0.23057 0.0
C436 C 0.45438 0.07648 0.27385 0.0
C437 C 0.42013 0.07207 0.26697 0.0
C438 C 0.47341 0.05855 0.26706 0.0
C439 C 0.4587 0.03588 0.25322 0.0
C440 C 0.42573 0.0332 0.24578 0.0
C441 C 0.40674 0.05145 0.25253 0.0
C442 C 0.47473 0.01089 0.24821 0.0
C443 C 0.4498 0.97044 0.24844 0.0
C444 C 0.51522 0.02611 0.24636 0.0
C445 C 0.54242 0.06857 0.24461 0.0
C446 C 0.53478 0.09031 0.23341 0.0
C447 C 0.56012 0.13032 0.23188 0.0
C448 C 0.5933 0.14896 0.24146 0.0
C449 C 0.60124 0.12763 0.25258 0.0
C450 C 0.57599 0.08762 0.25417 0.0
C451 C 0.57439 0.92102 0.25305 0.0
C452 C 0.56482 0.90445 0.2684 0.0
C453 C 0.55377 0.93753 0.24625 0.0
C454 C 0.52298 0.93725 0.25459 0.0
C455 C 0.51211 0.91879 0.26952 0.0
C456 C 0.53272 0.90249 0.27633 0.0
C457 C 0.50543 0.96052 0.24904 0.0
C458 C 0.53009 0.00064 0.24683 0.0
C459 C 0.46465 0.94494 0.24882 0.0
C460 C 0.43729 0.90234 0.24964 0.0
C461 C 0.40662 0.88681 0.26075 0.0
C462 C 0.38123 0.84667 0.26157 0.0
C463 C 0.38613 0.82172 0.25131 0.0
C464 C 0.41641 0.83684 0.2402 0.0
C465 C 0.44188 0.87695 0.23933 0.0
H466 H 0.36645 0.79065 0.25198 0.0
H467 H 0.61287 0.17994 0.24026 0.0
H468 H 0.24496 0.01888 0.22306 0.0
H469 H 0.23612 0.0296 0.19498 0.0
H470 H 0.30012 0.15361 0.20269 0.0
H471 H 0.30812 0.14314 0.2308 0.0
H472 H 0.24104 0.13537 0.18315 0.0
H473 H 0.34323 0.10283 0.18701 0.0
H474 H 0.37068 0.06137 0.19455 0.0
H475 H 0.28545 0.9688 0.16551 0.0
H476 H 0.25719 0.00957 0.15797 0.0
H477 H 0.31788 0.21362 0.10765 0.0
H478 H 0.30597 0.19197 0.13532 0.0
H479 H 0.24246 0.0725 0.11972 0.0
H480 H 0.25506 0.094 0.09185 0.0
H481 H 0.29217 0.0812 0.14269 0.0
H482 H 0.19529 0.11784 0.1362 0.0
H483 H 0.1693 0.16046 0.12857 0.0
H484 H 0.24526 0.24628 0.16235 0.0
H485 H 0.27211 0.20441 0.17003 0.0
C486 C 0.25677 0.04843 0.21882 0.0
C487 C 0.27756 0.08016 0.22915 0.0
C488 C 0.25183 0.05451 0.20274 0.0
C489 C 0.26808 0.09244 0.19663 0.0
C490 C 0.28739 0.12409 0.20709 0.0
C491 C 0.29203 0.11803 0.22318 0.0
C492 C 0.26677 0.09948 0.17927 0.0
C493 C 0.25241 0.12372 0.17431 0.0
C494 C 0.28065 0.08345 0.16765 0.0
C495 C 0.29785 0.05908 0.17207 0.0
C496 C 0.3302 0.07354 0.18232 0.0
C497 C 0.34592 0.05019 0.18658 0.0
C498 C 0.32975 0.01244 0.18055 0.0
C499 C 0.2979 0.99802 0.1702 0.0
C500 C 0.28204 0.02124 0.16592 0.0
C501 C 0.30109 0.18272 0.11005 0.0
C502 C 0.28739 0.15554 0.09751 0.0
C503 C 0.29409 0.17037 0.12592 0.0
C504 C 0.27281 0.1306 0.12964 0.0
C505 C 0.25881 0.10335 0.11715 0.0
C506 C 0.26596 0.11569 0.10122 0.0
C507 C 0.2671 0.11772 0.14658 0.0
C508 C 0.2802 0.09241 0.15148 0.0
C509 C 0.25219 0.13289 0.15813 0.0
C510 C 0.23589 0.15805 0.15362 0.0
C511 C 0.20664 0.1459 0.14194 0.0
C512 C 0.19172 0.16992 0.13761 0.0
C513 C 0.20566 0.20608 0.14495 0.0
C514 C 0.23449 0.21826 0.15667 0.0
C515 C 0.24952 0.19437 0.16103 0.0
H516 H 0.19409 0.22463 0.14158 0.0
H517 H 0.34195 0.9944 0.18386 0.0
H518 H 0.02706 0.26012 0.44306 0.0
H519 H 0.03601 0.25242 0.47144 0.0
H520 H 0.15837 0.29642 0.4634 0.0
H521 H 0.14951 0.3033 0.43498 0.0
H522 H 0.13045 0.23771 0.48417 0.0
H523 H 0.12318 0.35509 0.47763 0.0
H524 H 0.09217 0.3925 0.46883 0.0
H525 H 0.99342 0.32245 0.49862 0.0
H526 H 0.02364 0.28432 0.50745 0.0
H527 H 0.21149 0.30814 0.56038 0.0
H528 H 0.19221 0.29913 0.53238 0.0
H529 H 0.07268 0.25528 0.54611 0.0
H530 H 0.09187 0.26482 0.57426 0.0
H531 H 0.09322 0.30794 0.52289 0.0
H532 H 0.10301 0.19426 0.5313 0.0
H533 H 0.13369 0.15656 0.54002 0.0
H534 H 0.22719 0.21889 0.50688 0.0
H535 H 0.19734 0.25737 0.49811 0.0
C536 C 0.05581 0.26779 0.4473 0.0
C537 C 0.08764 0.28264 0.43677 0.0
C538 C 0.06091 0.26353 0.46355 0.0
C539 C 0.098 0.27453 0.46962 0.0
C540 C 0.12949 0.28786 0.45902 0.0
C541 C 0.12438 0.29186 0.44276 0.0
C542 C 0.10448 0.2737 0.48706 0.0
C543 C 0.1226 0.25332 0.49262 0.0
C544 C 0.09332 0.29322 0.49817 0.0
C545 C 0.07548 0.3166 0.49306 0.0
C546 C 0.09476 0.34754 0.48223 0.0
C547 C 0.07734 0.36888 0.47725 0.0
C548 C 0.04079 0.35975 0.48312 0.0
C549 C 0.02169 0.32943 0.49406 0.0
C550 C 0.03896 0.30797 0.49907 0.0
C551 C 0.18102 0.29625 0.55749 0.0
C552 C 0.15322 0.2872 0.5696 0.0
C553 C 0.17 0.29093 0.54144 0.0
C554 C 0.13091 0.27613 0.53712 0.0
C555 C 0.103 0.26667 0.54916 0.0
C556 C 0.11401 0.27203 0.56525 0.0
C557 C 0.11967 0.27235 0.52 0.0
C558 C 0.10071 0.29195 0.51448 0.0
C559 C 0.13009 0.25213 0.50894 0.0
C560 C 0.14807 0.22892 0.51414 0.0
C561 C 0.13026 0.20014 0.52595 0.0
C562 C 0.14748 0.17859 0.53089 0.0
C563 C 0.18241 0.18538 0.52403 0.0
C564 C 0.20014 0.21368 0.51219 0.0
C565 C 0.18306 0.23534 0.50722 0.0
H566 H 0.1957 0.16868 0.52788 0.0
H567 H 0.02725 0.37616 0.4792 0.0
H568 H 0.75796 0.0287 0.77787 0.0
H569 H 0.77483 0.0363 0.80622 0.0
H570 H 0.85318 0.15893 0.799 0.0
H571 H 0.83714 0.15144 0.7706 0.0
H572 H 0.88413 0.12938 0.81915 0.0
H573 H 0.75979 0.12359 0.8134 0.0
H574 H 0.69124 0.09334 0.80484 0.0
H575 H 0.66241 0.9935 0.83395 0.0
H576 H 0.73089 0.02295 0.84252 0.0
H577 H 0.89632 0.2107 0.89519 0.0
H578 H 0.88576 0.19083 0.86727 0.0
H579 H 0.80953 0.0718 0.88144 0.0
H580 H 0.81944 0.09159 0.90953 0.0
H581 H 0.77739 0.09225 0.85824 0.0
H582 H 0.90031 0.10084 0.86622 0.0
H583 H 0.96879 0.13065 0.87473 0.0
H584 H 0.00055 0.22439 0.84164 0.0
H585 H 0.93216 0.19543 0.83308 0.0
C586 C 0.77907 0.05723 0.78228 0.0
C587 C 0.79595 0.08954 0.77199 0.0
C588 C 0.78857 0.06155 0.79851 0.0
C589 C 0.81476 0.09831 0.8048 0.0
C590 C 0.8328 0.1303 0.79443 0.0
C591 C 0.82351 0.12598 0.77819 0.0
C592 C 0.82228 0.10396 0.82224 0.0
C593 C 0.86085 0.12154 0.82769 0.0
C594 C 0.79178 0.0927 0.83344 0.0
C595 C 0.75052 0.07528 0.82846 0.0
C596 C 0.73887 0.09508 0.8179 0.0
C597 C 0.70003 0.0781 0.81305 0.0
C598 C 0.67253 0.04147 0.8188 0.0
C599 C 0.68376 0.02184 0.82948 0.0
C600 C 0.72257 0.03866 0.83434 0.0
C601 C 0.87757 0.18021 0.89242 0.0
C602 C 0.8587 0.15274 0.90461 0.0
C603 C 0.87172 0.16885 0.87642 0.0
C604 C 0.84718 0.12974 0.87224 0.0
C605 C 0.82867 0.10212 0.88439 0.0
C606 C 0.83447 0.11348 0.90043 0.0
C607 C 0.83936 0.1183 0.85516 0.0
C608 C 0.80071 0.09968 0.84975 0.0
C609 C 0.86979 0.12859 0.84401 0.0
C610 C 0.91102 0.14608 0.84909 0.0
C611 C 0.92184 0.12796 0.86084 0.0
C612 C 0.96066 0.14468 0.86566 0.0
C613 C 0.98899 0.17943 0.85876 0.0
C614 C 0.97857 0.19748 0.84699 0.0
C615 C 0.93979 0.18089 0.84213 0.0
H616 H 0.01902 0.19233 0.86251 0.0
H617 H 0.64251 0.02829 0.81501 0.0
H618 H 0.779 0.8703 0.09504 0.0
H619 H 0.78722 0.88842 0.12333 0.0
H620 H 0.6626 0.83179 0.12879 0.0
H621 H 0.65418 0.81432 0.10063 0.0
H622 H 0.69619 0.89946 0.14369 0.0
H623 H 0.71606 0.78893 0.14091 0.0
H624 H 0.74777 0.75274 0.13148 0.0
H625 H 0.85751 0.84246 0.14955 0.0
H626 H 0.8265 0.87943 0.15891 0.0
H627 H 0.65825 0.85684 0.22474 0.0
H628 H 0.66542 0.85201 0.19612 0.0
H629 H 0.79003 0.92235 0.2006 0.0
H630 H 0.78318 0.92736 0.22951 0.0
H631 H 0.76612 0.85746 0.18054 0.0
H632 H 0.7429 0.96387 0.1862 0.0
H633 H 0.7092 0.9976 0.19621 0.0
H634 H 0.60393 0.91365 0.17296 0.0
H635 H 0.63684 0.87906 0.163 0.0
C636 C 0.75337 0.86185 0.10226 0.0
C637 C 0.71593 0.84077 0.09556 0.0
C638 C 0.75812 0.87209 0.11845 0.0
C639 C 0.72551 0.86114 0.12824 0.0
C640 C 0.68821 0.84063 0.12149 0.0
C641 C 0.68345 0.83055 0.10536 0.0
C642 C 0.72972 0.87054 0.14555 0.0
C643 C 0.71132 0.89008 0.15174 0.0
C644 C 0.75043 0.85935 0.15603 0.0
C645 C 0.76906 0.83715 0.15043 0.0
C646 C 0.74701 0.80108 0.14275 0.0
C647 C 0.76485 0.78041 0.13745 0.0
C648 C 0.80466 0.79535 0.13987 0.0
C649 C 0.8267 0.83096 0.14765 0.0
C650 C 0.80901 0.85178 0.15296 0.0
C651 C 0.68728 0.87125 0.21973 0.0
C652 C 0.72016 0.89271 0.22944 0.0
C653 C 0.69129 0.86854 0.20332 0.0
C654 C 0.72821 0.88728 0.19621 0.0
C655 C 0.76126 0.90784 0.20587 0.0
C656 C 0.75728 0.91073 0.22236 0.0
C657 C 0.73168 0.88537 0.17864 0.0
C658 C 0.75154 0.86736 0.17243 0.0
C659 C 0.71212 0.89775 0.16812 0.0
C660 C 0.69231 0.91873 0.17394 0.0
C661 C 0.7125 0.95245 0.18331 0.0
C662 C 0.69354 0.97174 0.18896 0.0
C663 C 0.65443 0.95774 0.18525 0.0
C664 C 0.63423 0.92446 0.17583 0.0
C665 C 0.65303 0.90503 0.17016 0.0
H666 H 0.6398 0.97271 0.18965 0.0
H667 H 0.81841 0.7793 0.13576 0.0
H668 H 0.82187 0.78048 0.56573 0.0
H669 H 0.84395 0.79157 0.53793 0.0
H670 H 0.85063 0.68641 0.53878 0.0
H671 H 0.82963 0.67568 0.56652 0.0
H672 H 0.91104 0.74166 0.52329 0.0
H673 H 0.77115 0.69032 0.52279 0.0
H674 H 0.71108 0.69101 0.5297 0.0
H675 H 0.75569 0.80242 0.50716 0.0
H676 H 0.81623 0.80256 0.50029 0.0
H677 H 0.88665 0.67271 0.44492 0.0
H678 H 0.88179 0.685 0.47302 0.0
H679 H 0.88032 0.7898 0.46077 0.0
H680 H 0.88435 0.77717 0.43238 0.0
H681 H 0.82505 0.74829 0.48193 0.0
H682 H 0.96087 0.79394 0.47862 0.0
H683 H 0.02 0.79185 0.47138 0.0
H684 H 0.98337 0.69096 0.50085 0.0
H685 H 0.92374 0.6921 0.5081 0.0
C686 C 0.82834 0.7599 0.56002 0.0
C687 C 0.82371 0.72705 0.56833 0.0
C688 C 0.84083 0.76621 0.54411 0.0
C689 C 0.84845 0.73954 0.53618 0.0
C690 C 0.84495 0.70741 0.54462 0.0
C691 C 0.83277 0.70124 0.56051 0.0
C692 C 0.85869 0.74385 0.51895 0.0
C693 C 0.89218 0.74297 0.51424 0.0
C694 C 0.83479 0.74686 0.50714 0.0
C695 C 0.79835 0.74666 0.5112 0.0
C696 C 0.76824 0.71508 0.51941 0.0
C697 C 0.7341 0.7153 0.5233 0.0
C698 C 0.72962 0.7468 0.51891 0.0
C699 C 0.75923 0.77808 0.51058 0.0
C700 C 0.79344 0.77802 0.50668 0.0
C701 C 0.88562 0.69859 0.44815 0.0
C702 C 0.88592 0.72398 0.43637 0.0
C703 C 0.88309 0.70572 0.46428 0.0
C704 C 0.88132 0.73867 0.46906 0.0
C705 C 0.88186 0.76429 0.45736 0.0
C706 C 0.88423 0.75707 0.44115 0.0
C707 C 0.87677 0.74484 0.48624 0.0
C708 C 0.84438 0.74775 0.49096 0.0
C709 C 0.90166 0.74362 0.49806 0.0
C710 C 0.9377 0.74301 0.49384 0.0
C711 C 0.9653 0.77117 0.48349 0.0
C712 C -0.00107 0.77017 0.47939 0.0
C713 C 0.00542 0.74126 0.48564 0.0
C714 C 0.97832 0.71334 0.49603 0.0
C715 C 0.94462 0.71419 0.50015 0.0
H716 H 0.03146 0.74053 0.48244 0.0
H717 H 0.70317 0.74692 0.52194 0.0
H718 H 0.09415 0.80145 0.90166 0.0
H719 H 0.09894 0.81491 0.87307 0.0
H720 H 0.20267 0.92552 0.88098 0.0
H721 H 0.19772 0.91261 0.90969 0.0
H722 H 0.15663 0.93114 0.85835 0.0
H723 H 0.20898 0.847 0.86922 0.0
H724 H 0.20747 0.78846 0.88 0.0
H725 H 0.1095 0.7161 0.85019 0.0
H726 H 0.11012 0.77424 0.83938 0.0
H727 H 0.24514 0.96262 0.7817 0.0
H728 H 0.22755 0.95353 0.80994 0.0
H729 H 0.1262 0.84292 0.79928 0.0
H730 H 0.14383 0.85154 0.77102 0.0
H731 H 0.16701 0.83634 0.82311 0.0
H732 H 0.11752 0.92089 0.81074 0.0
H733 H 0.11918 0.97948 0.79995 0.0
H734 H 0.21153 0.05109 0.83229 0.0
H735 H 0.21082 0.99296 0.84312 0.0
C736 C 0.11779 0.82883 0.89737 0.0
C737 C 0.1458 0.85578 0.90796 0.0
C738 C 0.12053 0.83643 0.88099 0.0
C739 C 0.15155 0.87092 0.87485 0.0
C740 C 0.17857 0.89866 0.88545 0.0
C741 C 0.17575 0.89116 0.90186 0.0
C742 C 0.15695 0.87712 0.85734 0.0
C743 C 0.15927 0.91063 0.85065 0.0
C744 C 0.15952 0.8499 0.84724 0.0
C745 C 0.15935 0.81494 0.85362 0.0
C746 C 0.18695 0.81859 0.86504 0.0
C747 C 0.18628 0.78549 0.87115 0.0
C748 C 0.15834 0.74858 0.86582 0.0
C749 C 0.13109 0.74471 0.85433 0.0
C750 C 0.1316 0.77772 0.8482 0.0
C751 C 0.2188 0.93659 0.78531 0.0
C752 C 0.196 0.90773 0.7741 0.0
C753 C 0.20868 0.93151 0.80148 0.0
C754 C 0.17544 0.89761 0.80674 0.0
C755 C 0.152 0.86929 0.7955 0.0
C756 C 0.16208 0.87434 0.77933 0.0
C757 C 0.16676 0.89044 0.82406 0.0
C758 C 0.16401 0.85674 0.83075 0.0
C759 C 0.16384 0.91752 0.83411 0.0
C760 C 0.16435 0.95257 0.82764 0.0
C761 C 0.13841 0.94916 0.81546 0.0
C762 C 0.13914 0.98228 0.80936 0.0
C763 C 0.1655 0.01899 0.81541 0.0
C764 C 0.19115 0.02264 0.8276 0.0
C765 C 0.19057 0.98961 0.83374 0.0
H766 H 0.16601 0.0446 0.81067 0.0
H767 H 0.15785 0.72298 0.87057 0.0
H768 H 0.23137 0.89797 0.95928 0.0
H769 H 0.28354 0.95892 0.97029 0.0
H770 H 0.28367 0.89915 0.01324 0.0
H771 H 0.23193 0.8382 0.00237 0.0
H772 H 0.26605 0.95785 0.01796 0.0
H773 H 0.36375 0.94093 0.99234 0.0
H774 H 0.39546 0.9274 0.96993 0.0
H775 H 0.4078 0.02733 0.94491 0.0
H776 H 0.37565 0.04117 0.96706 0.0
H777 H 0.37273 0.13947 0.05259 0.0
H778 H 0.36416 0.07653 0.04433 0.0
H779 H 0.36911 0.10952 0.99492 0.0
H780 H 0.38003 0.17293 0.00306 0.0
H781 H 0.39324 0.05991 0.99679 0.0
H782 H 0.28171 0.06589 0.0172 0.0
H783 H 0.24641 0.08065 0.03774 0.0
H784 H 0.255 0.00143 0.07013 0.0
H785 H 0.29081 0.98661 0.04983 0.0
C786 C 0.24328 0.89754 0.97086 0.0
C787 C 0.22695 0.86337 0.98007 0.0
C788 C 0.27324 0.93238 0.97711 0.0
C789 C 0.28727 0.93347 0.9926 0.0
C790 C 0.27317 0.89885 0.00127 0.0
C791 C 0.24348 0.86406 0.99502 0.0
C792 C 0.31124 0.9712 1.00071 0.0
C793 C 0.29439 0.97984 0.01362 0.0
C794 C 0.34759 8e-05 0.9947 0.0
C795 C 0.36704 0.99194 0.98135 0.0
C796 C 0.37293 0.95985 0.98201 0.0
C797 C 0.39105 0.95217 0.96936 0.0
C798 C 0.40358 0.97646 0.95599 0.0
C799 C 0.39808 0.00854 0.95527 0.0
C800 C 0.37996 0.01636 0.96788 0.0
C801 C 0.37323 0.13369 0.03999 0.0
C802 C 0.37617 0.16075 0.02847 0.0
C803 C 0.36825 0.09771 0.03527 0.0
C804 C 0.36463 0.0878 0.019 0.0
C805 C 0.37148 0.11629 0.00754 0.0
C806 C 0.37751 0.15257 0.01224 0.0
C807 C 0.34764 0.04672 0.01385 0.0
C808 C 0.3655 0.03751 0.00144 0.0
C809 C 0.31158 0.01732 0.02001 0.0
C810 C 0.28929 0.0255 0.03209 0.0
C811 C 0.27615 0.05173 0.02873 0.0
C812 C 0.2561 0.06012 0.04032 0.0
C813 C 0.24858 0.04208 0.05525 0.0
C814 C 0.26093 0.01545 0.05858 0.0
C815 C 0.28111 0.00704 0.04704 0.0
H816 H 0.23311 0.04866 0.06422 0.0
H817 H 0.4176 0.97045 0.94621 0.0
H818 H 0.22497 0.33531 0.38332 0.0
H819 H 0.27608 0.32275 0.374 0.0
H820 H 0.25851 0.34907 0.32576 0.0
H821 H 0.20902 0.36325 0.33504 0.0
H822 H 0.26327 0.26601 0.3562 0.0
H823 H 0.33222 0.36961 0.30142 0.0
H824 H 0.3551 0.43795 0.29432 0.0
H825 H 0.37192 0.46946 0.3439 0.0
H826 H 0.3497 0.40144 0.35131 0.0
H827 H 0.3312 0.20932 0.28469 0.0
H828 H 0.31911 0.25837 0.2968 0.0
H829 H 0.37813 0.25598 0.33962 0.0
H830 H 0.39073 0.2074 0.32766 0.0
H831 H 0.36401 0.33405 0.31462 0.0
H832 H 0.30951 0.23466 0.36885 0.0
H833 H 0.28706 0.16646 0.37624 0.0
H834 H 0.2427 0.12945 0.32884 0.0
H835 H 0.26439 0.19732 0.32126 0.0
C836 C 0.23282 0.33948 0.3708 0.0
C837 C 0.21267 0.34992 0.35991 0.0
C838 C 0.26202 0.33226 0.36548 0.0
C839 C 0.27136 0.33504 0.34917 0.0
C840 C 0.25266 0.34753 0.33844 0.0
C841 C 0.22397 0.35531 0.34377 0.0
C842 C 0.29597 0.31947 0.34299 0.0
C843 C 0.28607 0.28154 0.34746 0.0
C844 C 0.3252 0.33915 0.33128 0.0
C845 C 0.33903 0.38029 0.32692 0.0
C846 C 0.34102 0.39114 0.31081 0.0
C847 C 0.35382 0.42983 0.30673 0.0
C848 C 0.36487 0.45801 0.31866 0.0
C849 C 0.36323 0.44757 0.33468 0.0
C850 C 0.35047 0.40893 0.33883 0.0
C851 C 0.34271 0.22011 0.29648 0.0
C852 C 0.36122 0.20384 0.30532 0.0
C853 C 0.33595 0.24831 0.30335 0.0
C854 C 0.34735 0.26032 0.31914 0.0
C855 C 0.36901 0.24688 0.32742 0.0
C856 C 0.37602 0.21897 0.32056 0.0
C857 C 0.33075 0.28102 0.32782 0.0
C858 C 0.34194 0.31942 0.32371 0.0
C859 C 0.30284 0.26204 0.33996 0.0
C860 C 0.28903 0.22106 0.34445 0.0
C861 C 0.29488 0.21192 0.36003 0.0
C862 C 0.28229 0.17334 0.36425 0.0
C863 C 0.26361 0.14366 0.353 0.0
C864 C 0.25732 0.15248 0.33752 0.0
C865 C 0.2698 0.19099 0.33326 0.0
H866 H 0.25392 0.11383 0.35628 0.0
H867 H 0.37475 0.48794 0.31547 0.0
H868 H 0.83737 0.20618 0.6696 0.0
H869 H 0.90195 0.25387 0.66032 0.0
H870 H 0.94183 0.28038 0.70907 0.0
H871 H 0.87743 0.23095 0.71846 0.0
H872 H 0.95459 0.32656 0.66178 0.0
H873 H 0.03109 0.29189 0.71233 0.0
H874 H 0.01715 0.23984 0.73181 0.0
H875 H 0.93108 0.15541 0.70027 0.0
H876 H 0.94486 0.20687 0.68054 0.0
H877 H 0.17604 0.38558 0.66525 0.0
H878 H 0.11476 0.37353 0.67693 0.0
H879 H 0.05497 0.31963 0.63314 0.0
H880 H 0.11626 0.33137 0.6213 0.0
H881 H 0.05583 0.29733 0.68049 0.0
H882 H 0.97188 0.32851 0.63156 0.0
H883 H 0.98529 0.37599 0.61005 0.0
H884 H 0.08642 0.46144 0.63517 0.0
H885 H 0.07333 0.4147 0.65694 0.0
C886 C 0.85962 0.22262 0.6784 0.0
C887 C 0.85251 0.21417 0.69477 0.0
C888 C 0.8966 0.2501 0.67305 0.0
C889 C 0.92708 0.27003 0.68396 0.0
C890 C 0.91901 0.26456 0.7004 0.0
C891 C 0.88217 0.23641 0.70577 0.0
C892 C 0.9677 0.29251 0.678 0.0
C893 C 0.97676 0.3202 0.66586 0.0
C894 C 0.99683 0.28453 0.68341 0.0
C895 C 0.98866 0.25329 0.69509 0.0
C896 C 0.00927 0.26219 0.70956 0.0
C897 C 0.00139 0.23281 0.72063 0.0
C898 C 0.97313 0.19437 0.71731 0.0
C899 C 0.95284 0.18521 0.70286 0.0
C900 C 0.96066 0.21446 0.69173 0.0
C901 C 0.15008 0.37197 0.65792 0.0
C902 C 0.15096 0.35886 0.6424 0.0
C903 C 0.11508 0.36518 0.66464 0.0
C904 C 0.08038 0.34562 0.65592 0.0
C905 C 0.08153 0.3351 0.64002 0.0
C906 C 0.11658 0.34169 0.63329 0.0
C907 C 0.04261 0.33102 0.66416 0.0
C908 C 0.03402 0.30449 0.67667 0.0
C909 C 0.01384 0.33943 0.65879 0.0
C910 C 0.02176 0.36794 0.64583 0.0
C911 C 0.99688 0.35749 0.63254 0.0
C912 C 0.00445 0.38427 0.62029 0.0
C913 C 0.03674 0.42167 0.62122 0.0
C914 C 0.06149 0.43241 0.63443 0.0
C915 C 0.05405 0.40575 0.64672 0.0
H916 H 0.04256 0.44235 0.61172 0.0
H917 H 0.96704 0.17168 0.72591 0.0
H918 H 0.65323 0.89115 0.04195 0.0
H919 H 0.66211 0.95144 0.03028 0.0
H920 H 0.60505 0.8901 0.98716 0.0
H921 H 0.59592 0.82969 0.99869 0.0
H922 H 0.67943 0.94877 0.98224 0.0
H923 H 0.56562 0.93356 0.00772 0.0
H924 H 0.5201 0.92063 0.02996 0.0
H925 H 0.60803 0.02001 0.05514 0.0
H926 H 0.65429 0.03326 0.03316 0.0
H927 H 0.7606 0.13365 0.94914 0.0
H928 H 0.70514 0.07051 0.95651 0.0
H929 H 0.7308 0.09957 0.00636 0.0
H930 H 0.78437 0.16315 0.99911 0.0
H931 H 0.65692 0.05233 0.00363 0.0
H932 H 0.77346 0.05477 0.98343 0.0
H933 H 0.82331 0.06892 0.96285 0.0
H934 H 0.73449 0.99349 0.92994 0.0
H935 H 0.68408 0.97929 0.95028 0.0
C936 C 0.64153 0.89021 0.03017 0.0
C937 C 0.6245 0.85573 0.02115 0.0
C938 C 0.64644 0.92469 0.02354 0.0
C939 C 0.63432 0.92521 0.00784 0.0
C940 C 0.61461 0.89027 0.99929 0.0
C941 C 0.60952 0.85579 0.00592 0.0
C942 C 0.64814 0.96277 0.99954 0.0
C943 C 0.67359 0.97107 0.98663 0.0
C944 C 0.64127 0.99206 0.00553 0.0
C945 C 0.61351 0.98429 0.01879 0.0
C946 C 0.57536 0.95251 0.01804 0.0
C947 C 0.5494 0.94515 0.0306 0.0
C948 C 0.56117 0.96945 0.04396 0.0
C949 C 0.59893 0.00122 0.04478 0.0
C950 C 0.62502 0.00871 0.03225 0.0
C951 C 0.75363 0.12693 0.96165 0.0
C952 C 0.77729 0.15299 0.97355 0.0
C953 C 0.72202 0.09083 0.96586 0.0
C954 C 0.71458 0.07979 0.982 0.0
C955 C 0.73602 0.10723 0.99383 0.0
C956 C 0.7669 0.1436 0.98965 0.0
C957 C 0.68904 0.03854 0.98668 0.0
C958 C 0.66166 0.02959 0.99893 0.0
C959 C 0.69473 0.00865 0.98036 0.0
C960 C 0.72504 0.01634 0.96828 0.0
C961 C 0.7646 0.04129 0.97178 0.0
C962 C 0.79293 0.04935 0.96017 0.0
C963 C 0.78206 0.03222 0.94508 0.0
C964 C 0.74285 0.00682 0.94161 0.0
C965 C 0.71439 -0.00125 0.95318 0.0
H966 H 0.80401 0.03857 0.93609 0.0
H967 H 0.54103 0.9637 0.05367 0.0
H968 H 0.58316 0.75257 0.31667 0.0
H969 H 0.59435 0.70329 0.32922 0.0
H970 H 0.70318 0.74883 0.30382 0.0
H971 H 0.69071 0.79598 0.29052 0.0
H972 H 0.6782 0.67806 0.30751 0.0
H973 H 0.69239 0.77984 0.34356 0.0
H974 H 0.67003 0.81891 0.35826 0.0
H975 H 0.58098 0.7157 0.381 0.0
H976 H 0.60262 0.67599 0.3663 0.0
H977 H 0.7964 0.69226 0.38129 0.0
H978 H 0.74878 0.70595 0.36919 0.0
H979 H 0.69484 0.59428 0.34564 0.0
H980 H 0.74442 0.5817 0.35691 0.0
H981 H 0.678 0.68424 0.36665 0.0
H982 H 0.66597 0.60122 0.30872 0.0
H983 H 0.70195 0.57547 0.29385 0.0
H984 H 0.80923 0.66303 0.31463 0.0
H985 H 0.77391 0.68951 0.32946 0.0
C986 C 0.60887 0.75118 0.31345 0.0
C987 C 0.63627 0.77828 0.30275 0.0
C988 C 0.61542 0.72325 0.32072 0.0
C989 C 0.65023 0.72305 0.31789 0.0
C990 C 0.67614 0.74832 0.3063 0.0
C991 C 0.66902 0.77539 0.29868 0.0
C992 C 0.66196 0.6997 0.32795 0.0
C993 C 0.6777 0.67906 0.32045 0.0
C994 C 0.6618 0.70118 0.34486 0.0
C995 C 0.64875 0.72494 0.35369 0.0
C996 C 0.66789 0.76549 0.35163 0.0
C997 C 0.65537 0.78774 0.35997 0.0
C998 C 0.62401 0.76978 0.37052 0.0
C999 C 0.60519 0.72955 0.37279 0.0
C1000 C 0.61756 0.70716 0.36446 0.0
C1001 C 0.7738 0.67018 0.37386 0.0
C1002 C 0.77447 0.63623 0.36981 0.0
C1003 C 0.74647 0.67801 0.36693 0.0
C1004 C 0.71882 0.65167 0.35608 0.0
C1005 C 0.71665 0.61565 0.35354 0.0
C1006 C 0.74476 0.60831 0.36009 0.0
C1007 C 0.6959 0.66423 0.34619 0.0
C1008 C 0.67765 0.68245 0.35372 0.0
C1009 C 0.69573 0.66244 0.32928 0.0
C1010 C 0.71724 0.64692 0.32035 0.0
C1011 C 0.69724 0.61495 0.31009 0.0
C1012 C 0.71751 0.60025 0.30167 0.0
C1013 C 0.75783 0.6175 0.30335 0.0
C1014 C 0.77799 0.64961 0.31339 0.0
C1015 C 0.75787 0.66446 0.3218 0.0
H1016 H 0.77346 0.60605 0.29684 0.0
H1017 H 0.61436 0.78705 0.37696 0.0
H1018 H 0.09733 0.79029 0.71381 0.0
H1019 H 0.0365 0.73898 0.70296 0.0
H1020 H 0.09847 0.691 0.67822 0.0
H1021 H 0.16002 0.74437 0.68825 0.0
H1022 H 0.05503 0.69395 0.6585 0.0
H1023 H 0.02663 0.63935 0.70926 0.0
H1024 H 0.02188 0.63473 0.73859 0.0
H1025 H 0.94054 0.67613 0.73805 0.0
H1026 H 0.9452 0.68159 0.70874 0.0
H1027 H 0.82244 0.58206 0.65584 0.0
H1028 H 0.8822 0.58799 0.667 0.0
H1029 H 0.94982 0.69318 0.63973 0.0
H1030 H 0.89074 0.68576 0.62785 0.0
H1031 H 0.92748 0.63591 0.6859 0.0
H1032 H 0.03989 0.7205 0.63443 0.0
H1033 H 0.04413 0.71472 0.60531 0.0
H1034 H 0.95703 0.59388 0.60757 0.0
H1035 H 0.95263 0.59871 0.63674 0.0
C1036 C 0.09794 0.76824 0.7064 0.0
C1037 C 0.13341 0.77143 0.70181 0.0
C1038 C 0.06295 0.73855 0.70026 0.0
C1039 C 0.0625 0.71055 0.68983 0.0
C1040 C 0.09787 0.71223 0.68614 0.0
C1041 C 0.13304 0.74263 0.69194 0.0
C1042 C 0.02597 0.68329 0.68125 0.0
C1043 C 0.02717 0.68073 0.66454 0.0
C1044 C 0.98947 0.66415 0.68907 0.0
C1045 C 0.98634 0.66092 0.70675 0.0
C1046 C 0.00788 0.64768 0.71539 0.0
C1047 C 0.00519 0.64489 0.73202 0.0
C1048 C 0.98093 0.65514 0.74018 0.0
C1049 C 0.95927 0.66815 0.73171 0.0
C1050 C 0.96186 0.671 0.71507 0.0
C1051 C 0.85023 0.60572 0.65188 0.0
C1052 C 0.85197 0.63344 0.64097 0.0
C1053 C 0.88438 0.60921 0.65831 0.0
C1054 C 0.92084 0.6409 0.65419 0.0
C1055 C 0.92244 0.66772 0.64281 0.0
C1056 C 0.88846 0.66365 0.63607 0.0
C1057 C 0.95664 0.64915 0.66312 0.0
C1058 C 0.95531 0.64803 0.67989 0.0
C1059 C 0.99296 0.66314 0.65539 0.0
C1060 C 0.99587 0.66001 0.63782 0.0
C1061 C 0.02186 0.69259 0.62876 0.0
C1062 C 0.02422 0.68951 0.61222 0.0
C1063 C 0.00084 0.65397 0.60459 0.0
C1064 C 0.97507 0.62142 0.61349 0.0
C1065 C 0.97259 0.62432 0.63002 0.0
H1066 H 0.0027 0.65167 0.59179 0.0
H1067 H 0.9789 0.65297 0.75306 0.0
H1068 H 0.96381 0.17787 0.96236 0.0
H1069 H 0.01597 0.16795 0.97277 0.0
H1070 H 0.05248 0.26642 0.00413 0.0
H1071 H -0.00032 0.2753 0.99434 0.0
H1072 H 0.0899 0.20727 0.97236 0.0
H1073 H 0.09028 0.25827 0.03788 0.0
H1074 H 0.04298 0.25512 0.05775 0.0
H1075 H 0.95163 0.15503 0.03417 0.0
H1076 H -0.00154 0.15722 0.01429 0.0
H1077 H 0.27199 0.27565 0.00703 0.0
H1078 H 0.20971 0.26506 0.99723 0.0
H1079 H 0.1498 0.17177 0.03111 0.0
H1080 H 0.2125 0.1833 0.04144 0.0
H1081 H 0.11595 0.21207 0.03049 0.0
H1082 H 0.15281 0.15405 0.99024 0.0
H1083 H 0.19533 0.14762 0.97051 0.0
H1084 H 0.20315 0.2437 0.9439 0.0
H1085 H 0.16113 0.2511 0.96359 0.0
C1086 C 0.98295 0.19727 0.97151 0.0
C1087 C 0.97744 0.22712 0.97764 0.0
C1088 C 0.01273 0.19159 0.97745 0.0
C1089 C 0.03771 0.21589 0.98951 0.0
C1090 C 0.03289 0.24645 0.99523 0.0
C1091 C 0.00282 0.25169 0.98952 0.0
C1092 C 0.06961 0.21033 0.99586 0.0
C1093 C 0.09543 0.20805 0.98507 0.0
C1094 C 0.07618 0.2099 0.01247 0.0
C1095 C 0.04789 0.2081 0.02452 0.0
C1096 C 0.06015 0.23545 0.03698 0.0
C1097 C 0.0334 0.23386 0.04824 0.0
C1098 C 0.99431 0.20495 0.0472 0.0
C1099 C 0.9819 0.17749 0.03493 0.0
C1100 C 0.00853 0.17892 0.02365 0.0
C1101 C 0.2456 0.2528 0.0124 0.0
C1102 C 0.24719 0.2302 0.02498 0.0
C1103 C 0.20992 0.24657 0.00669 0.0
C1104 C 0.17494 0.21701 0.01316 0.0
C1105 C 0.17639 0.19461 0.02585 0.0
C1106 C 0.21221 0.20123 0.03175 0.0
C1107 C 0.13711 0.21075 0.00696 0.0
C1108 C 0.11014 0.21074 0.01778 0.0
C1109 C 0.12874 0.20759 0.9904 0.0
C1110 C 0.15397 0.20326 0.97846 0.0
C1111 C 0.1638 0.17398 0.98024 0.0
C1112 C 0.18779 0.17014 0.96905 0.0
C1113 C 0.20198 0.19527 0.95598 0.0
C1114 C 0.19214 0.22426 0.95404 0.0
C1115 C 0.16818 0.22825 0.9652 0.0
H1116 H 0.22055 0.19225 0.94733 0.0
H1117 H 0.97365 0.2038 0.05592 0.0
H1118 H 0.78382 0.97132 0.28892 0.0
H1119 H 0.84392 0.02468 0.30009 0.0
H1120 H 0.77697 0.04527 0.33534 0.0
H1121 H 0.71726 0.99124 0.32467 0.0
H1122 H 0.8724 0.09802 0.30281 0.0
H1123 H 0.82439 0.07752 0.36966 0.0
H1124 H 0.78359 0.02394 0.38807 0.0
H1125 H 0.79838 0.94382 0.3586 0.0
H1126 H 0.83971 0.99698 0.34014 0.0
H1127 H 0.9899 0.27135 0.34353 0.0
H1128 H 0.93523 0.21197 0.33292 0.0
H1129 H 0.97084 0.14328 0.36055 0.0
H1130 H 0.02468 0.20288 0.37183 0.0
H1131 H 0.89713 0.10918 0.36117 0.0
H1132 H 0.98898 0.15958 0.31908 0.0
H1133 H 0.03522 0.20848 0.3002 0.0
H1134 H 0.94268 0.22007 0.27934 0.0
H1135 H 0.89595 0.17162 0.29824 0.0
C1136 C 0.78199 0.98726 0.29906 0.0
C1137 C 0.74584 0.97687 0.306 0.0
C1138 C 0.81633 0.01774 0.30543 0.0
C1139 C 0.81511 0.03856 0.31877 0.0
C1140 C 0.77887 0.02898 0.32535 0.0
C1141 C 0.74467 0.99821 0.31916 0.0
C1142 C 0.85149 0.07076 0.3257 0.0
C1143 C 0.87787 0.10035 0.31556 0.0
C1144 C 0.8594 0.07332 0.34229 0.0
C1145 C 0.83489 0.04123 0.35344 0.0
C1146 C 0.81909 0.04851 0.36715 0.0
C1147 C 0.79584 0.0182 0.37758 0.0
C1148 C 0.78831 0.98048 0.37448 0.0
C1149 C 0.80412 0.97302 0.36096 0.0
C1150 C 0.82742 0.00322 0.3505 0.0
C1151 C 0.98598 0.24358 0.34741 0.0
C1152 C 0.0117 0.24173 0.35843 0.0
C1153 C 0.95486 0.20962 0.34124 0.0
C1154 C 0.94941 0.17306 0.34559 0.0
C1155 C 0.97451 0.17111 0.35693 0.0
C1156 C 0.00527 0.20516 0.36337 0.0
C1157 C 0.91738 0.13704 0.33833 0.0
C1158 C 0.89184 0.10671 0.3484 0.0
C1159 C 0.91105 0.13309 0.32161 0.0
C1160 C 0.93901 0.16216 0.31016 0.0
C1161 C 0.97853 0.17274 0.31053 0.0
C1162 C 0.00483 0.20035 0.29982 0.0
C1163 C 0.99191 0.21742 0.28859 0.0
C1164 C 0.95265 0.20684 0.28804 0.0
C1165 C 0.92623 0.17926 0.29874 0.0
H1166 H 0.01232 0.2388 0.28031 0.0
H1167 H 0.77027 0.95706 0.38257 0.0
H1168 H 0.81302 0.78827 0.62838 0.0
H1169 H 0.81884 0.84819 0.63924 0.0
H1170 H 0.72996 0.78107 0.67399 0.0
H1171 H 0.72518 0.72151 0.66365 0.0
H1172 H 0.77289 0.87544 0.6409 0.0
H1173 H 0.74209 0.82921 0.70788 0.0
H1174 H 0.7547 0.78962 0.72705 0.0
H1175 H 0.85202 0.80531 0.699 0.0
H1176 H 0.84035 0.84543 0.67978 0.0
H1177 H 0.71173 0.99164 0.6793 0.0
H1178 H 0.71817 0.93738 0.66941 0.0
H1179 H 0.82146 0.9755 0.69804 0.0
H1180 H 0.814 0.02891 0.70858 0.0
H1181 H 0.78263 0.90175 0.69911 0.0
H1182 H 0.82506 0.9923 0.65648 0.0
H1183 H 0.82246 0.03744 0.63697 0.0
H1184 H 0.72036 0.94319 0.61571 0.0
H1185 H 0.72204 0.89754 0.63523 0.0
C1186 C 0.79485 0.78636 0.63838 0.0
C1187 C 0.76886 0.75019 0.64523 0.0
C1188 C 0.79817 0.82061 0.64457 0.0
C1189 C 0.77535 0.81929 0.65763 0.0
C1190 C 0.74871 0.78305 0.66421 0.0
C1191 C 0.74582 0.74894 0.65821 0.0
C1192 C 0.77844 0.85554 0.66416 0.0
C1193 C 0.77521 0.88126 0.65362 0.0
C1194 C 0.78265 0.86388 0.68072 0.0
C1195 C 0.79011 0.84007 0.69232 0.0
C1196 C 0.76629 0.82437 0.70584 0.0
C1197 C 0.77325 0.8018 0.71671 0.0
C1198 C 0.80407 0.79486 0.71422 0.0
C1199 C 0.82807 0.81058 0.70088 0.0
C1200 C 0.82126 0.8332 0.68999 0.0
C1201 C 0.73573 0.98837 0.68354 0.0
C1202 C 0.7625 0.01464 0.69464 0.0
C1203 C 0.73956 0.95748 0.67779 0.0
C1204 C 0.77087 0.95283 0.68265 0.0
C1205 C 0.79716 0.97854 0.69404 0.0
C1206 C 0.79288 0.00906 0.70005 0.0
C1207 C 0.77589 0.92099 0.67589 0.0
C1208 C 0.78065 0.8961 0.68638 0.0
C1209 C 0.7746 0.91424 0.65923 0.0
C1210 C 0.77353 0.94155 0.64741 0.0
C1211 C 0.80191 0.98123 0.64771 0.0
C1212 C 0.80062 0.00691 0.63664 0.0
C1213 C 0.77122 0.9932 0.62512 0.0
C1214 C 0.7431 0.95377 0.62464 0.0
C1215 C 0.74424 0.92797 0.63569 0.0
H1216 H 0.77026 0.01313 0.61656 0.0
H1217 H 0.80939 0.77737 0.72264 0.0
H1218 H 0.77172 0.78557 0.04611 0.0
H1219 H 0.83274 0.78961 0.03776 0.0
H1220 H 0.79907 0.78402 0.98839 0.0
H1221 H 0.73755 0.77823 0.99669 0.0
H1222 H 0.82571 0.73821 0.99217 0.0
H1223 H 0.87148 0.87037 0.00729 0.0
H1224 H 0.88052 0.92397 0.02493 0.0
H1225 H 0.93974 0.89138 0.05913 0.0
H1226 H 0.9306 0.83725 0.04177 0.0
H1227 H 0.01133 0.79398 0.95856 0.0
H1228 H 0.95417 0.79745 0.96721 0.0
H1229 H 0.97392 0.77576 0.01579 0.0
H1230 H 0.03078 0.77186 0.00728 0.0
H1231 H 0.95585 0.83677 0.01224 0.0
H1232 H 0.90787 0.70341 0.99617 0.0
H1233 H 0.89964 0.65188 0.97747 0.0
H1234 H 0.84533 0.69071 0.9435 0.0
H1235 H 0.85375 0.74285 0.96192 0.0
C1236 C 0.77751 0.78545 0.03348 0.0
C1237 C 0.7498 0.78142 0.02206 0.0
C1238 C 0.81249 0.78798 0.02871 0.0
C1239 C 0.82079 0.78753 0.01241 0.0
C1240 C 0.79336 0.78427 1.00102 0.0
C1241 C 0.75819 0.78102 0.00579 0.0
C1242 C 0.85717 0.78875 0.00715 0.0
C1243 C 0.85416 0.76022 0.9964 0.0
C1244 C 0.89437 0.81694 0.01285 0.0
C1245 C 0.90001 0.84952 0.0233 0.0
C1246 C 0.88617 0.87446 0.01862 0.0
C1247 C 0.89136 0.90497 0.02856 0.0
C1248 C 0.9106 0.91101 0.04316 0.0
C1249 C 0.92479 0.88663 0.04783 0.0
C1250 C 0.91965 0.85606 0.03794 0.0
C1251 C 0.00363 0.79015 0.9711 0.0
C1252 C 0.02544 0.7824 0.98222 0.0
C1253 C 0.97098 0.7921 0.97601 0.0
C1254 C 0.95983 0.78669 0.99212 0.0
C1255 C 0.98212 0.78004 0.00331 0.0
C1256 C 0.01446 0.77761 0.9984 0.0
C1257 C 0.92409 0.78654 0.99726 0.0
C1258 C 0.92728 0.81507 0.008 0.0
C1259 C 0.88708 0.75874 0.99139 0.0
C1260 C 0.88182 0.72728 0.98035 0.0
C1261 C 0.89448 0.70117 0.98466 0.0
C1262 C 0.88972 0.67181 0.97412 0.0
C1263 C 0.87208 0.66809 0.95929 0.0
C1264 C 0.85905 0.69366 0.95498 0.0
C1265 C 0.86378 0.7231 0.96547 0.0
H1266 H 0.86842 0.64534 0.95115 0.0
H1267 H 0.91458 0.93465 0.05084 0.0
H1268 H 0.97337 0.7156 0.33693 0.0
H1269 H 0.02976 0.77297 0.32592 0.0
H1270 H 0.03668 0.83817 0.36816 0.0
H1271 H 0.98005 0.78077 0.37934 0.0
H1272 H 0.04808 0.88042 0.33989 0.0
H1273 H 0.09593 0.80429 0.36542 0.0
H1274 H 0.098 0.74438 0.37102 0.0
H1275 H 0.12554 0.73821 0.32194 0.0
H1276 H 0.12303 0.79779 0.31599 0.0
H1277 H 0.2719 0.99645 0.32882 0.0
H1278 H 0.21259 0.94206 0.33952 0.0
H1279 H 0.14771 0.94768 0.29929 0.0
H1280 H 0.20721 0.00263 0.28845 0.0
H1281 H 0.16534 0.87099 0.32742 0.0
H1282 H 0.05532 0.92193 0.31321 0.0
H1283 H 0.05456 0.98318 0.30939 0.0
H1284 H 0.15526 0.04321 0.33939 0.0
H1285 H 0.15623 0.98223 0.34359 0.0
C1286 C 0.98667 0.74215 0.34388 0.0
C1287 C 0.97234 0.7435 0.35908 0.0
C1288 C 0.01893 0.7749 0.33755 0.0
C1289 C 0.03749 0.80967 0.34628 0.0
C1290 C 0.02268 0.81156 0.36125 0.0
C1291 C 0.99048 0.77869 0.36764 0.0
C1292 C 0.07338 0.84345 0.34003 0.0
C1293 C 0.07371 0.87841 0.33712 0.0
C1294 C 0.10694 0.84087 0.33665 0.0
C1295 C 0.10891 0.80529 0.34023 0.0
C1296 C 0.10214 0.78999 0.35579 0.0
C1297 C 0.10343 0.75612 0.35904 0.0
C1298 C 0.11178 0.73744 0.34684 0.0
C1299 C 0.119 0.75268 0.33138 0.0
C1300 C 0.11768 0.78652 0.32806 0.0
C1301 C 0.24508 0.98623 0.3222 0.0
C1302 C 0.24433 0.00399 0.30777 0.0
C1303 C 0.2112 0.95501 0.32833 0.0
C1304 C 0.17574 0.94097 0.32026 0.0
C1305 C 0.17476 0.95837 0.30579 0.0
C1306 C 0.20879 0.98964 0.29959 0.0
C1307 C 0.14 0.90796 0.32706 0.0
C1308 C 0.13967 0.87304 0.33008 0.0
C1309 C 0.10675 0.91085 0.33077 0.0
C1310 C 0.10607 0.94758 0.32856 0.0
C1311 C 0.07719 0.94817 0.31904 0.0
C1312 C 0.07674 0.98284 0.31681 0.0
C1313 C 0.10492 0.01708 0.3241 0.0
C1314 C 0.13353 0.0167 0.3337 0.0
C1315 C 0.13407 0.98209 0.33599 0.0
H1316 H 0.10455 0.0439 0.32234 0.0
H1317 H 0.11275 0.7112 0.34937 0.0
H1318 H 0.26949 0.98274 0.67384 0.0
H1319 H 0.26971 0.03957 0.66265 0.0
H1320 H 0.18037 0.02463 0.69599 0.0
H1321 H 0.1813 0.96867 0.70772 0.0
H1322 H 0.22095 0.05215 0.64773 0.0
H1323 H 0.18919 0.11073 0.70571 0.0
H1324 H 0.19941 0.11048 0.73476 0.0
H1325 H 0.29821 0.09599 0.72656 0.0
H1326 H 0.28887 0.09665 0.69747 0.0
H1327 H 0.18727 0.20742 0.6271 0.0
H1328 H 0.18213 0.14708 0.63718 0.0
H1329 H 0.28552 0.21394 0.66556 0.0
H1330 H 0.28962 0.27391 0.65613 0.0
H1331 H 0.23636 0.15951 0.68283 0.0
H1332 H 0.28321 0.1648 0.62962 0.0
H1333 H 0.283 0.16939 0.60027 0.0
H1334 H 0.17222 0.06425 0.59833 0.0
H1335 H 0.17156 0.0593 0.6277 0.0
C1336 C 0.24988 0.99156 0.67881 0.0
C1337 C 0.22559 0.97141 0.69175 0.0
C1338 C 0.24993 0.02399 0.67234 0.0
C1339 C 0.2254 0.03677 0.67857 0.0
C1340 C 0.20021 0.01593 0.69119 0.0
C1341 C 0.20067 0.98387 0.69787 0.0
C1342 C 0.22693 0.07233 0.67201 0.0
C1343 C 0.22425 0.0756 0.65542 0.0
C1344 C 0.23189 0.10331 0.68196 0.0
C1345 C 0.23803 0.1033 0.69943 0.0
C1346 C 0.21315 0.10761 0.71012 0.0
C1347 C 0.21879 0.10738 0.72658 0.0
C1348 C 0.24935 0.10308 0.7325 0.0
C1349 C 0.27446 0.09917 0.72196 0.0
C1350 C 0.26898 0.09943 0.70549 0.0
C1351 C 0.20898 0.20913 0.63541 0.0
C1352 C 0.23879 0.24535 0.64085 0.0
C1353 C 0.20611 0.17465 0.64114 0.0
C1354 C 0.2336 0.17585 0.65208 0.0
C1355 C 0.26376 0.21212 0.65724 0.0
C1356 C 0.26617 0.24644 0.65179 0.0
C1357 C 0.23079 0.13959 0.65851 0.0
C1358 C 0.23294 0.13605 0.67512 0.0
C1359 C 0.22682 0.10905 0.64852 0.0
C1360 C 0.22715 0.11191 0.63086 0.0
C1361 C 0.25868 0.14281 0.62294 0.0
C1362 C 0.25874 0.14545 0.6063 0.0
C1363 C 0.22756 0.11719 0.59744 0.0
C1364 C 0.19632 0.08616 0.60521 0.0
C1365 C 0.1961 0.0834 0.62185 0.0
H1366 H 0.22766 0.11928 0.58456 0.0
H1367 H 0.25364 0.10287 0.74525 0.0
loop_
_geom_bond_atom_site_label_1
_geom_bond_atom_site_label_2
_geom_bond_distance
_geom_bond_site_symmetry_2
_ccdc_geom_bond_type
Zn0 O3 2.031 . S
Zn0 O5 2.049 . S
Zn0 O10 2.067 . S
Zn1 O2 1.962 . S
Zn1 O4 1.986 . S
Zn1 O6 1.996 . S
Zn1 O9 1.943 . S
O2 Zn1 1.962 . S
O2 C7 1.254 . S
O3 Zn0 2.031 . S
O3 C7 1.269 . S
O4 Zn1 1.986 . S
O4 C11 1.262 . S
O5 Zn0 2.049 . S
O5 C13 1.260 . S
O6 Zn1 1.996 . S
O6 C13 1.257 . S
C7 O2 1.254 . S
C7 O3 1.269 . S
C8 O9 1.249 . S
C8 O10 1.270 . S
O9 Zn1 1.943 . S
O9 C8 1.249 . S
O10 Zn0 2.067 . S
O10 C8 1.270 . S
C11 O4 1.262 . S
C11 O12 1.232 . S
O12 C11 1.232 . S
C13 O5 1.260 . S
C13 O6 1.257 . S
Zn14 O17 2.031 . S
Zn14 O19 2.049 . S
Zn14 O24 2.067 . S
Zn15 O16 1.962 . S
Zn15 O18 1.986 . S
Zn15 O20 1.996 . S
Zn15 O23 1.943 . S
O16 Zn15 1.962 . S
O16 C21 1.254 . S
O17 Zn14 2.031 . S
O17 C21 1.269 . S
O18 Zn15 1.986 . S
O18 C25 1.262 . S
O19 Zn14 2.049 . S
O19 C27 1.260 . S
O20 Zn15 1.996 . S
O20 C27 1.257 . S
C21 O16 1.254 . S
C21 O17 1.269 . S
C22 O23 1.249 . S
C22 O24 1.270 . S
O23 Zn15 1.943 . S
O23 C22 1.249 . S
O24 Zn14 2.067 . S
O24 C22 1.270 . S
C25 O18 1.262 . S
C25 O26 1.232 . S
O26 C25 1.232 . S
C27 O19 1.260 . S
C27 O20 1.257 . S
Zn28 O31 2.031 . S
Zn28 O33 2.049 . S
Zn28 O38 2.067 . S
Zn29 O30 1.962 . S
Zn29 O32 1.986 . S
Zn29 O34 1.996 . S
Zn29 O37 1.943 . S
O30 Zn29 1.962 . S
O30 C35 1.254 . S
O31 Zn28 2.031 . S
O31 C35 1.269 . S
O32 Zn29 1.986 . S
O32 C39 1.262 . S
O33 Zn28 2.049 . S
O33 C41 1.260 . S
O34 Zn29 1.996 . S
O34 C41 1.257 . S
C35 O30 1.254 . S
C35 O31 1.269 . S
C36 O37 1.249 . S
C36 O38 1.270 . S
O37 Zn29 1.943 . S
O37 C36 1.249 . S
O38 Zn28 2.067 . S
O38 C36 1.270 . S
C39 O32 1.262 . S
C39 O40 1.232 . S
O40 C39 1.232 . S
C41 O33 1.260 . S
C41 O34 1.257 . S
Zn42 O45 2.031 . S
Zn42 O47 2.049 . S
Zn42 O52 2.067 . S
Zn43 O44 1.962 . S
Zn43 O46 1.986 . S
Zn43 O48 1.996 . S
Zn43 O51 1.943 . S
O44 Zn43 1.962 . S
O44 C49 1.254 . S
O45 Zn42 2.031 . S
O45 C49 1.269 . S
O46 Zn43 1.986 . S
O46 C53 1.262 . S
O47 Zn42 2.049 . S
O47 C55 1.260 . S
O48 Zn43 1.996 . S
O48 C55 1.257 . S
C49 O44 1.254 . S
C49 O45 1.269 . S
C50 O51 1.249 . S
C50 O52 1.270 . S
O51 Zn43 1.943 . S
O51 C50 1.249 . S
O52 Zn42 2.067 . S
O52 C50 1.270 . S
C53 O46 1.262 . S
C53 O54 1.232 . S
O54 C53 1.232 . S
C55 O47 1.260 . S
C55 O48 1.257 . S
Zn56 O59 2.031 . S
Zn56 O61 2.049 . S
Zn56 O66 2.067 . S
Zn57 O58 1.962 . S
Zn57 O60 1.986 . S
Zn57 O62 1.996 . S
Zn57 O65 1.943 . S
O58 Zn57 1.962 . S
O58 C63 1.254 . S
O59 Zn56 2.031 . S
O59 C63 1.269 . S
O60 Zn57 1.986 . S
O60 C67 1.262 . S
O61 Zn56 2.049 . S
O61 C69 1.260 . S
O62 Zn57 1.996 . S
O62 C69 1.257 . S
C63 O58 1.254 . S
C63 O59 1.269 . S
C64 O65 1.249 . S
C64 O66 1.270 . S
O65 Zn57 1.943 . S
O65 C64 1.249 . S
O66 Zn56 2.067 . S
O66 C64 1.270 . S
C67 O60 1.262 . S
C67 O68 1.232 . S
O68 C67 1.232 . S
C69 O61 1.260 . S
C69 O62 1.257 . S
Zn70 O73 2.031 . S
Zn70 O75 2.049 . S
Zn70 O80 2.067 . S
Zn71 O72 1.962 . S
Zn71 O74 1.986 . S
Zn71 O76 1.996 . S
Zn71 O79 1.943 . S
O72 Zn71 1.962 . S
O72 C77 1.254 . S
O73 Zn70 2.031 . S
O73 C77 1.269 . S
O74 Zn71 1.986 . S
O74 C81 1.262 . S
O75 Zn70 2.049 . S
O75 C83 1.260 . S
O76 Zn71 1.996 . S
O76 C83 1.257 . S
C77 O72 1.254 . S
C77 O73 1.269 . S
C78 O79 1.249 . S
C78 O80 1.270 . S
O79 Zn71 1.943 . S
O79 C78 1.249 . S
O80 Zn70 2.067 . S
O80 C78 1.270 . S
C81 O74 1.262 . S
C81 O82 1.232 . S
O82 C81 1.232 . S
C83 O75 1.260 . S
C83 O76 1.257 . S
Zn84 O87 2.031 . S
Zn84 O89 2.049 . S
Zn84 O94 2.067 . S
Zn85 O86 1.962 . S
Zn85 O88 1.986 . S
Zn85 O90 1.996 . S
Zn85 O93 1.943 . S
O86 Zn85 1.962 . S
O86 C91 1.254 . S
O87 Zn84 2.031 . S
O87 C91 1.269 . S
O88 Zn85 1.986 . S
O88 C95 1.262 . S
O89 Zn84 2.049 . S
O89 C97 1.260 . S
O90 Zn85 1.996 . S
O90 C97 1.257 . S
C91 O86 1.254 . S
C91 O87 1.269 . S
C92 O93 1.249 . S
C92 O94 1.270 . S
O93 Zn85 1.943 . S
O93 C92 1.249 . S
O94 Zn84 2.067 . S
O94 C92 1.270 . S
C95 O88 1.262 . S
C95 O96 1.232 . S
O96 C95 1.232 . S
C97 O89 1.260 . S
C97 O90 1.257 . S
Zn98 O101 2.031 . S
Zn98 O103 2.049 . S
Zn98 O108 2.067 . S
Zn99 O100 1.962 . S
Zn99 O102 1.986 . S
Zn99 O104 1.996 . S
Zn99 O107 1.943 . S
O100 Zn99 1.962 . S
O100 C105 1.254 . S
O101 Zn98 2.031 . S
O101 C105 1.269 . S
O102 Zn99 1.986 . S
O102 C109 1.262 . S
O103 Zn98 2.049 . S
O103 C111 1.260 . S
O104 Zn99 1.996 . S
O104 C111 1.257 . S
C105 O100 1.254 . S
C105 O101 1.269 . S
C106 O107 1.249 . S
C106 O108 1.270 . S
O107 Zn99 1.943 . S
O107 C106 1.249 . S
O108 Zn98 2.067 . S
O108 C106 1.270 . S
C109 O102 1.262 . S
C109 O110 1.232 . S
O110 C109 1.232 . S
C111 O103 1.260 . S
C111 O104 1.257 . S
Zn112 O115 2.031 . S
Zn112 O117 2.049 . S
Zn112 O122 2.067 . S
Zn113 O114 1.962 . S
Zn113 O116 1.986 . S
Zn113 O118 1.996 . S
Zn113 O121 1.943 . S
O114 Zn113 1.962 . S
O114 C119 1.254 . S
O115 Zn112 2.031 . S
O115 C119 1.269 . S
O116 Zn113 1.986 . S
O116 C123 1.262 . S
O117 Zn112 2.049 . S
O117 C125 1.260 . S
O118 Zn113 1.996 . S
O118 C125 1.257 . S
C119 O114 1.254 . S
C119 O115 1.269 . S
C120 O121 1.249 . S
C120 O122 1.270 . S
O121 Zn113 1.943 . S
O121 C120 1.249 . S
O122 Zn112 2.067 . S
O122 C120 1.270 . S
C123 O116 1.262 . S
C123 O124 1.232 . S
O124 C123 1.232 . S
C125 O117 1.260 . S
C125 O118 1.257 . S
Zn126 O129 2.031 . S
Zn126 O131 2.049 . S
Zn126 O136 2.067 . S
Zn127 O128 1.962 . S
Zn127 O130 1.986 . S
Zn127 O132 1.996 . S
Zn127 O135 1.943 . S
O128 Zn127 1.962 . S
O128 C133 1.254 . S
O129 Zn126 2.031 . S
O129 C133 1.269 . S
O130 Zn127 1.986 . S
O130 C137 1.262 . S
O131 Zn126 2.049 . S
O131 C139 1.260 . S
O132 Zn127 1.996 . S
O132 C139 1.257 . S
C133 O128 1.254 . S
C133 O129 1.269 . S
C134 O135 1.249 . S
C134 O136 1.270 . S
O135 Zn127 1.943 . S
O135 C134 1.249 . S
O136 Zn126 2.067 . S
O136 C134 1.270 . S
C137 O130 1.262 . S
C137 O138 1.232 . S
O138 C137 1.232 . S
C139 O131 1.260 . S
C139 O132 1.257 . S
Zn140 O143 2.031 . S
Zn140 O145 2.049 . S
Zn140 O150 2.067 . S
Zn141 O142 1.962 . S
Zn141 O144 1.986 . S
Zn141 O146 1.996 . S
Zn141 O149 1.943 . S
O142 Zn141 1.962 . S
O142 C147 1.254 . S
O143 Zn140 2.031 . S
O143 C147 1.269 . S
O144 Zn141 1.986 . S
O144 C151 1.262 . S
O145 Zn140 2.049 . S
O145 C153 1.260 . S
O146 Zn141 1.996 . S
O146 C153 1.257 . S
C147 O142 1.254 . S
C147 O143 1.269 . S
C148 O149 1.249 . S
C148 O150 1.270 . S
O149 Zn141 1.943 . S
O149 C148 1.249 . S
O150 Zn140 2.067 . S
O150 C148 1.270 . S
C151 O144 1.262 . S
C151 O152 1.232 . S
O152 C151 1.232 . S
C153 O145 1.260 . S
C153 O146 1.257 . S
Zn154 O157 2.031 . S
Zn154 O159 2.049 . S
Zn154 O164 2.067 . S
Zn155 O156 1.962 . S
Zn155 O158 1.986 . S
Zn155 O160 1.996 . S
Zn155 O163 1.943 . S
O156 Zn155 1.962 . S
O156 C161 1.254 . S
O157 Zn154 2.031 . S
O157 C161 1.269 . S
O158 Zn155 1.986 . S
O158 C165 1.262 . S
O159 Zn154 2.049 . S
O159 C167 1.260 . S
O160 Zn155 1.996 . S
O160 C167 1.257 . S
C161 O156 1.254 . S
C161 O157 1.269 . S
C162 O163 1.249 . S
C162 O164 1.270 . S
O163 Zn155 1.943 . S
O163 C162 1.249 . S
O164 Zn154 2.067 . S
O164 C162 1.270 . S
C165 O158 1.262 . S
C165 O166 1.232 . S
O166 C165 1.232 . S
C167 O159 1.260 . S
C167 O160 1.257 . S
H168 C186 0.951 . S
H169 C188 0.951 . S
H170 C190 0.950 . S
H171 C191 0.950 . S
H172 C193 0.950 . S
H173 C196 0.950 . S
H174 C197 0.950 . S
H175 C199 0.950 . S
H176 C200 0.950 . S
H177 C201 0.951 . S
H178 C203 0.951 . S
H179 C205 0.950 . S
H180 C206 0.950 . S
H181 C208 0.950 . S
H182 C211 0.950 . S
H183 C212 0.950 . S
H184 C214 0.950 . S
H185 C215 0.950 . S
C186 H168 0.951 . S
C186 C187 1.366 . S
C186 C188 1.388 . S
C187 C186 1.366 . S
C187 C191 1.385 . S
C188 H169 0.951 . S
C188 C186 1.388 . S
C188 C189 1.366 . S
C189 C188 1.366 . S
C189 C190 1.414 . S
C189 C192 1.499 . S
C190 H170 0.950 . S
C190 C189 1.414 . S
C190 C191 1.374 . S
C191 H171 0.950 . S
C191 C187 1.385 . S
C191 C190 1.374 . S
C192 C189 1.499 . S
C192 C193 1.373 . S
C192 C194 1.389 . S
C193 H172 0.950 . S
C193 C192 1.373 . S
C193 C209 1.377 . S
C194 C192 1.389 . S
C194 C195 1.524 . S
C194 C208 1.377 . S
C195 C194 1.524 . S
C195 C196 1.397 . S
C195 C200 1.363 . S
C196 H173 0.950 . S
C196 C195 1.397 . S
C196 C197 1.334 1_554 S
C197 H174 0.950 . S
C197 C196 1.334 1_556 S
C197 C198 1.287 . S
C198 C197 1.287 . S
C198 C199 1.524 . S
C198 H217 0.913 . S
C199 H175 0.950 . S
C199 C198 1.524 . S
C199 C200 1.415 1_556 S
C200 H176 0.950 . S
C200 C195 1.363 . S
C200 C199 1.415 1_554 S
C201 H177 0.951 . S
C201 C202 1.366 . S
C201 C203 1.388 . S
C202 C201 1.366 . S
C202 C206 1.385 . S
C203 H178 0.951 . S
C203 C201 1.388 . S
C203 C204 1.366 . S
C204 C203 1.366 . S
C204 C205 1.414 . S
C204 C207 1.499 . S
C205 H179 0.950 . S
C205 C204 1.414 . S
C205 C206 1.374 . S
C206 H180 0.950 . S
C206 C202 1.385 . S
C206 C205 1.374 . S
C207 C204 1.499 . S
C207 C208 1.373 . S
C207 C209 1.389 . S
C208 H181 0.950 . S
C208 C194 1.377 . S
C208 C207 1.373 . S
C209 C193 1.377 . S
C209 C207 1.389 . S
C209 C210 1.524 . S
C210 C209 1.524 . S
C210 C211 1.397 . S
C210 C215 1.363 . S
C211 H182 0.950 . S
C211 C210 1.397 . S
C211 C212 1.334 . S
C212 H183 0.950 . S
C212 C211 1.334 . S
C212 C213 1.287 . S
C213 C212 1.287 . S
C213 C214 1.524 . S
C213 H216 0.999 . S
C214 H184 0.950 . S
C214 C213 1.524 . S
C214 C215 1.415 . S
C215 H185 0.950 . S
C215 C210 1.363 . S
C215 C214 1.415 . S
H216 C213 0.999 . S
H217 C198 0.913 . S
H218 C236 0.951 . S
H219 C238 0.951 . S
H220 C240 0.950 1_655 S
H221 C241 0.950 . S
H222 C243 0.950 . S
H223 C246 0.950 . S
H224 C247 0.950 . S
H225 C249 0.950 . S
H226 C250 0.950 . S
H227 C251 0.951 . S
H228 C253 0.951 . S
H229 C255 0.950 1_455 S
H230 C256 0.950 . S
H231 C258 0.950 . S
H232 C261 0.950 . S
H233 C262 0.950 . S
H234 C264 0.950 . S
H235 C265 0.950 . S
C236 H218 0.951 . S
C236 C237 1.366 . S
C236 C238 1.388 . S
C237 C236 1.366 . S
C237 C241 1.385 . S
C238 H219 0.951 . S
C238 C236 1.388 . S
C238 C239 1.366 . S
C239 C238 1.366 . S
C239 C240 1.414 . S
C239 C242 1.499 . S
C240 H220 0.950 1_455 S
C240 C239 1.414 . S
C240 C241 1.374 . S
C241 H221 0.950 . S
C241 C237 1.385 . S
C241 C240 1.374 . S
C242 C239 1.499 . S
C242 C243 1.373 1_455 S
C242 C244 1.389 . S
C243 H222 0.950 . S
C243 C242 1.373 1_655 S
C243 C259 1.377 . S
C244 C242 1.389 . S
C244 C245 1.524 . S
C244 C258 1.377 . S
C245 C244 1.524 . S
C245 C246 1.397 . S
C245 C250 1.363 . S
C246 H223 0.950 . S
C246 C245 1.397 . S
C246 C247 1.334 . S
C247 H224 0.950 . S
C247 C246 1.334 . S
C247 C248 1.287 . S
C248 C247 1.287 . S
C248 C249 1.524 . S
C248 H267 0.913 . S
C249 H225 0.950 . S
C249 C248 1.524 . S
C249 C250 1.415 . S
C250 H226 0.950 . S
C250 C245 1.363 . S
C250 C249 1.415 . S
C251 H227 0.951 . S
C251 C252 1.366 . S
C251 C253 1.388 . S
C252 C251 1.366 . S
C252 C256 1.385 . S
C253 H228 0.951 . S
C253 C251 1.388 . S
C253 C254 1.366 . S
C254 C253 1.366 . S
C254 C255 1.414 . S
C254 C257 1.499 . S
C255 H229 0.950 1_655 S
C255 C254 1.414 . S
C255 C256 1.374 . S
C256 H230 0.950 . S
C256 C252 1.385 . S
C256 C255 1.374 . S
C257 C254 1.499 . S
C257 C258 1.373 1_655 S
C257 C259 1.389 . S
C258 H231 0.950 . S
C258 C244 1.377 . S
C258 C257 1.373 1_455 S
C259 C243 1.377 . S
C259 C257 1.389 . S
C259 C260 1.524 . S
C260 C259 1.524 . S
C260 C261 1.397 . S
C260 C265 1.363 . S
C261 H232 0.950 . S
C261 C260 1.397 . S
C261 C262 1.334 . S
C262 H233 0.950 . S
C262 C261 1.334 . S
C262 C263 1.287 . S
C263 C262 1.287 . S
C263 C264 1.524 . S
C263 H266 0.999 . S
C264 H234 0.950 . S
C264 C263 1.524 . S
C264 C265 1.415 . S
C265 H235 0.950 . S
C265 C260 1.363 . S
C265 C264 1.415 . S
H266 C263 0.999 . S
H267 C248 0.913 . S
H268 C286 0.951 . S
H269 C288 0.951 1_545 S
H270 C290 0.950 . S
H271 C291 0.950 . S
H272 C293 0.950 . S
H273 C296 0.950 1_565 S
H274 C297 0.950 1_565 S
H275 C299 0.950 . S
H276 C300 0.950 . S
H277 C301 0.951 . S
H278 C303 0.951 1_565 S
H279 C305 0.950 . S
H280 C306 0.950 . S
H281 C308 0.950 . S
H282 C311 0.950 1_545 S
H283 C312 0.950 1_545 S
H284 C314 0.950 . S
H285 C315 0.950 . S
C286 H268 0.951 . S
C286 C287 1.366 . S
C286 C288 1.388 . S
C287 C286 1.366 . S
C287 C291 1.385 . S
C288 H269 0.951 1_565 S
C288 C286 1.388 . S
C288 C289 1.366 . S
C289 C288 1.366 . S
C289 C290 1.414 . S
C289 C292 1.499 . S
C290 H270 0.950 . S
C290 C289 1.414 . S
C290 C291 1.374 . S
C291 H271 0.950 . S
C291 C287 1.385 . S
C291 C290 1.374 . S
C292 C289 1.499 . S
C292 C293 1.373 . S
C292 C294 1.389 1_565 S
C293 H272 0.950 . S
C293 C292 1.373 . S
C293 C309 1.377 . S
C294 C292 1.389 1_545 S
C294 C295 1.524 . S
C294 C308 1.377 . S
C295 C294 1.524 . S
C295 C296 1.397 . S
C295 C300 1.363 . S
C296 H273 0.950 1_545 S
C296 C295 1.397 . S
C296 C297 1.334 . S
C297 H274 0.950 1_545 S
C297 C296 1.334 . S
C297 C298 1.287 . S
C298 C297 1.287 . S
C298 C299 1.524 . S
C298 H317 0.913 . S
C299 H275 0.950 . S
C299 C298 1.524 . S
C299 C300 1.415 . S
C300 H276 0.950 . S
C300 C295 1.363 . S
C300 C299 1.415 . S
C301 H277 0.951 . S
C301 C302 1.366 . S
C301 C303 1.388 . S
C302 C301 1.366 . S
C302 C306 1.385 . S
C303 H278 0.951 1_545 S
C303 C301 1.388 . S
C303 C304 1.366 . S
C304 C303 1.366 . S
C304 C305 1.414 . S
C304 C307 1.499 . S
C305 H279 0.950 . S
C305 C304 1.414 . S
C305 C306 1.374 . S
C306 H280 0.950 . S
C306 C302 1.385 . S
C306 C305 1.374 . S
C307 C304 1.499 . S
C307 C308 1.373 . S
C307 C309 1.389 1_545 S
C308 H281 0.950 . S
C308 C294 1.377 . S
C308 C307 1.373 . S
C309 C293 1.377 . S
C309 C307 1.389 1_565 S
C309 C310 1.524 . S
C310 C309 1.524 . S
C310 C311 1.397 . S
C310 C315 1.363 . S
C311 H282 0.950 1_565 S
C311 C310 1.397 . S
C311 C312 1.334 . S
C312 H283 0.950 1_565 S
C312 C311 1.334 . S
C312 C313 1.287 . S
C313 C312 1.287 . S
C313 C314 1.524 . S
C313 H316 0.999 . S
C314 H284 0.950 . S
C314 C313 1.524 . S
C314 C315 1.415 . S
C315 H285 0.950 . S
C315 C310 1.363 . S
C315 C314 1.415 . S
H316 C313 0.999 . S
H317 C298 0.913 . S
H318 C336 0.951 . S
H319 C338 0.951 . S
H320 C340 0.950 . S
H321 C341 0.950 . S
H322 C343 0.950 . S
H323 C346 0.950 . S
H324 C347 0.950 . S
H325 C349 0.950 . S
H326 C350 0.950 . S
H327 C351 0.951 . S
H328 C353 0.951 . S
H329 C355 0.950 . S
H330 C356 0.950 . S
H331 C358 0.950 . S
H332 C361 0.950 . S
H333 C362 0.950 . S
H334 C364 0.950 . S
H335 C365 0.950 . S
C336 H318 0.951 . S
C336 C337 1.366 . S
C336 C338 1.388 . S
C337 C336 1.366 . S
C337 C341 1.385 . S
C338 H319 0.951 . S
C338 C336 1.388 . S
C338 C339 1.366 . S
C339 C338 1.366 . S
C339 C340 1.414 . S
C339 C342 1.499 . S
C340 H320 0.950 . S
C340 C339 1.414 . S
C340 C341 1.374 . S
C341 H321 0.950 . S
C341 C337 1.385 . S
C341 C340 1.374 . S
C342 C339 1.499 . S
C342 C343 1.373 . S
C342 C344 1.389 . S
C343 H322 0.950 . S
C343 C342 1.373 . S
C343 C359 1.377 . S
C344 C342 1.389 . S
C344 C345 1.524 . S
C344 C358 1.377 . S
C345 C344 1.524 . S
C345 C346 1.397 . S
C345 C350 1.363 . S
C346 H323 0.950 . S
C346 C345 1.397 . S
C346 C347 1.334 . S
C347 H324 0.950 . S
C347 C346 1.334 . S
C347 C348 1.287 . S
C348 C347 1.287 . S
C348 C349 1.524 . S
C348 H367 0.913 . S
C349 H325 0.950 . S
C349 C348 1.524 . S
C349 C350 1.415 . S
C350 H326 0.950 . S
C350 C345 1.363 . S
C350 C349 1.415 . S
C351 H327 0.951 . S
C351 C352 1.366 . S
C351 C353 1.388 . S
C352 C351 1.366 . S
C352 C356 1.385 . S
C353 H328 0.951 . S
C353 C351 1.388 . S
C353 C354 1.366 . S
C354 C353 1.366 . S
C354 C355 1.414 . S
C354 C357 1.499 . S
C355 H329 0.950 . S
C355 C354 1.414 . S
C355 C356 1.374 . S
C356 H330 0.950 . S
C356 C352 1.385 . S
C356 C355 1.374 . S
C357 C354 1.499 . S
C357 C358 1.373 . S
C357 C359 1.389 . S
C358 H331 0.950 . S
C358 C344 1.377 . S
C358 C357 1.373 . S
C359 C343 1.377 . S
C359 C357 1.389 . S
C359 C360 1.524 . S
C360 C359 1.524 . S
C360 C361 1.397 . S
C360 C365 1.363 . S
C361 H332 0.950 . S
C361 C360 1.397 . S
C361 C362 1.334 . S
C362 H333 0.950 . S
C362 C361 1.334 . S
C362 C363 1.287 . S
C363 C362 1.287 . S
C363 C364 1.524 . S
C363 H366 0.999 . S
C364 H334 0.950 . S
C364 C363 1.524 . S
C364 C365 1.415 . S
C365 H335 0.950 . S
C365 C360 1.363 . S
C365 C364 1.415 . S
H366 C363 0.999 . S
H367 C348 0.913 . S
H368 C386 0.951 . S
H369 C388 0.951 1_455 S
H370 C390 0.950 . S
H371 C391 0.950 . S
H372 C393 0.950 . S
H373 C396 0.950 . S
H374 C397 0.950 . S
H375 C399 0.950 . S
H376 C400 0.950 . S
H377 C401 0.951 . S
H378 C403 0.951 1_655 S
H379 C405 0.950 . S
H380 C406 0.950 . S
H381 C408 0.950 . S
H382 C411 0.950 . S
H383 C412 0.950 . S
H384 C414 0.950 . S
H385 C415 0.950 . S
C386 H368 0.951 . S
C386 C387 1.366 . S
C386 C388 1.388 . S
C387 C386 1.366 . S
C387 C391 1.385 . S
C388 H369 0.951 1_655 S
C388 C386 1.388 . S
C388 C389 1.366 . S
C389 C388 1.366 . S
C389 C390 1.414 . S
C389 C392 1.499 . S
C390 H370 0.950 . S
C390 C389 1.414 . S
C390 C391 1.374 . S
C391 H371 0.950 . S
C391 C387 1.385 . S
C391 C390 1.374 . S
C392 C389 1.499 . S
C392 C393 1.373 . S
C392 C394 1.389 1_655 S
C393 H372 0.950 . S
C393 C392 1.373 . S
C393 C409 1.377 . S
C394 C392 1.389 1_455 S
C394 C395 1.524 . S
C394 C408 1.377 . S
C395 C394 1.524 . S
C395 C396 1.397 1_455 S
C395 C400 1.363 . S
C396 H373 0.950 . S
C396 C395 1.397 1_655 S
C396 C397 1.334 1_556 S
C397 H374 0.950 . S
C397 C396 1.334 1_554 S
C397 C398 1.287 1_655 S
C398 C397 1.287 1_455 S
C398 C399 1.524 . S
C398 H417 0.913 . S
C399 H375 0.950 . S
C399 C398 1.524 . S
C399 C400 1.415 1_554 S
C400 H376 0.950 . S
C400 C395 1.363 . S
C400 C399 1.415 1_556 S
C401 H377 0.951 . S
C401 C402 1.366 . S
C401 C403 1.388 . S
C402 C401 1.366 . S
C402 C406 1.385 . S
C403 H378 0.951 1_455 S
C403 C401 1.388 . S
C403 C404 1.366 . S
C404 C403 1.366 . S
C404 C405 1.414 . S
C404 C407 1.499 . S
C405 H379 0.950 . S
C405 C404 1.414 . S
C405 C406 1.374 . S
C406 H380 0.950 . S
C406 C402 1.385 . S
C406 C405 1.374 . S
C407 C404 1.499 . S
C407 C408 1.373 . S
C407 C409 1.389 1_455 S
C408 H381 0.950 . S
C408 C394 1.377 . S
C408 C407 1.373 . S
C409 C393 1.377 . S
C409 C407 1.389 1_655 S
C409 C410 1.524 . S
C410 C409 1.524 . S
C410 C411 1.397 1_655 S
C410 C415 1.363 . S
C411 H382 0.950 . S
C411 C410 1.397 1_455 S
C411 C412 1.334 . S
C412 H383 0.950 . S
C412 C411 1.334 . S
C412 C413 1.287 1_455 S
C413 C412 1.287 1_655 S
C413 C414 1.524 . S
C413 H416 0.999 . S
C414 H384 0.950 . S
C414 C413 1.524 . S
C414 C415 1.415 . S
C415 H385 0.950 . S
C415 C410 1.363 . S
C415 C414 1.415 . S
H416 C413 0.999 . S
H417 C398 0.913 . S
H418 C436 0.951 . S
H419 C438 0.951 . S
H420 C440 0.950 . S
H421 C441 0.950 . S
H422 C443 0.950 . S
H423 C446 0.950 . S
H424 C447 0.950 . S
H425 C449 0.950 . S
H426 C450 0.950 . S
H427 C451 0.951 . S
H428 C453 0.951 . S
H429 C455 0.950 . S
H430 C456 0.950 . S
H431 C458 0.950 . S
H432 C461 0.950 . S
H433 C462 0.950 . S
H434 C464 0.950 . S
H435 C465 0.950 . S
C436 H418 0.951 . S
C436 C437 1.366 . S
C436 C438 1.388 . S
C437 C436 1.366 . S
C437 C441 1.385 . S
C438 H419 0.951 . S
C438 C436 1.388 . S
C438 C439 1.366 . S
C439 C438 1.366 . S
C439 C440 1.414 . S
C439 C442 1.499 . S
C440 H420 0.950 . S
C440 C439 1.414 . S
C440 C441 1.374 . S
C441 H421 0.950 . S
C441 C437 1.385 . S
C441 C440 1.374 . S
C442 C439 1.499 . S
C442 C443 1.373 1_545 S
C442 C444 1.389 . S
C443 H422 0.950 . S
C443 C442 1.373 1_565 S
C443 C459 1.377 . S
C444 C442 1.389 . S
C444 C445 1.524 . S
C444 C458 1.377 . S
C445 C444 1.524 . S
C445 C446 1.397 . S
C445 C450 1.363 . S
C446 H423 0.950 . S
C446 C445 1.397 . S
C446 C447 1.334 . S
C447 H424 0.950 . S
C447 C446 1.334 . S
C447 C448 1.287 . S
C448 C447 1.287 . S
C448 C449 1.524 . S
C448 H467 0.913 . S
C449 H425 0.950 . S
C449 C448 1.524 . S
C449 C450 1.415 . S
C450 H426 0.950 . S
C450 C445 1.363 . S
C450 C449 1.415 . S
C451 H427 0.951 . S
C451 C452 1.366 . S
C451 C453 1.388 . S
C452 C451 1.366 . S
C452 C456 1.385 . S
C453 H428 0.951 . S
C453 C451 1.388 . S
C453 C454 1.366 . S
C454 C453 1.366 . S
C454 C455 1.414 . S
C454 C457 1.499 . S
C455 H429 0.950 . S
C455 C454 1.414 . S
C455 C456 1.374 . S
C456 H430 0.950 . S
C456 C452 1.385 . S
C456 C455 1.374 . S
C457 C454 1.499 . S
C457 C458 1.373 1_565 S
C457 C459 1.389 . S
C458 H431 0.950 . S
C458 C444 1.377 . S
C458 C457 1.373 1_545 S
C459 C443 1.377 . S
C459 C457 1.389 . S
C459 C460 1.524 . S
C460 C459 1.524 . S
C460 C461 1.397 . S
C460 C465 1.363 . S
C461 H432 0.950 . S
C461 C460 1.397 . S
C461 C462 1.334 . S
C462 H433 0.950 . S
C462 C461 1.334 . S
C462 C463 1.287 . S
C463 C462 1.287 . S
C463 C464 1.524 . S
C463 H466 0.999 . S
C464 H434 0.950 . S
C464 C463 1.524 . S
C464 C465 1.415 . S
C465 H435 0.950 . S
C465 C460 1.363 . S
C465 C464 1.415 . S
H466 C463 0.999 . S
H467 C448 0.913 . S
H468 C486 0.951 . S
H469 C488 0.951 . S
H470 C490 0.950 . S
H471 C491 0.950 . S
H472 C493 0.950 . S
H473 C496 0.950 . S
H474 C497 0.950 . S
H475 C499 0.950 1_565 S
H476 C500 0.950 . S
H477 C501 0.951 . S
H478 C503 0.951 . S
H479 C505 0.950 . S
H480 C506 0.950 . S
H481 C508 0.950 . S
H482 C511 0.950 . S
H483 C512 0.950 . S
H484 C514 0.950 . S
H485 C515 0.950 . S
C486 H468 0.951 . S
C486 C487 1.366 . S
C486 C488 1.388 . S
C487 C486 1.366 . S
C487 C491 1.385 . S
C488 H469 0.951 . S
C488 C486 1.388 . S
C488 C489 1.366 . S
C489 C488 1.366 . S
C489 C490 1.414 . S
C489 C492 1.499 . S
C490 H470 0.950 . S
C490 C489 1.414 . S
C490 C491 1.374 . S
C491 H471 0.950 . S
C491 C487 1.385 . S
C491 C490 1.374 . S
C492 C489 1.499 . S
C492 C493 1.373 . S
C492 C494 1.389 . S
C493 H472 0.950 . S
C493 C492 1.373 . S
C493 C509 1.377 . S
C494 C492 1.389 . S
C494 C495 1.524 . S
C494 C508 1.377 . S
C495 C494 1.524 . S
C495 C496 1.397 . S
C495 C500 1.363 . S
C496 H473 0.950 . S
C496 C495 1.397 . S
C496 C497 1.334 . S
C497 H474 0.950 . S
C497 C496 1.334 . S
C497 C498 1.287 . S
C498 C497 1.287 . S
C498 C499 1.524 . S
C498 H517 0.913 1_545 S
C499 H475 0.950 1_545 S
C499 C498 1.524 . S
C499 C500 1.415 . S
C500 H476 0.950 . S
C500 C495 1.363 . S
C500 C499 1.415 . S
C501 H477 0.951 . S
C501 C502 1.366 . S
C501 C503 1.388 . S
C502 C501 1.366 . S
C502 C506 1.385 . S
C503 H478 0.951 . S
C503 C501 1.388 . S
C503 C504 1.366 . S
C504 C503 1.366 . S
C504 C505 1.414 . S
C504 C507 1.499 . S
C505 H479 0.950 . S
C505 C504 1.414 . S
C505 C506 1.374 . S
C506 H480 0.950 . S
C506 C502 1.385 . S
C506 C505 1.374 . S
C507 C504 1.499 . S
C507 C508 1.373 . S
C507 C509 1.389 . S
C508 H481 0.950 . S
C508 C494 1.377 . S
C508 C507 1.373 . S
C509 C493 1.377 . S
C509 C507 1.389 . S
C509 C510 1.524 . S
C510 C509 1.524 . S
C510 C511 1.397 . S
C510 C515 1.363 . S
C511 H482 0.950 . S
C511 C510 1.397 . S
C511 C512 1.334 . S
C512 H483 0.950 . S
C512 C511 1.334 . S
C512 C513 1.287 . S
C513 C512 1.287 . S
C513 C514 1.524 . S
C513 H516 0.999 . S
C514 H484 0.950 . S
C514 C513 1.524 . S
C514 C515 1.415 . S
C515 H485 0.950 . S
C515 C510 1.363 . S
C515 C514 1.415 . S
H516 C513 0.999 . S
H517 C498 0.913 1_565 S
H518 C536 0.951 . S
H519 C538 0.951 . S
H520 C540 0.950 . S
H521 C541 0.950 . S
H522 C543 0.950 . S
H523 C546 0.950 . S
H524 C547 0.950 . S
H525 C549 0.950 . S
H526 C550 0.950 . S
H527 C551 0.951 . S
H528 C553 0.951 . S
H529 C555 0.950 . S
H530 C556 0.950 . S
H531 C558 0.950 . S
H532 C561 0.950 . S
H533 C562 0.950 . S
H534 C564 0.950 . S
H535 C565 0.950 . S
C536 H518 0.951 . S
C536 C537 1.366 . S
C536 C538 1.388 . S
C537 C536 1.366 . S
C537 C541 1.385 . S
C538 H519 0.951 . S
C538 C536 1.388 . S
C538 C539 1.366 . S
C539 C538 1.366 . S
C539 C540 1.414 . S
C539 C542 1.499 . S
C540 H520 0.950 . S
C540 C539 1.414 . S
C540 C541 1.374 . S
C541 H521 0.950 . S
C541 C537 1.385 . S
C541 C540 1.374 . S
C542 C539 1.499 . S
C542 C543 1.373 . S
C542 C544 1.389 . S
C543 H522 0.950 . S
C543 C542 1.373 . S
C543 C559 1.377 . S
C544 C542 1.389 . S
C544 C545 1.524 . S
C544 C558 1.377 . S
C545 C544 1.524 . S
C545 C546 1.397 . S
C545 C550 1.363 . S
C546 H523 0.950 . S
C546 C545 1.397 . S
C546 C547 1.334 . S
C547 H524 0.950 . S
C547 C546 1.334 . S
C547 C548 1.287 . S
C548 C547 1.287 . S
C548 C549 1.524 . S
C548 H567 0.913 . S
C549 H525 0.950 . S
C549 C548 1.524 . S
C549 C550 1.415 . S
C550 H526 0.950 . S
C550 C545 1.363 . S
C550 C549 1.415 . S
C551 H527 0.951 . S
C551 C552 1.366 . S
C551 C553 1.388 . S
C552 C551 1.366 . S
C552 C556 1.385 . S
C553 H528 0.951 . S
C553 C551 1.388 . S
C553 C554 1.366 . S
C554 C553 1.366 . S
C554 C555 1.414 . S
C554 C557 1.499 . S
C555 H529 0.950 . S
C555 C554 1.414 . S
C555 C556 1.374 . S
C556 H530 0.950 . S
C556 C552 1.385 . S
C556 C555 1.374 . S
C557 C554 1.499 . S
C557 C558 1.373 . S
C557 C559 1.389 . S
C558 H531 0.950 . S
C558 C544 1.377 . S
C558 C557 1.373 . S
C559 C543 1.377 . S
C559 C557 1.389 . S
C559 C560 1.524 . S
C560 C559 1.524 . S
C560 C561 1.397 . S
C560 C565 1.363 . S
C561 H532 0.950 . S
C561 C560 1.397 . S
C561 C562 1.334 . S
C562 H533 0.950 . S
C562 C561 1.334 . S
C562 C563 1.287 . S
C563 C562 1.287 . S
C563 C564 1.524 . S
C563 H566 0.999 . S
C564 H534 0.950 . S
C564 C563 1.524 . S
C564 C565 1.415 . S
C565 H535 0.950 . S
C565 C560 1.363 . S
C565 C564 1.415 . S
H566 C563 0.999 . S
H567 C548 0.913 . S
H568 C586 0.951 . S
H569 C588 0.951 . S
H570 C590 0.950 . S
H571 C591 0.950 . S
H572 C593 0.950 . S
H573 C596 0.950 . S
H574 C597 0.950 . S
H575 C599 0.950 1_565 S
H576 C600 0.950 . S
H577 C601 0.951 . S
H578 C603 0.951 . S
H579 C605 0.950 . S
H580 C606 0.950 . S
H581 C608 0.950 . S
H582 C611 0.950 . S
H583 C612 0.950 . S
H584 C614 0.950 . S
H585 C615 0.950 . S
C586 H568 0.951 . S
C586 C587 1.366 . S
C586 C588 1.388 . S
C587 C586 1.366 . S
C587 C591 1.385 . S
C588 H569 0.951 . S
C588 C586 1.388 . S
C588 C589 1.366 . S
C589 C588 1.366 . S
C589 C590 1.414 . S
C589 C592 1.499 . S
C590 H570 0.950 . S
C590 C589 1.414 . S
C590 C591 1.374 . S
C591 H571 0.950 . S
C591 C587 1.385 . S
C591 C590 1.374 . S
C592 C589 1.499 . S
C592 C593 1.373 . S
C592 C594 1.389 . S
C593 H572 0.950 . S
C593 C592 1.373 . S
C593 C609 1.377 . S
C594 C592 1.389 . S
C594 C595 1.524 . S
C594 C608 1.377 . S
C595 C594 1.524 . S
C595 C596 1.397 . S
C595 C600 1.363 . S
C596 H573 0.950 . S
C596 C595 1.397 . S
C596 C597 1.334 . S
C597 H574 0.950 . S
C597 C596 1.334 . S
C597 C598 1.287 . S
C598 C597 1.287 . S
C598 C599 1.524 . S
C598 H617 0.913 . S
C599 H575 0.950 1_545 S
C599 C598 1.524 . S
C599 C600 1.415 . S
C600 H576 0.950 . S
C600 C595 1.363 . S
C600 C599 1.415 . S
C601 H577 0.951 . S
C601 C602 1.366 . S
C601 C603 1.388 . S
C602 C601 1.366 . S
C602 C606 1.385 . S
C603 H578 0.951 . S
C603 C601 1.388 . S
C603 C604 1.366 . S
C604 C603 1.366 . S
C604 C605 1.414 . S
C604 C607 1.499 . S
C605 H579 0.950 . S
C605 C604 1.414 . S
C605 C606 1.374 . S
C606 H580 0.950 . S
C606 C602 1.385 . S
C606 C605 1.374 . S
C607 C604 1.499 . S
C607 C608 1.373 . S
C607 C609 1.389 . S
C608 H581 0.950 . S
C608 C594 1.377 . S
C608 C607 1.373 . S
C609 C593 1.377 . S
C609 C607 1.389 . S
C609 C610 1.524 . S
C610 C609 1.524 . S
C610 C611 1.397 . S
C610 C615 1.363 . S
C611 H582 0.950 . S
C611 C610 1.397 . S
C611 C612 1.334 . S
C612 H583 0.950 . S
C612 C611 1.334 . S
C612 C613 1.287 . S
C613 C612 1.287 . S
C613 C614 1.524 . S
C613 H616 0.999 1_655 S
C614 H584 0.950 . S
C614 C613 1.524 . S
C614 C615 1.415 . S
C615 H585 0.950 . S
C615 C610 1.363 . S
C615 C614 1.415 . S
H616 C613 0.999 1_455 S
H617 C598 0.913 . S
H618 C636 0.951 . S
H619 C638 0.951 . S
H620 C640 0.950 . S
H621 C641 0.950 . S
H622 C643 0.950 . S
H623 C646 0.950 . S
H624 C647 0.950 . S
H625 C649 0.950 . S
H626 C650 0.950 . S
H627 C651 0.951 . S
H628 C653 0.951 . S
H629 C655 0.950 . S
H630 C656 0.950 . S
H631 C658 0.950 . S
H632 C661 0.950 . S
H633 C662 0.950 . S
H634 C664 0.950 . S
H635 C665 0.950 . S
C636 H618 0.951 . S
C636 C637 1.366 . S
C636 C638 1.388 . S
C637 C636 1.366 . S
C637 C641 1.385 . S
C638 H619 0.951 . S
C638 C636 1.388 . S
C638 C639 1.366 . S
C639 C638 1.366 . S
C639 C640 1.414 . S
C639 C642 1.499 . S
C640 H620 0.950 . S
C640 C639 1.414 . S
C640 C641 1.374 . S
C641 H621 0.950 . S
C641 C637 1.385 . S
C641 C640 1.374 . S
C642 C639 1.499 . S
C642 C643 1.373 . S
C642 C644 1.389 . S
C643 H622 0.950 . S
C643 C642 1.373 . S
C643 C659 1.377 . S
C644 C642 1.389 . S
C644 C645 1.524 . S
C644 C658 1.377 . S
C645 C644 1.524 . S
C645 C646 1.397 . S
C645 C650 1.363 . S
C646 H623 0.950 . S
C646 C645 1.397 . S
C646 C647 1.334 . S
C647 H624 0.950 . S
C647 C646 1.334 . S
C647 C648 1.287 . S
C648 C647 1.287 . S
C648 C649 1.524 . S
C648 H667 0.913 . S
C649 H625 0.950 . S
C649 C648 1.524 . S
C649 C650 1.415 . S
C650 H626 0.950 . S
C650 C645 1.363 . S
C650 C649 1.415 . S
C651 H627 0.951 . S
C651 C652 1.366 . S
C651 C653 1.388 . S
C652 C651 1.366 . S
C652 C656 1.385 . S
C653 H628 0.951 . S
C653 C651 1.388 . S
C653 C654 1.366 . S
C654 C653 1.366 . S
C654 C655 1.414 . S
C654 C657 1.499 . S
C655 H629 0.950 . S
C655 C654 1.414 . S
C655 C656 1.374 . S
C656 H630 0.950 . S
C656 C652 1.385 . S
C656 C655 1.374 . S
C657 C654 1.499 . S
C657 C658 1.373 . S
C657 C659 1.389 . S
C658 H631 0.950 . S
C658 C644 1.377 . S
C658 C657 1.373 . S
C659 C643 1.377 . S
C659 C657 1.389 . S
C659 C660 1.524 . S
C660 C659 1.524 . S
C660 C661 1.397 . S
C660 C665 1.363 . S
C661 H632 0.950 . S
C661 C660 1.397 . S
C661 C662 1.334 . S
C662 H633 0.950 . S
C662 C661 1.334 . S
C662 C663 1.287 . S
C663 C662 1.287 . S
C663 C664 1.524 . S
C663 H666 0.999 . S
C664 H634 0.950 . S
C664 C663 1.524 . S
C664 C665 1.415 . S
C665 H635 0.950 . S
C665 C660 1.363 . S
C665 C664 1.415 . S
H666 C663 0.999 . S
H667 C648 0.913 . S
H668 C686 0.951 . S
H669 C688 0.951 . S
H670 C690 0.950 . S
H671 C691 0.950 . S
H672 C693 0.950 . S
H673 C696 0.950 . S
H674 C697 0.950 . S
H675 C699 0.950 . S
H676 C700 0.950 . S
H677 C701 0.951 . S
H678 C703 0.951 . S
H679 C705 0.950 . S
H680 C706 0.950 . S
H681 C708 0.950 . S
H682 C711 0.950 . S
H683 C712 0.950 . S
H684 C714 0.950 . S
H685 C715 0.950 . S
C686 H668 0.951 . S
C686 C687 1.366 . S
C686 C688 1.388 . S
C687 C686 1.366 . S
C687 C691 1.385 . S
C688 H669 0.951 . S
C688 C686 1.388 . S
C688 C689 1.366 . S
C689 C688 1.366 . S
C689 C690 1.414 . S
C689 C692 1.499 . S
C690 H670 0.950 . S
C690 C689 1.414 . S
C690 C691 1.374 . S
C691 H671 0.950 . S
C691 C687 1.385 . S
C691 C690 1.374 . S
C692 C689 1.499 . S
C692 C693 1.373 . S
C692 C694 1.389 . S
C693 H672 0.950 . S
C693 C692 1.373 . S
C693 C709 1.377 . S
C694 C692 1.389 . S
C694 C695 1.524 . S
C694 C708 1.377 . S
C695 C694 1.524 . S
C695 C696 1.397 . S
C695 C700 1.363 . S
C696 H673 0.950 . S
C696 C695 1.397 . S
C696 C697 1.334 . S
C697 H674 0.950 . S
C697 C696 1.334 . S
C697 C698 1.287 . S
C698 C697 1.287 . S
C698 C699 1.524 . S
C698 H717 0.913 . S
C699 H675 0.950 . S
C699 C698 1.524 . S
C699 C700 1.415 . S
C700 H676 0.950 . S
C700 C695 1.363 . S
C700 C699 1.415 . S
C701 H677 0.951 . S
C701 C702 1.366 . S
C701 C703 1.388 . S
C702 C701 1.366 . S
C702 C706 1.385 . S
C703 H678 0.951 . S
C703 C701 1.388 . S
C703 C704 1.366 . S
C704 C703 1.366 . S
C704 C705 1.414 . S
C704 C707 1.499 . S
C705 H679 0.950 . S
C705 C704 1.414 . S
C705 C706 1.374 . S
C706 H680 0.950 . S
C706 C702 1.385 . S
C706 C705 1.374 . S
C707 C704 1.499 . S
C707 C708 1.373 . S
C707 C709 1.389 . S
C708 H681 0.950 . S
C708 C694 1.377 . S
C708 C707 1.373 . S
C709 C693 1.377 . S
C709 C707 1.389 . S
C709 C710 1.524 . S
C710 C709 1.524 . S
C710 C711 1.397 . S
C710 C715 1.363 . S
C711 H682 0.950 . S
C711 C710 1.397 . S
C711 C712 1.334 . S
C712 H683 0.950 . S
C712 C711 1.334 . S
C712 C713 1.287 . S
C713 C712 1.287 . S
C713 C714 1.524 . S
C713 H716 0.999 . S
C714 H684 0.950 . S
C714 C713 1.524 . S
C714 C715 1.415 . S
C715 H685 0.950 . S
C715 C710 1.363 . S
C715 C714 1.415 . S
H716 C713 0.999 . S
H717 C698 0.913 . S
H718 C736 0.951 . S
H719 C738 0.951 . S
H720 C740 0.950 . S
H721 C741 0.950 . S
H722 C743 0.950 . S
H723 C746 0.950 . S
H724 C747 0.950 . S
H725 C749 0.950 . S
H726 C750 0.950 . S
H727 C751 0.951 . S
H728 C753 0.951 . S
H729 C755 0.950 . S
H730 C756 0.950 . S
H731 C758 0.950 . S
H732 C761 0.950 . S
H733 C762 0.950 . S
H734 C764 0.950 . S
H735 C765 0.950 . S
C736 H718 0.951 . S
C736 C737 1.366 . S
C736 C738 1.388 . S
C737 C736 1.366 . S
C737 C741 1.385 . S
C738 H719 0.951 . S
C738 C736 1.388 . S
C738 C739 1.366 . S
C739 C738 1.366 . S
C739 C740 1.414 . S
C739 C742 1.499 . S
C740 H720 0.950 . S
C740 C739 1.414 . S
C740 C741 1.374 . S
C741 H721 0.950 . S
C741 C737 1.385 . S
C741 C740 1.374 . S
C742 C739 1.499 . S
C742 C743 1.373 . S
C742 C744 1.389 . S
C743 H722 0.950 . S
C743 C742 1.373 . S
C743 C759 1.377 . S
C744 C742 1.389 . S
C744 C745 1.524 . S
C744 C758 1.377 . S
C745 C744 1.524 . S
C745 C746 1.397 . S
C745 C750 1.363 . S
C746 H723 0.950 . S
C746 C745 1.397 . S
C746 C747 1.334 . S
C747 H724 0.950 . S
C747 C746 1.334 . S
C747 C748 1.287 . S
C748 C747 1.287 . S
C748 C749 1.524 . S
C748 H767 0.913 . S
C749 H725 0.950 . S
C749 C748 1.524 . S
C749 C750 1.415 . S
C750 H726 0.950 . S
C750 C745 1.363 . S
C750 C749 1.415 . S
C751 H727 0.951 . S
C751 C752 1.366 . S
C751 C753 1.388 . S
C752 C751 1.366 . S
C752 C756 1.385 . S
C753 H728 0.951 . S
C753 C751 1.388 . S
C753 C754 1.366 . S
C754 C753 1.366 . S
C754 C755 1.414 . S
C754 C757 1.499 . S
C755 H729 0.950 . S
C755 C754 1.414 . S
C755 C756 1.374 . S
C756 H730 0.950 . S
C756 C752 1.385 . S
C756 C755 1.374 . S
C757 C754 1.499 . S
C757 C758 1.373 . S
C757 C759 1.389 . S
C758 H731 0.950 . S
C758 C744 1.377 . S
C758 C757 1.373 . S
C759 C743 1.377 . S
C759 C757 1.389 . S
C759 C760 1.524 . S
C760 C759 1.524 . S
C760 C761 1.397 . S
C760 C765 1.363 . S
C761 H732 0.950 . S
C761 C760 1.397 . S
C761 C762 1.334 . S
C762 H733 0.950 . S
C762 C761 1.334 . S
C762 C763 1.287 . S
C763 C762 1.287 . S
C763 C764 1.524 . S
C763 H766 0.999 . S
C764 H734 0.950 . S
C764 C763 1.524 . S
C764 C765 1.415 . S
C765 H735 0.950 . S
C765 C760 1.363 . S
C765 C764 1.415 . S
H766 C763 0.999 . S
H767 C748 0.913 . S
H768 C786 0.951 . S
H769 C788 0.951 . S
H770 C790 0.950 1_554 S
H771 C791 0.950 . S
H772 C793 0.950 . S
H773 C796 0.950 . S
H774 C797 0.950 . S
H775 C799 0.950 1_545 S
H776 C800 0.934 1_545 S
H777 C801 0.951 . S
H778 C803 0.951 . S
H779 C805 0.950 1_556 S
H780 C806 0.950 . S
H781 C808 0.950 . S
H782 C811 0.950 . S
H783 C812 0.950 . S
H784 C814 0.950 1_565 S
H785 C815 0.934 1_565 S
C786 H768 0.951 . S
C786 C787 1.366 . S
C786 C788 1.388 . S
C787 C786 1.366 . S
C787 C791 1.385 . S
C788 H769 0.951 . S
C788 C786 1.388 . S
C788 C789 1.366 . S
C789 C788 1.366 . S
C789 C790 1.414 . S
C789 C792 1.499 . S
C790 H770 0.950 1_556 S
C790 C789 1.414 . S
C790 C791 1.374 . S
C791 H771 0.950 . S
C791 C787 1.385 . S
C791 C790 1.374 . S
C792 C789 1.499 . S
C792 C793 1.373 1_556 S
C792 C794 1.389 . S
C793 H772 0.950 . S
C793 C792 1.373 1_554 S
C793 C809 1.377 1_565 S
C794 C792 1.389 . S
C794 C795 1.524 . S
C794 C808 1.377 1_565 S
C795 C794 1.524 . S
C795 C796 1.397 . S
C795 C800 1.368 . S
C796 H773 0.950 . S
C796 C795 1.397 . S
C796 C797 1.334 . S
C797 H774 0.950 . S
C797 C796 1.334 . S
C797 C798 1.287 . S
C798 C797 1.287 . S
C798 C799 1.524 . S
C798 H817 0.913 . S
C799 H775 0.950 1_565 S
C799 C798 1.524 . S
C799 C800 1.426 . S
C800 H776 0.934 1_565 S
C800 C795 1.368 . S
C800 C799 1.426 . S
C801 H777 0.951 . S
C801 C802 1.366 . S
C801 C803 1.388 . S
C802 C801 1.366 . S
C802 C806 1.385 . S
C803 H778 0.951 . S
C803 C801 1.388 . S
C803 C804 1.366 . S
C804 C803 1.366 . S
C804 C805 1.414 . S
C804 C807 1.499 . S
C805 H779 0.950 1_554 S
C805 C804 1.414 . S
C805 C806 1.374 . S
C806 H780 0.950 . S
C806 C802 1.385 . S
C806 C805 1.374 . S
C807 C804 1.499 . S
C807 C808 1.373 1_554 S
C807 C809 1.389 . S
C808 H781 0.950 . S
C808 C794 1.377 1_545 S
C808 C807 1.373 1_556 S
C809 C793 1.377 1_545 S
C809 C807 1.389 . S
C809 C810 1.524 . S
C810 C809 1.524 . S
C810 C811 1.397 . S
C810 C815 1.368 . S
C811 H782 0.950 . S
C811 C810 1.397 . S
C811 C812 1.334 . S
C812 H783 0.950 . S
C812 C811 1.334 . S
C812 C813 1.287 . S
C813 C812 1.287 . S
C813 C814 1.524 . S
C813 H816 0.999 . S
C814 H784 0.950 1_545 S
C814 C813 1.524 . S
C814 C815 1.426 . S
C815 H785 0.934 1_545 S
C815 C810 1.368 . S
C815 C814 1.426 . S
H816 C813 0.999 . S
H817 C798 0.913 . S
H818 C836 0.951 . S
H819 C838 0.951 . S
H820 C840 0.950 . S
H821 C841 0.950 . S
H822 C843 0.950 . S
H823 C846 0.950 . S
H824 C847 0.950 . S
H825 C849 0.950 . S
H826 C850 0.950 . S
H827 C851 0.951 . S
H828 C853 0.951 . S
H829 C855 0.950 . S
H830 C856 0.950 . S
H831 C858 0.950 . S
H832 C861 0.950 . S
H833 C862 0.950 . S
H834 C864 0.950 . S
H835 C865 0.950 . S
C836 H818 0.951 . S
C836 C837 1.366 . S
C836 C838 1.388 . S
C837 C836 1.366 . S
C837 C841 1.385 . S
C838 H819 0.951 . S
C838 C836 1.388 . S
C838 C839 1.366 . S
C839 C838 1.366 . S
C839 C840 1.414 . S
C839 C842 1.499 . S
C840 H820 0.950 . S
C840 C839 1.414 . S
C840 C841 1.374 . S
C841 H821 0.950 . S
C841 C837 1.385 . S
C841 C840 1.374 . S
C842 C839 1.499 . S
C842 C843 1.373 . S
C842 C844 1.389 . S
C843 H822 0.950 . S
C843 C842 1.373 . S
C843 C859 1.377 . S
C844 C842 1.389 . S
C844 C845 1.524 . S
C844 C858 1.377 . S
C845 C844 1.524 . S
C845 C846 1.397 . S
C845 C850 1.363 . S
C846 H823 0.950 . S
C846 C845 1.397 . S
C846 C847 1.334 . S
C847 H824 0.950 . S
C847 C846 1.334 . S
C847 C848 1.287 . S
C848 C847 1.287 . S
C848 C849 1.524 . S
C848 H867 0.913 . S
C849 H825 0.950 . S
C849 C848 1.524 . S
C849 C850 1.415 . S
C850 H826 0.950 . S
C850 C845 1.363 . S
C850 C849 1.415 . S
C851 H827 0.951 . S
C851 C852 1.366 . S
C851 C853 1.388 . S
C852 C851 1.366 . S
C852 C856 1.385 . S
C853 H828 0.951 . S
C853 C851 1.388 . S
C853 C854 1.366 . S
C854 C853 1.366 . S
C854 C855 1.414 . S
C854 C857 1.499 . S
C855 H829 0.950 . S
C855 C854 1.414 . S
C855 C856 1.374 . S
C856 H830 0.950 . S
C856 C852 1.385 . S
C856 C855 1.374 . S
C857 C854 1.499 . S
C857 C858 1.373 . S
C857 C859 1.389 . S
C858 H831 0.950 . S
C858 C844 1.377 . S
C858 C857 1.373 . S
C859 C843 1.377 . S
C859 C857 1.389 . S
C859 C860 1.524 . S
C860 C859 1.524 . S
C860 C861 1.397 . S
C860 C865 1.363 . S
C861 H832 0.950 . S
C861 C860 1.397 . S
C861 C862 1.334 . S
C862 H833 0.950 . S
C862 C861 1.334 . S
C862 C863 1.287 . S
C863 C862 1.287 . S
C863 C864 1.524 . S
C863 H866 0.999 . S
C864 H834 0.950 . S
C864 C863 1.524 . S
C864 C865 1.415 . S
C865 H835 0.950 . S
C865 C860 1.363 . S
C865 C864 1.415 . S
H866 C863 0.999 . S
H867 C848 0.913 . S
H868 C886 0.951 . S
H869 C888 0.951 . S
H870 C890 0.950 . S
H871 C891 0.950 . S
H872 C893 0.950 . S
H873 C896 0.950 . S
H874 C897 0.950 . S
H875 C899 0.950 1_455 S
H876 C900 0.952 1_455 S
H877 C901 0.951 . S
H878 C903 0.951 . S
H879 C905 0.950 . S
H880 C906 0.950 . S
H881 C908 0.950 . S
H882 C911 0.950 . S
H883 C912 0.950 . S
H884 C914 0.950 1_655 S
H885 C915 0.952 1_655 S
C886 H868 0.951 . S
C886 C887 1.366 . S
C886 C888 1.388 . S
C887 C886 1.366 . S
C887 C891 1.385 . S
C888 H869 0.951 . S
C888 C886 1.388 . S
C888 C889 1.366 . S
C889 C888 1.366 . S
C889 C890 1.414 . S
C889 C892 1.499 . S
C890 H870 0.950 . S
C890 C889 1.414 . S
C890 C891 1.374 . S
C891 H871 0.950 . S
C891 C887 1.385 . S
C891 C890 1.374 . S
C892 C889 1.499 . S
C892 C893 1.373 . S
C892 C894 1.389 . S
C893 H872 0.950 . S
C893 C892 1.373 . S
C893 C909 1.377 1_655 S
C894 C892 1.389 . S
C894 C895 1.524 . S
C894 C908 1.377 1_655 S
C895 C894 1.524 . S
C895 C896 1.397 . S
C895 C900 1.361 . S
C896 H873 0.950 . S
C896 C895 1.397 . S
C896 C897 1.334 . S
C897 H874 0.950 . S
C897 C896 1.334 . S
C897 C898 1.287 . S
C898 C897 1.287 . S
C898 C899 1.524 . S
C898 H917 0.913 . S
C899 H875 0.950 1_655 S
C899 C898 1.524 . S
C899 C900 1.415 . S
C900 H876 0.952 1_655 S
C900 C895 1.361 . S
C900 C899 1.415 . S
C901 H877 0.951 . S
C901 C902 1.366 . S
C901 C903 1.388 . S
C902 C901 1.366 . S
C902 C906 1.385 . S
C903 H878 0.951 . S
C903 C901 1.388 . S
C903 C904 1.366 . S
C904 C903 1.366 . S
C904 C905 1.414 . S
C904 C907 1.499 . S
C905 H879 0.950 . S
C905 C904 1.414 . S
C905 C906 1.374 . S
C906 H880 0.950 . S
C906 C902 1.385 . S
C906 C905 1.374 . S
C907 C904 1.499 . S
C907 C908 1.373 . S
C907 C909 1.389 . S
C908 H881 0.950 . S
C908 C894 1.377 1_455 S
C908 C907 1.373 . S
C909 C893 1.377 1_455 S
C909 C907 1.389 . S
C909 C910 1.524 . S
C910 C909 1.524 . S
C910 C911 1.397 . S
C910 C915 1.361 . S
C911 H882 0.950 . S
C911 C910 1.397 . S
C911 C912 1.334 . S
C912 H883 0.950 . S
C912 C911 1.334 . S
C912 C913 1.287 . S
C913 C912 1.287 . S
C913 C914 1.524 . S
C913 H916 0.999 . S
C914 H884 0.950 1_455 S
C914 C913 1.524 . S
C914 C915 1.415 . S
C915 H885 0.952 1_455 S
C915 C910 1.361 . S
C915 C914 1.415 . S
H916 C913 0.999 . S
H917 C898 0.913 . S
H918 C936 0.951 . S
H919 C938 0.951 . S
H920 C940 0.950 . S
H921 C941 0.950 . S
H922 C943 0.950 . S
H923 C946 0.950 . S
H924 C947 0.950 . S
H925 C949 0.950 . S
H926 C950 0.950 . S
H927 C951 0.951 . S
H928 C953 0.951 . S
H929 C955 0.950 . S
H930 C956 0.950 . S
H931 C958 0.950 . S
H932 C961 0.950 . S
H933 C962 0.950 . S
H934 C964 0.950 . S
H935 C965 0.950 . S
C936 H918 0.951 . S
C936 C937 1.366 . S
C936 C938 1.388 . S
C937 C936 1.366 . S
C937 C941 1.385 . S
C938 H919 0.951 . S
C938 C936 1.388 . S
C938 C939 1.366 . S
C939 C938 1.366 . S
C939 C940 1.414 . S
C939 C942 1.499 . S
C940 H920 0.950 . S
C940 C939 1.414 . S
C940 C941 1.374 . S
C941 H921 0.950 . S
C941 C937 1.385 . S
C941 C940 1.374 . S
C942 C939 1.499 . S
C942 C943 1.373 1_554 S
C942 C944 1.389 . S
C943 H922 0.950 . S
C943 C942 1.373 1_556 S
C943 C959 1.377 1_565 S
C944 C942 1.389 . S
C944 C945 1.524 . S
C944 C958 1.377 1_565 S
C945 C944 1.524 . S
C945 C946 1.397 . S
C945 C950 1.363 1_565 S
C946 H923 0.950 . S
C946 C945 1.397 . S
C946 C947 1.334 . S
C947 H924 0.950 . S
C947 C946 1.334 . S
C947 C948 1.287 . S
C948 C947 1.287 . S
C948 C949 1.524 1_565 S
C948 H967 0.913 . S
C949 H925 0.950 . S
C949 C948 1.524 1_545 S
C949 C950 1.415 . S
C950 H926 0.950 . S
C950 C945 1.363 1_545 S
C950 C949 1.415 . S
C951 H927 0.951 . S
C951 C952 1.366 . S
C951 C953 1.388 . S
C952 C951 1.366 . S
C952 C956 1.385 . S
C953 H928 0.951 . S
C953 C951 1.388 . S
C953 C954 1.366 . S
C954 C953 1.366 . S
C954 C955 1.414 . S
C954 C957 1.499 . S
C955 H929 0.950 . S
C955 C954 1.414 . S
C955 C956 1.374 . S
C956 H930 0.950 . S
C956 C952 1.385 . S
C956 C955 1.374 . S
C957 C954 1.499 . S
C957 C958 1.373 1_556 S
C957 C959 1.389 . S
C958 H931 0.950 . S
C958 C944 1.377 1_545 S
C958 C957 1.373 1_554 S
C959 C943 1.377 1_545 S
C959 C957 1.389 . S
C959 C960 1.524 . S
C960 C959 1.524 . S
C960 C961 1.397 . S
C960 C965 1.363 1_545 S
C961 H932 0.950 . S
C961 C960 1.397 . S
C961 C962 1.334 . S
C962 H933 0.950 . S
C962 C961 1.334 . S
C962 C963 1.287 . S
C963 C962 1.287 . S
C963 C964 1.524 1_545 S
C963 H966 0.999 . S
C964 H934 0.950 . S
C964 C963 1.524 1_565 S
C964 C965 1.415 . S
C965 H935 0.950 . S
C965 C960 1.363 1_565 S
C965 C964 1.415 . S
H966 C963 0.999 . S
H967 C948 0.913 . S
H968 C986 0.951 . S
H969 C988 0.951 . S
H970 C990 0.950 . S
H971 C991 0.950 . S
H972 C993 0.950 . S
H973 C996 0.950 . S
H974 C997 0.950 . S
H975 C999 0.950 . S
H976 C1000 0.950 . S
H977 C1001 0.951 . S
H978 C1003 0.951 . S
H979 C1005 0.950 . S
H980 C1006 0.950 . S
H981 C1008 0.950 . S
H982 C1011 0.950 . S
H983 C1012 0.950 . S
H984 C1014 0.950 . S
H985 C1015 0.950 . S
C986 H968 0.951 . S
C986 C987 1.366 . S
C986 C988 1.388 . S
C987 C986 1.366 . S
C987 C991 1.385 . S
C988 H969 0.951 . S
C988 C986 1.388 . S
C988 C989 1.366 . S
C989 C988 1.366 . S
C989 C990 1.414 . S
C989 C992 1.499 . S
C990 H970 0.950 . S
C990 C989 1.414 . S
C990 C991 1.374 . S
C991 H971 0.950 . S
C991 C987 1.385 . S
C991 C990 1.374 . S
C992 C989 1.499 . S
C992 C993 1.373 . S
C992 C994 1.389 . S
C993 H972 0.950 . S
C993 C992 1.373 . S
C993 C1009 1.377 . S
C994 C992 1.389 . S
C994 C995 1.524 . S
C994 C1008 1.377 . S
C995 C994 1.524 . S
C995 C996 1.397 . S
C995 C1000 1.363 . S
C996 H973 0.950 . S
C996 C995 1.397 . S
C996 C997 1.334 . S
C997 H974 0.950 . S
C997 C996 1.334 . S
C997 C998 1.287 . S
C998 C997 1.287 . S
C998 C999 1.524 . S
C998 H1017 0.913 . S
C999 H975 0.950 . S
C999 C998 1.524 . S
C999 C1000 1.415 . S
C1000 H976 0.950 . S
C1000 C995 1.363 . S
C1000 C999 1.415 . S
C1001 H977 0.951 . S
C1001 C1002 1.366 . S
C1001 C1003 1.388 . S
C1002 C1001 1.366 . S
C1002 C1006 1.385 . S
C1003 H978 0.951 . S
C1003 C1001 1.388 . S
C1003 C1004 1.366 . S
C1004 C1003 1.366 . S
C1004 C1005 1.414 . S
C1004 C1007 1.499 . S
C1005 H979 0.950 . S
C1005 C1004 1.414 . S
C1005 C1006 1.374 . S
C1006 H980 0.950 . S
C1006 C1002 1.385 . S
C1006 C1005 1.374 . S
C1007 C1004 1.499 . S
C1007 C1008 1.373 . S
C1007 C1009 1.389 . S
C1008 H981 0.950 . S
C1008 C994 1.377 . S
C1008 C1007 1.373 . S
C1009 C993 1.377 . S
C1009 C1007 1.389 . S
C1009 C1010 1.524 . S
C1010 C1009 1.524 . S
C1010 C1011 1.397 . S
C1010 C1015 1.363 . S
C1011 H982 0.950 . S
C1011 C1010 1.397 . S
C1011 C1012 1.334 . S
C1012 H983 0.950 . S
C1012 C1011 1.334 . S
C1012 C1013 1.287 . S
C1013 C1012 1.287 . S
C1013 C1014 1.524 . S
C1013 H1016 0.999 . S
C1014 H984 0.950 . S
C1014 C1013 1.524 . S
C1014 C1015 1.415 . S
C1015 H985 0.950 . S
C1015 C1010 1.363 . S
C1015 C1014 1.415 . S
H1016 C1013 0.999 . S
H1017 C998 0.913 . S
H1018 C1036 0.951 . S
H1019 C1038 0.951 . S
H1020 C1040 0.950 . S
H1021 C1041 0.950 . S
H1022 C1043 0.950 . S
H1023 C1046 0.950 . S
H1024 C1047 0.950 . S
H1025 C1049 0.950 . S
H1026 C1050 0.950 . S
H1027 C1051 0.951 . S
H1028 C1053 0.951 . S
H1029 C1055 0.950 . S
H1030 C1056 0.950 . S
H1031 C1058 0.950 . S
H1032 C1061 0.950 . S
H1033 C1062 0.950 . S
H1034 C1064 0.950 . S
H1035 C1065 0.950 . S
C1036 H1018 0.951 . S
C1036 C1037 1.366 . S
C1036 C1038 1.388 . S
C1037 C1036 1.366 . S
C1037 C1041 1.385 . S
C1038 H1019 0.951 . S
C1038 C1036 1.388 . S
C1038 C1039 1.366 . S
C1039 C1038 1.366 . S
C1039 C1040 1.414 . S
C1039 C1042 1.499 . S
C1040 H1020 0.950 . S
C1040 C1039 1.414 . S
C1040 C1041 1.374 . S
C1041 H1021 0.950 . S
C1041 C1037 1.385 . S
C1041 C1040 1.374 . S
C1042 C1039 1.499 . S
C1042 C1043 1.373 . S
C1042 C1044 1.389 . S
C1043 H1022 0.950 . S
C1043 C1042 1.373 . S
C1043 C1059 1.377 1_455 S
C1044 C1042 1.389 . S
C1044 C1045 1.524 . S
C1044 C1058 1.377 1_455 S
C1045 C1044 1.524 . S
C1045 C1046 1.397 . S
C1045 C1050 1.363 1_455 S
C1046 H1023 0.950 . S
C1046 C1045 1.397 . S
C1046 C1047 1.334 . S
C1047 H1024 0.950 . S
C1047 C1046 1.334 . S
C1047 C1048 1.287 . S
C1048 C1047 1.287 . S
C1048 C1049 1.524 1_455 S
C1048 H1067 0.913 . S
C1049 H1025 0.950 . S
C1049 C1048 1.524 1_655 S
C1049 C1050 1.415 . S
C1050 H1026 0.950 . S
C1050 C1045 1.363 1_655 S
C1050 C1049 1.415 . S
C1051 H1027 0.951 . S
C1051 C1052 1.366 . S
C1051 C1053 1.388 . S
C1052 C1051 1.366 . S
C1052 C1056 1.385 . S
C1053 H1028 0.951 . S
C1053 C1051 1.388 . S
C1053 C1054 1.366 . S
C1054 C1053 1.366 . S
C1054 C1055 1.414 . S
C1054 C1057 1.499 . S
C1055 H1029 0.950 . S
C1055 C1054 1.414 . S
C1055 C1056 1.374 . S
C1056 H1030 0.950 . S
C1056 C1052 1.385 . S
C1056 C1055 1.374 . S
C1057 C1054 1.499 . S
C1057 C1058 1.373 . S
C1057 C1059 1.389 . S
C1058 H1031 0.950 . S
C1058 C1044 1.377 1_655 S
C1058 C1057 1.373 . S
C1059 C1043 1.377 1_655 S
C1059 C1057 1.389 . S
C1059 C1060 1.524 . S
C1060 C1059 1.524 . S
C1060 C1061 1.397 . S
C1060 C1065 1.363 1_655 S
C1061 H1032 0.950 . S
C1061 C1060 1.397 . S
C1061 C1062 1.334 . S
C1062 H1033 0.950 . S
C1062 C1061 1.334 . S
C1062 C1063 1.287 . S
C1063 C1062 1.287 . S
C1063 C1064 1.524 1_655 S
C1063 H1066 0.999 . S
C1064 H1034 0.950 . S
C1064 C1063 1.524 1_455 S
C1064 C1065 1.415 . S
C1065 H1035 0.950 . S
C1065 C1060 1.363 1_455 S
C1065 C1064 1.415 . S
H1066 C1063 0.999 . S
H1067 C1048 0.913 . S
H1068 C1086 0.951 . S
H1069 C1088 0.973 . S
H1070 C1090 0.950 . S
H1071 C1091 0.950 . S
H1072 C1093 0.950 . S
H1073 C1096 0.950 . S
H1074 C1097 0.950 . S
H1075 C1099 0.950 . S
H1076 C1100 0.950 . S
H1077 C1101 0.951 . S
H1078 C1103 0.973 . S
H1079 C1105 0.950 . S
H1080 C1106 0.950 . S
H1081 C1108 0.950 . S
H1082 C1111 0.950 . S
H1083 C1112 0.950 . S
H1084 C1114 0.950 . S
H1085 C1115 0.950 . S
C1086 H1068 0.951 . S
C1086 C1087 1.366 . S
C1086 C1088 1.388 1_655 S
C1087 C1086 1.366 . S
C1087 C1091 1.385 1_655 S
C1088 H1069 0.973 . S
C1088 C1086 1.388 1_455 S
C1088 C1089 1.366 . S
C1089 C1088 1.366 . S
C1089 C1090 1.414 . S
C1089 C1092 1.499 . S
C1090 H1070 0.950 . S
C1090 C1089 1.414 . S
C1090 C1091 1.374 . S
C1091 H1071 0.950 . S
C1091 C1087 1.385 1_455 S
C1091 C1090 1.374 . S
C1092 C1089 1.499 . S
C1092 C1093 1.373 . S
C1092 C1094 1.389 1_556 S
C1093 H1072 0.950 . S
C1093 C1092 1.373 . S
C1093 C1109 1.377 . S
C1094 C1092 1.389 1_554 S
C1094 C1095 1.524 . S
C1094 C1108 1.377 . S
C1095 C1094 1.524 . S
C1095 C1096 1.397 . S
C1095 C1100 1.363 . S
C1096 H1073 0.950 . S
C1096 C1095 1.397 . S
C1096 C1097 1.334 . S
C1097 H1074 0.950 . S
C1097 C1096 1.334 . S
C1097 C1098 1.287 . S
C1098 C1097 1.287 . S
C1098 C1099 1.524 . S
C1098 H1117 0.913 . S
C1099 H1075 0.950 . S
C1099 C1098 1.524 . S
C1099 C1100 1.415 . S
C1100 H1076 0.950 . S
C1100 C1095 1.363 . S
C1100 C1099 1.415 . S
C1101 H1077 0.951 . S
C1101 C1102 1.366 . S
C1101 C1103 1.388 . S
C1102 C1101 1.366 . S
C1102 C1106 1.385 . S
C1103 H1078 0.973 . S
C1103 C1101 1.388 . S
C1103 C1104 1.366 . S
C1104 C1103 1.366 . S
C1104 C1105 1.414 . S
C1104 C1107 1.499 . S
C1105 H1079 0.950 . S
C1105 C1104 1.414 . S
C1105 C1106 1.374 . S
C1106 H1080 0.950 . S
C1106 C1102 1.385 . S
C1106 C1105 1.374 . S
C1107 C1104 1.499 . S
C1107 C1108 1.373 . S
C1107 C1109 1.389 1_554 S
C1108 H1081 0.950 . S
C1108 C1094 1.377 . S
C1108 C1107 1.373 . S
C1109 C1093 1.377 . S
C1109 C1107 1.389 1_556 S
C1109 C1110 1.524 . S
C1110 C1109 1.524 . S
C1110 C1111 1.397 . S
C1110 C1115 1.363 . S
C1111 H1082 0.950 . S
C1111 C1110 1.397 . S
C1111 C1112 1.334 . S
C1112 H1083 0.950 . S
C1112 C1111 1.334 . S
C1112 C1113 1.287 . S
C1113 C1112 1.287 . S
C1113 C1114 1.524 . S
C1113 H1116 0.999 . S
C1114 H1084 0.950 . S
C1114 C1113 1.524 . S
C1114 C1115 1.415 . S
C1115 H1085 0.950 . S
C1115 C1110 1.363 . S
C1115 C1114 1.415 . S
H1116 C1113 0.999 . S
H1117 C1098 0.913 . S
H1118 C1136 0.951 . S
H1119 C1138 0.951 . S
H1120 C1140 0.950 . S
H1121 C1141 0.950 . S
H1122 C1143 0.950 . S
H1123 C1146 0.950 . S
H1124 C1147 0.950 . S
H1125 C1149 0.950 . S
H1126 C1150 0.950 . S
H1127 C1151 0.951 . S
H1128 C1153 0.951 . S
H1129 C1155 0.950 . S
H1130 C1156 0.950 . S
H1131 C1158 0.950 . S
H1132 C1161 0.950 . S
H1133 C1162 0.950 . S
H1134 C1164 0.950 . S
H1135 C1165 0.950 . S
C1136 H1118 0.951 . S
C1136 C1137 1.366 . S
C1136 C1138 1.388 1_565 S
C1137 C1136 1.366 . S
C1137 C1141 1.385 1_565 S
C1138 H1119 0.951 . S
C1138 C1136 1.388 1_545 S
C1138 C1139 1.366 . S
C1139 C1138 1.366 . S
C1139 C1140 1.414 . S
C1139 C1142 1.499 . S
C1140 H1120 0.950 . S
C1140 C1139 1.414 . S
C1140 C1141 1.374 . S
C1141 H1121 0.950 . S
C1141 C1137 1.385 1_545 S
C1141 C1140 1.374 . S
C1142 C1139 1.499 . S
C1142 C1143 1.373 . S
C1142 C1144 1.389 . S
C1143 H1122 0.950 . S
C1143 C1142 1.373 . S
C1143 C1159 1.377 . S
C1144 C1142 1.389 . S
C1144 C1145 1.524 . S
C1144 C1158 1.377 . S
C1145 C1144 1.524 . S
C1145 C1146 1.397 . S
C1145 C1150 1.363 . S
C1146 H1123 0.950 . S
C1146 C1145 1.397 . S
C1146 C1147 1.334 1_545 S
C1147 H1124 0.950 . S
C1147 C1146 1.334 1_565 S
C1147 C1148 1.287 . S
C1148 C1147 1.287 . S
C1148 C1149 1.524 . S
C1148 H1167 0.913 . S
C1149 H1125 0.950 . S
C1149 C1148 1.524 . S
C1149 C1150 1.415 1_565 S
C1150 H1126 0.950 . S
C1150 C1145 1.363 . S
C1150 C1149 1.415 1_545 S
C1151 H1127 0.951 . S
C1151 C1152 1.366 1_655 S
C1151 C1153 1.388 . S
C1152 C1151 1.366 1_455 S
C1152 C1156 1.385 . S
C1153 H1128 0.951 . S
C1153 C1151 1.388 . S
C1153 C1154 1.366 . S
C1154 C1153 1.366 . S
C1154 C1155 1.414 . S
C1154 C1157 1.499 . S
C1155 H1129 0.950 . S
C1155 C1154 1.414 . S
C1155 C1156 1.374 1_655 S
C1156 H1130 0.950 . S
C1156 C1152 1.385 . S
C1156 C1155 1.374 1_455 S
C1157 C1154 1.499 . S
C1157 C1158 1.373 . S
C1157 C1159 1.389 . S
C1158 H1131 0.950 . S
C1158 C1144 1.377 . S
C1158 C1157 1.373 . S
C1159 C1143 1.377 . S
C1159 C1157 1.389 . S
C1159 C1160 1.524 . S
C1160 C1159 1.524 . S
C1160 C1161 1.397 . S
C1160 C1165 1.363 . S
C1161 H1132 0.950 . S
C1161 C1160 1.397 . S
C1161 C1162 1.334 . S
C1162 H1133 0.950 . S
C1162 C1161 1.334 . S
C1162 C1163 1.287 . S
C1163 C1162 1.287 . S
C1163 C1164 1.524 . S
C1163 H1166 0.999 . S
C1164 H1134 0.950 . S
C1164 C1163 1.524 . S
C1164 C1165 1.415 . S
C1165 H1135 0.950 . S
C1165 C1160 1.363 . S
C1165 C1164 1.415 . S
H1166 C1163 0.999 . S
H1167 C1148 0.913 . S
H1168 C1186 0.951 . S
H1169 C1188 0.951 . S
H1170 C1190 0.950 . S
H1171 C1191 0.950 . S
H1172 C1193 0.950 . S
H1173 C1196 0.950 . S
H1174 C1197 0.950 . S
H1175 C1199 0.950 . S
H1176 C1200 0.950 . S
H1177 C1201 0.951 . S
H1178 C1203 0.951 . S
H1179 C1205 0.950 . S
H1180 C1206 0.950 . S
H1181 C1208 0.950 . S
H1182 C1211 0.950 . S
H1183 C1212 0.950 . S
H1184 C1214 0.950 . S
H1185 C1215 0.950 . S
C1186 H1168 0.951 . S
C1186 C1187 1.366 . S
C1186 C1188 1.388 . S
C1187 C1186 1.366 . S
C1187 C1191 1.385 . S
C1188 H1169 0.951 . S
C1188 C1186 1.388 . S
C1188 C1189 1.366 . S
C1189 C1188 1.366 . S
C1189 C1190 1.414 . S
C1189 C1192 1.499 . S
C1190 H1170 0.950 . S
C1190 C1189 1.414 . S
C1190 C1191 1.374 . S
C1191 H1171 0.950 . S
C1191 C1187 1.385 . S
C1191 C1190 1.374 . S
C1192 C1189 1.499 . S
C1192 C1193 1.373 . S
C1192 C1194 1.389 . S
C1193 H1172 0.950 . S
C1193 C1192 1.373 . S
C1193 C1209 1.377 . S
C1194 C1192 1.389 . S
C1194 C1195 1.524 . S
C1194 C1208 1.377 . S
C1195 C1194 1.524 . S
C1195 C1196 1.397 . S
C1195 C1200 1.363 . S
C1196 H1173 0.950 . S
C1196 C1195 1.397 . S
C1196 C1197 1.334 . S
C1197 H1174 0.950 . S
C1197 C1196 1.334 . S
C1197 C1198 1.287 . S
C1198 C1197 1.287 . S
C1198 C1199 1.524 . S
C1198 H1217 0.913 . S
C1199 H1175 0.950 . S
C1199 C1198 1.524 . S
C1199 C1200 1.415 . S
C1200 H1176 0.950 . S
C1200 C1195 1.363 . S
C1200 C1199 1.415 . S
C1201 H1177 0.951 . S
C1201 C1202 1.366 1_565 S
C1201 C1203 1.388 . S
C1202 C1201 1.366 1_545 S
C1202 C1206 1.385 . S
C1203 H1178 0.951 . S
C1203 C1201 1.388 . S
C1203 C1204 1.366 . S
C1204 C1203 1.366 . S
C1204 C1205 1.414 . S
C1204 C1207 1.499 . S
C1205 H1179 0.950 . S
C1205 C1204 1.414 . S
C1205 C1206 1.374 1_565 S
C1206 H1180 0.950 . S
C1206 C1202 1.385 . S
C1206 C1205 1.374 1_545 S
C1207 C1204 1.499 . S
C1207 C1208 1.373 . S
C1207 C1209 1.389 . S
C1208 H1181 0.950 . S
C1208 C1194 1.377 . S
C1208 C1207 1.373 . S
C1209 C1193 1.377 . S
C1209 C1207 1.389 . S
C1209 C1210 1.524 . S
C1210 C1209 1.524 . S
C1210 C1211 1.397 . S
C1210 C1215 1.363 . S
C1211 H1182 0.950 . S
C1211 C1210 1.397 . S
C1211 C1212 1.334 . S
C1212 H1183 0.950 . S
C1212 C1211 1.334 . S
C1212 C1213 1.287 . S
C1213 C1212 1.287 . S
C1213 C1214 1.524 . S
C1213 H1216 0.999 . S
C1214 H1184 0.950 . S
C1214 C1213 1.524 . S
C1214 C1215 1.415 . S
C1215 H1185 0.950 . S
C1215 C1210 1.363 . S
C1215 C1214 1.415 . S
H1216 C1213 0.999 . S
H1217 C1198 0.913 . S
H1218 C1236 0.951 . S
H1219 C1238 0.951 . S
H1220 C1240 0.950 1_556 S
H1221 C1241 0.950 . S
H1222 C1243 0.950 . S
H1223 C1246 0.950 . S
H1224 C1247 0.950 . S
H1225 C1249 0.950 . S
H1226 C1250 0.950 . S
H1227 C1251 0.951 . S
H1228 C1253 0.951 . S
H1229 C1255 0.950 1_554 S
H1230 C1256 0.950 . S
H1231 C1258 0.950 . S
H1232 C1261 0.950 . S
H1233 C1262 0.950 . S
H1234 C1264 0.950 . S
H1235 C1265 0.950 . S
C1236 H1218 0.951 . S
C1236 C1237 1.366 . S
C1236 C1238 1.388 . S
C1237 C1236 1.366 . S
C1237 C1241 1.385 . S
C1238 H1219 0.951 . S
C1238 C1236 1.388 . S
C1238 C1239 1.366 . S
C1239 C1238 1.366 . S
C1239 C1240 1.414 . S
C1239 C1242 1.499 . S
C1240 H1220 0.950 1_554 S
C1240 C1239 1.414 . S
C1240 C1241 1.374 . S
C1241 H1221 0.950 . S
C1241 C1237 1.385 . S
C1241 C1240 1.374 . S
C1242 C1239 1.499 . S
C1242 C1243 1.373 1_554 S
C1242 C1244 1.389 . S
C1243 H1222 0.950 . S
C1243 C1242 1.373 1_556 S
C1243 C1259 1.377 . S
C1244 C1242 1.389 . S
C1244 C1245 1.524 . S
C1244 C1258 1.377 . S
C1245 C1244 1.524 . S
C1245 C1246 1.397 . S
C1245 C1250 1.363 . S
C1246 H1223 0.950 . S
C1246 C1245 1.397 . S
C1246 C1247 1.334 . S
C1247 H1224 0.950 . S
C1247 C1246 1.334 . S
C1247 C1248 1.287 . S
C1248 C1247 1.287 . S
C1248 C1249 1.524 . S
C1248 H1267 0.913 . S
C1249 H1225 0.950 . S
C1249 C1248 1.524 . S
C1249 C1250 1.415 . S
C1250 H1226 0.950 . S
C1250 C1245 1.363 . S
C1250 C1249 1.415 . S
C1251 H1227 0.951 . S
C1251 C1252 1.366 1_655 S
C1251 C1253 1.388 . S
C1252 C1251 1.366 1_455 S
C1252 C1256 1.385 . S
C1253 H1228 0.951 . S
C1253 C1251 1.388 . S
C1253 C1254 1.366 . S
C1254 C1253 1.366 . S
C1254 C1255 1.414 . S
C1254 C1257 1.499 . S
C1255 H1229 0.950 1_556 S
C1255 C1254 1.414 . S
C1255 C1256 1.374 1_655 S
C1256 H1230 0.950 . S
C1256 C1252 1.385 . S
C1256 C1255 1.374 1_455 S
C1257 C1254 1.499 . S
C1257 C1258 1.373 1_556 S
C1257 C1259 1.389 . S
C1258 H1231 0.950 . S
C1258 C1244 1.377 . S
C1258 C1257 1.373 1_554 S
C1259 C1243 1.377 . S
C1259 C1257 1.389 . S
C1259 C1260 1.524 . S
C1260 C1259 1.524 . S
C1260 C1261 1.397 . S
C1260 C1265 1.363 . S
C1261 H1232 0.950 . S
C1261 C1260 1.397 . S
C1261 C1262 1.334 . S
C1262 H1233 0.950 . S
C1262 C1261 1.334 . S
C1262 C1263 1.287 . S
C1263 C1262 1.287 . S
C1263 C1264 1.524 . S
C1263 H1266 0.999 . S
C1264 H1234 0.950 . S
C1264 C1263 1.524 . S
C1264 C1265 1.415 . S
C1265 H1235 0.950 . S
C1265 C1260 1.363 . S
C1265 C1264 1.415 . S
H1266 C1263 0.999 . S
H1267 C1248 0.913 . S
H1268 C1286 0.951 . S
H1269 C1288 0.951 . S
H1270 C1290 0.950 . S
H1271 C1291 0.950 . S
H1272 C1293 0.950 . S
H1273 C1296 0.950 . S
H1274 C1297 0.950 . S
H1275 C1299 0.950 . S
H1276 C1300 0.950 . S
H1277 C1301 0.951 . S
H1278 C1303 0.951 . S
H1279 C1305 0.950 . S
H1280 C1306 0.950 . S
H1281 C1308 0.950 . S
H1282 C1311 0.950 . S
H1283 C1312 0.950 . S
H1284 C1314 0.950 . S
H1285 C1315 0.950 . S
C1286 H1268 0.951 . S
C1286 C1287 1.366 1_455 S
C1286 C1288 1.388 . S
C1287 C1286 1.366 1_655 S
C1287 C1291 1.385 . S
C1288 H1269 0.951 . S
C1288 C1286 1.388 . S
C1288 C1289 1.366 . S
C1289 C1288 1.366 . S
C1289 C1290 1.414 . S
C1289 C1292 1.499 . S
C1290 H1270 0.950 . S
C1290 C1289 1.414 . S
C1290 C1291 1.374 1_455 S
C1291 H1271 0.950 . S
C1291 C1287 1.385 . S
C1291 C1290 1.374 1_655 S
C1292 C1289 1.499 . S
C1292 C1293 1.373 . S
C1292 C1294 1.389 . S
C1293 H1272 0.950 . S
C1293 C1292 1.373 . S
C1293 C1309 1.377 . S
C1294 C1292 1.389 . S
C1294 C1295 1.524 . S
C1294 C1308 1.377 . S
C1295 C1294 1.524 . S
C1295 C1296 1.397 . S
C1295 C1300 1.363 . S
C1296 H1273 0.950 . S
C1296 C1295 1.397 . S
C1296 C1297 1.334 . S
C1297 H1274 0.950 . S
C1297 C1296 1.334 . S
C1297 C1298 1.287 . S
C1298 C1297 1.287 . S
C1298 C1299 1.524 . S
C1298 H1317 0.913 . S
C1299 H1275 0.950 . S
C1299 C1298 1.524 . S
C1299 C1300 1.415 . S
C1300 H1276 0.950 . S
C1300 C1295 1.363 . S
C1300 C1299 1.415 . S
C1301 H1277 0.951 . S
C1301 C1302 1.366 . S
C1301 C1303 1.388 1_545 S
C1302 C1301 1.366 . S
C1302 C1306 1.385 1_545 S
C1303 H1278 0.951 . S
C1303 C1301 1.388 1_565 S
C1303 C1304 1.366 . S
C1304 C1303 1.366 . S
C1304 C1305 1.414 . S
C1304 C1307 1.499 . S
C1305 H1279 0.950 . S
C1305 C1304 1.414 . S
C1305 C1306 1.374 . S
C1306 H1280 0.950 . S
C1306 C1302 1.385 1_565 S
C1306 C1305 1.374 . S
C1307 C1304 1.499 . S
C1307 C1308 1.373 . S
C1307 C1309 1.389 . S
C1308 H1281 0.950 . S
C1308 C1294 1.377 . S
C1308 C1307 1.373 . S
C1309 C1293 1.377 . S
C1309 C1307 1.389 . S
C1309 C1310 1.524 . S
C1310 C1309 1.524 . S
C1310 C1311 1.397 . S
C1310 C1315 1.363 . S
C1311 H1282 0.950 . S
C1311 C1310 1.397 . S
C1311 C1312 1.334 . S
C1312 H1283 0.950 . S
C1312 C1311 1.334 . S
C1312 C1313 1.287 . S
C1313 C1312 1.287 . S
C1313 C1314 1.524 . S
C1313 H1316 0.999 . S
C1314 H1284 0.950 . S
C1314 C1313 1.524 . S
C1314 C1315 1.415 . S
C1315 H1285 0.950 . S
C1315 C1310 1.363 . S
C1315 C1314 1.415 . S
H1316 C1313 0.999 . S
H1317 C1298 0.913 . S
H1318 C1336 0.951 . S
H1319 C1338 0.951 . S
H1320 C1340 0.950 . S
H1321 C1341 0.950 . S
H1322 C1343 0.950 . S
H1323 C1346 0.950 . S
H1324 C1347 0.950 . S
H1325 C1349 0.950 . S
H1326 C1350 0.950 . S
H1327 C1351 0.951 . S
H1328 C1353 0.951 . S
H1329 C1355 0.950 . S
H1330 C1356 0.950 . S
H1331 C1358 0.950 . S
H1332 C1361 0.950 . S
H1333 C1362 0.950 . S
H1334 C1364 0.950 . S
H1335 C1365 0.950 . S
C1336 H1318 0.951 . S
C1336 C1337 1.366 1_545 S
C1336 C1338 1.388 . S
C1337 C1336 1.366 1_565 S
C1337 C1341 1.385 . S
C1338 H1319 0.951 . S
C1338 C1336 1.388 . S
C1338 C1339 1.366 . S
C1339 C1338 1.366 . S
C1339 C1340 1.414 . S
C1339 C1342 1.499 . S
C1340 H1320 0.950 . S
C1340 C1339 1.414 . S
C1340 C1341 1.374 1_545 S
C1341 H1321 0.950 . S
C1341 C1337 1.385 . S
C1341 C1340 1.374 1_565 S
C1342 C1339 1.499 . S
C1342 C1343 1.373 . S
C1342 C1344 1.389 . S
C1343 H1322 0.950 . S
C1343 C1342 1.373 . S
C1343 C1359 1.377 . S
C1344 C1342 1.389 . S
C1344 C1345 1.524 . S
C1344 C1358 1.377 . S
C1345 C1344 1.524 . S
C1345 C1346 1.397 . S
C1345 C1350 1.363 . S
C1346 H1323 0.950 . S
C1346 C1345 1.397 . S
C1346 C1347 1.334 . S
C1347 H1324 0.950 . S
C1347 C1346 1.334 . S
C1347 C1348 1.287 . S
C1348 C1347 1.287 . S
C1348 C1349 1.524 . S
C1348 H1367 0.913 . S
C1349 H1325 0.950 . S
C1349 C1348 1.524 . S
C1349 C1350 1.415 . S
C1350 H1326 0.950 . S
C1350 C1345 1.363 . S
C1350 C1349 1.415 . S
C1351 H1327 0.951 . S
C1351 C1352 1.366 . S
C1351 C1353 1.388 . S
C1352 C1351 1.366 . S
C1352 C1356 1.385 . S
C1353 H1328 0.951 . S
C1353 C1351 1.388 . S
C1353 C1354 1.366 . S
C1354 C1353 1.366 . S
C1354 C1355 1.414 . S
C1354 C1357 1.499 . S
C1355 H1329 0.950 . S
C1355 C1354 1.414 . S
C1355 C1356 1.374 . S
C1356 H1330 0.950 . S
C1356 C1352 1.385 . S
C1356 C1355 1.374 . S
C1357 C1354 1.499 . S
C1357 C1358 1.373 . S
C1357 C1359 1.389 . S
C1358 H1331 0.950 . S
C1358 C1344 1.377 . S
C1358 C1357 1.373 . S
C1359 C1343 1.377 . S
C1359 C1357 1.389 . S
C1359 C1360 1.524 . S
C1360 C1359 1.524 . S
C1360 C1361 1.397 . S
C1360 C1365 1.363 . S
C1361 H1332 0.950 . S
C1361 C1360 1.397 . S
C1361 C1362 1.334 . S
C1362 H1333 0.950 . S
C1362 C1361 1.334 . S
C1362 C1363 1.287 . S
C1363 C1362 1.287 . S
C1363 C1364 1.524 . S
C1363 H1366 0.999 . S
C1364 H1334 0.950 . S
C1364 C1363 1.524 . S
C1364 C1365 1.415 . S
C1365 H1335 0.950 . S
C1365 C1360 1.363 . S
C1365 C1364 1.415 . S
H1366 C1363 0.999 . S
H1367 C1348 0.913 . S
C187 C55 1.259 . S
C202 C13 1.258 . S
C237 C27 1.258 . S
C252 C69 1.259 . S
C287 C83 1.259 . S
C302 C41 1.258 . S
C337 C97 1.258 . S
C352 C139 1.259 . S
C387 C153 1.259 . S
C402 C111 1.258 . S
C437 C125 1.258 . S
C452 C167 1.259 . S
C487 C123 1.548 . S
C502 C11 1.548 . S
C537 C25 1.548 . S
C552 C137 1.548 . S
C587 C39 1.548 . S
C602 C151 1.548 . S
C637 C53 1.548 . S
C652 C165 1.548 . S
C687 C95 1.548 . S
C702 C67 1.548 . S
C737 C109 1.549 . S
C752 C81 1.549 . S
C787 C105 0.738 . S
C802 C7 0.740 . S
C837 C21 0.739 . S
C852 C119 0.740 . S
C887 C35 0.739 . S
C902 C133 0.739 . S
C937 C49 0.739 . S
C952 C147 0.739 . S
C987 C161 0.739 . S
C1002 C63 0.740 . S
C1037 C77 0.739 . S
C1052 C91 0.739 . S
C1087 C148 1.235 . S
C1102 C8 1.234 . S
C1137 C162 1.235 . S
C1152 C22 1.235 . S
C1187 C92 1.235 . S
C1202 C36 1.235 . S
C1237 C50 1.234 . S
C1252 C106 1.235 . S
C1287 C64 1.234 . S
C1302 C120 1.234 . S
C1337 C78 1.234 . S
C1352 C134 1.234 . S
