# Generated by pormake.
# Topology srs, (3)-cn, num edge types: 1
# Building blocks:
#     Node 0, Type 0, BuildingBlock: WUSLED_clean_sbu_0, # of connection points: 3
#     Node 1, Type 0, BuildingBlock: WUSLED_clean_sbu_0, # of connection points: 3
#     Node 2, Type 0, BuildingBlock: WUSLED_clean_sbu_0, # of connection points: 3
#     Node 3, Type 0, BuildingBlock: WUSLED_clean_sbu_0, # of connection points: 3
#     Node 4, Type 0, BuildingBlock: WUSLED_clean_sbu_0, # of connection points: 3
#     Node 5, Type 0, BuildingBlock: WUSLED_clean_sbu_0, # of connection points: 3
#     Node 6, Type 0, BuildingBlock: WUSLED_clean_sbu_0, # of connection points: 3
#     Node 7, Type 0, BuildingBlock: WUSLED_clean_sbu_0, # of connection points: 3
#     Edge 8, Type (0, 0), BuildingBlock: XIVTED_clean_linker_0, # of connection points: 2
#     Edge 9, Type (0, 0), BuildingBlock: XIVTED_clean_linker_0, # of connection points: 2
#     Edge 10, Type (0, 0), BuildingBlock: XIVTED_clean_linker_0, # of connection points: 2
#     Edge 11, Type (0, 0), BuildingBlock: XIVTED_clean_linker_0, # of connection points: 2
#     Edge 12, Type (0, 0), BuildingBlock: XIVTED_clean_linker_0, # of connection points: 2
#     Edge 13, Type (0, 0), BuildingBlock: XIVTED_clean_linker_0, # of connection points: 2
#     Edge 14, Type (0, 0), BuildingBlock: XIVTED_clean_linker_0, # of connection points: 2
#     Edge 15, Type (0, 0), BuildingBlock: XIVTED_clean_linker_0, # of connection points: 2
#     Edge 16, Type (0, 0), BuildingBlock: XIVTED_clean_linker_0, # of connection points: 2
#     Edge 17, Type (0, 0), BuildingBlock: XIVTED_clean_linker_0, # of connection points: 2
#     Edge 18, Type (0, 0), BuildingBlock: XIVTED_clean_linker_0, # of connection points: 2
#     Edge 19, Type (0, 0), BuildingBlock: XIVTED_clean_linker_0, # of connection points: 2
# Relax obj value: 0.000
# Max RMSD: 0.008
# Mean RMSD: 0.008
data_MOF--net-srs--node1-WUSLED_clean_sbu_0--edge1-XIVTED_clean_linker_0
_symmetry_space_group_name_H-M    P1
_symmetry_Int_Tables_number       1
_symmetry_cell_setting            triclinic
loop_
_symmetry_equiv_pos_as_xyz
'x, y, z'
_cell_length_a     64.209761
_cell_length_b     64.540472
_cell_length_c     64.597999
_cell_angle_alpha  89.884572
_cell_angle_beta   89.924071
_cell_angle_gamma 90.034249
loop_
_atom_site_label
_atom_site_type_symbol
_atom_site_fract_x
_atom_site_fract_y
_atom_site_fract_z
_atom_type_partial_charge
C0 C 0.13015 0.11855 0.19729 0.0
C1 C 0.1438 0.10221 0.19275 0.0
C2 C 0.13423 0.08493 0.22501 0.0
C3 C 0.14579 0.0855 0.20647 0.0
C4 C 0.12071 0.10148 0.22949 0.0
C5 C 0.11869 0.11812 0.21575 0.0
U6 U 0.14702 0.15015 0.15 0.0
O7 O 0.12806 0.16499 0.12584 0.0
O8 O 0.14815 0.18397 0.14567 0.0
C9 C 0.13362 0.18379 0.13137 0.0
C10 C 0.12762 0.13612 0.18299 0.0
C11 C 0.11646 0.19853 0.13447 0.0
C12 C 0.08444 0.20886 0.15171 0.0
C13 C 0.1007 0.19465 0.14904 0.0
C14 C 0.09965 0.23098 0.12537 0.0
C15 C 0.08369 0.2272 0.13987 0.0
C16 C 0.11585 0.21676 0.12271 0.0
C17 C 0.19449 0.13376 0.11839 0.0
C18 C 0.20648 0.15346 0.08855 0.0
C19 C 0.22514 0.12267 0.09936 0.0
C20 C 0.21095 0.11983 0.11556 0.0
C21 C 0.22313 0.13955 0.08567 0.0
C22 C 0.19228 0.15058 0.10478 0.0
C23 C 0.17993 0.13069 0.1357 0.0
O24 O 0.14233 0.15026 0.18376 0.0
O25 O 0.12215 0.13131 0.16399 0.0
O26 O 0.16077 0.12581 0.13048 0.0
O27 O 0.18083 0.14472 0.15038 0.0
H28 H 0.15287 0.10237 0.17859 0.0
H29 H 0.15651 0.07313 0.20265 0.0
H30 H 0.11137 0.10142 0.24347 0.0
H31 H 0.10807 0.13061 0.21948 0.0
H32 H 0.07232 0.20534 0.16285 0.0
H33 H 0.10094 0.18062 0.15827 0.0
H34 H 0.09978 0.24507 0.11624 0.0
H35 H 0.12796 0.22004 0.11147 0.0
H36 H 0.20431 0.16647 0.07817 0.0
H37 H 0.23792 0.11184 0.09781 0.0
H38 H 0.21292 0.1068 0.12598 0.0
H39 H 0.1796 0.16148 0.10674 0.0
C40 C 0.13002 0.93149 0.35264 0.0
C41 C 0.14411 0.94756 0.3568 0.0
C42 C 0.13411 0.96503 0.32481 0.0
C43 C 0.14611 0.96423 0.34303 0.0
C44 C 0.12013 0.94874 0.3207 0.0
C45 C 0.11811 0.93215 0.33451 0.0
U46 U 0.1472 0.90002 0.39981 0.0
O47 O 0.12837 0.88519 0.42417 0.0
O48 O 0.1484 0.86624 0.40423 0.0
C49 C 0.13388 0.8664 0.41859 0.0
C50 C 0.12752 0.91396 0.367 0.0
C51 C 0.11666 0.85173 0.41542 0.0
C52 C 0.08635 0.84015 0.39611 0.0
C53 C 0.10255 0.85437 0.39905 0.0
C54 C 0.09818 0.82059 0.42591 0.0
C55 C 0.08398 0.82306 0.4095 0.0
C56 C 0.11436 0.83481 0.42882 0.0
C57 C 0.1953 0.91685 0.43044 0.0
C58 C 0.20785 0.89813 0.46065 0.0
C59 C 0.22713 0.92767 0.44755 0.0
C60 C 0.21234 0.93031 0.43191 0.0
C61 C 0.22515 0.91149 0.46205 0.0
C62 C 0.19307 0.90077 0.44493 0.0
C63 C 0.18028 0.91961 0.41351 0.0
O64 O 0.14217 0.89978 0.36611 0.0
O65 O 0.12224 0.91884 0.38605 0.0
O66 O 0.16119 0.92437 0.41913 0.0
O67 O 0.181 0.9055 0.3989 0.0
H68 H 0.15353 0.94723 0.37071 0.0
H69 H 0.15718 0.97638 0.34654 0.0
H70 H 0.11045 0.94899 0.30698 0.0
H71 H 0.10714 0.91986 0.33107 0.0
H72 H 0.07558 0.84267 0.38348 0.0
H73 H 0.1041 0.86741 0.38857 0.0
H74 H 0.09703 0.80748 0.43633 0.0
H75 H 0.12516 0.83252 0.44149 0.0
H76 H 0.20596 0.88539 0.47142 0.0
H77 H 0.24007 0.93842 0.44835 0.0
H78 H 0.21427 0.94284 0.42087 0.0
H79 H 0.18001 0.89018 0.44396 0.0
C80 C 0.38053 0.94869 0.67898 0.0
C81 C 0.39031 0.94325 0.69764 0.0
C82 C 0.38226 0.97728 0.712 0.0
C83 C 0.39115 0.95742 0.71403 0.0
C84 C 0.37291 0.98271 0.69306 0.0
C85 C 0.37204 0.96855 0.67675 0.0
U86 U 0.39788 0.90052 0.64859 0.0
O87 O 0.37884 0.87662 0.63347 0.0
O88 O 0.39977 0.89606 0.61485 0.0
C89 C 0.38493 0.88204 0.61479 0.0
C90 C 0.37867 0.93392 0.66175 0.0
C91 C 0.36824 0.8854 0.59956 0.0
C92 C 0.33503 0.90048 0.58954 0.0
C93 C 0.3507 0.89748 0.60431 0.0
C94 C 0.35438 0.87953 0.5651 0.0
C95 C 0.33673 0.89158 0.56973 0.0
C96 C 0.36996 0.87647 0.57989 0.0
C97 C 0.44445 0.86821 0.66578 0.0
C98 C 0.45613 0.83831 0.64613 0.0
C99 C 0.47491 0.84888 0.67686 0.0
C100 C 0.46087 0.8652 0.6797 0.0
C101 C 0.47277 0.83526 0.65999 0.0
C102 C 0.44209 0.85465 0.649 0.0
C103 C 0.43015 0.88575 0.66871 0.0
O104 O 0.3938 0.9344 0.64803 0.0
O105 O 0.37285 0.91501 0.66672 0.0
O106 O 0.41081 0.88081 0.67326 0.0
O107 O 0.43156 0.9005 0.65472 0.0
H108 H 0.39704 0.92799 0.69962 0.0
H109 H 0.39832 0.95265 0.72843 0.0
H110 H 0.36627 0.99797 0.69078 0.0
H111 H 0.36457 0.97307 0.6624 0.0
H112 H 0.32176 0.91002 0.59352 0.0
H113 H 0.34917 0.90463 0.6194 0.0
H114 H 0.35606 0.87226 0.5501 0.0
H115 H 0.38338 0.86709 0.57596 0.0
H116 H 0.45385 0.82799 0.63313 0.0
H117 H 0.48768 0.84721 0.68765 0.0
H118 H 0.46296 0.87559 0.69269 0.0
H119 H 0.42945 0.85675 0.6381 0.0
C120 C 0.37814 0.10334 0.8666 0.0
C121 C 0.39654 0.10218 0.85491 0.0
C122 C 0.38068 0.07632 0.83237 0.0
C123 C 0.39783 0.08872 0.83796 0.0
C124 C 0.36231 0.07762 0.8442 0.0
C125 C 0.36108 0.091 0.86114 0.0
U126 U 0.3967 0.14938 0.89917 0.0
O127 O 0.37834 0.17357 0.91467 0.0
O128 O 0.39801 0.15274 0.93304 0.0
C129 C 0.38379 0.16738 0.93328 0.0
C130 C 0.37635 0.11731 0.88448 0.0
C131 C 0.36657 0.16419 0.94796 0.0
C132 C 0.33471 0.14662 0.95829 0.0
C133 C 0.351 0.14944 0.94413 0.0
C134 C 0.34946 0.17323 0.98024 0.0
C135 C 0.33373 0.1585 0.97654 0.0
C136 C 0.36571 0.17603 0.96608 0.0
C137 C 0.44465 0.18055 0.88322 0.0
C138 C 0.45712 0.20975 0.90342 0.0
C139 C 0.47532 0.19963 0.87216 0.0
C140 C 0.46097 0.18361 0.86914 0.0
C141 C 0.4736 0.2129 0.88935 0.0
C142 C 0.44276 0.19371 0.90037 0.0
C143 C 0.42979 0.16355 0.87984 0.0
O144 O 0.39116 0.11576 0.89844 0.0
O145 O 0.37138 0.13657 0.88012 0.0
O146 O 0.41071 0.16927 0.8752 0.0
O147 O 0.43048 0.14846 0.89351 0.0
H148 H 0.40986 0.11169 0.85886 0.0
H149 H 0.41212 0.08825 0.82905 0.0
H150 H 0.34893 0.06811 0.84053 0.0
H151 H 0.34677 0.09168 0.87003 0.0
H152 H 0.32275 0.13531 0.95482 0.0
H153 H 0.35143 0.14016 0.93017 0.0
H154 H 0.34942 0.18241 0.99425 0.0
H155 H 0.37767 0.18743 0.96931 0.0
H156 H 0.45517 0.21981 0.91668 0.0
H157 H 0.48797 0.20139 0.86119 0.0
H158 H 0.46269 0.17354 0.85585 0.0
H159 H 0.43018 0.19157 0.91137 0.0
C160 C 0.63115 0.43063 0.85202 0.0
C161 C 0.64468 0.44705 0.85671 0.0
C162 C 0.63541 0.46431 0.82438 0.0
C163 C 0.64675 0.46378 0.84302 0.0
C164 C 0.62202 0.44768 0.81975 0.0
C165 C 0.61992 0.43102 0.83346 0.0
U166 U 0.64768 0.39894 0.89932 0.0
O167 O 0.62853 0.38407 0.92338 0.0
O168 O 0.64871 0.36511 0.9036 0.0
C169 C 0.63407 0.36527 0.91783 0.0
C170 C 0.62851 0.41304 0.86629 0.0
C171 C 0.61689 0.35057 0.91459 0.0
C172 C 0.58499 0.34038 0.89713 0.0
C173 C 0.60123 0.35457 0.9 0.0
C174 C 0.59999 0.31805 0.92336 0.0
C175 C 0.58415 0.32193 0.9088 0.0
C176 C 0.61618 0.33225 0.92621 0.0
C177 C 0.69504 0.41523 0.93108 0.0
C178 C 0.70689 0.3955 0.9609 0.0
C179 C 0.72564 0.4263 0.95015 0.0
C180 C 0.71151 0.42916 0.93394 0.0
C181 C 0.72355 0.40941 0.96382 0.0
C182 C 0.69276 0.3984 0.94466 0.0
C183 C 0.68056 0.41834 0.91375 0.0
O184 O 0.64319 0.39889 0.86555 0.0
O185 O 0.62294 0.41783 0.88528 0.0
O186 O 0.66138 0.42322 0.91893 0.0
O187 O 0.68151 0.40432 0.89904 0.0
H188 H 0.65358 0.44693 0.87095 0.0
H189 H 0.65736 0.47621 0.84695 0.0
H190 H 0.61285 0.44771 0.80569 0.0
H191 H 0.60939 0.41848 0.82962 0.0
H192 H 0.57296 0.34398 0.88596 0.0
H193 H 0.60155 0.36867 0.89088 0.0
H194 H 0.60006 0.30388 0.93236 0.0
H195 H 0.62821 0.32888 0.93747 0.0
H196 H 0.70466 0.38248 0.97126 0.0
H197 H 0.73843 0.43712 0.95172 0.0
H198 H 0.71354 0.4422 0.92353 0.0
H199 H 0.68007 0.38751 0.94268 0.0
C200 C 0.88051 0.44764 0.18107 0.0
C201 C 0.89454 0.44336 0.19716 0.0
C202 C 0.88488 0.47558 0.21436 0.0
C203 C 0.89667 0.45719 0.2137 0.0
C204 C 0.87096 0.47978 0.19808 0.0
C205 C 0.8688 0.46593 0.18161 0.0
U206 U 0.89708 0.40011 0.14988 0.0
O207 O 0.87796 0.37595 0.13527 0.0
O208 O 0.89817 0.39562 0.11613 0.0
C209 C 0.88353 0.38139 0.11644 0.0
C210 C 0.87787 0.43325 0.16366 0.0
C211 C 0.86636 0.38459 0.10174 0.0
C212 C 0.83469 0.40233 0.09126 0.0
C213 C 0.85091 0.39949 0.10545 0.0
C214 C 0.84928 0.37544 0.06951 0.0
C215 C 0.83366 0.39032 0.0731 0.0
C216 C 0.86546 0.37262 0.08371 0.0
C217 C 0.94445 0.36844 0.16649 0.0
C218 C 0.9569 0.33897 0.14667 0.0
C219 C 0.97457 0.34898 0.17823 0.0
C220 C 0.9604 0.36521 0.1809 0.0
C221 C 0.97305 0.33568 0.16105 0.0
C222 C 0.94272 0.35521 0.14938 0.0
C223 C 0.92993 0.38579 0.16941 0.0
O224 O 0.89255 0.43391 0.14948 0.0
O225 O 0.87232 0.41428 0.16865 0.0
O226 O 0.91075 0.38061 0.17433 0.0
O227 O 0.93089 0.40043 0.15526 0.0
H228 H 0.9038 0.42933 0.19691 0.0
H229 H 0.9077 0.45359 0.22586 0.0
H230 H 0.86144 0.49363 0.19822 0.0
H231 H 0.85788 0.46945 0.16932 0.0
H232 H 0.82282 0.41375 0.09465 0.0
H233 H 0.85138 0.40888 0.11934 0.0
H234 H 0.84921 0.36617 0.05556 0.0
H235 H 0.87733 0.36112 0.08057 0.0
H236 H 0.95511 0.32888 0.13341 0.0
H237 H 0.98696 0.34712 0.18943 0.0
H238 H 0.962 0.37533 0.19416 0.0
H239 H 0.93043 0.35748 0.13813 0.0
C240 C 0.88174 0.60115 0.3689 0.0
C241 C 0.89508 0.6058 0.35231 0.0
C242 C 0.88593 0.57318 0.33561 0.0
C243 C 0.89712 0.59195 0.33577 0.0
C244 C 0.87275 0.56857 0.35243 0.0
C245 C 0.87067 0.58244 0.36889 0.0
U246 U 0.89819 0.64874 0.40015 0.0
O247 O 0.87892 0.67297 0.41447 0.0
O248 O 0.89881 0.65332 0.43389 0.0
C249 C 0.8842 0.66757 0.43338 0.0
C250 C 0.87903 0.61562 0.38625 0.0
C251 C 0.86681 0.6644 0.44787 0.0
C252 C 0.83589 0.64559 0.45883 0.0
C253 C 0.85228 0.64847 0.44479 0.0
C254 C 0.84845 0.67454 0.47912 0.0
C255 C 0.83378 0.65859 0.4762 0.0
C256 C 0.86479 0.6774 0.46508 0.0
C257 C 0.94592 0.68027 0.38409 0.0
C258 C 0.95646 0.71147 0.40232 0.0
C259 C 0.97786 0.69803 0.37449 0.0
C260 C 0.96372 0.6818 0.37165 0.0
C261 C 0.97443 0.71308 0.38987 0.0
C262 C 0.94233 0.69519 0.39946 0.0
C263 C 0.9314 0.66293 0.38102 0.0
O264 O 0.89355 0.61494 0.40055 0.0
O265 O 0.87363 0.6346 0.38117 0.0
O266 O 0.91231 0.6681 0.37582 0.0
O267 O 0.9321 0.64834 0.39522 0.0
H268 H 0.90385 0.62015 0.35214 0.0
H269 H 0.90758 0.59587 0.32318 0.0
H270 H 0.8637 0.55441 0.35269 0.0
H271 H 0.86029 0.57862 0.38157 0.0
H272 H 0.82477 0.63331 0.45596 0.0
H273 H 0.85361 0.6383 0.43153 0.0
H274 H 0.84752 0.68464 0.49246 0.0
H275 H 0.87594 0.68973 0.46772 0.0
H276 H 0.9532 0.72289 0.41414 0.0
H277 H 0.99166 0.69858 0.36486 0.0
H278 H 0.96677 0.67034 0.35979 0.0
H279 H 0.92863 0.69423 0.40922 0.0
C280 C 0.63059 0.61801 0.69715 0.0
C281 C 0.64486 0.60211 0.69292 0.0
C282 C 0.63502 0.58445 0.7249 0.0
C283 C 0.64703 0.58544 0.70666 0.0
C284 C 0.62086 0.60056 0.72906 0.0
C285 C 0.61868 0.61716 0.7153 0.0
U286 U 0.64706 0.64965 0.64974 0.0
O287 O 0.62785 0.66427 0.62563 0.0
O288 O 0.64786 0.68347 0.64533 0.0
C289 C 0.63324 0.68313 0.63111 0.0
C290 C 0.62787 0.63551 0.68281 0.0
C291 C 0.61594 0.69769 0.63435 0.0
C292 C 0.58423 0.70788 0.65222 0.0
C293 C 0.60055 0.6938 0.6493 0.0
C294 C 0.59859 0.72986 0.62529 0.0
C295 C 0.58304 0.72611 0.64023 0.0
C296 C 0.61486 0.71577 0.62239 0.0
C297 C 0.69469 0.63355 0.61813 0.0
C298 C 0.70577 0.65229 0.58735 0.0
C299 C 0.72622 0.6234 0.60002 0.0
C300 C 0.71204 0.62057 0.61623 0.0
C301 C 0.72329 0.63931 0.58537 0.0
C302 C 0.69159 0.64943 0.6036 0.0
C303 C 0.68013 0.63047 0.63545 0.0
O304 O 0.64244 0.64979 0.68351 0.0
O305 O 0.62241 0.6306 0.66384 0.0
O306 O 0.661 0.62541 0.63026 0.0
O307 O 0.68093 0.64457 0.65007 0.0
H308 H 0.65428 0.60259 0.67899 0.0
H309 H 0.65823 0.57342 0.7031 0.0
H310 H 0.61117 0.60017 0.74279 0.0
H311 H 0.60756 0.6293 0.71878 0.0
H312 H 0.57243 0.70437 0.66369 0.0
H313 H 0.60116 0.67987 0.65868 0.0
H314 H 0.59838 0.74386 0.61603 0.0
H315 H 0.62668 0.71905 0.61085 0.0
H316 H 0.70289 0.66453 0.57623 0.0
H317 H 0.73968 0.61333 0.59919 0.0
H318 H 0.71471 0.60829 0.62738 0.0
H319 H 0.67823 0.6596 0.60485 0.0
H320 H 0.13756 1.00638 0.33412 0.0
H321 H 0.13652 0.04351 0.2156 0.0
H322 H 0.1346 0.96439 0.28229 0.0
H323 H 0.13582 0.08553 0.26749 0.0
H324 H 0.13808 1.01434 0.23974 0.0
H325 H 0.13919 0.03551 0.30993 0.0
C326 C 0.13743 1.00326 0.31765 0.0
C327 C 0.13586 0.98287 0.31026 0.0
C328 C 0.13764 0.02994 0.24586 0.0
C329 C 0.13752 1.01624 0.28242 0.0
C330 C 0.13688 0.04663 0.23206 0.0
C331 C 0.13596 0.06704 0.2395 0.0
C332 C 0.13753 0.03363 0.26729 0.0
C333 C 0.13619 0.07007 0.26104 0.0
C334 C 0.13823 1.01993 0.30384 0.0
C335 C 0.13548 0.97984 0.28873 0.0
N336 N 0.13692 0.05358 0.27414 0.0
N337 N 0.13627 0.99632 0.27559 0.0
H338 H 0.21954 0.90143 0.5031 0.0
H339 H 0.34174 0.8998 0.52839 0.0
H340 H 0.26755 0.91451 0.45811 0.0
H341 H 0.2942 0.89095 0.57486 0.0
H342 H 0.31462 0.90448 0.50236 0.0
H343 H 0.24647 0.89663 0.52948 0.0
C344 C 0.23574 0.9032 0.49874 0.0
C345 C 0.24126 0.90843 0.47833 0.0
C346 C 0.31008 0.90153 0.51825 0.0
C347 C 0.27218 0.90311 0.50851 0.0
C348 C 0.32558 0.89874 0.53312 0.0
C349 C 0.32027 0.8949 0.55386 0.0
C350 C 0.28902 0.9004 0.52407 0.0
C351 C 0.29904 0.89407 0.5591 0.0
C352 C 0.2511 0.90059 0.51384 0.0
C353 C 0.26251 0.91078 0.47367 0.0
N354 N 0.2842 0.89672 0.5443 0.0
N355 N 0.27715 0.90807 0.4886 0.0
H356 H 0.35087 1.00333 0.72415 0.0
H357 H 0.41313 0.05121 0.82032 0.0
H358 H 0.41347 0.98508 0.74022 0.0
H359 H 0.35075 0.06905 0.80306 0.0
H360 H 0.41404 0.02738 0.79087 0.0
H361 H 0.35099 0.02781 0.7528 0.0
C362 C 0.36473 1.00456 0.7336 0.0
C363 C 0.38223 0.99214 0.72963 0.0
C364 C 0.40017 0.03653 0.79353 0.0
C365 C 0.38235 1.0201 0.76283 0.0
C366 C 0.39968 0.05023 0.81027 0.0
C367 C 0.38179 0.06212 0.81426 0.0
C368 C 0.38267 0.03472 0.78061 0.0
C369 C 0.36474 0.05999 0.80083 0.0
C370 C 0.36473 1.01849 0.75008 0.0
C371 C 0.39955 0.99417 0.74277 0.0
N372 N 0.36561 0.04658 0.78466 0.0
N373 N 0.39918 1.00789 0.75876 0.0
H374 H 0.24019 0.17613 0.07192 0.0
H375 H 0.3155 0.12202 0.98909 0.0
H376 H 0.24129 0.11024 0.06065 0.0
H377 H 0.31264 0.18812 0.99874 0.0
H378 H 0.28779 0.11745 1.01466 0.0
H379 H 0.26613 0.18089 0.04462 0.0
C380 C 0.24574 0.16267 0.0636 0.0
C381 C 0.23852 0.14274 0.06868 0.0
C382 C 0.29319 0.13296 1.01116 0.0
C383 C 0.26851 0.14807 0.03749 0.0
C384 C 0.30895 0.1356 0.99645 0.0
C385 C 0.31651 0.15549 0.99174 0.0
C386 C 0.28487 0.15033 1.02131 0.0
C387 C 0.30758 0.17246 1.00207 0.0
C388 C 0.26067 0.16539 0.04808 0.0
C389 C 0.24659 0.12586 0.05753 0.0
N390 N 0.29229 0.16949 1.01635 0.0
N391 N 0.26114 0.12891 0.04251 0.0
H392 H 0.98998 0.30986 0.19042 0.0
H393 H 0.06316 0.2496 0.11001 0.0
H394 H 0.99133 0.32271 0.12483 0.0
H395 H 0.06485 0.23955 0.17607 0.0
H396 H 0.03576 0.27532 0.11498 0.0
H397 H 1.01624 0.28296 0.18531 0.0
C398 C 0.99583 0.30708 0.17494 0.0
C399 C 0.98845 0.31868 0.15805 0.0
C400 C 0.04209 0.26747 0.1284 0.0
C401 C 1.01845 0.28768 0.15205 0.0
C402 C 0.05785 0.25284 0.12558 0.0
C403 C 0.06647 0.24241 0.14265 0.0
C404 C 0.0348 0.27178 0.14844 0.0
C405 C 0.05858 0.24701 0.16242 0.0
C406 C 1.01076 0.29163 0.17202 0.0
C407 C 0.99635 0.31406 0.13829 0.0
N408 N 0.04326 0.26137 0.16477 0.0
N409 N 1.01095 0.299 0.13586 0.0
H410 H 0.4912 0.22574 0.92591 0.0
H411 H 0.56569 0.30995 0.87235 0.0
H412 H 0.4914 0.2386 0.8603 0.0
H413 H 0.5634 0.29906 0.93827 0.0
H414 H 0.53805 0.28435 0.86769 0.0
H415 H 0.51717 0.25297 0.9308 0.0
C416 C 0.49656 0.23439 0.91254 0.0
C417 C 0.48908 0.22979 0.89264 0.0
C418 C 0.54357 0.28759 0.88318 0.0
C419 C 0.5191 0.2609 0.89813 0.0
C420 C 0.55929 0.30231 0.88587 0.0
C421 C 0.56699 0.30669 0.90574 0.0
C422 C 0.53543 0.27708 0.90047 0.0
C423 C 0.55824 0.296 0.92263 0.0
C424 C 0.51151 0.24987 0.91534 0.0
C425 C 0.49691 0.24135 0.87588 0.0
N426 N 0.54298 0.28171 0.9196 0.0
N427 N 0.51148 0.25631 0.879 0.0
H428 H 0.06938 0.8073 0.37278 0.0
H429 H 0.98796 0.72987 0.42656 0.0
H430 H 0.05973 0.80368 0.43884 0.0
H431 H 0.99579 0.73538 0.36039 0.0
H432 H 1.01365 0.75738 0.43134 0.0
H433 H 0.04198 0.78151 0.36791 0.0
C434 C 0.0614 0.80123 0.38627 0.0
C435 C 0.06696 0.8077 0.40627 0.0
C436 C 1.00972 0.7526 0.41577 0.0
C437 C 0.03565 0.77788 0.40079 0.0
C438 C 0.99494 0.73696 0.41301 0.0
C439 C 0.98968 0.7302 0.39303 0.0
C440 C 1.0194 0.76162 0.39843 0.0
C441 C 0.99954 0.73981 0.3761 0.0
C442 C 0.04581 0.78639 0.38348 0.0
C443 C 0.05623 0.79897 0.42315 0.0
N444 N 1.01391 0.75497 0.37919 0.0
N445 N 0.04115 0.78452 0.42003 0.0
H446 H 0.56517 0.73861 0.67685 0.0
H447 H 0.4896 0.82164 0.62333 0.0
H448 H 0.56158 0.74825 0.6108 0.0
H449 H 0.49099 0.81003 0.68915 0.0
H450 H 0.5154 0.79429 0.6184 0.0
H451 H 0.53751 0.76414 0.68163 0.0
C452 C 0.55847 0.74595 0.66332 0.0
C453 C 0.56582 0.74126 0.64338 0.0
C454 C 0.51002 0.79768 0.63392 0.0
C455 C 0.53424 0.77079 0.64879 0.0
C456 C 0.49517 0.81323 0.63675 0.0
C457 C 0.48808 0.81822 0.6567 0.0
C458 C 0.51793 0.78698 0.65117 0.0
C459 C 0.49619 0.80697 0.67351 0.0
C460 C 0.54274 0.76065 0.66608 0.0
C461 C 0.5567 0.75157 0.62649 0.0
N462 N 0.51068 0.79193 0.67036 0.0
N463 N 0.54145 0.76585 0.62958 0.0
H464 H 0.63895 0.54316 0.71548 0.0
H465 H 0.63736 0.50572 0.83389 0.0
H466 H 0.63539 0.58498 0.76741 0.0
H467 H 0.63744 0.46382 0.78191 0.0
H468 H 0.63895 0.53496 0.80983 0.0
H469 H 0.64072 0.51398 0.73959 0.0
C470 C 0.63872 0.54624 0.73195 0.0
C471 C 0.63693 0.56659 0.7394 0.0
C472 C 0.63867 0.51937 0.80368 0.0
C473 C 0.63874 0.53316 0.76715 0.0
C474 C 0.6379 0.50264 0.81743 0.0
C475 C 0.63719 0.48224 0.80994 0.0
C476 C 0.63879 0.51573 0.78224 0.0
C477 C 0.63765 0.47927 0.7884 0.0
C478 C 0.63961 0.52954 0.74572 0.0
C479 C 0.63644 0.56956 0.76094 0.0
N480 N 0.63839 0.4958 0.77533 0.0
N481 N 0.6373 0.55305 0.77403 0.0
H482 H 0.81574 0.42685 0.06034 0.0
H483 H 0.74049 0.3728 0.97757 0.0
H484 H 0.81244 0.36071 0.05102 0.0
H485 H 0.74167 0.43869 0.98887 0.0
H486 H 0.76632 0.36802 1.0049 0.0
H487 H 0.78816 0.43145 0.03472 0.0
C488 C 0.80913 0.41327 0.05304 0.0
C489 C 0.81653 0.39335 0.05786 0.0
C490 C 0.7609 0.38352 1.00144 0.0
C491 C 0.78503 0.39855 0.02824 0.0
C492 C 0.74603 0.38626 0.9859 0.0
C493 C 0.73888 0.40619 0.98083 0.0
C494 C 0.76874 0.40083 1.01204 0.0
C495 C 0.74693 0.42306 0.99199 0.0
C496 C 0.79344 0.41592 0.03831 0.0
C497 C 0.80751 0.37638 0.04761 0.0
N498 N 0.76143 0.42 1.00701 0.0
N499 N 0.79229 0.37938 0.03329 0.0
H500 H 0.88588 0.5181 0.21329 0.0
H501 H 0.88833 0.53071 0.33664 0.0
H502 H 0.88824 0.46647 0.25578 0.0
H503 H 0.88733 0.58234 0.29409 0.0
H504 H 0.88937 0.50697 0.30723 0.0
H505 H 0.88744 0.54186 0.24264 0.0
C506 C 0.88669 0.51174 0.2288 0.0
C507 C 0.88682 0.49021 0.23205 0.0
C508 C 0.889 0.52349 0.30431 0.0
C509 C 0.88876 0.51741 0.2658 0.0
C510 C 0.8883 0.53707 0.32111 0.0
C511 C 0.88763 0.55858 0.31786 0.0
C512 C 0.88895 0.53143 0.28405 0.0
C513 C 0.88801 0.5659 0.29737 0.0
C514 C 0.88769 0.52534 0.24556 0.0
C515 C 0.88828 0.48292 0.2525 0.0
N516 N 0.88853 0.55236 0.28127 0.0
N517 N 0.88908 0.49647 0.26858 0.0
H518 H 0.81787 0.62187 0.49097 0.0
H519 H 0.73808 0.67603 0.56948 0.0
H520 H 0.81035 0.68812 0.49609 0.0
H521 H 0.74356 0.60977 0.5623 0.0
H522 H 0.76394 0.68077 0.54211 0.0
H523 H 0.79017 0.61713 0.5165 0.0
C524 C 0.8103 0.63543 0.49731 0.0
C525 C 0.81654 0.65544 0.49135 0.0
C526 C 0.75946 0.66519 0.54648 0.0
C527 C 0.7849 0.6501 0.52089 0.0
C528 C 0.74457 0.66246 0.56205 0.0
C529 C 0.73862 0.64245 0.5683 0.0
C530 C 0.76853 0.64779 0.53704 0.0
C531 C 0.74787 0.62548 0.55827 0.0
C532 C 0.79454 0.63271 0.51201 0.0
C533 C 0.80632 0.67241 0.50042 0.0
N534 N 0.76236 0.62854 0.54319 0.0
N535 N 0.79106 0.66935 0.51472 0.0
loop_
_geom_bond_atom_site_label_1
_geom_bond_atom_site_label_2
_geom_bond_distance
_geom_bond_site_symmetry_2
_ccdc_geom_bond_type
C0 C1 1.264 . S
C0 C5 1.479 . S
C0 C10 1.465 . S
C1 C0 1.264 . S
C1 C3 1.339 . S
C1 H28 0.931 . S
C2 C3 1.395 . S
C2 C4 1.320 . S
C3 C1 1.339 . S
C3 C2 1.395 . S
C3 H29 0.929 . S
C4 C2 1.320 . S
C4 C5 1.405 . S
C4 H30 0.930 . S
C5 C0 1.479 . S
C5 C4 1.405 . S
C5 H31 0.931 . S
U6 O7 2.454 . S
U6 O8 2.458 . S
U6 C9 2.984 . S
U6 C10 2.847 . S
U6 C23 2.882 . S
U6 O24 2.441 . S
U6 O25 2.420 . S
U6 O26 2.455 . S
U6 O27 2.449 . S
O7 U6 2.454 . S
O7 C9 1.353 . S
O8 U6 2.458 . S
O8 C9 1.286 . S
C9 U6 2.984 . S
C9 O7 1.353 . S
C9 O8 1.286 . S
C9 C11 1.363 . S
C10 C0 1.465 . S
C10 U6 2.847 . S
C10 O24 1.249 . S
C10 O25 1.202 . S
C11 C9 1.363 . S
C11 C13 1.408 . S
C11 C16 1.342 . S
C12 C13 1.310 . S
C12 C15 1.461 . S
C12 H32 0.932 . S
C13 C11 1.408 . S
C13 C12 1.310 . S
C13 H33 0.930 . S
C14 C15 1.474 . S
C14 C16 1.285 . S
C14 H34 0.929 . S
C15 C12 1.461 . S
C15 C14 1.474 . S
C16 C11 1.342 . S
C16 C14 1.285 . S
C16 H35 0.930 . S
C17 C20 1.424 . S
C17 C22 1.245 . S
C17 C23 1.428 . S
C18 C21 1.260 . S
C18 C22 1.477 . S
C18 H36 0.932 . S
C19 C20 1.384 . S
C19 C21 1.479 . S
C19 H37 0.929 . S
C20 C17 1.424 . S
C20 C19 1.384 . S
C20 H38 0.928 . S
C21 C18 1.260 . S
C21 C19 1.479 . S
C22 C17 1.245 . S
C22 C18 1.477 . S
C22 H39 0.932 . S
C23 U6 2.882 . S
C23 C17 1.428 . S
C23 O26 1.301 . S
C23 O27 1.282 . S
O24 U6 2.441 . S
O24 C10 1.249 . S
O25 U6 2.420 . S
O25 C10 1.202 . S
O26 U6 2.455 . S
O26 C23 1.301 . S
O27 U6 2.449 . S
O27 C23 1.282 . S
H28 C1 0.931 . S
H29 C3 0.929 . S
H30 C4 0.930 . S
H31 C5 0.931 . S
H32 C12 0.932 . S
H33 C13 0.930 . S
H34 C14 0.929 . S
H35 C16 0.930 . S
H36 C18 0.932 . S
H37 C19 0.929 . S
H38 C20 0.928 . S
H39 C22 0.932 . S
C40 C41 1.264 . S
C40 C45 1.479 . S
C40 C50 1.465 . S
C41 C40 1.264 . S
C41 C43 1.339 . S
C41 H68 0.931 . S
C42 C43 1.395 . S
C42 C44 1.320 . S
C43 C41 1.339 . S
C43 C42 1.395 . S
C43 H69 0.929 . S
C44 C42 1.320 . S
C44 C45 1.405 . S
C44 H70 0.930 . S
C45 C40 1.479 . S
C45 C44 1.405 . S
C45 H71 0.931 . S
U46 O47 2.454 . S
U46 O48 2.458 . S
U46 C49 2.984 . S
U46 C50 2.847 . S
U46 C63 2.882 . S
U46 O64 2.441 . S
U46 O65 2.420 . S
U46 O66 2.455 . S
U46 O67 2.449 . S
O47 U46 2.454 . S
O47 C49 1.353 . S
O48 U46 2.458 . S
O48 C49 1.286 . S
C49 U46 2.984 . S
C49 O47 1.353 . S
C49 O48 1.286 . S
C49 C51 1.363 . S
C50 C40 1.465 . S
C50 U46 2.847 . S
C50 O64 1.249 . S
C50 O65 1.202 . S
C51 C49 1.363 . S
C51 C53 1.408 . S
C51 C56 1.342 . S
C52 C53 1.310 . S
C52 C55 1.461 . S
C52 H72 0.932 . S
C53 C51 1.408 . S
C53 C52 1.310 . S
C53 H73 0.930 . S
C54 C55 1.474 . S
C54 C56 1.285 . S
C54 H74 0.929 . S
C55 C52 1.461 . S
C55 C54 1.474 . S
C56 C51 1.342 . S
C56 C54 1.285 . S
C56 H75 0.930 . S
C57 C60 1.424 . S
C57 C62 1.245 . S
C57 C63 1.428 . S
C58 C61 1.260 . S
C58 C62 1.477 . S
C58 H76 0.932 . S
C59 C60 1.384 . S
C59 C61 1.479 . S
C59 H77 0.929 . S
C60 C57 1.424 . S
C60 C59 1.384 . S
C60 H78 0.928 . S
C61 C58 1.260 . S
C61 C59 1.479 . S
C62 C57 1.245 . S
C62 C58 1.477 . S
C62 H79 0.932 . S
C63 U46 2.882 . S
C63 C57 1.428 . S
C63 O66 1.301 . S
C63 O67 1.282 . S
O64 U46 2.441 . S
O64 C50 1.249 . S
O65 U46 2.420 . S
O65 C50 1.202 . S
O66 U46 2.455 . S
O66 C63 1.301 . S
O67 U46 2.449 . S
O67 C63 1.282 . S
H68 C41 0.931 . S
H69 C43 0.929 . S
H70 C44 0.930 . S
H71 C45 0.931 . S
H72 C52 0.932 . S
H73 C53 0.930 . S
H74 C54 0.929 . S
H75 C56 0.930 . S
H76 C58 0.932 . S
H77 C59 0.929 . S
H78 C60 0.928 . S
H79 C62 0.932 . S
C80 C81 1.264 . S
C80 C85 1.479 . S
C80 C90 1.465 . S
C81 C80 1.264 . S
C81 C83 1.339 . S
C81 H108 0.931 . S
C82 C83 1.395 . S
C82 C84 1.320 . S
C83 C81 1.339 . S
C83 C82 1.395 . S
C83 H109 0.929 . S
C84 C82 1.320 . S
C84 C85 1.405 . S
C84 H110 0.930 . S
C85 C80 1.479 . S
C85 C84 1.405 . S
C85 H111 0.931 . S
U86 O87 2.454 . S
U86 O88 2.458 . S
U86 C89 2.984 . S
U86 C90 2.847 . S
U86 C103 2.882 . S
U86 O104 2.441 . S
U86 O105 2.420 . S
U86 O106 2.455 . S
U86 O107 2.449 . S
O87 U86 2.454 . S
O87 C89 1.353 . S
O88 U86 2.458 . S
O88 C89 1.286 . S
C89 U86 2.984 . S
C89 O87 1.353 . S
C89 O88 1.286 . S
C89 C91 1.363 . S
C90 C80 1.465 . S
C90 U86 2.847 . S
C90 O104 1.249 . S
C90 O105 1.202 . S
C91 C89 1.363 . S
C91 C93 1.408 . S
C91 C96 1.342 . S
C92 C93 1.310 . S
C92 C95 1.461 . S
C92 H112 0.932 . S
C93 C91 1.408 . S
C93 C92 1.310 . S
C93 H113 0.930 . S
C94 C95 1.474 . S
C94 C96 1.285 . S
C94 H114 0.929 . S
C95 C92 1.461 . S
C95 C94 1.474 . S
C96 C91 1.342 . S
C96 C94 1.285 . S
C96 H115 0.930 . S
C97 C100 1.424 . S
C97 C102 1.245 . S
C97 C103 1.428 . S
C98 C101 1.260 . S
C98 C102 1.477 . S
C98 H116 0.932 . S
C99 C100 1.384 . S
C99 C101 1.479 . S
C99 H117 0.929 . S
C100 C97 1.424 . S
C100 C99 1.384 . S
C100 H118 0.928 . S
C101 C98 1.260 . S
C101 C99 1.479 . S
C102 C97 1.245 . S
C102 C98 1.477 . S
C102 H119 0.932 . S
C103 U86 2.882 . S
C103 C97 1.428 . S
C103 O106 1.301 . S
C103 O107 1.282 . S
O104 U86 2.441 . S
O104 C90 1.249 . S
O105 U86 2.420 . S
O105 C90 1.202 . S
O106 U86 2.455 . S
O106 C103 1.301 . S
O107 U86 2.449 . S
O107 C103 1.282 . S
H108 C81 0.931 . S
H109 C83 0.929 . S
H110 C84 0.930 . S
H111 C85 0.931 . S
H112 C92 0.932 . S
H113 C93 0.930 . S
H114 C94 0.929 . S
H115 C96 0.930 . S
H116 C98 0.932 . S
H117 C99 0.929 . S
H118 C100 0.928 . S
H119 C102 0.932 . S
C120 C121 1.264 . S
C120 C125 1.479 . S
C120 C130 1.465 . S
C121 C120 1.264 . S
C121 C123 1.339 . S
C121 H148 0.931 . S
C122 C123 1.395 . S
C122 C124 1.320 . S
C123 C121 1.339 . S
C123 C122 1.395 . S
C123 H149 0.929 . S
C124 C122 1.320 . S
C124 C125 1.405 . S
C124 H150 0.930 . S
C125 C120 1.479 . S
C125 C124 1.405 . S
C125 H151 0.931 . S
U126 O127 2.454 . S
U126 O128 2.458 . S
U126 C129 2.984 . S
U126 C130 2.847 . S
U126 C143 2.882 . S
U126 O144 2.441 . S
U126 O145 2.420 . S
U126 O146 2.455 . S
U126 O147 2.449 . S
O127 U126 2.454 . S
O127 C129 1.353 . S
O128 U126 2.458 . S
O128 C129 1.286 . S
C129 U126 2.984 . S
C129 O127 1.353 . S
C129 O128 1.286 . S
C129 C131 1.363 . S
C130 C120 1.465 . S
C130 U126 2.847 . S
C130 O144 1.249 . S
C130 O145 1.202 . S
C131 C129 1.363 . S
C131 C133 1.408 . S
C131 C136 1.342 . S
C132 C133 1.310 . S
C132 C135 1.461 . S
C132 H152 0.932 . S
C133 C131 1.408 . S
C133 C132 1.310 . S
C133 H153 0.930 . S
C134 C135 1.474 . S
C134 C136 1.285 . S
C134 H154 0.929 . S
C135 C132 1.461 . S
C135 C134 1.474 . S
C136 C131 1.342 . S
C136 C134 1.285 . S
C136 H155 0.930 . S
C137 C140 1.424 . S
C137 C142 1.245 . S
C137 C143 1.428 . S
C138 C141 1.260 . S
C138 C142 1.477 . S
C138 H156 0.932 . S
C139 C140 1.384 . S
C139 C141 1.479 . S
C139 H157 0.929 . S
C140 C137 1.424 . S
C140 C139 1.384 . S
C140 H158 0.928 . S
C141 C138 1.260 . S
C141 C139 1.479 . S
C142 C137 1.245 . S
C142 C138 1.477 . S
C142 H159 0.932 . S
C143 U126 2.882 . S
C143 C137 1.428 . S
C143 O146 1.301 . S
C143 O147 1.282 . S
O144 U126 2.441 . S
O144 C130 1.249 . S
O145 U126 2.420 . S
O145 C130 1.202 . S
O146 U126 2.455 . S
O146 C143 1.301 . S
O147 U126 2.449 . S
O147 C143 1.282 . S
H148 C121 0.931 . S
H149 C123 0.929 . S
H150 C124 0.930 . S
H151 C125 0.931 . S
H152 C132 0.932 . S
H153 C133 0.930 . S
H154 C134 0.929 . S
H155 C136 0.930 . S
H156 C138 0.932 . S
H157 C139 0.929 . S
H158 C140 0.928 . S
H159 C142 0.932 . S
C160 C161 1.264 . S
C160 C165 1.479 . S
C160 C170 1.465 . S
C161 C160 1.264 . S
C161 C163 1.339 . S
C161 H188 0.931 . S
C162 C163 1.395 . S
C162 C164 1.320 . S
C163 C161 1.339 . S
C163 C162 1.395 . S
C163 H189 0.929 . S
C164 C162 1.320 . S
C164 C165 1.405 . S
C164 H190 0.930 . S
C165 C160 1.479 . S
C165 C164 1.405 . S
C165 H191 0.931 . S
U166 O167 2.454 . S
U166 O168 2.458 . S
U166 C169 2.984 . S
U166 C170 2.847 . S
U166 C183 2.882 . S
U166 O184 2.441 . S
U166 O185 2.420 . S
U166 O186 2.455 . S
U166 O187 2.449 . S
O167 U166 2.454 . S
O167 C169 1.353 . S
O168 U166 2.458 . S
O168 C169 1.286 . S
C169 U166 2.984 . S
C169 O167 1.353 . S
C169 O168 1.286 . S
C169 C171 1.363 . S
C170 C160 1.465 . S
C170 U166 2.847 . S
C170 O184 1.249 . S
C170 O185 1.202 . S
C171 C169 1.363 . S
C171 C173 1.408 . S
C171 C176 1.342 . S
C172 C173 1.310 . S
C172 C175 1.461 . S
C172 H192 0.932 . S
C173 C171 1.408 . S
C173 C172 1.310 . S
C173 H193 0.930 . S
C174 C175 1.474 . S
C174 C176 1.285 . S
C174 H194 0.929 . S
C175 C172 1.461 . S
C175 C174 1.474 . S
C176 C171 1.342 . S
C176 C174 1.285 . S
C176 H195 0.930 . S
C177 C180 1.424 . S
C177 C182 1.245 . S
C177 C183 1.428 . S
C178 C181 1.260 . S
C178 C182 1.477 . S
C178 H196 0.932 . S
C179 C180 1.384 . S
C179 C181 1.479 . S
C179 H197 0.929 . S
C180 C177 1.424 . S
C180 C179 1.384 . S
C180 H198 0.928 . S
C181 C178 1.260 . S
C181 C179 1.479 . S
C182 C177 1.245 . S
C182 C178 1.477 . S
C182 H199 0.932 . S
C183 U166 2.882 . S
C183 C177 1.428 . S
C183 O186 1.301 . S
C183 O187 1.282 . S
O184 U166 2.441 . S
O184 C170 1.249 . S
O185 U166 2.420 . S
O185 C170 1.202 . S
O186 U166 2.455 . S
O186 C183 1.301 . S
O187 U166 2.449 . S
O187 C183 1.282 . S
H188 C161 0.931 . S
H189 C163 0.929 . S
H190 C164 0.930 . S
H191 C165 0.931 . S
H192 C172 0.932 . S
H193 C173 0.930 . S
H194 C174 0.929 . S
H195 C176 0.930 . S
H196 C178 0.932 . S
H197 C179 0.929 . S
H198 C180 0.928 . S
H199 C182 0.932 . S
C200 C201 1.264 . S
C200 C205 1.479 . S
C200 C210 1.465 . S
C201 C200 1.264 . S
C201 C203 1.339 . S
C201 H228 0.931 . S
C202 C203 1.395 . S
C202 C204 1.320 . S
C203 C201 1.339 . S
C203 C202 1.395 . S
C203 H229 0.929 . S
C204 C202 1.320 . S
C204 C205 1.405 . S
C204 H230 0.930 . S
C205 C200 1.479 . S
C205 C204 1.405 . S
C205 H231 0.931 . S
U206 O207 2.454 . S
U206 O208 2.458 . S
U206 C209 2.984 . S
U206 C210 2.847 . S
U206 C223 2.882 . S
U206 O224 2.441 . S
U206 O225 2.420 . S
U206 O226 2.455 . S
U206 O227 2.449 . S
O207 U206 2.454 . S
O207 C209 1.353 . S
O208 U206 2.458 . S
O208 C209 1.286 . S
C209 U206 2.984 . S
C209 O207 1.353 . S
C209 O208 1.286 . S
C209 C211 1.363 . S
C210 C200 1.465 . S
C210 U206 2.847 . S
C210 O224 1.249 . S
C210 O225 1.202 . S
C211 C209 1.363 . S
C211 C213 1.408 . S
C211 C216 1.342 . S
C212 C213 1.310 . S
C212 C215 1.461 . S
C212 H232 0.932 . S
C213 C211 1.408 . S
C213 C212 1.310 . S
C213 H233 0.930 . S
C214 C215 1.474 . S
C214 C216 1.285 . S
C214 H234 0.929 . S
C215 C212 1.461 . S
C215 C214 1.474 . S
C216 C211 1.342 . S
C216 C214 1.285 . S
C216 H235 0.930 . S
C217 C220 1.424 . S
C217 C222 1.245 . S
C217 C223 1.428 . S
C218 C221 1.260 . S
C218 C222 1.477 . S
C218 H236 0.932 . S
C219 C220 1.384 . S
C219 C221 1.479 . S
C219 H237 0.929 . S
C220 C217 1.424 . S
C220 C219 1.384 . S
C220 H238 0.928 . S
C221 C218 1.260 . S
C221 C219 1.479 . S
C222 C217 1.245 . S
C222 C218 1.477 . S
C222 H239 0.932 . S
C223 U206 2.882 . S
C223 C217 1.428 . S
C223 O226 1.301 . S
C223 O227 1.282 . S
O224 U206 2.441 . S
O224 C210 1.249 . S
O225 U206 2.420 . S
O225 C210 1.202 . S
O226 U206 2.455 . S
O226 C223 1.301 . S
O227 U206 2.449 . S
O227 C223 1.282 . S
H228 C201 0.931 . S
H229 C203 0.929 . S
H230 C204 0.930 . S
H231 C205 0.931 . S
H232 C212 0.932 . S
H233 C213 0.930 . S
H234 C214 0.929 . S
H235 C216 0.930 . S
H236 C218 0.932 . S
H237 C219 0.929 . S
H238 C220 0.928 . S
H239 C222 0.932 . S
C240 C241 1.264 . S
C240 C245 1.479 . S
C240 C250 1.465 . S
C241 C240 1.264 . S
C241 C243 1.339 . S
C241 H268 0.931 . S
C242 C243 1.395 . S
C242 C244 1.320 . S
C243 C241 1.339 . S
C243 C242 1.395 . S
C243 H269 0.929 . S
C244 C242 1.320 . S
C244 C245 1.405 . S
C244 H270 0.930 . S
C245 C240 1.479 . S
C245 C244 1.405 . S
C245 H271 0.931 . S
U246 O247 2.454 . S
U246 O248 2.458 . S
U246 C249 2.984 . S
U246 C250 2.847 . S
U246 C263 2.882 . S
U246 O264 2.441 . S
U246 O265 2.420 . S
U246 O266 2.455 . S
U246 O267 2.449 . S
O247 U246 2.454 . S
O247 C249 1.353 . S
O248 U246 2.458 . S
O248 C249 1.286 . S
C249 U246 2.984 . S
C249 O247 1.353 . S
C249 O248 1.286 . S
C249 C251 1.363 . S
C250 C240 1.465 . S
C250 U246 2.847 . S
C250 O264 1.249 . S
C250 O265 1.202 . S
C251 C249 1.363 . S
C251 C253 1.408 . S
C251 C256 1.342 . S
C252 C253 1.310 . S
C252 C255 1.461 . S
C252 H272 0.932 . S
C253 C251 1.408 . S
C253 C252 1.310 . S
C253 H273 0.930 . S
C254 C255 1.474 . S
C254 C256 1.285 . S
C254 H274 0.929 . S
C255 C252 1.461 . S
C255 C254 1.474 . S
C256 C251 1.342 . S
C256 C254 1.285 . S
C256 H275 0.930 . S
C257 C260 1.424 . S
C257 C262 1.245 . S
C257 C263 1.428 . S
C258 C261 1.260 . S
C258 C262 1.477 . S
C258 H276 0.932 . S
C259 C260 1.384 . S
C259 C261 1.479 . S
C259 H277 0.929 . S
C260 C257 1.424 . S
C260 C259 1.384 . S
C260 H278 0.928 . S
C261 C258 1.260 . S
C261 C259 1.479 . S
C262 C257 1.245 . S
C262 C258 1.477 . S
C262 H279 0.932 . S
C263 U246 2.882 . S
C263 C257 1.428 . S
C263 O266 1.301 . S
C263 O267 1.282 . S
O264 U246 2.441 . S
O264 C250 1.249 . S
O265 U246 2.420 . S
O265 C250 1.202 . S
O266 U246 2.455 . S
O266 C263 1.301 . S
O267 U246 2.449 . S
O267 C263 1.282 . S
H268 C241 0.931 . S
H269 C243 0.929 . S
H270 C244 0.930 . S
H271 C245 0.931 . S
H272 C252 0.932 . S
H273 C253 0.930 . S
H274 C254 0.929 . S
H275 C256 0.930 . S
H276 C258 0.932 . S
H277 C259 0.929 . S
H278 C260 0.928 . S
H279 C262 0.932 . S
C280 C281 1.264 . S
C280 C285 1.479 . S
C280 C290 1.465 . S
C281 C280 1.264 . S
C281 C283 1.339 . S
C281 H308 0.931 . S
C282 C283 1.395 . S
C282 C284 1.320 . S
C283 C281 1.339 . S
C283 C282 1.395 . S
C283 H309 0.929 . S
C284 C282 1.320 . S
C284 C285 1.405 . S
C284 H310 0.930 . S
C285 C280 1.479 . S
C285 C284 1.405 . S
C285 H311 0.931 . S
U286 O287 2.454 . S
U286 O288 2.458 . S
U286 C289 2.984 . S
U286 C290 2.847 . S
U286 C303 2.882 . S
U286 O304 2.441 . S
U286 O305 2.420 . S
U286 O306 2.455 . S
U286 O307 2.449 . S
O287 U286 2.454 . S
O287 C289 1.353 . S
O288 U286 2.458 . S
O288 C289 1.286 . S
C289 U286 2.984 . S
C289 O287 1.353 . S
C289 O288 1.286 . S
C289 C291 1.363 . S
C290 C280 1.465 . S
C290 U286 2.847 . S
C290 O304 1.249 . S
C290 O305 1.202 . S
C291 C289 1.363 . S
C291 C293 1.408 . S
C291 C296 1.342 . S
C292 C293 1.310 . S
C292 C295 1.461 . S
C292 H312 0.932 . S
C293 C291 1.408 . S
C293 C292 1.310 . S
C293 H313 0.930 . S
C294 C295 1.474 . S
C294 C296 1.285 . S
C294 H314 0.929 . S
C295 C292 1.461 . S
C295 C294 1.474 . S
C296 C291 1.342 . S
C296 C294 1.285 . S
C296 H315 0.930 . S
C297 C300 1.424 . S
C297 C302 1.245 . S
C297 C303 1.428 . S
C298 C301 1.260 . S
C298 C302 1.477 . S
C298 H316 0.932 . S
C299 C300 1.384 . S
C299 C301 1.479 . S
C299 H317 0.929 . S
C300 C297 1.424 . S
C300 C299 1.384 . S
C300 H318 0.928 . S
C301 C298 1.260 . S
C301 C299 1.479 . S
C302 C297 1.245 . S
C302 C298 1.477 . S
C302 H319 0.932 . S
C303 U286 2.882 . S
C303 C297 1.428 . S
C303 O306 1.301 . S
C303 O307 1.282 . S
O304 U286 2.441 . S
O304 C290 1.249 . S
O305 U286 2.420 . S
O305 C290 1.202 . S
O306 U286 2.455 . S
O306 C303 1.301 . S
O307 U286 2.449 . S
O307 C303 1.282 . S
H308 C281 0.931 . S
H309 C283 0.929 . S
H310 C284 0.930 . S
H311 C285 0.931 . S
H312 C292 0.932 . S
H313 C293 0.930 . S
H314 C294 0.929 . S
H315 C296 0.930 . S
H316 C298 0.932 . S
H317 C299 0.929 . S
H318 C300 0.928 . S
H319 C302 0.932 . S
H320 C326 0.930 . S
H321 C330 0.930 . S
H322 C335 0.929 . S
H323 C333 0.929 . S
H324 C328 0.929 1_565 S
H325 C334 0.929 1_545 S
C326 H320 0.930 . S
C326 C327 1.367 . S
C326 C334 1.378 . S
C327 C326 1.367 . S
C327 C335 1.433 . S
C328 H324 0.929 1_545 S
C328 C330 1.378 . S
C328 C332 1.350 . S
C329 C332 1.463 1_565 S
C329 C334 1.350 . S
C329 N337 1.427 . S
C330 H321 0.930 . S
C330 C328 1.378 . S
C330 C331 1.367 . S
C331 C330 1.367 . S
C331 C333 1.433 . S
C332 C328 1.350 . S
C332 C329 1.463 1_545 S
C332 N336 1.427 . S
C333 H323 0.929 . S
C333 C331 1.433 . S
C333 N336 1.384 . S
C334 H325 0.929 1_565 S
C334 C326 1.378 . S
C334 C329 1.350 . S
C335 H322 0.929 . S
C335 C327 1.433 . S
C335 N337 1.384 . S
N336 C332 1.427 . S
N336 C333 1.384 . S
N337 C329 1.427 . S
N337 C335 1.384 . S
H338 C344 0.930 . S
H339 C348 0.930 . S
H340 C353 0.929 . S
H341 C351 0.929 . S
H342 C346 0.929 . S
H343 C352 0.929 . S
C344 H338 0.930 . S
C344 C345 1.367 . S
C344 C352 1.378 . S
C345 C344 1.367 . S
C345 C353 1.433 . S
C346 H342 0.929 . S
C346 C348 1.378 . S
C346 C350 1.350 . S
C347 C350 1.463 . S
C347 C352 1.350 . S
C347 N355 1.427 . S
C348 H339 0.930 . S
C348 C346 1.378 . S
C348 C349 1.367 . S
C349 C348 1.367 . S
C349 C351 1.433 . S
C350 C346 1.350 . S
C350 C347 1.463 . S
C350 N354 1.427 . S
C351 H341 0.929 . S
C351 C349 1.433 . S
C351 N354 1.384 . S
C352 H343 0.929 . S
C352 C344 1.378 . S
C352 C347 1.350 . S
C353 H340 0.929 . S
C353 C345 1.433 . S
C353 N355 1.384 . S
N354 C350 1.427 . S
N354 C351 1.384 . S
N355 C347 1.427 . S
N355 C353 1.384 . S
H356 C362 0.930 . S
H357 C366 0.930 . S
H358 C371 0.929 . S
H359 C369 0.929 . S
H360 C364 0.929 1_565 S
H361 C370 0.929 1_545 S
C362 H356 0.930 . S
C362 C363 1.367 . S
C362 C370 1.378 . S
C363 C362 1.367 . S
C363 C371 1.433 . S
C364 H360 0.929 1_545 S
C364 C366 1.378 . S
C364 C368 1.350 . S
C365 C368 1.463 1_565 S
C365 C370 1.350 . S
C365 N373 1.427 . S
C366 H357 0.930 . S
C366 C364 1.378 . S
C366 C367 1.367 . S
C367 C366 1.367 . S
C367 C369 1.433 . S
C368 C364 1.350 . S
C368 C365 1.463 1_545 S
C368 N372 1.427 . S
C369 H359 0.929 . S
C369 C367 1.433 . S
C369 N372 1.384 . S
C370 H361 0.929 1_565 S
C370 C362 1.378 . S
C370 C365 1.350 . S
C371 H358 0.929 . S
C371 C363 1.433 . S
C371 N373 1.384 . S
N372 C368 1.427 . S
N372 C369 1.384 . S
N373 C365 1.427 . S
N373 C371 1.384 . S
H374 C380 0.930 . S
H375 C384 0.930 . S
H376 C389 0.929 . S
H377 C387 0.929 . S
H378 C382 0.929 . S
H379 C388 0.929 . S
C380 H374 0.930 . S
C380 C381 1.367 . S
C380 C388 1.378 . S
C381 C380 1.367 . S
C381 C389 1.433 . S
C382 H378 0.929 . S
C382 C384 1.378 . S
C382 C386 1.350 . S
C383 C386 1.463 1_554 S
C383 C388 1.350 . S
C383 N391 1.427 . S
C384 H375 0.930 . S
C384 C382 1.378 . S
C384 C385 1.367 . S
C385 C384 1.367 . S
C385 C387 1.433 . S
C386 C382 1.350 . S
C386 C383 1.463 1_556 S
C386 N390 1.427 . S
C387 H377 0.929 . S
C387 C385 1.433 . S
C387 N390 1.384 . S
C388 H379 0.929 . S
C388 C380 1.378 . S
C388 C383 1.350 . S
C389 H376 0.929 . S
C389 C381 1.433 . S
C389 N391 1.384 . S
N390 C386 1.427 . S
N390 C387 1.384 . S
N391 C383 1.427 . S
N391 C389 1.384 . S
H392 C398 0.930 . S
H393 C402 0.930 . S
H394 C407 0.929 . S
H395 C405 0.929 . S
H396 C400 0.929 . S
H397 C406 0.929 . S
C398 H392 0.930 . S
C398 C399 1.367 . S
C398 C406 1.378 . S
C399 C398 1.367 . S
C399 C407 1.433 . S
C400 H396 0.929 . S
C400 C402 1.378 . S
C400 C404 1.350 . S
C401 C404 1.463 1_655 S
C401 C406 1.350 . S
C401 N409 1.427 . S
C402 H393 0.930 . S
C402 C400 1.378 . S
C402 C403 1.367 . S
C403 C402 1.367 . S
C403 C405 1.433 . S
C404 C400 1.350 . S
C404 C401 1.463 1_455 S
C404 N408 1.427 . S
C405 H395 0.929 . S
C405 C403 1.433 . S
C405 N408 1.384 . S
C406 H397 0.929 . S
C406 C398 1.378 . S
C406 C401 1.350 . S
C407 H394 0.929 . S
C407 C399 1.433 . S
C407 N409 1.384 . S
N408 C404 1.427 . S
N408 C405 1.384 . S
N409 C401 1.427 . S
N409 C407 1.384 . S
H410 C416 0.930 . S
H411 C420 0.930 . S
H412 C425 0.929 . S
H413 C423 0.929 . S
H414 C418 0.929 . S
H415 C424 0.929 . S
C416 H410 0.930 . S
C416 C417 1.367 . S
C416 C424 1.378 . S
C417 C416 1.367 . S
C417 C425 1.433 . S
C418 H414 0.929 . S
C418 C420 1.378 . S
C418 C422 1.350 . S
C419 C422 1.463 . S
C419 C424 1.350 . S
C419 N427 1.427 . S
C420 H411 0.930 . S
C420 C418 1.378 . S
C420 C421 1.367 . S
C421 C420 1.367 . S
C421 C423 1.433 . S
C422 C418 1.350 . S
C422 C419 1.463 . S
C422 N426 1.427 . S
C423 H413 0.929 . S
C423 C421 1.433 . S
C423 N426 1.384 . S
C424 H415 0.929 . S
C424 C416 1.378 . S
C424 C419 1.350 . S
C425 H412 0.929 . S
C425 C417 1.433 . S
C425 N427 1.384 . S
N426 C422 1.427 . S
N426 C423 1.384 . S
N427 C419 1.427 . S
N427 C425 1.384 . S
H428 C434 0.930 . S
H429 C438 0.930 . S
H430 C443 0.929 . S
H431 C441 0.929 . S
H432 C436 0.929 . S
H433 C442 0.929 . S
C434 H428 0.930 . S
C434 C435 1.367 . S
C434 C442 1.378 . S
C435 C434 1.367 . S
C435 C443 1.433 . S
C436 H432 0.929 . S
C436 C438 1.378 . S
C436 C440 1.350 . S
C437 C440 1.463 1_455 S
C437 C442 1.350 . S
C437 N445 1.427 . S
C438 H429 0.930 . S
C438 C436 1.378 . S
C438 C439 1.367 . S
C439 C438 1.367 . S
C439 C441 1.433 . S
C440 C436 1.350 . S
C440 C437 1.463 1_655 S
C440 N444 1.427 . S
C441 H431 0.929 . S
C441 C439 1.433 . S
C441 N444 1.384 . S
C442 H433 0.929 . S
C442 C434 1.378 . S
C442 C437 1.350 . S
C443 H430 0.929 . S
C443 C435 1.433 . S
C443 N445 1.384 . S
N444 C440 1.427 . S
N444 C441 1.384 . S
N445 C437 1.427 . S
N445 C443 1.384 . S
H446 C452 0.930 . S
H447 C456 0.930 . S
H448 C461 0.929 . S
H449 C459 0.929 . S
H450 C454 0.929 . S
H451 C460 0.929 . S
C452 H446 0.930 . S
C452 C453 1.367 . S
C452 C460 1.378 . S
C453 C452 1.367 . S
C453 C461 1.433 . S
C454 H450 0.929 . S
C454 C456 1.378 . S
C454 C458 1.350 . S
C455 C458 1.463 . S
C455 C460 1.350 . S
C455 N463 1.427 . S
C456 H447 0.930 . S
C456 C454 1.378 . S
C456 C457 1.367 . S
C457 C456 1.367 . S
C457 C459 1.433 . S
C458 C454 1.350 . S
C458 C455 1.463 . S
C458 N462 1.427 . S
C459 H449 0.929 . S
C459 C457 1.433 . S
C459 N462 1.384 . S
C460 H451 0.929 . S
C460 C452 1.378 . S
C460 C455 1.350 . S
C461 H448 0.929 . S
C461 C453 1.433 . S
C461 N463 1.384 . S
N462 C458 1.427 . S
N462 C459 1.384 . S
N463 C455 1.427 . S
N463 C461 1.384 . S
H464 C470 0.930 . S
H465 C474 0.930 . S
H466 C479 0.929 . S
H467 C477 0.929 . S
H468 C472 0.929 . S
H469 C478 0.929 . S
C470 H464 0.930 . S
C470 C471 1.367 . S
C470 C478 1.378 . S
C471 C470 1.367 . S
C471 C479 1.433 . S
C472 H468 0.929 . S
C472 C474 1.378 . S
C472 C476 1.350 . S
C473 C476 1.463 . S
C473 C478 1.350 . S
C473 N481 1.427 . S
C474 H465 0.930 . S
C474 C472 1.378 . S
C474 C475 1.367 . S
C475 C474 1.367 . S
C475 C477 1.433 . S
C476 C472 1.350 . S
C476 C473 1.463 . S
C476 N480 1.427 . S
C477 H467 0.929 . S
C477 C475 1.433 . S
C477 N480 1.384 . S
C478 H469 0.929 . S
C478 C470 1.378 . S
C478 C473 1.350 . S
C479 H466 0.929 . S
C479 C471 1.433 . S
C479 N481 1.384 . S
N480 C476 1.427 . S
N480 C477 1.384 . S
N481 C473 1.427 . S
N481 C479 1.384 . S
H482 C488 0.930 . S
H483 C492 0.930 . S
H484 C497 0.929 . S
H485 C495 0.929 . S
H486 C490 0.929 . S
H487 C496 0.929 . S
C488 H482 0.930 . S
C488 C489 1.367 . S
C488 C496 1.378 . S
C489 C488 1.367 . S
C489 C497 1.433 . S
C490 H486 0.929 . S
C490 C492 1.378 . S
C490 C494 1.350 . S
C491 C494 1.463 1_554 S
C491 C496 1.350 . S
C491 N499 1.427 . S
C492 H483 0.930 . S
C492 C490 1.378 . S
C492 C493 1.367 . S
C493 C492 1.367 . S
C493 C495 1.433 . S
C494 C490 1.350 . S
C494 C491 1.463 1_556 S
C494 N498 1.427 . S
C495 H485 0.929 . S
C495 C493 1.433 . S
C495 N498 1.384 . S
C496 H487 0.929 . S
C496 C488 1.378 . S
C496 C491 1.350 . S
C497 H484 0.929 . S
C497 C489 1.433 . S
C497 N499 1.384 . S
N498 C494 1.427 . S
N498 C495 1.384 . S
N499 C491 1.427 . S
N499 C497 1.384 . S
H500 C506 0.930 . S
H501 C510 0.930 . S
H502 C515 0.929 . S
H503 C513 0.929 . S
H504 C508 0.929 . S
H505 C514 0.929 . S
C506 H500 0.930 . S
C506 C507 1.367 . S
C506 C514 1.378 . S
C507 C506 1.367 . S
C507 C515 1.433 . S
C508 H504 0.929 . S
C508 C510 1.378 . S
C508 C512 1.350 . S
C509 C512 1.463 . S
C509 C514 1.350 . S
C509 N517 1.427 . S
C510 H501 0.930 . S
C510 C508 1.378 . S
C510 C511 1.367 . S
C511 C510 1.367 . S
C511 C513 1.433 . S
C512 C508 1.350 . S
C512 C509 1.463 . S
C512 N516 1.427 . S
C513 H503 0.929 . S
C513 C511 1.433 . S
C513 N516 1.384 . S
C514 H505 0.929 . S
C514 C506 1.378 . S
C514 C509 1.350 . S
C515 H502 0.929 . S
C515 C507 1.433 . S
C515 N517 1.384 . S
N516 C512 1.427 . S
N516 C513 1.384 . S
N517 C509 1.427 . S
N517 C515 1.384 . S
H518 C524 0.930 . S
H519 C528 0.930 . S
H520 C533 0.929 . S
H521 C531 0.929 . S
H522 C526 0.929 . S
H523 C532 0.929 . S
C524 H518 0.930 . S
C524 C525 1.367 . S
C524 C532 1.378 . S
C525 C524 1.367 . S
C525 C533 1.433 . S
C526 H522 0.929 . S
C526 C528 1.378 . S
C526 C530 1.350 . S
C527 C530 1.463 . S
C527 C532 1.350 . S
C527 N535 1.427 . S
C528 H519 0.930 . S
C528 C526 1.378 . S
C528 C529 1.367 . S
C529 C528 1.367 . S
C529 C531 1.433 . S
C530 C526 1.350 . S
C530 C527 1.463 . S
C530 N534 1.427 . S
C531 H521 0.929 . S
C531 C529 1.433 . S
C531 N534 1.384 . S
C532 H523 0.929 . S
C532 C524 1.378 . S
C532 C527 1.350 . S
C533 H520 0.929 . S
C533 C525 1.433 . S
C533 N535 1.384 . S
N534 C530 1.427 . S
N534 C531 1.384 . S
N535 C527 1.427 . S
N535 C533 1.384 . S
C327 C42 1.485 . S
C331 C2 1.485 . S
C345 C61 1.486 . S
C349 C95 1.502 . S
C363 C82 1.486 . S
C367 C122 1.491 . S
C381 C21 1.491 . S
C385 C135 1.502 . S
C399 C221 1.484 . S
C403 C15 1.502 . S
C417 C141 1.492 . S
C421 C175 1.502 . S
C435 C55 1.502 . S
C439 C261 1.490 . S
C453 C295 1.502 . S
C457 C101 1.491 . S
C471 C282 1.486 . S
C475 C162 1.484 . S
C489 C215 1.502 . S
C493 C181 1.491 . S
C507 C202 1.487 . S
C511 C242 1.491 . S
C525 C255 1.502 . S
C529 C301 1.491 . S
