# Generated by pormake.
# Topology whe, (6)-cn, num edge types: 1
# Building blocks:
#     Node 0, Type 0, BuildingBlock: IZENUY_clean_sbu_0, # of connection points: 6
#     Node 1, Type 0, BuildingBlock: IZENUY_clean_sbu_0, # of connection points: 6
#     Node 2, Type 0, BuildingBlock: IZENUY_clean_sbu_0, # of connection points: 6
#     Node 3, Type 0, BuildingBlock: IZENUY_clean_sbu_0, # of connection points: 6
#     Node 4, Type 0, BuildingBlock: IZENUY_clean_sbu_0, # of connection points: 6
#     Node 5, Type 0, BuildingBlock: IZENUY_clean_sbu_0, # of connection points: 6
#     Node 6, Type 0, BuildingBlock: IZENUY_clean_sbu_0, # of connection points: 6
#     Node 7, Type 0, BuildingBlock: IZENUY_clean_sbu_0, # of connection points: 6
#     Node 8, Type 0, BuildingBlock: IZENUY_clean_sbu_0, # of connection points: 6
#     Node 9, Type 0, BuildingBlock: IZENUY_clean_sbu_0, # of connection points: 6
#     Node 10, Type 0, BuildingBlock: IZENUY_clean_sbu_0, # of connection points: 6
#     Node 11, Type 0, BuildingBlock: IZENUY_clean_sbu_0, # of connection points: 6
#     Node 12, Type 0, BuildingBlock: IZENUY_clean_sbu_0, # of connection points: 6
#     Node 13, Type 0, BuildingBlock: IZENUY_clean_sbu_0, # of connection points: 6
#     Node 14, Type 0, BuildingBlock: IZENUY_clean_sbu_0, # of connection points: 6
#     Node 15, Type 0, BuildingBlock: IZENUY_clean_sbu_0, # of connection points: 6
#     Edge 16, Type (0, 0), BuildingBlock: TEMPAE_clean_linker_10, # of connection points: 2
#     Edge 17, Type (0, 0), BuildingBlock: TEMPAE_clean_linker_10, # of connection points: 2
#     Edge 18, Type (0, 0), BuildingBlock: TEMPAE_clean_linker_10, # of connection points: 2
#     Edge 19, Type (0, 0), BuildingBlock: TEMPAE_clean_linker_10, # of connection points: 2
#     Edge 20, Type (0, 0), BuildingBlock: TEMPAE_clean_linker_10, # of connection points: 2
#     Edge 21, Type (0, 0), BuildingBlock: TEMPAE_clean_linker_10, # of connection points: 2
#     Edge 22, Type (0, 0), BuildingBlock: TEMPAE_clean_linker_10, # of connection points: 2
#     Edge 23, Type (0, 0), BuildingBlock: TEMPAE_clean_linker_10, # of connection points: 2
#     Edge 24, Type (0, 0), BuildingBlock: TEMPAE_clean_linker_10, # of connection points: 2
#     Edge 25, Type (0, 0), BuildingBlock: TEMPAE_clean_linker_10, # of connection points: 2
#     Edge 26, Type (0, 0), BuildingBlock: TEMPAE_clean_linker_10, # of connection points: 2
#     Edge 27, Type (0, 0), BuildingBlock: TEMPAE_clean_linker_10, # of connection points: 2
#     Edge 28, Type (0, 0), BuildingBlock: TEMPAE_clean_linker_10, # of connection points: 2
#     Edge 29, Type (0, 0), BuildingBlock: TEMPAE_clean_linker_10, # of connection points: 2
#     Edge 30, Type (0, 0), BuildingBlock: TEMPAE_clean_linker_10, # of connection points: 2
#     Edge 31, Type (0, 0), BuildingBlock: TEMPAE_clean_linker_10, # of connection points: 2
#     Edge 32, Type (0, 0), BuildingBlock: TEMPAE_clean_linker_10, # of connection points: 2
#     Edge 33, Type (0, 0), BuildingBlock: TEMPAE_clean_linker_10, # of connection points: 2
#     Edge 34, Type (0, 0), BuildingBlock: TEMPAE_clean_linker_10, # of connection points: 2
#     Edge 35, Type (0, 0), BuildingBlock: TEMPAE_clean_linker_10, # of connection points: 2
#     Edge 36, Type (0, 0), BuildingBlock: TEMPAE_clean_linker_10, # of connection points: 2
#     Edge 37, Type (0, 0), BuildingBlock: TEMPAE_clean_linker_10, # of connection points: 2
#     Edge 38, Type (0, 0), BuildingBlock: TEMPAE_clean_linker_10, # of connection points: 2
#     Edge 39, Type (0, 0), BuildingBlock: TEMPAE_clean_linker_10, # of connection points: 2
#     Edge 40, Type (0, 0), BuildingBlock: TEMPAE_clean_linker_10, # of connection points: 2
#     Edge 41, Type (0, 0), BuildingBlock: TEMPAE_clean_linker_10, # of connection points: 2
#     Edge 42, Type (0, 0), BuildingBlock: TEMPAE_clean_linker_10, # of connection points: 2
#     Edge 43, Type (0, 0), BuildingBlock: TEMPAE_clean_linker_10, # of connection points: 2
#     Edge 44, Type (0, 0), BuildingBlock: TEMPAE_clean_linker_10, # of connection points: 2
#     Edge 45, Type (0, 0), BuildingBlock: TEMPAE_clean_linker_10, # of connection points: 2
#     Edge 46, Type (0, 0), BuildingBlock: TEMPAE_clean_linker_10, # of connection points: 2
#     Edge 47, Type (0, 0), BuildingBlock: TEMPAE_clean_linker_10, # of connection points: 2
#     Edge 48, Type (0, 0), BuildingBlock: TEMPAE_clean_linker_10, # of connection points: 2
#     Edge 49, Type (0, 0), BuildingBlock: TEMPAE_clean_linker_10, # of connection points: 2
#     Edge 50, Type (0, 0), BuildingBlock: TEMPAE_clean_linker_10, # of connection points: 2
#     Edge 51, Type (0, 0), BuildingBlock: TEMPAE_clean_linker_10, # of connection points: 2
#     Edge 52, Type (0, 0), BuildingBlock: TEMPAE_clean_linker_10, # of connection points: 2
#     Edge 53, Type (0, 0), BuildingBlock: TEMPAE_clean_linker_10, # of connection points: 2
#     Edge 54, Type (0, 0), BuildingBlock: TEMPAE_clean_linker_10, # of connection points: 2
#     Edge 55, Type (0, 0), BuildingBlock: TEMPAE_clean_linker_10, # of connection points: 2
#     Edge 56, Type (0, 0), BuildingBlock: TEMPAE_clean_linker_10, # of connection points: 2
#     Edge 57, Type (0, 0), BuildingBlock: TEMPAE_clean_linker_10, # of connection points: 2
#     Edge 58, Type (0, 0), BuildingBlock: TEMPAE_clean_linker_10, # of connection points: 2
#     Edge 59, Type (0, 0), BuildingBlock: TEMPAE_clean_linker_10, # of connection points: 2
#     Edge 60, Type (0, 0), BuildingBlock: TEMPAE_clean_linker_10, # of connection points: 2
#     Edge 61, Type (0, 0), BuildingBlock: TEMPAE_clean_linker_10, # of connection points: 2
#     Edge 62, Type (0, 0), BuildingBlock: TEMPAE_clean_linker_10, # of connection points: 2
#     Edge 63, Type (0, 0), BuildingBlock: TEMPAE_clean_linker_10, # of connection points: 2
# Relax obj value: 0.463
# Max RMSD: 0.278
# Mean RMSD: 0.278
data_MOF--net-whe--node1-IZENUY_clean_sbu_0--edge1-TEMPAE_clean_linker_10
_symmetry_space_group_name_H-M    P1
_symmetry_Int_Tables_number       1
_symmetry_cell_setting            triclinic
loop_
_symmetry_equiv_pos_as_xyz
'x, y, z'
_cell_length_a     34.03241
_cell_length_b     33.980598
_cell_length_c     55.207295
_cell_angle_alpha  90.001447
_cell_angle_beta   90.157095
_cell_angle_gamma 90.058606
loop_
_atom_site_label
_atom_site_type_symbol
_atom_site_fract_x
_atom_site_fract_y
_atom_site_fract_z
_atom_type_partial_charge
Fe0 Fe 0.10224 0.23817 0.15006 0.0
Fe1 Fe 0.056 0.31065 0.13453 0.0
O2 O 0.10078 0.28953 0.1442 0.0
Fe3 Fe 0.14406 0.31787 0.14721 0.0
O4 O 0.15094 0.30284 0.17943 0.0
O5 O 0.1448 0.24003 0.17101 0.0
O6 O 0.07133 0.24529 0.17584 0.0
C7 C 0.03971 0.26469 0.17518 0.0
C8 C 0.16688 0.24759 0.12271 0.0
O9 O 0.02738 0.27933 0.15537 0.0
C10 C 0.11247 0.34545 0.10393 0.0
O11 O 0.05948 0.22462 0.1312 0.0
O12 O 0.05232 0.27672 0.10937 0.0
O13 O 0.176 0.27682 0.13628 0.0
O14 O 0.13348 0.23148 0.12423 0.0
C15 C 0.08174 0.37128 0.16266 0.0
O16 O 0.07825 0.34523 0.11287 0.0
O17 O 0.14159 0.33258 0.11565 0.0
C18 C 0.0444 0.24126 0.11296 0.0
O19 O 0.05578 0.34618 0.15826 0.0
O20 O 0.11777 0.36444 0.15722 0.0
C21 C 0.15614 0.26688 0.18538 0.0
Fe22 Fe 0.69886 0.14075 0.1417 0.0
Fe23 Fe 0.76571 0.08308 0.15556 0.0
O24 O 0.71933 0.09297 0.14223 0.0
Fe25 Fe 0.69167 0.05374 0.12939 0.0
O26 O 0.64368 0.07668 0.13267 0.0
O27 O 0.65498 0.12288 0.15893 0.0
O28 O 0.72123 0.1577 0.17078 0.0
C29 C 0.74127 0.14107 0.18738 0.0
C30 C 0.68542 0.10907 0.09468 0.0
O31 O 0.75337 0.10621 0.18449 0.0
C32 C 0.76819 0.02958 0.11868 0.0
O33 O 0.7409 0.16037 0.125 0.0
O34 O 0.7881 0.12837 0.14468 0.0
O35 O 0.69747 0.07486 0.09976 0.0
O36 O 0.67537 0.13305 0.11143 0.0
C37 C 0.7142 0.02552 0.17317 0.0
O38 O 0.7842 0.05928 0.12816 0.0
O39 O 0.7329 0.0219 0.12316 0.0
C40 C 0.77684 0.15446 0.12986 0.0
O41 O 0.74904 0.03599 0.16816 0.0
O42 O 0.68579 0.03285 0.15913 0.0
C43 C 0.6324 0.09622 0.15055 0.0
Fe44 Fe 0.88434 0.69303 0.15129 0.0
Fe45 Fe 0.94003 0.76228 0.15991 0.0
O46 O 0.93254 0.71309 0.15071 0.0
Fe47 Fe 0.97332 0.68558 0.14004 0.0
O48 O 0.96553 0.64746 0.16179 0.0
O49 O 0.90134 0.64121 0.1586 0.0
O50 O 0.87764 0.7035 0.18424 0.0
C51 C 0.87902 0.73859 0.19255 0.0
C52 C 0.91304 0.66818 0.10659 0.0
O53 O 0.89777 0.76447 0.18073 0.0
C54 C 0.99661 0.75574 0.12254 0.0
O55 O 0.86065 0.74069 0.1428 0.0
O56 O 0.91121 0.77931 0.13489 0.0
O57 O 0.94578 0.65956 0.11614 0.0
O58 O 0.88604 0.68373 0.1189 0.0
C59 C 0.99972 0.72467 0.18218 0.0
O60 O 0.98399 0.77128 0.14172 0.0
O61 O 0.98555 0.72168 0.11707 0.0
C62 C 0.87579 0.76993 0.13161 0.0
O63 O 0.96953 0.74585 0.18471 0.0
O64 O 1.00729 0.70661 0.16261 0.0
C65 C 0.93508 0.62743 0.16463 0.0
Fe66 Fe 0.32752 0.88352 0.15327 0.0
Fe67 Fe 0.25397 0.93514 0.15601 0.0
O68 O 0.3046 0.93011 0.14992 0.0
Fe69 Fe 0.33126 0.9714 0.13947 0.0
O70 O 0.36567 0.96775 0.16396 0.0
O71 O 0.37733 0.90443 0.16151 0.0
O72 O 0.31396 0.88009 0.18587 0.0
C73 C 0.278 0.88009 0.19257 0.0
C74 C 0.35603 0.90978 0.1091 0.0
O75 O 0.25222 0.89531 0.17876 0.0
C76 C 0.26363 0.98899 0.11691 0.0
O77 O 0.28274 0.85558 0.14431 0.0
O78 O 0.24241 0.90192 0.13157 0.0
O79 O 0.36247 0.94319 0.11851 0.0
O80 O 0.33995 0.88278 0.12126 0.0
C81 C 0.28408 1.00002 0.17773 0.0
O82 O 0.2452 0.9765 0.13521 0.0
O83 O 0.29861 0.97866 0.11397 0.0
C84 C 0.25414 0.86674 0.13102 0.0
O85 O 0.26442 0.96875 0.1803 0.0
O86 O 0.3047 1.00636 0.15899 0.0
C87 C 0.388 0.93918 0.16766 0.0
Fe88 Fe 0.09145 0.77873 0.37675 0.0
Fe89 Fe 0.04974 0.70385 0.39258 0.0
O90 O 0.09332 0.72747 0.383 0.0
Fe91 Fe 0.13859 0.70211 0.38055 0.0
O92 O 0.1461 0.71789 0.34861 0.0
O93 O 0.13493 0.77984 0.35679 0.0
O94 O 0.06213 0.76904 0.35057 0.0
C95 C 0.03201 0.74725 0.35085 0.0
C96 C 0.15498 0.77375 0.40568 0.0
O97 O 0.01991 0.73204 0.37057 0.0
C98 C 0.10805 0.67301 0.42393 0.0
O99 O 0.04718 0.78985 0.39446 0.0
O100 O 0.04288 0.73851 0.41708 0.0
O101 O 0.16698 0.74516 0.39245 0.0
O102 O 0.12085 0.78779 0.40309 0.0
C103 C 0.08023 0.64482 0.36451 0.0
O104 O 0.07351 0.67222 0.4153 0.0
O105 O 0.13643 0.68624 0.41178 0.0
C106 C 0.0328 0.77315 0.41278 0.0
O107 O 0.0523 0.66711 0.36972 0.0
O108 O 0.11582 0.65434 0.36961 0.0
C109 C 0.14932 0.75405 0.34282 0.0
Fe110 Fe 0.32506 0.13963 0.3816 0.0
Fe111 Fe 0.25623 0.08164 0.37093 0.0
O112 O 0.30394 0.09207 0.38218 0.0
Fe113 Fe 0.33262 0.05263 0.39401 0.0
O114 O 0.38027 0.076 0.39126 0.0
O115 O 0.36886 0.1208 0.36458 0.0
O116 O 0.30323 0.15485 0.35183 0.0
C117 C 0.27889 0.13889 0.33713 0.0
C118 C 0.33807 0.10757 0.42919 0.0
O119 O 0.26397 0.10568 0.34189 0.0
C120 C 0.2588 0.02778 0.40761 0.0
O121 O 0.28372 0.16176 0.39768 0.0
O122 O 0.23431 0.12597 0.38315 0.0
O123 O 0.32756 0.07279 0.4239 0.0
O124 O 0.34752 0.1324 0.41254 0.0
C125 C 0.30783 0.02739 0.34998 0.0
O126 O 0.24133 0.05719 0.39901 0.0
O127 O 0.29246 0.01955 0.4002 0.0
C128 C 0.24739 0.15458 0.39536 0.0
O129 O 0.27312 0.03541 0.35697 0.0
O130 O 0.33724 0.03357 0.36359 0.0
C131 C 0.3917 0.09491 0.37331 0.0
Fe132 Fe 0.93229 0.25519 0.36505 0.0
Fe133 Fe 0.96789 0.33155 0.3844 0.0
O134 O 0.92654 0.30518 0.37331 0.0
Fe135 Fe 0.8794 0.32746 0.37119 0.0
O136 O 0.87462 0.31618 0.33843 0.0
O137 O 0.89178 0.25426 0.3428 0.0
O138 O 0.96421 0.2691 0.34086 0.0
C139 C 0.99489 0.28952 0.34359 0.0
C140 C 0.8655 0.25171 0.39136 0.0
O141 O 1.00215 0.30817 0.36302 0.0
C142 C 0.9063 0.35389 0.41588 0.0
O143 O 0.97454 0.24503 0.38472 0.0
O144 O 0.97743 0.29609 0.40822 0.0
O145 O 0.85291 0.28134 0.37944 0.0
O146 O 0.90062 0.2404 0.3894 0.0
C147 C 0.9334 0.39036 0.35826 0.0
O148 O 0.94022 0.35965 0.40714 0.0
O149 O 0.87943 0.33829 0.40336 0.0
C150 C 0.98729 0.26132 0.4037 0.0
O151 O 0.96279 0.36909 0.36189 0.0
O152 O 0.89893 0.37818 0.36376 0.0
C153 C 0.87587 0.2811 0.33025 0.0
Fe154 Fe 0.7699 0.92736 0.37173 0.0
Fe155 Fe 0.69507 0.9695 0.38699 0.0
O156 O 0.71932 0.92549 0.37888 0.0
Fe157 Fe 0.6944 0.87954 0.37873 0.0
O158 O 0.70708 0.87035 0.34625 0.0
O159 O 0.76959 0.8834 0.35208 0.0
O160 O 0.7595 0.95643 0.34537 0.0
C161 C 0.74091 0.98857 0.34609 0.0
C162 C 0.76807 0.86425 0.40132 0.0
O163 O 0.72181 0.99931 0.36466 0.0
C164 C 0.66831 0.91436 0.42134 0.0
O165 O 0.78141 0.97203 0.38912 0.0
O166 O 0.72956 0.97994 0.41115 0.0
O167 O 0.73855 0.85174 0.38919 0.0
O168 O 0.781 0.89868 0.39822 0.0
C169 C 0.63515 0.93496 0.36212 0.0
O170 O 0.66432 0.94675 0.41029 0.0
O171 O 0.68215 0.88446 0.41077 0.0
C172 C 0.76465 0.98839 0.40681 0.0
O173 O 0.65865 0.96319 0.36379 0.0
O174 O 0.64515 0.90074 0.36962 0.0
C175 C 0.74284 0.86762 0.33932 0.0
Fe176 Fe 0.94044 0.79803 0.87484 0.0
Fe177 Fe 0.98329 0.72638 0.894 0.0
O178 O 0.93973 0.74756 0.88271 0.0
Fe179 Fe 0.89562 0.71975 0.88014 0.0
O180 O 0.8902 0.73149 0.84722 0.0
O181 O 0.90015 0.79477 0.85254 0.0
O182 O 0.9741 0.78815 0.85051 0.0
C183 C 1.00682 0.77133 0.85365 0.0
C184 C 0.8733 0.79342 0.90071 0.0
O185 O 0.01533 0.75508 0.8737 0.0
C186 C 0.92507 0.69545 0.92481 0.0
O187 O 0.98132 0.81237 0.895 0.0
O188 O 0.98636 0.76169 0.91841 0.0
O189 O 0.86407 0.76259 0.88863 0.0
O190 O 0.90709 0.80847 0.89909 0.0
C191 C 0.95747 0.66369 0.8679 0.0
O192 O 0.9591 0.69393 0.91578 0.0
O193 O 0.89624 0.70777 0.91249 0.0
C194 C 0.99447 0.79696 0.91421 0.0
O195 O 0.98309 0.68977 0.87083 0.0
O196 O 0.92132 0.67157 0.87249 0.0
C197 C 0.88748 0.76685 0.8394 0.0
Fe198 Fe 0.34127 0.87935 0.8806 0.0
Fe199 Fe 0.28058 0.9395 0.8614 0.0
O200 O 0.32464 0.92816 0.87691 0.0
Fe201 Fe 0.35415 0.967 0.88872 0.0
O202 O 0.40003 0.93963 0.88912 0.0
O203 O 0.38791 0.89195 0.86418 0.0
O204 O 0.32009 0.85969 0.85156 0.0
C205 C 0.30184 0.8753 0.83376 0.0
C206 C 0.35212 0.91677 0.92658 0.0
O207 O 0.29287 0.91129 0.8345 0.0
C208 C 0.2792 0.9982 0.89508 0.0
O209 O 0.29659 0.86524 0.89659 0.0
O210 O 0.25347 0.89806 0.87404 0.0
O211 O 0.34337 0.95097 0.91916 0.0
O212 O 0.36205 0.88978 0.91149 0.0
C213 C 0.33911 0.98857 0.84224 0.0
O214 O 0.26206 0.96842 0.88667 0.0
O215 O 0.31517 1.0032 0.89121 0.0
C216 C 0.26164 0.87327 0.89042 0.0
O217 O 0.3029 0.9827 0.84669 0.0
O218 O 0.36519 0.98232 0.85812 0.0
C219 C 0.41171 0.91764 0.87249 0.0
Fe220 Fe 0.13604 0.32915 0.87886 0.0
Fe221 Fe 0.08136 0.25835 0.87146 0.0
O222 O 0.08835 0.30813 0.87964 0.0
Fe223 Fe 0.04733 0.33581 0.88924 0.0
O224 O 0.05489 0.3719 0.86601 0.0
O225 O 0.11823 0.38028 0.87124 0.0
O226 O 0.14236 0.31749 0.84605 0.0
C227 C 0.14179 0.28195 0.83841 0.0
C228 C 0.10656 0.35678 0.92243 0.0
O229 O 0.12353 0.25602 0.85052 0.0
C230 C 0.02467 0.26742 0.90886 0.0
O231 O 0.16057 0.28237 0.88759 0.0
O232 O 0.11119 0.24288 0.89669 0.0
O233 O 0.0743 0.36428 0.91201 0.0
O234 O 0.13418 0.34004 0.91121 0.0
C235 C 0.02139 0.29475 0.8482 0.0
O236 O 0.03743 0.25007 0.89021 0.0
O237 O 0.03651 0.30156 0.91334 0.0
C238 C 0.14693 0.25238 0.89871 0.0
O239 O 0.05142 0.27317 0.84616 0.0
O240 O 1.0134 0.31208 0.86789 0.0
C241 C 0.08477 0.39311 0.86415 0.0
Fe242 Fe 0.77536 0.11073 0.87015 0.0
Fe243 Fe 0.70304 0.06491 0.88598 0.0
O244 O 0.72411 0.10935 0.87569 0.0
Fe245 Fe 0.69553 0.15245 0.87192 0.0
O246 O 0.71025 0.15798 0.83987 0.0
O247 O 0.77322 0.15136 0.84788 0.0
O248 O 0.769 0.07783 0.84532 0.0
C249 C 0.7513 0.04534 0.84683 0.0
C250 C 0.76522 0.17708 0.89617 0.0
O251 O 0.73478 0.03466 0.86636 0.0
C252 C 0.66785 0.12271 0.91535 0.0
O253 O 0.78871 0.06954 0.89033 0.0
O254 O 0.73609 0.06292 0.91163 0.0
O255 O 0.73618 0.18542 0.88232 0.0
O256 O 0.7817 0.14386 0.89512 0.0
C257 C 0.64363 0.08902 0.8565 0.0
O258 O 0.66776 0.08826 0.9066 0.0
O259 O 0.68073 0.15141 0.90332 0.0
C260 C 0.77159 0.05494 0.90853 0.0
O261 O 0.66866 0.06338 0.86162 0.0
O262 O 0.64951 0.1252 0.86211 0.0
C263 C 0.746 0.16205 0.83357 0.0
Fe264 Fe 0.93747 0.28197 0.66155 0.0
Fe265 Fe 0.96341 0.35538 0.63363 0.0
O266 O 0.92536 0.32621 0.64646 0.0
Fe267 Fe 0.87659 0.34341 0.6442 0.0
O268 O 0.85932 0.32267 0.67368 0.0
O269 O 0.91185 0.29494 0.68934 0.0
O270 O 0.98219 0.30351 0.67493 0.0
C271 C 0.9896 0.33961 0.67902 0.0
C272 C 0.86831 0.26362 0.63485 0.0
O273 O 0.98147 0.36604 0.6637 0.0
C274 C 0.91034 0.35354 0.59732 0.0
O275 O 0.96394 0.26305 0.63536 0.0
O276 O 0.99873 0.31598 0.63002 0.0
O277 O 0.86041 0.29869 0.62871 0.0
O278 O 0.89461 0.25536 0.6503 0.0
C279 C 0.91622 0.41353 0.65145 0.0
O280 O 0.94495 0.34471 0.60377 0.0
O281 O 0.88467 0.364 0.61305 0.0
C282 C 0.99328 0.27997 0.62627 0.0
O283 O 0.93653 0.40167 0.63409 0.0
O284 O 0.89109 0.38987 0.66037 0.0
C285 C 0.87622 0.30474 0.6911 0.0
Fe286 Fe 0.78076 0.93694 0.65156 0.0
Fe287 Fe 0.70646 0.97848 0.63438 0.0
O288 O 0.72984 0.93514 0.64472 0.0
Fe289 Fe 0.70455 0.88983 0.64747 0.0
O290 O 0.71895 0.8842 0.68 0.0
O291 O 0.78114 0.89413 0.67221 0.0
O292 O 0.77051 0.96702 0.67711 0.0
C293 C 0.75046 0.99817 0.67602 0.0
C294 C 0.77736 0.87206 0.6241 0.0
O295 O 0.73323 1.00915 0.65664 0.0
C296 C 0.67709 0.91909 0.60324 0.0
O297 O 0.79272 0.98072 0.63349 0.0
O298 O 0.74191 0.98558 0.61039 0.0
O299 O 0.74811 0.86087 0.637 0.0
O300 O 0.79047 0.90673 0.62572 0.0
C301 C 0.64629 0.94822 0.66168 0.0
O302 O 0.67587 0.95387 0.61145 0.0
O303 O 0.69034 0.89091 0.61571 0.0
C304 C 0.77657 0.99524 0.61501 0.0
O305 O 0.66883 0.9761 0.65663 0.0
O306 O 0.65616 0.91257 0.65708 0.0
C307 C 0.75493 0.88096 0.68631 0.0
Fe308 Fe 0.08946 0.75909 0.66613 0.0
Fe309 Fe 0.05895 0.68415 0.6417 0.0
O310 O 0.09892 0.71253 0.65299 0.0
Fe311 Fe 0.14665 0.69235 0.65118 0.0
O312 O 0.16543 0.7143 0.68004 0.0
O313 O 0.11546 0.74811 0.6943 0.0
O314 O 0.04417 0.74142 0.68066 0.0
C315 C 0.03527 0.70629 0.68645 0.0
C316 C 0.15918 0.77067 0.63879 0.0
O317 O 0.04159 0.67776 0.6723 0.0
C318 C 0.11073 0.6798 0.60494 0.0
O319 O 0.06294 0.77643 0.63924 0.0
O320 O 0.02567 0.72469 0.63691 0.0
O321 O 0.16523 0.73464 0.63423 0.0
O322 O 0.13318 0.78208 0.65355 0.0
C323 C 0.10368 0.62515 0.66087 0.0
O324 O 0.07677 0.69074 0.61135 0.0
O325 O 0.13659 0.66971 0.62075 0.0
C326 C 0.03317 0.7593 0.63068 0.0
O327 O 0.0831 0.63665 0.64353 0.0
O328 O 0.13032 0.64806 0.66881 0.0
C329 C 0.1502 0.73545 0.69664 0.0
Fe330 Fe 0.32525 0.04877 0.6396 0.0
Fe331 Fe 0.32059 0.1361 0.65513 0.0
O332 O 0.2986 0.08904 0.65163 0.0
Fe333 Fe 0.2487 0.08211 0.65919 0.0
O334 O 0.26251 0.04802 0.68265 0.0
O335 O 0.30011 1.01235 0.65863 0.0
O336 O 0.36135 0.05156 0.66337 0.0
C337 C 0.38251 0.08083 0.66802 0.0
C338 C 0.25623 0.03127 0.61851 0.0
O339 O 0.37075 0.11569 0.66283 0.0
C340 C 0.24535 0.15087 0.63462 0.0
O341 O 0.35517 0.07833 0.61871 0.0
O342 O 0.33222 0.13819 0.62303 0.0
O343 O 0.23948 0.04154 0.6379 0.0
O344 O 0.2909 0.04232 0.61474 0.0
C345 C 0.27273 0.13844 0.69527 0.0
O346 O 0.27486 0.16293 0.64687 0.0
O347 O 0.23421 0.11553 0.63568 0.0
C348 C 0.34869 0.11232 0.61024 0.0
O349 O 0.30825 0.13927 0.68789 0.0
O350 O 0.24696 0.12122 0.68241 0.0
C351 C 0.28251 0.01736 0.6786 0.0
C352 C 0.18909 0.20609 0.0888 0.0
C353 C 0.19721 0.22308 0.11141 0.0
C354 C 0.20579 0.16991 0.08228 0.0
C355 C 0.23021 0.15017 0.0991 0.0
C356 C 0.24276 0.17001 0.12039 0.0
C357 C 0.2263 0.20666 0.12618 0.0
C358 C 0.19314 0.15071 0.05889 0.0
C359 C 0.26915 0.15025 0.13873 0.0
C360 C 0.21416 0.04244 0.11244 0.0
C361 C 0.25026 0.0262 0.10552 0.0
C362 C 0.20621 0.08245 0.10886 0.0
C363 C 0.23479 0.1067 0.09764 0.0
C364 C 0.26914 0.08952 0.08793 0.0
C365 C 0.27655 0.04938 0.09202 0.0
C366 C 0.16871 0.09936 0.11913 0.0
C367 C 0.29966 0.11394 0.07505 0.0
H368 H 0.16659 0.21902 0.07735 0.0
H369 H 0.23241 0.21978 0.1437 0.0
H370 H 0.21727 0.13295 0.05101 0.0
H371 H 0.16805 0.13068 0.06247 0.0
H372 H 0.18347 0.17297 0.04539 0.0
H373 H 0.28078 0.17147 0.15229 0.0
H374 H 0.25224 0.12724 0.14848 0.0
H375 H 0.29422 0.13563 0.12965 0.0
H376 H 0.19333 0.02465 0.12247 0.0
H377 H 0.30435 0.03705 0.08622 0.0
H378 H 0.15303 0.11682 0.10517 0.0
H379 H 0.17585 0.11946 0.13438 0.0
H380 H 0.14851 0.07616 0.1259 0.0
H381 H 0.28592 0.13779 0.06424 0.0
H382 H 0.31802 0.09553 0.06291 0.0
H383 H 0.31932 0.12782 0.08866 0.0
C384 C 0.99288 0.18889 0.11094 0.0
C385 C 1.00664 0.22574 0.10329 0.0
C386 C 0.95293 0.17906 0.10901 0.0
C387 C 0.92616 0.20675 0.09918 0.0
C388 C 0.94064 0.24182 0.08868 0.0
C389 C 0.98081 0.25084 0.09073 0.0
C390 C 0.93889 0.14074 0.11981 0.0
C391 C 0.91329 0.27174 0.07755 0.0
C392 C 0.82144 0.16841 0.09558 0.0
C393 C 0.80785 0.17823 0.11871 0.0
C394 C 0.85908 0.18012 0.08794 0.0
C395 C 0.88337 0.2019 0.10396 0.0
C396 C 0.8681 0.21478 0.12648 0.0
C397 C 0.83059 0.20246 0.13365 0.0
C398 C 0.87398 0.16601 0.06374 0.0
C399 C 0.89267 0.23854 0.14403 0.0
H400 H 1.01268 0.16895 0.12023 0.0
H401 H 0.99116 0.27916 0.08432 0.0
H402 H 0.92355 0.14674 0.13714 0.0
H403 H 0.91762 0.12605 0.10752 0.0
H404 H 0.96356 0.12019 0.1235 0.0
H405 H 0.9293 0.29271 0.06569 0.0
H406 H 0.88983 0.25717 0.06681 0.0
H407 H 0.89888 0.28876 0.09219 0.0
H408 H 0.80405 0.14885 0.0843 0.0
H409 H 0.82017 0.20934 0.15172 0.0
H410 H 0.89229 0.13937 0.0665 0.0
H411 H 0.89261 0.18862 0.05492 0.0
H412 H 0.84941 0.1582 0.05135 0.0
H413 H 0.91667 0.21988 0.15137 0.0
H414 H 0.87507 0.24979 0.15946 0.0
H415 H 0.90649 0.26389 0.13466 0.0
C416 C 0.86717 0.81956 0.09953 0.0
C417 C 0.85166 0.80019 0.11981 0.0
C418 C 0.85428 0.85726 0.09305 0.0
C419 C 0.82536 0.87588 0.10733 0.0
C420 C 0.80668 0.85466 0.12624 0.0
C421 C 0.82006 0.81681 0.13225 0.0
C422 C 0.87442 0.8784 0.07249 0.0
C423 C 0.77516 0.87332 0.14162 0.0
C424 C 0.82569 0.98485 0.12118 0.0
C425 C 0.7916 0.99678 0.10905 0.0
C426 C 0.83906 0.9459 0.11919 0.0
C427 C 0.81783 0.91873 0.10465 0.0
C428 C 0.78638 0.93209 0.09009 0.0
C429 C 0.77364 0.97108 0.09246 0.0
C430 C 0.87342 0.93291 0.13457 0.0
C431 C 0.76353 0.9044 0.07396 0.0
H432 H 0.89174 0.80653 0.08996 0.0
H433 H 0.80846 0.80201 0.1481 0.0
H434 H 0.85319 0.89609 0.0618 0.0
H435 H 0.89672 0.89892 0.08 0.0
H436 H 0.88956 0.85752 0.06016 0.0
H437 H 0.76074 0.85163 0.15377 0.0
H438 H 0.78837 0.89687 0.15296 0.0
H439 H 0.7524 0.88716 0.13001 0.0
H440 H 0.83946 1.00457 0.13412 0.0
H441 H 0.74728 0.98045 0.08299 0.0
H442 H 0.89421 0.91507 0.12372 0.0
H443 H 0.86265 0.91411 0.1496 0.0
H444 H 0.88957 0.95829 0.14249 0.0
H445 H 0.78345 0.88393 0.0643 0.0
H446 H 0.74558 0.9206 0.0604 0.0
H447 H 0.74345 0.88638 0.08524 0.0
C448 C 0.21127 0.80827 0.13514 0.0
C449 C 0.22666 0.83806 0.12049 0.0
C450 C 0.17548 0.79017 0.12912 0.0
C451 C 0.15535 0.80177 0.10774 0.0
C452 C 0.1737 0.82789 0.09133 0.0
C453 C 0.20894 0.84631 0.09812 0.0
C454 C 0.15702 0.76234 0.14714 0.0
C455 C 0.15416 0.83969 0.06787 0.0
C456 C 0.05908 0.74712 0.09905 0.0
C457 C 0.03345 0.77154 0.11212 0.0
C458 C 0.09857 0.75791 0.09557 0.0
C459 C 0.11255 0.79362 0.1056 0.0
C460 C 0.08577 0.82006 0.11654 0.0
C461 C 0.0465 0.80885 0.11941 0.0
C462 C 0.12579 0.72963 0.08291 0.0
C463 C 0.09922 0.85876 0.12725 0.0
H464 H 0.22489 0.80217 0.15253 0.0
H465 H 0.22113 0.86928 0.08674 0.0
H466 H 0.13232 0.77741 0.15639 0.0
H467 H 0.14484 0.73612 0.13781 0.0
H468 H 0.17837 0.75243 0.16112 0.0
H469 H 0.17588 0.85134 0.05469 0.0
H470 H 0.13842 0.81445 0.05957 0.0
H471 H 0.13229 0.86314 0.07149 0.0
H472 H 0.04919 0.71837 0.09307 0.0
H473 H 0.02668 0.82819 0.12911 0.0
H474 H 0.14137 0.71156 0.09664 0.0
H475 H 0.14827 0.74554 0.07216 0.0
H476 H 0.10934 0.70941 0.07075 0.0
H477 H 0.11935 0.85311 0.14272 0.0
H478 H 0.07428 0.8769 0.13383 0.0
H479 H 0.11572 0.87607 0.11362 0.0
C480 C 0.20267 0.9817 0.41108 0.0
C481 C 0.2379 0.99637 0.42048 0.0
C482 C 0.19121 0.94283 0.41596 0.0
C483 C 0.2156 0.91868 0.43065 0.0
C484 C 0.24822 0.93528 0.44276 0.0
C485 C 0.25906 0.97408 0.43746 0.0
C486 C 0.15552 0.92638 0.40318 0.0
C487 C 0.27433 0.91101 0.45906 0.0
C488 C 0.1699 0.81886 0.43925 0.0
C489 C 0.18259 0.80011 0.41804 0.0
C490 C 0.18365 0.85646 0.44533 0.0
C491 C 0.21054 0.87533 0.42971 0.0
C492 C 0.22764 0.85402 0.4103 0.0
C493 C 0.21349 0.81631 0.40474 0.0
C494 C 0.16561 0.87756 0.46661 0.0
C495 C 0.25718 0.87282 0.39353 0.0
H496 H 0.18647 0.9989 0.39786 0.0
H497 H 0.28629 0.98572 0.44482 0.0
H498 H 0.16507 0.90616 0.38854 0.0
H499 H 0.13718 0.90916 0.41594 0.0
H500 H 0.13714 0.94992 0.39499 0.0
H501 H 0.29157 0.92992 0.47161 0.0
H502 H 0.25698 0.88965 0.46983 0.0
H503 H 0.2953 0.89407 0.44779 0.0
H504 H 0.14597 0.80607 0.44956 0.0
H505 H 0.22308 0.80189 0.38826 0.0
H506 H 0.1407 0.89584 0.46014 0.0
H507 H 0.18713 0.89739 0.47554 0.0
H508 H 0.15412 0.85642 0.48022 0.0
H509 H 0.24212 0.89492 0.38197 0.0
H510 H 0.27144 0.85084 0.38153 0.0
H511 H 0.28028 0.88838 0.40402 0.0
C512 C 0.19858 0.20698 0.38966 0.0
C513 C 0.21797 0.18136 0.40545 0.0
C514 C 0.16211 0.22317 0.39582 0.0
C515 C 0.14464 0.2132 0.4183 0.0
C516 C 0.16595 0.19019 0.43523 0.0
C517 C 0.20239 0.17413 0.42847 0.0
C518 C 0.14061 0.2477 0.37721 0.0
C519 C 0.14886 0.17949 0.45953 0.0
C520 C 0.05008 0.26988 0.42703 0.0
C521 C 0.02342 0.24504 0.41495 0.0
C522 C 0.08937 0.25841 0.4306 0.0
C523 C 0.10206 0.22141 0.42186 0.0
C524 C 0.07411 0.19452 0.41241 0.0
C525 C 0.0351 0.20663 0.40918 0.0
C526 C 0.11795 0.28741 0.44151 0.0
C527 C 0.08615 0.15443 0.40324 0.0
H528 H 0.21051 0.21183 0.3717 0.0
H529 H 0.21722 0.15363 0.44045 0.0
H530 H 0.1153 0.23073 0.36994 0.0
H531 H 0.12882 0.27486 0.3856 0.0
H532 H 0.15982 0.25614 0.36182 0.0
H533 H 0.17217 0.17075 0.47259 0.0
H534 H 0.13192 0.20435 0.46728 0.0
H535 H 0.12845 0.15426 0.45731 0.0
H536 H 0.04129 0.2995 0.43187 0.0
H537 H 0.0145 0.18699 0.40026 0.0
H538 H 0.13426 0.3024 0.42678 0.0
H539 H 0.13977 0.27225 0.4532 0.0
H540 H 0.10262 0.3102 0.45237 0.0
H541 H 0.10357 0.15787 0.3864 0.0
H542 H 0.06037 0.13543 0.39918 0.0
H543 H 0.10498 0.13924 0.41672 0.0
C544 C 0.8161 0.0406 0.4064 0.0
C545 C 0.78021 0.02673 0.41545 0.0
C546 C 0.82603 0.08055 0.40782 0.0
C547 C 0.79975 0.10726 0.41898 0.0
C548 C 0.76561 0.09281 0.43054 0.0
C549 C 0.75615 0.05264 0.4286 0.0
C550 C 0.86314 0.09456 0.39555 0.0
C551 C 0.73752 0.12005 0.44334 0.0
C552 C 0.84884 0.20623 0.42469 0.0
C553 C 0.83842 0.22333 0.40249 0.0
C554 C 0.83276 0.17007 0.43188 0.0
C555 C 0.80658 0.15027 0.4161 0.0
C556 C 0.79286 0.16953 0.39489 0.0
C557 C 0.80881 0.20618 0.38841 0.0
C558 C 0.8471 0.15131 0.45504 0.0
C559 C 0.76481 0.14952 0.3776 0.0
H560 H 0.83521 0.02076 0.39655 0.0
H561 H 0.72854 0.0422 0.43598 0.0
H562 H 0.8554 0.11337 0.37981 0.0
H563 H 0.88094 0.1127 0.40818 0.0
H564 H 0.88157 0.06978 0.38902 0.0
H565 H 0.718 0.10375 0.45595 0.0
H566 H 0.75359 0.14305 0.45365 0.0
H567 H 0.71881 0.13512 0.42972 0.0
H568 H 0.87183 0.21967 0.43556 0.0
H569 H 0.80116 0.21926 0.37111 0.0
H570 H 0.87068 0.12988 0.45079 0.0
H571 H 0.82308 0.13507 0.46421 0.0
H572 H 0.85931 0.17357 0.46775 0.0
H573 H 0.78032 0.12528 0.36813 0.0
H574 H 0.75313 0.17019 0.36375 0.0
H575 H 0.73979 0.13637 0.38757 0.0
C576 C 0.97815 0.8219 0.41282 0.0
C577 C 0.9943 0.787 0.42199 0.0
C578 C 0.93797 0.82993 0.41516 0.0
C579 C 0.91341 0.8027 0.42735 0.0
C580 C 0.93022 0.7696 0.43892 0.0
C581 C 0.97055 0.76206 0.43608 0.0
C582 C 0.92137 0.86602 0.40284 0.0
C583 C 0.9053 0.74053 0.45271 0.0
C584 C 0.81349 0.84821 0.43477 0.0
C585 C 0.79572 0.83695 0.41291 0.0
C586 C 0.85035 0.83328 0.44147 0.0
C587 C 0.87004 0.80741 0.42554 0.0
C588 C 0.85002 0.79242 0.40493 0.0
C589 C 0.81273 0.80719 0.39896 0.0
C590 C 0.86997 0.8489 0.46406 0.0
C591 C 0.86989 0.76467 0.38747 0.0
H592 H 0.99632 0.84166 0.40225 0.0
H593 H 0.98278 0.7352 0.44353 0.0
H594 H 0.90176 0.85692 0.38774 0.0
H595 H 0.90348 0.88338 0.41576 0.0
H596 H 0.94472 0.88539 0.3954 0.0
H597 H 0.92335 0.72217 0.46512 0.0
H598 H 0.88233 0.75577 0.4634 0.0
H599 H 0.89024 0.72069 0.43969 0.0
H600 H 0.80022 0.87136 0.44552 0.0
H601 H 0.79912 0.79887 0.38192 0.0
H602 H 0.89005 0.87333 0.4591 0.0
H603 H 0.88775 0.82576 0.47306 0.0
H604 H 0.84808 0.86042 0.47716 0.0
H605 H 0.89249 0.78102 0.37706 0.0
H606 H 0.84871 0.75151 0.37442 0.0
H607 H 0.88499 0.74064 0.39739 0.0
C608 C 0.81494 0.83591 0.89587 0.0
C609 C 0.8434 0.81951 0.91114 0.0
C610 C 0.7985 0.87281 0.9012 0.0
C611 C 0.81073 0.89323 0.92236 0.0
C612 C 0.83527 0.8741 0.93938 0.0
C613 C 0.8516 0.83749 0.93344 0.0
C614 C 0.77192 0.89194 0.88272 0.0
C615 C 0.84816 0.89418 0.96245 0.0
C616 C 0.82252 1.0022 0.91027 0.0
C617 C 0.7865 0.01712 0.91841 0.0
C618 C 0.83171 0.9622 0.9128 0.0
C619 C 0.80441 0.9365 0.92402 0.0
C620 C 0.76999 0.9521 0.9346 0.0
C621 C 0.76145 0.99229 0.93173 0.0
C622 C 0.86927 0.94695 0.9017 0.0
C623 C 0.74061 0.92598 0.94724 0.0
H624 H 0.80903 0.82225 0.87848 0.0
H625 H 0.87384 0.82477 0.94518 0.0
H626 H 0.74666 0.9064 0.8917 0.0
H627 H 0.78854 0.91503 0.87285 0.0
H628 H 0.76057 0.87036 0.86928 0.0
H629 H 0.85911 0.87263 0.976 0.0
H630 H 0.87233 0.91506 0.95833 0.0
H631 H 0.82374 0.91127 0.97055 0.0
H632 H 0.84234 0.02117 0.90028 0.0
H633 H 0.7337 1.00351 0.9384 0.0
H634 H 0.86214 0.92761 0.88609 0.0
H635 H 0.88584 0.92905 0.91505 0.0
H636 H 0.88862 0.9711 0.89524 0.0
H637 H 0.72247 0.91054 0.93347 0.0
H638 H 0.72065 0.94322 0.95907 0.0
H639 H 0.75557 0.90324 0.95834 0.0
C640 C 0.05746 0.78787 0.93686 0.0
C641 C 0.03126 0.8131 0.92472 0.0
C642 C 0.09767 0.79679 0.93824 0.0
C643 C 0.1116 0.83204 0.92771 0.0
C644 C 0.08438 0.86034 0.91913 0.0
C645 C 0.04443 0.85046 0.91763 0.0
C646 C 0.12556 0.7662 0.94809 0.0
C647 C 0.09791 0.89909 0.9087 0.0
C648 C 0.21867 0.86395 0.92618 0.0
C649 C 0.22839 0.85401 0.90232 0.0
C650 C 0.18129 0.85501 0.9355 0.0
C651 C 0.15354 0.83554 0.92053 0.0
C652 C 0.16467 0.82274 0.89707 0.0
C653 C 0.20185 0.83263 0.88816 0.0
C654 C 0.17069 0.86933 0.9605 0.0
C655 C 0.13636 0.80111 0.88063 0.0
H656 H 0.0475 0.75923 0.94298 0.0
H657 H 0.02422 0.87056 0.90881 0.0
H658 H 0.13801 0.74913 0.93278 0.0
H659 H 0.15039 0.7801 0.95795 0.0
H660 H 0.11039 0.74534 0.96043 0.0
H661 H 0.07334 0.92044 0.90704 0.0
H662 H 0.12135 0.91227 0.92011 0.0
H663 H 0.11032 0.89407 0.89038 0.0
H664 H 0.23915 0.88124 0.93688 0.0
H665 H 0.2095 0.82544 0.86961 0.0
H666 H 0.15094 0.84833 0.96988 0.0
H667 H 0.15495 0.8978 0.95893 0.0
H668 H 0.19731 0.87412 0.97184 0.0
H669 H 0.12283 0.77594 0.89033 0.0
H670 H 0.15091 0.78983 0.86403 0.0
H671 H 0.1123 0.82121 0.87505 0.0
C672 C 0.22108 0.04235 0.89305 0.0
C673 C 0.25663 0.03201 0.90409 0.0
C674 C 0.20456 0.07959 0.89696 0.0
C675 C 0.22368 0.10648 0.91274 0.0
C676 C 0.25761 0.09468 0.92562 0.0
C677 C 0.27402 0.05767 0.92088 0.0
C678 C 0.16843 0.09124 0.88273 0.0
C679 C 0.27806 0.12195 0.94319 0.0
C680 C 0.20702 0.21201 0.89384 0.0
C681 C 0.17351 0.22125 0.90731 0.0
C682 C 0.22535 0.17534 0.89653 0.0
C683 C 0.21032 0.148 0.91356 0.0
C684 C 0.17927 0.1591 0.92908 0.0
C685 C 0.16084 0.19552 0.92555 0.0
C686 C 0.25844 0.16454 0.87961 0.0
C687 C 0.16333 0.13132 0.94799 0.0
H688 H 0.20785 0.02261 0.87992 0.0
H689 H 0.30147 0.04945 0.92953 0.0
H690 H 0.14561 0.10314 0.89501 0.0
H691 H 0.17614 0.11487 0.86969 0.0
H692 H 0.1557 0.06612 0.87248 0.0
H693 H 0.29899 0.10588 0.95507 0.0
H694 H 0.29471 0.14454 0.93295 0.0
H695 H 0.25641 0.13756 0.9547 0.0
H696 H 0.21668 0.23181 0.87965 0.0
H697 H 0.13497 0.20286 0.93604 0.0
H698 H 0.24893 0.14014 0.86757 0.0
H699 H 0.28419 0.15397 0.89008 0.0
H700 H 0.26777 0.18972 0.86813 0.0
H701 H 0.14507 0.10845 0.93906 0.0
H702 H 0.14481 0.14691 0.96147 0.0
H703 H 0.18759 0.11611 0.95765 0.0
C704 C 0.9691 0.2198 0.91094 0.0
C705 C 0.98619 0.25506 0.91885 0.0
C706 C 0.92871 0.21309 0.91353 0.0
C707 C 0.90488 0.24225 0.92452 0.0
C708 C 0.92264 0.27578 0.93505 0.0
C709 C 0.96321 0.28179 0.93214 0.0
C710 C 0.91114 0.17627 0.90259 0.0
C711 C 0.8986 0.30701 0.94754 0.0
C712 C 0.80674 0.23626 0.8936 0.0
C713 C 0.78865 0.20777 0.90804 0.0
C714 C 0.84327 0.25207 0.90038 0.0
C715 C 0.86146 0.23909 0.92211 0.0
C716 C 0.84006 0.21541 0.9385 0.0
C717 C 0.8038 0.19977 0.93116 0.0
C718 C 0.86473 0.27811 0.88264 0.0
C719 C 0.85761 0.20211 0.96224 0.0
H720 H 0.98673 0.19867 0.90106 0.0
H721 H 0.97617 0.30896 0.93869 0.0
H722 H 0.89209 0.16114 0.91594 0.0
H723 H 0.89252 0.18427 0.8868 0.0
H724 H 0.93398 0.15524 0.8964 0.0
H725 H 0.91683 0.32445 0.96037 0.0
H726 H 0.88654 0.32747 0.93374 0.0
H727 H 0.8735 0.29402 0.95752 0.0
H728 H 0.79509 0.24222 0.87566 0.0
H729 H 0.78958 0.17771 0.94234 0.0
H730 H 0.88756 0.26059 0.8732 0.0
H731 H 0.87973 0.30261 0.89219 0.0
H732 H 0.84455 0.29061 0.86878 0.0
H733 H 0.87698 0.17641 0.95897 0.0
H734 H 0.83443 0.19304 0.97523 0.0
H735 H 0.8757 0.22569 0.97058 0.0
C736 C 0.7653 0.06132 0.59621 0.0
C737 C 0.79153 0.03345 0.60584 0.0
C738 C 0.77547 0.10137 0.59508 0.0
C739 C 0.81288 0.11359 0.60342 0.0
C740 C 0.84109 0.08494 0.61017 0.0
C741 C 0.83001 0.0452 0.6114 0.0
C742 C 0.7447 0.13084 0.58745 0.0
C743 C 0.88174 0.09658 0.61853 0.0
C744 C 0.85118 0.21882 0.60077 0.0
C745 C 0.84587 0.23046 0.62487 0.0
C746 C 0.83858 0.18147 0.59289 0.0
C747 C 0.82019 0.15566 0.60957 0.0
C748 C 0.81226 0.16879 0.63344 0.0
C749 C 0.82563 0.20588 0.64085 0.0
C750 C 0.84772 0.16865 0.56736 0.0
C751 C 0.7921 0.14263 0.65175 0.0
H752 H 0.73554 0.05258 0.59164 0.0
H753 H 0.85064 0.02377 0.61848 0.0
H754 H 0.73166 0.14443 0.60384 0.0
H755 H 0.75783 0.15479 0.57647 0.0
H756 H 0.72071 0.11676 0.57686 0.0
H757 H 0.90193 0.07094 0.61936 0.0
H758 H 0.8945 0.11906 0.60628 0.0
H759 H 0.87992 0.10973 0.6369 0.0
H760 H 0.86757 0.23772 0.5886 0.0
H761 H 0.82199 0.21497 0.65956 0.0
H762 H 0.82298 0.15166 0.55944 0.0
H763 H 0.87384 0.14915 0.56762 0.0
H764 H 0.85424 0.19417 0.55545 0.0
H765 H 0.7647 0.13014 0.64398 0.0
H766 H 0.78467 0.15869 0.66866 0.0
H767 H 0.81163 0.11765 0.6565 0.0
C768 C 0.98759 0.8163 0.62803 0.0
C769 C 1.00121 0.78071 0.61856 0.0
C770 C 0.94923 0.82913 0.62291 0.0
C771 C 0.92442 0.80571 0.60802 0.0
C772 C 0.93976 0.77217 0.5963 0.0
C773 C 0.97809 0.7601 0.60172 0.0
C774 C 0.93409 0.86568 0.6353 0.0
C775 C 0.91461 0.74674 0.58004 0.0
C776 C 0.81936 0.81352 0.62924 0.0
C777 C 0.80562 0.84371 0.61425 0.0
C778 C 0.85732 0.79832 0.62611 0.0
C779 C 0.88153 0.81361 0.60745 0.0
C780 C 0.86568 0.84025 0.59038 0.0
C781 C 0.82771 0.85497 0.59398 0.0
C782 C 0.87291 0.76921 0.64442 0.0
C783 C 0.89015 0.85673 0.56999 0.0
H784 H 1.00535 0.83204 0.64118 0.0
H785 H 0.98885 0.73255 0.59434 0.0
H786 H 0.91836 0.88475 0.62216 0.0
H787 H 0.91282 0.8572 0.64959 0.0
H788 H 0.95813 0.88299 0.64383 0.0
H789 H 0.93272 0.72687 0.56865 0.0
H790 H 0.89494 0.72835 0.59137 0.0
H791 H 0.89577 0.76496 0.56807 0.0
H792 H 0.80244 0.80509 0.64503 0.0
H793 H 0.81694 0.87843 0.58241 0.0
H794 H 0.89438 0.78415 0.65649 0.0
H795 H 0.8885 0.7448 0.6352 0.0
H796 H 0.84914 0.75663 0.65581 0.0
H797 H 0.90967 0.88015 0.57723 0.0
H798 H 0.87148 0.86979 0.55555 0.0
H799 H 0.90909 0.83373 0.56187 0.0
C800 C 0.2039 0.82711 0.64326 0.0
C801 C 0.18372 0.80142 0.62786 0.0
C802 C 0.21873 0.8629 0.6347 0.0
C803 C 0.21257 0.87353 0.61013 0.0
C804 C 0.19478 0.84624 0.59405 0.0
C805 C 0.18047 0.81028 0.60316 0.0
C806 C 0.23813 0.89068 0.6525 0.0
C807 C 0.18792 0.85613 0.56775 0.0
C808 C 0.20262 0.98347 0.60992 0.0
C809 C 0.24189 0.99475 0.60676 0.0
C810 C 0.19135 0.9439 0.60794 0.0
C811 C 0.22015 0.91503 0.60279 0.0
C812 C 0.25843 0.92702 0.59607 0.0
C813 C 0.26888 0.96692 0.59803 0.0
C814 C 0.1498 0.93259 0.61446 0.0
C815 C 0.2897 0.89734 0.58977 0.0
H816 H 0.20606 0.82014 0.66241 0.0
H817 H 0.16424 0.79051 0.59138 0.0
H818 H 0.26638 0.90169 0.64516 0.0
H819 H 0.21886 0.91654 0.65555 0.0
H820 H 0.24391 0.87646 0.67028 0.0
H821 H 0.18422 0.82911 0.55663 0.0
H822 H 0.16066 0.87381 0.56608 0.0
H823 H 0.21245 0.87382 0.56025 0.0
H824 H 0.18146 1.00498 0.61623 0.0
H825 H 0.29926 0.97538 0.59523 0.0
H826 H 0.14941 0.92024 0.63307 0.0
H827 H 0.13848 0.90963 0.60198 0.0
H828 H 0.12965 0.95828 0.6139 0.0
H829 H 0.30204 0.88481 0.60673 0.0
H830 H 0.31411 0.9111 0.57946 0.0
H831 H 0.27729 0.87272 0.57899 0.0
C832 C 0.19563 0.16723 0.60363 0.0
C833 C 0.21682 0.17853 0.62431 0.0
C834 C 0.1597 0.18499 0.59792 0.0
C835 C 0.14462 0.21421 0.61354 0.0
C836 C 0.1679 0.22848 0.63301 0.0
C837 C 0.20407 0.21053 0.63809 0.0
C838 C 0.13632 0.16974 0.57662 0.0
C839 C 0.15291 0.25993 0.64995 0.0
C840 C 0.05427 0.27576 0.6021 0.0
C841 C 0.02703 0.25723 0.61736 0.0
C842 C 0.09209 0.26042 0.59905 0.0
C843 C 0.1028 0.22601 0.61179 0.0
C844 C 0.07418 0.20513 0.62532 0.0
C845 C 0.03637 0.22093 0.62782 0.0
C846 C 0.1214 0.28288 0.58391 0.0
C847 C 0.08445 0.16797 0.63894 0.0
H848 H 0.20576 0.14243 0.59296 0.0
H849 H 0.22035 0.21894 0.6542 0.0
H850 H 0.11337 0.14918 0.58321 0.0
H851 H 0.12128 0.19411 0.56698 0.0
H852 H 0.15522 0.15367 0.56357 0.0
H853 H 0.17614 0.27063 0.66251 0.0
H854 H 0.1413 0.28532 0.63955 0.0
H855 H 0.12836 0.24787 0.66089 0.0
H856 H 0.04683 0.30372 0.5938 0.0
H857 H 0.01537 0.20663 0.63966 0.0
H858 H 0.13972 0.26253 0.57303 0.0
H859 H 0.14139 0.29965 0.59602 0.0
H860 H 0.10669 0.30403 0.57152 0.0
H861 H 0.09949 0.14679 0.62682 0.0
H862 H 0.05809 0.15345 0.64673 0.0
H863 H 0.10504 0.17514 0.65394 0.0
C864 C 0.20647 0.22316 0.20586 0.0
C865 C 0.17934 0.25436 0.20759 0.0
C866 C 0.22536 0.20695 0.22651 0.0
C867 C 0.2163 0.221 0.25009 0.0
C868 C 0.18921 0.25285 0.25196 0.0
C869 C 0.1716 0.26932 0.23082 0.0
C870 C 0.2544 0.17385 0.22305 0.0
C871 C 0.17691 0.26819 0.27642 0.0
C872 C 0.23018 0.14689 0.30254 0.0
C873 C 0.26457 0.16 0.31443 0.0
C874 C 0.21413 0.16667 0.28221 0.0
C875 C 0.23299 0.20047 0.27256 0.0
C876 C 0.26805 0.21368 0.28419 0.0
C877 C 0.283 0.19382 0.30502 0.0
C878 C 0.17637 0.15152 0.27122 0.0
C879 C 0.28995 0.24887 0.27451 0.0
H880 H 0.21271 0.21092 0.18815 0.0
H881 H 0.15023 0.29262 0.2326 0.0
H882 H 0.28203 0.18024 0.23303 0.0
H883 H 0.24221 0.14614 0.23056 0.0
H884 H 0.2615 0.16895 0.20365 0.0
H885 H 0.16207 0.29718 0.27504 0.0
H886 H 0.15615 0.24698 0.28477 0.0
H887 H 0.20253 0.27107 0.28875 0.0
H888 H 0.215 0.12122 0.30947 0.0
H889 H 0.30941 0.20463 0.31379 0.0
H890 H 0.18114 0.14326 0.25202 0.0
H891 H 0.15379 0.17507 0.27146 0.0
H892 H 0.16468 0.12547 0.281 0.0
H893 H 0.29813 0.24368 0.25532 0.0
H894 H 0.31703 0.25529 0.28507 0.0
H895 H 0.27068 0.27518 0.2749 0.0
C896 C 0.87477 0.24541 0.29019 0.0
C897 C 0.85483 0.26839 0.30743 0.0
C898 C 0.8549 0.22687 0.27066 0.0
C899 C 0.81343 0.23004 0.26834 0.0
C900 C 0.79306 0.25326 0.28574 0.0
C901 C 0.81392 0.27244 0.30477 0.0
C902 C 0.87842 0.2034 0.25258 0.0
C903 C 0.74886 0.25604 0.28508 0.0
C904 C 0.76383 0.20509 0.20693 0.0
C905 C 0.75588 0.16453 0.20899 0.0
C906 C 0.78234 0.22659 0.22587 0.0
C907 C 0.79166 0.20797 0.24824 0.0
C908 C 0.78218 0.16737 0.25074 0.0
C909 C 0.76599 0.14607 0.23096 0.0
C910 C 0.79364 0.26892 0.22147 0.0
C911 C 0.78989 0.146 0.27424 0.0
H912 H 0.90619 0.24134 0.29226 0.0
H913 H 0.79788 0.28882 0.31837 0.0
H914 H 0.86658 0.17315 0.25083 0.0
H915 H 0.87603 0.2174 0.23447 0.0
H916 H 0.9099 0.20125 0.25768 0.0
H917 H 0.73721 0.27568 0.29944 0.0
H918 H 0.73883 0.26711 0.26721 0.0
H919 H 0.73601 0.22625 0.28748 0.0
H920 H 0.75743 0.21973 0.18993 0.0
H921 H 0.76131 0.1147 0.23272 0.0
H922 H 0.82603 0.2721 0.22294 0.0
H923 H 0.78045 0.28818 0.23546 0.0
H924 H 0.78419 0.27946 0.20332 0.0
H925 H 0.82183 0.14055 0.27632 0.0
H926 H 0.77451 0.11723 0.27498 0.0
H927 H 0.78031 0.16409 0.28989 0.0
C928 C 0.83103 0.72842 0.22854 0.0
C929 C 0.85553 0.7528 0.21447 0.0
C930 C 0.80911 0.74355 0.24857 0.0
C931 C 0.81124 0.78422 0.25498 0.0
C932 C 0.83569 0.80877 0.2407 0.0
C933 C 0.8572 0.79301 0.22103 0.0
C934 C 0.78375 0.71587 0.26303 0.0
C935 C 0.83963 0.85209 0.24636 0.0
C936 C 0.73584 0.83883 0.29617 0.0
C937 C 0.75632 0.84197 0.31828 0.0
C938 C 0.75243 0.81899 0.27577 0.0
C939 C 0.79034 0.80113 0.27729 0.0
C940 C 0.81016 0.80292 0.29993 0.0
C941 C 0.79327 0.82323 0.31975 0.0
C942 C 0.72997 0.81863 0.25222 0.0
C943 C 0.8503 0.78468 0.30306 0.0
H944 H 0.82894 0.69749 0.22396 0.0
H945 H 0.87562 0.81279 0.21066 0.0
H946 H 0.79449 0.71458 0.28201 0.0
H947 H 0.75311 0.72698 0.26355 0.0
H948 H 0.78364 0.68561 0.25542 0.0
H949 H 0.8584 0.8678 0.23306 0.0
H950 H 0.81024 0.8662 0.24653 0.0
H951 H 0.85261 0.85595 0.26466 0.0
H952 H 0.70765 0.85335 0.29442 0.0
H953 H 0.80969 0.82503 0.33657 0.0
H954 H 0.72894 0.78839 0.24466 0.0
H955 H 0.74526 0.83751 0.23882 0.0
H956 H 0.69946 0.82964 0.25439 0.0
H957 H 0.85001 0.75368 0.29676 0.0
H958 H 0.86047 0.78533 0.3222 0.0
H959 H 0.87198 0.80079 0.29181 0.0
C960 C 0.22232 0.85455 0.21867 0.0
C961 C 0.26323 0.85833 0.21492 0.0
C962 C 0.20635 0.83486 0.23897 0.0
C963 C 0.23141 0.81803 0.25671 0.0
C964 C 0.27279 0.82123 0.25308 0.0
C965 C 0.28813 0.84111 0.23236 0.0
C966 C 0.16221 0.8327 0.24159 0.0
C967 C 0.30096 0.80399 0.27131 0.0
C968 C 0.18525 0.80798 0.32014 0.0
C969 C 0.17303 0.76829 0.32119 0.0
C970 C 0.20543 0.82374 0.29995 0.0
C971 C 0.21386 0.79974 0.27959 0.0
C972 C 0.2024 0.75938 0.28063 0.0
C973 C 0.18252 0.74416 0.30133 0.0
C974 C 0.21674 0.86673 0.3002 0.0
C975 C 0.2102 0.7324 0.25952 0.0
H976 H 0.2022 0.86719 0.20558 0.0
H977 H 0.31964 0.84343 0.22997 0.0
H978 H 0.15272 0.80167 0.24382 0.0
H979 H 0.15302 0.84888 0.25808 0.0
H980 H 0.14653 0.8454 0.22575 0.0
H981 H 0.33204 0.80661 0.26542 0.0
H982 H 0.2976 0.81927 0.28894 0.0
H983 H 0.29404 0.77246 0.27435 0.0
H984 H 0.17876 0.82726 0.33525 0.0
H985 H 0.17356 0.71357 0.30167 0.0
H986 H 0.20019 0.88267 0.28591 0.0
H987 H 0.24846 0.87013 0.29611 0.0
H988 H 0.21065 0.88096 0.31792 0.0
H989 H 0.19266 0.74207 0.24363 0.0
H990 H 0.20254 0.70133 0.26365 0.0
H991 H 0.24162 0.73396 0.25429 0.0
C992 C 0.74919 0.85834 0.73077 0.0
C993 C 0.76873 0.85779 0.70833 0.0
C994 C 0.76594 0.84062 0.75187 0.0
C995 C 0.80298 0.82097 0.75076 0.0
C996 C 0.82187 0.81911 0.72788 0.0
C997 C 0.80491 0.83755 0.70733 0.0
C998 C 0.74464 0.84424 0.77565 0.0
C999 C 0.86106 0.7988 0.72517 0.0
C1000 C 0.87038 0.81724 0.8072 0.0
C1001 C 0.86637 0.77839 0.816 0.0
C1002 C 0.84986 0.83113 0.78655 0.0
C1003 C 0.82396 0.80597 0.77361 0.0
C1004 C 0.81992 0.76648 0.7821 0.0
C1005 C 0.84104 0.7532 0.803 0.0
C1006 C 0.8566 0.873 0.7784 0.0
C1007 C 0.7931 0.73817 0.76908 0.0
H1008 H 0.72164 0.87415 0.73212 0.0
H1009 H 0.82059 0.83656 0.69027 0.0
H1010 H 0.73936 0.81457 0.78339 0.0
H1011 H 0.76314 0.86065 0.7888 0.0
H1012 H 0.71605 0.85969 0.77373 0.0
H1013 H 0.87009 0.79615 0.70592 0.0
H1014 H 0.88398 0.81566 0.73505 0.0
H1015 H 0.85998 0.76893 0.73327 0.0
H1016 H 0.88992 0.83736 0.81657 0.0
H1017 H 0.83719 0.72327 0.80933 0.0
H1018 H 0.82831 0.88772 0.77433 0.0
H1019 H 0.8741 0.87294 0.76148 0.0
H1020 H 0.87263 0.89066 0.79219 0.0
H1021 H 0.76277 0.75011 0.76867 0.0
H1022 H 0.79256 0.70871 0.77779 0.0
H1023 H 0.80273 0.73477 0.75001 0.0
C1024 C 0.21597 0.7477 0.71805 0.0
C1025 C 0.17461 0.74982 0.71802 0.0
C1026 C 0.23907 0.76553 0.73658 0.0
C1027 C 0.22082 0.78546 0.75624 0.0
C1028 C 0.17907 0.78647 0.75672 0.0
C1029 C 0.15681 0.7696 0.73758 0.0
C1030 C 0.28323 0.76447 0.73456 0.0
C1031 C 0.15765 0.80631 0.77725 0.0
C1032 C 0.279 0.81002 0.81506 0.0
C1033 C 0.28574 0.8508 0.8129 0.0
C1034 C 0.2585 0.7884 0.79687 0.0
C1035 C 0.245 0.80736 0.77539 0.0
C1036 C 0.25314 0.84814 0.77276 0.0
C1037 C 0.27226 0.8692 0.79156 0.0
C1038 C 0.24983 0.74543 0.80111 0.0
C1039 C 0.24067 0.87015 0.75028 0.0
H1040 H 0.23053 0.7334 0.70301 0.0
H1041 H 0.1251 0.77214 0.73793 0.0
H1042 H 0.29466 0.7949 0.73252 0.0
H1043 H 0.29632 0.75215 0.75134 0.0
H1044 H 0.29324 0.74668 0.71887 0.0
H1045 H 0.12574 0.79947 0.77709 0.0
H1046 H 0.17008 0.79706 0.79495 0.0
H1047 H 0.16135 0.83865 0.77578 0.0
H1048 H 0.28815 0.79524 0.83152 0.0
H1049 H 0.27644 0.90058 0.78956 0.0
H1050 H 0.26086 0.72754 0.78577 0.0
H1051 H 0.21755 0.74091 0.80202 0.0
H1052 H 0.26326 0.73438 0.81816 0.0
H1053 H 0.24672 0.85263 0.73375 0.0
H1054 H 0.25598 0.89888 0.74864 0.0
H1055 H 0.20858 0.8757 0.75097 0.0
C1056 C 0.1709 0.28609 0.79539 0.0
C1057 C 0.16765 0.26713 0.81796 0.0
C1058 C 0.19085 0.26808 0.77554 0.0
C1059 C 0.20881 0.23034 0.77816 0.0
C1060 C 0.20693 0.21212 0.80127 0.0
C1061 C 0.18636 0.23033 0.82051 0.0
C1062 C 0.19124 0.28878 0.7514 0.0
C1063 C 0.22546 0.17237 0.80555 0.0
C1064 C 0.21812 0.15972 0.72363 0.0
C1065 C 0.25821 0.16177 0.71713 0.0
C1066 C 0.20201 0.18218 0.74279 0.0
C1067 C 0.2261 0.20799 0.75654 0.0
C1068 C 0.26669 0.2103 0.75027 0.0
C1069 C 0.28216 0.18742 0.73078 0.0
C1070 C 0.1588 0.17796 0.7484 0.0
C1071 C 0.29389 0.23704 0.76423 0.0
H1072 H 0.1563 0.31413 0.79288 0.0
H1073 H 0.18434 0.21512 0.83772 0.0
H1074 H 0.22165 0.29031 0.74428 0.0
H1075 H 0.17347 0.27178 0.73815 0.0
H1076 H 0.17911 0.31906 0.75256 0.0
H1077 H 0.22371 0.16311 0.82482 0.0
H1078 H 0.21047 0.14985 0.79427 0.0
H1079 H 0.25679 0.1729 0.80006 0.0
H1080 H 0.19873 0.14038 0.71354 0.0
H1081 H 0.31298 0.1899 0.72615 0.0
H1082 H 0.14428 0.20716 0.74775 0.0
H1083 H 0.15503 0.16627 0.76702 0.0
H1084 H 0.14349 0.15794 0.73556 0.0
H1085 H 0.28275 0.2677 0.76358 0.0
H1086 H 0.32432 0.23653 0.75702 0.0
H1087 H 0.29462 0.22808 0.78355 0.0
C1088 C 0.81355 0.27764 0.70996 0.0
C1089 C 0.85302 0.28947 0.7125 0.0
C1090 C 0.79342 0.25748 0.72879 0.0
C1091 C 0.81226 0.25033 0.7514 0.0
C1092 C 0.85161 0.26362 0.75432 0.0
C1093 C 0.87166 0.28156 0.73475 0.0
C1094 C 0.75262 0.24194 0.72397 0.0
C1095 C 0.87316 0.25773 0.77797 0.0
C1096 C 0.74993 0.22385 0.80779 0.0
C1097 C 0.75772 0.18355 0.81086 0.0
C1098 C 0.76705 0.24578 0.78858 0.0
C1099 C 0.79202 0.22703 0.77145 0.0
C1100 C 0.79906 0.18603 0.77424 0.0
C1101 C 0.78235 0.16514 0.79391 0.0
C1102 C 0.76005 0.28955 0.78738 0.0
C1103 C 0.82428 0.16383 0.75644 0.0
H1104 H 0.79899 0.28213 0.6927 0.0
H1105 H 0.90234 0.28913 0.73683 0.0
H1106 H 0.75286 0.20932 0.72517 0.0
H1107 H 0.73191 0.25282 0.73791 0.0
H1108 H 0.74146 0.25056 0.70581 0.0
H1109 H 0.90159 0.27377 0.77848 0.0
H1110 H 0.85479 0.26787 0.79334 0.0
H1111 H 0.87913 0.22596 0.78074 0.0
H1112 H 0.73199 0.23871 0.82115 0.0
H1113 H 0.78904 0.13418 0.79627 0.0
H1114 H 0.74796 0.29778 0.76942 0.0
H1115 H 0.78842 0.30532 0.78957 0.0
H1116 H 0.73948 0.29982 0.80163 0.0
H1117 H 0.83438 0.13527 0.76396 0.0
H1118 H 0.85053 0.181 0.75104 0.0
H1119 H 0.80683 0.15805 0.7398 0.0
C1120 C 0.13705 0.32729 0.06322 0.0
C1121 C 0.11735 0.35445 0.07791 0.0
C1122 C 0.13739 0.33132 0.03791 0.0
C1123 C 0.11904 0.36435 0.02704 0.0
C1124 C 0.10119 0.39319 0.04199 0.0
C1125 C 0.0996 0.38735 0.06724 0.0
C1126 C 0.15516 0.29887 0.0228 0.0
C1127 C 0.08277 0.42964 0.03127 0.0
C1128 C 0.14321 0.37792 0.95997 0.0
C1129 C 0.1093 0.36273 0.94895 0.0
C1130 C 0.14596 0.38088 0.98541 0.0
C1131 C 0.11501 0.36626 1.00008 0.0
C1132 C 0.08079 0.35087 0.98888 0.0
C1133 C 0.07801 0.35026 0.96353 0.0
C1134 C 0.1821 0.3992 0.99659 0.0
C1135 C 0.04778 0.33327 1.00361 0.0
H1136 H 0.15022 0.30147 0.07145 0.0
H1137 H 0.08437 0.40835 0.07863 0.0
H1138 H 0.132 0.28515 1.01138 0.0
H1139 H 0.17771 0.31098 1.01041 0.0
H1140 H 0.16896 0.27555 0.03408 0.0
H1141 H 0.07623 0.45207 0.04532 0.0
H1142 H 0.10251 0.44286 0.01751 0.0
H1143 H 0.0549 0.42177 0.02201 0.0
H1144 H 0.16736 0.3877 0.94871 0.0
H1145 H 0.0519 0.33813 0.95509 0.0
H1146 H 0.19983 0.37624 1.00577 0.0
H1147 H 0.17357 0.42111 1.01053 0.0
H1148 H 0.20084 0.41393 0.98286 0.0
H1149 H 0.05926 0.3089 0.01499 0.0
H1150 H 0.02365 0.3216 0.99206 0.0
H1151 H 0.03537 0.35567 0.016 0.0
C1152 C 0.64661 0.14048 0.06105 0.0
C1153 C 0.67905 0.11846 0.06886 0.0
C1154 C 0.63887 0.14542 0.03615 0.0
C1155 C 0.6647 0.12866 0.01889 0.0
C1156 C 0.69833 0.1078 0.02685 0.0
C1157 C 0.70482 0.10264 0.05169 0.0
C1158 C 0.6025 0.1674 0.02831 0.0
C1159 C 0.72723 0.09026 1.00913 0.0
C1160 C 0.63943 0.099 0.95461 0.0
C1161 C 0.65847 0.12852 0.94131 0.0
C1162 C 0.63804 0.10055 0.98002 0.0
C1163 C 0.65686 0.1319 0.99241 0.0
C1164 C 0.67364 0.16316 0.97902 0.0
C1165 C 0.67388 0.16127 0.95364 0.0
C1166 C 0.61908 0.06706 0.99364 0.0
C1167 C 0.69464 0.19678 0.99142 0.0
H1168 H 0.62652 0.15247 0.07434 0.0
H1169 H 0.73014 0.08591 0.05774 0.0
H1170 H 0.61032 0.19125 0.01548 0.0
H1171 H 0.58239 0.14704 0.0186 0.0
H1172 H 0.58653 0.18041 0.04389 0.0
H1173 H 0.75294 0.07671 0.01834 0.0
H1174 H 0.71247 0.06733 0.99805 0.0
H1175 H 0.73802 0.11328 0.99653 0.0
H1176 H 0.6272 0.07375 0.94523 0.0
H1177 H 0.68885 0.1842 0.94357 0.0
H1178 H 0.601 0.0784 1.0088 0.0
H1179 H 0.64225 0.04799 1.00154 0.0
H1180 H 0.60022 0.0487 0.98167 0.0
H1181 H 0.67728 0.20798 1.00692 0.0
H1182 H 0.70058 0.22153 0.9788 0.0
H1183 H 0.72315 0.18614 0.99869 0.0
C1184 C 0.88626 0.66872 0.96023 0.0
C1185 C 0.92056 0.6859 0.95097 0.0
C1186 C 0.88232 0.66119 0.98529 0.0
C1187 C 0.91264 0.67271 1.00155 0.0
C1188 C 0.94713 0.69037 0.99217 0.0
C1189 C 0.95092 0.69601 0.96708 0.0
C1190 C 0.8457 0.64104 0.99438 0.0
C1191 C 0.97963 0.70459 1.00871 0.0
C1192 C 0.88952 0.69641 0.06748 0.0
C1193 C 0.90836 0.66562 0.07985 0.0
C1194 C 0.88977 0.69852 0.04204 0.0
C1195 C 0.908 0.66827 0.02843 0.0
C1196 C 0.92507 0.63588 0.04083 0.0
C1197 C 0.92588 0.6354 0.06639 0.0
C1198 C 0.87267 0.73444 0.02984 0.0
C1199 C 0.94362 0.60233 0.02711 0.0
H1200 H 0.86275 0.66076 0.94788 0.0
H1201 H 0.97732 0.70982 0.96012 0.0
H1202 H 0.85375 0.61548 1.00588 0.0
H1203 H 0.82858 0.6616 1.00582 0.0
H1204 H 0.82659 0.63067 0.97933 0.0
H1205 H 1.00409 0.71863 0.9986 0.0
H1206 H 0.96777 0.72625 0.02184 0.0
H1207 H 0.99167 0.67964 0.01932 0.0
H1208 H 0.87655 0.72026 0.07778 0.0
H1209 H 0.9405 0.61158 0.07585 0.0
H1210 H 0.85064 0.72566 0.01604 0.0
H1211 H 0.89632 0.7507 0.0203 0.0
H1212 H 0.85847 0.75476 0.04293 0.0
H1213 H 0.92392 0.59239 1.01226 0.0
H1214 H 0.95021 0.57687 0.03907 0.0
H1215 H 0.97146 0.61236 0.01873 0.0
C1216 C 0.34137 0.87531 0.06996 0.0
C1217 C 0.36303 0.90386 0.08271 0.0
C1218 C 0.3419 0.87367 0.04449 0.0
C1219 C 0.36528 0.90071 0.03132 0.0
C1220 C 0.38908 0.92799 0.04415 0.0
C1221 C 0.38732 0.92956 0.06963 0.0
C1222 C 0.31539 0.84468 0.03168 0.0
C1223 C 0.415 0.95688 0.03091 0.0
C1224 C 0.38153 0.88374 0.96343 0.0
C1225 C 0.35483 0.91048 0.95321 0.0
C1226 C 0.38549 0.88023 0.98881 0.0
C1227 C 0.36156 0.90333 1.0043 0.0
C1228 C 0.33379 0.92947 0.99396 0.0
C1229 C 0.33108 0.93298 0.96866 0.0
C1230 C 0.41585 0.85249 0.99907 0.0
C1231 C 0.30697 0.95401 1.00963 0.0
H1232 H 0.32211 0.8556 0.07981 0.0
H1233 H 0.40419 0.95167 0.07928 0.0
H1234 H 0.29157 0.86084 0.02219 0.0
H1235 H 0.332 0.82812 0.01776 0.0
H1236 H 0.30178 0.82335 0.04441 0.0
H1237 H 0.43537 0.97257 0.04337 0.0
H1238 H 0.43252 0.94155 0.01687 0.0
H1239 H 0.39646 0.97903 0.02155 0.0
H1240 H 0.40011 0.86643 0.95161 0.0
H1241 H 0.31007 0.95342 0.96091 0.0
H1242 H 0.40166 0.83086 1.0113 0.0
H1243 H 0.43745 0.86928 1.01008 0.0
H1244 H 0.43186 0.83627 0.98469 0.0
H1245 H 0.29008 0.93473 0.02205 0.0
H1246 H 0.28589 0.97171 0.99877 0.0
H1247 H 0.32465 0.97433 0.02101 0.0
C1248 C 0.08541 0.64509 0.4638 0.0
C1249 C 0.11471 0.66333 0.44992 0.0
C1250 C 0.08879 0.64248 0.48917 0.0
C1251 C 0.12185 0.65922 0.50102 0.0
C1252 C 0.15253 0.6756 0.487 0.0
C1253 C 0.14876 0.67711 0.46167 0.0
C1254 C 0.05576 0.62403 0.5034 0.0
C1255 C 0.18792 0.69448 0.49879 0.0
C1256 C 0.10111 0.70318 0.56287 0.0
C1257 C 0.11768 0.67542 0.57864 0.0
C1258 C 0.1032 0.69859 0.53769 0.0
C1259 C 0.12161 0.66484 0.52787 0.0
C1260 C 0.13912 0.63694 0.5437 0.0
C1261 C 0.13734 0.64279 0.56898 0.0
C1262 C 0.08504 0.72968 0.5216 0.0
C1263 C 0.15852 0.60035 0.53394 0.0
H1264 H 0.0591 0.63417 0.45494 0.0
H1265 H 0.17159 0.69147 0.45124 0.0
H1266 H 0.0676 0.60411 0.51757 0.0
H1267 H 0.03877 0.64742 0.51269 0.0
H1268 H 0.03534 0.60711 0.4916 0.0
H1269 H 0.21143 0.70118 0.48548 0.0
H1270 H 0.17892 0.72241 0.50758 0.0
H1271 H 0.20022 0.67516 0.5131 0.0
H1272 H 0.0861 0.72858 0.57032 0.0
H1273 H 0.1498 0.6211 0.58117 0.0
H1274 H 0.06045 0.71675 0.51103 0.0
H1275 H 0.10706 0.74069 0.50845 0.0
H1276 H 0.07359 0.75508 0.5321 0.0
H1277 H 0.13636 0.58204 0.52438 0.0
H1278 H 0.17225 0.58242 0.54849 0.0
H1279 H 0.18138 0.60831 0.52052 0.0
C1280 C 0.31669 0.09818 0.47174 0.0
C1281 C 0.34211 0.11686 0.45538 0.0
C1282 C 0.32123 0.10246 0.49684 0.0
C1283 C 0.35239 0.12569 0.50609 0.0
C1284 C 0.3776 0.14565 0.4897 0.0
C1285 C 0.37197 0.14126 0.46446 0.0
C1286 C 0.29309 0.08119 0.51346 0.0
C1287 C 0.4113 0.17045 0.49883 0.0
C1288 C 0.33787 0.15202 0.57244 0.0
C1289 C 0.35655 0.12039 0.58415 0.0
C1290 C 0.33851 0.15576 0.54705 0.0
C1291 C 0.3587 0.12749 0.53293 0.0
C1292 C 0.38012 0.09727 0.54477 0.0
C1293 C 0.37856 0.09391 0.57017 0.0
C1294 C 0.31494 0.1882 0.53531 0.0
C1295 C 0.40251 0.06679 0.53052 0.0
H1296 H 0.29324 0.07962 0.46484 0.0
H1297 H 0.3918 0.15559 0.45191 0.0
H1298 H 0.30927 0.05901 0.52433 0.0
H1299 H 0.27956 0.10227 0.52632 0.0
H1300 H 0.26924 0.06595 0.50336 0.0
H1301 H 0.42645 0.18632 0.48394 0.0
H1302 H 0.40069 0.19225 0.51225 0.0
H1303 H 0.43297 0.15138 0.50821 0.0
H1304 H 0.32064 0.17262 0.58298 0.0
H1305 H 0.39333 0.06953 0.57898 0.0
H1306 H 0.28806 0.17549 0.52698 0.0
H1307 H 0.332 0.20249 0.52064 0.0
H1308 H 0.3059 0.21103 0.54858 0.0
H1309 H 0.38145 0.04664 0.52143 0.0
H1310 H 0.42221 0.04897 0.54226 0.0
H1311 H 0.42038 0.08102 0.51619 0.0
C1312 C 0.86829 0.34292 0.4541 0.0
C1313 C 0.89912 0.36206 0.44197 0.0
C1314 C 0.86501 0.34452 0.47946 0.0
C1315 C 0.89285 0.36629 0.49309 0.0
C1316 C 0.92237 0.38791 0.48081 0.0
C1317 C 0.92538 0.38526 0.45545 0.0
C1318 C 0.83346 0.32051 0.49173 0.0
C1319 C 0.95229 0.41199 0.49458 0.0
C1320 C 0.87729 0.38397 0.56087 0.0
C1321 C 0.90228 0.35552 0.57094 0.0
C1322 C 0.87348 0.38778 0.53551 0.0
C1323 C 0.89456 0.36204 0.52002 0.0
C1324 C 0.9185 0.3323 0.53027 0.0
C1325 C 0.92229 0.32967 0.55549 0.0
C1326 C 0.84799 0.42008 0.52528 0.0
C1327 C 0.94085 0.30362 0.51457 0.0
H1328 H 0.84795 0.32469 0.44392 0.0
H1329 H 0.94913 0.40035 0.44626 0.0
H1330 H 0.84712 0.29489 0.50093 0.0
H1331 H 0.81837 0.33817 0.50581 0.0
H1332 H 0.81117 0.30941 0.47867 0.0
H1333 H 0.96972 0.4313 0.48242 0.0
H1334 H 0.93763 0.43053 0.50841 0.0
H1335 H 0.9728 0.39202 0.50424 0.0
H1336 H 0.86195 0.40414 0.57275 0.0
H1337 H 0.94132 0.30733 0.56321 0.0
H1338 H 0.82636 0.4077 0.51228 0.0
H1339 H 0.86652 0.44128 0.51513 0.0
H1340 H 0.83192 0.43629 0.53964 0.0
H1341 H 0.92045 0.28852 0.5019 0.0
H1342 H 0.95653 0.28097 0.5254 0.0
H1343 H 0.96273 0.31971 0.50347 0.0
C1344 C 0.63549 0.92878 0.56601 0.0
C1345 C 0.6687 0.91254 0.57722 0.0
C1346 C 0.63011 0.92593 0.54073 0.0
C1347 C 0.65966 0.9083 0.52625 0.0
C1348 C 0.69303 0.89148 0.53766 0.0
C1349 C 0.69667 0.89308 0.563 0.0
C1350 C 0.59334 0.94275 0.52947 0.0
C1351 C 0.72614 0.87395 0.52304 0.0
C1352 C 0.64703 0.87991 0.45962 0.0
C1353 C 0.66152 0.9135 0.44789 0.0
C1354 C 0.64406 0.87857 0.4851 0.0
C1355 C 0.65782 0.91074 0.49918 0.0
C1356 C 0.67233 0.94471 0.4873 0.0
C1357 C 0.67314 0.94597 0.46189 0.0
C1358 C 0.62682 0.8425 0.49696 0.0
C1359 C 0.68889 0.97909 0.5014 0.0
H1360 H 0.61386 0.94387 0.57699 0.0
H1361 H 0.72273 0.8811 0.57163 0.0
H1362 H 0.60056 0.97021 0.51958 0.0
H1363 H 0.58072 0.92176 0.51615 0.0
H1364 H 0.57068 0.94966 0.54328 0.0
H1365 H 0.74971 0.86147 0.53468 0.0
H1366 H 0.71487 0.85036 0.51101 0.0
H1367 H 0.73921 0.89696 0.51127 0.0
H1368 H 0.63799 0.85476 0.44888 0.0
H1369 H 0.6849 0.97183 0.45296 0.0
H1370 H 0.60473 0.85117 0.51072 0.0
H1371 H 0.65027 0.82593 0.50649 0.0
H1372 H 0.61264 0.82256 0.48359 0.0
H1373 H 0.6662 0.99139 0.5136 0.0
H1374 H 0.69964 1.00302 0.4894 0.0
H1375 H 0.71367 0.96899 0.51294 0.0
C1376 C 0.99512 0.27593 0.21002 0.0
C1377 C 0.02978 0.28426 0.1977 0.0
C1378 C 0.9913 0.28761 0.23423 0.0
C1379 C 0.02309 0.30713 0.24573 0.0
C1380 C 0.0554 0.32031 0.23224 0.0
C1381 C 0.05875 0.30791 0.2084 0.0
C1382 C 0.95488 0.27644 0.24806 0.0
C1383 C 0.08766 0.34479 0.24351 0.0
C1384 C 1.00917 0.33484 0.31089 0.0
C1385 C 0.01683 0.29866 0.32191 0.0
C1386 C 1.01244 0.33913 0.28587 0.0
C1387 C 0.02595 0.30688 0.2722 0.0
C1388 C 0.03961 0.27231 0.28387 0.0
C1389 C 0.03368 0.26811 0.30873 0.0
C1390 C 0.99816 0.37692 0.27445 0.0
C1391 C 0.0574 0.23858 0.26986 0.0
H1392 H 0.97255 0.25818 0.20142 0.0
H1393 H 0.08524 0.31476 0.19857 0.0
H1394 H 0.96158 0.25092 0.25989 0.0
H1395 H 0.94534 0.30108 0.25987 0.0
H1396 H 0.93035 0.26846 0.2357 0.0
H1397 H 0.11028 0.35368 0.2301 0.0
H1398 H 0.075 0.37178 0.25165 0.0
H1399 H 0.102 0.32803 0.25833 0.0
H1400 H 0.9962 0.35819 0.32137 0.0
H1401 H 0.03946 0.24013 0.3175 0.0
H1402 H 1.00036 0.3775 0.25443 0.0
H1403 H 0.01554 0.40183 0.2818 0.0
H1404 H 0.96701 0.38195 0.27949 0.0
H1405 H 0.03422 0.22379 0.25899 0.0
H1406 H 0.07113 0.2164 0.28201 0.0
H1407 H 0.08009 0.24964 0.25714 0.0
C1408 C 0.69556 1.01317 0.31548 0.0
C1409 C 0.73432 1.00917 0.32347 0.0
C1410 C 0.68736 0.01768 0.29094 0.0
C1411 C 0.71895 0.02175 0.27467 0.0
C1412 C 0.75814 0.02387 0.28329 0.0
C1413 C 0.76552 0.0159 0.30768 0.0
C1414 C 0.64515 1.01389 0.28276 0.0
C1415 C 0.7925 0.03164 0.26671 0.0
C1416 C 0.71789 0.9859 0.21037 0.0
C1417 C 0.70596 0.02001 0.19851 0.0
C1418 C 0.71946 0.98517 0.23563 0.0
C1419 C 0.71148 0.02028 0.24861 0.0
C1420 C 0.69736 0.05409 0.23659 0.0
C1421 C 0.69415 0.05318 0.21153 0.0
C1422 C 0.73077 0.94735 0.24824 0.0
C1423 C 0.68626 0.09134 0.24993 0.0
H1424 H 0.67158 1.00847 0.32795 0.0
H1425 H 0.79553 1.01313 0.31414 0.0
H1426 H 0.62671 0.03411 0.29359 0.0
H1427 H 0.64002 0.02012 0.26334 0.0
H1428 H 0.63502 0.98333 0.28608 0.0
H1429 H 0.8167 0.04664 0.27663 0.0
H1430 H 0.80412 1.00329 0.25986 0.0
H1431 H 0.78396 0.05004 0.25095 0.0
H1432 H 0.72712 0.96051 0.19994 0.0
H1433 H 0.68483 0.07943 0.20193 0.0
H1434 H 0.71337 0.94318 0.26504 0.0
H1435 H 0.76226 0.9484 0.25337 0.0
H1436 H 0.72628 0.92137 0.23633 0.0
H1437 H 0.68497 0.11718 0.23762 0.0
H1438 H 0.70721 0.09776 0.26483 0.0
H1439 H 0.65672 0.08777 0.25805 0.0
C1440 C 0.99092 0.73256 0.31471 0.0
C1441 C 0.02492 0.72654 0.32828 0.0
C1442 C 0.99033 0.72176 0.29022 0.0
C1443 C 0.02481 0.70572 0.2797 0.0
C1444 C 0.05718 0.69542 0.29418 0.0
C1445 C 0.05679 0.70619 0.31837 0.0
C1446 C 0.95444 0.73086 0.27512 0.0
C1447 C 0.09389 0.67729 0.28368 0.0
C1448 C 0.01771 0.67878 0.214 0.0
C1449 C 0.02219 0.71609 0.20376 0.0
C1450 C 0.02047 0.67391 0.23903 0.0
C1451 C 0.02982 0.70694 0.25341 0.0
C1452 C 0.04093 0.74301 0.24253 0.0
C1453 C 0.03599 0.74746 0.21763 0.0
C1454 C 1.00997 0.63439 0.2497 0.0
C1455 C 0.05441 0.77792 0.25735 0.0
H1456 H 0.9663 0.74818 0.32261 0.0
H1457 H 0.08284 0.70143 0.32911 0.0
H1458 H 0.95998 0.75762 0.26411 0.0
H1459 H 0.94806 0.70626 0.26246 0.0
H1460 H 0.92817 0.73622 0.28656 0.0
H1461 H 0.11383 0.66589 0.29802 0.0
H1462 H 0.08633 0.65279 0.27124 0.0
H1463 H 0.10998 0.69983 0.27303 0.0
H1464 H 1.00745 0.6546 0.2029 0.0
H1465 H 0.03958 0.7762 0.20936 0.0
H1466 H 0.97875 0.6276 0.24557 0.0
H1467 H 0.01432 0.63252 0.26957 0.0
H1468 H 0.02823 0.61141 0.24102 0.0
H1469 H 0.02913 0.79021 0.26749 0.0
H1470 H 0.06695 0.80159 0.24582 0.0
H1471 H 0.07697 0.76878 0.27077 0.0
C1472 C 0.30074 0.99562 0.30995 0.0
C1473 C 0.31411 0.02695 0.32399 0.0
C1474 C 0.29875 0.99936 0.28474 0.0
C1475 C 0.30722 0.03637 0.27398 0.0
C1476 C 0.32103 0.06793 0.28824 0.0
C1477 C 0.32608 0.06209 0.31304 0.0
C1478 C 0.28664 0.96407 0.2698 0.0
C1479 C 0.32875 0.10812 0.27751 0.0
C1480 C 0.32812 0.02919 0.20771 0.0
C1481 C 0.28982 0.0248 0.19895 0.0
C1482 C 0.33477 0.03609 0.23228 0.0
C1483 C 0.30219 0.04141 0.24771 0.0
C1484 C 0.26388 0.04455 0.2379 0.0
C1485 C 0.25786 0.03459 0.21359 0.0
C1486 C 0.37631 0.03243 0.24163 0.0
C1487 C 0.22898 0.05469 0.25348 0.0
H1488 H 0.29131 0.96863 0.31868 0.0
H1489 H 0.33668 0.08608 0.3242 0.0
H1490 H 0.25611 0.96801 0.26317 0.0
H1491 H 0.30594 0.96093 0.25373 0.0
H1492 H 0.28784 0.93634 0.28045 0.0
H1493 H 0.33996 0.12932 0.2912 0.0
H1494 H 0.35041 0.10625 0.26261 0.0
H1495 H 0.30114 0.11988 0.26957 0.0
H1496 H 0.35282 0.02227 0.19615 0.0
H1497 H 0.22822 0.03189 0.20651 0.0
H1498 H 0.3847 1.00088 0.24182 0.0
H1499 H 0.38071 0.04404 0.26015 0.0
H1500 H 0.39648 0.04825 0.22929 0.0
H1501 H 0.21837 0.02785 0.26285 0.0
H1502 H 0.2044 0.06659 0.24242 0.0
H1503 H 0.23714 0.07666 0.2675 0.0
C1504 C 0.0662 0.69001 0.72478 0.0
C1505 C 0.0316 0.69854 0.71213 0.0
C1506 C 0.0692 0.69801 0.74946 0.0
C1507 C 0.03576 0.71242 0.76169 0.0
C1508 C 0.99899 0.71479 0.74958 0.0
C1509 C 0.99771 0.7094 0.7245 0.0
C1510 C 0.1086 0.6933 0.76187 0.0
C1511 C 0.96153 0.72541 0.76266 0.0
C1512 C 0.04065 0.72155 0.8295 0.0
C1513 C 0.02958 0.76088 0.83219 0.0
C1514 C 0.04284 0.70462 0.80655 0.0
C1515 C 0.03986 0.72932 0.78607 0.0
C1516 C 0.03725 0.77073 0.78906 0.0
C1517 C 0.03006 0.78591 0.81216 0.0
C1518 C 0.04338 0.66021 0.80495 0.0
C1519 C 0.03865 0.79887 0.76791 0.0
H1520 H 0.09207 0.68074 0.71489 0.0
H1521 H 0.97094 0.71558 0.71449 0.0
H1522 H 0.11527 0.71899 0.7736 0.0
H1523 H 0.10819 0.66676 0.77351 0.0
H1524 H 0.13287 0.6895 0.74867 0.0
H1525 H 0.93557 0.71217 0.75351 0.0
H1526 H 0.96214 0.71538 0.7818 0.0
H1527 H 0.95754 0.75778 0.76246 0.0
H1528 H 0.04237 0.70285 0.8452 0.0
H1529 H 0.0226 0.81673 0.81433 0.0
H1530 H 0.06885 0.64859 0.81531 0.0
H1531 H 0.04435 0.64848 0.78627 0.0
H1532 H 0.01635 0.64846 0.81351 0.0
H1533 H 0.05172 0.82745 0.77349 0.0
H1534 H 1.00838 0.80488 0.76145 0.0
H1535 H 0.05598 0.78683 0.75261 0.0
C1536 C 0.26879 0.99138 0.71941 0.0
C1537 C 0.29247 0.9916 0.69884 0.0
C1538 C 0.28468 0.98109 0.74181 0.0
C1539 C 0.32544 0.97267 0.74343 0.0
C1540 C 0.34747 0.96646 0.72212 0.0
C1541 C 0.33018 0.9752 0.69981 0.0
C1542 C 0.25856 0.98397 0.76383 0.0
C1543 C 0.38969 0.95322 0.72252 0.0
C1544 C 0.34695 0.02075 0.80234 0.0
C1545 C 0.35058 0.98756 0.81692 0.0
C1546 C 0.34582 0.01653 0.77715 0.0
C1547 C 0.34503 0.9781 0.76702 0.0
C1548 C 0.35409 0.94523 0.78156 0.0
C1549 C 0.35727 0.95064 0.8065 0.0
C1550 C 0.34145 0.05286 0.76165 0.0
C1551 C 0.3582 0.90423 0.77132 0.0
H1552 H 0.23897 1.00255 0.71841 0.0
H1553 H 0.34794 0.97366 0.68356 0.0
H1554 H 0.27058 0.96778 0.77961 0.0
H1555 H 0.25505 0.01535 0.76894 0.0
H1556 H 0.22881 0.97228 0.75964 0.0
H1557 H 0.40567 0.96392 0.70631 0.0
H1558 H 0.4054 0.963 0.73907 0.0
H1559 H 0.39042 0.9206 0.72187 0.0
H1560 H 0.3427 0.04942 0.81055 0.0
H1561 H 0.36203 0.92535 0.81807 0.0
H1562 H 0.30984 0.05988 0.75935 0.0
H1563 H 0.35444 0.04835 0.74342 0.0
H1564 H 0.3558 0.07865 0.77034 0.0
H1565 H 0.33642 0.89842 0.75675 0.0
H1566 H 0.35515 0.88133 0.78553 0.0
H1567 H 0.38803 0.90101 0.76357 0.0
C1568 C 0.95865 0.35859 0.71679 0.0
C1569 C 0.99334 0.35087 0.7042 0.0
C1570 C 0.95796 0.35888 0.74194 0.0
C1571 C 0.99305 0.35038 0.75451 0.0
C1572 C 0.02917 0.34712 0.7419 0.0
C1573 C 0.02878 0.34657 0.71657 0.0
C1574 C 0.91917 0.36544 0.75467 0.0
C1575 C 0.06757 0.34072 0.75507 0.0
C1576 C 0.99517 0.34752 0.82251 0.0
C1577 C 1.00128 0.30719 0.82621 0.0
C1578 C 0.9914 0.36248 0.79909 0.0
C1579 C 0.9908 0.33594 0.77948 0.0
C1580 C 0.99095 0.29473 0.7836 0.0
C1581 C 0.99736 0.28083 0.80702 0.0
C1582 C 0.9931 0.40644 0.79537 0.0
C1583 C 0.98807 0.26518 0.76321 0.0
H1584 H 0.93136 0.36209 0.70688 0.0
H1585 H 0.05549 0.34054 0.70658 0.0
H1586 H 0.91801 0.39596 0.76166 0.0
H1587 H 0.89377 0.36197 0.74218 0.0
H1588 H 0.91534 0.34516 0.77023 0.0
H1589 H 0.09311 0.34873 0.74358 0.0
H1590 H 0.06868 0.35827 0.77202 0.0
H1591 H 0.07042 0.30921 0.76005 0.0
H1592 H 0.9976 0.36785 0.83752 0.0
H1593 H 1.00169 0.2496 0.8101 0.0
H1594 H 0.97239 0.41631 0.78118 0.0
H1595 H 0.02302 0.41448 0.78915 0.0
H1596 H 0.98668 0.42272 0.81234 0.0
H1597 H 0.97651 0.23651 0.76976 0.0
H1598 H 0.01777 0.25999 0.75563 0.0
H1599 H 0.96886 0.27583 0.74836 0.0
C1600 C 0.75358 0.99746 0.81325 0.0
C1601 C 0.73656 0.03018 0.82415 0.0
C1602 C 0.74745 0.99069 0.78854 0.0
C1603 C 0.72389 0.01747 0.77518 0.0
C1604 C 0.70332 0.04784 0.7869 0.0
C1605 C 0.71069 0.05437 0.81126 0.0
C1606 C 0.76935 0.9576 0.77634 0.0
C1607 C 0.67695 0.07605 0.77333 0.0
C1608 C 0.76096 0.03796 0.7124 0.0
C1609 C 0.73704 1.01282 0.69904 0.0
C1610 C 0.75601 0.04077 0.73744 0.0
C1611 C 0.72624 0.01811 0.74877 0.0
C1612 C 0.70028 0.99491 0.73497 0.0
C1613 C 0.70673 0.99183 0.71023 0.0
C1614 C 0.784 0.06608 0.75187 0.0
C1615 C 0.66789 0.97087 0.74642 0.0
H1616 H 0.77396 0.97934 0.82346 0.0
H1617 H 0.69861 0.08041 0.81973 0.0
H1618 H 0.74992 0.94154 0.76356 0.0
H1619 H 0.79412 0.96994 0.76573 0.0
H1620 H 0.78136 0.93637 0.78974 0.0
H1621 H 0.6569 0.092 0.78579 0.0
H1622 H 0.69528 0.09811 0.76376 0.0
H1623 H 0.65903 0.06035 0.75956 0.0
H1624 H 0.7852 0.05292 0.70359 0.0
H1625 H 0.69023 0.97021 0.70012 0.0
H1626 H 0.79903 0.0482 0.76593 0.0
H1627 H 0.76737 0.08956 0.76129 0.0
H1628 H 0.80668 0.07998 0.74025 0.0
H1629 H 0.68065 0.94402 0.75471 0.0
H1630 H 0.64558 0.96158 0.73284 0.0
H1631 H 0.65295 0.98765 0.76097 0.0
C1632 C 0.0782 0.44613 0.16039 0.0
C1633 C 0.06572 0.41046 0.17069 0.0
C1634 C 0.05475 0.48068 0.16197 0.0
C1635 C 0.01736 0.47955 0.17353 0.0
C1636 C 1.00595 0.44422 0.18517 0.0
C1637 C 0.03027 0.41069 0.1839 0.0
C1638 C 0.06939 0.51818 0.15053 0.0
C1639 C 0.96704 0.44119 0.1981 0.0
C1640 C 0.96616 0.57657 0.19103 0.0
C1641 C 0.94316 0.58513 0.17049 0.0
C1642 C 0.98936 0.54215 0.19265 0.0
C1643 C 0.98991 0.51485 0.1732 0.0
C1644 C 0.96422 0.52169 0.15324 0.0
C1645 C 0.94162 0.55674 0.152 0.0
C1646 C 0.01531 0.53714 0.21464 0.0
C1647 C 0.96194 0.49276 0.13257 0.0
H1648 H 0.10502 0.44653 0.14985 0.0
H1649 H 0.02007 0.38348 0.192 0.0
H1650 H 0.05057 0.52588 0.1348 0.0
H1651 H 0.06743 0.54278 0.16372 0.0
H1652 H 0.10026 0.51558 0.14425 0.0
H1653 H 0.96228 0.41167 0.20624 0.0
H1654 H 0.96544 0.46357 0.2127 0.0
H1655 H 0.94273 0.44733 0.18519 0.0
H1656 H 0.96813 0.59832 0.20529 0.0
H1657 H 0.92509 0.5633 0.13568 0.0
H1658 H 0.04213 0.55534 0.21227 0.0
H1659 H 0.02459 0.50629 0.21768 0.0
H1660 H 0.99993 0.54758 0.23115 0.0
H1661 H 0.93792 0.50002 0.11966 0.0
H1662 H 0.95716 0.46255 0.13962 0.0
H1663 H 0.99017 0.49269 0.12257 0.0
C1664 C 0.59847 0.0509 0.17918 0.0
C1665 C 0.59563 0.08167 0.16227 0.0
C1666 C 0.56732 0.02416 0.18311 0.0
C1667 C 0.53149 0.02855 0.17024 0.0
C1668 C 0.52726 0.06146 0.15455 0.0
C1669 C 0.5595 0.08691 0.15035 0.0
C1670 C 0.57362 0.98989 0.20007 0.0
C1671 C 0.4891 0.06884 0.14137 0.0
C1672 C 0.4593 0.94421 0.15613 0.0
C1673 C 0.42953 0.95061 0.17324 0.0
C1674 C 0.49377 0.96771 0.15586 0.0
C1675 C 0.4986 0.9988 0.1729 0.0
C1676 C 0.4702 1.00294 0.19144 0.0
C1677 C 0.43624 0.97906 0.19127 0.0
C1678 C 0.52396 0.96076 0.13639 0.0
C1679 C 0.47352 0.03462 0.21049 0.0
H1680 H 0.62623 0.04557 0.18794 0.0
H1681 H 0.55715 0.10963 0.13664 0.0
H1682 H 0.57103 0.96189 0.18983 0.0
H1683 H 0.60288 0.99086 0.20904 0.0
H1684 H 0.55059 0.98963 0.21425 0.0
H1685 H 0.48921 0.09738 0.13155 0.0
H1686 H 0.48369 0.04491 0.1281 0.0
H1687 H 0.4643 0.06871 0.15439 0.0
H1688 H 0.45424 0.92311 0.14172 0.0
H1689 H 0.41331 0.98465 0.20433 0.0
H1690 H 0.55398 0.96067 0.14432 0.0
H1691 H 0.52268 0.98499 0.12295 0.0
H1692 H 0.51901 0.93247 0.12676 0.0
H1693 H 0.50404 0.04506 0.21331 0.0
H1694 H 0.46221 0.02375 0.2281 0.0
H1695 H 0.45542 0.06019 0.20484 0.0
C1696 C 0.07837 0.57031 0.36638 0.0
C1697 C 0.0672 0.60554 0.355 0.0
C1698 C 0.05524 0.53566 0.36402 0.0
C1699 C 0.01943 0.53637 0.3506 0.0
C1700 C 1.00978 0.57107 0.3377 0.0
C1701 C 0.03383 0.60468 0.33981 0.0
C1702 C 0.06836 0.49861 0.37667 0.0
C1703 C 0.97277 0.57346 0.32264 0.0
C1704 C 0.96773 0.4399 0.33248 0.0
C1705 C 0.9433 0.43225 0.35242 0.0
C1706 C 0.99207 0.47354 0.33134 0.0
C1707 C 0.99159 0.50146 0.35046 0.0
C1708 C 0.96418 0.49579 0.36959 0.0
C1709 C 0.94096 0.46112 0.37056 0.0
C1710 C 0.01977 0.47701 0.31014 0.0
C1711 C 0.96047 0.52568 0.38966 0.0
H1712 H 0.10351 0.57049 0.37847 0.0
H1713 H 0.02455 0.63163 0.33102 0.0
H1714 H 0.04837 0.49215 0.392 0.0
H1715 H 0.06686 0.47327 0.364 0.0
H1716 H 0.09881 0.50115 0.38381 0.0
H1717 H 0.96895 0.60278 0.31403 0.0
H1718 H 0.97343 0.55081 0.30818 0.0
H1719 H 0.9468 0.5673 0.33417 0.0
H1720 H 0.96972 0.41818 0.31828 0.0
H1721 H 0.92305 0.45536 0.38638 0.0
H1722 H 0.03513 0.50571 0.30905 0.0
H1723 H 1.00334 0.4723 0.29297 0.0
H1724 H 0.04224 0.45344 0.31146 0.0
H1725 H 0.98757 0.52564 0.40086 0.0
H1726 H 0.93501 0.51947 0.40162 0.0
H1727 H 0.95712 0.55566 0.38193 0.0
C1728 C 0.5636 0.94192 0.37347 0.0
C1729 C 0.59367 0.94671 0.35634 0.0
C1730 C 0.52915 0.96547 0.37273 0.0
C1731 C 0.5247 0.99512 0.35469 0.0
C1732 C 0.55352 0.99765 0.33628 0.0
C1733 C 0.58726 0.97361 0.33741 0.0
C1734 C 0.49848 0.96009 0.3921 0.0
C1735 C 0.55097 0.02771 0.31622 0.0
C1736 C 0.42567 0.0481 0.34563 0.0
C1737 C 0.42845 0.07986 0.36188 0.0
C1738 C 0.45652 0.02058 0.34292 0.0
C1739 C 0.49198 0.0253 0.3562 0.0
C1740 C 0.49627 0.05931 0.37095 0.0
C1741 C 0.46433 0.08546 0.37405 0.0
C1742 C 0.45039 0.98532 0.32674 0.0
C1743 C 0.53418 0.06728 0.38431 0.0
H1744 H 0.56828 0.92199 0.38854 0.0
H1745 H 0.61024 0.97785 0.32428 0.0
H1746 H 0.4996 0.98529 0.40485 0.0
H1747 H 0.46865 0.95952 0.38391 0.0
H1748 H 0.50305 0.93253 0.40256 0.0
H1749 H 0.55965 1.01412 0.29875 0.0
H1750 H 0.5213 0.04056 0.31393 0.0
H1751 H 0.57184 0.05201 0.32017 0.0
H1752 H 0.39809 0.04281 0.33645 0.0
H1753 H 0.46661 0.10905 0.3872 0.0
H1754 H 0.4533 0.95791 0.33754 0.0
H1755 H 0.47335 0.98458 0.31252 0.0
H1756 H 0.42107 0.98549 0.31783 0.0
H1757 H 0.53887 0.0444 0.39835 0.0
H1758 H 0.53423 0.09658 0.39324 0.0
H1759 H 0.55933 0.0658 0.37157 0.0
C1760 C 0.06889 0.45754 0.88299 0.0
C1761 C 0.07574 0.43587 0.86176 0.0
C1762 C 0.0471 0.49291 0.88268 0.0
C1763 C 0.03208 0.50786 0.86049 0.0
C1764 C 0.04055 0.48705 0.8388 0.0
C1765 C 0.06139 0.45099 0.83978 0.0
C1766 C 0.03918 0.51374 0.90632 0.0
C1767 C 0.0267 0.50233 0.81458 0.0
C1768 C 0.9511 0.58808 0.86378 0.0
C1769 C 0.9736 0.62281 0.86306 0.0
C1770 C 0.96932 0.55034 0.86232 0.0
C1771 C 1.01093 0.54706 0.85993 0.0
C1772 C 0.0333 0.58191 0.85845 0.0
C1773 C 0.01471 0.61857 0.86041 0.0
C1774 C 0.94424 0.51391 0.8641 0.0
C1775 C 0.07746 0.58063 0.85551 0.0
H1776 H 0.07842 0.4454 0.90019 0.0
H1777 H 0.06538 0.43385 0.82343 0.0
H1778 H 0.05221 0.54367 0.90594 0.0
H1779 H 1.00704 0.51725 0.90889 0.0
H1780 H 0.05142 0.49762 0.92213 0.0
H1781 H 0.99422 0.50001 0.81349 0.0
H1782 H 0.03441 0.53388 0.81248 0.0
H1783 H 0.03965 0.48568 0.79925 0.0
H1784 H 0.91961 0.59026 0.86626 0.0
H1785 H 0.03337 0.64419 0.8606 0.0
H1786 H 0.95223 0.49728 0.8807 0.0
H1787 H 0.94989 0.49433 0.84841 0.0
H1788 H 0.91239 0.52093 0.86471 0.0
H1789 H 0.0906 0.61041 0.85365 0.0
H1790 H 0.08527 0.56311 0.83926 0.0
H1791 H 0.09108 0.56602 0.87141 0.0
C1792 C 0.60601 0.03829 0.83364 0.0
C1793 C 0.6051 0.07226 0.84828 0.0
C1794 C 0.57491 1.0109 0.8333 0.0
C1795 C 0.54096 0.01776 0.84745 0.0
C1796 C 0.53795 0.05412 0.86016 0.0
C1797 C 0.57015 0.0807 0.86067 0.0
C1798 C 0.58029 0.97278 0.81966 0.0
C1799 C 0.50173 0.06373 0.87465 0.0
C1800 C 0.44952 0.95199 0.83993 0.0
C1801 C 0.44987 0.92974 0.86134 0.0
C1802 C 0.47892 0.98024 0.83483 0.0
C1803 C 0.51091 0.9854 0.85107 0.0
C1804 C 0.51363 0.95999 0.87144 0.0
C1805 C 0.48288 0.93328 0.87655 0.0
C1806 C 0.47364 1.00686 0.81318 0.0
C1807 C 0.54791 0.96265 0.88875 0.0
H1808 H 0.63289 0.03111 0.82415 0.0
H1809 H 0.56911 0.10628 0.87238 0.0
H1810 H 0.58551 0.94862 0.83281 0.0
H1811 H 0.55349 0.96517 0.8092 0.0
H1812 H 0.60563 0.97405 0.80702 0.0
H1813 H 0.50101 0.09517 0.88015 0.0
H1814 H 0.47482 0.05696 0.86402 0.0
H1815 H 0.50109 0.04532 0.89124 0.0
H1816 H 0.42436 0.95013 0.82826 0.0
H1817 H 0.4833 0.91707 0.89347 0.0
H1818 H 0.46432 0.03639 0.81953 0.0
H1819 H 0.45095 0.99552 0.80044 0.0
H1820 H 0.50164 1.01066 0.80323 0.0
H1821 H 0.57605 0.96251 0.87863 0.0
H1822 H 0.54817 0.93798 0.90196 0.0
H1823 H 0.54641 0.99073 0.89895 0.0
C1824 C 0.95109 0.44904 0.68498 0.0
C1825 C 0.93055 0.4508 0.66298 0.0
C1826 C 0.9821 0.47538 0.69045 0.0
C1827 C 0.99096 0.50662 0.67426 0.0
C1828 C 0.96623 0.51197 0.65374 0.0
C1829 C 0.93737 0.48352 0.648 0.0
C1830 C 1.00753 0.46657 0.71221 0.0
C1831 C 0.97201 0.54631 0.63677 0.0
C1832 C 0.05866 0.59325 0.69018 0.0
C1833 C 0.08884 0.58891 0.67307 0.0
C1834 C 0.02737 0.56598 0.6918 0.0
C1835 C 0.02748 0.53172 0.67713 0.0
C1836 C 0.06113 0.52417 0.66269 0.0
C1837 C 0.09066 0.55322 0.66029 0.0
C1838 C 0.99231 0.57613 0.70725 0.0
C1839 C 0.06446 0.48675 0.64814 0.0
H1840 H 0.94567 0.42477 0.69686 0.0
H1841 H 0.922 0.48538 0.63081 0.0
H1842 H 0.02323 0.49289 0.7191 0.0
H1843 H 0.98978 0.4537 0.72711 0.0
H1844 H 0.02988 0.44438 0.70697 0.0
H1845 H 0.94621 0.5506 0.62468 0.0
H1846 H 0.97717 0.57384 0.64713 0.0
H1847 H 0.99817 0.54104 0.62529 0.0
H1848 H 0.05687 0.62031 0.70028 0.0
H1849 H 0.11338 0.54943 0.64675 0.0
H1850 H 0.98363 0.55069 0.71863 0.0
H1851 H 0.96698 0.58323 0.69532 0.0
H1852 H 0.99809 0.6018 0.71922 0.0
H1853 H 0.05444 0.4611 0.65897 0.0
H1854 H 0.09511 0.48147 0.64209 0.0
H1855 H 0.04543 0.48875 0.63185 0.0
C1856 C 0.60443 0.9971 0.68345 0.0
C1857 C 0.6066 0.96114 0.67072 0.0
C1858 C 0.56914 0.01836 0.68577 0.0
C1859 C 0.53404 1.00337 0.67553 0.0
C1860 C 0.53513 0.96554 0.66437 0.0
C1861 C 0.57134 0.94505 0.66189 0.0
C1862 C 0.57041 0.05844 0.6976 0.0
C1863 C 0.49826 0.94762 0.65394 0.0
C1864 C 0.43386 0.0472 0.6934 0.0
C1865 C 0.4245 0.07102 0.67335 0.0
C1866 C 0.47002 0.02672 0.69492 0.0
C1867 C 0.49697 0.02819 0.67538 0.0
C1868 C 0.48841 0.05359 0.65559 0.0
C1869 C 0.45256 0.0747 0.65488 0.0
C1870 C 0.47876 1.00227 0.7171 0.0
C1871 C 0.51647 0.05724 0.63461 0.0
H1872 H 0.63125 1.01037 0.69022 0.0
H1873 H 0.57236 0.91784 0.65167 0.0
H1874 H 0.56914 0.08143 0.68335 0.0
H1875 H 0.54484 0.06296 0.70967 0.0
H1876 H 0.59776 0.06287 0.70831 0.0
H1877 H 0.50291 0.91683 0.64783 0.0
H1878 H 0.47443 0.94803 0.66763 0.0
H1879 H 0.48816 0.96537 0.63824 0.0
H1880 H 0.41206 0.04325 0.70749 0.0
H1881 H 0.44522 0.09188 0.63895 0.0
H1882 H 0.50908 1.00769 0.7237 0.0
H1883 H 0.47683 0.97058 0.71238 0.0
H1884 H 0.4581 1.00871 0.73211 0.0
H1885 H 0.5462 0.06526 0.64129 0.0
H1886 H 0.50679 0.07968 0.62124 0.0
H1887 H 0.51901 0.02846 0.62525 0.0
loop_
_geom_bond_atom_site_label_1
_geom_bond_atom_site_label_2
_geom_bond_distance
_geom_bond_site_symmetry_2
_ccdc_geom_bond_type
Fe0 O2 1.918 . S
Fe0 O5 1.997 . S
Fe0 O6 2.002 . S
Fe0 O11 1.976 . S
Fe0 O14 1.996 . S
Fe1 O2 1.918 . S
Fe1 O9 1.997 . S
Fe1 O12 1.996 . S
Fe1 O16 1.976 . S
Fe1 O19 2.002 . S
O2 Fe0 1.918 . S
O2 Fe1 1.918 . S
O2 Fe3 1.918 . S
Fe3 O2 1.918 . S
Fe3 O4 2.002 . S
Fe3 O13 1.976 . S
Fe3 O17 1.996 . S
Fe3 O20 1.997 . S
O4 Fe3 2.002 . S
O4 C21 1.295 . S
O5 Fe0 1.997 . S
O5 C21 1.235 . S
O6 Fe0 2.002 . S
O6 C7 1.295 . S
C7 O6 1.295 . S
C7 O9 1.235 . S
C8 O13 1.287 . S
C8 O14 1.255 . S
O9 Fe1 1.997 . S
O9 C7 1.235 . S
C10 O16 1.287 . S
C10 O17 1.255 . S
O11 Fe0 1.976 . S
O11 C18 1.287 . S
O12 Fe1 1.996 . S
O12 C18 1.255 . S
O13 Fe3 1.976 . S
O13 C8 1.287 . S
O14 Fe0 1.996 . S
O14 C8 1.255 . S
C15 O19 1.295 . S
C15 O20 1.235 . S
O16 Fe1 1.976 . S
O16 C10 1.287 . S
O17 Fe3 1.996 . S
O17 C10 1.255 . S
C18 O11 1.287 . S
C18 O12 1.255 . S
O19 Fe1 2.002 . S
O19 C15 1.295 . S
O20 Fe3 1.997 . S
O20 C15 1.235 . S
C21 O4 1.295 . S
C21 O5 1.235 . S
Fe22 O24 1.918 . S
Fe22 O27 1.997 . S
Fe22 O28 2.002 . S
Fe22 O33 1.976 . S
Fe22 O36 1.996 . S
Fe23 O24 1.918 . S
Fe23 O31 1.997 . S
Fe23 O34 1.996 . S
Fe23 O38 1.976 . S
Fe23 O41 2.002 . S
O24 Fe22 1.918 . S
O24 Fe23 1.918 . S
O24 Fe25 1.918 . S
Fe25 O24 1.918 . S
Fe25 O26 2.002 . S
Fe25 O35 1.976 . S
Fe25 O39 1.996 . S
Fe25 O42 1.997 . S
O26 Fe25 2.002 . S
O26 C43 1.295 . S
O27 Fe22 1.997 . S
O27 C43 1.235 . S
O28 Fe22 2.002 . S
O28 C29 1.295 . S
C29 O28 1.295 . S
C29 O31 1.235 . S
C30 O35 1.287 . S
C30 O36 1.255 . S
O31 Fe23 1.997 . S
O31 C29 1.235 . S
C32 O38 1.287 . S
C32 O39 1.255 . S
O33 Fe22 1.976 . S
O33 C40 1.287 . S
O34 Fe23 1.996 . S
O34 C40 1.255 . S
O35 Fe25 1.976 . S
O35 C30 1.287 . S
O36 Fe22 1.996 . S
O36 C30 1.255 . S
C37 O41 1.295 . S
C37 O42 1.235 . S
O38 Fe23 1.976 . S
O38 C32 1.287 . S
O39 Fe25 1.996 . S
O39 C32 1.255 . S
C40 O33 1.287 . S
C40 O34 1.255 . S
O41 Fe23 2.002 . S
O41 C37 1.295 . S
O42 Fe25 1.997 . S
O42 C37 1.235 . S
C43 O26 1.295 . S
C43 O27 1.235 . S
Fe44 O46 1.918 . S
Fe44 O49 1.997 . S
Fe44 O50 2.002 . S
Fe44 O55 1.976 . S
Fe44 O58 1.996 . S
Fe45 O46 1.918 . S
Fe45 O53 1.997 . S
Fe45 O56 1.996 . S
Fe45 O60 1.976 . S
Fe45 O63 2.002 . S
O46 Fe44 1.918 . S
O46 Fe45 1.918 . S
O46 Fe47 1.918 . S
Fe47 O46 1.918 . S
Fe47 O48 2.002 . S
Fe47 O57 1.976 . S
Fe47 O61 1.996 . S
Fe47 O64 1.997 . S
O48 Fe47 2.002 . S
O48 C65 1.295 . S
O49 Fe44 1.997 . S
O49 C65 1.235 . S
O50 Fe44 2.002 . S
O50 C51 1.295 . S
C51 O50 1.295 . S
C51 O53 1.235 . S
C52 O57 1.287 . S
C52 O58 1.255 . S
O53 Fe45 1.997 . S
O53 C51 1.235 . S
C54 O60 1.287 . S
C54 O61 1.255 . S
O55 Fe44 1.976 . S
O55 C62 1.287 . S
O56 Fe45 1.996 . S
O56 C62 1.255 . S
O57 Fe47 1.976 . S
O57 C52 1.287 . S
O58 Fe44 1.996 . S
O58 C52 1.255 . S
C59 O63 1.295 . S
C59 O64 1.235 . S
O60 Fe45 1.976 . S
O60 C54 1.287 . S
O61 Fe47 1.996 . S
O61 C54 1.255 . S
C62 O55 1.287 . S
C62 O56 1.255 . S
O63 Fe45 2.002 . S
O63 C59 1.295 . S
O64 Fe47 1.997 . S
O64 C59 1.235 . S
C65 O48 1.295 . S
C65 O49 1.235 . S
Fe66 O68 1.918 . S
Fe66 O71 1.997 . S
Fe66 O72 2.002 . S
Fe66 O77 1.976 . S
Fe66 O80 1.996 . S
Fe67 O68 1.918 . S
Fe67 O75 1.997 . S
Fe67 O78 1.996 . S
Fe67 O82 1.976 . S
Fe67 O85 2.002 . S
O68 Fe66 1.918 . S
O68 Fe67 1.918 . S
O68 Fe69 1.918 . S
Fe69 O68 1.918 . S
Fe69 O70 2.002 . S
Fe69 O79 1.976 . S
Fe69 O83 1.996 . S
Fe69 O86 1.997 . S
O70 Fe69 2.002 . S
O70 C87 1.295 . S
O71 Fe66 1.997 . S
O71 C87 1.235 . S
O72 Fe66 2.002 . S
O72 C73 1.295 . S
C73 O72 1.295 . S
C73 O75 1.235 . S
C74 O79 1.287 . S
C74 O80 1.255 . S
O75 Fe67 1.997 . S
O75 C73 1.235 . S
C76 O82 1.287 . S
C76 O83 1.255 . S
O77 Fe66 1.976 . S
O77 C84 1.287 . S
O78 Fe67 1.996 . S
O78 C84 1.255 . S
O79 Fe69 1.976 . S
O79 C74 1.287 . S
O80 Fe66 1.996 . S
O80 C74 1.255 . S
C81 O85 1.295 . S
C81 O86 1.235 . S
O82 Fe67 1.976 . S
O82 C76 1.287 . S
O83 Fe69 1.996 . S
O83 C76 1.255 . S
C84 O77 1.287 . S
C84 O78 1.255 . S
O85 Fe67 2.002 . S
O85 C81 1.295 . S
O86 Fe69 1.997 . S
O86 C81 1.235 . S
C87 O70 1.295 . S
C87 O71 1.235 . S
Fe88 O90 1.918 . S
Fe88 O93 1.997 . S
Fe88 O94 2.002 . S
Fe88 O99 1.976 . S
Fe88 O102 1.996 . S
Fe89 O90 1.918 . S
Fe89 O97 1.997 . S
Fe89 O100 1.996 . S
Fe89 O104 1.976 . S
Fe89 O107 2.002 . S
O90 Fe88 1.918 . S
O90 Fe89 1.918 . S
O90 Fe91 1.918 . S
Fe91 O90 1.918 . S
Fe91 O92 2.002 . S
Fe91 O101 1.976 . S
Fe91 O105 1.996 . S
Fe91 O108 1.997 . S
O92 Fe91 2.002 . S
O92 C109 1.295 . S
O93 Fe88 1.997 . S
O93 C109 1.235 . S
O94 Fe88 2.002 . S
O94 C95 1.295 . S
C95 O94 1.295 . S
C95 O97 1.235 . S
C96 O101 1.287 . S
C96 O102 1.255 . S
O97 Fe89 1.997 . S
O97 C95 1.235 . S
C98 O104 1.287 . S
C98 O105 1.255 . S
O99 Fe88 1.976 . S
O99 C106 1.287 . S
O100 Fe89 1.996 . S
O100 C106 1.255 . S
O101 Fe91 1.976 . S
O101 C96 1.287 . S
O102 Fe88 1.996 . S
O102 C96 1.255 . S
C103 O107 1.295 . S
C103 O108 1.235 . S
O104 Fe89 1.976 . S
O104 C98 1.287 . S
O105 Fe91 1.996 . S
O105 C98 1.255 . S
C106 O99 1.287 . S
C106 O100 1.255 . S
O107 Fe89 2.002 . S
O107 C103 1.295 . S
O108 Fe91 1.997 . S
O108 C103 1.235 . S
C109 O92 1.295 . S
C109 O93 1.235 . S
Fe110 O112 1.918 . S
Fe110 O115 1.997 . S
Fe110 O116 2.002 . S
Fe110 O121 1.976 . S
Fe110 O124 1.996 . S
Fe111 O112 1.918 . S
Fe111 O119 1.997 . S
Fe111 O122 1.996 . S
Fe111 O126 1.976 . S
Fe111 O129 2.002 . S
O112 Fe110 1.918 . S
O112 Fe111 1.918 . S
O112 Fe113 1.918 . S
Fe113 O112 1.918 . S
Fe113 O114 2.002 . S
Fe113 O123 1.976 . S
Fe113 O127 1.996 . S
Fe113 O130 1.997 . S
O114 Fe113 2.002 . S
O114 C131 1.295 . S
O115 Fe110 1.997 . S
O115 C131 1.235 . S
O116 Fe110 2.002 . S
O116 C117 1.295 . S
C117 O116 1.295 . S
C117 O119 1.235 . S
C118 O123 1.287 . S
C118 O124 1.255 . S
O119 Fe111 1.997 . S
O119 C117 1.235 . S
C120 O126 1.287 . S
C120 O127 1.255 . S
O121 Fe110 1.976 . S
O121 C128 1.287 . S
O122 Fe111 1.996 . S
O122 C128 1.255 . S
O123 Fe113 1.976 . S
O123 C118 1.287 . S
O124 Fe110 1.996 . S
O124 C118 1.255 . S
C125 O129 1.295 . S
C125 O130 1.235 . S
O126 Fe111 1.976 . S
O126 C120 1.287 . S
O127 Fe113 1.996 . S
O127 C120 1.255 . S
C128 O121 1.287 . S
C128 O122 1.255 . S
O129 Fe111 2.002 . S
O129 C125 1.295 . S
O130 Fe113 1.997 . S
O130 C125 1.235 . S
C131 O114 1.295 . S
C131 O115 1.235 . S
Fe132 O134 1.918 . S
Fe132 O137 1.997 . S
Fe132 O138 2.002 . S
Fe132 O143 1.976 . S
Fe132 O146 1.996 . S
Fe133 O134 1.918 . S
Fe133 O141 1.997 . S
Fe133 O144 1.996 . S
Fe133 O148 1.976 . S
Fe133 O151 2.002 . S
O134 Fe132 1.918 . S
O134 Fe133 1.918 . S
O134 Fe135 1.918 . S
Fe135 O134 1.918 . S
Fe135 O136 2.002 . S
Fe135 O145 1.976 . S
Fe135 O149 1.996 . S
Fe135 O152 1.997 . S
O136 Fe135 2.002 . S
O136 C153 1.295 . S
O137 Fe132 1.997 . S
O137 C153 1.235 . S
O138 Fe132 2.002 . S
O138 C139 1.295 . S
C139 O138 1.295 . S
C139 O141 1.235 . S
C140 O145 1.287 . S
C140 O146 1.255 . S
O141 Fe133 1.997 . S
O141 C139 1.235 . S
C142 O148 1.287 . S
C142 O149 1.255 . S
O143 Fe132 1.976 . S
O143 C150 1.287 . S
O144 Fe133 1.996 . S
O144 C150 1.255 . S
O145 Fe135 1.976 . S
O145 C140 1.287 . S
O146 Fe132 1.996 . S
O146 C140 1.255 . S
C147 O151 1.295 . S
C147 O152 1.235 . S
O148 Fe133 1.976 . S
O148 C142 1.287 . S
O149 Fe135 1.996 . S
O149 C142 1.255 . S
C150 O143 1.287 . S
C150 O144 1.255 . S
O151 Fe133 2.002 . S
O151 C147 1.295 . S
O152 Fe135 1.997 . S
O152 C147 1.235 . S
C153 O136 1.295 . S
C153 O137 1.235 . S
Fe154 O156 1.918 . S
Fe154 O159 1.997 . S
Fe154 O160 2.002 . S
Fe154 O165 1.976 . S
Fe154 O168 1.996 . S
Fe155 O156 1.918 . S
Fe155 O163 1.997 . S
Fe155 O166 1.996 . S
Fe155 O170 1.976 . S
Fe155 O173 2.002 . S
O156 Fe154 1.918 . S
O156 Fe155 1.918 . S
O156 Fe157 1.918 . S
Fe157 O156 1.918 . S
Fe157 O158 2.002 . S
Fe157 O167 1.976 . S
Fe157 O171 1.996 . S
Fe157 O174 1.997 . S
O158 Fe157 2.002 . S
O158 C175 1.295 . S
O159 Fe154 1.997 . S
O159 C175 1.235 . S
O160 Fe154 2.002 . S
O160 C161 1.295 . S
C161 O160 1.295 . S
C161 O163 1.235 . S
C162 O167 1.287 . S
C162 O168 1.255 . S
O163 Fe155 1.997 . S
O163 C161 1.235 . S
C164 O170 1.287 . S
C164 O171 1.255 . S
O165 Fe154 1.976 . S
O165 C172 1.287 . S
O166 Fe155 1.996 . S
O166 C172 1.255 . S
O167 Fe157 1.976 . S
O167 C162 1.287 . S
O168 Fe154 1.996 . S
O168 C162 1.255 . S
C169 O173 1.295 . S
C169 O174 1.235 . S
O170 Fe155 1.976 . S
O170 C164 1.287 . S
O171 Fe157 1.996 . S
O171 C164 1.255 . S
C172 O165 1.287 . S
C172 O166 1.255 . S
O173 Fe155 2.002 . S
O173 C169 1.295 . S
O174 Fe157 1.997 . S
O174 C169 1.235 . S
C175 O158 1.295 . S
C175 O159 1.235 . S
Fe176 O178 1.918 . S
Fe176 O181 1.997 . S
Fe176 O182 2.002 . S
Fe176 O187 1.976 . S
Fe176 O190 1.996 . S
Fe177 O178 1.918 . S
Fe177 O185 1.997 . S
Fe177 O188 1.996 . S
Fe177 O192 1.976 . S
Fe177 O195 2.002 . S
O178 Fe176 1.918 . S
O178 Fe177 1.918 . S
O178 Fe179 1.918 . S
Fe179 O178 1.918 . S
Fe179 O180 2.002 . S
Fe179 O189 1.976 . S
Fe179 O193 1.996 . S
Fe179 O196 1.997 . S
O180 Fe179 2.002 . S
O180 C197 1.295 . S
O181 Fe176 1.997 . S
O181 C197 1.235 . S
O182 Fe176 2.002 . S
O182 C183 1.295 . S
C183 O182 1.295 . S
C183 O185 1.235 . S
C184 O189 1.287 . S
C184 O190 1.255 . S
O185 Fe177 1.997 . S
O185 C183 1.235 . S
C186 O192 1.287 . S
C186 O193 1.255 . S
O187 Fe176 1.976 . S
O187 C194 1.287 . S
O188 Fe177 1.996 . S
O188 C194 1.255 . S
O189 Fe179 1.976 . S
O189 C184 1.287 . S
O190 Fe176 1.996 . S
O190 C184 1.255 . S
C191 O195 1.295 . S
C191 O196 1.235 . S
O192 Fe177 1.976 . S
O192 C186 1.287 . S
O193 Fe179 1.996 . S
O193 C186 1.255 . S
C194 O187 1.287 . S
C194 O188 1.255 . S
O195 Fe177 2.002 . S
O195 C191 1.295 . S
O196 Fe179 1.997 . S
O196 C191 1.235 . S
C197 O180 1.295 . S
C197 O181 1.235 . S
Fe198 O200 1.918 . S
Fe198 O203 1.997 . S
Fe198 O204 2.002 . S
Fe198 O209 1.976 . S
Fe198 O212 1.996 . S
Fe199 O200 1.918 . S
Fe199 O207 1.997 . S
Fe199 O210 1.996 . S
Fe199 O214 1.976 . S
Fe199 O217 2.002 . S
O200 Fe198 1.918 . S
O200 Fe199 1.918 . S
O200 Fe201 1.918 . S
Fe201 O200 1.918 . S
Fe201 O202 2.002 . S
Fe201 O211 1.976 . S
Fe201 O215 1.996 . S
Fe201 O218 1.997 . S
O202 Fe201 2.002 . S
O202 C219 1.295 . S
O203 Fe198 1.997 . S
O203 C219 1.235 . S
O204 Fe198 2.002 . S
O204 C205 1.295 . S
C205 O204 1.295 . S
C205 O207 1.235 . S
C206 O211 1.287 . S
C206 O212 1.255 . S
O207 Fe199 1.997 . S
O207 C205 1.235 . S
C208 O214 1.287 . S
C208 O215 1.255 . S
O209 Fe198 1.976 . S
O209 C216 1.287 . S
O210 Fe199 1.996 . S
O210 C216 1.255 . S
O211 Fe201 1.976 . S
O211 C206 1.287 . S
O212 Fe198 1.996 . S
O212 C206 1.255 . S
C213 O217 1.295 . S
C213 O218 1.235 . S
O214 Fe199 1.976 . S
O214 C208 1.287 . S
O215 Fe201 1.996 . S
O215 C208 1.255 . S
C216 O209 1.287 . S
C216 O210 1.255 . S
O217 Fe199 2.002 . S
O217 C213 1.295 . S
O218 Fe201 1.997 . S
O218 C213 1.235 . S
C219 O202 1.295 . S
C219 O203 1.235 . S
Fe220 O222 1.918 . S
Fe220 O225 1.997 . S
Fe220 O226 2.002 . S
Fe220 O231 1.976 . S
Fe220 O234 1.996 . S
Fe221 O222 1.918 . S
Fe221 O229 1.997 . S
Fe221 O232 1.996 . S
Fe221 O236 1.976 . S
Fe221 O239 2.002 . S
O222 Fe220 1.918 . S
O222 Fe221 1.918 . S
O222 Fe223 1.918 . S
Fe223 O222 1.918 . S
Fe223 O224 2.002 . S
Fe223 O233 1.976 . S
Fe223 O237 1.996 . S
Fe223 O240 1.997 . S
O224 Fe223 2.002 . S
O224 C241 1.295 . S
O225 Fe220 1.997 . S
O225 C241 1.235 . S
O226 Fe220 2.002 . S
O226 C227 1.295 . S
C227 O226 1.295 . S
C227 O229 1.235 . S
C228 O233 1.287 . S
C228 O234 1.255 . S
O229 Fe221 1.997 . S
O229 C227 1.235 . S
C230 O236 1.287 . S
C230 O237 1.255 . S
O231 Fe220 1.976 . S
O231 C238 1.287 . S
O232 Fe221 1.996 . S
O232 C238 1.255 . S
O233 Fe223 1.976 . S
O233 C228 1.287 . S
O234 Fe220 1.996 . S
O234 C228 1.255 . S
C235 O239 1.295 . S
C235 O240 1.235 . S
O236 Fe221 1.976 . S
O236 C230 1.287 . S
O237 Fe223 1.996 . S
O237 C230 1.255 . S
C238 O231 1.287 . S
C238 O232 1.255 . S
O239 Fe221 2.002 . S
O239 C235 1.295 . S
O240 Fe223 1.997 . S
O240 C235 1.235 . S
C241 O224 1.295 . S
C241 O225 1.235 . S
Fe242 O244 1.918 . S
Fe242 O247 1.997 . S
Fe242 O248 2.002 . S
Fe242 O253 1.976 . S
Fe242 O256 1.996 . S
Fe243 O244 1.918 . S
Fe243 O251 1.997 . S
Fe243 O254 1.996 . S
Fe243 O258 1.976 . S
Fe243 O261 2.002 . S
O244 Fe242 1.918 . S
O244 Fe243 1.918 . S
O244 Fe245 1.918 . S
Fe245 O244 1.918 . S
Fe245 O246 2.002 . S
Fe245 O255 1.976 . S
Fe245 O259 1.996 . S
Fe245 O262 1.997 . S
O246 Fe245 2.002 . S
O246 C263 1.295 . S
O247 Fe242 1.997 . S
O247 C263 1.235 . S
O248 Fe242 2.002 . S
O248 C249 1.295 . S
C249 O248 1.295 . S
C249 O251 1.235 . S
C250 O255 1.287 . S
C250 O256 1.255 . S
O251 Fe243 1.997 . S
O251 C249 1.235 . S
C252 O258 1.287 . S
C252 O259 1.255 . S
O253 Fe242 1.976 . S
O253 C260 1.287 . S
O254 Fe243 1.996 . S
O254 C260 1.255 . S
O255 Fe245 1.976 . S
O255 C250 1.287 . S
O256 Fe242 1.996 . S
O256 C250 1.255 . S
C257 O261 1.295 . S
C257 O262 1.235 . S
O258 Fe243 1.976 . S
O258 C252 1.287 . S
O259 Fe245 1.996 . S
O259 C252 1.255 . S
C260 O253 1.287 . S
C260 O254 1.255 . S
O261 Fe243 2.002 . S
O261 C257 1.295 . S
O262 Fe245 1.997 . S
O262 C257 1.235 . S
C263 O246 1.295 . S
C263 O247 1.235 . S
Fe264 O266 1.918 . S
Fe264 O269 1.997 . S
Fe264 O270 2.002 . S
Fe264 O275 1.976 . S
Fe264 O278 1.996 . S
Fe265 O266 1.918 . S
Fe265 O273 1.997 . S
Fe265 O276 1.996 . S
Fe265 O280 1.976 . S
Fe265 O283 2.002 . S
O266 Fe264 1.918 . S
O266 Fe265 1.918 . S
O266 Fe267 1.918 . S
Fe267 O266 1.918 . S
Fe267 O268 2.002 . S
Fe267 O277 1.976 . S
Fe267 O281 1.996 . S
Fe267 O284 1.997 . S
O268 Fe267 2.002 . S
O268 C285 1.295 . S
O269 Fe264 1.997 . S
O269 C285 1.235 . S
O270 Fe264 2.002 . S
O270 C271 1.295 . S
C271 O270 1.295 . S
C271 O273 1.235 . S
C272 O277 1.287 . S
C272 O278 1.255 . S
O273 Fe265 1.997 . S
O273 C271 1.235 . S
C274 O280 1.287 . S
C274 O281 1.255 . S
O275 Fe264 1.976 . S
O275 C282 1.287 . S
O276 Fe265 1.996 . S
O276 C282 1.255 . S
O277 Fe267 1.976 . S
O277 C272 1.287 . S
O278 Fe264 1.996 . S
O278 C272 1.255 . S
C279 O283 1.295 . S
C279 O284 1.235 . S
O280 Fe265 1.976 . S
O280 C274 1.287 . S
O281 Fe267 1.996 . S
O281 C274 1.255 . S
C282 O275 1.287 . S
C282 O276 1.255 . S
O283 Fe265 2.002 . S
O283 C279 1.295 . S
O284 Fe267 1.997 . S
O284 C279 1.235 . S
C285 O268 1.295 . S
C285 O269 1.235 . S
Fe286 O288 1.918 . S
Fe286 O291 1.997 . S
Fe286 O292 2.002 . S
Fe286 O297 1.976 . S
Fe286 O300 1.996 . S
Fe287 O288 1.918 . S
Fe287 O295 1.997 . S
Fe287 O298 1.996 . S
Fe287 O302 1.976 . S
Fe287 O305 2.002 . S
O288 Fe286 1.918 . S
O288 Fe287 1.918 . S
O288 Fe289 1.918 . S
Fe289 O288 1.918 . S
Fe289 O290 2.002 . S
Fe289 O299 1.976 . S
Fe289 O303 1.996 . S
Fe289 O306 1.997 . S
O290 Fe289 2.002 . S
O290 C307 1.295 . S
O291 Fe286 1.997 . S
O291 C307 1.235 . S
O292 Fe286 2.002 . S
O292 C293 1.295 . S
C293 O292 1.295 . S
C293 O295 1.235 . S
C294 O299 1.287 . S
C294 O300 1.255 . S
O295 Fe287 1.997 . S
O295 C293 1.235 . S
C296 O302 1.287 . S
C296 O303 1.255 . S
O297 Fe286 1.976 . S
O297 C304 1.287 . S
O298 Fe287 1.996 . S
O298 C304 1.255 . S
O299 Fe289 1.976 . S
O299 C294 1.287 . S
O300 Fe286 1.996 . S
O300 C294 1.255 . S
C301 O305 1.295 . S
C301 O306 1.235 . S
O302 Fe287 1.976 . S
O302 C296 1.287 . S
O303 Fe289 1.996 . S
O303 C296 1.255 . S
C304 O297 1.287 . S
C304 O298 1.255 . S
O305 Fe287 2.002 . S
O305 C301 1.295 . S
O306 Fe289 1.997 . S
O306 C301 1.235 . S
C307 O290 1.295 . S
C307 O291 1.235 . S
Fe308 O310 1.918 . S
Fe308 O313 1.997 . S
Fe308 O314 2.002 . S
Fe308 O319 1.976 . S
Fe308 O322 1.996 . S
Fe309 O310 1.918 . S
Fe309 O317 1.997 . S
Fe309 O320 1.996 . S
Fe309 O324 1.976 . S
Fe309 O327 2.002 . S
O310 Fe308 1.918 . S
O310 Fe309 1.918 . S
O310 Fe311 1.918 . S
Fe311 O310 1.918 . S
Fe311 O312 2.002 . S
Fe311 O321 1.976 . S
Fe311 O325 1.996 . S
Fe311 O328 1.997 . S
O312 Fe311 2.002 . S
O312 C329 1.295 . S
O313 Fe308 1.997 . S
O313 C329 1.235 . S
O314 Fe308 2.002 . S
O314 C315 1.295 . S
C315 O314 1.295 . S
C315 O317 1.235 . S
C316 O321 1.287 . S
C316 O322 1.255 . S
O317 Fe309 1.997 . S
O317 C315 1.235 . S
C318 O324 1.287 . S
C318 O325 1.255 . S
O319 Fe308 1.976 . S
O319 C326 1.287 . S
O320 Fe309 1.996 . S
O320 C326 1.255 . S
O321 Fe311 1.976 . S
O321 C316 1.287 . S
O322 Fe308 1.996 . S
O322 C316 1.255 . S
C323 O327 1.295 . S
C323 O328 1.235 . S
O324 Fe309 1.976 . S
O324 C318 1.287 . S
O325 Fe311 1.996 . S
O325 C318 1.255 . S
C326 O319 1.287 . S
C326 O320 1.255 . S
O327 Fe309 2.002 . S
O327 C323 1.295 . S
O328 Fe311 1.997 . S
O328 C323 1.235 . S
C329 O312 1.295 . S
C329 O313 1.235 . S
Fe330 O332 1.918 . S
Fe330 O335 1.997 . S
Fe330 O336 2.002 . S
Fe330 O341 1.976 . S
Fe330 O344 1.996 . S
Fe331 O332 1.918 . S
Fe331 O339 1.997 . S
Fe331 O342 1.996 . S
Fe331 O346 1.976 . S
Fe331 O349 2.002 . S
O332 Fe330 1.918 . S
O332 Fe331 1.918 . S
O332 Fe333 1.918 . S
Fe333 O332 1.918 . S
Fe333 O334 2.002 . S
Fe333 O343 1.976 . S
Fe333 O347 1.996 . S
Fe333 O350 1.997 . S
O334 Fe333 2.002 . S
O334 C351 1.295 . S
O335 Fe330 1.997 . S
O335 C351 1.235 . S
O336 Fe330 2.002 . S
O336 C337 1.295 . S
C337 O336 1.295 . S
C337 O339 1.235 . S
C338 O343 1.287 . S
C338 O344 1.255 . S
O339 Fe331 1.997 . S
O339 C337 1.235 . S
C340 O346 1.287 . S
C340 O347 1.255 . S
O341 Fe330 1.976 . S
O341 C348 1.287 . S
O342 Fe331 1.996 . S
O342 C348 1.255 . S
O343 Fe333 1.976 . S
O343 C338 1.287 . S
O344 Fe330 1.996 . S
O344 C338 1.255 . S
C345 O349 1.295 . S
C345 O350 1.235 . S
O346 Fe331 1.976 . S
O346 C340 1.287 . S
O347 Fe333 1.996 . S
O347 C340 1.255 . S
C348 O341 1.287 . S
C348 O342 1.255 . S
O349 Fe331 2.002 . S
O349 C345 1.295 . S
O350 Fe333 1.997 . S
O350 C345 1.235 . S
C351 O334 1.295 . S
C351 O335 1.235 . S
C352 C353 1.391 . S
C352 C354 1.394 . S
C352 H368 0.931 . S
C353 C352 1.391 . S
C353 C357 1.376 . S
C354 C352 1.394 . S
C354 C355 1.369 . S
C354 C358 1.531 . S
C355 C354 1.369 . S
C355 C356 1.410 . S
C355 C363 1.503 . S
C356 C355 1.410 . S
C356 C357 1.392 . S
C356 C359 1.511 . S
C357 C353 1.376 . S
C357 C356 1.392 . S
C357 H369 0.929 . S
C358 C354 1.531 . S
C358 H370 0.960 . S
C358 H371 0.962 . S
C358 H372 0.960 . S
C359 C356 1.511 . S
C359 H373 0.961 . S
C359 H374 0.961 . S
C359 H375 0.961 . S
C360 C361 1.370 . S
C360 C362 1.363 . S
C360 H376 0.931 . S
C361 C360 1.370 . S
C361 C365 1.408 . S
C362 C360 1.363 . S
C362 C363 1.370 . S
C362 C366 1.524 . S
C363 C355 1.503 . S
C363 C362 1.370 . S
C363 C364 1.403 . S
C364 C363 1.403 . S
C364 C365 1.404 . S
C364 C367 1.539 . S
C365 C361 1.408 . S
C365 C364 1.404 . S
C365 H377 0.930 . S
C366 C362 1.524 . S
C366 H378 0.956 . S
C366 H379 0.961 . S
C366 H380 0.961 . S
C367 C364 1.539 . S
C367 H381 0.958 . S
C367 H382 0.961 . S
C367 H383 0.960 . S
H368 C352 0.931 . S
H369 C357 0.929 . S
H370 C358 0.960 . S
H371 C358 0.962 . S
H372 C358 0.960 . S
H373 C359 0.961 . S
H374 C359 0.961 . S
H375 C359 0.961 . S
H376 C360 0.931 . S
H377 C365 0.930 . S
H378 C366 0.956 . S
H379 C366 0.961 . S
H380 C366 0.961 . S
H381 C367 0.958 . S
H382 C367 0.961 . S
H383 C367 0.960 . S
C384 C385 1.391 . S
C384 C386 1.394 . S
C384 H400 0.931 . S
C385 C384 1.391 . S
C385 C389 1.376 . S
C386 C384 1.394 . S
C386 C387 1.369 . S
C386 C390 1.531 . S
C387 C386 1.369 . S
C387 C388 1.410 . S
C387 C395 1.503 . S
C388 C387 1.410 . S
C388 C389 1.392 . S
C388 C391 1.511 . S
C389 C385 1.376 . S
C389 C388 1.392 . S
C389 H401 0.929 . S
C390 C386 1.531 . S
C390 H402 0.960 . S
C390 H403 0.962 . S
C390 H404 0.960 . S
C391 C388 1.511 . S
C391 H405 0.961 . S
C391 H406 0.961 . S
C391 H407 0.961 . S
C392 C393 1.370 . S
C392 C394 1.363 . S
C392 H408 0.931 . S
C393 C392 1.370 . S
C393 C397 1.408 . S
C394 C392 1.363 . S
C394 C395 1.370 . S
C394 C398 1.524 . S
C395 C387 1.503 . S
C395 C394 1.370 . S
C395 C396 1.403 . S
C396 C395 1.403 . S
C396 C397 1.404 . S
C396 C399 1.539 . S
C397 C393 1.408 . S
C397 C396 1.404 . S
C397 H409 0.930 . S
C398 C394 1.524 . S
C398 H410 0.956 . S
C398 H411 0.961 . S
C398 H412 0.961 . S
C399 C396 1.539 . S
C399 H413 0.958 . S
C399 H414 0.961 . S
C399 H415 0.960 . S
H400 C384 0.931 . S
H401 C389 0.929 . S
H402 C390 0.960 . S
H403 C390 0.962 . S
H404 C390 0.960 . S
H405 C391 0.961 . S
H406 C391 0.961 . S
H407 C391 0.961 . S
H408 C392 0.931 . S
H409 C397 0.930 . S
H410 C398 0.956 . S
H411 C398 0.961 . S
H412 C398 0.961 . S
H413 C399 0.958 . S
H414 C399 0.961 . S
H415 C399 0.960 . S
C416 C417 1.391 . S
C416 C418 1.394 . S
C416 H432 0.931 . S
C417 C416 1.391 . S
C417 C421 1.376 . S
C418 C416 1.394 . S
C418 C419 1.369 . S
C418 C422 1.531 . S
C419 C418 1.369 . S
C419 C420 1.410 . S
C419 C427 1.503 . S
C420 C419 1.410 . S
C420 C421 1.392 . S
C420 C423 1.511 . S
C421 C417 1.376 . S
C421 C420 1.392 . S
C421 H433 0.929 . S
C422 C418 1.531 . S
C422 H434 0.960 . S
C422 H435 0.962 . S
C422 H436 0.960 . S
C423 C420 1.511 . S
C423 H437 0.961 . S
C423 H438 0.961 . S
C423 H439 0.961 . S
C424 C425 1.370 . S
C424 C426 1.363 . S
C424 H440 0.931 . S
C425 C424 1.370 . S
C425 C429 1.408 . S
C426 C424 1.363 . S
C426 C427 1.370 . S
C426 C430 1.524 . S
C427 C419 1.503 . S
C427 C426 1.370 . S
C427 C428 1.403 . S
C428 C427 1.403 . S
C428 C429 1.404 . S
C428 C431 1.539 . S
C429 C425 1.408 . S
C429 C428 1.404 . S
C429 H441 0.930 . S
C430 C426 1.524 . S
C430 H442 0.956 . S
C430 H443 0.961 . S
C430 H444 0.961 . S
C431 C428 1.539 . S
C431 H445 0.958 . S
C431 H446 0.961 . S
C431 H447 0.960 . S
H432 C416 0.931 . S
H433 C421 0.929 . S
H434 C422 0.960 . S
H435 C422 0.962 . S
H436 C422 0.960 . S
H437 C423 0.961 . S
H438 C423 0.961 . S
H439 C423 0.961 . S
H440 C424 0.931 . S
H441 C429 0.930 . S
H442 C430 0.956 . S
H443 C430 0.961 . S
H444 C430 0.961 . S
H445 C431 0.958 . S
H446 C431 0.961 . S
H447 C431 0.960 . S
C448 C449 1.391 . S
C448 C450 1.394 . S
C448 H464 0.931 . S
C449 C448 1.391 . S
C449 C453 1.376 . S
C450 C448 1.394 . S
C450 C451 1.369 . S
C450 C454 1.531 . S
C451 C450 1.369 . S
C451 C452 1.410 . S
C451 C459 1.503 . S
C452 C451 1.410 . S
C452 C453 1.392 . S
C452 C455 1.511 . S
C453 C449 1.376 . S
C453 C452 1.392 . S
C453 H465 0.929 . S
C454 C450 1.531 . S
C454 H466 0.960 . S
C454 H467 0.962 . S
C454 H468 0.960 . S
C455 C452 1.511 . S
C455 H469 0.961 . S
C455 H470 0.961 . S
C455 H471 0.961 . S
C456 C457 1.370 . S
C456 C458 1.363 . S
C456 H472 0.931 . S
C457 C456 1.370 . S
C457 C461 1.408 . S
C458 C456 1.363 . S
C458 C459 1.370 . S
C458 C462 1.524 . S
C459 C451 1.503 . S
C459 C458 1.370 . S
C459 C460 1.403 . S
C460 C459 1.403 . S
C460 C461 1.404 . S
C460 C463 1.539 . S
C461 C457 1.408 . S
C461 C460 1.404 . S
C461 H473 0.930 . S
C462 C458 1.524 . S
C462 H474 0.956 . S
C462 H475 0.961 . S
C462 H476 0.961 . S
C463 C460 1.539 . S
C463 H477 0.958 . S
C463 H478 0.961 . S
C463 H479 0.960 . S
H464 C448 0.931 . S
H465 C453 0.929 . S
H466 C454 0.960 . S
H467 C454 0.962 . S
H468 C454 0.960 . S
H469 C455 0.961 . S
H470 C455 0.961 . S
H471 C455 0.961 . S
H472 C456 0.931 . S
H473 C461 0.930 . S
H474 C462 0.956 . S
H475 C462 0.961 . S
H476 C462 0.961 . S
H477 C463 0.958 . S
H478 C463 0.961 . S
H479 C463 0.960 . S
C480 C481 1.391 . S
C480 C482 1.394 . S
C480 H496 0.931 . S
C481 C480 1.391 . S
C481 C485 1.376 . S
C482 C480 1.394 . S
C482 C483 1.369 . S
C482 C486 1.531 . S
C483 C482 1.369 . S
C483 C484 1.410 . S
C483 C491 1.503 . S
C484 C483 1.410 . S
C484 C485 1.392 . S
C484 C487 1.511 . S
C485 C481 1.376 . S
C485 C484 1.392 . S
C485 H497 0.929 . S
C486 C482 1.531 . S
C486 H498 0.960 . S
C486 H499 0.962 . S
C486 H500 0.960 . S
C487 C484 1.511 . S
C487 H501 0.961 . S
C487 H502 0.961 . S
C487 H503 0.961 . S
C488 C489 1.370 . S
C488 C490 1.363 . S
C488 H504 0.931 . S
C489 C488 1.370 . S
C489 C493 1.408 . S
C490 C488 1.363 . S
C490 C491 1.370 . S
C490 C494 1.524 . S
C491 C483 1.503 . S
C491 C490 1.370 . S
C491 C492 1.403 . S
C492 C491 1.403 . S
C492 C493 1.404 . S
C492 C495 1.539 . S
C493 C489 1.408 . S
C493 C492 1.404 . S
C493 H505 0.930 . S
C494 C490 1.524 . S
C494 H506 0.956 . S
C494 H507 0.961 . S
C494 H508 0.961 . S
C495 C492 1.539 . S
C495 H509 0.958 . S
C495 H510 0.961 . S
C495 H511 0.960 . S
H496 C480 0.931 . S
H497 C485 0.929 . S
H498 C486 0.960 . S
H499 C486 0.962 . S
H500 C486 0.960 . S
H501 C487 0.961 . S
H502 C487 0.961 . S
H503 C487 0.961 . S
H504 C488 0.931 . S
H505 C493 0.930 . S
H506 C494 0.956 . S
H507 C494 0.961 . S
H508 C494 0.961 . S
H509 C495 0.958 . S
H510 C495 0.961 . S
H511 C495 0.960 . S
C512 C513 1.391 . S
C512 C514 1.394 . S
C512 H528 0.931 . S
C513 C512 1.391 . S
C513 C517 1.376 . S
C514 C512 1.394 . S
C514 C515 1.369 . S
C514 C518 1.531 . S
C515 C514 1.369 . S
C515 C516 1.410 . S
C515 C523 1.503 . S
C516 C515 1.410 . S
C516 C517 1.392 . S
C516 C519 1.511 . S
C517 C513 1.376 . S
C517 C516 1.392 . S
C517 H529 0.929 . S
C518 C514 1.531 . S
C518 H530 0.960 . S
C518 H531 0.962 . S
C518 H532 0.960 . S
C519 C516 1.511 . S
C519 H533 0.961 . S
C519 H534 0.961 . S
C519 H535 0.961 . S
C520 C521 1.370 . S
C520 C522 1.363 . S
C520 H536 0.931 . S
C521 C520 1.370 . S
C521 C525 1.408 . S
C522 C520 1.363 . S
C522 C523 1.370 . S
C522 C526 1.524 . S
C523 C515 1.503 . S
C523 C522 1.370 . S
C523 C524 1.403 . S
C524 C523 1.403 . S
C524 C525 1.404 . S
C524 C527 1.539 . S
C525 C521 1.408 . S
C525 C524 1.404 . S
C525 H537 0.930 . S
C526 C522 1.524 . S
C526 H538 0.956 . S
C526 H539 0.961 . S
C526 H540 0.961 . S
C527 C524 1.539 . S
C527 H541 0.958 . S
C527 H542 0.961 . S
C527 H543 0.960 . S
H528 C512 0.931 . S
H529 C517 0.929 . S
H530 C518 0.960 . S
H531 C518 0.962 . S
H532 C518 0.960 . S
H533 C519 0.961 . S
H534 C519 0.961 . S
H535 C519 0.961 . S
H536 C520 0.931 . S
H537 C525 0.930 . S
H538 C526 0.956 . S
H539 C526 0.961 . S
H540 C526 0.961 . S
H541 C527 0.958 . S
H542 C527 0.961 . S
H543 C527 0.960 . S
C544 C545 1.391 . S
C544 C546 1.394 . S
C544 H560 0.931 . S
C545 C544 1.391 . S
C545 C549 1.376 . S
C546 C544 1.394 . S
C546 C547 1.369 . S
C546 C550 1.531 . S
C547 C546 1.369 . S
C547 C548 1.410 . S
C547 C555 1.503 . S
C548 C547 1.410 . S
C548 C549 1.392 . S
C548 C551 1.511 . S
C549 C545 1.376 . S
C549 C548 1.392 . S
C549 H561 0.929 . S
C550 C546 1.531 . S
C550 H562 0.960 . S
C550 H563 0.962 . S
C550 H564 0.960 . S
C551 C548 1.511 . S
C551 H565 0.961 . S
C551 H566 0.961 . S
C551 H567 0.961 . S
C552 C553 1.370 . S
C552 C554 1.363 . S
C552 H568 0.931 . S
C553 C552 1.370 . S
C553 C557 1.408 . S
C554 C552 1.363 . S
C554 C555 1.370 . S
C554 C558 1.524 . S
C555 C547 1.503 . S
C555 C554 1.370 . S
C555 C556 1.403 . S
C556 C555 1.403 . S
C556 C557 1.404 . S
C556 C559 1.539 . S
C557 C553 1.408 . S
C557 C556 1.404 . S
C557 H569 0.930 . S
C558 C554 1.524 . S
C558 H570 0.956 . S
C558 H571 0.961 . S
C558 H572 0.961 . S
C559 C556 1.539 . S
C559 H573 0.958 . S
C559 H574 0.961 . S
C559 H575 0.960 . S
H560 C544 0.931 . S
H561 C549 0.929 . S
H562 C550 0.960 . S
H563 C550 0.962 . S
H564 C550 0.960 . S
H565 C551 0.961 . S
H566 C551 0.961 . S
H567 C551 0.961 . S
H568 C552 0.931 . S
H569 C557 0.930 . S
H570 C558 0.956 . S
H571 C558 0.961 . S
H572 C558 0.961 . S
H573 C559 0.958 . S
H574 C559 0.961 . S
H575 C559 0.960 . S
C576 C577 1.391 . S
C576 C578 1.394 . S
C576 H592 0.931 1_655 S
C577 C576 1.391 . S
C577 C581 1.376 . S
C578 C576 1.394 . S
C578 C579 1.369 . S
C578 C582 1.531 . S
C579 C578 1.369 . S
C579 C580 1.410 . S
C579 C587 1.503 . S
C580 C579 1.410 . S
C580 C581 1.392 . S
C580 C583 1.511 . S
C581 C577 1.376 . S
C581 C580 1.392 . S
C581 H593 0.929 . S
C582 C578 1.531 . S
C582 H594 0.960 . S
C582 H595 0.962 . S
C582 H596 0.960 . S
C583 C580 1.511 . S
C583 H597 0.961 . S
C583 H598 0.961 . S
C583 H599 0.961 . S
C584 C585 1.370 . S
C584 C586 1.363 . S
C584 H600 0.931 . S
C585 C584 1.370 . S
C585 C589 1.408 . S
C586 C584 1.363 . S
C586 C587 1.370 . S
C586 C590 1.524 . S
C587 C579 1.503 . S
C587 C586 1.370 . S
C587 C588 1.403 . S
C588 C587 1.403 . S
C588 C589 1.404 . S
C588 C591 1.539 . S
C589 C585 1.408 . S
C589 C588 1.404 . S
C589 H601 0.930 . S
C590 C586 1.524 . S
C590 H602 0.956 . S
C590 H603 0.961 . S
C590 H604 0.961 . S
C591 C588 1.539 . S
C591 H605 0.958 . S
C591 H606 0.961 . S
C591 H607 0.960 . S
H592 C576 0.931 1_455 S
H593 C581 0.929 . S
H594 C582 0.960 . S
H595 C582 0.962 . S
H596 C582 0.960 . S
H597 C583 0.961 . S
H598 C583 0.961 . S
H599 C583 0.961 . S
H600 C584 0.931 . S
H601 C589 0.930 . S
H602 C590 0.956 . S
H603 C590 0.961 . S
H604 C590 0.961 . S
H605 C591 0.958 . S
H606 C591 0.961 . S
H607 C591 0.960 . S
C608 C609 1.391 . S
C608 C610 1.394 . S
C608 H624 0.931 . S
C609 C608 1.391 . S
C609 C613 1.376 . S
C610 C608 1.394 . S
C610 C611 1.369 . S
C610 C614 1.531 . S
C611 C610 1.369 . S
C611 C612 1.410 . S
C611 C619 1.503 . S
C612 C611 1.410 . S
C612 C613 1.392 . S
C612 C615 1.511 . S
C613 C609 1.376 . S
C613 C612 1.392 . S
C613 H625 0.929 . S
C614 C610 1.531 . S
C614 H626 0.960 . S
C614 H627 0.962 . S
C614 H628 0.960 . S
C615 C612 1.511 . S
C615 H629 0.961 . S
C615 H630 0.961 . S
C615 H631 0.961 . S
C616 C617 1.370 . S
C616 C618 1.363 . S
C616 H632 0.931 . S
C617 C616 1.370 . S
C617 C621 1.408 . S
C618 C616 1.363 . S
C618 C619 1.370 . S
C618 C622 1.524 . S
C619 C611 1.503 . S
C619 C618 1.370 . S
C619 C620 1.403 . S
C620 C619 1.403 . S
C620 C621 1.404 . S
C620 C623 1.539 . S
C621 C617 1.408 . S
C621 C620 1.404 . S
C621 H633 0.930 . S
C622 C618 1.524 . S
C622 H634 0.956 . S
C622 H635 0.961 . S
C622 H636 0.961 . S
C623 C620 1.539 . S
C623 H637 0.958 . S
C623 H638 0.961 . S
C623 H639 0.960 . S
H624 C608 0.931 . S
H625 C613 0.929 . S
H626 C614 0.960 . S
H627 C614 0.962 . S
H628 C614 0.960 . S
H629 C615 0.961 . S
H630 C615 0.961 . S
H631 C615 0.961 . S
H632 C616 0.931 . S
H633 C621 0.930 . S
H634 C622 0.956 . S
H635 C622 0.961 . S
H636 C622 0.961 . S
H637 C623 0.958 . S
H638 C623 0.961 . S
H639 C623 0.960 . S
C640 C641 1.391 . S
C640 C642 1.394 . S
C640 H656 0.931 . S
C641 C640 1.391 . S
C641 C645 1.376 . S
C642 C640 1.394 . S
C642 C643 1.369 . S
C642 C646 1.531 . S
C643 C642 1.369 . S
C643 C644 1.410 . S
C643 C651 1.503 . S
C644 C643 1.410 . S
C644 C645 1.392 . S
C644 C647 1.511 . S
C645 C641 1.376 . S
C645 C644 1.392 . S
C645 H657 0.929 . S
C646 C642 1.531 . S
C646 H658 0.960 . S
C646 H659 0.962 . S
C646 H660 0.960 . S
C647 C644 1.511 . S
C647 H661 0.961 . S
C647 H662 0.961 . S
C647 H663 0.961 . S
C648 C649 1.370 . S
C648 C650 1.363 . S
C648 H664 0.931 . S
C649 C648 1.370 . S
C649 C653 1.408 . S
C650 C648 1.363 . S
C650 C651 1.370 . S
C650 C654 1.524 . S
C651 C643 1.503 . S
C651 C650 1.370 . S
C651 C652 1.403 . S
C652 C651 1.403 . S
C652 C653 1.404 . S
C652 C655 1.539 . S
C653 C649 1.408 . S
C653 C652 1.404 . S
C653 H665 0.930 . S
C654 C650 1.524 . S
C654 H666 0.956 . S
C654 H667 0.961 . S
C654 H668 0.961 . S
C655 C652 1.539 . S
C655 H669 0.958 . S
C655 H670 0.961 . S
C655 H671 0.960 . S
H656 C640 0.931 . S
H657 C645 0.929 . S
H658 C646 0.960 . S
H659 C646 0.962 . S
H660 C646 0.960 . S
H661 C647 0.961 . S
H662 C647 0.961 . S
H663 C647 0.961 . S
H664 C648 0.931 . S
H665 C653 0.930 . S
H666 C654 0.956 . S
H667 C654 0.961 . S
H668 C654 0.961 . S
H669 C655 0.958 . S
H670 C655 0.961 . S
H671 C655 0.960 . S
C672 C673 1.391 . S
C672 C674 1.394 . S
C672 H688 0.931 . S
C673 C672 1.391 . S
C673 C677 1.376 . S
C674 C672 1.394 . S
C674 C675 1.369 . S
C674 C678 1.531 . S
C675 C674 1.369 . S
C675 C676 1.410 . S
C675 C683 1.503 . S
C676 C675 1.410 . S
C676 C677 1.392 . S
C676 C679 1.511 . S
C677 C673 1.376 . S
C677 C676 1.392 . S
C677 H689 0.929 . S
C678 C674 1.531 . S
C678 H690 0.960 . S
C678 H691 0.962 . S
C678 H692 0.960 . S
C679 C676 1.511 . S
C679 H693 0.961 . S
C679 H694 0.961 . S
C679 H695 0.961 . S
C680 C681 1.370 . S
C680 C682 1.363 . S
C680 H696 0.931 . S
C681 C680 1.370 . S
C681 C685 1.408 . S
C682 C680 1.363 . S
C682 C683 1.370 . S
C682 C686 1.524 . S
C683 C675 1.503 . S
C683 C682 1.370 . S
C683 C684 1.403 . S
C684 C683 1.403 . S
C684 C685 1.404 . S
C684 C687 1.539 . S
C685 C681 1.408 . S
C685 C684 1.404 . S
C685 H697 0.930 . S
C686 C682 1.524 . S
C686 H698 0.956 . S
C686 H699 0.961 . S
C686 H700 0.961 . S
C687 C684 1.539 . S
C687 H701 0.958 . S
C687 H702 0.961 . S
C687 H703 0.960 . S
H688 C672 0.931 . S
H689 C677 0.929 . S
H690 C678 0.960 . S
H691 C678 0.962 . S
H692 C678 0.960 . S
H693 C679 0.961 . S
H694 C679 0.961 . S
H695 C679 0.961 . S
H696 C680 0.931 . S
H697 C685 0.930 . S
H698 C686 0.956 . S
H699 C686 0.961 . S
H700 C686 0.961 . S
H701 C687 0.958 . S
H702 C687 0.961 . S
H703 C687 0.960 . S
C704 C705 1.391 . S
C704 C706 1.394 . S
C704 H720 0.931 1_655 S
C705 C704 1.391 . S
C705 C709 1.376 . S
C706 C704 1.394 . S
C706 C707 1.369 . S
C706 C710 1.531 . S
C707 C706 1.369 . S
C707 C708 1.410 . S
C707 C715 1.503 . S
C708 C707 1.410 . S
C708 C709 1.392 . S
C708 C711 1.511 . S
C709 C705 1.376 . S
C709 C708 1.392 . S
C709 H721 0.929 . S
C710 C706 1.531 . S
C710 H722 0.960 . S
C710 H723 0.962 . S
C710 H724 0.960 . S
C711 C708 1.511 . S
C711 H725 0.961 . S
C711 H726 0.961 . S
C711 H727 0.961 . S
C712 C713 1.370 . S
C712 C714 1.363 . S
C712 H728 0.931 . S
C713 C712 1.370 . S
C713 C717 1.408 . S
C714 C712 1.363 . S
C714 C715 1.370 . S
C714 C718 1.524 . S
C715 C707 1.503 . S
C715 C714 1.370 . S
C715 C716 1.403 . S
C716 C715 1.403 . S
C716 C717 1.404 . S
C716 C719 1.539 . S
C717 C713 1.408 . S
C717 C716 1.404 . S
C717 H729 0.930 . S
C718 C714 1.524 . S
C718 H730 0.956 . S
C718 H731 0.961 . S
C718 H732 0.961 . S
C719 C716 1.539 . S
C719 H733 0.958 . S
C719 H734 0.961 . S
C719 H735 0.960 . S
H720 C704 0.931 1_455 S
H721 C709 0.929 . S
H722 C710 0.960 . S
H723 C710 0.962 . S
H724 C710 0.960 . S
H725 C711 0.961 . S
H726 C711 0.961 . S
H727 C711 0.961 . S
H728 C712 0.931 . S
H729 C717 0.930 . S
H730 C718 0.956 . S
H731 C718 0.961 . S
H732 C718 0.961 . S
H733 C719 0.958 . S
H734 C719 0.961 . S
H735 C719 0.960 . S
C736 C737 1.391 . S
C736 C738 1.394 . S
C736 H752 0.931 . S
C737 C736 1.391 . S
C737 C741 1.376 . S
C738 C736 1.394 . S
C738 C739 1.369 . S
C738 C742 1.531 . S
C739 C738 1.369 . S
C739 C740 1.410 . S
C739 C747 1.503 . S
C740 C739 1.410 . S
C740 C741 1.392 . S
C740 C743 1.511 . S
C741 C737 1.376 . S
C741 C740 1.392 . S
C741 H753 0.929 1_545 S
C742 C738 1.531 . S
C742 H754 0.960 . S
C742 H755 0.962 . S
C742 H756 0.960 . S
C743 C740 1.511 . S
C743 H757 0.961 . S
C743 H758 0.961 . S
C743 H759 0.961 . S
C744 C745 1.370 . S
C744 C746 1.363 . S
C744 H760 0.931 . S
C745 C744 1.370 . S
C745 C749 1.408 . S
C746 C744 1.363 . S
C746 C747 1.370 . S
C746 C750 1.524 . S
C747 C739 1.503 . S
C747 C746 1.370 . S
C747 C748 1.403 . S
C748 C747 1.403 . S
C748 C749 1.404 . S
C748 C751 1.539 . S
C749 C745 1.408 . S
C749 C748 1.404 . S
C749 H761 0.930 . S
C750 C746 1.524 . S
C750 H762 0.956 . S
C750 H763 0.961 . S
C750 H764 0.961 . S
C751 C748 1.539 . S
C751 H765 0.958 . S
C751 H766 0.961 . S
C751 H767 0.960 . S
H752 C736 0.931 . S
H753 C741 0.929 1_565 S
H754 C742 0.960 . S
H755 C742 0.962 . S
H756 C742 0.960 . S
H757 C743 0.961 . S
H758 C743 0.961 . S
H759 C743 0.961 . S
H760 C744 0.931 . S
H761 C749 0.930 . S
H762 C750 0.956 . S
H763 C750 0.961 . S
H764 C750 0.961 . S
H765 C751 0.958 . S
H766 C751 0.961 . S
H767 C751 0.960 . S
C768 C769 1.391 . S
C768 C770 1.394 . S
C768 H784 0.931 1_655 S
C769 C768 1.391 . S
C769 C773 1.376 . S
C770 C768 1.394 . S
C770 C771 1.369 . S
C770 C774 1.531 . S
C771 C770 1.369 . S
C771 C772 1.410 . S
C771 C779 1.503 . S
C772 C771 1.410 . S
C772 C773 1.392 . S
C772 C775 1.511 . S
C773 C769 1.376 . S
C773 C772 1.392 . S
C773 H785 0.929 . S
C774 C770 1.531 . S
C774 H786 0.960 . S
C774 H787 0.962 . S
C774 H788 0.960 . S
C775 C772 1.511 . S
C775 H789 0.961 . S
C775 H790 0.961 . S
C775 H791 0.961 . S
C776 C777 1.370 . S
C776 C778 1.363 . S
C776 H792 0.931 . S
C777 C776 1.370 . S
C777 C781 1.408 . S
C778 C776 1.363 . S
C778 C779 1.370 . S
C778 C782 1.524 . S
C779 C771 1.503 . S
C779 C778 1.370 . S
C779 C780 1.403 . S
C780 C779 1.403 . S
C780 C781 1.404 . S
C780 C783 1.539 . S
C781 C777 1.408 . S
C781 C780 1.404 . S
C781 H793 0.930 . S
C782 C778 1.524 . S
C782 H794 0.956 . S
C782 H795 0.961 . S
C782 H796 0.961 . S
C783 C780 1.539 . S
C783 H797 0.958 . S
C783 H798 0.961 . S
C783 H799 0.960 . S
H784 C768 0.931 1_455 S
H785 C773 0.929 . S
H786 C774 0.960 . S
H787 C774 0.962 . S
H788 C774 0.960 . S
H789 C775 0.961 . S
H790 C775 0.961 . S
H791 C775 0.961 . S
H792 C776 0.931 . S
H793 C781 0.930 . S
H794 C782 0.956 . S
H795 C782 0.961 . S
H796 C782 0.961 . S
H797 C783 0.958 . S
H798 C783 0.961 . S
H799 C783 0.960 . S
C800 C801 1.391 . S
C800 C802 1.394 . S
C800 H816 0.931 . S
C801 C800 1.391 . S
C801 C805 1.376 . S
C802 C800 1.394 . S
C802 C803 1.369 . S
C802 C806 1.531 . S
C803 C802 1.369 . S
C803 C804 1.410 . S
C803 C811 1.503 . S
C804 C803 1.410 . S
C804 C805 1.392 . S
C804 C807 1.511 . S
C805 C801 1.376 . S
C805 C804 1.392 . S
C805 H817 0.929 . S
C806 C802 1.531 . S
C806 H818 0.960 . S
C806 H819 0.962 . S
C806 H820 0.960 . S
C807 C804 1.511 . S
C807 H821 0.961 . S
C807 H822 0.961 . S
C807 H823 0.961 . S
C808 C809 1.370 . S
C808 C810 1.363 . S
C808 H824 0.931 . S
C809 C808 1.370 . S
C809 C813 1.408 . S
C810 C808 1.363 . S
C810 C811 1.370 . S
C810 C814 1.524 . S
C811 C803 1.503 . S
C811 C810 1.370 . S
C811 C812 1.403 . S
C812 C811 1.403 . S
C812 C813 1.404 . S
C812 C815 1.539 . S
C813 C809 1.408 . S
C813 C812 1.404 . S
C813 H825 0.930 . S
C814 C810 1.524 . S
C814 H826 0.956 . S
C814 H827 0.961 . S
C814 H828 0.961 . S
C815 C812 1.539 . S
C815 H829 0.958 . S
C815 H830 0.961 . S
C815 H831 0.960 . S
H816 C800 0.931 . S
H817 C805 0.929 . S
H818 C806 0.960 . S
H819 C806 0.962 . S
H820 C806 0.960 . S
H821 C807 0.961 . S
H822 C807 0.961 . S
H823 C807 0.961 . S
H824 C808 0.931 . S
H825 C813 0.930 . S
H826 C814 0.956 . S
H827 C814 0.961 . S
H828 C814 0.961 . S
H829 C815 0.958 . S
H830 C815 0.961 . S
H831 C815 0.960 . S
C832 C833 1.391 . S
C832 C834 1.394 . S
C832 H848 0.931 . S
C833 C832 1.391 . S
C833 C837 1.376 . S
C834 C832 1.394 . S
C834 C835 1.369 . S
C834 C838 1.531 . S
C835 C834 1.369 . S
C835 C836 1.410 . S
C835 C843 1.503 . S
C836 C835 1.410 . S
C836 C837 1.392 . S
C836 C839 1.511 . S
C837 C833 1.376 . S
C837 C836 1.392 . S
C837 H849 0.929 . S
C838 C834 1.531 . S
C838 H850 0.960 . S
C838 H851 0.962 . S
C838 H852 0.960 . S
C839 C836 1.511 . S
C839 H853 0.961 . S
C839 H854 0.961 . S
C839 H855 0.961 . S
C840 C841 1.370 . S
C840 C842 1.363 . S
C840 H856 0.931 . S
C841 C840 1.370 . S
C841 C845 1.408 . S
C842 C840 1.363 . S
C842 C843 1.370 . S
C842 C846 1.524 . S
C843 C835 1.503 . S
C843 C842 1.370 . S
C843 C844 1.403 . S
C844 C843 1.403 . S
C844 C845 1.404 . S
C844 C847 1.539 . S
C845 C841 1.408 . S
C845 C844 1.404 . S
C845 H857 0.930 . S
C846 C842 1.524 . S
C846 H858 0.956 . S
C846 H859 0.961 . S
C846 H860 0.961 . S
C847 C844 1.539 . S
C847 H861 0.958 . S
C847 H862 0.961 . S
C847 H863 0.960 . S
H848 C832 0.931 . S
H849 C837 0.929 . S
H850 C838 0.960 . S
H851 C838 0.962 . S
H852 C838 0.960 . S
H853 C839 0.961 . S
H854 C839 0.961 . S
H855 C839 0.961 . S
H856 C840 0.931 . S
H857 C845 0.930 . S
H858 C846 0.956 . S
H859 C846 0.961 . S
H860 C846 0.961 . S
H861 C847 0.958 . S
H862 C847 0.961 . S
H863 C847 0.960 . S
C864 C865 1.391 . S
C864 C866 1.394 . S
C864 H880 0.931 . S
C865 C864 1.391 . S
C865 C869 1.376 . S
C866 C864 1.394 . S
C866 C867 1.369 . S
C866 C870 1.531 . S
C867 C866 1.369 . S
C867 C868 1.410 . S
C867 C875 1.503 . S
C868 C867 1.410 . S
C868 C869 1.392 . S
C868 C871 1.511 . S
C869 C865 1.376 . S
C869 C868 1.392 . S
C869 H881 0.929 . S
C870 C866 1.531 . S
C870 H882 0.960 . S
C870 H883 0.962 . S
C870 H884 0.960 . S
C871 C868 1.511 . S
C871 H885 0.961 . S
C871 H886 0.961 . S
C871 H887 0.961 . S
C872 C873 1.370 . S
C872 C874 1.363 . S
C872 H888 0.931 . S
C873 C872 1.370 . S
C873 C877 1.408 . S
C874 C872 1.363 . S
C874 C875 1.370 . S
C874 C878 1.524 . S
C875 C867 1.503 . S
C875 C874 1.370 . S
C875 C876 1.403 . S
C876 C875 1.403 . S
C876 C877 1.404 . S
C876 C879 1.539 . S
C877 C873 1.408 . S
C877 C876 1.404 . S
C877 H889 0.930 . S
C878 C874 1.524 . S
C878 H890 0.956 . S
C878 H891 0.961 . S
C878 H892 0.961 . S
C879 C876 1.539 . S
C879 H893 0.958 . S
C879 H894 0.961 . S
C879 H895 0.960 . S
H880 C864 0.931 . S
H881 C869 0.929 . S
H882 C870 0.960 . S
H883 C870 0.962 . S
H884 C870 0.960 . S
H885 C871 0.961 . S
H886 C871 0.961 . S
H887 C871 0.961 . S
H888 C872 0.931 . S
H889 C877 0.930 . S
H890 C878 0.956 . S
H891 C878 0.961 . S
H892 C878 0.961 . S
H893 C879 0.958 . S
H894 C879 0.961 . S
H895 C879 0.960 . S
C896 C897 1.391 . S
C896 C898 1.394 . S
C896 H912 0.931 . S
C897 C896 1.391 . S
C897 C901 1.376 . S
C898 C896 1.394 . S
C898 C899 1.369 . S
C898 C902 1.531 . S
C899 C898 1.369 . S
C899 C900 1.410 . S
C899 C907 1.503 . S
C900 C899 1.410 . S
C900 C901 1.392 . S
C900 C903 1.511 . S
C901 C897 1.376 . S
C901 C900 1.392 . S
C901 H913 0.929 . S
C902 C898 1.531 . S
C902 H914 0.960 . S
C902 H915 0.962 . S
C902 H916 0.960 . S
C903 C900 1.511 . S
C903 H917 0.961 . S
C903 H918 0.961 . S
C903 H919 0.961 . S
C904 C905 1.370 . S
C904 C906 1.363 . S
C904 H920 0.931 . S
C905 C904 1.370 . S
C905 C909 1.408 . S
C906 C904 1.363 . S
C906 C907 1.370 . S
C906 C910 1.524 . S
C907 C899 1.503 . S
C907 C906 1.370 . S
C907 C908 1.403 . S
C908 C907 1.403 . S
C908 C909 1.404 . S
C908 C911 1.539 . S
C909 C905 1.408 . S
C909 C908 1.404 . S
C909 H921 0.930 . S
C910 C906 1.524 . S
C910 H922 0.956 . S
C910 H923 0.961 . S
C910 H924 0.961 . S
C911 C908 1.539 . S
C911 H925 0.958 . S
C911 H926 0.961 . S
C911 H927 0.960 . S
H912 C896 0.931 . S
H913 C901 0.929 . S
H914 C902 0.960 . S
H915 C902 0.962 . S
H916 C902 0.960 . S
H917 C903 0.961 . S
H918 C903 0.961 . S
H919 C903 0.961 . S
H920 C904 0.931 . S
H921 C909 0.930 . S
H922 C910 0.956 . S
H923 C910 0.961 . S
H924 C910 0.961 . S
H925 C911 0.958 . S
H926 C911 0.961 . S
H927 C911 0.960 . S
C928 C929 1.391 . S
C928 C930 1.394 . S
C928 H944 0.931 . S
C929 C928 1.391 . S
C929 C933 1.376 . S
C930 C928 1.394 . S
C930 C931 1.369 . S
C930 C934 1.531 . S
C931 C930 1.369 . S
C931 C932 1.410 . S
C931 C939 1.503 . S
C932 C931 1.410 . S
C932 C933 1.392 . S
C932 C935 1.511 . S
C933 C929 1.376 . S
C933 C932 1.392 . S
C933 H945 0.929 . S
C934 C930 1.531 . S
C934 H946 0.960 . S
C934 H947 0.962 . S
C934 H948 0.960 . S
C935 C932 1.511 . S
C935 H949 0.961 . S
C935 H950 0.961 . S
C935 H951 0.961 . S
C936 C937 1.370 . S
C936 C938 1.363 . S
C936 H952 0.931 . S
C937 C936 1.370 . S
C937 C941 1.408 . S
C938 C936 1.363 . S
C938 C939 1.370 . S
C938 C942 1.524 . S
C939 C931 1.503 . S
C939 C938 1.370 . S
C939 C940 1.403 . S
C940 C939 1.403 . S
C940 C941 1.404 . S
C940 C943 1.539 . S
C941 C937 1.408 . S
C941 C940 1.404 . S
C941 H953 0.930 . S
C942 C938 1.524 . S
C942 H954 0.956 . S
C942 H955 0.961 . S
C942 H956 0.961 . S
C943 C940 1.539 . S
C943 H957 0.958 . S
C943 H958 0.961 . S
C943 H959 0.960 . S
H944 C928 0.931 . S
H945 C933 0.929 . S
H946 C934 0.960 . S
H947 C934 0.962 . S
H948 C934 0.960 . S
H949 C935 0.961 . S
H950 C935 0.961 . S
H951 C935 0.961 . S
H952 C936 0.931 . S
H953 C941 0.930 . S
H954 C942 0.956 . S
H955 C942 0.961 . S
H956 C942 0.961 . S
H957 C943 0.958 . S
H958 C943 0.961 . S
H959 C943 0.960 . S
C960 C961 1.391 . S
C960 C962 1.394 . S
C960 H976 0.931 . S
C961 C960 1.391 . S
C961 C965 1.376 . S
C962 C960 1.394 . S
C962 C963 1.369 . S
C962 C966 1.531 . S
C963 C962 1.369 . S
C963 C964 1.410 . S
C963 C971 1.503 . S
C964 C963 1.410 . S
C964 C965 1.392 . S
C964 C967 1.511 . S
C965 C961 1.376 . S
C965 C964 1.392 . S
C965 H977 0.929 . S
C966 C962 1.531 . S
C966 H978 0.960 . S
C966 H979 0.962 . S
C966 H980 0.960 . S
C967 C964 1.511 . S
C967 H981 0.961 . S
C967 H982 0.961 . S
C967 H983 0.961 . S
C968 C969 1.370 . S
C968 C970 1.363 . S
C968 H984 0.931 . S
C969 C968 1.370 . S
C969 C973 1.408 . S
C970 C968 1.363 . S
C970 C971 1.370 . S
C970 C974 1.524 . S
C971 C963 1.503 . S
C971 C970 1.370 . S
C971 C972 1.403 . S
C972 C971 1.403 . S
C972 C973 1.404 . S
C972 C975 1.539 . S
C973 C969 1.408 . S
C973 C972 1.404 . S
C973 H985 0.930 . S
C974 C970 1.524 . S
C974 H986 0.956 . S
C974 H987 0.961 . S
C974 H988 0.961 . S
C975 C972 1.539 . S
C975 H989 0.958 . S
C975 H990 0.961 . S
C975 H991 0.960 . S
H976 C960 0.931 . S
H977 C965 0.929 . S
H978 C966 0.960 . S
H979 C966 0.962 . S
H980 C966 0.960 . S
H981 C967 0.961 . S
H982 C967 0.961 . S
H983 C967 0.961 . S
H984 C968 0.931 . S
H985 C973 0.930 . S
H986 C974 0.956 . S
H987 C974 0.961 . S
H988 C974 0.961 . S
H989 C975 0.958 . S
H990 C975 0.961 . S
H991 C975 0.960 . S
C992 C993 1.391 . S
C992 C994 1.394 . S
C992 H1008 0.931 . S
C993 C992 1.391 . S
C993 C997 1.376 . S
C994 C992 1.394 . S
C994 C995 1.369 . S
C994 C998 1.531 . S
C995 C994 1.369 . S
C995 C996 1.410 . S
C995 C1003 1.503 . S
C996 C995 1.410 . S
C996 C997 1.392 . S
C996 C999 1.511 . S
C997 C993 1.376 . S
C997 C996 1.392 . S
C997 H1009 0.929 . S
C998 C994 1.531 . S
C998 H1010 0.960 . S
C998 H1011 0.962 . S
C998 H1012 0.960 . S
C999 C996 1.511 . S
C999 H1013 0.961 . S
C999 H1014 0.961 . S
C999 H1015 0.961 . S
C1000 C1001 1.370 . S
C1000 C1002 1.363 . S
C1000 H1016 0.931 . S
C1001 C1000 1.370 . S
C1001 C1005 1.408 . S
C1002 C1000 1.363 . S
C1002 C1003 1.370 . S
C1002 C1006 1.524 . S
C1003 C995 1.503 . S
C1003 C1002 1.370 . S
C1003 C1004 1.403 . S
C1004 C1003 1.403 . S
C1004 C1005 1.404 . S
C1004 C1007 1.539 . S
C1005 C1001 1.408 . S
C1005 C1004 1.404 . S
C1005 H1017 0.930 . S
C1006 C1002 1.524 . S
C1006 H1018 0.956 . S
C1006 H1019 0.961 . S
C1006 H1020 0.961 . S
C1007 C1004 1.539 . S
C1007 H1021 0.958 . S
C1007 H1022 0.961 . S
C1007 H1023 0.960 . S
H1008 C992 0.931 . S
H1009 C997 0.929 . S
H1010 C998 0.960 . S
H1011 C998 0.962 . S
H1012 C998 0.960 . S
H1013 C999 0.961 . S
H1014 C999 0.961 . S
H1015 C999 0.961 . S
H1016 C1000 0.931 . S
H1017 C1005 0.930 . S
H1018 C1006 0.956 . S
H1019 C1006 0.961 . S
H1020 C1006 0.961 . S
H1021 C1007 0.958 . S
H1022 C1007 0.961 . S
H1023 C1007 0.960 . S
C1024 C1025 1.391 . S
C1024 C1026 1.394 . S
C1024 H1040 0.931 . S
C1025 C1024 1.391 . S
C1025 C1029 1.376 . S
C1026 C1024 1.394 . S
C1026 C1027 1.369 . S
C1026 C1030 1.531 . S
C1027 C1026 1.369 . S
C1027 C1028 1.410 . S
C1027 C1035 1.503 . S
C1028 C1027 1.410 . S
C1028 C1029 1.392 . S
C1028 C1031 1.511 . S
C1029 C1025 1.376 . S
C1029 C1028 1.392 . S
C1029 H1041 0.929 . S
C1030 C1026 1.531 . S
C1030 H1042 0.960 . S
C1030 H1043 0.962 . S
C1030 H1044 0.960 . S
C1031 C1028 1.511 . S
C1031 H1045 0.961 . S
C1031 H1046 0.961 . S
C1031 H1047 0.961 . S
C1032 C1033 1.370 . S
C1032 C1034 1.363 . S
C1032 H1048 0.931 . S
C1033 C1032 1.370 . S
C1033 C1037 1.408 . S
C1034 C1032 1.363 . S
C1034 C1035 1.370 . S
C1034 C1038 1.524 . S
C1035 C1027 1.503 . S
C1035 C1034 1.370 . S
C1035 C1036 1.403 . S
C1036 C1035 1.403 . S
C1036 C1037 1.404 . S
C1036 C1039 1.539 . S
C1037 C1033 1.408 . S
C1037 C1036 1.404 . S
C1037 H1049 0.930 . S
C1038 C1034 1.524 . S
C1038 H1050 0.956 . S
C1038 H1051 0.961 . S
C1038 H1052 0.961 . S
C1039 C1036 1.539 . S
C1039 H1053 0.958 . S
C1039 H1054 0.961 . S
C1039 H1055 0.960 . S
H1040 C1024 0.931 . S
H1041 C1029 0.929 . S
H1042 C1030 0.960 . S
H1043 C1030 0.962 . S
H1044 C1030 0.960 . S
H1045 C1031 0.961 . S
H1046 C1031 0.961 . S
H1047 C1031 0.961 . S
H1048 C1032 0.931 . S
H1049 C1037 0.930 . S
H1050 C1038 0.956 . S
H1051 C1038 0.961 . S
H1052 C1038 0.961 . S
H1053 C1039 0.958 . S
H1054 C1039 0.961 . S
H1055 C1039 0.960 . S
C1056 C1057 1.391 . S
C1056 C1058 1.394 . S
C1056 H1072 0.931 . S
C1057 C1056 1.391 . S
C1057 C1061 1.376 . S
C1058 C1056 1.394 . S
C1058 C1059 1.369 . S
C1058 C1062 1.531 . S
C1059 C1058 1.369 . S
C1059 C1060 1.410 . S
C1059 C1067 1.503 . S
C1060 C1059 1.410 . S
C1060 C1061 1.392 . S
C1060 C1063 1.511 . S
C1061 C1057 1.376 . S
C1061 C1060 1.392 . S
C1061 H1073 0.929 . S
C1062 C1058 1.531 . S
C1062 H1074 0.960 . S
C1062 H1075 0.962 . S
C1062 H1076 0.960 . S
C1063 C1060 1.511 . S
C1063 H1077 0.961 . S
C1063 H1078 0.961 . S
C1063 H1079 0.961 . S
C1064 C1065 1.370 . S
C1064 C1066 1.363 . S
C1064 H1080 0.931 . S
C1065 C1064 1.370 . S
C1065 C1069 1.408 . S
C1066 C1064 1.363 . S
C1066 C1067 1.370 . S
C1066 C1070 1.524 . S
C1067 C1059 1.503 . S
C1067 C1066 1.370 . S
C1067 C1068 1.403 . S
C1068 C1067 1.403 . S
C1068 C1069 1.404 . S
C1068 C1071 1.539 . S
C1069 C1065 1.408 . S
C1069 C1068 1.404 . S
C1069 H1081 0.930 . S
C1070 C1066 1.524 . S
C1070 H1082 0.956 . S
C1070 H1083 0.961 . S
C1070 H1084 0.961 . S
C1071 C1068 1.539 . S
C1071 H1085 0.958 . S
C1071 H1086 0.961 . S
C1071 H1087 0.960 . S
H1072 C1056 0.931 . S
H1073 C1061 0.929 . S
H1074 C1062 0.960 . S
H1075 C1062 0.962 . S
H1076 C1062 0.960 . S
H1077 C1063 0.961 . S
H1078 C1063 0.961 . S
H1079 C1063 0.961 . S
H1080 C1064 0.931 . S
H1081 C1069 0.930 . S
H1082 C1070 0.956 . S
H1083 C1070 0.961 . S
H1084 C1070 0.961 . S
H1085 C1071 0.958 . S
H1086 C1071 0.961 . S
H1087 C1071 0.960 . S
C1088 C1089 1.391 . S
C1088 C1090 1.394 . S
C1088 H1104 0.931 . S
C1089 C1088 1.391 . S
C1089 C1093 1.376 . S
C1090 C1088 1.394 . S
C1090 C1091 1.369 . S
C1090 C1094 1.531 . S
C1091 C1090 1.369 . S
C1091 C1092 1.410 . S
C1091 C1099 1.503 . S
C1092 C1091 1.410 . S
C1092 C1093 1.392 . S
C1092 C1095 1.511 . S
C1093 C1089 1.376 . S
C1093 C1092 1.392 . S
C1093 H1105 0.929 . S
C1094 C1090 1.531 . S
C1094 H1106 0.960 . S
C1094 H1107 0.962 . S
C1094 H1108 0.960 . S
C1095 C1092 1.511 . S
C1095 H1109 0.961 . S
C1095 H1110 0.961 . S
C1095 H1111 0.961 . S
C1096 C1097 1.370 . S
C1096 C1098 1.363 . S
C1096 H1112 0.931 . S
C1097 C1096 1.370 . S
C1097 C1101 1.408 . S
C1098 C1096 1.363 . S
C1098 C1099 1.370 . S
C1098 C1102 1.524 . S
C1099 C1091 1.503 . S
C1099 C1098 1.370 . S
C1099 C1100 1.403 . S
C1100 C1099 1.403 . S
C1100 C1101 1.404 . S
C1100 C1103 1.539 . S
C1101 C1097 1.408 . S
C1101 C1100 1.404 . S
C1101 H1113 0.930 . S
C1102 C1098 1.524 . S
C1102 H1114 0.956 . S
C1102 H1115 0.961 . S
C1102 H1116 0.961 . S
C1103 C1100 1.539 . S
C1103 H1117 0.958 . S
C1103 H1118 0.961 . S
C1103 H1119 0.960 . S
H1104 C1088 0.931 . S
H1105 C1093 0.929 . S
H1106 C1094 0.960 . S
H1107 C1094 0.962 . S
H1108 C1094 0.960 . S
H1109 C1095 0.961 . S
H1110 C1095 0.961 . S
H1111 C1095 0.961 . S
H1112 C1096 0.931 . S
H1113 C1101 0.930 . S
H1114 C1102 0.956 . S
H1115 C1102 0.961 . S
H1116 C1102 0.961 . S
H1117 C1103 0.958 . S
H1118 C1103 0.961 . S
H1119 C1103 0.960 . S
C1120 C1121 1.391 . S
C1120 C1122 1.394 . S
C1120 H1136 0.931 . S
C1121 C1120 1.391 . S
C1121 C1125 1.376 . S
C1122 C1120 1.394 . S
C1122 C1123 1.369 . S
C1122 C1126 1.531 . S
C1123 C1122 1.369 . S
C1123 C1124 1.410 . S
C1123 C1131 1.503 1_554 S
C1124 C1123 1.410 . S
C1124 C1125 1.392 . S
C1124 C1127 1.511 . S
C1125 C1121 1.376 . S
C1125 C1124 1.392 . S
C1125 H1137 0.929 . S
C1126 C1122 1.531 . S
C1126 H1138 0.960 1_554 S
C1126 H1139 0.962 . S
C1126 H1140 0.960 . S
C1127 C1124 1.511 . S
C1127 H1141 0.964 . S
C1127 H1142 0.961 1_554 S
C1127 H1143 0.961 1_455 S
C1128 C1129 1.370 . S
C1128 C1130 1.363 . S
C1128 H1144 0.931 . S
C1129 C1128 1.370 . S
C1129 C1133 1.408 . S
C1130 C1128 1.363 . S
C1130 C1131 1.370 . S
C1130 C1134 1.524 . S
C1131 C1123 1.503 1_556 S
C1131 C1130 1.370 . S
C1131 C1132 1.403 . S
C1132 C1131 1.403 . S
C1132 C1133 1.404 . S
C1132 C1135 1.539 . S
C1133 C1129 1.408 . S
C1133 C1132 1.404 . S
C1133 H1145 0.930 . S
C1134 C1130 1.524 . S
C1134 H1146 0.956 . S
C1134 H1147 0.961 1_556 S
C1134 H1148 0.961 . S
C1135 C1132 1.539 . S
C1135 H1149 0.958 . S
C1135 H1150 0.961 . S
C1135 H1151 0.970 . S
H1136 C1120 0.931 . S
H1137 C1125 0.929 . S
H1138 C1126 0.960 1_556 S
H1139 C1126 0.962 . S
H1140 C1126 0.960 . S
H1141 C1127 0.964 . S
H1142 C1127 0.961 1_556 S
H1143 C1127 0.961 1_655 S
H1144 C1128 0.931 . S
H1145 C1133 0.930 . S
H1146 C1134 0.956 . S
H1147 C1134 0.961 1_554 S
H1148 C1134 0.961 . S
H1149 C1135 0.958 . S
H1150 C1135 0.961 . S
H1151 C1135 0.970 . S
C1152 C1153 1.391 . S
C1152 C1154 1.394 . S
C1152 H1168 0.931 . S
C1153 C1152 1.391 . S
C1153 C1157 1.376 . S
C1154 C1152 1.394 . S
C1154 C1155 1.369 . S
C1154 C1158 1.531 . S
C1155 C1154 1.369 . S
C1155 C1156 1.410 . S
C1155 C1163 1.503 1_554 S
C1156 C1155 1.410 . S
C1156 C1157 1.392 . S
C1156 C1159 1.511 . S
C1157 C1153 1.376 . S
C1157 C1156 1.392 . S
C1157 H1169 0.929 . S
C1158 C1154 1.531 . S
C1158 H1170 0.960 1_554 S
C1158 H1171 0.962 . S
C1158 H1172 0.960 . S
C1159 C1156 1.511 . S
C1159 H1173 0.961 . S
C1159 H1174 0.961 1_554 S
C1159 H1175 0.961 . S
C1160 C1161 1.370 . S
C1160 C1162 1.363 . S
C1160 H1176 0.931 . S
C1161 C1160 1.370 . S
C1161 C1165 1.408 . S
C1162 C1160 1.363 . S
C1162 C1163 1.370 . S
C1162 C1166 1.524 . S
C1163 C1155 1.503 1_556 S
C1163 C1162 1.370 . S
C1163 C1164 1.403 . S
C1164 C1163 1.403 . S
C1164 C1165 1.404 . S
C1164 C1167 1.539 . S
C1165 C1161 1.408 . S
C1165 C1164 1.404 . S
C1165 H1177 0.930 . S
C1166 C1162 1.524 . S
C1166 H1178 0.956 . S
C1166 H1179 0.961 1_556 S
C1166 H1180 0.961 . S
C1167 C1164 1.539 . S
C1167 H1181 0.958 . S
C1167 H1182 0.961 . S
C1167 H1183 0.970 . S
H1168 C1152 0.931 . S
H1169 C1157 0.929 . S
H1170 C1158 0.960 1_556 S
H1171 C1158 0.962 . S
H1172 C1158 0.960 . S
H1173 C1159 0.961 . S
H1174 C1159 0.961 1_556 S
H1175 C1159 0.961 . S
H1176 C1160 0.931 . S
H1177 C1165 0.930 . S
H1178 C1166 0.956 . S
H1179 C1166 0.961 1_554 S
H1180 C1166 0.961 . S
H1181 C1167 0.958 . S
H1182 C1167 0.961 . S
H1183 C1167 0.970 . S
C1184 C1185 1.391 . S
C1184 C1186 1.394 . S
C1184 H1200 0.931 . S
C1185 C1184 1.391 . S
C1185 C1189 1.376 . S
C1186 C1184 1.394 . S
C1186 C1187 1.369 . S
C1186 C1190 1.531 . S
C1187 C1186 1.369 . S
C1187 C1188 1.410 . S
C1187 C1195 1.503 1_556 S
C1188 C1187 1.410 . S
C1188 C1189 1.392 . S
C1188 C1191 1.511 . S
C1189 C1185 1.376 . S
C1189 C1188 1.392 . S
C1189 H1201 0.929 . S
C1190 C1186 1.531 . S
C1190 H1202 0.960 1_556 S
C1190 H1203 0.962 . S
C1190 H1204 0.960 . S
C1191 C1188 1.511 . S
C1191 H1205 0.961 . S
C1191 H1206 0.961 1_556 S
C1191 H1207 0.961 1_655 S
C1192 C1193 1.370 . S
C1192 C1194 1.363 . S
C1192 H1208 0.931 . S
C1193 C1192 1.370 . S
C1193 C1197 1.408 . S
C1194 C1192 1.363 . S
C1194 C1195 1.370 . S
C1194 C1198 1.524 . S
C1195 C1187 1.503 1_554 S
C1195 C1194 1.370 . S
C1195 C1196 1.403 . S
C1196 C1195 1.403 . S
C1196 C1197 1.404 . S
C1196 C1199 1.539 . S
C1197 C1193 1.408 . S
C1197 C1196 1.404 . S
C1197 H1209 0.930 . S
C1198 C1194 1.524 . S
C1198 H1210 0.956 . S
C1198 H1211 0.961 1_554 S
C1198 H1212 0.961 . S
C1199 C1196 1.539 . S
C1199 H1213 0.958 . S
C1199 H1214 0.961 . S
C1199 H1215 0.970 . S
H1200 C1184 0.931 . S
H1201 C1189 0.929 . S
H1202 C1190 0.960 1_554 S
H1203 C1190 0.962 . S
H1204 C1190 0.960 . S
H1205 C1191 0.961 . S
H1206 C1191 0.961 1_554 S
H1207 C1191 0.961 1_455 S
H1208 C1192 0.931 . S
H1209 C1197 0.930 . S
H1210 C1198 0.956 . S
H1211 C1198 0.961 1_556 S
H1212 C1198 0.961 . S
H1213 C1199 0.958 . S
H1214 C1199 0.961 . S
H1215 C1199 0.970 . S
C1216 C1217 1.391 . S
C1216 C1218 1.394 . S
C1216 H1232 0.931 . S
C1217 C1216 1.391 . S
C1217 C1221 1.376 . S
C1218 C1216 1.394 . S
C1218 C1219 1.369 . S
C1218 C1222 1.531 . S
C1219 C1218 1.369 . S
C1219 C1220 1.410 . S
C1219 C1227 1.503 1_554 S
C1220 C1219 1.410 . S
C1220 C1221 1.392 . S
C1220 C1223 1.511 . S
C1221 C1217 1.376 . S
C1221 C1220 1.392 . S
C1221 H1233 0.929 . S
C1222 C1218 1.531 . S
C1222 H1234 0.960 1_554 S
C1222 H1235 0.962 . S
C1222 H1236 0.960 . S
C1223 C1220 1.511 . S
C1223 H1237 0.961 . S
C1223 H1238 0.961 1_554 S
C1223 H1239 0.961 . S
C1224 C1225 1.370 . S
C1224 C1226 1.363 . S
C1224 H1240 0.931 . S
C1225 C1224 1.370 . S
C1225 C1229 1.408 . S
C1226 C1224 1.363 . S
C1226 C1227 1.370 . S
C1226 C1230 1.524 . S
C1227 C1219 1.503 1_556 S
C1227 C1226 1.370 . S
C1227 C1228 1.403 . S
C1228 C1227 1.403 . S
C1228 C1229 1.404 . S
C1228 C1231 1.539 . S
C1229 C1225 1.408 . S
C1229 C1228 1.404 . S
C1229 H1241 0.930 . S
C1230 C1226 1.524 . S
C1230 H1242 0.956 . S
C1230 H1243 0.961 1_556 S
C1230 H1244 0.961 . S
C1231 C1228 1.539 . S
C1231 H1245 0.958 1_565 S
C1231 H1246 0.961 1_565 S
C1231 H1247 0.970 . S
H1232 C1216 0.931 . S
H1233 C1221 0.929 . S
H1234 C1222 0.960 1_556 S
H1235 C1222 0.962 . S
H1236 C1222 0.960 . S
H1237 C1223 0.961 . S
H1238 C1223 0.961 1_556 S
H1239 C1223 0.961 . S
H1240 C1224 0.931 . S
H1241 C1229 0.930 . S
H1242 C1230 0.956 . S
H1243 C1230 0.961 1_554 S
H1244 C1230 0.961 . S
H1245 C1231 0.958 1_545 S
H1246 C1231 0.961 1_545 S
H1247 C1231 0.970 . S
C1248 C1249 1.391 . S
C1248 C1250 1.394 . S
C1248 H1264 0.931 . S
C1249 C1248 1.391 . S
C1249 C1253 1.376 . S
C1250 C1248 1.394 . S
C1250 C1251 1.369 . S
C1250 C1254 1.531 . S
C1251 C1250 1.369 . S
C1251 C1252 1.410 . S
C1251 C1259 1.503 . S
C1252 C1251 1.410 . S
C1252 C1253 1.392 . S
C1252 C1255 1.511 . S
C1253 C1249 1.376 . S
C1253 C1252 1.392 . S
C1253 H1265 0.929 . S
C1254 C1250 1.531 . S
C1254 H1266 0.960 . S
C1254 H1267 0.962 . S
C1254 H1268 0.960 . S
C1255 C1252 1.511 . S
C1255 H1269 0.961 . S
C1255 H1270 0.961 . S
C1255 H1271 0.961 . S
C1256 C1257 1.370 . S
C1256 C1258 1.363 . S
C1256 H1272 0.931 . S
C1257 C1256 1.370 . S
C1257 C1261 1.408 . S
C1258 C1256 1.363 . S
C1258 C1259 1.370 . S
C1258 C1262 1.524 . S
C1259 C1251 1.503 . S
C1259 C1258 1.370 . S
C1259 C1260 1.403 . S
C1260 C1259 1.403 . S
C1260 C1261 1.404 . S
C1260 C1263 1.539 . S
C1261 C1257 1.408 . S
C1261 C1260 1.404 . S
C1261 H1273 0.930 . S
C1262 C1258 1.524 . S
C1262 H1274 0.956 . S
C1262 H1275 0.961 . S
C1262 H1276 0.961 . S
C1263 C1260 1.539 . S
C1263 H1277 0.958 . S
C1263 H1278 0.961 . S
C1263 H1279 0.960 . S
H1264 C1248 0.931 . S
H1265 C1253 0.929 . S
H1266 C1254 0.960 . S
H1267 C1254 0.962 . S
H1268 C1254 0.960 . S
H1269 C1255 0.961 . S
H1270 C1255 0.961 . S
H1271 C1255 0.961 . S
H1272 C1256 0.931 . S
H1273 C1261 0.930 . S
H1274 C1262 0.956 . S
H1275 C1262 0.961 . S
H1276 C1262 0.961 . S
H1277 C1263 0.958 . S
H1278 C1263 0.961 . S
H1279 C1263 0.960 . S
C1280 C1281 1.391 . S
C1280 C1282 1.394 . S
C1280 H1296 0.931 . S
C1281 C1280 1.391 . S
C1281 C1285 1.376 . S
C1282 C1280 1.394 . S
C1282 C1283 1.369 . S
C1282 C1286 1.531 . S
C1283 C1282 1.369 . S
C1283 C1284 1.410 . S
C1283 C1291 1.503 . S
C1284 C1283 1.410 . S
C1284 C1285 1.392 . S
C1284 C1287 1.511 . S
C1285 C1281 1.376 . S
C1285 C1284 1.392 . S
C1285 H1297 0.929 . S
C1286 C1282 1.531 . S
C1286 H1298 0.960 . S
C1286 H1299 0.958 1_545 S
C1286 H1300 0.960 1_545 S
C1287 C1284 1.511 . S
C1287 H1301 0.961 . S
C1287 H1302 0.961 . S
C1287 H1303 0.961 . S
C1288 C1289 1.370 . S
C1288 C1290 1.363 . S
C1288 H1304 0.931 . S
C1289 C1288 1.370 . S
C1289 C1293 1.408 . S
C1290 C1288 1.363 . S
C1290 C1291 1.370 . S
C1290 C1294 1.524 . S
C1291 C1283 1.503 . S
C1291 C1290 1.370 . S
C1291 C1292 1.403 . S
C1292 C1291 1.403 . S
C1292 C1293 1.404 . S
C1292 C1295 1.539 . S
C1293 C1289 1.408 . S
C1293 C1292 1.404 . S
C1293 H1305 0.930 . S
C1294 C1290 1.524 . S
C1294 H1306 0.956 . S
C1294 H1307 0.961 . S
C1294 H1308 0.961 . S
C1295 C1292 1.539 . S
C1295 H1309 0.958 . S
C1295 H1310 0.961 . S
C1295 H1311 0.960 . S
H1296 C1280 0.931 . S
H1297 C1285 0.929 . S
H1298 C1286 0.960 . S
H1299 C1286 0.958 1_565 S
H1300 C1286 0.960 1_565 S
H1301 C1287 0.961 . S
H1302 C1287 0.961 . S
H1303 C1287 0.961 . S
H1304 C1288 0.931 . S
H1305 C1293 0.930 . S
H1306 C1294 0.956 . S
H1307 C1294 0.961 . S
H1308 C1294 0.961 . S
H1309 C1295 0.958 . S
H1310 C1295 0.961 . S
H1311 C1295 0.960 . S
C1312 C1313 1.391 . S
C1312 C1314 1.394 . S
C1312 H1328 0.931 . S
C1313 C1312 1.391 . S
C1313 C1317 1.376 . S
C1314 C1312 1.394 . S
C1314 C1315 1.369 . S
C1314 C1318 1.531 . S
C1315 C1314 1.369 . S
C1315 C1316 1.410 . S
C1315 C1323 1.503 . S
C1316 C1315 1.410 . S
C1316 C1317 1.392 . S
C1316 C1319 1.511 . S
C1317 C1313 1.376 . S
C1317 C1316 1.392 . S
C1317 H1329 0.929 . S
C1318 C1314 1.531 . S
C1318 H1330 0.960 . S
C1318 H1331 0.962 . S
C1318 H1332 0.960 . S
C1319 C1316 1.511 . S
C1319 H1333 0.961 . S
C1319 H1334 0.961 . S
C1319 H1335 0.961 . S
C1320 C1321 1.370 . S
C1320 C1322 1.363 . S
C1320 H1336 0.931 . S
C1321 C1320 1.370 . S
C1321 C1325 1.408 . S
C1322 C1320 1.363 . S
C1322 C1323 1.370 . S
C1322 C1326 1.524 . S
C1323 C1315 1.503 . S
C1323 C1322 1.370 . S
C1323 C1324 1.403 . S
C1324 C1323 1.403 . S
C1324 C1325 1.404 . S
C1324 C1327 1.539 . S
C1325 C1321 1.408 . S
C1325 C1324 1.404 . S
C1325 H1337 0.930 . S
C1326 C1322 1.524 . S
C1326 H1338 0.956 . S
C1326 H1339 0.961 . S
C1326 H1340 0.961 . S
C1327 C1324 1.539 . S
C1327 H1341 0.958 1_655 S
C1327 H1342 0.961 1_655 S
C1327 H1343 0.960 . S
H1328 C1312 0.931 . S
H1329 C1317 0.929 . S
H1330 C1318 0.960 . S
H1331 C1318 0.962 . S
H1332 C1318 0.960 . S
H1333 C1319 0.961 . S
H1334 C1319 0.961 . S
H1335 C1319 0.961 . S
H1336 C1320 0.931 . S
H1337 C1325 0.930 . S
H1338 C1326 0.956 . S
H1339 C1326 0.961 . S
H1340 C1326 0.961 . S
H1341 C1327 0.958 1_455 S
H1342 C1327 0.961 1_455 S
H1343 C1327 0.960 . S
C1344 C1345 1.391 . S
C1344 C1346 1.394 . S
C1344 H1360 0.931 . S
C1345 C1344 1.391 . S
C1345 C1349 1.376 . S
C1346 C1344 1.394 . S
C1346 C1347 1.369 . S
C1346 C1350 1.531 . S
C1347 C1346 1.369 . S
C1347 C1348 1.410 . S
C1347 C1355 1.503 . S
C1348 C1347 1.410 . S
C1348 C1349 1.392 . S
C1348 C1351 1.511 . S
C1349 C1345 1.376 . S
C1349 C1348 1.392 . S
C1349 H1361 0.929 . S
C1350 C1346 1.531 . S
C1350 H1362 0.960 . S
C1350 H1363 0.962 . S
C1350 H1364 0.960 . S
C1351 C1348 1.511 . S
C1351 H1365 0.961 . S
C1351 H1366 0.961 . S
C1351 H1367 0.961 . S
C1352 C1353 1.370 . S
C1352 C1354 1.363 . S
C1352 H1368 0.931 . S
C1353 C1352 1.370 . S
C1353 C1357 1.408 . S
C1354 C1352 1.363 . S
C1354 C1355 1.370 . S
C1354 C1358 1.524 . S
C1355 C1347 1.503 . S
C1355 C1354 1.370 . S
C1355 C1356 1.403 . S
C1356 C1355 1.403 . S
C1356 C1357 1.404 . S
C1356 C1359 1.539 . S
C1357 C1353 1.408 . S
C1357 C1356 1.404 . S
C1357 H1369 0.930 . S
C1358 C1354 1.524 . S
C1358 H1370 0.956 . S
C1358 H1371 0.961 . S
C1358 H1372 0.961 . S
C1359 C1356 1.539 . S
C1359 H1373 0.958 1_565 S
C1359 H1374 0.961 1_565 S
C1359 H1375 0.960 . S
H1360 C1344 0.931 . S
H1361 C1349 0.929 . S
H1362 C1350 0.960 . S
H1363 C1350 0.962 . S
H1364 C1350 0.960 . S
H1365 C1351 0.961 . S
H1366 C1351 0.961 . S
H1367 C1351 0.961 . S
H1368 C1352 0.931 . S
H1369 C1357 0.930 . S
H1370 C1358 0.956 . S
H1371 C1358 0.961 . S
H1372 C1358 0.961 . S
H1373 C1359 0.958 1_545 S
H1374 C1359 0.961 1_545 S
H1375 C1359 0.960 . S
C1376 C1377 1.391 1_655 S
C1376 C1378 1.394 . S
C1376 H1392 0.931 . S
C1377 C1376 1.391 1_455 S
C1377 C1381 1.376 . S
C1378 C1376 1.394 . S
C1378 C1379 1.369 1_655 S
C1378 C1382 1.531 . S
C1379 C1378 1.369 1_455 S
C1379 C1380 1.410 . S
C1379 C1387 1.503 1_455 S
C1380 C1379 1.410 . S
C1380 C1381 1.392 . S
C1380 C1383 1.511 . S
C1381 C1377 1.376 . S
C1381 C1380 1.392 . S
C1381 H1393 0.929 . S
C1382 C1378 1.531 . S
C1382 H1394 0.960 . S
C1382 H1395 0.962 . S
C1382 H1396 0.960 . S
C1383 C1380 1.511 . S
C1383 H1397 0.961 . S
C1383 H1398 0.961 . S
C1383 H1399 0.961 . S
C1384 C1385 1.370 . S
C1384 C1386 1.363 . S
C1384 H1400 0.931 . S
C1385 C1384 1.370 . S
C1385 C1389 1.408 . S
C1386 C1384 1.363 . S
C1386 C1387 1.370 . S
C1386 C1390 1.524 1_655 S
C1387 C1379 1.503 1_655 S
C1387 C1386 1.370 . S
C1387 C1388 1.403 . S
C1388 C1387 1.403 . S
C1388 C1389 1.404 . S
C1388 C1391 1.539 . S
C1389 C1385 1.408 . S
C1389 C1388 1.404 . S
C1389 H1401 0.930 . S
C1390 C1386 1.524 1_455 S
C1390 H1402 0.956 1_455 S
C1390 H1403 0.961 . S
C1390 H1404 0.961 . S
C1391 C1388 1.539 . S
C1391 H1405 0.958 . S
C1391 H1406 0.961 . S
C1391 H1407 0.960 1_655 S
H1392 C1376 0.931 . S
H1393 C1381 0.929 . S
H1394 C1382 0.960 . S
H1395 C1382 0.962 . S
H1396 C1382 0.960 . S
H1397 C1383 0.961 . S
H1398 C1383 0.961 . S
H1399 C1383 0.961 . S
H1400 C1384 0.931 . S
H1401 C1389 0.930 . S
H1402 C1390 0.956 1_655 S
H1403 C1390 0.961 . S
H1404 C1390 0.961 . S
H1405 C1391 0.958 . S
H1406 C1391 0.961 . S
H1407 C1391 0.960 1_455 S
C1408 C1409 1.391 1_545 S
C1408 C1410 1.394 . S
C1408 H1424 0.931 . S
C1409 C1408 1.391 1_565 S
C1409 C1413 1.376 . S
C1410 C1408 1.394 . S
C1410 C1411 1.369 . S
C1410 C1414 1.531 . S
C1411 C1410 1.369 . S
C1411 C1412 1.410 1_545 S
C1411 C1419 1.503 . S
C1412 C1411 1.410 1_565 S
C1412 C1413 1.392 . S
C1412 C1415 1.511 . S
C1413 C1409 1.376 . S
C1413 C1412 1.392 . S
C1413 H1425 0.929 . S
C1414 C1410 1.531 . S
C1414 H1426 0.960 . S
C1414 H1427 0.962 . S
C1414 H1428 0.960 . S
C1415 C1412 1.511 . S
C1415 H1429 0.961 . S
C1415 H1430 0.961 . S
C1415 H1431 0.961 . S
C1416 C1417 1.370 1_565 S
C1416 C1418 1.363 . S
C1416 H1432 0.931 . S
C1417 C1416 1.370 1_545 S
C1417 C1421 1.408 . S
C1418 C1416 1.363 . S
C1418 C1419 1.370 1_565 S
C1418 C1422 1.524 . S
C1419 C1411 1.503 . S
C1419 C1418 1.370 1_545 S
C1419 C1420 1.403 . S
C1420 C1419 1.403 . S
C1420 C1421 1.404 . S
C1420 C1423 1.539 . S
C1421 C1417 1.408 . S
C1421 C1420 1.404 . S
C1421 H1433 0.930 . S
C1422 C1418 1.524 . S
C1422 H1434 0.956 . S
C1422 H1435 0.961 . S
C1422 H1436 0.961 . S
C1423 C1420 1.539 . S
C1423 H1437 0.958 . S
C1423 H1438 0.961 . S
C1423 H1439 0.960 . S
H1424 C1408 0.931 . S
H1425 C1413 0.929 . S
H1426 C1414 0.960 . S
H1427 C1414 0.962 . S
H1428 C1414 0.960 . S
H1429 C1415 0.961 . S
H1430 C1415 0.961 . S
H1431 C1415 0.961 . S
H1432 C1416 0.931 . S
H1433 C1421 0.930 . S
H1434 C1422 0.956 . S
H1435 C1422 0.961 . S
H1436 C1422 0.961 . S
H1437 C1423 0.958 . S
H1438 C1423 0.961 . S
H1439 C1423 0.960 . S
C1440 C1441 1.391 1_655 S
C1440 C1442 1.394 . S
C1440 H1456 0.931 . S
C1441 C1440 1.391 1_455 S
C1441 C1445 1.376 . S
C1442 C1440 1.394 . S
C1442 C1443 1.369 1_655 S
C1442 C1446 1.531 . S
C1443 C1442 1.369 1_455 S
C1443 C1444 1.410 . S
C1443 C1451 1.503 1_455 S
C1444 C1443 1.410 . S
C1444 C1445 1.392 . S
C1444 C1447 1.511 . S
C1445 C1441 1.376 . S
C1445 C1444 1.392 . S
C1445 H1457 0.929 . S
C1446 C1442 1.531 . S
C1446 H1458 0.960 . S
C1446 H1459 0.962 . S
C1446 H1460 0.960 . S
C1447 C1444 1.511 . S
C1447 H1461 0.961 . S
C1447 H1462 0.961 . S
C1447 H1463 0.961 . S
C1448 C1449 1.370 . S
C1448 C1450 1.363 . S
C1448 H1464 0.931 . S
C1449 C1448 1.370 . S
C1449 C1453 1.408 . S
C1450 C1448 1.363 . S
C1450 C1451 1.370 . S
C1450 C1454 1.524 . S
C1451 C1443 1.503 1_655 S
C1451 C1450 1.370 . S
C1451 C1452 1.403 1_655 S
C1452 C1451 1.403 1_455 S
C1452 C1453 1.404 1_455 S
C1452 C1455 1.539 . S
C1453 C1449 1.408 . S
C1453 C1452 1.404 1_655 S
C1453 H1465 0.930 1_655 S
C1454 C1450 1.524 . S
C1454 H1466 0.956 . S
C1454 H1467 0.961 . S
C1454 H1468 0.961 . S
C1455 C1452 1.539 . S
C1455 H1469 0.958 . S
C1455 H1470 0.961 . S
C1455 H1471 0.960 . S
H1456 C1440 0.931 . S
H1457 C1445 0.929 . S
H1458 C1446 0.960 . S
H1459 C1446 0.962 . S
H1460 C1446 0.960 . S
H1461 C1447 0.961 . S
H1462 C1447 0.961 . S
H1463 C1447 0.961 . S
H1464 C1448 0.931 . S
H1465 C1453 0.930 1_455 S
H1466 C1454 0.956 . S
H1467 C1454 0.961 . S
H1468 C1454 0.961 . S
H1469 C1455 0.958 . S
H1470 C1455 0.961 . S
H1471 C1455 0.960 . S
C1472 C1473 1.391 1_565 S
C1472 C1474 1.394 . S
C1472 H1488 0.931 . S
C1473 C1472 1.391 1_545 S
C1473 C1477 1.376 . S
C1474 C1472 1.394 . S
C1474 C1475 1.357 1_565 S
C1474 C1478 1.531 . S
C1475 C1474 1.357 1_545 S
C1475 C1476 1.425 . S
C1475 C1483 1.500 1_545 S
C1476 C1475 1.425 . S
C1476 C1477 1.392 . S
C1476 C1479 1.511 . S
C1477 C1473 1.376 . S
C1477 C1476 1.392 . S
C1477 H1489 0.929 . S
C1478 C1474 1.531 . S
C1478 H1490 0.960 . S
C1478 H1491 0.962 . S
C1478 H1492 0.960 . S
C1479 C1476 1.511 . S
C1479 H1493 0.961 . S
C1479 H1494 0.961 . S
C1479 H1495 0.961 . S
C1480 C1481 1.370 . S
C1480 C1482 1.363 1_565 S
C1480 H1496 0.931 1_565 S
C1481 C1480 1.370 . S
C1481 C1485 1.408 . S
C1482 C1480 1.363 1_545 S
C1482 C1483 1.370 1_545 S
C1482 C1486 1.524 . S
C1483 C1475 1.500 1_565 S
C1483 C1482 1.370 1_565 S
C1483 C1484 1.403 . S
C1484 C1483 1.403 . S
C1484 C1485 1.404 . S
C1484 C1487 1.539 . S
C1485 C1481 1.408 . S
C1485 C1484 1.404 . S
C1485 H1497 0.930 . S
C1486 C1482 1.524 . S
C1486 H1498 0.956 . S
C1486 H1499 0.961 . S
C1486 H1500 0.961 . S
C1487 C1484 1.539 . S
C1487 H1501 0.958 . S
C1487 H1502 0.961 . S
C1487 H1503 0.960 . S
H1488 C1472 0.931 . S
H1489 C1477 0.929 . S
H1490 C1478 0.960 . S
H1491 C1478 0.962 . S
H1492 C1478 0.960 . S
H1493 C1479 0.961 . S
H1494 C1479 0.961 . S
H1495 C1479 0.961 . S
H1496 C1480 0.931 1_545 S
H1497 C1485 0.930 . S
H1498 C1486 0.956 . S
H1499 C1486 0.961 . S
H1500 C1486 0.961 . S
H1501 C1487 0.958 . S
H1502 C1487 0.961 . S
H1503 C1487 0.960 . S
C1504 C1505 1.391 . S
C1504 C1506 1.394 . S
C1504 H1520 0.931 . S
C1505 C1504 1.391 . S
C1505 C1509 1.376 1_455 S
C1506 C1504 1.394 . S
C1506 C1507 1.369 . S
C1506 C1510 1.531 . S
C1507 C1506 1.369 . S
C1507 C1508 1.410 1_455 S
C1507 C1515 1.503 1_455 S
C1508 C1507 1.410 1_655 S
C1508 C1509 1.392 . S
C1508 C1511 1.511 . S
C1509 C1505 1.376 1_655 S
C1509 C1508 1.392 . S
C1509 H1521 0.929 . S
C1510 C1506 1.531 . S
C1510 H1522 0.960 . S
C1510 H1523 0.962 . S
C1510 H1524 0.960 . S
C1511 C1508 1.511 . S
C1511 H1525 0.961 . S
C1511 H1526 0.961 . S
C1511 H1527 0.961 . S
C1512 C1513 1.370 . S
C1512 C1514 1.363 1_655 S
C1512 H1528 0.931 1_655 S
C1513 C1512 1.370 . S
C1513 C1517 1.408 . S
C1514 C1512 1.363 1_455 S
C1514 C1515 1.370 1_455 S
C1514 C1518 1.524 . S
C1515 C1507 1.503 1_655 S
C1515 C1514 1.370 1_655 S
C1515 C1516 1.403 . S
C1516 C1515 1.403 . S
C1516 C1517 1.404 . S
C1516 C1519 1.539 . S
C1517 C1513 1.408 . S
C1517 C1516 1.404 . S
C1517 H1529 0.930 . S
C1518 C1514 1.524 . S
C1518 H1530 0.956 . S
C1518 H1531 0.961 . S
C1518 H1532 0.961 . S
C1519 C1516 1.539 . S
C1519 H1533 0.958 . S
C1519 H1534 0.961 . S
C1519 H1535 0.960 . S
H1520 C1504 0.931 . S
H1521 C1509 0.929 . S
H1522 C1510 0.960 . S
H1523 C1510 0.962 . S
H1524 C1510 0.960 . S
H1525 C1511 0.961 . S
H1526 C1511 0.961 . S
H1527 C1511 0.961 . S
H1528 C1512 0.931 1_455 S
H1529 C1517 0.930 . S
H1530 C1518 0.956 . S
H1531 C1518 0.961 . S
H1532 C1518 0.961 . S
H1533 C1519 0.958 . S
H1534 C1519 0.961 . S
H1535 C1519 0.960 . S
C1536 C1537 1.391 1_565 S
C1536 C1538 1.394 . S
C1536 H1552 0.931 . S
C1537 C1536 1.391 1_545 S
C1537 C1541 1.376 . S
C1538 C1536 1.394 . S
C1538 C1539 1.369 . S
C1538 C1542 1.531 . S
C1539 C1538 1.369 . S
C1539 C1540 1.410 1_565 S
C1539 C1547 1.503 . S
C1540 C1539 1.410 1_545 S
C1540 C1541 1.392 . S
C1540 C1543 1.511 . S
C1541 C1537 1.376 . S
C1541 C1540 1.392 . S
C1541 H1553 0.929 . S
C1542 C1538 1.531 . S
C1542 H1554 0.960 . S
C1542 H1555 0.962 . S
C1542 H1556 0.960 . S
C1543 C1540 1.511 . S
C1543 H1557 0.961 . S
C1543 H1558 0.961 . S
C1543 H1559 0.961 . S
C1544 C1545 1.370 1_545 S
C1544 C1546 1.363 . S
C1544 H1560 0.931 . S
C1545 C1544 1.370 1_565 S
C1545 C1549 1.408 . S
C1546 C1544 1.363 . S
C1546 C1547 1.370 1_545 S
C1546 C1550 1.524 . S
C1547 C1539 1.503 . S
C1547 C1546 1.370 1_565 S
C1547 C1548 1.403 . S
C1548 C1547 1.403 . S
C1548 C1549 1.404 . S
C1548 C1551 1.539 . S
C1549 C1545 1.408 . S
C1549 C1548 1.404 . S
C1549 H1561 0.930 . S
C1550 C1546 1.524 . S
C1550 H1562 0.956 . S
C1550 H1563 0.961 . S
C1550 H1564 0.961 . S
C1551 C1548 1.539 . S
C1551 H1565 0.958 . S
C1551 H1566 0.961 . S
C1551 H1567 0.960 . S
H1552 C1536 0.931 . S
H1553 C1541 0.929 . S
H1554 C1542 0.960 . S
H1555 C1542 0.962 . S
H1556 C1542 0.960 . S
H1557 C1543 0.961 . S
H1558 C1543 0.961 . S
H1559 C1543 0.961 . S
H1560 C1544 0.931 . S
H1561 C1549 0.930 . S
H1562 C1550 0.956 . S
H1563 C1550 0.961 . S
H1564 C1550 0.961 . S
H1565 C1551 0.958 . S
H1566 C1551 0.961 . S
H1567 C1551 0.960 . S
C1568 C1569 1.391 . S
C1568 C1570 1.394 . S
C1568 H1584 0.931 . S
C1569 C1568 1.391 . S
C1569 C1573 1.376 1_655 S
C1570 C1568 1.394 . S
C1570 C1571 1.376 . S
C1570 C1574 1.531 . S
C1571 C1570 1.376 . S
C1571 C1572 1.404 1_655 S
C1571 C1579 1.502 1_655 S
C1572 C1571 1.404 1_455 S
C1572 C1573 1.392 . S
C1572 C1575 1.511 . S
C1573 C1569 1.376 1_455 S
C1573 C1572 1.392 . S
C1573 H1585 0.929 . S
C1574 C1570 1.531 . S
C1574 H1586 0.960 . S
C1574 H1587 0.962 . S
C1574 H1588 0.960 . S
C1575 C1572 1.511 . S
C1575 H1589 0.961 . S
C1575 H1590 0.961 . S
C1575 H1591 0.961 . S
C1576 C1577 1.371 1_655 S
C1576 C1578 1.363 . S
C1576 H1592 0.931 . S
C1577 C1576 1.371 1_455 S
C1577 C1581 1.408 . S
C1578 C1576 1.363 . S
C1578 C1579 1.370 1_655 S
C1578 C1582 1.524 . S
C1579 C1571 1.502 1_455 S
C1579 C1578 1.370 1_455 S
C1579 C1580 1.403 . S
C1580 C1579 1.403 . S
C1580 C1581 1.404 . S
C1580 C1583 1.539 . S
C1581 C1577 1.408 . S
C1581 C1580 1.404 . S
C1581 H1593 0.930 . S
C1582 C1578 1.524 . S
C1582 H1594 0.956 . S
C1582 H1595 0.961 . S
C1582 H1596 0.961 . S
C1583 C1580 1.539 . S
C1583 H1597 0.958 . S
C1583 H1598 0.961 . S
C1583 H1599 0.960 . S
H1584 C1568 0.931 . S
H1585 C1573 0.929 . S
H1586 C1574 0.960 . S
H1587 C1574 0.962 . S
H1588 C1574 0.960 . S
H1589 C1575 0.961 . S
H1590 C1575 0.961 . S
H1591 C1575 0.961 . S
H1592 C1576 0.931 . S
H1593 C1581 0.930 . S
H1594 C1582 0.956 . S
H1595 C1582 0.961 . S
H1596 C1582 0.961 . S
H1597 C1583 0.958 . S
H1598 C1583 0.961 . S
H1599 C1583 0.960 . S
C1600 C1601 1.391 1_565 S
C1600 C1602 1.394 . S
C1600 H1616 0.931 . S
C1601 C1600 1.391 1_545 S
C1601 C1605 1.376 . S
C1602 C1600 1.394 . S
C1602 C1603 1.369 . S
C1602 C1606 1.531 . S
C1603 C1602 1.369 . S
C1603 C1604 1.410 1_565 S
C1603 C1611 1.503 . S
C1604 C1603 1.410 1_545 S
C1604 C1605 1.392 . S
C1604 C1607 1.511 . S
C1605 C1601 1.376 . S
C1605 C1604 1.392 . S
C1605 H1617 0.929 . S
C1606 C1602 1.531 . S
C1606 H1618 0.960 . S
C1606 H1619 0.962 . S
C1606 H1620 0.960 . S
C1607 C1604 1.511 . S
C1607 H1621 0.961 . S
C1607 H1622 0.961 . S
C1607 H1623 0.961 . S
C1608 C1609 1.370 1_545 S
C1608 C1610 1.363 . S
C1608 H1624 0.931 . S
C1609 C1608 1.370 1_565 S
C1609 C1613 1.408 . S
C1610 C1608 1.363 . S
C1610 C1611 1.370 1_545 S
C1610 C1614 1.524 . S
C1611 C1603 1.503 . S
C1611 C1610 1.370 1_565 S
C1611 C1612 1.403 . S
C1612 C1611 1.403 . S
C1612 C1613 1.404 . S
C1612 C1615 1.539 . S
C1613 C1609 1.408 . S
C1613 C1612 1.404 . S
C1613 H1625 0.930 . S
C1614 C1610 1.524 . S
C1614 H1626 0.956 . S
C1614 H1627 0.961 . S
C1614 H1628 0.961 . S
C1615 C1612 1.539 . S
C1615 H1629 0.958 . S
C1615 H1630 0.961 . S
C1615 H1631 0.960 . S
H1616 C1600 0.931 . S
H1617 C1605 0.929 . S
H1618 C1606 0.960 . S
H1619 C1606 0.962 . S
H1620 C1606 0.960 . S
H1621 C1607 0.961 . S
H1622 C1607 0.961 . S
H1623 C1607 0.961 . S
H1624 C1608 0.931 . S
H1625 C1613 0.930 . S
H1626 C1614 0.956 . S
H1627 C1614 0.961 . S
H1628 C1614 0.961 . S
H1629 C1615 0.958 . S
H1630 C1615 0.961 . S
H1631 C1615 0.960 . S
C1632 C1633 1.391 . S
C1632 C1634 1.394 . S
C1632 H1648 0.931 . S
C1633 C1632 1.391 . S
C1633 C1637 1.376 . S
C1634 C1632 1.394 . S
C1634 C1635 1.369 . S
C1634 C1638 1.531 . S
C1635 C1634 1.369 . S
C1635 C1636 1.410 . S
C1635 C1643 1.503 1_455 S
C1636 C1635 1.410 . S
C1636 C1637 1.392 . S
C1636 C1639 1.511 1_455 S
C1637 C1633 1.376 . S
C1637 C1636 1.392 . S
C1637 H1649 0.929 . S
C1638 C1634 1.531 . S
C1638 H1650 0.960 . S
C1638 H1651 0.962 . S
C1638 H1652 0.960 . S
C1639 C1636 1.511 1_655 S
C1639 H1653 0.961 . S
C1639 H1654 0.961 . S
C1639 H1655 0.961 . S
C1640 C1641 1.370 . S
C1640 C1642 1.363 . S
C1640 H1656 0.931 . S
C1641 C1640 1.370 . S
C1641 C1645 1.408 . S
C1642 C1640 1.363 . S
C1642 C1643 1.370 . S
C1642 C1646 1.524 . S
C1643 C1635 1.503 1_655 S
C1643 C1642 1.370 . S
C1643 C1644 1.403 . S
C1644 C1643 1.403 . S
C1644 C1645 1.404 . S
C1644 C1647 1.539 1_655 S
C1645 C1641 1.408 . S
C1645 C1644 1.404 . S
C1645 H1657 0.930 . S
C1646 C1642 1.524 . S
C1646 H1658 0.956 . S
C1646 H1659 0.961 . S
C1646 H1660 0.961 . S
C1647 C1644 1.539 1_455 S
C1647 H1661 0.958 . S
C1647 H1662 0.961 . S
C1647 H1663 0.960 . S
H1648 C1632 0.931 . S
H1649 C1637 0.929 . S
H1650 C1638 0.960 . S
H1651 C1638 0.962 . S
H1652 C1638 0.960 . S
H1653 C1639 0.961 . S
H1654 C1639 0.961 . S
H1655 C1639 0.961 . S
H1656 C1640 0.931 . S
H1657 C1645 0.930 . S
H1658 C1646 0.956 . S
H1659 C1646 0.961 . S
H1660 C1646 0.961 . S
H1661 C1647 0.958 . S
H1662 C1647 0.961 . S
H1663 C1647 0.960 . S
C1664 C1665 1.391 . S
C1664 C1666 1.394 . S
C1664 H1680 0.931 . S
C1665 C1664 1.391 . S
C1665 C1669 1.376 . S
C1666 C1664 1.394 . S
C1666 C1667 1.369 . S
C1666 C1670 1.531 1_545 S
C1667 C1666 1.369 . S
C1667 C1668 1.410 . S
C1667 C1675 1.503 1_545 S
C1668 C1667 1.410 . S
C1668 C1669 1.392 . S
C1668 C1671 1.511 . S
C1669 C1665 1.376 . S
C1669 C1668 1.392 . S
C1669 H1681 0.929 . S
C1670 C1666 1.531 1_565 S
C1670 H1682 0.960 . S
C1670 H1683 0.962 . S
C1670 H1684 0.960 . S
C1671 C1668 1.511 . S
C1671 H1685 0.961 . S
C1671 H1686 0.961 . S
C1671 H1687 0.961 . S
C1672 C1673 1.370 . S
C1672 C1674 1.363 . S
C1672 H1688 0.931 . S
C1673 C1672 1.370 . S
C1673 C1677 1.408 . S
C1674 C1672 1.363 . S
C1674 C1675 1.370 . S
C1674 C1678 1.524 . S
C1675 C1667 1.503 1_565 S
C1675 C1674 1.370 . S
C1675 C1676 1.403 . S
C1676 C1675 1.403 . S
C1676 C1677 1.404 . S
C1676 C1679 1.539 1_565 S
C1677 C1673 1.408 . S
C1677 C1676 1.404 . S
C1677 H1689 0.930 . S
C1678 C1674 1.524 . S
C1678 H1690 0.956 . S
C1678 H1691 0.961 . S
C1678 H1692 0.961 . S
C1679 C1676 1.539 1_545 S
C1679 H1693 0.958 1_545 S
C1679 H1694 0.961 . S
C1679 H1695 0.960 . S
H1680 C1664 0.931 . S
H1681 C1669 0.929 . S
H1682 C1670 0.960 . S
H1683 C1670 0.962 . S
H1684 C1670 0.960 . S
H1685 C1671 0.961 . S
H1686 C1671 0.961 . S
H1687 C1671 0.961 . S
H1688 C1672 0.931 . S
H1689 C1677 0.930 . S
H1690 C1678 0.956 . S
H1691 C1678 0.961 . S
H1692 C1678 0.961 . S
H1693 C1679 0.958 1_565 S
H1694 C1679 0.961 . S
H1695 C1679 0.960 . S
C1696 C1697 1.391 . S
C1696 C1698 1.394 . S
C1696 H1712 0.931 . S
C1697 C1696 1.391 . S
C1697 C1701 1.376 . S
C1698 C1696 1.394 . S
C1698 C1699 1.369 . S
C1698 C1702 1.531 . S
C1699 C1698 1.369 . S
C1699 C1700 1.410 . S
C1699 C1707 1.503 1_455 S
C1700 C1699 1.410 . S
C1700 C1701 1.392 . S
C1700 C1703 1.511 1_455 S
C1701 C1697 1.376 . S
C1701 C1700 1.392 . S
C1701 H1713 0.929 . S
C1702 C1698 1.531 . S
C1702 H1714 0.960 . S
C1702 H1715 0.962 . S
C1702 H1716 0.960 . S
C1703 C1700 1.511 1_655 S
C1703 H1717 0.961 . S
C1703 H1718 0.961 . S
C1703 H1719 0.961 . S
C1704 C1705 1.370 . S
C1704 C1706 1.363 . S
C1704 H1720 0.931 . S
C1705 C1704 1.370 . S
C1705 C1709 1.408 . S
C1706 C1704 1.363 . S
C1706 C1707 1.370 . S
C1706 C1710 1.524 1_655 S
C1707 C1699 1.503 1_655 S
C1707 C1706 1.370 . S
C1707 C1708 1.403 . S
C1708 C1707 1.403 . S
C1708 C1709 1.404 . S
C1708 C1711 1.539 . S
C1709 C1705 1.408 . S
C1709 C1708 1.404 . S
C1709 H1721 0.930 . S
C1710 C1706 1.524 1_455 S
C1710 H1722 0.956 . S
C1710 H1723 0.961 . S
C1710 H1724 0.961 . S
C1711 C1708 1.539 . S
C1711 H1725 0.958 . S
C1711 H1726 0.961 . S
C1711 H1727 0.960 . S
H1712 C1696 0.931 . S
H1713 C1701 0.929 . S
H1714 C1702 0.960 . S
H1715 C1702 0.962 . S
H1716 C1702 0.960 . S
H1717 C1703 0.961 . S
H1718 C1703 0.961 . S
H1719 C1703 0.961 . S
H1720 C1704 0.931 . S
H1721 C1709 0.930 . S
H1722 C1710 0.956 . S
H1723 C1710 0.961 . S
H1724 C1710 0.961 . S
H1725 C1711 0.958 . S
H1726 C1711 0.961 . S
H1727 C1711 0.960 . S
C1728 C1729 1.391 . S
C1728 C1730 1.394 . S
C1728 H1744 0.931 . S
C1729 C1728 1.391 . S
C1729 C1733 1.376 . S
C1730 C1728 1.394 . S
C1730 C1731 1.369 . S
C1730 C1734 1.531 1_565 S
C1731 C1730 1.369 . S
C1731 C1732 1.410 . S
C1731 C1739 1.503 1_565 S
C1732 C1731 1.410 . S
C1732 C1733 1.392 . S
C1732 C1735 1.511 . S
C1733 C1729 1.376 . S
C1733 C1732 1.392 . S
C1733 H1745 0.929 . S
C1734 C1730 1.531 1_545 S
C1734 H1746 0.960 . S
C1734 H1747 0.962 . S
C1734 H1748 0.960 . S
C1735 C1732 1.511 . S
C1735 H1749 0.961 . S
C1735 H1750 0.961 . S
C1735 H1751 0.961 . S
C1736 C1737 1.370 . S
C1736 C1738 1.363 . S
C1736 H1752 0.931 . S
C1737 C1736 1.370 . S
C1737 C1741 1.408 . S
C1738 C1736 1.363 . S
C1738 C1739 1.370 . S
C1738 C1742 1.524 1_545 S
C1739 C1731 1.503 1_545 S
C1739 C1738 1.370 . S
C1739 C1740 1.403 . S
C1740 C1739 1.403 . S
C1740 C1741 1.404 . S
C1740 C1743 1.539 . S
C1741 C1737 1.408 . S
C1741 C1740 1.404 . S
C1741 H1753 0.930 . S
C1742 C1738 1.524 1_565 S
C1742 H1754 0.956 . S
C1742 H1755 0.961 . S
C1742 H1756 0.961 . S
C1743 C1740 1.539 . S
C1743 H1757 0.958 . S
C1743 H1758 0.961 . S
C1743 H1759 0.960 . S
H1744 C1728 0.931 . S
H1745 C1733 0.929 . S
H1746 C1734 0.960 . S
H1747 C1734 0.962 . S
H1748 C1734 0.960 . S
H1749 C1735 0.961 . S
H1750 C1735 0.961 . S
H1751 C1735 0.961 . S
H1752 C1736 0.931 . S
H1753 C1741 0.930 . S
H1754 C1742 0.956 . S
H1755 C1742 0.961 . S
H1756 C1742 0.961 . S
H1757 C1743 0.958 . S
H1758 C1743 0.961 . S
H1759 C1743 0.960 . S
C1760 C1761 1.391 . S
C1760 C1762 1.394 . S
C1760 H1776 0.931 . S
C1761 C1760 1.391 . S
C1761 C1765 1.376 . S
C1762 C1760 1.394 . S
C1762 C1763 1.369 . S
C1762 C1766 1.531 . S
C1763 C1762 1.369 . S
C1763 C1764 1.410 . S
C1763 C1771 1.503 1_455 S
C1764 C1763 1.410 . S
C1764 C1765 1.392 . S
C1764 C1767 1.511 1_455 S
C1765 C1761 1.376 . S
C1765 C1764 1.392 . S
C1765 H1777 0.929 . S
C1766 C1762 1.531 . S
C1766 H1778 0.960 . S
C1766 H1779 0.962 . S
C1766 H1780 0.960 . S
C1767 C1764 1.511 1_655 S
C1767 H1781 0.961 . S
C1767 H1782 0.961 . S
C1767 H1783 0.961 . S
C1768 C1769 1.370 . S
C1768 C1770 1.363 . S
C1768 H1784 0.931 . S
C1769 C1768 1.370 . S
C1769 C1773 1.408 . S
C1770 C1768 1.363 . S
C1770 C1771 1.370 . S
C1770 C1774 1.524 . S
C1771 C1763 1.503 1_655 S
C1771 C1770 1.370 . S
C1771 C1772 1.403 . S
C1772 C1771 1.403 . S
C1772 C1773 1.404 . S
C1772 C1775 1.539 1_655 S
C1773 C1769 1.408 . S
C1773 C1772 1.404 . S
C1773 H1785 0.930 . S
C1774 C1770 1.524 . S
C1774 H1786 0.956 . S
C1774 H1787 0.961 . S
C1774 H1788 0.961 . S
C1775 C1772 1.539 1_455 S
C1775 H1789 0.958 . S
C1775 H1790 0.961 . S
C1775 H1791 0.960 . S
H1776 C1760 0.931 . S
H1777 C1765 0.929 . S
H1778 C1766 0.960 . S
H1779 C1766 0.962 . S
H1780 C1766 0.960 . S
H1781 C1767 0.961 . S
H1782 C1767 0.961 . S
H1783 C1767 0.961 . S
H1784 C1768 0.931 . S
H1785 C1773 0.930 . S
H1786 C1774 0.956 . S
H1787 C1774 0.961 . S
H1788 C1774 0.961 . S
H1789 C1775 0.958 . S
H1790 C1775 0.961 . S
H1791 C1775 0.960 . S
C1792 C1793 1.391 . S
C1792 C1794 1.394 . S
C1792 H1808 0.931 . S
C1793 C1792 1.391 . S
C1793 C1797 1.376 . S
C1794 C1792 1.394 . S
C1794 C1795 1.369 . S
C1794 C1798 1.531 1_545 S
C1795 C1794 1.369 . S
C1795 C1796 1.410 . S
C1795 C1803 1.503 1_545 S
C1796 C1795 1.410 . S
C1796 C1797 1.392 . S
C1796 C1799 1.511 . S
C1797 C1793 1.376 . S
C1797 C1796 1.392 . S
C1797 H1809 0.929 . S
C1798 C1794 1.531 1_565 S
C1798 H1810 0.960 . S
C1798 H1811 0.962 . S
C1798 H1812 0.960 . S
C1799 C1796 1.511 . S
C1799 H1813 0.961 . S
C1799 H1814 0.961 . S
C1799 H1815 0.961 . S
C1800 C1801 1.370 . S
C1800 C1802 1.363 . S
C1800 H1816 0.931 . S
C1801 C1800 1.370 . S
C1801 C1805 1.408 . S
C1802 C1800 1.363 . S
C1802 C1803 1.370 . S
C1802 C1806 1.524 . S
C1803 C1795 1.503 1_565 S
C1803 C1802 1.370 . S
C1803 C1804 1.403 . S
C1804 C1803 1.403 . S
C1804 C1805 1.404 . S
C1804 C1807 1.539 . S
C1805 C1801 1.408 . S
C1805 C1804 1.404 . S
C1805 H1817 0.930 . S
C1806 C1802 1.524 . S
C1806 H1818 0.956 . S
C1806 H1819 0.961 1_565 S
C1806 H1820 0.961 . S
C1807 C1804 1.539 . S
C1807 H1821 0.958 . S
C1807 H1822 0.961 . S
C1807 H1823 0.960 1_565 S
H1808 C1792 0.931 . S
H1809 C1797 0.929 . S
H1810 C1798 0.960 . S
H1811 C1798 0.962 . S
H1812 C1798 0.960 . S
H1813 C1799 0.961 . S
H1814 C1799 0.961 . S
H1815 C1799 0.961 . S
H1816 C1800 0.931 . S
H1817 C1805 0.930 . S
H1818 C1806 0.956 . S
H1819 C1806 0.961 1_545 S
H1820 C1806 0.961 . S
H1821 C1807 0.958 . S
H1822 C1807 0.961 . S
H1823 C1807 0.960 1_545 S
C1824 C1825 1.391 . S
C1824 C1826 1.394 . S
C1824 H1840 0.931 . S
C1825 C1824 1.391 . S
C1825 C1829 1.376 . S
C1826 C1824 1.394 . S
C1826 C1827 1.369 . S
C1826 C1830 1.531 1_655 S
C1827 C1826 1.369 . S
C1827 C1828 1.410 . S
C1827 C1835 1.503 1_655 S
C1828 C1827 1.410 . S
C1828 C1829 1.392 . S
C1828 C1831 1.511 . S
C1829 C1825 1.376 . S
C1829 C1828 1.392 . S
C1829 H1841 0.929 . S
C1830 C1826 1.531 1_455 S
C1830 H1842 0.960 . S
C1830 H1843 0.962 . S
C1830 H1844 0.960 . S
C1831 C1828 1.511 . S
C1831 H1845 0.961 . S
C1831 H1846 0.961 . S
C1831 H1847 0.961 . S
C1832 C1833 1.370 . S
C1832 C1834 1.363 . S
C1832 H1848 0.931 . S
C1833 C1832 1.370 . S
C1833 C1837 1.408 . S
C1834 C1832 1.363 . S
C1834 C1835 1.370 . S
C1834 C1838 1.524 1_455 S
C1835 C1827 1.503 1_455 S
C1835 C1834 1.370 . S
C1835 C1836 1.403 . S
C1836 C1835 1.403 . S
C1836 C1837 1.404 . S
C1836 C1839 1.539 . S
C1837 C1833 1.408 . S
C1837 C1836 1.404 . S
C1837 H1849 0.930 . S
C1838 C1834 1.524 1_655 S
C1838 H1850 0.956 . S
C1838 H1851 0.961 . S
C1838 H1852 0.961 . S
C1839 C1836 1.539 . S
C1839 H1853 0.958 . S
C1839 H1854 0.961 . S
C1839 H1855 0.960 . S
H1840 C1824 0.931 . S
H1841 C1829 0.929 . S
H1842 C1830 0.960 . S
H1843 C1830 0.962 . S
H1844 C1830 0.960 . S
H1845 C1831 0.961 . S
H1846 C1831 0.961 . S
H1847 C1831 0.961 . S
H1848 C1832 0.931 . S
H1849 C1837 0.930 . S
H1850 C1838 0.956 . S
H1851 C1838 0.961 . S
H1852 C1838 0.961 . S
H1853 C1839 0.958 . S
H1854 C1839 0.961 . S
H1855 C1839 0.960 . S
C1856 C1857 1.391 . S
C1856 C1858 1.394 . S
C1856 H1872 0.931 . S
C1857 C1856 1.391 . S
C1857 C1861 1.376 . S
C1858 C1856 1.394 . S
C1858 C1859 1.369 . S
C1858 C1862 1.531 1_565 S
C1859 C1858 1.369 . S
C1859 C1860 1.410 . S
C1859 C1867 1.503 1_565 S
C1860 C1859 1.410 . S
C1860 C1861 1.392 . S
C1860 C1863 1.511 . S
C1861 C1857 1.376 . S
C1861 C1860 1.392 . S
C1861 H1873 0.929 . S
C1862 C1858 1.531 1_545 S
C1862 H1874 0.960 . S
C1862 H1875 0.962 . S
C1862 H1876 0.960 . S
C1863 C1860 1.511 . S
C1863 H1877 0.961 . S
C1863 H1878 0.961 . S
C1863 H1879 0.961 . S
C1864 C1865 1.370 . S
C1864 C1866 1.363 . S
C1864 H1880 0.931 . S
C1865 C1864 1.370 . S
C1865 C1869 1.408 . S
C1866 C1864 1.363 . S
C1866 C1867 1.370 . S
C1866 C1870 1.524 . S
C1867 C1859 1.503 1_545 S
C1867 C1866 1.370 . S
C1867 C1868 1.403 . S
C1868 C1867 1.403 . S
C1868 C1869 1.404 . S
C1868 C1871 1.539 . S
C1869 C1865 1.408 . S
C1869 C1868 1.404 . S
C1869 H1881 0.930 . S
C1870 C1866 1.524 . S
C1870 H1882 0.956 . S
C1870 H1883 0.961 1_545 S
C1870 H1884 0.961 . S
C1871 C1868 1.539 . S
C1871 H1885 0.958 . S
C1871 H1886 0.961 . S
C1871 H1887 0.960 1_545 S
H1872 C1856 0.931 . S
H1873 C1861 0.929 . S
H1874 C1862 0.960 . S
H1875 C1862 0.962 . S
H1876 C1862 0.960 . S
H1877 C1863 0.961 . S
H1878 C1863 0.961 . S
H1879 C1863 0.961 . S
H1880 C1864 0.931 . S
H1881 C1869 0.930 . S
H1882 C1870 0.956 . S
H1883 C1870 0.961 1_565 S
H1884 C1870 0.961 . S
H1885 C1871 0.958 . S
H1886 C1871 0.961 . S
H1887 C1871 0.960 1_565 S
C353 C8 0.916 . S
C361 C76 0.925 1_545 S
C385 C18 0.904 1_655 S
C393 C40 0.931 . S
C417 C62 0.955 . S
C425 C32 0.927 1_565 S
C449 C84 0.890 . S
C457 C54 0.938 1_455 S
C481 C120 0.905 1_565 S
C489 C96 0.927 . S
C513 C128 0.892 . S
C521 C150 0.941 1_455 S
C545 C172 0.904 1_545 S
C553 C140 0.929 . S
C577 C106 0.912 1_655 S
C585 C162 0.920 . S
C609 C184 0.960 . S
C617 C260 0.933 1_565 S
C641 C194 0.916 1_455 S
C649 C216 0.939 . S
C673 C208 0.959 1_545 S
C681 C238 0.926 . S
C705 C230 0.953 1_655 S
C713 C250 0.947 . S
C737 C304 0.929 1_545 S
C745 C272 0.915 . S
C769 C326 0.948 1_655 S
C777 C294 0.948 . S
C801 C316 0.963 . S
C809 C338 0.948 1_565 S
C833 C340 0.890 . S
C841 C282 0.930 1_455 S
C865 C21 1.779 . S
C873 C117 1.769 . S
C897 C153 1.740 . S
C905 C29 1.766 . S
C929 C51 1.764 . S
C937 C175 1.748 . S
C961 C73 1.727 . S
C969 C109 1.760 . S
C993 C307 1.784 . S
C1001 C197 1.766 . S
C1025 C329 1.731 . S
C1033 C205 1.758 . S
C1057 C227 1.784 . S
C1065 C345 1.768 . S
C1089 C285 1.736 . S
C1097 C263 1.745 . S
C1121 C10 1.462 . S
C1129 C228 1.469 . S
C1153 C30 1.458 . S
C1161 C252 1.467 . S
C1185 C186 1.476 . S
C1193 C52 1.474 . S
C1217 C74 1.471 . S
C1225 C206 1.473 . S
C1249 C98 1.470 . S
C1257 C318 1.471 . S
C1281 C118 1.473 . S
C1289 C348 1.473 . S
C1313 C142 1.473 . S
C1321 C274 1.474 . S
C1345 C296 1.472 . S
C1353 C164 1.472 . S
C1377 C7 0.353 . S
C1385 C139 0.390 . S
C1409 C161 0.433 . S
C1417 C37 0.381 . S
C1441 C95 0.327 . S
C1449 C59 0.407 . S
C1473 C125 0.375 . S
C1481 C81 0.384 . S
C1505 C315 0.376 . S
C1513 C183 0.380 . S
C1537 C351 0.515 . S
C1545 C213 0.433 . S
C1569 C271 0.391 . S
C1577 C235 0.381 . S
C1601 C249 0.512 . S
C1609 C293 0.430 . S
C1633 C15 1.909 . S
C1641 C65 1.875 . S
C1665 C43 1.909 . S
C1673 C87 1.883 . S
C1697 C103 1.848 . S
C1705 C147 1.901 . S
C1729 C169 1.872 . S
C1737 C131 1.898 . S
C1761 C241 1.921 . S
C1769 C191 1.880 . S
C1793 C257 1.878 . S
C1801 C219 1.881 . S
C1825 C279 1.855 . S
C1833 C323 1.891 . S
C1857 C301 1.885 . S
C1865 C337 1.879 . S
