# Generated by pormake.
# Topology pcb, (4)-cn, num edge types: 1
# Building blocks:
#     Node 0, Type 0, BuildingBlock: GALJAG_clean_sbu_0, # of connection points: 4
#     Node 1, Type 0, BuildingBlock: GALJAG_clean_sbu_0, # of connection points: 4
#     Node 2, Type 0, BuildingBlock: GALJAG_clean_sbu_0, # of connection points: 4
#     Node 3, Type 0, BuildingBlock: GALJAG_clean_sbu_0, # of connection points: 4
#     Node 4, Type 0, BuildingBlock: GALJAG_clean_sbu_0, # of connection points: 4
#     Node 5, Type 0, BuildingBlock: GALJAG_clean_sbu_0, # of connection points: 4
#     Node 6, Type 0, BuildingBlock: GALJAG_clean_sbu_0, # of connection points: 4
#     Node 7, Type 0, BuildingBlock: GALJAG_clean_sbu_0, # of connection points: 4
#     Node 8, Type 0, BuildingBlock: GALJAG_clean_sbu_0, # of connection points: 4
#     Node 9, Type 0, BuildingBlock: GALJAG_clean_sbu_0, # of connection points: 4
#     Node 10, Type 0, BuildingBlock: GALJAG_clean_sbu_0, # of connection points: 4
#     Node 11, Type 0, BuildingBlock: GALJAG_clean_sbu_0, # of connection points: 4
#     Node 12, Type 0, BuildingBlock: GALJAG_clean_sbu_0, # of connection points: 4
#     Node 13, Type 0, BuildingBlock: GALJAG_clean_sbu_0, # of connection points: 4
#     Node 14, Type 0, BuildingBlock: GALJAG_clean_sbu_0, # of connection points: 4
#     Node 15, Type 0, BuildingBlock: GALJAG_clean_sbu_0, # of connection points: 4
#     Edge 16, Type (0, 0), BuildingBlock: EYOCIG_clean_linker_4, # of connection points: 2
#     Edge 17, Type (0, 0), BuildingBlock: EYOCIG_clean_linker_4, # of connection points: 2
#     Edge 18, Type (0, 0), BuildingBlock: EYOCIG_clean_linker_4, # of connection points: 2
#     Edge 19, Type (0, 0), BuildingBlock: EYOCIG_clean_linker_4, # of connection points: 2
#     Edge 20, Type (0, 0), BuildingBlock: EYOCIG_clean_linker_4, # of connection points: 2
#     Edge 21, Type (0, 0), BuildingBlock: EYOCIG_clean_linker_4, # of connection points: 2
#     Edge 22, Type (0, 0), BuildingBlock: EYOCIG_clean_linker_4, # of connection points: 2
#     Edge 23, Type (0, 0), BuildingBlock: EYOCIG_clean_linker_4, # of connection points: 2
#     Edge 24, Type (0, 0), BuildingBlock: EYOCIG_clean_linker_4, # of connection points: 2
#     Edge 25, Type (0, 0), BuildingBlock: EYOCIG_clean_linker_4, # of connection points: 2
#     Edge 26, Type (0, 0), BuildingBlock: EYOCIG_clean_linker_4, # of connection points: 2
#     Edge 27, Type (0, 0), BuildingBlock: EYOCIG_clean_linker_4, # of connection points: 2
#     Edge 28, Type (0, 0), BuildingBlock: EYOCIG_clean_linker_4, # of connection points: 2
#     Edge 29, Type (0, 0), BuildingBlock: EYOCIG_clean_linker_4, # of connection points: 2
#     Edge 30, Type (0, 0), BuildingBlock: EYOCIG_clean_linker_4, # of connection points: 2
#     Edge 31, Type (0, 0), BuildingBlock: EYOCIG_clean_linker_4, # of connection points: 2
#     Edge 32, Type (0, 0), BuildingBlock: EYOCIG_clean_linker_4, # of connection points: 2
#     Edge 33, Type (0, 0), BuildingBlock: EYOCIG_clean_linker_4, # of connection points: 2
#     Edge 34, Type (0, 0), BuildingBlock: EYOCIG_clean_linker_4, # of connection points: 2
#     Edge 35, Type (0, 0), BuildingBlock: EYOCIG_clean_linker_4, # of connection points: 2
#     Edge 36, Type (0, 0), BuildingBlock: EYOCIG_clean_linker_4, # of connection points: 2
#     Edge 37, Type (0, 0), BuildingBlock: EYOCIG_clean_linker_4, # of connection points: 2
#     Edge 38, Type (0, 0), BuildingBlock: EYOCIG_clean_linker_4, # of connection points: 2
#     Edge 39, Type (0, 0), BuildingBlock: EYOCIG_clean_linker_4, # of connection points: 2
#     Edge 40, Type (0, 0), BuildingBlock: EYOCIG_clean_linker_4, # of connection points: 2
#     Edge 41, Type (0, 0), BuildingBlock: EYOCIG_clean_linker_4, # of connection points: 2
#     Edge 42, Type (0, 0), BuildingBlock: EYOCIG_clean_linker_4, # of connection points: 2
#     Edge 43, Type (0, 0), BuildingBlock: EYOCIG_clean_linker_4, # of connection points: 2
#     Edge 44, Type (0, 0), BuildingBlock: EYOCIG_clean_linker_4, # of connection points: 2
#     Edge 45, Type (0, 0), BuildingBlock: EYOCIG_clean_linker_4, # of connection points: 2
#     Edge 46, Type (0, 0), BuildingBlock: EYOCIG_clean_linker_4, # of connection points: 2
#     Edge 47, Type (0, 0), BuildingBlock: EYOCIG_clean_linker_4, # of connection points: 2
# Relax obj value: 0.356
# Max RMSD: 0.193
# Mean RMSD: 0.171
data_MOF--net-pcb--node1-GALJAG_clean_sbu_0--edge1-EYOCIG_clean_linker_4
_symmetry_space_group_name_H-M    P1
_symmetry_Int_Tables_number       1
_symmetry_cell_setting            triclinic
loop_
_symmetry_equiv_pos_as_xyz
'x, y, z'
_cell_length_a     30.295326
_cell_length_b     37.945603
_cell_length_c     37.943718
_cell_angle_alpha  99.456619
_cell_angle_beta   96.204637
_cell_angle_gamma 96.161277
loop_
_atom_site_label
_atom_site_type_symbol
_atom_site_fract_x
_atom_site_fract_y
_atom_site_fract_z
_atom_type_partial_charge
In0 In 0.241 0.133 0.12396 0.0
O1 O 0.2806 0.16754 0.17595 0.0
O2 O 0.24854 0.19429 0.13751 0.0
C3 C 0.25264 0.06346 0.12704 0.0
C4 C 0.16011 0.13785 0.14461 0.0
C5 C 0.25635 0.13576 0.05589 0.0
O6 O 0.28188 0.08949 0.1421 0.0
O7 O 0.21821 0.07238 0.11083 0.0
O8 O 0.21818 0.1348 0.06607 0.0
O9 O 0.28861 0.13664 0.08039 0.0
C10 C 0.26794 0.19664 0.16897 0.0
O11 O 0.16839 0.14159 0.11351 0.0
O12 O 0.19158 0.12935 0.16477 0.0
In13 In 0.86581 0.16192 0.17033 0.0
O14 O 0.86016 0.20245 0.21964 0.0
O15 O 0.80034 0.17646 0.18553 0.0
C16 C 0.95409 0.16356 0.17233 0.0
C17 C 0.84063 0.09899 0.18942 0.0
C18 C 0.84297 0.1846 0.10865 0.0
O19 O 0.93713 0.18754 0.19161 0.0
O20 O 0.9269 0.13923 0.15217 0.0
O21 O 0.8368 0.15185 0.11148 0.0
O22 O 0.86141 0.20605 0.13656 0.0
C23 C 0.81797 0.19787 0.21364 0.0
O24 O 0.82946 0.10527 0.15829 0.0
O25 O 0.86522 0.12404 0.21094 0.0
In26 In 0.80762 0.85605 0.17051 0.0
O27 O 0.77053 0.83532 0.21419 0.0
O28 O 0.78076 0.79818 0.16796 0.0
C29 C 0.80951 0.92711 0.1913 0.0
C30 C 0.89262 0.83991 0.18275 0.0
C31 C 0.76386 0.85355 0.10381 0.0
O32 O 0.78541 0.90484 0.20459 0.0
O33 O 0.83384 0.91381 0.16906 0.0
O34 O 0.8041 0.84832 0.10962 0.0
O35 O 0.7441 0.85853 0.1315 0.0
C36 C 0.76581 0.80317 0.19774 0.0
O37 O 0.86994 0.83419 0.15214 0.0
O38 O 0.87335 0.85489 0.20801 0.0
In39 In 0.18212 0.82402 0.13834 0.0
O40 O 0.12083 0.84352 0.16114 0.0
O41 O 0.11589 0.78757 0.14044 0.0
C42 C 0.22533 0.89071 0.13974 0.0
C43 C 0.22407 0.7961 0.19073 0.0
C44 C 0.18019 0.80199 0.06738 0.0
O45 O 0.18529 0.88488 0.14543 0.0
O46 O 0.24525 0.86309 0.13496 0.0
O47 O 0.20464 0.78942 0.09001 0.0
O48 O 0.15543 0.82409 0.08028 0.0
C49 C 0.09754 0.81322 0.15579 0.0
O50 O 0.21825 0.77961 0.15859 0.0
O51 O 0.21035 0.82638 0.19596 0.0
In52 In 0.12359 0.82429 0.8333 0.0
O53 O 0.13019 0.77542 0.79264 0.0
O54 O 0.18949 0.81002 0.81896 0.0
C55 C 0.03499 0.82144 0.83024 0.0
C56 C 0.14885 0.80448 0.89599 0.0
C57 C 0.14646 0.88613 0.81083 0.0
O58 O 0.0528 0.80238 0.80667 0.0
O59 O 0.0615 0.84174 0.85497 0.0
O60 O 0.15202 0.88336 0.84363 0.0
O61 O 0.12854 0.85813 0.78928 0.0
C62 C 0.17234 0.78192 0.79733 0.0
O63 O 0.15912 0.83597 0.89034 0.0
O64 O 0.12491 0.78301 0.87053 0.0
In65 In 0.17287 0.12166 0.81084 0.0
O66 O 0.09686 0.11798 0.79727 0.0
O67 O 0.13187 0.16843 0.82423 0.0
C68 C 0.18339 0.05263 0.79015 0.0
C69 C 0.20678 0.15859 0.76407 0.0
C70 C 0.20477 0.12644 0.88104 0.0
O71 O 0.14555 0.06328 0.7915 0.0
O72 O 0.21647 0.07693 0.79735 0.0
O73 O 0.22579 0.14189 0.85978 0.0
O74 O 0.16706 0.10948 0.86753 0.0
C75 C 0.09495 0.15049 0.81022 0.0
O76 O 0.22144 0.1647 0.79709 0.0
O77 O 0.17695 0.13197 0.75368 0.0
In78 In 0.81677 0.18418 0.87291 0.0
O79 O 0.89279 0.19744 0.87668 0.0
O80 O 0.8577 0.17097 0.82607 0.0
C81 C 0.8063 0.20451 0.94192 0.0
C82 C 0.78318 0.23204 0.83713 0.0
C83 C 0.78468 0.11396 0.86808 0.0
O84 O 0.84416 0.20327 0.93128 0.0
O85 O 0.77317 0.19731 0.91764 0.0
O86 O 0.76371 0.13526 0.85259 0.0
O87 O 0.82238 0.12745 0.88506 0.0
C88 C 0.89466 0.18471 0.84412 0.0
O89 O 0.76879 0.19896 0.82999 0.0
O90 O 0.81275 0.24184 0.86402 0.0
In91 In 0.74877 0.87065 0.8619 0.0
O92 O 0.70877 0.81884 0.82747 0.0
O93 O 0.74082 0.85712 0.8006 0.0
C94 C 0.73679 0.86658 0.93122 0.0
C95 C 0.82943 0.84962 0.856 0.0
C96 C 0.73364 0.93894 0.85937 0.0
O97 O 0.70781 0.8517 0.90496 0.0
O98 O 0.77117 0.88322 0.92267 0.0
O99 O 0.7718 0.92872 0.86069 0.0
O100 O 0.70131 0.91443 0.85812 0.0
C101 C 0.72142 0.82568 0.79834 0.0
O102 O 0.8213 0.88088 0.85278 0.0
O103 O 0.79807 0.82956 0.86472 0.0
In104 In 0.74133 0.63315 0.62446 0.0
O105 O 0.78268 0.66738 0.67589 0.0
O106 O 0.7491 0.69441 0.63849 0.0
C107 C 0.75334 0.56376 0.62833 0.0
C108 C 0.66064 0.63898 0.64558 0.0
C109 C 0.75614 0.63565 0.55606 0.0
O110 O 0.78218 0.59 0.64344 0.0
O111 O 0.71902 0.57234 0.61162 0.0
O112 O 0.71807 0.63455 0.56642 0.0
O113 O 0.78853 0.63675 0.5805 0.0
C114 C 0.76973 0.69657 0.66951 0.0
O115 O 0.66879 0.64242 0.61438 0.0
O116 O 0.69202 0.63017 0.66557 0.0
In117 In 0.36629 0.6618 0.67046 0.0
O118 O 0.35864 0.702 0.71939 0.0
O119 O 0.29993 0.67565 0.68401 0.0
C120 C 0.45483 0.66442 0.6737 0.0
C121 C 0.34079 0.59894 0.68976 0.0
C122 C 0.34498 0.68553 0.60905 0.0
O123 O 0.43709 0.68791 0.69296 0.0
O124 O 0.42826 0.63995 0.65309 0.0
O125 O 0.33868 0.6526 0.61125 0.0
O126 O 0.36274 0.70656 0.63744 0.0
C127 C 0.31652 0.69712 0.71239 0.0
O128 O 0.33068 0.60479 0.6583 0.0
O129 O 0.36471 0.62427 0.71142 0.0
In130 In 0.30745 0.35652 0.67075 0.0
O131 O 0.36952 0.33439 0.65197 0.0
O132 O 0.37363 0.35548 0.70779 0.0
C133 C 0.26369 0.35373 0.60387 0.0
C134 C 0.26655 0.3041 0.69915 0.0
C135 C 0.30872 0.42752 0.69209 0.0
O136 O 0.30405 0.34889 0.60982 0.0
O137 O 0.2438 0.35847 0.63151 0.0
O138 O 0.28454 0.40495 0.70493 0.0
O139 O 0.33339 0.41455 0.66995 0.0
C140 C 0.39255 0.34026 0.68244 0.0
O141 O 0.27147 0.33637 0.71524 0.0
O142 O 0.28064 0.29875 0.66903 0.0
In143 In 0.68244 0.32474 0.63875 0.0
O144 O 0.71805 0.28058 0.66011 0.0
O145 O 0.70936 0.32773 0.69667 0.0
C146 C 0.68063 0.30329 0.56769 0.0
C147 C 0.59763 0.31372 0.65558 0.0
C148 C 0.72666 0.39118 0.6409 0.0
O149 O 0.70494 0.29039 0.59016 0.0
O150 O 0.656 0.32539 0.58079 0.0
O151 O 0.68629 0.38557 0.64582 0.0
O152 O 0.74634 0.3634 0.63638 0.0
C153 C 0.7231 0.29745 0.69212 0.0
O154 O 0.62064 0.34415 0.66068 0.0
O155 O 0.61637 0.28806 0.64072 0.0
In156 In 0.6233 0.32457 0.33277 0.0
O157 O 0.65882 0.33723 0.3898 0.0
O158 O 0.62478 0.28405 0.37075 0.0
C159 C 0.64472 0.38585 0.30886 0.0
C160 C 0.67354 0.28244 0.29816 0.0
C161 C 0.5347 0.32127 0.3301 0.0
O162 O 0.65083 0.38375 0.34182 0.0
O163 O 0.62703 0.35743 0.28784 0.0
O164 O 0.55245 0.30201 0.30662 0.0
O165 O 0.56127 0.34193 0.35453 0.0
C166 C 0.64866 0.30589 0.39597 0.0
O167 O 0.63143 0.2754 0.29297 0.0
O168 O 0.68987 0.31097 0.31947 0.0
In169 In 0.67276 0.62149 0.31053 0.0
O170 O 0.72041 0.66483 0.29599 0.0
O171 O 0.67612 0.63119 0.25308 0.0
C172 C 0.70522 0.62622 0.38077 0.0
C173 C 0.59461 0.64989 0.31009 0.0
C174 C 0.68226 0.55237 0.28914 0.0
O175 O 0.72625 0.64144 0.35935 0.0
O176 O 0.66738 0.60946 0.36737 0.0
O177 O 0.6447 0.56334 0.29121 0.0
O178 O 0.71567 0.57639 0.29623 0.0
C179 C 0.70551 0.65815 0.26299 0.0
O180 O 0.59675 0.6174 0.29729 0.0
O181 O 0.63145 0.66808 0.32393 0.0
In182 In 0.31638 0.6838 0.37304 0.0
O183 O 0.39247 0.6962 0.37645 0.0
O184 O 0.35685 0.67009 0.32594 0.0
C185 C 0.30798 0.70554 0.44237 0.0
C186 C 0.28346 0.7312 0.33631 0.0
C187 C 0.28275 0.61383 0.36817 0.0
O188 O 0.3453 0.70306 0.4311 0.0
O189 O 0.27433 0.69874 0.41857 0.0
O190 O 0.26208 0.63559 0.35317 0.0
O191 O 0.32081 0.62677 0.38484 0.0
C192 C 0.39402 0.68348 0.34384 0.0
O193 O 0.26812 0.69832 0.33016 0.0
O194 O 0.31343 0.74116 0.36289 0.0
In195 In 0.24824 0.37085 0.36164 0.0
O196 O 0.32088 0.3811 0.35259 0.0
O197 O 0.2976 0.32976 0.36442 0.0
C198 C 0.23209 0.43896 0.35898 0.0
C199 C 0.22046 0.32599 0.29801 0.0
C200 C 0.23664 0.36667 0.43108 0.0
O201 O 0.27046 0.42913 0.36043 0.0
O202 O 0.20011 0.41416 0.35772 0.0
O203 O 0.20777 0.35152 0.40484 0.0
O204 O 0.27074 0.38362 0.42246 0.0
C205 C 0.32902 0.34984 0.35582 0.0
O206 O 0.2073 0.31944 0.32708 0.0
O207 O 0.24103 0.35705 0.30039 0.0
C208 C 0.23614 0.2758 0.24485 0.0
C209 C 0.2278 0.29747 0.26971 0.0
C210 C 0.25091 0.24969 0.21874 0.0
C211 C 0.25965 0.22494 0.19713 0.0
C212 C 0.72967 0.24285 0.26996 0.0
C213 C 0.70178 0.25942 0.28175 0.0
C214 C 0.7638 0.22728 0.25437 0.0
C215 C 0.79105 0.21502 0.23737 0.0
C216 C 0.7352 0.74492 0.22004 0.0
C217 C 0.74827 0.77332 0.21248 0.0
C218 C 0.72335 0.71103 0.2288 0.0
C219 C 0.71295 0.68477 0.24121 0.0
C220 C 0.26561 0.76446 0.28273 0.0
C221 C 0.27607 0.75248 0.30926 0.0
C222 C 0.2539 0.773 0.24872 0.0
C223 C 0.24109 0.78082 0.22038 0.0
C224 C 0.26097 0.72627 0.75187 0.0
C225 C 0.28859 0.71402 0.73531 0.0
C226 C 0.22704 0.74198 0.76759 0.0
C227 C 0.19971 0.75872 0.78006 0.0
C228 C 0.22565 0.21218 0.73109 0.0
C229 C 0.2148 0.18565 0.74293 0.0
C230 C 0.23738 0.24618 0.72257 0.0
C231 C 0.24983 0.27452 0.71462 0.0
C232 C 0.7637 0.26658 0.78489 0.0
C233 C 0.77488 0.25419 0.81101 0.0
C234 C 0.75181 0.27517 0.75092 0.0
C235 C 0.73949 0.28268 0.72232 0.0
C236 C 0.73909 0.77571 0.74579 0.0
C237 C 0.73005 0.79741 0.77033 0.0
C238 C 0.75411 0.74959 0.71985 0.0
C239 C 0.7625 0.72475 0.69817 0.0
C240 C 0.23854 0.12905 0.94893 0.0
C241 C 0.22294 0.12775 0.91798 0.0
C242 C 0.25397 0.13155 0.98597 0.0
C243 C 0.26072 0.1337 0.01827 0.0
C244 C 0.80608 0.20819 0.01123 0.0
C245 C 0.80172 0.20664 0.97918 0.0
C246 C 0.81749 0.2039 0.047 0.0
C247 C 0.82971 0.19646 0.07575 0.0
C248 C 0.73143 0.8622 -0.0001 0.0
C249 C 0.73247 0.86352 0.96827 0.0
C250 C 0.73513 0.85956 0.03705 0.0
C251 C 0.74439 0.8573 0.0684 0.0
C252 C 0.17961 0.78968 0.99729 0.0
C253 C 0.18204 0.79366 0.02952 0.0
C254 C 0.17166 0.78998 0.96022 0.0
C255 C 0.16031 0.79493 0.93032 0.0
C256 C 0.08288 0.15236 0.16473 0.0
C257 C 0.11868 0.14542 0.15685 0.0
C258 C 0.03966 0.15969 0.17081 0.0
C259 C 0.00118 0.16339 0.17308 0.0
C260 C 0.81058 -0.00277 0.203 0.0
C261 C 0.80803 0.96502 0.19926 0.0
C262 C 0.81848 0.03431 0.20289 0.0
C263 C 0.82956 0.06437 0.19835 0.0
C264 C 0.97415 0.82087 0.18479 0.0
C265 C 0.93763 0.83057 0.18733 0.0
C266 C 0.0166 0.81219 0.17598 0.0
C267 C 0.05283 0.80938 0.16582 0.0
C268 C 0.25742 0.99449 0.13034 0.0
C269 C 0.25668 0.02624 0.12952 0.0
C270 C 0.25353 0.95731 0.13285 0.0
C271 C 0.24442 0.92605 0.13547 0.0
C272 C 0.90593 0.82887 0.8401 0.0
C273 C 0.87049 0.8371 0.84765 0.0
C274 C 0.94909 0.82257 0.8327 0.0
C275 C 0.98772 0.82036 0.8295 0.0
C276 C 0.17222 0.94764 0.79132 0.0
C277 C 0.15994 0.919 0.79895 0.0
C278 C 0.18364 0.98333 0.78674 0.0
C279 C 0.18802 0.01537 0.78814 0.0
C280 C 0.01667 0.17484 0.81332 0.0
C281 C 0.05307 0.16479 0.81242 0.0
C282 C 0.97299 0.18148 0.81988 0.0
C283 C 0.93655 0.18243 0.82984 0.0
C284 C 0.73592 0.00891 0.86325 0.0
C285 C 0.72931 0.9766 0.86122 0.0
C286 C 0.75108 0.046 0.86559 0.0
C287 C 0.7665 0.07699 0.86678 0.0
C288 C 0.73868 0.62899 0.44886 0.0
C289 C 0.72335 0.62769 0.41781 0.0
C290 C 0.75371 0.63148 0.48602 0.0
C291 C 0.7603 0.63362 0.51835 0.0
C292 C 0.32075 0.70606 0.54775 0.0
C293 C 0.33241 0.6981 0.57638 0.0
C294 C 0.30934 0.71051 0.512 0.0
C295 C 0.30432 0.7085 0.47988 0.0
C296 C 0.23142 0.36223 0.49982 0.0
C297 C 0.23246 0.36359 0.46818 0.0
C298 C 0.23506 0.35958 0.53699 0.0
C299 C 0.24423 0.35736 0.56838 0.0
C300 C 0.6717 0.29212 0.46049 0.0
C301 C 0.66031 0.29688 0.43052 0.0
C302 C 0.67979 0.29166 0.49754 0.0
C303 C 0.68237 0.29529 0.52977 0.0
C304 C 0.58393 0.6545 0.66624 0.0
C305 C 0.61946 0.64712 0.65806 0.0
C306 C 0.54072 0.6618 0.67255 0.0
C307 C 0.50209 0.66504 0.67478 0.0
C308 C 0.31761 0.53467 0.704 0.0
C309 C 0.3291 0.56456 0.69912 0.0
C310 C 0.30948 0.49762 0.70431 0.0
C311 C 0.30696 0.46539 0.7004 0.0
C312 C 0.51657 0.31248 0.67554 0.0
C313 C 0.55288 0.30973 0.66551 0.0
C314 C 0.47406 0.32112 0.68424 0.0
C315 C 0.43755 0.33086 0.68679 0.0
C316 C 0.75904 0.49503 0.63234 0.0
C317 C 0.7578 0.52667 0.63118 0.0
C318 C 0.75557 0.45786 0.63487 0.0
C319 C 0.74639 0.42651 0.63715 0.0
C320 C 0.40568 0.32901 0.34023 0.0
C321 C 0.37019 0.33733 0.34762 0.0
C322 C 0.44883 0.32251 0.33287 0.0
C323 C 0.48742 0.32019 0.32952 0.0
C324 C 0.66952 0.44706 0.28841 0.0
C325 C 0.65758 0.41844 0.29625 0.0
C326 C 0.68124 0.48281 0.28413 0.0
C327 C 0.68628 0.51493 0.28619 0.0
C328 C 0.51597 0.67364 0.31298 0.0
C329 C 0.55256 0.66393 0.3122 0.0
C330 C 0.47218 0.68005 0.3194 0.0
C331 C 0.43573 0.68105 0.32933 0.0
C332 C 0.2332 0.50882 0.36258 0.0
C333 C 0.22709 0.47651 0.36065 0.0
C334 C 0.24825 0.54597 0.36505 0.0
C335 C 0.26402 0.57692 0.36649 0.0
loop_
_geom_bond_atom_site_label_1
_geom_bond_atom_site_label_2
_geom_bond_distance
_geom_bond_site_symmetry_2
_ccdc_geom_bond_type
In0 O1 2.294 . S
In0 O2 2.326 . S
In0 O6 2.266 . S
In0 O7 2.326 . S
In0 O8 2.266 . S
In0 O9 2.326 . S
In0 O11 2.294 . S
In0 O12 2.326 . S
O1 In0 2.294 . S
O1 C10 1.240 . S
O2 In0 2.326 . S
O2 C10 1.252 . S
C3 O6 1.252 . S
C3 O7 1.260 . S
C4 O11 1.240 . S
C4 O12 1.252 . S
C5 O8 1.252 . S
C5 O9 1.260 . S
O6 In0 2.266 . S
O6 C3 1.252 . S
O7 In0 2.326 . S
O7 C3 1.260 . S
O8 In0 2.266 . S
O8 C5 1.252 . S
O9 In0 2.326 . S
O9 C5 1.260 . S
C10 O1 1.240 . S
C10 O2 1.252 . S
O11 In0 2.294 . S
O11 C4 1.240 . S
O12 In0 2.326 . S
O12 C4 1.252 . S
In13 O14 2.294 . S
In13 O15 2.326 . S
In13 O19 2.266 . S
In13 O20 2.326 . S
In13 O21 2.266 . S
In13 O22 2.326 . S
In13 O24 2.294 . S
In13 O25 2.326 . S
O14 In13 2.294 . S
O14 C23 1.240 . S
O15 In13 2.326 . S
O15 C23 1.252 . S
C16 O19 1.252 . S
C16 O20 1.260 . S
C17 O24 1.240 . S
C17 O25 1.252 . S
C18 O21 1.252 . S
C18 O22 1.260 . S
O19 In13 2.266 . S
O19 C16 1.252 . S
O20 In13 2.326 . S
O20 C16 1.260 . S
O21 In13 2.266 . S
O21 C18 1.252 . S
O22 In13 2.326 . S
O22 C18 1.260 . S
C23 O14 1.240 . S
C23 O15 1.252 . S
O24 In13 2.294 . S
O24 C17 1.240 . S
O25 In13 2.326 . S
O25 C17 1.252 . S
In26 O27 2.294 . S
In26 O28 2.326 . S
In26 O32 2.266 . S
In26 O33 2.326 . S
In26 O34 2.266 . S
In26 O35 2.326 . S
In26 O37 2.294 . S
In26 O38 2.326 . S
O27 In26 2.294 . S
O27 C36 1.240 . S
O28 In26 2.326 . S
O28 C36 1.252 . S
C29 O32 1.252 . S
C29 O33 1.260 . S
C30 O37 1.240 . S
C30 O38 1.252 . S
C31 O34 1.252 . S
C31 O35 1.260 . S
O32 In26 2.266 . S
O32 C29 1.252 . S
O33 In26 2.326 . S
O33 C29 1.260 . S
O34 In26 2.266 . S
O34 C31 1.252 . S
O35 In26 2.326 . S
O35 C31 1.260 . S
C36 O27 1.240 . S
C36 O28 1.252 . S
O37 In26 2.294 . S
O37 C30 1.240 . S
O38 In26 2.326 . S
O38 C30 1.252 . S
In39 O40 2.294 . S
In39 O41 2.326 . S
In39 O45 2.266 . S
In39 O46 2.326 . S
In39 O47 2.266 . S
In39 O48 2.326 . S
In39 O50 2.294 . S
In39 O51 2.326 . S
O40 In39 2.294 . S
O40 C49 1.240 . S
O41 In39 2.326 . S
O41 C49 1.252 . S
C42 O45 1.252 . S
C42 O46 1.260 . S
C43 O50 1.240 . S
C43 O51 1.252 . S
C44 O47 1.252 . S
C44 O48 1.260 . S
O45 In39 2.266 . S
O45 C42 1.252 . S
O46 In39 2.326 . S
O46 C42 1.260 . S
O47 In39 2.266 . S
O47 C44 1.252 . S
O48 In39 2.326 . S
O48 C44 1.260 . S
C49 O40 1.240 . S
C49 O41 1.252 . S
O50 In39 2.294 . S
O50 C43 1.240 . S
O51 In39 2.326 . S
O51 C43 1.252 . S
In52 O53 2.294 . S
In52 O54 2.326 . S
In52 O58 2.266 . S
In52 O59 2.326 . S
In52 O60 2.266 . S
In52 O61 2.326 . S
In52 O63 2.294 . S
In52 O64 2.326 . S
O53 In52 2.294 . S
O53 C62 1.240 . S
O54 In52 2.326 . S
O54 C62 1.252 . S
C55 O58 1.252 . S
C55 O59 1.260 . S
C56 O63 1.240 . S
C56 O64 1.252 . S
C57 O60 1.252 . S
C57 O61 1.260 . S
O58 In52 2.266 . S
O58 C55 1.252 . S
O59 In52 2.326 . S
O59 C55 1.260 . S
O60 In52 2.266 . S
O60 C57 1.252 . S
O61 In52 2.326 . S
O61 C57 1.260 . S
C62 O53 1.240 . S
C62 O54 1.252 . S
O63 In52 2.294 . S
O63 C56 1.240 . S
O64 In52 2.326 . S
O64 C56 1.252 . S
In65 O66 2.294 . S
In65 O67 2.326 . S
In65 O71 2.266 . S
In65 O72 2.326 . S
In65 O73 2.266 . S
In65 O74 2.326 . S
In65 O76 2.294 . S
In65 O77 2.326 . S
O66 In65 2.294 . S
O66 C75 1.240 . S
O67 In65 2.326 . S
O67 C75 1.252 . S
C68 O71 1.252 . S
C68 O72 1.260 . S
C69 O76 1.240 . S
C69 O77 1.252 . S
C70 O73 1.252 . S
C70 O74 1.260 . S
O71 In65 2.266 . S
O71 C68 1.252 . S
O72 In65 2.326 . S
O72 C68 1.260 . S
O73 In65 2.266 . S
O73 C70 1.252 . S
O74 In65 2.326 . S
O74 C70 1.260 . S
C75 O66 1.240 . S
C75 O67 1.252 . S
O76 In65 2.294 . S
O76 C69 1.240 . S
O77 In65 2.326 . S
O77 C69 1.252 . S
In78 O79 2.294 . S
In78 O80 2.326 . S
In78 O84 2.266 . S
In78 O85 2.326 . S
In78 O86 2.266 . S
In78 O87 2.326 . S
In78 O89 2.294 . S
In78 O90 2.326 . S
O79 In78 2.294 . S
O79 C88 1.240 . S
O80 In78 2.326 . S
O80 C88 1.252 . S
C81 O84 1.252 . S
C81 O85 1.260 . S
C82 O89 1.240 . S
C82 O90 1.252 . S
C83 O86 1.252 . S
C83 O87 1.260 . S
O84 In78 2.266 . S
O84 C81 1.252 . S
O85 In78 2.326 . S
O85 C81 1.260 . S
O86 In78 2.266 . S
O86 C83 1.252 . S
O87 In78 2.326 . S
O87 C83 1.260 . S
C88 O79 1.240 . S
C88 O80 1.252 . S
O89 In78 2.294 . S
O89 C82 1.240 . S
O90 In78 2.326 . S
O90 C82 1.252 . S
In91 O92 2.294 . S
In91 O93 2.326 . S
In91 O97 2.266 . S
In91 O98 2.326 . S
In91 O99 2.266 . S
In91 O100 2.326 . S
In91 O102 2.294 . S
In91 O103 2.326 . S
O92 In91 2.294 . S
O92 C101 1.240 . S
O93 In91 2.326 . S
O93 C101 1.252 . S
C94 O97 1.252 . S
C94 O98 1.260 . S
C95 O102 1.240 . S
C95 O103 1.252 . S
C96 O99 1.252 . S
C96 O100 1.260 . S
O97 In91 2.266 . S
O97 C94 1.252 . S
O98 In91 2.326 . S
O98 C94 1.260 . S
O99 In91 2.266 . S
O99 C96 1.252 . S
O100 In91 2.326 . S
O100 C96 1.260 . S
C101 O92 1.240 . S
C101 O93 1.252 . S
O102 In91 2.294 . S
O102 C95 1.240 . S
O103 In91 2.326 . S
O103 C95 1.252 . S
In104 O105 2.294 . S
In104 O106 2.326 . S
In104 O110 2.266 . S
In104 O111 2.326 . S
In104 O112 2.266 . S
In104 O113 2.326 . S
In104 O115 2.294 . S
In104 O116 2.326 . S
O105 In104 2.294 . S
O105 C114 1.240 . S
O106 In104 2.326 . S
O106 C114 1.252 . S
C107 O110 1.252 . S
C107 O111 1.260 . S
C108 O115 1.240 . S
C108 O116 1.252 . S
C109 O112 1.252 . S
C109 O113 1.260 . S
O110 In104 2.266 . S
O110 C107 1.252 . S
O111 In104 2.326 . S
O111 C107 1.260 . S
O112 In104 2.266 . S
O112 C109 1.252 . S
O113 In104 2.326 . S
O113 C109 1.260 . S
C114 O105 1.240 . S
C114 O106 1.252 . S
O115 In104 2.294 . S
O115 C108 1.240 . S
O116 In104 2.326 . S
O116 C108 1.252 . S
In117 O118 2.294 . S
In117 O119 2.326 . S
In117 O123 2.266 . S
In117 O124 2.326 . S
In117 O125 2.266 . S
In117 O126 2.326 . S
In117 O128 2.294 . S
In117 O129 2.326 . S
O118 In117 2.294 . S
O118 C127 1.240 . S
O119 In117 2.326 . S
O119 C127 1.252 . S
C120 O123 1.252 . S
C120 O124 1.260 . S
C121 O128 1.240 . S
C121 O129 1.252 . S
C122 O125 1.252 . S
C122 O126 1.260 . S
O123 In117 2.266 . S
O123 C120 1.252 . S
O124 In117 2.326 . S
O124 C120 1.260 . S
O125 In117 2.266 . S
O125 C122 1.252 . S
O126 In117 2.326 . S
O126 C122 1.260 . S
C127 O118 1.240 . S
C127 O119 1.252 . S
O128 In117 2.294 . S
O128 C121 1.240 . S
O129 In117 2.326 . S
O129 C121 1.252 . S
In130 O131 2.294 . S
In130 O132 2.326 . S
In130 O136 2.266 . S
In130 O137 2.326 . S
In130 O138 2.266 . S
In130 O139 2.326 . S
In130 O141 2.294 . S
In130 O142 2.326 . S
O131 In130 2.294 . S
O131 C140 1.240 . S
O132 In130 2.326 . S
O132 C140 1.252 . S
C133 O136 1.252 . S
C133 O137 1.260 . S
C134 O141 1.240 . S
C134 O142 1.252 . S
C135 O138 1.252 . S
C135 O139 1.260 . S
O136 In130 2.266 . S
O136 C133 1.252 . S
O137 In130 2.326 . S
O137 C133 1.260 . S
O138 In130 2.266 . S
O138 C135 1.252 . S
O139 In130 2.326 . S
O139 C135 1.260 . S
C140 O131 1.240 . S
C140 O132 1.252 . S
O141 In130 2.294 . S
O141 C134 1.240 . S
O142 In130 2.326 . S
O142 C134 1.252 . S
In143 O144 2.294 . S
In143 O145 2.326 . S
In143 O149 2.266 . S
In143 O150 2.326 . S
In143 O151 2.266 . S
In143 O152 2.326 . S
In143 O154 2.294 . S
In143 O155 2.326 . S
O144 In143 2.294 . S
O144 C153 1.240 . S
O145 In143 2.326 . S
O145 C153 1.252 . S
C146 O149 1.252 . S
C146 O150 1.260 . S
C147 O154 1.240 . S
C147 O155 1.252 . S
C148 O151 1.252 . S
C148 O152 1.260 . S
O149 In143 2.266 . S
O149 C146 1.252 . S
O150 In143 2.326 . S
O150 C146 1.260 . S
O151 In143 2.266 . S
O151 C148 1.252 . S
O152 In143 2.326 . S
O152 C148 1.260 . S
C153 O144 1.240 . S
C153 O145 1.252 . S
O154 In143 2.294 . S
O154 C147 1.240 . S
O155 In143 2.326 . S
O155 C147 1.252 . S
In156 O157 2.294 . S
In156 O158 2.326 . S
In156 O162 2.266 . S
In156 O163 2.326 . S
In156 O164 2.266 . S
In156 O165 2.326 . S
In156 O167 2.294 . S
In156 O168 2.326 . S
O157 In156 2.294 . S
O157 C166 1.240 . S
O158 In156 2.326 . S
O158 C166 1.252 . S
C159 O162 1.252 . S
C159 O163 1.260 . S
C160 O167 1.240 . S
C160 O168 1.252 . S
C161 O164 1.252 . S
C161 O165 1.260 . S
O162 In156 2.266 . S
O162 C159 1.252 . S
O163 In156 2.326 . S
O163 C159 1.260 . S
O164 In156 2.266 . S
O164 C161 1.252 . S
O165 In156 2.326 . S
O165 C161 1.260 . S
C166 O157 1.240 . S
C166 O158 1.252 . S
O167 In156 2.294 . S
O167 C160 1.240 . S
O168 In156 2.326 . S
O168 C160 1.252 . S
In169 O170 2.294 . S
In169 O171 2.326 . S
In169 O175 2.266 . S
In169 O176 2.326 . S
In169 O177 2.266 . S
In169 O178 2.326 . S
In169 O180 2.294 . S
In169 O181 2.326 . S
O170 In169 2.294 . S
O170 C179 1.240 . S
O171 In169 2.326 . S
O171 C179 1.252 . S
C172 O175 1.252 . S
C172 O176 1.260 . S
C173 O180 1.240 . S
C173 O181 1.252 . S
C174 O177 1.252 . S
C174 O178 1.260 . S
O175 In169 2.266 . S
O175 C172 1.252 . S
O176 In169 2.326 . S
O176 C172 1.260 . S
O177 In169 2.266 . S
O177 C174 1.252 . S
O178 In169 2.326 . S
O178 C174 1.260 . S
C179 O170 1.240 . S
C179 O171 1.252 . S
O180 In169 2.294 . S
O180 C173 1.240 . S
O181 In169 2.326 . S
O181 C173 1.252 . S
In182 O183 2.294 . S
In182 O184 2.326 . S
In182 O188 2.266 . S
In182 O189 2.326 . S
In182 O190 2.266 . S
In182 O191 2.326 . S
In182 O193 2.294 . S
In182 O194 2.326 . S
O183 In182 2.294 . S
O183 C192 1.240 . S
O184 In182 2.326 . S
O184 C192 1.252 . S
C185 O188 1.252 . S
C185 O189 1.260 . S
C186 O193 1.240 . S
C186 O194 1.252 . S
C187 O190 1.252 . S
C187 O191 1.260 . S
O188 In182 2.266 . S
O188 C185 1.252 . S
O189 In182 2.326 . S
O189 C185 1.260 . S
O190 In182 2.266 . S
O190 C187 1.252 . S
O191 In182 2.326 . S
O191 C187 1.260 . S
C192 O183 1.240 . S
C192 O184 1.252 . S
O193 In182 2.294 . S
O193 C186 1.240 . S
O194 In182 2.326 . S
O194 C186 1.252 . S
In195 O196 2.294 . S
In195 O197 2.326 . S
In195 O201 2.266 . S
In195 O202 2.326 . S
In195 O203 2.266 . S
In195 O204 2.326 . S
In195 O206 2.294 . S
In195 O207 2.326 . S
O196 In195 2.294 . S
O196 C205 1.240 . S
O197 In195 2.326 . S
O197 C205 1.252 . S
C198 O201 1.252 . S
C198 O202 1.260 . S
C199 O206 1.240 . S
C199 O207 1.252 . S
C200 O203 1.252 . S
C200 O204 1.260 . S
O201 In195 2.266 . S
O201 C198 1.252 . S
O202 In195 2.326 . S
O202 C198 1.260 . S
O203 In195 2.266 . S
O203 C200 1.252 . S
O204 In195 2.326 . S
O204 C200 1.260 . S
C205 O196 1.240 . S
C205 O197 1.252 . S
O206 In195 2.294 . S
O206 C199 1.240 . S
O207 In195 2.326 . S
O207 C199 1.252 . S
C208 C209 1.170 . S
C208 C210 1.380 . S
C209 C208 1.170 . S
C210 C208 1.380 . S
C210 C211 1.170 . S
C211 C210 1.170 . S
C212 C213 1.170 . S
C212 C214 1.380 . S
C213 C212 1.170 . S
C214 C212 1.380 . S
C214 C215 1.170 . S
C215 C214 1.170 . S
C216 C217 1.170 . S
C216 C218 1.380 . S
C217 C216 1.170 . S
C218 C216 1.380 . S
C218 C219 1.170 . S
C219 C218 1.170 . S
C220 C221 1.170 . S
C220 C222 1.380 . S
C221 C220 1.170 . S
C222 C220 1.380 . S
C222 C223 1.170 . S
C223 C222 1.170 . S
C224 C225 1.170 . S
C224 C226 1.380 . S
C225 C224 1.170 . S
C226 C224 1.380 . S
C226 C227 1.170 . S
C227 C226 1.170 . S
C228 C229 1.170 . S
C228 C230 1.380 . S
C229 C228 1.170 . S
C230 C228 1.380 . S
C230 C231 1.170 . S
C231 C230 1.170 . S
C232 C233 1.170 . S
C232 C234 1.380 . S
C233 C232 1.170 . S
C234 C232 1.380 . S
C234 C235 1.170 . S
C235 C234 1.170 . S
C236 C237 1.170 . S
C236 C238 1.380 . S
C237 C236 1.170 . S
C238 C236 1.380 . S
C238 C239 1.170 . S
C239 C238 1.170 . S
C240 C241 1.170 . S
C240 C242 1.380 . S
C241 C240 1.170 . S
C242 C240 1.380 . S
C242 C243 1.170 1_556 S
C243 C242 1.170 1_554 S
C244 C245 1.170 1_554 S
C244 C246 1.380 . S
C245 C244 1.170 1_556 S
C246 C244 1.380 . S
C246 C247 1.170 . S
C247 C246 1.170 . S
C248 C249 1.170 1_554 S
C248 C250 1.380 . S
C249 C248 1.170 1_556 S
C250 C248 1.380 . S
C250 C251 1.170 . S
C251 C250 1.170 . S
C252 C253 1.170 1_556 S
C252 C254 1.380 . S
C253 C252 1.170 1_554 S
C254 C252 1.380 . S
C254 C255 1.170 . S
C255 C254 1.170 . S
C256 C257 1.170 . S
C256 C258 1.380 . S
C257 C256 1.170 . S
C258 C256 1.380 . S
C258 C259 1.170 . S
C259 C258 1.170 . S
C260 C261 1.170 1_545 S
C260 C262 1.380 . S
C261 C260 1.170 1_565 S
C262 C260 1.380 . S
C262 C263 1.170 . S
C263 C262 1.170 . S
C264 C265 1.170 . S
C264 C266 1.380 1_655 S
C265 C264 1.170 . S
C266 C264 1.380 1_455 S
C266 C267 1.170 . S
C267 C266 1.170 . S
C268 C269 1.170 1_565 S
C268 C270 1.380 . S
C269 C268 1.170 1_545 S
C270 C268 1.380 . S
C270 C271 1.170 . S
C271 C270 1.170 . S
C272 C273 1.170 . S
C272 C274 1.380 . S
C273 C272 1.170 . S
C274 C272 1.380 . S
C274 C275 1.170 . S
C275 C274 1.170 . S
C276 C277 1.170 . S
C276 C278 1.380 . S
C277 C276 1.170 . S
C278 C276 1.380 . S
C278 C279 1.170 1_565 S
C279 C278 1.170 1_545 S
C280 C281 1.170 . S
C280 C282 1.380 1_455 S
C281 C280 1.170 . S
C282 C280 1.380 1_655 S
C282 C283 1.170 . S
C283 C282 1.170 . S
C284 C285 1.170 1_545 S
C284 C286 1.380 . S
C285 C284 1.170 1_565 S
C286 C284 1.380 . S
C286 C287 1.170 . S
C287 C286 1.170 . S
C288 C289 1.170 . S
C288 C290 1.380 . S
C289 C288 1.170 . S
C290 C288 1.380 . S
C290 C291 1.170 . S
C291 C290 1.170 . S
C292 C293 1.170 . S
C292 C294 1.380 . S
C293 C292 1.170 . S
C294 C292 1.380 . S
C294 C295 1.170 . S
C295 C294 1.170 . S
C296 C297 1.170 . S
C296 C298 1.380 . S
C297 C296 1.170 . S
C298 C296 1.380 . S
C298 C299 1.170 . S
C299 C298 1.170 . S
C300 C301 1.170 . S
C300 C302 1.380 . S
C301 C300 1.170 . S
C302 C300 1.380 . S
C302 C303 1.170 . S
C303 C302 1.170 . S
C304 C305 1.170 . S
C304 C306 1.380 . S
C305 C304 1.170 . S
C306 C304 1.380 . S
C306 C307 1.170 . S
C307 C306 1.170 . S
C308 C309 1.170 . S
C308 C310 1.380 . S
C309 C308 1.170 . S
C310 C308 1.380 . S
C310 C311 1.170 . S
C311 C310 1.170 . S
C312 C313 1.170 . S
C312 C314 1.380 . S
C313 C312 1.170 . S
C314 C312 1.380 . S
C314 C315 1.170 . S
C315 C314 1.170 . S
C316 C317 1.170 . S
C316 C318 1.380 . S
C317 C316 1.170 . S
C318 C316 1.380 . S
C318 C319 1.170 . S
C319 C318 1.170 . S
C320 C321 1.170 . S
C320 C322 1.380 . S
C321 C320 1.170 . S
C322 C320 1.380 . S
C322 C323 1.170 . S
C323 C322 1.170 . S
C324 C325 1.170 . S
C324 C326 1.380 . S
C325 C324 1.170 . S
C326 C324 1.380 . S
C326 C327 1.170 . S
C327 C326 1.170 . S
C328 C329 1.170 . S
C328 C330 1.380 . S
C329 C328 1.170 . S
C330 C328 1.380 . S
C330 C331 1.170 . S
C331 C330 1.170 . S
C332 C333 1.170 . S
C332 C334 1.380 . S
C333 C332 1.170 . S
C334 C332 1.380 . S
C334 C335 1.170 . S
C335 C334 1.170 . S
C209 C199 1.593 . S
C211 C10 1.552 . S
C213 C160 1.040 . S
C215 C23 1.044 . S
C217 C36 1.266 . S
C219 C179 1.226 . S
C221 C186 1.199 . S
C223 C43 1.281 . S
C225 C127 1.040 . S
C227 C62 1.042 . S
C229 C69 1.201 . S
C231 C134 1.282 . S
C233 C82 1.250 . S
C235 C153 1.257 . S
C237 C101 1.545 . S
C239 C114 1.601 . S
C241 C70 1.788 . S
C243 C5 1.666 . S
C245 C81 1.528 . S
C247 C18 1.609 . S
C249 C94 1.739 . S
C251 C31 1.709 . S
C253 C44 1.441 . S
C255 C56 1.414 . S
C257 C4 1.478 . S
C259 C16 1.462 1_455 S
C261 C29 1.436 . S
C263 C17 1.388 . S
C265 C30 1.850 . S
C267 C49 1.821 . S
C269 C3 1.749 . S
C271 C42 1.679 . S
C273 C95 1.475 . S
C275 C55 1.476 1_655 S
C277 C57 1.609 . S
C279 C68 1.531 . S
C281 C75 1.596 . S
C283 C88 1.596 . S
C285 C96 1.667 . S
C287 C83 1.788 . S
C289 C172 1.788 . S
C291 C109 1.665 . S
C293 C122 1.626 . S
C295 C185 1.536 . S
C297 C200 1.740 . S
C299 C133 1.711 . S
C301 C166 1.392 . S
C303 C146 1.439 . S
C305 C108 1.476 . S
C307 C120 1.474 . S
C309 C121 1.408 . S
C311 C135 1.442 . S
C313 C147 1.819 . S
C315 C140 1.849 . S
C317 C107 1.743 . S
C319 C148 1.713 . S
C321 C205 1.475 . S
C323 C161 1.475 . S
C325 C159 1.627 . S
C327 C174 1.544 . S
C329 C173 1.588 . S
C331 C192 1.595 . S
C333 C198 1.705 . S
C335 C187 1.784 . S
