# Generated by pormake.
# Topology wgm, (5)-cn, num edge types: 1
# Building blocks:
#     Node 0, Type 0, BuildingBlock: XOMCOT_clean_sbu_0, # of connection points: 5
#     Node 1, Type 0, BuildingBlock: XOMCOT_clean_sbu_0, # of connection points: 5
#     Node 2, Type 0, BuildingBlock: XOMCOT_clean_sbu_0, # of connection points: 5
#     Node 3, Type 0, BuildingBlock: XOMCOT_clean_sbu_0, # of connection points: 5
#     Node 4, Type 0, BuildingBlock: XOMCOT_clean_sbu_0, # of connection points: 5
#     Node 5, Type 0, BuildingBlock: XOMCOT_clean_sbu_0, # of connection points: 5
#     Node 6, Type 0, BuildingBlock: XOMCOT_clean_sbu_0, # of connection points: 5
#     Node 7, Type 0, BuildingBlock: XOMCOT_clean_sbu_0, # of connection points: 5
#     Node 8, Type 0, BuildingBlock: XOMCOT_clean_sbu_0, # of connection points: 5
#     Node 9, Type 0, BuildingBlock: XOMCOT_clean_sbu_0, # of connection points: 5
#     Node 10, Type 0, BuildingBlock: XOMCOT_clean_sbu_0, # of connection points: 5
#     Node 11, Type 0, BuildingBlock: XOMCOT_clean_sbu_0, # of connection points: 5
#     Node 12, Type 0, BuildingBlock: XOMCOT_clean_sbu_0, # of connection points: 5
#     Node 13, Type 0, BuildingBlock: XOMCOT_clean_sbu_0, # of connection points: 5
#     Node 14, Type 0, BuildingBlock: XOMCOT_clean_sbu_0, # of connection points: 5
#     Node 15, Type 0, BuildingBlock: XOMCOT_clean_sbu_0, # of connection points: 5
#     Node 16, Type 0, BuildingBlock: XOMCOT_clean_sbu_0, # of connection points: 5
#     Node 17, Type 0, BuildingBlock: XOMCOT_clean_sbu_0, # of connection points: 5
#     Node 18, Type 0, BuildingBlock: XOMCOT_clean_sbu_0, # of connection points: 5
#     Node 19, Type 0, BuildingBlock: XOMCOT_clean_sbu_0, # of connection points: 5
#     Node 20, Type 0, BuildingBlock: XOMCOT_clean_sbu_0, # of connection points: 5
#     Node 21, Type 0, BuildingBlock: XOMCOT_clean_sbu_0, # of connection points: 5
#     Node 22, Type 0, BuildingBlock: XOMCOT_clean_sbu_0, # of connection points: 5
#     Node 23, Type 0, BuildingBlock: XOMCOT_clean_sbu_0, # of connection points: 5
#     Node 24, Type 0, BuildingBlock: XOMCOT_clean_sbu_0, # of connection points: 5
#     Node 25, Type 0, BuildingBlock: XOMCOT_clean_sbu_0, # of connection points: 5
#     Node 26, Type 0, BuildingBlock: XOMCOT_clean_sbu_0, # of connection points: 5
#     Node 27, Type 0, BuildingBlock: XOMCOT_clean_sbu_0, # of connection points: 5
#     Node 28, Type 0, BuildingBlock: XOMCOT_clean_sbu_0, # of connection points: 5
#     Node 29, Type 0, BuildingBlock: XOMCOT_clean_sbu_0, # of connection points: 5
#     Node 30, Type 0, BuildingBlock: XOMCOT_clean_sbu_0, # of connection points: 5
#     Node 31, Type 0, BuildingBlock: XOMCOT_clean_sbu_0, # of connection points: 5
#     Edge 32, Type (0, 0), None
#     Edge 33, Type (0, 0), None
#     Edge 34, Type (0, 0), None
#     Edge 35, Type (0, 0), None
#     Edge 36, Type (0, 0), None
#     Edge 37, Type (0, 0), None
#     Edge 38, Type (0, 0), None
#     Edge 39, Type (0, 0), None
#     Edge 40, Type (0, 0), None
#     Edge 41, Type (0, 0), None
#     Edge 42, Type (0, 0), None
#     Edge 43, Type (0, 0), None
#     Edge 44, Type (0, 0), None
#     Edge 45, Type (0, 0), None
#     Edge 46, Type (0, 0), None
#     Edge 47, Type (0, 0), None
#     Edge 48, Type (0, 0), None
#     Edge 49, Type (0, 0), None
#     Edge 50, Type (0, 0), None
#     Edge 51, Type (0, 0), None
#     Edge 52, Type (0, 0), None
#     Edge 53, Type (0, 0), None
#     Edge 54, Type (0, 0), None
#     Edge 55, Type (0, 0), None
#     Edge 56, Type (0, 0), None
#     Edge 57, Type (0, 0), None
#     Edge 58, Type (0, 0), None
#     Edge 59, Type (0, 0), None
#     Edge 60, Type (0, 0), None
#     Edge 61, Type (0, 0), None
#     Edge 62, Type (0, 0), None
#     Edge 63, Type (0, 0), None
#     Edge 64, Type (0, 0), None
#     Edge 65, Type (0, 0), None
#     Edge 66, Type (0, 0), None
#     Edge 67, Type (0, 0), None
#     Edge 68, Type (0, 0), None
#     Edge 69, Type (0, 0), None
#     Edge 70, Type (0, 0), None
#     Edge 71, Type (0, 0), None
#     Edge 72, Type (0, 0), None
#     Edge 73, Type (0, 0), None
#     Edge 74, Type (0, 0), None
#     Edge 75, Type (0, 0), None
#     Edge 76, Type (0, 0), None
#     Edge 77, Type (0, 0), None
#     Edge 78, Type (0, 0), None
#     Edge 79, Type (0, 0), None
#     Edge 80, Type (0, 0), None
#     Edge 81, Type (0, 0), None
#     Edge 82, Type (0, 0), None
#     Edge 83, Type (0, 0), None
#     Edge 84, Type (0, 0), None
#     Edge 85, Type (0, 0), None
#     Edge 86, Type (0, 0), None
#     Edge 87, Type (0, 0), None
#     Edge 88, Type (0, 0), None
#     Edge 89, Type (0, 0), None
#     Edge 90, Type (0, 0), None
#     Edge 91, Type (0, 0), None
#     Edge 92, Type (0, 0), None
#     Edge 93, Type (0, 0), None
#     Edge 94, Type (0, 0), None
#     Edge 95, Type (0, 0), None
#     Edge 96, Type (0, 0), None
#     Edge 97, Type (0, 0), None
#     Edge 98, Type (0, 0), None
#     Edge 99, Type (0, 0), None
#     Edge 100, Type (0, 0), None
#     Edge 101, Type (0, 0), None
#     Edge 102, Type (0, 0), None
#     Edge 103, Type (0, 0), None
#     Edge 104, Type (0, 0), None
#     Edge 105, Type (0, 0), None
#     Edge 106, Type (0, 0), None
#     Edge 107, Type (0, 0), None
#     Edge 108, Type (0, 0), None
#     Edge 109, Type (0, 0), None
#     Edge 110, Type (0, 0), None
#     Edge 111, Type (0, 0), None
# Relax obj value: 0.117
# Max RMSD: 0.193
# Mean RMSD: 0.193
data_MOF--net-wgm--node1-XOMCOT_clean_sbu_0--edge1-none
_symmetry_space_group_name_H-M    P1
_symmetry_Int_Tables_number       1
_symmetry_cell_setting            triclinic
loop_
_symmetry_equiv_pos_as_xyz
'x, y, z'
_cell_length_a     23.686667
_cell_length_b     23.688234
_cell_length_c     39.370222
_cell_angle_alpha  90.0
_cell_angle_beta   90.000001
_cell_angle_gamma 89.989078
loop_
_atom_site_label
_atom_site_type_symbol
_atom_site_fract_x
_atom_site_fract_y
_atom_site_fract_z
_atom_type_partial_charge
Co0 Co 0.19484 0.16133 0.38126 0.0
C1 C 0.15884 0.25123 0.42815 0.0
C2 C 0.24176 0.21984 0.43862 0.0
C3 C 0.23821 0.27418 0.45035 0.0
N4 N 0.19296 0.2058 0.42296 0.0
N5 N 0.18618 0.294 0.44387 0.0
H6 H 0.11922 0.25749 0.41501 0.0
H7 H 0.28111 0.19721 0.43612 0.0
C8 C 0.29571 0.07591 0.39636 0.0
O9 O 0.30411 0.05983 0.36487 0.0
N10 N 0.19639 0.1226 0.33779 0.0
C11 C 0.18813 0.15053 0.30816 0.0
C12 C 0.18799 0.11331 0.28169 0.0
C13 C 0.19822 0.06766 0.32898 0.0
N14 N 0.19441 0.06157 0.29481 0.0
C15 C 0.2201 0.26791 0.35299 0.0
C16 C 0.3117 0.22949 0.31667 0.0
C17 C 0.28028 0.2751 0.30324 0.0
C18 C 0.23728 0.29723 0.32411 0.0
C19 C 0.29319 0.20164 0.34593 0.0
N20 N 0.24443 0.2177 0.36146 0.0
H21 H 0.18203 0.28177 0.36543 0.0
H22 H 0.31409 0.16325 0.35323 0.0
H23 H 0.18051 0.19523 0.30584 0.0
H24 H 0.20124 1.0333 0.34698 0.0
O25 O 0.12198 0.19253 0.3672 0.0
O26 O 0.13419 0.11288 0.39589 0.0
O27 O 0.25883 0.11414 0.40333 0.0
C28 C 0.09987 0.14775 0.38091 0.0
H29 H 0.27323 0.29936 0.45952 0.0
H30 H 0.18158 0.12324 0.25515 0.0
H31 H 0.34841 0.21236 0.30422 0.0
H32 H 0.21346 0.33443 0.31763 0.0
Co33 Co 0.1612 0.94491 0.63128 0.0
C34 C 0.0713 0.90891 0.67817 0.0
C35 C 0.10261 0.99185 0.68861 0.0
C36 C 0.04829 0.98827 0.70035 0.0
N37 N 0.11671 0.94306 0.67296 0.0
N38 N 1.02852 0.93623 0.69389 0.0
H39 H 0.06508 0.86928 0.66504 0.0
H40 H 0.1252 1.03122 0.68609 0.0
C41 C 0.24667 0.0457 0.64639 0.0
O42 O 0.26282 0.05402 0.61491 0.0
N43 N 0.19996 0.94642 0.5878 0.0
C44 C 0.17201 0.93816 0.55818 0.0
C45 C 0.20923 0.93798 0.53171 0.0
C46 C 0.2549 0.94819 0.57899 0.0
N47 N 0.26098 0.94437 0.54483 0.0
C48 C 0.05462 0.97035 0.60301 0.0
C49 C 0.09327 0.06177 0.56662 0.0
C50 C 0.04756 1.03047 0.55322 0.0
C51 C 1.02532 0.98759 0.57413 0.0
C52 C 0.12105 0.04327 0.5959 0.0
N53 N 0.10489 0.99457 0.61146 0.0
H54 H 0.04069 0.93234 0.61548 0.0
H55 H 0.15948 0.06407 0.60319 0.0
H56 H 0.1273 0.93058 0.55587 0.0
H57 H 0.28927 0.95119 0.59698 0.0
O58 O 0.12998 0.87208 0.6172 0.0
O59 O 0.20961 0.88422 0.64592 0.0
O60 O 0.2084 1.00888 0.65336 0.0
C61 C 0.17474 0.84993 0.63092 0.0
H62 H 1.02306 1.02328 0.70952 0.0
H63 H 0.19929 0.93157 0.50517 0.0
H64 H 0.11053 0.09837 0.55413 0.0
H65 H 0.98801 0.96391 0.56768 0.0
Co66 Co 0.37773 0.91118 0.88126 0.0
C67 C 0.41374 0.82128 0.92815 0.0
C68 C 0.33082 0.85267 0.93862 0.0
C69 C 0.33436 0.79834 0.95035 0.0
N70 N 0.37961 0.86672 0.92296 0.0
N71 N 0.38639 0.77852 0.94387 0.0
H72 H 0.45336 0.81503 0.91501 0.0
H73 H 0.29146 0.8753 0.93612 0.0
C74 C 0.27686 0.9966 0.89636 0.0
O75 O 0.26846 1.01268 0.86487 0.0
N76 N 0.37618 0.94992 0.83779 0.0
C77 C 0.38445 0.92199 0.80816 0.0
C78 C 0.38458 0.95921 0.78169 0.0
C79 C 0.37435 1.00485 0.82898 0.0
N80 N 0.37816 1.01095 0.79481 0.0
C81 C 0.35247 0.8046 0.85299 0.0
C82 C 0.26087 0.84303 0.81667 0.0
C83 C 0.29229 0.79741 0.80324 0.0
C84 C 0.33529 0.77529 0.82411 0.0
C85 C 0.27938 0.87088 0.84593 0.0
N86 N 0.32814 0.85482 0.86146 0.0
H87 H 0.39054 0.79074 0.86543 0.0
H88 H 0.25848 0.90927 0.85323 0.0
H89 H 0.39206 0.87729 0.80584 0.0
H90 H 0.37133 0.03922 0.84698 0.0
O91 O 0.45059 0.87999 0.8672 0.0
O92 O 0.43838 0.95963 0.89589 0.0
O93 O 0.31374 0.95838 0.90333 0.0
C94 C 0.47271 0.92477 0.88091 0.0
H95 H 0.29935 0.77315 0.95952 0.0
H96 H 0.391 0.94928 0.75515 0.0
H97 H 0.22416 0.86015 0.80422 0.0
H98 H 0.35912 0.73808 0.81763 0.0
Co99 Co 0.41137 0.1276 0.13128 0.0
C100 C 0.50127 0.16361 0.17817 0.0
C101 C 0.46996 0.08066 0.18861 0.0
C102 C 0.52429 0.08424 0.20035 0.0
N103 N 0.45587 0.12946 0.17296 0.0
N104 N 0.54405 0.13629 0.19389 0.0
H105 H 0.50749 0.20324 0.16504 0.0
H106 H 0.44737 0.0413 0.18609 0.0
C107 C 0.3259 1.02681 0.14639 0.0
O108 O 0.30975 1.0185 0.11491 0.0
N109 N 0.37262 0.1261 0.0878 0.0
C110 C 0.40056 0.13436 0.05818 0.0
C111 C 0.36335 0.13453 1.03171 0.0
C112 C 0.31768 0.12432 0.07899 0.0
N113 N 0.31159 0.12815 0.04483 0.0
C114 C 0.51795 0.10217 0.10301 0.0
C115 C 0.47931 1.01074 0.06662 0.0
C116 C 0.52502 0.04205 0.05322 0.0
C117 C 0.54726 0.08493 0.07413 0.0
C118 C 0.45153 1.02925 0.0959 0.0
N119 N 0.46769 0.07794 0.11146 0.0
H120 H 0.53189 0.14018 0.11548 0.0
H121 H 0.41309 1.00844 0.10319 0.0
H122 H 0.44527 0.14193 0.05587 0.0
H123 H 0.28331 0.12132 0.09698 0.0
O124 O 0.4426 0.20043 0.1172 0.0
O125 O 0.36296 0.18829 0.14592 0.0
O126 O 0.36417 0.06364 0.15336 0.0
C127 C 0.39783 0.22258 0.13092 0.0
H128 H 0.54951 0.04924 0.20952 0.0
H129 H 0.37329 0.14094 1.00517 0.0
H130 H 0.46205 0.97415 0.05413 0.0
H131 H 0.58457 0.10861 0.06768 0.0
Co132 Co 0.19486 0.91119 0.18979 0.0
C133 C 0.15886 0.82131 0.14289 0.0
C134 C 0.24179 0.85265 0.13244 0.0
C135 C 0.23824 0.79832 0.12072 0.0
N136 N 0.19299 0.86673 0.14809 0.0
N137 N 0.1862 0.77853 0.12719 0.0
H138 H 0.11923 0.81509 0.15602 0.0
H139 H 0.28115 0.87526 0.13495 0.0
C140 C 0.29573 0.99659 0.1747 0.0
O141 O 0.30412 1.01267 0.20619 0.0
N142 N 0.1964 0.94993 0.23327 0.0
C143 C 0.18813 0.922 0.26289 0.0
C144 C 0.18799 0.95922 0.28936 0.0
C145 C 0.19822 1.00487 0.24207 0.0
N146 N 0.19438 1.01097 0.27623 0.0
C147 C 0.22014 0.80461 0.21805 0.0
C148 C 0.31171 0.84302 0.25439 0.0
C149 C 0.28029 0.79741 0.26782 0.0
C150 C 0.23731 0.77529 0.24694 0.0
C151 C 0.29321 0.87087 0.22513 0.0
N152 N 0.24446 0.85482 0.2096 0.0
H153 H 0.18208 0.79075 0.2056 0.0
H154 H 0.3141 0.90926 0.21784 0.0
H155 H 0.18053 0.8773 0.26521 0.0
H156 H 0.20124 0.03923 0.22407 0.0
O157 O 0.12201 0.88 0.20385 0.0
O158 O 0.1342 0.95965 0.17516 0.0
O159 O 0.25885 0.95838 0.16772 0.0
C160 C 0.09988 0.92478 0.19014 0.0
H161 H 0.27325 0.7731 0.11156 0.0
H162 H 0.18159 0.9493 0.31591 0.0
H163 H 0.34841 0.86013 0.26685 0.0
H164 H 0.21349 0.73809 0.25341 0.0
Co165 Co 0.41137 0.94489 0.43979 0.0
C166 C 0.50129 0.9089 0.39291 0.0
C167 C 0.46994 0.99184 0.38246 0.0
C168 C 0.52427 0.98828 0.37073 0.0
N169 N 0.45587 0.94304 0.39811 0.0
N170 N 0.54406 0.93624 0.37719 0.0
H171 H 0.50753 0.86927 0.40603 0.0
H172 H 0.44732 1.0312 0.38498 0.0
C173 C 0.32588 0.0457 0.42468 0.0
O174 O 0.30971 0.05401 0.45616 0.0
N175 N 0.3726 0.94638 0.48326 0.0
C176 C 0.40054 0.93811 0.51289 0.0
C177 C 0.36333 0.93794 0.53936 0.0
C178 C 0.31766 0.94817 0.49207 0.0
N179 N 0.31157 0.94432 0.52624 0.0
C180 C 0.51794 0.97029 0.46808 0.0
C181 C 0.47929 0.06175 0.50444 0.0
C182 C 0.52501 1.03045 0.51785 0.0
C183 C 0.54724 0.98755 0.49695 0.0
C184 C 0.4515 0.04323 0.47517 0.0
N185 N 0.46767 0.99453 0.45962 0.0
H186 H 0.53187 0.93227 0.45562 0.0
H187 H 0.41306 0.06404 0.46788 0.0
H188 H 0.44525 0.93054 0.5152 0.0
H189 H 0.28329 0.9512 0.47408 0.0
O190 O 0.44259 0.87204 0.45386 0.0
O191 O 0.36296 0.88422 0.42514 0.0
O192 O 0.36416 1.00886 0.41771 0.0
C193 C 0.39783 0.84991 0.44013 0.0
H194 H 0.54947 1.02328 0.36156 0.0
H195 H 0.37326 0.93154 0.5659 0.0
H196 H 0.46202 0.09836 0.51693 0.0
H197 H 0.58456 0.96386 0.5034 0.0
Co198 Co 0.37771 0.16132 0.68979 0.0
C199 C 0.41372 0.2512 0.64289 0.0
C200 C 0.33078 0.21987 0.63244 0.0
C201 C 0.33433 0.2742 0.62072 0.0
N202 N 0.37958 0.20578 0.64809 0.0
N203 N 0.38637 0.29399 0.62719 0.0
H204 H 0.45335 0.25743 0.65602 0.0
H205 H 0.29143 0.19726 0.63495 0.0
C206 C 0.27685 0.07592 0.6747 0.0
O207 O 0.26846 0.05985 0.70619 0.0
N208 N 0.37617 0.12259 0.73327 0.0
C209 C 0.38444 0.15051 0.76289 0.0
C210 C 0.38459 0.11329 0.78936 0.0
C211 C 0.37436 0.06765 0.74207 0.0
N212 N 0.37819 0.06155 0.77623 0.0
C213 C 0.35243 0.26791 0.71805 0.0
C214 C 0.26086 0.2295 0.75439 0.0
C215 C 0.29228 0.27511 0.76782 0.0
C216 C 0.33526 0.29723 0.74694 0.0
C217 C 0.27936 0.20164 0.72513 0.0
N218 N 0.32811 0.2177 0.7096 0.0
H219 H 0.39049 0.28176 0.7056 0.0
H220 H 0.25847 0.16326 0.71784 0.0
H221 H 0.39204 0.19521 0.76521 0.0
H222 H 0.37133 1.03329 0.72407 0.0
O223 O 0.45056 0.19251 0.70385 0.0
O224 O 0.43838 0.11287 0.67516 0.0
O225 O 0.31372 0.11414 0.66772 0.0
C226 C 0.47269 0.14773 0.69014 0.0
H227 H 0.29932 0.29941 0.61156 0.0
H228 H 0.39099 0.12322 0.81591 0.0
H229 H 0.22416 0.21238 0.76685 0.0
H230 H 0.35908 0.33443 0.75341 0.0
Co231 Co 0.16121 0.12763 0.93979 0.0
C232 C 0.07128 0.16361 0.89291 0.0
C233 C 0.10263 0.08067 0.88246 0.0
C234 C 0.04831 0.08424 0.87073 0.0
N235 N 0.1167 0.12947 0.89811 0.0
N236 N 1.02851 0.13628 0.87719 0.0
H237 H 0.06504 0.20324 0.90603 0.0
H238 H 0.12525 0.04132 0.88498 0.0
C239 C 0.24669 1.02682 0.92468 0.0
O240 O 0.26286 1.0185 0.95616 0.0
N241 N 0.19997 0.12613 0.98326 0.0
C242 C 0.17203 0.1344 1.01289 0.0
C243 C 0.20925 0.13458 0.03936 0.0
C244 C 0.25491 0.12434 0.99207 0.0
N245 N 0.261 0.12819 1.02624 0.0
C246 C 0.05464 0.10222 0.96808 0.0
C247 C 0.09329 1.01076 1.00444 0.0
C248 C 0.04757 0.04207 1.01785 0.0
C249 C 1.02533 0.08497 0.99695 0.0
C250 C 0.12107 1.02928 0.97517 0.0
N251 N 0.1049 0.07799 0.95962 0.0
H252 H 0.0407 0.14025 0.95562 0.0
H253 H 0.15951 1.00847 0.96788 0.0
H254 H 0.12732 0.14198 1.0152 0.0
H255 H 0.28928 0.12132 0.97408 0.0
O256 O 0.12998 0.20048 0.95386 0.0
O257 O 0.20961 0.1883 0.92514 0.0
O258 O 0.20841 0.06365 0.91771 0.0
C259 C 0.17474 0.22261 0.94013 0.0
H260 H 1.0231 0.04923 0.86156 0.0
H261 H 0.19931 0.14097 0.0659 0.0
H262 H 0.11055 0.97416 1.01693 0.0
H263 H 0.98802 0.10865 1.0034 0.0
Co264 Co 0.87782 0.9111 0.68983 0.0
C265 C 0.91322 0.82106 0.64284 0.0
C266 C 0.8302 0.85252 0.63274 0.0
C267 C 0.83354 0.79817 0.62101 0.0
N268 N 0.8792 0.86652 0.64818 0.0
N269 N 0.88563 0.77832 0.62726 0.0
H270 H 0.953 0.81478 0.65581 0.0
H271 H 0.79091 0.87521 0.63542 0.0
C272 C 0.77751 0.99721 0.67468 0.0
O273 O 0.76926 1.0135 0.70615 0.0
N274 N 0.87673 0.94994 0.73327 0.0
C275 C 0.885 0.92198 0.76289 0.0
C276 C 0.88535 0.95919 0.78936 0.0
C277 C 0.87511 1.00489 0.74208 0.0
N278 N 0.87906 1.01096 0.77624 0.0
C279 C 0.85142 0.8047 0.71809 0.0
C280 C 0.7609 0.84456 0.75485 0.0
C281 C 0.79165 0.79834 0.76808 0.0
C282 C 0.83396 0.7755 0.74697 0.0
C283 C 0.77938 0.87202 0.72547 0.0
N284 N 0.82773 0.85527 0.70974 0.0
H285 H 0.88914 0.79029 0.70548 0.0
H286 H 0.75901 0.91073 0.71829 0.0
H287 H 0.89236 0.87722 0.76519 0.0
H288 H 0.8721 0.03926 0.72409 0.0
O289 O 0.95042 0.87932 0.70391 0.0
O290 O 0.93887 0.95896 0.67511 0.0
O291 O 0.81417 0.95875 0.66775 0.0
C292 C 0.9729 0.92389 0.69017 0.0
H293 H 0.7984 0.77302 0.61198 0.0
H294 H 0.89174 0.94924 0.8159 0.0
H295 H 0.72484 0.86253 0.76754 0.0
H296 H 0.85697 0.73767 0.75325 0.0
Co297 Co 0.91135 0.12771 0.43978 0.0
C298 C 1.00141 0.16297 0.3928 0.0
C299 C 0.97002 0.07988 0.3828 0.0
C300 C 1.02446 0.08311 0.37121 0.0
N301 N 0.95592 0.12898 0.39812 0.0
N302 N 0.04426 0.13521 0.37744 0.0
H303 H 1.00759 0.20285 0.40566 0.0
H304 H 0.9473 0.04063 0.38551 0.0
C305 C 0.82524 1.02738 0.42471 0.0
O306 O 0.80894 1.01918 0.45617 0.0
N307 N 0.87253 0.12674 0.48323 0.0
C308 C 0.90053 0.13511 0.51282 0.0
C309 C 0.86335 0.13546 0.53931 0.0
C310 C 0.81761 0.12506 0.49206 0.0
N311 N 0.81158 0.12906 0.52622 0.0
C312 C 1.01776 0.10138 0.4681 0.0
C313 C 0.9779 1.01089 0.50487 0.0
C314 C 1.0241 0.04165 0.51811 0.0
C315 C 0.04694 0.08395 0.49699 0.0
C316 C 0.95046 1.02935 0.47547 0.0
N317 N 0.9672 0.07768 0.45974 0.0
H318 H 1.03214 0.1391 0.45549 0.0
H319 H 0.91177 1.00896 0.46828 0.0
H320 H 0.94527 0.14253 0.5151 0.0
H321 H 0.78321 0.12197 0.4741 0.0
O322 O 0.94309 0.20037 0.45377 0.0
O323 O 0.86343 0.18868 0.425 0.0
O324 O 0.86371 0.06401 0.41776 0.0
C325 C 0.89847 0.22278 0.44002 0.0
H326 H 0.04967 0.04792 0.36229 0.0
H327 H 0.87333 0.14192 0.56584 0.0
H328 H 0.95993 0.97485 0.51756 0.0
H329 H 0.08475 0.10697 0.50328 0.0
Co330 Co 0.69476 0.16142 0.18983 0.0
C331 C 0.65935 0.25146 0.14284 0.0
C332 C 0.74237 0.22 0.13274 0.0
C333 C 0.73903 0.27434 0.12101 0.0
N334 N 0.69337 0.20599 0.14818 0.0
N335 N 0.68694 0.29419 0.12726 0.0
H336 H 0.61957 0.25774 0.15581 0.0
H337 H 0.78166 0.19731 0.13542 0.0
C338 C 0.79506 0.0753 0.17468 0.0
O339 O 0.80331 0.05902 0.20615 0.0
N340 N 0.69584 0.12257 0.23327 0.0
C341 C 0.68757 0.15054 0.26289 0.0
C342 C 0.68722 0.11332 0.28936 0.0
C343 C 0.69746 0.06763 0.24208 0.0
N344 N 0.69352 0.06156 0.27624 0.0
C345 C 0.72116 0.26782 0.21809 0.0
C346 C 0.81168 0.22795 0.25485 0.0
C347 C 0.78093 0.27418 0.26808 0.0
C348 C 0.73861 0.29702 0.24697 0.0
C349 C 0.79319 0.20049 0.22547 0.0
N350 N 0.74484 0.21724 0.20974 0.0
H351 H 0.68343 0.28222 0.20548 0.0
H352 H 0.81357 0.16178 0.21829 0.0
H353 H 0.68022 0.19529 0.26519 0.0
H354 H 0.70048 1.03326 0.22409 0.0
O355 O 0.62216 0.1932 0.20391 0.0
O356 O 0.63371 0.11356 0.17511 0.0
O357 O 0.7584 0.11377 0.16775 0.0
C358 C 0.59967 0.14862 0.19017 0.0
H359 H 0.77417 0.2995 0.11198 0.0
H360 H 0.68084 0.12328 0.3159 0.0
H361 H 0.84773 0.20998 0.26754 0.0
H362 H 0.7156 0.33484 0.25325 0.0
Co363 Co 0.66122 0.94481 0.93978 0.0
C364 C 0.57117 0.90955 0.8928 0.0
C365 C 0.60255 0.99263 0.8828 0.0
C366 C 0.54811 0.98941 0.87121 0.0
N367 N 0.61665 0.94353 0.89812 0.0
N368 N 0.52832 0.93731 0.87744 0.0
H369 H 0.56498 0.86967 0.90566 0.0
H370 H 0.62527 1.03189 0.88551 0.0
C371 C 0.74734 0.04514 0.92471 0.0
O372 O 0.76364 0.05334 0.95617 0.0
N373 N 0.70004 0.94578 0.98323 0.0
C374 C 0.67205 0.93741 1.01282 0.0
C375 C 0.70923 0.93706 0.03931 0.0
C376 C 0.75497 0.94746 0.99206 0.0
N377 N 0.761 0.94345 1.02622 0.0
C378 C 0.55482 0.97113 0.9681 0.0
C379 C 0.59467 0.06163 1.00487 0.0
C380 C 0.54847 1.03087 1.01811 0.0
C381 C 0.52563 0.98856 0.99699 0.0
C382 C 0.62212 0.04317 0.97547 0.0
N383 N 0.60537 0.99483 0.95974 0.0
H384 H 0.54043 0.93341 0.95549 0.0
H385 H 0.66081 0.06355 0.96828 0.0
H386 H 0.6273 0.92999 1.0151 0.0
H387 H 0.78936 0.95055 0.9741 0.0
O388 O 0.62949 0.87215 0.95377 0.0
O389 O 0.70914 0.88383 0.925 0.0
O390 O 0.70887 1.00851 0.91776 0.0
C391 C 0.6741 0.84973 0.94002 0.0
H392 H 0.5229 1.02459 0.86229 0.0
H393 H 0.69925 0.9306 0.06584 0.0
H394 H 0.61264 0.09767 1.01756 0.0
H395 H 0.48782 0.96555 1.00328 0.0
Co396 Co 0.8778 0.16141 0.88125 0.0
C397 C 0.91321 0.25142 0.92823 0.0
C398 C 0.83016 0.22002 0.93832 0.0
C399 C 0.83351 0.27437 0.95005 0.0
N400 N 0.87918 0.20598 0.92289 0.0
N401 N 0.88562 0.29418 0.94381 0.0
H402 H 0.95299 0.25768 0.91528 0.0
H403 H 0.79088 0.19735 0.93563 0.0
C404 C 0.7775 0.07531 0.89638 0.0
O405 O 0.76926 0.05904 0.86492 0.0
N406 N 0.87672 0.12256 0.8378 0.0
C407 C 0.88499 0.15052 0.80819 0.0
C408 C 0.88535 0.1133 0.78171 0.0
C409 C 0.87512 0.06762 0.829 0.0
N410 N 0.87908 0.06154 0.79484 0.0
C411 C 0.85138 0.26782 0.85299 0.0
C412 C 0.76089 0.22797 0.81621 0.0
C413 C 0.79164 0.27419 0.80299 0.0
C414 C 0.83393 0.29702 0.82411 0.0
C415 C 0.77936 0.2005 0.8456 0.0
N416 N 0.8277 0.21724 0.86133 0.0
H417 H 0.88909 0.28221 0.8656 0.0
H418 H 0.75899 0.1618 0.85277 0.0
H419 H 0.89233 0.19528 0.80589 0.0
H420 H 0.87209 1.03325 0.84698 0.0
O421 O 0.95039 0.19318 0.86717 0.0
O422 O 0.93886 0.11354 0.89597 0.0
O423 O 0.81415 0.11376 0.90332 0.0
C424 C 0.97288 0.14861 0.88091 0.0
H425 H 0.79837 0.29955 0.95907 0.0
H426 H 0.89172 0.12326 0.75517 0.0
H427 H 0.72484 0.21001 0.80351 0.0
H428 H 0.85694 0.33484 0.81783 0.0
Co429 Co 0.66123 0.12774 0.63128 0.0
C430 C 0.57114 0.16298 0.67825 0.0
C431 C 0.60258 0.0799 0.68825 0.0
C432 C 0.54813 0.0831 0.69983 0.0
N433 N 0.61665 0.129 0.67293 0.0
N434 N 0.52831 0.1352 0.69361 0.0
H435 H 0.56493 0.20285 0.66539 0.0
H436 H 0.62532 0.04065 0.68555 0.0
C437 C 0.74735 1.02739 0.64635 0.0
O438 O 0.76367 1.01918 0.61489 0.0
N439 N 0.70005 0.12677 0.58783 0.0
C440 C 0.67206 0.13515 0.55823 0.0
C441 C 0.70925 0.1355 0.53174 0.0
C442 C 0.75498 0.12508 0.579 0.0
N443 N 0.76102 0.1291 0.54484 0.0
C444 C 0.55483 0.10144 0.60294 0.0
C445 C 0.5947 1.01091 0.56619 0.0
C446 C 0.54848 0.04166 0.55295 0.0
C447 C 0.52564 0.08399 0.57406 0.0
C448 C 0.62214 1.02939 0.59558 0.0
N449 N 0.60539 0.07773 0.61131 0.0
H450 H 0.54044 0.13917 0.61555 0.0
H451 H 0.66084 1.009 0.60277 0.0
H452 H 0.62731 0.14257 0.55596 0.0
H453 H 0.78938 0.12196 0.59697 0.0
O454 O 0.62949 0.20042 0.61729 0.0
O455 O 0.70914 0.18869 0.64606 0.0
O456 O 0.70888 0.06403 0.65329 0.0
C457 C 0.67411 0.2228 0.63105 0.0
H458 H 0.52294 0.04791 0.70876 0.0
H459 H 0.69927 0.14195 0.50521 0.0
H460 H 0.61267 0.97485 0.5535 0.0
H461 H 0.48783 0.10701 0.56777 0.0
Co462 Co 0.69478 0.91111 0.38125 0.0
C463 C 0.65937 0.82109 0.42823 0.0
C464 C 0.74241 0.8525 0.43832 0.0
C465 C 0.73906 0.79815 0.45005 0.0
N466 N 0.6934 0.86653 0.42289 0.0
N467 N 0.68696 0.77834 0.44381 0.0
H468 H 0.61958 0.81484 0.41528 0.0
H469 H 0.7817 0.87517 0.43563 0.0
C470 C 0.79508 0.9972 0.39638 0.0
O471 O 0.80331 1.01348 0.36492 0.0
N472 N 0.69585 0.94996 0.3378 0.0
C473 C 0.68758 0.92199 0.30819 0.0
C474 C 0.68722 0.95921 0.28171 0.0
C475 C 0.69746 1.0049 0.329 0.0
N476 N 0.69349 1.01097 0.29484 0.0
C477 C 0.72119 0.8047 0.35299 0.0
C478 C 0.81169 0.84455 0.31621 0.0
C479 C 0.78094 0.79833 0.30299 0.0
C480 C 0.73864 0.7755 0.32411 0.0
C481 C 0.79321 0.87201 0.3456 0.0
N482 N 0.74487 0.85527 0.36133 0.0
H483 H 0.68348 0.79031 0.3656 0.0
H484 H 0.81358 0.91072 0.35277 0.0
H485 H 0.68024 0.87724 0.30589 0.0
H486 H 0.70048 0.03927 0.34698 0.0
O487 O 0.62219 0.87933 0.36717 0.0
O488 O 0.63371 0.95897 0.39597 0.0
O489 O 0.75842 0.95875 0.40332 0.0
C490 C 0.59969 0.92391 0.38091 0.0
H491 H 0.7742 0.77297 0.45907 0.0
H492 H 0.68085 0.94925 0.25517 0.0
H493 H 0.84773 0.86251 0.30351 0.0
H494 H 0.71563 0.73768 0.31783 0.0
Co495 Co 0.91134 0.94478 0.13128 0.0
C496 C 1.00143 0.90954 0.17825 0.0
C497 C 0.97 0.99262 0.18825 0.0
C498 C 1.02444 0.98941 0.19983 0.0
N499 N 0.95592 0.94351 0.17293 0.0
N500 N 0.04427 0.93731 0.19361 0.0
H501 H 1.00764 0.86966 0.16539 0.0
H502 H 0.94725 1.03187 0.18555 0.0
C503 C 0.82522 0.04513 0.14635 0.0
O504 O 0.8089 0.05333 0.11489 0.0
N505 N 0.87252 0.94575 0.08783 0.0
C506 C 0.90051 0.93736 0.05823 0.0
C507 C 0.86333 0.93702 1.03174 0.0
C508 C 0.81759 0.94744 0.079 0.0
N509 N 0.81156 0.94341 0.04484 0.0
C510 C 1.01774 0.97108 0.10294 0.0
C511 C 0.97788 0.06161 0.06619 0.0
C512 C 1.02409 1.03085 0.05295 0.0
C513 C 0.04693 0.98852 0.07406 0.0
C514 C 0.95043 0.04313 0.09558 0.0
N515 N 0.96718 0.99479 0.11131 0.0
H516 H 1.03213 0.93335 0.11555 0.0
H517 H 0.91173 0.06352 0.10277 0.0
H518 H 0.94526 0.92994 0.05596 0.0
H519 H 0.7832 0.95056 0.09697 0.0
O520 O 0.94308 0.8721 0.11729 0.0
O521 O 0.86343 0.88383 0.14606 0.0
O522 O 0.8637 1.00849 0.15329 0.0
C523 C 0.89847 0.84971 0.13105 0.0
H524 H 0.04963 1.0246 0.20876 0.0
H525 H 0.87331 0.93057 1.00521 0.0
H526 H 0.9599 0.09766 0.0535 0.0
H527 H 0.08474 0.96551 0.06777 0.0
Co528 Co 0.6949 0.66131 0.88128 0.0
C529 C 0.65901 0.75127 0.92815 0.0
C530 C 0.74199 0.71992 0.93853 0.0
C531 C 0.73854 0.77433 0.95014 0.0
N532 N 0.69311 0.70581 0.92296 0.0
N533 N 0.68651 0.79412 0.94367 0.0
H534 H 0.6193 0.75746 0.91509 0.0
H535 H 0.78131 0.69725 0.936 0.0
C536 C 0.79566 0.57574 0.89636 0.0
O537 O 0.80399 0.5596 0.86488 0.0
N538 N 0.69634 0.62256 0.8378 0.0
C539 C 0.68804 0.65052 0.80819 0.0
C540 C 0.68786 0.61331 0.78171 0.0
C541 C 0.69812 0.56763 0.82899 0.0
N542 N 0.69427 0.56156 0.79482 0.0
C543 C 0.72036 0.76786 0.85299 0.0
C544 C 0.81175 0.72913 0.81658 0.0
C545 C 0.78046 0.77487 0.80319 0.0
C546 C 0.7376 0.79715 0.82411 0.0
C547 C 0.79325 0.70137 0.84587 0.0
N548 N 0.74457 0.71757 0.86144 0.0
H549 H 0.68235 0.78182 0.86546 0.0
H550 H 0.81404 0.66292 0.85315 0.0
H551 H 0.68046 0.69523 0.80588 0.0
H552 H 0.70115 0.53326 0.84697 0.0
O553 O 0.62207 0.6926 0.86722 0.0
O554 O 0.63419 0.61296 0.89594 0.0
O555 O 0.75885 0.61403 0.90334 0.0
C556 C 0.5999 0.64786 0.88094 0.0
H557 H 0.7736 0.79954 0.95923 0.0
H558 H 0.68142 0.62326 0.75517 0.0
H559 H 0.84833 0.71184 0.80408 0.0
H560 H 0.71394 0.83448 0.81767 0.0
Co561 Co 0.66114 0.44482 0.13124 0.0
C562 C 0.57125 0.40877 0.17813 0.0
C563 C 0.60258 0.4917 0.1886 0.0
C564 C 0.54827 0.48811 0.20036 0.0
N565 N 0.61665 0.44293 0.17293 0.0
N566 N 0.52848 0.43608 0.19388 0.0
H567 H 0.56502 0.36917 0.16498 0.0
H568 H 0.62518 0.53106 0.18609 0.0
C569 C 0.74669 0.54554 0.14639 0.0
O570 O 0.76279 0.5539 0.11491 0.0
N571 N 0.69992 0.44636 0.08778 0.0
C572 C 0.67199 0.43817 0.05815 0.0
C573 C 0.70922 0.43797 1.03168 0.0
C574 C 0.75486 0.44808 0.07899 0.0
N575 N 0.76097 0.44428 0.04482 0.0
C576 C 0.55458 0.47041 0.10303 0.0
C577 C 0.5933 0.56175 0.06661 0.0
C578 C 0.54756 0.53048 0.05322 0.0
C579 C 0.52528 0.48765 0.07415 0.0
C580 C 0.62108 0.54324 0.09589 0.0
N581 N 0.60488 0.49458 0.11146 0.0
H582 H 0.5406 0.43242 0.11551 0.0
H583 H 0.65954 0.56402 0.10316 0.0
H584 H 0.62727 0.43066 0.05582 0.0
H585 H 0.78922 0.45102 0.09699 0.0
O586 O 0.62981 0.37209 0.1171 0.0
O587 O 0.70946 0.38401 0.14584 0.0
O588 O 0.70843 0.5087 0.15336 0.0
C589 C 0.67453 0.34982 0.13081 0.0
H590 H 0.52306 0.52311 0.20955 0.0
H591 H 0.69929 0.43162 1.00513 0.0
H592 H 0.6106 0.59832 0.0541 0.0
H593 H 0.48793 0.46401 0.06772 0.0
Co594 Co 0.87768 0.4112 0.38128 0.0
C595 C 0.91356 0.32124 0.42815 0.0
C596 C 0.83058 0.3526 0.43853 0.0
C597 C 0.83403 0.29819 0.45014 0.0
N598 N 0.87946 0.36671 0.42296 0.0
N599 N 0.88607 0.2784 0.44367 0.0
H600 H 0.95327 0.31506 0.41509 0.0
H601 H 0.79126 0.37527 0.436 0.0
C602 C 0.77691 0.49678 0.39636 0.0
O603 O 0.76859 0.51292 0.36488 0.0
N604 N 0.87624 0.44995 0.3378 0.0
C605 C 0.88453 0.422 0.30819 0.0
C606 C 0.88472 0.4592 0.28171 0.0
C607 C 0.87445 0.50488 0.32899 0.0
N608 N 0.87831 0.51095 0.29482 0.0
C609 C 0.85221 0.30466 0.35299 0.0
C610 C 0.76082 0.34338 0.31658 0.0
C611 C 0.79211 0.29764 0.30319 0.0
C612 C 0.83497 0.27537 0.32411 0.0
C613 C 0.77933 0.37115 0.34587 0.0
N614 N 0.828 0.35494 0.36144 0.0
H615 H 0.89022 0.29069 0.36546 0.0
H616 H 0.75853 0.4096 0.35315 0.0
H617 H 0.89211 0.37729 0.30588 0.0
H618 H 0.87142 0.53926 0.34697 0.0
O619 O 0.9505 0.37991 0.36722 0.0
O620 O 0.93838 0.45955 0.39594 0.0
O621 O 0.81373 0.45848 0.40334 0.0
C622 C 0.97267 0.42466 0.38094 0.0
H623 H 0.79898 0.27297 0.45923 0.0
H624 H 0.89115 0.44926 0.25517 0.0
H625 H 0.72424 0.36068 0.30408 0.0
H626 H 0.85863 0.23804 0.31767 0.0
Co627 Co 0.91143 0.62769 0.63124 0.0
C628 C 1.00132 0.66374 0.67813 0.0
C629 C 0.96999 0.58081 0.6886 0.0
C630 C 1.0243 0.5844 0.70036 0.0
N631 N 0.95592 0.62959 0.67293 0.0
N632 N 0.04409 0.63644 0.69388 0.0
H633 H 1.00756 0.70335 0.66498 0.0
H634 H 0.94739 0.54145 0.68609 0.0
C635 C 0.82588 0.52698 0.64639 0.0
O636 O 0.80978 0.51862 0.61491 0.0
N637 N 0.87266 0.62615 0.58778 0.0
C638 C 0.90059 0.63435 0.55815 0.0
C639 C 0.86335 0.63454 0.53168 0.0
C640 C 0.81771 0.62443 0.57899 0.0
N641 N 0.8116 0.62824 0.54482 0.0
C642 C 1.018 0.60211 0.60303 0.0
C643 C 0.97927 0.51076 0.56661 0.0
C644 C 1.02502 0.54204 0.55322 0.0
C645 C 0.0473 0.58486 0.57415 0.0
C646 C 0.95149 0.52927 0.59589 0.0
N647 N 0.96769 0.57794 0.61146 0.0
H648 H 1.03197 0.64009 0.61551 0.0
H649 H 0.91303 0.5085 0.60316 0.0
H650 H 0.94531 0.64185 0.55582 0.0
H651 H 0.78335 0.62149 0.59699 0.0
O652 O 0.94276 0.70043 0.6171 0.0
O653 O 0.86311 0.68851 0.64584 0.0
O654 O 0.86414 0.56382 0.65336 0.0
C655 C 0.89805 0.7227 0.63081 0.0
H656 H 0.04952 0.54941 0.70955 0.0
H657 H 0.87328 0.6409 0.50513 0.0
H658 H 0.96198 0.4742 0.5541 0.0
H659 H 0.08464 0.6085 0.56772 0.0
Co660 Co 0.69491 0.41122 0.68978 0.0
C661 C 0.65903 0.32128 0.64291 0.0
C662 C 0.74202 0.35258 0.63254 0.0
C663 C 0.73857 0.29817 0.62093 0.0
N664 N 0.69314 0.36672 0.64809 0.0
N665 N 0.68653 0.27841 0.62739 0.0
H666 H 0.61931 0.31512 0.65595 0.0
H667 H 0.78135 0.37523 0.63508 0.0
C668 C 0.79567 0.49678 0.6747 0.0
O669 O 0.80399 0.51291 0.70618 0.0
N670 N 0.69634 0.44997 0.73325 0.0
C671 C 0.68804 0.42202 0.76287 0.0
C672 C 0.68784 0.45923 0.78935 0.0
C673 C 0.69811 0.5049 0.74206 0.0
N674 N 0.69424 0.51098 0.77623 0.0
C675 C 0.72041 0.30467 0.71806 0.0
C676 C 0.81175 0.34339 0.75449 0.0
C677 C 0.78047 0.29765 0.76788 0.0
C678 C 0.73764 0.27538 0.74694 0.0
C679 C 0.79326 0.37115 0.7252 0.0
N680 N 0.7446 0.35495 0.70962 0.0
H681 H 0.68241 0.29071 0.70558 0.0
H682 H 0.81405 0.4096 0.71793 0.0
H683 H 0.68048 0.37731 0.76517 0.0
H684 H 0.70115 0.53927 0.72408 0.0
O685 O 0.6221 0.37993 0.70383 0.0
O686 O 0.63419 0.45957 0.67512 0.0
O687 O 0.75886 0.45849 0.66772 0.0
C688 C 0.59992 0.42467 0.69011 0.0
H689 H 0.77362 0.27293 0.61186 0.0
H690 H 0.68143 0.44928 0.81589 0.0
H691 H 0.84832 0.36068 0.767 0.0
H692 H 0.71398 0.23805 0.75338 0.0
Co693 Co 0.91142 0.4448 0.93983 0.0
C694 C 1.00134 0.40877 0.89295 0.0
C695 C 0.96996 0.49169 0.88247 0.0
C696 C 1.02428 0.48811 0.87072 0.0
N697 N 0.95592 0.44291 0.89815 0.0
N698 N 0.0441 0.43608 0.8772 0.0
H699 H 1.0076 0.36917 0.9061 0.0
H700 H 0.94734 0.53105 0.88498 0.0
C701 C 0.82586 0.54554 0.92468 0.0
O702 O 0.80975 0.5539 0.95616 0.0
N703 N 0.87265 0.44634 0.98329 0.0
C704 C 0.90057 0.43814 1.01292 0.0
C705 C 0.86333 0.43794 0.03939 0.0
C706 C 0.8177 0.44806 0.99208 0.0
N707 N 0.81158 0.44424 1.02625 0.0
C708 C 1.01798 0.47036 0.96806 0.0
C709 C 0.97925 0.56174 1.00446 0.0
C710 C 1.02501 0.53046 1.01785 0.0
C711 C 0.04729 0.48761 0.99693 0.0
C712 C 0.95147 0.54321 0.97518 0.0
N713 N 0.96768 0.49453 0.95962 0.0
H714 H 1.03196 0.43236 0.95559 0.0
H715 H 0.91301 0.56399 0.96791 0.0
H716 H 0.9453 0.43063 1.01525 0.0
H717 H 0.78334 0.45103 0.97408 0.0
O718 O 0.94276 0.37205 0.95396 0.0
O719 O 0.86312 0.38401 0.92522 0.0
O720 O 0.86414 0.50869 0.91771 0.0
C721 C 0.89804 0.3498 0.94026 0.0
H722 H 0.04947 0.52311 0.86153 0.0
H723 H 0.87326 0.4316 0.06594 0.0
H724 H 0.96196 0.59832 1.01696 0.0
H725 H 0.08463 0.46397 1.00336 0.0
Co726 Co 0.87766 0.66129 0.18978 0.0
C727 C 0.91354 0.75123 0.14291 0.0
C728 C 0.83055 0.71993 0.13254 0.0
C729 C 0.834 0.77434 0.12093 0.0
N730 N 0.87943 0.70579 0.14809 0.0
N731 N 0.88605 0.7941 0.12739 0.0
H732 H 0.95326 0.7574 0.15595 0.0
H733 H 0.79122 0.69729 0.13508 0.0
C734 C 0.7769 0.57574 0.1747 0.0
O735 O 0.76858 0.5596 0.20618 0.0
N736 N 0.87623 0.62255 0.23325 0.0
C737 C 0.88453 0.65049 0.26287 0.0
C738 C 0.88473 0.61329 0.28935 0.0
C739 C 0.87446 0.56761 0.24206 0.0
N740 N 0.87834 0.56154 0.27623 0.0
C741 C 0.85217 0.76784 0.21806 0.0
C742 C 0.76082 0.72913 0.25449 0.0
C743 C 0.7921 0.77486 0.26788 0.0
C744 C 0.83494 0.79714 0.24694 0.0
C745 C 0.77931 0.70136 0.2252 0.0
N746 N 0.82797 0.71756 0.20962 0.0
H747 H 0.89016 0.78181 0.20558 0.0
H748 H 0.75852 0.66291 0.21793 0.0
H749 H 0.89209 0.6952 0.26517 0.0
H750 H 0.87142 0.53324 0.22408 0.0
O751 O 0.95047 0.69259 0.20383 0.0
O752 O 0.93838 0.61294 0.17512 0.0
O753 O 0.81371 0.61402 0.16772 0.0
C754 C 0.97265 0.64784 0.19011 0.0
H755 H 0.79895 0.79959 0.11186 0.0
H756 H 0.89114 0.62323 0.31589 0.0
H757 H 0.72425 0.71183 0.267 0.0
H758 H 0.85859 0.83447 0.25338 0.0
Co759 Co 0.66115 0.62772 0.43983 0.0
C760 C 0.57123 0.66374 0.39295 0.0
C761 C 0.60261 0.58082 0.38247 0.0
C762 C 0.54829 0.5844 0.37072 0.0
N763 N 0.61665 0.6296 0.39815 0.0
N764 N 0.52848 0.63643 0.3772 0.0
H765 H 0.56497 0.70335 0.4061 0.0
H766 H 0.62523 0.54147 0.38498 0.0
C767 C 0.74671 0.52698 0.42468 0.0
O768 O 0.76283 0.51862 0.45616 0.0
N769 N 0.69993 0.62618 0.48329 0.0
C770 C 0.672 0.63438 0.51292 0.0
C771 C 0.70924 0.63458 0.53939 0.0
C772 C 0.75488 0.62445 0.49208 0.0
N773 N 0.76099 0.62827 0.52625 0.0
C774 C 0.55459 0.60216 0.46806 0.0
C775 C 0.59332 0.51078 0.50446 0.0
C776 C 0.54756 0.54205 0.51785 0.0
C777 C 0.52529 0.5849 0.49693 0.0
C778 C 0.6211 0.5293 0.47518 0.0
N779 N 0.6049 0.57798 0.45962 0.0
H780 H 0.54061 0.64016 0.45559 0.0
H781 H 0.65957 0.50853 0.46791 0.0
H782 H 0.62728 0.64189 0.51525 0.0
H783 H 0.78923 0.62149 0.47408 0.0
O784 O 0.62982 0.70047 0.45396 0.0
O785 O 0.70946 0.68851 0.42522 0.0
O786 O 0.70844 0.56382 0.41771 0.0
C787 C 0.67453 0.72272 0.44026 0.0
H788 H 0.5231 0.5494 0.36153 0.0
H789 H 0.69931 0.64092 0.56594 0.0
H790 H 0.61062 0.4742 0.51696 0.0
H791 H 0.48794 0.60855 0.50336 0.0
Co792 Co 0.37776 0.41112 0.18982 0.0
C793 C 0.41305 0.32102 0.14285 0.0
C794 C 0.32997 0.35244 0.13284 0.0
C795 C 0.33321 0.29802 0.12122 0.0
N796 N 0.37905 0.36651 0.14818 0.0
N797 N 0.38531 0.2782 0.12745 0.0
H798 H 0.45291 0.3148 0.15573 0.0
H799 H 0.29071 0.37518 0.13554 0.0
C800 C 0.27756 0.49739 0.17468 0.0
O801 O 0.26939 0.51374 0.20614 0.0
N802 N 0.37679 0.44998 0.23326 0.0
C803 C 0.38509 0.42199 0.26286 0.0
C804 C 0.38549 0.45919 0.28934 0.0
C805 C 0.37521 0.50491 0.24207 0.0
N806 N 0.37921 0.51096 0.27623 0.0
C807 C 0.35115 0.30475 0.2181 0.0
C808 C 0.26086 0.34492 0.25494 0.0
C809 C 0.29147 0.29857 0.26814 0.0
C810 C 0.33364 0.27559 0.24698 0.0
C811 C 0.27934 0.37229 0.22554 0.0
N812 N 0.3276 0.3554 0.20977 0.0
H813 H 0.38881 0.29025 0.20546 0.0
H814 H 0.25907 0.41107 0.21838 0.0
H815 H 0.39241 0.37723 0.26515 0.0
H816 H 0.37219 0.5393 0.22409 0.0
O817 O 0.45033 0.37924 0.20389 0.0
O818 O 0.43887 0.45887 0.17506 0.0
O819 O 0.31415 0.45885 0.16774 0.0
C820 C 0.47286 0.42378 0.19014 0.0
H821 H 0.29803 0.27284 0.11227 0.0
H822 H 0.39189 0.44921 0.31588 0.0
H823 H 0.22495 0.36307 0.26769 0.0
H824 H 0.35649 0.23764 0.25322 0.0
Co825 Co 0.4114 0.6278 0.93981 0.0
C826 C 0.50146 0.6631 0.89284 0.0
C827 C 0.47005 0.58004 0.88281 0.0
C828 C 0.52448 0.58327 0.8712 0.0
N829 N 0.45597 0.62911 0.89816 0.0
N830 N 0.54429 0.63536 0.87745 0.0
H831 H 0.50766 0.70296 0.90572 0.0
H832 H 0.44732 0.54078 0.88551 0.0
C833 C 0.32522 0.52754 0.92471 0.0
O834 O 0.30897 0.51929 0.95617 0.0
N835 N 0.37258 0.62679 0.98326 0.0
C836 C 0.40055 0.6351 1.01286 0.0
C837 C 0.36335 0.63546 0.03934 0.0
C838 C 0.31764 0.62517 0.99207 0.0
N839 N 0.31158 0.62915 1.02623 0.0
C840 C 0.5178 0.60133 0.96808 0.0
C841 C 0.47786 0.51091 1.00488 0.0
C842 C 0.5241 0.54164 1.0181 0.0
C843 C 0.54698 0.58389 0.99697 0.0
C844 C 0.45043 0.52937 0.97549 0.0
N845 N 0.46721 0.57768 0.95974 0.0
H846 H 0.53222 0.63902 0.95546 0.0
H847 H 0.41171 0.50902 0.96831 0.0
H848 H 0.44531 0.64245 1.01515 0.0
H849 H 0.28326 0.62213 0.97409 0.0
O850 O 0.44325 0.70037 0.95387 0.0
O851 O 0.36358 0.6889 0.92508 0.0
O852 O 0.36368 0.56419 0.91776 0.0
C853 C 0.39868 0.72289 0.94014 0.0
H854 H 0.54967 0.54809 0.86226 0.0
H855 H 0.37332 0.64187 0.06588 0.0
H856 H 0.45987 0.47489 1.01759 0.0
H857 H 0.58482 0.60687 1.00324 0.0
Co858 Co 0.19481 0.6614 0.68982 0.0
C859 C 0.15952 0.7515 0.64285 0.0
C860 C 0.24261 0.72007 0.63284 0.0
C861 C 0.23936 0.77449 0.62122 0.0
N862 N 0.19352 0.70601 0.64818 0.0
N863 N 0.18726 0.79431 0.62745 0.0
H864 H 0.11966 0.75771 0.65573 0.0
H865 H 0.28187 0.69734 0.63554 0.0
C866 C 0.29501 0.57513 0.67468 0.0
O867 O 0.30318 0.55878 0.70614 0.0
N868 N 0.19578 0.62254 0.73326 0.0
C869 C 0.18748 0.65052 0.76286 0.0
C870 C 0.18708 0.61333 0.78934 0.0
C871 C 0.19736 0.5676 0.74207 0.0
N872 N 0.19336 0.56155 0.77623 0.0
C873 C 0.22142 0.76776 0.7181 0.0
C874 C 0.31171 0.72759 0.75494 0.0
C875 C 0.2811 0.77395 0.76814 0.0
C876 C 0.23893 0.79693 0.74698 0.0
C877 C 0.29324 0.70022 0.72554 0.0
N878 N 0.24498 0.71712 0.70977 0.0
H879 H 0.18376 0.78227 0.70546 0.0
H880 H 0.31351 0.66145 0.71838 0.0
H881 H 0.18016 0.69529 0.76515 0.0
H882 H 0.20038 0.53322 0.72409 0.0
O883 O 0.12225 0.69328 0.70389 0.0
O884 O 0.1337 0.61364 0.67506 0.0
O885 O 0.25842 0.61366 0.66774 0.0
C886 C 0.09971 0.64873 0.69014 0.0
H887 H 0.27454 0.79968 0.61227 0.0
H888 H 0.18068 0.6233 0.81588 0.0
H889 H 0.34762 0.70945 0.76769 0.0
H890 H 0.21608 0.83487 0.75322 0.0
Co891 Co 0.16117 0.44471 0.43981 0.0
C892 C 0.07112 0.40941 0.39284 0.0
C893 C 0.10253 0.49248 0.38281 0.0
C894 C 0.0481 0.48925 0.3712 0.0
N895 N 0.1166 0.4434 0.39816 0.0
N896 N 1.02828 0.43716 0.37745 0.0
H897 H 0.06491 0.36956 0.40572 0.0
H898 H 0.12526 0.53173 0.38551 0.0
C899 C 0.24736 0.54497 0.42471 0.0
O900 O 0.26361 0.55322 0.45617 0.0
N901 N 0.2 0.44572 0.48326 0.0
C902 C 0.17202 0.43742 0.51286 0.0
C903 C 0.20922 0.43705 0.53934 0.0
C904 C 0.25493 0.44734 0.49207 0.0
N905 N 0.26099 0.44337 0.52623 0.0
C906 C 0.05478 0.47119 0.46808 0.0
C907 C 0.09471 0.56161 0.50488 0.0
C908 C 0.04847 0.53088 0.5181 0.0
C909 C 1.0256 0.48863 0.49697 0.0
C910 C 0.12215 0.54314 0.47549 0.0
N911 N 0.10537 0.49484 0.45974 0.0
H912 H 0.04035 0.4335 0.45546 0.0
H913 H 0.16086 0.5635 0.46831 0.0
H914 H 0.12726 0.43007 0.51515 0.0
H915 H 0.28932 0.45038 0.47409 0.0
O916 O 0.12932 0.37215 0.45387 0.0
O917 O 0.20899 0.38362 0.42508 0.0
O918 O 0.20889 0.50833 0.41776 0.0
C919 C 0.17389 0.34962 0.44014 0.0
H920 H 1.0229 0.52443 0.36226 0.0
H921 H 0.19925 0.43065 0.56588 0.0
H922 H 0.1127 0.59762 0.51759 0.0
H923 H 0.98776 0.46565 0.50324 0.0
Co924 Co 0.37774 0.66138 0.38125 0.0
C925 C 0.41303 0.75146 0.42822 0.0
C926 C 0.32993 0.72009 0.43822 0.0
C927 C 0.33318 0.77451 0.44983 0.0
N928 N 0.37902 0.70599 0.42289 0.0
N929 N 0.38529 0.7943 0.44361 0.0
H930 H 0.4529 0.75765 0.41535 0.0
H931 H 0.29067 0.69738 0.43551 0.0
C932 C 0.27755 0.57513 0.39638 0.0
O933 O 0.26939 0.55879 0.36492 0.0
N934 N 0.37679 0.62252 0.33781 0.0
C935 C 0.38509 0.6505 0.30821 0.0
C936 C 0.3855 0.6133 0.28173 0.0
C937 C 0.37522 0.56758 0.329 0.0
N938 N 0.37924 0.56153 0.29484 0.0
C939 C 0.35111 0.76775 0.35297 0.0
C940 C 0.26085 0.72759 0.31611 0.0
C941 C 0.29146 0.77394 0.30293 0.0
C942 C 0.33361 0.79692 0.32409 0.0
C943 C 0.27932 0.70022 0.34552 0.0
N944 N 0.32756 0.7171 0.3613 0.0
H945 H 0.38876 0.78225 0.36562 0.0
H946 H 0.25906 0.66145 0.35268 0.0
H947 H 0.39239 0.69526 0.30592 0.0
H948 H 0.37219 0.5332 0.34698 0.0
O949 O 0.45029 0.69326 0.36718 0.0
O950 O 0.43887 0.61362 0.39601 0.0
O951 O 0.31414 0.61365 0.40332 0.0
C952 C 0.47285 0.64872 0.38094 0.0
H953 H 0.29801 0.79972 0.45877 0.0
H954 H 0.39189 0.62327 0.25519 0.0
H955 H 0.22496 0.70945 0.30335 0.0
H956 H 0.35645 0.83486 0.31786 0.0
Co957 Co 0.16117 0.62782 0.13125 0.0
C958 C 0.07109 0.66311 0.17821 0.0
C959 C 0.10255 0.58005 0.18824 0.0
C960 C 0.04812 0.58327 0.19985 0.0
N961 N 0.1166 0.62913 0.1729 0.0
N962 N 1.02828 0.63535 0.1936 0.0
H963 H 0.06487 0.70296 0.16533 0.0
H964 H 0.12531 0.5408 0.18555 0.0
C965 C 0.24737 0.52754 0.14635 0.0
O966 O 0.26364 0.51929 0.11489 0.0
N967 N 0.20001 0.62682 0.0878 0.0
C968 C 0.17203 0.63513 0.0582 0.0
C969 C 0.20924 0.6355 1.03172 0.0
C970 C 0.25495 0.62519 0.07899 0.0
N971 N 0.26101 0.62918 0.04483 0.0
C972 C 0.05479 0.60138 0.10296 0.0
C973 C 0.09473 0.51092 0.06618 0.0
C974 C 0.04848 0.54165 0.05295 0.0
C975 C 1.0256 0.58393 0.07408 0.0
C976 C 0.12217 0.5294 0.09557 0.0
N977 N 0.10538 0.57772 0.11131 0.0
H978 H 0.04036 0.63908 0.11558 0.0
H979 H 0.16089 0.50904 0.10275 0.0
H980 H 0.12727 0.64248 0.0559 0.0
H981 H 0.28933 0.62213 0.09697 0.0
O982 O 0.12933 0.70041 0.11719 0.0
O983 O 0.20899 0.6889 0.14598 0.0
O984 O 0.2089 0.56419 0.1533 0.0
C985 C 0.17389 0.72291 0.13093 0.0
H986 H 1.02295 0.54808 0.20879 0.0
H987 H 0.19927 0.64189 1.00518 0.0
H988 H 0.11273 0.4749 0.05348 0.0
H989 H 0.98776 0.60691 0.0678 0.0
Co990 Co 0.19483 0.41114 0.88125 0.0
C991 C 0.15954 0.32106 0.92822 0.0
C992 C 0.24264 0.35243 0.93822 0.0
C993 C 0.23939 0.298 0.94983 0.0
N994 N 0.19355 0.36652 0.92289 0.0
N995 N 0.18728 0.27822 0.94361 0.0
H996 H 0.11967 0.31487 0.91535 0.0
H997 H 0.2819 0.37514 0.93551 0.0
C998 C 0.29502 0.49739 0.89638 0.0
O999 O 0.30318 0.51373 0.86492 0.0
N1000 N 0.19578 0.45 0.83781 0.0
C1001 C 0.18748 0.42202 0.80821 0.0
C1002 C 0.18707 0.45922 0.78173 0.0
C1003 C 0.19735 0.50493 0.829 0.0
N1004 N 0.19334 0.51099 0.79484 0.0
C1005 C 0.22146 0.30477 0.85297 0.0
C1006 C 0.31172 0.34492 0.81611 0.0
C1007 C 0.28111 0.29858 0.80293 0.0
C1008 C 0.23896 0.27559 0.82409 0.0
C1009 C 0.29325 0.3723 0.84552 0.0
N1010 N 0.24501 0.35541 0.8613 0.0
H1011 H 0.18382 0.29026 0.86562 0.0
H1012 H 0.31352 0.41107 0.85268 0.0
H1013 H 0.18018 0.37725 0.80592 0.0
H1014 H 0.20038 0.53932 0.84698 0.0
O1015 O 0.12228 0.37926 0.86718 0.0
O1016 O 0.13371 0.45889 0.89601 0.0
O1017 O 0.25843 0.45887 0.90332 0.0
C1018 C 0.09973 0.4238 0.88094 0.0
H1019 H 0.27457 0.27279 0.95877 0.0
H1020 H 0.18068 0.44924 0.75519 0.0
H1021 H 0.34761 0.36307 0.80335 0.0
H1022 H 0.21612 0.23765 0.81786 0.0
Co1023 Co 0.4114 0.44469 0.63125 0.0
C1024 C 0.50148 0.40941 0.67821 0.0
C1025 C 0.47002 0.49247 0.68824 0.0
C1026 C 0.52445 0.48925 0.69985 0.0
N1027 N 0.45597 0.44339 0.6729 0.0
N1028 N 0.5443 0.43716 0.6936 0.0
H1029 H 0.50771 0.36956 0.66533 0.0
H1030 H 0.44727 0.53172 0.68555 0.0
C1031 C 0.3252 0.54497 0.64635 0.0
O1032 O 0.30893 0.55322 0.61489 0.0
N1033 N 0.37256 0.4457 0.5878 0.0
C1034 C 0.40054 0.43739 0.5582 0.0
C1035 C 0.36334 0.43702 0.53172 0.0
C1036 C 0.31763 0.44733 0.57899 0.0
N1037 N 0.31157 0.44333 0.54483 0.0
C1038 C 0.51778 0.47114 0.60296 0.0
C1039 C 0.47784 0.56159 0.56618 0.0
C1040 C 0.5241 0.53087 0.55295 0.0
C1041 C 0.54697 0.48859 0.57408 0.0
C1042 C 0.4504 0.54311 0.59557 0.0
N1043 N 0.46719 0.4948 0.61131 0.0
H1044 H 0.53221 0.43343 0.61558 0.0
H1045 H 0.41168 0.56347 0.60275 0.0
H1046 H 0.4453 0.43003 0.5559 0.0
H1047 H 0.28325 0.45039 0.59697 0.0
O1048 O 0.44325 0.37211 0.61719 0.0
O1049 O 0.36358 0.38362 0.64598 0.0
O1050 O 0.36367 0.50832 0.6533 0.0
C1051 C 0.39868 0.3496 0.63093 0.0
H1052 H 0.54963 0.52443 0.70879 0.0
H1053 H 0.3733 0.43062 0.50518 0.0
H1054 H 0.45985 0.59762 0.55348 0.0
H1055 H 0.58481 0.4656 0.5678 0.0
loop_
_geom_bond_atom_site_label_1
_geom_bond_atom_site_label_2
_geom_bond_distance
_geom_bond_site_symmetry_2
_ccdc_geom_bond_type
Co0 N4 2.148 . S
Co0 N10 2.128 . S
Co0 N20 2.194 . S
Co0 O25 2.351 . S
Co0 O26 2.155 . S
Co0 O27 2.096 . S
C1 N4 1.301 . S
C1 N5 1.328 . S
C1 H6 0.930 . S
C2 C3 1.333 . S
C2 N4 1.317 . S
C2 H7 0.930 . S
C3 C2 1.333 . S
C3 N5 1.350 . S
C3 H29 0.931 . S
N4 Co0 2.148 . S
N4 C1 1.301 . S
N4 C2 1.317 . S
N5 C1 1.328 . S
N5 C3 1.350 . S
H6 C1 0.930 . S
H7 C2 0.930 . S
C8 O9 1.224 . S
C8 O27 1.247 . S
O9 C8 1.224 . S
N10 Co0 2.128 . S
N10 C11 1.355 . S
N10 C13 1.311 . S
C11 N10 1.355 . S
C11 C12 1.363 . S
C11 H23 0.929 . S
C12 C11 1.363 . S
C12 N14 1.375 1_545 S
C12 H30 0.931 . S
C13 N10 1.311 . S
C13 N14 1.347 1_545 S
C13 H24 0.929 . S
N14 C12 1.375 1_565 S
N14 C13 1.347 1_565 S
C15 C18 1.365 . S
C15 N20 1.328 . S
C15 H21 0.929 . S
C16 C17 1.362 . S
C16 C19 1.378 . S
C16 H31 0.929 . S
C17 C16 1.362 . S
C17 C18 1.366 . S
C18 C15 1.365 . S
C18 C17 1.366 . S
C18 H32 0.930 . S
C19 C16 1.378 . S
C19 N20 1.315 . S
C19 H22 0.930 . S
N20 Co0 2.194 . S
N20 C15 1.328 . S
N20 C19 1.315 . S
H21 C15 0.929 . S
H22 C19 0.930 . S
H23 C11 0.929 . S
H24 C13 0.929 . S
O25 Co0 2.351 . S
O25 C28 1.244 . S
O26 Co0 2.155 . S
O26 C28 1.240 . S
O27 Co0 2.096 . S
O27 C8 1.247 . S
C28 O25 1.244 . S
C28 O26 1.240 . S
H29 C3 0.931 . S
H30 C12 0.931 . S
H31 C16 0.929 . S
H32 C18 0.930 . S
Co33 N37 2.148 . S
Co33 N43 2.128 . S
Co33 N53 2.194 . S
Co33 O58 2.351 . S
Co33 O59 2.155 . S
Co33 O60 2.096 . S
C34 N37 1.301 . S
C34 N38 1.328 1_455 S
C34 H39 0.930 . S
C35 C36 1.333 . S
C35 N37 1.317 . S
C35 H40 0.930 . S
C36 C35 1.333 . S
C36 N38 1.350 1_455 S
C36 H62 0.931 . S
N37 Co33 2.148 . S
N37 C34 1.301 . S
N37 C35 1.317 . S
N38 C34 1.328 1_655 S
N38 C36 1.350 1_655 S
H39 C34 0.930 . S
H40 C35 0.930 . S
C41 O42 1.224 . S
C41 O60 1.247 1_545 S
O42 C41 1.224 . S
N43 Co33 2.128 . S
N43 C44 1.355 . S
N43 C46 1.311 . S
C44 N43 1.355 . S
C44 C45 1.363 . S
C44 H56 0.929 . S
C45 C44 1.363 . S
C45 N47 1.375 . S
C45 H63 0.931 . S
C46 N43 1.311 . S
C46 N47 1.347 . S
C46 H57 0.929 . S
N47 C45 1.375 . S
N47 C46 1.347 . S
C48 C51 1.365 . S
C48 N53 1.328 . S
C48 H54 0.929 . S
C49 C50 1.362 1_545 S
C49 C52 1.378 1_545 S
C49 H64 0.929 . S
C50 C49 1.362 1_565 S
C50 C51 1.366 . S
C51 C48 1.365 . S
C51 C50 1.366 . S
C51 H65 0.930 1_455 S
C52 C49 1.378 1_565 S
C52 N53 1.315 . S
C52 H55 0.930 1_565 S
N53 Co33 2.194 . S
N53 C48 1.328 . S
N53 C52 1.315 . S
H54 C48 0.929 . S
H55 C52 0.930 1_545 S
H56 C44 0.929 . S
H57 C46 0.929 . S
O58 Co33 2.351 . S
O58 C61 1.244 . S
O59 Co33 2.155 . S
O59 C61 1.240 . S
O60 Co33 2.096 . S
O60 C41 1.247 1_565 S
C61 O58 1.244 . S
C61 O59 1.240 . S
H62 C36 0.931 . S
H63 C45 0.931 . S
H64 C49 0.929 . S
H65 C51 0.930 1_655 S
Co66 N70 2.148 . S
Co66 N76 2.128 . S
Co66 N86 2.194 . S
Co66 O91 2.351 . S
Co66 O92 2.155 . S
Co66 O93 2.096 . S
C67 N70 1.301 . S
C67 N71 1.328 . S
C67 H72 0.930 . S
C68 C69 1.333 . S
C68 N70 1.317 . S
C68 H73 0.930 . S
C69 C68 1.333 . S
C69 N71 1.350 . S
C69 H95 0.931 . S
N70 Co66 2.148 . S
N70 C67 1.301 . S
N70 C68 1.317 . S
N71 C67 1.328 . S
N71 C69 1.350 . S
H72 C67 0.930 . S
H73 C68 0.930 . S
C74 O75 1.224 . S
C74 O93 1.247 . S
O75 C74 1.224 . S
N76 Co66 2.128 . S
N76 C77 1.355 . S
N76 C79 1.311 . S
C77 N76 1.355 . S
C77 C78 1.363 . S
C77 H89 0.929 . S
C78 C77 1.363 . S
C78 N80 1.375 1_565 S
C78 H96 0.931 . S
C79 N76 1.311 . S
C79 N80 1.347 1_565 S
C79 H90 0.929 . S
N80 C78 1.375 1_545 S
N80 C79 1.347 1_545 S
C81 C84 1.365 . S
C81 N86 1.328 . S
C81 H87 0.929 . S
C82 C83 1.362 . S
C82 C85 1.378 . S
C82 H97 0.929 . S
C83 C82 1.362 . S
C83 C84 1.366 . S
C84 C81 1.365 . S
C84 C83 1.366 . S
C84 H98 0.930 . S
C85 C82 1.378 . S
C85 N86 1.315 . S
C85 H88 0.930 . S
N86 Co66 2.194 . S
N86 C81 1.328 . S
N86 C85 1.315 . S
H87 C81 0.929 . S
H88 C85 0.930 . S
H89 C77 0.929 . S
H90 C79 0.929 . S
O91 Co66 2.351 . S
O91 C94 1.244 . S
O92 Co66 2.155 . S
O92 C94 1.240 . S
O93 Co66 2.096 . S
O93 C74 1.247 . S
C94 O91 1.244 . S
C94 O92 1.240 . S
H95 C69 0.931 . S
H96 C78 0.931 . S
H97 C82 0.929 . S
H98 C84 0.930 . S
Co99 N103 2.148 . S
Co99 N109 2.128 . S
Co99 N119 2.194 . S
Co99 O124 2.351 . S
Co99 O125 2.155 . S
Co99 O126 2.096 . S
C100 N103 1.301 . S
C100 N104 1.328 . S
C100 H105 0.930 . S
C101 C102 1.333 . S
C101 N103 1.317 . S
C101 H106 0.930 . S
C102 C101 1.333 . S
C102 N104 1.350 . S
C102 H128 0.931 . S
N103 Co99 2.148 . S
N103 C100 1.301 . S
N103 C101 1.317 . S
N104 C100 1.328 . S
N104 C102 1.350 . S
H105 C100 0.930 . S
H106 C101 0.930 . S
C107 O108 1.224 . S
C107 O126 1.247 1_565 S
O108 C107 1.224 . S
N109 Co99 2.128 . S
N109 C110 1.355 . S
N109 C112 1.311 . S
C110 N109 1.355 . S
C110 C111 1.363 . S
C110 H122 0.929 . S
C111 C110 1.363 . S
C111 N113 1.375 . S
C111 H129 0.931 1_554 S
C112 N109 1.311 . S
C112 N113 1.347 . S
C112 H123 0.929 . S
N113 C111 1.375 . S
N113 C112 1.347 . S
C114 C117 1.365 . S
C114 N119 1.328 . S
C114 H120 0.929 . S
C115 C116 1.362 1_565 S
C115 C118 1.378 1_565 S
C115 H130 0.929 . S
C116 C115 1.362 1_545 S
C116 C117 1.366 . S
C117 C114 1.365 . S
C117 C116 1.366 . S
C117 H131 0.930 . S
C118 C115 1.378 1_545 S
C118 N119 1.315 . S
C118 H121 0.930 1_545 S
N119 Co99 2.194 . S
N119 C114 1.328 . S
N119 C118 1.315 . S
H120 C114 0.929 . S
H121 C118 0.930 1_565 S
H122 C110 0.929 . S
H123 C112 0.929 . S
O124 Co99 2.351 . S
O124 C127 1.244 . S
O125 Co99 2.155 . S
O125 C127 1.240 . S
O126 Co99 2.096 . S
O126 C107 1.247 1_545 S
C127 O124 1.244 . S
C127 O125 1.240 . S
H128 C102 0.931 . S
H129 C111 0.931 1_556 S
H130 C115 0.929 . S
H131 C117 0.930 . S
Co132 N136 2.148 . S
Co132 N142 2.128 . S
Co132 N152 2.194 . S
Co132 O157 2.351 . S
Co132 O158 2.155 . S
Co132 O159 2.096 . S
C133 N136 1.301 . S
C133 N137 1.328 . S
C133 H138 0.930 . S
C134 C135 1.333 . S
C134 N136 1.317 . S
C134 H139 0.930 . S
C135 C134 1.333 . S
C135 N137 1.350 . S
C135 H161 0.931 . S
N136 Co132 2.148 . S
N136 C133 1.301 . S
N136 C134 1.317 . S
N137 C133 1.328 . S
N137 C135 1.350 . S
H138 C133 0.930 . S
H139 C134 0.930 . S
C140 O141 1.224 . S
C140 O159 1.247 . S
O141 C140 1.224 . S
N142 Co132 2.128 . S
N142 C143 1.355 . S
N142 C145 1.311 . S
C143 N142 1.355 . S
C143 C144 1.363 . S
C143 H155 0.929 . S
C144 C143 1.363 . S
C144 N146 1.375 1_565 S
C144 H162 0.931 . S
C145 N142 1.311 . S
C145 N146 1.347 1_565 S
C145 H156 0.929 . S
N146 C144 1.375 1_545 S
N146 C145 1.347 1_545 S
C147 C150 1.365 . S
C147 N152 1.328 . S
C147 H153 0.929 . S
C148 C149 1.362 . S
C148 C151 1.378 . S
C148 H163 0.929 . S
C149 C148 1.362 . S
C149 C150 1.366 . S
C150 C147 1.365 . S
C150 C149 1.366 . S
C150 H164 0.930 . S
C151 C148 1.378 . S
C151 N152 1.315 . S
C151 H154 0.930 . S
N152 Co132 2.194 . S
N152 C147 1.328 . S
N152 C151 1.315 . S
H153 C147 0.929 . S
H154 C151 0.930 . S
H155 C143 0.929 . S
H156 C145 0.929 . S
O157 Co132 2.351 . S
O157 C160 1.244 . S
O158 Co132 2.155 . S
O158 C160 1.240 . S
O159 Co132 2.096 . S
O159 C140 1.247 . S
C160 O157 1.244 . S
C160 O158 1.240 . S
H161 C135 0.931 . S
H162 C144 0.931 . S
H163 C148 0.929 . S
H164 C150 0.930 . S
Co165 N169 2.148 . S
Co165 N175 2.128 . S
Co165 N185 2.194 . S
Co165 O190 2.351 . S
Co165 O191 2.155 . S
Co165 O192 2.096 . S
C166 N169 1.301 . S
C166 N170 1.328 . S
C166 H171 0.930 . S
C167 C168 1.333 . S
C167 N169 1.317 . S
C167 H172 0.930 . S
C168 C167 1.333 . S
C168 N170 1.350 . S
C168 H194 0.931 . S
N169 Co165 2.148 . S
N169 C166 1.301 . S
N169 C167 1.317 . S
N170 C166 1.328 . S
N170 C168 1.350 . S
H171 C166 0.930 . S
H172 C167 0.930 . S
C173 O174 1.224 . S
C173 O192 1.247 1_545 S
O174 C173 1.224 . S
N175 Co165 2.128 . S
N175 C176 1.355 . S
N175 C178 1.311 . S
C176 N175 1.355 . S
C176 C177 1.363 . S
C176 H188 0.929 . S
C177 C176 1.363 . S
C177 N179 1.375 . S
C177 H195 0.931 . S
C178 N175 1.311 . S
C178 N179 1.347 . S
C178 H189 0.929 . S
N179 C177 1.375 . S
N179 C178 1.347 . S
C180 C183 1.365 . S
C180 N185 1.328 . S
C180 H186 0.929 . S
C181 C182 1.362 1_545 S
C181 C184 1.378 1_545 S
C181 H196 0.929 . S
C182 C181 1.362 1_565 S
C182 C183 1.366 . S
C183 C180 1.365 . S
C183 C182 1.366 . S
C183 H197 0.930 . S
C184 C181 1.378 1_565 S
C184 N185 1.315 . S
C184 H187 0.930 1_565 S
N185 Co165 2.194 . S
N185 C180 1.328 . S
N185 C184 1.315 . S
H186 C180 0.929 . S
H187 C184 0.930 1_545 S
H188 C176 0.929 . S
H189 C178 0.929 . S
O190 Co165 2.351 . S
O190 C193 1.244 . S
O191 Co165 2.155 . S
O191 C193 1.240 . S
O192 Co165 2.096 . S
O192 C173 1.247 1_565 S
C193 O190 1.244 . S
C193 O191 1.240 . S
H194 C168 0.931 . S
H195 C177 0.931 . S
H196 C181 0.929 . S
H197 C183 0.930 . S
Co198 N202 2.148 . S
Co198 N208 2.128 . S
Co198 N218 2.194 . S
Co198 O223 2.351 . S
Co198 O224 2.155 . S
Co198 O225 2.096 . S
C199 N202 1.301 . S
C199 N203 1.328 . S
C199 H204 0.930 . S
C200 C201 1.333 . S
C200 N202 1.317 . S
C200 H205 0.930 . S
C201 C200 1.333 . S
C201 N203 1.350 . S
C201 H227 0.931 . S
N202 Co198 2.148 . S
N202 C199 1.301 . S
N202 C200 1.317 . S
N203 C199 1.328 . S
N203 C201 1.350 . S
H204 C199 0.930 . S
H205 C200 0.930 . S
C206 O207 1.224 . S
C206 O225 1.247 . S
O207 C206 1.224 . S
N208 Co198 2.128 . S
N208 C209 1.355 . S
N208 C211 1.311 . S
C209 N208 1.355 . S
C209 C210 1.363 . S
C209 H221 0.929 . S
C210 C209 1.363 . S
C210 N212 1.375 1_545 S
C210 H228 0.931 . S
C211 N208 1.311 . S
C211 N212 1.347 1_545 S
C211 H222 0.929 . S
N212 C210 1.375 1_565 S
N212 C211 1.347 1_565 S
C213 C216 1.365 . S
C213 N218 1.328 . S
C213 H219 0.929 . S
C214 C215 1.362 . S
C214 C217 1.378 . S
C214 H229 0.929 . S
C215 C214 1.362 . S
C215 C216 1.366 . S
C216 C213 1.365 . S
C216 C215 1.366 . S
C216 H230 0.930 . S
C217 C214 1.378 . S
C217 N218 1.315 . S
C217 H220 0.930 . S
N218 Co198 2.194 . S
N218 C213 1.328 . S
N218 C217 1.315 . S
H219 C213 0.929 . S
H220 C217 0.930 . S
H221 C209 0.929 . S
H222 C211 0.929 . S
O223 Co198 2.351 . S
O223 C226 1.244 . S
O224 Co198 2.155 . S
O224 C226 1.240 . S
O225 Co198 2.096 . S
O225 C206 1.247 . S
C226 O223 1.244 . S
C226 O224 1.240 . S
H227 C201 0.931 . S
H228 C210 0.931 . S
H229 C214 0.929 . S
H230 C216 0.930 . S
Co231 N235 2.148 . S
Co231 N241 2.128 . S
Co231 N251 2.194 . S
Co231 O256 2.351 . S
Co231 O257 2.155 . S
Co231 O258 2.096 . S
C232 N235 1.301 . S
C232 N236 1.328 1_455 S
C232 H237 0.930 . S
C233 C234 1.333 . S
C233 N235 1.317 . S
C233 H238 0.930 . S
C234 C233 1.333 . S
C234 N236 1.350 1_455 S
C234 H260 0.931 . S
N235 Co231 2.148 . S
N235 C232 1.301 . S
N235 C233 1.317 . S
N236 C232 1.328 1_655 S
N236 C234 1.350 1_655 S
H237 C232 0.930 . S
H238 C233 0.930 . S
C239 O240 1.224 . S
C239 O258 1.247 1_565 S
O240 C239 1.224 . S
N241 Co231 2.128 . S
N241 C242 1.355 . S
N241 C244 1.311 . S
C242 N241 1.355 . S
C242 C243 1.363 . S
C242 H254 0.929 . S
C243 C242 1.363 . S
C243 N245 1.375 . S
C243 H261 0.931 1_556 S
C244 N241 1.311 . S
C244 N245 1.347 . S
C244 H255 0.929 . S
N245 C243 1.375 . S
N245 C244 1.347 . S
C246 C249 1.365 . S
C246 N251 1.328 . S
C246 H252 0.929 . S
C247 C248 1.362 1_565 S
C247 C250 1.378 1_565 S
C247 H262 0.929 . S
C248 C247 1.362 1_545 S
C248 C249 1.366 . S
C249 C246 1.365 . S
C249 C248 1.366 . S
C249 H263 0.930 1_455 S
C250 C247 1.378 1_545 S
C250 N251 1.315 . S
C250 H253 0.930 1_545 S
N251 Co231 2.194 . S
N251 C246 1.328 . S
N251 C250 1.315 . S
H252 C246 0.929 . S
H253 C250 0.930 1_565 S
H254 C242 0.929 . S
H255 C244 0.929 . S
O256 Co231 2.351 . S
O256 C259 1.244 . S
O257 Co231 2.155 . S
O257 C259 1.240 . S
O258 Co231 2.096 . S
O258 C239 1.247 1_545 S
C259 O256 1.244 . S
C259 O257 1.240 . S
H260 C234 0.931 . S
H261 C243 0.931 1_554 S
H262 C247 0.929 . S
H263 C249 0.930 1_655 S
Co264 N268 2.148 . S
Co264 N274 2.128 . S
Co264 N284 2.194 . S
Co264 O289 2.351 . S
Co264 O290 2.155 . S
Co264 O291 2.096 . S
C265 N268 1.301 . S
C265 N269 1.328 . S
C265 H270 0.930 . S
C266 C267 1.333 . S
C266 N268 1.317 . S
C266 H271 0.930 . S
C267 C266 1.333 . S
C267 N269 1.350 . S
C267 H293 0.931 . S
N268 Co264 2.148 . S
N268 C265 1.301 . S
N268 C266 1.317 . S
N269 C265 1.328 . S
N269 C267 1.350 . S
H270 C265 0.930 . S
H271 C266 0.930 . S
C272 O273 1.224 . S
C272 O291 1.247 . S
O273 C272 1.224 . S
N274 Co264 2.128 . S
N274 C275 1.355 . S
N274 C277 1.311 . S
C275 N274 1.355 . S
C275 C276 1.363 . S
C275 H287 0.929 . S
C276 C275 1.363 . S
C276 N278 1.375 1_565 S
C276 H294 0.931 . S
C277 N274 1.311 . S
C277 N278 1.347 1_565 S
C277 H288 0.929 . S
N278 C276 1.375 1_545 S
N278 C277 1.347 1_545 S
C279 C282 1.365 . S
C279 N284 1.328 . S
C279 H285 0.929 . S
C280 C281 1.362 . S
C280 C283 1.378 . S
C280 H295 0.929 . S
C281 C280 1.362 . S
C281 C282 1.366 . S
C282 C279 1.365 . S
C282 C281 1.366 . S
C282 H296 0.930 . S
C283 C280 1.378 . S
C283 N284 1.315 . S
C283 H286 0.930 . S
N284 Co264 2.194 . S
N284 C279 1.328 . S
N284 C283 1.315 . S
H285 C279 0.929 . S
H286 C283 0.930 . S
H287 C275 0.929 . S
H288 C277 0.929 . S
O289 Co264 2.351 . S
O289 C292 1.244 . S
O290 Co264 2.155 . S
O290 C292 1.240 . S
O291 Co264 2.096 . S
O291 C272 1.247 . S
C292 O289 1.244 . S
C292 O290 1.240 . S
H293 C267 0.931 . S
H294 C276 0.931 . S
H295 C280 0.929 . S
H296 C282 0.930 . S
Co297 N301 2.148 . S
Co297 N307 2.128 . S
Co297 N317 2.194 . S
Co297 O322 2.351 . S
Co297 O323 2.155 . S
Co297 O324 2.096 . S
C298 N301 1.301 . S
C298 N302 1.328 1_655 S
C298 H303 0.930 . S
C299 C300 1.333 . S
C299 N301 1.317 . S
C299 H304 0.930 . S
C300 C299 1.333 . S
C300 N302 1.350 1_655 S
C300 H326 0.931 . S
N301 Co297 2.148 . S
N301 C298 1.301 . S
N301 C299 1.317 . S
N302 C298 1.328 1_455 S
N302 C300 1.350 1_455 S
H303 C298 0.930 . S
H304 C299 0.930 . S
C305 O306 1.224 . S
C305 O324 1.247 1_565 S
O306 C305 1.224 . S
N307 Co297 2.128 . S
N307 C308 1.355 . S
N307 C310 1.311 . S
C308 N307 1.355 . S
C308 C309 1.363 . S
C308 H320 0.929 . S
C309 C308 1.363 . S
C309 N311 1.375 . S
C309 H327 0.931 . S
C310 N307 1.311 . S
C310 N311 1.347 . S
C310 H321 0.929 . S
N311 C309 1.375 . S
N311 C310 1.347 . S
C312 C315 1.365 . S
C312 N317 1.328 . S
C312 H318 0.929 . S
C313 C314 1.362 1_565 S
C313 C316 1.378 1_565 S
C313 H328 0.929 . S
C314 C313 1.362 1_545 S
C314 C315 1.366 . S
C315 C312 1.365 . S
C315 C314 1.366 . S
C315 H329 0.930 1_655 S
C316 C313 1.378 1_545 S
C316 N317 1.315 . S
C316 H319 0.930 1_545 S
N317 Co297 2.194 . S
N317 C312 1.328 . S
N317 C316 1.315 . S
H318 C312 0.929 . S
H319 C316 0.930 1_565 S
H320 C308 0.929 . S
H321 C310 0.929 . S
O322 Co297 2.351 . S
O322 C325 1.244 . S
O323 Co297 2.155 . S
O323 C325 1.240 . S
O324 Co297 2.096 . S
O324 C305 1.247 1_545 S
C325 O322 1.244 . S
C325 O323 1.240 . S
H326 C300 0.931 . S
H327 C309 0.931 . S
H328 C313 0.929 . S
H329 C315 0.930 1_455 S
Co330 N334 2.148 . S
Co330 N340 2.128 . S
Co330 N350 2.194 . S
Co330 O355 2.351 . S
Co330 O356 2.155 . S
Co330 O357 2.096 . S
C331 N334 1.301 . S
C331 N335 1.328 . S
C331 H336 0.930 . S
C332 C333 1.333 . S
C332 N334 1.317 . S
C332 H337 0.930 . S
C333 C332 1.333 . S
C333 N335 1.350 . S
C333 H359 0.931 . S
N334 Co330 2.148 . S
N334 C331 1.301 . S
N334 C332 1.317 . S
N335 C331 1.328 . S
N335 C333 1.350 . S
H336 C331 0.930 . S
H337 C332 0.930 . S
C338 O339 1.224 . S
C338 O357 1.247 . S
O339 C338 1.224 . S
N340 Co330 2.128 . S
N340 C341 1.355 . S
N340 C343 1.311 . S
C341 N340 1.355 . S
C341 C342 1.363 . S
C341 H353 0.929 . S
C342 C341 1.363 . S
C342 N344 1.375 1_545 S
C342 H360 0.931 . S
C343 N340 1.311 . S
C343 N344 1.347 1_545 S
C343 H354 0.929 . S
N344 C342 1.375 1_565 S
N344 C343 1.347 1_565 S
C345 C348 1.365 . S
C345 N350 1.328 . S
C345 H351 0.929 . S
C346 C347 1.362 . S
C346 C349 1.378 . S
C346 H361 0.929 . S
C347 C346 1.362 . S
C347 C348 1.366 . S
C348 C345 1.365 . S
C348 C347 1.366 . S
C348 H362 0.930 . S
C349 C346 1.378 . S
C349 N350 1.315 . S
C349 H352 0.930 . S
N350 Co330 2.194 . S
N350 C345 1.328 . S
N350 C349 1.315 . S
H351 C345 0.929 . S
H352 C349 0.930 . S
H353 C341 0.929 . S
H354 C343 0.929 . S
O355 Co330 2.351 . S
O355 C358 1.244 . S
O356 Co330 2.155 . S
O356 C358 1.240 . S
O357 Co330 2.096 . S
O357 C338 1.247 . S
C358 O355 1.244 . S
C358 O356 1.240 . S
H359 C333 0.931 . S
H360 C342 0.931 . S
H361 C346 0.929 . S
H362 C348 0.930 . S
Co363 N367 2.148 . S
Co363 N373 2.128 . S
Co363 N383 2.194 . S
Co363 O388 2.351 . S
Co363 O389 2.155 . S
Co363 O390 2.096 . S
C364 N367 1.301 . S
C364 N368 1.328 . S
C364 H369 0.930 . S
C365 C366 1.333 . S
C365 N367 1.317 . S
C365 H370 0.930 . S
C366 C365 1.333 . S
C366 N368 1.350 . S
C366 H392 0.931 . S
N367 Co363 2.148 . S
N367 C364 1.301 . S
N367 C365 1.317 . S
N368 C364 1.328 . S
N368 C366 1.350 . S
H369 C364 0.930 . S
H370 C365 0.930 . S
C371 O372 1.224 . S
C371 O390 1.247 1_545 S
O372 C371 1.224 . S
N373 Co363 2.128 . S
N373 C374 1.355 . S
N373 C376 1.311 . S
C374 N373 1.355 . S
C374 C375 1.363 . S
C374 H386 0.929 . S
C375 C374 1.363 . S
C375 N377 1.375 . S
C375 H393 0.931 1_556 S
C376 N373 1.311 . S
C376 N377 1.347 . S
C376 H387 0.929 . S
N377 C375 1.375 . S
N377 C376 1.347 . S
C378 C381 1.365 . S
C378 N383 1.328 . S
C378 H384 0.929 . S
C379 C380 1.362 1_545 S
C379 C382 1.378 1_545 S
C379 H394 0.929 . S
C380 C379 1.362 1_565 S
C380 C381 1.366 . S
C381 C378 1.365 . S
C381 C380 1.366 . S
C381 H395 0.930 . S
C382 C379 1.378 1_565 S
C382 N383 1.315 . S
C382 H385 0.930 1_565 S
N383 Co363 2.194 . S
N383 C378 1.328 . S
N383 C382 1.315 . S
H384 C378 0.929 . S
H385 C382 0.930 1_545 S
H386 C374 0.929 . S
H387 C376 0.929 . S
O388 Co363 2.351 . S
O388 C391 1.244 . S
O389 Co363 2.155 . S
O389 C391 1.240 . S
O390 Co363 2.096 . S
O390 C371 1.247 1_565 S
C391 O388 1.244 . S
C391 O389 1.240 . S
H392 C366 0.931 . S
H393 C375 0.931 1_554 S
H394 C379 0.929 . S
H395 C381 0.930 . S
Co396 N400 2.148 . S
Co396 N406 2.128 . S
Co396 N416 2.194 . S
Co396 O421 2.351 . S
Co396 O422 2.155 . S
Co396 O423 2.096 . S
C397 N400 1.301 . S
C397 N401 1.328 . S
C397 H402 0.930 . S
C398 C399 1.333 . S
C398 N400 1.317 . S
C398 H403 0.930 . S
C399 C398 1.333 . S
C399 N401 1.350 . S
C399 H425 0.931 . S
N400 Co396 2.148 . S
N400 C397 1.301 . S
N400 C398 1.317 . S
N401 C397 1.328 . S
N401 C399 1.350 . S
H402 C397 0.930 . S
H403 C398 0.930 . S
C404 O405 1.224 . S
C404 O423 1.247 . S
O405 C404 1.224 . S
N406 Co396 2.128 . S
N406 C407 1.355 . S
N406 C409 1.311 . S
C407 N406 1.355 . S
C407 C408 1.363 . S
C407 H419 0.929 . S
C408 C407 1.363 . S
C408 N410 1.375 1_545 S
C408 H426 0.931 . S
C409 N406 1.311 . S
C409 N410 1.347 1_545 S
C409 H420 0.929 . S
N410 C408 1.375 1_565 S
N410 C409 1.347 1_565 S
C411 C414 1.365 . S
C411 N416 1.328 . S
C411 H417 0.929 . S
C412 C413 1.362 . S
C412 C415 1.378 . S
C412 H427 0.929 . S
C413 C412 1.362 . S
C413 C414 1.366 . S
C414 C411 1.365 . S
C414 C413 1.366 . S
C414 H428 0.930 . S
C415 C412 1.378 . S
C415 N416 1.315 . S
C415 H418 0.930 . S
N416 Co396 2.194 . S
N416 C411 1.328 . S
N416 C415 1.315 . S
H417 C411 0.929 . S
H418 C415 0.930 . S
H419 C407 0.929 . S
H420 C409 0.929 . S
O421 Co396 2.351 . S
O421 C424 1.244 . S
O422 Co396 2.155 . S
O422 C424 1.240 . S
O423 Co396 2.096 . S
O423 C404 1.247 . S
C424 O421 1.244 . S
C424 O422 1.240 . S
H425 C399 0.931 . S
H426 C408 0.931 . S
H427 C412 0.929 . S
H428 C414 0.930 . S
Co429 N433 2.148 . S
Co429 N439 2.128 . S
Co429 N449 2.194 . S
Co429 O454 2.351 . S
Co429 O455 2.155 . S
Co429 O456 2.096 . S
C430 N433 1.301 . S
C430 N434 1.328 . S
C430 H435 0.930 . S
C431 C432 1.333 . S
C431 N433 1.317 . S
C431 H436 0.930 . S
C432 C431 1.333 . S
C432 N434 1.350 . S
C432 H458 0.931 . S
N433 Co429 2.148 . S
N433 C430 1.301 . S
N433 C431 1.317 . S
N434 C430 1.328 . S
N434 C432 1.350 . S
H435 C430 0.930 . S
H436 C431 0.930 . S
C437 O438 1.224 . S
C437 O456 1.247 1_565 S
O438 C437 1.224 . S
N439 Co429 2.128 . S
N439 C440 1.355 . S
N439 C442 1.311 . S
C440 N439 1.355 . S
C440 C441 1.363 . S
C440 H452 0.929 . S
C441 C440 1.363 . S
C441 N443 1.375 . S
C441 H459 0.931 . S
C442 N439 1.311 . S
C442 N443 1.347 . S
C442 H453 0.929 . S
N443 C441 1.375 . S
N443 C442 1.347 . S
C444 C447 1.365 . S
C444 N449 1.328 . S
C444 H450 0.929 . S
C445 C446 1.362 1_565 S
C445 C448 1.378 1_565 S
C445 H460 0.929 . S
C446 C445 1.362 1_545 S
C446 C447 1.366 . S
C447 C444 1.365 . S
C447 C446 1.366 . S
C447 H461 0.930 . S
C448 C445 1.378 1_545 S
C448 N449 1.315 . S
C448 H451 0.930 1_545 S
N449 Co429 2.194 . S
N449 C444 1.328 . S
N449 C448 1.315 . S
H450 C444 0.929 . S
H451 C448 0.930 1_565 S
H452 C440 0.929 . S
H453 C442 0.929 . S
O454 Co429 2.351 . S
O454 C457 1.244 . S
O455 Co429 2.155 . S
O455 C457 1.240 . S
O456 Co429 2.096 . S
O456 C437 1.247 1_545 S
C457 O454 1.244 . S
C457 O455 1.240 . S
H458 C432 0.931 . S
H459 C441 0.931 . S
H460 C445 0.929 . S
H461 C447 0.930 . S
Co462 N466 2.148 . S
Co462 N472 2.128 . S
Co462 N482 2.194 . S
Co462 O487 2.351 . S
Co462 O488 2.155 . S
Co462 O489 2.096 . S
C463 N466 1.301 . S
C463 N467 1.328 . S
C463 H468 0.930 . S
C464 C465 1.333 . S
C464 N466 1.317 . S
C464 H469 0.930 . S
C465 C464 1.333 . S
C465 N467 1.350 . S
C465 H491 0.931 . S
N466 Co462 2.148 . S
N466 C463 1.301 . S
N466 C464 1.317 . S
N467 C463 1.328 . S
N467 C465 1.350 . S
H468 C463 0.930 . S
H469 C464 0.930 . S
C470 O471 1.224 . S
C470 O489 1.247 . S
O471 C470 1.224 . S
N472 Co462 2.128 . S
N472 C473 1.355 . S
N472 C475 1.311 . S
C473 N472 1.355 . S
C473 C474 1.363 . S
C473 H485 0.929 . S
C474 C473 1.363 . S
C474 N476 1.375 1_565 S
C474 H492 0.931 . S
C475 N472 1.311 . S
C475 N476 1.347 1_565 S
C475 H486 0.929 . S
N476 C474 1.375 1_545 S
N476 C475 1.347 1_545 S
C477 C480 1.365 . S
C477 N482 1.328 . S
C477 H483 0.929 . S
C478 C479 1.362 . S
C478 C481 1.378 . S
C478 H493 0.929 . S
C479 C478 1.362 . S
C479 C480 1.366 . S
C480 C477 1.365 . S
C480 C479 1.366 . S
C480 H494 0.930 . S
C481 C478 1.378 . S
C481 N482 1.315 . S
C481 H484 0.930 . S
N482 Co462 2.194 . S
N482 C477 1.328 . S
N482 C481 1.315 . S
H483 C477 0.929 . S
H484 C481 0.930 . S
H485 C473 0.929 . S
H486 C475 0.929 . S
O487 Co462 2.351 . S
O487 C490 1.244 . S
O488 Co462 2.155 . S
O488 C490 1.240 . S
O489 Co462 2.096 . S
O489 C470 1.247 . S
C490 O487 1.244 . S
C490 O488 1.240 . S
H491 C465 0.931 . S
H492 C474 0.931 . S
H493 C478 0.929 . S
H494 C480 0.930 . S
Co495 N499 2.148 . S
Co495 N505 2.128 . S
Co495 N515 2.194 . S
Co495 O520 2.351 . S
Co495 O521 2.155 . S
Co495 O522 2.096 . S
C496 N499 1.301 . S
C496 N500 1.328 1_655 S
C496 H501 0.930 . S
C497 C498 1.333 . S
C497 N499 1.317 . S
C497 H502 0.930 . S
C498 C497 1.333 . S
C498 N500 1.350 1_655 S
C498 H524 0.931 . S
N499 Co495 2.148 . S
N499 C496 1.301 . S
N499 C497 1.317 . S
N500 C496 1.328 1_455 S
N500 C498 1.350 1_455 S
H501 C496 0.930 . S
H502 C497 0.930 . S
C503 O504 1.224 . S
C503 O522 1.247 1_545 S
O504 C503 1.224 . S
N505 Co495 2.128 . S
N505 C506 1.355 . S
N505 C508 1.311 . S
C506 N505 1.355 . S
C506 C507 1.363 . S
C506 H518 0.929 . S
C507 C506 1.363 . S
C507 N509 1.375 . S
C507 H525 0.931 1_554 S
C508 N505 1.311 . S
C508 N509 1.347 . S
C508 H519 0.929 . S
N509 C507 1.375 . S
N509 C508 1.347 . S
C510 C513 1.365 . S
C510 N515 1.328 . S
C510 H516 0.929 . S
C511 C512 1.362 1_545 S
C511 C514 1.378 1_545 S
C511 H526 0.929 . S
C512 C511 1.362 1_565 S
C512 C513 1.366 . S
C513 C510 1.365 . S
C513 C512 1.366 . S
C513 H527 0.930 1_655 S
C514 C511 1.378 1_565 S
C514 N515 1.315 . S
C514 H517 0.930 1_565 S
N515 Co495 2.194 . S
N515 C510 1.328 . S
N515 C514 1.315 . S
H516 C510 0.929 . S
H517 C514 0.930 1_545 S
H518 C506 0.929 . S
H519 C508 0.929 . S
O520 Co495 2.351 . S
O520 C523 1.244 . S
O521 Co495 2.155 . S
O521 C523 1.240 . S
O522 Co495 2.096 . S
O522 C503 1.247 1_565 S
C523 O520 1.244 . S
C523 O521 1.240 . S
H524 C498 0.931 . S
H525 C507 0.931 1_556 S
H526 C511 0.929 . S
H527 C513 0.930 1_455 S
Co528 N532 2.148 . S
Co528 N538 2.128 . S
Co528 N548 2.194 . S
Co528 O553 2.351 . S
Co528 O554 2.155 . S
Co528 O555 2.096 . S
C529 N532 1.301 . S
C529 N533 1.328 . S
C529 H534 0.930 . S
C530 C531 1.333 . S
C530 N532 1.317 . S
C530 H535 0.930 . S
C531 C530 1.333 . S
C531 N533 1.350 . S
C531 H557 0.931 . S
N532 Co528 2.148 . S
N532 C529 1.301 . S
N532 C530 1.317 . S
N533 C529 1.328 . S
N533 C531 1.350 . S
H534 C529 0.930 . S
H535 C530 0.930 . S
C536 O537 1.224 . S
C536 O555 1.247 . S
O537 C536 1.224 . S
N538 Co528 2.128 . S
N538 C539 1.355 . S
N538 C541 1.311 . S
C539 N538 1.355 . S
C539 C540 1.363 . S
C539 H551 0.929 . S
C540 C539 1.363 . S
C540 N542 1.375 . S
C540 H558 0.931 . S
C541 N538 1.311 . S
C541 N542 1.347 . S
C541 H552 0.929 . S
N542 C540 1.375 . S
N542 C541 1.347 . S
C543 C546 1.365 . S
C543 N548 1.328 . S
C543 H549 0.929 . S
C544 C545 1.362 . S
C544 C547 1.378 . S
C544 H559 0.929 . S
C545 C544 1.362 . S
C545 C546 1.366 . S
C546 C543 1.365 . S
C546 C545 1.366 . S
C546 H560 0.930 . S
C547 C544 1.378 . S
C547 N548 1.315 . S
C547 H550 0.930 . S
N548 Co528 2.194 . S
N548 C543 1.328 . S
N548 C547 1.315 . S
H549 C543 0.929 . S
H550 C547 0.930 . S
H551 C539 0.929 . S
H552 C541 0.929 . S
O553 Co528 2.351 . S
O553 C556 1.244 . S
O554 Co528 2.155 . S
O554 C556 1.240 . S
O555 Co528 2.096 . S
O555 C536 1.247 . S
C556 O553 1.244 . S
C556 O554 1.240 . S
H557 C531 0.931 . S
H558 C540 0.931 . S
H559 C544 0.929 . S
H560 C546 0.930 . S
Co561 N565 2.148 . S
Co561 N571 2.128 . S
Co561 N581 2.194 . S
Co561 O586 2.351 . S
Co561 O587 2.155 . S
Co561 O588 2.096 . S
C562 N565 1.301 . S
C562 N566 1.328 . S
C562 H567 0.930 . S
C563 C564 1.333 . S
C563 N565 1.317 . S
C563 H568 0.930 . S
C564 C563 1.333 . S
C564 N566 1.350 . S
C564 H590 0.931 . S
N565 Co561 2.148 . S
N565 C562 1.301 . S
N565 C563 1.317 . S
N566 C562 1.328 . S
N566 C564 1.350 . S
H567 C562 0.930 . S
H568 C563 0.930 . S
C569 O570 1.224 . S
C569 O588 1.247 . S
O570 C569 1.224 . S
N571 Co561 2.128 . S
N571 C572 1.355 . S
N571 C574 1.311 . S
C572 N571 1.355 . S
C572 C573 1.363 . S
C572 H584 0.929 . S
C573 C572 1.363 . S
C573 N575 1.375 . S
C573 H591 0.931 1_554 S
C574 N571 1.311 . S
C574 N575 1.347 . S
C574 H585 0.929 . S
N575 C573 1.375 . S
N575 C574 1.347 . S
C576 C579 1.365 . S
C576 N581 1.328 . S
C576 H582 0.929 . S
C577 C578 1.362 . S
C577 C580 1.378 . S
C577 H592 0.929 . S
C578 C577 1.362 . S
C578 C579 1.366 . S
C579 C576 1.365 . S
C579 C578 1.366 . S
C579 H593 0.930 . S
C580 C577 1.378 . S
C580 N581 1.315 . S
C580 H583 0.930 . S
N581 Co561 2.194 . S
N581 C576 1.328 . S
N581 C580 1.315 . S
H582 C576 0.929 . S
H583 C580 0.930 . S
H584 C572 0.929 . S
H585 C574 0.929 . S
O586 Co561 2.351 . S
O586 C589 1.244 . S
O587 Co561 2.155 . S
O587 C589 1.240 . S
O588 Co561 2.096 . S
O588 C569 1.247 . S
C589 O586 1.244 . S
C589 O587 1.240 . S
H590 C564 0.931 . S
H591 C573 0.931 1_556 S
H592 C577 0.929 . S
H593 C579 0.930 . S
Co594 N598 2.148 . S
Co594 N604 2.128 . S
Co594 N614 2.194 . S
Co594 O619 2.351 . S
Co594 O620 2.155 . S
Co594 O621 2.096 . S
C595 N598 1.301 . S
C595 N599 1.328 . S
C595 H600 0.930 . S
C596 C597 1.333 . S
C596 N598 1.317 . S
C596 H601 0.930 . S
C597 C596 1.333 . S
C597 N599 1.350 . S
C597 H623 0.931 . S
N598 Co594 2.148 . S
N598 C595 1.301 . S
N598 C596 1.317 . S
N599 C595 1.328 . S
N599 C597 1.350 . S
H600 C595 0.930 . S
H601 C596 0.930 . S
C602 O603 1.224 . S
C602 O621 1.247 . S
O603 C602 1.224 . S
N604 Co594 2.128 . S
N604 C605 1.355 . S
N604 C607 1.311 . S
C605 N604 1.355 . S
C605 C606 1.363 . S
C605 H617 0.929 . S
C606 C605 1.363 . S
C606 N608 1.375 . S
C606 H624 0.931 . S
C607 N604 1.311 . S
C607 N608 1.347 . S
C607 H618 0.929 . S
N608 C606 1.375 . S
N608 C607 1.347 . S
C609 C612 1.365 . S
C609 N614 1.328 . S
C609 H615 0.929 . S
C610 C611 1.362 . S
C610 C613 1.378 . S
C610 H625 0.929 . S
C611 C610 1.362 . S
C611 C612 1.366 . S
C612 C609 1.365 . S
C612 C611 1.366 . S
C612 H626 0.930 . S
C613 C610 1.378 . S
C613 N614 1.315 . S
C613 H616 0.930 . S
N614 Co594 2.194 . S
N614 C609 1.328 . S
N614 C613 1.315 . S
H615 C609 0.929 . S
H616 C613 0.930 . S
H617 C605 0.929 . S
H618 C607 0.929 . S
O619 Co594 2.351 . S
O619 C622 1.244 . S
O620 Co594 2.155 . S
O620 C622 1.240 . S
O621 Co594 2.096 . S
O621 C602 1.247 . S
C622 O619 1.244 . S
C622 O620 1.240 . S
H623 C597 0.931 . S
H624 C606 0.931 . S
H625 C610 0.929 . S
H626 C612 0.930 . S
Co627 N631 2.148 . S
Co627 N637 2.128 . S
Co627 N647 2.194 . S
Co627 O652 2.351 . S
Co627 O653 2.155 . S
Co627 O654 2.096 . S
C628 N631 1.301 . S
C628 N632 1.328 1_655 S
C628 H633 0.930 . S
C629 C630 1.333 . S
C629 N631 1.317 . S
C629 H634 0.930 . S
C630 C629 1.333 . S
C630 N632 1.350 1_655 S
C630 H656 0.931 . S
N631 Co627 2.148 . S
N631 C628 1.301 . S
N631 C629 1.317 . S
N632 C628 1.328 1_455 S
N632 C630 1.350 1_455 S
H633 C628 0.930 . S
H634 C629 0.930 . S
C635 O636 1.224 . S
C635 O654 1.247 . S
O636 C635 1.224 . S
N637 Co627 2.128 . S
N637 C638 1.355 . S
N637 C640 1.311 . S
C638 N637 1.355 . S
C638 C639 1.363 . S
C638 H650 0.929 . S
C639 C638 1.363 . S
C639 N641 1.375 . S
C639 H657 0.931 . S
C640 N637 1.311 . S
C640 N641 1.347 . S
C640 H651 0.929 . S
N641 C639 1.375 . S
N641 C640 1.347 . S
C642 C645 1.365 . S
C642 N647 1.328 . S
C642 H648 0.929 . S
C643 C644 1.362 . S
C643 C646 1.378 . S
C643 H658 0.929 . S
C644 C643 1.362 . S
C644 C645 1.366 . S
C645 C642 1.365 . S
C645 C644 1.366 . S
C645 H659 0.930 1_655 S
C646 C643 1.378 . S
C646 N647 1.315 . S
C646 H649 0.930 . S
N647 Co627 2.194 . S
N647 C642 1.328 . S
N647 C646 1.315 . S
H648 C642 0.929 . S
H649 C646 0.930 . S
H650 C638 0.929 . S
H651 C640 0.929 . S
O652 Co627 2.351 . S
O652 C655 1.244 . S
O653 Co627 2.155 . S
O653 C655 1.240 . S
O654 Co627 2.096 . S
O654 C635 1.247 . S
C655 O652 1.244 . S
C655 O653 1.240 . S
H656 C630 0.931 . S
H657 C639 0.931 . S
H658 C643 0.929 . S
H659 C645 0.930 1_455 S
Co660 N664 2.148 . S
Co660 N670 2.128 . S
Co660 N680 2.194 . S
Co660 O685 2.351 . S
Co660 O686 2.155 . S
Co660 O687 2.096 . S
C661 N664 1.301 . S
C661 N665 1.328 . S
C661 H666 0.930 . S
C662 C663 1.333 . S
C662 N664 1.317 . S
C662 H667 0.930 . S
C663 C662 1.333 . S
C663 N665 1.350 . S
C663 H689 0.931 . S
N664 Co660 2.148 . S
N664 C661 1.301 . S
N664 C662 1.317 . S
N665 C661 1.328 . S
N665 C663 1.350 . S
H666 C661 0.930 . S
H667 C662 0.930 . S
C668 O669 1.224 . S
C668 O687 1.247 . S
O669 C668 1.224 . S
N670 Co660 2.128 . S
N670 C671 1.355 . S
N670 C673 1.311 . S
C671 N670 1.355 . S
C671 C672 1.363 . S
C671 H683 0.929 . S
C672 C671 1.363 . S
C672 N674 1.375 . S
C672 H690 0.931 . S
C673 N670 1.311 . S
C673 N674 1.347 . S
C673 H684 0.929 . S
N674 C672 1.375 . S
N674 C673 1.347 . S
C675 C678 1.365 . S
C675 N680 1.328 . S
C675 H681 0.929 . S
C676 C677 1.362 . S
C676 C679 1.378 . S
C676 H691 0.929 . S
C677 C676 1.362 . S
C677 C678 1.366 . S
C678 C675 1.365 . S
C678 C677 1.366 . S
C678 H692 0.930 . S
C679 C676 1.378 . S
C679 N680 1.315 . S
C679 H682 0.930 . S
N680 Co660 2.194 . S
N680 C675 1.328 . S
N680 C679 1.315 . S
H681 C675 0.929 . S
H682 C679 0.930 . S
H683 C671 0.929 . S
H684 C673 0.929 . S
O685 Co660 2.351 . S
O685 C688 1.244 . S
O686 Co660 2.155 . S
O686 C688 1.240 . S
O687 Co660 2.096 . S
O687 C668 1.247 . S
C688 O685 1.244 . S
C688 O686 1.240 . S
H689 C663 0.931 . S
H690 C672 0.931 . S
H691 C676 0.929 . S
H692 C678 0.930 . S
Co693 N697 2.148 . S
Co693 N703 2.128 . S
Co693 N713 2.194 . S
Co693 O718 2.351 . S
Co693 O719 2.155 . S
Co693 O720 2.096 . S
C694 N697 1.301 . S
C694 N698 1.328 1_655 S
C694 H699 0.930 . S
C695 C696 1.333 . S
C695 N697 1.317 . S
C695 H700 0.930 . S
C696 C695 1.333 . S
C696 N698 1.350 1_655 S
C696 H722 0.931 . S
N697 Co693 2.148 . S
N697 C694 1.301 . S
N697 C695 1.317 . S
N698 C694 1.328 1_455 S
N698 C696 1.350 1_455 S
H699 C694 0.930 . S
H700 C695 0.930 . S
C701 O702 1.224 . S
C701 O720 1.247 . S
O702 C701 1.224 . S
N703 Co693 2.128 . S
N703 C704 1.355 . S
N703 C706 1.311 . S
C704 N703 1.355 . S
C704 C705 1.363 . S
C704 H716 0.929 . S
C705 C704 1.363 . S
C705 N707 1.375 . S
C705 H723 0.931 1_556 S
C706 N703 1.311 . S
C706 N707 1.347 . S
C706 H717 0.929 . S
N707 C705 1.375 . S
N707 C706 1.347 . S
C708 C711 1.365 . S
C708 N713 1.328 . S
C708 H714 0.929 . S
C709 C710 1.362 . S
C709 C712 1.378 . S
C709 H724 0.929 . S
C710 C709 1.362 . S
C710 C711 1.366 . S
C711 C708 1.365 . S
C711 C710 1.366 . S
C711 H725 0.930 1_655 S
C712 C709 1.378 . S
C712 N713 1.315 . S
C712 H715 0.930 . S
N713 Co693 2.194 . S
N713 C708 1.328 . S
N713 C712 1.315 . S
H714 C708 0.929 . S
H715 C712 0.930 . S
H716 C704 0.929 . S
H717 C706 0.929 . S
O718 Co693 2.351 . S
O718 C721 1.244 . S
O719 Co693 2.155 . S
O719 C721 1.240 . S
O720 Co693 2.096 . S
O720 C701 1.247 . S
C721 O718 1.244 . S
C721 O719 1.240 . S
H722 C696 0.931 . S
H723 C705 0.931 1_554 S
H724 C709 0.929 . S
H725 C711 0.930 1_455 S
Co726 N730 2.148 . S
Co726 N736 2.128 . S
Co726 N746 2.194 . S
Co726 O751 2.351 . S
Co726 O752 2.155 . S
Co726 O753 2.096 . S
C727 N730 1.301 . S
C727 N731 1.328 . S
C727 H732 0.930 . S
C728 C729 1.333 . S
C728 N730 1.317 . S
C728 H733 0.930 . S
C729 C728 1.333 . S
C729 N731 1.350 . S
C729 H755 0.931 . S
N730 Co726 2.148 . S
N730 C727 1.301 . S
N730 C728 1.317 . S
N731 C727 1.328 . S
N731 C729 1.350 . S
H732 C727 0.930 . S
H733 C728 0.930 . S
C734 O735 1.224 . S
C734 O753 1.247 . S
O735 C734 1.224 . S
N736 Co726 2.128 . S
N736 C737 1.355 . S
N736 C739 1.311 . S
C737 N736 1.355 . S
C737 C738 1.363 . S
C737 H749 0.929 . S
C738 C737 1.363 . S
C738 N740 1.375 . S
C738 H756 0.931 . S
C739 N736 1.311 . S
C739 N740 1.347 . S
C739 H750 0.929 . S
N740 C738 1.375 . S
N740 C739 1.347 . S
C741 C744 1.365 . S
C741 N746 1.328 . S
C741 H747 0.929 . S
C742 C743 1.362 . S
C742 C745 1.378 . S
C742 H757 0.929 . S
C743 C742 1.362 . S
C743 C744 1.366 . S
C744 C741 1.365 . S
C744 C743 1.366 . S
C744 H758 0.930 . S
C745 C742 1.378 . S
C745 N746 1.315 . S
C745 H748 0.930 . S
N746 Co726 2.194 . S
N746 C741 1.328 . S
N746 C745 1.315 . S
H747 C741 0.929 . S
H748 C745 0.930 . S
H749 C737 0.929 . S
H750 C739 0.929 . S
O751 Co726 2.351 . S
O751 C754 1.244 . S
O752 Co726 2.155 . S
O752 C754 1.240 . S
O753 Co726 2.096 . S
O753 C734 1.247 . S
C754 O751 1.244 . S
C754 O752 1.240 . S
H755 C729 0.931 . S
H756 C738 0.931 . S
H757 C742 0.929 . S
H758 C744 0.930 . S
Co759 N763 2.148 . S
Co759 N769 2.128 . S
Co759 N779 2.194 . S
Co759 O784 2.351 . S
Co759 O785 2.155 . S
Co759 O786 2.096 . S
C760 N763 1.301 . S
C760 N764 1.328 . S
C760 H765 0.930 . S
C761 C762 1.333 . S
C761 N763 1.317 . S
C761 H766 0.930 . S
C762 C761 1.333 . S
C762 N764 1.350 . S
C762 H788 0.931 . S
N763 Co759 2.148 . S
N763 C760 1.301 . S
N763 C761 1.317 . S
N764 C760 1.328 . S
N764 C762 1.350 . S
H765 C760 0.930 . S
H766 C761 0.930 . S
C767 O768 1.224 . S
C767 O786 1.247 . S
O768 C767 1.224 . S
N769 Co759 2.128 . S
N769 C770 1.355 . S
N769 C772 1.311 . S
C770 N769 1.355 . S
C770 C771 1.363 . S
C770 H782 0.929 . S
C771 C770 1.363 . S
C771 N773 1.375 . S
C771 H789 0.931 . S
C772 N769 1.311 . S
C772 N773 1.347 . S
C772 H783 0.929 . S
N773 C771 1.375 . S
N773 C772 1.347 . S
C774 C777 1.365 . S
C774 N779 1.328 . S
C774 H780 0.929 . S
C775 C776 1.362 . S
C775 C778 1.378 . S
C775 H790 0.929 . S
C776 C775 1.362 . S
C776 C777 1.366 . S
C777 C774 1.365 . S
C777 C776 1.366 . S
C777 H791 0.930 . S
C778 C775 1.378 . S
C778 N779 1.315 . S
C778 H781 0.930 . S
N779 Co759 2.194 . S
N779 C774 1.328 . S
N779 C778 1.315 . S
H780 C774 0.929 . S
H781 C778 0.930 . S
H782 C770 0.929 . S
H783 C772 0.929 . S
O784 Co759 2.351 . S
O784 C787 1.244 . S
O785 Co759 2.155 . S
O785 C787 1.240 . S
O786 Co759 2.096 . S
O786 C767 1.247 . S
C787 O784 1.244 . S
C787 O785 1.240 . S
H788 C762 0.931 . S
H789 C771 0.931 . S
H790 C775 0.929 . S
H791 C777 0.930 . S
Co792 N796 2.148 . S
Co792 N802 2.128 . S
Co792 N812 2.194 . S
Co792 O817 2.351 . S
Co792 O818 2.155 . S
Co792 O819 2.096 . S
C793 N796 1.301 . S
C793 N797 1.328 . S
C793 H798 0.930 . S
C794 C795 1.333 . S
C794 N796 1.317 . S
C794 H799 0.930 . S
C795 C794 1.333 . S
C795 N797 1.350 . S
C795 H821 0.931 . S
N796 Co792 2.148 . S
N796 C793 1.301 . S
N796 C794 1.317 . S
N797 C793 1.328 . S
N797 C795 1.350 . S
H798 C793 0.930 . S
H799 C794 0.930 . S
C800 O801 1.224 . S
C800 O819 1.247 . S
O801 C800 1.224 . S
N802 Co792 2.128 . S
N802 C803 1.355 . S
N802 C805 1.311 . S
C803 N802 1.355 . S
C803 C804 1.363 . S
C803 H815 0.929 . S
C804 C803 1.363 . S
C804 N806 1.375 . S
C804 H822 0.931 . S
C805 N802 1.311 . S
C805 N806 1.347 . S
C805 H816 0.929 . S
N806 C804 1.375 . S
N806 C805 1.347 . S
C807 C810 1.365 . S
C807 N812 1.328 . S
C807 H813 0.929 . S
C808 C809 1.362 . S
C808 C811 1.378 . S
C808 H823 0.929 . S
C809 C808 1.362 . S
C809 C810 1.366 . S
C810 C807 1.365 . S
C810 C809 1.366 . S
C810 H824 0.930 . S
C811 C808 1.378 . S
C811 N812 1.315 . S
C811 H814 0.930 . S
N812 Co792 2.194 . S
N812 C807 1.328 . S
N812 C811 1.315 . S
H813 C807 0.929 . S
H814 C811 0.930 . S
H815 C803 0.929 . S
H816 C805 0.929 . S
O817 Co792 2.351 . S
O817 C820 1.244 . S
O818 Co792 2.155 . S
O818 C820 1.240 . S
O819 Co792 2.096 . S
O819 C800 1.247 . S
C820 O817 1.244 . S
C820 O818 1.240 . S
H821 C795 0.931 . S
H822 C804 0.931 . S
H823 C808 0.929 . S
H824 C810 0.930 . S
Co825 N829 2.148 . S
Co825 N835 2.128 . S
Co825 N845 2.194 . S
Co825 O850 2.351 . S
Co825 O851 2.155 . S
Co825 O852 2.096 . S
C826 N829 1.301 . S
C826 N830 1.328 . S
C826 H831 0.930 . S
C827 C828 1.333 . S
C827 N829 1.317 . S
C827 H832 0.930 . S
C828 C827 1.333 . S
C828 N830 1.350 . S
C828 H854 0.931 . S
N829 Co825 2.148 . S
N829 C826 1.301 . S
N829 C827 1.317 . S
N830 C826 1.328 . S
N830 C828 1.350 . S
H831 C826 0.930 . S
H832 C827 0.930 . S
C833 O834 1.224 . S
C833 O852 1.247 . S
O834 C833 1.224 . S
N835 Co825 2.128 . S
N835 C836 1.355 . S
N835 C838 1.311 . S
C836 N835 1.355 . S
C836 C837 1.363 . S
C836 H848 0.929 . S
C837 C836 1.363 . S
C837 N839 1.375 . S
C837 H855 0.931 1_556 S
C838 N835 1.311 . S
C838 N839 1.347 . S
C838 H849 0.929 . S
N839 C837 1.375 . S
N839 C838 1.347 . S
C840 C843 1.365 . S
C840 N845 1.328 . S
C840 H846 0.929 . S
C841 C842 1.362 . S
C841 C844 1.378 . S
C841 H856 0.929 . S
C842 C841 1.362 . S
C842 C843 1.366 . S
C843 C840 1.365 . S
C843 C842 1.366 . S
C843 H857 0.930 . S
C844 C841 1.378 . S
C844 N845 1.315 . S
C844 H847 0.930 . S
N845 Co825 2.194 . S
N845 C840 1.328 . S
N845 C844 1.315 . S
H846 C840 0.929 . S
H847 C844 0.930 . S
H848 C836 0.929 . S
H849 C838 0.929 . S
O850 Co825 2.351 . S
O850 C853 1.244 . S
O851 Co825 2.155 . S
O851 C853 1.240 . S
O852 Co825 2.096 . S
O852 C833 1.247 . S
C853 O850 1.244 . S
C853 O851 1.240 . S
H854 C828 0.931 . S
H855 C837 0.931 1_554 S
H856 C841 0.929 . S
H857 C843 0.930 . S
Co858 N862 2.148 . S
Co858 N868 2.128 . S
Co858 N878 2.194 . S
Co858 O883 2.351 . S
Co858 O884 2.155 . S
Co858 O885 2.096 . S
C859 N862 1.301 . S
C859 N863 1.328 . S
C859 H864 0.930 . S
C860 C861 1.333 . S
C860 N862 1.317 . S
C860 H865 0.930 . S
C861 C860 1.333 . S
C861 N863 1.350 . S
C861 H887 0.931 . S
N862 Co858 2.148 . S
N862 C859 1.301 . S
N862 C860 1.317 . S
N863 C859 1.328 . S
N863 C861 1.350 . S
H864 C859 0.930 . S
H865 C860 0.930 . S
C866 O867 1.224 . S
C866 O885 1.247 . S
O867 C866 1.224 . S
N868 Co858 2.128 . S
N868 C869 1.355 . S
N868 C871 1.311 . S
C869 N868 1.355 . S
C869 C870 1.363 . S
C869 H881 0.929 . S
C870 C869 1.363 . S
C870 N872 1.375 . S
C870 H888 0.931 . S
C871 N868 1.311 . S
C871 N872 1.347 . S
C871 H882 0.929 . S
N872 C870 1.375 . S
N872 C871 1.347 . S
C873 C876 1.365 . S
C873 N878 1.328 . S
C873 H879 0.929 . S
C874 C875 1.362 . S
C874 C877 1.378 . S
C874 H889 0.929 . S
C875 C874 1.362 . S
C875 C876 1.366 . S
C876 C873 1.365 . S
C876 C875 1.366 . S
C876 H890 0.930 . S
C877 C874 1.378 . S
C877 N878 1.315 . S
C877 H880 0.930 . S
N878 Co858 2.194 . S
N878 C873 1.328 . S
N878 C877 1.315 . S
H879 C873 0.929 . S
H880 C877 0.930 . S
H881 C869 0.929 . S
H882 C871 0.929 . S
O883 Co858 2.351 . S
O883 C886 1.244 . S
O884 Co858 2.155 . S
O884 C886 1.240 . S
O885 Co858 2.096 . S
O885 C866 1.247 . S
C886 O883 1.244 . S
C886 O884 1.240 . S
H887 C861 0.931 . S
H888 C870 0.931 . S
H889 C874 0.929 . S
H890 C876 0.930 . S
Co891 N895 2.148 . S
Co891 N901 2.128 . S
Co891 N911 2.194 . S
Co891 O916 2.351 . S
Co891 O917 2.155 . S
Co891 O918 2.096 . S
C892 N895 1.301 . S
C892 N896 1.328 1_455 S
C892 H897 0.930 . S
C893 C894 1.333 . S
C893 N895 1.317 . S
C893 H898 0.930 . S
C894 C893 1.333 . S
C894 N896 1.350 1_455 S
C894 H920 0.931 . S
N895 Co891 2.148 . S
N895 C892 1.301 . S
N895 C893 1.317 . S
N896 C892 1.328 1_655 S
N896 C894 1.350 1_655 S
H897 C892 0.930 . S
H898 C893 0.930 . S
C899 O900 1.224 . S
C899 O918 1.247 . S
O900 C899 1.224 . S
N901 Co891 2.128 . S
N901 C902 1.355 . S
N901 C904 1.311 . S
C902 N901 1.355 . S
C902 C903 1.363 . S
C902 H914 0.929 . S
C903 C902 1.363 . S
C903 N905 1.375 . S
C903 H921 0.931 . S
C904 N901 1.311 . S
C904 N905 1.347 . S
C904 H915 0.929 . S
N905 C903 1.375 . S
N905 C904 1.347 . S
C906 C909 1.365 . S
C906 N911 1.328 . S
C906 H912 0.929 . S
C907 C908 1.362 . S
C907 C910 1.378 . S
C907 H922 0.929 . S
C908 C907 1.362 . S
C908 C909 1.366 . S
C909 C906 1.365 . S
C909 C908 1.366 . S
C909 H923 0.930 1_455 S
C910 C907 1.378 . S
C910 N911 1.315 . S
C910 H913 0.930 . S
N911 Co891 2.194 . S
N911 C906 1.328 . S
N911 C910 1.315 . S
H912 C906 0.929 . S
H913 C910 0.930 . S
H914 C902 0.929 . S
H915 C904 0.929 . S
O916 Co891 2.351 . S
O916 C919 1.244 . S
O917 Co891 2.155 . S
O917 C919 1.240 . S
O918 Co891 2.096 . S
O918 C899 1.247 . S
C919 O916 1.244 . S
C919 O917 1.240 . S
H920 C894 0.931 . S
H921 C903 0.931 . S
H922 C907 0.929 . S
H923 C909 0.930 1_655 S
Co924 N928 2.148 . S
Co924 N934 2.128 . S
Co924 N944 2.194 . S
Co924 O949 2.351 . S
Co924 O950 2.155 . S
Co924 O951 2.096 . S
C925 N928 1.301 . S
C925 N929 1.328 . S
C925 H930 0.930 . S
C926 C927 1.333 . S
C926 N928 1.317 . S
C926 H931 0.930 . S
C927 C926 1.333 . S
C927 N929 1.350 . S
C927 H953 0.931 . S
N928 Co924 2.148 . S
N928 C925 1.301 . S
N928 C926 1.317 . S
N929 C925 1.328 . S
N929 C927 1.350 . S
H930 C925 0.930 . S
H931 C926 0.930 . S
C932 O933 1.224 . S
C932 O951 1.247 . S
O933 C932 1.224 . S
N934 Co924 2.128 . S
N934 C935 1.355 . S
N934 C937 1.311 . S
C935 N934 1.355 . S
C935 C936 1.363 . S
C935 H947 0.929 . S
C936 C935 1.363 . S
C936 N938 1.375 . S
C936 H954 0.931 . S
C937 N934 1.311 . S
C937 N938 1.347 . S
C937 H948 0.929 . S
N938 C936 1.375 . S
N938 C937 1.347 . S
C939 C942 1.365 . S
C939 N944 1.328 . S
C939 H945 0.929 . S
C940 C941 1.362 . S
C940 C943 1.378 . S
C940 H955 0.929 . S
C941 C940 1.362 . S
C941 C942 1.366 . S
C942 C939 1.365 . S
C942 C941 1.366 . S
C942 H956 0.930 . S
C943 C940 1.378 . S
C943 N944 1.315 . S
C943 H946 0.930 . S
N944 Co924 2.194 . S
N944 C939 1.328 . S
N944 C943 1.315 . S
H945 C939 0.929 . S
H946 C943 0.930 . S
H947 C935 0.929 . S
H948 C937 0.929 . S
O949 Co924 2.351 . S
O949 C952 1.244 . S
O950 Co924 2.155 . S
O950 C952 1.240 . S
O951 Co924 2.096 . S
O951 C932 1.247 . S
C952 O949 1.244 . S
C952 O950 1.240 . S
H953 C927 0.931 . S
H954 C936 0.931 . S
H955 C940 0.929 . S
H956 C942 0.930 . S
Co957 N961 2.148 . S
Co957 N967 2.128 . S
Co957 N977 2.194 . S
Co957 O982 2.351 . S
Co957 O983 2.155 . S
Co957 O984 2.096 . S
C958 N961 1.301 . S
C958 N962 1.328 1_455 S
C958 H963 0.930 . S
C959 C960 1.333 . S
C959 N961 1.317 . S
C959 H964 0.930 . S
C960 C959 1.333 . S
C960 N962 1.350 1_455 S
C960 H986 0.931 . S
N961 Co957 2.148 . S
N961 C958 1.301 . S
N961 C959 1.317 . S
N962 C958 1.328 1_655 S
N962 C960 1.350 1_655 S
H963 C958 0.930 . S
H964 C959 0.930 . S
C965 O966 1.224 . S
C965 O984 1.247 . S
O966 C965 1.224 . S
N967 Co957 2.128 . S
N967 C968 1.355 . S
N967 C970 1.311 . S
C968 N967 1.355 . S
C968 C969 1.363 . S
C968 H980 0.929 . S
C969 C968 1.363 . S
C969 N971 1.375 . S
C969 H987 0.931 1_554 S
C970 N967 1.311 . S
C970 N971 1.347 . S
C970 H981 0.929 . S
N971 C969 1.375 . S
N971 C970 1.347 . S
C972 C975 1.365 . S
C972 N977 1.328 . S
C972 H978 0.929 . S
C973 C974 1.362 . S
C973 C976 1.378 . S
C973 H988 0.929 . S
C974 C973 1.362 . S
C974 C975 1.366 . S
C975 C972 1.365 . S
C975 C974 1.366 . S
C975 H989 0.930 1_455 S
C976 C973 1.378 . S
C976 N977 1.315 . S
C976 H979 0.930 . S
N977 Co957 2.194 . S
N977 C972 1.328 . S
N977 C976 1.315 . S
H978 C972 0.929 . S
H979 C976 0.930 . S
H980 C968 0.929 . S
H981 C970 0.929 . S
O982 Co957 2.351 . S
O982 C985 1.244 . S
O983 Co957 2.155 . S
O983 C985 1.240 . S
O984 Co957 2.096 . S
O984 C965 1.247 . S
C985 O982 1.244 . S
C985 O983 1.240 . S
H986 C960 0.931 . S
H987 C969 0.931 1_556 S
H988 C973 0.929 . S
H989 C975 0.930 1_655 S
Co990 N994 2.148 . S
Co990 N1000 2.128 . S
Co990 N1010 2.194 . S
Co990 O1015 2.351 . S
Co990 O1016 2.155 . S
Co990 O1017 2.096 . S
C991 N994 1.301 . S
C991 N995 1.328 . S
C991 H996 0.930 . S
C992 C993 1.333 . S
C992 N994 1.317 . S
C992 H997 0.930 . S
C993 C992 1.333 . S
C993 N995 1.350 . S
C993 H1019 0.931 . S
N994 Co990 2.148 . S
N994 C991 1.301 . S
N994 C992 1.317 . S
N995 C991 1.328 . S
N995 C993 1.350 . S
H996 C991 0.930 . S
H997 C992 0.930 . S
C998 O999 1.224 . S
C998 O1017 1.247 . S
O999 C998 1.224 . S
N1000 Co990 2.128 . S
N1000 C1001 1.355 . S
N1000 C1003 1.311 . S
C1001 N1000 1.355 . S
C1001 C1002 1.363 . S
C1001 H1013 0.929 . S
C1002 C1001 1.363 . S
C1002 N1004 1.375 . S
C1002 H1020 0.931 . S
C1003 N1000 1.311 . S
C1003 N1004 1.347 . S
C1003 H1014 0.929 . S
N1004 C1002 1.375 . S
N1004 C1003 1.347 . S
C1005 C1008 1.365 . S
C1005 N1010 1.328 . S
C1005 H1011 0.929 . S
C1006 C1007 1.362 . S
C1006 C1009 1.378 . S
C1006 H1021 0.929 . S
C1007 C1006 1.362 . S
C1007 C1008 1.366 . S
C1008 C1005 1.365 . S
C1008 C1007 1.366 . S
C1008 H1022 0.930 . S
C1009 C1006 1.378 . S
C1009 N1010 1.315 . S
C1009 H1012 0.930 . S
N1010 Co990 2.194 . S
N1010 C1005 1.328 . S
N1010 C1009 1.315 . S
H1011 C1005 0.929 . S
H1012 C1009 0.930 . S
H1013 C1001 0.929 . S
H1014 C1003 0.929 . S
O1015 Co990 2.351 . S
O1015 C1018 1.244 . S
O1016 Co990 2.155 . S
O1016 C1018 1.240 . S
O1017 Co990 2.096 . S
O1017 C998 1.247 . S
C1018 O1015 1.244 . S
C1018 O1016 1.240 . S
H1019 C993 0.931 . S
H1020 C1002 0.931 . S
H1021 C1006 0.929 . S
H1022 C1008 0.930 . S
Co1023 N1027 2.148 . S
Co1023 N1033 2.128 . S
Co1023 N1043 2.194 . S
Co1023 O1048 2.351 . S
Co1023 O1049 2.155 . S
Co1023 O1050 2.096 . S
C1024 N1027 1.301 . S
C1024 N1028 1.328 . S
C1024 H1029 0.930 . S
C1025 C1026 1.333 . S
C1025 N1027 1.317 . S
C1025 H1030 0.930 . S
C1026 C1025 1.333 . S
C1026 N1028 1.350 . S
C1026 H1052 0.931 . S
N1027 Co1023 2.148 . S
N1027 C1024 1.301 . S
N1027 C1025 1.317 . S
N1028 C1024 1.328 . S
N1028 C1026 1.350 . S
H1029 C1024 0.930 . S
H1030 C1025 0.930 . S
C1031 O1032 1.224 . S
C1031 O1050 1.247 . S
O1032 C1031 1.224 . S
N1033 Co1023 2.128 . S
N1033 C1034 1.355 . S
N1033 C1036 1.311 . S
C1034 N1033 1.355 . S
C1034 C1035 1.363 . S
C1034 H1046 0.929 . S
C1035 C1034 1.363 . S
C1035 N1037 1.375 . S
C1035 H1053 0.931 . S
C1036 N1033 1.311 . S
C1036 N1037 1.347 . S
C1036 H1047 0.929 . S
N1037 C1035 1.375 . S
N1037 C1036 1.347 . S
C1038 C1041 1.365 . S
C1038 N1043 1.328 . S
C1038 H1044 0.929 . S
C1039 C1040 1.362 . S
C1039 C1042 1.378 . S
C1039 H1054 0.929 . S
C1040 C1039 1.362 . S
C1040 C1041 1.366 . S
C1041 C1038 1.365 . S
C1041 C1040 1.366 . S
C1041 H1055 0.930 . S
C1042 C1039 1.378 . S
C1042 N1043 1.315 . S
C1042 H1045 0.930 . S
N1043 Co1023 2.194 . S
N1043 C1038 1.328 . S
N1043 C1042 1.315 . S
H1044 C1038 0.929 . S
H1045 C1042 0.930 . S
H1046 C1034 0.929 . S
H1047 C1036 0.929 . S
O1048 Co1023 2.351 . S
O1048 C1051 1.244 . S
O1049 Co1023 2.155 . S
O1049 C1051 1.240 . S
O1050 Co1023 2.096 . S
O1050 C1031 1.247 . S
C1051 O1048 1.244 . S
C1051 O1049 1.240 . S
H1052 C1026 0.931 . S
H1053 C1035 0.931 . S
H1054 C1039 0.929 . S
H1055 C1041 0.930 . S
N5 C919 2.133 . S
N38 C292 2.133 . S
C853 N71 2.133 . S
C358 N104 2.133 . S
C985 N137 2.133 . S
N170 C490 2.133 . S
N203 C1051 2.133 . S
C424 N236 2.133 . S
N269 C655 2.133 . S
N302 C28 2.133 . S
N335 C589 2.133 . S
C94 N368 2.133 . S
N401 C721 2.133 . S
N434 C226 2.133 . S
C787 N467 2.133 . S
N500 C160 2.133 . S
N533 C391 2.133 . S
C820 N566 2.133 . S
C325 N599 2.133 . S
N632 C886 2.133 . S
N665 C457 2.133 . S
C1018 N698 2.133 . S
N731 C523 2.133 . S
C952 N764 2.133 . S
N797 C127 2.133 . S
C556 N830 2.133 . S
N863 C61 2.133 . S
C622 N896 2.133 . S
N929 C193 2.133 . S
C754 N962 2.133 . S
C259 N995 2.133 . S
N1028 C688 2.133 . S
N14 N146 2.037 1_565 S
N47 N179 2.037 . S
N212 N80 2.037 1_565 S
N113 N245 2.037 1_554 S
N278 N410 2.037 1_545 S
N311 N443 2.037 . S
N344 N476 2.037 1_565 S
N377 N509 2.037 1_556 S
N542 N674 2.037 . S
N707 N575 2.037 1_556 S
N740 N608 2.037 . S
N773 N641 2.037 . S
N938 N806 2.037 . S
N839 N971 2.037 1_556 S
N872 N1004 2.037 . S
N1037 N905 2.037 . S
C173 C8 2.327 . S
C206 C41 2.327 . S
C239 C74 2.327 . S
C140 C107 2.327 . S
C437 C272 2.327 . S
C470 C305 2.327 . S
C338 C503 2.327 . S
C371 C404 2.327 . S
C701 C536 2.327 . S
C569 C734 2.327 . S
C767 C602 2.327 . S
C635 C668 2.327 . S
C965 C800 2.327 . S
C833 C998 2.327 . S
C866 C1031 2.327 . S
C932 C899 2.327 . S
C809 C17 1.186 . S
C50 C314 1.186 1_465 S
C83 C875 1.186 . S
C116 C380 1.186 1_544 S
C149 C941 1.186 . S
C446 C182 1.186 1_545 S
C1007 C215 1.186 . S
C512 C248 1.186 1_664 S
C281 C545 1.186 . S
C611 C347 1.186 . S
C413 C677 1.186 . S
C479 C743 1.186 . S
C842 C578 1.186 1_556 S
C908 C644 1.186 1_455 S
C974 C710 1.186 1_454 S
C776 C1040 1.186 . S
