# Generated by pormake.
# Topology ske, (6)-cn, num edge types: 1
# Building blocks:
#     Node 0, Type 0, BuildingBlock: KUMJIN_clean_sbu_0, # of connection points: 6
#     Node 1, Type 0, BuildingBlock: KUMJIN_clean_sbu_0, # of connection points: 6
#     Node 2, Type 0, BuildingBlock: KUMJIN_clean_sbu_0, # of connection points: 6
#     Node 3, Type 0, BuildingBlock: KUMJIN_clean_sbu_0, # of connection points: 6
#     Node 4, Type 0, BuildingBlock: KUMJIN_clean_sbu_0, # of connection points: 6
#     Node 5, Type 0, BuildingBlock: KUMJIN_clean_sbu_0, # of connection points: 6
#     Node 6, Type 0, BuildingBlock: KUMJIN_clean_sbu_0, # of connection points: 6
#     Node 7, Type 0, BuildingBlock: KUMJIN_clean_sbu_0, # of connection points: 6
#     Edge 8, Type (0, 0), BuildingBlock: XUDNAN_clean_linker_2, # of connection points: 2
#     Edge 9, Type (0, 0), BuildingBlock: XUDNAN_clean_linker_2, # of connection points: 2
#     Edge 10, Type (0, 0), BuildingBlock: XUDNAN_clean_linker_2, # of connection points: 2
#     Edge 11, Type (0, 0), BuildingBlock: XUDNAN_clean_linker_2, # of connection points: 2
#     Edge 12, Type (0, 0), BuildingBlock: XUDNAN_clean_linker_2, # of connection points: 2
#     Edge 13, Type (0, 0), BuildingBlock: XUDNAN_clean_linker_2, # of connection points: 2
#     Edge 14, Type (0, 0), BuildingBlock: XUDNAN_clean_linker_2, # of connection points: 2
#     Edge 15, Type (0, 0), BuildingBlock: XUDNAN_clean_linker_2, # of connection points: 2
#     Edge 16, Type (0, 0), BuildingBlock: XUDNAN_clean_linker_2, # of connection points: 2
#     Edge 17, Type (0, 0), BuildingBlock: XUDNAN_clean_linker_2, # of connection points: 2
#     Edge 18, Type (0, 0), BuildingBlock: XUDNAN_clean_linker_2, # of connection points: 2
#     Edge 19, Type (0, 0), BuildingBlock: XUDNAN_clean_linker_2, # of connection points: 2
#     Edge 20, Type (0, 0), BuildingBlock: XUDNAN_clean_linker_2, # of connection points: 2
#     Edge 21, Type (0, 0), BuildingBlock: XUDNAN_clean_linker_2, # of connection points: 2
#     Edge 22, Type (0, 0), BuildingBlock: XUDNAN_clean_linker_2, # of connection points: 2
#     Edge 23, Type (0, 0), BuildingBlock: XUDNAN_clean_linker_2, # of connection points: 2
#     Edge 24, Type (0, 0), BuildingBlock: XUDNAN_clean_linker_2, # of connection points: 2
#     Edge 25, Type (0, 0), BuildingBlock: XUDNAN_clean_linker_2, # of connection points: 2
#     Edge 26, Type (0, 0), BuildingBlock: XUDNAN_clean_linker_2, # of connection points: 2
#     Edge 27, Type (0, 0), BuildingBlock: XUDNAN_clean_linker_2, # of connection points: 2
#     Edge 28, Type (0, 0), BuildingBlock: XUDNAN_clean_linker_2, # of connection points: 2
#     Edge 29, Type (0, 0), BuildingBlock: XUDNAN_clean_linker_2, # of connection points: 2
#     Edge 30, Type (0, 0), BuildingBlock: XUDNAN_clean_linker_2, # of connection points: 2
#     Edge 31, Type (0, 0), BuildingBlock: XUDNAN_clean_linker_2, # of connection points: 2
# Relax obj value: 0.199
# Max RMSD: 0.282
# Mean RMSD: 0.221
data_MOF--net-ske--node1-KUMJIN_clean_sbu_0--edge1-XUDNAN_clean_linker_2
_symmetry_space_group_name_H-M    P1
_symmetry_Int_Tables_number       1
_symmetry_cell_setting            triclinic
loop_
_symmetry_equiv_pos_as_xyz
'x, y, z'
_cell_length_a     99.078052
_cell_length_b     30.395227
_cell_length_c     14.754018
_cell_angle_alpha  100.42281
_cell_angle_beta   90.146766
_cell_angle_gamma 102.4328
loop_
_atom_site_label
_atom_site_type_symbol
_atom_site_fract_x
_atom_site_fract_y
_atom_site_fract_z
_atom_type_partial_charge
Eu0 Eu 0.11288 0.22914 0.56983 0.0
C1 C 0.16455 0.36179 0.4819 0.0
C2 C 0.169 0.33143 0.32421 0.0
C3 C 0.17578 0.41339 0.38295 0.0
C4 C 0.16339 0.32488 0.40983 0.0
C5 C 0.17119 0.40621 0.47015 0.0
C6 C 0.17473 0.37601 0.31013 0.0
C7 C 0.17022 0.43177 0.63446 0.0
N8 N 0.16047 0.3534 0.56613 0.0
C9 C 0.16373 0.38716 0.64283 0.0
C10 C 0.17374 0.44154 0.54752 0.0
Eu11 Eu 0.14966 0.2767 0.57506 0.0
N12 N 0.1582 0.28213 0.42661 0.0
C13 C 0.15937 0.24444 0.36343 0.0
C14 C 0.16942 0.29283 0.25716 0.0
C15 C 0.16474 0.24916 0.27732 0.0
H16 H 0.16097 0.37975 0.71014 0.0
H17 H 0.16532 0.21909 0.22675 0.0
H18 H 0.17888 0.38174 0.24434 0.0
H19 H 0.17251 0.45859 0.69507 0.0
H20 H 0.15591 0.21045 0.37828 0.0
H21 H 0.10792 0.37331 0.8453 0.0
H22 H 0.17381 0.29636 0.19103 0.0
H23 H 0.10113 0.11613 0.56361 0.0
H24 H 0.11355 0.33789 0.6934 0.0
H25 H 0.09136 0.06393 0.66836 0.0
H26 H 0.18073 0.44737 0.37224 0.0
H27 H 0.09838 0.32549 0.95839 0.0
H28 H 0.09077 0.24777 0.99748 0.0
H29 H 0.17887 0.4761 0.5414 0.0
H30 H 0.08674 0.16415 0.95101 0.0
N31 N 0.10753 0.26902 0.71593 0.0
C32 C 0.10947 0.31569 0.73987 0.0
C33 C 0.10085 0.30928 0.89074 0.0
C34 C 0.09869 0.26165 0.86635 0.0
C35 C 0.10624 0.33635 0.82714 0.0
C36 C 0.10207 0.2421 0.77716 0.0
H37 H 0.08693 0.09554 0.82923 0.0
N38 N 0.10329 0.17657 0.66575 0.0
C39 C 0.0939 0.10061 0.69324 0.0
C40 C 0.09997 0.19478 0.75152 0.0
C41 C 0.0996 0.13029 0.63451 0.0
C42 C 0.09138 0.11858 0.78374 0.0
C43 C 0.09416 0.16614 0.81348 0.0
O44 O 0.09658 0.18538 0.47491 0.0
O45 O 0.13023 0.25587 0.47939 0.0
O46 O 0.13949 0.3361 0.56652 0.0
O47 O 0.11604 0.30179 0.53953 0.0
O48 O 0.1164 0.1956 0.42369 0.0
O49 O 0.09248 0.24642 0.55981 0.0
O50 O 0.16725 0.29285 0.67528 0.0
O51 O 0.13249 0.24435 0.65911 0.0
O52 O 0.12365 0.17092 0.57575 0.0
O53 O 0.14535 0.19941 0.52446 0.0
O54 O 0.14631 0.3002 0.72905 0.0
O55 O 0.16648 0.2397 0.55638 0.0
C56 C 0.12687 0.22571 0.40513 0.0
C57 C 0.07322 0.18258 0.5159 0.0
C58 C 0.04816 0.17643 0.52708 0.0
C59 C 0.0616 0.20296 0.51982 0.0
C60 C 0.04666 0.13029 0.53569 0.0
C61 C 0.07109 0.13557 0.51866 0.0
C62 C 0.05801 0.11009 0.53097 0.0
C63 C 0.12662 0.33757 0.54662 0.0
C64 C 0.08727 0.20901 0.50079 0.0
C65 C 0.09106 0.18564 0.90242 0.0
C66 C 0.09333 0.23324 0.92878 0.0
C67 C 0.13566 0.26898 0.73931 0.0
C68 C 0.18871 0.28138 0.61581 0.0
C69 C 0.19894 0.26403 0.65597 0.0
C70 C 0.21316 0.28086 0.64318 0.0
C71 C 0.21687 0.31496 0.58917 0.0
C72 C 0.19283 0.31534 0.56261 0.0
C73 C 0.20677 0.332 0.54946 0.0
C74 C 0.13573 0.1653 0.54379 0.0
C75 C 0.17382 0.26396 0.62878 0.0
H76 H 0.06296 0.23858 0.51335 0.0
H77 H 0.03658 0.10935 0.54436 0.0
H78 H 0.07943 0.11781 0.50902 0.0
H79 H 0.05662 0.07415 0.53464 0.0
H80 H 0.19582 0.23792 0.69759 0.0
H81 H 0.2276 0.32801 0.57603 0.0
H82 H 0.18529 0.32894 0.53079 0.0
H83 H 0.20977 0.3581 0.50775 0.0
Eu84 Eu 0.86018 0.26088 0.55305 0.0
C85 C 0.90686 0.27189 0.7703 0.0
C86 C 0.91807 0.35088 0.83122 0.0
C87 C 0.91567 0.29433 0.9302 0.0
C88 C 0.91107 0.31682 0.75804 0.0
C89 C 0.90964 0.26 0.85573 0.0
C90 C 0.91982 0.33975 0.91809 0.0
C91 C 0.90143 0.18058 0.78607 0.0
N92 N 0.90078 0.23937 0.69753 0.0
C93 C 0.89864 0.194 0.70352 0.0
C94 C 0.9067 0.21376 0.86313 0.0
Eu95 Eu 0.89669 0.26505 0.55838 0.0
N96 N 0.90963 0.32629 0.67245 0.0
C97 C 0.91697 0.36707 0.65306 0.0
C98 C 0.9239 0.39447 0.81361 0.0
C99 C 0.92369 0.40217 0.72347 0.0
H100 H 0.89497 0.16743 0.64518 0.0
H101 H 0.92894 0.43485 0.7078 0.0
H102 H 0.92496 0.36564 0.97523 0.0
H103 H 0.89949 0.14457 0.7901 0.0
H104 H 0.91759 0.37295 0.58289 0.0
H105 H 0.84776 0.1282 0.24258 0.0
H106 H 0.92932 0.42147 0.86791 0.0
H107 H 0.84695 0.35603 0.59971 0.0
H108 H 0.85513 0.16 0.40439 0.0
H109 H 0.83731 0.40625 0.51538 0.0
H110 H 0.91759 0.28586 0.99663 0.0
H111 H 0.84145 0.17804 0.14183 0.0
H112 H 0.83768 0.25513 0.12501 0.0
H113 H 0.90876 0.20328 0.92726 0.0
H114 H 0.8354 0.33221 0.19926 0.0
N115 N 0.85353 0.22792 0.39645 0.0
C116 C 0.85264 0.18251 0.36168 0.0
C117 C 0.84474 0.19232 0.21314 0.0
C118 C 0.84507 0.2383 0.25003 0.0
C119 C 0.84829 0.1641 0.26977 0.0
C120 C 0.84934 0.25515 0.34364 0.0
H121 H 0.83491 0.38848 0.34532 0.0
N122 N 0.85063 0.31132 0.47792 0.0
C123 C 0.8406 0.37669 0.4778 0.0
C124 C 0.84806 0.29851 0.38544 0.0
C125 C 0.84599 0.34801 0.52516 0.0
C126 C 0.83925 0.36649 0.38178 0.0
C127 C 0.8425 0.32614 0.3346 0.0
O128 O 0.84279 0.27236 0.63954 0.0
O129 O 0.87785 0.25548 0.64609 0.0
O130 O 0.88557 0.19029 0.51917 0.0
O131 O 0.86333 0.19052 0.568 0.0
O132 O 0.86582 0.30053 0.69991 0.0
O133 O 0.84167 0.20651 0.55476 0.0
O134 O 0.90607 0.21682 0.46493 0.0
O135 O 0.87806 0.25192 0.45922 0.0
O136 O 0.8705 0.33574 0.56044 0.0
O137 O 0.894 0.33706 0.553 0.0
O138 O 0.89589 0.296 0.4294 0.0
O139 O 0.91927 0.27591 0.54627 0.0
C140 C 0.87572 0.28194 0.72015 0.0
C141 C 0.82073 0.23206 0.57595 0.0
C142 C 0.79652 0.23367 0.60712 0.0
C143 C 0.80988 0.23177 0.63788 0.0
C144 C 0.79421 0.23569 0.51407 0.0
C145 C 0.81799 0.23313 0.48311 0.0
C146 C 0.80485 0.23516 0.45261 0.0
C147 C 0.87324 0.16886 0.54011 0.0
C148 C 0.83493 0.23239 0.60812 0.0
C149 C 0.83943 0.31109 0.23965 0.0
C150 C 0.84069 0.26715 0.19744 0.0
C151 C 0.88337 0.27604 0.39941 0.0
C152 C 0.92803 0.20829 0.51439 0.0
C153 C 0.94254 0.22291 0.51174 0.0
C154 C 0.95131 0.19434 0.53027 0.0
C155 C 0.94542 0.15182 0.55419 0.0
C156 C 0.92248 0.1653 0.53738 0.0
C157 C 0.93114 0.13762 0.55817 0.0
C158 C 0.88345 0.35736 0.55664 0.0
C159 C 0.91875 0.23725 0.49083 0.0
H160 H 0.81185 0.23073 0.70966 0.0
H161 H 0.78405 0.23683 0.48844 0.0
H162 H 0.82597 0.23228 0.43388 0.0
H163 H 0.80291 0.23618 0.38086 0.0
H164 H 0.94694 0.25573 0.49301 0.0
H165 H 0.95192 0.12949 0.57003 0.0
H166 H 0.91143 0.15274 0.53851 0.0
H167 H 0.92676 0.1048 0.57667 0.0
Eu168 Eu 0.15069 0.7492 0.47863 0.0
C169 C 0.09448 0.66016 0.31598 0.0
C170 C 0.09381 0.69139 0.17628 0.0
C171 C 0.0817 0.61311 0.17852 0.0
C172 C 0.09857 0.69601 0.26848 0.0
C173 C 0.08563 0.61889 0.27219 0.0
C174 C 0.0858 0.64926 0.13062 0.0
C175 C 0.08392 0.59399 0.41917 0.0
N176 N 0.09845 0.66667 0.40667 0.0
C177 C 0.09272 0.6354 0.45969 0.0
C178 C 0.08057 0.58532 0.32469 0.0
Eu179 Eu 0.1139 0.73755 0.46668 0.0
N180 N 0.10617 0.73663 0.31464 0.0
C181 C 0.10798 0.77509 0.27659 0.0
C182 C 0.09664 0.72993 0.13421 0.0
C183 C 0.10338 0.77224 0.18551 0.0
H184 H 0.09547 0.64143 0.53237 0.0
H185 H 0.10518 0.80259 0.15467 0.0
H186 H 0.08225 0.64489 0.05935 0.0
H187 H 0.0798 0.56869 0.46074 0.0
H188 H 0.11326 0.80791 0.31537 0.0
H189 H 0.17487 0.6041 0.48934 0.0
H190 H 0.09316 0.7278 0.06354 0.0
H191 H 0.15372 0.8458 0.63855 0.0
H192 H 0.16332 0.65408 0.4162 0.0
H193 H 0.16191 0.87474 0.80002 0.0
H194 H 0.07507 0.58139 0.14338 0.0
H195 H 0.17994 0.62163 0.65783 0.0
H196 H 0.18003 0.67487 0.80903 0.0
H197 H 0.07374 0.5532 0.29355 0.0
H198 H 0.1766 0.74884 0.89355 0.0
N199 N 0.16136 0.69819 0.54282 0.0
C200 C 0.16551 0.66191 0.48995 0.0
C201 C 0.17482 0.64352 0.62619 0.0
C202 C 0.17151 0.68259 0.67884 0.0
C203 C 0.17202 0.63358 0.53103 0.0
C204 C 0.16492 0.71015 0.63429 0.0
H205 H 0.17051 0.82434 0.88968 0.0
N206 N 0.15768 0.77937 0.63517 0.0
C207 C 0.16222 0.84005 0.76779 0.0
C208 C 0.16306 0.75198 0.68177 0.0
C209 C 0.15755 0.82337 0.6759 0.0
C210 C 0.16702 0.81145 0.81825 0.0
C211 C 0.16765 0.76704 0.77516 0.0
O212 O 0.16854 0.80577 0.47911 0.0
O213 O 0.13302 0.75256 0.38311 0.0
O214 O 0.11877 0.66712 0.42266 0.0
O215 O 0.14041 0.6768 0.49255 0.0
O216 O 0.14601 0.71087 0.32964 0.0
O217 O 0.16838 0.74053 0.39266 0.0
O218 O 0.10362 0.76695 0.58709 0.0
O219 O 0.13238 0.75542 0.56859 0.0
O220 O 0.14726 0.82022 0.47745 0.0
O221 O 0.12337 0.81305 0.46936 0.0
O222 O 0.1155 0.70644 0.59481 0.0
O223 O 0.09395 0.75724 0.45338 0.0
C224 C 0.13576 0.72765 0.3087 0.0
C225 C 0.19007 0.78318 0.46156 0.0
C226 C 0.21376 0.77328 0.43251 0.0
C227 C 0.20008 0.77054 0.40017 0.0
C228 C 0.21717 0.78849 0.52724 0.0
C229 C 0.19385 0.79813 0.55583 0.0
C230 C 0.20728 0.80067 0.58815 0.0
C231 C 0.12873 0.65058 0.45423 0.0
C232 C 0.17578 0.78094 0.42727 0.0
C233 C 0.17326 0.73816 0.82144 0.0
C234 C 0.17519 0.69601 0.77334 0.0
C235 C 0.12758 0.72981 0.62701 0.0
C236 C 0.07907 0.74536 0.57608 0.0
C237 C 0.06675 0.75978 0.5601 0.0
C238 C 0.05396 0.7372 0.58972 0.0
C239 C 0.05372 0.70034 0.63555 0.0
C240 C 0.07846 0.70901 0.62381 0.0
C241 C 0.06588 0.68661 0.65278 0.0
C242 C 0.1362 0.83772 0.47541 0.0
C243 C 0.09244 0.76726 0.54137 0.0
H244 H 0.19726 0.75915 0.32735 0.0
H245 H 0.22746 0.79023 0.55471 0.0
H246 H 0.18645 0.80806 0.60486 0.0
H247 H 0.21003 0.81208 0.66097 0.0
H248 H 0.0671 0.78795 0.52378 0.0
H249 H 0.04412 0.68263 0.65982 0.0
H250 H 0.08773 0.69777 0.63881 0.0
H251 H 0.06556 0.65851 0.68911 0.0
Eu252 Eu 0.85883 0.73203 0.45919 0.0
C253 C 0.91116 0.8512 0.3396 0.0
C254 C 0.91234 0.81513 0.18009 0.0
C255 C 0.92137 0.89708 0.22794 0.0
C256 C 0.9082 0.81248 0.27075 0.0
C257 C 0.91813 0.89366 0.31938 0.0
C258 C 0.9185 0.85787 0.15843 0.0
C259 C 0.91964 0.92495 0.48284 0.0
N260 N 0.90812 0.84665 0.42754 0.0
C261 C 0.91273 0.88217 0.49952 0.0
C262 C 0.92216 0.93094 0.39224 0.0
Eu263 Eu 0.89654 0.77292 0.44935 0.0
N264 N 0.9024 0.77153 0.29399 0.0
C265 C 0.90172 0.73155 0.23264 0.0
C266 C 0.91079 0.77446 0.11507 0.0
C267 C 0.90579 0.73244 0.14215 0.0
H268 H 0.91069 0.87751 0.56955 0.0
H269 H 0.90499 0.70072 0.09335 0.0
H270 H 0.92155 0.86067 0.08886 0.0
H271 H 0.92299 0.95329 0.53977 0.0
H272 H 0.89786 0.69891 0.2529 0.0
H273 H 0.84395 0.78965 0.80896 0.0
H274 H 0.91387 0.77503 0.04481 0.0
H275 H 0.85025 0.62725 0.32578 0.0
H276 H 0.85401 0.79819 0.65894 0.0
H277 H 0.83846 0.54856 0.33906 0.0
H278 H 0.92658 0.92955 0.21088 0.0
H279 H 0.83355 0.71254 0.83966 0.0
H280 H 0.82709 0.62739 0.78252 0.0
H281 H 0.92756 0.9641 0.37954 0.0
H282 H 0.82542 0.5619 0.65437 0.0
N283 N 0.85004 0.72648 0.6066 0.0
C284 C 0.8497 0.76426 0.6718 0.0
C285 C 0.83819 0.71598 0.77419 0.0
C286 C 0.83805 0.67744 0.70569 0.0
C287 C 0.84397 0.75959 0.75693 0.0
C288 C 0.84407 0.6839 0.62122 0.0
H289 H 0.82923 0.53247 0.48804 0.0
N290 N 0.84808 0.65519 0.46658 0.0
C291 C 0.83966 0.57598 0.39855 0.0
C292 C 0.8429 0.64716 0.54868 0.0
C293 C 0.84632 0.62061 0.39124 0.0
C294 C 0.83448 0.56703 0.48283 0.0
C295 C 0.83601 0.60281 0.55918 0.0
O296 O 0.84092 0.71892 0.36273 0.0
O297 O 0.87605 0.75874 0.36793 0.0
O298 O 0.88681 0.83461 0.45477 0.0
O299 O 0.86528 0.80902 0.51346 0.0
O300 O 0.86078 0.70597 0.30399 0.0
O301 O 0.84314 0.77353 0.48085 0.0
O302 O 0.91695 0.79147 0.52258 0.0
O303 O 0.87894 0.7552 0.54194 0.0
O304 O 0.86945 0.67757 0.4916 0.0
O305 O 0.88925 0.69487 0.41046 0.0
O306 O 0.89716 0.78896 0.60865 0.0
O307 O 0.91086 0.72664 0.42895 0.0
C308 C 0.87189 0.73417 0.2889 0.0
C309 C 0.82023 0.73617 0.42544 0.0
C310 C 0.79594 0.73573 0.38862 0.0
C311 C 0.81026 0.74971 0.37423 0.0
C312 C 0.7919 0.70779 0.4546 0.0
C313 C 0.81577 0.70871 0.49092 0.0
C314 C 0.80174 0.69464 0.50532 0.0
C315 C 0.87514 0.84198 0.49164 0.0
C316 C 0.83522 0.75014 0.41 0.0
C317 C 0.83064 0.59581 0.64469 0.0
C318 C 0.83162 0.63308 0.71772 0.0
C319 C 0.88467 0.76925 0.62294 0.0
C320 C 0.93488 0.76229 0.44032 0.0
C321 C 0.94703 0.76443 0.49341 0.0
C322 C 0.96004 0.76955 0.45206 0.0
C323 C 0.96078 0.77299 0.35866 0.0
C324 C 0.93611 0.7658 0.34695 0.0
C325 C 0.9489 0.77125 0.30668 0.0
C326 C 0.88064 0.66679 0.45395 0.0
C327 C 0.92094 0.75513 0.48046 0.0
H328 H 0.81369 0.7713 0.32411 0.0
H329 H 0.78108 0.69523 0.46615 0.0
H330 H 0.82309 0.6979 0.53081 0.0
H331 H 0.79846 0.6731 0.5557 0.0
H332 H 0.94637 0.76164 0.56552 0.0
H333 H 0.97064 0.77706 0.32584 0.0
H334 H 0.9272 0.7638 0.30403 0.0
H335 H 0.94958 0.77384 0.23454 0.0
Eu336 Eu 0.61181 0.73774 0.0775 0.0
C337 C 0.65849 0.7427 0.87291 0.0
C338 C 0.66136 0.6661 0.8104 0.0
C339 C 0.66514 0.72396 0.714 0.0
C340 C 0.65788 0.69815 0.88364 0.0
C341 C 0.66264 0.75646 0.78878 0.0
C342 C 0.66445 0.67877 0.7247 0.0
C343 C 0.66262 0.83418 0.86038 0.0
N344 N 0.65576 0.77324 0.94604 0.0
C345 C 0.65835 0.81888 0.94168 0.0
C346 C 0.66452 0.80273 0.78296 0.0
Eu347 Eu 0.64838 0.7445 0.08255 0.0
N348 N 0.65523 0.68734 0.96807 0.0
C349 C 0.65804 0.64745 0.98668 0.0
C350 C 0.66241 0.62308 0.82685 0.0
C351 C 0.66111 0.6142 0.91613 0.0
H352 H 0.65749 0.84435 1.00066 0.0
H353 H 0.66271 0.58207 0.9311 0.0
H354 H 0.66692 0.6544 0.66744 0.0
H355 H 0.66445 0.87033 0.85766 0.0
H356 H 0.65777 0.64075 0.05628 0.0
H357 H 0.61107 0.86184 0.39542 0.0
H358 H 0.66501 0.59756 0.77245 0.0
H359 H 0.58908 0.63465 1.01672 0.0
H360 H 0.61603 0.83674 0.23391 0.0
H361 H 0.57521 0.57558 0.09385 0.0
H362 H 0.66804 0.73375 0.64847 0.0
H363 H 0.59981 0.80502 0.48765 0.0
H364 H 0.58883 0.72367 0.49494 0.0
H365 H 0.66775 0.81464 0.71984 0.0
H366 H 0.57967 0.64482 0.4135 0.0
N367 N 0.60811 0.76574 0.23374 0.0
C368 C 0.61129 0.81125 0.27277 0.0
C369 C 0.60197 0.79364 0.41632 0.0
C370 C 0.59808 0.74736 0.37472 0.0
C371 C 0.60834 0.82581 0.36452 0.0
C372 C 0.60103 0.73427 0.28129 0.0
H373 H 0.57434 0.58944 0.26386 0.0
N374 N 0.59736 0.67909 0.14246 0.0
C375 C 0.58115 0.60709 0.13456 0.0
C376 C 0.5958 0.68956 0.23494 0.0
C377 C 0.5891 0.64045 0.09128 0.0
C378 C 0.58071 0.61503 0.2305 0.0
C379 C 0.58759 0.65737 0.2816 0.0
O380 O 0.60047 0.76004 0.97211 0.0
O381 O 0.63056 0.74916 0.99003 0.0
O382 O 0.64517 0.81743 0.12178 0.0
O383 O 0.62218 0.81157 0.07765 0.0
O384 O 0.61356 0.69844 0.93268 0.0
O385 O 0.591 0.75107 0.09852 0.0
O386 O 0.66375 0.79827 0.16987 0.0
O387 O 0.63064 0.75262 0.17737 0.0
O388 O 0.61435 0.66463 0.04489 0.0
O389 O 0.63753 0.67022 0.08125 0.0
O390 O 0.64333 0.71057 0.20723 0.0
O391 O 0.6691 0.73464 0.11416 0.0
C392 C 0.62562 0.72137 0.91517 0.0
C393 C 0.57615 0.73081 0.96632 0.0
C394 C 0.55078 0.71472 0.94571 0.0
C395 C 0.56336 0.74269 0.98785 0.0
C396 C 0.55142 0.67478 0.88165 0.0
C397 C 0.57636 0.69106 0.90148 0.0
C398 C 0.56407 0.66341 0.85944 0.0
C399 C 0.6348 0.83578 0.10247 0.0
C400 C 0.58912 0.75803 1.01615 0.0
C401 C 0.58572 0.6694 0.37639 0.0
C402 C 0.59089 0.71436 0.42272 0.0
C403 C 0.63307 0.72844 0.23639 0.0
C404 C 0.68741 0.80051 0.137 0.0
C405 C 0.69948 0.78585 0.15804 0.0
C406 C 0.7126 0.80843 0.13367 0.0
C407 C 0.71346 0.84602 0.08903 0.0
C408 C 0.68868 0.83857 0.09348 0.0
C409 C 0.70161 0.861 0.06958 0.0
C410 C 0.62487 0.64622 0.05809 0.0
C411 C 0.6736 0.77586 0.15997 0.0
H412 H 0.56327 0.77355 0.03758 0.0
H413 H 0.54211 0.65142 0.8498 0.0
H414 H 0.586 0.68087 0.88439 0.0
H415 H 0.56433 0.63249 0.81038 0.0
H416 H 0.69862 0.75658 0.1918 0.0
H417 H 0.72338 0.86431 0.07019 0.0
H418 H 0.6797 0.85119 0.07814 0.0
H419 H 0.70245 0.89024 0.0359 0.0
Eu420 Eu 0.3604 0.76959 0.04704 0.0
C421 C 0.40666 0.77002 0.25852 0.0
C422 C 0.41778 0.84786 0.32833 0.0
C423 C 0.41513 0.78776 0.41911 0.0
C424 C 0.41089 0.81571 0.25199 0.0
C425 C 0.40926 0.75536 0.34131 0.0
C426 C 0.41938 0.83397 0.41263 0.0
C427 C 0.4014 0.67731 0.26193 0.0
N428 N 0.4008 0.73943 0.18252 0.0
C429 C 0.39898 0.69347 0.18188 0.0
C430 C 0.40628 0.70841 0.34267 0.0
Eu431 Eu 0.39665 0.76952 0.04907 0.0
N432 N 0.40959 0.82784 0.16869 0.0
C433 C 0.417 0.86956 0.15451 0.0
C434 C 0.42366 0.89241 0.31629 0.0
C435 C 0.42362 0.90288 0.22827 0.0
H436 H 0.39603 0.66865 0.11966 0.0
H437 H 0.42894 0.93631 0.21673 0.0
H438 H 0.42447 0.85835 0.47206 0.0
H439 H 0.39965 0.64082 0.26089 0.0
H440 H 0.41787 0.8776 0.08602 0.0
H441 H 0.34668 0.628 0.75206 0.0
H442 H 0.42901 0.91802 0.37314 0.0
H443 H 0.34973 0.86999 0.0734 0.0
H444 H 0.35367 0.66427 0.91186 0.0
H445 H 0.34192 0.9187 0.97708 0.0
H446 H 0.4169 0.7772 0.48365 0.0
H447 H 0.34152 0.67455 0.64077 0.0
H448 H 0.33899 0.75082 0.61046 0.0
H449 H 0.40816 0.69583 0.40467 0.0
H450 H 0.33816 0.83086 0.67171 0.0
N451 N 0.35377 0.73202 0.89219 0.0
C452 C 0.35209 0.6857 0.86434 0.0
C453 C 0.34486 0.69096 0.71107 0.0
C454 C 0.34582 0.73791 0.7409 0.0
C455 C 0.34781 0.66464 0.77354 0.0
C456 C 0.35018 0.75765 0.83343 0.0
H457 H 0.33918 0.89371 0.80819 0.0
N458 N 0.35256 0.81902 0.95936 0.0
C459 C 0.34446 0.88678 0.94513 0.0
C460 C 0.34979 0.80275 0.8678 0.0
C461 C 0.34896 0.85903 0.99926 0.0
C462 C 0.34287 0.87244 0.84985 0.0
C463 C 0.34503 0.82927 0.81038 0.0
O464 O 0.34224 0.78748 0.11743 0.0
O465 O 0.378 0.76253 0.13859 0.0
O466 O 0.38434 0.69596 1.00992 0.0
O467 O 0.36302 0.70007 0.07091 0.0
O468 O 0.36632 0.80822 0.19454 0.0
O469 O 0.342 0.71718 0.06369 0.0
O470 O 0.40556 0.7208 0.9536 0.0
O471 O 0.37794 0.75872 0.9511 0.0
O472 O 0.37166 0.84432 0.06889 0.0
O473 O 0.39471 0.84231 0.04522 0.0
O474 O 0.39596 0.80236 0.92263 0.0
O475 O 0.41914 0.77977 0.03292 0.0
C476 C 0.37617 0.78903 0.21327 0.0
C477 C 0.32063 0.74002 0.0604 0.0
C478 C 0.29554 0.73131 0.07433 0.0
C479 C 0.30894 0.73848 0.11571 0.0
C480 C 0.29413 0.72723 0.9781 0.0
C481 C 0.31875 0.73521 0.96461 0.0
C482 C 0.30564 0.72927 0.92394 0.0
C483 C 0.37232 0.67651 0.03909 0.0
C484 C 0.33476 0.74604 0.10124 0.0
C485 C 0.34168 0.81079 0.71681 0.0
C486 C 0.34209 0.76517 0.68205 0.0
C487 C 0.38341 0.78313 0.89219 0.0
C488 C 0.42798 0.71215 0.99471 0.0
C489 C 0.44245 0.72955 0.99876 0.0
C490 C 0.45162 0.70119 1.01077 0.0
C491 C 0.44623 0.65562 1.01959 0.0
C492 C 0.42289 0.66629 1.00382 0.0
C493 C 0.43197 0.63841 1.01652 0.0
C494 C 0.38458 0.86441 0.05837 0.0
C495 C 0.41835 0.74116 0.97656 0.0
H496 H 0.31022 0.74166 0.18974 0.0
H497 H 0.28404 0.72239 0.94454 0.0
H498 H 0.32739 0.73561 0.92081 0.0
H499 H 0.30439 0.72579 0.84989 0.0
H500 H 0.44656 0.76468 0.99116 0.0
H501 H 0.45311 0.63332 0.02891 0.0
H502 H 0.41189 0.65166 1.00009 0.0
H503 H 0.42792 0.60316 0.02325 0.0
Eu504 Eu 0.65019 0.26252 0.02461 0.0
C505 C 0.60083 0.11364 0.84132 0.0
C506 C 0.59875 0.13067 0.68863 0.0
C507 C 0.59196 0.05198 0.71207 0.0
C508 C 0.60285 0.14495 0.78292 0.0
C509 C 0.59468 0.06719 0.80738 0.0
C510 C 0.59402 0.08374 0.65262 0.0
C511 C 0.5918 0.05658 0.9652 0.0
N512 N 0.603 0.12995 0.93321 0.0
C513 C 0.59816 0.10265 0.99545 0.0
C514 C 0.59042 0.03838 0.87076 0.0
Eu515 Eu 0.61295 0.20905 0.98089 0.0
N516 N 0.60668 0.19009 0.8212 0.0
C517 C 0.60511 0.22263 0.7717 0.0
C518 C 0.59841 0.16414 0.63533 0.0
C519 C 0.6012 0.21027 0.67775 0.0
H520 H 0.59939 0.11653 0.06855 0.0
H521 H 0.60039 0.23635 0.63821 0.0
H522 H 0.59107 0.07201 0.58005 0.0
H523 H 0.588 0.03513 1.01481 0.0
H524 H 0.60734 0.25842 0.80386 0.0
H525 H 0.66637 0.23549 0.36042 0.0
H526 H 0.59529 0.15464 0.56274 0.0
H527 H 0.65895 0.35872 0.93424 0.0
H528 H 0.65675 0.2135 0.20083 0.0
H529 H 0.67068 0.43946 0.98249 0.0
H530 H 0.58747 0.01626 0.68441 0.0
H531 H 0.67511 0.31732 0.42854 0.0
H532 H 0.68022 0.39927 0.40857 0.0
H533 H 0.58546 0.00263 0.84756 0.0
H534 H 0.68174 0.45477 0.30461 0.0
N535 N 0.65884 0.282 0.1803 0.0
C536 C 0.66012 0.24933 0.23024 0.0
C537 C 0.67049 0.30785 0.3592 0.0
C538 C 0.66992 0.34115 0.30605 0.0
C539 C 0.66568 0.26166 0.32077 0.0
C540 C 0.66403 0.32694 0.2154 0.0
H541 H 0.67911 0.46924 0.14437 0.0
N542 N 0.66006 0.34243 0.06837 0.0
C543 C 0.66902 0.41702 0.03252 0.0
C544 C 0.66477 0.35819 0.1574 0.0
C545 C 0.66231 0.37103 1.00552 0.0
C546 C 0.6737 0.43375 0.12402 0.0
C547 C 0.67157 0.4044 0.18788 0.0
O548 O 0.66656 0.26476 0.9247 0.0
O549 O 0.63348 0.22629 0.91231 0.0
O550 O 0.62408 0.15032 0.9723 0.0
O551 O 0.64527 0.18845 0.04727 0.0
O552 O 0.64784 0.28072 0.88248 0.0
O553 O 0.6678 0.23064 0.03853 0.0
O554 O 0.59354 0.19872 0.05338 0.0
O555 O 0.63019 0.23767 0.08935 0.0
O556 O 0.63822 0.3183 0.0642 0.0
O557 O 0.61857 0.28473 0.9694 0.0
O558 O 0.61223 0.20387 0.13432 0.0
O559 O 0.59726 0.24859 0.96498 0.0
C560 C 0.63718 0.24972 0.84873 0.0
C561 C 0.68894 0.26742 0.98366 0.0
C562 C 0.71318 0.27307 0.94445 0.0
C563 C 0.6992 0.2492 0.93297 0.0
C564 C 0.71676 0.31477 1.00727 0.0
C565 C 0.69289 0.30871 0.04708 0.0
C566 C 0.70668 0.33223 0.05869 0.0
C567 C 0.63598 0.15043 1.01356 0.0
C568 C 0.67412 0.24459 0.96835 0.0
C569 C 0.67666 0.41928 0.27969 0.0
C570 C 0.67579 0.3877 0.33886 0.0
C571 C 0.6245 0.22646 0.16244 0.0
C572 C 0.57409 0.20812 0.97145 0.0
C573 C 0.56264 0.22615 1.00475 0.0
C574 C 0.54937 0.20832 0.96044 0.0
C575 C 0.54776 0.17219 0.88409 0.0
C576 C 0.572 0.17188 0.89562 0.0
C577 C 0.55899 0.15409 0.85228 0.0
C578 C 0.62687 0.32095 1.02021 0.0
C579 C 0.58822 0.22659 1.01426 0.0
H580 H 0.6963 0.21725 0.88387 0.0
H581 H 0.72743 0.33359 1.01733 0.0
H582 H 0.68532 0.32297 0.08739 0.0
H583 H 0.70956 0.3642 0.10756 0.0
H584 H 0.56406 0.25409 0.0635 0.0
H585 H 0.53771 0.15742 0.84954 0.0
H586 H 0.58041 0.15712 0.86975 0.0
H587 H 0.5576 0.12606 0.79381 0.0
Eu588 Eu 0.35942 0.24221 1.00033 0.0
C589 C 0.41116 0.36706 0.8876 0.0
C590 C 0.41628 0.3294 0.73617 0.0
C591 C 0.42371 0.41211 0.78156 0.0
C592 C 0.41029 0.32726 0.82241 0.0
C593 C 0.41825 0.40968 0.86867 0.0
C594 C 0.42272 0.37208 0.71548 0.0
C595 C 0.41535 0.44391 0.02664 0.0
N596 N 0.40608 0.36368 0.97224 0.0
C597 C 0.40843 0.401 0.0425 0.0
C598 C 0.42026 0.44827 0.93933 0.0
Eu599 Eu 0.39623 0.28878 0.9959 0.0
N600 N 0.40449 0.28625 0.84547 0.0
C601 C 0.40498 0.24615 0.78761 0.0
C602 C 0.41609 0.28843 0.6745 0.0
C603 C 0.41053 0.24662 0.70071 0.0
H604 H 0.40485 0.39741 0.11049 0.0
H605 H 0.41058 0.21473 0.65424 0.0
H606 H 0.4273 0.37436 0.64941 0.0
H607 H 0.41702 0.4735 0.08191 0.0
H608 H 0.40086 0.21359 0.80745 0.0
H609 H 0.34789 0.30941 0.35438 0.0
H610 H 0.42054 0.28866 0.60752 0.0
H611 H 0.34826 0.13632 0.87648 0.0
H612 H 0.35581 0.31385 0.19785 0.0
H613 H 0.33614 0.05954 0.90017 0.0
H614 H 0.42908 0.44462 0.76556 0.0
H615 H 0.33883 0.23396 0.39744 0.0
H616 H 0.33155 0.14847 0.34839 0.0
H617 H 0.42581 0.48147 0.92769 0.0
H618 H 0.3279 0.08065 0.22395 0.0
N619 N 0.3518 0.24145 0.15251 0.0
C620 C 0.35191 0.28061 0.21516 0.0
C621 C 0.34234 0.23563 0.32841 0.0
C622 C 0.34133 0.19575 0.26198 0.0
C623 C 0.3474 0.27828 0.30429 0.0
C624 C 0.34614 0.19982 0.17326 0.0
H625 H 0.32894 0.04768 0.05586 0.0
N626 N 0.34819 0.16729 1.0178 0.0
C627 C 0.33835 0.08794 0.95795 0.0
C628 C 0.34407 0.16167 0.10341 0.0
C629 C 0.3452 0.13145 0.94478 0.0
C630 C 0.33433 0.08138 0.04599 0.0
C631 C 0.33718 0.1184 0.12013 0.0
O632 O 0.341 0.22348 0.90653 0.0
O633 O 0.37637 0.2695 0.90683 0.0
O634 O 0.38492 0.34354 0.97299 0.0
O635 O 0.36495 0.31987 0.04773 0.0
O636 O 0.36182 0.21246 0.84906 0.0
O637 O 0.34349 0.28271 1.01529 0.0
O638 O 0.41411 0.31114 0.09344 0.0
O639 O 0.37944 0.26 0.08554 0.0
O640 O 0.37005 0.18597 0.02162 0.0
O641 O 0.39134 0.21006 0.95966 0.0
O642 O 0.39378 0.31507 0.15105 0.0
O643 O 0.41387 0.25509 0.98006 0.0
C644 C 0.37259 0.24121 0.83098 0.0
C645 C 0.32055 0.2405 0.9736 0.0
C646 C 0.29567 0.22352 0.93389 0.0
C647 C 0.30952 0.23949 0.91154 0.0
C648 C 0.29302 0.20889 1.01835 0.0
C649 C 0.31746 0.22669 0.05834 0.0
C650 C 0.30384 0.21077 0.08024 0.0
C651 C 0.37368 0.3517 1.0141 0.0
C652 C 0.33519 0.2553 0.95025 0.0
C653 C 0.33304 0.11374 0.2095 0.0
C654 C 0.33515 0.15233 0.28038 0.0
C655 C 0.38297 0.28506 0.16483 0.0
C656 C 0.43579 0.30403 0.03032 0.0
C657 C 0.44654 0.28044 0.03582 0.0
C658 C 0.46023 0.30045 1.01623 0.0
C659 C 0.463 0.34376 0.99085 0.0
C660 C 0.43912 0.34803 1.00822 0.0
C661 C 0.45252 0.36741 0.9875 0.0
C662 C 0.38194 0.17835 0.98963 0.0
C663 C 0.42124 0.28342 0.04841 0.0
H664 H 0.3117 0.25047 0.84617 0.0
H665 H 0.28249 0.19666 0.03717 0.0
H666 H 0.32555 0.22841 0.10824 0.0
H667 H 0.30166 0.2 0.14571 0.0
H668 H 0.44427 0.24688 0.05478 0.0
H669 H 0.4734 0.3599 0.97592 0.0
H670 H 0.43146 0.36803 1.00815 0.0
H671 H 0.45482 0.40123 0.96989 0.0
H672 H 0.23857 0.3293 0.72114 0.0
H673 H 0.21304 0.19147 0.65584 0.0
H674 H 0.23202 0.16131 0.71349 0.0
H675 H 0.2709 0.29931 0.65313 0.0
H676 H 0.281 0.34051 0.74508 0.0
H677 H 0.2654 0.35138 0.69943 0.0
H678 H 0.25571 0.36151 0.86304 0.0
H679 H 0.27134 0.35125 0.90929 0.0
H680 H 0.2548 0.31665 0.92922 0.0
H681 H 0.25381 0.14635 0.77981 0.0
H682 H 0.27605 0.14834 0.85884 0.0
H683 H 0.28775 0.29545 0.87571 0.0
C684 C 0.23697 0.29268 0.71824 0.0
C685 C 0.22425 0.26276 0.68347 0.0
C686 C 0.22257 0.21521 0.68296 0.0
C687 C 0.23336 0.19771 0.71472 0.0
C688 C 0.24582 0.22812 0.74678 0.0
C689 C 0.24763 0.27465 0.74932 0.0
C690 C 0.26191 0.30019 0.78897 0.0
C691 C 0.27029 0.32427 0.71736 0.0
C692 C 0.26087 0.33441 0.87791 0.0
C693 C 0.26787 0.2608 0.80894 0.0
C694 C 0.25842 0.21947 0.78369 0.0
C695 C 0.2613 0.17845 0.79904 0.0
C696 C 0.27398 0.17986 0.84351 0.0
C697 C 0.28368 0.2219 0.87176 0.0
C698 C 0.28067 0.26273 0.8526 0.0
H699 H 0.72985 0.31355 0.82241 0.0
H700 H 0.72196 0.19448 0.95315 0.0
H701 H 0.7429 0.17181 0.88471 0.0
H702 H 0.74233 0.25689 0.60774 0.0
H703 H 0.75493 0.30773 0.59549 0.0
H704 H 0.73912 0.31278 0.65246 0.0
H705 H 0.75343 0.36308 0.79606 0.0
H706 H 0.76928 0.35753 0.74021 0.0
H707 H 0.76617 0.34108 0.85101 0.0
H708 H 0.76601 0.16628 0.81069 0.0
H709 H 0.78724 0.17221 0.7205 0.0
H710 H 0.77911 0.29309 0.63336 0.0
C711 C 0.73243 0.28226 0.83509 0.0
C712 C 0.72431 0.25549 0.89239 0.0
C713 C 0.72799 0.21499 0.90835 0.0
C714 C 0.73991 0.20216 0.87041 0.0
C715 C 0.7479 0.22994 0.81578 0.0
C716 C 0.74413 0.26864 0.79663 0.0
C717 C 0.75432 0.29246 0.73516 0.0
C718 C 0.74725 0.29244 0.6422 0.0
C719 C 0.76121 0.34143 0.78354 0.0
C720 C 0.76458 0.26162 0.72366 0.0
C721 C 0.76081 0.22596 0.77129 0.0
C722 C 0.76896 0.19385 0.7725 0.0
C723 C 0.78106 0.19767 0.72184 0.0
C724 C 0.78478 0.233 0.66992 0.0
C725 C 0.77647 0.26556 0.67202 0.0
H726 H 0.28957 0.7898 0.22843 0.0
H727 H 0.27242 0.663 0.03914 0.0
H728 H 0.24984 0.65956 0.11067 0.0
H729 H 0.26979 0.7594 0.4296 0.0
H730 H 0.26745 0.81693 0.46817 0.0
H731 H 0.28259 0.8076 0.40677 0.0
H732 H 0.27678 0.85432 0.28728 0.0
H733 H 0.26154 0.86327 0.34759 0.0
H734 H 0.2601 0.83748 0.22695 0.0
H735 H 0.2286 0.67263 0.194 0.0
H736 H 0.21062 0.69821 0.29301 0.0
H737 H 0.24125 0.81654 0.42931 0.0
C738 C 0.28114 0.7608 0.20379 0.0
C739 C 0.28276 0.72662 0.1282 0.0
C740 C 0.2714 0.68962 0.09671 0.0
C741 C 0.25852 0.68737 0.13685 0.0
C742 C 0.2571 0.72229 0.20905 0.0
C743 C 0.26812 0.75804 0.2432 0.0
C744 C 0.2636 0.79181 0.31966 0.0
C745 C 0.27132 0.79405 0.4115 0.0
C746 C 0.26563 0.83954 0.29378 0.0
C747 C 0.24835 0.7697 0.32215 0.0
C748 C 0.24481 0.72967 0.25766 0.0
C749 C 0.23126 0.70379 0.24526 0.0
C750 C 0.22108 0.71882 0.30124 0.0
C751 C 0.22446 0.75932 0.36916 0.0
C752 C 0.23832 0.7851 0.3789 0.0
H753 H 0.72191 0.79199 0.29838 0.0
H754 H 0.73272 0.79257 1.01397 0.0
H755 H 0.75524 0.77514 0.04778 0.0
H756 H 0.75559 0.84695 0.39793 0.0
H757 H 0.75465 0.81382 0.48835 0.0
H758 H 0.73906 0.82392 0.44107 0.0
H759 H 0.72884 0.73644 0.40192 0.0
H760 H 0.74435 0.7261 0.44984 0.0
H761 H 0.73846 0.69957 0.33307 0.0
H762 H 0.77696 0.75923 0.11363 0.0
H763 H 0.7957 0.74342 0.2051 0.0
H764 H 0.77123 0.7567 0.44839 0.0
C765 C 0.72894 0.78766 0.243 0.0
C766 C 0.72553 0.79348 0.15338 0.0
C767 C 0.73512 0.78839 0.08315 0.0
C768 C 0.74795 0.77848 0.1017 0.0
C769 C 0.75113 0.77392 0.19111 0.0
C770 C 0.74188 0.77819 0.2606 0.0
C771 C 0.74803 0.7729 0.35131 0.0
C772 C 0.74941 0.81703 0.42393 0.0
C773 C 0.73941 0.73127 0.38606 0.0
C774 C 0.76211 0.76488 0.32188 0.0
C775 C 0.7637 0.76557 0.22922 0.0
C776 C 0.77582 0.7587 0.18638 0.0
C777 C 0.7865 0.75016 0.23923 0.0
C778 C 0.78505 0.74863 0.33428 0.0
C779 C 0.77269 0.75683 0.37575 0.0
H780 H 0.1192 0.89568 0.53996 0.0
H781 H 0.15841 0.89185 0.4118 0.0
H782 H 0.16257 0.97513 0.41395 0.0
H783 H 0.10974 0.98071 0.42545 0.0
H784 H 0.10253 0.00863 0.52619 0.0
H785 H 0.10235 0.94836 0.51128 0.0
H786 H 0.11522 0.96186 0.67045 0.0
H787 H 0.1154 0.02212 0.68572 0.0
H788 H 0.13138 0.00352 0.69346 0.0
H789 H 0.16231 0.05907 0.42847 0.0
H790 H 0.15801 0.13737 0.45991 0.0
H791 H 0.11999 0.08666 0.58948 0.0
C792 C 0.1286 0.91235 0.51167 0.0
C793 C 0.13845 0.88735 0.47522 0.0
C794 C 0.15074 0.91043 0.44023 0.0
C795 C 0.15318 0.95768 0.44091 0.0
C796 C 0.14332 0.98146 0.47791 0.0
C797 C 0.13133 0.95967 0.51336 0.0
C798 C 0.12267 0.99347 0.55246 0.0
C799 C 0.10848 0.9821 0.50073 0.0
C800 C 0.12108 0.99535 0.65671 0.0
C801 C 0.13161 0.03749 0.53275 0.0
C802 C 0.14342 0.02989 0.48913 0.0
C803 C 0.1531 0.06543 0.46286 0.0
C804 C 0.15057 0.10986 0.48122 0.0
C805 C 0.1385 0.11844 0.52611 0.0
C806 C 0.12908 0.08159 0.55303 0.0
H807 H 0.86976 0.42582 0.62457 0.0
H808 H 0.90305 0.39646 0.44957 0.0
H809 H 0.90627 0.47268 0.4068 0.0
H810 H 0.85463 0.48697 0.48795 0.0
H811 H 0.85155 0.52962 0.58316 0.0
H812 H 0.85241 0.47372 0.60231 0.0
H813 H 0.8714 0.51128 0.73013 0.0
H814 H 0.87058 0.56724 0.70886 0.0
H815 H 0.88683 0.54952 0.7033 0.0
H816 H 0.90488 0.54998 0.3743 0.0
H817 H 0.8999 0.62491 0.36198 0.0
H818 H 0.86801 0.60583 0.56155 0.0
C819 C 0.87782 0.43576 0.57814 0.0
C820 C 0.88617 0.4052 0.54053 0.0
C821 C 0.89665 0.41946 0.48022 0.0
C822 C 0.89852 0.46264 0.45507 0.0
C823 C 0.89001 0.49174 0.49221 0.0
C824 C 0.88006 0.47934 0.55392 0.0
C825 C 0.87246 0.51752 0.58453 0.0
C826 C 0.85683 0.50088 0.56282 0.0
C827 C 0.8755 0.53757 0.68782 0.0
C828 C 0.87906 0.55187 0.52578 0.0
C829 C 0.88933 0.53665 0.47425 0.0
C830 C 0.89692 0.56239 0.41478 0.0
C831 C 0.89399 0.60494 0.4081 0.0
C832 C 0.88349 0.62132 0.46012 0.0
C833 C 0.87598 0.59421 0.51984 0.0
H834 H 0.88997 0.91848 0.43071 0.0
H835 H 0.85474 0.87329 0.59164 0.0
H836 H 0.85012 0.95091 0.61746 0.0
H837 H 0.90148 0.03199 0.57173 0.0
H838 H 0.90637 0.0593 0.47425 0.0
H839 H 0.90709 0.00037 0.46872 0.0
H840 H 0.89132 0.97747 0.3205 0.0
H841 H 0.8905 0.03654 0.32603 0.0
H842 H 0.87478 0.99324 0.32167 0.0
H843 H 0.84911 0.03349 0.62547 0.0
H844 H 0.85244 0.11581 0.62007 0.0
H845 H 0.88845 0.10816 0.45585 0.0
C846 C 0.88142 0.92498 0.4726 0.0
C847 C 0.87281 0.88953 0.50969 0.0
C848 C 0.86152 0.89958 0.56233 0.0
C849 C 0.85879 0.94369 0.5775 0.0
C850 C 0.86743 0.97767 0.53972 0.0
C851 C 0.87856 0.96898 0.4888 0.0
C852 C 0.88618 0.01172 0.45564 0.0
C853 C 0.90117 0.02671 0.49511 0.0
C854 C 0.88566 0.00428 0.34966 0.0
C855 C 0.87766 0.04576 0.49654 0.0
C856 C 0.86684 0.02533 0.54431 0.0
C857 C 0.85756 0.04986 0.5883 0.0
C858 C 0.85951 0.09663 0.58454 0.0
C859 C 0.87072 0.11863 0.53772 0.0
C860 C 0.87981 0.09252 0.49258 0.0
H861 H 0.1399 0.60782 0.57364 0.0
H862 H 0.11184 0.58114 0.33411 0.0
H863 H 0.10727 0.49801 0.33643 0.0
H864 H 0.15521 0.51165 0.51336 0.0
H865 H 0.15592 0.50212 0.63049 0.0
H866 H 0.15639 0.55855 0.60957 0.0
H867 H 0.13555 0.56297 0.71274 0.0
H868 H 0.13493 0.50567 0.73182 0.0
H869 H 0.11981 0.51961 0.68617 0.0
H870 H 0.10608 0.4175 0.36448 0.0
H871 H 0.10912 0.34595 0.41149 0.0
H872 H 0.13852 0.4256 0.62952 0.0
C873 C 0.13289 0.58446 0.5211 0.0
C874 C 0.12624 0.60081 0.45339 0.0
C875 C 0.11695 0.56927 0.38696 0.0
C876 C 0.11431 0.52205 0.38772 0.0
C877 C 0.12101 0.50705 0.45567 0.0
C878 C 0.1301 0.53737 0.52115 0.0
C879 C 0.13599 0.51259 0.58663 0.0
C880 C 0.15183 0.52171 0.58449 0.0
C881 C 0.13128 0.52601 0.68516 0.0
C882 C 0.12934 0.46335 0.5452 0.0
C883 C 0.12047 0.46091 0.47102 0.0
C884 C 0.11298 0.41904 0.42248 0.0
C885 C 0.11473 0.37865 0.44986 0.0
C886 C 0.12407 0.38045 0.52384 0.0
C887 C 0.13141 0.42336 0.57221 0.0
H888 H 0.63799 0.59485 0.14812 0.0
H889 H 0.60601 0.58374 0.93883 0.0
H890 H 0.60239 0.49928 0.91156 0.0
H891 H 0.65319 0.50295 0.04068 0.0
H892 H 0.65585 0.48781 0.15126 0.0
H893 H 0.65513 0.54551 0.14519 0.0
H894 H 0.63593 0.53606 0.26719 0.0
H895 H 0.63633 0.47658 0.26105 0.0
H896 H 0.62034 0.49229 0.2371 0.0
H897 H 0.60319 0.41669 0.90113 0.0
H898 H 0.60781 0.34122 0.9094 0.0
H899 H 0.6392 0.40501 0.12766 0.0
C900 C 0.63022 0.57453 0.09668 0.0
C901 C 0.62234 0.59571 0.04508 0.0
C902 C 0.61211 0.56813 0.97938 0.0
C903 C 0.61001 0.52017 0.96334 0.0
C904 C 0.61806 0.50031 1.01469 0.0
C905 C 0.62782 0.52656 0.08084 0.0
C906 C 0.63507 0.49667 0.12654 0.0
C907 C 0.65074 0.50897 0.11481 0.0
C908 C 0.63171 0.50065 0.22905 0.0
C909 C 0.62842 0.44951 0.07212 0.0
C910 C 0.61845 0.45249 1.00916 0.0
C911 C 0.61091 0.41387 0.95052 0.0
C912 C 0.61363 0.37103 0.9559 0.0
C913 C 0.62391 0.36685 1.01903 0.0
C914 C 0.63134 0.40685 0.07829 0.0
H915 H 0.37098 0.93182 0.13291 0.0
H916 H 0.40488 0.90718 0.95954 0.0
H917 H 0.40854 0.98569 0.9277 0.0
H918 H 0.3566 0.99773 0.99994 0.0
H919 H 0.35275 0.03579 0.10034 0.0
H920 H 0.35366 0.97842 0.10864 0.0
H921 H 0.37171 0.0142 0.24558 0.0
H922 H 0.37099 0.07118 0.23029 0.0
H923 H 0.38732 0.05397 0.22667 0.0
H924 H 0.40741 0.06523 0.90521 0.0
H925 H 0.40214 0.14063 0.89938 0.0
H926 H 0.36899 0.11352 0.08726 0.0
C927 C 0.37925 0.94314 0.08903 0.0
C928 C 0.38763 0.91328 0.04877 0.0
C929 C 0.39842 0.92953 0.99217 0.0
C930 C 0.40055 0.97406 0.97324 0.0
C931 C 0.39193 0.00233 1.01245 0.0
C932 C 0.38164 0.98778 0.07034 0.0
C933 C 0.37375 0.02487 0.10289 0.0
C934 C 0.35827 0.00809 0.07605 0.0
C935 C 0.37609 0.04207 0.20757 0.0
C936 C 0.38065 0.06139 0.04993 0.0
C937 C 0.3913 0.0481 0.99953 0.0
C938 C 0.39914 0.0761 0.94482 0.0
C939 C 0.39605 0.11883 0.94173 0.0
C940 C 0.38509 0.13297 0.99211 0.0
C941 C 0.37734 0.10366 0.04696 0.0
H942 H 0.38571 0.42249 0.92635 0.0
H943 H 0.35524 0.38693 0.12728 0.0
H944 H 0.35077 0.46479 0.1495 0.0
H945 H 0.40015 0.53458 0.03807 0.0
H946 H 0.40189 0.56166 0.93825 0.0
H947 H 0.40245 0.50241 0.92588 0.0
H948 H 0.38264 0.47585 0.80512 0.0
H949 H 0.38219 0.53507 0.80826 0.0
H950 H 0.3667 0.49465 0.82656 0.0
H951 H 0.35012 0.54748 0.15441 0.0
H952 H 0.35371 0.62924 0.14301 0.0
H953 H 0.38455 0.61139 0.93938 0.0
C954 C 0.37812 0.43106 0.97523 0.0
C955 C 0.3709 0.39849 0.02557 0.0
C956 C 0.36091 0.41109 0.08782 0.0
C957 C 0.35828 0.45531 0.10097 0.0
C958 C 0.36562 0.48659 0.0508 0.0
C959 C 0.3753 0.47506 0.98888 0.0
C960 C 0.38177 0.51534 0.944 0.0
C961 C 0.3975 0.52935 0.96304 0.0
C962 C 0.3781 0.50458 0.83981 0.0
C963 C 0.37466 0.55169 0.99324 0.0
C964 C 0.3652 0.53423 0.05341 0.0
C965 C 0.35745 0.56145 0.10716 0.0
C966 C 0.35953 0.60784 0.09999 0.0
C967 C 0.36942 0.62671 0.04035 0.0
C968 C 0.37695 0.59799 0.98577 0.0
H969 H 0.62148 0.06149 0.94493 0.0
H970 H 0.65689 0.13867 0.1226 0.0
H971 H 0.66068 0.06729 0.16322 0.0
H972 H 0.6084 0.98344 0.08573 0.0
H973 H 0.60397 0.93149 1.0002 0.0
H974 H 0.60366 0.98526 0.9685 0.0
H975 H 0.6207 0.97872 0.84182 0.0
H976 H 0.62034 0.9215 0.86043 0.0
H977 H 0.63663 0.96209 0.8637 0.0
H978 H 0.66027 0.98698 0.18971 0.0
H979 H 0.65562 0.90413 0.19615 0.0
H980 H 0.62051 0.87971 1.00344 0.0
C981 C 0.62998 0.06352 0.99271 0.0
C982 C 0.63869 0.10626 0.03165 0.0
C983 C 0.64993 0.1068 0.09213 0.0
C984 C 0.65221 0.06625 0.1158 0.0
C985 C 0.64328 0.02498 0.07787 0.0
C986 C 0.63245 0.02319 1.01696 0.0
C987 C 0.62442 0.97416 0.98596 0.0
C988 C 0.60922 0.96835 1.012 0.0
C989 C 0.6256 0.95818 0.8818 0.0
C990 C 0.63208 0.94924 0.04149 0.0
C991 C 0.64306 0.97893 0.09317 0.0
C992 C 0.65167 0.96345 0.14953 0.0
C993 C 0.64893 0.91641 0.15305 0.0
C994 C 0.63756 0.88561 0.10167 0.0
C995 C 0.62911 0.9025 0.04512 0.0
H996 H 0.13209 0.30162 0.30603 0.0
H997 H 0.12707 0.15414 0.26915 0.0
H998 H 0.128 0.14905 0.10103 0.0
H999 H 0.11099 0.29893 0.10219 0.0
H1000 H 0.12138 0.34937 0.06887 0.0
H1001 H 0.12107 0.34365 0.18842 0.0
H1002 H 0.14778 0.35404 0.19752 0.0
H1003 H 0.14779 0.36286 0.07999 0.0
H1004 H 0.15584 0.31961 0.11031 0.0
H1005 H 0.12826 0.15785 0.93176 0.0
H1006 H 0.13016 0.18157 0.77946 0.0
H1007 H 0.13581 0.3235 0.91531 0.0
C1008 C 0.13151 0.26841 0.26276 0.0
C1009 C 0.12972 0.22812 0.30346 0.0
C1010 C 0.12859 0.18557 0.24194 0.0
C1011 C 0.12906 0.18225 0.14528 0.0
C1012 C 0.1306 0.22183 0.10733 0.0
C1013 C 0.13199 0.26436 0.16399 0.0
C1014 C 0.13323 0.30111 0.10309 0.0
C1015 C 0.12094 0.32467 0.11644 0.0
C1016 C 0.14699 0.3365 0.12416 0.0
C1017 C 0.13271 0.27277 1.00476 0.0
C1018 C 0.13091 0.22692 1.0092 0.0
C1019 C 0.12978 0.19381 0.92811 0.0
C1020 C 0.13079 0.20759 0.84101 0.0
C1021 C 0.13301 0.25441 0.8332 0.0
C1022 C 0.13403 0.28731 0.91751 0.0
H1023 H 0.88249 0.33878 0.28438 0.0
H1024 H 0.87905 0.1939 0.27685 0.0
H1025 H 0.87621 0.17951 0.10624 0.0
H1026 H 0.85836 0.3296 0.08384 0.0
H1027 H 0.86911 0.37815 0.04633 0.0
H1028 H 0.86907 0.37441 0.16693 0.0
H1029 H 0.89561 0.3852 0.16394 0.0
H1030 H 0.89569 0.38462 0.04154 0.0
H1031 H 0.90306 0.34395 0.08906 0.0
H1032 H 0.8728 0.18077 0.93169 0.0
H1033 H 0.87205 0.19814 0.77432 0.0
H1034 H 0.88015 0.34318 0.8897 0.0
C1035 C 0.88075 0.30383 0.24688 0.0
C1036 C 0.88009 0.26699 0.29591 0.0
C1037 C 0.87872 0.22234 0.2427 0.0
C1038 C 0.87727 0.21397 0.14501 0.0
C1039 C 0.87757 0.25072 0.09916 0.0
C1040 C 0.87943 0.29495 0.14858 0.0
C1041 C 0.88041 0.32877 0.08209 0.0
C1042 C 0.86853 0.35426 0.09569 0.0
C1043 C 0.89453 0.36265 0.09485 0.0
C1044 C 0.87883 0.29688 0.98763 0.0
C1045 C 0.87697 0.25186 0.99926 0.0
C1046 C 0.87456 0.21606 0.92256 0.0
C1047 C 0.87429 0.22629 0.83262 0.0
C1048 C 0.87674 0.27212 0.81763 0.0
C1049 C 0.87874 0.30776 0.89747 0.0
H1050 H 0.1315 0.66585 0.14003 0.0
H1051 H 0.13838 0.81095 0.25304 0.0
H1052 H 0.13734 0.82736 0.09491 0.0
H1053 H 0.15287 0.67929 0.94164 0.0
H1054 H 0.14198 0.63273 0.86336 0.0
H1055 H 0.1426 0.6316 0.98504 0.0
H1056 H 0.11606 0.62239 0.9893 0.0
H1057 H 0.11529 0.62276 0.86737 0.0
H1058 H 0.10811 0.66319 0.94691 0.0
H1059 H 0.13392 0.82747 0.91944 0.0
H1060 H 0.13104 0.81208 0.7489 0.0
H1061 H 0.12878 0.66803 0.74431 0.0
C1062 C 0.1326 0.70107 0.13159 0.0
C1063 C 0.13436 0.73693 0.21099 0.0
C1064 C 0.13642 0.78257 0.19507 0.0
C1065 C 0.13594 0.79226 0.10471 0.0
C1066 C 0.13379 0.75619 0.02845 0.0
C1067 C 0.13236 0.71144 0.041 0.0
C1068 C 0.13076 0.67914 0.94693 0.0
C1069 C 0.14277 0.6542 0.93348 0.0
C1070 C 0.11672 0.64483 0.93703 0.0
C1071 C 0.13142 0.71241 0.87957 0.0
C1072 C 0.13303 0.75672 0.92821 0.0
C1073 C 0.13307 0.79297 0.88138 0.0
C1074 C 0.13163 0.78403 0.78363 0.0
C1075 C 0.13063 0.7394 0.73108 0.0
C1076 C 0.13022 0.70303 0.78112 0.0
H1077 H 0.87637 0.69647 0.72305 0.0
H1078 H 0.88339 0.84396 0.75115 0.0
H1079 H 0.88089 0.85117 0.91942 0.0
H1080 H 0.85094 0.68281 0.9141 0.0
H1081 H 0.85831 0.6387 0.94722 0.0
H1082 H 0.85891 0.64691 0.82921 0.0
H1083 H 0.88541 0.65383 0.8438 0.0
H1084 H 0.8847 0.65008 0.96429 0.0
H1085 H 0.89565 0.69892 0.92862 0.0
H1086 H 0.87963 0.84368 0.09155 0.0
H1087 H 0.87761 0.8212 0.24523 0.0
H1088 H 0.8704 0.67834 0.11318 0.0
C1089 C 0.87682 0.73014 0.76407 0.0
C1090 C 0.87953 0.7697 0.72096 0.0
C1091 C 0.88085 0.813 0.78002 0.0
C1092 C 0.87955 0.81748 0.87674 0.0
C1093 C 0.87706 0.77834 0.91701 0.0
C1094 C 0.8755 0.73527 0.86231 0.0
C1095 C 0.87355 0.69905 0.92467 0.0
C1096 C 0.85959 0.66485 0.90229 0.0
C1097 C 0.88554 0.67398 0.91476 0.0
C1098 C 0.87393 0.72825 0.02194 0.0
C1099 C 0.87624 0.77406 1.01581 0.0
C1100 C 0.87766 0.80776 0.09625 0.0
C1101 C 0.87655 0.79466 0.18418 0.0
C1102 C 0.87392 0.74795 0.19356 0.0
C1103 C 0.87242 0.71444 0.10987 0.0
H1104 H 0.62616 0.66497 0.35225 0.0
H1105 H 0.63747 0.8111 0.35841 0.0
H1106 H 0.63647 0.82523 0.52898 0.0
H1107 H 0.60296 0.66609 0.55016 0.0
H1108 H 0.60904 0.62064 0.58884 0.0
H1109 H 0.60922 0.62423 0.46818 0.0
H1110 H 0.6352 0.62294 0.47432 0.0
H1111 H 0.63543 0.62369 0.59678 0.0
H1112 H 0.64702 0.66772 0.55046 0.0
H1113 H 0.63338 0.82318 0.70387 0.0
H1114 H 0.63092 0.80545 0.86122 0.0
H1115 H 0.62376 0.66051 0.7464 0.0
C1116 C 0.62809 0.70001 0.3894 0.0
C1117 C 0.63108 0.73707 0.34 0.0
C1118 C 0.63435 0.78216 0.39281 0.0
C1119 C 0.63396 0.79045 0.49048 0.0
C1120 C 0.63063 0.75332 0.53667 0.0
C1121 C 0.62788 0.70886 0.48759 0.0
C1122 C 0.6255 0.67494 0.55427 0.0
C1123 C 0.61081 0.64467 0.53938 0.0
C1124 C 0.63644 0.64557 0.54336 0.0
C1125 C 0.62726 0.70703 0.64845 0.0
C1126 C 0.63006 0.75217 0.6366 0.0
C1127 C 0.63146 0.78789 0.71314 0.0
C1128 C 0.63019 0.7775 0.80307 0.0
C1129 C 0.6278 0.73169 0.81815 0.0
C1130 C 0.62606 0.69604 0.73852 0.0
H1131 H 0.38341 0.84597 0.77642 0.0
H1132 H 0.37844 0.70055 0.77031 0.0
H1133 H 0.37589 0.68609 0.59948 0.0
H1134 H 0.35964 0.83895 0.57397 0.0
H1135 H 0.37095 0.88714 0.5391 0.0
H1136 H 0.37045 0.8824 0.65919 0.0
H1137 H 0.39704 0.89126 0.65576 0.0
H1138 H 0.3973 0.89009 0.53316 0.0
H1139 H 0.40411 0.84864 0.582 0.0
H1140 H 0.37329 0.68757 0.4242 0.0
H1141 H 0.37274 0.70502 0.26675 0.0
H1142 H 0.3811 0.8501 0.38231 0.0
C1143 C 0.38143 0.81093 0.73916 0.0
C1144 C 0.38036 0.77408 0.78849 0.0
C1145 C 0.37856 0.72916 0.73574 0.0
C1146 C 0.37725 0.72072 0.63798 0.0
C1147 C 0.37804 0.75759 0.59175 0.0
C1148 C 0.38017 0.80195 0.64092 0.0
C1149 C 0.3815 0.83578 0.57431 0.0
C1150 C 0.36995 0.86268 0.58758 0.0
C1151 C 0.39584 0.8684 0.58698 0.0
C1152 C 0.37971 0.80375 0.48008 0.0
C1153 C 0.3776 0.75868 0.49179 0.0
C1154 C 0.37515 0.72287 0.41506 0.0
C1155 C 0.37496 0.73314 0.3251 0.0
C1156 C 0.37741 0.77902 0.31028 0.0
C1157 C 0.37959 0.81465 0.39004 0.0
H1158 H 0.62986 0.29599 0.3227 0.0
H1159 H 0.62927 0.15248 0.22513 0.0
H1160 H 0.63212 0.14195 0.38574 0.0
H1161 H 0.65548 0.31421 0.52727 0.0
H1162 H 0.64628 0.35283 0.59414 0.0
H1163 H 0.64623 0.34735 0.47036 0.0
H1164 H 0.61933 0.33013 0.47523 0.0
H1165 H 0.61975 0.3303 0.59744 0.0
H1166 H 0.61048 0.28044 0.51864 0.0
H1167 H 0.63315 0.14518 0.56364 0.0
H1168 H 0.63449 0.16417 0.73503 0.0
H1169 H 0.6353 0.30588 0.72216 0.0
C1170 C 0.63092 0.2628 0.33482 0.0
C1171 C 0.62999 0.22548 0.25866 0.0
C1172 C 0.63055 0.18214 0.28014 0.0
C1173 C 0.63202 0.17569 0.37213 0.0
C1174 C 0.63278 0.21274 0.44518 0.0
C1175 C 0.63249 0.25577 0.42748 0.0
C1176 C 0.63302 0.28944 0.51924 0.0
C1177 C 0.64603 0.32829 0.52811 0.0
C1178 C 0.61986 0.30873 0.52818 0.0
C1179 C 0.63369 0.25888 0.59068 0.0
C1180 C 0.63338 0.21454 0.54651 0.0
C1181 C 0.63351 0.18001 0.59819 0.0
C1182 C 0.63417 0.19099 0.69627 0.0
C1183 C 0.63479 0.23637 0.74391 0.0
C1184 C 0.63469 0.27065 0.68896 0.0
H1185 H 0.38429 0.33985 0.34229 0.0
H1186 H 0.37704 0.19764 0.20564 0.0
H1187 H 0.37477 0.1737 0.3574 0.0
H1188 H 0.40382 0.33243 0.54088 0.0
H1189 H 0.39594 0.36914 0.62465 0.0
H1190 H 0.39667 0.3768 0.50634 0.0
H1191 H 0.37029 0.36736 0.49354 0.0
H1192 H 0.36939 0.36162 0.61304 0.0
H1193 H 0.35917 0.31788 0.52566 0.0
H1194 H 0.37364 0.16439 0.52668 0.0
H1195 H 0.37207 0.16927 0.69447 0.0
H1196 H 0.37945 0.31741 0.73262 0.0
C1197 C 0.38217 0.3036 0.34422 0.0
C1198 C 0.38074 0.27072 0.25955 0.0
C1199 C 0.37801 0.22376 0.26722 0.0
C1200 C 0.37678 0.2098 0.35415 0.0
C1201 C 0.3782 0.24286 0.4355 0.0
C1202 C 0.38063 0.28888 0.43141 0.0
C1203 C 0.38122 0.31712 0.52995 0.0
C1204 C 0.39525 0.35088 0.55183 0.0
C1205 C 0.36931 0.34252 0.54121 0.0
C1206 C 0.37926 0.28007 0.59053 0.0
C1207 C 0.37746 0.23749 0.53355 0.0
C1208 C 0.37509 0.19766 0.57115 0.0
C1209 C 0.37426 0.20087 0.6677 0.0
C1210 C 0.37589 0.24354 0.72966 0.0
C1211 C 0.37851 0.28404 0.68925 0.0
H1212 H 0.02412 0.13409 0.42881 0.0
H1213 H 0.04322 0.25959 0.61555 0.0
H1214 H 0.02074 0.28353 0.62202 0.0
H1215 H 0.99931 0.18062 0.30705 0.0
H1216 H 0.98608 0.12901 0.30083 0.0
H1217 H 1.00407 0.12613 0.29998 0.0
H1218 H 1.00081 0.08506 0.44044 0.0
H1219 H 0.98288 0.08792 0.4419 0.0
H1220 H 0.99394 0.1118 0.54397 0.0
H1221 H 0.99502 0.28869 0.6206 0.0
H1222 H 0.96933 0.2736 0.61456 0.0
H1223 H 0.96771 0.14327 0.43345 0.0
C1224 C 0.02366 0.16698 0.47022 0.0
C1225 C 0.03543 0.19488 0.5221 0.0
C1226 C 0.03439 0.23782 0.5746 0.0
C1227 C 0.02164 0.25158 0.57881 0.0
C1228 C 0.01009 0.2222 0.52937 0.0
C1229 C 0.0111 0.18088 0.47558 0.0
C1230 C 0.99713 0.15329 0.43534 0.0
C1231 C 0.99662 0.14691 0.32952 0.0
C1232 C 0.99348 0.1068 0.46738 0.0
C1233 C 0.98794 0.18468 0.47707 0.0
C1234 C 0.99554 0.22472 0.52983 0.0
C1235 C 0.98904 0.25769 0.5785 0.0
C1236 C 0.97446 0.24897 0.5745 0.0
C1237 C 0.96658 0.20732 0.52348 0.0
C1238 C 0.97349 0.17545 0.47285 0.0
H1239 H 0.97348 0.70019 0.45222 0.0
H1240 H 0.97681 0.8449 0.55518 0.0
H1241 H 1.00138 0.85306 0.60317 0.0
H1242 H 0.99693 0.68103 0.63283 0.0
H1243 H 1.00391 0.64093 0.55124 0.0
H1244 H 0.98634 0.64633 0.53528 0.0
H1245 H 0.99174 0.66248 0.37125 0.0
H1246 H 0.0094 0.65826 0.38741 0.0
H1247 H 0.0057 0.70938 0.35691 0.0
H1248 H 0.02649 0.84656 0.62225 0.0
H1249 H 0.04902 0.82401 0.63069 0.0
H1250 H 0.02901 0.68306 0.51849 0.0
C1251 C 0.97926 0.73312 0.48843 0.0
C1252 C 0.97319 0.77171 0.5027 0.0
C1253 C 0.98119 0.81474 0.54646 0.0
C1254 C 0.99518 0.81971 0.57288 0.0
C1255 C 1.00101 0.78123 0.55523 0.0
C1256 C 0.9932 0.73853 0.51576 0.0
C1257 C 1.00201 0.70295 0.50098 0.0
C1258 C 0.997 0.66561 0.55854 0.0
C1259 C 1.00222 0.68206 0.39803 0.0
C1260 C 0.01604 0.73231 0.53686 0.0
C1261 C 0.0153 0.77745 0.56727 0.0
C1262 C 0.02712 0.81117 0.59973 0.0
C1263 C 0.0399 0.79818 0.60343 0.0
C1264 C 0.04078 0.75182 0.5756 0.0
C1265 C 0.02865 0.71872 0.54109 0.0
H1266 H 0.52704 0.69677 0.83342 0.0
H1267 H 0.5428 0.75607 0.11399 0.0
H1268 H 0.51958 0.76773 0.15603 0.0
H1269 H 0.50136 0.76572 0.81896 0.0
H1270 H 0.48888 0.71793 0.75524 0.0
H1271 H 0.50711 0.72026 0.74391 0.0
H1272 H 0.50398 0.64053 0.79036 0.0
H1273 H 0.48576 0.63789 0.8014 0.0
H1274 H 0.49603 0.63149 0.8972 0.0
H1275 H 0.49391 0.76714 0.17087 0.0
H1276 H 0.46824 0.75043 0.15822 0.0
H1277 H 0.46918 0.68652 0.87198 0.0
C1278 C 0.52573 0.71229 0.9039 0.0
C1279 C 0.53697 0.72552 0.97005 0.0
C1280 C 0.53459 0.74638 0.061 0.0
C1281 C 0.52135 0.75293 0.08586 0.0
C1282 C 0.5105 0.7384 1.01932 0.0
C1283 C 0.51257 0.71835 0.93022 0.0
C1284 C 0.49904 0.7021 0.87346 0.0
C1285 C 0.49911 0.72806 0.79314 0.0
C1286 C 0.49603 0.64992 0.8386 0.0
C1287 C 0.48895 0.71521 0.94497 0.0
C1288 C 0.49576 0.73688 0.02834 0.0
C1289 C 0.48852 0.75067 0.10561 0.0
C1290 C 0.47397 0.74127 0.09785 0.0
C1291 C 0.46684 0.718 1.01382 0.0
C1292 C 0.47445 0.70525 0.93639 0.0
H1293 H 0.47795 0.27948 0.88271 0.0
H1294 H 0.46964 0.27468 0.16914 0.0
H1295 H 0.49208 0.2529 0.18958 0.0
H1296 H 0.49514 0.18213 0.84155 0.0
H1297 H 0.5072 0.20856 0.76556 0.0
H1298 H 0.49017 0.22051 0.77438 0.0
H1299 H 0.50121 0.30743 0.81554 0.0
H1300 H 0.51827 0.29572 0.80901 0.0
H1301 H 0.51336 0.32869 0.91291 0.0
H1302 H 0.51674 0.23793 0.17979 0.0
H1303 H 0.53944 0.22031 0.13526 0.0
H1304 H 0.53095 0.23442 0.85495 0.0
C1305 C 0.48073 0.27274 0.94914 0.0
C1306 C 0.47205 0.27828 0.02423 0.0
C1307 C 0.47606 0.26978 0.11045 0.0
C1308 C 0.48884 0.25792 0.12279 0.0
C1309 C 0.4974 0.25429 0.0479 0.0
C1310 C 0.49333 0.26053 0.96224 0.0
C1311 C 0.50432 0.25489 0.89268 0.0
C1312 C 0.49888 0.21409 0.81391 0.0
C1313 C 0.5096 0.29934 0.85539 0.0
C1314 C 0.51534 0.24513 0.95254 0.0
C1315 C 0.51127 0.24518 0.04208 0.0
C1316 C 0.51995 0.23748 0.10964 0.0
C1317 C 0.53288 0.228 0.08412 0.0
C1318 C 0.53694 0.22598 0.99177 0.0
C1319 C 0.5281 0.23557 0.92605 0.0
loop_
_geom_bond_atom_site_label_1
_geom_bond_atom_site_label_2
_geom_bond_distance
_geom_bond_site_symmetry_2
_ccdc_geom_bond_type
Eu0 N31 2.657 . S
Eu0 N38 2.609 . S
Eu0 O44 2.558 . S
Eu0 O45 2.612 . S
Eu0 O47 2.339 . S
Eu0 O48 2.563 . S
Eu0 O49 2.419 . S
Eu0 O51 2.380 . S
Eu0 O52 2.432 . S
Eu0 C64 2.848 . S
C1 C4 1.429 . S
C1 C5 1.411 . S
C1 N8 1.377 . S
C2 C4 1.420 . S
C2 C6 1.423 . S
C2 C14 1.392 . S
C3 C5 1.420 . S
C3 C6 1.351 . S
C3 H26 0.931 . S
C4 C1 1.429 . S
C4 C2 1.420 . S
C4 N12 1.362 . S
C5 C1 1.411 . S
C5 C3 1.420 . S
C5 C10 1.395 . S
C6 C2 1.423 . S
C6 C3 1.351 . S
C6 H18 0.930 . S
C7 C9 1.400 . S
C7 C10 1.386 . S
C7 H19 0.930 . S
N8 C1 1.377 . S
N8 C9 1.321 . S
N8 Eu11 2.609 . S
C9 C7 1.400 . S
C9 N8 1.321 . S
C9 H16 0.930 . S
C10 C5 1.395 . S
C10 C7 1.386 . S
C10 H29 0.930 . S
Eu11 N8 2.609 . S
Eu11 N12 2.657 . S
Eu11 O45 2.380 . S
Eu11 O46 2.432 . S
Eu11 O50 2.558 . S
Eu11 O51 2.612 . S
Eu11 O53 2.339 . S
Eu11 O54 2.563 . S
Eu11 O55 2.419 . S
Eu11 C75 2.848 . S
N12 C4 1.362 . S
N12 Eu11 2.657 . S
N12 C13 1.334 . S
C13 N12 1.334 . S
C13 C15 1.413 . S
C13 H20 0.929 . S
C14 C2 1.392 . S
C14 C15 1.367 . S
C14 H22 0.930 . S
C15 C13 1.413 . S
C15 C14 1.367 . S
C15 H17 0.930 . S
H16 C9 0.930 . S
H17 C15 0.930 . S
H18 C6 0.930 . S
H19 C7 0.930 . S
H20 C13 0.929 . S
H21 C35 0.930 . S
H22 C14 0.930 . S
H23 C41 0.930 . S
H24 C32 0.929 . S
H25 C39 0.930 . S
H26 C3 0.931 . S
H27 C33 0.930 . S
H28 C66 0.930 . S
H29 C10 0.930 . S
H30 C65 0.931 . S
N31 Eu0 2.657 . S
N31 C32 1.334 . S
N31 C36 1.362 . S
C32 H24 0.929 . S
C32 N31 1.334 . S
C32 C35 1.413 . S
C33 H27 0.930 . S
C33 C34 1.392 . S
C33 C35 1.367 . S
C34 C33 1.392 . S
C34 C36 1.420 . S
C34 C66 1.423 . S
C35 H21 0.930 . S
C35 C32 1.413 . S
C35 C33 1.367 . S
C36 N31 1.362 . S
C36 C34 1.420 . S
C36 C40 1.429 . S
H37 C42 0.930 . S
N38 Eu0 2.609 . S
N38 C40 1.377 . S
N38 C41 1.321 . S
C39 H25 0.930 . S
C39 C41 1.400 . S
C39 C42 1.386 . S
C40 C36 1.429 . S
C40 N38 1.377 . S
C40 C43 1.411 . S
C41 H23 0.930 . S
C41 N38 1.321 . S
C41 C39 1.400 . S
C42 H37 0.930 . S
C42 C39 1.386 . S
C42 C43 1.395 . S
C43 C40 1.411 . S
C43 C42 1.395 . S
C43 C65 1.420 . S
O44 Eu0 2.558 . S
O44 C64 1.257 . S
O45 Eu0 2.612 . S
O45 Eu11 2.380 . S
O45 C56 1.276 . S
O46 Eu11 2.432 . S
O46 C63 1.264 . S
O47 Eu0 2.339 . S
O47 C63 1.254 . S
O48 Eu0 2.563 . S
O48 C56 1.235 . S
O49 Eu0 2.419 . S
O49 C64 1.249 . S
O50 Eu11 2.558 . S
O50 C75 1.257 . S
O51 Eu0 2.380 . S
O51 Eu11 2.612 . S
O51 C67 1.276 . S
O52 Eu0 2.432 . S
O52 C74 1.264 . S
O53 Eu11 2.339 . S
O53 C74 1.254 . S
O54 Eu11 2.563 . S
O54 C67 1.235 . S
O55 Eu11 2.419 . S
O55 C75 1.249 . S
C56 O45 1.276 . S
C56 O48 1.235 . S
C57 C59 1.393 . S
C57 C61 1.395 . S
C57 C64 1.492 . S
C58 C59 1.392 . S
C58 C60 1.386 . S
C59 C57 1.393 . S
C59 C58 1.392 . S
C59 H76 0.930 . S
C60 C58 1.386 . S
C60 C62 1.395 . S
C60 H77 0.930 . S
C61 C57 1.395 . S
C61 C62 1.379 . S
C61 H78 0.930 . S
C62 C60 1.395 . S
C62 C61 1.379 . S
C62 H79 0.930 . S
C63 O46 1.264 . S
C63 O47 1.254 . S
C64 Eu0 2.848 . S
C64 O44 1.257 . S
C64 O49 1.249 . S
C64 C57 1.492 . S
C65 H30 0.931 . S
C65 C43 1.420 . S
C65 C66 1.351 . S
C66 H28 0.930 . S
C66 C34 1.423 . S
C66 C65 1.351 . S
C67 O51 1.276 . S
C67 O54 1.235 . S
C68 C69 1.393 . S
C68 C72 1.395 . S
C68 C75 1.492 . S
C69 C68 1.393 . S
C69 C70 1.392 . S
C69 H80 0.930 . S
C70 C69 1.392 . S
C70 C71 1.386 . S
C71 C70 1.386 . S
C71 C73 1.395 . S
C71 H81 0.930 . S
C72 C68 1.395 . S
C72 C73 1.379 . S
C72 H82 0.930 . S
C73 C71 1.395 . S
C73 C72 1.379 . S
C73 H83 0.930 . S
C74 O52 1.264 . S
C74 O53 1.254 . S
C75 Eu11 2.848 . S
C75 O50 1.257 . S
C75 O55 1.249 . S
C75 C68 1.492 . S
H76 C59 0.930 . S
H77 C60 0.930 . S
H78 C61 0.930 . S
H79 C62 0.930 . S
H80 C69 0.930 . S
H81 C71 0.930 . S
H82 C72 0.930 . S
H83 C73 0.930 . S
Eu84 N115 2.657 . S
Eu84 N122 2.609 . S
Eu84 O128 2.558 . S
Eu84 O129 2.612 . S
Eu84 O131 2.339 . S
Eu84 O132 2.563 . S
Eu84 O133 2.419 . S
Eu84 O135 2.380 . S
Eu84 O136 2.432 . S
Eu84 C148 2.848 . S
C85 C88 1.429 . S
C85 C89 1.411 . S
C85 N92 1.377 . S
C86 C88 1.420 . S
C86 C90 1.423 . S
C86 C98 1.392 . S
C87 C89 1.420 . S
C87 C90 1.351 . S
C87 H110 0.931 . S
C88 C85 1.429 . S
C88 C86 1.420 . S
C88 N96 1.362 . S
C89 C85 1.411 . S
C89 C87 1.420 . S
C89 C94 1.395 . S
C90 C86 1.423 . S
C90 C87 1.351 . S
C90 H102 0.930 . S
C91 C93 1.400 . S
C91 C94 1.386 . S
C91 H103 0.930 . S
N92 C85 1.377 . S
N92 C93 1.321 . S
N92 Eu95 2.609 . S
C93 C91 1.400 . S
C93 N92 1.321 . S
C93 H100 0.930 . S
C94 C89 1.395 . S
C94 C91 1.386 . S
C94 H113 0.930 . S
Eu95 N92 2.609 . S
Eu95 N96 2.657 . S
Eu95 O129 2.380 . S
Eu95 O130 2.432 . S
Eu95 O134 2.558 . S
Eu95 O135 2.612 . S
Eu95 O137 2.339 . S
Eu95 O138 2.563 . S
Eu95 O139 2.419 . S
Eu95 C159 2.848 . S
N96 C88 1.362 . S
N96 Eu95 2.657 . S
N96 C97 1.334 . S
C97 N96 1.334 . S
C97 C99 1.413 . S
C97 H104 0.929 . S
C98 C86 1.392 . S
C98 C99 1.367 . S
C98 H106 0.930 . S
C99 C97 1.413 . S
C99 C98 1.367 . S
C99 H101 0.930 . S
H100 C93 0.930 . S
H101 C99 0.930 . S
H102 C90 0.930 . S
H103 C91 0.930 . S
H104 C97 0.929 . S
H105 C119 0.930 . S
H106 C98 0.930 . S
H107 C125 0.930 . S
H108 C116 0.929 . S
H109 C123 0.930 . S
H110 C87 0.931 . S
H111 C117 0.930 . S
H112 C150 0.930 . S
H113 C94 0.930 . S
H114 C149 0.931 . S
N115 Eu84 2.657 . S
N115 C116 1.334 . S
N115 C120 1.362 . S
C116 H108 0.929 . S
C116 N115 1.334 . S
C116 C119 1.413 . S
C117 H111 0.930 . S
C117 C118 1.392 . S
C117 C119 1.367 . S
C118 C117 1.392 . S
C118 C120 1.420 . S
C118 C150 1.423 . S
C119 H105 0.930 . S
C119 C116 1.413 . S
C119 C117 1.367 . S
C120 N115 1.362 . S
C120 C118 1.420 . S
C120 C124 1.429 . S
H121 C126 0.930 . S
N122 Eu84 2.609 . S
N122 C124 1.377 . S
N122 C125 1.321 . S
C123 H109 0.930 . S
C123 C125 1.400 . S
C123 C126 1.386 . S
C124 C120 1.429 . S
C124 N122 1.377 . S
C124 C127 1.411 . S
C125 H107 0.930 . S
C125 N122 1.321 . S
C125 C123 1.400 . S
C126 H121 0.930 . S
C126 C123 1.386 . S
C126 C127 1.395 . S
C127 C124 1.411 . S
C127 C126 1.395 . S
C127 C149 1.420 . S
O128 Eu84 2.558 . S
O128 C148 1.257 . S
O129 Eu84 2.612 . S
O129 Eu95 2.380 . S
O129 C140 1.276 . S
O130 Eu95 2.432 . S
O130 C147 1.264 . S
O131 Eu84 2.339 . S
O131 C147 1.254 . S
O132 Eu84 2.563 . S
O132 C140 1.235 . S
O133 Eu84 2.419 . S
O133 C148 1.249 . S
O134 Eu95 2.558 . S
O134 C159 1.257 . S
O135 Eu84 2.380 . S
O135 Eu95 2.612 . S
O135 C151 1.276 . S
O136 Eu84 2.432 . S
O136 C158 1.264 . S
O137 Eu95 2.339 . S
O137 C158 1.254 . S
O138 Eu95 2.563 . S
O138 C151 1.235 . S
O139 Eu95 2.419 . S
O139 C159 1.249 . S
C140 O129 1.276 . S
C140 O132 1.235 . S
C141 C143 1.393 . S
C141 C145 1.395 . S
C141 C148 1.492 . S
C142 C143 1.392 . S
C142 C144 1.386 . S
C143 C141 1.393 . S
C143 C142 1.392 . S
C143 H160 0.930 . S
C144 C142 1.386 . S
C144 C146 1.395 . S
C144 H161 0.930 . S
C145 C141 1.395 . S
C145 C146 1.379 . S
C145 H162 0.930 . S
C146 C144 1.395 . S
C146 C145 1.379 . S
C146 H163 0.930 . S
C147 O130 1.264 . S
C147 O131 1.254 . S
C148 Eu84 2.848 . S
C148 O128 1.257 . S
C148 O133 1.249 . S
C148 C141 1.492 . S
C149 H114 0.931 . S
C149 C127 1.420 . S
C149 C150 1.351 . S
C150 H112 0.930 . S
C150 C118 1.423 . S
C150 C149 1.351 . S
C151 O135 1.276 . S
C151 O138 1.235 . S
C152 C153 1.393 . S
C152 C156 1.395 . S
C152 C159 1.492 . S
C153 C152 1.393 . S
C153 C154 1.392 . S
C153 H164 0.930 . S
C154 C153 1.392 . S
C154 C155 1.386 . S
C155 C154 1.386 . S
C155 C157 1.395 . S
C155 H165 0.930 . S
C156 C152 1.395 . S
C156 C157 1.379 . S
C156 H166 0.930 . S
C157 C155 1.395 . S
C157 C156 1.379 . S
C157 H167 0.930 . S
C158 O136 1.264 . S
C158 O137 1.254 . S
C159 Eu95 2.848 . S
C159 O134 1.257 . S
C159 O139 1.249 . S
C159 C152 1.492 . S
H160 C143 0.930 . S
H161 C144 0.930 . S
H162 C145 0.930 . S
H163 C146 0.930 . S
H164 C153 0.930 . S
H165 C155 0.930 . S
H166 C156 0.930 . S
H167 C157 0.930 . S
Eu168 N199 2.657 . S
Eu168 N206 2.609 . S
Eu168 O212 2.558 . S
Eu168 O213 2.612 . S
Eu168 O215 2.339 . S
Eu168 O216 2.563 . S
Eu168 O217 2.419 . S
Eu168 O219 2.380 . S
Eu168 O220 2.432 . S
Eu168 C232 2.848 . S
C169 C172 1.429 . S
C169 C173 1.411 . S
C169 N176 1.377 . S
C170 C172 1.420 . S
C170 C174 1.423 . S
C170 C182 1.392 . S
C171 C173 1.420 . S
C171 C174 1.351 . S
C171 H194 0.931 . S
C172 C169 1.429 . S
C172 C170 1.420 . S
C172 N180 1.362 . S
C173 C169 1.411 . S
C173 C171 1.420 . S
C173 C178 1.395 . S
C174 C170 1.423 . S
C174 C171 1.351 . S
C174 H186 0.930 . S
C175 C177 1.400 . S
C175 C178 1.386 . S
C175 H187 0.930 . S
N176 C169 1.377 . S
N176 C177 1.321 . S
N176 Eu179 2.609 . S
C177 C175 1.400 . S
C177 N176 1.321 . S
C177 H184 0.930 . S
C178 C173 1.395 . S
C178 C175 1.386 . S
C178 H197 0.930 . S
Eu179 N176 2.609 . S
Eu179 N180 2.657 . S
Eu179 O213 2.380 . S
Eu179 O214 2.432 . S
Eu179 O218 2.558 . S
Eu179 O219 2.612 . S
Eu179 O221 2.339 . S
Eu179 O222 2.563 . S
Eu179 O223 2.419 . S
Eu179 C243 2.848 . S
N180 C172 1.362 . S
N180 Eu179 2.657 . S
N180 C181 1.334 . S
C181 N180 1.334 . S
C181 C183 1.413 . S
C181 H188 0.929 . S
C182 C170 1.392 . S
C182 C183 1.367 . S
C182 H190 0.930 . S
C183 C181 1.413 . S
C183 C182 1.367 . S
C183 H185 0.930 . S
H184 C177 0.930 . S
H185 C183 0.930 . S
H186 C174 0.930 . S
H187 C175 0.930 . S
H188 C181 0.929 . S
H189 C203 0.930 . S
H190 C182 0.930 . S
H191 C209 0.930 . S
H192 C200 0.929 . S
H193 C207 0.930 . S
H194 C171 0.931 . S
H195 C201 0.930 . S
H196 C234 0.930 . S
H197 C178 0.930 . S
H198 C233 0.931 . S
N199 Eu168 2.657 . S
N199 C200 1.334 . S
N199 C204 1.362 . S
C200 H192 0.929 . S
C200 N199 1.334 . S
C200 C203 1.413 . S
C201 H195 0.930 . S
C201 C202 1.392 . S
C201 C203 1.367 . S
C202 C201 1.392 . S
C202 C204 1.420 . S
C202 C234 1.423 . S
C203 H189 0.930 . S
C203 C200 1.413 . S
C203 C201 1.367 . S
C204 N199 1.362 . S
C204 C202 1.420 . S
C204 C208 1.429 . S
H205 C210 0.930 . S
N206 Eu168 2.609 . S
N206 C208 1.377 . S
N206 C209 1.321 . S
C207 H193 0.930 . S
C207 C209 1.400 . S
C207 C210 1.386 . S
C208 C204 1.429 . S
C208 N206 1.377 . S
C208 C211 1.411 . S
C209 H191 0.930 . S
C209 N206 1.321 . S
C209 C207 1.400 . S
C210 H205 0.930 . S
C210 C207 1.386 . S
C210 C211 1.395 . S
C211 C208 1.411 . S
C211 C210 1.395 . S
C211 C233 1.420 . S
O212 Eu168 2.558 . S
O212 C232 1.257 . S
O213 Eu168 2.612 . S
O213 Eu179 2.380 . S
O213 C224 1.276 . S
O214 Eu179 2.432 . S
O214 C231 1.264 . S
O215 Eu168 2.339 . S
O215 C231 1.254 . S
O216 Eu168 2.563 . S
O216 C224 1.235 . S
O217 Eu168 2.419 . S
O217 C232 1.249 . S
O218 Eu179 2.558 . S
O218 C243 1.257 . S
O219 Eu168 2.380 . S
O219 Eu179 2.612 . S
O219 C235 1.276 . S
O220 Eu168 2.432 . S
O220 C242 1.264 . S
O221 Eu179 2.339 . S
O221 C242 1.254 . S
O222 Eu179 2.563 . S
O222 C235 1.235 . S
O223 Eu179 2.419 . S
O223 C243 1.249 . S
C224 O213 1.276 . S
C224 O216 1.235 . S
C225 C227 1.393 . S
C225 C229 1.395 . S
C225 C232 1.492 . S
C226 C227 1.392 . S
C226 C228 1.386 . S
C227 C225 1.393 . S
C227 C226 1.392 . S
C227 H244 0.930 . S
C228 C226 1.386 . S
C228 C230 1.395 . S
C228 H245 0.930 . S
C229 C225 1.395 . S
C229 C230 1.379 . S
C229 H246 0.930 . S
C230 C228 1.395 . S
C230 C229 1.379 . S
C230 H247 0.930 . S
C231 O214 1.264 . S
C231 O215 1.254 . S
C232 Eu168 2.848 . S
C232 O212 1.257 . S
C232 O217 1.249 . S
C232 C225 1.492 . S
C233 H198 0.931 . S
C233 C211 1.420 . S
C233 C234 1.351 . S
C234 H196 0.930 . S
C234 C202 1.423 . S
C234 C233 1.351 . S
C235 O219 1.276 . S
C235 O222 1.235 . S
C236 C237 1.393 . S
C236 C240 1.395 . S
C236 C243 1.492 . S
C237 C236 1.393 . S
C237 C238 1.392 . S
C237 H248 0.930 . S
C238 C237 1.392 . S
C238 C239 1.386 . S
C239 C238 1.386 . S
C239 C241 1.395 . S
C239 H249 0.930 . S
C240 C236 1.395 . S
C240 C241 1.379 . S
C240 H250 0.930 . S
C241 C239 1.395 . S
C241 C240 1.379 . S
C241 H251 0.930 . S
C242 O220 1.264 . S
C242 O221 1.254 . S
C243 Eu179 2.848 . S
C243 O218 1.257 . S
C243 O223 1.249 . S
C243 C236 1.492 . S
H244 C227 0.930 . S
H245 C228 0.930 . S
H246 C229 0.930 . S
H247 C230 0.930 . S
H248 C237 0.930 . S
H249 C239 0.930 . S
H250 C240 0.930 . S
H251 C241 0.930 . S
Eu252 N283 2.657 . S
Eu252 N290 2.609 . S
Eu252 O296 2.558 . S
Eu252 O297 2.612 . S
Eu252 O299 2.339 . S
Eu252 O300 2.563 . S
Eu252 O301 2.419 . S
Eu252 O303 2.380 . S
Eu252 O304 2.432 . S
Eu252 C316 2.848 . S
C253 C256 1.429 . S
C253 C257 1.411 . S
C253 N260 1.377 . S
C254 C256 1.420 . S
C254 C258 1.423 . S
C254 C266 1.392 . S
C255 C257 1.420 . S
C255 C258 1.351 . S
C255 H278 0.931 . S
C256 C253 1.429 . S
C256 C254 1.420 . S
C256 N264 1.362 . S
C257 C253 1.411 . S
C257 C255 1.420 . S
C257 C262 1.395 . S
C258 C254 1.423 . S
C258 C255 1.351 . S
C258 H270 0.930 . S
C259 C261 1.400 . S
C259 C262 1.386 . S
C259 H271 0.930 . S
N260 C253 1.377 . S
N260 C261 1.321 . S
N260 Eu263 2.609 . S
C261 C259 1.400 . S
C261 N260 1.321 . S
C261 H268 0.930 . S
C262 C257 1.395 . S
C262 C259 1.386 . S
C262 H281 0.930 . S
Eu263 N260 2.609 . S
Eu263 N264 2.657 . S
Eu263 O297 2.380 . S
Eu263 O298 2.432 . S
Eu263 O302 2.558 . S
Eu263 O303 2.612 . S
Eu263 O305 2.339 . S
Eu263 O306 2.563 . S
Eu263 O307 2.419 . S
Eu263 C327 2.848 . S
N264 C256 1.362 . S
N264 Eu263 2.657 . S
N264 C265 1.334 . S
C265 N264 1.334 . S
C265 C267 1.413 . S
C265 H272 0.929 . S
C266 C254 1.392 . S
C266 C267 1.367 . S
C266 H274 0.930 . S
C267 C265 1.413 . S
C267 C266 1.367 . S
C267 H269 0.930 . S
H268 C261 0.930 . S
H269 C267 0.930 . S
H270 C258 0.930 . S
H271 C259 0.930 . S
H272 C265 0.929 . S
H273 C287 0.930 . S
H274 C266 0.930 . S
H275 C293 0.930 . S
H276 C284 0.929 . S
H277 C291 0.930 . S
H278 C255 0.931 . S
H279 C285 0.930 . S
H280 C318 0.930 . S
H281 C262 0.930 . S
H282 C317 0.931 . S
N283 Eu252 2.657 . S
N283 C284 1.334 . S
N283 C288 1.362 . S
C284 H276 0.929 . S
C284 N283 1.334 . S
C284 C287 1.413 . S
C285 H279 0.930 . S
C285 C286 1.392 . S
C285 C287 1.367 . S
C286 C285 1.392 . S
C286 C288 1.420 . S
C286 C318 1.423 . S
C287 H273 0.930 . S
C287 C284 1.413 . S
C287 C285 1.367 . S
C288 N283 1.362 . S
C288 C286 1.420 . S
C288 C292 1.429 . S
H289 C294 0.930 . S
N290 Eu252 2.609 . S
N290 C292 1.377 . S
N290 C293 1.321 . S
C291 H277 0.930 . S
C291 C293 1.400 . S
C291 C294 1.386 . S
C292 C288 1.429 . S
C292 N290 1.377 . S
C292 C295 1.411 . S
C293 H275 0.930 . S
C293 N290 1.321 . S
C293 C291 1.400 . S
C294 H289 0.930 . S
C294 C291 1.386 . S
C294 C295 1.395 . S
C295 C292 1.411 . S
C295 C294 1.395 . S
C295 C317 1.420 . S
O296 Eu252 2.558 . S
O296 C316 1.257 . S
O297 Eu252 2.612 . S
O297 Eu263 2.380 . S
O297 C308 1.276 . S
O298 Eu263 2.432 . S
O298 C315 1.264 . S
O299 Eu252 2.339 . S
O299 C315 1.254 . S
O300 Eu252 2.563 . S
O300 C308 1.235 . S
O301 Eu252 2.419 . S
O301 C316 1.249 . S
O302 Eu263 2.558 . S
O302 C327 1.257 . S
O303 Eu252 2.380 . S
O303 Eu263 2.612 . S
O303 C319 1.276 . S
O304 Eu252 2.432 . S
O304 C326 1.264 . S
O305 Eu263 2.339 . S
O305 C326 1.254 . S
O306 Eu263 2.563 . S
O306 C319 1.235 . S
O307 Eu263 2.419 . S
O307 C327 1.249 . S
C308 O297 1.276 . S
C308 O300 1.235 . S
C309 C311 1.393 . S
C309 C313 1.395 . S
C309 C316 1.492 . S
C310 C311 1.392 . S
C310 C312 1.386 . S
C311 C309 1.393 . S
C311 C310 1.392 . S
C311 H328 0.930 . S
C312 C310 1.386 . S
C312 C314 1.395 . S
C312 H329 0.930 . S
C313 C309 1.395 . S
C313 C314 1.379 . S
C313 H330 0.930 . S
C314 C312 1.395 . S
C314 C313 1.379 . S
C314 H331 0.930 . S
C315 O298 1.264 . S
C315 O299 1.254 . S
C316 Eu252 2.848 . S
C316 O296 1.257 . S
C316 O301 1.249 . S
C316 C309 1.492 . S
C317 H282 0.931 . S
C317 C295 1.420 . S
C317 C318 1.351 . S
C318 H280 0.930 . S
C318 C286 1.423 . S
C318 C317 1.351 . S
C319 O303 1.276 . S
C319 O306 1.235 . S
C320 C321 1.393 . S
C320 C324 1.395 . S
C320 C327 1.492 . S
C321 C320 1.393 . S
C321 C322 1.392 . S
C321 H332 0.930 . S
C322 C321 1.392 . S
C322 C323 1.386 . S
C323 C322 1.386 . S
C323 C325 1.395 . S
C323 H333 0.930 . S
C324 C320 1.395 . S
C324 C325 1.379 . S
C324 H334 0.930 . S
C325 C323 1.395 . S
C325 C324 1.379 . S
C325 H335 0.930 . S
C326 O304 1.264 . S
C326 O305 1.254 . S
C327 Eu263 2.848 . S
C327 O302 1.257 . S
C327 O307 1.249 . S
C327 C320 1.492 . S
H328 C311 0.930 . S
H329 C312 0.930 . S
H330 C313 0.930 . S
H331 C314 0.930 . S
H332 C321 0.930 . S
H333 C323 0.930 . S
H334 C324 0.930 . S
H335 C325 0.930 . S
Eu336 N367 2.657 . S
Eu336 N374 2.609 . S
Eu336 O380 2.558 1_554 S
Eu336 O381 2.612 1_554 S
Eu336 O383 2.339 . S
Eu336 O384 2.563 1_554 S
Eu336 O385 2.419 1_554 S
Eu336 O387 2.380 . S
Eu336 O388 2.432 1_554 S
Eu336 C400 2.848 1_554 S
C337 C340 1.429 . S
C337 C341 1.411 . S
C337 N344 1.377 . S
C338 C340 1.420 . S
C338 C342 1.423 . S
C338 C350 1.392 . S
C339 C341 1.420 . S
C339 C342 1.351 . S
C339 H362 0.931 . S
C340 C337 1.429 . S
C340 C338 1.420 . S
C340 N348 1.362 . S
C341 C337 1.411 . S
C341 C339 1.420 . S
C341 C346 1.395 . S
C342 C338 1.423 . S
C342 C339 1.351 . S
C342 H354 0.930 . S
C343 C345 1.400 . S
C343 C346 1.386 . S
C343 H355 0.930 . S
N344 C337 1.377 . S
N344 C345 1.321 . S
N344 Eu347 2.609 . S
C345 C343 1.400 . S
C345 N344 1.321 . S
C345 H352 0.930 . S
C346 C341 1.395 . S
C346 C343 1.386 . S
C346 H365 0.930 . S
Eu347 N344 2.609 . S
Eu347 N348 2.657 . S
Eu347 O381 2.380 . S
Eu347 O382 2.432 1_556 S
Eu347 O386 2.558 1_556 S
Eu347 O387 2.612 1_556 S
Eu347 O389 2.339 . S
Eu347 O390 2.563 1_556 S
Eu347 O391 2.419 1_556 S
Eu347 C411 2.848 1_556 S
N348 C340 1.362 . S
N348 Eu347 2.657 . S
N348 C349 1.334 . S
C349 N348 1.334 . S
C349 C351 1.413 . S
C349 H356 0.929 . S
C350 C338 1.392 . S
C350 C351 1.367 . S
C350 H358 0.930 . S
C351 C349 1.413 . S
C351 C350 1.367 . S
C351 H353 0.930 . S
H352 C345 0.930 . S
H353 C351 0.930 . S
H354 C342 0.930 . S
H355 C343 0.930 . S
H356 C349 0.929 . S
H357 C371 0.930 . S
H358 C350 0.930 . S
H359 C377 0.930 . S
H360 C368 0.929 . S
H361 C375 0.930 . S
H362 C339 0.931 . S
H363 C369 0.930 . S
H364 C402 0.930 . S
H365 C346 0.930 . S
H366 C401 0.931 . S
N367 Eu336 2.657 . S
N367 C368 1.334 . S
N367 C372 1.362 . S
C368 H360 0.929 . S
C368 N367 1.334 . S
C368 C371 1.413 . S
C369 H363 0.930 . S
C369 C370 1.392 . S
C369 C371 1.367 . S
C370 C369 1.392 . S
C370 C372 1.420 . S
C370 C402 1.423 . S
C371 H357 0.930 . S
C371 C368 1.413 . S
C371 C369 1.367 . S
C372 N367 1.362 . S
C372 C370 1.420 . S
C372 C376 1.429 . S
H373 C378 0.930 . S
N374 Eu336 2.609 . S
N374 C376 1.377 . S
N374 C377 1.321 . S
C375 H361 0.930 . S
C375 C377 1.400 . S
C375 C378 1.386 . S
C376 C372 1.429 . S
C376 N374 1.377 . S
C376 C379 1.411 . S
C377 H359 0.930 . S
C377 N374 1.321 . S
C377 C375 1.400 . S
C378 H373 0.930 . S
C378 C375 1.386 . S
C378 C379 1.395 . S
C379 C376 1.411 . S
C379 C378 1.395 . S
C379 C401 1.420 . S
O380 Eu336 2.558 1_556 S
O380 C400 1.257 . S
O381 Eu336 2.612 1_556 S
O381 Eu347 2.380 . S
O381 C392 1.276 . S
O382 Eu347 2.432 1_554 S
O382 C399 1.264 . S
O383 Eu336 2.339 . S
O383 C399 1.254 . S
O384 Eu336 2.563 1_556 S
O384 C392 1.235 . S
O385 Eu336 2.419 1_556 S
O385 C400 1.249 . S
O386 Eu347 2.558 1_554 S
O386 C411 1.257 . S
O387 Eu336 2.380 . S
O387 Eu347 2.612 1_554 S
O387 C403 1.276 . S
O388 Eu336 2.432 1_556 S
O388 C410 1.264 . S
O389 Eu347 2.339 . S
O389 C410 1.254 . S
O390 Eu347 2.563 1_554 S
O390 C403 1.235 . S
O391 Eu347 2.419 1_554 S
O391 C411 1.249 . S
C392 O381 1.276 . S
C392 O384 1.235 . S
C393 C395 1.393 . S
C393 C397 1.395 . S
C393 C400 1.492 . S
C394 C395 1.392 . S
C394 C396 1.386 . S
C395 C393 1.393 . S
C395 C394 1.392 . S
C395 H412 0.930 . S
C396 C394 1.386 . S
C396 C398 1.395 . S
C396 H413 0.930 . S
C397 C393 1.395 . S
C397 C398 1.379 . S
C397 H414 0.930 . S
C398 C396 1.395 . S
C398 C397 1.379 . S
C398 H415 0.930 . S
C399 O382 1.264 . S
C399 O383 1.254 . S
C400 Eu336 2.848 1_556 S
C400 O380 1.257 . S
C400 O385 1.249 . S
C400 C393 1.492 . S
C401 H366 0.931 . S
C401 C379 1.420 . S
C401 C402 1.351 . S
C402 H364 0.930 . S
C402 C370 1.423 . S
C402 C401 1.351 . S
C403 O387 1.276 . S
C403 O390 1.235 . S
C404 C405 1.393 . S
C404 C408 1.395 . S
C404 C411 1.492 . S
C405 C404 1.393 . S
C405 C406 1.392 . S
C405 H416 0.930 . S
C406 C405 1.392 . S
C406 C407 1.386 . S
C407 C406 1.386 . S
C407 C409 1.395 . S
C407 H417 0.930 . S
C408 C404 1.395 . S
C408 C409 1.379 . S
C408 H418 0.930 . S
C409 C407 1.395 . S
C409 C408 1.379 . S
C409 H419 0.930 . S
C410 O388 1.264 . S
C410 O389 1.254 . S
C411 Eu347 2.848 1_554 S
C411 O386 1.257 . S
C411 O391 1.249 . S
C411 C404 1.492 . S
H412 C395 0.930 . S
H413 C396 0.930 . S
H414 C397 0.930 . S
H415 C398 0.930 . S
H416 C405 0.930 . S
H417 C407 0.930 . S
H418 C408 0.930 . S
H419 C409 0.930 . S
Eu420 N451 2.657 . S
Eu420 N458 2.609 . S
Eu420 O464 2.558 1_556 S
Eu420 O465 2.612 1_556 S
Eu420 O467 2.339 . S
Eu420 O468 2.563 1_556 S
Eu420 O469 2.419 1_556 S
Eu420 O471 2.380 . S
Eu420 O472 2.432 1_556 S
Eu420 C484 2.848 1_556 S
C421 C424 1.429 . S
C421 C425 1.411 . S
C421 N428 1.377 . S
C422 C424 1.420 . S
C422 C426 1.423 . S
C422 C434 1.392 . S
C423 C425 1.420 . S
C423 C426 1.351 . S
C423 H446 0.931 . S
C424 C421 1.429 . S
C424 C422 1.420 . S
C424 N432 1.362 . S
C425 C421 1.411 . S
C425 C423 1.420 . S
C425 C430 1.395 . S
C426 C422 1.423 . S
C426 C423 1.351 . S
C426 H438 0.930 . S
C427 C429 1.400 . S
C427 C430 1.386 . S
C427 H439 0.930 . S
N428 C421 1.377 . S
N428 C429 1.321 . S
N428 Eu431 2.609 . S
C429 C427 1.400 . S
C429 N428 1.321 . S
C429 H436 0.930 . S
C430 C425 1.395 . S
C430 C427 1.386 . S
C430 H449 0.930 . S
Eu431 N428 2.609 . S
Eu431 N432 2.657 . S
Eu431 O465 2.380 . S
Eu431 O466 2.432 1_554 S
Eu431 O470 2.558 1_554 S
Eu431 O471 2.612 1_554 S
Eu431 O473 2.339 . S
Eu431 O474 2.563 1_554 S
Eu431 O475 2.419 1_554 S
Eu431 C495 2.848 1_554 S
N432 C424 1.362 . S
N432 Eu431 2.657 . S
N432 C433 1.334 . S
C433 N432 1.334 . S
C433 C435 1.413 . S
C433 H440 0.929 . S
C434 C422 1.392 . S
C434 C435 1.367 . S
C434 H442 0.930 . S
C435 C433 1.413 . S
C435 C434 1.367 . S
C435 H437 0.930 . S
H436 C429 0.930 . S
H437 C435 0.930 . S
H438 C426 0.930 . S
H439 C427 0.930 . S
H440 C433 0.929 . S
H441 C455 0.930 . S
H442 C434 0.930 . S
H443 C461 0.930 . S
H444 C452 0.929 . S
H445 C459 0.930 . S
H446 C423 0.931 . S
H447 C453 0.930 . S
H448 C486 0.930 . S
H449 C430 0.930 . S
H450 C485 0.931 . S
N451 Eu420 2.657 . S
N451 C452 1.334 . S
N451 C456 1.362 . S
C452 H444 0.929 . S
C452 N451 1.334 . S
C452 C455 1.413 . S
C453 H447 0.930 . S
C453 C454 1.392 . S
C453 C455 1.367 . S
C454 C453 1.392 . S
C454 C456 1.420 . S
C454 C486 1.423 . S
C455 H441 0.930 . S
C455 C452 1.413 . S
C455 C453 1.367 . S
C456 N451 1.362 . S
C456 C454 1.420 . S
C456 C460 1.429 . S
H457 C462 0.930 . S
N458 Eu420 2.609 . S
N458 C460 1.377 . S
N458 C461 1.321 . S
C459 H445 0.930 . S
C459 C461 1.400 . S
C459 C462 1.386 . S
C460 C456 1.429 . S
C460 N458 1.377 . S
C460 C463 1.411 . S
C461 H443 0.930 . S
C461 N458 1.321 . S
C461 C459 1.400 . S
C462 H457 0.930 . S
C462 C459 1.386 . S
C462 C463 1.395 . S
C463 C460 1.411 . S
C463 C462 1.395 . S
C463 C485 1.420 . S
O464 Eu420 2.558 1_554 S
O464 C484 1.257 . S
O465 Eu420 2.612 1_554 S
O465 Eu431 2.380 . S
O465 C476 1.276 . S
O466 Eu431 2.432 1_556 S
O466 C483 1.264 . S
O467 Eu420 2.339 . S
O467 C483 1.254 . S
O468 Eu420 2.563 1_554 S
O468 C476 1.235 . S
O469 Eu420 2.419 1_554 S
O469 C484 1.249 . S
O470 Eu431 2.558 1_556 S
O470 C495 1.257 . S
O471 Eu420 2.380 . S
O471 Eu431 2.612 1_556 S
O471 C487 1.276 . S
O472 Eu420 2.432 1_554 S
O472 C494 1.264 . S
O473 Eu431 2.339 . S
O473 C494 1.254 . S
O474 Eu431 2.563 1_556 S
O474 C487 1.235 . S
O475 Eu431 2.419 1_556 S
O475 C495 1.249 . S
C476 O465 1.276 . S
C476 O468 1.235 . S
C477 C479 1.393 . S
C477 C481 1.395 . S
C477 C484 1.492 . S
C478 C479 1.392 . S
C478 C480 1.386 . S
C479 C477 1.393 . S
C479 C478 1.392 . S
C479 H496 0.930 . S
C480 C478 1.386 . S
C480 C482 1.395 . S
C480 H497 0.930 . S
C481 C477 1.395 . S
C481 C482 1.379 . S
C481 H498 0.930 . S
C482 C480 1.395 . S
C482 C481 1.379 . S
C482 H499 0.930 . S
C483 O466 1.264 . S
C483 O467 1.254 . S
C484 Eu420 2.848 1_554 S
C484 O464 1.257 . S
C484 O469 1.249 . S
C484 C477 1.492 . S
C485 H450 0.931 . S
C485 C463 1.420 . S
C485 C486 1.351 . S
C486 H448 0.930 . S
C486 C454 1.423 . S
C486 C485 1.351 . S
C487 O471 1.276 . S
C487 O474 1.235 . S
C488 C489 1.393 . S
C488 C492 1.395 . S
C488 C495 1.492 . S
C489 C488 1.393 . S
C489 C490 1.392 . S
C489 H500 0.930 . S
C490 C489 1.392 . S
C490 C491 1.386 . S
C491 C490 1.386 . S
C491 C493 1.395 . S
C491 H501 0.930 . S
C492 C488 1.395 . S
C492 C493 1.379 . S
C492 H502 0.930 . S
C493 C491 1.395 . S
C493 C492 1.379 . S
C493 H503 0.930 . S
C494 O472 1.264 . S
C494 O473 1.254 . S
C495 Eu431 2.848 1_556 S
C495 O470 1.257 . S
C495 O475 1.249 . S
C495 C488 1.492 . S
H496 C479 0.930 . S
H497 C480 0.930 . S
H498 C481 0.930 . S
H499 C482 0.930 . S
H500 C489 0.930 . S
H501 C491 0.930 . S
H502 C492 0.930 . S
H503 C493 0.930 . S
Eu504 N535 2.657 . S
Eu504 N542 2.609 . S
Eu504 O548 2.558 1_554 S
Eu504 O549 2.612 1_554 S
Eu504 O551 2.339 . S
Eu504 O552 2.563 1_554 S
Eu504 O553 2.419 1_554 S
Eu504 O555 2.380 . S
Eu504 O556 2.432 . S
Eu504 C568 2.848 1_554 S
C505 C508 1.429 . S
C505 C509 1.411 . S
C505 N512 1.377 . S
C506 C508 1.420 . S
C506 C510 1.423 . S
C506 C518 1.392 . S
C507 C509 1.420 . S
C507 C510 1.351 . S
C507 H530 0.931 . S
C508 C505 1.429 . S
C508 C506 1.420 . S
C508 N516 1.362 . S
C509 C505 1.411 . S
C509 C507 1.420 . S
C509 C514 1.395 . S
C510 C506 1.423 . S
C510 C507 1.351 . S
C510 H522 0.930 . S
C511 C513 1.400 . S
C511 C514 1.386 . S
C511 H523 0.930 . S
N512 C505 1.377 . S
N512 C513 1.321 . S
N512 Eu515 2.609 . S
C513 C511 1.400 . S
C513 N512 1.321 . S
C513 H520 0.930 . S
C514 C509 1.395 . S
C514 C511 1.386 . S
C514 H533 0.930 . S
Eu515 N512 2.609 . S
Eu515 N516 2.657 . S
Eu515 O549 2.380 . S
Eu515 O550 2.432 . S
Eu515 O554 2.558 1_556 S
Eu515 O555 2.612 1_556 S
Eu515 O557 2.339 . S
Eu515 O558 2.563 1_556 S
Eu515 O559 2.419 1_556 S
Eu515 C579 2.848 1_556 S
N516 C508 1.362 . S
N516 Eu515 2.657 . S
N516 C517 1.334 . S
C517 N516 1.334 . S
C517 C519 1.413 . S
C517 H524 0.929 . S
C518 C506 1.392 . S
C518 C519 1.367 . S
C518 H526 0.930 . S
C519 C517 1.413 . S
C519 C518 1.367 . S
C519 H521 0.930 . S
H520 C513 0.930 . S
H521 C519 0.930 . S
H522 C510 0.930 . S
H523 C511 0.930 . S
H524 C517 0.929 . S
H525 C539 0.930 . S
H526 C518 0.930 . S
H527 C545 0.930 . S
H528 C536 0.929 . S
H529 C543 0.930 . S
H530 C507 0.931 . S
H531 C537 0.930 . S
H532 C570 0.930 . S
H533 C514 0.930 . S
H534 C569 0.931 . S
N535 Eu504 2.657 . S
N535 C536 1.334 . S
N535 C540 1.362 . S
C536 H528 0.929 . S
C536 N535 1.334 . S
C536 C539 1.413 . S
C537 H531 0.930 . S
C537 C538 1.392 . S
C537 C539 1.367 . S
C538 C537 1.392 . S
C538 C540 1.420 . S
C538 C570 1.423 . S
C539 H525 0.930 . S
C539 C536 1.413 . S
C539 C537 1.367 . S
C540 N535 1.362 . S
C540 C538 1.420 . S
C540 C544 1.429 . S
H541 C546 0.930 . S
N542 Eu504 2.609 . S
N542 C544 1.377 . S
N542 C545 1.321 . S
C543 H529 0.930 . S
C543 C545 1.400 . S
C543 C546 1.386 . S
C544 C540 1.429 . S
C544 N542 1.377 . S
C544 C547 1.411 . S
C545 H527 0.930 . S
C545 N542 1.321 . S
C545 C543 1.400 . S
C546 H541 0.930 . S
C546 C543 1.386 . S
C546 C547 1.395 . S
C547 C544 1.411 . S
C547 C546 1.395 . S
C547 C569 1.420 . S
O548 Eu504 2.558 1_556 S
O548 C568 1.257 . S
O549 Eu504 2.612 1_556 S
O549 Eu515 2.380 . S
O549 C560 1.276 . S
O550 Eu515 2.432 . S
O550 C567 1.264 . S
O551 Eu504 2.339 . S
O551 C567 1.254 1_554 S
O552 Eu504 2.563 1_556 S
O552 C560 1.235 . S
O553 Eu504 2.419 1_556 S
O553 C568 1.249 . S
O554 Eu515 2.558 1_554 S
O554 C579 1.257 . S
O555 Eu504 2.380 . S
O555 Eu515 2.612 1_554 S
O555 C571 1.276 . S
O556 Eu504 2.432 . S
O556 C578 1.264 . S
O557 Eu515 2.339 . S
O557 C578 1.254 1_556 S
O558 Eu515 2.563 1_554 S
O558 C571 1.235 . S
O559 Eu515 2.419 1_554 S
O559 C579 1.249 . S
C560 O549 1.276 . S
C560 O552 1.235 . S
C561 C563 1.393 . S
C561 C565 1.395 . S
C561 C568 1.492 . S
C562 C563 1.392 . S
C562 C564 1.386 . S
C563 C561 1.393 . S
C563 C562 1.392 . S
C563 H580 0.930 . S
C564 C562 1.386 . S
C564 C566 1.395 . S
C564 H581 0.930 . S
C565 C561 1.395 . S
C565 C566 1.379 . S
C565 H582 0.930 . S
C566 C564 1.395 . S
C566 C565 1.379 . S
C566 H583 0.930 . S
C567 O550 1.264 . S
C567 O551 1.254 1_556 S
C568 Eu504 2.848 1_556 S
C568 O548 1.257 . S
C568 O553 1.249 . S
C568 C561 1.492 . S
C569 H534 0.931 . S
C569 C547 1.420 . S
C569 C570 1.351 . S
C570 H532 0.930 . S
C570 C538 1.423 . S
C570 C569 1.351 . S
C571 O555 1.276 . S
C571 O558 1.235 . S
C572 C573 1.393 . S
C572 C576 1.395 . S
C572 C579 1.492 . S
C573 C572 1.393 . S
C573 C574 1.392 . S
C573 H584 0.930 . S
C574 C573 1.392 . S
C574 C575 1.386 . S
C575 C574 1.386 . S
C575 C577 1.395 . S
C575 H585 0.930 . S
C576 C572 1.395 . S
C576 C577 1.379 . S
C576 H586 0.930 . S
C577 C575 1.395 . S
C577 C576 1.379 . S
C577 H587 0.930 . S
C578 O556 1.264 . S
C578 O557 1.254 1_554 S
C579 Eu515 2.848 1_554 S
C579 O554 1.257 . S
C579 O559 1.249 . S
C579 C572 1.492 . S
H580 C563 0.930 . S
H581 C564 0.930 . S
H582 C565 0.930 . S
H583 C566 0.930 . S
H584 C573 0.930 . S
H585 C575 0.930 . S
H586 C576 0.930 . S
H587 C577 0.930 . S
Eu588 N619 2.657 . S
Eu588 N626 2.609 . S
Eu588 O632 2.558 1_554 S
Eu588 O633 2.612 1_554 S
Eu588 O635 2.339 . S
Eu588 O636 2.563 1_554 S
Eu588 O637 2.419 1_554 S
Eu588 O639 2.380 . S
Eu588 O640 2.432 1_554 S
Eu588 C652 2.848 1_554 S
C589 C592 1.429 . S
C589 C593 1.411 . S
C589 N596 1.377 . S
C590 C592 1.420 . S
C590 C594 1.423 . S
C590 C602 1.392 . S
C591 C593 1.420 . S
C591 C594 1.351 . S
C591 H614 0.931 . S
C592 C589 1.429 . S
C592 C590 1.420 . S
C592 N600 1.362 . S
C593 C589 1.411 . S
C593 C591 1.420 . S
C593 C598 1.395 . S
C594 C590 1.423 . S
C594 C591 1.351 . S
C594 H606 0.930 . S
C595 C597 1.400 . S
C595 C598 1.386 . S
C595 H607 0.930 . S
N596 C589 1.377 . S
N596 C597 1.321 . S
N596 Eu599 2.609 . S
C597 C595 1.400 . S
C597 N596 1.321 . S
C597 H604 0.930 . S
C598 C593 1.395 . S
C598 C595 1.386 . S
C598 H617 0.930 . S
Eu599 N596 2.609 . S
Eu599 N600 2.657 . S
Eu599 O633 2.380 . S
Eu599 O634 2.432 1_556 S
Eu599 O638 2.558 1_556 S
Eu599 O639 2.612 1_556 S
Eu599 O641 2.339 . S
Eu599 O642 2.563 1_556 S
Eu599 O643 2.419 1_556 S
Eu599 C663 2.848 1_556 S
N600 C592 1.362 . S
N600 Eu599 2.657 . S
N600 C601 1.334 . S
C601 N600 1.334 . S
C601 C603 1.413 . S
C601 H608 0.929 . S
C602 C590 1.392 . S
C602 C603 1.367 . S
C602 H610 0.930 . S
C603 C601 1.413 . S
C603 C602 1.367 . S
C603 H605 0.930 . S
H604 C597 0.930 . S
H605 C603 0.930 . S
H606 C594 0.930 . S
H607 C595 0.930 . S
H608 C601 0.929 . S
H609 C623 0.930 . S
H610 C602 0.930 . S
H611 C629 0.930 . S
H612 C620 0.929 . S
H613 C627 0.930 . S
H614 C591 0.931 . S
H615 C621 0.930 . S
H616 C654 0.930 . S
H617 C598 0.930 . S
H618 C653 0.931 . S
N619 Eu588 2.657 . S
N619 C620 1.334 . S
N619 C624 1.362 . S
C620 H612 0.929 . S
C620 N619 1.334 . S
C620 C623 1.413 . S
C621 H615 0.930 . S
C621 C622 1.392 . S
C621 C623 1.367 . S
C622 C621 1.392 . S
C622 C624 1.420 . S
C622 C654 1.423 . S
C623 H609 0.930 . S
C623 C620 1.413 . S
C623 C621 1.367 . S
C624 N619 1.362 . S
C624 C622 1.420 . S
C624 C628 1.429 . S
H625 C630 0.930 . S
N626 Eu588 2.609 . S
N626 C628 1.377 . S
N626 C629 1.321 . S
C627 H613 0.930 . S
C627 C629 1.400 . S
C627 C630 1.386 . S
C628 C624 1.429 . S
C628 N626 1.377 . S
C628 C631 1.411 . S
C629 H611 0.930 . S
C629 N626 1.321 . S
C629 C627 1.400 . S
C630 H625 0.930 . S
C630 C627 1.386 . S
C630 C631 1.395 . S
C631 C628 1.411 . S
C631 C630 1.395 . S
C631 C653 1.420 . S
O632 Eu588 2.558 1_556 S
O632 C652 1.257 . S
O633 Eu588 2.612 1_556 S
O633 Eu599 2.380 . S
O633 C644 1.276 . S
O634 Eu599 2.432 1_554 S
O634 C651 1.264 . S
O635 Eu588 2.339 . S
O635 C651 1.254 . S
O636 Eu588 2.563 1_556 S
O636 C644 1.235 . S
O637 Eu588 2.419 1_556 S
O637 C652 1.249 . S
O638 Eu599 2.558 1_554 S
O638 C663 1.257 . S
O639 Eu588 2.380 . S
O639 Eu599 2.612 1_554 S
O639 C655 1.276 . S
O640 Eu588 2.432 1_556 S
O640 C662 1.264 . S
O641 Eu599 2.339 . S
O641 C662 1.254 . S
O642 Eu599 2.563 1_554 S
O642 C655 1.235 . S
O643 Eu599 2.419 1_554 S
O643 C663 1.249 . S
C644 O633 1.276 . S
C644 O636 1.235 . S
C645 C647 1.393 . S
C645 C649 1.395 . S
C645 C652 1.492 . S
C646 C647 1.392 . S
C646 C648 1.386 . S
C647 C645 1.393 . S
C647 C646 1.392 . S
C647 H664 0.930 . S
C648 C646 1.386 . S
C648 C650 1.395 . S
C648 H665 0.930 . S
C649 C645 1.395 . S
C649 C650 1.379 . S
C649 H666 0.930 . S
C650 C648 1.395 . S
C650 C649 1.379 . S
C650 H667 0.930 . S
C651 O634 1.264 . S
C651 O635 1.254 . S
C652 Eu588 2.848 1_556 S
C652 O632 1.257 . S
C652 O637 1.249 . S
C652 C645 1.492 . S
C653 H618 0.931 . S
C653 C631 1.420 . S
C653 C654 1.351 . S
C654 H616 0.930 . S
C654 C622 1.423 . S
C654 C653 1.351 . S
C655 O639 1.276 . S
C655 O642 1.235 . S
C656 C657 1.393 . S
C656 C660 1.395 . S
C656 C663 1.492 . S
C657 C656 1.393 . S
C657 C658 1.392 . S
C657 H668 0.930 . S
C658 C657 1.392 . S
C658 C659 1.386 . S
C659 C658 1.386 . S
C659 C661 1.395 . S
C659 H669 0.930 . S
C660 C656 1.395 . S
C660 C661 1.379 . S
C660 H670 0.930 . S
C661 C659 1.395 . S
C661 C660 1.379 . S
C661 H671 0.930 . S
C662 O640 1.264 . S
C662 O641 1.254 . S
C663 Eu599 2.848 1_554 S
C663 O638 1.257 . S
C663 O643 1.249 . S
C663 C656 1.492 . S
H664 C647 0.930 . S
H665 C648 0.930 . S
H666 C649 0.930 . S
H667 C650 0.930 . S
H668 C657 0.930 . S
H669 C659 0.930 . S
H670 C660 0.930 . S
H671 C661 0.930 . S
H672 C684 0.930 . S
H673 C686 0.930 . S
H674 C687 0.930 . S
H675 C691 0.959 . S
H676 C691 0.959 . S
H677 C691 0.961 . S
H678 C692 0.960 . S
H679 C692 0.961 . S
H680 C692 0.959 . S
H681 C695 0.929 . S
H682 C696 0.931 . S
H683 C698 0.930 . S
C684 H672 0.930 . S
C684 C685 1.399 . S
C684 C689 1.399 . S
C685 C684 1.399 . S
C685 C686 1.376 . S
C686 H673 0.930 . S
C686 C685 1.376 . S
C686 C687 1.388 . S
C687 H674 0.930 . S
C687 C686 1.388 . S
C687 C688 1.390 . S
C688 C687 1.390 . S
C688 C689 1.394 . S
C688 C694 1.465 . S
C689 C684 1.399 . S
C689 C688 1.394 . S
C689 C690 1.516 . S
C690 C689 1.516 . S
C690 C691 1.502 . S
C690 C692 1.561 . S
C690 C693 1.526 . S
C691 H675 0.959 . S
C691 H676 0.959 . S
C691 H677 0.961 . S
C691 C690 1.502 . S
C692 H678 0.960 . S
C692 H679 0.961 . S
C692 H680 0.959 . S
C692 C690 1.561 . S
C693 C690 1.526 . S
C693 C694 1.396 . S
C693 C698 1.390 . S
C694 C688 1.465 . S
C694 C693 1.396 . S
C694 C695 1.399 . S
C695 H681 0.929 . S
C695 C694 1.399 . S
C695 C696 1.385 . S
C696 H682 0.931 . S
C696 C695 1.385 . S
C696 C697 1.389 . S
C697 C696 1.389 . S
C697 C698 1.387 . S
C698 H683 0.930 . S
C698 C693 1.390 . S
C698 C697 1.387 . S
H699 C711 0.930 . S
H700 C713 0.930 . S
H701 C714 0.930 . S
H702 C718 0.959 . S
H703 C718 0.959 . S
H704 C718 0.961 . S
H705 C719 0.960 . S
H706 C719 0.961 . S
H707 C719 0.959 . S
H708 C722 0.929 . S
H709 C723 0.931 . S
H710 C725 0.930 . S
C711 H699 0.930 . S
C711 C712 1.399 . S
C711 C716 1.399 . S
C712 C711 1.399 . S
C712 C713 1.376 . S
C713 H700 0.930 . S
C713 C712 1.376 . S
C713 C714 1.388 . S
C714 H701 0.930 . S
C714 C713 1.388 . S
C714 C715 1.390 . S
C715 C714 1.390 . S
C715 C716 1.394 . S
C715 C721 1.465 . S
C716 C711 1.399 . S
C716 C715 1.394 . S
C716 C717 1.516 . S
C717 C716 1.516 . S
C717 C718 1.502 . S
C717 C719 1.561 . S
C717 C720 1.526 . S
C718 H702 0.959 . S
C718 H703 0.959 . S
C718 H704 0.961 . S
C718 C717 1.502 . S
C719 H705 0.960 . S
C719 H706 0.961 . S
C719 H707 0.959 . S
C719 C717 1.561 . S
C720 C717 1.526 . S
C720 C721 1.396 . S
C720 C725 1.390 . S
C721 C715 1.465 . S
C721 C720 1.396 . S
C721 C722 1.399 . S
C722 H708 0.929 . S
C722 C721 1.399 . S
C722 C723 1.385 . S
C723 H709 0.931 . S
C723 C722 1.385 . S
C723 C724 1.389 . S
C724 C723 1.389 . S
C724 C725 1.387 . S
C725 H710 0.930 . S
C725 C720 1.390 . S
C725 C724 1.387 . S
H726 C738 0.930 . S
H727 C740 0.930 . S
H728 C741 0.930 . S
H729 C745 0.959 . S
H730 C745 0.959 . S
H731 C745 0.961 . S
H732 C746 0.960 . S
H733 C746 0.961 . S
H734 C746 0.959 . S
H735 C749 0.929 . S
H736 C750 0.931 . S
H737 C752 0.930 . S
C738 H726 0.930 . S
C738 C739 1.399 . S
C738 C743 1.399 . S
C739 C738 1.399 . S
C739 C740 1.376 . S
C740 H727 0.930 . S
C740 C739 1.376 . S
C740 C741 1.388 . S
C741 H728 0.930 . S
C741 C740 1.388 . S
C741 C742 1.390 . S
C742 C741 1.390 . S
C742 C743 1.394 . S
C742 C748 1.465 . S
C743 C738 1.399 . S
C743 C742 1.394 . S
C743 C744 1.516 . S
C744 C743 1.516 . S
C744 C745 1.502 . S
C744 C746 1.561 . S
C744 C747 1.526 . S
C745 H729 0.959 . S
C745 H730 0.959 . S
C745 H731 0.961 . S
C745 C744 1.502 . S
C746 H732 0.960 . S
C746 H733 0.961 . S
C746 H734 0.959 . S
C746 C744 1.561 . S
C747 C744 1.526 . S
C747 C748 1.396 . S
C747 C752 1.390 . S
C748 C742 1.465 . S
C748 C747 1.396 . S
C748 C749 1.399 . S
C749 H735 0.929 . S
C749 C748 1.399 . S
C749 C750 1.385 . S
C750 H736 0.931 . S
C750 C749 1.385 . S
C750 C751 1.389 . S
C751 C750 1.389 . S
C751 C752 1.387 . S
C752 H737 0.930 . S
C752 C747 1.390 . S
C752 C751 1.387 . S
H753 C765 0.930 . S
H754 C767 0.930 . S
H755 C768 0.930 . S
H756 C772 0.959 . S
H757 C772 0.959 . S
H758 C772 0.961 . S
H759 C773 0.960 . S
H760 C773 0.961 . S
H761 C773 0.959 . S
H762 C776 0.929 . S
H763 C777 0.931 . S
H764 C779 0.930 . S
C765 H753 0.930 . S
C765 C766 1.399 . S
C765 C770 1.399 . S
C766 C765 1.399 . S
C766 C767 1.376 . S
C767 H754 0.930 . S
C767 C766 1.376 . S
C767 C768 1.388 . S
C768 H755 0.930 . S
C768 C767 1.388 . S
C768 C769 1.390 . S
C769 C768 1.390 . S
C769 C770 1.394 . S
C769 C775 1.465 . S
C770 C765 1.399 . S
C770 C769 1.394 . S
C770 C771 1.516 . S
C771 C770 1.516 . S
C771 C772 1.502 . S
C771 C773 1.561 . S
C771 C774 1.526 . S
C772 H756 0.959 . S
C772 H757 0.959 . S
C772 H758 0.961 . S
C772 C771 1.502 . S
C773 H759 0.960 . S
C773 H760 0.961 . S
C773 H761 0.959 . S
C773 C771 1.561 . S
C774 C771 1.526 . S
C774 C775 1.396 . S
C774 C779 1.390 . S
C775 C769 1.465 . S
C775 C774 1.396 . S
C775 C776 1.399 . S
C776 H762 0.929 . S
C776 C775 1.399 . S
C776 C777 1.385 . S
C777 H763 0.931 . S
C777 C776 1.385 . S
C777 C778 1.389 . S
C778 C777 1.389 . S
C778 C779 1.387 . S
C779 H764 0.930 . S
C779 C774 1.390 . S
C779 C778 1.387 . S
H780 C792 0.930 . S
H781 C794 0.930 . S
H782 C795 0.930 . S
H783 C799 0.959 . S
H784 C799 0.959 . S
H785 C799 0.961 1_565 S
H786 C800 0.960 . S
H787 C800 0.961 . S
H788 C800 0.959 . S
H789 C803 0.929 . S
H790 C804 0.931 . S
H791 C806 0.930 . S
C792 H780 0.930 . S
C792 C793 1.399 . S
C792 C797 1.399 . S
C793 C792 1.399 . S
C793 C794 1.376 . S
C794 H781 0.930 . S
C794 C793 1.376 . S
C794 C795 1.388 . S
C795 H782 0.930 . S
C795 C794 1.388 . S
C795 C796 1.390 . S
C796 C795 1.390 . S
C796 C797 1.394 . S
C796 C802 1.465 1_565 S
C797 C792 1.399 . S
C797 C796 1.394 . S
C797 C798 1.516 1_565 S
C798 C797 1.516 1_545 S
C798 C799 1.502 . S
C798 C800 1.561 . S
C798 C801 1.526 . S
C799 H783 0.959 . S
C799 H784 0.959 . S
C799 H785 0.961 1_545 S
C799 C798 1.502 . S
C800 H786 0.960 . S
C800 H787 0.961 . S
C800 H788 0.959 . S
C800 C798 1.561 . S
C801 C798 1.526 . S
C801 C802 1.396 . S
C801 C806 1.390 . S
C802 C796 1.465 1_545 S
C802 C801 1.396 . S
C802 C803 1.399 . S
C803 H789 0.929 . S
C803 C802 1.399 . S
C803 C804 1.385 . S
C804 H790 0.931 . S
C804 C803 1.385 . S
C804 C805 1.389 . S
C805 C804 1.389 . S
C805 C806 1.387 . S
C806 H791 0.930 . S
C806 C801 1.390 . S
C806 C805 1.387 . S
H807 C819 0.930 . S
H808 C821 0.930 . S
H809 C822 0.930 . S
H810 C826 0.959 . S
H811 C826 0.959 . S
H812 C826 0.961 . S
H813 C827 0.960 . S
H814 C827 0.961 . S
H815 C827 0.959 . S
H816 C830 0.929 . S
H817 C831 0.931 . S
H818 C833 0.930 . S
C819 H807 0.930 . S
C819 C820 1.399 . S
C819 C824 1.399 . S
C820 C819 1.399 . S
C820 C821 1.376 . S
C821 H808 0.930 . S
C821 C820 1.376 . S
C821 C822 1.388 . S
C822 H809 0.930 . S
C822 C821 1.388 . S
C822 C823 1.390 . S
C823 C822 1.390 . S
C823 C824 1.394 . S
C823 C829 1.465 . S
C824 C819 1.399 . S
C824 C823 1.394 . S
C824 C825 1.516 . S
C825 C824 1.516 . S
C825 C826 1.502 . S
C825 C827 1.561 . S
C825 C828 1.526 . S
C826 H810 0.959 . S
C826 H811 0.959 . S
C826 H812 0.961 . S
C826 C825 1.502 . S
C827 H813 0.960 . S
C827 H814 0.961 . S
C827 H815 0.959 . S
C827 C825 1.561 . S
C828 C825 1.526 . S
C828 C829 1.396 . S
C828 C833 1.390 . S
C829 C823 1.465 . S
C829 C828 1.396 . S
C829 C830 1.399 . S
C830 H816 0.929 . S
C830 C829 1.399 . S
C830 C831 1.385 . S
C831 H817 0.931 . S
C831 C830 1.385 . S
C831 C832 1.389 . S
C832 C831 1.389 . S
C832 C833 1.387 . S
C833 H818 0.930 . S
C833 C828 1.390 . S
C833 C832 1.387 . S
H834 C846 0.930 . S
H835 C848 0.930 . S
H836 C849 0.930 . S
H837 C853 0.959 . S
H838 C853 0.959 . S
H839 C853 0.961 . S
H840 C854 0.960 . S
H841 C854 0.961 . S
H842 C854 0.959 . S
H843 C857 0.929 . S
H844 C858 0.931 . S
H845 C860 0.930 . S
C846 H834 0.930 . S
C846 C847 1.399 . S
C846 C851 1.399 . S
C847 C846 1.399 . S
C847 C848 1.376 . S
C848 H835 0.930 . S
C848 C847 1.376 . S
C848 C849 1.388 . S
C849 H836 0.930 . S
C849 C848 1.388 . S
C849 C850 1.390 . S
C850 C849 1.390 . S
C850 C851 1.394 . S
C850 C856 1.465 1_565 S
C851 C846 1.399 . S
C851 C850 1.394 . S
C851 C852 1.516 . S
C852 C851 1.516 . S
C852 C853 1.502 . S
C852 C854 1.561 . S
C852 C855 1.526 1_565 S
C853 H837 0.959 . S
C853 H838 0.959 . S
C853 H839 0.961 . S
C853 C852 1.502 . S
C854 H840 0.960 . S
C854 H841 0.961 . S
C854 H842 0.959 . S
C854 C852 1.561 . S
C855 C852 1.526 1_545 S
C855 C856 1.396 . S
C855 C860 1.390 . S
C856 C850 1.465 1_545 S
C856 C855 1.396 . S
C856 C857 1.399 . S
C857 H843 0.929 . S
C857 C856 1.399 . S
C857 C858 1.385 . S
C858 H844 0.931 . S
C858 C857 1.385 . S
C858 C859 1.389 . S
C859 C858 1.389 . S
C859 C860 1.387 . S
C860 H845 0.930 . S
C860 C855 1.390 . S
C860 C859 1.387 . S
H861 C873 0.930 . S
H862 C875 0.930 . S
H863 C876 0.930 . S
H864 C880 0.959 . S
H865 C880 0.959 . S
H866 C880 0.961 . S
H867 C881 0.960 . S
H868 C881 0.961 . S
H869 C881 0.959 . S
H870 C884 0.929 . S
H871 C885 0.931 . S
H872 C887 0.930 . S
C873 H861 0.930 . S
C873 C874 1.399 . S
C873 C878 1.399 . S
C874 C873 1.399 . S
C874 C875 1.376 . S
C875 H862 0.930 . S
C875 C874 1.376 . S
C875 C876 1.388 . S
C876 H863 0.930 . S
C876 C875 1.388 . S
C876 C877 1.390 . S
C877 C876 1.390 . S
C877 C878 1.394 . S
C877 C883 1.465 . S
C878 C873 1.399 . S
C878 C877 1.394 . S
C878 C879 1.516 . S
C879 C878 1.516 . S
C879 C880 1.502 . S
C879 C881 1.561 . S
C879 C882 1.526 . S
C880 H864 0.959 . S
C880 H865 0.959 . S
C880 H866 0.961 . S
C880 C879 1.502 . S
C881 H867 0.960 . S
C881 H868 0.961 . S
C881 H869 0.959 . S
C881 C879 1.561 . S
C882 C879 1.526 . S
C882 C883 1.396 . S
C882 C887 1.390 . S
C883 C877 1.465 . S
C883 C882 1.396 . S
C883 C884 1.399 . S
C884 H870 0.929 . S
C884 C883 1.399 . S
C884 C885 1.385 . S
C885 H871 0.931 . S
C885 C884 1.385 . S
C885 C886 1.389 . S
C886 C885 1.389 . S
C886 C887 1.387 . S
C887 H872 0.930 . S
C887 C882 1.390 . S
C887 C886 1.387 . S
H888 C900 0.930 . S
H889 C902 0.930 . S
H890 C903 0.930 . S
H891 C907 0.959 . S
H892 C907 0.959 . S
H893 C907 0.961 . S
H894 C908 0.960 . S
H895 C908 0.961 . S
H896 C908 0.959 . S
H897 C911 0.929 . S
H898 C912 0.931 . S
H899 C914 0.930 . S
C900 H888 0.930 . S
C900 C901 1.399 . S
C900 C905 1.399 . S
C901 C900 1.399 . S
C901 C902 1.376 1_554 S
C902 H889 0.930 . S
C902 C901 1.376 1_556 S
C902 C903 1.388 . S
C903 H890 0.930 . S
C903 C902 1.388 . S
C903 C904 1.390 . S
C904 C903 1.390 . S
C904 C905 1.394 1_556 S
C904 C910 1.465 . S
C905 C900 1.399 . S
C905 C904 1.394 1_554 S
C905 C906 1.516 . S
C906 C905 1.516 . S
C906 C907 1.502 . S
C906 C908 1.561 . S
C906 C909 1.526 . S
C907 H891 0.959 . S
C907 H892 0.959 . S
C907 H893 0.961 . S
C907 C906 1.502 . S
C908 H894 0.960 . S
C908 H895 0.961 . S
C908 H896 0.959 . S
C908 C906 1.561 . S
C909 C906 1.526 . S
C909 C910 1.396 1_554 S
C909 C914 1.390 . S
C910 C904 1.465 . S
C910 C909 1.396 1_556 S
C910 C911 1.399 . S
C911 H897 0.929 . S
C911 C910 1.399 . S
C911 C912 1.385 . S
C912 H898 0.931 . S
C912 C911 1.385 . S
C912 C913 1.389 1_556 S
C913 C912 1.389 1_554 S
C913 C914 1.387 . S
C914 H899 0.930 . S
C914 C909 1.390 . S
C914 C913 1.387 . S
H915 C927 0.930 . S
H916 C929 0.930 . S
H917 C930 0.930 . S
H918 C934 0.959 . S
H919 C934 0.959 1_545 S
H920 C934 0.961 . S
H921 C935 0.960 1_565 S
H922 C935 0.961 . S
H923 C935 0.959 . S
H924 C938 0.929 . S
H925 C939 0.931 . S
H926 C941 0.930 . S
C927 H915 0.930 . S
C927 C928 1.399 1_554 S
C927 C932 1.399 . S
C928 C927 1.399 1_556 S
C928 C929 1.376 . S
C929 H916 0.930 . S
C929 C928 1.376 . S
C929 C930 1.388 . S
C930 H917 0.930 . S
C930 C929 1.388 . S
C930 C931 1.390 . S
C931 C930 1.390 . S
C931 C932 1.394 1_556 S
C931 C937 1.465 1_565 S
C932 C927 1.399 . S
C932 C931 1.394 1_554 S
C932 C933 1.516 1_565 S
C933 C932 1.516 1_545 S
C933 C934 1.502 1_545 S
C933 C935 1.561 . S
C933 C936 1.526 . S
C934 H918 0.959 . S
C934 H919 0.959 1_565 S
C934 H920 0.961 . S
C934 C933 1.502 1_565 S
C935 H921 0.960 1_545 S
C935 H922 0.961 . S
C935 H923 0.959 . S
C935 C933 1.561 . S
C936 C933 1.526 . S
C936 C937 1.396 1_554 S
C936 C941 1.390 . S
C937 C931 1.465 1_545 S
C937 C936 1.396 1_556 S
C937 C938 1.399 . S
C938 H924 0.929 . S
C938 C937 1.399 . S
C938 C939 1.385 . S
C939 H925 0.931 . S
C939 C938 1.385 . S
C939 C940 1.389 . S
C940 C939 1.389 . S
C940 C941 1.387 1_556 S
C941 H926 0.930 . S
C941 C936 1.390 . S
C941 C940 1.387 1_554 S
H942 C954 0.930 . S
H943 C956 0.930 . S
H944 C957 0.930 . S
H945 C961 0.959 . S
H946 C961 0.959 . S
H947 C961 0.961 . S
H948 C962 0.960 . S
H949 C962 0.961 . S
H950 C962 0.959 . S
H951 C965 0.929 . S
H952 C966 0.931 . S
H953 C968 0.930 . S
C954 H942 0.930 . S
C954 C955 1.399 1_556 S
C954 C959 1.399 . S
C955 C954 1.399 1_554 S
C955 C956 1.376 . S
C956 H943 0.930 . S
C956 C955 1.376 . S
C956 C957 1.388 . S
C957 H944 0.930 . S
C957 C956 1.388 . S
C957 C958 1.390 . S
C958 C957 1.390 . S
C958 C959 1.394 1_554 S
C958 C964 1.465 . S
C959 C954 1.399 . S
C959 C958 1.394 1_556 S
C959 C960 1.516 . S
C960 C959 1.516 . S
C960 C961 1.502 . S
C960 C962 1.561 . S
C960 C963 1.526 . S
C961 H945 0.959 . S
C961 H946 0.959 . S
C961 H947 0.961 . S
C961 C960 1.502 . S
C962 H948 0.960 . S
C962 H949 0.961 . S
C962 H950 0.959 . S
C962 C960 1.561 . S
C963 C960 1.526 . S
C963 C964 1.396 1_556 S
C963 C968 1.390 . S
C964 C958 1.465 . S
C964 C963 1.396 1_554 S
C964 C965 1.399 . S
C965 H951 0.929 . S
C965 C964 1.399 . S
C965 C966 1.385 . S
C966 H952 0.931 . S
C966 C965 1.385 . S
C966 C967 1.389 . S
C967 C966 1.389 . S
C967 C968 1.387 1_554 S
C968 H953 0.930 . S
C968 C963 1.390 . S
C968 C967 1.387 1_556 S
H969 C981 0.930 . S
H970 C983 0.930 . S
H971 C984 0.930 . S
H972 C988 0.959 . S
H973 C988 0.959 . S
H974 C988 0.961 . S
H975 C989 0.977 . S
H976 C989 0.961 . S
H977 C989 0.959 . S
H978 C992 0.929 . S
H979 C993 0.931 . S
H980 C995 0.930 . S
C981 H969 0.930 . S
C981 C982 1.399 . S
C981 C986 1.399 . S
C982 C981 1.399 . S
C982 C983 1.376 1_556 S
C983 H970 0.930 . S
C983 C982 1.376 1_554 S
C983 C984 1.388 . S
C984 H971 0.930 . S
C984 C983 1.388 . S
C984 C985 1.390 . S
C985 C984 1.390 . S
C985 C986 1.394 1_554 S
C985 C991 1.465 1_545 S
C986 C981 1.399 . S
C986 C985 1.394 1_556 S
C986 C987 1.516 1_545 S
C987 C986 1.516 1_565 S
C987 C988 1.502 . S
C987 C989 1.561 . S
C987 C990 1.526 . S
C988 H972 0.959 . S
C988 H973 0.959 . S
C988 H974 0.961 . S
C988 C987 1.502 . S
C989 H975 0.977 . S
C989 H976 0.961 . S
C989 H977 0.959 . S
C989 C987 1.561 . S
C990 C987 1.526 . S
C990 C991 1.396 1_556 S
C990 C995 1.390 . S
C991 C985 1.465 1_565 S
C991 C990 1.396 1_554 S
C991 C992 1.399 . S
C992 H978 0.929 . S
C992 C991 1.399 . S
C992 C993 1.385 . S
C993 H979 0.931 . S
C993 C992 1.385 . S
C993 C994 1.391 . S
C994 C993 1.391 . S
C994 C995 1.385 1_554 S
C995 H980 0.930 . S
C995 C990 1.390 . S
C995 C994 1.385 1_556 S
H996 C1008 0.930 . S
H997 C1010 0.930 . S
H998 C1011 0.930 . S
H999 C1015 0.959 . S
H1000 C1015 0.962 . S
H1001 C1015 0.957 1_554 S
H1002 C1016 0.960 1_554 S
H1003 C1016 0.961 . S
H1004 C1016 0.959 . S
H1005 C1019 0.929 . S
H1006 C1020 0.931 . S
H1007 C1022 0.930 . S
C1008 H996 0.930 . S
C1008 C1009 1.399 . S
C1008 C1013 1.399 . S
C1009 C1008 1.399 . S
C1009 C1010 1.376 . S
C1010 H997 0.930 . S
C1010 C1009 1.376 . S
C1010 C1011 1.388 . S
C1011 H998 0.930 . S
C1011 C1010 1.388 . S
C1011 C1012 1.390 . S
C1012 C1011 1.390 . S
C1012 C1013 1.394 . S
C1012 C1018 1.465 1_554 S
C1013 C1008 1.399 . S
C1013 C1012 1.394 . S
C1013 C1014 1.516 1_554 S
C1014 C1013 1.516 1_556 S
C1014 C1015 1.502 . S
C1014 C1016 1.561 . S
C1014 C1017 1.526 . S
C1015 H999 0.959 . S
C1015 H1000 0.962 . S
C1015 H1001 0.957 1_556 S
C1015 C1014 1.502 . S
C1016 H1002 0.960 1_556 S
C1016 H1003 0.961 . S
C1016 H1004 0.959 . S
C1016 C1014 1.561 . S
C1017 C1014 1.526 . S
C1017 C1018 1.396 . S
C1017 C1022 1.390 . S
C1018 C1012 1.465 1_556 S
C1018 C1017 1.396 . S
C1018 C1019 1.399 . S
C1019 H1005 0.929 . S
C1019 C1018 1.399 . S
C1019 C1020 1.385 . S
C1020 H1006 0.931 . S
C1020 C1019 1.385 . S
C1020 C1021 1.389 . S
C1021 C1020 1.389 . S
C1021 C1022 1.387 . S
C1022 H1007 0.930 . S
C1022 C1017 1.390 . S
C1022 C1021 1.387 . S
H1023 C1035 0.930 . S
H1024 C1037 0.930 . S
H1025 C1038 0.930 . S
H1026 C1042 0.959 . S
H1027 C1042 0.959 . S
H1028 C1042 0.961 1_554 S
H1029 C1043 0.960 1_554 S
H1030 C1043 0.961 . S
H1031 C1043 0.959 . S
H1032 C1046 0.929 . S
H1033 C1047 0.931 . S
H1034 C1049 0.930 . S
C1035 H1023 0.930 . S
C1035 C1036 1.399 . S
C1035 C1040 1.399 . S
C1036 C1035 1.399 . S
C1036 C1037 1.376 . S
C1037 H1024 0.930 . S
C1037 C1036 1.376 . S
C1037 C1038 1.388 . S
C1038 H1025 0.930 . S
C1038 C1037 1.388 . S
C1038 C1039 1.390 1_554 S
C1039 C1038 1.390 1_556 S
C1039 C1040 1.394 1_556 S
C1039 C1045 1.465 . S
C1040 C1035 1.399 . S
C1040 C1039 1.394 1_554 S
C1040 C1041 1.516 1_554 S
C1041 C1040 1.516 1_556 S
C1041 C1042 1.502 . S
C1041 C1043 1.561 . S
C1041 C1044 1.526 . S
C1042 H1026 0.959 . S
C1042 H1027 0.959 . S
C1042 H1028 0.961 1_556 S
C1042 C1041 1.502 . S
C1043 H1029 0.960 1_556 S
C1043 H1030 0.961 . S
C1043 H1031 0.959 . S
C1043 C1041 1.561 . S
C1044 C1041 1.526 . S
C1044 C1045 1.396 . S
C1044 C1049 1.390 . S
C1045 C1039 1.465 . S
C1045 C1044 1.396 . S
C1045 C1046 1.399 . S
C1046 H1032 0.929 . S
C1046 C1045 1.399 . S
C1046 C1047 1.385 . S
C1047 H1033 0.931 . S
C1047 C1046 1.385 . S
C1047 C1048 1.389 . S
C1048 C1047 1.389 . S
C1048 C1049 1.387 . S
C1049 H1034 0.930 . S
C1049 C1044 1.390 . S
C1049 C1048 1.387 . S
H1050 C1062 0.930 . S
H1051 C1064 0.930 . S
H1052 C1065 0.930 . S
H1053 C1069 0.959 . S
H1054 C1069 0.959 . S
H1055 C1069 0.961 1_554 S
H1056 C1070 0.960 1_554 S
H1057 C1070 0.961 . S
H1058 C1070 0.959 . S
H1059 C1073 0.929 1_554 S
H1060 C1074 0.931 . S
H1061 C1076 0.930 . S
C1062 H1050 0.930 . S
C1062 C1063 1.399 . S
C1062 C1067 1.399 . S
C1063 C1062 1.399 . S
C1063 C1064 1.376 . S
C1064 H1051 0.930 . S
C1064 C1063 1.376 . S
C1064 C1065 1.388 . S
C1065 H1052 0.930 . S
C1065 C1064 1.388 . S
C1065 C1066 1.390 . S
C1066 C1065 1.390 . S
C1066 C1067 1.394 . S
C1066 C1072 1.465 . S
C1067 C1062 1.399 . S
C1067 C1066 1.394 . S
C1067 C1068 1.516 1_554 S
C1068 C1067 1.516 1_556 S
C1068 C1069 1.502 . S
C1068 C1070 1.561 . S
C1068 C1071 1.526 . S
C1069 H1053 0.959 . S
C1069 H1054 0.959 . S
C1069 H1055 0.961 1_556 S
C1069 C1068 1.502 . S
C1070 H1056 0.960 1_556 S
C1070 H1057 0.961 . S
C1070 H1058 0.959 . S
C1070 C1068 1.561 . S
C1071 C1068 1.526 . S
C1071 C1072 1.396 1_556 S
C1071 C1076 1.390 . S
C1072 C1066 1.465 . S
C1072 C1071 1.396 1_554 S
C1072 C1073 1.399 1_554 S
C1073 H1059 0.929 1_556 S
C1073 C1072 1.399 1_556 S
C1073 C1074 1.385 . S
C1074 H1060 0.931 . S
C1074 C1073 1.385 . S
C1074 C1075 1.389 . S
C1075 C1074 1.389 . S
C1075 C1076 1.387 . S
C1076 H1061 0.930 . S
C1076 C1071 1.390 . S
C1076 C1075 1.387 . S
H1077 C1089 0.930 . S
H1078 C1091 0.930 . S
H1079 C1092 0.930 . S
H1080 C1096 0.959 . S
H1081 C1096 0.959 . S
H1082 C1096 0.961 1_556 S
H1083 C1097 0.960 1_556 S
H1084 C1097 0.961 . S
H1085 C1097 0.959 . S
H1086 C1100 0.929 . S
H1087 C1101 0.931 . S
H1088 C1103 0.930 . S
C1089 H1077 0.930 . S
C1089 C1090 1.399 . S
C1089 C1094 1.399 . S
C1090 C1089 1.399 . S
C1090 C1091 1.376 . S
C1091 H1078 0.930 . S
C1091 C1090 1.376 . S
C1091 C1092 1.388 . S
C1092 H1079 0.930 . S
C1092 C1091 1.388 . S
C1092 C1093 1.390 1_556 S
C1093 C1092 1.390 1_554 S
C1093 C1094 1.394 1_554 S
C1093 C1099 1.465 . S
C1094 C1089 1.399 . S
C1094 C1093 1.394 1_556 S
C1094 C1095 1.516 1_556 S
C1095 C1094 1.516 1_554 S
C1095 C1096 1.502 . S
C1095 C1097 1.561 . S
C1095 C1098 1.526 . S
C1096 H1080 0.959 . S
C1096 H1081 0.959 . S
C1096 H1082 0.961 1_554 S
C1096 C1095 1.502 . S
C1097 H1083 0.960 1_554 S
C1097 H1084 0.961 . S
C1097 H1085 0.959 . S
C1097 C1095 1.561 . S
C1098 C1095 1.526 . S
C1098 C1099 1.396 . S
C1098 C1103 1.390 . S
C1099 C1093 1.465 . S
C1099 C1098 1.396 . S
C1099 C1100 1.399 . S
C1100 H1086 0.929 . S
C1100 C1099 1.399 . S
C1100 C1101 1.385 . S
C1101 H1087 0.931 . S
C1101 C1100 1.385 . S
C1101 C1102 1.389 . S
C1102 C1101 1.389 . S
C1102 C1103 1.387 . S
C1103 H1088 0.930 . S
C1103 C1098 1.390 . S
C1103 C1102 1.387 . S
H1104 C1116 0.930 . S
H1105 C1118 0.930 . S
H1106 C1119 0.930 . S
H1107 C1123 0.959 . S
H1108 C1123 0.959 . S
H1109 C1123 0.961 . S
H1110 C1124 0.960 . S
H1111 C1124 0.961 . S
H1112 C1124 0.959 . S
H1113 C1127 0.929 . S
H1114 C1128 0.931 . S
H1115 C1130 0.930 . S
C1116 H1104 0.930 . S
C1116 C1117 1.399 . S
C1116 C1121 1.399 . S
C1117 C1116 1.399 . S
C1117 C1118 1.376 . S
C1118 H1105 0.930 . S
C1118 C1117 1.376 . S
C1118 C1119 1.388 . S
C1119 H1106 0.930 . S
C1119 C1118 1.388 . S
C1119 C1120 1.390 . S
C1120 C1119 1.390 . S
C1120 C1121 1.394 . S
C1120 C1126 1.465 . S
C1121 C1116 1.399 . S
C1121 C1120 1.394 . S
C1121 C1122 1.516 . S
C1122 C1121 1.516 . S
C1122 C1123 1.502 . S
C1122 C1124 1.561 . S
C1122 C1125 1.526 . S
C1123 H1107 0.959 . S
C1123 H1108 0.959 . S
C1123 H1109 0.961 . S
C1123 C1122 1.502 . S
C1124 H1110 0.960 . S
C1124 H1111 0.961 . S
C1124 H1112 0.959 . S
C1124 C1122 1.561 . S
C1125 C1122 1.526 . S
C1125 C1126 1.396 . S
C1125 C1130 1.390 . S
C1126 C1120 1.465 . S
C1126 C1125 1.396 . S
C1126 C1127 1.399 . S
C1127 H1113 0.929 . S
C1127 C1126 1.399 . S
C1127 C1128 1.385 . S
C1128 H1114 0.931 . S
C1128 C1127 1.385 . S
C1128 C1129 1.389 . S
C1129 C1128 1.389 . S
C1129 C1130 1.387 . S
C1130 H1115 0.930 . S
C1130 C1125 1.390 . S
C1130 C1129 1.387 . S
H1131 C1143 0.930 . S
H1132 C1145 0.930 . S
H1133 C1146 0.930 . S
H1134 C1150 0.959 . S
H1135 C1150 0.959 . S
H1136 C1150 0.961 . S
H1137 C1151 0.960 . S
H1138 C1151 0.961 . S
H1139 C1151 0.959 . S
H1140 C1154 0.929 . S
H1141 C1155 0.931 . S
H1142 C1157 0.930 . S
C1143 H1131 0.930 . S
C1143 C1144 1.399 . S
C1143 C1148 1.399 . S
C1144 C1143 1.399 . S
C1144 C1145 1.376 . S
C1145 H1132 0.930 . S
C1145 C1144 1.376 . S
C1145 C1146 1.388 . S
C1146 H1133 0.930 . S
C1146 C1145 1.388 . S
C1146 C1147 1.390 . S
C1147 C1146 1.390 . S
C1147 C1148 1.394 . S
C1147 C1153 1.465 . S
C1148 C1143 1.399 . S
C1148 C1147 1.394 . S
C1148 C1149 1.516 . S
C1149 C1148 1.516 . S
C1149 C1150 1.502 . S
C1149 C1151 1.561 . S
C1149 C1152 1.526 . S
C1150 H1134 0.959 . S
C1150 H1135 0.959 . S
C1150 H1136 0.961 . S
C1150 C1149 1.502 . S
C1151 H1137 0.960 . S
C1151 H1138 0.961 . S
C1151 H1139 0.959 . S
C1151 C1149 1.561 . S
C1152 C1149 1.526 . S
C1152 C1153 1.396 . S
C1152 C1157 1.390 . S
C1153 C1147 1.465 . S
C1153 C1152 1.396 . S
C1153 C1154 1.399 . S
C1154 H1140 0.929 . S
C1154 C1153 1.399 . S
C1154 C1155 1.385 . S
C1155 H1141 0.931 . S
C1155 C1154 1.385 . S
C1155 C1156 1.389 . S
C1156 C1155 1.389 . S
C1156 C1157 1.387 . S
C1157 H1142 0.930 . S
C1157 C1152 1.390 . S
C1157 C1156 1.387 . S
H1158 C1170 0.930 . S
H1159 C1172 0.930 . S
H1160 C1173 0.930 . S
H1161 C1177 0.959 . S
H1162 C1177 0.959 . S
H1163 C1177 0.961 . S
H1164 C1178 0.960 . S
H1165 C1178 0.961 . S
H1166 C1178 0.959 . S
H1167 C1181 0.929 . S
H1168 C1182 0.931 . S
H1169 C1184 0.930 . S
C1170 H1158 0.930 . S
C1170 C1171 1.399 . S
C1170 C1175 1.399 . S
C1171 C1170 1.399 . S
C1171 C1172 1.376 . S
C1172 H1159 0.930 . S
C1172 C1171 1.376 . S
C1172 C1173 1.388 . S
C1173 H1160 0.930 . S
C1173 C1172 1.388 . S
C1173 C1174 1.390 . S
C1174 C1173 1.390 . S
C1174 C1175 1.394 . S
C1174 C1180 1.465 . S
C1175 C1170 1.399 . S
C1175 C1174 1.394 . S
C1175 C1176 1.516 . S
C1176 C1175 1.516 . S
C1176 C1177 1.502 . S
C1176 C1178 1.561 . S
C1176 C1179 1.526 . S
C1177 H1161 0.959 . S
C1177 H1162 0.959 . S
C1177 H1163 0.961 . S
C1177 C1176 1.502 . S
C1178 H1164 0.960 . S
C1178 H1165 0.961 . S
C1178 H1166 0.959 . S
C1178 C1176 1.561 . S
C1179 C1176 1.526 . S
C1179 C1180 1.396 . S
C1179 C1184 1.390 . S
C1180 C1174 1.465 . S
C1180 C1179 1.396 . S
C1180 C1181 1.399 . S
C1181 H1167 0.929 . S
C1181 C1180 1.399 . S
C1181 C1182 1.385 . S
C1182 H1168 0.931 . S
C1182 C1181 1.385 . S
C1182 C1183 1.389 . S
C1183 C1182 1.389 . S
C1183 C1184 1.387 . S
C1184 H1169 0.930 . S
C1184 C1179 1.390 . S
C1184 C1183 1.387 . S
H1185 C1197 0.930 . S
H1186 C1199 0.930 . S
H1187 C1200 0.930 . S
H1188 C1204 0.959 . S
H1189 C1204 0.959 . S
H1190 C1204 0.961 . S
H1191 C1205 0.960 . S
H1192 C1205 0.961 . S
H1193 C1205 0.959 . S
H1194 C1208 0.929 . S
H1195 C1209 0.931 . S
H1196 C1211 0.930 . S
C1197 H1185 0.930 . S
C1197 C1198 1.399 . S
C1197 C1202 1.399 . S
C1198 C1197 1.399 . S
C1198 C1199 1.376 . S
C1199 H1186 0.930 . S
C1199 C1198 1.376 . S
C1199 C1200 1.388 . S
C1200 H1187 0.930 . S
C1200 C1199 1.388 . S
C1200 C1201 1.390 . S
C1201 C1200 1.390 . S
C1201 C1202 1.394 . S
C1201 C1207 1.465 . S
C1202 C1197 1.399 . S
C1202 C1201 1.394 . S
C1202 C1203 1.516 . S
C1203 C1202 1.516 . S
C1203 C1204 1.502 . S
C1203 C1205 1.561 . S
C1203 C1206 1.526 . S
C1204 H1188 0.959 . S
C1204 H1189 0.959 . S
C1204 H1190 0.961 . S
C1204 C1203 1.502 . S
C1205 H1191 0.960 . S
C1205 H1192 0.961 . S
C1205 H1193 0.959 . S
C1205 C1203 1.561 . S
C1206 C1203 1.526 . S
C1206 C1207 1.396 . S
C1206 C1211 1.390 . S
C1207 C1201 1.465 . S
C1207 C1206 1.396 . S
C1207 C1208 1.399 . S
C1208 H1194 0.929 . S
C1208 C1207 1.399 . S
C1208 C1209 1.385 . S
C1209 H1195 0.931 . S
C1209 C1208 1.385 . S
C1209 C1210 1.389 . S
C1210 C1209 1.389 . S
C1210 C1211 1.387 . S
C1211 H1196 0.930 . S
C1211 C1206 1.390 . S
C1211 C1210 1.387 . S
H1212 C1224 0.930 . S
H1213 C1226 0.930 . S
H1214 C1227 0.930 . S
H1215 C1231 0.959 . S
H1216 C1231 0.943 1_655 S
H1217 C1231 0.978 . S
H1218 C1232 0.960 1_455 S
H1219 C1232 0.961 . S
H1220 C1232 0.959 . S
H1221 C1235 0.929 . S
H1222 C1236 0.931 . S
H1223 C1238 0.930 . S
C1224 H1212 0.930 . S
C1224 C1225 1.399 . S
C1224 C1229 1.399 . S
C1225 C1224 1.399 . S
C1225 C1226 1.376 . S
C1226 H1213 0.930 . S
C1226 C1225 1.376 . S
C1226 C1227 1.388 . S
C1227 H1214 0.930 . S
C1227 C1226 1.388 . S
C1227 C1228 1.390 . S
C1228 C1227 1.390 . S
C1228 C1229 1.394 . S
C1228 C1234 1.465 1_455 S
C1229 C1224 1.399 . S
C1229 C1228 1.394 . S
C1229 C1230 1.456 1_455 S
C1230 C1229 1.456 1_655 S
C1230 C1231 1.503 1_655 S
C1230 C1232 1.568 . S
C1230 C1233 1.585 . S
C1231 H1215 0.959 . S
C1231 H1216 0.943 1_455 S
C1231 H1217 0.978 . S
C1231 C1230 1.503 1_455 S
C1232 H1218 0.960 1_655 S
C1232 H1219 0.961 . S
C1232 H1220 0.959 . S
C1232 C1230 1.568 . S
C1233 C1230 1.585 . S
C1233 C1234 1.396 . S
C1233 C1238 1.390 . S
C1234 C1228 1.465 1_655 S
C1234 C1233 1.396 . S
C1234 C1235 1.399 . S
C1235 H1221 0.929 . S
C1235 C1234 1.399 . S
C1235 C1236 1.385 . S
C1236 H1222 0.931 . S
C1236 C1235 1.385 . S
C1236 C1237 1.389 . S
C1237 C1236 1.389 . S
C1237 C1238 1.387 . S
C1238 H1223 0.930 . S
C1238 C1233 1.390 . S
C1238 C1237 1.387 . S
H1239 C1251 0.930 . S
H1240 C1253 0.930 . S
H1241 C1254 0.930 . S
H1242 C1258 0.959 . S
H1243 C1258 0.959 1_455 S
H1244 C1258 0.961 . S
H1245 C1259 0.960 . S
H1246 C1259 0.961 1_455 S
H1247 C1259 0.959 . S
H1248 C1262 0.929 . S
H1249 C1263 0.931 . S
H1250 C1265 0.930 . S
C1251 H1239 0.930 . S
C1251 C1252 1.399 . S
C1251 C1256 1.399 . S
C1252 C1251 1.399 . S
C1252 C1253 1.376 . S
C1253 H1240 0.930 . S
C1253 C1252 1.376 . S
C1253 C1254 1.388 . S
C1254 H1241 0.930 . S
C1254 C1253 1.388 . S
C1254 C1255 1.390 . S
C1255 C1254 1.390 . S
C1255 C1256 1.394 . S
C1255 C1261 1.465 1_655 S
C1256 C1251 1.399 . S
C1256 C1255 1.394 . S
C1256 C1257 1.516 . S
C1257 C1256 1.516 . S
C1257 C1258 1.502 . S
C1257 C1259 1.561 . S
C1257 C1260 1.526 1_655 S
C1258 H1242 0.959 . S
C1258 H1243 0.959 1_655 S
C1258 H1244 0.961 . S
C1258 C1257 1.502 . S
C1259 H1245 0.960 . S
C1259 H1246 0.961 1_655 S
C1259 H1247 0.959 . S
C1259 C1257 1.561 . S
C1260 C1257 1.526 1_455 S
C1260 C1261 1.396 . S
C1260 C1265 1.390 . S
C1261 C1255 1.465 1_455 S
C1261 C1260 1.396 . S
C1261 C1262 1.399 . S
C1262 H1248 0.929 . S
C1262 C1261 1.399 . S
C1262 C1263 1.385 . S
C1263 H1249 0.931 . S
C1263 C1262 1.385 . S
C1263 C1264 1.389 . S
C1264 C1263 1.389 . S
C1264 C1265 1.387 . S
C1265 H1250 0.930 . S
C1265 C1260 1.390 . S
C1265 C1264 1.387 . S
H1266 C1278 0.930 . S
H1267 C1280 0.930 . S
H1268 C1281 0.930 . S
H1269 C1285 0.959 . S
H1270 C1285 0.959 . S
H1271 C1285 0.961 . S
H1272 C1286 0.960 . S
H1273 C1286 0.961 . S
H1274 C1286 0.959 . S
H1275 C1289 0.929 . S
H1276 C1290 0.931 . S
H1277 C1292 0.930 . S
C1278 H1266 0.930 . S
C1278 C1279 1.399 . S
C1278 C1283 1.399 . S
C1279 C1278 1.399 . S
C1279 C1280 1.376 . S
C1280 H1267 0.930 . S
C1280 C1279 1.376 . S
C1280 C1281 1.388 . S
C1281 H1268 0.930 . S
C1281 C1280 1.388 . S
C1281 C1282 1.390 . S
C1282 C1281 1.390 . S
C1282 C1283 1.394 . S
C1282 C1288 1.465 . S
C1283 C1278 1.399 . S
C1283 C1282 1.394 . S
C1283 C1284 1.516 . S
C1284 C1283 1.516 . S
C1284 C1285 1.502 . S
C1284 C1286 1.561 . S
C1284 C1287 1.526 . S
C1285 H1269 0.959 . S
C1285 H1270 0.959 . S
C1285 H1271 0.961 . S
C1285 C1284 1.502 . S
C1286 H1272 0.960 . S
C1286 H1273 0.961 . S
C1286 H1274 0.959 . S
C1286 C1284 1.561 . S
C1287 C1284 1.526 . S
C1287 C1288 1.396 . S
C1287 C1292 1.390 . S
C1288 C1282 1.465 . S
C1288 C1287 1.396 . S
C1288 C1289 1.399 . S
C1289 H1275 0.929 . S
C1289 C1288 1.399 . S
C1289 C1290 1.385 . S
C1290 H1276 0.931 . S
C1290 C1289 1.385 . S
C1290 C1291 1.389 . S
C1291 C1290 1.389 . S
C1291 C1292 1.387 . S
C1292 H1277 0.930 . S
C1292 C1287 1.390 . S
C1292 C1291 1.387 . S
H1293 C1305 0.930 . S
H1294 C1307 0.930 . S
H1295 C1308 0.930 . S
H1296 C1312 0.959 . S
H1297 C1312 0.959 . S
H1298 C1312 0.961 . S
H1299 C1313 0.960 . S
H1300 C1313 0.961 . S
H1301 C1313 0.959 . S
H1302 C1316 0.929 . S
H1303 C1317 0.931 . S
H1304 C1319 0.930 . S
C1305 H1293 0.930 . S
C1305 C1306 1.399 . S
C1305 C1310 1.399 . S
C1306 C1305 1.399 . S
C1306 C1307 1.376 . S
C1307 H1294 0.930 . S
C1307 C1306 1.376 . S
C1307 C1308 1.388 . S
C1308 H1295 0.930 . S
C1308 C1307 1.388 . S
C1308 C1309 1.390 . S
C1309 C1308 1.390 . S
C1309 C1310 1.394 . S
C1309 C1315 1.465 . S
C1310 C1305 1.399 . S
C1310 C1309 1.394 . S
C1310 C1311 1.516 . S
C1311 C1310 1.516 . S
C1311 C1312 1.502 . S
C1311 C1313 1.561 . S
C1311 C1314 1.526 . S
C1312 H1296 0.959 . S
C1312 H1297 0.959 . S
C1312 H1298 0.961 . S
C1312 C1311 1.502 . S
C1313 H1299 0.960 . S
C1313 H1300 0.961 . S
C1313 H1301 0.959 . S
C1313 C1311 1.561 . S
C1314 C1311 1.526 . S
C1314 C1315 1.396 . S
C1314 C1319 1.390 . S
C1315 C1309 1.465 . S
C1315 C1314 1.396 . S
C1315 C1316 1.399 . S
C1316 H1302 0.929 . S
C1316 C1315 1.399 . S
C1316 C1317 1.385 . S
C1317 H1303 0.931 . S
C1317 C1316 1.385 . S
C1317 C1318 1.389 . S
C1318 C1317 1.389 . S
C1318 C1319 1.387 . S
C1319 H1304 0.930 . S
C1319 C1314 1.390 . S
C1319 C1318 1.387 . S
C685 C70 1.471 . S
C697 C646 1.323 . S
C712 C562 1.670 . S
C724 C142 1.548 . S
C739 C478 1.519 . S
C751 C226 1.713 . S
C766 C406 1.352 . S
C778 C310 1.477 . S
C793 C242 2.338 . S
C805 C74 2.502 . S
C820 C158 1.712 . S
C832 C326 1.699 . S
C847 C315 1.416 . S
C859 C147 1.397 . S
C874 C231 0.712 . S
C886 C63 0.741 . S
C901 C410 2.476 1_554 S
C913 C578 2.394 . S
C928 C494 1.590 1_556 S
C940 C662 1.572 . S
C955 C651 1.444 . S
C967 C483 1.462 1_554 S
C982 C567 0.603 . S
C994 C399 0.537 . S
C1009 C56 1.821 . S
C1021 C67 1.858 . S
C1036 C151 1.800 . S
C1048 C140 1.835 . S
C1063 C224 1.908 . S
C1075 C235 1.945 . S
C1090 C319 1.817 . S
C1102 C308 1.859 . S
C1117 C403 1.821 . S
C1129 C392 1.861 . S
C1144 C487 1.798 . S
C1156 C476 1.836 . S
C1171 C571 1.889 . S
C1183 C560 1.951 . S
C1198 C655 1.859 . S
C1210 C644 1.819 . S
C1225 C58 2.016 . S
C1237 C154 1.819 . S
C1252 C322 1.650 . S
C1264 C238 1.803 . S
C1279 C394 1.991 . S
C1291 C490 1.789 . S
C1306 C658 1.753 . S
C1318 C574 1.724 . S
