# Generated by pormake.
# Topology som, (6)-cn, num edge types: 1
# Building blocks:
#     Node 0, Type 0, BuildingBlock: BETDAH_clean_sbu_0, # of connection points: 6
#     Node 1, Type 0, BuildingBlock: BETDAH_clean_sbu_0, # of connection points: 6
#     Node 2, Type 0, BuildingBlock: BETDAH_clean_sbu_0, # of connection points: 6
#     Node 3, Type 0, BuildingBlock: BETDAH_clean_sbu_0, # of connection points: 6
#     Node 4, Type 0, BuildingBlock: BETDAH_clean_sbu_0, # of connection points: 6
#     Node 5, Type 0, BuildingBlock: BETDAH_clean_sbu_0, # of connection points: 6
#     Node 6, Type 0, BuildingBlock: BETDAH_clean_sbu_0, # of connection points: 6
#     Node 7, Type 0, BuildingBlock: BETDAH_clean_sbu_0, # of connection points: 6
#     Node 8, Type 0, BuildingBlock: BETDAH_clean_sbu_0, # of connection points: 6
#     Node 9, Type 0, BuildingBlock: BETDAH_clean_sbu_0, # of connection points: 6
#     Node 10, Type 0, BuildingBlock: BETDAH_clean_sbu_0, # of connection points: 6
#     Node 11, Type 0, BuildingBlock: BETDAH_clean_sbu_0, # of connection points: 6
#     Node 12, Type 0, BuildingBlock: BETDAH_clean_sbu_0, # of connection points: 6
#     Node 13, Type 0, BuildingBlock: BETDAH_clean_sbu_0, # of connection points: 6
#     Node 14, Type 0, BuildingBlock: BETDAH_clean_sbu_0, # of connection points: 6
#     Node 15, Type 0, BuildingBlock: BETDAH_clean_sbu_0, # of connection points: 6
#     Node 16, Type 0, BuildingBlock: BETDAH_clean_sbu_0, # of connection points: 6
#     Node 17, Type 0, BuildingBlock: BETDAH_clean_sbu_0, # of connection points: 6
#     Node 18, Type 0, BuildingBlock: BETDAH_clean_sbu_0, # of connection points: 6
#     Node 19, Type 0, BuildingBlock: BETDAH_clean_sbu_0, # of connection points: 6
#     Node 20, Type 0, BuildingBlock: BETDAH_clean_sbu_0, # of connection points: 6
#     Node 21, Type 0, BuildingBlock: BETDAH_clean_sbu_0, # of connection points: 6
#     Node 22, Type 0, BuildingBlock: BETDAH_clean_sbu_0, # of connection points: 6
#     Node 23, Type 0, BuildingBlock: BETDAH_clean_sbu_0, # of connection points: 6
#     Node 24, Type 0, BuildingBlock: BETDAH_clean_sbu_0, # of connection points: 6
#     Node 25, Type 0, BuildingBlock: BETDAH_clean_sbu_0, # of connection points: 6
#     Node 26, Type 0, BuildingBlock: BETDAH_clean_sbu_0, # of connection points: 6
#     Node 27, Type 0, BuildingBlock: BETDAH_clean_sbu_0, # of connection points: 6
#     Node 28, Type 0, BuildingBlock: BETDAH_clean_sbu_0, # of connection points: 6
#     Node 29, Type 0, BuildingBlock: BETDAH_clean_sbu_0, # of connection points: 6
#     Node 30, Type 0, BuildingBlock: BETDAH_clean_sbu_0, # of connection points: 6
#     Node 31, Type 0, BuildingBlock: BETDAH_clean_sbu_0, # of connection points: 6
#     Edge 32, Type (0, 0), BuildingBlock: KIFKEQ_clean_linker_1, # of connection points: 2
#     Edge 33, Type (0, 0), BuildingBlock: KIFKEQ_clean_linker_1, # of connection points: 2
#     Edge 34, Type (0, 0), BuildingBlock: KIFKEQ_clean_linker_1, # of connection points: 2
#     Edge 35, Type (0, 0), BuildingBlock: KIFKEQ_clean_linker_1, # of connection points: 2
#     Edge 36, Type (0, 0), BuildingBlock: KIFKEQ_clean_linker_1, # of connection points: 2
#     Edge 37, Type (0, 0), BuildingBlock: KIFKEQ_clean_linker_1, # of connection points: 2
#     Edge 38, Type (0, 0), BuildingBlock: KIFKEQ_clean_linker_1, # of connection points: 2
#     Edge 39, Type (0, 0), BuildingBlock: KIFKEQ_clean_linker_1, # of connection points: 2
#     Edge 40, Type (0, 0), BuildingBlock: KIFKEQ_clean_linker_1, # of connection points: 2
#     Edge 41, Type (0, 0), BuildingBlock: KIFKEQ_clean_linker_1, # of connection points: 2
#     Edge 42, Type (0, 0), BuildingBlock: KIFKEQ_clean_linker_1, # of connection points: 2
#     Edge 43, Type (0, 0), BuildingBlock: KIFKEQ_clean_linker_1, # of connection points: 2
#     Edge 44, Type (0, 0), BuildingBlock: KIFKEQ_clean_linker_1, # of connection points: 2
#     Edge 45, Type (0, 0), BuildingBlock: KIFKEQ_clean_linker_1, # of connection points: 2
#     Edge 46, Type (0, 0), BuildingBlock: KIFKEQ_clean_linker_1, # of connection points: 2
#     Edge 47, Type (0, 0), BuildingBlock: KIFKEQ_clean_linker_1, # of connection points: 2
#     Edge 48, Type (0, 0), BuildingBlock: KIFKEQ_clean_linker_1, # of connection points: 2
#     Edge 49, Type (0, 0), BuildingBlock: KIFKEQ_clean_linker_1, # of connection points: 2
#     Edge 50, Type (0, 0), BuildingBlock: KIFKEQ_clean_linker_1, # of connection points: 2
#     Edge 51, Type (0, 0), BuildingBlock: KIFKEQ_clean_linker_1, # of connection points: 2
#     Edge 52, Type (0, 0), BuildingBlock: KIFKEQ_clean_linker_1, # of connection points: 2
#     Edge 53, Type (0, 0), BuildingBlock: KIFKEQ_clean_linker_1, # of connection points: 2
#     Edge 54, Type (0, 0), BuildingBlock: KIFKEQ_clean_linker_1, # of connection points: 2
#     Edge 55, Type (0, 0), BuildingBlock: KIFKEQ_clean_linker_1, # of connection points: 2
#     Edge 56, Type (0, 0), BuildingBlock: KIFKEQ_clean_linker_1, # of connection points: 2
#     Edge 57, Type (0, 0), BuildingBlock: KIFKEQ_clean_linker_1, # of connection points: 2
#     Edge 58, Type (0, 0), BuildingBlock: KIFKEQ_clean_linker_1, # of connection points: 2
#     Edge 59, Type (0, 0), BuildingBlock: KIFKEQ_clean_linker_1, # of connection points: 2
#     Edge 60, Type (0, 0), BuildingBlock: KIFKEQ_clean_linker_1, # of connection points: 2
#     Edge 61, Type (0, 0), BuildingBlock: KIFKEQ_clean_linker_1, # of connection points: 2
#     Edge 62, Type (0, 0), BuildingBlock: KIFKEQ_clean_linker_1, # of connection points: 2
#     Edge 63, Type (0, 0), BuildingBlock: KIFKEQ_clean_linker_1, # of connection points: 2
#     Edge 64, Type (0, 0), BuildingBlock: KIFKEQ_clean_linker_1, # of connection points: 2
#     Edge 65, Type (0, 0), BuildingBlock: KIFKEQ_clean_linker_1, # of connection points: 2
#     Edge 66, Type (0, 0), BuildingBlock: KIFKEQ_clean_linker_1, # of connection points: 2
#     Edge 67, Type (0, 0), BuildingBlock: KIFKEQ_clean_linker_1, # of connection points: 2
#     Edge 68, Type (0, 0), BuildingBlock: KIFKEQ_clean_linker_1, # of connection points: 2
#     Edge 69, Type (0, 0), BuildingBlock: KIFKEQ_clean_linker_1, # of connection points: 2
#     Edge 70, Type (0, 0), BuildingBlock: KIFKEQ_clean_linker_1, # of connection points: 2
#     Edge 71, Type (0, 0), BuildingBlock: KIFKEQ_clean_linker_1, # of connection points: 2
#     Edge 72, Type (0, 0), BuildingBlock: KIFKEQ_clean_linker_1, # of connection points: 2
#     Edge 73, Type (0, 0), BuildingBlock: KIFKEQ_clean_linker_1, # of connection points: 2
#     Edge 74, Type (0, 0), BuildingBlock: KIFKEQ_clean_linker_1, # of connection points: 2
#     Edge 75, Type (0, 0), BuildingBlock: KIFKEQ_clean_linker_1, # of connection points: 2
#     Edge 76, Type (0, 0), BuildingBlock: KIFKEQ_clean_linker_1, # of connection points: 2
#     Edge 77, Type (0, 0), BuildingBlock: KIFKEQ_clean_linker_1, # of connection points: 2
#     Edge 78, Type (0, 0), BuildingBlock: KIFKEQ_clean_linker_1, # of connection points: 2
#     Edge 79, Type (0, 0), BuildingBlock: KIFKEQ_clean_linker_1, # of connection points: 2
#     Edge 80, Type (0, 0), BuildingBlock: KIFKEQ_clean_linker_1, # of connection points: 2
#     Edge 81, Type (0, 0), BuildingBlock: KIFKEQ_clean_linker_1, # of connection points: 2
#     Edge 82, Type (0, 0), BuildingBlock: KIFKEQ_clean_linker_1, # of connection points: 2
#     Edge 83, Type (0, 0), BuildingBlock: KIFKEQ_clean_linker_1, # of connection points: 2
#     Edge 84, Type (0, 0), BuildingBlock: KIFKEQ_clean_linker_1, # of connection points: 2
#     Edge 85, Type (0, 0), BuildingBlock: KIFKEQ_clean_linker_1, # of connection points: 2
#     Edge 86, Type (0, 0), BuildingBlock: KIFKEQ_clean_linker_1, # of connection points: 2
#     Edge 87, Type (0, 0), BuildingBlock: KIFKEQ_clean_linker_1, # of connection points: 2
#     Edge 88, Type (0, 0), BuildingBlock: KIFKEQ_clean_linker_1, # of connection points: 2
#     Edge 89, Type (0, 0), BuildingBlock: KIFKEQ_clean_linker_1, # of connection points: 2
#     Edge 90, Type (0, 0), BuildingBlock: KIFKEQ_clean_linker_1, # of connection points: 2
#     Edge 91, Type (0, 0), BuildingBlock: KIFKEQ_clean_linker_1, # of connection points: 2
#     Edge 92, Type (0, 0), BuildingBlock: KIFKEQ_clean_linker_1, # of connection points: 2
#     Edge 93, Type (0, 0), BuildingBlock: KIFKEQ_clean_linker_1, # of connection points: 2
#     Edge 94, Type (0, 0), BuildingBlock: KIFKEQ_clean_linker_1, # of connection points: 2
#     Edge 95, Type (0, 0), BuildingBlock: KIFKEQ_clean_linker_1, # of connection points: 2
#     Edge 96, Type (0, 0), BuildingBlock: KIFKEQ_clean_linker_1, # of connection points: 2
#     Edge 97, Type (0, 0), BuildingBlock: KIFKEQ_clean_linker_1, # of connection points: 2
#     Edge 98, Type (0, 0), BuildingBlock: KIFKEQ_clean_linker_1, # of connection points: 2
#     Edge 99, Type (0, 0), BuildingBlock: KIFKEQ_clean_linker_1, # of connection points: 2
#     Edge 100, Type (0, 0), BuildingBlock: KIFKEQ_clean_linker_1, # of connection points: 2
#     Edge 101, Type (0, 0), BuildingBlock: KIFKEQ_clean_linker_1, # of connection points: 2
#     Edge 102, Type (0, 0), BuildingBlock: KIFKEQ_clean_linker_1, # of connection points: 2
#     Edge 103, Type (0, 0), BuildingBlock: KIFKEQ_clean_linker_1, # of connection points: 2
#     Edge 104, Type (0, 0), BuildingBlock: KIFKEQ_clean_linker_1, # of connection points: 2
#     Edge 105, Type (0, 0), BuildingBlock: KIFKEQ_clean_linker_1, # of connection points: 2
#     Edge 106, Type (0, 0), BuildingBlock: KIFKEQ_clean_linker_1, # of connection points: 2
#     Edge 107, Type (0, 0), BuildingBlock: KIFKEQ_clean_linker_1, # of connection points: 2
#     Edge 108, Type (0, 0), BuildingBlock: KIFKEQ_clean_linker_1, # of connection points: 2
#     Edge 109, Type (0, 0), BuildingBlock: KIFKEQ_clean_linker_1, # of connection points: 2
#     Edge 110, Type (0, 0), BuildingBlock: KIFKEQ_clean_linker_1, # of connection points: 2
#     Edge 111, Type (0, 0), BuildingBlock: KIFKEQ_clean_linker_1, # of connection points: 2
#     Edge 112, Type (0, 0), BuildingBlock: KIFKEQ_clean_linker_1, # of connection points: 2
#     Edge 113, Type (0, 0), BuildingBlock: KIFKEQ_clean_linker_1, # of connection points: 2
#     Edge 114, Type (0, 0), BuildingBlock: KIFKEQ_clean_linker_1, # of connection points: 2
#     Edge 115, Type (0, 0), BuildingBlock: KIFKEQ_clean_linker_1, # of connection points: 2
#     Edge 116, Type (0, 0), BuildingBlock: KIFKEQ_clean_linker_1, # of connection points: 2
#     Edge 117, Type (0, 0), BuildingBlock: KIFKEQ_clean_linker_1, # of connection points: 2
#     Edge 118, Type (0, 0), BuildingBlock: KIFKEQ_clean_linker_1, # of connection points: 2
#     Edge 119, Type (0, 0), BuildingBlock: KIFKEQ_clean_linker_1, # of connection points: 2
#     Edge 120, Type (0, 0), BuildingBlock: KIFKEQ_clean_linker_1, # of connection points: 2
#     Edge 121, Type (0, 0), BuildingBlock: KIFKEQ_clean_linker_1, # of connection points: 2
#     Edge 122, Type (0, 0), BuildingBlock: KIFKEQ_clean_linker_1, # of connection points: 2
#     Edge 123, Type (0, 0), BuildingBlock: KIFKEQ_clean_linker_1, # of connection points: 2
#     Edge 124, Type (0, 0), BuildingBlock: KIFKEQ_clean_linker_1, # of connection points: 2
#     Edge 125, Type (0, 0), BuildingBlock: KIFKEQ_clean_linker_1, # of connection points: 2
#     Edge 126, Type (0, 0), BuildingBlock: KIFKEQ_clean_linker_1, # of connection points: 2
#     Edge 127, Type (0, 0), BuildingBlock: KIFKEQ_clean_linker_1, # of connection points: 2
# Relax obj value: 0.061
# Max RMSD: 0.128
# Mean RMSD: 0.128
data_MOF--net-som--node1-BETDAH_clean_sbu_0--edge1-KIFKEQ_clean_linker_1
_symmetry_space_group_name_H-M    P1
_symmetry_Int_Tables_number       1
_symmetry_cell_setting            triclinic
loop_
_symmetry_equiv_pos_as_xyz
'x, y, z'
_cell_length_a     25.997519
_cell_length_b     56.633883
_cell_length_c     111.50712
_cell_angle_alpha  90.019222
_cell_angle_beta   89.880135
_cell_angle_gamma 89.949493
loop_
_atom_site_label
_atom_site_type_symbol
_atom_site_fract_x
_atom_site_fract_y
_atom_site_fract_z
_atom_type_partial_charge
Ho0 Ho 0.99088 0.49473 0.08719 0.0
Ho1 Ho 0.09521 0.4709 0.08908 0.0
C2 C 0.99605 0.43849 0.09109 0.0
C3 C 0.89844 0.50883 0.08214 0.0
C4 C 0.84397 0.50142 0.08256 0.0
C5 C 0.81137 0.50813 0.07316 0.0
C6 C 0.75865 0.50339 0.0737 0.0
C7 C 0.73716 0.49185 0.0837 0.0
C8 C 0.77028 0.48444 0.09296 0.0
C9 C 0.8232 0.48919 0.0924 0.0
C10 C 0.03414 0.49378 0.10936 0.0
C11 C 0.08597 0.52797 0.08504 0.0
C12 C 0.18748 0.45816 0.09518 0.0
C13 C 0.24241 0.46422 0.09327 0.0
C14 C 0.27247 0.471 0.10314 0.0
C15 C 0.32544 0.47464 0.10188 0.0
C16 C 0.34985 0.47147 0.09071 0.0
C17 C 0.31948 0.46518 0.08077 0.0
C18 C 0.2664 0.46156 0.08203 0.0
C19 C 0.05714 0.47262 0.06642 0.0
O20 O 0.97047 0.45638 0.08644 0.0
O21 O 0.04427 0.44078 0.09469 0.0
O22 O 0.9213 0.51302 0.09236 0.0
O23 O 0.92835 0.49808 0.07443 0.0
O24 O 1.0095 0.51178 0.10506 0.0
O25 O 0.03327 0.47718 0.10188 0.0
O26 O 0.11386 0.5102 0.0893 0.0
O27 O 0.03842 0.52487 0.08136 0.0
O28 O 0.16218 0.44892 0.0862 0.0
O29 O 0.15961 0.47304 0.10138 0.0
O30 O 0.08504 0.45557 0.07063 0.0
O31 O 0.0539 0.48872 0.07422 0.0
H32 H 0.82659 0.51752 0.06547 0.0
H33 H 0.73463 0.50892 0.06629 0.0
H34 H 0.75512 0.47565 0.10083 0.0
H35 H 0.84759 0.48377 0.09977 0.0
H36 H 0.25508 0.47305 0.11192 0.0
H37 H 0.34732 0.47987 0.10969 0.0
H38 H 0.33693 0.46233 0.07206 0.0
H39 H 0.24447 0.45619 0.07425 0.0
Ho40 Ho 0.31224 0.72738 0.09301 0.0
Ho41 Ho 0.20815 0.75175 0.09278 0.0
C42 C 0.30708 0.78397 0.09558 0.0
C43 C 0.40549 0.71266 0.08947 0.0
C44 C 0.45952 0.72068 0.08961 0.0
C45 C 0.49237 0.71341 0.08033 0.0
C46 C 0.54472 0.71896 0.08061 0.0
C47 C 0.56549 0.73186 0.09022 0.0
C48 C 0.53222 0.73962 0.0994 0.0
C49 C 0.47967 0.73414 0.09909 0.0
C50 C 0.26188 0.72921 0.11435 0.0
C51 C 0.21691 0.69447 0.08924 0.0
C52 C 0.11485 0.76568 0.09716 0.0
C53 C 0.0602 0.75886 0.09562 0.0
C54 C 0.03127 0.75198 0.10568 0.0
C55 C 0.97836 0.74796 0.10475 0.0
C56 C 0.95293 0.75089 0.09372 0.0
C57 C 0.9821 0.7573 0.08359 0.0
C58 C 0.03511 0.76128 0.08452 0.0
C59 C 0.2549 0.74927 0.07105 0.0
O60 O 0.33379 0.76551 0.09193 0.0
O61 O 0.25766 0.78234 0.09831 0.0
O62 O 0.38153 0.71104 0.09976 0.0
O63 O 0.37619 0.72095 0.08093 0.0
O64 O 0.28859 0.71119 0.11075 0.0
O65 O 0.26512 0.74554 0.10673 0.0
O66 O 0.18759 0.71256 0.09257 0.0
O67 O 0.26626 0.69702 0.08699 0.0
O68 O 0.14095 0.77188 0.08763 0.0
O69 O 0.14228 0.75323 0.10467 0.0
O70 O 0.22746 0.76701 0.07469 0.0
O71 O 0.25397 0.73326 0.07892 0.0
H72 H 0.4777 0.70292 0.07296 0.0
H73 H 0.56923 0.71245 0.07346 0.0
H74 H 0.54687 0.74985 0.10686 0.0
H75 H 0.45506 0.74008 0.10634 0.0
H76 H 0.04934 0.75034 0.11439 0.0
H77 H 0.95709 0.74336 0.11277 0.0
H78 H 0.96389 0.75943 0.07493 0.0
H79 H 0.05611 0.76672 0.07659 0.0
Ho80 Ho 0.99666 0.73006 0.21168 0.0
Ho81 Ho 0.10187 0.75289 0.2097 0.0
C82 C 1.00389 0.78622 0.2078 0.0
C83 C 0.90399 0.71713 0.21716 0.0
C84 C 0.84979 0.7245 0.21576 0.0
C85 C 0.81862 0.7263 0.22601 0.0
C86 C 0.76614 0.73123 0.22498 0.0
C87 C 0.74355 0.73436 0.21364 0.0
C88 C 0.77506 0.73307 0.20338 0.0
C89 C 0.8277 0.72824 0.20442 0.0
C90 C 0.03853 0.73153 0.18928 0.0
C91 C 0.09033 0.69597 0.21353 0.0
C92 C 0.19441 0.76513 0.20359 0.0
C93 C 0.24917 0.75941 0.20592 0.0
C94 C 0.27583 0.74359 0.19843 0.0
C95 C 0.32879 0.74011 0.19977 0.0
C96 C 0.35648 0.75249 0.20858 0.0
C97 C 0.3296 0.76795 0.21623 0.0
C98 C 0.27665 0.77143 0.21489 0.0
C99 C 0.06414 0.75121 0.23242 0.0
O100 O 0.97751 0.76855 0.21242 0.0
O101 O 0.05195 0.78342 0.20412 0.0
O102 O 0.92847 0.70986 0.20759 0.0
O103 O 0.93277 0.73001 0.2242 0.0
O104 O 1.01129 0.71406 0.19328 0.0
O105 O 0.03948 0.74758 0.19704 0.0
O106 O 0.11881 0.71342 0.20916 0.0
O107 O 0.04339 0.69968 0.21751 0.0
O108 O 0.16829 0.77533 0.21218 0.0
O109 O 0.16713 0.74954 0.19775 0.0
O110 O 0.09286 0.76797 0.22823 0.0
O111 O 0.06009 0.73522 0.22458 0.0
H112 H 0.8347 0.72332 0.23484 0.0
H113 H 0.74294 0.73183 0.23305 0.0
H114 H 0.75896 0.73568 0.19453 0.0
H115 H 0.8508 0.72703 0.19635 0.0
H116 H 0.25605 0.73435 0.19129 0.0
H117 H 0.34832 0.72831 0.19361 0.0
H118 H 0.34958 0.77755 0.22321 0.0
H119 H 0.2575 0.78396 0.22074 0.0
Ho120 Ho 0.3118 0.4964 0.20496 0.0
Ho121 Ho 0.20931 0.4715 0.2058 0.0
C122 C 0.30841 0.43981 0.20252 0.0
C123 C 0.40548 0.51149 0.20728 0.0
C124 C 0.45971 0.50324 0.2071 0.0
C125 C 0.4864 0.50001 0.21793 0.0
C126 C 0.53909 0.49494 0.21792 0.0
C127 C 0.56659 0.49316 0.20707 0.0
C128 C 0.53959 0.49581 0.19623 0.0
C129 C 0.48685 0.50086 0.19624 0.0
C130 C 0.25854 0.49515 0.18408 0.0
C131 C 0.2164 0.52869 0.20963 0.0
C132 C 0.11598 0.45696 0.20217 0.0
C133 C 0.06142 0.46396 0.2038 0.0
C134 C 0.03837 0.48133 0.19656 0.0
C135 C 0.98545 0.48577 0.19736 0.0
C136 C 0.95438 0.47296 0.20541 0.0
C137 C 0.97777 0.456 0.21282 0.0
C138 C 0.03056 0.4515 0.21199 0.0
C139 C 0.25821 0.47382 0.22727 0.0
O140 O 0.33458 0.45839 0.20614 0.0
O141 O 0.25889 0.44118 0.19995 0.0
O142 O 0.38032 0.5117 0.19714 0.0
O143 O 0.37671 0.50484 0.21631 0.0
O144 O 0.28317 0.51354 0.18791 0.0
O145 O 0.26406 0.47833 0.19135 0.0
O146 O 0.18748 0.51058 0.2062 0.0
O147 O 0.26594 0.5263 0.21163 0.0
O148 O 0.14234 0.45205 0.21182 0.0
O149 O 0.14324 0.46828 0.19415 0.0
O150 O 0.23165 0.45584 0.22362 0.0
O151 O 0.25577 0.48998 0.21951 0.0
H152 H 0.46681 0.50196 0.22646 0.0
H153 H 0.55841 0.49268 0.22643 0.0
H154 H 0.55955 0.49486 0.18771 0.0
H155 H 0.46775 0.50355 0.18773 0.0
H156 H 0.06091 0.49118 0.1901 0.0
H157 H 0.96878 0.49914 0.19161 0.0
H158 H 0.95497 0.44559 0.219 0.0
H159 H 0.04706 0.43778 0.21755 0.0
Ho160 Ho 0.96459 0.50268 0.95525 0.0
Ho161 Ho 0.0686 0.47816 0.9553 0.0
C162 C 0.97269 0.44542 0.95886 0.0
C163 C 0.87149 0.51648 0.95061 0.0
C164 C 0.81676 0.50977 0.95225 0.0
C165 C 0.78856 0.50121 0.94243 0.0
C166 C 0.73562 0.49722 0.94339 0.0
C167 C 0.70941 0.50186 0.95419 0.0
C168 C 0.73784 0.50999 0.9641 0.0
C169 C 0.79086 0.51394 0.96314 0.0
C170 C 1.00945 0.50002 0.97714 0.0
C171 C 0.0638 0.5348 0.95256 0.0
C172 C 0.16166 0.46353 0.95913 0.0
C173 C 0.21578 0.47145 0.95874 0.0
C174 C 0.24819 0.46568 0.96834 0.0
C175 C 0.30059 0.47113 0.96792 0.0
C176 C 0.32188 0.48241 0.95783 0.0
C177 C 0.28908 0.48866 0.9483 0.0
C178 C 0.23648 0.48329 0.94876 0.0
C179 C 1.01964 0.48004 0.93383 0.0
O180 O 0.94382 0.46356 0.95543 0.0
O181 O 1.02192 0.44787 0.96125 0.0
O182 O 0.89739 0.52325 0.96005 0.0
O183 O 0.89909 0.50356 0.94331 0.0
O184 O 0.9822 0.51776 0.97346 0.0
O185 O 1.00939 0.48407 0.96923 0.0
O186 O 0.09031 0.51633 0.95625 0.0
O187 O 1.01448 0.5332 0.94978 0.0
O188 O 0.13767 0.46098 0.94891 0.0
O189 O 0.1324 0.47266 0.96748 0.0
O190 O 0.04624 0.46204 0.93747 0.0
O191 O 1.02254 0.49636 0.94147 0.0
H192 H 0.8072 0.4982 0.93386 0.0
H193 H 0.71493 0.49127 0.93553 0.0
H194 H 0.71903 0.51347 0.97259 0.0
H195 H 0.81125 0.52073 0.97086 0.0
H196 H 0.23313 0.45643 0.9761 0.0
H197 H 0.32473 0.4658 0.97534 0.0
H198 H 0.30412 0.49763 0.94047 0.0
H199 H 0.21227 0.48805 0.94125 0.0
Ho200 Ho 0.84027 0.22325 0.95839 0.0
Ho201 Ho 0.73739 0.24831 0.95905 0.0
C202 C 0.83372 0.28029 0.96242 0.0
C203 C 0.93336 0.20946 0.95356 0.0
C204 C 0.98798 0.21664 0.95496 0.0
C205 C 1.01605 0.22429 0.94491 0.0
C206 C 0.06885 0.22883 0.94574 0.0
C207 C 0.09508 0.22564 0.95665 0.0
C208 C 0.06679 0.21837 0.96677 0.0
C209 C 1.01392 0.2139 0.96594 0.0
C210 C 0.79635 0.22531 0.98046 0.0
C211 C 0.74062 0.19172 0.95535 0.0
C212 C 0.64449 0.26337 0.96285 0.0
C213 C 0.58973 0.25693 0.96114 0.0
C214 C 0.56798 0.23674 0.96646 0.0
C215 C 0.51493 0.23251 0.96565 0.0
C216 C 0.4825 0.24838 0.95952 0.0
C217 C 0.50482 0.26816 0.95393 0.0
C218 C 0.55767 0.2724 0.95477 0.0
C219 C 0.78547 0.24698 0.93742 0.0
O220 O 0.86121 0.26228 0.95828 0.0
O221 O 0.78538 0.27769 0.96567 0.0
O222 O 0.90801 0.20315 0.96318 0.0
O223 O 0.90506 0.2217 0.94614 0.0
O224 O 0.82236 0.20744 0.97644 0.0
O225 O 0.7968 0.24162 0.97276 0.0
O226 O 0.71443 0.21014 0.9593 0.0
O227 O 0.79 0.19323 0.9526 0.0
O228 O 0.67108 0.26847 0.95323 0.0
O229 O 0.67121 0.25147 0.97074 0.0
O230 O 0.76087 0.26523 0.94147 0.0
O231 O 0.78187 0.23031 0.94482 0.0
H232 H 0.99741 0.2262 0.93628 0.0
H233 H 0.08944 0.23409 0.93773 0.0
H234 H 0.08559 0.21602 0.97535 0.0
H235 H 0.99367 0.20786 0.97386 0.0
H236 H 0.59164 0.22448 0.97146 0.0
H237 H 0.49915 0.21719 0.97014 0.0
H238 H 0.48138 0.28052 0.94893 0.0
H239 H 0.57339 0.28812 0.95061 0.0
Ho240 Ho 0.95455 0.22354 0.84124 0.0
Ho241 Ho 0.05778 0.24791 0.84091 0.0
C242 C 0.96245 0.28056 0.83674 0.0
C243 C 0.86146 0.20979 0.84587 0.0
C244 C 0.80694 0.21648 0.84396 0.0
C245 C 0.78386 0.23506 0.8504 0.0
C246 C 0.73101 0.23944 0.84938 0.0
C247 C 0.70008 0.22535 0.84191 0.0
C248 C 0.72349 0.20712 0.83529 0.0
C249 C 0.7762 0.20269 0.83635 0.0
C250 C 0.99982 0.22495 0.81933 0.0
C251 C 0.05328 0.19139 0.84418 0.0
C252 C 0.15124 0.26245 0.83747 0.0
C253 C 0.20557 0.25452 0.83816 0.0
C254 C 0.23298 0.24967 0.82757 0.0
C255 C 0.28573 0.24484 0.82791 0.0
C256 C 0.31254 0.24492 0.83886 0.0
C257 C 0.28482 0.2492 0.8495 0.0
C258 C 0.232 0.254 0.84916 0.0
C259 C 1.00801 0.24711 0.86232 0.0
O260 O 0.93368 0.26276 0.84066 0.0
O261 O 1.01148 0.2777 0.8342 0.0
O262 O 0.8876 0.20289 0.83648 0.0
O263 O 0.8889 0.2227 0.85319 0.0
O264 O 0.97287 0.20736 0.82329 0.0
O265 O 0.99936 0.24136 0.82698 0.0
O266 O 0.07971 0.20967 0.84022 0.0
O267 O 1.00412 0.19325 0.84709 0.0
O268 O 0.12604 0.26536 0.84752 0.0
O269 O 0.12267 0.25329 0.82902 0.0
O270 O 0.03247 0.26535 0.85823 0.0
O271 O 1.0121 0.23027 0.85503 0.0
H272 H 0.80633 0.24596 0.85641 0.0
H273 H 0.7143 0.25378 0.8545 0.0
H274 H 0.70076 0.19573 0.82958 0.0
H275 H 0.79271 0.18803 0.83141 0.0
H276 H 0.21388 0.25016 0.81895 0.0
H277 H 0.30563 0.24128 0.81956 0.0
H278 H 0.30425 0.24969 0.85808 0.0
H279 H 0.21229 0.25794 0.85748 0.0
Ho280 Ho 0.85608 0.50525 0.83891 0.0
Ho281 Ho 0.74347 0.48195 0.83807 0.0
C282 C 0.8391 0.44864 0.8345 0.0
C283 C 0.94444 0.51914 0.84682 0.0
C284 C 0.99964 0.51718 0.84395 0.0
C285 C 0.0356 0.52018 0.85316 0.0
C286 C 0.08828 0.51838 0.8508 0.0
C287 C 0.10624 0.51354 0.83913 0.0
C288 C 0.0699 0.51044 0.8299 0.0
C289 C 1.01704 0.51222 0.83229 0.0
C290 C 0.82467 0.49947 0.81579 0.0
C291 C 0.75488 0.53843 0.84005 0.0
C292 C 0.64904 0.46887 0.83499 0.0
C293 C 0.59666 0.47788 0.83264 0.0
C294 C 0.56405 0.46476 0.82519 0.0
C295 C 0.51195 0.4706 0.8242 0.0
C296 C 0.49117 0.48967 0.83071 0.0
C297 C 0.52459 0.50355 0.83771 0.0
C298 C 0.57684 0.49772 0.83866 0.0
C299 C 0.7955 0.48171 0.85924 0.0
O300 O 0.86926 0.46557 0.83887 0.0
O301 O 0.79066 0.45224 0.83151 0.0
O302 O 0.91597 0.53166 0.83948 0.0
O303 O 0.92182 0.49971 0.85041 0.0
O304 O 0.86904 0.5081 0.81881 0.0
O305 O 0.80085 0.49462 0.82532 0.0
O306 O 0.72645 0.52036 0.83659 0.0
O307 O 0.80442 0.53643 0.84279 0.0
O308 O 0.66902 0.47381 0.84547 0.0
O309 O 0.6827 0.46969 0.82624 0.0
O310 O 0.76628 0.46453 0.85565 0.0
O311 O 0.79404 0.49807 0.85164 0.0
H312 H 1.02287 0.52383 0.86224 0.0
H313 H 0.11493 0.52041 0.85818 0.0
H314 H 0.08228 0.50688 0.8208 0.0
H315 H 0.98982 0.50976 0.82505 0.0
H316 H 0.5785 0.44941 0.82045 0.0
H317 H 0.48768 0.45982 0.81853 0.0
H318 H 0.50999 0.51829 0.84289 0.0
H319 H 0.60123 0.50818 0.84447 0.0
Ho320 Ho 0.99819 -0.00433 0.58747 0.0
Ho321 Ho 0.10223 0.97219 0.58903 0.0
C322 C 1.004 0.93942 0.59126 0.0
C323 C 0.90515 0.00933 0.5828 0.0
C324 C 0.85083 0.00163 0.58382 0.0
C325 C 0.82262 -0.00299 0.57336 0.0
C326 C 0.76992 -0.00778 0.57395 0.0
C327 C 0.74398 -0.0079 0.58504 0.0
C328 C 0.77256 -0.00388 0.59555 0.0
C329 C 0.82535 0.00086 0.59496 0.0
C330 C 0.04206 -0.00542 0.60958 0.0
C331 C 0.09248 0.02915 0.58496 0.0
C332 C 0.19487 0.95932 0.59468 0.0
C333 C 0.24955 0.96544 0.59246 0.0
C334 C 0.2738 0.98374 0.59884 0.0
C335 C 0.3267 0.98769 0.59757 0.0
C336 C 0.35659 0.97342 0.58992 0.0
C337 C 0.33209 0.95545 0.58338 0.0
C338 C 0.2793 0.95144 0.58468 0.0
C339 C 0.06299 0.97377 0.56648 0.0
O340 O 0.97793 0.95728 0.58673 0.0
O341 O 0.05225 0.94188 0.59477 0.0
O342 O 0.92957 0.0147 0.59267 0.0
O343 O 0.93427 -0.0019 0.5751 0.0
O344 O 1.01747 0.01264 0.60534 0.0
O345 O 0.041 0.97804 0.60207 0.0
O346 O 0.12068 0.01155 0.58928 0.0
O347 O 0.04502 0.02575 0.58131 0.0
O348 O 0.16904 0.95027 0.58575 0.0
O349 O 0.16721 0.97395 0.6011 0.0
O350 O 0.09083 0.95668 0.57066 0.0
O351 O 0.06025 -0.01007 0.57425 0.0
H352 H 0.84112 -0.00236 0.56465 0.0
H353 H 0.74939 -0.01118 0.56569 0.0
H354 H 0.75383 -0.00357 0.60423 0.0
H355 H 0.8458 0.00453 0.6032 0.0
H356 H 0.2522 -0.00526 0.605 0.0
H357 H 0.34426 0.00185 0.60264 0.0
H358 H 0.35402 0.94391 0.57754 0.0
H359 H 0.26199 0.93695 0.57979 0.0
Ho360 Ho 0.31279 0.2297 0.59206 0.0
Ho361 Ho 0.20892 0.25381 0.59144 0.0
C362 C 0.30719 0.2862 0.59462 0.0
C363 C 0.40656 0.21507 0.58917 0.0
C364 C 0.46078 0.22302 0.58995 0.0
C365 C 0.48381 0.23601 0.58063 0.0
C366 C 0.53656 0.24094 0.58084 0.0
C367 C 0.5675 0.23295 0.59035 0.0
C368 C 0.54414 0.2205 0.59981 0.0
C369 C 0.49149 0.21552 0.59958 0.0
C370 C 0.26111 0.23147 0.61322 0.0
C371 C 0.21815 0.19661 0.58795 0.0
C372 C 0.11555 0.26816 0.59524 0.0
C373 C 0.06124 0.26193 0.59305 0.0
C374 C 0.04109 0.2397 0.59611 0.0
C375 C 0.98831 0.23526 0.59498 0.0
C376 C 0.95476 0.25291 0.59075 0.0
C377 C 0.97544 0.27489 0.58741 0.0
C378 C 0.02804 0.27933 0.58857 0.0
C379 C 0.25702 0.25139 0.56986 0.0
O380 O 0.33421 0.26786 0.59094 0.0
O381 O 0.25782 0.28432 0.59733 0.0
O382 O 0.38099 0.21293 0.59922 0.0
O383 O 0.37827 0.22352 0.58048 0.0
O384 O 0.28786 0.21344 0.60967 0.0
O385 O 0.2648 0.24784 0.60563 0.0
O386 O 0.18854 0.2146 0.59129 0.0
O387 O 0.26745 0.19938 0.58572 0.0
O388 O 0.14292 0.27459 0.58596 0.0
O389 O 0.14146 0.25506 0.60276 0.0
O390 O 0.22951 0.26913 0.57344 0.0
O391 O 0.25561 0.23536 0.5777 0.0
H392 H 0.46142 0.24192 0.57302 0.0
H393 H 0.55323 0.2508 0.57348 0.0
H394 H 0.56689 0.21382 0.60719 0.0
H395 H 0.47509 0.20515 0.6068 0.0
H396 H 0.06587 0.22591 0.59956 0.0
H397 H 0.97371 0.21805 0.5975 0.0
H398 H 0.95072 0.28898 0.58426 0.0
H399 H 0.04266 0.29666 0.58625 0.0
Ho400 Ho 0.98716 0.2295 0.70906 0.0
Ho401 Ho 0.09259 0.25302 0.70759 0.0
C402 C 0.99348 0.28581 0.70623 0.0
C403 C 0.8945 0.21562 0.71404 0.0
C404 C 0.84045 0.22365 0.71421 0.0
C405 C 0.80791 0.21544 0.72334 0.0
C406 C 0.75531 0.22057 0.72315 0.0
C407 C 0.73394 0.23399 0.71378 0.0
C408 C 0.76705 0.24295 0.70485 0.0
C409 C 0.81984 0.23783 0.70507 0.0
C410 C 0.03063 0.23202 0.68688 0.0
C411 C 0.08205 0.19561 0.7104 0.0
C412 C 0.18471 0.2661 0.70156 0.0
C413 C 0.23973 0.26066 0.7036 0.0
C414 C 0.27141 0.25592 0.69369 0.0
C415 C 0.32439 0.25272 0.69513 0.0
C416 C 0.34711 0.2543 0.70654 0.0
C417 C 0.3151 0.25854 0.71653 0.0
C418 C 0.26198 0.26171 0.71508 0.0
C419 C 0.05387 0.25028 0.73012 0.0
O420 O 0.96782 0.26781 0.71073 0.0
O421 O 0.04143 0.28346 0.70236 0.0
O422 O 0.91629 0.21292 0.70356 0.0
O423 O 0.92556 0.2247 0.72202 0.0
O424 O 1.00374 0.21422 0.69063 0.0
O425 O 0.03069 0.24782 0.6948 0.0
O426 O 0.11145 0.21374 0.70724 0.0
O427 O 0.03349 0.19813 0.71347 0.0
O428 O 0.1586 0.27557 0.71037 0.0
O429 O 0.15795 0.25058 0.69554 0.0
O430 O 0.08253 0.26731 0.72619 0.0
O431 O 0.05026 0.23454 0.72213 0.0
H432 H 0.82303 0.20454 0.7305 0.0
H433 H 0.73126 0.21379 0.7303 0.0
H434 H 0.75196 0.25323 0.69747 0.0
H435 H 0.84422 0.24441 0.69792 0.0
H436 H 0.25525 0.25509 0.68474 0.0
H437 H 0.34758 0.24906 0.68726 0.0
H438 H 0.33125 0.26008 0.72543 0.0
H439 H 0.23861 0.26543 0.7229 0.0
Ho440 Ho 0.30742 -0.00451 0.70689 0.0
Ho441 Ho 0.2037 0.97142 0.70594 0.0
C442 C 0.30279 0.93891 0.70391 0.0
C443 C 0.40043 0.01001 0.7109 0.0
C444 C 0.45516 0.00323 0.70939 0.0
C445 C 0.47785 0.98515 0.71623 0.0
C446 C 0.53094 0.98093 0.71554 0.0
C447 C 0.56248 -0.00525 0.70803 0.0
C448 C 0.5393 0.01233 0.70095 0.0
C449 C 0.48643 0.01657 0.70167 0.0
C450 C 0.26179 -0.00622 0.68502 0.0
C451 C 0.21219 0.02857 0.70956 0.0
C452 C 0.11131 0.95807 0.7004 0.0
C453 C 0.05664 0.96484 0.70193 0.0
C454 C 1.02638 0.96872 0.69171 0.0
C455 C 0.97362 0.9731 0.69277 0.0
C456 C 0.94973 0.97356 0.7041 0.0
C457 C 0.98023 0.97005 0.71436 0.0
C458 C 0.03314 0.96576 0.7133 0.0
C459 C 0.24462 0.97362 0.72828 0.0
O460 O 0.32906 0.95729 0.70777 0.0
O461 O 0.25389 0.94072 0.70078 0.0
O462 O 0.3747 0.01496 0.70116 0.0
O463 O 0.37277 -0.00144 0.7188 0.0
O464 O 0.28663 0.01191 0.68904 0.0
O465 O 0.26372 0.97735 0.69259 0.0
O466 O 0.18346 0.01059 0.70594 0.0
O467 O 0.26055 0.02585 0.7127 0.0
O468 O 0.13618 0.95051 0.70983 0.0
O469 O 0.1396 0.97153 0.69352 0.0
O470 O 0.217 0.95631 0.72427 0.0
O471 O 0.24652 -0.01028 0.72045 0.0
H472 H 0.45492 0.97463 0.72233 0.0
H473 H 0.54747 0.96736 0.72119 0.0
H474 H 0.56211 0.02301 0.6949 0.0
H475 H 0.47011 0.03071 0.69635 0.0
H476 H 0.0434 0.96785 0.68284 0.0
H477 H 0.95126 0.97543 0.68467 0.0
H478 H 0.96318 0.97058 0.72323 0.0
H479 H 0.05537 0.96282 0.72137 0.0
Ho480 Ho 0.96051 0.00328 0.45598 0.0
Ho481 Ho 0.06349 0.9782 0.45504 0.0
C482 C 0.96756 0.94608 0.45946 0.0
C483 C 0.86708 0.01788 0.45239 0.0
C484 C 0.81257 0.01032 0.45323 0.0
C485 C 0.78485 0.00562 0.44269 0.0
C486 C 0.73207 0.00091 0.44315 0.0
C487 C 0.70556 0.00096 0.45416 0.0
C488 C 0.73349 0.00525 0.46473 0.0
C489 C 0.78637 0.0099 0.46428 0.0
C490 C 1.0094 0.00056 0.47738 0.0
C491 C 0.06016 0.03501 0.45268 0.0
C492 C 0.15672 0.96283 0.45774 0.0
C493 C 0.21122 0.9698 0.45618 0.0
C494 C 0.23316 -0.01152 0.46273 0.0
C495 C 0.28614 -0.00711 0.46206 0.0
C496 C 0.31831 0.97871 0.45486 0.0
C497 C 0.2958 0.96058 0.44803 0.0
C498 C 0.243 0.95614 0.44873 0.0
C499 C 1.01115 0.98047 0.43401 0.0
O500 O 0.93891 0.96423 0.45595 0.0
O501 O 1.01687 0.94852 0.46176 0.0
O502 O 0.89235 0.0214 0.46235 0.0
O503 O 0.89545 0.00791 0.44413 0.0
O504 O 0.98285 0.01863 0.47382 0.0
O505 O 1.00716 0.98445 0.46956 0.0
O506 O 0.08694 0.01616 0.4557 0.0
O507 O 1.01009 0.03398 0.45063 0.0
O508 O 0.12973 0.95942 0.44802 0.0
O509 O 0.13024 0.9731 0.46627 0.0
O510 O 0.0376 0.96228 0.43743 0.0
O511 O 1.01578 -0.00324 0.44162 0.0
H512 H 0.80374 0.0062 0.43403 0.0
H513 H 0.71172 -0.00199 0.43481 0.0
H514 H 0.7144 0.00514 0.47338 0.0
H515 H 0.80639 0.01362 0.47258 0.0
H516 H 0.20973 -0.00068 0.46859 0.0
H517 H 0.3021 0.00688 0.46752 0.0
H518 H 0.31909 0.9496 0.4422 0.0
H519 H 0.22713 0.9416 0.44362 0.0
Ho520 Ho 0.84031 0.72333 0.45879 0.0
Ho521 Ho 0.73662 0.74758 0.46063 0.0
C522 C 0.83223 0.78024 0.46323 0.0
C523 C 0.93249 0.71039 0.45263 0.0
C524 C 0.98734 0.71684 0.45413 0.0
C525 C 1.01806 0.71988 0.44388 0.0
C526 C 0.07097 0.72387 0.44491 0.0
C527 C 0.09464 0.72481 0.45625 0.0
C528 C 0.06353 0.72231 0.46653 0.0
C529 C 1.01048 0.71836 0.46549 0.0
C530 C 0.80169 0.72475 0.48141 0.0
C531 C 0.74068 0.69121 0.4566 0.0
C532 C 0.64395 0.76206 0.46525 0.0
C533 C 0.58911 0.75595 0.46341 0.0
C534 C 0.56808 0.73442 0.46734 0.0
C535 C 0.51506 0.73019 0.46639 0.0
C536 C 0.48195 0.74741 0.46153 0.0
C537 C 0.50353 0.76865 0.45734 0.0
C538 C 0.55634 0.77287 0.45831 0.0
C539 C 0.78048 0.74623 0.43846 0.0
O540 O 0.8596 0.76256 0.4587 0.0
O541 O 0.78481 0.77707 0.46704 0.0
O542 O 0.90797 0.702 0.46195 0.0
O543 O 0.904 0.72456 0.44619 0.0
O544 O 0.82909 0.70763 0.47708 0.0
O545 O 0.79876 0.7411 0.47374 0.0
O546 O 0.71487 0.70931 0.46101 0.0
O547 O 0.78938 0.69319 0.45328 0.0
O548 O 0.67012 0.76862 0.45581 0.0
O549 O 0.67095 0.74892 0.47257 0.0
O550 O 0.7563 0.76441 0.44272 0.0
O551 O 0.77877 0.72977 0.44598 0.0
H552 H 1.00121 0.71874 0.43502 0.0
H553 H 0.09338 0.72614 0.4368 0.0
H554 H 0.08037 0.72272 0.47541 0.0
H555 H 0.98788 0.71602 0.47357 0.0
H556 H 0.59233 0.72103 0.47135 0.0
H557 H 0.49986 0.71371 0.4698 0.0
H558 H 0.47956 0.78214 0.45333 0.0
H559 H 0.57154 0.78963 0.45523 0.0
Ho560 Ho 0.96213 0.72269 0.34311 0.0
Ho561 Ho 0.06495 0.74792 0.3439 0.0
C562 C 0.96872 0.7801 0.34019 0.0
C563 C 0.86919 0.70793 0.34711 0.0
C564 C 0.81465 0.71532 0.34638 0.0
C565 C 0.78328 0.71285 0.35656 0.0
C566 C 0.73059 0.71769 0.35597 0.0
C567 C 0.70788 0.72504 0.34516 0.0
C568 C 0.73956 0.72794 0.335 0.0
C569 C 0.79242 0.72317 0.33561 0.0
C570 C 1.01062 0.72546 0.32164 0.0
C571 C 0.06184 0.69107 0.34607 0.0
C572 C 0.15837 0.76329 0.34141 0.0
C573 C 0.213 0.7558 0.34225 0.0
C574 C 0.23733 0.74338 0.33289 0.0
C575 C 0.29037 0.73893 0.33325 0.0
C576 C 0.32036 0.74692 0.34294 0.0
C577 C 0.29562 0.75875 0.35243 0.0
C578 C 0.24274 0.76321 0.35206 0.0
C579 C 1.01212 0.74591 0.36486 0.0
O580 O 0.93974 0.76159 0.34296 0.0
O581 O 1.01839 0.77833 0.33815 0.0
O582 O 0.89403 0.70437 0.33706 0.0
O583 O 0.8976 0.71814 0.35526 0.0
O584 O 0.9842 0.70738 0.32525 0.0
O585 O 1.0085 0.74162 0.32945 0.0
O586 O 0.08831 0.70993 0.3429 0.0
O587 O 1.01199 0.69211 0.34838 0.0
O588 O 0.13231 0.76465 0.35143 0.0
O589 O 0.13072 0.75516 0.33252 0.0
O590 O 0.03735 0.7643 0.36125 0.0
O591 O 1.0175 0.7294 0.35739 0.0
H592 H 0.7994 0.70663 0.36494 0.0
H593 H 0.70737 0.71497 0.36393 0.0
H594 H 0.72347 0.73387 0.32657 0.0
H595 H 0.81564 0.72528 0.3276 0.0
H596 H 0.21574 0.73763 0.32513 0.0
H597 H 0.30814 0.72996 0.32573 0.0
H598 H 0.31723 0.76481 0.36013 0.0
H599 H 0.22533 0.77301 0.35937 0.0
Ho600 Ho 0.85005 0.00389 0.33887 0.0
Ho601 Ho 0.74515 0.98049 0.33708 0.0
C602 C 0.83966 0.94685 0.33509 0.0
C603 C 0.94192 0.01659 0.34518 0.0
C604 C 0.99665 0.01036 0.34353 0.0
C605 C 0.02837 0.00909 0.35366 0.0
C606 C 0.08104 0.00474 0.35246 0.0
C607 C 0.10328 0.00162 0.34105 0.0
C608 C 0.07125 0.00256 0.33089 0.0
C609 C 1.01839 0.00684 0.33211 0.0
C610 C 0.81241 0.00202 0.31624 0.0
C611 C 0.75107 0.0368 0.34059 0.0
C612 C 0.65236 0.96701 0.33204 0.0
C613 C 0.59767 0.97364 0.33391 0.0
C614 C 0.57271 -0.01051 0.32614 0.0
C615 C 0.5197 -0.00649 0.32714 0.0
C616 C 0.49034 0.98166 0.33589 0.0
C617 C 0.51565 0.96629 0.34384 0.0
C618 C 0.56854 0.96225 0.34283 0.0
C619 C 0.78713 0.9826 0.35943 0.0
O620 O 0.86826 0.96452 0.33915 0.0
O621 O 0.79226 0.95012 0.33136 0.0
O622 O 0.91739 0.02558 0.33602 0.0
O623 O 0.91381 0.00174 0.3513 0.0
O624 O 0.84073 0.01894 0.32041 0.0
O625 O 0.80836 0.98596 0.32405 0.0
O626 O 0.72503 0.01883 0.3362 0.0
O627 O 0.79938 0.03447 0.34415 0.0
O628 O 0.67804 0.9596 0.34138 0.0
O629 O 0.68024 0.98027 0.32494 0.0
O630 O 0.76024 0.96496 0.35554 0.0
O631 O 0.78761 -0.00152 0.35157 0.0
H632 H 1.01248 0.01189 0.36254 0.0
H633 H 0.10458 0.00443 0.36046 0.0
H634 H 0.08705 -5e-05 0.32199 0.0
H635 H 0.99473 0.00764 0.32414 0.0
H636 H 0.59379 -0.00167 0.31906 0.0
H637 H 0.50145 0.00527 0.32079 0.0
H638 H 0.49447 0.95715 0.3508 0.0
H639 H 0.5864 0.94975 0.34888 0.0
Ho640 Ho 0.48529 0.49849 0.58944 0.0
Ho641 Ho 0.58982 0.47437 0.58926 0.0
C642 C 0.4912 0.44203 0.59212 0.0
C643 C 0.39227 0.51316 0.58567 0.0
C644 C 0.33836 0.50508 0.58502 0.0
C645 C 0.30707 0.51373 0.57578 0.0
C646 C 0.25451 0.5086 0.57556 0.0
C647 C 0.23192 0.49476 0.58462 0.0
C648 C 0.26378 0.48537 0.59365 0.0
C649 C 0.31652 0.49047 0.59385 0.0
C650 C 0.53459 0.49659 0.61086 0.0
C651 C 0.58068 0.53183 0.58678 0.0
C652 C 0.68292 0.46036 0.59368 0.0
C653 C 0.73766 0.46678 0.59194 0.0
C654 C 0.76784 0.47204 0.60202 0.0
C655 C 0.82076 0.47576 0.60087 0.0
C656 C 0.84496 0.47416 0.58961 0.0
C657 C 0.81451 0.46945 0.57946 0.0
C658 C 0.76144 0.46574 0.58061 0.0
C659 C 0.54411 0.47731 0.56747 0.0
O660 O 0.46455 0.46021 0.58811 0.0
O661 O 0.54022 0.44406 0.59508 0.0
O662 O 0.41427 0.51316 0.5962 0.0
O663 O 0.42331 0.50644 0.57707 0.0
O664 O 0.50716 0.51441 0.60734 0.0
O665 O 0.53223 0.48035 0.60315 0.0
O666 O 0.61036 0.51342 0.58931 0.0
O667 O 0.53116 0.52977 0.58467 0.0
O668 O 0.65652 0.45361 0.58431 0.0
O669 O 0.656 0.47352 0.601 0.0
O670 O 0.57138 0.45949 0.57106 0.0
O671 O 0.54453 0.49316 0.57543 0.0
H672 H 0.32311 0.52499 0.56886 0.0
H673 H 0.23144 0.51573 0.56834 0.0
H674 H 0.24771 0.47477 0.60082 0.0
H675 H 0.33985 0.48353 0.60107 0.0
H676 H 0.75062 0.47279 0.61087 0.0
H677 H 0.84281 0.47974 0.60885 0.0
H678 H 0.83191 0.46786 0.57066 0.0
H679 H 0.73939 0.46152 0.57267 0.0
Ho680 Ho 0.81681 0.72878 0.59308 0.0
Ho681 Ho 0.71408 0.75408 0.59257 0.0
C682 C 0.81378 0.78553 0.59587 0.0
C683 C 0.91001 0.71333 0.59021 0.0
C684 C 0.9645 0.72037 0.59155 0.0
C685 C 0.98378 0.74161 0.58681 0.0
C686 C 0.03647 0.74679 0.58754 0.0
C687 C 0.07081 0.73089 0.59305 0.0
C688 C 0.051 0.70988 0.59794 0.0
C689 C 0.99855 0.7047 0.59717 0.0
C690 C 0.76491 0.73042 0.61417 0.0
C691 C 0.72071 0.6968 0.58918 0.0
C692 C 0.62077 0.76863 0.59652 0.0
C693 C 0.56599 0.7614 0.59547 0.0
C694 C 0.53988 0.75185 0.60541 0.0
C695 C 0.48684 0.74767 0.60495 0.0
C696 C 0.45839 0.75308 0.59458 0.0
C697 C 0.48475 0.76213 0.58455 0.0
C698 C 0.5378 0.76632 0.58501 0.0
C699 C 0.76208 0.75145 0.57098 0.0
O700 O 0.84028 0.76676 0.59255 0.0
O701 O 0.76387 0.78447 0.59811 0.0
O702 O 0.88353 0.71045 0.60008 0.0
O703 O 0.88319 0.72328 0.58167 0.0
O704 O 0.79022 0.71213 0.61042 0.0
O705 O 0.7697 0.74708 0.60678 0.0
O706 O 0.69199 0.71516 0.59237 0.0
O707 O 0.77008 0.69883 0.58683 0.0
O708 O 0.64622 0.7729 0.58663 0.0
O709 O 0.649 0.75798 0.60458 0.0
O710 O 0.73609 0.76958 0.57472 0.0
O711 O 0.75981 0.73528 0.57876 0.0
H712 H 0.95836 0.75407 0.58244 0.0
H713 H 0.05031 0.76325 0.5838 0.0
H714 H 0.07627 0.69706 0.60209 0.0
H715 H 0.98465 0.68813 0.60081 0.0
H716 H 0.5602 0.74812 0.61366 0.0
H717 H 0.46802 0.74039 0.61279 0.0
H718 H 0.4641 0.76679 0.57647 0.0
H719 H 0.55642 0.77406 0.57725 0.0
Ho720 Ho 0.48725 0.72727 0.70982 0.0
Ho721 Ho 0.59019 0.75178 0.70951 0.0
C722 C 0.49104 0.78385 0.70645 0.0
C723 C 0.39414 0.71232 0.71331 0.0
C724 C 0.33969 0.71895 0.71144 0.0
C725 C 0.31945 0.74056 0.71551 0.0
C726 C 0.2667 0.74532 0.71449 0.0
C727 C 0.23321 0.72864 0.70934 0.0
C728 C 0.25394 0.70729 0.70504 0.0
C729 C 0.3065 0.70251 0.70611 0.0
C730 C 0.53601 0.7288 0.68827 0.0
C731 C 0.58253 0.69475 0.71351 0.0
C732 C 0.68346 0.7656 0.70498 0.0
C733 C 0.73811 0.75828 0.70614 0.0
C734 C 0.76398 0.74793 0.69637 0.0
C735 C 0.81695 0.74357 0.69688 0.0
C736 C 0.84553 0.7496 0.70714 0.0
C737 C 0.8194 0.75945 0.71701 0.0
C738 C 0.76643 0.76381 0.7165 0.0
C739 C 0.54504 0.74986 0.73147 0.0
O740 O 0.46447 0.76544 0.71022 0.0
O741 O 0.54057 0.78221 0.70384 0.0
O742 O 0.42121 0.70721 0.70377 0.0
O743 O 0.42041 0.72421 0.72129 0.0
O744 O 0.51141 0.71051 0.69224 0.0
O745 O 0.53245 0.74535 0.69574 0.0
O746 O 0.61065 0.71255 0.70937 0.0
O747 O 0.53423 0.69781 0.71667 0.0
O748 O 0.65839 0.77104 0.71477 0.0
O749 O 0.65485 0.75416 0.69729 0.0
O750 O 0.57104 0.76773 0.72748 0.0
O751 O 0.54597 0.73354 0.72377 0.0
H752 H 0.34415 0.7536 0.71965 0.0
H753 H 0.25212 0.76205 0.71776 0.0
H754 H 0.22929 0.69391 0.70117 0.0
H755 H 0.3211 0.68566 0.70299 0.0
H756 H 0.74353 0.74369 0.6882 0.0
H757 H 0.8356 0.73567 0.68917 0.0
H758 H 0.84019 0.76461 0.725 0.0
H759 H 0.74799 0.77216 0.72413 0.0
Ho760 Ho 0.80616 0.49552 0.70721 0.0
Ho761 Ho 0.69468 0.47079 0.70542 0.0
C762 C 0.79828 0.43883 0.70326 0.0
C763 C 0.89871 0.5087 0.71254 0.0
C764 C 0.95265 0.50058 0.71206 0.0
C765 C 0.98636 0.50766 0.72116 0.0
C766 C 0.03864 0.50199 0.72055 0.0
C767 C 0.05851 0.48914 0.71078 0.0
C768 C 1.02422 0.48138 0.70183 0.0
C769 C 0.97174 0.48705 0.70246 0.0
C770 C 0.75767 0.49553 0.68564 0.0
C771 C 0.70823 0.52707 0.71121 0.0
C772 C 0.6072 0.45766 0.6967 0.0
C773 C 0.55141 0.46025 0.69891 0.0
C774 C 0.51896 0.46495 0.68917 0.0
C775 C 0.46584 0.46713 0.69083 0.0
C776 C 0.44381 0.46457 0.70229 0.0
C777 C 0.47656 0.46 0.71208 0.0
C778 C 0.52985 0.45789 0.71041 0.0
C779 C 0.72363 0.47635 0.72872 0.0
O780 O 0.82688 0.45749 0.70576 0.0
O781 O 0.74749 0.43979 0.70187 0.0
O782 O 0.87631 0.51353 0.70232 0.0
O783 O 0.86818 0.49796 0.72012 0.0
O784 O 0.78666 0.51271 0.68937 0.0
O785 O 0.75818 0.47913 0.69324 0.0
O786 O 0.67961 0.51035 0.70612 0.0
O787 O 0.75623 0.52351 0.71455 0.0
O788 O 0.63385 0.44488 0.7043 0.0
O789 O 0.63147 0.47675 0.69322 0.0
O790 O 0.6808 0.46645 0.72547 0.0
O791 O 0.74715 0.48222 0.71931 0.0
H792 H 0.97237 0.51801 0.72867 0.0
H793 H 0.06358 0.50784 0.72773 0.0
H794 H 0.03816 0.47157 0.69415 0.0
H795 H 0.94636 0.4813 0.69534 0.0
H796 H 0.53479 0.46695 0.68023 0.0
H797 H 0.44211 0.4711 0.68312 0.0
H798 H 0.46098 0.4577 0.72102 0.0
H799 H 0.55407 0.4543 0.71809 0.0
Ho800 Ho 0.45124 0.50469 0.4558 0.0
Ho801 Ho 0.55506 0.48083 0.45717 0.0
C802 C 0.46025 0.44774 0.46033 0.0
C803 C 0.35864 0.51754 0.45006 0.0
C804 C 0.30382 0.51135 0.45213 0.0
C805 C 0.27702 0.49755 0.44372 0.0
C806 C 0.22403 0.49381 0.44492 0.0
C807 C 0.19639 0.50393 0.45449 0.0
C808 C 0.22343 0.51735 0.46302 0.0
C809 C 0.27641 0.52108 0.46184 0.0
C810 C 0.49109 0.50343 0.47827 0.0
C811 C 0.55008 0.5372 0.45362 0.0
C812 C 0.64821 0.46688 0.46153 0.0
C813 C 0.70241 0.47465 0.46054 0.0
C814 C 0.73352 0.47422 0.47081 0.0
C815 C 0.78603 0.47936 0.47003 0.0
C816 C 0.80878 0.48491 0.45893 0.0
C817 C 0.77731 0.48587 0.44868 0.0
C818 C 0.72465 0.48083 0.44947 0.0
C819 C 0.50966 0.48175 0.43522 0.0
O820 O 0.43193 0.46535 0.45605 0.0
O821 O 0.50825 0.451 0.46363 0.0
O822 O 0.38431 0.52651 0.45904 0.0
O823 O 0.38646 0.50299 0.44364 0.0
O824 O 0.46289 0.52039 0.47409 0.0
O825 O 0.49383 0.48712 0.47057 0.0
O826 O 0.57604 0.51906 0.45788 0.0
O827 O 0.50145 0.53516 0.4503 0.0
O828 O 0.62356 0.46211 0.45161 0.0
O829 O 0.61938 0.47772 0.46942 0.0
O830 O 0.53388 0.4636 0.43949 0.0
O831 O 0.51183 0.49843 0.44264 0.0
H832 H 0.29673 0.49013 0.43603 0.0
H833 H 0.20443 0.48364 0.43809 0.0
H834 H 0.20356 0.52517 0.47059 0.0
H835 H 0.29563 0.53203 0.46841 0.0
H836 H 0.71739 0.46933 0.47942 0.0
H837 H 0.80913 0.47818 0.47808 0.0
H838 H 0.79346 0.49039 0.44002 0.0
H839 H 0.70165 0.48137 0.44139 0.0
Ho840 Ho 0.34873 0.22268 0.45809 0.0
Ho841 Ho 0.24341 0.24559 0.45998 0.0
C842 C 0.33714 0.27963 0.46189 0.0
C843 C 0.44087 0.21039 0.45168 0.0
C844 C 0.49549 0.21665 0.45349 0.0
C845 C 0.52624 0.22132 0.44341 0.0
C846 C 0.57888 0.22558 0.44467 0.0
C847 C 0.60208 0.22514 0.45605 0.0
C848 C 0.57108 0.22081 0.46617 0.0
C849 C 0.51826 0.21665 0.46492 0.0
C850 C 0.3115 0.22473 0.48079 0.0
C851 C 0.25065 0.18923 0.45671 0.0
C852 C 0.15061 0.25913 0.46503 0.0
C853 C 0.09598 0.25287 0.46301 0.0
C854 C 0.07236 0.23414 0.46921 0.0
C855 C 1.01935 0.23024 0.46818 0.0
C856 C 0.98878 0.24503 0.46096 0.0
C857 C 1.01283 0.2633 0.45451 0.0
C858 C 0.06567 0.26723 0.45558 0.0
C859 C 0.28528 0.24326 0.43757 0.0
O860 O 0.36563 0.26219 0.45748 0.0
O861 O 0.29031 0.27584 0.46592 0.0
O862 O 0.41605 0.20084 0.46066 0.0
O863 O 0.41279 0.22548 0.44572 0.0
O864 O 0.34058 0.208 0.47668 0.0
O865 O 0.30682 0.2406 0.47291 0.0
O866 O 0.22414 0.20715 0.46106 0.0
O867 O 0.29877 0.1918 0.45301 0.0
O868 O 0.17666 0.26686 0.45579 0.0
O869 O 0.178 0.24543 0.472 0.0
O870 O 0.25838 0.26096 0.44145 0.0
O871 O 0.28597 0.22753 0.44549 0.0
H872 H 0.50965 0.22121 0.4345 0.0
H873 H 0.60169 0.22856 0.43667 0.0
H874 H 0.58767 0.22063 0.47507 0.0
H875 H 0.4955 0.21312 0.47286 0.0
H876 H 0.09447 0.22285 0.47511 0.0
H877 H 1.00209 0.21614 0.47336 0.0
H878 H 0.99072 0.27477 0.44871 0.0
H879 H 0.08267 0.28191 0.45077 0.0
Ho880 Ho 0.45621 0.22176 0.34234 0.0
Ho881 Ho 0.56034 0.24623 0.34173 0.0
C882 C 0.46456 0.279 0.33891 0.0
C883 C 0.36364 0.20818 0.34768 0.0
C884 C 0.30889 0.21472 0.34605 0.0
C885 C 0.27923 0.22064 0.35615 0.0
C886 C 0.22647 0.22494 0.35509 0.0
C887 C 0.20196 0.22327 0.34389 0.0
C888 C 0.2318 0.21765 0.33373 0.0
C889 C 0.28471 0.21343 0.33479 0.0
C890 C 0.49857 0.22403 0.32018 0.0
C891 C 0.55628 0.18969 0.3447 0.0
C892 C 0.65323 0.26086 0.33768 0.0
C893 C 0.70791 0.25416 0.3392 0.0
C894 C 0.72966 0.23464 0.33326 0.0
C895 C 0.78269 0.23031 0.33392 0.0
C896 C 0.81505 0.24542 0.34051 0.0
C897 C 0.79275 0.26448 0.34674 0.0
C898 C 0.73994 0.26883 0.34604 0.0
C899 C 0.51338 0.24383 0.36351 0.0
O900 O 0.4355 0.26086 0.3422 0.0
O901 O 0.51343 0.27663 0.33613 0.0
O902 O 0.38922 0.20053 0.33835 0.0
O903 O 0.39127 0.22192 0.35454 0.0
O904 O 0.47056 0.20674 0.32409 0.0
O905 O 0.50022 0.24018 0.32802 0.0
O906 O 0.58252 0.20818 0.34096 0.0
O907 O 0.50692 0.1912 0.34756 0.0
O908 O 0.62734 0.26591 0.34741 0.0
O909 O 0.62582 0.24924 0.32982 0.0
O910 O 0.53995 0.26181 0.35987 0.0
O911 O 0.51554 0.22781 0.35572 0.0
H912 H 0.29671 0.22144 0.36496 0.0
H913 H 0.20461 0.22891 0.36312 0.0
H914 H 0.21423 0.21648 0.32496 0.0
H915 H 0.30641 0.20882 0.32683 0.0
H916 H 0.70601 0.22302 0.32787 0.0
H917 H 0.79852 0.21556 0.32895 0.0
H918 H 0.8162 0.27621 0.3521 0.0
H919 H 0.72423 0.28404 0.35068 0.0
Ho920 Ho 0.34935 0.50351 0.33891 0.0
Ho921 Ho 0.24514 0.48009 0.3377 0.0
C922 C 0.33935 0.44651 0.33519 0.0
C923 C 0.44161 0.51646 0.34475 0.0
C924 C 0.49621 0.50975 0.34324 0.0
C925 C 0.52718 0.50762 0.35347 0.0
C926 C 0.57988 0.50319 0.35239 0.0
C927 C 0.60291 0.50089 0.34103 0.0
C928 C 0.57166 0.50262 0.33077 0.0
C929 C 0.51879 0.50696 0.33186 0.0
C930 C 0.30961 0.50157 0.31644 0.0
C931 C 0.25094 0.53648 0.34107 0.0
C932 C 0.15205 0.46597 0.33349 0.0
C933 C 0.0974 0.47276 0.33517 0.0
C934 C 0.07346 0.48947 0.3277 0.0
C935 C 1.02041 0.49356 0.32853 0.0
C936 C 0.99009 0.48095 0.33681 0.0
C937 C 1.01446 0.46477 0.3445 0.0
C938 C 0.06734 0.46065 0.34365 0.0
C939 C 0.2901 0.48159 0.3597 0.0
O940 O 0.36825 0.46421 0.3391 0.0
O941 O 0.29161 0.44976 0.3317 0.0
O942 O 0.41713 0.52447 0.33536 0.0
O943 O 0.41315 0.50262 0.35139 0.0
O944 O 0.33766 0.51868 0.32052 0.0
O945 O 0.30662 0.48551 0.32428 0.0
O946 O 0.22437 0.51844 0.33692 0.0
O947 O 0.29961 0.5342 0.3443 0.0
O948 O 0.17797 0.46022 0.34309 0.0
O949 O 0.17965 0.47799 0.32579 0.0
O950 O 0.26505 0.46355 0.35563 0.0
O951 O 0.28858 0.49796 0.3521 0.0
H952 H 0.51073 0.5099 0.36234 0.0
H953 H 0.60284 0.50226 0.36047 0.0
H954 H 0.58809 0.50064 0.32189 0.0
H955 H 0.49584 0.50848 0.3238 0.0
H956 H 0.09536 0.49895 0.32098 0.0
H957 H 1.0029 0.50599 0.32239 0.0
H958 H 0.99254 0.45504 0.35113 0.0
H959 H 0.08453 0.44752 0.34946 0.0
Ho960 Ho 0.48924 -0.0049 0.08817 0.0
Ho961 Ho 0.59396 0.97118 0.08908 0.0
C962 C 0.49507 0.93864 0.09143 0.0
C963 C 0.3969 0.00937 0.0833 0.0
C964 C 0.34247 0.00201 0.0838 0.0
C965 C 0.31083 0.0068 0.07393 0.0
C966 C 0.25813 0.0021 0.07443 0.0
C967 C 0.23574 -0.00743 0.08485 0.0
C968 C 0.26786 0.98707 0.09462 0.0
C969 C 0.32077 -0.00825 0.09411 0.0
C970 C 0.53417 -0.0071 0.11012 0.0
C971 C 0.58456 0.02846 0.08598 0.0
C972 C 0.68679 0.95775 0.09424 0.0
C973 C 0.74153 0.96426 0.09246 0.0
C974 C 0.76958 0.97381 0.10207 0.0
C975 C 0.82249 0.97778 0.10102 0.0
C976 C 0.84879 0.97212 0.09036 0.0
C977 C 0.82051 0.963 0.08066 0.0
C978 C 0.76753 0.95905 0.08171 0.0
C979 C 0.55224 0.9741 0.06684 0.0
O980 O 0.4686 0.95674 0.08726 0.0
O981 O 0.54382 0.94079 0.09464 0.0
O982 O 0.42015 0.01362 0.09346 0.0
O983 O 0.42644 -0.00144 0.07553 0.0
O984 O 0.50715 0.01071 0.10642 0.0
O985 O 0.53352 0.97689 0.10231 0.0
O986 O 0.61311 0.01045 0.08971 0.0
O987 O 0.53643 0.02559 0.08269 0.0
O988 O 0.66105 0.95 0.08497 0.0
O989 O 0.65912 0.97148 0.10113 0.0
O990 O 0.57935 0.95642 0.07063 0.0
O991 O 0.55109 -0.01013 0.07483 0.0
H992 H 0.32679 0.01466 0.06588 0.0
H993 H 0.23483 0.00611 0.06665 0.0
H994 H 0.25192 0.97986 0.10282 0.0
H995 H 0.34438 0.98785 0.10185 0.0
H996 H 0.75079 0.97778 0.11052 0.0
H997 H 0.84286 0.98514 0.10861 0.0
H998 H 0.83959 0.95818 0.07237 0.0
H999 H 0.74729 0.95137 0.07418 0.0
Ho1000 Ho 0.8094 0.2284 0.09109 0.0
Ho1001 Ho 0.70515 0.25238 0.09225 0.0
C1002 C 0.80444 0.28485 0.09448 0.0
C1003 C 0.90221 0.21411 0.08661 0.0
C1004 C 0.95683 0.22028 0.0886 0.0
C1005 C 0.97828 0.24146 0.08431 0.0
C1006 C 0.03128 0.24558 0.08526 0.0
C1007 C 0.06389 0.22862 0.0905 0.0
C1008 C 0.04188 0.20782 0.09512 0.0
C1009 C 0.98908 0.20369 0.09413 0.0
C1010 C 0.76442 0.23035 0.11314 0.0
C1011 C 0.71427 0.19544 0.08805 0.0
C1012 C 0.61243 0.26545 0.09784 0.0
C1013 C 0.55775 0.25888 0.0961 0.0
C1014 C 0.52952 0.24966 0.10578 0.0
C1015 C 0.47674 0.24543 0.10473 0.0
C1016 C 0.45073 0.25052 0.09399 0.0
C1017 C 0.47912 0.25943 0.08423 0.0
C1018 C 0.53202 0.26359 0.08527 0.0
C1019 C 0.74619 0.25061 0.06987 0.0
O1020 O 0.83086 0.26656 0.09051 0.0
O1021 O 0.75537 0.283 0.09754 0.0
O1022 O 0.87569 0.20728 0.09595 0.0
O1023 O 0.87548 0.22739 0.0793 0.0
O1024 O 0.79084 0.21249 0.10928 0.0
O1025 O 0.76547 0.24648 0.1054 0.0
O1026 O 0.68595 0.21308 0.09231 0.0
O1027 O 0.76215 0.19872 0.08463 0.0
O1028 O 0.63785 0.2737 0.08863 0.0
O1029 O 0.6404 0.25142 0.10448 0.0
O1030 O 0.71801 0.26772 0.07394 0.0
O1031 O 0.74831 0.23442 0.07765 0.0
H1032 H 0.95443 0.25459 0.07996 0.0
H1033 H 0.04688 0.26172 0.08153 0.0
H1034 H 0.06555 0.19457 0.09942 0.0
H1035 H 0.97354 0.18721 0.09749 0.0
H1036 H 0.54808 0.24623 0.1143 0.0
H1037 H 0.45599 0.23887 0.11247 0.0
H1038 H 0.46039 0.26328 0.07579 0.0
H1039 H 0.55246 0.27087 0.07766 0.0
Ho1040 Ho 0.49139 0.22882 0.20939 0.0
Ho1041 Ho 0.59608 0.25274 0.20897 0.0
C1042 C 0.49734 0.28525 0.20625 0.0
C1043 C 0.39847 0.2146 0.21374 0.0
C1044 C 0.34444 0.22261 0.21361 0.0
C1045 C 0.31157 0.21526 0.22286 0.0
C1046 C 0.25914 0.22068 0.22253 0.0
C1047 C 0.23835 0.23354 0.2129 0.0
C1048 C 0.27168 0.24144 0.20377 0.0
C1049 C 0.3243 0.23607 0.20413 0.0
C1050 C 0.53894 0.23068 0.1877 0.0
C1051 C 0.5864 0.19535 0.21186 0.0
C1052 C 0.6892 0.26623 0.20416 0.0
C1053 C 0.74382 0.25967 0.20598 0.0
C1054 C 0.77368 0.25292 0.19603 0.0
C1055 C 0.82651 0.24894 0.19722 0.0
C1056 C 0.85091 0.25176 0.20837 0.0
C1057 C 0.82081 0.25807 0.21838 0.0
C1058 C 0.76785 0.262 0.2172 0.0
C1059 C 0.55197 0.25014 0.23098 0.0
O1060 O 0.47069 0.26716 0.21035 0.0
O1061 O 0.54635 0.28312 0.2032 0.0
O1062 O 0.42152 0.21201 0.20339 0.0
O1063 O 0.42847 0.22369 0.22193 0.0
O1064 O 0.51161 0.21292 0.19133 0.0
O1065 O 0.53728 0.24685 0.19543 0.0
O1066 O 0.61586 0.21353 0.20879 0.0
O1067 O 0.53746 0.19785 0.21456 0.0
O1068 O 0.66291 0.2737 0.21343 0.0
O1069 O 0.66204 0.2527 0.19709 0.0
O1070 O 0.57921 0.26782 0.22723 0.0
O1071 O 0.55171 0.2342 0.22307 0.0
H1072 H 0.32628 0.20477 0.23022 0.0
H1073 H 0.23459 0.21409 0.22964 0.0
H1074 H 0.25702 0.25164 0.19631 0.0
H1075 H 0.34896 0.24207 0.19691 0.0
H1076 H 0.75635 0.25132 0.18724 0.0
H1077 H 0.84852 0.24442 0.18928 0.0
H1078 H 0.83824 0.26012 0.22713 0.0
H1079 H 0.74605 0.26729 0.22504 0.0
Ho1080 Ho 0.81765 -0.00323 0.20444 0.0
Ho1081 Ho 0.71454 0.97193 0.20576 0.0
C1082 C 0.81371 0.94012 0.20247 0.0
C1083 C 0.91144 0.01161 0.20687 0.0
C1084 C 0.96557 0.0032 0.20679 0.0
C1085 C 0.98958 -0.00428 0.21742 0.0
C1086 C 0.04222 -0.00955 0.21757 0.0
C1087 C 0.0722 -0.00734 0.20711 0.0
C1088 C 0.04787 -0.00037 0.19643 0.0
C1089 C 0.99532 0.00491 0.19628 0.0
C1090 C 0.76469 -0.00579 0.18355 0.0
C1091 C 0.72195 0.02949 0.20806 0.0
C1092 C 0.62117 0.95704 0.20262 0.0
C1093 C 0.56672 0.96372 0.20458 0.0
C1094 C 0.54485 0.98369 0.19908 0.0
C1095 C 0.49196 -0.01191 0.20005 0.0
C1096 C 0.45988 0.97266 0.20655 0.0
C1097 C 0.48219 0.95308 0.2123 0.0
C1098 C 0.53494 0.94864 0.21128 0.0
C1099 C 0.7642 0.97523 0.22704 0.0
O1100 O 0.84014 0.95879 0.20588 0.0
O1101 O 0.76404 0.94144 0.20003 0.0
O1102 O 0.88676 0.01152 0.19666 0.0
O1103 O 0.88214 0.00541 0.21589 0.0
O1104 O 0.79165 0.01234 0.18681 0.0
O1105 O 0.76912 0.97802 0.19123 0.0
O1106 O 0.69248 0.01087 0.20583 0.0
O1107 O 0.77188 0.02778 0.20967 0.0
O1108 O 0.64856 0.95207 0.2121 0.0
O1109 O 0.64725 0.96874 0.19454 0.0
O1110 O 0.73766 0.95709 0.22362 0.0
O1111 O 0.76156 -0.00884 0.21913 0.0
H1112 H 0.96801 -0.00555 0.22572 0.0
H1113 H 0.05954 0.98487 0.22593 0.0
H1114 H 0.06981 0.00186 0.18824 0.0
H1115 H 0.97833 0.01102 0.18797 0.0
H1116 H 0.56831 -0.00434 0.19384 0.0
H1117 H 0.47612 0.00349 0.19564 0.0
H1118 H 0.45861 0.94068 0.21724 0.0
H1119 H 0.55073 0.933 0.21549 0.0
Ho1120 Ho 0.45553 0.00391 0.95565 0.0
Ho1121 Ho 0.55999 0.98011 0.95619 0.0
C1122 C 0.46516 0.94656 0.95895 0.0
C1123 C 0.36288 0.01713 0.95028 0.0
C1124 C 0.30814 0.01098 0.95235 0.0
C1125 C 0.27892 0.00154 0.94292 0.0
C1126 C 0.22599 -0.00203 0.94424 0.0
C1127 C 0.20083 0.0039 0.95501 0.0
C1128 C 0.23031 0.01285 0.96455 0.0
C1129 C 0.28332 0.01641 0.96324 0.0
C1130 C 0.49759 0.00181 0.97784 0.0
C1131 C 0.55385 0.03655 0.95359 0.0
C1132 C 0.65356 0.966 0.95982 0.0
C1133 C 0.70723 0.97462 0.96028 0.0
C1134 C 0.73704 0.96968 0.97045 0.0
C1135 C 0.78953 0.97504 0.97064 0.0
C1136 C 0.81356 0.98535 0.9606 0.0
C1137 C 0.78318 -0.00893 0.95057 0.0
C1138 C 0.73057 0.98577 0.95041 0.0
C1139 C 0.51203 0.98157 0.9346 0.0
O1140 O 0.43533 0.96478 0.95617 0.0
O1141 O 0.51459 0.94879 0.96113 0.0
O1142 O 0.38902 0.02571 0.95929 0.0
O1143 O 0.39014 0.00268 0.94366 0.0
O1144 O 0.46892 0.01892 0.97398 0.0
O1145 O 0.49986 0.98576 0.96996 0.0
O1146 O 0.58003 0.01838 0.95775 0.0
O1147 O 0.50538 0.03443 0.9502 0.0
O1148 O 0.63098 0.96556 0.94936 0.0
O1149 O 0.62258 0.97256 0.96846 0.0
O1150 O 0.53714 0.96339 0.93854 0.0
O1151 O 0.51479 -0.00195 0.94213 0.0
H1152 H 0.29684 -0.00262 0.93439 0.0
H1153 H 0.20468 -0.00929 0.93676 0.0
H1154 H 0.21216 0.01787 0.97293 0.0
H1155 H 0.30449 0.02397 0.97065 0.0
H1156 H 0.71997 0.96108 0.97817 0.0
H1157 H 0.81144 0.9708 0.9786 0.0
H1158 H 0.80037 -0.00118 0.94265 0.0
H1159 H 0.70862 -0.01022 0.94242 0.0
Ho1160 Ho 0.34983 0.7223 0.95937 0.0
Ho1161 Ho 0.24553 0.74588 0.96082 0.0
C1162 C 0.33989 0.77919 0.96366 0.0
C1163 C 0.44229 0.70956 0.95344 0.0
C1164 C 0.49685 0.71621 0.95508 0.0
C1165 C 0.52747 0.72026 0.94491 0.0
C1166 C 0.58015 0.72463 0.94606 0.0
C1167 C 0.60355 0.72491 0.95742 0.0
C1168 C 0.57266 0.72124 0.96763 0.0
C1169 C 0.51982 0.71697 0.96649 0.0
C1170 C 0.30964 0.72349 0.98184 0.0
C1171 C 0.25122 0.6896 0.9569 0.0
C1172 C 0.15244 0.76 0.96518 0.0
C1173 C 0.0978 0.75341 0.96343 0.0
C1174 C 0.07452 0.73522 0.9701 0.0
C1175 C 1.02147 0.73116 0.96924 0.0
C1176 C 0.99054 0.74525 0.96175 0.0
C1177 C 1.0143 0.76295 0.95485 0.0
C1178 C 0.06715 0.76704 0.95572 0.0
C1179 C 0.29096 0.74507 0.93882 0.0
O1180 O 0.3687 0.76161 0.95953 0.0
O1181 O 0.29215 0.77584 0.96717 0.0
O1182 O 0.41747 0.70108 0.96269 0.0
O1183 O 0.41396 0.7237 0.94694 0.0
O1184 O 0.3379 0.70653 0.97764 0.0
O1185 O 0.30683 0.73982 0.97415 0.0
O1186 O 0.22464 0.70755 0.96121 0.0
O1187 O 0.29999 0.6919 0.9537 0.0
O1188 O 0.17852 0.76611 0.95564 0.0
O1189 O 0.17985 0.7476 0.97275 0.0
O1190 O 0.26586 0.76301 0.94304 0.0
O1191 O 0.28922 0.72846 0.94627 0.0
H1192 H 0.51079 0.71954 0.93602 0.0
H1193 H 0.60283 0.72709 0.938 0.0
H1194 H 0.58936 0.72163 0.97652 0.0
H1195 H 0.49723 0.71391 0.97451 0.0
H1196 H 0.09693 0.7245 0.9762 0.0
H1197 H 1.00447 0.71751 0.97477 0.0
H1198 H 0.99194 0.77386 0.94882 0.0
H1199 H 0.08391 0.78128 0.95054 0.0
Ho1200 Ho 0.46141 0.72362 0.84343 0.0
Ho1201 Ho 0.5641 0.74855 0.84238 0.0
C1202 C 0.46796 0.78055 0.83861 0.0
C1203 C 0.36878 0.71024 0.84896 0.0
C1204 C 0.31395 0.71706 0.84744 0.0
C1205 C 0.28592 0.72569 0.8573 0.0
C1206 C 0.23302 0.73 0.8564 0.0
C1207 C 0.20663 0.72561 0.84562 0.0
C1208 C 0.23486 0.71732 0.83569 0.0
C1209 C 0.28783 0.71307 0.83658 0.0
C1210 C 0.50302 0.72492 0.82112 0.0
C1211 C 0.56183 0.692 0.84569 0.0
C1212 C 0.65706 0.76357 0.83864 0.0
C1213 C 0.71181 0.75716 0.84043 0.0
C1214 C 0.73335 0.73645 0.83558 0.0
C1215 C 0.78639 0.73217 0.83645 0.0
C1216 C 0.81903 0.7485 0.84218 0.0
C1217 C 0.79691 0.76882 0.84733 0.0
C1218 C 0.74408 0.7731 0.84642 0.0
C1219 C 0.51697 0.74712 0.86417 0.0
O1220 O 0.44034 0.76276 0.84295 0.0
O1221 O 0.51635 0.7777 0.83547 0.0
O1222 O 0.39385 0.70273 0.83953 0.0
O1223 O 0.3972 0.72352 0.85589 0.0
O1224 O 0.47582 0.70765 0.82535 0.0
O1225 O 0.50435 0.74146 0.82874 0.0
O1226 O 0.58735 0.71059 0.84182 0.0
O1227 O 0.5126 0.69328 0.84868 0.0
O1228 O 0.63022 0.76885 0.84819 0.0
O1229 O 0.63057 0.75151 0.83077 0.0
O1230 O 0.54041 0.76553 0.85998 0.0
O1231 O 0.52069 0.73048 0.85676 0.0
H1232 H 0.30471 0.72858 0.86584 0.0
H1233 H 0.21251 0.73608 0.86428 0.0
H1234 H 0.21596 0.71402 0.82721 0.0
H1235 H 0.30803 0.70626 0.82881 0.0
H1236 H 0.70951 0.72382 0.83087 0.0
H1237 H 0.80199 0.71641 0.83231 0.0
H1238 H 0.8205 0.78157 0.85202 0.0
H1239 H 0.72851 0.78921 0.85023 0.0
Ho1240 Ho 0.33756 0.0035 0.83955 0.0
Ho1241 Ho 0.23448 0.97893 0.83924 0.0
C1242 C 0.33033 0.94626 0.83608 0.0
C1243 C 0.43061 0.01745 0.84406 0.0
C1244 C 0.48519 0.0105 0.84234 0.0
C1245 C 0.50877 -0.00637 0.84979 0.0
C1246 C 0.56163 -0.01085 0.84889 0.0
C1247 C 0.59217 0.00143 0.84053 0.0
C1248 C 0.56831 0.01794 0.83293 0.0
C1249 C 0.51556 0.02248 0.83386 0.0
C1250 C 0.29345 0.00097 0.81755 0.0
C1251 C 0.23856 0.03555 0.84243 0.0
C1252 C 0.14137 0.96422 0.83558 0.0
C1253 C 0.0869 0.97193 0.83625 0.0
C1254 C 0.05833 0.97417 0.82564 0.0
C1255 C 1.00552 0.97885 0.82604 0.0
C1256 C 0.97978 0.98121 0.83709 0.0
C1257 C 1.00869 0.97958 0.84772 0.0
C1258 C 0.06161 0.97496 0.84731 0.0
C1259 C 0.28303 0.98055 0.86076 0.0
O1260 O 0.35845 0.96439 0.8398 0.0
O1261 O 0.28166 0.94882 0.83315 0.0
O1262 O 0.40483 0.02378 0.83453 0.0
O1263 O 0.40277 0.00508 0.85155 0.0
O1264 O 0.31959 0.01888 0.82141 0.0
O1265 O 0.29377 0.98489 0.82538 0.0
O1266 O 0.21227 0.01721 0.83849 0.0
O1267 O 0.28771 0.03376 0.8453 0.0
O1268 O 0.16621 0.96113 0.84565 0.0
O1269 O 0.17009 0.97371 0.82722 0.0
O1270 O 0.25844 0.96222 0.85682 0.0
O1271 O 0.27939 -0.00291 0.85328 0.0
H1272 H 0.48667 0.98421 0.8565 0.0
H1273 H 0.57867 0.97614 0.85479 0.0
H1274 H 0.59072 0.02796 0.82651 0.0
H1275 H 0.49876 0.03586 0.82813 0.0
H1276 H 0.07666 0.97177 0.81699 0.0
H1277 H 0.98476 0.98038 0.81767 0.0
H1278 H 0.99014 0.98105 0.8564 0.0
H1279 H 0.08231 0.97314 0.85568 0.0
H1280 H 0.0304 0.39794 0.10194 0.0
H1281 H 0.89799 0.4284 0.0843 0.0
H1282 H 0.98291 0.3611 0.10468 0.0
H1283 H 0.85145 0.39169 0.0868 0.0
H1284 H 0.7652 0.32826 0.10069 0.0
H1285 H 0.81181 0.36574 0.10157 0.0
H1286 H 0.95234 0.32977 0.09171 0.0
H1287 H 0.90666 0.2926 0.0911 0.0
C1288 C 0.99133 0.39678 0.09864 0.0
C1289 C 0.96817 0.41604 0.09284 0.0
C1290 C 0.96414 0.37571 0.1002 0.0
C1291 C 0.91337 0.37353 0.09598 0.0
C1292 C 0.89012 0.39292 0.09034 0.0
C1293 C 0.91715 0.41392 0.0888 0.0
C1294 C 0.80611 0.32838 0.09883 0.0
C1295 C 0.83202 0.3075 0.09572 0.0
C1296 C 0.83276 0.34982 0.09929 0.0
C1297 C 0.88575 0.35069 0.09668 0.0
C1298 C 0.91175 0.32967 0.09393 0.0
C1299 C 0.88527 0.30836 0.09346 0.0
H1300 H 0.39707 0.92809 0.08474 0.0
H1301 H 0.53082 0.89816 0.10204 0.0
H1302 H 0.35152 0.89108 0.08725 0.0
H1303 H 0.4844 0.86108 0.10482 0.0
H1304 H 0.40907 0.79204 0.09195 0.0
H1305 H 0.45396 0.82945 0.09216 0.0
H1306 H 0.31301 0.86507 0.10204 0.0
H1307 H 0.26723 0.82739 0.10152 0.0
C1308 C 0.41672 0.91366 0.08917 0.0
C1309 C 0.4678 0.91602 0.09312 0.0
C1310 C 0.3903 0.89249 0.09071 0.0
C1311 C 0.41423 0.87318 0.09627 0.0
C1312 C 0.46511 0.8756 0.10038 0.0
C1313 C 0.49169 0.89682 0.0988 0.0
C1314 C 0.38745 0.80778 0.09422 0.0
C1315 C 0.33432 0.80675 0.0966 0.0
C1316 C 0.41346 0.82925 0.09446 0.0
C1317 C 0.38709 0.85023 0.0971 0.0
C1318 C 0.33423 0.84919 0.09982 0.0
C1319 C 0.30806 0.82762 0.09958 0.0
H1320 H 0.91639 0.93275 0.2053 0.0
H1321 H 0.7743 0.89628 0.1974 0.0
H1322 H 0.96219 0.89551 0.2053 0.0
H1323 H 0.82092 0.85877 0.19712 0.0
H1324 H 0.90743 0.79764 0.2153 0.0
H1325 H 0.86151 0.83441 0.21238 0.0
H1326 H 0.99162 0.86276 0.19299 0.0
H1327 H 0.0385 0.82584 0.19613 0.0
C1328 C 0.89491 0.9168 0.20343 0.0
C1329 C 0.84146 0.91745 0.20148 0.0
C1330 C 0.92142 0.89544 0.20332 0.0
C1331 C 0.8952 0.87421 0.20125 0.0
C1332 C 0.84203 0.87488 0.1989 0.0
C1333 C 0.81537 0.89633 0.19901 0.0
C1334 C 0.92643 0.81165 0.21038 0.0
C1335 C 0.97683 0.80885 0.20599 0.0
C1336 C 0.89976 0.83267 0.20861 0.0
C1337 C 0.92275 0.85142 0.20238 0.0
C1338 C 0.97305 0.84864 0.1979 0.0
C1339 C 0.99989 0.82753 0.1997 0.0
H1340 H 0.40974 0.43168 0.207 0.0
H1341 H 0.27021 0.39667 0.19568 0.0
H1342 H 0.45515 0.39435 0.20663 0.0
H1343 H 0.31652 0.35912 0.19501 0.0
H1344 H 0.39801 0.2953 0.21212 0.0
H1345 H 0.3526 0.33238 0.20973 0.0
H1346 H 0.48821 0.36345 0.19377 0.0
H1347 H 0.5345 0.32627 0.19644 0.0
C1348 C 0.38877 0.41605 0.2043 0.0
C1349 C 0.33611 0.41713 0.20147 0.0
C1350 C 0.41509 0.39464 0.20398 0.0
C1351 C 0.38948 0.37378 0.2008 0.0
C1352 C 0.33713 0.3749 0.19765 0.0
C1353 C 0.31065 0.39639 0.19798 0.0
C1354 C 0.41832 0.30998 0.20808 0.0
C1355 C 0.47011 0.30788 0.20455 0.0
C1356 C 0.39199 0.3312 0.2066 0.0
C1357 C 0.4167 0.35082 0.20153 0.0
C1358 C 0.46829 0.34867 0.19783 0.0
C1359 C 0.49478 0.32739 0.19933 0.0
H1360 H 0.16576 0.54287 0.95622 0.0
H1361 H 1.02417 0.57819 0.94657 0.0
H1362 H 0.21066 0.58031 0.95601 0.0
H1363 H 0.06992 0.61587 0.94606 0.0
H1364 H 0.15309 0.67889 0.9635 0.0
H1365 H 0.10787 0.64183 0.96092 0.0
H1366 H 0.24139 0.61206 0.94338 0.0
H1367 H 0.28749 0.64922 0.94621 0.0
C1368 C 0.1442 0.55861 0.95393 0.0
C1369 C 0.09113 0.55757 0.95153 0.0
C1370 C 0.17022 0.58008 0.95369 0.0
C1371 C 0.14389 0.60106 0.95104 0.0
C1372 C 0.09111 0.59999 0.94829 0.0
C1373 C 0.06495 0.57843 0.94853 0.0
C1374 C 0.17295 0.66451 0.95905 0.0
C1375 C 0.22411 0.66697 0.95512 0.0
C1376 C 0.14672 0.6433 0.95748 0.0
C1377 C 0.17091 0.62404 0.9519 0.0
C1378 C 0.22188 0.62655 0.94782 0.0
C1379 C 0.24827 0.64781 0.94942 0.0
H1380 H 0.63985 0.18271 0.96035 0.0
H1381 H 0.77834 0.14984 0.94669 0.0
H1382 H 0.59451 0.14544 0.95861 0.0
H1383 H 0.73227 0.11252 0.94469 0.0
H1384 H 0.65342 0.04593 0.95933 0.0
H1385 H 0.69781 0.08346 0.95847 0.0
H1386 H 0.56083 0.11662 0.94442 0.0
H1387 H 0.51549 0.07886 0.94553 0.0
C1388 C 0.66058 0.16758 0.95687 0.0
C1389 C 0.71293 0.16919 0.95376 0.0
C1390 C 0.63434 0.14625 0.95577 0.0
C1391 C 0.65978 0.12604 0.95152 0.0
C1392 C 0.71181 0.12776 0.94814 0.0
C1393 C 0.73816 0.14913 0.94925 0.0
C1394 C 0.63258 0.06115 0.95601 0.0
C1395 C 0.5807 0.05943 0.95256 0.0
C1396 C 0.65832 0.08266 0.95541 0.0
C1397 C 0.63292 0.10298 0.95134 0.0
C1398 C 0.58126 0.10126 0.94771 0.0
C1399 C 0.55535 0.07965 0.94831 0.0
H1400 H 1.01416 0.14895 0.85182 0.0
H1401 H 0.15385 0.18216 0.83916 0.0
H1402 H 0.05921 0.11112 0.85287 0.0
H1403 H 0.19804 0.14451 0.83994 0.0
H1404 H 0.27635 0.07712 0.85141 0.0
H1405 H 0.23087 0.11463 0.85342 0.0
H1406 H 0.09396 0.08277 0.83864 0.0
H1407 H 0.1387 0.0453 0.83689 0.0
C1408 C 0.05438 0.14821 0.8493 0.0
C1409 C 0.08027 0.16854 0.84535 0.0
C1410 C 0.08012 0.12654 0.84985 0.0
C1411 C 0.13219 0.12483 0.84648 0.0
C1412 C 0.1582 0.14528 0.84278 0.0
C1413 C 0.1326 0.16686 0.84224 0.0
C1414 C 0.23649 0.07811 0.84864 0.0
C1415 C 0.2113 0.05826 0.84393 0.0
C1416 C 0.21047 0.0996 0.84977 0.0
C1417 C 0.15881 0.10167 0.84617 0.0
C1418 C 0.13347 0.08169 0.84166 0.0
C1419 C 0.15937 0.06024 0.84056 0.0
H1420 H 0.52437 0.64787 0.85111 0.0
H1421 H 0.66443 0.68525 0.84227 0.0
H1422 H 0.5722 0.61066 0.85103 0.0
H1423 H 0.71133 0.64834 0.84189 0.0
H1424 H 0.79083 0.57902 0.85064 0.0
H1425 H 0.7437 0.6159 0.85375 0.0
H1426 H 0.6117 0.58625 0.83572 0.0
H1427 H 0.65785 0.54954 0.83285 0.0
C1428 C 0.56525 0.64818 0.84923 0.0
C1429 C 0.59036 0.66949 0.84659 0.0
C1430 C 0.59261 0.62689 0.84912 0.0
C1431 C 0.64554 0.62655 0.84638 0.0
C1432 C 0.67081 0.64797 0.84416 0.0
C1433 C 0.64362 0.66916 0.84427 0.0
C1434 C 0.75184 0.58044 0.84732 0.0
C1435 C 0.72825 0.56134 0.84148 0.0
C1436 C 0.7248 0.60153 0.84911 0.0
C1437 C 0.67377 0.60392 0.84507 0.0
C1438 C 0.65047 0.58484 0.83919 0.0
C1439 C 0.6773 0.56383 0.83743 0.0
H1440 H 0.90714 0.92843 0.58397 0.0
H1441 H 0.03869 0.89944 0.60256 0.0
H1442 H 0.86132 0.89157 0.58665 0.0
H1443 H 0.99193 0.86246 0.60549 0.0
H1444 H 0.91652 0.79286 0.59292 0.0
H1445 H 0.9623 0.83009 0.59305 0.0
H1446 H 0.82111 0.86671 0.60172 0.0
H1447 H 0.77455 0.82927 0.60129 0.0
C1448 C 0.92624 0.91423 0.58871 0.0
C1449 C 0.97675 0.91683 0.593 0.0
C1450 C 0.89965 0.89315 0.59035 0.0
C1451 C 0.92283 0.87416 0.59634 0.0
C1452 C 0.97322 0.87676 0.60074 0.0
C1453 C 0.99998 0.89792 0.59907 0.0
C1454 C 0.89507 0.80879 0.59493 0.0
C1455 C 0.84166 0.80812 0.59696 0.0
C1456 C 0.92156 0.83014 0.59511 0.0
C1457 C 0.89534 0.85134 0.59735 0.0
C1458 C 0.84222 0.85065 0.59979 0.0
C1459 C 0.81559 0.82922 0.5996 0.0
H1460 H 0.40806 0.29528 0.59 0.0
H1461 H 0.26713 0.32888 0.60171 0.0
H1462 H 0.45195 0.33295 0.59062 0.0
H1463 H 0.31191 0.36677 0.60261 0.0
H1464 H 0.39203 0.43186 0.5862 0.0
H1465 H 0.3475 0.39445 0.5882 0.0
H1466 H 0.48359 0.36341 0.60387 0.0
H1467 H 0.52893 0.40087 0.6016 0.0
C1468 C 0.38646 0.31068 0.59284 0.0
C1469 C 0.33388 0.3091 0.59573 0.0
C1470 C 0.4119 0.33227 0.59329 0.0
C1471 C 0.38547 0.35284 0.59667 0.0
C1472 C 0.33315 0.35123 0.59984 0.0
C1473 C 0.30755 0.32954 0.59937 0.0
C1474 C 0.41259 0.41711 0.59011 0.0
C1475 C 0.46426 0.41929 0.59365 0.0
C1476 C 0.38678 0.3957 0.59136 0.0
C1477 C 0.41195 0.37598 0.59621 0.0
C1478 C 0.46335 0.37825 0.59997 0.0
C1479 C 0.4893 0.3997 0.59869 0.0
H1480 H 0.90021 0.2972 0.71563 0.0
H1481 H 1.02282 0.32517 0.69357 0.0
H1482 H 0.85227 0.33356 0.71325 0.0
H1483 H 0.97376 0.36165 0.69092 0.0
H1484 H 0.90193 0.43185 0.70346 0.0
H1485 H 0.94822 0.39488 0.70296 0.0
H1486 H 0.80486 0.35711 0.69901 0.0
H1487 H 0.75769 0.39445 0.69988 0.0
C1488 C 0.91688 0.31108 0.71019 0.0
C1489 C 0.96555 0.30834 0.70483 0.0
C1490 C 0.88899 0.33186 0.70872 0.0
C1491 C 0.90893 0.35044 0.70182 0.0
C1492 C 0.95753 0.3477 0.69638 0.0
C1493 C 0.98567 0.32685 0.6979 0.0
C1494 C 0.87994 0.41574 0.70242 0.0
C1495 C 0.82583 0.41613 0.70187 0.0
C1496 C 0.90677 0.39449 0.70201 0.0
C1497 C 0.88031 0.37304 0.70098 0.0
C1498 C 0.8263 0.37339 0.69998 0.0
C1499 C 0.79927 0.39475 0.70042 0.0
H1500 H 0.39035 0.79308 0.71143 0.0
H1501 H 0.52896 0.82568 0.69776 0.0
H1502 H 0.34492 0.83029 0.7095 0.0
H1503 H 0.48277 0.86297 0.69555 0.0
H1504 H 0.40271 0.92994 0.70955 0.0
H1505 H 0.44768 0.89252 0.70892 0.0
H1506 H 0.31105 0.85863 0.6952 0.0
H1507 H 0.26512 0.89629 0.69608 0.0
C1508 C 0.41111 0.80814 0.70791 0.0
C1509 C 0.4635 0.80645 0.70484 0.0
C1510 C 0.3848 0.82945 0.7067 0.0
C1511 C 0.41017 0.84958 0.70236 0.0
C1512 C 0.46232 0.84781 0.69906 0.0
C1513 C 0.48876 0.82645 0.7003 0.0
C1514 C 0.38207 0.91459 0.70633 0.0
C1515 C 0.33009 0.91609 0.70293 0.0
C1516 C 0.40816 0.89313 0.70588 0.0
C1517 C 0.38303 0.87261 0.70199 0.0
C1518 C 0.33129 0.87412 0.69836 0.0
C1519 C 0.30504 0.89568 0.69883 0.0
H1520 H 1.02086 0.07895 0.44767 0.0
H1521 H 0.16299 0.0423 0.45545 0.0
H1522 H 0.06758 0.11636 0.44727 0.0
H1523 H 0.20893 0.07949 0.45534 0.0
H1524 H 0.28515 0.14898 0.44552 0.0
H1525 H 0.23836 0.11191 0.4429 0.0
H1526 H 0.1087 0.14118 0.46216 0.0
H1527 H 0.15453 0.17809 0.46454 0.0
C1528 C 0.06196 0.07884 0.44924 0.0
C1529 C 0.08802 0.05766 0.45168 0.0
C1530 C 0.08869 0.10025 0.44906 0.0
C1531 C 0.14194 0.10088 0.45133 0.0
C1532 C 0.16811 0.07961 0.45342 0.0
C1533 C 0.14151 0.05827 0.45358 0.0
C1534 C 0.24667 0.14746 0.44918 0.0
C1535 C 0.22369 0.16646 0.45525 0.0
C1536 C 0.21988 0.12625 0.44769 0.0
C1537 C 0.16968 0.12367 0.45227 0.0
C1538 C 0.14684 0.14272 0.45831 0.0
C1539 C 0.17346 0.16385 0.45977 0.0
H1540 H 0.77662 0.65001 0.4467 0.0
H1541 H 0.64094 0.68179 0.46241 0.0
H1542 H 0.72953 0.61306 0.44411 0.0
H1543 H 0.59467 0.64494 0.46006 0.0
H1544 H 0.51167 0.58016 0.44642 0.0
H1545 H 0.55801 0.61771 0.44546 0.0
H1546 H 0.69658 0.58277 0.45739 0.0
H1547 H 0.65122 0.54552 0.45809 0.0
C1548 C 0.73689 0.64913 0.4496 0.0
C1549 C 0.71273 0.66878 0.45483 0.0
C1550 C 0.70993 0.62798 0.44813 0.0
C1551 C 0.65836 0.6261 0.45188 0.0
C1552 C 0.63405 0.6459 0.45691 0.0
C1553 C 0.66088 0.66699 0.45836 0.0
C1554 C 0.55211 0.58052 0.44872 0.0
C1555 C 0.57756 0.55989 0.45241 0.0
C1556 C 0.57859 0.602 0.44822 0.0
C1557 C 0.63096 0.60318 0.45136 0.0
C1558 C 0.65652 0.58242 0.45474 0.0
C1559 C 0.6302 0.56106 0.45525 0.0
H1560 H 0.15348 0.54737 0.33411 0.0
H1561 H 0.28672 0.57686 0.35178 0.0
H1562 H 0.10801 0.58443 0.33666 0.0
H1563 H 0.24037 0.61401 0.35458 0.0
H1564 H 0.16406 0.68344 0.34232 0.0
H1565 H 0.20959 0.64609 0.34216 0.0
H1566 H 0.06919 0.6098 0.3517 0.0
H1567 H 1.02287 0.64735 0.35157 0.0
C1568 C 0.17304 0.56172 0.33862 0.0
C1569 C 0.2239 0.5592 0.3427 0.0
C1570 C 0.14667 0.58293 0.34018 0.0
C1571 C 0.17043 0.60211 0.34588 0.0
C1572 C 0.2212 0.59958 0.35005 0.0
C1573 C 0.24772 0.57832 0.34846 0.0
C1574 C 0.14274 0.66755 0.34446 0.0
C1575 C 0.08961 0.66836 0.34686 0.0
C1576 C 0.16909 0.64613 0.34446 0.0
C1577 C 0.14303 0.62499 0.34689 0.0
C1578 C 0.09018 0.62581 0.34963 0.0
C1579 C 0.06369 0.6473 0.34962 0.0
H1580 H 0.78434 0.07708 0.3519 0.0
H1581 H 0.65415 0.04727 0.33315 0.0
H1582 H 0.73611 0.11374 0.35481 0.0
H1583 H 0.60691 0.08375 0.33585 0.0
H1584 H 0.5178 0.14582 0.35024 0.0
H1585 H 0.56543 0.10856 0.35087 0.0
H1586 H 0.70573 0.14571 0.34216 0.0
H1587 H 0.65903 0.18266 0.3418 0.0
C1588 C 0.74565 0.07835 0.34838 0.0
C1589 C 0.72324 0.0593 0.34227 0.0
C1590 C 0.71802 0.09931 0.35004 0.0
C1591 C 0.66758 0.10156 0.34561 0.0
C1592 C 0.64524 0.08243 0.33958 0.0
C1593 C 0.67268 0.06157 0.33793 0.0
C1594 C 0.55887 0.146 0.34859 0.0
C1595 C 0.58442 0.16715 0.34586 0.0
C1596 C 0.58611 0.1247 0.34891 0.0
C1597 C 0.63933 0.12422 0.34652 0.0
C1598 C 0.66497 0.14549 0.34419 0.0
C1599 C 0.63789 0.16668 0.34386 0.0
H1600 H 0.08273 0.53128 0.11964 0.0
H1601 H 0.05769 0.45659 0.12384 0.0
H1602 H 0.13783 0.53143 0.13721 0.0
H1603 H 0.10867 0.45673 0.14211 0.0
H1604 H 0.23629 0.45761 0.16964 0.0
H1605 H 0.18416 0.45724 0.15154 0.0
H1606 H 0.14853 0.53122 0.15702 0.0
H1607 H 0.20475 0.53168 0.1744 0.0
C1608 C 0.08829 0.51494 0.12452 0.0
C1609 C 0.06579 0.49396 0.12041 0.0
C1610 C 0.1197 0.51497 0.13474 0.0
C1611 C 0.12821 0.49411 0.14141 0.0
C1612 C 0.1047 0.47315 0.13726 0.0
C1613 C 0.07473 0.47303 0.12681 0.0
C1614 C 0.21742 0.47377 0.16687 0.0
C1615 C 0.22496 0.49471 0.17334 0.0
C1616 C 0.18684 0.47359 0.1565 0.0
C1617 C 0.16136 0.49423 0.15254 0.0
C1618 C 0.16821 0.51504 0.15935 0.0
C1619 C 0.2002 0.51534 0.16946 0.0
H1620 H 0.20709 0.76647 0.12341 0.0
H1621 H 0.24339 0.69336 0.13016 0.0
H1622 H 0.15127 0.76706 0.14105 0.0
H1623 H 0.18924 0.69406 0.14808 0.0
H1624 H 0.04957 0.69574 0.17297 0.0
H1625 H 0.10239 0.69536 0.15481 0.0
H1626 H 0.15148 0.76674 0.16231 0.0
H1627 H 0.0972 0.76727 0.18017 0.0
C1628 C 0.20328 0.75053 0.12871 0.0
C1629 C 0.2294 0.72983 0.12534 0.0
C1630 C 0.17155 0.7509 0.1389 0.0
C1631 C 0.1654 0.7306 0.14607 0.0
C1632 C 0.19211 0.70995 0.14272 0.0
C1633 C 0.22362 0.70958 0.13249 0.0
C1634 C 0.07141 0.71138 0.17067 0.0
C1635 C 0.06929 0.7315 0.17802 0.0
C1636 C 0.10214 0.71113 0.1603 0.0
C1637 C 0.13168 0.73099 0.15703 0.0
C1638 C 0.12894 0.7512 0.16438 0.0
C1639 C 0.09804 0.75147 0.1747 0.0
H1640 H 0.8101 0.44558 0.87514 0.0
H1641 H 0.85419 0.51766 0.86811 0.0
H1642 H 0.86365 0.4454 0.89312 0.0
H1643 H 0.90944 0.51732 0.88577 0.0
H1644 H 0.96443 0.51712 0.92473 0.0
H1645 H 0.90944 0.51749 0.907 0.0
H1646 H 0.95003 0.4448 0.89986 0.0
H1647 H 1.00321 0.44429 0.91787 0.0
C1648 C 0.83152 0.46135 0.87741 0.0
C1649 C 0.82812 0.48158 0.87017 0.0
C1650 C 0.86264 0.46123 0.88768 0.0
C1651 C 0.89133 0.48133 0.89097 0.0
C1652 C 0.88757 0.50159 0.88369 0.0
C1653 C 0.8562 0.50174 0.87348 0.0
C1654 C 0.96137 0.50121 0.91939 0.0
C1655 C 0.98786 0.48063 0.92276 0.0
C1656 C 0.93014 0.50145 0.90914 0.0
C1657 C 0.92491 0.48115 0.90191 0.0
C1658 C 0.95214 0.46066 0.90526 0.0
C1659 C 0.9831 0.46041 0.91555 0.0
H1660 H 0.95624 0.28397 0.87233 0.0
H1661 H 0.98623 0.20971 0.87684 0.0
H1662 H 0.90107 0.2837 0.88994 0.0
H1663 H 0.93517 0.20951 0.89516 0.0
H1664 H 0.80822 0.20952 0.92298 0.0
H1665 H 0.85947 0.20939 0.90468 0.0
H1666 H 0.89202 0.28373 0.90983 0.0
H1667 H 0.83671 0.28391 0.92742 0.0
C1668 C 0.95164 0.26764 0.87727 0.0
C1669 C 0.97558 0.24689 0.87326 0.0
C1670 C 0.92026 0.26744 0.88751 0.0
C1671 C 0.91328 0.24662 0.8943 0.0
C1672 C 0.93803 0.22588 0.89022 0.0
C1673 C 0.96799 0.22596 0.87974 0.0
C1674 C 0.82616 0.22581 0.92007 0.0
C1675 C 0.81807 0.24676 0.92652 0.0
C1676 C 0.85622 0.22578 0.90961 0.0
C1677 C 0.88057 0.24658 0.90551 0.0
C1678 C 0.87314 0.26741 0.91227 0.0
C1679 C 0.84167 0.26756 0.92249 0.0
H1680 H 0.06271 0.95727 0.62419 0.0
H1681 H 0.09241 0.03157 0.61985 0.0
H1682 H 0.11279 0.95696 0.64259 0.0
H1683 H 0.14681 0.0312 0.63755 0.0
H1684 H 0.21191 0.031 0.67491 0.0
H1685 H 0.15692 0.03112 0.65734 0.0
H1686 H 0.18748 0.95654 0.65229 0.0
H1687 H 0.23828 0.9564 0.67059 0.0
C1688 C 0.08062 0.97352 0.62716 0.0
C1689 C 0.07323 -0.00552 0.62069 0.0
C1690 C 0.11009 0.97337 0.63768 0.0
C1691 C 0.13471 -0.00594 0.64183 0.0
C1692 C 0.12778 0.01495 0.63508 0.0
C1693 C 0.09679 0.01522 0.6248 0.0
C1694 C 0.20656 0.01466 0.67001 0.0
C1695 C 0.22946 -0.00628 0.67408 0.0
C1696 C 0.17526 0.01468 0.65979 0.0
C1697 C 0.1673 -0.00613 0.65305 0.0
C1698 C 0.19103 0.97293 0.65718 0.0
C1699 C 0.22087 0.9728 0.66766 0.0
H1700 H 0.24249 0.19561 0.62899 0.0
H1701 H 0.20449 0.26845 0.62197 0.0
H1702 H 0.18673 0.19602 0.64662 0.0
H1703 H 0.14706 0.26874 0.63933 0.0
H1704 H 0.08853 0.26841 0.67814 0.0
H1705 H 0.14477 0.2684 0.66059 0.0
H1706 H 0.09921 0.19667 0.65274 0.0
H1707 H 0.0446 0.19651 0.67059 0.0
C1708 C 0.222 0.21171 0.6312 0.0
C1709 C 0.22775 0.23197 0.62406 0.0
C1710 C 0.18958 0.2119 0.64126 0.0
C1711 C 0.16186 0.23237 0.64445 0.0
C1712 C 0.16805 0.25271 0.6373 0.0
C1713 C 0.20072 0.25252 0.62727 0.0
C1714 C 0.09061 0.25264 0.67266 0.0
C1715 C 0.06241 0.23241 0.6758 0.0
C1716 C 0.12262 0.25267 0.66252 0.0
C1717 C 0.12693 0.23251 0.65518 0.0
C1718 C 0.0978 0.2124 0.65825 0.0
C1719 C 0.06603 0.21236 0.66843 0.0
H1720 H 0.99131 0.94479 0.41828 0.0
H1721 H 0.95736 0.01816 0.42501 0.0
H1722 H 0.93698 0.9457 0.40049 0.0
H1723 H 0.90092 0.01894 0.40752 0.0
H1724 H 0.84456 0.01883 0.36853 0.0
H1725 H 0.89896 0.01856 0.38634 0.0
H1726 H 0.85085 0.94706 0.39395 0.0
H1727 H 0.79837 0.94714 0.37582 0.0
C1728 C 0.97192 0.96111 0.41599 0.0
C1729 C 0.97838 0.98135 0.42311 0.0
C1730 C 0.94026 0.9616 0.40583 0.0
C1731 C 0.91391 0.98235 0.40251 0.0
C1732 C 0.92081 0.00267 0.40964 0.0
C1733 C 0.95284 0.0022 0.41976 0.0
C1734 C 0.84575 0.00305 0.37401 0.0
C1735 C 0.81757 0.98293 0.3707 0.0
C1736 C 0.87667 0.00294 0.38431 0.0
C1737 C 0.87981 0.98275 0.39166 0.0
C1738 C 0.85047 0.9628 0.38844 0.0
C1739 C 0.81988 0.96288 0.37809 0.0
H1740 H 0.95816 0.78265 0.37421 0.0
H1741 H 0.98688 0.70837 0.37908 0.0
H1742 H 0.89997 0.78255 0.39127 0.0
H1743 H 0.9326 0.70834 0.3969 0.0
H1744 H 0.8032 0.70886 0.42402 0.0
H1745 H 0.85582 0.70852 0.40594 0.0
H1746 H 0.88823 0.78288 0.41106 0.0
H1747 H 0.83156 0.78326 0.42841 0.0
C1748 C 0.95252 0.76633 0.37911 0.0
C1749 C 0.97711 0.74554 0.37536 0.0
C1750 C 0.91941 0.76624 0.38904 0.0
C1751 C 0.91123 0.7455 0.39581 0.0
C1752 C 0.9364 0.72467 0.39196 0.0
C1753 C 0.96817 0.72464 0.38176 0.0
C1754 C 0.82129 0.72513 0.42113 0.0
C1755 C 0.81286 0.74613 0.42751 0.0
C1756 C 0.85218 0.72496 0.4108 0.0
C1757 C 0.87708 0.74568 0.40678 0.0
C1758 C 0.86903 0.76661 0.41344 0.0
C1759 C 0.83672 0.76689 0.42353 0.0
H1760 H 0.54979 0.53222 0.62696 0.0
H1761 H 0.59189 0.45994 0.61968 0.0
H1762 H 0.60336 0.5319 0.6449 0.0
H1763 H 0.64731 0.45978 0.63733 0.0
H1764 H 0.70197 0.45916 0.67624 0.0
H1765 H 0.64738 0.45939 0.65849 0.0
H1766 H 0.68955 0.53201 0.65177 0.0
H1767 H 0.7424 0.53192 0.66987 0.0
C1768 C 0.57073 0.51627 0.62917 0.0
C1769 C 0.56673 0.49614 0.62187 0.0
C1770 C 0.60193 0.51613 0.63942 0.0
C1771 C 0.63018 0.49585 0.64264 0.0
C1772 C 0.62581 0.47566 0.63531 0.0
C1773 C 0.59432 0.47578 0.6251 0.0
C1774 C 0.69936 0.47521 0.67099 0.0
C1775 C 0.7261 0.4956 0.67454 0.0
C1776 C 0.66836 0.4753 0.66072 0.0
C1777 C 0.66369 0.49573 0.6536 0.0
C1778 C 0.69126 0.51604 0.65709 0.0
C1779 C 0.722 0.51597 0.66742 0.0
H1780 H 0.7121 0.69349 0.62365 0.0
H1781 H 0.74012 0.76779 0.62857 0.0
H1782 H 0.65498 0.69336 0.6409 0.0
H1783 H 0.68697 0.76759 0.64658 0.0
H1784 H 0.55865 0.76656 0.67406 0.0
H1785 H 0.61087 0.76724 0.65592 0.0
H1786 H 0.64421 0.69286 0.6607 0.0
H1787 H 0.58794 0.69214 0.67811 0.0
C1788 C 0.70657 0.70976 0.6286 0.0
C1789 C 0.73064 0.73062 0.62481 0.0
C1790 C 0.67408 0.70972 0.63865 0.0
C1791 C 0.66603 0.73041 0.64549 0.0
C1792 C 0.6907 0.7513 0.6416 0.0
C1793 C 0.72182 0.75147 0.63129 0.0
C1794 C 0.57693 0.75037 0.6711 0.0
C1795 C 0.56882 0.72926 0.67739 0.0
C1796 C 0.60757 0.75072 0.66072 0.0
C1797 C 0.63249 0.73009 0.65656 0.0
C1798 C 0.62493 0.70907 0.66317 0.0
C1799 C 0.59288 0.7086 0.6733 0.0
H1800 H 0.31391 0.51918 0.37393 0.0
H1801 H 0.33851 0.44434 0.37021 0.0
H1802 H 0.36426 0.51934 0.3923 0.0
H1803 H 0.39309 0.44446 0.38786 0.0
H1804 H 0.45802 0.4448 0.42528 0.0
H1805 H 0.40336 0.44494 0.40763 0.0
H1806 H 0.43872 0.5189 0.40207 0.0
H1807 H 0.48909 0.51886 0.42043 0.0
C1808 C 0.3308 0.50278 0.37702 0.0
C1809 C 0.32188 0.48172 0.37073 0.0
C1810 C 0.36041 0.50281 0.38753 0.0
C1811 C 0.38358 0.48189 0.39185 0.0
C1812 C 0.3752 0.46091 0.38527 0.0
C1813 C 0.34412 0.46079 0.375 0.0
C1814 C 0.45383 0.46105 0.42024 0.0
C1815 C 0.47791 0.48179 0.42419 0.0
C1816 C 0.42271 0.46118 0.40998 0.0
C1817 C 0.41612 0.4819 0.40308 0.0
C1818 C 0.44114 0.5026 0.40709 0.0
C1819 C 0.47077 0.50261 0.4176 0.0
H1820 H 0.34282 0.20689 0.42868 0.0
H1821 H 0.29855 0.27882 0.42126 0.0
H1822 H 0.39871 0.20692 0.41109 0.0
H1823 H 0.35277 0.27868 0.40334 0.0
H1824 H 0.49514 0.27975 0.3793 0.0
H1825 H 0.43989 0.27937 0.39703 0.0
H1826 H 0.40102 0.20651 0.38991 0.0
H1827 H 0.4581 0.20675 0.3725 0.0
C1828 C 0.34472 0.22267 0.42321 0.0
C1829 C 0.31658 0.24291 0.42641 0.0
C1830 C 0.37655 0.22265 0.41305 0.0
C1831 C 0.38068 0.24283 0.40572 0.0
C1832 C 0.35152 0.26293 0.40883 0.0
C1833 C 0.31996 0.26297 0.41906 0.0
C1834 C 0.475 0.26362 0.38158 0.0
C1835 C 0.48079 0.24332 0.37447 0.0
C1836 C 0.44283 0.26344 0.3917 0.0
C1837 C 0.41542 0.24295 0.39495 0.0
C1838 C 0.42178 0.22256 0.38784 0.0
C1839 C 0.45424 0.22272 0.37778 0.0
H1840 H 0.7081 0.95695 0.17507 0.0
H1841 H 0.74572 0.02966 0.16765 0.0
H1842 H 0.6504 0.95638 0.1578 0.0
H1843 H 0.68994 0.02894 0.15011 0.0
H1844 H 0.54844 0.02852 0.1263 0.0
H1845 H 0.60273 0.02839 0.14413 0.0
H1846 H 0.64734 0.95636 0.13654 0.0
H1847 H 0.59125 0.95632 0.11901 0.0
C1848 C 0.70415 0.9728 0.16971 0.0
C1849 C 0.73112 -0.00659 0.17279 0.0
C1850 C 0.67137 0.97244 0.15973 0.0
C1851 C 0.66506 -0.00734 0.1525 0.0
C1852 C 0.6928 0.01316 0.15554 0.0
C1853 C 0.72526 0.01353 0.16556 0.0
C1854 C 0.56959 0.01262 0.1285 0.0
C1855 C 0.5658 -0.00751 0.1212 0.0
C1856 C 0.60118 0.01258 0.13868 0.0
C1857 C 0.63003 -0.00758 0.14182 0.0
C1858 C 0.62546 0.97216 0.13456 0.0
C1859 C 0.59358 0.97217 0.12442 0.0
H1860 H 0.74906 0.19455 0.12918 0.0
H1861 H 0.7087 0.26716 0.12229 0.0
H1862 H 0.69535 0.19486 0.14718 0.0
H1863 H 0.6533 0.26733 0.13998 0.0
H1864 H 0.59616 0.26723 0.17879 0.0
H1865 H 0.65215 0.26722 0.16119 0.0
H1866 H 0.60852 0.19508 0.15373 0.0
H1867 H 0.55429 0.19492 0.17163 0.0
C1868 C 0.72857 0.21057 0.13151 0.0
C1869 C 0.73296 0.23078 0.12428 0.0
C1870 C 0.69731 0.21072 0.14178 0.0
C1871 C 0.66944 0.23109 0.14509 0.0
C1872 C 0.67446 0.25139 0.13787 0.0
C1873 C 0.70598 0.25126 0.12765 0.0
C1874 C 0.59873 0.25135 0.1734 0.0
C1875 C 0.57109 0.23102 0.17666 0.0
C1876 C 0.63057 0.25138 0.16323 0.0
C1877 C 0.63526 0.23112 0.15596 0.0
C1878 C 0.60684 0.21089 0.15917 0.0
C1879 C 0.57527 0.21085 0.16939 0.0
H1880 H 0.30522 0.01801 0.87519 0.0
H1881 H 0.33643 0.94391 0.87043 0.0
H1882 H 0.35793 0.01841 0.89321 0.0
H1883 H 0.39321 0.9444 0.8877 0.0
H1884 H 0.46136 0.94435 0.92474 0.0
H1885 H 0.40453 0.9443 0.90748 0.0
H1886 H 0.43416 0.01891 0.90236 0.0
H1887 H 0.48693 0.01897 0.92037 0.0
C1888 C 0.32406 0.00185 0.87797 0.0
C1889 C 0.31632 0.98089 0.87152 0.0
C1890 C 0.35498 0.00204 0.88827 0.0
C1891 C 0.38058 0.98141 0.89218 0.0
C1892 C 0.37343 0.96057 0.88541 0.0
C1893 C 0.34109 0.96025 0.87537 0.0
C1894 C 0.45544 0.96071 0.91989 0.0
C1895 C 0.47866 0.98164 0.92385 0.0
C1896 C 0.42308 0.96073 0.90985 0.0
C1897 C 0.41433 0.98157 0.90319 0.0
C1898 C 0.43836 0.0025 0.90721 0.0
C1899 C 0.46931 0.00258 0.91751 0.0
H1900 H 0.46339 0.78367 0.87402 0.0
H1901 H 0.496 0.7097 0.87874 0.0
H1902 H 0.40709 0.78303 0.89144 0.0
H1903 H 0.44382 0.70916 0.89688 0.0
H1904 H 0.31607 0.70793 0.92439 0.0
H1905 H 0.36796 0.70832 0.9062 0.0
H1906 H 0.39562 0.78311 0.91124 0.0
H1907 H 0.33962 0.7827 0.92871 0.0
C1908 C 0.45916 0.76733 0.87898 0.0
C1909 C 0.48418 0.74677 0.87507 0.0
C1910 C 0.42708 0.76692 0.88911 0.0
C1911 C 0.4204 0.74607 0.8959 0.0
C1912 C 0.44633 0.72554 0.89193 0.0
C1913 C 0.47698 0.72582 0.88156 0.0
C1914 C 0.33302 0.72444 0.92147 0.0
C1915 C 0.32341 0.74531 0.92787 0.0
C1916 C 0.3635 0.72471 0.91107 0.0
C1917 C 0.38684 0.74577 0.90698 0.0
C1918 C 0.37767 0.76657 0.91367 0.0
C1919 C 0.34576 0.76639 0.92383 0.0
H1920 H 0.2664 0.65569 0.08075 0.0
H1921 H 0.11937 0.67897 0.09471 0.0
H1922 H 0.23483 0.61561 0.07958 0.0
H1923 H 0.08773 0.63826 0.09352 0.0
H1924 H 0.03834 0.56744 0.07667 0.0
H1925 H 0.06856 0.60793 0.07763 0.0
H1926 H 0.2096 0.58423 0.09414 0.0
H1927 H 0.17952 0.5434 0.09316 0.0
C1928 C 0.22721 0.6523 0.08358 0.0
C1929 C 0.19537 0.67055 0.08789 0.0
C1930 C 0.20935 0.62923 0.08296 0.0
C1931 C 0.15918 0.62383 0.08658 0.0
C1932 C 0.12667 0.64206 0.09064 0.0
C1933 C 0.14469 0.66529 0.09132 0.0
C1934 C 0.07597 0.57074 0.08046 0.0
C1935 C 0.10668 0.55217 0.08483 0.0
C1936 C 0.09296 0.594 0.08109 0.0
C1937 C 0.14111 0.59917 0.08603 0.0
C1938 C 0.17232 0.58063 0.09022 0.0
C1939 C 0.1552 0.5573 0.08965 0.0
H1940 H 0.0385 0.65677 0.22075 0.0
H1941 H 0.1849 0.67969 0.20636 0.0
H1942 H 0.06704 0.616 0.21993 0.0
H1943 H 0.21332 0.63853 0.20553 0.0
H1944 H 0.26328 0.56654 0.21968 0.0
H1945 H 0.23257 0.60684 0.22065 0.0
H1946 H 0.08987 0.58571 0.20406 0.0
H1947 H 0.12077 0.54482 0.20301 0.0
C1948 C 0.07692 0.65316 0.21746 0.0
C1949 C 0.10963 0.67151 0.21365 0.0
C1950 C 0.09294 0.62975 0.2169 0.0
C1951 C 0.14211 0.62418 0.21262 0.0
C1952 C 0.1752 0.64246 0.20894 0.0
C1953 C 0.15902 0.66597 0.20942 0.0
C1954 C 0.22523 0.57032 0.21623 0.0
C1955 C 0.1945 0.55249 0.21116 0.0
C1956 C 0.20789 0.59349 0.21675 0.0
C1957 C 0.15932 0.59938 0.21227 0.0
C1958 C 0.12761 0.58152 0.20756 0.0
C1959 C 0.14516 0.55818 0.20699 0.0
H1960 H 0.78826 0.32 0.97122 0.0
H1961 H 0.9286 0.29477 0.95466 0.0
H1962 H 0.82088 0.36015 0.97062 0.0
H1963 H 0.96106 0.33522 0.95403 0.0
H1964 H 1.02118 0.40619 0.96711 0.0
H1965 H 0.98792 0.36636 0.96842 0.0
H1966 H 0.84134 0.39031 0.95487 0.0
H1967 H 0.87459 0.43068 0.9536 0.0
C1968 C 0.82622 0.32297 0.9675 0.0
C1969 C 0.85593 0.30418 0.96297 0.0
C1970 C 0.84461 0.34602 0.96708 0.0
C1971 C 0.89318 0.35076 0.9622 0.0
C1972 C 0.9235 0.33197 0.95791 0.0
C1973 C 0.90499 0.30884 0.95828 0.0
C1974 C 0.98174 0.40312 0.96442 0.0
C1975 C 0.95049 0.42163 0.9602 0.0
C1976 C 0.9629 0.38021 0.96512 0.0
C1977 C 0.91234 0.37525 0.96165 0.0
C1978 C 0.88051 0.39375 0.95766 0.0
C1979 C 0.89949 0.4168 0.95691 0.0
H1980 H 0.78583 0.40981 0.82714 0.0
H1981 H 0.9347 0.43169 0.84041 0.0
H1982 H 0.8138 0.36892 0.82732 0.0
H1983 H 0.96249 0.39045 0.84057 0.0
H1984 H 1.00939 0.31817 0.82638 0.0
H1985 H 0.97944 0.35862 0.82546 0.0
H1986 H 0.8376 0.33828 0.84282 0.0
H1987 H 0.86767 0.29727 0.84379 0.0
C1988 C 0.82467 0.40597 0.83005 0.0
C1989 C 0.85813 0.4241 0.83378 0.0
C1990 C 0.84041 0.38247 0.83023 0.0
C1991 C 0.89005 0.37655 0.83403 0.0
C1992 C 0.92398 0.39461 0.83754 0.0
C1993 C 0.90812 0.41819 0.83744 0.0
C1994 C 0.97165 0.32215 0.82999 0.0
C1995 C 0.94097 0.30449 0.83526 0.0
C1996 C 0.95474 0.34542 0.82951 0.0
C1997 C 0.90663 0.3516 0.83421 0.0
C1998 C 0.87495 0.3339 0.83911 0.0
C1999 C 0.89206 0.31048 0.83966 0.0
H2000 H 0.18587 0.04536 0.59287 0.0
H2001 H 0.04351 0.06812 0.57646 0.0
H2002 H 0.21471 0.08645 0.59355 0.0
H2003 H 0.07242 0.1088 0.57714 0.0
H2004 H 0.1213 0.18058 0.59369 0.0
H2005 H 0.09108 0.1396 0.59286 0.0
H2006 H 0.23823 0.1177 0.57864 0.0
H2007 H 0.26837 0.15806 0.57944 0.0
C2008 C 0.16102 0.05902 0.58932 0.0
C2009 C 0.11254 0.05346 0.58461 0.0
C2010 C 0.17742 0.0825 0.58972 0.0
C2011 C 0.14547 0.10073 0.58548 0.0
C2012 C 0.09737 0.09512 0.58065 0.0
C2013 C 0.08114 0.07174 0.58017 0.0
C2014 C 0.14691 0.16701 0.59031 0.0
C2015 C 0.19721 0.17256 0.5867 0.0
C2016 C 0.12972 0.14363 0.58984 0.0
C2017 C 0.1627 0.12553 0.58582 0.0
C2018 C 0.21244 0.13122 0.582 0.0
C2019 C 0.22946 0.15445 0.5824 0.0
H2020 H 0.03024 0.15643 0.70417 0.0
H2021 H 0.17912 0.18059 0.71602 0.0
H2022 H 0.06107 0.11604 0.70381 0.0
H2023 H 0.20965 0.13977 0.71648 0.0
H2024 H 0.26471 0.06813 0.7044 0.0
H2025 H 0.23378 0.10847 0.70441 0.0
H2026 H 0.08338 0.08398 0.71557 0.0
H2027 H 0.11418 0.0432 0.71474 0.0
C2028 C 0.06956 0.15295 0.70686 0.0
C2029 C 0.10243 0.17148 0.71016 0.0
C2030 C 0.08713 0.12976 0.70676 0.0
C2031 C 0.13773 0.12448 0.71022 0.0
C2032 C 0.17065 0.14316 0.71356 0.0
C2033 C 0.1533 0.16653 0.71337 0.0
C2034 C 0.22499 0.07142 0.70686 0.0
C2035 C 0.19173 0.05269 0.70963 0.0
C2036 C 0.20733 0.09459 0.70696 0.0
C2037 C 0.15619 0.09965 0.71011 0.0
C2038 C 0.12285 0.08077 0.71292 0.0
C2039 C 0.14034 0.05743 0.71252 0.0
H2040 H 0.92658 0.79537 0.45542 0.0
H2041 H 0.78496 0.81981 0.47169 0.0
H2042 H 0.9577 0.83604 0.45471 0.0
H2043 H 0.81626 0.86019 0.47101 0.0
H2044 H 0.86974 0.93109 0.45403 0.0
H2045 H 0.83696 0.89059 0.45526 0.0
H2046 H 0.98301 0.86721 0.46934 0.0
H2047 H 1.01574 0.90712 0.46811 0.0
C2048 C 0.90237 0.80933 0.45894 0.0
C2049 C 0.85342 0.80435 0.46362 0.0
C2050 C 0.92012 0.83258 0.45853 0.0
C2051 C 0.88913 0.85121 0.46274 0.0
C2052 C 0.84054 0.84619 0.46754 0.0
C2053 C 0.82292 0.82301 0.46802 0.0
C2054 C 0.89459 0.91731 0.45746 0.0
C2055 C 0.94533 0.92231 0.46089 0.0
C2056 C 0.87589 0.89419 0.45817 0.0
C2057 C 0.90778 0.8758 0.46228 0.0
C2058 C 0.95799 0.88096 0.46594 0.0
C2059 C 0.97652 0.90392 0.46528 0.0
H2060 H 1.01148 0.81936 0.34911 0.0
H2061 H 0.87745 0.79413 0.33032 0.0
H2062 H 0.98016 0.85961 0.3477 0.0
H2063 H 0.84703 0.83481 0.32812 0.0
H2064 H 0.7828 0.90721 0.33696 0.0
H2065 H 0.81246 0.86681 0.33833 0.0
H2066 H 0.96969 0.89077 0.33443 0.0
H2067 H 0.9396 0.93163 0.33383 0.0
C2068 C 0.9753 0.82259 0.34458 0.0
C2069 C 0.94672 0.80386 0.3398 0.0
C2070 C 0.95761 0.84568 0.34364 0.0
C2071 C 0.91145 0.85061 0.33763 0.0
C2072 C 0.88248 0.83168 0.33294 0.0
C2073 C 0.89973 0.8084 0.33416 0.0
C2074 C 0.82375 0.90384 0.33633 0.0
C2075 C 0.85904 0.92249 0.33527 0.0
C2076 C 0.84075 0.8806 0.33704 0.0
C2077 C 0.89347 0.87539 0.33647 0.0
C2078 C 0.92881 0.89412 0.33515 0.0
C2079 C 0.91174 0.91752 0.33471 0.0
H2080 H 0.67828 0.5457 0.58083 0.0
H2081 H 0.53055 0.57183 0.59267 0.0
H2082 H 0.71115 0.58611 0.58039 0.0
H2083 H 0.56366 0.61176 0.59297 0.0
H2084 H 0.62276 0.68399 0.58297 0.0
H2085 H 0.58937 0.64376 0.58132 0.0
H2086 H 0.73617 0.61635 0.59322 0.0
H2087 H 0.76975 0.65616 0.59413 0.0
C2088 C 0.65314 0.56009 0.58343 0.0
C2089 C 0.602 0.55578 0.5867 0.0
C2090 C 0.67184 0.58321 0.58325 0.0
C2091 C 0.63998 0.60228 0.58663 0.0
C2092 C 0.58894 0.5977 0.59002 0.0
C2093 C 0.57007 0.57476 0.58994 0.0
C2094 C 0.64758 0.66925 0.58518 0.0
C2095 C 0.69872 0.67303 0.58858 0.0
C2096 C 0.62861 0.64624 0.58429 0.0
C2097 C 0.66021 0.62673 0.58708 0.0
C2098 C 0.71113 0.63079 0.59068 0.0
C2099 C 0.73026 0.65364 0.5913 0.0
H2100 H 0.61301 0.5441 0.70492 0.0
H2101 H 0.75861 0.56516 0.72034 0.0
H2102 H 0.58387 0.58517 0.70583 0.0
H2103 H 0.72942 0.60578 0.72118 0.0
H2104 H 0.67768 0.67882 0.70636 0.0
H2105 H 0.70759 0.63778 0.70613 0.0
H2106 H 0.56395 0.61532 0.72192 0.0
H2107 H 0.53412 0.65586 0.72222 0.0
C2108 C 0.63857 0.55736 0.70858 0.0
C2109 C 0.68808 0.55131 0.71252 0.0
C2110 C 0.62194 0.58082 0.70909 0.0
C2111 C 0.65471 0.59859 0.71348 0.0
C2112 C 0.70378 0.59248 0.71758 0.0
C2113 C 0.72021 0.56911 0.71717 0.0
C2114 C 0.65281 0.66514 0.7099 0.0
C2115 C 0.60357 0.67061 0.71427 0.0
C2116 C 0.66984 0.6417 0.70975 0.0
C2117 C 0.6377 0.62344 0.71389 0.0
C2118 C 0.58905 0.62901 0.71849 0.0
C2119 C 0.57225 0.65232 0.71872 0.0
H2120 H 0.36607 0.43126 0.45293 0.0
H2121 H 0.50855 0.40933 0.46958 0.0
H2122 H 0.33655 0.39017 0.45316 0.0
H2123 H 0.47908 0.36878 0.46977 0.0
H2124 H 0.43209 0.29607 0.45501 0.0
H2125 H 0.4605 0.33726 0.45453 0.0
H2126 H 0.31332 0.35949 0.46859 0.0
H2127 H 0.28484 0.31875 0.46907 0.0
C2128 C 0.3908 0.41779 0.45672 0.0
C2129 C 0.43959 0.42357 0.46121 0.0
C2130 C 0.37401 0.39433 0.45683 0.0
C2131 C 0.40592 0.37635 0.46137 0.0
C2132 C 0.45418 0.38223 0.46602 0.0
C2133 C 0.47077 0.40555 0.46598 0.0
C2134 C 0.406 0.30975 0.45805 0.0
C2135 C 0.35638 0.30411 0.46211 0.0
C2136 C 0.42218 0.33327 0.45778 0.0
C2137 C 0.38886 0.35149 0.46146 0.0
C2138 C 0.33945 0.34582 0.46554 0.0
C2139 C 0.32344 0.32241 0.4659 0.0
H2140 H 0.37059 0.29372 0.3308 0.0
H2141 H 0.51251 0.31809 0.3465 0.0
H2142 H 0.34114 0.33461 0.32902 0.0
H2143 H 0.4824 0.35857 0.34554 0.0
H2144 H 0.4384 0.43084 0.33232 0.0
H2145 H 0.46767 0.38982 0.3326 0.0
H2146 H 0.31182 0.36685 0.3398 0.0
H2147 H 0.28276 0.40737 0.33872 0.0
C2148 C 0.39492 0.30786 0.33405 0.0
C2149 C 0.44371 0.30299 0.3387 0.0
C2150 C 0.37822 0.33126 0.33308 0.0
C2151 C 0.40962 0.35002 0.33705 0.0
C2152 C 0.4578 0.34478 0.34205 0.0
C2153 C 0.47485 0.32156 0.34273 0.0
C2154 C 0.41068 0.4169 0.33387 0.0
C2155 C 0.35846 0.42214 0.33538 0.0
C2156 C 0.42728 0.39342 0.33412 0.0
C2157 C 0.39206 0.37491 0.33622 0.0
C2158 C 0.33989 0.38043 0.33785 0.0
C2159 C 0.32326 0.40373 0.33732 0.0
H2160 H 0.53565 0.06804 0.07825 0.0
H2161 H 0.67987 0.04377 0.09316 0.0
H2162 H 0.56626 0.10841 0.07884 0.0
H2163 H 0.71043 0.08462 0.09377 0.0
H2164 H 0.76346 0.15661 0.07945 0.0
H2165 H 0.73281 0.11624 0.079 0.0
H2166 H 0.5882 0.1386 0.09442 0.0
H2167 H 0.61881 0.17947 0.09485 0.0
C2168 C 0.57402 0.07127 0.08164 0.0
C2169 C 0.60543 0.05264 0.08567 0.0
C2170 C 0.59127 0.09448 0.08205 0.0
C2171 C 0.6404 0.09962 0.08644 0.0
C2172 C 0.67235 0.08105 0.09029 0.0
C2173 C 0.65494 0.05771 0.08994 0.0
C2174 C 0.72498 0.15307 0.08273 0.0
C2175 C 0.69345 0.1713 0.0872 0.0
C2176 C 0.70771 0.12985 0.08255 0.0
C2177 C 0.65844 0.12431 0.08676 0.0
C2178 C 0.62639 0.1425 0.09106 0.0
C2179 C 0.64383 0.16584 0.09131 0.0
H2180 H 0.53269 0.15536 0.20805 0.0
H2181 H 0.68591 0.18094 0.21541 0.0
H2182 H 0.56445 0.11524 0.20726 0.0
H2183 H 0.71777 0.14032 0.21532 0.0
H2184 H 0.76779 0.06952 0.20078 0.0
H2185 H 0.73527 0.10953 0.20203 0.0
H2186 H 0.59526 0.08343 0.21839 0.0
H2187 H 0.62726 0.04297 0.21643 0.0
C2188 C 0.57321 0.1523 0.20971 0.0
C2189 C 0.60697 0.17121 0.21182 0.0
C2190 C 0.59135 0.12923 0.20934 0.0
C2191 C 0.64362 0.12443 0.21128 0.0
C2192 C 0.67737 0.14339 0.21357 0.0
C2193 C 0.65926 0.16664 0.2137 0.0
C2194 C 0.72996 0.07237 0.20462 0.0
C2195 C 0.69993 0.05329 0.20855 0.0
C2196 C 0.71151 0.09534 0.20545 0.0
C2197 C 0.66292 0.09983 0.21046 0.0
C2198 C 0.63266 0.08062 0.21435 0.0
C2199 C 0.65083 0.05747 0.21327 0.0
H2200 H 0.43963 0.79461 0.96527 0.0
H2201 H 0.28271 0.81871 0.96173 0.0
H2202 H 0.46915 0.83557 0.96484 0.0
H2203 H 0.31181 0.85914 0.96052 0.0
H2204 H 0.37384 0.93196 0.96859 0.0
H2205 H 0.34472 0.89114 0.97081 0.0
H2206 H 0.48031 0.86699 0.95178 0.0
H2207 H 0.51034 0.90744 0.95037 0.0
C2208 C 0.41162 0.80867 0.96434 0.0
C2209 C 0.35904 0.80358 0.96364 0.0
C2210 C 0.42837 0.83212 0.964 0.0
C2211 C 0.39284 0.85078 0.96262 0.0
C2212 C 0.34025 0.84544 0.96188 0.0
C2213 C 0.32356 0.82216 0.9625 0.0
C2214 C 0.39697 0.9178 0.96488 0.0
C2215 C 0.4442 0.92261 0.95938 0.0
C2216 C 0.38046 0.89444 0.96611 0.0
C2217 C 0.41039 0.87564 0.96156 0.0
C2218 C 0.45695 0.88081 0.95572 0.0
C2219 C 0.4739 0.90401 0.95478 0.0
H2220 H 0.51474 0.8194 0.82937 0.0
H2221 H 0.37167 0.79583 0.84523 0.0
H2222 H 0.48203 0.85944 0.82852 0.0
H2223 H 0.33896 0.83635 0.84437 0.0
H2224 H 0.2827 0.90636 0.82831 0.0
H2225 H 0.31507 0.8662 0.82873 0.0
H2226 H 0.45907 0.8911 0.84324 0.0
H2227 H 0.42674 0.93168 0.84281 0.0
C2228 C 0.47616 0.8227 0.83265 0.0
C2229 C 0.44574 0.80439 0.8374 0.0
C2230 C 0.45768 0.84573 0.83223 0.0
C2231 C 0.40827 0.85099 0.83647 0.0
C2232 C 0.37723 0.83268 0.84099 0.0
C2233 C 0.39588 0.80953 0.84148 0.0
C2234 C 0.32142 0.90341 0.83155 0.0
C2235 C 0.35223 0.92226 0.83554 0.0
C2236 C 0.33969 0.88033 0.83187 0.0
C2237 C 0.38928 0.87556 0.8361 0.0
C2238 C 0.42066 0.89438 0.83987 0.0
C2239 C 0.40224 0.91756 0.83962 0.0
H2240 H 0.66082 0.52268 0.07725 0.0
H2241 H 0.68443 0.45323 0.09227 0.0
H2242 H 0.56818 0.51739 0.07875 0.0
H2243 H 0.59144 0.44792 0.09378 0.0
H2244 H 0.42456 0.45735 0.10652 0.0
H2245 H 0.51738 0.46216 0.1048 0.0
H2246 H 0.4976 0.49542 0.07026 0.0
H2247 H 0.40456 0.4915 0.07221 0.0
C2248 C 0.64629 0.50614 0.08074 0.0
C2249 C 0.68032 0.48835 0.08459 0.0
C2250 C 0.59301 0.5031 0.0816 0.0
C2251 C 0.57212 0.4822 0.08636 0.0
C2252 C 0.60609 0.46439 0.09022 0.0
C2253 C 0.65948 0.46743 0.08935 0.0
C2254 C 0.43989 0.46594 0.09861 0.0
C2255 C 0.40682 0.47416 0.08954 0.0
C2256 C 0.49329 0.46841 0.09755 0.0
C2257 C 0.51519 0.47917 0.08738 0.0
C2258 C 0.48216 0.48728 0.07828 0.0
C2259 C 0.42873 0.4848 0.07934 0.0
H2260 H 0.63049 0.74485 0.07199 0.0
H2261 H 0.62841 0.72858 0.10983 0.0
H2262 H 0.72375 0.74928 0.07272 0.0
H2263 H 0.72149 0.73377 0.11064 0.0
H2264 H 0.89232 0.71732 0.10445 0.0
H2265 H 0.79892 0.71367 0.10371 0.0
H2266 H 0.79105 0.77471 0.08057 0.0
H2267 H 0.88443 0.77837 0.08132 0.0
C2268 C 0.64991 0.74232 0.08048 0.0
C2269 C 0.62193 0.73628 0.09084 0.0
C2270 C 0.70336 0.74507 0.08092 0.0
C2271 C 0.73024 0.74178 0.09173 0.0
C2272 C 0.70214 0.73613 0.10213 0.0
C2273 C 0.64866 0.73345 0.1017 0.0
C2274 C 0.87067 0.73005 0.09926 0.0
C2275 C 0.896 0.74813 0.09294 0.0
C2276 C 0.81706 0.72799 0.09885 0.0
C2277 C 0.78737 0.74395 0.09211 0.0
C2278 C 0.81272 0.76192 0.08572 0.0
C2279 C 0.86633 0.76399 0.08613 0.0
H2280 H 0.67772 0.71413 0.19751 0.0
H2281 H 0.68142 0.76262 0.2274 0.0
H2282 H 0.58462 0.71889 0.1962 0.0
H2283 H 0.58812 0.76683 0.22633 0.0
H2284 H 0.42776 0.78722 0.21248 0.0
H2285 H 0.52101 0.78334 0.21353 0.0
H2286 H 0.5076 0.70823 0.20761 0.0
H2287 H 0.41423 0.71208 0.20661 0.0
C2288 C 0.65871 0.72594 0.20375 0.0
C2289 C 0.68704 0.73802 0.21255 0.0
C2290 C 0.60526 0.72844 0.20309 0.0
C2291 C 0.57883 0.74315 0.2112 0.0
C2292 C 0.60727 0.75549 0.21989 0.0
C2293 C 0.6607 0.75292 0.22057 0.0
C2294 C 0.4446 0.76982 0.21156 0.0
C2295 C 0.41339 0.74995 0.20949 0.0
C2296 C 0.49812 0.76761 0.21213 0.0
C2297 C 0.52183 0.74548 0.21063 0.0
C2298 C 0.49065 0.72559 0.20861 0.0
C2299 C 0.4371 0.7278 0.20805 0.0
H2300 H 0.89139 0.47496 0.22515 0.0
H2301 H 0.88861 0.47883 0.18647 0.0
H2302 H 0.79796 0.47905 0.22566 0.0
H2303 H 0.79538 0.48367 0.187 0.0
H2304 H 0.62464 0.46556 0.19193 0.0
H2305 H 0.71796 0.46092 0.19159 0.0
H2306 H 0.73082 0.50816 0.22184 0.0
H2307 H 0.63771 0.51292 0.22215 0.0
C2308 C 0.87087 0.47673 0.21675 0.0
C2309 C 0.89758 0.47657 0.20577 0.0
C2310 C 0.81732 0.47929 0.21705 0.0
C2311 C 0.78907 0.48166 0.20637 0.0
C2312 C 0.81582 0.48162 0.19539 0.0
C2313 C 0.86938 0.47915 0.1951 0.0
C2314 C 0.64737 0.47507 0.19847 0.0
C2315 C 0.62348 0.4896 0.20708 0.0
C2316 C 0.70092 0.47242 0.19827 0.0
C2317 C 0.73198 0.4842 0.20668 0.0
C2318 C 0.70808 0.49855 0.21534 0.0
C2319 C 0.65458 0.50124 0.21553 0.0
H2320 H 0.64979 0.46653 0.94472 0.0
H2321 H 0.6398 0.53102 0.96529 0.0
H2322 H 0.5564 0.46269 0.94545 0.0
H2323 H 0.54647 0.52716 0.96604 0.0
H2324 H 0.38599 0.49832 0.97557 0.0
H2325 H 0.47923 0.50283 0.97481 0.0
H2326 H 0.47889 0.48129 0.93764 0.0
H2327 H 0.38582 0.47603 0.93853 0.0
C2328 C 0.62769 0.47996 0.94934 0.0
C2329 C 0.65244 0.49907 0.95496 0.0
C2330 C 0.57409 0.47779 0.94975 0.0
C2331 C 0.54381 0.49465 0.95577 0.0
C2332 C 0.56858 0.51367 0.96145 0.0
C2333 C 0.62218 0.51585 0.96105 0.0
C2334 C 0.40582 0.49447 0.96725 0.0
C2335 C 0.37836 0.48674 0.95712 0.0
C2336 C 0.45927 0.49727 0.96677 0.0
C2337 C 0.48668 0.49234 0.95617 0.0
C2338 C 0.45912 0.48495 0.946 0.0
C2339 C 0.40564 0.48223 0.94646 0.0
H2340 H 0.42871 0.20679 0.9571 0.0
H2341 H 0.40685 0.28194 0.96144 0.0
H2342 H 0.33558 0.20132 0.95661 0.0
H2343 H 0.31406 0.27648 0.96084 0.0
H2344 H 0.1529 0.26071 0.94631 0.0
H2345 H 0.24604 0.26573 0.94691 0.0
H2346 H 0.25919 0.20396 0.9694 0.0
H2347 H 0.16618 0.1985 0.96849 0.0
C2348 C 0.40415 0.22213 0.95803 0.0
C2349 C 0.42554 0.24483 0.95924 0.0
C2350 C 0.35068 0.219 0.95775 0.0
C2351 C 0.3172 0.23847 0.95864 0.0
C2352 C 0.3386 0.26112 0.95991 0.0
C2353 C 0.39196 0.26425 0.96023 0.0
C2354 C 0.17565 0.24811 0.95133 0.0
C2355 C 0.1519 0.2292 0.95735 0.0
C2356 C 0.22907 0.25112 0.95177 0.0
C2357 C 0.26024 0.23526 0.95821 0.0
C2358 C 0.23649 0.21637 0.96425 0.0
C2359 C 0.18303 0.21342 0.96385 0.0
H2360 H 0.63792 0.22421 0.82208 0.0
H2361 H 0.63373 0.23446 0.86045 0.0
H2362 H 0.54454 0.22828 0.8213 0.0
H2363 H 0.54053 0.23925 0.85962 0.0
H2364 H 0.37002 0.22002 0.8552 0.0
H2365 H 0.46337 0.21566 0.85589 0.0
H2366 H 0.47736 0.258 0.82384 0.0
H2367 H 0.38423 0.2625 0.82319 0.0
C2368 C 0.61709 0.22738 0.83035 0.0
C2369 C 0.64337 0.229 0.84133 0.0
C2370 C 0.56358 0.22993 0.82988 0.0
C2371 C 0.53497 0.23405 0.8404 0.0
C2372 C 0.56129 0.23582 0.85137 0.0
C2373 C 0.61482 0.23337 0.85183 0.0
C2374 C 0.39301 0.22852 0.84834 0.0
C2375 C 0.36946 0.24158 0.83913 0.0
C2376 C 0.44656 0.22603 0.84874 0.0
C2377 C 0.47792 0.2365 0.83993 0.0
C2378 C 0.45436 0.24941 0.83068 0.0
C2379 C 0.40087 0.25195 0.83029 0.0
H2380 H 0.1559 0.4818 0.8245 0.0
H2381 H 0.18454 0.54043 0.84835 0.0
H2382 H 0.2482 0.47725 0.82133 0.0
H2383 H 0.2768 0.53523 0.84559 0.0
H2384 H 0.43983 0.53223 0.83043 0.0
H2385 H 0.34709 0.53896 0.83149 0.0
H2386 H 0.32166 0.46362 0.83248 0.0
H2387 H 0.41389 0.45693 0.83142 0.0
C2388 C 0.1818 0.49384 0.82901 0.0
C2389 C 0.1626 0.5114 0.83674 0.0
C2390 C 0.23484 0.49105 0.8273 0.0
C2391 C 0.27014 0.50576 0.83326 0.0
C2392 C 0.25088 0.52369 0.84077 0.0
C2393 C 0.19787 0.52648 0.84247 0.0
C2394 C 0.41443 0.51711 0.83088 0.0
C2395 C 0.43451 0.49404 0.83079 0.0
C2396 C 0.36121 0.52097 0.8315 0.0
C2397 C 0.32672 0.50184 0.83205 0.0
C2398 C 0.34685 0.47879 0.83183 0.0
C2399 C 0.39993 0.47495 0.83122 0.0
H2400 H 0.42447 0.98195 0.60816 0.0
H2401 H 0.41735 0.97194 0.5698 0.0
H2402 H 0.51765 0.9864 0.60688 0.0
H2403 H 0.51073 0.97567 0.56857 0.0
H2404 H 0.67113 0.0099 0.56978 0.0
H2405 H 0.57809 0.00539 0.57086 0.0
H2406 H 0.59445 0.96266 0.6027 0.0
H2407 H 0.68773 0.96701 0.60158 0.0
C2408 C 0.44274 0.98083 0.59945 0.0
C2409 C 0.41336 0.97666 0.58908 0.0
C2410 C 0.49626 0.98308 0.59873 0.0
C2411 C 0.52174 0.98131 0.58763 0.0
C2412 C 0.49233 0.97732 0.57725 0.0
C2413 C 0.43883 0.97497 0.57797 0.0
C2414 C 0.65504 -0.00075 0.57692 0.0
C2415 C 0.6871 -0.01123 0.58558 0.0
C2416 C 0.6016 -0.00329 0.57756 0.0
C2417 C 0.57874 0.98369 0.58688 0.0
C2418 C 0.61074 0.97311 0.59551 0.0
C2419 C 0.66424 0.9756 0.59486 0.0
H2420 H 0.63337 0.22851 0.57129 0.0
H2421 H 0.63016 0.2454 0.60906 0.0
H2422 H 0.72668 0.23275 0.57117 0.0
H2423 H 0.72351 0.24971 0.60894 0.0
H2424 H 0.89392 0.23074 0.60735 0.0
H2425 H 0.80076 0.22581 0.60703 0.0
H2426 H 0.79405 0.26212 0.573 0.0
H2427 H 0.88741 0.26629 0.57313 0.0
C2428 C 0.65249 0.23345 0.57953 0.0
C2429 C 0.62422 0.23663 0.59018 0.0
C2430 C 0.70605 0.23583 0.57947 0.0
C2431 C 0.7327 0.24147 0.59005 0.0
C2432 C 0.70435 0.24492 0.60067 0.0
C2433 C 0.6508 0.24251 0.60074 0.0
C2434 C 0.87267 0.23735 0.59971 0.0
C2435 C 0.89819 0.24891 0.59026 0.0
C2436 C 0.81915 0.23481 0.59961 0.0
C2437 C 0.7898 0.24371 0.59003 0.0
C2438 C 0.81543 0.25491 0.58048 0.0
C2439 C 0.86894 0.2575 0.5806 0.0
H2440 H 0.6814 0.27412 0.70716 0.0
H2441 H 0.6576 0.20215 0.71872 0.0
H2442 H 0.58843 0.27965 0.70577 0.0
H2443 H 0.56502 0.20767 0.71734 0.0
H2444 H 0.40054 0.23163 0.7244 0.0
H2445 H 0.49351 0.2279 0.72662 0.0
H2446 H 0.51561 0.26729 0.69385 0.0
H2447 H 0.42285 0.27187 0.6919 0.0
C2448 C 0.65641 0.25944 0.70935 0.0
C2449 C 0.67715 0.23772 0.7131 0.0
C2450 C 0.60305 0.26261 0.70855 0.0
C2451 C 0.56906 0.24412 0.71147 0.0
C2452 C 0.58987 0.22244 0.71524 0.0
C2453 C 0.64311 0.21928 0.71603 0.0
C2454 C 0.42521 0.23973 0.71774 0.0
C2455 C 0.404 0.25197 0.70795 0.0
C2456 C 0.47858 0.23737 0.71894 0.0
C2457 C 0.51222 0.24722 0.71039 0.0
C2458 C 0.49101 0.25966 0.70067 0.0
C2459 C 0.43768 0.26201 0.69947 0.0
H2460 H 0.88913 0.00466 0.69169 0.0
H2461 H 0.88186 0.95026 0.71877 0.0
H2462 H 0.79599 0.0093 0.69275 0.0
H2463 H 0.78873 0.9554 0.72009 0.0
H2464 H 0.61755 0.95323 0.70872 0.0
H2465 H 0.71088 0.94824 0.70815 0.0
H2466 H 0.72973 0.02391 0.70636 0.0
H2467 H 0.6368 0.02893 0.70702 0.0
C2468 C 0.86767 -0.00629 0.69789 0.0
C2469 C 0.89305 0.97708 0.70513 0.0
C2470 C 0.81428 -0.00347 0.69858 0.0
C2471 C 0.7848 0.98273 0.70652 0.0
C2472 C 0.81017 0.96615 0.7138 0.0
C2473 C 0.86365 0.96341 0.71315 0.0
C2474 C 0.6416 0.96881 0.70831 0.0
C2475 C 0.61947 -0.00852 0.70782 0.0
C2476 C 0.69514 0.96595 0.70799 0.0
C2477 C 0.72785 0.98567 0.70715 0.0
C2478 C 0.70571 0.00831 0.70678 0.0
C2479 C 0.65232 0.01118 0.70714 0.0
H2480 H 0.63423 0.02475 0.4677 0.0
H2481 H 0.64818 0.96915 0.44136 0.0
H2482 H 0.5411 0.01936 0.46802 0.0
H2483 H 0.55497 0.96427 0.44141 0.0
H2484 H 0.39338 0.94473 0.45453 0.0
H2485 H 0.48624 0.95005 0.45444 0.0
H2486 H 0.46573 0.02571 0.45521 0.0
H2487 H 0.37251 0.02042 0.45519 0.0
C2488 C 0.61748 0.01129 0.46202 0.0
C2489 C 0.64878 -0.00266 0.45453 0.0
C2490 C 0.564 0.0084 0.4621 0.0
C2491 C 0.54047 -0.00858 0.45472 0.0
C2492 C 0.57181 0.97737 0.44729 0.0
C2493 C 0.62524 0.98032 0.44718 0.0
C2494 C 0.40852 0.96254 0.45452 0.0
C2495 C 0.37524 0.98215 0.45479 0.0
C2496 C 0.46189 0.96557 0.4545 0.0
C2497 C 0.48353 -0.0117 0.45479 0.0
C2498 C 0.45036 0.00794 0.45513 0.0
C2499 C 0.39688 0.00491 0.45512 0.0
H2500 H 0.40531 0.77963 0.46589 0.0
H2501 H 0.42934 0.70658 0.4562 0.0
H2502 H 0.31276 0.774 0.4646 0.0
H2503 H 0.33645 0.70066 0.45546 0.0
H2504 H 0.17013 0.70527 0.44214 0.0
H2505 H 0.2628 0.71065 0.44353 0.0
H2506 H 0.24152 0.75551 0.47449 0.0
H2507 H 0.14858 0.75101 0.47275 0.0
C2508 C 0.39092 0.76234 0.46346 0.0
C2509 C 0.42508 0.74361 0.46106 0.0
C2510 C 0.33765 0.75903 0.46289 0.0
C2511 C 0.31685 0.73686 0.45994 0.0
C2512 C 0.35097 0.71806 0.45763 0.0
C2513 C 0.40434 0.72138 0.45819 0.0
C2514 C 0.18508 0.71653 0.44917 0.0
C2515 C 0.15159 0.72782 0.45728 0.0
C2516 C 0.23843 0.71934 0.45007 0.0
C2517 C 0.25992 0.73351 0.45913 0.0
C2518 C 0.22646 0.74469 0.4673 0.0
C2519 C 0.17306 0.74189 0.46639 0.0
H2520 H 0.39355 0.77856 0.35021 0.0
H2521 H 0.37669 0.70831 0.33564 0.0
H2522 H 0.48653 0.77365 0.35046 0.0
H2523 H 0.47006 0.70343 0.33585 0.0
H2524 H 0.64184 0.71222 0.32712 0.0
H2525 H 0.54877 0.7178 0.32628 0.0
H2526 H 0.55232 0.75157 0.361 0.0
H2527 H 0.64541 0.74671 0.36166 0.0
C2528 C 0.4096 0.76195 0.34717 0.0
C2529 C 0.3774 0.74377 0.34299 0.0
C2530 C 0.46304 0.75915 0.3473 0.0
C2531 C 0.48591 0.73811 0.34322 0.0
C2532 C 0.45383 0.71999 0.33892 0.0
C2533 C 0.40025 0.72278 0.33881 0.0
C2534 C 0.62285 0.72111 0.33451 0.0
C2535 C 0.65123 0.72904 0.34446 0.0
C2536 C 0.56936 0.72405 0.33409 0.0
C2537 C 0.54292 0.73508 0.34358 0.0
C2538 C 0.5714 0.7432 0.35347 0.0
C2539 C 0.62479 0.7402 0.35391 0.0
H2540 H 0.16882 0.02127 0.32455 0.0
H2541 H 0.16583 0.97384 0.35486 0.0
H2542 H 0.26191 0.01621 0.32299 0.0
H2543 H 0.25892 0.96938 0.35355 0.0
H2544 H 0.41771 0.94755 0.33984 0.0
H2545 H 0.32466 0.95204 0.34075 0.0
H2546 H 0.3403 0.02674 0.33392 0.0
H2547 H 0.43368 0.02229 0.33305 0.0
C2548 C 0.18796 0.00965 0.33083 0.0
C2549 C 0.15981 -0.00205 0.33983 0.0
C2550 C 0.24141 0.00698 0.33003 0.0
C2551 C 0.26797 -0.00755 0.33817 0.0
C2552 C 0.2397 0.98055 0.34707 0.0
C2553 C 0.18635 0.98328 0.3479 0.0
C2554 C 0.40145 0.965 0.33867 0.0
C2555 C 0.43336 0.98458 0.33645 0.0
C2556 C 0.348 0.96756 0.33917 0.0
C2557 C 0.32493 -0.01024 0.33744 0.0
C2558 C 0.35674 0.00933 0.33513 0.0
C2559 C 0.4103 0.00678 0.33465 0.0
H2560 H 0.15625 0.52685 0.57953 0.0
H2561 H 0.17872 0.45442 0.59049 0.0
H2562 H 0.06352 0.52135 0.58035 0.0
H2563 H 0.08563 0.44894 0.59135 0.0
H2564 H 0.91899 0.45675 0.60466 0.0
H2565 H 1.01191 0.46144 0.60321 0.0
H2566 H 0.9932 0.50109 0.57041 0.0
H2567 H 0.89999 0.49717 0.57211 0.0
C2568 C 0.14146 0.50963 0.58196 0.0
C2569 C 0.17513 0.49105 0.5849 0.0
C2570 C 0.08816 0.50649 0.58244 0.0
C2571 C 0.067 0.4847 0.5859 0.0
C2572 C 0.1006 0.46606 0.5888 0.0
C2573 C 0.154 0.4692 0.58831 0.0
C2574 C 0.9346 0.46669 0.59719 0.0
C2575 C 0.90187 0.47672 0.58854 0.0
C2576 C 0.988 0.4691 0.59628 0.0
C2577 C 1.01014 0.48162 0.58669 0.0
C2578 C 0.97746 0.49153 0.57799 0.0
C2579 C 0.924 0.48909 0.57889 0.0
H2580 H 0.38925 0.76299 0.6125 0.0
H2581 H 0.39785 0.73675 0.57617 0.0
H2582 H 0.29605 0.75871 0.61216 0.0
H2583 H 0.30447 0.7325 0.57583 0.0
H2584 H 0.13226 0.7493 0.57531 0.0
H2585 H 0.2252 0.75543 0.57572 0.0
H2586 H 0.23035 0.72854 0.61194 0.0
H2587 H 0.13739 0.72319 0.61168 0.0
C2588 C 0.37137 0.75605 0.60448 0.0
C2589 C 0.40129 0.75012 0.59438 0.0
C2590 C 0.31779 0.75364 0.60428 0.0
C2591 C 0.29257 0.74525 0.59397 0.0
C2592 C 0.32244 0.73937 0.58386 0.0
C2593 C 0.37608 0.74177 0.58406 0.0
C2594 C 0.15312 0.74502 0.58343 0.0
C2595 C 0.12723 0.73571 0.59346 0.0
C2596 C 0.20655 0.74825 0.5836 0.0
C2597 C 0.23546 0.74237 0.59384 0.0
C2598 C 0.2094 0.73345 0.60393 0.0
C2599 C 0.15606 0.73015 0.60374 0.0
H2600 H 0.91461 0.75804 0.68903 0.0
H2601 H 0.90593 0.73438 0.7258 0.0
H2602 H 1.00784 0.75376 0.68947 0.0
H2603 H 0.99932 0.73017 0.72624 0.0
H2604 H 0.1709 0.74814 0.72658 0.0
H2605 H 0.07783 0.75371 0.72596 0.0
H2606 H 0.07412 0.72361 0.69037 0.0
H2607 H 0.16729 0.71877 0.69084 0.0
C2608 C 0.93248 0.75165 0.69717 0.0
C2609 C 0.90256 0.74648 0.70737 0.0
C2610 C 0.98605 0.74925 0.69743 0.0
C2611 C 1.01122 0.74164 0.70789 0.0
C2612 C 0.98134 0.73644 0.71809 0.0
C2613 C 0.92772 0.73882 0.71783 0.0
C2614 C 0.15033 0.74302 0.71855 0.0
C2615 C 0.17666 0.733 0.70876 0.0
C2616 C 0.09684 0.74593 0.71826 0.0
C2617 C 0.06833 0.739 0.70814 0.0
C2618 C 0.0948 0.72932 0.69827 0.0
C2619 C 0.14823 0.72633 0.69859 0.0
H2620 H 0.10784 0.44884 0.70308 0.0
H2621 H 0.13731 0.51938 0.71611 0.0
H2622 H 0.20033 0.44191 0.70142 0.0
H2623 H 0.22937 0.51248 0.71445 0.0
H2624 H 0.39164 0.48594 0.7208 0.0
H2625 H 0.29899 0.49048 0.72325 0.0
H2626 H 0.27446 0.45381 0.68978 0.0
H2627 H 0.36694 0.44834 0.6876 0.0
C2628 C 0.13397 0.46292 0.70553 0.0
C2629 C 0.11496 0.48463 0.70979 0.0
C2630 C 0.18705 0.45894 0.70458 0.0
C2631 C 0.22248 0.47659 0.70785 0.0
C2632 C 0.20339 0.4983 0.71208 0.0
C2633 C 0.15044 0.50226 0.71303 0.0
C2634 C 0.36652 0.47853 0.71405 0.0
C2635 C 0.387 0.46684 0.70398 0.0
C2636 C 0.31331 0.48139 0.71538 0.0
C2637 C 0.27908 0.47265 0.70668 0.0
C2638 C 0.29951 0.46061 0.69671 0.0
C2639 C 0.35271 0.45774 0.69538 0.0
H2640 H 0.87112 0.50965 0.47426 0.0
H2641 H 0.87477 0.46861 0.44162 0.0
H2642 H 0.96442 0.51401 0.47336 0.0
H2643 H 0.96784 0.47359 0.44051 0.0
H2644 H 0.13845 0.46441 0.44997 0.0
H2645 H 0.0451 0.46037 0.45089 0.0
H2646 H 0.0318 0.53332 0.46177 0.0
H2647 H 0.12503 0.53739 0.46082 0.0
C2648 C 0.8918 0.50161 0.46687 0.0
C2649 C 0.86539 0.48875 0.45802 0.0
C2650 C 0.94527 0.5043 0.46629 0.0
C2651 C 0.97375 0.4941 0.45687 0.0
C2652 C 0.94725 0.48144 0.44796 0.0
C2653 C 0.89376 0.47884 0.44852 0.0
C2654 C 0.11562 0.47964 0.45248 0.0
C2655 C 0.13941 0.50122 0.45533 0.0
C2656 C 0.06204 0.47733 0.453 0.0
C2657 C 0.03084 0.49653 0.45638 0.0
C2658 C 0.05464 0.51806 0.4593 0.0
C2659 C 0.10818 0.52038 0.45877 0.0
H2660 H 0.91502 0.27956 0.46075 0.0
H2661 H 0.93336 0.20373 0.46019 0.0
H2662 H 0.82205 0.27493 0.45985 0.0
H2663 H 0.84003 0.19912 0.4594 0.0
H2664 H 0.66928 0.20046 0.47021 0.0
H2665 H 0.76238 0.20534 0.4717 0.0
H2666 H 0.756 0.26187 0.44576 0.0
H2667 H 0.66287 0.25744 0.44452 0.0
C2668 C 0.8993 0.26188 0.46031 0.0
C2669 C 0.93185 0.24202 0.46046 0.0
C2670 C 0.8459 0.25924 0.45982 0.0
C2671 C 0.82356 0.23666 0.45952 0.0
C2672 C 0.85598 0.21676 0.45977 0.0
C2673 C 0.90949 0.21941 0.46022 0.0
C2674 C 0.68769 0.21412 0.46494 0.0
C2675 C 0.6586 0.22858 0.45725 0.0
C2676 C 0.74112 0.21673 0.46569 0.0
C2677 C 0.76668 0.23395 0.45883 0.0
C2678 C 0.7375 0.24857 0.45124 0.0
C2679 C 0.68415 0.24589 0.45045 0.0
H2680 H 0.13281 0.1975 0.33075 0.0
H2681 H 0.14272 0.25694 0.35491 0.0
H2682 H 0.03969 0.20278 0.32955 0.0
H2683 H 0.04962 0.26177 0.35399 0.0
H2684 H 0.89009 0.27925 0.3394 0.0
H2685 H 0.98293 0.27393 0.33993 0.0
H2686 H 0.96246 0.1984 0.34217 0.0
H2687 H 0.8692 0.20371 0.34175 0.0
C2688 C 0.11518 0.21177 0.33575 0.0
C2689 C 0.1453 0.22682 0.34291 0.0
C2690 C 0.06172 0.21462 0.33518 0.0
C2691 C 0.03712 0.23267 0.34169 0.0
C2692 C 0.06732 0.24782 0.34877 0.0
C2693 C 0.12068 0.24491 0.34939 0.0
C2694 C 0.90523 0.26149 0.34015 0.0
C2695 C 0.87196 0.24192 0.34064 0.0
C2696 C 0.95857 0.25845 0.34042 0.0
C2697 C 0.98022 0.23575 0.34115 0.0
C2698 C 0.94708 0.21612 0.34147 0.0
C2699 C 0.89359 0.21917 0.34123 0.0
H2700 H 0.93393 0.52191 0.33468 0.0
H2701 H 0.91694 0.44664 0.33958 0.0
H2702 H 0.84052 0.52645 0.33531 0.0
H2703 H 0.8239 0.45122 0.34029 0.0
H2704 H 0.66458 0.47202 0.35448 0.0
H2705 H 0.75775 0.46762 0.35337 0.0
H2706 H 0.76264 0.51692 0.32384 0.0
H2707 H 0.66947 0.52188 0.3252 0.0
C2708 C 0.91033 0.50631 0.33581 0.0
C2709 C 0.9331 0.48393 0.33716 0.0
C2710 C 0.85676 0.50892 0.33617 0.0
C2711 C 0.82468 0.4892 0.3379 0.0
C2712 C 0.84746 0.46683 0.33916 0.0
C2713 C 0.9009 0.46422 0.33877 0.0
C2714 C 0.68553 0.48201 0.34778 0.0
C2715 C 0.65951 0.49733 0.33994 0.0
C2716 C 0.73892 0.47932 0.34707 0.0
C2717 C 0.76773 0.49192 0.33852 0.0
C2718 C 0.7417 0.50713 0.33062 0.0
C2719 C 0.68822 0.50976 0.3313 0.0
H2720 H 0.90538 -0.01153 0.07129 0.0
H2721 H 0.92121 0.96223 0.10747 0.0
H2722 H 0.99858 -0.00747 0.06982 0.0
H2723 H 1.01417 0.96715 0.10616 0.0
H2724 H 0.18247 0.95566 0.09497 0.0
H2725 H 0.08937 0.9505 0.09623 0.0
H2726 H 0.06741 0.01678 0.07778 0.0
H2727 H 0.16017 0.02197 0.07655 0.0
C2728 C 0.9287 0.98356 0.07893 0.0
C2729 C 0.90567 0.97507 0.08951 0.0
C2730 C 0.98214 0.98612 0.07813 0.0
C2731 C 1.01395 0.98021 0.08788 0.0
C2732 C 0.99094 0.97165 0.09844 0.0
C2733 C 0.93751 0.96913 0.09924 0.0
C2734 C 0.15777 0.9692 0.09125 0.0
C2735 C 0.17894 -0.01083 0.08561 0.0
C2736 C 0.10437 0.96625 0.09198 0.0
C2737 C 0.07082 0.9832 0.08708 0.0
C2738 C 0.09204 0.00317 0.08146 0.0
C2739 C 0.14533 0.00613 0.08075 0.0
H2740 H 0.13922 0.19569 0.08654 0.0
H2741 H 0.11762 0.26947 0.09506 0.0
H2742 H 0.23204 0.20101 0.08721 0.0
H2743 H 0.2108 0.27481 0.09564 0.0
H2744 H 0.37983 0.27988 0.08358 0.0
H2745 H 0.28674 0.27471 0.08248 0.0
H2746 H 0.29998 0.20883 0.10173 0.0
H2747 H 0.39313 0.21364 0.10251 0.0
C2748 C 0.15421 0.21302 0.08868 0.0
C2749 C 0.12075 0.23211 0.09084 0.0
C2750 C 0.20753 0.21607 0.08904 0.0
C2751 C 0.22894 0.23831 0.09152 0.0
C2752 C 0.1956 0.25749 0.09356 0.0
C2753 C 0.14215 0.25443 0.09323 0.0
C2754 C 0.36294 0.26415 0.08745 0.0
C2755 C 0.39402 0.24714 0.09311 0.0
C2756 C 0.30949 0.26134 0.08695 0.0
C2757 C 0.28583 0.24138 0.09204 0.0
C2758 C 0.31696 0.22431 0.09762 0.0
C2759 C 0.37034 0.22717 0.09817 0.0
H2760 H 0.91829 0.27917 0.22112 0.0
H2761 H 0.91241 0.2182 0.19789 0.0
H2762 H 1.01166 0.27561 0.22218 0.0
H2763 H 1.00578 0.21465 0.19894 0.0
H2764 H 0.17616 0.23009 0.19319 0.0
H2765 H 0.08305 0.23498 0.1922 0.0
H2766 H 0.07912 0.25032 0.23015 0.0
H2767 H 0.17245 0.2462 0.23104 0.0
C2768 C 0.93683 0.26482 0.21636 0.0
C2769 C 0.90775 0.24898 0.20941 0.0
C2770 C 0.99043 0.26281 0.21695 0.0
C2771 C 1.01634 0.24491 0.2106 0.0
C2772 C 0.98721 0.22892 0.20376 0.0
C2773 C 0.93363 0.23092 0.20317 0.0
C2774 C 0.15555 0.23486 0.20128 0.0
C2775 C 0.18184 0.23775 0.21219 0.0
C2776 C 0.10204 0.23736 0.20075 0.0
C2777 C 0.07347 0.24289 0.21111 0.0
C2778 C 0.09989 0.24621 0.22198 0.0
C2779 C 0.15338 0.24364 0.22251 0.0
H2780 H 0.39471 0.96757 0.22576 0.0
H2781 H 0.39639 0.98575 0.18815 0.0
H2782 H 0.3012 0.97152 0.22606 0.0
H2783 H 0.30314 -0.00959 0.18854 0.0
H2784 H 0.13275 0.97068 0.19028 0.0
H2785 H 0.22604 0.96612 0.19032 0.0
H2786 H 0.23363 0.00134 0.22463 0.0
H2787 H 0.14039 0.006 0.22457 0.0
C2788 C 0.37515 0.97247 0.21756 0.0
C2789 C 0.40311 0.97633 0.20693 0.0
C2790 C 0.32157 0.97494 0.21776 0.0
C2791 C 0.29457 0.98121 0.20731 0.0
C2792 C 0.3226 0.98527 0.19671 0.0
C2793 C 0.37617 0.9829 0.19652 0.0
C2794 C 0.15431 0.97755 0.19781 0.0
C2795 C 0.12893 -0.01126 0.20741 0.0
C2796 C 0.20784 0.97496 0.19782 0.0
C2797 C 0.23743 0.98346 0.20745 0.0
C2798 C 0.21202 -0.00567 0.21714 0.0
C2799 C 0.15848 -0.00305 0.21711 0.0
H2800 H 0.88851 0.95611 0.96941 0.0
H2801 H 0.86764 0.02272 0.95118 0.0
H2802 H 0.98136 0.96115 0.96843 0.0
H2803 H 0.96079 0.02768 0.95013 0.0
H2804 H 0.12757 0.0144 0.93821 0.0
H2805 H 0.03458 0.01033 0.93991 0.0
H2806 H 0.05169 0.98498 0.97621 0.0
H2807 H 0.14498 -0.01178 0.97436 0.0
C2808 C 0.90364 0.97202 0.96534 0.0
C2809 C 0.87039 -0.01097 0.96039 0.0
C2810 C 0.95701 0.97488 0.96476 0.0
C2811 C 0.97864 -0.0052 0.95918 0.0
C2812 C 0.94546 0.01194 0.95433 0.0
C2813 C 0.89201 0.0091 0.95493 0.0
C2814 C 0.1116 0.0077 0.94652 0.0
C2815 C 0.14391 0.0015 0.95613 0.0
C2816 C 0.05816 0.00568 0.94754 0.0
C2817 C 0.03555 -0.00262 0.9582 0.0
C2818 C 0.06781 -0.00877 0.96783 0.0
C2819 C 0.1213 -0.0067 0.96681 0.0
H2820 H 0.93518 0.70388 0.96203 0.0
H2821 H 0.91661 0.77966 0.96086 0.0
H2822 H 0.84185 0.69914 0.96137 0.0
H2823 H 0.82365 0.7749 0.96011 0.0
H2824 H 0.66446 0.75626 0.94524 0.0
H2825 H 0.75759 0.76075 0.94637 0.0
H2826 H 0.76397 0.70624 0.97341 0.0
H2827 H 0.67086 0.70126 0.97202 0.0
C2828 C 0.91127 0.71953 0.96172 0.0
C2829 C 0.93358 0.74215 0.96141 0.0
C2830 C 0.85773 0.71681 0.96134 0.0
C2831 C 0.82523 0.73664 0.96064 0.0
C2832 C 0.84754 0.75924 0.96043 0.0
C2833 C 0.90094 0.76195 0.96084 0.0
C2834 C 0.68573 0.74515 0.95139 0.0
C2835 C 0.66014 0.72839 0.95853 0.0
C2836 C 0.7391 0.74787 0.95212 0.0
C2837 C 0.76831 0.73385 0.95999 0.0
C2838 C 0.74272 0.71716 0.96718 0.0
C2839 C 0.68926 0.71451 0.96648 0.0
H2840 H 0.13548 0.69727 0.83454 0.0
H2841 H 0.14866 0.76166 0.85506 0.0
H2842 H 0.04246 0.70269 0.83348 0.0
H2843 H 0.05554 0.76667 0.85433 0.0
H2844 H 0.89491 0.78167 0.83944 0.0
H2845 H 0.98766 0.7761 0.84017 0.0
H2846 H 0.96576 0.70146 0.84619 0.0
H2847 H 0.87263 0.70705 0.84554 0.0
C2848 C 0.11861 0.71265 0.83878 0.0
C2849 C 0.14974 0.72906 0.84486 0.0
C2850 C 0.06513 0.7156 0.8383 0.0
C2851 C 0.04134 0.7351 0.84383 0.0
C2852 C 0.07251 0.75156 0.84986 0.0
C2853 C 0.12594 0.74856 0.85039 0.0
C2854 C 0.9097 0.76408 0.84107 0.0
C2855 C 0.87599 0.74484 0.84252 0.0
C2856 C 0.96305 0.76089 0.84147 0.0
C2857 C 0.98435 0.73835 0.84329 0.0
C2858 C 0.95075 0.71904 0.84463 0.0
C2859 C 0.89728 0.72224 0.84426 0.0
H2860 H 0.65362 -0.00189 0.82058 0.0
H2861 H 0.65935 -0.00337 0.85928 0.0
H2862 H 0.74693 -0.00621 0.81974 0.0
H2863 H 0.75251 -0.00842 0.85844 0.0
H2864 H 0.92317 0.00943 0.85225 0.0
H2865 H 0.82984 0.01393 0.85311 0.0
H2866 H 0.81396 0.96471 0.82377 0.0
H2867 H 0.90702 0.96007 0.82296 0.0
C2868 C 0.67477 -0.00318 0.82891 0.0
C2869 C 0.64891 -0.00228 0.84 0.0
C2870 C 0.72825 -0.00588 0.82843 0.0
C2871 C 0.75731 -0.00765 0.83902 0.0
C2872 C 0.73143 -0.00686 0.85011 0.0
C2873 C 0.67791 -0.00426 0.85059 0.0
C2874 C 0.89978 -0.00056 0.84604 0.0
C2875 C 0.92281 0.98444 0.83751 0.0
C2876 C 0.84623 0.00201 0.84653 0.0
C2877 C 0.81434 -0.01031 0.8385 0.0
C2878 C 0.83736 0.97476 0.82996 0.0
C2879 C 0.89083 0.97214 0.82949 0.0
H2880 H 1.00172 0.50754 0.05533 0.0
H2881 H 0.0943 0.44594 0.04803 0.0
H2882 H 0.9905 0.51379 0.03382 0.0
H2883 H 0.08606 0.4528 0.02663 0.0
H2884 H 1.025 0.45783 0.98855 0.0
H2885 H 0.03406 0.45096 1.01001 0.0
H2886 H 0.0296 0.52633 1.01626 0.0
H2887 H 1.01753 0.53288 0.99485 0.0
C2888 C 1.01979 0.49538 0.04911 0.0
C2889 C 0.04867 0.47621 0.05339 0.0
C2890 C 1.01392 0.49907 0.03674 0.0
C2891 C 0.03754 0.48389 0.02831 0.0
C2892 C 0.06636 0.46469 0.0327 0.0
C2893 C 0.07144 0.4608 0.04504 0.0
C2894 C 1.02629 0.4729 0.99453 0.0
C2895 C 1.02046 0.49589 0.99002 0.0
C2896 C 0.03171 0.46901 1.00688 0.0
C2897 C 0.03239 0.48805 1.01505 0.0
C2898 C 0.02802 0.51111 1.0104 0.0
C2899 C 1.02171 0.51494 0.99808 0.0
H2900 H 0.34572 0.69651 1.0002 0.0
H2901 H 0.2525 0.75788 0.99293 0.0
H2902 H 0.33566 0.70291 1.02161 0.0
H2903 H 0.23961 0.76368 1.01444 0.0
H2904 H 0.26434 0.78235 0.05351 0.0
H2905 H 0.27793 0.7761 0.03212 0.0
H2906 H 0.28219 0.70065 0.03808 0.0
H2907 H 0.27149 0.70721 0.05955 0.0
C2908 C 0.32234 0.71122 1.0032 0.0
C2909 C 0.29998 0.72673 0.99486 0.0
C2910 C 0.31624 0.71484 1.01554 0.0
C2911 C 0.28679 0.73387 1.01993 0.0
C2912 C 0.2635 0.74911 1.01151 0.0
C2913 C 0.27036 0.74568 0.99914 0.0
C2914 C 0.26879 0.76445 0.05023 0.0
C2915 C 0.26697 0.74529 0.0582 0.0
C2916 C 0.27597 0.7608 0.03791 0.0
C2917 C 0.28071 0.73781 0.03319 0.0
C2918 C 0.27953 0.71865 0.04128 0.0
C2919 C 0.27319 0.72236 0.05363 0.0
H2920 H 1.02134 0.69229 0.30416 0.0
H2921 H 1.02602 0.76751 0.31007 0.0
H2922 H 0.0346 0.69845 0.28275 0.0
H2923 H 0.03656 0.77396 0.28859 0.0
H2924 H 0.10046 0.77806 0.25076 0.0
H2925 H 0.09074 0.77164 0.27217 0.0
H2926 H 0.99528 0.71073 0.26506 0.0
H2927 H 1.0077 0.71658 0.24353 0.0
C2928 C 1.02523 0.71018 0.30085 0.0
C2929 C 1.02278 0.7294 0.30879 0.0
C2930 C 0.03222 0.71378 0.28852 0.0
C2931 C 0.03622 0.73675 0.28376 0.0
C2932 C 0.03446 0.75597 0.29182 0.0
C2933 C 0.02824 0.75233 0.30418 0.0
C2934 C 0.07731 0.7633 0.25377 0.0
C2935 C 0.05493 0.74779 0.24544 0.0
C2936 C 0.07139 0.75968 0.26611 0.0
C2937 C 0.04217 0.74063 0.27051 0.0
C2938 C 1.01895 0.72533 0.26211 0.0
C2939 C 1.02556 0.72878 0.24973 0.0
H2940 H 0.26778 0.44092 0.24496 0.0
H2941 H 0.27339 0.51601 0.23868 0.0
H2942 H 0.28052 0.44753 0.26636 0.0
H2943 H 0.28326 0.52291 0.26011 0.0
H2944 H 0.34577 0.52812 0.29792 0.0
H2945 H 0.33657 0.52112 0.27655 0.0
H2946 H 0.24168 0.46015 0.28404 0.0
H2947 H 0.25368 0.46659 0.30553 0.0
C2948 C 0.27174 0.45888 0.24819 0.0
C2949 C 0.26975 0.47792 0.24014 0.0
C2950 C 0.27843 0.46273 0.26051 0.0
C2951 C 0.28256 0.48581 0.26515 0.0
C2952 C 0.28113 0.50484 0.25699 0.0
C2953 C 0.27526 0.50093 0.24465 0.0
C2954 C 0.32283 0.51323 0.29501 0.0
C2955 C 0.3005 0.49788 0.30343 0.0
C2956 C 0.31721 0.50927 0.28269 0.0
C2957 C 0.28829 0.49002 0.27839 0.0
C2958 C 0.26513 0.47489 0.28689 0.0
C2959 C 0.27148 0.47868 0.29925 0.0
H2960 H 0.78838 0.19185 0.99792 0.0
H2961 H 0.78235 0.26712 0.99228 0.0
H2962 H 0.77646 0.19778 1.01942 0.0
H2963 H 0.77349 0.27335 1.01378 0.0
H2964 H 0.71066 0.2776 0.05153 0.0
H2965 H 0.72016 0.27112 0.03015 0.0
H2966 H 0.81467 0.20979 0.03723 0.0
H2967 H 0.80219 0.21569 0.05878 0.0
C2968 C 0.78459 0.2097 1.00131 0.0
C2969 C 0.78605 0.229 0.99342 0.0
C2970 C 0.77836 0.21317 1.01368 0.0
C2971 C 0.77424 0.2361 1.01852 0.0
C2972 C 0.7755 0.25539 1.01051 0.0
C2973 C 0.78082 0.25187 0.99813 0.0
C2974 C 0.73358 0.26274 0.04853 0.0
C2975 C 0.75563 0.24713 0.05686 0.0
C2976 C 0.73941 0.25908 0.0362 0.0
C2977 C 0.76836 0.23992 0.03178 0.0
C2978 C 0.79125 0.2245 0.04018 0.0
C2979 C 0.78462 0.22797 0.05257 0.0
H2980 H 1.01588 0.26655 0.80753 0.0
H2981 H 1.00771 0.19129 0.80195 0.0
H2982 H 1.02607 0.27259 0.78606 0.0
H2983 H 1.02099 0.19702 0.78047 0.0
H2984 H 0.9971 0.21536 0.74102 0.0
H2985 H 0.98395 0.20934 0.76254 0.0
H2986 H 0.08048 0.26979 0.76992 0.0
H2987 H 0.09055 0.27647 0.74859 0.0
C2988 C 1.01725 0.25125 0.8017 0.0
C2989 C 1.01101 0.22845 0.80641 0.0
C2990 C 1.02335 0.25466 0.78934 0.0
C2991 C 1.02442 0.23532 0.78136 0.0
C2992 C 1.01931 0.21244 0.7862 0.0
C2993 C 1.01228 0.20909 0.79855 0.0
C2994 C 1.01494 0.22744 0.74729 0.0
C2995 C 0.04454 0.24645 0.7431 0.0
C2996 C 1.00794 0.22388 0.75966 0.0
C2997 C 0.0311 0.23906 0.76812 0.0
C2998 C 0.06093 0.25798 0.76381 0.0
C2999 C 0.0671 0.26174 0.75151 0.0
H3000 H 0.72791 0.48972 0.80696 0.0
H3001 H 0.88559 0.50021 0.79617 0.0
H3002 H 0.70339 0.48476 0.7859 0.0
H3003 H 0.86212 0.49439 0.77532 0.0
H3004 H 0.79869 0.50557 0.73775 0.0
H3005 H 0.82141 0.51149 0.75881 0.0
H3006 H 0.70772 0.45965 0.7692 0.0
H3007 H 0.68413 0.45459 0.74826 0.0
C3008 C 0.75735 0.49063 0.8001 0.0
C3009 C 0.80858 0.4953 0.80322 0.0
C3010 C 0.74349 0.48775 0.78801 0.0
C3011 C 0.7807 0.48923 0.77878 0.0
C3012 C 0.83204 0.49362 0.78204 0.0
C3013 C 0.84564 0.49675 0.79405 0.0
C3014 C 0.77901 0.49536 0.74455 0.0
C3015 C 0.73999 0.47951 0.74135 0.0
C3016 C 0.79196 0.49869 0.75666 0.0
C3017 C 0.76649 0.48604 0.76584 0.0
C3018 C 0.72765 0.47007 0.76251 0.0
C3019 C 0.71441 0.46698 0.75045 0.0
H3020 H 1.00763 0.00881 0.55549 0.0
H3021 H 0.09825 0.94666 0.54805 0.0
H3022 H 0.99526 0.01492 0.53401 0.0
H3023 H 0.08871 0.95333 0.52665 0.0
H3024 H 1.02427 0.95835 0.48882 0.0
H3025 H 0.0349 0.95162 0.51025 0.0
H3026 H 0.03433 0.02708 0.51631 0.0
H3027 H 1.02084 0.03353 0.49493 0.0
C3028 C 1.02503 -0.00349 0.54925 0.0
C3029 C 0.05375 0.97724 0.55347 0.0
C3030 C 1.01848 0.00011 0.53689 0.0
C3031 C 0.04117 0.98472 0.52843 0.0
C3032 C 0.06976 0.96539 0.53276 0.0
C3033 C 0.07557 0.96161 0.54509 0.0
C3034 C 0.0268 0.97347 0.49474 0.0
C3035 C 1.02163 -0.00353 0.4902 0.0
C3036 C 0.0331 0.96966 0.50708 0.0
C3037 C 0.03527 -0.01122 0.51519 0.0
C3038 C 0.03161 0.01183 0.51049 0.0
C3039 C 1.02449 0.01559 0.49819 0.0
H3040 H 0.34957 0.19866 0.49922 0.0
H3041 H 0.25323 0.25893 0.49175 0.0
H3042 H 0.33965 0.20537 0.52061 0.0
H3043 H 0.24063 0.26504 0.51327 0.0
H3044 H 0.26586 0.28441 0.55228 0.0
H3045 H 0.27946 0.27806 0.53088 0.0
H3046 H 0.28545 0.20268 0.537 0.0
H3047 H 0.2746 0.20934 0.55845 0.0
C3048 C 0.3256 0.21321 0.50217 0.0
C3049 C 0.30226 0.22831 0.49379 0.0
C3050 C 0.31957 0.21699 0.51449 0.0
C3051 C 0.28927 0.23578 0.51882 0.0
C3052 C 0.26513 0.25066 0.51037 0.0
C3053 C 0.27186 0.24706 0.49801 0.0
C3054 C 0.2707 0.26652 0.54903 0.0
C3055 C 0.26929 0.24739 0.55703 0.0
C3056 C 0.2779 0.26281 0.53672 0.0
C3057 C 0.28313 0.23981 0.53205 0.0
C3058 C 0.28239 0.22069 0.54017 0.0
C3059 C 0.27599 0.22446 0.55251 0.0
H3060 H 0.27929 0.95887 0.80601 0.0
H3061 H 0.28546 0.03398 0.79988 0.0
H3062 H 0.27055 0.95211 0.78455 0.0
H3063 H 0.27364 0.02754 0.77844 0.0
H3064 H 0.30005 0.00881 0.73921 0.0
H3065 H 0.31203 0.01516 0.76072 0.0
H3066 H 0.21784 0.95391 0.76812 0.0
H3067 H 0.20887 0.94696 0.74677 0.0
C3068 C 0.2778 0.97398 0.80007 0.0
C3069 C 0.28309 -0.00305 0.80463 0.0
C3070 C 0.27255 0.97016 0.78771 0.0
C3071 C 0.27142 -0.01075 0.77958 0.0
C3072 C 0.27549 0.01229 0.78427 0.0
C3073 C 0.28166 0.01606 0.79661 0.0
C3074 C 0.28244 -0.00337 0.74548 0.0
C3075 C 0.25372 0.97736 0.74128 0.0
C3076 C 0.28878 0.00037 0.75785 0.0
C3077 C 0.26582 0.98512 0.76633 0.0
C3078 C 0.23713 0.96584 0.76201 0.0
C3079 C 0.23161 0.96191 0.74969 0.0
H3080 H 0.83827 0.69725 0.4995 0.0
H3081 H 0.74861 0.76002 0.49292 0.0
H3082 H 0.83201 0.70387 0.52096 0.0
H3083 H 0.73959 0.76612 0.51452 0.0
H3084 H 0.7722 0.78441 0.55338 0.0
H3085 H 0.78196 0.77795 0.53187 0.0
H3086 H 0.78062 0.70248 0.53783 0.0
H3087 H 0.77371 0.70919 0.55936 0.0
C3088 C 0.81647 0.71233 0.50267 0.0
C3089 C 0.79401 0.72815 0.4945 0.0
C3090 C 0.81256 0.71608 0.51504 0.0
C3091 C 0.78529 0.73559 0.51965 0.0
C3092 C 0.76186 0.75116 0.51141 0.0
C3093 C 0.76649 0.74757 0.499 0.0
C3094 C 0.77467 0.76646 0.55006 0.0
C3095 C 0.77236 0.74732 0.55805 0.0
C3096 C 0.77962 0.7627 0.53769 0.0
C3097 C 0.78162 0.73964 0.53294 0.0
C3098 C 0.78003 0.72051 0.54104 0.0
C3099 C 0.7759 0.72431 0.55343 0.0
H3100 H 0.77763 0.01763 0.23847 0.0
H3101 H 0.77625 0.94244 0.24457 0.0
H3102 H 0.78684 0.02441 0.25997 0.0
H3103 H 0.7881 0.94896 0.26599 0.0
H3104 H 0.75738 0.96709 0.30504 0.0
H3105 H 0.74644 0.96109 0.28348 0.0
H3106 H 0.84027 0.02264 0.27654 0.0
H3107 H 0.84858 0.02917 0.29797 0.0
C3108 C 0.78034 0.00254 0.2444 0.0
C3109 C 0.77613 0.97951 0.23985 0.0
C3110 C 0.78575 0.00637 0.25677 0.0
C3111 C 0.78788 0.98725 0.26487 0.0
C3112 C 0.78532 0.96419 0.26017 0.0
C3113 C 0.77917 0.96041 0.24784 0.0
C3114 C 0.7752 0.97939 0.29887 0.0
C3115 C 0.80376 -0.00141 0.30321 0.0
C3116 C 0.76944 0.97587 0.28648 0.0
C3117 C 0.7927 -0.00872 0.27813 0.0
C3118 C 0.82097 0.01057 0.28258 0.0
C3119 C 0.82607 0.01425 0.29493 0.0
H3120 H 0.53451 0.44438 0.54989 0.0
H3121 H 0.52837 0.5195 0.55603 0.0
H3122 H 0.5214 0.45074 0.52851 0.0
H3123 H 0.5182 0.52619 0.53456 0.0
H3124 H 0.45554 0.53062 0.49664 0.0
H3125 H 0.46526 0.52422 0.51805 0.0
H3126 H 0.55999 0.46298 0.51084 0.0
H3127 H 0.54736 0.46878 0.48934 0.0
C3128 C 0.5304 0.4623 0.54663 0.0
C3129 C 0.53235 0.48142 0.55463 0.0
C3130 C 0.5235 0.46601 0.53431 0.0
C3131 C 0.51921 0.48903 0.52961 0.0
C3132 C 0.52053 0.50816 0.53773 0.0
C3133 C 0.52656 0.50438 0.55009 0.0
C3134 C 0.47854 0.5158 0.49964 0.0
C3135 C 0.50059 0.50017 0.49129 0.0
C3136 C 0.48447 0.51218 0.51198 0.0
C3137 C 0.51343 0.49302 0.51636 0.0
C3138 C 0.53645 0.47765 0.50793 0.0
C3139 C 0.52975 0.48108 0.49556 0.0
H3140 H 0.55626 0.76021 0.80966 0.0
H3141 H 0.46804 0.69708 0.80303 0.0
H3142 H 0.56655 0.76594 0.78805 0.0
H3143 H 0.47532 0.70338 0.78159 0.0
H3144 H 0.53378 0.70794 0.74335 0.0
H3145 H 0.5269 0.70172 0.7649 0.0
H3146 H 0.52599 0.77733 0.77046 0.0
H3147 H 0.53596 0.78328 0.74892 0.0
C3148 C 0.53898 0.7476 0.80357 0.0
C3149 C 0.51152 0.72818 0.80806 0.0
C3150 C 0.54432 0.75099 0.79115 0.0
C3151 C 0.52162 0.73521 0.7829 0.0
C3152 C 0.49433 0.71573 0.78751 0.0
C3153 C 0.4898 0.71217 0.79988 0.0
C3154 C 0.53177 0.7232 0.74919 0.0
C3155 C 0.53541 0.74609 0.74445 0.0
C3156 C 0.52761 0.71968 0.7616 0.0
C3157 C 0.52596 0.739 0.7696 0.0
C3158 C 0.52831 0.76194 0.76473 0.0
C3159 C 0.53339 0.76541 0.75233 0.0
H3160 H 0.46405 0.19709 0.30173 0.0
H3161 H 0.55468 0.25911 0.30925 0.0
H3162 H 0.47421 0.20367 0.28039 0.0
H3163 H 0.56791 0.26507 0.28774 0.0
H3164 H 0.54289 0.2833 0.2485 0.0
H3165 H 0.53018 0.27714 0.26994 0.0
H3166 H 0.52767 0.20162 0.26405 0.0
H3167 H 0.53725 0.20811 0.24257 0.0
C3168 C 0.48694 0.212 0.2988 0.0
C3169 C 0.50852 0.22761 0.3072 0.0
C3170 C 0.49315 0.21571 0.28649 0.0
C3171 C 0.52204 0.23492 0.28216 0.0
C3172 C 0.54452 0.25033 0.29062 0.0
C3173 C 0.53747 0.24682 0.30299 0.0
C3174 C 0.539 0.26541 0.25182 0.0
C3175 C 0.54083 0.2462 0.24387 0.0
C3176 C 0.53234 0.26181 0.26416 0.0
C3177 C 0.52821 0.23884 0.26891 0.0
C3178 C 0.52972 0.21963 0.26084 0.0
C3179 C 0.53543 0.22328 0.24848 0.0
H3180 H 0.54498 0.94129 0.0491 0.0
H3181 H 0.53633 0.01628 0.0555 0.0
H3182 H 0.53191 0.94787 0.02772 0.0
H3183 H 0.52645 0.02321 0.03408 0.0
H3184 H 0.4625 0.02826 0.99648 0.0
H3185 H 0.47315 0.02129 1.01778 0.0
H3186 H 0.5686 0.96057 1.00994 0.0
H3187 H 0.55478 0.96688 0.98851 0.0
C3188 C 0.54042 0.95922 0.0459 0.0
C3189 C 0.54146 0.97825 0.05397 0.0
C3190 C 0.53352 0.96308 0.03359 0.0
C3191 C 0.5284 0.98614 0.02899 0.0
C3192 C 0.52924 0.00515 0.03717 0.0
C3193 C 0.53516 0.00123 0.04951 0.0
C3194 C 0.48587 0.01343 0.9993 0.0
C3195 C 0.50779 -0.0019 0.99079 0.0
C3196 C 0.49237 0.00949 1.01159 0.0
C3197 C 0.5219 -0.00966 1.01577 0.0
C3198 C 0.54472 0.97525 1.00718 0.0
C3199 C 0.53736 0.97897 0.99485 0.0
loop_
_geom_bond_atom_site_label_1
_geom_bond_atom_site_label_2
_geom_bond_distance
_geom_bond_site_symmetry_2
_ccdc_geom_bond_type
Ho0 C3 2.811 . S
Ho0 O20 2.322 . S
Ho0 O22 2.378 . S
Ho0 O23 2.524 . S
Ho0 O24 2.381 . S
Ho0 O25 2.669 1_655 S
Ho0 O27 2.346 1_655 S
Ho0 O31 2.305 1_655 S
Ho1 C12 2.811 . S
Ho1 O21 2.346 . S
Ho1 O25 2.305 . S
Ho1 O26 2.322 . S
Ho1 O28 2.378 . S
Ho1 O29 2.524 . S
Ho1 O30 2.381 . S
Ho1 O31 2.669 . S
C2 O20 1.259 . S
C2 O21 1.268 1_655 S
C3 Ho0 2.811 . S
C3 C4 1.488 . S
C3 O22 1.215 . S
C3 O23 1.289 . S
C4 C3 1.488 . S
C4 C5 1.348 . S
C4 C9 1.413 . S
C5 C4 1.348 . S
C5 C6 1.442 . S
C5 H32 0.930 . S
C6 C5 1.442 . S
C6 C7 1.381 . S
C6 H33 0.931 . S
C7 C6 1.381 . S
C7 C8 1.321 . S
C8 C7 1.321 . S
C8 C9 1.403 . S
C8 H34 0.934 . S
C9 C4 1.413 . S
C9 C8 1.403 . S
C9 H35 0.930 . S
C10 O24 1.275 1_455 S
C10 O25 1.256 . S
C11 O26 1.259 . S
C11 O27 1.268 . S
C12 Ho1 2.811 . S
C12 C13 1.488 . S
C12 O28 1.215 . S
C12 O29 1.289 . S
C13 C12 1.488 . S
C13 C14 1.348 . S
C13 C18 1.413 . S
C14 C13 1.348 . S
C14 C15 1.442 . S
C14 H36 0.930 . S
C15 C14 1.442 . S
C15 C16 1.381 . S
C15 H37 0.931 . S
C16 C15 1.381 . S
C16 C17 1.321 . S
C17 C16 1.321 . S
C17 C18 1.403 . S
C17 H38 0.934 . S
C18 C13 1.413 . S
C18 C17 1.403 . S
C18 H39 0.930 . S
C19 O30 1.275 . S
C19 O31 1.256 . S
O20 Ho0 2.322 . S
O20 C2 1.259 . S
O21 Ho1 2.346 . S
O21 C2 1.268 1_455 S
O22 Ho0 2.378 . S
O22 C3 1.215 . S
O23 Ho0 2.524 . S
O23 C3 1.289 . S
O24 Ho0 2.381 . S
O24 C10 1.275 1_655 S
O25 Ho0 2.669 1_455 S
O25 Ho1 2.305 . S
O25 C10 1.256 . S
O26 Ho1 2.322 . S
O26 C11 1.259 . S
O27 Ho0 2.346 1_455 S
O27 C11 1.268 . S
O28 Ho1 2.378 . S
O28 C12 1.215 . S
O29 Ho1 2.524 . S
O29 C12 1.289 . S
O30 Ho1 2.381 . S
O30 C19 1.275 . S
O31 Ho0 2.305 1_455 S
O31 Ho1 2.669 . S
O31 C19 1.256 . S
H32 C5 0.930 . S
H33 C6 0.931 . S
H34 C8 0.934 . S
H35 C9 0.930 . S
H36 C14 0.930 . S
H37 C15 0.931 . S
H38 C17 0.934 . S
H39 C18 0.930 . S
Ho40 C43 2.811 . S
Ho40 O60 2.322 . S
Ho40 O62 2.378 . S
Ho40 O63 2.524 . S
Ho40 O64 2.381 . S
Ho40 O65 2.669 . S
Ho40 O67 2.346 . S
Ho40 O71 2.305 . S
Ho41 C52 2.811 . S
Ho41 O61 2.346 . S
Ho41 O65 2.305 . S
Ho41 O66 2.322 . S
Ho41 O68 2.378 . S
Ho41 O69 2.524 . S
Ho41 O70 2.381 . S
Ho41 O71 2.669 . S
C42 O60 1.259 . S
C42 O61 1.268 . S
C43 Ho40 2.811 . S
C43 C44 1.488 . S
C43 O62 1.215 . S
C43 O63 1.289 . S
C44 C43 1.488 . S
C44 C45 1.348 . S
C44 C49 1.413 . S
C45 C44 1.348 . S
C45 C46 1.442 . S
C45 H72 0.930 . S
C46 C45 1.442 . S
C46 C47 1.381 . S
C46 H73 0.931 . S
C47 C46 1.381 . S
C47 C48 1.321 . S
C48 C47 1.321 . S
C48 C49 1.403 . S
C48 H74 0.934 . S
C49 C44 1.413 . S
C49 C48 1.403 . S
C49 H75 0.930 . S
C50 O64 1.275 . S
C50 O65 1.256 . S
C51 O66 1.259 . S
C51 O67 1.268 . S
C52 Ho41 2.811 . S
C52 C53 1.488 . S
C52 O68 1.215 . S
C52 O69 1.289 . S
C53 C52 1.488 . S
C53 C54 1.348 1_455 S
C53 C58 1.413 1_455 S
C54 C53 1.348 1_655 S
C54 C55 1.442 . S
C54 H76 0.923 1_655 S
C55 C54 1.442 . S
C55 C56 1.381 . S
C55 H77 0.931 . S
C56 C55 1.381 . S
C56 C57 1.321 . S
C57 C56 1.321 . S
C57 C58 1.403 . S
C57 H78 0.934 . S
C58 C53 1.413 1_655 S
C58 C57 1.403 . S
C58 H79 0.930 . S
C59 O70 1.275 . S
C59 O71 1.256 . S
O60 Ho40 2.322 . S
O60 C42 1.259 . S
O61 Ho41 2.346 . S
O61 C42 1.268 . S
O62 Ho40 2.378 . S
O62 C43 1.215 . S
O63 Ho40 2.524 . S
O63 C43 1.289 . S
O64 Ho40 2.381 . S
O64 C50 1.275 . S
O65 Ho40 2.669 . S
O65 Ho41 2.305 . S
O65 C50 1.256 . S
O66 Ho41 2.322 . S
O66 C51 1.259 . S
O67 Ho40 2.346 . S
O67 C51 1.268 . S
O68 Ho41 2.378 . S
O68 C52 1.215 . S
O69 Ho41 2.524 . S
O69 C52 1.289 . S
O70 Ho41 2.381 . S
O70 C59 1.275 . S
O71 Ho40 2.305 . S
O71 Ho41 2.669 . S
O71 C59 1.256 . S
H72 C45 0.930 . S
H73 C46 0.931 . S
H74 C48 0.934 . S
H75 C49 0.930 . S
H76 C54 0.923 1_455 S
H77 C55 0.931 . S
H78 C57 0.934 . S
H79 C58 0.930 . S
Ho80 C83 2.811 . S
Ho80 O100 2.322 . S
Ho80 O102 2.378 . S
Ho80 O103 2.524 . S
Ho80 O104 2.381 . S
Ho80 O105 2.669 1_655 S
Ho80 O107 2.346 1_655 S
Ho80 O111 2.305 1_655 S
Ho81 C92 2.811 . S
Ho81 O101 2.346 . S
Ho81 O105 2.305 . S
Ho81 O106 2.322 . S
Ho81 O108 2.378 . S
Ho81 O109 2.524 . S
Ho81 O110 2.381 . S
Ho81 O111 2.669 . S
C82 O100 1.259 . S
C82 O101 1.268 1_655 S
C83 Ho80 2.811 . S
C83 C84 1.488 . S
C83 O102 1.215 . S
C83 O103 1.289 . S
C84 C83 1.488 . S
C84 C85 1.348 . S
C84 C89 1.413 . S
C85 C84 1.348 . S
C85 C86 1.442 . S
C85 H112 0.930 . S
C86 C85 1.442 . S
C86 C87 1.381 . S
C86 H113 0.931 . S
C87 C86 1.381 . S
C87 C88 1.321 . S
C88 C87 1.321 . S
C88 C89 1.403 . S
C88 H114 0.934 . S
C89 C84 1.413 . S
C89 C88 1.403 . S
C89 H115 0.930 . S
C90 O104 1.275 1_455 S
C90 O105 1.256 . S
C91 O106 1.259 . S
C91 O107 1.268 . S
C92 Ho81 2.811 . S
C92 C93 1.488 . S
C92 O108 1.215 . S
C92 O109 1.289 . S
C93 C92 1.488 . S
C93 C94 1.348 . S
C93 C98 1.413 . S
C94 C93 1.348 . S
C94 C95 1.442 . S
C94 H116 0.930 . S
C95 C94 1.442 . S
C95 C96 1.381 . S
C95 H117 0.931 . S
C96 C95 1.381 . S
C96 C97 1.321 . S
C97 C96 1.321 . S
C97 C98 1.403 . S
C97 H118 0.934 . S
C98 C93 1.413 . S
C98 C97 1.403 . S
C98 H119 0.930 . S
C99 O110 1.275 . S
C99 O111 1.256 . S
O100 Ho80 2.322 . S
O100 C82 1.259 . S
O101 Ho81 2.346 . S
O101 C82 1.268 1_455 S
O102 Ho80 2.378 . S
O102 C83 1.215 . S
O103 Ho80 2.524 . S
O103 C83 1.289 . S
O104 Ho80 2.381 . S
O104 C90 1.275 1_655 S
O105 Ho80 2.669 1_455 S
O105 Ho81 2.305 . S
O105 C90 1.256 . S
O106 Ho81 2.322 . S
O106 C91 1.259 . S
O107 Ho80 2.346 1_455 S
O107 C91 1.268 . S
O108 Ho81 2.378 . S
O108 C92 1.215 . S
O109 Ho81 2.524 . S
O109 C92 1.289 . S
O110 Ho81 2.381 . S
O110 C99 1.275 . S
O111 Ho80 2.305 1_455 S
O111 Ho81 2.669 . S
O111 C99 1.256 . S
H112 C85 0.930 . S
H113 C86 0.931 . S
H114 C88 0.934 . S
H115 C89 0.930 . S
H116 C94 0.930 . S
H117 C95 0.931 . S
H118 C97 0.934 . S
H119 C98 0.930 . S
Ho120 C123 2.811 . S
Ho120 O140 2.322 . S
Ho120 O142 2.378 . S
Ho120 O143 2.524 . S
Ho120 O144 2.381 . S
Ho120 O145 2.669 . S
Ho120 O147 2.346 . S
Ho120 O151 2.305 . S
Ho121 C132 2.811 . S
Ho121 O141 2.346 . S
Ho121 O145 2.305 . S
Ho121 O146 2.322 . S
Ho121 O148 2.378 . S
Ho121 O149 2.524 . S
Ho121 O150 2.381 . S
Ho121 O151 2.669 . S
C122 O140 1.259 . S
C122 O141 1.268 . S
C123 Ho120 2.811 . S
C123 C124 1.488 . S
C123 O142 1.215 . S
C123 O143 1.289 . S
C124 C123 1.488 . S
C124 C125 1.348 . S
C124 C129 1.413 . S
C125 C124 1.348 . S
C125 C126 1.442 . S
C125 H152 0.930 . S
C126 C125 1.442 . S
C126 C127 1.381 . S
C126 H153 0.931 . S
C127 C126 1.381 . S
C127 C128 1.321 . S
C128 C127 1.321 . S
C128 C129 1.403 . S
C128 H154 0.934 . S
C129 C124 1.413 . S
C129 C128 1.403 . S
C129 H155 0.930 . S
C130 O144 1.275 . S
C130 O145 1.256 . S
C131 O146 1.259 . S
C131 O147 1.268 . S
C132 Ho121 2.811 . S
C132 C133 1.488 . S
C132 O148 1.215 . S
C132 O149 1.289 . S
C133 C132 1.488 . S
C133 C134 1.348 1_455 S
C133 C138 1.413 1_455 S
C134 C133 1.348 1_655 S
C134 C135 1.442 . S
C134 H156 0.923 1_655 S
C135 C134 1.442 . S
C135 C136 1.381 . S
C135 H157 0.931 . S
C136 C135 1.381 . S
C136 C137 1.321 . S
C137 C136 1.321 . S
C137 C138 1.403 . S
C137 H158 0.934 . S
C138 C133 1.413 1_655 S
C138 C137 1.403 . S
C138 H159 0.930 . S
C139 O150 1.275 . S
C139 O151 1.256 . S
O140 Ho120 2.322 . S
O140 C122 1.259 . S
O141 Ho121 2.346 . S
O141 C122 1.268 . S
O142 Ho120 2.378 . S
O142 C123 1.215 . S
O143 Ho120 2.524 . S
O143 C123 1.289 . S
O144 Ho120 2.381 . S
O144 C130 1.275 . S
O145 Ho120 2.669 . S
O145 Ho121 2.305 . S
O145 C130 1.256 . S
O146 Ho121 2.322 . S
O146 C131 1.259 . S
O147 Ho120 2.346 . S
O147 C131 1.268 . S
O148 Ho121 2.378 . S
O148 C132 1.215 . S
O149 Ho121 2.524 . S
O149 C132 1.289 . S
O150 Ho121 2.381 . S
O150 C139 1.275 . S
O151 Ho120 2.305 . S
O151 Ho121 2.669 . S
O151 C139 1.256 . S
H152 C125 0.930 . S
H153 C126 0.931 . S
H154 C128 0.934 . S
H155 C129 0.930 . S
H156 C134 0.923 1_455 S
H157 C135 0.931 . S
H158 C137 0.934 . S
H159 C138 0.930 . S
Ho160 C163 2.811 . S
Ho160 O180 2.322 . S
Ho160 O182 2.378 . S
Ho160 O183 2.524 . S
Ho160 O184 2.381 . S
Ho160 O185 2.669 . S
Ho160 O187 2.346 . S
Ho160 O191 2.305 . S
Ho161 C172 2.811 . S
Ho161 O181 2.346 1_455 S
Ho161 O185 2.305 1_455 S
Ho161 O186 2.322 . S
Ho161 O188 2.378 . S
Ho161 O189 2.524 . S
Ho161 O190 2.381 . S
Ho161 O191 2.669 1_455 S
C162 O180 1.259 . S
C162 O181 1.268 . S
C163 Ho160 2.811 . S
C163 C164 1.488 . S
C163 O182 1.215 . S
C163 O183 1.289 . S
C164 C163 1.488 . S
C164 C165 1.348 . S
C164 C169 1.413 . S
C165 C164 1.348 . S
C165 C166 1.442 . S
C165 H192 0.930 . S
C166 C165 1.442 . S
C166 C167 1.381 . S
C166 H193 0.931 . S
C167 C166 1.381 . S
C167 C168 1.321 . S
C168 C167 1.321 . S
C168 C169 1.403 . S
C168 H194 0.934 . S
C169 C164 1.413 . S
C169 C168 1.403 . S
C169 H195 0.930 . S
C170 O184 1.275 . S
C170 O185 1.256 . S
C171 O186 1.259 . S
C171 O187 1.268 1_455 S
C172 Ho161 2.811 . S
C172 C173 1.488 . S
C172 O188 1.215 . S
C172 O189 1.289 . S
C173 C172 1.488 . S
C173 C174 1.348 . S
C173 C178 1.413 . S
C174 C173 1.348 . S
C174 C175 1.442 . S
C174 H196 0.930 . S
C175 C174 1.442 . S
C175 C176 1.381 . S
C175 H197 0.931 . S
C176 C175 1.381 . S
C176 C177 1.321 . S
C177 C176 1.321 . S
C177 C178 1.403 . S
C177 H198 0.934 . S
C178 C173 1.413 . S
C178 C177 1.403 . S
C178 H199 0.930 . S
C179 O190 1.275 1_655 S
C179 O191 1.256 . S
O180 Ho160 2.322 . S
O180 C162 1.259 . S
O181 Ho161 2.346 1_655 S
O181 C162 1.268 . S
O182 Ho160 2.378 . S
O182 C163 1.215 . S
O183 Ho160 2.524 . S
O183 C163 1.289 . S
O184 Ho160 2.381 . S
O184 C170 1.275 . S
O185 Ho160 2.669 . S
O185 Ho161 2.305 1_655 S
O185 C170 1.256 . S
O186 Ho161 2.322 . S
O186 C171 1.259 . S
O187 Ho160 2.346 . S
O187 C171 1.268 1_655 S
O188 Ho161 2.378 . S
O188 C172 1.215 . S
O189 Ho161 2.524 . S
O189 C172 1.289 . S
O190 Ho161 2.381 . S
O190 C179 1.275 1_455 S
O191 Ho160 2.305 . S
O191 Ho161 2.669 1_655 S
O191 C179 1.256 . S
H192 C165 0.930 . S
H193 C166 0.931 . S
H194 C168 0.934 . S
H195 C169 0.930 . S
H196 C174 0.930 . S
H197 C175 0.931 . S
H198 C177 0.934 . S
H199 C178 0.930 . S
Ho200 C203 2.811 . S
Ho200 O220 2.322 . S
Ho200 O222 2.378 . S
Ho200 O223 2.524 . S
Ho200 O224 2.381 . S
Ho200 O225 2.669 . S
Ho200 O227 2.346 . S
Ho200 O231 2.305 . S
Ho201 C212 2.811 . S
Ho201 O221 2.346 . S
Ho201 O225 2.305 . S
Ho201 O226 2.322 . S
Ho201 O228 2.378 . S
Ho201 O229 2.524 . S
Ho201 O230 2.381 . S
Ho201 O231 2.669 . S
C202 O220 1.259 . S
C202 O221 1.268 . S
C203 Ho200 2.811 . S
C203 C204 1.488 . S
C203 O222 1.215 . S
C203 O223 1.289 . S
C204 C203 1.488 . S
C204 C205 1.348 1_655 S
C204 C209 1.413 1_655 S
C205 C204 1.348 1_455 S
C205 C206 1.442 . S
C205 H232 0.923 1_455 S
C206 C205 1.442 . S
C206 C207 1.381 . S
C206 H233 0.931 . S
C207 C206 1.381 . S
C207 C208 1.321 . S
C208 C207 1.321 . S
C208 C209 1.403 . S
C208 H234 0.934 . S
C209 C204 1.413 1_455 S
C209 C208 1.403 . S
C209 H235 0.930 . S
C210 O224 1.275 . S
C210 O225 1.256 . S
C211 O226 1.259 . S
C211 O227 1.268 . S
C212 Ho201 2.811 . S
C212 C213 1.488 . S
C212 O228 1.215 . S
C212 O229 1.289 . S
C213 C212 1.488 . S
C213 C214 1.348 . S
C213 C218 1.413 . S
C214 C213 1.348 . S
C214 C215 1.442 . S
C214 H236 0.930 . S
C215 C214 1.442 . S
C215 C216 1.381 . S
C215 H237 0.931 . S
C216 C215 1.381 . S
C216 C217 1.321 . S
C217 C216 1.321 . S
C217 C218 1.403 . S
C217 H238 0.934 . S
C218 C213 1.413 . S
C218 C217 1.403 . S
C218 H239 0.930 . S
C219 O230 1.275 . S
C219 O231 1.256 . S
O220 Ho200 2.322 . S
O220 C202 1.259 . S
O221 Ho201 2.346 . S
O221 C202 1.268 . S
O222 Ho200 2.378 . S
O222 C203 1.215 . S
O223 Ho200 2.524 . S
O223 C203 1.289 . S
O224 Ho200 2.381 . S
O224 C210 1.275 . S
O225 Ho200 2.669 . S
O225 Ho201 2.305 . S
O225 C210 1.256 . S
O226 Ho201 2.322 . S
O226 C211 1.259 . S
O227 Ho200 2.346 . S
O227 C211 1.268 . S
O228 Ho201 2.378 . S
O228 C212 1.215 . S
O229 Ho201 2.524 . S
O229 C212 1.289 . S
O230 Ho201 2.381 . S
O230 C219 1.275 . S
O231 Ho200 2.305 . S
O231 Ho201 2.669 . S
O231 C219 1.256 . S
H232 C205 0.923 1_655 S
H233 C206 0.931 . S
H234 C208 0.934 . S
H235 C209 0.930 . S
H236 C214 0.930 . S
H237 C215 0.931 . S
H238 C217 0.934 . S
H239 C218 0.930 . S
Ho240 C243 2.811 . S
Ho240 O260 2.322 . S
Ho240 O262 2.378 . S
Ho240 O263 2.524 . S
Ho240 O264 2.381 . S
Ho240 O265 2.669 . S
Ho240 O267 2.346 . S
Ho240 O271 2.305 . S
Ho241 C252 2.811 . S
Ho241 O261 2.346 1_455 S
Ho241 O265 2.305 1_455 S
Ho241 O266 2.322 . S
Ho241 O268 2.378 . S
Ho241 O269 2.524 . S
Ho241 O270 2.381 . S
Ho241 O271 2.669 1_455 S
C242 O260 1.259 . S
C242 O261 1.268 . S
C243 Ho240 2.811 . S
C243 C244 1.488 . S
C243 O262 1.215 . S
C243 O263 1.289 . S
C244 C243 1.488 . S
C244 C245 1.348 . S
C244 C249 1.413 . S
C245 C244 1.348 . S
C245 C246 1.442 . S
C245 H272 0.930 . S
C246 C245 1.442 . S
C246 C247 1.381 . S
C246 H273 0.931 . S
C247 C246 1.381 . S
C247 C248 1.321 . S
C248 C247 1.321 . S
C248 C249 1.403 . S
C248 H274 0.934 . S
C249 C244 1.413 . S
C249 C248 1.403 . S
C249 H275 0.930 . S
C250 O264 1.275 . S
C250 O265 1.256 . S
C251 O266 1.259 . S
C251 O267 1.268 1_455 S
C252 Ho241 2.811 . S
C252 C253 1.488 . S
C252 O268 1.215 . S
C252 O269 1.289 . S
C253 C252 1.488 . S
C253 C254 1.348 . S
C253 C258 1.413 . S
C254 C253 1.348 . S
C254 C255 1.442 . S
C254 H276 0.930 . S
C255 C254 1.442 . S
C255 C256 1.381 . S
C255 H277 0.931 . S
C256 C255 1.381 . S
C256 C257 1.321 . S
C257 C256 1.321 . S
C257 C258 1.403 . S
C257 H278 0.934 . S
C258 C253 1.413 . S
C258 C257 1.403 . S
C258 H279 0.930 . S
C259 O270 1.275 1_655 S
C259 O271 1.256 . S
O260 Ho240 2.322 . S
O260 C242 1.259 . S
O261 Ho241 2.346 1_655 S
O261 C242 1.268 . S
O262 Ho240 2.378 . S
O262 C243 1.215 . S
O263 Ho240 2.524 . S
O263 C243 1.289 . S
O264 Ho240 2.381 . S
O264 C250 1.275 . S
O265 Ho240 2.669 . S
O265 Ho241 2.305 1_655 S
O265 C250 1.256 . S
O266 Ho241 2.322 . S
O266 C251 1.259 . S
O267 Ho240 2.346 . S
O267 C251 1.268 1_655 S
O268 Ho241 2.378 . S
O268 C252 1.215 . S
O269 Ho241 2.524 . S
O269 C252 1.289 . S
O270 Ho241 2.381 . S
O270 C259 1.275 1_455 S
O271 Ho240 2.305 . S
O271 Ho241 2.669 1_655 S
O271 C259 1.256 . S
H272 C245 0.930 . S
H273 C246 0.931 . S
H274 C248 0.934 . S
H275 C249 0.930 . S
H276 C254 0.930 . S
H277 C255 0.931 . S
H278 C257 0.934 . S
H279 C258 0.930 . S
Ho280 C283 2.811 . S
Ho280 O300 2.322 . S
Ho280 O302 2.378 . S
Ho280 O303 2.524 . S
Ho280 O304 2.381 . S
Ho280 O305 2.669 . S
Ho280 O307 2.346 . S
Ho280 O311 2.305 . S
Ho281 C292 2.811 . S
Ho281 O301 2.346 . S
Ho281 O305 2.305 . S
Ho281 O306 2.322 . S
Ho281 O308 2.378 . S
Ho281 O309 2.524 . S
Ho281 O310 2.381 . S
Ho281 O311 2.669 . S
C282 O300 1.259 . S
C282 O301 1.268 . S
C283 Ho280 2.811 . S
C283 C284 1.488 . S
C283 O302 1.215 . S
C283 O303 1.289 . S
C284 C283 1.488 . S
C284 C285 1.348 1_655 S
C284 C289 1.413 1_655 S
C285 C284 1.348 1_455 S
C285 C286 1.442 . S
C285 H312 0.923 1_455 S
C286 C285 1.442 . S
C286 C287 1.381 . S
C286 H313 0.931 . S
C287 C286 1.381 . S
C287 C288 1.321 . S
C288 C287 1.321 . S
C288 C289 1.403 . S
C288 H314 0.934 . S
C289 C284 1.413 1_455 S
C289 C288 1.403 . S
C289 H315 0.930 . S
C290 O304 1.275 . S
C290 O305 1.256 . S
C291 O306 1.259 . S
C291 O307 1.268 . S
C292 Ho281 2.811 . S
C292 C293 1.488 . S
C292 O308 1.215 . S
C292 O309 1.289 . S
C293 C292 1.488 . S
C293 C294 1.348 . S
C293 C298 1.413 . S
C294 C293 1.348 . S
C294 C295 1.442 . S
C294 H316 0.930 . S
C295 C294 1.442 . S
C295 C296 1.381 . S
C295 H317 0.931 . S
C296 C295 1.381 . S
C296 C297 1.321 . S
C297 C296 1.321 . S
C297 C298 1.403 . S
C297 H318 0.934 . S
C298 C293 1.413 . S
C298 C297 1.403 . S
C298 H319 0.930 . S
C299 O310 1.275 . S
C299 O311 1.256 . S
O300 Ho280 2.322 . S
O300 C282 1.259 . S
O301 Ho281 2.346 . S
O301 C282 1.268 . S
O302 Ho280 2.378 . S
O302 C283 1.215 . S
O303 Ho280 2.524 . S
O303 C283 1.289 . S
O304 Ho280 2.381 . S
O304 C290 1.275 . S
O305 Ho280 2.669 . S
O305 Ho281 2.305 . S
O305 C290 1.256 . S
O306 Ho281 2.322 . S
O306 C291 1.259 . S
O307 Ho280 2.346 . S
O307 C291 1.268 . S
O308 Ho281 2.378 . S
O308 C292 1.215 . S
O309 Ho281 2.524 . S
O309 C292 1.289 . S
O310 Ho281 2.381 . S
O310 C299 1.275 . S
O311 Ho280 2.305 . S
O311 Ho281 2.669 . S
O311 C299 1.256 . S
H312 C285 0.923 1_655 S
H313 C286 0.931 . S
H314 C288 0.934 . S
H315 C289 0.930 . S
H316 C294 0.930 . S
H317 C295 0.931 . S
H318 C297 0.934 . S
H319 C298 0.930 . S
Ho320 C323 2.811 1_545 S
Ho320 O340 2.322 1_545 S
Ho320 O342 2.378 . S
Ho320 O343 2.524 1_545 S
Ho320 O344 2.381 . S
Ho320 O345 2.669 1_645 S
Ho320 O347 2.346 1_655 S
Ho320 O351 2.305 1_645 S
Ho321 C332 2.811 . S
Ho321 O341 2.346 . S
Ho321 O345 2.305 . S
Ho321 O346 2.322 1_565 S
Ho321 O348 2.378 . S
Ho321 O349 2.524 . S
Ho321 O350 2.381 . S
Ho321 O351 2.669 . S
C322 O340 1.259 . S
C322 O341 1.268 1_655 S
C323 Ho320 2.811 1_565 S
C323 C324 1.488 . S
C323 O342 1.216 1_565 S
C323 O343 1.289 . S
C324 C323 1.488 . S
C324 C325 1.348 . S
C324 C329 1.413 . S
C325 C324 1.348 . S
C325 C326 1.442 . S
C325 H352 0.930 . S
C326 C325 1.442 . S
C326 C327 1.381 . S
C326 H353 0.931 . S
C327 C326 1.381 . S
C327 C328 1.321 . S
C328 C327 1.321 . S
C328 C329 1.403 . S
C328 H354 0.934 . S
C329 C324 1.413 . S
C329 C328 1.403 . S
C329 H355 0.931 . S
C330 O344 1.275 1_465 S
C330 O345 1.256 . S
C331 O346 1.259 . S
C331 O347 1.268 . S
C332 Ho321 2.811 . S
C332 C333 1.488 . S
C332 O348 1.215 . S
C332 O349 1.289 . S
C333 C332 1.488 . S
C333 C334 1.348 1_565 S
C333 C338 1.413 . S
C334 C333 1.348 1_545 S
C334 C335 1.442 . S
C334 H356 0.930 . S
C335 C334 1.442 . S
C335 C336 1.381 . S
C335 H357 0.931 . S
C336 C335 1.381 . S
C336 C337 1.321 1_545 S
C337 C336 1.321 1_565 S
C337 C338 1.403 . S
C337 H358 0.934 . S
C338 C333 1.413 . S
C338 C337 1.403 . S
C338 H359 0.930 . S
C339 O350 1.275 . S
C339 O351 1.256 . S
O340 Ho320 2.322 1_565 S
O340 C322 1.259 . S
O341 Ho321 2.346 . S
O341 C322 1.268 1_455 S
O342 Ho320 2.378 . S
O342 C323 1.216 1_545 S
O343 Ho320 2.524 1_565 S
O343 C323 1.289 . S
O344 Ho320 2.381 . S
O344 C330 1.275 1_645 S
O345 Ho320 2.669 1_465 S
O345 Ho321 2.305 . S
O345 C330 1.256 . S
O346 Ho321 2.322 1_545 S
O346 C331 1.259 . S
O347 Ho320 2.346 1_455 S
O347 C331 1.268 . S
O348 Ho321 2.378 . S
O348 C332 1.215 . S
O349 Ho321 2.524 . S
O349 C332 1.289 . S
O350 Ho321 2.381 . S
O350 C339 1.275 . S
O351 Ho320 2.305 1_465 S
O351 Ho321 2.669 . S
O351 C339 1.256 . S
H352 C325 0.930 . S
H353 C326 0.931 . S
H354 C328 0.934 . S
H355 C329 0.931 . S
H356 C334 0.930 . S
H357 C335 0.931 . S
H358 C337 0.934 . S
H359 C338 0.930 . S
Ho360 C363 2.811 . S
Ho360 O380 2.322 . S
Ho360 O382 2.378 . S
Ho360 O383 2.524 . S
Ho360 O384 2.381 . S
Ho360 O385 2.669 . S
Ho360 O387 2.346 . S
Ho360 O391 2.305 . S
Ho361 C372 2.811 . S
Ho361 O381 2.346 . S
Ho361 O385 2.305 . S
Ho361 O386 2.322 . S
Ho361 O388 2.378 . S
Ho361 O389 2.524 . S
Ho361 O390 2.381 . S
Ho361 O391 2.669 . S
C362 O380 1.259 . S
C362 O381 1.268 . S
C363 Ho360 2.811 . S
C363 C364 1.488 . S
C363 O382 1.215 . S
C363 O383 1.289 . S
C364 C363 1.488 . S
C364 C365 1.348 . S
C364 C369 1.413 . S
C365 C364 1.348 . S
C365 C366 1.442 . S
C365 H392 0.930 . S
C366 C365 1.442 . S
C366 C367 1.381 . S
C366 H393 0.931 . S
C367 C366 1.381 . S
C367 C368 1.321 . S
C368 C367 1.321 . S
C368 C369 1.403 . S
C368 H394 0.934 . S
C369 C364 1.413 . S
C369 C368 1.403 . S
C369 H395 0.930 . S
C370 O384 1.275 . S
C370 O385 1.256 . S
C371 O386 1.259 . S
C371 O387 1.268 . S
C372 Ho361 2.811 . S
C372 C373 1.488 . S
C372 O388 1.215 . S
C372 O389 1.289 . S
C373 C372 1.488 . S
C373 C374 1.348 1_455 S
C373 C378 1.413 1_455 S
C374 C373 1.348 1_655 S
C374 C375 1.442 . S
C374 H396 0.923 1_655 S
C375 C374 1.442 . S
C375 C376 1.381 . S
C375 H397 0.931 . S
C376 C375 1.381 . S
C376 C377 1.321 . S
C377 C376 1.321 . S
C377 C378 1.403 . S
C377 H398 0.934 . S
C378 C373 1.413 1_655 S
C378 C377 1.403 . S
C378 H399 0.930 . S
C379 O390 1.275 . S
C379 O391 1.256 . S
O380 Ho360 2.322 . S
O380 C362 1.259 . S
O381 Ho361 2.346 . S
O381 C362 1.268 . S
O382 Ho360 2.378 . S
O382 C363 1.215 . S
O383 Ho360 2.524 . S
O383 C363 1.289 . S
O384 Ho360 2.381 . S
O384 C370 1.275 . S
O385 Ho360 2.669 . S
O385 Ho361 2.305 . S
O385 C370 1.256 . S
O386 Ho361 2.322 . S
O386 C371 1.259 . S
O387 Ho360 2.346 . S
O387 C371 1.268 . S
O388 Ho361 2.378 . S
O388 C372 1.215 . S
O389 Ho361 2.524 . S
O389 C372 1.289 . S
O390 Ho361 2.381 . S
O390 C379 1.275 . S
O391 Ho360 2.305 . S
O391 Ho361 2.669 . S
O391 C379 1.256 . S
H392 C365 0.930 . S
H393 C366 0.931 . S
H394 C368 0.934 . S
H395 C369 0.930 . S
H396 C374 0.923 1_455 S
H397 C375 0.931 . S
H398 C377 0.934 . S
H399 C378 0.930 . S
Ho400 C403 2.811 . S
Ho400 O420 2.322 . S
Ho400 O422 2.378 . S
Ho400 O423 2.524 . S
Ho400 O424 2.381 . S
Ho400 O425 2.669 1_655 S
Ho400 O427 2.346 1_655 S
Ho400 O431 2.305 1_655 S
Ho401 C412 2.811 . S
Ho401 O421 2.346 . S
Ho401 O425 2.305 . S
Ho401 O426 2.322 . S
Ho401 O428 2.378 . S
Ho401 O429 2.524 . S
Ho401 O430 2.381 . S
Ho401 O431 2.669 . S
C402 O420 1.259 . S
C402 O421 1.268 1_655 S
C403 Ho400 2.811 . S
C403 C404 1.488 . S
C403 O422 1.215 . S
C403 O423 1.289 . S
C404 C403 1.488 . S
C404 C405 1.348 . S
C404 C409 1.413 . S
C405 C404 1.348 . S
C405 C406 1.442 . S
C405 H432 0.930 . S
C406 C405 1.442 . S
C406 C407 1.381 . S
C406 H433 0.931 . S
C407 C406 1.381 . S
C407 C408 1.321 . S
C408 C407 1.321 . S
C408 C409 1.403 . S
C408 H434 0.934 . S
C409 C404 1.413 . S
C409 C408 1.403 . S
C409 H435 0.930 . S
C410 O424 1.275 1_455 S
C410 O425 1.256 . S
C411 O426 1.259 . S
C411 O427 1.268 . S
C412 Ho401 2.811 . S
C412 C413 1.488 . S
C412 O428 1.215 . S
C412 O429 1.289 . S
C413 C412 1.488 . S
C413 C414 1.348 . S
C413 C418 1.413 . S
C414 C413 1.348 . S
C414 C415 1.442 . S
C414 H436 0.930 . S
C415 C414 1.442 . S
C415 C416 1.381 . S
C415 H437 0.931 . S
C416 C415 1.381 . S
C416 C417 1.321 . S
C417 C416 1.321 . S
C417 C418 1.403 . S
C417 H438 0.934 . S
C418 C413 1.413 . S
C418 C417 1.403 . S
C418 H439 0.930 . S
C419 O430 1.275 . S
C419 O431 1.256 . S
O420 Ho400 2.322 . S
O420 C402 1.259 . S
O421 Ho401 2.346 . S
O421 C402 1.268 1_455 S
O422 Ho400 2.378 . S
O422 C403 1.215 . S
O423 Ho400 2.524 . S
O423 C403 1.289 . S
O424 Ho400 2.381 . S
O424 C410 1.275 1_655 S
O425 Ho400 2.669 1_455 S
O425 Ho401 2.305 . S
O425 C410 1.256 . S
O426 Ho401 2.322 . S
O426 C411 1.259 . S
O427 Ho400 2.346 1_455 S
O427 C411 1.268 . S
O428 Ho401 2.378 . S
O428 C412 1.215 . S
O429 Ho401 2.524 . S
O429 C412 1.289 . S
O430 Ho401 2.381 . S
O430 C419 1.275 . S
O431 Ho400 2.305 1_455 S
O431 Ho401 2.669 . S
O431 C419 1.256 . S
H432 C405 0.930 . S
H433 C406 0.931 . S
H434 C408 0.934 . S
H435 C409 0.930 . S
H436 C414 0.930 . S
H437 C415 0.931 . S
H438 C417 0.934 . S
H439 C418 0.930 . S
Ho440 C443 2.811 1_545 S
Ho440 O460 2.322 1_545 S
Ho440 O462 2.378 . S
Ho440 O463 2.524 1_545 S
Ho440 O464 2.381 . S
Ho440 O465 2.669 1_545 S
Ho440 O467 2.346 . S
Ho440 O471 2.305 1_545 S
Ho441 C452 2.811 . S
Ho441 O461 2.346 . S
Ho441 O465 2.305 . S
Ho441 O466 2.322 1_565 S
Ho441 O468 2.378 . S
Ho441 O469 2.524 . S
Ho441 O470 2.381 . S
Ho441 O471 2.669 . S
C442 O460 1.259 . S
C442 O461 1.268 . S
C443 Ho440 2.811 1_565 S
C443 C444 1.488 . S
C443 O462 1.216 1_565 S
C443 O463 1.289 . S
C444 C443 1.488 . S
C444 C445 1.348 . S
C444 C449 1.413 . S
C445 C444 1.348 . S
C445 C446 1.442 . S
C445 H472 0.930 . S
C446 C445 1.442 . S
C446 C447 1.381 . S
C446 H473 0.931 . S
C447 C446 1.381 . S
C447 C448 1.321 . S
C448 C447 1.321 . S
C448 C449 1.403 . S
C448 H474 0.934 . S
C449 C444 1.413 . S
C449 C448 1.403 . S
C449 H475 0.931 . S
C450 O464 1.275 1_565 S
C450 O465 1.256 . S
C451 O466 1.259 . S
C451 O467 1.268 . S
C452 Ho441 2.811 . S
C452 C453 1.488 . S
C452 O468 1.215 . S
C452 O469 1.289 . S
C453 C452 1.488 . S
C453 C454 1.348 1_465 S
C453 C458 1.413 1_455 S
C454 C453 1.348 1_645 S
C454 C455 1.442 . S
C454 H476 0.923 1_655 S
C455 C454 1.442 . S
C455 C456 1.381 . S
C455 H477 0.931 . S
C456 C455 1.381 . S
C456 C457 1.321 1_545 S
C457 C456 1.321 1_565 S
C457 C458 1.403 . S
C457 H478 0.934 . S
C458 C453 1.413 1_655 S
C458 C457 1.403 . S
C458 H479 0.930 . S
C459 O470 1.275 . S
C459 O471 1.256 . S
O460 Ho440 2.322 1_565 S
O460 C442 1.259 . S
O461 Ho441 2.346 . S
O461 C442 1.268 . S
O462 Ho440 2.378 . S
O462 C443 1.216 1_545 S
O463 Ho440 2.524 1_565 S
O463 C443 1.289 . S
O464 Ho440 2.381 . S
O464 C450 1.275 1_545 S
O465 Ho440 2.669 1_565 S
O465 Ho441 2.305 . S
O465 C450 1.256 . S
O466 Ho441 2.322 1_545 S
O466 C451 1.259 . S
O467 Ho440 2.346 . S
O467 C451 1.268 . S
O468 Ho441 2.378 . S
O468 C452 1.215 . S
O469 Ho441 2.524 . S
O469 C452 1.289 . S
O470 Ho441 2.381 . S
O470 C459 1.275 . S
O471 Ho440 2.305 1_565 S
O471 Ho441 2.669 . S
O471 C459 1.256 . S
H472 C445 0.930 . S
H473 C446 0.931 . S
H474 C448 0.934 . S
H475 C449 0.931 . S
H476 C454 0.923 1_455 S
H477 C455 0.931 . S
H478 C457 0.934 . S
H479 C458 0.930 . S
Ho480 C483 2.811 . S
Ho480 O500 2.322 1_545 S
Ho480 O502 2.378 . S
Ho480 O503 2.524 . S
Ho480 O504 2.381 . S
Ho480 O505 2.669 . S
Ho480 O507 2.346 . S
Ho480 O511 2.305 . S
Ho481 C492 2.811 1_565 S
Ho481 O501 2.346 1_455 S
Ho481 O505 2.305 1_465 S
Ho481 O506 2.322 1_565 S
Ho481 O508 2.378 . S
Ho481 O509 2.524 1_565 S
Ho481 O510 2.381 . S
Ho481 O511 2.669 1_465 S
C482 O500 1.259 . S
C482 O501 1.268 . S
C483 Ho480 2.811 . S
C483 C484 1.488 . S
C483 O502 1.215 . S
C483 O503 1.289 . S
C484 C483 1.488 . S
C484 C485 1.348 1_545 S
C484 C489 1.413 . S
C485 C484 1.348 1_565 S
C485 C486 1.442 . S
C485 H512 0.930 . S
C486 C485 1.442 . S
C486 C487 1.381 . S
C486 H513 0.931 . S
C487 C486 1.381 . S
C487 C488 1.321 1_565 S
C488 C487 1.321 1_545 S
C488 C489 1.403 . S
C488 H514 0.934 . S
C489 C484 1.413 . S
C489 C488 1.403 . S
C489 H515 0.930 . S
C490 O504 1.275 . S
C490 O505 1.256 . S
C491 O506 1.259 . S
C491 O507 1.268 1_455 S
C492 Ho481 2.811 1_545 S
C492 C493 1.488 . S
C492 O508 1.216 1_545 S
C492 O509 1.289 . S
C493 C492 1.488 . S
C493 C494 1.348 . S
C493 C498 1.413 . S
C494 C493 1.348 . S
C494 C495 1.442 . S
C494 H516 0.930 . S
C495 C494 1.442 . S
C495 C496 1.381 . S
C495 H517 0.931 . S
C496 C495 1.381 . S
C496 C497 1.321 . S
C497 C496 1.321 . S
C497 C498 1.403 . S
C497 H518 0.934 . S
C498 C493 1.413 . S
C498 C497 1.403 . S
C498 H519 0.931 . S
C499 O510 1.275 1_645 S
C499 O511 1.256 . S
O500 Ho480 2.322 1_565 S
O500 C482 1.259 . S
O501 Ho481 2.346 1_655 S
O501 C482 1.268 . S
O502 Ho480 2.378 . S
O502 C483 1.215 . S
O503 Ho480 2.524 . S
O503 C483 1.289 . S
O504 Ho480 2.381 . S
O504 C490 1.275 . S
O505 Ho480 2.669 . S
O505 Ho481 2.305 1_645 S
O505 C490 1.256 . S
O506 Ho481 2.322 1_545 S
O506 C491 1.259 . S
O507 Ho480 2.346 . S
O507 C491 1.268 1_655 S
O508 Ho481 2.378 . S
O508 C492 1.216 1_565 S
O509 Ho481 2.524 1_545 S
O509 C492 1.289 . S
O510 Ho481 2.381 . S
O510 C499 1.275 1_465 S
O511 Ho480 2.305 . S
O511 Ho481 2.669 1_645 S
O511 C499 1.256 . S
H512 C485 0.930 . S
H513 C486 0.931 . S
H514 C488 0.934 . S
H515 C489 0.930 . S
H516 C494 0.930 . S
H517 C495 0.931 . S
H518 C497 0.934 . S
H519 C498 0.931 . S
Ho520 C523 2.811 . S
Ho520 O540 2.322 . S
Ho520 O542 2.378 . S
Ho520 O543 2.524 . S
Ho520 O544 2.381 . S
Ho520 O545 2.669 . S
Ho520 O547 2.346 . S
Ho520 O551 2.305 . S
Ho521 C532 2.811 . S
Ho521 O541 2.346 . S
Ho521 O545 2.305 . S
Ho521 O546 2.322 . S
Ho521 O548 2.378 . S
Ho521 O549 2.524 . S
Ho521 O550 2.381 . S
Ho521 O551 2.669 . S
C522 O540 1.259 . S
C522 O541 1.268 . S
C523 Ho520 2.811 . S
C523 C524 1.488 . S
C523 O542 1.215 . S
C523 O543 1.289 . S
C524 C523 1.488 . S
C524 C525 1.348 1_655 S
C524 C529 1.413 1_655 S
C525 C524 1.348 1_455 S
C525 C526 1.442 . S
C525 H552 0.923 1_455 S
C526 C525 1.442 . S
C526 C527 1.381 . S
C526 H553 0.931 . S
C527 C526 1.381 . S
C527 C528 1.321 . S
C528 C527 1.321 . S
C528 C529 1.403 . S
C528 H554 0.934 . S
C529 C524 1.413 1_455 S
C529 C528 1.403 . S
C529 H555 0.930 . S
C530 O544 1.275 . S
C530 O545 1.256 . S
C531 O546 1.259 . S
C531 O547 1.268 . S
C532 Ho521 2.811 . S
C532 C533 1.488 . S
C532 O548 1.215 . S
C532 O549 1.289 . S
C533 C532 1.488 . S
C533 C534 1.348 . S
C533 C538 1.413 . S
C534 C533 1.348 . S
C534 C535 1.442 . S
C534 H556 0.930 . S
C535 C534 1.442 . S
C535 C536 1.381 . S
C535 H557 0.931 . S
C536 C535 1.381 . S
C536 C537 1.321 . S
C537 C536 1.321 . S
C537 C538 1.403 . S
C537 H558 0.934 . S
C538 C533 1.413 . S
C538 C537 1.403 . S
C538 H559 0.930 . S
C539 O550 1.275 . S
C539 O551 1.256 . S
O540 Ho520 2.322 . S
O540 C522 1.259 . S
O541 Ho521 2.346 . S
O541 C522 1.268 . S
O542 Ho520 2.378 . S
O542 C523 1.215 . S
O543 Ho520 2.524 . S
O543 C523 1.289 . S
O544 Ho520 2.381 . S
O544 C530 1.275 . S
O545 Ho520 2.669 . S
O545 Ho521 2.305 . S
O545 C530 1.256 . S
O546 Ho521 2.322 . S
O546 C531 1.259 . S
O547 Ho520 2.346 . S
O547 C531 1.268 . S
O548 Ho521 2.378 . S
O548 C532 1.215 . S
O549 Ho521 2.524 . S
O549 C532 1.289 . S
O550 Ho521 2.381 . S
O550 C539 1.275 . S
O551 Ho520 2.305 . S
O551 Ho521 2.669 . S
O551 C539 1.256 . S
H552 C525 0.923 1_655 S
H553 C526 0.931 . S
H554 C528 0.934 . S
H555 C529 0.930 . S
H556 C534 0.930 . S
H557 C535 0.931 . S
H558 C537 0.934 . S
H559 C538 0.930 . S
Ho560 C563 2.811 . S
Ho560 O580 2.322 . S
Ho560 O582 2.378 . S
Ho560 O583 2.524 . S
Ho560 O584 2.381 . S
Ho560 O585 2.669 . S
Ho560 O587 2.346 . S
Ho560 O591 2.305 . S
Ho561 C572 2.811 . S
Ho561 O581 2.346 1_455 S
Ho561 O585 2.305 1_455 S
Ho561 O586 2.322 . S
Ho561 O588 2.378 . S
Ho561 O589 2.524 . S
Ho561 O590 2.381 . S
Ho561 O591 2.669 1_455 S
C562 O580 1.259 . S
C562 O581 1.268 . S
C563 Ho560 2.811 . S
C563 C564 1.488 . S
C563 O582 1.215 . S
C563 O583 1.289 . S
C564 C563 1.488 . S
C564 C565 1.348 . S
C564 C569 1.413 . S
C565 C564 1.348 . S
C565 C566 1.442 . S
C565 H592 0.930 . S
C566 C565 1.442 . S
C566 C567 1.381 . S
C566 H593 0.931 . S
C567 C566 1.381 . S
C567 C568 1.321 . S
C568 C567 1.321 . S
C568 C569 1.403 . S
C568 H594 0.934 . S
C569 C564 1.413 . S
C569 C568 1.403 . S
C569 H595 0.930 . S
C570 O584 1.275 . S
C570 O585 1.256 . S
C571 O586 1.259 . S
C571 O587 1.268 1_455 S
C572 Ho561 2.811 . S
C572 C573 1.488 . S
C572 O588 1.215 . S
C572 O589 1.289 . S
C573 C572 1.488 . S
C573 C574 1.348 . S
C573 C578 1.413 . S
C574 C573 1.348 . S
C574 C575 1.442 . S
C574 H596 0.930 . S
C575 C574 1.442 . S
C575 C576 1.381 . S
C575 H597 0.931 . S
C576 C575 1.381 . S
C576 C577 1.321 . S
C577 C576 1.321 . S
C577 C578 1.403 . S
C577 H598 0.934 . S
C578 C573 1.413 . S
C578 C577 1.403 . S
C578 H599 0.930 . S
C579 O590 1.275 1_655 S
C579 O591 1.256 . S
O580 Ho560 2.322 . S
O580 C562 1.259 . S
O581 Ho561 2.346 1_655 S
O581 C562 1.268 . S
O582 Ho560 2.378 . S
O582 C563 1.215 . S
O583 Ho560 2.524 . S
O583 C563 1.289 . S
O584 Ho560 2.381 . S
O584 C570 1.275 . S
O585 Ho560 2.669 . S
O585 Ho561 2.305 1_655 S
O585 C570 1.256 . S
O586 Ho561 2.322 . S
O586 C571 1.259 . S
O587 Ho560 2.346 . S
O587 C571 1.268 1_655 S
O588 Ho561 2.378 . S
O588 C572 1.215 . S
O589 Ho561 2.524 . S
O589 C572 1.289 . S
O590 Ho561 2.381 . S
O590 C579 1.275 1_455 S
O591 Ho560 2.305 . S
O591 Ho561 2.669 1_655 S
O591 C579 1.256 . S
H592 C565 0.930 . S
H593 C566 0.931 . S
H594 C568 0.934 . S
H595 C569 0.930 . S
H596 C574 0.930 . S
H597 C575 0.931 . S
H598 C577 0.934 . S
H599 C578 0.930 . S
Ho600 C603 2.811 . S
Ho600 O620 2.322 1_545 S
Ho600 O622 2.378 . S
Ho600 O623 2.524 . S
Ho600 O624 2.381 . S
Ho600 O625 2.669 . S
Ho600 O627 2.346 . S
Ho600 O631 2.305 . S
Ho601 C612 2.811 1_565 S
Ho601 O621 2.346 . S
Ho601 O625 2.305 1_565 S
Ho601 O626 2.322 1_565 S
Ho601 O628 2.378 . S
Ho601 O629 2.524 1_565 S
Ho601 O630 2.381 . S
Ho601 O631 2.669 1_565 S
C602 O620 1.259 . S
C602 O621 1.268 . S
C603 Ho600 2.811 . S
C603 C604 1.488 . S
C603 O622 1.215 . S
C603 O623 1.289 . S
C604 C603 1.488 . S
C604 C605 1.348 1_645 S
C604 C609 1.413 1_655 S
C605 C604 1.348 1_465 S
C605 C606 1.442 . S
C605 H632 0.923 1_455 S
C606 C605 1.442 . S
C606 C607 1.381 . S
C606 H633 0.931 . S
C607 C606 1.381 . S
C607 C608 1.321 1_565 S
C608 C607 1.321 1_545 S
C608 C609 1.403 . S
C608 H634 0.934 . S
C609 C604 1.413 1_455 S
C609 C608 1.403 . S
C609 H635 0.930 . S
C610 O624 1.275 . S
C610 O625 1.256 . S
C611 O626 1.259 . S
C611 O627 1.268 . S
C612 Ho601 2.811 1_545 S
C612 C613 1.488 . S
C612 O628 1.216 1_545 S
C612 O629 1.289 . S
C613 C612 1.488 . S
C613 C614 1.348 . S
C613 C618 1.413 . S
C614 C613 1.348 . S
C614 C615 1.442 . S
C614 H636 0.930 . S
C615 C614 1.442 . S
C615 C616 1.381 . S
C615 H637 0.931 . S
C616 C615 1.381 . S
C616 C617 1.321 . S
C617 C616 1.321 . S
C617 C618 1.403 . S
C617 H638 0.934 . S
C618 C613 1.413 . S
C618 C617 1.403 . S
C618 H639 0.931 . S
C619 O630 1.275 1_545 S
C619 O631 1.256 . S
O620 Ho600 2.322 1_565 S
O620 C602 1.259 . S
O621 Ho601 2.346 . S
O621 C602 1.268 . S
O622 Ho600 2.378 . S
O622 C603 1.215 . S
O623 Ho600 2.524 . S
O623 C603 1.289 . S
O624 Ho600 2.381 . S
O624 C610 1.275 . S
O625 Ho600 2.669 . S
O625 Ho601 2.305 1_545 S
O625 C610 1.256 . S
O626 Ho601 2.322 1_545 S
O626 C611 1.259 . S
O627 Ho600 2.346 . S
O627 C611 1.268 . S
O628 Ho601 2.378 . S
O628 C612 1.216 1_565 S
O629 Ho601 2.524 1_545 S
O629 C612 1.289 . S
O630 Ho601 2.381 . S
O630 C619 1.275 1_565 S
O631 Ho600 2.305 . S
O631 Ho601 2.669 1_545 S
O631 C619 1.256 . S
H632 C605 0.923 1_655 S
H633 C606 0.931 . S
H634 C608 0.934 . S
H635 C609 0.930 . S
H636 C614 0.930 . S
H637 C615 0.931 . S
H638 C617 0.934 . S
H639 C618 0.931 . S
Ho640 C643 2.811 . S
Ho640 O660 2.322 . S
Ho640 O662 2.378 . S
Ho640 O663 2.524 . S
Ho640 O664 2.381 . S
Ho640 O665 2.669 . S
Ho640 O667 2.346 . S
Ho640 O671 2.305 . S
Ho641 C652 2.811 . S
Ho641 O661 2.346 . S
Ho641 O665 2.305 . S
Ho641 O666 2.322 . S
Ho641 O668 2.378 . S
Ho641 O669 2.524 . S
Ho641 O670 2.381 . S
Ho641 O671 2.669 . S
C642 O660 1.259 . S
C642 O661 1.268 . S
C643 Ho640 2.811 . S
C643 C644 1.488 . S
C643 O662 1.215 . S
C643 O663 1.289 . S
C644 C643 1.488 . S
C644 C645 1.348 . S
C644 C649 1.413 . S
C645 C644 1.348 . S
C645 C646 1.442 . S
C645 H672 0.930 . S
C646 C645 1.442 . S
C646 C647 1.381 . S
C646 H673 0.931 . S
C647 C646 1.381 . S
C647 C648 1.321 . S
C648 C647 1.321 . S
C648 C649 1.403 . S
C648 H674 0.934 . S
C649 C644 1.413 . S
C649 C648 1.403 . S
C649 H675 0.930 . S
C650 O664 1.275 . S
C650 O665 1.256 . S
C651 O666 1.259 . S
C651 O667 1.268 . S
C652 Ho641 2.811 . S
C652 C653 1.488 . S
C652 O668 1.215 . S
C652 O669 1.289 . S
C653 C652 1.488 . S
C653 C654 1.348 . S
C653 C658 1.413 . S
C654 C653 1.348 . S
C654 C655 1.442 . S
C654 H676 0.930 . S
C655 C654 1.442 . S
C655 C656 1.381 . S
C655 H677 0.931 . S
C656 C655 1.381 . S
C656 C657 1.321 . S
C657 C656 1.321 . S
C657 C658 1.403 . S
C657 H678 0.934 . S
C658 C653 1.413 . S
C658 C657 1.403 . S
C658 H679 0.930 . S
C659 O670 1.275 . S
C659 O671 1.256 . S
O660 Ho640 2.322 . S
O660 C642 1.259 . S
O661 Ho641 2.346 . S
O661 C642 1.268 . S
O662 Ho640 2.378 . S
O662 C643 1.215 . S
O663 Ho640 2.524 . S
O663 C643 1.289 . S
O664 Ho640 2.381 . S
O664 C650 1.275 . S
O665 Ho640 2.669 . S
O665 Ho641 2.305 . S
O665 C650 1.256 . S
O666 Ho641 2.322 . S
O666 C651 1.259 . S
O667 Ho640 2.346 . S
O667 C651 1.268 . S
O668 Ho641 2.378 . S
O668 C652 1.215 . S
O669 Ho641 2.524 . S
O669 C652 1.289 . S
O670 Ho641 2.381 . S
O670 C659 1.275 . S
O671 Ho640 2.305 . S
O671 Ho641 2.669 . S
O671 C659 1.256 . S
H672 C645 0.930 . S
H673 C646 0.931 . S
H674 C648 0.934 . S
H675 C649 0.930 . S
H676 C654 0.930 . S
H677 C655 0.931 . S
H678 C657 0.934 . S
H679 C658 0.930 . S
Ho680 C683 2.811 . S
Ho680 O700 2.322 . S
Ho680 O702 2.378 . S
Ho680 O703 2.524 . S
Ho680 O704 2.381 . S
Ho680 O705 2.669 . S
Ho680 O707 2.346 . S
Ho680 O711 2.305 . S
Ho681 C692 2.811 . S
Ho681 O701 2.346 . S
Ho681 O705 2.305 . S
Ho681 O706 2.322 . S
Ho681 O708 2.378 . S
Ho681 O709 2.524 . S
Ho681 O710 2.381 . S
Ho681 O711 2.669 . S
C682 O700 1.259 . S
C682 O701 1.268 . S
C683 Ho680 2.811 . S
C683 C684 1.488 . S
C683 O702 1.215 . S
C683 O703 1.289 . S
C684 C683 1.488 . S
C684 C685 1.348 . S
C684 C689 1.413 . S
C685 C684 1.348 . S
C685 C686 1.442 1_655 S
C685 H712 0.930 . S
C686 C685 1.442 1_455 S
C686 C687 1.381 . S
C686 H713 0.931 . S
C687 C686 1.381 . S
C687 C688 1.321 . S
C688 C687 1.321 . S
C688 C689 1.403 1_455 S
C688 H714 0.934 . S
C689 C684 1.413 . S
C689 C688 1.403 1_655 S
C689 H715 0.930 . S
C690 O704 1.275 . S
C690 O705 1.256 . S
C691 O706 1.259 . S
C691 O707 1.268 . S
C692 Ho681 2.811 . S
C692 C693 1.488 . S
C692 O708 1.215 . S
C692 O709 1.289 . S
C693 C692 1.488 . S
C693 C694 1.348 . S
C693 C698 1.413 . S
C694 C693 1.348 . S
C694 C695 1.442 . S
C694 H716 0.930 . S
C695 C694 1.442 . S
C695 C696 1.381 . S
C695 H717 0.931 . S
C696 C695 1.381 . S
C696 C697 1.321 . S
C697 C696 1.321 . S
C697 C698 1.403 . S
C697 H718 0.934 . S
C698 C693 1.413 . S
C698 C697 1.403 . S
C698 H719 0.930 . S
C699 O710 1.275 . S
C699 O711 1.256 . S
O700 Ho680 2.322 . S
O700 C682 1.259 . S
O701 Ho681 2.346 . S
O701 C682 1.268 . S
O702 Ho680 2.378 . S
O702 C683 1.215 . S
O703 Ho680 2.524 . S
O703 C683 1.289 . S
O704 Ho680 2.381 . S
O704 C690 1.275 . S
O705 Ho680 2.669 . S
O705 Ho681 2.305 . S
O705 C690 1.256 . S
O706 Ho681 2.322 . S
O706 C691 1.259 . S
O707 Ho680 2.346 . S
O707 C691 1.268 . S
O708 Ho681 2.378 . S
O708 C692 1.215 . S
O709 Ho681 2.524 . S
O709 C692 1.289 . S
O710 Ho681 2.381 . S
O710 C699 1.275 . S
O711 Ho680 2.305 . S
O711 Ho681 2.669 . S
O711 C699 1.256 . S
H712 C685 0.930 . S
H713 C686 0.931 . S
H714 C688 0.934 . S
H715 C689 0.930 . S
H716 C694 0.930 . S
H717 C695 0.931 . S
H718 C697 0.934 . S
H719 C698 0.930 . S
Ho720 C723 2.811 . S
Ho720 O740 2.322 . S
Ho720 O742 2.378 . S
Ho720 O743 2.524 . S
Ho720 O744 2.381 . S
Ho720 O745 2.669 . S
Ho720 O747 2.346 . S
Ho720 O751 2.305 . S
Ho721 C732 2.811 . S
Ho721 O741 2.346 . S
Ho721 O745 2.305 . S
Ho721 O746 2.322 . S
Ho721 O748 2.378 . S
Ho721 O749 2.524 . S
Ho721 O750 2.381 . S
Ho721 O751 2.669 . S
C722 O740 1.259 . S
C722 O741 1.268 . S
C723 Ho720 2.811 . S
C723 C724 1.488 . S
C723 O742 1.215 . S
C723 O743 1.289 . S
C724 C723 1.488 . S
C724 C725 1.348 . S
C724 C729 1.413 . S
C725 C724 1.348 . S
C725 C726 1.442 . S
C725 H752 0.930 . S
C726 C725 1.442 . S
C726 C727 1.381 . S
C726 H753 0.931 . S
C727 C726 1.381 . S
C727 C728 1.321 . S
C728 C727 1.321 . S
C728 C729 1.403 . S
C728 H754 0.934 . S
C729 C724 1.413 . S
C729 C728 1.403 . S
C729 H755 0.930 . S
C730 O744 1.275 . S
C730 O745 1.256 . S
C731 O746 1.259 . S
C731 O747 1.268 . S
C732 Ho721 2.811 . S
C732 C733 1.488 . S
C732 O748 1.215 . S
C732 O749 1.289 . S
C733 C732 1.488 . S
C733 C734 1.348 . S
C733 C738 1.413 . S
C734 C733 1.348 . S
C734 C735 1.442 . S
C734 H756 0.930 . S
C735 C734 1.442 . S
C735 C736 1.381 . S
C735 H757 0.931 . S
C736 C735 1.381 . S
C736 C737 1.321 . S
C737 C736 1.321 . S
C737 C738 1.403 . S
C737 H758 0.934 . S
C738 C733 1.413 . S
C738 C737 1.403 . S
C738 H759 0.930 . S
C739 O750 1.275 . S
C739 O751 1.256 . S
O740 Ho720 2.322 . S
O740 C722 1.259 . S
O741 Ho721 2.346 . S
O741 C722 1.268 . S
O742 Ho720 2.378 . S
O742 C723 1.215 . S
O743 Ho720 2.524 . S
O743 C723 1.289 . S
O744 Ho720 2.381 . S
O744 C730 1.275 . S
O745 Ho720 2.669 . S
O745 Ho721 2.305 . S
O745 C730 1.256 . S
O746 Ho721 2.322 . S
O746 C731 1.259 . S
O747 Ho720 2.346 . S
O747 C731 1.268 . S
O748 Ho721 2.378 . S
O748 C732 1.215 . S
O749 Ho721 2.524 . S
O749 C732 1.289 . S
O750 Ho721 2.381 . S
O750 C739 1.275 . S
O751 Ho720 2.305 . S
O751 Ho721 2.669 . S
O751 C739 1.256 . S
H752 C725 0.930 . S
H753 C726 0.931 . S
H754 C728 0.934 . S
H755 C729 0.930 . S
H756 C734 0.930 . S
H757 C735 0.931 . S
H758 C737 0.934 . S
H759 C738 0.930 . S
Ho760 C763 2.811 . S
Ho760 O780 2.322 . S
Ho760 O782 2.378 . S
Ho760 O783 2.524 . S
Ho760 O784 2.381 . S
Ho760 O785 2.669 . S
Ho760 O787 2.346 . S
Ho760 O791 2.305 . S
Ho761 C772 2.811 . S
Ho761 O781 2.346 . S
Ho761 O785 2.305 . S
Ho761 O786 2.322 . S
Ho761 O788 2.378 . S
Ho761 O789 2.524 . S
Ho761 O790 2.381 . S
Ho761 O791 2.669 . S
C762 O780 1.259 . S
C762 O781 1.268 . S
C763 Ho760 2.811 . S
C763 C764 1.488 . S
C763 O782 1.215 . S
C763 O783 1.289 . S
C764 C763 1.488 . S
C764 C765 1.348 . S
C764 C769 1.413 . S
C765 C764 1.348 . S
C765 C766 1.442 1_655 S
C765 H792 0.930 . S
C766 C765 1.442 1_455 S
C766 C767 1.381 . S
C766 H793 0.931 . S
C767 C766 1.381 . S
C767 C768 1.321 . S
C768 C767 1.321 . S
C768 C769 1.403 1_455 S
C768 H794 0.934 . S
C769 C764 1.413 . S
C769 C768 1.403 1_655 S
C769 H795 0.930 . S
C770 O784 1.275 . S
C770 O785 1.256 . S
C771 O786 1.259 . S
C771 O787 1.268 . S
C772 Ho761 2.811 . S
C772 C773 1.488 . S
C772 O788 1.215 . S
C772 O789 1.289 . S
C773 C772 1.488 . S
C773 C774 1.348 . S
C773 C778 1.413 . S
C774 C773 1.348 . S
C774 C775 1.442 . S
C774 H796 0.930 . S
C775 C774 1.442 . S
C775 C776 1.381 . S
C775 H797 0.931 . S
C776 C775 1.381 . S
C776 C777 1.321 . S
C777 C776 1.321 . S
C777 C778 1.403 . S
C777 H798 0.934 . S
C778 C773 1.413 . S
C778 C777 1.403 . S
C778 H799 0.930 . S
C779 O790 1.275 . S
C779 O791 1.256 . S
O780 Ho760 2.322 . S
O780 C762 1.259 . S
O781 Ho761 2.346 . S
O781 C762 1.268 . S
O782 Ho760 2.378 . S
O782 C763 1.215 . S
O783 Ho760 2.524 . S
O783 C763 1.289 . S
O784 Ho760 2.381 . S
O784 C770 1.275 . S
O785 Ho760 2.669 . S
O785 Ho761 2.305 . S
O785 C770 1.256 . S
O786 Ho761 2.322 . S
O786 C771 1.259 . S
O787 Ho760 2.346 . S
O787 C771 1.268 . S
O788 Ho761 2.378 . S
O788 C772 1.215 . S
O789 Ho761 2.524 . S
O789 C772 1.289 . S
O790 Ho761 2.381 . S
O790 C779 1.275 . S
O791 Ho760 2.305 . S
O791 Ho761 2.669 . S
O791 C779 1.256 . S
H792 C765 0.930 . S
H793 C766 0.931 . S
H794 C768 0.934 . S
H795 C769 0.930 . S
H796 C774 0.930 . S
H797 C775 0.931 . S
H798 C777 0.934 . S
H799 C778 0.930 . S
Ho800 C803 2.811 . S
Ho800 O820 2.322 . S
Ho800 O822 2.378 . S
Ho800 O823 2.524 . S
Ho800 O824 2.381 . S
Ho800 O825 2.669 . S
Ho800 O827 2.346 . S
Ho800 O831 2.305 . S
Ho801 C812 2.811 . S
Ho801 O821 2.346 . S
Ho801 O825 2.305 . S
Ho801 O826 2.322 . S
Ho801 O828 2.378 . S
Ho801 O829 2.524 . S
Ho801 O830 2.381 . S
Ho801 O831 2.669 . S
C802 O820 1.259 . S
C802 O821 1.268 . S
C803 Ho800 2.811 . S
C803 C804 1.488 . S
C803 O822 1.215 . S
C803 O823 1.289 . S
C804 C803 1.488 . S
C804 C805 1.348 . S
C804 C809 1.413 . S
C805 C804 1.348 . S
C805 C806 1.442 . S
C805 H832 0.930 . S
C806 C805 1.442 . S
C806 C807 1.381 . S
C806 H833 0.931 . S
C807 C806 1.381 . S
C807 C808 1.321 . S
C808 C807 1.321 . S
C808 C809 1.403 . S
C808 H834 0.934 . S
C809 C804 1.413 . S
C809 C808 1.403 . S
C809 H835 0.930 . S
C810 O824 1.275 . S
C810 O825 1.256 . S
C811 O826 1.259 . S
C811 O827 1.268 . S
C812 Ho801 2.811 . S
C812 C813 1.488 . S
C812 O828 1.215 . S
C812 O829 1.289 . S
C813 C812 1.488 . S
C813 C814 1.348 . S
C813 C818 1.413 . S
C814 C813 1.348 . S
C814 C815 1.442 . S
C814 H836 0.930 . S
C815 C814 1.442 . S
C815 C816 1.381 . S
C815 H837 0.931 . S
C816 C815 1.381 . S
C816 C817 1.321 . S
C817 C816 1.321 . S
C817 C818 1.403 . S
C817 H838 0.934 . S
C818 C813 1.413 . S
C818 C817 1.403 . S
C818 H839 0.930 . S
C819 O830 1.275 . S
C819 O831 1.256 . S
O820 Ho800 2.322 . S
O820 C802 1.259 . S
O821 Ho801 2.346 . S
O821 C802 1.268 . S
O822 Ho800 2.378 . S
O822 C803 1.215 . S
O823 Ho800 2.524 . S
O823 C803 1.289 . S
O824 Ho800 2.381 . S
O824 C810 1.275 . S
O825 Ho800 2.669 . S
O825 Ho801 2.305 . S
O825 C810 1.256 . S
O826 Ho801 2.322 . S
O826 C811 1.259 . S
O827 Ho800 2.346 . S
O827 C811 1.268 . S
O828 Ho801 2.378 . S
O828 C812 1.215 . S
O829 Ho801 2.524 . S
O829 C812 1.289 . S
O830 Ho801 2.381 . S
O830 C819 1.275 . S
O831 Ho800 2.305 . S
O831 Ho801 2.669 . S
O831 C819 1.256 . S
H832 C805 0.930 . S
H833 C806 0.931 . S
H834 C808 0.934 . S
H835 C809 0.930 . S
H836 C814 0.930 . S
H837 C815 0.931 . S
H838 C817 0.934 . S
H839 C818 0.930 . S
Ho840 C843 2.811 . S
Ho840 O860 2.322 . S
Ho840 O862 2.378 . S
Ho840 O863 2.524 . S
Ho840 O864 2.381 . S
Ho840 O865 2.669 . S
Ho840 O867 2.346 . S
Ho840 O871 2.305 . S
Ho841 C852 2.811 . S
Ho841 O861 2.346 . S
Ho841 O865 2.305 . S
Ho841 O866 2.322 . S
Ho841 O868 2.378 . S
Ho841 O869 2.524 . S
Ho841 O870 2.381 . S
Ho841 O871 2.669 . S
C842 O860 1.259 . S
C842 O861 1.268 . S
C843 Ho840 2.811 . S
C843 C844 1.488 . S
C843 O862 1.215 . S
C843 O863 1.289 . S
C844 C843 1.488 . S
C844 C845 1.348 . S
C844 C849 1.413 . S
C845 C844 1.348 . S
C845 C846 1.442 . S
C845 H872 0.930 . S
C846 C845 1.442 . S
C846 C847 1.381 . S
C846 H873 0.931 . S
C847 C846 1.381 . S
C847 C848 1.321 . S
C848 C847 1.321 . S
C848 C849 1.403 . S
C848 H874 0.934 . S
C849 C844 1.413 . S
C849 C848 1.403 . S
C849 H875 0.930 . S
C850 O864 1.275 . S
C850 O865 1.256 . S
C851 O866 1.259 . S
C851 O867 1.268 . S
C852 Ho841 2.811 . S
C852 C853 1.488 . S
C852 O868 1.215 . S
C852 O869 1.289 . S
C853 C852 1.488 . S
C853 C854 1.348 . S
C853 C858 1.413 . S
C854 C853 1.348 . S
C854 C855 1.442 1_455 S
C854 H876 0.930 . S
C855 C854 1.442 1_655 S
C855 C856 1.381 . S
C855 H877 0.931 . S
C856 C855 1.381 . S
C856 C857 1.321 . S
C857 C856 1.321 . S
C857 C858 1.403 1_655 S
C857 H878 0.934 . S
C858 C853 1.413 . S
C858 C857 1.403 1_455 S
C858 H879 0.930 . S
C859 O870 1.275 . S
C859 O871 1.256 . S
O860 Ho840 2.322 . S
O860 C842 1.259 . S
O861 Ho841 2.346 . S
O861 C842 1.268 . S
O862 Ho840 2.378 . S
O862 C843 1.215 . S
O863 Ho840 2.524 . S
O863 C843 1.289 . S
O864 Ho840 2.381 . S
O864 C850 1.275 . S
O865 Ho840 2.669 . S
O865 Ho841 2.305 . S
O865 C850 1.256 . S
O866 Ho841 2.322 . S
O866 C851 1.259 . S
O867 Ho840 2.346 . S
O867 C851 1.268 . S
O868 Ho841 2.378 . S
O868 C852 1.215 . S
O869 Ho841 2.524 . S
O869 C852 1.289 . S
O870 Ho841 2.381 . S
O870 C859 1.275 . S
O871 Ho840 2.305 . S
O871 Ho841 2.669 . S
O871 C859 1.256 . S
H872 C845 0.930 . S
H873 C846 0.931 . S
H874 C848 0.934 . S
H875 C849 0.930 . S
H876 C854 0.930 . S
H877 C855 0.931 . S
H878 C857 0.934 . S
H879 C858 0.930 . S
Ho880 C883 2.811 . S
Ho880 O900 2.322 . S
Ho880 O902 2.378 . S
Ho880 O903 2.524 . S
Ho880 O904 2.381 . S
Ho880 O905 2.669 . S
Ho880 O907 2.346 . S
Ho880 O911 2.305 . S
Ho881 C892 2.811 . S
Ho881 O901 2.346 . S
Ho881 O905 2.305 . S
Ho881 O906 2.322 . S
Ho881 O908 2.378 . S
Ho881 O909 2.524 . S
Ho881 O910 2.381 . S
Ho881 O911 2.669 . S
C882 O900 1.259 . S
C882 O901 1.268 . S
C883 Ho880 2.811 . S
C883 C884 1.488 . S
C883 O902 1.215 . S
C883 O903 1.289 . S
C884 C883 1.488 . S
C884 C885 1.348 . S
C884 C889 1.413 . S
C885 C884 1.348 . S
C885 C886 1.442 . S
C885 H912 0.930 . S
C886 C885 1.442 . S
C886 C887 1.381 . S
C886 H913 0.931 . S
C887 C886 1.381 . S
C887 C888 1.321 . S
C888 C887 1.321 . S
C888 C889 1.403 . S
C888 H914 0.934 . S
C889 C884 1.413 . S
C889 C888 1.403 . S
C889 H915 0.930 . S
C890 O904 1.275 . S
C890 O905 1.256 . S
C891 O906 1.259 . S
C891 O907 1.268 . S
C892 Ho881 2.811 . S
C892 C893 1.488 . S
C892 O908 1.215 . S
C892 O909 1.289 . S
C893 C892 1.488 . S
C893 C894 1.348 . S
C893 C898 1.413 . S
C894 C893 1.348 . S
C894 C895 1.442 . S
C894 H916 0.930 . S
C895 C894 1.442 . S
C895 C896 1.381 . S
C895 H917 0.931 . S
C896 C895 1.381 . S
C896 C897 1.321 . S
C897 C896 1.321 . S
C897 C898 1.403 . S
C897 H918 0.934 . S
C898 C893 1.413 . S
C898 C897 1.403 . S
C898 H919 0.930 . S
C899 O910 1.275 . S
C899 O911 1.256 . S
O900 Ho880 2.322 . S
O900 C882 1.259 . S
O901 Ho881 2.346 . S
O901 C882 1.268 . S
O902 Ho880 2.378 . S
O902 C883 1.215 . S
O903 Ho880 2.524 . S
O903 C883 1.289 . S
O904 Ho880 2.381 . S
O904 C890 1.275 . S
O905 Ho880 2.669 . S
O905 Ho881 2.305 . S
O905 C890 1.256 . S
O906 Ho881 2.322 . S
O906 C891 1.259 . S
O907 Ho880 2.346 . S
O907 C891 1.268 . S
O908 Ho881 2.378 . S
O908 C892 1.215 . S
O909 Ho881 2.524 . S
O909 C892 1.289 . S
O910 Ho881 2.381 . S
O910 C899 1.275 . S
O911 Ho880 2.305 . S
O911 Ho881 2.669 . S
O911 C899 1.256 . S
H912 C885 0.930 . S
H913 C886 0.931 . S
H914 C888 0.934 . S
H915 C889 0.930 . S
H916 C894 0.930 . S
H917 C895 0.931 . S
H918 C897 0.934 . S
H919 C898 0.930 . S
Ho920 C923 2.811 . S
Ho920 O940 2.322 . S
Ho920 O942 2.378 . S
Ho920 O943 2.524 . S
Ho920 O944 2.381 . S
Ho920 O945 2.669 . S
Ho920 O947 2.346 . S
Ho920 O951 2.305 . S
Ho921 C932 2.811 . S
Ho921 O941 2.346 . S
Ho921 O945 2.305 . S
Ho921 O946 2.322 . S
Ho921 O948 2.378 . S
Ho921 O949 2.524 . S
Ho921 O950 2.381 . S
Ho921 O951 2.669 . S
C922 O940 1.259 . S
C922 O941 1.268 . S
C923 Ho920 2.811 . S
C923 C924 1.488 . S
C923 O942 1.215 . S
C923 O943 1.289 . S
C924 C923 1.488 . S
C924 C925 1.348 . S
C924 C929 1.413 . S
C925 C924 1.348 . S
C925 C926 1.442 . S
C925 H952 0.930 . S
C926 C925 1.442 . S
C926 C927 1.381 . S
C926 H953 0.931 . S
C927 C926 1.381 . S
C927 C928 1.321 . S
C928 C927 1.321 . S
C928 C929 1.403 . S
C928 H954 0.934 . S
C929 C924 1.413 . S
C929 C928 1.403 . S
C929 H955 0.930 . S
C930 O944 1.275 . S
C930 O945 1.256 . S
C931 O946 1.259 . S
C931 O947 1.268 . S
C932 Ho921 2.811 . S
C932 C933 1.488 . S
C932 O948 1.215 . S
C932 O949 1.289 . S
C933 C932 1.488 . S
C933 C934 1.348 . S
C933 C938 1.413 . S
C934 C933 1.348 . S
C934 C935 1.442 1_455 S
C934 H956 0.930 . S
C935 C934 1.442 1_655 S
C935 C936 1.381 . S
C935 H957 0.931 . S
C936 C935 1.381 . S
C936 C937 1.321 . S
C937 C936 1.321 . S
C937 C938 1.403 1_655 S
C937 H958 0.934 . S
C938 C933 1.413 . S
C938 C937 1.403 1_455 S
C938 H959 0.930 . S
C939 O950 1.275 . S
C939 O951 1.256 . S
O940 Ho920 2.322 . S
O940 C922 1.259 . S
O941 Ho921 2.346 . S
O941 C922 1.268 . S
O942 Ho920 2.378 . S
O942 C923 1.215 . S
O943 Ho920 2.524 . S
O943 C923 1.289 . S
O944 Ho920 2.381 . S
O944 C930 1.275 . S
O945 Ho920 2.669 . S
O945 Ho921 2.305 . S
O945 C930 1.256 . S
O946 Ho921 2.322 . S
O946 C931 1.259 . S
O947 Ho920 2.346 . S
O947 C931 1.268 . S
O948 Ho921 2.378 . S
O948 C932 1.215 . S
O949 Ho921 2.524 . S
O949 C932 1.289 . S
O950 Ho921 2.381 . S
O950 C939 1.275 . S
O951 Ho920 2.305 . S
O951 Ho921 2.669 . S
O951 C939 1.256 . S
H952 C925 0.930 . S
H953 C926 0.931 . S
H954 C928 0.934 . S
H955 C929 0.930 . S
H956 C934 0.930 . S
H957 C935 0.931 . S
H958 C937 0.934 . S
H959 C938 0.930 . S
Ho960 C963 2.811 1_545 S
Ho960 O980 2.322 1_545 S
Ho960 O982 2.378 . S
Ho960 O983 2.524 1_545 S
Ho960 O984 2.381 . S
Ho960 O985 2.669 1_545 S
Ho960 O987 2.346 . S
Ho960 O991 2.305 1_545 S
Ho961 C972 2.811 . S
Ho961 O981 2.346 . S
Ho961 O985 2.305 . S
Ho961 O986 2.322 1_565 S
Ho961 O988 2.378 . S
Ho961 O989 2.524 . S
Ho961 O990 2.381 . S
Ho961 O991 2.669 . S
C962 O980 1.259 . S
C962 O981 1.268 . S
C963 Ho960 2.811 1_565 S
C963 C964 1.488 . S
C963 O982 1.216 1_565 S
C963 O983 1.289 . S
C964 C963 1.488 . S
C964 C965 1.348 . S
C964 C969 1.413 . S
C965 C964 1.348 . S
C965 C966 1.442 . S
C965 H992 0.930 . S
C966 C965 1.442 . S
C966 C967 1.381 . S
C966 H993 0.931 . S
C967 C966 1.381 . S
C967 C968 1.321 . S
C968 C967 1.321 . S
C968 C969 1.403 . S
C968 H994 0.934 . S
C969 C964 1.413 . S
C969 C968 1.403 . S
C969 H995 0.931 . S
C970 O984 1.275 1_565 S
C970 O985 1.256 . S
C971 O986 1.259 . S
C971 O987 1.268 . S
C972 Ho961 2.811 . S
C972 C973 1.488 . S
C972 O988 1.215 . S
C972 O989 1.289 . S
C973 C972 1.488 . S
C973 C974 1.348 1_565 S
C973 C978 1.413 . S
C974 C973 1.348 1_545 S
C974 C975 1.442 . S
C974 H996 0.930 . S
C975 C974 1.442 . S
C975 C976 1.381 . S
C975 H997 0.931 . S
C976 C975 1.381 . S
C976 C977 1.321 1_545 S
C977 C976 1.321 1_565 S
C977 C978 1.403 . S
C977 H998 0.934 . S
C978 C973 1.413 . S
C978 C977 1.403 . S
C978 H999 0.930 . S
C979 O990 1.275 . S
C979 O991 1.256 . S
O980 Ho960 2.322 1_565 S
O980 C962 1.259 . S
O981 Ho961 2.346 . S
O981 C962 1.268 . S
O982 Ho960 2.378 . S
O982 C963 1.216 1_545 S
O983 Ho960 2.524 1_565 S
O983 C963 1.289 . S
O984 Ho960 2.381 . S
O984 C970 1.275 1_545 S
O985 Ho960 2.669 1_565 S
O985 Ho961 2.305 . S
O985 C970 1.256 . S
O986 Ho961 2.322 1_545 S
O986 C971 1.259 . S
O987 Ho960 2.346 . S
O987 C971 1.268 . S
O988 Ho961 2.378 . S
O988 C972 1.215 . S
O989 Ho961 2.524 . S
O989 C972 1.289 . S
O990 Ho961 2.381 . S
O990 C979 1.275 . S
O991 Ho960 2.305 1_565 S
O991 Ho961 2.669 . S
O991 C979 1.256 . S
H992 C965 0.930 . S
H993 C966 0.931 . S
H994 C968 0.934 . S
H995 C969 0.931 . S
H996 C974 0.930 . S
H997 C975 0.931 . S
H998 C977 0.934 . S
H999 C978 0.930 . S
Ho1000 C1003 2.811 . S
Ho1000 O1020 2.322 . S
Ho1000 O1022 2.378 . S
Ho1000 O1023 2.524 . S
Ho1000 O1024 2.381 . S
Ho1000 O1025 2.669 . S
Ho1000 O1027 2.346 . S
Ho1000 O1031 2.305 . S
Ho1001 C1012 2.811 . S
Ho1001 O1021 2.346 . S
Ho1001 O1025 2.305 . S
Ho1001 O1026 2.322 . S
Ho1001 O1028 2.378 . S
Ho1001 O1029 2.524 . S
Ho1001 O1030 2.381 . S
Ho1001 O1031 2.669 . S
C1002 O1020 1.259 . S
C1002 O1021 1.268 . S
C1003 Ho1000 2.811 . S
C1003 C1004 1.488 . S
C1003 O1022 1.215 . S
C1003 O1023 1.289 . S
C1004 C1003 1.488 . S
C1004 C1005 1.348 . S
C1004 C1009 1.413 . S
C1005 C1004 1.348 . S
C1005 C1006 1.442 1_655 S
C1005 H1032 0.930 . S
C1006 C1005 1.442 1_455 S
C1006 C1007 1.381 . S
C1006 H1033 0.931 . S
C1007 C1006 1.381 . S
C1007 C1008 1.321 . S
C1008 C1007 1.321 . S
C1008 C1009 1.403 1_455 S
C1008 H1034 0.934 . S
C1009 C1004 1.413 . S
C1009 C1008 1.403 1_655 S
C1009 H1035 0.930 . S
C1010 O1024 1.275 . S
C1010 O1025 1.256 . S
C1011 O1026 1.259 . S
C1011 O1027 1.268 . S
C1012 Ho1001 2.811 . S
C1012 C1013 1.488 . S
C1012 O1028 1.215 . S
C1012 O1029 1.289 . S
C1013 C1012 1.488 . S
C1013 C1014 1.348 . S
C1013 C1018 1.413 . S
C1014 C1013 1.348 . S
C1014 C1015 1.442 . S
C1014 H1036 0.930 . S
C1015 C1014 1.442 . S
C1015 C1016 1.381 . S
C1015 H1037 0.931 . S
C1016 C1015 1.381 . S
C1016 C1017 1.321 . S
C1017 C1016 1.321 . S
C1017 C1018 1.403 . S
C1017 H1038 0.934 . S
C1018 C1013 1.413 . S
C1018 C1017 1.403 . S
C1018 H1039 0.930 . S
C1019 O1030 1.275 . S
C1019 O1031 1.256 . S
O1020 Ho1000 2.322 . S
O1020 C1002 1.259 . S
O1021 Ho1001 2.346 . S
O1021 C1002 1.268 . S
O1022 Ho1000 2.378 . S
O1022 C1003 1.215 . S
O1023 Ho1000 2.524 . S
O1023 C1003 1.289 . S
O1024 Ho1000 2.381 . S
O1024 C1010 1.275 . S
O1025 Ho1000 2.669 . S
O1025 Ho1001 2.305 . S
O1025 C1010 1.256 . S
O1026 Ho1001 2.322 . S
O1026 C1011 1.259 . S
O1027 Ho1000 2.346 . S
O1027 C1011 1.268 . S
O1028 Ho1001 2.378 . S
O1028 C1012 1.215 . S
O1029 Ho1001 2.524 . S
O1029 C1012 1.289 . S
O1030 Ho1001 2.381 . S
O1030 C1019 1.275 . S
O1031 Ho1000 2.305 . S
O1031 Ho1001 2.669 . S
O1031 C1019 1.256 . S
H1032 C1005 0.930 . S
H1033 C1006 0.931 . S
H1034 C1008 0.934 . S
H1035 C1009 0.930 . S
H1036 C1014 0.930 . S
H1037 C1015 0.931 . S
H1038 C1017 0.934 . S
H1039 C1018 0.930 . S
Ho1040 C1043 2.811 . S
Ho1040 O1060 2.322 . S
Ho1040 O1062 2.378 . S
Ho1040 O1063 2.524 . S
Ho1040 O1064 2.381 . S
Ho1040 O1065 2.669 . S
Ho1040 O1067 2.346 . S
Ho1040 O1071 2.305 . S
Ho1041 C1052 2.811 . S
Ho1041 O1061 2.346 . S
Ho1041 O1065 2.305 . S
Ho1041 O1066 2.322 . S
Ho1041 O1068 2.378 . S
Ho1041 O1069 2.524 . S
Ho1041 O1070 2.381 . S
Ho1041 O1071 2.669 . S
C1042 O1060 1.259 . S
C1042 O1061 1.268 . S
C1043 Ho1040 2.811 . S
C1043 C1044 1.488 . S
C1043 O1062 1.215 . S
C1043 O1063 1.289 . S
C1044 C1043 1.488 . S
C1044 C1045 1.348 . S
C1044 C1049 1.413 . S
C1045 C1044 1.348 . S
C1045 C1046 1.442 . S
C1045 H1072 0.930 . S
C1046 C1045 1.442 . S
C1046 C1047 1.381 . S
C1046 H1073 0.931 . S
C1047 C1046 1.381 . S
C1047 C1048 1.321 . S
C1048 C1047 1.321 . S
C1048 C1049 1.403 . S
C1048 H1074 0.934 . S
C1049 C1044 1.413 . S
C1049 C1048 1.403 . S
C1049 H1075 0.930 . S
C1050 O1064 1.275 . S
C1050 O1065 1.256 . S
C1051 O1066 1.259 . S
C1051 O1067 1.268 . S
C1052 Ho1041 2.811 . S
C1052 C1053 1.488 . S
C1052 O1068 1.215 . S
C1052 O1069 1.289 . S
C1053 C1052 1.488 . S
C1053 C1054 1.348 . S
C1053 C1058 1.413 . S
C1054 C1053 1.348 . S
C1054 C1055 1.442 . S
C1054 H1076 0.930 . S
C1055 C1054 1.442 . S
C1055 C1056 1.381 . S
C1055 H1077 0.931 . S
C1056 C1055 1.381 . S
C1056 C1057 1.321 . S
C1057 C1056 1.321 . S
C1057 C1058 1.403 . S
C1057 H1078 0.934 . S
C1058 C1053 1.413 . S
C1058 C1057 1.403 . S
C1058 H1079 0.930 . S
C1059 O1070 1.275 . S
C1059 O1071 1.256 . S
O1060 Ho1040 2.322 . S
O1060 C1042 1.259 . S
O1061 Ho1041 2.346 . S
O1061 C1042 1.268 . S
O1062 Ho1040 2.378 . S
O1062 C1043 1.215 . S
O1063 Ho1040 2.524 . S
O1063 C1043 1.289 . S
O1064 Ho1040 2.381 . S
O1064 C1050 1.275 . S
O1065 Ho1040 2.669 . S
O1065 Ho1041 2.305 . S
O1065 C1050 1.256 . S
O1066 Ho1041 2.322 . S
O1066 C1051 1.259 . S
O1067 Ho1040 2.346 . S
O1067 C1051 1.268 . S
O1068 Ho1041 2.378 . S
O1068 C1052 1.215 . S
O1069 Ho1041 2.524 . S
O1069 C1052 1.289 . S
O1070 Ho1041 2.381 . S
O1070 C1059 1.275 . S
O1071 Ho1040 2.305 . S
O1071 Ho1041 2.669 . S
O1071 C1059 1.256 . S
H1072 C1045 0.930 . S
H1073 C1046 0.931 . S
H1074 C1048 0.934 . S
H1075 C1049 0.930 . S
H1076 C1054 0.930 . S
H1077 C1055 0.931 . S
H1078 C1057 0.934 . S
H1079 C1058 0.930 . S
Ho1080 C1083 2.811 1_545 S
Ho1080 O1100 2.322 1_545 S
Ho1080 O1102 2.378 . S
Ho1080 O1103 2.524 1_545 S
Ho1080 O1104 2.381 . S
Ho1080 O1105 2.669 1_545 S
Ho1080 O1107 2.346 . S
Ho1080 O1111 2.305 1_545 S
Ho1081 C1092 2.811 . S
Ho1081 O1101 2.346 . S
Ho1081 O1105 2.305 . S
Ho1081 O1106 2.322 1_565 S
Ho1081 O1108 2.378 . S
Ho1081 O1109 2.524 . S
Ho1081 O1110 2.381 . S
Ho1081 O1111 2.669 . S
C1082 O1100 1.259 . S
C1082 O1101 1.268 . S
C1083 Ho1080 2.811 1_565 S
C1083 C1084 1.488 . S
C1083 O1102 1.216 1_565 S
C1083 O1103 1.289 . S
C1084 C1083 1.488 . S
C1084 C1085 1.348 . S
C1084 C1089 1.413 . S
C1085 C1084 1.348 . S
C1085 C1086 1.442 1_655 S
C1085 H1112 0.930 . S
C1086 C1085 1.442 1_455 S
C1086 C1087 1.381 . S
C1086 H1113 0.931 . S
C1087 C1086 1.381 . S
C1087 C1088 1.321 . S
C1088 C1087 1.321 . S
C1088 C1089 1.403 1_455 S
C1088 H1114 0.934 . S
C1089 C1084 1.413 . S
C1089 C1088 1.403 1_655 S
C1089 H1115 0.931 . S
C1090 O1104 1.275 1_565 S
C1090 O1105 1.256 . S
C1091 O1106 1.259 . S
C1091 O1107 1.268 . S
C1092 Ho1081 2.811 . S
C1092 C1093 1.488 . S
C1092 O1108 1.215 . S
C1092 O1109 1.289 . S
C1093 C1092 1.488 . S
C1093 C1094 1.348 1_565 S
C1093 C1098 1.413 . S
C1094 C1093 1.348 1_545 S
C1094 C1095 1.442 . S
C1094 H1116 0.930 . S
C1095 C1094 1.442 . S
C1095 C1096 1.381 . S
C1095 H1117 0.931 . S
C1096 C1095 1.381 . S
C1096 C1097 1.321 1_545 S
C1097 C1096 1.321 1_565 S
C1097 C1098 1.403 . S
C1097 H1118 0.934 . S
C1098 C1093 1.413 . S
C1098 C1097 1.403 . S
C1098 H1119 0.930 . S
C1099 O1110 1.275 . S
C1099 O1111 1.256 . S
O1100 Ho1080 2.322 1_565 S
O1100 C1082 1.259 . S
O1101 Ho1081 2.346 . S
O1101 C1082 1.268 . S
O1102 Ho1080 2.378 . S
O1102 C1083 1.216 1_545 S
O1103 Ho1080 2.524 1_565 S
O1103 C1083 1.289 . S
O1104 Ho1080 2.381 . S
O1104 C1090 1.275 1_545 S
O1105 Ho1080 2.669 1_565 S
O1105 Ho1081 2.305 . S
O1105 C1090 1.256 . S
O1106 Ho1081 2.322 1_545 S
O1106 C1091 1.259 . S
O1107 Ho1080 2.346 . S
O1107 C1091 1.268 . S
O1108 Ho1081 2.378 . S
O1108 C1092 1.215 . S
O1109 Ho1081 2.524 . S
O1109 C1092 1.289 . S
O1110 Ho1081 2.381 . S
O1110 C1099 1.275 . S
O1111 Ho1080 2.305 1_565 S
O1111 Ho1081 2.669 . S
O1111 C1099 1.256 . S
H1112 C1085 0.930 . S
H1113 C1086 0.931 . S
H1114 C1088 0.934 . S
H1115 C1089 0.931 . S
H1116 C1094 0.930 . S
H1117 C1095 0.931 . S
H1118 C1097 0.934 . S
H1119 C1098 0.930 . S
Ho1120 C1123 2.811 . S
Ho1120 O1140 2.322 1_545 S
Ho1120 O1142 2.378 . S
Ho1120 O1143 2.524 . S
Ho1120 O1144 2.381 . S
Ho1120 O1145 2.669 . S
Ho1120 O1147 2.346 . S
Ho1120 O1151 2.305 . S
Ho1121 C1132 2.811 1_565 S
Ho1121 O1141 2.346 . S
Ho1121 O1145 2.305 1_565 S
Ho1121 O1146 2.322 1_565 S
Ho1121 O1148 2.378 . S
Ho1121 O1149 2.524 1_565 S
Ho1121 O1150 2.381 . S
Ho1121 O1151 2.669 1_565 S
C1122 O1140 1.259 . S
C1122 O1141 1.268 . S
C1123 Ho1120 2.811 . S
C1123 C1124 1.488 . S
C1123 O1142 1.215 . S
C1123 O1143 1.289 . S
C1124 C1123 1.488 . S
C1124 C1125 1.348 1_545 S
C1124 C1129 1.413 . S
C1125 C1124 1.348 1_565 S
C1125 C1126 1.442 . S
C1125 H1152 0.930 . S
C1126 C1125 1.442 . S
C1126 C1127 1.381 . S
C1126 H1153 0.931 . S
C1127 C1126 1.381 . S
C1127 C1128 1.321 1_565 S
C1128 C1127 1.321 1_545 S
C1128 C1129 1.403 . S
C1128 H1154 0.934 . S
C1129 C1124 1.413 . S
C1129 C1128 1.403 . S
C1129 H1155 0.930 . S
C1130 O1144 1.275 . S
C1130 O1145 1.256 . S
C1131 O1146 1.259 . S
C1131 O1147 1.268 . S
C1132 Ho1121 2.811 1_545 S
C1132 C1133 1.488 . S
C1132 O1148 1.216 1_545 S
C1132 O1149 1.289 . S
C1133 C1132 1.488 . S
C1133 C1134 1.348 . S
C1133 C1138 1.413 . S
C1134 C1133 1.348 . S
C1134 C1135 1.442 . S
C1134 H1156 0.930 . S
C1135 C1134 1.442 . S
C1135 C1136 1.381 . S
C1135 H1157 0.931 . S
C1136 C1135 1.381 . S
C1136 C1137 1.321 . S
C1137 C1136 1.321 . S
C1137 C1138 1.403 . S
C1137 H1158 0.934 . S
C1138 C1133 1.413 . S
C1138 C1137 1.403 . S
C1138 H1159 0.931 . S
C1139 O1150 1.275 1_545 S
C1139 O1151 1.256 . S
O1140 Ho1120 2.322 1_565 S
O1140 C1122 1.259 . S
O1141 Ho1121 2.346 . S
O1141 C1122 1.268 . S
O1142 Ho1120 2.378 . S
O1142 C1123 1.215 . S
O1143 Ho1120 2.524 . S
O1143 C1123 1.289 . S
O1144 Ho1120 2.381 . S
O1144 C1130 1.275 . S
O1145 Ho1120 2.669 . S
O1145 Ho1121 2.305 1_545 S
O1145 C1130 1.256 . S
O1146 Ho1121 2.322 1_545 S
O1146 C1131 1.259 . S
O1147 Ho1120 2.346 . S
O1147 C1131 1.268 . S
O1148 Ho1121 2.378 . S
O1148 C1132 1.216 1_565 S
O1149 Ho1121 2.524 1_545 S
O1149 C1132 1.289 . S
O1150 Ho1121 2.381 . S
O1150 C1139 1.275 1_565 S
O1151 Ho1120 2.305 . S
O1151 Ho1121 2.669 1_545 S
O1151 C1139 1.256 . S
H1152 C1125 0.930 . S
H1153 C1126 0.931 . S
H1154 C1128 0.934 . S
H1155 C1129 0.930 . S
H1156 C1134 0.930 . S
H1157 C1135 0.931 . S
H1158 C1137 0.934 . S
H1159 C1138 0.931 . S
Ho1160 C1163 2.811 . S
Ho1160 O1180 2.322 . S
Ho1160 O1182 2.378 . S
Ho1160 O1183 2.524 . S
Ho1160 O1184 2.381 . S
Ho1160 O1185 2.669 . S
Ho1160 O1187 2.346 . S
Ho1160 O1191 2.305 . S
Ho1161 C1172 2.811 . S
Ho1161 O1181 2.346 . S
Ho1161 O1185 2.305 . S
Ho1161 O1186 2.322 . S
Ho1161 O1188 2.378 . S
Ho1161 O1189 2.524 . S
Ho1161 O1190 2.381 . S
Ho1161 O1191 2.669 . S
C1162 O1180 1.259 . S
C1162 O1181 1.268 . S
C1163 Ho1160 2.811 . S
C1163 C1164 1.488 . S
C1163 O1182 1.215 . S
C1163 O1183 1.289 . S
C1164 C1163 1.488 . S
C1164 C1165 1.348 . S
C1164 C1169 1.413 . S
C1165 C1164 1.348 . S
C1165 C1166 1.442 . S
C1165 H1192 0.930 . S
C1166 C1165 1.442 . S
C1166 C1167 1.381 . S
C1166 H1193 0.931 . S
C1167 C1166 1.381 . S
C1167 C1168 1.321 . S
C1168 C1167 1.321 . S
C1168 C1169 1.403 . S
C1168 H1194 0.934 . S
C1169 C1164 1.413 . S
C1169 C1168 1.403 . S
C1169 H1195 0.930 . S
C1170 O1184 1.275 . S
C1170 O1185 1.256 . S
C1171 O1186 1.259 . S
C1171 O1187 1.268 . S
C1172 Ho1161 2.811 . S
C1172 C1173 1.488 . S
C1172 O1188 1.215 . S
C1172 O1189 1.289 . S
C1173 C1172 1.488 . S
C1173 C1174 1.348 . S
C1173 C1178 1.413 . S
C1174 C1173 1.348 . S
C1174 C1175 1.442 1_455 S
C1174 H1196 0.930 . S
C1175 C1174 1.442 1_655 S
C1175 C1176 1.381 . S
C1175 H1197 0.931 . S
C1176 C1175 1.381 . S
C1176 C1177 1.321 . S
C1177 C1176 1.321 . S
C1177 C1178 1.403 1_655 S
C1177 H1198 0.934 . S
C1178 C1173 1.413 . S
C1178 C1177 1.403 1_455 S
C1178 H1199 0.930 . S
C1179 O1190 1.275 . S
C1179 O1191 1.256 . S
O1180 Ho1160 2.322 . S
O1180 C1162 1.259 . S
O1181 Ho1161 2.346 . S
O1181 C1162 1.268 . S
O1182 Ho1160 2.378 . S
O1182 C1163 1.215 . S
O1183 Ho1160 2.524 . S
O1183 C1163 1.289 . S
O1184 Ho1160 2.381 . S
O1184 C1170 1.275 . S
O1185 Ho1160 2.669 . S
O1185 Ho1161 2.305 . S
O1185 C1170 1.256 . S
O1186 Ho1161 2.322 . S
O1186 C1171 1.259 . S
O1187 Ho1160 2.346 . S
O1187 C1171 1.268 . S
O1188 Ho1161 2.378 . S
O1188 C1172 1.215 . S
O1189 Ho1161 2.524 . S
O1189 C1172 1.289 . S
O1190 Ho1161 2.381 . S
O1190 C1179 1.275 . S
O1191 Ho1160 2.305 . S
O1191 Ho1161 2.669 . S
O1191 C1179 1.256 . S
H1192 C1165 0.930 . S
H1193 C1166 0.931 . S
H1194 C1168 0.934 . S
H1195 C1169 0.930 . S
H1196 C1174 0.930 . S
H1197 C1175 0.931 . S
H1198 C1177 0.934 . S
H1199 C1178 0.930 . S
Ho1200 C1203 2.811 . S
Ho1200 O1220 2.322 . S
Ho1200 O1222 2.378 . S
Ho1200 O1223 2.524 . S
Ho1200 O1224 2.381 . S
Ho1200 O1225 2.669 . S
Ho1200 O1227 2.346 . S
Ho1200 O1231 2.305 . S
Ho1201 C1212 2.811 . S
Ho1201 O1221 2.346 . S
Ho1201 O1225 2.305 . S
Ho1201 O1226 2.322 . S
Ho1201 O1228 2.378 . S
Ho1201 O1229 2.524 . S
Ho1201 O1230 2.381 . S
Ho1201 O1231 2.669 . S
C1202 O1220 1.259 . S
C1202 O1221 1.268 . S
C1203 Ho1200 2.811 . S
C1203 C1204 1.488 . S
C1203 O1222 1.215 . S
C1203 O1223 1.289 . S
C1204 C1203 1.488 . S
C1204 C1205 1.348 . S
C1204 C1209 1.413 . S
C1205 C1204 1.348 . S
C1205 C1206 1.442 . S
C1205 H1232 0.930 . S
C1206 C1205 1.442 . S
C1206 C1207 1.381 . S
C1206 H1233 0.931 . S
C1207 C1206 1.381 . S
C1207 C1208 1.321 . S
C1208 C1207 1.321 . S
C1208 C1209 1.403 . S
C1208 H1234 0.934 . S
C1209 C1204 1.413 . S
C1209 C1208 1.403 . S
C1209 H1235 0.930 . S
C1210 O1224 1.275 . S
C1210 O1225 1.256 . S
C1211 O1226 1.259 . S
C1211 O1227 1.268 . S
C1212 Ho1201 2.811 . S
C1212 C1213 1.488 . S
C1212 O1228 1.215 . S
C1212 O1229 1.289 . S
C1213 C1212 1.488 . S
C1213 C1214 1.348 . S
C1213 C1218 1.413 . S
C1214 C1213 1.348 . S
C1214 C1215 1.442 . S
C1214 H1236 0.930 . S
C1215 C1214 1.442 . S
C1215 C1216 1.381 . S
C1215 H1237 0.931 . S
C1216 C1215 1.381 . S
C1216 C1217 1.321 . S
C1217 C1216 1.321 . S
C1217 C1218 1.403 . S
C1217 H1238 0.934 . S
C1218 C1213 1.413 . S
C1218 C1217 1.403 . S
C1218 H1239 0.930 . S
C1219 O1230 1.275 . S
C1219 O1231 1.256 . S
O1220 Ho1200 2.322 . S
O1220 C1202 1.259 . S
O1221 Ho1201 2.346 . S
O1221 C1202 1.268 . S
O1222 Ho1200 2.378 . S
O1222 C1203 1.215 . S
O1223 Ho1200 2.524 . S
O1223 C1203 1.289 . S
O1224 Ho1200 2.381 . S
O1224 C1210 1.275 . S
O1225 Ho1200 2.669 . S
O1225 Ho1201 2.305 . S
O1225 C1210 1.256 . S
O1226 Ho1201 2.322 . S
O1226 C1211 1.259 . S
O1227 Ho1200 2.346 . S
O1227 C1211 1.268 . S
O1228 Ho1201 2.378 . S
O1228 C1212 1.215 . S
O1229 Ho1201 2.524 . S
O1229 C1212 1.289 . S
O1230 Ho1201 2.381 . S
O1230 C1219 1.275 . S
O1231 Ho1200 2.305 . S
O1231 Ho1201 2.669 . S
O1231 C1219 1.256 . S
H1232 C1205 0.930 . S
H1233 C1206 0.931 . S
H1234 C1208 0.934 . S
H1235 C1209 0.930 . S
H1236 C1214 0.930 . S
H1237 C1215 0.931 . S
H1238 C1217 0.934 . S
H1239 C1218 0.930 . S
Ho1240 C1243 2.811 . S
Ho1240 O1260 2.322 1_545 S
Ho1240 O1262 2.378 . S
Ho1240 O1263 2.524 . S
Ho1240 O1264 2.381 . S
Ho1240 O1265 2.669 . S
Ho1240 O1267 2.346 . S
Ho1240 O1271 2.305 . S
Ho1241 C1252 2.811 1_565 S
Ho1241 O1261 2.346 . S
Ho1241 O1265 2.305 1_565 S
Ho1241 O1266 2.322 1_565 S
Ho1241 O1268 2.378 . S
Ho1241 O1269 2.524 1_565 S
Ho1241 O1270 2.381 . S
Ho1241 O1271 2.669 1_565 S
C1242 O1260 1.259 . S
C1242 O1261 1.268 . S
C1243 Ho1240 2.811 . S
C1243 C1244 1.488 . S
C1243 O1262 1.215 . S
C1243 O1263 1.289 . S
C1244 C1243 1.488 . S
C1244 C1245 1.348 1_545 S
C1244 C1249 1.413 . S
C1245 C1244 1.348 1_565 S
C1245 C1246 1.442 . S
C1245 H1272 0.930 . S
C1246 C1245 1.442 . S
C1246 C1247 1.381 . S
C1246 H1273 0.931 . S
C1247 C1246 1.381 . S
C1247 C1248 1.321 1_565 S
C1248 C1247 1.321 1_545 S
C1248 C1249 1.403 . S
C1248 H1274 0.934 . S
C1249 C1244 1.413 . S
C1249 C1248 1.403 . S
C1249 H1275 0.930 . S
C1250 O1264 1.275 . S
C1250 O1265 1.256 . S
C1251 O1266 1.259 . S
C1251 O1267 1.268 . S
C1252 Ho1241 2.811 1_545 S
C1252 C1253 1.488 . S
C1252 O1268 1.216 1_545 S
C1252 O1269 1.289 . S
C1253 C1252 1.488 . S
C1253 C1254 1.348 . S
C1253 C1258 1.413 . S
C1254 C1253 1.348 . S
C1254 C1255 1.442 1_455 S
C1254 H1276 0.930 . S
C1255 C1254 1.442 1_655 S
C1255 C1256 1.381 . S
C1255 H1277 0.931 . S
C1256 C1255 1.381 . S
C1256 C1257 1.321 . S
C1257 C1256 1.321 . S
C1257 C1258 1.403 1_655 S
C1257 H1278 0.934 . S
C1258 C1253 1.413 . S
C1258 C1257 1.403 1_455 S
C1258 H1279 0.931 . S
C1259 O1270 1.275 1_545 S
C1259 O1271 1.256 . S
O1260 Ho1240 2.322 1_565 S
O1260 C1242 1.259 . S
O1261 Ho1241 2.346 . S
O1261 C1242 1.268 . S
O1262 Ho1240 2.378 . S
O1262 C1243 1.215 . S
O1263 Ho1240 2.524 . S
O1263 C1243 1.289 . S
O1264 Ho1240 2.381 . S
O1264 C1250 1.275 . S
O1265 Ho1240 2.669 . S
O1265 Ho1241 2.305 1_545 S
O1265 C1250 1.256 . S
O1266 Ho1241 2.322 1_545 S
O1266 C1251 1.259 . S
O1267 Ho1240 2.346 . S
O1267 C1251 1.268 . S
O1268 Ho1241 2.378 . S
O1268 C1252 1.216 1_565 S
O1269 Ho1241 2.524 1_545 S
O1269 C1252 1.289 . S
O1270 Ho1241 2.381 . S
O1270 C1259 1.275 1_565 S
O1271 Ho1240 2.305 . S
O1271 Ho1241 2.669 1_545 S
O1271 C1259 1.256 . S
H1272 C1245 0.930 . S
H1273 C1246 0.931 . S
H1274 C1248 0.934 . S
H1275 C1249 0.930 . S
H1276 C1254 0.930 . S
H1277 C1255 0.931 . S
H1278 C1257 0.934 . S
H1279 C1258 0.931 . S
H1280 C1288 0.950 . S
H1281 C1293 0.950 . S
H1282 C1290 0.950 . S
H1283 C1292 0.950 . S
H1284 C1294 0.950 . S
H1285 C1296 0.950 . S
H1286 C1298 0.950 . S
H1287 C1299 0.950 . S
C1288 H1280 0.950 . S
C1288 C1289 1.386 . S
C1288 C1290 1.391 . S
C1289 C1288 1.386 . S
C1289 C1293 1.393 . S
C1290 H1282 0.950 . S
C1290 C1288 1.391 . S
C1290 C1291 1.400 . S
C1291 C1290 1.400 . S
C1291 C1292 1.398 . S
C1291 C1297 1.491 . S
C1292 H1283 0.950 . S
C1292 C1291 1.398 . S
C1292 C1293 1.391 . S
C1293 H1281 0.950 . S
C1293 C1289 1.393 . S
C1293 C1292 1.391 . S
C1294 H1284 0.950 . S
C1294 C1295 1.386 . S
C1294 C1296 1.391 . S
C1295 C1294 1.386 . S
C1295 C1299 1.393 . S
C1296 H1285 0.950 . S
C1296 C1294 1.391 . S
C1296 C1297 1.400 . S
C1297 C1291 1.491 . S
C1297 C1296 1.400 . S
C1297 C1298 1.398 . S
C1298 H1286 0.950 . S
C1298 C1297 1.398 . S
C1298 C1299 1.391 . S
C1299 H1287 0.950 . S
C1299 C1295 1.393 . S
C1299 C1298 1.391 . S
H1300 C1308 0.950 . S
H1301 C1313 0.950 . S
H1302 C1310 0.950 . S
H1303 C1312 0.950 . S
H1304 C1314 0.950 . S
H1305 C1316 0.950 . S
H1306 C1318 0.950 . S
H1307 C1319 0.950 . S
C1308 H1300 0.950 . S
C1308 C1309 1.386 . S
C1308 C1310 1.391 . S
C1309 C1308 1.386 . S
C1309 C1313 1.393 . S
C1310 H1302 0.950 . S
C1310 C1308 1.391 . S
C1310 C1311 1.400 . S
C1311 C1310 1.400 . S
C1311 C1312 1.398 . S
C1311 C1317 1.491 . S
C1312 H1303 0.950 . S
C1312 C1311 1.398 . S
C1312 C1313 1.391 . S
C1313 H1301 0.950 . S
C1313 C1309 1.393 . S
C1313 C1312 1.391 . S
C1314 H1304 0.950 . S
C1314 C1315 1.386 . S
C1314 C1316 1.391 . S
C1315 C1314 1.386 . S
C1315 C1319 1.393 . S
C1316 H1305 0.950 . S
C1316 C1314 1.391 . S
C1316 C1317 1.400 . S
C1317 C1311 1.491 . S
C1317 C1316 1.400 . S
C1317 C1318 1.398 . S
C1318 H1306 0.950 . S
C1318 C1317 1.398 . S
C1318 C1319 1.391 . S
C1319 H1307 0.950 . S
C1319 C1315 1.393 . S
C1319 C1318 1.391 . S
H1320 C1328 0.950 . S
H1321 C1333 0.950 . S
H1322 C1330 0.950 . S
H1323 C1332 0.950 . S
H1324 C1334 0.950 . S
H1325 C1336 0.950 . S
H1326 C1338 0.950 . S
H1327 C1339 0.946 1_455 S
C1328 H1320 0.950 . S
C1328 C1329 1.386 . S
C1328 C1330 1.391 . S
C1329 C1328 1.386 . S
C1329 C1333 1.393 . S
C1330 H1322 0.950 . S
C1330 C1328 1.391 . S
C1330 C1331 1.400 . S
C1331 C1330 1.400 . S
C1331 C1332 1.398 . S
C1331 C1337 1.491 . S
C1332 H1323 0.950 . S
C1332 C1331 1.398 . S
C1332 C1333 1.391 . S
C1333 H1321 0.950 . S
C1333 C1329 1.393 . S
C1333 C1332 1.391 . S
C1334 H1324 0.950 . S
C1334 C1335 1.386 . S
C1334 C1336 1.391 . S
C1335 C1334 1.386 . S
C1335 C1339 1.393 . S
C1336 H1325 0.950 . S
C1336 C1334 1.391 . S
C1336 C1337 1.400 . S
C1337 C1331 1.491 . S
C1337 C1336 1.400 . S
C1337 C1338 1.398 . S
C1338 H1326 0.950 . S
C1338 C1337 1.398 . S
C1338 C1339 1.391 . S
C1339 H1327 0.946 1_655 S
C1339 C1335 1.393 . S
C1339 C1338 1.391 . S
H1340 C1348 0.950 . S
H1341 C1353 0.950 . S
H1342 C1350 0.950 . S
H1343 C1352 0.950 . S
H1344 C1354 0.950 . S
H1345 C1356 0.950 . S
H1346 C1358 0.950 . S
H1347 C1359 0.950 . S
C1348 H1340 0.950 . S
C1348 C1349 1.386 . S
C1348 C1350 1.391 . S
C1349 C1348 1.386 . S
C1349 C1353 1.393 . S
C1350 H1342 0.950 . S
C1350 C1348 1.391 . S
C1350 C1351 1.400 . S
C1351 C1350 1.400 . S
C1351 C1352 1.398 . S
C1351 C1357 1.491 . S
C1352 H1343 0.950 . S
C1352 C1351 1.398 . S
C1352 C1353 1.391 . S
C1353 H1341 0.950 . S
C1353 C1349 1.393 . S
C1353 C1352 1.391 . S
C1354 H1344 0.950 . S
C1354 C1355 1.386 . S
C1354 C1356 1.391 . S
C1355 C1354 1.386 . S
C1355 C1359 1.393 . S
C1356 H1345 0.950 . S
C1356 C1354 1.391 . S
C1356 C1357 1.400 . S
C1357 C1351 1.491 . S
C1357 C1356 1.400 . S
C1357 C1358 1.398 . S
C1358 H1346 0.950 . S
C1358 C1357 1.398 . S
C1358 C1359 1.391 . S
C1359 H1347 0.950 . S
C1359 C1355 1.393 . S
C1359 C1358 1.391 . S
H1360 C1368 0.950 . S
H1361 C1373 0.950 . S
H1362 C1370 0.950 . S
H1363 C1372 0.950 . S
H1364 C1374 0.950 . S
H1365 C1376 0.950 . S
H1366 C1378 0.950 . S
H1367 C1379 0.950 . S
C1368 H1360 0.950 . S
C1368 C1369 1.386 . S
C1368 C1370 1.391 . S
C1369 C1368 1.386 . S
C1369 C1373 1.393 . S
C1370 H1362 0.950 . S
C1370 C1368 1.391 . S
C1370 C1371 1.400 . S
C1371 C1370 1.400 . S
C1371 C1372 1.398 . S
C1371 C1377 1.491 . S
C1372 H1363 0.950 . S
C1372 C1371 1.398 . S
C1372 C1373 1.391 . S
C1373 H1361 0.950 . S
C1373 C1369 1.393 . S
C1373 C1372 1.391 . S
C1374 H1364 0.950 . S
C1374 C1375 1.386 . S
C1374 C1376 1.391 . S
C1375 C1374 1.386 . S
C1375 C1379 1.393 . S
C1376 H1365 0.950 . S
C1376 C1374 1.391 . S
C1376 C1377 1.400 . S
C1377 C1371 1.491 . S
C1377 C1376 1.400 . S
C1377 C1378 1.398 . S
C1378 H1366 0.950 . S
C1378 C1377 1.398 . S
C1378 C1379 1.391 . S
C1379 H1367 0.950 . S
C1379 C1375 1.393 . S
C1379 C1378 1.391 . S
H1380 C1388 0.950 . S
H1381 C1393 0.950 . S
H1382 C1390 0.950 . S
H1383 C1392 0.950 . S
H1384 C1394 0.950 . S
H1385 C1396 0.950 . S
H1386 C1398 0.950 . S
H1387 C1399 0.950 . S
C1388 H1380 0.950 . S
C1388 C1389 1.386 . S
C1388 C1390 1.391 . S
C1389 C1388 1.386 . S
C1389 C1393 1.393 . S
C1390 H1382 0.950 . S
C1390 C1388 1.391 . S
C1390 C1391 1.400 . S
C1391 C1390 1.400 . S
C1391 C1392 1.398 . S
C1391 C1397 1.491 . S
C1392 H1383 0.950 . S
C1392 C1391 1.398 . S
C1392 C1393 1.391 . S
C1393 H1381 0.950 . S
C1393 C1389 1.393 . S
C1393 C1392 1.391 . S
C1394 H1384 0.950 . S
C1394 C1395 1.386 . S
C1394 C1396 1.391 . S
C1395 C1394 1.386 . S
C1395 C1399 1.393 . S
C1396 H1385 0.950 . S
C1396 C1394 1.391 . S
C1396 C1397 1.400 . S
C1397 C1391 1.491 . S
C1397 C1396 1.400 . S
C1397 C1398 1.398 . S
C1398 H1386 0.950 . S
C1398 C1397 1.398 . S
C1398 C1399 1.391 . S
C1399 H1387 0.950 . S
C1399 C1395 1.393 . S
C1399 C1398 1.391 . S
H1400 C1408 0.950 . S
H1401 C1413 0.950 . S
H1402 C1410 0.950 . S
H1403 C1412 0.950 . S
H1404 C1414 0.950 . S
H1405 C1416 0.950 . S
H1406 C1418 0.950 . S
H1407 C1419 0.950 . S
C1408 H1400 0.950 . S
C1408 C1409 1.386 . S
C1408 C1410 1.391 . S
C1409 C1408 1.386 . S
C1409 C1413 1.393 . S
C1410 H1402 0.950 . S
C1410 C1408 1.391 . S
C1410 C1411 1.400 . S
C1411 C1410 1.400 . S
C1411 C1412 1.398 . S
C1411 C1417 1.491 . S
C1412 H1403 0.950 . S
C1412 C1411 1.398 . S
C1412 C1413 1.391 . S
C1413 H1401 0.950 . S
C1413 C1409 1.393 . S
C1413 C1412 1.391 . S
C1414 H1404 0.950 . S
C1414 C1415 1.386 . S
C1414 C1416 1.391 . S
C1415 C1414 1.386 . S
C1415 C1419 1.393 . S
C1416 H1405 0.950 . S
C1416 C1414 1.391 . S
C1416 C1417 1.400 . S
C1417 C1411 1.491 . S
C1417 C1416 1.400 . S
C1417 C1418 1.398 . S
C1418 H1406 0.950 . S
C1418 C1417 1.398 . S
C1418 C1419 1.391 . S
C1419 H1407 0.950 . S
C1419 C1415 1.393 . S
C1419 C1418 1.391 . S
H1420 C1428 0.950 . S
H1421 C1433 0.950 . S
H1422 C1430 0.950 . S
H1423 C1432 0.950 . S
H1424 C1434 0.950 . S
H1425 C1436 0.950 . S
H1426 C1438 0.950 . S
H1427 C1439 0.950 . S
C1428 H1420 0.950 . S
C1428 C1429 1.386 . S
C1428 C1430 1.391 . S
C1429 C1428 1.386 . S
C1429 C1433 1.393 . S
C1430 H1422 0.950 . S
C1430 C1428 1.391 . S
C1430 C1431 1.400 . S
C1431 C1430 1.400 . S
C1431 C1432 1.398 . S
C1431 C1437 1.491 . S
C1432 H1423 0.950 . S
C1432 C1431 1.398 . S
C1432 C1433 1.391 . S
C1433 H1421 0.950 . S
C1433 C1429 1.393 . S
C1433 C1432 1.391 . S
C1434 H1424 0.950 . S
C1434 C1435 1.386 . S
C1434 C1436 1.391 . S
C1435 C1434 1.386 . S
C1435 C1439 1.393 . S
C1436 H1425 0.950 . S
C1436 C1434 1.391 . S
C1436 C1437 1.400 . S
C1437 C1431 1.491 . S
C1437 C1436 1.400 . S
C1437 C1438 1.398 . S
C1438 H1426 0.950 . S
C1438 C1437 1.398 . S
C1438 C1439 1.391 . S
C1439 H1427 0.950 . S
C1439 C1435 1.393 . S
C1439 C1438 1.391 . S
H1440 C1448 0.950 . S
H1441 C1453 0.950 1_455 S
H1442 C1450 0.950 . S
H1443 C1452 0.950 . S
H1444 C1454 0.950 . S
H1445 C1456 0.950 . S
H1446 C1458 0.950 . S
H1447 C1459 0.950 . S
C1448 H1440 0.950 . S
C1448 C1449 1.386 . S
C1448 C1450 1.391 . S
C1449 C1448 1.386 . S
C1449 C1453 1.393 . S
C1450 H1442 0.950 . S
C1450 C1448 1.391 . S
C1450 C1451 1.400 . S
C1451 C1450 1.400 . S
C1451 C1452 1.398 . S
C1451 C1457 1.491 . S
C1452 H1443 0.950 . S
C1452 C1451 1.398 . S
C1452 C1453 1.391 . S
C1453 H1441 0.950 1_655 S
C1453 C1449 1.393 . S
C1453 C1452 1.391 . S
C1454 H1444 0.950 . S
C1454 C1455 1.386 . S
C1454 C1456 1.391 . S
C1455 C1454 1.386 . S
C1455 C1459 1.393 . S
C1456 H1445 0.950 . S
C1456 C1454 1.391 . S
C1456 C1457 1.400 . S
C1457 C1451 1.491 . S
C1457 C1456 1.400 . S
C1457 C1458 1.398 . S
C1458 H1446 0.950 . S
C1458 C1457 1.398 . S
C1458 C1459 1.391 . S
C1459 H1447 0.950 . S
C1459 C1455 1.393 . S
C1459 C1458 1.391 . S
H1460 C1468 0.950 . S
H1461 C1473 0.950 . S
H1462 C1470 0.950 . S
H1463 C1472 0.950 . S
H1464 C1474 0.950 . S
H1465 C1476 0.950 . S
H1466 C1478 0.950 . S
H1467 C1479 0.950 . S
C1468 H1460 0.950 . S
C1468 C1469 1.386 . S
C1468 C1470 1.391 . S
C1469 C1468 1.386 . S
C1469 C1473 1.393 . S
C1470 H1462 0.950 . S
C1470 C1468 1.391 . S
C1470 C1471 1.400 . S
C1471 C1470 1.400 . S
C1471 C1472 1.398 . S
C1471 C1477 1.491 . S
C1472 H1463 0.950 . S
C1472 C1471 1.398 . S
C1472 C1473 1.391 . S
C1473 H1461 0.950 . S
C1473 C1469 1.393 . S
C1473 C1472 1.391 . S
C1474 H1464 0.950 . S
C1474 C1475 1.386 . S
C1474 C1476 1.391 . S
C1475 C1474 1.386 . S
C1475 C1479 1.393 . S
C1476 H1465 0.950 . S
C1476 C1474 1.391 . S
C1476 C1477 1.400 . S
C1477 C1471 1.491 . S
C1477 C1476 1.400 . S
C1477 C1478 1.398 . S
C1478 H1466 0.950 . S
C1478 C1477 1.398 . S
C1478 C1479 1.391 . S
C1479 H1467 0.950 . S
C1479 C1475 1.393 . S
C1479 C1478 1.391 . S
H1480 C1488 0.950 . S
H1481 C1493 0.943 1_455 S
H1482 C1490 0.950 . S
H1483 C1492 0.950 . S
H1484 C1494 0.950 . S
H1485 C1496 0.950 . S
H1486 C1498 0.950 . S
H1487 C1499 0.950 . S
C1488 H1480 0.950 . S
C1488 C1489 1.386 . S
C1488 C1490 1.391 . S
C1489 C1488 1.386 . S
C1489 C1493 1.393 . S
C1490 H1482 0.950 . S
C1490 C1488 1.391 . S
C1490 C1491 1.400 . S
C1491 C1490 1.400 . S
C1491 C1492 1.398 . S
C1491 C1497 1.491 . S
C1492 H1483 0.950 . S
C1492 C1491 1.398 . S
C1492 C1493 1.391 . S
C1493 H1481 0.943 1_655 S
C1493 C1489 1.393 . S
C1493 C1492 1.391 . S
C1494 H1484 0.950 . S
C1494 C1495 1.386 . S
C1494 C1496 1.391 . S
C1495 C1494 1.386 . S
C1495 C1499 1.393 . S
C1496 H1485 0.950 . S
C1496 C1494 1.391 . S
C1496 C1497 1.400 . S
C1497 C1491 1.491 . S
C1497 C1496 1.400 . S
C1497 C1498 1.398 . S
C1498 H1486 0.950 . S
C1498 C1497 1.398 . S
C1498 C1499 1.391 . S
C1499 H1487 0.950 . S
C1499 C1495 1.393 . S
C1499 C1498 1.391 . S
H1500 C1508 0.950 . S
H1501 C1513 0.950 . S
H1502 C1510 0.950 . S
H1503 C1512 0.950 . S
H1504 C1514 0.950 . S
H1505 C1516 0.950 . S
H1506 C1518 0.950 . S
H1507 C1519 0.950 . S
C1508 H1500 0.950 . S
C1508 C1509 1.386 . S
C1508 C1510 1.391 . S
C1509 C1508 1.386 . S
C1509 C1513 1.393 . S
C1510 H1502 0.950 . S
C1510 C1508 1.391 . S
C1510 C1511 1.400 . S
C1511 C1510 1.400 . S
C1511 C1512 1.398 . S
C1511 C1517 1.491 . S
C1512 H1503 0.950 . S
C1512 C1511 1.398 . S
C1512 C1513 1.391 . S
C1513 H1501 0.950 . S
C1513 C1509 1.393 . S
C1513 C1512 1.391 . S
C1514 H1504 0.950 . S
C1514 C1515 1.386 . S
C1514 C1516 1.391 . S
C1515 C1514 1.386 . S
C1515 C1519 1.393 . S
C1516 H1505 0.950 . S
C1516 C1514 1.391 . S
C1516 C1517 1.400 . S
C1517 C1511 1.491 . S
C1517 C1516 1.400 . S
C1517 C1518 1.398 . S
C1518 H1506 0.950 . S
C1518 C1517 1.398 . S
C1518 C1519 1.391 . S
C1519 H1507 0.950 . S
C1519 C1515 1.393 . S
C1519 C1518 1.391 . S
H1520 C1528 0.950 1_655 S
H1521 C1533 0.950 . S
H1522 C1530 0.950 . S
H1523 C1532 0.950 . S
H1524 C1534 0.950 . S
H1525 C1536 0.950 . S
H1526 C1538 0.950 . S
H1527 C1539 0.950 . S
C1528 H1520 0.950 1_455 S
C1528 C1529 1.386 . S
C1528 C1530 1.391 . S
C1529 C1528 1.386 . S
C1529 C1533 1.393 . S
C1530 H1522 0.950 . S
C1530 C1528 1.391 . S
C1530 C1531 1.400 . S
C1531 C1530 1.400 . S
C1531 C1532 1.398 . S
C1531 C1537 1.491 . S
C1532 H1523 0.950 . S
C1532 C1531 1.398 . S
C1532 C1533 1.391 . S
C1533 H1521 0.950 . S
C1533 C1529 1.393 . S
C1533 C1532 1.391 . S
C1534 H1524 0.950 . S
C1534 C1535 1.386 . S
C1534 C1536 1.391 . S
C1535 C1534 1.386 . S
C1535 C1539 1.393 . S
C1536 H1525 0.950 . S
C1536 C1534 1.391 . S
C1536 C1537 1.400 . S
C1537 C1531 1.491 . S
C1537 C1536 1.400 . S
C1537 C1538 1.398 . S
C1538 H1526 0.950 . S
C1538 C1537 1.398 . S
C1538 C1539 1.391 . S
C1539 H1527 0.950 . S
C1539 C1535 1.393 . S
C1539 C1538 1.391 . S
H1540 C1548 0.950 . S
H1541 C1553 0.950 . S
H1542 C1550 0.950 . S
H1543 C1552 0.950 . S
H1544 C1554 0.950 . S
H1545 C1556 0.950 . S
H1546 C1558 0.950 . S
H1547 C1559 0.950 . S
C1548 H1540 0.950 . S
C1548 C1549 1.386 . S
C1548 C1550 1.391 . S
C1549 C1548 1.386 . S
C1549 C1553 1.393 . S
C1550 H1542 0.950 . S
C1550 C1548 1.391 . S
C1550 C1551 1.400 . S
C1551 C1550 1.400 . S
C1551 C1552 1.398 . S
C1551 C1557 1.491 . S
C1552 H1543 0.950 . S
C1552 C1551 1.398 . S
C1552 C1553 1.391 . S
C1553 H1541 0.950 . S
C1553 C1549 1.393 . S
C1553 C1552 1.391 . S
C1554 H1544 0.950 . S
C1554 C1555 1.386 . S
C1554 C1556 1.391 . S
C1555 C1554 1.386 . S
C1555 C1559 1.393 . S
C1556 H1545 0.950 . S
C1556 C1554 1.391 . S
C1556 C1557 1.400 . S
C1557 C1551 1.491 . S
C1557 C1556 1.400 . S
C1557 C1558 1.398 . S
C1558 H1546 0.950 . S
C1558 C1557 1.398 . S
C1558 C1559 1.391 . S
C1559 H1547 0.950 . S
C1559 C1555 1.393 . S
C1559 C1558 1.391 . S
H1560 C1568 0.950 . S
H1561 C1573 0.950 . S
H1562 C1570 0.950 . S
H1563 C1572 0.950 . S
H1564 C1574 0.950 . S
H1565 C1576 0.950 . S
H1566 C1578 0.950 . S
H1567 C1579 0.950 . S
C1568 H1560 0.950 . S
C1568 C1569 1.386 . S
C1568 C1570 1.391 . S
C1569 C1568 1.386 . S
C1569 C1573 1.393 . S
C1570 H1562 0.950 . S
C1570 C1568 1.391 . S
C1570 C1571 1.400 . S
C1571 C1570 1.400 . S
C1571 C1572 1.398 . S
C1571 C1577 1.491 . S
C1572 H1563 0.950 . S
C1572 C1571 1.398 . S
C1572 C1573 1.391 . S
C1573 H1561 0.950 . S
C1573 C1569 1.393 . S
C1573 C1572 1.391 . S
C1574 H1564 0.950 . S
C1574 C1575 1.386 . S
C1574 C1576 1.391 . S
C1575 C1574 1.386 . S
C1575 C1579 1.393 . S
C1576 H1565 0.950 . S
C1576 C1574 1.391 . S
C1576 C1577 1.400 . S
C1577 C1571 1.491 . S
C1577 C1576 1.400 . S
C1577 C1578 1.398 . S
C1578 H1566 0.950 . S
C1578 C1577 1.398 . S
C1578 C1579 1.391 . S
C1579 H1567 0.950 . S
C1579 C1575 1.393 . S
C1579 C1578 1.391 . S
H1580 C1588 0.950 . S
H1581 C1593 0.950 . S
H1582 C1590 0.950 . S
H1583 C1592 0.950 . S
H1584 C1594 0.950 . S
H1585 C1596 0.950 . S
H1586 C1598 0.950 . S
H1587 C1599 0.950 . S
C1588 H1580 0.950 . S
C1588 C1589 1.386 . S
C1588 C1590 1.391 . S
C1589 C1588 1.386 . S
C1589 C1593 1.393 . S
C1590 H1582 0.950 . S
C1590 C1588 1.391 . S
C1590 C1591 1.400 . S
C1591 C1590 1.400 . S
C1591 C1592 1.398 . S
C1591 C1597 1.491 . S
C1592 H1583 0.950 . S
C1592 C1591 1.398 . S
C1592 C1593 1.391 . S
C1593 H1581 0.950 . S
C1593 C1589 1.393 . S
C1593 C1592 1.391 . S
C1594 H1584 0.950 . S
C1594 C1595 1.386 . S
C1594 C1596 1.391 . S
C1595 C1594 1.386 . S
C1595 C1599 1.393 . S
C1596 H1585 0.950 . S
C1596 C1594 1.391 . S
C1596 C1597 1.400 . S
C1597 C1591 1.491 . S
C1597 C1596 1.400 . S
C1597 C1598 1.398 . S
C1598 H1586 0.950 . S
C1598 C1597 1.398 . S
C1598 C1599 1.391 . S
C1599 H1587 0.950 . S
C1599 C1595 1.393 . S
C1599 C1598 1.391 . S
H1600 C1608 0.950 . S
H1601 C1613 0.950 . S
H1602 C1610 0.950 . S
H1603 C1612 0.950 . S
H1604 C1614 0.950 . S
H1605 C1616 0.950 . S
H1606 C1618 0.950 . S
H1607 C1619 0.950 . S
C1608 H1600 0.950 . S
C1608 C1609 1.386 . S
C1608 C1610 1.391 . S
C1609 C1608 1.386 . S
C1609 C1613 1.393 . S
C1610 H1602 0.950 . S
C1610 C1608 1.391 . S
C1610 C1611 1.400 . S
C1611 C1610 1.400 . S
C1611 C1612 1.398 . S
C1611 C1617 1.491 . S
C1612 H1603 0.950 . S
C1612 C1611 1.398 . S
C1612 C1613 1.391 . S
C1613 H1601 0.950 . S
C1613 C1609 1.393 . S
C1613 C1612 1.391 . S
C1614 H1604 0.950 . S
C1614 C1615 1.386 . S
C1614 C1616 1.391 . S
C1615 C1614 1.386 . S
C1615 C1619 1.393 . S
C1616 H1605 0.950 . S
C1616 C1614 1.391 . S
C1616 C1617 1.400 . S
C1617 C1611 1.491 . S
C1617 C1616 1.400 . S
C1617 C1618 1.398 . S
C1618 H1606 0.950 . S
C1618 C1617 1.398 . S
C1618 C1619 1.391 . S
C1619 H1607 0.950 . S
C1619 C1615 1.393 . S
C1619 C1618 1.391 . S
H1620 C1628 0.950 . S
H1621 C1633 0.950 . S
H1622 C1630 0.950 . S
H1623 C1632 0.950 . S
H1624 C1634 0.950 . S
H1625 C1636 0.950 . S
H1626 C1638 0.950 . S
H1627 C1639 0.950 . S
C1628 H1620 0.950 . S
C1628 C1629 1.386 . S
C1628 C1630 1.391 . S
C1629 C1628 1.386 . S
C1629 C1633 1.393 . S
C1630 H1622 0.950 . S
C1630 C1628 1.391 . S
C1630 C1631 1.400 . S
C1631 C1630 1.400 . S
C1631 C1632 1.398 . S
C1631 C1637 1.491 . S
C1632 H1623 0.950 . S
C1632 C1631 1.398 . S
C1632 C1633 1.391 . S
C1633 H1621 0.950 . S
C1633 C1629 1.393 . S
C1633 C1632 1.391 . S
C1634 H1624 0.950 . S
C1634 C1635 1.386 . S
C1634 C1636 1.391 . S
C1635 C1634 1.386 . S
C1635 C1639 1.393 . S
C1636 H1625 0.950 . S
C1636 C1634 1.391 . S
C1636 C1637 1.400 . S
C1637 C1631 1.491 . S
C1637 C1636 1.400 . S
C1637 C1638 1.398 . S
C1638 H1626 0.950 . S
C1638 C1637 1.398 . S
C1638 C1639 1.391 . S
C1639 H1627 0.950 . S
C1639 C1635 1.393 . S
C1639 C1638 1.391 . S
H1640 C1648 0.950 . S
H1641 C1653 0.950 . S
H1642 C1650 0.950 . S
H1643 C1652 0.950 . S
H1644 C1654 0.950 . S
H1645 C1656 0.950 . S
H1646 C1658 0.950 . S
H1647 C1659 0.950 . S
C1648 H1640 0.950 . S
C1648 C1649 1.386 . S
C1648 C1650 1.391 . S
C1649 C1648 1.386 . S
C1649 C1653 1.393 . S
C1650 H1642 0.950 . S
C1650 C1648 1.391 . S
C1650 C1651 1.400 . S
C1651 C1650 1.400 . S
C1651 C1652 1.398 . S
C1651 C1657 1.491 . S
C1652 H1643 0.950 . S
C1652 C1651 1.398 . S
C1652 C1653 1.391 . S
C1653 H1641 0.950 . S
C1653 C1649 1.393 . S
C1653 C1652 1.391 . S
C1654 H1644 0.950 . S
C1654 C1655 1.386 . S
C1654 C1656 1.391 . S
C1655 C1654 1.386 . S
C1655 C1659 1.393 . S
C1656 H1645 0.950 . S
C1656 C1654 1.391 . S
C1656 C1657 1.400 . S
C1657 C1651 1.491 . S
C1657 C1656 1.400 . S
C1657 C1658 1.398 . S
C1658 H1646 0.950 . S
C1658 C1657 1.398 . S
C1658 C1659 1.391 . S
C1659 H1647 0.950 . S
C1659 C1655 1.393 . S
C1659 C1658 1.391 . S
H1660 C1668 0.950 . S
H1661 C1673 0.950 . S
H1662 C1670 0.950 . S
H1663 C1672 0.950 . S
H1664 C1674 0.950 . S
H1665 C1676 0.950 . S
H1666 C1678 0.950 . S
H1667 C1679 0.950 . S
C1668 H1660 0.950 . S
C1668 C1669 1.386 . S
C1668 C1670 1.391 . S
C1669 C1668 1.386 . S
C1669 C1673 1.393 . S
C1670 H1662 0.950 . S
C1670 C1668 1.391 . S
C1670 C1671 1.400 . S
C1671 C1670 1.400 . S
C1671 C1672 1.398 . S
C1671 C1677 1.491 . S
C1672 H1663 0.950 . S
C1672 C1671 1.398 . S
C1672 C1673 1.391 . S
C1673 H1661 0.950 . S
C1673 C1669 1.393 . S
C1673 C1672 1.391 . S
C1674 H1664 0.950 . S
C1674 C1675 1.386 . S
C1674 C1676 1.391 . S
C1675 C1674 1.386 . S
C1675 C1679 1.393 . S
C1676 H1665 0.950 . S
C1676 C1674 1.391 . S
C1676 C1677 1.400 . S
C1677 C1671 1.491 . S
C1677 C1676 1.400 . S
C1677 C1678 1.398 . S
C1678 H1666 0.950 . S
C1678 C1677 1.398 . S
C1678 C1679 1.391 . S
C1679 H1667 0.950 . S
C1679 C1675 1.393 . S
C1679 C1678 1.391 . S
H1680 C1688 0.950 . S
H1681 C1693 0.960 . S
H1682 C1690 0.950 . S
H1683 C1692 0.955 . S
H1684 C1694 0.950 . S
H1685 C1696 0.950 . S
H1686 C1698 0.950 . S
H1687 C1699 0.950 . S
C1688 H1680 0.950 . S
C1688 C1689 1.386 . S
C1688 C1690 1.391 . S
C1689 C1688 1.386 . S
C1689 C1693 1.384 1_565 S
C1690 H1682 0.950 . S
C1690 C1688 1.391 . S
C1690 C1691 1.400 . S
C1691 C1690 1.400 . S
C1691 C1692 1.394 1_565 S
C1691 C1697 1.491 . S
C1692 H1683 0.955 . S
C1692 C1691 1.394 1_545 S
C1692 C1693 1.391 . S
C1693 H1681 0.960 . S
C1693 C1689 1.384 1_545 S
C1693 C1692 1.391 . S
C1694 H1684 0.950 . S
C1694 C1695 1.386 1_545 S
C1694 C1696 1.391 . S
C1695 C1694 1.386 1_565 S
C1695 C1699 1.393 . S
C1696 H1685 0.950 . S
C1696 C1694 1.391 . S
C1696 C1697 1.400 1_545 S
C1697 C1691 1.491 . S
C1697 C1696 1.400 1_565 S
C1697 C1698 1.398 . S
C1698 H1686 0.950 . S
C1698 C1697 1.398 . S
C1698 C1699 1.391 . S
C1699 H1687 0.950 . S
C1699 C1695 1.393 . S
C1699 C1698 1.391 . S
H1700 C1708 0.950 . S
H1701 C1713 0.950 . S
H1702 C1710 0.950 . S
H1703 C1712 0.950 . S
H1704 C1714 0.950 . S
H1705 C1716 0.950 . S
H1706 C1718 0.950 . S
H1707 C1719 0.950 . S
C1708 H1700 0.950 . S
C1708 C1709 1.386 . S
C1708 C1710 1.391 . S
C1709 C1708 1.386 . S
C1709 C1713 1.393 . S
C1710 H1702 0.950 . S
C1710 C1708 1.391 . S
C1710 C1711 1.400 . S
C1711 C1710 1.400 . S
C1711 C1712 1.398 . S
C1711 C1717 1.491 . S
C1712 H1703 0.950 . S
C1712 C1711 1.398 . S
C1712 C1713 1.391 . S
C1713 H1701 0.950 . S
C1713 C1709 1.393 . S
C1713 C1712 1.391 . S
C1714 H1704 0.950 . S
C1714 C1715 1.386 . S
C1714 C1716 1.391 . S
C1715 C1714 1.386 . S
C1715 C1719 1.393 . S
C1716 H1705 0.950 . S
C1716 C1714 1.391 . S
C1716 C1717 1.400 . S
C1717 C1711 1.491 . S
C1717 C1716 1.400 . S
C1717 C1718 1.398 . S
C1718 H1706 0.950 . S
C1718 C1717 1.398 . S
C1718 C1719 1.391 . S
C1719 H1707 0.950 . S
C1719 C1715 1.393 . S
C1719 C1718 1.391 . S
H1720 C1728 0.950 . S
H1721 C1733 0.950 . S
H1722 C1730 0.950 . S
H1723 C1732 0.950 . S
H1724 C1734 0.950 . S
H1725 C1736 0.950 . S
H1726 C1738 0.950 . S
H1727 C1739 0.950 . S
C1728 H1720 0.950 . S
C1728 C1729 1.386 1_565 S
C1728 C1730 1.391 . S
C1729 C1728 1.386 1_545 S
C1729 C1733 1.393 . S
C1730 H1722 0.950 . S
C1730 C1728 1.391 . S
C1730 C1731 1.400 1_565 S
C1731 C1730 1.400 1_545 S
C1731 C1732 1.398 . S
C1731 C1737 1.491 . S
C1732 H1723 0.950 . S
C1732 C1731 1.398 . S
C1732 C1733 1.391 . S
C1733 H1721 0.950 . S
C1733 C1729 1.393 . S
C1733 C1732 1.391 . S
C1734 H1724 0.950 . S
C1734 C1735 1.386 . S
C1734 C1736 1.391 . S
C1735 C1734 1.386 . S
C1735 C1739 1.393 1_545 S
C1736 H1725 0.950 . S
C1736 C1734 1.391 . S
C1736 C1737 1.400 . S
C1737 C1731 1.491 . S
C1737 C1736 1.400 . S
C1737 C1738 1.398 1_545 S
C1738 H1726 0.950 . S
C1738 C1737 1.398 1_565 S
C1738 C1739 1.391 . S
C1739 H1727 0.950 . S
C1739 C1735 1.393 1_565 S
C1739 C1738 1.391 . S
H1740 C1748 0.950 . S
H1741 C1753 0.950 . S
H1742 C1750 0.950 . S
H1743 C1752 0.950 . S
H1744 C1754 0.950 . S
H1745 C1756 0.950 . S
H1746 C1758 0.950 . S
H1747 C1759 0.950 . S
C1748 H1740 0.950 . S
C1748 C1749 1.386 . S
C1748 C1750 1.391 . S
C1749 C1748 1.386 . S
C1749 C1753 1.393 . S
C1750 H1742 0.950 . S
C1750 C1748 1.391 . S
C1750 C1751 1.400 . S
C1751 C1750 1.400 . S
C1751 C1752 1.398 . S
C1751 C1757 1.491 . S
C1752 H1743 0.950 . S
C1752 C1751 1.398 . S
C1752 C1753 1.391 . S
C1753 H1741 0.950 . S
C1753 C1749 1.393 . S
C1753 C1752 1.391 . S
C1754 H1744 0.950 . S
C1754 C1755 1.386 . S
C1754 C1756 1.391 . S
C1755 C1754 1.386 . S
C1755 C1759 1.393 . S
C1756 H1745 0.950 . S
C1756 C1754 1.391 . S
C1756 C1757 1.400 . S
C1757 C1751 1.491 . S
C1757 C1756 1.400 . S
C1757 C1758 1.398 . S
C1758 H1746 0.950 . S
C1758 C1757 1.398 . S
C1758 C1759 1.391 . S
C1759 H1747 0.950 . S
C1759 C1755 1.393 . S
C1759 C1758 1.391 . S
H1760 C1768 0.950 . S
H1761 C1773 0.950 . S
H1762 C1770 0.950 . S
H1763 C1772 0.950 . S
H1764 C1774 0.950 . S
H1765 C1776 0.950 . S
H1766 C1778 0.950 . S
H1767 C1779 0.950 . S
C1768 H1760 0.950 . S
C1768 C1769 1.386 . S
C1768 C1770 1.391 . S
C1769 C1768 1.386 . S
C1769 C1773 1.393 . S
C1770 H1762 0.950 . S
C1770 C1768 1.391 . S
C1770 C1771 1.400 . S
C1771 C1770 1.400 . S
C1771 C1772 1.398 . S
C1771 C1777 1.491 . S
C1772 H1763 0.950 . S
C1772 C1771 1.398 . S
C1772 C1773 1.391 . S
C1773 H1761 0.950 . S
C1773 C1769 1.393 . S
C1773 C1772 1.391 . S
C1774 H1764 0.950 . S
C1774 C1775 1.386 . S
C1774 C1776 1.391 . S
C1775 C1774 1.386 . S
C1775 C1779 1.393 . S
C1776 H1765 0.950 . S
C1776 C1774 1.391 . S
C1776 C1777 1.400 . S
C1777 C1771 1.491 . S
C1777 C1776 1.400 . S
C1777 C1778 1.398 . S
C1778 H1766 0.950 . S
C1778 C1777 1.398 . S
C1778 C1779 1.391 . S
C1779 H1767 0.950 . S
C1779 C1775 1.393 . S
C1779 C1778 1.391 . S
H1780 C1788 0.950 . S
H1781 C1793 0.950 . S
H1782 C1790 0.950 . S
H1783 C1792 0.950 . S
H1784 C1794 0.950 . S
H1785 C1796 0.950 . S
H1786 C1798 0.950 . S
H1787 C1799 0.950 . S
C1788 H1780 0.950 . S
C1788 C1789 1.386 . S
C1788 C1790 1.391 . S
C1789 C1788 1.386 . S
C1789 C1793 1.393 . S
C1790 H1782 0.950 . S
C1790 C1788 1.391 . S
C1790 C1791 1.400 . S
C1791 C1790 1.400 . S
C1791 C1792 1.398 . S
C1791 C1797 1.491 . S
C1792 H1783 0.950 . S
C1792 C1791 1.398 . S
C1792 C1793 1.391 . S
C1793 H1781 0.950 . S
C1793 C1789 1.393 . S
C1793 C1792 1.391 . S
C1794 H1784 0.950 . S
C1794 C1795 1.386 . S
C1794 C1796 1.391 . S
C1795 C1794 1.386 . S
C1795 C1799 1.393 . S
C1796 H1785 0.950 . S
C1796 C1794 1.391 . S
C1796 C1797 1.400 . S
C1797 C1791 1.491 . S
C1797 C1796 1.400 . S
C1797 C1798 1.398 . S
C1798 H1786 0.950 . S
C1798 C1797 1.398 . S
C1798 C1799 1.391 . S
C1799 H1787 0.950 . S
C1799 C1795 1.393 . S
C1799 C1798 1.391 . S
H1800 C1808 0.950 . S
H1801 C1813 0.950 . S
H1802 C1810 0.950 . S
H1803 C1812 0.950 . S
H1804 C1814 0.950 . S
H1805 C1816 0.950 . S
H1806 C1818 0.950 . S
H1807 C1819 0.950 . S
C1808 H1800 0.950 . S
C1808 C1809 1.386 . S
C1808 C1810 1.391 . S
C1809 C1808 1.386 . S
C1809 C1813 1.393 . S
C1810 H1802 0.950 . S
C1810 C1808 1.391 . S
C1810 C1811 1.400 . S
C1811 C1810 1.400 . S
C1811 C1812 1.398 . S
C1811 C1817 1.491 . S
C1812 H1803 0.950 . S
C1812 C1811 1.398 . S
C1812 C1813 1.391 . S
C1813 H1801 0.950 . S
C1813 C1809 1.393 . S
C1813 C1812 1.391 . S
C1814 H1804 0.950 . S
C1814 C1815 1.386 . S
C1814 C1816 1.391 . S
C1815 C1814 1.386 . S
C1815 C1819 1.393 . S
C1816 H1805 0.950 . S
C1816 C1814 1.391 . S
C1816 C1817 1.400 . S
C1817 C1811 1.491 . S
C1817 C1816 1.400 . S
C1817 C1818 1.398 . S
C1818 H1806 0.950 . S
C1818 C1817 1.398 . S
C1818 C1819 1.391 . S
C1819 H1807 0.950 . S
C1819 C1815 1.393 . S
C1819 C1818 1.391 . S
H1820 C1828 0.950 . S
H1821 C1833 0.950 . S
H1822 C1830 0.950 . S
H1823 C1832 0.950 . S
H1824 C1834 0.950 . S
H1825 C1836 0.950 . S
H1826 C1838 0.950 . S
H1827 C1839 0.950 . S
C1828 H1820 0.950 . S
C1828 C1829 1.386 . S
C1828 C1830 1.391 . S
C1829 C1828 1.386 . S
C1829 C1833 1.393 . S
C1830 H1822 0.950 . S
C1830 C1828 1.391 . S
C1830 C1831 1.400 . S
C1831 C1830 1.400 . S
C1831 C1832 1.398 . S
C1831 C1837 1.491 . S
C1832 H1823 0.950 . S
C1832 C1831 1.398 . S
C1832 C1833 1.391 . S
C1833 H1821 0.950 . S
C1833 C1829 1.393 . S
C1833 C1832 1.391 . S
C1834 H1824 0.950 . S
C1834 C1835 1.386 . S
C1834 C1836 1.391 . S
C1835 C1834 1.386 . S
C1835 C1839 1.393 . S
C1836 H1825 0.950 . S
C1836 C1834 1.391 . S
C1836 C1837 1.400 . S
C1837 C1831 1.491 . S
C1837 C1836 1.400 . S
C1837 C1838 1.398 . S
C1838 H1826 0.950 . S
C1838 C1837 1.398 . S
C1838 C1839 1.391 . S
C1839 H1827 0.950 . S
C1839 C1835 1.393 . S
C1839 C1838 1.391 . S
H1840 C1848 0.950 . S
H1841 C1853 0.950 . S
H1842 C1850 0.950 . S
H1843 C1852 0.950 . S
H1844 C1854 0.950 . S
H1845 C1856 0.950 . S
H1846 C1858 0.950 . S
H1847 C1859 0.950 . S
C1848 H1840 0.950 . S
C1848 C1849 1.386 . S
C1848 C1850 1.391 . S
C1849 C1848 1.386 . S
C1849 C1853 1.393 1_565 S
C1850 H1842 0.950 . S
C1850 C1848 1.391 . S
C1850 C1851 1.400 . S
C1851 C1850 1.400 . S
C1851 C1852 1.398 1_565 S
C1851 C1857 1.491 . S
C1852 H1843 0.950 . S
C1852 C1851 1.398 1_545 S
C1852 C1853 1.391 . S
C1853 H1841 0.950 . S
C1853 C1849 1.393 1_545 S
C1853 C1852 1.391 . S
C1854 H1844 0.950 . S
C1854 C1855 1.386 1_545 S
C1854 C1856 1.391 . S
C1855 C1854 1.386 1_565 S
C1855 C1859 1.393 . S
C1856 H1845 0.950 . S
C1856 C1854 1.391 . S
C1856 C1857 1.400 1_545 S
C1857 C1851 1.491 . S
C1857 C1856 1.400 1_565 S
C1857 C1858 1.398 . S
C1858 H1846 0.950 . S
C1858 C1857 1.398 . S
C1858 C1859 1.391 . S
C1859 H1847 0.950 . S
C1859 C1855 1.393 . S
C1859 C1858 1.391 . S
H1860 C1868 0.950 . S
H1861 C1873 0.950 . S
H1862 C1870 0.950 . S
H1863 C1872 0.950 . S
H1864 C1874 0.950 . S
H1865 C1876 0.950 . S
H1866 C1878 0.950 . S
H1867 C1879 0.950 . S
C1868 H1860 0.950 . S
C1868 C1869 1.386 . S
C1868 C1870 1.391 . S
C1869 C1868 1.386 . S
C1869 C1873 1.393 . S
C1870 H1862 0.950 . S
C1870 C1868 1.391 . S
C1870 C1871 1.400 . S
C1871 C1870 1.400 . S
C1871 C1872 1.398 . S
C1871 C1877 1.491 . S
C1872 H1863 0.950 . S
C1872 C1871 1.398 . S
C1872 C1873 1.391 . S
C1873 H1861 0.950 . S
C1873 C1869 1.393 . S
C1873 C1872 1.391 . S
C1874 H1864 0.950 . S
C1874 C1875 1.386 . S
C1874 C1876 1.391 . S
C1875 C1874 1.386 . S
C1875 C1879 1.393 . S
C1876 H1865 0.950 . S
C1876 C1874 1.391 . S
C1876 C1877 1.400 . S
C1877 C1871 1.491 . S
C1877 C1876 1.400 . S
C1877 C1878 1.398 . S
C1878 H1866 0.950 . S
C1878 C1877 1.398 . S
C1878 C1879 1.391 . S
C1879 H1867 0.950 . S
C1879 C1875 1.393 . S
C1879 C1878 1.391 . S
H1880 C1888 0.950 . S
H1881 C1893 0.950 . S
H1882 C1890 0.950 . S
H1883 C1892 0.950 . S
H1884 C1894 0.950 . S
H1885 C1896 0.950 . S
H1886 C1898 0.950 . S
H1887 C1899 0.950 . S
C1888 H1880 0.950 . S
C1888 C1889 1.386 . S
C1888 C1890 1.391 . S
C1889 C1888 1.386 . S
C1889 C1893 1.393 1_545 S
C1890 H1882 0.950 . S
C1890 C1888 1.391 . S
C1890 C1891 1.400 . S
C1891 C1890 1.400 . S
C1891 C1892 1.398 1_545 S
C1891 C1897 1.491 . S
C1892 H1883 0.950 . S
C1892 C1891 1.398 1_565 S
C1892 C1893 1.391 . S
C1893 H1881 0.950 . S
C1893 C1889 1.393 1_565 S
C1893 C1892 1.391 . S
C1894 H1884 0.950 . S
C1894 C1895 1.386 1_565 S
C1894 C1896 1.391 . S
C1895 C1894 1.386 1_545 S
C1895 C1899 1.393 . S
C1896 H1885 0.950 . S
C1896 C1894 1.391 . S
C1896 C1897 1.400 1_565 S
C1897 C1891 1.491 . S
C1897 C1896 1.400 1_545 S
C1897 C1898 1.398 . S
C1898 H1886 0.950 . S
C1898 C1897 1.398 . S
C1898 C1899 1.391 . S
C1899 H1887 0.950 . S
C1899 C1895 1.393 . S
C1899 C1898 1.391 . S
H1900 C1908 0.950 . S
H1901 C1913 0.950 . S
H1902 C1910 0.950 . S
H1903 C1912 0.950 . S
H1904 C1914 0.950 . S
H1905 C1916 0.950 . S
H1906 C1918 0.950 . S
H1907 C1919 0.950 . S
C1908 H1900 0.950 . S
C1908 C1909 1.386 . S
C1908 C1910 1.391 . S
C1909 C1908 1.386 . S
C1909 C1913 1.393 . S
C1910 H1902 0.950 . S
C1910 C1908 1.391 . S
C1910 C1911 1.400 . S
C1911 C1910 1.400 . S
C1911 C1912 1.398 . S
C1911 C1917 1.491 . S
C1912 H1903 0.950 . S
C1912 C1911 1.398 . S
C1912 C1913 1.391 . S
C1913 H1901 0.950 . S
C1913 C1909 1.393 . S
C1913 C1912 1.391 . S
C1914 H1904 0.950 . S
C1914 C1915 1.386 . S
C1914 C1916 1.391 . S
C1915 C1914 1.386 . S
C1915 C1919 1.393 . S
C1916 H1905 0.950 . S
C1916 C1914 1.391 . S
C1916 C1917 1.400 . S
C1917 C1911 1.491 . S
C1917 C1916 1.400 . S
C1917 C1918 1.398 . S
C1918 H1906 0.950 . S
C1918 C1917 1.398 . S
C1918 C1919 1.391 . S
C1919 H1907 0.950 . S
C1919 C1915 1.393 . S
C1919 C1918 1.391 . S
H1920 C1928 0.950 . S
H1921 C1933 0.950 . S
H1922 C1930 0.950 . S
H1923 C1932 0.950 . S
H1924 C1934 0.950 . S
H1925 C1936 0.950 . S
H1926 C1938 0.950 . S
H1927 C1939 0.950 . S
C1928 H1920 0.950 . S
C1928 C1929 1.386 . S
C1928 C1930 1.391 . S
C1929 C1928 1.386 . S
C1929 C1933 1.393 . S
C1930 H1922 0.950 . S
C1930 C1928 1.391 . S
C1930 C1931 1.400 . S
C1931 C1930 1.400 . S
C1931 C1932 1.398 . S
C1931 C1937 1.491 . S
C1932 H1923 0.950 . S
C1932 C1931 1.398 . S
C1932 C1933 1.391 . S
C1933 H1921 0.950 . S
C1933 C1929 1.393 . S
C1933 C1932 1.391 . S
C1934 H1924 0.950 . S
C1934 C1935 1.386 . S
C1934 C1936 1.391 . S
C1935 C1934 1.386 . S
C1935 C1939 1.393 . S
C1936 H1925 0.950 . S
C1936 C1934 1.391 . S
C1936 C1937 1.400 . S
C1937 C1931 1.491 . S
C1937 C1936 1.400 . S
C1937 C1938 1.398 . S
C1938 H1926 0.950 . S
C1938 C1937 1.398 . S
C1938 C1939 1.391 . S
C1939 H1927 0.950 . S
C1939 C1935 1.393 . S
C1939 C1938 1.391 . S
H1940 C1948 0.950 . S
H1941 C1953 0.950 . S
H1942 C1950 0.950 . S
H1943 C1952 0.950 . S
H1944 C1954 0.950 . S
H1945 C1956 0.950 . S
H1946 C1958 0.950 . S
H1947 C1959 0.950 . S
C1948 H1940 0.950 . S
C1948 C1949 1.386 . S
C1948 C1950 1.391 . S
C1949 C1948 1.386 . S
C1949 C1953 1.393 . S
C1950 H1942 0.950 . S
C1950 C1948 1.391 . S
C1950 C1951 1.400 . S
C1951 C1950 1.400 . S
C1951 C1952 1.398 . S
C1951 C1957 1.491 . S
C1952 H1943 0.950 . S
C1952 C1951 1.398 . S
C1952 C1953 1.391 . S
C1953 H1941 0.950 . S
C1953 C1949 1.393 . S
C1953 C1952 1.391 . S
C1954 H1944 0.950 . S
C1954 C1955 1.386 . S
C1954 C1956 1.391 . S
C1955 C1954 1.386 . S
C1955 C1959 1.393 . S
C1956 H1945 0.950 . S
C1956 C1954 1.391 . S
C1956 C1957 1.400 . S
C1957 C1951 1.491 . S
C1957 C1956 1.400 . S
C1957 C1958 1.398 . S
C1958 H1946 0.950 . S
C1958 C1957 1.398 . S
C1958 C1959 1.391 . S
C1959 H1947 0.950 . S
C1959 C1955 1.393 . S
C1959 C1958 1.391 . S
H1960 C1968 0.950 . S
H1961 C1973 0.950 . S
H1962 C1970 0.950 . S
H1963 C1972 0.950 . S
H1964 C1974 0.950 . S
H1965 C1976 0.950 . S
H1966 C1978 0.950 . S
H1967 C1979 0.950 . S
C1968 H1960 0.950 . S
C1968 C1969 1.386 . S
C1968 C1970 1.391 . S
C1969 C1968 1.386 . S
C1969 C1973 1.393 . S
C1970 H1962 0.950 . S
C1970 C1968 1.391 . S
C1970 C1971 1.400 . S
C1971 C1970 1.400 . S
C1971 C1972 1.398 . S
C1971 C1977 1.491 . S
C1972 H1963 0.950 . S
C1972 C1971 1.398 . S
C1972 C1973 1.391 . S
C1973 H1961 0.950 . S
C1973 C1969 1.393 . S
C1973 C1972 1.391 . S
C1974 H1964 0.950 . S
C1974 C1975 1.386 . S
C1974 C1976 1.391 . S
C1975 C1974 1.386 . S
C1975 C1979 1.393 . S
C1976 H1965 0.950 . S
C1976 C1974 1.391 . S
C1976 C1977 1.400 . S
C1977 C1971 1.491 . S
C1977 C1976 1.400 . S
C1977 C1978 1.398 . S
C1978 H1966 0.950 . S
C1978 C1977 1.398 . S
C1978 C1979 1.391 . S
C1979 H1967 0.950 . S
C1979 C1975 1.393 . S
C1979 C1978 1.391 . S
H1980 C1988 0.950 . S
H1981 C1993 0.950 . S
H1982 C1990 0.950 . S
H1983 C1992 0.950 . S
H1984 C1994 0.950 . S
H1985 C1996 0.950 . S
H1986 C1998 0.950 . S
H1987 C1999 0.950 . S
C1988 H1980 0.950 . S
C1988 C1989 1.386 . S
C1988 C1990 1.391 . S
C1989 C1988 1.386 . S
C1989 C1993 1.393 . S
C1990 H1982 0.950 . S
C1990 C1988 1.391 . S
C1990 C1991 1.400 . S
C1991 C1990 1.400 . S
C1991 C1992 1.398 . S
C1991 C1997 1.491 . S
C1992 H1983 0.950 . S
C1992 C1991 1.398 . S
C1992 C1993 1.391 . S
C1993 H1981 0.950 . S
C1993 C1989 1.393 . S
C1993 C1992 1.391 . S
C1994 H1984 0.950 . S
C1994 C1995 1.386 . S
C1994 C1996 1.391 . S
C1995 C1994 1.386 . S
C1995 C1999 1.393 . S
C1996 H1985 0.950 . S
C1996 C1994 1.391 . S
C1996 C1997 1.400 . S
C1997 C1991 1.491 . S
C1997 C1996 1.400 . S
C1997 C1998 1.398 . S
C1998 H1986 0.950 . S
C1998 C1997 1.398 . S
C1998 C1999 1.391 . S
C1999 H1987 0.950 . S
C1999 C1995 1.393 . S
C1999 C1998 1.391 . S
H2000 C2008 0.950 . S
H2001 C2013 0.950 . S
H2002 C2010 0.950 . S
H2003 C2012 0.950 . S
H2004 C2014 0.950 . S
H2005 C2016 0.950 . S
H2006 C2018 0.950 . S
H2007 C2019 0.950 . S
C2008 H2000 0.950 . S
C2008 C2009 1.386 . S
C2008 C2010 1.391 . S
C2009 C2008 1.386 . S
C2009 C2013 1.393 . S
C2010 H2002 0.950 . S
C2010 C2008 1.391 . S
C2010 C2011 1.400 . S
C2011 C2010 1.400 . S
C2011 C2012 1.398 . S
C2011 C2017 1.491 . S
C2012 H2003 0.950 . S
C2012 C2011 1.398 . S
C2012 C2013 1.391 . S
C2013 H2001 0.950 . S
C2013 C2009 1.393 . S
C2013 C2012 1.391 . S
C2014 H2004 0.950 . S
C2014 C2015 1.386 . S
C2014 C2016 1.391 . S
C2015 C2014 1.386 . S
C2015 C2019 1.393 . S
C2016 H2005 0.950 . S
C2016 C2014 1.391 . S
C2016 C2017 1.400 . S
C2017 C2011 1.491 . S
C2017 C2016 1.400 . S
C2017 C2018 1.398 . S
C2018 H2006 0.950 . S
C2018 C2017 1.398 . S
C2018 C2019 1.391 . S
C2019 H2007 0.950 . S
C2019 C2015 1.393 . S
C2019 C2018 1.391 . S
H2020 C2028 0.950 . S
H2021 C2033 0.950 . S
H2022 C2030 0.950 . S
H2023 C2032 0.950 . S
H2024 C2034 0.950 . S
H2025 C2036 0.950 . S
H2026 C2038 0.950 . S
H2027 C2039 0.950 . S
C2028 H2020 0.950 . S
C2028 C2029 1.386 . S
C2028 C2030 1.391 . S
C2029 C2028 1.386 . S
C2029 C2033 1.393 . S
C2030 H2022 0.950 . S
C2030 C2028 1.391 . S
C2030 C2031 1.400 . S
C2031 C2030 1.400 . S
C2031 C2032 1.398 . S
C2031 C2037 1.491 . S
C2032 H2023 0.950 . S
C2032 C2031 1.398 . S
C2032 C2033 1.391 . S
C2033 H2021 0.950 . S
C2033 C2029 1.393 . S
C2033 C2032 1.391 . S
C2034 H2024 0.950 . S
C2034 C2035 1.386 . S
C2034 C2036 1.391 . S
C2035 C2034 1.386 . S
C2035 C2039 1.393 . S
C2036 H2025 0.950 . S
C2036 C2034 1.391 . S
C2036 C2037 1.400 . S
C2037 C2031 1.491 . S
C2037 C2036 1.400 . S
C2037 C2038 1.398 . S
C2038 H2026 0.950 . S
C2038 C2037 1.398 . S
C2038 C2039 1.391 . S
C2039 H2027 0.950 . S
C2039 C2035 1.393 . S
C2039 C2038 1.391 . S
H2040 C2048 0.950 . S
H2041 C2053 0.950 . S
H2042 C2050 0.950 . S
H2043 C2052 0.950 . S
H2044 C2054 0.950 . S
H2045 C2056 0.950 . S
H2046 C2058 0.950 . S
H2047 C2059 0.950 . S
C2048 H2040 0.950 . S
C2048 C2049 1.386 . S
C2048 C2050 1.391 . S
C2049 C2048 1.386 . S
C2049 C2053 1.393 . S
C2050 H2042 0.950 . S
C2050 C2048 1.391 . S
C2050 C2051 1.400 . S
C2051 C2050 1.400 . S
C2051 C2052 1.398 . S
C2051 C2057 1.491 . S
C2052 H2043 0.950 . S
C2052 C2051 1.398 . S
C2052 C2053 1.391 . S
C2053 H2041 0.950 . S
C2053 C2049 1.393 . S
C2053 C2052 1.391 . S
C2054 H2044 0.950 . S
C2054 C2055 1.386 . S
C2054 C2056 1.391 . S
C2055 C2054 1.386 . S
C2055 C2059 1.393 . S
C2056 H2045 0.950 . S
C2056 C2054 1.391 . S
C2056 C2057 1.400 . S
C2057 C2051 1.491 . S
C2057 C2056 1.400 . S
C2057 C2058 1.398 . S
C2058 H2046 0.950 . S
C2058 C2057 1.398 . S
C2058 C2059 1.391 . S
C2059 H2047 0.950 . S
C2059 C2055 1.393 . S
C2059 C2058 1.391 . S
H2060 C2068 0.950 . S
H2061 C2073 0.950 . S
H2062 C2070 0.950 . S
H2063 C2072 0.950 . S
H2064 C2074 0.950 . S
H2065 C2076 0.950 . S
H2066 C2078 0.950 . S
H2067 C2079 0.950 . S
C2068 H2060 0.950 . S
C2068 C2069 1.386 . S
C2068 C2070 1.391 . S
C2069 C2068 1.386 . S
C2069 C2073 1.393 . S
C2070 H2062 0.950 . S
C2070 C2068 1.391 . S
C2070 C2071 1.400 . S
C2071 C2070 1.400 . S
C2071 C2072 1.398 . S
C2071 C2077 1.491 . S
C2072 H2063 0.950 . S
C2072 C2071 1.398 . S
C2072 C2073 1.391 . S
C2073 H2061 0.950 . S
C2073 C2069 1.393 . S
C2073 C2072 1.391 . S
C2074 H2064 0.950 . S
C2074 C2075 1.386 . S
C2074 C2076 1.391 . S
C2075 C2074 1.386 . S
C2075 C2079 1.393 . S
C2076 H2065 0.950 . S
C2076 C2074 1.391 . S
C2076 C2077 1.400 . S
C2077 C2071 1.491 . S
C2077 C2076 1.400 . S
C2077 C2078 1.398 . S
C2078 H2066 0.950 . S
C2078 C2077 1.398 . S
C2078 C2079 1.391 . S
C2079 H2067 0.950 . S
C2079 C2075 1.393 . S
C2079 C2078 1.391 . S
H2080 C2088 0.950 . S
H2081 C2093 0.950 . S
H2082 C2090 0.950 . S
H2083 C2092 0.950 . S
H2084 C2094 0.950 . S
H2085 C2096 0.950 . S
H2086 C2098 0.950 . S
H2087 C2099 0.950 . S
C2088 H2080 0.950 . S
C2088 C2089 1.386 . S
C2088 C2090 1.391 . S
C2089 C2088 1.386 . S
C2089 C2093 1.393 . S
C2090 H2082 0.950 . S
C2090 C2088 1.391 . S
C2090 C2091 1.400 . S
C2091 C2090 1.400 . S
C2091 C2092 1.398 . S
C2091 C2097 1.491 . S
C2092 H2083 0.950 . S
C2092 C2091 1.398 . S
C2092 C2093 1.391 . S
C2093 H2081 0.950 . S
C2093 C2089 1.393 . S
C2093 C2092 1.391 . S
C2094 H2084 0.950 . S
C2094 C2095 1.386 . S
C2094 C2096 1.391 . S
C2095 C2094 1.386 . S
C2095 C2099 1.393 . S
C2096 H2085 0.950 . S
C2096 C2094 1.391 . S
C2096 C2097 1.400 . S
C2097 C2091 1.491 . S
C2097 C2096 1.400 . S
C2097 C2098 1.398 . S
C2098 H2086 0.950 . S
C2098 C2097 1.398 . S
C2098 C2099 1.391 . S
C2099 H2087 0.950 . S
C2099 C2095 1.393 . S
C2099 C2098 1.391 . S
H2100 C2108 0.950 . S
H2101 C2113 0.950 . S
H2102 C2110 0.950 . S
H2103 C2112 0.950 . S
H2104 C2114 0.950 . S
H2105 C2116 0.950 . S
H2106 C2118 0.950 . S
H2107 C2119 0.950 . S
C2108 H2100 0.950 . S
C2108 C2109 1.386 . S
C2108 C2110 1.391 . S
C2109 C2108 1.386 . S
C2109 C2113 1.393 . S
C2110 H2102 0.950 . S
C2110 C2108 1.391 . S
C2110 C2111 1.400 . S
C2111 C2110 1.400 . S
C2111 C2112 1.398 . S
C2111 C2117 1.491 . S
C2112 H2103 0.950 . S
C2112 C2111 1.398 . S
C2112 C2113 1.391 . S
C2113 H2101 0.950 . S
C2113 C2109 1.393 . S
C2113 C2112 1.391 . S
C2114 H2104 0.950 . S
C2114 C2115 1.386 . S
C2114 C2116 1.391 . S
C2115 C2114 1.386 . S
C2115 C2119 1.393 . S
C2116 H2105 0.950 . S
C2116 C2114 1.391 . S
C2116 C2117 1.400 . S
C2117 C2111 1.491 . S
C2117 C2116 1.400 . S
C2117 C2118 1.398 . S
C2118 H2106 0.950 . S
C2118 C2117 1.398 . S
C2118 C2119 1.391 . S
C2119 H2107 0.950 . S
C2119 C2115 1.393 . S
C2119 C2118 1.391 . S
H2120 C2128 0.950 . S
H2121 C2133 0.950 . S
H2122 C2130 0.950 . S
H2123 C2132 0.950 . S
H2124 C2134 0.950 . S
H2125 C2136 0.950 . S
H2126 C2138 0.950 . S
H2127 C2139 0.950 . S
C2128 H2120 0.950 . S
C2128 C2129 1.386 . S
C2128 C2130 1.391 . S
C2129 C2128 1.386 . S
C2129 C2133 1.393 . S
C2130 H2122 0.950 . S
C2130 C2128 1.391 . S
C2130 C2131 1.400 . S
C2131 C2130 1.400 . S
C2131 C2132 1.398 . S
C2131 C2137 1.491 . S
C2132 H2123 0.950 . S
C2132 C2131 1.398 . S
C2132 C2133 1.391 . S
C2133 H2121 0.950 . S
C2133 C2129 1.393 . S
C2133 C2132 1.391 . S
C2134 H2124 0.950 . S
C2134 C2135 1.386 . S
C2134 C2136 1.391 . S
C2135 C2134 1.386 . S
C2135 C2139 1.393 . S
C2136 H2125 0.950 . S
C2136 C2134 1.391 . S
C2136 C2137 1.400 . S
C2137 C2131 1.491 . S
C2137 C2136 1.400 . S
C2137 C2138 1.398 . S
C2138 H2126 0.950 . S
C2138 C2137 1.398 . S
C2138 C2139 1.391 . S
C2139 H2127 0.950 . S
C2139 C2135 1.393 . S
C2139 C2138 1.391 . S
H2140 C2148 0.950 . S
H2141 C2153 0.950 . S
H2142 C2150 0.950 . S
H2143 C2152 0.950 . S
H2144 C2154 0.950 . S
H2145 C2156 0.950 . S
H2146 C2158 0.950 . S
H2147 C2159 0.950 . S
C2148 H2140 0.950 . S
C2148 C2149 1.386 . S
C2148 C2150 1.391 . S
C2149 C2148 1.386 . S
C2149 C2153 1.393 . S
C2150 H2142 0.950 . S
C2150 C2148 1.391 . S
C2150 C2151 1.400 . S
C2151 C2150 1.400 . S
C2151 C2152 1.398 . S
C2151 C2157 1.491 . S
C2152 H2143 0.950 . S
C2152 C2151 1.398 . S
C2152 C2153 1.391 . S
C2153 H2141 0.950 . S
C2153 C2149 1.393 . S
C2153 C2152 1.391 . S
C2154 H2144 0.950 . S
C2154 C2155 1.386 . S
C2154 C2156 1.391 . S
C2155 C2154 1.386 . S
C2155 C2159 1.393 . S
C2156 H2145 0.950 . S
C2156 C2154 1.391 . S
C2156 C2157 1.400 . S
C2157 C2151 1.491 . S
C2157 C2156 1.400 . S
C2157 C2158 1.398 . S
C2158 H2146 0.950 . S
C2158 C2157 1.398 . S
C2158 C2159 1.391 . S
C2159 H2147 0.950 . S
C2159 C2155 1.393 . S
C2159 C2158 1.391 . S
H2160 C2168 0.950 . S
H2161 C2173 0.950 . S
H2162 C2170 0.950 . S
H2163 C2172 0.950 . S
H2164 C2174 0.950 . S
H2165 C2176 0.950 . S
H2166 C2178 0.950 . S
H2167 C2179 0.950 . S
C2168 H2160 0.950 . S
C2168 C2169 1.386 . S
C2168 C2170 1.391 . S
C2169 C2168 1.386 . S
C2169 C2173 1.393 . S
C2170 H2162 0.950 . S
C2170 C2168 1.391 . S
C2170 C2171 1.400 . S
C2171 C2170 1.400 . S
C2171 C2172 1.398 . S
C2171 C2177 1.491 . S
C2172 H2163 0.950 . S
C2172 C2171 1.398 . S
C2172 C2173 1.391 . S
C2173 H2161 0.950 . S
C2173 C2169 1.393 . S
C2173 C2172 1.391 . S
C2174 H2164 0.950 . S
C2174 C2175 1.386 . S
C2174 C2176 1.391 . S
C2175 C2174 1.386 . S
C2175 C2179 1.393 . S
C2176 H2165 0.950 . S
C2176 C2174 1.391 . S
C2176 C2177 1.400 . S
C2177 C2171 1.491 . S
C2177 C2176 1.400 . S
C2177 C2178 1.398 . S
C2178 H2166 0.950 . S
C2178 C2177 1.398 . S
C2178 C2179 1.391 . S
C2179 H2167 0.950 . S
C2179 C2175 1.393 . S
C2179 C2178 1.391 . S
H2180 C2188 0.950 . S
H2181 C2193 0.950 . S
H2182 C2190 0.950 . S
H2183 C2192 0.950 . S
H2184 C2194 0.950 . S
H2185 C2196 0.950 . S
H2186 C2198 0.950 . S
H2187 C2199 0.950 . S
C2188 H2180 0.950 . S
C2188 C2189 1.386 . S
C2188 C2190 1.391 . S
C2189 C2188 1.386 . S
C2189 C2193 1.393 . S
C2190 H2182 0.950 . S
C2190 C2188 1.391 . S
C2190 C2191 1.400 . S
C2191 C2190 1.400 . S
C2191 C2192 1.398 . S
C2191 C2197 1.491 . S
C2192 H2183 0.950 . S
C2192 C2191 1.398 . S
C2192 C2193 1.391 . S
C2193 H2181 0.950 . S
C2193 C2189 1.393 . S
C2193 C2192 1.391 . S
C2194 H2184 0.950 . S
C2194 C2195 1.386 . S
C2194 C2196 1.391 . S
C2195 C2194 1.386 . S
C2195 C2199 1.393 . S
C2196 H2185 0.950 . S
C2196 C2194 1.391 . S
C2196 C2197 1.400 . S
C2197 C2191 1.491 . S
C2197 C2196 1.400 . S
C2197 C2198 1.398 . S
C2198 H2186 0.950 . S
C2198 C2197 1.398 . S
C2198 C2199 1.391 . S
C2199 H2187 0.950 . S
C2199 C2195 1.393 . S
C2199 C2198 1.391 . S
H2200 C2208 0.950 . S
H2201 C2213 0.950 . S
H2202 C2210 0.950 . S
H2203 C2212 0.950 . S
H2204 C2214 0.950 . S
H2205 C2216 0.950 . S
H2206 C2218 0.950 . S
H2207 C2219 0.950 . S
C2208 H2200 0.950 . S
C2208 C2209 1.386 . S
C2208 C2210 1.391 . S
C2209 C2208 1.386 . S
C2209 C2213 1.393 . S
C2210 H2202 0.950 . S
C2210 C2208 1.391 . S
C2210 C2211 1.400 . S
C2211 C2210 1.400 . S
C2211 C2212 1.398 . S
C2211 C2217 1.491 . S
C2212 H2203 0.950 . S
C2212 C2211 1.398 . S
C2212 C2213 1.391 . S
C2213 H2201 0.950 . S
C2213 C2209 1.393 . S
C2213 C2212 1.391 . S
C2214 H2204 0.950 . S
C2214 C2215 1.386 . S
C2214 C2216 1.391 . S
C2215 C2214 1.386 . S
C2215 C2219 1.393 . S
C2216 H2205 0.950 . S
C2216 C2214 1.391 . S
C2216 C2217 1.400 . S
C2217 C2211 1.491 . S
C2217 C2216 1.400 . S
C2217 C2218 1.398 . S
C2218 H2206 0.950 . S
C2218 C2217 1.398 . S
C2218 C2219 1.391 . S
C2219 H2207 0.950 . S
C2219 C2215 1.393 . S
C2219 C2218 1.391 . S
H2220 C2228 0.950 . S
H2221 C2233 0.950 . S
H2222 C2230 0.950 . S
H2223 C2232 0.950 . S
H2224 C2234 0.950 . S
H2225 C2236 0.950 . S
H2226 C2238 0.950 . S
H2227 C2239 0.950 . S
C2228 H2220 0.950 . S
C2228 C2229 1.386 . S
C2228 C2230 1.391 . S
C2229 C2228 1.386 . S
C2229 C2233 1.393 . S
C2230 H2222 0.950 . S
C2230 C2228 1.391 . S
C2230 C2231 1.400 . S
C2231 C2230 1.400 . S
C2231 C2232 1.398 . S
C2231 C2237 1.491 . S
C2232 H2223 0.950 . S
C2232 C2231 1.398 . S
C2232 C2233 1.391 . S
C2233 H2221 0.950 . S
C2233 C2229 1.393 . S
C2233 C2232 1.391 . S
C2234 H2224 0.950 . S
C2234 C2235 1.386 . S
C2234 C2236 1.391 . S
C2235 C2234 1.386 . S
C2235 C2239 1.393 . S
C2236 H2225 0.950 . S
C2236 C2234 1.391 . S
C2236 C2237 1.400 . S
C2237 C2231 1.491 . S
C2237 C2236 1.400 . S
C2237 C2238 1.398 . S
C2238 H2226 0.950 . S
C2238 C2237 1.398 . S
C2238 C2239 1.391 . S
C2239 H2227 0.950 . S
C2239 C2235 1.393 . S
C2239 C2238 1.391 . S
H2240 C2248 0.950 . S
H2241 C2253 0.950 . S
H2242 C2250 0.950 . S
H2243 C2252 0.950 . S
H2244 C2254 0.950 . S
H2245 C2256 0.950 . S
H2246 C2258 0.950 . S
H2247 C2259 0.950 . S
C2248 H2240 0.950 . S
C2248 C2249 1.386 . S
C2248 C2250 1.391 . S
C2249 C2248 1.386 . S
C2249 C2253 1.393 . S
C2250 H2242 0.950 . S
C2250 C2248 1.391 . S
C2250 C2251 1.400 . S
C2251 C2250 1.400 . S
C2251 C2252 1.398 . S
C2251 C2257 1.491 . S
C2252 H2243 0.950 . S
C2252 C2251 1.398 . S
C2252 C2253 1.391 . S
C2253 H2241 0.950 . S
C2253 C2249 1.393 . S
C2253 C2252 1.391 . S
C2254 H2244 0.950 . S
C2254 C2255 1.386 . S
C2254 C2256 1.391 . S
C2255 C2254 1.386 . S
C2255 C2259 1.393 . S
C2256 H2245 0.950 . S
C2256 C2254 1.391 . S
C2256 C2257 1.400 . S
C2257 C2251 1.491 . S
C2257 C2256 1.400 . S
C2257 C2258 1.398 . S
C2258 H2246 0.950 . S
C2258 C2257 1.398 . S
C2258 C2259 1.391 . S
C2259 H2247 0.950 . S
C2259 C2255 1.393 . S
C2259 C2258 1.391 . S
H2260 C2268 0.950 . S
H2261 C2273 0.950 . S
H2262 C2270 0.950 . S
H2263 C2272 0.950 . S
H2264 C2274 0.950 . S
H2265 C2276 0.950 . S
H2266 C2278 0.950 . S
H2267 C2279 0.950 . S
C2268 H2260 0.950 . S
C2268 C2269 1.386 . S
C2268 C2270 1.391 . S
C2269 C2268 1.386 . S
C2269 C2273 1.393 . S
C2270 H2262 0.950 . S
C2270 C2268 1.391 . S
C2270 C2271 1.400 . S
C2271 C2270 1.400 . S
C2271 C2272 1.398 . S
C2271 C2277 1.491 . S
C2272 H2263 0.950 . S
C2272 C2271 1.398 . S
C2272 C2273 1.391 . S
C2273 H2261 0.950 . S
C2273 C2269 1.393 . S
C2273 C2272 1.391 . S
C2274 H2264 0.950 . S
C2274 C2275 1.386 . S
C2274 C2276 1.391 . S
C2275 C2274 1.386 . S
C2275 C2279 1.393 . S
C2276 H2265 0.950 . S
C2276 C2274 1.391 . S
C2276 C2277 1.400 . S
C2277 C2271 1.491 . S
C2277 C2276 1.400 . S
C2277 C2278 1.398 . S
C2278 H2266 0.950 . S
C2278 C2277 1.398 . S
C2278 C2279 1.391 . S
C2279 H2267 0.950 . S
C2279 C2275 1.393 . S
C2279 C2278 1.391 . S
H2280 C2288 0.950 . S
H2281 C2293 0.950 . S
H2282 C2290 0.950 . S
H2283 C2292 0.950 . S
H2284 C2294 0.950 . S
H2285 C2296 0.950 . S
H2286 C2298 0.950 . S
H2287 C2299 0.950 . S
C2288 H2280 0.950 . S
C2288 C2289 1.386 . S
C2288 C2290 1.391 . S
C2289 C2288 1.386 . S
C2289 C2293 1.393 . S
C2290 H2282 0.950 . S
C2290 C2288 1.391 . S
C2290 C2291 1.400 . S
C2291 C2290 1.400 . S
C2291 C2292 1.398 . S
C2291 C2297 1.491 . S
C2292 H2283 0.950 . S
C2292 C2291 1.398 . S
C2292 C2293 1.391 . S
C2293 H2281 0.950 . S
C2293 C2289 1.393 . S
C2293 C2292 1.391 . S
C2294 H2284 0.950 . S
C2294 C2295 1.386 . S
C2294 C2296 1.391 . S
C2295 C2294 1.386 . S
C2295 C2299 1.393 . S
C2296 H2285 0.950 . S
C2296 C2294 1.391 . S
C2296 C2297 1.400 . S
C2297 C2291 1.491 . S
C2297 C2296 1.400 . S
C2297 C2298 1.398 . S
C2298 H2286 0.950 . S
C2298 C2297 1.398 . S
C2298 C2299 1.391 . S
C2299 H2287 0.950 . S
C2299 C2295 1.393 . S
C2299 C2298 1.391 . S
H2300 C2308 0.950 . S
H2301 C2313 0.950 . S
H2302 C2310 0.950 . S
H2303 C2312 0.950 . S
H2304 C2314 0.950 . S
H2305 C2316 0.950 . S
H2306 C2318 0.950 . S
H2307 C2319 0.950 . S
C2308 H2300 0.950 . S
C2308 C2309 1.386 . S
C2308 C2310 1.391 . S
C2309 C2308 1.386 . S
C2309 C2313 1.393 . S
C2310 H2302 0.950 . S
C2310 C2308 1.391 . S
C2310 C2311 1.400 . S
C2311 C2310 1.400 . S
C2311 C2312 1.398 . S
C2311 C2317 1.491 . S
C2312 H2303 0.950 . S
C2312 C2311 1.398 . S
C2312 C2313 1.391 . S
C2313 H2301 0.950 . S
C2313 C2309 1.393 . S
C2313 C2312 1.391 . S
C2314 H2304 0.950 . S
C2314 C2315 1.386 . S
C2314 C2316 1.391 . S
C2315 C2314 1.386 . S
C2315 C2319 1.393 . S
C2316 H2305 0.950 . S
C2316 C2314 1.391 . S
C2316 C2317 1.400 . S
C2317 C2311 1.491 . S
C2317 C2316 1.400 . S
C2317 C2318 1.398 . S
C2318 H2306 0.950 . S
C2318 C2317 1.398 . S
C2318 C2319 1.391 . S
C2319 H2307 0.950 . S
C2319 C2315 1.393 . S
C2319 C2318 1.391 . S
H2320 C2328 0.950 . S
H2321 C2333 0.950 . S
H2322 C2330 0.950 . S
H2323 C2332 0.950 . S
H2324 C2334 0.950 . S
H2325 C2336 0.950 . S
H2326 C2338 0.950 . S
H2327 C2339 0.950 . S
C2328 H2320 0.950 . S
C2328 C2329 1.386 . S
C2328 C2330 1.391 . S
C2329 C2328 1.386 . S
C2329 C2333 1.393 . S
C2330 H2322 0.950 . S
C2330 C2328 1.391 . S
C2330 C2331 1.400 . S
C2331 C2330 1.400 . S
C2331 C2332 1.398 . S
C2331 C2337 1.491 . S
C2332 H2323 0.950 . S
C2332 C2331 1.398 . S
C2332 C2333 1.391 . S
C2333 H2321 0.950 . S
C2333 C2329 1.393 . S
C2333 C2332 1.391 . S
C2334 H2324 0.950 . S
C2334 C2335 1.386 . S
C2334 C2336 1.391 . S
C2335 C2334 1.386 . S
C2335 C2339 1.393 . S
C2336 H2325 0.950 . S
C2336 C2334 1.391 . S
C2336 C2337 1.400 . S
C2337 C2331 1.491 . S
C2337 C2336 1.400 . S
C2337 C2338 1.398 . S
C2338 H2326 0.950 . S
C2338 C2337 1.398 . S
C2338 C2339 1.391 . S
C2339 H2327 0.950 . S
C2339 C2335 1.393 . S
C2339 C2338 1.391 . S
H2340 C2348 0.950 . S
H2341 C2353 0.950 . S
H2342 C2350 0.950 . S
H2343 C2352 0.950 . S
H2344 C2354 0.950 . S
H2345 C2356 0.950 . S
H2346 C2358 0.950 . S
H2347 C2359 0.950 . S
C2348 H2340 0.950 . S
C2348 C2349 1.386 . S
C2348 C2350 1.391 . S
C2349 C2348 1.386 . S
C2349 C2353 1.393 . S
C2350 H2342 0.950 . S
C2350 C2348 1.391 . S
C2350 C2351 1.400 . S
C2351 C2350 1.400 . S
C2351 C2352 1.398 . S
C2351 C2357 1.491 . S
C2352 H2343 0.950 . S
C2352 C2351 1.398 . S
C2352 C2353 1.391 . S
C2353 H2341 0.950 . S
C2353 C2349 1.393 . S
C2353 C2352 1.391 . S
C2354 H2344 0.950 . S
C2354 C2355 1.386 . S
C2354 C2356 1.391 . S
C2355 C2354 1.386 . S
C2355 C2359 1.393 . S
C2356 H2345 0.950 . S
C2356 C2354 1.391 . S
C2356 C2357 1.400 . S
C2357 C2351 1.491 . S
C2357 C2356 1.400 . S
C2357 C2358 1.398 . S
C2358 H2346 0.950 . S
C2358 C2357 1.398 . S
C2358 C2359 1.391 . S
C2359 H2347 0.950 . S
C2359 C2355 1.393 . S
C2359 C2358 1.391 . S
H2360 C2368 0.950 . S
H2361 C2373 0.950 . S
H2362 C2370 0.950 . S
H2363 C2372 0.950 . S
H2364 C2374 0.950 . S
H2365 C2376 0.950 . S
H2366 C2378 0.950 . S
H2367 C2379 0.950 . S
C2368 H2360 0.950 . S
C2368 C2369 1.386 . S
C2368 C2370 1.391 . S
C2369 C2368 1.386 . S
C2369 C2373 1.393 . S
C2370 H2362 0.950 . S
C2370 C2368 1.391 . S
C2370 C2371 1.400 . S
C2371 C2370 1.400 . S
C2371 C2372 1.398 . S
C2371 C2377 1.491 . S
C2372 H2363 0.950 . S
C2372 C2371 1.398 . S
C2372 C2373 1.391 . S
C2373 H2361 0.950 . S
C2373 C2369 1.393 . S
C2373 C2372 1.391 . S
C2374 H2364 0.950 . S
C2374 C2375 1.386 . S
C2374 C2376 1.391 . S
C2375 C2374 1.386 . S
C2375 C2379 1.393 . S
C2376 H2365 0.950 . S
C2376 C2374 1.391 . S
C2376 C2377 1.400 . S
C2377 C2371 1.491 . S
C2377 C2376 1.400 . S
C2377 C2378 1.398 . S
C2378 H2366 0.950 . S
C2378 C2377 1.398 . S
C2378 C2379 1.391 . S
C2379 H2367 0.950 . S
C2379 C2375 1.393 . S
C2379 C2378 1.391 . S
H2380 C2388 0.950 . S
H2381 C2393 0.950 . S
H2382 C2390 0.950 . S
H2383 C2392 0.950 . S
H2384 C2394 0.950 . S
H2385 C2396 0.950 . S
H2386 C2398 0.950 . S
H2387 C2399 0.950 . S
C2388 H2380 0.950 . S
C2388 C2389 1.386 . S
C2388 C2390 1.391 . S
C2389 C2388 1.386 . S
C2389 C2393 1.393 . S
C2390 H2382 0.950 . S
C2390 C2388 1.391 . S
C2390 C2391 1.400 . S
C2391 C2390 1.400 . S
C2391 C2392 1.398 . S
C2391 C2397 1.491 . S
C2392 H2383 0.950 . S
C2392 C2391 1.398 . S
C2392 C2393 1.391 . S
C2393 H2381 0.950 . S
C2393 C2389 1.393 . S
C2393 C2392 1.391 . S
C2394 H2384 0.950 . S
C2394 C2395 1.386 . S
C2394 C2396 1.391 . S
C2395 C2394 1.386 . S
C2395 C2399 1.393 . S
C2396 H2385 0.950 . S
C2396 C2394 1.391 . S
C2396 C2397 1.400 . S
C2397 C2391 1.491 . S
C2397 C2396 1.400 . S
C2397 C2398 1.398 . S
C2398 H2386 0.950 . S
C2398 C2397 1.398 . S
C2398 C2399 1.391 . S
C2399 H2387 0.950 . S
C2399 C2395 1.393 . S
C2399 C2398 1.391 . S
H2400 C2408 0.950 . S
H2401 C2413 0.950 . S
H2402 C2410 0.950 . S
H2403 C2412 0.950 . S
H2404 C2414 0.950 . S
H2405 C2416 0.950 . S
H2406 C2418 0.950 1_545 S
H2407 C2419 0.950 . S
C2408 H2400 0.950 . S
C2408 C2409 1.386 . S
C2408 C2410 1.391 . S
C2409 C2408 1.386 . S
C2409 C2413 1.393 1_545 S
C2410 H2402 0.950 . S
C2410 C2408 1.391 . S
C2410 C2411 1.400 1_545 S
C2411 C2410 1.400 1_565 S
C2411 C2412 1.398 . S
C2411 C2417 1.491 . S
C2412 H2403 0.950 . S
C2412 C2411 1.398 . S
C2412 C2413 1.391 . S
C2413 H2401 0.950 . S
C2413 C2409 1.393 1_565 S
C2413 C2412 1.391 . S
C2414 H2404 0.950 . S
C2414 C2415 1.386 . S
C2414 C2416 1.391 . S
C2415 C2414 1.386 . S
C2415 C2419 1.393 . S
C2416 H2405 0.950 . S
C2416 C2414 1.391 . S
C2416 C2417 1.400 . S
C2417 C2411 1.491 . S
C2417 C2416 1.400 . S
C2417 C2418 1.398 . S
C2418 H2406 0.950 1_565 S
C2418 C2417 1.398 . S
C2418 C2419 1.391 . S
C2419 H2407 0.950 . S
C2419 C2415 1.393 . S
C2419 C2418 1.391 . S
H2420 C2428 0.950 . S
H2421 C2433 0.950 . S
H2422 C2430 0.950 . S
H2423 C2432 0.950 . S
H2424 C2434 0.950 . S
H2425 C2436 0.950 . S
H2426 C2438 0.950 . S
H2427 C2439 0.950 . S
C2428 H2420 0.950 . S
C2428 C2429 1.386 . S
C2428 C2430 1.391 . S
C2429 C2428 1.386 . S
C2429 C2433 1.393 . S
C2430 H2422 0.950 . S
C2430 C2428 1.391 . S
C2430 C2431 1.400 . S
C2431 C2430 1.400 . S
C2431 C2432 1.398 . S
C2431 C2437 1.491 . S
C2432 H2423 0.950 . S
C2432 C2431 1.398 . S
C2432 C2433 1.391 . S
C2433 H2421 0.950 . S
C2433 C2429 1.393 . S
C2433 C2432 1.391 . S
C2434 H2424 0.950 . S
C2434 C2435 1.386 . S
C2434 C2436 1.391 . S
C2435 C2434 1.386 . S
C2435 C2439 1.393 . S
C2436 H2425 0.950 . S
C2436 C2434 1.391 . S
C2436 C2437 1.400 . S
C2437 C2431 1.491 . S
C2437 C2436 1.400 . S
C2437 C2438 1.398 . S
C2438 H2426 0.950 . S
C2438 C2437 1.398 . S
C2438 C2439 1.391 . S
C2439 H2427 0.950 . S
C2439 C2435 1.393 . S
C2439 C2438 1.391 . S
H2440 C2448 0.950 . S
H2441 C2453 0.950 . S
H2442 C2450 0.950 . S
H2443 C2452 0.950 . S
H2444 C2454 0.950 . S
H2445 C2456 0.950 . S
H2446 C2458 0.950 . S
H2447 C2459 0.950 . S
C2448 H2440 0.950 . S
C2448 C2449 1.386 . S
C2448 C2450 1.391 . S
C2449 C2448 1.386 . S
C2449 C2453 1.393 . S
C2450 H2442 0.950 . S
C2450 C2448 1.391 . S
C2450 C2451 1.400 . S
C2451 C2450 1.400 . S
C2451 C2452 1.398 . S
C2451 C2457 1.491 . S
C2452 H2443 0.950 . S
C2452 C2451 1.398 . S
C2452 C2453 1.391 . S
C2453 H2441 0.950 . S
C2453 C2449 1.393 . S
C2453 C2452 1.391 . S
C2454 H2444 0.950 . S
C2454 C2455 1.386 . S
C2454 C2456 1.391 . S
C2455 C2454 1.386 . S
C2455 C2459 1.393 . S
C2456 H2445 0.950 . S
C2456 C2454 1.391 . S
C2456 C2457 1.400 . S
C2457 C2451 1.491 . S
C2457 C2456 1.400 . S
C2457 C2458 1.398 . S
C2458 H2446 0.950 . S
C2458 C2457 1.398 . S
C2458 C2459 1.391 . S
C2459 H2447 0.950 . S
C2459 C2455 1.393 . S
C2459 C2458 1.391 . S
H2460 C2468 0.950 . S
H2461 C2473 0.950 . S
H2462 C2470 0.950 . S
H2463 C2472 0.950 . S
H2464 C2474 0.950 . S
H2465 C2476 0.950 . S
H2466 C2478 0.950 . S
H2467 C2479 0.950 . S
C2468 H2460 0.950 . S
C2468 C2469 1.386 . S
C2468 C2470 1.391 . S
C2469 C2468 1.386 . S
C2469 C2473 1.393 1_545 S
C2470 H2462 0.950 . S
C2470 C2468 1.391 . S
C2470 C2471 1.400 1_545 S
C2471 C2470 1.400 1_565 S
C2471 C2472 1.398 . S
C2471 C2477 1.491 . S
C2472 H2463 0.950 . S
C2472 C2471 1.398 . S
C2472 C2473 1.391 . S
C2473 H2461 0.950 . S
C2473 C2469 1.393 1_565 S
C2473 C2472 1.391 . S
C2474 H2464 0.950 . S
C2474 C2475 1.386 . S
C2474 C2476 1.391 . S
C2475 C2474 1.386 . S
C2475 C2479 1.393 1_565 S
C2476 H2465 0.950 . S
C2476 C2474 1.391 . S
C2476 C2477 1.400 . S
C2477 C2471 1.491 . S
C2477 C2476 1.400 . S
C2477 C2478 1.398 1_565 S
C2478 H2466 0.950 . S
C2478 C2477 1.398 1_545 S
C2478 C2479 1.391 . S
C2479 H2467 0.950 . S
C2479 C2475 1.393 1_545 S
C2479 C2478 1.391 . S
H2480 C2488 0.950 . S
H2481 C2493 0.950 . S
H2482 C2490 0.950 . S
H2483 C2492 0.950 . S
H2484 C2494 0.956 . S
H2485 C2496 0.950 . S
H2486 C2498 0.950 . S
H2487 C2499 0.950 . S
C2488 H2480 0.950 . S
C2488 C2489 1.386 1_545 S
C2488 C2490 1.391 . S
C2489 C2488 1.386 1_565 S
C2489 C2493 1.393 . S
C2490 H2482 0.950 . S
C2490 C2488 1.391 . S
C2490 C2491 1.400 . S
C2491 C2490 1.400 . S
C2491 C2492 1.398 1_545 S
C2491 C2497 1.491 . S
C2492 H2483 0.950 . S
C2492 C2491 1.398 1_565 S
C2492 C2493 1.391 . S
C2493 H2481 0.950 . S
C2493 C2489 1.393 . S
C2493 C2492 1.391 . S
C2494 H2484 0.956 . S
C2494 C2495 1.377 1_565 S
C2494 C2496 1.394 . S
C2495 C2494 1.377 1_545 S
C2495 C2499 1.393 . S
C2496 H2485 0.950 . S
C2496 C2494 1.394 . S
C2496 C2497 1.400 1_565 S
C2497 C2491 1.491 . S
C2497 C2496 1.400 1_545 S
C2497 C2498 1.398 . S
C2498 H2486 0.950 . S
C2498 C2497 1.398 . S
C2498 C2499 1.391 . S
C2499 H2487 0.950 . S
C2499 C2495 1.393 . S
C2499 C2498 1.391 . S
H2500 C2508 0.950 . S
H2501 C2513 0.950 . S
H2502 C2510 0.950 . S
H2503 C2512 0.950 . S
H2504 C2514 0.950 . S
H2505 C2516 0.950 . S
H2506 C2518 0.950 . S
H2507 C2519 0.950 . S
C2508 H2500 0.950 . S
C2508 C2509 1.386 . S
C2508 C2510 1.391 . S
C2509 C2508 1.386 . S
C2509 C2513 1.393 . S
C2510 H2502 0.950 . S
C2510 C2508 1.391 . S
C2510 C2511 1.400 . S
C2511 C2510 1.400 . S
C2511 C2512 1.398 . S
C2511 C2517 1.491 . S
C2512 H2503 0.950 . S
C2512 C2511 1.398 . S
C2512 C2513 1.391 . S
C2513 H2501 0.950 . S
C2513 C2509 1.393 . S
C2513 C2512 1.391 . S
C2514 H2504 0.950 . S
C2514 C2515 1.386 . S
C2514 C2516 1.391 . S
C2515 C2514 1.386 . S
C2515 C2519 1.393 . S
C2516 H2505 0.950 . S
C2516 C2514 1.391 . S
C2516 C2517 1.400 . S
C2517 C2511 1.491 . S
C2517 C2516 1.400 . S
C2517 C2518 1.398 . S
C2518 H2506 0.950 . S
C2518 C2517 1.398 . S
C2518 C2519 1.391 . S
C2519 H2507 0.950 . S
C2519 C2515 1.393 . S
C2519 C2518 1.391 . S
H2520 C2528 0.950 . S
H2521 C2533 0.950 . S
H2522 C2530 0.950 . S
H2523 C2532 0.950 . S
H2524 C2534 0.950 . S
H2525 C2536 0.950 . S
H2526 C2538 0.950 . S
H2527 C2539 0.950 . S
C2528 H2520 0.950 . S
C2528 C2529 1.386 . S
C2528 C2530 1.391 . S
C2529 C2528 1.386 . S
C2529 C2533 1.393 . S
C2530 H2522 0.950 . S
C2530 C2528 1.391 . S
C2530 C2531 1.400 . S
C2531 C2530 1.400 . S
C2531 C2532 1.398 . S
C2531 C2537 1.491 . S
C2532 H2523 0.950 . S
C2532 C2531 1.398 . S
C2532 C2533 1.391 . S
C2533 H2521 0.950 . S
C2533 C2529 1.393 . S
C2533 C2532 1.391 . S
C2534 H2524 0.950 . S
C2534 C2535 1.386 . S
C2534 C2536 1.391 . S
C2535 C2534 1.386 . S
C2535 C2539 1.393 . S
C2536 H2525 0.950 . S
C2536 C2534 1.391 . S
C2536 C2537 1.400 . S
C2537 C2531 1.491 . S
C2537 C2536 1.400 . S
C2537 C2538 1.398 . S
C2538 H2526 0.950 . S
C2538 C2537 1.398 . S
C2538 C2539 1.391 . S
C2539 H2527 0.950 . S
C2539 C2535 1.393 . S
C2539 C2538 1.391 . S
H2540 C2548 0.950 . S
H2541 C2553 0.950 . S
H2542 C2550 0.950 . S
H2543 C2552 0.950 . S
H2544 C2554 0.950 . S
H2545 C2556 0.950 . S
H2546 C2558 0.950 . S
H2547 C2559 0.950 . S
C2548 H2540 0.950 . S
C2548 C2549 1.386 1_545 S
C2548 C2550 1.391 . S
C2549 C2548 1.386 1_565 S
C2549 C2553 1.393 . S
C2550 H2542 0.950 . S
C2550 C2548 1.391 . S
C2550 C2551 1.400 . S
C2551 C2550 1.400 . S
C2551 C2552 1.398 1_545 S
C2551 C2557 1.491 . S
C2552 H2543 0.950 . S
C2552 C2551 1.398 1_565 S
C2552 C2553 1.391 . S
C2553 H2541 0.950 . S
C2553 C2549 1.393 . S
C2553 C2552 1.391 . S
C2554 H2544 0.950 . S
C2554 C2555 1.386 1_565 S
C2554 C2556 1.391 . S
C2555 C2554 1.386 1_545 S
C2555 C2559 1.393 . S
C2556 H2545 0.950 . S
C2556 C2554 1.391 . S
C2556 C2557 1.400 1_565 S
C2557 C2551 1.491 . S
C2557 C2556 1.400 1_545 S
C2557 C2558 1.398 . S
C2558 H2546 0.950 . S
C2558 C2557 1.398 . S
C2558 C2559 1.391 . S
C2559 H2547 0.950 . S
C2559 C2555 1.393 . S
C2559 C2558 1.391 . S
H2560 C2568 0.950 . S
H2561 C2573 0.950 . S
H2562 C2570 0.950 . S
H2563 C2572 0.950 . S
H2564 C2574 0.950 . S
H2565 C2576 0.950 . S
H2566 C2578 0.950 1_455 S
H2567 C2579 0.950 . S
C2568 H2560 0.950 . S
C2568 C2569 1.386 . S
C2568 C2570 1.391 . S
C2569 C2568 1.386 . S
C2569 C2573 1.393 . S
C2570 H2562 0.950 . S
C2570 C2568 1.391 . S
C2570 C2571 1.400 . S
C2571 C2570 1.400 . S
C2571 C2572 1.398 . S
C2571 C2577 1.491 . S
C2572 H2563 0.950 . S
C2572 C2571 1.398 . S
C2572 C2573 1.391 . S
C2573 H2561 0.950 . S
C2573 C2569 1.393 . S
C2573 C2572 1.391 . S
C2574 H2564 0.950 . S
C2574 C2575 1.386 . S
C2574 C2576 1.391 . S
C2575 C2574 1.386 . S
C2575 C2579 1.393 . S
C2576 H2565 0.950 . S
C2576 C2574 1.391 . S
C2576 C2577 1.400 1_655 S
C2577 C2571 1.491 . S
C2577 C2576 1.400 1_455 S
C2577 C2578 1.398 1_455 S
C2578 H2566 0.950 1_655 S
C2578 C2577 1.398 1_655 S
C2578 C2579 1.391 . S
C2579 H2567 0.950 . S
C2579 C2575 1.393 . S
C2579 C2578 1.391 . S
H2580 C2588 0.950 . S
H2581 C2593 0.950 . S
H2582 C2590 0.950 . S
H2583 C2592 0.950 . S
H2584 C2594 0.950 . S
H2585 C2596 0.950 . S
H2586 C2598 0.950 . S
H2587 C2599 0.950 . S
C2588 H2580 0.950 . S
C2588 C2589 1.386 . S
C2588 C2590 1.391 . S
C2589 C2588 1.386 . S
C2589 C2593 1.393 . S
C2590 H2582 0.950 . S
C2590 C2588 1.391 . S
C2590 C2591 1.400 . S
C2591 C2590 1.400 . S
C2591 C2592 1.398 . S
C2591 C2597 1.491 . S
C2592 H2583 0.950 . S
C2592 C2591 1.398 . S
C2592 C2593 1.391 . S
C2593 H2581 0.950 . S
C2593 C2589 1.393 . S
C2593 C2592 1.391 . S
C2594 H2584 0.950 . S
C2594 C2595 1.386 . S
C2594 C2596 1.391 . S
C2595 C2594 1.386 . S
C2595 C2599 1.393 . S
C2596 H2585 0.950 . S
C2596 C2594 1.391 . S
C2596 C2597 1.400 . S
C2597 C2591 1.491 . S
C2597 C2596 1.400 . S
C2597 C2598 1.398 . S
C2598 H2586 0.950 . S
C2598 C2597 1.398 . S
C2598 C2599 1.391 . S
C2599 H2587 0.950 . S
C2599 C2595 1.393 . S
C2599 C2598 1.391 . S
H2600 C2608 0.950 . S
H2601 C2613 0.950 . S
H2602 C2610 0.950 . S
H2603 C2612 0.950 1_455 S
H2604 C2614 0.950 . S
H2605 C2616 0.950 . S
H2606 C2618 0.950 . S
H2607 C2619 0.950 . S
C2608 H2600 0.950 . S
C2608 C2609 1.386 . S
C2608 C2610 1.391 . S
C2609 C2608 1.386 . S
C2609 C2613 1.393 . S
C2610 H2602 0.950 . S
C2610 C2608 1.391 . S
C2610 C2611 1.400 1_655 S
C2611 C2610 1.400 1_455 S
C2611 C2612 1.398 1_455 S
C2611 C2617 1.491 . S
C2612 H2603 0.950 1_655 S
C2612 C2611 1.398 1_655 S
C2612 C2613 1.391 . S
C2613 H2601 0.950 . S
C2613 C2609 1.393 . S
C2613 C2612 1.391 . S
C2614 H2604 0.950 . S
C2614 C2615 1.386 . S
C2614 C2616 1.391 . S
C2615 C2614 1.386 . S
C2615 C2619 1.393 . S
C2616 H2605 0.950 . S
C2616 C2614 1.391 . S
C2616 C2617 1.400 . S
C2617 C2611 1.491 . S
C2617 C2616 1.400 . S
C2617 C2618 1.398 . S
C2618 H2606 0.950 . S
C2618 C2617 1.398 . S
C2618 C2619 1.391 . S
C2619 H2607 0.950 . S
C2619 C2615 1.393 . S
C2619 C2618 1.391 . S
H2620 C2628 0.950 . S
H2621 C2633 0.950 . S
H2622 C2630 0.950 . S
H2623 C2632 0.950 . S
H2624 C2634 0.950 . S
H2625 C2636 0.950 . S
H2626 C2638 0.950 . S
H2627 C2639 0.950 . S
C2628 H2620 0.950 . S
C2628 C2629 1.386 . S
C2628 C2630 1.391 . S
C2629 C2628 1.386 . S
C2629 C2633 1.393 . S
C2630 H2622 0.950 . S
C2630 C2628 1.391 . S
C2630 C2631 1.400 . S
C2631 C2630 1.400 . S
C2631 C2632 1.398 . S
C2631 C2637 1.491 . S
C2632 H2623 0.950 . S
C2632 C2631 1.398 . S
C2632 C2633 1.391 . S
C2633 H2621 0.950 . S
C2633 C2629 1.393 . S
C2633 C2632 1.391 . S
C2634 H2624 0.950 . S
C2634 C2635 1.386 . S
C2634 C2636 1.391 . S
C2635 C2634 1.386 . S
C2635 C2639 1.393 . S
C2636 H2625 0.950 . S
C2636 C2634 1.391 . S
C2636 C2637 1.400 . S
C2637 C2631 1.491 . S
C2637 C2636 1.400 . S
C2637 C2638 1.398 . S
C2638 H2626 0.950 . S
C2638 C2637 1.398 . S
C2638 C2639 1.391 . S
C2639 H2627 0.950 . S
C2639 C2635 1.393 . S
C2639 C2638 1.391 . S
H2640 C2648 0.950 . S
H2641 C2653 0.950 . S
H2642 C2650 0.950 . S
H2643 C2652 0.950 . S
H2644 C2654 0.950 . S
H2645 C2656 0.950 1_655 S
H2646 C2658 0.950 . S
H2647 C2659 0.950 . S
C2648 H2640 0.950 . S
C2648 C2649 1.386 . S
C2648 C2650 1.391 . S
C2649 C2648 1.386 . S
C2649 C2653 1.393 . S
C2650 H2642 0.950 . S
C2650 C2648 1.391 . S
C2650 C2651 1.400 . S
C2651 C2650 1.400 . S
C2651 C2652 1.398 . S
C2651 C2657 1.491 . S
C2652 H2643 0.950 . S
C2652 C2651 1.398 . S
C2652 C2653 1.391 . S
C2653 H2641 0.950 . S
C2653 C2649 1.393 . S
C2653 C2652 1.391 . S
C2654 H2644 0.950 . S
C2654 C2655 1.386 . S
C2654 C2656 1.391 . S
C2655 C2654 1.386 . S
C2655 C2659 1.393 . S
C2656 H2645 0.950 1_455 S
C2656 C2654 1.391 . S
C2656 C2657 1.400 1_455 S
C2657 C2651 1.491 . S
C2657 C2656 1.400 1_655 S
C2657 C2658 1.398 1_655 S
C2658 H2646 0.950 . S
C2658 C2657 1.398 1_455 S
C2658 C2659 1.391 . S
C2659 H2647 0.950 . S
C2659 C2655 1.393 . S
C2659 C2658 1.391 . S
H2660 C2668 0.950 . S
H2661 C2673 0.950 . S
H2662 C2670 0.950 . S
H2663 C2672 0.950 . S
H2664 C2674 0.950 . S
H2665 C2676 0.950 . S
H2666 C2678 0.950 . S
H2667 C2679 0.950 . S
C2668 H2660 0.950 . S
C2668 C2669 1.386 . S
C2668 C2670 1.391 . S
C2669 C2668 1.386 . S
C2669 C2673 1.393 . S
C2670 H2662 0.950 . S
C2670 C2668 1.391 . S
C2670 C2671 1.400 . S
C2671 C2670 1.400 . S
C2671 C2672 1.398 . S
C2671 C2677 1.491 . S
C2672 H2663 0.950 . S
C2672 C2671 1.398 . S
C2672 C2673 1.391 . S
C2673 H2661 0.950 . S
C2673 C2669 1.393 . S
C2673 C2672 1.391 . S
C2674 H2664 0.950 . S
C2674 C2675 1.386 . S
C2674 C2676 1.391 . S
C2675 C2674 1.386 . S
C2675 C2679 1.393 . S
C2676 H2665 0.950 . S
C2676 C2674 1.391 . S
C2676 C2677 1.400 . S
C2677 C2671 1.491 . S
C2677 C2676 1.400 . S
C2677 C2678 1.398 . S
C2678 H2666 0.950 . S
C2678 C2677 1.398 . S
C2678 C2679 1.391 . S
C2679 H2667 0.950 . S
C2679 C2675 1.393 . S
C2679 C2678 1.391 . S
H2680 C2688 0.950 . S
H2681 C2693 0.950 . S
H2682 C2690 0.950 . S
H2683 C2692 0.950 1_655 S
H2684 C2694 0.950 . S
H2685 C2696 0.950 . S
H2686 C2698 0.950 . S
H2687 C2699 0.950 . S
C2688 H2680 0.950 . S
C2688 C2689 1.386 . S
C2688 C2690 1.391 . S
C2689 C2688 1.386 . S
C2689 C2693 1.393 . S
C2690 H2682 0.950 . S
C2690 C2688 1.391 . S
C2690 C2691 1.400 1_455 S
C2691 C2690 1.400 1_655 S
C2691 C2692 1.398 1_655 S
C2691 C2697 1.491 . S
C2692 H2683 0.950 1_455 S
C2692 C2691 1.398 1_455 S
C2692 C2693 1.391 . S
C2693 H2681 0.950 . S
C2693 C2689 1.393 . S
C2693 C2692 1.391 . S
C2694 H2684 0.950 . S
C2694 C2695 1.386 . S
C2694 C2696 1.391 . S
C2695 C2694 1.386 . S
C2695 C2699 1.393 . S
C2696 H2685 0.950 . S
C2696 C2694 1.391 . S
C2696 C2697 1.400 . S
C2697 C2691 1.491 . S
C2697 C2696 1.400 . S
C2697 C2698 1.398 . S
C2698 H2686 0.950 . S
C2698 C2697 1.398 . S
C2698 C2699 1.391 . S
C2699 H2687 0.950 . S
C2699 C2695 1.393 . S
C2699 C2698 1.391 . S
H2700 C2708 0.950 . S
H2701 C2713 0.950 . S
H2702 C2710 0.950 . S
H2703 C2712 0.950 . S
H2704 C2714 0.950 . S
H2705 C2716 0.950 . S
H2706 C2718 0.950 . S
H2707 C2719 0.950 . S
C2708 H2700 0.950 . S
C2708 C2709 1.386 . S
C2708 C2710 1.391 . S
C2709 C2708 1.386 . S
C2709 C2713 1.393 . S
C2710 H2702 0.950 . S
C2710 C2708 1.391 . S
C2710 C2711 1.400 . S
C2711 C2710 1.400 . S
C2711 C2712 1.398 . S
C2711 C2717 1.491 . S
C2712 H2703 0.950 . S
C2712 C2711 1.398 . S
C2712 C2713 1.391 . S
C2713 H2701 0.950 . S
C2713 C2709 1.393 . S
C2713 C2712 1.391 . S
C2714 H2704 0.950 . S
C2714 C2715 1.386 . S
C2714 C2716 1.391 . S
C2715 C2714 1.386 . S
C2715 C2719 1.393 . S
C2716 H2705 0.950 . S
C2716 C2714 1.391 . S
C2716 C2717 1.400 . S
C2717 C2711 1.491 . S
C2717 C2716 1.400 . S
C2717 C2718 1.398 . S
C2718 H2706 0.950 . S
C2718 C2717 1.398 . S
C2718 C2719 1.391 . S
C2719 H2707 0.950 . S
C2719 C2715 1.393 . S
C2719 C2718 1.391 . S
H2720 C2728 0.950 . S
H2721 C2733 0.950 . S
H2722 C2730 0.950 1_455 S
H2723 C2732 0.950 . S
H2724 C2734 0.950 . S
H2725 C2736 0.950 . S
H2726 C2738 0.950 . S
H2727 C2739 0.950 1_545 S
C2728 H2720 0.950 . S
C2728 C2729 1.386 . S
C2728 C2730 1.391 . S
C2729 C2728 1.386 . S
C2729 C2733 1.393 1_545 S
C2730 H2722 0.950 1_655 S
C2730 C2728 1.391 . S
C2730 C2731 1.400 1_645 S
C2731 C2730 1.400 1_465 S
C2731 C2732 1.398 1_455 S
C2731 C2737 1.491 . S
C2732 H2723 0.950 . S
C2732 C2731 1.398 1_655 S
C2732 C2733 1.391 . S
C2733 H2721 0.950 . S
C2733 C2729 1.393 1_565 S
C2733 C2732 1.391 . S
C2734 H2724 0.950 . S
C2734 C2735 1.386 . S
C2734 C2736 1.391 . S
C2735 C2734 1.386 . S
C2735 C2739 1.393 . S
C2736 H2725 0.950 . S
C2736 C2734 1.391 . S
C2736 C2737 1.400 . S
C2737 C2731 1.491 . S
C2737 C2736 1.400 . S
C2737 C2738 1.398 1_565 S
C2738 H2726 0.950 . S
C2738 C2737 1.398 1_545 S
C2738 C2739 1.391 1_545 S
C2739 H2727 0.950 1_565 S
C2739 C2735 1.393 . S
C2739 C2738 1.391 1_565 S
H2740 C2748 0.950 . S
H2741 C2753 0.950 . S
H2742 C2750 0.950 . S
H2743 C2752 0.950 . S
H2744 C2754 0.950 . S
H2745 C2756 0.950 . S
H2746 C2758 0.950 . S
H2747 C2759 0.950 . S
C2748 H2740 0.950 . S
C2748 C2749 1.386 . S
C2748 C2750 1.391 . S
C2749 C2748 1.386 . S
C2749 C2753 1.393 . S
C2750 H2742 0.950 . S
C2750 C2748 1.391 . S
C2750 C2751 1.400 . S
C2751 C2750 1.400 . S
C2751 C2752 1.398 . S
C2751 C2757 1.491 . S
C2752 H2743 0.950 . S
C2752 C2751 1.398 . S
C2752 C2753 1.391 . S
C2753 H2741 0.950 . S
C2753 C2749 1.393 . S
C2753 C2752 1.391 . S
C2754 H2744 0.950 . S
C2754 C2755 1.386 . S
C2754 C2756 1.391 . S
C2755 C2754 1.386 . S
C2755 C2759 1.393 . S
C2756 H2745 0.950 . S
C2756 C2754 1.391 . S
C2756 C2757 1.400 . S
C2757 C2751 1.491 . S
C2757 C2756 1.400 . S
C2757 C2758 1.398 . S
C2758 H2746 0.950 . S
C2758 C2757 1.398 . S
C2758 C2759 1.391 . S
C2759 H2747 0.950 . S
C2759 C2755 1.393 . S
C2759 C2758 1.391 . S
H2760 C2768 0.950 . S
H2761 C2773 0.950 . S
H2762 C2770 0.950 . S
H2763 C2772 0.950 . S
H2764 C2774 0.950 . S
H2765 C2776 0.950 . S
H2766 C2778 0.950 . S
H2767 C2779 0.950 . S
C2768 H2760 0.950 . S
C2768 C2769 1.386 . S
C2768 C2770 1.391 . S
C2769 C2768 1.386 . S
C2769 C2773 1.393 . S
C2770 H2762 0.950 . S
C2770 C2768 1.391 . S
C2770 C2771 1.400 1_655 S
C2771 C2770 1.400 1_455 S
C2771 C2772 1.398 1_455 S
C2771 C2777 1.491 . S
C2772 H2763 0.950 . S
C2772 C2771 1.398 1_655 S
C2772 C2773 1.391 . S
C2773 H2761 0.950 . S
C2773 C2769 1.393 . S
C2773 C2772 1.391 . S
C2774 H2764 0.950 . S
C2774 C2775 1.386 . S
C2774 C2776 1.391 . S
C2775 C2774 1.386 . S
C2775 C2779 1.393 . S
C2776 H2765 0.950 . S
C2776 C2774 1.391 . S
C2776 C2777 1.400 . S
C2777 C2771 1.491 . S
C2777 C2776 1.400 . S
C2777 C2778 1.398 . S
C2778 H2766 0.950 . S
C2778 C2777 1.398 . S
C2778 C2779 1.391 . S
C2779 H2767 0.950 . S
C2779 C2775 1.393 . S
C2779 C2778 1.391 . S
H2780 C2788 0.950 . S
H2781 C2793 0.950 . S
H2782 C2790 0.950 . S
H2783 C2792 0.952 . S
H2784 C2794 0.950 . S
H2785 C2796 0.950 . S
H2786 C2798 0.950 . S
H2787 C2799 0.950 . S
C2788 H2780 0.950 . S
C2788 C2789 1.386 . S
C2788 C2790 1.391 1_545 S
C2789 C2788 1.386 . S
C2789 C2793 1.393 . S
C2790 H2782 0.950 . S
C2790 C2788 1.391 1_565 S
C2790 C2791 1.401 . S
C2791 C2790 1.401 . S
C2791 C2792 1.398 1_565 S
C2791 C2797 1.491 . S
C2792 H2783 0.952 . S
C2792 C2791 1.398 1_545 S
C2792 C2793 1.391 . S
C2793 H2781 0.950 . S
C2793 C2789 1.393 . S
C2793 C2792 1.391 . S
C2794 H2784 0.950 . S
C2794 C2795 1.386 . S
C2794 C2796 1.391 . S
C2795 C2794 1.386 . S
C2795 C2799 1.393 . S
C2796 H2785 0.950 . S
C2796 C2794 1.391 . S
C2796 C2797 1.400 . S
C2797 C2791 1.491 . S
C2797 C2796 1.400 . S
C2797 C2798 1.398 . S
C2798 H2786 0.950 . S
C2798 C2797 1.398 . S
C2798 C2799 1.391 . S
C2799 H2787 0.950 . S
C2799 C2795 1.393 . S
C2799 C2798 1.391 . S
H2800 C2808 0.950 . S
H2801 C2813 0.950 . S
H2802 C2810 0.950 . S
H2803 C2812 0.953 . S
H2804 C2814 0.950 . S
H2805 C2816 0.950 . S
H2806 C2818 0.950 1_655 S
H2807 C2819 0.952 . S
C2808 H2800 0.950 . S
C2808 C2809 1.386 . S
C2808 C2810 1.391 . S
C2809 C2808 1.386 . S
C2809 C2813 1.393 . S
C2810 H2802 0.950 . S
C2810 C2808 1.391 . S
C2810 C2811 1.400 . S
C2811 C2810 1.400 . S
C2811 C2812 1.398 . S
C2811 C2817 1.491 . S
C2812 H2803 0.953 . S
C2812 C2811 1.398 . S
C2812 C2813 1.391 . S
C2813 H2801 0.950 . S
C2813 C2809 1.393 . S
C2813 C2812 1.391 . S
C2814 H2804 0.950 . S
C2814 C2815 1.386 . S
C2814 C2816 1.391 . S
C2815 C2814 1.386 . S
C2815 C2819 1.385 1_565 S
C2816 H2805 0.950 . S
C2816 C2814 1.391 . S
C2816 C2817 1.400 1_465 S
C2817 C2811 1.491 . S
C2817 C2816 1.400 1_645 S
C2817 C2818 1.398 1_655 S
C2818 H2806 0.950 1_455 S
C2818 C2817 1.398 1_455 S
C2818 C2819 1.397 . S
C2819 H2807 0.952 . S
C2819 C2815 1.385 1_545 S
C2819 C2818 1.397 . S
H2820 C2828 0.950 . S
H2821 C2833 0.950 . S
H2822 C2830 0.950 . S
H2823 C2832 0.950 . S
H2824 C2834 0.950 . S
H2825 C2836 0.950 . S
H2826 C2838 0.950 . S
H2827 C2839 0.950 . S
C2828 H2820 0.950 . S
C2828 C2829 1.386 . S
C2828 C2830 1.391 . S
C2829 C2828 1.386 . S
C2829 C2833 1.393 . S
C2830 H2822 0.950 . S
C2830 C2828 1.391 . S
C2830 C2831 1.400 . S
C2831 C2830 1.400 . S
C2831 C2832 1.398 . S
C2831 C2837 1.491 . S
C2832 H2823 0.950 . S
C2832 C2831 1.398 . S
C2832 C2833 1.391 . S
C2833 H2821 0.950 . S
C2833 C2829 1.393 . S
C2833 C2832 1.391 . S
C2834 H2824 0.950 . S
C2834 C2835 1.386 . S
C2834 C2836 1.391 . S
C2835 C2834 1.386 . S
C2835 C2839 1.393 . S
C2836 H2825 0.950 . S
C2836 C2834 1.391 . S
C2836 C2837 1.400 . S
C2837 C2831 1.491 . S
C2837 C2836 1.400 . S
C2837 C2838 1.398 . S
C2838 H2826 0.950 . S
C2838 C2837 1.398 . S
C2838 C2839 1.391 . S
C2839 H2827 0.950 . S
C2839 C2835 1.393 . S
C2839 C2838 1.391 . S
H2840 C2848 0.950 . S
H2841 C2853 0.950 . S
H2842 C2850 0.950 . S
H2843 C2852 0.950 1_655 S
H2844 C2854 0.950 . S
H2845 C2856 0.950 . S
H2846 C2858 0.950 . S
H2847 C2859 0.950 . S
C2848 H2840 0.950 . S
C2848 C2849 1.386 . S
C2848 C2850 1.391 . S
C2849 C2848 1.386 . S
C2849 C2853 1.393 . S
C2850 H2842 0.950 . S
C2850 C2848 1.391 . S
C2850 C2851 1.400 1_455 S
C2851 C2850 1.400 1_655 S
C2851 C2852 1.398 1_655 S
C2851 C2857 1.491 . S
C2852 H2843 0.950 1_455 S
C2852 C2851 1.398 1_455 S
C2852 C2853 1.391 . S
C2853 H2841 0.950 . S
C2853 C2849 1.393 . S
C2853 C2852 1.391 . S
C2854 H2844 0.950 . S
C2854 C2855 1.386 . S
C2854 C2856 1.391 . S
C2855 C2854 1.386 . S
C2855 C2859 1.393 . S
C2856 H2845 0.950 . S
C2856 C2854 1.391 . S
C2856 C2857 1.400 . S
C2857 C2851 1.491 . S
C2857 C2856 1.400 . S
C2857 C2858 1.398 . S
C2858 H2846 0.950 . S
C2858 C2857 1.398 . S
C2858 C2859 1.391 . S
C2859 H2847 0.950 . S
C2859 C2855 1.393 . S
C2859 C2858 1.391 . S
H2860 C2868 0.950 . S
H2861 C2873 0.950 . S
H2862 C2870 0.950 . S
H2863 C2872 0.950 . S
H2864 C2874 0.950 . S
H2865 C2876 0.950 . S
H2866 C2878 0.950 . S
H2867 C2879 0.950 1_565 S
C2868 H2860 0.950 . S
C2868 C2869 1.386 . S
C2868 C2870 1.391 . S
C2869 C2868 1.386 . S
C2869 C2873 1.393 1_565 S
C2870 H2862 0.950 . S
C2870 C2868 1.391 . S
C2870 C2871 1.400 1_565 S
C2871 C2870 1.400 1_545 S
C2871 C2872 1.398 . S
C2871 C2877 1.491 . S
C2872 H2863 0.950 . S
C2872 C2871 1.398 . S
C2872 C2873 1.391 . S
C2873 H2861 0.950 . S
C2873 C2869 1.393 1_545 S
C2873 C2872 1.391 . S
C2874 H2864 0.950 . S
C2874 C2875 1.386 . S
C2874 C2876 1.391 . S
C2875 C2874 1.386 . S
C2875 C2879 1.393 . S
C2876 H2865 0.950 . S
C2876 C2874 1.391 . S
C2876 C2877 1.400 . S
C2877 C2871 1.491 . S
C2877 C2876 1.400 . S
C2877 C2878 1.398 1_545 S
C2878 H2866 0.950 . S
C2878 C2877 1.398 1_565 S
C2878 C2879 1.391 1_565 S
C2879 H2867 0.950 1_545 S
C2879 C2875 1.393 . S
C2879 C2878 1.391 1_545 S
H2880 C2888 0.950 . S
H2881 C2893 0.950 . S
H2882 C2890 0.950 . S
H2883 C2892 0.950 . S
H2884 C2894 0.950 . S
H2885 C2896 0.950 . S
H2886 C2898 0.950 . S
H2887 C2899 0.950 . S
C2888 H2880 0.950 . S
C2888 C2889 1.386 1_655 S
C2888 C2890 1.391 . S
C2889 C2888 1.386 1_455 S
C2889 C2893 1.393 . S
C2890 H2882 0.950 . S
C2890 C2888 1.391 . S
C2890 C2891 1.400 1_655 S
C2891 C2890 1.400 1_455 S
C2891 C2892 1.398 . S
C2891 C2897 1.491 1_454 S
C2892 H2883 0.950 . S
C2892 C2891 1.398 . S
C2892 C2893 1.391 . S
C2893 H2881 0.950 . S
C2893 C2889 1.393 . S
C2893 C2892 1.391 . S
C2894 H2884 0.950 . S
C2894 C2895 1.386 1_455 S
C2894 C2896 1.391 . S
C2895 C2894 1.386 1_655 S
C2895 C2899 1.393 . S
C2896 H2885 0.950 . S
C2896 C2894 1.391 . S
C2896 C2897 1.400 1_455 S
C2897 C2891 1.491 1_656 S
C2897 C2896 1.400 1_655 S
C2897 C2898 1.398 . S
C2898 H2886 0.950 . S
C2898 C2897 1.398 . S
C2898 C2899 1.391 . S
C2899 H2887 0.950 . S
C2899 C2895 1.393 . S
C2899 C2898 1.391 . S
H2900 C2908 0.950 . S
H2901 C2913 0.950 . S
H2902 C2910 0.950 . S
H2903 C2912 0.950 . S
H2904 C2914 0.950 . S
H2905 C2916 0.950 . S
H2906 C2918 0.950 . S
H2907 C2919 0.950 . S
C2908 H2900 0.950 . S
C2908 C2909 1.386 . S
C2908 C2910 1.391 . S
C2909 C2908 1.386 . S
C2909 C2913 1.393 . S
C2910 H2902 0.950 . S
C2910 C2908 1.391 . S
C2910 C2911 1.400 . S
C2911 C2910 1.400 . S
C2911 C2912 1.398 . S
C2911 C2917 1.491 1_556 S
C2912 H2903 0.950 . S
C2912 C2911 1.398 . S
C2912 C2913 1.391 . S
C2913 H2901 0.950 . S
C2913 C2909 1.393 . S
C2913 C2912 1.391 . S
C2914 H2904 0.950 . S
C2914 C2915 1.386 . S
C2914 C2916 1.391 . S
C2915 C2914 1.386 . S
C2915 C2919 1.393 . S
C2916 H2905 0.950 . S
C2916 C2914 1.391 . S
C2916 C2917 1.400 . S
C2917 C2911 1.491 1_554 S
C2917 C2916 1.400 . S
C2917 C2918 1.398 . S
C2918 H2906 0.950 . S
C2918 C2917 1.398 . S
C2918 C2919 1.391 . S
C2919 H2907 0.950 . S
C2919 C2915 1.393 . S
C2919 C2918 1.391 . S
H2920 C2928 0.950 . S
H2921 C2933 0.950 . S
H2922 C2930 0.950 . S
H2923 C2932 0.950 . S
H2924 C2934 0.950 . S
H2925 C2936 0.950 . S
H2926 C2938 0.950 . S
H2927 C2939 0.950 . S
C2928 H2920 0.950 . S
C2928 C2929 1.386 . S
C2928 C2930 1.391 . S
C2929 C2928 1.386 . S
C2929 C2933 1.393 1_655 S
C2930 H2922 0.950 . S
C2930 C2928 1.391 . S
C2930 C2931 1.400 . S
C2931 C2930 1.400 . S
C2931 C2932 1.398 1_655 S
C2931 C2937 1.491 1_655 S
C2932 H2923 0.950 . S
C2932 C2931 1.398 1_455 S
C2932 C2933 1.391 . S
C2933 H2921 0.950 . S
C2933 C2929 1.393 1_455 S
C2933 C2932 1.391 . S
C2934 H2924 0.950 . S
C2934 C2935 1.386 . S
C2934 C2936 1.391 . S
C2935 C2934 1.386 . S
C2935 C2939 1.393 1_455 S
C2936 H2925 0.950 . S
C2936 C2934 1.391 . S
C2936 C2937 1.400 . S
C2937 C2931 1.491 1_455 S
C2937 C2936 1.400 . S
C2937 C2938 1.398 1_455 S
C2938 H2926 0.950 . S
C2938 C2937 1.398 1_655 S
C2938 C2939 1.391 . S
C2939 H2927 0.950 . S
C2939 C2935 1.393 1_655 S
C2939 C2938 1.391 . S
H2940 C2948 0.950 . S
H2941 C2953 0.950 . S
H2942 C2950 0.950 . S
H2943 C2952 0.950 . S
H2944 C2954 0.950 . S
H2945 C2956 0.950 . S
H2946 C2958 0.950 . S
H2947 C2959 0.950 . S
C2948 H2940 0.950 . S
C2948 C2949 1.386 . S
C2948 C2950 1.391 . S
C2949 C2948 1.386 . S
C2949 C2953 1.393 . S
C2950 H2942 0.950 . S
C2950 C2948 1.391 . S
C2950 C2951 1.400 . S
C2951 C2950 1.400 . S
C2951 C2952 1.398 . S
C2951 C2957 1.491 . S
C2952 H2943 0.950 . S
C2952 C2951 1.398 . S
C2952 C2953 1.391 . S
C2953 H2941 0.950 . S
C2953 C2949 1.393 . S
C2953 C2952 1.391 . S
C2954 H2944 0.950 . S
C2954 C2955 1.386 . S
C2954 C2956 1.391 . S
C2955 C2954 1.386 . S
C2955 C2959 1.393 . S
C2956 H2945 0.950 . S
C2956 C2954 1.391 . S
C2956 C2957 1.400 . S
C2957 C2951 1.491 . S
C2957 C2956 1.400 . S
C2957 C2958 1.398 . S
C2958 H2946 0.950 . S
C2958 C2957 1.398 . S
C2958 C2959 1.391 . S
C2959 H2947 0.950 . S
C2959 C2955 1.393 . S
C2959 C2958 1.391 . S
H2960 C2968 0.950 . S
H2961 C2973 0.950 . S
H2962 C2970 0.950 . S
H2963 C2972 0.950 . S
H2964 C2974 0.950 . S
H2965 C2976 0.950 . S
H2966 C2978 0.950 . S
H2967 C2979 0.950 . S
C2968 H2960 0.950 . S
C2968 C2969 1.386 . S
C2968 C2970 1.391 . S
C2969 C2968 1.386 . S
C2969 C2973 1.393 . S
C2970 H2962 0.950 . S
C2970 C2968 1.391 . S
C2970 C2971 1.400 . S
C2971 C2970 1.400 . S
C2971 C2972 1.398 . S
C2971 C2977 1.491 1_556 S
C2972 H2963 0.950 . S
C2972 C2971 1.398 . S
C2972 C2973 1.391 . S
C2973 H2961 0.950 . S
C2973 C2969 1.393 . S
C2973 C2972 1.391 . S
C2974 H2964 0.950 . S
C2974 C2975 1.386 . S
C2974 C2976 1.391 . S
C2975 C2974 1.386 . S
C2975 C2979 1.393 . S
C2976 H2965 0.950 . S
C2976 C2974 1.391 . S
C2976 C2977 1.400 . S
C2977 C2971 1.491 1_554 S
C2977 C2976 1.400 . S
C2977 C2978 1.398 . S
C2978 H2966 0.950 . S
C2978 C2977 1.398 . S
C2978 C2979 1.391 . S
C2979 H2967 0.950 . S
C2979 C2975 1.393 . S
C2979 C2978 1.391 . S
H2980 C2988 0.950 . S
H2981 C2993 0.950 . S
H2982 C2990 0.950 . S
H2983 C2992 0.950 . S
H2984 C2994 0.950 . S
H2985 C2996 0.950 . S
H2986 C2998 0.950 . S
H2987 C2999 0.950 . S
C2988 H2980 0.950 . S
C2988 C2989 1.386 1_455 S
C2988 C2990 1.391 . S
C2989 C2988 1.386 1_655 S
C2989 C2993 1.393 . S
C2990 H2982 0.950 . S
C2990 C2988 1.391 . S
C2990 C2991 1.400 1_455 S
C2991 C2990 1.400 1_655 S
C2991 C2992 1.398 . S
C2991 C2997 1.491 1_655 S
C2992 H2983 0.950 . S
C2992 C2991 1.398 . S
C2992 C2993 1.391 . S
C2993 H2981 0.950 . S
C2993 C2989 1.393 . S
C2993 C2992 1.391 . S
C2994 H2984 0.950 . S
C2994 C2995 1.386 1_655 S
C2994 C2996 1.391 . S
C2995 C2994 1.386 1_455 S
C2995 C2999 1.393 . S
C2996 H2985 0.950 . S
C2996 C2994 1.391 . S
C2996 C2997 1.400 1_655 S
C2997 C2991 1.491 1_455 S
C2997 C2996 1.400 1_455 S
C2997 C2998 1.398 . S
C2998 H2986 0.950 . S
C2998 C2997 1.398 . S
C2998 C2999 1.391 . S
C2999 H2987 0.950 . S
C2999 C2995 1.393 . S
C2999 C2998 1.391 . S
H3000 C3008 0.950 . S
H3001 C3013 0.950 . S
H3002 C3010 0.950 . S
H3003 C3012 0.950 . S
H3004 C3014 0.950 . S
H3005 C3016 0.950 . S
H3006 C3018 0.950 . S
H3007 C3019 0.950 . S
C3008 H3000 0.950 . S
C3008 C3009 1.386 . S
C3008 C3010 1.391 . S
C3009 C3008 1.386 . S
C3009 C3013 1.393 . S
C3010 H3002 0.950 . S
C3010 C3008 1.391 . S
C3010 C3011 1.400 . S
C3011 C3010 1.400 . S
C3011 C3012 1.398 . S
C3011 C3017 1.491 . S
C3012 H3003 0.950 . S
C3012 C3011 1.398 . S
C3012 C3013 1.391 . S
C3013 H3001 0.950 . S
C3013 C3009 1.393 . S
C3013 C3012 1.391 . S
C3014 H3004 0.950 . S
C3014 C3015 1.386 . S
C3014 C3016 1.391 . S
C3015 C3014 1.386 . S
C3015 C3019 1.393 . S
C3016 H3005 0.950 . S
C3016 C3014 1.391 . S
C3016 C3017 1.400 . S
C3017 C3011 1.491 . S
C3017 C3016 1.400 . S
C3017 C3018 1.398 . S
C3018 H3006 0.950 . S
C3018 C3017 1.398 . S
C3018 C3019 1.391 . S
C3019 H3007 0.950 . S
C3019 C3015 1.393 . S
C3019 C3018 1.391 . S
H3020 C3028 0.950 . S
H3021 C3033 0.950 . S
H3022 C3030 0.950 . S
H3023 C3032 0.953 . S
H3024 C3034 0.950 . S
H3025 C3036 0.950 . S
H3026 C3038 0.953 . S
H3027 C3039 0.950 . S
C3028 H3020 0.950 . S
C3028 C3029 1.386 1_655 S
C3028 C3030 1.391 . S
C3029 C3028 1.386 1_455 S
C3029 C3033 1.397 . S
C3030 H3022 0.950 . S
C3030 C3028 1.391 . S
C3030 C3031 1.401 1_655 S
C3031 C3030 1.401 1_455 S
C3031 C3032 1.397 1_565 S
C3031 C3037 1.490 1_465 S
C3032 H3023 0.953 . S
C3032 C3031 1.397 1_545 S
C3032 C3033 1.388 1_545 S
C3033 H3021 0.950 . S
C3033 C3029 1.397 . S
C3033 C3032 1.388 1_565 S
C3034 H3024 0.950 . S
C3034 C3035 1.386 1_455 S
C3034 C3036 1.391 . S
C3035 C3034 1.386 1_655 S
C3035 C3039 1.397 . S
C3036 H3025 0.950 . S
C3036 C3034 1.391 . S
C3036 C3037 1.401 1_455 S
C3037 C3031 1.490 1_645 S
C3037 C3036 1.401 1_655 S
C3037 C3038 1.397 1_545 S
C3038 H3026 0.953 . S
C3038 C3037 1.397 1_565 S
C3038 C3039 1.388 1_565 S
C3039 H3027 0.950 . S
C3039 C3035 1.397 . S
C3039 C3038 1.388 1_545 S
H3040 C3048 0.950 . S
H3041 C3053 0.950 . S
H3042 C3050 0.950 . S
H3043 C3052 0.950 . S
H3044 C3054 0.950 . S
H3045 C3056 0.950 . S
H3046 C3058 0.950 . S
H3047 C3059 0.950 . S
C3048 H3040 0.950 . S
C3048 C3049 1.386 . S
C3048 C3050 1.391 . S
C3049 C3048 1.386 . S
C3049 C3053 1.393 . S
C3050 H3042 0.950 . S
C3050 C3048 1.391 . S
C3050 C3051 1.400 . S
C3051 C3050 1.400 . S
C3051 C3052 1.398 . S
C3051 C3057 1.491 . S
C3052 H3043 0.950 . S
C3052 C3051 1.398 . S
C3052 C3053 1.391 . S
C3053 H3041 0.950 . S
C3053 C3049 1.393 . S
C3053 C3052 1.391 . S
C3054 H3044 0.950 . S
C3054 C3055 1.386 . S
C3054 C3056 1.391 . S
C3055 C3054 1.386 . S
C3055 C3059 1.393 . S
C3056 H3045 0.950 . S
C3056 C3054 1.391 . S
C3056 C3057 1.400 . S
C3057 C3051 1.491 . S
C3057 C3056 1.400 . S
C3057 C3058 1.398 . S
C3058 H3046 0.950 . S
C3058 C3057 1.398 . S
C3058 C3059 1.391 . S
C3059 H3047 0.950 . S
C3059 C3055 1.393 . S
C3059 C3058 1.391 . S
H3060 C3068 0.950 . S
H3061 C3073 0.950 . S
H3062 C3070 0.950 . S
H3063 C3072 0.950 . S
H3064 C3074 0.950 . S
H3065 C3076 0.950 . S
H3066 C3078 0.950 . S
H3067 C3079 0.950 . S
C3068 H3060 0.950 . S
C3068 C3069 1.386 1_565 S
C3068 C3070 1.391 . S
C3069 C3068 1.386 1_545 S
C3069 C3073 1.393 . S
C3070 H3062 0.950 . S
C3070 C3068 1.391 . S
C3070 C3071 1.372 1_565 S
C3071 C3070 1.372 1_545 S
C3071 C3072 1.429 . S
C3071 C3077 1.488 1_545 S
C3072 H3063 0.950 . S
C3072 C3071 1.429 . S
C3072 C3073 1.391 . S
C3073 H3061 0.950 . S
C3073 C3069 1.393 . S
C3073 C3072 1.391 . S
C3074 H3064 0.950 . S
C3074 C3075 1.386 1_545 S
C3074 C3076 1.391 . S
C3075 C3074 1.386 1_565 S
C3075 C3079 1.393 . S
C3076 H3065 0.950 . S
C3076 C3074 1.391 . S
C3076 C3077 1.372 1_545 S
C3077 C3071 1.488 1_565 S
C3077 C3076 1.372 1_565 S
C3077 C3078 1.429 . S
C3078 H3066 0.950 . S
C3078 C3077 1.429 . S
C3078 C3079 1.391 . S
C3079 H3067 0.950 . S
C3079 C3075 1.393 . S
C3079 C3078 1.391 . S
H3080 C3088 0.950 . S
H3081 C3093 0.950 . S
H3082 C3090 0.950 . S
H3083 C3092 0.950 . S
H3084 C3094 0.950 . S
H3085 C3096 0.950 . S
H3086 C3098 0.950 . S
H3087 C3099 0.950 . S
C3088 H3080 0.950 . S
C3088 C3089 1.386 . S
C3088 C3090 1.391 . S
C3089 C3088 1.386 . S
C3089 C3093 1.393 . S
C3090 H3082 0.950 . S
C3090 C3088 1.391 . S
C3090 C3091 1.400 . S
C3091 C3090 1.400 . S
C3091 C3092 1.398 . S
C3091 C3097 1.491 . S
C3092 H3083 0.950 . S
C3092 C3091 1.398 . S
C3092 C3093 1.391 . S
C3093 H3081 0.950 . S
C3093 C3089 1.393 . S
C3093 C3092 1.391 . S
C3094 H3084 0.950 . S
C3094 C3095 1.386 . S
C3094 C3096 1.391 . S
C3095 C3094 1.386 . S
C3095 C3099 1.393 . S
C3096 H3085 0.950 . S
C3096 C3094 1.391 . S
C3096 C3097 1.400 . S
C3097 C3091 1.491 . S
C3097 C3096 1.400 . S
C3097 C3098 1.398 . S
C3098 H3086 0.950 . S
C3098 C3097 1.398 . S
C3098 C3099 1.391 . S
C3099 H3087 0.950 . S
C3099 C3095 1.393 . S
C3099 C3098 1.391 . S
H3100 C3108 0.950 . S
H3101 C3113 0.950 . S
H3102 C3110 0.950 . S
H3103 C3112 0.950 . S
H3104 C3114 0.950 . S
H3105 C3116 0.950 . S
H3106 C3118 0.950 . S
H3107 C3119 0.950 . S
C3108 H3100 0.950 . S
C3108 C3109 1.386 . S
C3108 C3110 1.391 . S
C3109 C3108 1.386 . S
C3109 C3113 1.393 1_565 S
C3110 H3102 0.950 . S
C3110 C3108 1.391 . S
C3110 C3111 1.403 . S
C3111 C3110 1.403 . S
C3111 C3112 1.395 1_565 S
C3111 C3117 1.490 1_565 S
C3112 H3103 0.950 . S
C3112 C3111 1.395 1_545 S
C3112 C3113 1.391 . S
C3113 H3101 0.950 . S
C3113 C3109 1.393 1_545 S
C3113 C3112 1.391 . S
C3114 H3104 0.950 . S
C3114 C3115 1.386 . S
C3114 C3116 1.391 . S
C3115 C3114 1.386 . S
C3115 C3119 1.393 1_545 S
C3116 H3105 0.950 . S
C3116 C3114 1.391 . S
C3116 C3117 1.404 . S
C3117 C3111 1.490 1_545 S
C3117 C3116 1.404 . S
C3117 C3118 1.395 1_545 S
C3118 H3106 0.950 . S
C3118 C3117 1.395 1_565 S
C3118 C3119 1.391 . S
C3119 H3107 0.950 . S
C3119 C3115 1.393 1_565 S
C3119 C3118 1.391 . S
H3120 C3128 0.950 . S
H3121 C3133 0.950 . S
H3122 C3130 0.950 . S
H3123 C3132 0.950 . S
H3124 C3134 0.950 . S
H3125 C3136 0.950 . S
H3126 C3138 0.950 . S
H3127 C3139 0.950 . S
C3128 H3120 0.950 . S
C3128 C3129 1.386 . S
C3128 C3130 1.391 . S
C3129 C3128 1.386 . S
C3129 C3133 1.393 . S
C3130 H3122 0.950 . S
C3130 C3128 1.391 . S
C3130 C3131 1.400 . S
C3131 C3130 1.400 . S
C3131 C3132 1.398 . S
C3131 C3137 1.491 . S
C3132 H3123 0.950 . S
C3132 C3131 1.398 . S
C3132 C3133 1.391 . S
C3133 H3121 0.950 . S
C3133 C3129 1.393 . S
C3133 C3132 1.391 . S
C3134 H3124 0.950 . S
C3134 C3135 1.386 . S
C3134 C3136 1.391 . S
C3135 C3134 1.386 . S
C3135 C3139 1.393 . S
C3136 H3125 0.950 . S
C3136 C3134 1.391 . S
C3136 C3137 1.400 . S
C3137 C3131 1.491 . S
C3137 C3136 1.400 . S
C3137 C3138 1.398 . S
C3138 H3126 0.950 . S
C3138 C3137 1.398 . S
C3138 C3139 1.391 . S
C3139 H3127 0.950 . S
C3139 C3135 1.393 . S
C3139 C3138 1.391 . S
H3140 C3148 0.950 . S
H3141 C3153 0.950 . S
H3142 C3150 0.950 . S
H3143 C3152 0.950 . S
H3144 C3154 0.950 . S
H3145 C3156 0.950 . S
H3146 C3158 0.950 . S
H3147 C3159 0.950 . S
C3148 H3140 0.950 . S
C3148 C3149 1.386 . S
C3148 C3150 1.391 . S
C3149 C3148 1.386 . S
C3149 C3153 1.393 . S
C3150 H3142 0.950 . S
C3150 C3148 1.391 . S
C3150 C3151 1.400 . S
C3151 C3150 1.400 . S
C3151 C3152 1.398 . S
C3151 C3157 1.491 . S
C3152 H3143 0.950 . S
C3152 C3151 1.398 . S
C3152 C3153 1.391 . S
C3153 H3141 0.950 . S
C3153 C3149 1.393 . S
C3153 C3152 1.391 . S
C3154 H3144 0.950 . S
C3154 C3155 1.386 . S
C3154 C3156 1.391 . S
C3155 C3154 1.386 . S
C3155 C3159 1.393 . S
C3156 H3145 0.950 . S
C3156 C3154 1.391 . S
C3156 C3157 1.400 . S
C3157 C3151 1.491 . S
C3157 C3156 1.400 . S
C3157 C3158 1.398 . S
C3158 H3146 0.950 . S
C3158 C3157 1.398 . S
C3158 C3159 1.391 . S
C3159 H3147 0.950 . S
C3159 C3155 1.393 . S
C3159 C3158 1.391 . S
H3160 C3168 0.950 . S
H3161 C3173 0.950 . S
H3162 C3170 0.950 . S
H3163 C3172 0.950 . S
H3164 C3174 0.950 . S
H3165 C3176 0.950 . S
H3166 C3178 0.950 . S
H3167 C3179 0.950 . S
C3168 H3160 0.950 . S
C3168 C3169 1.386 . S
C3168 C3170 1.391 . S
C3169 C3168 1.386 . S
C3169 C3173 1.393 . S
C3170 H3162 0.950 . S
C3170 C3168 1.391 . S
C3170 C3171 1.400 . S
C3171 C3170 1.400 . S
C3171 C3172 1.398 . S
C3171 C3177 1.491 . S
C3172 H3163 0.950 . S
C3172 C3171 1.398 . S
C3172 C3173 1.391 . S
C3173 H3161 0.950 . S
C3173 C3169 1.393 . S
C3173 C3172 1.391 . S
C3174 H3164 0.950 . S
C3174 C3175 1.386 . S
C3174 C3176 1.391 . S
C3175 C3174 1.386 . S
C3175 C3179 1.393 . S
C3176 H3165 0.950 . S
C3176 C3174 1.391 . S
C3176 C3177 1.400 . S
C3177 C3171 1.491 . S
C3177 C3176 1.400 . S
C3177 C3178 1.398 . S
C3178 H3166 0.950 . S
C3178 C3177 1.398 . S
C3178 C3179 1.391 . S
C3179 H3167 0.950 . S
C3179 C3175 1.393 . S
C3179 C3178 1.391 . S
H3180 C3188 0.950 . S
H3181 C3193 0.950 . S
H3182 C3190 0.950 . S
H3183 C3192 0.950 . S
H3184 C3194 0.950 . S
H3185 C3196 0.950 . S
H3186 C3198 0.950 . S
H3187 C3199 0.950 . S
C3188 H3180 0.950 . S
C3188 C3189 1.386 . S
C3188 C3190 1.391 . S
C3189 C3188 1.386 . S
C3189 C3193 1.393 1_565 S
C3190 H3182 0.950 . S
C3190 C3188 1.391 . S
C3190 C3191 1.427 . S
C3191 C3190 1.427 . S
C3191 C3192 1.374 1_565 S
C3191 C3197 1.489 1_564 S
C3192 H3183 0.950 . S
C3192 C3191 1.374 1_545 S
C3192 C3193 1.391 . S
C3193 H3181 0.950 . S
C3193 C3189 1.393 1_545 S
C3193 C3192 1.391 . S
C3194 H3184 0.950 . S
C3194 C3195 1.386 . S
C3194 C3196 1.391 . S
C3195 C3194 1.386 . S
C3195 C3199 1.393 1_545 S
C3196 H3185 0.950 . S
C3196 C3194 1.391 . S
C3196 C3197 1.427 . S
C3197 C3191 1.489 1_546 S
C3197 C3196 1.427 . S
C3197 C3198 1.374 1_545 S
C3198 H3186 0.950 . S
C3198 C3197 1.374 1_565 S
C3198 C3199 1.391 . S
C3199 H3187 0.950 . S
C3199 C3195 1.393 1_565 S
C3199 C3198 1.391 . S
C1289 C2 1.650 . S
C1295 C1002 1.649 . S
C1309 C962 1.651 . S
C1315 C42 1.644 . S
C1329 C1082 1.652 . S
C1335 C82 1.644 . S
C1349 C122 1.649 . S
C1355 C1042 1.644 . S
C1369 C171 1.644 . S
C1375 C1171 1.651 . S
C1389 C211 1.646 . S
C1395 C1131 1.647 . S
C1409 C251 1.648 . S
C1415 C1251 1.645 . S
C1429 C1211 1.652 . S
C1435 C291 1.645 . S
C1449 C322 1.652 . S
C1455 C682 1.644 . S
C1469 C362 1.652 . S
C1475 C642 1.644 . S
C1489 C402 1.651 . S
C1495 C762 1.644 . S
C1509 C722 1.652 . S
C1515 C442 1.647 . S
C1529 C491 1.652 . S
C1535 C851 1.645 . S
C1549 C531 1.648 . S
C1555 C811 1.651 . S
C1569 C931 1.650 . S
C1575 C571 1.649 . S
C1589 C611 1.652 . S
C1595 C891 1.644 . S
C1609 C10 1.605 . S
C1615 C130 1.612 . S
C1629 C50 1.614 . S
C1635 C90 1.612 . S
C1649 C299 1.615 . S
C1655 C179 1.609 . S
C1669 C259 1.609 . S
C1675 C219 1.615 . S
C1689 C330 1.616 . S
C1695 C450 1.607 . S
C1709 C370 1.607 . S
C1715 C410 1.608 . S
C1729 C499 1.611 . S
C1735 C619 1.614 . S
C1749 C579 1.615 . S
C1755 C539 1.605 . S
C1769 C650 1.613 . S
C1775 C770 1.605 . S
C1789 C690 1.615 . S
C1795 C730 1.605 . S
C1809 C939 1.614 . S
C1815 C819 1.605 . S
C1829 C859 1.605 . S
C1835 C899 1.612 . S
C1849 C1090 1.608 . S
C1855 C970 1.616 . S
C1869 C1010 1.606 . S
C1875 C1050 1.610 . S
C1889 C1259 1.612 . S
C1895 C1139 1.605 . S
C1909 C1219 1.606 . S
C1915 C1179 1.616 . S
C1929 C51 1.505 . S
C1935 C11 1.500 . S
C1949 C91 1.485 . S
C1955 C131 1.481 . S
C1969 C202 1.481 . S
C1975 C162 1.485 . S
C1989 C282 1.481 . S
C1995 C242 1.484 . S
C2009 C331 1.496 . S
C2015 C371 1.504 . S
C2029 C411 1.500 . S
C2035 C451 1.491 . S
C2049 C522 1.487 . S
C2055 C482 1.481 . S
C2069 C562 1.486 . S
C2075 C602 1.495 . S
C2089 C651 1.484 . S
C2095 C691 1.493 . S
C2109 C771 1.481 . S
C2115 C731 1.486 . S
C2129 C802 1.505 . S
C2135 C842 1.503 . S
C2149 C882 1.500 . S
C2155 C922 1.491 . S
C2169 C971 1.505 . S
C2175 C1011 1.501 . S
C2189 C1051 1.493 . S
C2195 C1091 1.484 . S
C2209 C1162 1.491 . S
C2215 C1122 1.483 . S
C2229 C1202 1.504 . S
C2235 C1242 1.505 . S
C2249 C7 1.683 . S
C2255 C16 1.683 . S
C2269 C47 1.689 . S
C2275 C56 1.689 . S
C2289 C87 1.681 . S
C2295 C96 1.681 . S
C2309 C136 1.688 . S
C2315 C127 1.688 . S
C2329 C167 1.689 . S
C2335 C176 1.689 . S
C2349 C216 1.676 . S
C2355 C207 1.676 . S
C2369 C247 1.675 . S
C2375 C256 1.675 . S
C2389 C287 1.674 . S
C2395 C296 1.674 . S
C2409 C336 1.674 . S
C2415 C327 1.674 . S
C2429 C367 1.689 . S
C2435 C376 1.689 . S
C2449 C407 1.677 . S
C2455 C416 1.677 . S
C2469 C456 1.676 . S
C2475 C447 1.676 . S
C2489 C487 1.674 . S
C2495 C496 1.674 . S
C2509 C536 1.684 . S
C2515 C527 1.684 . S
C2529 C576 1.689 . S
C2535 C567 1.689 . S
C2549 C607 1.675 . S
C2555 C616 1.675 . S
C2569 C647 1.685 . S
C2575 C656 1.685 . S
C2589 C696 1.676 . S
C2595 C687 1.676 . S
C2609 C736 1.676 . S
C2615 C727 1.676 . S
C2629 C767 1.678 . S
C2635 C776 1.678 . S
C2649 C816 1.678 . S
C2655 C807 1.678 . S
C2669 C856 1.687 . S
C2675 C847 1.687 . S
C2689 C887 1.677 . S
C2695 C896 1.677 . S
C2709 C936 1.674 . S
C2715 C927 1.674 . S
C2729 C976 1.684 . S
C2735 C967 1.684 . S
C2749 C1007 1.679 . S
C2755 C1016 1.679 . S
C2769 C1056 1.689 . S
C2775 C1047 1.689 . S
C2789 C1096 1.688 . S
C2795 C1087 1.688 . S
C2809 C1136 1.674 . S
C2815 C1127 1.674 . S
C2829 C1176 1.677 . S
C2835 C1167 1.677 . S
C2849 C1207 1.678 . S
C2855 C1216 1.678 . S
C2869 C1247 1.676 . S
C2875 C1256 1.676 . S
C2889 C19 1.488 . S
C2895 C170 1.488 . S
C2909 C1170 1.494 . S
C2915 C59 1.494 . S
C2929 C570 1.496 . S
C2935 C99 1.496 . S
C2949 C139 1.500 . S
C2955 C930 1.500 . S
C2969 C210 1.479 . S
C2975 C1019 1.479 . S
C2989 C250 1.482 . S
C2995 C419 1.482 . S
C3009 C290 1.487 . S
C3015 C779 1.487 . S
C3029 C339 1.491 . S
C3035 C490 1.491 . S
C3049 C850 1.475 . S
C3055 C379 1.475 . S
C3069 C1250 1.499 . S
C3075 C459 1.499 . S
C3089 C530 1.475 . S
C3095 C699 1.475 . S
C3109 C1099 1.494 . S
C3115 C610 1.494 . S
C3129 C659 1.496 . S
C3135 C810 1.496 . S
C3149 C1210 1.479 . S
C3155 C739 1.479 . S
C3169 C890 1.488 . S
C3175 C1059 1.488 . S
C3189 C979 1.500 . S
C3195 C1130 1.500 . S
