# Generated by pormake.
# Topology umo, (4)-cn, num edge types: 1
# Building blocks:
#     Node 0, Type 0, BuildingBlock: KOZSID_clean_sbu_0, # of connection points: 4
#     Node 1, Type 0, BuildingBlock: KOZSID_clean_sbu_0, # of connection points: 4
#     Node 2, Type 0, BuildingBlock: KOZSID_clean_sbu_0, # of connection points: 4
#     Node 3, Type 0, BuildingBlock: KOZSID_clean_sbu_0, # of connection points: 4
#     Node 4, Type 0, BuildingBlock: KOZSID_clean_sbu_0, # of connection points: 4
#     Node 5, Type 0, BuildingBlock: KOZSID_clean_sbu_0, # of connection points: 4
#     Node 6, Type 0, BuildingBlock: KOZSID_clean_sbu_0, # of connection points: 4
#     Node 7, Type 0, BuildingBlock: KOZSID_clean_sbu_0, # of connection points: 4
#     Node 8, Type 0, BuildingBlock: KOZSID_clean_sbu_0, # of connection points: 4
#     Node 9, Type 0, BuildingBlock: KOZSID_clean_sbu_0, # of connection points: 4
#     Node 10, Type 0, BuildingBlock: KOZSID_clean_sbu_0, # of connection points: 4
#     Node 11, Type 0, BuildingBlock: KOZSID_clean_sbu_0, # of connection points: 4
#     Edge 12, Type (0, 0), BuildingBlock: AJUNOK_clean_linker_0, # of connection points: 2
#     Edge 13, Type (0, 0), BuildingBlock: AJUNOK_clean_linker_0, # of connection points: 2
#     Edge 14, Type (0, 0), BuildingBlock: AJUNOK_clean_linker_0, # of connection points: 2
#     Edge 15, Type (0, 0), BuildingBlock: AJUNOK_clean_linker_0, # of connection points: 2
#     Edge 16, Type (0, 0), BuildingBlock: AJUNOK_clean_linker_0, # of connection points: 2
#     Edge 17, Type (0, 0), BuildingBlock: AJUNOK_clean_linker_0, # of connection points: 2
#     Edge 18, Type (0, 0), BuildingBlock: AJUNOK_clean_linker_0, # of connection points: 2
#     Edge 19, Type (0, 0), BuildingBlock: AJUNOK_clean_linker_0, # of connection points: 2
#     Edge 20, Type (0, 0), BuildingBlock: AJUNOK_clean_linker_0, # of connection points: 2
#     Edge 21, Type (0, 0), BuildingBlock: AJUNOK_clean_linker_0, # of connection points: 2
#     Edge 22, Type (0, 0), BuildingBlock: AJUNOK_clean_linker_0, # of connection points: 2
#     Edge 23, Type (0, 0), BuildingBlock: AJUNOK_clean_linker_0, # of connection points: 2
#     Edge 24, Type (0, 0), BuildingBlock: AJUNOK_clean_linker_0, # of connection points: 2
#     Edge 25, Type (0, 0), BuildingBlock: AJUNOK_clean_linker_0, # of connection points: 2
#     Edge 26, Type (0, 0), BuildingBlock: AJUNOK_clean_linker_0, # of connection points: 2
#     Edge 27, Type (0, 0), BuildingBlock: AJUNOK_clean_linker_0, # of connection points: 2
#     Edge 28, Type (0, 0), BuildingBlock: AJUNOK_clean_linker_0, # of connection points: 2
#     Edge 29, Type (0, 0), BuildingBlock: AJUNOK_clean_linker_0, # of connection points: 2
#     Edge 30, Type (0, 0), BuildingBlock: AJUNOK_clean_linker_0, # of connection points: 2
#     Edge 31, Type (0, 0), BuildingBlock: AJUNOK_clean_linker_0, # of connection points: 2
#     Edge 32, Type (0, 0), BuildingBlock: AJUNOK_clean_linker_0, # of connection points: 2
#     Edge 33, Type (0, 0), BuildingBlock: AJUNOK_clean_linker_0, # of connection points: 2
#     Edge 34, Type (0, 0), BuildingBlock: AJUNOK_clean_linker_0, # of connection points: 2
#     Edge 35, Type (0, 0), BuildingBlock: AJUNOK_clean_linker_0, # of connection points: 2
# Relax obj value: 0.198
# Max RMSD: 0.242
# Mean RMSD: 0.242
data_MOF--net-umo--node1-KOZSID_clean_sbu_0--edge1-AJUNOK_clean_linker_0
_symmetry_space_group_name_H-M    P1
_symmetry_Int_Tables_number       1
_symmetry_cell_setting            triclinic
loop_
_symmetry_equiv_pos_as_xyz
'x, y, z'
_cell_length_a     50.844595
_cell_length_b     50.679795
_cell_length_c     29.077718
_cell_angle_alpha  89.846295
_cell_angle_beta   90.013774
_cell_angle_gamma 120.06938
loop_
_atom_site_label
_atom_site_type_symbol
_atom_site_fract_x
_atom_site_fract_y
_atom_site_fract_z
_atom_type_partial_charge
C0 C 0.21735 0.51672 0.32485 0.0
C1 C 0.22101 0.49146 0.32113 0.0
C2 C 0.20678 0.47336 0.35882 0.0
C3 C 0.19508 0.48849 0.38296 0.0
N4 N 0.20101 0.51465 0.36247 0.0
Co5 Co 0.1875 0.54279 0.38308 0.0
N6 N 0.18401 0.52853 0.44723 0.0
C7 C 0.18101 0.50163 0.46042 0.0
C8 C 0.17747 0.49712 0.50709 0.0
C9 C 0.17792 0.52258 0.52409 0.0
C10 C 0.1818 0.54132 0.48665 0.0
N11 N 0.17345 0.57071 0.40369 0.0
C12 C 0.17202 0.5801 0.44679 0.0
C13 C 0.16037 0.59968 0.44559 0.0
C14 C 0.15376 0.60187 0.40026 0.0
C15 C 0.16185 0.58371 0.37615 0.0
N16 N 0.19153 0.55633 0.31826 0.0
C17 C 0.17808 0.57073 0.29921 0.0
C18 C 0.18917 0.58123 0.25576 0.0
C19 C 0.21089 0.57306 0.24763 0.0
C20 C 0.21186 0.55767 0.28658 0.0
N21 N 0.14431 0.51118 0.37205 0.0
C22 C 0.08154 0.47466 0.3518 0.0
C23 C 0.10385 0.47895 0.31938 0.0
C24 C 0.135 0.49682 0.33037 0.0
C25 C 0.09141 0.48792 0.39515 0.0
C26 C 0.12262 0.5061 0.40444 0.0
N27 N 0.23012 0.57563 0.39338 0.0
C28 C 0.26885 0.62697 0.37415 0.0
C29 C 0.29011 0.62563 0.40307 0.0
C30 C 0.2809 0.59758 0.42563 0.0
C31 C 0.25087 0.57266 0.41973 0.0
C32 C 0.23915 0.60298 0.37216 0.0
H33 H 0.24438 0.55125 0.4367 0.0
H34 H 0.22354 0.60692 0.35268 0.0
H35 H 0.15156 0.50005 0.30442 0.0
H36 H 0.12901 0.51714 0.43743 0.0
C37 C 0.18508 0.48303 0.42879 0.0
C38 C 0.2308 0.54325 0.29401 0.0
C39 C 0.17971 0.56915 0.48908 0.0
C40 C 0.16365 0.58215 0.32783 0.0
H41 H 0.23365 0.48729 0.29501 0.0
H42 H 0.20683 0.45282 0.36891 0.0
H43 H 0.17523 0.47787 0.52655 0.0
H44 H 0.17487 0.52647 0.55977 0.0
H45 H 0.15684 0.61109 0.47431 0.0
H46 H 0.1451 0.61588 0.38646 0.0
H47 H 0.18423 0.59564 0.23417 0.0
H48 H 0.22474 0.57892 0.21713 0.0
H49 H 0.09726 0.46908 0.28541 0.0
H50 H 0.07505 0.48538 0.42116 0.0
H51 H 0.27472 0.64694 0.3534 0.0
H52 H 0.2965 0.595 0.44797 0.0
C53 C 0.71886 0.2169 0.49325 0.0
C54 C 0.74868 0.22381 0.48662 0.0
C55 C 0.75578 0.21126 0.52316 0.0
C56 C 0.72988 0.19721 0.54964 0.0
N57 N 0.70708 0.19994 0.53151 0.0
Co58 Co 0.66587 0.18278 0.55695 0.0
N59 N 0.67968 0.18048 0.61978 0.0
C60 C 0.70737 0.18495 0.63068 0.0
C61 C 0.71411 0.19188 0.6762 0.0
C62 C 0.68894 0.191 0.69494 0.0
C63 C 0.6671 0.18167 0.66045 0.0
N64 N 0.62427 0.16386 0.58147 0.0
C65 C 0.61488 0.15528 0.62534 0.0
C66 C 0.58526 0.13078 0.62573 0.0
C67 C 0.57514 0.1261 0.58101 0.0
C68 C 0.59958 0.14672 0.55548 0.0
N69 N 0.65285 0.18712 0.49474 0.0
C70 C 0.62427 0.17232 0.47879 0.0
C71 C 0.62158 0.18451 0.43793 0.0
C72 C 0.65033 0.2083 0.42799 0.0
C73 C 0.66926 0.20894 0.46289 0.0
N74 N 0.65757 0.1407 0.54263 0.0
C75 C 0.63319 0.07789 0.51969 0.0
C76 C 0.64601 0.10113 0.48607 0.0
C77 C 0.65857 0.13211 0.49828 0.0
C78 C 0.63464 0.08752 0.56545 0.0
C79 C 0.64665 0.11856 0.57607 0.0
N80 N 0.67312 0.22421 0.57043 0.0
C81 C 0.65604 0.26084 0.56352 0.0
C82 C 0.68464 0.2849 0.57658 0.0
C83 C 0.70706 0.27752 0.58817 0.0
C84 C 0.70084 0.24715 0.58499 0.0
C85 C 0.65073 0.23092 0.56094 0.0
H86 H 0.71881 0.24244 0.59293 0.0
H87 H 0.62866 0.21331 0.54958 0.0
H88 H 0.66785 0.149 0.47123 0.0
H89 H 0.64577 0.12429 0.61147 0.0
C90 C 0.72893 0.19024 0.59641 0.0
C91 C 0.70285 0.22838 0.4649 0.0
C92 C 0.63383 0.16996 0.66666 0.0
C93 C 0.60038 0.15186 0.50764 0.0
H94 H 0.76406 0.2377 0.45957 0.0
H95 H 0.77794 0.21447 0.53147 0.0
H96 H 0.73578 0.19957 0.69289 0.0
H97 H 0.68825 0.19838 0.72939 0.0
H98 H 0.57212 0.11803 0.65537 0.0
H99 H 0.55278 0.10951 0.5687 0.0
H100 H 0.6009 0.17827 0.41914 0.0
H101 H 0.65612 0.2236 0.39904 0.0
H102 H 0.64534 0.09563 0.45004 0.0
H103 H 0.62595 0.07108 0.59328 0.0
H104 H 0.63777 0.2651 0.55492 0.0
H105 H 0.72959 0.29518 0.59814 0.0
C106 C 0.51798 0.70757 0.66082 0.0
C107 C 0.54355 0.73609 0.65471 0.0
C108 C 0.56278 0.74015 0.69071 0.0
C109 C 0.54801 0.71388 0.71649 0.0
N110 N 0.52094 0.69372 0.69851 0.0
Co111 Co 0.49263 0.65301 0.72312 0.0
N112 N 0.5095 0.66534 0.78556 0.0
C113 C 0.53712 0.6889 0.79598 0.0
C114 C 0.54256 0.69168 0.84251 0.0
C115 C 0.51683 0.66828 0.86227 0.0
C116 C 0.4971 0.65247 0.82652 0.0
N117 N 0.46477 0.61203 0.74791 0.0
C118 C 0.45635 0.60325 0.79203 0.0
C119 C 0.43628 0.5721 0.79441 0.0
C120 C 0.43228 0.56131 0.74997 0.0
C121 C 0.45013 0.58638 0.72295 0.0
N122 N 0.47576 0.64181 0.66031 0.0
C123 C 0.4586 0.61327 0.64435 0.0
C124 C 0.44501 0.61291 0.60326 0.0
C125 C 0.45422 0.64293 0.59327 0.0
C126 C 0.4737 0.66036 0.62829 0.0
N127 N 0.52253 0.63948 0.70979 0.0
C128 C 0.55928 0.61339 0.68895 0.0
C129 C 0.55292 0.62961 0.65564 0.0
C130 C 0.53497 0.64279 0.66685 0.0
C131 C 0.54754 0.61144 0.73323 0.0
C132 C 0.5291 0.6242 0.74275 0.0
N133 N 0.46192 0.66506 0.73586 0.0
C134 C 0.40976 0.65284 0.7276 0.0
C135 C 0.41656 0.68113 0.74509 0.0
C136 C 0.44656 0.70117 0.75933 0.0
C137 C 0.46904 0.69274 0.75415 0.0
C138 C 0.43242 0.64519 0.72375 0.0
H139 H 0.49215 0.70864 0.76418 0.0
H140 H 0.42591 0.62318 0.7097 0.0
H141 H 0.53048 0.65499 0.64035 0.0
H142 H 0.51939 0.62078 0.7767 0.0
C143 C 0.55491 0.71029 0.76206 0.0
C144 C 0.49097 0.69428 0.63115 0.0
C145 C 0.46817 0.62387 0.83187 0.0
C146 C 0.44855 0.58821 0.67468 0.0
H147 H 0.54747 0.75248 0.62782 0.0
H148 H 0.58397 0.76061 0.6987 0.0
H149 H 0.56241 0.70915 0.86012 0.0
H150 H 0.5132 0.66317 0.89866 0.0
H151 H 0.42555 0.55869 0.8249 0.0
H152 H 0.41694 0.53826 0.73862 0.0
H153 H 0.42799 0.59308 0.58502 0.0
H154 H 0.44606 0.65048 0.56478 0.0
H155 H 0.56158 0.63189 0.62096 0.0
H156 H 0.5516 0.59903 0.76004 0.0
H157 H 0.38685 0.63656 0.71674 0.0
H158 H 0.45269 0.72329 0.77333 0.0
C159 C 0.82282 0.50342 0.82242 0.0
C160 C 0.81882 0.52845 0.81796 0.0
C161 C 0.83543 0.5483 0.85266 0.0
C162 C 0.84871 0.53437 0.87609 0.0
N163 N 0.84153 0.50727 0.85778 0.0
Co164 Co 0.85479 0.47922 0.88004 0.0
N165 N 0.86124 0.49637 0.94237 0.0
C166 C 0.86597 0.52418 0.95338 0.0
C167 C 0.86986 0.52963 0.99987 0.0
C168 C 0.86757 0.50367 0.01885 0.0
C169 C 0.86242 0.48382 0.9827 0.0
N170 N 0.8682 0.45121 0.90259 0.0
C171 C 0.86883 0.44232 0.94629 0.0
C172 C 0.87945 0.42191 0.94731 0.0
C173 C 0.88558 0.41814 0.90232 0.0
C174 C 0.87848 0.43649 0.87638 0.0
N175 N 0.84767 0.46241 0.81722 0.0
C176 C 0.85889 0.44559 0.79945 0.0
C177 C 0.84479 0.43215 0.75871 0.0
C178 C 0.82355 0.44102 0.75104 0.0
C179 C 0.82616 0.46007 0.78707 0.0
N180 N 0.89787 0.50938 0.86429 0.0
C181 C 0.96018 0.54717 0.84016 0.0
C182 C 0.93674 0.54384 0.81063 0.0
C183 C 0.90586 0.52471 0.82309 0.0
C184 C 0.95149 0.53177 0.88244 0.0
C185 C 0.9206 0.51355 0.89401 0.0
N186 N 0.81242 0.44825 0.89549 0.0
C187 C 0.77232 0.39572 0.88969 0.0
C188 C 0.75176 0.40221 0.91137 0.0
C189 C 0.76232 0.43227 0.92619 0.0
C190 C 0.7928 0.45508 0.91764 0.0
C191 C 0.80224 0.41872 0.8825 0.0
H192 H 0.80044 0.47821 0.9284 0.0
H193 H 0.81704 0.41241 0.86554 0.0
H194 H 0.88841 0.52181 0.79901 0.0
H195 H 0.91518 0.50216 0.92692 0.0
C196 C 0.86102 0.54176 0.92065 0.0
C197 C 0.80874 0.47621 0.79309 0.0
C198 C 0.86086 0.45425 0.98683 0.0
C199 C 0.87432 0.43527 0.82824 0.0
H200 H 0.80482 0.53164 0.79305 0.0
H201 H 0.83594 0.56927 0.86158 0.0
H202 H 0.87273 0.54952 0.01805 0.0
H203 H 0.86961 0.49987 0.05499 0.0
H204 H 0.88225 0.41082 0.97724 0.0
H205 H 0.89275 0.40261 0.88995 0.0
H206 H 0.84731 0.41534 0.73933 0.0
H207 H 0.80718 0.43296 0.72341 0.0
H208 H 0.94221 0.55517 0.7775 0.0
H209 H 0.96858 0.53372 0.90662 0.0
H210 H 0.76522 0.3728 0.87814 0.0
H211 H 0.74708 0.43819 0.9433 0.0
C212 C 0.3094 0.81716 0.03134 0.0
C213 C 0.27982 0.80834 0.04474 0.0
C214 C 0.28181 0.82376 0.08439 0.0
C215 C 0.3122 0.84037 0.09421 0.0
N216 N 0.32938 0.83624 0.06304 0.0
Co217 Co 0.37323 0.85056 0.06873 0.0
N218 N 0.37207 0.85552 0.13588 0.0
C219 C 0.35126 0.85935 0.1588 0.0
C220 C 0.35678 0.86315 0.20522 0.0
C221 C 0.38277 0.86177 0.21171 0.0
C222 C 0.39157 0.85711 0.16865 0.0
N223 N 0.4169 0.8643 0.07504 0.0
C224 C 0.43257 0.86441 0.11297 0.0
C225 C 0.46288 0.87556 0.10214 0.0
C226 C 0.46601 0.88274 0.05585 0.0
C227 C 0.43749 0.8756 0.04091 0.0
N228 N 0.37382 0.84601 0.00159 0.0
C229 C 0.39862 0.85999 0.97467 0.0
C230 C 0.39176 0.85181 0.92925 0.0
C231 C 0.36087 0.83152 0.92812 0.0
C232 C 0.35051 0.82813 0.97308 0.0
N233 N 0.38376 0.89381 0.05934 0.0
C234 C 0.40855 0.956 0.03299 0.0
C235 C 0.42042 0.94752 0.07012 0.0
C236 C 0.40751 0.91668 0.08315 0.0
C237 C 0.38274 0.93255 0.01104 0.0
C238 C 0.37083 0.90178 0.02454 0.0
N239 N 0.36443 0.80799 0.0763 0.0
C240 C 0.37553 0.76925 0.05087 0.0
C241 C 0.35681 0.74874 0.08471 0.0
C242 C 0.34105 0.75846 0.11376 0.0
C243 C 0.34493 0.78807 0.10864 0.0
C244 C 0.37955 0.79845 0.04806 0.0
H245 H 0.33274 0.79508 0.13133 0.0
H246 H 0.39559 0.81349 0.02297 0.0
H247 H 0.41785 0.91128 0.1113 0.0
H248 H 0.352 0.88428 0.00531 0.0
C249 C 0.32403 0.85273 0.13741 0.0
C250 C 0.3185 0.80857 0.98799 0.0
C251 C 0.4193 0.856 0.15963 0.0
C252 C 0.42788 0.8741 0.99483 0.0
H253 H 0.25864 0.79168 0.02943 0.0
H254 H 0.2631 0.82093 0.10568 0.0
H255 H 0.34281 0.86516 0.2315 0.0
H256 H 0.39389 0.86392 0.24435 0.0
H257 H 0.48079 0.87835 0.12523 0.0
H258 H 0.48641 0.89106 0.03532 0.0
H259 H 0.40751 0.85826 0.90076 0.0
H260 H 0.34763 0.82011 0.89792 0.0
H261 H 0.44 0.96466 0.0887 0.0
H262 H 0.37263 0.93775 0.98219 0.0
H263 H 0.38779 0.7631 0.02679 0.0
H264 H 0.32658 0.74381 0.14102 0.0
C265 C 0.51379 0.30929 0.19534 0.0
C266 C 0.49333 0.27965 0.20925 0.0
C267 C 0.47945 0.28173 0.24833 0.0
C268 C 0.49297 0.3123 0.25757 0.0
N269 N 0.51447 0.32944 0.22642 0.0
Co270 Co 0.54558 0.3729 0.23278 0.0
N271 N 0.5393 0.37132 0.29984 0.0
C272 C 0.51419 0.35097 0.32258 0.0
C273 C 0.51603 0.35621 0.36907 0.0
C274 C 0.54399 0.38153 0.37576 0.0
C275 C 0.55765 0.39027 0.33272 0.0
N276 N 0.57697 0.41621 0.23938 0.0
C277 C 0.59265 0.43131 0.27741 0.0
C278 C 0.61282 0.46163 0.26705 0.0
C279 C 0.60924 0.46536 0.22086 0.0
C280 C 0.58713 0.43717 0.20558 0.0
N281 N 0.55111 0.37383 0.16574 0.0
C282 C 0.56331 0.39887 0.139 0.0
C283 C 0.56516 0.39201 0.09374 0.0
C284 C 0.55354 0.36088 0.09257 0.0
C285 C 0.54536 0.35041 0.13731 0.0
N286 N 0.51457 0.38553 0.2244 0.0
C287 C 0.47864 0.41247 0.20324 0.0
C288 C 0.47543 0.38715 0.17858 0.0
C289 C 0.49364 0.37413 0.18952 0.0
C290 C 0.49914 0.42282 0.24008 0.0
C291 C 0.51637 0.40891 0.25045 0.0
N292 N 0.57752 0.36179 0.24009 0.0
C293 C 0.62668 0.37017 0.21629 0.0
C294 C 0.62438 0.34734 0.24591 0.0
C295 C 0.59811 0.33212 0.27343 0.0
C296 C 0.57481 0.33949 0.2697 0.0
C297 C 0.60339 0.37711 0.21414 0.0
H298 H 0.55466 0.32725 0.29065 0.0
H299 H 0.60654 0.39515 0.1912 0.0
H300 H 0.49165 0.35561 0.16863 0.0
H301 H 0.53221 0.41813 0.27859 0.0
C302 C 0.4928 0.32412 0.30093 0.0
C303 C 0.53161 0.31823 0.15216 0.0
C304 C 0.58698 0.41762 0.32372 0.0
C305 C 0.57922 0.42805 0.15936 0.0
H306 H 0.48952 0.25852 0.1944 0.0
H307 H 0.46376 0.26302 0.27 0.0
H308 H 0.49971 0.34245 0.39524 0.0
H309 H 0.55317 0.39229 0.40854 0.0
H310 H 0.6283 0.47915 0.29038 0.0
H311 H 0.6221 0.48587 0.20062 0.0
H312 H 0.57557 0.40789 0.06551 0.0
H313 H 0.55186 0.34755 0.06254 0.0
H314 H 0.4599 0.37826 0.1498 0.0
H315 H 0.50223 0.44201 0.26052 0.0
H316 H 0.64682 0.38323 0.19542 0.0
H317 H 0.59551 0.31454 0.29732 0.0
C318 C 0.52004 0.80852 0.50029 0.0
C319 C 0.54462 0.80379 0.50313 0.0
C320 C 0.56216 0.81721 0.46473 0.0
C321 C 0.54747 0.82958 0.44104 0.0
N322 N 0.52206 0.82484 0.46245 0.0
Co323 Co 0.49507 0.83997 0.44254 0.0
N324 N 0.50826 0.84263 0.37791 0.0
C325 C 0.53426 0.84419 0.36389 0.0
C326 C 0.53777 0.84659 0.31697 0.0
C327 C 0.51258 0.84688 0.30065 0.0
C328 C 0.4951 0.84473 0.33872 0.0
N329 N 0.46832 0.85552 0.4224 0.0
C330 C 0.45868 0.85708 0.37945 0.0
C331 C 0.44068 0.87048 0.38077 0.0
C332 C 0.4394 0.87767 0.42612 0.0
C333 C 0.45668 0.86834 0.45006 0.0
N334 N 0.48251 0.83676 0.50773 0.0
C335 C 0.46923 0.85126 0.52689 0.0
C336 C 0.4592 0.84081 0.57077 0.0
C337 C 0.4666 0.81848 0.57914 0.0
C338 C 0.48112 0.81656 0.53995 0.0
N339 N 0.52798 0.88292 0.4531 0.0
C340 C 0.5664 0.94578 0.47364 0.0
C341 C 0.56125 0.92293 0.50585 0.0
C342 C 0.54254 0.89181 0.49469 0.0
C343 C 0.55284 0.93623 0.43027 0.0
C344 C 0.53369 0.90501 0.42087 0.0
N345 N 0.46099 0.79776 0.43306 0.0
C346 C 0.40908 0.76097 0.45228 0.0
C347 C 0.4088 0.73921 0.42259 0.0
C348 C 0.43636 0.7469 0.40004 0.0
C349 C 0.46241 0.77623 0.40634 0.0
C350 C 0.43421 0.79001 0.4548 0.0
H351 H 0.48336 0.78168 0.38907 0.0
H352 H 0.43149 0.80624 0.47469 0.0
H353 H 0.53894 0.87495 0.52051 0.0
H354 H 0.52251 0.89895 0.38793 0.0
C355 C 0.55254 0.83929 0.39504 0.0
C356 C 0.4946 0.7967 0.53297 0.0
C357 C 0.46806 0.84803 0.33696 0.0
C358 C 0.45855 0.86654 0.49839 0.0
H359 H 0.54883 0.79116 0.52937 0.0
H360 H 0.58208 0.81631 0.45403 0.0
H361 H 0.55606 0.84734 0.29691 0.0
H362 H 0.50798 0.84912 0.26495 0.0
H363 H 0.42985 0.8748 0.35199 0.0
H364 H 0.42659 0.88761 0.44004 0.0
H365 H 0.44565 0.84666 0.59262 0.0
H366 H 0.46082 0.80478 0.60993 0.0
H367 H 0.57142 0.92908 0.53969 0.0
H368 H 0.55597 0.9529 0.40425 0.0
H369 H 0.3894 0.75609 0.47287 0.0
H370 H 0.43765 0.73077 0.37718 0.0
C371 C 0.72179 0.50694 0.67495 0.0
C372 C 0.75027 0.53226 0.68197 0.0
C373 C 0.755 0.55206 0.64631 0.0
C374 C 0.72911 0.5378 0.61994 0.0
N375 N 0.70857 0.51052 0.6372 0.0
Co376 Co 0.66788 0.48296 0.61249 0.0
N377 N 0.68093 0.50037 0.55029 0.0
C378 C 0.70504 0.52787 0.54027 0.0
C379 C 0.70808 0.534 0.49394 0.0
C380 C 0.68423 0.50895 0.47383 0.0
C381 C 0.66788 0.4889 0.50923 0.0
N382 N 0.62691 0.45607 0.58789 0.0
C383 C 0.6179 0.44882 0.54367 0.0
C384 C 0.58664 0.42969 0.54152 0.0
C385 C 0.57605 0.42519 0.58616 0.0
C386 C 0.60131 0.44181 0.61313 0.0
N387 N 0.65636 0.46571 0.67514 0.0
C388 C 0.62794 0.44956 0.69169 0.0
C389 C 0.6274 0.4367 0.73374 0.0
C390 C 0.65723 0.44528 0.74358 0.0
C391 C 0.67458 0.46316 0.70704 0.0
N392 N 0.65509 0.51354 0.62607 0.0
C393 C 0.62647 0.54835 0.64641 0.0
C394 C 0.64228 0.54181 0.68036 0.0
C395 C 0.6566 0.52476 0.66946 0.0
C396 C 0.62738 0.53862 0.60154 0.0
C397 C 0.64105 0.52103 0.59239 0.0
N398 N 0.67851 0.45109 0.59907 0.0
C399 C 0.6635 0.39774 0.60502 0.0
C400 C 0.69059 0.40304 0.58504 0.0
C401 C 0.71162 0.43301 0.57114 0.0
C402 C 0.70511 0.45682 0.57849 0.0
C403 C 0.65788 0.42169 0.61143 0.0
H404 H 0.7216 0.4798 0.56819 0.0
H405 H 0.63659 0.41613 0.62705 0.0
H406 H 0.66794 0.51972 0.69661 0.0
H407 H 0.63914 0.51261 0.5579 0.0
C408 C 0.72621 0.54525 0.57444 0.0
C409 C 0.70824 0.47902 0.70274 0.0
C410 C 0.63831 0.46116 0.50351 0.0
C411 C 0.60299 0.44007 0.66154 0.0
H412 H 0.76629 0.53544 0.70892 0.0
H413 H 0.77568 0.57322 0.63883 0.0
H414 H 0.72581 0.55398 0.47671 0.0
H415 H 0.67905 0.50614 0.43746 0.0
H416 H 0.57298 0.42006 0.51098 0.0
H417 H 0.55288 0.41055 0.59757 0.0
H418 H 0.60752 0.42088 0.75323 0.0
H419 H 0.66481 0.43833 0.77352 0.0
H420 H 0.64284 0.54896 0.71556 0.0
H421 H 0.61721 0.54414 0.57317 0.0
H422 H 0.64656 0.37497 0.61588 0.0
H423 H 0.73288 0.43803 0.55523 0.0
C424 C 0.21979 0.72204 0.82508 0.0
C425 C 0.22567 0.7517 0.81766 0.0
C426 C 0.22027 0.75399 0.77251 0.0
C427 C 0.21178 0.72603 0.75448 0.0
N428 N 0.21071 0.70557 0.78531 0.0
Co429 Co 0.20163 0.66302 0.77071 0.0
N430 N 0.19365 0.66721 0.70419 0.0
C431 C 0.19798 0.69285 0.68326 0.0
C432 C 0.19094 0.68949 0.63746 0.0
C433 C 0.18175 0.65982 0.62821 0.0
C434 C 0.18366 0.64671 0.66924 0.0
N435 N 0.19225 0.62048 0.75602 0.0
C436 C 0.18254 0.60413 0.71628 0.0
C437 C 0.17976 0.57563 0.72121 0.0
C438 C 0.18835 0.57406 0.76524 0.0
C439 C 0.19585 0.60159 0.78468 0.0
N440 N 0.21038 0.65934 0.83703 0.0
C441 C 0.21143 0.63559 0.85611 0.0
C442 C 0.21782 0.63898 0.90225 0.0
C443 C 0.22208 0.66708 0.913 0.0
C444 C 0.21855 0.67951 0.87249 0.0
N445 N 0.1574 0.64635 0.78533 0.0
C446 C 0.09304 0.61714 0.80093 0.0
C447 C 0.11152 0.60818 0.82424 0.0
C448 C 0.14296 0.62258 0.81577 0.0
C449 C 0.10812 0.64189 0.77014 0.0
C450 C 0.14 0.65628 0.76338 0.0
N451 N 0.24541 0.67836 0.75655 0.0
C452 C 0.29813 0.70483 0.78097 0.0
C453 C 0.30548 0.68861 0.74957 0.0
C454 C 0.28272 0.66946 0.71865 0.0
C455 C 0.25326 0.66512 0.72233 0.0
C456 C 0.26827 0.69948 0.78374 0.0
H457 H 0.23664 0.65008 0.69841 0.0
H458 H 0.26398 0.71207 0.80886 0.0
H459 H 0.15517 0.61365 0.83372 0.0
H460 H 0.15022 0.67501 0.73951 0.0
C461 C 0.2064 0.71902 0.70826 0.0
C462 C 0.22743 0.71189 0.86821 0.0
C463 C 0.17856 0.61568 0.67198 0.0
C464 C 0.20516 0.61002 0.83002 0.0
H465 H 0.23456 0.77074 0.8409 0.0
H466 H 0.2235 0.77413 0.7545 0.0
H467 H 0.19211 0.70653 0.61371 0.0
H468 H 0.17498 0.6493 0.59473 0.0
H469 H 0.17294 0.55813 0.69525 0.0
H470 H 0.18912 0.55512 0.78115 0.0
H471 H 0.21962 0.62311 0.9252 0.0
H472 H 0.2287 0.67796 0.94631 0.0
H473 H 0.10181 0.58978 0.84911 0.0
H474 H 0.09545 0.64977 0.75012 0.0
H475 H 0.3152 0.7213 0.80393 0.0
H476 H 0.28717 0.65685 0.6928 0.0
C477 C 0.51898 0.22411 0.98581 0.0
C478 C 0.50074 0.2365 0.97509 0.0
C479 C 0.48803 0.22521 0.93322 0.0
C480 C 0.50006 0.20764 0.91941 0.0
N481 N 0.51935 0.2069 0.95056 0.0
Co482 Co 0.54654 0.1898 0.9408 0.0
N483 N 0.54201 0.18969 0.87317 0.0
C484 C 0.52402 0.19758 0.85004 0.0
C485 C 0.53606 0.21073 0.80822 0.0
C486 C 0.56258 0.21016 0.80448 0.0
C487 C 0.56393 0.19436 0.84259 0.0
N488 N 0.57311 0.17192 0.9306 0.0
C489 C 0.5833 0.16616 0.89052 0.0
C490 C 0.59404 0.14615 0.89866 0.0
C491 C 0.59158 0.14035 0.9451 0.0
C492 C 0.57872 0.15629 0.9629 0.0
N493 N 0.55198 0.19131 0.00826 0.0
C494 C 0.56158 0.17517 0.03252 0.0
C495 C 0.56368 0.18148 0.07879 0.0
C496 C 0.55483 0.20295 0.08359 0.0
C497 C 0.54787 0.2086 0.03986 0.0
N498 N 0.51129 0.14745 0.94643 0.0
C499 C 0.47258 0.08492 0.96957 0.0
C500 C 0.47285 0.10834 0.99579 0.0
C501 C 0.4922 0.13925 0.98371 0.0
C502 C 0.49044 0.0937 0.92947 0.0
C503 C 0.50895 0.1248 0.91804 0.0
N504 N 0.58223 0.23148 0.93673 0.0
C505 C 0.63471 0.26689 0.95597 0.0
C506 C 0.63421 0.29034 0.93096 0.0
C507 C 0.60676 0.28374 0.90979 0.0
C508 C 0.58115 0.25438 0.9132 0.0
C509 C 0.60871 0.23782 0.9583 0.0
H510 H 0.56055 0.25034 0.8966 0.0
H511 H 0.61013 0.22038 0.97756 0.0
H512 H 0.49296 0.15656 0.00615 0.0
H513 H 0.52272 0.13045 0.88744 0.0
C514 C 0.50292 0.20244 0.87326 0.0
C515 C 0.5353 0.22864 0.02964 0.0
C516 C 0.58084 0.17767 0.84447 0.0
C517 C 0.57261 0.15827 0.0096 0.0
H518 H 0.49784 0.25318 0.99402 0.0
H519 H 0.47473 0.2322 0.91284 0.0
H520 H 0.52788 0.22171 0.7849 0.0
H521 H 0.57796 0.21849 0.77543 0.0
H522 H 0.60169 0.1356 0.8739 0.0
H523 H 0.59791 0.12577 0.96348 0.0
H524 H 0.57172 0.17245 0.10563 0.0
H525 H 0.55349 0.21316 0.11551 0.0
H526 H 0.4594 0.10293 0.0269 0.0
H527 H 0.49062 0.0766 0.90743 0.0
H528 H 0.65532 0.27076 0.9729 0.0
H529 H 0.60496 0.30119 0.89083 0.0
C530 C 0.32554 0.52589 0.17425 0.0
C531 C 0.29649 0.5006 0.17539 0.0
C532 C 0.29402 0.48343 0.13736 0.0
C533 C 0.32167 0.49906 0.11546 0.0
N534 N 0.34116 0.52473 0.13768 0.0
Co535 Co 0.38342 0.55329 0.11996 0.0
N536 N 0.37475 0.54037 0.05512 0.0
C537 C 0.35146 0.51377 0.0401 0.0
C538 C 0.35166 0.51071 0.99322 0.0
C539 C 0.37679 0.53688 0.97805 0.0
C540 C 0.39057 0.5545 0.01672 0.0
N541 N 0.42596 0.58157 0.10186 0.0
C542 C 0.43782 0.59211 0.05951 0.0
C543 C 0.46903 0.61131 0.06228 0.0
C544 C 0.4767 0.61241 0.10799 0.0
C545 C 0.44984 0.59386 0.13064 0.0
N546 N 0.39103 0.56586 0.18515 0.0
C547 C 0.41842 0.58096 0.20545 0.0
C548 C 0.41671 0.59212 0.24774 0.0
C549 C 0.38657 0.58351 0.2539 0.0
C550 C 0.3711 0.56675 0.21547 0.0
N551 N 0.39455 0.52137 0.13184 0.0
C552 C 0.41776 0.48217 0.15359 0.0
C553 C 0.39685 0.48443 0.18264 0.0
C554 C 0.38572 0.50422 0.17136 0.0
C555 C 0.4258 0.4992 0.11271 0.0
C556 C 0.41375 0.51814 0.10224 0.0
N557 N 0.37373 0.58611 0.10917 0.0
C558 C 0.3879 0.6385 0.12347 0.0
C559 C 0.36224 0.63517 0.10052 0.0
C560 C 0.342 0.60616 0.08211 0.0
C561 C 0.34813 0.58188 0.08696 0.0
C562 C 0.39337 0.61429 0.12673 0.0
H563 H 0.33231 0.5598 0.07283 0.0
H564 H 0.41368 0.61861 0.14436 0.0
H565 H 0.37062 0.50631 0.1953 0.0
H566 H 0.42087 0.53098 0.0706 0.0
C567 C 0.32781 0.49454 0.07004 0.0
C568 C 0.3377 0.55096 0.20756 0.0
C569 C 0.42016 0.58274 0.01642 0.0
C570 C 0.44506 0.59224 0.17861 0.0
H571 H 0.27881 0.49555 0.20041 0.0
H572 H 0.27387 0.46309 0.12565 0.0
H573 H 0.33514 0.49208 0.97239 0.0
H574 H 0.38442 0.54207 0.94272 0.0
H575 H 0.48458 0.62324 0.03431 0.0
H576 H 0.49898 0.62617 0.12302 0.0
H577 H 0.43551 0.60741 0.26943 0.0
H578 H 0.37778 0.59041 0.28232 0.0
H579 H 0.38999 0.47187 0.21474 0.0
H580 H 0.44163 0.49811 0.08894 0.0
H581 H 0.40405 0.65998 0.13914 0.0
H582 H 0.32198 0.60234 0.06345 0.0
C583 C 0.81457 0.31857 0.33896 0.0
C584 C 0.81188 0.29005 0.34366 0.0
C585 C 0.82656 0.28653 0.30646 0.0
C586 C 0.83756 0.31312 0.28158 0.0
N587 N 0.83079 0.33295 0.3012 0.0
Co588 Co 0.84327 0.37425 0.27928 0.0
N589 N 0.84721 0.36318 0.21567 0.0
C590 C 0.85077 0.33957 0.20327 0.0
C591 C 0.85352 0.33793 0.15654 0.0
C592 C 0.85191 0.36219 0.13871 0.0
C593 C 0.84829 0.37737 0.17575 0.0
N594 N 0.85661 0.41592 0.25741 0.0
C595 C 0.85786 0.4262 0.21397 0.0
C596 C 0.86951 0.4575 0.21392 0.0
C597 C 0.87594 0.46687 0.25902 0.0
C598 C 0.86791 0.44087 0.28413 0.0
N599 N 0.83823 0.38403 0.34329 0.0
C600 C 0.85049 0.41208 0.36143 0.0
C601 C 0.83872 0.41143 0.40431 0.0
C602 C 0.81783 0.38122 0.41308 0.0
C603 C 0.8181 0.36481 0.37515 0.0
N604 N 0.88666 0.38712 0.29112 0.0
C605 C 0.94987 0.4133 0.30991 0.0
C606 C 0.92762 0.39594 0.34321 0.0
C607 C 0.89633 0.38293 0.3331 0.0
C608 C 0.93925 0.41555 0.26628 0.0
C609 C 0.90804 0.4029 0.25791 0.0
N610 N 0.80054 0.36296 0.26788 0.0
C611 C 0.76094 0.37538 0.27954 0.0
C612 C 0.73937 0.3483 0.25872 0.0
C613 C 0.7493 0.32887 0.2412 0.0
C614 C 0.78 0.33652 0.24645 0.0
C615 C 0.79107 0.38237 0.28323 0.0
H616 H 0.78706 0.32098 0.2339 0.0
H617 H 0.80665 0.40359 0.2994 0.0
H618 H 0.87998 0.37021 0.35973 0.0
H619 H 0.9014 0.40672 0.22451 0.0
C620 C 0.84747 0.31747 0.2357 0.0
C621 C 0.80055 0.33117 0.36925 0.0
C622 C 0.84979 0.40701 0.17248 0.0
C623 C 0.86521 0.43788 0.33247 0.0
H624 H 0.79966 0.27326 0.37017 0.0
H625 H 0.82724 0.26622 0.29715 0.0
H626 H 0.85582 0.32084 0.13758 0.0
H627 H 0.85397 0.36844 0.10271 0.0
H628 H 0.87301 0.47201 0.18448 0.0
H629 H 0.88429 0.4897 0.27199 0.0
H630 H 0.84277 0.4308 0.42509 0.0
H631 H 0.80361 0.3729 0.44325 0.0
H632 H 0.93427 0.39308 0.3774 0.0
H633 H 0.95495 0.42729 0.23838 0.0
H634 H 0.7546 0.39141 0.29271 0.0
H635 H 0.73339 0.30767 0.22463 0.0
C636 C 0.34823 0.65372 0.41125 0.0
C637 C 0.32065 0.65417 0.40995 0.0
C638 C 0.37682 0.68104 0.41393 0.0
C639 C 0.37905 0.70999 0.41475 0.0
H640 H 0.34777 0.63214 0.40967 0.0
H641 H 0.39724 0.67945 0.41609 0.0
S642 S 0.31387 0.72402 0.41149 0.0
N643 N 0.29799 0.68662 0.41291 0.0
N644 N 0.35074 0.73697 0.41052 0.0
C645 C 0.3516 0.71056 0.41208 0.0
C646 C 0.3228 0.68306 0.41182 0.0
C647 C 0.68031 0.32801 0.54021 0.0
C648 C 0.6906 0.31722 0.57695 0.0
C649 C 0.68259 0.35691 0.54142 0.0
C650 C 0.6955 0.3765 0.57924 0.0
H651 H 0.66963 0.31363 0.51061 0.0
H652 H 0.67293 0.36342 0.51342 0.0
S653 S 0.72652 0.36019 0.684 0.0
N654 N 0.7149 0.32937 0.65208 0.0
N655 N 0.71918 0.38348 0.65399 0.0
C656 C 0.70684 0.36663 0.61547 0.0
C657 C 0.70452 0.33717 0.61434 0.0
C658 C 0.35051 0.69142 0.70781 0.0
C659 C 0.33613 0.69078 0.74962 0.0
C660 C 0.37757 0.6902 0.70682 0.0
C661 C 0.39172 0.68865 0.74757 0.0
H662 H 0.34043 0.6922 0.67538 0.0
H663 H 0.38702 0.68947 0.67377 0.0
S664 S 0.36393 0.68624 0.8661 0.0
N665 N 0.33858 0.68833 0.83311 0.0
N666 N 0.38966 0.68679 0.83081 0.0
C667 C 0.37833 0.68902 0.7896 0.0
C668 C 0.35057 0.68995 0.79073 0.0
C669 C 0.70867 0.36346 0.9604 0.0
C670 C 0.71964 0.37705 0.91711 0.0
C671 C 0.68071 0.33595 0.9648 0.0
C672 C 0.66246 0.32104 0.92613 0.0
H673 H 0.72243 0.37342 0.99079 0.0
H674 H 0.67358 0.32596 0.9987 0.0
S675 S 0.68089 0.34802 0.80521 0.0
N676 N 0.70989 0.37408 0.8351 0.0
N677 N 0.65759 0.32278 0.84311 0.0
C678 C 0.67285 0.33511 0.88287 0.0
C679 C 0.70134 0.36292 0.87845 0.0
C680 C 0.38365 0.71836 0.08377 0.0
C681 C 0.35637 0.71883 0.09014 0.0
C682 C 0.38468 0.69127 0.08539 0.0
C683 C 0.35868 0.66286 0.09487 0.0
H684 H 0.40481 0.73933 0.07756 0.0
H685 H 0.40641 0.69278 0.07933 0.0
S686 S 0.28126 0.6507 0.11531 0.0
N687 N 0.30222 0.68777 0.10582 0.0
N688 N 0.30453 0.63691 0.11146 0.0
C689 C 0.33111 0.6627 0.10171 0.0
C690 C 0.32993 0.69056 0.09922 0.0
C691 C 0.69232 0.344 0.29494 0.0
C692 C 0.70718 0.3417 0.25541 0.0
C693 C 0.66447 0.34365 0.29203 0.0
C694 C 0.65044 0.3414 0.24935 0.0
H695 H 0.70297 0.34732 0.32834 0.0
H696 H 0.65479 0.34696 0.32316 0.0
S697 S 0.67833 0.33198 0.13591 0.0
N698 N 0.70445 0.33485 0.17262 0.0
N699 N 0.65231 0.3342 0.167 0.0
C700 C 0.66421 0.33742 0.20984 0.0
C701 C 0.69244 0.33751 0.2129 0.0
C702 C 0.15185 0.58752 0.59991 0.0
C703 C 0.17801 0.60036 0.62774 0.0
C704 C 0.15254 0.57803 0.55467 0.0
C705 C 0.17955 0.58155 0.53552 0.0
H706 H 0.13098 0.58558 0.61285 0.0
H707 H 0.13182 0.56782 0.5346 0.0
S708 S 0.2536 0.61198 0.59478 0.0
N709 N 0.23113 0.61443 0.63343 0.0
N710 N 0.23248 0.59716 0.54847 0.0
C711 C 0.20553 0.59356 0.56337 0.0
C712 C 0.20476 0.60284 0.60944 0.0
C713 C 0.63092 0.16713 0.75533 0.0
C714 C 0.61886 0.16945 0.7126 0.0
C715 C 0.61957 0.17085 0.7975 0.0
C716 C 0.59158 0.1701 0.80009 0.0
H717 H 0.64895 0.16192 0.75728 0.0
H718 H 0.63303 0.17423 0.82801 0.0
S719 S 0.54271 0.1623 0.70022 0.0
N720 N 0.57556 0.17024 0.67746 0.0
N721 N 0.54631 0.15868 0.75585 0.0
C722 C 0.57564 0.16506 0.75818 0.0
C723 C 0.5908 0.16901 0.71504 0.0
C724 C 0.45468 0.58785 0.95097 0.0
C725 C 0.43444 0.59582 0.97102 0.0
C726 C 0.46517 0.59657 0.90564 0.0
C727 C 0.4556 0.61337 0.87887 0.0
H728 H 0.46188 0.57422 0.97014 0.0
H729 H 0.48083 0.59015 0.89134 0.0
S730 S 0.40281 0.63971 0.91531 0.0
N731 N 0.40509 0.62117 0.9606 0.0
N732 N 0.42515 0.63792 0.87565 0.0
C733 C 0.43558 0.62162 0.8986 0.0
C734 C 0.42484 0.61267 0.94461 0.0
C735 C 0.88085 0.43917 0.10614 0.0
C736 C 0.85213 0.42022 0.12594 0.0
C737 C 0.88361 0.44936 0.06049 0.0
C738 C 0.85773 0.44075 0.03325 0.0
H739 H 0.90127 0.44581 0.12597 0.0
H740 H 0.90605 0.46431 0.0465 0.0
S741 S 0.77759 0.39121 0.06876 0.0
N742 N 0.79749 0.39283 0.11474 0.0
N743 N 0.80267 0.41243 0.02908 0.0
C744 C 0.82897 0.42182 0.05259 0.0
C745 C 0.82617 0.41135 0.09893 0.0
C746 C 0.45831 0.87925 0.22241 0.0
C747 C 0.43556 0.85301 0.20032 0.0
C748 C 0.4684 0.87761 0.26692 0.0
C749 C 0.4559 0.84973 0.29094 0.0
H750 H 0.46738 0.90134 0.206 0.0
H751 H 0.48589 0.89829 0.28288 0.0
S752 S 0.39638 0.77453 0.24799 0.0
N753 N 0.40117 0.79841 0.20571 0.0
N754 N 0.4205 0.7953 0.28879 0.0
C755 C 0.43374 0.82333 0.26882 0.0
C756 C 0.42345 0.82499 0.2237 0.0
C757 C 0.62183 0.42221 0.38719 0.0
C758 C 0.60551 0.43401 0.36442 0.0
C759 C 0.63247 0.43114 0.43226 0.0
C760 C 0.62655 0.45165 0.45615 0.0
H761 H 0.62515 0.40493 0.37076 0.0
H762 H 0.64476 0.42144 0.44894 0.0
S763 S 0.58541 0.48942 0.41172 0.0
N764 N 0.58445 0.46762 0.36884 0.0
N765 N 0.60454 0.48446 0.45354 0.0
C766 C 0.61104 0.46424 0.43339 0.0
C767 C 0.60049 0.45541 0.38746 0.0
C768 C 0.99614 0.41528 0.34828 0.0
C769 C 0.9837 0.42923 0.32034 0.0
C770 C 0.02765 0.42976 0.35798 0.0
C771 C 0.04831 0.45869 0.33973 0.0
H772 H 0.98145 0.39281 0.36255 0.0
H773 H 0.03594 0.41817 0.37984 0.0
S774 S 0.02819 0.50672 0.26852 0.0
N775 N 0.99534 0.47537 0.27786 0.0
N776 N 0.05406 0.50145 0.29456 0.0
C777 C 0.03637 0.47304 0.31231 0.0
C778 C 1.00433 0.45864 0.30297 0.0
C779 C 0.5756 0.99116 0.52228 0.0
C780 C 0.58454 0.97927 0.48561 0.0
C781 C 0.5913 0.02264 0.53275 0.0
C782 C 0.61722 0.04404 0.50766 0.0
H783 H 0.55575 0.97604 0.54248 0.0
H784 H 0.5825 0.03026 0.56041 0.0
S785 S 0.65173 0.02391 0.41073 0.0
N786 N 0.62169 0.9911 0.42524 0.0
N787 N 0.65205 0.0496 0.44591 0.0
C788 C 0.62681 0.0321 0.47152 0.0
C789 C 0.61038 1.00006 0.46037 0.0
C790 C 0.60386 0.60425 0.69985 0.0
C791 C 0.57653 0.59718 0.67728 0.0
C792 C 0.61977 0.58861 0.68986 0.0
C793 C 0.60891 0.56471 0.6573 0.0
H794 H 0.61322 0.6223 0.72519 0.0
H795 H 0.64099 0.59562 0.70755 0.0
S796 S 0.53601 0.53478 0.59314 0.0
N797 N 0.53833 0.56349 0.6231 0.0
N798 N 0.56682 0.53319 0.60594 0.0
C799 C 0.58093 0.55687 0.6357 0.0
C800 C 0.56517 0.57324 0.64526 0.0
C801 C 0.04297 0.56813 0.81717 0.0
C802 C 0.05863 0.59993 0.8084 0.0
C803 C 1.01147 0.5515 0.82672 0.0
C804 C 0.99348 0.56545 0.8271 0.0
H805 H 0.05512 0.55567 0.81668 0.0
H806 H 1.00104 0.52731 0.83382 0.0
S807 S 0.02201 0.64778 0.80743 0.0
N808 N 0.05265 0.64459 0.8022 0.0
N809 N 0.9936 0.61306 0.81805 0.0
C810 C 1.00837 0.59695 0.81755 0.0
C811 C 0.04069 0.61415 0.80865 0.0
C812 C 0.47049 0.03505 0.98975 0.0
C813 C 0.45534 0.05187 0.98505 0.0
C814 C 0.45533 1.00447 0.00547 0.0
C815 C 0.42402 0.98877 0.01628 0.0
H816 H 0.49452 0.04583 0.98195 0.0
H817 H 0.46824 0.99286 0.00876 0.0
S818 S 0.37344 0.02186 0.00913 0.0
N819 N 0.40692 0.05009 0.9926 0.0
N820 N 0.37844 0.99273 0.02069 0.0
C821 C 0.40849 1.00515 0.01112 0.0
C822 C 0.42409 0.03654 0.99604 0.0
C823 C 0.46438 0.47741 0.16792 0.0
C824 C 0.43243 0.46357 0.16639 0.0
C825 C 0.4789 0.46078 0.17986 0.0
C826 C 0.46225 0.42927 0.18976 0.0
H827 H 0.47836 0.50151 0.1604 0.0
H828 H 0.5035 0.4727 0.18098 0.0
S829 S 0.37812 0.38179 0.18975 0.0
N830 N 0.38463 0.4162 0.17583 0.0
N831 N 0.41182 0.38492 0.19685 0.0
C832 C 0.43031 0.41503 0.18775 0.0
C833 C 0.41548 0.43214 0.17656 0.0
C834 C 0.26694 0.55711 0.22574 0.0
C835 C 0.26167 0.55309 0.27343 0.0
C836 C 0.2935 0.55991 0.20593 0.0
C837 C 0.31521 0.55694 0.2323 0.0
H838 H 0.24961 0.55557 0.20272 0.0
H839 H 0.29582 0.56185 0.16883 0.0
S840 S 0.31193 0.54549 0.35877 0.0
N841 N 0.28206 0.54894 0.34707 0.0
N842 N 0.32861 0.54836 0.30886 0.0
C843 C 0.31045 0.55325 0.28006 0.0
C844 C 0.28453 0.55267 0.30066 0.0
C845 C 0.7684 0.30805 0.44109 0.0
C846 C 0.77114 0.3092 0.39288 0.0
C847 C 0.74389 0.28323 0.46343 0.0
C848 C 0.72188 0.2576 0.43892 0.0
H849 H 0.78644 0.32488 0.46222 0.0
H850 H 0.74372 0.28282 0.50069 0.0
S851 S 0.71898 0.24896 0.31206 0.0
N852 N 0.74818 0.28334 0.32119 0.0
N853 N 0.70522 0.23493 0.36343 0.0
C854 C 0.72395 0.25871 0.39072 0.0
C855 C 0.74782 0.28484 0.36782 0.0
C856 C 0.48385 0.73989 0.62891 0.0
C857 C 0.48435 0.71598 0.60475 0.0
C858 C 0.48549 0.76526 0.60609 0.0
C859 C 0.4859 0.76716 0.55777 0.0
H860 H 0.48461 0.74014 0.66616 0.0
H861 H 0.48887 0.78433 0.62683 0.0
S862 S 0.48668 0.71061 0.47761 0.0
N863 N 0.48709 0.69714 0.52917 0.0
N864 N 0.48457 0.74164 0.48643 0.0
C865 C 0.48411 0.74228 0.53315 0.0
C866 C 0.48462 0.71751 0.55641 0.0
C867 C 0.75487 0.46563 0.79378 0.0
C868 C 0.77998 0.46894 0.76819 0.0
C869 C 0.73038 0.46659 0.77264 0.0
C870 C 0.72937 0.46981 0.72467 0.0
H871 H 0.75527 0.46456 0.83098 0.0
H872 H 0.7136 0.4673 0.79456 0.0
S873 S 0.78887 0.47871 0.64166 0.0
N874 N 0.80243 0.47661 0.69223 0.0
N875 N 0.75512 0.47455 0.65212 0.0
C876 C 0.75341 0.47103 0.69855 0.0
C877 C 0.77897 0.47154 0.72024 0.0
C878 C 0.26816 0.78236 0.94521 0.0
C879 C 0.29557 0.78361 0.95744 0.0
C880 C 0.2454 0.75773 0.92046 0.0
C881 C 0.25046 0.73528 0.90099 0.0
H882 H 0.26408 0.80063 0.95465 0.0
H883 H 0.22395 0.75695 0.91504 0.0
S884 S 0.31974 0.72925 0.91909 0.0
N885 N 0.32625 0.75954 0.9491 0.0
N886 N 0.2861 0.71652 0.89505 0.0
C887 C 0.27843 0.73688 0.91125 0.0
C888 C 0.30053 0.76054 0.9402 0.0
C889 C 0.56 0.29733 0.10834 0.0
C890 C 0.53211 0.29484 0.12123 0.0
C891 C 0.561 0.27517 0.08031 0.0
C892 C 0.53413 0.24923 0.06555 0.0
H893 H 0.58118 0.31674 0.1196 0.0
H894 H 0.58287 0.27866 0.06929 0.0
S895 S 0.45543 0.23151 0.09042 0.0
N896 N 0.47712 0.26553 0.11309 0.0
N897 N 0.47898 0.22091 0.06993 0.0
C898 C 0.50623 0.24564 0.08067 0.0
C899 C 0.50521 0.26935 0.10553 0.0
loop_
_geom_bond_atom_site_label_1
_geom_bond_atom_site_label_2
_geom_bond_distance
_geom_bond_site_symmetry_2
_ccdc_geom_bond_type
C0 C1 1.443 . S
C0 N4 1.376 . S
C0 C38 1.389 . S
C1 C0 1.443 . S
C1 C2 1.340 . S
C1 H41 0.951 . S
C2 C1 1.340 . S
C2 C3 1.439 . S
C2 H42 0.950 . S
C3 C2 1.439 . S
C3 N4 1.374 . S
C3 C37 1.395 . S
N4 C0 1.376 . S
N4 C3 1.374 . S
N4 Co5 2.008 . S
Co5 N4 2.008 . S
Co5 N6 1.995 . S
Co5 N11 2.008 . S
Co5 N16 1.995 . S
Co5 N21 2.282 . S
Co5 N27 2.282 . S
N6 Co5 1.995 . S
N6 C7 1.376 . S
N6 C10 1.383 . S
C7 N6 1.376 . S
C7 C8 1.446 . S
C7 C37 1.391 . S
C8 C7 1.446 . S
C8 C9 1.339 . S
C8 H43 0.949 . S
C9 C8 1.339 . S
C9 C10 1.439 . S
C9 H44 0.950 . S
C10 N6 1.383 . S
C10 C9 1.439 . S
C10 C39 1.392 . S
N11 Co5 2.008 . S
N11 C12 1.376 . S
N11 C15 1.374 . S
C12 N11 1.376 . S
C12 C13 1.443 . S
C12 C39 1.389 . S
C13 C12 1.443 . S
C13 C14 1.340 . S
C13 H45 0.951 . S
C14 C13 1.340 . S
C14 C15 1.439 . S
C14 H46 0.950 . S
C15 N11 1.374 . S
C15 C14 1.439 . S
C15 C40 1.395 . S
N16 Co5 1.995 . S
N16 C17 1.376 . S
N16 C20 1.383 . S
C17 N16 1.376 . S
C17 C18 1.446 . S
C17 C40 1.391 . S
C18 C17 1.446 . S
C18 C19 1.339 . S
C18 H47 0.949 . S
C19 C18 1.339 . S
C19 C20 1.439 . S
C19 H48 0.950 . S
C20 N16 1.383 . S
C20 C19 1.439 . S
C20 C38 1.392 . S
N21 Co5 2.282 . S
N21 C24 1.332 . S
N21 C26 1.332 . S
C22 C23 1.386 . S
C22 C25 1.388 . S
C23 C22 1.386 . S
C23 C24 1.382 . S
C23 H49 0.950 . S
C24 N21 1.332 . S
C24 C23 1.382 . S
C24 H35 0.952 . S
C25 C22 1.388 . S
C25 C26 1.382 . S
C25 H50 0.950 . S
C26 N21 1.332 . S
C26 C25 1.382 . S
C26 H36 0.948 . S
N27 Co5 2.282 . S
N27 C31 1.332 . S
N27 C32 1.332 . S
C28 C29 1.388 . S
C28 C32 1.382 . S
C28 H51 0.950 . S
C29 C28 1.388 . S
C29 C30 1.386 . S
C30 C29 1.386 . S
C30 C31 1.382 . S
C30 H52 0.950 . S
C31 N27 1.332 . S
C31 C30 1.382 . S
C31 H33 0.952 . S
C32 N27 1.332 . S
C32 C28 1.382 . S
C32 H34 0.948 . S
H33 C31 0.952 . S
H34 C32 0.948 . S
H35 C24 0.952 . S
H36 C26 0.948 . S
C37 C3 1.395 . S
C37 C7 1.391 . S
C38 C0 1.389 . S
C38 C20 1.392 . S
C39 C10 1.392 . S
C39 C12 1.389 . S
C40 C15 1.395 . S
C40 C17 1.391 . S
H41 C1 0.951 . S
H42 C2 0.950 . S
H43 C8 0.949 . S
H44 C9 0.950 . S
H45 C13 0.951 . S
H46 C14 0.950 . S
H47 C18 0.949 . S
H48 C19 0.950 . S
H49 C23 0.950 . S
H50 C25 0.950 . S
H51 C28 0.950 . S
H52 C30 0.950 . S
C53 C54 1.443 . S
C53 N57 1.376 . S
C53 C91 1.389 . S
C54 C53 1.443 . S
C54 C55 1.340 . S
C54 H94 0.951 . S
C55 C54 1.340 . S
C55 C56 1.439 . S
C55 H95 0.950 . S
C56 C55 1.439 . S
C56 N57 1.374 . S
C56 C90 1.395 . S
N57 C53 1.376 . S
N57 C56 1.374 . S
N57 Co58 2.008 . S
Co58 N57 2.008 . S
Co58 N59 1.995 . S
Co58 N64 2.008 . S
Co58 N69 1.995 . S
Co58 N74 2.282 . S
Co58 N80 2.282 . S
N59 Co58 1.995 . S
N59 C60 1.376 . S
N59 C63 1.383 . S
C60 N59 1.376 . S
C60 C61 1.446 . S
C60 C90 1.391 . S
C61 C60 1.446 . S
C61 C62 1.339 . S
C61 H96 0.949 . S
C62 C61 1.339 . S
C62 C63 1.439 . S
C62 H97 0.950 . S
C63 N59 1.383 . S
C63 C62 1.439 . S
C63 C92 1.392 . S
N64 Co58 2.008 . S
N64 C65 1.376 . S
N64 C68 1.374 . S
C65 N64 1.376 . S
C65 C66 1.443 . S
C65 C92 1.389 . S
C66 C65 1.443 . S
C66 C67 1.340 . S
C66 H98 0.951 . S
C67 C66 1.340 . S
C67 C68 1.439 . S
C67 H99 0.950 . S
C68 N64 1.374 . S
C68 C67 1.439 . S
C68 C93 1.395 . S
N69 Co58 1.995 . S
N69 C70 1.376 . S
N69 C73 1.383 . S
C70 N69 1.376 . S
C70 C71 1.446 . S
C70 C93 1.391 . S
C71 C70 1.446 . S
C71 C72 1.339 . S
C71 H100 0.949 . S
C72 C71 1.339 . S
C72 C73 1.439 . S
C72 H101 0.950 . S
C73 N69 1.383 . S
C73 C72 1.439 . S
C73 C91 1.392 . S
N74 Co58 2.282 . S
N74 C77 1.332 . S
N74 C79 1.332 . S
C75 C76 1.386 . S
C75 C78 1.388 . S
C76 C75 1.386 . S
C76 C77 1.382 . S
C76 H102 0.950 . S
C77 N74 1.332 . S
C77 C76 1.382 . S
C77 H88 0.952 . S
C78 C75 1.388 . S
C78 C79 1.382 . S
C78 H103 0.950 . S
C79 N74 1.332 . S
C79 C78 1.382 . S
C79 H89 0.948 . S
N80 Co58 2.282 . S
N80 C84 1.332 . S
N80 C85 1.332 . S
C81 C82 1.388 . S
C81 C85 1.382 . S
C81 H104 0.950 . S
C82 C81 1.388 . S
C82 C83 1.386 . S
C83 C82 1.386 . S
C83 C84 1.382 . S
C83 H105 0.950 . S
C84 N80 1.332 . S
C84 C83 1.382 . S
C84 H86 0.952 . S
C85 N80 1.332 . S
C85 C81 1.382 . S
C85 H87 0.948 . S
H86 C84 0.952 . S
H87 C85 0.948 . S
H88 C77 0.952 . S
H89 C79 0.948 . S
C90 C56 1.395 . S
C90 C60 1.391 . S
C91 C53 1.389 . S
C91 C73 1.392 . S
C92 C63 1.392 . S
C92 C65 1.389 . S
C93 C68 1.395 . S
C93 C70 1.391 . S
H94 C54 0.951 . S
H95 C55 0.950 . S
H96 C61 0.949 . S
H97 C62 0.950 . S
H98 C66 0.951 . S
H99 C67 0.950 . S
H100 C71 0.949 . S
H101 C72 0.950 . S
H102 C76 0.950 . S
H103 C78 0.950 . S
H104 C81 0.950 . S
H105 C83 0.950 . S
C106 C107 1.443 . S
C106 N110 1.376 . S
C106 C144 1.389 . S
C107 C106 1.443 . S
C107 C108 1.340 . S
C107 H147 0.951 . S
C108 C107 1.340 . S
C108 C109 1.439 . S
C108 H148 0.950 . S
C109 C108 1.439 . S
C109 N110 1.374 . S
C109 C143 1.395 . S
N110 C106 1.376 . S
N110 C109 1.374 . S
N110 Co111 2.008 . S
Co111 N110 2.008 . S
Co111 N112 1.995 . S
Co111 N117 2.008 . S
Co111 N122 1.995 . S
Co111 N127 2.282 . S
Co111 N133 2.282 . S
N112 Co111 1.995 . S
N112 C113 1.376 . S
N112 C116 1.383 . S
C113 N112 1.376 . S
C113 C114 1.446 . S
C113 C143 1.391 . S
C114 C113 1.446 . S
C114 C115 1.339 . S
C114 H149 0.949 . S
C115 C114 1.339 . S
C115 C116 1.439 . S
C115 H150 0.950 . S
C116 N112 1.383 . S
C116 C115 1.439 . S
C116 C145 1.392 . S
N117 Co111 2.008 . S
N117 C118 1.376 . S
N117 C121 1.374 . S
C118 N117 1.376 . S
C118 C119 1.443 . S
C118 C145 1.389 . S
C119 C118 1.443 . S
C119 C120 1.340 . S
C119 H151 0.951 . S
C120 C119 1.340 . S
C120 C121 1.439 . S
C120 H152 0.950 . S
C121 N117 1.374 . S
C121 C120 1.439 . S
C121 C146 1.395 . S
N122 Co111 1.995 . S
N122 C123 1.376 . S
N122 C126 1.383 . S
C123 N122 1.376 . S
C123 C124 1.446 . S
C123 C146 1.391 . S
C124 C123 1.446 . S
C124 C125 1.339 . S
C124 H153 0.949 . S
C125 C124 1.339 . S
C125 C126 1.439 . S
C125 H154 0.950 . S
C126 N122 1.383 . S
C126 C125 1.439 . S
C126 C144 1.392 . S
N127 Co111 2.282 . S
N127 C130 1.332 . S
N127 C132 1.332 . S
C128 C129 1.386 . S
C128 C131 1.388 . S
C129 C128 1.386 . S
C129 C130 1.382 . S
C129 H155 0.950 . S
C130 N127 1.332 . S
C130 C129 1.382 . S
C130 H141 0.952 . S
C131 C128 1.388 . S
C131 C132 1.382 . S
C131 H156 0.950 . S
C132 N127 1.332 . S
C132 C131 1.382 . S
C132 H142 0.948 . S
N133 Co111 2.282 . S
N133 C137 1.332 . S
N133 C138 1.332 . S
C134 C135 1.388 . S
C134 C138 1.382 . S
C134 H157 0.950 . S
C135 C134 1.388 . S
C135 C136 1.386 . S
C136 C135 1.386 . S
C136 C137 1.382 . S
C136 H158 0.950 . S
C137 N133 1.332 . S
C137 C136 1.382 . S
C137 H139 0.952 . S
C138 N133 1.332 . S
C138 C134 1.382 . S
C138 H140 0.948 . S
H139 C137 0.952 . S
H140 C138 0.948 . S
H141 C130 0.952 . S
H142 C132 0.948 . S
C143 C109 1.395 . S
C143 C113 1.391 . S
C144 C106 1.389 . S
C144 C126 1.392 . S
C145 C116 1.392 . S
C145 C118 1.389 . S
C146 C121 1.395 . S
C146 C123 1.391 . S
H147 C107 0.951 . S
H148 C108 0.950 . S
H149 C114 0.949 . S
H150 C115 0.950 . S
H151 C119 0.951 . S
H152 C120 0.950 . S
H153 C124 0.949 . S
H154 C125 0.950 . S
H155 C129 0.950 . S
H156 C131 0.950 . S
H157 C134 0.950 . S
H158 C136 0.950 . S
C159 C160 1.443 . S
C159 N163 1.376 . S
C159 C197 1.389 . S
C160 C159 1.443 . S
C160 C161 1.340 . S
C160 H200 0.951 . S
C161 C160 1.340 . S
C161 C162 1.439 . S
C161 H201 0.950 . S
C162 C161 1.439 . S
C162 N163 1.374 . S
C162 C196 1.395 . S
N163 C159 1.376 . S
N163 C162 1.374 . S
N163 Co164 2.008 . S
Co164 N163 2.008 . S
Co164 N165 1.995 . S
Co164 N170 2.008 . S
Co164 N175 1.995 . S
Co164 N180 2.282 . S
Co164 N186 2.282 . S
N165 Co164 1.995 . S
N165 C166 1.376 . S
N165 C169 1.383 1_556 S
C166 N165 1.376 . S
C166 C167 1.446 1_556 S
C166 C196 1.391 . S
C167 C166 1.446 1_554 S
C167 C168 1.339 . S
C167 H202 0.949 . S
C168 C167 1.339 . S
C168 C169 1.439 . S
C168 H203 0.950 . S
C169 N165 1.383 1_554 S
C169 C168 1.439 . S
C169 C198 1.392 . S
N170 Co164 2.008 . S
N170 C171 1.376 . S
N170 C174 1.374 . S
C171 N170 1.376 . S
C171 C172 1.443 . S
C171 C198 1.389 1_556 S
C172 C171 1.443 . S
C172 C173 1.340 . S
C172 H204 0.951 . S
C173 C172 1.340 . S
C173 C174 1.439 . S
C173 H205 0.950 . S
C174 N170 1.374 . S
C174 C173 1.439 . S
C174 C199 1.395 . S
N175 Co164 1.995 . S
N175 C176 1.376 . S
N175 C179 1.383 . S
C176 N175 1.376 . S
C176 C177 1.446 . S
C176 C199 1.391 . S
C177 C176 1.446 . S
C177 C178 1.339 . S
C177 H206 0.949 . S
C178 C177 1.339 . S
C178 C179 1.439 . S
C178 H207 0.950 . S
C179 N175 1.383 . S
C179 C178 1.439 . S
C179 C197 1.392 . S
N180 Co164 2.282 . S
N180 C183 1.332 . S
N180 C185 1.332 . S
C181 C182 1.386 . S
C181 C184 1.388 . S
C182 C181 1.386 . S
C182 C183 1.382 . S
C182 H208 0.950 . S
C183 N180 1.332 . S
C183 C182 1.382 . S
C183 H194 0.952 . S
C184 C181 1.388 . S
C184 C185 1.382 . S
C184 H209 0.950 . S
C185 N180 1.332 . S
C185 C184 1.382 . S
C185 H195 0.948 . S
N186 Co164 2.282 . S
N186 C190 1.332 . S
N186 C191 1.332 . S
C187 C188 1.388 . S
C187 C191 1.382 . S
C187 H210 0.950 . S
C188 C187 1.388 . S
C188 C189 1.386 . S
C189 C188 1.386 . S
C189 C190 1.382 . S
C189 H211 0.950 . S
C190 N186 1.332 . S
C190 C189 1.382 . S
C190 H192 0.952 . S
C191 N186 1.332 . S
C191 C187 1.382 . S
C191 H193 0.948 . S
H192 C190 0.952 . S
H193 C191 0.948 . S
H194 C183 0.952 . S
H195 C185 0.948 . S
C196 C162 1.395 . S
C196 C166 1.391 . S
C197 C159 1.389 . S
C197 C179 1.392 . S
C198 C169 1.392 . S
C198 C171 1.389 1_554 S
C199 C174 1.395 . S
C199 C176 1.391 . S
H200 C160 0.951 . S
H201 C161 0.950 . S
H202 C167 0.949 . S
H203 C168 0.950 . S
H204 C172 0.951 . S
H205 C173 0.950 . S
H206 C177 0.949 . S
H207 C178 0.950 . S
H208 C182 0.950 . S
H209 C184 0.950 . S
H210 C187 0.950 . S
H211 C189 0.950 . S
C212 C213 1.443 . S
C212 N216 1.376 . S
C212 C250 1.389 1_554 S
C213 C212 1.443 . S
C213 C214 1.340 . S
C213 H253 0.951 . S
C214 C213 1.340 . S
C214 C215 1.439 . S
C214 H254 0.950 . S
C215 C214 1.439 . S
C215 N216 1.374 . S
C215 C249 1.395 . S
N216 C212 1.376 . S
N216 C215 1.374 . S
N216 Co217 2.008 . S
Co217 N216 2.008 . S
Co217 N218 1.995 . S
Co217 N223 2.008 . S
Co217 N228 1.995 . S
Co217 N233 2.282 . S
Co217 N239 2.282 . S
N218 Co217 1.995 . S
N218 C219 1.376 . S
N218 C222 1.383 . S
C219 N218 1.376 . S
C219 C220 1.446 . S
C219 C249 1.391 . S
C220 C219 1.446 . S
C220 C221 1.339 . S
C220 H255 0.949 . S
C221 C220 1.339 . S
C221 C222 1.439 . S
C221 H256 0.950 . S
C222 N218 1.383 . S
C222 C221 1.439 . S
C222 C251 1.392 . S
N223 Co217 2.008 . S
N223 C224 1.376 . S
N223 C227 1.374 . S
C224 N223 1.376 . S
C224 C225 1.443 . S
C224 C251 1.389 . S
C225 C224 1.443 . S
C225 C226 1.340 . S
C225 H257 0.951 . S
C226 C225 1.340 . S
C226 C227 1.439 . S
C226 H258 0.950 . S
C227 N223 1.374 . S
C227 C226 1.439 . S
C227 C252 1.395 . S
N228 Co217 1.995 . S
N228 C229 1.376 1_554 S
N228 C232 1.383 1_554 S
C229 N228 1.376 1_556 S
C229 C230 1.446 . S
C229 C252 1.391 1_556 S
C230 C229 1.446 . S
C230 C231 1.339 . S
C230 H259 0.949 . S
C231 C230 1.339 . S
C231 C232 1.439 . S
C231 H260 0.950 . S
C232 N228 1.383 1_556 S
C232 C231 1.439 . S
C232 C250 1.392 . S
N233 Co217 2.282 . S
N233 C236 1.332 . S
N233 C238 1.332 . S
C234 C235 1.386 . S
C234 C237 1.388 . S
C235 C234 1.386 . S
C235 C236 1.382 . S
C235 H261 0.950 . S
C236 N233 1.332 . S
C236 C235 1.382 . S
C236 H247 0.952 . S
C237 C234 1.388 . S
C237 C238 1.382 . S
C237 H262 0.950 . S
C238 N233 1.332 . S
C238 C237 1.382 . S
C238 H248 0.948 . S
N239 Co217 2.282 . S
N239 C243 1.332 . S
N239 C244 1.332 . S
C240 C241 1.388 . S
C240 C244 1.382 . S
C240 H263 0.950 . S
C241 C240 1.388 . S
C241 C242 1.386 . S
C242 C241 1.386 . S
C242 C243 1.382 . S
C242 H264 0.950 . S
C243 N239 1.332 . S
C243 C242 1.382 . S
C243 H245 0.952 . S
C244 N239 1.332 . S
C244 C240 1.382 . S
C244 H246 0.948 . S
H245 C243 0.952 . S
H246 C244 0.948 . S
H247 C236 0.952 . S
H248 C238 0.948 . S
C249 C215 1.395 . S
C249 C219 1.391 . S
C250 C212 1.389 1_556 S
C250 C232 1.392 . S
C251 C222 1.392 . S
C251 C224 1.389 . S
C252 C227 1.395 . S
C252 C229 1.391 1_554 S
H253 C213 0.951 . S
H254 C214 0.950 . S
H255 C220 0.949 . S
H256 C221 0.950 . S
H257 C225 0.951 . S
H258 C226 0.950 . S
H259 C230 0.949 . S
H260 C231 0.950 . S
H261 C235 0.950 . S
H262 C237 0.950 . S
H263 C240 0.950 . S
H264 C242 0.950 . S
C265 C266 1.443 . S
C265 N269 1.376 . S
C265 C303 1.389 . S
C266 C265 1.443 . S
C266 C267 1.340 . S
C266 H306 0.951 . S
C267 C266 1.340 . S
C267 C268 1.439 . S
C267 H307 0.950 . S
C268 C267 1.439 . S
C268 N269 1.374 . S
C268 C302 1.395 . S
N269 C265 1.376 . S
N269 C268 1.374 . S
N269 Co270 2.008 . S
Co270 N269 2.008 . S
Co270 N271 1.995 . S
Co270 N276 2.008 . S
Co270 N281 1.995 . S
Co270 N286 2.282 . S
Co270 N292 2.282 . S
N271 Co270 1.995 . S
N271 C272 1.376 . S
N271 C275 1.383 . S
C272 N271 1.376 . S
C272 C273 1.446 . S
C272 C302 1.391 . S
C273 C272 1.446 . S
C273 C274 1.339 . S
C273 H308 0.949 . S
C274 C273 1.339 . S
C274 C275 1.439 . S
C274 H309 0.950 . S
C275 N271 1.383 . S
C275 C274 1.439 . S
C275 C304 1.392 . S
N276 Co270 2.008 . S
N276 C277 1.376 . S
N276 C280 1.374 . S
C277 N276 1.376 . S
C277 C278 1.443 . S
C277 C304 1.389 . S
C278 C277 1.443 . S
C278 C279 1.340 . S
C278 H310 0.951 . S
C279 C278 1.340 . S
C279 C280 1.439 . S
C279 H311 0.950 . S
C280 N276 1.374 . S
C280 C279 1.439 . S
C280 C305 1.395 . S
N281 Co270 1.995 . S
N281 C282 1.376 . S
N281 C285 1.383 . S
C282 N281 1.376 . S
C282 C283 1.446 . S
C282 C305 1.391 . S
C283 C282 1.446 . S
C283 C284 1.339 . S
C283 H312 0.949 . S
C284 C283 1.339 . S
C284 C285 1.439 . S
C284 H313 0.950 . S
C285 N281 1.383 . S
C285 C284 1.439 . S
C285 C303 1.392 . S
N286 Co270 2.282 . S
N286 C289 1.332 . S
N286 C291 1.332 . S
C287 C288 1.386 . S
C287 C290 1.388 . S
C288 C287 1.386 . S
C288 C289 1.382 . S
C288 H314 0.950 . S
C289 N286 1.332 . S
C289 C288 1.382 . S
C289 H300 0.952 . S
C290 C287 1.388 . S
C290 C291 1.382 . S
C290 H315 0.950 . S
C291 N286 1.332 . S
C291 C290 1.382 . S
C291 H301 0.948 . S
N292 Co270 2.282 . S
N292 C296 1.332 . S
N292 C297 1.332 . S
C293 C294 1.388 . S
C293 C297 1.382 . S
C293 H316 0.950 . S
C294 C293 1.388 . S
C294 C295 1.386 . S
C295 C294 1.386 . S
C295 C296 1.382 . S
C295 H317 0.950 . S
C296 N292 1.332 . S
C296 C295 1.382 . S
C296 H298 0.952 . S
C297 N292 1.332 . S
C297 C293 1.382 . S
C297 H299 0.948 . S
H298 C296 0.952 . S
H299 C297 0.948 . S
H300 C289 0.952 . S
H301 C291 0.948 . S
C302 C268 1.395 . S
C302 C272 1.391 . S
C303 C265 1.389 . S
C303 C285 1.392 . S
C304 C275 1.392 . S
C304 C277 1.389 . S
C305 C280 1.395 . S
C305 C282 1.391 . S
H306 C266 0.951 . S
H307 C267 0.950 . S
H308 C273 0.949 . S
H309 C274 0.950 . S
H310 C278 0.951 . S
H311 C279 0.950 . S
H312 C283 0.949 . S
H313 C284 0.950 . S
H314 C288 0.950 . S
H315 C290 0.950 . S
H316 C293 0.950 . S
H317 C295 0.950 . S
C318 C319 1.443 . S
C318 N322 1.376 . S
C318 C356 1.389 . S
C319 C318 1.443 . S
C319 C320 1.340 . S
C319 H359 0.951 . S
C320 C319 1.340 . S
C320 C321 1.439 . S
C320 H360 0.950 . S
C321 C320 1.439 . S
C321 N322 1.374 . S
C321 C355 1.395 . S
N322 C318 1.376 . S
N322 C321 1.374 . S
N322 Co323 2.008 . S
Co323 N322 2.008 . S
Co323 N324 1.995 . S
Co323 N329 2.008 . S
Co323 N334 1.995 . S
Co323 N339 2.282 . S
Co323 N345 2.282 . S
N324 Co323 1.995 . S
N324 C325 1.376 . S
N324 C328 1.383 . S
C325 N324 1.376 . S
C325 C326 1.446 . S
C325 C355 1.391 . S
C326 C325 1.446 . S
C326 C327 1.339 . S
C326 H361 0.949 . S
C327 C326 1.339 . S
C327 C328 1.439 . S
C327 H362 0.950 . S
C328 N324 1.383 . S
C328 C327 1.439 . S
C328 C357 1.392 . S
N329 Co323 2.008 . S
N329 C330 1.376 . S
N329 C333 1.374 . S
C330 N329 1.376 . S
C330 C331 1.443 . S
C330 C357 1.389 . S
C331 C330 1.443 . S
C331 C332 1.340 . S
C331 H363 0.951 . S
C332 C331 1.340 . S
C332 C333 1.439 . S
C332 H364 0.950 . S
C333 N329 1.374 . S
C333 C332 1.439 . S
C333 C358 1.395 . S
N334 Co323 1.995 . S
N334 C335 1.376 . S
N334 C338 1.383 . S
C335 N334 1.376 . S
C335 C336 1.446 . S
C335 C358 1.391 . S
C336 C335 1.446 . S
C336 C337 1.339 . S
C336 H365 0.949 . S
C337 C336 1.339 . S
C337 C338 1.439 . S
C337 H366 0.950 . S
C338 N334 1.383 . S
C338 C337 1.439 . S
C338 C356 1.392 . S
N339 Co323 2.282 . S
N339 C342 1.332 . S
N339 C344 1.332 . S
C340 C341 1.386 . S
C340 C343 1.388 . S
C341 C340 1.386 . S
C341 C342 1.382 . S
C341 H367 0.950 . S
C342 N339 1.332 . S
C342 C341 1.382 . S
C342 H353 0.952 . S
C343 C340 1.388 . S
C343 C344 1.382 . S
C343 H368 0.950 . S
C344 N339 1.332 . S
C344 C343 1.382 . S
C344 H354 0.948 . S
N345 Co323 2.282 . S
N345 C349 1.332 . S
N345 C350 1.332 . S
C346 C347 1.388 . S
C346 C350 1.382 . S
C346 H369 0.950 . S
C347 C346 1.388 . S
C347 C348 1.386 . S
C348 C347 1.386 . S
C348 C349 1.382 . S
C348 H370 0.950 . S
C349 N345 1.332 . S
C349 C348 1.382 . S
C349 H351 0.952 . S
C350 N345 1.332 . S
C350 C346 1.382 . S
C350 H352 0.948 . S
H351 C349 0.952 . S
H352 C350 0.948 . S
H353 C342 0.952 . S
H354 C344 0.948 . S
C355 C321 1.395 . S
C355 C325 1.391 . S
C356 C318 1.389 . S
C356 C338 1.392 . S
C357 C328 1.392 . S
C357 C330 1.389 . S
C358 C333 1.395 . S
C358 C335 1.391 . S
H359 C319 0.951 . S
H360 C320 0.950 . S
H361 C326 0.949 . S
H362 C327 0.950 . S
H363 C331 0.951 . S
H364 C332 0.950 . S
H365 C336 0.949 . S
H366 C337 0.950 . S
H367 C341 0.950 . S
H368 C343 0.950 . S
H369 C346 0.950 . S
H370 C348 0.950 . S
C371 C372 1.443 . S
C371 N375 1.376 . S
C371 C409 1.389 . S
C372 C371 1.443 . S
C372 C373 1.340 . S
C372 H412 0.951 . S
C373 C372 1.340 . S
C373 C374 1.439 . S
C373 H413 0.950 . S
C374 C373 1.439 . S
C374 N375 1.374 . S
C374 C408 1.395 . S
N375 C371 1.376 . S
N375 C374 1.374 . S
N375 Co376 2.008 . S
Co376 N375 2.008 . S
Co376 N377 1.995 . S
Co376 N382 2.008 . S
Co376 N387 1.995 . S
Co376 N392 2.282 . S
Co376 N398 2.282 . S
N377 Co376 1.995 . S
N377 C378 1.376 . S
N377 C381 1.383 . S
C378 N377 1.376 . S
C378 C379 1.446 . S
C378 C408 1.391 . S
C379 C378 1.446 . S
C379 C380 1.339 . S
C379 H414 0.949 . S
C380 C379 1.339 . S
C380 C381 1.439 . S
C380 H415 0.950 . S
C381 N377 1.383 . S
C381 C380 1.439 . S
C381 C410 1.392 . S
N382 Co376 2.008 . S
N382 C383 1.376 . S
N382 C386 1.374 . S
C383 N382 1.376 . S
C383 C384 1.443 . S
C383 C410 1.389 . S
C384 C383 1.443 . S
C384 C385 1.340 . S
C384 H416 0.951 . S
C385 C384 1.340 . S
C385 C386 1.439 . S
C385 H417 0.950 . S
C386 N382 1.374 . S
C386 C385 1.439 . S
C386 C411 1.395 . S
N387 Co376 1.995 . S
N387 C388 1.376 . S
N387 C391 1.383 . S
C388 N387 1.376 . S
C388 C389 1.446 . S
C388 C411 1.391 . S
C389 C388 1.446 . S
C389 C390 1.339 . S
C389 H418 0.949 . S
C390 C389 1.339 . S
C390 C391 1.439 . S
C390 H419 0.950 . S
C391 N387 1.383 . S
C391 C390 1.439 . S
C391 C409 1.392 . S
N392 Co376 2.282 . S
N392 C395 1.332 . S
N392 C397 1.332 . S
C393 C394 1.386 . S
C393 C396 1.388 . S
C394 C393 1.386 . S
C394 C395 1.382 . S
C394 H420 0.950 . S
C395 N392 1.332 . S
C395 C394 1.382 . S
C395 H406 0.952 . S
C396 C393 1.388 . S
C396 C397 1.382 . S
C396 H421 0.950 . S
C397 N392 1.332 . S
C397 C396 1.382 . S
C397 H407 0.948 . S
N398 Co376 2.282 . S
N398 C402 1.332 . S
N398 C403 1.332 . S
C399 C400 1.388 . S
C399 C403 1.382 . S
C399 H422 0.950 . S
C400 C399 1.388 . S
C400 C401 1.386 . S
C401 C400 1.386 . S
C401 C402 1.382 . S
C401 H423 0.950 . S
C402 N398 1.332 . S
C402 C401 1.382 . S
C402 H404 0.952 . S
C403 N398 1.332 . S
C403 C399 1.382 . S
C403 H405 0.948 . S
H404 C402 0.952 . S
H405 C403 0.948 . S
H406 C395 0.952 . S
H407 C397 0.948 . S
C408 C374 1.395 . S
C408 C378 1.391 . S
C409 C371 1.389 . S
C409 C391 1.392 . S
C410 C381 1.392 . S
C410 C383 1.389 . S
C411 C386 1.395 . S
C411 C388 1.391 . S
H412 C372 0.951 . S
H413 C373 0.950 . S
H414 C379 0.949 . S
H415 C380 0.950 . S
H416 C384 0.951 . S
H417 C385 0.950 . S
H418 C389 0.949 . S
H419 C390 0.950 . S
H420 C394 0.950 . S
H421 C396 0.950 . S
H422 C399 0.950 . S
H423 C401 0.950 . S
C424 C425 1.443 . S
C424 N428 1.376 . S
C424 C462 1.389 . S
C425 C424 1.443 . S
C425 C426 1.340 . S
C425 H465 0.951 . S
C426 C425 1.340 . S
C426 C427 1.439 . S
C426 H466 0.950 . S
C427 C426 1.439 . S
C427 N428 1.374 . S
C427 C461 1.395 . S
N428 C424 1.376 . S
N428 C427 1.374 . S
N428 Co429 2.008 . S
Co429 N428 2.008 . S
Co429 N430 1.995 . S
Co429 N435 2.008 . S
Co429 N440 1.995 . S
Co429 N445 2.282 . S
Co429 N451 2.282 . S
N430 Co429 1.995 . S
N430 C431 1.376 . S
N430 C434 1.383 . S
C431 N430 1.376 . S
C431 C432 1.446 . S
C431 C461 1.391 . S
C432 C431 1.446 . S
C432 C433 1.339 . S
C432 H467 0.949 . S
C433 C432 1.339 . S
C433 C434 1.439 . S
C433 H468 0.950 . S
C434 N430 1.383 . S
C434 C433 1.439 . S
C434 C463 1.392 . S
N435 Co429 2.008 . S
N435 C436 1.376 . S
N435 C439 1.374 . S
C436 N435 1.376 . S
C436 C437 1.443 . S
C436 C463 1.389 . S
C437 C436 1.443 . S
C437 C438 1.340 . S
C437 H469 0.951 . S
C438 C437 1.340 . S
C438 C439 1.439 . S
C438 H470 0.950 . S
C439 N435 1.374 . S
C439 C438 1.439 . S
C439 C464 1.395 . S
N440 Co429 1.995 . S
N440 C441 1.376 . S
N440 C444 1.383 . S
C441 N440 1.376 . S
C441 C442 1.446 . S
C441 C464 1.391 . S
C442 C441 1.446 . S
C442 C443 1.339 . S
C442 H471 0.949 . S
C443 C442 1.339 . S
C443 C444 1.439 . S
C443 H472 0.950 . S
C444 N440 1.383 . S
C444 C443 1.439 . S
C444 C462 1.392 . S
N445 Co429 2.282 . S
N445 C448 1.332 . S
N445 C450 1.332 . S
C446 C447 1.386 . S
C446 C449 1.388 . S
C447 C446 1.386 . S
C447 C448 1.382 . S
C447 H473 0.950 . S
C448 N445 1.332 . S
C448 C447 1.382 . S
C448 H459 0.952 . S
C449 C446 1.388 . S
C449 C450 1.382 . S
C449 H474 0.950 . S
C450 N445 1.332 . S
C450 C449 1.382 . S
C450 H460 0.948 . S
N451 Co429 2.282 . S
N451 C455 1.332 . S
N451 C456 1.332 . S
C452 C453 1.388 . S
C452 C456 1.382 . S
C452 H475 0.950 . S
C453 C452 1.388 . S
C453 C454 1.386 . S
C454 C453 1.386 . S
C454 C455 1.382 . S
C454 H476 0.950 . S
C455 N451 1.332 . S
C455 C454 1.382 . S
C455 H457 0.952 . S
C456 N451 1.332 . S
C456 C452 1.382 . S
C456 H458 0.948 . S
H457 C455 0.952 . S
H458 C456 0.948 . S
H459 C448 0.952 . S
H460 C450 0.948 . S
C461 C427 1.395 . S
C461 C431 1.391 . S
C462 C424 1.389 . S
C462 C444 1.392 . S
C463 C434 1.392 . S
C463 C436 1.389 . S
C464 C439 1.395 . S
C464 C441 1.391 . S
H465 C425 0.951 . S
H466 C426 0.950 . S
H467 C432 0.949 . S
H468 C433 0.950 . S
H469 C437 0.951 . S
H470 C438 0.950 . S
H471 C442 0.949 . S
H472 C443 0.950 . S
H473 C447 0.950 . S
H474 C449 0.950 . S
H475 C452 0.950 . S
H476 C454 0.950 . S
C477 C478 1.443 . S
C477 N481 1.376 . S
C477 C515 1.389 1_556 S
C478 C477 1.443 . S
C478 C479 1.340 . S
C478 H518 0.951 . S
C479 C478 1.340 . S
C479 C480 1.439 . S
C479 H519 0.950 . S
C480 C479 1.439 . S
C480 N481 1.374 . S
C480 C514 1.395 . S
N481 C477 1.376 . S
N481 C480 1.374 . S
N481 Co482 2.008 . S
Co482 N481 2.008 . S
Co482 N483 1.995 . S
Co482 N488 2.008 . S
Co482 N493 1.995 . S
Co482 N498 2.282 . S
Co482 N504 2.282 . S
N483 Co482 1.995 . S
N483 C484 1.376 . S
N483 C487 1.383 . S
C484 N483 1.376 . S
C484 C485 1.446 . S
C484 C514 1.391 . S
C485 C484 1.446 . S
C485 C486 1.339 . S
C485 H520 0.949 . S
C486 C485 1.339 . S
C486 C487 1.439 . S
C486 H521 0.950 . S
C487 N483 1.383 . S
C487 C486 1.439 . S
C487 C516 1.392 . S
N488 Co482 2.008 . S
N488 C489 1.376 . S
N488 C492 1.374 . S
C489 N488 1.376 . S
C489 C490 1.443 . S
C489 C516 1.389 . S
C490 C489 1.443 . S
C490 C491 1.340 . S
C490 H522 0.951 . S
C491 C490 1.340 . S
C491 C492 1.439 . S
C491 H523 0.950 . S
C492 N488 1.374 . S
C492 C491 1.439 . S
C492 C517 1.395 . S
N493 Co482 1.995 . S
N493 C494 1.376 1_556 S
N493 C497 1.383 1_556 S
C494 N493 1.376 1_554 S
C494 C495 1.446 . S
C494 C517 1.391 1_554 S
C495 C494 1.446 . S
C495 C496 1.339 . S
C495 H524 0.949 . S
C496 C495 1.339 . S
C496 C497 1.439 . S
C496 H525 0.950 . S
C497 N493 1.383 1_554 S
C497 C496 1.439 . S
C497 C515 1.392 . S
N498 Co482 2.282 . S
N498 C501 1.332 . S
N498 C503 1.332 . S
C499 C500 1.386 . S
C499 C502 1.388 . S
C500 C499 1.386 . S
C500 C501 1.382 . S
C500 H526 0.950 . S
C501 N498 1.332 . S
C501 C500 1.382 . S
C501 H512 0.952 . S
C502 C499 1.388 . S
C502 C503 1.382 . S
C502 H527 0.950 . S
C503 N498 1.332 . S
C503 C502 1.382 . S
C503 H513 0.948 . S
N504 Co482 2.282 . S
N504 C508 1.332 . S
N504 C509 1.332 . S
C505 C506 1.388 . S
C505 C509 1.382 . S
C505 H528 0.950 . S
C506 C505 1.388 . S
C506 C507 1.386 . S
C507 C506 1.386 . S
C507 C508 1.382 . S
C507 H529 0.950 . S
C508 N504 1.332 . S
C508 C507 1.382 . S
C508 H510 0.952 . S
C509 N504 1.332 . S
C509 C505 1.382 . S
C509 H511 0.948 . S
H510 C508 0.952 . S
H511 C509 0.948 . S
H512 C501 0.952 . S
H513 C503 0.948 . S
C514 C480 1.395 . S
C514 C484 1.391 . S
C515 C477 1.389 1_554 S
C515 C497 1.392 . S
C516 C487 1.392 . S
C516 C489 1.389 . S
C517 C492 1.395 . S
C517 C494 1.391 1_556 S
H518 C478 0.951 . S
H519 C479 0.950 . S
H520 C485 0.949 . S
H521 C486 0.950 . S
H522 C490 0.951 . S
H523 C491 0.950 . S
H524 C495 0.949 . S
H525 C496 0.950 . S
H526 C500 0.950 . S
H527 C502 0.950 . S
H528 C505 0.950 . S
H529 C507 0.950 . S
C530 C531 1.443 . S
C530 N534 1.376 . S
C530 C568 1.389 . S
C531 C530 1.443 . S
C531 C532 1.340 . S
C531 H571 0.951 . S
C532 C531 1.340 . S
C532 C533 1.439 . S
C532 H572 0.950 . S
C533 C532 1.439 . S
C533 N534 1.374 . S
C533 C567 1.395 . S
N534 C530 1.376 . S
N534 C533 1.374 . S
N534 Co535 2.008 . S
Co535 N534 2.008 . S
Co535 N536 1.995 . S
Co535 N541 2.008 . S
Co535 N546 1.995 . S
Co535 N551 2.282 . S
Co535 N557 2.282 . S
N536 Co535 1.995 . S
N536 C537 1.376 . S
N536 C540 1.383 1_554 S
C537 N536 1.376 . S
C537 C538 1.446 1_554 S
C537 C567 1.391 . S
C538 C537 1.446 1_556 S
C538 C539 1.339 . S
C538 H573 0.949 . S
C539 C538 1.339 . S
C539 C540 1.439 . S
C539 H574 0.950 . S
C540 N536 1.383 1_556 S
C540 C539 1.439 . S
C540 C569 1.392 . S
N541 Co535 2.008 . S
N541 C542 1.376 . S
N541 C545 1.374 . S
C542 N541 1.376 . S
C542 C543 1.443 . S
C542 C569 1.389 1_554 S
C543 C542 1.443 . S
C543 C544 1.340 . S
C543 H575 0.951 . S
C544 C543 1.340 . S
C544 C545 1.439 . S
C544 H576 0.950 . S
C545 N541 1.374 . S
C545 C544 1.439 . S
C545 C570 1.395 . S
N546 Co535 1.995 . S
N546 C547 1.376 . S
N546 C550 1.383 . S
C547 N546 1.376 . S
C547 C548 1.446 . S
C547 C570 1.391 . S
C548 C547 1.446 . S
C548 C549 1.339 . S
C548 H577 0.949 . S
C549 C548 1.339 . S
C549 C550 1.439 . S
C549 H578 0.950 . S
C550 N546 1.383 . S
C550 C549 1.439 . S
C550 C568 1.392 . S
N551 Co535 2.282 . S
N551 C554 1.332 . S
N551 C556 1.332 . S
C552 C553 1.386 . S
C552 C555 1.388 . S
C553 C552 1.386 . S
C553 C554 1.382 . S
C553 H579 0.950 . S
C554 N551 1.332 . S
C554 C553 1.382 . S
C554 H565 0.952 . S
C555 C552 1.388 . S
C555 C556 1.382 . S
C555 H580 0.950 . S
C556 N551 1.332 . S
C556 C555 1.382 . S
C556 H566 0.948 . S
N557 Co535 2.282 . S
N557 C561 1.332 . S
N557 C562 1.332 . S
C558 C559 1.388 . S
C558 C562 1.382 . S
C558 H581 0.950 . S
C559 C558 1.388 . S
C559 C560 1.386 . S
C560 C559 1.386 . S
C560 C561 1.382 . S
C560 H582 0.950 . S
C561 N557 1.332 . S
C561 C560 1.382 . S
C561 H563 0.952 . S
C562 N557 1.332 . S
C562 C558 1.382 . S
C562 H564 0.948 . S
H563 C561 0.952 . S
H564 C562 0.948 . S
H565 C554 0.952 . S
H566 C556 0.948 . S
C567 C533 1.395 . S
C567 C537 1.391 . S
C568 C530 1.389 . S
C568 C550 1.392 . S
C569 C540 1.392 . S
C569 C542 1.389 1_556 S
C570 C545 1.395 . S
C570 C547 1.391 . S
H571 C531 0.951 . S
H572 C532 0.950 . S
H573 C538 0.949 . S
H574 C539 0.950 . S
H575 C543 0.951 . S
H576 C544 0.950 . S
H577 C548 0.949 . S
H578 C549 0.950 . S
H579 C553 0.950 . S
H580 C555 0.950 . S
H581 C558 0.950 . S
H582 C560 0.950 . S
C583 C584 1.443 . S
C583 N587 1.376 . S
C583 C621 1.389 . S
C584 C583 1.443 . S
C584 C585 1.340 . S
C584 H624 0.951 . S
C585 C584 1.340 . S
C585 C586 1.439 . S
C585 H625 0.950 . S
C586 C585 1.439 . S
C586 N587 1.374 . S
C586 C620 1.395 . S
N587 C583 1.376 . S
N587 C586 1.374 . S
N587 Co588 2.008 . S
Co588 N587 2.008 . S
Co588 N589 1.995 . S
Co588 N594 2.008 . S
Co588 N599 1.995 . S
Co588 N604 2.282 . S
Co588 N610 2.282 . S
N589 Co588 1.995 . S
N589 C590 1.376 . S
N589 C593 1.383 . S
C590 N589 1.376 . S
C590 C591 1.446 . S
C590 C620 1.391 . S
C591 C590 1.446 . S
C591 C592 1.339 . S
C591 H626 0.949 . S
C592 C591 1.339 . S
C592 C593 1.439 . S
C592 H627 0.950 . S
C593 N589 1.383 . S
C593 C592 1.439 . S
C593 C622 1.392 . S
N594 Co588 2.008 . S
N594 C595 1.376 . S
N594 C598 1.374 . S
C595 N594 1.376 . S
C595 C596 1.443 . S
C595 C622 1.389 . S
C596 C595 1.443 . S
C596 C597 1.340 . S
C596 H628 0.951 . S
C597 C596 1.340 . S
C597 C598 1.439 . S
C597 H629 0.950 . S
C598 N594 1.374 . S
C598 C597 1.439 . S
C598 C623 1.395 . S
N599 Co588 1.995 . S
N599 C600 1.376 . S
N599 C603 1.383 . S
C600 N599 1.376 . S
C600 C601 1.446 . S
C600 C623 1.391 . S
C601 C600 1.446 . S
C601 C602 1.339 . S
C601 H630 0.949 . S
C602 C601 1.339 . S
C602 C603 1.439 . S
C602 H631 0.950 . S
C603 N599 1.383 . S
C603 C602 1.439 . S
C603 C621 1.392 . S
N604 Co588 2.282 . S
N604 C607 1.332 . S
N604 C609 1.332 . S
C605 C606 1.386 . S
C605 C608 1.388 . S
C606 C605 1.386 . S
C606 C607 1.382 . S
C606 H632 0.950 . S
C607 N604 1.332 . S
C607 C606 1.382 . S
C607 H618 0.952 . S
C608 C605 1.388 . S
C608 C609 1.382 . S
C608 H633 0.950 . S
C609 N604 1.332 . S
C609 C608 1.382 . S
C609 H619 0.948 . S
N610 Co588 2.282 . S
N610 C614 1.332 . S
N610 C615 1.332 . S
C611 C612 1.388 . S
C611 C615 1.382 . S
C611 H634 0.950 . S
C612 C611 1.388 . S
C612 C613 1.386 . S
C613 C612 1.386 . S
C613 C614 1.382 . S
C613 H635 0.950 . S
C614 N610 1.332 . S
C614 C613 1.382 . S
C614 H616 0.952 . S
C615 N610 1.332 . S
C615 C611 1.382 . S
C615 H617 0.948 . S
H616 C614 0.952 . S
H617 C615 0.948 . S
H618 C607 0.952 . S
H619 C609 0.948 . S
C620 C586 1.395 . S
C620 C590 1.391 . S
C621 C583 1.389 . S
C621 C603 1.392 . S
C622 C593 1.392 . S
C622 C595 1.389 . S
C623 C598 1.395 . S
C623 C600 1.391 . S
H624 C584 0.951 . S
H625 C585 0.950 . S
H626 C591 0.949 . S
H627 C592 0.950 . S
H628 C596 0.951 . S
H629 C597 0.950 . S
H630 C601 0.949 . S
H631 C602 0.950 . S
H632 C606 0.950 . S
H633 C608 0.950 . S
H634 C611 0.950 . S
H635 C613 0.950 . S
C636 C637 1.369 . S
C636 C638 1.419 . S
C636 H640 0.930 . S
C637 C636 1.369 . S
C637 C646 1.429 . S
C638 C636 1.419 . S
C638 C639 1.363 . S
C638 H641 0.929 . S
C639 C638 1.363 . S
C639 C645 1.428 . S
H640 C636 0.930 . S
H641 C638 0.929 . S
S642 N643 1.613 . S
S642 N644 1.610 . S
N643 S642 1.613 . S
N643 C646 1.350 . S
N644 S642 1.610 . S
N644 C645 1.351 . S
C645 C639 1.428 . S
C645 N644 1.351 . S
C645 C646 1.434 . S
C646 C637 1.429 . S
C646 N643 1.350 . S
C646 C645 1.434 . S
C647 C648 1.369 . S
C647 C649 1.419 . S
C647 H651 0.930 . S
C648 C647 1.369 . S
C648 C657 1.429 . S
C649 C647 1.419 . S
C649 C650 1.363 . S
C649 H652 0.929 . S
C650 C649 1.363 . S
C650 C656 1.428 . S
H651 C647 0.930 . S
H652 C649 0.929 . S
S653 N654 1.613 . S
S653 N655 1.610 . S
N654 S653 1.613 . S
N654 C657 1.350 . S
N655 S653 1.610 . S
N655 C656 1.351 . S
C656 C650 1.428 . S
C656 N655 1.351 . S
C656 C657 1.434 . S
C657 C648 1.429 . S
C657 N654 1.350 . S
C657 C656 1.434 . S
C658 C659 1.369 . S
C658 C660 1.419 . S
C658 H662 0.930 . S
C659 C658 1.369 . S
C659 C668 1.429 . S
C660 C658 1.419 . S
C660 C661 1.363 . S
C660 H663 0.929 . S
C661 C660 1.363 . S
C661 C667 1.428 . S
H662 C658 0.930 . S
H663 C660 0.929 . S
S664 N665 1.613 . S
S664 N666 1.610 . S
N665 S664 1.613 . S
N665 C668 1.350 . S
N666 S664 1.610 . S
N666 C667 1.351 . S
C667 C661 1.428 . S
C667 N666 1.351 . S
C667 C668 1.434 . S
C668 C659 1.429 . S
C668 N665 1.350 . S
C668 C667 1.434 . S
C669 C670 1.369 . S
C669 C671 1.419 . S
C669 H673 0.930 . S
C670 C669 1.369 . S
C670 C679 1.429 . S
C671 C669 1.419 . S
C671 C672 1.363 . S
C671 H674 0.929 . S
C672 C671 1.363 . S
C672 C678 1.428 . S
H673 C669 0.930 . S
H674 C671 0.929 . S
S675 N676 1.613 . S
S675 N677 1.610 . S
N676 S675 1.613 . S
N676 C679 1.350 . S
N677 S675 1.610 . S
N677 C678 1.351 . S
C678 C672 1.428 . S
C678 N677 1.351 . S
C678 C679 1.434 . S
C679 C670 1.429 . S
C679 N676 1.350 . S
C679 C678 1.434 . S
C680 C681 1.369 . S
C680 C682 1.419 . S
C680 H684 0.930 . S
C681 C680 1.369 . S
C681 C690 1.429 . S
C682 C680 1.419 . S
C682 C683 1.363 . S
C682 H685 0.929 . S
C683 C682 1.363 . S
C683 C689 1.428 . S
H684 C680 0.930 . S
H685 C682 0.929 . S
S686 N687 1.613 . S
S686 N688 1.610 . S
N687 S686 1.613 . S
N687 C690 1.350 . S
N688 S686 1.610 . S
N688 C689 1.351 . S
C689 C683 1.428 . S
C689 N688 1.351 . S
C689 C690 1.434 . S
C690 C681 1.429 . S
C690 N687 1.350 . S
C690 C689 1.434 . S
C691 C692 1.369 . S
C691 C693 1.419 . S
C691 H695 0.930 . S
C692 C691 1.369 . S
C692 C701 1.429 . S
C693 C691 1.419 . S
C693 C694 1.363 . S
C693 H696 0.929 . S
C694 C693 1.363 . S
C694 C700 1.428 . S
H695 C691 0.930 . S
H696 C693 0.929 . S
S697 N698 1.613 . S
S697 N699 1.610 . S
N698 S697 1.613 . S
N698 C701 1.350 . S
N699 S697 1.610 . S
N699 C700 1.351 . S
C700 C694 1.428 . S
C700 N699 1.351 . S
C700 C701 1.434 . S
C701 C692 1.429 . S
C701 N698 1.350 . S
C701 C700 1.434 . S
C702 C703 1.369 . S
C702 C704 1.419 . S
C702 H706 0.930 . S
C703 C702 1.369 . S
C703 C712 1.429 . S
C704 C702 1.419 . S
C704 C705 1.363 . S
C704 H707 0.929 . S
C705 C704 1.363 . S
C705 C711 1.428 . S
H706 C702 0.930 . S
H707 C704 0.929 . S
S708 N709 1.613 . S
S708 N710 1.610 . S
N709 S708 1.613 . S
N709 C712 1.350 . S
N710 S708 1.610 . S
N710 C711 1.351 . S
C711 C705 1.428 . S
C711 N710 1.351 . S
C711 C712 1.434 . S
C712 C703 1.429 . S
C712 N709 1.350 . S
C712 C711 1.434 . S
C713 C714 1.369 . S
C713 C715 1.419 . S
C713 H717 0.930 . S
C714 C713 1.369 . S
C714 C723 1.429 . S
C715 C713 1.419 . S
C715 C716 1.363 . S
C715 H718 0.929 . S
C716 C715 1.363 . S
C716 C722 1.428 . S
H717 C713 0.930 . S
H718 C715 0.929 . S
S719 N720 1.613 . S
S719 N721 1.610 . S
N720 S719 1.613 . S
N720 C723 1.350 . S
N721 S719 1.610 . S
N721 C722 1.351 . S
C722 C716 1.428 . S
C722 N721 1.351 . S
C722 C723 1.434 . S
C723 C714 1.429 . S
C723 N720 1.350 . S
C723 C722 1.434 . S
C724 C725 1.369 . S
C724 C726 1.419 . S
C724 H728 0.930 . S
C725 C724 1.369 . S
C725 C734 1.429 . S
C726 C724 1.419 . S
C726 C727 1.363 . S
C726 H729 0.929 . S
C727 C726 1.363 . S
C727 C733 1.428 . S
H728 C724 0.930 . S
H729 C726 0.929 . S
S730 N731 1.613 . S
S730 N732 1.610 . S
N731 S730 1.613 . S
N731 C734 1.350 . S
N732 S730 1.610 . S
N732 C733 1.351 . S
C733 C727 1.428 . S
C733 N732 1.351 . S
C733 C734 1.434 . S
C734 C725 1.429 . S
C734 N731 1.350 . S
C734 C733 1.434 . S
C735 C736 1.369 . S
C735 C737 1.419 . S
C735 H739 0.930 . S
C736 C735 1.369 . S
C736 C745 1.429 . S
C737 C735 1.419 . S
C737 C738 1.363 . S
C737 H740 0.929 . S
C738 C737 1.363 . S
C738 C744 1.428 . S
H739 C735 0.930 . S
H740 C737 0.929 . S
S741 N742 1.613 . S
S741 N743 1.610 . S
N742 S741 1.613 . S
N742 C745 1.350 . S
N743 S741 1.610 . S
N743 C744 1.351 . S
C744 C738 1.428 . S
C744 N743 1.351 . S
C744 C745 1.434 . S
C745 C736 1.429 . S
C745 N742 1.350 . S
C745 C744 1.434 . S
C746 C747 1.369 . S
C746 C748 1.419 . S
C746 H750 0.930 . S
C747 C746 1.369 . S
C747 C756 1.429 . S
C748 C746 1.419 . S
C748 C749 1.363 . S
C748 H751 0.929 . S
C749 C748 1.363 . S
C749 C755 1.428 . S
H750 C746 0.930 . S
H751 C748 0.929 . S
S752 N753 1.613 . S
S752 N754 1.610 . S
N753 S752 1.613 . S
N753 C756 1.350 . S
N754 S752 1.610 . S
N754 C755 1.351 . S
C755 C749 1.428 . S
C755 N754 1.351 . S
C755 C756 1.434 . S
C756 C747 1.429 . S
C756 N753 1.350 . S
C756 C755 1.434 . S
C757 C758 1.369 . S
C757 C759 1.419 . S
C757 H761 0.930 . S
C758 C757 1.369 . S
C758 C767 1.429 . S
C759 C757 1.419 . S
C759 C760 1.363 . S
C759 H762 0.929 . S
C760 C759 1.363 . S
C760 C766 1.428 . S
H761 C757 0.930 . S
H762 C759 0.929 . S
S763 N764 1.613 . S
S763 N765 1.610 . S
N764 S763 1.613 . S
N764 C767 1.350 . S
N765 S763 1.610 . S
N765 C766 1.351 . S
C766 C760 1.428 . S
C766 N765 1.351 . S
C766 C767 1.434 . S
C767 C758 1.429 . S
C767 N764 1.350 . S
C767 C766 1.434 . S
C768 C769 1.369 . S
C768 C770 1.419 1_655 S
C768 H772 0.930 . S
C769 C768 1.369 . S
C769 C778 1.429 . S
C770 C768 1.419 1_455 S
C770 C771 1.363 . S
C770 H773 0.929 . S
C771 C770 1.363 . S
C771 C777 1.428 . S
H772 C768 0.930 . S
H773 C770 0.929 . S
S774 N775 1.613 1_455 S
S774 N776 1.610 . S
N775 S774 1.613 1_655 S
N775 C778 1.350 . S
N776 S774 1.610 . S
N776 C777 1.351 . S
C777 C771 1.428 . S
C777 N776 1.351 . S
C777 C778 1.434 1_455 S
C778 C769 1.429 . S
C778 N775 1.350 . S
C778 C777 1.434 1_655 S
C779 C780 1.369 . S
C779 C781 1.419 . S
C779 H783 0.930 . S
C780 C779 1.369 . S
C780 C789 1.429 1_565 S
C781 C779 1.419 . S
C781 C782 1.363 1_565 S
C781 H784 0.929 . S
C782 C781 1.363 1_545 S
C782 C788 1.428 . S
H783 C779 0.930 . S
H784 C781 0.929 . S
S785 N786 1.613 . S
S785 N787 1.610 . S
N786 S785 1.613 . S
N786 C789 1.350 . S
N787 S785 1.610 . S
N787 C788 1.351 . S
C788 C782 1.428 . S
C788 N787 1.351 . S
C788 C789 1.434 . S
C789 C780 1.429 1_545 S
C789 N786 1.350 . S
C789 C788 1.434 . S
C790 C791 1.369 . S
C790 C792 1.419 . S
C790 H794 0.930 . S
C791 C790 1.369 . S
C791 C800 1.429 . S
C792 C790 1.419 . S
C792 C793 1.363 . S
C792 H795 0.929 . S
C793 C792 1.363 . S
C793 C799 1.428 . S
H794 C790 0.930 . S
H795 C792 0.929 . S
S796 N797 1.613 . S
S796 N798 1.610 . S
N797 S796 1.613 . S
N797 C800 1.350 . S
N798 S796 1.610 . S
N798 C799 1.351 . S
C799 C793 1.428 . S
C799 N798 1.351 . S
C799 C800 1.434 . S
C800 C791 1.429 . S
C800 N797 1.350 . S
C800 C799 1.434 . S
C801 C802 1.369 . S
C801 C803 1.419 1_455 S
C801 H805 0.930 . S
C802 C801 1.369 . S
C802 C811 1.429 . S
C803 C801 1.419 1_655 S
C803 C804 1.363 . S
C803 H806 0.929 . S
C804 C803 1.363 . S
C804 C810 1.428 . S
H805 C801 0.930 . S
H806 C803 0.929 . S
S807 N808 1.613 . S
S807 N809 1.610 1_455 S
N808 S807 1.613 . S
N808 C811 1.350 . S
N809 S807 1.610 1_655 S
N809 C810 1.351 . S
C810 C804 1.428 . S
C810 N809 1.351 . S
C810 C811 1.434 1_655 S
C811 C802 1.429 . S
C811 N808 1.350 . S
C811 C810 1.434 1_455 S
C812 C813 1.369 1_565 S
C812 C814 1.419 . S
C812 H816 0.930 . S
C813 C812 1.369 1_545 S
C813 C822 1.429 1_556 S
C814 C812 1.419 . S
C814 C815 1.363 1_556 S
C814 H817 0.929 . S
C815 C814 1.363 1_554 S
C815 C821 1.428 1_565 S
H816 C812 0.930 . S
H817 C814 0.929 . S
S818 N819 1.613 . S
S818 N820 1.610 . S
N819 S818 1.613 . S
N819 C822 1.350 . S
N820 S818 1.610 . S
N820 C821 1.351 . S
C821 C815 1.428 1_545 S
C821 N820 1.351 . S
C821 C822 1.434 . S
C822 C813 1.429 1_554 S
C822 N819 1.350 . S
C822 C821 1.434 . S
C823 C824 1.369 . S
C823 C825 1.419 . S
C823 H827 0.930 . S
C824 C823 1.369 . S
C824 C833 1.429 . S
C825 C823 1.419 . S
C825 C826 1.363 . S
C825 H828 0.929 . S
C826 C825 1.363 . S
C826 C832 1.428 . S
H827 C823 0.930 . S
H828 C825 0.929 . S
S829 N830 1.613 . S
S829 N831 1.610 . S
N830 S829 1.613 . S
N830 C833 1.350 . S
N831 S829 1.610 . S
N831 C832 1.351 . S
C832 C826 1.428 . S
C832 N831 1.351 . S
C832 C833 1.434 . S
C833 C824 1.429 . S
C833 N830 1.350 . S
C833 C832 1.434 . S
C834 C835 1.369 . S
C834 C836 1.419 . S
C834 H838 0.930 . S
C835 C834 1.369 . S
C835 C844 1.429 . S
C836 C834 1.419 . S
C836 C837 1.363 . S
C836 H839 0.929 . S
C837 C836 1.363 . S
C837 C843 1.428 . S
H838 C834 0.930 . S
H839 C836 0.929 . S
S840 N841 1.613 . S
S840 N842 1.610 . S
N841 S840 1.613 . S
N841 C844 1.350 . S
N842 S840 1.610 . S
N842 C843 1.351 . S
C843 C837 1.428 . S
C843 N842 1.351 . S
C843 C844 1.434 . S
C844 C835 1.429 . S
C844 N841 1.350 . S
C844 C843 1.434 . S
C845 C846 1.369 . S
C845 C847 1.419 . S
C845 H849 0.930 . S
C846 C845 1.369 . S
C846 C855 1.429 . S
C847 C845 1.419 . S
C847 C848 1.363 . S
C847 H850 0.929 . S
C848 C847 1.363 . S
C848 C854 1.428 . S
H849 C845 0.930 . S
H850 C847 0.929 . S
S851 N852 1.613 . S
S851 N853 1.610 . S
N852 S851 1.613 . S
N852 C855 1.350 . S
N853 S851 1.610 . S
N853 C854 1.351 . S
C854 C848 1.428 . S
C854 N853 1.351 . S
C854 C855 1.434 . S
C855 C846 1.429 . S
C855 N852 1.350 . S
C855 C854 1.434 . S
C856 C857 1.369 . S
C856 C858 1.419 . S
C856 H860 0.930 . S
C857 C856 1.369 . S
C857 C866 1.429 . S
C858 C856 1.419 . S
C858 C859 1.363 . S
C858 H861 0.929 . S
C859 C858 1.363 . S
C859 C865 1.428 . S
H860 C856 0.930 . S
H861 C858 0.929 . S
S862 N863 1.613 . S
S862 N864 1.610 . S
N863 S862 1.613 . S
N863 C866 1.350 . S
N864 S862 1.610 . S
N864 C865 1.351 . S
C865 C859 1.428 . S
C865 N864 1.351 . S
C865 C866 1.434 . S
C866 C857 1.429 . S
C866 N863 1.350 . S
C866 C865 1.434 . S
C867 C868 1.369 . S
C867 C869 1.419 . S
C867 H871 0.930 . S
C868 C867 1.369 . S
C868 C877 1.429 . S
C869 C867 1.419 . S
C869 C870 1.363 . S
C869 H872 0.929 . S
C870 C869 1.363 . S
C870 C876 1.428 . S
H871 C867 0.930 . S
H872 C869 0.929 . S
S873 N874 1.613 . S
S873 N875 1.610 . S
N874 S873 1.613 . S
N874 C877 1.350 . S
N875 S873 1.610 . S
N875 C876 1.351 . S
C876 C870 1.428 . S
C876 N875 1.351 . S
C876 C877 1.434 . S
C877 C868 1.429 . S
C877 N874 1.350 . S
C877 C876 1.434 . S
C878 C879 1.369 . S
C878 C880 1.419 . S
C878 H882 0.930 . S
C879 C878 1.369 . S
C879 C888 1.429 . S
C880 C878 1.419 . S
C880 C881 1.363 . S
C880 H883 0.929 . S
C881 C880 1.363 . S
C881 C887 1.428 . S
H882 C878 0.930 . S
H883 C880 0.929 . S
S884 N885 1.613 . S
S884 N886 1.610 . S
N885 S884 1.613 . S
N885 C888 1.350 . S
N886 S884 1.610 . S
N886 C887 1.351 . S
C887 C881 1.428 . S
C887 N886 1.351 . S
C887 C888 1.434 . S
C888 C879 1.429 . S
C888 N885 1.350 . S
C888 C887 1.434 . S
C889 C890 1.369 . S
C889 C891 1.419 . S
C889 H893 0.930 . S
C890 C889 1.369 . S
C890 C899 1.429 . S
C891 C889 1.419 . S
C891 C892 1.363 . S
C891 H894 0.929 . S
C892 C891 1.363 . S
C892 C898 1.428 . S
H893 C889 0.930 . S
H894 C891 0.929 . S
S895 N896 1.613 . S
S895 N897 1.610 . S
N896 S895 1.613 . S
N896 C899 1.350 . S
N897 S895 1.610 . S
N897 C898 1.351 . S
C898 C892 1.428 . S
C898 N897 1.351 . S
C898 C899 1.434 . S
C899 C890 1.429 . S
C899 N896 1.350 . S
C899 C898 1.434 . S
C637 C29 1.582 . S
C639 C347 1.583 . S
C648 C82 1.583 . S
C650 C400 1.583 . S
C659 C453 1.582 . S
C661 C135 1.583 . S
C670 C188 1.583 . S
C672 C506 1.584 . S
C681 C241 1.587 . S
C683 C559 1.586 . S
C692 C612 1.584 . S
C694 C294 1.584 . S
C703 C463 1.515 . S
C705 C39 1.514 . S
C714 C92 1.515 . S
C716 C516 1.519 . S
C725 C569 1.519 . S
C727 C145 1.516 . S
C736 C622 1.518 . S
C738 C198 1.515 . S
C747 C251 1.516 . S
C749 C357 1.514 . S
C758 C304 1.517 . S
C760 C410 1.520 . S
C769 C605 2.130 . S
C771 C22 2.125 . S
C780 C340 2.131 . S
C782 C75 2.125 . S
C791 C128 2.125 . S
C793 C393 2.128 . S
C802 C446 2.126 . S
C804 C181 2.130 . S
C813 C499 2.124 . S
C815 C234 2.131 . S
C824 C552 2.127 . S
C826 C287 2.129 . S
C835 C38 1.844 . S
C837 C568 1.848 . S
C846 C621 1.844 . S
C848 C91 1.848 . S
C857 C144 1.849 . S
C859 C356 1.844 . S
C868 C197 1.848 . S
C870 C409 1.845 . S
C879 C250 1.848 . S
C881 C462 1.844 . S
C890 C303 1.844 . S
C892 C515 1.848 . S
