# Generated by pormake.
# Topology ict, (4)-cn, num edge types: 1
# Building blocks:
#     Node 0, Type 0, BuildingBlock: QUQFOY_clean_sbu_1, # of connection points: 4
#     Node 1, Type 0, BuildingBlock: QUQFOY_clean_sbu_1, # of connection points: 4
#     Node 2, Type 0, BuildingBlock: QUQFOY_clean_sbu_1, # of connection points: 4
#     Node 3, Type 0, BuildingBlock: QUQFOY_clean_sbu_1, # of connection points: 4
#     Node 4, Type 0, BuildingBlock: QUQFOY_clean_sbu_1, # of connection points: 4
#     Node 5, Type 0, BuildingBlock: QUQFOY_clean_sbu_1, # of connection points: 4
#     Node 6, Type 0, BuildingBlock: QUQFOY_clean_sbu_1, # of connection points: 4
#     Node 7, Type 0, BuildingBlock: QUQFOY_clean_sbu_1, # of connection points: 4
#     Node 8, Type 0, BuildingBlock: QUQFOY_clean_sbu_1, # of connection points: 4
#     Node 9, Type 0, BuildingBlock: QUQFOY_clean_sbu_1, # of connection points: 4
#     Node 10, Type 0, BuildingBlock: QUQFOY_clean_sbu_1, # of connection points: 4
#     Node 11, Type 0, BuildingBlock: QUQFOY_clean_sbu_1, # of connection points: 4
#     Node 12, Type 0, BuildingBlock: QUQFOY_clean_sbu_1, # of connection points: 4
#     Node 13, Type 0, BuildingBlock: QUQFOY_clean_sbu_1, # of connection points: 4
#     Node 14, Type 0, BuildingBlock: QUQFOY_clean_sbu_1, # of connection points: 4
#     Node 15, Type 0, BuildingBlock: QUQFOY_clean_sbu_1, # of connection points: 4
#     Node 16, Type 0, BuildingBlock: QUQFOY_clean_sbu_1, # of connection points: 4
#     Node 17, Type 0, BuildingBlock: QUQFOY_clean_sbu_1, # of connection points: 4
#     Node 18, Type 0, BuildingBlock: QUQFOY_clean_sbu_1, # of connection points: 4
#     Node 19, Type 0, BuildingBlock: QUQFOY_clean_sbu_1, # of connection points: 4
#     Node 20, Type 0, BuildingBlock: QUQFOY_clean_sbu_1, # of connection points: 4
#     Node 21, Type 0, BuildingBlock: QUQFOY_clean_sbu_1, # of connection points: 4
#     Node 22, Type 0, BuildingBlock: QUQFOY_clean_sbu_1, # of connection points: 4
#     Node 23, Type 0, BuildingBlock: QUQFOY_clean_sbu_1, # of connection points: 4
#     Node 24, Type 0, BuildingBlock: QUQFOY_clean_sbu_1, # of connection points: 4
#     Node 25, Type 0, BuildingBlock: QUQFOY_clean_sbu_1, # of connection points: 4
#     Node 26, Type 0, BuildingBlock: QUQFOY_clean_sbu_1, # of connection points: 4
#     Node 27, Type 0, BuildingBlock: QUQFOY_clean_sbu_1, # of connection points: 4
#     Node 28, Type 0, BuildingBlock: QUQFOY_clean_sbu_1, # of connection points: 4
#     Node 29, Type 0, BuildingBlock: QUQFOY_clean_sbu_1, # of connection points: 4
#     Node 30, Type 0, BuildingBlock: QUQFOY_clean_sbu_1, # of connection points: 4
#     Node 31, Type 0, BuildingBlock: QUQFOY_clean_sbu_1, # of connection points: 4
#     Node 32, Type 0, BuildingBlock: QUQFOY_clean_sbu_1, # of connection points: 4
#     Node 33, Type 0, BuildingBlock: QUQFOY_clean_sbu_1, # of connection points: 4
#     Node 34, Type 0, BuildingBlock: QUQFOY_clean_sbu_1, # of connection points: 4
#     Node 35, Type 0, BuildingBlock: QUQFOY_clean_sbu_1, # of connection points: 4
#     Edge 36, Type (0, 0), BuildingBlock: OJICUG_clean_linker_0, # of connection points: 2
#     Edge 37, Type (0, 0), BuildingBlock: OJICUG_clean_linker_0, # of connection points: 2
#     Edge 38, Type (0, 0), BuildingBlock: OJICUG_clean_linker_0, # of connection points: 2
#     Edge 39, Type (0, 0), BuildingBlock: OJICUG_clean_linker_0, # of connection points: 2
#     Edge 40, Type (0, 0), BuildingBlock: OJICUG_clean_linker_0, # of connection points: 2
#     Edge 41, Type (0, 0), BuildingBlock: OJICUG_clean_linker_0, # of connection points: 2
#     Edge 42, Type (0, 0), BuildingBlock: OJICUG_clean_linker_0, # of connection points: 2
#     Edge 43, Type (0, 0), BuildingBlock: OJICUG_clean_linker_0, # of connection points: 2
#     Edge 44, Type (0, 0), BuildingBlock: OJICUG_clean_linker_0, # of connection points: 2
#     Edge 45, Type (0, 0), BuildingBlock: OJICUG_clean_linker_0, # of connection points: 2
#     Edge 46, Type (0, 0), BuildingBlock: OJICUG_clean_linker_0, # of connection points: 2
#     Edge 47, Type (0, 0), BuildingBlock: OJICUG_clean_linker_0, # of connection points: 2
#     Edge 48, Type (0, 0), BuildingBlock: OJICUG_clean_linker_0, # of connection points: 2
#     Edge 49, Type (0, 0), BuildingBlock: OJICUG_clean_linker_0, # of connection points: 2
#     Edge 50, Type (0, 0), BuildingBlock: OJICUG_clean_linker_0, # of connection points: 2
#     Edge 51, Type (0, 0), BuildingBlock: OJICUG_clean_linker_0, # of connection points: 2
#     Edge 52, Type (0, 0), BuildingBlock: OJICUG_clean_linker_0, # of connection points: 2
#     Edge 53, Type (0, 0), BuildingBlock: OJICUG_clean_linker_0, # of connection points: 2
#     Edge 54, Type (0, 0), BuildingBlock: OJICUG_clean_linker_0, # of connection points: 2
#     Edge 55, Type (0, 0), BuildingBlock: OJICUG_clean_linker_0, # of connection points: 2
#     Edge 56, Type (0, 0), BuildingBlock: OJICUG_clean_linker_0, # of connection points: 2
#     Edge 57, Type (0, 0), BuildingBlock: OJICUG_clean_linker_0, # of connection points: 2
#     Edge 58, Type (0, 0), BuildingBlock: OJICUG_clean_linker_0, # of connection points: 2
#     Edge 59, Type (0, 0), BuildingBlock: OJICUG_clean_linker_0, # of connection points: 2
#     Edge 60, Type (0, 0), BuildingBlock: OJICUG_clean_linker_0, # of connection points: 2
#     Edge 61, Type (0, 0), BuildingBlock: OJICUG_clean_linker_0, # of connection points: 2
#     Edge 62, Type (0, 0), BuildingBlock: OJICUG_clean_linker_0, # of connection points: 2
#     Edge 63, Type (0, 0), BuildingBlock: OJICUG_clean_linker_0, # of connection points: 2
#     Edge 64, Type (0, 0), BuildingBlock: OJICUG_clean_linker_0, # of connection points: 2
#     Edge 65, Type (0, 0), BuildingBlock: OJICUG_clean_linker_0, # of connection points: 2
#     Edge 66, Type (0, 0), BuildingBlock: OJICUG_clean_linker_0, # of connection points: 2
#     Edge 67, Type (0, 0), BuildingBlock: OJICUG_clean_linker_0, # of connection points: 2
#     Edge 68, Type (0, 0), BuildingBlock: OJICUG_clean_linker_0, # of connection points: 2
#     Edge 69, Type (0, 0), BuildingBlock: OJICUG_clean_linker_0, # of connection points: 2
#     Edge 70, Type (0, 0), BuildingBlock: OJICUG_clean_linker_0, # of connection points: 2
#     Edge 71, Type (0, 0), BuildingBlock: OJICUG_clean_linker_0, # of connection points: 2
#     Edge 72, Type (0, 0), BuildingBlock: OJICUG_clean_linker_0, # of connection points: 2
#     Edge 73, Type (0, 0), BuildingBlock: OJICUG_clean_linker_0, # of connection points: 2
#     Edge 74, Type (0, 0), BuildingBlock: OJICUG_clean_linker_0, # of connection points: 2
#     Edge 75, Type (0, 0), BuildingBlock: OJICUG_clean_linker_0, # of connection points: 2
#     Edge 76, Type (0, 0), BuildingBlock: OJICUG_clean_linker_0, # of connection points: 2
#     Edge 77, Type (0, 0), BuildingBlock: OJICUG_clean_linker_0, # of connection points: 2
#     Edge 78, Type (0, 0), BuildingBlock: OJICUG_clean_linker_0, # of connection points: 2
#     Edge 79, Type (0, 0), BuildingBlock: OJICUG_clean_linker_0, # of connection points: 2
#     Edge 80, Type (0, 0), BuildingBlock: OJICUG_clean_linker_0, # of connection points: 2
#     Edge 81, Type (0, 0), BuildingBlock: OJICUG_clean_linker_0, # of connection points: 2
#     Edge 82, Type (0, 0), BuildingBlock: OJICUG_clean_linker_0, # of connection points: 2
#     Edge 83, Type (0, 0), BuildingBlock: OJICUG_clean_linker_0, # of connection points: 2
#     Edge 84, Type (0, 0), BuildingBlock: OJICUG_clean_linker_0, # of connection points: 2
#     Edge 85, Type (0, 0), BuildingBlock: OJICUG_clean_linker_0, # of connection points: 2
#     Edge 86, Type (0, 0), BuildingBlock: OJICUG_clean_linker_0, # of connection points: 2
#     Edge 87, Type (0, 0), BuildingBlock: OJICUG_clean_linker_0, # of connection points: 2
#     Edge 88, Type (0, 0), BuildingBlock: OJICUG_clean_linker_0, # of connection points: 2
#     Edge 89, Type (0, 0), BuildingBlock: OJICUG_clean_linker_0, # of connection points: 2
#     Edge 90, Type (0, 0), BuildingBlock: OJICUG_clean_linker_0, # of connection points: 2
#     Edge 91, Type (0, 0), BuildingBlock: OJICUG_clean_linker_0, # of connection points: 2
#     Edge 92, Type (0, 0), BuildingBlock: OJICUG_clean_linker_0, # of connection points: 2
#     Edge 93, Type (0, 0), BuildingBlock: OJICUG_clean_linker_0, # of connection points: 2
#     Edge 94, Type (0, 0), BuildingBlock: OJICUG_clean_linker_0, # of connection points: 2
#     Edge 95, Type (0, 0), BuildingBlock: OJICUG_clean_linker_0, # of connection points: 2
#     Edge 96, Type (0, 0), BuildingBlock: OJICUG_clean_linker_0, # of connection points: 2
#     Edge 97, Type (0, 0), BuildingBlock: OJICUG_clean_linker_0, # of connection points: 2
#     Edge 98, Type (0, 0), BuildingBlock: OJICUG_clean_linker_0, # of connection points: 2
#     Edge 99, Type (0, 0), BuildingBlock: OJICUG_clean_linker_0, # of connection points: 2
#     Edge 100, Type (0, 0), BuildingBlock: OJICUG_clean_linker_0, # of connection points: 2
#     Edge 101, Type (0, 0), BuildingBlock: OJICUG_clean_linker_0, # of connection points: 2
#     Edge 102, Type (0, 0), BuildingBlock: OJICUG_clean_linker_0, # of connection points: 2
#     Edge 103, Type (0, 0), BuildingBlock: OJICUG_clean_linker_0, # of connection points: 2
#     Edge 104, Type (0, 0), BuildingBlock: OJICUG_clean_linker_0, # of connection points: 2
#     Edge 105, Type (0, 0), BuildingBlock: OJICUG_clean_linker_0, # of connection points: 2
#     Edge 106, Type (0, 0), BuildingBlock: OJICUG_clean_linker_0, # of connection points: 2
#     Edge 107, Type (0, 0), BuildingBlock: OJICUG_clean_linker_0, # of connection points: 2
# Relax obj value: 0.131
# Max RMSD: 0.191
# Mean RMSD: 0.191
data_MOF--net-ict--node1-QUQFOY_clean_sbu_1--edge1-OJICUG_clean_linker_0
_symmetry_space_group_name_H-M    P1
_symmetry_Int_Tables_number       1
_symmetry_cell_setting            triclinic
loop_
_symmetry_equiv_pos_as_xyz
'x, y, z'
_cell_length_a     52.928939
_cell_length_b     52.954116
_cell_length_c     26.908009
_cell_angle_alpha  89.995419
_cell_angle_beta   89.996438
_cell_angle_gamma 119.99395
loop_
_atom_site_label
_atom_site_type_symbol
_atom_site_fract_x
_atom_site_fract_y
_atom_site_fract_z
_atom_type_partial_charge
O0 O 0.25056 0.16504 0.04678 0.0
Cd1 Cd 0.26369 0.209 0.05242 0.0
Cd2 Cd 0.20626 0.18969 0.03911 0.0
O3 O 0.2075 0.15334 0.01589 0.0
O4 O 0.30474 0.23215 0.02927 0.0
O5 O 0.26709 0.22929 0.98795 0.0
C6 C 0.29479 0.23861 -0.00961 0.0
C7 C 0.17075 0.19859 0.00456 0.0
C8 C 0.2266 0.1464 0.02689 0.0
C9 C 0.2337 0.21468 0.13907 0.0
O10 O 0.211 0.19865 0.11374 0.0
O11 O 0.25884 0.22476 0.11989 0.0
O12 O 0.16402 0.17627 0.03206 0.0
O13 O 0.19798 0.21564 -0.00557 0.0
O14 O 0.83538 0.08583 0.04682 0.0
Cd15 Cd 0.7912 0.05557 0.05216 0.0
Cd16 Cd 0.80952 0.01648 0.03831 0.0
O17 O 0.84653 0.05394 0.01662 0.0
O18 O 0.76855 0.07404 0.02913 0.0
O19 O 0.77078 0.03895 0.98767 0.0
C20 C 0.7618 0.05759 0.99027 0.0
C21 C 0.80095 0.97229 0.00319 0.0
C22 C 0.85388 0.08008 0.02757 0.0
C23 C 0.78418 0.01893 0.13817 0.0
O24 O 0.79968 0.01168 0.11263 0.0
O25 O 0.77503 0.03489 0.11946 0.0
O26 O 0.82286 0.98759 0.03168 0.0
O27 O 0.78409 0.98263 -0.00751 0.0
O28 O 0.9174 0.75359 0.0438 0.0
Cd29 Cd 0.94785 0.73997 0.04979 0.0
Cd30 Cd 0.98646 0.79731 0.03603 0.0
O31 O 0.94903 0.79657 0.01302 0.0
O32 O 0.92924 0.69861 0.02821 0.0
O33 O 0.9642 0.73538 0.98556 0.0
C34 C 0.94553 0.70781 0.98911 0.0
C35 C 0.03104 0.83222 0.00109 0.0
C36 C 0.92292 0.77763 0.024 0.0
C37 C 0.98388 0.77001 0.13617 0.0
O38 O 0.99078 0.79272 0.1107 0.0
O39 O 0.9685 0.74489 0.1172 0.0
O40 O 0.0157 0.83937 0.02844 0.0
O41 O 0.02047 0.80491 -0.00873 0.0
O42 O 0.16496 0.24859 0.43664 0.0
Cd43 Cd 0.20907 0.26231 0.43055 0.0
Cd44 Cd 0.1906 0.20504 0.44433 0.0
O45 O 0.15377 0.20559 0.46706 0.0
O46 O 0.23188 0.30354 0.45279 0.0
O47 O 0.22994 0.2665 0.4947 0.0
C48 C 0.23892 0.2941 0.49164 0.0
C49 C 0.20013 0.17007 0.47936 0.0
C50 C 0.14649 0.22446 0.45626 0.0
C51 C 0.21536 0.23244 0.34418 0.0
O52 O 0.19975 0.20972 0.36975 0.0
O53 O 0.22483 0.25756 0.36303 0.0
O54 O 0.17776 0.16298 0.45174 0.0
O55 O 0.21685 0.19736 0.48937 0.0
O56 O 0.75022 0.91537 0.43363 0.0
Cd57 Cd 0.73607 0.94543 0.42866 0.0
Cd58 Cd 0.79351 0.98473 0.44289 0.0
O59 O 0.79304 0.94727 0.46466 0.0
O60 O 0.69493 0.9266 0.45171 0.0
O61 O 0.73212 0.96168 0.49343 0.0
C62 C 0.70454 0.94286 0.49081 0.0
C63 C 0.82926 0.02893 0.4778 0.0
C64 C 0.77439 0.92115 0.45327 0.0
C65 C 0.76572 0.98229 0.34296 0.0
O66 O 0.78846 0.9895 0.36857 0.0
O67 O 0.74059 0.96631 0.36159 0.0
O68 O 0.83578 0.01355 0.44933 0.0
O69 O 0.8021 0.01868 0.4886 0.0
O70 O 0.08645 0.83709 0.43403 0.0
Cd71 Cd 0.05559 0.79317 0.42787 0.0
Cd72 Cd 0.01745 0.81248 0.44148 0.0
O73 O 0.05507 0.84884 0.46469 0.0
O74 O 0.07343 0.76985 0.4503 0.0
O75 O 0.03861 0.77245 0.49201 0.0
C76 C 0.05694 0.76309 0.48911 0.0
C77 C 0.97303 0.80338 0.47638 0.0
C78 C 0.08113 0.85575 0.45386 0.0
C79 C 0.0199 0.78773 0.34129 0.0
O80 O 0.01314 0.80363 0.3668 0.0
O81 O 0.03506 0.77772 0.36029 0.0
O82 O 0.98856 0.82579 0.44898 0.0
O83 O 0.9833 0.78638 0.48622 0.0
O84 O 0.75192 0.83715 0.93349 0.0
Cd85 Cd 0.73867 0.79317 0.92778 0.0
Cd86 Cd 0.79617 0.81235 0.94114 0.0
O87 O 0.79499 0.84877 0.9642 0.0
O88 O 0.6976 0.77009 0.95094 0.0
O89 O 0.73522 0.77281 -0.0078 0.0
C90 C 0.70753 0.76356 0.98977 0.0
C91 C 0.83173 0.80352 0.97575 0.0
C92 C 0.77592 0.85576 0.9533 0.0
C93 C 0.7686 0.78726 0.84121 0.0
O94 O 0.79132 0.80321 0.86656 0.0
O95 O 0.74347 0.77737 0.86033 0.0
O96 O 0.83842 0.82578 0.94809 0.0
O97 O 0.8045 0.7865 0.98598 0.0
O98 O 0.16735 0.91625 0.93465 0.0
Cd99 Cd 0.21151 0.94655 0.92894 0.0
Cd100 Cd 0.19319 0.98564 0.94263 0.0
O101 O 0.15622 0.94822 0.96458 0.0
O102 O 0.23432 0.92829 0.95205 0.0
O103 O 0.2321 0.96346 -0.00679 0.0
C104 C 0.24118 0.9449 -0.00929 0.0
C105 C 0.20175 0.02987 0.97751 0.0
C106 C 0.14887 0.92205 0.95385 0.0
C107 C 0.21833 0.98297 0.8427 0.0
O108 O 0.20291 0.99031 0.86827 0.0
O109 O 0.22748 0.96702 0.86145 0.0
O110 O 0.1798 0.01449 0.94912 0.0
O111 O 0.21865 0.0196 0.98825 0.0
O112 O 0.08519 0.24869 0.93669 0.0
Cd113 Cd 0.05481 0.2624 0.93072 0.0
Cd114 Cd 0.0161 0.20506 0.94515 0.0
O115 O 0.05358 0.20586 0.968 0.0
O116 O 0.07357 0.30383 0.95197 0.0
O117 O 0.03866 0.26722 -0.00503 0.0
C118 C 0.05737 0.29477 -0.0088 0.0
C119 C 0.97161 0.17009 0.98032 0.0
C120 C 0.07966 0.22471 0.95673 0.0
C121 C 0.01851 0.23208 0.84475 0.0
O122 O 0.01161 0.20947 0.87048 0.0
O123 O 0.034 0.25728 0.86342 0.0
O124 O 0.98697 0.16299 0.95292 0.0
O125 O 0.98211 0.1974 0.99005 0.0
O126 O 0.83723 0.75273 0.54422 0.0
Cd127 Cd 0.79312 0.73903 0.55013 0.0
Cd128 Cd 0.81166 0.7963 0.53607 0.0
O129 O 0.84847 0.79569 0.51352 0.0
O130 O 0.77033 0.69775 0.52807 0.0
O131 O 0.77231 0.73472 0.48586 0.0
C132 C 0.76334 0.70713 0.48908 0.0
C133 C 0.80219 0.83127 0.50082 0.0
C134 C 0.85572 0.77682 0.52453 0.0
C135 C 0.78684 0.76906 0.63628 0.0
O136 O 0.8025 0.79173 0.61064 0.0
O137 O 0.77732 0.74391 0.61754 0.0
O138 O 0.82454 0.83836 0.52849 0.0
O139 O 0.78545 0.80397 0.49089 0.0
O140 O 0.25209 0.08591 0.54631 0.0
Cd141 Cd 0.26606 0.0557 0.5516 0.0
Cd142 Cd 0.20864 0.01657 0.53781 0.0
O143 O 0.20914 0.054 0.51579 0.0
O144 O 0.30715 0.07421 0.52836 0.0
O145 O 0.26978 0.03909 0.48704 0.0
C146 C 0.2974 0.05778 0.48949 0.0
C147 C 0.1729 0.9723 0.50309 0.0
C148 C 0.22788 0.08014 0.52686 0.0
C149 C 0.23649 0.01919 0.63769 0.0
O150 O 0.21372 0.01195 0.61218 0.0
O151 O 0.26159 0.03505 0.6189 0.0
O152 O 0.16637 0.98773 0.53144 0.0
O153 O 0.20006 0.98255 0.4923 0.0
O154 O 0.91577 0.16412 0.54689 0.0
Cd155 Cd 0.94665 0.20804 0.55297 0.0
Cd156 Cd 0.98479 0.18868 0.5398 0.0
O157 O 0.94717 0.15227 0.51669 0.0
O158 O 0.92881 0.23135 0.53041 0.0
O159 O 0.96366 0.22874 0.48883 0.0
C160 C 0.94534 0.23811 0.49164 0.0
C161 C 0.02921 0.19781 0.50489 0.0
C162 C 0.9211 0.14541 0.52731 0.0
C163 C 0.9823 0.21365 0.63973 0.0
O164 O 0.98908 0.1977 0.61442 0.0
O165 O 0.96713 0.2236 0.62055 0.0
O166 O 0.01374 0.17545 0.53241 0.0
O167 O 0.01887 0.21475 0.49495 0.0
O168 O 0.91816 0.49981 0.38033 0.0
Cd169 Cd 0.93135 0.54377 0.38628 0.0
Cd170 Cd 0.87391 0.52459 0.37256 0.0
O171 O 0.87513 0.4882 0.34942 0.0
O172 O 0.97247 0.56699 0.36349 0.0
O173 O 0.93494 0.56433 0.32203 0.0
C174 C 0.96264 0.57364 0.32468 0.0
C175 C 0.83836 0.53341 0.33794 0.0
C176 C 0.89419 0.4812 0.36042 0.0
C177 C 0.9012 0.54935 0.47277 0.0
O178 O 0.87855 0.53349 0.44722 0.0
O179 O 0.92638 0.55934 0.45382 0.0
O180 O 0.83167 0.51111 0.36547 0.0
O181 O 0.86559 0.55049 0.32782 0.0
O182 O 0.50282 0.41943 0.37986 0.0
Cd183 Cd 0.45862 0.38919 0.38469 0.0
Cd184 Cd 0.47697 0.35016 0.37036 0.0
O185 O 0.51401 0.3877 0.349 0.0
O186 O 0.43616 0.40792 0.36196 0.0
O187 O 0.43842 0.37305 0.31986 0.0
C188 C 0.42953 0.39175 0.32277 0.0
C189 C 0.46829 0.30605 0.33476 0.0
C190 C 0.52135 0.41378 0.36042 0.0
C191 C 0.45143 0.35219 0.47023 0.0
O192 O 0.46708 0.34512 0.44466 0.0
O193 O 0.44224 0.36814 0.45164 0.0
O194 O 0.49024 0.32124 0.36325 0.0
O195 O 0.45148 0.31646 0.3243 0.0
O196 O 0.58425 0.08748 0.37693 0.0
Cd197 Cd 0.61486 0.07407 0.38314 0.0
Cd198 Cd 0.6533 0.13147 0.37009 0.0
O199 O 0.61588 0.13063 0.34677 0.0
O200 O 0.59657 0.03281 0.36106 0.0
O201 O 0.6316 0.06987 0.31903 0.0
C202 C 0.61305 0.04226 0.32219 0.0
C203 C 0.6979 0.16652 0.33549 0.0
C204 C 0.58976 0.11157 0.35733 0.0
C205 C 0.65055 0.10391 0.47 0.0
O206 O 0.65745 0.12668 0.44473 0.0
O207 O 0.63528 0.07884 0.45076 0.0
O208 O 0.68248 0.17356 0.36284 0.0
O209 O 0.68741 0.13924 0.32549 0.0
O210 O 0.83178 0.58192 0.77065 0.0
Cd211 Cd 0.87597 0.59603 0.76453 0.0
Cd212 Cd 0.85782 0.53865 0.77801 0.0
O213 O 0.82085 0.53892 0.80075 0.0
O214 O 0.89838 0.63739 0.78625 0.0
O215 O 0.89707 0.60078 0.82863 0.0
C216 C 0.90572 0.62829 0.82519 0.0
C217 C 0.86735 0.50357 0.81266 0.0
C218 C 0.81341 0.55768 0.7901 0.0
C219 C 0.88257 0.56643 0.67803 0.0
O220 O 0.86709 0.54362 0.70347 0.0
O221 O 0.89184 0.59148 0.69701 0.0
O222 O 0.84506 0.49657 0.78489 0.0
O223 O 0.88402 0.53083 0.82299 0.0
O224 O 0.41636 0.24772 0.7659 0.0
Cd225 Cd 0.40269 0.27816 0.76049 0.0
Cd226 Cd 0.46015 0.3171 0.77474 0.0
O227 O 0.45944 0.27949 0.79622 0.0
O228 O 0.36163 0.26005 0.78378 0.0
O229 O 0.39921 0.29502 0.82493 0.0
C230 C 0.37153 0.27656 0.82254 0.0
C231 C 0.49585 0.3611 0.81027 0.0
C232 C 0.44058 0.25338 0.7852 0.0
C233 C 0.4326 0.31492 0.67471 0.0
O234 O 0.4553 0.32213 0.70044 0.0
O235 O 0.40744 0.29893 0.69321 0.0
O236 O 0.50242 0.3458 0.78169 0.0
O237 O 0.46866 0.35088 0.8208 0.0
O238 O 0.75292 0.17045 0.76791 0.0
Cd239 Cd 0.7221 0.12653 0.76175 0.0
Cd240 Cd 0.68398 0.14576 0.77552 0.0
O241 O 0.72155 0.18206 0.79908 0.0
O242 O 0.73995 0.10326 0.78444 0.0
O243 O 0.70511 0.10592 0.82595 0.0
C244 C 0.72348 0.0966 0.82326 0.0
C245 C 0.63945 0.13642 0.81022 0.0
C246 C 0.7476 0.18903 0.78806 0.0
C247 C 0.68649 0.12119 0.67519 0.0
O248 O 0.67982 0.13713 0.70077 0.0
O249 O 0.70155 0.11106 0.69416 0.0
O250 O 0.65501 0.15894 0.78309 0.0
O251 O 0.64978 0.11945 0.81996 0.0
O252 O 0.41865 0.17072 0.26548 0.0
Cd253 Cd 0.40534 0.12672 0.25981 0.0
Cd254 Cd 0.46289 0.14578 0.27284 0.0
O255 O 0.46191 0.18238 0.2954 0.0
O256 O 0.36431 0.10362 0.28309 0.0
O257 O 0.40196 0.10633 0.32417 0.0
C258 C 0.37426 0.09703 0.3218 0.0
C259 C 0.49845 0.13704 0.30773 0.0
C260 C 0.4428 0.18938 0.28481 0.0
C261 C 0.43506 0.12043 0.17318 0.0
O262 O 0.45787 0.13628 0.1984 0.0
O263 O 0.40998 0.11081 0.19235 0.0
O264 O 0.50513 0.15916 0.27969 0.0
O265 O 0.47123 0.1201 0.31812 0.0
O266 O 0.83416 0.2507 0.26928 0.0
Cd267 Cd 0.87836 0.2808 0.26387 0.0
Cd268 Cd 0.86011 0.32 0.2775 0.0
O269 O 0.82314 0.28264 0.29972 0.0
O270 O 0.90075 0.26198 0.28646 0.0
O271 O 0.89894 0.29717 0.32834 0.0
C272 C 0.90768 0.27835 0.32545 0.0
C273 C 0.86885 0.36438 0.31198 0.0
C274 C 0.81573 0.25649 0.28871 0.0
C275 C 0.88522 0.31718 0.17763 0.0
O276 O 0.8697 0.32445 0.20309 0.0
O277 O 0.89449 0.30137 0.19652 0.0
O278 O 0.84683 0.34895 0.28377 0.0
O279 O 0.8857 0.35407 0.3228 0.0
O280 O 0.75243 0.58298 0.26936 0.0
Cd281 Cd 0.72183 0.59641 0.26325 0.0
Cd282 Cd 0.68338 0.53916 0.2783 0.0
O283 O 0.72099 0.54025 0.30119 0.0
O284 O 0.74012 0.63773 0.285 0.0
O285 O 0.70533 0.60073 0.32749 0.0
C286 C 0.72384 0.62835 0.32411 0.0
C287 C 0.63901 0.50408 0.31365 0.0
C288 C 0.74703 0.55911 0.28971 0.0
C289 C 0.68551 0.56575 0.17755 0.0
O290 O 0.67874 0.54327 0.20358 0.0
O291 O 0.70095 0.59104 0.19591 0.0
O292 O 0.65446 0.49705 0.28636 0.0
O293 O 0.64936 0.5314 0.32319 0.0
O294 O 0.50342 0.08501 0.87735 0.0
Cd295 Cd 0.45923 0.07092 0.88306 0.0
Cd296 Cd 0.47736 0.12816 0.86793 0.0
O297 O 0.51427 0.12764 0.84559 0.0
O298 O 0.43681 0.02949 0.86172 0.0
O299 O 0.43838 0.066 0.81863 0.0
C300 C 0.4297 0.03849 0.8224 0.0
C301 C 0.46796 0.16317 0.83259 0.0
C302 C 0.52175 0.10902 0.85721 0.0
C303 C 0.45274 0.10125 0.9685 0.0
O304 O 0.46827 0.12381 0.94252 0.0
O305 O 0.44331 0.07602 0.95017 0.0
O306 O 0.49031 0.17023 0.86022 0.0
O307 O 0.45118 0.13587 0.82271 0.0
O308 O 0.91895 0.41911 0.87977 0.0
Cd309 Cd 0.93259 0.38867 0.88566 0.0
Cd310 Cd 0.87514 0.34979 0.87235 0.0
O311 O 0.87579 0.38723 0.84995 0.0
O312 O 0.9736 0.40669 0.86225 0.0
O313 O 0.93598 0.37149 0.82151 0.0
C314 C 0.96366 0.38997 0.82374 0.0
C315 C 0.8394 0.3055 0.83775 0.0
C316 C 0.89471 0.41339 0.86052 0.0
C317 C 0.90304 0.35266 0.97226 0.0
O318 O 0.88024 0.34536 0.94679 0.0
O319 O 0.92813 0.36839 0.95332 0.0
O320 O 0.83287 0.32097 0.86599 0.0
O321 O 0.86656 0.31571 0.82703 0.0
O322 O 0.58234 0.49608 0.88026 0.0
Cd323 Cd 0.61316 0.54005 0.88578 0.0
Cd324 Cd 0.65131 0.52074 0.87326 0.0
O325 O 0.61377 0.48423 0.85024 0.0
O326 O 0.59516 0.5631 0.86262 0.0
O327 O 0.63002 0.56035 0.82129 0.0
C328 C 0.6116 0.56963 0.82377 0.0
C329 C 0.69582 0.53014 0.83844 0.0
C330 C 0.5877 0.47735 0.86084 0.0
C331 C 0.64884 0.54612 0.97274 0.0
O332 O 0.65555 0.52998 0.94781 0.0
O333 O 0.63372 0.55602 0.95321 0.0
O334 O 0.68047 0.50777 0.86605 0.0
O335 O 0.68531 0.54691 0.82836 0.0
O336 O 0.5837 0.82874 0.71534 0.0
Cd337 Cd 0.59681 0.87272 0.72072 0.0
Cd338 Cd 0.53918 0.85338 0.7085 0.0
O339 O 0.54014 0.8167 0.68642 0.0
O340 O 0.63778 0.89594 0.69718 0.0
O341 O 0.59995 0.89296 0.65628 0.0
C342 C 0.62769 0.90243 0.65853 0.0
C343 C 0.50381 0.86223 0.67324 0.0
C344 C 0.55943 0.80989 0.69664 0.0
C345 C 0.56735 0.87929 0.8076 0.0
O346 O 0.54442 0.86325 0.78279 0.0
O347 O 0.59233 0.88882 0.7881 0.0
O348 O 0.49698 0.84018 0.70152 0.0
O349 O 0.53105 0.87902 0.66283 0.0
O350 O 0.1686 0.7506 0.71064 0.0
Cd351 Cd 0.12438 0.72064 0.7165 0.0
Cd352 Cd 0.14241 0.68121 0.70307 0.0
O353 O 0.17938 0.71844 0.68043 0.0
O354 O 0.10206 0.73954 0.69394 0.0
O355 O 0.10355 0.70413 0.65226 0.0
C356 C 0.09493 0.72304 0.65511 0.0
C357 C 0.13363 0.63671 0.66904 0.0
C358 C 0.18691 0.74465 0.69119 0.0
C359 C 0.11764 0.68452 0.80306 0.0
O360 O 0.13298 0.67704 0.77755 0.0
O361 O 0.10843 0.70037 0.78411 0.0
O362 O 0.15567 0.65222 0.69717 0.0
O363 O 0.11677 0.64699 0.65807 0.0
O364 O 0.25016 0.418 0.71192 0.0
Cd365 Cd 0.28072 0.40452 0.71787 0.0
Cd366 Cd 0.31917 0.46154 0.70224 0.0
O367 O 0.28158 0.46056 0.67951 0.0
O368 O 0.26245 0.36322 0.69605 0.0
O369 O 0.29716 0.40028 0.65353 0.0
C370 C 0.27867 0.37265 0.65689 0.0
C371 C 0.36353 0.49626 0.66638 0.0
C372 C 0.25556 0.44181 0.69133 0.0
C373 C 0.31731 0.43534 0.80317 0.0
O374 O 0.324 0.45774 0.77699 0.0
O375 O 0.3018 0.41 0.78503 0.0
O376 O 0.34824 0.50354 0.69356 0.0
O377 O 0.35301 0.46888 0.6572 0.0
O378 O 0.50054 0.91766 0.10237 0.0
Cd379 Cd 0.54463 0.93132 0.09654 0.0
Cd380 Cd 0.52625 0.87425 0.11295 0.0
O381 O 0.48957 0.87523 0.13516 0.0
O382 O 0.56755 0.97268 0.11809 0.0
O383 O 0.56533 0.93578 0.16094 0.0
C384 C 0.5744 0.96338 0.15737 0.0
C385 C 0.53534 0.83918 0.14897 0.0
C386 C 0.48218 0.89385 0.12304 0.0
C387 C 0.55062 0.90028 0.01179 0.0
O388 O 0.53509 0.87796 0.03829 0.0
O389 O 0.56026 0.92568 0.02953 0.0
O390 O 0.51293 0.83215 0.12149 0.0
O391 O 0.55236 0.86651 0.15832 0.0
O392 O 0.08523 0.58409 0.10179 0.0
Cd393 Cd 0.07139 0.61438 0.09596 0.0
Cd394 Cd 0.12896 0.65336 0.10863 0.0
O395 O 0.12845 0.61604 0.13137 0.0
O396 O 0.03028 0.59593 0.11903 0.0
O397 O 0.06757 0.63124 0.16018 0.0
C398 C 0.03996 0.61254 0.1577 0.0
C399 C 0.16474 0.69784 0.14262 0.0
C400 C 0.10951 0.58986 0.12094 0.0
C401 C 0.10065 0.65012 0.00896 0.0
O402 O 0.12355 0.65745 0.03418 0.0
O403 O 0.07564 0.63453 0.02825 0.0
O404 O 0.17122 0.68231 0.11446 0.0
O405 O 0.13761 0.68759 0.15363 0.0
O406 O 0.42119 0.50574 0.10027 0.0
Cd407 Cd 0.39052 0.46173 0.09447 0.0
Cd408 Cd 0.35205 0.48085 0.10712 0.0
O409 O 0.38957 0.51745 0.12991 0.0
O410 O 0.4086 0.4387 0.11734 0.0
O411 O 0.37362 0.44116 0.15876 0.0
C412 C 0.39207 0.43194 0.1561 0.0
C413 C 0.30762 0.47174 0.1419 0.0
C414 C 0.41569 0.52442 0.1195 0.0
C415 C 0.35461 0.45549 0.00762 0.0
O416 O 0.34771 0.47144 0.03265 0.0
O417 O 0.36999 0.44583 0.02699 0.0
O418 O 0.323 0.49398 0.11408 0.0
O419 O 0.31804 0.45491 0.15218 0.0
O420 O 0.08468 0.50141 0.60028 0.0
Cd421 Cd 0.07156 0.45748 0.59429 0.0
Cd422 Cd 0.12888 0.47665 0.60854 0.0
O423 O 0.12753 0.51293 0.63191 0.0
O424 O 0.03047 0.43421 0.61719 0.0
O425 O 0.06809 0.43702 0.65856 0.0
C426 C 0.04039 0.42768 0.65603 0.0
C427 C 0.16436 0.46774 0.64327 0.0
C428 C 0.10853 0.51996 0.62061 0.0
C429 C 0.10192 0.45216 0.50799 0.0
O430 O 0.12448 0.46799 0.53379 0.0
O431 O 0.07668 0.44203 0.52675 0.0
O432 O 0.17111 0.49013 0.61595 0.0
O433 O 0.13711 0.45061 0.65314 0.0
O434 O 0.49979 0.58016 0.59945 0.0
Cd435 Cd 0.54398 0.61038 0.5943 0.0
Cd436 Cd 0.52599 0.6496 0.60997 0.0
O437 O 0.4889 0.61198 0.63088 0.0
O438 O 0.56672 0.59201 0.6173 0.0
O439 O 0.5642 0.62689 0.65893 0.0
C440 C 0.5733 0.60835 0.65628 0.0
C441 C 0.53446 0.69347 0.64627 0.0
C442 C 0.4814 0.5859 0.6192 0.0
C443 C 0.55125 0.64792 0.50953 0.0
O444 O 0.53591 0.65511 0.5357 0.0
O445 O 0.56017 0.63158 0.5274 0.0
O446 O 0.51255 0.67834 0.61766 0.0
O447 O 0.55137 0.68314 0.65642 0.0
O448 O 0.41887 0.91278 0.60411 0.0
Cd449 Cd 0.3886 0.92665 0.5979 0.0
Cd450 Cd 0.34969 0.8691 0.6099 0.0
O451 O 0.38688 0.86945 0.63316 0.0
O452 O 0.40741 0.96797 0.61978 0.0
O453 O 0.37209 0.93127 0.66196 0.0
C454 C 0.3909 0.95881 0.65862 0.0
C455 C 0.3049 0.83416 0.64409 0.0
C456 C 0.41311 0.88848 0.62312 0.0
C457 C 0.35299 0.89743 0.51052 0.0
O458 O 0.34578 0.87444 0.53537 0.0
O459 O 0.36842 0.92234 0.53019 0.0
O460 O 0.32019 0.82706 0.61649 0.0
O461 O 0.31562 0.86142 0.65453 0.0
O462 O 0.17175 0.4207 0.20938 0.0
Cd463 Cd 0.12761 0.4068 0.21542 0.0
Cd464 Cd 0.14621 0.46439 0.20299 0.0
O465 O 0.1831 0.46399 0.18015 0.0
O466 O 0.10513 0.36544 0.19369 0.0
O467 O 0.10649 0.40207 0.15132 0.0
C468 C 0.09779 0.37455 0.15477 0.0
C469 C 0.13678 0.49959 0.16866 0.0
C470 C 0.1903 0.445 0.19038 0.0
C471 C 0.12111 0.43613 0.30249 0.0
O472 O 0.13679 0.45907 0.27748 0.0
O473 O 0.11172 0.41117 0.28305 0.0
O474 O 0.15903 0.5065 0.19651 0.0
O475 O 0.12012 0.47236 0.1581 0.0
O476 O 0.5863 0.75408 0.21546 0.0
Cd477 Cd 0.59985 0.72351 0.2202 0.0
Cd478 Cd 0.54246 0.68485 0.20614 0.0
O479 O 0.54317 0.72252 0.18508 0.0
O480 O 0.64086 0.74161 0.19675 0.0
O481 O 0.60319 0.70689 0.1554 0.0
C482 C 0.63089 0.72528 0.1578 0.0
C483 C 0.50699 0.64089 0.1702 0.0
C484 C 0.5621 0.74857 0.19631 0.0
C485 C 0.56999 0.68654 0.30581 0.0
O486 O 0.54726 0.67961 0.28036 0.0
O487 O 0.59513 0.70242 0.28715 0.0
O488 O 0.50025 0.65604 0.19883 0.0
O489 O 0.53422 0.65126 0.15982 0.0
O490 O 0.25116 0.8329 0.21257 0.0
Cd491 Cd 0.28194 0.87683 0.21892 0.0
Cd492 Cd 0.32006 0.85774 0.20426 0.0
O493 O 0.28248 0.82157 0.18031 0.0
O494 O 0.26403 0.9001 0.1965 0.0
O495 O 0.29884 0.8975 0.15475 0.0
C496 C 0.28043 0.90677 0.15758 0.0
C497 C 0.36461 0.86702 0.16969 0.0
C498 C 0.25646 0.81447 0.19178 0.0
C499 C 0.31754 0.88179 0.30513 0.0
O500 O 0.32415 0.86594 0.27916 0.0
O501 O 0.30256 0.8921 0.28651 0.0
O502 O 0.34889 0.8444 0.19652 0.0
O503 O 0.35444 0.88414 0.16015 0.0
C504 C 0.36337 0.27898 0.91346 0.0
C505 C 0.35203 0.27207 0.86503 0.0
H506 H 0.35398 0.2736 -0.00854 0.0
C507 C 0.32164 0.25756 0.8583 0.0
H508 H 0.3867 0.29009 0.91978 0.0
C509 C 0.30291 0.24861 0.89933 0.0
C510 C 0.31426 0.25344 0.94778 0.0
H511 H 0.3123 0.25208 0.82135 0.0
H512 H 0.27958 0.23627 0.89302 0.0
C513 C 0.34464 0.26946 0.95449 0.0
C514 C 0.74234 0.0655 0.85852 0.0
C515 C 0.728 0.08151 0.86558 0.0
H516 H 0.76362 0.0446 0.89278 0.0
C517 C 0.7214 0.08608 0.91414 0.0
H518 H 0.7476 0.06156 0.82146 0.0
C519 C 0.73106 0.07687 0.95496 0.0
C520 C 0.7469 0.06234 0.94791 0.0
H521 H 0.71044 0.09842 0.92071 0.0
H522 H 0.72715 0.08215 -0.00797 0.0
C523 C 0.75142 0.0557 0.89935 0.0
C524 C 0.92627 0.6574 0.95576 0.0
C525 C 0.94056 0.68765 0.94752 0.0
H526 H 0.90472 0.61479 0.92317 0.0
C527 C 0.94672 0.69816 0.89853 0.0
H528 H 0.92136 0.64871 -0.00681 0.0
C529 C 0.93669 0.67875 0.85847 0.0
C530 C 0.92094 0.6485 0.86673 0.0
H531 H 0.95762 0.72136 0.89107 0.0
H532 H 0.94026 0.68743 0.82106 0.0
C533 C 0.91685 0.63799 0.9157 0.0
C534 C 0.28008 0.36349 0.56615 0.0
C535 C 0.27375 0.3527 0.61497 0.0
H536 H 0.27377 0.35322 0.4885 0.0
C537 C 0.25933 0.3224 0.62269 0.0
H538 H 0.29109 0.38673 0.55907 0.0
C539 C 0.24991 0.30322 0.58229 0.0
C540 C 0.25416 0.31402 0.5335 0.0
H541 H 0.25429 0.31349 0.65997 0.0
H542 H 0.23766 0.27998 0.58938 0.0
C543 C 0.27007 0.34431 0.52576 0.0
C544 C 0.63575 0.9131 0.56763 0.0
C545 C 0.64709 0.91769 0.61607 0.0
H546 H 0.64522 0.91742 0.48964 0.0
C547 C 0.67745 0.93406 0.62287 0.0
H548 H 0.61244 0.90049 0.56126 0.0
C549 C 0.6962 0.94424 0.5819 0.0
C550 C 0.68491 0.93763 0.53341 0.0
H551 H 0.68677 0.93803 0.65985 0.0
H552 H 0.71953 0.95564 0.58827 0.0
C553 C 0.65451 0.9227 0.52664 0.0
C554 C 0.07544 0.73154 0.52372 0.0
C555 C 0.06136 0.74777 0.53117 0.0
H556 H 0.09642 0.7102 0.55745 0.0
C557 C 0.0549 0.75229 0.57986 0.0
H558 H 0.08057 0.72763 0.48654 0.0
C559 C 0.06447 0.74281 0.62044 0.0
C560 C 0.08006 0.72805 0.61301 0.0
H561 H 0.04414 0.76479 0.58673 0.0
H562 H 0.06071 0.74806 0.65763 0.0
C563 C 0.08441 0.72147 0.5643 0.0
C564 C 0.63895 0.72322 0.06675 0.0
C565 C 0.65033 0.72988 0.11517 0.0
H566 H 0.6483 0.72886 0.98874 0.0
C567 C 0.68072 0.74425 0.12183 0.0
H568 H 0.61562 0.71223 0.06048 0.0
C569 C 0.69942 0.75328 0.08077 0.0
C570 C 0.68805 0.74868 0.03235 0.0
H571 H 0.69008 0.74955 0.15878 0.0
H572 H 0.72276 0.7655 0.08705 0.0
C573 C 0.65765 0.73283 0.02569 0.0
C574 C 0.26125 0.93761 0.12235 0.0
C575 C 0.27573 0.92173 0.11527 0.0
H576 H 0.23962 0.95817 0.08814 0.0
C577 C 0.28222 0.91708 0.06668 0.0
H578 H 0.25606 0.9416 0.15943 0.0
C579 C 0.27231 0.92606 0.02589 0.0
C580 C 0.25632 0.94042 0.03298 0.0
H581 H 0.29328 0.90484 0.06008 0.0
H582 H 0.27614 0.92071 0.98882 0.0
C583 C 0.25192 0.94718 0.08154 0.0
C584 C 0.08655 0.36476 0.0643 0.0
C585 C 0.08245 0.35432 0.11332 0.0
H586 H 0.08189 0.35391 0.98686 0.0
C587 C 0.06656 0.32409 0.12171 0.0
H588 H 0.09879 0.38795 0.05673 0.0
C589 C 0.05638 0.30461 0.08174 0.0
C590 C 0.06253 0.31504 0.0327 0.0
H591 H 0.06298 0.31546 0.15916 0.0
H592 H 0.04536 0.28142 0.08932 0.0
C593 C 0.07697 0.34528 0.02432 0.0
C594 C 0.74312 0.67864 0.35808 0.0
C595 C 0.72871 0.64835 0.36593 0.0
H596 H 0.76472 0.72111 0.39124 0.0
C597 C 0.72233 0.63763 0.41478 0.0
H598 H 0.74821 0.6875 0.32078 0.0
C599 C 0.73228 0.65686 0.4551 0.0
C600 C 0.74817 0.68714 0.44725 0.0
H601 H 0.71133 0.61439 0.42196 0.0
H602 H 0.72854 0.648 0.4924 0.0
C603 C 0.75248 0.69787 0.39841 0.0
C604 C 0.34735 0.07727 0.45373 0.0
C605 C 0.31696 0.06263 0.44694 0.0
H606 H 0.38943 0.09897 0.41911 0.0
C607 C 0.30566 0.05597 0.39846 0.0
H608 H 0.35665 0.08257 0.49072 0.0
C609 C 0.32442 0.06585 0.35748 0.0
C610 C 0.35479 0.08196 0.36428 0.0
H611 H 0.28233 0.04479 0.3921 0.0
H612 H 0.31511 0.06188 0.3205 0.0
C613 C 0.36611 0.08656 0.41274 0.0
C614 C 0.93807 0.25855 0.36028 0.0
C615 C 0.92245 0.27327 0.36764 0.0
H616 H 0.95835 0.23654 0.39409 0.0
C617 C 0.91796 0.27977 0.41632 0.0
H618 H 0.94194 0.25336 0.32311 0.0
C619 C 0.92685 0.26965 0.45694 0.0
C620 C 0.94098 0.25345 0.44957 0.0
H621 H 0.90592 0.29101 0.42311 0.0
H622 H 0.92163 0.27349 0.49409 0.0
C623 C 0.94755 0.24901 0.40091 0.0
C624 C 0.03147 0.61458 0.24857 0.0
C625 C 0.02031 0.60787 0.20002 0.0
H626 H 0.0218 0.60879 0.32646 0.0
C627 C 0.98994 0.5933 0.19297 0.0
H628 H 0.05478 0.62572 0.25512 0.0
C629 C 0.97106 0.5841 0.23379 0.0
C630 C 0.98224 0.58873 0.28236 0.0
H631 H 0.98075 0.58796 0.15591 0.0
H632 H 0.94776 0.57172 0.22723 0.0
C633 C 0.0126 0.6048 0.2894 0.0
C634 C 0.41961 0.39053 0.23177 0.0
C635 C 0.41492 0.39691 0.28041 0.0
H636 H 0.41613 0.39685 0.15396 0.0
C637 C 0.39919 0.41154 0.28761 0.0
H638 H 0.43174 0.37936 0.2251 0.0
C639 C 0.38977 0.42106 0.24688 0.0
C640 C 0.39651 0.41671 0.19828 0.0
H641 H 0.39517 0.41663 0.32473 0.0
H642 H 0.37886 0.43344 0.25358 0.0
C643 C 0.41078 0.40064 0.19106 0.0
C644 C 0.60515 0.01374 0.19129 0.0
C645 C 0.58941 0.98346 0.19918 0.0
H646 H 0.62576 0.05622 0.22437 0.0
C647 C 0.58504 0.97276 0.24806 0.0
H648 H 0.60893 0.02257 0.15396 0.0
C649 C 0.59417 0.99202 0.28834 0.0
C650 C 0.60842 0.02229 0.28043 0.0
H651 H 0.57291 0.94953 0.25527 0.0
H652 H 0.58904 0.98317 0.32565 0.0
C653 C 0.61488 0.033 0.23158 0.0
C654 C 0.40996 0.00922 0.69178 0.0
C655 C 0.3957 0.97899 0.70011 0.0
H656 H 0.43121 0.05186 0.72426 0.0
C657 C 0.38931 0.96851 0.7491 0.0
H658 H 0.41505 0.01788 0.65435 0.0
C659 C 0.39907 0.98796 0.78913 0.0
C660 C 0.41476 0.01821 0.78081 0.0
H661 H 0.37842 0.94532 0.75663 0.0
H662 H 0.39532 0.97931 0.82658 0.0
C663 C 0.41911 0.02866 0.73179 0.0
C664 C 0.03224 0.41756 0.74703 0.0
C665 C 0.0209 0.41279 0.69857 0.0
H666 H 0.02283 0.41413 0.82499 0.0
C667 C 0.99051 0.39687 0.69184 0.0
H668 H 0.05556 0.42983 0.75336 0.0
C669 C 0.97177 0.3874 0.73286 0.0
C670 C 0.98312 0.39429 0.78129 0.0
H671 H 0.98119 0.39278 0.65486 0.0
H672 H 0.94845 0.37638 0.72653 0.0
C673 C 0.0135 0.40867 0.78804 0.0
C674 C 0.61357 0.57983 0.73277 0.0
C675 C 0.60703 0.58456 0.78128 0.0
H676 H 0.60779 0.58358 0.65483 0.0
C677 C 0.59274 0.60063 0.78815 0.0
H678 H 0.62449 0.56743 0.72635 0.0
C679 C 0.58366 0.61035 0.74722 0.0
C680 C 0.58814 0.60358 0.69872 0.0
H681 H 0.58753 0.6047 0.82516 0.0
H682 H 0.57152 0.62153 0.75366 0.0
C683 C 0.60392 0.58897 0.69184 0.0
C684 C 0.23443 0.07889 0.01663 0.0
C685 C 0.20781 0.05901 -0.00586 0.0
H686 H 0.26149 0.12234 0.04444 0.0
C687 C 0.18734 0.06786 0.98419 0.0
H688 H 0.25068 0.07272 0.02457 0.0
C689 C 0.1935 0.09606 -0.00472 0.0
C690 C 0.22034 0.1163 0.01661 0.0
H691 H 0.16658 0.0531 0.96702 0.0
H692 H 0.1772 0.10204 0.98651 0.0
C693 C 0.24067 0.10733 0.02774 0.0
C694 C 0.92237 0.15476 0.0178 0.0
C695 C 0.94218 0.14744 -0.00328 0.0
H696 H 0.87869 0.13921 0.04392 0.0
C697 C 0.93296 0.11797 0.98769 0.0
H698 H 0.92882 0.17731 0.02499 0.0
C699 C 0.90447 0.09633 -0.0018 0.0
C700 C 0.8843 0.10351 0.01804 0.0
H701 H 0.94765 0.11152 0.97161 0.0
H702 H 0.89822 0.07391 0.99014 0.0
C703 C 0.89364 0.13296 0.02836 0.0
C704 C 0.84781 0.77044 0.01413 0.0
C705 C 0.85471 0.7972 -0.00796 0.0
H706 H 0.86394 0.74304 0.04137 0.0
C707 C 0.88408 0.81755 0.98216 0.0
H708 H 0.82535 0.75428 0.022 0.0
C709 C 0.90601 0.81114 -0.00706 0.0
C710 C 0.89922 0.78416 0.01391 0.0
H711 H 0.89021 0.83841 0.96526 0.0
H712 H 0.92833 0.82735 0.98426 0.0
C713 C 0.86989 0.76396 0.02495 0.0
C714 C 0.09608 0.19064 0.48705 0.0
C715 C 0.1162 0.21774 0.46638 0.0
H716 H 0.05303 0.16309 0.51459 0.0
C717 C 0.10695 0.23788 0.45571 0.0
H718 H 0.10229 0.17447 0.49544 0.0
C719 C 0.07833 0.23121 0.46663 0.0
C720 C 0.05855 0.20433 0.48844 0.0
H721 H 0.12186 0.2589 0.43953 0.0
H722 H 0.07195 0.24734 0.45906 0.0
C723 C 0.0677 0.18404 0.49792 0.0
C724 C 0.81558 0.88337 0.49365 0.0
C725 C 0.79542 0.85389 0.48433 0.0
H726 H 0.82479 0.92739 0.49136 0.0
C727 C 0.76838 0.84656 0.46285 0.0
H728 H 0.83665 0.88983 0.51004 0.0
C729 C 0.76143 0.86833 0.4522 0.0
C730 C 0.78143 0.89776 0.46283 0.0
H731 H 0.75235 0.82401 0.45542 0.0
H732 H 0.74029 0.86206 0.43635 0.0
C733 C 0.80871 0.90497 0.48305 0.0
C734 C 0.09842 0.90608 0.4856 0.0
C735 C 0.105 0.88584 0.4642 0.0
H736 H 0.1145 0.94905 0.51385 0.0
C737 C 0.13428 0.8948 0.453 0.0
H738 H 0.07614 0.9001 0.49444 0.0
C739 C 0.1565 0.92325 0.46405 0.0
C740 C 0.14979 0.94314 0.48657 0.0
H741 H 0.14007 0.87979 0.43624 0.0
H742 H 0.17891 0.92942 0.45603 0.0
C743 C 0.12048 0.93429 0.49664 0.0
C744 C 0.81529 0.93426 -0.00376 0.0
C745 C 0.79485 0.94317 0.98639 0.0
H746 H 0.82537 0.90004 -0.00627 0.0
C747 C 0.76823 0.92334 0.96385 0.0
H748 H 0.83606 0.94898 0.01345 0.0
C749 C 0.76195 0.8949 0.95262 0.0
C750 C 0.78223 0.88588 0.96365 0.0
H751 H 0.752 0.92955 0.95599 0.0
H752 H 0.74112 0.87993 0.93589 0.0
C753 C 0.80909 0.90606 0.98502 0.0
C754 C 0.10904 0.86919 0.95315 0.0
C755 C 0.11845 0.89865 0.96351 0.0
H756 H 0.07377 0.82488 0.95643 0.0
C757 C 0.09833 0.90589 0.98342 0.0
H758 H 0.12394 0.8629 0.93754 0.0
C759 C 0.06982 0.88431 -0.00609 0.0
C760 C 0.06052 0.85482 0.9848 0.0
H761 H 0.10464 0.92832 -0.00848 0.0
H762 H 0.05517 0.8908 0.01002 0.0
C763 C 0.08028 0.84745 0.96369 0.0
C764 C 0.11842 0.18466 -0.00168 0.0
C765 C 0.14779 0.20497 0.98836 0.0
H766 H 0.07419 0.17495 -0.00361 0.0
C767 C 0.15472 0.23174 0.96632 0.0
H768 H 0.11226 0.16379 0.0152 0.0
C769 C 0.13267 0.23828 0.9556 0.0
C770 C 0.10333 0.21812 0.96671 0.0
H771 H 0.17718 0.24788 0.95839 0.0
H772 H 0.13864 0.25921 0.9392 0.0
C773 C 0.09652 0.19113 0.98765 0.0
C774 C 0.92384 0.76998 0.51443 0.0
C775 C 0.94369 0.79689 0.49277 0.0
H776 H 0.88026 0.7423 0.54129 0.0
C777 C 0.9346 0.81722 0.48332 0.0
H778 H 0.93018 0.75382 0.52196 0.0
C779 C 0.90621 0.81065 0.49407 0.0
C780 C 0.88602 0.78352 0.51457 0.0
H781 H 0.94932 0.8382 0.46677 0.0
H782 H 0.90005 0.82686 0.48571 0.0
C783 C 0.89522 0.76333 0.52523 0.0
C784 C 0.23398 0.15476 0.51717 0.0
C785 C 0.20692 0.14744 0.49576 0.0
H786 H 0.26206 0.13924 0.5436 0.0
C787 C 0.18674 0.11797 0.48646 0.0
H788 H 0.25002 0.17731 0.52457 0.0
C789 C 0.19361 0.09635 0.49704 0.0
C790 C 0.22089 0.10355 0.51721 0.0
H791 H 0.16566 0.11151 0.47013 0.0
H792 H 0.1775 0.07394 0.48877 0.0
C793 C 0.24092 0.13298 0.52778 0.0
C794 C 0.86792 0.10641 0.52802 0.0
C795 C 0.89721 0.11533 0.51697 0.0
H796 H 0.82327 0.07185 0.52479 0.0
C797 C 0.90378 0.09506 0.49566 0.0
H798 H 0.86214 0.12144 0.5447 0.0
C799 C 0.8817 0.06687 0.48455 0.0
C800 C 0.85238 0.05806 0.49445 0.0
H801 H 0.92606 0.101 0.48694 0.0
H802 H 0.88767 0.05208 0.46739 0.0
C803 C 0.84569 0.07798 0.5169 0.0
C804 C 0.86098 0.43086 0.3289 0.0
C805 C 0.88784 0.45106 0.35025 0.0
H806 H 0.83393 0.38786 0.3009 0.0
C807 C 0.90806 0.44199 0.3616 0.0
H808 H 0.84476 0.43692 0.31996 0.0
C809 C 0.9017 0.41349 0.35074 0.0
C810 C 0.87506 0.39363 0.32829 0.0
H811 H 0.92889 0.45697 0.37832 0.0
H812 H 0.91787 0.40724 0.35887 0.0
C813 C 0.8547 0.40259 0.31807 0.0
C814 C 0.5897 0.48857 0.35102 0.0
C815 C 0.60962 0.48136 0.33006 0.0
H816 H 0.54596 0.47287 0.37689 0.0
C817 C 0.60053 0.4519 0.32109 0.0
H818 H 0.59605 0.5111 0.35816 0.0
C819 C 0.57205 0.43019 0.33148 0.0
C820 C 0.55177 0.43728 0.35114 0.0
H821 H 0.6153 0.44553 0.30512 0.0
H822 H 0.56589 0.40779 0.32344 0.0
C823 C 0.56099 0.4667 0.36146 0.0
C824 C 0.51456 0.10411 0.34661 0.0
C825 C 0.52144 0.13082 0.32434 0.0
H826 H 0.53074 0.07684 0.37432 0.0
C827 C 0.55081 0.15122 0.31463 0.0
H828 H 0.4921 0.08791 0.35436 0.0
C829 C 0.57277 0.14491 0.32577 0.0
C830 C 0.56601 0.11798 0.34692 0.0
H831 H 0.55693 0.17204 0.29761 0.0
H832 H 0.5951 0.16116 0.3172 0.0
C833 C 0.53667 0.09773 0.35777 0.0
C834 C 0.76307 0.52358 0.82087 0.0
C835 C 0.78305 0.55073 0.80017 0.0
H836 H 0.72005 0.49578 0.84836 0.0
C837 C 0.77357 0.57069 0.78942 0.0
H838 H 0.76944 0.50754 0.82933 0.0
C839 C 0.74489 0.5638 0.80024 0.0
C840 C 0.72524 0.53686 0.82207 0.0
H841 H 0.78837 0.59174 0.77321 0.0
H842 H 0.73833 0.57978 0.7926 0.0
C843 C 0.73461 0.51676 0.83167 0.0
C844 C 0.48157 0.21531 0.82511 0.0
C845 C 0.46125 0.18585 0.81609 0.0
H846 H 0.49101 0.2594 0.82266 0.0
C847 C 0.43415 0.1786 0.79497 0.0
H848 H 0.50269 0.22171 0.84121 0.0
C849 C 0.4273 0.20045 0.78439 0.0
C850 C 0.44747 0.22988 0.79473 0.0
H851 H 0.418 0.15606 0.78778 0.0
H852 H 0.40612 0.19425 0.76881 0.0
C853 C 0.47479 0.23699 0.81458 0.0
C854 C 0.7649 0.23928 0.82024 0.0
C855 C 0.77147 0.2191 0.79857 0.0
H856 H 0.781 0.28218 0.84881 0.0
C857 C 0.80075 0.22809 0.78727 0.0
H858 H 0.74263 0.23327 0.82917 0.0
C859 C 0.82298 0.2565 0.79846 0.0
C860 C 0.81628 0.27635 0.82121 0.0
H861 H 0.80653 0.21312 0.77031 0.0
H862 H 0.84538 0.2627 0.79033 0.0
C863 C 0.78697 0.26746 0.83141 0.0
C864 C 0.47627 0.23977 0.31586 0.0
C865 C 0.44925 0.21956 0.29503 0.0
H866 H 0.50347 0.28274 0.34391 0.0
C867 C 0.42892 0.2286 0.28446 0.0
H868 H 0.49258 0.23374 0.32417 0.0
C869 C 0.43532 0.25708 0.29569 0.0
C870 C 0.4621 0.27692 0.31776 0.0
H871 H 0.40797 0.21361 0.26815 0.0
H872 H 0.41905 0.26329 0.28825 0.0
C873 C 0.48258 0.26801 0.32708 0.0
C874 C 0.77589 0.20367 0.28757 0.0
C875 C 0.78531 0.23309 0.2983 0.0
H876 H 0.74062 0.15935 0.29044 0.0
C877 C 0.76522 0.24026 0.31851 0.0
H878 H 0.79078 0.19742 0.27172 0.0
C879 C 0.7367 0.21864 0.3289 0.0
C880 C 0.72739 0.18919 0.31939 0.0
H881 H 0.77154 0.26267 0.32692 0.0
H882 H 0.72206 0.22507 0.34525 0.0
C883 C 0.74714 0.18189 0.29801 0.0
C884 C 0.786 0.51936 0.3317 0.0
C885 C 0.81535 0.5397 0.32167 0.0
H886 H 0.74174 0.50952 0.32973 0.0
C887 C 0.8222 0.56642 0.29946 0.0
H888 H 0.7799 0.49854 0.3487 0.0
C889 C 0.80009 0.57286 0.28863 0.0
C890 C 0.77078 0.55266 0.29981 0.0
H891 H 0.84464 0.58258 0.29147 0.0
H892 H 0.806 0.59374 0.27209 0.0
C893 C 0.76405 0.52574 0.32094 0.0
C894 C 0.60072 0.14988 0.81656 0.0
C895 C 0.61 0.12972 0.82632 0.0
H896 H 0.56592 0.15917 0.8184 0.0
C897 C 0.59024 0.10278 0.84798 0.0
H898 H 0.61536 0.17087 0.79999 0.0
C899 C 0.56153 0.09593 0.85849 0.0
C900 C 0.55214 0.11594 0.84752 0.0
H901 H 0.59672 0.08675 0.85575 0.0
H902 H 0.54664 0.07488 0.87458 0.0
C903 C 0.57223 0.14309 0.827 0.0
C904 C 0.85389 0.45144 0.81948 0.0
C905 C 0.87409 0.48089 0.82896 0.0
H906 H 0.84454 0.40738 0.82176 0.0
C907 C 0.90107 0.48813 0.85057 0.0
H908 H 0.83287 0.44505 0.80298 0.0
C909 C 0.90792 0.46629 0.86126 0.0
C910 C 0.88786 0.43688 0.8506 0.0
H911 H 0.91712 0.51066 0.85811 0.0
H912 H 0.929 0.47249 0.87729 0.0
C913 C 0.86067 0.42977 0.83015 0.0
C914 C 0.5345 0.43842 0.8611 0.0
C915 C 0.56382 0.44727 0.85046 0.0
H916 H 0.48981 0.40399 0.85721 0.0
C917 C 0.5704 0.42696 0.82937 0.0
H918 H 0.5287 0.45349 0.8776 0.0
C919 C 0.54831 0.39882 0.81796 0.0
C920 C 0.51896 0.39012 0.82737 0.0
H921 H 0.5927 0.43285 0.82098 0.0
H922 H 0.55429 0.38402 0.80094 0.0
C923 C 0.51225 0.41005 0.84969 0.0
C924 C 0.56743 0.74252 0.68509 0.0
C925 C 0.54051 0.72248 0.66366 0.0
H926 H 0.59477 0.78611 0.71212 0.0
C927 C 0.51973 0.73111 0.65522 0.0
H928 H 0.58391 0.73651 0.69185 0.0
C929 C 0.52591 0.7593 0.66654 0.0
C930 C 0.55309 0.77973 0.68659 0.0
H931 H 0.49873 0.71622 0.63894 0.0
H932 H 0.50938 0.76512 0.65885 0.0
C933 C 0.57369 0.77095 0.69641 0.0
C934 C 0.23723 0.76063 0.66059 0.0
C935 C 0.21735 0.76793 0.68132 0.0
H936 H 0.28026 0.77561 0.63339 0.0
C937 C 0.22701 0.79736 0.69241 0.0
H938 H 0.23071 0.73821 0.65187 0.0
C939 C 0.25579 0.81902 0.6819 0.0
C940 C 0.27535 0.8116 0.66007 0.0
H941 H 0.21229 0.80371 0.70867 0.0
H942 H 0.26251 0.84157 0.68982 0.0
C943 C 0.26578 0.78214 0.65011 0.0
C944 C 0.23862 0.47529 0.6603 0.0
C945 C 0.23185 0.44833 0.68132 0.0
H946 H 0.22284 0.50257 0.63266 0.0
C947 C 0.20252 0.42815 0.69247 0.0
H948 H 0.26094 0.49149 0.65156 0.0
C949 C 0.18044 0.43464 0.68167 0.0
C950 C 0.18734 0.4614 0.65954 0.0
H951 H 0.19658 0.40725 0.70892 0.0
H952 H 0.15799 0.41849 0.6896 0.0
C953 C 0.2167 0.48172 0.64959 0.0
C954 C 0.4032 0.85337 0.16358 0.0
C955 C 0.39405 0.87361 0.15371 0.0
H956 H 0.43785 0.84387 0.16191 0.0
C957 C 0.41392 0.90052 0.13205 0.0
H958 H 0.38848 0.8324 0.18016 0.0
C959 C 0.4426 0.90723 0.12161 0.0
C960 C 0.45185 0.88713 0.13269 0.0
H961 H 0.40753 0.91661 0.12421 0.0
H962 H 0.45757 0.92825 0.10551 0.0
C963 C 0.43166 0.86002 0.15325 0.0
C964 C 0.09635 0.53698 0.11999 0.0
C965 C 0.11636 0.56637 0.13091 0.0
H966 H 0.08716 0.49262 0.12287 0.0
C967 C 0.14348 0.57344 0.15163 0.0
H968 H 0.07532 0.53082 0.10376 0.0
C969 C 0.15023 0.55175 0.16229 0.0
C970 C 0.13009 0.52233 0.1525 0.0
H971 H 0.15956 0.59582 0.16023 0.0
H972 H 0.1712 0.5581 0.17899 0.0
C973 C 0.10318 0.51513 0.13066 0.0
C974 C 0.45462 0.60298 0.16213 0.0
C975 C 0.48402 0.61184 0.15298 0.0
H976 H 0.41031 0.56879 0.15892 0.0
C977 C 0.49094 0.59199 0.13087 0.0
H978 H 0.44849 0.61772 0.17897 0.0
C979 C 0.46882 0.56355 0.11945 0.0
C980 C 0.43945 0.55456 0.12987 0.0
H981 H 0.51342 0.59816 0.12355 0.0
H982 H 0.47477 0.54856 0.10314 0.0
C983 C 0.43266 0.57479 0.15071 0.0
C984 C 0.14775 0.59846 0.66351 0.0
C985 C 0.12746 0.60745 0.65289 0.0
H986 H 0.1577 0.56414 0.6619 0.0
C987 C 0.10093 0.58763 0.63008 0.0
H988 H 0.16844 0.61316 0.68098 0.0
C989 C 0.09463 0.55914 0.6192 0.0
C990 C 0.11479 0.55006 0.6309 0.0
H991 H 0.08481 0.5939 0.62163 0.0
H992 H 0.07389 0.5442 0.60216 0.0
C993 C 0.14153 0.57021 0.65267 0.0
C994 C 0.41275 0.51134 0.62898 0.0
C995 C 0.39296 0.51878 0.64976 0.0
H996 H 0.45646 0.52671 0.60318 0.0
C997 C 0.40222 0.54831 0.6584 0.0
H998 H 0.40626 0.48875 0.62209 0.0
C999 C 0.43075 0.56985 0.64794 0.0
C1000 C 0.45091 0.56254 0.62849 0.0
H1001 H 0.38755 0.55486 0.67421 0.0
H1002 H 0.43704 0.59231 0.65574 0.0
C1003 C 0.44151 0.53306 0.61844 0.0
C1004 C 0.46608 0.90197 0.62298 0.0
C1005 C 0.43667 0.88181 0.63357 0.0
H1006 H 0.51056 0.91153 0.62672 0.0
C1007 C 0.4297 0.85479 0.65453 0.0
H1008 H 0.47218 0.92293 0.60657 0.0
C1009 C 0.45152 0.84829 0.66581 0.0
C1010 C 0.48095 0.8686 0.65638 0.0
H1011 H 0.40731 0.8386 0.66289 0.0
H1012 H 0.44525 0.82741 0.68272 0.0
C1013 C 0.48804 0.89539 0.63424 0.0
C1014 C 0.24073 0.47888 0.15972 0.0
C1015 C 0.22061 0.45176 0.18029 0.0
H1016 H 0.28381 0.50647 0.13227 0.0
C1017 C 0.22987 0.43161 0.19091 0.0
H1018 H 0.23452 0.49506 0.15136 0.0
C1019 C 0.25849 0.43831 0.18006 0.0
C1020 C 0.27828 0.46521 0.15833 0.0
H1021 H 0.21495 0.41058 0.20702 0.0
H1022 H 0.26488 0.42218 0.18759 0.0
C1023 C 0.26913 0.4855 0.14888 0.0
C1024 C 0.52126 0.78697 0.15742 0.0
C1025 C 0.54186 0.81643 0.16575 0.0
H1026 H 0.51146 0.74277 0.16034 0.0
C1027 C 0.56906 0.82356 0.1863 0.0
H1028 H 0.50005 0.78065 0.1418 0.0
C1029 C 0.57576 0.80161 0.19687 0.0
C1030 C 0.55533 0.77218 0.18709 0.0
H1031 H 0.58543 0.8461 0.19295 0.0
H1032 H 0.59704 0.80772 0.21191 0.0
C1033 C 0.52788 0.76517 0.16793 0.0
C1034 C 0.18118 0.7468 0.18209 0.0
C1035 C 0.18786 0.72709 0.15881 0.0
H1036 H 0.19761 0.79011 0.21061 0.0
C1037 C 0.21713 0.73615 0.14785 0.0
H1038 H 0.15881 0.74048 0.19081 0.0
C1039 C 0.23917 0.76437 0.15889 0.0
C1040 C 0.23261 0.78441 0.18119 0.0
H1041 H 0.22309 0.72154 0.13 0.0
H1042 H 0.26141 0.77051 0.14941 0.0
C1043 C 0.20338 0.77525 0.19317 0.0
C1044 C 0.25058 0.24533 0.2167 0.0
C1045 C 0.2301 0.21997 0.19167 0.0
H1046 H 0.26166 0.26968 0.28502 0.0
C1047 C 0.20517 0.1992 0.21712 0.0
H1048 H 0.26992 0.26171 0.19773 0.0
C1049 C 0.20076 0.20346 0.26657 0.0
C1050 C 0.22087 0.22888 0.29167 0.0
H1051 H 0.18908 0.17936 0.19891 0.0
H1052 H 0.18129 0.18688 0.28501 0.0
C1053 C 0.24578 0.24995 0.26633 0.0
C1054 C 0.79903 0.00504 0.21595 0.0
C1055 C 0.77862 0.00982 0.19065 0.0
H1056 H 0.81092 0.99289 0.28367 0.0
C1057 C 0.75342 0.00539 0.21573 0.0
H1058 H 0.81874 0.00842 0.19769 0.0
C1059 C 0.7486 0.99583 0.2653 0.0
C1060 C 0.76936 0.99143 0.2905 0.0
H1061 H 0.73732 0.00885 0.19686 0.0
H1062 H 0.72901 0.99234 0.28407 0.0
C1063 C 0.7946 0.99625 0.26532 0.0
C1064 C 0.00645 0.80305 0.26346 0.0
C1065 C 0.01097 0.78246 0.28871 0.0
H1066 H 0.99464 0.81524 0.19568 0.0
C1067 C 0.00645 0.75728 0.26349 0.0
H1068 H 0.0099 0.82274 0.28183 0.0
C1069 C 0.99707 0.75267 0.21386 0.0
C1070 C 0.9929 0.77357 0.1887 0.0
H1071 H 0.0097 0.74104 0.2823 0.0
H1072 H 0.99352 0.73309 0.19501 0.0
C1073 C 0.99781 0.7988 0.21399 0.0
C1074 C 0.79719 0.80248 0.76321 0.0
C1075 C 0.77218 0.78186 0.78866 0.0
H1076 H 0.82111 0.81457 0.69535 0.0
C1077 C 0.7516 0.75653 0.76369 0.0
H1078 H 0.81336 0.82229 0.78138 0.0
C1079 C 0.75636 0.75179 0.7141 0.0
C1080 C 0.78135 0.77272 0.68876 0.0
H1081 H 0.73218 0.74027 0.78266 0.0
H1082 H 0.7404 0.73209 0.69545 0.0
C1083 C 0.80158 0.79811 0.7138 0.0
C1084 C 0.20777 0.00551 0.71551 0.0
C1085 C 0.23293 0.01018 0.69022 0.0
H1086 H 0.18377 0.99356 0.78328 0.0
C1087 C 0.25367 0.00573 0.71536 0.0
H1088 H 0.19147 0.0089 0.69721 0.0
C1089 C 0.24893 0.99627 0.76498 0.0
C1090 C 0.22381 0.99199 0.79017 0.0
H1091 H 0.2732 0.0091 0.6965 0.0
H1092 H 0.26501 0.99278 0.7838 0.0
C1093 C 0.20341 0.99682 0.76494 0.0
C1094 C 0.99569 0.19854 0.71784 0.0
C1095 C 0.99124 0.21908 0.69229 0.0
H1096 H 0.0075 0.18656 0.78583 0.0
C1097 C 0.99586 0.24439 0.71719 0.0
H1098 H 0.99216 0.17876 0.69972 0.0
C1099 C 0.00529 0.24918 0.7668 0.0
C1100 C 0.00941 0.22832 0.79225 0.0
H1101 H 0.99266 0.2606 0.69813 0.0
H1102 H 0.00893 0.26886 0.78539 0.0
C1103 C 0.00438 0.20296 0.76729 0.0
C1104 C 0.87251 0.53364 0.55063 0.0
C1105 C 0.8975 0.55448 0.5254 0.0
H1106 H 0.84854 0.5211 0.61843 0.0
C1107 C 0.91795 0.57974 0.55066 0.0
H1108 H 0.85644 0.51388 0.53222 0.0
C1109 C 0.91309 0.5842 0.60035 0.0
C1110 C 0.88814 0.56304 0.62548 0.0
H1111 H 0.93734 0.59617 0.53185 0.0
H1112 H 0.92896 0.60385 0.61923 0.0
C1113 C 0.86804 0.53773 0.60014 0.0
C1114 C 0.42051 0.33835 0.54761 0.0
C1115 C 0.44577 0.34288 0.52261 0.0
H1116 H 0.39598 0.32509 0.61581 0.0
C1117 C 0.46613 0.33802 0.54789 0.0
H1118 H 0.40445 0.34186 0.52876 0.0
C1119 C 0.46161 0.32907 0.59719 0.0
C1120 C 0.43633 0.32418 0.6223 0.0
H1121 H 0.48588 0.34146 0.5297 0.0
H1122 H 0.4779 0.32567 0.61554 0.0
C1123 C 0.41561 0.32864 0.5971 0.0
C1124 C 0.67306 0.0909 0.5972 0.0
C1125 C 0.67757 0.11602 0.6226 0.0
H1126 H 0.66016 0.06685 0.52856 0.0
C1127 C 0.67303 0.13665 0.59752 0.0
H1128 H 0.67632 0.07463 0.61587 0.0
C1129 C 0.66438 0.13249 0.54805 0.0
C1130 C 0.6595 0.10733 0.52257 0.0
H1131 H 0.67646 0.1563 0.61601 0.0
H1132 H 0.66121 0.14896 0.52987 0.0
C1133 C 0.66368 0.08638 0.54755 0.0
C1134 C 0.41779 0.08937 0.09605 0.0
C1135 C 0.43848 0.11479 0.12069 0.0
H1136 H 0.40639 0.06463 0.02812 0.0
C1137 C 0.46345 0.13526 0.09498 0.0
H1138 H 0.39841 0.07323 0.11524 0.0
C1139 C 0.4677 0.13065 0.04562 0.0
C1140 C 0.44738 0.10517 0.02091 0.0
H1141 H 0.47971 0.15512 0.1129 0.0
H1142 H 0.48722 0.14699 0.02695 0.0
C1143 C 0.42243 0.08439 0.04652 0.0
C1144 C 0.91571 0.33026 0.09982 0.0
C1145 C 0.89063 0.32607 0.12504 0.0
H1146 H 0.93985 0.34282 0.03121 0.0
C1147 C 0.87019 0.3308 0.09974 0.0
H1148 H 0.93183 0.32684 0.11869 0.0
C1149 C 0.87446 0.3393 0.05022 0.0
C1150 C 0.89957 0.34386 0.02489 0.0
H1151 H 0.85058 0.3276 0.11811 0.0
H1152 H 0.85812 0.34261 0.03186 0.0
C1153 C 0.92036 0.33952 0.0501 0.0
C1154 C 0.67117 0.53617 0.10058 0.0
C1155 C 0.67628 0.5617 0.12509 0.0
H1156 H 0.65876 0.51155 0.03347 0.0
C1157 C 0.67212 0.5824 0.09923 0.0
H1158 H 0.67432 0.51987 0.11944 0.0
C1159 C 0.66257 0.57732 0.04968 0.0
C1160 C 0.65786 0.55185 0.02525 0.0
H1161 H 0.67583 0.60221 0.11745 0.0
H1162 H 0.65935 0.59342 0.0303 0.0
C1163 C 0.66235 0.53145 0.05121 0.0
C1164 C 0.53532 0.87017 0.93545 0.0
C1165 C 0.55575 0.89588 0.95949 0.0
H1166 H 0.52301 0.84509 0.86882 0.0
C1167 C 0.58059 0.91641 0.93334 0.0
H1168 H 0.51589 0.854 0.95455 0.0
C1169 C 0.58499 0.91099 0.88395 0.0
C1170 C 0.56419 0.88535 0.85998 0.0
H1171 H 0.59671 0.93635 0.95121 0.0
H1172 H 0.60428 0.92697 0.86433 0.0
C1173 C 0.53934 0.86511 0.88623 0.0
C1174 C 0.12885 0.66294 0.93062 0.0
C1175 C 0.10392 0.65866 0.95622 0.0
H1176 H 0.15239 0.67415 0.8624 0.0
C1177 C 0.08309 0.66299 0.93114 0.0
H1178 H 0.14521 0.65961 0.94888 0.0
C1179 C 0.08753 0.67198 0.88126 0.0
C1180 C 0.11243 0.67589 0.85578 0.0
H1181 H 0.06373 0.65991 0.95022 0.0
H1182 H 0.07139 0.67541 0.8625 0.0
C1183 C 0.1329 0.67116 0.88096 0.0
C1184 C 0.34078 0.46992 0.92925 0.0
C1185 C 0.34549 0.44965 0.95518 0.0
H1186 H 0.32848 0.48126 0.86112 0.0
C1187 C 0.34082 0.42418 0.93082 0.0
H1188 H 0.34433 0.48982 0.94695 0.0
C1189 C 0.33109 0.41896 0.88137 0.0
C1190 C 0.32671 0.43953 0.85554 0.0
H1191 H 0.3442 0.40817 0.95018 0.0
H1192 H 0.32743 0.39915 0.8632 0.0
C1193 C 0.33179 0.46506 0.87996 0.0
C1194 C 0.08534 0.42222 0.42959 0.0
C1195 C 0.10581 0.44726 0.45533 0.0
H1196 H 0.07443 0.39854 0.36058 0.0
C1197 C 0.13096 0.46814 0.4305 0.0
H1198 H 0.06583 0.40576 0.44807 0.0
C1199 C 0.13556 0.46431 0.38093 0.0
C1200 C 0.11543 0.43923 0.35511 0.0
H1201 H 0.14706 0.48775 0.44926 0.0
H1202 H 0.15518 0.48097 0.36295 0.0
C1203 C 0.09033 0.41802 0.37984 0.0
C1204 C 0.54131 0.67247 0.38367 0.0
C1205 C 0.56634 0.67704 0.35807 0.0
H1206 H 0.51725 0.65998 0.45137 0.0
C1207 C 0.58682 0.67192 0.38256 0.0
H1208 H 0.52522 0.67638 0.36585 0.0
C1209 C 0.58192 0.66185 0.43183 0.0
C1210 C 0.55691 0.65762 0.45734 0.0
H1211 H 0.60624 0.67519 0.36343 0.0
H1212 H 0.59778 0.65781 0.45014 0.0
C1213 C 0.5368 0.66317 0.43278 0.0
C1214 C 0.33102 0.91158 0.38371 0.0
C1215 C 0.32637 0.88657 0.35778 0.0
H1216 H 0.34391 0.93514 0.45283 0.0
C1217 C 0.33064 0.86563 0.38239 0.0
H1218 H 0.32796 0.92808 0.36542 0.0
C1219 C 0.33916 0.86938 0.43191 0.0
C1220 C 0.34418 0.89443 0.45792 0.0
H1221 H 0.32709 0.84605 0.36347 0.0
H1222 H 0.34212 0.85268 0.44971 0.0
C1223 C 0.34027 0.91569 0.43342 0.0
loop_
_geom_bond_atom_site_label_1
_geom_bond_atom_site_label_2
_geom_bond_distance
_geom_bond_site_symmetry_2
_ccdc_geom_bond_type
O0 Cd1 2.223 . S
O0 C8 1.315 . S
Cd1 O0 2.223 . S
Cd1 O4 2.297 1_554 S
Cd1 O5 2.439 1_554 S
Cd1 O11 2.240 . S
Cd2 O3 2.240 . S
Cd2 O10 2.223 . S
Cd2 O12 2.297 . S
Cd2 O13 2.439 . S
O3 Cd2 2.240 . S
O3 C8 1.279 . S
O4 Cd1 2.297 1_556 S
O4 C6 1.247 . S
O5 Cd1 2.439 1_556 S
O5 C6 1.208 . S
C6 O4 1.247 . S
C6 O5 1.208 . S
C7 O12 1.247 . S
C7 O13 1.208 . S
C8 O0 1.315 . S
C8 O3 1.279 . S
C9 O10 1.315 . S
C9 O11 1.279 . S
O10 Cd2 2.223 . S
O10 C9 1.315 . S
O11 Cd1 2.240 . S
O11 C9 1.279 . S
O12 Cd2 2.297 . S
O12 C7 1.247 . S
O13 Cd2 2.439 . S
O13 C7 1.208 . S
O14 Cd15 2.223 . S
O14 C22 1.315 . S
Cd15 O14 2.223 . S
Cd15 O18 2.297 1_554 S
Cd15 O19 2.439 1_554 S
Cd15 O25 2.240 1_545 S
Cd16 O17 2.240 1_565 S
Cd16 O24 2.223 1_565 S
Cd16 O26 2.297 . S
Cd16 O27 2.439 . S
O17 Cd16 2.240 1_545 S
O17 C22 1.279 . S
O18 Cd15 2.297 1_556 S
O18 C20 1.247 . S
O19 Cd15 2.439 1_556 S
O19 C20 1.208 . S
C20 O18 1.247 . S
C20 O19 1.208 . S
C21 O26 1.247 . S
C21 O27 1.208 . S
C22 O14 1.315 . S
C22 O17 1.279 . S
C23 O24 1.315 . S
C23 O25 1.279 1_545 S
O24 Cd16 2.223 1_545 S
O24 C23 1.315 . S
O25 Cd15 2.240 1_565 S
O25 C23 1.279 1_565 S
O26 Cd16 2.297 . S
O26 C21 1.247 . S
O27 Cd16 2.439 . S
O27 C21 1.208 . S
O28 Cd29 2.223 . S
O28 C36 1.315 . S
Cd29 O28 2.223 . S
Cd29 O32 2.297 1_554 S
Cd29 O33 2.439 1_554 S
Cd29 O39 2.240 1_655 S
Cd30 O31 2.240 1_455 S
Cd30 O38 2.223 1_455 S
Cd30 O40 2.297 . S
Cd30 O41 2.439 . S
O31 Cd30 2.240 1_655 S
O31 C36 1.279 . S
O32 Cd29 2.297 1_556 S
O32 C34 1.247 . S
O33 Cd29 2.439 1_556 S
O33 C34 1.208 . S
C34 O32 1.247 . S
C34 O33 1.208 . S
C35 O40 1.247 . S
C35 O41 1.208 . S
C36 O28 1.315 . S
C36 O31 1.279 . S
C37 O38 1.315 . S
C37 O39 1.279 1_655 S
O38 Cd30 2.223 1_655 S
O38 C37 1.315 . S
O39 Cd29 2.240 1_455 S
O39 C37 1.279 1_455 S
O40 Cd30 2.297 . S
O40 C35 1.247 . S
O41 Cd30 2.439 . S
O41 C35 1.208 . S
O42 Cd43 2.223 . S
O42 C50 1.315 . S
Cd43 O42 2.223 . S
Cd43 O46 2.297 . S
Cd43 O47 2.439 . S
Cd43 O53 2.240 . S
Cd44 O45 2.240 . S
Cd44 O52 2.223 . S
Cd44 O54 2.297 . S
Cd44 O55 2.439 . S
O45 Cd44 2.240 . S
O45 C50 1.279 . S
O46 Cd43 2.297 . S
O46 C48 1.247 . S
O47 Cd43 2.439 . S
O47 C48 1.208 . S
C48 O46 1.247 . S
C48 O47 1.208 . S
C49 O54 1.247 . S
C49 O55 1.208 . S
C50 O42 1.315 . S
C50 O45 1.279 . S
C51 O52 1.315 . S
C51 O53 1.279 . S
O52 Cd44 2.223 . S
O52 C51 1.315 . S
O53 Cd43 2.240 . S
O53 C51 1.279 . S
O54 Cd44 2.297 . S
O54 C49 1.247 . S
O55 Cd44 2.439 . S
O55 C49 1.208 . S
O56 Cd57 2.223 . S
O56 C64 1.315 . S
Cd57 O56 2.223 . S
Cd57 O60 2.297 . S
Cd57 O61 2.439 . S
Cd57 O67 2.240 1_565 S
Cd58 O59 2.240 1_545 S
Cd58 O66 2.223 1_545 S
Cd58 O68 2.297 . S
Cd58 O69 2.439 . S
O59 Cd58 2.240 1_565 S
O59 C64 1.279 . S
O60 Cd57 2.297 . S
O60 C62 1.247 . S
O61 Cd57 2.439 . S
O61 C62 1.208 . S
C62 O60 1.247 . S
C62 O61 1.208 . S
C63 O68 1.247 . S
C63 O69 1.208 . S
C64 O56 1.315 . S
C64 O59 1.279 . S
C65 O66 1.315 . S
C65 O67 1.279 1_565 S
O66 Cd58 2.223 1_565 S
O66 C65 1.315 . S
O67 Cd57 2.240 1_545 S
O67 C65 1.279 1_545 S
O68 Cd58 2.297 . S
O68 C63 1.247 . S
O69 Cd58 2.439 . S
O69 C63 1.208 . S
O70 Cd71 2.223 . S
O70 C78 1.315 . S
Cd71 O70 2.223 . S
Cd71 O74 2.297 . S
Cd71 O75 2.439 . S
Cd71 O81 2.240 1_455 S
Cd72 O73 2.240 1_655 S
Cd72 O80 2.223 1_655 S
Cd72 O82 2.297 . S
Cd72 O83 2.439 . S
O73 Cd72 2.240 1_455 S
O73 C78 1.279 . S
O74 Cd71 2.297 . S
O74 C76 1.247 . S
O75 Cd71 2.439 . S
O75 C76 1.208 . S
C76 O74 1.247 . S
C76 O75 1.208 . S
C77 O82 1.247 . S
C77 O83 1.208 . S
C78 O70 1.315 . S
C78 O73 1.279 . S
C79 O80 1.315 . S
C79 O81 1.279 1_455 S
O80 Cd72 2.223 1_455 S
O80 C79 1.315 . S
O81 Cd71 2.240 1_655 S
O81 C79 1.279 1_655 S
O82 Cd72 2.297 . S
O82 C77 1.247 . S
O83 Cd72 2.439 . S
O83 C77 1.208 . S
O84 Cd85 2.223 . S
O84 C92 1.315 . S
Cd85 O84 2.223 . S
Cd85 O88 2.297 1_556 S
Cd85 O89 2.439 1_556 S
Cd85 O95 2.240 . S
Cd86 O87 2.240 . S
Cd86 O94 2.223 . S
Cd86 O96 2.297 . S
Cd86 O97 2.439 . S
O87 Cd86 2.240 . S
O87 C92 1.279 . S
O88 Cd85 2.297 1_554 S
O88 C90 1.247 . S
O89 Cd85 2.439 1_554 S
O89 C90 1.208 . S
C90 O88 1.247 . S
C90 O89 1.208 . S
C91 O96 1.247 . S
C91 O97 1.208 . S
C92 O84 1.315 . S
C92 O87 1.279 . S
C93 O94 1.315 . S
C93 O95 1.279 . S
O94 Cd86 2.223 . S
O94 C93 1.315 . S
O95 Cd85 2.240 . S
O95 C93 1.279 . S
O96 Cd86 2.297 . S
O96 C91 1.247 . S
O97 Cd86 2.439 . S
O97 C91 1.208 . S
O98 Cd99 2.223 . S
O98 C106 1.315 . S
Cd99 O98 2.223 . S
Cd99 O102 2.297 1_556 S
Cd99 O103 2.439 1_556 S
Cd99 O109 2.240 1_565 S
Cd100 O101 2.240 1_545 S
Cd100 O108 2.223 1_545 S
Cd100 O110 2.297 . S
Cd100 O111 2.439 . S
O101 Cd100 2.240 1_565 S
O101 C106 1.279 . S
O102 Cd99 2.297 1_554 S
O102 C104 1.247 . S
O103 Cd99 2.439 1_554 S
O103 C104 1.208 . S
C104 O102 1.247 . S
C104 O103 1.208 . S
C105 O110 1.247 . S
C105 O111 1.208 . S
C106 O98 1.315 . S
C106 O101 1.279 . S
C107 O108 1.315 . S
C107 O109 1.279 1_565 S
O108 Cd100 2.223 1_565 S
O108 C107 1.315 . S
O109 Cd99 2.240 1_545 S
O109 C107 1.279 1_545 S
O110 Cd100 2.297 . S
O110 C105 1.247 . S
O111 Cd100 2.439 . S
O111 C105 1.208 . S
O112 Cd113 2.223 . S
O112 C120 1.315 . S
Cd113 O112 2.223 . S
Cd113 O116 2.297 1_556 S
Cd113 O117 2.439 1_556 S
Cd113 O123 2.240 1_455 S
Cd114 O115 2.240 1_655 S
Cd114 O122 2.223 1_655 S
Cd114 O124 2.297 . S
Cd114 O125 2.439 . S
O115 Cd114 2.240 1_455 S
O115 C120 1.279 . S
O116 Cd113 2.297 1_554 S
O116 C118 1.247 . S
O117 Cd113 2.439 1_554 S
O117 C118 1.208 . S
C118 O116 1.247 . S
C118 O117 1.208 . S
C119 O124 1.247 . S
C119 O125 1.208 . S
C120 O112 1.315 . S
C120 O115 1.279 . S
C121 O122 1.315 . S
C121 O123 1.279 1_455 S
O122 Cd114 2.223 1_455 S
O122 C121 1.315 . S
O123 Cd113 2.240 1_655 S
O123 C121 1.279 1_655 S
O124 Cd114 2.297 . S
O124 C119 1.247 . S
O125 Cd114 2.439 . S
O125 C119 1.208 . S
O126 Cd127 2.223 . S
O126 C134 1.315 . S
Cd127 O126 2.223 . S
Cd127 O130 2.297 . S
Cd127 O131 2.439 . S
Cd127 O137 2.240 . S
Cd128 O129 2.240 . S
Cd128 O136 2.223 . S
Cd128 O138 2.297 . S
Cd128 O139 2.439 . S
O129 Cd128 2.240 . S
O129 C134 1.279 . S
O130 Cd127 2.297 . S
O130 C132 1.247 . S
O131 Cd127 2.439 . S
O131 C132 1.208 . S
C132 O130 1.247 . S
C132 O131 1.208 . S
C133 O138 1.247 . S
C133 O139 1.208 . S
C134 O126 1.315 . S
C134 O129 1.279 . S
C135 O136 1.315 . S
C135 O137 1.279 . S
O136 Cd128 2.223 . S
O136 C135 1.315 . S
O137 Cd127 2.240 . S
O137 C135 1.279 . S
O138 Cd128 2.297 . S
O138 C133 1.247 . S
O139 Cd128 2.439 . S
O139 C133 1.208 . S
O140 Cd141 2.223 . S
O140 C148 1.315 . S
Cd141 O140 2.223 . S
Cd141 O144 2.297 . S
Cd141 O145 2.439 . S
Cd141 O151 2.240 1_545 S
Cd142 O143 2.240 1_565 S
Cd142 O150 2.223 1_565 S
Cd142 O152 2.297 . S
Cd142 O153 2.439 . S
O143 Cd142 2.240 1_545 S
O143 C148 1.279 . S
O144 Cd141 2.297 . S
O144 C146 1.247 . S
O145 Cd141 2.439 . S
O145 C146 1.208 . S
C146 O144 1.247 . S
C146 O145 1.208 . S
C147 O152 1.247 . S
C147 O153 1.208 . S
C148 O140 1.315 . S
C148 O143 1.279 . S
C149 O150 1.315 . S
C149 O151 1.279 1_545 S
O150 Cd142 2.223 1_545 S
O150 C149 1.315 . S
O151 Cd141 2.240 1_565 S
O151 C149 1.279 1_565 S
O152 Cd142 2.297 . S
O152 C147 1.247 . S
O153 Cd142 2.439 . S
O153 C147 1.208 . S
O154 Cd155 2.223 . S
O154 C162 1.315 . S
Cd155 O154 2.223 . S
Cd155 O158 2.297 . S
Cd155 O159 2.439 . S
Cd155 O165 2.240 1_655 S
Cd156 O157 2.240 1_455 S
Cd156 O164 2.223 1_455 S
Cd156 O166 2.297 . S
Cd156 O167 2.439 . S
O157 Cd156 2.240 1_655 S
O157 C162 1.279 . S
O158 Cd155 2.297 . S
O158 C160 1.247 . S
O159 Cd155 2.439 . S
O159 C160 1.208 . S
C160 O158 1.247 . S
C160 O159 1.208 . S
C161 O166 1.247 . S
C161 O167 1.208 . S
C162 O154 1.315 . S
C162 O157 1.279 . S
C163 O164 1.315 . S
C163 O165 1.279 1_655 S
O164 Cd156 2.223 1_655 S
O164 C163 1.315 . S
O165 Cd155 2.240 1_455 S
O165 C163 1.279 1_455 S
O166 Cd156 2.297 . S
O166 C161 1.247 . S
O167 Cd156 2.439 . S
O167 C161 1.208 . S
O168 Cd169 2.223 . S
O168 C176 1.315 . S
Cd169 O168 2.223 . S
Cd169 O172 2.297 . S
Cd169 O173 2.439 . S
Cd169 O179 2.240 . S
Cd170 O171 2.240 . S
Cd170 O178 2.223 . S
Cd170 O180 2.297 . S
Cd170 O181 2.439 . S
O171 Cd170 2.240 . S
O171 C176 1.279 . S
O172 Cd169 2.297 . S
O172 C174 1.247 . S
O173 Cd169 2.439 . S
O173 C174 1.208 . S
C174 O172 1.247 . S
C174 O173 1.208 . S
C175 O180 1.247 . S
C175 O181 1.208 . S
C176 O168 1.315 . S
C176 O171 1.279 . S
C177 O178 1.315 . S
C177 O179 1.279 . S
O178 Cd170 2.223 . S
O178 C177 1.315 . S
O179 Cd169 2.240 . S
O179 C177 1.279 . S
O180 Cd170 2.297 . S
O180 C175 1.247 . S
O181 Cd170 2.439 . S
O181 C175 1.208 . S
O182 Cd183 2.223 . S
O182 C190 1.315 . S
Cd183 O182 2.223 . S
Cd183 O186 2.297 . S
Cd183 O187 2.439 . S
Cd183 O193 2.240 . S
Cd184 O185 2.240 . S
Cd184 O192 2.223 . S
Cd184 O194 2.297 . S
Cd184 O195 2.439 . S
O185 Cd184 2.240 . S
O185 C190 1.279 . S
O186 Cd183 2.297 . S
O186 C188 1.247 . S
O187 Cd183 2.439 . S
O187 C188 1.208 . S
C188 O186 1.247 . S
C188 O187 1.208 . S
C189 O194 1.247 . S
C189 O195 1.208 . S
C190 O182 1.315 . S
C190 O185 1.279 . S
C191 O192 1.315 . S
C191 O193 1.279 . S
O192 Cd184 2.223 . S
O192 C191 1.315 . S
O193 Cd183 2.240 . S
O193 C191 1.279 . S
O194 Cd184 2.297 . S
O194 C189 1.247 . S
O195 Cd184 2.439 . S
O195 C189 1.208 . S
O196 Cd197 2.223 . S
O196 C204 1.315 . S
Cd197 O196 2.223 . S
Cd197 O200 2.297 . S
Cd197 O201 2.439 . S
Cd197 O207 2.240 . S
Cd198 O199 2.240 . S
Cd198 O206 2.223 . S
Cd198 O208 2.297 . S
Cd198 O209 2.439 . S
O199 Cd198 2.240 . S
O199 C204 1.279 . S
O200 Cd197 2.297 . S
O200 C202 1.247 . S
O201 Cd197 2.439 . S
O201 C202 1.208 . S
C202 O200 1.247 . S
C202 O201 1.208 . S
C203 O208 1.247 . S
C203 O209 1.208 . S
C204 O196 1.315 . S
C204 O199 1.279 . S
C205 O206 1.315 . S
C205 O207 1.279 . S
O206 Cd198 2.223 . S
O206 C205 1.315 . S
O207 Cd197 2.240 . S
O207 C205 1.279 . S
O208 Cd198 2.297 . S
O208 C203 1.247 . S
O209 Cd198 2.439 . S
O209 C203 1.208 . S
O210 Cd211 2.223 . S
O210 C218 1.315 . S
Cd211 O210 2.223 . S
Cd211 O214 2.297 . S
Cd211 O215 2.439 . S
Cd211 O221 2.240 . S
Cd212 O213 2.240 . S
Cd212 O220 2.223 . S
Cd212 O222 2.297 . S
Cd212 O223 2.439 . S
O213 Cd212 2.240 . S
O213 C218 1.279 . S
O214 Cd211 2.297 . S
O214 C216 1.247 . S
O215 Cd211 2.439 . S
O215 C216 1.208 . S
C216 O214 1.247 . S
C216 O215 1.208 . S
C217 O222 1.247 . S
C217 O223 1.208 . S
C218 O210 1.315 . S
C218 O213 1.279 . S
C219 O220 1.315 . S
C219 O221 1.279 . S
O220 Cd212 2.223 . S
O220 C219 1.315 . S
O221 Cd211 2.240 . S
O221 C219 1.279 . S
O222 Cd212 2.297 . S
O222 C217 1.247 . S
O223 Cd212 2.439 . S
O223 C217 1.208 . S
O224 Cd225 2.223 . S
O224 C232 1.315 . S
Cd225 O224 2.223 . S
Cd225 O228 2.297 . S
Cd225 O229 2.439 . S
Cd225 O235 2.240 . S
Cd226 O227 2.240 . S
Cd226 O234 2.223 . S
Cd226 O236 2.297 . S
Cd226 O237 2.439 . S
O227 Cd226 2.240 . S
O227 C232 1.279 . S
O228 Cd225 2.297 . S
O228 C230 1.247 . S
O229 Cd225 2.439 . S
O229 C230 1.208 . S
C230 O228 1.247 . S
C230 O229 1.208 . S
C231 O236 1.247 . S
C231 O237 1.208 . S
C232 O224 1.315 . S
C232 O227 1.279 . S
C233 O234 1.315 . S
C233 O235 1.279 . S
O234 Cd226 2.223 . S
O234 C233 1.315 . S
O235 Cd225 2.240 . S
O235 C233 1.279 . S
O236 Cd226 2.297 . S
O236 C231 1.247 . S
O237 Cd226 2.439 . S
O237 C231 1.208 . S
O238 Cd239 2.223 . S
O238 C246 1.315 . S
Cd239 O238 2.223 . S
Cd239 O242 2.297 . S
Cd239 O243 2.439 . S
Cd239 O249 2.240 . S
Cd240 O241 2.240 . S
Cd240 O248 2.223 . S
Cd240 O250 2.297 . S
Cd240 O251 2.439 . S
O241 Cd240 2.240 . S
O241 C246 1.279 . S
O242 Cd239 2.297 . S
O242 C244 1.247 . S
O243 Cd239 2.439 . S
O243 C244 1.208 . S
C244 O242 1.247 . S
C244 O243 1.208 . S
C245 O250 1.247 . S
C245 O251 1.208 . S
C246 O238 1.315 . S
C246 O241 1.279 . S
C247 O248 1.315 . S
C247 O249 1.279 . S
O248 Cd240 2.223 . S
O248 C247 1.315 . S
O249 Cd239 2.240 . S
O249 C247 1.279 . S
O250 Cd240 2.297 . S
O250 C245 1.247 . S
O251 Cd240 2.439 . S
O251 C245 1.208 . S
O252 Cd253 2.223 . S
O252 C260 1.315 . S
Cd253 O252 2.223 . S
Cd253 O256 2.297 . S
Cd253 O257 2.439 . S
Cd253 O263 2.240 . S
Cd254 O255 2.240 . S
Cd254 O262 2.223 . S
Cd254 O264 2.297 . S
Cd254 O265 2.439 . S
O255 Cd254 2.240 . S
O255 C260 1.279 . S
O256 Cd253 2.297 . S
O256 C258 1.247 . S
O257 Cd253 2.439 . S
O257 C258 1.208 . S
C258 O256 1.247 . S
C258 O257 1.208 . S
C259 O264 1.247 . S
C259 O265 1.208 . S
C260 O252 1.315 . S
C260 O255 1.279 . S
C261 O262 1.315 . S
C261 O263 1.279 . S
O262 Cd254 2.223 . S
O262 C261 1.315 . S
O263 Cd253 2.240 . S
O263 C261 1.279 . S
O264 Cd254 2.297 . S
O264 C259 1.247 . S
O265 Cd254 2.439 . S
O265 C259 1.208 . S
O266 Cd267 2.223 . S
O266 C274 1.315 . S
Cd267 O266 2.223 . S
Cd267 O270 2.297 . S
Cd267 O271 2.439 . S
Cd267 O277 2.240 . S
Cd268 O269 2.240 . S
Cd268 O276 2.223 . S
Cd268 O278 2.297 . S
Cd268 O279 2.439 . S
O269 Cd268 2.240 . S
O269 C274 1.279 . S
O270 Cd267 2.297 . S
O270 C272 1.247 . S
O271 Cd267 2.439 . S
O271 C272 1.208 . S
C272 O270 1.247 . S
C272 O271 1.208 . S
C273 O278 1.247 . S
C273 O279 1.208 . S
C274 O266 1.315 . S
C274 O269 1.279 . S
C275 O276 1.315 . S
C275 O277 1.279 . S
O276 Cd268 2.223 . S
O276 C275 1.315 . S
O277 Cd267 2.240 . S
O277 C275 1.279 . S
O278 Cd268 2.297 . S
O278 C273 1.247 . S
O279 Cd268 2.439 . S
O279 C273 1.208 . S
O280 Cd281 2.223 . S
O280 C288 1.315 . S
Cd281 O280 2.223 . S
Cd281 O284 2.297 . S
Cd281 O285 2.439 . S
Cd281 O291 2.240 . S
Cd282 O283 2.240 . S
Cd282 O290 2.223 . S
Cd282 O292 2.297 . S
Cd282 O293 2.439 . S
O283 Cd282 2.240 . S
O283 C288 1.279 . S
O284 Cd281 2.297 . S
O284 C286 1.247 . S
O285 Cd281 2.439 . S
O285 C286 1.208 . S
C286 O284 1.247 . S
C286 O285 1.208 . S
C287 O292 1.247 . S
C287 O293 1.208 . S
C288 O280 1.315 . S
C288 O283 1.279 . S
C289 O290 1.315 . S
C289 O291 1.279 . S
O290 Cd282 2.223 . S
O290 C289 1.315 . S
O291 Cd281 2.240 . S
O291 C289 1.279 . S
O292 Cd282 2.297 . S
O292 C287 1.247 . S
O293 Cd282 2.439 . S
O293 C287 1.208 . S
O294 Cd295 2.223 . S
O294 C302 1.315 . S
Cd295 O294 2.223 . S
Cd295 O298 2.297 . S
Cd295 O299 2.439 . S
Cd295 O305 2.240 . S
Cd296 O297 2.240 . S
Cd296 O304 2.223 . S
Cd296 O306 2.297 . S
Cd296 O307 2.439 . S
O297 Cd296 2.240 . S
O297 C302 1.279 . S
O298 Cd295 2.297 . S
O298 C300 1.247 . S
O299 Cd295 2.439 . S
O299 C300 1.208 . S
C300 O298 1.247 . S
C300 O299 1.208 . S
C301 O306 1.247 . S
C301 O307 1.208 . S
C302 O294 1.315 . S
C302 O297 1.279 . S
C303 O304 1.315 . S
C303 O305 1.279 . S
O304 Cd296 2.223 . S
O304 C303 1.315 . S
O305 Cd295 2.240 . S
O305 C303 1.279 . S
O306 Cd296 2.297 . S
O306 C301 1.247 . S
O307 Cd296 2.439 . S
O307 C301 1.208 . S
O308 Cd309 2.223 . S
O308 C316 1.315 . S
Cd309 O308 2.223 . S
Cd309 O312 2.297 . S
Cd309 O313 2.439 . S
Cd309 O319 2.240 . S
Cd310 O311 2.240 . S
Cd310 O318 2.223 . S
Cd310 O320 2.297 . S
Cd310 O321 2.439 . S
O311 Cd310 2.240 . S
O311 C316 1.279 . S
O312 Cd309 2.297 . S
O312 C314 1.247 . S
O313 Cd309 2.439 . S
O313 C314 1.208 . S
C314 O312 1.247 . S
C314 O313 1.208 . S
C315 O320 1.247 . S
C315 O321 1.208 . S
C316 O308 1.315 . S
C316 O311 1.279 . S
C317 O318 1.315 . S
C317 O319 1.279 . S
O318 Cd310 2.223 . S
O318 C317 1.315 . S
O319 Cd309 2.240 . S
O319 C317 1.279 . S
O320 Cd310 2.297 . S
O320 C315 1.247 . S
O321 Cd310 2.439 . S
O321 C315 1.208 . S
O322 Cd323 2.223 . S
O322 C330 1.315 . S
Cd323 O322 2.223 . S
Cd323 O326 2.297 . S
Cd323 O327 2.439 . S
Cd323 O333 2.240 . S
Cd324 O325 2.240 . S
Cd324 O332 2.223 . S
Cd324 O334 2.297 . S
Cd324 O335 2.439 . S
O325 Cd324 2.240 . S
O325 C330 1.279 . S
O326 Cd323 2.297 . S
O326 C328 1.247 . S
O327 Cd323 2.439 . S
O327 C328 1.208 . S
C328 O326 1.247 . S
C328 O327 1.208 . S
C329 O334 1.247 . S
C329 O335 1.208 . S
C330 O322 1.315 . S
C330 O325 1.279 . S
C331 O332 1.315 . S
C331 O333 1.279 . S
O332 Cd324 2.223 . S
O332 C331 1.315 . S
O333 Cd323 2.240 . S
O333 C331 1.279 . S
O334 Cd324 2.297 . S
O334 C329 1.247 . S
O335 Cd324 2.439 . S
O335 C329 1.208 . S
O336 Cd337 2.223 . S
O336 C344 1.315 . S
Cd337 O336 2.223 . S
Cd337 O340 2.297 . S
Cd337 O341 2.439 . S
Cd337 O347 2.240 . S
Cd338 O339 2.240 . S
Cd338 O346 2.223 . S
Cd338 O348 2.297 . S
Cd338 O349 2.439 . S
O339 Cd338 2.240 . S
O339 C344 1.279 . S
O340 Cd337 2.297 . S
O340 C342 1.247 . S
O341 Cd337 2.439 . S
O341 C342 1.208 . S
C342 O340 1.247 . S
C342 O341 1.208 . S
C343 O348 1.247 . S
C343 O349 1.208 . S
C344 O336 1.315 . S
C344 O339 1.279 . S
C345 O346 1.315 . S
C345 O347 1.279 . S
O346 Cd338 2.223 . S
O346 C345 1.315 . S
O347 Cd337 2.240 . S
O347 C345 1.279 . S
O348 Cd338 2.297 . S
O348 C343 1.247 . S
O349 Cd338 2.439 . S
O349 C343 1.208 . S
O350 Cd351 2.223 . S
O350 C358 1.315 . S
Cd351 O350 2.223 . S
Cd351 O354 2.297 . S
Cd351 O355 2.439 . S
Cd351 O361 2.240 . S
Cd352 O353 2.240 . S
Cd352 O360 2.223 . S
Cd352 O362 2.297 . S
Cd352 O363 2.439 . S
O353 Cd352 2.240 . S
O353 C358 1.279 . S
O354 Cd351 2.297 . S
O354 C356 1.247 . S
O355 Cd351 2.439 . S
O355 C356 1.208 . S
C356 O354 1.247 . S
C356 O355 1.208 . S
C357 O362 1.247 . S
C357 O363 1.208 . S
C358 O350 1.315 . S
C358 O353 1.279 . S
C359 O360 1.315 . S
C359 O361 1.279 . S
O360 Cd352 2.223 . S
O360 C359 1.315 . S
O361 Cd351 2.240 . S
O361 C359 1.279 . S
O362 Cd352 2.297 . S
O362 C357 1.247 . S
O363 Cd352 2.439 . S
O363 C357 1.208 . S
O364 Cd365 2.223 . S
O364 C372 1.315 . S
Cd365 O364 2.223 . S
Cd365 O368 2.297 . S
Cd365 O369 2.439 . S
Cd365 O375 2.240 . S
Cd366 O367 2.240 . S
Cd366 O374 2.223 . S
Cd366 O376 2.297 . S
Cd366 O377 2.439 . S
O367 Cd366 2.240 . S
O367 C372 1.279 . S
O368 Cd365 2.297 . S
O368 C370 1.247 . S
O369 Cd365 2.439 . S
O369 C370 1.208 . S
C370 O368 1.247 . S
C370 O369 1.208 . S
C371 O376 1.247 . S
C371 O377 1.208 . S
C372 O364 1.315 . S
C372 O367 1.279 . S
C373 O374 1.315 . S
C373 O375 1.279 . S
O374 Cd366 2.223 . S
O374 C373 1.315 . S
O375 Cd365 2.240 . S
O375 C373 1.279 . S
O376 Cd366 2.297 . S
O376 C371 1.247 . S
O377 Cd366 2.439 . S
O377 C371 1.208 . S
O378 Cd379 2.223 . S
O378 C386 1.315 . S
Cd379 O378 2.223 . S
Cd379 O382 2.297 . S
Cd379 O383 2.439 . S
Cd379 O389 2.240 . S
Cd380 O381 2.240 . S
Cd380 O388 2.223 . S
Cd380 O390 2.297 . S
Cd380 O391 2.439 . S
O381 Cd380 2.240 . S
O381 C386 1.279 . S
O382 Cd379 2.297 . S
O382 C384 1.247 . S
O383 Cd379 2.439 . S
O383 C384 1.208 . S
C384 O382 1.247 . S
C384 O383 1.208 . S
C385 O390 1.247 . S
C385 O391 1.208 . S
C386 O378 1.315 . S
C386 O381 1.279 . S
C387 O388 1.315 . S
C387 O389 1.279 . S
O388 Cd380 2.223 . S
O388 C387 1.315 . S
O389 Cd379 2.240 . S
O389 C387 1.279 . S
O390 Cd380 2.297 . S
O390 C385 1.247 . S
O391 Cd380 2.439 . S
O391 C385 1.208 . S
O392 Cd393 2.223 . S
O392 C400 1.315 . S
Cd393 O392 2.223 . S
Cd393 O396 2.297 . S
Cd393 O397 2.439 . S
Cd393 O403 2.240 . S
Cd394 O395 2.240 . S
Cd394 O402 2.223 . S
Cd394 O404 2.297 . S
Cd394 O405 2.439 . S
O395 Cd394 2.240 . S
O395 C400 1.279 . S
O396 Cd393 2.297 . S
O396 C398 1.247 . S
O397 Cd393 2.439 . S
O397 C398 1.208 . S
C398 O396 1.247 . S
C398 O397 1.208 . S
C399 O404 1.247 . S
C399 O405 1.208 . S
C400 O392 1.315 . S
C400 O395 1.279 . S
C401 O402 1.315 . S
C401 O403 1.279 . S
O402 Cd394 2.223 . S
O402 C401 1.315 . S
O403 Cd393 2.240 . S
O403 C401 1.279 . S
O404 Cd394 2.297 . S
O404 C399 1.247 . S
O405 Cd394 2.439 . S
O405 C399 1.208 . S
O406 Cd407 2.223 . S
O406 C414 1.315 . S
Cd407 O406 2.223 . S
Cd407 O410 2.297 . S
Cd407 O411 2.439 . S
Cd407 O417 2.240 . S
Cd408 O409 2.240 . S
Cd408 O416 2.223 . S
Cd408 O418 2.297 . S
Cd408 O419 2.439 . S
O409 Cd408 2.240 . S
O409 C414 1.279 . S
O410 Cd407 2.297 . S
O410 C412 1.247 . S
O411 Cd407 2.439 . S
O411 C412 1.208 . S
C412 O410 1.247 . S
C412 O411 1.208 . S
C413 O418 1.247 . S
C413 O419 1.208 . S
C414 O406 1.315 . S
C414 O409 1.279 . S
C415 O416 1.315 . S
C415 O417 1.279 . S
O416 Cd408 2.223 . S
O416 C415 1.315 . S
O417 Cd407 2.240 . S
O417 C415 1.279 . S
O418 Cd408 2.297 . S
O418 C413 1.247 . S
O419 Cd408 2.439 . S
O419 C413 1.208 . S
O420 Cd421 2.223 . S
O420 C428 1.315 . S
Cd421 O420 2.223 . S
Cd421 O424 2.297 . S
Cd421 O425 2.439 . S
Cd421 O431 2.240 . S
Cd422 O423 2.240 . S
Cd422 O430 2.223 . S
Cd422 O432 2.297 . S
Cd422 O433 2.439 . S
O423 Cd422 2.240 . S
O423 C428 1.279 . S
O424 Cd421 2.297 . S
O424 C426 1.247 . S
O425 Cd421 2.439 . S
O425 C426 1.208 . S
C426 O424 1.247 . S
C426 O425 1.208 . S
C427 O432 1.247 . S
C427 O433 1.208 . S
C428 O420 1.315 . S
C428 O423 1.279 . S
C429 O430 1.315 . S
C429 O431 1.279 . S
O430 Cd422 2.223 . S
O430 C429 1.315 . S
O431 Cd421 2.240 . S
O431 C429 1.279 . S
O432 Cd422 2.297 . S
O432 C427 1.247 . S
O433 Cd422 2.439 . S
O433 C427 1.208 . S
O434 Cd435 2.223 . S
O434 C442 1.315 . S
Cd435 O434 2.223 . S
Cd435 O438 2.297 . S
Cd435 O439 2.439 . S
Cd435 O445 2.240 . S
Cd436 O437 2.240 . S
Cd436 O444 2.223 . S
Cd436 O446 2.297 . S
Cd436 O447 2.439 . S
O437 Cd436 2.240 . S
O437 C442 1.279 . S
O438 Cd435 2.297 . S
O438 C440 1.247 . S
O439 Cd435 2.439 . S
O439 C440 1.208 . S
C440 O438 1.247 . S
C440 O439 1.208 . S
C441 O446 1.247 . S
C441 O447 1.208 . S
C442 O434 1.315 . S
C442 O437 1.279 . S
C443 O444 1.315 . S
C443 O445 1.279 . S
O444 Cd436 2.223 . S
O444 C443 1.315 . S
O445 Cd435 2.240 . S
O445 C443 1.279 . S
O446 Cd436 2.297 . S
O446 C441 1.247 . S
O447 Cd436 2.439 . S
O447 C441 1.208 . S
O448 Cd449 2.223 . S
O448 C456 1.315 . S
Cd449 O448 2.223 . S
Cd449 O452 2.297 . S
Cd449 O453 2.439 . S
Cd449 O459 2.240 . S
Cd450 O451 2.240 . S
Cd450 O458 2.223 . S
Cd450 O460 2.297 . S
Cd450 O461 2.439 . S
O451 Cd450 2.240 . S
O451 C456 1.279 . S
O452 Cd449 2.297 . S
O452 C454 1.247 . S
O453 Cd449 2.439 . S
O453 C454 1.208 . S
C454 O452 1.247 . S
C454 O453 1.208 . S
C455 O460 1.247 . S
C455 O461 1.208 . S
C456 O448 1.315 . S
C456 O451 1.279 . S
C457 O458 1.315 . S
C457 O459 1.279 . S
O458 Cd450 2.223 . S
O458 C457 1.315 . S
O459 Cd449 2.240 . S
O459 C457 1.279 . S
O460 Cd450 2.297 . S
O460 C455 1.247 . S
O461 Cd450 2.439 . S
O461 C455 1.208 . S
O462 Cd463 2.223 . S
O462 C470 1.315 . S
Cd463 O462 2.223 . S
Cd463 O466 2.297 . S
Cd463 O467 2.439 . S
Cd463 O473 2.240 . S
Cd464 O465 2.240 . S
Cd464 O472 2.223 . S
Cd464 O474 2.297 . S
Cd464 O475 2.439 . S
O465 Cd464 2.240 . S
O465 C470 1.279 . S
O466 Cd463 2.297 . S
O466 C468 1.247 . S
O467 Cd463 2.439 . S
O467 C468 1.208 . S
C468 O466 1.247 . S
C468 O467 1.208 . S
C469 O474 1.247 . S
C469 O475 1.208 . S
C470 O462 1.315 . S
C470 O465 1.279 . S
C471 O472 1.315 . S
C471 O473 1.279 . S
O472 Cd464 2.223 . S
O472 C471 1.315 . S
O473 Cd463 2.240 . S
O473 C471 1.279 . S
O474 Cd464 2.297 . S
O474 C469 1.247 . S
O475 Cd464 2.439 . S
O475 C469 1.208 . S
O476 Cd477 2.223 . S
O476 C484 1.315 . S
Cd477 O476 2.223 . S
Cd477 O480 2.297 . S
Cd477 O481 2.439 . S
Cd477 O487 2.240 . S
Cd478 O479 2.240 . S
Cd478 O486 2.223 . S
Cd478 O488 2.297 . S
Cd478 O489 2.439 . S
O479 Cd478 2.240 . S
O479 C484 1.279 . S
O480 Cd477 2.297 . S
O480 C482 1.247 . S
O481 Cd477 2.439 . S
O481 C482 1.208 . S
C482 O480 1.247 . S
C482 O481 1.208 . S
C483 O488 1.247 . S
C483 O489 1.208 . S
C484 O476 1.315 . S
C484 O479 1.279 . S
C485 O486 1.315 . S
C485 O487 1.279 . S
O486 Cd478 2.223 . S
O486 C485 1.315 . S
O487 Cd477 2.240 . S
O487 C485 1.279 . S
O488 Cd478 2.297 . S
O488 C483 1.247 . S
O489 Cd478 2.439 . S
O489 C483 1.208 . S
O490 Cd491 2.223 . S
O490 C498 1.315 . S
Cd491 O490 2.223 . S
Cd491 O494 2.297 . S
Cd491 O495 2.439 . S
Cd491 O501 2.240 . S
Cd492 O493 2.240 . S
Cd492 O500 2.223 . S
Cd492 O502 2.297 . S
Cd492 O503 2.439 . S
O493 Cd492 2.240 . S
O493 C498 1.279 . S
O494 Cd491 2.297 . S
O494 C496 1.247 . S
O495 Cd491 2.439 . S
O495 C496 1.208 . S
C496 O494 1.247 . S
C496 O495 1.208 . S
C497 O502 1.247 . S
C497 O503 1.208 . S
C498 O490 1.315 . S
C498 O493 1.279 . S
C499 O500 1.315 . S
C499 O501 1.279 . S
O500 Cd492 2.223 . S
O500 C499 1.315 . S
O501 Cd491 2.240 . S
O501 C499 1.279 . S
O502 Cd492 2.297 . S
O502 C497 1.247 . S
O503 Cd492 2.439 . S
O503 C497 1.208 . S
C504 C505 1.387 . S
C504 H508 0.950 . S
C504 C513 1.390 . S
C505 C504 1.387 . S
C505 C507 1.387 . S
H506 C513 0.950 . S
C507 C505 1.387 . S
C507 C509 1.390 . S
C507 H511 0.950 . S
H508 C504 0.950 . S
C509 C507 1.390 . S
C509 C510 1.387 . S
C509 H512 0.950 . S
C510 C509 1.387 . S
C510 C513 1.387 . S
H511 C507 0.950 . S
H512 C509 0.950 . S
C513 C504 1.390 . S
C513 H506 0.950 . S
C513 C510 1.387 . S
C514 C515 1.387 . S
C514 H518 0.950 . S
C514 C523 1.390 . S
C515 C514 1.387 . S
C515 C517 1.387 . S
H516 C523 0.950 . S
C517 C515 1.387 . S
C517 C519 1.390 . S
C517 H521 0.950 . S
H518 C514 0.950 . S
C519 C517 1.390 . S
C519 C520 1.387 . S
C519 H522 0.955 . S
C520 C519 1.387 . S
C520 C523 1.387 . S
H521 C517 0.950 . S
H522 C519 0.955 . S
C523 C514 1.390 . S
C523 H516 0.950 . S
C523 C520 1.387 . S
C524 C525 1.387 . S
C524 H528 0.950 . S
C524 C533 1.390 . S
C525 C524 1.387 . S
C525 C527 1.387 . S
H526 C533 0.950 . S
C527 C525 1.387 . S
C527 C529 1.390 . S
C527 H531 0.950 . S
H528 C524 0.950 . S
C529 C527 1.390 . S
C529 C530 1.387 . S
C529 H532 0.950 . S
C530 C529 1.387 . S
C530 C533 1.387 . S
H531 C527 0.950 . S
H532 C529 0.950 . S
C533 C524 1.390 . S
C533 H526 0.950 . S
C533 C530 1.387 . S
C534 C535 1.387 . S
C534 H538 0.950 . S
C534 C543 1.390 . S
C535 C534 1.387 . S
C535 C537 1.387 . S
H536 C543 0.950 . S
C537 C535 1.387 . S
C537 C539 1.390 . S
C537 H541 0.950 . S
H538 C534 0.950 . S
C539 C537 1.390 . S
C539 C540 1.387 . S
C539 H542 0.950 . S
C540 C539 1.387 . S
C540 C543 1.387 . S
H541 C537 0.950 . S
H542 C539 0.950 . S
C543 C534 1.390 . S
C543 H536 0.950 . S
C543 C540 1.387 . S
C544 C545 1.387 . S
C544 H548 0.950 . S
C544 C553 1.390 . S
C545 C544 1.387 . S
C545 C547 1.387 . S
H546 C553 0.950 . S
C547 C545 1.387 . S
C547 C549 1.390 . S
C547 H551 0.950 . S
H548 C544 0.950 . S
C549 C547 1.390 . S
C549 C550 1.387 . S
C549 H552 0.950 . S
C550 C549 1.387 . S
C550 C553 1.387 . S
H551 C547 0.950 . S
H552 C549 0.950 . S
C553 C544 1.390 . S
C553 H546 0.950 . S
C553 C550 1.387 . S
C554 C555 1.387 . S
C554 H558 0.950 . S
C554 C563 1.390 . S
C555 C554 1.387 . S
C555 C557 1.387 . S
H556 C563 0.950 . S
C557 C555 1.387 . S
C557 C559 1.390 . S
C557 H561 0.950 . S
H558 C554 0.950 . S
C559 C557 1.390 . S
C559 C560 1.387 . S
C559 H562 0.950 . S
C560 C559 1.387 . S
C560 C563 1.387 . S
H561 C557 0.950 . S
H562 C559 0.950 . S
C563 C554 1.390 . S
C563 H556 0.950 . S
C563 C560 1.387 . S
C564 C565 1.387 . S
C564 H568 0.950 . S
C564 C573 1.390 . S
C565 C564 1.387 . S
C565 C567 1.387 . S
H566 C573 0.950 1_556 S
C567 C565 1.387 . S
C567 C569 1.390 . S
C567 H571 0.950 . S
H568 C564 0.950 . S
C569 C567 1.390 . S
C569 C570 1.387 . S
C569 H572 0.950 . S
C570 C569 1.387 . S
C570 C573 1.387 . S
H571 C567 0.950 . S
H572 C569 0.950 . S
C573 C564 1.390 . S
C573 H566 0.950 1_554 S
C573 C570 1.387 . S
C574 C575 1.387 . S
C574 H578 0.950 . S
C574 C583 1.390 . S
C575 C574 1.387 . S
C575 C577 1.387 . S
H576 C583 0.950 . S
C577 C575 1.387 . S
C577 C579 1.390 . S
C577 H581 0.950 . S
H578 C574 0.950 . S
C579 C577 1.390 . S
C579 C580 1.387 . S
C579 H582 0.950 . S
C580 C579 1.387 . S
C580 C583 1.387 . S
H581 C577 0.950 . S
H582 C579 0.950 . S
C583 C574 1.390 . S
C583 H576 0.950 . S
C583 C580 1.387 . S
C584 C585 1.387 . S
C584 H588 0.950 . S
C584 C593 1.390 . S
C585 C584 1.387 . S
C585 C587 1.387 . S
H586 C593 0.950 . S
C587 C585 1.387 . S
C587 C589 1.390 . S
C587 H591 0.950 . S
H588 C584 0.950 . S
C589 C587 1.390 . S
C589 C590 1.387 . S
C589 H592 0.950 . S
C590 C589 1.387 . S
C590 C593 1.387 . S
H591 C587 0.950 . S
H592 C589 0.950 . S
C593 C584 1.390 . S
C593 H586 0.950 . S
C593 C590 1.387 . S
C594 C595 1.387 . S
C594 H598 0.950 . S
C594 C603 1.390 . S
C595 C594 1.387 . S
C595 C597 1.387 . S
H596 C603 0.950 . S
C597 C595 1.387 . S
C597 C599 1.390 . S
C597 H601 0.950 . S
H598 C594 0.950 . S
C599 C597 1.390 . S
C599 C600 1.387 . S
C599 H602 0.950 . S
C600 C599 1.387 . S
C600 C603 1.387 . S
H601 C597 0.950 . S
H602 C599 0.950 . S
C603 C594 1.390 . S
C603 H596 0.950 . S
C603 C600 1.387 . S
C604 C605 1.387 . S
C604 H608 0.950 . S
C604 C613 1.390 . S
C605 C604 1.387 . S
C605 C607 1.387 . S
H606 C613 0.950 . S
C607 C605 1.387 . S
C607 C609 1.390 . S
C607 H611 0.950 . S
H608 C604 0.950 . S
C609 C607 1.390 . S
C609 C610 1.387 . S
C609 H612 0.950 . S
C610 C609 1.387 . S
C610 C613 1.387 . S
H611 C607 0.950 . S
H612 C609 0.950 . S
C613 C604 1.390 . S
C613 H606 0.950 . S
C613 C610 1.387 . S
C614 C615 1.387 . S
C614 H618 0.950 . S
C614 C623 1.390 . S
C615 C614 1.387 . S
C615 C617 1.387 . S
H616 C623 0.950 . S
C617 C615 1.387 . S
C617 C619 1.390 . S
C617 H621 0.950 . S
H618 C614 0.950 . S
C619 C617 1.390 . S
C619 C620 1.387 . S
C619 H622 0.950 . S
C620 C619 1.387 . S
C620 C623 1.387 . S
H621 C617 0.950 . S
H622 C619 0.950 . S
C623 C614 1.390 . S
C623 H616 0.950 . S
C623 C620 1.387 . S
C624 C625 1.387 . S
C624 H628 0.950 . S
C624 C633 1.390 1_455 S
C625 C624 1.387 . S
C625 C627 1.387 . S
H626 C633 0.950 . S
C627 C625 1.387 . S
C627 C629 1.390 1_455 S
C627 H631 0.950 . S
H628 C624 0.950 . S
C629 C627 1.390 1_655 S
C629 C630 1.387 . S
C629 H632 0.950 . S
C630 C629 1.387 . S
C630 C633 1.387 . S
H631 C627 0.950 . S
H632 C629 0.950 . S
C633 C624 1.390 1_655 S
C633 H626 0.950 . S
C633 C630 1.387 . S
C634 C635 1.387 . S
C634 H638 0.950 . S
C634 C643 1.390 . S
C635 C634 1.387 . S
C635 C637 1.387 . S
H636 C643 0.950 . S
C637 C635 1.387 . S
C637 C639 1.390 . S
C637 H641 0.950 . S
H638 C634 0.950 . S
C639 C637 1.390 . S
C639 C640 1.387 . S
C639 H642 0.950 . S
C640 C639 1.387 . S
C640 C643 1.387 . S
H641 C637 0.950 . S
H642 C639 0.950 . S
C643 C634 1.390 . S
C643 H636 0.950 . S
C643 C640 1.387 . S
C644 C645 1.387 . S
C644 H648 0.950 . S
C644 C653 1.390 1_565 S
C645 C644 1.387 . S
C645 C647 1.387 . S
H646 C653 0.950 . S
C647 C645 1.387 . S
C647 C649 1.390 1_565 S
C647 H651 0.950 . S
H648 C644 0.950 . S
C649 C647 1.390 1_545 S
C649 C650 1.387 . S
C649 H652 0.950 . S
C650 C649 1.387 . S
C650 C653 1.387 . S
H651 C647 0.950 . S
H652 C649 0.950 . S
C653 C644 1.390 1_545 S
C653 H646 0.950 . S
C653 C650 1.387 . S
C654 C655 1.387 . S
C654 H658 0.950 . S
C654 C663 1.390 1_565 S
C655 C654 1.387 . S
C655 C657 1.387 . S
H656 C663 0.950 . S
C657 C655 1.387 . S
C657 C659 1.390 1_565 S
C657 H661 0.950 . S
H658 C654 0.950 . S
C659 C657 1.390 1_545 S
C659 C660 1.387 . S
C659 H662 0.950 . S
C660 C659 1.387 . S
C660 C663 1.387 . S
H661 C657 0.950 . S
H662 C659 0.950 . S
C663 C654 1.390 1_545 S
C663 H656 0.950 . S
C663 C660 1.387 . S
C664 C665 1.387 . S
C664 H668 0.950 . S
C664 C673 1.390 1_455 S
C665 C664 1.387 . S
C665 C667 1.387 . S
H666 C673 0.950 . S
C667 C665 1.387 . S
C667 C669 1.390 1_455 S
C667 H671 0.950 . S
H668 C664 0.950 . S
C669 C667 1.390 1_655 S
C669 C670 1.387 . S
C669 H672 0.950 . S
C670 C669 1.387 . S
C670 C673 1.387 . S
H671 C667 0.950 . S
H672 C669 0.950 . S
C673 C664 1.390 1_655 S
C673 H666 0.950 . S
C673 C670 1.387 . S
C674 C675 1.387 . S
C674 H678 0.950 . S
C674 C683 1.390 . S
C675 C674 1.387 . S
C675 C677 1.387 . S
H676 C683 0.950 . S
C677 C675 1.387 . S
C677 C679 1.390 . S
C677 H681 0.950 . S
H678 C674 0.950 . S
C679 C677 1.390 . S
C679 C680 1.387 . S
C679 H682 0.950 . S
C680 C679 1.387 . S
C680 C683 1.387 . S
H681 C677 0.950 . S
H682 C679 0.950 . S
C683 C674 1.390 . S
C683 H676 0.950 . S
C683 C680 1.387 . S
C684 C685 1.387 1_554 S
C684 H688 0.950 . S
C684 C693 1.390 . S
C685 C684 1.387 1_556 S
C685 C687 1.387 . S
H686 C693 0.950 . S
C687 C685 1.387 . S
C687 C689 1.390 . S
C687 H691 0.950 . S
H688 C684 0.950 . S
C689 C687 1.390 . S
C689 C690 1.387 1_556 S
C689 H692 0.950 . S
C690 C689 1.387 1_554 S
C690 C693 1.387 . S
H691 C687 0.950 . S
H692 C689 0.950 . S
C693 C684 1.390 . S
C693 H686 0.950 . S
C693 C690 1.387 . S
C694 C695 1.387 1_554 S
C694 H698 0.950 . S
C694 C703 1.390 . S
C695 C694 1.387 1_556 S
C695 C697 1.387 . S
H696 C703 0.950 . S
C697 C695 1.387 . S
C697 C699 1.390 . S
C697 H701 0.950 . S
H698 C694 0.950 . S
C699 C697 1.390 . S
C699 C700 1.387 1_556 S
C699 H702 0.950 . S
C700 C699 1.387 1_554 S
C700 C703 1.387 . S
H701 C697 0.950 . S
H702 C699 0.950 . S
C703 C694 1.390 . S
C703 H696 0.950 . S
C703 C700 1.387 . S
C704 C705 1.387 1_554 S
C704 H708 0.950 . S
C704 C713 1.390 . S
C705 C704 1.387 1_556 S
C705 C707 1.387 . S
H706 C713 0.950 . S
C707 C705 1.387 . S
C707 C709 1.390 1_556 S
C707 H711 0.950 . S
H708 C704 0.950 . S
C709 C707 1.390 1_554 S
C709 C710 1.387 . S
C709 H712 0.950 . S
C710 C709 1.387 . S
C710 C713 1.387 . S
H711 C707 0.950 . S
H712 C709 0.950 . S
C713 C704 1.390 . S
C713 H706 0.950 . S
C713 C710 1.387 . S
C714 C715 1.387 . S
C714 H718 0.950 . S
C714 C723 1.390 . S
C715 C714 1.387 . S
C715 C717 1.387 . S
H716 C723 0.950 . S
C717 C715 1.387 . S
C717 C719 1.390 . S
C717 H721 0.950 . S
H718 C714 0.950 . S
C719 C717 1.390 . S
C719 C720 1.387 . S
C719 H722 0.950 . S
C720 C719 1.387 . S
C720 C723 1.387 . S
H721 C717 0.950 . S
H722 C719 0.950 . S
C723 C714 1.390 . S
C723 H716 0.950 . S
C723 C720 1.387 . S
C724 C725 1.387 . S
C724 H728 0.950 . S
C724 C733 1.390 . S
C725 C724 1.387 . S
C725 C727 1.387 . S
H726 C733 0.950 . S
C727 C725 1.387 . S
C727 C729 1.390 . S
C727 H731 0.950 . S
H728 C724 0.950 . S
C729 C727 1.390 . S
C729 C730 1.387 . S
C729 H732 0.950 . S
C730 C729 1.387 . S
C730 C733 1.387 . S
H731 C727 0.950 . S
H732 C729 0.950 . S
C733 C724 1.390 . S
C733 H726 0.950 . S
C733 C730 1.387 . S
C734 C735 1.387 . S
C734 H738 0.950 . S
C734 C743 1.390 . S
C735 C734 1.387 . S
C735 C737 1.387 . S
H736 C743 0.950 . S
C737 C735 1.387 . S
C737 C739 1.390 . S
C737 H741 0.950 . S
H738 C734 0.950 . S
C739 C737 1.390 . S
C739 C740 1.387 . S
C739 H742 0.950 . S
C740 C739 1.387 . S
C740 C743 1.387 . S
H741 C737 0.950 . S
H742 C739 0.950 . S
C743 C734 1.390 . S
C743 H736 0.950 . S
C743 C740 1.387 . S
C744 C745 1.387 . S
C744 H748 0.950 . S
C744 C753 1.390 . S
C745 C744 1.387 . S
C745 C747 1.387 1_554 S
H746 C753 0.950 . S
C747 C745 1.387 1_556 S
C747 C749 1.390 . S
C747 H751 0.950 . S
H748 C744 0.950 . S
C749 C747 1.390 . S
C749 C750 1.387 . S
C749 H752 0.950 . S
C750 C749 1.387 . S
C750 C753 1.387 1_556 S
H751 C747 0.950 . S
H752 C749 0.950 . S
C753 C744 1.390 . S
C753 H746 0.950 . S
C753 C750 1.387 1_554 S
C754 C755 1.387 . S
C754 H758 0.950 . S
C754 C763 1.390 . S
C755 C754 1.387 . S
C755 C757 1.387 1_556 S
H756 C763 0.950 . S
C757 C755 1.387 1_554 S
C757 C759 1.390 . S
C757 H761 0.950 . S
H758 C754 0.950 . S
C759 C757 1.390 . S
C759 C760 1.387 . S
C759 H762 0.950 . S
C760 C759 1.387 . S
C760 C763 1.387 1_554 S
H761 C757 0.950 . S
H762 C759 0.950 . S
C763 C754 1.390 . S
C763 H756 0.950 . S
C763 C760 1.387 1_556 S
C764 C765 1.387 1_556 S
C764 H768 0.950 1_556 S
C764 C773 1.390 . S
C765 C764 1.387 1_554 S
C765 C767 1.387 1_554 S
H766 C773 0.950 . S
C767 C765 1.387 1_556 S
C767 C769 1.390 . S
C767 H771 0.950 1_556 S
H768 C764 0.950 1_554 S
C769 C767 1.390 . S
C769 C770 1.387 . S
C769 H772 0.950 . S
C770 C769 1.387 . S
C770 C773 1.387 . S
H771 C767 0.950 1_554 S
H772 C769 0.950 . S
C773 C764 1.390 . S
C773 H766 0.950 . S
C773 C770 1.387 . S
C774 C775 1.387 . S
C774 H778 0.950 . S
C774 C783 1.390 . S
C775 C774 1.387 . S
C775 C777 1.387 . S
H776 C783 0.950 . S
C777 C775 1.387 . S
C777 C779 1.390 . S
C777 H781 0.950 . S
H778 C774 0.950 . S
C779 C777 1.390 . S
C779 C780 1.387 . S
C779 H782 0.950 . S
C780 C779 1.387 . S
C780 C783 1.387 . S
H781 C777 0.950 . S
H782 C779 0.950 . S
C783 C774 1.390 . S
C783 H776 0.950 . S
C783 C780 1.387 . S
C784 C785 1.387 . S
C784 H788 0.950 . S
C784 C793 1.390 . S
C785 C784 1.387 . S
C785 C787 1.387 . S
H786 C793 0.950 . S
C787 C785 1.387 . S
C787 C789 1.390 . S
C787 H791 0.950 . S
H788 C784 0.950 . S
C789 C787 1.390 . S
C789 C790 1.387 . S
C789 H792 0.950 . S
C790 C789 1.387 . S
C790 C793 1.387 . S
H791 C787 0.950 . S
H792 C789 0.950 . S
C793 C784 1.390 . S
C793 H786 0.950 . S
C793 C790 1.387 . S
C794 C795 1.387 . S
C794 H798 0.950 . S
C794 C803 1.390 . S
C795 C794 1.387 . S
C795 C797 1.387 . S
H796 C803 0.950 . S
C797 C795 1.387 . S
C797 C799 1.390 . S
C797 H801 0.950 . S
H798 C794 0.950 . S
C799 C797 1.390 . S
C799 C800 1.387 . S
C799 H802 0.950 . S
C800 C799 1.387 . S
C800 C803 1.387 . S
H801 C797 0.950 . S
H802 C799 0.950 . S
C803 C794 1.390 . S
C803 H796 0.950 . S
C803 C800 1.387 . S
C804 C805 1.387 . S
C804 H808 0.950 . S
C804 C813 1.390 . S
C805 C804 1.387 . S
C805 C807 1.387 . S
H806 C813 0.950 . S
C807 C805 1.387 . S
C807 C809 1.390 . S
C807 H811 0.950 . S
H808 C804 0.950 . S
C809 C807 1.390 . S
C809 C810 1.387 . S
C809 H812 0.950 . S
C810 C809 1.387 . S
C810 C813 1.387 . S
H811 C807 0.950 . S
H812 C809 0.950 . S
C813 C804 1.390 . S
C813 H806 0.950 . S
C813 C810 1.387 . S
C814 C815 1.387 . S
C814 H818 0.950 . S
C814 C823 1.390 . S
C815 C814 1.387 . S
C815 C817 1.387 . S
H816 C823 0.950 . S
C817 C815 1.387 . S
C817 C819 1.390 . S
C817 H821 0.950 . S
H818 C814 0.950 . S
C819 C817 1.390 . S
C819 C820 1.387 . S
C819 H822 0.950 . S
C820 C819 1.387 . S
C820 C823 1.387 . S
H821 C817 0.950 . S
H822 C819 0.950 . S
C823 C814 1.390 . S
C823 H816 0.950 . S
C823 C820 1.387 . S
C824 C825 1.387 . S
C824 H828 0.950 . S
C824 C833 1.390 . S
C825 C824 1.387 . S
C825 C827 1.387 . S
H826 C833 0.950 . S
C827 C825 1.387 . S
C827 C829 1.390 . S
C827 H831 0.950 . S
H828 C824 0.950 . S
C829 C827 1.390 . S
C829 C830 1.387 . S
C829 H832 0.950 . S
C830 C829 1.387 . S
C830 C833 1.387 . S
H831 C827 0.950 . S
H832 C829 0.950 . S
C833 C824 1.390 . S
C833 H826 0.950 . S
C833 C830 1.387 . S
C834 C835 1.387 . S
C834 H838 0.950 . S
C834 C843 1.390 . S
C835 C834 1.387 . S
C835 C837 1.387 . S
H836 C843 0.950 . S
C837 C835 1.387 . S
C837 C839 1.390 . S
C837 H841 0.950 . S
H838 C834 0.950 . S
C839 C837 1.390 . S
C839 C840 1.387 . S
C839 H842 0.950 . S
C840 C839 1.387 . S
C840 C843 1.387 . S
H841 C837 0.950 . S
H842 C839 0.950 . S
C843 C834 1.390 . S
C843 H836 0.950 . S
C843 C840 1.387 . S
C844 C845 1.387 . S
C844 H848 0.950 . S
C844 C853 1.390 . S
C845 C844 1.387 . S
C845 C847 1.387 . S
H846 C853 0.950 . S
C847 C845 1.387 . S
C847 C849 1.390 . S
C847 H851 0.950 . S
H848 C844 0.950 . S
C849 C847 1.390 . S
C849 C850 1.387 . S
C849 H852 0.950 . S
C850 C849 1.387 . S
C850 C853 1.387 . S
H851 C847 0.950 . S
H852 C849 0.950 . S
C853 C844 1.390 . S
C853 H846 0.950 . S
C853 C850 1.387 . S
C854 C855 1.387 . S
C854 H858 0.950 . S
C854 C863 1.390 . S
C855 C854 1.387 . S
C855 C857 1.387 . S
H856 C863 0.950 . S
C857 C855 1.387 . S
C857 C859 1.390 . S
C857 H861 0.950 . S
H858 C854 0.950 . S
C859 C857 1.390 . S
C859 C860 1.387 . S
C859 H862 0.950 . S
C860 C859 1.387 . S
C860 C863 1.387 . S
H861 C857 0.950 . S
H862 C859 0.950 . S
C863 C854 1.390 . S
C863 H856 0.950 . S
C863 C860 1.387 . S
C864 C865 1.387 . S
C864 H868 0.950 . S
C864 C873 1.390 . S
C865 C864 1.387 . S
C865 C867 1.387 . S
H866 C873 0.950 . S
C867 C865 1.387 . S
C867 C869 1.390 . S
C867 H871 0.950 . S
H868 C864 0.950 . S
C869 C867 1.390 . S
C869 C870 1.387 . S
C869 H872 0.950 . S
C870 C869 1.387 . S
C870 C873 1.387 . S
H871 C867 0.950 . S
H872 C869 0.950 . S
C873 C864 1.390 . S
C873 H866 0.950 . S
C873 C870 1.387 . S
C874 C875 1.387 . S
C874 H878 0.950 . S
C874 C883 1.390 . S
C875 C874 1.387 . S
C875 C877 1.387 . S
H876 C883 0.950 . S
C877 C875 1.387 . S
C877 C879 1.390 . S
C877 H881 0.950 . S
H878 C874 0.950 . S
C879 C877 1.390 . S
C879 C880 1.387 . S
C879 H882 0.950 . S
C880 C879 1.387 . S
C880 C883 1.387 . S
H881 C877 0.950 . S
H882 C879 0.950 . S
C883 C874 1.390 . S
C883 H876 0.950 . S
C883 C880 1.387 . S
C884 C885 1.387 . S
C884 H888 0.950 . S
C884 C893 1.390 . S
C885 C884 1.387 . S
C885 C887 1.387 . S
H886 C893 0.950 . S
C887 C885 1.387 . S
C887 C889 1.390 . S
C887 H891 0.950 . S
H888 C884 0.950 . S
C889 C887 1.390 . S
C889 C890 1.387 . S
C889 H892 0.950 . S
C890 C889 1.387 . S
C890 C893 1.387 . S
H891 C887 0.950 . S
H892 C889 0.950 . S
C893 C884 1.390 . S
C893 H886 0.950 . S
C893 C890 1.387 . S
C894 C895 1.387 . S
C894 H898 0.950 . S
C894 C903 1.390 . S
C895 C894 1.387 . S
C895 C897 1.387 . S
H896 C903 0.950 . S
C897 C895 1.387 . S
C897 C899 1.390 . S
C897 H901 0.950 . S
H898 C894 0.950 . S
C899 C897 1.390 . S
C899 C900 1.387 . S
C899 H902 0.950 . S
C900 C899 1.387 . S
C900 C903 1.387 . S
H901 C897 0.950 . S
H902 C899 0.950 . S
C903 C894 1.390 . S
C903 H896 0.950 . S
C903 C900 1.387 . S
C904 C905 1.387 . S
C904 H908 0.950 . S
C904 C913 1.390 . S
C905 C904 1.387 . S
C905 C907 1.387 . S
H906 C913 0.950 . S
C907 C905 1.387 . S
C907 C909 1.390 . S
C907 H911 0.950 . S
H908 C904 0.950 . S
C909 C907 1.390 . S
C909 C910 1.387 . S
C909 H912 0.950 . S
C910 C909 1.387 . S
C910 C913 1.387 . S
H911 C907 0.950 . S
H912 C909 0.950 . S
C913 C904 1.390 . S
C913 H906 0.950 . S
C913 C910 1.387 . S
C914 C915 1.387 . S
C914 H918 0.950 . S
C914 C923 1.390 . S
C915 C914 1.387 . S
C915 C917 1.387 . S
H916 C923 0.950 . S
C917 C915 1.387 . S
C917 C919 1.390 . S
C917 H921 0.950 . S
H918 C914 0.950 . S
C919 C917 1.390 . S
C919 C920 1.387 . S
C919 H922 0.950 . S
C920 C919 1.387 . S
C920 C923 1.387 . S
H921 C917 0.950 . S
H922 C919 0.950 . S
C923 C914 1.390 . S
C923 H916 0.950 . S
C923 C920 1.387 . S
C924 C925 1.387 . S
C924 H928 0.950 . S
C924 C933 1.390 . S
C925 C924 1.387 . S
C925 C927 1.387 . S
H926 C933 0.950 . S
C927 C925 1.387 . S
C927 C929 1.390 . S
C927 H931 0.950 . S
H928 C924 0.950 . S
C929 C927 1.390 . S
C929 C930 1.387 . S
C929 H932 0.950 . S
C930 C929 1.387 . S
C930 C933 1.387 . S
H931 C927 0.950 . S
H932 C929 0.950 . S
C933 C924 1.390 . S
C933 H926 0.950 . S
C933 C930 1.387 . S
C934 C935 1.387 . S
C934 H938 0.950 . S
C934 C943 1.390 . S
C935 C934 1.387 . S
C935 C937 1.387 . S
H936 C943 0.950 . S
C937 C935 1.387 . S
C937 C939 1.390 . S
C937 H941 0.950 . S
H938 C934 0.950 . S
C939 C937 1.390 . S
C939 C940 1.387 . S
C939 H942 0.950 . S
C940 C939 1.387 . S
C940 C943 1.387 . S
H941 C937 0.950 . S
H942 C939 0.950 . S
C943 C934 1.390 . S
C943 H936 0.950 . S
C943 C940 1.387 . S
C944 C945 1.387 . S
C944 H948 0.950 . S
C944 C953 1.390 . S
C945 C944 1.387 . S
C945 C947 1.387 . S
H946 C953 0.950 . S
C947 C945 1.387 . S
C947 C949 1.390 . S
C947 H951 0.950 . S
H948 C944 0.950 . S
C949 C947 1.390 . S
C949 C950 1.387 . S
C949 H952 0.950 . S
C950 C949 1.387 . S
C950 C953 1.387 . S
H951 C947 0.950 . S
H952 C949 0.950 . S
C953 C944 1.390 . S
C953 H946 0.950 . S
C953 C950 1.387 . S
C954 C955 1.387 . S
C954 H958 0.950 . S
C954 C963 1.390 . S
C955 C954 1.387 . S
C955 C957 1.387 . S
H956 C963 0.950 . S
C957 C955 1.387 . S
C957 C959 1.390 . S
C957 H961 0.950 . S
H958 C954 0.950 . S
C959 C957 1.390 . S
C959 C960 1.387 . S
C959 H962 0.950 . S
C960 C959 1.387 . S
C960 C963 1.387 . S
H961 C957 0.950 . S
H962 C959 0.950 . S
C963 C954 1.390 . S
C963 H956 0.950 . S
C963 C960 1.387 . S
C964 C965 1.387 . S
C964 H968 0.950 . S
C964 C973 1.390 . S
C965 C964 1.387 . S
C965 C967 1.387 . S
H966 C973 0.950 . S
C967 C965 1.387 . S
C967 C969 1.390 . S
C967 H971 0.950 . S
H968 C964 0.950 . S
C969 C967 1.390 . S
C969 C970 1.387 . S
C969 H972 0.950 . S
C970 C969 1.387 . S
C970 C973 1.387 . S
H971 C967 0.950 . S
H972 C969 0.950 . S
C973 C964 1.390 . S
C973 H966 0.950 . S
C973 C970 1.387 . S
C974 C975 1.387 . S
C974 H978 0.950 . S
C974 C983 1.390 . S
C975 C974 1.387 . S
C975 C977 1.387 . S
H976 C983 0.950 . S
C977 C975 1.387 . S
C977 C979 1.390 . S
C977 H981 0.950 . S
H978 C974 0.950 . S
C979 C977 1.390 . S
C979 C980 1.387 . S
C979 H982 0.950 . S
C980 C979 1.387 . S
C980 C983 1.387 . S
H981 C977 0.950 . S
H982 C979 0.950 . S
C983 C974 1.390 . S
C983 H976 0.950 . S
C983 C980 1.387 . S
C984 C985 1.387 . S
C984 H988 0.950 . S
C984 C993 1.390 . S
C985 C984 1.387 . S
C985 C987 1.387 . S
H986 C993 0.950 . S
C987 C985 1.387 . S
C987 C989 1.390 . S
C987 H991 0.950 . S
H988 C984 0.950 . S
C989 C987 1.390 . S
C989 C990 1.387 . S
C989 H992 0.950 . S
C990 C989 1.387 . S
C990 C993 1.387 . S
H991 C987 0.950 . S
H992 C989 0.950 . S
C993 C984 1.390 . S
C993 H986 0.950 . S
C993 C990 1.387 . S
C994 C995 1.387 . S
C994 H998 0.950 . S
C994 C1003 1.390 . S
C995 C994 1.387 . S
C995 C997 1.387 . S
H996 C1003 0.950 . S
C997 C995 1.387 . S
C997 C999 1.390 . S
C997 H1001 0.950 . S
H998 C994 0.950 . S
C999 C997 1.390 . S
C999 C1000 1.387 . S
C999 H1002 0.950 . S
C1000 C999 1.387 . S
C1000 C1003 1.387 . S
H1001 C997 0.950 . S
H1002 C999 0.950 . S
C1003 C994 1.390 . S
C1003 H996 0.950 . S
C1003 C1000 1.387 . S
C1004 C1005 1.387 . S
C1004 H1008 0.950 . S
C1004 C1013 1.390 . S
C1005 C1004 1.387 . S
C1005 C1007 1.387 . S
H1006 C1013 0.950 . S
C1007 C1005 1.387 . S
C1007 C1009 1.390 . S
C1007 H1011 0.950 . S
H1008 C1004 0.950 . S
C1009 C1007 1.390 . S
C1009 C1010 1.387 . S
C1009 H1012 0.950 . S
C1010 C1009 1.387 . S
C1010 C1013 1.387 . S
H1011 C1007 0.950 . S
H1012 C1009 0.950 . S
C1013 C1004 1.390 . S
C1013 H1006 0.950 . S
C1013 C1010 1.387 . S
C1014 C1015 1.387 . S
C1014 H1018 0.950 . S
C1014 C1023 1.390 . S
C1015 C1014 1.387 . S
C1015 C1017 1.387 . S
H1016 C1023 0.950 . S
C1017 C1015 1.387 . S
C1017 C1019 1.390 . S
C1017 H1021 0.950 . S
H1018 C1014 0.950 . S
C1019 C1017 1.390 . S
C1019 C1020 1.387 . S
C1019 H1022 0.950 . S
C1020 C1019 1.387 . S
C1020 C1023 1.387 . S
H1021 C1017 0.950 . S
H1022 C1019 0.950 . S
C1023 C1014 1.390 . S
C1023 H1016 0.950 . S
C1023 C1020 1.387 . S
C1024 C1025 1.387 . S
C1024 H1028 0.950 . S
C1024 C1033 1.390 . S
C1025 C1024 1.387 . S
C1025 C1027 1.387 . S
H1026 C1033 0.950 . S
C1027 C1025 1.387 . S
C1027 C1029 1.390 . S
C1027 H1031 0.950 . S
H1028 C1024 0.950 . S
C1029 C1027 1.390 . S
C1029 C1030 1.387 . S
C1029 H1032 0.950 . S
C1030 C1029 1.387 . S
C1030 C1033 1.387 . S
H1031 C1027 0.950 . S
H1032 C1029 0.950 . S
C1033 C1024 1.390 . S
C1033 H1026 0.950 . S
C1033 C1030 1.387 . S
C1034 C1035 1.387 . S
C1034 H1038 0.950 . S
C1034 C1043 1.390 . S
C1035 C1034 1.387 . S
C1035 C1037 1.387 . S
H1036 C1043 0.950 . S
C1037 C1035 1.387 . S
C1037 C1039 1.390 . S
C1037 H1041 0.950 . S
H1038 C1034 0.950 . S
C1039 C1037 1.390 . S
C1039 C1040 1.387 . S
C1039 H1042 0.950 . S
C1040 C1039 1.387 . S
C1040 C1043 1.387 . S
H1041 C1037 0.950 . S
H1042 C1039 0.950 . S
C1043 C1034 1.390 . S
C1043 H1036 0.950 . S
C1043 C1040 1.387 . S
C1044 C1045 1.387 . S
C1044 H1048 0.950 . S
C1044 C1053 1.390 . S
C1045 C1044 1.387 . S
C1045 C1047 1.387 . S
H1046 C1053 0.950 . S
C1047 C1045 1.387 . S
C1047 C1049 1.390 . S
C1047 H1051 0.950 . S
H1048 C1044 0.950 . S
C1049 C1047 1.390 . S
C1049 C1050 1.387 . S
C1049 H1052 0.950 . S
C1050 C1049 1.387 . S
C1050 C1053 1.387 . S
H1051 C1047 0.950 . S
H1052 C1049 0.950 . S
C1053 C1044 1.390 . S
C1053 H1046 0.950 . S
C1053 C1050 1.387 . S
C1054 C1055 1.387 . S
C1054 H1058 0.950 . S
C1054 C1063 1.390 1_545 S
C1055 C1054 1.387 . S
C1055 C1057 1.387 . S
H1056 C1063 0.950 . S
C1057 C1055 1.387 . S
C1057 C1059 1.390 1_545 S
C1057 H1061 0.950 . S
H1058 C1054 0.950 . S
C1059 C1057 1.390 1_565 S
C1059 C1060 1.387 . S
C1059 H1062 0.950 . S
C1060 C1059 1.387 . S
C1060 C1063 1.387 . S
H1061 C1057 0.950 . S
H1062 C1059 0.950 . S
C1063 C1054 1.390 1_565 S
C1063 H1056 0.950 . S
C1063 C1060 1.387 . S
C1064 C1065 1.387 . S
C1064 H1068 0.950 . S
C1064 C1073 1.390 . S
C1065 C1064 1.387 . S
C1065 C1067 1.387 1_455 S
H1066 C1073 0.950 . S
C1067 C1065 1.387 1_655 S
C1067 C1069 1.390 . S
C1067 H1071 0.950 . S
H1068 C1064 0.950 . S
C1069 C1067 1.390 . S
C1069 C1070 1.387 . S
C1069 H1072 0.950 . S
C1070 C1069 1.387 . S
C1070 C1073 1.387 1_655 S
H1071 C1067 0.950 . S
H1072 C1069 0.950 . S
C1073 C1064 1.390 . S
C1073 H1066 0.950 . S
C1073 C1070 1.387 1_455 S
C1074 C1075 1.387 . S
C1074 H1078 0.950 . S
C1074 C1083 1.390 . S
C1075 C1074 1.387 . S
C1075 C1077 1.387 . S
H1076 C1083 0.950 . S
C1077 C1075 1.387 . S
C1077 C1079 1.390 . S
C1077 H1081 0.950 . S
H1078 C1074 0.950 . S
C1079 C1077 1.390 . S
C1079 C1080 1.387 . S
C1079 H1082 0.950 . S
C1080 C1079 1.387 . S
C1080 C1083 1.387 . S
H1081 C1077 0.950 . S
H1082 C1079 0.950 . S
C1083 C1074 1.390 . S
C1083 H1076 0.950 . S
C1083 C1080 1.387 . S
C1084 C1085 1.384 . S
C1084 H1088 0.943 . S
C1084 C1093 1.389 1_545 S
C1085 C1084 1.384 . S
C1085 C1087 1.387 . S
H1086 C1093 0.950 . S
C1087 C1085 1.387 . S
C1087 C1089 1.389 1_545 S
C1087 H1091 0.950 . S
H1088 C1084 0.943 . S
C1089 C1087 1.389 1_565 S
C1089 C1090 1.384 . S
C1089 H1092 0.943 . S
C1090 C1089 1.384 . S
C1090 C1093 1.387 . S
H1091 C1087 0.950 . S
H1092 C1089 0.943 . S
C1093 C1084 1.389 1_565 S
C1093 H1086 0.950 . S
C1093 C1090 1.387 . S
C1094 C1095 1.387 . S
C1094 H1098 0.950 . S
C1094 C1103 1.390 . S
C1095 C1094 1.387 . S
C1095 C1097 1.387 1_655 S
H1096 C1103 0.950 . S
C1097 C1095 1.387 1_455 S
C1097 C1099 1.390 . S
C1097 H1101 0.950 . S
H1098 C1094 0.950 . S
C1099 C1097 1.390 . S
C1099 C1100 1.387 . S
C1099 H1102 0.950 . S
C1100 C1099 1.387 . S
C1100 C1103 1.387 1_455 S
H1101 C1097 0.950 . S
H1102 C1099 0.950 . S
C1103 C1094 1.390 . S
C1103 H1096 0.950 . S
C1103 C1100 1.387 1_655 S
C1104 C1105 1.387 . S
C1104 H1108 0.950 . S
C1104 C1113 1.390 . S
C1105 C1104 1.387 . S
C1105 C1107 1.387 . S
H1106 C1113 0.950 . S
C1107 C1105 1.387 . S
C1107 C1109 1.390 . S
C1107 H1111 0.950 . S
H1108 C1104 0.950 . S
C1109 C1107 1.390 . S
C1109 C1110 1.387 . S
C1109 H1112 0.950 . S
C1110 C1109 1.387 . S
C1110 C1113 1.387 . S
H1111 C1107 0.950 . S
H1112 C1109 0.950 . S
C1113 C1104 1.390 . S
C1113 H1106 0.950 . S
C1113 C1110 1.387 . S
C1114 C1115 1.387 . S
C1114 H1118 0.950 . S
C1114 C1123 1.390 . S
C1115 C1114 1.387 . S
C1115 C1117 1.387 . S
H1116 C1123 0.950 . S
C1117 C1115 1.387 . S
C1117 C1119 1.390 . S
C1117 H1121 0.950 . S
H1118 C1114 0.950 . S
C1119 C1117 1.390 . S
C1119 C1120 1.387 . S
C1119 H1122 0.950 . S
C1120 C1119 1.387 . S
C1120 C1123 1.387 . S
H1121 C1117 0.950 . S
H1122 C1119 0.950 . S
C1123 C1114 1.390 . S
C1123 H1116 0.950 . S
C1123 C1120 1.387 . S
C1124 C1125 1.387 . S
C1124 H1128 0.950 . S
C1124 C1133 1.390 . S
C1125 C1124 1.387 . S
C1125 C1127 1.387 . S
H1126 C1133 0.950 . S
C1127 C1125 1.387 . S
C1127 C1129 1.390 . S
C1127 H1131 0.950 . S
H1128 C1124 0.950 . S
C1129 C1127 1.390 . S
C1129 C1130 1.387 . S
C1129 H1132 0.950 . S
C1130 C1129 1.387 . S
C1130 C1133 1.387 . S
H1131 C1127 0.950 . S
H1132 C1129 0.950 . S
C1133 C1124 1.390 . S
C1133 H1126 0.950 . S
C1133 C1130 1.387 . S
C1134 C1135 1.387 . S
C1134 H1138 0.950 . S
C1134 C1143 1.390 . S
C1135 C1134 1.387 . S
C1135 C1137 1.387 . S
H1136 C1143 0.950 . S
C1137 C1135 1.387 . S
C1137 C1139 1.390 . S
C1137 H1141 0.950 . S
H1138 C1134 0.950 . S
C1139 C1137 1.390 . S
C1139 C1140 1.387 . S
C1139 H1142 0.950 . S
C1140 C1139 1.387 . S
C1140 C1143 1.387 . S
H1141 C1137 0.950 . S
H1142 C1139 0.950 . S
C1143 C1134 1.390 . S
C1143 H1136 0.950 . S
C1143 C1140 1.387 . S
C1144 C1145 1.387 . S
C1144 H1148 0.950 . S
C1144 C1153 1.390 . S
C1145 C1144 1.387 . S
C1145 C1147 1.387 . S
H1146 C1153 0.950 . S
C1147 C1145 1.387 . S
C1147 C1149 1.390 . S
C1147 H1151 0.950 . S
H1148 C1144 0.950 . S
C1149 C1147 1.390 . S
C1149 C1150 1.387 . S
C1149 H1152 0.950 . S
C1150 C1149 1.387 . S
C1150 C1153 1.387 . S
H1151 C1147 0.950 . S
H1152 C1149 0.950 . S
C1153 C1144 1.390 . S
C1153 H1146 0.950 . S
C1153 C1150 1.387 . S
C1154 C1155 1.387 . S
C1154 H1158 0.950 . S
C1154 C1163 1.390 . S
C1155 C1154 1.387 . S
C1155 C1157 1.387 . S
H1156 C1163 0.950 . S
C1157 C1155 1.387 . S
C1157 C1159 1.390 . S
C1157 H1161 0.950 . S
H1158 C1154 0.950 . S
C1159 C1157 1.390 . S
C1159 C1160 1.387 . S
C1159 H1162 0.950 . S
C1160 C1159 1.387 . S
C1160 C1163 1.387 . S
H1161 C1157 0.950 . S
H1162 C1159 0.950 . S
C1163 C1154 1.390 . S
C1163 H1156 0.950 . S
C1163 C1160 1.387 . S
C1164 C1165 1.387 . S
C1164 H1168 0.950 . S
C1164 C1173 1.390 . S
C1165 C1164 1.387 . S
C1165 C1167 1.387 . S
H1166 C1173 0.950 . S
C1167 C1165 1.387 . S
C1167 C1169 1.390 . S
C1167 H1171 0.950 . S
H1168 C1164 0.950 . S
C1169 C1167 1.390 . S
C1169 C1170 1.387 . S
C1169 H1172 0.950 . S
C1170 C1169 1.387 . S
C1170 C1173 1.387 . S
H1171 C1167 0.950 . S
H1172 C1169 0.950 . S
C1173 C1164 1.390 . S
C1173 H1166 0.950 . S
C1173 C1170 1.387 . S
C1174 C1175 1.387 . S
C1174 H1178 0.950 . S
C1174 C1183 1.390 . S
C1175 C1174 1.387 . S
C1175 C1177 1.387 . S
H1176 C1183 0.950 . S
C1177 C1175 1.387 . S
C1177 C1179 1.390 . S
C1177 H1181 0.950 . S
H1178 C1174 0.950 . S
C1179 C1177 1.390 . S
C1179 C1180 1.387 . S
C1179 H1182 0.950 . S
C1180 C1179 1.387 . S
C1180 C1183 1.387 . S
H1181 C1177 0.950 . S
H1182 C1179 0.950 . S
C1183 C1174 1.390 . S
C1183 H1176 0.950 . S
C1183 C1180 1.387 . S
C1184 C1185 1.387 . S
C1184 H1188 0.950 . S
C1184 C1193 1.390 . S
C1185 C1184 1.387 . S
C1185 C1187 1.387 . S
H1186 C1193 0.950 . S
C1187 C1185 1.387 . S
C1187 C1189 1.390 . S
C1187 H1191 0.950 . S
H1188 C1184 0.950 . S
C1189 C1187 1.390 . S
C1189 C1190 1.387 . S
C1189 H1192 0.950 . S
C1190 C1189 1.387 . S
C1190 C1193 1.387 . S
H1191 C1187 0.950 . S
H1192 C1189 0.950 . S
C1193 C1184 1.390 . S
C1193 H1186 0.950 . S
C1193 C1190 1.387 . S
C1194 C1195 1.387 . S
C1194 H1198 0.950 . S
C1194 C1203 1.390 . S
C1195 C1194 1.387 . S
C1195 C1197 1.387 . S
H1196 C1203 0.950 . S
C1197 C1195 1.387 . S
C1197 C1199 1.390 . S
C1197 H1201 0.950 . S
H1198 C1194 0.950 . S
C1199 C1197 1.390 . S
C1199 C1200 1.387 . S
C1199 H1202 0.950 . S
C1200 C1199 1.387 . S
C1200 C1203 1.387 . S
H1201 C1197 0.950 . S
H1202 C1199 0.950 . S
C1203 C1194 1.390 . S
C1203 H1196 0.950 . S
C1203 C1200 1.387 . S
C1204 C1205 1.387 . S
C1204 H1208 0.950 . S
C1204 C1213 1.390 . S
C1205 C1204 1.387 . S
C1205 C1207 1.387 . S
H1206 C1213 0.950 . S
C1207 C1205 1.387 . S
C1207 C1209 1.390 . S
C1207 H1211 0.950 . S
H1208 C1204 0.950 . S
C1209 C1207 1.390 . S
C1209 C1210 1.387 . S
C1209 H1212 0.950 . S
C1210 C1209 1.387 . S
C1210 C1213 1.387 . S
H1211 C1207 0.950 . S
H1212 C1209 0.950 . S
C1213 C1204 1.390 . S
C1213 H1206 0.950 . S
C1213 C1210 1.387 . S
C1214 C1215 1.387 . S
C1214 H1218 0.950 . S
C1214 C1223 1.390 . S
C1215 C1214 1.387 . S
C1215 C1217 1.387 . S
H1216 C1223 0.950 . S
C1217 C1215 1.387 . S
C1217 C1219 1.390 . S
C1217 H1221 0.950 . S
H1218 C1214 0.950 . S
C1219 C1217 1.390 . S
C1219 C1220 1.387 . S
C1219 H1222 0.950 . S
C1220 C1219 1.387 . S
C1220 C1223 1.387 . S
H1221 C1217 0.950 . S
H1222 C1219 0.950 . S
C1223 C1214 1.390 . S
C1223 H1216 0.950 . S
C1223 C1220 1.387 . S
C505 C230 1.237 . S
C510 C6 1.238 . S
C515 C244 1.235 . S
C520 C20 1.234 . S
C525 C34 1.238 . S
C530 C216 1.238 . S
C535 C370 1.233 . S
C540 C48 1.233 . S
C545 C342 1.235 . S
C550 C62 1.236 . S
C555 C76 1.238 . S
C560 C356 1.238 . S
C565 C482 1.236 . S
C570 C90 1.234 . S
C575 C496 1.234 . S
C580 C104 1.235 . S
C585 C468 1.238 . S
C590 C118 1.238 . S
C595 C286 1.233 . S
C600 C132 1.233 . S
C605 C146 1.235 . S
C610 C258 1.237 . S
C615 C272 1.237 . S
C620 C160 1.238 . S
C625 C398 1.237 . S
C630 C174 1.238 . S
C635 C188 1.237 . S
C640 C412 1.238 . S
C645 C384 1.233 . S
C650 C202 1.233 . S
C655 C454 1.238 . S
C660 C300 1.238 . S
C665 C426 1.236 . S
C670 C314 1.234 . S
C675 C328 1.238 . S
C680 C440 1.237 . S
C685 C105 1.593 . S
C690 C8 1.643 . S
C695 C119 1.593 . S
C700 C22 1.643 . S
C705 C91 1.594 . S
C710 C36 1.643 . S
C715 C50 1.645 . S
C720 C161 1.595 . S
C725 C133 1.596 . S
C730 C64 1.645 . S
C735 C78 1.645 . S
C740 C147 1.596 . S
C745 C21 1.593 . S
C750 C92 1.643 . S
C755 C106 1.645 . S
C760 C35 1.596 . S
C765 C7 1.594 . S
C770 C120 1.643 . S
C775 C77 1.595 . S
C780 C134 1.645 . S
C785 C49 1.596 . S
C790 C148 1.645 . S
C795 C162 1.645 . S
C800 C63 1.596 . S
C805 C176 1.644 . S
C810 C273 1.596 . S
C815 C287 1.594 . S
C820 C190 1.643 . S
C825 C259 1.593 . S
C830 C204 1.643 . S
C835 C218 1.645 . S
C840 C329 1.595 . S
C845 C301 1.596 . S
C850 C232 1.645 . S
C855 C246 1.645 . S
C860 C315 1.596 . S
C865 C260 1.643 . S
C870 C189 1.595 . S
C875 C274 1.645 . S
C880 C203 1.595 . S
C885 C175 1.593 . S
C890 C288 1.643 . S
C895 C245 1.594 . S
C900 C302 1.643 . S
C905 C217 1.593 . S
C910 C316 1.643 . S
C915 C330 1.644 . S
C920 C231 1.593 . S
C925 C441 1.596 . S
C930 C344 1.644 . S
C935 C358 1.645 . S
C940 C455 1.596 . S
C945 C372 1.645 . S
C950 C427 1.595 . S
C955 C497 1.595 . S
C960 C386 1.645 . S
C965 C400 1.643 . S
C970 C469 1.593 . S
C975 C483 1.593 . S
C980 C414 1.644 . S
C985 C357 1.593 . S
C990 C428 1.643 . S
C995 C371 1.596 . S
C1000 C442 1.645 . S
C1005 C456 1.645 . S
C1010 C343 1.595 . S
C1015 C470 1.643 . S
C1020 C413 1.594 . S
C1025 C385 1.593 . S
C1030 C484 1.643 . S
C1035 C399 1.596 . S
C1040 C498 1.645 . S
C1045 C9 1.733 . S
C1050 C51 1.732 . S
C1055 C23 1.731 . S
C1060 C65 1.731 . S
C1065 C79 1.731 . S
C1070 C37 1.732 . S
C1075 C93 1.733 . S
C1080 C135 1.732 . S
C1085 C149 1.733 . S
C1090 C107 1.733 . S
C1095 C163 1.733 . S
C1100 C121 1.732 . S
C1105 C177 1.732 . S
C1110 C219 1.733 . S
C1115 C191 1.733 . S
C1120 C233 1.733 . S
C1125 C247 1.733 . S
C1130 C205 1.732 . S
C1135 C261 1.731 . S
C1140 C303 1.732 1_554 S
C1145 C275 1.731 . S
C1150 C317 1.731 1_554 S
C1155 C289 1.732 . S
C1160 C331 1.733 1_554 S
C1165 C387 1.732 1_556 S
C1170 C345 1.731 . S
C1175 C401 1.731 1_556 S
C1180 C359 1.731 . S
C1185 C415 1.731 1_556 S
C1190 C373 1.732 . S
C1195 C429 1.731 . S
C1200 C471 1.732 . S
C1205 C485 1.733 . S
C1210 C443 1.733 . S
C1215 C499 1.731 . S
C1220 C457 1.732 . S
