# Generated by pormake.
# Topology oof, (8)-cn, num edge types: 1
# Building blocks:
#     Node 0, Type 0, BuildingBlock: VETTIZ_charged_sbu_0, # of connection points: 8
#     Node 1, Type 0, BuildingBlock: VETTIZ_charged_sbu_0, # of connection points: 8
#     Node 2, Type 0, BuildingBlock: VETTIZ_charged_sbu_0, # of connection points: 8
#     Node 3, Type 0, BuildingBlock: VETTIZ_charged_sbu_0, # of connection points: 8
#     Edge 4, Type (0, 0), BuildingBlock: AJUNOK_clean_linker_0, # of connection points: 2
#     Edge 5, Type (0, 0), BuildingBlock: AJUNOK_clean_linker_0, # of connection points: 2
#     Edge 6, Type (0, 0), BuildingBlock: AJUNOK_clean_linker_0, # of connection points: 2
#     Edge 7, Type (0, 0), BuildingBlock: AJUNOK_clean_linker_0, # of connection points: 2
#     Edge 8, Type (0, 0), BuildingBlock: AJUNOK_clean_linker_0, # of connection points: 2
#     Edge 9, Type (0, 0), BuildingBlock: AJUNOK_clean_linker_0, # of connection points: 2
#     Edge 10, Type (0, 0), BuildingBlock: AJUNOK_clean_linker_0, # of connection points: 2
#     Edge 11, Type (0, 0), BuildingBlock: AJUNOK_clean_linker_0, # of connection points: 2
#     Edge 12, Type (0, 0), BuildingBlock: AJUNOK_clean_linker_0, # of connection points: 2
#     Edge 13, Type (0, 0), BuildingBlock: AJUNOK_clean_linker_0, # of connection points: 2
#     Edge 14, Type (0, 0), BuildingBlock: AJUNOK_clean_linker_0, # of connection points: 2
#     Edge 15, Type (0, 0), BuildingBlock: AJUNOK_clean_linker_0, # of connection points: 2
#     Edge 16, Type (0, 0), BuildingBlock: AJUNOK_clean_linker_0, # of connection points: 2
#     Edge 17, Type (0, 0), BuildingBlock: AJUNOK_clean_linker_0, # of connection points: 2
#     Edge 18, Type (0, 0), BuildingBlock: AJUNOK_clean_linker_0, # of connection points: 2
#     Edge 19, Type (0, 0), BuildingBlock: AJUNOK_clean_linker_0, # of connection points: 2
# Relax obj value: 0.130
# Max RMSD: 0.230
# Mean RMSD: 0.230
data_MOF--net-oof--node1-VETTIZ_charged_sbu_0--edge1-AJUNOK_clean_linker_0
_symmetry_space_group_name_H-M    P1
_symmetry_Int_Tables_number       1
_symmetry_cell_setting            triclinic
loop_
_symmetry_equiv_pos_as_xyz
'x, y, z'
_cell_length_a     12.759356
_cell_length_b     41.163629
_cell_length_c     12.528745
_cell_angle_alpha  89.045999
_cell_angle_beta   97.057309
_cell_angle_gamma 87.779035
loop_
_atom_site_label
_atom_site_type_symbol
_atom_site_fract_x
_atom_site_fract_y
_atom_site_fract_z
_atom_type_partial_charge
Fe0 Fe 0.10926 0.15833 0.42159 0.0
O1 O 0.01989 0.19293 0.33293 0.0
Fe2 Fe 0.13449 0.10008 0.2228 0.0
Fe3 Fe 0.91929 0.22275 0.39984 0.0
O4 O 0.049 0.13003 0.30378 0.0
O5 O 0.04391 0.13072 0.29128 0.0
O6 O 1.00497 0.19236 0.32395 0.0
Fe7 Fe 0.94621 0.16344 0.20416 0.0
C8 C 0.96867 0.17239 0.5814 0.0
O9 O 0.16453 0.19758 0.52029 0.0
O10 O 0.05848 0.24217 0.44919 0.0
O11 O 0.06298 0.1766 0.11531 0.0
O12 O 0.11887 0.12738 0.07603 0.0
O13 O 0.2764 0.11936 0.26816 0.0
O14 O 0.24267 0.16623 0.34501 0.0
O15 O 0.89438 0.24524 0.25295 0.0
O16 O 0.85558 0.20452 0.13264 0.0
C17 C 0.30555 0.14642 0.30454 0.0
O18 O 0.90672 0.12513 0.08712 0.0
O19 O 0.99141 0.08301 0.18378 0.0
O20 O 0.98943 0.15142 0.51302 0.0
O21 O 0.94215 0.20116 0.5503 0.0
C22 C 0.14266 0.22895 0.50346 0.0
C23 C 0.86013 0.23509 0.159 0.0
C24 C 0.75595 0.17097 0.32352 0.0
O25 O 0.78178 0.19889 0.35774 0.0
O26 O 0.82083 0.1513 0.2848 0.0
C27 C 0.09505 0.15711 0.04774 0.0
O28 O 0.15172 0.07509 0.36412 0.0
O29 O 0.1705 0.11273 0.49884 0.0
C30 C 0.93372 0.09398 0.1005 0.0
C31 C 0.15651 0.08282 0.4635 0.0
Fe32 Fe 0.88354 0.96934 0.8088 0.0
O33 O 0.97555 0.94024 0.73037 0.0
Fe34 Fe 0.08363 0.91056 0.83459 0.0
Fe35 Fe 0.92468 0.90973 0.61451 0.0
O36 O 0.98005 0.93993 0.74173 0.0
O37 O 0.02738 0.87817 0.7239 0.0
O38 O 1.01166 0.87727 0.71351 0.0
Fe39 Fe 0.11554 0.84697 0.65367 0.0
C40 C 0.72468 0.91841 0.7392 0.0
O41 O 0.83248 0.9885 0.65869 0.0
O42 O 0.86624 0.95348 0.52924 0.0
O43 O 0.24921 0.87242 0.68857 0.0
O44 O 0.20736 0.92163 0.74922 0.0
O45 O 0.1167 0.95376 0.93541 0.0
O46 O 0.02023 0.99138 0.82547 0.0
O47 O 0.05158 0.91614 0.52909 0.0
O48 O 0.09094 0.86553 0.49759 0.0
C49 C 0.08289 0.98417 0.91009 0.0
O50 O 0.14288 0.82848 0.80668 0.0
O51 O 0.17889 0.87219 0.91735 0.0
O52 O 0.7537 0.94338 0.78956 0.0
O53 O 0.78338 0.90282 0.68012 0.0
C54 C 0.87148 0.98254 0.57158 0.0
C55 C 0.07145 0.89438 0.46265 0.0
C56 C 0.89648 0.83747 0.55038 0.0
O57 O 0.8764 0.86835 0.5223 0.0
O58 O 0.97925 0.82559 0.61022 0.0
C59 C 0.27275 0.90117 0.71454 0.0
O60 O 0.97082 0.89778 0.92916 0.0
O61 O 0.92213 0.94755 0.96334 0.0
C62 C 0.17618 0.84101 0.8977 0.0
C63 C 0.9467 0.91848 0.99636 0.0
Fe64 Fe 0.61392 0.65796 0.42221 0.0
O65 O 0.52851 0.69222 0.32881 0.0
Fe66 Fe 0.64879 0.5999 0.2222 0.0
Fe67 Fe 0.42662 0.72205 0.39351 0.0
O68 O 0.56063 0.62927 0.3024 0.0
O69 O 0.55548 0.62961 0.29228 0.0
O70 O 0.51361 0.69167 0.31824 0.0
Fe71 Fe 0.45177 0.6607 0.20634 0.0
C72 C 0.46477 0.67103 0.57353 0.0
O73 O 0.6642 0.69675 0.52451 0.0
O74 O 0.56492 0.74142 0.44515 0.0
O75 O 0.56248 0.67247 0.10696 0.0
O76 O 0.61239 0.62252 0.07061 0.0
O77 O 0.78204 0.62483 0.2455 0.0
O78 O 0.75426 0.66547 0.35575 0.0
O79 O 0.40358 0.74334 0.24572 0.0
O80 O 0.356 0.70099 0.13287 0.0
C81 C 0.81259 0.64961 0.2968 0.0
O82 O 0.40961 0.61944 0.10353 0.0
O83 O 0.50845 0.57942 0.20277 0.0
O84 O 0.4876 0.65033 0.50529 0.0
O85 O 0.44568 0.70024 0.5429 0.0
C86 C 0.64548 0.72808 0.50486 0.0
C87 C 0.36178 0.732 0.15591 0.0
C88 C 0.26488 0.67013 0.32626 0.0
O89 O 0.28901 0.69893 0.35064 0.0
O90 O 0.33157 0.64939 0.29578 0.0
C91 C 0.58882 0.65184 0.0396 0.0
O92 O 0.69761 0.57884 0.36941 0.0
O93 O 0.67184 0.6136 0.50218 0.0
C94 C 0.43868 0.58856 0.12485 0.0
C95 C 0.66303 0.58485 0.45869 0.0
Fe96 Fe 0.39128 0.4728 0.79661 0.0
O97 O 0.47731 0.44234 0.7175 0.0
Fe98 Fe 0.58191 0.41093 0.82275 0.0
Fe99 Fe 0.41809 0.41213 0.60528 0.0
O100 O 0.48246 0.44187 0.73024 0.0
O101 O 0.5269 0.38027 0.70575 0.0
O102 O 0.51123 0.37932 0.69734 0.0
Fe103 Fe 0.61362 0.34962 0.63212 0.0
C104 C 0.22295 0.42499 0.72362 0.0
O105 O 0.36884 0.4961 0.65308 0.0
O106 O 0.35465 0.45685 0.52353 0.0
O107 O 0.74713 0.37571 0.66627 0.0
O108 O 0.70866 0.42285 0.74366 0.0
O109 O 0.61628 0.45098 0.93635 0.0
O110 O 0.53497 0.49038 0.82732 0.0
O111 O 0.5357 0.41821 0.51044 0.0
O112 O 0.58389 0.36857 0.47598 0.0
C113 C 0.58961 0.48191 0.91478 0.0
O114 O 0.64538 0.32969 0.78351 0.0
O115 O 0.67461 0.37173 0.90185 0.0
O116 O 0.25053 0.45251 0.7571 0.0
O117 O 0.28625 0.40496 0.68475 0.0
C118 C 0.36725 0.48718 0.55526 0.0
C119 C 0.55447 0.39695 0.44229 0.0
C120 C 0.39012 0.33963 0.53785 0.0
O121 O 0.36492 0.37061 0.51597 0.0
O122 O 0.47694 0.32787 0.59109 0.0
C123 C 0.77255 0.40351 0.7019 0.0
O124 O 0.464 0.39753 0.90874 0.0
O125 O 0.4096 0.44688 0.94669 0.0
C126 C 0.67691 0.34099 0.87689 0.0
C127 C 0.43104 0.41705 0.97525 0.0
C128 C 0.13978 0.16025 0.85496 0.0
C129 C 0.06636 0.16507 0.92932 0.0
C130 C 0.10749 0.16095 0.74235 0.0
C131 C 1.00071 0.16707 0.69945 0.0
H132 H 0.22197 0.15448 0.88407 0.0
H133 H 0.16672 0.15678 0.68871 0.0
S134 S 0.77834 0.18401 0.8563 0.0
N135 N 0.88185 0.17774 0.94798 0.0
N136 N 0.82385 0.18024 0.73935 0.0
C137 C 0.92809 0.17349 0.77217 0.0
C138 C 0.9602 0.17237 0.88596 0.0
C139 C 0.07004 0.92796 0.29062 0.0
C140 C 0.04181 0.89981 0.34318 0.0
C141 C 0.04192 0.93319 0.17889 0.0
C142 C 0.97871 0.91161 0.11482 0.0
H143 H 0.11789 0.94553 0.33516 0.0
H144 H 0.07466 0.95371 0.14238 0.0
S145 S 0.89509 0.83204 0.20911 0.0
N146 N 0.9579 0.84781 0.31809 0.0
N147 N 0.89915 0.85915 0.11126 0.0
C148 C 0.95382 0.88273 0.16533 0.0
C149 C 0.98584 0.87666 0.27837 0.0
C150 C 0.60205 0.63763 0.8453 0.0
C151 C 0.5639 0.65892 0.92049 0.0
C152 C 0.56591 0.64028 0.73422 0.0
C153 C 0.49156 0.66487 0.69238 0.0
H154 H 0.65898 0.61815 0.87282 0.0
H155 H 0.59828 0.62328 0.68099 0.0
S156 S 0.37239 0.72867 0.85113 0.0
N157 N 0.45154 0.70687 0.94151 0.0
N158 N 0.38367 0.71161 0.73501 0.0
C159 C 0.45491 0.6868 0.76608 0.0
C160 C 0.49163 0.68412 0.87886 0.0
C161 C 0.56193 0.40009 0.1365 0.0
C162 C 0.45653 0.40845 0.09316 0.0
C163 C 0.59281 0.39676 0.24867 0.0
C164 C 0.52039 0.40227 0.32336 0.0
H165 H 0.62223 0.39714 0.08341 0.0
H166 H 0.67475 0.39041 0.27725 0.0
S167 S 0.23205 0.42054 0.25179 0.0
N168 N 0.27774 0.4186 0.13414 0.0
N169 N 0.33543 0.41373 0.34364 0.0
C170 C 0.41383 0.40928 0.28077 0.0
C171 C 0.38204 0.4119 0.16633 0.0
C172 C 0.57779 0.17969 0.38699 0.0
C173 C 0.64266 0.16303 0.32046 0.0
C174 C 0.46862 0.17498 0.37957 0.0
C175 C 0.41932 0.15357 0.30475 0.0
H176 H 0.61164 0.19655 0.44582 0.0
H177 H 0.42312 0.18771 0.43451 0.0
S178 S 0.55191 0.10555 0.1067 0.0
N179 N 0.64821 0.12511 0.17445 0.0
N180 N 0.44381 0.11647 0.15931 0.0
C181 C 0.48311 0.13705 0.23668 0.0
C182 C 0.59434 0.14166 0.24492 0.0
C183 C 0.55437 0.89838 0.64631 0.0
C184 C 0.61136 0.91109 0.73842 0.0
C185 C 0.44388 0.89661 0.63716 0.0
C186 C 0.3858 0.90827 0.71836 0.0
H187 H 0.59489 0.89048 0.57963 0.0
H188 H 0.40336 0.886 0.5658 0.0
S189 S 0.49697 0.94166 0.97882 0.0
N190 N 0.60092 0.93372 0.91562 0.0
N191 N 0.39356 0.93124 0.89597 0.0
C192 C 0.44149 0.92079 0.81098 0.0
C193 C 0.554 0.92194 0.8216 0.0
C194 C 0.9787 0.67446 0.3826 0.0
C195 C 0.92633 0.65701 0.29776 0.0
C196 C 0.08875 0.6776 0.39311 0.0
C197 C 0.15137 0.66296 0.32047 0.0
H198 H 0.935 0.68509 0.44306 0.0
H199 H 0.12534 0.69154 0.45919 0.0
S200 S 0.05353 0.61703 0.07911 0.0
N201 N 0.9463 0.62673 0.13506 0.0
N202 N 0.15263 0.63211 0.15741 0.0
C203 C 0.10037 0.64586 0.23462 0.0
C204 C 0.9882 0.6431 0.22253 0.0
C205 C 0.94674 0.39739 0.62974 0.0
C206 C 0.88563 0.4112 0.70529 0.0
C207 C 0.05651 0.40084 0.63811 0.0
C208 C 0.10978 0.41788 0.72317 0.0
H209 H 0.90937 0.38375 0.56331 0.0
H210 H 0.09939 0.39076 0.57605 0.0
S211 S 0.98839 0.45647 0.947 0.0
N212 N 0.88794 0.44133 0.8707 0.0
N213 N 0.09389 0.44753 0.88727 0.0
C214 C 0.04992 0.4314 0.80016 0.0
C215 C 0.9381 0.42818 0.791 0.0
C216 C 0.34204 0.28812 0.45362 0.0
C217 C 0.31358 0.3145 0.51554 0.0
C218 C 0.29586 0.25799 0.46137 0.0
C219 C 0.221 0.25306 0.53268 0.0
H220 H 0.40289 0.29058 0.40112 0.0
H221 H 0.3144 0.23904 0.40688 0.0
S222 S 0.1242 0.31364 0.71701 0.0
N223 N 0.21055 0.33317 0.65466 0.0
N224 N 0.12114 0.27675 0.66701 0.0
C225 C 0.1934 0.27905 0.59633 0.0
C226 C 0.23983 0.30974 0.58791 0.0
C227 C 0.67662 0.28462 0.95201 0.0
C228 C 0.72116 0.31559 0.95631 0.0
C229 C 0.72427 0.25807 1.01364 0.0
C230 C 0.81858 0.26145 0.08169 0.0
H231 H 0.60413 0.28081 0.89976 0.0
H232 H 0.6855 0.2351 1.0102 0.0
S233 S 0.97088 0.33668 0.11755 0.0
N234 N 0.86666 0.34765 0.03117 0.0
N235 N 0.95747 0.29792 0.14708 0.0
C236 C 0.86461 0.29223 0.08599 0.0
C237 C 0.81547 0.31928 0.02372 0.0
C238 C 0.80335 0.75601 0.47192 0.0
C239 C 0.72375 0.75176 0.53816 0.0
C240 C 0.8513 0.78587 0.466 0.0
C241 C 0.81967 0.8127 0.52429 0.0
H242 H 0.82464 0.7367 0.41991 0.0
H243 H 0.91626 0.78766 0.41838 0.0
S244 S 0.61915 0.81325 0.71447 0.0
N245 N 0.61729 0.77622 0.66555 0.0
N246 N 0.70961 0.83226 0.65642 0.0
C247 C 0.74156 0.80851 0.59224 0.0
C248 C 0.6935 0.77805 0.59905 0.0
C249 C 0.37374 0.78531 0.0645 0.0
C250 C 0.31366 0.75797 0.08142 0.0
C251 C 0.32716 0.81383 1.01342 0.0
C252 C 0.21842 0.8162 0.97916 0.0
H253 H 0.45782 0.7846 0.0916 0.0
H254 H 0.37707 0.83353 0.99668 0.0
S255 S 0.02467 0.75285 1.01215 0.0
N256 N 0.13911 0.73597 0.06573 0.0
N257 N 0.05086 0.78946 0.96888 0.0
C258 C 0.15706 0.78937 0.99798 0.0
C259 C 0.20474 0.76027 0.04912 0.0
C260 C 0.9125 0.03837 0.05033 0.0
C261 C 0.93734 0.06947 1.01489 0.0
C262 C 0.97974 1.01084 0.04262 0.0
C263 C 0.0694 1.01113 0.98605 0.0
H264 H 0.84893 0.03615 0.09977 0.0
H265 H 0.95556 0.98915 0.0787 0.0
S266 S 0.14764 0.08309 0.84053 0.0
N267 N 0.04327 0.09645 0.8955 0.0
N268 N 0.17018 0.04512 0.8821 0.0
C269 C 0.09168 0.04178 0.94513 0.0
C270 C 0.02261 0.06994 0.95308 0.0
C271 C 0.11945 1.02373 0.49244 0.0
C272 C 0.10654 0.05658 0.5242 0.0
C273 C 0.04259 1.00019 0.50251 0.0
C274 C 0.94808 1.008 0.54516 0.0
H275 H 0.18685 1.01666 0.45196 0.0
H276 H 0.0575 0.97583 0.47627 0.0
S277 S 0.87876 0.08897 0.65307 0.0
N278 N 0.99494 0.09376 0.61143 0.0
N279 N 0.85005 0.05102 0.62681 0.0
C280 C 0.93674 0.04026 0.58234 0.0
C281 C 0.0159 0.06386 0.57385 0.0
C282 C 0.50795 0.56575 0.9687 0.0
C283 C 0.43655 0.56265 0.04428 0.0
C284 C 0.57946 0.5402 0.9493 0.0
C285 C 0.57418 0.5083 0.99309 0.0
H286 H 0.5136 0.58897 0.92992 0.0
H287 H 0.63117 0.54443 0.88838 0.0
S288 S 0.39961 0.48787 0.19791 0.0
N289 N 0.3627 0.52553 0.16222 0.0
N290 N 0.49555 0.47734 0.12642 0.0
C291 C 0.50084 0.50488 0.0674 0.0
C292 C 0.42831 0.53116 0.08708 0.0
C293 C 0.40796 0.54558 0.52372 0.0
C294 C 0.42216 0.51246 0.49563 0.0
C295 C 0.48765 0.5685 0.52018 0.0
C296 C 0.58591 0.55991 0.48627 0.0
H297 H 0.33697 0.5533 0.55734 0.0
H298 H 0.47132 0.59296 0.54438 0.0
S299 S 0.66046 0.4783 0.3881 0.0
N300 N 0.53993 0.47439 0.41988 0.0
N301 N 0.6894 0.51612 0.41593 0.0
C302 C 0.59908 0.52744 0.45266 0.0
C303 C 0.5175 0.5044 0.45519 0.0
loop_
_geom_bond_atom_site_label_1
_geom_bond_atom_site_label_2
_geom_bond_distance
_geom_bond_site_symmetry_2
_ccdc_geom_bond_type
Fe0 O1 1.886 . S
Fe0 O4 1.715 . S
Fe0 O9 2.077 . S
Fe0 O14 1.935 . S
Fe0 O20 2.077 . S
Fe0 O29 1.935 . S
O1 Fe0 1.886 . S
O1 Fe3 1.715 1_455 S
Fe2 O4 1.886 . S
Fe2 O5 1.715 1_455 S
Fe2 O12 1.935 . S
Fe2 O13 2.077 . S
Fe2 O19 1.935 1_455 S
Fe2 O28 2.077 . S
Fe3 O1 1.715 1_655 S
Fe3 O6 1.886 . S
Fe3 O10 1.935 1_655 S
Fe3 O15 2.077 . S
Fe3 O21 1.935 . S
Fe3 O25 2.077 . S
O4 Fe0 1.715 . S
O4 Fe2 1.886 . S
O5 Fe2 1.715 1_655 S
O5 Fe7 1.886 . S
O6 Fe3 1.886 . S
O6 Fe7 1.715 . S
Fe7 O5 1.886 . S
Fe7 O6 1.715 . S
Fe7 O11 2.077 1_554 S
Fe7 O16 1.935 . S
Fe7 O18 2.077 . S
Fe7 O26 1.935 . S
C8 O20 1.381 1_655 S
C8 O21 1.421 . S
O9 Fe0 2.077 . S
O9 C22 1.381 . S
O10 Fe3 1.935 1_455 S
O10 C22 1.421 . S
O11 Fe7 2.077 1_556 S
O11 C27 1.381 1_655 S
O12 Fe2 1.935 . S
O12 C27 1.421 1_554 S
O13 Fe2 2.077 . S
O13 C17 1.381 . S
O14 Fe0 1.935 . S
O14 C17 1.421 . S
O15 Fe3 2.077 . S
O15 C23 1.381 . S
O16 Fe7 1.935 . S
O16 C23 1.421 . S
C17 O13 1.381 . S
C17 O14 1.421 . S
O18 Fe7 2.077 . S
O18 C30 1.381 . S
O19 Fe2 1.935 1_655 S
O19 C30 1.421 . S
O20 Fe0 2.077 . S
O20 C8 1.381 1_455 S
O21 Fe3 1.935 . S
O21 C8 1.421 . S
C22 O9 1.381 . S
C22 O10 1.421 . S
C23 O15 1.381 . S
C23 O16 1.421 . S
C24 O25 1.381 . S
C24 O26 1.421 . S
O25 Fe3 2.077 . S
O25 C24 1.381 . S
O26 Fe7 1.935 . S
O26 C24 1.421 . S
C27 O11 1.381 1_455 S
C27 O12 1.421 1_556 S
O28 Fe2 2.077 . S
O28 C31 1.381 . S
O29 Fe0 1.935 . S
O29 C31 1.421 . S
C30 O18 1.381 . S
C30 O19 1.421 . S
C31 O28 1.381 . S
C31 O29 1.421 . S
Fe32 O33 1.886 . S
Fe32 O36 1.715 1_655 S
Fe32 O41 2.077 . S
Fe32 O46 1.935 1_655 S
Fe32 O52 2.077 . S
Fe32 O61 1.935 . S
O33 Fe32 1.886 . S
O33 Fe35 1.715 . S
Fe34 O36 1.886 . S
Fe34 O37 1.715 . S
Fe34 O44 1.935 . S
Fe34 O45 2.077 . S
Fe34 O51 1.935 . S
Fe34 O60 2.077 1_556 S
Fe35 O33 1.715 . S
Fe35 O38 1.886 . S
Fe35 O42 1.935 . S
Fe35 O47 2.077 . S
Fe35 O53 1.935 . S
Fe35 O57 2.077 . S
O36 Fe32 1.715 1_455 S
O36 Fe34 1.886 . S
O37 Fe34 1.715 . S
O37 Fe39 1.886 . S
O38 Fe35 1.886 . S
O38 Fe39 1.715 1_655 S
Fe39 O37 1.886 . S
Fe39 O38 1.715 1_455 S
Fe39 O43 2.077 . S
Fe39 O48 1.935 . S
Fe39 O50 2.077 . S
Fe39 O58 1.935 1_455 S
C40 O52 1.381 . S
C40 O53 1.421 . S
O41 Fe32 2.077 . S
O41 C54 1.381 . S
O42 Fe35 1.935 . S
O42 C54 1.421 . S
O43 Fe39 2.077 . S
O43 C59 1.381 . S
O44 Fe34 1.935 . S
O44 C59 1.421 . S
O45 Fe34 2.077 . S
O45 C49 1.381 . S
O46 Fe32 1.935 1_455 S
O46 C49 1.421 . S
O47 Fe35 2.077 . S
O47 C55 1.381 1_655 S
O48 Fe39 1.935 . S
O48 C55 1.421 . S
C49 O45 1.381 . S
C49 O46 1.421 . S
O50 Fe39 2.077 . S
O50 C62 1.381 . S
O51 Fe34 1.935 . S
O51 C62 1.421 . S
O52 Fe32 2.077 . S
O52 C40 1.381 . S
O53 Fe35 1.935 . S
O53 C40 1.421 . S
C54 O41 1.381 . S
C54 O42 1.421 . S
C55 O47 1.381 1_455 S
C55 O48 1.421 . S
C56 O57 1.381 . S
C56 O58 1.421 . S
O57 Fe35 2.077 . S
O57 C56 1.381 . S
O58 Fe39 1.935 1_655 S
O58 C56 1.421 . S
C59 O43 1.381 . S
C59 O44 1.421 . S
O60 Fe34 2.077 1_554 S
O60 C63 1.381 1_455 S
O61 Fe32 1.935 . S
O61 C63 1.421 1_556 S
C62 O50 1.381 . S
C62 O51 1.421 . S
C63 O60 1.381 1_655 S
C63 O61 1.421 1_554 S
Fe64 O65 1.886 . S
Fe64 O68 1.715 . S
Fe64 O73 2.077 . S
Fe64 O78 1.935 . S
Fe64 O84 2.077 . S
Fe64 O93 1.935 . S
O65 Fe64 1.886 . S
O65 Fe67 1.715 . S
Fe66 O68 1.886 . S
Fe66 O69 1.715 . S
Fe66 O76 1.935 . S
Fe66 O77 2.077 . S
Fe66 O83 1.935 . S
Fe66 O92 2.077 . S
Fe67 O65 1.715 . S
Fe67 O70 1.886 . S
Fe67 O74 1.935 . S
Fe67 O79 2.077 . S
Fe67 O85 1.935 . S
Fe67 O89 2.077 . S
O68 Fe64 1.715 . S
O68 Fe66 1.886 . S
O69 Fe66 1.715 . S
O69 Fe71 1.886 . S
O70 Fe67 1.886 . S
O70 Fe71 1.715 . S
Fe71 O69 1.886 . S
Fe71 O70 1.715 . S
Fe71 O75 2.077 1_554 S
Fe71 O80 1.935 . S
Fe71 O82 2.077 . S
Fe71 O90 1.935 . S
C72 O84 1.381 . S
C72 O85 1.421 . S
O73 Fe64 2.077 . S
O73 C86 1.381 . S
O74 Fe67 1.935 . S
O74 C86 1.421 . S
O75 Fe71 2.077 1_556 S
O75 C91 1.381 . S
O76 Fe66 1.935 . S
O76 C91 1.421 1_554 S
O77 Fe66 2.077 . S
O77 C81 1.381 . S
O78 Fe64 1.935 . S
O78 C81 1.421 . S
O79 Fe67 2.077 . S
O79 C87 1.381 . S
O80 Fe71 1.935 . S
O80 C87 1.421 . S
C81 O77 1.381 . S
C81 O78 1.421 . S
O82 Fe71 2.077 . S
O82 C94 1.381 . S
O83 Fe66 1.935 . S
O83 C94 1.421 . S
O84 Fe64 2.077 . S
O84 C72 1.381 . S
O85 Fe67 1.935 . S
O85 C72 1.421 . S
C86 O73 1.381 . S
C86 O74 1.421 . S
C87 O79 1.381 . S
C87 O80 1.421 . S
C88 O89 1.381 . S
C88 O90 1.421 . S
O89 Fe67 2.077 . S
O89 C88 1.381 . S
O90 Fe71 1.935 . S
O90 C88 1.421 . S
C91 O75 1.381 . S
C91 O76 1.421 1_556 S
O92 Fe66 2.077 . S
O92 C95 1.381 . S
O93 Fe64 1.935 . S
O93 C95 1.421 . S
C94 O82 1.381 . S
C94 O83 1.421 . S
C95 O92 1.381 . S
C95 O93 1.421 . S
Fe96 O97 1.886 . S
Fe96 O100 1.715 . S
Fe96 O105 2.077 . S
Fe96 O110 1.935 . S
Fe96 O116 2.077 . S
Fe96 O125 1.935 . S
O97 Fe96 1.886 . S
O97 Fe99 1.715 . S
Fe98 O100 1.886 . S
Fe98 O101 1.715 . S
Fe98 O108 1.935 . S
Fe98 O109 2.077 . S
Fe98 O115 1.935 . S
Fe98 O124 2.077 1_556 S
Fe99 O97 1.715 . S
Fe99 O102 1.886 . S
Fe99 O106 1.935 . S
Fe99 O111 2.077 . S
Fe99 O117 1.935 . S
Fe99 O121 2.077 . S
O100 Fe96 1.715 . S
O100 Fe98 1.886 . S
O101 Fe98 1.715 . S
O101 Fe103 1.886 . S
O102 Fe99 1.886 . S
O102 Fe103 1.715 . S
Fe103 O101 1.886 . S
Fe103 O102 1.715 . S
Fe103 O107 2.077 . S
Fe103 O112 1.935 . S
Fe103 O114 2.077 . S
Fe103 O122 1.935 . S
C104 O116 1.381 . S
C104 O117 1.421 . S
O105 Fe96 2.077 . S
O105 C118 1.381 . S
O106 Fe99 1.935 . S
O106 C118 1.421 . S
O107 Fe103 2.077 . S
O107 C123 1.381 . S
O108 Fe98 1.935 . S
O108 C123 1.421 . S
O109 Fe98 2.077 . S
O109 C113 1.381 . S
O110 Fe96 1.935 . S
O110 C113 1.421 . S
O111 Fe99 2.077 . S
O111 C119 1.381 . S
O112 Fe103 1.935 . S
O112 C119 1.421 . S
C113 O109 1.381 . S
C113 O110 1.421 . S
O114 Fe103 2.077 . S
O114 C126 1.381 . S
O115 Fe98 1.935 . S
O115 C126 1.421 . S
O116 Fe96 2.077 . S
O116 C104 1.381 . S
O117 Fe99 1.935 . S
O117 C104 1.421 . S
C118 O105 1.381 . S
C118 O106 1.421 . S
C119 O111 1.381 . S
C119 O112 1.421 . S
C120 O121 1.381 . S
C120 O122 1.421 . S
O121 Fe99 2.077 . S
O121 C120 1.381 . S
O122 Fe103 1.935 . S
O122 C120 1.421 . S
C123 O107 1.381 . S
C123 O108 1.421 . S
O124 Fe98 2.077 1_554 S
O124 C127 1.381 . S
O125 Fe96 1.935 . S
O125 C127 1.421 1_556 S
C126 O114 1.381 . S
C126 O115 1.421 . S
C127 O124 1.381 . S
C127 O125 1.421 1_554 S
C128 C129 1.369 . S
C128 C130 1.419 . S
C128 H132 0.930 . S
C129 C128 1.369 . S
C129 C138 1.429 1_455 S
C130 C128 1.419 . S
C130 C131 1.363 1_455 S
C130 H133 0.929 . S
C131 C130 1.363 1_655 S
C131 C137 1.428 . S
H132 C128 0.930 . S
H133 C130 0.929 . S
S134 N135 1.613 . S
S134 N136 1.610 . S
N135 S134 1.613 . S
N135 C138 1.350 . S
N136 S134 1.610 . S
N136 C137 1.351 . S
C137 C131 1.428 . S
C137 N136 1.351 . S
C137 C138 1.434 . S
C138 C129 1.429 1_655 S
C138 N135 1.350 . S
C138 C137 1.434 . S
C139 C140 1.369 . S
C139 C141 1.419 . S
C139 H143 0.930 . S
C140 C139 1.369 . S
C140 C149 1.429 1_455 S
C141 C139 1.419 . S
C141 C142 1.363 1_455 S
C141 H144 0.929 . S
C142 C141 1.363 1_655 S
C142 C148 1.428 . S
H143 C139 0.930 . S
H144 C141 0.929 . S
S145 N146 1.613 . S
S145 N147 1.610 . S
N146 S145 1.613 . S
N146 C149 1.350 . S
N147 S145 1.610 . S
N147 C148 1.351 . S
C148 C142 1.428 . S
C148 N147 1.351 . S
C148 C149 1.434 . S
C149 C140 1.429 1_655 S
C149 N146 1.350 . S
C149 C148 1.434 . S
C150 C151 1.369 . S
C150 C152 1.419 . S
C150 H154 0.930 . S
C151 C150 1.369 . S
C151 C160 1.429 . S
C152 C150 1.419 . S
C152 C153 1.363 . S
C152 H155 0.929 . S
C153 C152 1.363 . S
C153 C159 1.428 . S
H154 C150 0.930 . S
H155 C152 0.929 . S
S156 N157 1.613 . S
S156 N158 1.610 . S
N157 S156 1.613 . S
N157 C160 1.350 . S
N158 S156 1.610 . S
N158 C159 1.351 . S
C159 C153 1.428 . S
C159 N158 1.351 . S
C159 C160 1.434 . S
C160 C151 1.429 . S
C160 N157 1.350 . S
C160 C159 1.434 . S
C161 C162 1.369 . S
C161 C163 1.419 . S
C161 H165 0.930 . S
C162 C161 1.369 . S
C162 C171 1.429 . S
C163 C161 1.419 . S
C163 C164 1.363 . S
C163 H166 0.929 . S
C164 C163 1.363 . S
C164 C170 1.428 . S
H165 C161 0.930 . S
H166 C163 0.929 . S
S167 N168 1.613 . S
S167 N169 1.610 . S
N168 S167 1.613 . S
N168 C171 1.350 . S
N169 S167 1.610 . S
N169 C170 1.351 . S
C170 C164 1.428 . S
C170 N169 1.351 . S
C170 C171 1.434 . S
C171 C162 1.429 . S
C171 N168 1.350 . S
C171 C170 1.434 . S
C172 C173 1.369 . S
C172 C174 1.419 . S
C172 H176 0.930 . S
C173 C172 1.369 . S
C173 C182 1.429 . S
C174 C172 1.419 . S
C174 C175 1.363 . S
C174 H177 0.929 . S
C175 C174 1.363 . S
C175 C181 1.428 . S
H176 C172 0.930 . S
H177 C174 0.929 . S
S178 N179 1.613 . S
S178 N180 1.610 . S
N179 S178 1.613 . S
N179 C182 1.350 . S
N180 S178 1.610 . S
N180 C181 1.351 . S
C181 C175 1.428 . S
C181 N180 1.351 . S
C181 C182 1.434 . S
C182 C173 1.429 . S
C182 N179 1.350 . S
C182 C181 1.434 . S
C183 C184 1.369 . S
C183 C185 1.419 . S
C183 H187 0.930 . S
C184 C183 1.369 . S
C184 C193 1.429 . S
C185 C183 1.419 . S
C185 C186 1.363 . S
C185 H188 0.929 . S
C186 C185 1.363 . S
C186 C192 1.428 . S
H187 C183 0.930 . S
H188 C185 0.929 . S
S189 N190 1.613 . S
S189 N191 1.610 . S
N190 S189 1.613 . S
N190 C193 1.350 . S
N191 S189 1.610 . S
N191 C192 1.351 . S
C192 C186 1.428 . S
C192 N191 1.351 . S
C192 C193 1.434 . S
C193 C184 1.429 . S
C193 N190 1.350 . S
C193 C192 1.434 . S
C194 C195 1.369 . S
C194 C196 1.419 1_655 S
C194 H198 0.930 . S
C195 C194 1.369 . S
C195 C204 1.429 . S
C196 C194 1.419 1_455 S
C196 C197 1.363 . S
C196 H199 0.929 . S
C197 C196 1.363 . S
C197 C203 1.428 . S
H198 C194 0.930 . S
H199 C196 0.929 . S
S200 N201 1.613 1_556 S
S200 N202 1.610 1_656 S
N201 S200 1.613 1_554 S
N201 C204 1.350 . S
N202 S200 1.610 1_454 S
N202 C203 1.351 . S
C203 C197 1.428 . S
C203 N202 1.351 . S
C203 C204 1.434 1_455 S
C204 C195 1.429 . S
C204 N201 1.350 . S
C204 C203 1.434 1_655 S
C205 C206 1.369 . S
C205 C207 1.419 1_655 S
C205 H209 0.930 . S
C206 C205 1.369 . S
C206 C215 1.429 . S
C207 C205 1.419 1_455 S
C207 C208 1.363 . S
C207 H210 0.929 . S
C208 C207 1.363 . S
C208 C214 1.428 . S
H209 C205 0.930 . S
H210 C207 0.929 . S
S211 N212 1.613 1_455 S
S211 N213 1.610 . S
N212 S211 1.613 1_655 S
N212 C215 1.350 . S
N213 S211 1.610 . S
N213 C214 1.351 . S
C214 C208 1.428 . S
C214 N213 1.351 . S
C214 C215 1.434 1_455 S
C215 C206 1.429 . S
C215 N212 1.350 . S
C215 C214 1.434 1_655 S
C216 C217 1.369 . S
C216 C218 1.419 . S
C216 H220 0.930 . S
C217 C216 1.369 . S
C217 C226 1.429 . S
C218 C216 1.419 . S
C218 C219 1.363 . S
C218 H221 0.929 . S
C219 C218 1.363 . S
C219 C225 1.428 . S
H220 C216 0.930 . S
H221 C218 0.929 . S
S222 N223 1.613 . S
S222 N224 1.610 . S
N223 S222 1.613 . S
N223 C226 1.350 . S
N224 S222 1.610 . S
N224 C225 1.351 . S
C225 C219 1.428 . S
C225 N224 1.351 . S
C225 C226 1.434 . S
C226 C217 1.429 . S
C226 N223 1.350 . S
C226 C225 1.434 . S
C227 C228 1.369 . S
C227 C229 1.419 . S
C227 H231 0.930 . S
C228 C227 1.369 . S
C228 C237 1.429 1_556 S
C229 C227 1.419 . S
C229 C230 1.363 1_556 S
C229 H232 0.929 . S
C230 C229 1.363 1_554 S
C230 C236 1.428 . S
H231 C227 0.930 . S
H232 C229 0.929 . S
S233 N234 1.613 . S
S233 N235 1.610 . S
N234 S233 1.613 . S
N234 C237 1.350 . S
N235 S233 1.610 . S
N235 C236 1.351 . S
C236 C230 1.428 . S
C236 N235 1.351 . S
C236 C237 1.434 . S
C237 C228 1.429 1_554 S
C237 N234 1.350 . S
C237 C236 1.434 . S
C238 C239 1.369 . S
C238 C240 1.419 . S
C238 H242 0.930 . S
C239 C238 1.369 . S
C239 C248 1.429 . S
C240 C238 1.419 . S
C240 C241 1.363 . S
C240 H243 0.929 . S
C241 C240 1.363 . S
C241 C247 1.428 . S
H242 C238 0.930 . S
H243 C240 0.929 . S
S244 N245 1.613 . S
S244 N246 1.610 . S
N245 S244 1.613 . S
N245 C248 1.350 . S
N246 S244 1.610 . S
N246 C247 1.351 . S
C247 C241 1.428 . S
C247 N246 1.351 . S
C247 C248 1.434 . S
C248 C239 1.429 . S
C248 N245 1.350 . S
C248 C247 1.434 . S
C249 C250 1.369 . S
C249 C251 1.418 1_554 S
C249 H253 0.930 . S
C250 C249 1.369 . S
C250 C259 1.429 1_554 S
C251 C249 1.418 1_556 S
C251 C252 1.364 . S
C251 H254 0.929 1_556 S
C252 C251 1.364 . S
C252 C258 1.428 . S
H253 C249 0.930 . S
H254 C251 0.929 1_554 S
S255 N256 1.613 . S
S255 N257 1.610 . S
N256 S255 1.613 . S
N256 C259 1.350 . S
N257 S255 1.610 . S
N257 C258 1.351 . S
C258 C252 1.428 . S
C258 N257 1.351 . S
C258 C259 1.434 . S
C259 C250 1.429 1_556 S
C259 N256 1.350 . S
C259 C258 1.434 . S
C260 C261 1.369 1_565 S
C260 C262 1.419 . S
C260 H264 0.930 . S
C261 C260 1.369 1_545 S
C261 C270 1.429 1_654 S
C262 C260 1.419 . S
C262 C263 1.363 1_654 S
C262 H265 0.929 . S
C263 C262 1.363 1_456 S
C263 C269 1.428 1_565 S
H264 C260 0.930 . S
H265 C262 0.929 . S
S266 N267 1.613 . S
S266 N268 1.610 . S
N267 S266 1.613 . S
N267 C270 1.350 . S
N268 S266 1.610 . S
N268 C269 1.351 . S
C269 C263 1.428 1_545 S
C269 N268 1.351 . S
C269 C270 1.434 . S
C270 C261 1.429 1_456 S
C270 N267 1.350 . S
C270 C269 1.434 . S
C271 C272 1.369 1_565 S
C271 C273 1.419 1_455 S
C271 H275 0.930 . S
C272 C271 1.369 1_545 S
C272 C281 1.429 . S
C273 C271 1.419 1_655 S
C273 C274 1.363 . S
C273 H276 0.930 . S
C274 C273 1.363 . S
C274 C280 1.428 1_565 S
H275 C271 0.930 . S
H276 C273 0.930 . S
S277 N278 1.622 . S
S277 N279 1.610 . S
N278 S277 1.622 . S
N278 C281 1.349 1_655 S
N279 S277 1.610 . S
N279 C280 1.351 . S
C280 C274 1.428 1_545 S
C280 N279 1.351 . S
C280 C281 1.434 1_655 S
C281 C272 1.429 . S
C281 N278 1.349 1_455 S
C281 C280 1.434 1_455 S
C282 C283 1.369 1_556 S
C282 C284 1.419 . S
C282 H286 0.930 . S
C283 C282 1.369 1_554 S
C283 C292 1.429 . S
C284 C282 1.419 . S
C284 C285 1.363 . S
C284 H287 0.929 . S
C285 C284 1.363 . S
C285 C291 1.428 1_556 S
H286 C282 0.930 . S
H287 C284 0.929 . S
S288 N289 1.613 . S
S288 N290 1.610 . S
N289 S288 1.613 . S
N289 C292 1.350 . S
N290 S288 1.610 . S
N290 C291 1.351 . S
C291 C285 1.428 1_554 S
C291 N290 1.351 . S
C291 C292 1.434 . S
C292 C283 1.429 . S
C292 N289 1.350 . S
C292 C291 1.434 . S
C293 C294 1.369 . S
C293 C295 1.419 . S
C293 H297 0.930 . S
C294 C293 1.369 . S
C294 C303 1.429 . S
C295 C293 1.419 . S
C295 C296 1.363 . S
C295 H298 0.929 . S
C296 C295 1.363 . S
C296 C302 1.428 . S
H297 C293 0.930 . S
H298 C295 0.929 . S
S299 N300 1.613 . S
S299 N301 1.610 . S
N300 S299 1.613 . S
N300 C303 1.350 . S
N301 S299 1.610 . S
N301 C302 1.351 . S
C302 C296 1.428 . S
C302 N301 1.351 . S
C302 C303 1.434 . S
C303 C294 1.429 . S
C303 N300 1.350 . S
C303 C302 1.434 . S
C129 C27 1.354 . S
C131 C8 1.365 . S
C140 C55 1.354 . S
C142 C63 1.365 . S
C151 C91 1.354 . S
C153 C72 1.365 . S
C162 C127 1.358 . S
C164 C119 1.361 . S
C173 C24 1.278 . S
C175 C17 1.287 . S
C184 C40 1.285 . S
C186 C59 1.282 . S
C195 C81 1.286 . S
C197 C88 1.281 . S
C206 C123 1.287 . S
C208 C104 1.280 . S
C217 C120 1.605 . S
C219 C22 1.603 . S
C228 C126 1.541 . S
C230 C23 1.550 . S
C239 C86 1.605 . S
C241 C56 1.604 . S
C250 C87 1.543 . S
C252 C62 1.550 . S
C261 C30 1.832 . S
C263 C49 1.842 . S
C272 C31 2.193 . S
C274 C54 2.195 . S
C283 C94 1.842 . S
C285 C113 1.834 . S
C294 C118 2.191 . S
C296 C95 2.196 . S
