# Generated by pormake.
# Topology irl, (4)-cn, num edge types: 1
# Building blocks:
#     Node 0, Type 0, BuildingBlock: KUFVIS_clean_sbu_0, # of connection points: 4
#     Node 1, Type 0, BuildingBlock: KUFVIS_clean_sbu_0, # of connection points: 4
#     Node 2, Type 0, BuildingBlock: KUFVIS_clean_sbu_0, # of connection points: 4
#     Node 3, Type 0, BuildingBlock: KUFVIS_clean_sbu_0, # of connection points: 4
#     Node 4, Type 0, BuildingBlock: KUFVIS_clean_sbu_0, # of connection points: 4
#     Node 5, Type 0, BuildingBlock: KUFVIS_clean_sbu_0, # of connection points: 4
#     Node 6, Type 0, BuildingBlock: KUFVIS_clean_sbu_0, # of connection points: 4
#     Node 7, Type 0, BuildingBlock: KUFVIS_clean_sbu_0, # of connection points: 4
#     Edge 8, Type (0, 0), BuildingBlock: FUNLAD_clean_linker_0, # of connection points: 2
#     Edge 9, Type (0, 0), BuildingBlock: FUNLAD_clean_linker_0, # of connection points: 2
#     Edge 10, Type (0, 0), BuildingBlock: FUNLAD_clean_linker_0, # of connection points: 2
#     Edge 11, Type (0, 0), BuildingBlock: FUNLAD_clean_linker_0, # of connection points: 2
#     Edge 12, Type (0, 0), BuildingBlock: FUNLAD_clean_linker_0, # of connection points: 2
#     Edge 13, Type (0, 0), BuildingBlock: FUNLAD_clean_linker_0, # of connection points: 2
#     Edge 14, Type (0, 0), BuildingBlock: FUNLAD_clean_linker_0, # of connection points: 2
#     Edge 15, Type (0, 0), BuildingBlock: FUNLAD_clean_linker_0, # of connection points: 2
#     Edge 16, Type (0, 0), BuildingBlock: FUNLAD_clean_linker_0, # of connection points: 2
#     Edge 17, Type (0, 0), BuildingBlock: FUNLAD_clean_linker_0, # of connection points: 2
#     Edge 18, Type (0, 0), BuildingBlock: FUNLAD_clean_linker_0, # of connection points: 2
#     Edge 19, Type (0, 0), BuildingBlock: FUNLAD_clean_linker_0, # of connection points: 2
#     Edge 20, Type (0, 0), BuildingBlock: FUNLAD_clean_linker_0, # of connection points: 2
#     Edge 21, Type (0, 0), BuildingBlock: FUNLAD_clean_linker_0, # of connection points: 2
#     Edge 22, Type (0, 0), BuildingBlock: FUNLAD_clean_linker_0, # of connection points: 2
#     Edge 23, Type (0, 0), BuildingBlock: FUNLAD_clean_linker_0, # of connection points: 2
# Relax obj value: 0.101
# Max RMSD: 0.151
# Mean RMSD: 0.151
data_MOF--net-irl--node1-KUFVIS_clean_sbu_0--edge1-FUNLAD_clean_linker_0
_symmetry_space_group_name_H-M    P1
_symmetry_Int_Tables_number       1
_symmetry_cell_setting            triclinic
loop_
_symmetry_equiv_pos_as_xyz
'x, y, z'
_cell_length_a     39.729496
_cell_length_b     51.780856
_cell_length_c     32.168597
_cell_angle_alpha  89.938454
_cell_angle_beta   90.005177
_cell_angle_gamma 89.805097
loop_
_atom_site_label
_atom_site_type_symbol
_atom_site_fract_x
_atom_site_fract_y
_atom_site_fract_z
_atom_type_partial_charge
Mn0 Mn 0.06092 0.15633 0.00543 0.0
Mn1 Mn 0.03117 0.21751 0.00248 0.0
C2 C 0.04767 0.17733 0.06612 0.0
C3 C 0.0499 0.11217 0.00187 0.0
C4 C 0.10493 0.20379 -0.00921 0.0
O5 O 0.04771 0.1611 0.94523 0.0
O6 O 0.02441 0.2008 0.94762 0.0
C7 C 0.9587 0.20601 -0.00748 0.0
N8 N 0.98401 0.21751 0.01413 0.0
C9 C 0.94495 0.23488 0.06404 0.0
C10 C 0.91842 0.22337 0.04216 0.0
C11 C 0.92535 0.20883 0.00629 0.0
C12 C 0.97765 0.23151 0.04871 0.0
H13 H 0.96393 0.19474 0.96502 0.0
C14 C 0.0322 0.17996 0.92838 0.0
O15 O 0.07959 0.12123 -0.00671 0.0
O16 O 0.02689 0.12876 0.01216 0.0
N17 N 0.03578 0.23595 0.0537 0.0
C18 C 0.06433 0.24483 0.07223 0.0
C19 C 0.06186 0.25922 0.10909 0.0
C20 C 0.03009 0.26452 0.12631 0.0
C21 C 0.00104 0.25549 0.10635 0.0
C22 C 0.00505 0.24143 0.06951 0.0
H23 H 0.08882 0.24082 0.05915 0.0
O24 O 0.0675 0.15736 0.0668 0.0
O25 O 0.03568 0.18402 0.03014 0.0
O26 O 0.10214 0.17947 -0.0034 0.0
O27 O 0.07992 0.21939 -0.00871 0.0
C28 C 0.96831 0.25951 0.12197 0.0
C29 C 0.94029 0.24918 0.10087 0.0
H30 H 0.89268 0.22539 0.0528 0.0
H31 H 0.90503 0.19978 0.98936 0.0
H32 H 0.08439 0.26613 0.12428 0.0
H33 H 0.0283 0.2754 0.15496 0.0
H34 H 0.96443 0.27022 0.15048 0.0
H35 H 0.91529 0.2521 0.11347 0.0
Mn36 Mn 0.94205 0.84008 0.01386 0.0
Mn37 Mn 0.96808 0.77802 0.00979 0.0
C38 C 0.95438 0.81844 0.07433 0.0
C39 C 0.95527 0.88382 0.00917 0.0
C40 C 0.89514 0.79459 -0.00128 0.0
O41 O 0.95405 0.83481 0.95343 0.0
O42 O 0.97703 0.79496 0.95535 0.0
C43 C 0.04141 0.7867 0.00188 0.0
N44 N 0.015 0.77601 0.02258 0.0
C45 C 0.05199 0.75703 0.07345 0.0
C46 C 0.07962 0.76762 0.05243 0.0
C47 C 0.07429 0.78257 0.01655 0.0
C48 C 0.01983 0.76166 0.05721 0.0
H49 H 0.03741 0.79838 0.97448 0.0
C50 C 0.96952 0.816 0.93644 0.0
O51 O 0.92504 0.87555 0.00158 0.0
O52 O 0.97764 0.86669 0.01952 0.0
N53 N 0.96139 0.75942 0.06058 0.0
C54 C 0.93198 0.75161 0.07832 0.0
C55 C 0.93287 0.73704 0.11516 0.0
C56 C 0.96394 0.73052 0.13321 0.0
C57 C 0.99388 0.73848 0.1141 0.0
C58 C 0.99145 0.75273 0.0772 0.0
H59 H 0.908 0.75657 0.06464 0.0
O60 O 0.93614 0.83928 0.07528 0.0
O61 O 0.96573 0.81142 0.03818 0.0
O62 O 0.89949 0.81855 0.00614 0.0
O63 O 0.91923 0.77814 -0.00256 0.0
C64 C 0.02603 0.7332 0.13061 0.0
C65 C 0.05506 0.7425 0.11034 0.0
H66 H 0.105 0.76462 0.06379 0.0
H67 H 0.09546 0.79097 0.00032 0.0
H68 H 0.90965 0.73096 0.1297 0.0
H69 H 0.96451 0.71951 0.16186 0.0
H70 H 0.0287 0.72229 0.15918 0.0
H71 H 0.07961 0.73862 0.12364 0.0
Mn72 Mn 0.05389 0.85156 0.48648 0.0
Mn73 Mn 0.03124 0.78889 0.48881 0.0
C74 C 0.04221 0.83047 0.42532 0.0
C75 C 0.03703 0.8947 0.49241 0.0
C76 C 0.10296 0.80754 0.50165 0.0
O77 O 0.04274 0.84477 0.54708 0.0
O78 O 0.01963 0.80509 0.54287 0.0
C79 C 0.9572 0.7946 0.49362 0.0
N80 N 0.98495 0.78515 0.47392 0.0
C81 C 0.95091 0.76487 0.42148 0.0
C82 C 0.92194 0.77416 0.44147 0.0
C83 C 0.92511 0.78914 0.47763 0.0
C84 C 0.9822 0.77077 0.43905 0.0
H85 H 0.95955 0.8063 0.52122 0.0
C86 C 0.02694 0.82572 0.56284 0.0
O87 O 0.068 0.88776 0.49953 0.0
O88 O 0.01617 0.87662 0.4822 0.0
N89 N 0.04078 0.77118 0.4379 0.0
C90 C 0.07122 0.76514 0.42089 0.0
C91 C 0.07247 0.75102 0.38367 0.0
C92 C 0.04248 0.74315 0.36445 0.0
C93 C 0.01146 0.74939 0.38272 0.0
C94 C 0.01178 0.7633 0.42003 0.0
H95 H 0.09437 0.77115 0.43546 0.0
O96 O 0.05907 0.85189 0.42476 0.0
O97 O 0.03198 0.82259 0.46145 0.0
O98 O 0.09799 0.83128 0.49263 0.0
O99 O 0.07956 0.79069 0.50367 0.0
C100 C 0.98025 0.7428 0.36492 0.0
C101 C 0.94999 0.75055 0.38428 0.0
H102 H 0.89715 0.77016 0.42905 0.0
H103 H 0.90288 0.79655 0.49304 0.0
H104 H 0.09651 0.74631 0.36975 0.0
H105 H 0.04355 0.73249 0.33553 0.0
H106 H 0.97922 0.73211 0.33602 0.0
H107 H 0.92616 0.74571 0.36995 0.0
Mn108 Mn 0.94658 0.17144 0.47692 0.0
Mn109 Mn 0.96949 0.23421 0.47866 0.0
C110 C 0.95869 0.19228 0.41584 0.0
C111 C 0.96289 0.12823 0.48383 0.0
C112 C 0.89728 0.21616 0.48838 0.0
O113 O 0.95709 0.17818 0.53738 0.0
O114 O 0.97763 0.21861 0.53417 0.0
C115 C 0.04291 0.22725 0.48971 0.0
N116 N 0.01657 0.23694 0.46746 0.0
C117 C 0.05394 0.25576 0.41707 0.0
C118 C 0.08149 0.24615 0.4396 0.0
C119 C 0.07594 0.23179 0.47604 0.0
C120 C 0.02162 0.25073 0.43233 0.0
H121 H 0.03873 0.2161 0.51762 0.0
C122 C 0.97078 0.19783 0.55402 0.0
O123 O 0.93193 0.13541 0.49031 0.0
O124 O 0.98404 0.1461 0.47348 0.0
N125 N 0.96321 0.25177 0.42684 0.0
C126 C 0.93391 0.25886 0.40792 0.0
C127 C 0.93504 0.27288 0.37055 0.0
C128 C 0.96625 0.27966 0.35324 0.0
C129 C 0.99606 0.27252 0.37363 0.0
C130 C 0.99336 0.25877 0.41098 0.0
H131 H 0.90984 0.25371 0.42106 0.0
O132 O 0.94178 0.17089 0.41541 0.0
O133 O 0.96907 0.20029 0.45186 0.0
O134 O 0.90256 0.19209 0.48224 0.0
O135 O 0.9206 0.23311 0.48938 0.0
C136 C 0.02835 0.27815 0.35802 0.0
C137 C 0.05727 0.26974 0.37968 0.0
H138 H 0.107 0.24949 0.42904 0.0
H139 H 0.09706 0.22419 0.49347 0.0
H140 H 0.91192 0.27836 0.35505 0.0
H141 H 0.96702 0.29025 0.32421 0.0
H142 H 0.03123 0.28867 0.32913 0.0
H143 H 0.08195 0.27391 0.36711 0.0
Mn144 Mn 0.56159 0.65113 0.00068 0.0
Mn145 Mn 0.53867 0.7139 0.00425 0.0
C146 C 0.54779 0.6697 0.06334 0.0
C147 C 0.54656 0.60814 0.99007 0.0
C148 C 0.61107 0.69589 -0.00579 0.0
O149 O 0.5516 0.65993 0.94058 0.0
O150 O 0.53151 0.70048 0.94702 0.0
C151 C 0.46544 0.70817 0.9903 0.0
N152 N 0.49139 0.71664 0.0143 0.0
C153 C 0.45313 0.73382 0.06532 0.0
C154 C 0.42598 0.72544 0.04101 0.0
C155 C 0.43218 0.71252 0.00338 0.0
C156 C 0.48572 0.72908 0.05057 0.0
H157 H 0.47011 0.69813 0.96145 0.0
C158 C 0.53827 0.68031 0.92545 0.0
O159 O 0.57735 0.61588 0.9847 0.0
O160 O 0.52466 0.6254 0.00126 0.0
N161 N 0.54399 0.72922 0.05799 0.0
C162 C 0.57293 0.73491 0.07874 0.0
C163 C 0.57112 0.74725 0.11753 0.0
C164 C 0.53962 0.75376 0.13445 0.0
C165 C 0.51021 0.74799 0.11229 0.0
C166 C 0.51359 0.73587 0.0736 0.0
H167 H 0.59721 0.72993 0.06593 0.0
O168 O 0.56541 0.64855 0.06236 0.0
O169 O 0.53829 0.67899 0.02768 0.0
O170 O 0.60546 0.67172 -0.00226 0.0
O171 O 0.58782 0.71301 -0.00518 0.0
C172 C 0.47764 0.75334 0.12742 0.0
C173 C 0.44913 0.74624 0.10398 0.0
H174 H 0.40029 0.72862 0.05111 0.0
H175 H 0.41137 0.70588 0.98455 0.0
H176 H 0.59394 0.75164 0.13445 0.0
H177 H 0.53831 0.76303 0.16458 0.0
H178 H 0.47424 0.7626 0.15732 0.0
H179 H 0.42422 0.75015 0.1162 0.0
Mn180 Mn 0.43806 0.33779 0.01271 0.0
Mn181 Mn 0.46895 0.2774 0.02418 0.0
C182 C 0.44818 0.32203 0.07819 0.0
C183 C 0.44912 0.38135 0.00032 0.0
C184 C 0.39542 0.2889 0.00588 0.0
O185 O 0.4536 0.3284 0.95505 0.0
O186 O 0.47719 0.28944 0.96607 0.0
C187 C 0.54132 0.2896 0.0154 0.0
N188 N 0.51562 0.27943 0.03809 0.0
C189 C 0.55325 0.26798 0.09381 0.0
C190 C 0.58016 0.27814 0.07091 0.0
C191 C 0.57415 0.28903 0.03156 0.0
C192 C 0.52111 0.26894 0.07599 0.0
H193 H 0.53677 0.29812 0.98526 0.0
C194 C 0.46948 0.30852 0.94244 0.0
O195 O 0.41982 0.3715 -0.00811 0.0
O196 O 0.47162 0.36589 0.01564 0.0
N197 N 0.46309 0.26313 0.07861 0.0
C198 C 0.43424 0.25494 0.09727 0.0
C199 C 0.43579 0.24401 0.1372 0.0
C200 C 0.46698 0.2414 0.15736 0.0
C201 C 0.4964 0.24955 0.13724 0.0
C202 C 0.49333 0.26009 0.0973 0.0
H203 H 0.41018 0.25695 0.08199 0.0
O204 O 0.42848 0.34179 0.0729 0.0
O205 O 0.4624 0.31263 0.04498 0.0
O206 O 0.39758 0.31355 0.00627 0.0
O207 O 0.42066 0.27384 0.01121 0.0
C208 C 0.52856 0.24809 0.15557 0.0
C209 C 0.55695 0.25733 0.1339 0.0
H210 H 0.6055 0.27788 0.08336 0.0
H211 H 0.59477 0.29704 0.0138 0.0
H212 H 0.41297 0.23773 0.15249 0.0
H213 H 0.46803 0.23323 0.18835 0.0
H214 H 0.53168 0.24018 0.18653 0.0
H215 H 0.58149 0.25637 0.1485 0.0
Mn216 Mn 0.56176 0.35323 0.49223 0.0
Mn217 Mn 0.54457 0.28943 0.49116 0.0
C218 C 0.55331 0.33278 0.42977 0.0
C219 C 0.54169 0.39545 0.49972 0.0
C220 C 0.6144 0.31118 0.50541 0.0
O221 O 0.55017 0.34497 0.55211 0.0
O222 O 0.5329 0.30371 0.54674 0.0
C223 C 0.47037 0.29194 0.49798 0.0
N224 N 0.4984 0.28412 0.47708 0.0
C225 C 0.465 0.26369 0.42417 0.0
C226 C 0.43575 0.27136 0.44528 0.0
C227 C 0.43846 0.28559 0.4823 0.0
C228 C 0.4961 0.27043 0.44144 0.0
H229 H 0.47237 0.30298 0.52633 0.0
C230 C 0.53764 0.32447 0.5676 0.0
O231 O 0.57295 0.38966 0.50745 0.0
O232 O 0.52233 0.37674 0.48794 0.0
N233 N 0.55453 0.27308 0.43924 0.0
C234 C 0.58511 0.26837 0.42156 0.0
C235 C 0.58679 0.25497 0.38368 0.0
C236 C 0.55708 0.2464 0.36455 0.0
C237 C 0.52594 0.25119 0.38359 0.0
C238 C 0.52584 0.26444 0.42152 0.0
H239 H 0.60803 0.27494 0.43608 0.0
O240 O 0.56828 0.355 0.43097 0.0
O241 O 0.54267 0.32366 0.46509 0.0
O242 O 0.60734 0.33492 0.49887 0.0
O243 O 0.59272 0.29301 0.50508 0.0
C244 C 0.49495 0.2438 0.36601 0.0
C245 C 0.4645 0.25008 0.38626 0.0
H246 H 0.41109 0.26665 0.43315 0.0
H247 H 0.416 0.2917 0.49864 0.0
H248 H 0.61092 0.25135 0.36917 0.0
H249 H 0.55846 0.23631 0.33511 0.0
H250 H 0.49423 0.23362 0.33664 0.0
H251 H 0.44082 0.24461 0.37214 0.0
Mn252 Mn 0.43783 0.6686 0.4795 0.0
Mn253 Mn 0.45815 0.73172 0.47434 0.0
C254 C 0.44951 0.687 0.41611 0.0
C255 C 0.45601 0.62617 0.49076 0.0
C256 C 0.38671 0.71237 0.48669 0.0
O257 O 0.44811 0.67817 0.53916 0.0
O258 O 0.46743 0.71876 0.53146 0.0
C259 C 0.53191 0.7275 0.48529 0.0
N260 N 0.50498 0.73528 0.46222 0.0
C261 C 0.54108 0.75255 0.40903 0.0
C262 C 0.56922 0.74489 0.43237 0.0
C263 C 0.5646 0.73228 0.47063 0.0
C264 C 0.50912 0.74744 0.42538 0.0
H265 H 0.52846 0.71767 0.51461 0.0
C266 C 0.46134 0.6987 0.55358 0.0
O267 O 0.42475 0.63277 0.49661 0.0
O268 O 0.47636 0.64418 0.47874 0.0
N269 N 0.45069 0.74658 0.42059 0.0
C270 C 0.42096 0.75154 0.40095 0.0
C271 C 0.42119 0.76346 0.36172 0.0
C272 C 0.45193 0.77027 0.3432 0.0
C273 C 0.48217 0.76524 0.36421 0.0
C274 C 0.48036 0.75354 0.40342 0.0
H275 H 0.39726 0.74629 0.41497 0.0
O276 O 0.43322 0.66535 0.4181 0.0
O277 O 0.45925 0.69677 0.45129 0.0
O278 O 0.39291 0.68826 0.48264 0.0
O279 O 0.40937 0.72985 0.48592 0.0
C280 C 0.51406 0.77093 0.34745 0.0
C281 C 0.5435 0.76457 0.36983 0.0
H282 H 0.59448 0.74838 0.42104 0.0
H283 H 0.58619 0.72618 0.48871 0.0
H284 H 0.39774 0.76727 0.3457 0.0
H285 H 0.45201 0.77922 0.31275 0.0
H286 H 0.51625 0.77989 0.31714 0.0
H287 H 0.56788 0.76874 0.35638 0.0
C288 C 0.99652 0.91991 0.01696 0.0
C289 C 0.96409 0.9115 0.0061 0.0
C290 C 0.00499 0.94604 0.01449 0.0
C291 C 0.98125 0.96439 0.00065 0.0
C292 C 0.94881 0.95591 0.98995 0.0
C293 C 0.94031 0.92977 -0.00744 0.0
C294 C 0.98862 0.99257 -0.00117 0.0
C295 C 0.01992 1.00265 -0.0011 0.0
C296 C 0.0268 0.03093 -0.00104 0.0
C297 C 0.05865 0.03978 0.9864 0.0
C298 C 0.06631 0.06616 0.98709 0.0
C299 C 0.04225 0.08424 0.00054 0.0
H300 H 0.97852 0.04323 0.02435 0.0
C301 C 0.0105 0.0754 0.0134 0.0
C302 C 0.00291 0.04911 0.01289 0.0
H303 H 0.9915 0.0888 0.02442 0.0
H304 H 0.01535 0.90632 0.02785 0.0
H305 H 0.02992 0.95166 0.02434 0.0
H306 H 0.92988 0.96958 0.97956 0.0
H307 H 0.91509 0.92391 0.98403 0.0
H308 H 0.96707 0.0054 -0.00375 0.0
H309 H 0.04161 0.98989 -0.00231 0.0
H310 H 0.07769 0.02624 0.97597 0.0
H311 H 0.09104 0.07237 0.97714 0.0
C312 C 0.04775 0.94173 0.50692 0.0
C313 C 0.02563 0.92193 0.49512 0.0
C314 C 0.03663 0.96744 0.5086 0.0
C315 C 0.00314 0.97389 0.49811 0.0
C316 C 0.98105 0.95394 0.48708 0.0
C317 C 0.99212 0.92834 0.4855 0.0
C318 C 0.98991 1.00091 0.49849 0.0
C319 C 0.00952 0.02211 0.49708 0.0
C320 C 0.99632 0.0491 0.49455 0.0
C321 C 0.0184 0.06865 0.48167 0.0
C322 C 0.00745 0.09422 0.47829 0.0
C323 C 0.97406 0.101 0.48785 0.0
H324 H 0.9452 0.04178 0.51606 0.0
C325 C 0.95192 0.08162 0.50129 0.0
C326 C 0.96292 0.05595 0.50481 0.0
H327 H 0.92612 0.08628 0.50929 0.0
H328 H 0.07363 0.93737 0.51491 0.0
H329 H 0.05434 0.98198 0.51854 0.0
H330 H 0.9551 0.95819 0.47916 0.0
H331 H 0.97433 0.91357 0.47644 0.0
H332 H 0.96278 1.00314 0.49727 0.0
H333 H 0.03662 0.01978 0.49518 0.0
H334 H 0.04427 0.06412 0.47381 0.0
H335 H 0.02525 0.10867 0.46797 0.0
C336 C 0.50383 0.57286 -0.00596 0.0
C337 C 0.53678 0.5808 0.98477 0.0
C338 C 0.49475 0.54687 -0.00891 0.0
C339 C 0.51842 0.52818 0.97834 0.0
C340 C 0.55124 0.53626 0.96854 0.0
C341 C 0.56034 0.56225 0.97166 0.0
C342 C 0.51079 0.50002 0.97771 0.0
C343 C 0.47946 0.49001 0.97912 0.0
C344 C 0.47264 0.46182 0.98286 0.0
C345 C 0.44079 0.45228 0.97171 0.0
C346 C 0.43302 0.42609 0.97685 0.0
C347 C 0.45696 0.40895 -0.00648 0.0
H348 H 0.52087 0.45109 0.01016 0.0
C349 C 0.48877 0.41849 0.00467 0.0
C350 C 0.49649 0.44456 -0.00034 0.0
H351 H 0.50772 0.40586 0.01797 0.0
H352 H 0.48512 0.58667 0.00448 0.0
H353 H 0.46948 0.54163 8e-05 0.0
H354 H 0.57011 0.52233 0.95894 0.0
H355 H 0.58594 0.56775 0.9643 0.0
H356 H 0.53225 0.48705 0.97588 0.0
H357 H 0.45775 0.5027 0.97712 0.0
H358 H 0.42178 0.46515 0.95916 0.0
H359 H 0.40825 0.41934 0.96809 0.0
C360 C 0.54897 0.44238 0.5175 0.0
C361 C 0.52846 0.42214 0.50348 0.0
C362 C 0.53632 0.46763 0.51998 0.0
C363 C 0.50288 0.4732 0.50807 0.0
C364 C 0.48232 0.45277 0.49498 0.0
C365 C 0.49491 0.42759 0.49262 0.0
C366 C 0.4883 0.49981 0.50871 0.0
C367 C 0.50696 0.52152 0.5086 0.0
C368 C 0.49269 0.54816 0.5055 0.0
C369 C 0.51427 0.56821 0.49337 0.0
C370 C 0.50229 0.59343 0.48895 0.0
C371 C 0.46833 0.59938 0.49675 0.0
H372 H 0.44137 0.53958 0.52486 0.0
C373 C 0.44671 0.57953 0.50973 0.0
C374 C 0.45875 0.55418 0.51424 0.0
H375 H 0.42049 0.58355 0.51636 0.0
H376 H 0.57481 0.43874 0.52655 0.0
H377 H 0.55283 0.48252 0.53159 0.0
H378 H 0.45644 0.45632 0.48594 0.0
H379 H 0.47834 0.41243 0.48189 0.0
H380 H 0.46113 0.50132 0.50627 0.0
H381 H 0.53418 0.51992 0.50788 0.0
H382 H 0.54054 0.56432 0.48672 0.0
H383 H 0.51973 0.60826 0.47908 0.0
C384 C 0.05509 0.19484 0.13726 0.0
C385 C 0.03377 0.18719 0.10498 0.0
C386 C 0.04158 0.20269 0.17526 0.0
C387 C 0.00645 0.20256 0.18156 0.0
C388 C 0.98537 0.19446 0.14913 0.0
C389 C 0.99893 0.18667 0.11125 0.0
C390 C 0.99096 0.20758 0.22261 0.0
C391 C 0.00691 0.21893 0.25458 0.0
C392 C 0.99385 0.21664 0.29739 0.0
C393 C 0.01677 0.21182 0.32965 0.0
C394 C 0.00518 0.20474 0.36893 0.0
C395 C 0.97056 0.20317 0.37668 0.0
H396 H 0.94081 0.22039 0.28177 0.0
C397 C 0.94756 0.20897 0.34505 0.0
C398 C 0.95909 0.21611 0.30579 0.0
H399 H 0.92072 0.20761 0.35061 0.0
H400 H 0.08215 0.19463 0.13311 0.0
H401 H 0.05891 0.20782 0.19975 0.0
H402 H 0.95833 0.19368 0.15334 0.0
H403 H 0.98221 0.1799 0.08701 0.0
H404 H 0.96609 0.19946 0.22751 0.0
H405 H 0.03194 0.22687 0.25065 0.0
H406 H 0.04363 0.21207 0.32387 0.0
H407 H 0.02324 0.19964 0.39284 0.0
C408 C 0.05087 0.81392 0.35371 0.0
C409 C 0.02909 0.81993 0.38649 0.0
C410 C 0.03791 0.80608 0.31542 0.0
C411 C 0.00281 0.80456 0.3093 0.0
C412 C 0.98123 0.81071 0.34242 0.0
C413 C 0.99425 0.81852 0.38057 0.0
C414 C 0.98754 0.80003 0.26792 0.0
C415 C 0.00437 0.79068 0.23487 0.0
C416 C 0.99097 0.79357 0.1922 0.0
C417 C 0.01354 0.79949 0.16007 0.0
C418 C 0.00153 0.80676 0.12102 0.0
C419 C 0.96684 0.80747 0.11328 0.0
H420 H 0.93815 0.78812 0.20756 0.0
C421 C 0.94423 0.80063 0.14474 0.0
C422 C 0.95619 0.7933 0.18379 0.0
H423 H 0.91733 0.80129 0.13923 0.0
H424 H 0.07787 0.8156 0.3576 0.0
H425 H 0.05554 0.80241 0.29054 0.0
H426 H 0.95416 0.81015 0.33846 0.0
H427 H 0.97707 0.82397 0.40523 0.0
H428 H 0.96191 0.80696 0.26388 0.0
H429 H 0.03011 0.78393 0.23809 0.0
H430 H 0.04041 0.79986 0.16578 0.0
H431 H 0.01928 0.81265 0.0973 0.0
C432 C 0.0348 0.84228 0.63504 0.0
C433 C 0.01631 0.82746 0.60657 0.0
C434 C 0.0254 0.84303 0.67683 0.0
C435 C 0.99702 0.82934 0.69053 0.0
C436 C 0.97788 0.81531 0.66187 0.0
C437 C 0.98771 0.81405 0.62031 0.0
C438 C 0.98698 0.82929 0.73463 0.0
C439 C 0.0097 0.82702 0.76532 0.0
C440 C -0.00057 0.82469 0.80922 0.0
C441 C 0.01687 0.80763 0.8354 0.0
C442 C 0.00686 0.80447 0.87668 0.0
C443 C 0.97977 0.81888 0.89267 0.0
H444 H 0.95906 0.85294 0.80582 0.0
C445 C 0.96289 0.83647 0.86664 0.0
C446 C 0.97249 0.83924 0.8252 0.0
H447 H 0.94201 0.84791 0.87816 0.0
H448 H 0.05691 0.85284 0.6252 0.0
H449 H 0.0402 0.85439 0.69833 0.0
H450 H 0.95578 0.80478 0.67185 0.0
H451 H 0.97283 0.80267 0.59892 0.0
H452 H 0.96024 0.82872 0.74178 0.0
H453 H 0.03622 0.82463 0.75783 0.0
H454 H 0.03785 0.79637 0.82367 0.0
H455 H 0.02056 0.79098 0.89615 0.0
C456 C 0.00387 0.19754 0.86505 0.0
C457 C 0.02297 0.17793 0.88406 0.0
C458 C 0.99626 0.19629 0.82286 0.0
C459 C 0.00785 0.17549 0.79867 0.0
C460 C 0.02579 0.15541 0.81786 0.0
C461 C 0.03344 0.15663 0.86016 0.0
C462 C 0.0014 0.17426 0.75347 0.0
C463 C 0.99873 0.19568 0.72998 0.0
C464 C 0.99236 0.19519 0.68471 0.0
C465 C 0.00139 0.21681 0.66096 0.0
C466 C 0.99481 0.21755 0.61842 0.0
C467 C 0.97877 0.19671 0.5988 0.0
H468 H 0.968 0.15764 0.6826 0.0
C469 C 0.96974 0.17503 0.62261 0.0
C470 C 0.97632 0.17431 0.66516 0.0
H471 H 0.9571 0.15871 0.60857 0.0
H472 H 0.99484 0.21398 0.88265 0.0
H473 H 0.98116 0.2116 0.80941 0.0
H474 H 0.03456 0.13901 0.79991 0.0
H475 H 0.04794 0.14107 0.87391 0.0
H476 H 0.00091 0.15531 0.73908 0.0
H477 H 0.00277 0.21447 0.74408 0.0
H478 H 0.01357 0.23322 0.67537 0.0
H479 H 0.00211 0.23457 0.60106 0.0
C480 C 0.55374 0.68284 0.13725 0.0
C481 C 0.53317 0.67833 0.10271 0.0
C482 C 0.53941 0.68931 0.17551 0.0
C483 C 0.50415 0.69091 0.17984 0.0
C484 C 0.48375 0.68582 0.14521 0.0
C485 C 0.49812 0.67949 0.10701 0.0
C486 C 0.48762 0.69505 0.22061 0.0
C487 C 0.50287 0.70591 0.25359 0.0
C488 C 0.48817 0.70474 0.29588 0.0
C489 C 0.51 0.70225 0.32994 0.0
C490 C 0.49724 0.6974 0.36958 0.0
C491 C 0.46242 0.69574 0.37592 0.0
H492 H 0.43554 0.7066 0.27733 0.0
C493 C 0.44045 0.69909 0.34231 0.0
C494 C 0.45316 0.70397 0.30264 0.0
H495 H 0.41348 0.6976 0.34671 0.0
H496 H 0.58086 0.68124 0.13464 0.0
H497 H 0.55606 0.69204 0.20171 0.0
H498 H 0.45656 0.68642 0.14782 0.0
H499 H 0.48184 0.67511 0.08094 0.0
H500 H 0.46237 0.68737 0.22391 0.0
H501 H 0.52818 0.7135 0.25066 0.0
H502 H 0.53703 0.70279 0.32558 0.0
H503 H 0.5146 0.69411 0.39504 0.0
C504 C 0.50953 0.31796 0.38051 0.0
C505 C 0.54358 0.322 0.38949 0.0
C506 C 0.49966 0.31022 0.34083 0.0
C507 C 0.52372 0.30728 0.30896 0.0
C508 C 0.55789 0.31098 0.31843 0.0
C509 C 0.56771 0.31862 0.35822 0.0
C510 C 0.51426 0.30217 0.26505 0.0
C511 C 0.48364 0.30781 0.24945 0.0
C512 C 0.47585 0.30803 0.2044 0.0
C513 C 0.44201 0.30671 0.19202 0.0
C514 C 0.43311 0.31025 0.15045 0.0
C515 C 0.45796 0.31479 0.12048 0.0
H516 H 0.52695 0.31487 0.1825 0.0
C517 C 0.49177 0.31619 0.13256 0.0
C518 C 0.50075 0.31266 0.17414 0.0
H519 H 0.51111 0.32085 0.11004 0.0
H520 H 0.49048 0.32118 0.40406 0.0
H521 H 0.47319 0.30683 0.3355 0.0
H522 H 0.57696 0.30886 0.29458 0.0
H523 H 0.59409 0.32215 0.36451 0.0
H524 H 0.53407 0.29563 0.24429 0.0
H525 H 0.46355 0.31411 0.2699 0.0
H526 H 0.42231 0.30364 0.21477 0.0
H527 H 0.40676 0.30983 0.14175 0.0
C528 C 0.46717 0.32668 0.87048 0.0
C529 C 0.47884 0.30748 0.89792 0.0
C530 C 0.47523 0.32577 0.82837 0.0
C531 C 0.49559 0.30579 0.81262 0.0
C532 C 0.50694 0.2864 0.83982 0.0
C533 C 0.49876 0.28725 0.88211 0.0
C534 C 0.50441 0.30427 0.76784 0.0
C535 C 0.50561 0.32525 0.74309 0.0
C536 C 0.51374 0.32427 0.69812 0.0
C537 C 0.52563 0.34675 0.67875 0.0
C538 C 0.53318 0.34687 0.6364 0.0
C539 C 0.52872 0.32451 0.61229 0.0
H540 H 0.4985 0.28452 0.68739 0.0
C541 C 0.5162 0.3021 0.63153 0.0
C542 C 0.50871 0.30198 0.67396 0.0
H543 H 0.51216 0.28458 0.61387 0.0
H544 H 0.45136 0.34236 0.88135 0.0
H545 H 0.46483 0.34053 0.80827 0.0
H546 H 0.52235 0.27063 0.82839 0.0
H547 H 0.50806 0.27208 0.90232 0.0
H548 H 0.51139 0.28548 0.75558 0.0
H549 H 0.5019 0.34429 0.7565 0.0
H550 H 0.52935 0.36428 0.69653 0.0
H551 H 0.54262 0.36453 0.62267 0.0
C552 C 0.51278 0.70182 0.86309 0.0
C553 C 0.52967 0.68055 0.8807 0.0
C554 C 0.50423 0.70192 0.82101 0.0
C555 C 0.51265 0.68081 0.79549 0.0
C556 C 0.52922 0.6595 0.81314 0.0
C557 C 0.53776 0.65937 0.85522 0.0
C558 C 0.50341 0.67987 0.75086 0.0
C559 C 0.49784 0.7011 0.72762 0.0
C560 C 0.48833 0.69995 0.68309 0.0
C561 C 0.49549 0.72114 0.65742 0.0
C562 C 0.48678 0.72079 0.61537 0.0
C563 C 0.47042 0.69925 0.59818 0.0
H564 H 0.46437 0.66224 0.68515 0.0
C565 C 0.46277 0.67819 0.6241 0.0
C566 C 0.47146 0.67857 0.6661 0.0
H567 H 0.44986 0.66139 0.61207 0.0
H568 H 0.50577 0.71834 0.88186 0.0
H569 H 0.49041 0.71834 0.809 0.0
H570 H 0.5357 0.64288 0.79427 0.0
H571 H 0.55063 0.6426 0.86772 0.0
H572 H 0.50264 0.66094 0.73639 0.0
H573 H 0.50186 0.7201 0.74092 0.0
H574 H 0.50814 0.73796 0.66984 0.0
H575 H 0.49299 0.73739 0.59638 0.0
C576 C 0.33287 0.29186 -0.00587 0.0
C577 C 0.36193 0.27678 0.00047 0.0
C578 C 0.30124 0.28022 -0.00904 0.0
C579 C 0.29803 0.25318 -0.00607 0.0
C580 C 0.32706 0.23819 7e-05 0.0
C581 C 0.3586 0.24978 0.00309 0.0
C582 C 0.26493 0.23991 -0.00675 0.0
C583 C 0.23702 0.24992 0.97569 0.0
C584 C 0.2036 0.23716 0.97763 0.0
C585 C 0.17464 0.25257 0.97454 0.0
C586 C 0.1427 0.24167 0.97816 0.0
C587 C 0.1389 0.21495 0.9846 0.0
H588 H 0.22152 0.19755 0.98364 0.0
C589 C 0.16789 0.19933 0.98622 0.0
C590 C 0.1999 0.21028 0.98265 0.0
H591 H 0.16593 0.17865 0.99066 0.0
H592 H 0.33444 0.31271 -0.00775 0.0
H593 H 0.27943 0.29258 0.98746 0.0
H594 H 0.32534 0.21737 0.00279 0.0
H595 H 0.38031 0.23746 0.00813 0.0
H596 H 0.26378 0.22116 0.00829 0.0
H597 H 0.2381 0.2687 0.96074 0.0
H598 H 0.1767 0.27327 0.97024 0.0
H599 H 0.121 0.25435 0.97646 0.0
C600 C 0.65311 0.73036 0.97778 0.0
C601 C 0.64631 0.70483 0.99003 0.0
C602 C 0.68618 0.73926 0.97514 0.0
C603 C 0.71337 0.72294 0.98542 0.0
C604 C 0.70658 0.69724 -0.00333 0.0
C605 C 0.67346 0.68826 -0.00107 0.0
C606 C 0.74904 0.73179 0.98468 0.0
C607 C 0.75822 0.75688 0.98523 0.0
C608 C 0.79374 0.766 0.98681 0.0
C609 C 0.79976 0.79186 -0.00242 0.0
C610 C 0.83256 0.80128 0.00066 0.0
C611 C 0.86028 0.78504 -0.00699 0.0
H612 H 0.81824 0.73013 0.96806 0.0
C613 C 0.85432 0.75931 0.98119 0.0
C614 C 0.82147 0.74992 0.97785 0.0
H615 H 0.87504 0.7463 0.9746 0.0
H616 H 0.63284 0.74355 0.97004 0.0
H617 H 0.69002 0.75887 0.9647 0.0
H618 H 0.72695 0.68412 0.00434 0.0
H619 H 0.66917 0.66846 0.00838 0.0
H620 H 0.7682 0.71686 0.98611 0.0
H621 H 0.73895 0.77171 0.98695 0.0
H622 H 0.77897 0.80481 0.00428 0.0
H623 H 0.83613 0.82122 0.00978 0.0
C624 C 0.16301 0.80472 0.47947 0.0
C625 C 0.13768 0.79838 0.50809 0.0
C626 C 0.19507 0.79368 0.48306 0.0
C627 C 0.20246 0.7767 0.51597 0.0
C628 C 0.17753 0.77123 0.5455 0.0
C629 C 0.14517 0.78157 0.54113 0.0
C630 C 0.23617 0.76478 0.52009 0.0
C631 C 0.25144 0.75314 0.4878 0.0
C632 C 0.28545 0.74145 0.49095 0.0
C633 C 0.29302 0.71905 0.46817 0.0
C634 C 0.32563 0.70872 0.46845 0.0
C635 C 0.35143 0.72112 0.49051 0.0
H636 H 0.30611 0.77091 0.53137 0.0
C637 C 0.34376 0.74341 0.51359 0.0
C638 C 0.31103 0.75335 0.51414 0.0
H639 H 0.36323 0.7534 0.53075 0.0
H640 H 0.15766 0.81746 0.45355 0.0
H641 H 0.21412 0.79846 0.46025 0.0
H642 H 0.18282 0.75833 0.57125 0.0
H643 H 0.12594 0.77641 0.5635 0.0
H644 H 0.2477 0.76426 0.55072 0.0
H645 H 0.23812 0.7514 0.4584 0.0
H646 H 0.27374 0.70967 0.44983 0.0
H647 H 0.33097 0.6917 0.45 0.0
C648 C 0.67418 0.30979 0.48233 0.0
C649 C 0.64964 0.30363 0.51203 0.0
C650 C 0.70666 0.29951 0.48573 0.0
C651 C 0.71516 0.28346 0.51945 0.0
C652 C 0.69104 0.27838 0.55016 0.0
C653 C 0.65829 0.28797 0.54605 0.0
C654 C 0.74899 0.27172 0.52288 0.0
C655 C 0.76338 0.25943 0.49061 0.0
C656 C 0.7971 0.24724 0.49328 0.0
C657 C 0.80379 0.2247 0.47046 0.0
C658 C 0.83603 0.21374 0.47049 0.0
C659 C 0.86233 0.2256 0.49243 0.0
H660 H 0.81896 0.2763 0.53353 0.0
C661 C 0.85551 0.24802 0.51558 0.0
C662 C 0.82317 0.25864 0.51628 0.0
H663 H 0.87536 0.25762 0.53267 0.0
H664 H 0.66783 0.32164 0.45564 0.0
H665 H 0.72508 0.30396 0.46198 0.0
H666 H 0.69719 0.26618 0.57649 0.0
H667 H 0.6396 0.28293 0.56917 0.0
H668 H 0.76109 0.27155 0.55318 0.0
H669 H 0.7494 0.25734 0.46174 0.0
H670 H 0.78411 0.21569 0.45229 0.0
H671 H 0.84069 0.19663 0.45198 0.0
loop_
_geom_bond_atom_site_label_1
_geom_bond_atom_site_label_2
_geom_bond_distance
_geom_bond_site_symmetry_2
_ccdc_geom_bond_type
Mn0 O5 2.095 1_554 S
Mn0 O15 2.162 . S
Mn0 O16 2.297 . S
Mn0 O24 2.385 . S
Mn0 O25 2.209 . S
Mn0 O26 2.094 . S
Mn1 O6 2.121 1_554 S
Mn1 N8 2.257 1_455 S
Mn1 N17 2.282 . S
Mn1 O25 2.215 . S
Mn1 O27 2.117 . S
C2 O24 1.234 . S
C2 O25 1.283 . S
C3 O15 1.281 . S
C3 O16 1.236 . S
C4 O26 1.240 . S
C4 O27 1.264 . S
O5 Mn0 2.095 1_556 S
O5 C14 1.250 . S
O6 Mn1 2.121 1_556 S
O6 C14 1.258 . S
C7 N8 1.326 . S
C7 C11 1.460 . S
C7 H13 0.929 1_554 S
N8 Mn1 2.257 1_655 S
N8 C7 1.326 . S
N8 C12 1.362 . S
C9 C10 1.258 . S
C9 C12 1.431 . S
C9 C29 1.449 . S
C10 C9 1.258 . S
C10 C11 1.477 . S
C10 H30 0.931 . S
C11 C7 1.460 . S
C11 C10 1.477 . S
C11 H31 0.930 . S
C12 N8 1.362 . S
C12 C9 1.431 . S
C12 C22 1.476 1_655 S
H13 C7 0.929 1_556 S
C14 O5 1.250 . S
C14 O6 1.258 . S
O15 Mn0 2.162 . S
O15 C3 1.281 . S
O16 Mn0 2.297 . S
O16 C3 1.236 . S
N17 Mn1 2.282 . S
N17 C18 1.328 . S
N17 C22 1.318 . S
C18 N17 1.328 . S
C18 C19 1.457 . S
C18 H23 0.929 . S
C19 C18 1.457 . S
C19 C20 1.291 . S
C19 H32 0.931 . S
C20 C19 1.291 . S
C20 C21 1.373 . S
C20 H33 0.929 . S
C21 C20 1.373 . S
C21 C22 1.396 . S
C21 C28 1.403 1_455 S
C22 C12 1.476 1_455 S
C22 N17 1.318 . S
C22 C21 1.396 . S
H23 C18 0.929 . S
O24 Mn0 2.385 . S
O24 C2 1.234 . S
O25 Mn0 2.209 . S
O25 Mn1 2.215 . S
O25 C2 1.283 . S
O26 Mn0 2.094 . S
O26 C4 1.240 . S
O27 Mn1 2.117 . S
O27 C4 1.264 . S
C28 C21 1.403 1_655 S
C28 C29 1.399 . S
C28 H34 0.929 . S
C29 C9 1.449 . S
C29 C28 1.399 . S
C29 H35 0.930 . S
H30 C10 0.931 . S
H31 C11 0.930 . S
H32 C19 0.931 . S
H33 C20 0.929 . S
H34 C28 0.929 . S
H35 C29 0.930 . S
Mn36 O41 2.095 1_554 S
Mn36 O51 2.162 . S
Mn36 O52 2.297 . S
Mn36 O60 2.385 . S
Mn36 O61 2.209 . S
Mn36 O62 2.094 . S
Mn37 O42 2.121 1_554 S
Mn37 N44 2.257 1_655 S
Mn37 N53 2.282 . S
Mn37 O61 2.215 . S
Mn37 O63 2.117 . S
C38 O60 1.234 . S
C38 O61 1.283 . S
C39 O51 1.281 . S
C39 O52 1.236 . S
C40 O62 1.240 . S
C40 O63 1.264 . S
O41 Mn36 2.095 1_556 S
O41 C50 1.250 . S
O42 Mn37 2.121 1_556 S
O42 C50 1.258 . S
C43 N44 1.326 . S
C43 C47 1.460 . S
C43 H49 0.929 1_554 S
N44 Mn37 2.257 1_455 S
N44 C43 1.326 . S
N44 C48 1.362 . S
C45 C46 1.258 . S
C45 C48 1.431 . S
C45 C65 1.449 . S
C46 C45 1.258 . S
C46 C47 1.477 . S
C46 H66 0.931 . S
C47 C43 1.460 . S
C47 C46 1.477 . S
C47 H67 0.930 . S
C48 N44 1.362 . S
C48 C45 1.431 . S
C48 C58 1.476 1_455 S
H49 C43 0.929 1_556 S
C50 O41 1.250 . S
C50 O42 1.258 . S
O51 Mn36 2.162 . S
O51 C39 1.281 . S
O52 Mn36 2.297 . S
O52 C39 1.236 . S
N53 Mn37 2.282 . S
N53 C54 1.328 . S
N53 C58 1.318 . S
C54 N53 1.328 . S
C54 C55 1.457 . S
C54 H59 0.929 . S
C55 C54 1.457 . S
C55 C56 1.291 . S
C55 H68 0.931 . S
C56 C55 1.291 . S
C56 C57 1.373 . S
C56 H69 0.929 . S
C57 C56 1.373 . S
C57 C58 1.396 . S
C57 C64 1.403 1_655 S
C58 C48 1.476 1_655 S
C58 N53 1.318 . S
C58 C57 1.396 . S
H59 C54 0.929 . S
O60 Mn36 2.385 . S
O60 C38 1.234 . S
O61 Mn36 2.209 . S
O61 Mn37 2.215 . S
O61 C38 1.283 . S
O62 Mn36 2.094 . S
O62 C40 1.240 . S
O63 Mn37 2.117 . S
O63 C40 1.264 . S
C64 C57 1.403 1_455 S
C64 C65 1.399 . S
C64 H70 0.929 . S
C65 C45 1.449 . S
C65 C64 1.399 . S
C65 H71 0.930 . S
H66 C46 0.931 . S
H67 C47 0.930 . S
H68 C55 0.931 . S
H69 C56 0.929 . S
H70 C64 0.929 . S
H71 C65 0.930 . S
Mn72 O77 2.095 . S
Mn72 O87 2.162 . S
Mn72 O88 2.297 . S
Mn72 O96 2.385 . S
Mn72 O97 2.209 . S
Mn72 O98 2.094 . S
Mn73 O78 2.121 . S
Mn73 N80 2.257 1_455 S
Mn73 N89 2.282 . S
Mn73 O97 2.215 . S
Mn73 O99 2.117 . S
C74 O96 1.234 . S
C74 O97 1.283 . S
C75 O87 1.281 . S
C75 O88 1.236 . S
C76 O98 1.240 . S
C76 O99 1.264 . S
O77 Mn72 2.095 . S
O77 C86 1.250 . S
O78 Mn73 2.121 . S
O78 C86 1.258 . S
C79 N80 1.326 . S
C79 C83 1.460 . S
C79 H85 0.929 . S
N80 Mn73 2.257 1_655 S
N80 C79 1.326 . S
N80 C84 1.362 . S
C81 C82 1.258 . S
C81 C84 1.431 . S
C81 C101 1.449 . S
C82 C81 1.258 . S
C82 C83 1.477 . S
C82 H102 0.931 . S
C83 C79 1.460 . S
C83 C82 1.477 . S
C83 H103 0.930 . S
C84 N80 1.362 . S
C84 C81 1.431 . S
C84 C94 1.476 1_655 S
H85 C79 0.929 . S
C86 O77 1.250 . S
C86 O78 1.258 . S
O87 Mn72 2.162 . S
O87 C75 1.281 . S
O88 Mn72 2.297 . S
O88 C75 1.236 . S
N89 Mn73 2.282 . S
N89 C90 1.328 . S
N89 C94 1.318 . S
C90 N89 1.328 . S
C90 C91 1.457 . S
C90 H95 0.929 . S
C91 C90 1.457 . S
C91 C92 1.291 . S
C91 H104 0.931 . S
C92 C91 1.291 . S
C92 C93 1.373 . S
C92 H105 0.929 . S
C93 C92 1.373 . S
C93 C94 1.396 . S
C93 C100 1.403 1_455 S
C94 C84 1.476 1_455 S
C94 N89 1.318 . S
C94 C93 1.396 . S
H95 C90 0.929 . S
O96 Mn72 2.385 . S
O96 C74 1.234 . S
O97 Mn72 2.209 . S
O97 Mn73 2.215 . S
O97 C74 1.283 . S
O98 Mn72 2.094 . S
O98 C76 1.240 . S
O99 Mn73 2.117 . S
O99 C76 1.264 . S
C100 C93 1.403 1_655 S
C100 C101 1.399 . S
C100 H106 0.929 . S
C101 C81 1.449 . S
C101 C100 1.399 . S
C101 H107 0.930 . S
H102 C82 0.931 . S
H103 C83 0.930 . S
H104 C91 0.931 . S
H105 C92 0.929 . S
H106 C100 0.929 . S
H107 C101 0.930 . S
Mn108 O113 2.095 . S
Mn108 O123 2.162 . S
Mn108 O124 2.297 . S
Mn108 O132 2.385 . S
Mn108 O133 2.209 . S
Mn108 O134 2.094 . S
Mn109 O114 2.121 . S
Mn109 N116 2.257 1_655 S
Mn109 N125 2.282 . S
Mn109 O133 2.215 . S
Mn109 O135 2.117 . S
C110 O132 1.234 . S
C110 O133 1.283 . S
C111 O123 1.281 . S
C111 O124 1.236 . S
C112 O134 1.240 . S
C112 O135 1.264 . S
O113 Mn108 2.095 . S
O113 C122 1.250 . S
O114 Mn109 2.121 . S
O114 C122 1.258 . S
C115 N116 1.326 . S
C115 C119 1.460 . S
C115 H121 0.929 . S
N116 Mn109 2.257 1_455 S
N116 C115 1.326 . S
N116 C120 1.362 . S
C117 C118 1.258 . S
C117 C120 1.431 . S
C117 C137 1.449 . S
C118 C117 1.258 . S
C118 C119 1.477 . S
C118 H138 0.931 . S
C119 C115 1.460 . S
C119 C118 1.477 . S
C119 H139 0.930 . S
C120 N116 1.362 . S
C120 C117 1.431 . S
C120 C130 1.476 1_455 S
H121 C115 0.929 . S
C122 O113 1.250 . S
C122 O114 1.258 . S
O123 Mn108 2.162 . S
O123 C111 1.281 . S
O124 Mn108 2.297 . S
O124 C111 1.236 . S
N125 Mn109 2.282 . S
N125 C126 1.328 . S
N125 C130 1.318 . S
C126 N125 1.328 . S
C126 C127 1.457 . S
C126 H131 0.929 . S
C127 C126 1.457 . S
C127 C128 1.291 . S
C127 H140 0.931 . S
C128 C127 1.291 . S
C128 C129 1.373 . S
C128 H141 0.929 . S
C129 C128 1.373 . S
C129 C130 1.396 . S
C129 C136 1.403 1_655 S
C130 C120 1.476 1_655 S
C130 N125 1.318 . S
C130 C129 1.396 . S
H131 C126 0.929 . S
O132 Mn108 2.385 . S
O132 C110 1.234 . S
O133 Mn108 2.209 . S
O133 Mn109 2.215 . S
O133 C110 1.283 . S
O134 Mn108 2.094 . S
O134 C112 1.240 . S
O135 Mn109 2.117 . S
O135 C112 1.264 . S
C136 C129 1.403 1_455 S
C136 C137 1.399 . S
C136 H142 0.929 . S
C137 C117 1.449 . S
C137 C136 1.399 . S
C137 H143 0.930 . S
H138 C118 0.931 . S
H139 C119 0.930 . S
H140 C127 0.931 . S
H141 C128 0.929 . S
H142 C136 0.929 . S
H143 C137 0.930 . S
Mn144 O149 2.095 1_554 S
Mn144 O159 2.162 . S
Mn144 O160 2.297 . S
Mn144 O168 2.385 . S
Mn144 O169 2.209 . S
Mn144 O170 2.094 . S
Mn145 O150 2.121 1_554 S
Mn145 N152 2.257 . S
Mn145 N161 2.282 . S
Mn145 O169 2.215 . S
Mn145 O171 2.117 . S
C146 O168 1.234 . S
C146 O169 1.283 . S
C147 O159 1.281 . S
C147 O160 1.236 . S
C148 O170 1.240 . S
C148 O171 1.264 . S
O149 Mn144 2.095 1_556 S
O149 C158 1.250 . S
O150 Mn145 2.121 1_556 S
O150 C158 1.258 . S
C151 N152 1.326 . S
C151 C155 1.460 . S
C151 H157 0.929 1_554 S
N152 Mn145 2.257 . S
N152 C151 1.326 . S
N152 C156 1.362 . S
C153 C154 1.258 . S
C153 C156 1.431 . S
C153 C173 1.449 . S
C154 C153 1.258 . S
C154 C155 1.477 . S
C154 H174 0.931 . S
C155 C151 1.460 . S
C155 C154 1.477 . S
C155 H175 0.930 . S
C156 N152 1.362 . S
C156 C153 1.431 . S
C156 C166 1.476 . S
H157 C151 0.929 1_556 S
C158 O149 1.250 . S
C158 O150 1.258 . S
O159 Mn144 2.162 . S
O159 C147 1.281 . S
O160 Mn144 2.297 . S
O160 C147 1.236 . S
N161 Mn145 2.282 . S
N161 C162 1.328 . S
N161 C166 1.318 . S
C162 N161 1.328 . S
C162 C163 1.457 . S
C162 H167 0.929 . S
C163 C162 1.457 . S
C163 C164 1.291 . S
C163 H176 0.931 . S
C164 C163 1.291 . S
C164 C165 1.373 . S
C164 H177 0.929 . S
C165 C164 1.373 . S
C165 C166 1.396 . S
C165 C172 1.403 . S
C166 C156 1.476 . S
C166 N161 1.318 . S
C166 C165 1.396 . S
H167 C162 0.929 . S
O168 Mn144 2.385 . S
O168 C146 1.234 . S
O169 Mn144 2.209 . S
O169 Mn145 2.215 . S
O169 C146 1.283 . S
O170 Mn144 2.094 . S
O170 C148 1.240 . S
O171 Mn145 2.117 . S
O171 C148 1.264 . S
C172 C165 1.403 . S
C172 C173 1.399 . S
C172 H178 0.929 . S
C173 C153 1.449 . S
C173 C172 1.399 . S
C173 H179 0.930 . S
H174 C154 0.931 . S
H175 C155 0.930 . S
H176 C163 0.931 . S
H177 C164 0.929 . S
H178 C172 0.929 . S
H179 C173 0.930 . S
Mn180 O185 2.095 1_554 S
Mn180 O195 2.162 . S
Mn180 O196 2.297 . S
Mn180 O204 2.385 . S
Mn180 O205 2.209 . S
Mn180 O206 2.094 . S
Mn181 O186 2.121 1_554 S
Mn181 N188 2.257 . S
Mn181 N197 2.282 . S
Mn181 O205 2.215 . S
Mn181 O207 2.117 . S
C182 O204 1.234 . S
C182 O205 1.283 . S
C183 O195 1.281 . S
C183 O196 1.236 . S
C184 O206 1.240 . S
C184 O207 1.264 . S
O185 Mn180 2.095 1_556 S
O185 C194 1.250 . S
O186 Mn181 2.121 1_556 S
O186 C194 1.258 . S
C187 N188 1.326 . S
C187 C191 1.460 . S
C187 H193 0.929 1_554 S
N188 Mn181 2.257 . S
N188 C187 1.326 . S
N188 C192 1.362 . S
C189 C190 1.258 . S
C189 C192 1.431 . S
C189 C209 1.449 . S
C190 C189 1.258 . S
C190 C191 1.477 . S
C190 H210 0.931 . S
C191 C187 1.460 . S
C191 C190 1.477 . S
C191 H211 0.930 . S
C192 N188 1.362 . S
C192 C189 1.431 . S
C192 C202 1.476 . S
H193 C187 0.929 1_556 S
C194 O185 1.250 . S
C194 O186 1.258 . S
O195 Mn180 2.162 . S
O195 C183 1.281 . S
O196 Mn180 2.297 . S
O196 C183 1.236 . S
N197 Mn181 2.282 . S
N197 C198 1.328 . S
N197 C202 1.318 . S
C198 N197 1.328 . S
C198 C199 1.457 . S
C198 H203 0.929 . S
C199 C198 1.457 . S
C199 C200 1.291 . S
C199 H212 0.931 . S
C200 C199 1.291 . S
C200 C201 1.373 . S
C200 H213 0.929 . S
C201 C200 1.373 . S
C201 C202 1.396 . S
C201 C208 1.403 . S
C202 C192 1.476 . S
C202 N197 1.318 . S
C202 C201 1.396 . S
H203 C198 0.929 . S
O204 Mn180 2.385 . S
O204 C182 1.234 . S
O205 Mn180 2.209 . S
O205 Mn181 2.215 . S
O205 C182 1.283 . S
O206 Mn180 2.094 . S
O206 C184 1.240 . S
O207 Mn181 2.117 . S
O207 C184 1.264 . S
C208 C201 1.403 . S
C208 C209 1.399 . S
C208 H214 0.929 . S
C209 C189 1.449 . S
C209 C208 1.399 . S
C209 H215 0.930 . S
H210 C190 0.931 . S
H211 C191 0.930 . S
H212 C199 0.931 . S
H213 C200 0.929 . S
H214 C208 0.929 . S
H215 C209 0.930 . S
Mn216 O221 2.095 . S
Mn216 O231 2.162 . S
Mn216 O232 2.297 . S
Mn216 O240 2.385 . S
Mn216 O241 2.209 . S
Mn216 O242 2.094 . S
Mn217 O222 2.121 . S
Mn217 N224 2.257 . S
Mn217 N233 2.282 . S
Mn217 O241 2.215 . S
Mn217 O243 2.117 . S
C218 O240 1.234 . S
C218 O241 1.283 . S
C219 O231 1.281 . S
C219 O232 1.236 . S
C220 O242 1.240 . S
C220 O243 1.264 . S
O221 Mn216 2.095 . S
O221 C230 1.250 . S
O222 Mn217 2.121 . S
O222 C230 1.258 . S
C223 N224 1.326 . S
C223 C227 1.460 . S
C223 H229 0.929 . S
N224 Mn217 2.257 . S
N224 C223 1.326 . S
N224 C228 1.362 . S
C225 C226 1.258 . S
C225 C228 1.431 . S
C225 C245 1.449 . S
C226 C225 1.258 . S
C226 C227 1.477 . S
C226 H246 0.931 . S
C227 C223 1.460 . S
C227 C226 1.477 . S
C227 H247 0.930 . S
C228 N224 1.362 . S
C228 C225 1.431 . S
C228 C238 1.476 . S
H229 C223 0.929 . S
C230 O221 1.250 . S
C230 O222 1.258 . S
O231 Mn216 2.162 . S
O231 C219 1.281 . S
O232 Mn216 2.297 . S
O232 C219 1.236 . S
N233 Mn217 2.282 . S
N233 C234 1.328 . S
N233 C238 1.318 . S
C234 N233 1.328 . S
C234 C235 1.457 . S
C234 H239 0.929 . S
C235 C234 1.457 . S
C235 C236 1.291 . S
C235 H248 0.931 . S
C236 C235 1.291 . S
C236 C237 1.373 . S
C236 H249 0.929 . S
C237 C236 1.373 . S
C237 C238 1.396 . S
C237 C244 1.403 . S
C238 C228 1.476 . S
C238 N233 1.318 . S
C238 C237 1.396 . S
H239 C234 0.929 . S
O240 Mn216 2.385 . S
O240 C218 1.234 . S
O241 Mn216 2.209 . S
O241 Mn217 2.215 . S
O241 C218 1.283 . S
O242 Mn216 2.094 . S
O242 C220 1.240 . S
O243 Mn217 2.117 . S
O243 C220 1.264 . S
C244 C237 1.403 . S
C244 C245 1.399 . S
C244 H250 0.929 . S
C245 C225 1.449 . S
C245 C244 1.399 . S
C245 H251 0.930 . S
H246 C226 0.931 . S
H247 C227 0.930 . S
H248 C235 0.931 . S
H249 C236 0.929 . S
H250 C244 0.929 . S
H251 C245 0.930 . S
Mn252 O257 2.095 . S
Mn252 O267 2.162 . S
Mn252 O268 2.297 . S
Mn252 O276 2.385 . S
Mn252 O277 2.209 . S
Mn252 O278 2.094 . S
Mn253 O258 2.121 . S
Mn253 N260 2.257 . S
Mn253 N269 2.282 . S
Mn253 O277 2.215 . S
Mn253 O279 2.117 . S
C254 O276 1.234 . S
C254 O277 1.283 . S
C255 O267 1.281 . S
C255 O268 1.236 . S
C256 O278 1.240 . S
C256 O279 1.264 . S
O257 Mn252 2.095 . S
O257 C266 1.250 . S
O258 Mn253 2.121 . S
O258 C266 1.258 . S
C259 N260 1.326 . S
C259 C263 1.460 . S
C259 H265 0.929 . S
N260 Mn253 2.257 . S
N260 C259 1.326 . S
N260 C264 1.362 . S
C261 C262 1.258 . S
C261 C264 1.431 . S
C261 C281 1.449 . S
C262 C261 1.258 . S
C262 C263 1.477 . S
C262 H282 0.931 . S
C263 C259 1.460 . S
C263 C262 1.477 . S
C263 H283 0.930 . S
C264 N260 1.362 . S
C264 C261 1.431 . S
C264 C274 1.476 . S
H265 C259 0.929 . S
C266 O257 1.250 . S
C266 O258 1.258 . S
O267 Mn252 2.162 . S
O267 C255 1.281 . S
O268 Mn252 2.297 . S
O268 C255 1.236 . S
N269 Mn253 2.282 . S
N269 C270 1.328 . S
N269 C274 1.318 . S
C270 N269 1.328 . S
C270 C271 1.457 . S
C270 H275 0.929 . S
C271 C270 1.457 . S
C271 C272 1.291 . S
C271 H284 0.931 . S
C272 C271 1.291 . S
C272 C273 1.373 . S
C272 H285 0.929 . S
C273 C272 1.373 . S
C273 C274 1.396 . S
C273 C280 1.403 . S
C274 C264 1.476 . S
C274 N269 1.318 . S
C274 C273 1.396 . S
H275 C270 0.929 . S
O276 Mn252 2.385 . S
O276 C254 1.234 . S
O277 Mn252 2.209 . S
O277 Mn253 2.215 . S
O277 C254 1.283 . S
O278 Mn252 2.094 . S
O278 C256 1.240 . S
O279 Mn253 2.117 . S
O279 C256 1.264 . S
C280 C273 1.403 . S
C280 C281 1.399 . S
C280 H286 0.929 . S
C281 C261 1.449 . S
C281 C280 1.399 . S
C281 H287 0.930 . S
H282 C262 0.931 . S
H283 C263 0.930 . S
H284 C271 0.931 . S
H285 C272 0.929 . S
H286 C280 0.929 . S
H287 C281 0.930 . S
C288 C289 1.386 1_556 S
C288 C290 1.383 1_655 S
C288 H304 0.951 1_655 S
C289 C288 1.386 1_554 S
C289 C293 1.383 . S
C290 C288 1.383 1_455 S
C290 C291 1.402 1_456 S
C290 H305 0.951 . S
C291 C290 1.402 1_654 S
C291 C292 1.375 . S
C291 C294 1.481 . S
C292 C291 1.375 . S
C292 C293 1.367 . S
C292 H306 0.951 . S
C293 C289 1.383 . S
C293 C292 1.367 . S
C293 H307 0.950 . S
C294 C291 1.481 . S
C294 C295 1.297 1_664 S
C294 H308 0.950 1_565 S
C295 C294 1.297 1_446 S
C295 C296 1.479 . S
C295 H309 0.950 1_545 S
C296 C295 1.479 . S
C296 C297 1.375 . S
C296 C302 1.404 1_456 S
C297 C296 1.375 . S
C297 C298 1.369 . S
C297 H310 0.950 . S
C298 C297 1.369 . S
C298 C299 1.392 1_556 S
C298 H311 0.951 . S
C299 C298 1.392 1_554 S
C299 C301 1.384 1_455 S
H300 C302 0.949 . S
C301 C299 1.384 1_655 S
C301 C302 1.385 . S
C301 H303 0.950 . S
C302 C296 1.404 1_654 S
C302 H300 0.949 . S
C302 C301 1.385 . S
H303 C301 0.950 . S
H304 C288 0.951 1_455 S
H305 C290 0.951 . S
H306 C292 0.951 . S
H307 C293 0.950 . S
H308 C294 0.950 1_545 S
H309 C295 0.950 1_565 S
H310 C297 0.950 . S
H311 C298 0.951 . S
C312 C313 1.386 . S
C312 C314 1.383 . S
C312 H328 0.951 . S
C313 C312 1.386 . S
C313 C317 1.383 1_455 S
C314 C312 1.383 . S
C314 C315 1.402 1_455 S
C314 H329 0.951 . S
C315 C314 1.402 1_655 S
C315 C316 1.375 . S
C315 C318 1.481 . S
C316 C315 1.375 . S
C316 C317 1.367 . S
C316 H330 0.951 . S
C317 C313 1.383 1_655 S
C317 C316 1.367 . S
C317 H331 0.950 . S
C318 C315 1.481 . S
C318 C319 1.297 1_565 S
C318 H332 0.950 . S
C319 C318 1.297 1_545 S
C319 C320 1.479 . S
C319 H333 0.950 1_655 S
C320 C319 1.479 . S
C320 C321 1.375 1_655 S
C320 C326 1.404 . S
C321 C320 1.375 1_455 S
C321 C322 1.375 . S
C321 H334 0.950 . S
C322 C321 1.375 . S
C322 C323 1.368 1_455 S
C322 H335 0.970 . S
C323 C322 1.368 1_655 S
C323 C325 1.384 . S
H324 C326 0.949 . S
C325 C323 1.384 . S
C325 C326 1.385 . S
C325 H327 0.950 . S
C326 C320 1.404 . S
C326 H324 0.949 . S
C326 C325 1.385 . S
H327 C325 0.950 . S
H328 C312 0.951 . S
H329 C314 0.951 . S
H330 C316 0.951 . S
H331 C317 0.950 . S
H332 C318 0.950 . S
H333 C319 0.950 1_455 S
H334 C321 0.950 . S
H335 C322 0.970 . S
C336 C337 1.386 1_556 S
C336 C338 1.383 . S
C336 H352 0.951 . S
C337 C336 1.386 1_554 S
C337 C341 1.383 . S
C338 C336 1.383 . S
C338 C339 1.402 1_556 S
C338 H353 0.951 . S
C339 C338 1.402 1_554 S
C339 C340 1.375 . S
C339 C342 1.481 . S
C340 C339 1.375 . S
C340 C341 1.367 . S
C340 H354 0.951 . S
C341 C337 1.383 . S
C341 C340 1.367 . S
C341 H355 0.950 . S
C342 C339 1.481 . S
C342 C343 1.297 1_554 S
C342 H356 0.950 . S
C343 C342 1.297 1_556 S
C343 C344 1.479 . S
C343 H357 0.950 . S
C344 C343 1.479 . S
C344 C345 1.375 . S
C344 C350 1.404 1_556 S
C345 C344 1.375 . S
C345 C346 1.369 . S
C345 H358 0.950 . S
C346 C345 1.369 . S
C346 C347 1.392 1_556 S
C346 H359 0.951 . S
C347 C346 1.392 1_554 S
C347 C349 1.384 . S
H348 C350 0.949 . S
C349 C347 1.384 . S
C349 C350 1.385 . S
C349 H351 0.950 . S
C350 C344 1.404 1_554 S
C350 H348 0.949 . S
C350 C349 1.385 . S
H351 C349 0.950 . S
H352 C336 0.951 . S
H353 C338 0.951 . S
H354 C340 0.951 . S
H355 C341 0.950 . S
H356 C342 0.950 . S
H357 C343 0.950 . S
H358 C345 0.950 . S
H359 C346 0.951 . S
C360 C361 1.386 . S
C360 C362 1.383 . S
C360 H376 0.951 . S
C361 C360 1.386 . S
C361 C365 1.383 . S
C362 C360 1.383 . S
C362 C363 1.402 . S
C362 H377 0.951 . S
C363 C362 1.402 . S
C363 C364 1.375 . S
C363 C366 1.481 . S
C364 C363 1.375 . S
C364 C365 1.367 . S
C364 H378 0.951 . S
C365 C361 1.383 . S
C365 C364 1.367 . S
C365 H379 0.950 . S
C366 C363 1.481 . S
C366 C367 1.297 . S
C366 H380 0.950 . S
C367 C366 1.297 . S
C367 C368 1.479 . S
C367 H381 0.950 . S
C368 C367 1.479 . S
C368 C369 1.375 . S
C368 C374 1.404 . S
C369 C368 1.375 . S
C369 C370 1.369 . S
C369 H382 0.950 . S
C370 C369 1.369 . S
C370 C371 1.392 . S
C370 H383 0.951 . S
C371 C370 1.392 . S
C371 C373 1.384 . S
H372 C374 0.949 . S
C373 C371 1.384 . S
C373 C374 1.385 . S
C373 H375 0.950 . S
C374 C368 1.404 . S
C374 H372 0.949 . S
C374 C373 1.385 . S
H375 C373 0.950 . S
H376 C360 0.951 . S
H377 C362 0.951 . S
H378 C364 0.951 . S
H379 C365 0.950 . S
H380 C366 0.950 . S
H381 C367 0.950 . S
H382 C369 0.950 . S
H383 C370 0.951 . S
C384 C385 1.386 . S
C384 C386 1.383 . S
C384 H400 0.951 . S
C385 C384 1.386 . S
C385 C389 1.383 . S
C386 C384 1.383 . S
C386 C387 1.402 . S
C386 H401 0.951 . S
C387 C386 1.402 . S
C387 C388 1.372 1_455 S
C387 C390 1.481 . S
C388 C387 1.372 1_655 S
C388 C389 1.366 1_655 S
C388 H402 0.956 . S
C389 C385 1.383 . S
C389 C388 1.366 1_455 S
C389 H403 0.950 1_455 S
C390 C387 1.481 . S
C390 C391 1.297 . S
C390 H404 0.950 1_455 S
C391 C390 1.297 . S
C391 C392 1.479 . S
C391 H405 0.950 . S
C392 C391 1.479 . S
C392 C393 1.375 . S
C392 C398 1.404 1_455 S
C393 C392 1.375 . S
C393 C394 1.369 . S
C393 H406 0.950 . S
C394 C393 1.369 . S
C394 C395 1.392 1_455 S
C394 H407 0.951 . S
C395 C394 1.392 1_655 S
C395 C397 1.384 . S
H396 C398 0.949 . S
C397 C395 1.384 . S
C397 C398 1.385 . S
C397 H399 0.950 . S
C398 C392 1.404 1_655 S
C398 H396 0.949 . S
C398 C397 1.385 . S
H399 C397 0.950 . S
H400 C384 0.951 . S
H401 C386 0.951 . S
H402 C388 0.956 . S
H403 C389 0.950 1_655 S
H404 C390 0.950 1_655 S
H405 C391 0.950 . S
H406 C393 0.950 . S
H407 C394 0.951 . S
C408 C409 1.386 . S
C408 C410 1.383 . S
C408 H424 0.951 . S
C409 C408 1.386 . S
C409 C413 1.383 1_455 S
C410 C408 1.383 . S
C410 C411 1.402 1_455 S
C410 H425 0.951 . S
C411 C410 1.402 1_655 S
C411 C412 1.375 . S
C411 C414 1.481 . S
C412 C411 1.375 . S
C412 C413 1.367 . S
C412 H426 0.951 . S
C413 C409 1.383 1_655 S
C413 C412 1.367 . S
C413 H427 0.950 . S
C414 C411 1.481 . S
C414 C415 1.297 1_655 S
C414 H428 0.950 . S
C415 C414 1.297 1_455 S
C415 C416 1.479 1_455 S
C415 H429 0.950 . S
C416 C415 1.479 1_655 S
C416 C417 1.375 1_655 S
C416 C422 1.404 . S
C417 C416 1.375 1_455 S
C417 C418 1.369 . S
C417 H430 0.950 . S
C418 C417 1.369 . S
C418 C419 1.392 1_455 S
C418 H431 0.951 . S
C419 C418 1.392 1_655 S
C419 C421 1.384 . S
H420 C422 0.949 . S
C421 C419 1.384 . S
C421 C422 1.385 . S
C421 H423 0.950 . S
C422 C416 1.404 . S
C422 H420 0.949 . S
C422 C421 1.385 . S
H423 C421 0.950 . S
H424 C408 0.951 . S
H425 C410 0.951 . S
H426 C412 0.951 . S
H427 C413 0.950 . S
H428 C414 0.950 . S
H429 C415 0.950 . S
H430 C417 0.950 . S
H431 C418 0.951 . S
C432 C433 1.386 . S
C432 C434 1.383 . S
C432 H448 0.951 . S
C433 C432 1.386 . S
C433 C437 1.383 1_455 S
C434 C432 1.383 . S
C434 C435 1.402 1_455 S
C434 H449 0.951 . S
C435 C434 1.402 1_655 S
C435 C436 1.375 . S
C435 C438 1.481 . S
C436 C435 1.375 . S
C436 C437 1.367 . S
C436 H450 0.951 . S
C437 C433 1.383 1_655 S
C437 C436 1.367 . S
C437 H451 0.950 . S
C438 C435 1.481 . S
C438 C439 1.297 1_655 S
C438 H452 0.950 . S
C439 C438 1.297 1_455 S
C439 C440 1.479 1_455 S
C439 H453 0.950 . S
C440 C439 1.479 1_655 S
C440 C441 1.375 1_655 S
C440 C446 1.404 . S
C441 C440 1.375 1_455 S
C441 C442 1.369 . S
C441 H454 0.950 . S
C442 C441 1.369 . S
C442 C443 1.392 1_455 S
C442 H455 0.951 . S
C443 C442 1.392 1_655 S
C443 C445 1.384 . S
H444 C446 0.949 . S
C445 C443 1.384 . S
C445 C446 1.385 . S
C445 H447 0.950 . S
C446 C440 1.404 . S
C446 H444 0.949 . S
C446 C445 1.385 . S
H447 C445 0.950 . S
H448 C432 0.951 . S
H449 C434 0.951 . S
H450 C436 0.951 . S
H451 C437 0.950 . S
H452 C438 0.950 . S
H453 C439 0.950 . S
H454 C441 0.950 . S
H455 C442 0.951 . S
C456 C457 1.386 . S
C456 C458 1.383 . S
C456 H472 0.951 . S
C457 C456 1.386 . S
C457 C461 1.383 . S
C458 C456 1.383 . S
C458 C459 1.402 . S
C458 H473 0.951 . S
C459 C458 1.402 . S
C459 C460 1.375 . S
C459 C462 1.481 . S
C460 C459 1.375 . S
C460 C461 1.367 . S
C460 H474 0.951 . S
C461 C457 1.383 . S
C461 C460 1.367 . S
C461 H475 0.950 . S
C462 C459 1.481 . S
C462 C463 1.297 . S
C462 H476 0.950 . S
C463 C462 1.297 . S
C463 C464 1.479 . S
C463 H477 0.950 . S
C464 C463 1.479 . S
C464 C465 1.375 . S
C464 C470 1.404 . S
C465 C464 1.375 . S
C465 C466 1.369 1_455 S
C465 H478 0.950 . S
C466 C465 1.369 1_655 S
C466 C467 1.392 . S
C466 H479 0.950 . S
C467 C466 1.392 . S
C467 C469 1.384 . S
H468 C470 0.949 . S
C469 C467 1.384 . S
C469 C470 1.385 1_655 S
C469 H471 0.950 . S
C470 C464 1.404 . S
C470 H468 0.949 . S
C470 C469 1.385 1_455 S
H471 C469 0.950 . S
H472 C456 0.951 . S
H473 C458 0.951 . S
H474 C460 0.951 . S
H475 C461 0.950 . S
H476 C462 0.950 . S
H477 C463 0.950 . S
H478 C465 0.950 . S
H479 C466 0.950 . S
C480 C481 1.386 . S
C480 C482 1.383 . S
C480 H496 0.951 . S
C481 C480 1.386 . S
C481 C485 1.383 . S
C482 C480 1.383 . S
C482 C483 1.402 . S
C482 H497 0.951 . S
C483 C482 1.402 . S
C483 C484 1.375 . S
C483 C486 1.481 . S
C484 C483 1.375 . S
C484 C485 1.367 . S
C484 H498 0.951 . S
C485 C481 1.383 . S
C485 C484 1.367 . S
C485 H499 0.950 . S
C486 C483 1.481 . S
C486 C487 1.297 . S
C486 H500 0.950 . S
C487 C486 1.297 . S
C487 C488 1.479 . S
C487 H501 0.950 . S
C488 C487 1.479 . S
C488 C489 1.375 . S
C488 C494 1.404 . S
C489 C488 1.375 . S
C489 C490 1.369 . S
C489 H502 0.950 . S
C490 C489 1.369 . S
C490 C491 1.392 . S
C490 H503 0.951 . S
C491 C490 1.392 . S
C491 C493 1.384 . S
H492 C494 0.949 . S
C493 C491 1.384 . S
C493 C494 1.385 . S
C493 H495 0.950 . S
C494 C488 1.404 . S
C494 H492 0.949 . S
C494 C493 1.385 . S
H495 C493 0.950 . S
H496 C480 0.951 . S
H497 C482 0.951 . S
H498 C484 0.951 . S
H499 C485 0.950 . S
H500 C486 0.950 . S
H501 C487 0.950 . S
H502 C489 0.950 . S
H503 C490 0.951 . S
C504 C505 1.386 . S
C504 C506 1.383 . S
C504 H520 0.951 . S
C505 C504 1.386 . S
C505 C509 1.383 . S
C506 C504 1.383 . S
C506 C507 1.402 . S
C506 H521 0.951 . S
C507 C506 1.402 . S
C507 C508 1.375 . S
C507 C510 1.481 . S
C508 C507 1.375 . S
C508 C509 1.367 . S
C508 H522 0.951 . S
C509 C505 1.383 . S
C509 C508 1.367 . S
C509 H523 0.950 . S
C510 C507 1.481 . S
C510 C511 1.297 . S
C510 H524 0.950 . S
C511 C510 1.297 . S
C511 C512 1.479 . S
C511 H525 0.950 . S
C512 C511 1.479 . S
C512 C513 1.375 . S
C512 C518 1.404 . S
C513 C512 1.375 . S
C513 C514 1.369 . S
C513 H526 0.950 . S
C514 C513 1.369 . S
C514 C515 1.392 . S
C514 H527 0.951 . S
C515 C514 1.392 . S
C515 C517 1.384 . S
H516 C518 0.949 . S
C517 C515 1.384 . S
C517 C518 1.385 . S
C517 H519 0.950 . S
C518 C512 1.404 . S
C518 H516 0.949 . S
C518 C517 1.385 . S
H519 C517 0.950 . S
H520 C504 0.951 . S
H521 C506 0.951 . S
H522 C508 0.951 . S
H523 C509 0.950 . S
H524 C510 0.950 . S
H525 C511 0.950 . S
H526 C513 0.950 . S
H527 C514 0.951 . S
C528 C529 1.386 . S
C528 C530 1.383 . S
C528 H544 0.951 . S
C529 C528 1.386 . S
C529 C533 1.383 . S
C530 C528 1.383 . S
C530 C531 1.402 . S
C530 H545 0.951 . S
C531 C530 1.402 . S
C531 C532 1.375 . S
C531 C534 1.481 . S
C532 C531 1.375 . S
C532 C533 1.367 . S
C532 H546 0.951 . S
C533 C529 1.383 . S
C533 C532 1.367 . S
C533 H547 0.950 . S
C534 C531 1.481 . S
C534 C535 1.297 . S
C534 H548 0.950 . S
C535 C534 1.297 . S
C535 C536 1.479 . S
C535 H549 0.950 . S
C536 C535 1.479 . S
C536 C537 1.375 . S
C536 C542 1.404 . S
C537 C536 1.375 . S
C537 C538 1.369 . S
C537 H550 0.950 . S
C538 C537 1.369 . S
C538 C539 1.392 . S
C538 H551 0.951 . S
C539 C538 1.392 . S
C539 C541 1.384 . S
H540 C542 0.949 . S
C541 C539 1.384 . S
C541 C542 1.385 . S
C541 H543 0.950 . S
C542 C536 1.404 . S
C542 H540 0.949 . S
C542 C541 1.385 . S
H543 C541 0.950 . S
H544 C528 0.951 . S
H545 C530 0.951 . S
H546 C532 0.951 . S
H547 C533 0.950 . S
H548 C534 0.950 . S
H549 C535 0.950 . S
H550 C537 0.950 . S
H551 C538 0.951 . S
C552 C553 1.386 . S
C552 C554 1.383 . S
C552 H568 0.951 . S
C553 C552 1.386 . S
C553 C557 1.383 . S
C554 C552 1.383 . S
C554 C555 1.402 . S
C554 H569 0.951 . S
C555 C554 1.402 . S
C555 C556 1.375 . S
C555 C558 1.481 . S
C556 C555 1.375 . S
C556 C557 1.367 . S
C556 H570 0.951 . S
C557 C553 1.383 . S
C557 C556 1.367 . S
C557 H571 0.950 . S
C558 C555 1.481 . S
C558 C559 1.297 . S
C558 H572 0.950 . S
C559 C558 1.297 . S
C559 C560 1.479 . S
C559 H573 0.950 . S
C560 C559 1.479 . S
C560 C561 1.375 . S
C560 C566 1.404 . S
C561 C560 1.375 . S
C561 C562 1.369 . S
C561 H574 0.950 . S
C562 C561 1.369 . S
C562 C563 1.392 . S
C562 H575 0.951 . S
C563 C562 1.392 . S
C563 C565 1.384 . S
H564 C566 0.949 . S
C565 C563 1.384 . S
C565 C566 1.385 . S
C565 H567 0.950 . S
C566 C560 1.404 . S
C566 H564 0.949 . S
C566 C565 1.385 . S
H567 C565 0.950 . S
H568 C552 0.951 . S
H569 C554 0.951 . S
H570 C556 0.951 . S
H571 C557 0.950 . S
H572 C558 0.950 . S
H573 C559 0.950 . S
H574 C561 0.950 . S
H575 C562 0.951 . S
C576 C577 1.386 1_556 S
C576 C578 1.383 . S
C576 H592 0.951 . S
C577 C576 1.386 1_554 S
C577 C581 1.383 . S
C578 C576 1.383 . S
C578 C579 1.402 1_556 S
C578 H593 0.951 . S
C579 C578 1.402 1_554 S
C579 C580 1.375 . S
C579 C582 1.481 . S
C580 C579 1.375 . S
C580 C581 1.367 . S
C580 H594 0.951 . S
C581 C577 1.383 . S
C581 C580 1.367 . S
C581 H595 0.950 . S
C582 C579 1.481 . S
C582 C583 1.297 1_554 S
C582 H596 0.950 . S
C583 C582 1.297 1_556 S
C583 C584 1.479 . S
C583 H597 0.950 . S
C584 C583 1.479 . S
C584 C585 1.375 . S
C584 C590 1.404 1_556 S
C585 C584 1.375 . S
C585 C586 1.369 . S
C585 H598 0.950 . S
C586 C585 1.369 . S
C586 C587 1.392 1_556 S
C586 H599 0.951 . S
C587 C586 1.392 1_554 S
C587 C589 1.384 . S
H588 C590 0.949 . S
C589 C587 1.384 . S
C589 C590 1.385 . S
C589 H591 0.950 . S
C590 C584 1.404 1_554 S
C590 H588 0.949 . S
C590 C589 1.385 . S
H591 C589 0.950 . S
H592 C576 0.951 . S
H593 C578 0.951 . S
H594 C580 0.951 . S
H595 C581 0.950 . S
H596 C582 0.950 . S
H597 C583 0.950 . S
H598 C585 0.950 . S
H599 C586 0.951 . S
C600 C601 1.393 . S
C600 C602 1.386 . S
C600 H616 0.940 1_554 S
C601 C600 1.393 . S
C601 C605 1.383 . S
C602 C600 1.386 . S
C602 C603 1.402 . S
C602 H617 0.951 1_554 S
C603 C602 1.402 . S
C603 C604 1.375 . S
C603 C606 1.481 . S
C604 C603 1.375 . S
C604 C605 1.367 . S
C604 H618 0.951 . S
C605 C601 1.383 . S
C605 C604 1.367 . S
C605 H619 0.950 . S
C606 C603 1.481 . S
C606 C607 1.297 . S
C606 H620 0.950 . S
C607 C606 1.297 . S
C607 C608 1.479 . S
C607 H621 0.950 . S
C608 C607 1.479 . S
C608 C609 1.375 . S
C608 C614 1.404 . S
C609 C608 1.375 . S
C609 C610 1.371 . S
C609 H622 0.950 1_554 S
C610 C609 1.371 . S
C610 C611 1.399 . S
C610 H623 0.942 1_554 S
C611 C610 1.399 . S
C611 C613 1.384 . S
H612 C614 0.949 . S
C613 C611 1.384 . S
C613 C614 1.385 . S
C613 H615 0.950 . S
C614 C608 1.404 . S
C614 H612 0.949 . S
C614 C613 1.385 . S
H615 C613 0.950 . S
H616 C600 0.940 1_556 S
H617 C602 0.951 1_556 S
H618 C604 0.951 . S
H619 C605 0.950 . S
H620 C606 0.950 . S
H621 C607 0.950 . S
H622 C609 0.950 1_556 S
H623 C610 0.942 1_556 S
C624 C625 1.386 . S
C624 C626 1.383 . S
C624 H640 0.951 . S
C625 C624 1.386 . S
C625 C629 1.383 . S
C626 C624 1.383 . S
C626 C627 1.402 . S
C626 H641 0.951 . S
C627 C626 1.402 . S
C627 C628 1.375 . S
C627 C630 1.481 . S
C628 C627 1.375 . S
C628 C629 1.367 . S
C628 H642 0.951 . S
C629 C625 1.383 . S
C629 C628 1.367 . S
C629 H643 0.950 . S
C630 C627 1.481 . S
C630 C631 1.297 . S
C630 H644 0.950 . S
C631 C630 1.297 . S
C631 C632 1.479 . S
C631 H645 0.950 . S
C632 C631 1.479 . S
C632 C633 1.375 . S
C632 C638 1.404 . S
C633 C632 1.375 . S
C633 C634 1.369 . S
C633 H646 0.950 . S
C634 C633 1.369 . S
C634 C635 1.392 . S
C634 H647 0.951 . S
C635 C634 1.392 . S
C635 C637 1.384 . S
H636 C638 0.949 . S
C637 C635 1.384 . S
C637 C638 1.385 . S
C637 H639 0.950 . S
C638 C632 1.404 . S
C638 H636 0.949 . S
C638 C637 1.385 . S
H639 C637 0.950 . S
H640 C624 0.951 . S
H641 C626 0.951 . S
H642 C628 0.951 . S
H643 C629 0.950 . S
H644 C630 0.950 . S
H645 C631 0.950 . S
H646 C633 0.950 . S
H647 C634 0.951 . S
C648 C649 1.386 . S
C648 C650 1.383 . S
C648 H664 0.951 . S
C649 C648 1.386 . S
C649 C653 1.383 . S
C650 C648 1.383 . S
C650 C651 1.402 . S
C650 H665 0.951 . S
C651 C650 1.402 . S
C651 C652 1.375 . S
C651 C654 1.481 . S
C652 C651 1.375 . S
C652 C653 1.367 . S
C652 H666 0.951 . S
C653 C649 1.383 . S
C653 C652 1.367 . S
C653 H667 0.950 . S
C654 C651 1.481 . S
C654 C655 1.297 . S
C654 H668 0.950 . S
C655 C654 1.297 . S
C655 C656 1.479 . S
C655 H669 0.950 . S
C656 C655 1.479 . S
C656 C657 1.375 . S
C656 C662 1.404 . S
C657 C656 1.375 . S
C657 C658 1.369 . S
C657 H670 0.950 . S
C658 C657 1.369 . S
C658 C659 1.392 . S
C658 H671 0.951 . S
C659 C658 1.392 . S
C659 C661 1.384 . S
H660 C662 0.949 . S
C661 C659 1.384 . S
C661 C662 1.385 . S
C661 H663 0.950 . S
C662 C656 1.404 . S
C662 H660 0.949 . S
C662 C661 1.385 . S
H663 C661 0.950 . S
H664 C648 0.951 . S
H665 C650 0.951 . S
H666 C652 0.951 . S
H667 C653 0.950 . S
H668 C654 0.950 . S
H669 C655 0.950 . S
H670 C657 0.950 . S
H671 C658 0.951 . S
C289 C39 1.505 . S
C299 C3 1.488 . S
C313 C75 1.504 . S
C323 C111 1.505 . S
C337 C147 1.505 . S
C347 C183 1.488 . S
C361 C219 1.509 . S
C371 C255 1.497 . S
C385 C2 1.110 . S
C395 C110 1.158 . S
C409 C74 1.136 . S
C419 C38 1.125 . S
C433 C86 1.206 . S
C443 C50 1.193 . S
C457 C14 1.183 . S
C467 C122 1.215 . S
C481 C146 1.105 . S
C491 C254 1.155 . S
C505 C218 1.054 . S
C515 C182 1.072 . S
C529 C194 1.163 . S
C539 C230 1.126 . S
C553 C158 1.185 . S
C563 C266 1.217 . S
C577 C184 1.503 . S
C587 C4 1.513 . S
C601 C148 1.510 . S
C611 C40 1.503 . S
C625 C76 1.516 . S
C635 C256 1.491 . S
C649 C220 1.515 . S
C659 C112 1.492 . S
