# Generated by pormake.
# Topology wjp, (5)-cn, num edge types: 1
# Building blocks:
#     Node 0, Type 0, BuildingBlock: BEQFEK_clean_sbu_0, # of connection points: 5
#     Node 1, Type 0, BuildingBlock: BEQFEK_clean_sbu_0, # of connection points: 5
#     Node 2, Type 0, BuildingBlock: BEQFEK_clean_sbu_0, # of connection points: 5
#     Node 3, Type 0, BuildingBlock: BEQFEK_clean_sbu_0, # of connection points: 5
#     Node 4, Type 0, BuildingBlock: BEQFEK_clean_sbu_0, # of connection points: 5
#     Node 5, Type 0, BuildingBlock: BEQFEK_clean_sbu_0, # of connection points: 5
#     Node 6, Type 0, BuildingBlock: BEQFEK_clean_sbu_0, # of connection points: 5
#     Node 7, Type 0, BuildingBlock: BEQFEK_clean_sbu_0, # of connection points: 5
#     Node 8, Type 0, BuildingBlock: BEQFEK_clean_sbu_0, # of connection points: 5
#     Node 9, Type 0, BuildingBlock: BEQFEK_clean_sbu_0, # of connection points: 5
#     Node 10, Type 0, BuildingBlock: BEQFEK_clean_sbu_0, # of connection points: 5
#     Node 11, Type 0, BuildingBlock: BEQFEK_clean_sbu_0, # of connection points: 5
#     Edge 12, Type (0, 0), BuildingBlock: KIFKEQ_clean_linker_1, # of connection points: 2
#     Edge 13, Type (0, 0), BuildingBlock: KIFKEQ_clean_linker_1, # of connection points: 2
#     Edge 14, Type (0, 0), BuildingBlock: KIFKEQ_clean_linker_1, # of connection points: 2
#     Edge 15, Type (0, 0), BuildingBlock: KIFKEQ_clean_linker_1, # of connection points: 2
#     Edge 16, Type (0, 0), BuildingBlock: KIFKEQ_clean_linker_1, # of connection points: 2
#     Edge 17, Type (0, 0), BuildingBlock: KIFKEQ_clean_linker_1, # of connection points: 2
#     Edge 18, Type (0, 0), BuildingBlock: KIFKEQ_clean_linker_1, # of connection points: 2
#     Edge 19, Type (0, 0), BuildingBlock: KIFKEQ_clean_linker_1, # of connection points: 2
#     Edge 20, Type (0, 0), BuildingBlock: KIFKEQ_clean_linker_1, # of connection points: 2
#     Edge 21, Type (0, 0), BuildingBlock: KIFKEQ_clean_linker_1, # of connection points: 2
#     Edge 22, Type (0, 0), BuildingBlock: KIFKEQ_clean_linker_1, # of connection points: 2
#     Edge 23, Type (0, 0), BuildingBlock: KIFKEQ_clean_linker_1, # of connection points: 2
#     Edge 24, Type (0, 0), BuildingBlock: KIFKEQ_clean_linker_1, # of connection points: 2
#     Edge 25, Type (0, 0), BuildingBlock: KIFKEQ_clean_linker_1, # of connection points: 2
#     Edge 26, Type (0, 0), BuildingBlock: KIFKEQ_clean_linker_1, # of connection points: 2
#     Edge 27, Type (0, 0), BuildingBlock: KIFKEQ_clean_linker_1, # of connection points: 2
#     Edge 28, Type (0, 0), BuildingBlock: KIFKEQ_clean_linker_1, # of connection points: 2
#     Edge 29, Type (0, 0), BuildingBlock: KIFKEQ_clean_linker_1, # of connection points: 2
#     Edge 30, Type (0, 0), BuildingBlock: KIFKEQ_clean_linker_1, # of connection points: 2
#     Edge 31, Type (0, 0), BuildingBlock: KIFKEQ_clean_linker_1, # of connection points: 2
#     Edge 32, Type (0, 0), BuildingBlock: KIFKEQ_clean_linker_1, # of connection points: 2
#     Edge 33, Type (0, 0), BuildingBlock: KIFKEQ_clean_linker_1, # of connection points: 2
#     Edge 34, Type (0, 0), BuildingBlock: KIFKEQ_clean_linker_1, # of connection points: 2
#     Edge 35, Type (0, 0), BuildingBlock: KIFKEQ_clean_linker_1, # of connection points: 2
#     Edge 36, Type (0, 0), BuildingBlock: KIFKEQ_clean_linker_1, # of connection points: 2
#     Edge 37, Type (0, 0), BuildingBlock: KIFKEQ_clean_linker_1, # of connection points: 2
#     Edge 38, Type (0, 0), BuildingBlock: KIFKEQ_clean_linker_1, # of connection points: 2
#     Edge 39, Type (0, 0), BuildingBlock: KIFKEQ_clean_linker_1, # of connection points: 2
#     Edge 40, Type (0, 0), BuildingBlock: KIFKEQ_clean_linker_1, # of connection points: 2
#     Edge 41, Type (0, 0), BuildingBlock: KIFKEQ_clean_linker_1, # of connection points: 2
# Relax obj value: 0.469
# Max RMSD: 0.250
# Mean RMSD: 0.250
data_MOF--net-wjp--node1-BEQFEK_clean_sbu_0--edge1-KIFKEQ_clean_linker_1
_symmetry_space_group_name_H-M    P1
_symmetry_Int_Tables_number       1
_symmetry_cell_setting            triclinic
loop_
_symmetry_equiv_pos_as_xyz
'x, y, z'
_cell_length_a     42.17767
_cell_length_b     42.113342
_cell_length_c     60.467109
_cell_angle_alpha  90.153516
_cell_angle_beta   89.896643
_cell_angle_gamma 119.93982
loop_
_atom_site_label
_atom_site_type_symbol
_atom_site_fract_x
_atom_site_fract_y
_atom_site_fract_z
_atom_type_partial_charge
Co0 Co 0.26976 0.20306 0.50297 0.0
Co1 Co 0.3318 0.28199 0.49313 0.0
C2 C 0.34229 0.24046 0.52818 0.0
O3 O 0.31022 0.21492 0.52364 0.0
O4 O 0.3568 0.27086 0.51783 0.0
C5 C 0.25616 0.13331 0.50436 0.0
O6 O 0.29166 0.15225 0.50102 0.0
C7 C 0.39939 0.34596 0.47597 0.0
C8 C 0.37482 0.37393 0.45785 0.0
C9 C 0.40766 0.37499 0.46177 0.0
N10 N 0.36312 0.32828 0.47987 0.0
N11 N 0.34882 0.34559 0.46932 0.0
C12 C 0.42458 0.33286 0.48367 0.0
H13 H 0.40891 0.30358 0.48845 0.0
H14 H 0.44465 0.33678 0.47055 0.0
H15 H 0.4399 0.34912 0.49834 0.0
C16 C 0.28016 0.19164 0.45606 0.0
N17 N 0.28735 0.21358 0.47381 0.0
N18 N 0.3166 0.24548 0.46993 0.0
C19 C 0.32985 0.24393 0.44974 0.0
C20 C 0.30714 0.20968 0.44043 0.0
C21 C 0.24879 0.15329 0.45404 0.0
H22 H 0.22597 0.14898 0.46506 0.0
H23 H 0.2582 0.1337 0.4582 0.0
H24 H 0.23886 0.14767 0.4367 0.0
O25 O 0.24403 0.22889 0.51101 0.0
O26 O 0.28886 0.28593 0.50559 0.0
H27 H 0.36376 0.29908 0.43885 0.0
H28 H 0.36961 0.2657 0.4233 0.0
C29 C 0.3648 0.27338 0.44004 0.0
H30 H 0.38786 0.27822 0.45095 0.0
H31 H 0.32093 0.33691 0.46906 0.0
O32 O 0.23835 0.15017 0.5061 0.0
C33 C 0.25609 0.26321 0.51157 0.0
Co34 Co 0.06373 0.27311 0.66795 0.0
Co35 Co 0.05063 0.33797 0.65929 0.0
C36 C 0.10468 0.34663 0.69245 0.0
O37 O 0.0959 0.31381 0.68781 0.0
O38 O 0.08918 0.36229 0.68291 0.0
C39 C 0.1155 0.25248 0.66965 0.0
O40 O 0.1356 0.28765 0.66537 0.0
C41 C 0.0547 0.40634 0.64236 0.0
C42 C 0.00115 0.38168 0.6254 0.0
C43 C 0.03321 0.4145 0.62875 0.0
N44 N 0.0362 0.37009 0.6465 0.0
N45 N 0.00401 0.35579 0.63665 0.0
C46 C 0.09337 0.43164 0.64929 0.0
H47 H 0.10692 0.41595 0.65419 0.0
H48 H 0.10891 0.45085 0.63568 0.0
H49 H 0.09341 0.44805 0.66368 0.0
C50 C 0.08215 0.28153 0.62062 0.0
N51 N 0.0696 0.29009 0.63885 0.0
N52 N 0.0685 0.32034 0.63539 0.0
C53 C 0.08228 0.33291 0.61496 0.0
C54 C 0.09118 0.30858 0.60499 0.0
C55 C 0.08831 0.24959 0.6186 0.0
H56 H 0.06963 0.22707 0.62972 0.0
H57 H 0.11714 0.25847 0.62283 0.0
H58 H 0.08366 0.23933 0.60131 0.0
O59 O 0.01303 0.25006 0.6771 0.0
O60 O 0.00374 0.29706 0.673 0.0
H61 H 0.06313 0.36881 0.60454 0.0
H62 H 0.10172 0.37341 0.58891 0.0
C63 C 0.08928 0.36866 0.60564 0.0
H64 H 0.10794 0.39118 0.61679 0.0
H65 H 0.98466 0.3279 0.6367 0.0
O66 O 0.08105 0.23826 0.67101 0.0
C67 C 0.99239 0.26387 0.67864 0.0
Co68 Co 0.78496 0.06095 0.83842 0.0
Co69 Co 0.70872 0.04715 0.82399 0.0
C70 C 0.74422 0.09365 0.86248 0.0
O71 O 0.7694 0.08578 0.85999 0.0
O72 O 0.71744 0.08207 0.84904 0.0
C73 C 0.85472 0.11496 0.84646 0.0
O74 O 0.83737 0.1334 0.84411 0.0
C75 C 0.64755 0.05345 0.80454 0.0
C76 C 0.62155 0.00277 0.78443 0.0
C77 C 0.62004 0.03417 0.78915 0.0
N78 N 0.66478 0.03438 0.80842 0.0
N79 N 0.64871 0.00391 0.7966 0.0
C80 C 0.65964 0.09084 0.81366 0.0
H81 H 0.68877 0.10442 0.81872 0.0
H82 H 0.6557 0.10796 0.80126 0.0
H83 H 0.64289 0.08824 0.82844 0.0
C84 C 0.80472 0.09029 0.793 0.0
N85 N 0.77996 0.0732 0.80917 0.0
N86 N 0.74837 0.06956 0.80314 0.0
C87 C 0.75259 0.0854 0.78305 0.0
C88 C 0.7885 0.09915 0.77613 0.0
C89 C 0.84371 0.09894 0.79354 0.0
H90 H 0.84645 0.07842 0.80353 0.0
H91 H 0.86099 0.12664 0.8007 0.0
H92 H 0.85377 0.09924 0.77652 0.0
O93 O 0.7576 0.00839 0.84294 0.0
O94 O 0.7019 -0.00114 0.83593 0.0
H95 H 0.69937 0.06283 0.7687 0.0
H96 H 0.73389 0.10382 0.75521 0.0
C97 C 0.72393 0.09004 0.77142 0.0
H98 H 0.71609 0.10667 0.78185 0.0
H99 H 0.65731 0.9846 0.79615 0.0
O100 O 0.83684 0.08028 0.84482 0.0
C101 C 0.72321 0.98711 0.84203 0.0
Co102 Co 0.72305 0.79232 0.99762 0.0
Co103 Co 0.657 0.71355 0.99055 0.0
C104 C 0.65204 0.76037 0.02465 0.0
O105 O 0.68439 0.78457 0.01919 0.0
O106 O 0.6356 0.72909 0.01516 0.0
C107 C 0.74774 0.86711 0.99942 0.0
O108 O 0.71224 0.85423 0.99983 0.0
C109 C 0.58744 0.64832 0.97509 0.0
C110 C 0.61157 0.61978 0.95697 0.0
C111 C 0.57879 0.61865 0.96125 0.0
N112 N 0.62391 0.66648 0.97841 0.0
N113 N 0.63788 0.64873 0.96788 0.0
C114 C 0.56221 0.66128 0.98301 0.0
H115 H 0.57788 0.6903 0.98843 0.0
H116 H 0.54265 0.65809 0.96975 0.0
H117 H 0.54619 0.64423 0.99726 0.0
C118 C 0.70893 0.80066 0.95096 0.0
N119 N 0.70265 0.7801 0.9692 0.0
N120 N 0.67262 0.74831 0.96648 0.0
C121 C 0.65811 0.74853 0.94653 0.0
C122 C 0.68078 0.78168 0.93613 0.0
C123 C 0.73984 0.83905 0.94811 0.0
H124 H 0.76433 0.84313 0.95726 0.0
H125 H 0.73131 0.85848 0.95428 0.0
H126 H 0.7469 0.84512 0.93034 0.0
O127 O 0.74652 0.76393 1.00529 0.0
O128 O 0.69853 0.70782 1.00299 0.0
H129 H 0.61531 0.72624 0.92186 0.0
H130 H 0.60031 0.71507 0.95022 0.0
C131 C 0.62188 0.71912 0.93823 0.0
H132 H 0.62232 0.69312 0.93668 0.0
H133 H 0.66579 0.65756 0.96719 0.0
O134 O 0.75964 0.84475 0.99884 0.0
C135 C 0.73226 0.72948 0.00733 0.0
Co136 Co 0.9341 0.73095 0.16727 0.0
Co137 Co 0.94117 0.66237 0.15686 0.0
C138 C 0.8903 0.65928 0.19192 0.0
O139 O 0.90067 0.69266 0.1878 0.0
O140 O 0.90355 0.64207 0.18149 0.0
C141 C 0.9205 0.78145 0.18949 0.0
O142 O 0.92412 0.76511 0.20699 0.0
C143 C 0.93044 0.59016 0.14014 0.0
C144 C 0.98686 0.60912 0.12862 0.0
C145 C 0.95253 0.57831 0.13018 0.0
N146 N 0.95104 0.62644 0.14415 0.0
N147 N 0.98462 0.63738 0.13713 0.0
C148 C 0.89116 0.56719 0.14666 0.0
H149 H 0.88311 0.58217 0.1584 0.0
H150 H 0.87367 0.5602 0.13174 0.0
H151 H 0.88644 0.54115 0.15417 0.0
C152 C 0.90778 0.72062 0.12189 0.0
N153 N 0.92309 0.71214 0.13863 0.0
N154 N 0.9249 0.68267 0.13369 0.0
C155 C 0.91077 0.67153 0.11317 0.0
C156 C 0.89958 0.69533 0.10501 0.0
C157 C 0.8963 0.74898 0.12372 0.0
H158 H 0.92095 0.77641 0.12575 0.0
H159 H 0.87899 0.74338 0.13865 0.0
H160 H 0.88047 0.74929 0.10923 0.0
O161 O 0.98544 0.74992 0.17432 0.0
O162 O 0.99013 0.70019 0.1698 0.0
H163 H 0.93251 0.63738 0.10321 0.0
H164 H 0.89939 0.6373 0.08422 0.0
C165 C 0.90664 0.63804 0.10192 0.0
H166 H 0.88475 0.61344 0.11028 0.0
H167 H 0.00615 0.66435 0.13812 0.0
O168 O 0.92488 0.7717 0.1704 0.0
C169 C 0.00402 0.73384 0.17513 0.0
Co170 Co 0.20154 0.93395 0.33129 0.0
Co171 Co 0.27878 0.94546 0.32209 0.0
C172 C 0.23208 0.89002 0.35432 0.0
O173 O 0.20884 0.90001 0.35015 0.0
O174 O 0.26333 0.90547 0.34492 0.0
C175 C 0.12928 0.88275 0.33188 0.0
O176 O 0.14447 0.86327 0.32613 0.0
C177 C 0.34133 0.93853 0.30499 0.0
C178 C 0.37225 0.992 0.28811 0.0
C179 C 0.37139 0.95908 0.29145 0.0
N180 N 0.32494 0.95839 0.30914 0.0
N181 N 0.344 0.99049 0.29929 0.0
C182 C 0.3263 0.89952 0.31187 0.0
H183 H 0.29671 0.8866 0.31569 0.0
H184 H 0.33073 0.88374 0.29868 0.0
H185 H 0.34082 0.89876 0.32696 0.0
C186 C 0.19161 0.91766 0.28359 0.0
N187 N 0.21267 0.9292 0.30184 0.0
N188 N 0.24345 0.9293 0.29819 0.0
C189 C 0.24185 0.91568 0.27764 0.0
C190 C 0.20886 0.90771 0.26776 0.0
C191 C 0.15405 0.91297 0.28201 0.0
H192 H 0.15025 0.92996 0.29457 0.0
H193 H 0.13327 0.88365 0.28424 0.0
H194 H 0.1496 0.92143 0.26553 0.0
O195 O 0.23022 0.98416 0.34138 0.0
O196 O 0.28607 0.99268 0.33662 0.0
H197 H 0.29699 0.93452 0.26758 0.0
H198 H 0.26329 0.89783 0.25078 0.0
C199 C 0.27038 0.90865 0.2679 0.0
H200 H 0.27325 0.88863 0.27833 0.0
H201 H 0.33666 0.01077 0.29936 0.0
O202 O 0.14945 0.91702 0.33472 0.0
C203 C 0.26469 0.00435 0.34285 0.0
Co204 Co 0.78558 0.7303 0.35027 0.0
Co205 Co 0.70943 0.66162 0.35644 0.0
C206 C 0.75697 0.65911 0.32279 0.0
O207 O 0.77915 0.69196 0.32858 0.0
O208 O 0.72582 0.64069 0.3321 0.0
C209 C 0.85716 0.75048 0.35073 0.0
O210 O 0.84082 0.71512 0.35471 0.0
C211 C 0.64559 0.59143 0.37193 0.0
C212 C 0.61607 0.61465 0.38991 0.0
C213 C 0.61589 0.58225 0.38575 0.0
N214 N 0.66287 0.62789 0.3685 0.0
N215 N 0.64457 0.6413 0.37893 0.0
C216 C 0.65947 0.56684 0.36418 0.0
H217 H 0.68818 0.58308 0.35839 0.0
H218 H 0.65744 0.54808 0.37767 0.0
H219 H 0.64226 0.54987 0.35023 0.0
C220 C 0.79387 0.71794 0.39722 0.0
N221 N 0.77363 0.71021 0.37871 0.0
N222 N 0.74385 0.67811 0.38073 0.0
C223 C 0.7456 0.66339 0.40027 0.0
C224 C 0.77733 0.68826 0.41134 0.0
C225 C 0.83021 0.75175 0.40071 0.0
H226 H 0.8334 0.77411 0.38968 0.0
H227 H 0.8524 0.74542 0.39761 0.0
H228 H 0.83281 0.76111 0.41812 0.0
O229 O 0.75674 0.75289 0.34255 0.0
O230 O 0.70221 0.70245 0.34387 0.0
H231 H 0.72718 0.6189 0.42369 0.0
H232 H 0.71759 0.60559 0.39494 0.0
C233 C 0.71904 0.62532 0.40761 0.0
H234 H 0.69154 0.62235 0.40937 0.0
H235 H 0.65273 0.66912 0.37953 0.0
O236 O 0.83787 0.76568 0.34848 0.0
C237 C 0.72231 0.73668 0.34002 0.0
Co238 Co 0.06958 0.78953 0.50088 0.0
Co239 Co 0.05085 0.71154 0.51516 0.0
C240 C 0.10363 0.74835 0.47923 0.0
O241 O 0.09758 0.77472 0.48189 0.0
O242 O 0.08727 0.71939 0.49092 0.0
C243 C 0.12511 0.85954 0.49476 0.0
O244 O 0.14315 0.8422 0.49871 0.0
C245 C 0.05455 0.64963 0.5356 0.0
C246 C 0.00119 0.62205 0.55285 0.0
C247 C 0.03333 0.62119 0.55004 0.0
N248 N 0.03583 0.66673 0.53039 0.0
N249 N 0.00378 0.64974 0.5405 0.0
C250 C 0.09321 0.66272 0.52871 0.0
H251 H 0.1071 0.69216 0.52422 0.0
H252 H 0.10853 0.65837 0.54215 0.0
H253 H 0.09314 0.64688 0.514 0.0
C254 C 0.09055 0.80655 0.54778 0.0
N255 N 0.07681 0.7828 0.53076 0.0
N256 N 0.07215 0.75076 0.53678 0.0
C257 C 0.08437 0.75377 0.55783 0.0
C258 C 0.09637 0.78921 0.56543 0.0
C259 C 0.10037 0.84597 0.54665 0.0
H260 H 0.08234 0.84946 0.53481 0.0
H261 H 0.12928 0.86278 0.54134 0.0
H262 H 0.09771 0.85637 0.56297 0.0
O263 O 0.01794 0.76325 0.4935 0.0
O264 O 0.00397 0.70657 0.50209 0.0
H265 H 0.05699 0.69948 0.57104 0.0
H266 H 0.09467 0.73219 0.58771 0.0
C267 C 0.08492 0.72363 0.57052 0.0
H268 H 0.10322 0.71562 0.56209 0.0
H269 H 0.98431 0.65803 0.5397 0.0
O270 O 0.09039 0.84163 0.49471 0.0
C271 C 0.9948 0.72926 0.49468 0.0
Co272 Co 0.26153 0.05475 0.68251 0.0
Co273 Co 0.33014 0.04706 0.68749 0.0
C274 C 0.33315 0.09991 0.65596 0.0
O275 O 0.30016 0.08849 0.66168 0.0
O276 O 0.35149 0.08651 0.66454 0.0
C277 C 0.2421 0.10647 0.68551 0.0
O278 O 0.27725 0.1245 0.69006 0.0
C279 C 0.40053 0.05339 0.70209 0.0
C280 C 0.37838 -0.00048 0.71846 0.0
C281 C 0.41033 0.03237 0.71498 0.0
N282 N 0.36418 0.03386 0.69854 0.0
N283 N 0.35139 0.00148 0.70799 0.0
C284 C 0.4244 0.09251 0.69544 0.0
H285 H 0.40768 0.10498 0.69063 0.0
H286 H 0.44314 0.1084 0.70917 0.0
H287 H 0.44134 0.0937 0.68107 0.0
C288 C 0.2729 0.07165 0.72999 0.0
N289 N 0.2809 0.06032 0.71103 0.0
N290 N 0.31319 0.063 0.71269 0.0
C291 C 0.32777 0.07866 0.73247 0.0
C292 C 0.30261 0.08457 0.74405 0.0
C293 C 0.23878 0.07344 0.73403 0.0
H294 H 0.21676 0.05513 0.7225 0.0
H295 H 0.24476 0.1021 0.73211 0.0
H296 H 0.22922 0.06504 0.75126 0.0
O297 O 0.23929 0.00423 0.67281 0.0
O298 O 0.28967 -3e-05 0.67339 0.0
H299 H 0.3699 0.06643 0.74018 0.0
H300 H 0.37202 0.10375 0.7561 0.0
C301 C 0.36602 0.09057 0.73955 0.0
H302 H 0.38542 0.11023 0.72732 0.0
H303 H 0.32377 0.98141 0.7083 0.0
O304 O 0.22655 0.07226 0.68182 0.0
C305 C 0.25557 0.98623 0.66928 0.0
Co306 Co 0.19993 0.26873 0.84405 0.0
Co307 Co 0.27885 0.33126 0.85392 0.0
C308 C 0.23513 0.34284 0.82062 0.0
O309 O 0.21006 0.31038 0.82486 0.0
O310 O 0.2661 0.35692 0.83029 0.0
C311 C 0.12898 0.2523 0.84395 0.0
O312 O 0.14654 0.28743 0.84879 0.0
C313 C 0.34228 0.39934 0.87154 0.0
C314 C 0.37236 0.37545 0.88793 0.0
C315 C 0.37216 0.40795 0.88506 0.0
N316 N 0.32537 0.3632 0.86698 0.0
N317 N 0.34393 0.34934 0.87652 0.0
C318 C 0.32779 0.42397 0.86509 0.0
H319 H 0.2983 0.40773 0.8609 0.0
H320 H 0.33198 0.44351 0.87864 0.0
H321 H 0.34287 0.43998 0.85031 0.0
C322 C 0.19011 0.27523 0.89177 0.0
N323 N 0.21128 0.28442 0.87356 0.0
N324 N 0.2429 0.31397 0.87753 0.0
C325 C 0.24179 0.3257 0.89827 0.0
C326 C 0.20824 0.30157 0.90792 0.0
C327 C 0.15197 0.24326 0.89321 0.0
H328 H 0.14746 0.22237 0.88056 0.0
H329 H 0.13203 0.25291 0.89107 0.0
H330 H 0.14691 0.22999 0.90962 0.0
O331 O 0.22655 0.24465 0.83437 0.0
O332 O 0.28353 0.28922 0.84024 0.0
H333 H 0.29738 0.35906 0.90848 0.0
H334 H 0.26485 0.36311 0.9259 0.0
C335 C 0.27156 0.35992 0.90857 0.0
H336 H 0.27567 0.38391 0.89882 0.0
H337 H 0.33613 0.32162 0.87613 0.0
O338 O 0.14715 0.23607 0.84085 0.0
C339 C 0.2608 0.25674 0.83366 0.0
Co340 Co 0.93108 0.20564 1.00292 0.0
Co341 Co 0.94111 0.28078 0.01848 0.0
C342 C 0.8923 0.24141 0.98083 0.0
O343 O 0.90179 0.21721 0.98255 0.0
O344 O 0.90418 0.26868 0.99407 0.0
C345 C 0.9037 0.13755 0.97987 0.0
O346 O 0.89791 0.15469 0.96363 0.0
C347 C 0.93113 0.3393 0.04008 0.0
C348 C 0.98446 0.36939 0.05716 0.0
C349 C 0.95111 0.36786 0.0548 0.0
N350 N 0.95178 0.32438 0.03431 0.0
N351 N 0.98377 0.34299 0.04433 0.0
C352 C 0.89214 0.32432 0.03333 0.0
H353 H 0.88022 0.2956 0.02749 0.0
H354 H 0.87586 0.32576 0.04735 0.0
H355 H 0.89101 0.34118 0.01963 0.0
C356 C 0.90154 0.18351 0.04767 0.0
N357 N 0.9183 0.20943 0.03212 0.0
N358 N 0.92216 0.24072 0.03922 0.0
C359 C 0.90791 0.23551 0.05986 0.0
C360 C 0.89447 0.19911 0.06588 0.0
C361 C 0.88862 0.1437 0.04388 0.0
H362 H 0.91264 0.14002 0.04125 0.0
H363 H 0.87158 0.13438 0.02872 0.0
H364 H 0.87209 0.12624 0.05782 0.0
O365 O 0.98341 0.23697 0.99801 0.0
O366 O 0.99 0.29156 1.0055 0.0
H367 H 0.93392 0.28942 0.07383 0.0
H368 H 0.89792 0.25513 0.09075 0.0
C369 C 0.90655 0.26447 0.07351 0.0
H370 H 0.88689 0.27148 0.066 0.0
H371 H 0.00464 0.3366 0.04315 0.0
O372 O 0.91894 0.15486 0.99748 0.0
C373 C 0.00309 0.27156 0.99905 0.0
Co374 Co 0.72873 0.93417 0.18269 0.0
Co375 Co 0.6614 0.94433 0.18977 0.0
C376 C 0.65662 0.89001 0.15753 0.0
O377 O 0.68954 0.89982 0.16258 0.0
O378 O 0.6399 0.90497 0.16651 0.0
C379 C 0.75684 0.88705 0.18296 0.0
O380 O 0.72186 0.86314 0.18525 0.0
C381 C 0.59078 0.937 0.20525 0.0
C382 C 0.61242 0.99107 0.22143 0.0
C383 C 0.58072 0.9579 0.21817 0.0
N384 N 0.62705 0.95691 0.20143 0.0
N385 N 0.63952 0.98938 0.2108 0.0
C386 C 0.56726 0.89771 0.19873 0.0
H387 H 0.58429 0.88526 0.19456 0.0
H388 H 0.54794 0.88208 0.21227 0.0
H389 H 0.55096 0.89618 0.18397 0.0
C390 C 0.71915 0.91741 0.23032 0.0
N391 N 0.71048 0.92859 0.2116 0.0
N392 N 0.67966 0.92879 0.21441 0.0
C393 C 0.66679 0.91572 0.2349 0.0
C394 C 0.69135 0.908 0.24562 0.0
C395 C 0.75176 0.91247 0.23284 0.0
H396 H 0.77404 0.93109 0.2216 0.0
H397 H 0.7437 0.88357 0.22923 0.0
H398 H 0.76255 0.9186 0.24993 0.0
O399 O 0.74961 0.98462 0.17304 0.0
O400 O 0.70086 0.9914 0.17564 0.0
H401 H 0.63013 0.93489 0.24364 0.0
H402 H 0.62641 0.89853 0.26103 0.0
C403 C 0.63087 0.90898 0.24381 0.0
H404 H 0.60851 0.88874 0.23317 0.0
H405 H 0.66702 0.0098 0.21089 0.0
O406 O 0.76691 0.92079 0.18121 0.0
C407 C 0.73442 0.00386 0.1706 0.0
H408 H 0.59668 0.57352 0.42882 0.0
H409 H 0.5802 0.51282 0.36822 0.0
H410 H 0.55066 0.5182 0.44716 0.0
H411 H 0.53393 0.45691 0.38672 0.0
H412 H 0.41585 0.3958 0.41892 0.0
H413 H 0.47137 0.44113 0.40034 0.0
H414 H 0.53326 0.45513 0.45999 0.0
H415 H 0.47729 0.40985 0.47874 0.0
C416 C 0.58358 0.54809 0.41954 0.0
C417 C 0.59178 0.54738 0.3971 0.0
C418 C 0.55751 0.51634 0.43012 0.0
C419 C 0.5387 0.48324 0.41838 0.0
C420 C 0.54801 0.48213 0.39613 0.0
C421 C 0.57457 0.51397 0.38559 0.0
C422 C 0.44142 0.40822 0.42798 0.0
C423 C 0.44232 0.39943 0.45027 0.0
C424 C 0.47327 0.43384 0.41726 0.0
C425 C 0.50665 0.4516 0.4287 0.0
C426 C 0.50784 0.44183 0.45079 0.0
C427 C 0.47592 0.41582 0.46148 0.0
H428 H 0.0665 0.4844 0.64552 0.0
H429 H 0.0207 0.42167 0.5858 0.0
H430 H 0.07541 0.53971 0.6265 0.0
H431 H 0.02952 0.4765 0.56689 0.0
H432 H 0.06796 0.58538 0.53418 0.0
H433 H 0.0771 0.5396 0.55362 0.0
H434 H 0.02795 0.55527 0.6123 0.0
H435 H 0.01904 0.60096 0.59296 0.0
C436 C 0.05915 0.48266 0.62823 0.0
C437 C 0.04287 0.44889 0.6171 0.0
C438 C 0.06403 0.51416 0.6174 0.0
C439 C 0.05321 0.51235 0.59522 0.0
C440 C 0.03855 0.47884 0.58389 0.0
C441 C 0.03318 0.4474 0.59477 0.0
C442 C 0.05999 0.57965 0.55138 0.0
C443 C 0.04283 0.59665 0.5621 0.0
C444 C 0.065 0.55335 0.56245 0.0
C445 C 0.05328 0.54396 0.58447 0.0
C446 C 0.03767 0.56227 0.59544 0.0
C447 C 0.03224 0.58813 0.58431 0.0
H448 H 0.41922 0.01896 0.75745 0.0
H449 H 0.47983 0.06932 0.69781 0.0
H450 H 0.47512 0.02935 0.77549 0.0
H451 H 0.53631 0.08007 0.71601 0.0
H452 H 0.60115 0.02498 0.74592 0.0
H453 H 0.55494 0.03451 0.72795 0.0
H454 H 0.53704 0.07623 0.78921 0.0
H455 H 0.58317 0.06619 0.80732 0.0
C456 C 0.44472 0.03281 0.74833 0.0
C457 C 0.44528 0.04321 0.72623 0.0
C458 C 0.47679 0.03913 0.75874 0.0
C459 C 0.51009 0.05556 0.74717 0.0
C460 C 0.51095 0.06729 0.72528 0.0
C461 C 0.47877 0.06136 0.71492 0.0
C462 C 0.58774 0.03674 0.75545 0.0
C463 C 0.59564 0.0448 0.778 0.0
C464 C 0.56158 0.04257 0.7451 0.0
C465 C 0.54241 0.05613 0.75717 0.0
C466 C 0.55141 0.06568 0.77953 0.0
C467 C 0.57794 0.06018 0.78985 0.0
H468 H 0.56967 0.59969 0.91808 0.0
H469 H 0.50988 0.5807 0.9792 0.0
H470 H 0.51467 0.55264 0.89987 0.0
H471 H 0.45437 0.5332 0.96088 0.0
H472 H 0.395 0.41541 0.92751 0.0
H473 H 0.44025 0.47097 0.94628 0.0
H474 H 0.45045 0.53414 0.88785 0.0
H475 H 0.40507 0.47821 0.86896 0.0
C476 C 0.5445 0.58578 0.92751 0.0
C477 C 0.54397 0.59366 0.95005 0.0
C478 C 0.51294 0.55908 0.91703 0.0
C479 C 0.48023 0.53924 0.92894 0.0
C480 C 0.47929 0.54808 0.95132 0.0
C481 C 0.5109 0.57532 0.96177 0.0
C482 C 0.40655 0.44126 0.91878 0.0
C483 C 0.39659 0.44254 0.89678 0.0
C484 C 0.43215 0.47311 0.92961 0.0
C485 C 0.44881 0.5069 0.91856 0.0
C486 C 0.43801 0.50842 0.89676 0.0
C487 C 0.41193 0.47651 0.88599 0.0
H488 H 0.9171 0.4051 0.04023 0.0
H489 H 0.96068 0.38185 0.09854 0.0
H490 H 0.91006 0.45139 0.06096 0.0
H491 H 0.95258 0.42679 0.1194 0.0
H492 H 0.89131 0.52615 0.10794 0.0
H493 H 0.88247 0.46891 0.09158 0.0
H494 H 0.98742 0.49228 0.11744 0.0
H495 H 0.99556 0.54826 0.13408 0.0
C496 C 0.92406 0.40911 0.05764 0.0
C497 C 0.93984 0.39035 0.06776 0.0
C498 C 0.91999 0.43553 0.06954 0.0
C499 C 0.9314 0.44328 0.09176 0.0
C500 C 0.94439 0.42221 0.10219 0.0
C501 C 0.94891 0.39636 0.09028 0.0
C502 C 0.91184 0.51835 0.11069 0.0
C503 C 0.94391 0.54142 0.12256 0.0
C504 C 0.90703 0.48585 0.10105 0.0
C505 C 0.93412 0.47584 0.10328 0.0
C506 C 0.96562 0.49861 0.11571 0.0
C507 C 0.97045 0.53093 0.12514 0.0
H508 H 0.51167 0.92231 0.20045 0.0
H509 H 0.57108 0.97005 0.26085 0.0
H510 H 0.45516 0.91269 0.21826 0.0
H511 H 0.51504 0.96038 0.27859 0.0
H512 H 0.40473 0.92321 0.309 0.0
H513 H 0.45096 0.91274 0.29107 0.0
H514 H 0.4393 0.96104 0.23093 0.0
H515 H 0.39341 0.97146 0.24879 0.0
C516 C 0.51241 0.92986 0.21765 0.0
C517 C 0.54561 0.94704 0.22928 0.0
C518 C 0.48022 0.92454 0.2278 0.0
C519 C 0.48076 0.93577 0.24981 0.0
C520 C 0.51367 0.95104 0.26172 0.0
C521 C 0.54579 0.95689 0.2515 0.0
C522 C 0.41146 0.93071 0.29181 0.0
C523 C 0.39566 0.94821 0.28027 0.0
C524 C 0.43797 0.9249 0.28159 0.0
C525 C 0.44864 0.93603 0.2596 0.0
C526 C 0.43132 0.95175 0.24778 0.0
C527 C 0.40534 0.95805 0.25807 0.0
H528 H 0.09764 0.90383 0.48361 0.0
H529 H 0.19661 0.90571 0.50441 0.0
H530 H 0.12952 0.97062 0.48494 0.0
H531 H 0.22792 0.97204 0.50654 0.0
H532 H 0.28329 0.09143 0.48843 0.0
H533 H 0.2512 0.02534 0.48399 0.0
H534 H 0.15387 0.01851 0.51252 0.0
H535 H 0.18573 0.0851 0.51616 0.0
C536 C 0.1262 0.91853 0.48841 0.0
C537 C 0.1447 0.89969 0.4939 0.0
C538 C 0.14433 0.95668 0.48934 0.0
C539 C 0.18113 0.9765 0.49595 0.0
C540 C 0.19971 0.95756 0.50107 0.0
C541 C 0.18173 0.91953 0.49992 0.0
C542 C 0.25509 0.07581 0.49386 0.0
C543 C 0.23698 0.09324 0.50277 0.0
C544 C 0.23673 0.03796 0.49134 0.0
C545 C 0.20007 0.01676 0.49796 0.0
C546 C 0.18198 0.03422 0.50696 0.0
C547 C 0.20025 0.07223 0.50923 0.0
H548 H 0.08301 0.18093 0.68244 0.0
H549 H 0.18684 0.27312 0.66272 0.0
H550 H 0.11239 0.14418 0.68772 0.0
H551 H 0.21586 0.23619 0.66744 0.0
H552 H 0.26438 0.17514 0.70051 0.0
H553 H 0.23211 0.20927 0.69768 0.0
H554 H 0.1413 0.11631 0.66597 0.0
H555 H 0.17328 0.08165 0.66936 0.0
C556 C 0.11202 0.19324 0.67911 0.0
C557 C 0.13273 0.22988 0.67228 0.0
C558 C 0.12876 0.17218 0.68205 0.0
C559 C 0.16639 0.18746 0.67813 0.0
C560 C 0.18692 0.22396 0.67101 0.0
C561 C 0.17027 0.24502 0.66818 0.0
C562 C 0.23745 0.16191 0.69303 0.0
C563 C 0.22141 0.12592 0.68495 0.0
C564 C 0.21908 0.18151 0.69133 0.0
C565 C 0.18445 0.16556 0.68135 0.0
C566 C 0.16789 0.12915 0.67386 0.0
C567 C 0.18622 0.1094 0.67571 0.0
H568 H 0.08355 0.18282 0.82893 0.0
H569 H 0.0841 0.27489 0.86111 0.0
H570 H 0.0168 0.14883 0.83038 0.0
H571 H 0.01783 0.24062 0.86334 0.0
H572 H 0.90073 0.18746 0.83958 0.0
H573 H 0.96703 0.21973 0.83896 0.0
H574 H 0.96592 0.11943 0.85578 0.0
H575 H 0.89912 0.08666 0.85556 0.0
C576 C 0.06939 0.19566 0.83641 0.0
C577 C 0.08886 0.23155 0.84471 0.0
C578 C 0.03125 0.17614 0.8374 0.0
C579 C 0.0121 0.19212 0.84691 0.0
C580 C 0.03176 0.22783 0.85551 0.0
C581 C 0.06974 0.24743 0.85429 0.0
C582 C 0.91459 0.17231 0.84332 0.0
C583 C 0.89483 0.13459 0.84769 0.0
C584 C 0.95261 0.19084 0.84304 0.0
C585 C 0.97169 0.17215 0.84741 0.0
C586 C 0.95193 0.13445 0.85207 0.0
C587 C 0.91376 0.11578 0.85212 0.0
H588 H 0.82251 0.90345 1.00034 0.0
H589 H 0.73003 0.91983 0.9911 0.0
H590 H 0.86413 0.96849 0.99307 0.0
H591 H 0.77158 0.98455 0.98388 0.0
H592 H 0.85316 0.08935 0.95068 0.0
H593 H 0.81761 0.02279 0.95426 0.0
H594 H 0.87991 0.02849 0.01223 0.0
H595 H 0.91558 0.09495 0.0087 0.0
C596 C 0.8111 0.92092 0.99684 0.0
C597 C 0.77303 0.9066 0.99633 0.0
C598 C 0.83489 0.95805 0.99267 0.0
C599 C 0.82097 0.98129 0.98768 0.0
C600 C 0.78296 0.96701 0.9873 0.0
C601 C 0.75922 0.93006 0.99168 0.0
C602 C 0.85979 0.07636 0.96392 0.0
C603 C 0.88686 0.09735 0.97956 0.0
C604 C 0.83928 0.03834 0.96604 0.0
C605 C 0.84579 0.02072 0.98368 0.0
C606 C 0.87444 0.04145 0.99846 0.0
C607 C 0.89473 0.07947 0.99646 0.0
H608 H 0.74616 0.8218 0.19833 0.0
H609 H 0.82962 0.92668 0.17324 0.0
H610 H 0.79183 0.80301 0.20283 0.0
H611 H 0.87534 0.90764 0.17772 0.0
H612 H 0.91956 0.82701 0.15805 0.0
H613 H 0.8836 0.85775 0.1586 0.0
H614 H 0.84983 0.82102 0.2256 0.0
H615 H 0.8859 0.79021 0.22516 0.0
C616 C 0.77424 0.8408 0.19376 0.0
C617 C 0.78433 0.87556 0.18527 0.0
C618 C 0.80041 0.83022 0.1966 0.0
C619 C 0.83704 0.85407 0.19079 0.0
C620 C 0.84722 0.88886 0.18234 0.0
C621 C 0.8211 0.89965 0.17974 0.0
C622 C 0.90513 0.82619 0.17308 0.0
C623 C 0.90508 0.80586 0.19147 0.0
C624 C 0.88473 0.84392 0.1734 0.0
C625 C 0.86373 0.84129 0.19205 0.0
C626 C 0.86557 0.82302 0.21096 0.0
C627 C 0.88634 0.80562 0.21074 0.0
H628 H 0.08955 0.91304 0.34762 0.0
H629 H 0.07915 0.81247 0.32167 0.0
H630 H 0.0234 0.88225 0.35313 0.0
H631 H 0.01329 0.78216 0.32664 0.0
H632 H 0.90512 0.72804 0.36179 0.0
H633 H 0.97123 0.76178 0.35777 0.0
H634 H 0.96582 0.8546 0.33197 0.0
H635 H 0.89941 0.82103 0.33653 0.0
C636 C 0.07311 0.88448 0.34296 0.0
C637 C 0.08942 0.86502 0.33439 0.0
C638 C 0.03532 0.86695 0.34602 0.0
C639 C 0.01336 0.82978 0.34049 0.0
C640 C 0.02968 0.81065 0.33147 0.0
C641 C 0.06736 0.82806 0.32852 0.0
C642 C 0.91802 0.75568 0.35533 0.0
C643 C 0.89719 0.77184 0.34927 0.0
C644 C 0.95583 0.77492 0.35294 0.0
C645 C 0.97353 0.81059 0.34429 0.0
C646 C 0.95283 0.82718 0.33879 0.0
C647 C 0.91489 0.80795 0.34131 0.0
H648 H 0.22883 0.04254 0.34741 0.0
H649 H 0.33306 0.05021 0.36058 0.0
H650 H 0.24811 0.0992 0.36729 0.0
H651 H 0.35285 0.10801 0.38046 0.0
H652 H 0.33888 0.16787 0.44324 0.0
H653 H 0.33614 0.12391 0.41582 0.0
H654 H 0.28747 0.16451 0.36905 0.0
H655 H 0.28956 0.20788 0.39694 0.0
C656 C 0.25619 0.05665 0.35429 0.0
C657 C 0.27922 0.0415 0.35261 0.0
C658 C 0.26744 0.08953 0.36553 0.0
C659 C 0.30208 0.10835 0.37553 0.0
C660 C 0.32586 0.09408 0.37309 0.0
C661 C 0.31462 0.06107 0.36163 0.0
C662 C 0.32886 0.16818 0.42679 0.0
C663 C 0.31469 0.19128 0.42202 0.0
C664 C 0.32727 0.14302 0.41105 0.0
C665 C 0.31122 0.14032 0.39025 0.0
C666 C 0.29952 0.16547 0.38501 0.0
C667 C 0.30106 0.1906 0.40082 0.0
H668 H 0.27319 0.33366 0.5227 0.0
H669 H 0.18331 0.22213 0.52055 0.0
H670 H 0.23321 0.35275 0.54064 0.0
H671 H 0.14415 0.2408 0.53872 0.0
H672 H 0.07134 0.2776 0.56426 0.0
H673 H 0.11167 0.27329 0.53676 0.0
H674 H 0.20547 0.345 0.57677 0.0
H675 H 0.16492 0.35014 0.60364 0.0
C676 C 0.24489 0.31331 0.5258 0.0
C677 C 0.23163 0.2763 0.52034 0.0
C678 C 0.22201 0.32421 0.53618 0.0
C679 C 0.18535 0.29837 0.54117 0.0
C680 C 0.17192 0.26169 0.53485 0.0
C681 C 0.19465 0.25086 0.52459 0.0
C682 C 0.10069 0.29358 0.56658 0.0
C683 C 0.11521 0.31444 0.58582 0.0
C684 C 0.12382 0.29077 0.55105 0.0
C685 C 0.16187 0.30824 0.55471 0.0
C686 C 0.17645 0.3314 0.57324 0.0
C687 C 0.15328 0.33444 0.58865 0.0
H688 H 0.78857 0.08489 0.7321 0.0
H689 H 0.83452 0.17183 0.78036 0.0
H690 H 0.83162 0.12645 0.70422 0.0
H691 H 0.87765 0.21332 0.75286 0.0
H692 H 0.94682 0.2857 0.69751 0.0
H693 H 0.88969 0.24709 0.71762 0.0
H694 H 0.89782 0.15144 0.70143 0.0
H695 H 0.95414 0.18957 0.68139 0.0
C696 C 0.80722 0.1132 0.73648 0.0
C697 C 0.80839 0.1254 0.7582 0.0
C698 C 0.832 0.13691 0.72066 0.0
C699 C 0.85826 0.17318 0.72635 0.0
C700 C 0.85759 0.1858 0.7478 0.0
C701 C 0.83302 0.16207 0.76358 0.0
C702 C 0.93594 0.25635 0.69791 0.0
C703 C 0.95528 0.24079 0.6881 0.0
C704 C 0.90334 0.23425 0.70949 0.0
C705 C 0.88924 0.19617 0.71122 0.0
C706 C 0.90756 0.18054 0.70026 0.0
C707 C 0.94015 0.20254 0.68893 0.0
H708 H 0.6534 0.93843 0.85627 0.0
H709 H 0.75968 0.94938 0.84554 0.0
H710 H 0.63297 0.87939 0.87448 0.0
H711 H 0.73975 0.89138 0.86385 0.0
H712 H 0.70022 0.78365 0.89306 0.0
H713 H 0.70174 0.826 0.86481 0.0
H714 H 0.64784 0.86341 0.91014 0.0
H715 H 0.64556 0.8203 0.93786 0.0
C716 C 0.67213 0.92793 0.85739 0.0
C717 C 0.7083 0.94883 0.84972 0.0
C718 C 0.66052 0.89423 0.86793 0.0
C719 C 0.68474 0.88063 0.87077 0.0
C720 C 0.72011 0.90058 0.86178 0.0
C721 C 0.73172 0.93417 0.85143 0.0
C722 C 0.68739 0.79991 0.8965 0.0
C723 C 0.6725 0.7987 0.9174 0.0
C724 C 0.68859 0.82445 0.88049 0.0
C725 C 0.67537 0.84855 0.88529 0.0
C726 C 0.65791 0.84509 0.90572 0.0
C727 C 0.65658 0.82043 0.92163 0.0
H728 H 0.80255 0.7513 0.99633 0.0
H729 H 0.71426 0.67605 0.03829 0.0
H730 H 0.84397 0.73509 0.01444 0.0
H731 H 0.75609 0.6617 0.0578 0.0
H732 H 0.83506 0.63689 0.09086 0.0
H733 H 0.79443 0.6376 0.06227 0.0
H734 H 0.87526 0.7498 0.04689 0.0
H735 H 0.91607 0.74767 0.0742 0.0
C736 C 0.79202 0.73105 0.0094 0.0
C737 C 0.75535 0.71513 0.01605 0.0
C738 C 0.81584 0.72196 0.02 0.0
C739 C 0.80392 0.6977 0.03811 0.0
C740 C 0.76651 0.68023 0.04388 0.0
C741 C 0.74241 0.68856 0.03278 0.0
C742 C 0.84444 0.66109 0.08069 0.0
C743 C 0.8785 0.69234 0.08476 0.0
C744 C 0.82095 0.66182 0.06455 0.0
C745 C 0.83096 0.69399 0.05235 0.0
C746 C 0.86632 0.72426 0.05554 0.0
C747 C 0.88985 0.72325 0.07135 0.0
H748 H 0.05772 0.79859 0.15943 0.0
H749 H 0.03472 0.71771 0.20977 0.0
H750 H 0.11609 0.83993 0.17691 0.0
H751 H 0.09169 0.75986 0.2285 0.0
H752 H 0.19641 0.83856 0.26025 0.0
H753 H 0.15423 0.79438 0.23333 0.0
H754 H 0.13447 0.87823 0.20664 0.0
H755 H 0.17876 0.92244 0.23227 0.0
C756 C 0.06558 0.78957 0.17414 0.0
C757 C 0.04193 0.75509 0.18329 0.0
C758 C 0.09882 0.81343 0.1844 0.0
C759 C 0.10861 0.80393 0.20456 0.0
C760 C 0.08565 0.76833 0.21295 0.0
C761 C 0.05281 0.74404 0.20228 0.0
C762 C 0.18398 0.84766 0.24801 0.0
C763 C 0.19041 0.88374 0.24846 0.0
C764 C 0.15925 0.8222 0.2328 0.0
C765 C 0.13999 0.83216 0.21794 0.0
C766 C 0.14866 0.86914 0.21754 0.0
C767 C 0.17382 0.89461 0.23246 0.0
H768 H 0.93937 0.6588 0.48547 0.0
H769 H 0.96434 0.77157 0.48636 0.0
H770 H 0.87878 0.64044 0.47002 0.0
H771 H 0.90498 0.75357 0.47085 0.0
H772 H 0.79323 0.71894 0.45227 0.0
H773 H 0.84022 0.72202 0.47725 0.0
H774 H 0.85514 0.64815 0.43444 0.0
H775 H 0.80726 0.64439 0.40997 0.0
C776 C 0.93186 0.67957 0.48261 0.0
C777 C 0.95689 0.71669 0.48699 0.0
C778 C 0.89723 0.66909 0.4737 0.0
C779 C 0.88684 0.69548 0.46929 0.0
C780 C 0.91156 0.73233 0.4744 0.0
C781 C 0.94597 0.74274 0.48309 0.0
C782 C 0.80558 0.70225 0.44878 0.0
C783 C 0.7967 0.68135 0.42936 0.0
C784 C 0.83277 0.70429 0.46289 0.0
C785 C 0.85205 0.68593 0.45761 0.0
C786 C 0.8408 0.66248 0.43911 0.0
C787 C 0.81334 0.66024 0.4251 0.0
H788 H 0.07734 0.82222 0.59716 0.0
H789 H 0.16172 0.79774 0.57922 0.0
H790 H 0.11673 0.86447 0.62541 0.0
H791 H 0.20097 0.83838 0.60863 0.0
H792 H 0.27674 0.95598 0.63644 0.0
H793 H 0.23715 0.90123 0.61483 0.0
H794 H 0.14686 0.87815 0.65857 0.0
H795 H 0.18597 0.93419 0.67898 0.0
C796 C 0.10411 0.82521 0.59979 0.0
C797 C 0.11677 0.80728 0.58588 0.0
C798 C 0.12676 0.84924 0.61616 0.0
C799 C 0.16254 0.85545 0.61934 0.0
C800 C 0.17404 0.83511 0.60642 0.0
C801 C 0.1514 0.81137 0.58979 0.0
C802 C 0.24858 0.93872 0.64159 0.0
C803 C 0.23425 0.94948 0.65916 0.0
C804 C 0.22578 0.90715 0.62927 0.0
C805 C 0.18833 0.88531 0.63458 0.0
C806 C 0.17507 0.89474 0.6534 0.0
C807 C 0.19758 0.9267 0.6653 0.0
H808 H 0.21934 0.18391 0.82493 0.0
H809 H 0.33086 0.27342 0.82176 0.0
H810 H 0.23734 0.14375 0.80743 0.0
H811 H 0.34929 0.23235 0.80437 0.0
H812 H 0.34468 0.15855 0.74325 0.0
H813 H 0.34061 0.20159 0.76872 0.0
H814 H 0.26983 0.11133 0.81129 0.0
H815 H 0.27308 0.0685 0.78526 0.0
C816 C 0.24793 0.19501 0.82074 0.0
C817 C 0.27357 0.23212 0.82463 0.0
C818 C 0.25838 0.17169 0.81088 0.0
C819 C 0.29487 0.18459 0.80457 0.0
C820 C 0.3209 0.22152 0.80892 0.0
C821 C 0.31038 0.24502 0.81896 0.0
C822 C 0.32942 0.14824 0.7585 0.0
C823 C 0.30928 0.11037 0.76244 0.0
C824 C 0.32699 0.17284 0.7731 0.0
C825 C 0.30434 0.15993 0.7919 0.0
C826 C 0.28689 0.12219 0.79673 0.0
C827 C 0.28906 0.09764 0.78203 0.0
H828 H 0.05509 0.2582 0.01515 0.0
H829 H 0.03631 0.32026 0.96561 0.0
H830 H 0.11407 0.27506 0.99851 0.0
H831 H 0.09385 0.33497 0.94766 0.0
H832 H 0.19831 0.35956 0.91656 0.0
H833 H 0.15634 0.3618 0.94359 0.0
H834 H 0.13325 0.25619 0.9687 0.0
H835 H 0.17731 0.25596 0.943 0.0
C836 C 0.06403 0.27598 1.00082 0.0
C837 C 0.04139 0.28805 0.99164 0.0
C838 C 0.09762 0.28528 0.99103 0.0
C839 C 0.10876 0.30573 0.97129 0.0
C840 C 0.08679 0.31956 0.96292 0.0
C841 C 0.05362 0.31108 0.97314 0.0
C842 C 0.18522 0.33762 0.92851 0.0
C843 C 0.19054 0.3073 0.92754 0.0
C844 C 0.1606 0.3385 0.94377 0.0
C845 C 0.14037 0.30877 0.95816 0.0
C846 C 0.14814 0.27984 0.95817 0.0
C847 C 0.17319 0.27937 0.94321 0.0
H848 H 0.80567 0.05279 0.17845 0.0
H849 H 0.71304 0.03699 0.13982 0.0
H850 H 0.8455 0.10778 0.15748 0.0
H851 H 0.75318 0.09096 0.11775 0.0
H852 H 0.83223 0.19504 0.08266 0.0
H853 H 0.79333 0.15467 0.11229 0.0
H854 H 0.87062 0.11686 0.12228 0.0
H855 H 0.90968 0.15828 0.09363 0.0
C856 C 0.79381 0.06143 0.16557 0.0
C857 C 0.75639 0.04052 0.1606 0.0
C858 C 0.81668 0.09278 0.15338 0.0
C859 C 0.8029 0.10347 0.13547 0.0
C860 C 0.76488 0.08382 0.13146 0.0
C861 C 0.74179 0.05278 0.14405 0.0
C862 C 0.84117 0.17877 0.09174 0.0
C863 C 0.87379 0.17955 0.08592 0.0
C864 C 0.81873 0.15531 0.1085 0.0
C865 C 0.82853 0.13215 0.1197 0.0
C866 C 0.86221 0.13454 0.11442 0.0
C867 C 0.8846 0.15809 0.09786 0.0
H868 H 0.73345 0.802 0.35526 0.0
H869 H 0.67612 0.72032 0.30506 0.0
H870 H 0.71574 0.84274 0.33765 0.0
H871 H 0.66086 0.7619 0.28613 0.0
H872 H 0.63486 0.83897 0.25308 0.0
H873 H 0.63263 0.79565 0.28064 0.0
H874 H 0.73449 0.881 0.30831 0.0
H875 H 0.73435 0.92437 0.28212 0.0
C876 C 0.71671 0.79275 0.34049 0.0
C877 C 0.7062 0.7582 0.33143 0.0
C878 C 0.70688 0.81624 0.33017 0.0
C879 C 0.68754 0.80634 0.31001 0.0
C880 C 0.67535 0.77072 0.30168 0.0
C881 C 0.68423 0.74676 0.31245 0.0
C882 C 0.65588 0.84858 0.26569 0.0
C883 C 0.68513 0.88478 0.26532 0.0
C884 C 0.65507 0.82361 0.28127 0.0
C885 C 0.6839 0.83418 0.29652 0.0
C886 C 0.71155 0.87137 0.2971 0.0
C887 C 0.71183 0.89639 0.28187 0.0
H888 H 0.35585 0.18451 0.52905 0.0
H889 H 0.36944 0.27703 0.56725 0.0
H890 H 0.36734 0.15836 0.5618 0.0
H891 H 0.38129 0.25097 0.60037 0.0
H892 H 0.31661 0.15358 0.65019 0.0
H893 H 0.33436 0.19699 0.62008 0.0
H894 H 0.40392 0.15787 0.59369 0.0
H895 H 0.38586 0.11383 0.62432 0.0
C896 C 0.36296 0.20004 0.54434 0.0
C897 C 0.36179 0.23274 0.54568 0.0
C898 C 0.36963 0.18508 0.56315 0.0
C899 C 0.37474 0.20226 0.58382 0.0
C900 C 0.37705 0.23685 0.58471 0.0
C901 C 0.37068 0.25203 0.56575 0.0
C902 C 0.33625 0.15462 0.63823 0.0
C903 C 0.34942 0.12988 0.63945 0.0
C904 C 0.34681 0.17992 0.62105 0.0
C905 C 0.37057 0.181 0.60439 0.0
C906 C 0.38544 0.15763 0.60623 0.0
C907 C 0.37521 0.13249 0.62376 0.0
H908 H 0.168 0.34586 0.69486 0.0
H909 H 0.10653 0.38853 0.72803 0.0
H910 H 0.20811 0.36107 0.72657 0.0
H911 H 0.14733 0.40447 0.76017 0.0
H912 H 0.17299 0.34586 0.81846 0.0
H913 H 0.14947 0.36282 0.78683 0.0
H914 H 0.25283 0.40171 0.75322 0.0
H915 H 0.27627 0.384 0.78526 0.0
C916 C 0.16386 0.35967 0.70875 0.0
C917 C 0.1339 0.36561 0.70911 0.0
C918 C 0.18712 0.36873 0.72694 0.0
C919 C 0.18083 0.38365 0.74614 0.0
C920 C 0.15271 0.3926 0.74574 0.0
C921 C 0.12949 0.38377 0.72731 0.0
C922 C 0.19112 0.35913 0.80459 0.0
C923 C 0.2263 0.36324 0.80419 0.0
C924 C 0.1777 0.36915 0.78645 0.0
C925 C 0.199 0.38325 0.76725 0.0
C926 C 0.23551 0.39049 0.76764 0.0
C927 C 0.24911 0.38067 0.78602 0.0
H928 H 0.76957 0.16643 0.8586 0.0
H929 H 0.73538 0.0796 0.9063 0.0
H930 H 0.80002 0.21198 0.88798 0.0
H931 H 0.76524 0.12472 0.9357 0.0
H932 H 0.90321 0.25383 0.93686 0.0
H933 H 0.85704 0.22308 0.90814 0.0
H934 H 0.77267 0.17848 0.95813 0.0
H935 H 0.81919 0.20974 0.98681 0.0
C936 C 0.76693 0.15722 0.87557 0.0
C937 C 0.74953 0.11963 0.88034 0.0
C938 C 0.78474 0.18322 0.89233 0.0
C939 C 0.7852 0.172 0.91417 0.0
C940 C 0.765 0.13438 0.91915 0.0
C941 C 0.74771 0.10845 0.90235 0.0
C942 C 0.8746 0.23904 0.94154 0.0
C943 C 0.86459 0.23472 0.96393 0.0
C944 C 0.84809 0.22126 0.92513 0.0
C945 C 0.81114 0.19814 0.93086 0.0
C946 C 0.80089 0.19602 0.9532 0.0
C947 C 0.8274 0.21424 0.96959 0.0
H948 H 0.61525 0.71969 0.06103 0.0
H949 H 0.6513 0.82369 0.02917 0.0
H950 H 0.60155 0.74327 0.09478 0.0
H951 H 0.63758 0.84712 0.06246 0.0
H952 H 0.61043 0.88519 0.124 0.0
H953 H 0.59412 0.84527 0.0913 0.0
H954 H 0.64802 0.79083 0.11991 0.0
H955 H 0.66427 0.8305 0.15214 0.0
C956 C 0.61892 0.74705 0.06099 0.0
C957 C 0.63459 0.77001 0.04264 0.0
C958 C 0.61132 0.76065 0.0803 0.0
C959 C 0.61873 0.7972 0.08137 0.0
C960 C 0.6312 0.81881 0.06221 0.0
C961 C 0.63932 0.80547 0.04316 0.0
C962 C 0.61768 0.86389 0.12352 0.0
C963 C 0.63898 0.8612 0.14043 0.0
C964 C 0.60853 0.84115 0.1048 0.0
C965 C 0.61998 0.815 0.10293 0.0
C966 C 0.63843 0.81034 0.12083 0.0
C967 C 0.64803 0.83333 0.13925 0.0
H968 H 0.89077 0.62055 0.22826 0.0
H969 H 0.82697 0.65998 0.19482 0.0
H970 H 0.85153 0.60666 0.26108 0.0
H971 H 0.78778 0.64594 0.22716 0.0
H972 H 0.71794 0.61562 0.28754 0.0
H973 H 0.74359 0.60124 0.25496 0.0
H974 H 0.84985 0.65338 0.28615 0.0
H975 H 0.82448 0.66786 0.31817 0.0
C976 C 0.86752 0.62484 0.22763 0.0
C977 C 0.86187 0.64136 0.20909 0.0
C978 C 0.84521 0.61717 0.24642 0.0
C979 C 0.81662 0.62539 0.24678 0.0
C980 C 0.8092 0.63887 0.22743 0.0
C981 C 0.83177 0.64708 0.2089 0.0
C982 C 0.74648 0.62297 0.28759 0.0
C983 C 0.76931 0.64314 0.30525 0.0
C984 C 0.76122 0.61491 0.26895 0.0
C985 C 0.79882 0.62624 0.26793 0.0
C986 C 0.82077 0.64384 0.28642 0.0
C987 C 0.80627 0.65243 0.30473 0.0
H988 H 0.16426 0.83189 0.35851 0.0
H989 H 0.27315 0.87804 0.38537 0.0
H990 H 0.14033 0.78732 0.3879 0.0
H991 H 0.24907 0.83231 0.41521 0.0
H992 H 0.17419 0.8013 0.4795 0.0
H993 H 0.21239 0.82731 0.44702 0.0
H994 H 0.13357 0.73579 0.40794 0.0
H995 H 0.09471 0.71044 0.44072 0.0
C996 C 0.18331 0.83192 0.37051 0.0
C997 C 0.22051 0.85893 0.36984 0.0
C998 C 0.16959 0.80589 0.38731 0.0
C999 C 0.1926 0.8061 0.40415 0.0
C1000 C 0.23045 0.83153 0.40263 0.0
C1001 C 0.24434 0.85762 0.38552 0.0
C1002 C 0.16588 0.7859 0.46416 0.0
C1003 C 0.13151 0.75395 0.46256 0.0
C1004 C 0.18785 0.80082 0.44545 0.0
C1005 C 0.17579 0.78419 0.42464 0.0
C1006 C 0.14337 0.74977 0.42362 0.0
C1007 C 0.12128 0.73485 0.44244 0.0
loop_
_geom_bond_atom_site_label_1
_geom_bond_atom_site_label_2
_geom_bond_distance
_geom_bond_site_symmetry_2
_ccdc_geom_bond_type
Co0 O3 1.970 . S
Co0 N17 1.989 . S
Co0 O25 1.967 . S
Co0 O32 1.920 . S
Co1 O4 1.966 . S
Co1 N10 2.022 . S
Co1 N18 1.993 . S
Co1 O26 1.941 . S
C2 O3 1.258 . S
C2 O4 1.263 . S
O3 Co0 1.970 . S
O3 C2 1.258 . S
O4 Co1 1.966 . S
O4 C2 1.263 . S
C5 O6 1.235 . S
C5 O32 1.289 . S
O6 C5 1.235 . S
C7 C9 1.400 . S
C7 N10 1.351 . S
C7 C12 1.501 . S
C8 C9 1.387 . S
C8 N11 1.341 . S
C9 C7 1.400 . S
C9 C8 1.387 . S
N10 Co1 2.022 . S
N10 C7 1.351 . S
N10 N11 1.365 . S
N11 C8 1.341 . S
N11 N10 1.365 . S
N11 H31 0.862 . S
C12 C7 1.501 . S
C12 H13 0.961 . S
C12 H14 0.961 . S
C12 H15 0.960 . S
H13 C12 0.961 . S
H14 C12 0.961 . S
H15 C12 0.960 . S
C16 N17 1.342 . S
C16 C20 1.401 . S
C16 C21 1.499 . S
N17 Co0 1.989 . S
N17 C16 1.342 . S
N17 N18 1.388 . S
N18 Co1 1.993 . S
N18 N17 1.388 . S
N18 C19 1.346 . S
C19 N18 1.346 . S
C19 C20 1.396 . S
C19 C29 1.510 . S
C20 C16 1.401 . S
C20 C19 1.396 . S
C21 C16 1.499 . S
C21 H22 0.959 . S
C21 H23 0.960 . S
C21 H24 0.961 . S
H22 C21 0.959 . S
H23 C21 0.960 . S
H24 C21 0.961 . S
O25 Co0 1.967 . S
O25 C33 1.258 . S
O26 Co1 1.941 . S
O26 C33 1.266 . S
H27 C29 0.959 . S
H28 C29 0.961 . S
C29 C19 1.510 . S
C29 H27 0.959 . S
C29 H28 0.961 . S
C29 H30 0.960 . S
H30 C29 0.960 . S
H31 N11 0.862 . S
O32 Co0 1.920 . S
O32 C5 1.289 . S
C33 O25 1.258 . S
C33 O26 1.266 . S
Co34 O37 1.970 . S
Co34 N51 1.989 . S
Co34 O59 1.967 . S
Co34 O66 1.920 . S
Co35 O38 1.966 . S
Co35 N44 2.022 . S
Co35 N52 1.993 . S
Co35 O60 1.941 . S
C36 O37 1.258 . S
C36 O38 1.263 . S
O37 Co34 1.970 . S
O37 C36 1.258 . S
O38 Co35 1.966 . S
O38 C36 1.263 . S
C39 O40 1.235 . S
C39 O66 1.289 . S
O40 C39 1.235 . S
C41 C43 1.400 . S
C41 N44 1.351 . S
C41 C46 1.501 . S
C42 C43 1.387 . S
C42 N45 1.341 . S
C43 C41 1.400 . S
C43 C42 1.387 . S
N44 Co35 2.022 . S
N44 C41 1.351 . S
N44 N45 1.365 . S
N45 C42 1.341 . S
N45 N44 1.365 . S
N45 H65 0.862 . S
C46 C41 1.501 . S
C46 H47 0.961 . S
C46 H48 0.961 . S
C46 H49 0.960 . S
H47 C46 0.961 . S
H48 C46 0.961 . S
H49 C46 0.960 . S
C50 N51 1.342 . S
C50 C54 1.401 . S
C50 C55 1.499 . S
N51 Co34 1.989 . S
N51 C50 1.342 . S
N51 N52 1.388 . S
N52 Co35 1.993 . S
N52 N51 1.388 . S
N52 C53 1.346 . S
C53 N52 1.346 . S
C53 C54 1.396 . S
C53 C63 1.510 . S
C54 C50 1.401 . S
C54 C53 1.396 . S
C55 C50 1.499 . S
C55 H56 0.959 . S
C55 H57 0.960 . S
C55 H58 0.961 . S
H56 C55 0.959 . S
H57 C55 0.960 . S
H58 C55 0.961 . S
O59 Co34 1.967 . S
O59 C67 1.258 . S
O60 Co35 1.941 . S
O60 C67 1.266 . S
H61 C63 0.959 . S
H62 C63 0.961 . S
C63 C53 1.510 . S
C63 H61 0.959 . S
C63 H62 0.961 . S
C63 H64 0.960 . S
H64 C63 0.960 . S
H65 N45 0.862 . S
O66 Co34 1.920 . S
O66 C39 1.289 . S
C67 O59 1.258 . S
C67 O60 1.266 . S
Co68 O71 1.970 . S
Co68 N85 1.989 . S
Co68 O93 1.967 . S
Co68 O100 1.920 . S
Co69 O72 1.966 . S
Co69 N78 2.022 . S
Co69 N86 1.993 . S
Co69 O94 1.941 . S
C70 O71 1.258 . S
C70 O72 1.263 . S
O71 Co68 1.970 . S
O71 C70 1.258 . S
O72 Co69 1.966 . S
O72 C70 1.263 . S
C73 O74 1.235 . S
C73 O100 1.289 . S
O74 C73 1.235 . S
C75 C77 1.400 . S
C75 N78 1.351 . S
C75 C80 1.501 . S
C76 C77 1.387 . S
C76 N79 1.341 . S
C77 C75 1.400 . S
C77 C76 1.387 . S
N78 Co69 2.022 . S
N78 C75 1.351 . S
N78 N79 1.365 . S
N79 C76 1.341 . S
N79 N78 1.365 . S
N79 H99 0.862 . S
C80 C75 1.501 . S
C80 H81 0.961 . S
C80 H82 0.961 . S
C80 H83 0.960 . S
H81 C80 0.961 . S
H82 C80 0.961 . S
H83 C80 0.960 . S
C84 N85 1.342 . S
C84 C88 1.401 . S
C84 C89 1.499 . S
N85 Co68 1.989 . S
N85 C84 1.342 . S
N85 N86 1.388 . S
N86 Co69 1.993 . S
N86 N85 1.388 . S
N86 C87 1.346 . S
C87 N86 1.346 . S
C87 C88 1.396 . S
C87 C97 1.510 . S
C88 C84 1.401 . S
C88 C87 1.396 . S
C89 C84 1.499 . S
C89 H90 0.959 . S
C89 H91 0.960 . S
C89 H92 0.961 . S
H90 C89 0.959 . S
H91 C89 0.960 . S
H92 C89 0.961 . S
O93 Co68 1.967 . S
O93 C101 1.258 . S
O94 Co69 1.941 . S
O94 C101 1.266 . S
H95 C97 0.959 . S
H96 C97 0.961 . S
C97 C87 1.510 . S
C97 H95 0.959 . S
C97 H96 0.961 . S
C97 H98 0.960 . S
H98 C97 0.960 . S
H99 N79 0.862 . S
O100 Co68 1.920 . S
O100 C73 1.289 . S
C101 O93 1.258 . S
C101 O94 1.266 . S
Co102 O105 1.970 . S
Co102 N119 1.989 . S
Co102 O127 1.967 . S
Co102 O134 1.920 . S
Co103 O106 1.966 . S
Co103 N112 2.022 . S
Co103 N120 1.993 . S
Co103 O128 1.941 . S
C104 O105 1.258 1_554 S
C104 O106 1.263 1_554 S
O105 Co102 1.970 . S
O105 C104 1.258 1_556 S
O106 Co103 1.966 . S
O106 C104 1.263 1_556 S
C107 O108 1.235 . S
C107 O134 1.289 . S
O108 C107 1.235 . S
C109 C111 1.400 . S
C109 N112 1.351 . S
C109 C114 1.501 . S
C110 C111 1.387 . S
C110 N113 1.341 . S
C111 C109 1.400 . S
C111 C110 1.387 . S
N112 Co103 2.022 . S
N112 C109 1.351 . S
N112 N113 1.365 . S
N113 C110 1.341 . S
N113 N112 1.365 . S
N113 H133 0.862 . S
C114 C109 1.501 . S
C114 H115 0.961 . S
C114 H116 0.961 . S
C114 H117 0.960 . S
H115 C114 0.961 . S
H116 C114 0.961 . S
H117 C114 0.960 . S
C118 N119 1.342 . S
C118 C122 1.401 . S
C118 C123 1.499 . S
N119 Co102 1.989 . S
N119 C118 1.342 . S
N119 N120 1.388 . S
N120 Co103 1.993 . S
N120 N119 1.388 . S
N120 C121 1.346 . S
C121 N120 1.346 . S
C121 C122 1.396 . S
C121 C131 1.510 . S
C122 C118 1.401 . S
C122 C121 1.396 . S
C123 C118 1.499 . S
C123 H124 0.959 . S
C123 H125 0.960 . S
C123 H126 0.961 . S
H124 C123 0.959 . S
H125 C123 0.960 . S
H126 C123 0.961 . S
O127 Co102 1.967 . S
O127 C135 1.258 . S
O128 Co103 1.941 . S
O128 C135 1.266 . S
H129 C131 0.959 . S
H130 C131 0.961 . S
C131 C121 1.510 . S
C131 H129 0.959 . S
C131 H130 0.961 . S
C131 H132 0.960 . S
H132 C131 0.960 . S
H133 N113 0.862 . S
O134 Co102 1.920 . S
O134 C107 1.289 . S
C135 O127 1.258 . S
C135 O128 1.266 . S
Co136 O139 1.970 . S
Co136 N153 1.989 . S
Co136 O161 1.967 . S
Co136 O168 1.920 . S
Co137 O140 1.966 . S
Co137 N146 2.022 . S
Co137 N154 1.993 . S
Co137 O162 1.941 . S
C138 O139 1.258 . S
C138 O140 1.263 . S
O139 Co136 1.970 . S
O139 C138 1.258 . S
O140 Co137 1.966 . S
O140 C138 1.263 . S
C141 O142 1.235 . S
C141 O168 1.289 . S
O142 C141 1.235 . S
C143 C145 1.400 . S
C143 N146 1.351 . S
C143 C148 1.501 . S
C144 C145 1.387 . S
C144 N147 1.341 . S
C145 C143 1.400 . S
C145 C144 1.387 . S
N146 Co137 2.022 . S
N146 C143 1.351 . S
N146 N147 1.365 . S
N147 C144 1.341 . S
N147 N146 1.365 . S
N147 H167 0.862 . S
C148 C143 1.501 . S
C148 H149 0.961 . S
C148 H150 0.961 . S
C148 H151 0.960 . S
H149 C148 0.961 . S
H150 C148 0.961 . S
H151 C148 0.960 . S
C152 N153 1.342 . S
C152 C156 1.401 . S
C152 C157 1.499 . S
N153 Co136 1.989 . S
N153 C152 1.342 . S
N153 N154 1.388 . S
N154 Co137 1.993 . S
N154 N153 1.388 . S
N154 C155 1.346 . S
C155 N154 1.346 . S
C155 C156 1.396 . S
C155 C165 1.510 . S
C156 C152 1.401 . S
C156 C155 1.396 . S
C157 C152 1.499 . S
C157 H158 0.959 . S
C157 H159 0.960 . S
C157 H160 0.961 . S
H158 C157 0.959 . S
H159 C157 0.960 . S
H160 C157 0.961 . S
O161 Co136 1.967 . S
O161 C169 1.258 . S
O162 Co137 1.941 . S
O162 C169 1.266 . S
H163 C165 0.959 . S
H164 C165 0.961 . S
C165 C155 1.510 . S
C165 H163 0.959 . S
C165 H164 0.961 . S
C165 H166 0.960 . S
H166 C165 0.960 . S
H167 N147 0.862 . S
O168 Co136 1.920 . S
O168 C141 1.289 . S
C169 O161 1.258 . S
C169 O162 1.266 . S
Co170 O173 1.970 . S
Co170 N187 1.989 . S
Co170 O195 1.967 . S
Co170 O202 1.920 . S
Co171 O174 1.966 . S
Co171 N180 2.022 . S
Co171 N188 1.993 . S
Co171 O196 1.941 . S
C172 O173 1.258 . S
C172 O174 1.263 . S
O173 Co170 1.970 . S
O173 C172 1.258 . S
O174 Co171 1.966 . S
O174 C172 1.263 . S
C175 O176 1.235 . S
C175 O202 1.289 . S
O176 C175 1.235 . S
C177 C179 1.400 . S
C177 N180 1.351 . S
C177 C182 1.501 . S
C178 C179 1.387 . S
C178 N181 1.341 . S
C179 C177 1.400 . S
C179 C178 1.387 . S
N180 Co171 2.022 . S
N180 C177 1.351 . S
N180 N181 1.365 . S
N181 C178 1.341 . S
N181 N180 1.365 . S
N181 H201 0.862 . S
C182 C177 1.501 . S
C182 H183 0.961 . S
C182 H184 0.961 . S
C182 H185 0.960 . S
H183 C182 0.961 . S
H184 C182 0.961 . S
H185 C182 0.960 . S
C186 N187 1.342 . S
C186 C190 1.401 . S
C186 C191 1.499 . S
N187 Co170 1.989 . S
N187 C186 1.342 . S
N187 N188 1.388 . S
N188 Co171 1.993 . S
N188 N187 1.388 . S
N188 C189 1.346 . S
C189 N188 1.346 . S
C189 C190 1.396 . S
C189 C199 1.510 . S
C190 C186 1.401 . S
C190 C189 1.396 . S
C191 C186 1.499 . S
C191 H192 0.959 . S
C191 H193 0.960 . S
C191 H194 0.961 . S
H192 C191 0.959 . S
H193 C191 0.960 . S
H194 C191 0.961 . S
O195 Co170 1.967 . S
O195 C203 1.258 . S
O196 Co171 1.941 . S
O196 C203 1.266 . S
H197 C199 0.959 . S
H198 C199 0.961 . S
C199 C189 1.510 . S
C199 H197 0.959 . S
C199 H198 0.961 . S
C199 H200 0.960 . S
H200 C199 0.960 . S
H201 N181 0.862 . S
O202 Co170 1.920 . S
O202 C175 1.289 . S
C203 O195 1.258 . S
C203 O196 1.266 . S
Co204 O207 1.970 . S
Co204 N221 1.989 . S
Co204 O229 1.967 . S
Co204 O236 1.920 . S
Co205 O208 1.966 . S
Co205 N214 2.022 . S
Co205 N222 1.993 . S
Co205 O230 1.941 . S
C206 O207 1.258 . S
C206 O208 1.263 . S
O207 Co204 1.970 . S
O207 C206 1.258 . S
O208 Co205 1.966 . S
O208 C206 1.263 . S
C209 O210 1.235 . S
C209 O236 1.289 . S
O210 C209 1.235 . S
C211 C213 1.400 . S
C211 N214 1.351 . S
C211 C216 1.501 . S
C212 C213 1.387 . S
C212 N215 1.341 . S
C213 C211 1.400 . S
C213 C212 1.387 . S
N214 Co205 2.022 . S
N214 C211 1.351 . S
N214 N215 1.365 . S
N215 C212 1.341 . S
N215 N214 1.365 . S
N215 H235 0.862 . S
C216 C211 1.501 . S
C216 H217 0.961 . S
C216 H218 0.961 . S
C216 H219 0.960 . S
H217 C216 0.961 . S
H218 C216 0.961 . S
H219 C216 0.960 . S
C220 N221 1.342 . S
C220 C224 1.401 . S
C220 C225 1.499 . S
N221 Co204 1.989 . S
N221 C220 1.342 . S
N221 N222 1.388 . S
N222 Co205 1.993 . S
N222 N221 1.388 . S
N222 C223 1.346 . S
C223 N222 1.346 . S
C223 C224 1.396 . S
C223 C233 1.510 . S
C224 C220 1.401 . S
C224 C223 1.396 . S
C225 C220 1.499 . S
C225 H226 0.959 . S
C225 H227 0.960 . S
C225 H228 0.961 . S
H226 C225 0.959 . S
H227 C225 0.960 . S
H228 C225 0.961 . S
O229 Co204 1.967 . S
O229 C237 1.258 . S
O230 Co205 1.941 . S
O230 C237 1.266 . S
H231 C233 0.959 . S
H232 C233 0.961 . S
C233 C223 1.510 . S
C233 H231 0.959 . S
C233 H232 0.961 . S
C233 H234 0.960 . S
H234 C233 0.960 . S
H235 N215 0.862 . S
O236 Co204 1.920 . S
O236 C209 1.289 . S
C237 O229 1.258 . S
C237 O230 1.266 . S
Co238 O241 1.970 . S
Co238 N255 1.989 . S
Co238 O263 1.967 . S
Co238 O270 1.920 . S
Co239 O242 1.966 . S
Co239 N248 2.022 . S
Co239 N256 1.993 . S
Co239 O264 1.941 . S
C240 O241 1.258 . S
C240 O242 1.263 . S
O241 Co238 1.970 . S
O241 C240 1.258 . S
O242 Co239 1.966 . S
O242 C240 1.263 . S
C243 O244 1.235 . S
C243 O270 1.289 . S
O244 C243 1.235 . S
C245 C247 1.400 . S
C245 N248 1.351 . S
C245 C250 1.501 . S
C246 C247 1.387 . S
C246 N249 1.341 . S
C247 C245 1.400 . S
C247 C246 1.387 . S
N248 Co239 2.022 . S
N248 C245 1.351 . S
N248 N249 1.365 . S
N249 C246 1.341 . S
N249 N248 1.365 . S
N249 H269 0.862 . S
C250 C245 1.501 . S
C250 H251 0.961 . S
C250 H252 0.961 . S
C250 H253 0.960 . S
H251 C250 0.961 . S
H252 C250 0.961 . S
H253 C250 0.960 . S
C254 N255 1.342 . S
C254 C258 1.401 . S
C254 C259 1.499 . S
N255 Co238 1.989 . S
N255 C254 1.342 . S
N255 N256 1.388 . S
N256 Co239 1.993 . S
N256 N255 1.388 . S
N256 C257 1.346 . S
C257 N256 1.346 . S
C257 C258 1.396 . S
C257 C267 1.510 . S
C258 C254 1.401 . S
C258 C257 1.396 . S
C259 C254 1.499 . S
C259 H260 0.959 . S
C259 H261 0.960 . S
C259 H262 0.961 . S
H260 C259 0.959 . S
H261 C259 0.960 . S
H262 C259 0.961 . S
O263 Co238 1.967 . S
O263 C271 1.258 . S
O264 Co239 1.941 . S
O264 C271 1.266 . S
H265 C267 0.959 . S
H266 C267 0.961 . S
C267 C257 1.510 . S
C267 H265 0.959 . S
C267 H266 0.961 . S
C267 H268 0.960 . S
H268 C267 0.960 . S
H269 N249 0.862 . S
O270 Co238 1.920 . S
O270 C243 1.289 . S
C271 O263 1.258 . S
C271 O264 1.266 . S
Co272 O275 1.970 . S
Co272 N289 1.989 . S
Co272 O297 1.967 . S
Co272 O304 1.920 . S
Co273 O276 1.966 . S
Co273 N282 2.022 . S
Co273 N290 1.993 . S
Co273 O298 1.941 . S
C274 O275 1.258 . S
C274 O276 1.263 . S
O275 Co272 1.970 . S
O275 C274 1.258 . S
O276 Co273 1.966 . S
O276 C274 1.263 . S
C277 O278 1.235 . S
C277 O304 1.289 . S
O278 C277 1.235 . S
C279 C281 1.400 . S
C279 N282 1.351 . S
C279 C284 1.501 . S
C280 C281 1.387 . S
C280 N283 1.341 . S
C281 C279 1.400 . S
C281 C280 1.387 . S
N282 Co273 2.022 . S
N282 C279 1.351 . S
N282 N283 1.365 . S
N283 C280 1.341 . S
N283 N282 1.365 . S
N283 H303 0.862 . S
C284 C279 1.501 . S
C284 H285 0.961 . S
C284 H286 0.961 . S
C284 H287 0.960 . S
H285 C284 0.961 . S
H286 C284 0.961 . S
H287 C284 0.960 . S
C288 N289 1.342 . S
C288 C292 1.401 . S
C288 C293 1.499 . S
N289 Co272 1.989 . S
N289 C288 1.342 . S
N289 N290 1.388 . S
N290 Co273 1.993 . S
N290 N289 1.388 . S
N290 C291 1.346 . S
C291 N290 1.346 . S
C291 C292 1.396 . S
C291 C301 1.510 . S
C292 C288 1.401 . S
C292 C291 1.396 . S
C293 C288 1.499 . S
C293 H294 0.959 . S
C293 H295 0.960 . S
C293 H296 0.961 . S
H294 C293 0.959 . S
H295 C293 0.960 . S
H296 C293 0.961 . S
O297 Co272 1.967 . S
O297 C305 1.258 . S
O298 Co273 1.941 . S
O298 C305 1.266 . S
H299 C301 0.959 . S
H300 C301 0.961 . S
C301 C291 1.510 . S
C301 H299 0.959 . S
C301 H300 0.961 . S
C301 H302 0.960 . S
H302 C301 0.960 . S
H303 N283 0.862 . S
O304 Co272 1.920 . S
O304 C277 1.289 . S
C305 O297 1.258 . S
C305 O298 1.266 . S
Co306 O309 1.970 . S
Co306 N323 1.989 . S
Co306 O331 1.967 . S
Co306 O338 1.920 . S
Co307 O310 1.966 . S
Co307 N316 2.022 . S
Co307 N324 1.993 . S
Co307 O332 1.941 . S
C308 O309 1.258 . S
C308 O310 1.263 . S
O309 Co306 1.970 . S
O309 C308 1.258 . S
O310 Co307 1.966 . S
O310 C308 1.263 . S
C311 O312 1.235 . S
C311 O338 1.289 . S
O312 C311 1.235 . S
C313 C315 1.400 . S
C313 N316 1.351 . S
C313 C318 1.501 . S
C314 C315 1.387 . S
C314 N317 1.341 . S
C315 C313 1.400 . S
C315 C314 1.387 . S
N316 Co307 2.022 . S
N316 C313 1.351 . S
N316 N317 1.365 . S
N317 C314 1.341 . S
N317 N316 1.365 . S
N317 H337 0.862 . S
C318 C313 1.501 . S
C318 H319 0.961 . S
C318 H320 0.961 . S
C318 H321 0.960 . S
H319 C318 0.961 . S
H320 C318 0.961 . S
H321 C318 0.960 . S
C322 N323 1.342 . S
C322 C326 1.401 . S
C322 C327 1.499 . S
N323 Co306 1.989 . S
N323 C322 1.342 . S
N323 N324 1.388 . S
N324 Co307 1.993 . S
N324 N323 1.388 . S
N324 C325 1.346 . S
C325 N324 1.346 . S
C325 C326 1.396 . S
C325 C335 1.510 . S
C326 C322 1.401 . S
C326 C325 1.396 . S
C327 C322 1.499 . S
C327 H328 0.959 . S
C327 H329 0.960 . S
C327 H330 0.961 . S
H328 C327 0.959 . S
H329 C327 0.960 . S
H330 C327 0.961 . S
O331 Co306 1.967 . S
O331 C339 1.258 . S
O332 Co307 1.941 . S
O332 C339 1.266 . S
H333 C335 0.959 . S
H334 C335 0.961 . S
C335 C325 1.510 . S
C335 H333 0.959 . S
C335 H334 0.961 . S
C335 H336 0.960 . S
H336 C335 0.960 . S
H337 N317 0.862 . S
O338 Co306 1.920 . S
O338 C311 1.289 . S
C339 O331 1.258 . S
C339 O332 1.266 . S
Co340 O343 1.970 . S
Co340 N357 1.989 . S
Co340 O365 1.967 . S
Co340 O372 1.920 . S
Co341 O344 1.966 . S
Co341 N350 2.022 . S
Co341 N358 1.993 . S
Co341 O366 1.941 . S
C342 O343 1.258 1_556 S
C342 O344 1.263 1_556 S
O343 Co340 1.970 . S
O343 C342 1.258 1_554 S
O344 Co341 1.966 . S
O344 C342 1.263 1_554 S
C345 O346 1.235 . S
C345 O372 1.289 . S
O346 C345 1.235 . S
C347 C349 1.400 . S
C347 N350 1.351 . S
C347 C352 1.501 . S
C348 C349 1.387 . S
C348 N351 1.341 . S
C349 C347 1.400 . S
C349 C348 1.387 . S
N350 Co341 2.022 . S
N350 C347 1.351 . S
N350 N351 1.365 . S
N351 C348 1.341 . S
N351 N350 1.365 . S
N351 H371 0.862 . S
C352 C347 1.501 . S
C352 H353 0.961 . S
C352 H354 0.961 . S
C352 H355 0.960 . S
H353 C352 0.961 . S
H354 C352 0.961 . S
H355 C352 0.960 . S
C356 N357 1.342 . S
C356 C360 1.401 . S
C356 C361 1.499 . S
N357 Co340 1.989 . S
N357 C356 1.342 . S
N357 N358 1.388 . S
N358 Co341 1.993 . S
N358 N357 1.388 . S
N358 C359 1.346 . S
C359 N358 1.346 . S
C359 C360 1.396 . S
C359 C369 1.510 . S
C360 C356 1.401 . S
C360 C359 1.396 . S
C361 C356 1.499 . S
C361 H362 0.959 . S
C361 H363 0.960 . S
C361 H364 0.961 . S
H362 C361 0.959 . S
H363 C361 0.960 . S
H364 C361 0.961 . S
O365 Co340 1.967 . S
O365 C373 1.258 . S
O366 Co341 1.941 . S
O366 C373 1.266 . S
H367 C369 0.959 . S
H368 C369 0.961 . S
C369 C359 1.510 . S
C369 H367 0.959 . S
C369 H368 0.961 . S
C369 H370 0.960 . S
H370 C369 0.960 . S
H371 N351 0.862 . S
O372 Co340 1.920 . S
O372 C345 1.289 . S
C373 O365 1.258 . S
C373 O366 1.266 . S
Co374 O377 1.970 . S
Co374 N391 1.989 . S
Co374 O399 1.967 . S
Co374 O406 1.920 . S
Co375 O378 1.966 . S
Co375 N384 2.022 . S
Co375 N392 1.993 . S
Co375 O400 1.941 . S
C376 O377 1.258 . S
C376 O378 1.263 . S
O377 Co374 1.970 . S
O377 C376 1.258 . S
O378 Co375 1.966 . S
O378 C376 1.263 . S
C379 O380 1.235 . S
C379 O406 1.289 . S
O380 C379 1.235 . S
C381 C383 1.400 . S
C381 N384 1.351 . S
C381 C386 1.501 . S
C382 C383 1.387 . S
C382 N385 1.341 . S
C383 C381 1.400 . S
C383 C382 1.387 . S
N384 Co375 2.022 . S
N384 C381 1.351 . S
N384 N385 1.365 . S
N385 C382 1.341 . S
N385 N384 1.365 . S
N385 H405 0.862 . S
C386 C381 1.501 . S
C386 H387 0.961 . S
C386 H388 0.961 . S
C386 H389 0.960 . S
H387 C386 0.961 . S
H388 C386 0.961 . S
H389 C386 0.960 . S
C390 N391 1.342 . S
C390 C394 1.401 . S
C390 C395 1.499 . S
N391 Co374 1.989 . S
N391 C390 1.342 . S
N391 N392 1.388 . S
N392 Co375 1.993 . S
N392 N391 1.388 . S
N392 C393 1.346 . S
C393 N392 1.346 . S
C393 C394 1.396 . S
C393 C403 1.510 . S
C394 C390 1.401 . S
C394 C393 1.396 . S
C395 C390 1.499 . S
C395 H396 0.959 . S
C395 H397 0.960 . S
C395 H398 0.961 . S
H396 C395 0.959 . S
H397 C395 0.960 . S
H398 C395 0.961 . S
O399 Co374 1.967 . S
O399 C407 1.258 . S
O400 Co375 1.941 . S
O400 C407 1.266 . S
H401 C403 0.959 . S
H402 C403 0.961 . S
C403 C393 1.510 . S
C403 H401 0.959 . S
C403 H402 0.961 . S
C403 H404 0.960 . S
H404 C403 0.960 . S
H405 N385 0.862 . S
O406 Co374 1.920 . S
O406 C379 1.289 . S
C407 O399 1.258 . S
C407 O400 1.266 . S
H408 C416 0.950 . S
H409 C421 0.950 . S
H410 C418 0.950 . S
H411 C420 0.950 . S
H412 C422 0.950 . S
H413 C424 0.950 . S
H414 C426 0.950 . S
H415 C427 0.950 . S
C416 H408 0.950 . S
C416 C417 1.386 . S
C416 C418 1.391 . S
C417 C416 1.386 . S
C417 C421 1.393 . S
C418 H410 0.950 . S
C418 C416 1.391 . S
C418 C419 1.400 . S
C419 C418 1.400 . S
C419 C420 1.398 . S
C419 C425 1.491 . S
C420 H411 0.950 . S
C420 C419 1.398 . S
C420 C421 1.391 . S
C421 H409 0.950 . S
C421 C417 1.393 . S
C421 C420 1.391 . S
C422 H412 0.950 . S
C422 C423 1.386 . S
C422 C424 1.391 . S
C423 C422 1.386 . S
C423 C427 1.393 . S
C424 H413 0.950 . S
C424 C422 1.391 . S
C424 C425 1.400 . S
C425 C419 1.491 . S
C425 C424 1.400 . S
C425 C426 1.398 . S
C426 H414 0.950 . S
C426 C425 1.398 . S
C426 C427 1.391 . S
C427 H415 0.950 . S
C427 C423 1.393 . S
C427 C426 1.391 . S
H428 C436 0.950 . S
H429 C441 0.950 . S
H430 C438 0.950 . S
H431 C440 0.950 . S
H432 C442 0.950 . S
H433 C444 0.950 . S
H434 C446 0.950 . S
H435 C447 0.950 . S
C436 H428 0.950 . S
C436 C437 1.386 . S
C436 C438 1.391 . S
C437 C436 1.386 . S
C437 C441 1.393 . S
C438 H430 0.950 . S
C438 C436 1.391 . S
C438 C439 1.400 . S
C439 C438 1.400 . S
C439 C440 1.398 . S
C439 C445 1.491 . S
C440 H431 0.950 . S
C440 C439 1.398 . S
C440 C441 1.391 . S
C441 H429 0.950 . S
C441 C437 1.393 . S
C441 C440 1.391 . S
C442 H432 0.950 . S
C442 C443 1.386 . S
C442 C444 1.391 . S
C443 C442 1.386 . S
C443 C447 1.393 . S
C444 H433 0.950 . S
C444 C442 1.391 . S
C444 C445 1.400 . S
C445 C439 1.491 . S
C445 C444 1.400 . S
C445 C446 1.398 . S
C446 H434 0.950 . S
C446 C445 1.398 . S
C446 C447 1.391 . S
C447 H435 0.950 . S
C447 C443 1.393 . S
C447 C446 1.391 . S
H448 C456 0.950 . S
H449 C461 0.950 . S
H450 C458 0.950 . S
H451 C460 0.950 . S
H452 C462 0.950 . S
H453 C464 0.950 . S
H454 C466 0.950 . S
H455 C467 0.950 . S
C456 H448 0.950 . S
C456 C457 1.386 . S
C456 C458 1.391 . S
C457 C456 1.386 . S
C457 C461 1.393 . S
C458 H450 0.950 . S
C458 C456 1.391 . S
C458 C459 1.400 . S
C459 C458 1.400 . S
C459 C460 1.398 . S
C459 C465 1.491 . S
C460 H451 0.950 . S
C460 C459 1.398 . S
C460 C461 1.391 . S
C461 H449 0.950 . S
C461 C457 1.393 . S
C461 C460 1.391 . S
C462 H452 0.950 . S
C462 C463 1.386 . S
C462 C464 1.391 . S
C463 C462 1.386 . S
C463 C467 1.393 . S
C464 H453 0.950 . S
C464 C462 1.391 . S
C464 C465 1.400 . S
C465 C459 1.491 . S
C465 C464 1.400 . S
C465 C466 1.398 . S
C466 H454 0.950 . S
C466 C465 1.398 . S
C466 C467 1.391 . S
C467 H455 0.950 . S
C467 C463 1.393 . S
C467 C466 1.391 . S
H468 C476 0.950 . S
H469 C481 0.950 . S
H470 C478 0.950 . S
H471 C480 0.950 . S
H472 C482 0.950 . S
H473 C484 0.950 . S
H474 C486 0.950 . S
H475 C487 0.950 . S
C476 H468 0.950 . S
C476 C477 1.386 . S
C476 C478 1.391 . S
C477 C476 1.386 . S
C477 C481 1.393 . S
C478 H470 0.950 . S
C478 C476 1.391 . S
C478 C479 1.400 . S
C479 C478 1.400 . S
C479 C480 1.398 . S
C479 C485 1.491 . S
C480 H471 0.950 . S
C480 C479 1.398 . S
C480 C481 1.391 . S
C481 H469 0.950 . S
C481 C477 1.393 . S
C481 C480 1.391 . S
C482 H472 0.950 . S
C482 C483 1.386 . S
C482 C484 1.391 . S
C483 C482 1.386 . S
C483 C487 1.393 . S
C484 H473 0.950 . S
C484 C482 1.391 . S
C484 C485 1.400 . S
C485 C479 1.491 . S
C485 C484 1.400 . S
C485 C486 1.398 . S
C486 H474 0.950 . S
C486 C485 1.398 . S
C486 C487 1.391 . S
C487 H475 0.950 . S
C487 C483 1.393 . S
C487 C486 1.391 . S
H488 C496 0.950 . S
H489 C501 0.950 . S
H490 C498 0.950 . S
H491 C500 0.950 . S
H492 C502 0.950 . S
H493 C504 0.950 . S
H494 C506 0.950 . S
H495 C507 0.950 . S
C496 H488 0.950 . S
C496 C497 1.386 . S
C496 C498 1.391 . S
C497 C496 1.386 . S
C497 C501 1.393 . S
C498 H490 0.950 . S
C498 C496 1.391 . S
C498 C499 1.400 . S
C499 C498 1.400 . S
C499 C500 1.398 . S
C499 C505 1.491 . S
C500 H491 0.950 . S
C500 C499 1.398 . S
C500 C501 1.391 . S
C501 H489 0.950 . S
C501 C497 1.393 . S
C501 C500 1.391 . S
C502 H492 0.950 . S
C502 C503 1.386 . S
C502 C504 1.391 . S
C503 C502 1.386 . S
C503 C507 1.393 . S
C504 H493 0.950 . S
C504 C502 1.391 . S
C504 C505 1.400 . S
C505 C499 1.491 . S
C505 C504 1.400 . S
C505 C506 1.398 . S
C506 H494 0.950 . S
C506 C505 1.398 . S
C506 C507 1.391 . S
C507 H495 0.950 . S
C507 C503 1.393 . S
C507 C506 1.391 . S
H508 C516 0.950 . S
H509 C521 0.950 . S
H510 C518 0.950 . S
H511 C520 0.950 . S
H512 C522 0.950 . S
H513 C524 0.950 . S
H514 C526 0.950 . S
H515 C527 0.950 . S
C516 H508 0.950 . S
C516 C517 1.386 . S
C516 C518 1.391 . S
C517 C516 1.386 . S
C517 C521 1.393 . S
C518 H510 0.950 . S
C518 C516 1.391 . S
C518 C519 1.400 . S
C519 C518 1.400 . S
C519 C520 1.398 . S
C519 C525 1.491 . S
C520 H511 0.950 . S
C520 C519 1.398 . S
C520 C521 1.391 . S
C521 H509 0.950 . S
C521 C517 1.393 . S
C521 C520 1.391 . S
C522 H512 0.950 . S
C522 C523 1.386 . S
C522 C524 1.391 . S
C523 C522 1.386 . S
C523 C527 1.393 . S
C524 H513 0.950 . S
C524 C522 1.391 . S
C524 C525 1.400 . S
C525 C519 1.491 . S
C525 C524 1.400 . S
C525 C526 1.398 . S
C526 H514 0.950 . S
C526 C525 1.398 . S
C526 C527 1.391 . S
C527 H515 0.950 . S
C527 C523 1.393 . S
C527 C526 1.391 . S
H528 C536 0.950 . S
H529 C541 0.950 . S
H530 C538 0.950 . S
H531 C540 0.950 . S
H532 C542 0.950 . S
H533 C544 0.950 . S
H534 C546 0.950 . S
H535 C547 0.950 . S
C536 H528 0.950 . S
C536 C537 1.386 . S
C536 C538 1.391 . S
C537 C536 1.386 . S
C537 C541 1.393 . S
C538 H530 0.950 . S
C538 C536 1.391 . S
C538 C539 1.400 . S
C539 C538 1.400 . S
C539 C540 1.398 . S
C539 C545 1.491 1_565 S
C540 H531 0.950 . S
C540 C539 1.398 . S
C540 C541 1.391 . S
C541 H529 0.950 . S
C541 C537 1.393 . S
C541 C540 1.391 . S
C542 H532 0.950 . S
C542 C543 1.386 . S
C542 C544 1.391 . S
C543 C542 1.386 . S
C543 C547 1.393 . S
C544 H533 0.950 . S
C544 C542 1.391 . S
C544 C545 1.400 . S
C545 C539 1.491 1_545 S
C545 C544 1.400 . S
C545 C546 1.398 . S
C546 H534 0.950 . S
C546 C545 1.398 . S
C546 C547 1.391 . S
C547 H535 0.950 . S
C547 C543 1.393 . S
C547 C546 1.391 . S
H548 C556 0.950 . S
H549 C561 0.950 . S
H550 C558 0.950 . S
H551 C560 0.950 . S
H552 C562 0.950 . S
H553 C564 0.950 . S
H554 C566 0.950 . S
H555 C567 0.950 . S
C556 H548 0.950 . S
C556 C557 1.386 . S
C556 C558 1.391 . S
C557 C556 1.386 . S
C557 C561 1.393 . S
C558 H550 0.950 . S
C558 C556 1.391 . S
C558 C559 1.400 . S
C559 C558 1.400 . S
C559 C560 1.398 . S
C559 C565 1.491 . S
C560 H551 0.950 . S
C560 C559 1.398 . S
C560 C561 1.391 . S
C561 H549 0.950 . S
C561 C557 1.393 . S
C561 C560 1.391 . S
C562 H552 0.950 . S
C562 C563 1.386 . S
C562 C564 1.391 . S
C563 C562 1.386 . S
C563 C567 1.393 . S
C564 H553 0.950 . S
C564 C562 1.391 . S
C564 C565 1.400 . S
C565 C559 1.491 . S
C565 C564 1.400 . S
C565 C566 1.398 . S
C566 H554 0.950 . S
C566 C565 1.398 . S
C566 C567 1.391 . S
C567 H555 0.950 . S
C567 C563 1.393 . S
C567 C566 1.391 . S
H568 C576 0.950 . S
H569 C581 0.950 . S
H570 C578 0.950 . S
H571 C580 0.950 . S
H572 C582 0.950 . S
H573 C584 0.950 . S
H574 C586 0.950 . S
H575 C587 0.950 . S
C576 H568 0.950 . S
C576 C577 1.386 . S
C576 C578 1.391 . S
C577 C576 1.386 . S
C577 C581 1.393 . S
C578 H570 0.950 . S
C578 C576 1.391 . S
C578 C579 1.400 . S
C579 C578 1.400 . S
C579 C580 1.398 . S
C579 C585 1.491 1_455 S
C580 H571 0.950 . S
C580 C579 1.398 . S
C580 C581 1.391 . S
C581 H569 0.950 . S
C581 C577 1.393 . S
C581 C580 1.391 . S
C582 H572 0.950 . S
C582 C583 1.386 . S
C582 C584 1.391 . S
C583 C582 1.386 . S
C583 C587 1.393 . S
C584 H573 0.950 . S
C584 C582 1.391 . S
C584 C585 1.400 . S
C585 C579 1.491 1_655 S
C585 C584 1.400 . S
C585 C586 1.398 . S
C586 H574 0.950 . S
C586 C585 1.398 . S
C586 C587 1.391 . S
C587 H575 0.950 . S
C587 C583 1.393 . S
C587 C586 1.391 . S
H588 C596 0.950 . S
H589 C601 0.950 . S
H590 C598 0.950 . S
H591 C600 0.950 . S
H592 C602 0.950 . S
H593 C604 0.950 . S
H594 C606 0.950 . S
H595 C607 0.950 . S
C596 H588 0.950 . S
C596 C597 1.386 1_554 S
C596 C598 1.391 . S
C597 C596 1.386 1_556 S
C597 C601 1.393 . S
C598 H590 0.950 . S
C598 C596 1.391 . S
C598 C599 1.400 1_554 S
C599 C598 1.400 1_556 S
C599 C600 1.398 . S
C599 C605 1.491 1_566 S
C600 H591 0.950 . S
C600 C599 1.398 . S
C600 C601 1.391 . S
C601 H589 0.950 . S
C601 C597 1.393 . S
C601 C600 1.391 . S
C602 H592 0.950 . S
C602 C603 1.386 1_556 S
C602 C604 1.391 . S
C603 C602 1.386 1_554 S
C603 C607 1.393 . S
C604 H593 0.950 . S
C604 C602 1.391 . S
C604 C605 1.400 1_556 S
C605 C599 1.491 1_544 S
C605 C604 1.400 1_554 S
C605 C606 1.398 . S
C606 H594 0.950 . S
C606 C605 1.398 . S
C606 C607 1.391 . S
C607 H595 0.950 . S
C607 C603 1.393 . S
C607 C606 1.391 . S
H608 C616 0.950 . S
H609 C621 0.950 . S
H610 C618 0.950 . S
H611 C620 0.950 . S
H612 C622 0.950 . S
H613 C624 0.950 . S
H614 C626 0.950 . S
H615 C627 0.950 . S
C616 H608 0.950 . S
C616 C617 1.386 . S
C616 C618 1.391 . S
C617 C616 1.386 . S
C617 C621 1.393 . S
C618 H610 0.950 . S
C618 C616 1.391 . S
C618 C619 1.400 . S
C619 C618 1.400 . S
C619 C620 1.398 . S
C619 C625 1.491 . S
C620 H611 0.950 . S
C620 C619 1.398 . S
C620 C621 1.391 . S
C621 H609 0.950 . S
C621 C617 1.393 . S
C621 C620 1.391 . S
C622 H612 0.950 . S
C622 C623 1.386 . S
C622 C624 1.391 . S
C623 C622 1.386 . S
C623 C627 1.393 . S
C624 H613 0.950 . S
C624 C622 1.391 . S
C624 C625 1.400 . S
C625 C619 1.491 . S
C625 C624 1.400 . S
C625 C626 1.398 . S
C626 H614 0.950 . S
C626 C625 1.398 . S
C626 C627 1.391 . S
C627 H615 0.950 . S
C627 C623 1.393 . S
C627 C626 1.391 . S
H628 C636 0.950 . S
H629 C641 0.950 . S
H630 C638 0.950 . S
H631 C640 0.950 . S
H632 C642 0.950 . S
H633 C644 0.950 . S
H634 C646 0.950 . S
H635 C647 0.950 . S
C636 H628 0.950 . S
C636 C637 1.386 . S
C636 C638 1.391 . S
C637 C636 1.386 . S
C637 C641 1.393 . S
C638 H630 0.950 . S
C638 C636 1.391 . S
C638 C639 1.400 . S
C639 C638 1.400 . S
C639 C640 1.398 . S
C639 C645 1.491 1_455 S
C640 H631 0.950 . S
C640 C639 1.398 . S
C640 C641 1.391 . S
C641 H629 0.950 . S
C641 C637 1.393 . S
C641 C640 1.391 . S
C642 H632 0.950 . S
C642 C643 1.386 . S
C642 C644 1.391 . S
C643 C642 1.386 . S
C643 C647 1.393 . S
C644 H633 0.950 . S
C644 C642 1.391 . S
C644 C645 1.400 . S
C645 C639 1.491 1_655 S
C645 C644 1.400 . S
C645 C646 1.398 . S
C646 H634 0.950 . S
C646 C645 1.398 . S
C646 C647 1.391 . S
C647 H635 0.950 . S
C647 C643 1.393 . S
C647 C646 1.391 . S
H648 C656 0.950 1_565 S
H649 C661 0.950 . S
H650 C658 0.950 . S
H651 C660 0.950 . S
H652 C662 0.950 . S
H653 C664 0.950 . S
H654 C666 0.950 . S
H655 C667 0.950 . S
C656 H648 0.950 1_545 S
C656 C657 1.386 . S
C656 C658 1.391 . S
C657 C656 1.386 . S
C657 C661 1.393 . S
C658 H650 0.950 . S
C658 C656 1.391 . S
C658 C659 1.400 . S
C659 C658 1.400 . S
C659 C660 1.398 . S
C659 C665 1.491 . S
C660 H651 0.950 . S
C660 C659 1.398 . S
C660 C661 1.391 . S
C661 H649 0.950 . S
C661 C657 1.393 . S
C661 C660 1.391 . S
C662 H652 0.950 . S
C662 C663 1.386 . S
C662 C664 1.391 . S
C663 C662 1.386 . S
C663 C667 1.393 . S
C664 H653 0.950 . S
C664 C662 1.391 . S
C664 C665 1.400 . S
C665 C659 1.491 . S
C665 C664 1.400 . S
C665 C666 1.398 . S
C666 H654 0.950 . S
C666 C665 1.398 . S
C666 C667 1.391 . S
C667 H655 0.950 . S
C667 C663 1.393 . S
C667 C666 1.391 . S
H668 C676 0.950 . S
H669 C681 0.950 . S
H670 C678 0.950 . S
H671 C680 0.950 . S
H672 C682 0.950 . S
H673 C684 0.950 . S
H674 C686 0.950 . S
H675 C687 0.950 . S
C676 H668 0.950 . S
C676 C677 1.386 . S
C676 C678 1.391 . S
C677 C676 1.386 . S
C677 C681 1.393 . S
C678 H670 0.950 . S
C678 C676 1.391 . S
C678 C679 1.400 . S
C679 C678 1.400 . S
C679 C680 1.398 . S
C679 C685 1.491 . S
C680 H671 0.950 . S
C680 C679 1.398 . S
C680 C681 1.391 . S
C681 H669 0.950 . S
C681 C677 1.393 . S
C681 C680 1.391 . S
C682 H672 0.950 . S
C682 C683 1.386 . S
C682 C684 1.391 . S
C683 C682 1.386 . S
C683 C687 1.393 . S
C684 H673 0.950 . S
C684 C682 1.391 . S
C684 C685 1.400 . S
C685 C679 1.491 . S
C685 C684 1.400 . S
C685 C686 1.398 . S
C686 H674 0.950 . S
C686 C685 1.398 . S
C686 C687 1.391 . S
C687 H675 0.950 . S
C687 C683 1.393 . S
C687 C686 1.391 . S
H688 C696 0.950 . S
H689 C701 0.950 . S
H690 C698 0.950 . S
H691 C700 0.950 . S
H692 C702 0.950 . S
H693 C704 0.950 . S
H694 C706 0.950 . S
H695 C707 0.950 . S
C696 H688 0.950 . S
C696 C697 1.386 . S
C696 C698 1.391 . S
C697 C696 1.386 . S
C697 C701 1.393 . S
C698 H690 0.950 . S
C698 C696 1.391 . S
C698 C699 1.400 . S
C699 C698 1.400 . S
C699 C700 1.398 . S
C699 C705 1.491 . S
C700 H691 0.950 . S
C700 C699 1.398 . S
C700 C701 1.391 . S
C701 H689 0.950 . S
C701 C697 1.393 . S
C701 C700 1.391 . S
C702 H692 0.950 . S
C702 C703 1.386 . S
C702 C704 1.391 . S
C703 C702 1.386 . S
C703 C707 1.393 . S
C704 H693 0.950 . S
C704 C702 1.391 . S
C704 C705 1.400 . S
C705 C699 1.491 . S
C705 C704 1.400 . S
C705 C706 1.398 . S
C706 H694 0.950 . S
C706 C705 1.398 . S
C706 C707 1.391 . S
C707 H695 0.950 . S
C707 C703 1.393 . S
C707 C706 1.391 . S
H708 C716 0.950 . S
H709 C721 0.950 1_545 S
H710 C718 0.950 . S
H711 C720 0.950 . S
H712 C722 0.950 . S
H713 C724 0.950 . S
H714 C726 0.950 . S
H715 C727 0.950 . S
C716 H708 0.950 . S
C716 C717 1.386 . S
C716 C718 1.391 . S
C717 C716 1.386 . S
C717 C721 1.393 . S
C718 H710 0.950 . S
C718 C716 1.391 . S
C718 C719 1.400 . S
C719 C718 1.400 . S
C719 C720 1.398 . S
C719 C725 1.491 . S
C720 H711 0.950 . S
C720 C719 1.398 . S
C720 C721 1.391 . S
C721 H709 0.950 1_565 S
C721 C717 1.393 . S
C721 C720 1.391 . S
C722 H712 0.950 . S
C722 C723 1.386 . S
C722 C724 1.391 . S
C723 C722 1.386 . S
C723 C727 1.393 . S
C724 H713 0.950 . S
C724 C722 1.391 . S
C724 C725 1.400 . S
C725 C719 1.491 . S
C725 C724 1.400 . S
C725 C726 1.398 . S
C726 H714 0.950 . S
C726 C725 1.398 . S
C726 C727 1.391 . S
C727 H715 0.950 . S
C727 C723 1.393 . S
C727 C726 1.391 . S
H728 C736 0.950 . S
H729 C741 0.950 . S
H730 C738 0.950 . S
H731 C740 0.950 . S
H732 C742 0.950 . S
H733 C744 0.950 . S
H734 C746 0.950 . S
H735 C747 0.950 . S
C736 H728 0.950 . S
C736 C737 1.386 . S
C736 C738 1.391 . S
C737 C736 1.386 . S
C737 C741 1.393 1_556 S
C738 H730 0.950 . S
C738 C736 1.391 . S
C738 C739 1.400 1_556 S
C739 C738 1.400 1_554 S
C739 C740 1.398 . S
C739 C745 1.491 . S
C740 H731 0.950 . S
C740 C739 1.398 . S
C740 C741 1.391 . S
C741 H729 0.950 . S
C741 C737 1.393 1_554 S
C741 C740 1.391 . S
C742 H732 0.950 . S
C742 C743 1.386 . S
C742 C744 1.391 . S
C743 C742 1.386 . S
C743 C747 1.393 . S
C744 H733 0.950 . S
C744 C742 1.391 . S
C744 C745 1.400 . S
C745 C739 1.491 . S
C745 C744 1.400 . S
C745 C746 1.398 . S
C746 H734 0.950 . S
C746 C745 1.398 . S
C746 C747 1.391 . S
C747 H735 0.950 . S
C747 C743 1.393 . S
C747 C746 1.391 . S
H748 C756 0.950 . S
H749 C761 0.950 1_655 S
H750 C758 0.950 . S
H751 C760 0.950 . S
H752 C762 0.950 . S
H753 C764 0.950 . S
H754 C766 0.950 . S
H755 C767 0.950 . S
C756 H748 0.950 . S
C756 C757 1.386 . S
C756 C758 1.391 . S
C757 C756 1.386 . S
C757 C761 1.393 . S
C758 H750 0.950 . S
C758 C756 1.391 . S
C758 C759 1.400 . S
C759 C758 1.400 . S
C759 C760 1.398 . S
C759 C765 1.491 . S
C760 H751 0.950 . S
C760 C759 1.398 . S
C760 C761 1.391 . S
C761 H749 0.950 1_455 S
C761 C757 1.393 . S
C761 C760 1.391 . S
C762 H752 0.950 . S
C762 C763 1.386 . S
C762 C764 1.391 . S
C763 C762 1.386 . S
C763 C767 1.393 . S
C764 H753 0.950 . S
C764 C762 1.391 . S
C764 C765 1.400 . S
C765 C759 1.491 . S
C765 C764 1.400 . S
C765 C766 1.398 . S
C766 H754 0.950 . S
C766 C765 1.398 . S
C766 C767 1.391 . S
C767 H755 0.950 . S
C767 C763 1.393 . S
C767 C766 1.391 . S
H768 C776 0.950 . S
H769 C781 0.950 1_455 S
H770 C778 0.950 . S
H771 C780 0.950 . S
H772 C782 0.950 . S
H773 C784 0.950 . S
H774 C786 0.950 . S
H775 C787 0.950 . S
C776 H768 0.950 . S
C776 C777 1.386 . S
C776 C778 1.391 . S
C777 C776 1.386 . S
C777 C781 1.393 . S
C778 H770 0.950 . S
C778 C776 1.391 . S
C778 C779 1.400 . S
C779 C778 1.400 . S
C779 C780 1.398 . S
C779 C785 1.491 . S
C780 H771 0.950 . S
C780 C779 1.398 . S
C780 C781 1.391 . S
C781 H769 0.950 1_655 S
C781 C777 1.393 . S
C781 C780 1.391 . S
C782 H772 0.950 . S
C782 C783 1.386 . S
C782 C784 1.391 . S
C783 C782 1.386 . S
C783 C787 1.393 . S
C784 H773 0.950 . S
C784 C782 1.391 . S
C784 C785 1.400 . S
C785 C779 1.491 . S
C785 C784 1.400 . S
C785 C786 1.398 . S
C786 H774 0.950 . S
C786 C785 1.398 . S
C786 C787 1.391 . S
C787 H775 0.950 . S
C787 C783 1.393 . S
C787 C786 1.391 . S
H788 C796 0.950 . S
H789 C801 0.950 . S
H790 C798 0.950 . S
H791 C800 0.950 . S
H792 C802 0.950 1_545 S
H793 C804 0.950 . S
H794 C806 0.950 . S
H795 C807 0.950 . S
C796 H788 0.950 . S
C796 C797 1.386 . S
C796 C798 1.391 . S
C797 C796 1.386 . S
C797 C801 1.393 . S
C798 H790 0.950 . S
C798 C796 1.391 . S
C798 C799 1.400 . S
C799 C798 1.400 . S
C799 C800 1.398 . S
C799 C805 1.491 . S
C800 H791 0.950 . S
C800 C799 1.398 . S
C800 C801 1.391 . S
C801 H789 0.950 . S
C801 C797 1.393 . S
C801 C800 1.391 . S
C802 H792 0.950 1_565 S
C802 C803 1.386 . S
C802 C804 1.391 . S
C803 C802 1.386 . S
C803 C807 1.393 . S
C804 H793 0.950 . S
C804 C802 1.391 . S
C804 C805 1.400 . S
C805 C799 1.491 . S
C805 C804 1.400 . S
C805 C806 1.398 . S
C806 H794 0.950 . S
C806 C805 1.398 . S
C806 C807 1.391 . S
C807 H795 0.950 . S
C807 C803 1.393 . S
C807 C806 1.391 . S
H808 C816 0.950 . S
H809 C821 0.950 . S
H810 C818 0.950 . S
H811 C820 0.950 . S
H812 C822 0.950 . S
H813 C824 0.950 . S
H814 C826 0.950 . S
H815 C827 0.950 . S
C816 H808 0.950 . S
C816 C817 1.386 . S
C816 C818 1.391 . S
C817 C816 1.386 . S
C817 C821 1.393 . S
C818 H810 0.950 . S
C818 C816 1.391 . S
C818 C819 1.400 . S
C819 C818 1.400 . S
C819 C820 1.398 . S
C819 C825 1.491 . S
C820 H811 0.950 . S
C820 C819 1.398 . S
C820 C821 1.391 . S
C821 H809 0.950 . S
C821 C817 1.393 . S
C821 C820 1.391 . S
C822 H812 0.950 . S
C822 C823 1.386 . S
C822 C824 1.391 . S
C823 C822 1.386 . S
C823 C827 1.393 . S
C824 H813 0.950 . S
C824 C822 1.391 . S
C824 C825 1.400 . S
C825 C819 1.491 . S
C825 C824 1.400 . S
C825 C826 1.398 . S
C826 H814 0.950 . S
C826 C825 1.398 . S
C826 C827 1.391 . S
C827 H815 0.950 . S
C827 C823 1.393 . S
C827 C826 1.391 . S
H828 C836 0.950 . S
H829 C841 0.950 1_655 S
H830 C838 0.950 . S
H831 C840 0.950 . S
H832 C842 0.950 . S
H833 C844 0.950 . S
H834 C846 0.950 . S
H835 C847 0.950 . S
C836 H828 0.950 . S
C836 C837 1.386 . S
C836 C838 1.391 . S
C837 C836 1.386 . S
C837 C841 1.393 1_554 S
C838 H830 0.950 . S
C838 C836 1.391 . S
C838 C839 1.400 1_554 S
C839 C838 1.400 1_556 S
C839 C840 1.398 . S
C839 C845 1.491 . S
C840 H831 0.950 . S
C840 C839 1.398 . S
C840 C841 1.391 . S
C841 H829 0.950 1_455 S
C841 C837 1.393 1_556 S
C841 C840 1.391 . S
C842 H832 0.950 . S
C842 C843 1.386 . S
C842 C844 1.391 . S
C843 C842 1.386 . S
C843 C847 1.393 . S
C844 H833 0.950 . S
C844 C842 1.391 . S
C844 C845 1.400 . S
C845 C839 1.491 . S
C845 C844 1.400 . S
C845 C846 1.398 . S
C846 H834 0.950 . S
C846 C845 1.398 . S
C846 C847 1.391 . S
C847 H835 0.950 . S
C847 C843 1.393 . S
C847 C846 1.391 . S
H848 C856 0.950 . S
H849 C861 0.950 1_565 S
H850 C858 0.950 . S
H851 C860 0.950 . S
H852 C862 0.950 . S
H853 C864 0.950 . S
H854 C866 0.950 . S
H855 C867 0.950 . S
C856 H848 0.950 . S
C856 C857 1.386 . S
C856 C858 1.391 . S
C857 C856 1.386 . S
C857 C861 1.393 . S
C858 H850 0.950 . S
C858 C856 1.391 . S
C858 C859 1.400 . S
C859 C858 1.400 . S
C859 C860 1.398 . S
C859 C865 1.491 . S
C860 H851 0.950 . S
C860 C859 1.398 . S
C860 C861 1.391 . S
C861 H849 0.950 1_545 S
C861 C857 1.393 . S
C861 C860 1.391 . S
C862 H852 0.950 . S
C862 C863 1.386 . S
C862 C864 1.391 . S
C863 C862 1.386 . S
C863 C867 1.393 . S
C864 H853 0.950 . S
C864 C862 1.391 . S
C864 C865 1.400 . S
C865 C859 1.491 . S
C865 C864 1.400 . S
C865 C866 1.398 . S
C866 H854 0.950 . S
C866 C865 1.398 . S
C866 C867 1.391 . S
C867 H855 0.950 . S
C867 C863 1.393 . S
C867 C866 1.391 . S
H868 C876 0.950 . S
H869 C881 0.950 . S
H870 C878 0.950 . S
H871 C880 0.950 . S
H872 C882 0.950 . S
H873 C884 0.950 . S
H874 C886 0.950 . S
H875 C887 0.950 . S
C876 H868 0.950 . S
C876 C877 1.386 . S
C876 C878 1.391 . S
C877 C876 1.386 . S
C877 C881 1.393 . S
C878 H870 0.950 . S
C878 C876 1.391 . S
C878 C879 1.400 . S
C879 C878 1.400 . S
C879 C880 1.398 . S
C879 C885 1.491 . S
C880 H871 0.950 . S
C880 C879 1.398 . S
C880 C881 1.391 . S
C881 H869 0.950 . S
C881 C877 1.393 . S
C881 C880 1.391 . S
C882 H872 0.950 . S
C882 C883 1.386 . S
C882 C884 1.391 . S
C883 C882 1.386 . S
C883 C887 1.393 . S
C884 H873 0.950 . S
C884 C882 1.391 . S
C884 C885 1.400 . S
C885 C879 1.491 . S
C885 C884 1.400 . S
C885 C886 1.398 . S
C886 H874 0.950 . S
C886 C885 1.398 . S
C886 C887 1.391 . S
C887 H875 0.950 . S
C887 C883 1.393 . S
C887 C886 1.391 . S
H888 C896 0.950 . S
H889 C901 0.950 . S
H890 C898 0.950 . S
H891 C900 0.950 . S
H892 C902 0.950 . S
H893 C904 0.950 . S
H894 C906 0.950 . S
H895 C907 0.950 . S
C896 H888 0.950 . S
C896 C897 1.386 . S
C896 C898 1.391 . S
C897 C896 1.386 . S
C897 C901 1.393 . S
C898 H890 0.950 . S
C898 C896 1.391 . S
C898 C899 1.400 . S
C899 C898 1.400 . S
C899 C900 1.398 . S
C899 C905 1.491 . S
C900 H891 0.950 . S
C900 C899 1.398 . S
C900 C901 1.391 . S
C901 H889 0.950 . S
C901 C897 1.393 . S
C901 C900 1.391 . S
C902 H892 0.950 . S
C902 C903 1.386 . S
C902 C904 1.391 . S
C903 C902 1.386 . S
C903 C907 1.393 . S
C904 H893 0.950 . S
C904 C902 1.391 . S
C904 C905 1.400 . S
C905 C899 1.491 . S
C905 C904 1.400 . S
C905 C906 1.398 . S
C906 H894 0.950 . S
C906 C905 1.398 . S
C906 C907 1.391 . S
C907 H895 0.950 . S
C907 C903 1.393 . S
C907 C906 1.391 . S
H908 C916 0.950 . S
H909 C921 0.950 . S
H910 C918 0.950 . S
H911 C920 0.950 . S
H912 C922 0.950 . S
H913 C924 0.950 . S
H914 C926 0.950 . S
H915 C927 0.950 . S
C916 H908 0.950 . S
C916 C917 1.386 . S
C916 C918 1.391 . S
C917 C916 1.386 . S
C917 C921 1.393 . S
C918 H910 0.950 . S
C918 C916 1.391 . S
C918 C919 1.400 . S
C919 C918 1.400 . S
C919 C920 1.398 . S
C919 C925 1.491 . S
C920 H911 0.950 . S
C920 C919 1.398 . S
C920 C921 1.391 . S
C921 H909 0.950 . S
C921 C917 1.393 . S
C921 C920 1.391 . S
C922 H912 0.950 . S
C922 C923 1.386 . S
C922 C924 1.391 . S
C923 C922 1.386 . S
C923 C927 1.393 . S
C924 H913 0.950 . S
C924 C922 1.391 . S
C924 C925 1.400 . S
C925 C919 1.491 . S
C925 C924 1.400 . S
C925 C926 1.398 . S
C926 H914 0.950 . S
C926 C925 1.398 . S
C926 C927 1.391 . S
C927 H915 0.950 . S
C927 C923 1.393 . S
C927 C926 1.391 . S
H928 C936 0.950 . S
H929 C941 0.950 . S
H930 C938 0.950 . S
H931 C940 0.950 . S
H932 C942 0.950 . S
H933 C944 0.950 . S
H934 C946 0.950 . S
H935 C947 0.950 . S
C936 H928 0.950 . S
C936 C937 1.386 . S
C936 C938 1.391 . S
C937 C936 1.386 . S
C937 C941 1.393 . S
C938 H930 0.950 . S
C938 C936 1.391 . S
C938 C939 1.400 . S
C939 C938 1.400 . S
C939 C940 1.398 . S
C939 C945 1.491 . S
C940 H931 0.950 . S
C940 C939 1.398 . S
C940 C941 1.391 . S
C941 H929 0.950 . S
C941 C937 1.393 . S
C941 C940 1.391 . S
C942 H932 0.950 . S
C942 C943 1.386 . S
C942 C944 1.391 . S
C943 C942 1.386 . S
C943 C947 1.393 . S
C944 H933 0.950 . S
C944 C942 1.391 . S
C944 C945 1.400 . S
C945 C939 1.491 . S
C945 C944 1.400 . S
C945 C946 1.398 . S
C946 H934 0.950 . S
C946 C945 1.398 . S
C946 C947 1.391 . S
C947 H935 0.950 . S
C947 C943 1.393 . S
C947 C946 1.391 . S
H948 C956 0.950 . S
H949 C961 0.950 . S
H950 C958 0.950 . S
H951 C960 0.950 . S
H952 C962 0.950 . S
H953 C964 0.950 . S
H954 C966 0.950 . S
H955 C967 0.950 . S
C956 H948 0.950 . S
C956 C957 1.386 . S
C956 C958 1.391 . S
C957 C956 1.386 . S
C957 C961 1.393 . S
C958 H950 0.950 . S
C958 C956 1.391 . S
C958 C959 1.400 . S
C959 C958 1.400 . S
C959 C960 1.398 . S
C959 C965 1.491 . S
C960 H951 0.950 . S
C960 C959 1.398 . S
C960 C961 1.391 . S
C961 H949 0.950 . S
C961 C957 1.393 . S
C961 C960 1.391 . S
C962 H952 0.950 . S
C962 C963 1.386 . S
C962 C964 1.391 . S
C963 C962 1.386 . S
C963 C967 1.393 . S
C964 H953 0.950 . S
C964 C962 1.391 . S
C964 C965 1.400 . S
C965 C959 1.491 . S
C965 C964 1.400 . S
C965 C966 1.398 . S
C966 H954 0.950 . S
C966 C965 1.398 . S
C966 C967 1.391 . S
C967 H955 0.950 . S
C967 C963 1.393 . S
C967 C966 1.391 . S
H968 C976 0.950 . S
H969 C981 0.950 . S
H970 C978 0.950 . S
H971 C980 0.950 . S
H972 C982 0.950 . S
H973 C984 0.950 . S
H974 C986 0.950 . S
H975 C987 0.950 . S
C976 H968 0.950 . S
C976 C977 1.386 . S
C976 C978 1.391 . S
C977 C976 1.386 . S
C977 C981 1.393 . S
C978 H970 0.950 . S
C978 C976 1.391 . S
C978 C979 1.400 . S
C979 C978 1.400 . S
C979 C980 1.398 . S
C979 C985 1.491 . S
C980 H971 0.950 . S
C980 C979 1.398 . S
C980 C981 1.391 . S
C981 H969 0.950 . S
C981 C977 1.393 . S
C981 C980 1.391 . S
C982 H972 0.950 . S
C982 C983 1.386 . S
C982 C984 1.391 . S
C983 C982 1.386 . S
C983 C987 1.393 . S
C984 H973 0.950 . S
C984 C982 1.391 . S
C984 C985 1.400 . S
C985 C979 1.491 . S
C985 C984 1.400 . S
C985 C986 1.398 . S
C986 H974 0.950 . S
C986 C985 1.398 . S
C986 C987 1.391 . S
C987 H975 0.950 . S
C987 C983 1.393 . S
C987 C986 1.391 . S
H988 C996 0.950 . S
H989 C1001 0.950 . S
H990 C998 0.950 . S
H991 C1000 0.950 . S
H992 C1002 0.950 . S
H993 C1004 0.950 . S
H994 C1006 0.950 . S
H995 C1007 0.950 . S
C996 H988 0.950 . S
C996 C997 1.386 . S
C996 C998 1.391 . S
C997 C996 1.386 . S
C997 C1001 1.393 . S
C998 H990 0.950 . S
C998 C996 1.391 . S
C998 C999 1.400 . S
C999 C998 1.400 . S
C999 C1000 1.398 . S
C999 C1005 1.491 . S
C1000 H991 0.950 . S
C1000 C999 1.398 . S
C1000 C1001 1.391 . S
C1001 H989 0.950 . S
C1001 C997 1.393 . S
C1001 C1000 1.391 . S
C1002 H992 0.950 . S
C1002 C1003 1.386 . S
C1002 C1004 1.391 . S
C1003 C1002 1.386 . S
C1003 C1007 1.393 . S
C1004 H993 0.950 . S
C1004 C1002 1.391 . S
C1004 C1005 1.400 . S
C1005 C999 1.491 . S
C1005 C1004 1.400 . S
C1005 C1006 1.398 . S
C1006 H994 0.950 . S
C1006 C1005 1.398 . S
C1006 C1007 1.391 . S
C1007 H995 0.950 . S
C1007 C1003 1.393 . S
C1007 C1006 1.391 . S
C417 C213 1.383 . S
C423 C9 1.408 . S
C437 C43 1.408 . S
C443 C247 1.383 . S
C457 C281 1.386 . S
C463 C77 1.408 . S
C477 C111 1.386 . S
C483 C315 1.408 . S
C497 C349 1.406 . S
C503 C145 1.389 . S
C517 C383 1.407 . S
C523 C179 1.382 . S
C537 C243 0.360 . S
C543 C5 0.394 . S
C557 C39 0.329 . S
C563 C277 0.415 . S
C577 C311 0.409 . S
C583 C73 0.339 . S
C597 C107 0.412 . S
C603 C345 0.334 . S
C617 C379 0.328 . S
C623 C141 0.406 . S
C637 C175 0.357 . S
C643 C209 0.396 . S
C657 C203 1.353 1_545 S
C663 C20 1.316 . S
C677 C33 1.370 . S
C683 C54 1.291 . S
C697 C88 1.323 . S
C703 C67 1.353 1_655 S
C717 C101 1.366 1_565 S
C723 C122 1.302 . S
C737 C135 1.359 . S
C743 C156 1.314 . S
C757 C169 1.355 1_455 S
C763 C190 1.321 . S
C777 C271 1.366 1_655 S
C783 C224 1.302 . S
C797 C258 1.305 . S
C803 C305 1.364 1_565 S
C817 C339 1.350 . S
C823 C292 1.324 . S
C837 C373 1.363 1_455 S
C843 C326 1.308 . S
C857 C407 1.354 1_545 S
C863 C360 1.322 . S
C877 C237 1.353 . S
C883 C394 1.324 . S
C897 C2 1.876 . S
C903 C274 1.860 . S
C917 C36 1.875 . S
C923 C308 1.856 . S
C937 C70 1.868 . S
C943 C342 1.872 . S
C957 C104 1.858 . S
C963 C376 1.862 . S
C977 C138 1.855 . S
C983 C206 1.874 . S
C997 C172 1.865 . S
C1003 C240 1.857 . S
