# Generated by pormake.
# Topology msp, (4)-cn, num edge types: 1
# Building blocks:
#     Node 0, Type 0, BuildingBlock: MUDLON_clean_sbu_0, # of connection points: 4
#     Node 1, Type 0, BuildingBlock: MUDLON_clean_sbu_0, # of connection points: 4
#     Node 2, Type 0, BuildingBlock: MUDLON_clean_sbu_0, # of connection points: 4
#     Node 3, Type 0, BuildingBlock: MUDLON_clean_sbu_0, # of connection points: 4
#     Node 4, Type 0, BuildingBlock: MUDLON_clean_sbu_0, # of connection points: 4
#     Node 5, Type 0, BuildingBlock: MUDLON_clean_sbu_0, # of connection points: 4
#     Node 6, Type 0, BuildingBlock: MUDLON_clean_sbu_0, # of connection points: 4
#     Node 7, Type 0, BuildingBlock: MUDLON_clean_sbu_0, # of connection points: 4
#     Edge 8, Type (0, 0), BuildingBlock: XIVTED_clean_linker_0, # of connection points: 2
#     Edge 9, Type (0, 0), BuildingBlock: XIVTED_clean_linker_0, # of connection points: 2
#     Edge 10, Type (0, 0), BuildingBlock: XIVTED_clean_linker_0, # of connection points: 2
#     Edge 11, Type (0, 0), BuildingBlock: XIVTED_clean_linker_0, # of connection points: 2
#     Edge 12, Type (0, 0), BuildingBlock: XIVTED_clean_linker_0, # of connection points: 2
#     Edge 13, Type (0, 0), BuildingBlock: XIVTED_clean_linker_0, # of connection points: 2
#     Edge 14, Type (0, 0), BuildingBlock: XIVTED_clean_linker_0, # of connection points: 2
#     Edge 15, Type (0, 0), BuildingBlock: XIVTED_clean_linker_0, # of connection points: 2
#     Edge 16, Type (0, 0), BuildingBlock: XIVTED_clean_linker_0, # of connection points: 2
#     Edge 17, Type (0, 0), BuildingBlock: XIVTED_clean_linker_0, # of connection points: 2
#     Edge 18, Type (0, 0), BuildingBlock: XIVTED_clean_linker_0, # of connection points: 2
#     Edge 19, Type (0, 0), BuildingBlock: XIVTED_clean_linker_0, # of connection points: 2
#     Edge 20, Type (0, 0), BuildingBlock: XIVTED_clean_linker_0, # of connection points: 2
#     Edge 21, Type (0, 0), BuildingBlock: XIVTED_clean_linker_0, # of connection points: 2
#     Edge 22, Type (0, 0), BuildingBlock: XIVTED_clean_linker_0, # of connection points: 2
#     Edge 23, Type (0, 0), BuildingBlock: XIVTED_clean_linker_0, # of connection points: 2
# Relax obj value: 0.165
# Max RMSD: 0.252
# Mean RMSD: 0.252
data_MOF--net-msp--node1-MUDLON_clean_sbu_0--edge1-XIVTED_clean_linker_0
_symmetry_space_group_name_H-M    P1
_symmetry_Int_Tables_number       1
_symmetry_cell_setting            triclinic
loop_
_symmetry_equiv_pos_as_xyz
'x, y, z'
_cell_length_a     24.767515
_cell_length_b     25.023792
_cell_length_c     41.431222
_cell_angle_alpha  90.185434
_cell_angle_beta   101.55138
_cell_angle_gamma 90.167357
loop_
_atom_site_label
_atom_site_type_symbol
_atom_site_fract_x
_atom_site_fract_y
_atom_site_fract_z
_atom_type_partial_charge
Mg0 Mg 0.06004 0.27912 0.3888 0.0
C1 C 0.12498 0.25354 0.33901 0.0
O2 O 0.09319 0.21143 0.33913 0.0
C3 C 0.09096 0.36065 0.44327 0.0
O4 O 0.13874 0.33686 0.44529 0.0
C5 C 0.94066 0.24004 0.36688 0.0
O6 O 0.946 0.22735 0.3981 0.0
O7 O 0.98136 0.26045 0.35689 0.0
O8 O 0.11952 0.29283 0.35765 0.0
O9 O 0.09724 0.21493 0.42057 0.0
C10 C 0.08993 0.20972 0.44989 0.0
O11 O 0.05179 0.23844 0.45963 0.0
O12 O 0.05068 0.34627 0.42076 0.0
Mg13 Mg 0.48431 0.28289 0.65384 0.0
C14 C 0.38391 0.29284 0.6853 0.0
O15 O 0.35876 0.2968 0.65432 0.0
C16 C 0.51058 0.34955 0.6004 0.0
O17 O 0.53025 0.30244 0.59482 0.0
C18 C 0.57685 0.22197 0.69706 0.0
O19 O 0.53572 0.19046 0.70023 0.0
O20 O 0.56751 0.26196 0.67796 0.0
O21 O 0.43622 0.29029 0.69216 0.0
O22 O 0.4425 0.22417 0.61873 0.0
C23 C 0.4098 0.18954 0.62663 0.0
O24 O 0.40796 0.18325 0.65785 0.0
O25 O 0.48799 0.35515 0.62523 0.0
Mg26 Mg 0.99199 0.70713 0.6547 0.0
C27 C 0.88385 0.68744 0.67762 0.0
O28 O 0.86635 0.67458 0.6465 0.0
C29 C 0.04599 0.62758 0.61767 0.0
O30 O 0.08675 0.66096 0.62833 0.0
C31 C 0.09029 0.69066 0.70678 0.0
O32 O 0.06033 0.64769 0.70842 0.0
O33 O 0.07195 0.72588 0.68532 0.0
O34 O 0.93435 0.69939 0.68768 0.0
O35 O 0.95816 0.76683 0.61819 0.0
C36 C 0.91961 0.7977 0.62273 0.0
O37 O 0.90659 0.79942 0.65192 0.0
O38 O 0.99993 0.63529 0.62608 0.0
Mg39 Mg 0.56306 0.71479 0.38892 0.0
C40 C 0.67035 0.69741 0.3655 0.0
O41 O 0.6874 0.68464 0.39661 0.0
C42 C 0.53258 0.64694 0.44066 0.0
O43 O 0.5111 0.6935 0.44555 0.0
C44 C 0.4578 0.69299 0.34303 0.0
O45 O 0.48326 0.64677 0.34481 0.0
O46 O 0.48155 0.73197 0.36003 0.0
O47 O 0.61985 0.70882 0.35527 0.0
O48 O 0.59717 0.77387 0.42617 0.0
C49 C 0.63612 0.8049 0.42227 0.0
O50 O 0.64926 0.80776 0.39315 0.0
O51 O 0.55782 0.64213 0.4169 0.0
Mg52 Mg 0.5722 0.78695 0.88438 0.0
C53 C 0.6159 0.75965 0.82505 0.0
O54 O 0.57363 0.72707 0.82289 0.0
C55 C 0.53138 0.86298 0.9297 0.0
O56 O 0.4903 0.82877 0.92285 0.0
C57 C 0.46077 0.73045 0.85744 0.0
O58 O 0.4822 0.69031 0.876 0.0
O59 O 0.4887 0.77305 0.85718 0.0
O60 O 0.62525 0.79338 0.8486 0.0
O61 O 0.61033 0.72337 0.9165 0.0
C62 C 0.60026 0.71462 0.94491 0.0
O63 O 0.55876 0.73928 0.95376 0.0
O64 O 0.57235 0.85718 0.91573 0.0
Mg65 Mg 0.98379 0.78793 0.15855 0.0
C66 C 0.94312 0.77141 0.22129 0.0
O67 O 0.99026 0.74585 0.2279 0.0
C68 C 1.01133 0.852 0.10435 0.0
O69 O 0.03332 0.80522 0.10061 0.0
C70 C 0.08897 0.72636 0.19019 0.0
O71 O 0.06058 0.68392 0.17803 0.0
O72 O 0.06733 0.7723 0.18497 0.0
O73 O 0.93017 0.7963 0.19411 0.0
O74 O 0.94594 0.72694 0.12359 0.0
C75 C 0.90717 0.69789 0.12996 0.0
O76 O 0.89731 0.69846 0.15995 0.0
O77 O 0.98673 0.85846 0.12827 0.0
Mg78 Mg 0.48284 0.20935 0.15332 0.0
C79 C 0.42681 0.23266 0.20958 0.0
O80 O 0.4657 0.26934 0.21423 0.0
C81 C 0.52474 0.13902 0.10585 0.0
O82 O 0.55692 0.18114 0.10709 0.0
C83 C 0.57766 0.19829 0.20894 0.0
O84 O 0.54339 0.16117 0.21495 0.0
O85 O 0.56355 0.22714 0.18342 0.0
O86 O 0.42444 0.19964 0.18589 0.0
O87 O 0.44945 0.26921 0.1166 0.0
C88 C 0.4071 0.29616 0.11936 0.0
O89 O 0.3889 0.29347 0.14697 0.0
O90 O 0.48923 0.13793 0.1242 0.0
Mg91 Mg 0.05941 0.20561 0.88504 0.0
C92 C 0.16285 0.19591 0.8553 0.0
O93 O 0.18759 0.19042 0.88626 0.0
C94 C 0.03064 0.13947 0.93773 0.0
O95 O 1.00747 0.18575 0.9412 0.0
C96 C 0.94598 0.18292 0.84802 0.0
O97 O 0.96537 0.13459 0.85497 0.0
O98 O 0.97638 0.22288 0.85856 0.0
O99 O 0.11063 0.19966 0.84822 0.0
O100 O 0.0949 0.26602 0.921 0.0
C101 C 0.13194 0.29877 0.91635 0.0
O102 O 0.14386 0.30232 0.88694 0.0
O103 O 0.05669 0.1339 0.91438 0.0
H104 H 0.99437 0.40531 0.45321 0.0
H105 H 0.1418 0.59218 0.60215 0.0
H106 H 0.16988 0.40634 0.4912 0.0
H107 H 0.96587 0.56652 0.5786 0.0
H108 H 0.15252 0.52705 0.55997 0.0
H109 H 0.98272 0.46809 0.49675 0.0
C110 C 0.0305 0.41893 0.47057 0.0
C111 C 0.08323 0.40056 0.46848 0.0
C112 C 0.11156 0.53538 0.5641 0.0
C113 C 0.07011 0.4723 0.51844 0.0
C114 C 0.10538 0.57262 0.58822 0.0
C115 C 0.05282 0.58493 0.59392 0.0
C116 C 0.06482 0.51051 0.54518 0.0
C117 C 1.00718 0.55815 0.57512 0.0
C118 C 0.02376 0.45455 0.49554 0.0
C119 C 0.12846 0.41938 0.49181 0.0
N120 N 1.01419 0.52248 0.55142 0.0
N121 N 0.12086 0.45426 0.51572 0.0
H122 H 0.57344 0.54503 0.43922 0.0
H123 H 0.47089 0.45187 0.60232 0.0
H124 H 0.48335 0.64657 0.49411 0.0
H125 H 0.55743 0.34917 0.54602 0.0
H126 H 0.47568 0.52404 0.5632 0.0
H127 H 0.56821 0.47274 0.47817 0.0
C128 C 0.55246 0.55211 0.45939 0.0
C129 C 0.52884 0.602 0.46337 0.0
C130 C 0.49364 0.4857 0.55943 0.0
C131 C 0.52283 0.51948 0.50816 0.0
C132 C 0.49098 0.4445 0.5818 0.0
C133 C 0.51377 0.39433 0.57749 0.0
C134 C 0.51933 0.47674 0.53254 0.0
C135 C 0.53925 0.38712 0.55038 0.0
C136 C 0.54953 0.51084 0.48166 0.0
C137 C 0.5022 0.60883 0.49002 0.0
N138 N 0.54131 0.42778 0.52898 0.0
N139 N 0.5 0.56814 0.51138 0.0
H140 H 0.45616 0.05211 0.09061 0.0
H141 H 0.60844 0.94181 0.95024 0.0
H142 H 0.59876 0.12799 0.06532 0.0
H143 H 0.45433 0.87897 0.96763 0.0
H144 H 0.60833 0.00779 0.99403 0.0
H145 H 0.4582 0.98488 0.04786 0.0
C146 C 0.4881 0.05448 0.07623 0.0
C147 C 0.52725 0.0959 0.08154 0.0
C148 C 0.57449 0.97961 0.98819 0.0
C149 C 0.52971 0.01912 0.03241 0.0
C150 C 0.5745 0.94197 0.96315 0.0
C151 C 0.53129 0.90479 0.95515 0.0
C152 C 0.53112 0.97992 1.00552 0.0
C153 C 0.48847 0.90687 0.97283 0.0
C154 C 0.48912 0.01618 0.05172 0.0
C155 C 0.56762 0.09691 0.06206 0.0
N156 N 0.48955 0.94363 0.99718 0.0
N157 N 0.56776 0.0592 0.03837 0.0
H158 H 0.96759 0.95316 0.10255 0.0
H159 H 0.07526 0.0386 0.93964 0.0
H160 H 0.06148 0.84945 0.05128 0.0
H161 H 0.97901 0.14107 0.99014 0.0
H162 H 0.07078 0.96867 0.98027 0.0
H163 H 0.97184 0.02279 0.06175 0.0
C164 C 0.98918 0.94503 0.08279 0.0
C165 C 1.01419 0.89533 0.08039 0.0
C166 C 0.05059 0.00646 0.98242 0.0
C167 C 1.01915 0.97483 0.03349 0.0
C168 C 0.0531 0.04638 0.95919 0.0
C169 C 0.02753 0.09584 0.96145 0.0
C170 C 1.02233 0.01605 1.00813 0.0
C171 C 0.9994 0.10362 0.98737 0.0
C172 C 0.99154 0.98479 0.05945 0.0
C173 C 0.04156 0.88711 0.05416 0.0
N174 N 0.99763 0.06427 1.00966 0.0
N175 N 0.04327 0.92636 0.03179 0.0
H176 H 0.66511 0.26145 0.20093 0.0
H177 H 0.84716 0.19069 0.37812 0.0
H178 H 0.61267 0.15222 0.26911 0.0
H179 H 0.91205 0.27335 0.30277 0.0
H180 H 0.7588 0.18114 0.33971 0.0
H181 H 0.75383 0.27161 0.23925 0.0
C182 C 0.67218 0.23971 0.22395 0.0
C183 C 0.6314 0.20586 0.23177 0.0
C184 C 0.79242 0.20126 0.33155 0.0
C185 C 0.73266 0.21739 0.27574 0.0
C186 C 0.84291 0.20676 0.3535 0.0
C187 C 0.88719 0.2328 0.34368 0.0
C188 C 0.78592 0.22228 0.29959 0.0
C189 C 0.87914 0.25285 0.31142 0.0
C190 C 0.72287 0.2454 0.24577 0.0
C191 C 0.6429 0.17861 0.26195 0.0
N192 N 0.82949 0.24733 0.29059 0.0
N193 N 0.69232 0.18506 0.28282 0.0
H194 H 0.61487 0.13554 0.73525 0.0
H195 H 0.89988 0.27502 0.81896 0.0
H196 H 0.66467 0.29113 0.70694 0.0
H197 H 0.86702 0.10677 0.82791 0.0
H198 H 0.81051 0.28411 0.78138 0.0
H199 H 0.70451 0.12615 0.77232 0.0
C200 C 0.64473 0.16762 0.7367 0.0
C201 C 0.63221 0.21417 0.71793 0.0
C202 C 0.82292 0.24523 0.7916 0.0
C203 C 0.73465 0.20397 0.76064 0.0
C204 C 0.87378 0.24007 0.81318 0.0
C205 C 0.89101 0.19004 0.82658 0.0
C206 C 0.78882 0.20015 0.7836 0.0
C207 C 0.85554 0.14609 0.81811 0.0
C208 C 0.69589 0.16224 0.75788 0.0
C209 C 0.67256 0.25445 0.72084 0.0
N210 N 0.80614 0.15219 0.79724 0.0
N211 N 0.72181 0.24856 0.74194 0.0
H212 H 0.14066 0.62064 0.75366 0.0
H213 H 0.40704 0.80449 0.81414 0.0
H214 H 0.16338 0.77477 0.7117 0.0
H215 H 0.38813 0.64613 0.85152 0.0
H216 H 0.31676 0.79571 0.77785 0.0
H217 H 0.22983 0.63068 0.79081 0.0
C218 C 0.16437 0.65669 0.75224 0.0
C219 C 0.14441 0.69694 0.72944 0.0
C220 C 0.33229 0.76289 0.794 0.0
C221 C 0.24694 0.70867 0.77212 0.0
C222 C 0.38388 0.76786 0.81481 0.0
C223 C 0.40536 0.72591 0.83594 0.0
C224 C 0.30169 0.71565 0.79428 0.0
C225 C 0.37334 0.67947 0.83565 0.0
C226 C 0.2154 0.66235 0.7735 0.0
C227 C 0.17711 0.74271 0.72883 0.0
N228 N 0.32317 0.6756 0.81514 0.0
N229 N 0.22674 0.74732 0.74985 0.0
H230 H 0.39532 0.78398 0.32959 0.0
H231 H 0.14937 0.63502 0.20627 0.0
H232 H 0.3959 0.61593 0.3058 0.0
H233 H 0.15454 0.80541 0.22337 0.0
H234 H 0.23905 0.62708 0.24345 0.0
H235 H 0.30602 0.7925 0.29187 0.0
C236 C 0.37668 0.74887 0.31651 0.0
C237 C 0.40323 0.69918 0.32089 0.0
C238 C 0.22062 0.66624 0.23901 0.0
C239 C 0.30106 0.70862 0.27764 0.0
C240 C 0.16939 0.67079 0.21774 0.0
C241 C 0.14428 0.72094 0.21165 0.0
C242 C 0.24696 0.71213 0.25445 0.0
C243 C 0.17228 0.7659 0.22727 0.0
C244 C 0.32574 0.75377 0.29492 0.0
C245 C 0.37708 0.65507 0.30322 0.0
N246 N 0.22196 0.7604 0.24799 0.0
N247 N 0.32754 0.66083 0.28244 0.0
H248 H 0.33946 0.16376 0.20659 0.0
H249 H 0.20715 0.32747 0.33823 0.0
H250 H 0.41433 0.30456 0.25744 0.0
H251 H 0.14239 0.17766 0.29475 0.0
H252 H 0.2813 0.32208 0.30711 0.0
H253 H 0.26539 0.16968 0.23757 0.0
C254 C 0.3405 0.19577 0.22437 0.0
C255 C 0.38323 0.2337 0.2294 0.0
C256 C 0.25078 0.29045 0.30436 0.0
C257 C 0.29824 0.24102 0.26479 0.0
C258 C 0.20831 0.29363 0.32202 0.0
C259 C 0.1685 0.25294 0.31915 0.0
C260 C 0.25333 0.24635 0.28359 0.0
C261 C 0.1722 0.20993 0.29783 0.0
C262 C 0.29811 0.1992 0.24203 0.0
C263 C 0.3823 0.27436 0.25275 0.0
N264 N 0.21381 0.20777 0.28092 0.0
N265 N 0.34043 0.27704 0.26948 0.0
H266 H 0.42279 0.27657 0.75131 0.0
H267 H 0.12463 0.21213 0.78931 0.0
H268 H 0.27181 0.28429 0.67835 0.0
H269 H 0.27518 0.2045 0.86263 0.0
H270 H 0.17814 0.23747 0.74826 0.0
H271 H 0.36953 0.25119 0.79257 0.0
C272 C 0.37839 0.27341 0.744 0.0
C273 C 0.35178 0.28262 0.71125 0.0
C274 C 0.19955 0.23006 0.77329 0.0
C275 C 0.29053 0.25292 0.75839 0.0
C276 C 0.16901 0.21535 0.79676 0.0
C277 C 0.1954 0.20618 0.82955 0.0
C278 C 0.257 0.23581 0.78258 0.0
C279 C 0.25304 0.21107 0.83767 0.0
C280 C 0.34801 0.25865 0.76757 0.0
C281 C 0.29414 0.2777 0.70326 0.0
N282 N 0.28186 0.22573 0.81439 0.0
N283 N 0.26552 0.26303 0.72662 0.0
H284 H 0.71919 0.8033 0.82984 0.0
H285 H 0.7741 0.66103 0.66601 0.0
H286 H 0.60092 0.7 0.76863 0.0
H287 H 0.90278 0.73304 0.73909 0.0
H288 H 0.70803 0.68056 0.70111 0.0
H289 H 0.78469 0.78515 0.79404 0.0
C290 C 0.7068 0.77721 0.80873 0.0
C291 C 0.65453 0.75303 0.80229 0.0
C292 C 0.75078 0.69187 0.70952 0.0
C293 C 0.72931 0.73188 0.76134 0.0
C294 C 0.78856 0.68064 0.68951 0.0
C295 C 0.84413 0.69528 0.69962 0.0
C296 C 0.76853 0.71846 0.73973 0.0
C297 C 0.86042 0.72077 0.73032 0.0
C298 C 0.74433 0.76658 0.78843 0.0
C299 C 0.64084 0.71936 0.77464 0.0
N300 N 0.82277 0.73179 0.74918 0.0
N301 N 0.67795 0.70979 0.75522 0.0
H302 H 0.83442 0.80187 0.21021 0.0
H303 H 0.78125 0.67727 0.37922 0.0
H304 H 0.96031 0.72519 0.28214 0.0
H305 H 0.65142 0.73735 0.30266 0.0
H306 H 0.84796 0.69741 0.34475 0.0
H307 H 0.76756 0.7832 0.24502 0.0
C308 C 0.84815 0.78159 0.23345 0.0
C309 C 0.90309 0.76503 0.24323 0.0
C310 C 0.80485 0.70601 0.33542 0.0
C311 C 0.82667 0.74311 0.28305 0.0
C312 C 0.76667 0.69437 0.35508 0.0
C313 C 0.71058 0.70556 0.34384 0.0
C314 C 0.78696 0.72933 0.30432 0.0
C315 C 0.6942 0.72788 0.31233 0.0
C316 C 0.80988 0.77064 0.25322 0.0
C317 C 0.91841 0.73861 0.27353 0.0
N318 N 0.73221 0.73922 0.29375 0.0
N319 N 0.88044 0.72841 0.29229 0.0
H320 H 0.30942 0.15094 0.63387 0.0
H321 H 0.18739 0.16662 0.44074 0.0
H322 H 0.40685 0.18158 0.56039 0.0
H323 H 0.09116 0.19283 0.51546 0.0
H324 H 0.26598 0.1421 0.48372 0.0
H325 H 0.22862 0.13647 0.58988 0.0
C326 C 0.31424 0.15316 0.6085 0.0
C327 C 0.36481 0.16824 0.60076 0.0
C328 C 0.22732 0.15224 0.49061 0.0
C329 C 0.27252 0.15191 0.55045 0.0
C330 C 0.18227 0.16605 0.4661 0.0
C331 C 0.13281 0.18289 0.47455 0.0
C332 C 0.22284 0.15489 0.5238 0.0
C333 C 0.1287 0.18091 0.50784 0.0
C334 C 0.26798 0.14523 0.58343 0.0
C335 C 0.3685 0.17068 0.56744 0.0
N336 N 0.17339 0.16792 0.53132 0.0
N337 N 0.32281 0.16322 0.5435 0.0
H338 H 0.93661 0.80973 0.55974 0.0
H339 H 0.6193 0.8142 0.48547 0.0
H340 H 0.81527 0.83577 0.61974 0.0
H341 H 0.74145 0.84159 0.42619 0.0
H342 H 0.68975 0.8302 0.53502 0.0
H343 H 0.86668 0.82941 0.51067 0.0
C344 C 0.89556 0.82062 0.56266 0.0
C345 C 0.88164 0.82041 0.59387 0.0
C346 C 0.70092 0.8338 0.51115 0.0
C347 C 0.8011 0.84199 0.53776 0.0
C348 C 0.66066 0.82467 0.48284 0.0
C349 C 0.67461 0.82588 0.45164 0.0
C350 C 0.75573 0.84318 0.50829 0.0
C351 C 0.72884 0.8399 0.44972 0.0
C352 C 0.8556 0.83187 0.53463 0.0
C353 C 0.82783 0.83511 0.59618 0.0
N354 N 0.76767 0.84692 0.47767 0.0
N355 N 0.78925 0.84424 0.56845 0.0
H356 H 0.80603 0.65581 0.13282 0.0
H357 H 0.7019 0.67829 0.93839 0.0
H358 H 0.91174 0.69102 0.0644 0.0
H359 H 0.59602 0.69168 1.00909 0.0
H360 H 0.77828 0.65437 0.98298 0.0
H361 H 0.72968 0.64026 0.08635 0.0
C362 C 0.81364 0.65905 0.10805 0.0
C363 C 0.8652 0.67585 0.10252 0.0
C364 C 0.73806 0.66158 0.98861 0.0
C365 C 0.77775 0.65823 0.04927 0.0
C366 C 0.69427 0.67505 0.96315 0.0
C367 C 0.64262 0.68814 0.97008 0.0
C368 C 0.73013 0.66086 1.02121 0.0
C369 C 0.63529 0.68275 1.00265 0.0
C370 C 0.76986 0.65039 0.08153 0.0
C371 C 0.87252 0.67896 0.06984 0.0
N372 N 0.67877 0.67025 0.02708 0.0
N373 N 0.82907 0.671 0.04444 0.0
H374 H 0.42821 0.30541 0.05695 0.0
H375 H 0.11295 0.31426 0.97848 0.0
H376 H 0.30386 0.33816 0.11392 0.0
H377 H 0.23816 0.33296 0.92038 0.0
H378 H 0.18213 0.33253 0.02821 0.0
H379 H 0.36092 0.32495 1.00665 0.0
C380 C 0.38713 0.31777 0.05897 0.0
C381 C 0.37143 0.31915 0.08969 0.0
C382 C 0.19433 0.33377 1.00454 0.0
C383 C 0.29399 0.34074 0.03218 0.0
C384 C 0.15478 0.32334 0.97614 0.0
C385 C 0.16993 0.32147 0.9453 0.0
C386 C 0.24967 0.34122 1.00218 0.0
C387 C 0.22469 0.33379 0.94368 0.0
C388 C 0.34868 0.32893 0.03021 0.0
C389 C 0.3177 0.33583 0.09077 0.0
N390 N 0.26286 0.342 0.9718 0.0
N391 N 0.28064 0.34491 0.06242 0.0
loop_
_geom_bond_atom_site_label_1
_geom_bond_atom_site_label_2
_geom_bond_distance
_geom_bond_site_symmetry_2
_ccdc_geom_bond_type
Mg0 O7 2.141 1_455 S
Mg0 O8 2.048 . S
Mg0 O9 2.048 . S
Mg0 O12 2.141 . S
C1 O2 1.313 . S
C1 O8 1.195 . S
O2 C1 1.313 . S
C3 O4 1.245 . S
C3 O12 1.289 1_655 S
O4 C3 1.245 . S
C5 O6 1.245 . S
C5 O7 1.289 . S
O6 C5 1.245 . S
O7 Mg0 2.141 1_655 S
O7 C5 1.289 . S
O8 Mg0 2.048 . S
O8 C1 1.195 . S
O9 Mg0 2.048 . S
O9 C10 1.195 . S
C10 O9 1.195 . S
C10 O11 1.313 . S
O11 C10 1.313 . S
O12 Mg0 2.141 . S
O12 C3 1.289 1_455 S
Mg13 O20 2.141 . S
Mg13 O21 2.048 . S
Mg13 O22 2.048 . S
Mg13 O25 2.141 . S
C14 O15 1.313 . S
C14 O21 1.195 . S
O15 C14 1.313 . S
C16 O17 1.245 . S
C16 O25 1.289 . S
O17 C16 1.245 . S
C18 O19 1.245 . S
C18 O20 1.289 . S
O19 C18 1.245 . S
O20 Mg13 2.141 . S
O20 C18 1.289 . S
O21 Mg13 2.048 . S
O21 C14 1.195 . S
O22 Mg13 2.048 . S
O22 C23 1.195 . S
C23 O22 1.195 . S
C23 O24 1.313 . S
O24 C23 1.313 . S
O25 Mg13 2.141 . S
O25 C16 1.289 . S
Mg26 O33 2.141 1_655 S
Mg26 O34 2.048 . S
Mg26 O35 2.048 . S
Mg26 O38 2.135 1_655 S
C27 O28 1.313 . S
C27 O34 1.195 . S
O28 C27 1.313 . S
C29 O30 1.245 1_455 S
C29 O38 1.290 . S
O30 C29 1.245 1_655 S
C31 O32 1.245 . S
C31 O33 1.289 . S
O32 C31 1.245 . S
O33 Mg26 2.141 1_455 S
O33 C31 1.289 . S
O34 Mg26 2.048 . S
O34 C27 1.195 . S
O35 Mg26 2.048 . S
O35 C36 1.195 . S
C36 O35 1.195 . S
C36 O37 1.313 . S
O37 C36 1.313 . S
O38 Mg26 2.135 1_455 S
O38 C29 1.290 . S
Mg39 O46 2.141 . S
Mg39 O47 2.048 . S
Mg39 O48 2.048 . S
Mg39 O51 2.141 . S
C40 O41 1.313 . S
C40 O47 1.195 . S
O41 C40 1.313 . S
C42 O43 1.245 . S
C42 O51 1.289 . S
O43 C42 1.245 . S
C44 O45 1.245 . S
C44 O46 1.289 . S
O45 C44 1.245 . S
O46 Mg39 2.141 . S
O46 C44 1.289 . S
O47 Mg39 2.048 . S
O47 C40 1.195 . S
O48 Mg39 2.048 . S
O48 C49 1.195 . S
C49 O48 1.195 . S
C49 O50 1.313 . S
O50 C49 1.313 . S
O51 Mg39 2.141 . S
O51 C42 1.289 . S
Mg52 O59 2.141 . S
Mg52 O60 2.048 . S
Mg52 O61 2.048 . S
Mg52 O64 2.141 . S
C53 O54 1.313 . S
C53 O60 1.195 . S
O54 C53 1.313 . S
C55 O56 1.245 . S
C55 O64 1.289 . S
O56 C55 1.245 . S
C57 O58 1.245 . S
C57 O59 1.289 . S
O58 C57 1.245 . S
O59 Mg52 2.141 . S
O59 C57 1.289 . S
O60 Mg52 2.048 . S
O60 C53 1.195 . S
O61 Mg52 2.048 . S
O61 C62 1.195 . S
C62 O61 1.195 . S
C62 O63 1.313 . S
O63 C62 1.313 . S
O64 Mg52 2.141 . S
O64 C55 1.289 . S
Mg65 O72 2.141 1_655 S
Mg65 O73 2.048 . S
Mg65 O74 2.048 . S
Mg65 O77 2.141 . S
C66 O67 1.313 . S
C66 O73 1.195 . S
O67 C66 1.313 . S
C68 O69 1.245 . S
C68 O77 1.289 1_455 S
O69 C68 1.245 . S
C70 O71 1.245 . S
C70 O72 1.289 . S
O71 C70 1.245 . S
O72 Mg65 2.141 1_455 S
O72 C70 1.289 . S
O73 Mg65 2.048 . S
O73 C66 1.195 . S
O74 Mg65 2.048 . S
O74 C75 1.195 . S
C75 O74 1.195 . S
C75 O76 1.313 . S
O76 C75 1.313 . S
O77 Mg65 2.141 . S
O77 C68 1.289 1_655 S
Mg78 O85 2.141 . S
Mg78 O86 2.048 . S
Mg78 O87 2.048 . S
Mg78 O90 2.141 . S
C79 O80 1.313 . S
C79 O86 1.195 . S
O80 C79 1.313 . S
C81 O82 1.245 . S
C81 O90 1.289 . S
O82 C81 1.245 . S
C83 O84 1.245 . S
C83 O85 1.289 . S
O84 C83 1.245 . S
O85 Mg78 2.141 . S
O85 C83 1.289 . S
O86 Mg78 2.048 . S
O86 C79 1.195 . S
O87 Mg78 2.048 . S
O87 C88 1.195 . S
C88 O87 1.195 . S
C88 O89 1.313 . S
O89 C88 1.313 . S
O90 Mg78 2.141 . S
O90 C81 1.289 . S
Mg91 O98 2.141 1_455 S
Mg91 O99 2.048 . S
Mg91 O100 2.048 . S
Mg91 O103 2.135 1_455 S
C92 O93 1.313 . S
C92 O99 1.195 . S
O93 C92 1.313 . S
C94 O95 1.245 1_655 S
C94 O103 1.290 . S
O95 C94 1.245 1_455 S
C96 O97 1.245 . S
C96 O98 1.289 . S
O97 C96 1.245 . S
O98 Mg91 2.141 1_655 S
O98 C96 1.289 . S
O99 Mg91 2.048 . S
O99 C92 1.195 . S
O100 Mg91 2.048 . S
O100 C101 1.195 . S
C101 O100 1.195 . S
C101 O102 1.313 . S
O102 C101 1.313 . S
O103 Mg91 2.135 1_655 S
O103 C94 1.290 . S
H104 C110 0.930 . S
H105 C114 0.930 . S
H106 C119 0.929 . S
H107 C117 0.929 . S
H108 C112 0.929 . S
H109 C118 0.929 . S
C110 H104 0.930 . S
C110 C111 1.367 . S
C110 C118 1.378 . S
C111 C110 1.367 . S
C111 C119 1.433 1_655 S
C112 H108 0.929 . S
C112 C114 1.378 . S
C112 C116 1.350 . S
C113 C116 1.463 1_655 S
C113 C118 1.350 . S
C113 N121 1.427 1_655 S
C114 H105 0.930 . S
C114 C112 1.378 . S
C114 C115 1.367 . S
C115 C114 1.367 . S
C115 C117 1.433 1_455 S
C116 C112 1.350 . S
C116 C113 1.463 1_455 S
C116 N120 1.427 1_455 S
C117 H107 0.929 . S
C117 C115 1.433 1_655 S
C117 N120 1.384 . S
C118 H109 0.929 . S
C118 C110 1.378 . S
C118 C113 1.350 . S
C119 H106 0.929 . S
C119 C111 1.433 1_455 S
C119 N121 1.384 . S
N120 C116 1.427 1_655 S
N120 C117 1.384 . S
N121 C113 1.427 1_455 S
N121 C119 1.384 . S
H122 C128 0.930 . S
H123 C132 0.930 . S
H124 C137 0.929 . S
H125 C135 0.929 . S
H126 C130 0.929 . S
H127 C136 0.929 . S
C128 H122 0.930 . S
C128 C129 1.367 . S
C128 C136 1.378 . S
C129 C128 1.367 . S
C129 C137 1.433 . S
C130 H126 0.929 . S
C130 C132 1.378 . S
C130 C134 1.350 . S
C131 C134 1.463 . S
C131 C136 1.350 . S
C131 N139 1.427 . S
C132 H123 0.930 . S
C132 C130 1.378 . S
C132 C133 1.367 . S
C133 C132 1.367 . S
C133 C135 1.433 . S
C134 C130 1.350 . S
C134 C131 1.463 . S
C134 N138 1.427 . S
C135 H125 0.929 . S
C135 C133 1.433 . S
C135 N138 1.384 . S
C136 H127 0.929 . S
C136 C128 1.378 . S
C136 C131 1.350 . S
C137 H124 0.929 . S
C137 C129 1.433 . S
C137 N139 1.384 . S
N138 C134 1.427 . S
N138 C135 1.384 . S
N139 C131 1.427 . S
N139 C137 1.384 . S
H140 C146 0.930 . S
H141 C150 0.930 . S
H142 C155 0.929 . S
H143 C153 0.929 . S
H144 C148 0.937 . S
H145 C154 0.937 . S
C146 H140 0.930 . S
C146 C147 1.367 . S
C146 C154 1.378 . S
C147 C146 1.367 . S
C147 C155 1.433 . S
C148 H144 0.937 . S
C148 C150 1.378 . S
C148 C152 1.350 . S
C149 C152 1.463 1_544 S
C149 C154 1.350 . S
C149 N157 1.427 . S
C150 H141 0.930 . S
C150 C148 1.378 . S
C150 C151 1.367 . S
C151 C150 1.367 . S
C151 C153 1.433 . S
C152 C148 1.350 . S
C152 C149 1.463 1_566 S
C152 N156 1.427 . S
C153 H143 0.929 . S
C153 C151 1.433 . S
C153 N156 1.384 . S
C154 H145 0.937 . S
C154 C146 1.378 . S
C154 C149 1.350 . S
C155 H142 0.929 . S
C155 C147 1.433 . S
C155 N157 1.384 . S
N156 C152 1.427 . S
N156 C153 1.384 . S
N157 C149 1.427 . S
N157 C155 1.384 . S
H158 C164 0.930 . S
H159 C168 0.930 . S
H160 C173 0.929 . S
H161 C171 0.929 . S
H162 C166 0.925 1_554 S
H163 C172 0.925 1_556 S
C164 H158 0.930 . S
C164 C165 1.367 1_655 S
C164 C172 1.378 . S
C165 C164 1.367 1_455 S
C165 C173 1.433 . S
C166 H162 0.925 1_556 S
C166 C168 1.378 . S
C166 C170 1.350 1_455 S
C167 C170 1.463 1_464 S
C167 C172 1.350 1_455 S
C167 N175 1.427 . S
C168 H159 0.930 . S
C168 C166 1.378 . S
C168 C169 1.367 1_455 S
C169 C168 1.367 1_655 S
C169 C171 1.433 . S
C170 C166 1.350 1_655 S
C170 C167 1.463 1_646 S
C170 N174 1.427 . S
C171 H161 0.929 . S
C171 C169 1.433 . S
C171 N174 1.384 . S
C172 H163 0.925 1_554 S
C172 C164 1.378 . S
C172 C167 1.350 1_655 S
C173 H160 0.929 . S
C173 C165 1.433 . S
C173 N175 1.384 . S
N174 C170 1.427 . S
N174 C171 1.384 . S
N175 C167 1.427 . S
N175 C173 1.384 . S
H176 C182 0.930 . S
H177 C186 0.930 . S
H178 C191 0.929 . S
H179 C189 0.929 . S
H180 C184 0.929 . S
H181 C190 0.929 . S
C182 H176 0.930 . S
C182 C183 1.367 . S
C182 C190 1.378 . S
C183 C182 1.367 . S
C183 C191 1.433 . S
C184 H180 0.929 . S
C184 C186 1.378 . S
C184 C188 1.350 . S
C185 C188 1.463 . S
C185 C190 1.350 . S
C185 N193 1.427 . S
C186 H177 0.930 . S
C186 C184 1.378 . S
C186 C187 1.367 . S
C187 C186 1.367 . S
C187 C189 1.433 . S
C188 C184 1.350 . S
C188 C185 1.463 . S
C188 N192 1.427 . S
C189 H179 0.929 . S
C189 C187 1.433 . S
C189 N192 1.384 . S
C190 H181 0.929 . S
C190 C182 1.378 . S
C190 C185 1.350 . S
C191 H178 0.929 . S
C191 C183 1.433 . S
C191 N193 1.384 . S
N192 C188 1.427 . S
N192 C189 1.384 . S
N193 C185 1.427 . S
N193 C191 1.384 . S
H194 C200 0.930 . S
H195 C204 0.930 . S
H196 C209 0.929 . S
H197 C207 0.929 . S
H198 C202 0.929 . S
H199 C208 0.929 . S
C200 H194 0.930 . S
C200 C201 1.367 . S
C200 C208 1.378 . S
C201 C200 1.367 . S
C201 C209 1.433 . S
C202 H198 0.929 . S
C202 C204 1.378 . S
C202 C206 1.350 . S
C203 C206 1.463 . S
C203 C208 1.350 . S
C203 N211 1.427 . S
C204 H195 0.930 . S
C204 C202 1.378 . S
C204 C205 1.367 . S
C205 C204 1.367 . S
C205 C207 1.433 . S
C206 C202 1.350 . S
C206 C203 1.463 . S
C206 N210 1.427 . S
C207 H197 0.929 . S
C207 C205 1.433 . S
C207 N210 1.384 . S
C208 H199 0.929 . S
C208 C200 1.378 . S
C208 C203 1.350 . S
C209 H196 0.929 . S
C209 C201 1.433 . S
C209 N211 1.384 . S
N210 C206 1.427 . S
N210 C207 1.384 . S
N211 C203 1.427 . S
N211 C209 1.384 . S
H212 C218 0.930 . S
H213 C222 0.930 . S
H214 C227 0.929 . S
H215 C225 0.929 . S
H216 C220 0.929 . S
H217 C226 0.929 . S
C218 H212 0.930 . S
C218 C219 1.367 . S
C218 C226 1.378 . S
C219 C218 1.367 . S
C219 C227 1.433 . S
C220 H216 0.929 . S
C220 C222 1.378 . S
C220 C224 1.350 . S
C221 C224 1.463 . S
C221 C226 1.350 . S
C221 N229 1.427 . S
C222 H213 0.930 . S
C222 C220 1.378 . S
C222 C223 1.367 . S
C223 C222 1.367 . S
C223 C225 1.433 . S
C224 C220 1.350 . S
C224 C221 1.463 . S
C224 N228 1.427 . S
C225 H215 0.929 . S
C225 C223 1.433 . S
C225 N228 1.384 . S
C226 H217 0.929 . S
C226 C218 1.378 . S
C226 C221 1.350 . S
C227 H214 0.929 . S
C227 C219 1.433 . S
C227 N229 1.384 . S
N228 C224 1.427 . S
N228 C225 1.384 . S
N229 C221 1.427 . S
N229 C227 1.384 . S
H230 C236 0.930 . S
H231 C240 0.930 . S
H232 C245 0.929 . S
H233 C243 0.929 . S
H234 C238 0.929 . S
H235 C244 0.929 . S
C236 H230 0.930 . S
C236 C237 1.367 . S
C236 C244 1.378 . S
C237 C236 1.367 . S
C237 C245 1.433 . S
C238 H234 0.929 . S
C238 C240 1.378 . S
C238 C242 1.350 . S
C239 C242 1.463 . S
C239 C244 1.350 . S
C239 N247 1.427 . S
C240 H231 0.930 . S
C240 C238 1.378 . S
C240 C241 1.367 . S
C241 C240 1.367 . S
C241 C243 1.433 . S
C242 C238 1.350 . S
C242 C239 1.463 . S
C242 N246 1.427 . S
C243 H233 0.929 . S
C243 C241 1.433 . S
C243 N246 1.384 . S
C244 H235 0.929 . S
C244 C236 1.378 . S
C244 C239 1.350 . S
C245 H232 0.929 . S
C245 C237 1.433 . S
C245 N247 1.384 . S
N246 C242 1.427 . S
N246 C243 1.384 . S
N247 C239 1.427 . S
N247 C245 1.384 . S
H248 C254 0.930 . S
H249 C258 0.930 . S
H250 C263 0.929 . S
H251 C261 0.929 . S
H252 C256 0.929 . S
H253 C262 0.929 . S
C254 H248 0.930 . S
C254 C255 1.367 . S
C254 C262 1.378 . S
C255 C254 1.367 . S
C255 C263 1.433 . S
C256 H252 0.929 . S
C256 C258 1.378 . S
C256 C260 1.350 . S
C257 C260 1.463 . S
C257 C262 1.350 . S
C257 N265 1.427 . S
C258 H249 0.930 . S
C258 C256 1.378 . S
C258 C259 1.367 . S
C259 C258 1.367 . S
C259 C261 1.433 . S
C260 C256 1.350 . S
C260 C257 1.463 . S
C260 N264 1.427 . S
C261 H251 0.929 . S
C261 C259 1.433 . S
C261 N264 1.384 . S
C262 H253 0.929 . S
C262 C254 1.378 . S
C262 C257 1.350 . S
C263 H250 0.929 . S
C263 C255 1.433 . S
C263 N265 1.384 . S
N264 C260 1.427 . S
N264 C261 1.384 . S
N265 C257 1.427 . S
N265 C263 1.384 . S
H266 C272 0.930 . S
H267 C276 0.930 . S
H268 C281 0.929 . S
H269 C279 0.929 . S
H270 C274 0.929 . S
H271 C280 0.929 . S
C272 H266 0.930 . S
C272 C273 1.367 . S
C272 C280 1.378 . S
C273 C272 1.367 . S
C273 C281 1.433 . S
C274 H270 0.929 . S
C274 C276 1.378 . S
C274 C278 1.350 . S
C275 C278 1.463 . S
C275 C280 1.350 . S
C275 N283 1.427 . S
C276 H267 0.930 . S
C276 C274 1.378 . S
C276 C277 1.367 . S
C277 C276 1.367 . S
C277 C279 1.433 . S
C278 C274 1.350 . S
C278 C275 1.463 . S
C278 N282 1.427 . S
C279 H269 0.929 . S
C279 C277 1.433 . S
C279 N282 1.384 . S
C280 H271 0.929 . S
C280 C272 1.378 . S
C280 C275 1.350 . S
C281 H268 0.929 . S
C281 C273 1.433 . S
C281 N283 1.384 . S
N282 C278 1.427 . S
N282 C279 1.384 . S
N283 C275 1.427 . S
N283 C281 1.384 . S
H284 C290 0.930 . S
H285 C294 0.930 . S
H286 C299 0.929 . S
H287 C297 0.929 . S
H288 C292 0.929 . S
H289 C298 0.929 . S
C290 H284 0.930 . S
C290 C291 1.367 . S
C290 C298 1.378 . S
C291 C290 1.367 . S
C291 C299 1.433 . S
C292 H288 0.929 . S
C292 C294 1.378 . S
C292 C296 1.350 . S
C293 C296 1.463 . S
C293 C298 1.350 . S
C293 N301 1.427 . S
C294 H285 0.930 . S
C294 C292 1.378 . S
C294 C295 1.367 . S
C295 C294 1.367 . S
C295 C297 1.433 . S
C296 C292 1.350 . S
C296 C293 1.463 . S
C296 N300 1.427 . S
C297 H287 0.929 . S
C297 C295 1.433 . S
C297 N300 1.384 . S
C298 H289 0.929 . S
C298 C290 1.378 . S
C298 C293 1.350 . S
C299 H286 0.929 . S
C299 C291 1.433 . S
C299 N301 1.384 . S
N300 C296 1.427 . S
N300 C297 1.384 . S
N301 C293 1.427 . S
N301 C299 1.384 . S
H302 C308 0.930 . S
H303 C312 0.930 . S
H304 C317 0.929 . S
H305 C315 0.929 . S
H306 C310 0.929 . S
H307 C316 0.929 . S
C308 H302 0.930 . S
C308 C309 1.367 . S
C308 C316 1.378 . S
C309 C308 1.367 . S
C309 C317 1.433 . S
C310 H306 0.929 . S
C310 C312 1.378 . S
C310 C314 1.350 . S
C311 C314 1.463 . S
C311 C316 1.350 . S
C311 N319 1.427 . S
C312 H303 0.930 . S
C312 C310 1.378 . S
C312 C313 1.367 . S
C313 C312 1.367 . S
C313 C315 1.433 . S
C314 C310 1.350 . S
C314 C311 1.463 . S
C314 N318 1.427 . S
C315 H305 0.929 . S
C315 C313 1.433 . S
C315 N318 1.384 . S
C316 H307 0.929 . S
C316 C308 1.378 . S
C316 C311 1.350 . S
C317 H304 0.929 . S
C317 C309 1.433 . S
C317 N319 1.384 . S
N318 C314 1.427 . S
N318 C315 1.384 . S
N319 C311 1.427 . S
N319 C317 1.384 . S
H320 C326 0.930 . S
H321 C330 0.930 . S
H322 C335 0.929 . S
H323 C333 0.929 . S
H324 C328 0.929 . S
H325 C334 0.929 . S
C326 H320 0.930 . S
C326 C327 1.367 . S
C326 C334 1.378 . S
C327 C326 1.367 . S
C327 C335 1.433 . S
C328 H324 0.929 . S
C328 C330 1.378 . S
C328 C332 1.350 . S
C329 C332 1.463 . S
C329 C334 1.350 . S
C329 N337 1.427 . S
C330 H321 0.930 . S
C330 C328 1.378 . S
C330 C331 1.367 . S
C331 C330 1.367 . S
C331 C333 1.433 . S
C332 C328 1.350 . S
C332 C329 1.463 . S
C332 N336 1.427 . S
C333 H323 0.929 . S
C333 C331 1.433 . S
C333 N336 1.384 . S
C334 H325 0.929 . S
C334 C326 1.378 . S
C334 C329 1.350 . S
C335 H322 0.929 . S
C335 C327 1.433 . S
C335 N337 1.384 . S
N336 C332 1.427 . S
N336 C333 1.384 . S
N337 C329 1.427 . S
N337 C335 1.384 . S
H338 C344 0.930 . S
H339 C348 0.930 . S
H340 C353 0.929 . S
H341 C351 0.929 . S
H342 C346 0.929 . S
H343 C352 0.929 . S
C344 H338 0.930 . S
C344 C345 1.367 . S
C344 C352 1.378 . S
C345 C344 1.367 . S
C345 C353 1.433 . S
C346 H342 0.929 . S
C346 C348 1.378 . S
C346 C350 1.350 . S
C347 C350 1.463 . S
C347 C352 1.350 . S
C347 N355 1.427 . S
C348 H339 0.930 . S
C348 C346 1.378 . S
C348 C349 1.367 . S
C349 C348 1.367 . S
C349 C351 1.433 . S
C350 C346 1.350 . S
C350 C347 1.463 . S
C350 N354 1.427 . S
C351 H341 0.929 . S
C351 C349 1.433 . S
C351 N354 1.384 . S
C352 H343 0.929 . S
C352 C344 1.378 . S
C352 C347 1.350 . S
C353 H340 0.929 . S
C353 C345 1.433 . S
C353 N355 1.384 . S
N354 C350 1.427 . S
N354 C351 1.384 . S
N355 C347 1.427 . S
N355 C353 1.384 . S
H356 C362 0.930 . S
H357 C366 0.930 . S
H358 C371 0.929 . S
H359 C369 0.929 . S
H360 C364 0.929 . S
H361 C370 0.929 . S
C362 H356 0.930 . S
C362 C363 1.367 . S
C362 C370 1.378 . S
C363 C362 1.367 . S
C363 C371 1.433 . S
C364 H360 0.929 . S
C364 C366 1.378 . S
C364 C368 1.350 . S
C365 C368 1.463 1_554 S
C365 C370 1.350 . S
C365 N373 1.427 . S
C366 H357 0.930 . S
C366 C364 1.378 . S
C366 C367 1.367 . S
C367 C366 1.367 . S
C367 C369 1.433 . S
C368 C364 1.350 . S
C368 C365 1.463 1_556 S
C368 N372 1.427 . S
C369 H359 0.929 . S
C369 C367 1.433 . S
C369 N372 1.384 . S
C370 H361 0.929 . S
C370 C362 1.378 . S
C370 C365 1.350 . S
C371 H358 0.929 . S
C371 C363 1.433 . S
C371 N373 1.384 . S
N372 C368 1.427 . S
N372 C369 1.384 . S
N373 C365 1.427 . S
N373 C371 1.384 . S
H374 C380 0.930 . S
H375 C384 0.930 . S
H376 C389 0.929 . S
H377 C387 0.929 . S
H378 C382 0.929 . S
H379 C388 0.929 . S
C380 H374 0.930 . S
C380 C381 1.367 . S
C380 C388 1.378 . S
C381 C380 1.367 . S
C381 C389 1.433 . S
C382 H378 0.929 . S
C382 C384 1.378 . S
C382 C386 1.350 . S
C383 C386 1.463 1_554 S
C383 C388 1.350 . S
C383 N391 1.427 . S
C384 H375 0.930 . S
C384 C382 1.378 . S
C384 C385 1.367 . S
C385 C384 1.367 . S
C385 C387 1.433 . S
C386 C382 1.350 . S
C386 C383 1.463 1_556 S
C386 N390 1.427 . S
C387 H377 0.929 . S
C387 C385 1.433 . S
C387 N390 1.384 . S
C388 H379 0.929 . S
C388 C380 1.378 . S
C388 C383 1.350 . S
C389 H376 0.929 . S
C389 C381 1.433 . S
C389 N391 1.384 . S
N390 C386 1.427 . S
N390 C387 1.384 . S
N391 C383 1.427 . S
N391 C389 1.384 . S
C111 C3 1.949 . S
C115 C29 1.822 . S
C129 C42 1.814 . S
C133 C16 1.943 . S
C147 C81 1.814 . S
C151 C55 1.943 . S
C165 C68 1.943 . S
C169 C94 1.818 . S
C183 C83 2.034 . S
C187 C5 1.986 . S
C201 C18 1.986 . S
C205 C96 2.034 . S
C219 C31 2.036 . S
C223 C57 1.993 . S
C237 C44 2.034 . S
C241 C70 1.986 . S
C255 C79 2.162 . S
C259 C1 2.266 . S
C273 C14 2.269 . S
C277 C92 2.166 . S
C291 C53 2.263 . S
C295 C27 2.158 . S
C309 C66 2.263 . S
C313 C40 2.159 . S
C327 C23 0.546 . S
C331 C10 0.560 . S
C345 C36 0.528 . S
C349 C49 0.520 . S
C363 C75 0.563 . S
C367 C62 0.564 . S
C381 C88 0.526 . S
C385 C101 0.519 . S
