# Generated by pormake.
# Topology fca, (5)-cn, num edge types: 1
# Building blocks:
#     Node 0, Type 0, BuildingBlock: BEQFEK_clean_sbu_0, # of connection points: 5
#     Node 1, Type 0, BuildingBlock: BEQFEK_clean_sbu_0, # of connection points: 5
#     Node 2, Type 0, BuildingBlock: BEQFEK_clean_sbu_0, # of connection points: 5
#     Node 3, Type 0, BuildingBlock: BEQFEK_clean_sbu_0, # of connection points: 5
#     Node 4, Type 0, BuildingBlock: BEQFEK_clean_sbu_0, # of connection points: 5
#     Node 5, Type 0, BuildingBlock: BEQFEK_clean_sbu_0, # of connection points: 5
#     Node 6, Type 0, BuildingBlock: BEQFEK_clean_sbu_0, # of connection points: 5
#     Node 7, Type 0, BuildingBlock: BEQFEK_clean_sbu_0, # of connection points: 5
#     Node 8, Type 0, BuildingBlock: BEQFEK_clean_sbu_0, # of connection points: 5
#     Node 9, Type 0, BuildingBlock: BEQFEK_clean_sbu_0, # of connection points: 5
#     Node 10, Type 0, BuildingBlock: BEQFEK_clean_sbu_0, # of connection points: 5
#     Node 11, Type 0, BuildingBlock: BEQFEK_clean_sbu_0, # of connection points: 5
#     Node 12, Type 0, BuildingBlock: BEQFEK_clean_sbu_0, # of connection points: 5
#     Node 13, Type 0, BuildingBlock: BEQFEK_clean_sbu_0, # of connection points: 5
#     Node 14, Type 0, BuildingBlock: BEQFEK_clean_sbu_0, # of connection points: 5
#     Node 15, Type 0, BuildingBlock: BEQFEK_clean_sbu_0, # of connection points: 5
#     Node 16, Type 0, BuildingBlock: BEQFEK_clean_sbu_0, # of connection points: 5
#     Node 17, Type 0, BuildingBlock: BEQFEK_clean_sbu_0, # of connection points: 5
#     Node 18, Type 0, BuildingBlock: BEQFEK_clean_sbu_0, # of connection points: 5
#     Node 19, Type 0, BuildingBlock: BEQFEK_clean_sbu_0, # of connection points: 5
#     Node 20, Type 0, BuildingBlock: BEQFEK_clean_sbu_0, # of connection points: 5
#     Node 21, Type 0, BuildingBlock: BEQFEK_clean_sbu_0, # of connection points: 5
#     Node 22, Type 0, BuildingBlock: BEQFEK_clean_sbu_0, # of connection points: 5
#     Node 23, Type 0, BuildingBlock: BEQFEK_clean_sbu_0, # of connection points: 5
#     Edge 24, Type (0, 0), BuildingBlock: KIFKEQ_clean_linker_1, # of connection points: 2
#     Edge 25, Type (0, 0), BuildingBlock: KIFKEQ_clean_linker_1, # of connection points: 2
#     Edge 26, Type (0, 0), BuildingBlock: KIFKEQ_clean_linker_1, # of connection points: 2
#     Edge 27, Type (0, 0), BuildingBlock: KIFKEQ_clean_linker_1, # of connection points: 2
#     Edge 28, Type (0, 0), BuildingBlock: KIFKEQ_clean_linker_1, # of connection points: 2
#     Edge 29, Type (0, 0), BuildingBlock: KIFKEQ_clean_linker_1, # of connection points: 2
#     Edge 30, Type (0, 0), BuildingBlock: KIFKEQ_clean_linker_1, # of connection points: 2
#     Edge 31, Type (0, 0), BuildingBlock: KIFKEQ_clean_linker_1, # of connection points: 2
#     Edge 32, Type (0, 0), BuildingBlock: KIFKEQ_clean_linker_1, # of connection points: 2
#     Edge 33, Type (0, 0), BuildingBlock: KIFKEQ_clean_linker_1, # of connection points: 2
#     Edge 34, Type (0, 0), BuildingBlock: KIFKEQ_clean_linker_1, # of connection points: 2
#     Edge 35, Type (0, 0), BuildingBlock: KIFKEQ_clean_linker_1, # of connection points: 2
#     Edge 36, Type (0, 0), BuildingBlock: KIFKEQ_clean_linker_1, # of connection points: 2
#     Edge 37, Type (0, 0), BuildingBlock: KIFKEQ_clean_linker_1, # of connection points: 2
#     Edge 38, Type (0, 0), BuildingBlock: KIFKEQ_clean_linker_1, # of connection points: 2
#     Edge 39, Type (0, 0), BuildingBlock: KIFKEQ_clean_linker_1, # of connection points: 2
#     Edge 40, Type (0, 0), BuildingBlock: KIFKEQ_clean_linker_1, # of connection points: 2
#     Edge 41, Type (0, 0), BuildingBlock: KIFKEQ_clean_linker_1, # of connection points: 2
#     Edge 42, Type (0, 0), BuildingBlock: KIFKEQ_clean_linker_1, # of connection points: 2
#     Edge 43, Type (0, 0), BuildingBlock: KIFKEQ_clean_linker_1, # of connection points: 2
#     Edge 44, Type (0, 0), BuildingBlock: KIFKEQ_clean_linker_1, # of connection points: 2
#     Edge 45, Type (0, 0), BuildingBlock: KIFKEQ_clean_linker_1, # of connection points: 2
#     Edge 46, Type (0, 0), BuildingBlock: KIFKEQ_clean_linker_1, # of connection points: 2
#     Edge 47, Type (0, 0), BuildingBlock: KIFKEQ_clean_linker_1, # of connection points: 2
#     Edge 48, Type (0, 0), BuildingBlock: KIFKEQ_clean_linker_1, # of connection points: 2
#     Edge 49, Type (0, 0), BuildingBlock: KIFKEQ_clean_linker_1, # of connection points: 2
#     Edge 50, Type (0, 0), BuildingBlock: KIFKEQ_clean_linker_1, # of connection points: 2
#     Edge 51, Type (0, 0), BuildingBlock: KIFKEQ_clean_linker_1, # of connection points: 2
#     Edge 52, Type (0, 0), BuildingBlock: KIFKEQ_clean_linker_1, # of connection points: 2
#     Edge 53, Type (0, 0), BuildingBlock: KIFKEQ_clean_linker_1, # of connection points: 2
#     Edge 54, Type (0, 0), BuildingBlock: KIFKEQ_clean_linker_1, # of connection points: 2
#     Edge 55, Type (0, 0), BuildingBlock: KIFKEQ_clean_linker_1, # of connection points: 2
#     Edge 56, Type (0, 0), BuildingBlock: KIFKEQ_clean_linker_1, # of connection points: 2
#     Edge 57, Type (0, 0), BuildingBlock: KIFKEQ_clean_linker_1, # of connection points: 2
#     Edge 58, Type (0, 0), BuildingBlock: KIFKEQ_clean_linker_1, # of connection points: 2
#     Edge 59, Type (0, 0), BuildingBlock: KIFKEQ_clean_linker_1, # of connection points: 2
#     Edge 60, Type (0, 0), BuildingBlock: KIFKEQ_clean_linker_1, # of connection points: 2
#     Edge 61, Type (0, 0), BuildingBlock: KIFKEQ_clean_linker_1, # of connection points: 2
#     Edge 62, Type (0, 0), BuildingBlock: KIFKEQ_clean_linker_1, # of connection points: 2
#     Edge 63, Type (0, 0), BuildingBlock: KIFKEQ_clean_linker_1, # of connection points: 2
#     Edge 64, Type (0, 0), BuildingBlock: KIFKEQ_clean_linker_1, # of connection points: 2
#     Edge 65, Type (0, 0), BuildingBlock: KIFKEQ_clean_linker_1, # of connection points: 2
#     Edge 66, Type (0, 0), BuildingBlock: KIFKEQ_clean_linker_1, # of connection points: 2
#     Edge 67, Type (0, 0), BuildingBlock: KIFKEQ_clean_linker_1, # of connection points: 2
#     Edge 68, Type (0, 0), BuildingBlock: KIFKEQ_clean_linker_1, # of connection points: 2
#     Edge 69, Type (0, 0), BuildingBlock: KIFKEQ_clean_linker_1, # of connection points: 2
#     Edge 70, Type (0, 0), BuildingBlock: KIFKEQ_clean_linker_1, # of connection points: 2
#     Edge 71, Type (0, 0), BuildingBlock: KIFKEQ_clean_linker_1, # of connection points: 2
#     Edge 72, Type (0, 0), BuildingBlock: KIFKEQ_clean_linker_1, # of connection points: 2
#     Edge 73, Type (0, 0), BuildingBlock: KIFKEQ_clean_linker_1, # of connection points: 2
#     Edge 74, Type (0, 0), BuildingBlock: KIFKEQ_clean_linker_1, # of connection points: 2
#     Edge 75, Type (0, 0), BuildingBlock: KIFKEQ_clean_linker_1, # of connection points: 2
#     Edge 76, Type (0, 0), BuildingBlock: KIFKEQ_clean_linker_1, # of connection points: 2
#     Edge 77, Type (0, 0), BuildingBlock: KIFKEQ_clean_linker_1, # of connection points: 2
#     Edge 78, Type (0, 0), BuildingBlock: KIFKEQ_clean_linker_1, # of connection points: 2
#     Edge 79, Type (0, 0), BuildingBlock: KIFKEQ_clean_linker_1, # of connection points: 2
#     Edge 80, Type (0, 0), BuildingBlock: KIFKEQ_clean_linker_1, # of connection points: 2
#     Edge 81, Type (0, 0), BuildingBlock: KIFKEQ_clean_linker_1, # of connection points: 2
#     Edge 82, Type (0, 0), BuildingBlock: KIFKEQ_clean_linker_1, # of connection points: 2
#     Edge 83, Type (0, 0), BuildingBlock: KIFKEQ_clean_linker_1, # of connection points: 2
# Relax obj value: 0.497
# Max RMSD: 0.292
# Mean RMSD: 0.292
data_MOF--net-fca--node1-BEQFEK_clean_sbu_0--edge1-KIFKEQ_clean_linker_1
_symmetry_space_group_name_H-M    P1
_symmetry_Int_Tables_number       1
_symmetry_cell_setting            triclinic
loop_
_symmetry_equiv_pos_as_xyz
'x, y, z'
_cell_length_a     56.213223
_cell_length_b     56.261889
_cell_length_c     56.278712
_cell_angle_alpha  90.081691
_cell_angle_beta   90.052733
_cell_angle_gamma 89.937957
loop_
_atom_site_label
_atom_site_type_symbol
_atom_site_fract_x
_atom_site_fract_y
_atom_site_fract_z
_atom_type_partial_charge
Co0 Co 0.03696 0.39598 0.29352 0.0
Co1 Co 0.07459 0.39701 0.33368 0.0
C2 C 0.0875 0.41312 0.28442 0.0
O3 O 0.06619 0.40919 0.27779 0.0
O4 O 0.09422 0.40733 0.3053 0.0
C5 C 0.01785 0.38496 0.24732 0.0
O6 O 0.04003 0.38554 0.24002 0.0
C7 C 0.11357 0.38033 0.36406 0.0
C8 C 0.10757 0.40175 0.39643 0.0
C9 C 0.122 0.384 0.38713 0.0
N10 N 0.09497 0.39488 0.36045 0.0
N11 N 0.09172 0.4079 0.37969 0.0
C12 C 0.12291 0.36398 0.34526 0.0
H13 H 0.11473 0.34618 0.34741 0.0
H14 H 0.14254 0.36235 0.34657 0.0
H15 H 0.11797 0.37066 0.32738 0.0
C16 C 0.02315 0.35184 0.31723 0.0
N17 N 0.04 0.36842 0.313 0.0
N18 N 0.05495 0.36898 0.33096 0.0
C19 C 0.04765 0.35295 0.34745 0.0
C20 C 0.02705 0.34154 0.33936 0.0
C21 C 1.00171 0.34828 0.30185 0.0
H22 H 0.0074 0.34607 0.28311 0.0
H23 H 0.99145 0.33235 0.30725 0.0
H24 H 0.9901 0.3642 0.30303 0.0
O25 O 0.02457 0.42189 0.3137 0.0
O26 O 0.05326 0.4237 0.34082 0.0
H27 H 0.05635 0.37022 0.38021 0.0
H28 H 0.04697 0.33967 0.38361 0.0
C29 C 0.05714 0.35217 0.37229 0.0
H30 H 0.07603 0.34654 0.37188 0.0
H31 H 0.07829 0.42057 0.38163 0.0
O32 O 0.01303 0.38943 0.2689 0.0
C33 C 0.03388 0.4314 0.33204 0.0
Co34 Co 0.98071 0.63213 0.29662 0.0
Co35 Co 0.94401 0.63337 0.33751 0.0
C36 C 0.92906 0.62031 0.28753 0.0
O37 O 0.95012 0.62398 0.28003 0.0
O38 O 0.92384 0.62431 0.30922 0.0
C39 C 0.00655 0.65135 0.2563 0.0
O40 O 0.99022 0.66803 0.25516 0.0
C41 C 0.90497 0.6506 0.36782 0.0
C42 C 0.91243 0.63097 0.40097 0.0
C43 C 0.89717 0.64766 0.39114 0.0
N44 N 0.92409 0.63664 0.36447 0.0
N45 N 0.92819 0.62467 0.38421 0.0
C46 C 0.89452 0.66583 0.34869 0.0
H47 H 0.89798 0.65783 0.331 0.0
H48 H 0.90315 0.68355 0.34903 0.0
H49 H 0.87507 0.66804 0.35129 0.0
C50 C 0.99945 0.67423 0.32212 0.0
N51 N 0.98138 0.65905 0.31738 0.0
N52 N 0.96579 0.65998 0.33477 0.0
C53 C 0.97341 0.67614 0.351 0.0
C54 C 0.99509 0.68585 0.34357 0.0
C55 C 0.02279 0.67369 0.30924 0.0
H56 H 0.0277 0.65509 0.30497 0.0
H57 H 0.0211 0.68382 0.29244 0.0
H58 H 0.03738 0.68156 0.3199 0.0
O59 O 0.98988 0.60413 0.3155 0.0
O60 O 0.96298 0.60489 0.34434 0.0
H61 H 0.96364 0.66445 0.38575 0.0
H62 H 0.96888 0.69614 0.38359 0.0
C63 C 0.96144 0.68038 0.37435 0.0
H64 H 0.94217 0.68325 0.37146 0.0
H65 H 0.94212 0.61261 0.38645 0.0
O66 O 1.0051 0.63529 0.27205 0.0
C67 C 0.98079 0.59536 0.33424 0.0
Co68 Co 0.04631 0.64573 0.74486 0.0
Co69 Co 0.07564 0.63668 0.69921 0.0
C70 C 0.09659 0.62832 0.74849 0.0
O71 O 0.07789 0.63626 0.75853 0.0
O72 O 0.09836 0.6286 0.72589 0.0
C73 C 0.03102 0.65873 0.79243 0.0
O74 O 0.05308 0.65496 0.79916 0.0
C75 C 0.10981 0.64983 0.66275 0.0
C76 C 0.1026 0.62322 0.63473 0.0
C77 C 0.11635 0.643 0.63993 0.0
N78 N 0.09275 0.63506 0.67035 0.0
N79 N 0.08875 0.61896 0.65371 0.0
C80 C 0.11978 0.66953 0.67761 0.0
H81 H 0.10876 0.68573 0.67527 0.0
H82 H 0.13838 0.67356 0.67239 0.0
H83 H 0.11909 0.66462 0.69669 0.0
C84 C 0.02904 0.68664 0.7168 0.0
N85 N 0.04568 0.66967 0.72074 0.0
N86 N 0.05712 0.6654 0.70084 0.0
C87 C 0.0475 0.679 0.68342 0.0
C88 C 0.02947 0.69319 0.69296 0.0
C89 C 0.01009 0.69308 0.73431 0.0
H90 H 0.0184 0.69766 0.7516 0.0
H91 H 0.99925 0.70834 0.72805 0.0
H92 H 0.99826 0.67754 0.73704 0.0
O93 O 0.03268 0.61578 0.73175 0.0
O94 O 0.05337 0.61039 0.69855 0.0
H95 H 0.05116 0.65636 0.65301 0.0
H96 H 0.04013 0.68587 0.64621 0.0
C97 C 0.05254 0.67551 0.65753 0.0
H98 H 0.07095 0.68133 0.65365 0.0
H99 H 0.07617 0.60541 0.65508 0.0
O100 O 0.0252 0.65572 0.77084 0.0
C101 C 0.03738 0.60382 0.71306 0.0
Co102 Co 0.98931 0.38915 0.73993 0.0
Co103 Co 0.95953 0.39737 0.69425 0.0
C104 C 0.93872 0.40563 0.74352 0.0
O105 O 0.95742 0.39772 0.75362 0.0
O106 O 0.937 0.40537 0.72093 0.0
C107 C 1.00523 0.37721 0.7877 0.0
O108 O 0.98356 0.38222 0.79485 0.0
C109 C 0.92378 0.38522 0.65874 0.0
C110 C 0.93362 0.40867 0.62887 0.0
C111 C 0.91795 0.39085 0.63543 0.0
N112 N 0.94231 0.3987 0.66535 0.0
N113 N 0.94785 0.41299 0.6476 0.0
C114 C 0.91205 0.36753 0.67475 0.0
H115 H 0.92199 0.3505 0.6741 0.0
H116 H 0.89337 0.36431 0.66922 0.0
H117 H 0.91252 0.37397 0.69338 0.0
C118 C 0.00813 0.34933 0.71126 0.0
N119 N 0.99089 0.36562 0.71543 0.0
N120 N 0.9784 0.3688 0.69596 0.0
C121 C 0.98735 0.35449 0.67871 0.0
C122 C 0.00666 0.34159 0.68772 0.0
C123 C 0.02842 0.34517 0.72803 0.0
H124 H 0.03695 0.36243 0.73231 0.0
H125 H 0.02148 0.3375 0.74479 0.0
H126 H 0.04216 0.33318 0.72059 0.0
O127 O 1.00185 0.4195 0.72732 0.0
O128 O 0.98132 0.42435 0.69389 0.0
H129 H 0.98346 0.37252 0.64549 0.0
H130 H 0.98738 0.34063 0.64271 0.0
C131 C 0.97912 0.355 0.65341 0.0
H132 H 0.9596 0.35269 0.65275 0.0
H133 H 0.96179 0.42522 0.64804 0.0
O134 O 0.01058 0.37927 0.7659 0.0
C135 C 0.99684 0.43145 0.70873 0.0
Co136 Co 0.29454 0.03942 0.391 0.0
Co137 Co 0.33811 0.07278 0.39588 0.0
C138 C 0.28818 0.08992 0.40753 0.0
O139 O 0.2793 0.07003 0.40132 0.0
O140 O 0.31042 0.09372 0.40516 0.0
C141 C 0.24787 0.02172 0.37844 0.0
O142 O 0.24091 0.04401 0.37901 0.0
C143 C 0.37214 0.1084 0.3795 0.0
C144 C 0.40084 0.1048 0.40613 0.0
C145 C 0.39455 0.11686 0.38562 0.0
N146 N 0.3658 0.0919 0.39546 0.0
N147 N 0.38285 0.09005 0.41152 0.0
C148 C 0.35635 0.11636 0.35961 0.0
H149 H 0.35938 0.10495 0.34382 0.0
H150 H 0.36013 0.1351 0.35476 0.0
H151 H 0.3374 0.11443 0.3648 0.0
C152 C 0.32072 0.0233 0.34881 0.0
N153 N 0.3167 0.0403 0.36532 0.0
N154 N 0.33593 0.05339 0.36769 0.0
C155 C 0.35302 0.04462 0.35305 0.0
C156 C 0.34394 0.02517 0.34049 0.0
C157 C 0.30369 1.00358 0.34343 0.0
H158 H 0.28565 0.01102 0.34055 0.0
H159 H 0.30913 0.99351 0.32735 0.0
H160 H 0.30298 0.99128 0.3588 0.0
O161 O 0.31128 0.02685 0.41944 0.0
O162 O 0.34215 0.0513 0.42263 0.0
H163 H 0.38391 0.05289 0.37388 0.0
H164 H 0.3904 0.03781 0.34624 0.0
C165 C 0.37877 0.05118 0.35493 0.0
H166 H 0.38168 0.06858 0.34622 0.0
H167 H 0.38243 0.07837 0.42589 0.0
O168 O 0.26932 0.01651 0.3832 0.0
C169 C 0.33009 0.03375 0.43009 0.0
Co170 Co 0.74862 0.99063 0.3905 0.0
Co171 Co 0.70256 0.96062 0.39544 0.0
C172 C 0.75047 0.93941 0.40685 0.0
O173 O 0.76068 0.95849 0.40029 0.0
O174 O 0.72801 0.93723 0.40471 0.0
C175 C 0.78822 0.01007 0.36321 0.0
O176 O 0.77989 0.99866 0.34462 0.0
C177 C 0.66619 0.92533 0.38314 0.0
C178 C 0.63588 0.93745 0.40502 0.0
C179 C 0.64255 0.92051 0.38843 0.0
N180 N 0.67294 0.94447 0.39572 0.0
N181 N 0.65487 0.9514 0.40904 0.0
C182 C 0.68237 0.91183 0.36686 0.0
H183 H 0.70096 0.91277 0.37343 0.0
H184 H 0.68194 0.91996 0.34893 0.0
H185 H 0.6767 0.89299 0.36537 0.0
C186 C 0.72063 0.0115 0.35084 0.0
N187 N 0.72513 0.99321 0.36585 0.0
N188 N 0.70618 0.97954 0.36703 0.0
C189 C 0.68936 0.98836 0.35215 0.0
C190 C 0.69786 0.00902 0.34133 0.0
C191 C 0.73513 0.03383 0.35012 0.0
H192 H 0.745 0.03626 0.36698 0.0
H193 H 0.74794 0.03275 0.33518 0.0
H194 H 0.72371 0.04967 0.34724 0.0
O195 O 0.73453 1.00405 0.41953 0.0
O196 O 0.70135 0.98276 0.42239 0.0
H197 H 0.6547 0.98291 0.36677 0.0
H198 H 0.65504 0.98615 0.33476 0.0
C199 C 0.66464 0.97868 0.35027 0.0
H200 H 0.66534 0.95916 0.34825 0.0
H201 H 0.65533 0.96598 0.42052 0.0
O202 O 0.77742 0.00911 0.38301 0.0
C203 C 0.71526 0.99881 0.43021 0.0
Co204 Co 0.28763 0.98464 0.63529 0.0
Co205 Co 0.32928 0.94834 0.63614 0.0
C206 C 0.28091 0.93179 0.62324 0.0
O207 O 0.27392 0.95316 0.62585 0.0
O208 O 0.30215 0.92603 0.6288 0.0
C209 C 0.2496 0.0072 0.66129 0.0
O210 O 0.25779 0.99575 0.67989 0.0
C211 C 0.36444 0.91165 0.6501 0.0
C212 C 0.39558 0.92364 0.62942 0.0
C213 C 0.38825 0.90654 0.64551 0.0
N214 N 0.35832 0.93104 0.63753 0.0
N215 N 0.37695 0.93789 0.62501 0.0
C216 C 0.34746 0.89822 0.66551 0.0
H217 H 0.34813 0.90547 0.68383 0.0
H218 H 0.35222 0.87908 0.66604 0.0
H219 H 0.32901 0.90038 0.65886 0.0
C220 C 0.31519 1.00514 0.67494 0.0
N221 N 0.30962 0.98625 0.6611 0.0
N222 N 0.32668 0.97031 0.66258 0.0
C223 C 0.34329 0.97834 0.67817 0.0
C224 C 0.33661 1.00081 0.68662 0.0
C225 C 0.30358 0.02902 0.6725 0.0
H226 H 0.29468 0.03068 0.65501 0.0
H227 H 0.29021 0.03128 0.68681 0.0
H228 H 0.31682 0.04355 0.67422 0.0
O229 O 0.30456 0.99565 0.60696 0.0
O230 O 0.33244 0.96755 0.60701 0.0
H231 H 0.37847 0.96832 0.66787 0.0
H232 H 0.37479 0.97272 0.6995 0.0
C233 C 0.36623 0.96582 0.68312 0.0
H234 H 0.36293 0.94657 0.68529 0.0
H235 H 0.37709 0.95262 0.61376 0.0
O236 O 0.25987 1.00519 0.64128 0.0
C237 C 0.32249 0.98551 0.5975 0.0
Co238 Co 0.74642 0.04372 0.64257 0.0
Co239 Co 0.70058 0.07423 0.63745 0.0
C240 C 0.74862 0.09525 0.62677 0.0
O241 O 0.75871 0.07603 0.63326 0.0
O242 O 0.72616 0.09756 0.6287 0.0
C243 C 0.78461 0.02267 0.67082 0.0
O244 O 0.77535 0.03324 0.68946 0.0
C245 C 0.66389 0.11011 0.64798 0.0
C246 C 0.63341 0.09576 0.62775 0.0
C247 C 0.64 0.11414 0.64281 0.0
N248 N 0.67075 0.09011 0.63681 0.0
N249 N 0.65254 0.08183 0.6245 0.0
C250 C 0.68027 0.125 0.66277 0.0
H251 H 0.67966 0.1188 0.68146 0.0
H252 H 0.67492 0.14398 0.66214 0.0
H253 H 0.69884 0.12307 0.65647 0.0
C254 C 0.7172 0.02217 0.68093 0.0
N255 N 0.72238 0.04082 0.66662 0.0
N256 N 0.70386 0.0551 0.66575 0.0
C257 C 0.68678 0.0465 0.6804 0.0
C258 C 0.69451 0.02514 0.69052 0.0
C259 C 0.73086 0.99927 0.68072 0.0
H260 H 0.74133 0.99753 0.66415 0.0
H261 H 0.74306 0.99881 0.69622 0.0
H262 H 0.71873 0.98378 0.68206 0.0
O263 O 0.73286 0.03077 0.61316 0.0
O264 O 0.69984 0.05235 0.61017 0.0
H265 H 0.65172 0.05304 0.66722 0.0
H266 H 0.65356 0.05088 0.69923 0.0
C267 C 0.66266 0.05743 0.68303 0.0
H268 H 0.66433 0.07699 0.68426 0.0
H269 H 0.65304 0.06638 0.61423 0.0
O270 O 0.77492 0.0248 0.65053 0.0
C271 C 0.71377 0.03634 0.60228 0.0
Co272 Co 0.39522 0.28716 0.03721 0.0
Co273 Co 0.39441 0.32742 0.07477 0.0
C274 C 0.40803 0.27903 0.08968 0.0
O275 O 0.40583 0.27286 0.06803 0.0
O276 O 0.4015 0.29969 0.0963 0.0
C277 C 0.3696 0.24909 0.01422 0.0
O278 O 0.351 0.25654 0.02621 0.0
C279 C 0.37872 0.36067 0.11206 0.0
C280 C 0.40111 0.39189 0.104 0.0
C281 C 0.38332 0.38392 0.11897 0.0
N282 N 0.3929 0.35539 0.09357 0.0
N283 N 0.40652 0.37398 0.08915 0.0
C284 C 0.36169 0.34351 0.12313 0.0
H285 H 0.34434 0.34429 0.1138 0.0
H286 H 0.35876 0.34794 0.14213 0.0
H287 H 0.36859 0.3251 0.12144 0.0
C288 C 0.35483 0.31463 0.01805 0.0
N289 N 0.369 0.3088 0.03662 0.0
N290 N 0.36786 0.32567 0.05279 0.0
C291 C 0.35232 0.34251 0.04513 0.0
C292 C 0.34339 0.33607 0.0228 0.0
C293 C 0.35674 0.30327 0.99401 0.0
H294 H 0.37437 0.29476 0.99173 0.0
H295 H 0.34264 0.28962 0.9921 0.0
H296 H 0.35429 0.31654 0.97964 0.0
O297 O 0.42302 0.30488 0.02622 0.0
O298 O 0.42356 0.3314 0.0556 0.0
H299 H 0.36419 0.37697 0.0559 0.0
H300 H 0.3325 0.37514 0.05028 0.0
C301 C 0.34815 0.36563 0.05762 0.0
H302 H 0.34497 0.36236 0.07669 0.0
H303 H 0.4191 0.37469 0.07555 0.0
O304 O 0.38941 0.25981 0.0161 0.0
C305 C 0.43271 0.32229 0.037 0.0
Co306 Co 0.38926 0.74045 0.98506 0.0
Co307 Co 0.39781 0.69529 0.95458 0.0
C308 C 0.40594 0.74515 0.93479 0.0
O309 O 0.39805 0.75486 0.95369 0.0
O310 O 0.40587 0.72257 0.93265 0.0
C311 C 0.37754 0.78773 1.00228 0.0
O312 O 0.38114 0.79507 0.98043 0.0
C313 C 0.38454 0.66075 0.91823 0.0
C314 C 0.40818 0.63056 0.92677 0.0
C315 C 0.38999 0.63751 0.91159 0.0
N316 N 0.39852 0.6668 0.93661 0.0
N317 N 0.41286 0.64885 0.94142 0.0
C318 C 0.36682 0.67742 0.90744 0.0
H319 H 0.37243 0.6961 0.91032 0.0
H320 H 0.34937 0.67504 0.91631 0.0
H321 H 0.36482 0.67395 0.88812 0.0
C322 C 0.34842 0.71216 1.00205 0.0
N323 N 0.36527 0.71643 0.98543 0.0
N324 N 0.36924 0.69684 0.97332 0.0
C325 C 0.35539 0.67933 0.98233 0.0
C326 C 0.34158 0.6884 1.00086 0.0
C327 C 0.34247 0.72916 0.02164 0.0
H328 H 0.33794 0.74674 0.01397 0.0
H329 H 0.32735 0.72275 0.03253 0.0
H330 H 0.35826 0.73141 0.03328 0.0
O331 O 0.41936 0.72681 0.99762 0.0
O332 O 0.4246 0.69377 0.97656 0.0
H333 H 0.3766 0.64796 0.9786 0.0
H334 H 0.34584 0.64221 0.98629 0.0
C335 C 0.35792 0.65367 0.97575 0.0
H336 H 0.35371 0.65139 0.95665 0.0
H337 H 0.42542 0.64886 0.95509 0.0
O338 O 0.38005 0.76587 0.00726 0.0
C339 C 0.43134 0.70819 0.99261 0.0
Co340 Co 0.63852 0.29254 0.97981 0.0
Co341 Co 0.63309 0.33604 0.94667 0.0
C342 C 0.62199 0.28607 0.92935 0.0
O343 O 0.62817 0.27724 0.94926 0.0
O344 O 0.62419 0.30832 0.9256 0.0
C345 C 0.65123 0.24596 0.99819 0.0
O346 O 0.65044 0.23827 0.97615 0.0
C347 C 0.6494 0.37019 0.91129 0.0
C348 C 0.62298 0.39903 0.9153 0.0
C349 C 0.64349 0.39276 0.90316 0.0
N350 N 0.63338 0.36378 0.92771 0.0
N351 N 0.61742 0.3809 0.92977 0.0
C352 C 0.66931 0.3544 0.90332 0.0
H353 H 0.68492 0.357 0.9151 0.0
H354 H 0.67453 0.35853 0.88476 0.0
H355 H 0.66388 0.33549 0.90472 0.0
C356 C 0.68074 0.31886 0.99575 0.0
N357 N 0.66418 0.31473 0.97878 0.0
N358 N 0.66129 0.33408 0.96604 0.0
C359 C 0.67537 0.3514 0.97519 0.0
C360 C 0.68846 0.34227 0.99422 0.0
C361 C 0.68553 0.30238 0.01604 0.0
H362 H 0.66956 0.30156 0.02758 0.0
H363 H 0.6892 0.28428 0.00912 0.0
H364 H 0.70092 0.30843 0.02682 0.0
O365 O 0.61009 0.3092 0.99268 0.0
O366 O 0.60642 0.33994 0.96822 0.0
H367 H 0.65369 0.3821 0.9688 0.0
H368 H 0.68238 0.3887 0.98196 0.0
C369 C 0.67281 0.37718 0.96911 0.0
H370 H 0.68019 0.38037 0.95116 0.0
H371 H 0.60305 0.38047 0.94149 0.0
O372 O 0.64652 0.26755 1.00277 0.0
C373 C 0.59926 0.32793 0.9859 0.0
Co374 Co 0.64484 0.74135 0.04174 0.0
Co375 Co 0.63799 0.69715 0.074 0.0
C376 C 0.62912 0.74679 0.09284 0.0
O377 O 0.63549 0.75573 0.07305 0.0
O378 O 0.6306 0.72442 0.09622 0.0
C379 C 0.65702 0.78873 0.02519 0.0
O380 O 0.65298 0.79602 0.047 0.0
C381 C 0.64873 0.66235 0.11132 0.0
C382 C 0.62613 0.63218 0.10026 0.0
C383 C 0.64254 0.63916 0.1173 0.0
N384 N 0.63677 0.66843 0.09156 0.0
N385 N 0.62309 0.65044 0.08521 0.0
C386 C 0.6652 0.67885 0.12413 0.0
H387 H 0.68346 0.67666 0.11699 0.0
H388 H 0.66538 0.67498 0.14347 0.0
H389 H 0.6598 0.69757 0.12116 0.0
C390 C 0.68498 0.71267 0.024 0.0
N391 N 0.66887 0.71735 0.04123 0.0
N392 N 0.66633 0.69849 0.05472 0.0
C393 C 0.68095 0.68115 0.04648 0.0
C394 C 0.69333 0.68943 0.02655 0.0
C395 C 0.68835 0.72841 1.00282 0.0
H396 H 0.69622 0.74552 0.00869 0.0
H397 H 0.69988 0.72033 0.98907 0.0
H398 H 0.67077 0.73226 0.99471 0.0
O399 O 0.61508 0.72762 0.02921 0.0
O400 O 0.6105 0.69607 0.05247 0.0
H401 H 0.66429 0.64741 0.05145 0.0
H402 H 0.69638 0.64594 0.04879 0.0
C403 C 0.68127 0.65636 0.05604 0.0
H404 H 0.68281 0.65691 0.07564 0.0
H405 H 0.61195 0.65049 0.07037 0.0
O406 O 0.65438 0.76694 0.01995 0.0
C407 C 0.6033 0.70941 0.03569 0.0
Co408 Co 0.54149 0.89214 0.78704 0.0
Co409 Co 0.57508 0.89405 0.83081 0.0
C410 C 0.59407 0.90507 0.78248 0.0
O411 O 0.57355 0.90107 0.77372 0.0
O412 O 0.59796 0.90141 0.80448 0.0
C413 C 0.5194 0.86571 0.74854 0.0
O414 O 0.53095 0.84703 0.75646 0.0
C415 C 0.61128 0.8807 0.86612 0.0
C416 C 0.60056 0.90304 0.89662 0.0
C417 C 0.61696 0.88609 0.88953 0.0
N418 N 0.59218 0.89363 0.85988 0.0
N419 N 0.58609 0.90719 0.87807 0.0
C420 C 0.62404 0.86411 0.84965 0.0
H421 H 0.6157 0.84628 0.85042 0.0
H422 H 0.64304 0.8624 0.85478 0.0
H423 H 0.62263 0.87054 0.83109 0.0
C424 C 0.52075 0.85243 0.81499 0.0
N425 N 0.53929 0.86696 0.80994 0.0
N426 N 0.55422 0.86687 0.82796 0.0
C427 C 0.54593 0.85165 0.8447 0.0
C428 C 0.52436 0.84187 0.83709 0.0
C429 C 0.49748 0.85308 0.80197 0.0
H430 H 0.49519 0.87028 0.79269 0.0
H431 H 0.49699 0.83841 0.7888 0.0
H432 H 0.48232 0.85063 0.81433 0.0
O433 O 0.52961 0.92115 0.80263 0.0
O434 O 0.55494 0.92252 0.83297 0.0
H435 H 0.55395 0.86455 0.87954 0.0
H436 H 0.54988 0.83266 0.8779 0.0
C437 C 0.55713 0.84843 0.8686 0.0
H438 H 0.57654 0.84607 0.86657 0.0
H439 H 0.57175 0.91899 0.87798 0.0
O440 O 0.52134 0.88561 0.75907 0.0
C441 C 0.53772 0.93128 0.8212 0.0
Co442 Co 0.48737 0.13723 0.78256 0.0
Co443 Co 0.45285 0.13702 0.82559 0.0
C444 C 0.43482 0.12373 0.77763 0.0
O445 O 0.4556 0.12729 0.76937 0.0
O446 O 0.43023 0.12858 0.79927 0.0
C447 C 0.50955 0.16232 0.74326 0.0
O448 O 0.49837 0.18145 0.75066 0.0
C449 C 0.41606 0.15019 0.8607 0.0
C450 C 0.42893 0.13034 0.89204 0.0
C451 C 0.41117 0.14569 0.88452 0.0
N452 N 0.43594 0.13827 0.85474 0.0
N453 N 0.44333 0.12624 0.87348 0.0
C454 C 0.40199 0.1649 0.84357 0.0
H455 H 0.40866 0.18344 0.84389 0.0
H456 H 0.38285 0.16494 0.84843 0.0
H457 H 0.40421 0.15801 0.82524 0.0
C458 C 0.50753 0.17784 0.80954 0.0
N459 N 0.48902 0.16328 0.80448 0.0
N460 N 0.4736 0.16418 0.82203 0.0
C461 C 0.4815 0.18005 0.8384 0.0
C462 C 0.50342 0.1893 0.83114 0.0
C463 C 0.53109 0.17649 0.79714 0.0
H464 H 0.53329 0.15904 0.78827 0.0
H465 H 0.53212 0.1908 0.78365 0.0
H466 H 0.54599 0.179 0.80984 0.0
O467 O 0.49945 0.10909 0.79931 0.0
O468 O 0.47316 0.10869 0.82879 0.0
H469 H 0.47278 0.16942 0.87377 0.0
H470 H 0.47595 0.2012 0.87002 0.0
C471 C 0.46942 0.18458 0.86163 0.0
H472 H 0.45 0.18614 0.8588 0.0
H473 H 0.45848 0.1155 0.87372 0.0
O474 O 0.50747 0.14284 0.75445 0.0
C475 C 0.49079 0.09959 0.81792 0.0
Co476 Co 0.54994 0.14362 0.24098 0.0
Co477 Co 0.57923 0.13414 0.19544 0.0
C478 C 0.60017 0.12809 0.24547 0.0
O479 O 0.58159 0.13628 0.25552 0.0
O480 O 0.60149 0.12733 0.22284 0.0
C481 C 0.53159 0.156 0.28776 0.0
O482 O 0.55332 0.15292 0.29582 0.0
C483 C 0.6113 0.15095 0.15891 0.0
C484 C 0.60985 0.12211 0.13225 0.0
C485 C 0.6193 0.14448 0.13647 0.0
N486 N 0.59744 0.13348 0.16721 0.0
N487 N 0.59691 0.1161 0.15142 0.0
C488 C 0.61695 0.17292 0.17284 0.0
H489 H 0.61681 0.16889 0.19215 0.0
H490 H 0.60308 0.18655 0.16953 0.0
H491 H 0.63453 0.1802 0.16765 0.0
C492 C 0.53193 0.18378 0.21246 0.0
N493 N 0.54873 0.16702 0.21639 0.0
N494 N 0.55934 0.16193 0.19625 0.0
C495 C 0.54873 0.17446 0.17859 0.0
C496 C 0.53085 0.18894 0.1882 0.0
C497 C 0.51617 0.1935 0.23156 0.0
H498 H 0.52637 0.19541 0.24833 0.0
H499 H 0.5088 0.21108 0.22647 0.0
H500 H 0.50129 0.18095 0.23468 0.0
O501 O 0.53828 0.11257 0.22819 0.0
O502 O 0.5583 0.10694 0.1946 0.0
H503 H 0.53545 0.17191 0.14255 0.0
H504 H 0.56619 0.18039 0.14538 0.0
C505 C 0.55205 0.16883 0.15276 0.0
H506 H 0.55743 0.15003 0.15044 0.0
H507 H 0.58712 0.10048 0.15341 0.0
O508 O 0.5272 0.15281 0.26587 0.0
C509 C 0.54301 0.1002 0.20975 0.0
Co510 Co 0.49041 0.88634 0.24267 0.0
Co511 Co 0.46114 0.89538 0.1968 0.0
C512 C 0.44033 0.90391 0.2462 0.0
O513 O 0.45876 0.89554 0.25642 0.0
O514 O 0.43883 0.90386 0.22358 0.0
C515 C 0.50697 0.87685 0.29051 0.0
O516 O 0.48552 0.88309 0.29736 0.0
C517 C 0.42676 0.88102 0.16096 0.0
C518 C 0.43286 0.9073 0.13247 0.0
C519 C 0.41972 0.88726 0.13814 0.0
N520 N 0.44353 0.89636 0.16813 0.0
N521 N 0.44688 0.91226 0.15121 0.0
C522 C 0.41753 0.86132 0.17623 0.0
H523 H 0.42887 0.84534 0.17389 0.0
H524 H 0.39894 0.85677 0.17136 0.0
H525 H 0.41845 0.86654 0.19523 0.0
C526 C 0.50768 0.84542 0.21449 0.0
N527 N 0.49109 0.86242 0.21848 0.0
N528 N 0.4796 0.86668 0.19859 0.0
C529 C 0.48909 0.85299 0.18115 0.0
C530 C 0.5071 0.83879 0.19065 0.0
C531 C 0.5267 0.83897 0.23194 0.0
H532 H 0.53875 0.85439 0.23443 0.0
H533 H 0.5185 0.83475 0.24934 0.0
H534 H 0.53728 0.8235 0.22573 0.0
O535 O 0.50348 0.9164 0.22944 0.0
O536 O 0.48336 0.92174 0.19585 0.0
H537 H 0.48491 0.8757 0.1509 0.0
H538 H 0.49681 0.84658 0.14392 0.0
C539 C 0.48407 0.8565 0.15526 0.0
H540 H 0.46587 0.85014 0.15121 0.0
H541 H 0.45914 0.92613 0.15223 0.0
O542 O 0.51209 0.8769 0.26854 0.0
C543 C 0.49903 0.92838 0.21073 0.0
Co544 Co 0.79187 0.54401 0.88514 0.0
Co545 Co 0.83794 0.57213 0.89573 0.0
C546 C 0.78848 0.59313 0.90481 0.0
O547 O 0.77805 0.57531 0.89547 0.0
O548 O 0.81115 0.5942 0.9051 0.0
C549 C 0.7446 0.52837 0.87063 0.0
O550 O 0.7373 0.55025 0.87429 0.0
C551 C 0.87367 0.60707 0.88322 0.0
C552 C 0.90208 0.60005 0.90946 0.0
C553 C 0.89638 0.61404 0.89 0.0
N554 N 0.86659 0.58958 0.8977 0.0
N555 N 0.88345 0.58565 0.91358 0.0
C556 C 0.85837 0.61705 0.86386 0.0
H557 H 0.86097 0.60652 0.84739 0.0
H558 H 0.86298 0.63588 0.86028 0.0
H559 H 0.83933 0.61565 0.86886 0.0
C560 C 0.82023 0.52757 0.84428 0.0
N561 N 0.81622 0.5439 0.86149 0.0
N562 N 0.83618 0.55514 0.86611 0.0
C563 C 0.85361 0.54597 0.85217 0.0
C564 C 0.8441 0.52809 0.83778 0.0
C565 C 0.80237 0.50941 0.83663 0.0
H566 H 0.78513 0.51824 0.83285 0.0
H567 H 0.80835 0.49975 0.82049 0.0
H568 H 0.79968 0.49645 0.85123 0.0
O569 O 0.80487 0.52949 0.91453 0.0
O570 O 0.83887 0.54857 0.92096 0.0
H571 H 0.88365 0.54946 0.87537 0.0
H572 H 0.89088 0.53775 0.84629 0.0
C573 C 0.87955 0.55058 0.85613 0.0
H574 H 0.88389 0.56879 0.85006 0.0
H575 H 0.88246 0.5728 0.92689 0.0
O576 O 0.76618 0.52291 0.87444 0.0
C577 C 0.8237 0.53288 0.92673 0.0
Co578 Co 0.24394 0.48978 0.89321 0.0
Co579 Co 0.20055 0.4558 0.89393 0.0
C580 C 0.24885 0.43697 0.90505 0.0
O581 O 0.25721 0.45773 0.90178 0.0
O582 O 0.22697 0.43275 0.90087 0.0
C583 C 0.283 0.51078 0.86731 0.0
O584 O 0.27496 0.49922 0.84868 0.0
C585 C 0.16493 0.42004 0.88005 0.0
C586 C 0.13457 0.43075 0.90259 0.0
C587 C 0.14148 0.41449 0.88544 0.0
N588 N 0.17136 0.43892 0.89319 0.0
N589 N 0.15324 0.44501 0.90686 0.0
C590 C 0.18128 0.40735 0.8633 0.0
H591 H 0.18041 0.41584 0.84555 0.0
H592 H 0.17608 0.3884 0.86146 0.0
H593 H 0.19991 0.40863 0.86967 0.0
C594 C 0.2164 0.51095 0.85347 0.0
N595 N 0.22134 0.49223 0.86777 0.0
N596 N 0.20335 0.47729 0.86725 0.0
C597 C 0.18667 0.48585 0.85204 0.0
C598 C 0.19433 0.50756 0.84268 0.0
C599 C 0.22963 0.53405 0.85441 0.0
H600 H 0.23875 0.53614 0.87174 0.0
H601 H 0.24303 0.53442 0.83996 0.0
H602 H 0.21743 0.54936 0.85183 0.0
O603 O 0.22809 0.5013 0.92224 0.0
O604 O 0.19834 0.47532 0.92277 0.0
H605 H 0.15174 0.47768 0.86453 0.0
H606 H 0.15354 0.48226 0.83274 0.0
C607 C 0.16277 0.47474 0.84846 0.0
H608 H 0.16484 0.45538 0.84582 0.0
H609 H 0.15347 0.45919 0.91882 0.0
O610 O 0.27218 0.50951 0.88707 0.0
C611 C 0.20965 0.49255 0.93204 0.0
Co612 Co 0.7796 0.48838 0.13756 0.0
Co613 Co 0.82339 0.45499 0.13432 0.0
C614 C 0.77497 0.43641 0.1228 0.0
O615 O 0.7664 0.45679 0.12768 0.0
O616 O 0.79696 0.4322 0.12639 0.0
C617 C 0.74111 0.50911 0.16501 0.0
O618 O 0.74952 0.49742 0.18337 0.0
C619 C 0.8586 0.41893 0.14762 0.0
C620 C 0.88962 0.43016 0.12635 0.0
C621 C 0.88234 0.41379 0.14319 0.0
N622 N 0.85238 0.43779 0.1344 0.0
N623 N 0.87084 0.44409 0.12133 0.0
C624 C 0.84193 0.40615 0.16394 0.0
H625 H 0.84045 0.41595 0.18097 0.0
H626 H 0.84837 0.38786 0.16761 0.0
H627 H 0.82391 0.40544 0.15593 0.0
C628 C 0.8081 0.50851 0.17719 0.0
N629 N 0.80288 0.49019 0.16243 0.0
N630 N 0.82092 0.47528 0.16205 0.0
C631 C 0.83787 0.48337 0.17724 0.0
C632 C 0.83038 0.50482 0.18744 0.0
C633 C 0.79489 0.53167 0.17712 0.0
H634 H 0.78525 0.5341 0.16012 0.0
H635 H 0.78196 0.53186 0.19198 0.0
H636 H 0.80721 0.54687 0.17959 0.0
O637 O 0.79446 0.50059 0.10851 0.0
O638 O 0.82526 0.47584 0.10634 0.0
H639 H 0.87266 0.4754 0.16407 0.0
H640 H 0.87124 0.47904 0.19603 0.0
C641 C 0.8618 0.47207 0.18018 0.0
H642 H 0.85975 0.45269 0.18234 0.0
H643 H 0.87088 0.45843 0.10961 0.0
O644 O 0.75148 0.5079 0.145 0.0
C645 C 0.81299 0.49292 0.09796 0.0
Co646 Co 0.23854 0.5427 0.13965 0.0
Co647 Co 0.19755 0.57916 0.13525 0.0
C648 C 0.24851 0.59282 0.12384 0.0
O649 O 0.2558 0.57205 0.12916 0.0
O650 O 0.22675 0.59845 0.12697 0.0
C651 C 0.28361 0.52126 0.15185 0.0
O652 O 0.2921 0.543 0.15156 0.0
C653 C 0.16667 0.61544 0.15493 0.0
C654 C 0.13678 0.61571 0.12944 0.0
C655 C 0.14427 0.62529 0.15093 0.0
N656 N 0.1716 0.60046 0.13706 0.0
N657 N 0.15395 0.60104 0.1216 0.0
C658 C 0.1837 0.62009 0.17485 0.0
H659 H 0.18064 0.60704 0.18928 0.0
H660 H 0.1814 0.63837 0.18194 0.0
H661 H 0.20226 0.61766 0.16857 0.0
C662 C 0.21216 0.52852 0.18233 0.0
N663 N 0.21684 0.54513 0.16564 0.0
N664 N 0.19798 0.55858 0.16269 0.0
C665 C 0.1802 0.55008 0.17662 0.0
C666 C 0.1885 0.53053 0.18968 0.0
C667 C 0.22977 0.51008 0.18993 0.0
H668 H 0.24779 0.51804 0.19097 0.0
H669 H 0.2251 0.50262 0.20756 0.0
H670 H 0.23015 0.49553 0.1766 0.0
O671 O 0.22058 0.53192 0.11113 0.0
O672 O 0.19206 0.55912 0.10764 0.0
H673 H 0.14242 0.54262 0.1784 0.0
H674 H 0.15092 0.5727 0.18541 0.0
C675 C 0.1547 0.55729 0.17369 0.0
H676 H 0.1512 0.56259 0.15507 0.0
H677 H 0.15319 0.5907 0.10621 0.0
O678 O 0.26186 0.51765 0.14695 0.0
C679 C 0.20271 0.54064 0.10017 0.0
Co680 Co 0.89043 0.79239 0.54758 0.0
Co681 Co 0.89485 0.83569 0.58149 0.0
C682 C 0.90462 0.78547 0.59872 0.0
O683 O 0.89865 0.777 0.57856 0.0
O684 O 0.90266 0.80772 0.60282 0.0
C685 C 0.86719 0.75239 0.52365 0.0
O686 O 0.85197 0.75136 0.54131 0.0
C687 C 0.88147 0.86961 0.61915 0.0
C688 C 0.90395 0.90035 0.60966 0.0
C689 C 0.88683 0.89289 0.62571 0.0
N690 N 0.89457 0.86397 0.59998 0.0
N691 N 0.90818 0.88231 0.59461 0.0
C692 C 0.86474 0.85264 0.63089 0.0
H693 H 0.8468 0.85454 0.62288 0.0
H694 H 0.86355 0.8563 0.65024 0.0
H695 H 0.8707 0.83407 0.62791 0.0
C696 C 0.8506 0.82094 0.52853 0.0
N697 N 0.86586 0.81582 0.54644 0.0
N698 N 0.86724 0.83416 0.56088 0.0
C699 C 0.85248 0.85143 0.55271 0.0
C700 C 0.84132 0.8437 0.53183 0.0
C701 C 0.84912 0.80666 0.50606 0.0
H702 H 0.86717 0.80098 0.50056 0.0
H703 H 0.83812 0.79064 0.50927 0.0
H704 H 0.84118 0.81684 0.49119 0.0
O705 O 0.92008 0.80738 0.53723 0.0
O706 O 0.9232 0.83857 0.5612 0.0
H707 H 0.86784 0.88539 0.56005 0.0
H708 H 0.8359 0.88606 0.55576 0.0
C709 C 0.85093 0.87577 0.56333 0.0
H710 H 0.8484 0.87434 0.58277 0.0
H711 H 0.92003 0.88268 0.58036 0.0
O712 O 0.88396 0.76749 0.52411 0.0
C713 C 0.93123 0.82569 0.54444 0.0
Co714 Co 0.88967 0.24131 0.48649 0.0
Co715 Co 0.89627 0.19616 0.45538 0.0
C716 C 0.90728 0.2454 0.4361 0.0
O717 O 0.89988 0.25505 0.45521 0.0
O718 O 0.90588 0.22293 0.43338 0.0
C719 C 0.8777 0.28921 0.50175 0.0
O720 O 0.88129 0.2957 0.47963 0.0
C721 C 0.88467 0.16131 0.41829 0.0
C722 C 0.90646 0.1306 0.42952 0.0
C723 C 0.89015 0.13786 0.41249 0.0
N724 N 0.89689 0.16726 0.43794 0.0
N725 N 0.9101 0.14894 0.44438 0.0
C726 C 0.86861 0.17818 0.40544 0.0
H727 H 0.87452 0.19676 0.40835 0.0
H728 H 0.85032 0.17656 0.41263 0.0
H729 H 0.86829 0.17418 0.38612 0.0
C730 C 0.84902 0.21381 0.50436 0.0
N731 N 0.86505 0.21799 0.48693 0.0
N732 N 0.86743 0.19881 0.47381 0.0
C733 C 0.85274 0.18178 0.48247 0.0
C734 C 0.84055 0.19057 0.50235 0.0
C735 C 0.84612 0.22994 0.52537 0.0
H736 H 0.83861 0.24715 0.51934 0.0
H737 H 0.83448 0.22237 0.53928 0.0
H738 H 0.86382 0.23346 0.53335 0.0
O739 O 0.91866 0.22669 0.49996 0.0
O740 O 0.92265 0.19402 0.47805 0.0
H741 H 0.86931 0.14782 0.47831 0.0
H742 H 0.83722 0.14659 0.48101 0.0
C743 C 0.85236 0.15674 0.47352 0.0
H744 H 0.85079 0.15676 0.45391 0.0
H745 H 0.92128 0.14881 0.45919 0.0
O746 O 0.88049 0.26762 0.50768 0.0
C747 C 0.92977 0.20764 0.49464 0.0
Co748 Co 0.13957 0.78664 0.48538 0.0
Co749 Co 0.13048 0.83164 0.45525 0.0
C750 C 0.11851 0.78187 0.43682 0.0
O751 O 0.12742 0.77207 0.45518 0.0
O752 O 0.11944 0.8044 0.4344 0.0
C753 C 0.15263 0.73943 0.5018 0.0
O754 O 0.14884 0.73205 0.47997 0.0
C755 C 0.14611 0.86577 0.42006 0.0
C756 C 0.12086 0.89546 0.42517 0.0
C757 C 0.14103 0.88876 0.41266 0.0
N758 N 0.13007 0.85952 0.43651 0.0
N759 N 0.11473 0.87712 0.43919 0.0
C760 C 0.16561 0.84965 0.41175 0.0
H761 H 0.181 0.85102 0.42401 0.0
H762 H 0.17145 0.85446 0.39355 0.0
H763 H 0.15943 0.83092 0.41208 0.0
C764 C 0.1823 0.81326 0.49947 0.0
N765 N 0.16467 0.80941 0.48352 0.0
N766 N 0.16015 0.8293 0.47216 0.0
C767 C 0.17417 0.84666 0.4813 0.0
C768 C 0.18893 0.83708 0.49883 0.0
C769 C 0.18903 0.79593 0.51846 0.0
H770 H 0.19225 0.77822 0.51041 0.0
H771 H 0.20524 0.8017 0.52814 0.0
H772 H 0.17416 0.79438 0.53132 0.0
O773 O 0.11164 0.80234 0.50043 0.0
O774 O 0.10592 0.8352 0.47925 0.0
H775 H 0.15108 0.87681 0.47769 0.0
H776 H 0.18024 0.8839 0.48948 0.0
C777 C 0.17034 0.87261 0.47669 0.0
H778 H 0.1766 0.87695 0.45856 0.0
H779 H 0.10061 0.87694 0.45121 0.0
O780 O 0.14944 0.76114 0.50706 0.0
C781 C 0.10027 0.82155 0.49631 0.0
Co782 Co 0.14239 0.23735 0.54272 0.0
Co783 Co 0.13627 0.19291 0.57445 0.0
C784 C 0.12707 0.24347 0.59286 0.0
O785 O 0.13479 0.25306 0.57385 0.0
O786 O 0.12749 0.22091 0.59525 0.0
C787 C 0.16214 0.27955 0.5188 0.0
O788 O 0.17472 0.28438 0.53788 0.0
C789 C 0.15117 0.15958 0.61151 0.0
C790 C 0.12666 0.12958 0.60508 0.0
C791 C 0.14551 0.13677 0.61929 0.0
N792 N 0.1366 0.16516 0.59345 0.0
N793 N 0.12179 0.14731 0.58989 0.0
C794 C 0.16942 0.17636 0.62116 0.0
H795 H 0.16397 0.19501 0.61772 0.0
H796 H 0.1866 0.17332 0.61196 0.0
H797 H 0.17192 0.17361 0.64053 0.0
C798 C 0.18342 0.20943 0.52486 0.0
N799 N 0.16702 0.21387 0.54189 0.0
N800 N 0.16444 0.19476 0.55505 0.0
C801 C 0.17909 0.17752 0.54665 0.0
C802 C 0.19169 0.18621 0.52713 0.0
C803 C 0.18893 0.22607 0.50489 0.0
H804 H 0.1727 0.22891 0.49403 0.0
H805 H 0.19459 0.24341 0.51231 0.0
H806 H 0.20337 0.21913 0.49337 0.0
O807 O 0.11226 0.22252 0.5323 0.0
O808 O 0.10894 0.18939 0.55333 0.0
H809 H 0.15893 0.14601 0.5534 0.0
H810 H 0.1888 0.14039 0.54277 0.0
C811 C 0.17769 0.15206 0.55417 0.0
H812 H 0.18384 0.15047 0.57282 0.0
H813 H 0.10865 0.14704 0.57679 0.0
O814 O 0.14852 0.26156 0.51851 0.0
C815 C 0.10109 0.20358 0.53764 0.0
H816 H 0.14341 0.39775 0.42818 0.0
H817 H 0.13841 0.33778 0.38022 0.0
H818 H 0.16051 0.37204 0.45819 0.0
H819 H 0.15757 0.31294 0.40919 0.0
H820 H 0.13942 0.27214 0.47698 0.0
H821 H 0.13852 0.29736 0.44256 0.0
H822 H 0.18828 0.34547 0.47615 0.0
H823 H 0.18848 0.32019 0.51158 0.0
C824 C 0.14678 0.37934 0.42359 0.0
C825 C 0.13894 0.36994 0.40174 0.0
C826 C 0.1569 0.36462 0.4408 0.0
C827 C 0.15978 0.34023 0.43636 0.0
C828 C 0.15488 0.33153 0.41344 0.0
C829 C 0.14417 0.34608 0.39648 0.0
C830 C 0.15038 0.28797 0.4771 0.0
C831 C 0.16373 0.29435 0.49722 0.0
C832 C 0.15016 0.30234 0.45707 0.0
C833 C 0.16346 0.32346 0.45641 0.0
C834 C 0.17768 0.32941 0.47615 0.0
C835 C 0.17781 0.31495 0.49642 0.0
H836 H 0.87449 0.63436 0.43153 0.0
H837 H 0.88297 0.69427 0.38425 0.0
H838 H 0.85911 0.66086 0.46198 0.0
H839 H 0.86578 0.72013 0.41377 0.0
H840 H 0.89121 0.75674 0.48223 0.0
H841 H 0.88865 0.7321 0.44735 0.0
H842 H 0.83315 0.69045 0.48028 0.0
H843 H 0.83611 0.71528 0.51606 0.0
C844 C 0.87208 0.65297 0.42718 0.0
C845 C 0.88044 0.66212 0.40548 0.0
C846 C 0.86301 0.66813 0.44461 0.0
C847 C 0.86189 0.69271 0.44051 0.0
C848 C 0.86704 0.70132 0.41765 0.0
C849 C 0.8766 0.68626 0.40042 0.0
C850 C 0.8783 0.74246 0.48213 0.0
C851 C 0.86412 0.73773 0.5021 0.0
C852 C 0.87653 0.72851 0.46186 0.0
C853 C 0.86048 0.70942 0.46087 0.0
C854 C 0.84569 0.70504 0.48054 0.0
C855 C 0.84742 0.71919 0.501 0.0
H856 H 0.12066 0.69104 0.6346 0.0
H857 H 0.1432 0.62409 0.60441 0.0
H858 H 0.13827 0.712 0.60171 0.0
H859 H 0.16087 0.64531 0.57085 0.0
H860 H 0.14281 0.6919 0.50275 0.0
H861 H 0.14214 0.66659 0.53787 0.0
H862 H 0.17319 0.72331 0.57942 0.0
H863 H 0.1731 0.7488 0.54452 0.0
C864 C 0.13036 0.6808 0.62155 0.0
C865 C 0.13091 0.6559 0.62239 0.0
C866 C 0.1404 0.69288 0.60247 0.0
C867 C 0.15105 0.68032 0.58365 0.0
C868 C 0.15267 0.65545 0.58504 0.0
C869 C 0.14263 0.64334 0.60423 0.0
C870 C 0.15006 0.69871 0.51924 0.0
C871 C 0.15742 0.72245 0.52111 0.0
C872 C 0.14982 0.68417 0.53936 0.0
C873 C 0.15719 0.69315 0.56153 0.0
C874 C 0.16689 0.71611 0.5627 0.0
C875 C 0.16685 0.73069 0.54272 0.0
H876 H 0.9112 0.34294 0.63298 0.0
H877 H 0.89197 0.40891 0.59884 0.0
H878 H 0.89287 0.32086 0.60113 0.0
H879 H 0.87332 0.38657 0.56646 0.0
H880 H 0.88872 0.33644 0.50076 0.0
H881 H 0.89043 0.36322 0.53474 0.0
H882 H 0.85858 0.30913 0.57894 0.0
H883 H 0.85781 0.28208 0.54515 0.0
C884 C 0.90203 0.35279 0.61926 0.0
C885 C 0.90266 0.3777 0.61866 0.0
C886 C 0.89155 0.34006 0.6008 0.0
C887 C 0.88158 0.35193 0.58119 0.0
C888 C 0.88103 0.37691 0.58122 0.0
C889 C 0.89159 0.38968 0.59976 0.0
C890 C 0.88156 0.33051 0.5176 0.0
C891 C 0.87368 0.30704 0.5205 0.0
C892 C 0.88238 0.3459 0.53708 0.0
C893 C 0.87506 0.33813 0.55968 0.0
C894 C 0.86491 0.31543 0.5619 0.0
C895 C 0.86442 0.29996 0.54255 0.0
H896 H 0.53028 0.1482 0.33567 0.0
H897 H 0.48754 0.17272 0.27674 0.0
H898 H 0.49484 0.14662 0.36051 0.0
H899 H 0.45225 0.17183 0.30173 0.0
H900 H 0.3993 0.11885 0.33733 0.0
H901 H 0.43138 0.1368 0.31524 0.0
H902 H 0.46087 0.16505 0.38034 0.0
H903 H 0.42827 0.14699 0.40266 0.0
C904 C 0.51345 0.15395 0.32825 0.0
C905 C 0.51155 0.16001 0.30415 0.0
C906 C 0.49313 0.1532 0.34252 0.0
C907 C 0.47066 0.15872 0.33293 0.0
C908 C 0.46923 0.16698 0.30945 0.0
C909 C 0.48945 0.1675 0.29516 0.0
C910 C 0.41187 0.1298 0.3469 0.0
C911 C 0.41103 0.13178 0.37173 0.0
C912 C 0.43046 0.14005 0.33419 0.0
C913 C 0.44874 0.15234 0.34605 0.0
C914 C 0.44716 0.1555 0.37076 0.0
C915 C 0.42849 0.14526 0.38349 0.0
H916 H 0.60578 0.896 0.40783 0.0
H917 H 0.64049 0.91056 0.34104 0.0
H918 H 0.57319 0.87657 0.38658 0.0
H919 H 0.60819 0.89166 0.31991 0.0
H920 H 0.50728 0.89031 0.33711 0.0
H921 H 0.5418 0.89294 0.36299 0.0
H922 H 0.58467 0.85797 0.30959 0.0
H923 H 0.55024 0.85617 0.28334 0.0
C924 C 0.60674 0.89446 0.38866 0.0
C925 C 0.6258 0.90453 0.37612 0.0
C926 C 0.58806 0.88347 0.3765 0.0
C927 C 0.58797 0.88267 0.35152 0.0
C928 C 0.60782 0.89147 0.33914 0.0
C929 C 0.62651 0.90231 0.35131 0.0
C930 C 0.52393 0.88268 0.33112 0.0
C931 C 0.52622 0.87356 0.30802 0.0
C932 C 0.54375 0.88403 0.34603 0.0
C933 C 0.56615 0.87604 0.3382 0.0
C934 C 0.56782 0.86482 0.31593 0.0
C935 C 0.54808 0.86372 0.30092 0.0
H936 H 0.48501 0.83203 0.74305 0.0
H937 H 0.51449 0.89519 0.71121 0.0
H938 H 0.45154 0.83348 0.71483 0.0
H939 H 0.48183 0.89611 0.68261 0.0
H940 H 0.42789 0.88663 0.62668 0.0
H941 H 0.4609 0.8688 0.64854 0.0
H942 H 0.41953 0.87122 0.71297 0.0
H943 H 0.38699 0.88997 0.69162 0.0
C944 C 0.48471 0.84568 0.72949 0.0
C945 C 0.50214 0.86353 0.72913 0.0
C946 C 0.46564 0.84652 0.71348 0.0
C947 C 0.46433 0.86478 0.69655 0.0
C948 C 0.48266 0.88166 0.6953 0.0
C949 C 0.50124 0.88122 0.71167 0.0
C950 C 0.42553 0.8827 0.64537 0.0
C951 C 0.40474 0.88977 0.65735 0.0
C952 C 0.44438 0.87241 0.65779 0.0
C953 C 0.44264 0.86871 0.68234 0.0
C954 C 0.42109 0.87359 0.69393 0.0
C955 C 0.40233 0.88424 0.68158 0.0
H956 H 0.51282 0.13131 0.70697 0.0
H957 H 0.54433 0.19512 0.73561 0.0
H958 H 0.54492 0.12825 0.67799 0.0
H959 H 0.57719 0.19162 0.70693 0.0
H960 H 0.64065 0.13416 0.68759 0.0
H961 H 0.60816 0.15463 0.70714 0.0
H962 H 0.56671 0.15109 0.64272 0.0
H963 H 0.5998 0.13148 0.62252 0.0
C964 C 0.52637 0.14499 0.70659 0.0
C965 C 0.52627 0.16342 0.72335 0.0
C966 C 0.54462 0.14335 0.68997 0.0
C967 C 0.5634 0.15977 0.69025 0.0
C968 C 0.56275 0.17889 0.70633 0.0
C969 C 0.54404 0.1809 0.72261 0.0
C970 C 0.62533 0.13889 0.67704 0.0
C971 C 0.623 0.13129 0.65334 0.0
C972 C 0.60656 0.15056 0.68838 0.0
C973 C 0.58501 0.15437 0.6764 0.0
C974 C 0.58323 0.14836 0.65227 0.0
C975 C 0.60212 0.13705 0.64081 0.0
H976 H 0.27096 0.47719 0.16706 0.0
H977 H 0.33171 0.51908 0.14607 0.0
H978 H 0.2958 0.44177 0.16853 0.0
H979 H 0.35638 0.48355 0.14633 0.0
H980 H 0.39919 0.41876 0.14838 0.0
H981 H 0.3756 0.4512 0.16511 0.0
H982 H 0.31166 0.41818 0.13789 0.0
H983 H 0.33507 0.38584 0.122 0.0
C984 C 0.2897 0.47883 0.16295 0.0
C985 C 0.29936 0.50076 0.15603 0.0
C986 C 0.30393 0.45853 0.16373 0.0
C987 C 0.32801 0.45965 0.15715 0.0
C988 C 0.33798 0.48197 0.15176 0.0
C989 C 0.32381 0.50236 0.1514 0.0
C990 C 0.37999 0.41814 0.1468 0.0
C991 C 0.36893 0.39972 0.1341 0.0
C992 C 0.3665 0.43678 0.15617 0.0
C993 C 0.34174 0.43753 0.15258 0.0
C994 C 0.3306 0.41811 0.14139 0.0
C995 C 0.34406 0.39939 0.13229 0.0
H996 H 0.4081 0.59813 0.89025 0.0
H997 H 0.3429 0.63846 0.89718 0.0
H998 H 0.38577 0.56594 0.87148 0.0
H999 H 0.32134 0.60714 0.87722 0.0
H1000 H 0.32128 0.51232 0.89601 0.0
H1001 H 0.35132 0.5436 0.89787 0.0
H1002 H 0.3192 0.57803 0.83729 0.0
H1003 H 0.28954 0.54597 0.83485 0.0
C1004 C 0.38927 0.60062 0.88698 0.0
C1005 C 0.37745 0.62112 0.89517 0.0
C1006 C 0.3766 0.58225 0.87609 0.0
C1007 C 0.35197 0.58426 0.8728 0.0
C1008 C 0.34045 0.60545 0.87912 0.0
C1009 C 0.35299 0.62359 0.89048 0.0
C1010 C 0.32119 0.52615 0.88262 0.0
C1011 C 0.30331 0.52691 0.8653 0.0
C1012 C 0.33839 0.54391 0.88358 0.0
C1013 C 0.33753 0.56305 0.86764 0.0
C1014 C 0.32026 0.56326 0.84958 0.0
C1015 C 0.30341 0.54502 0.84819 0.0
H1016 H 0.69652 0.52814 0.87786 0.0
H1017 H 0.75445 0.48522 0.85123 0.0
H1018 H 0.67066 0.49338 0.87735 0.0
H1019 H 0.72847 0.45068 0.85005 0.0
H1020 H 0.69193 0.39677 0.90141 0.0
H1021 H 0.71462 0.42893 0.88455 0.0
H1022 H 0.65005 0.46053 0.85728 0.0
H1023 H 0.62708 0.42772 0.87412 0.0
C1024 C 0.7035 0.51147 0.87117 0.0
C1025 C 0.72761 0.50921 0.86517 0.0
C1026 C 0.68865 0.49157 0.87073 0.0
C1027 C 0.69769 0.46919 0.86407 0.0
C1028 C 0.72117 0.46758 0.85576 0.0
C1029 C 0.73603 0.48736 0.85644 0.0
C1030 C 0.68257 0.40979 0.89083 0.0
C1031 C 0.6577 0.40944 0.88878 0.0
C1032 C 0.69564 0.42845 0.88123 0.0
C1033 C 0.68413 0.44732 0.86956 0.0
C1034 C 0.65938 0.44632 0.86632 0.0
C1035 C 0.64628 0.42753 0.87588 0.0
H1036 H 0.6883 0.63878 0.13506 0.0
H1037 H 0.62118 0.60147 0.1384 0.0
H1038 H 0.70731 0.60679 0.15661 0.0
H1039 H 0.6408 0.56874 0.15911 0.0
H1040 H 0.70189 0.51121 0.13772 0.0
H1041 H 0.67332 0.54379 0.13574 0.0
H1042 H 0.70831 0.57818 0.19483 0.0
H1043 H 0.73656 0.54486 0.19731 0.0
C1044 C 0.67725 0.62444 0.14134 0.0
C1045 C 0.65309 0.62287 0.13508 0.0
C1046 C 0.68827 0.60594 0.15365 0.0
C1047 C 0.67548 0.58535 0.15945 0.0
C1048 C 0.65098 0.5845 0.15484 0.0
C1049 C 0.63985 0.60317 0.14288 0.0
C1050 C 0.70285 0.5253 0.15083 0.0
C1051 C 0.72122 0.5257 0.16764 0.0
C1052 C 0.68649 0.54385 0.14981 0.0
C1053 C 0.68866 0.56341 0.16518 0.0
C1054 C 0.70624 0.56316 0.18294 0.0
C1055 C 0.72229 0.54418 0.18437 0.0
H1056 H 0.9932 0.67444 0.66663 0.0
H1057 H 0.02197 0.74121 0.6904 0.0
H1058 H 0.96076 0.69528 0.64658 0.0
H1059 H 0.9903 0.76248 0.66943 0.0
H1060 H 0.92217 0.79647 0.64336 0.0
H1061 H 0.95073 0.77391 0.66701 0.0
H1062 H 0.94956 0.7178 0.61451 0.0
H1063 H 0.92033 0.73976 0.59169 0.0
C1064 C 0.99269 0.69368 0.66726 0.0
C1065 C 0.01025 0.7062 0.67987 0.0
C1066 C 0.9741 0.70576 0.65564 0.0
C1067 C 0.97257 0.73084 0.65605 0.0
C1068 C 0.99032 0.74326 0.66884 0.0
C1069 C 0.00875 0.73111 0.68069 0.0
C1070 C 0.92757 0.77906 0.63714 0.0
C1071 C 0.91866 0.77006 0.61552 0.0
C1072 C 0.94436 0.76616 0.65059 0.0
C1073 C 0.95306 0.74391 0.64277 0.0
C1074 C 0.94337 0.73459 0.62157 0.0
C1075 C 0.92643 0.74734 0.60831 0.0
H1076 H 0.02522 0.29811 0.6996 0.0
H1077 H 0.02975 0.35242 0.64595 0.0
H1078 H 0.0564 0.27557 0.67966 0.0
H1079 H 0.05941 0.32913 0.62469 0.0
H1080 H 0.12523 0.29235 0.59738 0.0
H1081 H 0.09764 0.31591 0.62113 0.0
H1082 H 0.06732 0.25128 0.64941 0.0
H1083 H 0.09579 0.22808 0.62687 0.0
C1084 C 0.0327 0.3051 0.68332 0.0
C1085 C 0.02476 0.32705 0.67438 0.0
C1086 C 0.05053 0.29201 0.67161 0.0
C1087 C 0.06083 0.30019 0.65023 0.0
C1088 C 0.05257 0.32213 0.64121 0.0
C1089 C 0.03505 0.3354 0.65319 0.0
C1090 C 0.11303 0.2832 0.6091 0.0
C1091 C 0.11302 0.2582 0.61019 0.0
C1092 C 0.09679 0.29676 0.62255 0.0
C1093 C 0.07962 0.2858 0.63723 0.0
C1094 C 0.08022 0.26076 0.6388 0.0
C1095 C 0.09672 0.24727 0.62571 0.0
H1096 H 0.93576 0.22991 0.39932 0.0
H1097 H 0.91283 0.29404 0.43475 0.0
H1098 H 0.9643 0.25294 0.37611 0.0
H1099 H 0.94139 0.317 0.41162 0.0
H1100 H 0.98161 0.35443 0.35089 0.0
H1101 H 0.95153 0.33157 0.3723 0.0
H1102 H 1.00201 0.27445 0.38171 0.0
H1103 H 0.03206 0.29749 0.35998 0.0
C1104 C 0.93643 0.24897 0.40191 0.0
C1105 C 0.92171 0.25999 0.41898 0.0
C1106 C 0.95311 0.26219 0.38876 0.0
C1107 C 0.9555 0.28692 0.39203 0.0
C1108 C 0.94011 0.29807 0.4084 0.0
C1109 C 0.92361 0.28483 0.42171 0.0
C1110 C 0.98628 0.33698 0.35754 0.0
C1111 C 0.00922 0.32773 0.35361 0.0
C1112 C 0.96903 0.32387 0.36996 0.0
C1113 C 0.97411 0.30098 0.37876 0.0
C1114 C 0.99721 0.29182 0.37496 0.0
C1115 C 0.01456 0.30508 0.36268 0.0
H1116 H 0.11136 0.73338 0.4365 0.0
H1117 H 0.08983 0.79745 0.40027 0.0
H1118 H 0.08208 0.71077 0.4139 0.0
H1119 H 0.06004 0.77505 0.37821 0.0
H1120 H 0.01962 0.72487 0.32811 0.0
H1121 H 0.05073 0.74723 0.34862 0.0
H1122 H 0.04107 0.70329 0.41077 0.0
H1123 H 0.01082 0.68034 0.38968 0.0
C1124 C 0.10059 0.74267 0.42353 0.0
C1125 C 0.10323 0.76737 0.42029 0.0
C1126 C 0.08344 0.72969 0.41071 0.0
C1127 C 0.06817 0.74093 0.39426 0.0
C1128 C 0.07142 0.7655 0.39045 0.0
C1129 C 0.08865 0.77846 0.40319 0.0
C1130 C 0.02409 0.7201 0.34622 0.0
C1131 C 0.01248 0.70092 0.35726 0.0
C1132 C 0.04193 0.73302 0.3581 0.0
C1133 C 0.04877 0.72724 0.38153 0.0
C1134 C 0.03679 0.70822 0.39268 0.0
C1135 C 0.01902 0.69524 0.38071 0.0
H1136 H 0.59439 0.91298 0.73416 0.0
H1137 H 0.63375 0.92908 0.79802 0.0
H1138 H 0.61934 0.94041 0.71189 0.0
H1139 H 0.65794 0.95735 0.77615 0.0
H1140 H 0.70891 0.99805 0.72838 0.0
H1141 H 0.68721 0.96682 0.74911 0.0
H1142 H 0.62594 0.98015 0.70459 0.0
H1143 H 0.64838 0.00997 0.68288 0.0
C1144 C 0.60854 0.92217 0.74345 0.0
C1145 C 0.61196 0.91858 0.76799 0.0
C1146 C 0.62274 0.9383 0.73069 0.0
C1147 C 0.64067 0.95174 0.74206 0.0
C1148 C 0.64465 0.94739 0.76644 0.0
C1149 C 0.63065 0.93102 0.77912 0.0
C1150 C 0.69082 0.99422 0.72298 0.0
C1151 C 0.68039 0.00692 0.70412 0.0
C1152 C 0.67819 0.97635 0.73505 0.0
C1153 C 0.65453 0.97063 0.72881 0.0
C1154 C 0.64413 0.9835 0.70993 0.0
C1155 C 0.65689 1.00115 0.69769 0.0
H1156 H 0.43681 0.11256 0.73003 0.0
H1157 H 0.39411 0.10114 0.79265 0.0
H1158 H 0.4128 0.08378 0.70832 0.0
H1159 H 0.37067 0.07166 0.77132 0.0
H1160 H 0.321 0.03014 0.72216 0.0
H1161 H 0.34253 0.06168 0.74273 0.0
H1162 H 0.4062 0.04318 0.70386 0.0
H1163 H 0.3841 0.01276 0.6823 0.0
C1164 C 0.42211 0.10413 0.73915 0.0
C1165 C 0.41748 0.10942 0.76319 0.0
C1166 C 0.40846 0.08724 0.72673 0.0
C1167 C 0.38982 0.07479 0.73796 0.0
C1168 C 0.38461 0.08082 0.76176 0.0
C1169 C 0.39813 0.09789 0.77411 0.0
C1170 C 0.33962 0.03283 0.71802 0.0
C1171 C 0.35079 0.01862 0.7007 0.0
C1172 C 0.35211 0.05089 0.72999 0.0
C1173 C 0.37633 0.05533 0.72515 0.0
C1174 C 0.38755 0.04081 0.70799 0.0
C1175 C 0.37496 0.02288 0.69588 0.0
H1176 H 0.60358 0.12489 0.29426 0.0
H1177 H 0.63706 0.09998 0.22988 0.0
H1178 H 0.6281 0.09769 0.31744 0.0
H1179 H 0.66087 0.07217 0.25284 0.0
H1180 H 0.71239 0.03281 0.3015 0.0
H1181 H 0.6916 0.06392 0.27944 0.0
H1182 H 0.63172 0.05754 0.3271 0.0
H1183 H 0.65322 0.02761 0.34982 0.0
C1184 C 0.61639 0.11387 0.28501 0.0
C1185 C 0.61822 0.11484 0.26007 0.0
C1186 C 0.6303 0.0979 0.29834 0.0
C1187 C 0.6464 0.08218 0.2872 0.0
C1188 C 0.64896 0.08396 0.26233 0.0
C1189 C 0.63519 0.10005 0.24903 0.0
C1190 C 0.69478 0.03811 0.30724 0.0
C1191 C 0.68437 0.0273 0.32721 0.0
C1192 C 0.6827 0.05591 0.29447 0.0
C1193 C 0.65973 0.06349 0.30122 0.0
C1194 C 0.64941 0.05264 0.32132 0.0
C1195 C 0.66159 0.03498 0.33417 0.0
H1196 H 0.34994 0.97821 0.35164 0.0
H1197 H 0.36892 0.0303 0.29896 0.0
H1198 H 0.37128 0.94751 0.32925 0.0
H1199 H 0.3903 0.99959 0.27636 0.0
H1200 H 0.40561 0.93423 0.22985 0.0
H1201 H 0.38224 0.9629 0.25259 0.0
H1202 H 0.41244 0.93593 0.31768 0.0
H1203 H 0.43601 0.90728 0.29495 0.0
C1204 C 0.35864 0.98306 0.33519 0.0
C1205 C 0.35757 0.00666 0.32696 0.0
C1206 C 0.37101 0.96548 0.3224 0.0
C1207 C 0.38246 0.9709 0.30083 0.0
C1208 C 0.38145 0.99461 0.29269 0.0
C1209 C 0.36934 0.01227 0.30569 0.0
C1210 C 0.407 0.93401 0.24905 0.0
C1211 C 0.42279 0.91819 0.26045 0.0
C1212 C 0.39376 0.95075 0.2621 0.0
C1213 C 0.39558 0.95205 0.28702 0.0
C1214 C 0.41047 0.93549 0.29854 0.0
C1215 C 0.42399 0.91895 0.28546 0.0
H1216 H 0.68288 0.64639 0.00562 0.0
H1217 H 0.73624 0.70126 0.00672 0.0
H1218 H 0.70558 0.62469 0.97571 0.0
H1219 H 0.7583 0.68058 0.97561 0.0
H1220 H 0.80507 0.62672 0.9362 0.0
H1221 H 0.7827 0.64945 0.96529 0.0
H1222 H 0.71706 0.62184 0.93636 0.0
H1223 H 0.73969 0.59815 0.90794 0.0
C1224 C 0.69958 0.65378 0.99956 0.0
C1225 C 0.7078 0.67552 0.00883 0.0
C1226 C 0.71249 0.64152 0.98195 0.0
C1227 C 0.73397 0.65072 0.97274 0.0
C1228 C 0.74215 0.67249 0.98221 0.0
C1229 C 0.72937 0.68457 1.00002 0.0
C1230 C 0.78584 0.62573 0.93572 0.0
C1231 C 0.77434 0.61047 0.9195 0.0
C1232 C 0.77286 0.63891 0.95256 0.0
C1233 C 0.74781 0.63758 0.95369 0.0
C1234 C 0.73626 0.62308 0.93671 0.0
C1235 C 0.74929 0.60967 0.92004 0.0
H1236 H 0.72921 0.4423 0.10667 0.0
H1237 H 0.78782 0.39273 0.10421 0.0
H1238 H 0.70854 0.41959 0.07636 0.0
H1239 H 0.76666 0.36934 0.07435 0.0
H1240 H 0.73624 0.34851 1.00123 0.0
H1241 H 0.75615 0.36938 0.0339 0.0
H1242 H 0.68761 0.38593 0.06459 0.0
H1243 H 0.66805 0.36579 0.03137 0.0
C1244 C 0.7375 0.42617 0.10016 0.0
C1245 C 0.76035 0.41951 0.10811 0.0
C1246 C 0.72552 0.41301 0.08261 0.0
C1247 C 0.73584 0.39255 0.0724 0.0
C1248 C 0.75821 0.38522 0.08121 0.0
C1249 C 0.77027 0.3985 0.09871 0.0
C1250 C 0.72554 0.35686 0.0149 0.0
C1251 C 0.70062 0.35585 0.01359 0.0
C1252 C 0.73691 0.36861 0.03387 0.0
C1253 C 0.72367 0.37951 0.05224 0.0
C1254 C 0.69861 0.37825 0.05079 0.0
C1255 C 0.6873 0.36663 0.03175 0.0
H1256 H 0.29409 0.68991 0.01159 0.0
H1257 H 0.35971 0.65673 0.03291 0.0
H1258 H 0.27279 0.66813 0.04253 0.0
H1259 H 0.339 0.63578 0.06471 0.0
H1260 H 0.29186 0.58247 0.10388 0.0
H1261 H 0.31404 0.60538 0.07495 0.0
H1262 H 0.26371 0.66306 0.08219 0.0
H1263 H 0.24081 0.63942 0.11034 0.0
C1264 C 0.30395 0.67796 0.02303 0.0
C1265 C 0.3285 0.67479 0.01961 0.0
C1266 C 0.29181 0.6656 0.04105 0.0
C1267 C 0.30393 0.64993 0.05653 0.0
C1268 C 0.32868 0.64712 0.05311 0.0
C1269 C 0.34071 0.65925 0.03487 0.0
C1270 C 0.28566 0.6002 0.09966 0.0
C1271 C 0.2644 0.60895 0.10966 0.0
C1272 C 0.29852 0.61351 0.08291 0.0
C1273 C 0.29083 0.63628 0.0757 0.0
C1274 C 0.27011 0.64547 0.08658 0.0
C1275 C 0.25706 0.63198 0.10313 0.0
H1276 H 0.29703 0.43782 0.91368 0.0
H1277 H 0.23416 0.39625 0.92775 0.0
H1278 H 0.31972 0.41301 0.94096 0.0
H1279 H 0.25651 0.37201 0.95579 0.0
H1280 H 0.30654 0.3212 0.99473 0.0
H1281 H 0.28502 0.34327 0.9642 0.0
H1282 H 0.32608 0.40596 0.98113 0.0
H1283 H 0.34852 0.38332 0.01045 0.0
C1284 C 0.28806 0.4232 0.92237 0.0
C1285 C 0.26366 0.41913 0.91829 0.0
C1286 C 0.30105 0.40908 0.93841 0.0
C1287 C 0.29008 0.39053 0.95119 0.0
C1288 C 0.26588 0.38587 0.94633 0.0
C1289 C 0.25294 0.39985 0.93009 0.0
C1290 C 0.31094 0.33973 0.99191 0.0
C1291 C 0.32905 0.3505 1.00541 0.0
C1292 C 0.29844 0.35252 0.97443 0.0
C1293 C 0.30357 0.37664 0.96989 0.0
C1294 C 0.32165 0.38742 0.98361 0.0
C1295 C 0.33428 0.37452 1.00093 0.0
H1296 H 0.62579 0.83852 0.89168 0.0
H1297 H 0.64302 0.90529 0.9254 0.0
H1298 H 0.64435 0.81723 0.92399 0.0
H1299 H 0.66216 0.88386 0.95799 0.0
H1300 H 0.64612 0.83598 0.02448 0.0
H1301 H 0.64499 0.86157 0.98971 0.0
H1302 H 0.67739 0.80587 0.94768 0.0
H1303 H 0.67751 0.77998 0.98229 0.0
C1304 C 0.6346 0.84871 0.90542 0.0
C1305 C 0.63314 0.87358 0.90591 0.0
C1306 C 0.64524 0.83645 0.92412 0.0
C1307 C 0.65463 0.84882 0.94375 0.0
C1308 C 0.65477 0.8738 0.94333 0.0
C1309 C 0.64395 0.88606 0.92464 0.0
C1310 C 0.65351 0.82943 0.00795 0.0
C1311 C 0.66135 0.80585 0.00591 0.0
C1312 C 0.65304 0.84415 0.988 0.0
C1313 C 0.6607 0.83561 0.96575 0.0
C1314 C 0.67079 0.81278 0.96439 0.0
C1315 C 0.67092 0.79797 0.98423 0.0
H1316 H 0.3997 0.21222 0.00921 0.0
H1317 H 0.33542 0.24281 0.98044 0.0
H1318 H 0.40041 0.18313 0.97702 0.0
H1319 H 0.33663 0.21406 0.94741 0.0
H1320 H 0.39176 0.12663 0.92419 0.0
H1321 H 0.3734 0.14837 0.95696 0.0
H1322 H 0.37387 0.21243 0.915 0.0
H1323 H 0.39313 0.19124 0.88271 0.0
C1324 C 0.38546 0.21231 0.9962 0.0
C1325 C 0.36752 0.22956 0.99713 0.0
C1326 C 0.38576 0.19564 0.97792 0.0
C1327 C 0.36847 0.19636 0.95993 0.0
C1328 C 0.34998 0.2131 0.96128 0.0
C1329 C 0.34929 0.22942 0.98007 0.0
C1330 C 0.38726 0.14519 0.92164 0.0
C1331 C 0.39397 0.15716 0.90079 0.0
C1332 C 0.37665 0.15753 0.94035 0.0
C1333 C 0.3723 0.18198 0.93838 0.0
C1334 C 0.37673 0.19346 0.91672 0.0
C1335 C 0.3877 0.1812 0.89811 0.0
H1336 H 0.64592 0.19762 0.9985 0.0
H1337 H 0.66543 0.25722 0.0429 0.0
H1338 H 0.64479 0.17205 0.03354 0.0
H1339 H 0.66495 0.23163 0.07768 0.0
H1340 H 0.64962 0.12977 0.10169 0.0
H1341 H 0.66467 0.15324 0.06828 0.0
H1342 H 0.62937 0.21538 0.09653 0.0
H1343 H 0.61415 0.19218 0.12912 0.0
C1344 C 0.65062 0.20508 0.01562 0.0
C1345 C 0.65519 0.22948 0.01811 0.0
C1346 C 0.65012 0.19042 0.03566 0.0
C1347 C 0.65438 0.19998 0.05838 0.0
C1348 C 0.66109 0.22391 0.06045 0.0
C1349 C 0.66137 0.23855 0.04054 0.0
C1350 C 0.64556 0.14858 0.10093 0.0
C1351 C 0.63124 0.15925 0.11842 0.0
C1352 C 0.65411 0.16195 0.08183 0.0
C1353 C 0.64841 0.18619 0.07993 0.0
C1354 C 0.63467 0.19691 0.09782 0.0
C1355 C 0.62606 0.18358 0.11674 0.0
H1356 H 0.38728 0.8353 1.00231 0.0
H1357 H 0.36034 0.77868 0.0465 0.0
H1358 H 0.39011 0.86104 0.03704 0.0
H1359 H 0.36249 0.80461 0.0811 0.0
H1360 H 0.41666 0.83904 0.13339 0.0
H1361 H 0.39826 0.81706 0.10145 0.0
H1362 H 0.37292 0.88266 0.07054 0.0
H1363 H 0.39143 0.90489 0.10307 0.0
C1364 C 0.38126 0.82861 0.01931 0.0
C1365 C 0.37415 0.80484 0.02183 0.0
C1366 C 0.38275 0.8434 0.03921 0.0
C1367 C 0.37694 0.83469 0.0619 0.0
C1368 C 0.36761 0.81164 0.06394 0.0
C1369 C 0.36635 0.79681 0.04412 0.0
C1370 C 0.40626 0.8488 0.12052 0.0
C1371 C 0.4051 0.8737 0.12106 0.0
C1372 C 0.39576 0.83615 0.10201 0.0
C1373 C 0.38403 0.8481 0.08346 0.0
C1374 C 0.38196 0.87297 0.08451 0.0
C1375 C 0.39247 0.88566 0.10313 0.0
H1376 H 0.98748 0.67827 0.78473 0.0
H1377 H 0.03168 0.64788 0.83971 0.0
H1378 H 0.95314 0.67621 0.81097 0.0
H1379 H 0.99717 0.64509 0.86573 0.0
H1380 H 0.93121 0.64155 0.90933 0.0
H1381 H 0.96364 0.66146 0.88826 0.0
H1382 H 0.93284 0.63971 0.8213 0.0
H1383 H 0.90112 0.61985 0.84208 0.0
C1384 C 0.98993 0.67159 0.80261 0.0
C1385 C 0.01207 0.66269 0.81004 0.0
C1386 C 0.97027 0.67039 0.81761 0.0
C1387 C 0.97233 0.65997 0.84018 0.0
C1388 C 0.995 0.65327 0.84845 0.0
C1389 C 0.01477 0.65474 0.8335 0.0
C1390 C 0.93115 0.64161 0.89008 0.0
C1391 C 0.91333 0.62953 0.87737 0.0
C1392 C 0.94969 0.65295 0.87806 0.0
C1393 C 0.95074 0.65229 0.85312 0.0
C1394 C 0.93227 0.64115 0.84048 0.0
C1395 C 0.91387 0.6298 0.85246 0.0
H1396 H 0.04764 0.35546 0.7793 0.0
H1397 H 0.00611 0.38836 0.8349 0.0
H1398 H 0.08224 0.35484 0.80531 0.0
H1399 H 0.04091 0.38865 0.86063 0.0
H1400 H 0.10528 0.38897 0.90455 0.0
H1401 H 0.0723 0.37048 0.88308 0.0
H1402 H 0.10656 0.38765 0.81652 0.0
H1403 H 0.13921 0.40565 0.83785 0.0
C1404 C 0.04582 0.36222 0.79723 0.0
C1405 C 0.02436 0.37244 0.80495 0.0
C1406 C 0.06566 0.3619 0.81211 0.0
C1407 C 0.06451 0.37216 0.83486 0.0
C1408 C 0.04243 0.38047 0.84327 0.0
C1409 C 0.02247 0.38047 0.82847 0.0
C1410 C 0.10601 0.38803 0.88533 0.0
C1411 C 0.1249 0.39855 0.87288 0.0
C1412 C 0.08711 0.37759 0.87305 0.0
C1413 C 0.08666 0.37775 0.84808 0.0
C1414 C 0.10645 0.38677 0.83574 0.0
C1415 C 0.12535 0.39708 0.84801 0.0
H1416 H 0.97403 0.36733 0.25735 0.0
H1417 H 0.01755 0.3926 0.1995 0.0
H1418 H 0.93989 0.36496 0.23086 0.0
H1419 H 0.98316 0.39159 0.17322 0.0
H1420 H 0.91993 0.38768 0.1276 0.0
H1421 H 0.95259 0.3722 0.15181 0.0
H1422 H 0.91552 0.39487 0.21526 0.0
H1423 H 0.88309 0.40949 0.19127 0.0
C1424 C 0.9763 0.37222 0.23888 0.0
C1425 C 0.99828 0.38055 0.23051 0.0
C1426 C 0.95673 0.37093 0.22371 0.0
C1427 C 0.95859 0.37851 0.19999 0.0
C1428 C 0.98104 0.38538 0.19129 0.0
C1429 C 1.00076 0.38618 0.20639 0.0
C1430 C 0.91854 0.38851 0.14679 0.0
C1431 C 0.89888 0.39948 0.15757 0.0
C1432 C 0.93729 0.37987 0.16064 0.0
C1433 C 0.93686 0.38249 0.1855 0.0
C1434 C 0.91638 0.39208 0.19624 0.0
C1435 C 0.8976 0.40044 0.18243 0.0
H1436 H 0.10586 0.65248 0.13958 0.0
H1437 H 0.14521 0.62585 0.20006 0.0
H1438 H 0.07339 0.66375 0.166 0.0
H1439 H 0.11403 0.63886 0.22616 0.0
H1440 H 0.04125 0.61806 0.25369 0.0
H1441 H 0.07665 0.61839 0.22954 0.0
H1442 H 0.05618 0.68626 0.19995 0.0
H1443 H 0.0199 0.68576 0.22421 0.0
C1444 C 0.10809 0.6499 0.15853 0.0
C1445 C 0.1283 0.63813 0.16751 0.0
C1446 C 0.08953 0.65655 0.17366 0.0
C1447 C 0.09099 0.65169 0.19807 0.0
C1448 C 0.11223 0.64236 0.20732 0.0
C1449 C 0.1305 0.63529 0.19221 0.0
C1450 C 0.0442 0.63317 0.24215 0.0
C1451 C 0.02775 0.6519 0.24089 0.0
C1452 C 0.06471 0.63348 0.22846 0.0
C1453 C 0.06948 0.65261 0.2132 0.0
C1454 C 0.05298 0.67135 0.21167 0.0
C1455 C 0.03225 0.67103 0.22548 0.0
H1456 H 0.90623 0.93097 0.64804 0.0
H1457 H 0.84015 0.89233 0.64095 0.0
H1458 H 0.88488 0.96343 0.66746 0.0
H1459 H 0.81934 0.92416 0.66127 0.0
H1460 H 0.78841 0.98635 0.70252 0.0
H1461 H 0.81659 0.95294 0.70016 0.0
H1462 H 0.85264 0.98769 0.64212 0.0
H1463 H 0.82412 0.02037 0.64392 0.0
C1464 C 0.88737 0.92893 0.65143 0.0
C1465 C 0.87498 0.90894 0.64292 0.0
C1466 C 0.87524 0.94746 0.66264 0.0
C1467 C 0.85055 0.94619 0.66583 0.0
C1468 C 0.83848 0.92534 0.65936 0.0
C1469 C 0.85053 0.90695 0.64778 0.0
C1470 C 0.80285 0.98706 0.68981 0.0
C1471 C 0.80427 0.00575 0.67337 0.0
C1472 C 0.81884 0.96801 0.68843 0.0
C1473 C 0.83677 0.9679 0.67106 0.0
C1474 C 0.83918 0.98754 0.65588 0.0
C1475 C 0.82286 0.00615 0.65682 0.0
H1476 H 0.91027 0.09917 0.39181 0.0
H1477 H 0.84435 0.13872 0.39477 0.0
H1478 H 0.88971 0.06694 0.3712 0.0
H1479 H 0.82441 0.10718 0.37333 0.0
H1480 H 0.82713 0.01092 0.39102 0.0
H1481 H 0.85634 0.04283 0.3939 0.0
H1482 H 0.82281 0.07879 0.33496 0.0
H1483 H 0.7939 0.04616 0.3316 0.0
C1484 C 0.89167 0.10144 0.38729 0.0
C1485 C 0.87906 0.12167 0.39492 0.0
C1486 C 0.88 0.08305 0.3754 0.0
C1487 C 0.85556 0.08468 0.37066 0.0
C1488 C 0.84339 0.10571 0.37638 0.0
C1489 C 0.85496 0.12395 0.38862 0.0
C1490 C 0.82662 0.02521 0.37813 0.0
C1491 C 0.80849 0.02623 0.36108 0.0
C1492 C 0.84334 0.04338 0.37968 0.0
C1493 C 0.84179 0.06319 0.3646 0.0
C1494 C 0.82441 0.06358 0.34664 0.0
C1495 C 0.808 0.04499 0.34469 0.0
H1496 H 0.1997 0.02306 0.38462 0.0
H1497 H 0.2573 0.97671 0.36366 0.0
H1498 H 0.17281 0.98911 0.3857 0.0
H1499 H 0.2303 0.94293 0.36379 0.0
H1500 H 0.18945 0.8916 0.4134 0.0
H1501 H 0.21393 0.92287 0.39746 0.0
H1502 H 0.1517 0.95641 0.36718 0.0
H1503 H 0.12689 0.92458 0.38339 0.0
C1504 C 0.20642 0.00572 0.37958 0.0
C1505 C 0.23065 1.00238 0.37461 0.0
C1506 C 0.19099 0.98627 0.38002 0.0
C1507 C 0.19953 0.96323 0.37522 0.0
C1508 C 0.22332 0.96035 0.36814 0.0
C1509 C 0.23877 0.9797 0.36803 0.0
C1510 C 0.18101 0.90492 0.40243 0.0
C1511 C 0.15626 0.90532 0.39923 0.0
C1512 C 0.19511 0.92306 0.39334 0.0
C1513 C 0.1848 0.94216 0.38095 0.0
C1514 C 0.16014 0.94203 0.37679 0.0
C1515 C 0.14598 0.92379 0.38595 0.0
H1516 H 0.1931 0.13695 0.63185 0.0
H1517 H 0.12712 0.09909 0.64301 0.0
H1518 H 0.21467 0.1053 0.65143 0.0
H1519 H 0.1493 0.06663 0.66141 0.0
H1520 H 0.24523 0.04251 0.69409 0.0
H1521 H 0.21694 0.07591 0.69249 0.0
H1522 H 0.1823 0.04342 0.63218 0.0
H1523 H 0.21104 0.01083 0.63312 0.0
C1524 C 0.18293 0.12259 0.63941 0.0
C1525 C 0.15822 0.12078 0.63591 0.0
C1526 C 0.19544 0.10429 0.65055 0.0
C1527 C 0.18356 0.08367 0.65788 0.0
C1528 C 0.15875 0.0825 0.65599 0.0
C1529 C 0.14616 0.10101 0.64531 0.0
C1530 C 0.23113 0.04232 0.68096 0.0
C1531 C 0.23014 0.02433 0.66367 0.0
C1532 C 0.21506 0.06131 0.68006 0.0
C1533 C 0.19746 0.06196 0.66236 0.0
C1534 C 0.19553 0.04305 0.64619 0.0
C1535 C 0.21197 0.02454 0.64664 0.0
H1536 H 0.43735 0.24229 0.07718 0.0
H1537 H 0.41356 0.28172 0.13864 0.0
H1538 H 0.46653 0.22155 0.10161 0.0
H1539 H 0.4425 0.26005 0.16333 0.0
H1540 H 0.48237 0.19084 0.19671 0.0
H1541 H 0.45183 0.21273 0.17488 0.0
H1542 H 0.50507 0.23818 0.12616 0.0
H1543 H 0.53605 0.21767 0.14902 0.0
C1544 C 0.43789 0.24623 0.09601 0.0
C1545 C 0.42283 0.26375 0.10584 0.0
C1546 C 0.45487 0.23442 0.10998 0.0
C1547 C 0.45703 0.23927 0.13437 0.0
C1548 C 0.44131 0.25593 0.14457 0.0
C1549 C 0.42464 0.26827 0.13043 0.0
C1550 C 0.48784 0.2017 0.18187 0.0
C1551 C 0.51197 0.20269 0.175 0.0
C1552 C 0.47018 0.21407 0.16917 0.0
C1553 C 0.47597 0.22723 0.14879 0.0
C1554 C 0.49999 0.22813 0.14175 0.0
C1555 C 0.51775 0.21628 0.15482 0.0
H1556 H 0.61446 0.79308 0.08748 0.0
H1557 H 0.61148 0.73468 0.13701 0.0
H1558 H 0.58603 0.81504 0.11139 0.0
H1559 H 0.58367 0.75711 0.16165 0.0
H1560 H 0.51304 0.79074 0.18588 0.0
H1561 H 0.54412 0.76942 0.16405 0.0
H1562 H 0.57619 0.83657 0.14498 0.0
H1563 H 0.5444 0.85753 0.16599 0.0
C1564 C 0.60827 0.7851 0.10384 0.0
C1565 C 0.61547 0.76195 0.11015 0.0
C1566 C 0.5918 0.79783 0.11772 0.0
C1567 C 0.58204 0.788 0.1386 0.0
C1568 C 0.59015 0.76526 0.1455 0.0
C1569 C 0.60649 0.75243 0.13148 0.0
C1570 C 0.52673 0.80083 0.17689 0.0
C1571 C 0.52617 0.82577 0.17741 0.0
C1572 C 0.54479 0.78864 0.16452 0.0
C1573 C 0.56302 0.80106 0.15251 0.0
C1574 C 0.56244 0.82615 0.15346 0.0
C1575 C 0.54426 0.83828 0.16564 0.0
H1576 H 0.41114 0.79386 0.93361 0.0
H1577 H 0.43269 0.73013 0.89664 0.0
H1578 H 0.4385 0.81712 0.90945 0.0
H1579 H 0.4606 0.75319 0.87304 0.0
H1580 H 0.49871 0.80342 0.82187 0.0
H1581 H 0.46809 0.78114 0.84307 0.0
H1582 H 0.47916 0.82536 0.90492 0.0
H1583 H 0.50875 0.8483 0.88316 0.0
C1584 C 0.42146 0.78478 0.92013 0.0
C1585 C 0.41948 0.75998 0.9172 0.0
C1586 C 0.43751 0.79815 0.9064 0.0
C1587 C 0.4523 0.78719 0.88933 0.0
C1588 C 0.44956 0.76251 0.88574 0.0
C1589 C 0.43341 0.74917 0.89938 0.0
C1590 C 0.49458 0.80835 0.84002 0.0
C1591 C 0.50657 0.82745 0.85086 0.0
C1592 C 0.47705 0.79545 0.85231 0.0
C1593 C 0.47089 0.80121 0.87593 0.0
C1594 C 0.48298 0.82039 0.88674 0.0
C1595 C 0.50041 0.83335 0.87437 0.0
H1596 H 0.5309 0.22629 0.81551 0.0
H1597 H 0.5168 0.18464 0.87813 0.0
H1598 H 0.56144 0.24842 0.83707 0.0
H1599 H 0.54622 0.20755 0.90019 0.0
H1600 H 0.61422 0.23773 0.93049 0.0
H1601 H 0.58676 0.21449 0.90631 0.0
H1602 H 0.56919 0.27735 0.86593 0.0
H1603 H 0.59728 0.30031 0.88956 0.0
C1604 C 0.53411 0.22204 0.83401 0.0
C1605 C 0.52104 0.20385 0.84509 0.0
C1606 C 0.55159 0.23489 0.84651 0.0
C1607 C 0.55658 0.23001 0.8706 0.0
C1608 C 0.54335 0.21181 0.88166 0.0
C1609 C 0.526 0.19888 0.86909 0.0
C1610 C 0.60486 0.24654 0.91616 0.0
C1611 C 0.60819 0.27102 0.91209 0.0
C1612 C 0.58874 0.23321 0.90241 0.0
C1613 C 0.57521 0.2439 0.88418 0.0
C1614 C 0.57926 0.26821 0.87954 0.0
C1615 C 0.5955 0.2815 0.89319 0.0
H1616 H 0.07407 0.44409 0.24945 0.0
H1617 H 0.13661 0.41733 0.28509 0.0
H1618 H 0.09865 0.47243 0.22758 0.0
H1619 H 0.16135 0.44525 0.26227 0.0
H1620 H 0.19075 0.48142 0.18858 0.0
H1621 H 0.16805 0.45273 0.21184 0.0
H1622 H 0.12885 0.50995 0.24436 0.0
H1623 H 0.15292 0.53902 0.22242 0.0
C1624 C 0.09313 0.44387 0.25233 0.0
C1625 C 0.10329 0.42815 0.26903 0.0
C1626 C 0.10717 0.46033 0.2399 0.0
C1627 C 0.13192 0.46122 0.24326 0.0
C1628 C 0.14231 0.44503 0.25931 0.0
C1629 C 0.12814 0.42896 0.27231 0.0
C1630 C 0.17791 0.48811 0.20123 0.0
C1631 C 0.17419 0.5128 0.20387 0.0
C1632 C 0.16467 0.47152 0.21439 0.0
C1633 C 0.14672 0.47901 0.23005 0.0
C1634 C 0.14258 0.5036 0.23245 0.0
C1635 C 0.15631 0.52025 0.21976 0.0
H1636 H 0.88859 0.59627 0.30055 0.0
H1637 H 0.93096 0.61346 0.23908 0.0
H1638 H 0.86492 0.56905 0.27674 0.0
H1639 H 0.90653 0.58717 0.21482 0.0
H1640 H 0.87693 0.51958 0.18178 0.0
H1641 H 0.89917 0.54813 0.20546 0.0
H1642 H 0.83669 0.5609 0.24838 0.0
H1643 H 0.8152 0.53083 0.22572 0.0
C1644 C 0.89248 0.59478 0.28176 0.0
C1645 C 0.91181 0.60722 0.27187 0.0
C1646 C 0.87879 0.57904 0.26795 0.0
C1647 C 0.8837 0.57536 0.24361 0.0
C1648 C 0.90237 0.58875 0.23352 0.0
C1649 C 0.91628 0.60423 0.24743 0.0
C1650 C 0.86811 0.52799 0.19667 0.0
C1651 C 0.84435 0.52236 0.2021 0.0
C1652 C 0.88077 0.54492 0.21005 0.0
C1653 C 0.86998 0.55724 0.22911 0.0
C1654 C 0.84603 0.55174 0.23428 0.0
C1655 C 0.83351 0.53455 0.22109 0.0
H1656 H 0.13449 0.60151 0.73273 0.0
H1657 H 0.09826 0.62234 0.79708 0.0
H1658 H 0.15813 0.57301 0.75515 0.0
H1659 H 0.12242 0.59434 0.81967 0.0
H1660 H 0.14825 0.52322 0.84931 0.0
H1661 H 0.12654 0.55337 0.82697 0.0
H1662 H 0.18838 0.56487 0.78295 0.0
H1663 H 0.20956 0.53376 0.80467 0.0
C1664 C 0.13193 0.6005 0.75177 0.0
C1665 C 0.1143 0.61442 0.76294 0.0
C1666 C 0.14558 0.58401 0.76474 0.0
C1667 C 0.14217 0.58088 0.78938 0.0
C1668 C 0.12531 0.59563 0.8007 0.0
C1669 C 0.1116 0.61205 0.78772 0.0
C1670 C 0.15705 0.5318 0.83453 0.0
C1671 C 0.18056 0.52563 0.82854 0.0
C1672 C 0.14471 0.54953 0.82192 0.0
C1673 C 0.15554 0.56191 0.80299 0.0
C1674 C 0.17914 0.55571 0.79709 0.0
C1675 C 0.19142 0.5379 0.80967 0.0
H1676 H 0.87039 0.53294 0.79707 0.0
H1677 H 0.84777 0.48074 0.84818 0.0
H1678 H 0.89116 0.50179 0.77448 0.0
H1679 H 0.86871 0.4496 0.82589 0.0
H1680 H 0.93409 0.40859 0.7923 0.0
H1681 H 0.91072 0.43742 0.8151 0.0
H1682 H 0.88138 0.46528 0.75001 0.0
H1683 H 0.90438 0.43635 0.72723 0.0
C1684 C 0.86991 0.5148 0.80347 0.0
C1685 C 0.85734 0.50928 0.8243 0.0
C1686 C 0.88168 0.4969 0.79049 0.0
C1687 C 0.88156 0.47305 0.79824 0.0
C1688 C 0.86929 0.46769 0.81937 0.0
C1689 C 0.85721 0.48552 0.83211 0.0
C1690 C 0.92226 0.42047 0.78283 0.0
C1691 C 0.92118 0.41989 0.7578 0.0
C1692 C 0.90888 0.43711 0.79595 0.0
C1693 C 0.89434 0.45398 0.78444 0.0
C1694 C 0.89262 0.45285 0.7595 0.0
C1695 C 0.90566 0.43598 0.74642 0.0
H1696 H 0.17928 0.17681 0.48109 0.0
H1697 H 0.23496 0.16423 0.53218 0.0
H1698 H 0.20201 0.15516 0.45081 0.0
H1699 H 0.25795 0.14268 0.50189 0.0
H1700 H 0.3031 0.12725 0.43539 0.0
H1701 H 0.27977 0.15047 0.46376 0.0
H1702 H 0.2161 0.11402 0.44136 0.0
H1703 H 0.23944 0.09058 0.41309 0.0
C1704 C 0.19642 0.16937 0.48582 0.0
C1705 C 0.20538 0.17229 0.50899 0.0
C1706 C 0.20944 0.15689 0.46849 0.0
C1707 C 0.23196 0.14722 0.47374 0.0
C1708 C 0.24085 0.15011 0.49704 0.0
C1709 C 0.22763 0.16231 0.51447 0.0
C1710 C 0.28406 0.12442 0.43613 0.0
C1711 C 0.27326 0.10697 0.42171 0.0
C1712 C 0.27069 0.13759 0.45268 0.0
C1713 C 0.24602 0.13403 0.45514 0.0
C1714 C 0.23502 0.11736 0.43999 0.0
C1715 C 0.24844 0.10391 0.42368 0.0
H1716 H 0.23695 0.83869 0.50703 0.0
H1717 H 0.17018 0.86422 0.53442 0.0
H1718 H 0.25818 0.85967 0.53878 0.0
H1719 H 0.19095 0.88441 0.5668 0.0
H1720 H 0.23611 0.93982 0.60568 0.0
H1721 H 0.21427 0.91671 0.57663 0.0
H1722 H 0.26851 0.86229 0.57909 0.0
H1723 H 0.291 0.88615 0.60763 0.0
C1724 C 0.22684 0.84881 0.51994 0.0
C1725 C 0.20196 0.85016 0.51802 0.0
C1726 C 0.23896 0.86067 0.53839 0.0
C1727 C 0.22649 0.87401 0.55567 0.0
C1728 C 0.20144 0.8749 0.55377 0.0
C1729 C 0.18941 0.86323 0.53521 0.0
C1730 C 0.24331 0.92275 0.60041 0.0
C1731 C 0.2655 0.91502 0.60922 0.0
C1732 C 0.23063 0.90932 0.58361 0.0
C1733 C 0.23948 0.88748 0.57503 0.0
C1734 C 0.26117 0.87919 0.58468 0.0
C1735 C 0.27399 0.89276 0.60144 0.0
H1736 H 0.73137 0.12985 0.59698 0.0
H1737 H 0.79729 0.09969 0.62215 0.0
H1738 H 0.75292 0.15248 0.56732 0.0
H1739 H 0.8192 0.12338 0.59335 0.0
H1740 H 0.85162 0.14789 0.52365 0.0
H1741 H 0.82972 0.12662 0.55423 0.0
H1742 H 0.77702 0.18266 0.5552 0.0
H1743 H 0.79814 0.20277 0.52319 0.0
C1744 C 0.75059 0.12856 0.59672 0.0
C1745 C 0.76246 0.11282 0.61218 0.0
C1746 C 0.76312 0.14167 0.57952 0.0
C1747 C 0.78808 0.13984 0.57733 0.0
C1748 C 0.80002 0.12499 0.5937 0.0
C1749 C 0.78743 0.11158 0.61065 0.0
C1750 C 0.83507 0.1554 0.53001 0.0
C1751 C 0.82658 0.17699 0.52067 0.0
C1752 C 0.82263 0.14339 0.54806 0.0
C1753 C 0.8014 0.15274 0.55777 0.0
C1754 C 0.79296 0.17441 0.54826 0.0
C1755 C 0.80523 0.18618 0.52994 0.0
H1756 H 0.80044 0.83054 0.50891 0.0
H1757 H 0.85056 0.88823 0.51358 0.0
H1758 H 0.77945 0.85108 0.477 0.0
H1759 H 0.82882 0.90967 0.48282 0.0
H1760 H 0.79898 0.93604 0.41323 0.0
H1761 H 0.82046 0.91262 0.44265 0.0
H1762 H 0.7542 0.8813 0.4656 0.0
H1763 H 0.73303 0.90389 0.43546 0.0
C1764 C 0.80674 0.84786 0.50337 0.0
C1765 C 0.82712 0.85774 0.51403 0.0
C1766 C 0.79459 0.85981 0.48507 0.0
C1767 C 0.80224 0.88225 0.47691 0.0
C1768 C 0.82242 0.89231 0.48803 0.0
C1769 C 0.83472 0.8802 0.50615 0.0
C1770 C 0.78904 0.92376 0.42418 0.0
C1771 C 0.76417 0.92191 0.4217 0.0
C1772 C 0.80137 0.9105 0.44146 0.0
C1773 C 0.78925 0.89512 0.45712 0.0
C1774 C 0.76446 0.89262 0.45395 0.0
C1775 C 0.75218 0.90567 0.43649 0.0
H1776 H 0.98973 0.44997 0.32368 0.0
H1777 H 0.05525 0.463 0.36191 0.0
H1778 H 0.97649 0.49026 0.33294 0.0
H1779 H 0.04203 0.50333 0.37072 0.0
H1780 H 0.02464 0.5759 0.32762 0.0
H1781 H 0.03643 0.53499 0.33589 0.0
H1782 H 0.96798 0.52161 0.36788 0.0
H1783 H 0.95624 0.56274 0.3601 0.0
C1784 C 1.00102 0.46121 0.33451 0.0
C1785 C 0.02368 0.45351 0.34167 0.0
C1786 C 0.99338 0.48415 0.33996 0.0
C1787 C 0.0084 0.49976 0.35237 0.0
C1788 C 0.03025 0.49152 0.36108 0.0
C1789 C 0.03774 0.46847 0.35599 0.0
C1790 C 0.01235 0.56441 0.33696 0.0
C1791 C 0.98947 0.57233 0.34297 0.0
C1792 C 0.01915 0.54111 0.34185 0.0
C1793 C 1.00301 0.52532 0.35245 0.0
C1794 C 0.98065 0.53358 0.35972 0.0
C1795 C 0.97401 0.55705 0.35527 0.0
H1796 H 0.03904 0.57627 0.67326 0.0
H1797 H 0.01313 0.57725 0.74561 0.0
H1798 H 0.03042 0.53399 0.67064 0.0
H1799 H 1.00414 0.53495 0.74274 0.0
H1800 H 0.02298 0.45671 0.74098 0.0
H1801 H 0.03063 0.49929 0.74041 0.0
H1802 H 0.99804 0.50432 0.67106 0.0
H1803 H 0.99067 0.46171 0.67134 0.0
C1804 C 0.03102 0.56757 0.68843 0.0
C1805 C 0.02704 0.58001 0.70977 0.0
C1806 C 0.0261 0.54337 0.68689 0.0
C1807 C 0.01714 0.53117 0.70666 0.0
C1808 C 0.01161 0.5439 0.72744 0.0
C1809 C 0.01645 0.56816 0.72897 0.0
C1810 C 0.01788 0.46677 0.72539 0.0
C1811 C 1.00601 0.45586 0.70631 0.0
C1812 C 0.02196 0.4912 0.72523 0.0
C1813 C 0.01437 0.50511 0.70595 0.0
C1814 C 1.00393 0.494 0.6862 0.0
C1815 C 0.99978 0.46959 0.68637 0.0
H1816 H 0.31437 0.99204 0.44941 0.0
H1817 H 0.35948 0.05275 0.46349 0.0
H1818 H 0.31885 0.97952 0.49079 0.0
H1819 H 0.36335 0.04039 0.50479 0.0
H1820 H 0.31589 0.02855 0.57619 0.0
H1821 H 0.32432 0.03854 0.53475 0.0
H1822 H 0.35427 0.96876 0.52364 0.0
H1823 H 0.34649 0.95883 0.56514 0.0
C1824 C 0.32561 1.00239 0.46116 0.0
C1825 C 0.33632 0.0235 0.45331 0.0
C1826 C 0.32824 0.99519 0.48472 0.0
C1827 C 0.34129 0.00919 0.50073 0.0
C1828 C 0.35317 0.02945 0.49262 0.0
C1829 C 0.35094 0.03641 0.469 0.0
C1830 C 0.32471 0.01555 0.56503 0.0
C1831 C 0.33041 0.99291 0.57378 0.0
C1832 C 0.32963 0.02129 0.54145 0.0
C1833 C 0.33986 1.00432 0.52627 0.0
C1834 C 0.34639 0.98203 0.53518 0.0
C1835 C 0.34196 0.97646 0.55887 0.0
H1836 H 0.67478 0.04324 0.57397 0.0
H1837 H 0.74376 0.00901 0.57576 0.0
H1838 H 0.67234 0.03588 0.53126 0.0
H1839 H 0.74114 1.00178 0.53322 0.0
H1840 H 0.74528 0.0257 0.45714 0.0
H1841 H 0.74187 0.03341 0.49955 0.0
H1842 H 0.67223 1.00116 0.50013 0.0
H1843 H 0.67545 0.99334 0.45756 0.0
C1844 C 0.68917 0.03372 0.56539 0.0
C1845 C 0.70967 0.02706 0.57815 0.0
C1846 C 0.68775 0.02958 0.54099 0.0
C1847 C 0.70684 0.01889 0.52907 0.0
C1848 C 0.72647 0.01061 0.54207 0.0
C1849 C 0.72783 0.01454 0.56644 0.0
C1850 C 0.729 0.02071 0.46612 0.0
C1851 C 0.71081 0.00853 0.4541 0.0
C1852 C 0.72718 0.02492 0.49042 0.0
C1853 C 0.70707 0.01726 0.50301 0.0
C1854 C 0.68799 0.00698 0.49072 0.0
C1855 C 0.68987 1.00257 0.4664 0.0
H1856 H 0.46599 0.34437 0.06423 0.0
H1857 H 0.45289 0.31802 0.99318 0.0
H1858 H 0.5075 0.35186 0.05384 0.0
H1859 H 0.4943 0.32613 0.98277 0.0
H1860 H 0.56624 0.35873 0.96846 0.0
H1861 H 0.52534 0.36352 0.98188 0.0
H1862 H 0.53924 0.31682 0.04104 0.0
H1863 H 0.58022 0.31146 0.02747 0.0
C1864 C 0.47182 0.34076 0.04623 0.0
C1865 C 0.45635 0.33042 0.02951 0.0
C1866 C 0.49551 0.34501 0.0404 0.0
C1867 C 0.50384 0.33953 0.01761 0.0
C1868 C 0.48807 0.33063 1.00043 0.0
C1869 C 0.4645 0.32589 0.0064 0.0
C1870 C 0.56081 0.34986 0.98464 0.0
C1871 C 0.57632 0.33438 0.99674 0.0
C1872 C 0.53742 0.35265 0.99223 0.0
C1873 C 0.52936 0.34044 0.0123 0.0
C1874 C 0.54527 0.32648 0.02553 0.0
C1875 C 0.5686 0.32333 0.01771 0.0
H1876 H 0.57736 0.73966 0.00805 0.0
H1877 H 0.57424 0.67111 0.04268 0.0
H1878 H 0.53498 0.73717 0.99944 0.0
H1879 H 0.53174 0.66879 0.03399 0.0
H1880 H 0.46018 0.66918 0.98944 0.0
H1881 H 0.50253 0.66733 0.99887 0.0
H1882 H 0.49921 0.73844 0.02762 0.0
H1883 H 0.45695 0.74046 0.01824 0.0
C1884 C 0.56777 0.72386 0.01343 0.0
C1885 C 0.5791 0.7057 0.02628 0.0
C1886 C 0.54348 0.72259 0.00873 0.0
C1887 C 0.53013 0.70304 0.01656 0.0
C1888 C 0.54168 0.68411 0.02793 0.0
C1889 C 0.56598 0.68546 0.03284 0.0
C1890 C 0.46838 0.68426 0.99819 0.0
C1891 C 0.45529 0.70509 1.00283 0.0
C1892 C 0.49259 0.68317 1.00354 0.0
C1893 C 0.5041 0.70294 0.01344 0.0
C1894 C 0.49075 0.72316 0.01949 0.0
C1895 C 0.46652 0.72419 0.01435 0.0
H1896 H 0.46703 0.06736 0.84486 0.0
H1897 H 0.53334 0.07851 0.80757 0.0
H1898 H 0.47781 0.02586 0.85145 0.0
H1899 H 0.54424 0.03703 0.81479 0.0
H1900 H 0.56078 0.9644 0.84781 0.0
H1901 H 0.54987 0.0061 0.85282 0.0
H1902 H 0.48453 0.99377 0.81448 0.0
H1903 H 0.49556 0.95207 0.80884 0.0
C1904 C 0.48417 0.06114 0.83863 0.0
C1905 C 0.49929 0.07606 0.82547 0.0
C1906 C 0.49023 0.03743 0.84238 0.0
C1907 C 0.51172 0.02851 0.83355 0.0
C1908 C 0.5276 0.04374 0.82185 0.0
C1909 C 0.52134 0.06735 0.81764 0.0
C1910 C 0.54384 0.97043 0.84086 0.0
C1911 C 0.52908 0.95508 0.82771 0.0
C1912 C 0.53771 0.99425 0.84372 0.0
C1913 C 0.51649 1.00288 0.83398 0.0
C1914 C 0.50094 0.98729 0.82224 0.0
C1915 C 0.50729 0.96355 0.81893 0.0
H1916 H 0.52489 0.95363 0.24323 0.0
H1917 H 0.49559 0.95753 0.17221 0.0
H1918 H 0.53443 0.99584 0.24152 0.0
H1919 H 0.50476 0.99973 0.17079 0.0
H1920 H 0.54654 0.07057 0.17156 0.0
H1921 H 0.53789 0.02825 0.17053 0.0
H1922 H 0.50935 0.03243 0.24167 0.0
H1923 H 0.5184 0.07478 0.24298 0.0
C1924 C 0.52087 0.96335 0.22711 0.0
C1925 C 0.50927 0.9523 0.20795 0.0
C1926 C 0.52604 0.98757 0.22627 0.0
C1927 C 0.51982 1.00108 0.20623 0.0
C1928 C 0.50966 0.98973 0.18649 0.0
C1929 C 0.50444 0.96555 0.18733 0.0
C1930 C 0.53809 0.06257 0.18687 0.0
C1931 C 0.53337 0.07597 0.20746 0.0
C1932 C 0.53316 0.03833 0.18626 0.0
C1933 C 0.52341 0.02705 0.20619 0.0
C1934 C 0.51742 0.04066 0.22627 0.0
C1935 C 0.5223 0.06494 0.22688 0.0
H1936 H 0.85273 0.4836 0.0716 0.0
H1937 H 0.78513 0.52043 0.0694 0.0
H1938 H 0.85771 0.49033 0.02905 0.0
H1939 H 0.79028 0.5271 0.027 0.0
H1940 H 0.79035 0.50669 0.95015 0.0
H1941 H 0.79033 0.49721 0.99233 0.0
H1942 H 0.86174 0.52462 0.99896 0.0
H1943 H 0.86197 0.53412 0.95669 0.0
C1944 C 0.83915 0.49349 0.06215 0.0
C1945 C 0.81838 0.50125 0.07378 0.0
C1946 C 0.84202 0.49725 0.03784 0.0
C1947 C 0.82409 0.50866 0.02482 0.0
C1948 C 0.80407 0.51772 0.03666 0.0
C1949 C 0.80128 0.51415 0.06097 0.0
C1950 C 0.80629 0.51017 0.96041 0.0
C1951 C 0.82599 0.52157 0.9502 0.0
C1952 C 0.80616 0.50496 0.98458 0.0
C1953 C 0.8258 0.51083 0.99883 0.0
C1954 C 0.84633 0.52015 0.98829 0.0
C1955 C 0.84642 0.52554 0.96411 0.0
H1956 H 0.22075 0.53454 0.95384 0.0
H1957 H 0.18266 0.46856 0.96404 0.0
H1958 H 0.21274 0.54536 0.99522 0.0
H1959 H 0.17528 0.47926 1.00541 0.0
H1960 H 0.21453 0.49759 0.08087 0.0
H1961 H 0.21042 0.48595 0.03917 0.0
H1962 H 0.17358 0.55158 0.02428 0.0
H1963 H 0.17705 0.56312 0.0659 0.0
C1964 C 0.21043 0.52256 0.96479 0.0
C1965 C 0.20246 0.50069 0.95581 0.0
C1966 C 0.20576 0.52877 0.98833 0.0
C1967 C 0.19347 0.51303 1.00323 0.0
C1968 C 0.18478 0.49159 0.9941 0.0
C1969 C 0.189 0.48558 0.97047 0.0
C1970 C 0.20502 0.50924 0.06884 0.0
C1971 C 0.19634 0.53134 0.07657 0.0
C1972 C 0.20262 0.50256 0.04508 0.0
C1973 C 0.19188 0.51806 0.02876 0.0
C1974 C 0.182 0.53948 0.03668 0.0
C1975 C 0.18395 0.54596 0.06049 0.0
H1976 H 0.9613 0.86235 0.55586 0.0
H1977 H 0.95656 0.79792 0.51396 0.0
H1978 H 1.00403 0.86433 0.54758 0.0
H1979 H 0.99898 0.79995 0.50612 0.0
H1980 H 0.07567 0.79132 0.52499 0.0
H1981 H 0.03444 0.79576 0.53753 0.0
H1982 H 0.03279 0.86681 0.50879 0.0
H1983 H 0.07412 0.86253 0.49604 0.0
C1984 C 0.96924 0.84887 0.5446 0.0
C1985 C 0.95562 0.82979 0.53581 0.0
C1986 C 0.99363 0.85 0.54 0.0
C1987 C 1.00463 0.83194 0.52681 0.0
C1988 C 0.99083 0.81375 0.51684 0.0
C1989 C 0.96652 0.81275 0.52116 0.0
C1990 C 0.0668 0.80814 0.52189 0.0
C1991 C 0.07795 0.82639 0.5091 0.0
C1992 C 0.0432 0.81059 0.52894 0.0
C1993 C 0.03054 0.83142 0.52359 0.0
C1994 C 0.04228 0.85056 0.51292 0.0
C1995 C 0.06586 0.84804 0.50563 0.0
H1996 H 0.07547 0.23391 0.50989 0.0
H1997 H 0.07158 0.16556 0.54488 0.0
H1998 H 0.03304 0.23209 0.50172 0.0
H1999 H 0.02893 0.16388 0.53647 0.0
H2000 H 0.95705 0.16759 0.49038 0.0
H2001 H 0.99923 0.16383 0.50021 0.0
H2002 H 0.99801 0.23367 0.53202 0.0
H2003 H 0.95597 0.2376 0.52234 0.0
C2004 C 0.06571 0.21829 0.51545 0.0
C2005 C 0.07684 0.20003 0.52833 0.0
C2006 C 0.04139 0.21739 0.51097 0.0
C2007 C 0.02781 0.19813 0.51904 0.0
C2008 C 0.03911 0.179 0.53031 0.0
C2009 C 0.06348 0.17998 0.53503 0.0
C2010 C 0.96565 0.18194 0.49993 0.0
C2011 C 0.9533 0.20307 0.50525 0.0
C2012 C 0.98974 0.17974 0.50552 0.0
C2013 C 1.00179 0.19869 0.51631 0.0
C2014 C 0.98908 0.21904 0.52321 0.0
C2015 C 0.96499 0.22117 0.51786 0.0
loop_
_geom_bond_atom_site_label_1
_geom_bond_atom_site_label_2
_geom_bond_distance
_geom_bond_site_symmetry_2
_ccdc_geom_bond_type
Co0 O3 1.945 1_655 S
Co0 N17 1.996 . S
Co0 O25 1.959 1_655 S
Co0 O32 1.944 . S
Co1 O4 1.966 . S
Co1 N10 2.022 . S
Co1 N18 1.993 . S
Co1 O26 1.941 . S
C2 O3 1.258 . S
C2 O4 1.263 . S
O3 Co0 1.945 1_455 S
O3 C2 1.258 . S
O4 Co1 1.966 . S
O4 C2 1.263 . S
C5 O6 1.235 . S
C5 O32 1.289 . S
O6 C5 1.235 . S
C7 C9 1.400 . S
C7 N10 1.351 . S
C7 C12 1.501 . S
C8 C9 1.387 . S
C8 N11 1.341 . S
C9 C7 1.400 . S
C9 C8 1.387 . S
N10 Co1 2.022 . S
N10 C7 1.351 . S
N10 N11 1.365 . S
N11 C8 1.341 . S
N11 N10 1.365 . S
N11 H31 0.862 . S
C12 C7 1.501 . S
C12 H13 0.961 . S
C12 H14 0.961 . S
C12 H15 0.960 . S
H13 C12 0.961 . S
H14 C12 0.961 . S
H15 C12 0.960 . S
C16 N17 1.342 . S
C16 C20 1.401 . S
C16 C21 1.499 . S
N17 Co0 1.996 . S
N17 C16 1.342 . S
N17 N18 1.388 1_655 S
N18 Co1 1.993 . S
N18 N17 1.388 1_455 S
N18 C19 1.361 . S
C19 N18 1.361 . S
C19 C20 1.358 1_455 S
C19 C29 1.532 . S
C20 C16 1.401 . S
C20 C19 1.358 1_655 S
C21 C16 1.499 . S
C21 H22 0.959 . S
C21 H23 0.960 . S
C21 H24 0.961 . S
H22 C21 0.959 . S
H23 C21 0.960 . S
H24 C21 0.961 . S
O25 Co0 1.959 1_455 S
O25 C33 1.258 . S
O26 Co1 1.941 . S
O26 C33 1.266 . S
H27 C29 0.959 . S
H28 C29 0.961 . S
C29 C19 1.532 . S
C29 H27 0.959 . S
C29 H28 0.961 . S
C29 H30 0.960 . S
H30 C29 0.960 . S
H31 N11 0.862 . S
O32 Co0 1.944 . S
O32 C5 1.289 . S
C33 O25 1.258 . S
C33 O26 1.266 . S
Co34 O37 1.970 1_455 S
Co34 N51 1.989 . S
Co34 O59 1.967 . S
Co34 O66 1.920 . S
Co35 O38 1.966 . S
Co35 N44 2.022 . S
Co35 N52 1.993 1_655 S
Co35 O60 1.941 . S
C36 O37 1.258 . S
C36 O38 1.263 . S
O37 Co34 1.970 1_655 S
O37 C36 1.258 . S
O38 Co35 1.966 . S
O38 C36 1.263 . S
C39 O40 1.235 . S
C39 O66 1.289 . S
O40 C39 1.235 . S
C41 C43 1.400 . S
C41 N44 1.351 . S
C41 C46 1.501 . S
C42 C43 1.387 . S
C42 N45 1.341 . S
C43 C41 1.400 . S
C43 C42 1.387 . S
N44 Co35 2.022 . S
N44 C41 1.351 . S
N44 N45 1.365 . S
N45 C42 1.341 . S
N45 N44 1.365 . S
N45 H65 0.862 . S
C46 C41 1.501 . S
C46 H47 0.961 . S
C46 H48 0.961 . S
C46 H49 0.960 . S
H47 C46 0.961 . S
H48 C46 0.961 . S
H49 C46 0.960 . S
C50 N51 1.342 . S
C50 C54 1.401 . S
C50 C55 1.499 . S
N51 Co34 1.989 . S
N51 C50 1.342 . S
N51 N52 1.388 . S
N52 Co35 1.993 1_455 S
N52 N51 1.388 . S
N52 C53 1.346 . S
C53 N52 1.346 . S
C53 C54 1.396 . S
C53 C63 1.510 . S
C54 C50 1.401 . S
C54 C53 1.396 . S
C55 C50 1.499 . S
C55 H56 0.959 . S
C55 H57 0.960 . S
C55 H58 0.961 . S
H56 C55 0.959 . S
H57 C55 0.960 . S
H58 C55 0.961 . S
O59 Co34 1.967 . S
O59 C67 1.253 1_455 S
O60 Co35 1.941 . S
O60 C67 1.272 . S
H61 C63 0.959 . S
H62 C63 0.961 . S
C63 C53 1.510 . S
C63 H61 0.959 . S
C63 H62 0.961 . S
C63 H64 0.960 1_455 S
H64 C63 0.960 1_655 S
H65 N45 0.862 . S
O66 Co34 1.920 . S
O66 C39 1.289 . S
C67 O59 1.253 1_655 S
C67 O60 1.272 . S
Co68 O71 1.945 1_655 S
Co68 N85 1.996 . S
Co68 O93 1.959 1_655 S
Co68 O100 1.944 . S
Co69 O72 1.966 . S
Co69 N78 2.022 . S
Co69 N86 1.993 . S
Co69 O94 1.941 . S
C70 O71 1.258 . S
C70 O72 1.263 . S
O71 Co68 1.945 1_455 S
O71 C70 1.258 . S
O72 Co69 1.966 . S
O72 C70 1.263 . S
C73 O74 1.235 . S
C73 O100 1.289 . S
O74 C73 1.235 . S
C75 C77 1.400 . S
C75 N78 1.351 . S
C75 C80 1.501 . S
C76 C77 1.387 . S
C76 N79 1.341 . S
C77 C75 1.400 . S
C77 C76 1.387 . S
N78 Co69 2.022 . S
N78 C75 1.351 . S
N78 N79 1.365 . S
N79 C76 1.341 . S
N79 N78 1.365 . S
N79 H99 0.862 . S
C80 C75 1.501 . S
C80 H81 0.961 . S
C80 H82 0.961 . S
C80 H83 0.960 . S
H81 C80 0.961 . S
H82 C80 0.961 . S
H83 C80 0.960 . S
C84 N85 1.342 . S
C84 C88 1.401 . S
C84 C89 1.499 . S
N85 Co68 1.996 . S
N85 C84 1.342 . S
N85 N86 1.388 1_655 S
N86 Co69 1.993 . S
N86 N85 1.388 1_455 S
N86 C87 1.361 . S
C87 N86 1.361 . S
C87 C88 1.359 1_455 S
C87 C97 1.532 . S
C88 C84 1.401 . S
C88 C87 1.359 1_655 S
C89 C84 1.499 . S
C89 H90 0.959 . S
C89 H91 0.960 . S
C89 H92 0.961 . S
H90 C89 0.959 . S
H91 C89 0.960 . S
H92 C89 0.961 . S
O93 Co68 1.959 1_455 S
O93 C101 1.258 . S
O94 Co69 1.941 . S
O94 C101 1.266 . S
H95 C97 0.959 . S
H96 C97 0.961 . S
C97 C87 1.532 . S
C97 H95 0.959 . S
C97 H96 0.961 . S
C97 H98 0.960 . S
H98 C97 0.960 . S
H99 N79 0.862 . S
O100 Co68 1.944 . S
O100 C73 1.289 . S
C101 O93 1.258 . S
C101 O94 1.266 . S
Co102 O105 1.970 1_455 S
Co102 N119 1.989 . S
Co102 O127 1.967 . S
Co102 O134 1.920 . S
Co103 O106 1.966 . S
Co103 N112 2.022 . S
Co103 N120 1.993 1_655 S
Co103 O128 1.941 . S
C104 O105 1.258 . S
C104 O106 1.263 . S
O105 Co102 1.970 1_655 S
O105 C104 1.258 . S
O106 Co103 1.966 . S
O106 C104 1.263 . S
C107 O108 1.235 . S
C107 O134 1.289 . S
O108 C107 1.235 . S
C109 C111 1.400 . S
C109 N112 1.351 . S
C109 C114 1.501 . S
C110 C111 1.387 . S
C110 N113 1.341 . S
C111 C109 1.400 . S
C111 C110 1.387 . S
N112 Co103 2.022 . S
N112 C109 1.351 . S
N112 N113 1.365 . S
N113 C110 1.341 . S
N113 N112 1.365 . S
N113 H133 0.862 . S
C114 C109 1.501 . S
C114 H115 0.961 . S
C114 H116 0.961 . S
C114 H117 0.960 . S
H115 C114 0.961 . S
H116 C114 0.961 . S
H117 C114 0.960 . S
C118 N119 1.342 . S
C118 C122 1.401 . S
C118 C123 1.499 . S
N119 Co102 1.989 . S
N119 C118 1.342 . S
N119 N120 1.388 . S
N120 Co103 1.993 1_455 S
N120 N119 1.388 . S
N120 C121 1.346 . S
C121 N120 1.346 . S
C121 C122 1.396 . S
C121 C131 1.510 . S
C122 C118 1.401 . S
C122 C121 1.396 . S
C123 C118 1.499 . S
C123 H124 0.959 . S
C123 H125 0.960 . S
C123 H126 0.961 . S
H124 C123 0.959 . S
H125 C123 0.960 . S
H126 C123 0.961 . S
O127 Co102 1.967 . S
O127 C135 1.253 1_455 S
O128 Co103 1.941 . S
O128 C135 1.272 . S
H129 C131 0.959 . S
H130 C131 0.961 . S
C131 C121 1.510 . S
C131 H129 0.959 . S
C131 H130 0.961 . S
C131 H132 0.960 1_455 S
H132 C131 0.960 1_655 S
H133 N113 0.862 . S
O134 Co102 1.920 . S
O134 C107 1.289 . S
C135 O127 1.253 1_655 S
C135 O128 1.272 . S
Co136 O139 1.945 1_565 S
Co136 N153 1.996 . S
Co136 O161 1.959 1_565 S
Co136 O168 1.944 . S
Co137 O140 1.966 . S
Co137 N146 2.022 . S
Co137 N154 1.993 . S
Co137 O162 1.941 . S
C138 O139 1.258 . S
C138 O140 1.263 . S
O139 Co136 1.945 1_545 S
O139 C138 1.258 . S
O140 Co137 1.966 . S
O140 C138 1.263 . S
C141 O142 1.235 . S
C141 O168 1.289 . S
O142 C141 1.235 . S
C143 C145 1.400 . S
C143 N146 1.351 . S
C143 C148 1.501 . S
C144 C145 1.387 . S
C144 N147 1.341 . S
C145 C143 1.400 . S
C145 C144 1.387 . S
N146 Co137 2.022 . S
N146 C143 1.351 . S
N146 N147 1.365 . S
N147 C144 1.341 . S
N147 N146 1.365 . S
N147 H167 0.862 . S
C148 C143 1.501 . S
C148 H149 0.961 . S
C148 H150 0.961 . S
C148 H151 0.960 . S
H149 C148 0.961 . S
H150 C148 0.961 . S
H151 C148 0.960 . S
C152 N153 1.342 . S
C152 C156 1.401 . S
C152 C157 1.499 . S
N153 Co136 1.996 . S
N153 C152 1.342 . S
N153 N154 1.388 1_565 S
N154 Co137 1.993 . S
N154 N153 1.388 1_545 S
N154 C155 1.361 . S
C155 N154 1.361 . S
C155 C156 1.358 1_545 S
C155 C165 1.532 . S
C156 C152 1.401 . S
C156 C155 1.358 1_565 S
C157 C152 1.499 . S
C157 H158 0.959 . S
C157 H159 0.960 . S
C157 H160 0.961 . S
H158 C157 0.959 . S
H159 C157 0.960 . S
H160 C157 0.961 . S
O161 Co136 1.959 1_545 S
O161 C169 1.258 . S
O162 Co137 1.941 . S
O162 C169 1.266 . S
H163 C165 0.959 . S
H164 C165 0.961 . S
C165 C155 1.532 . S
C165 H163 0.959 . S
C165 H164 0.961 . S
C165 H166 0.960 . S
H166 C165 0.960 . S
H167 N147 0.862 . S
O168 Co136 1.944 . S
O168 C141 1.289 . S
C169 O161 1.258 . S
C169 O162 1.266 . S
Co170 O173 1.970 1_545 S
Co170 N187 1.989 . S
Co170 O195 1.967 . S
Co170 O202 1.920 . S
Co171 O174 1.966 . S
Co171 N180 2.022 . S
Co171 N188 1.993 1_565 S
Co171 O196 1.941 . S
C172 O173 1.258 . S
C172 O174 1.263 . S
O173 Co170 1.970 1_565 S
O173 C172 1.258 . S
O174 Co171 1.966 . S
O174 C172 1.263 . S
C175 O176 1.235 . S
C175 O202 1.289 . S
O176 C175 1.235 . S
C177 C179 1.400 . S
C177 N180 1.351 . S
C177 C182 1.501 . S
C178 C179 1.387 . S
C178 N181 1.341 . S
C179 C177 1.400 . S
C179 C178 1.387 . S
N180 Co171 2.022 . S
N180 C177 1.351 . S
N180 N181 1.365 . S
N181 C178 1.341 . S
N181 N180 1.365 . S
N181 H201 0.862 . S
C182 C177 1.501 . S
C182 H183 0.961 . S
C182 H184 0.961 . S
C182 H185 0.960 . S
H183 C182 0.961 . S
H184 C182 0.961 . S
H185 C182 0.960 . S
C186 N187 1.342 . S
C186 C190 1.401 . S
C186 C191 1.499 . S
N187 Co170 1.989 . S
N187 C186 1.342 . S
N187 N188 1.388 . S
N188 Co171 1.993 1_545 S
N188 N187 1.388 . S
N188 C189 1.346 . S
C189 N188 1.346 . S
C189 C190 1.396 . S
C189 C199 1.510 . S
C190 C186 1.401 . S
C190 C189 1.396 . S
C191 C186 1.499 . S
C191 H192 0.959 . S
C191 H193 0.960 . S
C191 H194 0.961 . S
H192 C191 0.959 . S
H193 C191 0.960 . S
H194 C191 0.961 . S
O195 Co170 1.967 . S
O195 C203 1.253 1_545 S
O196 Co171 1.941 . S
O196 C203 1.272 . S
H197 C199 0.959 . S
H198 C199 0.961 . S
C199 C189 1.510 . S
C199 H197 0.959 . S
C199 H198 0.961 . S
C199 H200 0.960 1_545 S
H200 C199 0.960 1_565 S
H201 N181 0.862 . S
O202 Co170 1.920 . S
O202 C175 1.289 . S
C203 O195 1.253 1_565 S
C203 O196 1.272 . S
Co204 O207 1.970 1_545 S
Co204 N221 1.989 . S
Co204 O229 1.967 . S
Co204 O236 1.920 . S
Co205 O208 1.966 . S
Co205 N214 2.022 . S
Co205 N222 1.993 1_565 S
Co205 O230 1.941 . S
C206 O207 1.258 . S
C206 O208 1.263 . S
O207 Co204 1.970 1_565 S
O207 C206 1.258 . S
O208 Co205 1.966 . S
O208 C206 1.263 . S
C209 O210 1.235 . S
C209 O236 1.289 . S
O210 C209 1.235 . S
C211 C213 1.400 . S
C211 N214 1.351 . S
C211 C216 1.501 . S
C212 C213 1.387 . S
C212 N215 1.341 . S
C213 C211 1.400 . S
C213 C212 1.387 . S
N214 Co205 2.022 . S
N214 C211 1.351 . S
N214 N215 1.365 . S
N215 C212 1.341 . S
N215 N214 1.365 . S
N215 H235 0.862 . S
C216 C211 1.501 . S
C216 H217 0.961 . S
C216 H218 0.961 . S
C216 H219 0.960 . S
H217 C216 0.961 . S
H218 C216 0.961 . S
H219 C216 0.960 . S
C220 N221 1.342 . S
C220 C224 1.401 . S
C220 C225 1.499 . S
N221 Co204 1.989 . S
N221 C220 1.342 . S
N221 N222 1.388 . S
N222 Co205 1.993 1_545 S
N222 N221 1.388 . S
N222 C223 1.346 . S
C223 N222 1.346 . S
C223 C224 1.396 . S
C223 C233 1.510 . S
C224 C220 1.401 . S
C224 C223 1.396 . S
C225 C220 1.499 . S
C225 H226 0.959 . S
C225 H227 0.960 . S
C225 H228 0.961 . S
H226 C225 0.959 . S
H227 C225 0.960 . S
H228 C225 0.961 . S
O229 Co204 1.967 . S
O229 C237 1.253 1_545 S
O230 Co205 1.941 . S
O230 C237 1.272 . S
H231 C233 0.959 . S
H232 C233 0.961 . S
C233 C223 1.510 . S
C233 H231 0.959 . S
C233 H232 0.961 . S
C233 H234 0.960 1_545 S
H234 C233 0.960 1_565 S
H235 N215 0.862 . S
O236 Co204 1.920 . S
O236 C209 1.289 . S
C237 O229 1.253 1_565 S
C237 O230 1.272 . S
Co238 O241 1.945 1_565 S
Co238 N255 1.996 . S
Co238 O263 1.959 1_565 S
Co238 O270 1.944 . S
Co239 O242 1.966 . S
Co239 N248 2.022 . S
Co239 N256 1.993 . S
Co239 O264 1.941 . S
C240 O241 1.258 . S
C240 O242 1.263 . S
O241 Co238 1.945 1_545 S
O241 C240 1.258 . S
O242 Co239 1.966 . S
O242 C240 1.263 . S
C243 O244 1.235 . S
C243 O270 1.289 . S
O244 C243 1.235 . S
C245 C247 1.400 . S
C245 N248 1.351 . S
C245 C250 1.501 . S
C246 C247 1.387 . S
C246 N249 1.341 . S
C247 C245 1.400 . S
C247 C246 1.387 . S
N248 Co239 2.022 . S
N248 C245 1.351 . S
N248 N249 1.365 . S
N249 C246 1.341 . S
N249 N248 1.365 . S
N249 H269 0.862 . S
C250 C245 1.501 . S
C250 H251 0.961 . S
C250 H252 0.961 . S
C250 H253 0.960 . S
H251 C250 0.961 . S
H252 C250 0.961 . S
H253 C250 0.960 . S
C254 N255 1.342 . S
C254 C258 1.401 . S
C254 C259 1.499 . S
N255 Co238 1.996 . S
N255 C254 1.342 . S
N255 N256 1.388 1_565 S
N256 Co239 1.993 . S
N256 N255 1.388 1_545 S
N256 C257 1.361 . S
C257 N256 1.361 . S
C257 C258 1.359 1_545 S
C257 C267 1.532 . S
C258 C254 1.401 . S
C258 C257 1.359 1_565 S
C259 C254 1.499 . S
C259 H260 0.959 . S
C259 H261 0.960 . S
C259 H262 0.961 . S
H260 C259 0.959 . S
H261 C259 0.960 . S
H262 C259 0.961 . S
O263 Co238 1.959 1_545 S
O263 C271 1.258 . S
O264 Co239 1.941 . S
O264 C271 1.266 . S
H265 C267 0.959 . S
H266 C267 0.961 . S
C267 C257 1.532 . S
C267 H265 0.959 . S
C267 H266 0.961 . S
C267 H268 0.960 . S
H268 C267 0.960 . S
H269 N249 0.862 . S
O270 Co238 1.944 . S
O270 C243 1.289 . S
C271 O263 1.258 . S
C271 O264 1.266 . S
Co272 O275 1.945 1_556 S
Co272 N289 1.996 . S
Co272 O297 1.959 1_556 S
Co272 O304 1.944 . S
Co273 O276 1.966 . S
Co273 N282 2.022 . S
Co273 N290 1.993 . S
Co273 O298 1.941 . S
C274 O275 1.258 . S
C274 O276 1.263 . S
O275 Co272 1.945 1_554 S
O275 C274 1.258 . S
O276 Co273 1.966 . S
O276 C274 1.263 . S
C277 O278 1.235 . S
C277 O304 1.289 . S
O278 C277 1.235 . S
C279 C281 1.400 . S
C279 N282 1.351 . S
C279 C284 1.501 . S
C280 C281 1.387 . S
C280 N283 1.341 . S
C281 C279 1.400 . S
C281 C280 1.387 . S
N282 Co273 2.022 . S
N282 C279 1.351 . S
N282 N283 1.365 . S
N283 C280 1.341 . S
N283 N282 1.365 . S
N283 H303 0.862 . S
C284 C279 1.501 . S
C284 H285 0.961 . S
C284 H286 0.961 . S
C284 H287 0.960 . S
H285 C284 0.961 . S
H286 C284 0.961 . S
H287 C284 0.960 . S
C288 N289 1.342 . S
C288 C292 1.401 . S
C288 C293 1.499 . S
N289 Co272 1.996 . S
N289 C288 1.342 . S
N289 N290 1.388 1_556 S
N290 Co273 1.993 . S
N290 N289 1.388 1_554 S
N290 C291 1.361 . S
C291 N290 1.361 . S
C291 C292 1.358 1_554 S
C291 C301 1.532 . S
C292 C288 1.401 . S
C292 C291 1.358 1_556 S
C293 C288 1.499 . S
C293 H294 0.959 . S
C293 H295 0.960 . S
C293 H296 0.961 . S
H294 C293 0.959 . S
H295 C293 0.960 . S
H296 C293 0.961 . S
O297 Co272 1.959 1_554 S
O297 C305 1.258 . S
O298 Co273 1.941 . S
O298 C305 1.266 . S
H299 C301 0.959 . S
H300 C301 0.961 . S
C301 C291 1.532 . S
C301 H299 0.959 . S
C301 H300 0.961 . S
C301 H302 0.960 . S
H302 C301 0.960 . S
H303 N283 0.862 . S
O304 Co272 1.944 . S
O304 C277 1.289 . S
C305 O297 1.258 . S
C305 O298 1.266 . S
Co306 O309 1.970 1_554 S
Co306 N323 1.989 . S
Co306 O331 1.967 . S
Co306 O338 1.920 . S
Co307 O310 1.966 . S
Co307 N316 2.022 . S
Co307 N324 1.993 1_556 S
Co307 O332 1.941 . S
C308 O309 1.258 . S
C308 O310 1.263 . S
O309 Co306 1.970 1_556 S
O309 C308 1.258 . S
O310 Co307 1.966 . S
O310 C308 1.263 . S
C311 O312 1.235 . S
C311 O338 1.289 . S
O312 C311 1.235 . S
C313 C315 1.400 . S
C313 N316 1.351 . S
C313 C318 1.501 . S
C314 C315 1.387 . S
C314 N317 1.341 . S
C315 C313 1.400 . S
C315 C314 1.387 . S
N316 Co307 2.022 . S
N316 C313 1.351 . S
N316 N317 1.365 . S
N317 C314 1.341 . S
N317 N316 1.365 . S
N317 H337 0.862 . S
C318 C313 1.501 . S
C318 H319 0.961 . S
C318 H320 0.961 . S
C318 H321 0.960 . S
H319 C318 0.961 . S
H320 C318 0.961 . S
H321 C318 0.960 . S
C322 N323 1.342 . S
C322 C326 1.401 . S
C322 C327 1.499 . S
N323 Co306 1.989 . S
N323 C322 1.342 . S
N323 N324 1.388 . S
N324 Co307 1.993 1_554 S
N324 N323 1.388 . S
N324 C325 1.346 . S
C325 N324 1.346 . S
C325 C326 1.396 . S
C325 C335 1.510 . S
C326 C322 1.401 . S
C326 C325 1.396 . S
C327 C322 1.499 . S
C327 H328 0.959 . S
C327 H329 0.960 . S
C327 H330 0.961 . S
H328 C327 0.959 . S
H329 C327 0.960 . S
H330 C327 0.961 . S
O331 Co306 1.967 . S
O331 C339 1.253 1_554 S
O332 Co307 1.941 . S
O332 C339 1.272 . S
H333 C335 0.959 . S
H334 C335 0.961 . S
C335 C325 1.510 . S
C335 H333 0.959 . S
C335 H334 0.961 . S
C335 H336 0.960 1_554 S
H336 C335 0.960 1_556 S
H337 N317 0.862 . S
O338 Co306 1.920 . S
O338 C311 1.289 . S
C339 O331 1.253 1_556 S
C339 O332 1.272 . S
Co340 O343 1.970 1_554 S
Co340 N357 1.989 . S
Co340 O365 1.967 . S
Co340 O372 1.920 . S
Co341 O344 1.966 . S
Co341 N350 2.022 . S
Co341 N358 1.993 1_556 S
Co341 O366 1.941 . S
C342 O343 1.258 . S
C342 O344 1.263 . S
O343 Co340 1.970 1_556 S
O343 C342 1.258 . S
O344 Co341 1.966 . S
O344 C342 1.263 . S
C345 O346 1.235 . S
C345 O372 1.289 . S
O346 C345 1.235 . S
C347 C349 1.400 . S
C347 N350 1.351 . S
C347 C352 1.501 . S
C348 C349 1.387 . S
C348 N351 1.341 . S
C349 C347 1.400 . S
C349 C348 1.387 . S
N350 Co341 2.022 . S
N350 C347 1.351 . S
N350 N351 1.365 . S
N351 C348 1.341 . S
N351 N350 1.365 . S
N351 H371 0.862 . S
C352 C347 1.501 . S
C352 H353 0.961 . S
C352 H354 0.961 . S
C352 H355 0.960 . S
H353 C352 0.961 . S
H354 C352 0.961 . S
H355 C352 0.960 . S
C356 N357 1.342 . S
C356 C360 1.401 . S
C356 C361 1.499 . S
N357 Co340 1.989 . S
N357 C356 1.342 . S
N357 N358 1.388 . S
N358 Co341 1.993 1_554 S
N358 N357 1.388 . S
N358 C359 1.346 . S
C359 N358 1.346 . S
C359 C360 1.396 . S
C359 C369 1.510 . S
C360 C356 1.401 . S
C360 C359 1.396 . S
C361 C356 1.499 . S
C361 H362 0.959 . S
C361 H363 0.960 . S
C361 H364 0.961 . S
H362 C361 0.959 . S
H363 C361 0.960 . S
H364 C361 0.961 . S
O365 Co340 1.967 . S
O365 C373 1.253 1_554 S
O366 Co341 1.941 . S
O366 C373 1.272 . S
H367 C369 0.959 . S
H368 C369 0.961 . S
C369 C359 1.510 . S
C369 H367 0.959 . S
C369 H368 0.961 . S
C369 H370 0.960 1_554 S
H370 C369 0.960 1_556 S
H371 N351 0.862 . S
O372 Co340 1.920 . S
O372 C345 1.289 . S
C373 O365 1.253 1_556 S
C373 O366 1.272 . S
Co374 O377 1.945 1_556 S
Co374 N391 1.996 . S
Co374 O399 1.959 1_556 S
Co374 O406 1.944 . S
Co375 O378 1.966 . S
Co375 N384 2.022 . S
Co375 N392 1.993 . S
Co375 O400 1.941 . S
C376 O377 1.258 . S
C376 O378 1.263 . S
O377 Co374 1.945 1_554 S
O377 C376 1.258 . S
O378 Co375 1.966 . S
O378 C376 1.263 . S
C379 O380 1.235 . S
C379 O406 1.289 . S
O380 C379 1.235 . S
C381 C383 1.400 . S
C381 N384 1.351 . S
C381 C386 1.501 . S
C382 C383 1.387 . S
C382 N385 1.341 . S
C383 C381 1.400 . S
C383 C382 1.387 . S
N384 Co375 2.022 . S
N384 C381 1.351 . S
N384 N385 1.365 . S
N385 C382 1.341 . S
N385 N384 1.365 . S
N385 H405 0.862 . S
C386 C381 1.501 . S
C386 H387 0.961 . S
C386 H388 0.961 . S
C386 H389 0.960 . S
H387 C386 0.961 . S
H388 C386 0.961 . S
H389 C386 0.960 . S
C390 N391 1.342 . S
C390 C394 1.401 . S
C390 C395 1.499 . S
N391 Co374 1.996 . S
N391 C390 1.342 . S
N391 N392 1.388 1_556 S
N392 Co375 1.993 . S
N392 N391 1.388 1_554 S
N392 C393 1.361 . S
C393 N392 1.361 . S
C393 C394 1.359 1_554 S
C393 C403 1.532 . S
C394 C390 1.401 . S
C394 C393 1.359 1_556 S
C395 C390 1.499 . S
C395 H396 0.959 . S
C395 H397 0.960 . S
C395 H398 0.961 . S
H396 C395 0.959 . S
H397 C395 0.960 . S
H398 C395 0.961 . S
O399 Co374 1.959 1_554 S
O399 C407 1.258 . S
O400 Co375 1.941 . S
O400 C407 1.266 . S
H401 C403 0.959 . S
H402 C403 0.961 . S
C403 C393 1.532 . S
C403 H401 0.959 . S
C403 H402 0.961 . S
C403 H404 0.960 . S
H404 C403 0.960 . S
H405 N385 0.862 . S
O406 Co374 1.944 . S
O406 C379 1.289 . S
C407 O399 1.258 . S
C407 O400 1.266 . S
Co408 O411 1.970 . S
Co408 N425 1.989 . S
Co408 O433 1.967 . S
Co408 O440 1.920 . S
Co409 O412 1.966 . S
Co409 N418 2.022 . S
Co409 N426 1.993 . S
Co409 O434 1.941 . S
C410 O411 1.258 . S
C410 O412 1.263 . S
O411 Co408 1.970 . S
O411 C410 1.258 . S
O412 Co409 1.966 . S
O412 C410 1.263 . S
C413 O414 1.235 . S
C413 O440 1.289 . S
O414 C413 1.235 . S
C415 C417 1.400 . S
C415 N418 1.351 . S
C415 C420 1.501 . S
C416 C417 1.387 . S
C416 N419 1.341 . S
C417 C415 1.400 . S
C417 C416 1.387 . S
N418 Co409 2.022 . S
N418 C415 1.351 . S
N418 N419 1.365 . S
N419 C416 1.341 . S
N419 N418 1.365 . S
N419 H439 0.862 . S
C420 C415 1.501 . S
C420 H421 0.961 . S
C420 H422 0.961 . S
C420 H423 0.960 . S
H421 C420 0.961 . S
H422 C420 0.961 . S
H423 C420 0.960 . S
C424 N425 1.342 . S
C424 C428 1.401 . S
C424 C429 1.499 . S
N425 Co408 1.989 . S
N425 C424 1.342 . S
N425 N426 1.388 . S
N426 Co409 1.993 . S
N426 N425 1.388 . S
N426 C427 1.346 . S
C427 N426 1.346 . S
C427 C428 1.396 . S
C427 C437 1.510 . S
C428 C424 1.401 . S
C428 C427 1.396 . S
C429 C424 1.499 . S
C429 H430 0.959 . S
C429 H431 0.960 . S
C429 H432 0.961 . S
H430 C429 0.959 . S
H431 C429 0.960 . S
H432 C429 0.961 . S
O433 Co408 1.967 . S
O433 C441 1.258 . S
O434 Co409 1.941 . S
O434 C441 1.266 . S
H435 C437 0.959 . S
H436 C437 0.961 . S
C437 C427 1.510 . S
C437 H435 0.959 . S
C437 H436 0.961 . S
C437 H438 0.960 . S
H438 C437 0.960 . S
H439 N419 0.862 . S
O440 Co408 1.920 . S
O440 C413 1.289 . S
C441 O433 1.258 . S
C441 O434 1.266 . S
Co442 O445 1.970 . S
Co442 N459 1.989 . S
Co442 O467 1.967 . S
Co442 O474 1.920 . S
Co443 O446 1.966 . S
Co443 N452 2.022 . S
Co443 N460 1.993 . S
Co443 O468 1.941 . S
C444 O445 1.258 . S
C444 O446 1.263 . S
O445 Co442 1.970 . S
O445 C444 1.258 . S
O446 Co443 1.966 . S
O446 C444 1.263 . S
C447 O448 1.235 . S
C447 O474 1.289 . S
O448 C447 1.235 . S
C449 C451 1.400 . S
C449 N452 1.351 . S
C449 C454 1.501 . S
C450 C451 1.387 . S
C450 N453 1.341 . S
C451 C449 1.400 . S
C451 C450 1.387 . S
N452 Co443 2.022 . S
N452 C449 1.351 . S
N452 N453 1.365 . S
N453 C450 1.341 . S
N453 N452 1.365 . S
N453 H473 0.862 . S
C454 C449 1.501 . S
C454 H455 0.961 . S
C454 H456 0.961 . S
C454 H457 0.960 . S
H455 C454 0.961 . S
H456 C454 0.961 . S
H457 C454 0.960 . S
C458 N459 1.342 . S
C458 C462 1.401 . S
C458 C463 1.499 . S
N459 Co442 1.989 . S
N459 C458 1.342 . S
N459 N460 1.388 . S
N460 Co443 1.993 . S
N460 N459 1.388 . S
N460 C461 1.346 . S
C461 N460 1.346 . S
C461 C462 1.396 . S
C461 C471 1.510 . S
C462 C458 1.401 . S
C462 C461 1.396 . S
C463 C458 1.499 . S
C463 H464 0.959 . S
C463 H465 0.960 . S
C463 H466 0.961 . S
H464 C463 0.959 . S
H465 C463 0.960 . S
H466 C463 0.961 . S
O467 Co442 1.967 . S
O467 C475 1.258 . S
O468 Co443 1.941 . S
O468 C475 1.266 . S
H469 C471 0.959 . S
H470 C471 0.961 . S
C471 C461 1.510 . S
C471 H469 0.959 . S
C471 H470 0.961 . S
C471 H472 0.960 . S
H472 C471 0.960 . S
H473 N453 0.862 . S
O474 Co442 1.920 . S
O474 C447 1.289 . S
C475 O467 1.258 . S
C475 O468 1.266 . S
Co476 O479 1.970 . S
Co476 N493 1.989 . S
Co476 O501 1.967 . S
Co476 O508 1.920 . S
Co477 O480 1.966 . S
Co477 N486 2.022 . S
Co477 N494 1.993 . S
Co477 O502 1.941 . S
C478 O479 1.258 . S
C478 O480 1.263 . S
O479 Co476 1.970 . S
O479 C478 1.258 . S
O480 Co477 1.966 . S
O480 C478 1.263 . S
C481 O482 1.235 . S
C481 O508 1.289 . S
O482 C481 1.235 . S
C483 C485 1.400 . S
C483 N486 1.351 . S
C483 C488 1.501 . S
C484 C485 1.387 . S
C484 N487 1.341 . S
C485 C483 1.400 . S
C485 C484 1.387 . S
N486 Co477 2.022 . S
N486 C483 1.351 . S
N486 N487 1.365 . S
N487 C484 1.341 . S
N487 N486 1.365 . S
N487 H507 0.862 . S
C488 C483 1.501 . S
C488 H489 0.961 . S
C488 H490 0.961 . S
C488 H491 0.960 . S
H489 C488 0.961 . S
H490 C488 0.961 . S
H491 C488 0.960 . S
C492 N493 1.342 . S
C492 C496 1.401 . S
C492 C497 1.499 . S
N493 Co476 1.989 . S
N493 C492 1.342 . S
N493 N494 1.388 . S
N494 Co477 1.993 . S
N494 N493 1.388 . S
N494 C495 1.346 . S
C495 N494 1.346 . S
C495 C496 1.396 . S
C495 C505 1.510 . S
C496 C492 1.401 . S
C496 C495 1.396 . S
C497 C492 1.499 . S
C497 H498 0.959 . S
C497 H499 0.960 . S
C497 H500 0.961 . S
H498 C497 0.959 . S
H499 C497 0.960 . S
H500 C497 0.961 . S
O501 Co476 1.967 . S
O501 C509 1.258 . S
O502 Co477 1.941 . S
O502 C509 1.266 . S
H503 C505 0.959 . S
H504 C505 0.961 . S
C505 C495 1.510 . S
C505 H503 0.959 . S
C505 H504 0.961 . S
C505 H506 0.960 . S
H506 C505 0.960 . S
H507 N487 0.862 . S
O508 Co476 1.920 . S
O508 C481 1.289 . S
C509 O501 1.258 . S
C509 O502 1.266 . S
Co510 O513 1.970 . S
Co510 N527 1.989 . S
Co510 O535 1.967 . S
Co510 O542 1.920 . S
Co511 O514 1.966 . S
Co511 N520 2.022 . S
Co511 N528 1.993 . S
Co511 O536 1.941 . S
C512 O513 1.258 . S
C512 O514 1.263 . S
O513 Co510 1.970 . S
O513 C512 1.258 . S
O514 Co511 1.966 . S
O514 C512 1.263 . S
C515 O516 1.235 . S
C515 O542 1.289 . S
O516 C515 1.235 . S
C517 C519 1.400 . S
C517 N520 1.351 . S
C517 C522 1.501 . S
C518 C519 1.387 . S
C518 N521 1.341 . S
C519 C517 1.400 . S
C519 C518 1.387 . S
N520 Co511 2.022 . S
N520 C517 1.351 . S
N520 N521 1.365 . S
N521 C518 1.341 . S
N521 N520 1.365 . S
N521 H541 0.862 . S
C522 C517 1.501 . S
C522 H523 0.961 . S
C522 H524 0.961 . S
C522 H525 0.960 . S
H523 C522 0.961 . S
H524 C522 0.961 . S
H525 C522 0.960 . S
C526 N527 1.342 . S
C526 C530 1.401 . S
C526 C531 1.499 . S
N527 Co510 1.989 . S
N527 C526 1.342 . S
N527 N528 1.388 . S
N528 Co511 1.993 . S
N528 N527 1.388 . S
N528 C529 1.346 . S
C529 N528 1.346 . S
C529 C530 1.396 . S
C529 C539 1.510 . S
C530 C526 1.401 . S
C530 C529 1.396 . S
C531 C526 1.499 . S
C531 H532 0.959 . S
C531 H533 0.960 . S
C531 H534 0.961 . S
H532 C531 0.959 . S
H533 C531 0.960 . S
H534 C531 0.961 . S
O535 Co510 1.967 . S
O535 C543 1.258 . S
O536 Co511 1.941 . S
O536 C543 1.266 . S
H537 C539 0.959 . S
H538 C539 0.961 . S
C539 C529 1.510 . S
C539 H537 0.959 . S
C539 H538 0.961 . S
C539 H540 0.960 . S
H540 C539 0.960 . S
H541 N521 0.862 . S
O542 Co510 1.920 . S
O542 C515 1.289 . S
C543 O535 1.258 . S
C543 O536 1.266 . S
Co544 O547 1.970 . S
Co544 N561 1.989 . S
Co544 O569 1.967 . S
Co544 O576 1.920 . S
Co545 O548 1.966 . S
Co545 N554 2.022 . S
Co545 N562 1.993 . S
Co545 O570 1.941 . S
C546 O547 1.258 . S
C546 O548 1.263 . S
O547 Co544 1.970 . S
O547 C546 1.258 . S
O548 Co545 1.966 . S
O548 C546 1.263 . S
C549 O550 1.235 . S
C549 O576 1.289 . S
O550 C549 1.235 . S
C551 C553 1.400 . S
C551 N554 1.351 . S
C551 C556 1.501 . S
C552 C553 1.387 . S
C552 N555 1.341 . S
C553 C551 1.400 . S
C553 C552 1.387 . S
N554 Co545 2.022 . S
N554 C551 1.351 . S
N554 N555 1.365 . S
N555 C552 1.341 . S
N555 N554 1.365 . S
N555 H575 0.862 . S
C556 C551 1.501 . S
C556 H557 0.961 . S
C556 H558 0.961 . S
C556 H559 0.960 . S
H557 C556 0.961 . S
H558 C556 0.961 . S
H559 C556 0.960 . S
C560 N561 1.342 . S
C560 C564 1.401 . S
C560 C565 1.499 . S
N561 Co544 1.989 . S
N561 C560 1.342 . S
N561 N562 1.388 . S
N562 Co545 1.993 . S
N562 N561 1.388 . S
N562 C563 1.346 . S
C563 N562 1.346 . S
C563 C564 1.396 . S
C563 C573 1.510 . S
C564 C560 1.401 . S
C564 C563 1.396 . S
C565 C560 1.499 . S
C565 H566 0.959 . S
C565 H567 0.960 . S
C565 H568 0.961 . S
H566 C565 0.959 . S
H567 C565 0.960 . S
H568 C565 0.961 . S
O569 Co544 1.967 . S
O569 C577 1.258 . S
O570 Co545 1.941 . S
O570 C577 1.266 . S
H571 C573 0.959 . S
H572 C573 0.961 . S
C573 C563 1.510 . S
C573 H571 0.959 . S
C573 H572 0.961 . S
C573 H574 0.960 . S
H574 C573 0.960 . S
H575 N555 0.862 . S
O576 Co544 1.920 . S
O576 C549 1.289 . S
C577 O569 1.258 . S
C577 O570 1.266 . S
Co578 O581 1.970 . S
Co578 N595 1.989 . S
Co578 O603 1.967 . S
Co578 O610 1.920 . S
Co579 O582 1.966 . S
Co579 N588 2.022 . S
Co579 N596 1.993 . S
Co579 O604 1.941 . S
C580 O581 1.258 . S
C580 O582 1.263 . S
O581 Co578 1.970 . S
O581 C580 1.258 . S
O582 Co579 1.966 . S
O582 C580 1.263 . S
C583 O584 1.235 . S
C583 O610 1.289 . S
O584 C583 1.235 . S
C585 C587 1.400 . S
C585 N588 1.351 . S
C585 C590 1.501 . S
C586 C587 1.387 . S
C586 N589 1.341 . S
C587 C585 1.400 . S
C587 C586 1.387 . S
N588 Co579 2.022 . S
N588 C585 1.351 . S
N588 N589 1.365 . S
N589 C586 1.341 . S
N589 N588 1.365 . S
N589 H609 0.862 . S
C590 C585 1.501 . S
C590 H591 0.961 . S
C590 H592 0.961 . S
C590 H593 0.960 . S
H591 C590 0.961 . S
H592 C590 0.961 . S
H593 C590 0.960 . S
C594 N595 1.342 . S
C594 C598 1.401 . S
C594 C599 1.499 . S
N595 Co578 1.989 . S
N595 C594 1.342 . S
N595 N596 1.388 . S
N596 Co579 1.993 . S
N596 N595 1.388 . S
N596 C597 1.346 . S
C597 N596 1.346 . S
C597 C598 1.396 . S
C597 C607 1.510 . S
C598 C594 1.401 . S
C598 C597 1.396 . S
C599 C594 1.499 . S
C599 H600 0.959 . S
C599 H601 0.960 . S
C599 H602 0.961 . S
H600 C599 0.959 . S
H601 C599 0.960 . S
H602 C599 0.961 . S
O603 Co578 1.967 . S
O603 C611 1.258 . S
O604 Co579 1.941 . S
O604 C611 1.266 . S
H605 C607 0.959 . S
H606 C607 0.961 . S
C607 C597 1.510 . S
C607 H605 0.959 . S
C607 H606 0.961 . S
C607 H608 0.960 . S
H608 C607 0.960 . S
H609 N589 0.862 . S
O610 Co578 1.920 . S
O610 C583 1.289 . S
C611 O603 1.258 . S
C611 O604 1.266 . S
Co612 O615 1.970 . S
Co612 N629 1.989 . S
Co612 O637 1.967 . S
Co612 O644 1.920 . S
Co613 O616 1.966 . S
Co613 N622 2.022 . S
Co613 N630 1.993 . S
Co613 O638 1.941 . S
C614 O615 1.258 . S
C614 O616 1.263 . S
O615 Co612 1.970 . S
O615 C614 1.258 . S
O616 Co613 1.966 . S
O616 C614 1.263 . S
C617 O618 1.235 . S
C617 O644 1.289 . S
O618 C617 1.235 . S
C619 C621 1.400 . S
C619 N622 1.351 . S
C619 C624 1.501 . S
C620 C621 1.387 . S
C620 N623 1.341 . S
C621 C619 1.400 . S
C621 C620 1.387 . S
N622 Co613 2.022 . S
N622 C619 1.351 . S
N622 N623 1.365 . S
N623 C620 1.341 . S
N623 N622 1.365 . S
N623 H643 0.862 . S
C624 C619 1.501 . S
C624 H625 0.961 . S
C624 H626 0.961 . S
C624 H627 0.960 . S
H625 C624 0.961 . S
H626 C624 0.961 . S
H627 C624 0.960 . S
C628 N629 1.342 . S
C628 C632 1.401 . S
C628 C633 1.499 . S
N629 Co612 1.989 . S
N629 C628 1.342 . S
N629 N630 1.388 . S
N630 Co613 1.993 . S
N630 N629 1.388 . S
N630 C631 1.346 . S
C631 N630 1.346 . S
C631 C632 1.396 . S
C631 C641 1.510 . S
C632 C628 1.401 . S
C632 C631 1.396 . S
C633 C628 1.499 . S
C633 H634 0.959 . S
C633 H635 0.960 . S
C633 H636 0.961 . S
H634 C633 0.959 . S
H635 C633 0.960 . S
H636 C633 0.961 . S
O637 Co612 1.967 . S
O637 C645 1.258 . S
O638 Co613 1.941 . S
O638 C645 1.266 . S
H639 C641 0.959 . S
H640 C641 0.961 . S
C641 C631 1.510 . S
C641 H639 0.959 . S
C641 H640 0.961 . S
C641 H642 0.960 . S
H642 C641 0.960 . S
H643 N623 0.862 . S
O644 Co612 1.920 . S
O644 C617 1.289 . S
C645 O637 1.258 . S
C645 O638 1.266 . S
Co646 O649 1.970 . S
Co646 N663 1.989 . S
Co646 O671 1.967 . S
Co646 O678 1.920 . S
Co647 O650 1.966 . S
Co647 N656 2.022 . S
Co647 N664 1.993 . S
Co647 O672 1.941 . S
C648 O649 1.258 . S
C648 O650 1.263 . S
O649 Co646 1.970 . S
O649 C648 1.258 . S
O650 Co647 1.966 . S
O650 C648 1.263 . S
C651 O652 1.235 . S
C651 O678 1.289 . S
O652 C651 1.235 . S
C653 C655 1.400 . S
C653 N656 1.351 . S
C653 C658 1.501 . S
C654 C655 1.387 . S
C654 N657 1.341 . S
C655 C653 1.400 . S
C655 C654 1.387 . S
N656 Co647 2.022 . S
N656 C653 1.351 . S
N656 N657 1.365 . S
N657 C654 1.341 . S
N657 N656 1.365 . S
N657 H677 0.862 . S
C658 C653 1.501 . S
C658 H659 0.961 . S
C658 H660 0.961 . S
C658 H661 0.960 . S
H659 C658 0.961 . S
H660 C658 0.961 . S
H661 C658 0.960 . S
C662 N663 1.342 . S
C662 C666 1.401 . S
C662 C667 1.499 . S
N663 Co646 1.989 . S
N663 C662 1.342 . S
N663 N664 1.388 . S
N664 Co647 1.993 . S
N664 N663 1.388 . S
N664 C665 1.346 . S
C665 N664 1.346 . S
C665 C666 1.396 . S
C665 C675 1.510 . S
C666 C662 1.401 . S
C666 C665 1.396 . S
C667 C662 1.499 . S
C667 H668 0.959 . S
C667 H669 0.960 . S
C667 H670 0.961 . S
H668 C667 0.959 . S
H669 C667 0.960 . S
H670 C667 0.961 . S
O671 Co646 1.967 . S
O671 C679 1.258 . S
O672 Co647 1.941 . S
O672 C679 1.266 . S
H673 C675 0.959 . S
H674 C675 0.961 . S
C675 C665 1.510 . S
C675 H673 0.959 . S
C675 H674 0.961 . S
C675 H676 0.960 . S
H676 C675 0.960 . S
H677 N657 0.862 . S
O678 Co646 1.920 . S
O678 C651 1.289 . S
C679 O671 1.258 . S
C679 O672 1.266 . S
Co680 O683 1.970 . S
Co680 N697 1.989 . S
Co680 O705 1.967 . S
Co680 O712 1.920 . S
Co681 O684 1.966 . S
Co681 N690 2.022 . S
Co681 N698 1.993 . S
Co681 O706 1.941 . S
C682 O683 1.258 . S
C682 O684 1.263 . S
O683 Co680 1.970 . S
O683 C682 1.258 . S
O684 Co681 1.966 . S
O684 C682 1.263 . S
C685 O686 1.235 . S
C685 O712 1.289 . S
O686 C685 1.235 . S
C687 C689 1.400 . S
C687 N690 1.351 . S
C687 C692 1.501 . S
C688 C689 1.387 . S
C688 N691 1.341 . S
C689 C687 1.400 . S
C689 C688 1.387 . S
N690 Co681 2.022 . S
N690 C687 1.351 . S
N690 N691 1.365 . S
N691 C688 1.341 . S
N691 N690 1.365 . S
N691 H711 0.862 . S
C692 C687 1.501 . S
C692 H693 0.961 . S
C692 H694 0.961 . S
C692 H695 0.960 . S
H693 C692 0.961 . S
H694 C692 0.961 . S
H695 C692 0.960 . S
C696 N697 1.342 . S
C696 C700 1.401 . S
C696 C701 1.499 . S
N697 Co680 1.989 . S
N697 C696 1.342 . S
N697 N698 1.388 . S
N698 Co681 1.993 . S
N698 N697 1.388 . S
N698 C699 1.346 . S
C699 N698 1.346 . S
C699 C700 1.396 . S
C699 C709 1.510 . S
C700 C696 1.401 . S
C700 C699 1.396 . S
C701 C696 1.499 . S
C701 H702 0.959 . S
C701 H703 0.960 . S
C701 H704 0.961 . S
H702 C701 0.959 . S
H703 C701 0.960 . S
H704 C701 0.961 . S
O705 Co680 1.967 . S
O705 C713 1.258 . S
O706 Co681 1.941 . S
O706 C713 1.266 . S
H707 C709 0.959 . S
H708 C709 0.961 . S
C709 C699 1.510 . S
C709 H707 0.959 . S
C709 H708 0.961 . S
C709 H710 0.960 . S
H710 C709 0.960 . S
H711 N691 0.862 . S
O712 Co680 1.920 . S
O712 C685 1.289 . S
C713 O705 1.258 . S
C713 O706 1.266 . S
Co714 O717 1.970 . S
Co714 N731 1.989 . S
Co714 O739 1.967 . S
Co714 O746 1.920 . S
Co715 O718 1.966 . S
Co715 N724 2.022 . S
Co715 N732 1.993 . S
Co715 O740 1.941 . S
C716 O717 1.258 . S
C716 O718 1.263 . S
O717 Co714 1.970 . S
O717 C716 1.258 . S
O718 Co715 1.966 . S
O718 C716 1.263 . S
C719 O720 1.235 . S
C719 O746 1.289 . S
O720 C719 1.235 . S
C721 C723 1.400 . S
C721 N724 1.351 . S
C721 C726 1.501 . S
C722 C723 1.387 . S
C722 N725 1.341 . S
C723 C721 1.400 . S
C723 C722 1.387 . S
N724 Co715 2.022 . S
N724 C721 1.351 . S
N724 N725 1.365 . S
N725 C722 1.341 . S
N725 N724 1.365 . S
N725 H745 0.862 . S
C726 C721 1.501 . S
C726 H727 0.961 . S
C726 H728 0.961 . S
C726 H729 0.960 . S
H727 C726 0.961 . S
H728 C726 0.961 . S
H729 C726 0.960 . S
C730 N731 1.342 . S
C730 C734 1.401 . S
C730 C735 1.499 . S
N731 Co714 1.989 . S
N731 C730 1.342 . S
N731 N732 1.388 . S
N732 Co715 1.993 . S
N732 N731 1.388 . S
N732 C733 1.346 . S
C733 N732 1.346 . S
C733 C734 1.396 . S
C733 C743 1.510 . S
C734 C730 1.401 . S
C734 C733 1.396 . S
C735 C730 1.499 . S
C735 H736 0.959 . S
C735 H737 0.960 . S
C735 H738 0.961 . S
H736 C735 0.959 . S
H737 C735 0.960 . S
H738 C735 0.961 . S
O739 Co714 1.967 . S
O739 C747 1.258 . S
O740 Co715 1.941 . S
O740 C747 1.266 . S
H741 C743 0.959 . S
H742 C743 0.961 . S
C743 C733 1.510 . S
C743 H741 0.959 . S
C743 H742 0.961 . S
C743 H744 0.960 . S
H744 C743 0.960 . S
H745 N725 0.862 . S
O746 Co714 1.920 . S
O746 C719 1.289 . S
C747 O739 1.258 . S
C747 O740 1.266 . S
Co748 O751 1.970 . S
Co748 N765 1.989 . S
Co748 O773 1.967 . S
Co748 O780 1.920 . S
Co749 O752 1.966 . S
Co749 N758 2.022 . S
Co749 N766 1.993 . S
Co749 O774 1.941 . S
C750 O751 1.258 . S
C750 O752 1.263 . S
O751 Co748 1.970 . S
O751 C750 1.258 . S
O752 Co749 1.966 . S
O752 C750 1.263 . S
C753 O754 1.235 . S
C753 O780 1.289 . S
O754 C753 1.235 . S
C755 C757 1.400 . S
C755 N758 1.351 . S
C755 C760 1.501 . S
C756 C757 1.387 . S
C756 N759 1.341 . S
C757 C755 1.400 . S
C757 C756 1.387 . S
N758 Co749 2.022 . S
N758 C755 1.351 . S
N758 N759 1.365 . S
N759 C756 1.341 . S
N759 N758 1.365 . S
N759 H779 0.862 . S
C760 C755 1.501 . S
C760 H761 0.961 . S
C760 H762 0.961 . S
C760 H763 0.960 . S
H761 C760 0.961 . S
H762 C760 0.961 . S
H763 C760 0.960 . S
C764 N765 1.342 . S
C764 C768 1.401 . S
C764 C769 1.499 . S
N765 Co748 1.989 . S
N765 C764 1.342 . S
N765 N766 1.388 . S
N766 Co749 1.993 . S
N766 N765 1.388 . S
N766 C767 1.346 . S
C767 N766 1.346 . S
C767 C768 1.396 . S
C767 C777 1.510 . S
C768 C764 1.401 . S
C768 C767 1.396 . S
C769 C764 1.499 . S
C769 H770 0.959 . S
C769 H771 0.960 . S
C769 H772 0.961 . S
H770 C769 0.959 . S
H771 C769 0.960 . S
H772 C769 0.961 . S
O773 Co748 1.967 . S
O773 C781 1.258 . S
O774 Co749 1.941 . S
O774 C781 1.266 . S
H775 C777 0.959 . S
H776 C777 0.961 . S
C777 C767 1.510 . S
C777 H775 0.959 . S
C777 H776 0.961 . S
C777 H778 0.960 . S
H778 C777 0.960 . S
H779 N759 0.862 . S
O780 Co748 1.920 . S
O780 C753 1.289 . S
C781 O773 1.258 . S
C781 O774 1.266 . S
Co782 O785 1.970 . S
Co782 N799 1.989 . S
Co782 O807 1.967 . S
Co782 O814 1.920 . S
Co783 O786 1.966 . S
Co783 N792 2.022 . S
Co783 N800 1.993 . S
Co783 O808 1.941 . S
C784 O785 1.258 . S
C784 O786 1.263 . S
O785 Co782 1.970 . S
O785 C784 1.258 . S
O786 Co783 1.966 . S
O786 C784 1.263 . S
C787 O788 1.235 . S
C787 O814 1.289 . S
O788 C787 1.235 . S
C789 C791 1.400 . S
C789 N792 1.351 . S
C789 C794 1.501 . S
C790 C791 1.387 . S
C790 N793 1.341 . S
C791 C789 1.400 . S
C791 C790 1.387 . S
N792 Co783 2.022 . S
N792 C789 1.351 . S
N792 N793 1.365 . S
N793 C790 1.341 . S
N793 N792 1.365 . S
N793 H813 0.862 . S
C794 C789 1.501 . S
C794 H795 0.961 . S
C794 H796 0.961 . S
C794 H797 0.960 . S
H795 C794 0.961 . S
H796 C794 0.961 . S
H797 C794 0.960 . S
C798 N799 1.342 . S
C798 C802 1.401 . S
C798 C803 1.499 . S
N799 Co782 1.989 . S
N799 C798 1.342 . S
N799 N800 1.388 . S
N800 Co783 1.993 . S
N800 N799 1.388 . S
N800 C801 1.346 . S
C801 N800 1.346 . S
C801 C802 1.396 . S
C801 C811 1.510 . S
C802 C798 1.401 . S
C802 C801 1.396 . S
C803 C798 1.499 . S
C803 H804 0.959 . S
C803 H805 0.960 . S
C803 H806 0.961 . S
H804 C803 0.959 . S
H805 C803 0.960 . S
H806 C803 0.961 . S
O807 Co782 1.967 . S
O807 C815 1.258 . S
O808 Co783 1.941 . S
O808 C815 1.266 . S
H809 C811 0.959 . S
H810 C811 0.961 . S
C811 C801 1.510 . S
C811 H809 0.959 . S
C811 H810 0.961 . S
C811 H812 0.960 . S
H812 C811 0.960 . S
H813 N793 0.862 . S
O814 Co782 1.920 . S
O814 C787 1.289 . S
C815 O807 1.258 . S
C815 O808 1.266 . S
H816 C824 0.950 . S
H817 C829 0.950 . S
H818 C826 0.950 . S
H819 C828 0.950 . S
H820 C830 0.950 . S
H821 C832 0.950 . S
H822 C834 0.950 . S
H823 C835 0.950 . S
C824 H816 0.950 . S
C824 C825 1.386 . S
C824 C826 1.391 . S
C825 C824 1.386 . S
C825 C829 1.393 . S
C826 H818 0.950 . S
C826 C824 1.391 . S
C826 C827 1.400 . S
C827 C826 1.400 . S
C827 C828 1.398 . S
C827 C833 1.491 . S
C828 H819 0.950 . S
C828 C827 1.398 . S
C828 C829 1.391 . S
C829 H817 0.950 . S
C829 C825 1.393 . S
C829 C828 1.391 . S
C830 H820 0.950 . S
C830 C831 1.386 . S
C830 C832 1.391 . S
C831 C830 1.386 . S
C831 C835 1.393 . S
C832 H821 0.950 . S
C832 C830 1.391 . S
C832 C833 1.400 . S
C833 C827 1.491 . S
C833 C832 1.400 . S
C833 C834 1.398 . S
C834 H822 0.950 . S
C834 C833 1.398 . S
C834 C835 1.391 . S
C835 H823 0.950 . S
C835 C831 1.393 . S
C835 C834 1.391 . S
H836 C844 0.950 . S
H837 C849 0.950 . S
H838 C846 0.950 . S
H839 C848 0.950 . S
H840 C850 0.950 . S
H841 C852 0.950 . S
H842 C854 0.950 . S
H843 C855 0.950 . S
C844 H836 0.950 . S
C844 C845 1.386 . S
C844 C846 1.391 . S
C845 C844 1.386 . S
C845 C849 1.393 . S
C846 H838 0.950 . S
C846 C844 1.391 . S
C846 C847 1.400 . S
C847 C846 1.400 . S
C847 C848 1.398 . S
C847 C853 1.491 . S
C848 H839 0.950 . S
C848 C847 1.398 . S
C848 C849 1.391 . S
C849 H837 0.950 . S
C849 C845 1.393 . S
C849 C848 1.391 . S
C850 H840 0.950 . S
C850 C851 1.386 . S
C850 C852 1.391 . S
C851 C850 1.386 . S
C851 C855 1.393 . S
C852 H841 0.950 . S
C852 C850 1.391 . S
C852 C853 1.400 . S
C853 C847 1.491 . S
C853 C852 1.400 . S
C853 C854 1.398 . S
C854 H842 0.950 . S
C854 C853 1.398 . S
C854 C855 1.391 . S
C855 H843 0.950 . S
C855 C851 1.393 . S
C855 C854 1.391 . S
H856 C864 0.950 . S
H857 C869 0.950 . S
H858 C866 0.950 . S
H859 C868 0.950 . S
H860 C870 0.950 . S
H861 C872 0.950 . S
H862 C874 0.950 . S
H863 C875 0.950 . S
C864 H856 0.950 . S
C864 C865 1.386 . S
C864 C866 1.391 . S
C865 C864 1.386 . S
C865 C869 1.393 . S
C866 H858 0.950 . S
C866 C864 1.391 . S
C866 C867 1.400 . S
C867 C866 1.400 . S
C867 C868 1.398 . S
C867 C873 1.491 . S
C868 H859 0.950 . S
C868 C867 1.398 . S
C868 C869 1.391 . S
C869 H857 0.950 . S
C869 C865 1.393 . S
C869 C868 1.391 . S
C870 H860 0.950 . S
C870 C871 1.386 . S
C870 C872 1.391 . S
C871 C870 1.386 . S
C871 C875 1.393 . S
C872 H861 0.950 . S
C872 C870 1.391 . S
C872 C873 1.400 . S
C873 C867 1.491 . S
C873 C872 1.400 . S
C873 C874 1.398 . S
C874 H862 0.950 . S
C874 C873 1.398 . S
C874 C875 1.391 . S
C875 H863 0.950 . S
C875 C871 1.393 . S
C875 C874 1.391 . S
H876 C884 0.950 . S
H877 C889 0.950 . S
H878 C886 0.950 . S
H879 C888 0.950 . S
H880 C890 0.950 . S
H881 C892 0.950 . S
H882 C894 0.950 . S
H883 C895 0.950 . S
C884 H876 0.950 . S
C884 C885 1.386 . S
C884 C886 1.391 . S
C885 C884 1.386 . S
C885 C889 1.393 . S
C886 H878 0.950 . S
C886 C884 1.391 . S
C886 C887 1.400 . S
C887 C886 1.400 . S
C887 C888 1.398 . S
C887 C893 1.491 . S
C888 H879 0.950 . S
C888 C887 1.398 . S
C888 C889 1.391 . S
C889 H877 0.950 . S
C889 C885 1.393 . S
C889 C888 1.391 . S
C890 H880 0.950 . S
C890 C891 1.386 . S
C890 C892 1.391 . S
C891 C890 1.386 . S
C891 C895 1.393 . S
C892 H881 0.950 . S
C892 C890 1.391 . S
C892 C893 1.400 . S
C893 C887 1.491 . S
C893 C892 1.400 . S
C893 C894 1.398 . S
C894 H882 0.950 . S
C894 C893 1.398 . S
C894 C895 1.391 . S
C895 H883 0.950 . S
C895 C891 1.393 . S
C895 C894 1.391 . S
H896 C904 0.950 . S
H897 C909 0.950 . S
H898 C906 0.950 . S
H899 C908 0.950 . S
H900 C910 0.950 . S
H901 C912 0.950 . S
H902 C914 0.950 . S
H903 C915 0.950 . S
C904 H896 0.950 . S
C904 C905 1.386 . S
C904 C906 1.391 . S
C905 C904 1.386 . S
C905 C909 1.393 . S
C906 H898 0.950 . S
C906 C904 1.391 . S
C906 C907 1.400 . S
C907 C906 1.400 . S
C907 C908 1.398 . S
C907 C913 1.491 . S
C908 H899 0.950 . S
C908 C907 1.398 . S
C908 C909 1.391 . S
C909 H897 0.950 . S
C909 C905 1.393 . S
C909 C908 1.391 . S
C910 H900 0.950 . S
C910 C911 1.386 . S
C910 C912 1.391 . S
C911 C910 1.386 . S
C911 C915 1.393 . S
C912 H901 0.950 . S
C912 C910 1.391 . S
C912 C913 1.400 . S
C913 C907 1.491 . S
C913 C912 1.400 . S
C913 C914 1.398 . S
C914 H902 0.950 . S
C914 C913 1.398 . S
C914 C915 1.391 . S
C915 H903 0.950 . S
C915 C911 1.393 . S
C915 C914 1.391 . S
H916 C924 0.950 . S
H917 C929 0.950 . S
H918 C926 0.950 . S
H919 C928 0.950 . S
H920 C930 0.950 . S
H921 C932 0.950 . S
H922 C934 0.950 . S
H923 C935 0.950 . S
C924 H916 0.950 . S
C924 C925 1.386 . S
C924 C926 1.391 . S
C925 C924 1.386 . S
C925 C929 1.393 . S
C926 H918 0.950 . S
C926 C924 1.391 . S
C926 C927 1.400 . S
C927 C926 1.400 . S
C927 C928 1.398 . S
C927 C933 1.491 . S
C928 H919 0.950 . S
C928 C927 1.398 . S
C928 C929 1.391 . S
C929 H917 0.950 . S
C929 C925 1.393 . S
C929 C928 1.391 . S
C930 H920 0.950 . S
C930 C931 1.386 . S
C930 C932 1.391 . S
C931 C930 1.386 . S
C931 C935 1.393 . S
C932 H921 0.950 . S
C932 C930 1.391 . S
C932 C933 1.400 . S
C933 C927 1.491 . S
C933 C932 1.400 . S
C933 C934 1.398 . S
C934 H922 0.950 . S
C934 C933 1.398 . S
C934 C935 1.391 . S
C935 H923 0.950 . S
C935 C931 1.393 . S
C935 C934 1.391 . S
H936 C944 0.950 . S
H937 C949 0.950 . S
H938 C946 0.950 . S
H939 C948 0.950 . S
H940 C950 0.950 . S
H941 C952 0.950 . S
H942 C954 0.950 . S
H943 C955 0.950 . S
C944 H936 0.950 . S
C944 C945 1.386 . S
C944 C946 1.391 . S
C945 C944 1.386 . S
C945 C949 1.393 . S
C946 H938 0.950 . S
C946 C944 1.391 . S
C946 C947 1.400 . S
C947 C946 1.400 . S
C947 C948 1.398 . S
C947 C953 1.491 . S
C948 H939 0.950 . S
C948 C947 1.398 . S
C948 C949 1.391 . S
C949 H937 0.950 . S
C949 C945 1.393 . S
C949 C948 1.391 . S
C950 H940 0.950 . S
C950 C951 1.386 . S
C950 C952 1.391 . S
C951 C950 1.386 . S
C951 C955 1.393 . S
C952 H941 0.950 . S
C952 C950 1.391 . S
C952 C953 1.400 . S
C953 C947 1.491 . S
C953 C952 1.400 . S
C953 C954 1.398 . S
C954 H942 0.950 . S
C954 C953 1.398 . S
C954 C955 1.391 . S
C955 H943 0.950 . S
C955 C951 1.393 . S
C955 C954 1.391 . S
H956 C964 0.950 . S
H957 C969 0.950 . S
H958 C966 0.950 . S
H959 C968 0.950 . S
H960 C970 0.950 . S
H961 C972 0.950 . S
H962 C974 0.950 . S
H963 C975 0.950 . S
C964 H956 0.950 . S
C964 C965 1.386 . S
C964 C966 1.391 . S
C965 C964 1.386 . S
C965 C969 1.393 . S
C966 H958 0.950 . S
C966 C964 1.391 . S
C966 C967 1.400 . S
C967 C966 1.400 . S
C967 C968 1.398 . S
C967 C973 1.491 . S
C968 H959 0.950 . S
C968 C967 1.398 . S
C968 C969 1.391 . S
C969 H957 0.950 . S
C969 C965 1.393 . S
C969 C968 1.391 . S
C970 H960 0.950 . S
C970 C971 1.386 . S
C970 C972 1.391 . S
C971 C970 1.386 . S
C971 C975 1.393 . S
C972 H961 0.950 . S
C972 C970 1.391 . S
C972 C973 1.400 . S
C973 C967 1.491 . S
C973 C972 1.400 . S
C973 C974 1.398 . S
C974 H962 0.950 . S
C974 C973 1.398 . S
C974 C975 1.391 . S
C975 H963 0.950 . S
C975 C971 1.393 . S
C975 C974 1.391 . S
H976 C984 0.950 . S
H977 C989 0.950 . S
H978 C986 0.950 . S
H979 C988 0.950 . S
H980 C990 0.950 . S
H981 C992 0.950 . S
H982 C994 0.950 . S
H983 C995 0.950 . S
C984 H976 0.950 . S
C984 C985 1.386 . S
C984 C986 1.391 . S
C985 C984 1.386 . S
C985 C989 1.393 . S
C986 H978 0.950 . S
C986 C984 1.391 . S
C986 C987 1.400 . S
C987 C986 1.400 . S
C987 C988 1.398 . S
C987 C993 1.491 . S
C988 H979 0.950 . S
C988 C987 1.398 . S
C988 C989 1.391 . S
C989 H977 0.950 . S
C989 C985 1.393 . S
C989 C988 1.391 . S
C990 H980 0.950 . S
C990 C991 1.386 . S
C990 C992 1.391 . S
C991 C990 1.386 . S
C991 C995 1.393 . S
C992 H981 0.950 . S
C992 C990 1.391 . S
C992 C993 1.400 . S
C993 C987 1.491 . S
C993 C992 1.400 . S
C993 C994 1.398 . S
C994 H982 0.950 . S
C994 C993 1.398 . S
C994 C995 1.391 . S
C995 H983 0.950 . S
C995 C991 1.393 . S
C995 C994 1.391 . S
H996 C1004 0.950 . S
H997 C1009 0.950 . S
H998 C1006 0.950 . S
H999 C1008 0.950 . S
H1000 C1010 0.950 . S
H1001 C1012 0.950 . S
H1002 C1014 0.950 . S
H1003 C1015 0.950 . S
C1004 H996 0.950 . S
C1004 C1005 1.386 . S
C1004 C1006 1.391 . S
C1005 C1004 1.386 . S
C1005 C1009 1.393 . S
C1006 H998 0.950 . S
C1006 C1004 1.391 . S
C1006 C1007 1.400 . S
C1007 C1006 1.400 . S
C1007 C1008 1.398 . S
C1007 C1013 1.491 . S
C1008 H999 0.950 . S
C1008 C1007 1.398 . S
C1008 C1009 1.391 . S
C1009 H997 0.950 . S
C1009 C1005 1.393 . S
C1009 C1008 1.391 . S
C1010 H1000 0.950 . S
C1010 C1011 1.386 . S
C1010 C1012 1.391 . S
C1011 C1010 1.386 . S
C1011 C1015 1.393 . S
C1012 H1001 0.950 . S
C1012 C1010 1.391 . S
C1012 C1013 1.400 . S
C1013 C1007 1.491 . S
C1013 C1012 1.400 . S
C1013 C1014 1.398 . S
C1014 H1002 0.950 . S
C1014 C1013 1.398 . S
C1014 C1015 1.391 . S
C1015 H1003 0.950 . S
C1015 C1011 1.393 . S
C1015 C1014 1.391 . S
H1016 C1024 0.950 . S
H1017 C1029 0.950 . S
H1018 C1026 0.950 . S
H1019 C1028 0.950 . S
H1020 C1030 0.950 . S
H1021 C1032 0.950 . S
H1022 C1034 0.950 . S
H1023 C1035 0.950 . S
C1024 H1016 0.950 . S
C1024 C1025 1.386 . S
C1024 C1026 1.391 . S
C1025 C1024 1.386 . S
C1025 C1029 1.393 . S
C1026 H1018 0.950 . S
C1026 C1024 1.391 . S
C1026 C1027 1.400 . S
C1027 C1026 1.400 . S
C1027 C1028 1.398 . S
C1027 C1033 1.491 . S
C1028 H1019 0.950 . S
C1028 C1027 1.398 . S
C1028 C1029 1.391 . S
C1029 H1017 0.950 . S
C1029 C1025 1.393 . S
C1029 C1028 1.391 . S
C1030 H1020 0.950 . S
C1030 C1031 1.386 . S
C1030 C1032 1.391 . S
C1031 C1030 1.386 . S
C1031 C1035 1.393 . S
C1032 H1021 0.950 . S
C1032 C1030 1.391 . S
C1032 C1033 1.400 . S
C1033 C1027 1.491 . S
C1033 C1032 1.400 . S
C1033 C1034 1.398 . S
C1034 H1022 0.950 . S
C1034 C1033 1.398 . S
C1034 C1035 1.391 . S
C1035 H1023 0.950 . S
C1035 C1031 1.393 . S
C1035 C1034 1.391 . S
H1036 C1044 0.950 . S
H1037 C1049 0.950 . S
H1038 C1046 0.950 . S
H1039 C1048 0.950 . S
H1040 C1050 0.950 . S
H1041 C1052 0.950 . S
H1042 C1054 0.950 . S
H1043 C1055 0.950 . S
C1044 H1036 0.950 . S
C1044 C1045 1.386 . S
C1044 C1046 1.391 . S
C1045 C1044 1.386 . S
C1045 C1049 1.393 . S
C1046 H1038 0.950 . S
C1046 C1044 1.391 . S
C1046 C1047 1.400 . S
C1047 C1046 1.400 . S
C1047 C1048 1.398 . S
C1047 C1053 1.491 . S
C1048 H1039 0.950 . S
C1048 C1047 1.398 . S
C1048 C1049 1.391 . S
C1049 H1037 0.950 . S
C1049 C1045 1.393 . S
C1049 C1048 1.391 . S
C1050 H1040 0.950 . S
C1050 C1051 1.386 . S
C1050 C1052 1.391 . S
C1051 C1050 1.386 . S
C1051 C1055 1.393 . S
C1052 H1041 0.950 . S
C1052 C1050 1.391 . S
C1052 C1053 1.400 . S
C1053 C1047 1.491 . S
C1053 C1052 1.400 . S
C1053 C1054 1.398 . S
C1054 H1042 0.950 . S
C1054 C1053 1.398 . S
C1054 C1055 1.391 . S
C1055 H1043 0.950 . S
C1055 C1051 1.393 . S
C1055 C1054 1.391 . S
H1056 C1064 0.950 . S
H1057 C1069 0.950 . S
H1058 C1066 0.950 . S
H1059 C1068 0.950 . S
H1060 C1070 0.950 . S
H1061 C1072 0.950 . S
H1062 C1074 0.950 . S
H1063 C1075 0.950 . S
C1064 H1056 0.950 . S
C1064 C1065 1.386 . S
C1064 C1066 1.391 . S
C1065 C1064 1.386 . S
C1065 C1069 1.393 . S
C1066 H1058 0.950 . S
C1066 C1064 1.391 . S
C1066 C1067 1.400 . S
C1067 C1066 1.400 . S
C1067 C1068 1.398 . S
C1067 C1073 1.491 . S
C1068 H1059 0.950 . S
C1068 C1067 1.398 . S
C1068 C1069 1.391 . S
C1069 H1057 0.950 . S
C1069 C1065 1.393 . S
C1069 C1068 1.391 . S
C1070 H1060 0.950 . S
C1070 C1071 1.386 . S
C1070 C1072 1.391 . S
C1071 C1070 1.386 . S
C1071 C1075 1.393 . S
C1072 H1061 0.950 . S
C1072 C1070 1.391 . S
C1072 C1073 1.400 . S
C1073 C1067 1.491 . S
C1073 C1072 1.400 . S
C1073 C1074 1.398 . S
C1074 H1062 0.950 . S
C1074 C1073 1.398 . S
C1074 C1075 1.391 . S
C1075 H1063 0.950 . S
C1075 C1071 1.393 . S
C1075 C1074 1.391 . S
H1076 C1084 0.950 . S
H1077 C1089 0.950 . S
H1078 C1086 0.950 . S
H1079 C1088 0.950 . S
H1080 C1090 0.950 . S
H1081 C1092 0.950 . S
H1082 C1094 0.950 . S
H1083 C1095 0.950 . S
C1084 H1076 0.950 . S
C1084 C1085 1.386 . S
C1084 C1086 1.391 . S
C1085 C1084 1.386 . S
C1085 C1089 1.393 . S
C1086 H1078 0.950 . S
C1086 C1084 1.391 . S
C1086 C1087 1.400 . S
C1087 C1086 1.400 . S
C1087 C1088 1.398 . S
C1087 C1093 1.491 . S
C1088 H1079 0.950 . S
C1088 C1087 1.398 . S
C1088 C1089 1.391 . S
C1089 H1077 0.950 . S
C1089 C1085 1.393 . S
C1089 C1088 1.391 . S
C1090 H1080 0.950 . S
C1090 C1091 1.386 . S
C1090 C1092 1.391 . S
C1091 C1090 1.386 . S
C1091 C1095 1.393 . S
C1092 H1081 0.950 . S
C1092 C1090 1.391 . S
C1092 C1093 1.400 . S
C1093 C1087 1.491 . S
C1093 C1092 1.400 . S
C1093 C1094 1.398 . S
C1094 H1082 0.950 . S
C1094 C1093 1.398 . S
C1094 C1095 1.391 . S
C1095 H1083 0.950 . S
C1095 C1091 1.393 . S
C1095 C1094 1.391 . S
H1096 C1104 0.950 . S
H1097 C1109 0.950 . S
H1098 C1106 0.950 . S
H1099 C1108 0.950 . S
H1100 C1110 0.950 . S
H1101 C1112 0.950 . S
H1102 C1114 0.950 . S
H1103 C1115 0.950 . S
C1104 H1096 0.950 . S
C1104 C1105 1.386 . S
C1104 C1106 1.391 . S
C1105 C1104 1.386 . S
C1105 C1109 1.393 . S
C1106 H1098 0.950 . S
C1106 C1104 1.391 . S
C1106 C1107 1.400 . S
C1107 C1106 1.400 . S
C1107 C1108 1.398 . S
C1107 C1113 1.491 . S
C1108 H1099 0.950 . S
C1108 C1107 1.398 . S
C1108 C1109 1.391 . S
C1109 H1097 0.950 . S
C1109 C1105 1.393 . S
C1109 C1108 1.391 . S
C1110 H1100 0.950 . S
C1110 C1111 1.386 . S
C1110 C1112 1.391 . S
C1111 C1110 1.386 . S
C1111 C1115 1.393 . S
C1112 H1101 0.950 . S
C1112 C1110 1.391 . S
C1112 C1113 1.400 . S
C1113 C1107 1.491 . S
C1113 C1112 1.400 . S
C1113 C1114 1.398 . S
C1114 H1102 0.950 . S
C1114 C1113 1.398 . S
C1114 C1115 1.391 . S
C1115 H1103 0.950 . S
C1115 C1111 1.393 . S
C1115 C1114 1.391 . S
H1116 C1124 0.950 . S
H1117 C1129 0.950 . S
H1118 C1126 0.950 . S
H1119 C1128 0.950 . S
H1120 C1130 0.950 . S
H1121 C1132 0.950 . S
H1122 C1134 0.950 . S
H1123 C1135 0.950 . S
C1124 H1116 0.950 . S
C1124 C1125 1.386 . S
C1124 C1126 1.391 . S
C1125 C1124 1.386 . S
C1125 C1129 1.393 . S
C1126 H1118 0.950 . S
C1126 C1124 1.391 . S
C1126 C1127 1.400 . S
C1127 C1126 1.400 . S
C1127 C1128 1.398 . S
C1127 C1133 1.491 . S
C1128 H1119 0.950 . S
C1128 C1127 1.398 . S
C1128 C1129 1.391 . S
C1129 H1117 0.950 . S
C1129 C1125 1.393 . S
C1129 C1128 1.391 . S
C1130 H1120 0.950 . S
C1130 C1131 1.386 . S
C1130 C1132 1.391 . S
C1131 C1130 1.386 . S
C1131 C1135 1.393 . S
C1132 H1121 0.950 . S
C1132 C1130 1.391 . S
C1132 C1133 1.400 . S
C1133 C1127 1.491 . S
C1133 C1132 1.400 . S
C1133 C1134 1.398 . S
C1134 H1122 0.950 . S
C1134 C1133 1.398 . S
C1134 C1135 1.391 . S
C1135 H1123 0.950 . S
C1135 C1131 1.393 . S
C1135 C1134 1.391 . S
H1136 C1144 0.950 . S
H1137 C1149 0.950 . S
H1138 C1146 0.950 . S
H1139 C1148 0.950 . S
H1140 C1150 0.950 . S
H1141 C1152 0.950 . S
H1142 C1154 0.950 . S
H1143 C1155 0.950 . S
C1144 H1136 0.950 . S
C1144 C1145 1.386 . S
C1144 C1146 1.391 . S
C1145 C1144 1.386 . S
C1145 C1149 1.393 . S
C1146 H1138 0.950 . S
C1146 C1144 1.391 . S
C1146 C1147 1.400 . S
C1147 C1146 1.400 . S
C1147 C1148 1.398 . S
C1147 C1153 1.491 . S
C1148 H1139 0.950 . S
C1148 C1147 1.398 . S
C1148 C1149 1.391 . S
C1149 H1137 0.950 . S
C1149 C1145 1.393 . S
C1149 C1148 1.391 . S
C1150 H1140 0.950 . S
C1150 C1151 1.386 . S
C1150 C1152 1.391 . S
C1151 C1150 1.386 . S
C1151 C1155 1.393 . S
C1152 H1141 0.950 . S
C1152 C1150 1.391 . S
C1152 C1153 1.400 . S
C1153 C1147 1.491 . S
C1153 C1152 1.400 . S
C1153 C1154 1.398 . S
C1154 H1142 0.950 . S
C1154 C1153 1.398 . S
C1154 C1155 1.391 . S
C1155 H1143 0.950 . S
C1155 C1151 1.393 . S
C1155 C1154 1.391 . S
H1156 C1164 0.950 . S
H1157 C1169 0.950 . S
H1158 C1166 0.950 . S
H1159 C1168 0.950 . S
H1160 C1170 0.950 . S
H1161 C1172 0.950 . S
H1162 C1174 0.950 . S
H1163 C1175 0.950 . S
C1164 H1156 0.950 . S
C1164 C1165 1.386 . S
C1164 C1166 1.391 . S
C1165 C1164 1.386 . S
C1165 C1169 1.393 . S
C1166 H1158 0.950 . S
C1166 C1164 1.391 . S
C1166 C1167 1.400 . S
C1167 C1166 1.400 . S
C1167 C1168 1.398 . S
C1167 C1173 1.491 . S
C1168 H1159 0.950 . S
C1168 C1167 1.398 . S
C1168 C1169 1.391 . S
C1169 H1157 0.950 . S
C1169 C1165 1.393 . S
C1169 C1168 1.391 . S
C1170 H1160 0.950 . S
C1170 C1171 1.386 . S
C1170 C1172 1.391 . S
C1171 C1170 1.386 . S
C1171 C1175 1.393 . S
C1172 H1161 0.950 . S
C1172 C1170 1.391 . S
C1172 C1173 1.400 . S
C1173 C1167 1.491 . S
C1173 C1172 1.400 . S
C1173 C1174 1.398 . S
C1174 H1162 0.950 . S
C1174 C1173 1.398 . S
C1174 C1175 1.391 . S
C1175 H1163 0.950 . S
C1175 C1171 1.393 . S
C1175 C1174 1.391 . S
H1176 C1184 0.950 . S
H1177 C1189 0.950 . S
H1178 C1186 0.950 . S
H1179 C1188 0.950 . S
H1180 C1190 0.950 . S
H1181 C1192 0.950 . S
H1182 C1194 0.950 . S
H1183 C1195 0.950 . S
C1184 H1176 0.950 . S
C1184 C1185 1.386 . S
C1184 C1186 1.391 . S
C1185 C1184 1.386 . S
C1185 C1189 1.393 . S
C1186 H1178 0.950 . S
C1186 C1184 1.391 . S
C1186 C1187 1.400 . S
C1187 C1186 1.400 . S
C1187 C1188 1.398 . S
C1187 C1193 1.491 . S
C1188 H1179 0.950 . S
C1188 C1187 1.398 . S
C1188 C1189 1.391 . S
C1189 H1177 0.950 . S
C1189 C1185 1.393 . S
C1189 C1188 1.391 . S
C1190 H1180 0.950 . S
C1190 C1191 1.386 . S
C1190 C1192 1.391 . S
C1191 C1190 1.386 . S
C1191 C1195 1.393 . S
C1192 H1181 0.950 . S
C1192 C1190 1.391 . S
C1192 C1193 1.400 . S
C1193 C1187 1.491 . S
C1193 C1192 1.400 . S
C1193 C1194 1.398 . S
C1194 H1182 0.950 . S
C1194 C1193 1.398 . S
C1194 C1195 1.391 . S
C1195 H1183 0.950 . S
C1195 C1191 1.393 . S
C1195 C1194 1.391 . S
H1196 C1204 0.950 . S
H1197 C1209 0.950 . S
H1198 C1206 0.950 . S
H1199 C1208 0.950 . S
H1200 C1210 0.950 . S
H1201 C1212 0.950 . S
H1202 C1214 0.950 . S
H1203 C1215 0.950 . S
C1204 H1196 0.950 . S
C1204 C1205 1.386 . S
C1204 C1206 1.391 . S
C1205 C1204 1.386 . S
C1205 C1209 1.393 . S
C1206 H1198 0.950 . S
C1206 C1204 1.391 . S
C1206 C1207 1.400 . S
C1207 C1206 1.400 . S
C1207 C1208 1.398 . S
C1207 C1213 1.491 . S
C1208 H1199 0.950 . S
C1208 C1207 1.398 . S
C1208 C1209 1.391 . S
C1209 H1197 0.950 . S
C1209 C1205 1.393 . S
C1209 C1208 1.391 . S
C1210 H1200 0.950 . S
C1210 C1211 1.386 . S
C1210 C1212 1.391 . S
C1211 C1210 1.386 . S
C1211 C1215 1.393 . S
C1212 H1201 0.950 . S
C1212 C1210 1.391 . S
C1212 C1213 1.400 . S
C1213 C1207 1.491 . S
C1213 C1212 1.400 . S
C1213 C1214 1.398 . S
C1214 H1202 0.950 . S
C1214 C1213 1.398 . S
C1214 C1215 1.391 . S
C1215 H1203 0.950 . S
C1215 C1211 1.393 . S
C1215 C1214 1.391 . S
H1216 C1224 0.950 . S
H1217 C1229 0.950 . S
H1218 C1226 0.950 . S
H1219 C1228 0.950 . S
H1220 C1230 0.950 . S
H1221 C1232 0.950 . S
H1222 C1234 0.950 . S
H1223 C1235 0.950 . S
C1224 H1216 0.950 . S
C1224 C1225 1.386 . S
C1224 C1226 1.391 . S
C1225 C1224 1.386 . S
C1225 C1229 1.393 . S
C1226 H1218 0.950 . S
C1226 C1224 1.391 . S
C1226 C1227 1.400 . S
C1227 C1226 1.400 . S
C1227 C1228 1.398 . S
C1227 C1233 1.491 . S
C1228 H1219 0.950 . S
C1228 C1227 1.398 . S
C1228 C1229 1.391 . S
C1229 H1217 0.950 . S
C1229 C1225 1.393 . S
C1229 C1228 1.391 . S
C1230 H1220 0.950 . S
C1230 C1231 1.386 . S
C1230 C1232 1.391 . S
C1231 C1230 1.386 . S
C1231 C1235 1.393 . S
C1232 H1221 0.950 . S
C1232 C1230 1.391 . S
C1232 C1233 1.400 . S
C1233 C1227 1.491 . S
C1233 C1232 1.400 . S
C1233 C1234 1.398 . S
C1234 H1222 0.950 . S
C1234 C1233 1.398 . S
C1234 C1235 1.391 . S
C1235 H1223 0.950 . S
C1235 C1231 1.393 . S
C1235 C1234 1.391 . S
H1236 C1244 0.950 . S
H1237 C1249 0.950 . S
H1238 C1246 0.950 . S
H1239 C1248 0.950 . S
H1240 C1250 0.950 . S
H1241 C1252 0.950 . S
H1242 C1254 0.950 . S
H1243 C1255 0.950 . S
C1244 H1236 0.950 . S
C1244 C1245 1.386 . S
C1244 C1246 1.391 . S
C1245 C1244 1.386 . S
C1245 C1249 1.393 . S
C1246 H1238 0.950 . S
C1246 C1244 1.391 . S
C1246 C1247 1.400 . S
C1247 C1246 1.400 . S
C1247 C1248 1.398 . S
C1247 C1253 1.491 . S
C1248 H1239 0.950 . S
C1248 C1247 1.398 . S
C1248 C1249 1.391 . S
C1249 H1237 0.950 . S
C1249 C1245 1.393 . S
C1249 C1248 1.391 . S
C1250 H1240 0.950 . S
C1250 C1251 1.386 . S
C1250 C1252 1.391 . S
C1251 C1250 1.386 . S
C1251 C1255 1.393 . S
C1252 H1241 0.950 . S
C1252 C1250 1.391 . S
C1252 C1253 1.400 . S
C1253 C1247 1.491 . S
C1253 C1252 1.400 . S
C1253 C1254 1.398 . S
C1254 H1242 0.950 . S
C1254 C1253 1.398 . S
C1254 C1255 1.391 . S
C1255 H1243 0.950 . S
C1255 C1251 1.393 . S
C1255 C1254 1.391 . S
H1256 C1264 0.950 . S
H1257 C1269 0.950 . S
H1258 C1266 0.950 . S
H1259 C1268 0.950 . S
H1260 C1270 0.950 . S
H1261 C1272 0.950 . S
H1262 C1274 0.950 . S
H1263 C1275 0.950 . S
C1264 H1256 0.950 . S
C1264 C1265 1.386 . S
C1264 C1266 1.391 . S
C1265 C1264 1.386 . S
C1265 C1269 1.393 . S
C1266 H1258 0.950 . S
C1266 C1264 1.391 . S
C1266 C1267 1.400 . S
C1267 C1266 1.400 . S
C1267 C1268 1.398 . S
C1267 C1273 1.491 . S
C1268 H1259 0.950 . S
C1268 C1267 1.398 . S
C1268 C1269 1.391 . S
C1269 H1257 0.950 . S
C1269 C1265 1.393 . S
C1269 C1268 1.391 . S
C1270 H1260 0.950 . S
C1270 C1271 1.386 . S
C1270 C1272 1.391 . S
C1271 C1270 1.386 . S
C1271 C1275 1.393 . S
C1272 H1261 0.950 . S
C1272 C1270 1.391 . S
C1272 C1273 1.400 . S
C1273 C1267 1.491 . S
C1273 C1272 1.400 . S
C1273 C1274 1.398 . S
C1274 H1262 0.950 . S
C1274 C1273 1.398 . S
C1274 C1275 1.391 . S
C1275 H1263 0.950 . S
C1275 C1271 1.393 . S
C1275 C1274 1.391 . S
H1276 C1284 0.950 . S
H1277 C1289 0.950 . S
H1278 C1286 0.950 . S
H1279 C1288 0.950 . S
H1280 C1290 0.950 . S
H1281 C1292 0.950 . S
H1282 C1294 0.950 . S
H1283 C1295 0.950 . S
C1284 H1276 0.950 . S
C1284 C1285 1.386 . S
C1284 C1286 1.391 . S
C1285 C1284 1.386 . S
C1285 C1289 1.393 . S
C1286 H1278 0.950 . S
C1286 C1284 1.391 . S
C1286 C1287 1.400 . S
C1287 C1286 1.400 . S
C1287 C1288 1.398 . S
C1287 C1293 1.491 . S
C1288 H1279 0.950 . S
C1288 C1287 1.398 . S
C1288 C1289 1.391 . S
C1289 H1277 0.950 . S
C1289 C1285 1.393 . S
C1289 C1288 1.391 . S
C1290 H1280 0.950 . S
C1290 C1291 1.386 . S
C1290 C1292 1.391 . S
C1291 C1290 1.386 . S
C1291 C1295 1.393 . S
C1292 H1281 0.950 . S
C1292 C1290 1.391 . S
C1292 C1293 1.400 . S
C1293 C1287 1.491 . S
C1293 C1292 1.400 . S
C1293 C1294 1.398 . S
C1294 H1282 0.950 . S
C1294 C1293 1.398 . S
C1294 C1295 1.391 . S
C1295 H1283 0.950 . S
C1295 C1291 1.393 . S
C1295 C1294 1.391 . S
H1296 C1304 0.950 . S
H1297 C1309 0.950 . S
H1298 C1306 0.950 . S
H1299 C1308 0.950 . S
H1300 C1310 0.950 . S
H1301 C1312 0.950 . S
H1302 C1314 0.950 . S
H1303 C1315 0.950 . S
C1304 H1296 0.950 . S
C1304 C1305 1.386 . S
C1304 C1306 1.391 . S
C1305 C1304 1.386 . S
C1305 C1309 1.393 . S
C1306 H1298 0.950 . S
C1306 C1304 1.391 . S
C1306 C1307 1.400 . S
C1307 C1306 1.400 . S
C1307 C1308 1.398 . S
C1307 C1313 1.491 . S
C1308 H1299 0.950 . S
C1308 C1307 1.398 . S
C1308 C1309 1.391 . S
C1309 H1297 0.950 . S
C1309 C1305 1.393 . S
C1309 C1308 1.391 . S
C1310 H1300 0.950 . S
C1310 C1311 1.386 . S
C1310 C1312 1.391 . S
C1311 C1310 1.386 . S
C1311 C1315 1.393 . S
C1312 H1301 0.950 . S
C1312 C1310 1.391 . S
C1312 C1313 1.400 . S
C1313 C1307 1.491 . S
C1313 C1312 1.400 . S
C1313 C1314 1.398 . S
C1314 H1302 0.950 . S
C1314 C1313 1.398 . S
C1314 C1315 1.391 . S
C1315 H1303 0.950 . S
C1315 C1311 1.393 . S
C1315 C1314 1.391 . S
H1316 C1324 0.950 . S
H1317 C1329 0.950 . S
H1318 C1326 0.950 . S
H1319 C1328 0.950 . S
H1320 C1330 0.950 . S
H1321 C1332 0.950 . S
H1322 C1334 0.950 . S
H1323 C1335 0.950 . S
C1324 H1316 0.950 . S
C1324 C1325 1.386 . S
C1324 C1326 1.391 . S
C1325 C1324 1.386 . S
C1325 C1329 1.393 . S
C1326 H1318 0.950 . S
C1326 C1324 1.391 . S
C1326 C1327 1.400 . S
C1327 C1326 1.400 . S
C1327 C1328 1.398 . S
C1327 C1333 1.491 . S
C1328 H1319 0.950 . S
C1328 C1327 1.398 . S
C1328 C1329 1.391 . S
C1329 H1317 0.950 . S
C1329 C1325 1.393 . S
C1329 C1328 1.391 . S
C1330 H1320 0.950 . S
C1330 C1331 1.386 . S
C1330 C1332 1.391 . S
C1331 C1330 1.386 . S
C1331 C1335 1.393 . S
C1332 H1321 0.950 . S
C1332 C1330 1.391 . S
C1332 C1333 1.400 . S
C1333 C1327 1.491 . S
C1333 C1332 1.400 . S
C1333 C1334 1.398 . S
C1334 H1322 0.950 . S
C1334 C1333 1.398 . S
C1334 C1335 1.391 . S
C1335 H1323 0.950 . S
C1335 C1331 1.393 . S
C1335 C1334 1.391 . S
H1336 C1344 0.950 . S
H1337 C1349 0.950 . S
H1338 C1346 0.950 . S
H1339 C1348 0.950 . S
H1340 C1350 0.950 . S
H1341 C1352 0.950 . S
H1342 C1354 0.950 . S
H1343 C1355 0.950 . S
C1344 H1336 0.950 . S
C1344 C1345 1.386 . S
C1344 C1346 1.391 . S
C1345 C1344 1.386 . S
C1345 C1349 1.393 . S
C1346 H1338 0.950 . S
C1346 C1344 1.391 . S
C1346 C1347 1.400 . S
C1347 C1346 1.400 . S
C1347 C1348 1.398 . S
C1347 C1353 1.491 . S
C1348 H1339 0.950 . S
C1348 C1347 1.398 . S
C1348 C1349 1.391 . S
C1349 H1337 0.950 . S
C1349 C1345 1.393 . S
C1349 C1348 1.391 . S
C1350 H1340 0.950 . S
C1350 C1351 1.386 . S
C1350 C1352 1.391 . S
C1351 C1350 1.386 . S
C1351 C1355 1.393 . S
C1352 H1341 0.950 . S
C1352 C1350 1.391 . S
C1352 C1353 1.400 . S
C1353 C1347 1.491 . S
C1353 C1352 1.400 . S
C1353 C1354 1.398 . S
C1354 H1342 0.950 . S
C1354 C1353 1.398 . S
C1354 C1355 1.391 . S
C1355 H1343 0.950 . S
C1355 C1351 1.393 . S
C1355 C1354 1.391 . S
H1356 C1364 0.950 . S
H1357 C1369 0.950 . S
H1358 C1366 0.950 . S
H1359 C1368 0.950 . S
H1360 C1370 0.950 . S
H1361 C1372 0.950 . S
H1362 C1374 0.950 . S
H1363 C1375 0.950 . S
C1364 H1356 0.950 . S
C1364 C1365 1.386 . S
C1364 C1366 1.391 . S
C1365 C1364 1.386 . S
C1365 C1369 1.393 . S
C1366 H1358 0.950 . S
C1366 C1364 1.391 . S
C1366 C1367 1.400 . S
C1367 C1366 1.400 . S
C1367 C1368 1.398 . S
C1367 C1373 1.491 . S
C1368 H1359 0.950 . S
C1368 C1367 1.398 . S
C1368 C1369 1.391 . S
C1369 H1357 0.950 . S
C1369 C1365 1.393 . S
C1369 C1368 1.391 . S
C1370 H1360 0.950 . S
C1370 C1371 1.386 . S
C1370 C1372 1.391 . S
C1371 C1370 1.386 . S
C1371 C1375 1.393 . S
C1372 H1361 0.950 . S
C1372 C1370 1.391 . S
C1372 C1373 1.400 . S
C1373 C1367 1.491 . S
C1373 C1372 1.400 . S
C1373 C1374 1.398 . S
C1374 H1362 0.950 . S
C1374 C1373 1.398 . S
C1374 C1375 1.391 . S
C1375 H1363 0.950 . S
C1375 C1371 1.393 . S
C1375 C1374 1.391 . S
H1376 C1384 0.950 . S
H1377 C1389 0.950 . S
H1378 C1386 0.950 . S
H1379 C1388 0.950 . S
H1380 C1390 0.950 . S
H1381 C1392 0.950 . S
H1382 C1394 0.950 . S
H1383 C1395 0.950 . S
C1384 H1376 0.950 . S
C1384 C1385 1.386 . S
C1384 C1386 1.391 . S
C1385 C1384 1.386 . S
C1385 C1389 1.393 . S
C1386 H1378 0.950 . S
C1386 C1384 1.391 . S
C1386 C1387 1.400 . S
C1387 C1386 1.400 . S
C1387 C1388 1.398 . S
C1387 C1393 1.491 . S
C1388 H1379 0.950 . S
C1388 C1387 1.398 . S
C1388 C1389 1.391 . S
C1389 H1377 0.950 . S
C1389 C1385 1.393 . S
C1389 C1388 1.391 . S
C1390 H1380 0.950 . S
C1390 C1391 1.386 . S
C1390 C1392 1.391 . S
C1391 C1390 1.386 . S
C1391 C1395 1.393 . S
C1392 H1381 0.950 . S
C1392 C1390 1.391 . S
C1392 C1393 1.400 . S
C1393 C1387 1.491 . S
C1393 C1392 1.400 . S
C1393 C1394 1.398 . S
C1394 H1382 0.950 . S
C1394 C1393 1.398 . S
C1394 C1395 1.391 . S
C1395 H1383 0.950 . S
C1395 C1391 1.393 . S
C1395 C1394 1.391 . S
H1396 C1404 0.950 . S
H1397 C1409 0.950 . S
H1398 C1406 0.950 . S
H1399 C1408 0.950 . S
H1400 C1410 0.950 . S
H1401 C1412 0.950 . S
H1402 C1414 0.950 . S
H1403 C1415 0.950 . S
C1404 H1396 0.950 . S
C1404 C1405 1.386 . S
C1404 C1406 1.391 . S
C1405 C1404 1.386 . S
C1405 C1409 1.393 . S
C1406 H1398 0.950 . S
C1406 C1404 1.391 . S
C1406 C1407 1.400 . S
C1407 C1406 1.400 . S
C1407 C1408 1.398 . S
C1407 C1413 1.491 . S
C1408 H1399 0.950 . S
C1408 C1407 1.398 . S
C1408 C1409 1.391 . S
C1409 H1397 0.950 . S
C1409 C1405 1.393 . S
C1409 C1408 1.391 . S
C1410 H1400 0.950 . S
C1410 C1411 1.386 . S
C1410 C1412 1.391 . S
C1411 C1410 1.386 . S
C1411 C1415 1.393 . S
C1412 H1401 0.950 . S
C1412 C1410 1.391 . S
C1412 C1413 1.400 . S
C1413 C1407 1.491 . S
C1413 C1412 1.400 . S
C1413 C1414 1.398 . S
C1414 H1402 0.950 . S
C1414 C1413 1.398 . S
C1414 C1415 1.391 . S
C1415 H1403 0.950 . S
C1415 C1411 1.393 . S
C1415 C1414 1.391 . S
H1416 C1424 0.950 . S
H1417 C1429 0.950 . S
H1418 C1426 0.950 . S
H1419 C1428 0.950 . S
H1420 C1430 0.950 . S
H1421 C1432 0.950 . S
H1422 C1434 0.950 . S
H1423 C1435 0.950 . S
C1424 H1416 0.950 . S
C1424 C1425 1.386 . S
C1424 C1426 1.391 . S
C1425 C1424 1.386 . S
C1425 C1429 1.393 . S
C1426 H1418 0.950 . S
C1426 C1424 1.391 . S
C1426 C1427 1.400 . S
C1427 C1426 1.400 . S
C1427 C1428 1.398 . S
C1427 C1433 1.491 . S
C1428 H1419 0.950 . S
C1428 C1427 1.398 . S
C1428 C1429 1.391 . S
C1429 H1417 0.950 . S
C1429 C1425 1.393 . S
C1429 C1428 1.391 . S
C1430 H1420 0.950 . S
C1430 C1431 1.386 . S
C1430 C1432 1.391 . S
C1431 C1430 1.386 . S
C1431 C1435 1.393 . S
C1432 H1421 0.950 . S
C1432 C1430 1.391 . S
C1432 C1433 1.400 . S
C1433 C1427 1.491 . S
C1433 C1432 1.400 . S
C1433 C1434 1.398 . S
C1434 H1422 0.950 . S
C1434 C1433 1.398 . S
C1434 C1435 1.391 . S
C1435 H1423 0.950 . S
C1435 C1431 1.393 . S
C1435 C1434 1.391 . S
H1436 C1444 0.950 . S
H1437 C1449 0.950 . S
H1438 C1446 0.950 . S
H1439 C1448 0.950 . S
H1440 C1450 0.950 . S
H1441 C1452 0.950 . S
H1442 C1454 0.950 . S
H1443 C1455 0.950 . S
C1444 H1436 0.950 . S
C1444 C1445 1.386 . S
C1444 C1446 1.391 . S
C1445 C1444 1.386 . S
C1445 C1449 1.393 . S
C1446 H1438 0.950 . S
C1446 C1444 1.391 . S
C1446 C1447 1.400 . S
C1447 C1446 1.400 . S
C1447 C1448 1.398 . S
C1447 C1453 1.491 . S
C1448 H1439 0.950 . S
C1448 C1447 1.398 . S
C1448 C1449 1.391 . S
C1449 H1437 0.950 . S
C1449 C1445 1.393 . S
C1449 C1448 1.391 . S
C1450 H1440 0.950 . S
C1450 C1451 1.386 . S
C1450 C1452 1.391 . S
C1451 C1450 1.386 . S
C1451 C1455 1.393 . S
C1452 H1441 0.950 . S
C1452 C1450 1.391 . S
C1452 C1453 1.400 . S
C1453 C1447 1.491 . S
C1453 C1452 1.400 . S
C1453 C1454 1.398 . S
C1454 H1442 0.950 . S
C1454 C1453 1.398 . S
C1454 C1455 1.391 . S
C1455 H1443 0.950 . S
C1455 C1451 1.393 . S
C1455 C1454 1.391 . S
H1456 C1464 0.950 . S
H1457 C1469 0.950 . S
H1458 C1466 0.950 . S
H1459 C1468 0.950 . S
H1460 C1470 0.950 . S
H1461 C1472 0.950 . S
H1462 C1474 0.950 . S
H1463 C1475 0.950 . S
C1464 H1456 0.950 . S
C1464 C1465 1.386 . S
C1464 C1466 1.391 . S
C1465 C1464 1.386 . S
C1465 C1469 1.393 . S
C1466 H1458 0.950 . S
C1466 C1464 1.391 . S
C1466 C1467 1.400 . S
C1467 C1466 1.400 . S
C1467 C1468 1.398 . S
C1467 C1473 1.491 . S
C1468 H1459 0.950 . S
C1468 C1467 1.398 . S
C1468 C1469 1.391 . S
C1469 H1457 0.950 . S
C1469 C1465 1.393 . S
C1469 C1468 1.391 . S
C1470 H1460 0.950 . S
C1470 C1471 1.386 . S
C1470 C1472 1.391 . S
C1471 C1470 1.386 . S
C1471 C1475 1.393 . S
C1472 H1461 0.950 . S
C1472 C1470 1.391 . S
C1472 C1473 1.400 . S
C1473 C1467 1.491 . S
C1473 C1472 1.400 . S
C1473 C1474 1.398 . S
C1474 H1462 0.950 . S
C1474 C1473 1.398 . S
C1474 C1475 1.391 . S
C1475 H1463 0.950 . S
C1475 C1471 1.393 . S
C1475 C1474 1.391 . S
H1476 C1484 0.950 . S
H1477 C1489 0.950 . S
H1478 C1486 0.950 . S
H1479 C1488 0.950 . S
H1480 C1490 0.950 . S
H1481 C1492 0.950 . S
H1482 C1494 0.950 . S
H1483 C1495 0.950 . S
C1484 H1476 0.950 . S
C1484 C1485 1.386 . S
C1484 C1486 1.391 . S
C1485 C1484 1.386 . S
C1485 C1489 1.393 . S
C1486 H1478 0.950 . S
C1486 C1484 1.391 . S
C1486 C1487 1.400 . S
C1487 C1486 1.400 . S
C1487 C1488 1.398 . S
C1487 C1493 1.491 . S
C1488 H1479 0.950 . S
C1488 C1487 1.398 . S
C1488 C1489 1.391 . S
C1489 H1477 0.950 . S
C1489 C1485 1.393 . S
C1489 C1488 1.391 . S
C1490 H1480 0.950 . S
C1490 C1491 1.386 . S
C1490 C1492 1.391 . S
C1491 C1490 1.386 . S
C1491 C1495 1.393 . S
C1492 H1481 0.950 . S
C1492 C1490 1.391 . S
C1492 C1493 1.400 . S
C1493 C1487 1.491 . S
C1493 C1492 1.400 . S
C1493 C1494 1.398 . S
C1494 H1482 0.950 . S
C1494 C1493 1.398 . S
C1494 C1495 1.391 . S
C1495 H1483 0.950 . S
C1495 C1491 1.393 . S
C1495 C1494 1.391 . S
H1496 C1504 0.950 . S
H1497 C1509 0.950 . S
H1498 C1506 0.950 . S
H1499 C1508 0.950 . S
H1500 C1510 0.950 . S
H1501 C1512 0.950 . S
H1502 C1514 0.950 . S
H1503 C1515 0.950 . S
C1504 H1496 0.950 . S
C1504 C1505 1.386 . S
C1504 C1506 1.391 . S
C1505 C1504 1.386 . S
C1505 C1509 1.393 . S
C1506 H1498 0.950 . S
C1506 C1504 1.391 . S
C1506 C1507 1.400 . S
C1507 C1506 1.400 . S
C1507 C1508 1.398 . S
C1507 C1513 1.491 . S
C1508 H1499 0.950 . S
C1508 C1507 1.398 . S
C1508 C1509 1.391 . S
C1509 H1497 0.950 . S
C1509 C1505 1.393 . S
C1509 C1508 1.391 . S
C1510 H1500 0.950 . S
C1510 C1511 1.386 . S
C1510 C1512 1.391 . S
C1511 C1510 1.386 . S
C1511 C1515 1.393 . S
C1512 H1501 0.950 . S
C1512 C1510 1.391 . S
C1512 C1513 1.400 . S
C1513 C1507 1.491 . S
C1513 C1512 1.400 . S
C1513 C1514 1.398 . S
C1514 H1502 0.950 . S
C1514 C1513 1.398 . S
C1514 C1515 1.391 . S
C1515 H1503 0.950 . S
C1515 C1511 1.393 . S
C1515 C1514 1.391 . S
H1516 C1524 0.950 . S
H1517 C1529 0.950 . S
H1518 C1526 0.950 . S
H1519 C1528 0.950 . S
H1520 C1530 0.950 . S
H1521 C1532 0.950 . S
H1522 C1534 0.950 . S
H1523 C1535 0.950 . S
C1524 H1516 0.950 . S
C1524 C1525 1.386 . S
C1524 C1526 1.391 . S
C1525 C1524 1.386 . S
C1525 C1529 1.393 . S
C1526 H1518 0.950 . S
C1526 C1524 1.391 . S
C1526 C1527 1.400 . S
C1527 C1526 1.400 . S
C1527 C1528 1.398 . S
C1527 C1533 1.491 . S
C1528 H1519 0.950 . S
C1528 C1527 1.398 . S
C1528 C1529 1.391 . S
C1529 H1517 0.950 . S
C1529 C1525 1.393 . S
C1529 C1528 1.391 . S
C1530 H1520 0.950 . S
C1530 C1531 1.386 . S
C1530 C1532 1.391 . S
C1531 C1530 1.386 . S
C1531 C1535 1.393 . S
C1532 H1521 0.950 . S
C1532 C1530 1.391 . S
C1532 C1533 1.400 . S
C1533 C1527 1.491 . S
C1533 C1532 1.400 . S
C1533 C1534 1.398 . S
C1534 H1522 0.950 . S
C1534 C1533 1.398 . S
C1534 C1535 1.391 . S
C1535 H1523 0.950 . S
C1535 C1531 1.393 . S
C1535 C1534 1.391 . S
H1536 C1544 0.950 . S
H1537 C1549 0.950 . S
H1538 C1546 0.950 . S
H1539 C1548 0.950 . S
H1540 C1550 0.950 . S
H1541 C1552 0.950 . S
H1542 C1554 0.950 . S
H1543 C1555 0.950 . S
C1544 H1536 0.950 . S
C1544 C1545 1.386 . S
C1544 C1546 1.391 . S
C1545 C1544 1.386 . S
C1545 C1549 1.393 . S
C1546 H1538 0.950 . S
C1546 C1544 1.391 . S
C1546 C1547 1.400 . S
C1547 C1546 1.400 . S
C1547 C1548 1.398 . S
C1547 C1553 1.491 . S
C1548 H1539 0.950 . S
C1548 C1547 1.398 . S
C1548 C1549 1.391 . S
C1549 H1537 0.950 . S
C1549 C1545 1.393 . S
C1549 C1548 1.391 . S
C1550 H1540 0.950 . S
C1550 C1551 1.386 . S
C1550 C1552 1.391 . S
C1551 C1550 1.386 . S
C1551 C1555 1.393 . S
C1552 H1541 0.950 . S
C1552 C1550 1.391 . S
C1552 C1553 1.400 . S
C1553 C1547 1.491 . S
C1553 C1552 1.400 . S
C1553 C1554 1.398 . S
C1554 H1542 0.950 . S
C1554 C1553 1.398 . S
C1554 C1555 1.391 . S
C1555 H1543 0.950 . S
C1555 C1551 1.393 . S
C1555 C1554 1.391 . S
H1556 C1564 0.950 . S
H1557 C1569 0.950 . S
H1558 C1566 0.950 . S
H1559 C1568 0.950 . S
H1560 C1570 0.950 . S
H1561 C1572 0.950 . S
H1562 C1574 0.950 . S
H1563 C1575 0.950 . S
C1564 H1556 0.950 . S
C1564 C1565 1.386 . S
C1564 C1566 1.391 . S
C1565 C1564 1.386 . S
C1565 C1569 1.393 . S
C1566 H1558 0.950 . S
C1566 C1564 1.391 . S
C1566 C1567 1.400 . S
C1567 C1566 1.400 . S
C1567 C1568 1.398 . S
C1567 C1573 1.491 . S
C1568 H1559 0.950 . S
C1568 C1567 1.398 . S
C1568 C1569 1.391 . S
C1569 H1557 0.950 . S
C1569 C1565 1.393 . S
C1569 C1568 1.391 . S
C1570 H1560 0.950 . S
C1570 C1571 1.386 . S
C1570 C1572 1.391 . S
C1571 C1570 1.386 . S
C1571 C1575 1.393 . S
C1572 H1561 0.950 . S
C1572 C1570 1.391 . S
C1572 C1573 1.400 . S
C1573 C1567 1.491 . S
C1573 C1572 1.400 . S
C1573 C1574 1.398 . S
C1574 H1562 0.950 . S
C1574 C1573 1.398 . S
C1574 C1575 1.391 . S
C1575 H1563 0.950 . S
C1575 C1571 1.393 . S
C1575 C1574 1.391 . S
H1576 C1584 0.950 . S
H1577 C1589 0.950 . S
H1578 C1586 0.950 . S
H1579 C1588 0.950 . S
H1580 C1590 0.950 . S
H1581 C1592 0.950 . S
H1582 C1594 0.950 . S
H1583 C1595 0.950 . S
C1584 H1576 0.950 . S
C1584 C1585 1.386 . S
C1584 C1586 1.391 . S
C1585 C1584 1.386 . S
C1585 C1589 1.393 . S
C1586 H1578 0.950 . S
C1586 C1584 1.391 . S
C1586 C1587 1.400 . S
C1587 C1586 1.400 . S
C1587 C1588 1.398 . S
C1587 C1593 1.491 . S
C1588 H1579 0.950 . S
C1588 C1587 1.398 . S
C1588 C1589 1.391 . S
C1589 H1577 0.950 . S
C1589 C1585 1.393 . S
C1589 C1588 1.391 . S
C1590 H1580 0.950 . S
C1590 C1591 1.386 . S
C1590 C1592 1.391 . S
C1591 C1590 1.386 . S
C1591 C1595 1.393 . S
C1592 H1581 0.950 . S
C1592 C1590 1.391 . S
C1592 C1593 1.400 . S
C1593 C1587 1.491 . S
C1593 C1592 1.400 . S
C1593 C1594 1.398 . S
C1594 H1582 0.950 . S
C1594 C1593 1.398 . S
C1594 C1595 1.391 . S
C1595 H1583 0.950 . S
C1595 C1591 1.393 . S
C1595 C1594 1.391 . S
H1596 C1604 0.950 . S
H1597 C1609 0.950 . S
H1598 C1606 0.950 . S
H1599 C1608 0.950 . S
H1600 C1610 0.950 . S
H1601 C1612 0.950 . S
H1602 C1614 0.950 . S
H1603 C1615 0.950 . S
C1604 H1596 0.950 . S
C1604 C1605 1.386 . S
C1604 C1606 1.391 . S
C1605 C1604 1.386 . S
C1605 C1609 1.393 . S
C1606 H1598 0.950 . S
C1606 C1604 1.391 . S
C1606 C1607 1.400 . S
C1607 C1606 1.400 . S
C1607 C1608 1.398 . S
C1607 C1613 1.491 . S
C1608 H1599 0.950 . S
C1608 C1607 1.398 . S
C1608 C1609 1.391 . S
C1609 H1597 0.950 . S
C1609 C1605 1.393 . S
C1609 C1608 1.391 . S
C1610 H1600 0.950 . S
C1610 C1611 1.386 . S
C1610 C1612 1.391 . S
C1611 C1610 1.386 . S
C1611 C1615 1.393 . S
C1612 H1601 0.950 . S
C1612 C1610 1.391 . S
C1612 C1613 1.400 . S
C1613 C1607 1.491 . S
C1613 C1612 1.400 . S
C1613 C1614 1.398 . S
C1614 H1602 0.950 . S
C1614 C1613 1.398 . S
C1614 C1615 1.391 . S
C1615 H1603 0.950 . S
C1615 C1611 1.393 . S
C1615 C1614 1.391 . S
H1616 C1624 0.950 . S
H1617 C1629 0.950 . S
H1618 C1626 0.950 . S
H1619 C1628 0.950 . S
H1620 C1630 0.950 . S
H1621 C1632 0.950 . S
H1622 C1634 0.950 . S
H1623 C1635 0.950 . S
C1624 H1616 0.950 . S
C1624 C1625 1.386 . S
C1624 C1626 1.391 . S
C1625 C1624 1.386 . S
C1625 C1629 1.393 . S
C1626 H1618 0.950 . S
C1626 C1624 1.391 . S
C1626 C1627 1.400 . S
C1627 C1626 1.400 . S
C1627 C1628 1.398 . S
C1627 C1633 1.491 . S
C1628 H1619 0.950 . S
C1628 C1627 1.398 . S
C1628 C1629 1.391 . S
C1629 H1617 0.950 . S
C1629 C1625 1.393 . S
C1629 C1628 1.391 . S
C1630 H1620 0.950 . S
C1630 C1631 1.386 . S
C1630 C1632 1.391 . S
C1631 C1630 1.386 . S
C1631 C1635 1.393 . S
C1632 H1621 0.950 . S
C1632 C1630 1.391 . S
C1632 C1633 1.400 . S
C1633 C1627 1.491 . S
C1633 C1632 1.400 . S
C1633 C1634 1.398 . S
C1634 H1622 0.950 . S
C1634 C1633 1.398 . S
C1634 C1635 1.391 . S
C1635 H1623 0.950 . S
C1635 C1631 1.393 . S
C1635 C1634 1.391 . S
H1636 C1644 0.950 . S
H1637 C1649 0.950 . S
H1638 C1646 0.950 . S
H1639 C1648 0.950 . S
H1640 C1650 0.950 . S
H1641 C1652 0.950 . S
H1642 C1654 0.950 . S
H1643 C1655 0.950 . S
C1644 H1636 0.950 . S
C1644 C1645 1.386 . S
C1644 C1646 1.391 . S
C1645 C1644 1.386 . S
C1645 C1649 1.393 . S
C1646 H1638 0.950 . S
C1646 C1644 1.391 . S
C1646 C1647 1.400 . S
C1647 C1646 1.400 . S
C1647 C1648 1.398 . S
C1647 C1653 1.491 . S
C1648 H1639 0.950 . S
C1648 C1647 1.398 . S
C1648 C1649 1.391 . S
C1649 H1637 0.950 . S
C1649 C1645 1.393 . S
C1649 C1648 1.391 . S
C1650 H1640 0.950 . S
C1650 C1651 1.386 . S
C1650 C1652 1.391 . S
C1651 C1650 1.386 . S
C1651 C1655 1.393 . S
C1652 H1641 0.950 . S
C1652 C1650 1.391 . S
C1652 C1653 1.400 . S
C1653 C1647 1.491 . S
C1653 C1652 1.400 . S
C1653 C1654 1.398 . S
C1654 H1642 0.950 . S
C1654 C1653 1.398 . S
C1654 C1655 1.391 . S
C1655 H1643 0.950 . S
C1655 C1651 1.393 . S
C1655 C1654 1.391 . S
H1656 C1664 0.950 . S
H1657 C1669 0.950 . S
H1658 C1666 0.950 . S
H1659 C1668 0.950 . S
H1660 C1670 0.950 . S
H1661 C1672 0.950 . S
H1662 C1674 0.950 . S
H1663 C1675 0.950 . S
C1664 H1656 0.950 . S
C1664 C1665 1.386 . S
C1664 C1666 1.391 . S
C1665 C1664 1.386 . S
C1665 C1669 1.393 . S
C1666 H1658 0.950 . S
C1666 C1664 1.391 . S
C1666 C1667 1.400 . S
C1667 C1666 1.400 . S
C1667 C1668 1.398 . S
C1667 C1673 1.491 . S
C1668 H1659 0.950 . S
C1668 C1667 1.398 . S
C1668 C1669 1.391 . S
C1669 H1657 0.950 . S
C1669 C1665 1.393 . S
C1669 C1668 1.391 . S
C1670 H1660 0.950 . S
C1670 C1671 1.386 . S
C1670 C1672 1.391 . S
C1671 C1670 1.386 . S
C1671 C1675 1.393 . S
C1672 H1661 0.950 . S
C1672 C1670 1.391 . S
C1672 C1673 1.400 . S
C1673 C1667 1.491 . S
C1673 C1672 1.400 . S
C1673 C1674 1.398 . S
C1674 H1662 0.950 . S
C1674 C1673 1.398 . S
C1674 C1675 1.391 . S
C1675 H1663 0.950 . S
C1675 C1671 1.393 . S
C1675 C1674 1.391 . S
H1676 C1684 0.950 . S
H1677 C1689 0.950 . S
H1678 C1686 0.950 . S
H1679 C1688 0.950 . S
H1680 C1690 0.950 . S
H1681 C1692 0.950 . S
H1682 C1694 0.950 . S
H1683 C1695 0.950 . S
C1684 H1676 0.950 . S
C1684 C1685 1.386 . S
C1684 C1686 1.391 . S
C1685 C1684 1.386 . S
C1685 C1689 1.393 . S
C1686 H1678 0.950 . S
C1686 C1684 1.391 . S
C1686 C1687 1.400 . S
C1687 C1686 1.400 . S
C1687 C1688 1.398 . S
C1687 C1693 1.491 . S
C1688 H1679 0.950 . S
C1688 C1687 1.398 . S
C1688 C1689 1.391 . S
C1689 H1677 0.950 . S
C1689 C1685 1.393 . S
C1689 C1688 1.391 . S
C1690 H1680 0.950 . S
C1690 C1691 1.386 . S
C1690 C1692 1.391 . S
C1691 C1690 1.386 . S
C1691 C1695 1.393 . S
C1692 H1681 0.950 . S
C1692 C1690 1.391 . S
C1692 C1693 1.400 . S
C1693 C1687 1.491 . S
C1693 C1692 1.400 . S
C1693 C1694 1.398 . S
C1694 H1682 0.950 . S
C1694 C1693 1.398 . S
C1694 C1695 1.391 . S
C1695 H1683 0.950 . S
C1695 C1691 1.393 . S
C1695 C1694 1.391 . S
H1696 C1704 0.950 . S
H1697 C1709 0.950 . S
H1698 C1706 0.950 . S
H1699 C1708 0.950 . S
H1700 C1710 0.950 . S
H1701 C1712 0.950 . S
H1702 C1714 0.950 . S
H1703 C1715 0.950 . S
C1704 H1696 0.950 . S
C1704 C1705 1.386 . S
C1704 C1706 1.391 . S
C1705 C1704 1.386 . S
C1705 C1709 1.393 . S
C1706 H1698 0.950 . S
C1706 C1704 1.391 . S
C1706 C1707 1.400 . S
C1707 C1706 1.400 . S
C1707 C1708 1.398 . S
C1707 C1713 1.491 . S
C1708 H1699 0.950 . S
C1708 C1707 1.398 . S
C1708 C1709 1.391 . S
C1709 H1697 0.950 . S
C1709 C1705 1.393 . S
C1709 C1708 1.391 . S
C1710 H1700 0.950 . S
C1710 C1711 1.386 . S
C1710 C1712 1.391 . S
C1711 C1710 1.386 . S
C1711 C1715 1.393 . S
C1712 H1701 0.950 . S
C1712 C1710 1.391 . S
C1712 C1713 1.400 . S
C1713 C1707 1.491 . S
C1713 C1712 1.400 . S
C1713 C1714 1.398 . S
C1714 H1702 0.950 . S
C1714 C1713 1.398 . S
C1714 C1715 1.391 . S
C1715 H1703 0.950 . S
C1715 C1711 1.393 . S
C1715 C1714 1.391 . S
H1716 C1724 0.950 . S
H1717 C1729 0.950 . S
H1718 C1726 0.950 . S
H1719 C1728 0.950 . S
H1720 C1730 0.950 . S
H1721 C1732 0.950 . S
H1722 C1734 0.950 . S
H1723 C1735 0.950 . S
C1724 H1716 0.950 . S
C1724 C1725 1.386 . S
C1724 C1726 1.391 . S
C1725 C1724 1.386 . S
C1725 C1729 1.393 . S
C1726 H1718 0.950 . S
C1726 C1724 1.391 . S
C1726 C1727 1.400 . S
C1727 C1726 1.400 . S
C1727 C1728 1.398 . S
C1727 C1733 1.491 . S
C1728 H1719 0.950 . S
C1728 C1727 1.398 . S
C1728 C1729 1.391 . S
C1729 H1717 0.950 . S
C1729 C1725 1.393 . S
C1729 C1728 1.391 . S
C1730 H1720 0.950 . S
C1730 C1731 1.386 . S
C1730 C1732 1.391 . S
C1731 C1730 1.386 . S
C1731 C1735 1.393 . S
C1732 H1721 0.950 . S
C1732 C1730 1.391 . S
C1732 C1733 1.400 . S
C1733 C1727 1.491 . S
C1733 C1732 1.400 . S
C1733 C1734 1.398 . S
C1734 H1722 0.950 . S
C1734 C1733 1.398 . S
C1734 C1735 1.391 . S
C1735 H1723 0.950 . S
C1735 C1731 1.393 . S
C1735 C1734 1.391 . S
H1736 C1744 0.950 . S
H1737 C1749 0.950 . S
H1738 C1746 0.950 . S
H1739 C1748 0.950 . S
H1740 C1750 0.950 . S
H1741 C1752 0.950 . S
H1742 C1754 0.950 . S
H1743 C1755 0.950 . S
C1744 H1736 0.950 . S
C1744 C1745 1.386 . S
C1744 C1746 1.391 . S
C1745 C1744 1.386 . S
C1745 C1749 1.393 . S
C1746 H1738 0.950 . S
C1746 C1744 1.391 . S
C1746 C1747 1.400 . S
C1747 C1746 1.400 . S
C1747 C1748 1.398 . S
C1747 C1753 1.491 . S
C1748 H1739 0.950 . S
C1748 C1747 1.398 . S
C1748 C1749 1.391 . S
C1749 H1737 0.950 . S
C1749 C1745 1.393 . S
C1749 C1748 1.391 . S
C1750 H1740 0.950 . S
C1750 C1751 1.386 . S
C1750 C1752 1.391 . S
C1751 C1750 1.386 . S
C1751 C1755 1.393 . S
C1752 H1741 0.950 . S
C1752 C1750 1.391 . S
C1752 C1753 1.400 . S
C1753 C1747 1.491 . S
C1753 C1752 1.400 . S
C1753 C1754 1.398 . S
C1754 H1742 0.950 . S
C1754 C1753 1.398 . S
C1754 C1755 1.391 . S
C1755 H1743 0.950 . S
C1755 C1751 1.393 . S
C1755 C1754 1.391 . S
H1756 C1764 0.950 . S
H1757 C1769 0.950 . S
H1758 C1766 0.950 . S
H1759 C1768 0.950 . S
H1760 C1770 0.950 . S
H1761 C1772 0.950 . S
H1762 C1774 0.950 . S
H1763 C1775 0.950 . S
C1764 H1756 0.950 . S
C1764 C1765 1.386 . S
C1764 C1766 1.391 . S
C1765 C1764 1.386 . S
C1765 C1769 1.393 . S
C1766 H1758 0.950 . S
C1766 C1764 1.391 . S
C1766 C1767 1.400 . S
C1767 C1766 1.400 . S
C1767 C1768 1.398 . S
C1767 C1773 1.491 . S
C1768 H1759 0.950 . S
C1768 C1767 1.398 . S
C1768 C1769 1.391 . S
C1769 H1757 0.950 . S
C1769 C1765 1.393 . S
C1769 C1768 1.391 . S
C1770 H1760 0.950 . S
C1770 C1771 1.386 . S
C1770 C1772 1.391 . S
C1771 C1770 1.386 . S
C1771 C1775 1.393 . S
C1772 H1761 0.950 . S
C1772 C1770 1.391 . S
C1772 C1773 1.400 . S
C1773 C1767 1.491 . S
C1773 C1772 1.400 . S
C1773 C1774 1.398 . S
C1774 H1762 0.950 . S
C1774 C1773 1.398 . S
C1774 C1775 1.391 . S
C1775 H1763 0.950 . S
C1775 C1771 1.393 . S
C1775 C1774 1.391 . S
H1776 C1784 0.950 . S
H1777 C1789 0.950 . S
H1778 C1786 0.950 . S
H1779 C1788 0.950 . S
H1780 C1790 0.950 . S
H1781 C1792 0.950 . S
H1782 C1794 0.950 . S
H1783 C1795 0.950 . S
C1784 H1776 0.950 . S
C1784 C1785 1.386 1_655 S
C1784 C1786 1.391 . S
C1785 C1784 1.386 1_455 S
C1785 C1789 1.393 . S
C1786 H1778 0.950 . S
C1786 C1784 1.391 . S
C1786 C1787 1.400 1_655 S
C1787 C1786 1.400 1_455 S
C1787 C1788 1.398 . S
C1787 C1793 1.491 . S
C1788 H1779 0.950 . S
C1788 C1787 1.398 . S
C1788 C1789 1.391 . S
C1789 H1777 0.950 . S
C1789 C1785 1.393 . S
C1789 C1788 1.391 . S
C1790 H1780 0.950 . S
C1790 C1791 1.386 . S
C1790 C1792 1.391 . S
C1791 C1790 1.386 . S
C1791 C1795 1.393 1_455 S
C1792 H1781 0.950 . S
C1792 C1790 1.391 . S
C1792 C1793 1.400 . S
C1793 C1787 1.491 . S
C1793 C1792 1.400 . S
C1793 C1794 1.398 1_455 S
C1794 H1782 0.950 . S
C1794 C1793 1.398 1_655 S
C1794 C1795 1.391 . S
C1795 H1783 0.950 . S
C1795 C1791 1.393 1_655 S
C1795 C1794 1.391 . S
H1796 C1804 0.950 . S
H1797 C1809 0.950 . S
H1798 C1806 0.950 . S
H1799 C1808 0.950 . S
H1800 C1810 0.951 . S
H1801 C1812 0.950 . S
H1802 C1814 0.950 . S
H1803 C1815 0.950 . S
C1804 H1796 0.950 . S
C1804 C1805 1.386 . S
C1804 C1806 1.391 . S
C1805 C1804 1.386 . S
C1805 C1809 1.393 . S
C1806 H1798 0.950 . S
C1806 C1804 1.391 . S
C1806 C1807 1.400 . S
C1807 C1806 1.400 . S
C1807 C1808 1.398 . S
C1807 C1813 1.491 . S
C1808 H1799 0.950 . S
C1808 C1807 1.398 . S
C1808 C1809 1.391 . S
C1809 H1797 0.950 . S
C1809 C1805 1.393 . S
C1809 C1808 1.391 . S
C1810 H1800 0.951 . S
C1810 C1811 1.385 1_655 S
C1810 C1812 1.390 1_655 S
C1811 C1810 1.385 1_455 S
C1811 C1815 1.393 . S
C1812 H1801 0.950 . S
C1812 C1810 1.390 1_455 S
C1812 C1813 1.400 . S
C1813 C1807 1.491 . S
C1813 C1812 1.400 . S
C1813 C1814 1.398 . S
C1814 H1802 0.950 . S
C1814 C1813 1.398 . S
C1814 C1815 1.391 . S
C1815 H1803 0.950 . S
C1815 C1811 1.393 . S
C1815 C1814 1.391 . S
H1816 C1824 0.950 . S
H1817 C1829 0.950 . S
H1818 C1826 0.950 . S
H1819 C1828 0.950 . S
H1820 C1830 0.950 . S
H1821 C1832 0.950 . S
H1822 C1834 0.950 . S
H1823 C1835 0.950 . S
C1824 H1816 0.950 . S
C1824 C1825 1.386 1_565 S
C1824 C1826 1.391 . S
C1825 C1824 1.386 1_545 S
C1825 C1829 1.393 . S
C1826 H1818 0.950 . S
C1826 C1824 1.391 . S
C1826 C1827 1.400 1_565 S
C1827 C1826 1.400 1_545 S
C1827 C1828 1.398 . S
C1827 C1833 1.491 . S
C1828 H1819 0.950 . S
C1828 C1827 1.398 . S
C1828 C1829 1.391 . S
C1829 H1817 0.950 . S
C1829 C1825 1.393 . S
C1829 C1828 1.391 . S
C1830 H1820 0.950 . S
C1830 C1831 1.386 . S
C1830 C1832 1.391 . S
C1831 C1830 1.386 . S
C1831 C1835 1.393 1_545 S
C1832 H1821 0.950 . S
C1832 C1830 1.391 . S
C1832 C1833 1.400 . S
C1833 C1827 1.491 . S
C1833 C1832 1.400 . S
C1833 C1834 1.398 1_545 S
C1834 H1822 0.950 . S
C1834 C1833 1.398 1_565 S
C1834 C1835 1.391 . S
C1835 H1823 0.950 . S
C1835 C1831 1.393 1_565 S
C1835 C1834 1.391 . S
H1836 C1844 0.950 . S
H1837 C1849 0.950 . S
H1838 C1846 0.950 . S
H1839 C1848 0.950 . S
H1840 C1850 0.950 . S
H1841 C1852 0.950 . S
H1842 C1854 0.948 1_565 S
H1843 C1855 0.960 . S
C1844 H1836 0.950 . S
C1844 C1845 1.386 . S
C1844 C1846 1.391 . S
C1845 C1844 1.386 . S
C1845 C1849 1.393 . S
C1846 H1838 0.950 . S
C1846 C1844 1.391 . S
C1846 C1847 1.400 . S
C1847 C1846 1.400 . S
C1847 C1848 1.398 . S
C1847 C1853 1.491 . S
C1848 H1839 0.950 . S
C1848 C1847 1.398 . S
C1848 C1849 1.391 . S
C1849 H1837 0.950 . S
C1849 C1845 1.393 . S
C1849 C1848 1.391 . S
C1850 H1840 0.950 . S
C1850 C1851 1.386 . S
C1850 C1852 1.391 . S
C1851 C1850 1.386 . S
C1851 C1855 1.389 1_545 S
C1852 H1841 0.950 . S
C1852 C1850 1.391 . S
C1852 C1853 1.400 . S
C1853 C1847 1.491 . S
C1853 C1852 1.400 . S
C1853 C1854 1.398 . S
C1854 H1842 0.948 1_545 S
C1854 C1853 1.398 . S
C1854 C1855 1.386 1_545 S
C1855 H1843 0.960 . S
C1855 C1851 1.389 1_565 S
C1855 C1854 1.386 1_565 S
H1856 C1864 0.950 . S
H1857 C1869 0.950 . S
H1858 C1866 0.950 . S
H1859 C1868 0.950 . S
H1860 C1870 0.950 . S
H1861 C1872 0.950 . S
H1862 C1874 0.950 . S
H1863 C1875 0.950 . S
C1864 H1856 0.950 . S
C1864 C1865 1.386 . S
C1864 C1866 1.391 . S
C1865 C1864 1.386 . S
C1865 C1869 1.393 1_554 S
C1866 H1858 0.950 . S
C1866 C1864 1.391 . S
C1866 C1867 1.400 . S
C1867 C1866 1.400 . S
C1867 C1868 1.398 1_554 S
C1867 C1873 1.491 . S
C1868 H1859 0.950 . S
C1868 C1867 1.398 1_556 S
C1868 C1869 1.391 . S
C1869 H1857 0.950 . S
C1869 C1865 1.393 1_556 S
C1869 C1868 1.391 . S
C1870 H1860 0.950 . S
C1870 C1871 1.386 1_556 S
C1870 C1872 1.391 . S
C1871 C1870 1.386 1_554 S
C1871 C1875 1.393 . S
C1872 H1861 0.950 . S
C1872 C1870 1.391 . S
C1872 C1873 1.400 1_556 S
C1873 C1867 1.491 . S
C1873 C1872 1.400 1_554 S
C1873 C1874 1.398 . S
C1874 H1862 0.950 . S
C1874 C1873 1.398 . S
C1874 C1875 1.391 . S
C1875 H1863 0.950 . S
C1875 C1871 1.393 . S
C1875 C1874 1.391 . S
H1876 C1884 0.938 1_556 S
H1877 C1889 0.950 . S
H1878 C1886 0.950 . S
H1879 C1888 0.950 . S
H1880 C1890 0.950 . S
H1881 C1892 0.950 . S
H1882 C1894 0.950 . S
H1883 C1895 0.950 . S
C1884 H1876 0.938 1_554 S
C1884 C1885 1.400 . S
C1884 C1886 1.389 1_554 S
C1885 C1884 1.400 . S
C1885 C1889 1.393 . S
C1886 H1878 0.950 . S
C1886 C1884 1.389 1_556 S
C1886 C1887 1.400 1_556 S
C1887 C1886 1.400 1_554 S
C1887 C1888 1.398 . S
C1887 C1893 1.491 . S
C1888 H1879 0.950 . S
C1888 C1887 1.398 . S
C1888 C1889 1.391 . S
C1889 H1877 0.950 . S
C1889 C1885 1.393 . S
C1889 C1888 1.391 . S
C1890 H1880 0.950 . S
C1890 C1891 1.386 . S
C1890 C1892 1.391 . S
C1891 C1890 1.386 . S
C1891 C1895 1.393 1_554 S
C1892 H1881 0.950 . S
C1892 C1890 1.391 . S
C1892 C1893 1.400 . S
C1893 C1887 1.491 . S
C1893 C1892 1.400 . S
C1893 C1894 1.398 1_554 S
C1894 H1882 0.950 . S
C1894 C1893 1.398 1_556 S
C1894 C1895 1.391 . S
C1895 H1883 0.950 . S
C1895 C1891 1.393 1_556 S
C1895 C1894 1.391 . S
H1896 C1904 0.950 . S
H1897 C1909 0.950 . S
H1898 C1906 0.950 . S
H1899 C1908 0.950 . S
H1900 C1910 0.950 . S
H1901 C1912 0.950 . S
H1902 C1914 0.950 . S
H1903 C1915 0.950 . S
C1904 H1896 0.950 . S
C1904 C1905 1.386 . S
C1904 C1906 1.391 . S
C1905 C1904 1.386 . S
C1905 C1909 1.393 . S
C1906 H1898 0.950 . S
C1906 C1904 1.391 . S
C1906 C1907 1.400 . S
C1907 C1906 1.400 . S
C1907 C1908 1.398 . S
C1907 C1913 1.491 1_545 S
C1908 H1899 0.950 . S
C1908 C1907 1.398 . S
C1908 C1909 1.391 . S
C1909 H1897 0.950 . S
C1909 C1905 1.393 . S
C1909 C1908 1.391 . S
C1910 H1900 0.950 . S
C1910 C1911 1.386 . S
C1910 C1912 1.391 . S
C1911 C1910 1.386 . S
C1911 C1915 1.393 . S
C1912 H1901 0.950 . S
C1912 C1910 1.391 . S
C1912 C1913 1.400 . S
C1913 C1907 1.491 1_565 S
C1913 C1912 1.400 . S
C1913 C1914 1.398 . S
C1914 H1902 0.950 . S
C1914 C1913 1.398 . S
C1914 C1915 1.391 . S
C1915 H1903 0.950 . S
C1915 C1911 1.393 . S
C1915 C1914 1.391 . S
H1916 C1924 0.950 . S
H1917 C1929 0.950 . S
H1918 C1926 0.950 . S
H1919 C1928 0.950 . S
H1920 C1930 0.950 . S
H1921 C1932 0.950 . S
H1922 C1934 0.950 . S
H1923 C1935 0.950 . S
C1924 H1916 0.950 . S
C1924 C1925 1.386 . S
C1924 C1926 1.391 . S
C1925 C1924 1.386 . S
C1925 C1929 1.393 . S
C1926 H1918 0.950 . S
C1926 C1924 1.391 . S
C1926 C1927 1.400 . S
C1927 C1926 1.400 . S
C1927 C1928 1.398 . S
C1927 C1933 1.491 1_565 S
C1928 H1919 0.950 . S
C1928 C1927 1.398 . S
C1928 C1929 1.391 . S
C1929 H1917 0.950 . S
C1929 C1925 1.393 . S
C1929 C1928 1.391 . S
C1930 H1920 0.950 . S
C1930 C1931 1.386 . S
C1930 C1932 1.391 . S
C1931 C1930 1.386 . S
C1931 C1935 1.393 . S
C1932 H1921 0.950 . S
C1932 C1930 1.391 . S
C1932 C1933 1.400 . S
C1933 C1927 1.491 1_545 S
C1933 C1932 1.400 . S
C1933 C1934 1.398 . S
C1934 H1922 0.950 . S
C1934 C1933 1.398 . S
C1934 C1935 1.391 . S
C1935 H1923 0.950 . S
C1935 C1931 1.393 . S
C1935 C1934 1.391 . S
H1936 C1944 0.950 . S
H1937 C1949 0.950 . S
H1938 C1946 0.950 . S
H1939 C1948 0.950 . S
H1940 C1950 0.950 . S
H1941 C1952 0.950 . S
H1942 C1954 0.950 . S
H1943 C1955 0.950 . S
C1944 H1936 0.950 . S
C1944 C1945 1.386 . S
C1944 C1946 1.391 . S
C1945 C1944 1.386 . S
C1945 C1949 1.393 . S
C1946 H1938 0.950 . S
C1946 C1944 1.391 . S
C1946 C1947 1.400 . S
C1947 C1946 1.400 . S
C1947 C1948 1.398 . S
C1947 C1953 1.491 1_554 S
C1948 H1939 0.950 . S
C1948 C1947 1.398 . S
C1948 C1949 1.391 . S
C1949 H1937 0.950 . S
C1949 C1945 1.393 . S
C1949 C1948 1.391 . S
C1950 H1940 0.950 . S
C1950 C1951 1.386 . S
C1950 C1952 1.391 . S
C1951 C1950 1.386 . S
C1951 C1955 1.393 . S
C1952 H1941 0.950 . S
C1952 C1950 1.391 . S
C1952 C1953 1.400 . S
C1953 C1947 1.491 1_556 S
C1953 C1952 1.400 . S
C1953 C1954 1.398 . S
C1954 H1942 0.950 . S
C1954 C1953 1.398 . S
C1954 C1955 1.391 . S
C1955 H1943 0.950 . S
C1955 C1951 1.393 . S
C1955 C1954 1.391 . S
H1956 C1964 0.950 . S
H1957 C1969 0.950 . S
H1958 C1966 0.950 . S
H1959 C1968 0.950 . S
H1960 C1970 0.950 . S
H1961 C1972 0.950 . S
H1962 C1974 0.950 . S
H1963 C1975 0.950 . S
C1964 H1956 0.950 . S
C1964 C1965 1.386 . S
C1964 C1966 1.391 . S
C1965 C1964 1.386 . S
C1965 C1969 1.393 . S
C1966 H1958 0.950 . S
C1966 C1964 1.391 . S
C1966 C1967 1.400 . S
C1967 C1966 1.400 . S
C1967 C1968 1.398 . S
C1967 C1973 1.491 1_556 S
C1968 H1959 0.950 . S
C1968 C1967 1.398 . S
C1968 C1969 1.391 . S
C1969 H1957 0.950 . S
C1969 C1965 1.393 . S
C1969 C1968 1.391 . S
C1970 H1960 0.950 . S
C1970 C1971 1.386 . S
C1970 C1972 1.391 . S
C1971 C1970 1.386 . S
C1971 C1975 1.393 . S
C1972 H1961 0.950 . S
C1972 C1970 1.391 . S
C1972 C1973 1.400 . S
C1973 C1967 1.491 1_554 S
C1973 C1972 1.400 . S
C1973 C1974 1.398 . S
C1974 H1962 0.950 . S
C1974 C1973 1.398 . S
C1974 C1975 1.391 . S
C1975 H1963 0.950 . S
C1975 C1971 1.393 . S
C1975 C1974 1.391 . S
H1976 C1984 0.950 . S
H1977 C1989 0.950 . S
H1978 C1986 0.950 . S
H1979 C1988 0.950 . S
H1980 C1990 0.950 . S
H1981 C1992 0.950 . S
H1982 C1994 0.950 . S
H1983 C1995 0.950 . S
C1984 H1976 0.950 . S
C1984 C1985 1.386 . S
C1984 C1986 1.391 . S
C1985 C1984 1.386 . S
C1985 C1989 1.393 . S
C1986 H1978 0.950 . S
C1986 C1984 1.391 . S
C1986 C1987 1.400 . S
C1987 C1986 1.400 . S
C1987 C1988 1.398 . S
C1987 C1993 1.491 1_655 S
C1988 H1979 0.950 . S
C1988 C1987 1.398 . S
C1988 C1989 1.391 . S
C1989 H1977 0.950 . S
C1989 C1985 1.393 . S
C1989 C1988 1.391 . S
C1990 H1980 0.950 . S
C1990 C1991 1.386 . S
C1990 C1992 1.391 . S
C1991 C1990 1.386 . S
C1991 C1995 1.393 . S
C1992 H1981 0.950 . S
C1992 C1990 1.391 . S
C1992 C1993 1.400 . S
C1993 C1987 1.491 1_455 S
C1993 C1992 1.400 . S
C1993 C1994 1.398 . S
C1994 H1982 0.950 . S
C1994 C1993 1.398 . S
C1994 C1995 1.391 . S
C1995 H1983 0.950 . S
C1995 C1991 1.393 . S
C1995 C1994 1.391 . S
H1996 C2004 0.950 . S
H1997 C2009 0.950 . S
H1998 C2006 0.950 . S
H1999 C2008 0.950 . S
H2000 C2010 0.950 . S
H2001 C2012 0.950 . S
H2002 C2014 0.950 . S
H2003 C2015 0.950 . S
C2004 H1996 0.950 . S
C2004 C2005 1.386 . S
C2004 C2006 1.391 . S
C2005 C2004 1.386 . S
C2005 C2009 1.393 . S
C2006 H1998 0.950 . S
C2006 C2004 1.391 . S
C2006 C2007 1.400 . S
C2007 C2006 1.400 . S
C2007 C2008 1.398 . S
C2007 C2013 1.491 1_455 S
C2008 H1999 0.950 . S
C2008 C2007 1.398 . S
C2008 C2009 1.391 . S
C2009 H1997 0.950 . S
C2009 C2005 1.393 . S
C2009 C2008 1.391 . S
C2010 H2000 0.950 . S
C2010 C2011 1.386 . S
C2010 C2012 1.391 . S
C2011 C2010 1.386 . S
C2011 C2015 1.393 . S
C2012 H2001 0.950 . S
C2012 C2010 1.391 . S
C2012 C2013 1.400 . S
C2013 C2007 1.491 1_655 S
C2013 C2012 1.400 . S
C2013 C2014 1.398 . S
C2014 H2002 0.950 . S
C2014 C2013 1.398 . S
C2014 C2015 1.391 . S
C2015 H2003 0.950 . S
C2015 C2011 1.393 . S
C2015 C2014 1.391 . S
C825 C9 0.626 . S
C831 C787 0.584 . S
C845 C43 0.630 . S
C851 C685 0.579 . S
C865 C77 0.695 . S
C871 C753 0.599 . S
C885 C111 0.690 . S
C891 C719 0.598 . S
C905 C481 0.599 . S
C911 C145 0.643 . S
C925 C179 0.641 . S
C931 C515 0.579 . S
C945 C413 0.594 . S
C951 C213 0.688 . S
C965 C447 0.602 . S
C971 C247 0.648 . S
C985 C651 0.593 . S
C991 C281 0.683 . S
C1005 C315 0.645 . S
C1011 C583 0.580 . S
C1025 C549 0.599 . S
C1031 C349 0.646 . S
C1045 C383 0.672 . S
C1051 C617 0.588 . S
C1065 C88 2.182 . S
C1071 C682 2.111 . S
C1085 C122 2.188 . S
C1091 C784 2.129 . S
C1105 C716 2.129 . S
C1111 C20 2.180 . S
C1125 C750 2.111 . S
C1131 C54 2.180 . S
C1145 C410 2.112 . S
C1151 C258 2.180 . S
C1165 C444 2.111 . S
C1171 C224 2.177 . S
C1185 C478 2.114 . S
C1191 C190 2.175 . S
C1205 C156 2.190 . S
C1211 C512 2.118 . S
C1225 C394 2.186 . S
C1231 C546 2.113 . S
C1245 C614 2.113 . S
C1251 C360 2.183 . S
C1265 C326 2.181 . S
C1271 C648 2.128 . S
C1285 C580 2.111 . S
C1291 C292 2.184 . S
C1305 C417 0.709 . S
C1311 C379 0.610 . S
C1325 C277 0.622 . S
C1331 C451 0.709 . S
C1345 C345 0.618 . S
C1351 C485 0.688 . S
C1365 C311 0.594 . S
C1371 C519 0.637 . S
C1385 C73 0.601 . S
C1391 C553 0.696 . S
C1405 C107 0.603 . S
C1411 C587 0.701 . S
C1425 C5 0.604 . S
C1431 C621 0.701 . S
C1445 C655 0.625 . S
C1451 C39 0.581 . S
C1465 C689 0.659 . S
C1471 C243 0.607 . S
C1485 C723 0.638 . S
C1491 C175 0.574 . S
C1505 C141 0.587 . S
C1511 C757 0.628 . S
C1525 C791 0.708 . S
C1531 C209 0.620 . S
C1545 C274 2.121 . S
C1551 C496 2.177 . S
C1565 C376 2.115 . S
C1571 C530 2.178 . S
C1585 C308 2.111 . S
C1591 C428 2.187 . S
C1605 C462 2.185 . S
C1611 C342 2.135 . S
C1625 C2 2.118 . S
C1631 C666 2.177 . S
C1645 C36 2.126 . S
C1651 C632 2.193 . S
C1665 C70 2.128 . S
C1671 C598 2.190 . S
C1685 C564 2.178 . S
C1691 C104 2.129 . S
C1705 C802 2.190 . S
C1711 C138 2.119 . S
C1725 C768 2.182 . S
C1731 C206 2.134 . S
C1745 C240 2.131 . S
C1751 C734 2.183 . S
C1765 C700 2.177 . S
C1771 C172 2.125 . S
C1785 C33 1.501 . S
C1791 C67 1.490 1_455 S
C1805 C101 1.496 . S
C1811 C135 1.498 1_455 S
C1825 C169 1.501 . S
C1831 C237 1.490 1_545 S
C1845 C271 1.497 . S
C1851 C203 1.496 1_545 S
C1865 C305 1.491 . S
C1871 C373 1.499 1_554 S
C1885 C407 1.500 . S
C1891 C339 1.490 1_554 S
C1905 C475 1.492 . S
C1911 C441 1.501 . S
C1925 C543 1.493 . S
C1931 C509 1.498 . S
C1945 C645 1.496 . S
C1951 C577 1.498 . S
C1965 C611 1.501 . S
C1971 C679 1.491 . S
C1985 C713 1.498 . S
C1991 C781 1.496 . S
C2005 C815 1.500 . S
C2011 C747 1.492 . S
