# Generated by pormake.
# Topology whr, (6)-cn, num edge types: 1
# Building blocks:
#     Node 0, Type 0, BuildingBlock: VOLQOD_clean_sbu_1, # of connection points: 6
#     Node 1, Type 0, BuildingBlock: VOLQOD_clean_sbu_1, # of connection points: 6
#     Node 2, Type 0, BuildingBlock: VOLQOD_clean_sbu_1, # of connection points: 6
#     Node 3, Type 0, BuildingBlock: VOLQOD_clean_sbu_1, # of connection points: 6
#     Node 4, Type 0, BuildingBlock: VOLQOD_clean_sbu_1, # of connection points: 6
#     Node 5, Type 0, BuildingBlock: VOLQOD_clean_sbu_1, # of connection points: 6
#     Node 6, Type 0, BuildingBlock: VOLQOD_clean_sbu_1, # of connection points: 6
#     Node 7, Type 0, BuildingBlock: VOLQOD_clean_sbu_1, # of connection points: 6
#     Node 8, Type 0, BuildingBlock: VOLQOD_clean_sbu_1, # of connection points: 6
#     Node 9, Type 0, BuildingBlock: VOLQOD_clean_sbu_1, # of connection points: 6
#     Node 10, Type 0, BuildingBlock: VOLQOD_clean_sbu_1, # of connection points: 6
#     Node 11, Type 0, BuildingBlock: VOLQOD_clean_sbu_1, # of connection points: 6
#     Node 12, Type 0, BuildingBlock: VOLQOD_clean_sbu_1, # of connection points: 6
#     Node 13, Type 0, BuildingBlock: VOLQOD_clean_sbu_1, # of connection points: 6
#     Node 14, Type 0, BuildingBlock: VOLQOD_clean_sbu_1, # of connection points: 6
#     Node 15, Type 0, BuildingBlock: VOLQOD_clean_sbu_1, # of connection points: 6
#     Edge 16, Type (0, 0), None
#     Edge 17, Type (0, 0), None
#     Edge 18, Type (0, 0), None
#     Edge 19, Type (0, 0), None
#     Edge 20, Type (0, 0), None
#     Edge 21, Type (0, 0), None
#     Edge 22, Type (0, 0), None
#     Edge 23, Type (0, 0), None
#     Edge 24, Type (0, 0), None
#     Edge 25, Type (0, 0), None
#     Edge 26, Type (0, 0), None
#     Edge 27, Type (0, 0), None
#     Edge 28, Type (0, 0), None
#     Edge 29, Type (0, 0), None
#     Edge 30, Type (0, 0), None
#     Edge 31, Type (0, 0), None
#     Edge 32, Type (0, 0), None
#     Edge 33, Type (0, 0), None
#     Edge 34, Type (0, 0), None
#     Edge 35, Type (0, 0), None
#     Edge 36, Type (0, 0), None
#     Edge 37, Type (0, 0), None
#     Edge 38, Type (0, 0), None
#     Edge 39, Type (0, 0), None
#     Edge 40, Type (0, 0), None
#     Edge 41, Type (0, 0), None
#     Edge 42, Type (0, 0), None
#     Edge 43, Type (0, 0), None
#     Edge 44, Type (0, 0), None
#     Edge 45, Type (0, 0), None
#     Edge 46, Type (0, 0), None
#     Edge 47, Type (0, 0), None
#     Edge 48, Type (0, 0), None
#     Edge 49, Type (0, 0), None
#     Edge 50, Type (0, 0), None
#     Edge 51, Type (0, 0), None
#     Edge 52, Type (0, 0), None
#     Edge 53, Type (0, 0), None
#     Edge 54, Type (0, 0), None
#     Edge 55, Type (0, 0), None
#     Edge 56, Type (0, 0), None
#     Edge 57, Type (0, 0), None
#     Edge 58, Type (0, 0), None
#     Edge 59, Type (0, 0), None
#     Edge 60, Type (0, 0), None
#     Edge 61, Type (0, 0), None
#     Edge 62, Type (0, 0), None
#     Edge 63, Type (0, 0), None
# Relax obj value: 0.384
# Max RMSD: 0.249
# Mean RMSD: 0.247
data_MOF--net-whr--node1-VOLQOD_clean_sbu_1--edge1-none
_symmetry_space_group_name_H-M    P1
_symmetry_Int_Tables_number       1
_symmetry_cell_setting            triclinic
loop_
_symmetry_equiv_pos_as_xyz
'x, y, z'
_cell_length_a     27.413787
_cell_length_b     26.733266
_cell_length_c     14.300962
_cell_angle_alpha  89.902052
_cell_angle_beta   90.461604
_cell_angle_gamma 89.707389
loop_
_atom_site_label
_atom_site_type_symbol
_atom_site_fract_x
_atom_site_fract_y
_atom_site_fract_z
_atom_type_partial_charge
O0 O 0.11034 0.05357 0.23803 0.0
Zn1 Zn 0.11752 0.02664 0.1113 0.0
O2 O 0.18293 0.03777 0.06917 0.0
Zn3 Zn 0.21108 0.97213 0.06445 0.0
Zn4 Zn 0.21299 0.07929 0.16249 0.0
Zn5 Zn 0.18548 0.07892 0.95957 0.0
O6 O 0.24478 0.96846 0.9347 0.0
O7 O 0.20896 0.03278 0.85861 0.0
O8 O 0.09306 0.95618 0.10613 0.0
O9 O 0.15968 0.91584 0.06322 0.0
O10 O 0.24258 0.96139 0.19475 0.0
O11 O 0.23618 0.03561 0.26515 0.0
O12 O 0.26335 0.12804 0.11609 0.0
O13 O 0.07223 0.06834 0.03759 0.0
O14 O 0.23802 0.13183 0.9686 0.0
O15 O 0.11787 0.1129 0.93993 0.0
C16 C 0.12293 0.09821 0.25568 0.0
C17 C 0.23557 -0.00674 0.85903 0.0
C18 C 0.24411 -0.0112 0.26851 0.0
C19 C 0.1148 0.91566 0.08609 0.0
C20 C 0.2662 0.14639 0.03421 0.0
C21 C 0.07671 0.10257 0.97691 0.0
O22 O 0.15985 0.11826 0.2182 0.0
O23 O 0.04356 0.83426 0.80999 0.0
Zn24 Zn 0.01183 0.829 0.9314 0.0
O25 O 0.02046 0.76199 0.97431 0.0
Zn26 Zn 0.95677 0.73311 0.97697 0.0
Zn27 Zn 0.05947 0.72809 0.88424 0.0
Zn28 Zn 0.06226 0.75896 0.08242 0.0
O29 O 0.95432 0.69824 0.10749 0.0
O30 O 0.01846 0.73222 0.18333 0.0
O31 O 0.94224 0.8526 0.92165 0.0
O32 O 0.90195 0.78621 0.97132 0.0
O33 O 0.94581 0.70014 0.84725 0.0
O34 O 0.01775 0.70906 0.77826 0.0
O35 O 0.09699 0.66953 0.93647 0.0
O36 O 0.0501 0.87672 1.00885 0.0
O37 O 0.11513 0.70612 0.07115 0.0
O38 O 0.09544 0.82822 0.10228 0.0
C39 C 0.0872 0.81976 0.79727 0.0
C40 C -0.02019 0.70536 0.18266 0.0
C41 C -0.0275 0.69986 0.77378 0.0
C42 C 0.90229 0.83116 0.94103 0.0
C43 C 0.12043 0.67037 1.01341 0.0
C44 C 0.08469 0.87116 0.06763 0.0
O45 O 0.10404 0.77963 0.83341 0.0
O46 O 0.84423 0.88774 0.17717 0.0
Zn47 Zn 0.82313 0.93253 0.07553 0.0
O48 O 0.75445 0.92333 0.0539 0.0
Zn49 Zn 0.72525 -0.01166 0.04768 0.0
Zn50 Zn 0.72642 0.88357 0.15035 0.0
Zn51 Zn 0.7491 0.88123 0.94669 0.0
O52 O 0.69257 -0.00797 0.91456 0.0
O53 O 0.72867 0.92745 0.84242 0.0
O54 O 0.8436 0.00312 0.09943 0.0
O55 O 0.77729 0.0437 0.05203 0.0
O56 O 0.69148 -9e-05 0.17567 0.0
O57 O 0.70551 0.92836 0.25155 0.0
O58 O 0.67302 0.83888 0.10722 0.0
O59 O 0.86227 0.90736 0.96875 0.0
O60 O 0.69434 0.83241 0.95837 0.0
O61 O 0.81509 0.84289 0.93589 0.0
C62 C 0.82376 0.84955 0.21194 0.0
C63 C 0.70248 0.96727 0.83952 0.0
C64 C 0.69294 0.9741 0.25168 0.0
C65 C 0.82133 0.04386 0.08172 0.0
C66 C 0.66696 0.82062 0.02611 0.0
C67 C 0.85753 0.86215 0.94358 0.0
O68 O 0.77857 0.84074 0.20195 0.0
O69 O 0.8977 0.12211 0.80611 0.0
Zn70 Zn 0.92443 0.13118 0.9332 0.0
O71 O 0.91305 0.19835 0.9755 0.0
Zn72 Zn -0.02413 0.22944 0.98282 0.0
Zn73 Zn 0.8735 0.22979 0.88146 0.0
Zn74 Zn 0.87381 0.20012 0.08625 0.0
O75 O -0.02135 0.26443 0.11218 0.0
O76 O 0.91824 0.2256 0.18851 0.0
O77 O -0.00594 0.10911 0.93709 0.0
O78 O 0.03134 0.178 0.98394 0.0
O79 O -0.01215 0.26278 0.85517 0.0
O80 O 0.91637 0.2557 0.78138 0.0
O81 O 0.82519 0.2797 0.93074 0.0
O82 O 0.88508 0.084 1.00748 0.0
O83 O 0.82122 0.25272 0.07741 0.0
O84 O 0.84092 0.13079 0.10434 0.0
C85 C 0.8554 0.13764 0.78348 0.0
C86 C 0.95532 0.25459 0.1879 0.0
C87 C 0.96179 0.26481 0.78032 0.0
C88 C 0.03281 0.13243 0.95815 0.0
C89 C 0.807 0.28186 1.01223 0.0
C90 C 0.85142 0.08852 0.06731 0.0
O91 O 0.83642 0.17634 0.81986 0.0
O92 O 0.68374 -0.01212 0.41654 0.0
Zn93 Zn 0.69242 0.0239 0.54565 0.0
O94 O 0.75855 0.045 0.54569 0.0
Zn95 Zn 0.79332 0.01893 0.64786 0.0
Zn96 Zn 0.79476 0.02382 0.44452 0.0
Zn97 Zn 0.76497 0.11464 0.56159 0.0
O98 O 0.84319 0.06806 0.68653 0.0
O99 O 0.78582 0.12685 0.69112 0.0
O100 O 0.68376 -0.01453 0.67618 0.0
O101 O 0.74732 0.01889 0.75015 0.0
O102 O 0.8204 0.9482 0.62681 0.0
O103 O 0.82164 0.95441 0.47216 0.0
O104 O 0.85204 0.07098 0.43012 0.0
O105 O 0.64937 0.0871 0.53568 0.0
O106 O 0.82193 0.14102 0.49098 0.0
O107 O 0.70264 0.15008 0.53619 0.0
C108 C 0.70474 -4e-05 0.3394 0.0
C109 C 0.82723 0.10981 0.71635 0.0
C110 C 0.8294 0.92933 0.54705 0.0
C111 C 0.7073 -0.00426 0.75233 0.0
C112 C 0.85641 0.11698 0.45212 0.0
C113 C 0.65927 0.13374 0.52994 0.0
O114 O 0.74623 0.02159 0.33913 0.0
O115 O 0.05193 0.11017 0.34125 0.0
Zn116 Zn 0.01286 0.12945 0.45042 0.0
O117 O 0.02615 0.19817 0.4801 0.0
Zn118 Zn 0.96564 0.23315 0.48364 0.0
Zn119 Zn 0.0661 0.22585 0.3855 0.0
Zn120 Zn 0.06646 0.2011 0.58882 0.0
O121 O 0.96301 0.26793 0.61354 0.0
O122 O 0.02254 0.2265 0.69082 0.0
O123 O 0.94174 0.11433 0.42793 0.0
O124 O 0.90937 0.18467 0.48189 0.0
O125 O 0.95471 0.26562 0.3532 0.0
O126 O 0.02431 0.2478 0.28094 0.0
O127 O 0.11037 0.27922 0.42983 0.0
O128 O 0.04009 0.08355 0.54844 0.0
O129 O 0.11743 0.25459 0.57761 0.0
O130 O 0.09987 0.13145 0.60306 0.0
C131 C 0.09258 0.12791 0.31549 0.0
C132 C -0.01403 0.25661 0.68983 0.0
C133 C -0.01985 0.26211 0.2784 0.0
C134 C 0.9047 0.14053 0.44967 0.0
C135 C 0.12913 0.28347 0.51081 0.0
C136 C 0.08195 0.08821 0.58634 0.0
O137 O 0.10655 0.1716 0.33689 0.0
O138 O 0.10209 0.89488 0.72167 0.0
Zn139 Zn 0.11288 0.9301 0.60335 0.0
O140 O 0.17941 0.92047 0.5678 0.0
Zn141 Zn 0.20812 -0.01419 0.56505 0.0
Zn142 Zn 0.20977 0.87898 0.66135 0.0
Zn143 Zn 0.1836 0.88009 0.45747 0.0
O144 O 0.24239 -0.01007 0.43551 0.0
O145 O 0.20766 0.92615 0.35762 0.0
O146 O 0.09018 0.00145 0.612 0.0
O147 O 0.15641 0.04233 0.56938 0.0
O148 O 0.24185 -0.00428 0.69359 0.0
O149 O 0.23092 0.92256 0.76546 0.0
O150 O 0.26374 0.83576 0.61303 0.0
O151 O 0.06799 0.89405 0.51824 0.0
O152 O 0.23804 0.82923 0.46609 0.0
O153 O 0.11699 0.84481 0.43516 0.0
C154 C 0.11786 0.85129 0.74134 0.0
C155 C 0.2347 0.96504 0.35958 0.0
C156 C 0.24201 0.96861 0.76789 0.0
C157 C 0.11189 0.04229 0.59501 0.0
C158 C 0.26788 0.81772 0.53127 0.0
C159 C 0.0744 0.85757 0.46301 0.0
O160 O 0.15864 0.83505 0.7125 0.0
O161 O 0.89788 0.82507 0.27906 0.0
Zn162 Zn 0.92341 0.82591 0.40791 0.0
O163 O 0.91086 0.76353 0.46772 0.0
Zn164 Zn -0.02691 0.73188 0.47676 0.0
Zn165 Zn 0.87032 0.73048 0.37859 0.0
Zn166 Zn 0.87106 0.76816 0.5776 0.0
O167 O -0.02657 0.69758 0.60731 0.0
O168 O 0.91411 0.7405 0.6805 0.0
O169 O -0.00683 0.84867 0.41243 0.0
O170 O 0.02875 0.78292 0.47843 0.0
O171 O -0.01591 0.69882 0.34808 0.0
O172 O 0.9115 0.70402 0.27727 0.0
O173 O 0.82468 0.68112 0.43373 0.0
O174 O 0.88291 0.87707 0.46831 0.0
O175 O 0.81524 0.71697 0.57266 0.0
O176 O 0.84623 0.84291 0.59142 0.0
C177 C 0.85257 0.8166 0.26989 0.0
C178 C 0.94968 0.7092 0.68182 0.0
C179 C 0.95717 0.69621 0.27432 0.0
C180 C 0.03119 0.82682 0.44374 0.0
C181 C 0.80398 0.6834 0.51284 0.0
C182 C 0.85449 0.88051 0.53758 0.0
O183 O 0.83143 0.78337 0.31813 0.0
O184 O 0.61034 0.55357 0.73804 0.0
Zn185 Zn 0.61753 0.52664 0.61131 0.0
O186 O 0.68293 0.53777 0.56918 0.0
Zn187 Zn 0.71108 0.47213 0.56446 0.0
Zn188 Zn 0.713 0.57929 0.6625 0.0
Zn189 Zn 0.68548 0.57892 0.45958 0.0
O190 O 0.74478 0.46846 0.4347 0.0
O191 O 0.70896 0.53278 0.35861 0.0
O192 O 0.59306 0.45618 0.60614 0.0
O193 O 0.65968 0.41584 0.56323 0.0
O194 O 0.74258 0.46139 0.69476 0.0
O195 O 0.73618 0.53561 0.76515 0.0
O196 O 0.76335 0.62804 0.61609 0.0
O197 O 0.57223 0.56834 0.5376 0.0
O198 O 0.73802 0.63183 0.4686 0.0
O199 O 0.61787 0.6129 0.43993 0.0
C200 C 0.62294 0.59821 0.75569 0.0
C201 C 0.73557 0.49326 0.35903 0.0
C202 C 0.74411 0.4888 0.76852 0.0
C203 C 0.61481 0.41566 0.5861 0.0
C204 C 0.7662 0.64639 0.53421 0.0
C205 C 0.57671 0.60257 0.47692 0.0
O206 O 0.65985 0.61826 0.71821 0.0
O207 O 0.54356 0.33427 0.31001 0.0
Zn208 Zn 0.51183 0.329 0.43142 0.0
O209 O 0.52046 0.26199 0.47432 0.0
Zn210 Zn 0.45678 0.23311 0.47697 0.0
Zn211 Zn 0.55947 0.22809 0.38424 0.0
Zn212 Zn 0.56226 0.25896 0.58243 0.0
O213 O 0.45433 0.19825 0.6075 0.0
O214 O 0.51846 0.23222 0.68333 0.0
O215 O 0.44224 0.3526 0.42166 0.0
O216 O 0.40195 0.28621 0.47133 0.0
O217 O 0.44582 0.20014 0.34726 0.0
O218 O 0.51775 0.20906 0.27826 0.0
O219 O 0.59699 0.16953 0.43647 0.0
O220 O 0.5501 0.37672 0.50887 0.0
O221 O 0.61513 0.20611 0.57116 0.0
O222 O 0.59545 0.32822 0.60229 0.0
C223 C 0.5872 0.31976 0.29728 0.0
C224 C 0.47982 0.20537 0.68266 0.0
C225 C 0.4725 0.19986 0.27379 0.0
C226 C 0.40229 0.33116 0.44104 0.0
C227 C 0.62042 0.17036 0.51342 0.0
C228 C 0.58469 0.37116 0.56765 0.0
O229 O 0.60404 0.27964 0.33342 0.0
O230 O 0.34423 0.38774 0.67718 0.0
Zn231 Zn 0.32313 0.43253 0.57554 0.0
O232 O 0.25445 0.42333 0.5539 0.0
Zn233 Zn 0.22525 0.48834 0.54768 0.0
Zn234 Zn 0.22642 0.38357 0.65035 0.0
Zn235 Zn 0.24911 0.38123 0.44669 0.0
O236 O 0.19257 0.49203 0.41457 0.0
O237 O 0.22867 0.42745 0.34243 0.0
O238 O 0.3436 0.50312 0.59944 0.0
O239 O 0.27729 0.5437 0.55203 0.0
O240 O 0.19148 0.49991 0.67568 0.0
O241 O 0.20551 0.42836 0.75155 0.0
O242 O 0.17302 0.33888 0.60722 0.0
O243 O 0.36227 0.40736 0.46876 0.0
O244 O 0.19434 0.33241 0.45837 0.0
O245 O 0.3151 0.34289 0.43589 0.0
C246 C 0.32376 0.34955 0.71195 0.0
C247 C 0.20248 0.46727 0.33953 0.0
C248 C 0.19294 0.4741 0.75169 0.0
C249 C 0.32133 0.54386 0.58172 0.0
C250 C 0.16696 0.32062 0.5261 0.0
C251 C 0.35753 0.36215 0.44359 0.0
O252 O 0.27857 0.34074 0.70196 0.0
O253 O 0.3977 0.62211 0.30612 0.0
Zn254 Zn 0.42443 0.63118 0.43321 0.0
O255 O 0.41305 0.69835 0.4755 0.0
Zn256 Zn 0.47587 0.72944 0.48282 0.0
Zn257 Zn 0.3735 0.72978 0.38147 0.0
Zn258 Zn 0.37381 0.70012 0.58626 0.0
O259 O 0.47864 0.76442 0.61219 0.0
O260 O 0.41824 0.7256 0.68852 0.0
O261 O 0.49406 0.60911 0.4371 0.0
O262 O 0.53133 0.678 0.48394 0.0
O263 O 0.48785 0.76278 0.35518 0.0
O264 O 0.41637 0.7557 0.28139 0.0
O265 O 0.32519 0.7797 0.43074 0.0
O266 O 0.38508 0.584 0.50749 0.0
O267 O 0.32122 0.75272 0.57742 0.0
O268 O 0.34091 0.63079 0.60435 0.0
C269 C 0.3554 0.63763 0.28349 0.0
C270 C 0.45532 0.75459 0.6879 0.0
C271 C 0.46179 0.76481 0.28033 0.0
C272 C 0.53281 0.63243 0.45816 0.0
C273 C 0.307 0.78186 0.51223 0.0
C274 C 0.35142 0.58852 0.56732 0.0
O275 O 0.33642 0.67634 0.31986 0.0
O276 O 0.18374 0.48787 0.91654 0.0
Zn277 Zn 0.19242 0.5239 0.04565 0.0
O278 O 0.25855 0.545 0.0457 0.0
Zn279 Zn 0.29332 0.51893 0.14787 0.0
Zn280 Zn 0.29476 0.52382 0.94453 0.0
Zn281 Zn 0.26498 0.61463 0.0616 0.0
O282 O 0.3432 0.56805 0.18654 0.0
O283 O 0.28583 0.62685 0.19113 0.0
O284 O 0.18376 0.48547 0.17618 0.0
O285 O 0.24732 0.51889 0.25016 0.0
O286 O 0.32039 0.4482 0.12682 0.0
O287 O 0.32164 0.45441 0.97217 0.0
O288 O 0.35204 0.57097 0.93012 0.0
O289 O 0.14937 0.5871 0.03568 0.0
O290 O 0.32193 0.64102 0.99099 0.0
O291 O 0.20265 0.65008 0.03619 0.0
C292 C 0.20474 0.49996 0.83941 0.0
C293 C 0.32723 0.6098 0.21636 0.0
C294 C 0.3294 0.42933 0.04706 0.0
C295 C 0.2073 0.49574 0.25233 0.0
C296 C 0.35641 0.61698 0.95212 0.0
C297 C 0.15928 0.63374 0.02995 0.0
O298 O 0.24623 0.52159 0.83914 0.0
O299 O 0.55193 0.61017 0.84126 0.0
Zn300 Zn 0.51286 0.62945 0.95042 0.0
O301 O 0.52615 0.69817 0.9801 0.0
Zn302 Zn 0.46564 0.73315 0.98365 0.0
Zn303 Zn 0.5661 0.72585 0.8855 0.0
Zn304 Zn 0.56646 0.7011 0.08883 0.0
O305 O 0.46301 0.76793 0.11354 0.0
O306 O 0.52254 0.7265 0.19082 0.0
O307 O 0.44174 0.61433 0.92794 0.0
O308 O 0.40937 0.68466 0.98189 0.0
O309 O 0.45471 0.76562 0.85321 0.0
O310 O 0.52431 0.7478 0.78095 0.0
O311 O 0.61036 0.77923 0.92983 0.0
O312 O 0.54009 0.58355 0.04845 0.0
O313 O 0.61743 0.75459 0.07761 0.0
O314 O 0.59987 0.63145 0.10306 0.0
C315 C 0.59259 0.62791 0.8155 0.0
C316 C 0.48597 0.7566 0.18984 0.0
C317 C 0.48015 0.76211 0.7784 0.0
C318 C 0.4047 0.64053 0.94968 0.0
C319 C 0.62912 0.78348 1.01081 0.0
C320 C 0.58195 0.58821 0.08635 0.0
O321 O 0.60655 0.6716 0.8369 0.0
O322 O 0.6021 0.39489 0.22169 0.0
Zn323 Zn 0.61288 0.4301 0.10336 0.0
O324 O 0.67941 0.42048 0.06781 0.0
Zn325 Zn 0.70812 0.48581 0.06506 0.0
Zn326 Zn 0.70977 0.37898 0.16135 0.0
Zn327 Zn 0.6836 0.38009 0.95747 0.0
O328 O 0.74239 0.48993 0.93551 0.0
O329 O 0.70766 0.42615 0.85763 0.0
O330 O 0.59019 0.50145 0.112 0.0
O331 O 0.65641 0.54233 0.06939 0.0
O332 O 0.74185 0.49572 0.19359 0.0
O333 O 0.73093 0.42256 0.26546 0.0
O334 O 0.76374 0.33576 0.11302 0.0
O335 O 0.56799 0.39405 0.01826 0.0
O336 O 0.73804 0.32923 0.96609 0.0
O337 O 0.61699 0.34482 0.93516 0.0
C338 C 0.61787 0.35129 0.24135 0.0
C339 C 0.7347 0.46504 0.85958 0.0
C340 C 0.74201 0.46861 0.2679 0.0
C341 C 0.6119 0.54229 0.09501 0.0
C342 C 0.76788 0.31772 0.03126 0.0
C343 C 0.5744 0.35757 0.96303 0.0
O344 O 0.65864 0.33505 0.2125 0.0
O345 O 0.39788 0.32507 0.77906 0.0
Zn346 Zn 0.42341 0.32591 0.90792 0.0
O347 O 0.41086 0.26353 0.96773 0.0
Zn348 Zn 0.47309 0.23188 0.97677 0.0
Zn349 Zn 0.37032 0.23048 0.87859 0.0
Zn350 Zn 0.37106 0.26816 0.07761 0.0
O351 O 0.47343 0.19758 0.10731 0.0
O352 O 0.41411 0.2405 0.18051 0.0
O353 O 0.49317 0.34867 0.91244 0.0
O354 O 0.52875 0.28292 0.97844 0.0
O355 O 0.48409 0.19883 0.84809 0.0
O356 O 0.4115 0.20403 0.77728 0.0
O357 O 0.32469 0.18112 0.93374 0.0
O358 O 0.38291 0.37707 0.96832 0.0
O359 O 0.31524 0.21696 0.07267 0.0
O360 O 0.34623 0.34291 0.09143 0.0
C361 C 0.35257 0.3166 0.76989 0.0
C362 C 0.44968 0.2092 0.18183 0.0
C363 C 0.45717 0.19622 0.77433 0.0
C364 C 0.53119 0.32682 0.94375 0.0
C365 C 0.30398 0.18339 1.01285 0.0
C366 C 0.35449 0.38051 0.03758 0.0
O367 O 0.33143 0.28337 0.81814 0.0
loop_
_geom_bond_atom_site_label_1
_geom_bond_atom_site_label_2
_geom_bond_distance
_geom_bond_site_symmetry_2
_ccdc_geom_bond_type
O0 Zn1 1.953 . S
O0 C16 1.225 . S
Zn1 O0 1.953 . S
Zn1 O2 1.949 . S
Zn1 O8 1.919 1_545 S
Zn1 O13 1.924 . S
O2 Zn1 1.949 . S
O2 Zn3 1.923 1_545 S
O2 Zn4 1.950 . S
O2 Zn5 1.945 1_554 S
Zn3 O2 1.923 1_565 S
Zn3 O6 1.933 1_554 S
Zn3 O9 1.941 . S
Zn3 O10 1.965 . S
Zn4 O2 1.950 . S
Zn4 O11 1.938 . S
Zn4 O12 1.906 . S
Zn4 O22 1.953 . S
Zn5 O2 1.945 1_556 S
Zn5 O7 1.932 . S
Zn5 O14 1.977 . S
Zn5 O15 1.910 . S
O6 Zn3 1.933 1_556 S
O6 C17 1.222 1_565 S
O7 Zn5 1.932 . S
O7 C17 1.314 . S
O8 Zn1 1.919 1_565 S
O8 C19 1.253 . S
O9 Zn3 1.941 . S
O9 C19 1.283 . S
O10 Zn3 1.965 . S
O10 C18 1.301 1_565 S
O11 Zn4 1.938 . S
O11 C18 1.250 . S
O12 Zn4 1.906 . S
O12 C20 1.304 . S
O13 Zn1 1.924 . S
O13 C21 1.311 1_554 S
O14 Zn5 1.977 . S
O14 C20 1.272 1_556 S
O15 Zn5 1.910 . S
O15 C21 1.231 . S
C16 O0 1.225 . S
C16 O22 1.298 . S
C17 O6 1.222 1_545 S
C17 O7 1.314 . S
C18 O10 1.301 1_545 S
C18 O11 1.250 . S
C19 O8 1.253 . S
C19 O9 1.283 . S
C20 O12 1.304 . S
C20 O14 1.272 1_554 S
C21 O13 1.311 1_556 S
C21 O15 1.231 . S
O22 Zn4 1.953 . S
O22 C16 1.298 . S
O23 Zn24 1.953 . S
O23 C39 1.225 . S
Zn24 O23 1.953 . S
Zn24 O25 1.949 . S
Zn24 O31 1.919 1_455 S
Zn24 O36 1.924 . S
O25 Zn24 1.949 . S
O25 Zn26 1.923 1_455 S
O25 Zn27 1.950 . S
O25 Zn28 1.945 1_556 S
Zn26 O25 1.923 1_655 S
Zn26 O29 1.933 1_556 S
Zn26 O32 1.941 . S
Zn26 O33 1.965 . S
Zn27 O25 1.950 . S
Zn27 O34 1.938 . S
Zn27 O35 1.906 . S
Zn27 O45 1.953 . S
Zn28 O25 1.945 1_554 S
Zn28 O30 1.932 . S
Zn28 O37 1.977 . S
Zn28 O38 1.910 . S
O29 Zn26 1.933 1_554 S
O29 C40 1.226 1_655 S
O30 Zn28 1.932 . S
O30 C40 1.307 . S
O31 Zn24 1.919 1_655 S
O31 C42 1.253 . S
O32 Zn26 1.941 . S
O32 C42 1.283 . S
O33 Zn26 1.965 . S
O33 C41 1.303 1_655 S
O34 Zn27 1.938 . S
O34 C41 1.247 . S
O35 Zn27 1.906 . S
O35 C43 1.304 . S
O36 Zn24 1.924 . S
O36 C44 1.311 1_556 S
O37 Zn28 1.977 . S
O37 C43 1.272 1_554 S
O38 Zn28 1.910 . S
O38 C44 1.231 . S
C39 O23 1.225 . S
C39 O45 1.298 . S
C40 O29 1.226 1_455 S
C40 O30 1.307 . S
C41 O33 1.303 1_455 S
C41 O34 1.247 . S
C42 O31 1.253 . S
C42 O32 1.283 . S
C43 O35 1.304 . S
C43 O37 1.272 1_556 S
C44 O36 1.311 1_554 S
C44 O38 1.231 . S
O45 Zn27 1.953 . S
O45 C39 1.298 . S
O46 Zn47 1.953 . S
O46 C62 1.225 . S
Zn47 O46 1.953 . S
Zn47 O48 1.949 . S
Zn47 O54 1.919 1_565 S
Zn47 O59 1.924 . S
O48 Zn47 1.949 . S
O48 Zn49 1.923 1_565 S
O48 Zn50 1.950 . S
O48 Zn51 1.945 1_554 S
Zn49 O48 1.923 1_545 S
Zn49 O52 1.933 1_554 S
Zn49 O55 1.941 . S
Zn49 O56 1.965 . S
Zn50 O48 1.950 . S
Zn50 O57 1.938 . S
Zn50 O58 1.906 . S
Zn50 O68 1.953 . S
Zn51 O48 1.945 1_556 S
Zn51 O53 1.932 . S
Zn51 O60 1.977 . S
Zn51 O61 1.910 . S
O52 Zn49 1.933 1_556 S
O52 C63 1.220 1_545 S
O53 Zn51 1.932 . S
O53 C63 1.318 . S
O54 Zn47 1.919 1_545 S
O54 C65 1.253 . S
O55 Zn49 1.941 . S
O55 C65 1.283 . S
O56 Zn49 1.965 . S
O56 C64 1.296 1_545 S
O57 Zn50 1.938 . S
O57 C64 1.260 . S
O58 Zn50 1.906 . S
O58 C66 1.304 . S
O59 Zn47 1.924 . S
O59 C67 1.311 1_554 S
O60 Zn51 1.977 . S
O60 C66 1.272 1_556 S
O61 Zn51 1.910 . S
O61 C67 1.231 . S
C62 O46 1.225 . S
C62 O68 1.298 . S
C63 O52 1.220 1_565 S
C63 O53 1.318 . S
C64 O56 1.296 1_565 S
C64 O57 1.260 . S
C65 O54 1.253 . S
C65 O55 1.283 . S
C66 O58 1.304 . S
C66 O60 1.272 1_554 S
C67 O59 1.311 1_556 S
C67 O61 1.231 . S
O68 Zn50 1.953 . S
O68 C62 1.298 . S
O69 Zn70 1.953 . S
O69 C85 1.225 . S
Zn70 O69 1.953 . S
Zn70 O71 1.949 . S
Zn70 O77 1.919 1_655 S
Zn70 O82 1.924 . S
O71 Zn70 1.949 . S
O71 Zn72 1.923 1_655 S
O71 Zn73 1.950 . S
O71 Zn74 1.945 1_556 S
Zn72 O71 1.923 1_455 S
Zn72 O75 1.933 1_556 S
Zn72 O78 1.941 . S
Zn72 O79 1.965 . S
Zn73 O71 1.950 . S
Zn73 O80 1.938 . S
Zn73 O81 1.906 . S
Zn73 O91 1.953 . S
Zn74 O71 1.945 1_554 S
Zn74 O76 1.932 . S
Zn74 O83 1.977 . S
Zn74 O84 1.910 . S
O75 Zn72 1.933 1_554 S
O75 C86 1.217 1_455 S
O76 Zn74 1.932 . S
O76 C86 1.324 . S
O77 Zn70 1.919 1_455 S
O77 C88 1.253 . S
O78 Zn72 1.941 . S
O78 C88 1.283 . S
O79 Zn72 1.965 . S
O79 C87 1.294 1_455 S
O80 Zn73 1.938 . S
O80 C87 1.265 . S
O81 Zn73 1.906 . S
O81 C89 1.304 . S
O82 Zn70 1.924 . S
O82 C90 1.311 1_556 S
O83 Zn74 1.977 . S
O83 C89 1.272 1_554 S
O84 Zn74 1.910 . S
O84 C90 1.231 . S
C85 O69 1.225 . S
C85 O91 1.298 . S
C86 O75 1.217 1_655 S
C86 O76 1.324 . S
C87 O79 1.294 1_655 S
C87 O80 1.265 . S
C88 O77 1.253 . S
C88 O78 1.283 . S
C89 O81 1.304 . S
C89 O83 1.272 1_556 S
C90 O82 1.311 1_554 S
C90 O84 1.231 . S
O91 Zn73 1.953 . S
O91 C85 1.298 . S
O92 Zn93 1.953 . S
O92 C108 1.225 1_545 S
Zn93 O92 1.953 . S
Zn93 O94 1.949 . S
Zn93 O100 1.919 . S
Zn93 O105 1.924 . S
O94 Zn93 1.949 . S
O94 Zn95 1.923 . S
O94 Zn96 1.950 . S
O94 Zn97 1.945 . S
Zn95 O94 1.923 . S
Zn95 O98 1.933 . S
Zn95 O101 1.941 1_545 S
Zn95 O102 1.965 1_545 S
Zn96 O94 1.950 . S
Zn96 O103 1.938 1_545 S
Zn96 O104 1.906 . S
Zn96 O114 1.953 . S
Zn97 O94 1.945 . S
Zn97 O99 1.932 . S
Zn97 O106 1.977 . S
Zn97 O107 1.910 . S
O98 Zn95 1.933 . S
O98 C109 1.226 . S
O99 Zn97 1.932 . S
O99 C109 1.307 . S
O100 Zn93 1.919 . S
O100 C111 1.253 1_545 S
O101 Zn95 1.941 1_565 S
O101 C111 1.283 . S
O102 Zn95 1.965 1_565 S
O102 C110 1.303 . S
O103 Zn96 1.938 1_565 S
O103 C110 1.247 . S
O104 Zn96 1.906 . S
O104 C112 1.304 . S
O105 Zn93 1.924 . S
O105 C113 1.311 . S
O106 Zn97 1.977 . S
O106 C112 1.272 . S
O107 Zn97 1.910 . S
O107 C113 1.231 . S
C108 O92 1.225 1_565 S
C108 O114 1.299 1_565 S
C109 O98 1.226 . S
C109 O99 1.307 . S
C110 O102 1.303 . S
C110 O103 1.247 . S
C111 O100 1.253 1_565 S
C111 O101 1.283 . S
C112 O104 1.304 . S
C112 O106 1.272 . S
C113 O105 1.311 . S
C113 O107 1.231 . S
O114 Zn96 1.953 . S
O114 C108 1.299 1_545 S
O115 Zn116 1.953 . S
O115 C131 1.225 . S
Zn116 O115 1.953 . S
Zn116 O117 1.949 . S
Zn116 O123 1.919 1_455 S
Zn116 O128 1.924 . S
O117 Zn116 1.949 . S
O117 Zn118 1.923 1_455 S
O117 Zn119 1.950 . S
O117 Zn120 1.945 . S
Zn118 O117 1.923 1_655 S
Zn118 O121 1.933 . S
Zn118 O124 1.941 . S
Zn118 O125 1.965 . S
Zn119 O117 1.950 . S
Zn119 O126 1.938 . S
Zn119 O127 1.906 . S
Zn119 O137 1.953 . S
Zn120 O117 1.945 . S
Zn120 O122 1.932 . S
Zn120 O129 1.977 . S
Zn120 O130 1.910 . S
O121 Zn118 1.933 . S
O121 C132 1.221 1_655 S
O122 Zn120 1.932 . S
O122 C132 1.316 . S
O123 Zn116 1.919 1_655 S
O123 C134 1.253 . S
O124 Zn118 1.941 . S
O124 C134 1.283 . S
O125 Zn118 1.965 . S
O125 C133 1.299 1_655 S
O126 Zn119 1.938 . S
O126 C133 1.255 . S
O127 Zn119 1.906 . S
O127 C135 1.304 . S
O128 Zn116 1.924 . S
O128 C136 1.311 . S
O129 Zn120 1.977 . S
O129 C135 1.272 . S
O130 Zn120 1.910 . S
O130 C136 1.231 . S
C131 O115 1.225 . S
C131 O137 1.298 . S
C132 O121 1.221 1_455 S
C132 O122 1.316 . S
C133 O125 1.299 1_455 S
C133 O126 1.255 . S
C134 O123 1.253 . S
C134 O124 1.283 . S
C135 O127 1.304 . S
C135 O129 1.272 . S
C136 O128 1.311 . S
C136 O130 1.231 . S
O137 Zn119 1.953 . S
O137 C131 1.298 . S
O138 Zn139 1.953 . S
O138 C154 1.225 . S
Zn139 O138 1.953 . S
Zn139 O140 1.949 . S
Zn139 O146 1.919 1_565 S
Zn139 O151 1.924 . S
O140 Zn139 1.949 . S
O140 Zn141 1.923 1_565 S
O140 Zn142 1.950 . S
O140 Zn143 1.945 . S
Zn141 O140 1.923 1_545 S
Zn141 O144 1.933 . S
Zn141 O147 1.941 . S
Zn141 O148 1.965 . S
Zn142 O140 1.950 . S
Zn142 O149 1.938 . S
Zn142 O150 1.906 . S
Zn142 O160 1.953 . S
Zn143 O140 1.945 . S
Zn143 O145 1.932 . S
Zn143 O152 1.977 . S
Zn143 O153 1.910 . S
O144 Zn141 1.933 . S
O144 C155 1.222 1_545 S
O145 Zn143 1.932 . S
O145 C155 1.315 . S
O146 Zn139 1.919 1_545 S
O146 C157 1.253 . S
O147 Zn141 1.941 . S
O147 C157 1.283 . S
O148 Zn141 1.965 . S
O148 C156 1.298 1_545 S
O149 Zn142 1.938 . S
O149 C156 1.256 . S
O150 Zn142 1.906 . S
O150 C158 1.304 . S
O151 Zn139 1.924 . S
O151 C159 1.311 . S
O152 Zn143 1.977 . S
O152 C158 1.272 . S
O153 Zn143 1.910 . S
O153 C159 1.231 . S
C154 O138 1.225 . S
C154 O160 1.298 . S
C155 O144 1.222 1_565 S
C155 O145 1.315 . S
C156 O148 1.298 1_565 S
C156 O149 1.256 . S
C157 O146 1.253 . S
C157 O147 1.283 . S
C158 O150 1.304 . S
C158 O152 1.272 . S
C159 O151 1.311 . S
C159 O153 1.231 . S
O160 Zn142 1.953 . S
O160 C154 1.298 . S
O161 Zn162 1.953 . S
O161 C177 1.225 . S
Zn162 O161 1.953 . S
Zn162 O163 1.949 . S
Zn162 O169 1.919 1_655 S
Zn162 O174 1.924 . S
O163 Zn162 1.949 . S
O163 Zn164 1.923 1_655 S
O163 Zn165 1.950 . S
O163 Zn166 1.945 . S
Zn164 O163 1.923 1_455 S
Zn164 O167 1.933 . S
Zn164 O170 1.941 . S
Zn164 O171 1.965 . S
Zn165 O163 1.950 . S
Zn165 O172 1.938 . S
Zn165 O173 1.906 . S
Zn165 O183 1.953 . S
Zn166 O163 1.945 . S
Zn166 O168 1.932 . S
Zn166 O175 1.977 . S
Zn166 O176 1.910 . S
O167 Zn164 1.933 . S
O167 C178 1.227 1_455 S
O168 Zn166 1.932 . S
O168 C178 1.306 . S
O169 Zn162 1.919 1_455 S
O169 C180 1.253 . S
O170 Zn164 1.941 . S
O170 C180 1.283 . S
O171 Zn164 1.965 . S
O171 C179 1.303 . S
O172 Zn165 1.938 . S
O172 C179 1.248 1_655 S
O173 Zn165 1.906 . S
O173 C181 1.304 . S
O174 Zn162 1.924 . S
O174 C182 1.311 . S
O175 Zn166 1.977 . S
O175 C181 1.272 . S
O176 Zn166 1.910 . S
O176 C182 1.231 . S
C177 O161 1.225 . S
C177 O183 1.298 . S
C178 O167 1.227 1_655 S
C178 O168 1.306 . S
C179 O171 1.303 . S
C179 O172 1.248 1_455 S
C180 O169 1.253 . S
C180 O170 1.283 . S
C181 O173 1.304 . S
C181 O175 1.272 . S
C182 O174 1.311 . S
C182 O176 1.231 . S
O183 Zn165 1.953 . S
O183 C177 1.298 . S
O184 Zn185 1.953 . S
O184 C200 1.225 . S
Zn185 O184 1.953 . S
Zn185 O186 1.949 . S
Zn185 O192 1.919 . S
Zn185 O197 1.924 . S
O186 Zn185 1.949 . S
O186 Zn187 1.923 . S
O186 Zn188 1.950 . S
O186 Zn189 1.945 . S
Zn187 O186 1.923 . S
Zn187 O190 1.933 . S
Zn187 O193 1.941 . S
Zn187 O194 1.965 . S
Zn188 O186 1.950 . S
Zn188 O195 1.938 . S
Zn188 O196 1.906 . S
Zn188 O206 1.953 . S
Zn189 O186 1.945 . S
Zn189 O191 1.932 . S
Zn189 O198 1.977 . S
Zn189 O199 1.910 . S
O190 Zn187 1.933 . S
O190 C201 1.226 . S
O191 Zn189 1.932 . S
O191 C201 1.307 . S
O192 Zn185 1.919 . S
O192 C203 1.253 . S
O193 Zn187 1.941 . S
O193 C203 1.283 . S
O194 Zn187 1.965 . S
O194 C202 1.303 . S
O195 Zn188 1.938 . S
O195 C202 1.247 . S
O196 Zn188 1.906 . S
O196 C204 1.304 . S
O197 Zn185 1.924 . S
O197 C205 1.311 . S
O198 Zn189 1.977 . S
O198 C204 1.272 . S
O199 Zn189 1.910 . S
O199 C205 1.231 . S
C200 O184 1.225 . S
C200 O206 1.298 . S
C201 O190 1.226 . S
C201 O191 1.307 . S
C202 O194 1.303 . S
C202 O195 1.247 . S
C203 O192 1.253 . S
C203 O193 1.283 . S
C204 O196 1.304 . S
C204 O198 1.272 . S
C205 O197 1.311 . S
C205 O199 1.231 . S
O206 Zn188 1.953 . S
O206 C200 1.298 . S
O207 Zn208 1.953 . S
O207 C223 1.225 . S
Zn208 O207 1.953 . S
Zn208 O209 1.949 . S
Zn208 O215 1.919 . S
Zn208 O220 1.924 . S
O209 Zn208 1.949 . S
O209 Zn210 1.923 . S
O209 Zn211 1.950 . S
O209 Zn212 1.945 . S
Zn210 O209 1.923 . S
Zn210 O213 1.933 . S
Zn210 O216 1.941 . S
Zn210 O217 1.965 . S
Zn211 O209 1.950 . S
Zn211 O218 1.938 . S
Zn211 O219 1.906 . S
Zn211 O229 1.953 . S
Zn212 O209 1.945 . S
Zn212 O214 1.932 . S
Zn212 O221 1.977 . S
Zn212 O222 1.910 . S
O213 Zn210 1.933 . S
O213 C224 1.226 . S
O214 Zn212 1.932 . S
O214 C224 1.307 . S
O215 Zn208 1.919 . S
O215 C226 1.253 . S
O216 Zn210 1.941 . S
O216 C226 1.283 . S
O217 Zn210 1.965 . S
O217 C225 1.303 . S
O218 Zn211 1.938 . S
O218 C225 1.247 . S
O219 Zn211 1.906 . S
O219 C227 1.304 . S
O220 Zn208 1.924 . S
O220 C228 1.311 . S
O221 Zn212 1.977 . S
O221 C227 1.272 . S
O222 Zn212 1.910 . S
O222 C228 1.231 . S
C223 O207 1.225 . S
C223 O229 1.298 . S
C224 O213 1.226 . S
C224 O214 1.307 . S
C225 O217 1.303 . S
C225 O218 1.247 . S
C226 O215 1.253 . S
C226 O216 1.283 . S
C227 O219 1.304 . S
C227 O221 1.272 . S
C228 O220 1.311 . S
C228 O222 1.231 . S
O229 Zn211 1.953 . S
O229 C223 1.298 . S
O230 Zn231 1.953 . S
O230 C246 1.225 . S
Zn231 O230 1.953 . S
Zn231 O232 1.949 . S
Zn231 O238 1.919 . S
Zn231 O243 1.924 . S
O232 Zn231 1.949 . S
O232 Zn233 1.923 . S
O232 Zn234 1.950 . S
O232 Zn235 1.945 . S
Zn233 O232 1.923 . S
Zn233 O236 1.933 . S
Zn233 O239 1.941 . S
Zn233 O240 1.965 . S
Zn234 O232 1.950 . S
Zn234 O241 1.938 . S
Zn234 O242 1.906 . S
Zn234 O252 1.953 . S
Zn235 O232 1.945 . S
Zn235 O237 1.932 . S
Zn235 O244 1.977 . S
Zn235 O245 1.910 . S
O236 Zn233 1.933 . S
O236 C247 1.226 . S
O237 Zn235 1.932 . S
O237 C247 1.307 . S
O238 Zn231 1.919 . S
O238 C249 1.253 . S
O239 Zn233 1.941 . S
O239 C249 1.283 . S
O240 Zn233 1.965 . S
O240 C248 1.303 . S
O241 Zn234 1.938 . S
O241 C248 1.247 . S
O242 Zn234 1.906 . S
O242 C250 1.304 . S
O243 Zn231 1.924 . S
O243 C251 1.311 . S
O244 Zn235 1.977 . S
O244 C250 1.272 . S
O245 Zn235 1.910 . S
O245 C251 1.231 . S
C246 O230 1.225 . S
C246 O252 1.298 . S
C247 O236 1.226 . S
C247 O237 1.307 . S
C248 O240 1.303 . S
C248 O241 1.247 . S
C249 O238 1.253 . S
C249 O239 1.283 . S
C250 O242 1.304 . S
C250 O244 1.272 . S
C251 O243 1.311 . S
C251 O245 1.231 . S
O252 Zn234 1.953 . S
O252 C246 1.298 . S
O253 Zn254 1.953 . S
O253 C269 1.225 . S
Zn254 O253 1.953 . S
Zn254 O255 1.949 . S
Zn254 O261 1.919 . S
Zn254 O266 1.924 . S
O255 Zn254 1.949 . S
O255 Zn256 1.923 . S
O255 Zn257 1.950 . S
O255 Zn258 1.945 . S
Zn256 O255 1.923 . S
Zn256 O259 1.933 . S
Zn256 O262 1.941 . S
Zn256 O263 1.965 . S
Zn257 O255 1.950 . S
Zn257 O264 1.938 . S
Zn257 O265 1.906 . S
Zn257 O275 1.953 . S
Zn258 O255 1.945 . S
Zn258 O260 1.932 . S
Zn258 O267 1.977 . S
Zn258 O268 1.910 . S
O259 Zn256 1.933 . S
O259 C270 1.226 . S
O260 Zn258 1.932 . S
O260 C270 1.307 . S
O261 Zn254 1.919 . S
O261 C272 1.253 . S
O262 Zn256 1.941 . S
O262 C272 1.283 . S
O263 Zn256 1.965 . S
O263 C271 1.303 . S
O264 Zn257 1.938 . S
O264 C271 1.247 . S
O265 Zn257 1.906 . S
O265 C273 1.304 . S
O266 Zn254 1.924 . S
O266 C274 1.311 . S
O267 Zn258 1.977 . S
O267 C273 1.272 . S
O268 Zn258 1.910 . S
O268 C274 1.231 . S
C269 O253 1.225 . S
C269 O275 1.298 . S
C270 O259 1.226 . S
C270 O260 1.307 . S
C271 O263 1.303 . S
C271 O264 1.247 . S
C272 O261 1.253 . S
C272 O262 1.283 . S
C273 O265 1.304 . S
C273 O267 1.272 . S
C274 O266 1.311 . S
C274 O268 1.231 . S
O275 Zn257 1.953 . S
O275 C269 1.298 . S
O276 Zn277 1.953 1_556 S
O276 C292 1.225 . S
Zn277 O276 1.953 1_554 S
Zn277 O278 1.949 . S
Zn277 O284 1.919 . S
Zn277 O289 1.924 . S
O278 Zn277 1.949 . S
O278 Zn279 1.923 . S
O278 Zn280 1.950 1_554 S
O278 Zn281 1.945 . S
Zn279 O278 1.923 . S
Zn279 O282 1.933 . S
Zn279 O285 1.941 . S
Zn279 O286 1.965 . S
Zn280 O278 1.950 1_556 S
Zn280 O287 1.938 . S
Zn280 O288 1.906 . S
Zn280 O298 1.953 . S
Zn281 O278 1.945 . S
Zn281 O283 1.932 . S
Zn281 O290 1.977 1_554 S
Zn281 O291 1.910 . S
O282 Zn279 1.933 . S
O282 C293 1.226 . S
O283 Zn281 1.932 . S
O283 C293 1.307 . S
O284 Zn277 1.919 . S
O284 C295 1.253 . S
O285 Zn279 1.941 . S
O285 C295 1.283 . S
O286 Zn279 1.965 . S
O286 C294 1.303 . S
O287 Zn280 1.938 . S
O287 C294 1.247 1_556 S
O288 Zn280 1.906 . S
O288 C296 1.304 . S
O289 Zn277 1.924 . S
O289 C297 1.311 . S
O290 Zn281 1.977 1_556 S
O290 C296 1.272 . S
O291 Zn281 1.910 . S
O291 C297 1.231 . S
C292 O276 1.225 . S
C292 O298 1.298 . S
C293 O282 1.226 . S
C293 O283 1.307 . S
C294 O286 1.303 . S
C294 O287 1.247 1_554 S
C295 O284 1.253 . S
C295 O285 1.283 . S
C296 O288 1.304 . S
C296 O290 1.272 . S
C297 O289 1.311 . S
C297 O291 1.231 . S
O298 Zn280 1.953 . S
O298 C292 1.298 . S
O299 Zn300 1.953 . S
O299 C315 1.225 . S
Zn300 O299 1.953 . S
Zn300 O301 1.949 . S
Zn300 O307 1.919 . S
Zn300 O312 1.924 . S
O301 Zn300 1.949 . S
O301 Zn302 1.923 . S
O301 Zn303 1.950 . S
O301 Zn304 1.945 1_556 S
Zn302 O301 1.923 . S
Zn302 O305 1.933 1_556 S
Zn302 O308 1.941 . S
Zn302 O309 1.965 . S
Zn303 O301 1.950 . S
Zn303 O310 1.938 . S
Zn303 O311 1.906 . S
Zn303 O321 1.953 . S
Zn304 O301 1.945 1_554 S
Zn304 O306 1.932 . S
Zn304 O313 1.977 . S
Zn304 O314 1.910 . S
O305 Zn302 1.933 1_554 S
O305 C316 1.226 . S
O306 Zn304 1.932 . S
O306 C316 1.307 . S
O307 Zn300 1.919 . S
O307 C318 1.253 . S
O308 Zn302 1.941 . S
O308 C318 1.283 . S
O309 Zn302 1.965 . S
O309 C317 1.303 . S
O310 Zn303 1.938 . S
O310 C317 1.247 . S
O311 Zn303 1.906 . S
O311 C319 1.304 . S
O312 Zn300 1.924 . S
O312 C320 1.311 1_556 S
O313 Zn304 1.977 . S
O313 C319 1.272 1_554 S
O314 Zn304 1.910 . S
O314 C320 1.231 . S
C315 O299 1.225 . S
C315 O321 1.298 . S
C316 O305 1.226 . S
C316 O306 1.307 . S
C317 O309 1.303 . S
C317 O310 1.247 . S
C318 O307 1.253 . S
C318 O308 1.283 . S
C319 O311 1.304 . S
C319 O313 1.272 1_556 S
C320 O312 1.311 1_554 S
C320 O314 1.231 . S
O321 Zn303 1.953 . S
O321 C315 1.298 . S
O322 Zn323 1.953 . S
O322 C338 1.225 . S
Zn323 O322 1.953 . S
Zn323 O324 1.949 . S
Zn323 O330 1.919 . S
Zn323 O335 1.924 . S
O324 Zn323 1.949 . S
O324 Zn325 1.923 . S
O324 Zn326 1.950 . S
O324 Zn327 1.945 1_554 S
Zn325 O324 1.923 . S
Zn325 O328 1.933 1_554 S
Zn325 O331 1.941 . S
Zn325 O332 1.965 . S
Zn326 O324 1.950 . S
Zn326 O333 1.938 . S
Zn326 O334 1.906 . S
Zn326 O344 1.953 . S
Zn327 O324 1.945 1_556 S
Zn327 O329 1.932 . S
Zn327 O336 1.977 . S
Zn327 O337 1.910 . S
O328 Zn325 1.933 1_556 S
O328 C339 1.226 . S
O329 Zn327 1.932 . S
O329 C339 1.307 . S
O330 Zn323 1.919 . S
O330 C341 1.253 . S
O331 Zn325 1.941 . S
O331 C341 1.283 . S
O332 Zn325 1.965 . S
O332 C340 1.303 . S
O333 Zn326 1.938 . S
O333 C340 1.247 . S
O334 Zn326 1.906 . S
O334 C342 1.304 . S
O335 Zn323 1.924 . S
O335 C343 1.311 1_554 S
O336 Zn327 1.977 . S
O336 C342 1.272 1_556 S
O337 Zn327 1.910 . S
O337 C343 1.231 . S
C338 O322 1.225 . S
C338 O344 1.298 . S
C339 O328 1.226 . S
C339 O329 1.307 . S
C340 O332 1.303 . S
C340 O333 1.247 . S
C341 O330 1.253 . S
C341 O331 1.283 . S
C342 O334 1.304 . S
C342 O336 1.272 1_554 S
C343 O335 1.311 1_556 S
C343 O337 1.231 . S
O344 Zn326 1.953 . S
O344 C338 1.298 . S
O345 Zn346 1.953 . S
O345 C361 1.225 . S
Zn346 O345 1.953 . S
Zn346 O347 1.949 . S
Zn346 O353 1.919 . S
Zn346 O358 1.924 . S
O347 Zn346 1.949 . S
O347 Zn348 1.923 . S
O347 Zn349 1.950 . S
O347 Zn350 1.945 1_556 S
Zn348 O347 1.923 . S
Zn348 O351 1.933 1_556 S
Zn348 O354 1.941 . S
Zn348 O355 1.965 . S
Zn349 O347 1.950 . S
Zn349 O356 1.938 . S
Zn349 O357 1.906 . S
Zn349 O367 1.953 . S
Zn350 O347 1.945 1_554 S
Zn350 O352 1.932 . S
Zn350 O359 1.977 . S
Zn350 O360 1.910 . S
O351 Zn348 1.933 1_554 S
O351 C362 1.226 . S
O352 Zn350 1.932 . S
O352 C362 1.307 . S
O353 Zn346 1.919 . S
O353 C364 1.253 . S
O354 Zn348 1.941 . S
O354 C364 1.283 . S
O355 Zn348 1.965 . S
O355 C363 1.303 . S
O356 Zn349 1.938 . S
O356 C363 1.247 . S
O357 Zn349 1.906 . S
O357 C365 1.304 . S
O358 Zn346 1.924 . S
O358 C366 1.311 1_556 S
O359 Zn350 1.977 . S
O359 C365 1.272 1_554 S
O360 Zn350 1.910 . S
O360 C366 1.231 . S
C361 O345 1.225 . S
C361 O367 1.298 . S
C362 O351 1.226 . S
C362 O352 1.307 . S
C363 O355 1.303 . S
C363 O356 1.247 . S
C364 O353 1.253 . S
C364 O354 1.283 . S
C365 O357 1.304 . S
C365 O359 1.272 1_556 S
C366 O358 1.311 1_554 S
C366 O360 1.231 . S
O367 Zn349 1.953 . S
O367 C361 1.298 . S
C16 C131 1.535 . S
C39 C154 1.532 . S
C177 C62 1.537 . S
C109 C85 1.542 . S
C315 C200 1.535 . S
C223 C338 1.532 . S
C361 C246 1.537 . S
C293 C269 1.542 . S
C19 C44 1.864 . S
C67 C42 1.863 . S
C90 C65 1.875 . S
C88 C21 1.857 . S
C110 C182 2.027 . S
C112 C134 1.963 . S
C136 C157 1.853 . S
C159 C180 1.855 . S
C203 C228 1.864 . S
C251 C226 1.863 . S
C249 C274 1.875 . S
C272 C205 1.857 . S
C366 C294 2.027 . S
C296 C318 1.963 . S
C320 C341 1.853 . S
C364 C343 1.855 . S
C156 C17 2.099 1_565 S
C179 C40 2.094 . S
C63 C111 2.168 . S
C86 C133 2.094 1_655 S
C64 C108 2.173 . S
C132 C87 2.107 1_455 S
C155 C18 2.103 1_565 S
C41 C178 2.104 1_455 S
C201 C340 2.099 . S
C224 C363 2.094 . S
C295 C247 2.166 . S
C270 C317 2.094 . S
C292 C248 2.173 . S
C316 C271 2.108 . S
C339 C202 2.103 . S
C225 C362 2.104 . S
C365 C20 1.249 1_556 S
C297 C43 1.323 1_554 S
C66 C319 1.238 1_554 S
C342 C89 1.215 1_554 S
C113 C227 1.323 . S
C135 C250 1.238 . S
C273 C158 1.215 . S
C181 C204 1.249 . S
