# Generated by pormake.
# Topology yfh, (5)-cn, num edge types: 1
# Building blocks:
#     Node 0, Type 0, BuildingBlock: BEQFEK_clean_sbu_0, # of connection points: 5
#     Node 1, Type 0, BuildingBlock: BEQFEK_clean_sbu_0, # of connection points: 5
#     Node 2, Type 0, BuildingBlock: BEQFEK_clean_sbu_0, # of connection points: 5
#     Node 3, Type 0, BuildingBlock: BEQFEK_clean_sbu_0, # of connection points: 5
#     Node 4, Type 0, BuildingBlock: BEQFEK_clean_sbu_0, # of connection points: 5
#     Node 5, Type 0, BuildingBlock: BEQFEK_clean_sbu_0, # of connection points: 5
#     Node 6, Type 0, BuildingBlock: BEQFEK_clean_sbu_0, # of connection points: 5
#     Node 7, Type 0, BuildingBlock: BEQFEK_clean_sbu_0, # of connection points: 5
#     Edge 8, Type (0, 0), BuildingBlock: TEMPAE_clean_linker_10, # of connection points: 2
#     Edge 9, Type (0, 0), BuildingBlock: TEMPAE_clean_linker_10, # of connection points: 2
#     Edge 10, Type (0, 0), BuildingBlock: TEMPAE_clean_linker_10, # of connection points: 2
#     Edge 11, Type (0, 0), BuildingBlock: TEMPAE_clean_linker_10, # of connection points: 2
#     Edge 12, Type (0, 0), BuildingBlock: TEMPAE_clean_linker_10, # of connection points: 2
#     Edge 13, Type (0, 0), BuildingBlock: TEMPAE_clean_linker_10, # of connection points: 2
#     Edge 14, Type (0, 0), BuildingBlock: TEMPAE_clean_linker_10, # of connection points: 2
#     Edge 15, Type (0, 0), BuildingBlock: TEMPAE_clean_linker_10, # of connection points: 2
#     Edge 16, Type (0, 0), BuildingBlock: TEMPAE_clean_linker_10, # of connection points: 2
#     Edge 17, Type (0, 0), BuildingBlock: TEMPAE_clean_linker_10, # of connection points: 2
#     Edge 18, Type (0, 0), BuildingBlock: TEMPAE_clean_linker_10, # of connection points: 2
#     Edge 19, Type (0, 0), BuildingBlock: TEMPAE_clean_linker_10, # of connection points: 2
#     Edge 20, Type (0, 0), BuildingBlock: TEMPAE_clean_linker_10, # of connection points: 2
#     Edge 21, Type (0, 0), BuildingBlock: TEMPAE_clean_linker_10, # of connection points: 2
#     Edge 22, Type (0, 0), BuildingBlock: TEMPAE_clean_linker_10, # of connection points: 2
#     Edge 23, Type (0, 0), BuildingBlock: TEMPAE_clean_linker_10, # of connection points: 2
#     Edge 24, Type (0, 0), BuildingBlock: TEMPAE_clean_linker_10, # of connection points: 2
#     Edge 25, Type (0, 0), BuildingBlock: TEMPAE_clean_linker_10, # of connection points: 2
#     Edge 26, Type (0, 0), BuildingBlock: TEMPAE_clean_linker_10, # of connection points: 2
#     Edge 27, Type (0, 0), BuildingBlock: TEMPAE_clean_linker_10, # of connection points: 2
# Relax obj value: 0.471
# Max RMSD: 0.266
# Mean RMSD: 0.266
data_MOF--net-yfh--node1-BEQFEK_clean_sbu_0--edge1-TEMPAE_clean_linker_10
_symmetry_space_group_name_H-M    P1
_symmetry_Int_Tables_number       1
_symmetry_cell_setting            triclinic
loop_
_symmetry_equiv_pos_as_xyz
'x, y, z'
_cell_length_a     29.613317
_cell_length_b     29.569786
_cell_length_c     58.220197
_cell_angle_alpha  89.776343
_cell_angle_beta   90.040547
_cell_angle_gamma 89.995582
loop_
_atom_site_label
_atom_site_type_symbol
_atom_site_fract_x
_atom_site_fract_y
_atom_site_fract_z
_atom_type_partial_charge
Co0 Co 0.31635 0.05828 0.07277 0.0
Co1 Co 0.38526 0.07842 0.11187 0.0
C2 C 0.31112 0.14335 0.09929 0.0
O3 O 0.29608 0.11701 0.08397 0.0
O4 O 0.34545 0.13266 0.11127 0.0
C5 C 0.22902 0.04508 0.05492 0.0
O6 O 0.21768 0.0536 0.07628 0.0
C7 C 0.40685 0.08926 0.15984 0.0
C8 C 0.48136 0.08673 0.16037 0.0
C9 C 0.44384 0.08989 0.1746 0.0
N10 N 0.42196 0.08543 0.13824 0.0
N11 N 0.46653 0.08496 0.13854 0.0
C12 C 0.35764 0.08815 0.16583 0.0
H13 H 0.33703 0.07858 0.1507 0.0
H14 H 0.35121 0.06392 0.18005 0.0
H15 H 0.34687 0.1223 0.17143 0.0
C16 C 0.30456 0.9739 0.09931 0.0
N17 N 0.32225 0.01547 0.09667 0.0
N18 N 0.35176 0.023 0.11318 0.0
C19 C 0.35382 0.98592 0.12681 0.0
C20 C 0.32358 0.95417 0.11856 0.0
C21 C 0.27205 0.95241 0.08294 0.0
H22 H 0.23808 0.96723 0.08555 0.0
H23 H 0.2696 0.91535 0.08568 0.0
H24 H 0.28269 0.95927 0.065 0.0
O25 O 0.37446 0.0657 0.05684 0.0
O26 O 0.4249 0.07749 0.08454 0.0
H27 H 0.3939 0.94206 0.1484 0.0
H28 H 0.37331 0.99228 0.16198 0.0
C29 C 0.38724 0.97867 0.14576 0.0
H30 H 0.41939 0.99619 0.14181 0.0
H31 H 0.4867 0.08168 0.12395 0.0
O32 O 0.27059 0.04149 0.04985 0.0
C33 C 0.41488 0.0726 0.06343 0.0
Co34 Co 0.41233 0.81113 0.32224 0.0
Co35 Co 0.39194 0.87898 0.36159 0.0
C36 C 0.32659 0.80604 0.34849 0.0
O37 O 0.35291 0.79168 0.33299 0.0
O38 O 0.33747 0.8396 0.36091 0.0
C39 C 0.4277 0.72329 0.30565 0.0
O40 O 0.41965 0.71274 0.3272 0.0
C41 C 0.38022 0.90322 0.40942 0.0
C42 C 0.37991 0.97786 0.4082 0.0
C43 C 0.37768 0.94142 0.42329 0.0
N44 N 0.38425 0.91673 0.3875 0.0
N45 N 0.38304 0.96134 0.38677 0.0
C46 C 0.38219 0.85449 0.41651 0.0
H47 H 0.39219 0.83287 0.40184 0.0
H48 H 0.40642 0.84967 0.43085 0.0
H49 H 0.34827 0.84354 0.42238 0.0
C50 C 0.49587 0.79769 0.34906 0.0
N51 N 0.45451 0.81582 0.34646 0.0
N52 N 0.44701 0.84489 0.36315 0.0
C53 C 0.48397 0.84627 0.37681 0.0
C54 C 0.51543 0.81579 0.36847 0.0
C55 C 0.51823 0.76692 0.33214 0.0
H56 H 0.50976 0.77751 0.31437 0.0
H57 H 0.50603 0.7319 0.33495 0.0
H58 H 0.55548 0.76688 0.33422 0.0
O59 O 0.40713 0.86957 0.30612 0.0
O60 O 0.39432 0.91868 0.33422 0.0
H61 H 0.47302 0.91109 0.39251 0.0
H62 H 0.52791 0.88643 0.39809 0.0
C63 C 0.49138 0.87912 0.39592 0.0
H64 H 0.47895 0.86416 0.41221 0.0
H65 H 0.38579 0.98047 0.37174 0.0
O66 O 0.42921 0.7647 0.2998 0.0
C67 C 0.40042 0.90978 0.31308 0.0
Co68 Co 0.66861 0.92917 0.56069 0.0
Co69 Co 0.60884 0.90862 0.60344 0.0
C70 C 0.67893 0.8435 0.58722 0.0
O71 O 0.69048 0.87003 0.57112 0.0
O72 O 0.64741 0.85401 0.60101 0.0
C73 C 0.75328 0.94533 0.54182 0.0
O74 O 0.76473 0.93959 0.56345 0.0
C75 C 0.59281 0.89396 0.65214 0.0
C76 C 0.52132 0.91386 0.65573 0.0
C77 C 0.55906 0.90095 0.66827 0.0
N78 N 0.57609 0.90364 0.63126 0.0
N79 N 0.53301 0.91435 0.63341 0.0
C80 C 0.64024 0.87818 0.65623 0.0
H81 H 0.64795 0.84973 0.64457 0.0
H82 H 0.66423 0.90589 0.65217 0.0
H83 H 0.64526 0.86643 0.67417 0.0
C84 C 0.68462 0.01399 0.58595 0.0
N85 N 0.66745 0.97197 0.58456 0.0
N86 N 0.64339 0.96331 0.60309 0.0
C87 C 0.64527 -0.00035 0.61708 0.0
C88 C 0.67166 0.03253 0.60666 0.0
C89 C 0.71066 0.03708 0.56722 0.0
H90 H 0.69754 0.02683 0.55019 0.0
H91 H 0.74669 0.02726 0.56852 0.0
H92 H 0.70883 0.0744 0.56867 0.0
O93 O 0.60802 0.92251 0.54744 0.0
O94 O 0.56437 0.91027 0.57795 0.0
H95 H 0.58327 0.99501 0.63587 0.0
H96 H 0.62009 0.04016 0.64519 0.0
C97 C 0.61891 0.00484 0.63882 0.0
H98 H 0.63325 0.98228 0.65218 0.0
H99 H 0.51225 0.92417 0.61979 0.0
O100 O 0.71167 0.94571 0.5365 0.0
C101 C 0.56939 0.91555 0.55638 0.0
Co102 Co 0.56116 0.17787 0.81814 0.0
Co103 Co 0.57361 0.10737 0.85759 0.0
C104 C 0.64609 0.17344 0.84515 0.0
O105 O 0.62232 0.1901 0.8291 0.0
O106 O 0.63123 0.14153 0.85774 0.0
C107 C 0.57656 0.2237 0.77865 0.0
O108 O 0.60541 0.18995 0.77802 0.0
C109 C 0.58079 0.08258 0.90561 0.0
C110 C 0.57418 0.00821 0.90485 0.0
C111 C 0.57954 0.04446 0.91971 0.0
N112 N 0.57609 0.06925 0.88375 0.0
N113 N 0.57299 0.02473 0.8833 0.0
C114 C 0.58322 0.13134 0.9124 0.0
H115 H 0.57489 0.15366 0.89764 0.0
H116 H 0.55973 0.13834 0.9268 0.0
H117 H 0.61809 0.13936 0.91804 0.0
C118 C 0.48095 0.20124 0.84459 0.0
N119 N 0.51964 0.17814 0.84229 0.0
N120 N 0.52258 0.14717 0.85855 0.0
C121 C 0.48491 0.14928 0.87158 0.0
C122 C 0.45778 0.18389 0.86322 0.0
C123 C 0.46508 0.23677 0.82808 0.0
H124 H 0.49225 0.26209 0.82545 0.0
H125 H 0.43422 0.25405 0.83436 0.0
H126 H 0.45787 0.22084 0.81125 0.0
O127 O 0.55837 0.11917 0.80261 0.0
O128 O 0.56953 0.06823 0.83015 0.0
H129 H 0.43512 0.11265 0.89128 0.0
H130 H 0.48561 0.12733 0.90655 0.0
C131 C 0.47237 0.11569 0.88978 0.0
H132 H 0.48705 0.08212 0.88587 0.0
H133 H 0.56894 0.00577 0.86836 0.0
O134 O 0.54906 0.2257 0.79532 0.0
C135 C 0.56238 0.07828 0.80918 0.0
Co136 Co 0.78607 0.43302 0.65921 0.0
Co137 Co 0.86226 0.41157 0.62388 0.0
C138 C 0.78989 0.34435 0.63526 0.0
O139 O 0.77207 0.3713 0.64949 0.0
O140 O 0.82481 0.3557 0.62392 0.0
C141 C 0.69521 0.43985 0.67142 0.0
O142 O 0.6908 0.42833 0.64975 0.0
C143 C 0.8913 0.39999 0.57696 0.0
C144 C 0.96542 0.40656 0.57909 0.0
C145 C 0.93016 0.40159 0.56353 0.0
N146 N 0.90321 0.4045 0.59907 0.0
N147 N 0.94762 0.4073 0.60036 0.0
C148 C 0.84303 0.39874 0.56921 0.0
H149 H 0.81988 0.40654 0.58361 0.0
H150 H 0.83724 0.42315 0.55499 0.0
H151 H 0.83496 0.36431 0.56291 0.0
C152 C 0.77339 0.51206 0.62907 0.0
N153 N 0.79304 0.4722 0.63398 0.0
N154 N 0.82677 0.46524 0.61967 0.0
C155 C 0.83028 0.50147 0.60554 0.0
C156 C 0.79591 0.53149 0.61076 0.0
C157 C 0.73748 0.53373 0.64341 0.0
H158 H 0.74546 0.52924 0.66189 0.0
H159 H 0.70467 0.51712 0.63985 0.0
H160 H 0.73409 0.57037 0.63956 0.0
O161 O 0.84187 0.43313 0.67778 0.0
O162 O 0.89654 0.41631 0.65306 0.0
H163 H 0.89969 0.49378 0.59539 0.0
H164 H 0.87391 0.54644 0.58646 0.0
C165 C 0.86817 0.50968 0.58903 0.0
H166 H 0.85936 0.49503 0.57213 0.0
H167 H 0.96555 0.41185 0.61561 0.0
O168 O 0.73446 0.44902 0.67894 0.0
C169 C 0.88339 0.42583 0.67332 0.0
Co170 Co 0.06263 0.29921 0.92122 0.0
Co171 Co 0.07327 0.36799 0.8807 0.0
C172 C 0.14568 0.30131 0.89251 0.0
O173 O 0.12205 0.28516 0.90872 0.0
O174 O 0.13126 0.33389 0.88019 0.0
C175 C 0.05911 0.21122 0.93989 0.0
O176 O 0.06619 0.2 0.91838 0.0
C177 C 0.07609 0.39032 0.83203 0.0
C178 C 0.05256 0.46116 0.83162 0.0
C179 C 0.06341 0.42528 0.81737 0.0
N180 N 0.07137 0.40449 0.85378 0.0
N181 N 0.05848 0.44725 0.85345 0.0
C182 C 0.09241 0.34402 0.82575 0.0
H183 H 0.12257 0.33538 0.83615 0.0
H184 H 0.06597 0.31867 0.82981 0.0
H185 H 0.10146 0.34201 0.80729 0.0
C186 C 0.97948 0.27593 0.8962 0.0
N187 N 0.01857 0.29875 0.89811 0.0
N188 N 0.02166 0.32862 0.88131 0.0
C189 C 0.98378 0.32613 0.86842 0.0
C190 C 0.95664 0.29212 0.87722 0.0
C191 C 0.96187 0.24285 0.91354 0.0
H192 H 0.97052 0.25417 0.93113 0.0
H193 H 0.9776 0.20938 0.91053 0.0
H194 H 0.92468 0.23894 0.91216 0.0
O195 O 0.06317 0.3587 0.93617 0.0
O196 O 0.07175 0.40842 0.90778 0.0
H197 H 0.98167 0.39266 0.85362 0.0
H198 H 0.93523 0.35666 0.84527 0.0
C199 C 0.97189 0.35762 0.84916 0.0
H200 H 0.99028 0.34734 0.8335 0.0
H201 H 0.0513 0.46612 0.86811 0.0
O202 O 0.05312 0.25257 0.9449 0.0
C203 C 0.06695 0.39931 0.92904 0.0
Co204 Co 0.1963 0.55678 0.17181 0.0
Co205 Co 0.13079 0.57851 0.13139 0.0
C206 C 0.2008 0.64479 0.147 0.0
O207 O 0.2151 0.61767 0.16229 0.0
O208 O 0.16813 0.63401 0.13394 0.0
C209 C 0.28253 0.54357 0.19099 0.0
O210 O 0.29521 0.55313 0.1699 0.0
C211 C 0.11179 0.5926 0.08296 0.0
C212 C 0.03962 0.57457 0.0806 0.0
C213 C 0.07698 0.58567 0.06735 0.0
N214 N 0.096 0.58442 0.10418 0.0
N215 N 0.05253 0.57491 0.10276 0.0
C216 C 0.15947 0.60659 0.07807 0.0
H217 H 0.16974 0.63358 0.09013 0.0
H218 H 0.18244 0.57745 0.08088 0.0
H219 H 0.16323 0.61948 0.06025 0.0
C220 C 0.21413 0.47575 0.14404 0.0
N221 N 0.19505 0.51659 0.14693 0.0
N222 N 0.16684 0.5247 0.12989 0.0
C223 C 0.167 0.48868 0.11565 0.0
C224 C 0.1975 0.45717 0.12403 0.0
C225 C 0.24385 0.45271 0.16131 0.0
H226 H 0.23112 0.45905 0.17891 0.0
H227 H 0.27852 0.46655 0.15991 0.0
H228 H 0.24557 0.41569 0.15837 0.0
O229 O 0.13628 0.55853 0.18632 0.0
O230 O 0.08882 0.5742 0.15782 0.0
H231 H 0.10093 0.49334 0.10073 0.0
H232 H 0.13412 0.44612 0.09056 0.0
C233 C 0.13532 0.48208 0.09592 0.0
H234 H 0.14698 0.50255 0.08111 0.0
H235 H 0.03233 0.5662 0.11677 0.0
O236 O 0.24068 0.53953 0.19532 0.0
C237 C 0.09638 0.56556 0.17893 0.0
Co238 Co 0.91063 0.68373 0.41813 0.0
Co239 Co 0.8923 0.6195 0.37685 0.0
C240 C 0.82546 0.69012 0.39109 0.0
O241 O 0.85164 0.70321 0.40694 0.0
O242 O 0.83654 0.65759 0.378 0.0
C243 C 0.92405 0.77052 0.43502 0.0
O244 O 0.91824 0.78007 0.41315 0.0
C245 C 0.88365 0.60073 0.32808 0.0
C246 C 0.90401 0.52906 0.32621 0.0
C247 C 0.89377 0.56641 0.31266 0.0
N248 N 0.88941 0.58477 0.34951 0.0
N249 N 0.90025 0.54153 0.34833 0.0
C250 C 0.86901 0.64818 0.32284 0.0
H251 H 0.8401 0.65734 0.33396 0.0
H252 H 0.8969 0.67198 0.32676 0.0
H253 H 0.85859 0.65199 0.30463 0.0
C254 C 0.9952 0.70008 0.39282 0.0
N255 N 0.95377 0.6817 0.39449 0.0
N256 N 0.94663 0.65495 0.3768 0.0
C257 C 0.98379 0.65568 0.36329 0.0
C258 C 0.01507 0.68481 0.37289 0.0
C259 C 0.01729 0.72828 0.41096 0.0
H260 H 0.00703 0.71641 0.42826 0.0
H261 H 0.00675 0.764 0.40875 0.0
H262 H 0.05464 0.72696 0.40961 0.0
O263 O 0.90513 0.62406 0.4328 0.0
O264 O 0.89428 0.57704 0.4035 0.0
H265 H 0.98012 0.59098 0.34691 0.0
H266 H 0.02777 0.62506 0.33811 0.0
C267 C 0.99155 0.62582 0.34299 0.0
H268 H 0.97202 0.63891 0.32819 0.0
H269 H 0.90782 0.52133 0.36255 0.0
O270 O 0.92548 0.72934 0.44129 0.0
C271 C 0.89917 0.58438 0.42493 0.0
C272 C 0.2102 0.06406 0.01443 0.0
C273 C 0.19552 0.05143 0.03642 0.0
C274 C 0.17999 0.08219 -0.00162 0.0
C275 C 0.13378 0.08638 0.00425 0.0
C276 C 0.11793 0.06852 0.02533 0.0
C277 C 0.1492 0.05186 0.0414 0.0
C278 C 0.19845 0.10118 0.97614 0.0
C279 C 0.06858 0.07025 0.03167 0.0
C280 C 0.08463 0.19344 0.97951 0.0
C281 C 0.06828 0.17818 0.95833 0.0
C282 C 0.10353 0.16325 -0.00463 0.0
C283 C 0.10465 0.11648 0.9902 0.0
C284 C 0.0838 0.1004 0.96994 0.0
C285 C 0.06657 0.13163 0.95396 0.0
C286 C 0.12597 0.182 0.01664 0.0
C287 C 0.08233 0.05063 0.96438 0.0
H288 H 0.24592 0.06348 0.0104 0.0
H289 H 0.1376 0.04133 0.05825 0.0
H290 H 0.17862 0.08871 0.96132 0.0
H291 H 0.19561 0.13862 0.97628 0.0
H292 H 0.23446 0.0921 0.97345 0.0
H293 H 0.06036 0.04542 0.04542 0.0
H294 H 0.06013 0.10451 0.03807 0.0
H295 H 0.04693 0.06345 0.01651 0.0
H296 H 0.08595 0.22942 0.98298 0.0
H297 H 0.05332 0.11971 0.9377 0.0
H298 H 0.16296 0.17618 0.0157 0.0
H299 H 0.1134 0.1644 0.03221 0.0
H300 H 0.11999 0.21886 0.01868 0.0
H301 H 0.11502 0.04023 0.95677 0.0
H302 H 0.05521 0.04291 0.9518 0.0
H303 H 0.07684 0.03003 0.98011 0.0
C304 C 0.36114 0.55184 0.20599 0.0
C305 C 0.31453 0.54992 0.21012 0.0
C306 C 0.39058 0.56982 0.22251 0.0
C307 C 0.37249 0.58765 0.24304 0.0
C308 C 0.32621 0.58123 0.24824 0.0
C309 C 0.29792 0.56165 0.23182 0.0
C310 C 0.44025 0.57332 0.21707 0.0
C311 C 0.30538 0.59981 0.26995 0.0
C312 C 0.4304 0.64239 0.29351 0.0
C313 C 0.42488 0.68818 0.28783 0.0
C314 C 0.41823 0.60845 0.27789 0.0
C315 C 0.39851 0.62092 0.25665 0.0
C316 C 0.39649 0.66711 0.25015 0.0
C317 C 0.41048 0.70015 0.26572 0.0
C318 C 0.42343 0.55956 0.28491 0.0
C319 C 0.3753 0.68208 0.22773 0.0
H320 H 0.3743 0.54176 0.18941 0.0
H321 H 0.262 0.55963 0.23526 0.0
H322 H 0.44751 0.60706 0.20954 0.0
H323 H 0.46103 0.5695 0.23283 0.0
H324 H 0.45065 0.54729 0.20442 0.0
H325 H 0.26966 0.5891 0.27211 0.0
H326 H 0.32474 0.58856 0.28522 0.0
H327 H 0.30646 0.63734 0.26948 0.0
H328 H 0.44239 0.63304 0.31047 0.0
H329 H 0.40647 0.73552 0.26119 0.0
H330 H 0.42944 0.53756 0.26981 0.0
H331 H 0.3921 0.54792 0.29352 0.0
H332 H 0.45176 0.55526 0.29724 0.0
H333 H 0.39129 0.66444 0.21308 0.0
H334 H 0.3784 0.71911 0.22485 0.0
H335 H 0.33888 0.67314 0.22768 0.0
C336 C 0.90267 0.79447 0.4743 0.0
C337 C 0.91786 0.80621 0.4523 0.0
C338 C 0.88445 0.82717 0.48887 0.0
C339 C 0.88283 0.87285 0.48147 0.0
C340 C 0.9035 0.88565 0.46055 0.0
C341 C 0.92019 0.85194 0.44595 0.0
C342 C 0.86256 0.81193 0.51105 0.0
C343 C 0.90466 0.9343 0.45267 0.0
C344 C 0.77438 0.92389 0.50211 0.0
C345 C 0.78756 0.93973 0.52374 0.0
C346 C 0.80612 0.9055 0.48704 0.0
C347 C 0.85221 0.90437 0.49355 0.0
C348 C 0.86634 0.926 0.51394 0.0
C349 C 0.83364 0.94285 0.52907 0.0
C350 C 0.78949 0.88268 0.46543 0.0
C351 C 0.91544 0.92775 0.52079 0.0
H352 H 0.90123 0.75919 0.47939 0.0
H353 H 0.93283 0.86122 0.42911 0.0
H354 H 0.87471 0.83263 0.52563 0.0
H355 H 0.82543 0.81657 0.50984 0.0
H356 H 0.86948 0.77578 0.51498 0.0
H357 H 0.93275 0.94026 0.44039 0.0
H358 H 0.87256 0.94263 0.44378 0.0
H359 H 0.90842 0.95768 0.46741 0.0
H360 H 0.73882 0.9219 0.49778 0.0
H361 H 0.84401 0.95605 0.5456 0.0
H362 H 0.79395 0.84552 0.46709 0.0
H363 H 0.8094 0.89398 0.45036 0.0
H364 H 0.75324 0.88969 0.462 0.0
H365 H 0.92485 0.89568 0.5295 0.0
H366 H 0.92202 0.95595 0.5329 0.0
H367 H 0.93755 0.93181 0.50554 0.0
C368 C 0.6208 0.40459 0.68044 0.0
C369 C 0.6592 0.42806 0.68798 0.0
C370 C 0.59507 0.37879 0.69588 0.0
C371 C 0.60826 0.37672 0.71921 0.0
C372 C 0.64225 0.40618 0.7274 0.0
C373 C 0.66739 0.4317 0.71162 0.0
C374 C 0.55809 0.34889 0.68661 0.0
C375 C 0.65632 0.40612 0.75232 0.0
C376 C 0.5521 0.29911 0.76297 0.0
C377 C 0.58061 0.26123 0.76196 0.0
C378 C 0.55929 0.33667 0.74854 0.0
C379 C 0.59621 0.33634 0.73312 0.0
C380 C 0.62407 0.29751 0.73156 0.0
C381 C 0.6157 0.26043 0.74586 0.0
C382 C 0.52858 0.37717 0.75056 0.0
C383 C 0.6643 0.2958 0.71558 0.0
H384 H 0.6134 0.40258 0.66224 0.0
H385 H 0.6962 0.4509 0.71767 0.0
H386 H 0.57181 0.31444 0.68373 0.0
H387 H 0.52979 0.346 0.69901 0.0
H388 H 0.54483 0.36188 0.66999 0.0
H389 H 0.67641 0.43663 0.7567 0.0
H390 H 0.62642 0.40449 0.76374 0.0
H391 H 0.67736 0.37579 0.75582 0.0
H392 H 0.52483 0.2999 0.77538 0.0
H393 H 0.63787 0.23133 0.74493 0.0
H394 H 0.52215 0.39292 0.73355 0.0
H395 H 0.54497 0.40293 0.76158 0.0
H396 H 0.49573 0.36797 0.75851 0.0
H397 H 0.65443 0.30607 0.69796 0.0
H398 H 0.6797 0.26158 0.71481 0.0
H399 H 0.69043 0.31995 0.72156 0.0
C400 C 0.59054 0.07619 0.95936 0.0
C401 C 0.5732 0.04252 0.94493 0.0
C402 C 0.5744 0.08106 0.98186 0.0
C403 C 0.54156 0.05044 0.99019 0.0
C404 C 0.5293 0.01245 0.97687 0.0
C405 C 0.54508 0.00908 0.9543 0.0
C406 C 0.58902 0.12151 -0.00428 0.0
C407 C 0.49569 0.97796 0.98551 0.0
C408 C 0.49261 0.05284 0.05036 0.0
C409 C 0.45068 0.07309 0.04599 0.0
C410 C 0.52407 0.04697 0.03257 0.0
C411 C 0.51329 0.06256 0.01021 0.0
C412 C 0.47229 0.08602 0.00625 0.0
C413 C 0.44124 0.09047 0.02415 0.0
C414 C 0.56713 0.02137 0.03742 0.0
C415 C 0.45998 0.10422 0.98276 0.0
H416 H 0.61487 0.10023 0.95282 0.0
H417 H 0.53251 0.98205 0.94352 0.0
H418 H 0.56234 0.14782 -0.00521 0.0
H419 H 0.59365 0.11238 0.01406 0.0
H420 H 0.62094 0.13634 0.98908 0.0
H421 H 0.49595 0.94673 0.97496 0.0
H422 H 0.50291 0.96871 0.00363 0.0
H423 H 0.46123 0.99266 0.98486 0.0
H424 H 0.49974 0.03925 0.0673 0.0
H425 H 0.40897 0.10665 0.02091 0.0
H426 H 0.59599 0.03577 0.02773 0.0
H427 H 0.56291 0.98575 0.03189 0.0
H428 H 0.57547 0.02136 0.05603 0.0
H429 H 0.48819 0.12453 0.9756 0.0
H430 H 0.42918 0.12567 0.98318 0.0
H431 H 0.45378 0.07566 0.97085 0.0
C432 C 0.42157 0.98864 0.30223 0.0
C433 C 0.40249 0.94691 0.29626 0.0
C434 C 0.42963 0.02185 0.28543 0.0
C435 C 0.41742 0.01313 0.26237 0.0
C436 C 0.39535 0.97217 0.25664 0.0
C437 C 0.38871 0.93931 0.27362 0.0
C438 C 0.45385 0.06472 0.29214 0.0
C439 C 0.38071 0.96205 0.23231 0.0
C440 C 0.40833 0.09656 0.2136 0.0
C441 C 0.44386 0.08151 0.19968 0.0
C442 C 0.40109 0.07743 0.23536 0.0
C443 C 0.43128 0.04402 0.24356 0.0
C444 C 0.47103 0.03417 0.23108 0.0
C445 C 0.47672 0.05286 0.20916 0.0
C446 C 0.35869 0.08944 0.24834 0.0
C447 C 0.50508 0.0001 0.23972 0.0
H448 H 0.43246 0.99437 0.31976 0.0
H449 H 0.37349 0.90718 0.26911 0.0
H450 H 0.48999 0.06181 0.28735 0.0
H451 H 0.43985 0.0945 0.28295 0.0
H452 H 0.45188 0.07082 0.31094 0.0
H453 H 0.35996 0.93082 0.23123 0.0
H454 H 0.36085 0.99067 0.22518 0.0
H455 H 0.41092 0.95767 0.22127 0.0
H456 H 0.38451 0.12111 0.207 0.0
H457 H 0.5051 0.04201 0.1988 0.0
H458 H 0.36536 0.0919 0.26704 0.0
H459 H 0.33325 0.06235 0.24579 0.0
H460 H 0.34396 0.12188 0.24222 0.0
H461 H 0.51179 0.005 0.25829 0.0
H462 H 0.53754 0.00243 0.23023 0.0
H463 H 0.49135 0.96547 0.23748 0.0
C464 C 0.41162 0.97953 0.45711 0.0
C465 C 0.38532 0.94409 0.4484 0.0
C466 C 0.43096 0.97646 0.47899 0.0
C467 C 0.42415 0.9368 0.49219 0.0
C468 C 0.39219 0.90432 0.48495 0.0
C469 C 0.37241 0.90883 0.46316 0.0
C470 C 0.46322 0.01297 0.48662 0.0
C471 C 0.3829 0.86224 0.49889 0.0
C472 C 0.53443 0.90042 0.51856 0.0
C473 C 0.52967 0.91515 0.54122 0.0
C474 C 0.49891 0.90456 0.5029 0.0
C475 C 0.45792 0.92489 0.50999 0.0
C476 C 0.45202 0.93771 0.53319 0.0
C477 C 0.48807 0.93234 0.54866 0.0
C478 C 0.50626 0.88937 0.4784 0.0
C479 C 0.40906 0.95978 0.5414 0.0
H480 H 0.42055 0.00786 0.44616 0.0
H481 H 0.34931 0.88308 0.45723 0.0
H482 H 0.45908 0.02007 0.50519 0.0
H483 H 0.49845 0.00137 0.48386 0.0
H484 H 0.45819 0.04488 0.47681 0.0
H485 H 0.35053 0.84613 0.49381 0.0
H486 H 0.41052 0.83752 0.49602 0.0
H487 H 0.3819 0.86988 0.51752 0.0
H488 H 0.56643 0.88648 0.51293 0.0
H489 H 0.48445 0.94382 0.56623 0.0
H490 H 0.50721 0.91929 0.46685 0.0
H491 H 0.47798 0.86751 0.4727 0.0
H492 H 0.53835 0.87036 0.47631 0.0
H493 H 0.41045 0.99648 0.53743 0.0
H494 H 0.40483 0.95585 0.56027 0.0
H495 H 0.37895 0.94565 0.53266 0.0
C496 C 0.54264 0.05276 0.76987 0.0
C497 C 0.55893 0.04219 0.79184 0.0
C498 C 0.5419 0.02037 0.7525 0.0
C499 C 0.55805 0.97622 0.75716 0.0
C500 C 0.57265 0.96457 0.77955 0.0
C501 C 0.57288 0.99781 0.79673 0.0
C502 C 0.5257 0.03416 0.72884 0.0
C503 C 0.58996 0.91778 0.78509 0.0
C504 C 0.52704 0.90076 0.70778 0.0
C505 C 0.56394 0.9083 0.69321 0.0
C506 C 0.52649 0.91853 0.73008 0.0
C507 C 0.56361 0.94458 0.73773 0.0
C508 C 0.60271 0.94832 0.72393 0.0
C509 C 0.60215 0.93069 0.7017 0.0
C510 C 0.48437 0.91346 0.74442 0.0
C511 C 0.64313 0.97569 0.73147 0.0
H512 H 0.53113 0.08678 0.76605 0.0
H513 H 0.58529 0.98938 0.81373 0.0
H514 H 0.55425 0.03284 0.71652 0.0
H515 H 0.49945 0.01036 0.72268 0.0
H516 H 0.51145 0.06892 0.72853 0.0
H517 H 0.59278 0.91199 0.8039 0.0
H518 H 0.56751 0.89159 0.77766 0.0
H519 H 0.62387 0.91329 0.77734 0.0
H520 H 0.49741 0.88355 0.70122 0.0
H521 H 0.63019 0.93827 0.69043 0.0
H522 H 0.46393 0.9448 0.74302 0.0
H523 H 0.4929 0.90846 0.76281 0.0
H524 H 0.46331 0.88463 0.73855 0.0
H525 H 0.63519 0.01225 0.72986 0.0
H526 H 0.67338 0.96846 0.72082 0.0
H527 H 0.65146 0.96875 0.74972 0.0
C528 C 0.02862 0.38429 0.78438 0.0
C529 C 0.05054 0.42281 0.79286 0.0
C530 C 0.00802 0.38459 0.76275 0.0
C531 C 0.00869 0.42466 0.7494 0.0
C532 C 0.03307 0.4628 0.75721 0.0
C533 C 0.05356 0.46148 0.77895 0.0
C534 C 0.98224 0.34321 0.75509 0.0
C535 C 0.03465 0.50608 0.74342 0.0
C536 C 0.96193 0.4157 0.68882 0.0
C537 C 0.91666 0.42804 0.69228 0.0
C538 C 0.99292 0.41578 0.7071 0.0
C539 C 0.9782 0.42855 0.72926 0.0
C540 C 0.93294 0.44232 0.73268 0.0
C541 C 0.90278 0.44186 0.71418 0.0
C542 C 0.04096 0.40094 0.70287 0.0
C543 C 0.91593 0.4563 0.75608 0.0
H544 H 0.02455 0.35478 0.79521 0.0
H545 H 0.07021 0.49142 0.78552 0.0
H546 H 0.94544 0.34989 0.75635 0.0
H547 H 0.98983 0.33529 0.7369 0.0
H548 H 0.99024 0.31306 0.76579 0.0
H549 H 0.06076 0.52976 0.74996 0.0
H550 H 0.04161 0.49893 0.72507 0.0
H551 H 0.00133 0.52314 0.74432 0.0
H552 H 0.97301 0.40514 0.67193 0.0
H553 H 0.86801 0.45185 0.71703 0.0
H554 H 0.04749 0.36867 0.71209 0.0
H555 H 0.06496 0.42633 0.70974 0.0
H556 H 0.04807 0.39588 0.68432 0.0
H557 H 0.91812 0.42725 0.76816 0.0
H558 H 0.88036 0.46821 0.75558 0.0
H559 H 0.93731 0.48376 0.76311 0.0
C560 C 0.05218 0.42689 0.9686 0.0
C561 C 0.06601 0.43622 0.94607 0.0
C562 C 0.05357 0.46017 0.98554 0.0
C563 C 0.06938 0.50399 0.97987 0.0
C564 C 0.08177 0.51432 0.95698 0.0
C565 C 0.07987 0.48021 0.94026 0.0
C566 C 0.03971 0.44778 0.00976 0.0
C567 C 0.09876 0.56067 0.95036 0.0
C568 C 0.04213 0.58301 0.02844 0.0
C569 C 0.08014 0.57663 0.04244 0.0
C570 C 0.03984 0.56353 0.00653 0.0
C571 C 0.07638 0.53695 -0.00135 0.0
C572 C 0.11656 0.53437 0.01173 0.0
C573 C 0.11775 0.55375 0.03359 0.0
C574 C 0.99659 0.56746 -0.00704 0.0
C575 C 0.15645 0.50657 0.0039 0.0
H576 H 0.04081 0.39319 0.97317 0.0
H577 H 0.09046 0.48769 0.92284 0.0
H578 H 0.06936 0.44999 0.02137 0.0
H579 H 0.01394 0.47187 0.01615 0.0
H580 H 0.02567 0.41301 0.01096 0.0
H581 H 0.10027 0.56528 0.93143 0.0
H582 H 0.0769 0.58738 0.95775 0.0
H583 H 0.1332 0.56558 0.95745 0.0
H584 H 0.01297 0.60066 0.03522 0.0
H585 H 0.14677 0.54715 0.04435 0.0
H586 H 0.97651 0.53608 -0.00474 0.0
H587 H 0.00365 0.57136 0.97435 0.0
H588 H 0.9758 0.59651 -0.00123 0.0
H589 H 0.14884 0.47013 0.00643 0.0
H590 H 0.18753 0.51475 0.01374 0.0
H591 H 0.16318 0.51205 0.98537 0.0
C592 C 0.0663 0.54973 0.21808 0.0
C593 C 0.05839 0.56377 0.19541 0.0
C594 C 0.03166 0.5497 0.23438 0.0
C595 C 0.98788 0.56415 0.2279 0.0
C596 C 0.97912 0.57698 0.20489 0.0
C597 C 0.01457 0.57663 0.18885 0.0
C598 C 0.04242 0.53557 0.25877 0.0
C599 C 0.93281 0.5925 0.19742 0.0
C600 C 0.90408 0.53234 0.27394 0.0
C601 C 0.90668 0.57038 0.28818 0.0
C602 C 0.92684 0.53126 0.25281 0.0
C603 C 0.95293 0.56906 0.24595 0.0
C604 C 0.95214 0.60901 0.25921 0.0
C605 C 0.92942 0.60903 0.28027 0.0
C606 C 0.92653 0.48816 0.23902 0.0
C607 C 0.97943 0.65015 0.2525 0.0
H608 H 0.09988 0.53926 0.22327 0.0
H609 H 0.00811 0.58733 0.17133 0.0
H610 H 0.03784 0.56475 0.27047 0.0
H611 H 0.01895 0.50855 0.26447 0.0
H612 H 0.07758 0.52299 0.26066 0.0
H613 H 0.93018 0.59599 0.17846 0.0
H614 H 0.90661 0.56842 0.20346 0.0
H615 H 0.92527 0.62576 0.20529 0.0
H616 H 0.88661 0.50235 0.27999 0.0
H617 H 0.93311 0.63816 0.29124 0.0
H618 H 0.95849 0.4695 0.2421 0.0
H619 H 0.92438 0.49556 0.22036 0.0
H620 H 0.89794 0.46581 0.24394 0.0
H621 H 0.0157 0.6436 0.25601 0.0
H622 H 0.9691 0.68061 0.2623 0.0
H623 H 0.97591 0.65746 0.23389 0.0
C624 C 0.92158 0.50566 0.43575 0.0
C625 C 0.89982 0.54629 0.44126 0.0
C626 C 0.92847 0.47217 0.4526 0.0
C627 C 0.91237 0.47948 0.47518 0.0
C628 C 0.88755 0.51917 0.48026 0.0
C629 C 0.88212 0.55232 0.4633 0.0
C630 C 0.95556 0.43067 0.44657 0.0
C631 C 0.86874 0.52781 0.50398 0.0
C632 C 0.90034 0.39456 0.52322 0.0
C633 C 0.93309 0.41084 0.53851 0.0
C634 C 0.89534 0.41382 0.5013 0.0
C635 C 0.92497 0.44879 0.49436 0.0
C636 C 0.96225 0.46025 0.50839 0.0
C637 C 0.96571 0.44132 0.5304 0.0
C638 C 0.85561 0.40004 0.48668 0.0
C639 C 0.99573 0.49613 0.50123 0.0
H640 H 0.93548 0.50117 0.41869 0.0
H641 H 0.86484 0.5836 0.46743 0.0
H642 H 0.99077 0.43514 0.45269 0.0
H643 H 0.94176 0.40003 0.45508 0.0
H644 H 0.95647 0.425 0.42773 0.0
H645 H 0.84638 0.55796 0.5044 0.0
H646 H 0.84929 0.49805 0.5101 0.0
H647 H 0.89691 0.53329 0.51623 0.0
H648 H 0.87687 0.36875 0.52878 0.0
H649 H 0.99201 0.45325 0.54184 0.0
H650 H 0.86511 0.39834 0.46828 0.0
H651 H 0.82853 0.42578 0.48834 0.0
H652 H 0.84167 0.36678 0.49208 0.0
H653 H 0.00545 0.49188 0.48296 0.0
H654 H 0.02674 0.49526 0.51197 0.0
H655 H 0.97996 0.52999 0.503 0.0
C656 C 0.20532 0.72158 0.12895 0.0
C657 C 0.22248 0.68968 0.14455 0.0
C658 C 0.2253 0.76432 0.12662 0.0
C659 C 0.26353 0.77535 0.14011 0.0
C660 C 0.28115 0.74335 0.15585 0.0
C661 C 0.26035 0.70091 0.15792 0.0
C662 C 0.20546 0.7977 0.10968 0.0
C663 C 0.322 0.75389 0.17042 0.0
C664 C 0.33252 0.87119 0.11503 0.0
C665 C 0.31515 0.90813 0.12704 0.0
C666 C 0.31801 0.82717 0.1201 0.0
C667 C 0.28507 0.82039 0.13739 0.0
C668 C 0.26945 0.85759 0.15044 0.0
C669 C 0.28482 0.90124 0.14508 0.0
C670 C 0.33581 0.78834 0.10598 0.0
C671 C 0.23432 0.85172 0.16899 0.0
H672 H 0.17608 0.71326 0.11858 0.0
H673 H 0.27394 0.67646 0.17001 0.0
H674 H 0.19556 0.82917 0.1187 0.0
H675 H 0.23114 0.80707 0.09664 0.0
H676 H 0.17535 0.78401 0.10069 0.0
H677 H 0.33177 0.72508 0.18168 0.0
H678 H 0.3511 0.76263 0.15926 0.0
H679 H 0.3151 0.78374 0.18136 0.0
H680 H 0.35587 0.87705 0.10099 0.0
H681 H 0.27135 0.93022 0.15415 0.0
H682 H 0.30864 0.77556 0.09459 0.0
H683 H 0.34633 0.75996 0.11729 0.0
H684 H 0.36498 0.79852 0.09514 0.0
H685 H 0.20152 0.84257 0.16103 0.0
H686 H 0.22957 0.88303 0.17919 0.0
H687 H 0.24387 0.82377 0.18078 0.0
C688 C 0.76787 0.74612 0.4043 0.0
C689 C 0.78104 0.7127 0.38855 0.0
C690 C 0.72542 0.76688 0.40285 0.0
C691 C 0.69541 0.75414 0.38513 0.0
C692 C 0.70866 0.72106 0.36893 0.0
C693 C 0.75131 0.70063 0.37086 0.0
C694 C 0.71245 0.80194 0.42046 0.0
C695 C 0.67754 0.70685 0.3497 0.0
C696 C 0.56888 0.76913 0.39094 0.0
C697 C 0.56139 0.80644 0.37665 0.0
C698 C 0.61276 0.75298 0.39477 0.0
C699 C 0.64964 0.77454 0.38378 0.0
C700 C 0.64221 0.81375 0.37023 0.0
C701 C 0.59793 0.82923 0.36679 0.0
C702 C 0.61935 0.71134 0.40949 0.0
C703 C 0.68064 0.83766 0.35826 0.0
H704 H 0.79057 0.7558 0.41805 0.0
H705 H 0.76122 0.67502 0.35858 0.0
H706 H 0.70333 0.83415 0.41179 0.0
H707 H 0.68225 0.79042 0.43011 0.0
H708 H 0.74007 0.80869 0.4329 0.0
H709 H 0.69345 0.68169 0.33812 0.0
H710 H 0.64625 0.69191 0.35695 0.0
H711 H 0.66743 0.73679 0.33936 0.0
H712 H 0.54019 0.7513 0.39819 0.0
H713 H 0.5916 0.85764 0.3554 0.0
H714 H 0.64609 0.71727 0.42249 0.0
H715 H 0.63062 0.6828 0.39858 0.0
H716 H 0.58784 0.70118 0.41847 0.0
H717 H 0.7084 0.84471 0.37053 0.0
H718 H 0.66975 0.87004 0.35024 0.0
H719 H 0.69454 0.81552 0.34464 0.0
C720 C 0.66164 0.11552 0.60355 0.0
C721 C 0.68156 0.07853 0.61462 0.0
C722 C 0.6763 0.15961 0.60812 0.0
C723 C 0.71178 0.16645 0.62403 0.0
C724 C 0.7301 0.12919 0.63623 0.0
C725 C 0.71471 0.08541 0.63132 0.0
C726 C 0.65496 0.19871 0.59539 0.0
C727 C 0.76709 0.13548 0.65377 0.0
C728 C 0.78651 0.26929 0.61556 0.0
C729 C 0.76965 0.29898 0.63219 0.0
C730 C 0.7678 0.22609 0.61274 0.0
C731 C 0.73141 0.21225 0.6269 0.0
C732 C 0.71388 0.24221 0.64355 0.0
C733 C 0.73336 0.2851 0.64607 0.0
C734 C 0.78695 0.1952 0.59458 0.0
C735 C 0.67527 0.22911 0.65916 0.0
H736 H 0.63581 0.1097 0.59068 0.0
H737 H 0.72989 0.05643 0.6398 0.0
H738 H 0.64261 0.22429 0.6078 0.0
H739 H 0.68057 0.21545 0.58435 0.0
H740 H 0.62625 0.18784 0.58443 0.0
H741 H 0.77615 0.10331 0.66255 0.0
H742 H 0.79771 0.14922 0.64526 0.0
H743 H 0.75633 0.16039 0.66688 0.0
H744 H 0.81437 0.27976 0.60471 0.0
H745 H 0.72013 0.30765 0.65907 0.0
H746 H 0.76004 0.1855 0.58228 0.0
H747 H 0.79964 0.16363 0.60268 0.0
H748 H 0.81502 0.21121 0.58485 0.0
H749 H 0.65504 0.25921 0.66399 0.0
H750 H 0.68925 0.21405 0.67514 0.0
H751 H 0.65229 0.20401 0.65122 0.0
C752 C 0.37588 0.18297 0.85491 0.0
C753 C 0.41119 0.19479 0.86965 0.0
C754 C 0.33182 0.19792 0.85912 0.0
C755 C 0.3234 0.22591 0.87832 0.0
C756 C 0.35898 0.23682 0.89362 0.0
C757 C 0.40266 0.22079 0.88914 0.0
C758 C 0.29461 0.18496 0.84267 0.0
C759 C 0.35127 0.26686 0.91415 0.0
C760 C 0.22234 0.30438 0.87447 0.0
C761 C 0.19087 0.2818 0.88834 0.0
C762 C 0.26581 0.28668 0.87122 0.0
C763 C 0.27773 0.24519 0.88184 0.0
C764 C 0.24595 0.22194 0.89561 0.0
C765 C 0.20297 0.24064 0.89878 0.0
C766 C 0.29911 0.31254 0.85656 0.0
C767 C 0.25727 0.17728 0.90692 0.0
H768 H 0.38306 0.1629 0.83979 0.0
H769 H 0.43046 0.23 0.90031 0.0
H770 H 0.26581 0.16995 0.8522 0.0
H771 H 0.28186 0.21559 0.83371 0.0
H772 H 0.30622 0.16038 0.82955 0.0
H773 H 0.38208 0.27045 0.92489 0.0
H774 H 0.34057 0.30096 0.90827 0.0
H775 H 0.32368 0.25308 0.92499 0.0
H776 H 0.21325 0.33624 0.86643 0.0
H777 H 0.17873 0.22279 0.90942 0.0
H778 H 0.30997 0.29147 0.84184 0.0
H779 H 0.32976 0.3205 0.86676 0.0
H780 H 0.28474 0.34464 0.84979 0.0
H781 H 0.26683 0.15217 0.89367 0.0
H782 H 0.22861 0.16348 0.91707 0.0
H783 H 0.28674 0.18135 0.9185 0.0
C784 C 0.74951 0.58565 0.58863 0.0
C785 C 0.78814 0.5772 0.60173 0.0
C786 C 0.73574 0.63006 0.584 0.0
C787 C 0.76092 0.66653 0.59315 0.0
C788 C 0.80143 0.65797 0.60536 0.0
C789 C 0.81463 0.61313 0.60951 0.0
C790 C 0.69266 0.63784 0.57067 0.0
C791 C 0.82898 0.69594 0.61548 0.0
C792 C 0.73249 0.78495 0.57249 0.0
C793 C 0.70169 0.79912 0.58935 0.0
C794 C 0.75266 0.74209 0.57363 0.0
C795 C 0.74206 0.71295 0.59215 0.0
C796 C 0.7119 0.72742 0.6095 0.0
C797 C 0.69191 0.77026 0.60783 0.0
C798 C 0.78448 0.72764 0.55476 0.0
C799 C 0.70009 0.69731 0.62965 0.0
H800 H 0.72896 0.55746 0.58294 0.0
H801 H 0.84411 0.60611 0.62 0.0
H802 H 0.66606 0.65045 0.58243 0.0
H803 H 0.69784 0.66398 0.55721 0.0
H804 H 0.68024 0.6064 0.5624 0.0
H805 H 0.86223 0.68401 0.62195 0.0
H806 H 0.83466 0.72298 0.60255 0.0
H807 H 0.81017 0.71121 0.63 0.0
H808 H 0.7403 0.80702 0.55812 0.0
H809 H 0.66829 0.78093 0.62094 0.0
H810 H 0.77052 0.69765 0.54582 0.0
H811 H 0.81751 0.71753 0.56217 0.0
H812 H 0.79022 0.75487 0.54189 0.0
H813 H 0.68285 0.66635 0.62346 0.0
H814 H 0.67766 0.71444 0.6422 0.0
H815 H 0.73128 0.6864 0.63867 0.0
C816 C 0.71306 0.2174 0.83189 0.0
C817 C 0.69179 0.19172 0.84908 0.0
C818 C 0.75639 0.23515 0.83525 0.0
C819 C 0.77863 0.22753 0.8564 0.0
C820 C 0.75724 0.20196 0.8739 0.0
C821 C 0.71412 0.18403 0.86995 0.0
C822 C 0.77851 0.26169 0.8161 0.0
C823 C 0.77986 0.19369 0.8968 0.0
C824 C 0.90596 0.23506 0.86013 0.0
C825 C 0.91164 0.27799 0.86962 0.0
C826 C 0.86274 0.21868 0.85507 0.0
C827 C 0.82462 0.24573 0.86015 0.0
C828 C 0.83043 0.28953 0.86947 0.0
C829 C 0.87416 0.30528 0.87402 0.0
C830 C 0.85784 0.17209 0.84485 0.0
C831 C 0.7905 0.31904 0.87534 0.0
H832 H 0.69605 0.22323 0.81565 0.0
H833 H 0.69766 0.16448 0.88334 0.0
H834 H 0.78698 0.29623 0.82209 0.0
H835 H 0.81065 0.24518 0.81107 0.0
H836 H 0.75658 0.26454 0.80067 0.0
H837 H 0.75815 0.17407 0.90878 0.0
H838 H 0.8119 0.17493 0.89426 0.0
H839 H 0.78853 0.22643 0.90494 0.0
H840 H 0.93536 0.21409 0.85703 0.0
H841 H 0.87906 0.33824 0.88174 0.0
H842 H 0.83717 0.17374 0.82896 0.0
H843 H 0.83995 0.14958 0.85711 0.0
H844 H 0.891 0.15663 0.84064 0.0
H845 H 0.76867 0.32379 0.86003 0.0
H846 H 0.80093 0.3528 0.88175 0.0
H847 H 0.76972 0.30223 0.88874 0.0
C848 C 0.18078 0.37517 0.12495 0.0
C849 C 0.20597 0.41105 0.11595 0.0
C850 C 0.19402 0.33032 0.1211 0.0
C851 C 0.23332 0.32165 0.108 0.0
C852 C 0.25742 0.35803 0.0979 0.0
C853 C 0.24352 0.40251 0.10215 0.0
C854 C 0.16755 0.29245 0.13217 0.0
C855 C 0.29925 0.35008 0.08366 0.0
C856 C 0.30185 0.21614 0.12057 0.0
C857 C 0.28941 0.18799 0.10232 0.0
C858 C 0.28307 0.25942 0.12285 0.0
C859 C 0.25139 0.27499 0.10638 0.0
C860 C 0.23809 0.24651 0.08814 0.0
C861 C 0.25712 0.20327 0.08638 0.0
C862 C 0.29767 0.28878 0.14269 0.0
C863 C 0.20457 0.26208 0.07021 0.0
H864 H 0.15207 0.38234 0.1359 0.0
H865 H 0.26307 0.43069 0.09553 0.0
H866 H 0.15959 0.26589 0.1194 0.0
H867 H 0.18825 0.27646 0.14587 0.0
H868 H 0.1355 0.30459 0.13991 0.0
H869 H 0.31149 0.38158 0.07527 0.0
H870 H 0.3266 0.3366 0.09478 0.0
H871 H 0.2925 0.32449 0.07021 0.0
H872 H 0.32654 0.20449 0.13301 0.0
H873 H 0.24732 0.18178 0.07218 0.0
H874 H 0.26774 0.29994 0.15263 0.0
H875 H 0.31465 0.31963 0.13608 0.0
H876 H 0.32121 0.27095 0.15452 0.0
H877 H 0.17289 0.27345 0.07853 0.0
H878 H 0.19628 0.23506 0.05768 0.0
H879 H 0.21854 0.29149 0.06068 0.0
C880 C 0.25366 0.79604 0.36967 0.0
C881 C 0.28203 0.78407 0.35141 0.0
C882 C 0.21073 0.77653 0.37202 0.0
C883 C 0.19575 0.74456 0.35564 0.0
C884 C 0.2244 0.73187 0.33736 0.0
C885 C 0.26726 0.75167 0.3355 0.0
C886 C 0.18114 0.79057 0.39188 0.0
C887 C 0.20948 0.69803 0.31952 0.0
C888 C 0.09755 0.67104 0.37439 0.0
C889 C 0.0611 0.69505 0.36519 0.0
C890 C 0.14197 0.68571 0.37062 0.0
C891 C 0.1496 0.72533 0.35743 0.0
C892 C 0.1127 0.74836 0.34723 0.0
C893 C 0.06867 0.73295 0.35134 0.0
C894 C 0.18044 0.66026 0.38174 0.0
C895 C 0.11953 0.79055 0.33296 0.0
H896 H 0.26489 0.82084 0.38209 0.0
H897 H 0.2889 0.7422 0.3213 0.0
H898 H 0.14986 0.80669 0.38529 0.0
H899 H 0.17084 0.7604 0.40198 0.0
H900 H 0.19839 0.8147 0.40354 0.0
H901 H 0.2365 0.6905 0.30687 0.0
H902 H 0.19909 0.66596 0.32794 0.0
H903 H 0.17963 0.71128 0.31014 0.0
H904 H 0.09113 0.64201 0.38535 0.0
H905 H 0.04004 0.75156 0.34454 0.0
H906 H 0.19601 0.68154 0.39526 0.0
H907 H 0.20707 0.65275 0.36892 0.0
H908 H 0.16914 0.62799 0.3897 0.0
H909 H 0.13245 0.81815 0.34402 0.0
H910 H 0.08773 0.80214 0.32467 0.0
H911 H 0.14513 0.78448 0.31941 0.0
loop_
_geom_bond_atom_site_label_1
_geom_bond_atom_site_label_2
_geom_bond_distance
_geom_bond_site_symmetry_2
_ccdc_geom_bond_type
Co0 O3 1.970 . S
Co0 N17 1.989 . S
Co0 O25 1.967 . S
Co0 O32 1.920 . S
Co1 O4 1.966 . S
Co1 N10 2.022 . S
Co1 N18 1.993 . S
Co1 O26 1.941 . S
C2 O3 1.258 . S
C2 O4 1.263 . S
O3 Co0 1.970 . S
O3 C2 1.258 . S
O4 Co1 1.966 . S
O4 C2 1.263 . S
C5 O6 1.235 . S
C5 O32 1.289 . S
O6 C5 1.235 . S
C7 C9 1.400 . S
C7 N10 1.351 . S
C7 C12 1.501 . S
C8 C9 1.387 1_565 S
C8 N11 1.341 . S
C9 C7 1.400 . S
C9 C8 1.387 1_545 S
N10 Co1 2.022 . S
N10 C7 1.351 . S
N10 N11 1.365 1_545 S
N11 C8 1.341 . S
N11 N10 1.365 1_565 S
N11 H31 0.862 . S
C12 C7 1.501 . S
C12 H13 0.961 . S
C12 H14 0.961 . S
C12 H15 0.960 . S
H13 C12 0.961 . S
H14 C12 0.961 . S
H15 C12 0.960 . S
C16 N17 1.342 1_565 S
C16 C20 1.401 . S
C16 C21 1.499 . S
N17 Co0 1.989 . S
N17 C16 1.342 1_545 S
N17 N18 1.388 . S
N18 Co1 1.993 . S
N18 N17 1.388 . S
N18 C19 1.346 1_545 S
C19 N18 1.346 1_565 S
C19 C20 1.396 . S
C19 C29 1.510 . S
C20 C16 1.401 . S
C20 C19 1.396 . S
C21 C16 1.499 . S
C21 H22 0.959 1_565 S
C21 H23 0.960 . S
C21 H24 0.961 . S
H22 C21 0.959 1_545 S
H23 C21 0.960 . S
H24 C21 0.961 . S
O25 Co0 1.967 . S
O25 C33 1.258 . S
O26 Co1 1.941 . S
O26 C33 1.266 . S
H27 C29 0.959 . S
H28 C29 0.961 . S
C29 C19 1.510 . S
C29 H27 0.959 . S
C29 H28 0.961 . S
C29 H30 0.960 . S
H30 C29 0.960 . S
H31 N11 0.862 . S
O32 Co0 1.920 . S
O32 C5 1.289 . S
C33 O25 1.258 . S
C33 O26 1.266 . S
Co34 O37 1.970 . S
Co34 N51 1.989 . S
Co34 O59 1.967 . S
Co34 O66 1.920 . S
Co35 O38 1.966 . S
Co35 N44 2.022 . S
Co35 N52 1.993 . S
Co35 O60 1.941 . S
C36 O37 1.258 . S
C36 O38 1.263 . S
O37 Co34 1.970 . S
O37 C36 1.258 . S
O38 Co35 1.966 . S
O38 C36 1.263 . S
C39 O40 1.235 . S
C39 O66 1.289 . S
O40 C39 1.235 . S
C41 C43 1.400 . S
C41 N44 1.351 . S
C41 C46 1.501 . S
C42 C43 1.387 . S
C42 N45 1.341 . S
C43 C41 1.400 . S
C43 C42 1.387 . S
N44 Co35 2.022 . S
N44 C41 1.351 . S
N44 N45 1.365 . S
N45 C42 1.341 . S
N45 N44 1.365 . S
N45 H65 0.862 . S
C46 C41 1.501 . S
C46 H47 0.961 . S
C46 H48 0.961 . S
C46 H49 0.960 . S
H47 C46 0.961 . S
H48 C46 0.961 . S
H49 C46 0.960 . S
C50 N51 1.342 . S
C50 C54 1.401 . S
C50 C55 1.499 . S
N51 Co34 1.989 . S
N51 C50 1.342 . S
N51 N52 1.388 . S
N52 Co35 1.993 . S
N52 N51 1.388 . S
N52 C53 1.346 . S
C53 N52 1.346 . S
C53 C54 1.396 . S
C53 C63 1.510 . S
C54 C50 1.401 . S
C54 C53 1.396 . S
C55 C50 1.499 . S
C55 H56 0.959 . S
C55 H57 0.960 . S
C55 H58 0.961 . S
H56 C55 0.959 . S
H57 C55 0.960 . S
H58 C55 0.961 . S
O59 Co34 1.967 . S
O59 C67 1.258 . S
O60 Co35 1.941 . S
O60 C67 1.266 . S
H61 C63 0.959 . S
H62 C63 0.961 . S
C63 C53 1.510 . S
C63 H61 0.959 . S
C63 H62 0.961 . S
C63 H64 0.960 . S
H64 C63 0.960 . S
H65 N45 0.862 . S
O66 Co34 1.920 . S
O66 C39 1.289 . S
C67 O59 1.258 . S
C67 O60 1.266 . S
Co68 O71 1.970 . S
Co68 N85 1.989 . S
Co68 O93 1.967 . S
Co68 O100 1.920 . S
Co69 O72 1.966 . S
Co69 N78 2.022 . S
Co69 N86 1.993 . S
Co69 O94 1.941 . S
C70 O71 1.258 . S
C70 O72 1.263 . S
O71 Co68 1.970 . S
O71 C70 1.258 . S
O72 Co69 1.966 . S
O72 C70 1.263 . S
C73 O74 1.235 . S
C73 O100 1.289 . S
O74 C73 1.235 . S
C75 C77 1.400 . S
C75 N78 1.351 . S
C75 C80 1.501 . S
C76 C77 1.387 1_545 S
C76 N79 1.341 1_545 S
C77 C75 1.400 . S
C77 C76 1.387 1_565 S
N78 Co69 2.022 . S
N78 C75 1.351 . S
N78 N79 1.365 . S
N79 C76 1.341 1_565 S
N79 N78 1.365 . S
N79 H99 0.862 1_565 S
C80 C75 1.501 . S
C80 H81 0.961 . S
C80 H82 0.961 . S
C80 H83 0.960 . S
H81 C80 0.961 . S
H82 C80 0.961 . S
H83 C80 0.960 . S
C84 N85 1.342 1_545 S
C84 C88 1.401 . S
C84 C89 1.499 . S
N85 Co68 1.989 . S
N85 C84 1.342 1_565 S
N85 N86 1.388 . S
N86 Co69 1.993 . S
N86 N85 1.388 . S
N86 C87 1.346 1_565 S
C87 N86 1.346 1_545 S
C87 C88 1.396 . S
C87 C97 1.510 . S
C88 C84 1.401 . S
C88 C87 1.396 . S
C89 C84 1.499 . S
C89 H90 0.959 1_545 S
C89 H91 0.960 . S
C89 H92 0.961 . S
H90 C89 0.959 1_565 S
H91 C89 0.960 . S
H92 C89 0.961 . S
O93 Co68 1.967 . S
O93 C101 1.258 . S
O94 Co69 1.941 . S
O94 C101 1.266 . S
H95 C97 0.959 . S
H96 C97 0.961 . S
C97 C87 1.510 . S
C97 H95 0.959 . S
C97 H96 0.961 . S
C97 H98 0.960 . S
H98 C97 0.960 . S
H99 N79 0.862 1_545 S
O100 Co68 1.920 . S
O100 C73 1.289 . S
C101 O93 1.258 . S
C101 O94 1.266 . S
Co102 O105 1.970 . S
Co102 N119 1.989 . S
Co102 O127 1.967 . S
Co102 O134 1.920 . S
Co103 O106 1.966 . S
Co103 N112 2.022 . S
Co103 N120 1.993 . S
Co103 O128 1.941 . S
C104 O105 1.258 . S
C104 O106 1.263 . S
O105 Co102 1.970 . S
O105 C104 1.258 . S
O106 Co103 1.966 . S
O106 C104 1.263 . S
C107 O108 1.235 . S
C107 O134 1.289 . S
O108 C107 1.235 . S
C109 C111 1.400 . S
C109 N112 1.351 . S
C109 C114 1.501 . S
C110 C111 1.387 . S
C110 N113 1.341 . S
C111 C109 1.400 . S
C111 C110 1.387 . S
N112 Co103 2.022 . S
N112 C109 1.351 . S
N112 N113 1.365 . S
N113 C110 1.341 . S
N113 N112 1.365 . S
N113 H133 0.862 . S
C114 C109 1.501 . S
C114 H115 0.961 . S
C114 H116 0.961 . S
C114 H117 0.960 . S
H115 C114 0.961 . S
H116 C114 0.961 . S
H117 C114 0.960 . S
C118 N119 1.342 . S
C118 C122 1.401 . S
C118 C123 1.499 . S
N119 Co102 1.989 . S
N119 C118 1.342 . S
N119 N120 1.388 . S
N120 Co103 1.993 . S
N120 N119 1.388 . S
N120 C121 1.346 . S
C121 N120 1.346 . S
C121 C122 1.396 . S
C121 C131 1.510 . S
C122 C118 1.401 . S
C122 C121 1.396 . S
C123 C118 1.499 . S
C123 H124 0.959 . S
C123 H125 0.960 . S
C123 H126 0.961 . S
H124 C123 0.959 . S
H125 C123 0.960 . S
H126 C123 0.961 . S
O127 Co102 1.967 . S
O127 C135 1.258 . S
O128 Co103 1.941 . S
O128 C135 1.266 . S
H129 C131 0.959 . S
H130 C131 0.961 . S
C131 C121 1.510 . S
C131 H129 0.959 . S
C131 H130 0.961 . S
C131 H132 0.960 . S
H132 C131 0.960 . S
H133 N113 0.862 . S
O134 Co102 1.920 . S
O134 C107 1.289 . S
C135 O127 1.258 . S
C135 O128 1.266 . S
Co136 O139 1.970 . S
Co136 N153 1.989 . S
Co136 O161 1.967 . S
Co136 O168 1.920 . S
Co137 O140 1.966 . S
Co137 N146 2.022 . S
Co137 N154 1.993 . S
Co137 O162 1.941 . S
C138 O139 1.258 . S
C138 O140 1.263 . S
O139 Co136 1.970 . S
O139 C138 1.258 . S
O140 Co137 1.966 . S
O140 C138 1.263 . S
C141 O142 1.235 . S
C141 O168 1.289 . S
O142 C141 1.235 . S
C143 C145 1.400 . S
C143 N146 1.351 . S
C143 C148 1.501 . S
C144 C145 1.387 . S
C144 N147 1.341 . S
C145 C143 1.400 . S
C145 C144 1.387 . S
N146 Co137 2.022 . S
N146 C143 1.351 . S
N146 N147 1.365 . S
N147 C144 1.341 . S
N147 N146 1.365 . S
N147 H167 0.862 . S
C148 C143 1.501 . S
C148 H149 0.961 . S
C148 H150 0.961 . S
C148 H151 0.960 . S
H149 C148 0.961 . S
H150 C148 0.961 . S
H151 C148 0.960 . S
C152 N153 1.342 . S
C152 C156 1.401 . S
C152 C157 1.499 . S
N153 Co136 1.989 . S
N153 C152 1.342 . S
N153 N154 1.388 . S
N154 Co137 1.993 . S
N154 N153 1.388 . S
N154 C155 1.346 . S
C155 N154 1.346 . S
C155 C156 1.396 . S
C155 C165 1.510 . S
C156 C152 1.401 . S
C156 C155 1.396 . S
C157 C152 1.499 . S
C157 H158 0.959 . S
C157 H159 0.960 . S
C157 H160 0.961 . S
H158 C157 0.959 . S
H159 C157 0.960 . S
H160 C157 0.961 . S
O161 Co136 1.967 . S
O161 C169 1.258 . S
O162 Co137 1.941 . S
O162 C169 1.266 . S
H163 C165 0.959 . S
H164 C165 0.961 . S
C165 C155 1.510 . S
C165 H163 0.959 . S
C165 H164 0.961 . S
C165 H166 0.960 . S
H166 C165 0.960 . S
H167 N147 0.862 . S
O168 Co136 1.920 . S
O168 C141 1.289 . S
C169 O161 1.258 . S
C169 O162 1.266 . S
Co170 O173 1.970 . S
Co170 N187 1.989 . S
Co170 O195 1.967 . S
Co170 O202 1.920 . S
Co171 O174 1.966 . S
Co171 N180 2.022 . S
Co171 N188 1.993 . S
Co171 O196 1.941 . S
C172 O173 1.258 . S
C172 O174 1.263 . S
O173 Co170 1.970 . S
O173 C172 1.258 . S
O174 Co171 1.966 . S
O174 C172 1.263 . S
C175 O176 1.235 . S
C175 O202 1.289 . S
O176 C175 1.235 . S
C177 C179 1.400 . S
C177 N180 1.351 . S
C177 C182 1.501 . S
C178 C179 1.387 1_655 S
C178 N181 1.341 . S
C179 C177 1.400 . S
C179 C178 1.387 1_455 S
N180 Co171 2.022 . S
N180 C177 1.351 . S
N180 N181 1.365 1_455 S
N181 C178 1.341 . S
N181 N180 1.365 1_655 S
N181 H201 0.862 . S
C182 C177 1.501 . S
C182 H183 0.961 . S
C182 H184 0.961 . S
C182 H185 0.960 . S
H183 C182 0.961 . S
H184 C182 0.961 . S
H185 C182 0.960 . S
C186 N187 1.342 1_655 S
C186 C190 1.401 . S
C186 C191 1.499 . S
N187 Co170 1.989 . S
N187 C186 1.342 1_455 S
N187 N188 1.388 . S
N188 Co171 1.993 . S
N188 N187 1.388 . S
N188 C189 1.346 1_455 S
C189 N188 1.346 1_655 S
C189 C190 1.396 . S
C189 C199 1.510 . S
C190 C186 1.401 . S
C190 C189 1.396 . S
C191 C186 1.499 . S
C191 H192 0.959 1_655 S
C191 H193 0.960 . S
C191 H194 0.961 . S
H192 C191 0.959 1_455 S
H193 C191 0.960 . S
H194 C191 0.961 . S
O195 Co170 1.967 . S
O195 C203 1.258 . S
O196 Co171 1.941 . S
O196 C203 1.266 . S
H197 C199 0.959 . S
H198 C199 0.961 . S
C199 C189 1.510 . S
C199 H197 0.959 . S
C199 H198 0.961 . S
C199 H200 0.960 . S
H200 C199 0.960 . S
H201 N181 0.862 . S
O202 Co170 1.920 . S
O202 C175 1.289 . S
C203 O195 1.258 . S
C203 O196 1.266 . S
Co204 O207 1.970 . S
Co204 N221 1.989 . S
Co204 O229 1.967 . S
Co204 O236 1.920 . S
Co205 O208 1.966 . S
Co205 N214 2.022 . S
Co205 N222 1.993 . S
Co205 O230 1.941 . S
C206 O207 1.258 . S
C206 O208 1.263 . S
O207 Co204 1.970 . S
O207 C206 1.258 . S
O208 Co205 1.966 . S
O208 C206 1.263 . S
C209 O210 1.235 . S
C209 O236 1.289 . S
O210 C209 1.235 . S
C211 C213 1.400 . S
C211 N214 1.351 . S
C211 C216 1.501 . S
C212 C213 1.387 . S
C212 N215 1.341 . S
C213 C211 1.400 . S
C213 C212 1.387 . S
N214 Co205 2.022 . S
N214 C211 1.351 . S
N214 N215 1.365 . S
N215 C212 1.341 . S
N215 N214 1.365 . S
N215 H235 0.862 . S
C216 C211 1.501 . S
C216 H217 0.961 . S
C216 H218 0.961 . S
C216 H219 0.960 . S
H217 C216 0.961 . S
H218 C216 0.961 . S
H219 C216 0.960 . S
C220 N221 1.342 . S
C220 C224 1.401 . S
C220 C225 1.499 . S
N221 Co204 1.989 . S
N221 C220 1.342 . S
N221 N222 1.388 . S
N222 Co205 1.993 . S
N222 N221 1.388 . S
N222 C223 1.346 . S
C223 N222 1.346 . S
C223 C224 1.396 . S
C223 C233 1.510 . S
C224 C220 1.401 . S
C224 C223 1.396 . S
C225 C220 1.499 . S
C225 H226 0.959 . S
C225 H227 0.960 . S
C225 H228 0.961 . S
H226 C225 0.959 . S
H227 C225 0.960 . S
H228 C225 0.961 . S
O229 Co204 1.967 . S
O229 C237 1.258 . S
O230 Co205 1.941 . S
O230 C237 1.266 . S
H231 C233 0.959 . S
H232 C233 0.961 . S
C233 C223 1.510 . S
C233 H231 0.959 . S
C233 H232 0.961 . S
C233 H234 0.960 . S
H234 C233 0.960 . S
H235 N215 0.862 . S
O236 Co204 1.920 . S
O236 C209 1.289 . S
C237 O229 1.258 . S
C237 O230 1.266 . S
Co238 O241 1.970 . S
Co238 N255 1.989 . S
Co238 O263 1.967 . S
Co238 O270 1.920 . S
Co239 O242 1.966 . S
Co239 N248 2.022 . S
Co239 N256 1.993 . S
Co239 O264 1.941 . S
C240 O241 1.258 . S
C240 O242 1.263 . S
O241 Co238 1.970 . S
O241 C240 1.258 . S
O242 Co239 1.966 . S
O242 C240 1.263 . S
C243 O244 1.235 . S
C243 O270 1.289 . S
O244 C243 1.235 . S
C245 C247 1.400 . S
C245 N248 1.351 . S
C245 C250 1.501 . S
C246 C247 1.387 1_455 S
C246 N249 1.341 1_455 S
C247 C245 1.400 . S
C247 C246 1.387 1_655 S
N248 Co239 2.022 . S
N248 C245 1.351 . S
N248 N249 1.365 . S
N249 C246 1.341 1_655 S
N249 N248 1.365 . S
N249 H269 0.862 1_655 S
C250 C245 1.501 . S
C250 H251 0.961 . S
C250 H252 0.961 . S
C250 H253 0.960 . S
H251 C250 0.961 . S
H252 C250 0.961 . S
H253 C250 0.960 . S
C254 N255 1.342 1_455 S
C254 C258 1.401 . S
C254 C259 1.499 . S
N255 Co238 1.989 . S
N255 C254 1.342 1_655 S
N255 N256 1.388 . S
N256 Co239 1.993 . S
N256 N255 1.388 . S
N256 C257 1.346 1_655 S
C257 N256 1.346 1_455 S
C257 C258 1.396 . S
C257 C267 1.510 . S
C258 C254 1.401 . S
C258 C257 1.396 . S
C259 C254 1.499 . S
C259 H260 0.959 1_455 S
C259 H261 0.960 . S
C259 H262 0.961 . S
H260 C259 0.959 1_655 S
H261 C259 0.960 . S
H262 C259 0.961 . S
O263 Co238 1.967 . S
O263 C271 1.258 . S
O264 Co239 1.941 . S
O264 C271 1.266 . S
H265 C267 0.959 . S
H266 C267 0.961 . S
C267 C257 1.510 . S
C267 H265 0.959 . S
C267 H266 0.961 . S
C267 H268 0.960 . S
H268 C267 0.960 . S
H269 N249 0.862 1_455 S
O270 Co238 1.920 . S
O270 C243 1.289 . S
C271 O263 1.258 . S
C271 O264 1.266 . S
C272 C273 1.391 . S
C272 C274 1.394 . S
C272 H288 0.931 . S
C273 C272 1.391 . S
C273 C277 1.376 . S
C274 C272 1.394 . S
C274 C275 1.369 . S
C274 C278 1.531 . S
C275 C274 1.369 . S
C275 C276 1.410 . S
C275 C283 1.503 1_554 S
C276 C275 1.410 . S
C276 C277 1.392 . S
C276 C279 1.511 . S
C277 C273 1.376 . S
C277 C276 1.392 . S
C277 H289 0.929 . S
C278 C274 1.531 . S
C278 H290 0.960 1_554 S
C278 H291 0.962 . S
C278 H292 0.960 . S
C279 C276 1.511 . S
C279 H293 0.961 . S
C279 H294 0.961 1_554 S
C279 H295 0.961 1_554 S
C280 C281 1.370 . S
C280 C282 1.363 . S
C280 H296 0.931 . S
C281 C280 1.370 . S
C281 C285 1.408 . S
C282 C280 1.363 . S
C282 C283 1.370 . S
C282 C286 1.524 1_556 S
C283 C275 1.503 1_556 S
C283 C282 1.370 . S
C283 C284 1.403 . S
C284 C283 1.403 . S
C284 C285 1.404 . S
C284 C287 1.539 . S
C285 C281 1.408 . S
C285 C284 1.404 . S
C285 H297 0.930 . S
C286 C282 1.524 1_554 S
C286 H298 0.956 . S
C286 H299 0.961 . S
C286 H300 0.961 . S
C287 C284 1.539 . S
C287 H301 0.958 . S
C287 H302 0.961 . S
C287 H303 0.960 . S
H288 C272 0.931 . S
H289 C277 0.929 . S
H290 C278 0.960 1_556 S
H291 C278 0.962 . S
H292 C278 0.960 . S
H293 C279 0.961 . S
H294 C279 0.961 1_556 S
H295 C279 0.961 1_556 S
H296 C280 0.931 . S
H297 C285 0.930 . S
H298 C286 0.956 . S
H299 C286 0.961 . S
H300 C286 0.961 . S
H301 C287 0.958 . S
H302 C287 0.961 . S
H303 C287 0.960 . S
C304 C305 1.391 . S
C304 C306 1.394 . S
C304 H320 0.931 . S
C305 C304 1.391 . S
C305 C309 1.376 . S
C306 C304 1.394 . S
C306 C307 1.369 . S
C306 C310 1.531 . S
C307 C306 1.369 . S
C307 C308 1.410 . S
C307 C315 1.503 . S
C308 C307 1.410 . S
C308 C309 1.392 . S
C308 C311 1.511 . S
C309 C305 1.376 . S
C309 C308 1.392 . S
C309 H321 0.929 . S
C310 C306 1.531 . S
C310 H322 0.960 . S
C310 H323 0.962 . S
C310 H324 0.960 . S
C311 C308 1.511 . S
C311 H325 0.961 . S
C311 H326 0.961 . S
C311 H327 0.961 . S
C312 C313 1.370 . S
C312 C314 1.363 . S
C312 H328 0.931 . S
C313 C312 1.370 . S
C313 C317 1.408 . S
C314 C312 1.363 . S
C314 C315 1.370 . S
C314 C318 1.524 . S
C315 C307 1.503 . S
C315 C314 1.370 . S
C315 C316 1.403 . S
C316 C315 1.403 . S
C316 C317 1.404 . S
C316 C319 1.539 . S
C317 C313 1.408 . S
C317 C316 1.404 . S
C317 H329 0.930 . S
C318 C314 1.524 . S
C318 H330 0.956 . S
C318 H331 0.961 . S
C318 H332 0.961 . S
C319 C316 1.539 . S
C319 H333 0.958 . S
C319 H334 0.961 . S
C319 H335 0.960 . S
H320 C304 0.931 . S
H321 C309 0.929 . S
H322 C310 0.960 . S
H323 C310 0.962 . S
H324 C310 0.960 . S
H325 C311 0.961 . S
H326 C311 0.961 . S
H327 C311 0.961 . S
H328 C312 0.931 . S
H329 C317 0.930 . S
H330 C318 0.956 . S
H331 C318 0.961 . S
H332 C318 0.961 . S
H333 C319 0.958 . S
H334 C319 0.961 . S
H335 C319 0.960 . S
C336 C337 1.391 . S
C336 C338 1.394 . S
C336 H352 0.931 . S
C337 C336 1.391 . S
C337 C341 1.376 . S
C338 C336 1.394 . S
C338 C339 1.369 . S
C338 C342 1.531 . S
C339 C338 1.369 . S
C339 C340 1.410 . S
C339 C347 1.503 . S
C340 C339 1.410 . S
C340 C341 1.392 . S
C340 C343 1.511 . S
C341 C337 1.376 . S
C341 C340 1.392 . S
C341 H353 0.929 . S
C342 C338 1.531 . S
C342 H354 0.960 . S
C342 H355 0.962 . S
C342 H356 0.960 . S
C343 C340 1.511 . S
C343 H357 0.961 . S
C343 H358 0.961 . S
C343 H359 0.961 . S
C344 C345 1.370 . S
C344 C346 1.363 . S
C344 H360 0.931 . S
C345 C344 1.370 . S
C345 C349 1.408 . S
C346 C344 1.363 . S
C346 C347 1.370 . S
C346 C350 1.524 . S
C347 C339 1.503 . S
C347 C346 1.370 . S
C347 C348 1.403 . S
C348 C347 1.403 . S
C348 C349 1.404 . S
C348 C351 1.539 . S
C349 C345 1.408 . S
C349 C348 1.404 . S
C349 H361 0.930 . S
C350 C346 1.524 . S
C350 H362 0.956 . S
C350 H363 0.961 . S
C350 H364 0.961 . S
C351 C348 1.539 . S
C351 H365 0.958 . S
C351 H366 0.961 . S
C351 H367 0.960 . S
H352 C336 0.931 . S
H353 C341 0.929 . S
H354 C342 0.960 . S
H355 C342 0.962 . S
H356 C342 0.960 . S
H357 C343 0.961 . S
H358 C343 0.961 . S
H359 C343 0.961 . S
H360 C344 0.931 . S
H361 C349 0.930 . S
H362 C350 0.956 . S
H363 C350 0.961 . S
H364 C350 0.961 . S
H365 C351 0.958 . S
H366 C351 0.961 . S
H367 C351 0.960 . S
C368 C369 1.391 . S
C368 C370 1.394 . S
C368 H384 0.931 . S
C369 C368 1.391 . S
C369 C373 1.376 . S
C370 C368 1.394 . S
C370 C371 1.369 . S
C370 C374 1.531 . S
C371 C370 1.369 . S
C371 C372 1.410 . S
C371 C379 1.503 . S
C372 C371 1.410 . S
C372 C373 1.392 . S
C372 C375 1.511 . S
C373 C369 1.376 . S
C373 C372 1.392 . S
C373 H385 0.929 . S
C374 C370 1.531 . S
C374 H386 0.960 . S
C374 H387 0.962 . S
C374 H388 0.960 . S
C375 C372 1.511 . S
C375 H389 0.961 . S
C375 H390 0.961 . S
C375 H391 0.961 . S
C376 C377 1.370 . S
C376 C378 1.363 . S
C376 H392 0.931 . S
C377 C376 1.370 . S
C377 C381 1.408 . S
C378 C376 1.363 . S
C378 C379 1.370 . S
C378 C382 1.524 . S
C379 C371 1.503 . S
C379 C378 1.370 . S
C379 C380 1.403 . S
C380 C379 1.403 . S
C380 C381 1.404 . S
C380 C383 1.539 . S
C381 C377 1.408 . S
C381 C380 1.404 . S
C381 H393 0.930 . S
C382 C378 1.524 . S
C382 H394 0.956 . S
C382 H395 0.961 . S
C382 H396 0.961 . S
C383 C380 1.539 . S
C383 H397 0.958 . S
C383 H398 0.961 . S
C383 H399 0.960 . S
H384 C368 0.931 . S
H385 C373 0.929 . S
H386 C374 0.960 . S
H387 C374 0.962 . S
H388 C374 0.960 . S
H389 C375 0.961 . S
H390 C375 0.961 . S
H391 C375 0.961 . S
H392 C376 0.931 . S
H393 C381 0.930 . S
H394 C382 0.956 . S
H395 C382 0.961 . S
H396 C382 0.961 . S
H397 C383 0.958 . S
H398 C383 0.961 . S
H399 C383 0.960 . S
C400 C401 1.391 . S
C400 C402 1.394 . S
C400 H416 0.931 . S
C401 C400 1.391 . S
C401 C405 1.376 . S
C402 C400 1.394 . S
C402 C403 1.364 1_556 S
C402 C406 1.531 1_556 S
C403 C402 1.364 1_554 S
C403 C404 1.389 1_554 S
C403 C411 1.529 . S
C404 C403 1.389 1_556 S
C404 C405 1.392 . S
C404 C407 1.511 . S
C405 C401 1.376 . S
C405 C404 1.392 . S
C405 H417 0.929 . S
C406 C402 1.531 1_554 S
C406 H418 0.960 . S
C406 H419 0.962 . S
C406 H420 0.960 . S
C407 C404 1.511 . S
C407 H421 0.961 . S
C407 H422 0.961 1_556 S
C407 H423 0.961 . S
C408 C409 1.370 . S
C408 C410 1.363 . S
C408 H424 0.931 . S
C409 C408 1.370 . S
C409 C413 1.408 . S
C410 C408 1.363 . S
C410 C411 1.370 . S
C410 C414 1.524 . S
C411 C403 1.529 . S
C411 C410 1.370 . S
C411 C412 1.403 . S
C412 C411 1.403 . S
C412 C413 1.404 . S
C412 C415 1.539 . S
C413 C409 1.408 . S
C413 C412 1.404 . S
C413 H425 0.930 . S
C414 C410 1.524 . S
C414 H426 0.956 . S
C414 H427 0.961 1_545 S
C414 H428 0.961 1_545 S
C415 C412 1.539 . S
C415 H429 0.958 . S
C415 H430 0.961 . S
C415 H431 0.960 . S
H416 C400 0.931 . S
H417 C405 0.929 . S
H418 C406 0.960 . S
H419 C406 0.962 . S
H420 C406 0.960 . S
H421 C407 0.961 . S
H422 C407 0.961 1_554 S
H423 C407 0.961 . S
H424 C408 0.931 . S
H425 C413 0.930 . S
H426 C414 0.956 . S
H427 C414 0.961 1_565 S
H428 C414 0.961 1_565 S
H429 C415 0.958 . S
H430 C415 0.961 . S
H431 C415 0.960 . S
C432 C433 1.391 . S
C432 C434 1.394 . S
C432 H448 0.931 . S
C433 C432 1.391 . S
C433 C437 1.376 . S
C434 C432 1.394 . S
C434 C435 1.369 . S
C434 C438 1.531 . S
C435 C434 1.369 . S
C435 C436 1.410 . S
C435 C443 1.503 . S
C436 C435 1.410 . S
C436 C437 1.392 . S
C436 C439 1.511 . S
C437 C433 1.376 . S
C437 C436 1.392 . S
C437 H449 0.929 . S
C438 C434 1.531 . S
C438 H450 0.960 . S
C438 H451 0.962 . S
C438 H452 0.960 . S
C439 C436 1.511 . S
C439 H453 0.961 . S
C439 H454 0.961 . S
C439 H455 0.961 . S
C440 C441 1.365 1_545 S
C440 C442 1.363 . S
C440 H456 0.931 . S
C441 C440 1.365 1_565 S
C441 C445 1.419 . S
C442 C440 1.363 . S
C442 C443 1.370 1_545 S
C442 C446 1.524 . S
C443 C435 1.503 . S
C443 C442 1.370 1_565 S
C443 C444 1.403 . S
C444 C443 1.403 . S
C444 C445 1.404 . S
C444 C447 1.539 . S
C445 C441 1.419 . S
C445 C444 1.404 . S
C445 H457 0.930 . S
C446 C442 1.524 . S
C446 H458 0.956 . S
C446 H459 0.961 . S
C446 H460 0.961 . S
C447 C444 1.539 . S
C447 H461 0.958 . S
C447 H462 0.961 . S
C447 H463 0.960 . S
H448 C432 0.931 . S
H449 C437 0.929 . S
H450 C438 0.960 . S
H451 C438 0.962 . S
H452 C438 0.960 . S
H453 C439 0.961 . S
H454 C439 0.961 . S
H455 C439 0.961 . S
H456 C440 0.931 . S
H457 C445 0.930 . S
H458 C446 0.956 . S
H459 C446 0.961 . S
H460 C446 0.961 . S
H461 C447 0.958 . S
H462 C447 0.961 . S
H463 C447 0.960 . S
C464 C465 1.391 . S
C464 C466 1.394 . S
C464 H480 0.931 . S
C465 C464 1.391 . S
C465 C469 1.376 . S
C466 C464 1.394 . S
C466 C467 1.369 . S
C466 C470 1.531 . S
C467 C466 1.369 . S
C467 C468 1.410 . S
C467 C475 1.503 . S
C468 C467 1.410 . S
C468 C469 1.392 . S
C468 C471 1.511 . S
C469 C465 1.376 . S
C469 C468 1.392 . S
C469 H481 0.929 . S
C470 C466 1.531 . S
C470 H482 0.960 . S
C470 H483 0.962 . S
C470 H484 0.960 . S
C471 C468 1.511 . S
C471 H485 0.961 . S
C471 H486 0.961 . S
C471 H487 0.961 . S
C472 C473 1.370 . S
C472 C474 1.363 . S
C472 H488 0.931 . S
C473 C472 1.370 . S
C473 C477 1.408 . S
C474 C472 1.363 . S
C474 C475 1.370 . S
C474 C478 1.524 . S
C475 C467 1.503 . S
C475 C474 1.370 . S
C475 C476 1.403 . S
C476 C475 1.403 . S
C476 C477 1.404 . S
C476 C479 1.539 . S
C477 C473 1.408 . S
C477 C476 1.404 . S
C477 H489 0.930 . S
C478 C474 1.524 . S
C478 H490 0.956 . S
C478 H491 0.961 . S
C478 H492 0.961 . S
C479 C476 1.539 . S
C479 H493 0.958 1_565 S
C479 H494 0.961 . S
C479 H495 0.960 . S
H480 C464 0.931 . S
H481 C469 0.929 . S
H482 C470 0.960 . S
H483 C470 0.962 . S
H484 C470 0.960 . S
H485 C471 0.961 . S
H486 C471 0.961 . S
H487 C471 0.961 . S
H488 C472 0.931 . S
H489 C477 0.930 . S
H490 C478 0.956 . S
H491 C478 0.961 . S
H492 C478 0.961 . S
H493 C479 0.958 1_545 S
H494 C479 0.961 . S
H495 C479 0.960 . S
C496 C497 1.391 . S
C496 C498 1.394 . S
C496 H512 0.931 . S
C497 C496 1.391 . S
C497 C501 1.376 . S
C498 C496 1.394 . S
C498 C499 1.369 . S
C498 C502 1.531 . S
C499 C498 1.369 . S
C499 C500 1.410 . S
C499 C507 1.503 . S
C500 C499 1.410 . S
C500 C501 1.392 . S
C500 C503 1.511 1_545 S
C501 C497 1.376 . S
C501 C500 1.392 . S
C501 H513 0.929 . S
C502 C498 1.531 . S
C502 H514 0.960 . S
C502 H515 0.962 . S
C502 H516 0.960 . S
C503 C500 1.511 1_565 S
C503 H517 0.961 . S
C503 H518 0.961 . S
C503 H519 0.961 . S
C504 C505 1.370 . S
C504 C506 1.363 . S
C504 H520 0.931 . S
C505 C504 1.370 . S
C505 C509 1.408 1_565 S
C506 C504 1.363 . S
C506 C507 1.370 1_565 S
C506 C510 1.524 . S
C507 C499 1.503 . S
C507 C506 1.370 1_545 S
C507 C508 1.403 . S
C508 C507 1.403 . S
C508 C509 1.404 . S
C508 C511 1.539 . S
C509 C505 1.408 1_545 S
C509 C508 1.404 . S
C509 H521 0.930 . S
C510 C506 1.524 . S
C510 H522 0.956 1_565 S
C510 H523 0.961 . S
C510 H524 0.961 . S
C511 C508 1.539 . S
C511 H525 0.958 . S
C511 H526 0.961 . S
C511 H527 0.960 . S
H512 C496 0.931 . S
H513 C501 0.929 . S
H514 C502 0.960 . S
H515 C502 0.962 . S
H516 C502 0.960 . S
H517 C503 0.961 . S
H518 C503 0.961 . S
H519 C503 0.961 . S
H520 C504 0.931 . S
H521 C509 0.930 . S
H522 C510 0.956 1_545 S
H523 C510 0.961 . S
H524 C510 0.961 . S
H525 C511 0.958 . S
H526 C511 0.961 . S
H527 C511 0.960 . S
C528 C529 1.391 . S
C528 C530 1.394 . S
C528 H544 0.931 . S
C529 C528 1.391 . S
C529 C533 1.376 1_655 S
C530 C528 1.394 . S
C530 C531 1.369 . S
C530 C534 1.531 . S
C531 C530 1.369 . S
C531 C532 1.410 . S
C531 C539 1.503 . S
C532 C531 1.410 . S
C532 C533 1.392 1_655 S
C532 C535 1.511 . S
C533 C529 1.376 1_455 S
C533 C532 1.392 1_455 S
C533 H545 0.929 . S
C534 C530 1.531 . S
C534 H546 0.960 . S
C534 H547 0.962 . S
C534 H548 0.960 . S
C535 C532 1.511 . S
C535 H549 0.961 1_655 S
C535 H550 0.961 . S
C535 H551 0.961 . S
C536 C537 1.370 . S
C536 C538 1.363 . S
C536 H552 0.931 . S
C537 C536 1.370 . S
C537 C541 1.408 . S
C538 C536 1.363 . S
C538 C539 1.370 . S
C538 C542 1.524 1_655 S
C539 C531 1.503 . S
C539 C538 1.370 . S
C539 C540 1.403 . S
C540 C539 1.403 . S
C540 C541 1.404 . S
C540 C543 1.539 . S
C541 C537 1.408 . S
C541 C540 1.404 . S
C541 H553 0.930 . S
C542 C538 1.524 1_455 S
C542 H554 0.956 . S
C542 H555 0.961 . S
C542 H556 0.961 . S
C543 C540 1.539 . S
C543 H557 0.958 . S
C543 H558 0.961 . S
C543 H559 0.960 . S
H544 C528 0.931 . S
H545 C533 0.929 . S
H546 C534 0.960 . S
H547 C534 0.962 . S
H548 C534 0.960 . S
H549 C535 0.961 1_455 S
H550 C535 0.961 . S
H551 C535 0.961 . S
H552 C536 0.931 . S
H553 C541 0.930 . S
H554 C542 0.956 . S
H555 C542 0.961 . S
H556 C542 0.961 . S
H557 C543 0.958 . S
H558 C543 0.961 . S
H559 C543 0.960 . S
C560 C561 1.391 . S
C560 C562 1.394 . S
C560 H576 0.931 . S
C561 C560 1.391 . S
C561 C565 1.376 . S
C562 C560 1.394 . S
C562 C563 1.369 . S
C562 C566 1.531 . S
C563 C562 1.369 . S
C563 C564 1.410 . S
C563 C571 1.503 . S
C564 C563 1.410 . S
C564 C565 1.392 . S
C564 C567 1.511 . S
C565 C561 1.376 . S
C565 C564 1.392 . S
C565 H577 0.929 . S
C566 C562 1.531 . S
C566 H578 0.960 . S
C566 H579 0.962 . S
C566 H580 0.960 . S
C567 C564 1.511 . S
C567 H581 0.961 . S
C567 H582 0.961 . S
C567 H583 0.961 . S
C568 C569 1.370 . S
C568 C570 1.363 . S
C568 H584 0.931 . S
C569 C568 1.370 . S
C569 C573 1.408 . S
C570 C568 1.363 . S
C570 C571 1.370 1_554 S
C570 C574 1.524 . S
C571 C563 1.503 . S
C571 C570 1.370 1_556 S
C571 C572 1.403 1_556 S
C572 C571 1.403 1_554 S
C572 C573 1.404 . S
C572 C575 1.539 1_554 S
C573 C569 1.408 . S
C573 C572 1.404 . S
C573 H585 0.930 . S
C574 C570 1.524 . S
C574 H586 0.964 . S
C574 H587 0.969 1_554 S
C574 H588 0.961 1_455 S
C575 C572 1.539 1_556 S
C575 H589 0.958 . S
C575 H590 0.961 . S
C575 H591 0.960 . S
H576 C560 0.931 . S
H577 C565 0.929 . S
H578 C566 0.960 . S
H579 C566 0.962 . S
H580 C566 0.960 . S
H581 C567 0.961 . S
H582 C567 0.961 . S
H583 C567 0.961 . S
H584 C568 0.931 . S
H585 C573 0.930 . S
H586 C574 0.964 . S
H587 C574 0.969 1_556 S
H588 C574 0.961 1_655 S
H589 C575 0.958 . S
H590 C575 0.961 . S
H591 C575 0.960 . S
C592 C593 1.391 . S
C592 C594 1.394 . S
C592 H608 0.931 . S
C593 C592 1.391 . S
C593 C597 1.376 . S
C594 C592 1.394 . S
C594 C595 1.369 . S
C594 C598 1.531 . S
C595 C594 1.369 . S
C595 C596 1.410 . S
C595 C603 1.503 . S
C596 C595 1.410 . S
C596 C597 1.392 . S
C596 C599 1.511 1_455 S
C597 C593 1.376 . S
C597 C596 1.392 . S
C597 H609 0.929 . S
C598 C594 1.531 . S
C598 H610 0.960 . S
C598 H611 0.962 . S
C598 H612 0.960 . S
C599 C596 1.511 1_655 S
C599 H613 0.961 . S
C599 H614 0.961 . S
C599 H615 0.961 . S
C600 C601 1.370 1_455 S
C600 C602 1.363 . S
C600 H616 0.931 . S
C601 C600 1.370 1_655 S
C601 C605 1.408 . S
C602 C600 1.363 . S
C602 C603 1.370 . S
C602 C606 1.524 . S
C603 C595 1.503 . S
C603 C602 1.370 . S
C603 C604 1.403 1_455 S
C604 C603 1.403 1_655 S
C604 C605 1.404 . S
C604 C607 1.539 . S
C605 C601 1.408 . S
C605 C604 1.404 . S
C605 H617 0.930 . S
C606 C602 1.524 . S
C606 H618 0.956 . S
C606 H619 0.961 . S
C606 H620 0.961 . S
C607 C604 1.539 . S
C607 H621 0.958 . S
C607 H622 0.961 . S
C607 H623 0.960 . S
H608 C592 0.931 . S
H609 C597 0.929 . S
H610 C598 0.960 . S
H611 C598 0.962 . S
H612 C598 0.960 . S
H613 C599 0.961 . S
H614 C599 0.961 . S
H615 C599 0.961 . S
H616 C600 0.931 . S
H617 C605 0.930 . S
H618 C606 0.956 . S
H619 C606 0.961 . S
H620 C606 0.961 . S
H621 C607 0.958 . S
H622 C607 0.961 . S
H623 C607 0.960 . S
C624 C625 1.391 . S
C624 C626 1.394 . S
C624 H640 0.931 . S
C625 C624 1.391 . S
C625 C629 1.376 . S
C626 C624 1.394 . S
C626 C627 1.369 . S
C626 C630 1.531 . S
C627 C626 1.369 . S
C627 C628 1.410 . S
C627 C635 1.503 . S
C628 C627 1.410 . S
C628 C629 1.392 . S
C628 C631 1.511 . S
C629 C625 1.376 . S
C629 C628 1.392 . S
C629 H641 0.929 . S
C630 C626 1.531 . S
C630 H642 0.960 . S
C630 H643 0.962 1_655 S
C630 H644 0.960 1_655 S
C631 C628 1.511 . S
C631 H645 0.961 . S
C631 H646 0.961 . S
C631 H647 0.961 . S
C632 C633 1.370 . S
C632 C634 1.363 . S
C632 H648 0.931 . S
C633 C632 1.370 . S
C633 C637 1.408 . S
C634 C632 1.363 . S
C634 C635 1.370 . S
C634 C638 1.524 . S
C635 C627 1.503 . S
C635 C634 1.370 . S
C635 C636 1.403 . S
C636 C635 1.403 . S
C636 C637 1.404 . S
C636 C639 1.539 . S
C637 C633 1.408 . S
C637 C636 1.404 . S
C637 H649 0.930 . S
C638 C634 1.524 . S
C638 H650 0.956 . S
C638 H651 0.961 . S
C638 H652 0.961 . S
C639 C636 1.539 . S
C639 H653 0.958 . S
C639 H654 0.961 . S
C639 H655 0.960 . S
H640 C624 0.931 . S
H641 C629 0.929 . S
H642 C630 0.960 . S
H643 C630 0.962 1_455 S
H644 C630 0.960 1_455 S
H645 C631 0.961 . S
H646 C631 0.961 . S
H647 C631 0.961 . S
H648 C632 0.931 . S
H649 C637 0.930 . S
H650 C638 0.956 . S
H651 C638 0.961 . S
H652 C638 0.961 . S
H653 C639 0.958 . S
H654 C639 0.961 . S
H655 C639 0.960 . S
C656 C657 1.391 . S
C656 C658 1.394 . S
C656 H672 0.931 . S
C657 C656 1.391 . S
C657 C661 1.376 . S
C658 C656 1.394 . S
C658 C659 1.369 . S
C658 C662 1.531 . S
C659 C658 1.369 . S
C659 C660 1.410 . S
C659 C667 1.503 . S
C660 C659 1.410 . S
C660 C661 1.392 . S
C660 C663 1.511 . S
C661 C657 1.376 . S
C661 C660 1.392 . S
C661 H673 0.929 . S
C662 C658 1.531 . S
C662 H674 0.960 . S
C662 H675 0.962 . S
C662 H676 0.960 . S
C663 C660 1.511 . S
C663 H677 0.961 . S
C663 H678 0.961 . S
C663 H679 0.961 . S
C664 C665 1.370 . S
C664 C666 1.363 . S
C664 H680 0.931 . S
C665 C664 1.370 . S
C665 C669 1.408 . S
C666 C664 1.363 . S
C666 C667 1.370 . S
C666 C670 1.524 . S
C667 C659 1.503 . S
C667 C666 1.370 . S
C667 C668 1.403 . S
C668 C667 1.403 . S
C668 C669 1.404 . S
C668 C671 1.539 . S
C669 C665 1.408 . S
C669 C668 1.404 . S
C669 H681 0.930 . S
C670 C666 1.524 . S
C670 H682 0.956 . S
C670 H683 0.961 . S
C670 H684 0.961 . S
C671 C668 1.539 . S
C671 H685 0.958 . S
C671 H686 0.961 . S
C671 H687 0.960 . S
H672 C656 0.931 . S
H673 C661 0.929 . S
H674 C662 0.960 . S
H675 C662 0.962 . S
H676 C662 0.960 . S
H677 C663 0.961 . S
H678 C663 0.961 . S
H679 C663 0.961 . S
H680 C664 0.931 . S
H681 C669 0.930 . S
H682 C670 0.956 . S
H683 C670 0.961 . S
H684 C670 0.961 . S
H685 C671 0.958 . S
H686 C671 0.961 . S
H687 C671 0.960 . S
C688 C689 1.391 . S
C688 C690 1.394 . S
C688 H704 0.931 . S
C689 C688 1.391 . S
C689 C693 1.376 . S
C690 C688 1.394 . S
C690 C691 1.369 . S
C690 C694 1.531 . S
C691 C690 1.369 . S
C691 C692 1.410 . S
C691 C699 1.503 . S
C692 C691 1.410 . S
C692 C693 1.392 . S
C692 C695 1.511 . S
C693 C689 1.376 . S
C693 C692 1.392 . S
C693 H705 0.929 . S
C694 C690 1.531 . S
C694 H706 0.960 . S
C694 H707 0.962 . S
C694 H708 0.960 . S
C695 C692 1.511 . S
C695 H709 0.961 . S
C695 H710 0.961 . S
C695 H711 0.961 . S
C696 C697 1.370 . S
C696 C698 1.363 . S
C696 H712 0.931 . S
C697 C696 1.370 . S
C697 C701 1.408 . S
C698 C696 1.363 . S
C698 C699 1.370 . S
C698 C702 1.524 . S
C699 C691 1.503 . S
C699 C698 1.370 . S
C699 C700 1.403 . S
C700 C699 1.403 . S
C700 C701 1.404 . S
C700 C703 1.539 . S
C701 C697 1.408 . S
C701 C700 1.404 . S
C701 H713 0.930 . S
C702 C698 1.524 . S
C702 H714 0.956 . S
C702 H715 0.961 . S
C702 H716 0.961 . S
C703 C700 1.539 . S
C703 H717 0.958 . S
C703 H718 0.961 . S
C703 H719 0.960 . S
H704 C688 0.931 . S
H705 C693 0.929 . S
H706 C694 0.960 . S
H707 C694 0.962 . S
H708 C694 0.960 . S
H709 C695 0.961 . S
H710 C695 0.961 . S
H711 C695 0.961 . S
H712 C696 0.931 . S
H713 C701 0.930 . S
H714 C702 0.956 . S
H715 C702 0.961 . S
H716 C702 0.961 . S
H717 C703 0.958 . S
H718 C703 0.961 . S
H719 C703 0.960 . S
C720 C721 1.391 . S
C720 C722 1.394 . S
C720 H736 0.931 . S
C721 C720 1.391 . S
C721 C725 1.376 . S
C722 C720 1.394 . S
C722 C723 1.369 . S
C722 C726 1.531 . S
C723 C722 1.369 . S
C723 C724 1.410 . S
C723 C731 1.503 . S
C724 C723 1.410 . S
C724 C725 1.392 . S
C724 C727 1.511 . S
C725 C721 1.376 . S
C725 C724 1.392 . S
C725 H737 0.929 . S
C726 C722 1.531 . S
C726 H738 0.960 . S
C726 H739 0.962 . S
C726 H740 0.960 . S
C727 C724 1.511 . S
C727 H741 0.961 . S
C727 H742 0.961 . S
C727 H743 0.961 . S
C728 C729 1.370 . S
C728 C730 1.363 . S
C728 H744 0.931 . S
C729 C728 1.370 . S
C729 C733 1.408 . S
C730 C728 1.363 . S
C730 C731 1.370 . S
C730 C734 1.524 . S
C731 C723 1.503 . S
C731 C730 1.370 . S
C731 C732 1.403 . S
C732 C731 1.403 . S
C732 C733 1.404 . S
C732 C735 1.539 . S
C733 C729 1.408 . S
C733 C732 1.404 . S
C733 H745 0.930 . S
C734 C730 1.524 . S
C734 H746 0.956 . S
C734 H747 0.961 . S
C734 H748 0.961 . S
C735 C732 1.539 . S
C735 H749 0.958 . S
C735 H750 0.961 . S
C735 H751 0.960 . S
H736 C720 0.931 . S
H737 C725 0.929 . S
H738 C726 0.960 . S
H739 C726 0.962 . S
H740 C726 0.960 . S
H741 C727 0.961 . S
H742 C727 0.961 . S
H743 C727 0.961 . S
H744 C728 0.931 . S
H745 C733 0.930 . S
H746 C734 0.956 . S
H747 C734 0.961 . S
H748 C734 0.961 . S
H749 C735 0.958 . S
H750 C735 0.961 . S
H751 C735 0.960 . S
C752 C753 1.391 . S
C752 C754 1.394 . S
C752 H768 0.931 . S
C753 C752 1.391 . S
C753 C757 1.376 . S
C754 C752 1.394 . S
C754 C755 1.369 . S
C754 C758 1.531 . S
C755 C754 1.369 . S
C755 C756 1.410 . S
C755 C763 1.503 . S
C756 C755 1.410 . S
C756 C757 1.392 . S
C756 C759 1.511 . S
C757 C753 1.376 . S
C757 C756 1.392 . S
C757 H769 0.929 . S
C758 C754 1.531 . S
C758 H770 0.960 . S
C758 H771 0.962 . S
C758 H772 0.960 . S
C759 C756 1.511 . S
C759 H773 0.961 . S
C759 H774 0.961 . S
C759 H775 0.961 . S
C760 C761 1.370 . S
C760 C762 1.363 . S
C760 H776 0.931 . S
C761 C760 1.370 . S
C761 C765 1.408 . S
C762 C760 1.363 . S
C762 C763 1.370 . S
C762 C766 1.524 . S
C763 C755 1.503 . S
C763 C762 1.370 . S
C763 C764 1.403 . S
C764 C763 1.403 . S
C764 C765 1.404 . S
C764 C767 1.539 . S
C765 C761 1.408 . S
C765 C764 1.404 . S
C765 H777 0.930 . S
C766 C762 1.524 . S
C766 H778 0.956 . S
C766 H779 0.961 . S
C766 H780 0.961 . S
C767 C764 1.539 . S
C767 H781 0.958 . S
C767 H782 0.961 . S
C767 H783 0.960 . S
H768 C752 0.931 . S
H769 C757 0.929 . S
H770 C758 0.960 . S
H771 C758 0.962 . S
H772 C758 0.960 . S
H773 C759 0.961 . S
H774 C759 0.961 . S
H775 C759 0.961 . S
H776 C760 0.931 . S
H777 C765 0.930 . S
H778 C766 0.956 . S
H779 C766 0.961 . S
H780 C766 0.961 . S
H781 C767 0.958 . S
H782 C767 0.961 . S
H783 C767 0.960 . S
C784 C785 1.391 . S
C784 C786 1.394 . S
C784 H800 0.931 . S
C785 C784 1.391 . S
C785 C789 1.376 . S
C786 C784 1.394 . S
C786 C787 1.369 . S
C786 C790 1.531 . S
C787 C786 1.369 . S
C787 C788 1.410 . S
C787 C795 1.503 . S
C788 C787 1.410 . S
C788 C789 1.392 . S
C788 C791 1.511 . S
C789 C785 1.376 . S
C789 C788 1.392 . S
C789 H801 0.929 . S
C790 C786 1.531 . S
C790 H802 0.960 . S
C790 H803 0.962 . S
C790 H804 0.960 . S
C791 C788 1.511 . S
C791 H805 0.961 . S
C791 H806 0.961 . S
C791 H807 0.961 . S
C792 C793 1.370 . S
C792 C794 1.363 . S
C792 H808 0.931 . S
C793 C792 1.370 . S
C793 C797 1.408 . S
C794 C792 1.363 . S
C794 C795 1.370 . S
C794 C798 1.524 . S
C795 C787 1.503 . S
C795 C794 1.370 . S
C795 C796 1.403 . S
C796 C795 1.403 . S
C796 C797 1.404 . S
C796 C799 1.539 . S
C797 C793 1.408 . S
C797 C796 1.404 . S
C797 H809 0.930 . S
C798 C794 1.524 . S
C798 H810 0.956 . S
C798 H811 0.961 . S
C798 H812 0.961 . S
C799 C796 1.539 . S
C799 H813 0.958 . S
C799 H814 0.961 . S
C799 H815 0.960 . S
H800 C784 0.931 . S
H801 C789 0.929 . S
H802 C790 0.960 . S
H803 C790 0.962 . S
H804 C790 0.960 . S
H805 C791 0.961 . S
H806 C791 0.961 . S
H807 C791 0.961 . S
H808 C792 0.931 . S
H809 C797 0.930 . S
H810 C798 0.956 . S
H811 C798 0.961 . S
H812 C798 0.961 . S
H813 C799 0.958 . S
H814 C799 0.961 . S
H815 C799 0.960 . S
C816 C817 1.391 . S
C816 C818 1.394 . S
C816 H832 0.931 . S
C817 C816 1.391 . S
C817 C821 1.376 . S
C818 C816 1.394 . S
C818 C819 1.369 . S
C818 C822 1.531 . S
C819 C818 1.369 . S
C819 C820 1.410 . S
C819 C827 1.503 . S
C820 C819 1.410 . S
C820 C821 1.392 . S
C820 C823 1.511 . S
C821 C817 1.376 . S
C821 C820 1.392 . S
C821 H833 0.929 . S
C822 C818 1.531 . S
C822 H834 0.960 . S
C822 H835 0.962 . S
C822 H836 0.960 . S
C823 C820 1.511 . S
C823 H837 0.961 . S
C823 H838 0.961 . S
C823 H839 0.961 . S
C824 C825 1.370 . S
C824 C826 1.363 . S
C824 H840 0.931 . S
C825 C824 1.370 . S
C825 C829 1.408 . S
C826 C824 1.363 . S
C826 C827 1.370 . S
C826 C830 1.524 . S
C827 C819 1.503 . S
C827 C826 1.370 . S
C827 C828 1.403 . S
C828 C827 1.403 . S
C828 C829 1.404 . S
C828 C831 1.539 . S
C829 C825 1.408 . S
C829 C828 1.404 . S
C829 H841 0.930 . S
C830 C826 1.524 . S
C830 H842 0.956 . S
C830 H843 0.961 . S
C830 H844 0.961 . S
C831 C828 1.539 . S
C831 H845 0.958 . S
C831 H846 0.961 . S
C831 H847 0.960 . S
H832 C816 0.931 . S
H833 C821 0.929 . S
H834 C822 0.960 . S
H835 C822 0.962 . S
H836 C822 0.960 . S
H837 C823 0.961 . S
H838 C823 0.961 . S
H839 C823 0.961 . S
H840 C824 0.931 . S
H841 C829 0.930 . S
H842 C830 0.956 . S
H843 C830 0.961 . S
H844 C830 0.961 . S
H845 C831 0.958 . S
H846 C831 0.961 . S
H847 C831 0.960 . S
C848 C849 1.391 . S
C848 C850 1.394 . S
C848 H864 0.931 . S
C849 C848 1.391 . S
C849 C853 1.376 . S
C850 C848 1.394 . S
C850 C851 1.369 . S
C850 C854 1.531 . S
C851 C850 1.369 . S
C851 C852 1.410 . S
C851 C859 1.503 . S
C852 C851 1.410 . S
C852 C853 1.392 . S
C852 C855 1.511 . S
C853 C849 1.376 . S
C853 C852 1.392 . S
C853 H865 0.929 . S
C854 C850 1.531 . S
C854 H866 0.960 . S
C854 H867 0.962 . S
C854 H868 0.960 . S
C855 C852 1.511 . S
C855 H869 0.961 . S
C855 H870 0.961 . S
C855 H871 0.961 . S
C856 C857 1.370 . S
C856 C858 1.363 . S
C856 H872 0.931 . S
C857 C856 1.370 . S
C857 C861 1.408 . S
C858 C856 1.363 . S
C858 C859 1.370 . S
C858 C862 1.524 . S
C859 C851 1.503 . S
C859 C858 1.370 . S
C859 C860 1.403 . S
C860 C859 1.403 . S
C860 C861 1.404 . S
C860 C863 1.539 . S
C861 C857 1.408 . S
C861 C860 1.404 . S
C861 H873 0.930 . S
C862 C858 1.524 . S
C862 H874 0.956 . S
C862 H875 0.961 . S
C862 H876 0.961 . S
C863 C860 1.539 . S
C863 H877 0.958 . S
C863 H878 0.961 . S
C863 H879 0.960 . S
H864 C848 0.931 . S
H865 C853 0.929 . S
H866 C854 0.960 . S
H867 C854 0.962 . S
H868 C854 0.960 . S
H869 C855 0.961 . S
H870 C855 0.961 . S
H871 C855 0.961 . S
H872 C856 0.931 . S
H873 C861 0.930 . S
H874 C862 0.956 . S
H875 C862 0.961 . S
H876 C862 0.961 . S
H877 C863 0.958 . S
H878 C863 0.961 . S
H879 C863 0.960 . S
C880 C881 1.391 . S
C880 C882 1.394 . S
C880 H896 0.931 . S
C881 C880 1.391 . S
C881 C885 1.376 . S
C882 C880 1.394 . S
C882 C883 1.369 . S
C882 C886 1.531 . S
C883 C882 1.369 . S
C883 C884 1.410 . S
C883 C891 1.503 . S
C884 C883 1.410 . S
C884 C885 1.392 . S
C884 C887 1.511 . S
C885 C881 1.376 . S
C885 C884 1.392 . S
C885 H897 0.929 . S
C886 C882 1.531 . S
C886 H898 0.960 . S
C886 H899 0.962 . S
C886 H900 0.960 . S
C887 C884 1.511 . S
C887 H901 0.961 . S
C887 H902 0.961 . S
C887 H903 0.961 . S
C888 C889 1.370 . S
C888 C890 1.363 . S
C888 H904 0.931 . S
C889 C888 1.370 . S
C889 C893 1.408 . S
C890 C888 1.363 . S
C890 C891 1.370 . S
C890 C894 1.524 . S
C891 C883 1.503 . S
C891 C890 1.370 . S
C891 C892 1.403 . S
C892 C891 1.403 . S
C892 C893 1.404 . S
C892 C895 1.539 . S
C893 C889 1.408 . S
C893 C892 1.404 . S
C893 H905 0.930 . S
C894 C890 1.524 . S
C894 H906 0.956 . S
C894 H907 0.961 . S
C894 H908 0.961 . S
C895 C892 1.539 . S
C895 H909 0.958 . S
C895 H910 0.961 . S
C895 H911 0.960 . S
H896 C880 0.931 . S
H897 C885 0.929 . S
H898 C886 0.960 . S
H899 C886 0.962 . S
H900 C886 0.960 . S
H901 C887 0.961 . S
H902 C887 0.961 . S
H903 C887 0.961 . S
H904 C888 0.931 . S
H905 C893 0.930 . S
H906 C894 0.956 . S
H907 C894 0.961 . S
H908 C894 0.961 . S
H909 C895 0.958 . S
H910 C895 0.961 . S
H911 C895 0.960 . S
C273 C5 0.769 . S
C281 C175 0.733 . S
C305 C209 0.710 . S
C313 C39 0.736 . S
C337 C243 0.762 . S
C345 C73 0.730 . S
C369 C141 0.725 . S
C377 C107 0.730 . S
C401 C111 0.888 . S
C409 C33 0.889 . S
C433 C67 0.861 . S
C441 C9 0.887 1_565 S
C465 C43 0.915 . S
C473 C101 0.902 . S
C497 C135 0.883 . S
C505 C77 0.895 . S
C529 C179 0.863 1_655 S
C537 C169 0.875 . S
C561 C203 0.928 . S
C569 C213 0.911 . S
C593 C237 0.933 . S
C601 C247 0.912 . S
C625 C271 0.853 . S
C633 C145 0.886 . S
C657 C206 1.193 . S
C665 C20 1.243 . S
C689 C240 1.211 . S
C697 C54 1.245 . S
C721 C88 1.238 . S
C729 C138 1.212 . S
C753 C122 1.242 . S
C761 C172 1.219 . S
C785 C156 1.244 . S
C793 C70 1.225 . S
C817 C104 1.190 . S
C825 C190 1.243 . S
C849 C224 1.239 . S
C857 C2 1.216 . S
C881 C36 1.245 . S
C889 C258 1.246 . S
