# Generated by pormake.
# Topology irl, (4)-cn, num edge types: 1
# Building blocks:
#     Node 0, Type 0, BuildingBlock: ESEHIV_clean_sbu_0, # of connection points: 4
#     Node 1, Type 0, BuildingBlock: ESEHIV_clean_sbu_0, # of connection points: 4
#     Node 2, Type 0, BuildingBlock: ESEHIV_clean_sbu_0, # of connection points: 4
#     Node 3, Type 0, BuildingBlock: ESEHIV_clean_sbu_0, # of connection points: 4
#     Node 4, Type 0, BuildingBlock: ESEHIV_clean_sbu_0, # of connection points: 4
#     Node 5, Type 0, BuildingBlock: ESEHIV_clean_sbu_0, # of connection points: 4
#     Node 6, Type 0, BuildingBlock: ESEHIV_clean_sbu_0, # of connection points: 4
#     Node 7, Type 0, BuildingBlock: ESEHIV_clean_sbu_0, # of connection points: 4
#     Edge 8, Type (0, 0), BuildingBlock: ZUJKAS_clean_linker_0, # of connection points: 2
#     Edge 9, Type (0, 0), BuildingBlock: ZUJKAS_clean_linker_0, # of connection points: 2
#     Edge 10, Type (0, 0), BuildingBlock: ZUJKAS_clean_linker_0, # of connection points: 2
#     Edge 11, Type (0, 0), BuildingBlock: ZUJKAS_clean_linker_0, # of connection points: 2
#     Edge 12, Type (0, 0), BuildingBlock: ZUJKAS_clean_linker_0, # of connection points: 2
#     Edge 13, Type (0, 0), BuildingBlock: ZUJKAS_clean_linker_0, # of connection points: 2
#     Edge 14, Type (0, 0), BuildingBlock: ZUJKAS_clean_linker_0, # of connection points: 2
#     Edge 15, Type (0, 0), BuildingBlock: ZUJKAS_clean_linker_0, # of connection points: 2
#     Edge 16, Type (0, 0), BuildingBlock: ZUJKAS_clean_linker_0, # of connection points: 2
#     Edge 17, Type (0, 0), BuildingBlock: ZUJKAS_clean_linker_0, # of connection points: 2
#     Edge 18, Type (0, 0), BuildingBlock: ZUJKAS_clean_linker_0, # of connection points: 2
#     Edge 19, Type (0, 0), BuildingBlock: ZUJKAS_clean_linker_0, # of connection points: 2
#     Edge 20, Type (0, 0), BuildingBlock: ZUJKAS_clean_linker_0, # of connection points: 2
#     Edge 21, Type (0, 0), BuildingBlock: ZUJKAS_clean_linker_0, # of connection points: 2
#     Edge 22, Type (0, 0), BuildingBlock: ZUJKAS_clean_linker_0, # of connection points: 2
#     Edge 23, Type (0, 0), BuildingBlock: ZUJKAS_clean_linker_0, # of connection points: 2
# Relax obj value: 0.081
# Max RMSD: 0.129
# Mean RMSD: 0.129
data_MOF--net-irl--node1-ESEHIV_clean_sbu_0--edge1-ZUJKAS_clean_linker_0
_symmetry_space_group_name_H-M    P1
_symmetry_Int_Tables_number       1
_symmetry_cell_setting            triclinic
loop_
_symmetry_equiv_pos_as_xyz
'x, y, z'
_cell_length_a     13.276917
_cell_length_b     83.635317
_cell_length_c     38.004217
_cell_angle_alpha  89.938649
_cell_angle_beta   90.063457
_cell_angle_gamma 89.811628
loop_
_atom_site_label
_atom_site_type_symbol
_atom_site_fract_x
_atom_site_fract_y
_atom_site_fract_z
_atom_type_partial_charge
Cu0 Cu 0.0279 0.15067 0.04101 0.0
N1 N 0.93361 0.13429 0.03564 0.0
N2 N 0.89273 0.10836 0.03181 0.0
C3 C 0.95765 0.11922 0.04486 0.0
C4 C 0.82429 0.11705 1.01352 0.0
C5 C 0.84997 0.13307 0.01583 0.0
O6 O 0.08867 0.147 0.08732 0.0
C7 C 0.07108 0.15526 0.97105 0.0
O8 O 0.99016 0.16415 0.97467 0.0
H9 H 0.02701 0.11622 0.05836 0.0
H10 H 0.81455 0.14293 1.00206 0.0
N11 N 0.97999 0.17178 0.04314 0.0
N12 N 0.99385 0.19846 0.04495 0.0
C13 C 0.04175 0.18442 0.03966 0.0
C14 C 0.88916 0.17797 0.05112 0.0
C15 C 0.89759 0.19448 0.05234 0.0
C16 C 0.0211 0.14602 0.11118 0.0
O17 O 0.92618 0.14744 0.10185 0.0
H18 H 0.12156 0.18324 0.03442 0.0
H19 H 0.8224 0.171 0.05645 0.0
O20 O 0.10881 0.14846 0.9982 0.0
H21 H 0.76287 0.11217 0.99823 0.0
H22 H 0.83775 0.20286 0.05834 0.0
Cu23 Cu 0.96396 0.89971 0.05112 0.0
N24 N 0.06351 0.91504 0.04321 0.0
N25 N 0.11349 0.9404 0.03622 0.0
C26 C 0.03738 0.9299 0.03307 0.0
C27 C 0.1916 0.93179 0.04907 0.0
C28 C 0.16054 0.91608 0.0533 0.0
O29 O 0.9324 0.90146 0.10121 0.0
C30 C 0.8328 0.89713 0.992 0.0
O31 O 0.82759 0.88167 0.99761 0.0
H32 H 0.96079 0.93329 0.02671 0.0
H33 H 0.20343 0.90646 0.06511 0.0
N34 N 0.00083 0.87843 0.04191 0.0
N35 N 0.98006 0.8519 0.0383 0.0
C36 C 0.94459 0.86578 0.05157 0.0
C37 C 0.07607 0.87236 0.0223 0.0
C38 C 0.06366 0.85595 0.02015 0.0
C39 C 0.00022 0.89557 0.1213 0.0
O40 O 0.07788 0.8884 0.10675 0.0
H41 H 0.87631 0.8669 0.06692 0.0
H42 H 0.13327 0.87941 1.00935 0.0
O43 O 0.86145 0.90622 0.01698 0.0
H44 H 0.26418 0.93663 0.05637 0.0
H45 H 0.10955 0.84778 1.00492 0.0
Cu46 Cu 0.02696 0.90994 0.56474 0.0
N47 N 0.93614 0.92697 0.5696 0.0
N48 N 0.89837 0.95307 0.57333 0.0
C49 C 0.96596 0.94201 0.56273 0.0
C50 C 0.82222 0.94454 0.58762 0.0
C51 C 0.84589 0.9284 0.58535 0.0
O52 O 0.09227 0.91331 0.51922 0.0
C53 C 0.05918 0.9051 0.63472 0.0
O54 O 0.97264 0.89792 0.62968 0.0
H55 H 0.03966 0.94475 0.55224 0.0
H56 H 0.80305 0.91855 0.59603 0.0
N57 N 0.97616 0.88907 0.56164 0.0
N58 N 0.98827 0.86232 0.55912 0.0
C59 C 0.03737 0.87626 0.5641 0.0
C60 C 0.88412 0.88317 0.55481 0.0
C61 C 0.89129 0.86664 0.55338 0.0
C62 C 0.02701 0.9151 0.49476 0.0
O63 O 0.93103 0.91469 0.50307 0.0
H64 H 0.11703 0.8773 0.56957 0.0
H65 H 0.81724 0.89034 0.55057 0.0
O66 O 0.10482 0.91119 0.60835 0.0
H67 H 0.75569 0.94957 0.59982 0.0
H68 H 0.83013 0.85852 0.54771 0.0
Cu69 Cu 0.96682 0.16044 0.55588 0.0
N70 N 0.0726 0.1464 0.56563 0.0
N71 N 0.12062 0.12098 0.57486 0.0
C72 C 0.06622 0.13113 0.55468 0.0
C73 C 0.16482 0.13039 0.59928 0.0
C74 C 0.13446 0.14604 0.59368 0.0
O75 O 0.93844 0.1574 0.50589 0.0
C76 C 0.84415 0.16113 0.61706 0.0
O77 O 0.84169 0.17677 0.61444 0.0
H78 H 0.01122 0.1273 0.53543 0.0
H79 H 0.14662 0.15599 0.61132 0.0
N80 N 0.99455 0.18227 0.56266 0.0
N81 N 0.96743 0.20873 0.56334 0.0
C82 C 0.92768 0.19419 0.55701 0.0
C83 C 0.08049 0.18957 0.57231 0.0
C84 C 0.06398 0.20592 0.57269 0.0
C85 C 0.01243 0.16154 0.4865 0.0
O86 O 0.09283 0.16745 0.50187 0.0
H87 H 0.85088 0.19218 0.54852 0.0
H88 H 0.15014 0.18345 0.57857 0.0
O89 O 0.86845 0.15288 0.59017 0.0
H90 H 0.20887 0.12616 0.6214 0.0
H91 H 0.11805 0.21499 0.57999 0.0
Cu92 Cu 0.52088 0.65075 0.04616 0.0
N93 N 0.42673 0.63433 0.04029 0.0
N94 N 0.38521 0.60852 0.03485 0.0
C95 C 0.45922 0.61946 0.03293 0.0
C96 C 0.30172 0.61688 0.04363 0.0
C97 C 0.32742 0.63288 0.04674 0.0
O98 O 0.5834 0.64679 0.09211 0.0
C99 C 0.55528 0.65485 0.97635 0.0
O100 O 0.46816 0.66201 0.98093 0.0
H101 H 0.53779 0.61659 0.02853 0.0
H102 H 0.27845 0.64252 0.05496 0.0
N103 N 0.47446 0.67196 0.04856 0.0
N104 N 0.49157 0.69864 0.05033 0.0
C105 C 0.53831 0.68439 0.04628 0.0
C106 C 0.38315 0.67847 0.05423 0.0
C107 C 0.39343 0.69494 0.05524 0.0
C108 C 0.51714 0.64667 0.11649 0.0
O109 O 0.42267 0.64919 0.10783 0.0
H110 H 0.61805 0.68284 0.04159 0.0
H111 H 0.31447 0.67177 0.05792 0.0
O112 O 0.60081 0.64899 1.00309 0.0
H113 H 0.22826 0.61176 0.04848 0.0
H114 H 0.33341 0.70344 0.06002 0.0
Cu115 Cu 0.46905 0.39835 0.05775 0.0
N116 N 0.56305 0.41456 0.05057 0.0
N117 N 0.60424 0.44043 0.04518 0.0
C118 C 0.53813 0.42976 0.05827 0.0
C119 C 0.67464 0.43148 0.02859 0.0
C120 C 0.64888 0.4155 0.0319 0.0
O121 O 0.43932 0.3991 0.10797 0.0
C122 C 0.33044 0.39502 1.00169 0.0
O123 O 0.32119 0.37983 1.00973 0.0
H124 H 0.46781 0.43292 0.07089 0.0
H125 H 0.6869 0.40547 0.01983 0.0
N126 N 0.51023 0.37744 0.04654 0.0
N127 N 0.49232 0.35083 0.04154 0.0
C128 C 0.46205 0.3643 0.05822 0.0
C129 C 0.57469 0.37217 0.02186 0.0
C130 C 0.56429 0.35579 0.01887 0.0
C131 C 0.51146 0.39394 0.12713 0.0
O132 O 0.59227 0.38824 0.11156 0.0
H133 H 0.39995 0.36494 0.07656 0.0
H134 H 0.62141 0.37974 1.00567 0.0
O135 O 0.36338 0.40462 0.02498 0.0
H136 H 0.73803 0.43612 0.01396 0.0
H137 H 0.60409 0.34831 1.00028 0.0
Cu138 Cu 0.51442 0.4076 0.56662 0.0
N139 N 0.43018 0.42553 0.57101 0.0
N140 N 0.39715 0.45178 0.57435 0.0
C141 C 0.46771 0.44042 0.56884 0.0
C142 C 0.31118 0.44363 0.5806 0.0
C143 C 0.33179 0.42739 0.57847 0.0
O144 O 0.59373 0.41097 0.52379 0.0
C145 C 0.51914 0.40176 0.63627 0.0
O146 O 0.42685 0.39801 0.62702 0.0
H147 H 0.54662 0.44279 0.56411 0.0
H148 H 0.27935 0.41769 0.5825 0.0
N149 N 0.45413 0.38761 0.55911 0.0
N150 N 0.45892 0.36095 0.55328 0.0
C151 C 0.499 0.37386 0.56919 0.0
C152 C 0.3825 0.38326 0.53595 0.0
C153 C 0.38541 0.36679 0.53227 0.0
C154 C 0.54012 0.41566 0.49774 0.0
O155 O 0.44375 0.41837 0.50271 0.0
H156 H 0.56592 0.37348 0.58549 0.0
H157 H 0.33676 0.39149 0.52083 0.0
O158 O 0.58052 0.40644 0.61256 0.0
H159 H 0.23866 0.44899 0.58623 0.0
H160 H 0.34043 0.35975 0.5143 0.0
Cu161 Cu 0.46618 0.6596 0.56101 0.0
N162 N 0.56884 0.64529 0.57286 0.0
N163 N 0.6149 0.61984 0.58264 0.0
C164 C 0.5644 0.63007 0.56146 0.0
C165 C 0.6544 0.62912 0.60824 0.0
C166 C 0.62522 0.64478 0.60229 0.0
O167 O 0.44382 0.65673 0.51062 0.0
C168 C 0.33305 0.66105 0.61892 0.0
O169 O 0.32446 0.67655 0.61438 0.0
H170 H 0.51333 0.62633 0.54085 0.0
H171 H 0.63394 0.65461 0.62049 0.0
N172 N 0.49461 0.68131 0.56893 0.0
N173 N 0.46749 0.7078 0.57076 0.0
C174 C 0.43292 0.69347 0.55971 0.0
C175 C 0.57227 0.68819 0.58584 0.0
C176 C 0.55582 0.70452 0.58697 0.0
C177 C 0.52015 0.66052 0.49203 0.0
O178 O 0.60007 0.66615 0.50821 0.0
H179 H 0.36253 0.69172 0.54588 0.0
H180 H 0.63522 0.6818 0.59724 0.0
O181 O 0.36105 0.65245 0.59305 0.0
H182 H 0.69419 0.62478 0.63122 0.0
H183 H 0.60342 0.7132 0.5999 0.0
H184 H 0.20134 0.96351 0.07596 0.0
H185 H 0.16386 0.99228 0.07407 0.0
H186 H 0.96624 0.98475 0.98554 0.0
H187 H 0.00226 0.95606 0.98774 0.0
H188 H 0.18359 1.01574 0.02405 0.0
H189 H 0.77915 1.00678 0.05403 0.0
H190 H 0.87095 0.99094 0.05801 0.0
H191 H 0.82003 0.99616 0.01561 0.0
C192 C 0.1512 0.96805 0.05579 0.0
C193 C 0.10389 0.95751 0.03223 0.0
C194 C 0.12928 0.98447 0.05485 0.0
C195 C 0.0599 0.99065 0.0303 0.0
C196 C 0.01738 0.98024 1.00546 0.0
H197 H 0.82682 0.08631 0.98422 0.0
H198 H 0.86549 0.05761 0.98385 0.0
C199 C 0.03854 0.96386 1.00658 0.0
C200 C 0.03066 1.00788 0.03091 0.0
H201 H 0.82794 0.03309 0.03775 0.0
C202 C 0.1059 1.01952 0.02721 0.0
C203 C 0.92914 1.01286 0.03511 0.0
C204 C 0.84526 1.00105 0.04127 0.0
C205 C 0.08228 0.03593 0.02696 0.0
C206 C 0.98082 0.04087 0.03087 0.0
C207 C 0.90554 1.02927 0.03453 0.0
C208 C 0.95201 0.05807 0.03209 0.0
C209 C 0.16593 0.04789 0.02199 0.0
C210 C 0.98478 0.06774 0.05993 0.0
C211 C 0.96192 0.08407 0.06042 0.0
C212 C 0.90591 0.09117 0.03301 0.0
C213 C 0.86962 0.0813 1.00583 0.0
C214 C 0.89226 0.0649 1.00545 0.0
H215 H 0.23534 0.0422 1.01145 0.0
H216 H 0.14216 0.05761 1.00382 0.0
H217 H 0.18456 0.05337 0.04775 0.0
H218 H 0.02897 0.06266 0.08119 0.0
H219 H 0.9892 0.09118 0.08219 0.0
H220 H 0.01633 0.97005 0.52867 0.0
H221 H 0.05473 0.99852 0.53128 0.0
H222 H 0.85112 1.00403 0.61865 0.0
H223 H 0.81353 0.97534 0.61678 0.0
H224 H 0.83557 1.02839 0.56378 0.0
H225 H 0.22823 1.0194 0.61036 0.0
H226 H 0.19455 1.00804 0.57202 0.0
H227 H 0.13359 1.00399 0.61323 0.0
C228 C 0.98002 0.97722 0.54868 0.0
C229 C 0.91287 0.97024 0.57288 0.0
C230 C 0.00208 0.99355 0.55006 0.0
C231 C 0.95741 1.00336 0.57559 0.0
C232 C 0.88711 0.99665 0.5989 0.0
H233 H 0.13847 0.10076 0.631 0.0
H234 H 0.10062 0.07213 0.63203 0.0
C235 C 0.86524 0.98024 0.59765 0.0
C236 C 0.98483 1.02058 0.57781 0.0
H237 H 0.1833 0.04572 0.59247 0.0
C238 C 0.91139 0.03219 0.57023 0.0
C239 C 0.08361 1.02554 0.58658 0.0
C240 C 0.16455 1.01363 0.59633 0.0
C241 C 0.93482 0.04859 0.57022 0.0
C242 C 0.03452 0.05352 0.57776 0.0
C243 C 0.10721 0.04193 0.58635 0.0
C244 C 0.06453 0.07066 0.57663 0.0
C245 C 0.85252 0.06055 0.56229 0.0
C246 C 0.06039 0.07924 0.54491 0.0
C247 C 0.0831 0.09557 0.54414 0.0
C248 C 0.11042 0.10374 0.57509 0.0
C249 C 0.11867 0.09493 0.60659 0.0
C250 C 0.09625 0.07855 0.60729 0.0
H251 H 0.77643 0.05523 0.56535 0.0
H252 H 0.85841 0.07112 0.57982 0.0
H253 H 0.86021 0.06473 0.53471 0.0
H254 H 0.03833 0.07334 0.52076 0.0
H255 H 0.07765 0.10188 0.51933 0.0
H256 H 0.28781 0.58555 0.0722 0.0
H257 H 0.327 0.55684 0.07305 0.0
H258 H 0.5521 0.56403 0.99291 0.0
H259 H 0.51438 0.59267 0.99246 0.0
H260 H 0.32232 0.53327 0.02393 0.0
H261 H 0.7164 0.54202 0.06793 0.0
H262 H 0.62494 0.55801 0.06786 0.0
H263 H 0.68797 0.5524 0.02779 0.0
C264 C 0.34473 0.58096 0.05449 0.0
C265 C 0.39881 0.5914 0.03255 0.0
C266 C 0.36753 0.56456 0.05511 0.0
C267 C 0.44459 0.5583 0.03375 0.0
C268 C 0.49479 0.56861 1.0105 0.0
H269 H 0.67866 0.46183 0.99762 0.0
H270 H 0.64237 0.49058 0.99486 0.0
C271 C 0.47274 0.58497 1.01011 0.0
C272 C 0.47294 0.54105 0.03586 0.0
H273 H 0.67163 0.51567 0.05045 0.0
C274 C 0.39859 0.52945 0.02989 0.0
C275 C 0.57258 0.53599 0.04374 0.0
C276 C 0.65485 0.54774 0.05255 0.0
C277 C 0.4214 0.51302 0.03101 0.0
C278 C 0.52105 0.50801 0.03851 0.0
C279 C 0.59549 0.51955 0.04444 0.0
C280 C 0.54838 0.4908 0.04129 0.0
C281 C 0.33902 0.50108 0.02372 0.0
C282 C 0.51029 0.4815 0.06892 0.0
C283 C 0.5318 0.46515 0.07082 0.0
C284 C 0.5916 0.45764 0.04502 0.0
C285 C 0.63284 0.46715 0.01804 0.0
C286 C 0.61163 0.48358 0.01629 0.0
H287 H 0.27199 0.50679 1.01141 0.0
H288 H 0.36673 0.49142 1.00617 0.0
H289 H 0.31513 0.49551 0.04886 0.0
H290 H 0.46301 0.48689 0.0889 0.0
H291 H 0.5006 0.45835 0.09243 0.0
H292 H 0.2917 0.47449 0.6103 0.0
H293 H 0.32755 0.50324 0.61269 0.0
H294 H 0.57597 0.49661 0.54118 0.0
H295 H 0.5404 0.46806 0.53847 0.0
H296 H 0.6273 0.51464 0.59986 0.0
H297 H 0.27674 0.53766 0.53766 0.0
H298 H 0.25779 0.52458 0.57459 0.0
H299 H 0.31419 0.51692 0.53508 0.0
C300 C 0.35299 0.47919 0.59471 0.0
C301 C 0.41344 0.46889 0.57437 0.0
C302 C 0.3735 0.49564 0.59611 0.0
C303 C 0.45426 0.50213 0.57697 0.0
C304 C 0.51361 0.4919 0.55631 0.0
H305 H 0.58456 0.60095 0.52577 0.0
H306 H 0.54861 0.57228 0.52552 0.0
C307 C 0.49331 0.47553 0.55492 0.0
C308 C 0.47943 0.51946 0.579 0.0
H309 H 0.38966 0.55689 0.56042 0.0
C310 C 0.57523 0.52389 0.59132 0.0
C311 C 0.41196 0.53152 0.56749 0.0
C312 C 0.30969 0.5275 0.55266 0.0
C313 C 0.60525 0.54 0.59252 0.0
C314 C 0.53727 0.55207 0.58148 0.0
C315 C 0.44157 0.54765 0.56907 0.0
C316 C 0.56459 0.56933 0.58179 0.0
C317 C 0.71038 0.54394 0.60478 0.0
C318 C 0.5865 0.57724 0.61348 0.0
C319 C 0.60695 0.59368 0.61371 0.0
C320 C 0.60534 0.60259 0.58224 0.0
C321 C 0.58555 0.59452 0.5505 0.0
C322 C 0.56502 0.57811 0.5503 0.0
H323 H 0.76056 0.53328 0.60431 0.0
H324 H 0.74414 0.55343 0.58812 0.0
H325 H 0.70716 0.54841 0.63223 0.0
H326 H 0.58499 0.57078 0.63819 0.0
H327 H 0.62 0.59947 0.63873 0.0
H328 H 0.90423 0.1315 0.15939 0.0
H329 H 0.91857 0.1327 0.2232 0.0
H330 H 0.20091 0.15766 0.21344 0.0
H331 H 0.18618 0.15662 0.14878 0.0
H332 H 0.06102 0.12272 0.27262 0.0
H333 H 0.02145 0.18895 0.26919 0.0
H334 H -0.0022 0.17662 0.23116 0.0
H335 H 0.12486 0.18079 0.24447 0.0
C336 C 0.97039 0.13703 0.17075 0.0
C337 C 0.04369 0.14411 0.1491 0.0
C338 C 0.97848 0.13768 0.20729 0.0
C339 C 0.05964 0.14554 0.22315 0.0
C340 C 0.13663 0.15177 0.2017 0.0
H341 H 0.15367 0.17226 0.44068 0.0
H342 H 0.16439 0.16781 0.3776 0.0
C343 C 0.12884 0.15103 0.16483 0.0
C344 C 0.05846 0.148 0.26192 0.0
H345 H 0.03336 0.17685 0.32493 0.0
C346 C 0.05559 0.13455 0.28411 0.0
C347 C 0.05001 0.16344 0.27685 0.0
C348 C 0.04781 0.17831 0.25429 0.0
C349 C 0.04547 0.13614 0.3208 0.0
C350 C 0.03608 0.15158 0.33565 0.0
C351 C 0.03995 0.16502 0.31349 0.0
C352 C 0.02674 0.15416 0.37426 0.0
C353 C 0.04651 0.1213 0.34339 0.0
C354 C 0.94452 0.14819 0.39352 0.0
C355 C 0.93786 0.15073 0.43 0.0
C356 C 0.01334 0.15933 0.44771 0.0
C357 C 0.09426 0.16551 0.42807 0.0
C358 C 0.10067 0.163 0.39186 0.0
H359 H 0.07752 0.11082 0.32904 0.0
H360 H 0.0918 0.12321 0.3676 0.0
H361 H 0.9683 0.11843 0.35142 0.0
H362 H 0.88545 0.14159 0.38036 0.0
H363 H 0.87456 0.14584 0.44432 0.0
H364 H 0.9291 0.93274 0.44626 0.0
H365 H 0.94064 0.93047 0.38244 0.0
H366 H 0.19096 0.89785 0.39355 0.0
H367 H 0.17918 0.90006 0.45811 0.0
H368 H 0.09278 0.93502 0.33141 0.0
H369 H 0.97184 0.87156 0.342 0.0
H370 H 0.9647 0.88525 0.37858 0.0
H371 H 0.08381 0.87682 0.36591 0.0
C372 C 0.98828 0.92537 0.43512 0.0
C373 C 0.05299 0.91651 0.45709 0.0
C374 C 0.99469 0.92408 0.39862 0.0
C375 C 0.06523 0.91376 0.38322 0.0
C376 C 0.13488 0.90571 0.40497 0.0
H377 H 0.11946 0.88033 0.16876 0.0
H378 H 0.13363 0.88514 0.23168 0.0
C379 C 0.12901 0.90712 0.44176 0.0
C380 C 0.05905 0.91061 0.34479 0.0
H381 H 0.99573 0.88183 0.28501 0.0
C382 C 0.07215 0.92337 0.3212 0.0
C383 C 0.03075 0.89545 0.33157 0.0
C384 C 0.01105 0.88148 0.35573 0.0
C385 C 0.05896 0.92135 0.28474 0.0
C386 C 0.02978 0.90622 0.27157 0.0
C387 C 0.01743 0.89344 0.29515 0.0
C388 C 0.01658 0.90316 0.23329 0.0
C389 C 0.07814 0.93533 0.26058 0.0
C390 C 0.94393 0.9114 0.21319 0.0
C391 C 0.9353 0.90865 0.17684 0.0
C392 C -0.00075 0.89759 0.16011 0.0
C393 C 0.06936 0.88902 0.18066 0.0
C394 C 0.07768 0.89174 0.21675 0.0
H395 H 0.12229 0.94486 0.27379 0.0
H396 H 0.11928 0.93144 0.23662 0.0
H397 H 0.005 0.94055 0.25221 0.0
H398 H 0.89442 0.92003 0.22556 0.0
H399 H 0.88057 0.91543 0.16179 0.0
H400 H 0.0591 0.9339 0.66739 0.0
H401 H 0.03666 0.93783 0.73099 0.0
H402 H 0.08685 0.88747 0.74819 0.0
H403 H 0.10707 0.88352 0.68479 0.0
H404 H 0.87226 0.91954 0.76407 0.0
H405 H 0.23976 0.9103 0.8311 0.0
H406 H 0.22989 0.91684 0.78584 0.0
H407 H 0.21107 0.89619 0.79687 0.0
C408 C 0.07085 0.92387 0.685 0.0
C409 C 0.08727 0.90847 0.6714 0.0
C410 C 0.05667 0.92607 0.72125 0.0
C411 C 0.0605 0.91295 0.74434 0.0
C412 C 0.08516 0.8978 0.73097 0.0
H413 H 0.77688 0.8815 0.93194 0.0
H414 H 0.8258 0.88804 0.87158 0.0
C415 C 0.09757 0.89557 0.69478 0.0
C416 C 0.02376 0.91441 0.78111 0.0
H417 H 0.09215 0.90801 0.86666 0.0
C418 C 0.92064 0.9173 0.78658 0.0
C419 C 0.08682 0.91144 0.81039 0.0
C420 C 0.1983 0.90863 0.80597 0.0
C421 C 0.87823 0.91659 0.82042 0.0
C422 C 0.94054 0.91294 0.8495 0.0
C423 C 0.04442 0.91076 0.84427 0.0
C424 C 0.89861 0.91028 0.88522 0.0
C425 C 0.76674 0.91939 0.82488 0.0
C426 C 0.92069 0.92086 0.91276 0.0
C427 C 0.89148 0.91727 0.94728 0.0
C428 C 0.84159 0.90285 0.95504 0.0
C429 C 0.81512 0.8927 0.92701 0.0
C430 C 0.84321 0.8964 0.89246 0.0
H431 H 0.73273 0.92513 0.8013 0.0
H432 H 0.72882 0.90775 0.82924 0.0
H433 H 0.75201 0.92702 0.84822 0.0
H434 H 0.96332 0.93164 0.9077 0.0
H435 H 0.91323 0.92539 0.96803 0.0
H436 H 0.07544 0.12551 0.94209 0.0
H437 H 0.05737 0.11975 0.87896 0.0
H438 H 0.10029 0.16971 0.85541 0.0
H439 H 0.11664 0.17545 0.91818 0.0
H440 H 0.89503 0.13487 0.84212 0.0
H441 H 0.25895 0.1469 0.77629 0.0
H442 H 0.24986 0.14216 0.82261 0.0
H443 H 0.22327 0.16209 0.80731 0.0
C444 C 0.08641 0.13508 0.92324 0.0
C445 C 0.0995 0.15088 0.93485 0.0
C446 C 0.07478 0.13182 0.88723 0.0
C447 C 0.07803 0.14428 0.86239 0.0
C448 C 0.09933 0.15985 0.87392 0.0
H449 H 0.77423 0.1731 0.67908 0.0
H450 H 0.82689 0.16533 0.73837 0.0
C451 C 0.10924 0.16313 0.90981 0.0
C452 C 0.04385 0.14175 0.82552 0.0
H453 H 0.11027 0.14883 0.7401 0.0
C454 C 0.94273 0.13757 0.81975 0.0
C455 C 0.10591 0.14524 0.79631 0.0
C456 C 0.21584 0.14921 0.80082 0.0
C457 C 0.90063 0.13776 0.78577 0.0
C458 C 0.96107 0.14226 0.75684 0.0
C459 C 0.06372 0.14546 0.76233 0.0
C460 C 0.91745 0.14523 0.72137 0.0
C461 C 0.79099 0.1336 0.78117 0.0
C462 C 0.94886 0.13628 0.69211 0.0
C463 C 0.91749 0.14055 0.65812 0.0
C464 C 0.856 0.15411 0.65275 0.0
C465 C 0.82103 0.16256 0.6823 0.0
C466 C 0.85117 0.15814 0.71624 0.0
H467 H 0.76235 0.12644 0.80365 0.0
H468 H 0.74606 0.14479 0.77964 0.0
H469 H 0.77887 0.12681 0.75644 0.0
H470 H 0.00037 0.12632 0.69547 0.0
H471 H 0.94676 0.13386 0.63598 0.0
H472 H 0.39491 0.63411 0.16572 0.0
H473 H 0.41445 0.63484 0.22933 0.0
H474 H 0.7106 0.65517 0.21743 0.0
H475 H 0.69061 0.65465 0.15288 0.0
H476 H 0.55199 0.62222 0.27685 0.0
H477 H 0.55903 0.68874 0.27626 0.0
H478 H 0.52461 0.67727 0.23793 0.0
H479 H 0.65456 0.67898 0.25051 0.0
C480 C 0.46502 0.63855 0.17652 0.0
C481 C 0.54091 0.64448 0.15429 0.0
C482 C 0.47607 0.63892 0.21298 0.0
C483 C 0.56302 0.64534 0.22825 0.0
C484 C 0.64197 0.65042 0.20619 0.0
H485 H 0.67145 0.66899 0.44768 0.0
H486 H 0.68363 0.66468 0.38452 0.0
C487 C 0.63108 0.64996 0.16936 0.0
C488 C 0.5663 0.64747 0.26712 0.0
H489 H 0.56261 0.67603 0.33139 0.0
C490 C 0.55512 0.63397 0.28881 0.0
C491 C 0.56924 0.66283 0.28271 0.0
C492 C 0.57671 0.67783 0.26077 0.0
C493 C 0.54689 0.63541 0.32558 0.0
C494 C 0.54805 0.65078 0.34109 0.0
C495 C 0.56107 0.66425 0.31947 0.0
C496 C 0.53864 0.65319 0.37976 0.0
C497 C 0.53811 0.62044 0.34754 0.0
C498 C 0.45209 0.64837 0.39827 0.0
C499 C 0.44463 0.65084 0.43474 0.0
C500 C 0.52353 0.65823 0.45326 0.0
C501 C 0.60918 0.66322 0.43442 0.0
C502 C 0.61646 0.66077 0.39818 0.0
H503 H 0.56354 0.60967 0.33287 0.0
H504 H 0.5831 0.62144 0.37208 0.0
H505 H 0.45812 0.61867 0.35497 0.0
H506 H 0.39007 0.64279 0.38449 0.0
H507 H 0.3776 0.64689 0.4484 0.0
H508 H 0.6699 0.3949 0.46459 0.0
H509 H 0.68718 0.39177 0.40045 0.0
H510 H 0.50133 0.43357 0.38453 0.0
H511 H 0.48563 0.43682 0.44789 0.0
H512 H 0.52507 0.38575 0.35862 0.0
H513 H 0.71104 0.4405 0.31017 0.0
H514 H 0.71447 0.43466 0.35591 0.0
H515 H 0.6069 0.44517 0.33836 0.0
C516 C 0.63684 0.4038 0.44731 0.0
C517 C 0.57706 0.41616 0.46112 0.0
C518 C 0.6457 0.40192 0.41071 0.0
C519 C 0.59608 0.4125 0.38756 0.0
C520 C 0.54216 0.42544 0.40161 0.0
H521 H 0.39779 0.41392 0.16899 0.0
H522 H 0.41587 0.41792 0.23288 0.0
C523 C 0.533 0.42727 0.43793 0.0
C524 C 0.58861 0.40903 0.34923 0.0
H525 H 0.61144 0.42606 0.26779 0.0
C526 C 0.54548 0.39447 0.33875 0.0
C527 C 0.61402 0.42048 0.32324 0.0
C528 C 0.66509 0.436 0.33248 0.0
C529 C 0.52455 0.39124 0.3032 0.0
C530 C 0.54784 0.40283 0.27739 0.0
C531 C 0.59228 0.41729 0.28771 0.0
C532 C 0.53134 0.39982 0.23934 0.0
C533 C 0.47536 0.37561 0.29352 0.0
C534 C 0.58952 0.38827 0.222 0.0
C535 C 0.57966 0.38604 0.18577 0.0
C536 C 0.5111 0.39527 0.16602 0.0
C537 C 0.45053 0.40654 0.18354 0.0
C538 C 0.46127 0.40889 0.21993 0.0
H539 H 0.44256 0.36952 0.31682 0.0
H540 H 0.41499 0.37755 0.2737 0.0
H541 H 0.53257 0.36754 0.28175 0.0
H542 H 0.64465 0.38126 0.23638 0.0
H543 H 0.62746 0.37725 0.1731 0.0
H544 H 0.27267 0.37764 0.94432 0.0
H545 H 0.31833 0.38239 0.88292 0.0
H546 H 0.45752 0.42698 0.91186 0.0
H547 H 0.41285 0.4223 0.97349 0.0
H548 H 0.27804 0.40809 0.83583 0.0
H549 H 0.68782 0.40153 0.86396 0.0
H550 H 0.59228 0.39542 0.89491 0.0
H551 H 0.62045 0.41623 0.88926 0.0
C552 C 0.31141 0.3886 0.93762 0.0
C553 C 0.3395 0.39952 0.96397 0.0
C554 C 0.3378 0.39127 0.90249 0.0
C555 C 0.39335 0.40485 0.89293 0.0
C556 C 0.41648 0.41625 0.91876 0.0
H557 H 0.5994 0.42583 0.67636 0.0
H558 H 0.58191 0.42819 0.74077 0.0
C559 C 0.38974 0.41363 0.95395 0.0
C560 C 0.42917 0.40666 0.85609 0.0
H561 H 0.6408 0.40535 0.80471 0.0
C562 C 0.35738 0.40768 0.82908 0.0
C563 C 0.5329 0.40613 0.8473 0.0
C564 C 0.61318 0.40466 0.87525 0.0
C565 C 0.38622 0.40782 0.79356 0.0
C566 C 0.4895 0.40666 0.78473 0.0
C567 C 0.56177 0.40624 0.81163 0.0
C568 C 0.52128 0.40441 0.74764 0.0
C569 C 0.30573 0.40882 0.76557 0.0
C570 C 0.49817 0.39001 0.73068 0.0
C571 C 0.50824 0.38866 0.69429 0.0
C572 C 0.54279 0.40161 0.67416 0.0
C573 C 0.5746 0.41557 0.69141 0.0
C574 C 0.56369 0.41697 0.72808 0.0
H575 H 0.23303 0.41324 0.77635 0.0
H576 H 0.32952 0.41684 0.74382 0.0
H577 H 0.29313 0.39674 0.75436 0.0
H578 H 0.46602 0.38015 0.74534 0.0
H579 H 0.4823 0.37784 0.68153 0.0
H580 H 0.58674 0.67663 0.92541 0.0
H581 H 0.57095 0.67186 0.86217 0.0
H582 H 0.56138 0.62106 0.88106 0.0
H583 H 0.57862 0.62585 0.94468 0.0
H584 H 0.67138 0.65081 0.8082 0.0
H585 H 0.27472 0.63533 0.84166 0.0
H586 H 0.35548 0.64578 0.87212 0.0
H587 H 0.37445 0.62485 0.86419 0.0
C588 C 0.58654 0.66442 0.9159 0.0
C589 C 0.58563 0.6516 0.93978 0.0
C590 C 0.57666 0.6617 0.87979 0.0
C591 C 0.56372 0.64613 0.86695 0.0
C592 C 0.57106 0.63318 0.89046 0.0
H593 H 0.43132 0.63367 0.64029 0.0
H594 H 0.48745 0.62718 0.7001 0.0
C595 C 0.58234 0.6359 0.92672 0.0
C596 C 0.52874 0.64391 0.83011 0.0
H597 H 0.31407 0.63824 0.7819 0.0
C598 C 0.59393 0.64772 0.80231 0.0
C599 C 0.42706 0.64013 0.8226 0.0
C600 C 0.35319 0.63635 0.85158 0.0
C601 C 0.55942 0.64823 0.76728 0.0
C602 C 0.45704 0.6449 0.75993 0.0
C603 C 0.3926 0.64066 0.78761 0.0
C604 C 0.41355 0.64746 0.72431 0.0
C605 C 0.6312 0.65312 0.73849 0.0
C606 C 0.34996 0.66061 0.7183 0.0
C607 C 0.31802 0.6644 0.68419 0.0
C608 C 0.34826 0.65501 0.65537 0.0
C609 C 0.40644 0.64118 0.66181 0.0
C610 C 0.4393 0.6375 0.69597 0.0
H611 H 0.70532 0.65698 0.74903 0.0
H612 H 0.64373 0.64287 0.72047 0.0
H613 H 0.59836 0.66305 0.72276 0.0
H614 H 0.32877 0.6684 0.73984 0.0
H615 H 0.2732 0.6751 0.68023 0.0
H616 H 0.50935 0.32597 0.99511 0.0
H617 H 0.42384 0.30023 0.99779 0.0
H618 H 0.28267 0.31389 0.09521 0.0
H619 H 0.36999 0.3395 0.09362 0.0
H620 H 0.42485 0.27641 0.05948 0.0
H621 H 0.04832 0.30083 0.02294 0.0
H622 H 0.16398 0.31103 1.01205 0.0
H623 H 0.1187 0.31113 0.05648 0.0
C624 C 0.46143 0.32356 0.01744 0.0
C625 C 0.44656 0.33511 0.04398 0.0
C626 C 0.412 0.30879 0.01877 0.0
C627 C 0.34583 0.30524 0.04642 0.0
C628 C 0.33227 0.31649 0.07334 0.0
H629 H 0.93979 0.22454 0.08336 0.0
H630 H 0.02499 0.25054 0.08475 0.0
C631 C 0.38229 0.3312 0.07225 0.0
C632 C 0.29088 0.28978 0.04707 0.0
H633 H 0.05802 0.27327 0.0354 0.0
C634 C 0.34469 0.27569 0.0542 0.0
C635 C 0.18615 0.28892 0.04054 0.0
C636 C 0.12536 0.30373 0.03236 0.0
C637 C 0.29647 0.26074 0.05516 0.0
C638 C 0.19194 0.25978 0.0477 0.0
C639 C 0.13801 0.27395 0.04099 0.0
C640 C 0.13786 0.24417 0.04611 0.0
C641 C 0.35783 0.24617 0.06496 0.0
C642 C 0.1708 0.23206 0.02325 0.0
C643 C 0.12258 0.21722 0.02255 0.0
C644 C 0.03913 0.21417 0.04432 0.0
C645 C 0.00358 0.22651 0.0662 0.0
C646 C 0.05254 0.24136 0.06711 0.0
H647 H 0.42576 0.24946 0.08042 0.0
H648 H 0.3127 0.23756 0.08057 0.0
H649 H 0.38367 0.24012 0.04061 0.0
H650 H 0.23416 0.23407 1.0059 0.0
H651 H 0.1505 0.20812 1.00481 0.0
H652 H 0.6905 0.70565 0.05943 0.0
H653 H 0.76968 0.73182 0.05704 0.0
H654 H 0.48055 0.75391 0.03926 0.0
H655 H 0.39996 0.72762 0.04064 0.0
H656 H 0.75865 0.75488 0.99862 0.0
H657 H 0.60792 0.77854 0.12485 0.0
H658 H 0.61188 0.75741 0.11505 0.0
H659 H 0.51817 0.76993 0.09489 0.0
C660 C 0.64309 0.71595 0.05463 0.0
C661 C 0.53816 0.71432 0.05 0.0
C662 C 0.68888 0.73098 0.0535 0.0
C663 C 0.63113 0.74483 0.0482 0.0
C664 C 0.52649 0.74338 0.04382 0.0
H665 H 0.77975 0.84597 0.04271 0.0
H666 H 0.69717 0.81995 0.04435 0.0
C667 C 0.48046 0.7283 0.04469 0.0
C668 C 0.68124 0.7607 0.04664 0.0
H669 H 0.70589 0.7961 0.09056 0.0
C670 C 0.74727 0.76391 0.0187 0.0
C671 C 0.66603 0.77246 0.0728 0.0
C672 C 0.59776 0.76948 0.1038 0.0
C673 C 0.79737 0.77867 0.01591 0.0
C674 C 0.78345 0.79039 0.04239 0.0
C675 C 0.71705 0.78715 0.0703 0.0
C676 C 0.83528 0.80621 0.04137 0.0
C677 C 0.86243 0.78166 0.98406 0.0
C678 C 0.94091 0.80728 0.03956 0.0
C679 C 0.98851 0.82223 0.03842 0.0
C680 C 0.93166 0.83644 0.03976 0.0
C681 C 0.8261 0.83531 0.04215 0.0
C682 C 0.77861 0.8204 0.04292 0.0
H683 H 0.8415 0.77374 0.96179 0.0
H684 H 0.85649 0.79428 0.97516 0.0
H685 H 0.9422 0.77915 0.99088 0.0
H686 H 0.98677 0.79656 0.03933 0.0
H687 H 0.06987 0.82269 0.03702 0.0
H688 H 0.89149 0.83378 0.56765 0.0
H689 H 0.96802 0.80707 0.56925 0.0
H690 H 0.26089 0.82777 0.55289 0.0
H691 H 0.18588 0.85431 0.55035 0.0
H692 H 0.09708 0.79153 0.51571 0.0
H693 H 0.29119 0.79999 0.64385 0.0
H694 H 0.18697 0.81241 0.62985 0.0
H695 H 0.31056 0.81562 0.61208 0.0
C696 C 0.97204 0.8327 0.56412 0.0
C697 C 0.03212 0.84639 0.5593 0.0
C698 C 0.01575 0.81738 0.56519 0.0
C699 C 0.12042 0.81544 0.56178 0.0
C700 C 0.18023 0.82899 0.55631 0.0
H701 H 0.55317 0.73726 0.56956 0.0
H702 H 0.46661 0.76314 0.56649 0.0
C703 C 0.13682 0.84424 0.55502 0.0
C704 C 0.16787 0.7993 0.56362 0.0
H705 H 0.33432 0.77679 0.61143 0.0
C706 C 0.14835 0.78823 0.53676 0.0
C707 C 0.23534 0.79507 0.59096 0.0
C708 C 0.25696 0.80631 0.62103 0.0
C709 C 0.19648 0.7732 0.536 0.0
C710 C 0.26418 0.76894 0.56337 0.0
C711 C 0.28282 0.78001 0.5904 0.0
C712 C 0.3166 0.75312 0.56454 0.0
C713 C 0.1768 0.76226 0.50522 0.0
C714 C 0.2615 0.73881 0.56486 0.0
C715 C 0.3109 0.724 0.56648 0.0
C716 C 0.41675 0.72311 0.56827 0.0
C717 C 0.47174 0.73747 0.56838 0.0
C718 C 0.42224 0.75229 0.56653 0.0
H719 H 0.14803 0.76897 0.48202 0.0
H720 H 0.24617 0.75572 0.49742 0.0
H721 H 0.11887 0.75336 0.51275 0.0
H722 H 0.17997 0.73908 0.56443 0.0
H723 H 0.26584 0.71325 0.56716 0.0
H724 H 0.48111 0.34037 0.49878 0.0
H725 H 0.5648 0.31424 0.50002 0.0
H726 H 0.61082 0.31898 0.61196 0.0
H727 H 0.53136 0.34545 0.61027 0.0
H728 H 0.7743 0.30866 0.58456 0.0
H729 H 0.46887 0.27163 0.52921 0.0
H730 H 0.50365 0.28735 0.4996 0.0
H731 H 0.44923 0.29218 0.54173 0.0
C732 C 0.5076 0.33569 0.5237 0.0
C733 C 0.49904 0.34489 0.55449 0.0
C734 C 0.55522 0.32069 0.52446 0.0
C735 C 0.59283 0.31435 0.55622 0.0
C736 C 0.58261 0.32349 0.58708 0.0
H737 H 0.77501 0.21471 0.58248 0.0
H738 H 0.68702 0.24046 0.58143 0.0
C739 C 0.53691 0.3386 0.58617 0.0
C740 C 0.64719 0.29864 0.55717 0.0
H741 H 0.63144 0.25944 0.5322 0.0
C742 C 0.74249 0.29788 0.57331 0.0
C743 C 0.60584 0.28442 0.54298 0.0
C744 C 0.50086 0.28388 0.52777 0.0
C745 C 0.79742 0.28349 0.57552 0.0
C746 C 0.75823 0.26945 0.55982 0.0
C747 C 0.66261 0.27017 0.54389 0.0
C748 C 0.81322 0.25378 0.56054 0.0
C749 C 0.89538 0.28348 0.59572 0.0
C750 C 0.91357 0.25248 0.54889 0.0
C751 C 0.96462 0.23778 0.55019 0.0
C752 C 0.91553 0.22393 0.56212 0.0
C753 C 0.81454 0.22514 0.57291 0.0
C754 C 0.76424 0.23989 0.57233 0.0
H755 H 0.89777 0.29335 0.61526 0.0
H756 H 0.90732 0.272 0.60984 0.0
H757 H 0.95868 0.2853 0.57713 0.0
H758 H 0.95244 0.26281 0.5385 0.0
H759 H 0.04189 0.23714 0.54122 0.0
loop_
_geom_bond_atom_site_label_1
_geom_bond_atom_site_label_2
_geom_bond_distance
_geom_bond_site_symmetry_2
_ccdc_geom_bond_type
Cu0 N1 1.999 . S
Cu0 O6 1.974 . S
Cu0 N11 1.985 . S
Cu0 O20 1.959 1_554 S
N1 Cu0 1.999 . S
N1 C3 1.263 . S
N1 C5 1.389 . S
N2 C3 1.358 . S
N2 C4 1.400 . S
C3 N1 1.263 . S
C3 N2 1.358 . S
C3 H9 0.930 . S
C4 N2 1.400 . S
C4 C5 1.351 . S
C4 H21 0.930 . S
C5 N1 1.389 . S
C5 C4 1.351 . S
C5 H10 0.930 1_554 S
O6 Cu0 1.974 . S
O6 C16 1.282 . S
C7 O8 1.261 1_455 S
C7 O20 1.251 . S
O8 C7 1.261 1_655 S
H9 C3 0.930 . S
H10 C5 0.930 1_556 S
N11 Cu0 1.985 . S
N11 C13 1.335 . S
N11 C14 1.390 . S
N12 C13 1.345 . S
N12 C15 1.336 . S
C13 N11 1.335 . S
C13 N12 1.345 . S
C13 H18 0.930 . S
C14 N11 1.390 . S
C14 C15 1.346 . S
C14 H19 0.930 . S
C15 N12 1.336 . S
C15 C14 1.346 . S
C15 H22 0.929 . S
C16 O6 1.282 . S
C16 O17 1.216 1_455 S
O17 C16 1.216 1_655 S
H18 C13 0.930 . S
H19 C14 0.930 . S
O20 Cu0 1.959 1_556 S
O20 C7 1.251 . S
H21 C4 0.930 . S
H22 C15 0.929 . S
Cu23 N24 1.999 . S
Cu23 O29 1.974 . S
Cu23 N34 1.985 . S
Cu23 O43 1.959 1_554 S
N24 Cu23 1.999 . S
N24 C26 1.263 . S
N24 C28 1.389 . S
N25 C26 1.358 . S
N25 C27 1.400 . S
C26 N24 1.263 . S
C26 N25 1.358 . S
C26 H32 0.930 . S
C27 N25 1.400 . S
C27 C28 1.351 . S
C27 H44 0.930 . S
C28 N24 1.389 . S
C28 C27 1.351 . S
C28 H33 0.930 1_554 S
O29 Cu23 1.974 . S
O29 C39 1.282 . S
C30 O31 1.261 1_655 S
C30 O43 1.251 . S
O31 C30 1.261 1_455 S
H32 C26 0.930 . S
H33 C28 0.930 1_556 S
N34 Cu23 1.985 . S
N34 C36 1.335 . S
N34 C37 1.390 . S
N35 C36 1.345 . S
N35 C38 1.336 . S
C36 N34 1.335 . S
C36 N35 1.345 . S
C36 H41 0.930 . S
C37 N34 1.390 . S
C37 C38 1.346 . S
C37 H42 0.930 . S
C38 N35 1.336 . S
C38 C37 1.346 . S
C38 H45 0.929 . S
C39 O29 1.282 . S
C39 O40 1.216 1_655 S
O40 C39 1.216 1_455 S
H41 C36 0.930 . S
H42 C37 0.930 . S
O43 Cu23 1.959 1_556 S
O43 C30 1.251 . S
H44 C27 0.930 . S
H45 C38 0.929 . S
Cu46 N47 1.999 . S
Cu46 O52 1.974 . S
Cu46 N57 1.985 . S
Cu46 O66 1.959 . S
N47 Cu46 1.999 . S
N47 C49 1.263 . S
N47 C51 1.389 . S
N48 C49 1.358 . S
N48 C50 1.400 . S
C49 N47 1.263 . S
C49 N48 1.358 . S
C49 H55 0.930 . S
C50 N48 1.400 . S
C50 C51 1.351 . S
C50 H67 0.930 . S
C51 N47 1.389 . S
C51 C50 1.351 . S
C51 H56 0.930 . S
O52 Cu46 1.974 . S
O52 C62 1.282 . S
C53 O54 1.261 1_455 S
C53 O66 1.251 . S
O54 C53 1.261 1_655 S
H55 C49 0.930 . S
H56 C51 0.930 . S
N57 Cu46 1.985 . S
N57 C59 1.335 . S
N57 C60 1.390 . S
N58 C59 1.345 . S
N58 C61 1.336 . S
C59 N57 1.335 . S
C59 N58 1.345 . S
C59 H64 0.930 . S
C60 N57 1.390 . S
C60 C61 1.346 . S
C60 H65 0.930 . S
C61 N58 1.336 . S
C61 C60 1.346 . S
C61 H68 0.929 . S
C62 O52 1.282 . S
C62 O63 1.216 1_455 S
O63 C62 1.216 1_655 S
H64 C59 0.930 . S
H65 C60 0.930 . S
O66 Cu46 1.959 . S
O66 C53 1.251 . S
H67 C50 0.930 . S
H68 C61 0.929 . S
Cu69 N70 1.999 . S
Cu69 O75 1.974 . S
Cu69 N80 1.985 . S
Cu69 O89 1.959 . S
N70 Cu69 1.999 . S
N70 C72 1.263 . S
N70 C74 1.389 . S
N71 C72 1.358 . S
N71 C73 1.400 . S
C72 N70 1.263 . S
C72 N71 1.358 . S
C72 H78 0.930 . S
C73 N71 1.400 . S
C73 C74 1.351 . S
C73 H90 0.930 . S
C74 N70 1.389 . S
C74 C73 1.351 . S
C74 H79 0.930 . S
O75 Cu69 1.974 . S
O75 C85 1.282 . S
C76 O77 1.261 1_655 S
C76 O89 1.251 . S
O77 C76 1.261 1_455 S
H78 C72 0.930 . S
H79 C74 0.930 . S
N80 Cu69 1.985 . S
N80 C82 1.335 . S
N80 C83 1.390 . S
N81 C82 1.345 . S
N81 C84 1.336 . S
C82 N80 1.335 . S
C82 N81 1.345 . S
C82 H87 0.930 . S
C83 N80 1.390 . S
C83 C84 1.346 . S
C83 H88 0.930 . S
C84 N81 1.336 . S
C84 C83 1.346 . S
C84 H91 0.929 . S
C85 O75 1.282 . S
C85 O86 1.216 1_655 S
O86 C85 1.216 1_455 S
H87 C82 0.930 . S
H88 C83 0.930 . S
O89 Cu69 1.959 . S
O89 C76 1.251 . S
H90 C73 0.930 . S
H91 C84 0.929 . S
Cu92 N93 1.999 . S
Cu92 O98 1.974 . S
Cu92 N103 1.985 . S
Cu92 O112 1.959 1_554 S
N93 Cu92 1.999 . S
N93 C95 1.263 . S
N93 C97 1.389 . S
N94 C95 1.358 . S
N94 C96 1.400 . S
C95 N93 1.263 . S
C95 N94 1.358 . S
C95 H101 0.930 . S
C96 N94 1.400 . S
C96 C97 1.351 . S
C96 H113 0.930 . S
C97 N93 1.389 . S
C97 C96 1.351 . S
C97 H102 0.930 1_554 S
O98 Cu92 1.974 . S
O98 C108 1.282 . S
C99 O100 1.261 . S
C99 O112 1.251 . S
O100 C99 1.261 . S
H101 C95 0.930 . S
H102 C97 0.930 1_556 S
N103 Cu92 1.985 . S
N103 C105 1.335 . S
N103 C106 1.390 . S
N104 C105 1.345 . S
N104 C107 1.336 . S
C105 N103 1.335 . S
C105 N104 1.345 . S
C105 H110 0.930 . S
C106 N103 1.390 . S
C106 C107 1.346 . S
C106 H111 0.930 . S
C107 N104 1.336 . S
C107 C106 1.346 . S
C107 H114 0.929 . S
C108 O98 1.282 . S
C108 O109 1.216 . S
O109 C108 1.216 . S
H110 C105 0.930 . S
H111 C106 0.930 . S
O112 Cu92 1.959 1_556 S
O112 C99 1.251 . S
H113 C96 0.930 . S
H114 C107 0.929 . S
Cu115 N116 1.999 . S
Cu115 O121 1.974 . S
Cu115 N126 1.985 . S
Cu115 O135 1.959 1_554 S
N116 Cu115 1.999 . S
N116 C118 1.263 . S
N116 C120 1.389 . S
N117 C118 1.358 . S
N117 C119 1.400 . S
C118 N116 1.263 . S
C118 N117 1.358 . S
C118 H124 0.930 . S
C119 N117 1.400 . S
C119 C120 1.351 . S
C119 H136 0.930 . S
C120 N116 1.389 . S
C120 C119 1.351 . S
C120 H125 0.930 1_554 S
O121 Cu115 1.974 . S
O121 C131 1.282 . S
C122 O123 1.261 . S
C122 O135 1.251 . S
O123 C122 1.261 . S
H124 C118 0.930 . S
H125 C120 0.930 1_556 S
N126 Cu115 1.985 . S
N126 C128 1.335 . S
N126 C129 1.390 . S
N127 C128 1.345 . S
N127 C130 1.336 . S
C128 N126 1.335 . S
C128 N127 1.345 . S
C128 H133 0.930 . S
C129 N126 1.390 . S
C129 C130 1.346 . S
C129 H134 0.930 . S
C130 N127 1.336 . S
C130 C129 1.346 . S
C130 H137 0.929 . S
C131 O121 1.282 . S
C131 O132 1.216 . S
O132 C131 1.216 . S
H133 C128 0.930 . S
H134 C129 0.930 . S
O135 Cu115 1.959 1_556 S
O135 C122 1.251 . S
H136 C119 0.930 . S
H137 C130 0.929 . S
Cu138 N139 1.999 . S
Cu138 O144 1.974 . S
Cu138 N149 1.985 . S
Cu138 O158 1.959 . S
N139 Cu138 1.999 . S
N139 C141 1.263 . S
N139 C143 1.389 . S
N140 C141 1.358 . S
N140 C142 1.400 . S
C141 N139 1.263 . S
C141 N140 1.358 . S
C141 H147 0.930 . S
C142 N140 1.400 . S
C142 C143 1.351 . S
C142 H159 0.930 . S
C143 N139 1.389 . S
C143 C142 1.351 . S
C143 H148 0.930 . S
O144 Cu138 1.974 . S
O144 C154 1.282 . S
C145 O146 1.261 . S
C145 O158 1.251 . S
O146 C145 1.261 . S
H147 C141 0.930 . S
H148 C143 0.930 . S
N149 Cu138 1.985 . S
N149 C151 1.335 . S
N149 C152 1.390 . S
N150 C151 1.345 . S
N150 C153 1.336 . S
C151 N149 1.335 . S
C151 N150 1.345 . S
C151 H156 0.930 . S
C152 N149 1.390 . S
C152 C153 1.346 . S
C152 H157 0.930 . S
C153 N150 1.336 . S
C153 C152 1.346 . S
C153 H160 0.929 . S
C154 O144 1.282 . S
C154 O155 1.216 . S
O155 C154 1.216 . S
H156 C151 0.930 . S
H157 C152 0.930 . S
O158 Cu138 1.959 . S
O158 C145 1.251 . S
H159 C142 0.930 . S
H160 C153 0.929 . S
Cu161 N162 1.999 . S
Cu161 O167 1.974 . S
Cu161 N172 1.985 . S
Cu161 O181 1.959 . S
N162 Cu161 1.999 . S
N162 C164 1.263 . S
N162 C166 1.389 . S
N163 C164 1.358 . S
N163 C165 1.400 . S
C164 N162 1.263 . S
C164 N163 1.358 . S
C164 H170 0.930 . S
C165 N163 1.400 . S
C165 C166 1.351 . S
C165 H182 0.930 . S
C166 N162 1.389 . S
C166 C165 1.351 . S
C166 H171 0.930 . S
O167 Cu161 1.974 . S
O167 C177 1.282 . S
C168 O169 1.261 . S
C168 O181 1.251 . S
O169 C168 1.261 . S
H170 C164 0.930 . S
H171 C166 0.930 . S
N172 Cu161 1.985 . S
N172 C174 1.335 . S
N172 C175 1.390 . S
N173 C174 1.345 . S
N173 C176 1.336 . S
C174 N172 1.335 . S
C174 N173 1.345 . S
C174 H179 0.930 . S
C175 N172 1.390 . S
C175 C176 1.346 . S
C175 H180 0.930 . S
C176 N173 1.336 . S
C176 C175 1.346 . S
C176 H183 0.929 . S
C177 O167 1.282 . S
C177 O178 1.216 . S
O178 C177 1.216 . S
H179 C174 0.930 . S
H180 C175 0.930 . S
O181 Cu161 1.959 . S
O181 C168 1.251 . S
H182 C165 0.930 . S
H183 C176 0.929 . S
H184 C192 0.929 . S
H185 C194 0.930 . S
H186 C196 0.930 . S
H187 C199 0.929 . S
H188 C202 0.930 . S
H189 C204 0.960 . S
H190 C204 0.960 . S
H191 C204 0.960 . S
C192 H184 0.929 . S
C192 C193 1.377 1_455 S
C192 C194 1.384 . S
C193 C192 1.377 1_655 S
C193 C199 1.390 . S
C194 H185 0.930 . S
C194 C192 1.384 . S
C194 C195 1.372 1_455 S
C195 C194 1.372 1_655 S
C195 C196 1.400 . S
C195 C200 1.490 . S
C196 H186 0.930 . S
C196 C195 1.400 . S
C196 C199 1.386 . S
H197 C213 0.930 . S
H198 C214 0.931 . S
C199 H187 0.929 . S
C199 C193 1.390 . S
C199 C196 1.386 . S
C200 C195 1.490 . S
C200 C202 1.395 1_655 S
C200 C203 1.402 . S
H201 C207 0.930 . S
C202 H188 0.930 . S
C202 C200 1.395 1_455 S
C202 C205 1.403 1_565 S
C203 C200 1.402 . S
C203 C204 1.524 . S
C203 C207 1.400 1_565 S
C204 H189 0.960 . S
C204 H190 0.960 . S
C204 H191 0.960 . S
C204 C203 1.524 . S
C205 C202 1.403 1_545 S
C205 C206 1.392 . S
C205 C209 1.495 . S
C206 C205 1.392 . S
C206 C207 1.385 1_455 S
C206 C208 1.478 . S
C207 H201 0.930 . S
C207 C203 1.400 1_545 S
C207 C206 1.385 1_655 S
C208 C206 1.478 . S
C208 C210 1.381 . S
C208 C214 1.383 1_455 S
C209 C205 1.495 . S
C209 H215 0.959 1_554 S
C209 H216 0.961 1_554 S
C209 H217 0.960 . S
C210 C208 1.381 . S
C210 C211 1.394 . S
C210 H218 0.930 . S
C211 C210 1.394 . S
C211 C212 1.383 . S
C211 H219 0.929 . S
C212 C211 1.383 . S
C212 C213 1.377 1_455 S
C213 H197 0.930 . S
C213 C212 1.377 1_655 S
C213 C214 1.379 . S
C214 H198 0.931 . S
C214 C208 1.383 1_655 S
C214 C213 1.379 . S
H215 C209 0.959 1_556 S
H216 C209 0.961 1_556 S
H217 C209 0.960 . S
H218 C210 0.930 . S
H219 C211 0.929 . S
H220 C228 0.929 . S
H221 C230 0.930 . S
H222 C232 0.930 . S
H223 C235 0.929 . S
H224 C238 0.930 . S
H225 C240 0.960 . S
H226 C240 0.960 . S
H227 C240 0.960 . S
C228 H220 0.929 . S
C228 C229 1.377 . S
C228 C230 1.384 . S
C229 C228 1.377 . S
C229 C235 1.390 1_455 S
C230 H221 0.930 . S
C230 C228 1.384 . S
C230 C231 1.372 . S
C231 C230 1.372 . S
C231 C232 1.400 1_455 S
C231 C236 1.490 . S
C232 H222 0.930 . S
C232 C231 1.400 1_655 S
C232 C235 1.386 . S
H233 C249 0.930 . S
H234 C250 0.931 . S
C235 H223 0.929 . S
C235 C229 1.390 1_655 S
C235 C232 1.386 . S
C236 C231 1.490 . S
C236 C238 1.395 1_455 S
C236 C239 1.403 . S
H237 C243 0.930 . S
C238 H224 0.930 . S
C238 C236 1.395 1_655 S
C238 C241 1.403 1_565 S
C239 C236 1.403 . S
C239 C240 1.524 . S
C239 C243 1.400 1_565 S
C240 H225 0.960 . S
C240 H226 0.960 . S
C240 H227 0.960 . S
C240 C239 1.524 . S
C241 C238 1.403 1_545 S
C241 C242 1.392 . S
C241 C245 1.495 . S
C242 C241 1.392 . S
C242 C243 1.385 1_655 S
C242 C244 1.478 . S
C243 H237 0.930 . S
C243 C239 1.400 1_545 S
C243 C242 1.385 1_455 S
C244 C242 1.478 . S
C244 C246 1.381 1_655 S
C244 C250 1.383 . S
C245 C241 1.495 . S
C245 H251 0.959 . S
C245 H252 0.961 . S
C245 H253 0.960 . S
C246 C244 1.381 1_455 S
C246 C247 1.394 . S
C246 H254 0.930 . S
C247 C246 1.394 . S
C247 C248 1.383 1_455 S
C247 H255 0.929 . S
C248 C247 1.383 1_655 S
C248 C249 1.377 . S
C249 H233 0.930 . S
C249 C248 1.377 . S
C249 C250 1.379 . S
C250 H234 0.931 . S
C250 C244 1.383 . S
C250 C249 1.379 . S
H251 C245 0.959 . S
H252 C245 0.961 . S
H253 C245 0.960 . S
H254 C246 0.930 . S
H255 C247 0.929 . S
H256 C264 0.929 . S
H257 C266 0.930 . S
H258 C268 0.930 . S
H259 C271 0.929 . S
H260 C274 0.930 . S
H261 C276 0.960 . S
H262 C276 0.960 . S
H263 C276 0.960 . S
C264 H256 0.929 . S
C264 C265 1.377 . S
C264 C266 1.384 . S
C265 C264 1.377 . S
C265 C271 1.390 . S
C266 H257 0.930 . S
C266 C264 1.384 . S
C266 C267 1.372 . S
C267 C266 1.372 . S
C267 C268 1.400 . S
C267 C272 1.490 . S
C268 H258 0.930 . S
C268 C267 1.400 . S
C268 C271 1.386 . S
H269 C285 0.930 . S
H270 C286 0.931 . S
C271 H259 0.929 . S
C271 C265 1.390 . S
C271 C268 1.386 . S
C272 C267 1.490 . S
C272 C274 1.395 . S
C272 C275 1.403 . S
H273 C279 0.930 . S
C274 H260 0.930 . S
C274 C272 1.395 . S
C274 C277 1.403 . S
C275 C272 1.403 . S
C275 C276 1.524 . S
C275 C279 1.400 . S
C276 H261 0.960 . S
C276 H262 0.960 . S
C276 H263 0.960 . S
C276 C275 1.524 . S
C277 C274 1.403 . S
C277 C278 1.392 . S
C277 C281 1.495 . S
C278 C277 1.392 . S
C278 C279 1.385 . S
C278 C280 1.478 . S
C279 H273 0.930 . S
C279 C275 1.400 . S
C279 C278 1.385 . S
C280 C278 1.478 . S
C280 C282 1.381 . S
C280 C286 1.383 . S
C281 C277 1.495 . S
C281 H287 0.959 . S
C281 H288 0.961 . S
C281 H289 0.960 . S
C282 C280 1.381 . S
C282 C283 1.394 . S
C282 H290 0.930 . S
C283 C282 1.394 . S
C283 C284 1.383 . S
C283 H291 0.929 . S
C284 C283 1.383 . S
C284 C285 1.377 . S
C285 H269 0.930 . S
C285 C284 1.377 . S
C285 C286 1.379 . S
C286 H270 0.931 . S
C286 C280 1.383 . S
C286 C285 1.379 . S
H287 C281 0.959 . S
H288 C281 0.961 . S
H289 C281 0.960 . S
H290 C282 0.930 . S
H291 C283 0.929 . S
H292 C300 0.929 . S
H293 C302 0.930 . S
H294 C304 0.930 . S
H295 C307 0.929 . S
H296 C310 0.930 . S
H297 C312 0.960 . S
H298 C312 0.960 . S
H299 C312 0.960 . S
C300 H292 0.929 . S
C300 C301 1.377 . S
C300 C302 1.384 . S
C301 C300 1.377 . S
C301 C307 1.390 . S
C302 H293 0.930 . S
C302 C300 1.384 . S
C302 C303 1.372 . S
C303 C302 1.372 . S
C303 C304 1.400 . S
C303 C308 1.490 . S
C304 H294 0.930 . S
C304 C303 1.400 . S
C304 C307 1.386 . S
H305 C321 0.930 . S
H306 C322 0.931 . S
C307 H295 0.929 . S
C307 C301 1.390 . S
C307 C304 1.386 . S
C308 C303 1.490 . S
C308 C310 1.395 . S
C308 C311 1.403 . S
H309 C315 0.930 . S
C310 H296 0.930 . S
C310 C308 1.395 . S
C310 C313 1.403 . S
C311 C308 1.403 . S
C311 C312 1.524 . S
C311 C315 1.400 . S
C312 H297 0.960 . S
C312 H298 0.960 . S
C312 H299 0.960 . S
C312 C311 1.524 . S
C313 C310 1.403 . S
C313 C314 1.392 . S
C313 C317 1.495 . S
C314 C313 1.392 . S
C314 C315 1.385 . S
C314 C316 1.478 . S
C315 H309 0.930 . S
C315 C311 1.400 . S
C315 C314 1.385 . S
C316 C314 1.478 . S
C316 C318 1.381 . S
C316 C322 1.383 . S
C317 C313 1.495 . S
C317 H323 0.959 . S
C317 H324 0.961 . S
C317 H325 0.960 . S
C318 C316 1.381 . S
C318 C319 1.394 . S
C318 H326 0.930 . S
C319 C318 1.394 . S
C319 C320 1.383 . S
C319 H327 0.929 . S
C320 C319 1.383 . S
C320 C321 1.377 . S
C321 H305 0.930 . S
C321 C320 1.377 . S
C321 C322 1.379 . S
C322 H306 0.931 . S
C322 C316 1.383 . S
C322 C321 1.379 . S
H323 C317 0.959 . S
H324 C317 0.961 . S
H325 C317 0.960 . S
H326 C318 0.930 . S
H327 C319 0.929 . S
H328 C336 0.929 . S
H329 C338 0.930 . S
H330 C340 0.930 . S
H331 C343 0.929 . S
H332 C346 0.930 . S
H333 C348 0.960 . S
H334 C348 0.960 1_655 S
H335 C348 0.960 . S
C336 H328 0.929 . S
C336 C337 1.377 1_655 S
C336 C338 1.384 . S
C337 C336 1.377 1_455 S
C337 C343 1.390 . S
C338 H329 0.930 . S
C338 C336 1.384 . S
C338 C339 1.372 1_655 S
C339 C338 1.372 1_455 S
C339 C340 1.400 . S
C339 C344 1.490 . S
C340 H330 0.930 . S
C340 C339 1.400 . S
C340 C343 1.386 . S
H341 C357 0.930 . S
H342 C358 0.931 . S
C343 H331 0.929 . S
C343 C337 1.390 . S
C343 C340 1.386 . S
C344 C339 1.490 . S
C344 C346 1.394 1_455 S
C344 C347 1.403 . S
H345 C351 0.931 . S
C346 H332 0.930 . S
C346 C344 1.394 1_655 S
C346 C349 1.403 . S
C347 C344 1.403 . S
C347 C348 1.524 . S
C347 C351 1.400 . S
C348 H333 0.960 . S
C348 H334 0.960 1_455 S
C348 H335 0.960 . S
C348 C347 1.524 . S
C349 C346 1.403 . S
C349 C350 1.392 . S
C349 C353 1.495 . S
C350 C349 1.392 . S
C350 C351 1.384 1_655 S
C350 C352 1.478 . S
C351 H345 0.931 . S
C351 C347 1.400 . S
C351 C350 1.384 1_455 S
C352 C350 1.478 . S
C352 C354 1.381 . S
C352 C358 1.383 1_655 S
C353 C349 1.495 . S
C353 H359 0.959 . S
C353 H360 0.961 1_655 S
C353 H361 0.960 . S
C354 C352 1.381 . S
C354 C355 1.394 . S
C354 H362 0.930 . S
C355 C354 1.394 . S
C355 C356 1.383 . S
C355 H363 0.929 . S
C356 C355 1.383 . S
C356 C357 1.377 1_655 S
C357 H341 0.930 . S
C357 C356 1.377 1_455 S
C357 C358 1.379 . S
C358 H342 0.931 . S
C358 C352 1.383 1_455 S
C358 C357 1.379 . S
H359 C353 0.959 . S
H360 C353 0.961 1_455 S
H361 C353 0.960 . S
H362 C354 0.930 . S
H363 C355 0.929 . S
H364 C372 0.929 . S
H365 C374 0.930 . S
H366 C376 0.930 . S
H367 C379 0.929 . S
H368 C382 0.930 . S
H369 C384 0.960 . S
H370 C384 0.960 . S
H371 C384 0.960 . S
C372 H364 0.929 . S
C372 C373 1.377 1_655 S
C372 C374 1.384 . S
C373 C372 1.377 1_455 S
C373 C379 1.390 . S
C374 H365 0.930 . S
C374 C372 1.384 . S
C374 C375 1.372 1_655 S
C375 C374 1.372 1_455 S
C375 C376 1.400 . S
C375 C380 1.490 . S
C376 H366 0.930 . S
C376 C375 1.400 . S
C376 C379 1.386 . S
H377 C393 0.930 . S
H378 C394 0.931 . S
C379 H367 0.929 . S
C379 C373 1.390 . S
C379 C376 1.386 . S
C380 C375 1.490 . S
C380 C382 1.395 . S
C380 C383 1.403 1_455 S
H381 C387 0.930 . S
C382 H368 0.930 . S
C382 C380 1.395 . S
C382 C385 1.403 . S
C383 C380 1.403 1_655 S
C383 C384 1.524 . S
C383 C387 1.400 . S
C384 H369 0.960 . S
C384 H370 0.960 . S
C384 H371 0.960 . S
C384 C383 1.524 . S
C385 C382 1.403 . S
C385 C386 1.392 . S
C385 C389 1.495 . S
C386 C385 1.392 . S
C386 C387 1.385 1_455 S
C386 C388 1.477 1_455 S
C387 H381 0.930 . S
C387 C383 1.400 . S
C387 C386 1.385 1_655 S
C388 C386 1.477 1_655 S
C388 C390 1.384 . S
C388 C394 1.380 1_655 S
C389 C385 1.495 . S
C389 H395 0.959 . S
C389 H396 0.961 . S
C389 H397 0.960 . S
C390 C388 1.384 . S
C390 C391 1.394 . S
C390 H398 0.930 . S
C391 C390 1.394 . S
C391 C392 1.383 . S
C391 H399 0.929 . S
C392 C391 1.383 . S
C392 C393 1.377 1_655 S
C393 H377 0.930 . S
C393 C392 1.377 1_455 S
C393 C394 1.379 . S
C394 H378 0.931 . S
C394 C388 1.380 1_455 S
C394 C393 1.379 . S
H395 C389 0.959 . S
H396 C389 0.961 . S
H397 C389 0.960 . S
H398 C390 0.930 . S
H399 C391 0.929 . S
H400 C408 0.929 . S
H401 C410 0.930 . S
H402 C412 0.930 . S
H403 C415 0.929 . S
H404 C418 0.930 . S
H405 C420 0.960 . S
H406 C420 0.960 . S
H407 C420 0.960 . S
C408 H400 0.929 . S
C408 C409 1.377 1_655 S
C408 C410 1.384 . S
C409 C408 1.377 1_455 S
C409 C415 1.390 . S
C410 H401 0.930 . S
C410 C408 1.384 . S
C410 C411 1.372 1_655 S
C411 C410 1.372 1_455 S
C411 C412 1.400 . S
C411 C416 1.490 . S
C412 H402 0.930 . S
C412 C411 1.400 . S
C412 C415 1.386 . S
H413 C429 0.930 . S
H414 C430 0.931 . S
C415 H403 0.929 . S
C415 C409 1.390 . S
C415 C412 1.386 . S
C416 C411 1.490 . S
C416 C418 1.394 1_455 S
C416 C419 1.403 . S
H417 C423 0.930 . S
C418 H404 0.930 . S
C418 C416 1.394 1_655 S
C418 C421 1.403 . S
C419 C416 1.403 . S
C419 C420 1.524 . S
C419 C423 1.400 . S
C420 H405 0.960 . S
C420 H406 0.960 . S
C420 H407 0.960 . S
C420 C419 1.524 . S
C421 C418 1.403 . S
C421 C422 1.392 . S
C421 C425 1.495 . S
C422 C421 1.392 . S
C422 C423 1.385 1_655 S
C422 C424 1.478 . S
C423 H417 0.930 . S
C423 C419 1.400 . S
C423 C422 1.385 1_455 S
C424 C422 1.478 . S
C424 C426 1.381 . S
C424 C430 1.383 1_655 S
C425 C421 1.495 . S
C425 H431 0.959 . S
C425 H432 0.961 . S
C425 H433 0.960 . S
C426 C424 1.381 . S
C426 C427 1.394 . S
C426 H434 0.930 . S
C427 C426 1.394 . S
C427 C428 1.383 . S
C427 H435 0.929 . S
C428 C427 1.383 . S
C428 C429 1.377 1_655 S
C429 H413 0.930 . S
C429 C428 1.377 1_455 S
C429 C430 1.379 . S
C430 H414 0.931 . S
C430 C424 1.383 1_455 S
C430 C429 1.379 . S
H431 C425 0.959 . S
H432 C425 0.961 . S
H433 C425 0.960 . S
H434 C426 0.930 . S
H435 C427 0.929 . S
H436 C444 0.929 . S
H437 C446 0.930 . S
H438 C448 0.930 . S
H439 C451 0.929 . S
H440 C454 0.930 . S
H441 C456 0.960 . S
H442 C456 0.960 1_455 S
H443 C456 0.960 . S
C444 H436 0.929 . S
C444 C445 1.377 . S
C444 C446 1.384 . S
C445 C444 1.377 . S
C445 C451 1.390 1_455 S
C446 H437 0.930 . S
C446 C444 1.384 . S
C446 C447 1.372 . S
C447 C446 1.372 . S
C447 C448 1.400 1_455 S
C447 C452 1.490 . S
C448 H438 0.930 . S
C448 C447 1.400 1_655 S
C448 C451 1.386 . S
H449 C465 0.930 . S
H450 C466 0.931 . S
C451 H439 0.929 . S
C451 C445 1.390 1_655 S
C451 C448 1.386 . S
C452 C447 1.490 . S
C452 C454 1.395 . S
C452 C455 1.403 1_455 S
H453 C459 0.930 . S
C454 H440 0.930 . S
C454 C452 1.395 . S
C454 C457 1.403 . S
C455 C452 1.403 1_655 S
C455 C456 1.524 . S
C455 C459 1.400 . S
C456 H441 0.960 . S
C456 H442 0.960 1_655 S
C456 H443 0.960 . S
C456 C455 1.524 . S
C457 C454 1.403 . S
C457 C458 1.392 1_455 S
C457 C461 1.495 . S
C458 C457 1.392 1_655 S
C458 C459 1.385 . S
C458 C460 1.478 . S
C459 H453 0.930 . S
C459 C455 1.400 . S
C459 C458 1.385 . S
C460 C458 1.478 . S
C460 C462 1.381 1_655 S
C460 C466 1.383 . S
C461 C457 1.495 . S
C461 H467 0.959 . S
C461 H468 0.961 1_455 S
C461 H469 0.960 . S
C462 C460 1.381 1_455 S
C462 C463 1.394 . S
C462 H470 0.930 . S
C463 C462 1.394 . S
C463 C464 1.383 1_455 S
C463 H471 0.929 . S
C464 C463 1.383 1_655 S
C464 C465 1.377 . S
C465 H449 0.930 . S
C465 C464 1.377 . S
C465 C466 1.379 . S
C466 H450 0.931 . S
C466 C460 1.383 . S
C466 C465 1.379 . S
H467 C461 0.959 . S
H468 C461 0.961 1_655 S
H469 C461 0.960 . S
H470 C462 0.930 . S
H471 C463 0.929 . S
H472 C480 0.929 . S
H473 C482 0.930 . S
H474 C484 0.930 . S
H475 C487 0.929 . S
H476 C490 0.930 . S
H477 C492 0.960 . S
H478 C492 0.960 . S
H479 C492 0.960 . S
C480 H472 0.929 . S
C480 C481 1.377 . S
C480 C482 1.384 . S
C481 C480 1.377 . S
C481 C487 1.390 . S
C482 H473 0.930 . S
C482 C480 1.384 . S
C482 C483 1.372 . S
C483 C482 1.372 . S
C483 C484 1.400 . S
C483 C488 1.490 . S
C484 H474 0.930 . S
C484 C483 1.400 . S
C484 C487 1.386 . S
H485 C501 0.930 . S
H486 C502 0.931 . S
C487 H475 0.929 . S
C487 C481 1.390 . S
C487 C484 1.386 . S
C488 C483 1.490 . S
C488 C490 1.395 . S
C488 C491 1.403 . S
H489 C495 0.930 . S
C490 H476 0.930 . S
C490 C488 1.395 . S
C490 C493 1.403 . S
C491 C488 1.403 . S
C491 C492 1.524 . S
C491 C495 1.400 . S
C492 H477 0.960 . S
C492 H478 0.960 . S
C492 H479 0.960 . S
C492 C491 1.524 . S
C493 C490 1.403 . S
C493 C494 1.392 . S
C493 C497 1.495 . S
C494 C493 1.392 . S
C494 C495 1.385 . S
C494 C496 1.478 . S
C495 H489 0.930 . S
C495 C491 1.400 . S
C495 C494 1.385 . S
C496 C494 1.478 . S
C496 C498 1.381 . S
C496 C502 1.383 . S
C497 C493 1.495 . S
C497 H503 0.959 . S
C497 H504 0.961 . S
C497 H505 0.960 . S
C498 C496 1.381 . S
C498 C499 1.394 . S
C498 H506 0.930 . S
C499 C498 1.394 . S
C499 C500 1.383 . S
C499 H507 0.929 . S
C500 C499 1.383 . S
C500 C501 1.377 . S
C501 H485 0.930 . S
C501 C500 1.377 . S
C501 C502 1.379 . S
C502 H486 0.931 . S
C502 C496 1.383 . S
C502 C501 1.379 . S
H503 C497 0.959 . S
H504 C497 0.961 . S
H505 C497 0.960 . S
H506 C498 0.930 . S
H507 C499 0.929 . S
H508 C516 0.929 . S
H509 C518 0.930 . S
H510 C520 0.930 . S
H511 C523 0.929 . S
H512 C526 0.930 . S
H513 C528 0.960 . S
H514 C528 0.960 . S
H515 C528 0.960 . S
C516 H508 0.929 . S
C516 C517 1.377 . S
C516 C518 1.384 . S
C517 C516 1.377 . S
C517 C523 1.390 . S
C518 H509 0.930 . S
C518 C516 1.384 . S
C518 C519 1.372 . S
C519 C518 1.372 . S
C519 C520 1.400 . S
C519 C524 1.490 . S
C520 H510 0.930 . S
C520 C519 1.400 . S
C520 C523 1.386 . S
H521 C537 0.930 . S
H522 C538 0.931 . S
C523 H511 0.929 . S
C523 C517 1.390 . S
C523 C520 1.386 . S
C524 C519 1.490 . S
C524 C526 1.395 . S
C524 C527 1.403 . S
H525 C531 0.930 . S
C526 H512 0.930 . S
C526 C524 1.395 . S
C526 C529 1.403 . S
C527 C524 1.403 . S
C527 C528 1.524 . S
C527 C531 1.400 . S
C528 H513 0.960 . S
C528 H514 0.960 . S
C528 H515 0.960 . S
C528 C527 1.524 . S
C529 C526 1.403 . S
C529 C530 1.392 . S
C529 C533 1.495 . S
C530 C529 1.392 . S
C530 C531 1.385 . S
C530 C532 1.478 . S
C531 H525 0.930 . S
C531 C527 1.400 . S
C531 C530 1.385 . S
C532 C530 1.478 . S
C532 C534 1.381 . S
C532 C538 1.383 . S
C533 C529 1.495 . S
C533 H539 0.959 . S
C533 H540 0.961 . S
C533 H541 0.960 . S
C534 C532 1.381 . S
C534 C535 1.394 . S
C534 H542 0.930 . S
C535 C534 1.394 . S
C535 C536 1.383 . S
C535 H543 0.929 . S
C536 C535 1.383 . S
C536 C537 1.377 . S
C537 H521 0.930 . S
C537 C536 1.377 . S
C537 C538 1.379 . S
C538 H522 0.931 . S
C538 C532 1.383 . S
C538 C537 1.379 . S
H539 C533 0.959 . S
H540 C533 0.961 . S
H541 C533 0.960 . S
H542 C534 0.930 . S
H543 C535 0.929 . S
H544 C552 0.929 . S
H545 C554 0.930 . S
H546 C556 0.930 . S
H547 C559 0.929 . S
H548 C562 0.930 . S
H549 C564 0.960 . S
H550 C564 0.960 . S
H551 C564 0.960 . S
C552 H544 0.929 . S
C552 C553 1.377 . S
C552 C554 1.384 . S
C553 C552 1.377 . S
C553 C559 1.390 . S
C554 H545 0.930 . S
C554 C552 1.384 . S
C554 C555 1.372 . S
C555 C554 1.372 . S
C555 C556 1.400 . S
C555 C560 1.490 . S
C556 H546 0.930 . S
C556 C555 1.400 . S
C556 C559 1.386 . S
H557 C573 0.930 . S
H558 C574 0.931 . S
C559 H547 0.929 . S
C559 C553 1.390 . S
C559 C556 1.386 . S
C560 C555 1.490 . S
C560 C562 1.395 . S
C560 C563 1.403 . S
H561 C567 0.930 . S
C562 H548 0.930 . S
C562 C560 1.395 . S
C562 C565 1.403 . S
C563 C560 1.403 . S
C563 C564 1.524 . S
C563 C567 1.400 . S
C564 H549 0.960 . S
C564 H550 0.960 . S
C564 H551 0.960 . S
C564 C563 1.524 . S
C565 C562 1.403 . S
C565 C566 1.392 . S
C565 C569 1.495 . S
C566 C565 1.392 . S
C566 C567 1.385 . S
C566 C568 1.478 . S
C567 H561 0.930 . S
C567 C563 1.400 . S
C567 C566 1.385 . S
C568 C566 1.478 . S
C568 C570 1.381 . S
C568 C574 1.383 . S
C569 C565 1.495 . S
C569 H575 0.959 . S
C569 H576 0.961 . S
C569 H577 0.960 . S
C570 C568 1.381 . S
C570 C571 1.394 . S
C570 H578 0.930 . S
C571 C570 1.394 . S
C571 C572 1.383 . S
C571 H579 0.929 . S
C572 C571 1.383 . S
C572 C573 1.377 . S
C573 H557 0.930 . S
C573 C572 1.377 . S
C573 C574 1.379 . S
C574 H558 0.931 . S
C574 C568 1.383 . S
C574 C573 1.379 . S
H575 C569 0.959 . S
H576 C569 0.961 . S
H577 C569 0.960 . S
H578 C570 0.930 . S
H579 C571 0.929 . S
H580 C588 0.929 . S
H581 C590 0.930 . S
H582 C592 0.930 . S
H583 C595 0.929 . S
H584 C598 0.930 . S
H585 C600 0.960 . S
H586 C600 0.960 . S
H587 C600 0.960 . S
C588 H580 0.929 . S
C588 C589 1.377 . S
C588 C590 1.384 . S
C589 C588 1.377 . S
C589 C595 1.390 . S
C590 H581 0.930 . S
C590 C588 1.384 . S
C590 C591 1.372 . S
C591 C590 1.372 . S
C591 C592 1.400 . S
C591 C596 1.490 . S
C592 H582 0.930 . S
C592 C591 1.400 . S
C592 C595 1.386 . S
H593 C609 0.930 . S
H594 C610 0.931 . S
C595 H583 0.929 . S
C595 C589 1.390 . S
C595 C592 1.386 . S
C596 C591 1.490 . S
C596 C598 1.395 . S
C596 C599 1.403 . S
H597 C603 0.930 . S
C598 H584 0.930 . S
C598 C596 1.395 . S
C598 C601 1.403 . S
C599 C596 1.403 . S
C599 C600 1.524 . S
C599 C603 1.400 . S
C600 H585 0.960 . S
C600 H586 0.960 . S
C600 H587 0.960 . S
C600 C599 1.524 . S
C601 C598 1.403 . S
C601 C602 1.392 . S
C601 C605 1.495 . S
C602 C601 1.392 . S
C602 C603 1.385 . S
C602 C604 1.478 . S
C603 H597 0.930 . S
C603 C599 1.400 . S
C603 C602 1.385 . S
C604 C602 1.478 . S
C604 C606 1.381 . S
C604 C610 1.383 . S
C605 C601 1.495 . S
C605 H611 0.959 . S
C605 H612 0.961 . S
C605 H613 0.960 . S
C606 C604 1.381 . S
C606 C607 1.394 . S
C606 H614 0.930 . S
C607 C606 1.394 . S
C607 C608 1.383 . S
C607 H615 0.929 . S
C608 C607 1.383 . S
C608 C609 1.377 . S
C609 H593 0.930 . S
C609 C608 1.377 . S
C609 C610 1.379 . S
C610 H594 0.931 . S
C610 C604 1.383 . S
C610 C609 1.379 . S
H611 C605 0.959 . S
H612 C605 0.961 . S
H613 C605 0.960 . S
H614 C606 0.930 . S
H615 C607 0.929 . S
H616 C624 0.929 . S
H617 C626 0.930 . S
H618 C628 0.930 . S
H619 C631 0.929 . S
H620 C634 0.930 . S
H621 C636 0.960 . S
H622 C636 0.960 . S
H623 C636 0.960 . S
C624 H616 0.929 . S
C624 C625 1.377 . S
C624 C626 1.384 . S
C625 C624 1.377 . S
C625 C631 1.390 . S
C626 H617 0.930 . S
C626 C624 1.384 . S
C626 C627 1.372 . S
C627 C626 1.372 . S
C627 C628 1.400 . S
C627 C632 1.490 . S
C628 H618 0.930 . S
C628 C627 1.400 . S
C628 C631 1.386 . S
H629 C645 0.930 . S
H630 C646 0.931 . S
C631 H619 0.929 . S
C631 C625 1.390 . S
C631 C628 1.386 . S
C632 C627 1.490 . S
C632 C634 1.395 . S
C632 C635 1.403 . S
H633 C639 0.930 1_556 S
C634 H620 0.930 . S
C634 C632 1.395 . S
C634 C637 1.403 . S
C635 C632 1.403 . S
C635 C636 1.524 1_554 S
C635 C639 1.400 . S
C636 H621 0.960 . S
C636 H622 0.960 . S
C636 H623 0.960 . S
C636 C635 1.524 1_556 S
C637 C634 1.403 . S
C637 C638 1.392 . S
C637 C641 1.495 . S
C638 C637 1.392 . S
C638 C639 1.385 . S
C638 C640 1.478 . S
C639 H633 0.930 1_554 S
C639 C635 1.400 . S
C639 C638 1.385 . S
C640 C638 1.478 . S
C640 C642 1.381 . S
C640 C646 1.383 . S
C641 C637 1.495 . S
C641 H647 0.959 . S
C641 H648 0.961 . S
C641 H649 0.960 . S
C642 C640 1.381 . S
C642 C643 1.394 . S
C642 H650 0.930 . S
C643 C642 1.394 . S
C643 C644 1.383 . S
C643 H651 0.929 . S
C644 C643 1.383 . S
C644 C645 1.377 . S
C645 H629 0.930 . S
C645 C644 1.377 . S
C645 C646 1.379 . S
C646 H630 0.931 . S
C646 C640 1.383 . S
C646 C645 1.379 . S
H647 C641 0.959 . S
H648 C641 0.961 . S
H649 C641 0.960 . S
H650 C642 0.930 . S
H651 C643 0.929 . S
H652 C660 0.929 . S
H653 C662 0.930 . S
H654 C664 0.930 . S
H655 C667 0.929 . S
H656 C670 0.930 1_556 S
H657 C672 0.960 . S
H658 C672 0.960 . S
H659 C672 0.960 . S
C660 H652 0.929 . S
C660 C661 1.377 . S
C660 C662 1.384 . S
C661 C660 1.377 . S
C661 C667 1.390 . S
C662 H653 0.930 . S
C662 C660 1.384 . S
C662 C663 1.372 . S
C663 C662 1.372 . S
C663 C664 1.400 . S
C663 C668 1.490 . S
C664 H654 0.930 . S
C664 C663 1.400 . S
C664 C667 1.386 . S
H665 C681 0.930 . S
H666 C682 0.931 1_556 S
C667 H655 0.929 . S
C667 C661 1.390 . S
C667 C664 1.386 . S
C668 C663 1.490 . S
C668 C670 1.395 . S
C668 C671 1.403 . S
H669 C675 0.930 . S
C670 H656 0.930 1_554 S
C670 C668 1.395 . S
C670 C673 1.403 1_554 S
C671 C668 1.403 . S
C671 C672 1.524 . S
C671 C675 1.400 . S
C672 H657 0.960 . S
C672 H658 0.960 . S
C672 H659 0.960 . S
C672 C671 1.524 . S
C673 C670 1.403 1_556 S
C673 C674 1.390 1_556 S
C673 C677 1.498 . S
C674 C673 1.390 1_554 S
C674 C675 1.385 . S
C674 C676 1.478 . S
C675 H669 0.930 . S
C675 C671 1.400 . S
C675 C674 1.385 . S
C676 C674 1.478 . S
C676 C678 1.381 . S
C676 C682 1.383 . S
C677 C673 1.498 . S
C677 H683 0.959 . S
C677 H684 0.961 . S
C677 H685 0.960 . S
C678 C676 1.381 . S
C678 C679 1.394 . S
C678 H686 0.930 . S
C679 C678 1.394 . S
C679 C680 1.383 . S
C679 H687 0.929 . S
C680 C679 1.383 . S
C680 C681 1.377 . S
C681 H665 0.930 . S
C681 C680 1.377 . S
C681 C682 1.379 . S
C682 H666 0.931 1_554 S
C682 C676 1.383 . S
C682 C681 1.379 . S
H683 C677 0.959 . S
H684 C677 0.961 . S
H685 C677 0.960 . S
H686 C678 0.930 . S
H687 C679 0.929 . S
H688 C696 0.929 . S
H689 C698 0.930 . S
H690 C700 0.930 . S
H691 C703 0.929 . S
H692 C706 0.930 . S
H693 C708 0.960 . S
H694 C708 0.960 . S
H695 C708 0.960 . S
C696 H688 0.929 . S
C696 C697 1.377 . S
C696 C698 1.384 . S
C697 C696 1.377 . S
C697 C703 1.390 . S
C698 H689 0.930 . S
C698 C696 1.384 . S
C698 C699 1.372 . S
C699 C698 1.372 . S
C699 C700 1.400 . S
C699 C704 1.490 . S
C700 H690 0.930 . S
C700 C699 1.400 . S
C700 C703 1.386 . S
H701 C717 0.930 . S
H702 C718 0.931 . S
C703 H691 0.929 . S
C703 C697 1.390 . S
C703 C700 1.386 . S
C704 C699 1.490 . S
C704 C706 1.395 . S
C704 C707 1.403 . S
H705 C711 0.930 . S
C706 H692 0.930 . S
C706 C704 1.395 . S
C706 C709 1.403 . S
C707 C704 1.403 . S
C707 C708 1.524 . S
C707 C711 1.400 . S
C708 H693 0.960 . S
C708 H694 0.960 . S
C708 H695 0.960 . S
C708 C707 1.524 . S
C709 C706 1.403 . S
C709 C710 1.392 . S
C709 C713 1.495 . S
C710 C709 1.392 . S
C710 C711 1.385 . S
C710 C712 1.478 . S
C711 H705 0.930 . S
C711 C707 1.400 . S
C711 C710 1.385 . S
C712 C710 1.478 . S
C712 C714 1.381 . S
C712 C718 1.383 . S
C713 C709 1.495 . S
C713 H719 0.959 . S
C713 H720 0.961 . S
C713 H721 0.960 . S
C714 C712 1.381 . S
C714 C715 1.394 . S
C714 H722 0.930 . S
C715 C714 1.394 . S
C715 C716 1.383 . S
C715 H723 0.929 . S
C716 C715 1.383 . S
C716 C717 1.377 . S
C717 H701 0.930 . S
C717 C716 1.377 . S
C717 C718 1.379 . S
C718 H702 0.931 . S
C718 C712 1.383 . S
C718 C717 1.379 . S
H719 C713 0.959 . S
H720 C713 0.961 . S
H721 C713 0.960 . S
H722 C714 0.930 . S
H723 C715 0.929 . S
H724 C732 0.929 . S
H725 C734 0.930 . S
H726 C736 0.930 . S
H727 C739 0.929 . S
H728 C742 0.930 . S
H729 C744 0.960 . S
H730 C744 0.960 . S
H731 C744 0.960 . S
C732 H724 0.929 . S
C732 C733 1.377 . S
C732 C734 1.384 . S
C733 C732 1.377 . S
C733 C739 1.390 . S
C734 H725 0.930 . S
C734 C732 1.384 . S
C734 C735 1.372 . S
C735 C734 1.372 . S
C735 C736 1.400 . S
C735 C740 1.490 . S
C736 H726 0.930 . S
C736 C735 1.400 . S
C736 C739 1.386 . S
H737 C753 0.930 . S
H738 C754 0.931 . S
C739 H727 0.929 . S
C739 C733 1.390 . S
C739 C736 1.386 . S
C740 C735 1.490 . S
C740 C742 1.395 . S
C740 C743 1.403 . S
H741 C747 0.930 . S
C742 H728 0.930 . S
C742 C740 1.395 . S
C742 C745 1.403 . S
C743 C740 1.403 . S
C743 C744 1.524 . S
C743 C747 1.400 . S
C744 H729 0.960 . S
C744 H730 0.960 . S
C744 H731 0.960 . S
C744 C743 1.524 . S
C745 C742 1.403 . S
C745 C746 1.392 . S
C745 C749 1.495 . S
C746 C745 1.392 . S
C746 C747 1.385 . S
C746 C748 1.478 . S
C747 H741 0.930 . S
C747 C743 1.400 . S
C747 C746 1.385 . S
C748 C746 1.478 . S
C748 C750 1.381 . S
C748 C754 1.383 . S
C749 C745 1.495 . S
C749 H755 0.959 1_655 S
C749 H756 0.961 1_655 S
C749 H757 0.960 . S
C750 C748 1.381 . S
C750 C751 1.394 . S
C750 H758 0.930 . S
C751 C750 1.394 . S
C751 C752 1.383 . S
C751 H759 0.929 . S
C752 C751 1.383 . S
C752 C753 1.377 . S
C753 H737 0.930 . S
C753 C752 1.377 . S
C753 C754 1.379 . S
C754 H738 0.931 . S
C754 C748 1.383 . S
C754 C753 1.379 . S
H755 C749 0.959 1_455 S
H756 C749 0.961 1_455 S
H757 C749 0.960 . S
H758 C750 0.930 . S
H759 C751 0.929 . S
C193 N25 1.471 . S
C212 N2 1.434 . S
C229 N48 1.463 . S
C248 N71 1.467 . S
C265 N94 1.471 . S
C284 N117 1.434 . S
C301 N140 1.463 . S
C320 N163 1.486 . S
C337 C16 1.489 . S
C356 C85 1.502 . S
C373 C62 1.491 . S
C392 C39 1.492 . S
C409 C53 1.500 . S
C428 C30 1.511 . S
C445 C7 1.505 . S
C464 C76 1.489 . S
C481 C108 1.489 . S
C500 C177 1.505 . S
C517 C154 1.496 . S
C536 C131 1.476 . S
C553 C122 1.505 . S
C572 C145 1.493 . S
C589 C99 1.502 . S
C608 C168 1.508 . S
C625 N127 1.492 . S
C644 N12 1.465 . S
C661 N104 1.482 . S
C680 N35 1.501 . S
C697 N58 1.492 . S
C716 N173 1.463 . S
C733 N150 1.484 . S
C752 N81 1.476 . S
