# Generated by pormake.
# Topology gis, (4)-cn, num edge types: 1
# Building blocks:
#     Node 0, Type 0, BuildingBlock: UXUYUI_clean_sbu_0, # of connection points: 4
#     Node 1, Type 0, BuildingBlock: UXUYUI_clean_sbu_0, # of connection points: 4
#     Node 2, Type 0, BuildingBlock: UXUYUI_clean_sbu_0, # of connection points: 4
#     Node 3, Type 0, BuildingBlock: UXUYUI_clean_sbu_0, # of connection points: 4
#     Node 4, Type 0, BuildingBlock: UXUYUI_clean_sbu_0, # of connection points: 4
#     Node 5, Type 0, BuildingBlock: UXUYUI_clean_sbu_0, # of connection points: 4
#     Node 6, Type 0, BuildingBlock: UXUYUI_clean_sbu_0, # of connection points: 4
#     Node 7, Type 0, BuildingBlock: UXUYUI_clean_sbu_0, # of connection points: 4
#     Node 8, Type 0, BuildingBlock: UXUYUI_clean_sbu_0, # of connection points: 4
#     Node 9, Type 0, BuildingBlock: UXUYUI_clean_sbu_0, # of connection points: 4
#     Node 10, Type 0, BuildingBlock: UXUYUI_clean_sbu_0, # of connection points: 4
#     Node 11, Type 0, BuildingBlock: UXUYUI_clean_sbu_0, # of connection points: 4
#     Node 12, Type 0, BuildingBlock: UXUYUI_clean_sbu_0, # of connection points: 4
#     Node 13, Type 0, BuildingBlock: UXUYUI_clean_sbu_0, # of connection points: 4
#     Node 14, Type 0, BuildingBlock: UXUYUI_clean_sbu_0, # of connection points: 4
#     Node 15, Type 0, BuildingBlock: UXUYUI_clean_sbu_0, # of connection points: 4
#     Edge 16, Type (0, 0), BuildingBlock: ZUJKAS_clean_linker_0, # of connection points: 2
#     Edge 17, Type (0, 0), BuildingBlock: ZUJKAS_clean_linker_0, # of connection points: 2
#     Edge 18, Type (0, 0), BuildingBlock: ZUJKAS_clean_linker_0, # of connection points: 2
#     Edge 19, Type (0, 0), BuildingBlock: ZUJKAS_clean_linker_0, # of connection points: 2
#     Edge 20, Type (0, 0), BuildingBlock: ZUJKAS_clean_linker_0, # of connection points: 2
#     Edge 21, Type (0, 0), BuildingBlock: ZUJKAS_clean_linker_0, # of connection points: 2
#     Edge 22, Type (0, 0), BuildingBlock: ZUJKAS_clean_linker_0, # of connection points: 2
#     Edge 23, Type (0, 0), BuildingBlock: ZUJKAS_clean_linker_0, # of connection points: 2
#     Edge 24, Type (0, 0), BuildingBlock: ZUJKAS_clean_linker_0, # of connection points: 2
#     Edge 25, Type (0, 0), BuildingBlock: ZUJKAS_clean_linker_0, # of connection points: 2
#     Edge 26, Type (0, 0), BuildingBlock: ZUJKAS_clean_linker_0, # of connection points: 2
#     Edge 27, Type (0, 0), BuildingBlock: ZUJKAS_clean_linker_0, # of connection points: 2
#     Edge 28, Type (0, 0), BuildingBlock: ZUJKAS_clean_linker_0, # of connection points: 2
#     Edge 29, Type (0, 0), BuildingBlock: ZUJKAS_clean_linker_0, # of connection points: 2
#     Edge 30, Type (0, 0), BuildingBlock: ZUJKAS_clean_linker_0, # of connection points: 2
#     Edge 31, Type (0, 0), BuildingBlock: ZUJKAS_clean_linker_0, # of connection points: 2
#     Edge 32, Type (0, 0), BuildingBlock: ZUJKAS_clean_linker_0, # of connection points: 2
#     Edge 33, Type (0, 0), BuildingBlock: ZUJKAS_clean_linker_0, # of connection points: 2
#     Edge 34, Type (0, 0), BuildingBlock: ZUJKAS_clean_linker_0, # of connection points: 2
#     Edge 35, Type (0, 0), BuildingBlock: ZUJKAS_clean_linker_0, # of connection points: 2
#     Edge 36, Type (0, 0), BuildingBlock: ZUJKAS_clean_linker_0, # of connection points: 2
#     Edge 37, Type (0, 0), BuildingBlock: ZUJKAS_clean_linker_0, # of connection points: 2
#     Edge 38, Type (0, 0), BuildingBlock: ZUJKAS_clean_linker_0, # of connection points: 2
#     Edge 39, Type (0, 0), BuildingBlock: ZUJKAS_clean_linker_0, # of connection points: 2
#     Edge 40, Type (0, 0), BuildingBlock: ZUJKAS_clean_linker_0, # of connection points: 2
#     Edge 41, Type (0, 0), BuildingBlock: ZUJKAS_clean_linker_0, # of connection points: 2
#     Edge 42, Type (0, 0), BuildingBlock: ZUJKAS_clean_linker_0, # of connection points: 2
#     Edge 43, Type (0, 0), BuildingBlock: ZUJKAS_clean_linker_0, # of connection points: 2
#     Edge 44, Type (0, 0), BuildingBlock: ZUJKAS_clean_linker_0, # of connection points: 2
#     Edge 45, Type (0, 0), BuildingBlock: ZUJKAS_clean_linker_0, # of connection points: 2
#     Edge 46, Type (0, 0), BuildingBlock: ZUJKAS_clean_linker_0, # of connection points: 2
#     Edge 47, Type (0, 0), BuildingBlock: ZUJKAS_clean_linker_0, # of connection points: 2
# Relax obj value: 0.245
# Max RMSD: 0.177
# Mean RMSD: 0.176
data_MOF--net-gis--node1-UXUYUI_clean_sbu_0--edge1-ZUJKAS_clean_linker_0
_symmetry_space_group_name_H-M    P1
_symmetry_Int_Tables_number       1
_symmetry_cell_setting            triclinic
loop_
_symmetry_equiv_pos_as_xyz
'x, y, z'
_cell_length_a     80.43732
_cell_length_b     80.462469
_cell_length_c     85.644183
_cell_angle_alpha  89.98392
_cell_angle_beta   90.003713
_cell_angle_gamma 89.997584
loop_
_atom_site_label
_atom_site_type_symbol
_atom_site_fract_x
_atom_site_fract_y
_atom_site_fract_z
_atom_type_partial_charge
Li0 Li 0.16759 0.6008 0.12286 0.0
Li1 Li 0.17355 0.57565 0.1381 0.0
Li2 Li 0.1712 0.5742 0.1089 0.0
Li3 Li 0.1469 0.57778 0.12559 0.0
C4 C 0.2023 0.59405 0.11844 0.0
N5 N 0.23219 0.60927 0.1114 0.0
C6 C 0.21367 0.5977 0.13029 0.0
C7 C 0.20631 0.59784 0.10296 0.0
C8 C 0.22866 0.60549 0.12652 0.0
C9 C 0.22143 0.60561 0.09965 0.0
C10 C 0.1568 0.59593 0.15755 0.0
C11 C 0.15283 0.58739 0.1843 0.0
N12 N 0.1588 0.60232 0.1892 0.0
C13 C 0.16276 0.61124 0.16286 0.0
C14 C 0.15166 0.58395 0.16835 0.0
C15 C 0.16372 0.61421 0.1789 0.0
C16 C 0.15743 0.6331 0.11524 0.0
N17 N 0.17012 0.6243 0.12167 0.0
C18 C 0.18521 0.64929 0.12682 0.0
C19 C 0.1838 0.63202 0.12753 0.0
C20 C 0.17236 0.6587 0.12008 0.0
C21 C 0.15834 0.65038 0.11422 0.0
H22 H 0.14652 0.62668 0.11099 0.0
H23 H 0.19349 0.62483 0.13303 0.0
C24 C 0.18746 0.55037 0.15672 0.0
N25 N 0.18564 0.5671 0.15533 0.0
C26 C 0.19682 0.54369 0.16893 0.0
C27 C 0.20211 0.57161 0.17811 0.0
C28 C 0.19281 0.57772 0.16565 0.0
C29 C 0.20437 0.55437 0.17981 0.0
H30 H 0.18184 0.54221 0.14819 0.0
H31 H 0.19142 0.59097 0.16415 0.0
C32 C 0.15146 0.59664 0.0917 0.0
N33 N 0.14849 0.60872 0.0616 0.0
C34 C 0.13745 0.59279 0.08274 0.0
C35 C 0.16381 0.60685 0.08542 0.0
C36 C 0.13622 0.59894 0.06752 0.0
C37 C 0.16212 0.61279 0.07017 0.0
C38 C 0.15176 0.5455 0.12557 0.0
C39 C 0.14736 0.53711 0.1119 0.0
C40 C 0.14493 0.54054 0.13983 0.0
C41 C 0.13596 0.52403 0.11269 0.0
C42 C 0.13356 0.52742 0.14014 0.0
N43 N 0.12934 0.51952 0.12668 0.0
C44 C 0.19596 0.55846 0.09122 0.0
C45 C 0.16992 0.56068 0.07842 0.0
C46 C 0.20272 0.55008 0.07844 0.0
N47 N 0.17988 0.56366 0.09091 0.0
C48 C 0.17613 0.5523 0.06543 0.0
C49 C 0.19274 0.54686 0.06533 0.0
H50 H 0.2035 0.56073 0.10145 0.0
H51 H 0.15703 0.5644 0.0787 0.0
C52 C 0.11556 0.57761 0.14046 0.0
N53 N 0.12383 0.573 0.12733 0.0
C54 C 0.09849 0.5749 0.14174 0.0
C55 C 0.09874 0.56265 0.11598 0.0
C56 C 0.11583 0.56555 0.11522 0.0
C57 C 0.0898 0.56751 0.12932 0.0
H58 H 0.12217 0.58362 0.14986 0.0
H59 H 0.12271 0.56208 0.10488 0.0
O60 O 0.18759 0.5863 0.12195 0.0
O61 O 0.15586 0.59277 0.14188 0.0
O62 O 0.15287 0.59064 0.10661 0.0
O63 O 0.16266 0.55853 0.12499 0.0
H64 H 0.21091 0.59469 0.1423 0.0
H65 H 0.19798 0.59463 0.09354 0.0
H66 H 0.2375 0.60851 0.13561 0.0
H67 H 0.22466 0.60865 0.08772 0.0
H68 H 0.14901 0.57819 0.19278 0.0
H69 H 0.16664 0.62072 0.15469 0.0
H70 H 0.14694 0.57208 0.16446 0.0
H71 H 0.16838 0.62598 0.18317 0.0
H72 H 0.19623 0.65521 0.13148 0.0
H73 H 0.14801 0.65717 0.10921 0.0
H74 H 0.19841 0.53035 0.16964 0.0
H75 H 0.20743 0.58033 0.18633 0.0
H76 H 0.12766 0.58507 0.08744 0.0
H77 H 0.17447 0.61038 0.09231 0.0
H78 H 0.12549 0.59596 0.06043 0.0
H79 H 0.17161 0.62069 0.06519 0.0
H80 H 0.15256 0.54075 0.10078 0.0
H81 H 0.14833 0.54679 0.15054 0.0
H82 H 0.13235 0.51751 0.10219 0.0
H83 H 0.1281 0.52351 0.15109 0.0
H84 H 0.21559 0.54615 0.07885 0.0
H85 H 0.16786 0.54971 0.05576 0.0
H86 H 0.09215 0.57866 0.15233 0.0
H87 H 0.09255 0.55712 0.10603 0.0
Li88 Li 0.64711 0.91609 0.37109 0.0
Li89 Li 0.67168 0.92061 0.38587 0.0
Li90 Li 0.67468 0.91963 0.35823 0.0
Li91 Li 0.66784 0.89486 0.37373 0.0
C92 C 0.65574 0.9482 0.36101 0.0
N93 N 0.64356 0.97259 0.34137 0.0
C94 C 0.65506 0.96472 0.366 0.0
C95 C 0.65027 0.94409 0.34599 0.0
C96 C 0.64883 0.97686 0.35592 0.0
C97 C 0.64415 0.9566 0.33625 0.0
C98 C 0.64426 0.90968 0.4024 0.0
C99 C 0.6282 0.9039 0.42556 0.0
N100 N 0.62438 0.92032 0.42675 0.0
C101 C 0.64016 0.92651 0.40385 0.0
C102 C 0.63823 0.89828 0.41333 0.0
C103 C 0.6301 0.93163 0.41624 0.0
C104 C 0.61459 0.90505 0.37291 0.0
N105 N 0.62355 0.91905 0.37006 0.0
C106 C 0.5986 0.93482 0.36674 0.0
C107 C 0.61592 0.93386 0.36732 0.0
C108 C 0.58909 0.92049 0.36942 0.0
C109 C 0.59726 0.90549 0.37269 0.0
H110 H 0.62098 0.89352 0.37541 0.0
H111 H 0.62311 0.94502 0.36572 0.0
C112 C 0.68591 0.94726 0.40196 0.0
N113 N 0.68048 0.93138 0.40365 0.0
C114 C 0.6925 0.95578 0.41471 0.0
C115 C 0.68807 0.93129 0.43057 0.0
C116 C 0.68146 0.92329 0.41754 0.0
C117 C 0.69356 0.94782 0.42929 0.0
H118 H 0.68504 0.9533 0.39071 0.0
H119 H 0.67717 0.91058 0.41845 0.0
C120 C 0.65609 0.88817 0.34605 0.0
N121 N 0.65475 0.85777 0.3311 0.0
C122 C 0.67062 0.88086 0.34031 0.0
C123 C 0.64086 0.88009 0.34406 0.0
C124 C 0.66969 0.86546 0.33282 0.0
C125 C 0.64044 0.86472 0.33649 0.0
C126 C 0.70178 0.90906 0.38338 0.0
C127 C 0.7134 0.92179 0.38136 0.0
C128 C 0.70359 0.89789 0.39577 0.0
C129 C 0.72659 0.92323 0.39189 0.0
C130 C 0.71698 0.89973 0.40602 0.0
N131 N 0.72809 0.91227 0.4039 0.0
C132 C 0.69489 0.9431 0.34363 0.0
C133 C 0.68515 0.92196 0.32666 0.0
C134 C 0.70362 0.95061 0.33146 0.0
N135 N 0.68611 0.92893 0.34106 0.0
C136 C 0.69375 0.929 0.31416 0.0
C137 C 0.70324 0.94347 0.3165 0.0
H138 H 0.69505 0.94857 0.35516 0.0
H139 H 0.67774 0.91095 0.32485 0.0
C140 C 0.65673 0.86237 0.37873 0.0
N141 N 0.67046 0.87153 0.37544 0.0
C142 C 0.6578 0.8451 0.37967 0.0
C143 C 0.6872 0.84708 0.37403 0.0
C144 C 0.68553 0.86432 0.3731 0.0
C145 C 0.6732 0.83721 0.37731 0.0
H146 H 0.6449 0.86851 0.38041 0.0
H147 H 0.69621 0.87196 0.3704 0.0
O148 O 0.66212 0.93631 0.37074 0.0
O149 O 0.65402 0.90422 0.39036 0.0
O150 O 0.65683 0.90301 0.35381 0.0
O151 O 0.68855 0.90768 0.37343 0.0
H152 H 0.6593 0.96811 0.37757 0.0
H153 H 0.65066 0.93141 0.34187 0.0
H154 H 0.64821 0.98969 0.35964 0.0
H155 H 0.63986 0.9536 0.32461 0.0
H156 H 0.62346 0.8952 0.4341 0.0
H157 H 0.64464 0.93555 0.39553 0.0
H158 H 0.64127 0.88521 0.41235 0.0
H159 H 0.62684 0.9446 0.4175 0.0
H160 H 0.5927 0.94668 0.36448 0.0
H161 H 0.59032 0.89418 0.37483 0.0
H162 H 0.69634 0.96858 0.41322 0.0
H163 H 0.68885 0.92461 0.44152 0.0
H164 H 0.68255 0.88684 0.34192 0.0
H165 H 0.62948 0.88561 0.34833 0.0
H166 H 0.68086 0.85959 0.32846 0.0
H167 H 0.62875 0.8583 0.33493 0.0
H168 H 0.71219 0.93053 0.37185 0.0
H169 H 0.6946 0.88808 0.39761 0.0
H170 H 0.73563 0.93308 0.39052 0.0
H171 H 0.71847 0.89125 0.41573 0.0
H172 H 0.71053 0.96191 0.33372 0.0
H173 H 0.69323 0.92295 0.30288 0.0
H174 H 0.64662 0.838 0.38194 0.0
H175 H 0.69934 0.84158 0.37231 0.0
Li176 Li 0.32744 0.42314 0.60836 0.0
Li177 Li 0.35275 0.42047 0.6238 0.0
Li178 Li 0.33244 0.39794 0.62239 0.0
Li179 Li 0.32653 0.42344 0.63673 0.0
C180 C 0.3517 0.39344 0.59837 0.0
N181 N 0.36286 0.36381 0.58587 0.0
C182 C 0.36761 0.38759 0.60196 0.0
C183 C 0.34148 0.38423 0.58839 0.0
C184 C 0.37303 0.37259 0.59551 0.0
C185 C 0.34734 0.36927 0.58221 0.0
C186 C 0.34817 0.45235 0.62113 0.0
C187 C 0.36855 0.47109 0.63191 0.0
N188 N 0.37164 0.47709 0.61735 0.0
C189 C 0.3515 0.45873 0.60627 0.0
C190 C 0.35671 0.4586 0.63407 0.0
C191 C 0.36342 0.47124 0.60461 0.0
C192 C 0.30833 0.44641 0.59169 0.0
N193 N 0.31835 0.43291 0.59016 0.0
C194 C 0.31641 0.43426 0.5624 0.0
C195 C 0.32244 0.42673 0.57592 0.0
C196 C 0.30616 0.44834 0.56359 0.0
C197 C 0.30196 0.45431 0.57848 0.0
H198 H 0.30552 0.45119 0.6032 0.0
H199 H 0.33063 0.41614 0.57505 0.0
C200 C 0.38469 0.42374 0.63755 0.0
N201 N 0.37582 0.42548 0.62415 0.0
C202 C 0.40179 0.42672 0.63761 0.0
C203 C 0.40026 0.43319 0.61008 0.0
C204 C 0.38319 0.43015 0.61057 0.0
C205 C 0.40981 0.43135 0.6237 0.0
H206 H 0.37858 0.41973 0.64812 0.0
H207 H 0.37582 0.43127 0.60006 0.0
C208 C 0.29699 0.41472 0.61545 0.0
N209 N 0.26754 0.42323 0.60087 0.0
C210 C 0.28652 0.42665 0.62209 0.0
C211 C 0.29244 0.40706 0.60143 0.0
C212 C 0.27168 0.43078 0.61453 0.0
C213 C 0.27752 0.41157 0.59422 0.0
C214 C 0.34296 0.40465 0.65669 0.0
C215 C 0.33549 0.39038 0.6628 0.0
C216 C 0.34856 0.41708 0.66681 0.0
C217 C 0.33367 0.38882 0.67896 0.0
C218 C 0.34647 0.41508 0.68289 0.0
N219 N 0.33913 0.40111 0.68858 0.0
C220 C 0.34313 0.36509 0.62709 0.0
C221 C 0.31587 0.36738 0.6168 0.0
C222 C 0.34228 0.3478 0.62644 0.0
N223 N 0.33008 0.37446 0.62219 0.0
C224 C 0.31451 0.35012 0.61587 0.0
C225 C 0.32787 0.34007 0.62066 0.0
H226 H 0.35424 0.37111 0.63141 0.0
H227 H 0.30567 0.37512 0.61304 0.0
C228 C 0.31653 0.44852 0.65816 0.0
N229 N 0.31531 0.43217 0.65434 0.0
C230 C 0.3084 0.45461 0.67139 0.0
C231 C 0.29791 0.42692 0.67633 0.0
C232 C 0.30597 0.42145 0.66289 0.0
C233 C 0.29916 0.44366 0.68073 0.0
H234 H 0.32382 0.45681 0.65097 0.0
H235 H 0.30491 0.40861 0.65931 0.0
O236 O 0.34599 0.40788 0.60489 0.0
O237 O 0.33683 0.43984 0.62296 0.0
O238 O 0.31169 0.4107 0.62254 0.0
O239 O 0.34462 0.40652 0.64088 0.0
H240 H 0.37563 0.39443 0.60979 0.0
H241 H 0.32903 0.38842 0.58568 0.0
H242 H 0.38529 0.36789 0.59824 0.0
H243 H 0.33952 0.36195 0.57458 0.0
H244 H 0.37533 0.47597 0.64181 0.0
H245 H 0.34511 0.45396 0.59611 0.0
H246 H 0.35436 0.45372 0.64563 0.0
H247 H 0.36618 0.47625 0.59318 0.0
H248 H 0.31987 0.42923 0.55113 0.0
H249 H 0.29432 0.46529 0.57989 0.0
H250 H 0.40873 0.42488 0.64831 0.0
H251 H 0.40594 0.43685 0.59914 0.0
H252 H 0.28984 0.43277 0.63288 0.0
H253 H 0.3005 0.39799 0.59599 0.0
H254 H 0.26349 0.44003 0.61951 0.0
H255 H 0.27392 0.40585 0.5833 0.0
H256 H 0.33096 0.38069 0.65517 0.0
H257 H 0.35418 0.42831 0.66228 0.0
H258 H 0.32785 0.37788 0.68385 0.0
H259 H 0.35062 0.42467 0.69084 0.0
H260 H 0.35277 0.34057 0.63053 0.0
H261 H 0.30323 0.34473 0.61118 0.0
H262 H 0.30955 0.46762 0.67445 0.0
H263 H 0.29065 0.41819 0.68313 0.0
Li264 Li 0.82992 0.1015 0.87436 0.0
Li265 Li 0.82526 0.07709 0.85969 0.0
Li266 Li 0.82622 0.0743 0.8871 0.0
Li267 Li 0.85191 0.08013 0.87134 0.0
C268 C 0.79817 0.09395 0.88474 0.0
N269 N 0.77502 0.10771 0.90477 0.0
C270 C 0.78145 0.09485 0.88038 0.0
C271 C 0.8031 0.10004 0.89932 0.0
C272 C 0.76994 0.10186 0.89066 0.0
C273 C 0.79122 0.10695 0.90927 0.0
C274 C 0.83714 0.10465 0.84313 0.0
C275 C 0.84393 0.12159 0.82079 0.0
N276 N 0.82755 0.12533 0.81899 0.0
C277 C 0.82036 0.10866 0.84106 0.0
C278 C 0.84902 0.11115 0.83292 0.0
C279 C 0.81577 0.11914 0.82879 0.0
C280 C 0.8412 0.13381 0.87894 0.0
N281 N 0.82721 0.12485 0.87612 0.0
C282 C 0.81086 0.14961 0.87522 0.0
C283 C 0.81223 0.13236 0.87411 0.0
C284 C 0.82509 0.15924 0.87821 0.0
C285 C 0.84043 0.15109 0.88004 0.0
H286 H 0.853 0.12749 0.88019 0.0
H287 H 0.80134 0.12503 0.8715 0.0
C288 C 0.79839 0.06374 0.84308 0.0
N289 N 0.81448 0.06864 0.84176 0.0
C290 C 0.78984 0.05788 0.83003 0.0
C291 C 0.81474 0.06195 0.81463 0.0
C292 C 0.82279 0.06774 0.82798 0.0
C293 C 0.79798 0.05712 0.81554 0.0
H294 H 0.79219 0.0645 0.85426 0.0
H295 H 0.83563 0.07168 0.82734 0.0
C296 C 0.85322 0.09414 0.90351 0.0
N297 N 0.87261 0.10004 0.92957 0.0
C298 C 0.86579 0.08298 0.90767 0.0
C299 C 0.85055 0.10833 0.91259 0.0
C300 C 0.87544 0.08617 0.92089 0.0
C301 C 0.86047 0.11108 0.92572 0.0
C302 C 0.83449 0.04639 0.86305 0.0
C303 C 0.82049 0.03669 0.86625 0.0
C304 C 0.84475 0.04232 0.85045 0.0
C305 C 0.8169 0.02311 0.85667 0.0
C306 C 0.84073 0.02864 0.84115 0.0
N307 N 0.827 0.01941 0.84442 0.0
C308 C 0.80157 0.05755 0.90435 0.0
C309 C 0.82776 0.05936 0.91692 0.0
C310 C 0.79505 0.04847 0.91682 0.0
N311 N 0.81765 0.0628 0.90466 0.0
C312 C 0.8218 0.05029 0.92959 0.0
C313 C 0.80529 0.0446 0.92958 0.0
H314 H 0.79388 0.06017 0.89429 0.0
H315 H 0.84052 0.06341 0.9168 0.0
C316 C 0.88486 0.09058 0.86809 0.0
N317 N 0.87508 0.07697 0.86997 0.0
C318 C 0.90211 0.08887 0.86731 0.0
C319 C 0.89881 0.05916 0.87038 0.0
C320 C 0.88163 0.06146 0.87112 0.0
C321 C 0.9093 0.07298 0.86848 0.0
H322 H 0.87924 0.10277 0.86732 0.0
H323 H 0.87351 0.05089 0.87274 0.0
O324 O 0.8095 0.08711 0.8747 0.0
O325 O 0.84203 0.09446 0.85507 0.0
O326 O 0.84383 0.09143 0.89043 0.0
O327 O 0.83797 0.05998 0.87206 0.0
H328 H 0.77743 0.0902 0.86914 0.0
H329 H 0.81592 0.0994 0.90296 0.0
H330 H 0.75696 0.10264 0.88742 0.0
H331 H 0.79487 0.11169 0.92058 0.0
H332 H 0.853 0.12671 0.8128 0.0
H333 H 0.81096 0.10376 0.84881 0.0
H334 H 0.86206 0.10817 0.83438 0.0
H335 H 0.80284 0.12235 0.82707 0.0
H336 H 0.79876 0.15532 0.87382 0.0
H337 H 0.8518 0.15798 0.88202 0.0
H338 H 0.77699 0.0541 0.83125 0.0
H339 H 0.8214 0.06177 0.80365 0.0
H340 H 0.86792 0.07185 0.90089 0.0
H341 H 0.84091 0.11713 0.90953 0.0
H342 H 0.88516 0.07761 0.92427 0.0
H343 H 0.85853 0.12201 0.93286 0.0
H344 H 0.8124 0.03972 0.87593 0.0
H345 H 0.85555 0.04981 0.84774 0.0
H346 H 0.80605 0.01554 0.85895 0.0
H347 H 0.84848 0.02541 0.83129 0.0
H348 H 0.78232 0.04414 0.91629 0.0
H349 H 0.83006 0.04772 0.93929 0.0
H350 H 0.90972 0.09989 0.86609 0.0
H351 H 0.9038 0.04669 0.87118 0.0
Li352 Li 0.14597 0.42227 0.87196 0.0
Li353 Li 0.17054 0.42486 0.8871 0.0
Li354 Li 0.17223 0.42457 0.85921 0.0
Li355 Li 0.16624 0.39835 0.8741 0.0
C356 C 0.15003 0.45389 0.8726 0.0
N357 N 0.12606 0.47849 0.87314 0.0
C358 C 0.14559 0.46141 0.88671 0.0
C359 C 0.14233 0.45895 0.85876 0.0
C360 C 0.13344 0.47382 0.88674 0.0
C361 C 0.13021 0.47138 0.85928 0.0
C362 C 0.15086 0.40677 0.90632 0.0
C363 C 0.15408 0.39009 0.92955 0.0
N364 N 0.14807 0.40287 0.93828 0.0
C365 C 0.1447 0.41972 0.91554 0.0
C366 C 0.15559 0.39182 0.91337 0.0
C367 C 0.14341 0.41751 0.93167 0.0
C368 C 0.11487 0.42206 0.85679 0.0
N369 N 0.12267 0.42657 0.87021 0.0
C370 C 0.09689 0.43536 0.88138 0.0
C371 C 0.11407 0.43319 0.88238 0.0
C372 C 0.08845 0.43052 0.86776 0.0
C373 C 0.0977 0.42398 0.85528 0.0
H374 H 0.12191 0.41666 0.84735 0.0
H375 H 0.12048 0.43657 0.89296 0.0
C376 C 0.18549 0.45115 0.90287 0.0
N377 N 0.18106 0.43498 0.90477 0.0
C378 C 0.19292 0.45989 0.91505 0.0
C379 C 0.19187 0.43498 0.93077 0.0
C380 C 0.18466 0.42666 0.91818 0.0
C381 C 0.19582 0.45193 0.9294 0.0
H382 H 0.18317 0.45731 0.89186 0.0
H383 H 0.18186 0.4136 0.91919 0.0
C384 C 0.15675 0.40473 0.8396 0.0
N385 N 0.16195 0.39955 0.80807 0.0
C386 C 0.16424 0.39005 0.83442 0.0
C387 C 0.15176 0.4167 0.82872 0.0
C388 C 0.16678 0.38768 0.81844 0.0
C389 C 0.15456 0.41387 0.81284 0.0
C390 C 0.20088 0.41385 0.88183 0.0
C391 C 0.21106 0.42755 0.8788 0.0
C392 C 0.2054 0.40243 0.89337 0.0
C393 C 0.22559 0.42968 0.88751 0.0
C394 C 0.22003 0.405 0.90181 0.0
N395 N 0.22973 0.41846 0.89874 0.0
C396 C 0.18357 0.44886 0.83759 0.0
C397 C 0.19452 0.42171 0.83447 0.0
C398 C 0.193 0.45462 0.82501 0.0
N399 N 0.18443 0.43264 0.84194 0.0
C400 C 0.20403 0.42687 0.82177 0.0
C401 C 0.20342 0.44356 0.81692 0.0
H402 H 0.17573 0.45737 0.844 0.0
H403 H 0.19513 0.40895 0.83838 0.0
C404 C 0.15515 0.36556 0.87742 0.0
N405 N 0.16875 0.37505 0.8745 0.0
C406 C 0.15641 0.34827 0.87744 0.0
C407 C 0.18563 0.35089 0.87124 0.0
C408 C 0.18381 0.36815 0.87142 0.0
C409 C 0.1718 0.3407 0.87425 0.0
H410 H 0.14333 0.37146 0.87977 0.0
H411 H 0.19434 0.37606 0.86888 0.0
O412 O 0.16171 0.44152 0.87235 0.0
O413 O 0.15207 0.40859 0.89048 0.0
O414 O 0.15444 0.40742 0.85523 0.0
O415 O 0.18641 0.41179 0.87371 0.0
H416 H 0.15129 0.45759 0.89756 0.0
H417 H 0.14554 0.45322 0.84775 0.0
H418 H 0.12983 0.47969 0.89759 0.0
H419 H 0.12409 0.47534 0.84867 0.0
H420 H 0.15772 0.37861 0.93515 0.0
H421 H 0.1413 0.43147 0.91037 0.0
H422 H 0.16049 0.3817 0.90648 0.0
H423 H 0.13877 0.42747 0.93895 0.0
H424 H 0.09024 0.44025 0.89136 0.0
H425 H 0.09173 0.42024 0.84451 0.0
H426 H 0.19623 0.4728 0.91326 0.0
H427 H 0.19386 0.42828 0.94157 0.0
H428 H 0.16814 0.38063 0.84264 0.0
H429 H 0.14599 0.42814 0.83251 0.0
H430 H 0.17263 0.37642 0.81428 0.0
H431 H 0.15088 0.42309 0.80432 0.0
H432 H 0.20766 0.43652 0.86992 0.0
H433 H 0.19755 0.39185 0.89594 0.0
H434 H 0.23354 0.44027 0.88537 0.0
H435 H 0.22364 0.39634 0.91086 0.0
H436 H 0.19234 0.46764 0.82185 0.0
H437 H 0.21166 0.41783 0.81576 0.0
H438 H 0.14547 0.34092 0.88003 0.0
H439 H 0.19766 0.34561 0.86847 0.0
Li440 Li 0.82731 0.92352 0.10859 0.0
Li441 Li 0.85178 0.91882 0.12499 0.0
Li442 Li 0.8298 0.89682 0.1225 0.0
Li443 Li 0.82547 0.92224 0.13751 0.0
C444 C 0.84765 0.90008 0.09158 0.0
N445 N 0.85383 0.8874 0.06213 0.0
C446 C 0.86186 0.9049 0.08335 0.0
C447 C 0.83677 0.88853 0.08492 0.0
C448 C 0.86471 0.89844 0.06844 0.0
C449 C 0.84006 0.88233 0.07 0.0
C450 C 0.84842 0.95142 0.12424 0.0
C451 C 0.86933 0.96789 0.13722 0.0
N452 N 0.87179 0.97659 0.1238 0.0
C453 C 0.85108 0.9606 0.11061 0.0
C454 C 0.85753 0.95516 0.1377 0.0
C455 C 0.86297 0.97326 0.11062 0.0
C456 C 0.80335 0.9409 0.09136 0.0
N457 N 0.81895 0.93443 0.09066 0.0
C458 C 0.8227 0.94504 0.06491 0.0
C459 C 0.82865 0.93635 0.07782 0.0
C460 C 0.80666 0.95193 0.06529 0.0
C461 C 0.79685 0.94964 0.07867 0.0
H462 H 0.79603 0.93944 0.10186 0.0
H463 H 0.84115 0.9315 0.07772 0.0
C464 C 0.88323 0.91549 0.13901 0.0
N465 N 0.87512 0.92219 0.1266 0.0
C466 C 0.90042 0.91719 0.14041 0.0
C467 C 0.90061 0.93273 0.11626 0.0
C468 C 0.8834 0.93077 0.11536 0.0
C469 C 0.90938 0.92577 0.12885 0.0
H470 H 0.87636 0.90866 0.14776 0.0
H471 H 0.87665 0.93596 0.1056 0.0
C472 C 0.7961 0.90531 0.11588 0.0
N473 N 0.76719 0.89173 0.10394 0.0
C474 C 0.78232 0.90282 0.12555 0.0
C475 C 0.79504 0.90114 0.10007 0.0
C476 C 0.76786 0.89586 0.11932 0.0
C477 C 0.78036 0.89423 0.09427 0.0
C478 C 0.83994 0.90157 0.15697 0.0
C479 C 0.83087 0.88779 0.16208 0.0
C480 C 0.84659 0.91263 0.1679 0.0
C481 C 0.82842 0.88541 0.17807 0.0
C482 C 0.84383 0.90983 0.18379 0.0
N483 N 0.83487 0.8964 0.1885 0.0
C484 C 0.84051 0.86457 0.11778 0.0
C485 C 0.81181 0.86593 0.12397 0.0
C486 C 0.83973 0.84731 0.11666 0.0
N487 N 0.82666 0.87348 0.1213 0.0
C488 C 0.81045 0.84866 0.12292 0.0
C489 C 0.82456 0.83913 0.11926 0.0
H490 H 0.85216 0.87094 0.11582 0.0
H491 H 0.80107 0.87322 0.12711 0.0
C492 C 0.817 0.94706 0.15957 0.0
N493 N 0.81429 0.93108 0.15507 0.0
C494 C 0.80877 0.95353 0.17257 0.0
C495 C 0.79497 0.92704 0.17585 0.0
C496 C 0.80352 0.92108 0.16287 0.0
C497 C 0.79755 0.94347 0.18083 0.0
H498 H 0.82548 0.95479 0.15304 0.0
H499 H 0.80168 0.90841 0.15906 0.0
O500 O 0.84477 0.90623 0.10626 0.0
O501 O 0.83696 0.93886 0.12441 0.0
O502 O 0.81036 0.91211 0.12184 0.0
O503 O 0.84222 0.90426 0.14134 0.0
H504 H 0.87057 0.91362 0.08834 0.0
H505 H 0.82601 0.88417 0.09124 0.0
H506 H 0.8756 0.90219 0.06191 0.0
H507 H 0.8317 0.87342 0.06473 0.0
H508 H 0.87655 0.97082 0.14751 0.0
H509 H 0.84408 0.95796 0.10013 0.0
H510 H 0.85564 0.94818 0.14834 0.0
H511 H 0.8652 0.98042 0.10013 0.0
H512 H 0.83062 0.94645 0.05477 0.0
H513 H 0.78451 0.95495 0.0795 0.0
H514 H 0.90663 0.9118 0.15043 0.0
H515 H 0.907 0.93926 0.10697 0.0
H516 H 0.78278 0.90616 0.13776 0.0
H517 H 0.80532 0.90345 0.09228 0.0
H518 H 0.75715 0.89377 0.12671 0.0
H519 H 0.77941 0.89094 0.08205 0.0
H520 H 0.82566 0.8791 0.15379 0.0
H521 H 0.85366 0.92334 0.16415 0.0
H522 H 0.82135 0.87485 0.18219 0.0
H523 H 0.84879 0.91836 0.19237 0.0
H524 H 0.85087 0.84046 0.11365 0.0
H525 H 0.79859 0.8428 0.12525 0.0
H526 H 0.81098 0.9663 0.17599 0.0
H527 H 0.78662 0.91881 0.18206 0.0
Li528 Li 0.33005 0.60141 0.37269 0.0
Li529 Li 0.32474 0.57543 0.35851 0.0
Li530 Li 0.32637 0.57554 0.38776 0.0
Li531 Li 0.3511 0.57832 0.37151 0.0
C532 C 0.29558 0.59474 0.37729 0.0
N533 N 0.26606 0.61073 0.38424 0.0
C534 C 0.28337 0.59671 0.36581 0.0
C535 C 0.29261 0.60065 0.39238 0.0
C536 C 0.26858 0.6049 0.36953 0.0
C537 C 0.27766 0.60876 0.39565 0.0
C538 C 0.34181 0.59496 0.33858 0.0
C539 C 0.34704 0.58558 0.31228 0.0
N540 N 0.3405 0.59998 0.30668 0.0
C541 C 0.3353 0.60974 0.33256 0.0
C542 C 0.34789 0.58285 0.32837 0.0
C543 C 0.33469 0.61202 0.31639 0.0
C544 C 0.33956 0.63434 0.37855 0.0
N545 N 0.32706 0.62484 0.37269 0.0
C546 C 0.31102 0.64904 0.3668 0.0
C547 C 0.31305 0.63182 0.3667 0.0
C548 C 0.32364 0.65916 0.37294 0.0
C549 C 0.33809 0.65162 0.37883 0.0
H550 H 0.35067 0.62847 0.38305 0.0
H551 H 0.30357 0.62408 0.36157 0.0
C552 C 0.31194 0.54958 0.33956 0.0
N553 N 0.31314 0.56633 0.34126 0.0
C554 C 0.30281 0.54285 0.32721 0.0
C555 C 0.29652 0.57076 0.31858 0.0
C556 C 0.3056 0.57692 0.33115 0.0
C557 C 0.29486 0.55351 0.31656 0.0
H558 H 0.31783 0.54144 0.34795 0.0
H559 H 0.3065 0.59017 0.33293 0.0
C560 C 0.34644 0.59808 0.40452 0.0
N561 N 0.35055 0.60986 0.4346 0.0
C562 C 0.35994 0.59282 0.41354 0.0
C563 C 0.33524 0.6096 0.41071 0.0
C564 C 0.36174 0.59883 0.42875 0.0
C565 C 0.33747 0.61534 0.42596 0.0
C566 C 0.346 0.54578 0.37237 0.0
C567 C 0.34947 0.53707 0.38611 0.0
C568 C 0.35341 0.54083 0.35837 0.0
C569 C 0.36056 0.52372 0.38566 0.0
C570 C 0.36445 0.52743 0.3584 0.0
N571 N 0.36778 0.51923 0.37193 0.0
C572 C 0.30094 0.56227 0.40665 0.0
C573 C 0.32768 0.56223 0.41825 0.0
C574 C 0.29413 0.55461 0.4198 0.0
N575 N 0.31741 0.56602 0.40618 0.0
C576 C 0.32145 0.55443 0.43155 0.0
C577 C 0.30445 0.55047 0.43245 0.0
H578 H 0.29312 0.56502 0.39672 0.0
H579 H 0.34083 0.56474 0.41734 0.0
C580 C 0.38291 0.57925 0.3578 0.0
N581 N 0.37424 0.57364 0.37036 0.0
C582 C 0.40002 0.5766 0.35679 0.0
C583 C 0.39898 0.56237 0.38163 0.0
C584 C 0.38188 0.56527 0.38214 0.0
C585 C 0.40832 0.5682 0.36889 0.0
H586 H 0.37658 0.58598 0.34865 0.0
H587 H 0.37471 0.56104 0.39204 0.0
O588 O 0.31017 0.58679 0.37379 0.0
O589 O 0.34239 0.59247 0.35438 0.0
O590 O 0.34451 0.5923 0.38958 0.0
O591 O 0.33536 0.55905 0.37262 0.0
H592 H 0.28531 0.59204 0.35412 0.0
H593 H 0.30162 0.59876 0.40155 0.0
H594 H 0.25909 0.60661 0.36072 0.0
H595 H 0.27524 0.61341 0.40728 0.0
H596 H 0.3516 0.57625 0.30426 0.0
H597 H 0.33069 0.61932 0.34026 0.0
H598 H 0.35314 0.57143 0.33282 0.0
H599 H 0.32959 0.62335 0.31157 0.0
H600 H 0.29985 0.65438 0.36184 0.0
H601 H 0.34808 0.65898 0.38374 0.0
H602 H 0.3017 0.52948 0.32622 0.0
H603 H 0.29087 0.57948 0.31054 0.0
H604 H 0.36888 0.5841 0.4089 0.0
H605 H 0.32505 0.61426 0.40378 0.0
H606 H 0.37205 0.59474 0.43589 0.0
H607 H 0.32885 0.62423 0.43089 0.0
H608 H 0.34375 0.54064 0.39702 0.0
H609 H 0.3507 0.54729 0.34761 0.0
H610 H 0.36344 0.51694 0.39623 0.0
H611 H 0.37035 0.52353 0.34766 0.0
H612 H 0.28095 0.55185 0.41998 0.0
H613 H 0.33 0.55105 0.44079 0.0
H614 H 0.40667 0.58114 0.34666 0.0
H615 H 0.40488 0.55603 0.39131 0.0
Li616 Li 0.66735 0.101 0.61892 0.0
Li617 Li 0.67375 0.07621 0.63425 0.0
Li618 Li 0.67123 0.07484 0.60608 0.0
Li619 Li 0.64691 0.07896 0.62267 0.0
C620 C 0.7 0.09875 0.61829 0.0
N621 N 0.72404 0.12327 0.61865 0.0
C622 C 0.70891 0.10201 0.63196 0.0
C623 C 0.70338 0.1079 0.60477 0.0
C624 C 0.72101 0.11446 0.6319 0.0
C625 C 0.71555 0.12027 0.60521 0.0
C626 C 0.64346 0.09826 0.64693 0.0
C627 C 0.62143 0.09213 0.66515 0.0
N628 N 0.61468 0.10734 0.66233 0.0
C629 C 0.63635 0.11384 0.64425 0.0
C630 C 0.636 0.08733 0.65752 0.0
C631 C 0.62178 0.1182 0.65214 0.0
C632 C 0.66318 0.1325 0.60512 0.0
N633 N 0.67007 0.12437 0.61743 0.0
C634 C 0.67993 0.14991 0.6282 0.0
C635 C 0.67821 0.13267 0.62894 0.0
C636 C 0.67286 0.15865 0.61566 0.0
C637 C 0.66441 0.14975 0.60401 0.0
H638 H 0.65651 0.12562 0.59629 0.0
H639 H 0.68319 0.1259 0.63879 0.0
C640 C 0.70025 0.05914 0.64793 0.0
N641 N 0.68621 0.06786 0.65122 0.0
C642 C 0.71008 0.05292 0.65998 0.0
C643 C 0.69084 0.06486 0.67857 0.0
C644 C 0.68134 0.07079 0.66614 0.0
C645 C 0.7055 0.05588 0.67555 0.0
H646 H 0.70384 0.05715 0.6359 0.0
H647 H 0.67024 0.07796 0.66838 0.0
C648 C 0.64918 0.08876 0.58781 0.0
N649 N 0.6427 0.0833 0.55655 0.0
C650 C 0.63563 0.07898 0.58334 0.0
C651 C 0.65938 0.09583 0.57639 0.0
C652 C 0.63257 0.07636 0.56747 0.0
C653 C 0.65592 0.09289 0.56064 0.0
C654 C 0.66659 0.04508 0.6285 0.0
C655 C 0.67876 0.03529 0.62135 0.0
C656 C 0.66016 0.04033 0.643 0.0
C657 C 0.68436 0.02093 0.62887 0.0
C658 C 0.66612 0.02591 0.65016 0.0
N659 N 0.67799 0.01659 0.64301 0.0
C660 C 0.69512 0.06666 0.5831 0.0
C661 C 0.66941 0.05239 0.58126 0.0
C662 C 0.70145 0.05773 0.57046 0.0
N663 N 0.67937 0.06384 0.58818 0.0
C664 C 0.67517 0.04326 0.56856 0.0
C665 C 0.69146 0.04576 0.56309 0.0
H666 H 0.70289 0.07558 0.58907 0.0
H667 H 0.65704 0.05021 0.58578 0.0
C668 C 0.61335 0.08748 0.62066 0.0
N669 N 0.62379 0.07489 0.62462 0.0
C670 C 0.59619 0.08528 0.62158 0.0
C671 C 0.60084 0.05718 0.63062 0.0
C672 C 0.61794 0.05992 0.62949 0.0
C673 C 0.58973 0.06995 0.62656 0.0
H674 H 0.6184 0.09921 0.61673 0.0
H675 H 0.62653 0.05006 0.63234 0.0
O676 O 0.68796 0.08675 0.61814 0.0
O677 O 0.65752 0.09362 0.63907 0.0
O678 O 0.65255 0.09127 0.60328 0.0
O679 O 0.66116 0.05934 0.62145 0.0
H680 H 0.70641 0.09511 0.64254 0.0
H681 H 0.69654 0.1056 0.59412 0.0
H682 H 0.72796 0.11716 0.64242 0.0
H683 H 0.71822 0.12752 0.59487 0.0
H684 H 0.61545 0.08375 0.67327 0.0
H685 H 0.6419 0.12243 0.63606 0.0
H686 H 0.64126 0.07516 0.65963 0.0
H687 H 0.6161 0.13019 0.65013 0.0
H688 H 0.68631 0.15638 0.63753 0.0
H689 H 0.65882 0.15607 0.59415 0.0
H690 H 0.7212 0.04597 0.65713 0.0
H691 H 0.68702 0.06773 0.69038 0.0
H692 H 0.62767 0.07331 0.592 0.0
H693 H 0.66996 0.10337 0.57965 0.0
H694 H 0.62217 0.06876 0.56384 0.0
H695 H 0.66377 0.0982 0.55168 0.0
H696 H 0.68397 0.0388 0.61019 0.0
H697 H 0.65089 0.04786 0.64879 0.0
H698 H 0.69383 0.01328 0.62351 0.0
H699 H 0.66135 0.02217 0.66144 0.0
H700 H 0.71414 0.05989 0.56676 0.0
H701 H 0.66694 0.03434 0.56309 0.0
H702 H 0.58807 0.09551 0.61851 0.0
H703 H 0.59636 0.04512 0.63432 0.0
Li704 Li 0.82613 0.42061 0.85951 0.0
Li705 Li 0.82802 0.42125 0.88775 0.0
Li706 Li 0.85271 0.41725 0.87163 0.0
Li707 Li 0.83188 0.39539 0.87441 0.0
C708 C 0.84928 0.44937 0.87334 0.0
N709 N 0.87361 0.47351 0.87541 0.0
C710 C 0.85274 0.45691 0.88767 0.0
C711 C 0.85819 0.45413 0.86004 0.0
C712 C 0.86508 0.4691 0.88847 0.0
C713 C 0.87046 0.46634 0.86134 0.0
C714 C 0.79734 0.41312 0.88225 0.0
C715 C 0.77837 0.4097 0.90382 0.0
N716 N 0.76915 0.42264 0.89837 0.0
C717 C 0.78767 0.42637 0.87685 0.0
C718 C 0.79265 0.40468 0.89582 0.0
C719 C 0.77346 0.43098 0.88516 0.0
C720 C 0.80195 0.41923 0.83624 0.0
N721 N 0.81429 0.42893 0.84206 0.0
C722 C 0.8093 0.44959 0.8226 0.0
C723 C 0.81802 0.44393 0.83566 0.0
C724 C 0.79656 0.43976 0.81626 0.0
C725 C 0.79288 0.42442 0.82327 0.0
H726 H 0.79926 0.40738 0.84165 0.0
H727 H 0.82774 0.45148 0.84067 0.0
C728 C 0.82117 0.42479 0.92009 0.0
N729 N 0.81936 0.43181 0.90577 0.0
C730 C 0.81495 0.43279 0.9333 0.0
C731 C 0.80514 0.45508 0.91675 0.0
C732 C 0.81146 0.4466 0.90386 0.0
C733 C 0.80697 0.44825 0.93175 0.0
H734 H 0.82756 0.41307 0.92128 0.0
H735 H 0.81031 0.4519 0.8923 0.0
C736 C 0.8401 0.40046 0.83976 0.0
N737 N 0.8326 0.39577 0.80859 0.0
C738 C 0.83039 0.38693 0.83514 0.0
C739 C 0.84607 0.41157 0.82853 0.0
C740 C 0.82673 0.38477 0.81932 0.0
C741 C 0.84211 0.409 0.81283 0.0
C742 C 0.8519 0.39152 0.89844 0.0
C743 C 0.8682 0.38606 0.89606 0.0
C744 C 0.84127 0.38236 0.90809 0.0
C745 C 0.87358 0.37147 0.90334 0.0
C746 C 0.84711 0.36782 0.91511 0.0
N747 N 0.86301 0.36272 0.91261 0.0
C748 C 0.88416 0.42767 0.88252 0.0
C749 C 0.88397 0.4173 0.85661 0.0
C750 C 0.90129 0.43032 0.88177 0.0
N751 N 0.87591 0.42131 0.87002 0.0
C752 C 0.9011 0.41969 0.85537 0.0
C753 C 0.91 0.42619 0.86809 0.0
H754 H 0.87744 0.43046 0.89314 0.0
H755 H 0.87714 0.41206 0.84694 0.0
C756 C 0.81421 0.36499 0.87859 0.0
N757 N 0.82914 0.37198 0.87512 0.0
C758 C 0.81268 0.34772 0.87952 0.0
C759 C 0.84186 0.34527 0.87311 0.0
C760 C 0.84277 0.36253 0.87212 0.0
C761 C 0.82669 0.33768 0.87693 0.0
H762 H 0.80352 0.37281 0.88067 0.0
H763 H 0.8544 0.36846 0.8691 0.0
O764 O 0.83745 0.4372 0.87235 0.0
O765 O 0.81153 0.40869 0.8745 0.0
O766 O 0.84345 0.40303 0.85524 0.0
O767 O 0.84631 0.40563 0.89121 0.0
H768 H 0.84613 0.45327 0.89812 0.0
H769 H 0.85589 0.44823 0.84891 0.0
H770 H 0.86792 0.475 0.8995 0.0
H771 H 0.87752 0.47005 0.85117 0.0
H772 H 0.77465 0.40336 0.9144 0.0
H773 H 0.79121 0.43316 0.86647 0.0
H774 H 0.8001 0.39455 0.90029 0.0
H775 H 0.7659 0.44125 0.88116 0.0
H776 H 0.8124 0.46157 0.8176 0.0
H777 H 0.78329 0.41637 0.81862 0.0
H778 H 0.81647 0.42697 0.94462 0.0
H779 H 0.79934 0.46709 0.91501 0.0
H780 H 0.82555 0.37827 0.84367 0.0
H781 H 0.85343 0.42223 0.83192 0.0
H782 H 0.81917 0.3744 0.81558 0.0
H783 H 0.84653 0.41758 0.80403 0.0
H784 H 0.87658 0.39289 0.88857 0.0
H785 H 0.82854 0.38624 0.90986 0.0
H786 H 0.88615 0.36707 0.90155 0.0
H787 H 0.83898 0.36054 0.92249 0.0
H788 H 0.9077 0.4351 0.89194 0.0
H789 H 0.90731 0.41646 0.84457 0.0
H790 H 0.80076 0.34231 0.88249 0.0
H791 H 0.85287 0.33792 0.87077 0.0
Li792 Li 0.33543 0.10375 0.622 0.0
Li793 Li 0.35556 0.08119 0.62445 0.0
Li794 Li 0.33027 0.07791 0.6091 0.0
Li795 Li 0.32933 0.07898 0.6374 0.0
C796 C 0.35478 0.10673 0.5975 0.0
N797 N 0.3664 0.13503 0.58281 0.0
C798 C 0.37126 0.11179 0.59957 0.0
C799 C 0.34423 0.11603 0.58791 0.0
C800 C 0.3769 0.12613 0.59204 0.0
C801 C 0.35033 0.13032 0.58061 0.0
C802 C 0.34508 0.0989 0.65649 0.0
C803 C 0.34774 0.09038 0.68339 0.0
N804 N 0.33973 0.10446 0.68793 0.0
C805 C 0.33693 0.11331 0.66143 0.0
C806 C 0.35061 0.08737 0.66755 0.0
C807 C 0.33434 0.11589 0.67738 0.0
C808 C 0.318 0.13412 0.61829 0.0
N809 N 0.3331 0.1272 0.62114 0.0
C810 C 0.34567 0.15399 0.62312 0.0
C811 C 0.34679 0.13671 0.6237 0.0
C812 C 0.33025 0.16157 0.62013 0.0
C813 C 0.31628 0.15138 0.61771 0.0
H814 H 0.30727 0.12626 0.6166 0.0
H815 H 0.35859 0.13082 0.62616 0.0
C816 C 0.38606 0.06969 0.61247 0.0
N817 N 0.37855 0.076 0.62539 0.0
C818 C 0.40299 0.06593 0.6127 0.0
C819 C 0.40412 0.0753 0.63951 0.0
C820 C 0.38717 0.07888 0.63875 0.0
C821 C 0.41226 0.0688 0.62634 0.0
H822 H 0.37888 0.06767 0.60196 0.0
H823 H 0.38094 0.08415 0.64876 0.0
C824 C 0.30006 0.08697 0.61548 0.0
N825 N 0.27096 0.07802 0.60053 0.0
C826 C 0.29001 0.07442 0.62167 0.0
C827 C 0.29528 0.09502 0.60172 0.0
C828 C 0.27535 0.07008 0.61393 0.0
C829 C 0.28054 0.09029 0.59432 0.0
C830 C 0.35081 0.04918 0.62335 0.0
C831 C 0.3539 0.04159 0.60896 0.0
C832 C 0.35953 0.04394 0.63659 0.0
C833 C 0.36571 0.02889 0.60806 0.0
C834 C 0.37127 0.03123 0.6352 0.0
N835 N 0.37408 0.02403 0.62108 0.0
C836 C 0.3234 0.07372 0.57694 0.0
C837 C 0.31226 0.05303 0.59366 0.0
C838 C 0.31726 0.06545 0.56386 0.0
N839 N 0.32092 0.06734 0.59143 0.0
C840 C 0.30594 0.04431 0.5809 0.0
C841 C 0.30863 0.05039 0.56573 0.0
H842 H 0.33043 0.08505 0.57552 0.0
H843 H 0.31064 0.04821 0.60535 0.0
C844 C 0.30724 0.08216 0.66219 0.0
N845 N 0.31783 0.0713 0.65524 0.0
C846 C 0.2985 0.07751 0.67551 0.0
C847 C 0.3113 0.05034 0.67402 0.0
C848 C 0.31991 0.05559 0.66073 0.0
C849 C 0.30053 0.06143 0.68162 0.0
H850 H 0.30564 0.09447 0.65734 0.0
H851 H 0.32822 0.04714 0.65481 0.0
O852 O 0.34897 0.09285 0.60494 0.0
O853 O 0.34744 0.09598 0.64091 0.0
O854 O 0.31466 0.09113 0.62267 0.0
O855 O 0.33955 0.06186 0.62442 0.0
H856 H 0.37959 0.10484 0.60703 0.0
H857 H 0.33138 0.11245 0.58635 0.0
H858 H 0.3896 0.13022 0.59358 0.0
H859 H 0.34226 0.1377 0.57326 0.0
H860 H 0.35182 0.0815 0.69206 0.0
H861 H 0.33248 0.12233 0.65306 0.0
H862 H 0.35677 0.07605 0.66394 0.0
H863 H 0.32798 0.12695 0.68136 0.0
H864 H 0.35681 0.16131 0.62488 0.0
H865 H 0.30409 0.15666 0.61567 0.0
H866 H 0.40874 0.06083 0.60233 0.0
H867 H 0.41086 0.07798 0.65017 0.0
H868 H 0.29357 0.06796 0.63222 0.0
H869 H 0.30299 0.10463 0.59668 0.0
H870 H 0.26749 0.06034 0.61855 0.0
H871 H 0.27675 0.09633 0.58361 0.0
H872 H 0.34741 0.04558 0.59855 0.0
H873 H 0.35745 0.04982 0.64778 0.0
H874 H 0.36827 0.02295 0.59698 0.0
H875 H 0.37818 0.02714 0.64532 0.0
H876 H 0.31946 0.07067 0.55238 0.0
H877 H 0.29959 0.03263 0.58287 0.0
H878 H 0.29006 0.08632 0.68085 0.0
H879 H 0.3132 0.03786 0.67839 0.0
Li880 Li 0.66404 0.60129 0.37499 0.0
Li881 Li 0.64353 0.57903 0.37243 0.0
Li882 Li 0.6687 0.57535 0.38795 0.0
Li883 Li 0.66983 0.5764 0.3596 0.0
C884 C 0.64456 0.60457 0.39935 0.0
N885 N 0.63333 0.63309 0.41391 0.0
C886 C 0.62822 0.60997 0.39708 0.0
C887 C 0.65516 0.61363 0.4091 0.0
C888 C 0.62278 0.62442 0.40454 0.0
C889 C 0.64926 0.62803 0.41631 0.0
C890 C 0.65434 0.59662 0.34046 0.0
C891 C 0.65146 0.58817 0.31357 0.0
N892 N 0.65964 0.60214 0.30901 0.0
C893 C 0.66267 0.61093 0.3355 0.0
C894 C 0.64862 0.58518 0.32942 0.0
C895 C 0.66523 0.61349 0.31954 0.0
C896 C 0.68199 0.63133 0.3789 0.0
N897 N 0.66679 0.6247 0.3759 0.0
C898 C 0.65469 0.65172 0.37409 0.0
C899 C 0.65329 0.63447 0.37331 0.0
C900 C 0.67021 0.65895 0.37731 0.0
C901 C 0.684 0.64854 0.37965 0.0
H902 H 0.69256 0.62326 0.38067 0.0
H903 H 0.64142 0.62882 0.37064 0.0
C904 C 0.61243 0.56784 0.38378 0.0
N905 N 0.62038 0.57446 0.37123 0.0
C906 C 0.59533 0.56488 0.38323 0.0
C907 C 0.59497 0.57571 0.35689 0.0
C908 C 0.61205 0.57842 0.35795 0.0
C909 C 0.58636 0.56895 0.36968 0.0
H910 H 0.61935 0.56508 0.3943 0.0
H911 H 0.61863 0.58387 0.34823 0.0
C912 C 0.69923 0.58419 0.38154 0.0
N913 N 0.72848 0.57538 0.39629 0.0
C914 C 0.70947 0.57196 0.37509 0.0
C915 C 0.7039 0.59201 0.39544 0.0
C916 C 0.72421 0.56768 0.38273 0.0
C917 C 0.71871 0.58735 0.40274 0.0
C918 C 0.64782 0.54692 0.3738 0.0
C919 C 0.64485 0.53937 0.38824 0.0
C920 C 0.63885 0.54181 0.36067 0.0
C921 C 0.63287 0.52684 0.3893 0.0
C922 C 0.62695 0.52927 0.36223 0.0
N923 N 0.62424 0.52211 0.37639 0.0
C924 C 0.67437 0.57109 0.42022 0.0
C925 C 0.68759 0.55128 0.40392 0.0
C926 C 0.68086 0.56345 0.43351 0.0
N927 N 0.67785 0.56493 0.40583 0.0
C928 C 0.69437 0.54326 0.41689 0.0
C929 C 0.69095 0.54929 0.43194 0.0
H930 H 0.66636 0.58178 0.42141 0.0
H931 H 0.69001 0.54659 0.3923 0.0
C932 C 0.69169 0.57952 0.3346 0.0
N933 N 0.68115 0.56867 0.34164 0.0
C934 C 0.69971 0.57512 0.3208 0.0
C935 C 0.68651 0.54814 0.32215 0.0
C936 C 0.67859 0.55314 0.33588 0.0
C937 C 0.69703 0.55932 0.31434 0.0
H938 H 0.69365 0.5917 0.33962 0.0
H939 H 0.67027 0.54472 0.34185 0.0
O940 O 0.6502 0.5906 0.39195 0.0
O941 O 0.65203 0.59371 0.35606 0.0
O942 O 0.68458 0.58833 0.3744 0.0
O943 O 0.65927 0.55941 0.37257 0.0
H944 H 0.61986 0.60319 0.38951 0.0
H945 H 0.6679 0.60974 0.41085 0.0
H946 H 0.61019 0.62879 0.40283 0.0
H947 H 0.65737 0.63523 0.42378 0.0
H948 H 0.64724 0.57934 0.30492 0.0
H949 H 0.66728 0.61988 0.34386 0.0
H950 H 0.64231 0.57395 0.33306 0.0
H951 H 0.67173 0.62446 0.31554 0.0
H952 H 0.64382 0.65933 0.37197 0.0
H953 H 0.69616 0.65365 0.38219 0.0
H954 H 0.58914 0.55988 0.39343 0.0
H955 H 0.58856 0.57889 0.34618 0.0
H956 H 0.70601 0.5657 0.3644 0.0
H957 H 0.69604 0.6014 0.40066 0.0
H958 H 0.73223 0.55818 0.37791 0.0
H959 H 0.72242 0.59321 0.41356 0.0
H960 H 0.6516 0.54323 0.39854 0.0
H961 H 0.64088 0.54764 0.34945 0.0
H962 H 0.6304 0.52093 0.4004 0.0
H963 H 0.61984 0.52528 0.35219 0.0
H964 H 0.67759 0.56831 0.44489 0.0
H965 H 0.70215 0.53243 0.41515 0.0
H966 H 0.70796 0.58398 0.31526 0.0
H967 H 0.68415 0.53585 0.3175 0.0
Li968 Li 0.16922 0.92068 0.10951 0.0
Li969 Li 0.17216 0.92047 0.13768 0.0
Li970 Li 0.16591 0.89506 0.12335 0.0
Li971 Li 0.14515 0.91696 0.1265 0.0
C972 C 0.20024 0.91234 0.11411 0.0
N973 N 0.22819 0.92082 0.09711 0.0
C974 C 0.21111 0.92454 0.11966 0.0
C975 C 0.20362 0.90442 0.09993 0.0
C976 C 0.22518 0.92864 0.1109 0.0
C977 C 0.21779 0.90891 0.09149 0.0
C978 C 0.14864 0.94913 0.12389 0.0
C979 C 0.12764 0.96639 0.13578 0.0
N980 N 0.12456 0.97351 0.12167 0.0
C981 C 0.14529 0.95664 0.10952 0.0
C982 C 0.13979 0.95407 0.13715 0.0
C983 C 0.13308 0.96895 0.10864 0.0
C984 C 0.17186 0.92498 0.07686 0.0
N985 N 0.17687 0.9309 0.09094 0.0
C986 C 0.19255 0.95247 0.07872 0.0
C987 C 0.18697 0.94438 0.09213 0.0
C988 C 0.18744 0.94675 0.064 0.0
C989 C 0.17704 0.93276 0.06314 0.0
H990 H 0.16364 0.91439 0.07628 0.0
H991 H 0.19048 0.94897 0.10353 0.0
C992 C 0.19702 0.9197 0.16042 0.0
N993 N 0.18437 0.92911 0.15475 0.0
C994 C 0.20608 0.92505 0.17333 0.0
C995 C 0.189 0.94978 0.17428 0.0
C996 C 0.18033 0.94399 0.16125 0.0
C997 C 0.20202 0.94022 0.18049 0.0
H998 H 0.19992 0.90792 0.15498 0.0
H999 H 0.17031 0.95127 0.15641 0.0
C1000 C 0.14497 0.89061 0.10044 0.0
N1001 N 0.13348 0.86113 0.08788 0.0
C1002 C 0.12934 0.88448 0.10467 0.0
C1003 C 0.15472 0.88178 0.08976 0.0
C1004 C 0.12376 0.86955 0.09819 0.0
C1005 C 0.1487 0.86688 0.08358 0.0
C1006 C 0.1587 0.90086 0.15821 0.0
C1007 C 0.16888 0.8877 0.16292 0.0
C1008 C 0.15269 0.91208 0.16932 0.0
C1009 C 0.17293 0.88603 0.17871 0.0
C1010 C 0.15707 0.91 0.18498 0.0
N1011 N 0.16701 0.89712 0.18931 0.0
C1012 C 0.18255 0.86451 0.11695 0.0
C1013 C 0.15569 0.86227 0.12814 0.0
C1014 C 0.18385 0.84723 0.11599 0.0
N1015 N 0.16855 0.87161 0.12278 0.0
C1016 C 0.15644 0.84498 0.1274 0.0
C1017 C 0.17061 0.83723 0.12115 0.0
H1018 H 0.19265 0.87223 0.11291 0.0
H1019 H 0.14478 0.8683 0.13288 0.0
C1020 C 0.11362 0.92733 0.11609 0.0
N1021 N 0.12199 0.921 0.12853 0.0
C1022 C 0.09647 0.92983 0.11693 0.0
C1023 C 0.09689 0.91905 0.14329 0.0
C1024 C 0.11404 0.91686 0.14197 0.0
C1025 C 0.08788 0.92553 0.13062 0.0
H1026 H 0.12024 0.93019 0.10544 0.0
H1027 H 0.12097 0.91159 0.15158 0.0
O1028 O 0.18626 0.90834 0.1224 0.0
O1029 O 0.16038 0.93687 0.12496 0.0
O1030 O 0.15085 0.90498 0.10695 0.0
O1031 O 0.15497 0.90299 0.14275 0.0
H1032 H 0.20863 0.93093 0.13052 0.0
H1033 H 0.19522 0.89514 0.09533 0.0
H1034 H 0.23366 0.93811 0.11502 0.0
H1035 H 0.22048 0.90297 0.08045 0.0
H1036 H 0.1206 0.97023 0.14592 0.0
H1037 H 0.15193 0.95293 0.09911 0.0
H1038 H 0.14203 0.94822 0.14833 0.0
H1039 H 0.13032 0.97483 0.09757 0.0
H1040 H 0.20033 0.96339 0.07987 0.0
H1041 H 0.17288 0.92796 0.052 0.0
H1042 H 0.21589 0.91721 0.1779 0.0
H1043 H 0.18559 0.96159 0.17942 0.0
H1044 H 0.12168 0.89105 0.113 0.0
H1045 H 0.16692 0.88623 0.08649 0.0
H1046 H 0.11173 0.86463 0.10141 0.0
H1047 H 0.15617 0.85986 0.07541 0.0
H1048 H 0.17378 0.879 0.15447 0.0
H1049 H 0.14498 0.92246 0.16585 0.0
H1050 H 0.18086 0.87595 0.18251 0.0
H1051 H 0.15262 0.91866 0.19369 0.0
H1052 H 0.19495 0.84178 0.111 0.0
H1053 H 0.14608 0.83776 0.13178 0.0
H1054 H 0.08996 0.93459 0.1068 0.0
H1055 H 0.09074 0.91565 0.15407 0.0
Li1056 Li 0.83392 0.60329 0.1206 0.0
Li1057 Li 0.85457 0.58116 0.12397 0.0
Li1058 Li 0.82921 0.57736 0.10751 0.0
Li1059 Li 0.82678 0.57741 0.13574 0.0
C1060 C 0.85379 0.60574 0.09556 0.0
N1061 N 0.86507 0.63245 0.07824 0.0
C1062 C 0.87064 0.60998 0.09572 0.0
C1063 C 0.84272 0.61497 0.08642 0.0
C1064 C 0.87609 0.62356 0.08692 0.0
C1065 C 0.84865 0.62846 0.0778 0.0
C1066 C 0.85224 0.59794 0.15379 0.0
C1067 C 0.8617 0.58953 0.17935 0.0
N1068 N 0.86922 0.60453 0.18119 0.0
C1069 C 0.85984 0.61338 0.15607 0.0
C1070 C 0.85298 0.586 0.16564 0.0
C1071 C 0.86846 0.61643 0.16993 0.0
C1072 C 0.81571 0.63334 0.11954 0.0
N1073 N 0.83125 0.62673 0.11986 0.0
C1074 C 0.84343 0.65377 0.11894 0.0
C1075 C 0.845 0.63654 0.11967 0.0
C1076 C 0.82754 0.66102 0.11859 0.0
C1077 C 0.81355 0.65055 0.11889 0.0
H1078 H 0.80499 0.62525 0.11988 0.0
H1079 H 0.85722 0.63096 0.11998 0.0
C1080 C 0.8842 0.56235 0.12069 0.0
N1081 N 0.87777 0.57698 0.12587 0.0
C1082 C 0.9013 0.55942 0.12149 0.0
C1083 C 0.90485 0.58679 0.13264 0.0
C1084 C 0.88771 0.58914 0.13171 0.0
C1085 C 0.91186 0.5718 0.12744 0.0
H1086 H 0.87607 0.55304 0.11574 0.0
H1087 H 0.88238 0.60085 0.13525 0.0
C1088 C 0.79857 0.58711 0.11273 0.0
N1089 N 0.76958 0.58044 0.0966 0.0
C1090 C 0.7878 0.57465 0.11794 0.0
C1091 C 0.79449 0.59631 0.09943 0.0
C1092 C 0.77323 0.57144 0.1096 0.0
C1093 C 0.77982 0.5927 0.09139 0.0
C1094 C 0.84291 0.54678 0.12998 0.0
C1095 C 0.83581 0.53193 0.12472 0.0
C1096 C 0.85378 0.54648 0.1427 0.0
C1097 C 0.83944 0.5171 0.1325 0.0
C1098 C 0.85712 0.53141 0.15016 0.0
N1099 N 0.84991 0.51715 0.14497 0.0
C1100 C 0.82464 0.57338 0.07498 0.0
C1101 C 0.81051 0.55377 0.0908 0.0
C1102 C 0.81859 0.56582 0.06148 0.0
N1103 N 0.82058 0.56722 0.08924 0.0
C1104 C 0.80426 0.54575 0.07761 0.0
C1105 C 0.80843 0.55167 0.06267 0.0
H1106 H 0.83272 0.58404 0.07406 0.0
H1107 H 0.80744 0.5492 0.10231 0.0
C1108 C 0.81078 0.58101 0.16419 0.0
N1109 N 0.81453 0.56953 0.15312 0.0
C1110 C 0.80101 0.57667 0.17698 0.0
C1111 C 0.79902 0.54874 0.16673 0.0
C1112 C 0.80888 0.55364 0.15411 0.0
C1113 C 0.79484 0.56039 0.17829 0.0
H1114 H 0.81527 0.59361 0.16297 0.0
H1115 H 0.81159 0.54488 0.14492 0.0
O1116 O 0.8482 0.59258 0.10423 0.0
O1117 O 0.84359 0.59484 0.14031 0.0
O1118 O 0.81307 0.5902 0.12056 0.0
O1119 O 0.83941 0.56142 0.1225 0.0
H1120 H 0.87942 0.60289 0.10254 0.0
H1121 H 0.82965 0.61187 0.08614 0.0
H1122 H 0.88909 0.62701 0.08699 0.0
H1123 H 0.84019 0.63579 0.0708 0.0
H1124 H 0.86239 0.58036 0.18857 0.0
H1125 H 0.85921 0.62289 0.14718 0.0
H1126 H 0.84671 0.57421 0.16441 0.0
H1127 H 0.87452 0.62828 0.17176 0.0
H1128 H 0.85457 0.66131 0.11849 0.0
H1129 H 0.80107 0.6556 0.11887 0.0
H1130 H 0.90624 0.5478 0.11713 0.0
H1131 H 0.91254 0.59664 0.13734 0.0
H1132 H 0.79074 0.56743 0.12822 0.0
H1133 H 0.80262 0.60606 0.09529 0.0
H1134 H 0.76484 0.56176 0.11344 0.0
H1135 H 0.77656 0.59965 0.08102 0.0
H1136 H 0.82755 0.53185 0.11477 0.0
H1137 H 0.8598 0.5577 0.14662 0.0
H1138 H 0.83395 0.50555 0.12861 0.0
H1139 H 0.8655 0.53103 0.16003 0.0
H1140 H 0.82195 0.57096 0.05022 0.0
H1141 H 0.79666 0.53476 0.07911 0.0
H1142 H 0.79826 0.586 0.18572 0.0
H1143 H 0.7943 0.53615 0.16716 0.0
Li1144 Li 0.14469 0.08265 0.8722 0.0
Li1145 Li 0.16543 0.10475 0.87442 0.0
Li1146 Li 0.17052 0.07899 0.85873 0.0
Li1147 Li 0.17116 0.07778 0.88706 0.0
C1148 C 0.14024 0.10109 0.84675 0.0
N1149 N 0.11198 0.1095 0.83018 0.0
C1150 C 0.13432 0.11742 0.84698 0.0
C1151 C 0.1319 0.08909 0.83792 0.0
C1152 C 0.11999 0.12141 0.83856 0.0
C1153 C 0.1176 0.09357 0.82968 0.0
C1154 C 0.15027 0.10238 0.90494 0.0
C1155 C 0.16024 0.11303 0.92957 0.0
N1156 N 0.14494 0.11952 0.93249 0.0
C1157 C 0.13458 0.10893 0.90832 0.0
C1158 C 0.16315 0.10426 0.91577 0.0
C1159 C 0.13216 0.11765 0.92224 0.0
C1160 C 0.11538 0.06305 0.87077 0.0
N1161 N 0.12141 0.07878 0.87186 0.0
C1162 C 0.09395 0.09001 0.87164 0.0
C1163 C 0.11111 0.09215 0.87246 0.0
C1164 C 0.08731 0.07393 0.87034 0.0
C1165 C 0.09824 0.06031 0.87002 0.0
H1166 H 0.12387 0.05264 0.8704 0.0
H1167 H 0.11626 0.10451 0.87339 0.0
C1168 C 0.18212 0.13515 0.86913 0.0
N1169 N 0.16827 0.12815 0.87542 0.0
C1170 C 0.18417 0.15238 0.86928 0.0
C1171 C 0.15746 0.15488 0.88203 0.0
C1172 C 0.156 0.13762 0.88173 0.0
C1173 C 0.17168 0.16247 0.87572 0.0
H1174 H 0.19151 0.12734 0.86385 0.0
H1175 H 0.14489 0.1318 0.88619 0.0
C1176 C 0.16315 0.04794 0.86561 0.0
N1177 N 0.17189 0.01851 0.85118 0.0
C1178 C 0.17597 0.03817 0.87172 0.0
C1179 C 0.15466 0.04266 0.85227 0.0
C1180 C 0.18022 0.02334 0.86423 0.0
C1181 C 0.15931 0.02777 0.84511 0.0
C1182 C 0.20094 0.09533 0.87937 0.0
C1183 C 0.21568 0.08847 0.87357 0.0
C1184 C 0.20168 0.10706 0.89138 0.0
C1185 C 0.23086 0.09318 0.88015 0.0
C1186 C 0.2171 0.11146 0.89764 0.0
N1187 N 0.23125 0.10447 0.89196 0.0
C1188 C 0.17488 0.07481 0.82629 0.0
C1189 C 0.19449 0.06062 0.84207 0.0
C1190 C 0.18281 0.06933 0.81277 0.0
N1191 N 0.18089 0.0705 0.84054 0.0
C1192 C 0.20287 0.0549 0.82886 0.0
C1193 C 0.19717 0.05945 0.81395 0.0
H1194 H 0.16412 0.08277 0.8254 0.0
H1195 H 0.199 0.05741 0.85356 0.0
C1196 C 0.16858 0.06173 0.91536 0.0
N1197 N 0.18005 0.06691 0.9048 0.0
C1198 C 0.17352 0.05311 0.92867 0.0
C1199 C 0.20205 0.05524 0.92001 0.0
C1200 C 0.19653 0.0638 0.9068 0.0
C1201 C 0.19047 0.04975 0.93115 0.0
H1202 H 0.15554 0.06417 0.9133 0.0
H1203 H 0.20538 0.06768 0.89808 0.0
O1204 O 0.15411 0.09689 0.85513 0.0
O1205 O 0.15277 0.09366 0.8914 0.0
O1206 O 0.15899 0.06263 0.87264 0.0
O1207 O 0.18597 0.09082 0.87303 0.0
H1208 H 0.14068 0.12691 0.85362 0.0
H1209 H 0.13631 0.07641 0.83759 0.0
H1210 H 0.11522 0.13399 0.8387 0.0
H1211 H 0.11094 0.08437 0.82292 0.0
H1212 H 0.17012 0.11459 0.93801 0.0
H1213 H 0.12437 0.1074 0.90026 0.0
H1214 H 0.17521 0.09882 0.9137 0.0
H1215 H 0.12011 0.1229 0.92492 0.0
H1216 H 0.08596 0.10083 0.87216 0.0
H1217 H 0.09362 0.04773 0.86894 0.0
H1218 H 0.19518 0.15776 0.86406 0.0
H1219 H 0.14757 0.16221 0.88714 0.0
H1220 H 0.18266 0.04205 0.88204 0.0
H1221 H 0.14467 0.05002 0.84743 0.0
H1222 H 0.19018 0.0157 0.86877 0.0
H1223 H 0.15292 0.02358 0.83471 0.0
H1224 H 0.21541 0.07956 0.86414 0.0
H1225 H 0.19052 0.11292 0.89567 0.0
H1226 H 0.24234 0.08788 0.87584 0.0
H1227 H 0.21782 0.12051 0.90695 0.0
H1228 H 0.17788 0.07297 0.80151 0.0
H1229 H 0.214 0.04751 0.83034 0.0
H1230 H 0.1641 0.04878 0.93673 0.0
H1231 H 0.21523 0.05295 0.92146 0.0
Li1232 Li 0.67083 0.42134 0.60909 0.0
Li1233 Li 0.67118 0.41876 0.63708 0.0
Li1234 Li 0.66547 0.39504 0.61993 0.0
Li1235 Li 0.64478 0.41649 0.62328 0.0
C1236 C 0.70115 0.40993 0.61451 0.0
N1237 N 0.73093 0.41483 0.59906 0.0
C1238 C 0.71419 0.41832 0.62187 0.0
C1239 C 0.7034 0.40374 0.59941 0.0
C1240 C 0.72912 0.42074 0.61384 0.0
C1241 C 0.71849 0.40643 0.59176 0.0
C1242 C 0.65313 0.4477 0.63431 0.0
C1243 C 0.63808 0.45497 0.65769 0.0
N1244 N 0.63945 0.47132 0.65388 0.0
C1245 C 0.65441 0.46457 0.63064 0.0
C1246 C 0.64492 0.44284 0.64796 0.0
C1247 C 0.6474 0.47633 0.64067 0.0
C1248 C 0.67519 0.43044 0.57761 0.0
N1249 N 0.68033 0.43347 0.59243 0.0
C1250 C 0.69865 0.45485 0.58361 0.0
C1251 C 0.69181 0.44538 0.59565 0.0
C1252 C 0.69343 0.45218 0.56815 0.0
C1253 C 0.68159 0.43969 0.56523 0.0
H1254 H 0.66586 0.42104 0.57544 0.0
H1255 H 0.69555 0.44756 0.60761 0.0
C1256 C 0.67879 0.42173 0.66991 0.0
N1257 N 0.68152 0.42767 0.65528 0.0
C1258 C 0.68743 0.42832 0.68259 0.0
C1259 C 0.70067 0.44783 0.66512 0.0
C1260 C 0.69183 0.44078 0.65276 0.0
C1261 C 0.69877 0.44138 0.68025 0.0
H1262 H 0.67007 0.41179 0.67185 0.0
H1263 H 0.69337 0.44561 0.64106 0.0
C1264 C 0.64652 0.39321 0.595 0.0
N1265 N 0.63507 0.36586 0.57869 0.0
C1266 C 0.6305 0.38711 0.59768 0.0
C1267 C 0.65661 0.38554 0.58384 0.0
C1268 C 0.62496 0.37325 0.58936 0.0
C1269 C 0.65063 0.37168 0.57578 0.0
C1270 C 0.65713 0.3905 0.6513 0.0
C1271 C 0.67315 0.38386 0.65266 0.0
C1272 C 0.64486 0.38582 0.66199 0.0
C1273 C 0.6766 0.37267 0.6647 0.0
C1274 C 0.64882 0.37461 0.67389 0.0
N1275 N 0.66446 0.36832 0.67498 0.0
C1276 C 0.68268 0.36467 0.61401 0.0
C1277 C 0.65423 0.36214 0.62082 0.0
C1278 C 0.68426 0.34741 0.6131 0.0
N1279 N 0.66782 0.37163 0.61777 0.0
C1280 C 0.65521 0.34488 0.61995 0.0
C1281 C 0.6704 0.33726 0.61614 0.0
H1282 H 0.69338 0.37248 0.61199 0.0
H1283 H 0.64264 0.36803 0.62403 0.0
C1284 C 0.61564 0.43495 0.617 0.0
N1285 N 0.62181 0.42137 0.62443 0.0
C1286 C 0.59863 0.43839 0.61752 0.0
C1287 C 0.59475 0.41381 0.63336 0.0
C1288 C 0.61182 0.4109 0.63259 0.0
C1289 C 0.58791 0.42768 0.62571 0.0
H1290 H 0.62394 0.44307 0.61062 0.0
H1291 H 0.61708 0.40009 0.63821 0.0
O1292 O 0.68635 0.40764 0.62212 0.0
O1293 O 0.66001 0.4361 0.62458 0.0
O1294 O 0.65228 0.4066 0.60326 0.0
O1295 O 0.65329 0.40127 0.63945 0.0
H1296 H 0.71288 0.42283 0.63368 0.0
H1297 H 0.69352 0.3971 0.5936 0.0
H1298 H 0.73928 0.42729 0.61938 0.0
H1299 H 0.72031 0.40186 0.58001 0.0
H1300 H 0.63169 0.45138 0.66829 0.0
H1301 H 0.66076 0.46852 0.62013 0.0
H1302 H 0.64383 0.42985 0.65105 0.0
H1303 H 0.64829 0.48943 0.63797 0.0
H1304 H 0.70784 0.46423 0.5864 0.0
H1305 H 0.67691 0.43742 0.55357 0.0
H1306 H 0.68558 0.42288 0.69402 0.0
H1307 H 0.709 0.45812 0.66281 0.0
H1308 H 0.62247 0.3929 0.60619 0.0
H1309 H 0.66895 0.39016 0.58145 0.0
H1310 H 0.61263 0.36833 0.59141 0.0
H1311 H 0.65837 0.36556 0.5672 0.0
H1312 H 0.68285 0.38729 0.64457 0.0
H1313 H 0.63241 0.39083 0.66115 0.0
H1314 H 0.68892 0.36745 0.66588 0.0
H1315 H 0.63944 0.37091 0.68225 0.0
H1316 H 0.69628 0.34208 0.6104 0.0
H1317 H 0.64415 0.33759 0.6222 0.0
H1318 H 0.59393 0.44932 0.6116 0.0
H1319 H 0.58695 0.40504 0.63956 0.0
Li1320 Li 0.3266 0.92009 0.36073 0.0
Li1321 Li 0.32852 0.92014 0.38903 0.0
Li1322 Li 0.35304 0.91503 0.37285 0.0
Li1323 Li 0.33097 0.8944 0.3754 0.0
C1324 C 0.33622 0.95051 0.36788 0.0
N1325 N 0.32829 0.98071 0.35446 0.0
C1326 C 0.32456 0.96094 0.37498 0.0
C1327 C 0.34394 0.95548 0.35402 0.0
C1328 C 0.32071 0.97616 0.36799 0.0
C1329 C 0.33972 0.97078 0.3474 0.0
C1330 C 0.29895 0.89827 0.37467 0.0
C1331 C 0.28186 0.87659 0.38567 0.0
N1332 N 0.27468 0.87422 0.37147 0.0
C1333 C 0.29139 0.89563 0.36019 0.0
C1334 C 0.29413 0.88872 0.38754 0.0
C1335 C 0.27914 0.88341 0.35881 0.0
C1336 C 0.31949 0.92516 0.32879 0.0
N1337 N 0.31533 0.92969 0.34355 0.0
C1338 C 0.29336 0.9469 0.33407 0.0
C1339 C 0.30254 0.94029 0.34641 0.0
C1340 C 0.29716 0.94226 0.31866 0.0
C1341 C 0.31053 0.93132 0.31611 0.0
H1342 H 0.32946 0.91639 0.32689 0.0
H1343 H 0.2993 0.94337 0.35831 0.0
C1344 C 0.33141 0.94167 0.41441 0.0
N1345 N 0.32088 0.93088 0.4073 0.0
C1346 C 0.32654 0.94988 0.42797 0.0
C1347 C 0.29992 0.93598 0.42645 0.0
C1348 C 0.30534 0.92798 0.41291 0.0
C1349 C 0.31063 0.94703 0.43419 0.0
H1350 H 0.34359 0.9439 0.40949 0.0
H1351 H 0.29717 0.91948 0.40688 0.0
C1352 C 0.35516 0.89695 0.3471 0.0
N1353 N 0.38255 0.88721 0.3299 0.0
C1354 C 0.36108 0.88065 0.34817 0.0
C1355 C 0.3631 0.90825 0.3372 0.0
C1356 C 0.37495 0.87597 0.33939 0.0
C1357 C 0.37695 0.9031 0.32864 0.0
C1358 C 0.34954 0.90464 0.40718 0.0
C1359 C 0.36401 0.91298 0.41172 0.0
C1360 C 0.33851 0.89883 0.41856 0.0
C1361 C 0.36715 0.91544 0.4276 0.0
C1362 C 0.34208 0.90158 0.43432 0.0
N1363 N 0.3562 0.90976 0.43847 0.0
C1364 C 0.38324 0.93303 0.3694 0.0
C1365 C 0.38599 0.90383 0.37216 0.0
C1366 C 0.40047 0.93479 0.36815 0.0
N1367 N 0.37641 0.9177 0.37122 0.0
C1368 C 0.4032 0.90497 0.37066 0.0
C1369 C 0.4106 0.9206 0.36862 0.0
H1370 H 0.37533 0.94388 0.36898 0.0
H1371 H 0.38022 0.89186 0.37404 0.0
C1372 C 0.32088 0.86356 0.36286 0.0
N1373 N 0.32664 0.87124 0.37592 0.0
C1374 C 0.31825 0.84641 0.36283 0.0
C1375 C 0.32731 0.84549 0.38974 0.0
C1376 C 0.32984 0.86262 0.38922 0.0
C1377 C 0.32161 0.83712 0.37637 0.0
H1378 H 0.31863 0.87074 0.3524 0.0
H1379 H 0.33453 0.86902 0.39938 0.0
O1380 O 0.34 0.93546 0.37442 0.0
O1381 O 0.31124 0.90991 0.37619 0.0
O1382 O 0.34176 0.90185 0.35579 0.0
O1383 O 0.34608 0.90239 0.39168 0.0
H1384 H 0.31841 0.95727 0.38566 0.0
H1385 H 0.35297 0.94756 0.34838 0.0
H1386 H 0.31165 0.98432 0.37331 0.0
H1387 H 0.34552 0.97474 0.33663 0.0
H1388 H 0.2781 0.86903 0.3955 0.0
H1389 H 0.29503 0.90282 0.35009 0.0
H1390 H 0.30001 0.89045 0.39879 0.0
H1391 H 0.27322 0.8812 0.34766 0.0
H1392 H 0.28327 0.95538 0.33661 0.0
H1393 H 0.31368 0.92705 0.30449 0.0
H1394 H 0.33506 0.95855 0.4334 0.0
H1395 H 0.28758 0.93343 0.4309 0.0
H1396 H 0.35518 0.87176 0.35585 0.0
H1397 H 0.35872 0.92092 0.33626 0.0
H1398 H 0.37972 0.86343 0.34017 0.0
H1399 H 0.38328 0.91176 0.32101 0.0
H1400 H 0.37265 0.91763 0.4031 0.0
H1401 H 0.32714 0.89257 0.41527 0.0
H1402 H 0.37826 0.92193 0.43128 0.0
H1403 H 0.33359 0.89729 0.44324 0.0
H1404 H 0.4058 0.94705 0.36665 0.0
H1405 H 0.41068 0.89379 0.37133 0.0
H1406 H 0.31407 0.84046 0.3522 0.0
H1407 H 0.32986 0.83888 0.40049 0.0
H1408 H 0.19728 0.81709 0.12735 0.0
H1409 H 0.19841 0.78672 0.12605 0.0
H1410 H 0.14714 0.78542 0.1114 0.0
H1411 H 0.14594 0.81576 0.11246 0.0
H1412 H 0.15483 0.76382 0.13641 0.0
H1413 H 0.19888 0.75664 0.08688 0.0
H1414 H 0.20585 0.77011 0.10229 0.0
H1415 H 0.18805 0.77585 0.09082 0.0
C1416 C 0.18632 0.81036 0.12362 0.0
C1417 C 0.17151 0.81884 0.12002 0.0
C1418 C 0.18699 0.79302 0.12289 0.0
C1419 C 0.17291 0.78388 0.11847 0.0
C1420 C 0.15814 0.79228 0.11482 0.0
H1421 H 0.16386 0.67925 0.09591 0.0
H1422 H 0.1642 0.70969 0.09557 0.0
C1423 C 0.15746 0.8096 0.11552 0.0
C1424 C 0.17331 0.7655 0.11829 0.0
H1425 H 0.19168 0.73212 0.10075 0.0
C1426 C 0.16286 0.75687 0.12861 0.0
C1427 C 0.1837 0.75652 0.10799 0.0
C1428 C 0.19467 0.76521 0.09626 0.0
C1429 C 0.16267 0.73945 0.12903 0.0
C1430 C 0.17335 0.73048 0.119 0.0
C1431 C 0.18364 0.73908 0.10852 0.0
C1432 C 0.17377 0.71211 0.11906 0.0
C1433 C 0.15086 0.73078 0.14004 0.0
C1434 C 0.17929 0.70346 0.1323 0.0
C1435 C 0.17906 0.68611 0.13256 0.0
C1436 C 0.17332 0.67711 0.11955 0.0
C1437 C 0.16813 0.68584 0.10618 0.0
C1438 C 0.16842 0.7032 0.10592 0.0
H1439 H 0.14099 0.73928 0.14436 0.0
H1440 H 0.14489 0.71998 0.13424 0.0
H1441 H 0.15791 0.7261 0.15028 0.0
H1442 H 0.18365 0.71015 0.14248 0.0
H1443 H 0.18302 0.67975 0.14307 0.0
H1444 H 0.43132 0.94059 0.38536 0.0
H1445 H 0.46173 0.94148 0.38425 0.0
H1446 H 0.46127 0.9049 0.34738 0.0
H1447 H 0.43091 0.90352 0.34895 0.0
H1448 H 0.4832 0.8968 0.36831 0.0
H1449 H 0.49246 0.96318 0.35402 0.0
H1450 H 0.48051 0.96063 0.37151 0.0
H1451 H 0.47231 0.95339 0.35315 0.0
C1452 C 0.43776 0.93292 0.3769 0.0
C1453 C 0.42886 0.92201 0.36722 0.0
C1454 C 0.4551 0.9335 0.3762 0.0
C1455 C 0.4638 0.92349 0.36552 0.0
C1456 C 0.45484 0.91277 0.35568 0.0
H1457 H 0.56977 0.9342 0.34666 0.0
H1458 H 0.53936 0.9346 0.34524 0.0
C1459 C 0.43753 0.91198 0.35657 0.0
C1460 C 0.48225 0.92337 0.36527 0.0
H1461 H 0.51644 0.9484 0.36311 0.0
C1462 C 0.49045 0.90808 0.36703 0.0
C1463 C 0.49175 0.93804 0.36337 0.0
C1464 C 0.4838 0.9547 0.36023 0.0
C1465 C 0.50785 0.90706 0.36722 0.0
C1466 C 0.51734 0.92184 0.36621 0.0
C1467 C 0.50916 0.9371 0.36412 0.0
C1468 C 0.53575 0.92172 0.36719 0.0
C1469 C 0.51584 0.89011 0.36819 0.0
C1470 C 0.54382 0.91459 0.3801 0.0
C1471 C 0.56116 0.91415 0.38081 0.0
C1472 C 0.57073 0.92118 0.36879 0.0
C1473 C 0.56266 0.92874 0.3561 0.0
C1474 C 0.54531 0.92896 0.35528 0.0
H1475 H 0.50735 0.88025 0.36384 0.0
H1476 H 0.52754 0.88961 0.36133 0.0
H1477 H 0.51876 0.88726 0.38056 0.0
H1478 H 0.53671 0.90941 0.38967 0.0
H1479 H 0.5671 0.90849 0.39084 0.0
H1480 H 0.35239 0.31824 0.61218 0.0
H1481 H 0.35089 0.28797 0.61128 0.0
H1482 H 0.29937 0.2899 0.62514 0.0
H1483 H 0.30098 0.32018 0.62685 0.0
H1484 H 0.31625 0.2671 0.64158 0.0
H1485 H 0.32962 0.25874 0.57868 0.0
H1486 H 0.34541 0.2706 0.58838 0.0
H1487 H 0.3246 0.27872 0.58701 0.0
C1488 C 0.34076 0.31225 0.61515 0.0
C1489 C 0.32681 0.32167 0.6196 0.0
C1490 C 0.33985 0.29494 0.61439 0.0
C1491 C 0.32493 0.2867 0.61784 0.0
C1492 C 0.31097 0.29603 0.62228 0.0
H1493 H 0.31136 0.1806 0.60033 0.0
H1494 H 0.30864 0.21087 0.60005 0.0
C1495 C 0.31189 0.31334 0.62315 0.0
C1496 C 0.32413 0.2683 0.61757 0.0
H1497 H 0.33193 0.23444 0.59472 0.0
C1498 C 0.31953 0.25995 0.63129 0.0
C1499 C 0.32813 0.259 0.60406 0.0
C1500 C 0.33204 0.26723 0.58866 0.0
C1501 C 0.31934 0.24254 0.63204 0.0
C1502 C 0.32431 0.23325 0.61881 0.0
C1503 C 0.32836 0.24159 0.60492 0.0
C1504 C 0.32568 0.2149 0.61923 0.0
C1505 C 0.31371 0.23429 0.64696 0.0
C1506 C 0.33629 0.20715 0.62999 0.0
C1507 C 0.33771 0.18986 0.63033 0.0
C1508 C 0.3287 0.17997 0.61975 0.0
C1509 C 0.31825 0.18781 0.60882 0.0
C1510 C 0.31677 0.20511 0.60856 0.0
H1511 H 0.30558 0.24263 0.65393 0.0
H1512 H 0.30685 0.2226 0.64453 0.0
H1513 H 0.32476 0.23126 0.65418 0.0
H1514 H 0.34357 0.21447 0.6381 0.0
H1515 H 0.34574 0.18426 0.639 0.0
H1516 H 0.06505 0.09167 0.85299 0.0
H1517 H 0.03478 0.0887 0.85249 0.0
H1518 H 0.03808 0.04757 0.88463 0.0
H1519 H 0.06839 0.05066 0.88545 0.0
H1520 H 0.01491 0.05973 0.84461 0.0
H1521 H 0.00591 0.08139 0.90577 0.0
H1522 H 0.02495 0.08496 0.89511 0.0
H1523 H 0.02052 0.06474 0.90293 0.0
C1524 C 0.05933 0.08204 0.86001 0.0
C1525 C 0.06907 0.07149 0.86937 0.0
C1526 C 0.04207 0.08029 0.85962 0.0
C1527 C 0.03425 0.06806 0.86866 0.0
C1528 C 0.04392 0.05722 0.87772 0.0
H1529 H 0.92864 0.05233 0.88626 0.0
H1530 H 0.9589 0.04938 0.88563 0.0
C1531 C 0.06122 0.05892 0.87808 0.0
C1532 C 0.01591 0.06694 0.86879 0.0
H1533 H 0.98194 0.0736 0.89181 0.0
C1534 C 0.00767 0.06269 0.85493 0.0
C1535 C 0.00658 0.07076 0.8823 0.0
C1536 C 0.01486 0.07584 0.89737 0.0
C1537 C 0.99025 0.0622 0.85419 0.0
C1538 C 0.98089 0.06644 0.8676 0.0
C1539 C 0.98916 0.07036 0.88155 0.0
C1540 C 0.96252 0.06752 0.8673 0.0
C1541 C 0.98204 0.05703 0.83912 0.0
C1542 C 0.95456 0.07876 0.85725 0.0
C1543 C 0.93728 0.08038 0.85749 0.0
C1544 C 0.92763 0.0709 0.86789 0.0
C1545 C 0.93567 0.05963 0.87794 0.0
C1546 C 0.95296 0.058 0.87767 0.0
H1547 H 0.99055 0.04951 0.83174 0.0
H1548 H 0.97057 0.04972 0.84135 0.0
H1549 H 0.97857 0.06831 0.8324 0.0
H1550 H 0.96173 0.08649 0.84939 0.0
H1551 H 0.93147 0.08906 0.8495 0.0
H1552 H 0.1974 0.32153 0.88535 0.0
H1553 H 0.1998 0.29122 0.88464 0.0
H1554 H 0.15181 0.28796 0.86238 0.0
H1555 H 0.14962 0.3182 0.86241 0.0
H1556 H 0.17961 0.26806 0.89833 0.0
H1557 H 0.18016 0.25913 0.83421 0.0
H1558 H 0.18328 0.27919 0.84318 0.0
H1559 H 0.16261 0.27101 0.84072 0.0
C1560 C 0.18748 0.31438 0.88006 0.0
C1561 C 0.17334 0.32231 0.87388 0.0
C1562 C 0.18883 0.29706 0.87976 0.0
C1563 C 0.17611 0.28737 0.87322 0.0
C1564 C 0.16194 0.29522 0.86717 0.0
H1565 H 0.1478 0.18508 0.86792 0.0
H1566 H 0.15019 0.21539 0.8676 0.0
C1567 C 0.1606 0.31251 0.86741 0.0
C1568 C 0.17729 0.269 0.87329 0.0
H1569 H 0.17491 0.23489 0.84969 0.0
C1570 C 0.1788 0.2608 0.88769 0.0
C1571 C 0.1763 0.25958 0.85937 0.0
C1572 C 0.17567 0.26768 0.84349 0.0
C1573 C 0.17867 0.24338 0.88859 0.0
C1574 C 0.17711 0.23401 0.87472 0.0
C1575 C 0.17601 0.24218 0.8603 0.0
C1576 C 0.1759 0.2157 0.875 0.0
C1577 C 0.17962 0.2351 0.90437 0.0
C1578 C 0.18963 0.20592 0.87915 0.0
C1579 C 0.18831 0.18859 0.87935 0.0
C1580 C 0.1732 0.18082 0.87546 0.0
C1581 C 0.15952 0.19071 0.87121 0.0
C1582 C 0.16088 0.208 0.87092 0.0
H1583 H 0.17816 0.24414 0.91409 0.0
H1584 H 0.16986 0.22541 0.90546 0.0
H1585 H 0.19188 0.22892 0.90564 0.0
H1586 H 0.20136 0.21169 0.88218 0.0
H1587 H 0.19903 0.18129 0.88274 0.0
H1588 H 0.9292 0.9524 0.12147 0.0
H1589 H 0.95963 0.95358 0.1216 0.0
H1590 H 0.96156 0.9032 0.13868 0.0
H1591 H 0.93129 0.90165 0.13799 0.0
H1592 H 0.98215 0.94925 0.14601 0.0
H1593 H 0.99126 0.90145 0.10019 0.0
H1594 H 0.97136 0.91103 0.10387 0.0
H1595 H 0.97864 0.89439 0.11614 0.0
C1596 C 0.93611 0.94152 0.1251 0.0
C1597 C 0.9278 0.92689 0.12962 0.0
C1598 C 0.95348 0.94226 0.12527 0.0
C1599 C 0.96283 0.92839 0.12989 0.0
C1600 C 0.95458 0.91394 0.13478 0.0
H1601 H 0.06577 0.90302 0.14231 0.0
H1602 H 0.03542 0.90491 0.14254 0.0
C1603 C 0.93725 0.91316 0.13457 0.0
C1604 C 0.98122 0.92895 0.12965 0.0
H1605 H 0.01531 0.90947 0.11457 0.0
C1606 C 0.98942 0.94066 0.13904 0.0
C1607 C 0.99064 0.91777 0.12047 0.0
C1608 C 0.98254 0.90556 0.10948 0.0
C1609 C 0.00685 0.94112 0.13989 0.0
C1610 C 0.01622 0.92966 0.13102 0.0
C1611 C 0.00803 0.91815 0.12143 0.0
C1612 C 0.03457 0.92916 0.13166 0.0
C1613 C 0.01514 0.95352 0.15056 0.0
C1614 C 0.04408 0.94219 0.12547 0.0
C1615 C 0.06143 0.94116 0.12533 0.0
C1616 C 0.06952 0.92707 0.1314 0.0
C1617 C 0.05992 0.91413 0.13776 0.0
C1618 C 0.0426 0.91514 0.13781 0.0
H1619 H 0.00615 0.95941 0.15871 0.0
H1620 H 0.02511 0.94744 0.15747 0.0
H1621 H 0.02096 0.96345 0.14343 0.0
H1622 H 0.03807 0.95302 0.12049 0.0
H1623 H 0.06852 0.95136 0.12044 0.0
H1624 H 0.29621 0.67732 0.38098 0.0
H1625 H 0.29327 0.70764 0.38104 0.0
H1626 H 0.34401 0.71266 0.36552 0.0
H1627 H 0.34698 0.6824 0.36517 0.0
H1628 H 0.31308 0.73094 0.39835 0.0
H1629 H 0.31658 0.74119 0.33432 0.0
H1630 H 0.31201 0.72115 0.34281 0.0
H1631 H 0.33305 0.72863 0.34217 0.0
C1632 C 0.30668 0.68489 0.37742 0.0
C1633 C 0.32182 0.6775 0.37303 0.0
C1634 C 0.305 0.70218 0.37754 0.0
C1635 C 0.31836 0.71232 0.3731 0.0
C1636 C 0.33349 0.705 0.36877 0.0
H1637 H 0.34219 0.81423 0.3899 0.0
H1638 H 0.33955 0.78402 0.3896 0.0
C1639 C 0.33521 0.68774 0.36872 0.0
C1640 C 0.3167 0.73061 0.37344 0.0
H1641 H 0.31907 0.76519 0.35047 0.0
C1642 C 0.31423 0.73845 0.38788 0.0
C1643 C 0.318 0.7403 0.35972 0.0
C1644 C 0.31991 0.73242 0.34384 0.0
C1645 C 0.31367 0.75583 0.38904 0.0
C1646 C 0.31577 0.76553 0.37542 0.0
C1647 C 0.31759 0.75768 0.3609 0.0
C1648 C 0.31684 0.78385 0.37608 0.0
C1649 C 0.31093 0.76369 0.40482 0.0
C1650 C 0.30504 0.79373 0.36838 0.0
C1651 C 0.30644 0.81105 0.3686 0.0
C1652 C 0.31976 0.81875 0.37642 0.0
C1653 C 0.33158 0.80874 0.38406 0.0
C1654 C 0.33013 0.79147 0.38388 0.0
H1655 H 0.3053 0.75479 0.41322 0.0
H1656 H 0.32307 0.76777 0.40964 0.0
H1657 H 0.30275 0.77476 0.40388 0.0
H1658 H 0.29474 0.78803 0.36224 0.0
H1659 H 0.29705 0.81839 0.36273 0.0
H1660 H 0.56652 0.0794 0.60509 0.0
H1661 H 0.53638 0.07584 0.60652 0.0
H1662 H 0.54158 0.05049 0.65062 0.0
H1663 H 0.5718 0.05433 0.64946 0.0
H1664 H 0.51765 0.04539 0.60952 0.0
H1665 H 0.50821 0.08885 0.65935 0.0
H1666 H 0.52708 0.08866 0.64794 0.0
H1667 H 0.5233 0.07262 0.66206 0.0
C1668 C 0.56125 0.07318 0.61516 0.0
C1669 C 0.57151 0.06728 0.62724 0.0
C1670 C 0.54405 0.07105 0.61589 0.0
C1671 C 0.53679 0.06307 0.62874 0.0
C1672 C 0.54697 0.05687 0.6407 0.0
H1673 H 0.43064 0.05485 0.64988 0.0
H1674 H 0.46087 0.05124 0.65086 0.0
C1675 C 0.56421 0.05895 0.63996 0.0
C1676 C 0.51851 0.06149 0.62958 0.0
H1677 H 0.4844 0.07609 0.64887 0.0
C1678 C 0.51035 0.052 0.61818 0.0
C1679 C 0.5091 0.07006 0.64096 0.0
C1680 C 0.51729 0.08073 0.65324 0.0
C1681 C 0.49295 0.05105 0.6177 0.0
C1682 C 0.48351 0.06012 0.62872 0.0
C1683 C 0.49169 0.06917 0.64043 0.0
C1684 C 0.46518 0.06125 0.62776 0.0
C1685 C 0.48483 0.04038 0.60539 0.0
C1686 C 0.45763 0.06814 0.61449 0.0
C1687 C 0.44042 0.07026 0.61391 0.0
C1688 C 0.43043 0.06567 0.62667 0.0
C1689 C 0.43802 0.05865 0.63992 0.0
C1690 C 0.45526 0.0565 0.64047 0.0
H1691 H 0.49337 0.03047 0.60122 0.0
H1692 H 0.4733 0.03449 0.60988 0.0
H1693 H 0.48151 0.04824 0.59521 0.0
H1694 H 0.4651 0.0723 0.60471 0.0
H1695 H 0.43501 0.076 0.60366 0.0
H1696 H 0.84187 0.18012 0.89801 0.0
H1697 H 0.84109 0.2105 0.89854 0.0
H1698 H 0.80497 0.21051 0.86138 0.0
H1699 H 0.80603 0.18016 0.86033 0.0
H1700 H 0.84725 0.23183 0.8695 0.0
H1701 H 0.78594 0.24097 0.89848 0.0
H1702 H 0.79805 0.22223 0.90097 0.0
H1703 H 0.7872 0.22586 0.88301 0.0
C1704 C 0.83383 0.18655 0.88987 0.0
C1705 C 0.82405 0.17766 0.87909 0.0
C1706 C 0.83331 0.20389 0.89029 0.0
C1707 C 0.82287 0.21264 0.8801 0.0
C1708 C 0.81293 0.2039 0.86947 0.0
H1709 H 0.80293 0.31731 0.8645 0.0
H1710 H 0.80199 0.28688 0.86543 0.0
C1711 C 0.81352 0.18655 0.86895 0.0
C1712 C 0.82299 0.23098 0.88003 0.0
H1713 H 0.79991 0.26502 0.88969 0.0
C1714 C 0.83695 0.23913 0.87395 0.0
C1715 C 0.80944 0.24034 0.88572 0.0
C1716 C 0.79429 0.232 0.89251 0.0
C1717 C 0.83766 0.25653 0.87321 0.0
C1718 C 0.82422 0.26597 0.87916 0.0
C1719 C 0.81021 0.25776 0.8852 0.0
C1720 C 0.82446 0.28438 0.87914 0.0
C1721 C 0.8526 0.26458 0.8657 0.0
C1722 C 0.83718 0.29305 0.88685 0.0
C1723 C 0.83781 0.31038 0.88623 0.0
C1724 C 0.82557 0.31935 0.87811 0.0
C1725 C 0.8125 0.31069 0.87088 0.0
C1726 C 0.81197 0.29333 0.87137 0.0
H1727 H 0.85921 0.25583 0.85781 0.0
H1728 H 0.84898 0.27575 0.85888 0.0
H1729 H 0.86146 0.26847 0.87493 0.0
H1730 H 0.84667 0.28642 0.89329 0.0
H1731 H 0.84784 0.31677 0.89215 0.0
H1732 H 0.6499 0.68112 0.39208 0.0
H1733 H 0.65234 0.71149 0.39248 0.0
H1734 H 0.6969 0.70846 0.36467 0.0
H1735 H 0.69452 0.67807 0.36413 0.0
H1736 H 0.68359 0.73151 0.40236 0.0
H1737 H 0.66176 0.74014 0.34112 0.0
H1738 H 0.65659 0.72188 0.35241 0.0
H1739 H 0.67721 0.72442 0.34486 0.0
C1740 C 0.66019 0.68694 0.38602 0.0
C1741 C 0.67199 0.67726 0.37802 0.0
C1742 C 0.66161 0.70423 0.38634 0.0
C1743 C 0.67474 0.71211 0.37853 0.0
C1744 C 0.68666 0.70253 0.3707 0.0
H1745 H 0.69183 0.81669 0.3587 0.0
H1746 H 0.69368 0.7864 0.35978 0.0
C1747 C 0.68532 0.68521 0.37048 0.0
C1748 C 0.67576 0.73042 0.37836 0.0
H1749 H 0.66915 0.76417 0.35511 0.0
C1750 C 0.68048 0.73871 0.39205 0.0
C1751 C 0.6718 0.73963 0.36484 0.0
C1752 C 0.66646 0.73116 0.34994 0.0
C1753 C 0.68138 0.75612 0.39256 0.0
C1754 C 0.677 0.76541 0.37913 0.0
C1755 C 0.67249 0.75703 0.36539 0.0
C1756 C 0.67659 0.78382 0.37914 0.0
C1757 C 0.68726 0.76436 0.40739 0.0
C1758 C 0.66633 0.79241 0.38964 0.0
C1759 C 0.66542 0.80974 0.3892 0.0
C1760 C 0.67458 0.81881 0.3781 0.0
C1761 C 0.68482 0.81013 0.36757 0.0
C1762 C 0.6858 0.79281 0.36809 0.0
H1763 H 0.69492 0.75577 0.41457 0.0
H1764 H 0.69469 0.77566 0.40484 0.0
H1765 H 0.67631 0.76805 0.41447 0.0
H1766 H 0.65881 0.78571 0.39803 0.0
H1767 H 0.65753 0.81601 0.39758 0.0
H1768 H 0.8459 0.68437 0.1341 0.0
H1769 H 0.84345 0.71458 0.1325 0.0
H1770 H 0.80234 0.70956 0.10056 0.0
H1771 H 0.80493 0.67924 0.10176 0.0
H1772 H 0.84475 0.73407 0.10292 0.0
H1773 H 0.78604 0.74154 0.13674 0.0
H1774 H 0.79903 0.72332 0.13857 0.0
H1775 H 0.78648 0.72615 0.12148 0.0
C1776 C 0.83641 0.68965 0.12663 0.0
C1777 C 0.82565 0.67937 0.11801 0.0
C1778 C 0.83497 0.70691 0.12581 0.0
C1779 C 0.82266 0.71422 0.1165 0.0
C1780 C 0.81179 0.70408 0.10796 0.0
H1781 H 0.8003 0.82015 0.10561 0.0
H1782 H 0.79924 0.78975 0.10375 0.0
C1783 C 0.81326 0.68678 0.10871 0.0
C1784 C 0.82162 0.7325 0.11545 0.0
H1785 H 0.79869 0.76591 0.12722 0.0
C1786 C 0.83466 0.74106 0.10815 0.0
C1787 C 0.80833 0.74148 0.12216 0.0
C1788 C 0.79416 0.73275 0.13028 0.0
C1789 C 0.83489 0.75847 0.10756 0.0
C1790 C 0.82194 0.76751 0.11483 0.0
C1791 C 0.80863 0.75892 0.12173 0.0
C1792 C 0.82242 0.78585 0.11604 0.0
C1793 C 0.84897 0.767 0.09912 0.0
C1794 C 0.83561 0.79365 0.12384 0.0
C1795 C 0.83625 0.81093 0.12492 0.0
C1796 C 0.82361 0.82075 0.11835 0.0
C1797 C 0.81018 0.81289 0.11085 0.0
C1798 C 0.80959 0.79556 0.10972 0.0
H1799 H 0.85479 0.75868 0.09033 0.0
H1800 H 0.84463 0.77846 0.09314 0.0
H1801 H 0.8587 0.77053 0.10769 0.0
H1802 H 0.8454 0.78635 0.12917 0.0
H1803 H 0.84657 0.8166 0.13106 0.0
H1804 H 0.6881 0.31812 0.59546 0.0
H1805 H 0.69034 0.28781 0.59489 0.0
H1806 H 0.65773 0.28444 0.63474 0.0
H1807 H 0.65608 0.31469 0.6359 0.0
H1808 H 0.68438 0.26406 0.63751 0.0
H1809 H 0.65494 0.256 0.57938 0.0
H1810 H 0.67279 0.26939 0.57928 0.0
H1811 H 0.65444 0.27545 0.58984 0.0
C1812 C 0.68153 0.31094 0.6042 0.0
C1813 C 0.6718 0.31885 0.61566 0.0
C1814 C 0.68266 0.29361 0.60373 0.0
C1815 C 0.67395 0.28387 0.61459 0.0
C1816 C 0.66445 0.29173 0.62617 0.0
H1817 H 0.64765 0.18033 0.60968 0.0
H1818 H 0.64888 0.21069 0.60936 0.0
C1819 C 0.66339 0.30902 0.62671 0.0
C1820 C 0.6748 0.26549 0.61408 0.0
H1821 H 0.66609 0.23186 0.59122 0.0
C1822 C 0.6804 0.257 0.62739 0.0
C1823 C 0.66941 0.25633 0.60092 0.0
C1824 C 0.6624 0.26472 0.58659 0.0
C1825 C 0.68069 0.23957 0.62796 0.0
C1826 C 0.67562 0.23041 0.61468 0.0
C1827 C 0.6701 0.23892 0.60133 0.0
C1828 C 0.67517 0.212 0.61463 0.0
C1829 C 0.68587 0.23118 0.64296 0.0
C1830 C 0.68959 0.20265 0.6175 0.0
C1831 C 0.68887 0.18529 0.61784 0.0
C1832 C 0.67378 0.17701 0.61502 0.0
C1833 C 0.65946 0.18639 0.61178 0.0
C1834 C 0.66015 0.20372 0.61162 0.0
H1835 H 0.68502 0.23976 0.6531 0.0
H1836 H 0.67805 0.22011 0.64537 0.0
H1837 H 0.69899 0.22706 0.64194 0.0
H1838 H 0.7014 0.20876 0.61946 0.0
H1839 H 0.70013 0.17833 0.62015 0.0
H1840 H 0.06813 0.4556 0.87809 0.0
H1841 H 0.03765 0.45611 0.8781 0.0
H1842 H 0.03677 0.40837 0.85525 0.0
H1843 H 0.06711 0.40751 0.85559 0.0
H1844 H 0.01476 0.4537 0.85268 0.0
H1845 H 0.0081 0.40149 0.89459 0.0
H1846 H 0.02747 0.41243 0.89177 0.0
H1847 H 0.02097 0.39685 0.87802 0.0
C1848 C 0.06143 0.44518 0.87314 0.0
C1849 C 0.07004 0.43147 0.86691 0.0
C1850 C 0.04405 0.44554 0.87307 0.0
C1851 C 0.03501 0.43217 0.86689 0.0
C1852 C 0.04354 0.4187 0.8603 0.0
H1853 H 0.93247 0.40438 0.85582 0.0
H1854 H 0.96274 0.40699 0.85517 0.0
C1855 C 0.06089 0.41832 0.86035 0.0
C1856 C 0.01663 0.43214 0.86746 0.0
H1857 H 0.9835 0.41046 0.88176 0.0
C1858 C 0.00788 0.44435 0.85912 0.0
C1859 C 0.00777 0.41993 0.87593 0.0
C1860 C 0.01653 0.40701 0.88571 0.0
C1861 C 0.99043 0.44433 0.85862 0.0
C1862 C 0.98159 0.43193 0.86686 0.0
C1863 C 0.99035 0.4199 0.87539 0.0
C1864 C 0.96324 0.43096 0.8666 0.0
C1865 C 0.98159 0.45727 0.84894 0.0
C1866 C 0.95353 0.44357 0.87328 0.0
C1867 C 0.93621 0.44215 0.87361 0.0
C1868 C 0.92833 0.42806 0.8673 0.0
C1869 C 0.93813 0.4155 0.86056 0.0
C1870 C 0.95542 0.41692 0.86026 0.0
H1871 H 0.99016 0.46361 0.84069 0.0
H1872 H 0.97127 0.45158 0.84218 0.0
H1873 H 0.97617 0.4668 0.85679 0.0
H1874 H 0.95936 0.45439 0.87844 0.0
H1875 H 0.92898 0.45208 0.8788 0.0
H1876 H 0.56794 0.54266 0.38048 0.0
H1877 H 0.53764 0.53941 0.37963 0.0
H1878 H 0.53322 0.58698 0.3568 0.0
H1879 H 0.56336 0.59036 0.35765 0.0
H1880 H 0.5135 0.55978 0.39274 0.0
H1881 H 0.50589 0.55675 0.32853 0.0
H1882 H 0.52578 0.55412 0.33798 0.0
H1883 H 0.51749 0.57461 0.33474 0.0
C1884 C 0.56049 0.55242 0.37529 0.0
C1885 C 0.56805 0.56671 0.36902 0.0
C1886 C 0.54322 0.55051 0.37475 0.0
C1887 C 0.53324 0.5628 0.36788 0.0
C1888 C 0.54073 0.57713 0.36177 0.0
H1889 H 0.43157 0.59074 0.35924 0.0
H1890 H 0.46176 0.58757 0.35895 0.0
C1891 C 0.55796 0.57905 0.36227 0.0
C1892 C 0.51491 0.56111 0.36766 0.0
H1893 H 0.48126 0.56232 0.3434 0.0
C1894 C 0.50643 0.56008 0.38196 0.0
C1895 C 0.50576 0.56146 0.35356 0.0
C1896 C 0.5142 0.56162 0.33783 0.0
C1897 C 0.48899 0.56018 0.38255 0.0
C1898 C 0.47986 0.56115 0.36847 0.0
C1899 C 0.48833 0.56166 0.35417 0.0
C1900 C 0.46154 0.56263 0.36837 0.0
C1901 C 0.48045 0.55997 0.39824 0.0
C1902 C 0.45144 0.54955 0.37359 0.0
C1903 C 0.43414 0.55127 0.37366 0.0
C1904 C 0.42666 0.56609 0.36847 0.0
C1905 C 0.43688 0.57908 0.36309 0.0
C1906 C 0.45414 0.57733 0.363 0.0
H1907 H 0.48928 0.56218 0.40799 0.0
H1908 H 0.47052 0.56955 0.3987 0.0
H1909 H 0.47454 0.54766 0.40005 0.0
H1910 H 0.45694 0.53801 0.37755 0.0
H1911 H 0.42662 0.54094 0.37766 0.0
H1912 H 0.56631 0.42351 0.65014 0.0
H1913 H 0.53601 0.42607 0.64972 0.0
H1914 H 0.53787 0.44116 0.60146 0.0
H1915 H 0.56815 0.43828 0.60161 0.0
H1916 H 0.51564 0.46063 0.62261 0.0
H1917 H 0.50636 0.39211 0.62446 0.0
H1918 H 0.52006 0.40068 0.63898 0.0
H1919 H 0.52583 0.40148 0.61875 0.0
C1920 C 0.56029 0.42732 0.63941 0.0
C1921 C 0.56966 0.43055 0.62587 0.0
C1922 C 0.543 0.42885 0.63922 0.0
C1923 C 0.53477 0.43364 0.62552 0.0
C1924 C 0.54406 0.43745 0.61214 0.0
H1925 H 0.43135 0.41996 0.60153 0.0
H1926 H 0.46169 0.42188 0.60155 0.0
C1927 C 0.56136 0.43587 0.61229 0.0
C1928 C 0.51642 0.43401 0.62496 0.0
H1929 H 0.4823 0.40885 0.62592 0.0
C1930 C 0.50831 0.44935 0.62333 0.0
C1931 C 0.50699 0.41921 0.62574 0.0
C1932 C 0.51519 0.40239 0.62696 0.0
C1933 C 0.49088 0.45028 0.62268 0.0
C1934 C 0.48145 0.43549 0.62374 0.0
C1935 C 0.4896 0.42016 0.62518 0.0
C1936 C 0.46308 0.43555 0.62325 0.0
C1937 C 0.48268 0.46699 0.62064 0.0
C1938 C 0.45387 0.44266 0.63544 0.0
C1939 C 0.43652 0.44161 0.63546 0.0
C1940 C 0.42812 0.43342 0.62328 0.0
C1941 C 0.43743 0.42655 0.61096 0.0
C1942 C 0.45475 0.42755 0.611 0.0
H1943 H 0.49166 0.47664 0.61675 0.0
H1944 H 0.47241 0.46623 0.612 0.0
H1945 H 0.47729 0.471 0.63195 0.0
H1946 H 0.46011 0.44869 0.64511 0.0
H1947 H 0.42968 0.4471 0.64505 0.0
H1948 H 0.0709 0.54134 0.11887 0.0
H1949 H 0.04052 0.5391 0.1188 0.0
H1950 H 0.03684 0.58689 0.14129 0.0
H1951 H 0.06708 0.58942 0.14115 0.0
H1952 H 0.01601 0.56073 0.15432 0.0
H1953 H 0.01003 0.56792 0.08988 0.0
H1954 H 0.02412 0.55216 0.09673 0.0
H1955 H 0.02868 0.57365 0.10031 0.0
C1956 C 0.06362 0.55141 0.12373 0.0
C1957 C 0.07144 0.56559 0.12997 0.0
C1958 C 0.04629 0.55008 0.12372 0.0
C1959 C 0.0365 0.56289 0.12993 0.0
C1960 C 0.04422 0.57685 0.13648 0.0
H1961 H 0.93585 0.59399 0.11898 0.0
H1962 H 0.966 0.59025 0.11986 0.0
C1963 C 0.06152 0.57823 0.13646 0.0
C1964 C 0.01815 0.56208 0.1293 0.0
H1965 H 0.98528 0.56459 0.1042 0.0
C1966 C 0.00925 0.5614 0.14338 0.0
C1967 C 0.00946 0.56313 0.11498 0.0
C1968 C 0.01849 0.56437 0.09958 0.0
C1969 C 0.99181 0.56197 0.14352 0.0
C1970 C 0.98314 0.56314 0.12921 0.0
C1971 C 0.99203 0.56358 0.11513 0.0
C1972 C 0.96487 0.56508 0.12866 0.0
C1973 C 0.98279 0.5619 0.15897 0.0
C1974 C 0.95431 0.55208 0.13321 0.0
C1975 C 0.93705 0.55419 0.13275 0.0
C1976 C 0.93013 0.56936 0.12778 0.0
C1977 C 0.94081 0.58227 0.1231 0.0
C1978 C 0.95801 0.58012 0.12349 0.0
H1979 H 0.9914 0.56363 0.16898 0.0
H1980 H 0.97325 0.57188 0.15926 0.0
H1981 H 0.97631 0.54983 0.16047 0.0
H1982 H 0.95941 0.54033 0.13709 0.0
H1983 H 0.92913 0.54406 0.13649 0.0
H1984 H 0.18712 0.55256 0.03433 0.0
H1985 H 0.19526 0.5351 0.01233 0.0
H1986 H 0.22196 0.5026 0.04357 0.0
H1987 H 0.21324 0.51961 0.06579 0.0
H1988 H 0.22597 0.52481 0.00049 0.0
H1989 H 0.18865 0.47143 0.02272 0.0
H1990 H 0.18682 0.49202 0.03085 0.0
H1991 H 0.20449 0.47932 0.03552 0.0
C1992 C 0.19468 0.54167 0.03654 0.0
C1993 C 0.1993 0.53733 0.05184 0.0
C1994 C 0.19947 0.53181 0.02394 0.0
C1995 C 0.20899 0.51743 0.02637 0.0
C1996 C 0.21438 0.51351 0.0415 0.0
H1997 H 0.2173 0.44172 0.95256 0.0
H1998 H 0.22481 0.45687 0.97637 0.0
C1999 C 0.20951 0.52333 0.05416 0.0
C2000 C 0.2122 0.50616 0.01307 0.0
H2001 H 0.20042 0.46876 0.99789 0.0
C2002 C 0.22063 0.51244 -0.0 0.0
C2003 C 0.20528 0.48999 0.01252 0.0
C2004 C 0.1957 0.48276 0.02608 0.0
C2005 C 0.22162 0.50329 0.98609 0.0
C2006 C 0.21384 0.48758 0.98526 0.0
C2007 C 0.20638 0.48083 -0.00137 0.0
C2008 C 0.21112 0.47905 0.97022 0.0
C2009 C 0.23047 0.51074 0.97223 0.0
C2010 C 0.20091 0.48652 0.95898 0.0
C2011 C 0.19635 0.47786 0.94557 0.0
C2012 C 0.20195 0.46151 0.94307 0.0
C2013 C 0.21259 0.45421 0.95419 0.0
C2014 C 0.21703 0.46287 0.96772 0.0
H2015 H 0.23995 0.51996 0.97595 0.0
H2016 H 0.23661 0.50097 0.96512 0.0
H2017 H 0.22128 0.51725 0.96474 0.0
H2018 H 0.19586 0.49884 0.9609 0.0
H2019 H 0.18784 0.48377 0.93749 0.0
H2020 H 0.73465 0.95651 0.31785 0.0
H2021 H 0.75211 0.96525 0.29601 0.0
H2022 H 0.71223 0.95422 0.26396 0.0
H2023 H 0.69444 0.94631 0.28574 0.0
H2024 H 0.76187 0.9445 0.27401 0.0
H2025 H 0.72935 0.99659 0.24539 0.0
H2026 H 0.72422 0.98978 0.2649 0.0
H2027 H 0.71549 0.97941 0.24815 0.0
C2028 C 0.7294 0.95647 0.3062 0.0
C2029 C 0.71317 0.95059 0.30352 0.0
C2030 C 0.73943 0.96141 0.29373 0.0
C2031 C 0.73343 0.96059 0.27836 0.0
C2032 C 0.71703 0.95535 0.27572 0.0
H2033 H 0.76477 0.93969 0.18798 0.0
H2034 H 0.75075 0.94755 0.2122 0.0
C2035 C 0.70695 0.95053 0.28818 0.0
C2036 C 0.74487 0.96284 0.26499 0.0
H2037 H 0.74754 0.98008 0.22866 0.0
C2038 C 0.75899 0.95262 0.26427 0.0
C2039 C 0.74111 0.97345 0.2523 0.0
C2040 C 0.7268 0.98555 0.2528 0.0
C2041 C 0.76877 0.95182 0.25076 0.0
C2042 C 0.76435 0.96162 0.23771 0.0
C2043 C 0.75081 0.97254 0.2387 0.0
C2044 C 0.77245 0.95909 0.22245 0.0
C2045 C 0.7831 0.93972 0.25016 0.0
C2046 C 0.78917 0.96336 0.22012 0.0
C2047 C 0.79724 0.9588 0.20632 0.0
C2048 C 0.78868 0.94987 0.19472 0.0
C2049 C 0.77173 0.94632 0.19683 0.0
C2050 C 0.76368 0.95093 0.21058 0.0
H2051 H 0.78363 0.93162 0.26066 0.0
H2052 H 0.78214 0.93173 0.23963 0.0
H2053 H 0.79497 0.94671 0.24939 0.0
H2054 H 0.79608 0.96973 0.22918 0.0
H2055 H 0.81033 0.96165 0.205 0.0
H2056 H 0.27544 0.46149 0.5571 0.0
H2057 H 0.26733 0.4776 0.53398 0.0
H2058 H 0.31686 0.47207 0.51535 0.0
H2059 H 0.32495 0.45599 0.5382 0.0
H2060 H 0.27971 0.50683 0.52385 0.0
H2061 H 0.289 0.45963 0.47806 0.0
H2062 H 0.28789 0.4543 0.49852 0.0
H2063 H 0.30722 0.46116 0.49001 0.0
C2064 C 0.28453 0.46363 0.54799 0.0
C2065 C 0.30079 0.45735 0.54938 0.0
C2066 C 0.27987 0.47276 0.53479 0.0
C2067 C 0.29138 0.4757 0.52279 0.0
C2068 C 0.3076 0.46947 0.52421 0.0
H2069 H 0.31298 0.55426 0.46319 0.0
H2070 H 0.30524 0.53648 0.48499 0.0
C2071 C 0.31224 0.46032 0.53731 0.0
C2072 C 0.28707 0.48628 0.50925 0.0
H2073 H 0.29205 0.48843 0.46982 0.0
C2074 C 0.28202 0.50272 0.51199 0.0
C2075 C 0.28961 0.48082 0.49375 0.0
C2076 C 0.29354 0.46294 0.48991 0.0
C2077 C 0.28086 0.51422 0.49972 0.0
C2078 C 0.28531 0.5092 0.48444 0.0
C2079 C 0.28893 0.49241 0.48156 0.0
C2080 C 0.28811 0.5213 0.47165 0.0
C2081 C 0.27526 0.53169 0.50334 0.0
C2082 C 0.28125 0.51861 0.4568 0.0
C2083 C 0.28607 0.52848 0.44416 0.0
C2084 C 0.29783 0.54125 0.44614 0.0
C2085 C 0.30409 0.54438 0.46119 0.0
C2086 C 0.29942 0.5344 0.47376 0.0
H2087 H 0.26629 0.53177 0.5132 0.0
H2088 H 0.28617 0.53921 0.50693 0.0
H2089 H 0.26935 0.53769 0.49307 0.0
H2090 H 0.27262 0.50848 0.45486 0.0
H2091 H 0.28114 0.52557 0.43272 0.0
H2092 H 0.73941 0.05718 0.67681 0.0
H2093 H 0.7572 0.05153 0.69927 0.0
H2094 H 0.71416 0.03802 0.72649 0.0
H2095 H 0.69631 0.04299 0.70388 0.0
H2096 H 0.75437 0.06944 0.72587 0.0
H2097 H 0.74748 0.00246 0.73936 0.0
H2098 H 0.74167 0.01125 0.72072 0.0
H2099 H 0.72789 0.0129 0.73719 0.0
C2100 C 0.73376 0.05249 0.68742 0.0
C2101 C 0.71643 0.0506 0.68859 0.0
C2102 C 0.74395 0.04934 0.70026 0.0
C2103 C 0.73702 0.04421 0.71449 0.0
C2104 C 0.71981 0.04166 0.71553 0.0
H2105 H 0.76673 0.06664 0.80716 0.0
H2106 H 0.75258 0.06141 0.78242 0.0
C2107 C 0.7096 0.04475 0.70267 0.0
C2108 C 0.74741 0.04375 0.72871 0.0
H2109 H 0.75812 0.01976 0.76005 0.0
C2110 C 0.7554 0.05849 0.73321 0.0
C2111 C 0.74877 0.02944 0.73823 0.0
C2112 C 0.74113 0.01306 0.73356 0.0
C2113 C 0.76416 0.05951 0.74728 0.0
C2114 C 0.76478 0.04549 0.75716 0.0
C2115 C 0.75741 0.03052 0.75245 0.0
C2116 C 0.77249 0.0466 0.77272 0.0
C2117 C 0.77245 0.07569 0.75165 0.0
C2118 C 0.78814 0.03957 0.77551 0.0
C2119 C 0.79627 0.04249 0.78967 0.0
C2120 C 0.78878 0.05242 0.80122 0.0
C2121 C 0.77275 0.0588 0.79858 0.0
C2122 C 0.76468 0.05591 0.78444 0.0
H2123 H 0.77365 0.08418 0.74148 0.0
H2124 H 0.7649 0.08204 0.76071 0.0
H2125 H 0.785 0.07339 0.7566 0.0
H2126 H 0.79429 0.03234 0.76654 0.0
H2127 H 0.80852 0.03726 0.79147 0.0
H2128 H 0.82306 0.45103 0.95969 0.0
H2129 H 0.8154 0.46816 0.98197 0.0
H2130 H 0.77138 0.48465 0.95777 0.0
H2131 H 0.77877 0.46716 0.93538 0.0
H2132 H 0.79113 0.51046 0.9693 0.0
H2133 H 0.7791 0.46383 0.01535 0.0
H2134 H 0.79828 0.45993 0.00531 0.0
H2135 H 0.77893 0.45871 0.9948 0.0
C2136 C 0.8115 0.4579 0.95922 0.0
C2137 C 0.80151 0.45767 0.94575 0.0
C2138 C 0.80714 0.46771 0.97199 0.0
C2139 C 0.79269 0.47745 0.9716 0.0
C2140 C 0.78251 0.4771 0.95831 0.0
H2141 H 0.77833 0.53661 0.05704 0.0
H2142 H 0.77056 0.5198 0.0343 0.0
C2143 C 0.78683 0.4672 0.94552 0.0
C2144 C 0.78934 0.48918 0.9845 0.0
H2145 H 0.78757 0.49116 0.02423 0.0
C2146 C 0.78994 0.50627 0.98129 0.0
C2147 C 0.78752 0.4837 8e-05 0.0
C2148 C 0.78574 0.46553 0.00409 0.0
C2149 C 0.79015 0.51798 0.9934 0.0
C2150 C 0.78995 0.51239 0.00905 0.0
C2151 C 0.78794 0.4954 0.01221 0.0
C2152 C 0.79383 0.52363 0.02218 0.0
C2153 C 0.79122 0.5362 0.98937 0.0
C2154 C 0.8095 0.53122 0.02288 0.0
C2155 C 0.81405 0.54061 0.03586 0.0
C2156 C 0.80301 0.5426 0.04846 0.0
C2157 C 0.78718 0.53518 0.04761 0.0
C2158 C 0.78267 0.52568 0.0346 0.0
H2159 H 0.78588 0.53873 0.97765 0.0
H2160 H 0.78462 0.54393 -0.00186 0.0
H2161 H 0.80447 0.54003 0.98917 0.0
H2162 H 0.81846 0.52941 0.01359 0.0
H2163 H 0.82646 0.5458 0.03625 0.0
H2164 H 0.21277 0.02987 0.80736 0.0
H2165 H 0.2304 0.02353 0.78474 0.0
H2166 H 0.22088 0.07239 0.76609 0.0
H2167 H 0.20359 0.07894 0.78861 0.0
H2168 H 0.21862 0.04529 0.74389 0.0
H2169 H 0.27713 0.04546 0.77881 0.0
H2170 H 0.26043 0.03219 0.78517 0.0
H2171 H 0.25806 0.05433 0.78614 0.0
C2172 C 0.21445 0.03925 0.79843 0.0
C2173 C 0.2068 0.05492 0.7998 0.0
C2174 C 0.22447 0.03559 0.78553 0.0
C2175 C 0.22698 0.04755 0.77386 0.0
C2176 C 0.219 0.06298 0.77497 0.0
H2177 H 0.29621 0.07925 0.70833 0.0
H2178 H 0.27886 0.07213 0.73075 0.0
C2179 C 0.20905 0.06666 0.78782 0.0
C2180 C 0.23846 0.04455 0.76071 0.0
H2181 H 0.27974 0.04402 0.75157 0.0
C2182 C 0.23198 0.04465 0.74551 0.0
C2183 C 0.25585 0.04384 0.76299 0.0
C2184 C 0.2634 0.04402 0.77912 0.0
C2185 C 0.24249 0.0449 0.73246 0.0
C2186 C 0.2599 0.04488 0.73475 0.0
C2187 C 0.26637 0.04394 0.74993 0.0
C2188 C 0.27147 0.04813 0.72172 0.0
C2189 C 0.23494 0.04626 0.71637 0.0
C2190 C 0.2733 0.03681 0.70939 0.0
C2191 C 0.28315 0.04089 0.69649 0.0
C2192 C 0.29126 0.05637 0.69577 0.0
C2193 C 0.28988 0.06736 0.70845 0.0
C2194 C 0.28009 0.06326 0.7213 0.0
H2195 H 0.2213 0.04836 0.7168 0.0
H2196 H 0.24077 0.05661 0.70977 0.0
H2197 H 0.23729 0.03459 0.70983 0.0
H2198 H 0.26685 0.02499 0.70961 0.0
H2199 H 0.28397 0.0322 0.68686 0.0
H2200 H 0.69215 0.51573 0.43676 0.0
H2201 H 0.69899 0.50119 0.46097 0.0
H2202 H 0.70981 0.54797 0.48328 0.0
H2203 H 0.70324 0.56268 0.459 0.0
H2204 H 0.72868 0.50215 0.48205 0.0
H2205 H 0.66996 0.52656 0.50791 0.0
H2206 H 0.67379 0.5268 0.48715 0.0
H2207 H 0.68408 0.54147 0.4996 0.0
C2208 C 0.69637 0.52292 0.44668 0.0
C2209 C 0.69699 0.54038 0.44601 0.0
C2210 C 0.70024 0.51459 0.4605 0.0
C2211 C 0.70473 0.52355 0.47388 0.0
C2212 C 0.7062 0.54089 0.47307 0.0
H2213 H 0.69932 0.4857 0.5689 0.0
H2214 H 0.70599 0.50387 0.54697 0.0
C2215 C 0.70235 0.54925 0.45924 0.0
C2216 C 0.70629 0.51482 0.48897 0.0
H2217 H 0.68556 0.50811 0.52308 0.0
C2218 C 0.71939 0.50355 0.49113 0.0
C2219 C 0.69414 0.51675 0.50074 0.0
C2220 C 0.67961 0.52846 0.4988 0.0
C2221 C 0.72051 0.49391 0.50476 0.0
C2222 C 0.70797 0.49535 0.51628 0.0
C2223 C 0.69519 0.50704 0.51427 0.0
C2224 C 0.70694 0.48406 0.52991 0.0
C2225 C 0.73508 0.48228 0.50667 0.0
C2226 C 0.7056 0.46684 0.52766 0.0
C2227 C 0.70202 0.45637 0.54022 0.0
C2228 C 0.69943 0.46296 0.55524 0.0
C2229 C 0.70142 0.48015 0.55755 0.0
C2230 C 0.70514 0.49059 0.545 0.0
H2231 H 0.74608 0.48677 0.50005 0.0
H2232 H 0.73859 0.48084 0.51914 0.0
H2233 H 0.7317 0.46988 0.50198 0.0
H2234 H 0.70655 0.46154 0.51608 0.0
H2235 H 0.70081 0.44317 0.53807 0.0
H2236 H 0.30693 0.95046 0.28892 0.0
H2237 H 0.28912 0.9556 0.26639 0.0
H2238 H 0.24572 0.95243 0.29584 0.0
H2239 H 0.26334 0.94625 0.31824 0.0
H2240 H 0.24309 0.93253 0.27156 0.0
H2241 H 0.26287 0.9943 0.25026 0.0
H2242 H 0.2802 0.98046 0.25232 0.0
H2243 H 0.26854 0.98659 0.26933 0.0
C2244 C 0.2936 0.95093 0.29064 0.0
C2245 C 0.28659 0.9478 0.3054 0.0
C2246 C 0.28344 0.95417 0.27778 0.0
C2247 C 0.26609 0.95465 0.27946 0.0
C2248 C 0.25909 0.95225 0.2943 0.0
H2249 H 0.18875 0.95264 0.20742 0.0
H2250 H 0.20343 0.95875 0.23185 0.0
C2251 C 0.26922 0.94884 0.30713 0.0
C2252 C 0.25523 0.95553 0.26551 0.0
H2253 H 0.24838 0.97693 0.23166 0.0
C2254 C 0.24403 0.94242 0.263 0.0
C2255 C 0.25649 0.96841 0.25431 0.0
C2256 C 0.26756 0.98332 0.25677 0.0
C2257 C 0.23456 0.94147 0.24931 0.0
C2258 C 0.23631 0.95399 0.23788 0.0
C2259 C 0.24715 0.96735 0.2405 0.0
C2260 C 0.22774 0.95265 0.22272 0.0
C2261 C 0.22322 0.92675 0.24684 0.0
C2262 C 0.23668 0.94762 0.20951 0.0
C2263 C 0.22837 0.94409 0.1956 0.0
C2264 C 0.21099 0.94564 0.19469 0.0
C2265 C 0.20216 0.95144 0.20776 0.0
C2266 C 0.21049 0.95488 0.22171 0.0
H2267 H 0.22475 0.91715 0.25606 0.0
H2268 H 0.2101 0.931 0.24692 0.0
H2269 H 0.22568 0.92096 0.2353 0.0
H2270 H 0.25002 0.94582 0.21014 0.0
H2271 H 0.2355 0.93984 0.18563 0.0
H2272 H 0.68649 0.01272 0.55757 0.0
H2273 H 0.69487 0.99681 0.53474 0.0
H2274 H 0.72014 0.0398 0.5162 0.0
H2275 H 0.71104 0.05614 0.53875 0.0
H2276 H 0.69996 0.02649 0.49524 0.0
H2277 H 0.73746 0.97595 0.52066 0.0
H2278 H 0.71786 0.97735 0.53049 0.0
H2279 H 0.73227 0.99448 0.53151 0.0
C2280 C 0.69385 0.01882 0.54866 0.0
C2281 C 0.69795 0.03575 0.5499 0.0
C2282 C 0.69892 0.0096 0.53574 0.0
C2283 C 0.70844 0.01701 0.52391 0.0
C2284 C 0.71297 0.03379 0.5253 0.0
H2285 H 0.71926 0.97022 0.43117 0.0
H2286 H 0.72682 0.98751 0.45365 0.0
C2287 C 0.7078 0.04308 0.53821 0.0
C2288 C 0.71177 0.00771 0.50934 0.0
H2289 H 0.72347 0.96949 0.496 0.0
C2290 C 0.70555 0.01422 0.4953 0.0
C2291 C 0.71915 0.99174 0.50942 0.0
C2292 C 0.72722 0.98458 0.52383 0.0
C2293 C 0.70527 0.00466 0.48164 0.0
C2294 C 0.71143 0.98823 0.48208 0.0
C2295 C 0.71865 0.98208 0.4958 0.0
C2296 C 0.70845 0.9767 0.46902 0.0
C2297 C 0.69738 0.01173 0.46709 0.0
C2298 C 0.69589 0.96474 0.47044 0.0
C2299 C 0.69139 0.95503 0.45765 0.0
C2300 C 0.69948 0.95704 0.44321 0.0
C2301 C 0.71259 0.96858 0.44205 0.0
C2302 C 0.71702 0.97837 0.45487 0.0
H2303 H 0.69211 0.02433 0.46904 0.0
H2304 H 0.70683 0.01255 0.45768 0.0
H2305 H 0.6873 0.00339 0.46294 0.0
H2306 H 0.68909 0.9634 0.48129 0.0
H2307 H 0.68111 0.94645 0.45892 0.0
H2308 H 0.27791 0.46993 0.68382 0.0
H2309 H 0.26183 0.47761 0.70717 0.0
H2310 H 0.28546 0.43809 0.73296 0.0
H2311 H 0.30136 0.4303 0.70973 0.0
H2312 H 0.24032 0.45224 0.72295 0.0
H2313 H 0.28742 0.48073 0.76198 0.0
H2314 H 0.28951 0.48039 0.74095 0.0
H2315 H 0.29404 0.46209 0.75219 0.0
C2316 C 0.27985 0.46312 0.69458 0.0
C2317 C 0.29077 0.4495 0.69504 0.0
C2318 C 0.27069 0.4675 0.70784 0.0
C2319 C 0.27265 0.45852 0.72176 0.0
C2320 C 0.28399 0.4453 0.72236 0.0
H2321 H 0.23516 0.43433 0.80953 0.0
H2322 H 0.2509 0.44143 0.78617 0.0
C2323 C 0.29294 0.44079 0.7091 0.0
C2324 C 0.26167 0.46155 0.73526 0.0
H2325 H 0.2627 0.47041 0.77415 0.0
C2326 C 0.24503 0.45658 0.7341 0.0
C2327 C 0.26799 0.46715 0.7497 0.0
C2328 C 0.28569 0.47304 0.75132 0.0
C2329 C 0.23479 0.45586 0.74734 0.0
C2330 C 0.24133 0.46072 0.762 0.0
C2331 C 0.25772 0.46668 0.76292 0.0
C2332 C 0.23209 0.45782 0.7767 0.0
C2333 C 0.21749 0.44878 0.74567 0.0
C2334 C 0.21644 0.46499 0.77932 0.0
C2335 C 0.20721 0.46065 0.79255 0.0
C2336 C 0.2136 0.44924 0.80347 0.0
C2337 C 0.22967 0.4428 0.80117 0.0
C2338 C 0.23878 0.44701 0.78791 0.0
H2339 H 0.21567 0.44251 0.73424 0.0
H2340 H 0.21485 0.43969 0.7551 0.0
H2341 H 0.20827 0.45899 0.74653 0.0
H2342 H 0.2112 0.47364 0.77098 0.0
H2343 H 0.19487 0.46583 0.79394 0.0
H2344 H 0.77534 0.04692 0.94477 0.0
H2345 H 0.76617 0.03079 0.96757 0.0
H2346 H 0.81218 0.00326 0.96662 0.0
H2347 H 0.82118 0.01891 0.94377 0.0
H2348 H 0.78302 0.98357 0.97212 0.0
H2349 H 0.78768 0.03901 0.01101 0.0
H2350 H 0.77466 0.04027 0.99396 0.0
H2351 H 0.79678 0.03885 0.99175 0.0
C2352 C 0.78336 0.03726 0.94932 0.0
C2353 C 0.79908 0.03432 0.94266 0.0
C2354 C 0.77815 0.02814 0.96236 0.0
C2355 C 0.78859 0.01599 0.96883 0.0
C2356 C 0.80396 0.01262 0.9618 0.0
H2357 H 0.82364 0.97548 0.04907 0.0
H2358 H 0.81428 0.99113 0.02633 0.0
C2359 C 0.80916 0.02168 0.94885 0.0
C2360 C 0.78438 0.00736 0.98351 0.0
H2361 H 0.78591 0.01293 0.02295 0.0
C2362 C 0.78316 0.98996 0.98327 0.0
C2363 C 0.7846 0.01583 0.99797 0.0
C2364 C 0.78606 0.03451 -0.00116 0.0
C2365 C 0.7835 0.98071 0.99713 0.0
C2366 C 0.78494 0.98915 0.01154 0.0
C2367 C 0.78479 0.00658 0.01183 0.0
C2368 C 0.78968 0.98026 0.02594 0.0
C2369 C 0.78373 0.96198 0.99624 0.0
C2370 C 0.77883 0.9691 0.03332 0.0
C2371 C 0.78421 0.96 0.0463 0.0
C2372 C 0.80052 0.96194 0.05199 0.0
C2373 C 0.81113 0.97348 0.04477 0.0
C2374 C 0.80575 0.98254 0.03189 0.0
H2375 H 0.78394 0.95739 0.984 0.0
H2376 H 0.79478 0.957 0.00245 0.0
H2377 H 0.77249 0.95692 0.00206 0.0
H2378 H 0.76633 0.96729 0.02894 0.0
H2379 H 0.77579 0.95118 0.05165 0.0
H2380 H 0.23306 0.56744 0.19167 0.0
H2381 H 0.24852 0.55821 0.21442 0.0
H2382 H 0.21536 0.51643 0.21966 0.0
H2383 H 0.19903 0.52627 0.19739 0.0
H2384 H 0.21919 0.53075 0.24635 0.0
H2385 H 0.28176 0.52283 0.22192 0.0
H2386 H 0.27457 0.54315 0.21679 0.0
H2387 H 0.26371 0.52507 0.20958 0.0
C2388 C 0.22898 0.5563 0.19765 0.0
C2389 C 0.21467 0.54771 0.19278 0.0
C2390 C 0.23808 0.55082 0.21049 0.0
C2391 C 0.23337 0.53638 0.21856 0.0
C2392 C 0.21935 0.52749 0.2135 0.0
H2393 H 0.30114 0.52617 0.29822 0.0
H2394 H 0.28513 0.51652 0.27566 0.0
C2395 C 0.21008 0.5331 0.20072 0.0
C2396 C 0.24207 0.53188 0.23323 0.0
H2397 H 0.28074 0.53178 0.24946 0.0
C2398 C 0.23266 0.53051 0.24697 0.0
C2399 C 0.25961 0.53096 0.23412 0.0
C2400 C 0.27043 0.53038 0.21974 0.0
C2401 C 0.24035 0.53 0.26165 0.0
C2402 C 0.25785 0.5315 0.26259 0.0
C2403 C 0.26729 0.53109 0.24881 0.0
C2404 C 0.26638 0.53573 0.27742 0.0
C2405 C 0.22957 0.52839 0.27599 0.0
C2406 C 0.26113 0.54966 0.28596 0.0
C2407 C 0.27006 0.55501 0.29894 0.0
C2408 C 0.28472 0.54683 0.3035 0.0
C2409 C 0.28983 0.53267 0.29512 0.0
C2410 C 0.28074 0.52718 0.28218 0.0
H2411 H 0.21853 0.52051 0.27352 0.0
H2412 H 0.2365 0.52291 0.28596 0.0
H2413 H 0.22494 0.54086 0.27941 0.0
H2414 H 0.25041 0.55679 0.28228 0.0
H2415 H 0.26559 0.56578 0.30526 0.0
H2416 H 0.27974 0.03276 0.56128 0.0
H2417 H 0.27282 0.01464 0.53916 0.0
H2418 H 0.31928 0.02744 0.5171 0.0
H2419 H 0.32636 0.0453 0.53906 0.0
H2420 H 0.29096 0.02758 0.49678 0.0
H2421 H 0.29682 0.9695 0.53189 0.0
H2422 H 0.2828 0.9853 0.5388 0.0
H2423 H 0.30476 0.98917 0.53874 0.0
C2424 C 0.28846 0.03171 0.55169 0.0
C2425 C 0.30362 0.04045 0.55193 0.0
C2426 C 0.28447 0.02139 0.53909 0.0
C2427 C 0.29561 0.01965 0.5266 0.0
C2428 C 0.31049 0.02871 0.52661 0.0
H2429 H 0.32863 0.95204 0.46071 0.0
H2430 H 0.32099 0.96881 0.48334 0.0
C2431 C 0.31448 0.03898 0.53915 0.0
C2432 C 0.29243 0.00788 0.51371 0.0
H2433 H 0.29409 0.96659 0.50479 0.0
C2434 C 0.29127 0.01422 0.4985 0.0
C2435 C 0.29293 0.9905 0.5161 0.0
C2436 C 0.29448 0.9831 0.53223 0.0
C2437 C 0.29158 0.00365 0.48549 0.0
C2438 C 0.29285 0.9863 0.48785 0.0
C2439 C 0.29304 0.97991 0.50309 0.0
C2440 C 0.29642 0.97489 0.47476 0.0
C2441 C 0.29169 0.01118 0.46934 0.0
C2442 C 0.28497 0.97247 0.46263 0.0
C2443 C 0.28937 0.96299 0.44958 0.0
C2444 C 0.30529 0.95581 0.44853 0.0
C2445 C 0.31641 0.95768 0.46106 0.0
C2446 C 0.31201 0.96713 0.47405 0.0
H2447 H 0.29303 0.02492 0.46964 0.0
H2448 H 0.30201 0.00592 0.46229 0.0
H2449 H 0.27984 0.00816 0.46334 0.0
H2450 H 0.2728 0.97821 0.46308 0.0
H2451 H 0.28056 0.96178 0.44009 0.0
H2452 H 0.76946 0.57873 0.19044 0.0
H2453 H 0.75194 0.57206 0.21282 0.0
H2454 H 0.7768 0.52486 0.21783 0.0
H2455 H 0.79486 0.5317 0.19565 0.0
H2456 H 0.73024 0.54486 0.21774 0.0
H2457 H 0.78192 0.54669 0.26109 0.0
H2458 H 0.78416 0.55495 0.24161 0.0
H2459 H 0.7843 0.53289 0.24473 0.0
C2460 C 0.77133 0.56699 0.19637 0.0
C2461 C 0.78371 0.55585 0.19142 0.0
C2462 C 0.7612 0.56312 0.20906 0.0
C2463 C 0.76322 0.54806 0.21706 0.0
C2464 C 0.77522 0.53665 0.21191 0.0
H2465 H 0.7136 0.53056 0.30728 0.0
H2466 H 0.72851 0.52404 0.28299 0.0
C2467 C 0.78542 0.54052 0.19919 0.0
C2468 C 0.75296 0.54478 0.23105 0.0
H2469 H 0.75487 0.5437 0.27084 0.0
C2470 C 0.73562 0.54433 0.22935 0.0
C2471 C 0.76005 0.54399 0.24614 0.0
C2472 C 0.77862 0.54475 0.24863 0.0
C2473 C 0.72513 0.5439 0.24241 0.0
C2474 C 0.7322 0.54414 0.25751 0.0
C2475 C 0.74953 0.54353 0.25921 0.0
C2476 C 0.72199 0.54712 0.27157 0.0
C2477 C 0.70656 0.54368 0.23996 0.0
C2478 C 0.71348 0.56224 0.27312 0.0
C2479 C 0.70509 0.566 0.28691 0.0
C2480 C 0.70509 0.55472 0.29943 0.0
C2481 C 0.71331 0.53941 0.29775 0.0
C2482 C 0.72184 0.53569 0.28394 0.0
H2483 H 0.70327 0.53829 0.22842 0.0
H2484 H 0.70021 0.53644 0.24926 0.0
H2485 H 0.70178 0.55661 0.2403 0.0
H2486 H 0.71372 0.57136 0.26381 0.0
H2487 H 0.69873 0.57783 0.28785 0.0
H2488 H 0.21803 0.95902 0.0559 0.0
H2489 H 0.22505 0.97552 0.0327 0.0
H2490 H 0.17421 0.97197 0.01698 0.0
H2491 H 0.16722 0.95539 0.0399 0.0
H2492 H 0.19662 0.96684 0.9934 0.0
H2493 H 0.21209 0.02404 0.02696 0.0
H2494 H 0.22387 0.00577 0.03176 0.0
H2495 H 0.20197 0.0064 0.03583 0.0
C2496 C 0.20839 0.96178 0.04745 0.0
C2497 C 0.19208 0.95596 0.04969 0.0
C2498 C 0.2124 0.97121 0.03426 0.0
C2499 C 0.20009 0.97515 0.02325 0.0
C2500 C 0.1839 0.96904 0.02532 0.0
H2501 H 0.17857 0.05203 0.96094 0.0
H2502 H 0.18456 0.03367 0.98287 0.0
C2503 C 0.17993 0.95953 0.0384 0.0
C2504 C 0.20367 0.98594 0.00968 0.0
H2505 H 0.2124 0.02606 -0.00036 0.0
C2506 C 0.2003 0.97974 0.9947 0.0
C2507 C 0.20842 0.00276 0.0115 0.0
C2508 C 0.21169 0.01025 0.02736 0.0
C2509 C 0.20066 0.9901 0.98155 0.0
C2510 C 0.20496 0.00704 0.98341 0.0
C2511 C 0.20919 0.01304 -0.00172 0.0
C2512 C 0.203 0.01913 0.97052 0.0
C2513 C 0.19539 0.98305 0.96598 0.0
C2514 C 0.21174 0.01737 0.95644 0.0
C2515 C 0.20809 0.02767 0.94374 0.0
C2516 C 0.19577 0.04003 0.94501 0.0
C2517 C 0.18782 0.04238 0.95946 0.0
C2518 C 0.19136 0.03201 0.97206 0.0
H2519 H 0.18936 0.97069 0.96719 0.0
H2520 H 0.18658 0.99156 0.95999 0.0
H2521 H 0.20648 0.98155 0.95841 0.0
H2522 H 0.22102 0.00772 0.95512 0.0
H2523 H 0.21444 0.02551 0.93278 0.0
H2524 H 0.68965 0.44608 0.71079 0.0
H2525 H 0.70786 0.45193 0.73288 0.0
H2526 H 0.74958 0.45685 0.70157 0.0
H2527 H 0.73164 0.45013 0.67949 0.0
H2528 H 0.75587 0.43536 0.72435 0.0
H2529 H 0.73001 0.49248 0.75067 0.0
H2530 H 0.7143 0.47692 0.74808 0.0
H2531 H 0.72448 0.48568 0.73125 0.0
C2532 C 0.70268 0.44852 0.70857 0.0
C2533 C 0.7092 0.44747 0.69337 0.0
C2534 C 0.71303 0.45215 0.7212 0.0
C2535 C 0.73005 0.45507 0.71886 0.0
C2536 C 0.73645 0.45478 0.70363 0.0
H2537 H 0.80918 0.45354 0.78958 0.0
H2538 H 0.79409 0.4601 0.76548 0.0
C2539 C 0.72614 0.45103 0.691 0.0
C2540 C 0.74143 0.45621 0.73241 0.0
H2541 H 0.74691 0.47532 0.76764 0.0
C2542 C 0.75414 0.44433 0.73366 0.0
C2543 C 0.73912 0.4679 0.74457 0.0
C2544 C 0.72634 0.48156 0.74351 0.0
C2545 C 0.76405 0.44325 0.74707 0.0
C2546 C 0.76125 0.45446 0.75949 0.0
C2547 C 0.74896 0.46673 0.75807 0.0
C2548 C 0.7701 0.45264 0.77448 0.0
C2549 C 0.77689 0.42962 0.74819 0.0
C2550 C 0.76147 0.44677 0.78758 0.0
C2551 C 0.77001 0.44304 0.80132 0.0
C2552 C 0.78732 0.4452 0.80219 0.0
C2553 C 0.79583 0.45182 0.78926 0.0
C2554 C 0.78727 0.45549 0.77549 0.0
H2555 H 0.77577 0.42048 0.73853 0.0
H2556 H 0.78951 0.43516 0.74771 0.0
H2557 H 0.77571 0.42292 0.75948 0.0
H2558 H 0.7482 0.44452 0.78699 0.0
H2559 H 0.7631 0.43821 0.81118 0.0
loop_
_geom_bond_atom_site_label_1
_geom_bond_atom_site_label_2
_geom_bond_distance
_geom_bond_site_symmetry_2
_ccdc_geom_bond_type
Li0 N17 1.990 . S
Li0 O60 1.956 . S
Li0 O61 1.970 . S
Li0 O62 1.961 . S
Li1 N25 1.990 . S
Li1 O60 1.970 . S
Li1 O61 1.956 . S
Li1 O63 1.961 . S
Li2 N47 1.990 . S
Li2 O60 1.961 . S
Li2 O62 1.956 . S
Li2 O63 1.970 . S
Li3 N53 1.990 . S
Li3 O61 1.961 . S
Li3 O62 1.970 . S
Li3 O63 1.956 . S
C4 C6 1.348 . S
C4 C7 1.356 . S
C4 O60 1.325 . S
N5 C8 1.314 . S
N5 C9 1.279 . S
C6 C4 1.348 . S
C6 C8 1.353 . S
C6 H64 0.929 . S
C7 C4 1.356 . S
C7 C9 1.358 . S
C7 H65 0.930 . S
C8 N5 1.314 . S
C8 C6 1.353 . S
C8 H66 0.930 . S
C9 N5 1.279 . S
C9 C7 1.358 . S
C9 H67 0.930 . S
C10 C13 1.348 . S
C10 C14 1.356 . S
C10 O61 1.325 . S
C11 N12 1.279 . S
C11 C14 1.358 . S
C11 H68 0.930 . S
N12 C11 1.279 . S
N12 C15 1.314 . S
C13 C10 1.348 . S
C13 C15 1.353 . S
C13 H69 0.929 . S
C14 C10 1.356 . S
C14 C11 1.358 . S
C14 H70 0.930 . S
C15 N12 1.314 . S
C15 C13 1.353 . S
C15 H71 0.930 . S
C16 N17 1.314 . S
C16 C21 1.353 . S
C16 H22 0.930 . S
N17 Li0 1.990 . S
N17 C16 1.314 . S
N17 C19 1.279 . S
C18 C19 1.358 . S
C18 C20 1.356 . S
C18 H72 0.930 . S
C19 N17 1.279 . S
C19 C18 1.358 . S
C19 H23 0.930 . S
C20 C18 1.356 . S
C20 C21 1.348 . S
C21 C16 1.353 . S
C21 C20 1.348 . S
C21 H73 0.929 . S
H22 C16 0.930 . S
H23 C19 0.930 . S
C24 N25 1.314 . S
C24 C26 1.353 . S
C24 H30 0.930 . S
N25 Li1 1.990 . S
N25 C24 1.314 . S
N25 C28 1.279 . S
C26 C24 1.353 . S
C26 C29 1.348 . S
C26 H74 0.929 . S
C27 C28 1.358 . S
C27 C29 1.356 . S
C27 H75 0.930 . S
C28 N25 1.279 . S
C28 C27 1.358 . S
C28 H31 0.930 . S
C29 C26 1.348 . S
C29 C27 1.356 . S
H30 C24 0.930 . S
H31 C28 0.930 . S
C32 C34 1.348 . S
C32 C35 1.356 . S
C32 O62 1.325 . S
N33 C36 1.314 . S
N33 C37 1.279 . S
C34 C32 1.348 . S
C34 C36 1.353 . S
C34 H76 0.929 . S
C35 C32 1.356 . S
C35 C37 1.358 . S
C35 H77 0.930 . S
C36 N33 1.314 . S
C36 C34 1.353 . S
C36 H78 0.930 . S
C37 N33 1.279 . S
C37 C35 1.358 . S
C37 H79 0.930 . S
C38 C39 1.348 . S
C38 C40 1.356 . S
C38 O63 1.325 . S
C39 C38 1.348 . S
C39 C41 1.353 . S
C39 H80 0.929 . S
C40 C38 1.356 . S
C40 C42 1.358 . S
C40 H81 0.930 . S
C41 C39 1.353 . S
C41 N43 1.314 . S
C41 H82 0.930 . S
C42 C40 1.358 . S
C42 N43 1.279 . S
C42 H83 0.930 . S
N43 C41 1.314 . S
N43 C42 1.279 . S
C44 C46 1.353 . S
C44 N47 1.314 . S
C44 H50 0.930 . S
C45 N47 1.279 . S
C45 C48 1.358 . S
C45 H51 0.930 . S
C46 C44 1.353 . S
C46 C49 1.348 . S
C46 H84 0.929 . S
N47 Li2 1.990 . S
N47 C44 1.314 . S
N47 C45 1.279 . S
C48 C45 1.358 . S
C48 C49 1.356 . S
C48 H85 0.930 . S
C49 C46 1.348 . S
C49 C48 1.356 . S
H50 C44 0.930 . S
H51 C45 0.930 . S
C52 N53 1.314 . S
C52 C54 1.353 . S
C52 H58 0.930 . S
N53 Li3 1.990 . S
N53 C52 1.314 . S
N53 C56 1.279 . S
C54 C52 1.353 . S
C54 C57 1.348 . S
C54 H86 0.929 . S
C55 C56 1.358 . S
C55 C57 1.356 . S
C55 H87 0.930 . S
C56 N53 1.279 . S
C56 C55 1.358 . S
C56 H59 0.930 . S
C57 C54 1.348 . S
C57 C55 1.356 . S
H58 C52 0.930 . S
H59 C56 0.930 . S
O60 Li0 1.956 . S
O60 Li1 1.970 . S
O60 Li2 1.961 . S
O60 C4 1.325 . S
O61 Li0 1.970 . S
O61 Li1 1.956 . S
O61 Li3 1.961 . S
O61 C10 1.325 . S
O62 Li0 1.961 . S
O62 Li2 1.956 . S
O62 Li3 1.970 . S
O62 C32 1.325 . S
O63 Li1 1.961 . S
O63 Li2 1.970 . S
O63 Li3 1.956 . S
O63 C38 1.325 . S
H64 C6 0.929 . S
H65 C7 0.930 . S
H66 C8 0.930 . S
H67 C9 0.930 . S
H68 C11 0.930 . S
H69 C13 0.929 . S
H70 C14 0.930 . S
H71 C15 0.930 . S
H72 C18 0.930 . S
H73 C21 0.929 . S
H74 C26 0.929 . S
H75 C27 0.930 . S
H76 C34 0.929 . S
H77 C35 0.930 . S
H78 C36 0.930 . S
H79 C37 0.930 . S
H80 C39 0.929 . S
H81 C40 0.930 . S
H82 C41 0.930 . S
H83 C42 0.930 . S
H84 C46 0.929 . S
H85 C48 0.930 . S
H86 C54 0.929 . S
H87 C55 0.930 . S
Li88 N105 1.990 . S
Li88 O148 1.956 . S
Li88 O149 1.970 . S
Li88 O150 1.961 . S
Li89 N113 1.990 . S
Li89 O148 1.970 . S
Li89 O149 1.956 . S
Li89 O151 1.961 . S
Li90 N135 1.990 . S
Li90 O148 1.961 . S
Li90 O150 1.956 . S
Li90 O151 1.970 . S
Li91 N141 1.990 . S
Li91 O149 1.961 . S
Li91 O150 1.970 . S
Li91 O151 1.956 . S
C92 C94 1.348 . S
C92 C95 1.356 . S
C92 O148 1.325 . S
N93 C96 1.314 . S
N93 C97 1.279 . S
C94 C92 1.348 . S
C94 C96 1.353 . S
C94 H152 0.929 . S
C95 C92 1.356 . S
C95 C97 1.358 . S
C95 H153 0.930 . S
C96 N93 1.314 . S
C96 C94 1.353 . S
C96 H154 0.930 . S
C97 N93 1.279 . S
C97 C95 1.358 . S
C97 H155 0.930 . S
C98 C101 1.348 . S
C98 C102 1.356 . S
C98 O149 1.325 . S
C99 N100 1.279 . S
C99 C102 1.358 . S
C99 H156 0.930 . S
N100 C99 1.279 . S
N100 C103 1.314 . S
C101 C98 1.348 . S
C101 C103 1.353 . S
C101 H157 0.929 . S
C102 C98 1.356 . S
C102 C99 1.358 . S
C102 H158 0.930 . S
C103 N100 1.314 . S
C103 C101 1.353 . S
C103 H159 0.930 . S
C104 N105 1.314 . S
C104 C109 1.353 . S
C104 H110 0.930 . S
N105 Li88 1.990 . S
N105 C104 1.314 . S
N105 C107 1.279 . S
C106 C107 1.358 . S
C106 C108 1.356 . S
C106 H160 0.930 . S
C107 N105 1.279 . S
C107 C106 1.358 . S
C107 H111 0.930 . S
C108 C106 1.356 . S
C108 C109 1.348 . S
C109 C104 1.353 . S
C109 C108 1.348 . S
C109 H161 0.929 . S
H110 C104 0.930 . S
H111 C107 0.930 . S
C112 N113 1.314 . S
C112 C114 1.353 . S
C112 H118 0.930 . S
N113 Li89 1.990 . S
N113 C112 1.314 . S
N113 C116 1.279 . S
C114 C112 1.353 . S
C114 C117 1.348 . S
C114 H162 0.929 . S
C115 C116 1.358 . S
C115 C117 1.356 . S
C115 H163 0.930 . S
C116 N113 1.279 . S
C116 C115 1.358 . S
C116 H119 0.930 . S
C117 C114 1.348 . S
C117 C115 1.356 . S
H118 C112 0.930 . S
H119 C116 0.930 . S
C120 C122 1.348 . S
C120 C123 1.356 . S
C120 O150 1.325 . S
N121 C124 1.314 . S
N121 C125 1.279 . S
C122 C120 1.348 . S
C122 C124 1.353 . S
C122 H164 0.929 . S
C123 C120 1.356 . S
C123 C125 1.358 . S
C123 H165 0.930 . S
C124 N121 1.314 . S
C124 C122 1.353 . S
C124 H166 0.930 . S
C125 N121 1.279 . S
C125 C123 1.358 . S
C125 H167 0.930 . S
C126 C127 1.348 . S
C126 C128 1.356 . S
C126 O151 1.325 . S
C127 C126 1.348 . S
C127 C129 1.353 . S
C127 H168 0.929 . S
C128 C126 1.356 . S
C128 C130 1.358 . S
C128 H169 0.930 . S
C129 C127 1.353 . S
C129 N131 1.314 . S
C129 H170 0.930 . S
C130 C128 1.358 . S
C130 N131 1.279 . S
C130 H171 0.930 . S
N131 C129 1.314 . S
N131 C130 1.279 . S
C132 C134 1.353 . S
C132 N135 1.314 . S
C132 H138 0.930 . S
C133 N135 1.279 . S
C133 C136 1.358 . S
C133 H139 0.930 . S
C134 C132 1.353 . S
C134 C137 1.348 . S
C134 H172 0.929 . S
N135 Li90 1.990 . S
N135 C132 1.314 . S
N135 C133 1.279 . S
C136 C133 1.358 . S
C136 C137 1.356 . S
C136 H173 0.930 . S
C137 C134 1.348 . S
C137 C136 1.356 . S
H138 C132 0.930 . S
H139 C133 0.930 . S
C140 N141 1.314 . S
C140 C142 1.353 . S
C140 H146 0.930 . S
N141 Li91 1.990 . S
N141 C140 1.314 . S
N141 C144 1.279 . S
C142 C140 1.353 . S
C142 C145 1.348 . S
C142 H174 0.929 . S
C143 C144 1.358 . S
C143 C145 1.356 . S
C143 H175 0.930 . S
C144 N141 1.279 . S
C144 C143 1.358 . S
C144 H147 0.930 . S
C145 C142 1.348 . S
C145 C143 1.356 . S
H146 C140 0.930 . S
H147 C144 0.930 . S
O148 Li88 1.956 . S
O148 Li89 1.970 . S
O148 Li90 1.961 . S
O148 C92 1.325 . S
O149 Li88 1.970 . S
O149 Li89 1.956 . S
O149 Li91 1.961 . S
O149 C98 1.325 . S
O150 Li88 1.961 . S
O150 Li90 1.956 . S
O150 Li91 1.970 . S
O150 C120 1.325 . S
O151 Li89 1.961 . S
O151 Li90 1.970 . S
O151 Li91 1.956 . S
O151 C126 1.325 . S
H152 C94 0.929 . S
H153 C95 0.930 . S
H154 C96 0.930 . S
H155 C97 0.930 . S
H156 C99 0.930 . S
H157 C101 0.929 . S
H158 C102 0.930 . S
H159 C103 0.930 . S
H160 C106 0.930 . S
H161 C109 0.929 . S
H162 C114 0.929 . S
H163 C115 0.930 . S
H164 C122 0.929 . S
H165 C123 0.930 . S
H166 C124 0.930 . S
H167 C125 0.930 . S
H168 C127 0.929 . S
H169 C128 0.930 . S
H170 C129 0.930 . S
H171 C130 0.930 . S
H172 C134 0.929 . S
H173 C136 0.930 . S
H174 C142 0.929 . S
H175 C143 0.930 . S
Li176 N193 1.990 . S
Li176 O236 1.956 . S
Li176 O237 1.970 . S
Li176 O238 1.961 . S
Li177 N201 1.990 . S
Li177 O236 1.970 . S
Li177 O237 1.956 . S
Li177 O239 1.961 . S
Li178 N223 1.990 . S
Li178 O236 1.961 . S
Li178 O238 1.956 . S
Li178 O239 1.970 . S
Li179 N229 1.990 . S
Li179 O237 1.961 . S
Li179 O238 1.970 . S
Li179 O239 1.956 . S
C180 C182 1.348 . S
C180 C183 1.356 . S
C180 O236 1.325 . S
N181 C184 1.314 . S
N181 C185 1.279 . S
C182 C180 1.348 . S
C182 C184 1.353 . S
C182 H240 0.929 . S
C183 C180 1.356 . S
C183 C185 1.358 . S
C183 H241 0.930 . S
C184 N181 1.314 . S
C184 C182 1.353 . S
C184 H242 0.930 . S
C185 N181 1.279 . S
C185 C183 1.358 . S
C185 H243 0.930 . S
C186 C189 1.348 . S
C186 C190 1.356 . S
C186 O237 1.325 . S
C187 N188 1.279 . S
C187 C190 1.358 . S
C187 H244 0.930 . S
N188 C187 1.279 . S
N188 C191 1.314 . S
C189 C186 1.348 . S
C189 C191 1.353 . S
C189 H245 0.929 . S
C190 C186 1.356 . S
C190 C187 1.358 . S
C190 H246 0.930 . S
C191 N188 1.314 . S
C191 C189 1.353 . S
C191 H247 0.930 . S
C192 N193 1.314 . S
C192 C197 1.353 . S
C192 H198 0.930 . S
N193 Li176 1.990 . S
N193 C192 1.314 . S
N193 C195 1.279 . S
C194 C195 1.358 . S
C194 C196 1.356 . S
C194 H248 0.930 . S
C195 N193 1.279 . S
C195 C194 1.358 . S
C195 H199 0.930 . S
C196 C194 1.356 . S
C196 C197 1.348 . S
C197 C192 1.353 . S
C197 C196 1.348 . S
C197 H249 0.929 . S
H198 C192 0.930 . S
H199 C195 0.930 . S
C200 N201 1.314 . S
C200 C202 1.353 . S
C200 H206 0.930 . S
N201 Li177 1.990 . S
N201 C200 1.314 . S
N201 C204 1.279 . S
C202 C200 1.353 . S
C202 C205 1.348 . S
C202 H250 0.929 . S
C203 C204 1.358 . S
C203 C205 1.356 . S
C203 H251 0.930 . S
C204 N201 1.279 . S
C204 C203 1.358 . S
C204 H207 0.930 . S
C205 C202 1.348 . S
C205 C203 1.356 . S
H206 C200 0.930 . S
H207 C204 0.930 . S
C208 C210 1.348 . S
C208 C211 1.356 . S
C208 O238 1.325 . S
N209 C212 1.314 . S
N209 C213 1.279 . S
C210 C208 1.348 . S
C210 C212 1.353 . S
C210 H252 0.929 . S
C211 C208 1.356 . S
C211 C213 1.358 . S
C211 H253 0.930 . S
C212 N209 1.314 . S
C212 C210 1.353 . S
C212 H254 0.930 . S
C213 N209 1.279 . S
C213 C211 1.358 . S
C213 H255 0.930 . S
C214 C215 1.348 . S
C214 C216 1.356 . S
C214 O239 1.325 . S
C215 C214 1.348 . S
C215 C217 1.353 . S
C215 H256 0.929 . S
C216 C214 1.356 . S
C216 C218 1.358 . S
C216 H257 0.930 . S
C217 C215 1.353 . S
C217 N219 1.314 . S
C217 H258 0.930 . S
C218 C216 1.358 . S
C218 N219 1.279 . S
C218 H259 0.930 . S
N219 C217 1.314 . S
N219 C218 1.279 . S
C220 C222 1.353 . S
C220 N223 1.314 . S
C220 H226 0.930 . S
C221 N223 1.279 . S
C221 C224 1.358 . S
C221 H227 0.930 . S
C222 C220 1.353 . S
C222 C225 1.348 . S
C222 H260 0.929 . S
N223 Li178 1.990 . S
N223 C220 1.314 . S
N223 C221 1.279 . S
C224 C221 1.358 . S
C224 C225 1.356 . S
C224 H261 0.930 . S
C225 C222 1.348 . S
C225 C224 1.356 . S
H226 C220 0.930 . S
H227 C221 0.930 . S
C228 N229 1.314 . S
C228 C230 1.353 . S
C228 H234 0.930 . S
N229 Li179 1.990 . S
N229 C228 1.314 . S
N229 C232 1.279 . S
C230 C228 1.353 . S
C230 C233 1.348 . S
C230 H262 0.929 . S
C231 C232 1.358 . S
C231 C233 1.356 . S
C231 H263 0.930 . S
C232 N229 1.279 . S
C232 C231 1.358 . S
C232 H235 0.930 . S
C233 C230 1.348 . S
C233 C231 1.356 . S
H234 C228 0.930 . S
H235 C232 0.930 . S
O236 Li176 1.956 . S
O236 Li177 1.970 . S
O236 Li178 1.961 . S
O236 C180 1.325 . S
O237 Li176 1.970 . S
O237 Li177 1.956 . S
O237 Li179 1.961 . S
O237 C186 1.325 . S
O238 Li176 1.961 . S
O238 Li178 1.956 . S
O238 Li179 1.970 . S
O238 C208 1.325 . S
O239 Li177 1.961 . S
O239 Li178 1.970 . S
O239 Li179 1.956 . S
O239 C214 1.325 . S
H240 C182 0.929 . S
H241 C183 0.930 . S
H242 C184 0.930 . S
H243 C185 0.930 . S
H244 C187 0.930 . S
H245 C189 0.929 . S
H246 C190 0.930 . S
H247 C191 0.930 . S
H248 C194 0.930 . S
H249 C197 0.929 . S
H250 C202 0.929 . S
H251 C203 0.930 . S
H252 C210 0.929 . S
H253 C211 0.930 . S
H254 C212 0.930 . S
H255 C213 0.930 . S
H256 C215 0.929 . S
H257 C216 0.930 . S
H258 C217 0.930 . S
H259 C218 0.930 . S
H260 C222 0.929 . S
H261 C224 0.930 . S
H262 C230 0.929 . S
H263 C231 0.930 . S
Li264 N281 1.990 . S
Li264 O324 1.956 . S
Li264 O325 1.970 . S
Li264 O326 1.961 . S
Li265 N289 1.990 . S
Li265 O324 1.970 . S
Li265 O325 1.956 . S
Li265 O327 1.961 . S
Li266 N311 1.990 . S
Li266 O324 1.961 . S
Li266 O326 1.956 . S
Li266 O327 1.970 . S
Li267 N317 1.990 . S
Li267 O325 1.961 . S
Li267 O326 1.970 . S
Li267 O327 1.956 . S
C268 C270 1.348 . S
C268 C271 1.356 . S
C268 O324 1.325 . S
N269 C272 1.314 . S
N269 C273 1.279 . S
C270 C268 1.348 . S
C270 C272 1.353 . S
C270 H328 0.929 . S
C271 C268 1.356 . S
C271 C273 1.358 . S
C271 H329 0.930 . S
C272 N269 1.314 . S
C272 C270 1.353 . S
C272 H330 0.930 . S
C273 N269 1.279 . S
C273 C271 1.358 . S
C273 H331 0.930 . S
C274 C277 1.348 . S
C274 C278 1.356 . S
C274 O325 1.325 . S
C275 N276 1.279 . S
C275 C278 1.358 . S
C275 H332 0.930 . S
N276 C275 1.279 . S
N276 C279 1.314 . S
C277 C274 1.348 . S
C277 C279 1.353 . S
C277 H333 0.929 . S
C278 C274 1.356 . S
C278 C275 1.358 . S
C278 H334 0.930 . S
C279 N276 1.314 . S
C279 C277 1.353 . S
C279 H335 0.930 . S
C280 N281 1.314 . S
C280 C285 1.353 . S
C280 H286 0.930 . S
N281 Li264 1.990 . S
N281 C280 1.314 . S
N281 C283 1.279 . S
C282 C283 1.358 . S
C282 C284 1.356 . S
C282 H336 0.930 . S
C283 N281 1.279 . S
C283 C282 1.358 . S
C283 H287 0.930 . S
C284 C282 1.356 . S
C284 C285 1.348 . S
C285 C280 1.353 . S
C285 C284 1.348 . S
C285 H337 0.929 . S
H286 C280 0.930 . S
H287 C283 0.930 . S
C288 N289 1.314 . S
C288 C290 1.353 . S
C288 H294 0.930 . S
N289 Li265 1.990 . S
N289 C288 1.314 . S
N289 C292 1.279 . S
C290 C288 1.353 . S
C290 C293 1.348 . S
C290 H338 0.929 . S
C291 C292 1.358 . S
C291 C293 1.356 . S
C291 H339 0.930 . S
C292 N289 1.279 . S
C292 C291 1.358 . S
C292 H295 0.930 . S
C293 C290 1.348 . S
C293 C291 1.356 . S
H294 C288 0.930 . S
H295 C292 0.930 . S
C296 C298 1.348 . S
C296 C299 1.356 . S
C296 O326 1.325 . S
N297 C300 1.314 . S
N297 C301 1.279 . S
C298 C296 1.348 . S
C298 C300 1.353 . S
C298 H340 0.929 . S
C299 C296 1.356 . S
C299 C301 1.358 . S
C299 H341 0.930 . S
C300 N297 1.314 . S
C300 C298 1.353 . S
C300 H342 0.930 . S
C301 N297 1.279 . S
C301 C299 1.358 . S
C301 H343 0.930 . S
C302 C303 1.348 . S
C302 C304 1.356 . S
C302 O327 1.325 . S
C303 C302 1.348 . S
C303 C305 1.353 . S
C303 H344 0.929 . S
C304 C302 1.356 . S
C304 C306 1.358 . S
C304 H345 0.930 . S
C305 C303 1.353 . S
C305 N307 1.314 . S
C305 H346 0.930 . S
C306 C304 1.358 . S
C306 N307 1.279 . S
C306 H347 0.930 . S
N307 C305 1.314 . S
N307 C306 1.279 . S
C308 C310 1.353 . S
C308 N311 1.314 . S
C308 H314 0.930 . S
C309 N311 1.279 . S
C309 C312 1.358 . S
C309 H315 0.930 . S
C310 C308 1.353 . S
C310 C313 1.348 . S
C310 H348 0.929 . S
N311 Li266 1.990 . S
N311 C308 1.314 . S
N311 C309 1.279 . S
C312 C309 1.358 . S
C312 C313 1.356 . S
C312 H349 0.930 . S
C313 C310 1.348 . S
C313 C312 1.356 . S
H314 C308 0.930 . S
H315 C309 0.930 . S
C316 N317 1.314 . S
C316 C318 1.353 . S
C316 H322 0.930 . S
N317 Li267 1.990 . S
N317 C316 1.314 . S
N317 C320 1.279 . S
C318 C316 1.353 . S
C318 C321 1.348 . S
C318 H350 0.929 . S
C319 C320 1.358 . S
C319 C321 1.356 . S
C319 H351 0.930 . S
C320 N317 1.279 . S
C320 C319 1.358 . S
C320 H323 0.930 . S
C321 C318 1.348 . S
C321 C319 1.356 . S
H322 C316 0.930 . S
H323 C320 0.930 . S
O324 Li264 1.956 . S
O324 Li265 1.970 . S
O324 Li266 1.961 . S
O324 C268 1.325 . S
O325 Li264 1.970 . S
O325 Li265 1.956 . S
O325 Li267 1.961 . S
O325 C274 1.325 . S
O326 Li264 1.961 . S
O326 Li266 1.956 . S
O326 Li267 1.970 . S
O326 C296 1.325 . S
O327 Li265 1.961 . S
O327 Li266 1.970 . S
O327 Li267 1.956 . S
O327 C302 1.325 . S
H328 C270 0.929 . S
H329 C271 0.930 . S
H330 C272 0.930 . S
H331 C273 0.930 . S
H332 C275 0.930 . S
H333 C277 0.929 . S
H334 C278 0.930 . S
H335 C279 0.930 . S
H336 C282 0.930 . S
H337 C285 0.929 . S
H338 C290 0.929 . S
H339 C291 0.930 . S
H340 C298 0.929 . S
H341 C299 0.930 . S
H342 C300 0.930 . S
H343 C301 0.930 . S
H344 C303 0.929 . S
H345 C304 0.930 . S
H346 C305 0.930 . S
H347 C306 0.930 . S
H348 C310 0.929 . S
H349 C312 0.930 . S
H350 C318 0.929 . S
H351 C319 0.930 . S
Li352 N369 1.990 . S
Li352 O412 1.956 . S
Li352 O413 1.970 . S
Li352 O414 1.961 . S
Li353 N377 1.990 . S
Li353 O412 1.970 . S
Li353 O413 1.956 . S
Li353 O415 1.961 . S
Li354 N399 1.990 . S
Li354 O412 1.961 . S
Li354 O414 1.956 . S
Li354 O415 1.970 . S
Li355 N405 1.990 . S
Li355 O413 1.961 . S
Li355 O414 1.970 . S
Li355 O415 1.956 . S
C356 C358 1.348 . S
C356 C359 1.356 . S
C356 O412 1.325 . S
N357 C360 1.314 . S
N357 C361 1.279 . S
C358 C356 1.348 . S
C358 C360 1.353 . S
C358 H416 0.929 . S
C359 C356 1.356 . S
C359 C361 1.358 . S
C359 H417 0.930 . S
C360 N357 1.314 . S
C360 C358 1.353 . S
C360 H418 0.930 . S
C361 N357 1.279 . S
C361 C359 1.358 . S
C361 H419 0.930 . S
C362 C365 1.348 . S
C362 C366 1.356 . S
C362 O413 1.325 . S
C363 N364 1.279 . S
C363 C366 1.358 . S
C363 H420 0.930 . S
N364 C363 1.279 . S
N364 C367 1.314 . S
C365 C362 1.348 . S
C365 C367 1.353 . S
C365 H421 0.929 . S
C366 C362 1.356 . S
C366 C363 1.358 . S
C366 H422 0.930 . S
C367 N364 1.314 . S
C367 C365 1.353 . S
C367 H423 0.930 . S
C368 N369 1.314 . S
C368 C373 1.353 . S
C368 H374 0.930 . S
N369 Li352 1.990 . S
N369 C368 1.314 . S
N369 C371 1.279 . S
C370 C371 1.358 . S
C370 C372 1.356 . S
C370 H424 0.930 . S
C371 N369 1.279 . S
C371 C370 1.358 . S
C371 H375 0.930 . S
C372 C370 1.356 . S
C372 C373 1.348 . S
C373 C368 1.353 . S
C373 C372 1.348 . S
C373 H425 0.929 . S
H374 C368 0.930 . S
H375 C371 0.930 . S
C376 N377 1.314 . S
C376 C378 1.353 . S
C376 H382 0.930 . S
N377 Li353 1.990 . S
N377 C376 1.314 . S
N377 C380 1.279 . S
C378 C376 1.353 . S
C378 C381 1.348 . S
C378 H426 0.929 . S
C379 C380 1.358 . S
C379 C381 1.356 . S
C379 H427 0.930 . S
C380 N377 1.279 . S
C380 C379 1.358 . S
C380 H383 0.930 . S
C381 C378 1.348 . S
C381 C379 1.356 . S
H382 C376 0.930 . S
H383 C380 0.930 . S
C384 C386 1.348 . S
C384 C387 1.356 . S
C384 O414 1.325 . S
N385 C388 1.314 . S
N385 C389 1.279 . S
C386 C384 1.348 . S
C386 C388 1.353 . S
C386 H428 0.929 . S
C387 C384 1.356 . S
C387 C389 1.358 . S
C387 H429 0.930 . S
C388 N385 1.314 . S
C388 C386 1.353 . S
C388 H430 0.930 . S
C389 N385 1.279 . S
C389 C387 1.358 . S
C389 H431 0.930 . S
C390 C391 1.348 . S
C390 C392 1.356 . S
C390 O415 1.325 . S
C391 C390 1.348 . S
C391 C393 1.353 . S
C391 H432 0.929 . S
C392 C390 1.356 . S
C392 C394 1.358 . S
C392 H433 0.930 . S
C393 C391 1.353 . S
C393 N395 1.314 . S
C393 H434 0.930 . S
C394 C392 1.358 . S
C394 N395 1.279 . S
C394 H435 0.930 . S
N395 C393 1.314 . S
N395 C394 1.279 . S
C396 C398 1.353 . S
C396 N399 1.314 . S
C396 H402 0.930 . S
C397 N399 1.279 . S
C397 C400 1.358 . S
C397 H403 0.930 . S
C398 C396 1.353 . S
C398 C401 1.348 . S
C398 H436 0.929 . S
N399 Li354 1.990 . S
N399 C396 1.314 . S
N399 C397 1.279 . S
C400 C397 1.358 . S
C400 C401 1.356 . S
C400 H437 0.930 . S
C401 C398 1.348 . S
C401 C400 1.356 . S
H402 C396 0.930 . S
H403 C397 0.930 . S
C404 N405 1.314 . S
C404 C406 1.353 . S
C404 H410 0.930 . S
N405 Li355 1.990 . S
N405 C404 1.314 . S
N405 C408 1.279 . S
C406 C404 1.353 . S
C406 C409 1.348 . S
C406 H438 0.929 . S
C407 C408 1.358 . S
C407 C409 1.356 . S
C407 H439 0.930 . S
C408 N405 1.279 . S
C408 C407 1.358 . S
C408 H411 0.930 . S
C409 C406 1.348 . S
C409 C407 1.356 . S
H410 C404 0.930 . S
H411 C408 0.930 . S
O412 Li352 1.956 . S
O412 Li353 1.970 . S
O412 Li354 1.961 . S
O412 C356 1.325 . S
O413 Li352 1.970 . S
O413 Li353 1.956 . S
O413 Li355 1.961 . S
O413 C362 1.325 . S
O414 Li352 1.961 . S
O414 Li354 1.956 . S
O414 Li355 1.970 . S
O414 C384 1.325 . S
O415 Li353 1.961 . S
O415 Li354 1.970 . S
O415 Li355 1.956 . S
O415 C390 1.325 . S
H416 C358 0.929 . S
H417 C359 0.930 . S
H418 C360 0.930 . S
H419 C361 0.930 . S
H420 C363 0.930 . S
H421 C365 0.929 . S
H422 C366 0.930 . S
H423 C367 0.930 . S
H424 C370 0.930 . S
H425 C373 0.929 . S
H426 C378 0.929 . S
H427 C379 0.930 . S
H428 C386 0.929 . S
H429 C387 0.930 . S
H430 C388 0.930 . S
H431 C389 0.930 . S
H432 C391 0.929 . S
H433 C392 0.930 . S
H434 C393 0.930 . S
H435 C394 0.930 . S
H436 C398 0.929 . S
H437 C400 0.930 . S
H438 C406 0.929 . S
H439 C407 0.930 . S
Li440 N457 1.990 . S
Li440 O500 1.956 . S
Li440 O501 1.970 . S
Li440 O502 1.961 . S
Li441 N465 1.990 . S
Li441 O500 1.970 . S
Li441 O501 1.956 . S
Li441 O503 1.961 . S
Li442 N487 1.990 . S
Li442 O500 1.961 . S
Li442 O502 1.956 . S
Li442 O503 1.970 . S
Li443 N493 1.990 . S
Li443 O501 1.961 . S
Li443 O502 1.970 . S
Li443 O503 1.956 . S
C444 C446 1.348 . S
C444 C447 1.356 . S
C444 O500 1.325 . S
N445 C448 1.314 . S
N445 C449 1.279 . S
C446 C444 1.348 . S
C446 C448 1.353 . S
C446 H504 0.929 . S
C447 C444 1.356 . S
C447 C449 1.358 . S
C447 H505 0.930 . S
C448 N445 1.314 . S
C448 C446 1.353 . S
C448 H506 0.930 . S
C449 N445 1.279 . S
C449 C447 1.358 . S
C449 H507 0.930 . S
C450 C453 1.348 . S
C450 C454 1.356 . S
C450 O501 1.325 . S
C451 N452 1.279 . S
C451 C454 1.358 . S
C451 H508 0.930 . S
N452 C451 1.279 . S
N452 C455 1.314 . S
C453 C450 1.348 . S
C453 C455 1.353 . S
C453 H509 0.929 . S
C454 C450 1.356 . S
C454 C451 1.358 . S
C454 H510 0.930 . S
C455 N452 1.314 . S
C455 C453 1.353 . S
C455 H511 0.930 . S
C456 N457 1.314 . S
C456 C461 1.353 . S
C456 H462 0.930 . S
N457 Li440 1.990 . S
N457 C456 1.314 . S
N457 C459 1.279 . S
C458 C459 1.358 . S
C458 C460 1.356 . S
C458 H512 0.930 . S
C459 N457 1.279 . S
C459 C458 1.358 . S
C459 H463 0.930 . S
C460 C458 1.356 . S
C460 C461 1.348 . S
C461 C456 1.353 . S
C461 C460 1.348 . S
C461 H513 0.929 . S
H462 C456 0.930 . S
H463 C459 0.930 . S
C464 N465 1.314 . S
C464 C466 1.353 . S
C464 H470 0.930 . S
N465 Li441 1.990 . S
N465 C464 1.314 . S
N465 C468 1.279 . S
C466 C464 1.353 . S
C466 C469 1.348 . S
C466 H514 0.929 . S
C467 C468 1.358 . S
C467 C469 1.356 . S
C467 H515 0.930 . S
C468 N465 1.279 . S
C468 C467 1.358 . S
C468 H471 0.930 . S
C469 C466 1.348 . S
C469 C467 1.356 . S
H470 C464 0.930 . S
H471 C468 0.930 . S
C472 C474 1.348 . S
C472 C475 1.356 . S
C472 O502 1.325 . S
N473 C476 1.314 . S
N473 C477 1.279 . S
C474 C472 1.348 . S
C474 C476 1.353 . S
C474 H516 0.929 . S
C475 C472 1.356 . S
C475 C477 1.358 . S
C475 H517 0.930 . S
C476 N473 1.314 . S
C476 C474 1.353 . S
C476 H518 0.930 . S
C477 N473 1.279 . S
C477 C475 1.358 . S
C477 H519 0.930 . S
C478 C479 1.348 . S
C478 C480 1.356 . S
C478 O503 1.325 . S
C479 C478 1.348 . S
C479 C481 1.353 . S
C479 H520 0.929 . S
C480 C478 1.356 . S
C480 C482 1.358 . S
C480 H521 0.930 . S
C481 C479 1.353 . S
C481 N483 1.314 . S
C481 H522 0.930 . S
C482 C480 1.358 . S
C482 N483 1.279 . S
C482 H523 0.930 . S
N483 C481 1.314 . S
N483 C482 1.279 . S
C484 C486 1.353 . S
C484 N487 1.314 . S
C484 H490 0.930 . S
C485 N487 1.279 . S
C485 C488 1.358 . S
C485 H491 0.930 . S
C486 C484 1.353 . S
C486 C489 1.348 . S
C486 H524 0.929 . S
N487 Li442 1.990 . S
N487 C484 1.314 . S
N487 C485 1.279 . S
C488 C485 1.358 . S
C488 C489 1.356 . S
C488 H525 0.930 . S
C489 C486 1.348 . S
C489 C488 1.356 . S
H490 C484 0.930 . S
H491 C485 0.930 . S
C492 N493 1.314 . S
C492 C494 1.353 . S
C492 H498 0.930 . S
N493 Li443 1.990 . S
N493 C492 1.314 . S
N493 C496 1.279 . S
C494 C492 1.353 . S
C494 C497 1.348 . S
C494 H526 0.929 . S
C495 C496 1.358 . S
C495 C497 1.356 . S
C495 H527 0.930 . S
C496 N493 1.279 . S
C496 C495 1.358 . S
C496 H499 0.930 . S
C497 C494 1.348 . S
C497 C495 1.356 . S
H498 C492 0.930 . S
H499 C496 0.930 . S
O500 Li440 1.956 . S
O500 Li441 1.970 . S
O500 Li442 1.961 . S
O500 C444 1.325 . S
O501 Li440 1.970 . S
O501 Li441 1.956 . S
O501 Li443 1.961 . S
O501 C450 1.325 . S
O502 Li440 1.961 . S
O502 Li442 1.956 . S
O502 Li443 1.970 . S
O502 C472 1.325 . S
O503 Li441 1.961 . S
O503 Li442 1.970 . S
O503 Li443 1.956 . S
O503 C478 1.325 . S
H504 C446 0.929 . S
H505 C447 0.930 . S
H506 C448 0.930 . S
H507 C449 0.930 . S
H508 C451 0.930 . S
H509 C453 0.929 . S
H510 C454 0.930 . S
H511 C455 0.930 . S
H512 C458 0.930 . S
H513 C461 0.929 . S
H514 C466 0.929 . S
H515 C467 0.930 . S
H516 C474 0.929 . S
H517 C475 0.930 . S
H518 C476 0.930 . S
H519 C477 0.930 . S
H520 C479 0.929 . S
H521 C480 0.930 . S
H522 C481 0.930 . S
H523 C482 0.930 . S
H524 C486 0.929 . S
H525 C488 0.930 . S
H526 C494 0.929 . S
H527 C495 0.930 . S
Li528 N545 1.990 . S
Li528 O588 1.956 . S
Li528 O589 1.970 . S
Li528 O590 1.961 . S
Li529 N553 1.990 . S
Li529 O588 1.970 . S
Li529 O589 1.956 . S
Li529 O591 1.961 . S
Li530 N575 1.990 . S
Li530 O588 1.961 . S
Li530 O590 1.956 . S
Li530 O591 1.970 . S
Li531 N581 1.990 . S
Li531 O589 1.961 . S
Li531 O590 1.970 . S
Li531 O591 1.956 . S
C532 C534 1.348 . S
C532 C535 1.356 . S
C532 O588 1.325 . S
N533 C536 1.314 . S
N533 C537 1.279 . S
C534 C532 1.348 . S
C534 C536 1.353 . S
C534 H592 0.929 . S
C535 C532 1.356 . S
C535 C537 1.358 . S
C535 H593 0.930 . S
C536 N533 1.314 . S
C536 C534 1.353 . S
C536 H594 0.930 . S
C537 N533 1.279 . S
C537 C535 1.358 . S
C537 H595 0.930 . S
C538 C541 1.348 . S
C538 C542 1.356 . S
C538 O589 1.325 . S
C539 N540 1.279 . S
C539 C542 1.358 . S
C539 H596 0.930 . S
N540 C539 1.279 . S
N540 C543 1.314 . S
C541 C538 1.348 . S
C541 C543 1.353 . S
C541 H597 0.929 . S
C542 C538 1.356 . S
C542 C539 1.358 . S
C542 H598 0.930 . S
C543 N540 1.314 . S
C543 C541 1.353 . S
C543 H599 0.930 . S
C544 N545 1.314 . S
C544 C549 1.353 . S
C544 H550 0.930 . S
N545 Li528 1.990 . S
N545 C544 1.314 . S
N545 C547 1.279 . S
C546 C547 1.358 . S
C546 C548 1.356 . S
C546 H600 0.930 . S
C547 N545 1.279 . S
C547 C546 1.358 . S
C547 H551 0.930 . S
C548 C546 1.356 . S
C548 C549 1.348 . S
C549 C544 1.353 . S
C549 C548 1.348 . S
C549 H601 0.929 . S
H550 C544 0.930 . S
H551 C547 0.930 . S
C552 N553 1.314 . S
C552 C554 1.353 . S
C552 H558 0.930 . S
N553 Li529 1.990 . S
N553 C552 1.314 . S
N553 C556 1.279 . S
C554 C552 1.353 . S
C554 C557 1.348 . S
C554 H602 0.929 . S
C555 C556 1.358 . S
C555 C557 1.356 . S
C555 H603 0.930 . S
C556 N553 1.279 . S
C556 C555 1.358 . S
C556 H559 0.930 . S
C557 C554 1.348 . S
C557 C555 1.356 . S
H558 C552 0.930 . S
H559 C556 0.930 . S
C560 C562 1.348 . S
C560 C563 1.356 . S
C560 O590 1.325 . S
N561 C564 1.314 . S
N561 C565 1.279 . S
C562 C560 1.348 . S
C562 C564 1.353 . S
C562 H604 0.929 . S
C563 C560 1.356 . S
C563 C565 1.358 . S
C563 H605 0.930 . S
C564 N561 1.314 . S
C564 C562 1.353 . S
C564 H606 0.930 . S
C565 N561 1.279 . S
C565 C563 1.358 . S
C565 H607 0.930 . S
C566 C567 1.348 . S
C566 C568 1.356 . S
C566 O591 1.325 . S
C567 C566 1.348 . S
C567 C569 1.353 . S
C567 H608 0.929 . S
C568 C566 1.356 . S
C568 C570 1.358 . S
C568 H609 0.930 . S
C569 C567 1.353 . S
C569 N571 1.314 . S
C569 H610 0.930 . S
C570 C568 1.358 . S
C570 N571 1.279 . S
C570 H611 0.930 . S
N571 C569 1.314 . S
N571 C570 1.279 . S
C572 C574 1.353 . S
C572 N575 1.314 . S
C572 H578 0.930 . S
C573 N575 1.279 . S
C573 C576 1.358 . S
C573 H579 0.930 . S
C574 C572 1.353 . S
C574 C577 1.348 . S
C574 H612 0.929 . S
N575 Li530 1.990 . S
N575 C572 1.314 . S
N575 C573 1.279 . S
C576 C573 1.358 . S
C576 C577 1.356 . S
C576 H613 0.930 . S
C577 C574 1.348 . S
C577 C576 1.356 . S
H578 C572 0.930 . S
H579 C573 0.930 . S
C580 N581 1.314 . S
C580 C582 1.353 . S
C580 H586 0.930 . S
N581 Li531 1.990 . S
N581 C580 1.314 . S
N581 C584 1.279 . S
C582 C580 1.353 . S
C582 C585 1.348 . S
C582 H614 0.929 . S
C583 C584 1.358 . S
C583 C585 1.356 . S
C583 H615 0.930 . S
C584 N581 1.279 . S
C584 C583 1.358 . S
C584 H587 0.930 . S
C585 C582 1.348 . S
C585 C583 1.356 . S
H586 C580 0.930 . S
H587 C584 0.930 . S
O588 Li528 1.956 . S
O588 Li529 1.970 . S
O588 Li530 1.961 . S
O588 C532 1.325 . S
O589 Li528 1.970 . S
O589 Li529 1.956 . S
O589 Li531 1.961 . S
O589 C538 1.325 . S
O590 Li528 1.961 . S
O590 Li530 1.956 . S
O590 Li531 1.970 . S
O590 C560 1.325 . S
O591 Li529 1.961 . S
O591 Li530 1.970 . S
O591 Li531 1.956 . S
O591 C566 1.325 . S
H592 C534 0.929 . S
H593 C535 0.930 . S
H594 C536 0.930 . S
H595 C537 0.930 . S
H596 C539 0.930 . S
H597 C541 0.929 . S
H598 C542 0.930 . S
H599 C543 0.930 . S
H600 C546 0.930 . S
H601 C549 0.929 . S
H602 C554 0.929 . S
H603 C555 0.930 . S
H604 C562 0.929 . S
H605 C563 0.930 . S
H606 C564 0.930 . S
H607 C565 0.930 . S
H608 C567 0.929 . S
H609 C568 0.930 . S
H610 C569 0.930 . S
H611 C570 0.930 . S
H612 C574 0.929 . S
H613 C576 0.930 . S
H614 C582 0.929 . S
H615 C583 0.930 . S
Li616 N633 1.990 . S
Li616 O676 1.956 . S
Li616 O677 1.970 . S
Li616 O678 1.961 . S
Li617 N641 1.990 . S
Li617 O676 1.970 . S
Li617 O677 1.956 . S
Li617 O679 1.961 . S
Li618 N663 1.990 . S
Li618 O676 1.961 . S
Li618 O678 1.956 . S
Li618 O679 1.970 . S
Li619 N669 1.990 . S
Li619 O677 1.961 . S
Li619 O678 1.970 . S
Li619 O679 1.956 . S
C620 C622 1.348 . S
C620 C623 1.356 . S
C620 O676 1.325 . S
N621 C624 1.314 . S
N621 C625 1.279 . S
C622 C620 1.348 . S
C622 C624 1.353 . S
C622 H680 0.929 . S
C623 C620 1.356 . S
C623 C625 1.358 . S
C623 H681 0.930 . S
C624 N621 1.314 . S
C624 C622 1.353 . S
C624 H682 0.930 . S
C625 N621 1.279 . S
C625 C623 1.358 . S
C625 H683 0.930 . S
C626 C629 1.348 . S
C626 C630 1.356 . S
C626 O677 1.325 . S
C627 N628 1.279 . S
C627 C630 1.358 . S
C627 H684 0.930 . S
N628 C627 1.279 . S
N628 C631 1.314 . S
C629 C626 1.348 . S
C629 C631 1.353 . S
C629 H685 0.929 . S
C630 C626 1.356 . S
C630 C627 1.358 . S
C630 H686 0.930 . S
C631 N628 1.314 . S
C631 C629 1.353 . S
C631 H687 0.930 . S
C632 N633 1.314 . S
C632 C637 1.353 . S
C632 H638 0.930 . S
N633 Li616 1.990 . S
N633 C632 1.314 . S
N633 C635 1.279 . S
C634 C635 1.358 . S
C634 C636 1.356 . S
C634 H688 0.930 . S
C635 N633 1.279 . S
C635 C634 1.358 . S
C635 H639 0.930 . S
C636 C634 1.356 . S
C636 C637 1.348 . S
C637 C632 1.353 . S
C637 C636 1.348 . S
C637 H689 0.929 . S
H638 C632 0.930 . S
H639 C635 0.930 . S
C640 N641 1.314 . S
C640 C642 1.353 . S
C640 H646 0.930 . S
N641 Li617 1.990 . S
N641 C640 1.314 . S
N641 C644 1.279 . S
C642 C640 1.353 . S
C642 C645 1.348 . S
C642 H690 0.929 . S
C643 C644 1.358 . S
C643 C645 1.356 . S
C643 H691 0.930 . S
C644 N641 1.279 . S
C644 C643 1.358 . S
C644 H647 0.930 . S
C645 C642 1.348 . S
C645 C643 1.356 . S
H646 C640 0.930 . S
H647 C644 0.930 . S
C648 C650 1.348 . S
C648 C651 1.356 . S
C648 O678 1.325 . S
N649 C652 1.314 . S
N649 C653 1.279 . S
C650 C648 1.348 . S
C650 C652 1.353 . S
C650 H692 0.929 . S
C651 C648 1.356 . S
C651 C653 1.358 . S
C651 H693 0.930 . S
C652 N649 1.314 . S
C652 C650 1.353 . S
C652 H694 0.930 . S
C653 N649 1.279 . S
C653 C651 1.358 . S
C653 H695 0.930 . S
C654 C655 1.348 . S
C654 C656 1.356 . S
C654 O679 1.325 . S
C655 C654 1.348 . S
C655 C657 1.353 . S
C655 H696 0.929 . S
C656 C654 1.356 . S
C656 C658 1.358 . S
C656 H697 0.930 . S
C657 C655 1.353 . S
C657 N659 1.314 . S
C657 H698 0.930 . S
C658 C656 1.358 . S
C658 N659 1.279 . S
C658 H699 0.930 . S
N659 C657 1.314 . S
N659 C658 1.279 . S
C660 C662 1.353 . S
C660 N663 1.314 . S
C660 H666 0.930 . S
C661 N663 1.279 . S
C661 C664 1.358 . S
C661 H667 0.930 . S
C662 C660 1.353 . S
C662 C665 1.348 . S
C662 H700 0.929 . S
N663 Li618 1.990 . S
N663 C660 1.314 . S
N663 C661 1.279 . S
C664 C661 1.358 . S
C664 C665 1.356 . S
C664 H701 0.930 . S
C665 C662 1.348 . S
C665 C664 1.356 . S
H666 C660 0.930 . S
H667 C661 0.930 . S
C668 N669 1.314 . S
C668 C670 1.353 . S
C668 H674 0.930 . S
N669 Li619 1.990 . S
N669 C668 1.314 . S
N669 C672 1.279 . S
C670 C668 1.353 . S
C670 C673 1.348 . S
C670 H702 0.929 . S
C671 C672 1.358 . S
C671 C673 1.356 . S
C671 H703 0.930 . S
C672 N669 1.279 . S
C672 C671 1.358 . S
C672 H675 0.930 . S
C673 C670 1.348 . S
C673 C671 1.356 . S
H674 C668 0.930 . S
H675 C672 0.930 . S
O676 Li616 1.956 . S
O676 Li617 1.970 . S
O676 Li618 1.961 . S
O676 C620 1.325 . S
O677 Li616 1.970 . S
O677 Li617 1.956 . S
O677 Li619 1.961 . S
O677 C626 1.325 . S
O678 Li616 1.961 . S
O678 Li618 1.956 . S
O678 Li619 1.970 . S
O678 C648 1.325 . S
O679 Li617 1.961 . S
O679 Li618 1.970 . S
O679 Li619 1.956 . S
O679 C654 1.325 . S
H680 C622 0.929 . S
H681 C623 0.930 . S
H682 C624 0.930 . S
H683 C625 0.930 . S
H684 C627 0.930 . S
H685 C629 0.929 . S
H686 C630 0.930 . S
H687 C631 0.930 . S
H688 C634 0.930 . S
H689 C637 0.929 . S
H690 C642 0.929 . S
H691 C643 0.930 . S
H692 C650 0.929 . S
H693 C651 0.930 . S
H694 C652 0.930 . S
H695 C653 0.930 . S
H696 C655 0.929 . S
H697 C656 0.930 . S
H698 C657 0.930 . S
H699 C658 0.930 . S
H700 C662 0.929 . S
H701 C664 0.930 . S
H702 C670 0.929 . S
H703 C671 0.930 . S
Li704 N721 1.990 . S
Li704 O764 1.956 . S
Li704 O765 1.970 . S
Li704 O766 1.961 . S
Li705 N729 1.990 . S
Li705 O764 1.970 . S
Li705 O765 1.956 . S
Li705 O767 1.961 . S
Li706 N751 1.990 . S
Li706 O764 1.961 . S
Li706 O766 1.956 . S
Li706 O767 1.970 . S
Li707 N757 1.990 . S
Li707 O765 1.961 . S
Li707 O766 1.970 . S
Li707 O767 1.956 . S
C708 C710 1.348 . S
C708 C711 1.356 . S
C708 O764 1.325 . S
N709 C712 1.314 . S
N709 C713 1.279 . S
C710 C708 1.348 . S
C710 C712 1.353 . S
C710 H768 0.929 . S
C711 C708 1.356 . S
C711 C713 1.358 . S
C711 H769 0.930 . S
C712 N709 1.314 . S
C712 C710 1.353 . S
C712 H770 0.930 . S
C713 N709 1.279 . S
C713 C711 1.358 . S
C713 H771 0.930 . S
C714 C717 1.348 . S
C714 C718 1.356 . S
C714 O765 1.325 . S
C715 N716 1.279 . S
C715 C718 1.358 . S
C715 H772 0.930 . S
N716 C715 1.279 . S
N716 C719 1.314 . S
C717 C714 1.348 . S
C717 C719 1.353 . S
C717 H773 0.929 . S
C718 C714 1.356 . S
C718 C715 1.358 . S
C718 H774 0.930 . S
C719 N716 1.314 . S
C719 C717 1.353 . S
C719 H775 0.930 . S
C720 N721 1.314 . S
C720 C725 1.353 . S
C720 H726 0.930 . S
N721 Li704 1.990 . S
N721 C720 1.314 . S
N721 C723 1.279 . S
C722 C723 1.358 . S
C722 C724 1.356 . S
C722 H776 0.930 . S
C723 N721 1.279 . S
C723 C722 1.358 . S
C723 H727 0.930 . S
C724 C722 1.356 . S
C724 C725 1.348 . S
C725 C720 1.353 . S
C725 C724 1.348 . S
C725 H777 0.929 . S
H726 C720 0.930 . S
H727 C723 0.930 . S
C728 N729 1.314 . S
C728 C730 1.353 . S
C728 H734 0.930 . S
N729 Li705 1.990 . S
N729 C728 1.314 . S
N729 C732 1.279 . S
C730 C728 1.353 . S
C730 C733 1.348 . S
C730 H778 0.929 . S
C731 C732 1.358 . S
C731 C733 1.356 . S
C731 H779 0.930 . S
C732 N729 1.279 . S
C732 C731 1.358 . S
C732 H735 0.930 . S
C733 C730 1.348 . S
C733 C731 1.356 . S
H734 C728 0.930 . S
H735 C732 0.930 . S
C736 C738 1.348 . S
C736 C739 1.356 . S
C736 O766 1.325 . S
N737 C740 1.314 . S
N737 C741 1.279 . S
C738 C736 1.348 . S
C738 C740 1.353 . S
C738 H780 0.929 . S
C739 C736 1.356 . S
C739 C741 1.358 . S
C739 H781 0.930 . S
C740 N737 1.314 . S
C740 C738 1.353 . S
C740 H782 0.930 . S
C741 N737 1.279 . S
C741 C739 1.358 . S
C741 H783 0.930 . S
C742 C743 1.348 . S
C742 C744 1.356 . S
C742 O767 1.325 . S
C743 C742 1.348 . S
C743 C745 1.353 . S
C743 H784 0.929 . S
C744 C742 1.356 . S
C744 C746 1.358 . S
C744 H785 0.930 . S
C745 C743 1.353 . S
C745 N747 1.314 . S
C745 H786 0.930 . S
C746 C744 1.358 . S
C746 N747 1.279 . S
C746 H787 0.930 . S
N747 C745 1.314 . S
N747 C746 1.279 . S
C748 C750 1.353 . S
C748 N751 1.314 . S
C748 H754 0.930 . S
C749 N751 1.279 . S
C749 C752 1.358 . S
C749 H755 0.930 . S
C750 C748 1.353 . S
C750 C753 1.348 . S
C750 H788 0.929 . S
N751 Li706 1.990 . S
N751 C748 1.314 . S
N751 C749 1.279 . S
C752 C749 1.358 . S
C752 C753 1.356 . S
C752 H789 0.930 . S
C753 C750 1.348 . S
C753 C752 1.356 . S
H754 C748 0.930 . S
H755 C749 0.930 . S
C756 N757 1.314 . S
C756 C758 1.353 . S
C756 H762 0.930 . S
N757 Li707 1.990 . S
N757 C756 1.314 . S
N757 C760 1.279 . S
C758 C756 1.353 . S
C758 C761 1.348 . S
C758 H790 0.929 . S
C759 C760 1.358 . S
C759 C761 1.356 . S
C759 H791 0.930 . S
C760 N757 1.279 . S
C760 C759 1.358 . S
C760 H763 0.930 . S
C761 C758 1.348 . S
C761 C759 1.356 . S
H762 C756 0.930 . S
H763 C760 0.930 . S
O764 Li704 1.956 . S
O764 Li705 1.970 . S
O764 Li706 1.961 . S
O764 C708 1.325 . S
O765 Li704 1.970 . S
O765 Li705 1.956 . S
O765 Li707 1.961 . S
O765 C714 1.325 . S
O766 Li704 1.961 . S
O766 Li706 1.956 . S
O766 Li707 1.970 . S
O766 C736 1.325 . S
O767 Li705 1.961 . S
O767 Li706 1.970 . S
O767 Li707 1.956 . S
O767 C742 1.325 . S
H768 C710 0.929 . S
H769 C711 0.930 . S
H770 C712 0.930 . S
H771 C713 0.930 . S
H772 C715 0.930 . S
H773 C717 0.929 . S
H774 C718 0.930 . S
H775 C719 0.930 . S
H776 C722 0.930 . S
H777 C725 0.929 . S
H778 C730 0.929 . S
H779 C731 0.930 . S
H780 C738 0.929 . S
H781 C739 0.930 . S
H782 C740 0.930 . S
H783 C741 0.930 . S
H784 C743 0.929 . S
H785 C744 0.930 . S
H786 C745 0.930 . S
H787 C746 0.930 . S
H788 C750 0.929 . S
H789 C752 0.930 . S
H790 C758 0.929 . S
H791 C759 0.930 . S
Li792 N809 1.990 . S
Li792 O852 1.956 . S
Li792 O853 1.970 . S
Li792 O854 1.961 . S
Li793 N817 1.990 . S
Li793 O852 1.970 . S
Li793 O853 1.956 . S
Li793 O855 1.961 . S
Li794 N839 1.990 . S
Li794 O852 1.961 . S
Li794 O854 1.956 . S
Li794 O855 1.970 . S
Li795 N845 1.990 . S
Li795 O853 1.961 . S
Li795 O854 1.970 . S
Li795 O855 1.956 . S
C796 C798 1.348 . S
C796 C799 1.356 . S
C796 O852 1.325 . S
N797 C800 1.314 . S
N797 C801 1.279 . S
C798 C796 1.348 . S
C798 C800 1.353 . S
C798 H856 0.929 . S
C799 C796 1.356 . S
C799 C801 1.358 . S
C799 H857 0.930 . S
C800 N797 1.314 . S
C800 C798 1.353 . S
C800 H858 0.930 . S
C801 N797 1.279 . S
C801 C799 1.358 . S
C801 H859 0.930 . S
C802 C805 1.348 . S
C802 C806 1.356 . S
C802 O853 1.325 . S
C803 N804 1.279 . S
C803 C806 1.358 . S
C803 H860 0.930 . S
N804 C803 1.279 . S
N804 C807 1.314 . S
C805 C802 1.348 . S
C805 C807 1.353 . S
C805 H861 0.929 . S
C806 C802 1.356 . S
C806 C803 1.358 . S
C806 H862 0.930 . S
C807 N804 1.314 . S
C807 C805 1.353 . S
C807 H863 0.930 . S
C808 N809 1.314 . S
C808 C813 1.353 . S
C808 H814 0.930 . S
N809 Li792 1.990 . S
N809 C808 1.314 . S
N809 C811 1.279 . S
C810 C811 1.358 . S
C810 C812 1.356 . S
C810 H864 0.930 . S
C811 N809 1.279 . S
C811 C810 1.358 . S
C811 H815 0.930 . S
C812 C810 1.356 . S
C812 C813 1.348 . S
C813 C808 1.353 . S
C813 C812 1.348 . S
C813 H865 0.929 . S
H814 C808 0.930 . S
H815 C811 0.930 . S
C816 N817 1.314 . S
C816 C818 1.353 . S
C816 H822 0.930 . S
N817 Li793 1.990 . S
N817 C816 1.314 . S
N817 C820 1.279 . S
C818 C816 1.353 . S
C818 C821 1.348 . S
C818 H866 0.929 . S
C819 C820 1.358 . S
C819 C821 1.356 . S
C819 H867 0.930 . S
C820 N817 1.279 . S
C820 C819 1.358 . S
C820 H823 0.930 . S
C821 C818 1.348 . S
C821 C819 1.356 . S
H822 C816 0.930 . S
H823 C820 0.930 . S
C824 C826 1.348 . S
C824 C827 1.356 . S
C824 O854 1.325 . S
N825 C828 1.314 . S
N825 C829 1.279 . S
C826 C824 1.348 . S
C826 C828 1.353 . S
C826 H868 0.929 . S
C827 C824 1.356 . S
C827 C829 1.358 . S
C827 H869 0.930 . S
C828 N825 1.314 . S
C828 C826 1.353 . S
C828 H870 0.930 . S
C829 N825 1.279 . S
C829 C827 1.358 . S
C829 H871 0.930 . S
C830 C831 1.348 . S
C830 C832 1.356 . S
C830 O855 1.325 . S
C831 C830 1.348 . S
C831 C833 1.353 . S
C831 H872 0.929 . S
C832 C830 1.356 . S
C832 C834 1.358 . S
C832 H873 0.930 . S
C833 C831 1.353 . S
C833 N835 1.314 . S
C833 H874 0.930 . S
C834 C832 1.358 . S
C834 N835 1.279 . S
C834 H875 0.930 . S
N835 C833 1.314 . S
N835 C834 1.279 . S
C836 C838 1.353 . S
C836 N839 1.314 . S
C836 H842 0.930 . S
C837 N839 1.279 . S
C837 C840 1.358 . S
C837 H843 0.930 . S
C838 C836 1.353 . S
C838 C841 1.348 . S
C838 H876 0.929 . S
N839 Li794 1.990 . S
N839 C836 1.314 . S
N839 C837 1.279 . S
C840 C837 1.358 . S
C840 C841 1.356 . S
C840 H877 0.930 . S
C841 C838 1.348 . S
C841 C840 1.356 . S
H842 C836 0.930 . S
H843 C837 0.930 . S
C844 N845 1.314 . S
C844 C846 1.353 . S
C844 H850 0.930 . S
N845 Li795 1.990 . S
N845 C844 1.314 . S
N845 C848 1.279 . S
C846 C844 1.353 . S
C846 C849 1.348 . S
C846 H878 0.929 . S
C847 C848 1.358 . S
C847 C849 1.356 . S
C847 H879 0.930 . S
C848 N845 1.279 . S
C848 C847 1.358 . S
C848 H851 0.930 . S
C849 C846 1.348 . S
C849 C847 1.356 . S
H850 C844 0.930 . S
H851 C848 0.930 . S
O852 Li792 1.956 . S
O852 Li793 1.970 . S
O852 Li794 1.961 . S
O852 C796 1.325 . S
O853 Li792 1.970 . S
O853 Li793 1.956 . S
O853 Li795 1.961 . S
O853 C802 1.325 . S
O854 Li792 1.961 . S
O854 Li794 1.956 . S
O854 Li795 1.970 . S
O854 C824 1.325 . S
O855 Li793 1.961 . S
O855 Li794 1.970 . S
O855 Li795 1.956 . S
O855 C830 1.325 . S
H856 C798 0.929 . S
H857 C799 0.930 . S
H858 C800 0.930 . S
H859 C801 0.930 . S
H860 C803 0.930 . S
H861 C805 0.929 . S
H862 C806 0.930 . S
H863 C807 0.930 . S
H864 C810 0.930 . S
H865 C813 0.929 . S
H866 C818 0.929 . S
H867 C819 0.930 . S
H868 C826 0.929 . S
H869 C827 0.930 . S
H870 C828 0.930 . S
H871 C829 0.930 . S
H872 C831 0.929 . S
H873 C832 0.930 . S
H874 C833 0.930 . S
H875 C834 0.930 . S
H876 C838 0.929 . S
H877 C840 0.930 . S
H878 C846 0.929 . S
H879 C847 0.930 . S
Li880 N897 1.990 . S
Li880 O940 1.956 . S
Li880 O941 1.970 . S
Li880 O942 1.961 . S
Li881 N905 1.990 . S
Li881 O940 1.970 . S
Li881 O941 1.956 . S
Li881 O943 1.961 . S
Li882 N927 1.990 . S
Li882 O940 1.961 . S
Li882 O942 1.956 . S
Li882 O943 1.970 . S
Li883 N933 1.990 . S
Li883 O941 1.961 . S
Li883 O942 1.970 . S
Li883 O943 1.956 . S
C884 C886 1.348 . S
C884 C887 1.356 . S
C884 O940 1.325 . S
N885 C888 1.314 . S
N885 C889 1.279 . S
C886 C884 1.348 . S
C886 C888 1.353 . S
C886 H944 0.929 . S
C887 C884 1.356 . S
C887 C889 1.358 . S
C887 H945 0.930 . S
C888 N885 1.314 . S
C888 C886 1.353 . S
C888 H946 0.930 . S
C889 N885 1.279 . S
C889 C887 1.358 . S
C889 H947 0.930 . S
C890 C893 1.348 . S
C890 C894 1.356 . S
C890 O941 1.325 . S
C891 N892 1.279 . S
C891 C894 1.358 . S
C891 H948 0.930 . S
N892 C891 1.279 . S
N892 C895 1.314 . S
C893 C890 1.348 . S
C893 C895 1.353 . S
C893 H949 0.929 . S
C894 C890 1.356 . S
C894 C891 1.358 . S
C894 H950 0.930 . S
C895 N892 1.314 . S
C895 C893 1.353 . S
C895 H951 0.930 . S
C896 N897 1.314 . S
C896 C901 1.353 . S
C896 H902 0.930 . S
N897 Li880 1.990 . S
N897 C896 1.314 . S
N897 C899 1.279 . S
C898 C899 1.358 . S
C898 C900 1.356 . S
C898 H952 0.930 . S
C899 N897 1.279 . S
C899 C898 1.358 . S
C899 H903 0.930 . S
C900 C898 1.356 . S
C900 C901 1.348 . S
C901 C896 1.353 . S
C901 C900 1.348 . S
C901 H953 0.929 . S
H902 C896 0.930 . S
H903 C899 0.930 . S
C904 N905 1.314 . S
C904 C906 1.353 . S
C904 H910 0.930 . S
N905 Li881 1.990 . S
N905 C904 1.314 . S
N905 C908 1.279 . S
C906 C904 1.353 . S
C906 C909 1.348 . S
C906 H954 0.929 . S
C907 C908 1.358 . S
C907 C909 1.356 . S
C907 H955 0.930 . S
C908 N905 1.279 . S
C908 C907 1.358 . S
C908 H911 0.930 . S
C909 C906 1.348 . S
C909 C907 1.356 . S
H910 C904 0.930 . S
H911 C908 0.930 . S
C912 C914 1.348 . S
C912 C915 1.356 . S
C912 O942 1.325 . S
N913 C916 1.314 . S
N913 C917 1.279 . S
C914 C912 1.348 . S
C914 C916 1.353 . S
C914 H956 0.929 . S
C915 C912 1.356 . S
C915 C917 1.358 . S
C915 H957 0.930 . S
C916 N913 1.314 . S
C916 C914 1.353 . S
C916 H958 0.930 . S
C917 N913 1.279 . S
C917 C915 1.358 . S
C917 H959 0.930 . S
C918 C919 1.348 . S
C918 C920 1.356 . S
C918 O943 1.325 . S
C919 C918 1.348 . S
C919 C921 1.353 . S
C919 H960 0.929 . S
C920 C918 1.356 . S
C920 C922 1.358 . S
C920 H961 0.930 . S
C921 C919 1.353 . S
C921 N923 1.314 . S
C921 H962 0.930 . S
C922 C920 1.358 . S
C922 N923 1.279 . S
C922 H963 0.930 . S
N923 C921 1.314 . S
N923 C922 1.279 . S
C924 C926 1.353 . S
C924 N927 1.314 . S
C924 H930 0.930 . S
C925 N927 1.279 . S
C925 C928 1.358 . S
C925 H931 0.930 . S
C926 C924 1.353 . S
C926 C929 1.348 . S
C926 H964 0.929 . S
N927 Li882 1.990 . S
N927 C924 1.314 . S
N927 C925 1.279 . S
C928 C925 1.358 . S
C928 C929 1.356 . S
C928 H965 0.930 . S
C929 C926 1.348 . S
C929 C928 1.356 . S
H930 C924 0.930 . S
H931 C925 0.930 . S
C932 N933 1.314 . S
C932 C934 1.353 . S
C932 H938 0.930 . S
N933 Li883 1.990 . S
N933 C932 1.314 . S
N933 C936 1.279 . S
C934 C932 1.353 . S
C934 C937 1.348 . S
C934 H966 0.929 . S
C935 C936 1.358 . S
C935 C937 1.356 . S
C935 H967 0.930 . S
C936 N933 1.279 . S
C936 C935 1.358 . S
C936 H939 0.930 . S
C937 C934 1.348 . S
C937 C935 1.356 . S
H938 C932 0.930 . S
H939 C936 0.930 . S
O940 Li880 1.956 . S
O940 Li881 1.970 . S
O940 Li882 1.961 . S
O940 C884 1.325 . S
O941 Li880 1.970 . S
O941 Li881 1.956 . S
O941 Li883 1.961 . S
O941 C890 1.325 . S
O942 Li880 1.961 . S
O942 Li882 1.956 . S
O942 Li883 1.970 . S
O942 C912 1.325 . S
O943 Li881 1.961 . S
O943 Li882 1.970 . S
O943 Li883 1.956 . S
O943 C918 1.325 . S
H944 C886 0.929 . S
H945 C887 0.930 . S
H946 C888 0.930 . S
H947 C889 0.930 . S
H948 C891 0.930 . S
H949 C893 0.929 . S
H950 C894 0.930 . S
H951 C895 0.930 . S
H952 C898 0.930 . S
H953 C901 0.929 . S
H954 C906 0.929 . S
H955 C907 0.930 . S
H956 C914 0.929 . S
H957 C915 0.930 . S
H958 C916 0.930 . S
H959 C917 0.930 . S
H960 C919 0.929 . S
H961 C920 0.930 . S
H962 C921 0.930 . S
H963 C922 0.930 . S
H964 C926 0.929 . S
H965 C928 0.930 . S
H966 C934 0.929 . S
H967 C935 0.930 . S
Li968 N985 1.990 . S
Li968 O1028 1.956 . S
Li968 O1029 1.970 . S
Li968 O1030 1.961 . S
Li969 N993 1.990 . S
Li969 O1028 1.970 . S
Li969 O1029 1.956 . S
Li969 O1031 1.961 . S
Li970 N1015 1.990 . S
Li970 O1028 1.961 . S
Li970 O1030 1.956 . S
Li970 O1031 1.970 . S
Li971 N1021 1.990 . S
Li971 O1029 1.961 . S
Li971 O1030 1.970 . S
Li971 O1031 1.956 . S
C972 C974 1.348 . S
C972 C975 1.356 . S
C972 O1028 1.325 . S
N973 C976 1.314 . S
N973 C977 1.279 . S
C974 C972 1.348 . S
C974 C976 1.353 . S
C974 H1032 0.929 . S
C975 C972 1.356 . S
C975 C977 1.358 . S
C975 H1033 0.930 . S
C976 N973 1.314 . S
C976 C974 1.353 . S
C976 H1034 0.930 . S
C977 N973 1.279 . S
C977 C975 1.358 . S
C977 H1035 0.930 . S
C978 C981 1.348 . S
C978 C982 1.356 . S
C978 O1029 1.325 . S
C979 N980 1.279 . S
C979 C982 1.358 . S
C979 H1036 0.930 . S
N980 C979 1.279 . S
N980 C983 1.314 . S
C981 C978 1.348 . S
C981 C983 1.353 . S
C981 H1037 0.929 . S
C982 C978 1.356 . S
C982 C979 1.358 . S
C982 H1038 0.930 . S
C983 N980 1.314 . S
C983 C981 1.353 . S
C983 H1039 0.930 . S
C984 N985 1.314 . S
C984 C989 1.353 . S
C984 H990 0.930 . S
N985 Li968 1.990 . S
N985 C984 1.314 . S
N985 C987 1.279 . S
C986 C987 1.358 . S
C986 C988 1.356 . S
C986 H1040 0.930 . S
C987 N985 1.279 . S
C987 C986 1.358 . S
C987 H991 0.930 . S
C988 C986 1.356 . S
C988 C989 1.348 . S
C989 C984 1.353 . S
C989 C988 1.348 . S
C989 H1041 0.929 . S
H990 C984 0.930 . S
H991 C987 0.930 . S
C992 N993 1.314 . S
C992 C994 1.353 . S
C992 H998 0.930 . S
N993 Li969 1.990 . S
N993 C992 1.314 . S
N993 C996 1.279 . S
C994 C992 1.353 . S
C994 C997 1.348 . S
C994 H1042 0.929 . S
C995 C996 1.358 . S
C995 C997 1.356 . S
C995 H1043 0.930 . S
C996 N993 1.279 . S
C996 C995 1.358 . S
C996 H999 0.930 . S
C997 C994 1.348 . S
C997 C995 1.356 . S
H998 C992 0.930 . S
H999 C996 0.930 . S
C1000 C1002 1.348 . S
C1000 C1003 1.356 . S
C1000 O1030 1.325 . S
N1001 C1004 1.314 . S
N1001 C1005 1.279 . S
C1002 C1000 1.348 . S
C1002 C1004 1.353 . S
C1002 H1044 0.929 . S
C1003 C1000 1.356 . S
C1003 C1005 1.358 . S
C1003 H1045 0.930 . S
C1004 N1001 1.314 . S
C1004 C1002 1.353 . S
C1004 H1046 0.930 . S
C1005 N1001 1.279 . S
C1005 C1003 1.358 . S
C1005 H1047 0.930 . S
C1006 C1007 1.348 . S
C1006 C1008 1.356 . S
C1006 O1031 1.325 . S
C1007 C1006 1.348 . S
C1007 C1009 1.353 . S
C1007 H1048 0.929 . S
C1008 C1006 1.356 . S
C1008 C1010 1.358 . S
C1008 H1049 0.930 . S
C1009 C1007 1.353 . S
C1009 N1011 1.314 . S
C1009 H1050 0.930 . S
C1010 C1008 1.358 . S
C1010 N1011 1.279 . S
C1010 H1051 0.930 . S
N1011 C1009 1.314 . S
N1011 C1010 1.279 . S
C1012 C1014 1.353 . S
C1012 N1015 1.314 . S
C1012 H1018 0.930 . S
C1013 N1015 1.279 . S
C1013 C1016 1.358 . S
C1013 H1019 0.930 . S
C1014 C1012 1.353 . S
C1014 C1017 1.348 . S
C1014 H1052 0.929 . S
N1015 Li970 1.990 . S
N1015 C1012 1.314 . S
N1015 C1013 1.279 . S
C1016 C1013 1.358 . S
C1016 C1017 1.356 . S
C1016 H1053 0.930 . S
C1017 C1014 1.348 . S
C1017 C1016 1.356 . S
H1018 C1012 0.930 . S
H1019 C1013 0.930 . S
C1020 N1021 1.314 . S
C1020 C1022 1.353 . S
C1020 H1026 0.930 . S
N1021 Li971 1.990 . S
N1021 C1020 1.314 . S
N1021 C1024 1.279 . S
C1022 C1020 1.353 . S
C1022 C1025 1.348 . S
C1022 H1054 0.929 . S
C1023 C1024 1.358 . S
C1023 C1025 1.356 . S
C1023 H1055 0.930 . S
C1024 N1021 1.279 . S
C1024 C1023 1.358 . S
C1024 H1027 0.930 . S
C1025 C1022 1.348 . S
C1025 C1023 1.356 . S
H1026 C1020 0.930 . S
H1027 C1024 0.930 . S
O1028 Li968 1.956 . S
O1028 Li969 1.970 . S
O1028 Li970 1.961 . S
O1028 C972 1.325 . S
O1029 Li968 1.970 . S
O1029 Li969 1.956 . S
O1029 Li971 1.961 . S
O1029 C978 1.325 . S
O1030 Li968 1.961 . S
O1030 Li970 1.956 . S
O1030 Li971 1.970 . S
O1030 C1000 1.325 . S
O1031 Li969 1.961 . S
O1031 Li970 1.970 . S
O1031 Li971 1.956 . S
O1031 C1006 1.325 . S
H1032 C974 0.929 . S
H1033 C975 0.930 . S
H1034 C976 0.930 . S
H1035 C977 0.930 . S
H1036 C979 0.930 . S
H1037 C981 0.929 . S
H1038 C982 0.930 . S
H1039 C983 0.930 . S
H1040 C986 0.930 . S
H1041 C989 0.929 . S
H1042 C994 0.929 . S
H1043 C995 0.930 . S
H1044 C1002 0.929 . S
H1045 C1003 0.930 . S
H1046 C1004 0.930 . S
H1047 C1005 0.930 . S
H1048 C1007 0.929 . S
H1049 C1008 0.930 . S
H1050 C1009 0.930 . S
H1051 C1010 0.930 . S
H1052 C1014 0.929 . S
H1053 C1016 0.930 . S
H1054 C1022 0.929 . S
H1055 C1023 0.930 . S
Li1056 N1073 1.990 . S
Li1056 O1116 1.956 . S
Li1056 O1117 1.970 . S
Li1056 O1118 1.961 . S
Li1057 N1081 1.990 . S
Li1057 O1116 1.970 . S
Li1057 O1117 1.956 . S
Li1057 O1119 1.961 . S
Li1058 N1103 1.990 . S
Li1058 O1116 1.961 . S
Li1058 O1118 1.956 . S
Li1058 O1119 1.970 . S
Li1059 N1109 1.990 . S
Li1059 O1117 1.961 . S
Li1059 O1118 1.970 . S
Li1059 O1119 1.956 . S
C1060 C1062 1.348 . S
C1060 C1063 1.356 . S
C1060 O1116 1.325 . S
N1061 C1064 1.314 . S
N1061 C1065 1.279 . S
C1062 C1060 1.348 . S
C1062 C1064 1.353 . S
C1062 H1120 0.929 . S
C1063 C1060 1.356 . S
C1063 C1065 1.358 . S
C1063 H1121 0.930 . S
C1064 N1061 1.314 . S
C1064 C1062 1.353 . S
C1064 H1122 0.930 . S
C1065 N1061 1.279 . S
C1065 C1063 1.358 . S
C1065 H1123 0.930 . S
C1066 C1069 1.348 . S
C1066 C1070 1.356 . S
C1066 O1117 1.325 . S
C1067 N1068 1.279 . S
C1067 C1070 1.358 . S
C1067 H1124 0.930 . S
N1068 C1067 1.279 . S
N1068 C1071 1.314 . S
C1069 C1066 1.348 . S
C1069 C1071 1.353 . S
C1069 H1125 0.929 . S
C1070 C1066 1.356 . S
C1070 C1067 1.358 . S
C1070 H1126 0.930 . S
C1071 N1068 1.314 . S
C1071 C1069 1.353 . S
C1071 H1127 0.930 . S
C1072 N1073 1.314 . S
C1072 C1077 1.353 . S
C1072 H1078 0.930 . S
N1073 Li1056 1.990 . S
N1073 C1072 1.314 . S
N1073 C1075 1.279 . S
C1074 C1075 1.358 . S
C1074 C1076 1.356 . S
C1074 H1128 0.930 . S
C1075 N1073 1.279 . S
C1075 C1074 1.358 . S
C1075 H1079 0.930 . S
C1076 C1074 1.356 . S
C1076 C1077 1.348 . S
C1077 C1072 1.353 . S
C1077 C1076 1.348 . S
C1077 H1129 0.929 . S
H1078 C1072 0.930 . S
H1079 C1075 0.930 . S
C1080 N1081 1.314 . S
C1080 C1082 1.353 . S
C1080 H1086 0.930 . S
N1081 Li1057 1.990 . S
N1081 C1080 1.314 . S
N1081 C1084 1.279 . S
C1082 C1080 1.353 . S
C1082 C1085 1.348 . S
C1082 H1130 0.929 . S
C1083 C1084 1.358 . S
C1083 C1085 1.356 . S
C1083 H1131 0.930 . S
C1084 N1081 1.279 . S
C1084 C1083 1.358 . S
C1084 H1087 0.930 . S
C1085 C1082 1.348 . S
C1085 C1083 1.356 . S
H1086 C1080 0.930 . S
H1087 C1084 0.930 . S
C1088 C1090 1.348 . S
C1088 C1091 1.356 . S
C1088 O1118 1.325 . S
N1089 C1092 1.314 . S
N1089 C1093 1.279 . S
C1090 C1088 1.348 . S
C1090 C1092 1.353 . S
C1090 H1132 0.929 . S
C1091 C1088 1.356 . S
C1091 C1093 1.358 . S
C1091 H1133 0.930 . S
C1092 N1089 1.314 . S
C1092 C1090 1.353 . S
C1092 H1134 0.930 . S
C1093 N1089 1.279 . S
C1093 C1091 1.358 . S
C1093 H1135 0.930 . S
C1094 C1095 1.348 . S
C1094 C1096 1.356 . S
C1094 O1119 1.325 . S
C1095 C1094 1.348 . S
C1095 C1097 1.353 . S
C1095 H1136 0.929 . S
C1096 C1094 1.356 . S
C1096 C1098 1.358 . S
C1096 H1137 0.930 . S
C1097 C1095 1.353 . S
C1097 N1099 1.314 . S
C1097 H1138 0.930 . S
C1098 C1096 1.358 . S
C1098 N1099 1.279 . S
C1098 H1139 0.930 . S
N1099 C1097 1.314 . S
N1099 C1098 1.279 . S
C1100 C1102 1.353 . S
C1100 N1103 1.314 . S
C1100 H1106 0.930 . S
C1101 N1103 1.279 . S
C1101 C1104 1.358 . S
C1101 H1107 0.930 . S
C1102 C1100 1.353 . S
C1102 C1105 1.348 . S
C1102 H1140 0.929 . S
N1103 Li1058 1.990 . S
N1103 C1100 1.314 . S
N1103 C1101 1.279 . S
C1104 C1101 1.358 . S
C1104 C1105 1.356 . S
C1104 H1141 0.930 . S
C1105 C1102 1.348 . S
C1105 C1104 1.356 . S
H1106 C1100 0.930 . S
H1107 C1101 0.930 . S
C1108 N1109 1.314 . S
C1108 C1110 1.353 . S
C1108 H1114 0.930 . S
N1109 Li1059 1.990 . S
N1109 C1108 1.314 . S
N1109 C1112 1.279 . S
C1110 C1108 1.353 . S
C1110 C1113 1.348 . S
C1110 H1142 0.929 . S
C1111 C1112 1.358 . S
C1111 C1113 1.356 . S
C1111 H1143 0.930 . S
C1112 N1109 1.279 . S
C1112 C1111 1.358 . S
C1112 H1115 0.930 . S
C1113 C1110 1.348 . S
C1113 C1111 1.356 . S
H1114 C1108 0.930 . S
H1115 C1112 0.930 . S
O1116 Li1056 1.956 . S
O1116 Li1057 1.970 . S
O1116 Li1058 1.961 . S
O1116 C1060 1.325 . S
O1117 Li1056 1.970 . S
O1117 Li1057 1.956 . S
O1117 Li1059 1.961 . S
O1117 C1066 1.325 . S
O1118 Li1056 1.961 . S
O1118 Li1058 1.956 . S
O1118 Li1059 1.970 . S
O1118 C1088 1.325 . S
O1119 Li1057 1.961 . S
O1119 Li1058 1.970 . S
O1119 Li1059 1.956 . S
O1119 C1094 1.325 . S
H1120 C1062 0.929 . S
H1121 C1063 0.930 . S
H1122 C1064 0.930 . S
H1123 C1065 0.930 . S
H1124 C1067 0.930 . S
H1125 C1069 0.929 . S
H1126 C1070 0.930 . S
H1127 C1071 0.930 . S
H1128 C1074 0.930 . S
H1129 C1077 0.929 . S
H1130 C1082 0.929 . S
H1131 C1083 0.930 . S
H1132 C1090 0.929 . S
H1133 C1091 0.930 . S
H1134 C1092 0.930 . S
H1135 C1093 0.930 . S
H1136 C1095 0.929 . S
H1137 C1096 0.930 . S
H1138 C1097 0.930 . S
H1139 C1098 0.930 . S
H1140 C1102 0.929 . S
H1141 C1104 0.930 . S
H1142 C1110 0.929 . S
H1143 C1111 0.930 . S
Li1144 N1161 1.990 . S
Li1144 O1204 1.956 . S
Li1144 O1205 1.970 . S
Li1144 O1206 1.961 . S
Li1145 N1169 1.990 . S
Li1145 O1204 1.970 . S
Li1145 O1205 1.956 . S
Li1145 O1207 1.961 . S
Li1146 N1191 1.990 . S
Li1146 O1204 1.961 . S
Li1146 O1206 1.956 . S
Li1146 O1207 1.970 . S
Li1147 N1197 1.990 . S
Li1147 O1205 1.961 . S
Li1147 O1206 1.970 . S
Li1147 O1207 1.956 . S
C1148 C1150 1.348 . S
C1148 C1151 1.356 . S
C1148 O1204 1.325 . S
N1149 C1152 1.314 . S
N1149 C1153 1.279 . S
C1150 C1148 1.348 . S
C1150 C1152 1.353 . S
C1150 H1208 0.929 . S
C1151 C1148 1.356 . S
C1151 C1153 1.358 . S
C1151 H1209 0.930 . S
C1152 N1149 1.314 . S
C1152 C1150 1.353 . S
C1152 H1210 0.930 . S
C1153 N1149 1.279 . S
C1153 C1151 1.358 . S
C1153 H1211 0.930 . S
C1154 C1157 1.348 . S
C1154 C1158 1.356 . S
C1154 O1205 1.325 . S
C1155 N1156 1.279 . S
C1155 C1158 1.358 . S
C1155 H1212 0.930 . S
N1156 C1155 1.279 . S
N1156 C1159 1.314 . S
C1157 C1154 1.348 . S
C1157 C1159 1.353 . S
C1157 H1213 0.929 . S
C1158 C1154 1.356 . S
C1158 C1155 1.358 . S
C1158 H1214 0.930 . S
C1159 N1156 1.314 . S
C1159 C1157 1.353 . S
C1159 H1215 0.930 . S
C1160 N1161 1.314 . S
C1160 C1165 1.353 . S
C1160 H1166 0.930 . S
N1161 Li1144 1.990 . S
N1161 C1160 1.314 . S
N1161 C1163 1.279 . S
C1162 C1163 1.358 . S
C1162 C1164 1.356 . S
C1162 H1216 0.930 . S
C1163 N1161 1.279 . S
C1163 C1162 1.358 . S
C1163 H1167 0.930 . S
C1164 C1162 1.356 . S
C1164 C1165 1.348 . S
C1165 C1160 1.353 . S
C1165 C1164 1.348 . S
C1165 H1217 0.929 . S
H1166 C1160 0.930 . S
H1167 C1163 0.930 . S
C1168 N1169 1.314 . S
C1168 C1170 1.353 . S
C1168 H1174 0.930 . S
N1169 Li1145 1.990 . S
N1169 C1168 1.314 . S
N1169 C1172 1.279 . S
C1170 C1168 1.353 . S
C1170 C1173 1.348 . S
C1170 H1218 0.929 . S
C1171 C1172 1.358 . S
C1171 C1173 1.356 . S
C1171 H1219 0.930 . S
C1172 N1169 1.279 . S
C1172 C1171 1.358 . S
C1172 H1175 0.930 . S
C1173 C1170 1.348 . S
C1173 C1171 1.356 . S
H1174 C1168 0.930 . S
H1175 C1172 0.930 . S
C1176 C1178 1.348 . S
C1176 C1179 1.356 . S
C1176 O1206 1.325 . S
N1177 C1180 1.314 . S
N1177 C1181 1.279 . S
C1178 C1176 1.348 . S
C1178 C1180 1.353 . S
C1178 H1220 0.929 . S
C1179 C1176 1.356 . S
C1179 C1181 1.358 . S
C1179 H1221 0.930 . S
C1180 N1177 1.314 . S
C1180 C1178 1.353 . S
C1180 H1222 0.930 . S
C1181 N1177 1.279 . S
C1181 C1179 1.358 . S
C1181 H1223 0.930 . S
C1182 C1183 1.348 . S
C1182 C1184 1.356 . S
C1182 O1207 1.325 . S
C1183 C1182 1.348 . S
C1183 C1185 1.353 . S
C1183 H1224 0.929 . S
C1184 C1182 1.356 . S
C1184 C1186 1.358 . S
C1184 H1225 0.930 . S
C1185 C1183 1.353 . S
C1185 N1187 1.314 . S
C1185 H1226 0.930 . S
C1186 C1184 1.358 . S
C1186 N1187 1.279 . S
C1186 H1227 0.930 . S
N1187 C1185 1.314 . S
N1187 C1186 1.279 . S
C1188 C1190 1.353 . S
C1188 N1191 1.314 . S
C1188 H1194 0.930 . S
C1189 N1191 1.279 . S
C1189 C1192 1.358 . S
C1189 H1195 0.930 . S
C1190 C1188 1.353 . S
C1190 C1193 1.348 . S
C1190 H1228 0.929 . S
N1191 Li1146 1.990 . S
N1191 C1188 1.314 . S
N1191 C1189 1.279 . S
C1192 C1189 1.358 . S
C1192 C1193 1.356 . S
C1192 H1229 0.930 . S
C1193 C1190 1.348 . S
C1193 C1192 1.356 . S
H1194 C1188 0.930 . S
H1195 C1189 0.930 . S
C1196 N1197 1.314 . S
C1196 C1198 1.353 . S
C1196 H1202 0.930 . S
N1197 Li1147 1.990 . S
N1197 C1196 1.314 . S
N1197 C1200 1.279 . S
C1198 C1196 1.353 . S
C1198 C1201 1.348 . S
C1198 H1230 0.929 . S
C1199 C1200 1.358 . S
C1199 C1201 1.356 . S
C1199 H1231 0.930 . S
C1200 N1197 1.279 . S
C1200 C1199 1.358 . S
C1200 H1203 0.930 . S
C1201 C1198 1.348 . S
C1201 C1199 1.356 . S
H1202 C1196 0.930 . S
H1203 C1200 0.930 . S
O1204 Li1144 1.956 . S
O1204 Li1145 1.970 . S
O1204 Li1146 1.961 . S
O1204 C1148 1.325 . S
O1205 Li1144 1.970 . S
O1205 Li1145 1.956 . S
O1205 Li1147 1.961 . S
O1205 C1154 1.325 . S
O1206 Li1144 1.961 . S
O1206 Li1146 1.956 . S
O1206 Li1147 1.970 . S
O1206 C1176 1.325 . S
O1207 Li1145 1.961 . S
O1207 Li1146 1.970 . S
O1207 Li1147 1.956 . S
O1207 C1182 1.325 . S
H1208 C1150 0.929 . S
H1209 C1151 0.930 . S
H1210 C1152 0.930 . S
H1211 C1153 0.930 . S
H1212 C1155 0.930 . S
H1213 C1157 0.929 . S
H1214 C1158 0.930 . S
H1215 C1159 0.930 . S
H1216 C1162 0.930 . S
H1217 C1165 0.929 . S
H1218 C1170 0.929 . S
H1219 C1171 0.930 . S
H1220 C1178 0.929 . S
H1221 C1179 0.930 . S
H1222 C1180 0.930 . S
H1223 C1181 0.930 . S
H1224 C1183 0.929 . S
H1225 C1184 0.930 . S
H1226 C1185 0.930 . S
H1227 C1186 0.930 . S
H1228 C1190 0.929 . S
H1229 C1192 0.930 . S
H1230 C1198 0.929 . S
H1231 C1199 0.930 . S
Li1232 N1249 1.990 . S
Li1232 O1292 1.956 . S
Li1232 O1293 1.970 . S
Li1232 O1294 1.961 . S
Li1233 N1257 1.990 . S
Li1233 O1292 1.970 . S
Li1233 O1293 1.956 . S
Li1233 O1295 1.961 . S
Li1234 N1279 1.990 . S
Li1234 O1292 1.961 . S
Li1234 O1294 1.956 . S
Li1234 O1295 1.970 . S
Li1235 N1285 1.990 . S
Li1235 O1293 1.961 . S
Li1235 O1294 1.970 . S
Li1235 O1295 1.956 . S
C1236 C1238 1.348 . S
C1236 C1239 1.356 . S
C1236 O1292 1.325 . S
N1237 C1240 1.314 . S
N1237 C1241 1.279 . S
C1238 C1236 1.348 . S
C1238 C1240 1.353 . S
C1238 H1296 0.929 . S
C1239 C1236 1.356 . S
C1239 C1241 1.358 . S
C1239 H1297 0.930 . S
C1240 N1237 1.314 . S
C1240 C1238 1.353 . S
C1240 H1298 0.930 . S
C1241 N1237 1.279 . S
C1241 C1239 1.358 . S
C1241 H1299 0.930 . S
C1242 C1245 1.348 . S
C1242 C1246 1.356 . S
C1242 O1293 1.325 . S
C1243 N1244 1.279 . S
C1243 C1246 1.358 . S
C1243 H1300 0.930 . S
N1244 C1243 1.279 . S
N1244 C1247 1.314 . S
C1245 C1242 1.348 . S
C1245 C1247 1.353 . S
C1245 H1301 0.929 . S
C1246 C1242 1.356 . S
C1246 C1243 1.358 . S
C1246 H1302 0.930 . S
C1247 N1244 1.314 . S
C1247 C1245 1.353 . S
C1247 H1303 0.930 . S
C1248 N1249 1.314 . S
C1248 C1253 1.353 . S
C1248 H1254 0.930 . S
N1249 Li1232 1.990 . S
N1249 C1248 1.314 . S
N1249 C1251 1.279 . S
C1250 C1251 1.358 . S
C1250 C1252 1.356 . S
C1250 H1304 0.930 . S
C1251 N1249 1.279 . S
C1251 C1250 1.358 . S
C1251 H1255 0.930 . S
C1252 C1250 1.356 . S
C1252 C1253 1.348 . S
C1253 C1248 1.353 . S
C1253 C1252 1.348 . S
C1253 H1305 0.929 . S
H1254 C1248 0.930 . S
H1255 C1251 0.930 . S
C1256 N1257 1.314 . S
C1256 C1258 1.353 . S
C1256 H1262 0.930 . S
N1257 Li1233 1.990 . S
N1257 C1256 1.314 . S
N1257 C1260 1.279 . S
C1258 C1256 1.353 . S
C1258 C1261 1.348 . S
C1258 H1306 0.929 . S
C1259 C1260 1.358 . S
C1259 C1261 1.356 . S
C1259 H1307 0.930 . S
C1260 N1257 1.279 . S
C1260 C1259 1.358 . S
C1260 H1263 0.930 . S
C1261 C1258 1.348 . S
C1261 C1259 1.356 . S
H1262 C1256 0.930 . S
H1263 C1260 0.930 . S
C1264 C1266 1.348 . S
C1264 C1267 1.356 . S
C1264 O1294 1.325 . S
N1265 C1268 1.314 . S
N1265 C1269 1.279 . S
C1266 C1264 1.348 . S
C1266 C1268 1.353 . S
C1266 H1308 0.929 . S
C1267 C1264 1.356 . S
C1267 C1269 1.358 . S
C1267 H1309 0.930 . S
C1268 N1265 1.314 . S
C1268 C1266 1.353 . S
C1268 H1310 0.930 . S
C1269 N1265 1.279 . S
C1269 C1267 1.358 . S
C1269 H1311 0.930 . S
C1270 C1271 1.348 . S
C1270 C1272 1.356 . S
C1270 O1295 1.325 . S
C1271 C1270 1.348 . S
C1271 C1273 1.353 . S
C1271 H1312 0.929 . S
C1272 C1270 1.356 . S
C1272 C1274 1.358 . S
C1272 H1313 0.930 . S
C1273 C1271 1.353 . S
C1273 N1275 1.314 . S
C1273 H1314 0.930 . S
C1274 C1272 1.358 . S
C1274 N1275 1.279 . S
C1274 H1315 0.930 . S
N1275 C1273 1.314 . S
N1275 C1274 1.279 . S
C1276 C1278 1.353 . S
C1276 N1279 1.314 . S
C1276 H1282 0.930 . S
C1277 N1279 1.279 . S
C1277 C1280 1.358 . S
C1277 H1283 0.930 . S
C1278 C1276 1.353 . S
C1278 C1281 1.348 . S
C1278 H1316 0.929 . S
N1279 Li1234 1.990 . S
N1279 C1276 1.314 . S
N1279 C1277 1.279 . S
C1280 C1277 1.358 . S
C1280 C1281 1.356 . S
C1280 H1317 0.930 . S
C1281 C1278 1.348 . S
C1281 C1280 1.356 . S
H1282 C1276 0.930 . S
H1283 C1277 0.930 . S
C1284 N1285 1.314 . S
C1284 C1286 1.353 . S
C1284 H1290 0.930 . S
N1285 Li1235 1.990 . S
N1285 C1284 1.314 . S
N1285 C1288 1.279 . S
C1286 C1284 1.353 . S
C1286 C1289 1.348 . S
C1286 H1318 0.929 . S
C1287 C1288 1.358 . S
C1287 C1289 1.356 . S
C1287 H1319 0.930 . S
C1288 N1285 1.279 . S
C1288 C1287 1.358 . S
C1288 H1291 0.930 . S
C1289 C1286 1.348 . S
C1289 C1287 1.356 . S
H1290 C1284 0.930 . S
H1291 C1288 0.930 . S
O1292 Li1232 1.956 . S
O1292 Li1233 1.970 . S
O1292 Li1234 1.961 . S
O1292 C1236 1.325 . S
O1293 Li1232 1.970 . S
O1293 Li1233 1.956 . S
O1293 Li1235 1.961 . S
O1293 C1242 1.325 . S
O1294 Li1232 1.961 . S
O1294 Li1234 1.956 . S
O1294 Li1235 1.970 . S
O1294 C1264 1.325 . S
O1295 Li1233 1.961 . S
O1295 Li1234 1.970 . S
O1295 Li1235 1.956 . S
O1295 C1270 1.325 . S
H1296 C1238 0.929 . S
H1297 C1239 0.930 . S
H1298 C1240 0.930 . S
H1299 C1241 0.930 . S
H1300 C1243 0.930 . S
H1301 C1245 0.929 . S
H1302 C1246 0.930 . S
H1303 C1247 0.930 . S
H1304 C1250 0.930 . S
H1305 C1253 0.929 . S
H1306 C1258 0.929 . S
H1307 C1259 0.930 . S
H1308 C1266 0.929 . S
H1309 C1267 0.930 . S
H1310 C1268 0.930 . S
H1311 C1269 0.930 . S
H1312 C1271 0.929 . S
H1313 C1272 0.930 . S
H1314 C1273 0.930 . S
H1315 C1274 0.930 . S
H1316 C1278 0.929 . S
H1317 C1280 0.930 . S
H1318 C1286 0.929 . S
H1319 C1287 0.930 . S
Li1320 N1337 1.990 . S
Li1320 O1380 1.956 . S
Li1320 O1381 1.970 . S
Li1320 O1382 1.961 . S
Li1321 N1345 1.990 . S
Li1321 O1380 1.970 . S
Li1321 O1381 1.956 . S
Li1321 O1383 1.961 . S
Li1322 N1367 1.990 . S
Li1322 O1380 1.961 . S
Li1322 O1382 1.956 . S
Li1322 O1383 1.970 . S
Li1323 N1373 1.990 . S
Li1323 O1381 1.961 . S
Li1323 O1382 1.970 . S
Li1323 O1383 1.956 . S
C1324 C1326 1.348 . S
C1324 C1327 1.356 . S
C1324 O1380 1.325 . S
N1325 C1328 1.314 . S
N1325 C1329 1.279 . S
C1326 C1324 1.348 . S
C1326 C1328 1.353 . S
C1326 H1384 0.929 . S
C1327 C1324 1.356 . S
C1327 C1329 1.358 . S
C1327 H1385 0.930 . S
C1328 N1325 1.314 . S
C1328 C1326 1.353 . S
C1328 H1386 0.930 . S
C1329 N1325 1.279 . S
C1329 C1327 1.358 . S
C1329 H1387 0.930 . S
C1330 C1333 1.348 . S
C1330 C1334 1.356 . S
C1330 O1381 1.325 . S
C1331 N1332 1.279 . S
C1331 C1334 1.358 . S
C1331 H1388 0.930 . S
N1332 C1331 1.279 . S
N1332 C1335 1.314 . S
C1333 C1330 1.348 . S
C1333 C1335 1.353 . S
C1333 H1389 0.929 . S
C1334 C1330 1.356 . S
C1334 C1331 1.358 . S
C1334 H1390 0.930 . S
C1335 N1332 1.314 . S
C1335 C1333 1.353 . S
C1335 H1391 0.930 . S
C1336 N1337 1.314 . S
C1336 C1341 1.353 . S
C1336 H1342 0.930 . S
N1337 Li1320 1.990 . S
N1337 C1336 1.314 . S
N1337 C1339 1.279 . S
C1338 C1339 1.358 . S
C1338 C1340 1.356 . S
C1338 H1392 0.930 . S
C1339 N1337 1.279 . S
C1339 C1338 1.358 . S
C1339 H1343 0.930 . S
C1340 C1338 1.356 . S
C1340 C1341 1.348 . S
C1341 C1336 1.353 . S
C1341 C1340 1.348 . S
C1341 H1393 0.929 . S
H1342 C1336 0.930 . S
H1343 C1339 0.930 . S
C1344 N1345 1.314 . S
C1344 C1346 1.353 . S
C1344 H1350 0.930 . S
N1345 Li1321 1.990 . S
N1345 C1344 1.314 . S
N1345 C1348 1.279 . S
C1346 C1344 1.353 . S
C1346 C1349 1.348 . S
C1346 H1394 0.929 . S
C1347 C1348 1.358 . S
C1347 C1349 1.356 . S
C1347 H1395 0.930 . S
C1348 N1345 1.279 . S
C1348 C1347 1.358 . S
C1348 H1351 0.930 . S
C1349 C1346 1.348 . S
C1349 C1347 1.356 . S
H1350 C1344 0.930 . S
H1351 C1348 0.930 . S
C1352 C1354 1.348 . S
C1352 C1355 1.356 . S
C1352 O1382 1.325 . S
N1353 C1356 1.314 . S
N1353 C1357 1.279 . S
C1354 C1352 1.348 . S
C1354 C1356 1.353 . S
C1354 H1396 0.929 . S
C1355 C1352 1.356 . S
C1355 C1357 1.358 . S
C1355 H1397 0.930 . S
C1356 N1353 1.314 . S
C1356 C1354 1.353 . S
C1356 H1398 0.930 . S
C1357 N1353 1.279 . S
C1357 C1355 1.358 . S
C1357 H1399 0.930 . S
C1358 C1359 1.348 . S
C1358 C1360 1.356 . S
C1358 O1383 1.325 . S
C1359 C1358 1.348 . S
C1359 C1361 1.353 . S
C1359 H1400 0.929 . S
C1360 C1358 1.356 . S
C1360 C1362 1.358 . S
C1360 H1401 0.930 . S
C1361 C1359 1.353 . S
C1361 N1363 1.314 . S
C1361 H1402 0.930 . S
C1362 C1360 1.358 . S
C1362 N1363 1.279 . S
C1362 H1403 0.930 . S
N1363 C1361 1.314 . S
N1363 C1362 1.279 . S
C1364 C1366 1.353 . S
C1364 N1367 1.314 . S
C1364 H1370 0.930 . S
C1365 N1367 1.279 . S
C1365 C1368 1.358 . S
C1365 H1371 0.930 . S
C1366 C1364 1.353 . S
C1366 C1369 1.348 . S
C1366 H1404 0.929 . S
N1367 Li1322 1.990 . S
N1367 C1364 1.314 . S
N1367 C1365 1.279 . S
C1368 C1365 1.358 . S
C1368 C1369 1.356 . S
C1368 H1405 0.930 . S
C1369 C1366 1.348 . S
C1369 C1368 1.356 . S
H1370 C1364 0.930 . S
H1371 C1365 0.930 . S
C1372 N1373 1.314 . S
C1372 C1374 1.353 . S
C1372 H1378 0.930 . S
N1373 Li1323 1.990 . S
N1373 C1372 1.314 . S
N1373 C1376 1.279 . S
C1374 C1372 1.353 . S
C1374 C1377 1.348 . S
C1374 H1406 0.929 . S
C1375 C1376 1.358 . S
C1375 C1377 1.356 . S
C1375 H1407 0.930 . S
C1376 N1373 1.279 . S
C1376 C1375 1.358 . S
C1376 H1379 0.930 . S
C1377 C1374 1.348 . S
C1377 C1375 1.356 . S
H1378 C1372 0.930 . S
H1379 C1376 0.930 . S
O1380 Li1320 1.956 . S
O1380 Li1321 1.970 . S
O1380 Li1322 1.961 . S
O1380 C1324 1.325 . S
O1381 Li1320 1.970 . S
O1381 Li1321 1.956 . S
O1381 Li1323 1.961 . S
O1381 C1330 1.325 . S
O1382 Li1320 1.961 . S
O1382 Li1322 1.956 . S
O1382 Li1323 1.970 . S
O1382 C1352 1.325 . S
O1383 Li1321 1.961 . S
O1383 Li1322 1.970 . S
O1383 Li1323 1.956 . S
O1383 C1358 1.325 . S
H1384 C1326 0.929 . S
H1385 C1327 0.930 . S
H1386 C1328 0.930 . S
H1387 C1329 0.930 . S
H1388 C1331 0.930 . S
H1389 C1333 0.929 . S
H1390 C1334 0.930 . S
H1391 C1335 0.930 . S
H1392 C1338 0.930 . S
H1393 C1341 0.929 . S
H1394 C1346 0.929 . S
H1395 C1347 0.930 . S
H1396 C1354 0.929 . S
H1397 C1355 0.930 . S
H1398 C1356 0.930 . S
H1399 C1357 0.930 . S
H1400 C1359 0.929 . S
H1401 C1360 0.930 . S
H1402 C1361 0.930 . S
H1403 C1362 0.930 . S
H1404 C1366 0.929 . S
H1405 C1368 0.930 . S
H1406 C1374 0.929 . S
H1407 C1375 0.930 . S
H1408 C1416 0.929 . S
H1409 C1418 0.930 . S
H1410 C1420 0.930 . S
H1411 C1423 0.929 . S
H1412 C1426 0.930 . S
H1413 C1428 0.960 . S
H1414 C1428 0.960 . S
H1415 C1428 0.960 . S
C1416 H1408 0.929 . S
C1416 C1417 1.377 . S
C1416 C1418 1.384 . S
C1417 C1416 1.377 . S
C1417 C1423 1.390 . S
C1418 H1409 0.930 . S
C1418 C1416 1.384 . S
C1418 C1419 1.372 . S
C1419 C1418 1.372 . S
C1419 C1420 1.400 . S
C1419 C1424 1.490 . S
C1420 H1410 0.930 . S
C1420 C1419 1.400 . S
C1420 C1423 1.386 . S
H1421 C1437 0.930 . S
H1422 C1438 0.931 . S
C1423 H1411 0.929 . S
C1423 C1417 1.390 . S
C1423 C1420 1.386 . S
C1424 C1419 1.490 . S
C1424 C1426 1.395 . S
C1424 C1427 1.403 . S
H1425 C1431 0.930 . S
C1426 H1412 0.930 . S
C1426 C1424 1.395 . S
C1426 C1429 1.403 . S
C1427 C1424 1.403 . S
C1427 C1428 1.524 . S
C1427 C1431 1.400 . S
C1428 H1413 0.960 . S
C1428 H1414 0.960 . S
C1428 H1415 0.960 . S
C1428 C1427 1.524 . S
C1429 C1426 1.403 . S
C1429 C1430 1.392 . S
C1429 C1433 1.495 . S
C1430 C1429 1.392 . S
C1430 C1431 1.385 . S
C1430 C1432 1.478 . S
C1431 H1425 0.930 . S
C1431 C1427 1.400 . S
C1431 C1430 1.385 . S
C1432 C1430 1.478 . S
C1432 C1434 1.381 . S
C1432 C1438 1.383 . S
C1433 C1429 1.495 . S
C1433 H1439 0.959 . S
C1433 H1440 0.961 . S
C1433 H1441 0.960 . S
C1434 C1432 1.381 . S
C1434 C1435 1.394 . S
C1434 H1442 0.930 . S
C1435 C1434 1.394 . S
C1435 C1436 1.383 . S
C1435 H1443 0.929 . S
C1436 C1435 1.383 . S
C1436 C1437 1.377 . S
C1437 H1421 0.930 . S
C1437 C1436 1.377 . S
C1437 C1438 1.379 . S
C1438 H1422 0.931 . S
C1438 C1432 1.383 . S
C1438 C1437 1.379 . S
H1439 C1433 0.959 . S
H1440 C1433 0.961 . S
H1441 C1433 0.960 . S
H1442 C1434 0.930 . S
H1443 C1435 0.929 . S
H1444 C1452 0.929 . S
H1445 C1454 0.930 . S
H1446 C1456 0.930 . S
H1447 C1459 0.929 . S
H1448 C1462 0.930 . S
H1449 C1464 0.960 . S
H1450 C1464 0.960 . S
H1451 C1464 0.960 . S
C1452 H1444 0.929 . S
C1452 C1453 1.377 . S
C1452 C1454 1.384 . S
C1453 C1452 1.377 . S
C1453 C1459 1.390 . S
C1454 H1445 0.930 . S
C1454 C1452 1.384 . S
C1454 C1455 1.372 . S
C1455 C1454 1.372 . S
C1455 C1456 1.400 . S
C1455 C1460 1.490 . S
C1456 H1446 0.930 . S
C1456 C1455 1.400 . S
C1456 C1459 1.386 . S
H1457 C1473 0.930 . S
H1458 C1474 0.931 . S
C1459 H1447 0.929 . S
C1459 C1453 1.390 . S
C1459 C1456 1.386 . S
C1460 C1455 1.490 . S
C1460 C1462 1.395 . S
C1460 C1463 1.403 . S
H1461 C1467 0.930 . S
C1462 H1448 0.930 . S
C1462 C1460 1.395 . S
C1462 C1465 1.403 . S
C1463 C1460 1.403 . S
C1463 C1464 1.524 . S
C1463 C1467 1.400 . S
C1464 H1449 0.960 . S
C1464 H1450 0.960 . S
C1464 H1451 0.960 . S
C1464 C1463 1.524 . S
C1465 C1462 1.403 . S
C1465 C1466 1.392 . S
C1465 C1469 1.495 . S
C1466 C1465 1.392 . S
C1466 C1467 1.385 . S
C1466 C1468 1.478 . S
C1467 H1461 0.930 . S
C1467 C1463 1.400 . S
C1467 C1466 1.385 . S
C1468 C1466 1.478 . S
C1468 C1470 1.381 . S
C1468 C1474 1.383 . S
C1469 C1465 1.495 . S
C1469 H1475 0.959 . S
C1469 H1476 0.961 . S
C1469 H1477 0.960 . S
C1470 C1468 1.381 . S
C1470 C1471 1.394 . S
C1470 H1478 0.930 . S
C1471 C1470 1.394 . S
C1471 C1472 1.383 . S
C1471 H1479 0.929 . S
C1472 C1471 1.383 . S
C1472 C1473 1.377 . S
C1473 H1457 0.930 . S
C1473 C1472 1.377 . S
C1473 C1474 1.379 . S
C1474 H1458 0.931 . S
C1474 C1468 1.383 . S
C1474 C1473 1.379 . S
H1475 C1469 0.959 . S
H1476 C1469 0.961 . S
H1477 C1469 0.960 . S
H1478 C1470 0.930 . S
H1479 C1471 0.929 . S
H1480 C1488 0.929 . S
H1481 C1490 0.930 . S
H1482 C1492 0.930 . S
H1483 C1495 0.929 . S
H1484 C1498 0.930 . S
H1485 C1500 0.960 . S
H1486 C1500 0.960 . S
H1487 C1500 0.960 . S
C1488 H1480 0.929 . S
C1488 C1489 1.377 . S
C1488 C1490 1.384 . S
C1489 C1488 1.377 . S
C1489 C1495 1.390 . S
C1490 H1481 0.930 . S
C1490 C1488 1.384 . S
C1490 C1491 1.372 . S
C1491 C1490 1.372 . S
C1491 C1492 1.400 . S
C1491 C1496 1.490 . S
C1492 H1482 0.930 . S
C1492 C1491 1.400 . S
C1492 C1495 1.386 . S
H1493 C1509 0.930 . S
H1494 C1510 0.931 . S
C1495 H1483 0.929 . S
C1495 C1489 1.390 . S
C1495 C1492 1.386 . S
C1496 C1491 1.490 . S
C1496 C1498 1.395 . S
C1496 C1499 1.403 . S
H1497 C1503 0.930 . S
C1498 H1484 0.930 . S
C1498 C1496 1.395 . S
C1498 C1501 1.403 . S
C1499 C1496 1.403 . S
C1499 C1500 1.524 . S
C1499 C1503 1.400 . S
C1500 H1485 0.960 . S
C1500 H1486 0.960 . S
C1500 H1487 0.960 . S
C1500 C1499 1.524 . S
C1501 C1498 1.403 . S
C1501 C1502 1.392 . S
C1501 C1505 1.495 . S
C1502 C1501 1.392 . S
C1502 C1503 1.385 . S
C1502 C1504 1.478 . S
C1503 H1497 0.930 . S
C1503 C1499 1.400 . S
C1503 C1502 1.385 . S
C1504 C1502 1.478 . S
C1504 C1506 1.381 . S
C1504 C1510 1.383 . S
C1505 C1501 1.495 . S
C1505 H1511 0.959 . S
C1505 H1512 0.961 . S
C1505 H1513 0.960 . S
C1506 C1504 1.381 . S
C1506 C1507 1.394 . S
C1506 H1514 0.930 . S
C1507 C1506 1.394 . S
C1507 C1508 1.383 . S
C1507 H1515 0.929 . S
C1508 C1507 1.383 . S
C1508 C1509 1.377 . S
C1509 H1493 0.930 . S
C1509 C1508 1.377 . S
C1509 C1510 1.379 . S
C1510 H1494 0.931 . S
C1510 C1504 1.383 . S
C1510 C1509 1.379 . S
H1511 C1505 0.959 . S
H1512 C1505 0.961 . S
H1513 C1505 0.960 . S
H1514 C1506 0.930 . S
H1515 C1507 0.929 . S
H1516 C1524 0.929 . S
H1517 C1526 0.930 . S
H1518 C1528 0.930 . S
H1519 C1531 0.929 . S
H1520 C1534 0.930 . S
H1521 C1536 0.960 . S
H1522 C1536 0.960 . S
H1523 C1536 0.960 . S
C1524 H1516 0.929 . S
C1524 C1525 1.377 . S
C1524 C1526 1.384 . S
C1525 C1524 1.377 . S
C1525 C1531 1.390 . S
C1526 H1517 0.930 . S
C1526 C1524 1.384 . S
C1526 C1527 1.372 . S
C1527 C1526 1.372 . S
C1527 C1528 1.400 . S
C1527 C1532 1.490 . S
C1528 H1518 0.930 . S
C1528 C1527 1.400 . S
C1528 C1531 1.386 . S
H1529 C1545 0.930 . S
H1530 C1546 0.931 . S
C1531 H1519 0.929 . S
C1531 C1525 1.390 . S
C1531 C1528 1.386 . S
C1532 C1527 1.490 . S
C1532 C1534 1.395 . S
C1532 C1535 1.403 . S
H1533 C1539 0.930 . S
C1534 H1520 0.930 . S
C1534 C1532 1.395 . S
C1534 C1537 1.403 1_455 S
C1535 C1532 1.403 . S
C1535 C1536 1.524 . S
C1535 C1539 1.400 1_455 S
C1536 H1521 0.960 . S
C1536 H1522 0.960 . S
C1536 H1523 0.960 . S
C1536 C1535 1.524 . S
C1537 C1534 1.403 1_655 S
C1537 C1538 1.392 . S
C1537 C1541 1.495 . S
C1538 C1537 1.392 . S
C1538 C1539 1.385 . S
C1538 C1540 1.478 . S
C1539 H1533 0.930 . S
C1539 C1535 1.400 1_655 S
C1539 C1538 1.385 . S
C1540 C1538 1.478 . S
C1540 C1542 1.381 . S
C1540 C1546 1.383 . S
C1541 C1537 1.495 . S
C1541 H1547 0.959 . S
C1541 H1548 0.961 . S
C1541 H1549 0.960 . S
C1542 C1540 1.381 . S
C1542 C1543 1.394 . S
C1542 H1550 0.930 . S
C1543 C1542 1.394 . S
C1543 C1544 1.383 . S
C1543 H1551 0.929 . S
C1544 C1543 1.383 . S
C1544 C1545 1.377 . S
C1545 H1529 0.930 . S
C1545 C1544 1.377 . S
C1545 C1546 1.379 . S
C1546 H1530 0.931 . S
C1546 C1540 1.383 . S
C1546 C1545 1.379 . S
H1547 C1541 0.959 . S
H1548 C1541 0.961 . S
H1549 C1541 0.960 . S
H1550 C1542 0.930 . S
H1551 C1543 0.929 . S
H1552 C1560 0.929 . S
H1553 C1562 0.930 . S
H1554 C1564 0.930 . S
H1555 C1567 0.929 . S
H1556 C1570 0.930 . S
H1557 C1572 0.960 . S
H1558 C1572 0.960 . S
H1559 C1572 0.960 . S
C1560 H1552 0.929 . S
C1560 C1561 1.377 . S
C1560 C1562 1.384 . S
C1561 C1560 1.377 . S
C1561 C1567 1.390 . S
C1562 H1553 0.930 . S
C1562 C1560 1.384 . S
C1562 C1563 1.372 . S
C1563 C1562 1.372 . S
C1563 C1564 1.400 . S
C1563 C1568 1.490 . S
C1564 H1554 0.930 . S
C1564 C1563 1.400 . S
C1564 C1567 1.386 . S
H1565 C1581 0.930 . S
H1566 C1582 0.931 . S
C1567 H1555 0.929 . S
C1567 C1561 1.390 . S
C1567 C1564 1.386 . S
C1568 C1563 1.490 . S
C1568 C1570 1.395 . S
C1568 C1571 1.403 . S
H1569 C1575 0.930 . S
C1570 H1556 0.930 . S
C1570 C1568 1.395 . S
C1570 C1573 1.403 . S
C1571 C1568 1.403 . S
C1571 C1572 1.524 . S
C1571 C1575 1.400 . S
C1572 H1557 0.960 . S
C1572 H1558 0.960 . S
C1572 H1559 0.960 . S
C1572 C1571 1.524 . S
C1573 C1570 1.403 . S
C1573 C1574 1.392 . S
C1573 C1577 1.495 . S
C1574 C1573 1.392 . S
C1574 C1575 1.385 . S
C1574 C1576 1.478 . S
C1575 H1569 0.930 . S
C1575 C1571 1.400 . S
C1575 C1574 1.385 . S
C1576 C1574 1.478 . S
C1576 C1578 1.381 . S
C1576 C1582 1.383 . S
C1577 C1573 1.495 . S
C1577 H1583 0.959 . S
C1577 H1584 0.961 . S
C1577 H1585 0.960 . S
C1578 C1576 1.381 . S
C1578 C1579 1.394 . S
C1578 H1586 0.930 . S
C1579 C1578 1.394 . S
C1579 C1580 1.383 . S
C1579 H1587 0.929 . S
C1580 C1579 1.383 . S
C1580 C1581 1.377 . S
C1581 H1565 0.930 . S
C1581 C1580 1.377 . S
C1581 C1582 1.379 . S
C1582 H1566 0.931 . S
C1582 C1576 1.383 . S
C1582 C1581 1.379 . S
H1583 C1577 0.959 . S
H1584 C1577 0.961 . S
H1585 C1577 0.960 . S
H1586 C1578 0.930 . S
H1587 C1579 0.929 . S
H1588 C1596 0.929 . S
H1589 C1598 0.930 . S
H1590 C1600 0.930 . S
H1591 C1603 0.929 . S
H1592 C1606 0.930 . S
H1593 C1608 0.960 . S
H1594 C1608 0.960 . S
H1595 C1608 0.960 . S
C1596 H1588 0.929 . S
C1596 C1597 1.377 . S
C1596 C1598 1.384 . S
C1597 C1596 1.377 . S
C1597 C1603 1.390 . S
C1598 H1589 0.930 . S
C1598 C1596 1.384 . S
C1598 C1599 1.372 . S
C1599 C1598 1.372 . S
C1599 C1600 1.400 . S
C1599 C1604 1.490 . S
C1600 H1590 0.930 . S
C1600 C1599 1.400 . S
C1600 C1603 1.386 . S
H1601 C1617 0.930 . S
H1602 C1618 0.931 . S
C1603 H1591 0.929 . S
C1603 C1597 1.390 . S
C1603 C1600 1.386 . S
C1604 C1599 1.490 . S
C1604 C1606 1.395 . S
C1604 C1607 1.403 . S
H1605 C1611 0.930 . S
C1606 H1592 0.930 . S
C1606 C1604 1.395 . S
C1606 C1609 1.403 1_655 S
C1607 C1604 1.403 . S
C1607 C1608 1.524 . S
C1607 C1611 1.400 1_655 S
C1608 H1593 0.960 . S
C1608 H1594 0.960 . S
C1608 H1595 0.960 . S
C1608 C1607 1.524 . S
C1609 C1606 1.403 1_455 S
C1609 C1610 1.392 . S
C1609 C1613 1.495 . S
C1610 C1609 1.392 . S
C1610 C1611 1.385 . S
C1610 C1612 1.478 . S
C1611 H1605 0.930 . S
C1611 C1607 1.400 1_455 S
C1611 C1610 1.385 . S
C1612 C1610 1.478 . S
C1612 C1614 1.381 . S
C1612 C1618 1.383 . S
C1613 C1609 1.495 . S
C1613 H1619 0.959 . S
C1613 H1620 0.961 . S
C1613 H1621 0.960 . S
C1614 C1612 1.381 . S
C1614 C1615 1.394 . S
C1614 H1622 0.930 . S
C1615 C1614 1.394 . S
C1615 C1616 1.383 . S
C1615 H1623 0.929 . S
C1616 C1615 1.383 . S
C1616 C1617 1.377 . S
C1617 H1601 0.930 . S
C1617 C1616 1.377 . S
C1617 C1618 1.379 . S
C1618 H1602 0.931 . S
C1618 C1612 1.383 . S
C1618 C1617 1.379 . S
H1619 C1613 0.959 . S
H1620 C1613 0.961 . S
H1621 C1613 0.960 . S
H1622 C1614 0.930 . S
H1623 C1615 0.929 . S
H1624 C1632 0.929 . S
H1625 C1634 0.930 . S
H1626 C1636 0.930 . S
H1627 C1639 0.929 . S
H1628 C1642 0.930 . S
H1629 C1644 0.960 . S
H1630 C1644 0.960 . S
H1631 C1644 0.960 . S
C1632 H1624 0.929 . S
C1632 C1633 1.377 . S
C1632 C1634 1.384 . S
C1633 C1632 1.377 . S
C1633 C1639 1.390 . S
C1634 H1625 0.930 . S
C1634 C1632 1.384 . S
C1634 C1635 1.372 . S
C1635 C1634 1.372 . S
C1635 C1636 1.400 . S
C1635 C1640 1.490 . S
C1636 H1626 0.930 . S
C1636 C1635 1.400 . S
C1636 C1639 1.386 . S
H1637 C1653 0.930 . S
H1638 C1654 0.931 . S
C1639 H1627 0.929 . S
C1639 C1633 1.390 . S
C1639 C1636 1.386 . S
C1640 C1635 1.490 . S
C1640 C1642 1.395 . S
C1640 C1643 1.403 . S
H1641 C1647 0.930 . S
C1642 H1628 0.930 . S
C1642 C1640 1.395 . S
C1642 C1645 1.403 . S
C1643 C1640 1.403 . S
C1643 C1644 1.524 . S
C1643 C1647 1.400 . S
C1644 H1629 0.960 . S
C1644 H1630 0.960 . S
C1644 H1631 0.960 . S
C1644 C1643 1.524 . S
C1645 C1642 1.403 . S
C1645 C1646 1.392 . S
C1645 C1649 1.495 . S
C1646 C1645 1.392 . S
C1646 C1647 1.385 . S
C1646 C1648 1.478 . S
C1647 H1641 0.930 . S
C1647 C1643 1.400 . S
C1647 C1646 1.385 . S
C1648 C1646 1.478 . S
C1648 C1650 1.381 . S
C1648 C1654 1.383 . S
C1649 C1645 1.495 . S
C1649 H1655 0.959 . S
C1649 H1656 0.961 . S
C1649 H1657 0.960 . S
C1650 C1648 1.381 . S
C1650 C1651 1.394 . S
C1650 H1658 0.930 . S
C1651 C1650 1.394 . S
C1651 C1652 1.383 . S
C1651 H1659 0.929 . S
C1652 C1651 1.383 . S
C1652 C1653 1.377 . S
C1653 H1637 0.930 . S
C1653 C1652 1.377 . S
C1653 C1654 1.379 . S
C1654 H1638 0.931 . S
C1654 C1648 1.383 . S
C1654 C1653 1.379 . S
H1655 C1649 0.959 . S
H1656 C1649 0.961 . S
H1657 C1649 0.960 . S
H1658 C1650 0.930 . S
H1659 C1651 0.929 . S
H1660 C1668 0.929 . S
H1661 C1670 0.930 . S
H1662 C1672 0.930 . S
H1663 C1675 0.929 . S
H1664 C1678 0.930 . S
H1665 C1680 0.960 . S
H1666 C1680 0.960 . S
H1667 C1680 0.960 . S
C1668 H1660 0.929 . S
C1668 C1669 1.377 . S
C1668 C1670 1.384 . S
C1669 C1668 1.377 . S
C1669 C1675 1.390 . S
C1670 H1661 0.930 . S
C1670 C1668 1.384 . S
C1670 C1671 1.372 . S
C1671 C1670 1.372 . S
C1671 C1672 1.400 . S
C1671 C1676 1.490 . S
C1672 H1662 0.930 . S
C1672 C1671 1.400 . S
C1672 C1675 1.386 . S
H1673 C1689 0.930 . S
H1674 C1690 0.931 . S
C1675 H1663 0.929 . S
C1675 C1669 1.390 . S
C1675 C1672 1.386 . S
C1676 C1671 1.490 . S
C1676 C1678 1.395 . S
C1676 C1679 1.403 . S
H1677 C1683 0.930 . S
C1678 H1664 0.930 . S
C1678 C1676 1.395 . S
C1678 C1681 1.403 . S
C1679 C1676 1.403 . S
C1679 C1680 1.524 . S
C1679 C1683 1.400 . S
C1680 H1665 0.960 . S
C1680 H1666 0.960 . S
C1680 H1667 0.960 . S
C1680 C1679 1.524 . S
C1681 C1678 1.403 . S
C1681 C1682 1.392 . S
C1681 C1685 1.495 . S
C1682 C1681 1.392 . S
C1682 C1683 1.385 . S
C1682 C1684 1.478 . S
C1683 H1677 0.930 . S
C1683 C1679 1.400 . S
C1683 C1682 1.385 . S
C1684 C1682 1.478 . S
C1684 C1686 1.381 . S
C1684 C1690 1.383 . S
C1685 C1681 1.495 . S
C1685 H1691 0.959 . S
C1685 H1692 0.961 . S
C1685 H1693 0.960 . S
C1686 C1684 1.381 . S
C1686 C1687 1.394 . S
C1686 H1694 0.930 . S
C1687 C1686 1.394 . S
C1687 C1688 1.383 . S
C1687 H1695 0.929 . S
C1688 C1687 1.383 . S
C1688 C1689 1.377 . S
C1689 H1673 0.930 . S
C1689 C1688 1.377 . S
C1689 C1690 1.379 . S
C1690 H1674 0.931 . S
C1690 C1684 1.383 . S
C1690 C1689 1.379 . S
H1691 C1685 0.959 . S
H1692 C1685 0.961 . S
H1693 C1685 0.960 . S
H1694 C1686 0.930 . S
H1695 C1687 0.929 . S
H1696 C1704 0.929 . S
H1697 C1706 0.930 . S
H1698 C1708 0.930 . S
H1699 C1711 0.929 . S
H1700 C1714 0.930 . S
H1701 C1716 0.960 . S
H1702 C1716 0.960 . S
H1703 C1716 0.960 . S
C1704 H1696 0.929 . S
C1704 C1705 1.377 . S
C1704 C1706 1.384 . S
C1705 C1704 1.377 . S
C1705 C1711 1.390 . S
C1706 H1697 0.930 . S
C1706 C1704 1.384 . S
C1706 C1707 1.372 . S
C1707 C1706 1.372 . S
C1707 C1708 1.400 . S
C1707 C1712 1.490 . S
C1708 H1698 0.930 . S
C1708 C1707 1.400 . S
C1708 C1711 1.386 . S
H1709 C1725 0.930 . S
H1710 C1726 0.931 . S
C1711 H1699 0.929 . S
C1711 C1705 1.390 . S
C1711 C1708 1.386 . S
C1712 C1707 1.490 . S
C1712 C1714 1.395 . S
C1712 C1715 1.403 . S
H1713 C1719 0.930 . S
C1714 H1700 0.930 . S
C1714 C1712 1.395 . S
C1714 C1717 1.403 . S
C1715 C1712 1.403 . S
C1715 C1716 1.524 . S
C1715 C1719 1.400 . S
C1716 H1701 0.960 . S
C1716 H1702 0.960 . S
C1716 H1703 0.960 . S
C1716 C1715 1.524 . S
C1717 C1714 1.403 . S
C1717 C1718 1.392 . S
C1717 C1721 1.495 . S
C1718 C1717 1.392 . S
C1718 C1719 1.385 . S
C1718 C1720 1.478 . S
C1719 H1713 0.930 . S
C1719 C1715 1.400 . S
C1719 C1718 1.385 . S
C1720 C1718 1.478 . S
C1720 C1722 1.381 . S
C1720 C1726 1.383 . S
C1721 C1717 1.495 . S
C1721 H1727 0.959 . S
C1721 H1728 0.961 . S
C1721 H1729 0.960 . S
C1722 C1720 1.381 . S
C1722 C1723 1.394 . S
C1722 H1730 0.930 . S
C1723 C1722 1.394 . S
C1723 C1724 1.383 . S
C1723 H1731 0.929 . S
C1724 C1723 1.383 . S
C1724 C1725 1.377 . S
C1725 H1709 0.930 . S
C1725 C1724 1.377 . S
C1725 C1726 1.379 . S
C1726 H1710 0.931 . S
C1726 C1720 1.383 . S
C1726 C1725 1.379 . S
H1727 C1721 0.959 . S
H1728 C1721 0.961 . S
H1729 C1721 0.960 . S
H1730 C1722 0.930 . S
H1731 C1723 0.929 . S
H1732 C1740 0.929 . S
H1733 C1742 0.930 . S
H1734 C1744 0.930 . S
H1735 C1747 0.929 . S
H1736 C1750 0.930 . S
H1737 C1752 0.960 . S
H1738 C1752 0.960 . S
H1739 C1752 0.960 . S
C1740 H1732 0.929 . S
C1740 C1741 1.377 . S
C1740 C1742 1.384 . S
C1741 C1740 1.377 . S
C1741 C1747 1.390 . S
C1742 H1733 0.930 . S
C1742 C1740 1.384 . S
C1742 C1743 1.372 . S
C1743 C1742 1.372 . S
C1743 C1744 1.400 . S
C1743 C1748 1.490 . S
C1744 H1734 0.930 . S
C1744 C1743 1.400 . S
C1744 C1747 1.386 . S
H1745 C1761 0.930 . S
H1746 C1762 0.931 . S
C1747 H1735 0.929 . S
C1747 C1741 1.390 . S
C1747 C1744 1.386 . S
C1748 C1743 1.490 . S
C1748 C1750 1.395 . S
C1748 C1751 1.403 . S
H1749 C1755 0.930 . S
C1750 H1736 0.930 . S
C1750 C1748 1.395 . S
C1750 C1753 1.403 . S
C1751 C1748 1.403 . S
C1751 C1752 1.524 . S
C1751 C1755 1.400 . S
C1752 H1737 0.960 . S
C1752 H1738 0.960 . S
C1752 H1739 0.960 . S
C1752 C1751 1.524 . S
C1753 C1750 1.403 . S
C1753 C1754 1.392 . S
C1753 C1757 1.495 . S
C1754 C1753 1.392 . S
C1754 C1755 1.385 . S
C1754 C1756 1.478 . S
C1755 H1749 0.930 . S
C1755 C1751 1.400 . S
C1755 C1754 1.385 . S
C1756 C1754 1.478 . S
C1756 C1758 1.381 . S
C1756 C1762 1.383 . S
C1757 C1753 1.495 . S
C1757 H1763 0.959 . S
C1757 H1764 0.961 . S
C1757 H1765 0.960 . S
C1758 C1756 1.381 . S
C1758 C1759 1.394 . S
C1758 H1766 0.930 . S
C1759 C1758 1.394 . S
C1759 C1760 1.383 . S
C1759 H1767 0.929 . S
C1760 C1759 1.383 . S
C1760 C1761 1.377 . S
C1761 H1745 0.930 . S
C1761 C1760 1.377 . S
C1761 C1762 1.379 . S
C1762 H1746 0.931 . S
C1762 C1756 1.383 . S
C1762 C1761 1.379 . S
H1763 C1757 0.959 . S
H1764 C1757 0.961 . S
H1765 C1757 0.960 . S
H1766 C1758 0.930 . S
H1767 C1759 0.929 . S
H1768 C1776 0.929 . S
H1769 C1778 0.930 . S
H1770 C1780 0.930 . S
H1771 C1783 0.929 . S
H1772 C1786 0.930 . S
H1773 C1788 0.960 . S
H1774 C1788 0.960 . S
H1775 C1788 0.960 . S
C1776 H1768 0.929 . S
C1776 C1777 1.377 . S
C1776 C1778 1.384 . S
C1777 C1776 1.377 . S
C1777 C1783 1.390 . S
C1778 H1769 0.930 . S
C1778 C1776 1.384 . S
C1778 C1779 1.372 . S
C1779 C1778 1.372 . S
C1779 C1780 1.400 . S
C1779 C1784 1.490 . S
C1780 H1770 0.930 . S
C1780 C1779 1.400 . S
C1780 C1783 1.386 . S
H1781 C1797 0.930 . S
H1782 C1798 0.931 . S
C1783 H1771 0.929 . S
C1783 C1777 1.390 . S
C1783 C1780 1.386 . S
C1784 C1779 1.490 . S
C1784 C1786 1.395 . S
C1784 C1787 1.403 . S
H1785 C1791 0.930 . S
C1786 H1772 0.930 . S
C1786 C1784 1.395 . S
C1786 C1789 1.403 . S
C1787 C1784 1.403 . S
C1787 C1788 1.524 . S
C1787 C1791 1.400 . S
C1788 H1773 0.960 . S
C1788 H1774 0.960 . S
C1788 H1775 0.960 . S
C1788 C1787 1.524 . S
C1789 C1786 1.403 . S
C1789 C1790 1.392 . S
C1789 C1793 1.495 . S
C1790 C1789 1.392 . S
C1790 C1791 1.385 . S
C1790 C1792 1.478 . S
C1791 H1785 0.930 . S
C1791 C1787 1.400 . S
C1791 C1790 1.385 . S
C1792 C1790 1.478 . S
C1792 C1794 1.381 . S
C1792 C1798 1.383 . S
C1793 C1789 1.495 . S
C1793 H1799 0.959 . S
C1793 H1800 0.961 . S
C1793 H1801 0.960 . S
C1794 C1792 1.381 . S
C1794 C1795 1.394 . S
C1794 H1802 0.930 . S
C1795 C1794 1.394 . S
C1795 C1796 1.383 . S
C1795 H1803 0.929 . S
C1796 C1795 1.383 . S
C1796 C1797 1.377 . S
C1797 H1781 0.930 . S
C1797 C1796 1.377 . S
C1797 C1798 1.379 . S
C1798 H1782 0.931 . S
C1798 C1792 1.383 . S
C1798 C1797 1.379 . S
H1799 C1793 0.959 . S
H1800 C1793 0.961 . S
H1801 C1793 0.960 . S
H1802 C1794 0.930 . S
H1803 C1795 0.929 . S
H1804 C1812 0.929 . S
H1805 C1814 0.930 . S
H1806 C1816 0.930 . S
H1807 C1819 0.929 . S
H1808 C1822 0.930 . S
H1809 C1824 0.960 . S
H1810 C1824 0.960 . S
H1811 C1824 0.960 . S
C1812 H1804 0.929 . S
C1812 C1813 1.377 . S
C1812 C1814 1.384 . S
C1813 C1812 1.377 . S
C1813 C1819 1.390 . S
C1814 H1805 0.930 . S
C1814 C1812 1.384 . S
C1814 C1815 1.372 . S
C1815 C1814 1.372 . S
C1815 C1816 1.400 . S
C1815 C1820 1.490 . S
C1816 H1806 0.930 . S
C1816 C1815 1.400 . S
C1816 C1819 1.386 . S
H1817 C1833 0.930 . S
H1818 C1834 0.931 . S
C1819 H1807 0.929 . S
C1819 C1813 1.390 . S
C1819 C1816 1.386 . S
C1820 C1815 1.490 . S
C1820 C1822 1.395 . S
C1820 C1823 1.403 . S
H1821 C1827 0.930 . S
C1822 H1808 0.930 . S
C1822 C1820 1.395 . S
C1822 C1825 1.403 . S
C1823 C1820 1.403 . S
C1823 C1824 1.524 . S
C1823 C1827 1.400 . S
C1824 H1809 0.960 . S
C1824 H1810 0.960 . S
C1824 H1811 0.960 . S
C1824 C1823 1.524 . S
C1825 C1822 1.403 . S
C1825 C1826 1.392 . S
C1825 C1829 1.495 . S
C1826 C1825 1.392 . S
C1826 C1827 1.385 . S
C1826 C1828 1.478 . S
C1827 H1821 0.930 . S
C1827 C1823 1.400 . S
C1827 C1826 1.385 . S
C1828 C1826 1.478 . S
C1828 C1830 1.381 . S
C1828 C1834 1.383 . S
C1829 C1825 1.495 . S
C1829 H1835 0.959 . S
C1829 H1836 0.961 . S
C1829 H1837 0.960 . S
C1830 C1828 1.381 . S
C1830 C1831 1.394 . S
C1830 H1838 0.930 . S
C1831 C1830 1.394 . S
C1831 C1832 1.383 . S
C1831 H1839 0.929 . S
C1832 C1831 1.383 . S
C1832 C1833 1.377 . S
C1833 H1817 0.930 . S
C1833 C1832 1.377 . S
C1833 C1834 1.379 . S
C1834 H1818 0.931 . S
C1834 C1828 1.383 . S
C1834 C1833 1.379 . S
H1835 C1829 0.959 . S
H1836 C1829 0.961 . S
H1837 C1829 0.960 . S
H1838 C1830 0.930 . S
H1839 C1831 0.929 . S
H1840 C1848 0.929 . S
H1841 C1850 0.930 . S
H1842 C1852 0.930 . S
H1843 C1855 0.929 . S
H1844 C1858 0.930 . S
H1845 C1860 0.960 . S
H1846 C1860 0.960 . S
H1847 C1860 0.960 . S
C1848 H1840 0.929 . S
C1848 C1849 1.377 . S
C1848 C1850 1.384 . S
C1849 C1848 1.377 . S
C1849 C1855 1.390 . S
C1850 H1841 0.930 . S
C1850 C1848 1.384 . S
C1850 C1851 1.372 . S
C1851 C1850 1.372 . S
C1851 C1852 1.400 . S
C1851 C1856 1.490 . S
C1852 H1842 0.930 . S
C1852 C1851 1.400 . S
C1852 C1855 1.386 . S
H1853 C1869 0.930 . S
H1854 C1870 0.931 . S
C1855 H1843 0.929 . S
C1855 C1849 1.390 . S
C1855 C1852 1.386 . S
C1856 C1851 1.490 . S
C1856 C1858 1.395 . S
C1856 C1859 1.403 . S
H1857 C1863 0.930 . S
C1858 H1844 0.930 . S
C1858 C1856 1.395 . S
C1858 C1861 1.403 1_455 S
C1859 C1856 1.403 . S
C1859 C1860 1.524 . S
C1859 C1863 1.400 1_455 S
C1860 H1845 0.960 . S
C1860 H1846 0.960 . S
C1860 H1847 0.960 . S
C1860 C1859 1.524 . S
C1861 C1858 1.403 1_655 S
C1861 C1862 1.392 . S
C1861 C1865 1.495 . S
C1862 C1861 1.392 . S
C1862 C1863 1.385 . S
C1862 C1864 1.478 . S
C1863 H1857 0.930 . S
C1863 C1859 1.400 1_655 S
C1863 C1862 1.385 . S
C1864 C1862 1.478 . S
C1864 C1866 1.381 . S
C1864 C1870 1.383 . S
C1865 C1861 1.495 . S
C1865 H1871 0.959 . S
C1865 H1872 0.961 . S
C1865 H1873 0.960 . S
C1866 C1864 1.381 . S
C1866 C1867 1.394 . S
C1866 H1874 0.930 . S
C1867 C1866 1.394 . S
C1867 C1868 1.383 . S
C1867 H1875 0.929 . S
C1868 C1867 1.383 . S
C1868 C1869 1.377 . S
C1869 H1853 0.930 . S
C1869 C1868 1.377 . S
C1869 C1870 1.379 . S
C1870 H1854 0.931 . S
C1870 C1864 1.383 . S
C1870 C1869 1.379 . S
H1871 C1865 0.959 . S
H1872 C1865 0.961 . S
H1873 C1865 0.960 . S
H1874 C1866 0.930 . S
H1875 C1867 0.929 . S
H1876 C1884 0.929 . S
H1877 C1886 0.930 . S
H1878 C1888 0.930 . S
H1879 C1891 0.929 . S
H1880 C1894 0.930 . S
H1881 C1896 0.960 . S
H1882 C1896 0.960 . S
H1883 C1896 0.960 . S
C1884 H1876 0.929 . S
C1884 C1885 1.377 . S
C1884 C1886 1.384 . S
C1885 C1884 1.377 . S
C1885 C1891 1.390 . S
C1886 H1877 0.930 . S
C1886 C1884 1.384 . S
C1886 C1887 1.372 . S
C1887 C1886 1.372 . S
C1887 C1888 1.400 . S
C1887 C1892 1.490 . S
C1888 H1878 0.930 . S
C1888 C1887 1.400 . S
C1888 C1891 1.386 . S
H1889 C1905 0.930 . S
H1890 C1906 0.931 . S
C1891 H1879 0.929 . S
C1891 C1885 1.390 . S
C1891 C1888 1.386 . S
C1892 C1887 1.490 . S
C1892 C1894 1.395 . S
C1892 C1895 1.403 . S
H1893 C1899 0.930 . S
C1894 H1880 0.930 . S
C1894 C1892 1.395 . S
C1894 C1897 1.403 . S
C1895 C1892 1.403 . S
C1895 C1896 1.524 . S
C1895 C1899 1.400 . S
C1896 H1881 0.960 . S
C1896 H1882 0.960 . S
C1896 H1883 0.960 . S
C1896 C1895 1.524 . S
C1897 C1894 1.403 . S
C1897 C1898 1.392 . S
C1897 C1901 1.495 . S
C1898 C1897 1.392 . S
C1898 C1899 1.385 . S
C1898 C1900 1.478 . S
C1899 H1893 0.930 . S
C1899 C1895 1.400 . S
C1899 C1898 1.385 . S
C1900 C1898 1.478 . S
C1900 C1902 1.381 . S
C1900 C1906 1.383 . S
C1901 C1897 1.495 . S
C1901 H1907 0.959 . S
C1901 H1908 0.961 . S
C1901 H1909 0.960 . S
C1902 C1900 1.381 . S
C1902 C1903 1.394 . S
C1902 H1910 0.930 . S
C1903 C1902 1.394 . S
C1903 C1904 1.383 . S
C1903 H1911 0.929 . S
C1904 C1903 1.383 . S
C1904 C1905 1.377 . S
C1905 H1889 0.930 . S
C1905 C1904 1.377 . S
C1905 C1906 1.379 . S
C1906 H1890 0.931 . S
C1906 C1900 1.383 . S
C1906 C1905 1.379 . S
H1907 C1901 0.959 . S
H1908 C1901 0.961 . S
H1909 C1901 0.960 . S
H1910 C1902 0.930 . S
H1911 C1903 0.929 . S
H1912 C1920 0.929 . S
H1913 C1922 0.930 . S
H1914 C1924 0.930 . S
H1915 C1927 0.929 . S
H1916 C1930 0.930 . S
H1917 C1932 0.960 . S
H1918 C1932 0.960 . S
H1919 C1932 0.960 . S
C1920 H1912 0.929 . S
C1920 C1921 1.377 . S
C1920 C1922 1.384 . S
C1921 C1920 1.377 . S
C1921 C1927 1.390 . S
C1922 H1913 0.930 . S
C1922 C1920 1.384 . S
C1922 C1923 1.372 . S
C1923 C1922 1.372 . S
C1923 C1924 1.400 . S
C1923 C1928 1.490 . S
C1924 H1914 0.930 . S
C1924 C1923 1.400 . S
C1924 C1927 1.386 . S
H1925 C1941 0.930 . S
H1926 C1942 0.931 . S
C1927 H1915 0.929 . S
C1927 C1921 1.390 . S
C1927 C1924 1.386 . S
C1928 C1923 1.490 . S
C1928 C1930 1.395 . S
C1928 C1931 1.403 . S
H1929 C1935 0.930 . S
C1930 H1916 0.930 . S
C1930 C1928 1.395 . S
C1930 C1933 1.403 . S
C1931 C1928 1.403 . S
C1931 C1932 1.524 . S
C1931 C1935 1.400 . S
C1932 H1917 0.960 . S
C1932 H1918 0.960 . S
C1932 H1919 0.960 . S
C1932 C1931 1.524 . S
C1933 C1930 1.403 . S
C1933 C1934 1.392 . S
C1933 C1937 1.495 . S
C1934 C1933 1.392 . S
C1934 C1935 1.385 . S
C1934 C1936 1.478 . S
C1935 H1929 0.930 . S
C1935 C1931 1.400 . S
C1935 C1934 1.385 . S
C1936 C1934 1.478 . S
C1936 C1938 1.381 . S
C1936 C1942 1.383 . S
C1937 C1933 1.495 . S
C1937 H1943 0.959 . S
C1937 H1944 0.961 . S
C1937 H1945 0.960 . S
C1938 C1936 1.381 . S
C1938 C1939 1.394 . S
C1938 H1946 0.930 . S
C1939 C1938 1.394 . S
C1939 C1940 1.383 . S
C1939 H1947 0.929 . S
C1940 C1939 1.383 . S
C1940 C1941 1.377 . S
C1941 H1925 0.930 . S
C1941 C1940 1.377 . S
C1941 C1942 1.379 . S
C1942 H1926 0.931 . S
C1942 C1936 1.383 . S
C1942 C1941 1.379 . S
H1943 C1937 0.959 . S
H1944 C1937 0.961 . S
H1945 C1937 0.960 . S
H1946 C1938 0.930 . S
H1947 C1939 0.929 . S
H1948 C1956 0.929 . S
H1949 C1958 0.930 . S
H1950 C1960 0.930 . S
H1951 C1963 0.929 . S
H1952 C1966 0.930 . S
H1953 C1968 0.960 . S
H1954 C1968 0.960 . S
H1955 C1968 0.960 . S
C1956 H1948 0.929 . S
C1956 C1957 1.377 . S
C1956 C1958 1.384 . S
C1957 C1956 1.377 . S
C1957 C1963 1.390 . S
C1958 H1949 0.930 . S
C1958 C1956 1.384 . S
C1958 C1959 1.372 . S
C1959 C1958 1.372 . S
C1959 C1960 1.400 . S
C1959 C1964 1.490 . S
C1960 H1950 0.930 . S
C1960 C1959 1.400 . S
C1960 C1963 1.386 . S
H1961 C1977 0.930 . S
H1962 C1978 0.931 . S
C1963 H1951 0.929 . S
C1963 C1957 1.390 . S
C1963 C1960 1.386 . S
C1964 C1959 1.490 . S
C1964 C1966 1.395 . S
C1964 C1967 1.403 . S
H1965 C1971 0.930 . S
C1966 H1952 0.930 . S
C1966 C1964 1.395 . S
C1966 C1969 1.403 1_455 S
C1967 C1964 1.403 . S
C1967 C1968 1.524 . S
C1967 C1971 1.400 1_455 S
C1968 H1953 0.960 . S
C1968 H1954 0.960 . S
C1968 H1955 0.960 . S
C1968 C1967 1.524 . S
C1969 C1966 1.403 1_655 S
C1969 C1970 1.392 . S
C1969 C1973 1.495 . S
C1970 C1969 1.392 . S
C1970 C1971 1.385 . S
C1970 C1972 1.478 . S
C1971 H1965 0.930 . S
C1971 C1967 1.400 1_655 S
C1971 C1970 1.385 . S
C1972 C1970 1.478 . S
C1972 C1974 1.381 . S
C1972 C1978 1.383 . S
C1973 C1969 1.495 . S
C1973 H1979 0.959 . S
C1973 H1980 0.961 . S
C1973 H1981 0.960 . S
C1974 C1972 1.381 . S
C1974 C1975 1.394 . S
C1974 H1982 0.930 . S
C1975 C1974 1.394 . S
C1975 C1976 1.383 . S
C1975 H1983 0.929 . S
C1976 C1975 1.383 . S
C1976 C1977 1.377 . S
C1977 H1961 0.930 . S
C1977 C1976 1.377 . S
C1977 C1978 1.379 . S
C1978 H1962 0.931 . S
C1978 C1972 1.383 . S
C1978 C1977 1.379 . S
H1979 C1973 0.959 . S
H1980 C1973 0.961 . S
H1981 C1973 0.960 . S
H1982 C1974 0.930 . S
H1983 C1975 0.929 . S
H1984 C1992 0.929 . S
H1985 C1994 0.930 . S
H1986 C1996 0.930 . S
H1987 C1999 0.929 . S
H1988 C2002 0.930 . S
H1989 C2004 0.960 . S
H1990 C2004 0.960 . S
H1991 C2004 0.960 . S
C1992 H1984 0.929 . S
C1992 C1993 1.377 . S
C1992 C1994 1.384 . S
C1993 C1992 1.377 . S
C1993 C1999 1.390 . S
C1994 H1985 0.930 . S
C1994 C1992 1.384 . S
C1994 C1995 1.372 . S
C1995 C1994 1.372 . S
C1995 C1996 1.400 . S
C1995 C2000 1.490 . S
C1996 H1986 0.930 . S
C1996 C1995 1.400 . S
C1996 C1999 1.386 . S
H1997 C2013 0.930 . S
H1998 C2014 0.931 . S
C1999 H1987 0.929 . S
C1999 C1993 1.390 . S
C1999 C1996 1.386 . S
C2000 C1995 1.490 . S
C2000 C2002 1.395 . S
C2000 C2003 1.403 . S
H2001 C2007 0.930 . S
C2002 H1988 0.930 . S
C2002 C2000 1.395 . S
C2002 C2005 1.403 1_554 S
C2003 C2000 1.403 . S
C2003 C2004 1.524 . S
C2003 C2007 1.400 1_554 S
C2004 H1989 0.960 . S
C2004 H1990 0.960 . S
C2004 H1991 0.960 . S
C2004 C2003 1.524 . S
C2005 C2002 1.403 1_556 S
C2005 C2006 1.392 . S
C2005 C2009 1.495 . S
C2006 C2005 1.392 . S
C2006 C2007 1.385 . S
C2006 C2008 1.478 . S
C2007 H2001 0.930 . S
C2007 C2003 1.400 1_556 S
C2007 C2006 1.385 . S
C2008 C2006 1.478 . S
C2008 C2010 1.381 . S
C2008 C2014 1.383 . S
C2009 C2005 1.495 . S
C2009 H2015 0.959 . S
C2009 H2016 0.961 . S
C2009 H2017 0.960 . S
C2010 C2008 1.381 . S
C2010 C2011 1.394 . S
C2010 H2018 0.930 . S
C2011 C2010 1.394 . S
C2011 C2012 1.383 . S
C2011 H2019 0.929 . S
C2012 C2011 1.383 . S
C2012 C2013 1.377 . S
C2013 H1997 0.930 . S
C2013 C2012 1.377 . S
C2013 C2014 1.379 . S
C2014 H1998 0.931 . S
C2014 C2008 1.383 . S
C2014 C2013 1.379 . S
H2015 C2009 0.959 . S
H2016 C2009 0.961 . S
H2017 C2009 0.960 . S
H2018 C2010 0.930 . S
H2019 C2011 0.929 . S
H2020 C2028 0.929 . S
H2021 C2030 0.930 . S
H2022 C2032 0.930 . S
H2023 C2035 0.929 . S
H2024 C2038 0.930 . S
H2025 C2040 0.960 . S
H2026 C2040 0.960 . S
H2027 C2040 0.960 . S
C2028 H2020 0.929 . S
C2028 C2029 1.377 . S
C2028 C2030 1.384 . S
C2029 C2028 1.377 . S
C2029 C2035 1.390 . S
C2030 H2021 0.930 . S
C2030 C2028 1.384 . S
C2030 C2031 1.372 . S
C2031 C2030 1.372 . S
C2031 C2032 1.400 . S
C2031 C2036 1.490 . S
C2032 H2022 0.930 . S
C2032 C2031 1.400 . S
C2032 C2035 1.386 . S
H2033 C2049 0.930 . S
H2034 C2050 0.931 . S
C2035 H2023 0.929 . S
C2035 C2029 1.390 . S
C2035 C2032 1.386 . S
C2036 C2031 1.490 . S
C2036 C2038 1.395 . S
C2036 C2039 1.403 . S
H2037 C2043 0.930 . S
C2038 H2024 0.930 . S
C2038 C2036 1.395 . S
C2038 C2041 1.403 . S
C2039 C2036 1.403 . S
C2039 C2040 1.524 . S
C2039 C2043 1.400 . S
C2040 H2025 0.960 . S
C2040 H2026 0.960 . S
C2040 H2027 0.960 . S
C2040 C2039 1.524 . S
C2041 C2038 1.403 . S
C2041 C2042 1.392 . S
C2041 C2045 1.495 . S
C2042 C2041 1.392 . S
C2042 C2043 1.385 . S
C2042 C2044 1.478 . S
C2043 H2037 0.930 . S
C2043 C2039 1.400 . S
C2043 C2042 1.385 . S
C2044 C2042 1.478 . S
C2044 C2046 1.381 . S
C2044 C2050 1.383 . S
C2045 C2041 1.495 . S
C2045 H2051 0.959 . S
C2045 H2052 0.961 . S
C2045 H2053 0.960 . S
C2046 C2044 1.381 . S
C2046 C2047 1.394 . S
C2046 H2054 0.930 . S
C2047 C2046 1.394 . S
C2047 C2048 1.383 . S
C2047 H2055 0.929 . S
C2048 C2047 1.383 . S
C2048 C2049 1.377 . S
C2049 H2033 0.930 . S
C2049 C2048 1.377 . S
C2049 C2050 1.379 . S
C2050 H2034 0.931 . S
C2050 C2044 1.383 . S
C2050 C2049 1.379 . S
H2051 C2045 0.959 . S
H2052 C2045 0.961 . S
H2053 C2045 0.960 . S
H2054 C2046 0.930 . S
H2055 C2047 0.929 . S
H2056 C2064 0.929 . S
H2057 C2066 0.930 . S
H2058 C2068 0.930 . S
H2059 C2071 0.929 . S
H2060 C2074 0.930 . S
H2061 C2076 0.960 . S
H2062 C2076 0.960 . S
H2063 C2076 0.960 . S
C2064 H2056 0.929 . S
C2064 C2065 1.377 . S
C2064 C2066 1.384 . S
C2065 C2064 1.377 . S
C2065 C2071 1.390 . S
C2066 H2057 0.930 . S
C2066 C2064 1.384 . S
C2066 C2067 1.372 . S
C2067 C2066 1.372 . S
C2067 C2068 1.400 . S
C2067 C2072 1.490 . S
C2068 H2058 0.930 . S
C2068 C2067 1.400 . S
C2068 C2071 1.386 . S
H2069 C2085 0.930 . S
H2070 C2086 0.931 . S
C2071 H2059 0.929 . S
C2071 C2065 1.390 . S
C2071 C2068 1.386 . S
C2072 C2067 1.490 . S
C2072 C2074 1.395 . S
C2072 C2075 1.403 . S
H2073 C2079 0.930 . S
C2074 H2060 0.930 . S
C2074 C2072 1.395 . S
C2074 C2077 1.403 . S
C2075 C2072 1.403 . S
C2075 C2076 1.524 . S
C2075 C2079 1.400 . S
C2076 H2061 0.960 . S
C2076 H2062 0.960 . S
C2076 H2063 0.960 . S
C2076 C2075 1.524 . S
C2077 C2074 1.403 . S
C2077 C2078 1.392 . S
C2077 C2081 1.495 . S
C2078 C2077 1.392 . S
C2078 C2079 1.385 . S
C2078 C2080 1.478 . S
C2079 H2073 0.930 . S
C2079 C2075 1.400 . S
C2079 C2078 1.385 . S
C2080 C2078 1.478 . S
C2080 C2082 1.381 . S
C2080 C2086 1.383 . S
C2081 C2077 1.495 . S
C2081 H2087 0.959 . S
C2081 H2088 0.961 . S
C2081 H2089 0.960 . S
C2082 C2080 1.381 . S
C2082 C2083 1.394 . S
C2082 H2090 0.930 . S
C2083 C2082 1.394 . S
C2083 C2084 1.383 . S
C2083 H2091 0.929 . S
C2084 C2083 1.383 . S
C2084 C2085 1.377 . S
C2085 H2069 0.930 . S
C2085 C2084 1.377 . S
C2085 C2086 1.379 . S
C2086 H2070 0.931 . S
C2086 C2080 1.383 . S
C2086 C2085 1.379 . S
H2087 C2081 0.959 . S
H2088 C2081 0.961 . S
H2089 C2081 0.960 . S
H2090 C2082 0.930 . S
H2091 C2083 0.929 . S
H2092 C2100 0.929 . S
H2093 C2102 0.930 . S
H2094 C2104 0.930 . S
H2095 C2107 0.929 . S
H2096 C2110 0.930 . S
H2097 C2112 0.960 . S
H2098 C2112 0.960 . S
H2099 C2112 0.960 . S
C2100 H2092 0.929 . S
C2100 C2101 1.377 . S
C2100 C2102 1.384 . S
C2101 C2100 1.377 . S
C2101 C2107 1.390 . S
C2102 H2093 0.930 . S
C2102 C2100 1.384 . S
C2102 C2103 1.372 . S
C2103 C2102 1.372 . S
C2103 C2104 1.400 . S
C2103 C2108 1.490 . S
C2104 H2094 0.930 . S
C2104 C2103 1.400 . S
C2104 C2107 1.386 . S
H2105 C2121 0.930 . S
H2106 C2122 0.931 . S
C2107 H2095 0.929 . S
C2107 C2101 1.390 . S
C2107 C2104 1.386 . S
C2108 C2103 1.490 . S
C2108 C2110 1.395 . S
C2108 C2111 1.403 . S
H2109 C2115 0.930 . S
C2110 H2096 0.930 . S
C2110 C2108 1.395 . S
C2110 C2113 1.403 . S
C2111 C2108 1.403 . S
C2111 C2112 1.524 . S
C2111 C2115 1.400 . S
C2112 H2097 0.960 . S
C2112 H2098 0.960 . S
C2112 H2099 0.960 . S
C2112 C2111 1.524 . S
C2113 C2110 1.403 . S
C2113 C2114 1.392 . S
C2113 C2117 1.495 . S
C2114 C2113 1.392 . S
C2114 C2115 1.385 . S
C2114 C2116 1.478 . S
C2115 H2109 0.930 . S
C2115 C2111 1.400 . S
C2115 C2114 1.385 . S
C2116 C2114 1.478 . S
C2116 C2118 1.381 . S
C2116 C2122 1.383 . S
C2117 C2113 1.495 . S
C2117 H2123 0.959 . S
C2117 H2124 0.961 . S
C2117 H2125 0.960 . S
C2118 C2116 1.381 . S
C2118 C2119 1.394 . S
C2118 H2126 0.930 . S
C2119 C2118 1.394 . S
C2119 C2120 1.383 . S
C2119 H2127 0.929 . S
C2120 C2119 1.383 . S
C2120 C2121 1.377 . S
C2121 H2105 0.930 . S
C2121 C2120 1.377 . S
C2121 C2122 1.379 . S
C2122 H2106 0.931 . S
C2122 C2116 1.383 . S
C2122 C2121 1.379 . S
H2123 C2117 0.959 . S
H2124 C2117 0.961 . S
H2125 C2117 0.960 . S
H2126 C2118 0.930 . S
H2127 C2119 0.929 . S
H2128 C2136 0.929 . S
H2129 C2138 0.930 . S
H2130 C2140 0.930 . S
H2131 C2143 0.929 . S
H2132 C2146 0.930 . S
H2133 C2148 1.010 . S
H2134 C2148 0.951 1_556 S
H2135 C2148 0.925 1_556 S
C2136 H2128 0.929 . S
C2136 C2137 1.377 . S
C2136 C2138 1.384 . S
C2137 C2136 1.377 . S
C2137 C2143 1.390 . S
C2138 H2129 0.930 . S
C2138 C2136 1.384 . S
C2138 C2139 1.372 . S
C2139 C2138 1.372 . S
C2139 C2140 1.400 . S
C2139 C2144 1.490 . S
C2140 H2130 0.930 . S
C2140 C2139 1.400 . S
C2140 C2143 1.386 . S
H2141 C2157 0.930 . S
H2142 C2158 0.931 . S
C2143 H2131 0.929 . S
C2143 C2137 1.390 . S
C2143 C2140 1.386 . S
C2144 C2139 1.490 . S
C2144 C2146 1.395 . S
C2144 C2147 1.424 . S
H2145 C2151 0.930 . S
C2146 H2132 0.930 . S
C2146 C2144 1.395 . S
C2146 C2149 1.433 . S
C2147 C2144 1.424 . S
C2147 C2148 1.521 1_556 S
C2147 C2151 1.380 1_556 S
C2148 H2133 1.010 . S
C2148 H2134 0.951 1_554 S
C2148 H2135 0.925 1_554 S
C2148 C2147 1.521 1_554 S
C2149 C2146 1.433 . S
C2149 C2150 1.362 1_556 S
C2149 C2153 1.497 . S
C2150 C2149 1.362 1_554 S
C2150 C2151 1.385 . S
C2150 C2152 1.478 . S
C2151 H2145 0.930 . S
C2151 C2147 1.380 1_554 S
C2151 C2150 1.385 . S
C2152 C2150 1.478 . S
C2152 C2154 1.381 . S
C2152 C2158 1.383 . S
C2153 C2149 1.497 . S
C2153 H2159 0.959 . S
C2153 H2160 0.961 1_556 S
C2153 H2161 0.960 1_556 S
C2154 C2152 1.381 . S
C2154 C2155 1.394 . S
C2154 H2162 0.930 . S
C2155 C2154 1.394 . S
C2155 C2156 1.383 . S
C2155 H2163 0.929 . S
C2156 C2155 1.383 . S
C2156 C2157 1.377 . S
C2157 H2141 0.930 . S
C2157 C2156 1.377 . S
C2157 C2158 1.379 . S
C2158 H2142 0.931 . S
C2158 C2152 1.383 . S
C2158 C2157 1.379 . S
H2159 C2153 0.959 . S
H2160 C2153 0.961 1_554 S
H2161 C2153 0.960 1_554 S
H2162 C2154 0.930 . S
H2163 C2155 0.929 . S
H2164 C2172 0.929 . S
H2165 C2174 0.930 . S
H2166 C2176 0.930 . S
H2167 C2179 0.929 . S
H2168 C2182 0.930 . S
H2169 C2184 0.960 . S
H2170 C2184 0.960 . S
H2171 C2184 0.960 . S
C2172 H2164 0.929 . S
C2172 C2173 1.377 . S
C2172 C2174 1.384 . S
C2173 C2172 1.377 . S
C2173 C2179 1.390 . S
C2174 H2165 0.930 . S
C2174 C2172 1.384 . S
C2174 C2175 1.372 . S
C2175 C2174 1.372 . S
C2175 C2176 1.400 . S
C2175 C2180 1.490 . S
C2176 H2166 0.930 . S
C2176 C2175 1.400 . S
C2176 C2179 1.386 . S
H2177 C2193 0.930 . S
H2178 C2194 0.931 . S
C2179 H2167 0.929 . S
C2179 C2173 1.390 . S
C2179 C2176 1.386 . S
C2180 C2175 1.490 . S
C2180 C2182 1.395 . S
C2180 C2183 1.403 . S
H2181 C2187 0.930 . S
C2182 H2168 0.930 . S
C2182 C2180 1.395 . S
C2182 C2185 1.403 . S
C2183 C2180 1.403 . S
C2183 C2184 1.524 . S
C2183 C2187 1.400 . S
C2184 H2169 0.960 . S
C2184 H2170 0.960 . S
C2184 H2171 0.960 . S
C2184 C2183 1.524 . S
C2185 C2182 1.403 . S
C2185 C2186 1.392 . S
C2185 C2189 1.495 . S
C2186 C2185 1.392 . S
C2186 C2187 1.385 . S
C2186 C2188 1.478 . S
C2187 H2181 0.930 . S
C2187 C2183 1.400 . S
C2187 C2186 1.385 . S
C2188 C2186 1.478 . S
C2188 C2190 1.381 . S
C2188 C2194 1.383 . S
C2189 C2185 1.495 . S
C2189 H2195 0.959 . S
C2189 H2196 0.961 . S
C2189 H2197 0.960 . S
C2190 C2188 1.381 . S
C2190 C2191 1.394 . S
C2190 H2198 0.930 . S
C2191 C2190 1.394 . S
C2191 C2192 1.383 . S
C2191 H2199 0.929 . S
C2192 C2191 1.383 . S
C2192 C2193 1.377 . S
C2193 H2177 0.930 . S
C2193 C2192 1.377 . S
C2193 C2194 1.379 . S
C2194 H2178 0.931 . S
C2194 C2188 1.383 . S
C2194 C2193 1.379 . S
H2195 C2189 0.959 . S
H2196 C2189 0.961 . S
H2197 C2189 0.960 . S
H2198 C2190 0.930 . S
H2199 C2191 0.929 . S
H2200 C2208 0.929 . S
H2201 C2210 0.930 . S
H2202 C2212 0.930 . S
H2203 C2215 0.929 . S
H2204 C2218 0.930 . S
H2205 C2220 0.960 . S
H2206 C2220 0.960 . S
H2207 C2220 0.960 . S
C2208 H2200 0.929 . S
C2208 C2209 1.377 . S
C2208 C2210 1.384 . S
C2209 C2208 1.377 . S
C2209 C2215 1.390 . S
C2210 H2201 0.930 . S
C2210 C2208 1.384 . S
C2210 C2211 1.372 . S
C2211 C2210 1.372 . S
C2211 C2212 1.400 . S
C2211 C2216 1.490 . S
C2212 H2202 0.930 . S
C2212 C2211 1.400 . S
C2212 C2215 1.386 . S
H2213 C2229 0.930 . S
H2214 C2230 0.931 . S
C2215 H2203 0.929 . S
C2215 C2209 1.390 . S
C2215 C2212 1.386 . S
C2216 C2211 1.490 . S
C2216 C2218 1.395 . S
C2216 C2219 1.403 . S
H2217 C2223 0.930 . S
C2218 H2204 0.930 . S
C2218 C2216 1.395 . S
C2218 C2221 1.403 . S
C2219 C2216 1.403 . S
C2219 C2220 1.524 . S
C2219 C2223 1.400 . S
C2220 H2205 0.960 . S
C2220 H2206 0.960 . S
C2220 H2207 0.960 . S
C2220 C2219 1.524 . S
C2221 C2218 1.403 . S
C2221 C2222 1.392 . S
C2221 C2225 1.495 . S
C2222 C2221 1.392 . S
C2222 C2223 1.385 . S
C2222 C2224 1.478 . S
C2223 H2217 0.930 . S
C2223 C2219 1.400 . S
C2223 C2222 1.385 . S
C2224 C2222 1.478 . S
C2224 C2226 1.381 . S
C2224 C2230 1.383 . S
C2225 C2221 1.495 . S
C2225 H2231 0.959 . S
C2225 H2232 0.961 . S
C2225 H2233 0.960 . S
C2226 C2224 1.381 . S
C2226 C2227 1.394 . S
C2226 H2234 0.930 . S
C2227 C2226 1.394 . S
C2227 C2228 1.383 . S
C2227 H2235 0.929 . S
C2228 C2227 1.383 . S
C2228 C2229 1.377 . S
C2229 H2213 0.930 . S
C2229 C2228 1.377 . S
C2229 C2230 1.379 . S
C2230 H2214 0.931 . S
C2230 C2224 1.383 . S
C2230 C2229 1.379 . S
H2231 C2225 0.959 . S
H2232 C2225 0.961 . S
H2233 C2225 0.960 . S
H2234 C2226 0.930 . S
H2235 C2227 0.929 . S
H2236 C2244 0.929 . S
H2237 C2246 0.930 . S
H2238 C2248 0.930 . S
H2239 C2251 0.929 . S
H2240 C2254 0.930 . S
H2241 C2256 0.960 . S
H2242 C2256 0.960 . S
H2243 C2256 0.960 . S
C2244 H2236 0.929 . S
C2244 C2245 1.377 . S
C2244 C2246 1.384 . S
C2245 C2244 1.377 . S
C2245 C2251 1.390 . S
C2246 H2237 0.930 . S
C2246 C2244 1.384 . S
C2246 C2247 1.372 . S
C2247 C2246 1.372 . S
C2247 C2248 1.400 . S
C2247 C2252 1.490 . S
C2248 H2238 0.930 . S
C2248 C2247 1.400 . S
C2248 C2251 1.386 . S
H2249 C2265 0.930 . S
H2250 C2266 0.931 . S
C2251 H2239 0.929 . S
C2251 C2245 1.390 . S
C2251 C2248 1.386 . S
C2252 C2247 1.490 . S
C2252 C2254 1.395 . S
C2252 C2255 1.403 . S
H2253 C2259 0.930 . S
C2254 H2240 0.930 . S
C2254 C2252 1.395 . S
C2254 C2257 1.403 . S
C2255 C2252 1.403 . S
C2255 C2256 1.524 . S
C2255 C2259 1.400 . S
C2256 H2241 0.960 . S
C2256 H2242 0.960 . S
C2256 H2243 0.960 . S
C2256 C2255 1.524 . S
C2257 C2254 1.403 . S
C2257 C2258 1.392 . S
C2257 C2261 1.495 . S
C2258 C2257 1.392 . S
C2258 C2259 1.385 . S
C2258 C2260 1.478 . S
C2259 H2253 0.930 . S
C2259 C2255 1.400 . S
C2259 C2258 1.385 . S
C2260 C2258 1.478 . S
C2260 C2262 1.381 . S
C2260 C2266 1.383 . S
C2261 C2257 1.495 . S
C2261 H2267 0.959 . S
C2261 H2268 0.961 . S
C2261 H2269 0.960 . S
C2262 C2260 1.381 . S
C2262 C2263 1.394 . S
C2262 H2270 0.930 . S
C2263 C2262 1.394 . S
C2263 C2264 1.383 . S
C2263 H2271 0.929 . S
C2264 C2263 1.383 . S
C2264 C2265 1.377 . S
C2265 H2249 0.930 . S
C2265 C2264 1.377 . S
C2265 C2266 1.379 . S
C2266 H2250 0.931 . S
C2266 C2260 1.383 . S
C2266 C2265 1.379 . S
H2267 C2261 0.959 . S
H2268 C2261 0.961 . S
H2269 C2261 0.960 . S
H2270 C2262 0.930 . S
H2271 C2263 0.929 . S
H2272 C2280 0.929 . S
H2273 C2282 0.930 . S
H2274 C2284 0.930 . S
H2275 C2287 0.929 . S
H2276 C2290 0.930 . S
H2277 C2292 0.960 . S
H2278 C2292 0.960 . S
H2279 C2292 0.960 . S
C2280 H2272 0.929 . S
C2280 C2281 1.377 . S
C2280 C2282 1.384 . S
C2281 C2280 1.377 . S
C2281 C2287 1.390 . S
C2282 H2273 0.930 . S
C2282 C2280 1.384 . S
C2282 C2283 1.372 . S
C2283 C2282 1.372 . S
C2283 C2284 1.400 . S
C2283 C2288 1.490 . S
C2284 H2274 0.930 . S
C2284 C2283 1.400 . S
C2284 C2287 1.386 . S
H2285 C2301 0.930 . S
H2286 C2302 0.931 . S
C2287 H2275 0.929 . S
C2287 C2281 1.390 . S
C2287 C2284 1.386 . S
C2288 C2283 1.490 . S
C2288 C2290 1.395 . S
C2288 C2291 1.403 1_545 S
H2289 C2295 0.930 . S
C2290 H2276 0.930 . S
C2290 C2288 1.395 . S
C2290 C2293 1.403 . S
C2291 C2288 1.403 1_565 S
C2291 C2292 1.524 . S
C2291 C2295 1.400 . S
C2292 H2277 0.960 . S
C2292 H2278 0.960 . S
C2292 H2279 0.960 . S
C2292 C2291 1.524 . S
C2293 C2290 1.403 . S
C2293 C2294 1.392 1_545 S
C2293 C2297 1.495 . S
C2294 C2293 1.392 1_565 S
C2294 C2295 1.385 . S
C2294 C2296 1.478 . S
C2295 H2289 0.930 . S
C2295 C2291 1.400 . S
C2295 C2294 1.385 . S
C2296 C2294 1.478 . S
C2296 C2298 1.381 . S
C2296 C2302 1.383 . S
C2297 C2293 1.495 . S
C2297 H2303 0.959 . S
C2297 H2304 0.961 . S
C2297 H2305 0.960 . S
C2298 C2296 1.381 . S
C2298 C2299 1.394 . S
C2298 H2306 0.930 . S
C2299 C2298 1.394 . S
C2299 C2300 1.383 . S
C2299 H2307 0.929 . S
C2300 C2299 1.383 . S
C2300 C2301 1.377 . S
C2301 H2285 0.930 . S
C2301 C2300 1.377 . S
C2301 C2302 1.379 . S
C2302 H2286 0.931 . S
C2302 C2296 1.383 . S
C2302 C2301 1.379 . S
H2303 C2297 0.959 . S
H2304 C2297 0.961 . S
H2305 C2297 0.960 . S
H2306 C2298 0.930 . S
H2307 C2299 0.929 . S
H2308 C2316 0.929 . S
H2309 C2318 0.930 . S
H2310 C2320 0.930 . S
H2311 C2323 0.929 . S
H2312 C2326 0.930 . S
H2313 C2328 0.960 . S
H2314 C2328 0.960 . S
H2315 C2328 0.960 . S
C2316 H2308 0.929 . S
C2316 C2317 1.377 . S
C2316 C2318 1.384 . S
C2317 C2316 1.377 . S
C2317 C2323 1.390 . S
C2318 H2309 0.930 . S
C2318 C2316 1.384 . S
C2318 C2319 1.372 . S
C2319 C2318 1.372 . S
C2319 C2320 1.400 . S
C2319 C2324 1.490 . S
C2320 H2310 0.930 . S
C2320 C2319 1.400 . S
C2320 C2323 1.386 . S
H2321 C2337 0.930 . S
H2322 C2338 0.931 . S
C2323 H2311 0.929 . S
C2323 C2317 1.390 . S
C2323 C2320 1.386 . S
C2324 C2319 1.490 . S
C2324 C2326 1.395 . S
C2324 C2327 1.403 . S
H2325 C2331 0.930 . S
C2326 H2312 0.930 . S
C2326 C2324 1.395 . S
C2326 C2329 1.403 . S
C2327 C2324 1.403 . S
C2327 C2328 1.524 . S
C2327 C2331 1.400 . S
C2328 H2313 0.960 . S
C2328 H2314 0.960 . S
C2328 H2315 0.960 . S
C2328 C2327 1.524 . S
C2329 C2326 1.403 . S
C2329 C2330 1.392 . S
C2329 C2333 1.495 . S
C2330 C2329 1.392 . S
C2330 C2331 1.385 . S
C2330 C2332 1.478 . S
C2331 H2325 0.930 . S
C2331 C2327 1.400 . S
C2331 C2330 1.385 . S
C2332 C2330 1.478 . S
C2332 C2334 1.381 . S
C2332 C2338 1.383 . S
C2333 C2329 1.495 . S
C2333 H2339 0.959 . S
C2333 H2340 0.961 . S
C2333 H2341 0.960 . S
C2334 C2332 1.381 . S
C2334 C2335 1.394 . S
C2334 H2342 0.930 . S
C2335 C2334 1.394 . S
C2335 C2336 1.383 . S
C2335 H2343 0.929 . S
C2336 C2335 1.383 . S
C2336 C2337 1.377 . S
C2337 H2321 0.930 . S
C2337 C2336 1.377 . S
C2337 C2338 1.379 . S
C2338 H2322 0.931 . S
C2338 C2332 1.383 . S
C2338 C2337 1.379 . S
H2339 C2333 0.959 . S
H2340 C2333 0.961 . S
H2341 C2333 0.960 . S
H2342 C2334 0.930 . S
H2343 C2335 0.929 . S
H2344 C2352 0.929 . S
H2345 C2354 0.930 . S
H2346 C2356 0.930 . S
H2347 C2359 0.929 . S
H2348 C2362 0.930 . S
H2349 C2364 0.960 . S
H2350 C2364 0.960 1_556 S
H2351 C2364 0.960 1_556 S
C2352 H2344 0.929 . S
C2352 C2353 1.377 . S
C2352 C2354 1.384 . S
C2353 C2352 1.377 . S
C2353 C2359 1.390 . S
C2354 H2345 0.930 . S
C2354 C2352 1.384 . S
C2354 C2355 1.372 . S
C2355 C2354 1.372 . S
C2355 C2356 1.400 . S
C2355 C2360 1.490 . S
C2356 H2346 0.930 . S
C2356 C2355 1.400 . S
C2356 C2359 1.386 . S
H2357 C2373 0.930 . S
H2358 C2374 0.931 . S
C2359 H2347 0.929 . S
C2359 C2353 1.390 . S
C2359 C2356 1.386 . S
C2360 C2355 1.490 . S
C2360 C2362 1.395 1_545 S
C2360 C2363 1.395 1_556 S
H2361 C2367 0.930 . S
C2362 H2348 0.930 . S
C2362 C2360 1.395 1_565 S
C2362 C2365 1.403 . S
C2363 C2360 1.395 1_554 S
C2363 C2364 1.525 . S
C2363 C2367 1.407 . S
C2364 H2349 0.960 . S
C2364 H2350 0.960 1_554 S
C2364 H2351 0.960 1_554 S
C2364 C2363 1.525 . S
C2365 C2362 1.403 . S
C2365 C2366 1.392 1_556 S
C2365 C2369 1.495 . S
C2366 C2365 1.392 1_554 S
C2366 C2367 1.385 1_565 S
C2366 C2368 1.478 . S
C2367 H2361 0.930 . S
C2367 C2363 1.407 . S
C2367 C2366 1.385 1_545 S
C2368 C2366 1.478 . S
C2368 C2370 1.381 . S
C2368 C2374 1.383 . S
C2369 C2365 1.495 . S
C2369 H2375 0.959 . S
C2369 H2376 0.961 1_556 S
C2369 H2377 0.960 1_556 S
C2370 C2368 1.381 . S
C2370 C2371 1.394 . S
C2370 H2378 0.930 . S
C2371 C2370 1.394 . S
C2371 C2372 1.383 . S
C2371 H2379 0.929 . S
C2372 C2371 1.383 . S
C2372 C2373 1.377 . S
C2373 H2357 0.930 . S
C2373 C2372 1.377 . S
C2373 C2374 1.379 . S
C2374 H2358 0.931 . S
C2374 C2368 1.383 . S
C2374 C2373 1.379 . S
H2375 C2369 0.959 . S
H2376 C2369 0.961 1_554 S
H2377 C2369 0.960 1_554 S
H2378 C2370 0.930 . S
H2379 C2371 0.929 . S
H2380 C2388 0.929 . S
H2381 C2390 0.930 . S
H2382 C2392 0.930 . S
H2383 C2395 0.929 . S
H2384 C2398 0.930 . S
H2385 C2400 0.960 . S
H2386 C2400 0.960 . S
H2387 C2400 0.960 . S
C2388 H2380 0.929 . S
C2388 C2389 1.377 . S
C2388 C2390 1.384 . S
C2389 C2388 1.377 . S
C2389 C2395 1.390 . S
C2390 H2381 0.930 . S
C2390 C2388 1.384 . S
C2390 C2391 1.372 . S
C2391 C2390 1.372 . S
C2391 C2392 1.400 . S
C2391 C2396 1.490 . S
C2392 H2382 0.930 . S
C2392 C2391 1.400 . S
C2392 C2395 1.386 . S
H2393 C2409 0.930 . S
H2394 C2410 0.931 . S
C2395 H2383 0.929 . S
C2395 C2389 1.390 . S
C2395 C2392 1.386 . S
C2396 C2391 1.490 . S
C2396 C2398 1.395 . S
C2396 C2399 1.403 . S
H2397 C2403 0.930 . S
C2398 H2384 0.930 . S
C2398 C2396 1.395 . S
C2398 C2401 1.403 . S
C2399 C2396 1.403 . S
C2399 C2400 1.524 . S
C2399 C2403 1.400 . S
C2400 H2385 0.960 . S
C2400 H2386 0.960 . S
C2400 H2387 0.960 . S
C2400 C2399 1.524 . S
C2401 C2398 1.403 . S
C2401 C2402 1.392 . S
C2401 C2405 1.495 . S
C2402 C2401 1.392 . S
C2402 C2403 1.385 . S
C2402 C2404 1.478 . S
C2403 H2397 0.930 . S
C2403 C2399 1.400 . S
C2403 C2402 1.385 . S
C2404 C2402 1.478 . S
C2404 C2406 1.381 . S
C2404 C2410 1.383 . S
C2405 C2401 1.495 . S
C2405 H2411 0.959 . S
C2405 H2412 0.961 . S
C2405 H2413 0.960 . S
C2406 C2404 1.381 . S
C2406 C2407 1.394 . S
C2406 H2414 0.930 . S
C2407 C2406 1.394 . S
C2407 C2408 1.383 . S
C2407 H2415 0.929 . S
C2408 C2407 1.383 . S
C2408 C2409 1.377 . S
C2409 H2393 0.930 . S
C2409 C2408 1.377 . S
C2409 C2410 1.379 . S
C2410 H2394 0.931 . S
C2410 C2404 1.383 . S
C2410 C2409 1.379 . S
H2411 C2405 0.959 . S
H2412 C2405 0.961 . S
H2413 C2405 0.960 . S
H2414 C2406 0.930 . S
H2415 C2407 0.929 . S
H2416 C2424 0.929 . S
H2417 C2426 0.930 . S
H2418 C2428 0.930 . S
H2419 C2431 0.929 . S
H2420 C2434 0.930 . S
H2421 C2436 0.960 . S
H2422 C2436 0.960 . S
H2423 C2436 0.960 . S
C2424 H2416 0.929 . S
C2424 C2425 1.377 . S
C2424 C2426 1.384 . S
C2425 C2424 1.377 . S
C2425 C2431 1.390 . S
C2426 H2417 0.930 . S
C2426 C2424 1.384 . S
C2426 C2427 1.372 . S
C2427 C2426 1.372 . S
C2427 C2428 1.400 . S
C2427 C2432 1.490 . S
C2428 H2418 0.930 . S
C2428 C2427 1.400 . S
C2428 C2431 1.386 . S
H2429 C2445 0.930 . S
H2430 C2446 0.931 . S
C2431 H2419 0.929 . S
C2431 C2425 1.390 . S
C2431 C2428 1.386 . S
C2432 C2427 1.490 . S
C2432 C2434 1.395 . S
C2432 C2435 1.403 1_545 S
H2433 C2439 0.930 . S
C2434 H2420 0.930 . S
C2434 C2432 1.395 . S
C2434 C2437 1.403 . S
C2435 C2432 1.403 1_565 S
C2435 C2436 1.524 . S
C2435 C2439 1.400 . S
C2436 H2421 0.960 . S
C2436 H2422 0.960 . S
C2436 H2423 0.960 . S
C2436 C2435 1.524 . S
C2437 C2434 1.403 . S
C2437 C2438 1.392 1_545 S
C2437 C2441 1.495 . S
C2438 C2437 1.392 1_565 S
C2438 C2439 1.385 . S
C2438 C2440 1.478 . S
C2439 H2433 0.930 . S
C2439 C2435 1.400 . S
C2439 C2438 1.385 . S
C2440 C2438 1.478 . S
C2440 C2442 1.381 . S
C2440 C2446 1.383 . S
C2441 C2437 1.495 . S
C2441 H2447 0.959 . S
C2441 H2448 0.961 . S
C2441 H2449 0.960 . S
C2442 C2440 1.381 . S
C2442 C2443 1.394 . S
C2442 H2450 0.930 . S
C2443 C2442 1.394 . S
C2443 C2444 1.383 . S
C2443 H2451 0.929 . S
C2444 C2443 1.383 . S
C2444 C2445 1.377 . S
C2445 H2429 0.930 . S
C2445 C2444 1.377 . S
C2445 C2446 1.379 . S
C2446 H2430 0.931 . S
C2446 C2440 1.383 . S
C2446 C2445 1.379 . S
H2447 C2441 0.959 . S
H2448 C2441 0.961 . S
H2449 C2441 0.960 . S
H2450 C2442 0.930 . S
H2451 C2443 0.929 . S
H2452 C2460 0.929 . S
H2453 C2462 0.930 . S
H2454 C2464 0.930 . S
H2455 C2467 0.929 . S
H2456 C2470 0.930 . S
H2457 C2472 0.960 . S
H2458 C2472 0.960 . S
H2459 C2472 0.960 . S
C2460 H2452 0.929 . S
C2460 C2461 1.377 . S
C2460 C2462 1.384 . S
C2461 C2460 1.377 . S
C2461 C2467 1.390 . S
C2462 H2453 0.930 . S
C2462 C2460 1.384 . S
C2462 C2463 1.372 . S
C2463 C2462 1.372 . S
C2463 C2464 1.400 . S
C2463 C2468 1.490 . S
C2464 H2454 0.930 . S
C2464 C2463 1.400 . S
C2464 C2467 1.386 . S
H2465 C2481 0.930 . S
H2466 C2482 0.931 . S
C2467 H2455 0.929 . S
C2467 C2461 1.390 . S
C2467 C2464 1.386 . S
C2468 C2463 1.490 . S
C2468 C2470 1.395 . S
C2468 C2471 1.403 . S
H2469 C2475 0.930 . S
C2470 H2456 0.930 . S
C2470 C2468 1.395 . S
C2470 C2473 1.403 . S
C2471 C2468 1.403 . S
C2471 C2472 1.524 . S
C2471 C2475 1.400 . S
C2472 H2457 0.960 . S
C2472 H2458 0.960 . S
C2472 H2459 0.960 . S
C2472 C2471 1.524 . S
C2473 C2470 1.403 . S
C2473 C2474 1.392 . S
C2473 C2477 1.495 . S
C2474 C2473 1.392 . S
C2474 C2475 1.385 . S
C2474 C2476 1.478 . S
C2475 H2469 0.930 . S
C2475 C2471 1.400 . S
C2475 C2474 1.385 . S
C2476 C2474 1.478 . S
C2476 C2478 1.381 . S
C2476 C2482 1.383 . S
C2477 C2473 1.495 . S
C2477 H2483 0.959 . S
C2477 H2484 0.961 . S
C2477 H2485 0.960 . S
C2478 C2476 1.381 . S
C2478 C2479 1.394 . S
C2478 H2486 0.930 . S
C2479 C2478 1.394 . S
C2479 C2480 1.383 . S
C2479 H2487 0.929 . S
C2480 C2479 1.383 . S
C2480 C2481 1.377 . S
C2481 H2465 0.930 . S
C2481 C2480 1.377 . S
C2481 C2482 1.379 . S
C2482 H2466 0.931 . S
C2482 C2476 1.383 . S
C2482 C2481 1.379 . S
H2483 C2477 0.959 . S
H2484 C2477 0.961 . S
H2485 C2477 0.960 . S
H2486 C2478 0.930 . S
H2487 C2479 0.929 . S
H2488 C2496 0.929 . S
H2489 C2498 0.930 . S
H2490 C2500 0.930 1_545 S
H2491 C2503 0.929 . S
H2492 C2506 0.930 . S
H2493 C2508 0.960 . S
H2494 C2508 0.960 1_565 S
H2495 C2508 0.960 . S
C2496 H2488 0.929 . S
C2496 C2497 1.377 . S
C2496 C2498 1.384 . S
C2497 C2496 1.377 . S
C2497 C2503 1.390 . S
C2498 H2489 0.930 . S
C2498 C2496 1.384 . S
C2498 C2499 1.372 . S
C2499 C2498 1.372 . S
C2499 C2500 1.400 . S
C2499 C2504 1.490 . S
C2500 H2490 0.930 1_565 S
C2500 C2499 1.400 . S
C2500 C2503 1.386 . S
H2501 C2517 0.930 . S
H2502 C2518 0.931 . S
C2503 H2491 0.929 . S
C2503 C2497 1.390 . S
C2503 C2500 1.386 . S
C2504 C2499 1.490 . S
C2504 C2506 1.395 . S
C2504 C2507 1.403 1_565 S
H2505 C2511 0.930 . S
C2506 H2492 0.930 . S
C2506 C2504 1.395 . S
C2506 C2509 1.403 1_554 S
C2507 C2504 1.403 1_545 S
C2507 C2508 1.524 . S
C2507 C2511 1.400 1_554 S
C2508 H2493 0.960 . S
C2508 H2494 0.960 1_545 S
C2508 H2495 0.960 . S
C2508 C2507 1.524 . S
C2509 C2506 1.403 1_556 S
C2509 C2510 1.392 1_565 S
C2509 C2513 1.495 . S
C2510 C2509 1.392 1_545 S
C2510 C2511 1.385 . S
C2510 C2512 1.478 . S
C2511 H2505 0.930 . S
C2511 C2507 1.400 1_556 S
C2511 C2510 1.385 . S
C2512 C2510 1.478 . S
C2512 C2514 1.381 . S
C2512 C2518 1.383 . S
C2513 C2509 1.495 . S
C2513 H2519 0.959 . S
C2513 H2520 0.961 . S
C2513 H2521 0.960 . S
C2514 C2512 1.381 . S
C2514 C2515 1.394 . S
C2514 H2522 0.930 1_545 S
C2515 C2514 1.394 . S
C2515 C2516 1.383 . S
C2515 H2523 0.929 . S
C2516 C2515 1.383 . S
C2516 C2517 1.377 . S
C2517 H2501 0.930 . S
C2517 C2516 1.377 . S
C2517 C2518 1.379 . S
C2518 H2502 0.931 . S
C2518 C2512 1.383 . S
C2518 C2517 1.379 . S
H2519 C2513 0.959 . S
H2520 C2513 0.961 . S
H2521 C2513 0.960 . S
H2522 C2514 0.930 1_565 S
H2523 C2515 0.929 . S
H2524 C2532 0.929 . S
H2525 C2534 0.930 . S
H2526 C2536 0.930 . S
H2527 C2539 0.929 . S
H2528 C2542 0.930 . S
H2529 C2544 0.960 . S
H2530 C2544 0.960 . S
H2531 C2544 0.960 . S
C2532 H2524 0.929 . S
C2532 C2533 1.377 . S
C2532 C2534 1.384 . S
C2533 C2532 1.377 . S
C2533 C2539 1.390 . S
C2534 H2525 0.930 . S
C2534 C2532 1.384 . S
C2534 C2535 1.372 . S
C2535 C2534 1.372 . S
C2535 C2536 1.400 . S
C2535 C2540 1.490 . S
C2536 H2526 0.930 . S
C2536 C2535 1.400 . S
C2536 C2539 1.386 . S
H2537 C2553 0.930 . S
H2538 C2554 0.931 . S
C2539 H2527 0.929 . S
C2539 C2533 1.390 . S
C2539 C2536 1.386 . S
C2540 C2535 1.490 . S
C2540 C2542 1.395 . S
C2540 C2543 1.403 . S
H2541 C2547 0.930 . S
C2542 H2528 0.930 . S
C2542 C2540 1.395 . S
C2542 C2545 1.403 . S
C2543 C2540 1.403 . S
C2543 C2544 1.524 . S
C2543 C2547 1.400 . S
C2544 H2529 0.960 . S
C2544 H2530 0.960 . S
C2544 H2531 0.960 . S
C2544 C2543 1.524 . S
C2545 C2542 1.403 . S
C2545 C2546 1.392 . S
C2545 C2549 1.495 . S
C2546 C2545 1.392 . S
C2546 C2547 1.385 . S
C2546 C2548 1.478 . S
C2547 H2541 0.930 . S
C2547 C2543 1.400 . S
C2547 C2546 1.385 . S
C2548 C2546 1.478 . S
C2548 C2550 1.381 . S
C2548 C2554 1.383 . S
C2549 C2545 1.495 . S
C2549 H2555 0.959 . S
C2549 H2556 0.961 . S
C2549 H2557 0.960 . S
C2550 C2548 1.381 . S
C2550 C2551 1.394 . S
C2550 H2558 0.930 . S
C2551 C2550 1.394 . S
C2551 C2552 1.383 . S
C2551 H2559 0.929 . S
C2552 C2551 1.383 . S
C2552 C2553 1.377 . S
C2553 H2537 0.930 . S
C2553 C2552 1.377 . S
C2553 C2554 1.379 . S
C2554 H2538 0.931 . S
C2554 C2548 1.383 . S
C2554 C2553 1.379 . S
H2555 C2549 0.959 . S
H2556 C2549 0.961 . S
H2557 C2549 0.960 . S
H2558 C2550 0.930 . S
H2559 C2551 0.929 . S
C1417 C1017 1.440 . S
C1436 C20 1.426 . S
C1453 C1369 1.438 . S
C1472 C108 1.430 . S
C1489 C225 1.440 . S
C1508 C812 1.425 . S
C1525 C1164 1.437 . S
C1544 C321 1.446 . S
C1561 C409 1.439 . S
C1580 C1173 1.444 . S
C1597 C469 1.439 . S
C1616 C1025 1.445 . S
C1633 C548 1.439 . S
C1652 C1377 1.445 . S
C1669 C673 1.438 . S
C1688 C821 1.435 . S
C1705 C284 1.441 . S
C1724 C761 1.428 . S
C1741 C900 1.438 . S
C1760 C145 1.446 . S
C1777 C1076 1.436 . S
C1796 C489 1.439 . S
C1813 C1281 1.440 . S
C1832 C636 1.440 . S
C1849 C372 1.439 . S
C1868 C753 1.445 . S
C1885 C909 1.441 . S
C1904 C585 1.432 . S
C1921 C1289 1.439 . S
C1940 C205 1.444 . S
C1957 C57 1.439 . S
C1976 C1085 1.445 . S
C1993 C49 0.786 . S
C2012 C381 0.820 . S
C2029 C137 0.798 . S
C2048 C497 0.766 . S
C2065 C196 0.789 . S
C2084 C577 0.813 . S
C2101 C645 0.797 . S
C2120 C293 0.762 . S
C2137 C733 0.791 . S
C2156 C1105 0.776 . S
C2173 C1193 0.800 . S
C2192 C849 0.807 . S
C2209 C929 0.793 . S
C2228 C1252 0.816 . S
C2245 C1340 0.794 . S
C2264 C997 0.768 . S
C2281 C665 0.791 . S
C2300 C117 0.785 . S
C2317 C233 0.798 . S
C2336 C401 0.767 . S
C2353 C313 0.796 . S
C2372 C460 0.779 . S
C2389 C29 0.787 . S
C2408 C557 0.805 . S
C2425 C841 0.801 . S
C2444 C1349 0.800 . S
C2461 C1113 0.790 . S
C2480 C937 0.783 . S
C2497 C988 0.799 . S
C2516 C1201 0.779 . S
C2533 C1261 0.794 . S
C2552 C724 0.768 . S
