# Generated by pormake.
# Topology unm, (4)-cn, num edge types: 1
# Building blocks:
#     Node 0, Type 0, BuildingBlock: UXUYUI_clean_sbu_0, # of connection points: 4
#     Node 1, Type 0, BuildingBlock: UXUYUI_clean_sbu_0, # of connection points: 4
#     Node 2, Type 0, BuildingBlock: UXUYUI_clean_sbu_0, # of connection points: 4
#     Node 3, Type 0, BuildingBlock: UXUYUI_clean_sbu_0, # of connection points: 4
#     Node 4, Type 0, BuildingBlock: UXUYUI_clean_sbu_0, # of connection points: 4
#     Node 5, Type 0, BuildingBlock: UXUYUI_clean_sbu_0, # of connection points: 4
#     Node 6, Type 0, BuildingBlock: UXUYUI_clean_sbu_0, # of connection points: 4
#     Node 7, Type 0, BuildingBlock: UXUYUI_clean_sbu_0, # of connection points: 4
#     Edge 8, Type (0, 0), BuildingBlock: OJICUG_clean_linker_0, # of connection points: 2
#     Edge 9, Type (0, 0), BuildingBlock: OJICUG_clean_linker_0, # of connection points: 2
#     Edge 10, Type (0, 0), BuildingBlock: OJICUG_clean_linker_0, # of connection points: 2
#     Edge 11, Type (0, 0), BuildingBlock: OJICUG_clean_linker_0, # of connection points: 2
#     Edge 12, Type (0, 0), BuildingBlock: OJICUG_clean_linker_0, # of connection points: 2
#     Edge 13, Type (0, 0), BuildingBlock: OJICUG_clean_linker_0, # of connection points: 2
#     Edge 14, Type (0, 0), BuildingBlock: OJICUG_clean_linker_0, # of connection points: 2
#     Edge 15, Type (0, 0), BuildingBlock: OJICUG_clean_linker_0, # of connection points: 2
#     Edge 16, Type (0, 0), BuildingBlock: OJICUG_clean_linker_0, # of connection points: 2
#     Edge 17, Type (0, 0), BuildingBlock: OJICUG_clean_linker_0, # of connection points: 2
#     Edge 18, Type (0, 0), BuildingBlock: OJICUG_clean_linker_0, # of connection points: 2
#     Edge 19, Type (0, 0), BuildingBlock: OJICUG_clean_linker_0, # of connection points: 2
#     Edge 20, Type (0, 0), BuildingBlock: OJICUG_clean_linker_0, # of connection points: 2
#     Edge 21, Type (0, 0), BuildingBlock: OJICUG_clean_linker_0, # of connection points: 2
#     Edge 22, Type (0, 0), BuildingBlock: OJICUG_clean_linker_0, # of connection points: 2
#     Edge 23, Type (0, 0), BuildingBlock: OJICUG_clean_linker_0, # of connection points: 2
# Relax obj value: 0.260
# Max RMSD: 0.186
# Mean RMSD: 0.185
data_MOF--net-unm--node1-UXUYUI_clean_sbu_0--edge1-OJICUG_clean_linker_0
_symmetry_space_group_name_H-M    P1
_symmetry_Int_Tables_number       1
_symmetry_cell_setting            triclinic
loop_
_symmetry_equiv_pos_as_xyz
'x, y, z'
_cell_length_a     31.140261
_cell_length_b     31.014832
_cell_length_c     50.708283
_cell_angle_alpha  89.970563
_cell_angle_beta   90.00519
_cell_angle_gamma 89.973707
loop_
_atom_site_label
_atom_site_type_symbol
_atom_site_fract_x
_atom_site_fract_y
_atom_site_fract_z
_atom_type_partial_charge
Li0 Li 0.06796 0.27595 0.15405 0.0
Li1 Li 0.114 0.23181 0.18548 0.0
Li2 Li 0.08008 0.19932 0.14343 0.0
Li3 Li 0.03715 0.22106 0.18072 0.0
C4 C 0.15444 0.26893 0.13413 0.0
N5 N 0.21778 0.31445 0.10788 0.0
C6 C 0.18481 0.29275 0.14829 0.0
C7 C 0.15663 0.26804 0.10657 0.0
C8 C 0.21647 0.3156 0.13467 0.0
C9 C 0.18878 0.29133 0.09368 0.0
C10 C 0.04481 0.28477 0.2146 0.0
C11 C 0.02911 0.27724 0.26094 0.0
N12 N 0.99558 0.305 0.25819 0.0
C13 C 0.0104 0.31347 0.21226 0.0
C14 C 0.05438 0.26657 0.23913 0.0
C15 C 0.9858 0.32317 0.23452 0.0
C16 C 0.01587 0.34298 0.1374 0.0
N17 N 0.05778 0.33208 0.14077 0.0
C18 C 0.08 0.40365 0.13025 0.0
C19 C 0.08977 0.36122 0.13706 0.0
C20 C 0.03687 0.41624 0.12765 0.0
C21 C 0.0046 0.38505 0.13072 0.0
H22 H 0.99103 0.31935 0.14104 0.0
H23 H 0.12272 0.35221 0.14037 0.0
C24 C 0.1981 0.20816 0.20327 0.0
N25 N 0.16486 0.23607 0.20661 0.0
C26 C 0.23725 0.21521 0.2162 0.0
C27 C 0.20694 0.27917 0.236 0.0
C28 C 0.16854 0.27095 0.22269 0.0
C29 C 0.24222 0.2514 0.23268 0.0
H30 H 0.1946 0.1811 0.18998 0.0
H31 H 0.14217 0.29345 0.22436 0.0
C32 C 0.0096 0.23566 0.11817 0.0
N33 N 0.97795 0.24138 0.06736 0.0
C34 C 0.96941 0.2183 0.112 0.0
C35 C 0.03351 0.25616 0.09853 0.0
C36 C 0.954 0.22145 0.08619 0.0
C37 C 0.01703 0.25867 0.07296 0.0
C38 C 0.06261 0.14204 0.19227 0.0
C39 C 0.02901 0.12112 0.17926 0.0
C40 C 0.07467 0.1288 0.21755 0.0
C41 C 0.0076 0.08741 0.19195 0.0
C42 C 0.0525 0.09488 0.22954 0.0
N43 N 0.01969 0.0751 0.21661 0.0
C44 C 0.13242 0.16076 0.10552 0.0
C45 C 0.05849 0.14696 0.09858 0.0
C46 C 0.14218 0.14627 0.08018 0.0
N47 N 0.09093 0.16298 0.11365 0.0
C48 C 0.06678 0.13222 0.07299 0.0
C49 C 0.1089 0.13376 0.06309 0.0
H50 H 0.15768 0.17323 0.11801 0.0
H51 H 0.02582 0.14822 0.10568 0.0
C52 C 0.94946 0.23162 0.18728 0.0
N53 N 0.98352 0.21279 0.19951 0.0
C54 C 0.90968 0.23436 0.19978 0.0
C55 C 0.94008 0.19796 0.23749 0.0
C56 C 0.97947 0.19573 0.22414 0.0
C57 C 0.90458 0.21793 0.22538 0.0
H58 H 0.95366 0.24654 0.16822 0.0
H59 H 0.00713 0.1822 0.23397 0.0
O60 O 0.12355 0.2458 0.14722 0.0
O61 O 0.06855 0.27395 0.1929 0.0
O62 O 0.02534 0.23214 0.14329 0.0
O63 O 0.08394 0.17502 0.18018 0.0
H64 H 0.18365 0.2942 0.16953 0.0
H65 H 0.134 0.24942 0.09514 0.0
H66 H 0.23996 0.33434 0.14542 0.0
H67 H 0.19074 0.29092 0.07239 0.0
H68 H 0.03596 0.26318 0.28001 0.0
H69 H 0.00247 0.3277 0.1934 0.0
H70 H 0.08059 0.24389 0.2412 0.0
H71 H 0.95886 0.34505 0.23296 0.0
H72 H 0.10586 0.42668 0.12791 0.0
H73 H 0.97093 0.39352 0.12942 0.0
H74 H 0.26338 0.1927 0.21322 0.0
H75 H 0.20938 0.30787 0.24806 0.0
H76 H 0.95054 0.20206 0.12693 0.0
H77 H 0.06432 0.27018 0.10302 0.0
H78 H 0.92307 0.20796 0.08112 0.0
H79 H 0.03529 0.27441 0.05757 0.0
H80 H 0.01943 0.13106 0.15964 0.0
H81 H 0.10072 0.1447 0.22781 0.0
H82 H 0.98138 0.07102 0.18219 0.0
H83 H 0.06133 0.08433 0.24915 0.0
H84 H 0.17525 0.14694 0.07357 0.0
H85 H 0.04019 0.12258 0.06056 0.0
H86 H 0.88366 0.25093 0.18986 0.0
H87 H 0.93766 0.18481 0.25722 0.0
Li88 Li 0.30101 0.58789 0.64248 0.0
Li89 Li 0.27262 0.62202 0.68147 0.0
Li90 Li 0.28857 0.54044 0.68087 0.0
Li91 Li 0.22842 0.57367 0.65537 0.0
C92 C 0.37201 0.59338 0.67253 0.0
N93 N 0.45866 0.59882 0.66148 0.0
C94 C 0.39007 0.63285 0.66524 0.0
C95 C 0.39794 0.5567 0.67433 0.0
C96 C 0.43398 0.63492 0.65968 0.0
C97 C 0.44172 0.56012 0.66864 0.0
C98 C 0.24831 0.67239 0.64133 0.0
C99 C 0.20856 0.73823 0.64836 0.0
N100 N 0.2396 0.7606 0.63538 0.0
C101 C 0.27991 0.69613 0.62815 0.0
C102 C 0.21237 0.69365 0.65156 0.0
C103 C 0.27485 0.74065 0.62529 0.0
C104 C 0.30285 0.60616 0.58999 0.0
N105 N 0.33104 0.59501 0.60931 0.0
C106 C 0.38738 0.5881 0.57734 0.0
C107 C 0.37281 0.58597 0.60351 0.0
C108 C 0.35847 0.59887 0.55706 0.0
C109 C 0.31587 0.60844 0.5638 0.0
H110 H 0.26959 0.61213 0.59486 0.0
H111 H 0.39445 0.57547 0.61881 0.0
C112 C 0.24473 0.67282 0.72504 0.0
N113 N 0.27023 0.67322 0.70327 0.0
C114 C 0.23583 0.71105 0.73862 0.0
C115 C 0.2814 0.74922 0.70805 0.0
C116 C 0.29007 0.7101 0.6954 0.0
C117 C 0.25304 0.75042 0.72968 0.0
H118 H 0.23027 0.64296 0.73149 0.0
H119 H 0.31106 0.70964 0.67847 0.0
C120 C 0.28336 0.51215 0.621 0.0
N121 N 0.30936 0.4776 0.57336 0.0
C122 C 0.25546 0.51212 0.5994 0.0
C123 C 0.32451 0.49462 0.61834 0.0
C124 C 0.2692 0.49449 0.57549 0.0
C125 C 0.33703 0.47729 0.59411 0.0
C126 C 0.1958 0.56308 0.70167 0.0
C127 C 0.18406 0.52021 0.70625 0.0
C128 C 0.16467 0.59549 0.70327 0.0
C129 C 0.14144 0.51052 0.71248 0.0
C130 C 0.12238 0.58448 0.70951 0.0
N131 N 0.11173 0.54258 0.71396 0.0
C132 C 0.2879 0.48954 0.72718 0.0
C133 C 0.31091 0.45233 0.68898 0.0
C134 C 0.28402 0.45067 0.74102 0.0
N135 N 0.29979 0.48954 0.70137 0.0
C136 C 0.30831 0.41285 0.70221 0.0
C137 C 0.293 0.41129 0.72831 0.0
H138 H 0.27819 0.51942 0.73642 0.0
H139 H 0.3195 0.45281 0.66839 0.0
C140 C 0.14423 0.59139 0.63655 0.0
N141 N 0.17286 0.56021 0.64322 0.0
C142 C 0.10205 0.58035 0.63033 0.0
C143 C 0.12059 0.5052 0.6364 0.0
C144 C 0.16224 0.51774 0.64272 0.0
C145 C 0.08975 0.53681 0.6307 0.0
H146 H 0.15376 0.6248 0.63673 0.0
H147 H 0.18589 0.49373 0.64809 0.0
O148 O 0.32935 0.5908 0.67854 0.0
O149 O 0.25264 0.6287 0.64435 0.0
O150 O 0.27092 0.53041 0.64436 0.0
O151 O 0.23709 0.57308 0.69463 0.0
H152 H 0.37037 0.66149 0.66378 0.0
H153 H 0.38438 0.52596 0.68008 0.0
H154 H 0.44842 0.6652 0.65391 0.0
H155 H 0.46221 0.53201 0.6699 0.0
H156 H 0.18105 0.75507 0.65633 0.0
H157 H 0.30842 0.68059 0.62058 0.0
H158 H 0.18805 0.67613 0.66233 0.0
H159 H 0.29911 0.75939 0.6152 0.0
H160 H 0.42046 0.58007 0.57294 0.0
H161 H 0.29258 0.61749 0.54892 0.0
H162 H 0.21515 0.70965 0.75575 0.0
H163 H 0.29554 0.77834 0.70015 0.0
H164 H 0.22377 0.52616 0.60091 0.0
H165 H 0.34702 0.4955 0.63458 0.0
H166 H 0.24801 0.49447 0.55858 0.0
H167 H 0.36891 0.46397 0.59173 0.0
H168 H 0.20729 0.49449 0.70441 0.0
H169 H 0.17288 0.62872 0.69933 0.0
H170 H 0.13191 0.47746 0.71593 0.0
H171 H 0.09796 0.60922 0.71067 0.0
H172 H 0.2716 0.4515 0.76095 0.0
H173 H 0.31674 0.38372 0.69166 0.0
H174 H 0.07909 0.60553 0.62582 0.0
H175 H 0.11213 0.47135 0.63718 0.0
Li176 Li 0.88616 0.77069 0.18537 0.0
Li177 Li 0.93454 0.72938 0.15391 0.0
Li178 Li 0.96237 0.78431 0.1809 0.0
Li179 Li 0.91872 0.80551 0.14384 0.0
C180 C 0.95639 0.71938 0.21449 0.0
N181 N 0.00478 0.69897 0.25843 0.0
C182 C 0.99254 0.69295 0.21207 0.0
C183 C 0.94463 0.73517 0.23927 0.0
C184 C 0.01669 0.68315 0.23451 0.0
C185 C 0.96952 0.72446 0.26126 0.0
C186 C 0.84773 0.72979 0.13552 0.0
C187 C 0.80936 0.70412 0.09723 0.0
N188 N 0.78646 0.67691 0.11286 0.0
C189 C 0.82367 0.70161 0.15116 0.0
C190 C 0.84037 0.73115 0.1083 0.0
C191 C 0.79291 0.67512 0.13935 0.0
C192 C 0.80344 0.79584 0.20349 0.0
N193 N 0.8352 0.76612 0.20642 0.0
C194 C 0.79102 0.72427 0.23538 0.0
C195 C 0.82989 0.73105 0.22221 0.0
C196 C 0.75728 0.75399 0.23241 0.0
C197 C 0.76412 0.7905 0.21647 0.0
H198 H 0.80829 0.82311 0.19053 0.0
H199 H 0.85536 0.70749 0.22387 0.0
C200 C 0.99229 0.66848 0.13671 0.0
N201 N 0.94946 0.6743 0.14042 0.0
C202 C 0.00838 0.62812 0.13 0.0
C203 C 0.93591 0.60025 0.13065 0.0
C204 C 0.92115 0.64139 0.13721 0.0
C205 C 0.98019 0.59308 0.12762 0.0
H206 H 0.01429 0.69485 0.14006 0.0
H207 H 0.88746 0.64633 0.14088 0.0
C208 C 0.93419 0.86084 0.19427 0.0
N209 N 0.97473 0.92619 0.22154 0.0
C210 C 0.96714 0.88431 0.18229 0.0
C211 C 0.92156 0.87072 0.22 0.0
C212 C 0.98735 0.91717 0.19646 0.0
C213 C 0.94252 0.90389 0.23348 0.0
C214 C 0.98792 0.77216 0.11751 0.0
C215 C 0.02765 0.78891 0.10977 0.0
C216 C 0.96154 0.75241 0.09879 0.0
C217 C 0.04017 0.78582 0.08338 0.0
C218 C 0.97517 0.74996 0.0726 0.0
N219 N 0.01387 0.7666 0.06549 0.0
C220 C 0.05056 0.77789 0.18687 0.0
C221 C 0.01896 0.8073 0.22532 0.0
C222 C 0.09026 0.77462 0.19942 0.0
N223 N 0.0157 0.79355 0.19989 0.0
C224 C 0.05823 0.80433 0.23876 0.0
C225 C 0.09446 0.78718 0.22588 0.0
H226 H 0.04711 0.76559 0.16708 0.0
H227 H 0.99075 0.81836 0.23568 0.0
C228 C 0.86511 0.84157 0.10581 0.0
N229 N 0.90636 0.84217 0.11446 0.0
C230 C 0.85516 0.85599 0.08048 0.0
C231 C 0.92957 0.87566 0.07439 0.0
C232 C 0.9381 0.86082 0.09995 0.0
C233 C 0.888 0.87135 0.06395 0.0
H234 H 0.84043 0.82693 0.11785 0.0
H235 H 0.9706 0.86139 0.10741 0.0
O236 O 0.9329 0.73016 0.19267 0.0
O237 O 0.87738 0.75669 0.14687 0.0
O238 O 0.91404 0.82864 0.18073 0.0
O239 O 0.97494 0.77575 0.14323 0.0
H240 H 0.00214 0.68056 0.19303 0.0
H241 H 0.91702 0.75607 0.24144 0.0
H242 H 0.04497 0.66305 0.23289 0.0
H243 H 0.96098 0.73668 0.28053 0.0
H244 H 0.80344 0.70486 0.07622 0.0
H245 H 0.82925 0.69945 0.1721 0.0
H246 H 0.85826 0.75285 0.09576 0.0
H247 H 0.77431 0.65301 0.15126 0.0
H248 H 0.78738 0.69594 0.24767 0.0
H249 H 0.73889 0.81402 0.21342 0.0
H250 H 0.04272 0.62408 0.12765 0.0
H251 H 0.91314 0.57394 0.12945 0.0
H252 H 0.97714 0.87699 0.16234 0.0
H253 H 0.896 0.85281 0.22946 0.0
H254 H 0.01306 0.93551 0.18752 0.0
H255 H 0.93324 0.91184 0.25346 0.0
H256 H 0.0484 0.80458 0.12396 0.0
H257 H 0.931 0.73899 0.10445 0.0
H258 H 0.07074 0.79881 0.07711 0.0
H259 H 0.95497 0.73482 0.05792 0.0
H260 H 0.1169 0.76037 0.18882 0.0
H261 H 0.05999 0.81449 0.25916 0.0
H262 H 0.82247 0.85302 0.0734 0.0
H263 H 0.95578 0.88746 0.06236 0.0
Li264 Li 0.71838 0.46345 0.67819 0.0
Li265 Li 0.77862 0.43173 0.65205 0.0
Li266 Li 0.70625 0.41392 0.64067 0.0
Li267 Li 0.73754 0.38314 0.67957 0.0
C268 C 0.71914 0.48972 0.61802 0.0
N269 N 0.68871 0.5218 0.57071 0.0
C270 C 0.74445 0.48733 0.59529 0.0
C271 C 0.67832 0.5084 0.61666 0.0
C272 C 0.72848 0.50372 0.57157 0.0
C273 C 0.66355 0.52449 0.59257 0.0
C274 C 0.81242 0.44808 0.69733 0.0
C275 C 0.88807 0.4345 0.70376 0.0
N276 N 0.89471 0.47741 0.70739 0.0
C277 C 0.82013 0.49211 0.70098 0.0
C278 C 0.84678 0.41906 0.69858 0.0
C279 C 0.86188 0.50627 0.70612 0.0
C280 C 0.71588 0.51293 0.72475 0.0
N281 N 0.70658 0.51421 0.69854 0.0
C282 C 0.70227 0.59126 0.69975 0.0
C283 C 0.69896 0.55228 0.68604 0.0
C284 C 0.71478 0.59103 0.72633 0.0
C285 C 0.72057 0.55122 0.73905 0.0
H286 H 0.72305 0.48235 0.73403 0.0
H287 H 0.69325 0.55277 0.66507 0.0
C288 C 0.86521 0.4196 0.63488 0.0
N289 N 0.83281 0.44816 0.63893 0.0
C290 C 0.90655 0.43453 0.62948 0.0
C291 C 0.87926 0.50757 0.63045 0.0
C292 C 0.83875 0.49129 0.63617 0.0
C293 C 0.91413 0.47916 0.62796 0.0
H294 H 0.8595 0.3855 0.63722 0.0
H295 H 0.81228 0.51317 0.63958 0.0
C296 C 0.63649 0.41002 0.67138 0.0
N297 N 0.54958 0.4066 0.66075 0.0
C298 C 0.61752 0.37111 0.66384 0.0
C299 C 0.61132 0.44715 0.67363 0.0
C300 C 0.5735 0.37006 0.65851 0.0
C301 C 0.56741 0.44477 0.66814 0.0
C302 C 0.76052 0.33117 0.64145 0.0
C303 C 0.72732 0.30576 0.63129 0.0
C304 C 0.79765 0.31136 0.65116 0.0
C305 C 0.73194 0.26095 0.63092 0.0
C306 C 0.80095 0.26645 0.65053 0.0
N307 N 0.76833 0.24239 0.64049 0.0
C308 C 0.70227 0.3907 0.58882 0.0
C309 C 0.6339 0.41585 0.60227 0.0
C310 C 0.68874 0.38806 0.56274 0.0
N311 N 0.67517 0.40467 0.60804 0.0
C312 C 0.61882 0.41343 0.57622 0.0
C313 C 0.6468 0.40019 0.556 0.0
H314 H 0.73527 0.38326 0.59355 0.0
H315 H 0.61327 0.4287 0.61744 0.0
C316 C 0.77288 0.3325 0.72113 0.0
N317 N 0.74198 0.33299 0.70219 0.0
C318 C 0.7818 0.29473 0.73515 0.0
C319 C 0.7249 0.25914 0.7113 0.0
C320 C 0.71718 0.29765 0.69768 0.0
C321 C 0.75825 0.25698 0.72999 0.0
H322 H 0.79136 0.36119 0.72502 0.0
H323 H 0.69226 0.29886 0.68289 0.0
O324 O 0.73372 0.47268 0.64127 0.0
O325 O 0.7719 0.43371 0.6914 0.0
O326 O 0.67932 0.41161 0.67712 0.0
O327 O 0.75645 0.37511 0.64229 0.0
H328 H 0.77579 0.47233 0.59584 0.0
H329 H 0.6578 0.5095 0.63385 0.0
H330 H 0.74761 0.50182 0.5538 0.0
H331 H 0.63192 0.53874 0.5912 0.0
H332 H 0.91491 0.41239 0.70461 0.0
H333 H 0.79446 0.51535 0.69927 0.0
H334 H 0.84192 0.38509 0.6949 0.0
H335 H 0.86825 0.54025 0.70886 0.0
H336 H 0.69804 0.62136 0.68921 0.0
H337 H 0.73029 0.54983 0.75955 0.0
H338 H 0.93255 0.41148 0.62797 0.0
H339 H 0.88348 0.54214 0.62893 0.0
H340 H 0.6366 0.34213 0.66196 0.0
H341 H 0.62556 0.47747 0.67955 0.0
H342 H 0.55837 0.34023 0.65255 0.0
H343 H 0.54752 0.47326 0.66974 0.0
H344 H 0.69799 0.32032 0.62416 0.0
H345 H 0.82329 0.33035 0.65958 0.0
H346 H 0.70645 0.24091 0.62319 0.0
H347 H 0.82936 0.25071 0.65816 0.0
H348 H 0.71125 0.37713 0.54789 0.0
H349 H 0.5863 0.42347 0.57179 0.0
H350 H 0.80781 0.29489 0.74932 0.0
H351 H 0.70508 0.23132 0.70708 0.0
Li352 Li 0.53705 0.28217 0.33009 0.0
Li353 Li 0.58051 0.30349 0.36702 0.0
Li354 Li 0.61317 0.26806 0.32587 0.0
Li355 Li 0.56442 0.22741 0.35733 0.0
C356 C 0.56636 0.35829 0.31597 0.0
N357 N 0.52793 0.42375 0.28759 0.0
C358 C 0.53351 0.38272 0.32733 0.0
C359 C 0.57997 0.36728 0.2903 0.0
C360 C 0.51437 0.41561 0.31261 0.0
C361 C 0.56008 0.40053 0.27625 0.0
C362 C 0.51235 0.26979 0.39368 0.0
C363 C 0.5279 0.2488 0.4385 0.0
N364 N 0.48846 0.26305 0.44602 0.0
C365 C 0.47192 0.28412 0.40185 0.0
C366 C 0.54053 0.25188 0.41214 0.0
C367 C 0.46045 0.28046 0.4284 0.0
C368 C 0.44908 0.2751 0.32403 0.0
N369 N 0.48366 0.29165 0.31115 0.0
C370 C 0.44061 0.30392 0.27266 0.0
C371 C 0.48 0.30658 0.28599 0.0
C372 C 0.40469 0.28587 0.28538 0.0
C373 C 0.40928 0.27208 0.31158 0.0
H374 H 0.45282 0.262 0.34362 0.0
H375 H 0.50796 0.31842 0.27571 0.0
C376 C 0.63226 0.34094 0.40596 0.0
N377 N 0.59169 0.34095 0.39613 0.0
C378 C 0.64054 0.35825 0.43085 0.0
C379 C 0.56568 0.37801 0.4343 0.0
C380 C 0.55892 0.36059 0.4092 0.0
C381 C 0.6067 0.37572 0.44579 0.0
H382 H 0.6577 0.32511 0.39515 0.0
H383 H 0.52698 0.36048 0.40085 0.0
C384 C 0.5426 0.21753 0.29664 0.0
N385 N 0.49397 0.19833 0.2526 0.0
C386 C 0.50723 0.19 0.29873 0.0
C387 C 0.55339 0.2351 0.27213 0.0
C388 C 0.48296 0.18082 0.27625 0.0
C389 C 0.52843 0.22495 0.25009 0.0
C390 C 0.65191 0.2265 0.37425 0.0
C391 C 0.67215 0.19699 0.35753 0.0
C392 C 0.66346 0.22797 0.40089 0.0
C393 C 0.70366 0.16955 0.36769 0.0
C394 C 0.69506 0.19993 0.41032 0.0
N395 N 0.71437 0.17157 0.39366 0.0
C396 C 0.69827 0.28928 0.30977 0.0
C397 C 0.66753 0.22984 0.28737 0.0
C398 C 0.73748 0.28275 0.29684 0.0
N399 N 0.66438 0.2628 0.30495 0.0
C400 C 0.70603 0.22219 0.274 0.0
C401 C 0.7419 0.24855 0.2788 0.0
H402 H 0.69512 0.31488 0.32413 0.0
H403 H 0.64063 0.20836 0.28447 0.0
C404 C 0.50533 0.16768 0.37349 0.0
N405 N 0.54851 0.1729 0.37133 0.0
C406 C 0.48815 0.1279 0.38043 0.0
C407 C 0.56025 0.09943 0.38346 0.0
C408 C 0.5761 0.14005 0.37665 0.0
C409 C 0.51565 0.09277 0.38472 0.0
H410 H 0.48402 0.19407 0.36873 0.0
H411 H 0.61019 0.14457 0.37457 0.0
O412 O 0.58558 0.32612 0.33008 0.0
O413 O 0.52423 0.27406 0.36779 0.0
O414 O 0.5662 0.22769 0.31853 0.0
O415 O 0.6217 0.25443 0.36452 0.0
H416 H 0.52276 0.37611 0.34723 0.0
H417 H 0.60549 0.34865 0.28132 0.0
H418 H 0.48874 0.43468 0.32107 0.0
H419 H 0.57013 0.4078 0.25632 0.0
H420 H 0.54948 0.2351 0.45297 0.0
H421 H 0.44977 0.29834 0.38788 0.0
H422 H 0.57179 0.24051 0.40622 0.0
H423 H 0.42933 0.29157 0.435 0.0
H424 H 0.43853 0.31505 0.25245 0.0
H425 H 0.38287 0.25713 0.32205 0.0
H426 H 0.67261 0.35547 0.43894 0.0
H427 H 0.53884 0.39177 0.44496 0.0
H428 H 0.49837 0.1762 0.31753 0.0
H429 H 0.58026 0.257 0.27023 0.0
H430 H 0.45531 0.15984 0.27762 0.0
H431 H 0.53624 0.23854 0.23103 0.0
H432 H 0.66294 0.19449 0.33708 0.0
H433 H 0.64824 0.25048 0.41423 0.0
H434 H 0.71941 0.14646 0.35496 0.0
H435 H 0.70426 0.20074 0.43089 0.0
H436 H 0.76406 0.30421 0.30098 0.0
H437 H 0.70801 0.19498 0.26068 0.0
H438 H 0.45359 0.12432 0.38148 0.0
H439 H 0.5826 0.07306 0.38627 0.0
Li440 Li 0.23066 0.12026 0.82738 0.0
Li441 Li 0.20258 0.08717 0.86662 0.0
Li442 Li 0.27377 0.0692 0.8524 0.0
Li443 Li 0.21089 0.03965 0.82786 0.0
C444 C 0.26116 0.16854 0.86657 0.0
N445 N 0.27725 0.2559 0.87119 0.0
C446 C 0.2329 0.19499 0.88065 0.0
C447 C 0.29754 0.18664 0.85479 0.0
C448 C 0.24167 0.23903 0.88281 0.0
C449 C 0.30508 0.23084 0.85733 0.0
C450 C 0.1304 0.09589 0.83778 0.0
C451 C 0.05976 0.06509 0.8426 0.0
N452 N 0.04446 0.10428 0.85016 0.0
C453 C 0.11401 0.13589 0.84548 0.0
C454 C 0.10314 0.06019 0.83622 0.0
C455 C 0.07044 0.13945 0.85171 0.0
C456 C 0.25758 0.17103 0.78343 0.0
N457 N 0.23363 0.17174 0.80587 0.0
C458 C 0.22355 0.24801 0.80163 0.0
C459 C 0.21519 0.20897 0.81446 0.0
C460 C 0.25002 0.24854 0.77922 0.0
C461 C 0.26611 0.20921 0.76969 0.0
H462 H 0.27107 0.14098 0.77655 0.0
H463 H 0.19532 0.20872 0.8319 0.0
C464 C 0.20393 0.10669 0.91889 0.0
N465 N 0.17441 0.09617 0.90022 0.0
C466 C 0.19186 0.11268 0.94502 0.0
C467 C 0.11881 0.09569 0.93296 0.0
C468 C 0.13244 0.08997 0.9068 0.0
C469 C 0.14876 0.10763 0.95242 0.0
H470 H 0.23737 0.10976 0.91352 0.0
H471 H 0.10966 0.07974 0.89207 0.0
C472 C 0.30322 0.05693 0.80543 0.0
N473 N 0.38484 0.03039 0.79133 0.0
C474 C 0.31213 0.01309 0.80195 0.0
C475 C 0.33596 0.08721 0.80183 0.0
C476 C 0.35355 1.00034 0.79478 0.0
C477 C 0.37696 0.07316 0.79467 0.0
C478 C 0.21547 0.01034 0.88718 0.0
C479 C 0.24271 0.00882 0.90908 0.0
C480 C 0.17349 0.99475 0.88933 0.0
C481 C 0.22749 0.99163 0.93277 0.0
C482 C 0.15949 0.97782 0.91337 0.0
N483 N 0.18655 0.97663 0.93441 0.0
C484 C 0.36187 0.07942 0.86693 0.0
C485 C 0.33458 0.00811 0.86521 0.0
C486 C 0.40318 0.06386 0.87168 0.0
N487 N 0.32894 0.05141 0.86319 0.0
C488 C 0.37513 0.99117 0.87018 0.0
C489 C 0.4103 0.01913 0.87281 0.0
H490 H 0.35645 0.11365 0.86527 0.0
H491 H 0.30769 0.98666 0.86209 0.0
C492 C 0.20778 0.99112 0.78103 0.0
N493 N 0.19753 0.98974 0.8071 0.0
C494 C 0.21232 0.9529 0.76663 0.0
C495 C 0.1917 0.9128 0.80546 0.0
C496 C 0.1885 0.95171 0.81928 0.0
C497 C 0.20544 0.91305 0.7791 0.0
H498 H 0.21602 0.02162 0.772 0.0
H499 H 0.18189 0.95111 0.84015 0.0
O500 O 0.25306 0.12531 0.86412 0.0
O501 O 0.1727 0.09187 0.8311 0.0
O502 O 0.2632 0.06996 0.81338 0.0
O503 O 0.22939 0.02822 0.86403 0.0
H504 H 0.20409 0.18194 0.88944 0.0
H505 H 0.31924 0.16702 0.84331 0.0
H506 H 0.22 0.25985 0.89357 0.0
H507 H 0.33294 0.24527 0.84813 0.0
H508 H 0.03827 0.03775 0.84155 0.0
H509 H 0.13474 0.16378 0.84676 0.0
H510 H 0.11538 0.02909 0.83011 0.0
H511 H 0.05729 0.17016 0.85781 0.0
H512 H 0.2098 0.27753 0.8093 0.0
H513 H 0.28641 0.2082 0.75235 0.0
H514 H 0.21634 0.12056 0.9594 0.0
H515 H 0.08528 0.09111 0.93786 0.0
H516 H 0.28772 0.98899 0.80539 0.0
H517 H 0.33003 0.12117 0.80494 0.0
H518 H 0.3609 0.96652 0.79219 0.0
H519 H 0.4026 0.09626 0.79195 0.0
H520 H 0.27506 0.02137 0.90794 0.0
H521 H 0.15162 0.99662 0.8728 0.0
H522 H 0.24816 0.99045 0.9499 0.0
H523 H 0.127 0.96593 0.91535 0.0
H524 H 0.42946 0.08656 0.87329 0.0
H525 H 0.37904 0.95653 0.87133 0.0
H526 H 0.22294 0.95436 0.74631 0.0
H527 H 0.18655 0.8827 0.81582 0.0
Li528 Li 0.46216 0.72257 0.33048 0.0
Li529 Li 0.41964 0.69915 0.36777 0.0
Li530 Li 0.38467 0.7319 0.32613 0.0
Li531 Li 0.42948 0.77617 0.35805 0.0
C532 C 0.43764 0.64274 0.31861 0.0
N533 N 0.48045 0.57576 0.29424 0.0
C534 C 0.4719 0.62241 0.33135 0.0
C535 C 0.4249 0.62892 0.29358 0.0
C536 C 0.49324 0.58866 0.31865 0.0
C537 C 0.44701 0.59498 0.28158 0.0
C538 C 0.49297 0.73259 0.39187 0.0
C539 C 0.49443 0.75032 0.43816 0.0
N540 N 0.5328 0.72972 0.44053 0.0
C541 C 0.53256 0.71185 0.39471 0.0
C542 C 0.47386 0.75222 0.41371 0.0
C543 C 0.55214 0.71066 0.41949 0.0
C544 C 0.54824 0.73964 0.32303 0.0
N545 N 0.516 0.71661 0.31169 0.0
C546 C 0.56106 0.70052 0.27463 0.0
C547 C 0.52172 0.69692 0.28794 0.0
C548 C 0.59442 0.7252 0.28567 0.0
C549 C 0.58771 0.74433 0.31039 0.0
H550 H 0.5427 0.75609 0.34149 0.0
H551 H 0.49536 0.68011 0.27872 0.0
C552 C 0.37031 0.6599 0.40719 0.0
N553 N 0.4108 0.66157 0.39727 0.0
C554 C 0.3628 0.64213 0.43206 0.0
C555 C 0.43833 0.62513 0.43531 0.0
C556 C 0.4443 0.64293 0.41022 0.0
C557 C 0.39734 0.62582 0.44688 0.0
H558 H 0.34417 0.6747 0.39645 0.0
H559 H 0.47605 0.64373 0.4017 0.0
C560 C 0.45264 0.7874 0.29762 0.0
N561 N 0.50178 0.8101 0.25446 0.0
C562 C 0.48495 0.81839 0.30014 0.0
C563 C 0.44507 0.76818 0.27314 0.0
C564 C 0.50955 0.82932 0.27809 0.0
C565 C 0.47028 0.7801 0.25154 0.0
C566 C 0.34534 0.76773 0.37872 0.0
C567 C 0.31229 0.78974 0.36576 0.0
C568 C 0.34761 0.769 0.40625 0.0
C569 C 0.28246 0.81316 0.38054 0.0
C570 C 0.31719 0.7928 0.42032 0.0
N571 N 0.28554 0.81423 0.40728 0.0
C572 C 0.30094 0.70769 0.30769 0.0
C573 C 0.32994 0.77169 0.28944 0.0
C574 C 0.26187 0.71488 0.29468 0.0
N575 N 0.33387 0.73613 0.30496 0.0
C576 C 0.29161 0.78005 0.27607 0.0
C577 C 0.25665 0.75174 0.27877 0.0
H578 H 0.30462 0.68008 0.32055 0.0
H579 H 0.35609 0.7945 0.28821 0.0
C580 C 0.47986 0.84303 0.37672 0.0
N581 N 0.43837 0.83203 0.37189 0.0
C582 C 0.49038 0.88519 0.38358 0.0
C583 C 0.41507 0.90376 0.38104 0.0
C584 C 0.40604 0.86123 0.37411 0.0
C585 C 0.45785 0.91641 0.38521 0.0
H586 H 0.5051 0.8195 0.37399 0.0
H587 H 0.37355 0.85219 0.36937 0.0
O588 O 0.41631 0.6757 0.33073 0.0
O589 O 0.47315 0.73347 0.36779 0.0
O590 O 0.42918 0.7752 0.31915 0.0
O591 O 0.37464 0.74434 0.36453 0.0
H592 H 0.48208 0.63284 0.35073 0.0
H593 H 0.39833 0.64437 0.28354 0.0
H594 H 0.51996 0.57272 0.32819 0.0
H595 H 0.43763 0.58397 0.26218 0.0
H596 H 0.47993 0.7653 0.45524 0.0
H597 H 0.54774 0.69638 0.378 0.0
H598 H 0.44364 0.76896 0.41176 0.0
H599 H 0.58265 0.69448 0.42201 0.0
H600 H 0.56469 0.6857 0.25543 0.0
H601 H 0.61258 0.76333 0.31975 0.0
H602 H 0.33069 0.64359 0.44021 0.0
H603 H 0.4657 0.61217 0.44585 0.0
H604 H 0.4913 0.83342 0.31899 0.0
H605 H 0.42043 0.74384 0.27095 0.0
H606 H 0.53492 0.85297 0.27979 0.0
H607 H 0.465 0.7653 0.23251 0.0
H608 H 0.30987 0.7892 0.34452 0.0
H609 H 0.37232 0.75154 0.41673 0.0
H610 H 0.25691 0.83054 0.37073 0.0
H611 H 0.31865 0.7941 0.44162 0.0
H612 H 0.23597 0.69195 0.29717 0.0
H613 H 0.28898 0.80924 0.26446 0.0
H614 H 0.52387 0.89372 0.38603 0.0
H615 H 0.38903 0.92686 0.38213 0.0
Li616 Li 0.78741 0.9631 0.82877 0.0
Li617 Li 0.72627 0.9257 0.85094 0.0
Li618 Li 0.79805 0.91366 0.86641 0.0
Li619 Li 0.77485 0.88094 0.82587 0.0
C620 C 0.77883 0.98976 0.88701 0.0
N621 N 0.80635 0.02908 0.93283 0.0
C622 C 0.75342 0.98815 0.9097 0.0
C623 C 0.81805 0.01163 0.88752 0.0
C624 C 0.76796 0.00817 0.9327 0.0
C625 C 0.83143 0.03125 0.91091 0.0
C626 C 0.69874 0.93927 0.80332 0.0
C627 C 0.62579 0.91823 0.79377 0.0
N628 N 0.61641 0.9597 0.7872 0.0
C629 C 0.68842 0.98163 0.79633 0.0
C630 C 0.66724 0.90724 0.80189 0.0
C631 C 0.64661 0.99132 0.78827 0.0
C632 C 0.81375 0.01983 0.78636 0.0
N633 N 0.79786 0.01686 0.81128 0.0
C634 C 0.77907 0.09168 0.81098 0.0
C635 C 0.78127 0.05191 0.82375 0.0
C636 C 0.79392 0.09576 0.78493 0.0
C637 C 0.81225 0.05926 0.77279 0.0
H638 H 0.82584 0.99127 0.77663 0.0
H639 H 0.76736 0.04852 0.84315 0.0
C640 C 0.64064 0.906 0.86683 0.0
N641 N 0.66958 0.93747 0.86131 0.0
C642 C 0.598 0.91678 0.87204 0.0
C643 C 0.61668 0.99213 0.8672 0.0
C644 C 0.65875 0.97988 0.86186 0.0
C645 C 0.58562 0.96032 0.87189 0.0
H646 H 0.65036 0.87261 0.86655 0.0
H647 H 0.68265 0.00408 0.85734 0.0
C648 C 0.87196 0.91173 0.83921 0.0
N649 N 0.95716 0.90661 0.85398 0.0
C650 C 0.8892 0.87244 0.84758 0.0
C651 C 0.89801 0.94838 0.83819 0.0
C652 C 0.93237 0.87054 0.85503 0.0
C653 C 0.94104 0.94513 0.84577 0.0
C654 C 0.74884 0.82733 0.8641 0.0
C655 C 0.7808 0.80417 0.87736 0.0
C656 C 0.71419 0.80525 0.85291 0.0
C657 C 0.77741 0.75936 0.8793 0.0
C658 C 0.71205 0.76042 0.85521 0.0
N659 N 0.74342 0.7386 0.86826 0.0
C660 C 0.79644 0.89157 0.91839 0.0
C661 C 0.86571 0.91783 0.90788 0.0
C662 C 0.80797 0.8862 0.94467 0.0
N663 N 0.82524 0.90646 0.90042 0.0
C664 C 0.87879 0.91279 0.9342 0.0
C665 C 0.84975 0.89636 0.95295 0.0
H666 H 0.7639 0.88456 0.91235 0.0
H667 H 0.88762 0.93155 0.89372 0.0
C668 C 0.75014 0.83102 0.78144 0.0
N669 N 0.77554 0.83075 0.80325 0.0
C670 C 0.74236 0.79293 0.76749 0.0
C671 C 0.78872 0.75519 0.79783 0.0
C672 C 0.79635 0.79423 0.81082 0.0
C673 C 0.7604 0.75377 0.77618 0.0
H674 H 0.73469 0.86057 0.77533 0.0
H675 H 0.81704 0.79477 0.8279 0.0
O676 O 0.76578 0.96928 0.86453 0.0
O677 O 0.73913 0.9294 0.81215 0.0
O678 O 0.83007 0.91415 0.83139 0.0
O679 O 0.75151 0.87128 0.86201 0.0
H680 H 0.72305 0.97117 0.9096 0.0
H681 H 0.83813 0.01297 0.87012 0.0
H682 H 0.74879 0.00694 0.95048 0.0
H683 H 0.86184 0.04806 0.91166 0.0
H684 H 0.60103 0.89383 0.79281 0.0
H685 H 0.71227 0.00686 0.79731 0.0
H686 H 0.67453 0.87437 0.80741 0.0
H687 H 0.63814 0.02401 0.78293 0.0
H688 H 0.76377 0.11836 0.82104 0.0
H689 H 0.82442 0.06086 0.75281 0.0
H690 H 0.57485 0.89144 0.87575 0.0
H691 H 0.60818 0.02599 0.86658 0.0
H692 H 0.86941 0.84382 0.84846 0.0
H693 H 0.88512 0.97895 0.83157 0.0
H694 H 0.94614 0.84041 0.86167 0.0
H695 H 0.96161 0.97321 0.84513 0.0
H696 H 0.80832 0.82041 0.8857 0.0
H697 H 0.68958 0.8224 0.84215 0.0
H698 H 0.80197 0.74107 0.88943 0.0
H699 H 0.68556 0.74295 0.84649 0.0
H700 H 0.78399 0.87481 0.95848 0.0
H701 H 0.91125 0.92139 0.93975 0.0
H702 H 0.72167 0.79423 0.75036 0.0
H703 H 0.80346 0.72624 0.80557 0.0
C704 C 0.09832 0.09307 0.02035 0.0
C705 C 0.11779 0.12676 0.03458 0.0
H706 H 0.09305 0.06025 0.98318 0.0
C707 C 0.14539 0.15512 0.02119 0.0
H708 H 0.07679 0.07077 0.0301 0.0
C709 C 0.15432 0.14939 0.99449 0.0
C710 C 0.13605 0.11502 0.98035 0.0
H711 H 0.15988 0.18221 0.03131 0.0
H712 H 0.17566 0.17205 0.98487 0.0
C713 C 0.10744 0.0872 0.99347 0.0
C714 C 0.34443 0.58422 0.50919 0.0
C715 C 0.37184 0.60036 0.52891 0.0
H716 H 0.33136 0.5788 0.46788 0.0
C717 C 0.41022 0.62069 0.52131 0.0
H718 H 0.31509 0.56748 0.5144 0.0
C719 C 0.41961 0.62707 0.49457 0.0
C720 C 0.39084 0.61316 0.47491 0.0
H721 H 0.43189 0.63363 0.53602 0.0
H722 H 0.44828 0.6449 0.48936 0.0
C723 C 0.35376 0.59061 0.48254 0.0
C724 C 0.89605 0.91408 0.02175 0.0
C725 C 0.87957 0.87821 0.03539 0.0
H726 H 0.8992 0.94838 0.98499 0.0
C727 C 0.85543 0.84758 0.02139 0.0
H728 H 0.91491 0.93812 0.03202 0.0
C729 C 0.84694 0.8531 0.99462 0.0
C730 C 0.86208 0.88958 0.98103 0.0
H731 H 0.84337 0.81891 0.0311 0.0
H732 H 0.82843 0.82858 0.98452 0.0
C733 C 0.88726 0.9198 0.99482 0.0
C734 C 0.65186 0.40857 0.48153 0.0
C735 C 0.61378 0.38782 0.47385 0.0
H736 H 0.69158 0.4296 0.51344 0.0
C737 C 0.58441 0.37511 0.4935 0.0
H738 H 0.67477 0.41947 0.4669 0.0
C739 C 0.59408 0.3809 0.52026 0.0
C740 C 0.63336 0.39935 0.52787 0.0
H741 H 0.55495 0.35865 0.48828 0.0
H742 H 0.57183 0.36896 0.53496 0.0
C743 C 0.6615 0.41431 0.50819 0.0
C744 C 0.32325 0.2544 0.23276 0.0
C745 C 0.28398 0.2608 0.24595 0.0
H746 H 0.39199 0.25739 0.23473 0.0
C747 C 0.28487 0.27693 0.27187 0.0
H748 H 0.32381 0.24259 0.21267 0.0
C749 C 0.32389 0.28597 0.28436 0.0
C750 C 0.36317 0.27915 0.2713 0.0
H751 H 0.25536 0.28197 0.28273 0.0
H752 H 0.32328 0.29824 0.30434 0.0
C753 C 0.36235 0.26353 0.24526 0.0
C754 C 0.19952 0.79808 0.75348 0.0
C755 C 0.24066 0.79234 0.74232 0.0
H756 H 0.15622 0.8405 0.77385 0.0
C757 C 0.26947 0.82735 0.743 0.0
H758 H 0.17589 0.77252 0.7529 0.0
C759 C 0.25749 0.86674 0.7543 0.0
C760 C 0.2167 0.87202 0.76566 0.0
H761 H 0.30169 0.82432 0.73522 0.0
H762 H 0.28064 0.8928 0.75479 0.0
C763 C 0.18791 0.83724 0.76526 0.0
C764 C 0.65409 0.77385 0.27062 0.0
C765 C 0.63552 0.73251 0.27132 0.0
H766 H 0.70689 0.81299 0.25798 0.0
C767 C 0.6569 0.69839 0.25866 0.0
H768 H 0.63817 0.80097 0.27988 0.0
C769 C 0.69636 0.70533 0.24606 0.0
C770 C 0.71512 0.74663 0.24559 0.0
H771 H 0.64351 0.66617 0.25891 0.0
H772 H 0.71205 0.67836 0.2365 0.0
C773 C 0.6933 0.78085 0.25785 0.0
C774 C 0.76602 0.17591 0.73054 0.0
C775 C 0.76869 0.21569 0.74382 0.0
H776 H 0.77161 0.10721 0.73292 0.0
C777 C 0.78174 0.21566 0.77039 0.0
H778 H 0.75684 0.17461 0.70996 0.0
C779 C 0.79121 0.17702 0.7834 0.0
C780 C 0.7876 0.13716 0.77031 0.0
H781 H 0.7839 0.24549 0.78139 0.0
H782 H 0.80111 0.17844 0.80385 0.0
C783 C 0.77526 0.13719 0.74361 0.0
C784 C 0.78469 0.227 0.23875 0.0
C785 C 0.78368 0.23991 0.26534 0.0
H786 H 0.82322 0.2092 0.20555 0.0
C787 C 0.82288 0.24409 0.27895 0.0
H788 H 0.75525 0.22375 0.22756 0.0
C789 C 0.86201 0.236 0.26622 0.0
C790 C 0.86296 0.22366 0.23953 0.0
H791 H 0.82335 0.25338 0.29953 0.0
H792 H 0.89158 0.2404 0.27714 0.0
C793 C 0.82375 0.21899 0.22604 0.0
C794 C 0.28729 0.36405 0.76894 0.0
C795 C 0.28351 0.36902 0.74142 0.0
H796 H 0.2795 0.32232 0.80238 0.0
C797 C 0.26878 0.33357 0.72653 0.0
H798 H 0.29912 0.39011 0.78112 0.0
C799 C 0.25831 0.29448 0.73874 0.0
C800 C 0.2615 0.28994 0.76621 0.0
H801 H 0.26427 0.33612 0.70543 0.0
H802 H 0.24677 0.26804 0.72673 0.0
C803 C 0.27612 0.32512 0.78118 0.0
C804 C 0.2142 0.77855 0.23978 0.0
C805 C 0.21494 0.76127 0.26543 0.0
H806 H 0.17598 0.80101 0.20749 0.0
C807 C 0.17558 0.7539 0.27832 0.0
H808 H 0.24379 0.78435 0.22914 0.0
C809 C 0.13654 0.76327 0.26579 0.0
C810 C 0.13588 0.78009 0.24002 0.0
H811 H 0.17489 0.74118 0.29821 0.0
H812 H 0.10684 0.7564 0.27608 0.0
C813 C 0.17524 0.78781 0.22726 0.0
C814 C 0.69648 0.66654 0.74023 0.0
C815 C 0.72562 0.63205 0.73986 0.0
H816 H 0.68366 0.73099 0.75272 0.0
C817 C 0.76627 0.6376 0.75134 0.0
H818 H 0.66489 0.66302 0.73155 0.0
C819 C 0.7778 0.67705 0.76272 0.0
C820 C 0.74862 0.7118 0.76338 0.0
H821 H 0.78963 0.61171 0.75088 0.0
H822 H 0.80992 0.68033 0.77059 0.0
C823 C 0.70761 0.70572 0.75213 0.0
C824 C 0.03307 0.53611 0.13998 0.0
C825 C 0.99728 0.54874 0.12497 0.0
H826 H 0.0733 0.48451 0.1527 0.0
C827 C 0.97651 0.518 0.10912 0.0
H828 H 0.04926 0.55876 0.15284 0.0
C829 C 0.99042 0.47515 0.10903 0.0
C830 C 0.0253 0.46232 0.12481 0.0
H831 H 0.94912 0.52694 0.09714 0.0
H832 H 0.97342 0.4519 0.097 0.0
C833 C 0.04692 0.49344 0.13989 0.0
C834 C 0.98993 0.4753 0.61111 0.0
C835 C 0.9585 0.49615 0.62638 0.0
H836 H 0.05642 0.47222 0.60029 0.0
C837 C 0.97031 0.53208 0.64166 0.0
H838 H 0.98174 0.44785 0.59891 0.0
C839 C 0.0127 0.54625 0.64213 0.0
C840 C 0.04429 0.52457 0.62756 0.0
H841 H 0.94719 0.54828 0.65416 0.0
H842 H 0.0211 0.57302 0.65484 0.0
C843 C 0.03254 0.48928 0.6118 0.0
C844 C 0.5167 0.01851 0.40463 0.0
C845 C 0.49786 0.04872 0.38751 0.0
H846 H 0.51808 0.95288 0.41785 0.0
C847 C 0.46351 0.03575 0.37139 0.0
H848 H 0.5429 0.02772 0.41749 0.0
C849 C 0.44932 0.99321 0.37163 0.0
C850 C 0.46918 0.96255 0.38797 0.0
H851 H 0.44884 0.05794 0.35757 0.0
H852 H 0.42424 0.98393 0.35797 0.0
C853 C 0.50246 0.97577 0.40486 0.0
C854 C 0.46652 0.96594 0.85935 0.0
C855 C 0.45445 0.00167 0.87473 0.0
H856 H 0.51756 0.92488 0.84653 0.0
C857 C 0.48544 0.02186 0.89064 0.0
H858 H 0.44367 0.95018 0.84647 0.0
C859 C 0.52793 0.00753 0.89045 0.0
C860 C 0.54006 0.97259 0.87451 0.0
H861 H 0.47699 0.04906 0.90299 0.0
H862 H 0.55145 0.02412 0.90247 0.0
C863 C 0.50885 0.95144 0.85934 0.0
loop_
_geom_bond_atom_site_label_1
_geom_bond_atom_site_label_2
_geom_bond_distance
_geom_bond_site_symmetry_2
_ccdc_geom_bond_type
Li0 N17 1.990 . S
Li0 O60 1.956 . S
Li0 O61 1.970 . S
Li0 O62 1.961 . S
Li1 N25 1.990 . S
Li1 O60 1.970 . S
Li1 O61 1.956 . S
Li1 O63 1.961 . S
Li2 N47 1.990 . S
Li2 O60 1.961 . S
Li2 O62 1.956 . S
Li2 O63 1.970 . S
Li3 N53 1.990 1_455 S
Li3 O61 1.961 . S
Li3 O62 1.970 . S
Li3 O63 1.956 . S
C4 C6 1.348 . S
C4 C7 1.356 . S
C4 O60 1.325 . S
N5 C8 1.314 . S
N5 C9 1.279 . S
C6 C4 1.348 . S
C6 C8 1.353 . S
C6 H64 0.929 . S
C7 C4 1.356 . S
C7 C9 1.358 . S
C7 H65 0.930 . S
C8 N5 1.314 . S
C8 C6 1.353 . S
C8 H66 0.930 . S
C9 N5 1.279 . S
C9 C7 1.358 . S
C9 H67 0.930 . S
C10 C13 1.348 . S
C10 C14 1.356 . S
C10 O61 1.325 . S
C11 N12 1.279 . S
C11 C14 1.358 . S
C11 H68 0.930 . S
N12 C11 1.279 . S
N12 C15 1.314 . S
C13 C10 1.348 . S
C13 C15 1.353 . S
C13 H69 0.929 . S
C14 C10 1.356 . S
C14 C11 1.358 . S
C14 H70 0.930 . S
C15 N12 1.314 . S
C15 C13 1.353 . S
C15 H71 0.930 . S
C16 N17 1.314 . S
C16 C21 1.357 . S
C16 H22 0.930 1_455 S
N17 Li0 1.990 . S
N17 C16 1.314 . S
N17 C19 1.279 . S
C18 C19 1.358 . S
C18 C20 1.356 . S
C18 H72 0.930 . S
C19 N17 1.279 . S
C19 C18 1.358 . S
C19 H23 0.930 . S
C20 C18 1.356 . S
C20 C21 1.361 . S
C21 C16 1.357 . S
C21 C20 1.361 . S
C21 H73 0.912 1_455 S
H22 C16 0.930 1_655 S
H23 C19 0.930 . S
C24 N25 1.314 . S
C24 C26 1.353 . S
C24 H30 0.930 . S
N25 Li1 1.990 . S
N25 C24 1.314 . S
N25 C28 1.279 . S
C26 C24 1.353 . S
C26 C29 1.348 . S
C26 H74 0.929 . S
C27 C28 1.358 . S
C27 C29 1.356 . S
C27 H75 0.930 . S
C28 N25 1.279 . S
C28 C27 1.358 . S
C28 H31 0.930 . S
C29 C26 1.348 . S
C29 C27 1.356 . S
H30 C24 0.930 . S
H31 C28 0.930 . S
C32 C34 1.348 . S
C32 C35 1.356 . S
C32 O62 1.325 1_655 S
N33 C36 1.314 . S
N33 C37 1.279 . S
C34 C32 1.348 . S
C34 C36 1.353 . S
C34 H76 0.929 . S
C35 C32 1.356 . S
C35 C37 1.358 . S
C35 H77 0.930 1_655 S
C36 N33 1.314 . S
C36 C34 1.353 . S
C36 H78 0.930 . S
C37 N33 1.279 . S
C37 C35 1.358 . S
C37 H79 0.930 . S
C38 C39 1.348 . S
C38 C40 1.356 . S
C38 O63 1.325 . S
C39 C38 1.348 . S
C39 C41 1.353 . S
C39 H80 0.929 . S
C40 C38 1.356 . S
C40 C42 1.358 . S
C40 H81 0.930 . S
C41 C39 1.353 . S
C41 N43 1.314 . S
C41 H82 0.930 . S
C42 C40 1.358 . S
C42 N43 1.279 . S
C42 H83 0.930 . S
N43 C41 1.314 . S
N43 C42 1.279 . S
C44 C46 1.353 . S
C44 N47 1.314 . S
C44 H50 0.930 . S
C45 N47 1.279 . S
C45 C48 1.358 . S
C45 H51 0.930 . S
C46 C44 1.353 . S
C46 C49 1.348 . S
C46 H84 0.929 . S
N47 Li2 1.990 . S
N47 C44 1.314 . S
N47 C45 1.279 . S
C48 C45 1.358 . S
C48 C49 1.356 . S
C48 H85 0.930 . S
C49 C46 1.348 . S
C49 C48 1.356 . S
H50 C44 0.930 . S
H51 C45 0.930 . S
C52 N53 1.314 . S
C52 C54 1.353 . S
C52 H58 0.930 . S
N53 Li3 1.990 1_655 S
N53 C52 1.314 . S
N53 C56 1.279 . S
C54 C52 1.353 . S
C54 C57 1.348 . S
C54 H86 0.929 . S
C55 C56 1.358 . S
C55 C57 1.356 . S
C55 H87 0.930 . S
C56 N53 1.279 . S
C56 C55 1.358 . S
C56 H59 0.930 . S
C57 C54 1.348 . S
C57 C55 1.356 . S
H58 C52 0.930 . S
H59 C56 0.930 . S
O60 Li0 1.956 . S
O60 Li1 1.970 . S
O60 Li2 1.961 . S
O60 C4 1.325 . S
O61 Li0 1.970 . S
O61 Li1 1.956 . S
O61 Li3 1.961 . S
O61 C10 1.325 . S
O62 Li0 1.961 . S
O62 Li2 1.956 . S
O62 Li3 1.970 . S
O62 C32 1.325 1_455 S
O63 Li1 1.961 . S
O63 Li2 1.970 . S
O63 Li3 1.956 . S
O63 C38 1.325 . S
H64 C6 0.929 . S
H65 C7 0.930 . S
H66 C8 0.930 . S
H67 C9 0.930 . S
H68 C11 0.930 . S
H69 C13 0.929 . S
H70 C14 0.930 . S
H71 C15 0.930 . S
H72 C18 0.930 . S
H73 C21 0.912 1_655 S
H74 C26 0.929 . S
H75 C27 0.930 . S
H76 C34 0.929 . S
H77 C35 0.930 1_455 S
H78 C36 0.930 . S
H79 C37 0.930 . S
H80 C39 0.929 . S
H81 C40 0.930 . S
H82 C41 0.930 . S
H83 C42 0.930 . S
H84 C46 0.929 . S
H85 C48 0.930 . S
H86 C54 0.929 . S
H87 C55 0.930 . S
Li88 N105 1.990 . S
Li88 O148 1.956 . S
Li88 O149 1.970 . S
Li88 O150 1.961 . S
Li89 N113 1.990 . S
Li89 O148 1.970 . S
Li89 O149 1.956 . S
Li89 O151 1.961 . S
Li90 N135 1.990 . S
Li90 O148 1.961 . S
Li90 O150 1.956 . S
Li90 O151 1.970 . S
Li91 N141 1.990 . S
Li91 O149 1.961 . S
Li91 O150 1.970 . S
Li91 O151 1.956 . S
C92 C94 1.348 . S
C92 C95 1.356 . S
C92 O148 1.325 . S
N93 C96 1.314 . S
N93 C97 1.279 . S
C94 C92 1.348 . S
C94 C96 1.353 . S
C94 H152 0.929 . S
C95 C92 1.356 . S
C95 C97 1.358 . S
C95 H153 0.930 . S
C96 N93 1.314 . S
C96 C94 1.353 . S
C96 H154 0.930 . S
C97 N93 1.279 . S
C97 C95 1.358 . S
C97 H155 0.930 . S
C98 C101 1.348 . S
C98 C102 1.356 . S
C98 O149 1.325 . S
C99 N100 1.279 . S
C99 C102 1.358 . S
C99 H156 0.930 . S
N100 C99 1.279 . S
N100 C103 1.314 . S
C101 C98 1.348 . S
C101 C103 1.353 . S
C101 H157 0.929 . S
C102 C98 1.356 . S
C102 C99 1.358 . S
C102 H158 0.930 . S
C103 N100 1.314 . S
C103 C101 1.353 . S
C103 H159 0.930 . S
C104 N105 1.314 . S
C104 C109 1.353 . S
C104 H110 0.930 . S
N105 Li88 1.990 . S
N105 C104 1.314 . S
N105 C107 1.279 . S
C106 C107 1.358 . S
C106 C108 1.356 . S
C106 H160 0.930 . S
C107 N105 1.279 . S
C107 C106 1.358 . S
C107 H111 0.930 . S
C108 C106 1.356 . S
C108 C109 1.348 . S
C109 C104 1.353 . S
C109 C108 1.348 . S
C109 H161 0.929 . S
H110 C104 0.930 . S
H111 C107 0.930 . S
C112 N113 1.314 . S
C112 C114 1.353 . S
C112 H118 0.930 . S
N113 Li89 1.990 . S
N113 C112 1.314 . S
N113 C116 1.279 . S
C114 C112 1.353 . S
C114 C117 1.348 . S
C114 H162 0.929 . S
C115 C116 1.358 . S
C115 C117 1.356 . S
C115 H163 0.930 . S
C116 N113 1.279 . S
C116 C115 1.358 . S
C116 H119 0.930 . S
C117 C114 1.348 . S
C117 C115 1.356 . S
H118 C112 0.930 . S
H119 C116 0.930 . S
C120 C122 1.348 . S
C120 C123 1.356 . S
C120 O150 1.325 . S
N121 C124 1.314 . S
N121 C125 1.279 . S
C122 C120 1.348 . S
C122 C124 1.353 . S
C122 H164 0.929 . S
C123 C120 1.356 . S
C123 C125 1.358 . S
C123 H165 0.930 . S
C124 N121 1.314 . S
C124 C122 1.353 . S
C124 H166 0.930 . S
C125 N121 1.279 . S
C125 C123 1.358 . S
C125 H167 0.930 . S
C126 C127 1.348 . S
C126 C128 1.356 . S
C126 O151 1.325 . S
C127 C126 1.348 . S
C127 C129 1.353 . S
C127 H168 0.929 . S
C128 C126 1.356 . S
C128 C130 1.358 . S
C128 H169 0.930 . S
C129 C127 1.353 . S
C129 N131 1.314 . S
C129 H170 0.930 . S
C130 C128 1.358 . S
C130 N131 1.279 . S
C130 H171 0.930 . S
N131 C129 1.314 . S
N131 C130 1.279 . S
C132 C134 1.353 . S
C132 N135 1.314 . S
C132 H138 0.930 . S
C133 N135 1.279 . S
C133 C136 1.358 . S
C133 H139 0.930 . S
C134 C132 1.353 . S
C134 C137 1.348 . S
C134 H172 0.929 . S
N135 Li90 1.990 . S
N135 C132 1.314 . S
N135 C133 1.279 . S
C136 C133 1.358 . S
C136 C137 1.356 . S
C136 H173 0.930 . S
C137 C134 1.348 . S
C137 C136 1.356 . S
H138 C132 0.930 . S
H139 C133 0.930 . S
C140 N141 1.314 . S
C140 C142 1.353 . S
C140 H146 0.930 . S
N141 Li91 1.990 . S
N141 C140 1.314 . S
N141 C144 1.279 . S
C142 C140 1.353 . S
C142 C145 1.348 . S
C142 H174 0.929 . S
C143 C144 1.358 . S
C143 C145 1.356 . S
C143 H175 0.930 . S
C144 N141 1.279 . S
C144 C143 1.358 . S
C144 H147 0.930 . S
C145 C142 1.348 . S
C145 C143 1.356 . S
H146 C140 0.930 . S
H147 C144 0.930 . S
O148 Li88 1.956 . S
O148 Li89 1.970 . S
O148 Li90 1.961 . S
O148 C92 1.325 . S
O149 Li88 1.970 . S
O149 Li89 1.956 . S
O149 Li91 1.961 . S
O149 C98 1.325 . S
O150 Li88 1.961 . S
O150 Li90 1.956 . S
O150 Li91 1.970 . S
O150 C120 1.325 . S
O151 Li89 1.961 . S
O151 Li90 1.970 . S
O151 Li91 1.956 . S
O151 C126 1.325 . S
H152 C94 0.929 . S
H153 C95 0.930 . S
H154 C96 0.930 . S
H155 C97 0.930 . S
H156 C99 0.930 . S
H157 C101 0.929 . S
H158 C102 0.930 . S
H159 C103 0.930 . S
H160 C106 0.930 . S
H161 C109 0.929 . S
H162 C114 0.929 . S
H163 C115 0.930 . S
H164 C122 0.929 . S
H165 C123 0.930 . S
H166 C124 0.930 . S
H167 C125 0.930 . S
H168 C127 0.929 . S
H169 C128 0.930 . S
H170 C129 0.930 . S
H171 C130 0.930 . S
H172 C134 0.929 . S
H173 C136 0.930 . S
H174 C142 0.929 . S
H175 C143 0.930 . S
Li176 N193 1.990 . S
Li176 O236 1.956 . S
Li176 O237 1.970 . S
Li176 O238 1.961 . S
Li177 N201 1.990 . S
Li177 O236 1.970 . S
Li177 O237 1.956 . S
Li177 O239 1.961 . S
Li178 N223 1.990 1_655 S
Li178 O236 1.961 . S
Li178 O238 1.956 . S
Li178 O239 1.970 . S
Li179 N229 1.990 . S
Li179 O237 1.961 . S
Li179 O238 1.970 . S
Li179 O239 1.956 . S
C180 C182 1.348 . S
C180 C183 1.356 . S
C180 O236 1.325 . S
N181 C184 1.314 . S
N181 C185 1.279 . S
C182 C180 1.348 . S
C182 C184 1.353 . S
C182 H240 0.929 . S
C183 C180 1.356 . S
C183 C185 1.358 . S
C183 H241 0.930 . S
C184 N181 1.314 . S
C184 C182 1.353 . S
C184 H242 0.930 . S
C185 N181 1.279 . S
C185 C183 1.358 . S
C185 H243 0.930 . S
C186 C189 1.348 . S
C186 C190 1.356 . S
C186 O237 1.325 . S
C187 N188 1.279 . S
C187 C190 1.358 . S
C187 H244 0.930 . S
N188 C187 1.279 . S
N188 C191 1.314 . S
C189 C186 1.348 . S
C189 C191 1.353 . S
C189 H245 0.929 . S
C190 C186 1.356 . S
C190 C187 1.358 . S
C190 H246 0.930 . S
C191 N188 1.314 . S
C191 C189 1.353 . S
C191 H247 0.930 . S
C192 N193 1.314 . S
C192 C197 1.353 . S
C192 H198 0.930 . S
N193 Li176 1.990 . S
N193 C192 1.314 . S
N193 C195 1.279 . S
C194 C195 1.358 . S
C194 C196 1.356 . S
C194 H248 0.930 . S
C195 N193 1.279 . S
C195 C194 1.358 . S
C195 H199 0.930 . S
C196 C194 1.356 . S
C196 C197 1.348 . S
C197 C192 1.353 . S
C197 C196 1.348 . S
C197 H249 0.929 . S
H198 C192 0.930 . S
H199 C195 0.930 . S
C200 N201 1.314 . S
C200 C202 1.357 . S
C200 H206 0.930 1_655 S
N201 Li177 1.990 . S
N201 C200 1.314 . S
N201 C204 1.279 . S
C202 C200 1.357 . S
C202 C205 1.361 . S
C202 H250 0.912 1_655 S
C203 C204 1.358 . S
C203 C205 1.356 . S
C203 H251 0.930 . S
C204 N201 1.279 . S
C204 C203 1.358 . S
C204 H207 0.930 . S
C205 C202 1.361 . S
C205 C203 1.356 . S
H206 C200 0.930 1_455 S
H207 C204 0.930 . S
C208 C210 1.348 . S
C208 C211 1.356 . S
C208 O238 1.325 . S
N209 C212 1.314 . S
N209 C213 1.279 . S
C210 C208 1.348 . S
C210 C212 1.353 . S
C210 H252 0.929 . S
C211 C208 1.356 . S
C211 C213 1.358 . S
C211 H253 0.930 . S
C212 N209 1.314 . S
C212 C210 1.353 . S
C212 H254 0.930 . S
C213 N209 1.279 . S
C213 C211 1.358 . S
C213 H255 0.930 . S
C214 C215 1.348 . S
C214 C216 1.356 . S
C214 O239 1.325 1_455 S
C215 C214 1.348 . S
C215 C217 1.353 . S
C215 H256 0.929 . S
C216 C214 1.356 . S
C216 C218 1.358 . S
C216 H257 0.930 1_455 S
C217 C215 1.353 . S
C217 N219 1.314 . S
C217 H258 0.930 . S
C218 C216 1.358 . S
C218 N219 1.279 . S
C218 H259 0.930 . S
N219 C217 1.314 . S
N219 C218 1.279 . S
C220 C222 1.353 . S
C220 N223 1.314 . S
C220 H226 0.930 . S
C221 N223 1.279 . S
C221 C224 1.358 . S
C221 H227 0.930 . S
C222 C220 1.353 . S
C222 C225 1.348 . S
C222 H260 0.929 . S
N223 Li178 1.990 1_455 S
N223 C220 1.314 . S
N223 C221 1.279 . S
C224 C221 1.358 . S
C224 C225 1.356 . S
C224 H261 0.930 . S
C225 C222 1.348 . S
C225 C224 1.356 . S
H226 C220 0.930 . S
H227 C221 0.930 . S
C228 N229 1.314 . S
C228 C230 1.353 . S
C228 H234 0.930 . S
N229 Li179 1.990 . S
N229 C228 1.314 . S
N229 C232 1.279 . S
C230 C228 1.353 . S
C230 C233 1.348 . S
C230 H262 0.929 . S
C231 C232 1.358 . S
C231 C233 1.356 . S
C231 H263 0.930 . S
C232 N229 1.279 . S
C232 C231 1.358 . S
C232 H235 0.930 . S
C233 C230 1.348 . S
C233 C231 1.356 . S
H234 C228 0.930 . S
H235 C232 0.930 . S
O236 Li176 1.956 . S
O236 Li177 1.970 . S
O236 Li178 1.961 . S
O236 C180 1.325 . S
O237 Li176 1.970 . S
O237 Li177 1.956 . S
O237 Li179 1.961 . S
O237 C186 1.325 . S
O238 Li176 1.961 . S
O238 Li178 1.956 . S
O238 Li179 1.970 . S
O238 C208 1.325 . S
O239 Li177 1.961 . S
O239 Li178 1.970 . S
O239 Li179 1.956 . S
O239 C214 1.325 1_655 S
H240 C182 0.929 . S
H241 C183 0.930 . S
H242 C184 0.930 . S
H243 C185 0.930 . S
H244 C187 0.930 . S
H245 C189 0.929 . S
H246 C190 0.930 . S
H247 C191 0.930 . S
H248 C194 0.930 . S
H249 C197 0.929 . S
H250 C202 0.912 1_455 S
H251 C203 0.930 . S
H252 C210 0.929 . S
H253 C211 0.930 . S
H254 C212 0.930 . S
H255 C213 0.930 . S
H256 C215 0.929 . S
H257 C216 0.930 1_655 S
H258 C217 0.930 . S
H259 C218 0.930 . S
H260 C222 0.929 . S
H261 C224 0.930 . S
H262 C230 0.929 . S
H263 C231 0.930 . S
Li264 N281 1.990 . S
Li264 O324 1.956 . S
Li264 O325 1.970 . S
Li264 O326 1.961 . S
Li265 N289 1.990 . S
Li265 O324 1.970 . S
Li265 O325 1.956 . S
Li265 O327 1.961 . S
Li266 N311 1.990 . S
Li266 O324 1.961 . S
Li266 O326 1.956 . S
Li266 O327 1.970 . S
Li267 N317 1.990 . S
Li267 O325 1.961 . S
Li267 O326 1.970 . S
Li267 O327 1.956 . S
C268 C270 1.348 . S
C268 C271 1.356 . S
C268 O324 1.325 . S
N269 C272 1.314 . S
N269 C273 1.279 . S
C270 C268 1.348 . S
C270 C272 1.353 . S
C270 H328 0.929 . S
C271 C268 1.356 . S
C271 C273 1.358 . S
C271 H329 0.930 . S
C272 N269 1.314 . S
C272 C270 1.353 . S
C272 H330 0.930 . S
C273 N269 1.279 . S
C273 C271 1.358 . S
C273 H331 0.930 . S
C274 C277 1.348 . S
C274 C278 1.356 . S
C274 O325 1.325 . S
C275 N276 1.279 . S
C275 C278 1.358 . S
C275 H332 0.930 . S
N276 C275 1.279 . S
N276 C279 1.314 . S
C277 C274 1.348 . S
C277 C279 1.353 . S
C277 H333 0.929 . S
C278 C274 1.356 . S
C278 C275 1.358 . S
C278 H334 0.930 . S
C279 N276 1.314 . S
C279 C277 1.353 . S
C279 H335 0.930 . S
C280 N281 1.314 . S
C280 C285 1.353 . S
C280 H286 0.930 . S
N281 Li264 1.990 . S
N281 C280 1.314 . S
N281 C283 1.279 . S
C282 C283 1.358 . S
C282 C284 1.356 . S
C282 H336 0.930 . S
C283 N281 1.279 . S
C283 C282 1.358 . S
C283 H287 0.930 . S
C284 C282 1.356 . S
C284 C285 1.348 . S
C285 C280 1.353 . S
C285 C284 1.348 . S
C285 H337 0.929 . S
H286 C280 0.930 . S
H287 C283 0.930 . S
C288 N289 1.314 . S
C288 C290 1.353 . S
C288 H294 0.930 . S
N289 Li265 1.990 . S
N289 C288 1.314 . S
N289 C292 1.279 . S
C290 C288 1.353 . S
C290 C293 1.348 . S
C290 H338 0.929 . S
C291 C292 1.358 . S
C291 C293 1.356 . S
C291 H339 0.930 . S
C292 N289 1.279 . S
C292 C291 1.358 . S
C292 H295 0.930 . S
C293 C290 1.348 . S
C293 C291 1.356 . S
H294 C288 0.930 . S
H295 C292 0.930 . S
C296 C298 1.348 . S
C296 C299 1.356 . S
C296 O326 1.325 . S
N297 C300 1.314 . S
N297 C301 1.279 . S
C298 C296 1.348 . S
C298 C300 1.353 . S
C298 H340 0.929 . S
C299 C296 1.356 . S
C299 C301 1.358 . S
C299 H341 0.930 . S
C300 N297 1.314 . S
C300 C298 1.353 . S
C300 H342 0.930 . S
C301 N297 1.279 . S
C301 C299 1.358 . S
C301 H343 0.930 . S
C302 C303 1.348 . S
C302 C304 1.356 . S
C302 O327 1.325 . S
C303 C302 1.348 . S
C303 C305 1.353 . S
C303 H344 0.929 . S
C304 C302 1.356 . S
C304 C306 1.358 . S
C304 H345 0.930 . S
C305 C303 1.353 . S
C305 N307 1.314 . S
C305 H346 0.930 . S
C306 C304 1.358 . S
C306 N307 1.279 . S
C306 H347 0.930 . S
N307 C305 1.314 . S
N307 C306 1.279 . S
C308 C310 1.353 . S
C308 N311 1.314 . S
C308 H314 0.930 . S
C309 N311 1.279 . S
C309 C312 1.358 . S
C309 H315 0.930 . S
C310 C308 1.353 . S
C310 C313 1.348 . S
C310 H348 0.929 . S
N311 Li266 1.990 . S
N311 C308 1.314 . S
N311 C309 1.279 . S
C312 C309 1.358 . S
C312 C313 1.356 . S
C312 H349 0.930 . S
C313 C310 1.348 . S
C313 C312 1.356 . S
H314 C308 0.930 . S
H315 C309 0.930 . S
C316 N317 1.314 . S
C316 C318 1.353 . S
C316 H322 0.930 . S
N317 Li267 1.990 . S
N317 C316 1.314 . S
N317 C320 1.279 . S
C318 C316 1.353 . S
C318 C321 1.348 . S
C318 H350 0.929 . S
C319 C320 1.358 . S
C319 C321 1.356 . S
C319 H351 0.930 . S
C320 N317 1.279 . S
C320 C319 1.358 . S
C320 H323 0.930 . S
C321 C318 1.348 . S
C321 C319 1.356 . S
H322 C316 0.930 . S
H323 C320 0.930 . S
O324 Li264 1.956 . S
O324 Li265 1.970 . S
O324 Li266 1.961 . S
O324 C268 1.325 . S
O325 Li264 1.970 . S
O325 Li265 1.956 . S
O325 Li267 1.961 . S
O325 C274 1.325 . S
O326 Li264 1.961 . S
O326 Li266 1.956 . S
O326 Li267 1.970 . S
O326 C296 1.325 . S
O327 Li265 1.961 . S
O327 Li266 1.970 . S
O327 Li267 1.956 . S
O327 C302 1.325 . S
H328 C270 0.929 . S
H329 C271 0.930 . S
H330 C272 0.930 . S
H331 C273 0.930 . S
H332 C275 0.930 . S
H333 C277 0.929 . S
H334 C278 0.930 . S
H335 C279 0.930 . S
H336 C282 0.930 . S
H337 C285 0.929 . S
H338 C290 0.929 . S
H339 C291 0.930 . S
H340 C298 0.929 . S
H341 C299 0.930 . S
H342 C300 0.930 . S
H343 C301 0.930 . S
H344 C303 0.929 . S
H345 C304 0.930 . S
H346 C305 0.930 . S
H347 C306 0.930 . S
H348 C310 0.929 . S
H349 C312 0.930 . S
H350 C318 0.929 . S
H351 C319 0.930 . S
Li352 N369 1.990 . S
Li352 O412 1.956 . S
Li352 O413 1.970 . S
Li352 O414 1.961 . S
Li353 N377 1.990 . S
Li353 O412 1.970 . S
Li353 O413 1.956 . S
Li353 O415 1.961 . S
Li354 N399 1.990 . S
Li354 O412 1.961 . S
Li354 O414 1.956 . S
Li354 O415 1.970 . S
Li355 N405 1.990 . S
Li355 O413 1.961 . S
Li355 O414 1.970 . S
Li355 O415 1.956 . S
C356 C358 1.348 . S
C356 C359 1.356 . S
C356 O412 1.325 . S
N357 C360 1.314 . S
N357 C361 1.279 . S
C358 C356 1.348 . S
C358 C360 1.353 . S
C358 H416 0.929 . S
C359 C356 1.356 . S
C359 C361 1.358 . S
C359 H417 0.930 . S
C360 N357 1.314 . S
C360 C358 1.353 . S
C360 H418 0.930 . S
C361 N357 1.279 . S
C361 C359 1.358 . S
C361 H419 0.930 . S
C362 C365 1.348 . S
C362 C366 1.356 . S
C362 O413 1.325 . S
C363 N364 1.279 . S
C363 C366 1.358 . S
C363 H420 0.930 . S
N364 C363 1.279 . S
N364 C367 1.314 . S
C365 C362 1.348 . S
C365 C367 1.353 . S
C365 H421 0.929 . S
C366 C362 1.356 . S
C366 C363 1.358 . S
C366 H422 0.930 . S
C367 N364 1.314 . S
C367 C365 1.353 . S
C367 H423 0.930 . S
C368 N369 1.314 . S
C368 C373 1.353 . S
C368 H374 0.930 . S
N369 Li352 1.990 . S
N369 C368 1.314 . S
N369 C371 1.279 . S
C370 C371 1.358 . S
C370 C372 1.356 . S
C370 H424 0.930 . S
C371 N369 1.279 . S
C371 C370 1.358 . S
C371 H375 0.930 . S
C372 C370 1.356 . S
C372 C373 1.348 . S
C373 C368 1.353 . S
C373 C372 1.348 . S
C373 H425 0.929 . S
H374 C368 0.930 . S
H375 C371 0.930 . S
C376 N377 1.314 . S
C376 C378 1.353 . S
C376 H382 0.930 . S
N377 Li353 1.990 . S
N377 C376 1.314 . S
N377 C380 1.279 . S
C378 C376 1.353 . S
C378 C381 1.348 . S
C378 H426 0.929 . S
C379 C380 1.358 . S
C379 C381 1.356 . S
C379 H427 0.930 . S
C380 N377 1.279 . S
C380 C379 1.358 . S
C380 H383 0.930 . S
C381 C378 1.348 . S
C381 C379 1.356 . S
H382 C376 0.930 . S
H383 C380 0.930 . S
C384 C386 1.348 . S
C384 C387 1.356 . S
C384 O414 1.325 . S
N385 C388 1.314 . S
N385 C389 1.279 . S
C386 C384 1.348 . S
C386 C388 1.353 . S
C386 H428 0.929 . S
C387 C384 1.356 . S
C387 C389 1.358 . S
C387 H429 0.930 . S
C388 N385 1.314 . S
C388 C386 1.353 . S
C388 H430 0.930 . S
C389 N385 1.279 . S
C389 C387 1.358 . S
C389 H431 0.930 . S
C390 C391 1.348 . S
C390 C392 1.356 . S
C390 O415 1.325 . S
C391 C390 1.348 . S
C391 C393 1.353 . S
C391 H432 0.929 . S
C392 C390 1.356 . S
C392 C394 1.358 . S
C392 H433 0.930 . S
C393 C391 1.353 . S
C393 N395 1.314 . S
C393 H434 0.930 . S
C394 C392 1.358 . S
C394 N395 1.279 . S
C394 H435 0.930 . S
N395 C393 1.314 . S
N395 C394 1.279 . S
C396 C398 1.353 . S
C396 N399 1.314 . S
C396 H402 0.930 . S
C397 N399 1.279 . S
C397 C400 1.358 . S
C397 H403 0.930 . S
C398 C396 1.353 . S
C398 C401 1.348 . S
C398 H436 0.929 . S
N399 Li354 1.990 . S
N399 C396 1.314 . S
N399 C397 1.279 . S
C400 C397 1.358 . S
C400 C401 1.356 . S
C400 H437 0.930 . S
C401 C398 1.348 . S
C401 C400 1.356 . S
H402 C396 0.930 . S
H403 C397 0.930 . S
C404 N405 1.314 . S
C404 C406 1.353 . S
C404 H410 0.930 . S
N405 Li355 1.990 . S
N405 C404 1.314 . S
N405 C408 1.279 . S
C406 C404 1.353 . S
C406 C409 1.348 . S
C406 H438 0.929 . S
C407 C408 1.358 . S
C407 C409 1.356 . S
C407 H439 0.930 . S
C408 N405 1.279 . S
C408 C407 1.358 . S
C408 H411 0.930 . S
C409 C406 1.348 . S
C409 C407 1.356 . S
H410 C404 0.930 . S
H411 C408 0.930 . S
O412 Li352 1.956 . S
O412 Li353 1.970 . S
O412 Li354 1.961 . S
O412 C356 1.325 . S
O413 Li352 1.970 . S
O413 Li353 1.956 . S
O413 Li355 1.961 . S
O413 C362 1.325 . S
O414 Li352 1.961 . S
O414 Li354 1.956 . S
O414 Li355 1.970 . S
O414 C384 1.325 . S
O415 Li353 1.961 . S
O415 Li354 1.970 . S
O415 Li355 1.956 . S
O415 C390 1.325 . S
H416 C358 0.929 . S
H417 C359 0.930 . S
H418 C360 0.930 . S
H419 C361 0.930 . S
H420 C363 0.930 . S
H421 C365 0.929 . S
H422 C366 0.930 . S
H423 C367 0.930 . S
H424 C370 0.930 . S
H425 C373 0.929 . S
H426 C378 0.929 . S
H427 C379 0.930 . S
H428 C386 0.929 . S
H429 C387 0.930 . S
H430 C388 0.930 . S
H431 C389 0.930 . S
H432 C391 0.929 . S
H433 C392 0.930 . S
H434 C393 0.930 . S
H435 C394 0.930 . S
H436 C398 0.929 . S
H437 C400 0.930 . S
H438 C406 0.929 . S
H439 C407 0.930 . S
Li440 N457 1.990 . S
Li440 O500 1.956 . S
Li440 O501 1.970 . S
Li440 O502 1.961 . S
Li441 N465 1.990 . S
Li441 O500 1.970 . S
Li441 O501 1.956 . S
Li441 O503 1.961 . S
Li442 N487 1.990 . S
Li442 O500 1.961 . S
Li442 O502 1.956 . S
Li442 O503 1.970 . S
Li443 N493 1.990 1_545 S
Li443 O501 1.961 . S
Li443 O502 1.970 . S
Li443 O503 1.956 . S
C444 C446 1.348 . S
C444 C447 1.356 . S
C444 O500 1.325 . S
N445 C448 1.314 . S
N445 C449 1.279 . S
C446 C444 1.348 . S
C446 C448 1.353 . S
C446 H504 0.929 . S
C447 C444 1.356 . S
C447 C449 1.358 . S
C447 H505 0.930 . S
C448 N445 1.314 . S
C448 C446 1.353 . S
C448 H506 0.930 . S
C449 N445 1.279 . S
C449 C447 1.358 . S
C449 H507 0.930 . S
C450 C453 1.348 . S
C450 C454 1.356 . S
C450 O501 1.325 . S
C451 N452 1.279 . S
C451 C454 1.358 . S
C451 H508 0.930 . S
N452 C451 1.279 . S
N452 C455 1.314 . S
C453 C450 1.348 . S
C453 C455 1.353 . S
C453 H509 0.929 . S
C454 C450 1.356 . S
C454 C451 1.358 . S
C454 H510 0.930 . S
C455 N452 1.314 . S
C455 C453 1.353 . S
C455 H511 0.930 . S
C456 N457 1.314 . S
C456 C461 1.353 . S
C456 H462 0.930 . S
N457 Li440 1.990 . S
N457 C456 1.314 . S
N457 C459 1.279 . S
C458 C459 1.358 . S
C458 C460 1.356 . S
C458 H512 0.930 . S
C459 N457 1.279 . S
C459 C458 1.358 . S
C459 H463 0.930 . S
C460 C458 1.356 . S
C460 C461 1.348 . S
C461 C456 1.353 . S
C461 C460 1.348 . S
C461 H513 0.929 . S
H462 C456 0.930 . S
H463 C459 0.930 . S
C464 N465 1.314 . S
C464 C466 1.353 . S
C464 H470 0.930 . S
N465 Li441 1.990 . S
N465 C464 1.314 . S
N465 C468 1.279 . S
C466 C464 1.353 . S
C466 C469 1.348 . S
C466 H514 0.929 . S
C467 C468 1.358 . S
C467 C469 1.356 . S
C467 H515 0.930 . S
C468 N465 1.279 . S
C468 C467 1.358 . S
C468 H471 0.930 . S
C469 C466 1.348 . S
C469 C467 1.356 . S
H470 C464 0.930 . S
H471 C468 0.930 . S
C472 C474 1.348 . S
C472 C475 1.356 . S
C472 O502 1.325 . S
N473 C476 1.314 . S
N473 C477 1.279 . S
C474 C472 1.348 . S
C474 C476 1.353 . S
C474 H516 0.929 1_545 S
C475 C472 1.356 . S
C475 C477 1.358 . S
C475 H517 0.930 . S
C476 N473 1.314 . S
C476 C474 1.353 . S
C476 H518 0.930 1_545 S
C477 N473 1.279 . S
C477 C475 1.358 . S
C477 H519 0.930 . S
C478 C479 1.348 . S
C478 C480 1.356 . S
C478 O503 1.325 1_565 S
C479 C478 1.348 . S
C479 C481 1.353 . S
C479 H520 0.929 . S
C480 C478 1.356 . S
C480 C482 1.358 . S
C480 H521 0.930 . S
C481 C479 1.353 . S
C481 N483 1.314 . S
C481 H522 0.930 . S
C482 C480 1.358 . S
C482 N483 1.279 . S
C482 H523 0.930 . S
N483 C481 1.314 . S
N483 C482 1.279 . S
C484 C486 1.353 . S
C484 N487 1.314 . S
C484 H490 0.930 . S
C485 N487 1.279 . S
C485 C488 1.358 . S
C485 H491 0.930 . S
C486 C484 1.353 . S
C486 C489 1.348 . S
C486 H524 0.929 . S
N487 Li442 1.990 . S
N487 C484 1.314 . S
N487 C485 1.279 . S
C488 C485 1.358 . S
C488 C489 1.356 . S
C488 H525 0.930 . S
C489 C486 1.348 . S
C489 C488 1.356 . S
H490 C484 0.930 . S
H491 C485 0.930 . S
C492 N493 1.314 . S
C492 C494 1.353 . S
C492 H498 0.930 . S
N493 Li443 1.990 1_565 S
N493 C492 1.314 . S
N493 C496 1.279 . S
C494 C492 1.353 . S
C494 C497 1.348 . S
C494 H526 0.929 . S
C495 C496 1.358 . S
C495 C497 1.356 . S
C495 H527 0.930 . S
C496 N493 1.279 . S
C496 C495 1.358 . S
C496 H499 0.930 . S
C497 C494 1.348 . S
C497 C495 1.356 . S
H498 C492 0.930 . S
H499 C496 0.930 . S
O500 Li440 1.956 . S
O500 Li441 1.970 . S
O500 Li442 1.961 . S
O500 C444 1.325 . S
O501 Li440 1.970 . S
O501 Li441 1.956 . S
O501 Li443 1.961 . S
O501 C450 1.325 . S
O502 Li440 1.961 . S
O502 Li442 1.956 . S
O502 Li443 1.970 . S
O502 C472 1.325 . S
O503 Li441 1.961 . S
O503 Li442 1.970 . S
O503 Li443 1.956 . S
O503 C478 1.325 1_545 S
H504 C446 0.929 . S
H505 C447 0.930 . S
H506 C448 0.930 . S
H507 C449 0.930 . S
H508 C451 0.930 . S
H509 C453 0.929 . S
H510 C454 0.930 . S
H511 C455 0.930 . S
H512 C458 0.930 . S
H513 C461 0.929 . S
H514 C466 0.929 . S
H515 C467 0.930 . S
H516 C474 0.929 1_565 S
H517 C475 0.930 . S
H518 C476 0.930 1_565 S
H519 C477 0.930 . S
H520 C479 0.929 . S
H521 C480 0.930 . S
H522 C481 0.930 . S
H523 C482 0.930 . S
H524 C486 0.929 . S
H525 C488 0.930 . S
H526 C494 0.929 . S
H527 C495 0.930 . S
Li528 N545 1.990 . S
Li528 O588 1.956 . S
Li528 O589 1.970 . S
Li528 O590 1.961 . S
Li529 N553 1.990 . S
Li529 O588 1.970 . S
Li529 O589 1.956 . S
Li529 O591 1.961 . S
Li530 N575 1.990 . S
Li530 O588 1.961 . S
Li530 O590 1.956 . S
Li530 O591 1.970 . S
Li531 N581 1.990 . S
Li531 O589 1.961 . S
Li531 O590 1.970 . S
Li531 O591 1.956 . S
C532 C534 1.348 . S
C532 C535 1.356 . S
C532 O588 1.325 . S
N533 C536 1.314 . S
N533 C537 1.279 . S
C534 C532 1.348 . S
C534 C536 1.353 . S
C534 H592 0.929 . S
C535 C532 1.356 . S
C535 C537 1.358 . S
C535 H593 0.930 . S
C536 N533 1.314 . S
C536 C534 1.353 . S
C536 H594 0.930 . S
C537 N533 1.279 . S
C537 C535 1.358 . S
C537 H595 0.930 . S
C538 C541 1.348 . S
C538 C542 1.356 . S
C538 O589 1.325 . S
C539 N540 1.279 . S
C539 C542 1.358 . S
C539 H596 0.930 . S
N540 C539 1.279 . S
N540 C543 1.314 . S
C541 C538 1.348 . S
C541 C543 1.353 . S
C541 H597 0.929 . S
C542 C538 1.356 . S
C542 C539 1.358 . S
C542 H598 0.930 . S
C543 N540 1.314 . S
C543 C541 1.353 . S
C543 H599 0.930 . S
C544 N545 1.314 . S
C544 C549 1.353 . S
C544 H550 0.930 . S
N545 Li528 1.990 . S
N545 C544 1.314 . S
N545 C547 1.279 . S
C546 C547 1.358 . S
C546 C548 1.356 . S
C546 H600 0.930 . S
C547 N545 1.279 . S
C547 C546 1.358 . S
C547 H551 0.930 . S
C548 C546 1.356 . S
C548 C549 1.348 . S
C549 C544 1.353 . S
C549 C548 1.348 . S
C549 H601 0.929 . S
H550 C544 0.930 . S
H551 C547 0.930 . S
C552 N553 1.314 . S
C552 C554 1.353 . S
C552 H558 0.930 . S
N553 Li529 1.990 . S
N553 C552 1.314 . S
N553 C556 1.279 . S
C554 C552 1.353 . S
C554 C557 1.348 . S
C554 H602 0.929 . S
C555 C556 1.358 . S
C555 C557 1.356 . S
C555 H603 0.930 . S
C556 N553 1.279 . S
C556 C555 1.358 . S
C556 H559 0.930 . S
C557 C554 1.348 . S
C557 C555 1.356 . S
H558 C552 0.930 . S
H559 C556 0.930 . S
C560 C562 1.348 . S
C560 C563 1.356 . S
C560 O590 1.325 . S
N561 C564 1.314 . S
N561 C565 1.279 . S
C562 C560 1.348 . S
C562 C564 1.353 . S
C562 H604 0.929 . S
C563 C560 1.356 . S
C563 C565 1.358 . S
C563 H605 0.930 . S
C564 N561 1.314 . S
C564 C562 1.353 . S
C564 H606 0.930 . S
C565 N561 1.279 . S
C565 C563 1.358 . S
C565 H607 0.930 . S
C566 C567 1.348 . S
C566 C568 1.356 . S
C566 O591 1.325 . S
C567 C566 1.348 . S
C567 C569 1.353 . S
C567 H608 0.929 . S
C568 C566 1.356 . S
C568 C570 1.358 . S
C568 H609 0.930 . S
C569 C567 1.353 . S
C569 N571 1.314 . S
C569 H610 0.930 . S
C570 C568 1.358 . S
C570 N571 1.279 . S
C570 H611 0.930 . S
N571 C569 1.314 . S
N571 C570 1.279 . S
C572 C574 1.353 . S
C572 N575 1.314 . S
C572 H578 0.930 . S
C573 N575 1.279 . S
C573 C576 1.358 . S
C573 H579 0.930 . S
C574 C572 1.353 . S
C574 C577 1.348 . S
C574 H612 0.929 . S
N575 Li530 1.990 . S
N575 C572 1.314 . S
N575 C573 1.279 . S
C576 C573 1.358 . S
C576 C577 1.356 . S
C576 H613 0.930 . S
C577 C574 1.348 . S
C577 C576 1.356 . S
H578 C572 0.930 . S
H579 C573 0.930 . S
C580 N581 1.314 . S
C580 C582 1.353 . S
C580 H586 0.930 . S
N581 Li531 1.990 . S
N581 C580 1.314 . S
N581 C584 1.279 . S
C582 C580 1.353 . S
C582 C585 1.348 . S
C582 H614 0.929 . S
C583 C584 1.358 . S
C583 C585 1.356 . S
C583 H615 0.930 . S
C584 N581 1.279 . S
C584 C583 1.358 . S
C584 H587 0.930 . S
C585 C582 1.348 . S
C585 C583 1.356 . S
H586 C580 0.930 . S
H587 C584 0.930 . S
O588 Li528 1.956 . S
O588 Li529 1.970 . S
O588 Li530 1.961 . S
O588 C532 1.325 . S
O589 Li528 1.970 . S
O589 Li529 1.956 . S
O589 Li531 1.961 . S
O589 C538 1.325 . S
O590 Li528 1.961 . S
O590 Li530 1.956 . S
O590 Li531 1.970 . S
O590 C560 1.325 . S
O591 Li529 1.961 . S
O591 Li530 1.970 . S
O591 Li531 1.956 . S
O591 C566 1.325 . S
H592 C534 0.929 . S
H593 C535 0.930 . S
H594 C536 0.930 . S
H595 C537 0.930 . S
H596 C539 0.930 . S
H597 C541 0.929 . S
H598 C542 0.930 . S
H599 C543 0.930 . S
H600 C546 0.930 . S
H601 C549 0.929 . S
H602 C554 0.929 . S
H603 C555 0.930 . S
H604 C562 0.929 . S
H605 C563 0.930 . S
H606 C564 0.930 . S
H607 C565 0.930 . S
H608 C567 0.929 . S
H609 C568 0.930 . S
H610 C569 0.930 . S
H611 C570 0.930 . S
H612 C574 0.929 . S
H613 C576 0.930 . S
H614 C582 0.929 . S
H615 C583 0.930 . S
Li616 N633 1.990 1_565 S
Li616 O676 1.956 . S
Li616 O677 1.970 . S
Li616 O678 1.961 . S
Li617 N641 1.990 . S
Li617 O676 1.970 . S
Li617 O677 1.956 . S
Li617 O679 1.961 . S
Li618 N663 1.990 . S
Li618 O676 1.961 . S
Li618 O678 1.956 . S
Li618 O679 1.970 . S
Li619 N669 1.990 . S
Li619 O677 1.961 . S
Li619 O678 1.970 . S
Li619 O679 1.956 . S
C620 C622 1.348 . S
C620 C623 1.356 . S
C620 O676 1.325 1_545 S
N621 C624 1.314 . S
N621 C625 1.279 . S
C622 C620 1.348 . S
C622 C624 1.353 . S
C622 H680 0.929 . S
C623 C620 1.356 . S
C623 C625 1.358 . S
C623 H681 0.930 . S
C624 N621 1.314 . S
C624 C622 1.353 . S
C624 H682 0.930 . S
C625 N621 1.279 . S
C625 C623 1.358 . S
C625 H683 0.930 . S
C626 C629 1.348 . S
C626 C630 1.356 . S
C626 O677 1.325 . S
C627 N628 1.279 . S
C627 C630 1.358 . S
C627 H684 0.930 . S
N628 C627 1.279 . S
N628 C631 1.314 . S
C629 C626 1.348 . S
C629 C631 1.353 . S
C629 H685 0.929 1_565 S
C630 C626 1.356 . S
C630 C627 1.358 . S
C630 H686 0.930 . S
C631 N628 1.314 . S
C631 C629 1.353 . S
C631 H687 0.930 1_565 S
C632 N633 1.314 . S
C632 C637 1.353 . S
C632 H638 0.930 . S
N633 Li616 1.990 1_545 S
N633 C632 1.314 . S
N633 C635 1.279 . S
C634 C635 1.358 . S
C634 C636 1.356 . S
C634 H688 0.930 . S
C635 N633 1.279 . S
C635 C634 1.358 . S
C635 H639 0.930 . S
C636 C634 1.356 . S
C636 C637 1.348 . S
C637 C632 1.353 . S
C637 C636 1.348 . S
C637 H689 0.929 . S
H638 C632 0.930 . S
H639 C635 0.930 . S
C640 N641 1.314 . S
C640 C642 1.353 . S
C640 H646 0.930 . S
N641 Li617 1.990 . S
N641 C640 1.314 . S
N641 C644 1.279 . S
C642 C640 1.353 . S
C642 C645 1.348 . S
C642 H690 0.929 . S
C643 C644 1.358 . S
C643 C645 1.356 . S
C643 H691 0.930 . S
C644 N641 1.279 . S
C644 C643 1.358 . S
C644 H647 0.930 . S
C645 C642 1.348 . S
C645 C643 1.356 . S
H646 C640 0.930 . S
H647 C644 0.930 . S
C648 C650 1.348 . S
C648 C651 1.356 . S
C648 O678 1.325 . S
N649 C652 1.314 . S
N649 C653 1.279 . S
C650 C648 1.348 . S
C650 C652 1.353 . S
C650 H692 0.929 . S
C651 C648 1.356 . S
C651 C653 1.358 . S
C651 H693 0.930 . S
C652 N649 1.314 . S
C652 C650 1.353 . S
C652 H694 0.930 . S
C653 N649 1.279 . S
C653 C651 1.358 . S
C653 H695 0.930 . S
C654 C655 1.348 . S
C654 C656 1.356 . S
C654 O679 1.325 . S
C655 C654 1.348 . S
C655 C657 1.353 . S
C655 H696 0.929 . S
C656 C654 1.356 . S
C656 C658 1.358 . S
C656 H697 0.930 . S
C657 C655 1.353 . S
C657 N659 1.314 . S
C657 H698 0.930 . S
C658 C656 1.358 . S
C658 N659 1.279 . S
C658 H699 0.930 . S
N659 C657 1.314 . S
N659 C658 1.279 . S
C660 C662 1.353 . S
C660 N663 1.314 . S
C660 H666 0.930 . S
C661 N663 1.279 . S
C661 C664 1.358 . S
C661 H667 0.930 . S
C662 C660 1.353 . S
C662 C665 1.348 . S
C662 H700 0.929 . S
N663 Li618 1.990 . S
N663 C660 1.314 . S
N663 C661 1.279 . S
C664 C661 1.358 . S
C664 C665 1.356 . S
C664 H701 0.930 . S
C665 C662 1.348 . S
C665 C664 1.356 . S
H666 C660 0.930 . S
H667 C661 0.930 . S
C668 N669 1.314 . S
C668 C670 1.353 . S
C668 H674 0.930 . S
N669 Li619 1.990 . S
N669 C668 1.314 . S
N669 C672 1.279 . S
C670 C668 1.353 . S
C670 C673 1.348 . S
C670 H702 0.929 . S
C671 C672 1.358 . S
C671 C673 1.356 . S
C671 H703 0.930 . S
C672 N669 1.279 . S
C672 C671 1.358 . S
C672 H675 0.930 . S
C673 C670 1.348 . S
C673 C671 1.356 . S
H674 C668 0.930 . S
H675 C672 0.930 . S
O676 Li616 1.956 . S
O676 Li617 1.970 . S
O676 Li618 1.961 . S
O676 C620 1.325 1_565 S
O677 Li616 1.970 . S
O677 Li617 1.956 . S
O677 Li619 1.961 . S
O677 C626 1.325 . S
O678 Li616 1.961 . S
O678 Li618 1.956 . S
O678 Li619 1.970 . S
O678 C648 1.325 . S
O679 Li617 1.961 . S
O679 Li618 1.970 . S
O679 Li619 1.956 . S
O679 C654 1.325 . S
H680 C622 0.929 . S
H681 C623 0.930 . S
H682 C624 0.930 . S
H683 C625 0.930 . S
H684 C627 0.930 . S
H685 C629 0.929 1_545 S
H686 C630 0.930 . S
H687 C631 0.930 1_545 S
H688 C634 0.930 . S
H689 C637 0.929 . S
H690 C642 0.929 . S
H691 C643 0.930 . S
H692 C650 0.929 . S
H693 C651 0.930 . S
H694 C652 0.930 . S
H695 C653 0.930 . S
H696 C655 0.929 . S
H697 C656 0.930 . S
H698 C657 0.930 . S
H699 C658 0.930 . S
H700 C662 0.929 . S
H701 C664 0.930 . S
H702 C670 0.929 . S
H703 C671 0.930 . S
C704 C705 1.387 . S
C704 H708 0.950 . S
C704 C713 1.390 1_554 S
C705 C704 1.387 . S
C705 C707 1.387 . S
H706 C713 0.950 . S
C707 C705 1.387 . S
C707 C709 1.390 1_554 S
C707 H711 0.950 . S
H708 C704 0.950 . S
C709 C707 1.390 1_556 S
C709 C710 1.387 . S
C709 H712 0.950 . S
C710 C709 1.387 . S
C710 C713 1.387 . S
H711 C707 0.950 . S
H712 C709 0.950 . S
C713 C704 1.390 1_556 S
C713 H706 0.950 . S
C713 C710 1.387 . S
C714 C715 1.387 . S
C714 H718 0.950 . S
C714 C723 1.390 . S
C715 C714 1.387 . S
C715 C717 1.387 . S
H716 C723 0.950 . S
C717 C715 1.387 . S
C717 C719 1.390 . S
C717 H721 0.950 . S
H718 C714 0.950 . S
C719 C717 1.390 . S
C719 C720 1.387 . S
C719 H722 0.950 . S
C720 C719 1.387 . S
C720 C723 1.387 . S
H721 C717 0.950 . S
H722 C719 0.950 . S
C723 C714 1.390 . S
C723 H716 0.950 . S
C723 C720 1.387 . S
C724 C725 1.387 . S
C724 H728 0.950 . S
C724 C733 1.390 1_554 S
C725 C724 1.387 . S
C725 C727 1.387 . S
H726 C733 0.950 . S
C727 C725 1.387 . S
C727 C729 1.390 1_554 S
C727 H731 0.950 . S
H728 C724 0.950 . S
C729 C727 1.390 1_556 S
C729 C730 1.387 . S
C729 H732 0.950 . S
C730 C729 1.387 . S
C730 C733 1.387 . S
H731 C727 0.950 . S
H732 C729 0.950 . S
C733 C724 1.390 1_556 S
C733 H726 0.950 . S
C733 C730 1.387 . S
C734 C735 1.387 . S
C734 H738 0.950 . S
C734 C743 1.390 . S
C735 C734 1.387 . S
C735 C737 1.387 . S
H736 C743 0.950 . S
C737 C735 1.387 . S
C737 C739 1.390 . S
C737 H741 0.950 . S
H738 C734 0.950 . S
C739 C737 1.390 . S
C739 C740 1.387 . S
C739 H742 0.950 . S
C740 C739 1.387 . S
C740 C743 1.387 . S
H741 C737 0.950 . S
H742 C739 0.950 . S
C743 C734 1.390 . S
C743 H736 0.950 . S
C743 C740 1.387 . S
C744 C745 1.387 . S
C744 H748 0.950 . S
C744 C753 1.390 . S
C745 C744 1.387 . S
C745 C747 1.387 . S
H746 C753 0.950 . S
C747 C745 1.387 . S
C747 C749 1.390 . S
C747 H751 0.950 . S
H748 C744 0.950 . S
C749 C747 1.390 . S
C749 C750 1.387 . S
C749 H752 0.950 . S
C750 C749 1.387 . S
C750 C753 1.387 . S
H751 C747 0.950 . S
H752 C749 0.950 . S
C753 C744 1.390 . S
C753 H746 0.950 . S
C753 C750 1.387 . S
C754 C755 1.387 . S
C754 H758 0.950 . S
C754 C763 1.390 . S
C755 C754 1.387 . S
C755 C757 1.387 . S
H756 C763 0.950 . S
C757 C755 1.387 . S
C757 C759 1.390 . S
C757 H761 0.950 . S
H758 C754 0.950 . S
C759 C757 1.390 . S
C759 C760 1.387 . S
C759 H762 0.950 . S
C760 C759 1.387 . S
C760 C763 1.387 . S
H761 C757 0.950 . S
H762 C759 0.950 . S
C763 C754 1.390 . S
C763 H756 0.950 . S
C763 C760 1.387 . S
C764 C765 1.387 . S
C764 H768 0.950 . S
C764 C773 1.390 . S
C765 C764 1.387 . S
C765 C767 1.387 . S
H766 C773 0.950 . S
C767 C765 1.387 . S
C767 C769 1.390 . S
C767 H771 0.950 . S
H768 C764 0.950 . S
C769 C767 1.390 . S
C769 C770 1.387 . S
C769 H772 0.950 . S
C770 C769 1.387 . S
C770 C773 1.387 . S
H771 C767 0.950 . S
H772 C769 0.950 . S
C773 C764 1.390 . S
C773 H766 0.950 . S
C773 C770 1.387 . S
C774 C775 1.387 . S
C774 H778 0.950 . S
C774 C783 1.390 . S
C775 C774 1.387 . S
C775 C777 1.387 . S
H776 C783 0.950 . S
C777 C775 1.387 . S
C777 C779 1.390 . S
C777 H781 0.950 . S
H778 C774 0.950 . S
C779 C777 1.390 . S
C779 C780 1.387 . S
C779 H782 0.950 . S
C780 C779 1.387 . S
C780 C783 1.387 . S
H781 C777 0.950 . S
H782 C779 0.950 . S
C783 C774 1.390 . S
C783 H776 0.950 . S
C783 C780 1.387 . S
C784 C785 1.387 . S
C784 H788 0.950 . S
C784 C793 1.390 . S
C785 C784 1.387 . S
C785 C787 1.387 . S
H786 C793 0.950 . S
C787 C785 1.387 . S
C787 C789 1.390 . S
C787 H791 0.950 . S
H788 C784 0.950 . S
C789 C787 1.390 . S
C789 C790 1.387 . S
C789 H792 0.950 . S
C790 C789 1.387 . S
C790 C793 1.387 . S
H791 C787 0.950 . S
H792 C789 0.950 . S
C793 C784 1.390 . S
C793 H786 0.950 . S
C793 C790 1.387 . S
C794 C795 1.387 . S
C794 H798 0.950 . S
C794 C803 1.390 . S
C795 C794 1.387 . S
C795 C797 1.387 . S
H796 C803 0.950 . S
C797 C795 1.387 . S
C797 C799 1.390 . S
C797 H801 0.950 . S
H798 C794 0.950 . S
C799 C797 1.390 . S
C799 C800 1.387 . S
C799 H802 0.950 . S
C800 C799 1.387 . S
C800 C803 1.387 . S
H801 C797 0.950 . S
H802 C799 0.950 . S
C803 C794 1.390 . S
C803 H796 0.950 . S
C803 C800 1.387 . S
C804 C805 1.387 . S
C804 H808 0.950 . S
C804 C813 1.390 . S
C805 C804 1.387 . S
C805 C807 1.387 . S
H806 C813 0.950 . S
C807 C805 1.387 . S
C807 C809 1.390 . S
C807 H811 0.950 . S
H808 C804 0.950 . S
C809 C807 1.390 . S
C809 C810 1.387 . S
C809 H812 0.950 . S
C810 C809 1.387 . S
C810 C813 1.387 . S
H811 C807 0.950 . S
H812 C809 0.950 . S
C813 C804 1.390 . S
C813 H806 0.950 . S
C813 C810 1.387 . S
C814 C815 1.387 . S
C814 H818 0.950 . S
C814 C823 1.390 . S
C815 C814 1.387 . S
C815 C817 1.387 . S
H816 C823 0.950 . S
C817 C815 1.387 . S
C817 C819 1.390 . S
C817 H821 0.950 . S
H818 C814 0.950 . S
C819 C817 1.390 . S
C819 C820 1.387 . S
C819 H822 0.950 . S
C820 C819 1.387 . S
C820 C823 1.387 . S
H821 C817 0.950 . S
H822 C819 0.950 . S
C823 C814 1.390 . S
C823 H816 0.950 . S
C823 C820 1.387 . S
C824 C825 1.387 . S
C824 H828 0.950 . S
C824 C833 1.390 1_655 S
C825 C824 1.387 . S
C825 C827 1.387 . S
H826 C833 0.950 . S
C827 C825 1.387 . S
C827 C829 1.390 1_655 S
C827 H831 0.950 . S
H828 C824 0.950 . S
C829 C827 1.390 1_455 S
C829 C830 1.387 . S
C829 H832 0.950 . S
C830 C829 1.387 . S
C830 C833 1.387 . S
H831 C827 0.950 . S
H832 C829 0.950 . S
C833 C824 1.390 1_455 S
C833 H826 0.950 . S
C833 C830 1.387 . S
C834 C835 1.387 . S
C834 H838 0.950 . S
C834 C843 1.390 1_655 S
C835 C834 1.387 . S
C835 C837 1.387 . S
H836 C843 0.950 . S
C837 C835 1.387 . S
C837 C839 1.390 1_655 S
C837 H841 0.950 . S
H838 C834 0.950 . S
C839 C837 1.390 1_455 S
C839 C840 1.387 . S
C839 H842 0.950 . S
C840 C839 1.387 . S
C840 C843 1.387 . S
H841 C837 0.950 . S
H842 C839 0.950 . S
C843 C834 1.390 1_455 S
C843 H836 0.950 . S
C843 C840 1.387 . S
C844 C845 1.387 . S
C844 H848 0.950 . S
C844 C853 1.390 1_545 S
C845 C844 1.387 . S
C845 C847 1.387 . S
H846 C853 0.950 . S
C847 C845 1.387 . S
C847 C849 1.390 1_545 S
C847 H851 0.950 . S
H848 C844 0.950 . S
C849 C847 1.390 1_565 S
C849 C850 1.387 . S
C849 H852 0.950 . S
C850 C849 1.387 . S
C850 C853 1.387 . S
H851 C847 0.950 . S
H852 C849 0.950 . S
C853 C844 1.390 1_565 S
C853 H846 0.950 . S
C853 C850 1.387 . S
C854 C855 1.387 . S
C854 H858 0.950 . S
C854 C863 1.390 1_545 S
C855 C854 1.387 . S
C855 C857 1.387 . S
H856 C863 0.950 . S
C857 C855 1.387 . S
C857 C859 1.390 1_545 S
C857 H861 0.950 . S
H858 C854 0.950 . S
C859 C857 1.390 1_565 S
C859 C860 1.387 . S
C859 H862 0.950 . S
C860 C859 1.387 . S
C860 C863 1.387 . S
H861 C857 0.950 . S
H862 C859 0.950 . S
C863 C854 1.390 1_565 S
C863 H856 0.950 . S
C863 C860 1.387 . S
C705 C49 1.375 . S
C710 C469 1.378 . S
C715 C108 1.379 . S
C720 C557 1.375 . S
C725 C233 1.376 . S
C730 C665 1.378 . S
C735 C381 1.375 . S
C740 C313 1.379 . S
C745 C29 2.128 . S
C750 C372 2.017 . S
C755 C117 2.115 . S
C760 C497 2.019 . S
C765 C548 2.016 . S
C770 C196 2.127 . S
C775 C321 2.118 . S
C780 C636 2.022 . S
C785 C401 2.125 . S
C790 C57 2.013 . S
C795 C137 2.021 . S
C800 C460 2.116 . S
C805 C577 2.125 . S
C810 C225 2.013 . S
C815 C284 2.018 . S
C820 C673 2.115 . S
C825 C205 0.589 . S
C830 C20 0.589 . S
C835 C293 0.582 . S
C840 C145 0.582 . S
C845 C409 0.598 . S
C850 C585 0.598 . S
C855 C489 0.573 . S
C860 C645 0.573 . S
