# Generated by pormake.
# Topology une, (4)-cn, num edge types: 1
# Building blocks:
#     Node 0, Type 0, BuildingBlock: GALJAG_clean_sbu_0, # of connection points: 4
#     Node 1, Type 0, BuildingBlock: GALJAG_clean_sbu_0, # of connection points: 4
#     Node 2, Type 0, BuildingBlock: GALJAG_clean_sbu_0, # of connection points: 4
#     Node 3, Type 0, BuildingBlock: GALJAG_clean_sbu_0, # of connection points: 4
#     Node 4, Type 0, BuildingBlock: GALJAG_clean_sbu_0, # of connection points: 4
#     Node 5, Type 0, BuildingBlock: GALJAG_clean_sbu_0, # of connection points: 4
#     Node 6, Type 0, BuildingBlock: GALJAG_clean_sbu_0, # of connection points: 4
#     Node 7, Type 0, BuildingBlock: GALJAG_clean_sbu_0, # of connection points: 4
#     Node 8, Type 0, BuildingBlock: GALJAG_clean_sbu_0, # of connection points: 4
#     Node 9, Type 0, BuildingBlock: GALJAG_clean_sbu_0, # of connection points: 4
#     Node 10, Type 0, BuildingBlock: GALJAG_clean_sbu_0, # of connection points: 4
#     Node 11, Type 0, BuildingBlock: GALJAG_clean_sbu_0, # of connection points: 4
#     Node 12, Type 0, BuildingBlock: GALJAG_clean_sbu_0, # of connection points: 4
#     Node 13, Type 0, BuildingBlock: GALJAG_clean_sbu_0, # of connection points: 4
#     Node 14, Type 0, BuildingBlock: GALJAG_clean_sbu_0, # of connection points: 4
#     Node 15, Type 0, BuildingBlock: GALJAG_clean_sbu_0, # of connection points: 4
#     Node 16, Type 0, BuildingBlock: GALJAG_clean_sbu_0, # of connection points: 4
#     Node 17, Type 0, BuildingBlock: GALJAG_clean_sbu_0, # of connection points: 4
#     Edge 18, Type (0, 0), BuildingBlock: TEMPAE_clean_linker_10, # of connection points: 2
#     Edge 19, Type (0, 0), BuildingBlock: TEMPAE_clean_linker_10, # of connection points: 2
#     Edge 20, Type (0, 0), BuildingBlock: TEMPAE_clean_linker_10, # of connection points: 2
#     Edge 21, Type (0, 0), BuildingBlock: TEMPAE_clean_linker_10, # of connection points: 2
#     Edge 22, Type (0, 0), BuildingBlock: TEMPAE_clean_linker_10, # of connection points: 2
#     Edge 23, Type (0, 0), BuildingBlock: TEMPAE_clean_linker_10, # of connection points: 2
#     Edge 24, Type (0, 0), BuildingBlock: TEMPAE_clean_linker_10, # of connection points: 2
#     Edge 25, Type (0, 0), BuildingBlock: TEMPAE_clean_linker_10, # of connection points: 2
#     Edge 26, Type (0, 0), BuildingBlock: TEMPAE_clean_linker_10, # of connection points: 2
#     Edge 27, Type (0, 0), BuildingBlock: TEMPAE_clean_linker_10, # of connection points: 2
#     Edge 28, Type (0, 0), BuildingBlock: TEMPAE_clean_linker_10, # of connection points: 2
#     Edge 29, Type (0, 0), BuildingBlock: TEMPAE_clean_linker_10, # of connection points: 2
#     Edge 30, Type (0, 0), BuildingBlock: TEMPAE_clean_linker_10, # of connection points: 2
#     Edge 31, Type (0, 0), BuildingBlock: TEMPAE_clean_linker_10, # of connection points: 2
#     Edge 32, Type (0, 0), BuildingBlock: TEMPAE_clean_linker_10, # of connection points: 2
#     Edge 33, Type (0, 0), BuildingBlock: TEMPAE_clean_linker_10, # of connection points: 2
#     Edge 34, Type (0, 0), BuildingBlock: TEMPAE_clean_linker_10, # of connection points: 2
#     Edge 35, Type (0, 0), BuildingBlock: TEMPAE_clean_linker_10, # of connection points: 2
#     Edge 36, Type (0, 0), BuildingBlock: TEMPAE_clean_linker_10, # of connection points: 2
#     Edge 37, Type (0, 0), BuildingBlock: TEMPAE_clean_linker_10, # of connection points: 2
#     Edge 38, Type (0, 0), BuildingBlock: TEMPAE_clean_linker_10, # of connection points: 2
#     Edge 39, Type (0, 0), BuildingBlock: TEMPAE_clean_linker_10, # of connection points: 2
#     Edge 40, Type (0, 0), BuildingBlock: TEMPAE_clean_linker_10, # of connection points: 2
#     Edge 41, Type (0, 0), BuildingBlock: TEMPAE_clean_linker_10, # of connection points: 2
#     Edge 42, Type (0, 0), BuildingBlock: TEMPAE_clean_linker_10, # of connection points: 2
#     Edge 43, Type (0, 0), BuildingBlock: TEMPAE_clean_linker_10, # of connection points: 2
#     Edge 44, Type (0, 0), BuildingBlock: TEMPAE_clean_linker_10, # of connection points: 2
#     Edge 45, Type (0, 0), BuildingBlock: TEMPAE_clean_linker_10, # of connection points: 2
#     Edge 46, Type (0, 0), BuildingBlock: TEMPAE_clean_linker_10, # of connection points: 2
#     Edge 47, Type (0, 0), BuildingBlock: TEMPAE_clean_linker_10, # of connection points: 2
#     Edge 48, Type (0, 0), BuildingBlock: TEMPAE_clean_linker_10, # of connection points: 2
#     Edge 49, Type (0, 0), BuildingBlock: TEMPAE_clean_linker_10, # of connection points: 2
#     Edge 50, Type (0, 0), BuildingBlock: TEMPAE_clean_linker_10, # of connection points: 2
#     Edge 51, Type (0, 0), BuildingBlock: TEMPAE_clean_linker_10, # of connection points: 2
#     Edge 52, Type (0, 0), BuildingBlock: TEMPAE_clean_linker_10, # of connection points: 2
#     Edge 53, Type (0, 0), BuildingBlock: TEMPAE_clean_linker_10, # of connection points: 2
# Relax obj value: 0.162
# Max RMSD: 0.139
# Mean RMSD: 0.139
data_MOF--net-une--node1-GALJAG_clean_sbu_0--edge1-TEMPAE_clean_linker_10
_symmetry_space_group_name_H-M    P1
_symmetry_Int_Tables_number       1
_symmetry_cell_setting            triclinic
loop_
_symmetry_equiv_pos_as_xyz
'x, y, z'
_cell_length_a     40.410157
_cell_length_b     40.389085
_cell_length_c     52.284693
_cell_angle_alpha  89.999508
_cell_angle_beta   89.986949
_cell_angle_gamma 119.99765
loop_
_atom_site_label
_atom_site_type_symbol
_atom_site_fract_x
_atom_site_fract_y
_atom_site_fract_z
_atom_type_partial_charge
In0 In 0.38236 0.06285 0.04745 0.0
O1 O 0.36204 0.06235 0.08817 0.0
O2 O 0.41487 0.11008 0.07725 0.0
C3 C 0.32392 0.99094 0.04763 0.0
C4 C 0.37108 0.11326 0.02096 0.0
C5 C 0.43158 0.04845 0.02143 0.0
O6 O 0.35377 0.00081 0.06071 0.0
O7 O 0.32354 0.01757 0.03521 0.0
O8 O 0.40534 0.05184 0.01107 0.0
O9 O 0.43448 0.05398 0.04536 0.0
C10 C 0.38926 0.0948 0.09413 0.0
O11 O 0.40403 0.11931 0.02656 0.0
O12 O 0.34392 0.08152 0.02842 0.0
In13 In 0.91927 0.29731 0.04988 0.0
O14 O 0.91543 0.27954 0.09192 0.0
O15 O 0.86385 0.26555 0.07292 0.0
C16 C 0.99104 0.31184 0.04244 0.0
C17 C 0.88251 0.23961 0.01645 0.0
C18 C 0.92939 0.36783 0.04086 0.0
O19 O 0.97439 0.30068 0.06377 0.0
O20 O 0.97139 0.31547 0.02509 0.0
O21 O 0.90908 0.33935 0.02696 0.0
O22 O 0.94263 0.36035 0.06047 0.0
C23 C 0.87948 0.26271 0.09298 0.0
O24 O 0.8723 0.26393 0.0208 0.0
O25 O 0.91125 0.24442 0.02896 0.0
In26 In 0.70712 0.66285 0.06426 0.0
O27 O 0.7326 0.63285 0.0418 0.0
O28 O 0.74334 0.68741 0.02875 0.0
C29 C 0.63869 0.61237 0.04423 0.0
C30 C 0.74771 0.66342 0.10553 0.0
C31 C 0.69753 0.72303 0.07308 0.0
O32 O 0.66003 0.64544 0.03549 0.0
O33 O 0.65184 0.60392 0.06364 0.0
O34 O 0.67518 0.6903 0.08211 0.0
O35 O 0.72562 0.7256 0.06084 0.0
C36 C 0.74873 0.65945 0.02556 0.0
O37 O 0.76236 0.68259 0.08556 0.0
O38 O 0.7116 0.64326 0.10511 0.0
In39 In 0.63393 0.92352 0.92869 0.0
O40 O 0.65903 0.92004 0.89034 0.0
O41 O 0.60622 0.8722 0.90149 0.0
C42 C 0.69911 0.98827 0.94032 0.0
C43 C 0.63553 0.87939 0.96664 0.0
C44 C 0.57864 0.94272 0.93145 0.0
O45 O 0.68615 0.98099 0.9178 0.0
O46 O 0.67982 0.96261 0.95643 0.0
O47 O 0.57282 0.91008 0.93762 0.0
O48 O 0.61101 0.96418 0.92183 0.0
C49 C 0.63304 0.88643 0.88536 0.0
O50 O 0.62087 0.90037 0.96946 0.0
O51 O 0.64914 0.8806 0.9447 0.0
In52 In 0.05887 0.70741 0.95661 0.0
O53 O 0.11877 0.72676 0.97162 0.0
O54 O 0.08317 0.74166 0.99287 0.0
C55 C 0.03209 0.63453 0.97171 0.0
C56 C 0.09226 0.74979 0.9145 0.0
C57 C 0.993 0.7082 0.95539 0.0
O58 O 0.02637 0.65829 0.9836 0.0
O59 O 0.05212 0.64744 0.95163 0.0
O60 O 8e-05 0.68877 0.93967 0.0
O61 O 0.01959 0.72781 0.97095 0.0
C62 C 0.11529 0.74381 0.9908 0.0
O63 O 0.0875 0.76318 0.93503 0.0
O64 O 0.07977 0.71407 0.91483 0.0
In65 In 0.30858 0.3801 0.95732 0.0
O66 O 0.28696 0.36151 0.91642 0.0
O67 O 0.28332 0.40805 0.93188 0.0
C68 C 0.32297 0.32315 0.96676 0.0
C69 C 0.24797 0.36149 0.98747 0.0
C70 C 0.3786 0.44006 0.96799 0.0
O71 O 0.32143 0.33381 0.9443 0.0
O72 O 0.31709 0.34112 0.98424 0.0
O73 O 0.3496 0.43088 0.98161 0.0
O74 O 0.37202 0.42039 0.94792 0.0
C75 C 0.27546 0.38508 0.91353 0.0
O76 O 0.27602 0.39509 0.98609 0.0
O77 O 0.25089 0.33716 0.97398 0.0
In78 In 0.03702 0.38877 0.37404 0.0
O79 O 0.00655 0.38619 0.41122 0.0
O80 O 0.06423 0.43046 0.4078 0.0
C81 C 0.97821 0.31712 0.3723 0.0
C82 C 0.03165 0.44118 0.34558 0.0
C83 C 0.09039 0.37702 0.35127 0.0
O84 O 0.00854 0.32555 0.3844 0.0
O85 O 0.97753 0.345 0.3619 0.0
O86 O 0.06648 0.38236 0.3393 0.0
O87 O 0.08895 0.37938 0.37534 0.0
C88 C 0.03397 0.41561 0.42098 0.0
O89 O 0.05915 0.44985 0.36069 0.0
O90 O 0.00719 0.40605 0.34463 0.0
In91 In 0.58478 0.63425 0.39584 0.0
O92 O 0.53067 0.59863 0.37263 0.0
O93 O 0.57208 0.58074 0.37426 0.0
C94 C 0.59768 0.69832 0.37097 0.0
C95 C 0.55049 0.60463 0.44134 0.0
C96 C 0.65697 0.64881 0.3966 0.0
O97 O 0.59646 0.66985 0.36031 0.0
O98 O 0.59066 0.69432 0.39473 0.0
O99 O 0.64703 0.66965 0.40861 0.0
O100 O 0.63028 0.62043 0.38526 0.0
C101 C 0.54026 0.57457 0.36583 0.0
O102 O 0.58497 0.61516 0.43688 0.0
O103 O 0.53407 0.61218 0.42366 0.0
In104 In 0.3573 0.9618 0.40381 0.0
O105 O 0.3915 0.93463 0.38957 0.0
O106 O 0.39032 0.97792 0.36682 0.0
C107 C 0.28641 0.90116 0.39689 0.0
C108 C 0.40347 0.98226 0.44536 0.0
C109 C 0.34183 0.01731 0.39187 0.0
O110 O 0.31503 0.90568 0.38442 0.0
O111 O 0.29405 0.92544 0.41436 0.0
O112 O 0.3304 -0.00127 0.4125 0.0
O113 O 0.36173 0.00854 0.37794 0.0
C114 C 0.40304 0.95525 0.36968 0.0
O115 O 0.40873 0.00406 0.42675 0.0
O116 O 0.37344 0.94996 0.44388 0.0
In117 In 0.30121 0.25554 0.26994 0.0
O118 O 0.34388 0.24272 0.25078 0.0
O119 O 0.29438 0.23013 0.22939 0.0
C120 C 0.35737 0.32384 0.28564 0.0
C121 C 0.28817 0.2029 0.3058 0.0
C122 C 0.24388 0.27184 0.26977 0.0
O123 O 0.35024 0.31598 0.26217 0.0
O124 O 0.33669 0.29709 0.30078 0.0
O125 O 0.24036 0.24175 0.27956 0.0
O126 O 0.27479 0.29166 0.25792 0.0
C127 C 0.32532 0.22948 0.23041 0.0
O128 O 0.26936 0.19432 0.28516 0.0
O129 O 0.31268 0.23781 0.30827 0.0
In130 In 0.71792 0.02459 0.27472 0.0
O131 O 0.7253 0.07433 0.25043 0.0
O132 O 0.7449 0.03897 0.23445 0.0
C133 C 0.64861 0.01286 0.28772 0.0
C134 C 0.7753 0.06933 0.3062 0.0
C135 C 0.70392 0.95248 0.28249 0.0
O136 O 0.65427 -0.00074 0.26755 0.0
O137 O 0.67814 0.03329 0.30087 0.0
O138 O 0.72841 0.98074 0.29502 0.0
O139 O 0.68859 0.96087 0.26454 0.0
C140 C 0.74168 0.06838 0.23199 0.0
O141 O 0.78075 0.0569 0.28534 0.0
O142 O 0.74077 0.05843 0.31133 0.0
In143 In 0.95545 0.698 0.29894 0.0
O144 O 0.92565 0.72896 0.31452 0.0
O145 O 0.91398 0.67675 0.33222 0.0
C146 C 0.02483 0.74604 0.31889 0.0
C147 C 0.91953 0.69345 0.25441 0.0
C148 C 0.96434 0.63686 0.29597 0.0
O149 O -0.00242 0.72006 0.33133 0.0
O150 O 0.01703 0.74927 0.29587 0.0
O151 O 0.98436 0.66657 0.28276 0.0
O152 O 0.93932 0.63788 0.30991 0.0
C153 C 0.90776 0.70438 0.33166 0.0
O154 O 0.9128 0.66478 0.26774 0.0
O155 O 0.94564 0.72511 0.26305 0.0
In156 In 0.68332 0.71135 0.70006 0.0
O157 O 0.71383 0.77261 0.68603 0.0
O158 O 0.65901 0.73409 0.67033 0.0
C159 C 0.73633 0.69953 0.67737 0.0
C160 C 0.67239 0.73926 0.74408 0.0
C161 C 0.62934 0.63748 0.70204 0.0
O162 O 0.70884 0.69909 0.66567 0.0
O163 O 0.73838 0.70762 0.70098 0.0
O164 O 0.6584 0.65132 0.71636 0.0
O165 O 0.62717 0.66124 0.68742 0.0
C166 C 0.68709 0.76781 0.67118 0.0
O167 O 0.64708 0.72275 0.72721 0.0
O168 O 0.70377 0.74037 0.73949 0.0
In169 In 0.25923 0.94693 0.71682 0.0
O170 O 0.25835 0.91992 0.75514 0.0
O171 O 0.21557 0.93478 0.74891 0.0
C172 C 0.33267 0.96524 0.71742 0.0
C173 C 0.21053 0.88649 0.68862 0.0
C174 C 0.27037 0.01018 0.6916 0.0
O175 O 0.3208 0.98368 0.73037 0.0
O176 O 0.30726 0.93723 0.705 0.0
O177 O 0.26748 0.98106 0.68072 0.0
O178 O 0.26601 0.00714 0.71561 0.0
C179 C 0.2289 0.91939 0.76353 0.0
O180 O 0.20142 0.90961 0.69804 0.0
O181 O 0.24417 0.89401 0.69341 0.0
In182 In 0.04356 0.32756 0.7313 0.0
O183 O 0.09194 0.36536 0.75754 0.0
O184 O 0.05394 0.309 0.77088 0.0
C185 C 0.02177 0.38013 0.73172 0.0
C186 C 0.0932 0.32207 0.70018 0.0
C187 C 0.9778 0.27385 0.71029 0.0
O188 O 0.00638 0.3511 0.74611 0.0
O189 O 0.0493 0.38338 0.71836 0.0
O190 O 0.003 0.30254 0.69837 0.0
O191 O 0.9862 0.27091 0.73327 0.0
C192 C 0.08408 0.34076 0.77479 0.0
O193 O 0.07179 0.29555 0.71534 0.0
O194 O 0.08905 0.35106 0.70053 0.0
In195 In 0.94694 0.57381 0.60049 0.0
O196 O 0.91936 0.51304 0.61615 0.0
O197 O 0.94516 0.55937 0.64246 0.0
C198 C 0.89247 0.59431 0.59968 0.0
C199 C 0.967 0.54347 0.56124 0.0
C200 C 0.01096 0.63844 0.61346 0.0
O201 O 0.88541 0.56137 0.6062 0.0
O202 O 0.92582 0.61541 0.59138 0.0
O203 O -0.00295 0.63311 0.59121 0.0
O204 O 0.99301 0.61095 0.6287 0.0
C205 C 0.92827 0.52367 0.6391 0.0
O206 O 0.98436 0.55331 0.58227 0.0
O207 O 0.93909 0.54928 0.5595 0.0
In208 In 0.39288 0.34166 0.60916 0.0
O209 O 0.40445 0.39735 0.59122 0.0
O210 O 0.41821 0.36227 0.56866 0.0
C211 C 0.32626 0.33403 0.62486 0.0
C212 C 0.44913 0.38041 0.64292 0.0
C213 C 0.37566 0.2676 0.60886 0.0
O214 O 0.33205 0.32879 0.60186 0.0
O215 O 0.35407 0.34307 0.63976 0.0
O216 O 0.4051 0.29379 0.61946 0.0
O217 O 0.3567 0.27919 0.59645 0.0
C218 C 0.41813 0.39348 0.57059 0.0
O219 O 0.45551 0.37295 0.62057 0.0
O220 O 0.41427 0.36693 0.6484 0.0
In221 In 0.64541 0.05097 0.62253 0.0
O222 O 0.6064 0.07206 0.63728 0.0
O223 O 0.60733 0.02676 0.65751 0.0
C224 C 0.71661 0.10852 0.63401 0.0
C225 C 0.60584 0.04364 0.57907 0.0
C226 C 0.65446 0.98982 0.6271 0.0
O227 O 0.68804 0.09938 0.64802 0.0
O228 O 0.70913 0.09016 0.61333 0.0
O229 O 0.66685 0.01189 0.608 0.0
O230 O 0.63739 -0.00142 0.64366 0.0
C231 C 0.59346 0.04858 0.6556 0.0
O232 O 0.60667 0.01607 0.58962 0.0
O233 O 0.62656 0.07563 0.58964 0.0
C234 C 0.48358 0.03186 0.01821 0.0
C235 C 0.4544 0.03567 0.00664 0.0
C236 C 0.50328 0.01713 0.00445 0.0
C237 C 0.49322 0.00563 0.97866 0.0
C238 C 0.46411 0.0099 0.96684 0.0
C239 C 0.44522 0.02503 0.98092 0.0
C240 C 0.53451 0.01339 0.01761 0.0
C241 C 0.45236 -0.00226 0.93946 0.0
C242 C 0.56588 0.99656 0.93766 0.0
C243 C 0.55333 0.9574 0.93972 0.0
C244 C 0.54615 0.01254 0.9498 0.0
C245 C 0.51285 0.98871 0.96412 0.0
C246 C 0.49888 0.94882 0.96511 0.0
C247 C 0.51939 0.93365 0.95297 0.0
C248 C 0.56194 0.05518 0.94826 0.0
C249 C 0.46309 0.92239 0.97984 0.0
H250 H 0.49074 0.03999 0.03807 0.0
H251 H 0.42256 0.02773 0.97186 0.0
H252 H 0.52673 0.98289 0.01828 0.0
H253 H 0.56151 0.02894 0.00659 0.0
H254 H 0.53973 0.02476 0.03744 0.0
H255 H 0.42963 0.00362 0.93295 0.0
H256 H 0.47737 0.01287 0.92658 0.0
H257 H 0.44174 0.96668 0.93745 0.0
H258 H 0.5922 0.01513 0.92755 0.0
H259 H 0.5096 0.90338 0.95468 0.0
H260 H 0.57087 0.06795 0.96759 0.0
H261 H 0.53959 0.0614 0.94152 0.0
H262 H 0.58693 0.06943 0.93522 0.0
H263 H 0.46773 0.92939 0.00051 0.0
H264 H 0.45463 0.89184 0.97731 0.0
H265 H 0.43907 0.92639 0.97361 0.0
C266 C 0.92364 0.41336 0.01146 0.0
C267 C 0.94127 0.40724 0.0326 0.0
C268 C 0.93767 0.4501 0.0012 0.0
C269 C 0.97041 0.48139 0.01216 0.0
C270 C 0.98787 0.47549 0.03383 0.0
C271 C 0.97293 0.43849 0.0439 0.0
C272 C 0.91783 0.45534 0.97838 0.0
C273 C 0.0229 0.50813 0.04599 0.0
C274 C 0.02824 0.57046 0.97145 0.0
C275 C 0.01602 0.59489 0.98113 0.0
C276 C 0.01369 0.53335 0.98139 0.0
C277 C 0.986 0.52041 0.0012 0.0
C278 C 0.97317 0.54482 0.01069 0.0
C279 C 0.98847 0.58176 0.00065 0.0
C280 C 0.02824 0.50815 0.97095 0.0
C281 C 0.94335 0.53198 0.03153 0.0
H282 H 0.8992 0.38926 0.00263 0.0
H283 H 0.98691 0.43384 0.06007 0.0
H284 H 0.90915 0.4768 0.98279 0.0
H285 H 0.93779 0.4664 0.96192 0.0
H286 H 0.89207 0.42825 0.97257 0.0
H287 H 0.03303 0.4988 0.06277 0.0
H288 H 0.04637 0.52125 0.03176 0.0
H289 H 0.01667 0.5307 0.05225 0.0
H290 H 0.04959 0.58055 0.95643 0.0
H291 H 0.9787 0.60043 0.00813 0.0
H292 H 0.00412 0.48137 0.96318 0.0
H293 H 0.04133 0.49996 0.98657 0.0
H294 H 0.04979 0.52244 0.95558 0.0
H295 H 0.91701 0.50567 0.0255 0.0
H296 H 0.93581 0.55418 0.03637 0.0
H297 H 0.95393 0.52486 0.04908 0.0
C298 C 0.42231 0.49094 0.99823 0.0
C299 C 0.41751 0.46807 0.97681 0.0
C300 C 0.45858 0.5144 0.00887 0.0
C301 C 0.49082 0.51472 0.99798 0.0
C302 C 0.48627 0.49228 0.97603 0.0
C303 C 0.44964 0.46934 0.9656 0.0
C304 C 0.46231 0.53842 0.03201 0.0
C305 C 0.51997 0.49185 0.96391 0.0
C306 C 0.58801 0.60031 0.01246 0.0
C307 C 0.60112 0.58655 0.03241 0.0
C308 C 0.55242 0.57712 0.00095 0.0
C309 C 0.52932 0.53904 0.00944 0.0
C310 C 0.54251 0.52473 0.02936 0.0
C311 C 0.57828 0.54875 0.04071 0.0
C312 C 0.53932 0.59359 0.97992 0.0
C313 C 0.51868 0.48416 0.0388 0.0
H314 H 0.39754 0.49003 0.00697 0.0
H315 H 0.44602 0.45143 0.94919 0.0
H316 H 0.47388 0.52985 0.04836 0.0
H317 H 0.48278 0.56898 0.02799 0.0
H318 H 0.43455 0.53557 0.03781 0.0
H319 H 0.5117 0.47317 0.94674 0.0
H320 H 0.54195 0.52124 0.95826 0.0
H321 H 0.5334 0.48161 0.97798 0.0
H322 H 0.60547 0.62954 0.00594 0.0
H323 H 0.58834 0.53797 0.05605 0.0
H324 H 0.51258 0.59287 0.98577 0.0
H325 H 0.53286 0.57603 0.96235 0.0
H326 H 0.56105 0.62357 0.97521 0.0
H327 H 0.49134 0.4798 0.04676 0.0
H328 H 0.53354 0.47698 0.05381 0.0
H329 H 0.51151 0.46388 0.02264 0.0
C330 C 0.10856 0.35549 0.31178 0.0
C331 C 0.11491 0.36502 0.33784 0.0
C332 C 0.1287 0.34065 0.29887 0.0
C333 C 0.15637 0.33576 0.31221 0.0
C334 C 0.16381 0.34641 0.33834 0.0
C335 C 0.14272 0.36065 0.35093 0.0
C336 C 0.11958 0.32923 0.27113 0.0
C337 C 0.19361 0.3422 0.35308 0.0
C338 C 0.18354 0.26329 0.28908 0.0
C339 C 0.21833 0.28681 0.27667 0.0
C340 C 0.16246 0.27871 0.30005 0.0
C341 C 0.17691 0.31868 0.29897 0.0
C342 C 0.21132 0.34235 0.28564 0.0
C343 C 0.23143 0.32607 0.27443 0.0
C344 C 0.12538 0.25241 0.31355 0.0
C345 C 0.22785 0.38512 0.28425 0.0
H346 H 0.08695 0.35859 0.30153 0.0
H347 H 0.14772 0.36797 0.37104 0.0
H348 H 0.14582 0.34436 0.25933 0.0
H349 H 0.10877 0.29813 0.26906 0.0
H350 H 0.0978 0.33563 0.26336 0.0
H351 H 0.19731 0.35356 0.37286 0.0
H352 H 0.18537 0.31159 0.3541 0.0
H353 H 0.22152 0.35746 0.34304 0.0
H354 H 0.17337 0.23296 0.29092 0.0
H355 H 0.25854 0.34448 0.26512 0.0
H356 H 0.10215 0.25684 0.30615 0.0
H357 H 0.12834 0.25913 0.33428 0.0
H358 H 0.11678 0.22181 0.31116 0.0
H359 H 0.20647 0.39193 0.27638 0.0
H360 H 0.25399 0.3993 0.27222 0.0
H361 H 0.23517 0.39743 0.30379 0.0
C362 C 0.60861 0.76516 0.36767 0.0
C363 C 0.61003 0.73426 0.3567 0.0
C364 C 0.62272 0.79994 0.35436 0.0
C365 C 0.63923 0.80396 0.32979 0.0
C366 C 0.64028 0.77266 0.31858 0.0
C367 C 0.62538 0.73816 0.33206 0.0
C368 C 0.62053 0.83256 0.36672 0.0
C369 C 0.65818 0.77593 0.29264 0.0
C370 C 0.65154 0.88475 0.28624 0.0
C371 C 0.68931 0.91295 0.29153 0.0
C372 C 0.6348 0.84909 0.29856 0.0
C373 C 0.65668 0.84125 0.31612 0.0
C374 C 0.6954 0.86903 0.32059 0.0
C375 C 0.71111 0.90473 0.30846 0.0
C376 C 0.59332 0.8204 0.29354 0.0
C377 C 0.71997 0.86138 0.33866 0.0
H378 H 0.59674 0.76225 0.38668 0.0
H379 H 0.62679 0.71446 0.32348 0.0
H380 H 0.64978 0.85671 0.37029 0.0
H381 H 0.60618 0.84313 0.35368 0.0
H382 H 0.60477 0.82412 0.38516 0.0
H383 H 0.65596 0.7486 0.28637 0.0
H384 H 0.64426 0.78487 0.27809 0.0
H385 H 0.68884 0.79824 0.29323 0.0
H386 H 0.63441 0.89125 0.27347 0.0
H387 H 0.74028 0.92656 0.31264 0.0
H388 H 0.57676 0.81449 0.31155 0.0
H389 H 0.59032 0.79294 0.28694 0.0
H390 H 0.58049 0.83061 0.27896 0.0
H391 H 0.70821 0.85704 0.35832 0.0
H392 H 0.75004 0.88521 0.339 0.0
H393 H 0.71972 0.83476 0.33302 0.0
C394 C 0.07113 0.75597 0.35342 0.0
C395 C 0.06312 0.76871 0.33051 0.0
C396 C 0.10718 0.77598 0.36492 0.0
C397 C 0.13587 0.81003 0.3535 0.0
C398 C 0.12797 0.82327 0.33044 0.0
C399 C 0.09169 0.8022 0.31904 0.0
C400 C 0.11462 0.76051 0.38923 0.0
C401 C 0.15777 0.85979 0.31791 0.0
C402 C 0.21702 0.88038 0.39594 0.0
C403 C 0.24694 0.87442 0.38843 0.0
C404 C 0.18071 0.85963 0.38471 0.0
C405 C 0.17404 0.83179 0.36587 0.0
C406 C 0.20372 0.82453 0.359 0.0
C407 C 0.23994 0.84618 0.37022 0.0
C408 C 0.14987 0.86838 0.39241 0.0
C409 C 0.19745 0.79445 0.33942 0.0
H410 H 0.04925 0.72986 0.36227 0.0
H411 H 0.08558 0.8121 0.30136 0.0
H412 H 0.13918 0.75579 0.38645 0.0
H413 H 0.12234 0.78162 0.40491 0.0
H414 H 0.08946 0.73314 0.39534 0.0
H415 H 0.14695 0.8665 0.30027 0.0
H416 H 0.16726 0.88401 0.33147 0.0
H417 H 0.18325 0.85753 0.31293 0.0
H418 H 0.22241 0.90251 0.40978 0.0
H419 H 0.26305 0.84159 0.3643 0.0
H420 H 0.12445 0.84213 0.39956 0.0
H421 H 0.14066 0.87831 0.37548 0.0
H422 H 0.15959 0.89069 0.40749 0.0
H423 H 0.1728 0.76646 0.34507 0.0
H424 H 0.22295 0.79111 0.33708 0.0
H425 H 0.19046 0.80216 0.32063 0.0
C426 C 0.83174 0.58613 0.61817 0.0
C427 C 0.86697 0.60955 0.60622 0.0
C428 C 0.81049 0.60169 0.62869 0.0
C429 C 0.82497 0.64165 0.62734 0.0
C430 C 0.85974 0.66519 0.61435 0.0
C431 C 0.88024 0.64884 0.60386 0.0
C432 C 0.77322 0.57555 0.64204 0.0
C433 C 0.87609 0.70789 0.61246 0.0
C434 C 0.7554 0.67747 0.63848 0.0
C435 C 0.76157 0.68798 0.6644 0.0
C436 C 0.77618 0.66288 0.62611 0.0
C437 C 0.80403 0.65884 0.63992 0.0
C438 C 0.81122 0.67041 0.6659 0.0
C439 C 0.7898 0.68478 0.67788 0.0
C440 C 0.76759 0.65083 0.59844 0.0
C441 C 0.84096 0.66683 0.68119 0.0
H442 H 0.82139 0.55578 0.62014 0.0
H443 H 0.90756 0.66717 0.59477 0.0
H444 H 0.77568 0.58294 0.66265 0.0
H445 H 0.74999 0.57948 0.63402 0.0
H446 H 0.76491 0.54495 0.64023 0.0
H447 H 0.90244 0.72192 0.60063 0.0
H448 H 0.85473 0.71434 0.60408 0.0
H449 H 0.88298 0.72066 0.63188 0.0
H450 H 0.7336 0.67982 0.6279 0.0
H451 H 0.79462 0.69277 0.69789 0.0
H452 H 0.75677 0.61969 0.59676 0.0
H453 H 0.79407 0.66567 0.58684 0.0
H454 H 0.74599 0.65709 0.59016 0.0
H455 H 0.83297 0.63631 0.68258 0.0
H456 H 0.84422 0.67854 0.70083 0.0
H457 H 0.86903 0.68211 0.67136 0.0
C458 C 0.32157 0.20048 0.61189 0.0
C459 C 0.36054 0.22685 0.61522 0.0
C460 C 0.30495 0.16378 0.62272 0.0
C461 C 0.328 0.15308 0.63687 0.0
C462 C 0.3678 0.17879 0.63892 0.0
C463 C 0.38355 0.21548 0.62823 0.0
C464 C 0.2624 0.13727 0.62021 0.0
C465 C 0.39351 0.16815 0.65335 0.0
C466 C 0.28463 0.07814 0.68945 0.0
C467 C 0.28174 0.04591 0.67726 0.0
C468 C 0.29863 0.11297 0.67627 0.0
C469 C 0.31041 0.11566 0.65043 0.0
C470 C 0.30672 0.08295 0.63791 0.0
C471 C 0.29224 0.04846 0.65142 0.0
C472 C 0.30164 0.14714 0.69017 0.0
C473 C 0.31927 0.0847 0.61049 0.0
H474 H 0.30357 0.20922 0.60205 0.0
H475 H 0.41368 0.23578 0.63086 0.0
H476 H 0.25626 0.1089 0.61305 0.0
H477 H 0.24877 0.13275 0.63929 0.0
H478 H 0.24897 0.1488 0.60709 0.0
H479 H 0.42418 0.19016 0.65145 0.0
H480 H 0.38586 0.16455 0.67394 0.0
H481 H 0.38947 0.14044 0.64633 0.0
H482 H 0.27654 0.07632 0.70939 0.0
H483 H 0.2902 0.02369 0.64187 0.0
H484 H 0.28677 0.15936 0.6792 0.0
H485 H 0.33209 0.16973 0.69175 0.0
H486 H 0.28921 0.13979 0.7097 0.0
H487 H 0.30496 0.09594 0.59799 0.0
H488 H 0.31287 0.05628 0.60316 0.0
H489 H 0.3505 0.10465 0.60894 0.0
C490 C 0.78652 0.13139 0.63354 0.0
C491 C 0.75587 0.13482 0.6429 0.0
C492 C 0.82315 0.15269 0.64428 0.0
C493 C 0.82934 0.17864 0.66441 0.0
C494 C 0.79869 0.18307 0.67334 0.0
C495 C 0.7622 0.16074 0.66268 0.0
C496 C 0.85499 0.14679 0.63451 0.0
C497 C 0.80436 0.21121 0.69426 0.0
C498 C 0.91463 0.21266 0.70918 0.0
C499 C 0.94039 0.24807 0.69835 0.0
C500 C 0.87864 0.18918 0.69794 0.0
C501 C 0.86805 0.20192 0.67576 0.0
C502 C 0.89408 0.23762 0.66479 0.0
C503 C 0.93 0.26003 0.67606 0.0
C504 C 0.85181 0.15092 0.70989 0.0
C505 C 0.88367 0.25264 0.6415 0.0
H506 H 0.78154 0.11094 0.6185 0.0
H507 H 0.73849 0.16336 0.66996 0.0
H508 H 0.87881 0.17414 0.62719 0.0
H509 H 0.86653 0.13736 0.65042 0.0
H510 H 0.84535 0.12517 0.61898 0.0
H511 H 0.77783 0.21202 0.69848 0.0
H512 H 0.81394 0.20355 0.71205 0.0
H513 H 0.82707 0.24034 0.68869 0.0
H514 H 0.92261 0.20332 0.72636 0.0
H515 H 0.94968 0.28755 0.66769 0.0
H516 H 0.84268 0.12792 0.69538 0.0
H517 H 0.8257 0.1506 0.7168 0.0
H518 H 0.86511 0.14427 0.72622 0.0
H519 H 0.87594 0.2322 0.62539 0.0
H520 H 0.90734 0.28091 0.63522 0.0
H521 H 0.85828 0.25546 0.64571 0.0
C522 C 0.36062 0.09585 0.13617 0.0
C523 C 0.38712 0.11571 0.11672 0.0
C524 C 0.35299 0.11546 0.15534 0.0
C525 C 0.37186 0.15591 0.15479 0.0
C526 C 0.39979 0.17616 0.13578 0.0
C527 C 0.40732 0.1558 0.11707 0.0
C528 C 0.32363 0.09281 0.17559 0.0
C529 C 0.42033 0.21926 0.13444 0.0
C530 C 0.31914 0.20086 0.18683 0.0
C531 C 0.33823 0.21262 0.21031 0.0
C532 C 0.33045 0.18324 0.1683 0.0
C533 C 0.36121 0.1768 0.17356 0.0
C534 C 0.38083 0.18906 0.19712 0.0
C535 C 0.36926 0.20701 0.21513 0.0
C536 C 0.30912 0.171 0.14323 0.0
C537 C 0.41344 0.18236 0.20361 0.0
H538 H 0.34492 0.06486 0.13595 0.0
H539 H 0.42752 0.17128 0.10191 0.0
H540 H 0.33566 0.10328 0.19492 0.0
H541 H 0.29855 0.0968 0.17337 0.0
H542 H 0.31368 0.06175 0.17449 0.0
H543 H 0.44294 0.23079 0.11952 0.0
H544 H 0.3995 0.22878 0.13009 0.0
H545 H 0.43352 0.23184 0.15316 0.0
H546 H 0.29523 0.20522 0.18299 0.0
H547 H 0.38409 0.21591 0.23329 0.0
H548 H 0.29477 0.13945 0.14136 0.0
H549 H 0.32942 0.18348 0.12702 0.0
H550 H 0.28721 0.17981 0.14156 0.0
H551 H 0.40302 0.1512 0.20402 0.0
H552 H 0.42653 0.19474 0.22243 0.0
H553 H 0.4359 0.19504 0.18868 0.0
C554 C 0.81813 0.21159 0.11167 0.0
C555 C 0.85739 0.23728 0.11443 0.0
C556 C 0.79766 0.18378 0.13037 0.0
C557 C 0.81679 0.18191 0.15253 0.0
C558 C 0.85614 0.20866 0.15584 0.0
C559 C 0.87602 0.23587 0.13668 0.0
C560 C 0.7558 0.15568 0.12607 0.0
C561 C 0.87744 0.20801 0.17939 0.0
C562 C 0.75861 0.13065 0.21145 0.0
C563 C 0.75857 0.09589 0.21057 0.0
C564 C 0.77713 0.15871 0.19259 0.0
C565 C 0.79579 0.15176 0.17216 0.0
C566 C 0.79505 0.11633 0.17078 0.0
C567 C 0.7766 0.08886 0.1901 0.0
C568 C 0.77749 0.19617 0.19488 0.0
C569 C 0.81428 0.1077 0.14912 0.0
H570 H 0.80362 0.21232 0.09443 0.0
H571 H 0.90636 0.25561 0.13889 0.0
H572 H 0.75119 0.12622 0.1251 0.0
H573 H 0.73864 0.15654 0.14235 0.0
H574 H 0.74491 0.16157 0.10814 0.0
H575 H 0.90755 0.23178 0.17957 0.0
H576 H 0.86293 0.21001 0.19686 0.0
H577 H 0.87734 0.18053 0.18038 0.0
H578 H 0.74487 0.13639 0.22728 0.0
H579 H 0.77669 0.06209 0.18934 0.0
H580 H 0.76548 0.20155 0.17734 0.0
H581 H 0.80736 0.22001 0.19677 0.0
H582 H 0.76086 0.19675 0.21163 0.0
H583 H 0.80321 0.11118 0.13049 0.0
H584 H 0.80975 0.07825 0.15024 0.0
H585 H 0.84545 0.12828 0.14943 0.0
C586 C 0.87533 0.65404 0.21953 0.0
C587 C 0.89637 0.6897 0.23153 0.0
C588 C 0.8508 0.6488 0.199 0.0
C589 C 0.84656 0.67978 0.19061 0.0
C590 C 0.86786 0.71595 0.20261 0.0
C591 C 0.89286 0.72058 0.22278 0.0
C592 C 0.82941 0.61007 0.18633 0.0
C593 C 0.86375 0.74955 0.1944 0.0
C594 C 0.81068 0.67812 0.12327 0.0
C595 C 0.77184 0.66543 0.12741 0.0
C596 C 0.8351 0.68238 0.14361 0.0
C597 C 0.82056 0.67453 0.16885 0.0
C598 C 0.78127 0.66151 0.17317 0.0
C599 C 0.75722 0.65668 0.15231 0.0
C600 C 0.87652 0.69538 0.13805 0.0
C601 C 0.76484 0.65335 0.19986 0.0
H602 H 0.87801 0.63008 0.22622 0.0
H603 H 0.90876 0.74807 0.23222 0.0
H604 H 0.79818 0.59849 0.18811 0.0
H605 H 0.8362 0.61279 0.1656 0.0
H606 H 0.83653 0.58917 0.19479 0.0
H607 H 0.88165 0.77549 0.20605 0.0
H608 H 0.872 0.75637 0.17403 0.0
H609 H 0.83345 0.74218 0.19608 0.0
H610 H 0.82207 0.68467 0.10399 0.0
H611 H 0.72727 0.64713 0.15556 0.0
H612 H 0.88394 0.67427 0.14569 0.0
H613 H 0.89522 0.72297 0.14778 0.0
H614 H 0.88301 0.69907 0.11725 0.0
H615 H 0.76902 0.63087 0.20891 0.0
H616 H 0.73385 0.64382 0.20003 0.0
H617 H 0.78013 0.67943 0.21182 0.0
C618 C 0.61801 0.8241 0.86572 0.0
C619 C 0.63646 0.86407 0.86418 0.0
C620 C 0.62428 0.80266 0.84717 0.0
C621 C 0.64881 0.8216 0.82624 0.0
C622 C 0.66679 0.86192 0.8243 0.0
C623 C 0.6608 0.88271 0.84349 0.0
C624 C 0.60512 0.7598 0.85016 0.0
C625 C 0.69228 0.88311 0.80192 0.0
C626 C 0.69137 0.77251 0.78675 0.0
C627 C 0.66605 0.75863 0.76602 0.0
C628 C 0.68569 0.79237 0.80685 0.0
C629 C 0.65449 0.79916 0.80582 0.0
C630 C 0.62889 0.78509 0.78493 0.0
C631 C 0.63476 0.76472 0.76548 0.0
C632 C 0.71317 0.80632 0.82909 0.0
C633 C 0.59571 0.79228 0.7828 0.0
H634 H 0.59964 0.80964 0.88192 0.0
H635 H 0.67517 0.91363 0.8423 0.0
H636 H 0.58606 0.74547 0.83363 0.0
H637 H 0.62697 0.75082 0.85039 0.0
H638 H 0.58795 0.74958 0.86799 0.0
H639 H 0.70363 0.91443 0.80306 0.0
H640 H 0.71672 0.87788 0.80112 0.0
H641 H 0.67617 0.87233 0.78377 0.0
H642 H 0.71555 0.76785 0.78725 0.0
H643 H 0.6152 0.75436 0.74941 0.0
H644 H 0.69728 0.79545 0.84732 0.0
H645 H 0.72823 0.838 0.82995 0.0
H646 H 0.73481 0.79711 0.82766 0.0
H647 H 0.57674 0.78032 0.79968 0.0
H648 H 0.57847 0.77945 0.76526 0.0
H649 H 0.60645 0.82351 0.78255 0.0
C650 C 0.12929 0.81466 0.89511 0.0
C651 C 0.1116 0.77482 0.89226 0.0
C652 C 0.14817 0.83939 0.87461 0.0
C653 C 0.14912 0.82398 0.85051 0.0
C654 C 0.13101 0.78376 0.8474 0.0
C655 C 0.11261 0.75962 0.86838 0.0
C656 C 0.1675 0.88205 0.87885 0.0
C657 C 0.13119 0.76628 0.82192 0.0
C658 C 0.17108 0.88719 0.79165 0.0
C659 C 0.20943 0.89828 0.78707 0.0
C660 C 0.15104 0.863 0.81224 0.0
C661 C 0.16999 0.85007 0.8288 0.0
C662 C 0.20906 0.86224 0.82471 0.0
C663 C 0.22821 0.88597 0.80382 0.0
C664 C 0.10936 0.85053 0.81592 0.0
C665 C 0.2305 0.84969 0.84218 0.0
H666 H 0.12876 0.82667 0.91354 0.0
H667 H 0.09889 0.72888 0.86606 0.0
H668 H 0.19851 0.89537 0.87477 0.0
H669 H 0.15574 0.8949 0.86548 0.0
H670 H 0.16385 0.88942 0.89872 0.0
H671 H 0.11482 0.73453 0.82243 0.0
H672 H 0.11874 0.77631 0.80699 0.0
H673 H 0.16101 0.77567 0.81613 0.0
H674 H 0.15634 0.89633 0.77862 0.0
H675 H 0.25788 0.89448 0.80036 0.0
H676 H 0.10466 0.8585 0.83532 0.0
H677 H 0.09187 0.81895 0.8144 0.0
H678 H 0.09893 0.86349 0.80158 0.0
H679 H 0.22868 0.85762 0.86224 0.0
H680 H 0.26112 0.86268 0.83685 0.0
H681 H 0.21726 0.81813 0.84154 0.0
C682 C 0.24614 0.36016 0.87064 0.0
C683 C 0.24973 0.38198 0.8924 0.0
C684 C 0.21879 0.35358 0.85175 0.0
C685 C 0.1939 0.36848 0.855 0.0
C686 C 0.19758 0.39072 0.87688 0.0
C687 C 0.22572 0.39754 0.89518 0.0
C688 C 0.21637 0.33048 0.82839 0.0
C689 C 0.17127 0.40666 0.88122 0.0
C690 C 0.14679 0.3814 0.79605 0.0
C691 C 0.11063 0.34825 0.7964 0.0
C692 C 0.174 0.38829 0.81501 0.0
C693 C 0.16473 0.3617 0.83513 0.0
C694 C 0.12794 0.32858 0.836 0.0
C695 C 0.10137 0.32207 0.81647 0.0
C696 C 0.21301 0.42366 0.81315 0.0
C697 C 0.11683 0.29989 0.85742 0.0
H698 H 0.26454 0.34795 0.86849 0.0
H699 H 0.228 0.41395 0.91216 0.0
H700 H 0.18774 0.30446 0.82734 0.0
H701 H 0.22001 0.3474 0.81083 0.0
H702 H 0.23837 0.32166 0.82847 0.0
H703 H 0.17744 0.42283 0.89945 0.0
H704 H 0.17399 0.42595 0.86525 0.0
H705 H 0.14114 0.38304 0.88155 0.0
H706 H 0.15431 0.40171 0.78053 0.0
H707 H 0.07351 0.29642 0.81681 0.0
H708 H 0.23529 0.41534 0.81176 0.0
H709 H 0.21903 0.44126 0.83066 0.0
H710 H 0.21562 0.44157 0.7963 0.0
H711 H 0.13554 0.28708 0.85716 0.0
H712 H 0.08663 0.27655 0.85595 0.0
H713 H 0.12101 0.31436 0.87615 0.0
C714 C -0.00302 0.41301 0.45987 0.0
C715 C 0.02866 0.43393 0.44392 0.0
C716 C 0.98808 0.43095 0.47953 0.0
C717 C 0.011 0.47095 0.48304 0.0
C718 C 0.04365 0.49208 0.46742 0.0
C719 C 0.05228 0.47324 0.44817 0.0
C720 C 0.95354 0.40722 0.49612 0.0
C721 C 0.06861 0.5348 0.4704 0.0
C722 C 0.96361 0.52072 0.51606 0.0
C723 C 0.97839 0.52561 0.54088 0.0
C724 C 0.97456 0.50365 0.49688 0.0
C725 C 0.0004 0.49062 0.50283 0.0
C726 C 0.01531 0.49546 0.52789 0.0
C727 C 0.00435 0.51312 0.54652 0.0
C728 C 0.95841 0.49942 0.47028 0.0
C729 C 0.04239 0.48146 0.53515 0.0
H730 H 0.97862 0.38262 0.45664 0.0
H731 H 0.07652 0.48961 0.43568 0.0
H732 H 0.96173 0.41185 0.51661 0.0
H733 H 0.93202 0.41625 0.49313 0.0
H734 H 0.93999 0.37618 0.49189 0.0
H735 H 0.09362 0.54688 0.45731 0.0
H736 H 0.05161 0.5489 0.46641 0.0
H737 H 0.07908 0.54198 0.49037 0.0
H738 H 0.94367 0.53045 0.51158 0.0
H739 H 0.01578 0.51664 0.56571 0.0
H740 H 0.94138 0.46869 0.46519 0.0
H741 H 0.98198 0.51315 0.45616 0.0
H742 H 0.93988 0.51236 0.46849 0.0
H743 H 0.0284 0.45013 0.53208 0.0
H744 H 0.05167 0.4877 0.55543 0.0
H745 H 0.06811 0.49502 0.52276 0.0
C746 C 0.48959 0.55655 0.46233 0.0
C747 C 0.52956 0.57887 0.46294 0.0
C748 C 0.46981 0.5267 0.47994 0.0
C749 C 0.49049 0.51934 0.49879 0.0
C750 C 0.53068 0.54311 0.50031 0.0
C751 C 0.54973 0.57244 0.48228 0.0
C752 C 0.42697 0.50201 0.47768 0.0
C753 C 0.55372 0.5367 0.52041 0.0
C754 C 0.43847 0.46022 0.55721 0.0
C755 C 0.43486 0.42461 0.55137 0.0
C756 C 0.45616 0.49112 0.5402 0.0
C757 C 0.47031 0.48631 0.51659 0.0
C758 C 0.46608 0.45021 0.51032 0.0
C759 C 0.44858 0.4198 0.52787 0.0
C760 C 0.46044 0.52917 0.54776 0.0
C761 C 0.48052 0.44389 0.48521 0.0
H762 H 0.47386 0.56113 0.44728 0.0
H763 H 0.58064 0.58957 0.48283 0.0
H764 H 0.41949 0.47236 0.47271 0.0
H765 H 0.41313 0.50075 0.49626 0.0
H766 H 0.41491 0.51266 0.46284 0.0
H767 H 0.58439 0.55913 0.52001 0.0
H768 H 0.54213 0.53622 0.53973 0.0
H769 H 0.55156 0.5085 0.51735 0.0
H770 H 0.4281 0.46426 0.5754 0.0
H771 H 0.44588 0.39239 0.52327 0.0
H772 H 0.44723 0.53877 0.5331 0.0
H773 H 0.49118 0.55112 0.54877 0.0
H774 H 0.44708 0.52795 0.56657 0.0
H775 H 0.46779 0.45155 0.46907 0.0
H776 H 0.47368 0.4138 0.48276 0.0
H777 H 0.51196 0.46279 0.48403 0.0
C778 C 0.56679 0.00637 0.54163 0.0
C779 C 0.57894 0.03769 0.55811 0.0
C780 C 0.53841 -0.00198 0.5232 0.0
C781 C 0.52086 0.0208 0.52183 0.0
C782 C 0.5331 0.05253 0.53844 0.0
C783 C 0.56245 0.06095 0.55614 0.0
C784 C 0.52707 0.9647 0.5053 0.0
C785 C 0.51449 0.07693 0.538 0.0
C786 C 0.47066 0.02026 0.46034 0.0
C787 C 0.43257 0.99284 0.46563 0.0
C788 C 0.49962 0.02949 0.47841 0.0
C789 C 0.49013 0.01172 0.50271 0.0
C790 C 0.4515 0.98469 0.50843 0.0
C791 C 0.4232 0.97508 0.48962 0.0
C792 C 0.5405 0.05756 0.47124 0.0
C793 C 0.44014 0.96587 0.53436 0.0
H794 H 0.57949 0.98831 0.54321 0.0
H795 H 0.57137 0.08479 0.56919 0.0
H796 H 0.49665 0.94289 0.50836 0.0
H797 H 0.52998 0.97442 0.48515 0.0
H798 H 0.54472 0.95096 0.50808 0.0
H799 H 0.52684 0.10014 0.55249 0.0
H800 H 0.51778 0.08999 0.51883 0.0
H801 H 0.48339 0.05886 0.54167 0.0
H802 H 0.4781 0.03375 0.44167 0.0
H803 H 0.39376 0.95395 0.49375 0.0
H804 H 0.55811 0.04361 0.47285 0.0
H805 H 0.55267 0.08214 0.48463 0.0
H806 H 0.5431 0.06861 0.45145 0.0
H807 H 0.4537 0.94821 0.53766 0.0
H808 H 0.40869 0.94731 0.5363 0.0
H809 H 0.45049 0.98797 0.54959 0.0
C810 C 0.26331 0.9419 0.02785 0.0
C811 C 0.2929 0.95094 0.04529 0.0
C812 C 0.23537 0.90395 0.02326 0.0
C813 C 0.23676 0.87424 0.03673 0.0
C814 C 0.26565 0.88318 0.05517 0.0
C815 C 0.2937 0.92158 0.05911 0.0
C816 C 0.20503 0.89567 0.00337 0.0
C817 C 0.26758 0.85227 0.07017 0.0
C818 C 0.14149 0.785 0.02931 0.0
C819 C 0.14783 0.76977 0.00698 0.0
C820 C 0.17159 0.81685 0.04129 0.0
C821 C 0.2085 0.83407 0.03031 0.0
C822 C 0.21574 0.81623 0.00944 0.0
C823 C 0.18522 0.78398 0.99809 0.0
C824 C 0.16299 0.83435 0.06402 0.0
C825 C 0.25474 0.83367 0.9972 0.0
H826 H 0.26253 0.96451 0.01716 0.0
H827 H 0.31655 0.92853 0.07267 0.0
H828 H 0.20678 0.87789 0.98783 0.0
H829 H 0.17621 0.87924 0.01206 0.0
H830 H 0.20794 0.92215 0.99477 0.0
H831 H 0.28777 0.86412 0.08651 0.0
H832 H 0.23893 0.83108 0.07756 0.0
H833 H 0.27722 0.83677 0.05745 0.0
H834 H 0.11263 0.77357 0.03648 0.0
H835 H 0.19023 0.77203 0.98094 0.0
H836 H 0.16049 0.85918 0.05758 0.0
H837 H 0.18641 0.84487 0.07829 0.0
H838 H 0.13576 0.8136 0.07346 0.0
H839 H 0.26005 0.8592 0.98598 0.0
H840 H 0.25716 0.8133 0.98413 0.0
H841 H 0.27741 0.84323 0.01194 0.0
C842 C 0.04698 0.33257 0.01374 0.0
C843 C 0.03009 0.3192 0.03773 0.0
C844 C 0.08362 0.33888 0.00847 0.0
C845 C 0.10383 0.33158 0.02768 0.0
C846 C 0.08713 0.31841 0.05204 0.0
C847 C 0.05033 0.31239 0.05681 0.0
C848 C 0.10055 0.35304 0.98223 0.0
C849 C 0.10796 0.31035 0.07291 0.0
C850 C 0.18097 0.31533 1.00019 0.0
C851 C 0.21283 0.35219 0.00161 0.0
C852 C 0.1456 0.30752 0.01014 0.0
C853 C 0.14221 0.33733 0.02177 0.0
C854 C 0.17489 0.37392 0.0248 0.0
C855 C 0.20991 0.38094 0.01463 0.0
C856 C 0.11137 0.26808 0.00665 0.0
C857 C 0.17238 0.40633 0.03723 0.0
H858 H 0.03145 0.33796 0.99896 0.0
H859 H 0.03729 0.30202 0.07538 0.0
H860 H 0.12807 0.38027 0.98392 0.0
H861 H 0.10666 0.33198 0.97292 0.0
H862 H 0.08124 0.35783 0.9696 0.0
H863 H 0.09138 0.30121 0.09102 0.0
H864 H 0.11382 0.28754 0.06663 0.0
H865 H 0.13596 0.33624 0.07673 0.0
H866 H 0.1832 0.29295 0.99027 0.0
H867 H 0.23458 0.40942 0.01593 0.0
H868 H 0.0919 0.26926 0.99217 0.0
H869 H 0.09508 0.25775 0.02477 0.0
H870 H 0.11964 0.24703 1.00017 0.0
H871 H 0.15666 0.41564 0.02444 0.0
H872 H 0.20105 0.43135 0.04113 0.0
H873 H 0.15628 0.39682 0.05547 0.0
C874 C 0.64801 0.74197 0.07015 0.0
C875 C 0.68678 0.75272 0.07083 0.0
C876 C 0.63627 0.76567 0.05852 0.0
C877 C 0.66413 0.80096 0.04791 0.0
C878 C 0.7034 0.81426 0.05216 0.0
C879 C 0.71432 0.7897 0.06338 0.0
C880 C 0.59412 0.7506 0.0546 0.0
C881 C 0.73398 0.85236 0.04196 0.0
C882 C 0.6465 0.82774 0.9822 0.0
C883 C 0.6391 0.85728 0.98771 0.0
C884 C 0.65313 0.80825 0.00181 0.0
C885 C 0.65305 0.81914 0.02758 0.0
C886 C 0.64452 0.84828 0.03335 0.0
C887 C 0.63736 0.86692 0.01325 0.0
C888 C 0.66137 0.77675 0.99484 0.0
C889 C 0.64467 0.86097 0.06051 0.0
H890 H 0.62662 0.71341 0.07607 0.0
H891 H 0.74436 0.79823 0.06429 0.0
H892 H 0.58709 0.77374 0.05649 0.0
H893 H 0.58608 0.73871 0.03499 0.0
H894 H 0.57656 0.72751 0.06844 0.0
H895 H 0.76204 0.86173 0.05122 0.0
H896 H 0.73723 0.84992 0.02108 0.0
H897 H 0.726 0.87466 0.04493 0.0
H898 H 0.64754 0.82011 0.96244 0.0
H899 H 0.63184 0.89 0.0175 0.0
H900 H 0.64206 0.75025 0.00552 0.0
H901 H 0.69113 0.78527 1.00024 0.0
H902 H 0.6578 0.77017 0.97405 0.0
H903 H 0.62996 0.83605 0.07352 0.0
H904 H 0.63077 0.87866 0.06213 0.0
H905 H 0.67462 0.87828 0.06721 0.0
C906 C 0.73952 0.03339 0.97416 0.0
C907 C 0.73183 0.02527 0.94807 0.0
C908 C 0.76734 0.06969 0.98242 0.0
C909 C 0.78847 0.09843 0.9641 0.0
C910 C 0.78222 0.08993 0.93768 0.0
C911 C 0.7536 0.05338 0.92993 0.0
C912 C 0.77293 0.07771 0.01081 0.0
C913 C 0.80484 0.11973 0.91767 0.0
C914 C 0.82454 0.19744 0.99085 0.0
C915 C 0.86087 0.20645 0.99955 0.0
C916 C 0.80141 0.16322 0.97775 0.0
C917 C 0.81526 0.13778 0.97303 0.0
C918 C 0.85298 0.14807 0.98014 0.0
C919 C 0.8753 0.18225 0.99353 0.0
C920 C 0.7612 0.15309 0.97063 0.0
C921 C 0.86893 0.12196 0.975 0.0
H922 H 0.72275 0.01172 0.98826 0.0
H923 H 0.74779 0.04708 0.90973 0.0
H924 H 0.80326 0.0888 0.01605 0.0
H925 H 0.76573 0.10006 0.01589 0.0
H926 H 0.75487 0.05186 0.0225 0.0
H927 H 0.79956 0.10739 0.89811 0.0
H928 H 0.79696 0.14239 0.91807 0.0
H929 H 0.83587 0.13362 0.92184 0.0
H930 H 0.8134 0.21622 0.99537 0.0
H931 H 0.90361 0.18941 0.99998 0.0
H932 H 0.74055 0.12907 0.98279 0.0
H933 H 0.75506 0.14343 0.95046 0.0
H934 H 0.75622 0.17756 0.97322 0.0
H935 H 0.85531 0.09703 0.98809 0.0
H936 H 0.90034 0.13667 0.97796 0.0
H937 H 0.86243 0.11083 0.95514 0.0
C938 C 0.79063 0.68872 0.98756 0.0
C939 C 0.77618 0.6605 0.0066 0.0
C940 C 0.82241 0.69524 0.97292 0.0
C941 C 0.84042 0.67359 0.97798 0.0
C942 C 0.82375 0.6428 0.99555 0.0
C943 C 0.79152 0.6364 0.00953 0.0
C944 C 0.83855 0.72736 0.95365 0.0
C945 C 0.84213 0.61905 0.00153 0.0
C946 C 0.92476 0.68002 0.94184 0.0
C947 C 0.95496 0.70444 0.95793 0.0
C948 C 0.88722 0.67156 0.94701 0.0
C949 C 0.87997 0.68738 0.969 0.0
C950 C 0.91076 0.71389 0.98433 0.0
C951 C 0.94791 0.72234 0.97845 0.0
C952 C 0.85524 0.6441 0.92981 0.0
C953 C 0.90429 0.73141 0.008 0.0
H954 H 0.77834 0.70698 0.98496 0.0
H955 H 0.78017 0.61436 0.0241 0.0
H956 H 0.86344 0.75281 0.96212 0.0
H957 H 0.84865 0.71924 0.9363 0.0
H958 H 0.81711 0.73553 0.94794 0.0
H959 H 0.8233 0.59356 0.0133 0.0
H960 H 0.84948 0.60938 0.98366 0.0
H961 H 0.86912 0.63676 0.0122 0.0
H962 H 0.93019 0.66637 0.92581 0.0
H963 H 0.97122 0.74147 0.99082 0.0
H964 H 0.8339 0.65339 0.92689 0.0
H965 H 0.84032 0.61543 0.93886 0.0
H966 H 0.86611 0.64136 0.91086 0.0
H967 H 0.88759 0.74554 0.0032 0.0
H968 H 0.9315 0.75283 0.01713 0.0
H969 H 0.88748 0.70863 0.02218 0.0
C970 C 0.33467 0.27083 0.95248 0.0
C971 C 0.33083 0.29198 0.97234 0.0
C972 C 0.34171 0.24085 0.95779 0.0
C973 C 0.34509 0.23211 0.98353 0.0
C974 C 0.3415 0.25359 0.00362 0.0
C975 C 0.33434 0.28324 0.99776 0.0
C976 C 0.34528 0.21838 0.93595 0.0
C977 C 0.34506 0.24516 0.03132 0.0
C978 C 0.32732 0.13473 0.00395 0.0
C979 C 0.36463 0.14221 0.0084 0.0
C980 C 0.32057 0.16335 0.99465 0.0
C981 C 0.35192 0.20023 0.98975 0.0
C982 C 0.3897 0.20741 0.99305 0.0
C983 C 0.39562 0.17824 0.00236 0.0
C984 C 0.27987 0.15464 0.99128 0.0
C985 C 0.42382 0.24641 0.98795 0.0
H986 H 0.33194 0.27755 0.93279 0.0
H987 H 0.33149 0.2996 0.01317 0.0
H988 H 0.37338 0.21978 0.93679 0.0
H989 H 0.32297 0.18783 0.93763 0.0
H990 H 0.34241 0.22914 0.917 0.0
H991 H 0.34201 0.26492 0.04462 0.0
H992 H 0.32284 0.21543 0.03605 0.0
H993 H 0.37326 0.24749 0.03467 0.0
H994 H 0.30328 0.10682 0.00849 0.0
H995 H 0.42453 0.18406 0.00568 0.0
H996 H 0.27597 0.16388 0.97208 0.0
H997 H 0.27338 0.17084 0.00563 0.0
H998 H 0.25891 0.12371 0.99362 0.0
H999 H 0.42155 0.25678 0.96875 0.0
H1000 H 0.45121 0.24629 0.9891 0.0
H1001 H 0.42452 0.26713 0.00218 0.0
C1002 C 0.94893 0.24665 0.37935 0.0
C1003 C 0.94707 0.27747 0.36856 0.0
C1004 C 0.92126 0.20881 0.37343 0.0
C1005 C 0.8916 0.20198 0.3561 0.0
C1006 C 0.88888 0.23303 0.34598 0.0
C1007 C 0.91652 0.27037 0.35247 0.0
C1008 C 0.92457 0.17632 0.38492 0.0
C1009 C 0.8577 0.22696 0.32737 0.0
C1010 C 0.84416 0.11705 0.31196 0.0
C1011 C 0.80698 0.09804 0.32186 0.0
C1012 C 0.87312 0.14952 0.32416 0.0
C1013 C 0.86463 0.16283 0.3469 0.0
C1014 C 0.82809 0.14158 0.35824 0.0
C1015 C 0.7995 0.1095 0.34543 0.0
C1016 C 0.91175 0.17147 0.31143 0.0
C1017 C 0.81827 0.15441 0.38279 0.0
H1018 H 0.97247 0.25208 0.39189 0.0
H1019 H 0.9149 0.29411 0.34415 0.0
H1020 H 0.8965 0.15386 0.39234 0.0
H1021 H 0.93354 0.16297 0.36995 0.0
H1022 H 0.9458 0.1861 0.40071 0.0
H1023 H 0.859 0.25418 0.32192 0.0
H1024 H 0.8602 0.21307 0.30974 0.0
H1025 H 0.82922 0.20765 0.33581 0.0
H1026 H 0.85009 0.10809 0.29381 0.0
H1027 H 0.77085 0.0945 0.35332 0.0
H1028 H 0.93498 0.17941 0.32556 0.0
H1029 H 0.91519 0.19838 0.30325 0.0
H1030 H 0.91525 0.15487 0.29577 0.0
H1031 H 0.84183 0.16387 0.39686 0.0
H1032 H 0.79157 0.13133 0.39149 0.0
H1033 H 0.81424 0.17914 0.37881 0.0
C1034 C 0.86115 0.72611 0.34021 0.0
C1035 C 0.87875 0.70549 0.34802 0.0
C1036 C 0.82831 0.72124 0.35265 0.0
C1037 C 0.81345 0.69576 0.37365 0.0
C1038 C 0.83355 0.67809 0.38322 0.0
C1039 C 0.86579 0.68275 0.37004 0.0
C1040 C 0.80747 0.74032 0.34169 0.0
C1041 C 0.81923 0.6517 0.40605 0.0
C1042 C 0.72671 0.6898 0.40637 0.0
C1043 C 0.69708 0.65867 0.39345 0.0
C1044 C 0.76508 0.70142 0.40105 0.0
C1045 C 0.77363 0.6819 0.38201 0.0
C1046 C 0.74371 0.64973 0.36956 0.0
C1047 C 0.70586 0.6383 0.37565 0.0
C1048 C 0.79633 0.73521 0.41513 0.0
C1049 C 0.75157 0.62827 0.34896 0.0
H1050 H 0.87133 0.74386 0.32324 0.0
H1051 H 0.87986 0.66731 0.37634 0.0
H1052 H 0.78123 0.7186 0.33178 0.0
H1053 H 0.7985 0.753 0.3571 0.0
H1054 H 0.8253 0.76308 0.32773 0.0
H1055 H 0.84177 0.64669 0.41416 0.0
H1056 H 0.80892 0.66354 0.42123 0.0
H1057 H 0.7948 0.62371 0.40018 0.0
H1058 H 0.71994 0.70549 0.42023 0.0
H1059 H 0.68305 0.6142 0.36562 0.0
H1060 H 0.81013 0.76015 0.40207 0.0
H1061 H 0.81876 0.72891 0.4216 0.0
H1062 H 0.78517 0.74329 0.43199 0.0
H1063 H 0.76719 0.64784 0.33287 0.0
H1064 H 0.72497 0.60368 0.34132 0.0
H1065 H 0.76994 0.61739 0.35658 0.0
C1066 C 0.26391 0.13507 0.3186 0.0
C1067 C 0.28567 0.17412 0.32422 0.0
C1068 C 0.26781 0.10812 0.33323 0.0
C1069 C 0.29417 0.12077 0.35377 0.0
C1070 C 0.31343 0.15973 0.36095 0.0
C1071 C 0.30889 0.18599 0.34607 0.0
C1072 C 0.24635 0.06666 0.32524 0.0
C1073 C 0.34163 0.17432 0.3828 0.0
C1074 C 0.30157 0.04807 0.3959 0.0
C1075 C 0.33094 0.04538 0.38356 0.0
C1076 C 0.28913 0.07262 0.38654 0.0
C1077 C 0.30678 0.09496 0.36454 0.0
C1078 C 0.33702 0.09288 0.35242 0.0
C1079 C 0.34863 0.06802 0.36205 0.0
C1080 C 0.2567 0.07407 0.3998 0.0
C1081 C 0.35688 0.11658 0.32904 0.0
H1082 H 0.24562 0.12576 0.30186 0.0
H1083 H 0.32539 0.21616 0.3507 0.0
H1084 H 0.2662 0.05946 0.31529 0.0
H1085 H 0.23485 0.0477 0.34218 0.0
H1086 H 0.22237 0.06051 0.31207 0.0
H1087 H 0.34919 0.20375 0.38859 0.0
H1088 H 0.33005 0.15524 0.39967 0.0
H1089 H 0.36819 0.17472 0.37687 0.0
H1090 H 0.28769 0.03033 0.41246 0.0
H1091 H 0.37141 0.06604 0.35251 0.0
H1092 H 0.23198 0.06375 0.38662 0.0
H1093 H 0.26537 0.10396 0.40497 0.0
H1094 H 0.2473 0.05629 0.41741 0.0
H1095 H 0.33599 0.10928 0.31326 0.0
H1096 H 0.38035 0.11202 0.32221 0.0
H1097 H 0.36899 0.1474 0.33335 0.0
C1098 C 0.47882 0.53277 0.34328 0.0
C1099 C 0.51563 0.54086 0.35012 0.0
C1100 C 0.45403 0.49898 0.33024 0.0
C1101 C 0.46656 0.47293 0.32395 0.0
C1102 C 0.5043 0.48185 0.32977 0.0
C1103 C 0.52841 0.51575 0.34285 0.0
C1104 C 0.41391 0.49031 0.32432 0.0
C1105 C 0.51862 0.45474 0.3233 0.0
C1106 C 0.39165 0.36827 0.32141 0.0
C1107 C 0.38634 0.36178 0.29502 0.0
C1108 C 0.41772 0.40439 0.331 0.0
C1109 C 0.43907 0.4347 0.31374 0.0
C1110 C 0.43417 0.42831 0.28705 0.0
C1111 C 0.40773 0.39177 0.27796 0.0
C1112 C 0.42222 0.41015 0.35963 0.0
C1113 C 0.45665 0.46009 0.26818 0.0
H1114 H 0.46896 0.55227 0.34878 0.0
H1115 H 0.557 0.5221 0.34794 0.0
H1116 H 0.40688 0.48191 0.30398 0.0
H1117 H 0.39325 0.46582 0.33614 0.0
H1118 H 0.40986 0.5151 0.32823 0.0
H1119 H 0.54976 0.46761 0.32685 0.0
H1120 H 0.50324 0.42847 0.33507 0.0
H1121 H 0.51276 0.44595 0.30295 0.0
H1122 H 0.37512 0.34514 0.33467 0.0
H1123 H 0.40359 0.38678 0.25753 0.0
H1124 H 0.41539 0.43245 0.36553 0.0
H1125 H 0.45229 0.42031 0.36519 0.0
H1126 H 0.40342 0.38351 0.3704 0.0
H1127 H 0.45059 0.48373 0.27124 0.0
H1128 H 0.44977 0.45027 0.24803 0.0
H1129 H 0.48772 0.47198 0.27129 0.0
C1130 C 0.5776 0.97548 0.28354 0.0
C1131 C 0.61016 0.00344 0.2963 0.0
C1132 C 0.54086 0.96421 0.29278 0.0
C1133 C 0.53683 0.98152 0.31518 0.0
C1134 C 0.56963 0.01037 0.32779 0.0
C1135 C 0.60592 0.02091 0.31821 0.0
C1136 C 0.50647 0.93331 0.27894 0.0
C1137 C 0.56641 0.02972 0.35164 0.0
C1138 C 0.4466 0.98258 0.33235 0.0
C1139 C 0.4328 0.95655 0.35273 0.0
C1140 C 0.47932 0.98937 0.31882 0.0
C1141 C 0.49848 0.9695 0.32585 0.0
C1142 C 0.48309 0.94118 0.34518 0.0
C1143 C 0.45035 0.93506 0.35846 0.0
C1144 C 0.49483 0.0197 0.29826 0.0
C1145 C 0.50258 0.91916 0.35299 0.0
H1146 H 0.58082 0.9618 0.26664 0.0
H1147 H 0.63105 0.04256 0.3281 0.0
H1148 H 0.49063 0.90829 0.29172 0.0
H1149 H 0.48664 0.94373 0.27375 0.0
H1150 H 0.51448 0.92371 0.26126 0.0
H1151 H 0.59472 0.05222 0.35877 0.0
H1152 H 0.54859 0.04295 0.34776 0.0
H1153 H 0.55208 0.00825 0.36701 0.0
H1154 H 0.43295 -0.00091 0.32773 0.0
H1155 H 0.43962 0.91476 0.37413 0.0
H1156 H 0.50227 0.00909 0.28087 0.0
H1157 H 0.52142 0.04499 0.3052 0.0
H1158 H 0.47415 0.02906 0.29294 0.0
H1159 H 0.50989 0.9078 0.33591 0.0
H1160 H 0.48453 0.89498 0.36597 0.0
H1161 H 0.52971 0.93859 0.36299 0.0
C1162 C -0.00016 0.60429 0.28149 0.0
C1163 C 0.97206 0.60491 0.29721 0.0
C1164 C 0.01065 0.57652 0.28496 0.0
C1165 C 0.99363 0.54939 0.30485 0.0
C1166 C 0.96435 0.54891 0.31999 0.0
C1167 C 0.95372 0.57652 0.31583 0.0
C1168 C 0.04134 0.57726 0.26811 0.0
C1169 C 0.94566 0.52054 0.34152 0.0
C1170 C -0.00119 0.45912 0.3127 0.0
C1171 C 0.02641 0.47012 0.33199 0.0
C1172 C 0.98979 0.48552 0.30213 0.0
C1173 C 0.00829 0.52343 0.31154 0.0
C1174 C 0.03772 0.53516 0.32998 0.0
C1175 C 0.04668 0.50836 0.33983 0.0
C1176 C 0.95892 0.47228 0.28204 0.0
C1177 C 0.05783 0.57527 0.34069 0.0
H1178 H 0.0139 0.6261 0.26696 0.0
H1179 H 0.93214 0.57685 0.32798 0.0
H1180 H 0.06798 0.58741 0.27934 0.0
H1181 H 0.03268 0.54808 0.26116 0.0
H1182 H 0.04772 0.59646 0.25136 0.0
H1183 H 0.92215 0.52294 0.3507 0.0
H1184 H 0.93394 0.49093 0.33433 0.0
H1185 H 0.96729 0.52533 0.35632 0.0
H1186 H 0.98342 0.42959 0.30641 0.0
H1187 H 0.06808 0.5169 0.35473 0.0
H1188 H 0.96772 0.49351 0.26633 0.0
H1189 H 0.93258 0.46951 0.29069 0.0
H1190 H 0.95196 0.44416 0.27381 0.0
H1191 H 0.06855 0.59659 0.32499 0.0
H1192 H 0.08223 0.58069 0.35322 0.0
H1193 H 0.03729 0.57993 0.35204 0.0
C1194 C 0.51699 0.43017 0.64992 0.0
C1195 C 0.47975 0.40869 0.65947 0.0
C1196 C 0.54365 0.46415 0.66195 0.0
C1197 C 0.53265 0.47656 0.68404 0.0
C1198 C 0.49675 0.45246 0.69552 0.0
C1199 C 0.47055 0.41872 0.683 0.0
C1200 C 0.58196 0.4888 0.64935 0.0
C1201 C 0.48441 0.4642 0.71946 0.0
C1202 C 0.60869 0.56974 0.71347 0.0
C1203 C 0.60193 0.59616 0.70046 0.0
C1204 C 0.58536 0.5303 0.70928 0.0
C1205 C 0.55491 0.51734 0.69158 0.0
C1206 C 0.54693 0.5439 0.67939 0.0
C1207 C 0.57051 0.58297 0.68403 0.0
C1208 C 0.59448 0.50283 0.72283 0.0
C1209 C 0.51449 0.53122 0.66049 0.0
H1210 H 0.5244 0.42221 0.63191 0.0
H1211 H 0.44194 0.40177 0.6907 0.0
H1212 H 0.58188 0.51311 0.63951 0.0
H1213 H 0.60513 0.50087 0.6638 0.0
H1214 H 0.58849 0.47259 0.635 0.0
H1215 H 0.4598 0.43942 0.72882 0.0
H1216 H 0.50829 0.47787 0.73335 0.0
H1217 H 0.47568 0.48544 0.71445 0.0
H1218 H 0.63299 0.57988 0.72623 0.0
H1219 H 0.56505 0.6033 0.67407 0.0
H1220 H 0.6091 0.49313 0.70935 0.0
H1221 H 0.56801 0.47711 0.72942 0.0
H1222 H 0.61354 0.51637 0.73953 0.0
H1223 H 0.51964 0.51753 0.64373 0.0
H1224 H 0.51117 0.5554 0.65355 0.0
H1225 H 0.48719 0.50967 0.66938 0.0
C1226 C 0.54939 0.01911 0.69264 0.0
C1227 C 0.56131 0.0438 0.67154 0.0
C1228 C 0.51496 0.00915 0.70518 0.0
C1229 C 0.49183 0.02371 0.69599 0.0
C1230 C 0.50518 0.05086 0.6759 0.0
C1231 C 0.53999 0.06082 0.66403 0.0
C1232 C 0.50209 0.98089 0.72698 0.0
C1233 C 0.48121 0.06687 0.66542 0.0
C1234 C 0.3847 0.95967 0.69643 0.0
C1235 C 0.3735 0.97748 0.71471 0.0
C1236 C 0.42329 0.97377 0.69086 0.0
C1237 C 0.45142 0.00613 0.70423 0.0
C1238 C 0.44045 0.02293 0.72379 0.0
C1239 C 0.40143 0.00857 0.72866 0.0
C1240 C 0.4338 0.95518 0.66971 0.0
C1241 C 0.46976 0.05691 0.73879 0.0
H1242 H 0.56612 0.00629 0.6987 0.0
H1243 H 0.54925 0.08009 0.64779 0.0
H1244 H 0.48949 0.98965 0.7426 0.0
H1245 H 0.47964 0.95244 0.72009 0.0
H1246 H 0.52601 0.97793 0.73486 0.0
H1247 H 0.49746 0.09079 0.65185 0.0
H1248 H 0.45609 0.04393 0.65524 0.0
H1249 H 0.47028 0.07719 0.68116 0.0
H1250 H 0.3632 0.93558 0.68563 0.0
H1251 H 0.39282 0.02226 0.74292 0.0
H1252 H 0.45437 0.94674 0.67684 0.0
H1253 H 0.44796 0.9759 0.6539 0.0
H1254 H 0.4085 0.92941 0.66183 0.0
H1255 H 0.49323 0.05218 0.74523 0.0
H1256 H 0.45702 0.06288 0.75576 0.0
H1257 H 0.48261 0.08262 0.72636 0.0
C1258 C 0.02381 0.4363 0.71102 0.0
C1259 C 0.00492 0.40462 0.72718 0.0
C1260 C 0.00507 0.45487 0.70145 0.0
C1261 C 0.96654 0.44151 0.70839 0.0
C1262 C 0.94836 0.41163 0.72645 0.0
C1263 C 0.96781 0.39335 0.73563 0.0
C1264 C 0.02573 0.48698 0.68242 0.0
C1265 C 0.90761 0.3971 0.73473 0.0
C1266 C 0.93838 0.51162 0.68433 0.0
C1267 C 0.92636 0.49759 0.6595 0.0
C1268 C 0.94748 0.49123 0.70196 0.0
C1269 C 0.94485 0.45642 0.69432 0.0
C1270 C 0.92831 0.44004 0.6704 0.0
C1271 C 0.91906 0.46083 0.65325 0.0
C1272 C 0.96366 0.50892 0.72766 0.0
C1273 C 0.92446 0.40261 0.6617 0.0
H1274 H 0.05263 0.4453 0.70466 0.0
H1275 H 0.9531 0.36885 0.74819 0.0
H1276 H 0.01184 0.47793 0.66341 0.0
H1277 H 0.02406 0.51246 0.68837 0.0
H1278 H 0.05632 0.49543 0.68034 0.0
H1279 H 0.90128 0.38145 0.75318 0.0
H1280 H 0.90146 0.42085 0.73669 0.0
H1281 H 0.88797 0.37712 0.72004 0.0
H1282 H 0.94337 0.53978 0.68942 0.0
H1283 H 0.90928 0.44967 0.63419 0.0
H1284 H -0.00471 0.52304 0.72698 0.0
H1285 H 0.9535 0.48678 0.74285 0.0
H1286 H 0.95581 0.53076 0.73292 0.0
H1287 H 0.95319 0.40696 0.6571 0.0
H1288 H 0.90619 0.39121 0.64441 0.0
H1289 H 0.91215 0.38091 0.67711 0.0
C1290 C 0.19564 0.82842 0.66329 0.0
C1291 C 0.18353 0.85239 0.67401 0.0
C1292 C 0.16968 0.7944 0.65096 0.0
C1293 C 0.13076 0.78417 0.64951 0.0
C1294 C 0.11863 0.80893 0.65952 0.0
C1295 C 0.14525 0.84287 0.67162 0.0
C1296 C 0.18361 0.76875 0.64036 0.0
C1297 C 0.07727 0.79883 0.65839 0.0
C1298 C 0.06215 0.70573 0.60488 0.0
C1299 C 0.04386 0.67488 0.62183 0.0
C1300 C 0.09134 0.74142 0.61344 0.0
C1301 C 0.10211 0.74615 0.63952 0.0
C1302 C 0.08441 0.71478 0.65653 0.0
C1303 C 0.05556 0.67947 0.64744 0.0
C1304 C 0.10993 0.77426 0.59478 0.0
C1305 C 0.09511 0.71877 0.68451 0.0
H1306 H 0.2253 0.83584 0.66498 0.0
H1307 H 0.13584 0.86143 0.67984 0.0
H1308 H 0.17126 0.74191 0.65164 0.0
H1309 H 0.17392 0.76077 0.6203 0.0
H1310 H 0.21525 0.78249 0.64092 0.0
H1311 H 0.07302 0.82237 0.66547 0.0
H1312 H 0.06649 0.79187 0.63848 0.0
H1313 H 0.05966 0.77303 0.67019 0.0
H1314 H 0.05316 0.70221 0.58505 0.0
H1315 H 0.0415 0.65566 0.66061 0.0
H1316 H 0.14145 0.78725 0.59541 0.0
H1317 H 0.10328 0.79683 0.60026 0.0
H1318 H 0.10008 0.76522 0.57483 0.0
H1319 H 0.12623 0.72988 0.6866 0.0
H1320 H 0.07947 0.69121 0.69498 0.0
H1321 H 0.08871 0.7397 0.69371 0.0
C1322 C 0.14929 0.35288 0.67097 0.0
C1323 C 0.12296 0.32063 0.68477 0.0
C1324 C 0.18055 0.35368 0.6588 0.0
C1325 C 0.18534 0.32135 0.66041 0.0
C1326 C 0.15768 0.28794 0.67311 0.0
C1327 C 0.12679 0.28802 0.68524 0.0
C1328 C 0.20955 0.38983 0.64545 0.0
C1329 C 0.16174 0.25283 0.67501 0.0
C1330 C 0.25864 0.31728 0.61721 0.0
C1331 C 0.28997 0.33024 0.63378 0.0
C1332 C 0.2241 0.31385 0.62563 0.0
C1333 C 0.22115 0.32389 0.65111 0.0
C1334 C 0.25271 0.33693 0.6679 0.0
C1335 C 0.28672 0.33983 0.65903 0.0
C1336 C 0.19087 0.29963 0.60732 0.0
C1337 C 0.25065 0.34809 0.69519 0.0
H1338 H 0.14631 0.3781 0.67048 0.0
H1339 H 0.10631 0.26294 0.69576 0.0
H1340 H 0.23681 0.40309 0.65628 0.0
H1341 H 0.21564 0.38326 0.626 0.0
H1342 H 0.19979 0.41104 0.64382 0.0
H1343 H 0.13575 0.22794 0.68305 0.0
H1344 H 0.16759 0.24494 0.6559 0.0
H1345 H 0.18637 0.259 0.68749 0.0
H1346 H 0.26109 0.30975 0.59768 0.0
H1347 H 0.31092 0.34991 0.67188 0.0
H1348 H 0.18251 0.32174 0.6048 0.0
H1349 H 0.16575 0.27387 0.6153 0.0
H1350 H 0.19766 0.29239 0.58826 0.0
H1351 H 0.24393 0.37157 0.69547 0.0
H1352 H 0.27781 0.35764 0.70575 0.0
H1353 H 0.22734 0.32349 0.70554 0.0
C1354 C 0.7159 0.83756 0.66286 0.0
C1355 C 0.68651 0.80003 0.65837 0.0
C1356 C 0.71261 0.8688 0.65461 0.0
C1357 C 0.67919 0.86219 0.64154 0.0
C1358 C 0.65067 0.82441 0.63538 0.0
C1359 C 0.65465 0.79369 0.64393 0.0
C1360 C 0.74369 0.90872 0.66146 0.0
C1361 C 0.61476 0.81629 0.62129 0.0
C1362 C 0.64759 0.93478 0.65263 0.0
C1363 C 0.65999 0.95662 0.63021 0.0
C1364 C 0.65345 0.90379 0.65638 0.0
C1365 C 0.67202 0.89433 0.63717 0.0
C1366 C 0.68417 0.91593 0.61431 0.0
C1367 C 0.67807 0.94699 0.61111 0.0
C1368 C 0.64015 0.88144 0.68107 0.0
C1369 C 0.70386 0.90645 0.59341 0.0
H1370 H 0.74068 0.84258 0.67392 0.0
H1371 H 0.63196 0.76469 0.64028 0.0
H1372 H 0.75172 0.92782 0.64457 0.0
H1373 H 0.73296 0.92061 0.67634 0.0
H1374 H 0.76968 0.90923 0.66892 0.0
H1375 H 0.59794 0.78601 0.61502 0.0
H1376 H 0.59655 0.82251 0.634 0.0
H1377 H 0.62183 0.83504 0.60427 0.0
H1378 H 0.63359 0.94214 0.66743 0.0
H1379 H 0.68762 0.96381 0.59372 0.0
H1380 H 0.66488 0.88297 0.69137 0.0
H1381 H 0.61994 0.85085 0.67694 0.0
H1382 H 0.62578 0.89227 0.69393 0.0
H1383 H 0.73093 0.90934 0.60077 0.0
H1384 H 0.71043 0.92531 0.57646 0.0
H1385 H 0.68562 0.87631 0.58727 0.0
loop_
_geom_bond_atom_site_label_1
_geom_bond_atom_site_label_2
_geom_bond_distance
_geom_bond_site_symmetry_2
_ccdc_geom_bond_type
In0 O1 2.294 . S
In0 O2 2.326 . S
In0 O6 2.266 . S
In0 O7 2.326 . S
In0 O8 2.266 . S
In0 O9 2.326 . S
In0 O11 2.294 . S
In0 O12 2.326 . S
O1 In0 2.294 . S
O1 C10 1.240 . S
O2 In0 2.326 . S
O2 C10 1.252 . S
C3 O6 1.253 . S
C3 O7 1.263 . S
C4 O11 1.240 . S
C4 O12 1.252 . S
C5 O8 1.252 . S
C5 O9 1.260 . S
O6 In0 2.266 . S
O6 C3 1.253 . S
O7 In0 2.326 . S
O7 C3 1.263 . S
O8 In0 2.266 . S
O8 C5 1.252 . S
O9 In0 2.326 . S
O9 C5 1.260 . S
C10 O1 1.240 . S
C10 O2 1.252 . S
O11 In0 2.294 . S
O11 C4 1.240 . S
O12 In0 2.326 . S
O12 C4 1.252 . S
In13 O14 2.294 . S
In13 O15 2.326 . S
In13 O19 2.266 . S
In13 O20 2.326 . S
In13 O21 2.266 . S
In13 O22 2.326 . S
In13 O24 2.294 . S
In13 O25 2.326 . S
O14 In13 2.294 . S
O14 C23 1.240 . S
O15 In13 2.326 . S
O15 C23 1.252 . S
C16 O19 1.252 . S
C16 O20 1.265 . S
C17 O24 1.240 . S
C17 O25 1.252 . S
C18 O21 1.252 . S
C18 O22 1.260 . S
O19 In13 2.266 . S
O19 C16 1.252 . S
O20 In13 2.326 . S
O20 C16 1.265 . S
O21 In13 2.266 . S
O21 C18 1.252 . S
O22 In13 2.326 . S
O22 C18 1.260 . S
C23 O14 1.240 . S
C23 O15 1.252 . S
O24 In13 2.294 . S
O24 C17 1.240 . S
O25 In13 2.326 . S
O25 C17 1.252 . S
In26 O27 2.294 . S
In26 O28 2.326 . S
In26 O32 2.266 . S
In26 O33 2.326 . S
In26 O34 2.266 . S
In26 O35 2.326 . S
In26 O37 2.294 . S
In26 O38 2.326 . S
O27 In26 2.294 . S
O27 C36 1.240 . S
O28 In26 2.326 . S
O28 C36 1.252 . S
C29 O32 1.252 . S
C29 O33 1.260 . S
C30 O37 1.240 . S
C30 O38 1.252 . S
C31 O34 1.252 . S
C31 O35 1.260 . S
O32 In26 2.266 . S
O32 C29 1.252 . S
O33 In26 2.326 . S
O33 C29 1.260 . S
O34 In26 2.266 . S
O34 C31 1.252 . S
O35 In26 2.326 . S
O35 C31 1.260 . S
C36 O27 1.240 . S
C36 O28 1.252 . S
O37 In26 2.294 . S
O37 C30 1.240 . S
O38 In26 2.326 . S
O38 C30 1.252 . S
In39 O40 2.294 . S
In39 O41 2.326 . S
In39 O45 2.266 . S
In39 O46 2.326 . S
In39 O47 2.266 . S
In39 O48 2.326 . S
In39 O50 2.294 . S
In39 O51 2.326 . S
O40 In39 2.294 . S
O40 C49 1.240 . S
O41 In39 2.326 . S
O41 C49 1.252 . S
C42 O45 1.253 . S
C42 O46 1.263 . S
C43 O50 1.240 . S
C43 O51 1.252 . S
C44 O47 1.252 . S
C44 O48 1.260 . S
O45 In39 2.266 . S
O45 C42 1.253 . S
O46 In39 2.326 . S
O46 C42 1.263 . S
O47 In39 2.266 . S
O47 C44 1.252 . S
O48 In39 2.326 . S
O48 C44 1.260 . S
C49 O40 1.240 . S
C49 O41 1.252 . S
O50 In39 2.294 . S
O50 C43 1.240 . S
O51 In39 2.326 . S
O51 C43 1.252 . S
In52 O53 2.294 . S
In52 O54 2.326 . S
In52 O58 2.266 . S
In52 O59 2.326 . S
In52 O60 2.266 . S
In52 O61 2.326 . S
In52 O63 2.294 . S
In52 O64 2.326 . S
O53 In52 2.294 . S
O53 C62 1.240 . S
O54 In52 2.326 . S
O54 C62 1.252 . S
C55 O58 1.252 . S
C55 O59 1.260 . S
C56 O63 1.240 . S
C56 O64 1.252 . S
C57 O60 1.252 . S
C57 O61 1.265 . S
O58 In52 2.266 . S
O58 C55 1.252 . S
O59 In52 2.326 . S
O59 C55 1.260 . S
O60 In52 2.266 . S
O60 C57 1.252 . S
O61 In52 2.326 . S
O61 C57 1.265 . S
C62 O53 1.240 . S
C62 O54 1.252 . S
O63 In52 2.294 . S
O63 C56 1.240 . S
O64 In52 2.326 . S
O64 C56 1.252 . S
In65 O66 2.294 . S
In65 O67 2.326 . S
In65 O71 2.266 . S
In65 O72 2.326 . S
In65 O73 2.266 . S
In65 O74 2.326 . S
In65 O76 2.294 . S
In65 O77 2.326 . S
O66 In65 2.294 . S
O66 C75 1.240 . S
O67 In65 2.326 . S
O67 C75 1.252 . S
C68 O71 1.252 . S
C68 O72 1.260 . S
C69 O76 1.240 . S
C69 O77 1.252 . S
C70 O73 1.252 . S
C70 O74 1.260 . S
O71 In65 2.266 . S
O71 C68 1.252 . S
O72 In65 2.326 . S
O72 C68 1.260 . S
O73 In65 2.266 . S
O73 C70 1.252 . S
O74 In65 2.326 . S
O74 C70 1.260 . S
C75 O66 1.240 . S
C75 O67 1.252 . S
O76 In65 2.294 . S
O76 C69 1.240 . S
O77 In65 2.326 . S
O77 C69 1.252 . S
In78 O79 2.294 . S
In78 O80 2.326 . S
In78 O84 2.266 1_455 S
In78 O85 2.326 1_455 S
In78 O86 2.266 . S
In78 O87 2.326 . S
In78 O89 2.294 . S
In78 O90 2.326 1_455 S
O79 In78 2.294 . S
O79 C88 1.240 . S
O80 In78 2.326 . S
O80 C88 1.252 . S
C81 O84 1.252 . S
C81 O85 1.260 . S
C82 O89 1.240 . S
C82 O90 1.252 1_455 S
C83 O86 1.252 . S
C83 O87 1.260 . S
O84 In78 2.266 1_655 S
O84 C81 1.252 . S
O85 In78 2.326 1_655 S
O85 C81 1.260 . S
O86 In78 2.266 . S
O86 C83 1.252 . S
O87 In78 2.326 . S
O87 C83 1.260 . S
C88 O79 1.240 . S
C88 O80 1.252 . S
O89 In78 2.294 . S
O89 C82 1.240 . S
O90 In78 2.326 1_655 S
O90 C82 1.252 1_655 S
In91 O92 2.294 . S
In91 O93 2.326 . S
In91 O97 2.266 . S
In91 O98 2.326 . S
In91 O99 2.266 . S
In91 O100 2.326 . S
In91 O102 2.294 . S
In91 O103 2.326 . S
O92 In91 2.294 . S
O92 C101 1.240 . S
O93 In91 2.326 . S
O93 C101 1.252 . S
C94 O97 1.252 . S
C94 O98 1.260 . S
C95 O102 1.240 . S
C95 O103 1.252 . S
C96 O99 1.252 . S
C96 O100 1.260 . S
O97 In91 2.266 . S
O97 C94 1.252 . S
O98 In91 2.326 . S
O98 C94 1.260 . S
O99 In91 2.266 . S
O99 C96 1.252 . S
O100 In91 2.326 . S
O100 C96 1.260 . S
C101 O92 1.240 . S
C101 O93 1.252 . S
O102 In91 2.294 . S
O102 C95 1.240 . S
O103 In91 2.326 . S
O103 C95 1.252 . S
In104 O105 2.294 . S
In104 O106 2.326 1_565 S
In104 O110 2.266 . S
In104 O111 2.326 . S
In104 O112 2.266 1_565 S
In104 O113 2.326 1_565 S
In104 O115 2.294 . S
In104 O116 2.326 . S
O105 In104 2.294 . S
O105 C114 1.240 . S
O106 In104 2.326 1_545 S
O106 C114 1.252 1_545 S
C107 O110 1.252 . S
C107 O111 1.260 . S
C108 O115 1.240 . S
C108 O116 1.252 . S
C109 O112 1.252 . S
C109 O113 1.260 . S
O110 In104 2.266 . S
O110 C107 1.252 . S
O111 In104 2.326 . S
O111 C107 1.260 . S
O112 In104 2.266 1_545 S
O112 C109 1.252 . S
O113 In104 2.326 1_545 S
O113 C109 1.260 . S
C114 O105 1.240 . S
C114 O106 1.252 1_565 S
O115 In104 2.294 . S
O115 C108 1.240 . S
O116 In104 2.326 . S
O116 C108 1.252 . S
In117 O118 2.294 . S
In117 O119 2.326 . S
In117 O123 2.266 . S
In117 O124 2.326 . S
In117 O125 2.266 . S
In117 O126 2.326 . S
In117 O128 2.294 . S
In117 O129 2.326 . S
O118 In117 2.294 . S
O118 C127 1.240 . S
O119 In117 2.326 . S
O119 C127 1.252 . S
C120 O123 1.252 . S
C120 O124 1.260 . S
C121 O128 1.240 . S
C121 O129 1.252 . S
C122 O125 1.252 . S
C122 O126 1.260 . S
O123 In117 2.266 . S
O123 C120 1.252 . S
O124 In117 2.326 . S
O124 C120 1.260 . S
O125 In117 2.266 . S
O125 C122 1.252 . S
O126 In117 2.326 . S
O126 C122 1.260 . S
C127 O118 1.240 . S
C127 O119 1.252 . S
O128 In117 2.294 . S
O128 C121 1.240 . S
O129 In117 2.326 . S
O129 C121 1.252 . S
In130 O131 2.294 . S
In130 O132 2.326 . S
In130 O136 2.266 . S
In130 O137 2.326 . S
In130 O138 2.266 1_545 S
In130 O139 2.326 1_545 S
In130 O141 2.294 . S
In130 O142 2.326 . S
O131 In130 2.294 . S
O131 C140 1.240 . S
O132 In130 2.326 . S
O132 C140 1.252 . S
C133 O136 1.252 . S
C133 O137 1.260 . S
C134 O141 1.240 . S
C134 O142 1.252 . S
C135 O138 1.252 . S
C135 O139 1.260 . S
O136 In130 2.266 . S
O136 C133 1.252 . S
O137 In130 2.326 . S
O137 C133 1.260 . S
O138 In130 2.266 1_565 S
O138 C135 1.252 . S
O139 In130 2.326 1_565 S
O139 C135 1.260 . S
C140 O131 1.240 . S
C140 O132 1.252 . S
O141 In130 2.294 . S
O141 C134 1.240 . S
O142 In130 2.326 . S
O142 C134 1.252 . S
In143 O144 2.294 . S
In143 O145 2.326 . S
In143 O149 2.266 1_655 S
In143 O150 2.326 1_655 S
In143 O151 2.266 . S
In143 O152 2.326 . S
In143 O154 2.294 . S
In143 O155 2.326 . S
O144 In143 2.294 . S
O144 C153 1.240 . S
O145 In143 2.326 . S
O145 C153 1.252 . S
C146 O149 1.252 . S
C146 O150 1.260 . S
C147 O154 1.240 . S
C147 O155 1.252 . S
C148 O151 1.252 . S
C148 O152 1.260 . S
O149 In143 2.266 1_455 S
O149 C146 1.252 . S
O150 In143 2.326 1_455 S
O150 C146 1.260 . S
O151 In143 2.266 . S
O151 C148 1.252 . S
O152 In143 2.326 . S
O152 C148 1.260 . S
C153 O144 1.240 . S
C153 O145 1.252 . S
O154 In143 2.294 . S
O154 C147 1.240 . S
O155 In143 2.326 . S
O155 C147 1.252 . S
In156 O157 2.294 . S
In156 O158 2.326 . S
In156 O162 2.266 . S
In156 O163 2.326 . S
In156 O164 2.266 . S
In156 O165 2.326 . S
In156 O167 2.294 . S
In156 O168 2.326 . S
O157 In156 2.294 . S
O157 C166 1.240 . S
O158 In156 2.326 . S
O158 C166 1.252 . S
C159 O162 1.252 . S
C159 O163 1.260 . S
C160 O167 1.240 . S
C160 O168 1.252 . S
C161 O164 1.252 . S
C161 O165 1.260 . S
O162 In156 2.266 . S
O162 C159 1.252 . S
O163 In156 2.326 . S
O163 C159 1.260 . S
O164 In156 2.266 . S
O164 C161 1.252 . S
O165 In156 2.326 . S
O165 C161 1.260 . S
C166 O157 1.240 . S
C166 O158 1.252 . S
O167 In156 2.294 . S
O167 C160 1.240 . S
O168 In156 2.326 . S
O168 C160 1.252 . S
In169 O170 2.294 . S
In169 O171 2.326 . S
In169 O175 2.266 . S
In169 O176 2.326 . S
In169 O177 2.266 1_565 S
In169 O178 2.326 1_565 S
In169 O180 2.294 . S
In169 O181 2.326 . S
O170 In169 2.294 . S
O170 C179 1.240 . S
O171 In169 2.326 . S
O171 C179 1.252 . S
C172 O175 1.252 . S
C172 O176 1.260 . S
C173 O180 1.240 . S
C173 O181 1.252 . S
C174 O177 1.252 . S
C174 O178 1.260 . S
O175 In169 2.266 . S
O175 C172 1.252 . S
O176 In169 2.326 . S
O176 C172 1.260 . S
O177 In169 2.266 1_545 S
O177 C174 1.252 . S
O178 In169 2.326 1_545 S
O178 C174 1.260 . S
C179 O170 1.240 . S
C179 O171 1.252 . S
O180 In169 2.294 . S
O180 C173 1.240 . S
O181 In169 2.326 . S
O181 C173 1.252 . S
In182 O183 2.294 . S
In182 O184 2.326 . S
In182 O188 2.266 . S
In182 O189 2.326 . S
In182 O190 2.266 1_455 S
In182 O191 2.326 1_455 S
In182 O193 2.294 . S
In182 O194 2.326 . S
O183 In182 2.294 . S
O183 C192 1.240 . S
O184 In182 2.326 . S
O184 C192 1.252 . S
C185 O188 1.252 . S
C185 O189 1.260 . S
C186 O193 1.240 . S
C186 O194 1.252 . S
C187 O190 1.252 . S
C187 O191 1.260 . S
O188 In182 2.266 . S
O188 C185 1.252 . S
O189 In182 2.326 . S
O189 C185 1.260 . S
O190 In182 2.266 1_655 S
O190 C187 1.252 . S
O191 In182 2.326 1_655 S
O191 C187 1.260 . S
C192 O183 1.240 . S
C192 O184 1.252 . S
O193 In182 2.294 . S
O193 C186 1.240 . S
O194 In182 2.326 . S
O194 C186 1.252 . S
In195 O196 2.294 . S
In195 O197 2.326 1_655 S
In195 O201 2.266 . S
In195 O202 2.326 . S
In195 O203 2.266 1_655 S
In195 O204 2.326 1_655 S
In195 O206 2.294 . S
In195 O207 2.326 . S
O196 In195 2.294 . S
O196 C205 1.240 . S
O197 In195 2.326 1_455 S
O197 C205 1.252 1_455 S
C198 O201 1.252 . S
C198 O202 1.260 . S
C199 O206 1.240 . S
C199 O207 1.252 . S
C200 O203 1.252 . S
C200 O204 1.260 . S
O201 In195 2.266 . S
O201 C198 1.252 . S
O202 In195 2.326 . S
O202 C198 1.260 . S
O203 In195 2.266 1_455 S
O203 C200 1.252 . S
O204 In195 2.326 1_455 S
O204 C200 1.260 . S
C205 O196 1.240 . S
C205 O197 1.252 1_655 S
O206 In195 2.294 . S
O206 C199 1.240 . S
O207 In195 2.326 . S
O207 C199 1.252 . S
In208 O209 2.294 . S
In208 O210 2.326 . S
In208 O214 2.266 . S
In208 O215 2.326 . S
In208 O216 2.266 . S
In208 O217 2.326 . S
In208 O219 2.294 . S
In208 O220 2.326 . S
O209 In208 2.294 . S
O209 C218 1.240 . S
O210 In208 2.326 . S
O210 C218 1.252 . S
C211 O214 1.252 . S
C211 O215 1.260 . S
C212 O219 1.240 . S
C212 O220 1.252 . S
C213 O216 1.252 . S
C213 O217 1.260 . S
O214 In208 2.266 . S
O214 C211 1.252 . S
O215 In208 2.326 . S
O215 C211 1.260 . S
O216 In208 2.266 . S
O216 C213 1.252 . S
O217 In208 2.326 . S
O217 C213 1.260 . S
C218 O209 1.240 . S
C218 O210 1.252 . S
O219 In208 2.294 . S
O219 C212 1.240 . S
O220 In208 2.326 . S
O220 C212 1.252 . S
In221 O222 2.294 . S
In221 O223 2.326 1_545 S
In221 O227 2.266 . S
In221 O228 2.326 . S
In221 O229 2.266 1_545 S
In221 O230 2.326 1_545 S
In221 O232 2.294 . S
In221 O233 2.326 . S
O222 In221 2.294 . S
O222 C231 1.240 . S
O223 In221 2.326 1_565 S
O223 C231 1.252 1_565 S
C224 O227 1.252 . S
C224 O228 1.260 . S
C225 O232 1.240 . S
C225 O233 1.252 . S
C226 O229 1.252 . S
C226 O230 1.260 . S
O227 In221 2.266 . S
O227 C224 1.252 . S
O228 In221 2.326 . S
O228 C224 1.260 . S
O229 In221 2.266 1_565 S
O229 C226 1.252 . S
O230 In221 2.326 1_565 S
O230 C226 1.260 . S
C231 O222 1.240 . S
C231 O223 1.252 1_545 S
O232 In221 2.294 . S
O232 C225 1.240 . S
O233 In221 2.326 . S
O233 C225 1.252 . S
C234 C235 1.391 . S
C234 C236 1.394 . S
C234 H250 0.931 . S
C235 C234 1.391 . S
C235 C239 1.378 . S
C236 C234 1.394 . S
C236 C237 1.375 . S
C236 C240 1.531 . S
C237 C236 1.375 . S
C237 C238 1.411 1_545 S
C237 C245 1.496 1_544 S
C238 C237 1.411 1_565 S
C238 C239 1.390 1_565 S
C238 C241 1.511 1_554 S
C239 C235 1.378 . S
C239 C238 1.390 1_545 S
C239 H251 0.929 1_545 S
C240 C236 1.531 . S
C240 H252 0.960 . S
C240 H253 0.962 . S
C240 H254 0.960 . S
C241 C238 1.511 1_556 S
C241 H255 0.961 . S
C241 H256 0.961 . S
C241 H257 0.961 . S
C242 C243 1.370 . S
C242 C244 1.363 1_565 S
C242 H258 0.931 1_565 S
C243 C242 1.370 . S
C243 C247 1.408 . S
C244 C242 1.363 1_545 S
C244 C245 1.370 1_545 S
C244 C248 1.524 . S
C245 C237 1.496 1_566 S
C245 C244 1.370 1_565 S
C245 C246 1.403 1_556 S
C246 C245 1.403 1_554 S
C246 C247 1.404 1_554 S
C246 C249 1.539 . S
C247 C243 1.408 . S
C247 C246 1.404 1_556 S
C247 H259 0.930 . S
C248 C244 1.524 . S
C248 H260 0.956 . S
C248 H261 0.961 . S
C248 H262 0.961 . S
C249 C246 1.539 . S
C249 H263 0.958 . S
C249 H264 0.961 . S
C249 H265 0.960 . S
H250 C234 0.931 . S
H251 C239 0.929 1_565 S
H252 C240 0.960 . S
H253 C240 0.962 . S
H254 C240 0.960 . S
H255 C241 0.961 . S
H256 C241 0.961 . S
H257 C241 0.961 . S
H258 C242 0.931 1_545 S
H259 C247 0.930 . S
H260 C248 0.956 . S
H261 C248 0.961 . S
H262 C248 0.961 . S
H263 C249 0.958 . S
H264 C249 0.961 . S
H265 C249 0.960 . S
C266 C267 1.391 . S
C266 C268 1.394 . S
C266 H282 0.931 . S
C267 C266 1.391 . S
C267 C271 1.376 1_655 S
C268 C266 1.394 . S
C268 C269 1.369 . S
C268 C272 1.531 . S
C269 C268 1.369 . S
C269 C270 1.410 1_655 S
C269 C277 1.503 1_654 S
C270 C269 1.410 1_455 S
C270 C271 1.392 . S
C270 C273 1.511 . S
C271 C267 1.376 1_455 S
C271 C270 1.392 . S
C271 H283 0.929 . S
C272 C268 1.531 . S
C272 H284 0.960 . S
C272 H285 0.962 1_554 S
C272 H286 0.960 . S
C273 C270 1.511 . S
C273 H287 0.961 . S
C273 H288 0.961 1_554 S
C273 H289 0.961 . S
C274 C275 1.370 . S
C274 C276 1.363 . S
C274 H290 0.931 . S
C275 C274 1.370 . S
C275 C279 1.408 . S
C276 C274 1.363 . S
C276 C277 1.370 . S
C276 C280 1.524 1_455 S
C277 C269 1.503 1_456 S
C277 C276 1.370 . S
C277 C278 1.403 1_556 S
C278 C277 1.403 1_554 S
C278 C279 1.404 1_554 S
C278 C281 1.539 . S
C279 C275 1.408 . S
C279 C278 1.404 1_556 S
C279 H291 0.930 1_556 S
C280 C276 1.524 1_655 S
C280 H292 0.956 . S
C280 H293 0.961 1_655 S
C280 H294 0.961 . S
C281 C278 1.539 . S
C281 H295 0.933 1_455 S
C281 H296 0.961 . S
C281 H297 0.960 . S
H282 C266 0.931 . S
H283 C271 0.929 . S
H284 C272 0.960 . S
H285 C272 0.962 1_556 S
H286 C272 0.960 . S
H287 C273 0.961 . S
H288 C273 0.961 1_556 S
H289 C273 0.961 . S
H290 C274 0.931 . S
H291 C279 0.930 1_554 S
H292 C280 0.956 . S
H293 C280 0.961 1_455 S
H294 C280 0.961 . S
H295 C281 0.933 1_655 S
H296 C281 0.961 . S
H297 C281 0.960 . S
C298 C299 1.391 . S
C298 C300 1.394 . S
C298 H314 0.931 . S
C299 C298 1.391 . S
C299 C303 1.376 . S
C300 C298 1.394 . S
C300 C301 1.369 . S
C300 C304 1.531 . S
C301 C300 1.369 . S
C301 C302 1.407 1_556 S
C301 C309 1.503 1_556 S
C302 C301 1.407 1_554 S
C302 C303 1.377 1_554 S
C302 C305 1.528 . S
C303 C299 1.376 . S
C303 C302 1.377 1_556 S
C303 H315 0.929 . S
C304 C300 1.531 . S
C304 H316 0.960 . S
C304 H317 0.962 . S
C304 H318 0.960 . S
C305 C302 1.528 . S
C305 H319 0.961 . S
C305 H320 0.961 . S
C305 H321 0.961 . S
C306 C307 1.370 . S
C306 C308 1.363 1_554 S
C306 H322 0.931 1_554 S
C307 C306 1.370 . S
C307 C311 1.408 . S
C308 C306 1.363 1_556 S
C308 C309 1.370 1_556 S
C308 C312 1.524 . S
C309 C301 1.503 1_554 S
C309 C308 1.370 1_554 S
C309 C310 1.403 . S
C310 C309 1.403 . S
C310 C311 1.404 . S
C310 C313 1.539 . S
C311 C307 1.408 . S
C311 C310 1.404 . S
C311 H323 0.930 . S
C312 C308 1.524 . S
C312 H324 0.956 . S
C312 H325 0.961 . S
C312 H326 0.961 . S
C313 C310 1.539 . S
C313 H327 0.958 . S
C313 H328 0.961 . S
C313 H329 0.960 . S
H314 C298 0.931 . S
H315 C303 0.929 . S
H316 C304 0.960 . S
H317 C304 0.962 . S
H318 C304 0.960 . S
H319 C305 0.961 . S
H320 C305 0.961 . S
H321 C305 0.961 . S
H322 C306 0.931 1_556 S
H323 C311 0.930 . S
H324 C312 0.956 . S
H325 C312 0.961 . S
H326 C312 0.961 . S
H327 C313 0.958 . S
H328 C313 0.961 . S
H329 C313 0.960 . S
C330 C331 1.391 . S
C330 C332 1.394 . S
C330 H346 0.931 . S
C331 C330 1.391 . S
C331 C335 1.376 . S
C332 C330 1.394 . S
C332 C333 1.369 . S
C332 C336 1.531 . S
C333 C332 1.369 . S
C333 C334 1.410 . S
C333 C341 1.503 . S
C334 C333 1.410 . S
C334 C335 1.392 . S
C334 C337 1.511 . S
C335 C331 1.376 . S
C335 C334 1.392 . S
C335 H347 0.929 . S
C336 C332 1.531 . S
C336 H348 0.960 . S
C336 H349 0.962 . S
C336 H350 0.960 . S
C337 C334 1.511 . S
C337 H351 0.961 . S
C337 H352 0.961 . S
C337 H353 0.961 . S
C338 C339 1.370 . S
C338 C340 1.363 . S
C338 H354 0.931 . S
C339 C338 1.370 . S
C339 C343 1.408 . S
C340 C338 1.363 . S
C340 C341 1.370 . S
C340 C344 1.524 . S
C341 C333 1.503 . S
C341 C340 1.370 . S
C341 C342 1.403 . S
C342 C341 1.403 . S
C342 C343 1.404 . S
C342 C345 1.539 . S
C343 C339 1.408 . S
C343 C342 1.404 . S
C343 H355 0.930 . S
C344 C340 1.524 . S
C344 H356 0.956 . S
C344 H357 0.961 . S
C344 H358 0.961 . S
C345 C342 1.539 . S
C345 H359 0.958 . S
C345 H360 0.961 . S
C345 H361 0.960 . S
H346 C330 0.931 . S
H347 C335 0.929 . S
H348 C336 0.960 . S
H349 C336 0.962 . S
H350 C336 0.960 . S
H351 C337 0.961 . S
H352 C337 0.961 . S
H353 C337 0.961 . S
H354 C338 0.931 . S
H355 C343 0.930 . S
H356 C344 0.956 . S
H357 C344 0.961 . S
H358 C344 0.961 . S
H359 C345 0.958 . S
H360 C345 0.961 . S
H361 C345 0.960 . S
C362 C363 1.391 . S
C362 C364 1.394 . S
C362 H378 0.931 . S
C363 C362 1.391 . S
C363 C367 1.376 . S
C364 C362 1.394 . S
C364 C365 1.369 . S
C364 C368 1.531 . S
C365 C364 1.369 . S
C365 C366 1.410 . S
C365 C373 1.503 . S
C366 C365 1.410 . S
C366 C367 1.392 . S
C366 C369 1.511 . S
C367 C363 1.376 . S
C367 C366 1.392 . S
C367 H379 0.929 . S
C368 C364 1.531 . S
C368 H380 0.960 . S
C368 H381 0.962 . S
C368 H382 0.960 . S
C369 C366 1.511 . S
C369 H383 0.961 . S
C369 H384 0.961 . S
C369 H385 0.961 . S
C370 C371 1.370 . S
C370 C372 1.363 . S
C370 H386 0.931 . S
C371 C370 1.370 . S
C371 C375 1.408 . S
C372 C370 1.363 . S
C372 C373 1.370 . S
C372 C376 1.524 . S
C373 C365 1.503 . S
C373 C372 1.370 . S
C373 C374 1.403 . S
C374 C373 1.403 . S
C374 C375 1.404 . S
C374 C377 1.539 . S
C375 C371 1.408 . S
C375 C374 1.404 . S
C375 H387 0.930 . S
C376 C372 1.524 . S
C376 H388 0.956 . S
C376 H389 0.961 . S
C376 H390 0.961 . S
C377 C374 1.539 . S
C377 H391 0.958 . S
C377 H392 0.961 . S
C377 H393 0.960 . S
H378 C362 0.931 . S
H379 C367 0.929 . S
H380 C368 0.960 . S
H381 C368 0.962 . S
H382 C368 0.960 . S
H383 C369 0.961 . S
H384 C369 0.961 . S
H385 C369 0.961 . S
H386 C370 0.931 . S
H387 C375 0.930 . S
H388 C376 0.956 . S
H389 C376 0.961 . S
H390 C376 0.961 . S
H391 C377 0.958 . S
H392 C377 0.961 . S
H393 C377 0.960 . S
C394 C395 1.391 . S
C394 C396 1.394 . S
C394 H410 0.931 . S
C395 C394 1.391 . S
C395 C399 1.376 . S
C396 C394 1.394 . S
C396 C397 1.369 . S
C396 C400 1.531 . S
C397 C396 1.369 . S
C397 C398 1.410 . S
C397 C405 1.503 . S
C398 C397 1.410 . S
C398 C399 1.392 . S
C398 C401 1.511 . S
C399 C395 1.376 . S
C399 C398 1.392 . S
C399 H411 0.929 . S
C400 C396 1.531 . S
C400 H412 0.960 . S
C400 H413 0.962 . S
C400 H414 0.960 . S
C401 C398 1.511 . S
C401 H415 0.961 . S
C401 H416 0.961 . S
C401 H417 0.961 . S
C402 C403 1.370 . S
C402 C404 1.363 . S
C402 H418 0.931 . S
C403 C402 1.370 . S
C403 C407 1.408 . S
C404 C402 1.363 . S
C404 C405 1.370 . S
C404 C408 1.524 . S
C405 C397 1.503 . S
C405 C404 1.370 . S
C405 C406 1.403 . S
C406 C405 1.403 . S
C406 C407 1.404 . S
C406 C409 1.539 . S
C407 C403 1.408 . S
C407 C406 1.404 . S
C407 H419 0.930 . S
C408 C404 1.524 . S
C408 H420 0.956 . S
C408 H421 0.961 . S
C408 H422 0.961 . S
C409 C406 1.539 . S
C409 H423 0.958 . S
C409 H424 0.961 . S
C409 H425 0.960 . S
H410 C394 0.931 . S
H411 C399 0.929 . S
H412 C400 0.960 . S
H413 C400 0.962 . S
H414 C400 0.960 . S
H415 C401 0.961 . S
H416 C401 0.961 . S
H417 C401 0.961 . S
H418 C402 0.931 . S
H419 C407 0.930 . S
H420 C408 0.956 . S
H421 C408 0.961 . S
H422 C408 0.961 . S
H423 C409 0.958 . S
H424 C409 0.961 . S
H425 C409 0.960 . S
C426 C427 1.391 . S
C426 C428 1.394 . S
C426 H442 0.931 . S
C427 C426 1.391 . S
C427 C431 1.376 . S
C428 C426 1.394 . S
C428 C429 1.369 . S
C428 C432 1.531 . S
C429 C428 1.369 . S
C429 C430 1.410 . S
C429 C437 1.503 . S
C430 C429 1.410 . S
C430 C431 1.392 . S
C430 C433 1.511 . S
C431 C427 1.376 . S
C431 C430 1.392 . S
C431 H443 0.929 . S
C432 C428 1.531 . S
C432 H444 0.960 . S
C432 H445 0.962 . S
C432 H446 0.960 . S
C433 C430 1.511 . S
C433 H447 0.961 . S
C433 H448 0.961 . S
C433 H449 0.961 . S
C434 C435 1.370 . S
C434 C436 1.363 . S
C434 H450 0.931 . S
C435 C434 1.370 . S
C435 C439 1.408 . S
C436 C434 1.363 . S
C436 C437 1.370 . S
C436 C440 1.524 . S
C437 C429 1.503 . S
C437 C436 1.370 . S
C437 C438 1.403 . S
C438 C437 1.403 . S
C438 C439 1.404 . S
C438 C441 1.539 . S
C439 C435 1.408 . S
C439 C438 1.404 . S
C439 H451 0.930 . S
C440 C436 1.524 . S
C440 H452 0.956 . S
C440 H453 0.961 . S
C440 H454 0.961 . S
C441 C438 1.539 . S
C441 H455 0.958 . S
C441 H456 0.961 . S
C441 H457 0.960 . S
H442 C426 0.931 . S
H443 C431 0.929 . S
H444 C432 0.960 . S
H445 C432 0.962 . S
H446 C432 0.960 . S
H447 C433 0.961 . S
H448 C433 0.961 . S
H449 C433 0.961 . S
H450 C434 0.931 . S
H451 C439 0.930 . S
H452 C440 0.956 . S
H453 C440 0.961 . S
H454 C440 0.961 . S
H455 C441 0.958 . S
H456 C441 0.961 . S
H457 C441 0.960 . S
C458 C459 1.391 . S
C458 C460 1.394 . S
C458 H474 0.931 . S
C459 C458 1.391 . S
C459 C463 1.376 . S
C460 C458 1.394 . S
C460 C461 1.369 . S
C460 C464 1.531 . S
C461 C460 1.369 . S
C461 C462 1.410 . S
C461 C469 1.503 . S
C462 C461 1.410 . S
C462 C463 1.392 . S
C462 C465 1.511 . S
C463 C459 1.376 . S
C463 C462 1.392 . S
C463 H475 0.929 . S
C464 C460 1.531 . S
C464 H476 0.960 . S
C464 H477 0.962 . S
C464 H478 0.960 . S
C465 C462 1.511 . S
C465 H479 0.961 . S
C465 H480 0.961 . S
C465 H481 0.961 . S
C466 C467 1.370 . S
C466 C468 1.363 . S
C466 H482 0.931 . S
C467 C466 1.370 . S
C467 C471 1.408 . S
C468 C466 1.363 . S
C468 C469 1.370 . S
C468 C472 1.524 . S
C469 C461 1.503 . S
C469 C468 1.370 . S
C469 C470 1.403 . S
C470 C469 1.403 . S
C470 C471 1.404 . S
C470 C473 1.539 . S
C471 C467 1.408 . S
C471 C470 1.404 . S
C471 H483 0.930 . S
C472 C468 1.524 . S
C472 H484 0.956 . S
C472 H485 0.961 . S
C472 H486 0.961 . S
C473 C470 1.539 . S
C473 H487 0.958 . S
C473 H488 0.961 . S
C473 H489 0.960 . S
H474 C458 0.931 . S
H475 C463 0.929 . S
H476 C464 0.960 . S
H477 C464 0.962 . S
H478 C464 0.960 . S
H479 C465 0.961 . S
H480 C465 0.961 . S
H481 C465 0.961 . S
H482 C466 0.931 . S
H483 C471 0.930 . S
H484 C472 0.956 . S
H485 C472 0.961 . S
H486 C472 0.961 . S
H487 C473 0.958 . S
H488 C473 0.961 . S
H489 C473 0.960 . S
C490 C491 1.391 . S
C490 C492 1.394 . S
C490 H506 0.931 . S
C491 C490 1.391 . S
C491 C495 1.376 . S
C492 C490 1.394 . S
C492 C493 1.369 . S
C492 C496 1.531 . S
C493 C492 1.369 . S
C493 C494 1.410 . S
C493 C501 1.503 . S
C494 C493 1.410 . S
C494 C495 1.392 . S
C494 C497 1.511 . S
C495 C491 1.376 . S
C495 C494 1.392 . S
C495 H507 0.929 . S
C496 C492 1.531 . S
C496 H508 0.960 . S
C496 H509 0.962 . S
C496 H510 0.960 . S
C497 C494 1.511 . S
C497 H511 0.961 . S
C497 H512 0.961 . S
C497 H513 0.961 . S
C498 C499 1.370 . S
C498 C500 1.363 . S
C498 H514 0.931 . S
C499 C498 1.370 . S
C499 C503 1.408 . S
C500 C498 1.363 . S
C500 C501 1.370 . S
C500 C504 1.524 . S
C501 C493 1.503 . S
C501 C500 1.370 . S
C501 C502 1.403 . S
C502 C501 1.403 . S
C502 C503 1.404 . S
C502 C505 1.539 . S
C503 C499 1.408 . S
C503 C502 1.404 . S
C503 H515 0.930 . S
C504 C500 1.524 . S
C504 H516 0.956 . S
C504 H517 0.961 . S
C504 H518 0.961 . S
C505 C502 1.539 . S
C505 H519 0.958 . S
C505 H520 0.961 . S
C505 H521 0.960 . S
H506 C490 0.931 . S
H507 C495 0.929 . S
H508 C496 0.960 . S
H509 C496 0.962 . S
H510 C496 0.960 . S
H511 C497 0.961 . S
H512 C497 0.961 . S
H513 C497 0.961 . S
H514 C498 0.931 . S
H515 C503 0.930 . S
H516 C504 0.956 . S
H517 C504 0.961 . S
H518 C504 0.961 . S
H519 C505 0.958 . S
H520 C505 0.961 . S
H521 C505 0.960 . S
C522 C523 1.391 . S
C522 C524 1.394 . S
C522 H538 0.931 . S
C523 C522 1.391 . S
C523 C527 1.376 . S
C524 C522 1.394 . S
C524 C525 1.369 . S
C524 C528 1.531 . S
C525 C524 1.369 . S
C525 C526 1.410 . S
C525 C533 1.503 . S
C526 C525 1.410 . S
C526 C527 1.392 . S
C526 C529 1.511 . S
C527 C523 1.376 . S
C527 C526 1.392 . S
C527 H539 0.929 . S
C528 C524 1.531 . S
C528 H540 0.960 . S
C528 H541 0.962 . S
C528 H542 0.960 . S
C529 C526 1.511 . S
C529 H543 0.961 . S
C529 H544 0.961 . S
C529 H545 0.961 . S
C530 C531 1.370 . S
C530 C532 1.363 . S
C530 H546 0.931 . S
C531 C530 1.370 . S
C531 C535 1.408 . S
C532 C530 1.363 . S
C532 C533 1.370 . S
C532 C536 1.524 . S
C533 C525 1.503 . S
C533 C532 1.370 . S
C533 C534 1.403 . S
C534 C533 1.403 . S
C534 C535 1.404 . S
C534 C537 1.539 . S
C535 C531 1.408 . S
C535 C534 1.404 . S
C535 H547 0.930 . S
C536 C532 1.524 . S
C536 H548 0.956 . S
C536 H549 0.961 . S
C536 H550 0.961 . S
C537 C534 1.539 . S
C537 H551 0.958 . S
C537 H552 0.961 . S
C537 H553 0.960 . S
H538 C522 0.931 . S
H539 C527 0.929 . S
H540 C528 0.960 . S
H541 C528 0.962 . S
H542 C528 0.960 . S
H543 C529 0.961 . S
H544 C529 0.961 . S
H545 C529 0.961 . S
H546 C530 0.931 . S
H547 C535 0.930 . S
H548 C536 0.956 . S
H549 C536 0.961 . S
H550 C536 0.961 . S
H551 C537 0.958 . S
H552 C537 0.961 . S
H553 C537 0.960 . S
C554 C555 1.391 . S
C554 C556 1.394 . S
C554 H570 0.931 . S
C555 C554 1.391 . S
C555 C559 1.376 . S
C556 C554 1.394 . S
C556 C557 1.369 . S
C556 C560 1.531 . S
C557 C556 1.369 . S
C557 C558 1.410 . S
C557 C565 1.503 . S
C558 C557 1.410 . S
C558 C559 1.392 . S
C558 C561 1.511 . S
C559 C555 1.376 . S
C559 C558 1.392 . S
C559 H571 0.929 . S
C560 C556 1.531 . S
C560 H572 0.960 . S
C560 H573 0.962 . S
C560 H574 0.960 . S
C561 C558 1.511 . S
C561 H575 0.961 . S
C561 H576 0.961 . S
C561 H577 0.961 . S
C562 C563 1.370 . S
C562 C564 1.363 . S
C562 H578 0.931 . S
C563 C562 1.370 . S
C563 C567 1.408 . S
C564 C562 1.363 . S
C564 C565 1.370 . S
C564 C568 1.524 . S
C565 C557 1.503 . S
C565 C564 1.370 . S
C565 C566 1.403 . S
C566 C565 1.403 . S
C566 C567 1.404 . S
C566 C569 1.539 . S
C567 C563 1.408 . S
C567 C566 1.404 . S
C567 H579 0.930 . S
C568 C564 1.524 . S
C568 H580 0.956 . S
C568 H581 0.961 . S
C568 H582 0.961 . S
C569 C566 1.539 . S
C569 H583 0.958 . S
C569 H584 0.961 . S
C569 H585 0.960 . S
H570 C554 0.931 . S
H571 C559 0.929 . S
H572 C560 0.960 . S
H573 C560 0.962 . S
H574 C560 0.960 . S
H575 C561 0.961 . S
H576 C561 0.961 . S
H577 C561 0.961 . S
H578 C562 0.931 . S
H579 C567 0.930 . S
H580 C568 0.956 . S
H581 C568 0.961 . S
H582 C568 0.961 . S
H583 C569 0.958 . S
H584 C569 0.961 . S
H585 C569 0.960 . S
C586 C587 1.391 . S
C586 C588 1.394 . S
C586 H602 0.931 . S
C587 C586 1.391 . S
C587 C591 1.376 . S
C588 C586 1.394 . S
C588 C589 1.369 . S
C588 C592 1.531 . S
C589 C588 1.369 . S
C589 C590 1.410 . S
C589 C597 1.503 . S
C590 C589 1.410 . S
C590 C591 1.392 . S
C590 C593 1.511 . S
C591 C587 1.376 . S
C591 C590 1.392 . S
C591 H603 0.929 . S
C592 C588 1.531 . S
C592 H604 0.960 . S
C592 H605 0.962 . S
C592 H606 0.960 . S
C593 C590 1.511 . S
C593 H607 0.961 . S
C593 H608 0.961 . S
C593 H609 0.961 . S
C594 C595 1.370 . S
C594 C596 1.363 . S
C594 H610 0.931 . S
C595 C594 1.370 . S
C595 C599 1.408 . S
C596 C594 1.363 . S
C596 C597 1.370 . S
C596 C600 1.524 . S
C597 C589 1.503 . S
C597 C596 1.370 . S
C597 C598 1.403 . S
C598 C597 1.403 . S
C598 C599 1.404 . S
C598 C601 1.539 . S
C599 C595 1.408 . S
C599 C598 1.404 . S
C599 H611 0.930 . S
C600 C596 1.524 . S
C600 H612 0.956 . S
C600 H613 0.961 . S
C600 H614 0.961 . S
C601 C598 1.539 . S
C601 H615 0.958 . S
C601 H616 0.961 . S
C601 H617 0.960 . S
H602 C586 0.931 . S
H603 C591 0.929 . S
H604 C592 0.960 . S
H605 C592 0.962 . S
H606 C592 0.960 . S
H607 C593 0.961 . S
H608 C593 0.961 . S
H609 C593 0.961 . S
H610 C594 0.931 . S
H611 C599 0.930 . S
H612 C600 0.956 . S
H613 C600 0.961 . S
H614 C600 0.961 . S
H615 C601 0.958 . S
H616 C601 0.961 . S
H617 C601 0.960 . S
C618 C619 1.391 . S
C618 C620 1.394 . S
C618 H634 0.931 . S
C619 C618 1.391 . S
C619 C623 1.376 . S
C620 C618 1.394 . S
C620 C621 1.369 . S
C620 C624 1.531 . S
C621 C620 1.369 . S
C621 C622 1.410 . S
C621 C629 1.503 . S
C622 C621 1.410 . S
C622 C623 1.392 . S
C622 C625 1.511 . S
C623 C619 1.376 . S
C623 C622 1.392 . S
C623 H635 0.929 . S
C624 C620 1.531 . S
C624 H636 0.960 . S
C624 H637 0.962 . S
C624 H638 0.960 . S
C625 C622 1.511 . S
C625 H639 0.961 . S
C625 H640 0.961 . S
C625 H641 0.961 . S
C626 C627 1.370 . S
C626 C628 1.363 . S
C626 H642 0.931 . S
C627 C626 1.370 . S
C627 C631 1.408 . S
C628 C626 1.363 . S
C628 C629 1.370 . S
C628 C632 1.524 . S
C629 C621 1.503 . S
C629 C628 1.370 . S
C629 C630 1.403 . S
C630 C629 1.403 . S
C630 C631 1.404 . S
C630 C633 1.539 . S
C631 C627 1.408 . S
C631 C630 1.404 . S
C631 H643 0.930 . S
C632 C628 1.524 . S
C632 H644 0.956 . S
C632 H645 0.961 . S
C632 H646 0.961 . S
C633 C630 1.539 . S
C633 H647 0.958 . S
C633 H648 0.961 . S
C633 H649 0.960 . S
H634 C618 0.931 . S
H635 C623 0.929 . S
H636 C624 0.960 . S
H637 C624 0.962 . S
H638 C624 0.960 . S
H639 C625 0.961 . S
H640 C625 0.961 . S
H641 C625 0.961 . S
H642 C626 0.931 . S
H643 C631 0.930 . S
H644 C632 0.956 . S
H645 C632 0.961 . S
H646 C632 0.961 . S
H647 C633 0.958 . S
H648 C633 0.961 . S
H649 C633 0.960 . S
C650 C651 1.391 . S
C650 C652 1.394 . S
C650 H666 0.931 . S
C651 C650 1.391 . S
C651 C655 1.376 . S
C652 C650 1.394 . S
C652 C653 1.369 . S
C652 C656 1.531 . S
C653 C652 1.369 . S
C653 C654 1.410 . S
C653 C661 1.503 . S
C654 C653 1.410 . S
C654 C655 1.392 . S
C654 C657 1.511 . S
C655 C651 1.376 . S
C655 C654 1.392 . S
C655 H667 0.929 . S
C656 C652 1.531 . S
C656 H668 0.960 . S
C656 H669 0.962 . S
C656 H670 0.960 . S
C657 C654 1.511 . S
C657 H671 0.961 . S
C657 H672 0.961 . S
C657 H673 0.961 . S
C658 C659 1.370 . S
C658 C660 1.363 . S
C658 H674 0.931 . S
C659 C658 1.370 . S
C659 C663 1.408 . S
C660 C658 1.363 . S
C660 C661 1.370 . S
C660 C664 1.524 . S
C661 C653 1.503 . S
C661 C660 1.370 . S
C661 C662 1.403 . S
C662 C661 1.403 . S
C662 C663 1.404 . S
C662 C665 1.539 . S
C663 C659 1.408 . S
C663 C662 1.404 . S
C663 H675 0.930 . S
C664 C660 1.524 . S
C664 H676 0.956 . S
C664 H677 0.961 . S
C664 H678 0.961 . S
C665 C662 1.539 . S
C665 H679 0.958 . S
C665 H680 0.961 . S
C665 H681 0.960 . S
H666 C650 0.931 . S
H667 C655 0.929 . S
H668 C656 0.960 . S
H669 C656 0.962 . S
H670 C656 0.960 . S
H671 C657 0.961 . S
H672 C657 0.961 . S
H673 C657 0.961 . S
H674 C658 0.931 . S
H675 C663 0.930 . S
H676 C664 0.956 . S
H677 C664 0.961 . S
H678 C664 0.961 . S
H679 C665 0.958 . S
H680 C665 0.961 . S
H681 C665 0.960 . S
C682 C683 1.391 . S
C682 C684 1.394 . S
C682 H698 0.931 . S
C683 C682 1.391 . S
C683 C687 1.376 . S
C684 C682 1.394 . S
C684 C685 1.369 . S
C684 C688 1.531 . S
C685 C684 1.369 . S
C685 C686 1.410 . S
C685 C693 1.503 . S
C686 C685 1.410 . S
C686 C687 1.392 . S
C686 C689 1.511 . S
C687 C683 1.376 . S
C687 C686 1.392 . S
C687 H699 0.929 . S
C688 C684 1.531 . S
C688 H700 0.960 . S
C688 H701 0.962 . S
C688 H702 0.960 . S
C689 C686 1.511 . S
C689 H703 0.961 . S
C689 H704 0.961 . S
C689 H705 0.961 . S
C690 C691 1.370 . S
C690 C692 1.363 . S
C690 H706 0.931 . S
C691 C690 1.370 . S
C691 C695 1.408 . S
C692 C690 1.363 . S
C692 C693 1.370 . S
C692 C696 1.524 . S
C693 C685 1.503 . S
C693 C692 1.370 . S
C693 C694 1.403 . S
C694 C693 1.403 . S
C694 C695 1.404 . S
C694 C697 1.539 . S
C695 C691 1.408 . S
C695 C694 1.404 . S
C695 H707 0.930 . S
C696 C692 1.524 . S
C696 H708 0.956 . S
C696 H709 0.961 . S
C696 H710 0.961 . S
C697 C694 1.539 . S
C697 H711 0.958 . S
C697 H712 0.961 . S
C697 H713 0.960 . S
H698 C682 0.931 . S
H699 C687 0.929 . S
H700 C688 0.960 . S
H701 C688 0.962 . S
H702 C688 0.960 . S
H703 C689 0.961 . S
H704 C689 0.961 . S
H705 C689 0.961 . S
H706 C690 0.931 . S
H707 C695 0.930 . S
H708 C696 0.956 . S
H709 C696 0.961 . S
H710 C696 0.961 . S
H711 C697 0.958 . S
H712 C697 0.961 . S
H713 C697 0.960 . S
C714 C715 1.391 . S
C714 C716 1.394 . S
C714 H730 0.931 . S
C715 C714 1.391 . S
C715 C719 1.376 . S
C716 C714 1.394 . S
C716 C717 1.369 . S
C716 C720 1.531 . S
C717 C716 1.369 . S
C717 C718 1.410 . S
C717 C725 1.512 . S
C718 C717 1.410 . S
C718 C719 1.392 . S
C718 C721 1.511 1_455 S
C719 C715 1.376 . S
C719 C718 1.392 . S
C719 H731 0.929 . S
C720 C716 1.531 . S
C720 H732 0.960 . S
C720 H733 0.962 . S
C720 H734 0.960 . S
C721 C718 1.511 1_655 S
C721 H735 0.961 . S
C721 H736 0.961 . S
C721 H737 0.961 1_655 S
C722 C723 1.370 . S
C722 C724 1.363 . S
C722 H738 0.931 . S
C723 C722 1.370 . S
C723 C727 1.408 1_655 S
C724 C722 1.363 . S
C724 C725 1.359 1_655 S
C724 C728 1.524 . S
C725 C717 1.512 . S
C725 C724 1.359 1_455 S
C725 C726 1.406 . S
C726 C725 1.406 . S
C726 C727 1.404 . S
C726 C729 1.539 . S
C727 C723 1.408 1_455 S
C727 C726 1.404 . S
C727 H739 0.930 . S
C728 C724 1.524 . S
C728 H740 0.956 . S
C728 H741 0.961 . S
C728 H742 0.961 . S
C729 C726 1.539 . S
C729 H743 0.958 . S
C729 H744 0.961 . S
C729 H745 0.960 . S
H730 C714 0.931 . S
H731 C719 0.929 . S
H732 C720 0.960 . S
H733 C720 0.962 . S
H734 C720 0.960 . S
H735 C721 0.961 . S
H736 C721 0.961 . S
H737 C721 0.961 1_455 S
H738 C722 0.931 . S
H739 C727 0.930 . S
H740 C728 0.956 . S
H741 C728 0.961 . S
H742 C728 0.961 . S
H743 C729 0.958 . S
H744 C729 0.961 . S
H745 C729 0.960 . S
C746 C747 1.391 . S
C746 C748 1.394 . S
C746 H762 0.931 . S
C747 C746 1.391 . S
C747 C751 1.376 . S
C748 C746 1.394 . S
C748 C749 1.369 . S
C748 C752 1.531 . S
C749 C748 1.369 . S
C749 C750 1.410 . S
C749 C757 1.503 . S
C750 C749 1.410 . S
C750 C751 1.392 . S
C750 C753 1.511 . S
C751 C747 1.376 . S
C751 C750 1.392 . S
C751 H763 0.929 . S
C752 C748 1.531 . S
C752 H764 0.960 . S
C752 H765 0.962 . S
C752 H766 0.960 . S
C753 C750 1.511 . S
C753 H767 0.961 . S
C753 H768 0.961 . S
C753 H769 0.961 . S
C754 C755 1.370 . S
C754 C756 1.363 . S
C754 H770 0.931 . S
C755 C754 1.370 . S
C755 C759 1.408 . S
C756 C754 1.363 . S
C756 C757 1.370 . S
C756 C760 1.524 . S
C757 C749 1.503 . S
C757 C756 1.370 . S
C757 C758 1.403 . S
C758 C757 1.403 . S
C758 C759 1.404 . S
C758 C761 1.539 . S
C759 C755 1.408 . S
C759 C758 1.404 . S
C759 H771 0.930 . S
C760 C756 1.524 . S
C760 H772 0.956 . S
C760 H773 0.961 . S
C760 H774 0.961 . S
C761 C758 1.539 . S
C761 H775 0.958 . S
C761 H776 0.961 . S
C761 H777 0.960 . S
H762 C746 0.931 . S
H763 C751 0.929 . S
H764 C752 0.960 . S
H765 C752 0.962 . S
H766 C752 0.960 . S
H767 C753 0.961 . S
H768 C753 0.961 . S
H769 C753 0.961 . S
H770 C754 0.931 . S
H771 C759 0.930 . S
H772 C760 0.956 . S
H773 C760 0.961 . S
H774 C760 0.961 . S
H775 C761 0.958 . S
H776 C761 0.961 . S
H777 C761 0.960 . S
C778 C779 1.391 1_565 S
C778 C780 1.394 . S
C778 H794 0.931 . S
C779 C778 1.391 1_545 S
C779 C783 1.376 . S
C780 C778 1.394 . S
C780 C781 1.341 1_565 S
C780 C784 1.531 . S
C781 C780 1.341 1_545 S
C781 C782 1.435 . S
C781 C789 1.507 1_545 S
C782 C781 1.435 . S
C782 C783 1.392 . S
C782 C785 1.511 . S
C783 C779 1.376 . S
C783 C782 1.392 . S
C783 H795 0.929 . S
C784 C780 1.531 . S
C784 H796 0.960 . S
C784 H797 0.962 . S
C784 H798 0.960 . S
C785 C782 1.511 . S
C785 H799 0.961 . S
C785 H800 0.961 . S
C785 H801 0.961 . S
C786 C787 1.370 . S
C786 C788 1.363 1_565 S
C786 H802 0.931 1_565 S
C787 C786 1.370 . S
C787 C791 1.408 . S
C788 C786 1.363 1_545 S
C788 C789 1.370 1_545 S
C788 C792 1.524 . S
C789 C781 1.507 1_565 S
C789 C788 1.370 1_565 S
C789 C790 1.403 . S
C790 C789 1.403 . S
C790 C791 1.404 . S
C790 C793 1.539 . S
C791 C787 1.408 . S
C791 C790 1.404 . S
C791 H803 0.930 . S
C792 C788 1.524 . S
C792 H804 0.956 . S
C792 H805 0.961 . S
C792 H806 0.961 . S
C793 C790 1.539 . S
C793 H807 0.958 . S
C793 H808 0.961 . S
C793 H809 0.960 . S
H794 C778 0.931 . S
H795 C783 0.929 . S
H796 C784 0.960 . S
H797 C784 0.962 . S
H798 C784 0.960 . S
H799 C785 0.961 . S
H800 C785 0.961 . S
H801 C785 0.961 . S
H802 C786 0.931 1_545 S
H803 C791 0.930 . S
H804 C792 0.956 . S
H805 C792 0.961 . S
H806 C792 0.961 . S
H807 C793 0.958 . S
H808 C793 0.961 . S
H809 C793 0.960 . S
C810 C811 1.391 . S
C810 C812 1.394 1_554 S
C810 H826 0.937 1_565 S
C811 C810 1.391 . S
C811 C815 1.376 . S
C812 C810 1.394 1_556 S
C812 C813 1.377 . S
C812 C816 1.531 . S
C813 C812 1.377 . S
C813 C814 1.387 1_556 S
C813 C821 1.515 . S
C814 C813 1.387 1_554 S
C814 C815 1.392 . S
C814 C817 1.511 . S
C815 C811 1.376 . S
C815 C814 1.392 . S
C815 H827 0.929 . S
C816 C812 1.531 . S
C816 H828 0.960 . S
C816 H829 0.962 . S
C816 H830 0.960 . S
C817 C814 1.511 . S
C817 H831 0.961 . S
C817 H832 0.961 . S
C817 H833 0.961 . S
C818 C819 1.375 . S
C818 C820 1.362 1_556 S
C818 H834 0.928 1_556 S
C819 C818 1.375 . S
C819 C823 1.408 . S
C820 C818 1.362 1_554 S
C820 C821 1.370 1_554 S
C820 C824 1.524 . S
C821 C813 1.515 . S
C821 C820 1.370 1_556 S
C821 C822 1.403 . S
C822 C821 1.403 . S
C822 C823 1.404 . S
C822 C825 1.539 . S
C823 C819 1.408 . S
C823 C822 1.404 . S
C823 H835 0.930 . S
C824 C820 1.524 . S
C824 H836 0.956 . S
C824 H837 0.961 . S
C824 H838 0.961 . S
C825 C822 1.539 . S
C825 H839 0.958 . S
C825 H840 0.961 . S
C825 H841 0.960 . S
H826 C810 0.937 1_545 S
H827 C815 0.929 . S
H828 C816 0.960 . S
H829 C816 0.962 . S
H830 C816 0.960 . S
H831 C817 0.961 . S
H832 C817 0.961 . S
H833 C817 0.961 . S
H834 C818 0.928 1_554 S
H835 C823 0.930 . S
H836 C824 0.956 . S
H837 C824 0.961 . S
H838 C824 0.961 . S
H839 C825 0.958 . S
H840 C825 0.961 . S
H841 C825 0.960 . S
C842 C843 1.391 . S
C842 C844 1.394 1_554 S
C842 H858 0.931 1_554 S
C843 C842 1.391 . S
C843 C847 1.376 . S
C844 C842 1.394 1_556 S
C844 C845 1.369 1_556 S
C844 C848 1.531 . S
C845 C844 1.369 1_554 S
C845 C846 1.410 . S
C845 C853 1.503 1_554 S
C846 C845 1.410 . S
C846 C847 1.392 . S
C846 C849 1.511 . S
C847 C843 1.376 . S
C847 C846 1.392 . S
C847 H859 0.929 . S
C848 C844 1.531 . S
C848 H860 0.960 . S
C848 H861 0.962 . S
C848 H862 0.960 . S
C849 C846 1.511 . S
C849 H863 0.961 . S
C849 H864 0.961 . S
C849 H865 0.961 . S
C850 C851 1.370 . S
C850 C852 1.363 . S
C850 H866 0.931 . S
C851 C850 1.370 . S
C851 C855 1.408 . S
C852 C850 1.363 . S
C852 C853 1.370 . S
C852 C856 1.524 . S
C853 C845 1.503 1_556 S
C853 C852 1.370 . S
C853 C854 1.403 1_556 S
C854 C853 1.403 1_554 S
C854 C855 1.404 1_554 S
C854 C857 1.539 . S
C855 C851 1.408 . S
C855 C854 1.404 1_556 S
C855 H867 0.938 . S
C856 C852 1.524 . S
C856 H868 0.956 . S
C856 H869 0.961 . S
C856 H870 0.961 . S
C857 C854 1.539 . S
C857 H871 0.958 . S
C857 H872 0.961 . S
C857 H873 0.960 . S
H858 C842 0.931 1_556 S
H859 C847 0.929 . S
H860 C848 0.960 . S
H861 C848 0.962 . S
H862 C848 0.960 . S
H863 C849 0.961 . S
H864 C849 0.961 . S
H865 C849 0.961 . S
H866 C850 0.931 . S
H867 C855 0.938 . S
H868 C856 0.956 . S
H869 C856 0.961 . S
H870 C856 0.961 . S
H871 C857 0.958 . S
H872 C857 0.961 . S
H873 C857 0.960 . S
C874 C875 1.391 . S
C874 C876 1.394 . S
C874 H890 0.931 . S
C875 C874 1.391 . S
C875 C879 1.376 . S
C876 C874 1.394 . S
C876 C877 1.369 . S
C876 C880 1.531 . S
C877 C876 1.369 . S
C877 C878 1.410 . S
C877 C885 1.488 1_554 S
C878 C877 1.410 . S
C878 C879 1.392 . S
C878 C881 1.511 . S
C879 C875 1.376 . S
C879 C878 1.392 . S
C879 H891 0.929 . S
C880 C876 1.531 . S
C880 H892 0.960 . S
C880 H893 0.962 1_554 S
C880 H894 0.960 . S
C881 C878 1.511 . S
C881 H895 0.961 . S
C881 H896 0.961 1_554 S
C881 H897 0.961 . S
C882 C883 1.370 . S
C882 C884 1.363 . S
C882 H898 0.931 . S
C883 C882 1.370 . S
C883 C887 1.408 1_556 S
C884 C882 1.363 . S
C884 C885 1.411 . S
C884 C888 1.524 . S
C885 C877 1.488 1_556 S
C885 C884 1.411 . S
C885 C886 1.378 1_556 S
C886 C885 1.378 1_554 S
C886 C887 1.404 . S
C886 C889 1.539 . S
C887 C883 1.408 1_554 S
C887 C886 1.404 . S
C887 H899 0.930 . S
C888 C884 1.524 . S
C888 H900 0.956 . S
C888 H901 0.961 . S
C888 H902 0.961 . S
C889 C886 1.539 . S
C889 H903 0.958 . S
C889 H904 0.961 . S
C889 H905 0.960 . S
H890 C874 0.931 . S
H891 C879 0.929 . S
H892 C880 0.960 . S
H893 C880 0.962 1_556 S
H894 C880 0.960 . S
H895 C881 0.961 . S
H896 C881 0.961 1_556 S
H897 C881 0.961 . S
H898 C882 0.931 . S
H899 C887 0.930 . S
H900 C888 0.956 . S
H901 C888 0.961 . S
H902 C888 0.961 . S
H903 C889 0.958 . S
H904 C889 0.961 . S
H905 C889 0.960 . S
C906 C907 1.391 1_554 S
C906 C908 1.394 . S
C906 H922 0.931 . S
C907 C906 1.391 1_556 S
C907 C911 1.376 . S
C908 C906 1.394 . S
C908 C909 1.369 1_554 S
C908 C912 1.531 . S
C909 C908 1.369 1_556 S
C909 C910 1.410 . S
C909 C917 1.503 1_556 S
C910 C909 1.410 . S
C910 C911 1.392 . S
C910 C913 1.511 . S
C911 C907 1.376 . S
C911 C910 1.392 . S
C911 H923 0.929 . S
C912 C908 1.531 . S
C912 H924 0.960 . S
C912 H925 0.962 . S
C912 H926 0.960 . S
C913 C910 1.511 . S
C913 H927 0.961 . S
C913 H928 0.961 . S
C913 H929 0.961 . S
C914 C915 1.370 . S
C914 C916 1.363 . S
C914 H930 0.931 . S
C915 C914 1.370 . S
C915 C919 1.408 . S
C916 C914 1.363 . S
C916 C917 1.370 . S
C916 C920 1.524 . S
C917 C909 1.503 1_554 S
C917 C916 1.370 . S
C917 C918 1.403 . S
C918 C917 1.403 . S
C918 C919 1.404 . S
C918 C921 1.539 1_554 S
C919 C915 1.408 . S
C919 C918 1.404 . S
C919 H931 0.930 . S
C920 C916 1.524 . S
C920 H932 0.956 . S
C920 H933 0.961 1_554 S
C920 H934 0.961 . S
C921 C918 1.539 1_556 S
C921 H935 0.956 1_556 S
C921 H936 0.962 . S
C921 H937 0.961 . S
H922 C906 0.931 . S
H923 C911 0.929 . S
H924 C912 0.960 . S
H925 C912 0.962 . S
H926 C912 0.960 . S
H927 C913 0.961 . S
H928 C913 0.961 . S
H929 C913 0.961 . S
H930 C914 0.931 . S
H931 C919 0.930 . S
H932 C920 0.956 . S
H933 C920 0.961 1_556 S
H934 C920 0.961 . S
H935 C921 0.956 1_554 S
H936 C921 0.962 . S
H937 C921 0.961 . S
C938 C939 1.429 . S
C938 C940 1.381 1_554 S
C938 H954 0.907 1_554 S
C939 C938 1.429 . S
C939 C943 1.376 . S
C940 C938 1.381 1_556 S
C940 C941 1.369 1_556 S
C940 C944 1.531 . S
C941 C940 1.369 1_554 S
C941 C942 1.410 . S
C941 C949 1.503 1_554 S
C942 C941 1.410 . S
C942 C943 1.392 . S
C942 C945 1.511 . S
C943 C939 1.376 . S
C943 C942 1.392 . S
C943 H955 0.929 . S
C944 C940 1.531 . S
C944 H956 0.960 . S
C944 H957 0.962 . S
C944 H958 0.960 . S
C945 C942 1.511 . S
C945 H959 0.961 . S
C945 H960 0.961 . S
C945 H961 0.961 . S
C946 C947 1.370 . S
C946 C948 1.363 . S
C946 H962 0.931 . S
C947 C946 1.370 . S
C947 C951 1.408 . S
C948 C946 1.363 . S
C948 C949 1.370 . S
C948 C952 1.524 . S
C949 C941 1.503 1_556 S
C949 C948 1.370 . S
C949 C950 1.403 1_556 S
C950 C949 1.403 1_554 S
C950 C951 1.404 1_554 S
C950 C953 1.539 . S
C951 C947 1.408 . S
C951 C950 1.404 1_556 S
C951 H963 0.930 1_655 S
C952 C948 1.524 . S
C952 H964 0.956 . S
C952 H965 0.961 . S
C952 H966 0.961 . S
C953 C950 1.539 . S
C953 H967 0.958 . S
C953 H968 0.961 . S
C953 H969 0.960 . S
H954 C938 0.907 1_556 S
H955 C943 0.929 . S
H956 C944 0.960 . S
H957 C944 0.962 . S
H958 C944 0.960 . S
H959 C945 0.961 . S
H960 C945 0.961 . S
H961 C945 0.961 . S
H962 C946 0.931 . S
H963 C951 0.930 1_455 S
H964 C952 0.956 . S
H965 C952 0.961 . S
H966 C952 0.961 . S
H967 C953 0.958 . S
H968 C953 0.961 . S
H969 C953 0.960 . S
C970 C971 1.391 . S
C970 C972 1.394 . S
C970 H986 0.931 . S
C971 C970 1.391 . S
C971 C975 1.376 . S
C972 C970 1.394 . S
C972 C973 1.369 . S
C972 C976 1.531 . S
C973 C972 1.369 . S
C973 C974 1.410 . S
C973 C981 1.488 1_556 S
C974 C973 1.410 . S
C974 C975 1.392 . S
C974 C977 1.511 . S
C975 C971 1.376 . S
C975 C974 1.392 . S
C975 H987 0.929 . S
C976 C972 1.531 . S
C976 H988 0.960 . S
C976 H989 0.962 1_556 S
C976 H990 0.960 . S
C977 C974 1.511 . S
C977 H991 0.961 . S
C977 H992 0.961 1_556 S
C977 H993 0.961 . S
C978 C979 1.370 . S
C978 C980 1.363 . S
C978 H994 0.931 . S
C979 C978 1.370 . S
C979 C983 1.408 1_554 S
C980 C978 1.363 . S
C980 C981 1.411 . S
C980 C984 1.524 . S
C981 C973 1.488 1_554 S
C981 C980 1.411 . S
C981 C982 1.378 1_554 S
C982 C981 1.378 1_556 S
C982 C983 1.404 . S
C982 C985 1.539 . S
C983 C979 1.408 1_556 S
C983 C982 1.404 . S
C983 H995 0.930 . S
C984 C980 1.524 . S
C984 H996 0.956 . S
C984 H997 0.961 . S
C984 H998 0.961 . S
C985 C982 1.539 . S
C985 H999 0.958 . S
C985 H1000 0.961 . S
C985 H1001 0.960 . S
H986 C970 0.931 . S
H987 C975 0.929 . S
H988 C976 0.960 . S
H989 C976 0.962 1_554 S
H990 C976 0.960 . S
H991 C977 0.961 . S
H992 C977 0.961 1_554 S
H993 C977 0.961 . S
H994 C978 0.931 . S
H995 C983 0.930 . S
H996 C984 0.956 . S
H997 C984 0.961 . S
H998 C984 0.961 . S
H999 C985 0.958 . S
H1000 C985 0.961 . S
H1001 C985 0.960 . S
C1002 C1003 1.391 . S
C1002 C1004 1.394 . S
C1002 H1018 0.931 . S
C1003 C1002 1.391 . S
C1003 C1007 1.376 . S
C1004 C1002 1.394 . S
C1004 C1005 1.369 . S
C1004 C1008 1.531 . S
C1005 C1004 1.369 . S
C1005 C1006 1.410 . S
C1005 C1013 1.503 . S
C1006 C1005 1.410 . S
C1006 C1007 1.392 . S
C1006 C1009 1.511 . S
C1007 C1003 1.376 . S
C1007 C1006 1.392 . S
C1007 H1019 0.929 . S
C1008 C1004 1.531 . S
C1008 H1020 0.960 . S
C1008 H1021 0.962 . S
C1008 H1022 0.960 . S
C1009 C1006 1.511 . S
C1009 H1023 0.961 . S
C1009 H1024 0.961 . S
C1009 H1025 0.961 . S
C1010 C1011 1.370 . S
C1010 C1012 1.363 . S
C1010 H1026 0.931 . S
C1011 C1010 1.370 . S
C1011 C1015 1.408 . S
C1012 C1010 1.363 . S
C1012 C1013 1.370 . S
C1012 C1016 1.524 . S
C1013 C1005 1.503 . S
C1013 C1012 1.370 . S
C1013 C1014 1.403 . S
C1014 C1013 1.403 . S
C1014 C1015 1.404 . S
C1014 C1017 1.539 . S
C1015 C1011 1.408 . S
C1015 C1014 1.404 . S
C1015 H1027 0.930 . S
C1016 C1012 1.524 . S
C1016 H1028 0.956 . S
C1016 H1029 0.961 . S
C1016 H1030 0.961 . S
C1017 C1014 1.539 . S
C1017 H1031 0.958 . S
C1017 H1032 0.961 . S
C1017 H1033 0.960 . S
H1018 C1002 0.931 . S
H1019 C1007 0.929 . S
H1020 C1008 0.960 . S
H1021 C1008 0.962 . S
H1022 C1008 0.960 . S
H1023 C1009 0.961 . S
H1024 C1009 0.961 . S
H1025 C1009 0.961 . S
H1026 C1010 0.931 . S
H1027 C1015 0.930 . S
H1028 C1016 0.956 . S
H1029 C1016 0.961 . S
H1030 C1016 0.961 . S
H1031 C1017 0.958 . S
H1032 C1017 0.961 . S
H1033 C1017 0.960 . S
C1034 C1035 1.391 . S
C1034 C1036 1.394 . S
C1034 H1050 0.931 . S
C1035 C1034 1.391 . S
C1035 C1039 1.376 . S
C1036 C1034 1.394 . S
C1036 C1037 1.369 . S
C1036 C1040 1.531 . S
C1037 C1036 1.369 . S
C1037 C1038 1.410 . S
C1037 C1045 1.503 . S
C1038 C1037 1.410 . S
C1038 C1039 1.392 . S
C1038 C1041 1.511 . S
C1039 C1035 1.376 . S
C1039 C1038 1.392 . S
C1039 H1051 0.929 . S
C1040 C1036 1.531 . S
C1040 H1052 0.960 . S
C1040 H1053 0.962 . S
C1040 H1054 0.960 . S
C1041 C1038 1.511 . S
C1041 H1055 0.961 . S
C1041 H1056 0.961 . S
C1041 H1057 0.961 . S
C1042 C1043 1.370 . S
C1042 C1044 1.363 . S
C1042 H1058 0.931 . S
C1043 C1042 1.370 . S
C1043 C1047 1.408 . S
C1044 C1042 1.363 . S
C1044 C1045 1.370 . S
C1044 C1048 1.524 . S
C1045 C1037 1.503 . S
C1045 C1044 1.370 . S
C1045 C1046 1.403 . S
C1046 C1045 1.403 . S
C1046 C1047 1.404 . S
C1046 C1049 1.539 . S
C1047 C1043 1.408 . S
C1047 C1046 1.404 . S
C1047 H1059 0.930 . S
C1048 C1044 1.524 . S
C1048 H1060 0.956 . S
C1048 H1061 0.961 . S
C1048 H1062 0.961 . S
C1049 C1046 1.539 . S
C1049 H1063 0.958 . S
C1049 H1064 0.961 . S
C1049 H1065 0.960 . S
H1050 C1034 0.931 . S
H1051 C1039 0.929 . S
H1052 C1040 0.960 . S
H1053 C1040 0.962 . S
H1054 C1040 0.960 . S
H1055 C1041 0.961 . S
H1056 C1041 0.961 . S
H1057 C1041 0.961 . S
H1058 C1042 0.931 . S
H1059 C1047 0.930 . S
H1060 C1048 0.956 . S
H1061 C1048 0.961 . S
H1062 C1048 0.961 . S
H1063 C1049 0.958 . S
H1064 C1049 0.961 . S
H1065 C1049 0.960 . S
C1066 C1067 1.391 . S
C1066 C1068 1.394 . S
C1066 H1082 0.931 . S
C1067 C1066 1.391 . S
C1067 C1071 1.376 . S
C1068 C1066 1.394 . S
C1068 C1069 1.369 . S
C1068 C1072 1.531 . S
C1069 C1068 1.369 . S
C1069 C1070 1.410 . S
C1069 C1077 1.503 . S
C1070 C1069 1.410 . S
C1070 C1071 1.392 . S
C1070 C1073 1.511 . S
C1071 C1067 1.376 . S
C1071 C1070 1.392 . S
C1071 H1083 0.929 . S
C1072 C1068 1.531 . S
C1072 H1084 0.960 . S
C1072 H1085 0.962 . S
C1072 H1086 0.960 . S
C1073 C1070 1.511 . S
C1073 H1087 0.961 . S
C1073 H1088 0.961 . S
C1073 H1089 0.961 . S
C1074 C1075 1.370 . S
C1074 C1076 1.363 . S
C1074 H1090 0.931 . S
C1075 C1074 1.370 . S
C1075 C1079 1.408 . S
C1076 C1074 1.363 . S
C1076 C1077 1.370 . S
C1076 C1080 1.524 . S
C1077 C1069 1.503 . S
C1077 C1076 1.370 . S
C1077 C1078 1.403 . S
C1078 C1077 1.403 . S
C1078 C1079 1.404 . S
C1078 C1081 1.539 . S
C1079 C1075 1.408 . S
C1079 C1078 1.404 . S
C1079 H1091 0.930 . S
C1080 C1076 1.524 . S
C1080 H1092 0.956 . S
C1080 H1093 0.961 . S
C1080 H1094 0.961 . S
C1081 C1078 1.539 . S
C1081 H1095 0.958 . S
C1081 H1096 0.961 . S
C1081 H1097 0.960 . S
H1082 C1066 0.931 . S
H1083 C1071 0.929 . S
H1084 C1072 0.960 . S
H1085 C1072 0.962 . S
H1086 C1072 0.960 . S
H1087 C1073 0.961 . S
H1088 C1073 0.961 . S
H1089 C1073 0.961 . S
H1090 C1074 0.931 . S
H1091 C1079 0.930 . S
H1092 C1080 0.956 . S
H1093 C1080 0.961 . S
H1094 C1080 0.961 . S
H1095 C1081 0.958 . S
H1096 C1081 0.961 . S
H1097 C1081 0.960 . S
C1098 C1099 1.391 . S
C1098 C1100 1.394 . S
C1098 H1114 0.931 . S
C1099 C1098 1.391 . S
C1099 C1103 1.376 . S
C1100 C1098 1.394 . S
C1100 C1101 1.369 . S
C1100 C1104 1.531 . S
C1101 C1100 1.369 . S
C1101 C1102 1.410 . S
C1101 C1109 1.503 . S
C1102 C1101 1.410 . S
C1102 C1103 1.392 . S
C1102 C1105 1.511 . S
C1103 C1099 1.376 . S
C1103 C1102 1.392 . S
C1103 H1115 0.929 . S
C1104 C1100 1.531 . S
C1104 H1116 0.960 . S
C1104 H1117 0.962 . S
C1104 H1118 0.960 . S
C1105 C1102 1.511 . S
C1105 H1119 0.961 . S
C1105 H1120 0.961 . S
C1105 H1121 0.961 . S
C1106 C1107 1.370 . S
C1106 C1108 1.363 . S
C1106 H1122 0.931 . S
C1107 C1106 1.370 . S
C1107 C1111 1.408 . S
C1108 C1106 1.363 . S
C1108 C1109 1.370 . S
C1108 C1112 1.524 . S
C1109 C1101 1.503 . S
C1109 C1108 1.370 . S
C1109 C1110 1.403 . S
C1110 C1109 1.403 . S
C1110 C1111 1.404 . S
C1110 C1113 1.539 . S
C1111 C1107 1.408 . S
C1111 C1110 1.404 . S
C1111 H1123 0.930 . S
C1112 C1108 1.524 . S
C1112 H1124 0.956 . S
C1112 H1125 0.961 . S
C1112 H1126 0.961 . S
C1113 C1110 1.539 . S
C1113 H1127 0.958 . S
C1113 H1128 0.961 . S
C1113 H1129 0.960 . S
H1114 C1098 0.931 . S
H1115 C1103 0.929 . S
H1116 C1104 0.960 . S
H1117 C1104 0.962 . S
H1118 C1104 0.960 . S
H1119 C1105 0.961 . S
H1120 C1105 0.961 . S
H1121 C1105 0.961 . S
H1122 C1106 0.931 . S
H1123 C1111 0.930 . S
H1124 C1112 0.956 . S
H1125 C1112 0.961 . S
H1126 C1112 0.961 . S
H1127 C1113 0.958 . S
H1128 C1113 0.961 . S
H1129 C1113 0.960 . S
C1130 C1131 1.391 . S
C1130 C1132 1.394 . S
C1130 H1146 0.931 . S
C1131 C1130 1.391 . S
C1131 C1135 1.376 . S
C1132 C1130 1.394 . S
C1132 C1133 1.369 . S
C1132 C1136 1.531 1_545 S
C1133 C1132 1.369 . S
C1133 C1134 1.410 . S
C1133 C1141 1.503 . S
C1134 C1133 1.410 . S
C1134 C1135 1.392 . S
C1134 C1137 1.511 . S
C1135 C1131 1.376 . S
C1135 C1134 1.392 . S
C1135 H1147 0.929 . S
C1136 C1132 1.531 1_565 S
C1136 H1148 0.960 . S
C1136 H1149 0.962 1_565 S
C1136 H1150 0.960 . S
C1137 C1134 1.511 . S
C1137 H1151 0.961 . S
C1137 H1152 0.961 . S
C1137 H1153 0.961 1_545 S
C1138 C1139 1.370 1_545 S
C1138 C1140 1.363 . S
C1138 H1154 0.931 . S
C1139 C1138 1.370 1_565 S
C1139 C1143 1.408 . S
C1140 C1138 1.363 . S
C1140 C1141 1.370 . S
C1140 C1144 1.524 . S
C1141 C1133 1.503 . S
C1141 C1140 1.370 . S
C1141 C1142 1.403 1_545 S
C1142 C1141 1.403 1_565 S
C1142 C1143 1.404 . S
C1142 C1145 1.539 . S
C1143 C1139 1.408 . S
C1143 C1142 1.404 . S
C1143 H1155 0.930 . S
C1144 C1140 1.524 . S
C1144 H1156 0.956 . S
C1144 H1157 0.961 . S
C1144 H1158 0.961 . S
C1145 C1142 1.539 . S
C1145 H1159 0.958 . S
C1145 H1160 0.961 . S
C1145 H1161 0.960 . S
H1146 C1130 0.931 . S
H1147 C1135 0.929 . S
H1148 C1136 0.960 . S
H1149 C1136 0.962 1_545 S
H1150 C1136 0.960 . S
H1151 C1137 0.961 . S
H1152 C1137 0.961 . S
H1153 C1137 0.961 1_565 S
H1154 C1138 0.931 . S
H1155 C1143 0.930 . S
H1156 C1144 0.956 . S
H1157 C1144 0.961 . S
H1158 C1144 0.961 . S
H1159 C1145 0.958 . S
H1160 C1145 0.961 . S
H1161 C1145 0.960 . S
C1162 C1163 1.391 1_455 S
C1162 C1164 1.394 . S
C1162 H1178 0.931 . S
C1163 C1162 1.391 1_655 S
C1163 C1167 1.376 . S
C1164 C1162 1.394 . S
C1164 C1165 1.369 1_455 S
C1164 C1168 1.531 . S
C1165 C1164 1.369 1_655 S
C1165 C1166 1.410 . S
C1165 C1173 1.503 . S
C1166 C1165 1.410 . S
C1166 C1167 1.392 . S
C1166 C1169 1.511 . S
C1167 C1163 1.376 . S
C1167 C1166 1.392 . S
C1167 H1179 0.929 . S
C1168 C1164 1.531 . S
C1168 H1180 0.960 . S
C1168 H1181 0.962 . S
C1168 H1182 0.960 . S
C1169 C1166 1.511 . S
C1169 H1183 0.961 . S
C1169 H1184 0.961 . S
C1169 H1185 0.961 . S
C1170 C1171 1.370 1_655 S
C1170 C1172 1.363 . S
C1170 H1186 0.931 . S
C1171 C1170 1.370 1_455 S
C1171 C1175 1.408 . S
C1172 C1170 1.363 . S
C1172 C1173 1.370 . S
C1172 C1176 1.524 . S
C1173 C1165 1.503 . S
C1173 C1172 1.370 . S
C1173 C1174 1.403 1_655 S
C1174 C1173 1.403 1_455 S
C1174 C1175 1.404 . S
C1174 C1177 1.539 . S
C1175 C1171 1.408 . S
C1175 C1174 1.404 . S
C1175 H1187 0.930 . S
C1176 C1172 1.524 . S
C1176 H1188 0.956 . S
C1176 H1189 0.961 . S
C1176 H1190 0.961 . S
C1177 C1174 1.539 . S
C1177 H1191 0.958 . S
C1177 H1192 0.961 . S
C1177 H1193 0.960 . S
H1178 C1162 0.931 . S
H1179 C1167 0.929 . S
H1180 C1168 0.960 . S
H1181 C1168 0.962 . S
H1182 C1168 0.960 . S
H1183 C1169 0.961 . S
H1184 C1169 0.961 . S
H1185 C1169 0.961 . S
H1186 C1170 0.931 . S
H1187 C1175 0.930 . S
H1188 C1176 0.956 . S
H1189 C1176 0.961 . S
H1190 C1176 0.961 . S
H1191 C1177 0.958 . S
H1192 C1177 0.961 . S
H1193 C1177 0.960 . S
C1194 C1195 1.391 . S
C1194 C1196 1.394 . S
C1194 H1210 0.931 . S
C1195 C1194 1.391 . S
C1195 C1199 1.376 . S
C1196 C1194 1.394 . S
C1196 C1197 1.369 . S
C1196 C1200 1.531 . S
C1197 C1196 1.369 . S
C1197 C1198 1.410 . S
C1197 C1205 1.503 . S
C1198 C1197 1.410 . S
C1198 C1199 1.392 . S
C1198 C1201 1.511 . S
C1199 C1195 1.376 . S
C1199 C1198 1.392 . S
C1199 H1211 0.929 . S
C1200 C1196 1.531 . S
C1200 H1212 0.960 . S
C1200 H1213 0.962 . S
C1200 H1214 0.960 . S
C1201 C1198 1.511 . S
C1201 H1215 0.961 . S
C1201 H1216 0.961 . S
C1201 H1217 0.961 . S
C1202 C1203 1.370 . S
C1202 C1204 1.363 . S
C1202 H1218 0.931 . S
C1203 C1202 1.370 . S
C1203 C1207 1.408 . S
C1204 C1202 1.363 . S
C1204 C1205 1.370 . S
C1204 C1208 1.524 . S
C1205 C1197 1.503 . S
C1205 C1204 1.370 . S
C1205 C1206 1.403 . S
C1206 C1205 1.403 . S
C1206 C1207 1.404 . S
C1206 C1209 1.539 . S
C1207 C1203 1.408 . S
C1207 C1206 1.404 . S
C1207 H1219 0.930 . S
C1208 C1204 1.524 . S
C1208 H1220 0.956 . S
C1208 H1221 0.961 . S
C1208 H1222 0.961 . S
C1209 C1206 1.539 . S
C1209 H1223 0.958 . S
C1209 H1224 0.961 . S
C1209 H1225 0.960 . S
H1210 C1194 0.931 . S
H1211 C1199 0.929 . S
H1212 C1200 0.960 . S
H1213 C1200 0.962 . S
H1214 C1200 0.960 . S
H1215 C1201 0.961 . S
H1216 C1201 0.961 . S
H1217 C1201 0.961 . S
H1218 C1202 0.931 . S
H1219 C1207 0.930 . S
H1220 C1208 0.956 . S
H1221 C1208 0.961 . S
H1222 C1208 0.961 . S
H1223 C1209 0.958 . S
H1224 C1209 0.961 . S
H1225 C1209 0.960 . S
C1226 C1227 1.380 1_565 S
C1226 C1228 1.394 . S
C1226 H1242 0.931 . S
C1227 C1226 1.380 1_545 S
C1227 C1231 1.395 . S
C1228 C1226 1.394 . S
C1228 C1229 1.369 . S
C1228 C1232 1.531 . S
C1229 C1228 1.369 . S
C1229 C1230 1.410 1_565 S
C1229 C1237 1.503 . S
C1230 C1229 1.410 1_545 S
C1230 C1231 1.392 . S
C1230 C1233 1.511 . S
C1231 C1227 1.395 . S
C1231 C1230 1.392 . S
C1231 H1243 0.929 . S
C1232 C1228 1.531 . S
C1232 H1244 0.960 . S
C1232 H1245 0.962 . S
C1232 H1246 0.960 . S
C1233 C1230 1.511 . S
C1233 H1247 0.961 . S
C1233 H1248 0.961 . S
C1233 H1249 0.961 . S
C1234 C1235 1.370 . S
C1234 C1236 1.363 1_565 S
C1234 H1250 0.931 1_565 S
C1235 C1234 1.370 . S
C1235 C1239 1.408 . S
C1236 C1234 1.363 1_545 S
C1236 C1237 1.370 1_545 S
C1236 C1240 1.524 . S
C1237 C1229 1.503 . S
C1237 C1236 1.370 1_565 S
C1237 C1238 1.403 . S
C1238 C1237 1.403 . S
C1238 C1239 1.404 . S
C1238 C1241 1.539 . S
C1239 C1235 1.408 . S
C1239 C1238 1.404 . S
C1239 H1251 0.930 . S
C1240 C1236 1.524 . S
C1240 H1252 0.956 . S
C1240 H1253 0.961 . S
C1240 H1254 0.961 . S
C1241 C1238 1.539 . S
C1241 H1255 0.958 . S
C1241 H1256 0.961 . S
C1241 H1257 0.960 . S
H1242 C1226 0.931 . S
H1243 C1231 0.929 . S
H1244 C1232 0.960 . S
H1245 C1232 0.962 . S
H1246 C1232 0.960 . S
H1247 C1233 0.961 . S
H1248 C1233 0.961 . S
H1249 C1233 0.961 . S
H1250 C1234 0.931 1_545 S
H1251 C1239 0.930 . S
H1252 C1240 0.956 . S
H1253 C1240 0.961 . S
H1254 C1240 0.961 . S
H1255 C1241 0.958 . S
H1256 C1241 0.961 . S
H1257 C1241 0.960 . S
C1258 C1259 1.391 . S
C1258 C1260 1.394 . S
C1258 H1274 0.931 . S
C1259 C1258 1.391 . S
C1259 C1263 1.376 1_455 S
C1260 C1258 1.394 . S
C1260 C1261 1.369 . S
C1260 C1264 1.531 . S
C1261 C1260 1.369 . S
C1261 C1262 1.410 1_455 S
C1261 C1269 1.503 . S
C1262 C1261 1.410 1_655 S
C1262 C1263 1.392 . S
C1262 C1265 1.511 . S
C1263 C1259 1.376 1_655 S
C1263 C1262 1.392 . S
C1263 H1275 0.929 . S
C1264 C1260 1.531 . S
C1264 H1276 0.960 . S
C1264 H1277 0.962 . S
C1264 H1278 0.960 . S
C1265 C1262 1.511 . S
C1265 H1279 0.961 . S
C1265 H1280 0.961 . S
C1265 H1281 0.961 . S
C1266 C1267 1.370 1_455 S
C1266 C1268 1.363 . S
C1266 H1282 0.931 . S
C1267 C1266 1.370 1_655 S
C1267 C1271 1.408 . S
C1268 C1266 1.363 . S
C1268 C1269 1.370 . S
C1268 C1272 1.524 . S
C1269 C1261 1.503 . S
C1269 C1268 1.370 . S
C1269 C1270 1.403 1_455 S
C1270 C1269 1.403 1_655 S
C1270 C1271 1.404 . S
C1270 C1273 1.539 . S
C1271 C1267 1.408 . S
C1271 C1270 1.404 . S
C1271 H1283 0.930 . S
C1272 C1268 1.524 . S
C1272 H1284 0.956 . S
C1272 H1285 0.961 . S
C1272 H1286 0.961 . S
C1273 C1270 1.539 . S
C1273 H1287 0.958 . S
C1273 H1288 0.961 . S
C1273 H1289 0.960 . S
H1274 C1258 0.931 . S
H1275 C1263 0.929 . S
H1276 C1264 0.960 . S
H1277 C1264 0.962 . S
H1278 C1264 0.960 . S
H1279 C1265 0.961 . S
H1280 C1265 0.961 . S
H1281 C1265 0.961 . S
H1282 C1266 0.931 . S
H1283 C1271 0.930 . S
H1284 C1272 0.956 . S
H1285 C1272 0.961 . S
H1286 C1272 0.961 . S
H1287 C1273 0.958 . S
H1288 C1273 0.961 . S
H1289 C1273 0.960 . S
C1290 C1291 1.391 . S
C1290 C1292 1.394 . S
C1290 H1306 0.931 . S
C1291 C1290 1.391 . S
C1291 C1295 1.376 . S
C1292 C1290 1.394 . S
C1292 C1293 1.369 . S
C1292 C1296 1.531 . S
C1293 C1292 1.369 . S
C1293 C1294 1.410 . S
C1293 C1301 1.503 . S
C1294 C1293 1.410 . S
C1294 C1295 1.392 . S
C1294 C1297 1.511 . S
C1295 C1291 1.376 . S
C1295 C1294 1.392 . S
C1295 H1307 0.929 . S
C1296 C1292 1.531 . S
C1296 H1308 0.960 . S
C1296 H1309 0.962 . S
C1296 H1310 0.960 . S
C1297 C1294 1.511 . S
C1297 H1311 0.961 . S
C1297 H1312 0.961 . S
C1297 H1313 0.961 . S
C1298 C1299 1.370 . S
C1298 C1300 1.363 . S
C1298 H1314 0.931 . S
C1299 C1298 1.370 . S
C1299 C1303 1.408 . S
C1300 C1298 1.363 . S
C1300 C1301 1.370 . S
C1300 C1304 1.524 . S
C1301 C1293 1.503 . S
C1301 C1300 1.370 . S
C1301 C1302 1.403 . S
C1302 C1301 1.403 . S
C1302 C1303 1.404 . S
C1302 C1305 1.539 . S
C1303 C1299 1.408 . S
C1303 C1302 1.404 . S
C1303 H1315 0.930 . S
C1304 C1300 1.524 . S
C1304 H1316 0.956 . S
C1304 H1317 0.961 . S
C1304 H1318 0.961 . S
C1305 C1302 1.539 . S
C1305 H1319 0.958 . S
C1305 H1320 0.961 . S
C1305 H1321 0.960 . S
H1306 C1290 0.931 . S
H1307 C1295 0.929 . S
H1308 C1296 0.960 . S
H1309 C1296 0.962 . S
H1310 C1296 0.960 . S
H1311 C1297 0.961 . S
H1312 C1297 0.961 . S
H1313 C1297 0.961 . S
H1314 C1298 0.931 . S
H1315 C1303 0.930 . S
H1316 C1304 0.956 . S
H1317 C1304 0.961 . S
H1318 C1304 0.961 . S
H1319 C1305 0.958 . S
H1320 C1305 0.961 . S
H1321 C1305 0.960 . S
C1322 C1323 1.391 . S
C1322 C1324 1.394 . S
C1322 H1338 0.931 . S
C1323 C1322 1.391 . S
C1323 C1327 1.376 . S
C1324 C1322 1.394 . S
C1324 C1325 1.369 . S
C1324 C1328 1.531 . S
C1325 C1324 1.369 . S
C1325 C1326 1.410 . S
C1325 C1333 1.503 . S
C1326 C1325 1.410 . S
C1326 C1327 1.392 . S
C1326 C1329 1.511 . S
C1327 C1323 1.376 . S
C1327 C1326 1.392 . S
C1327 H1339 0.929 . S
C1328 C1324 1.531 . S
C1328 H1340 0.960 . S
C1328 H1341 0.962 . S
C1328 H1342 0.960 . S
C1329 C1326 1.511 . S
C1329 H1343 0.961 . S
C1329 H1344 0.961 . S
C1329 H1345 0.961 . S
C1330 C1331 1.370 . S
C1330 C1332 1.363 . S
C1330 H1346 0.931 . S
C1331 C1330 1.370 . S
C1331 C1335 1.408 . S
C1332 C1330 1.363 . S
C1332 C1333 1.370 . S
C1332 C1336 1.524 . S
C1333 C1325 1.503 . S
C1333 C1332 1.370 . S
C1333 C1334 1.403 . S
C1334 C1333 1.403 . S
C1334 C1335 1.404 . S
C1334 C1337 1.539 . S
C1335 C1331 1.408 . S
C1335 C1334 1.404 . S
C1335 H1347 0.930 . S
C1336 C1332 1.524 . S
C1336 H1348 0.956 . S
C1336 H1349 0.961 . S
C1336 H1350 0.961 . S
C1337 C1334 1.539 . S
C1337 H1351 0.958 . S
C1337 H1352 0.961 . S
C1337 H1353 0.960 . S
H1338 C1322 0.931 . S
H1339 C1327 0.929 . S
H1340 C1328 0.960 . S
H1341 C1328 0.962 . S
H1342 C1328 0.960 . S
H1343 C1329 0.961 . S
H1344 C1329 0.961 . S
H1345 C1329 0.961 . S
H1346 C1330 0.931 . S
H1347 C1335 0.930 . S
H1348 C1336 0.956 . S
H1349 C1336 0.961 . S
H1350 C1336 0.961 . S
H1351 C1337 0.958 . S
H1352 C1337 0.961 . S
H1353 C1337 0.960 . S
C1354 C1355 1.391 . S
C1354 C1356 1.394 . S
C1354 H1370 0.931 . S
C1355 C1354 1.391 . S
C1355 C1359 1.376 . S
C1356 C1354 1.394 . S
C1356 C1357 1.369 . S
C1356 C1360 1.531 . S
C1357 C1356 1.369 . S
C1357 C1358 1.410 . S
C1357 C1365 1.503 . S
C1358 C1357 1.410 . S
C1358 C1359 1.392 . S
C1358 C1361 1.511 . S
C1359 C1355 1.376 . S
C1359 C1358 1.392 . S
C1359 H1371 0.929 . S
C1360 C1356 1.531 . S
C1360 H1372 0.960 . S
C1360 H1373 0.962 . S
C1360 H1374 0.960 . S
C1361 C1358 1.511 . S
C1361 H1375 0.961 . S
C1361 H1376 0.961 . S
C1361 H1377 0.961 . S
C1362 C1363 1.370 . S
C1362 C1364 1.363 . S
C1362 H1378 0.931 . S
C1363 C1362 1.370 . S
C1363 C1367 1.408 . S
C1364 C1362 1.363 . S
C1364 C1365 1.370 . S
C1364 C1368 1.524 . S
C1365 C1357 1.503 . S
C1365 C1364 1.370 . S
C1365 C1366 1.403 . S
C1366 C1365 1.403 . S
C1366 C1367 1.404 . S
C1366 C1369 1.539 . S
C1367 C1363 1.408 . S
C1367 C1366 1.404 . S
C1367 H1379 0.930 . S
C1368 C1364 1.524 . S
C1368 H1380 0.956 . S
C1368 H1381 0.961 . S
C1368 H1382 0.961 . S
C1369 C1366 1.539 . S
C1369 H1383 0.958 . S
C1369 H1384 0.961 . S
C1369 H1385 0.960 . S
H1370 C1354 0.931 . S
H1371 C1359 0.929 . S
H1372 C1360 0.960 . S
H1373 C1360 0.962 . S
H1374 C1360 0.960 . S
H1375 C1361 0.961 . S
H1376 C1361 0.961 . S
H1377 C1361 0.961 . S
H1378 C1362 0.931 . S
H1379 C1367 0.930 . S
H1380 C1368 0.956 . S
H1381 C1368 0.961 . S
H1382 C1368 0.961 . S
H1383 C1369 0.958 . S
H1384 C1369 0.961 . S
H1385 C1369 0.960 . S
C235 C5 1.937 . S
C243 C44 1.932 . S
C267 C18 1.944 . S
C275 C55 1.929 . S
C299 C70 1.918 . S
C307 C29 1.940 . S
C331 C83 1.943 . S
C339 C122 1.928 . S
C363 C94 1.919 . S
C371 C135 1.939 . S
C395 C146 1.918 . S
C403 C107 1.938 . S
C427 C198 1.915 . S
C435 C159 1.940 . S
C459 C213 1.944 . S
C467 C174 1.928 . S
C491 C224 1.942 . S
C499 C187 1.928 . S
C523 C10 1.659 . S
C531 C127 1.640 . S
C555 C23 1.616 . S
C563 C140 1.656 . S
C587 C147 1.614 . S
C595 C30 1.658 . S
C619 C49 1.653 . S
C627 C160 1.640 . S
C651 C56 1.627 . S
C659 C179 1.650 . S
C683 C75 1.615 . S
C691 C192 1.658 . S
C715 C88 1.657 . S
C723 C199 1.641 . S
C747 C95 1.614 . S
C755 C218 1.657 . S
C779 C225 1.616 . S
C787 C108 1.656 . S
C811 C3 0.841 1_565 S
C819 C62 0.832 . S
C843 C16 0.836 1_455 S
C851 C69 0.839 . S
C875 C31 0.833 . S
C883 C43 0.843 . S
C907 C42 0.826 1_545 S
C915 C17 0.842 . S
C939 C36 0.836 . S
C947 C57 0.831 1_655 S
C971 C68 0.833 . S
C979 C4 0.842 . S
C1003 C81 0.841 . S
C1011 C134 0.832 . S
C1035 C153 0.829 . S
C1043 C96 0.837 . S
C1067 C121 0.840 . S
C1075 C109 0.835 . S
C1099 C101 0.850 . S
C1107 C120 0.834 . S
C1131 C133 0.845 . S
C1139 C114 0.834 . S
C1163 C148 0.846 . S
C1171 C82 0.832 . S
C1195 C212 0.824 . S
C1203 C161 0.839 . S
C1227 C231 0.846 . S
C1235 C172 0.835 . S
C1259 C185 0.845 . S
C1267 C205 0.832 . S
C1291 C173 0.824 . S
C1299 C200 0.841 . S
C1323 C186 0.836 . S
C1331 C211 0.837 . S
C1355 C166 0.851 . S
C1363 C226 0.834 . S
