# Generated by pormake.
# Topology vmo, (7)-cn, num edge types: 1
# Building blocks:
#     Node 0, Type 0, BuildingBlock: NUHQUE_clean_sbu_2, # of connection points: 7
#     Node 1, Type 0, BuildingBlock: NUHQUE_clean_sbu_2, # of connection points: 7
#     Node 2, Type 0, BuildingBlock: NUHQUE_clean_sbu_2, # of connection points: 7
#     Node 3, Type 0, BuildingBlock: NUHQUE_clean_sbu_2, # of connection points: 7
#     Node 4, Type 0, BuildingBlock: NUHQUE_clean_sbu_2, # of connection points: 7
#     Node 5, Type 0, BuildingBlock: NUHQUE_clean_sbu_2, # of connection points: 7
#     Node 6, Type 0, BuildingBlock: NUHQUE_clean_sbu_2, # of connection points: 7
#     Node 7, Type 0, BuildingBlock: NUHQUE_clean_sbu_2, # of connection points: 7
#     Edge 8, Type (0, 0), BuildingBlock: MIFKUJ_clean_linker_0, # of connection points: 2
#     Edge 9, Type (0, 0), BuildingBlock: MIFKUJ_clean_linker_0, # of connection points: 2
#     Edge 10, Type (0, 0), BuildingBlock: MIFKUJ_clean_linker_0, # of connection points: 2
#     Edge 11, Type (0, 0), BuildingBlock: MIFKUJ_clean_linker_0, # of connection points: 2
#     Edge 12, Type (0, 0), BuildingBlock: MIFKUJ_clean_linker_0, # of connection points: 2
#     Edge 13, Type (0, 0), BuildingBlock: MIFKUJ_clean_linker_0, # of connection points: 2
#     Edge 14, Type (0, 0), BuildingBlock: MIFKUJ_clean_linker_0, # of connection points: 2
#     Edge 15, Type (0, 0), BuildingBlock: MIFKUJ_clean_linker_0, # of connection points: 2
#     Edge 16, Type (0, 0), BuildingBlock: MIFKUJ_clean_linker_0, # of connection points: 2
#     Edge 17, Type (0, 0), BuildingBlock: MIFKUJ_clean_linker_0, # of connection points: 2
#     Edge 18, Type (0, 0), BuildingBlock: MIFKUJ_clean_linker_0, # of connection points: 2
#     Edge 19, Type (0, 0), BuildingBlock: MIFKUJ_clean_linker_0, # of connection points: 2
#     Edge 20, Type (0, 0), BuildingBlock: MIFKUJ_clean_linker_0, # of connection points: 2
#     Edge 21, Type (0, 0), BuildingBlock: MIFKUJ_clean_linker_0, # of connection points: 2
#     Edge 22, Type (0, 0), BuildingBlock: MIFKUJ_clean_linker_0, # of connection points: 2
#     Edge 23, Type (0, 0), BuildingBlock: MIFKUJ_clean_linker_0, # of connection points: 2
#     Edge 24, Type (0, 0), BuildingBlock: MIFKUJ_clean_linker_0, # of connection points: 2
#     Edge 25, Type (0, 0), BuildingBlock: MIFKUJ_clean_linker_0, # of connection points: 2
#     Edge 26, Type (0, 0), BuildingBlock: MIFKUJ_clean_linker_0, # of connection points: 2
#     Edge 27, Type (0, 0), BuildingBlock: MIFKUJ_clean_linker_0, # of connection points: 2
#     Edge 28, Type (0, 0), BuildingBlock: MIFKUJ_clean_linker_0, # of connection points: 2
#     Edge 29, Type (0, 0), BuildingBlock: MIFKUJ_clean_linker_0, # of connection points: 2
#     Edge 30, Type (0, 0), BuildingBlock: MIFKUJ_clean_linker_0, # of connection points: 2
#     Edge 31, Type (0, 0), BuildingBlock: MIFKUJ_clean_linker_0, # of connection points: 2
#     Edge 32, Type (0, 0), BuildingBlock: MIFKUJ_clean_linker_0, # of connection points: 2
#     Edge 33, Type (0, 0), BuildingBlock: MIFKUJ_clean_linker_0, # of connection points: 2
#     Edge 34, Type (0, 0), BuildingBlock: MIFKUJ_clean_linker_0, # of connection points: 2
#     Edge 35, Type (0, 0), BuildingBlock: MIFKUJ_clean_linker_0, # of connection points: 2
# Relax obj value: 0.215
# Max RMSD: 0.259
# Mean RMSD: 0.259
data_MOF--net-vmo--node1-NUHQUE_clean_sbu_2--edge1-MIFKUJ_clean_linker_0
_symmetry_space_group_name_H-M    P1
_symmetry_Int_Tables_number       1
_symmetry_cell_setting            triclinic
loop_
_symmetry_equiv_pos_as_xyz
'x, y, z'
_cell_length_a     41.54296
_cell_length_b     71.736719
_cell_length_c     34.331432
_cell_angle_alpha  90.136129
_cell_angle_beta   113.36211
_cell_angle_gamma 89.669584
loop_
_atom_site_label
_atom_site_type_symbol
_atom_site_fract_x
_atom_site_fract_y
_atom_site_fract_z
_atom_type_partial_charge
O0 O 0.21516 0.43501 0.27967 0.0
Tb1 Tb 0.19689 0.42897 0.21192 0.0
Eu2 Eu 0.20242 0.39026 0.1048 0.0
C3 C 0.19133 0.43819 0.29534 0.0
O4 O 0.15823 0.43549 0.27062 0.0
C5 C 0.17441 0.38913 0.17789 0.0
O6 O 0.17365 0.38393 0.03317 0.0
C7 C 0.26805 0.37921 0.14085 0.0
C8 C 0.15701 0.3972 1.00546 0.0
O9 O 0.15692 0.41421 1.01963 0.0
C10 C 0.22114 0.43248 0.1387 0.0
C11 C 0.29791 0.36824 0.13826 0.0
C12 C 0.33301 0.37429 0.16046 0.0
C13 C 0.36169 0.36338 0.16081 0.0
C14 C 0.35466 0.34621 0.13936 0.0
C15 C 0.32021 0.33961 0.11841 0.0
C16 C 0.29197 0.35089 0.11734 0.0
O17 O 0.20141 0.40043 0.19347 0.0
O18 O 0.16944 0.38088 0.14142 0.0
O19 O 0.16373 0.45324 0.18707 0.0
O20 O 0.14021 0.42655 0.17768 0.0
C21 C 0.13435 0.44425 0.1704 0.0
O22 O 0.19565 0.42021 0.12255 0.0
O23 O 0.22731 0.43913 0.17704 0.0
O24 O 0.24135 0.36989 0.14238 0.0
O25 O 0.25839 0.39488 0.11936 0.0
H26 H 0.33798 0.38738 0.17761 0.0
H27 H 0.37644 0.33767 0.13985 0.0
H28 H 0.26537 0.34582 0.10168 0.0
O29 O 0.85801 0.44087 0.27389 0.0
Tb30 Tb 0.89079 0.43227 0.33845 0.0
Eu31 Eu 0.89571 0.39143 0.45198 0.0
C32 C 0.86797 0.43762 0.24252 0.0
O33 O 0.89343 0.42564 0.24822 0.0
C34 C 0.92137 0.39294 0.37612 0.0
O35 O 0.92494 0.38653 0.52416 0.0
C36 C 0.83119 0.37908 0.41744 0.0
C37 C 0.95275 0.39659 0.54715 0.0
O38 O 0.9639 0.40901 0.52737 0.0
C39 C 0.87664 0.43382 0.41999 0.0
C40 C 0.80185 0.36825 0.4213 0.0
C41 C 0.76649 0.37402 0.39887 0.0
C42 C 0.73831 0.36323 0.39976 0.0
C43 C 0.74605 0.34648 0.42284 0.0
C44 C 0.78078 0.34018 0.44442 0.0
C45 C 0.80851 0.35126 0.44379 0.0
O46 O 0.89281 0.40345 0.3605 0.0
O47 O 0.92762 0.38408 0.4124 0.0
O48 O 0.92505 0.45616 0.36109 0.0
O49 O 0.94492 0.43165 0.3433 0.0
C50 C 0.95193 0.4487 0.35661 0.0
O51 O 0.90067 0.42063 0.43009 0.0
O52 O 0.8687 0.44233 0.38319 0.0
O53 O 0.85881 0.3697 0.41812 0.0
O54 O 0.8393 0.39555 0.43579 0.0
H55 H 0.76093 0.3868 0.38054 0.0
H56 H 0.72459 0.3378 0.42227 0.0
H57 H 0.83534 0.34653 0.46037 0.0
O58 O 0.85942 0.55075 0.77893 0.0
Tb59 Tb 0.88812 0.56392 0.8406 0.0
Eu60 Eu 0.88069 0.60191 0.94935 0.0
C61 C 0.86629 0.55573 0.74607 0.0
O62 O 0.88509 0.57076 0.74932 0.0
C63 C 0.9096 0.60341 0.87461 0.0
O64 O 0.90852 0.60412 1.02248 0.0
C65 C 0.81666 0.61519 0.915 0.0
C66 C 0.94031 0.59707 0.04387 0.0
O67 O 0.95621 0.58879 1.02217 0.0
C68 C 0.86836 0.55849 0.91421 0.0
C69 C 0.78621 0.62565 0.91769 0.0
C70 C 0.75143 0.61912 0.89551 0.0
C71 C 0.72221 0.62977 0.8943 0.0
C72 C 0.72816 0.64713 0.9148 0.0
C73 C 0.76225 0.65422 0.93573 0.0
C74 C 0.79113 0.64322 0.93775 0.0
O75 O 0.88164 0.59306 0.85476 0.0
O76 O 0.91451 0.61055 0.91254 0.0
O77 O 0.93506 0.56016 0.82691 0.0
O78 O 0.93855 0.55623 0.88962 0.0
C79 C 0.95597 0.55622 0.86552 0.0
O80 O 0.88485 0.57446 0.91979 0.0
O81 O 0.86664 0.54913 0.88042 0.0
O82 O 0.84488 0.6247 0.91886 0.0
O83 O 0.82388 0.59812 0.93036 0.0
H84 H 0.74708 0.60594 0.87877 0.0
H85 H 0.70584 0.6554 0.91356 0.0
H86 H 0.8174 0.64872 0.95331 0.0
O87 O 0.2343 0.5579 0.78878 0.0
Tb88 Tb 0.20338 0.56279 0.72146 0.0
Eu89 Eu 0.189 0.5994 0.60231 0.0
C90 C 0.21936 0.55885 0.81616 0.0
O91 O 0.18844 0.56679 0.80444 0.0
C92 C 0.16398 0.59949 0.67811 0.0
O93 O 0.16184 0.60053 0.529 0.0
C94 C 0.25246 0.61321 0.63671 0.0
C95 C 0.12738 0.60239 0.50834 0.0
O96 O 0.10827 0.60436 0.53077 0.0
C97 C 0.21331 0.55869 0.63833 0.0
C98 C 0.28205 0.62376 0.63264 0.0
C99 C 0.31743 0.61812 0.65582 0.0
C100 C 0.34575 0.62885 0.655 0.0
C101 C 0.33797 0.64544 0.63123 0.0
C102 C 0.30325 0.65148 0.60861 0.0
C103 C 0.27548 0.64047 0.60921 0.0
O104 O 0.1949 0.59113 0.69579 0.0
O105 O 0.15561 0.6068 0.63981 0.0
O106 O 0.18061 0.53534 0.71015 0.0
O107 O 0.14679 0.55868 0.69974 0.0
C108 C 0.14817 0.54057 0.69777 0.0
O109 O 0.18692 0.57049 0.62733 0.0
O110 O 0.2271 0.55307 0.67825 0.0
O111 O 0.22374 0.62254 0.63223 0.0
O112 O 0.24605 0.59603 0.62213 0.0
H113 H 0.32286 0.6055 0.67467 0.0
H114 H 0.35933 0.65422 0.63193 0.0
H115 H 0.24868 0.64508 0.59187 0.0
O116 O 0.73702 0.93347 0.28914 0.0
Tb117 Tb 0.70372 0.93003 0.22199 0.0
Eu118 Eu 0.69175 0.89409 0.09917 0.0
C119 C 0.72179 0.93228 0.31625 0.0
O120 O 0.69078 0.92447 0.30322 0.0
C121 C 0.66676 0.89316 0.17544 0.0
O122 O 0.66246 0.89018 0.02629 0.0
C123 C 0.75611 0.88105 0.13305 0.0
C124 C 0.63606 0.9012 1.00289 0.0
O125 O 0.6263 0.91445 1.02242 0.0
C126 C 0.71296 0.93518 0.13778 0.0
C127 C 0.78572 0.86998 0.12977 0.0
C128 C 0.82107 0.87572 0.15209 0.0
C129 C 0.84943 0.86455 0.15225 0.0
C130 C 0.84183 0.84743 0.13061 0.0
C131 C 0.8072 0.84112 0.10955 0.0
C132 C 0.7793 0.85266 0.10856 0.0
O133 O 0.69679 0.90223 0.19313 0.0
O134 O 0.65924 0.88586 0.13723 0.0
O135 O 0.67597 0.95621 0.21759 0.0
O136 O 0.64879 0.93082 0.21339 0.0
C137 C 0.64666 0.94883 0.21462 0.0
O138 O 0.68796 0.92261 0.12592 0.0
O139 O 0.72381 0.94177 0.17693 0.0
O140 O 0.72832 0.87189 0.13194 0.0
O141 O 0.74828 0.89763 0.11515 0.0
H142 H 0.82647 0.88875 0.16948 0.0
H143 H 0.86332 0.83868 0.13099 0.0
H144 H 0.75258 0.84779 0.09281 0.0
O145 O 0.3611 0.93579 0.26384 0.0
Tb146 Tb 0.37565 0.93076 0.33151 0.0
Eu147 Eu 0.38254 0.89124 0.44426 0.0
C148 C 0.38611 0.94246 0.25331 0.0
O149 O 0.41825 0.9425 0.28251 0.0
C150 C 0.41276 0.89379 0.37312 0.0
O151 O 0.41415 0.88608 0.5165 0.0
C152 C 0.31974 0.87652 0.40932 0.0
C153 C 0.41325 0.89747 0.54668 0.0
O154 O 0.39153 0.91168 0.5352 0.0
C155 C 0.34947 0.93089 0.40354 0.0
C156 C 0.29033 0.86529 0.41184 0.0
C157 C 0.255 0.87102 0.38888 0.0
C158 C 0.22667 0.86034 0.38964 0.0
C159 C 0.23427 0.84372 0.41321 0.0
C160 C 0.269 0.8375 0.43538 0.0
C161 C 0.29688 0.84845 0.43473 0.0
O162 O 0.3826 0.90257 0.3559 0.0
O163 O 0.41877 0.88507 0.40929 0.0
O164 O 0.38576 0.95937 0.35059 0.0
O165 O 0.42884 0.94012 0.37024 0.0
C166 C 0.41923 0.95742 0.37202 0.0
O167 O 0.37928 0.92165 0.42302 0.0
O168 O 0.33986 0.93542 0.36295 0.0
O169 O 0.34862 0.86796 0.4116 0.0
O170 O 0.3258 0.8931 0.427 0.0
H171 H 0.24957 0.88377 0.37046 0.0
H172 H 0.21273 0.83513 0.41273 0.0
H173 H 0.32369 0.84382 0.45192 0.0
O174 O 0.36213 0.05362 0.76873 0.0
Tb175 Tb 0.38414 0.06092 0.83601 0.0
Eu176 Eu 0.39046 0.10258 0.94517 0.0
C177 C 0.38384 0.0455 0.75443 0.0
O178 O 0.4172 0.04466 0.77974 0.0
C179 C 0.41648 0.10014 0.86927 0.0
O180 O 0.41834 0.10534 1.01834 0.0
C181 C 0.32642 0.11596 0.91055 0.0
C182 C 0.4489 0.09709 0.04044 0.0
O183 O 0.46382 0.08749 1.01942 0.0
C184 C 0.36578 0.06156 0.91252 0.0
C185 C 0.29632 0.12652 0.91377 0.0
C186 C 0.26131 0.12035 0.89129 0.0
C187 C 0.23243 0.13094 0.89143 0.0
C188 C 0.23914 0.14792 0.91363 0.0
C189 C 0.27347 0.15466 0.93481 0.0
C190 C 0.30191 0.14369 0.9354 0.0
O191 O 0.38711 0.09045 0.85318 0.0
O192 O 0.42302 0.109 0.90575 0.0
O193 O 0.4118 0.03513 0.86169 0.0
O194 O 0.44126 0.05973 0.86646 0.0
C195 C 0.44313 0.04208 0.87564 0.0
O196 O 0.392 0.07326 0.92219 0.0
O197 O 0.35522 0.05352 0.87491 0.0
O198 O 0.35463 0.12533 0.91384 0.0
O199 O 0.3337 0.09907 0.9267 0.0
H200 H 0.25656 0.10742 0.87354 0.0
H201 H 0.21721 0.15621 0.91355 0.0
H202 H 0.32838 0.14889 0.95124 0.0
O203 O 0.73755 0.05439 0.78523 0.0
Tb204 Tb 0.70689 0.06174 0.71884 0.0
Eu205 Eu 0.69937 0.09907 0.59896 0.0
C206 C 0.72283 0.05645 0.81274 0.0
O207 O 0.69393 0.06639 0.80138 0.0
C208 C 0.67242 0.09961 0.67429 0.0
O209 O 0.67143 0.10034 0.52558 0.0
C210 C 0.76268 0.11309 0.63238 0.0
C211 C 0.63717 0.10325 0.50521 0.0
O212 O 0.61853 0.10603 0.52795 0.0
C213 C 0.72156 0.05782 0.63828 0.0
C214 C 0.79228 0.12367 0.62835 0.0
C215 C 0.82759 0.11781 0.651 0.0
C216 C 0.85598 0.1285 0.65033 0.0
C217 C 0.84847 0.14527 0.62726 0.0
C218 C 0.81384 0.15164 0.60546 0.0
C219 C 0.78593 0.14066 0.60586 0.0
O220 O 0.70211 0.0901 0.69278 0.0
O221 O 0.66601 0.10714 0.63649 0.0
O222 O 0.67294 0.03784 0.69487 0.0
O223 O 0.65324 0.0618 0.71486 0.0
C224 C 0.64627 0.04497 0.70041 0.0
O225 O 0.69713 0.07081 0.62692 0.0
O226 O 0.73018 0.05042 0.67636 0.0
O227 O 0.73394 0.12237 0.62803 0.0
O228 O 0.75639 0.09584 0.61813 0.0
H229 H 0.83294 0.10506 0.66942 0.0
H230 H 0.87004 0.15393 0.62809 0.0
H231 H 0.7592 0.14551 0.58915 0.0
H232 H 0.70348 0.37103 0.31447 0.0
H233 H 0.64 0.37431 0.27412 0.0
H234 H 0.62371 0.37032 0.39036 0.0
H235 H 0.68682 0.36621 0.43016 0.0
H236 H 0.57805 0.3502 0.33802 0.0
H237 H 0.6123 0.41275 0.32566 0.0
H238 H 0.64533 0.43769 0.3088 0.0
H239 H 0.60463 0.42017 0.17854 0.0
H240 H 0.57168 0.39497 0.19474 0.0
H241 H 0.39535 0.37335 0.24499 0.0
H242 H 0.45881 0.37695 0.28594 0.0
H243 H 0.47705 0.36867 0.17198 0.0
H244 H 0.4139 0.36494 0.13122 0.0
H245 H 0.52069 0.39618 0.22342 0.0
H246 H 0.48769 0.33313 0.23837 0.0
H247 H 0.45375 0.30902 0.25632 0.0
H248 H 0.49196 0.32906 0.38463 0.0
H249 H 0.52573 0.35349 0.36724 0.0
C250 C 0.68638 0.37125 0.33145 0.0
C251 C 0.70041 0.36848 0.37567 0.0
C252 C 0.64987 0.37315 0.30831 0.0
C253 C 0.62634 0.37276 0.32882 0.0
C254 C 0.6407 0.37059 0.37325 0.0
C255 C 0.67701 0.36839 0.39619 0.0
C256 C 0.58693 0.3736 0.30429 0.0
C257 C 0.56572 0.36054 0.31356 0.0
C258 C 0.57006 0.38672 0.27138 0.0
C259 C 0.5898 0.40186 0.26152 0.0
C260 C 0.61059 0.41413 0.29349 0.0
C261 C 0.62927 0.42833 0.28404 0.0
C262 C 0.62715 0.43048 0.24265 0.0
C263 C 0.60628 0.41847 0.2106 0.0
C264 C 0.58757 0.40424 0.21988 0.0
C265 C 0.41282 0.37272 0.22853 0.0
C266 C 0.39938 0.36888 0.18473 0.0
C267 C 0.44922 0.37462 0.25205 0.0
C268 C 0.47313 0.3729 0.23232 0.0
C269 C 0.45949 0.37005 0.18819 0.0
C270 C 0.42325 0.36791 0.16485 0.0
C271 C 0.51224 0.37295 0.25767 0.0
C272 C 0.53326 0.38604 0.2483 0.0
C273 C 0.52898 0.36001 0.29082 0.0
C274 C 0.50892 0.34526 0.30139 0.0
C275 C 0.48863 0.33248 0.27033 0.0
C276 C 0.46946 0.31875 0.28041 0.0
C277 C 0.47062 0.31754 0.32156 0.0
C278 C 0.49104 0.33004 0.35275 0.0
C279 C 0.51021 0.34382 0.3428 0.0
H280 H 0.45577 0.30689 0.32931 0.0
H281 H 0.64163 0.44148 0.2354 0.0
H282 H 0.39945 0.62944 0.62773 0.0
H283 H 0.46229 0.62594 0.66933 0.0
H284 H 0.44228 0.61361 0.7805 0.0
H285 H 0.3789 0.61748 0.73877 0.0
H286 H 0.49458 0.6383 0.79999 0.0
H287 H 0.4714 0.5796 0.72859 0.0
H288 H 0.44835 0.55826 0.66739 0.0
H289 H 0.51405 0.58376 0.61279 0.0
H290 H 0.53715 0.60543 0.6734 0.0
H291 H 0.67381 0.62029 0.92616 0.0
H292 H 0.6106 0.61585 0.88737 0.0
H293 H 0.62215 0.62365 0.76903 0.0
H294 H 0.6858 0.6271 0.80806 0.0
H295 H 0.5733 0.59955 0.75548 0.0
H296 H 0.59376 0.65954 0.82492 0.0
H297 H 0.61725 0.68064 0.88663 0.0
H298 H 0.55627 0.65283 0.9446 0.0
H299 H 0.53281 0.6314 0.88356 0.0
C300 C 0.40827 0.62578 0.66096 0.0
C301 C 0.38378 0.62376 0.6797 0.0
C302 C 0.44444 0.62367 0.68481 0.0
C303 C 0.45757 0.61937 0.72834 0.0
C304 C 0.43316 0.61691 0.74706 0.0
C305 C 0.39676 0.61894 0.72302 0.0
C306 C 0.49666 0.61829 0.75426 0.0
C307 C 0.51164 0.62955 0.79056 0.0
C308 C 0.51954 0.60729 0.74183 0.0
C309 C 0.50579 0.59424 0.70539 0.0
C310 C 0.48075 0.58075 0.70339 0.0
C311 C 0.4677 0.56858 0.66883 0.0
C312 C 0.47967 0.56968 0.63618 0.0
C313 C 0.50478 0.58293 0.63809 0.0
C314 C 0.51789 0.59515 0.67256 0.0
C315 C 0.66293 0.62059 0.8918 0.0
C316 C 0.68494 0.62383 0.87022 0.0
C317 C 0.62656 0.61833 0.86951 0.0
C318 C 0.61082 0.61994 0.82493 0.0
C319 C 0.63313 0.62242 0.80327 0.0
C320 C 0.66968 0.62431 0.8256 0.0
C321 C 0.57133 0.61967 0.80111 0.0
C322 C 0.55626 0.60822 0.76508 0.0
C323 C 0.54835 0.63057 0.81369 0.0
C324 C 0.5618 0.64376 0.84986 0.0
C325 C 0.58547 0.65789 0.85091 0.0
C326 C 0.59879 0.6699 0.88577 0.0
C327 C 0.58834 0.66802 0.91955 0.0
C328 C 0.56438 0.65423 0.91844 0.0
C329 C 0.55105 0.64216 0.88372 0.0
H330 H 0.59876 0.67724 0.94662 0.0
H331 H 0.46953 0.56025 0.60945 0.0
H332 H 0.90098 0.86555 0.12171 0.0
H333 H 0.96426 0.86831 0.16139 0.0
H334 H 0.94831 0.87665 0.2769 0.0
H335 H 0.88447 0.87437 0.23665 0.0
H336 H 1.00234 0.89688 0.28159 0.0
H337 H 0.97306 0.83339 0.24897 0.0
H338 H 0.9467 0.8059 0.20485 0.0
H339 H 1.00965 0.81484 0.13319 0.0
H340 H 1.03603 0.8426 0.17649 0.0
H341 H 0.1749 0.86407 0.41957 0.0
H342 H 0.11171 0.86835 0.37908 0.0
H343 H 0.12862 0.8715 0.2633 0.0
H344 H 0.19219 0.86755 0.30404 0.0
H345 H 0.07469 0.84594 0.25961 0.0
H346 H 0.106 0.90976 0.29983 0.0
H347 H 0.13328 0.93507 0.3508 0.0
H348 H 0.0667 0.92272 0.41619 0.0
H349 H 1.0394 0.89712 0.366 0.0
C350 C 0.91085 0.8683 0.15547 0.0
C351 C 0.88742 0.86969 0.17587 0.0
C352 C 0.94726 0.86971 0.17836 0.0
C353 C 0.96171 0.87218 0.22269 0.0
C354 C 0.93825 0.87462 0.24288 0.0
C355 C 0.9016 0.8734 0.21978 0.0
C356 C 1.00104 0.8714 0.24768 0.0
C357 C 1.01796 0.88561 0.27696 0.0
C358 C 1.02213 0.85681 0.24203 0.0
C359 C 1.00627 0.84019 0.21572 0.0
C360 C 0.98108 0.82959 0.22357 0.0
C361 C 0.96616 0.81395 0.19875 0.0
C362 C 0.97647 0.80865 0.16623 0.0
C363 C 1.00168 0.81899 0.1584 0.0
C364 C 1.01664 0.83468 0.18307 0.0
C365 C 0.16526 0.86603 0.38555 0.0
C366 C 0.18881 0.86563 0.36519 0.0
C367 C 0.129 0.86846 0.36234 0.0
C368 C 0.11501 0.87028 0.3179 0.0
C369 C 0.13852 0.87015 0.29749 0.0
C370 C 0.17498 0.86807 0.32086 0.0
C371 C 0.07588 0.87152 0.29289 0.0
C372 C 0.05901 0.85729 0.26385 0.0
C373 C 0.05486 0.88584 0.29954 0.0
C374 C 0.07087 0.9014 0.32936 0.0
C375 C 0.09735 0.91234 0.32526 0.0
C376 C 0.11279 0.92676 0.35399 0.0
C377 C 0.1018 0.93047 0.38678 0.0
C378 C 0.07523 0.91982 0.3908 0.0
C379 C 0.05973 0.90536 0.3622 0.0
H380 H 0.11382 0.94162 0.40901 0.0
H381 H 0.96504 0.79647 0.14726 0.0
H382 H 0.88963 0.1194 0.73519 0.0
H383 H 0.95314 0.11617 0.77675 0.0
H384 H 0.97186 0.12333 0.66291 0.0
H385 H 0.90867 0.12664 0.62153 0.0
H386 H 1.01627 0.09656 0.71515 0.0
H387 H 0.981 0.15953 0.7286 0.0
H388 H 0.94615 0.18365 0.74577 0.0
H389 H 0.98457 0.16417 0.8745 0.0
H390 H 1.01926 0.13974 0.8579 0.0
H391 H 0.19811 0.12271 0.80633 0.0
H392 H 0.1348 0.11903 0.76587 0.0
H393 H 0.11807 0.12309 0.88187 0.0
H394 H 0.18101 0.12756 0.92177 0.0
H395 H 0.0717 0.143 0.82901 0.0
H396 H 0.10834 0.08054 0.81784 0.0
H397 H 0.14242 0.05573 0.8015 0.0
H398 H 0.10135 0.07288 0.67099 0.0
H399 H 0.06736 0.09795 0.68667 0.0
C400 C 0.90722 0.11987 0.7189 0.0
C401 C 0.89387 0.12327 0.67491 0.0
C402 C 0.94367 0.11819 0.74277 0.0
C403 C 0.96773 0.11971 0.72325 0.0
C404 C 0.9542 0.12212 0.679 0.0
C405 C 0.91793 0.12403 0.65529 0.0
C406 C 1.00684 0.11984 0.74886 0.0
C407 C 1.02841 0.1068 0.73986 0.0
C408 C 1.02304 0.13293 0.78179 0.0
C409 C 1.00242 0.14769 0.79189 0.0
C410 C 0.98181 0.1603 0.76048 0.0
C411 C 0.96211 0.17404 0.77012 0.0
C412 C 0.96307 0.17541 0.81118 0.0
C413 C 0.98381 0.16307 0.8427 0.0
C414 C 1.0035 0.14928 0.8332 0.0
C415 C 0.18098 0.12239 0.82325 0.0
C416 C 0.19483 0.12529 0.86742 0.0
C417 C 0.14455 0.12028 0.80004 0.0
C418 C 0.12093 0.12059 0.82044 0.0
C419 C 0.13513 0.12287 0.86484 0.0
C420 C 0.17135 0.12527 0.88784 0.0
C421 C 0.08155 0.11955 0.7958 0.0
C422 C 0.0598 0.13256 0.80472 0.0
C423 C 0.06522 0.1063 0.76308 0.0
C424 C 0.08557 0.09123 0.75353 0.0
C425 C 0.10677 0.0791 0.78572 0.0
C426 C 0.12604 0.06498 0.77657 0.0
C427 C 0.12412 0.06276 0.73526 0.0
C428 C 0.10285 0.07463 0.70299 0.0
C429 C 0.08355 0.08879 0.71198 0.0
H430 H 0.13906 0.05182 0.72823 0.0
H431 H 0.94782 0.18606 0.81858 0.0
H432 H 0.32401 0.16607 1.01119 0.0
H433 H 0.33233 0.19735 0.04242 0.0
H434 H 0.24369 0.21743 0.93387 0.0
H435 H 0.23602 0.18649 0.90193 0.0
H436 H 0.29556 0.2418 0.95528 0.0
H437 H 0.23765 0.20794 0.02953 0.0
H438 H 0.22994 0.18215 0.07235 0.0
H439 H 0.32837 0.1954 0.17341 0.0
H440 H 0.33687 0.22115 0.13094 0.0
H441 H 0.26955 0.32801 0.04233 0.0
H442 H 0.26113 0.29662 1.01164 0.0
H443 H 0.34937 0.27667 0.12082 0.0
H444 H 0.3571 0.30772 0.15225 0.0
H445 H 0.29791 0.2522 0.09926 0.0
H446 H 0.356 0.28597 1.02546 0.0
H447 H 0.3642 0.31168 0.98278 0.0
H448 H 0.26611 0.29849 0.88105 0.0
H449 H 0.2571 0.27285 0.92339 0.0
C450 C 0.30647 0.17718 0.99384 0.0
C451 C 0.27911 0.17367 0.95422 0.0
C452 C 0.31105 0.19504 1.0119 0.0
C453 C 0.28832 0.20975 0.99081 0.0
C454 C 0.26147 0.20634 0.95092 0.0
C455 C 0.2569 0.18855 0.93288 0.0
C456 C 0.29234 0.22873 1.01003 0.0
C457 C 0.29563 0.24408 0.98656 0.0
C458 C 0.2932 0.23175 0.05122 0.0
C459 C 0.28805 0.21635 0.07689 0.0
C460 C 0.25776 0.20527 0.06076 0.0
C461 C 0.25323 0.19068 0.08499 0.0
C462 C 0.27869 0.18711 0.12553 0.0
C463 C 0.30869 0.19817 0.14198 0.0
C464 C 0.31337 0.21277 0.11786 0.0
C465 C 0.28695 0.3169 0.05996 0.0
C466 C 0.31425 0.32049 0.09957 0.0
C467 C 0.28232 0.29898 0.0422 0.0
C468 C 0.30496 0.28428 0.06359 0.0
C469 C 0.33167 0.28775 0.10354 0.0
C470 C 0.33627 0.3056 0.12129 0.0
C471 C 0.30107 0.26528 0.04447 0.0
C472 C 0.29782 0.24992 0.06797 0.0
C473 C 0.30031 0.26225 1.00333 0.0
C474 C 0.30571 0.27762 0.97777 0.0
C475 C 0.33605 0.28865 0.99412 0.0
C476 C 0.34087 0.30319 0.96997 0.0
C477 C 0.31565 0.30675 0.92928 0.0
C478 C 0.2856 0.29574 0.91261 0.0
C479 C 0.28064 0.28119 0.93665 0.0
H480 H 0.31943 0.31802 0.91062 0.0
H481 H 0.27514 0.1758 0.14424 0.0
H482 H 0.82703 0.31305 0.44227 0.0
H483 H 0.83342 0.28127 0.4703 0.0
H484 H 0.75492 0.29273 0.52 0.0
H485 H 0.74916 0.32466 0.49317 0.0
H486 H 0.80722 0.27231 0.57538 0.0
H487 H 0.73473 0.26907 0.42627 0.0
H488 H 0.71991 0.2742 0.35008 0.0
H489 H 0.80908 0.24141 0.35795 0.0
H490 H 0.82472 0.2363 0.43437 0.0
H491 H 0.76801 0.17897 0.60778 0.0
H492 H 0.76217 0.21078 0.58006 0.0
H493 H 0.84058 0.19899 0.53041 0.0
H494 H 0.84581 0.16703 0.55697 0.0
H495 H 0.78865 0.21957 0.47512 0.0
H496 H 0.86115 0.22265 0.62387 0.0
H497 H 0.87628 0.21746 0.70011 0.0
H498 H 0.78764 0.25052 0.69308 0.0
H499 H 0.77168 0.25569 0.61662 0.0
C500 C 0.8116 0.30893 0.45986 0.0
C501 C 0.78741 0.32143 0.46519 0.0
C502 C 0.81499 0.29066 0.47548 0.0
C503 C 0.79418 0.28443 0.49664 0.0
C504 C 0.77111 0.29711 0.50356 0.0
C505 C 0.76769 0.31536 0.48795 0.0
C506 C 0.7957 0.26461 0.51058 0.0
C507 C 0.80274 0.2608 0.55331 0.0
C508 C 0.79055 0.24949 0.4821 0.0
C509 C 0.78109 0.25246 0.43612 0.0
C510 C 0.75133 0.26307 0.41182 0.0
C511 C 0.74275 0.26596 0.36858 0.0
C512 C 0.76359 0.25818 0.34921 0.0
C513 C 0.79299 0.24745 0.37301 0.0
C514 C 0.80171 0.24454 0.41628 0.0
C515 C 0.78353 0.18302 0.59026 0.0
C516 C 0.80753 0.17042 0.58484 0.0
C517 C 0.78046 0.20131 0.57483 0.0
C518 C 0.8014 0.20746 0.55376 0.0
C519 C 0.82429 0.19468 0.54677 0.0
C520 C 0.8274 0.17641 0.56221 0.0
C521 C 0.80013 0.22727 0.5399 0.0
C522 C 0.79314 0.23108 0.49719 0.0
C523 C 0.80538 0.24239 0.56842 0.0
C524 C 0.81502 0.2394 0.61443 0.0
C525 C 0.84473 0.2287 0.63852 0.0
C526 C 0.85348 0.22578 0.68178 0.0
C527 C 0.83289 0.23362 0.7014 0.0
C528 C 0.80354 0.24443 0.67782 0.0
C529 C 0.79464 0.24737 0.63453 0.0
H530 H 0.8397 0.23134 0.7349 0.0
H531 H 0.75691 0.26043 0.31573 0.0
H532 H 0.84274 0.809 0.14397 0.0
H533 H 0.83442 0.77791 0.11281 0.0
H534 H 0.74865 0.7984 1.00167 0.0
H535 H 0.75693 0.82976 0.03285 0.0
H536 H 0.73263 0.76537 1.0247 0.0
H537 H 0.82902 0.78942 0.99947 0.0
H538 H 0.88641 0.80426 1.01662 0.0
H539 H 0.93731 0.75972 0.10276 0.0
H540 H 0.88011 0.74471 0.08653 0.0
H541 H 0.72506 0.68556 0.89849 0.0
H542 H 0.73198 0.71719 0.92681 0.0
H543 H 0.81763 0.69871 0.04047 0.0
H544 H 0.81096 0.6669 1.012 0.0
H545 H 0.83299 0.73119 1.01402 0.0
H546 H 0.73305 0.70728 0.03622 0.0
H547 H 0.67446 0.69319 1.01454 0.0
H548 H 0.62902 0.73858 0.92859 0.0
H549 H 0.68738 0.7528 0.94923 0.0
C550 C 0.82228 0.80699 0.11269 0.0
C551 C 0.80081 0.822 0.09068 0.0
C552 C 0.81753 0.78915 0.0949 0.0
C553 C 0.79133 0.7858 0.05448 0.0
C554 C 0.76916 0.80062 0.03282 0.0
C555 C 0.77386 0.81854 0.05071 0.0
C556 C 0.78719 0.76681 0.03521 0.0
C557 C 0.75447 0.75801 1.02182 0.0
C558 C 0.81576 0.75702 0.03195 0.0
C559 C 0.85023 0.76602 0.04203 0.0
C560 C 0.85241 0.78286 1.02234 0.0
C561 C 0.88491 0.79129 0.03183 0.0
C562 C 0.91547 0.78294 0.06075 0.0
C563 C 0.9136 0.76616 0.08032 0.0
C564 C 0.88115 0.75767 0.07096 0.0
C565 C 0.74518 0.68815 0.92972 0.0
C566 C 0.76718 0.67359 0.95319 0.0
C567 C 0.74912 0.7063 0.9459 0.0
C568 C 0.7749 0.71036 0.98619 0.0
C569 C 0.79742 0.69595 1.00938 0.0
C570 C 0.79363 0.67776 0.99306 0.0
C571 C 0.7785 0.72965 1.0039 0.0
C572 C 0.81116 0.73853 1.01696 0.0
C573 C 0.74974 0.7396 1.00635 0.0
C574 C 0.71464 0.73103 0.99404 0.0
C575 C 0.7106 0.71419 1.01247 0.0
C576 C 0.67743 0.70618 1.00038 0.0
C577 C 0.64806 0.71498 0.97018 0.0
C578 C 0.6518 0.73179 0.95197 0.0
C579 C 0.6849 0.73983 0.96386 0.0
H580 H 0.62238 0.70884 0.96099 0.0
H581 H 0.94062 0.78945 0.06791 0.0
H582 H 0.3354 0.6661 0.55964 0.0
H583 H 0.32937 0.69757 0.53037 0.0
H584 H 0.25044 0.71027 0.57863 0.0
H585 H 0.25644 0.67877 0.60819 0.0
H586 H 0.23288 0.72474 0.50015 0.0
H587 H 0.33457 0.72476 0.63102 0.0
H588 H 0.39194 0.71353 0.68221 0.0
H589 H 0.43778 0.72474 0.59251 0.0
H590 H 0.38052 0.73577 0.5405 0.0
H591 H 0.23689 0.82293 0.48448 0.0
H592 H 0.24282 0.79146 0.51371 0.0
H593 H 0.32146 0.77861 0.46509 0.0
H594 H 0.31555 0.81011 0.43552 0.0
H595 H 0.33913 0.76424 0.54382 0.0
H596 H 0.23722 0.76424 0.41294 0.0
H597 H 0.1798 0.77552 0.36198 0.0
H598 H 0.13432 0.76435 0.45206 0.0
H599 H 0.19163 0.75326 0.50383 0.0
C600 C 0.31668 0.67557 0.56397 0.0
C601 C 0.29663 0.66993 0.58663 0.0
C602 C 0.31328 0.69358 0.54723 0.0
C603 C 0.28992 0.70646 0.55295 0.0
C604 C 0.26874 0.70063 0.57391 0.0
C605 C 0.27208 0.68257 0.59064 0.0
C606 C 0.28833 0.7261 0.53808 0.0
C607 C 0.25603 0.73344 0.51016 0.0
C608 C 0.31865 0.7374 0.55039 0.0
C609 C 0.35318 0.73092 0.58172 0.0
C610 C 0.35683 0.7247 0.62209 0.0
C611 C 0.38933 0.71839 0.65127 0.0
C612 C 0.41847 0.71837 0.64058 0.0
C613 C 0.41517 0.72473 0.60072 0.0
C614 C 0.38271 0.73103 0.57139 0.0
C615 C 0.2555 0.81343 0.48002 0.0
C616 C 0.27551 0.81903 0.45726 0.0
C617 C 0.25885 0.79541 0.49676 0.0
C618 C 0.28211 0.7825 0.49095 0.0
C619 C 0.30324 0.78828 0.46987 0.0
C620 C 0.29994 0.80634 0.45313 0.0
C621 C 0.28369 0.76287 0.50588 0.0
C622 C 0.31598 0.75553 0.53382 0.0
C623 C 0.25336 0.75158 0.49361 0.0
C624 C 0.2188 0.75809 0.46241 0.0
C625 C 0.21503 0.76431 0.422 0.0
C626 C 0.1825 0.77066 0.39295 0.0
C627 C 0.15345 0.7707 0.40381 0.0
C628 C 0.15686 0.76434 0.44371 0.0
C629 C 0.18935 0.75801 0.47291 0.0
H630 H 0.12829 0.77561 0.38128 0.0
H631 H 0.44361 0.71348 0.66321 0.0
H632 H 0.22496 0.56691 0.89643 0.0
H633 H 0.23442 0.54463 0.95435 0.0
H634 H 0.24519 0.50001 0.87611 0.0
H635 H 0.23786 0.52237 0.81916 0.0
H636 H 0.18987 0.49664 0.91263 0.0
H637 H 0.31311 0.50817 0.95105 0.0
H638 H 0.36501 0.5283 0.96973 0.0
H639 H 0.34809 0.54936 0.07732 0.0
H640 H 0.29574 0.52953 0.05888 0.0
H641 H 0.22131 0.4224 0.06142 0.0
H642 H 0.227 0.4431 1.00772 0.0
H643 H 0.25055 0.48896 0.09598 0.0
H644 H 0.24475 0.46844 0.14928 0.0
H645 H 0.28919 0.49176 0.0528 0.0
H646 H 0.17096 0.47724 1.02243 0.0
H647 H 0.11711 0.459 1.00396 0.0
H648 H 0.11323 0.44987 0.87882 0.0
H649 H 0.17019 0.46523 0.89846 0.0
C650 C 0.2305 0.55244 0.89222 0.0
C651 C 0.23127 0.54641 0.85364 0.0
C652 C 0.23553 0.53971 0.9251 0.0
C653 C 0.24014 0.52062 0.91941 0.0
C654 C 0.24171 0.51466 0.88122 0.0
C655 C 0.23786 0.52747 0.84889 0.0
C656 C 0.24085 0.50676 0.952 0.0
C657 C 0.21173 0.49516 0.94309 0.0
C658 C 0.26887 0.50562 0.99219 0.0
C659 C 0.30032 0.51751 1.00334 0.0
C660 C 0.32025 0.51723 0.97845 0.0
C661 C 0.3498 0.52855 0.98904 0.0
C662 C 0.35979 0.54014 1.02462 0.0
C663 C 0.34029 0.54039 0.04973 0.0
C664 C 0.31071 0.52911 0.03925 0.0
C665 C 0.22784 0.43686 0.06937 0.0
C666 C 0.23177 0.44378 0.10937 0.0
C667 C 0.23117 0.44871 0.03866 0.0
C668 C 0.23842 0.46778 0.04729 0.0
C669 C 0.24472 0.47438 0.08825 0.0
C670 C 0.24148 0.46255 0.11888 0.0
C671 C 0.23808 0.48108 1.01357 0.0
C672 C 0.26722 0.4928 1.02231 0.0
C673 C 0.20936 0.4826 0.97342 0.0
C674 C 0.17584 0.47217 0.9625 0.0
C675 C 0.15968 0.4707 0.99153 0.0
C676 C 0.12843 0.46082 0.98082 0.0
C677 C 0.11152 0.45346 0.94015 0.0
C678 C 0.12643 0.45547 0.91045 0.0
C679 C 0.15871 0.46438 0.92174 0.0
H680 H 0.08694 0.44616 0.9317 0.0
H681 H 0.38268 0.54889 0.03279 0.0
H682 H 0.82087 0.52589 0.72004 0.0
H683 H 0.81422 0.50377 0.66265 0.0
H684 H 0.8927 0.53366 0.6352 0.0
H685 H 0.89766 0.55617 0.69007 0.0
H686 H 0.84927 0.52417 0.56624 0.0
H687 H 0.90739 0.49011 0.69496 0.0
H688 H 0.91585 0.47671 0.76447 0.0
H689 H 0.82191 0.44457 0.70599 0.0
H690 H 0.81269 0.45797 0.63617 0.0
H691 H 0.90722 0.42929 0.50604 0.0
H692 H 0.89793 0.44825 0.5597 0.0
H693 H 0.81079 0.47582 0.46169 0.0
H694 H 0.82149 0.45753 0.40771 0.0
H695 H 0.8545 0.45602 0.59193 0.0
H696 H 0.80674 0.5209 0.48245 0.0
H697 H 0.81317 0.53443 0.41989 0.0
H698 H 0.9111 0.50546 0.452 0.0
H699 H 0.90546 0.49196 0.51498 0.0
C700 C 0.83629 0.52783 0.70128 0.0
C701 C 0.85966 0.54287 0.70961 0.0
C702 C 0.83277 0.51506 0.6687 0.0
C703 C 0.85335 0.51673 0.64464 0.0
C704 C 0.87625 0.53196 0.65275 0.0
C705 C 0.87912 0.5449 0.68441 0.0
C706 C 0.85174 0.50275 0.61131 0.0
C707 C 0.85022 0.50928 0.57201 0.0
C708 C 0.85378 0.48322 0.61857 0.0
C709 C 0.85912 0.47521 0.66046 0.0
C710 C 0.8884 0.4803 0.69699 0.0
C711 C 0.89335 0.47269 0.73643 0.0
C712 C 0.86937 0.45985 0.73967 0.0
C713 C 0.84042 0.45456 0.70345 0.0
C714 C 0.83532 0.46214 0.66394 0.0
C715 C 0.88569 0.43913 0.49592 0.0
C716 C 0.86547 0.44205 0.4525 0.0
C717 C 0.88033 0.45002 0.52676 0.0
C718 C 0.85422 0.46393 0.51496 0.0
C719 C 0.83186 0.46564 0.47177 0.0
C720 C 0.83777 0.45503 0.44085 0.0
C721 C 0.85236 0.47752 0.54726 0.0
C722 C 0.85313 0.47092 0.58617 0.0
C723 C 0.85171 0.49706 0.5407 0.0
C724 C 0.85541 0.50524 0.50306 0.0
C725 C 0.82966 0.51746 0.47617 0.0
C726 C 0.83317 0.52512 0.44065 0.0
C727 C 0.86245 0.52075 0.43188 0.0
C728 C 0.88836 0.50878 0.45872 0.0
C729 C 0.88501 0.50111 0.49431 0.0
H730 H 0.86509 0.52668 0.40435 0.0
H731 H 0.87326 0.45396 0.77022 0.0
H732 H 0.8646 0.4753 0.24559 0.0
H733 H 0.85899 0.49743 0.1895 0.0
H734 H 0.84282 0.45184 0.10137 0.0
H735 H 0.85197 0.42965 0.15902 0.0
H736 H 0.88058 0.47328 0.08496 0.0
H737 H 0.77491 0.48652 0.10473 0.0
H738 H 0.73811 0.49444 0.1439 0.0
H739 H 0.79261 0.5463 0.18341 0.0
H740 H 0.82992 0.5386 0.14477 0.0
H741 H 0.82619 0.52834 0.90274 0.0
H742 H 0.81732 0.5101 0.95759 0.0
H743 H 0.8751 0.55075 0.05164 0.0
H744 H 0.88388 0.56922 0.99652 0.0
H745 H 0.81428 0.53283 0.06313 0.0
H746 H 0.92136 0.51647 0.04248 0.0
H747 H 0.94822 0.50985 0.99134 0.0
H748 H 0.87988 0.46303 0.94326 0.0
H749 H 0.8525 0.46944 0.99398 0.0
C750 C 0.85905 0.47005 0.21397 0.0
C751 C 0.85795 0.45077 0.2064 0.0
C752 C 0.85568 0.48276 0.18166 0.0
C753 C 0.8495 0.47656 0.14035 0.0
C754 C 0.84749 0.45719 0.13267 0.0
C755 C 0.85225 0.44445 0.16548 0.0
C756 C 0.84712 0.49011 0.10595 0.0
C757 C 0.86553 0.4861 0.08014 0.0
C758 C 0.82803 0.50719 0.09922 0.0
C759 C 0.80546 0.51189 0.12224 0.0
C760 C 0.77918 0.49956 0.12198 0.0
C761 C 0.7582 0.50402 0.14405 0.0
C762 C 0.76308 0.52084 0.16623 0.0
C763 C 0.78888 0.53327 0.16627 0.0
C764 C 0.80992 0.52887 0.14427 0.0
C765 C 0.83617 0.53372 0.93485 0.0
C766 C 0.85597 0.5502 0.94534 0.0
C767 C 0.8311 0.52324 0.96621 0.0
C768 C 0.84597 0.52891 1.00881 0.0
C769 C 0.86336 0.54612 1.01895 0.0
C770 C 0.86834 0.55669 0.98742 0.0
C771 C 0.84731 0.51572 0.04286 0.0
C772 C 0.82903 0.51988 0.06843 0.0
C773 C 0.86569 0.49859 0.04876 0.0
C774 C 0.88482 0.49347 1.02184 0.0
C775 C 0.91225 0.50469 1.02117 0.0
C776 C 0.9274 0.50105 0.99211 0.0
C777 C 0.91541 0.4862 0.96369 0.0
C778 C 0.88888 0.47465 0.96502 0.0
C779 C 0.87369 0.4782 0.99409 0.0
H780 H 0.92696 0.48349 0.94097 0.0
H781 H 0.74683 0.52426 0.18331 0.0
H782 H 0.16511 0.55217 0.55838 0.0
H783 H 0.16896 0.52985 0.50658 0.0
H784 H 0.27568 0.51702 0.58937 0.0
H785 H 0.27145 0.53871 0.64293 0.0
H786 H 0.23928 0.52776 0.47862 0.0
H787 H 0.25261 0.48681 0.59863 0.0
H788 H 0.23492 0.47597 0.65522 0.0
H789 H 0.13281 0.46239 0.56243 0.0
H790 H 0.14953 0.47382 0.5055 0.0
H791 H 0.25388 0.45401 0.34786 0.0
H792 H 0.26475 0.47286 0.41152 0.0
H793 H 0.1593 0.4624 0.4004 0.0
H794 H 0.14851 0.44345 0.3375 0.0
H795 H 0.20043 0.46261 0.4803 0.0
H796 H 0.18315 0.50314 0.36222 0.0
H797 H 0.19468 0.51607 0.30262 0.0
H798 H 0.29919 0.53052 0.38774 0.0
H799 H 0.28836 0.51747 0.44788 0.0
C800 C 0.18961 0.54477 0.5656 0.0
C801 C 0.21807 0.54723 0.6049 0.0
C802 C 0.1916 0.53191 0.53596 0.0
C803 C 0.22229 0.52151 0.5445 0.0
C804 C 0.25148 0.52464 0.5826 0.0
C805 C 0.24916 0.53712 0.61299 0.0
C806 C 0.22329 0.50743 0.51317 0.0
C807 C 0.23166 0.51337 0.47946 0.0
C808 C 0.21194 0.48889 0.5135 0.0
C809 C 0.2019 0.48192 0.54783 0.0
C810 C 0.22605 0.48207 0.59035 0.0
C811 C 0.21626 0.4757 0.62252 0.0
C812 C 0.18255 0.46877 0.61249 0.0
C813 C 0.15869 0.46806 0.57023 0.0
C814 C 0.16829 0.47456 0.53801 0.0
C815 C 0.23322 0.45548 0.35939 0.0
C816 C 0.20021 0.44735 0.33725 0.0
C817 C 0.23936 0.46641 0.39564 0.0
C818 C 0.21257 0.46949 0.41035 0.0
C819 C 0.18033 0.46047 0.38963 0.0
C820 C 0.17418 0.44961 0.35349 0.0
C821 C 0.21727 0.48275 0.44588 0.0
C822 C 0.20909 0.47681 0.47991 0.0
C823 C 0.22849 0.50138 0.44566 0.0
C824 C 0.23506 0.50914 0.40949 0.0
C825 C 0.20866 0.50895 0.36822 0.0
C826 C 0.21506 0.51632 0.33433 0.0
C827 C 0.24768 0.52406 0.34136 0.0
C828 C 0.27395 0.52448 0.38233 0.0
C829 C 0.26769 0.51711 0.41633 0.0
H830 H 0.25259 0.52976 0.31508 0.0
H831 H 0.17504 0.46376 0.63739 0.0
H832 H 0.66943 0.942 0.05623 0.0
H833 H 0.67964 0.96153 1.00457 0.0
H834 H 0.78577 0.97118 0.09396 0.0
H835 H 0.77459 0.95233 0.14699 0.0
H836 H 0.76119 0.00201 0.05793 0.0
H837 H 0.76245 0.94102 0.99876 0.0
H838 H 0.73793 0.90961 0.9768 0.0
H839 H 0.64297 0.93375 0.8864 0.0
H840 H 0.66701 0.96527 0.90753 0.0
H841 H 0.76517 0.02513 0.8342 0.0
H842 H 0.77332 0.0033 0.8925 0.0
H843 H 0.71039 0.03893 0.93595 0.0
H844 H 0.70254 0.06072 0.87854 0.0
H845 H 0.72396 0.98333 0.90716 0.0
H846 H 0.73436 0.03594 0.03955 0.0
H847 H 0.75896 0.06709 0.06423 0.0
H848 H 0.83573 0.05849 1.01121 0.0
H849 H 0.81178 0.02723 0.98655 0.0
C850 C 0.69524 0.94785 0.06455 0.0
C851 C 0.72149 0.9452 0.10532 0.0
C852 C 0.70113 0.95909 0.03486 0.0
C853 C 0.73389 0.96751 0.04452 0.0
C854 C 0.76033 0.96477 0.08533 0.0
C855 C 0.75406 0.95388 0.11557 0.0
C856 C 0.73974 0.97983 1.0127 0.0
C857 C 0.75336 -0.00221 1.02511 0.0
C858 C 0.72999 0.97444 0.96971 0.0
C859 C 0.71655 0.95549 0.95472 0.0
C860 C 0.73645 0.93961 0.97395 0.0
C861 C 0.72262 0.92179 0.96167 0.0
C862 C 0.68894 0.91968 0.93015 0.0
C863 C 0.66914 0.93538 0.91057 0.0
C864 C 0.68293 0.95323 0.92251 0.0
C865 C 0.75383 0.02853 0.85682 0.0
C866 C 0.73334 0.04476 0.85172 0.0
C867 C 0.75821 0.01594 0.88992 0.0
C868 C 0.7426 0.01943 0.91889 0.0
C869 C 0.72316 0.03595 0.91456 0.0
C870 C 0.71866 0.04844 0.88155 0.0
C871 C 0.74485 0.00556 0.95239 0.0
C872 C 0.73252 0.98736 0.9402 0.0
C873 C 0.75619 0.01064 0.99569 0.0
C874 C 0.77114 0.02929 1.01103 0.0
C875 C 0.75662 0.04065 0.03339 0.0
C876 C 0.7704 0.05834 0.04729 0.0
C877 C 0.79885 0.06478 0.03923 0.0
C878 C 0.81362 0.05352 1.01732 0.0
C879 C 0.79991 0.03583 1.0033 0.0
H880 H 0.80947 0.07848 0.05 0.0
H881 H 0.6782 0.90588 0.92091 0.0
H882 H 0.4177 0.01724 0.73428 0.0
H883 H 0.39978 -0.00027 0.66855 0.0
H884 H 0.30447 0.0321 0.61581 0.0
H885 H 0.3219 0.04955 0.68319 0.0
H886 H 0.29809 0.99094 0.59761 0.0
H887 H 0.35769 0.04433 0.55939 0.0
H888 H 0.40351 0.06834 0.58843 0.0
H889 H 0.47944 0.02582 0.65112 0.0
H890 H 0.43472 0.00155 0.61979 0.0
H891 H 0.33898 0.9685 0.39478 0.0
H892 H 0.33344 0.99024 0.44679 0.0
H893 H 0.33328 0.94395 0.52675 0.0
H894 H 0.33725 0.92225 0.4738 0.0
H895 H 0.37853 -0.00316 0.52316 0.0
H896 H 0.29331 0.95464 0.59151 0.0
H897 H 0.24325 0.93302 0.56604 0.0
H898 H 0.20932 0.95618 0.4408 0.0
H899 H 0.25891 0.97811 0.46561 0.0
C900 C 0.39294 0.02079 0.7088 0.0
C901 C 0.37153 0.03507 0.71374 0.0
C902 C 0.38269 0.01069 0.67116 0.0
C903 C 0.35116 0.01484 0.63691 0.0
C904 C 0.32903 0.02874 0.64183 0.0
C905 C 0.33907 0.03874 0.68016 0.0
C906 C 0.343 0.00505 0.59584 0.0
C907 C 0.31535 0.99227 0.58096 0.0
C908 C 0.36503 0.00708 0.57365 0.0
C909 C 0.39306 0.02121 0.58705 0.0
C910 C 0.38444 0.04013 0.5784 0.0
C911 C 0.41024 0.05376 0.59508 0.0
C912 C 0.44452 0.04859 0.62116 0.0
C913 C 0.45316 0.02978 0.63001 0.0
C914 C 0.42774 0.01607 0.61229 0.0
C915 C 0.33648 0.96292 0.42274 0.0
C916 C 0.3385 0.94359 0.43023 0.0
C917 C 0.33379 0.9754 0.45277 0.0
C918 C 0.33283 0.96883 0.49084 0.0
C919 C 0.33341 0.94947 0.49748 0.0
C920 C 0.33599 0.93702 0.46735 0.0
C921 C 0.3338 0.98213 0.52485 0.0
C922 C 0.3605 0.99559 0.53879 0.0
C923 C 0.31024 0.98089 0.54546 0.0
C924 C 0.28 0.96794 0.53041 0.0
C925 C 0.27506 0.9552 0.55859 0.0
C926 C 0.2468 0.94287 0.54425 0.0
C927 C 0.22317 0.9432 0.5018 0.0
C928 C 0.22771 0.9559 0.47364 0.0
C929 C 0.25592 0.96826 0.48782 0.0
H930 H 0.20132 0.93363 0.49075 0.0
H931 H 0.46429 0.05918 0.63472 0.0
H932 H 0.32282 0.94718 0.18437 0.0
H933 H 0.31093 0.96804 0.12317 0.0
H934 H 0.41995 0.98341 0.17228 0.0
H935 H 0.43224 0.96246 0.23215 0.0
H936 H 0.36947 0.01443 0.15191 0.0
H937 H 0.3985 0.95895 0.09288 0.0
H938 H 0.39302 0.92598 0.07078 0.0
H939 H 0.2855 0.93533 0.98721 0.0
H940 H 0.29029 0.96834 1.00925 0.0
H941 H 0.40473 0.06339 0.99706 0.0
H942 H 0.39971 0.0442 0.052 0.0
H943 H 0.3017 0.02221 0.96238 0.0
H944 H 0.30841 0.04054 0.90575 0.0
H945 H 0.33674 0.9951 1.0024 0.0
H946 H 0.31315 0.05331 0.05553 0.0
H947 H 0.32358 0.08639 0.07628 0.0
H948 H 0.42484 0.07243 0.1714 0.0
H949 H 0.41517 0.0393 0.15101 0.0
C950 C 0.34431 0.95477 0.1817 0.0
C951 C 0.37845 0.95312 0.21336 0.0
C952 C 0.33747 0.96673 0.14682 0.0
C953 C 0.36453 0.97742 0.14343 0.0
C954 C 0.39863 0.97542 0.17439 0.0
C955 C 0.40558 0.96331 0.2086 0.0
C956 C 0.35761 0.99126 0.10869 0.0
C957 C 0.36235 0.01026 0.11915 0.0
C958 C 0.34774 0.98586 0.06593 0.0
C959 C 0.34456 0.96599 0.05327 0.0
C960 C 0.37355 0.9539 0.07025 0.0
C961 C 0.37062 0.93523 0.05759 0.0
C962 C 0.33888 0.92854 0.02777 0.0
C963 C 0.31003 0.94052 1.01043 0.0
C964 C 0.31284 0.9592 1.02297 0.0
C965 C 0.38145 0.05496 0.98908 0.0
C966 C 0.35686 0.05361 0.94689 0.0
C967 C 0.37846 0.04396 1.02093 0.0
C968 C 0.34989 0.03187 1.0121 0.0
C969 C 0.32403 0.03138 0.97035 0.0
C970 C 0.32763 0.04202 0.93798 0.0
C971 C 0.34917 0.01853 0.04534 0.0
C972 C 0.34311 -0.00048 0.03481 0.0
C973 C 0.35814 0.02396 0.08819 0.0
C974 C 0.36342 0.0438 0.10166 0.0
C975 C 0.33763 0.05729 0.08088 0.0
C976 C 0.34343 0.07606 0.09256 0.0
C977 C 0.37485 0.08151 0.12513 0.0
C978 C 0.40048 0.06819 0.14624 0.0
C979 C 0.3948 0.0494 0.13473 0.0
H980 H 0.37935 0.09605 0.134 0.0
H981 H 0.33666 0.91408 1.01797 0.0
H982 H 0.69953 0.9303 0.38081 0.0
H983 H 0.70759 0.95341 0.43611 0.0
H984 H 0.77658 0.98464 0.39464 0.0
H985 H 0.76888 0.96134 0.33919 0.0
H986 H 0.79849 0.98644 0.48049 0.0
H987 H 0.69175 0.99617 0.36053 0.0
H988 H 0.63418 0.98853 0.30472 0.0
H989 H 0.59368 0.97716 0.39922 0.0
H990 H 0.65132 0.98403 0.45582 0.0
H991 H 0.70085 0.06631 0.55388 0.0
H992 H 0.70981 0.04758 0.49939 0.0
H993 H 0.77398 0.00905 0.59547 0.0
H994 H 0.76585 0.02798 0.65005 0.0
H995 H 0.68755 0.0144 0.47596 0.0
H996 H 0.82906 0.9847 0.56322 0.0
H997 H 0.8866 0.99529 0.61479 0.0
H998 H 0.85764 0.05212 0.57782 0.0
H999 H 0.80015 0.04186 0.5256 0.0
C1000 C 0.71708 0.94185 0.38396 0.0
C1001 C 0.73338 0.94399 0.35528 0.0
C1002 C 0.72148 0.95515 0.41551 0.0
C1003 C 0.74203 0.97105 0.41903 0.0
C1004 C 0.7604 0.97257 0.39246 0.0
C1005 C 0.75609 0.95918 0.36083 0.0
C1006 C 0.74225 0.98651 0.44843 0.0
C1007 C 0.77425 0.99254 0.47957 0.0
C1008 C 0.7107 0.99497 0.44649 0.0
C1009 C 0.67611 0.99038 0.4125 0.0
C1010 C 0.67079 0.9917 0.36949 0.0
C1011 C 0.63814 0.98743 0.33768 0.0
C1012 C 0.61044 0.98203 0.34839 0.0
C1013 C 0.61531 0.98098 0.39098 0.0
C1014 C 0.64798 0.98506 0.42296 0.0
C1015 C 0.71772 0.05417 0.56359 0.0
C1016 C 0.73263 0.04872 0.60647 0.0
C1017 C 0.7226 0.04334 0.53228 0.0
C1018 C 0.74259 0.0268 0.54304 0.0
C1019 C 0.75887 0.02184 0.58612 0.0
C1020 C 0.75412 0.03271 0.61744 0.0
C1021 C 0.74374 0.01392 0.5092 0.0
C1022 C 0.71189 0.00836 0.47703 0.0
C1023 C 0.77545 0.00622 0.50973 0.0
C1024 C 0.81015 0.0125 0.54074 0.0
C1025 C 0.83502 -0.00056 0.56594 0.0
C1026 C 0.86763 0.00539 0.59532 0.0
C1027 C 0.87573 0.02437 0.59966 0.0
C1028 C 0.85129 0.03743 0.57454 0.0
C1029 C 0.81866 0.03156 0.54509 0.0
H1030 H 0.90097 0.02894 0.62245 0.0
H1031 H 0.58512 0.97886 0.3237 0.0
H1032 H 1.01205 0.56305 0.93727 0.0
H1033 H 0.05551 0.53956 0.97417 0.0
H1034 H 1.01928 0.50533 0.86139 0.0
H1035 H 0.97584 0.5293 0.8241 0.0
H1036 H 1.00281 0.4901 0.92025 0.0
H1037 H 0.11164 0.50708 0.92185 0.0
H1038 H 0.16148 0.52602 0.924 0.0
H1039 H 0.17521 0.54712 0.04664 0.0
H1040 H 0.12555 0.52816 0.04549 0.0
H1041 H 0.09587 0.42682 0.09689 0.0
H1042 H 0.06755 0.44308 0.02922 0.0
H1043 H 0.0788 0.4953 0.09602 0.0
H1044 H 0.10861 0.47917 0.1635 0.0
H1045 H 0.11562 0.49356 0.04538 0.0
H1046 H 1.00092 0.47449 0.03688 0.0
H1047 H 0.95736 0.45079 0.03379 0.0
H1048 H 0.95835 0.4296 0.91724 0.0
H1049 H 1.00328 0.4526 0.92064 0.0
C1050 C 1.01498 0.55107 0.91963 0.0
C1051 C 0.99052 0.54766 0.87847 0.0
C1052 C 1.03996 0.53759 0.94062 0.0
C1053 C 1.04018 0.52045 0.92076 0.0
C1054 C 1.01939 0.5184 0.8773 0.0
C1055 C 0.9947 0.53212 0.856 0.0
C1056 C 0.05297 0.50391 0.94825 0.0
C1057 C 1.02806 0.4904 0.94689 0.0
C1058 C 0.08569 0.50423 0.98298 0.0
C1059 C 0.11467 0.5163 0.98338 0.0
C1060 C 0.125 0.51593 0.94906 0.0
C1061 C 0.15333 0.52662 0.9502 0.0
C1062 C 0.17135 0.53789 0.98527 0.0
C1063 C 0.16121 0.5384 1.01947 0.0
C1064 C 0.13307 0.5276 1.01869 0.0
C1065 C 0.0906 0.44162 0.09712 0.0
C1066 C 0.10454 0.45191 0.13496 0.0
C1067 C 0.07467 0.45089 0.05847 0.0
C1068 C 0.07179 0.47038 0.05784 0.0
C1069 C 0.08131 0.48025 0.09608 0.0
C1070 C 0.09789 0.47106 0.13454 0.0
C1071 C 0.0646 0.48085 1.01848 0.0
C1072 C 0.09077 0.49302 1.01809 0.0
C1073 C 1.03357 0.47872 0.98169 0.0
C1074 C 1.00599 0.46513 0.97938 0.0
C1075 C 0.99245 0.46456 1.01101 0.0
C1076 C 0.96755 0.4512 1.00927 0.0
C1077 C 0.95527 0.43862 0.97549 0.0
C1078 C 0.96799 0.43931 0.94347 0.0
C1079 C 0.9933 0.45246 0.94539 0.0
H1080 H 0.93574 0.4284 0.97399 0.0
H1081 H 0.19318 0.54624 0.98605 0.0
H1082 H 0.09109 0.55223 0.6298 0.0
H1083 H 0.0651 0.53386 0.56471 0.0
H1084 H 0.12017 0.48496 0.63205 0.0
H1085 H 0.14547 0.50312 0.69704 0.0
H1086 H 0.10869 0.51877 0.53003 0.0
H1087 H 0.08345 0.44759 0.58497 0.0
H1088 H 0.06388 0.43447 0.63822 0.0
H1089 H 0.99877 0.48257 0.62695 0.0
H1090 H 1.01804 0.49598 0.57369 0.0
H1091 H 1.01531 0.43125 0.39046 0.0
H1092 H 0.06805 0.44565 0.4427 0.0
H1093 H 1.0187 0.49977 0.41084 0.0
H1094 H 0.96602 0.48541 0.35957 0.0
H1095 H 0.04268 0.45949 0.49972 0.0
H1096 H 0.08288 0.53436 0.46202 0.0
H1097 H 0.10469 0.54889 0.41242 0.0
H1098 H 0.13509 0.49522 0.38268 0.0
H1099 H 0.11435 0.48031 0.43267 0.0
C1100 C 0.09596 0.53734 0.63119 0.0
C1101 C 0.12048 0.52904 0.66803 0.0
C1102 C 0.08174 0.52697 0.59387 0.0
C1103 C 0.0915 0.50823 0.59353 0.0
C1104 C 0.11242 0.49943 0.63166 0.0
C1105 C 0.12652 0.50975 0.66888 0.0
C1106 C 0.08265 0.49836 0.55297 0.0
C1107 C 0.09361 0.50599 0.52264 0.0
C1108 C 0.06521 0.48113 0.54512 0.0
C1109 C 0.05234 0.4728 0.57565 0.0
C1110 C 0.06482 0.4553 0.59373 0.0
C1111 C 0.05395 0.44787 0.62409 0.0
C1112 C 1.03026 0.45773 0.63617 0.0
C1113 C 1.01724 0.475 0.61773 0.0
C1114 C 1.0282 0.48254 0.58757 0.0
C1115 C 1.01657 0.4463 0.39306 0.0
C1116 C 0.98656 0.45728 0.3726 0.0
C1117 C 0.04679 0.45453 0.42261 0.0
C1118 C 0.04686 0.47369 0.43127 0.0
C1119 C 1.01917 0.48496 0.40478 0.0
C1120 C 0.98886 0.47672 0.37587 0.0
C1121 C 0.0666 0.48044 0.47477 0.0
C1122 C 0.05801 0.47219 0.5065 0.0
C1123 C 0.08549 0.49734 0.48315 0.0
C1124 C 0.09698 0.50614 0.45151 0.0
C1125 C 0.0944 0.52559 0.44518 0.0
C1126 C 0.10665 0.53393 0.41693 0.0
C1127 C 0.12146 0.52299 0.39456 0.0
C1128 C 0.12382 0.50369 0.4002 0.0
C1129 C 0.11172 0.49528 0.42848 0.0
H1130 H 0.13101 0.52946 0.37277 0.0
H1131 H 1.02188 0.452 0.65971 0.0
H1132 H 0.45572 0.00518 0.8903 0.0
H1133 H 0.48825 0.99157 0.96043 0.0
H1134 H 0.52515 0.04628 1.01031 0.0
H1135 H 0.49427 0.05973 0.93997 0.0
H1136 H 0.57236 0.01956 0.04739 0.0
H1137 H 0.44597 0.02635 0.99985 0.0
H1138 H 0.38637 0.01846 0.94953 0.0
H1139 H 0.40137 0.96186 0.99285 0.0
H1140 H 0.46246 0.96868 0.03982 0.0
H1141 H 0.64006 0.98414 0.23806 0.0
H1142 H 0.59295 0.00526 0.19595 0.0
H1143 H 0.53571 0.95861 0.1213 0.0
H1144 H 0.58105 0.9374 0.166 0.0
H1145 H 0.49432 0.98741 0.10379 0.0
H1146 H 0.61119 0.97462 0.10462 0.0
H1147 H 0.67583 0.97315 0.13853 0.0
H1148 H 0.6791 0.03065 0.17501 0.0
H1149 H 0.61441 0.03245 0.14085 0.0
C1150 C 0.47216 0.0141 0.9159 0.0
C1151 C 0.47222 0.03345 0.91036 0.0
C1152 C 0.49021 0.00639 0.95592 0.0
C1153 C 0.50744 0.01812 0.99063 0.0
C1154 C 0.51119 0.03712 0.98391 0.0
C1155 C 0.49387 0.04475 0.9437 0.0
C1156 C 0.51953 0.01098 0.03425 0.0
C1157 C 0.55511 0.01288 0.05996 0.0
C1158 C 0.49691 0.00178 0.04998 0.0
C1159 C 0.45928 -0.00195 1.02322 0.0
C1160 C 0.43688 0.01215 0.99838 0.0
C1161 C 0.40279 0.00784 0.97022 0.0
C1162 C 0.38995 0.98978 0.96832 0.0
C1163 C 0.41136 0.97586 0.99424 0.0
C1164 C 0.44593 0.97988 1.02122 0.0
C1165 C 0.61619 0.97835 0.21466 0.0
C1166 C 0.61431 0.95941 0.20392 0.0
C1167 C 0.58935 0.99039 0.19052 0.0
C1168 C 0.56214 0.98356 0.15404 0.0
C1169 C 0.55702 0.96423 0.14873 0.0
C1170 C 0.58311 0.95208 0.1741 0.0
C1171 C 0.54719 0.99544 0.11601 0.0
C1172 C 0.51112 0.99464 0.0914 0.0
C1173 C 0.56946 0.0046 0.09983 0.0
C1174 C 0.60817 0.00361 0.12074 0.0
C1175 C 0.62578 0.98691 0.11999 0.0
C1176 C 0.66237 0.98603 0.13915 0.0
C1177 C 0.68156 0.00177 0.15912 0.0
C1178 C 0.66419 0.01846 0.15966 0.0
C1179 C 0.62759 0.01944 0.14031 0.0
H1180 H 0.70989 0.00104 0.17404 0.0
H1181 H 0.36342 0.98658 0.94674 0.0
H1182 H 0.48641 0.95445 0.43115 0.0
H1183 H 0.51208 0.97403 0.49445 0.0
H1184 H 0.4214 0.01026 0.44757 0.0
H1185 H 0.39673 0.99152 0.38334 0.0
H1186 H 0.48082 0.02919 0.49309 0.0
H1187 H 0.42252 0.97384 0.5107 0.0
H1188 H 0.41313 0.9401 0.49853 0.0
H1189 H 0.52027 0.9293 0.58116 0.0
H1190 H 0.53073 0.963 0.59288 0.0
H1191 H 0.58447 0.06119 0.69207 0.0
H1192 H 0.52626 0.04902 0.64882 0.0
H1193 H 0.57385 -0.00266 0.63307 0.0
H1194 H 0.63126 0.00925 0.67687 0.0
H1195 H 0.50958 0.99097 0.62306 0.0
H1196 H 0.57047 0.04043 0.57151 0.0
H1197 H 0.59065 0.07289 0.57343 0.0
H1198 H 0.48793 0.09311 0.55428 0.0
H1199 H 0.46729 0.06075 0.55236 0.0
C1200 C 0.47274 0.96701 0.43364 0.0
C1201 C 0.43948 0.97135 0.40299 0.0
C1202 C 0.4871 0.97803 0.4699 0.0
C1203 C 0.46775 0.99306 0.47614 0.0
C1204 C 0.43632 -0.00148 0.4435 0.0
C1205 C 0.42236 0.98779 0.4069 0.0
C1206 C 0.47883 0.00192 0.51807 0.0
C1207 C 0.48638 0.02097 0.52155 0.0
C1208 C 0.48504 0.99122 0.55496 0.0
C1209 C 0.47741 0.97097 0.55257 0.0
C1210 C 0.44398 0.96427 0.52663 0.0
C1211 C 0.43855 0.94514 0.51957 0.0
C1212 C 0.46617 0.93259 0.5388 0.0
C1213 C 0.49899 0.93907 0.56614 0.0
C1214 C 0.50468 0.95818 0.57304 0.0
C1215 C 0.58209 0.04696 0.68078 0.0
C1216 C 0.61197 0.03628 0.68623 0.0
C1217 C 0.5489 0.04002 0.65617 0.0
C1218 C 0.54586 0.02253 0.6366 0.0
C1219 C 0.57552 0.01096 0.64746 0.0
C1220 C 0.60844 0.01783 0.67211 0.0
C1221 C 0.51514 0.01768 0.59803 0.0
C1222 C 0.50254 -0.00058 0.59467 0.0
C1223 C 0.50511 0.02895 0.56121 0.0
C1224 C 0.5175 0.04829 0.56228 0.0
C1225 C 0.55228 0.05184 0.56778 0.0
C1226 C 0.56377 0.07019 0.56886 0.0
C1227 C 0.54057 0.08504 0.56397 0.0
C1228 C 0.50587 0.08158 0.55811 0.0
C1229 C 0.49427 0.06326 0.55706 0.0
H1230 H 0.54942 0.09924 0.56458 0.0
H1231 H 0.46236 0.91786 0.53224 0.0
H1232 H 0.99759 0.4213 0.60201 0.0
H1233 H 1.03092 0.4187 0.67839 0.0
H1234 H 0.98499 0.36503 0.67805 0.0
H1235 H 0.95049 0.36784 0.6009 0.0
H1236 H 0.99095 0.384 0.7487 0.0
H1237 H 0.0721 0.37094 0.68328 0.0
H1238 H 0.10212 0.37732 0.63552 0.0
H1239 H 0.14301 0.42829 0.7021 0.0
H1240 H 0.11279 0.42238 0.74984 0.0
H1241 H 0.11698 0.36688 0.96256 0.0
H1242 H 0.0823 0.36391 0.88557 0.0
H1243 H 0.12117 0.41699 0.86529 0.0
H1244 H 0.15559 0.41988 0.94169 0.0
H1245 H 0.11908 0.39511 0.80455 0.0
H1246 H 1.03719 0.41105 0.86505 0.0
H1247 H 1.00624 0.40759 0.91274 0.0
H1248 H 0.96586 0.3547 0.85607 0.0
H1249 H 0.99722 0.35768 0.80856 0.0
C1250 C 0.99453 0.40887 0.61796 0.0
C1251 C 0.97156 0.39468 0.5947 0.0
C1252 C 1.01384 0.40737 0.66194 0.0
C1253 C 1.0116 0.39145 0.68457 0.0
C1254 C 0.98775 0.37744 0.66176 0.0
C1255 C 0.96797 0.37903 0.61744 0.0
C1256 C 1.03448 0.38965 0.73157 0.0
C1257 C 1.01907 0.38605 0.7607 0.0
C1258 C 0.07127 0.39286 0.7482 0.0
C1259 C 0.09002 0.39625 0.72001 0.0
C1260 C 0.08738 0.38354 0.68763 0.0
C1261 C 0.10443 0.38708 0.66056 0.0
C1262 C 0.12444 0.4032 0.66576 0.0
C1263 C 0.12757 0.41579 0.69817 0.0
C1264 C 0.11048 0.41235 0.72524 0.0
C1265 C 0.11836 0.37781 0.94158 0.0
C1266 C 0.13881 0.39376 0.95851 0.0
C1267 C 0.09819 0.37621 0.89742 0.0
C1268 C 0.09822 0.39043 0.86897 0.0
C1269 C 0.11999 0.4059 0.886 0.0
C1270 C 0.13965 0.40759 0.92991 0.0
C1271 C 0.07558 0.38957 0.82177 0.0
C1272 C 0.09104 0.39277 0.79257 0.0
C1273 C 1.03885 0.38631 0.80522 0.0
C1274 C 1.01991 0.38447 0.83362 0.0
C1275 C 1.02196 0.3986 0.863 0.0
C1276 C 1.00429 0.39675 0.88995 0.0
C1277 C 0.98412 0.38092 0.88748 0.0
C1278 C 0.98155 0.36693 0.858 0.0
C1279 C 0.99929 0.36869 0.83106 0.0
H1280 H 0.97043 0.37952 0.90836 0.0
H1281 H 0.13754 0.40594 0.6447 0.0
H1282 H 0.1537 0.59156 0.44864 0.0
H1283 H 0.12262 0.59026 0.37109 0.0
H1284 H 1.02911 0.61157 0.38152 0.0
H1285 H 0.05956 0.61224 0.45857 0.0
H1286 H 1.00874 0.58685 0.32422 0.0
H1287 H 0.08732 0.63842 0.34578 0.0
H1288 H 0.14454 0.65429 0.37224 0.0
H1289 H 0.18128 0.61641 0.30164 0.0
H1290 H 0.12438 0.60019 0.27515 0.0
H1291 H 0.91577 0.61079 0.10318 0.0
H1292 H 0.94681 0.61184 0.18089 0.0
H1293 H 1.03758 0.5865 0.17102 0.0
H1294 H 1.00706 0.58558 0.094 0.0
H1295 H 0.0592 0.61321 0.22763 0.0
H1296 H 0.9792 0.56218 0.20486 0.0
H1297 H 0.92152 0.54678 0.17847 0.0
H1298 H 0.88673 0.58445 0.25132 0.0
H1299 H 0.94403 0.60025 0.27767 0.0
C1300 C 0.12658 0.59607 0.43443 0.0
C1301 C 0.10945 0.60212 0.46042 0.0
C1302 C 0.10868 0.59541 0.38973 0.0
C1303 C 0.07322 0.60109 0.36941 0.0
C1304 C 0.05624 0.60705 0.39556 0.0
C1305 C 0.07392 0.60751 0.44005 0.0
C1306 C 0.05356 0.60079 0.32136 0.0
C1307 C 1.01978 0.59288 0.30333 0.0
C1308 C 0.06758 0.60823 0.29306 0.0
C1309 C 0.10174 0.61798 0.30884 0.0
C1310 C 0.10769 0.63341 0.33613 0.0
C1311 C 0.14005 0.64247 0.35109 0.0
C1312 C 0.16656 0.63633 0.33872 0.0
C1313 C 0.16074 0.62114 0.31125 0.0
C1314 C 0.12843 0.61201 0.29622 0.0
C1315 C 0.94234 0.60544 0.11751 0.0
C1316 C 0.95863 0.59808 0.09171 0.0
C1317 C 0.96015 0.60595 0.16224 0.0
C1318 C 0.99481 0.59909 0.18267 0.0
C1319 C 1.01107 0.59194 0.15676 0.0
C1320 C 0.99333 0.59137 0.1123 0.0
C1321 C 1.0144 0.59937 0.23062 0.0
C1322 C 0.04818 0.60723 0.24858 0.0
C1323 C 1.00029 0.59198 0.25883 0.0
C1324 C 0.96579 0.58252 0.24289 0.0
C1325 C 0.95915 0.56728 0.21497 0.0
C1326 C 0.92654 0.55846 0.20007 0.0
C1327 C 0.90047 0.56466 0.21315 0.0
C1328 C 0.90694 0.57968 0.24118 0.0
C1329 C 0.93948 0.58856 0.25612 0.0
H1330 H 0.87527 0.5578 0.20168 0.0
H1331 H 0.19159 0.64337 0.35034 0.0
H1332 H 0.63933 0.87268 0.94868 0.0
H1333 H 0.60445 0.86956 0.8719 0.0
H1334 H 0.55414 0.92227 0.87197 0.0
H1335 H 0.58804 0.9252 0.94794 0.0
H1336 H 0.50597 0.90004 0.82738 0.0
H1337 H 0.61854 0.91456 0.82244 0.0
H1338 H 0.68181 0.90985 0.84061 0.0
H1339 H 0.6621 0.85388 0.7927 0.0
H1340 H 0.59874 0.85832 0.77428 0.0
H1341 H 0.42327 0.92247 0.61073 0.0
H1342 H 0.46247 0.92075 0.68524 0.0
H1343 H 0.49958 0.86697 0.66444 0.0
H1344 H 0.46051 0.86888 0.58851 0.0
H1345 H 0.55386 0.88577 0.71936 0.0
H1346 H 0.44023 0.8728 0.71564 0.0
H1347 H 0.37698 0.87775 0.69644 0.0
H1348 H 0.39823 0.93029 0.76172 0.0
H1349 H 0.46159 0.92577 0.78087 0.0
C1350 C 0.62097 0.88365 0.9323 0.0
C1351 C 0.61664 0.89914 0.95523 0.0
C1352 C 0.60101 0.88192 0.888 0.0
C1353 C 0.57625 0.89571 0.86507 0.0
C1354 C 0.57253 0.91126 0.88809 0.0
C1355 C 0.59222 0.91294 0.93204 0.0
C1356 C 0.55313 0.89393 0.81788 0.0
C1357 C 0.51676 0.89714 0.80394 0.0
C1358 C 0.56618 0.88944 0.78643 0.0
C1359 C 0.60411 0.8867 0.79759 0.0
C1360 C 0.62783 0.90122 0.8162 0.0
C1361 C 0.66364 0.89862 0.82639 0.0
C1362 C 0.67599 0.88154 0.81808 0.0
C1363 C 0.65251 0.86708 0.79926 0.0
C1364 C 0.61665 0.86965 0.78882 0.0
C1365 C 0.4395 0.91013 0.62166 0.0
C1366 C 0.43796 0.89568 0.59298 0.0
C1367 C 0.46208 0.90914 0.66485 0.0
C1368 C 0.48386 0.89352 0.68168 0.0
C1369 C 0.48309 0.87918 0.65298 0.0
C1370 C 0.4605 0.88023 0.60933 0.0
C1371 C 0.50692 0.89241 0.72894 0.0
C1372 C 0.54312 0.8886 0.74286 0.0
C1373 C 0.49372 0.89629 0.76055 0.0
C1374 C 0.45565 0.899 0.74941 0.0
C1375 C 0.4314 0.88546 0.72569 0.0
C1376 C 0.39553 0.88818 0.71484 0.0
C1377 C 0.38359 0.90434 0.72778 0.0
C1378 C 0.40751 0.91778 0.7517 0.0
C1379 C 0.44341 0.91514 0.76261 0.0
H1380 H 0.3558 0.90643 0.71932 0.0
H1381 H 0.70373 0.87954 0.82607 0.0
H1382 H 0.42457 0.11174 0.09924 0.0
H1383 H 0.45502 0.11269 0.17694 0.0
H1384 H 0.54528 0.0861 0.1683 0.0
H1385 H 0.51473 0.08461 0.09139 0.0
H1386 H 0.53917 0.07188 0.23268 0.0
H1387 H 0.53871 0.13567 0.18999 0.0
H1388 H 0.51234 0.16525 0.15505 0.0
H1389 H 0.45186 0.16883 0.23131 0.0
H1390 H 0.4776 0.13915 0.26638 0.0
H1391 H 0.66288 0.09277 0.44466 0.0
H1392 H 0.63138 0.09204 0.36699 0.0
H1393 H 0.53827 0.1129 0.37895 0.0
H1394 H 0.56941 0.11366 0.45604 0.0
H1395 H 0.54554 0.13004 0.31362 0.0
H1396 H 0.54747 0.0665 0.35726 0.0
H1397 H 0.57685 0.038 0.39506 0.0
H1398 H 0.6363 0.03444 0.31762 0.0
H1399 H 0.60766 0.06313 0.27974 0.0
C1400 C 0.45094 0.10616 0.11384 0.0
C1401 C 0.46701 0.09823 0.08836 0.0
C1402 C 0.4686 0.10678 0.15861 0.0
C1403 C 0.50315 0.09975 0.17948 0.0
C1404 C 0.51887 0.09167 0.15389 0.0
C1405 C 0.50122 0.09091 0.1094 0.0
C1406 C 0.5231 0.10073 0.2275 0.0
C1407 C 0.54078 0.08474 0.25002 0.0
C1408 C 0.52524 0.11725 0.2514 0.0
C1409 C 0.5098 0.1351 0.23047 0.0
C1410 C 0.51961 0.14271 0.1991 0.0
C1411 C 0.50481 0.1595 0.17931 0.0
C1412 C 0.48036 0.16888 0.19086 0.0
C1413 C 0.47075 0.16153 0.22234 0.0
C1414 C 0.48546 0.14473 0.24221 0.0
C1415 C 0.63575 0.09727 0.43082 0.0
C1416 C 0.61895 0.10324 0.45724 0.0
C1417 C 0.61756 0.09677 0.38612 0.0
C1418 C 0.58198 0.10228 0.36632 0.0
C1419 C 0.56551 0.10857 0.39274 0.0
C1420 C 0.58352 0.10892 0.43723 0.0
C1421 C 0.56166 0.10128 0.31848 0.0
C1422 C 0.5439 0.11723 0.29612 0.0
C1423 C 0.55959 0.08476 0.29471 0.0
C1424 C 0.57574 0.06709 0.31604 0.0
C1425 C 0.56691 0.05968 0.34839 0.0
C1426 C 0.58342 0.04351 0.36983 0.0
C1427 C 0.60857 0.03452 0.35892 0.0
C1428 C 0.61691 0.0415 0.32613 0.0
C1429 C 0.60052 0.05771 0.30463 0.0
H1430 H 0.62163 0.02217 0.37599 0.0
H1431 H 0.46893 0.18188 0.1755 0.0
H1432 H 0.18483 0.39542 0.26057 0.0
H1433 H 0.14172 0.39535 0.29282 0.0
H1434 H 0.06048 0.38093 0.17209 0.0
H1435 H 0.10381 0.38069 0.13974 0.0
H1436 H 1.04102 0.41046 0.21452 0.0
H1437 H 0.08974 0.34848 0.24659 0.0
H1438 H 0.13769 0.32543 0.2749 0.0
H1439 H 0.17021 0.34996 0.39876 0.0
H1440 H 0.12272 0.37332 0.37104 0.0
H1441 H 0.90766 0.39282 0.29136 0.0
H1442 H 0.94929 0.39204 0.257 0.0
H1443 H 1.03526 0.39067 0.37992 0.0
H1444 H 0.99339 0.39078 0.41406 0.0
H1445 H 0.0524 0.36908 0.33479 0.0
H1446 H 1.01016 0.43192 0.3068 0.0
H1447 H 0.96916 0.45852 0.28094 0.0
H1448 H 0.92928 0.43583 0.155 0.0
H1449 H 0.97016 0.40916 0.17996 0.0
C1450 C 0.15784 0.39208 0.24087 0.0
C1451 C 0.14794 0.38802 0.19749 0.0
C1452 C 0.13313 0.39203 0.25943 0.0
C1453 C 0.09762 0.38809 0.23511 0.0
C1454 C 0.0876 0.38403 0.1917 0.0
C1455 C 0.1125 0.38376 0.17324 0.0
C1456 C 0.07113 0.38838 0.25502 0.0
C1457 C 0.04315 0.4012 0.24038 0.0
C1458 C 0.07444 0.37685 0.2899 0.0
C1459 C 0.10286 0.36274 0.30665 0.0
C1460 C 0.10728 0.34904 0.27979 0.0
C1461 C 0.13435 0.33591 0.29575 0.0
C1462 C 0.15704 0.33626 0.33858 0.0
C1463 C 0.15264 0.34972 0.36558 0.0
C1464 C 0.12563 0.3629 0.34977 0.0
C1465 C 0.93548 0.39247 0.31101 0.0
C1466 C 0.94712 0.39212 0.35549 0.0
C1467 C 0.95945 0.39216 0.29131 0.0
C1468 C 0.99595 0.39174 0.31549 0.0
C1469 C 1.00749 0.39104 0.36008 0.0
C1470 C 0.98346 0.3911 0.37975 0.0
C1471 C 1.02192 0.39129 0.29452 0.0
C1472 C 0.04995 0.37839 0.30892 0.0
C1473 C 1.01905 0.40307 0.25996 0.0
C1474 C 0.99298 0.41845 0.24536 0.0
C1475 C 0.99235 0.43249 0.27371 0.0
C1476 C 0.96929 0.44762 0.25919 0.0
C1477 C 0.94669 0.44884 0.21643 0.0
C1478 C 0.94688 0.43487 0.18811 0.0
C1479 C 0.97004 0.41978 0.20239 0.0
H1480 H 0.9291 0.46065 0.20522 0.0
H1481 H 0.17798 0.32607 0.35087 0.0
H1482 H 0.17799 0.59878 0.76302 0.0
H1483 H 0.13662 0.59955 0.79778 0.0
H1484 H 0.05027 0.60186 0.67537 0.0
H1485 H 0.09183 0.60144 0.64074 0.0
H1486 H 1.03657 0.62482 0.72449 0.0
H1487 H 0.07221 0.55981 0.7444 0.0
H1488 H 0.11426 0.53354 0.76734 0.0
H1489 H 0.15835 0.55593 0.89371 0.0
H1490 H 0.11607 0.58191 0.87181 0.0
H1491 H 0.89987 0.60319 0.79165 0.0
H1492 H 0.94364 0.60263 0.76066 0.0
H1493 H 1.02619 0.6054 0.88584 0.0
H1494 H 0.98201 0.60565 0.91709 0.0
H1495 H 0.04289 0.58024 0.83754 0.0
H1496 H 1.00336 0.64368 0.81838 0.0
H1497 H 0.95992 0.66924 0.79589 0.0
H1498 H 0.92364 0.65049 0.66674 0.0
H1499 H 0.96658 0.62465 0.68854 0.0
C1500 C 0.15015 0.59914 0.74352 0.0
C1501 C 0.13835 0.5997 0.69905 0.0
C1502 C 0.12634 0.59956 0.76346 0.0
C1503 C 0.08983 0.60035 0.73952 0.0
C1504 C 0.07808 0.60115 0.69496 0.0
C1505 C 0.10195 0.60089 0.67505 0.0
C1506 C 0.06408 0.60099 0.76076 0.0
C1507 C 1.03779 0.61485 0.74874 0.0
C1508 C 0.06568 0.58844 0.79344 0.0
C1509 C 0.09107 0.57278 0.8065 0.0
C1510 C 0.09084 0.55904 0.77711 0.0
C1511 C 0.11454 0.54411 0.79001 0.0
C1512 C 0.13864 0.54285 0.83215 0.0
C1513 C 0.13925 0.55661 0.86133 0.0
C1514 C 0.11535 0.5714 0.84875 0.0
C1515 C 0.92736 0.60367 0.81267 0.0
C1516 C 0.93729 0.6044 0.8569 0.0
C1517 C 0.95249 0.60349 0.79483 0.0
C1518 C 0.98856 0.60418 0.82061 0.0
C1519 C 0.99866 0.60492 0.86499 0.0
C1520 C 0.97334 0.60522 0.88291 0.0
C1521 C 1.01533 0.60397 0.80098 0.0
C1522 C 1.04174 0.5902 0.81328 0.0
C1523 C 1.01375 0.61657 0.76841 0.0
C1524 C 0.98799 0.63213 0.75517 0.0
C1525 C 0.98595 0.64492 0.78523 0.0
C1526 C 0.96145 0.65948 0.77259 0.0
C1527 C 0.93898 0.66146 0.72993 0.0
C1528 C 0.94104 0.64892 0.69978 0.0
C1529 C 0.96548 0.63433 0.71225 0.0
H1530 H 0.92003 0.67274 0.72021 0.0
H1531 H 0.15705 0.53133 0.84207 0.0
H1532 H 0.48404 0.88676 0.41076 0.0
H1533 H 0.52675 0.88711 0.37762 0.0
H1534 H 0.44453 0.90208 0.25786 0.0
H1535 H 0.40193 0.9019 0.29091 0.0
H1536 H 0.48748 0.87359 0.24926 0.0
H1537 H 0.50158 0.93423 0.31238 0.0
H1538 H 0.51077 0.95573 0.37189 0.0
H1539 H 0.61182 0.93113 0.44181 0.0
H1540 H 0.60301 0.90927 0.38286 0.0
H1541 H 0.59479 0.89456 0.13656 0.0
H1542 H 0.55231 0.89541 0.1697 0.0
H1543 H 0.63678 0.89084 0.29327 0.0
H1544 H 0.67934 0.89062 0.25998 0.0
H1545 H 0.59217 0.91432 0.30027 0.0
H1546 H 0.57815 0.85311 0.23928 0.0
H1547 H 0.56775 0.82981 0.18269 0.0
H1548 H 0.46678 0.85413 0.11107 0.0
H1549 H 0.47677 0.87772 0.16703 0.0
C1550 C 0.47506 0.89022 0.37742 0.0
C1551 C 0.43944 0.89448 0.35371 0.0
C1552 C 0.49959 0.89045 0.35843 0.0
C1553 C 0.48915 0.89468 0.31503 0.0
C1554 C 0.45351 0.89875 0.29128 0.0
C1555 C 0.42913 0.89879 0.31038 0.0
C1556 C 0.51517 0.89476 0.29434 0.0
C1557 C 0.51012 0.88268 0.26011 0.0
C1558 C 0.54531 0.90627 0.30878 0.0
C1559 C 0.55143 0.91994 0.34345 0.0
C1560 C 0.52568 0.93332 0.34055 0.0
C1561 C 0.53079 0.94555 0.37421 0.0
C1562 C 0.56165 0.94462 0.41085 0.0
C1563 C 0.58777 0.9317 0.41357 0.0
C1564 C 0.58277 0.91941 0.38 0.0
C1565 C 0.60431 0.89358 0.17077 0.0
C1566 C 0.64059 0.89258 0.19555 0.0
C1567 C 0.57989 0.89402 0.18987 0.0
C1568 C 0.59086 0.89293 0.23435 0.0
C1569 C 0.6272 0.89176 0.25904 0.0
C1570 C 0.65165 0.89155 0.23994 0.0
C1571 C 0.56467 0.89302 0.25503 0.0
C1572 C 0.56961 0.90518 0.2893 0.0
C1573 C 0.53447 0.88147 0.24079 0.0
C1574 C 0.52836 0.86729 0.20715 0.0
C1575 C 0.55383 0.85356 0.21133 0.0
C1576 C 0.548 0.84029 0.17939 0.0
C1577 C 0.51667 0.84052 0.14325 0.0
C1578 C 0.49106 0.85399 0.13905 0.0
C1579 C 0.49678 0.8673 0.17088 0.0
H1580 H 0.5122 0.83023 0.11856 0.0
H1581 H 0.56549 0.95405 0.43697 0.0
H1582 H 0.40914 0.08559 0.79173 0.0
H1583 H 0.45158 0.08539 0.75847 0.0
H1584 H 0.52517 0.11522 0.86555 0.0
H1585 H 0.48301 0.11517 0.89928 0.0
H1586 H 0.52314 0.13002 0.79135 0.0
H1587 H 0.53512 0.06797 0.8509 0.0
H1588 H 0.51521 0.03683 0.8616 0.0
H1589 H 0.47837 0.02581 0.72802 0.0
H1590 H 0.49826 0.05688 0.71651 0.0
H1591 H 0.68361 0.09895 0.75861 0.0
H1592 H 0.63995 0.09889 0.79039 0.0
H1593 H 0.55703 0.10423 0.66617 0.0
H1594 H 0.60067 0.10371 0.6342 0.0
H1595 H 0.56377 0.07149 0.74782 0.0
H1596 H 0.51815 0.14474 0.70844 0.0
H1597 H 0.53861 0.17546 0.6955 0.0
H1598 H 0.64211 0.16327 0.78768 0.0
H1599 H 0.62205 0.13262 0.8015 0.0
C1600 C 0.43445 0.09198 0.80848 0.0
C1601 C 0.44257 0.10017 0.84868 0.0
C1602 C 0.45886 0.09185 0.78931 0.0
C1603 C 0.49208 0.10014 0.80941 0.0
C1604 C 0.49994 0.10867 0.84914 0.0
C1605 C 0.47569 0.1086 0.86855 0.0
C1606 C 0.51843 0.10009 0.78906 0.0
C1607 C 0.53197 0.11714 0.7821 0.0
C1608 C 0.53004 0.08344 0.77598 0.0
C1609 C 0.51777 0.06485 0.78278 0.0
C1610 C 0.5225 0.05898 0.82375 0.0
C1611 C 0.5113 0.04132 0.82998 0.0
C1612 C 0.49533 0.0294 0.79549 0.0
C1613 C 0.49069 0.03508 0.75469 0.0
C1614 C 0.50199 0.05269 0.74831 0.0
C1615 C 0.65607 0.09999 0.73802 0.0
C1616 C 0.64571 0.10084 0.69369 0.0
C1617 C 0.63107 0.10001 0.75626 0.0
C1618 C 0.595 0.10148 0.73083 0.0
C1619 C 0.58459 0.10302 0.68662 0.0
C1620 C 0.60961 0.10275 0.66832 0.0
C1621 C 0.56842 0.10134 0.75056 0.0
C1622 C 0.55473 0.0843 0.75704 0.0
C1623 C 0.55651 0.11793 0.76303 0.0
C1624 C 0.56874 0.13636 0.75555 0.0
C1625 C 0.54524 0.14866 0.72595 0.0
C1626 C 0.55675 0.16605 0.71848 0.0
C1627 C 0.59167 0.17128 0.74063 0.0
C1628 C 0.61511 0.15916 0.7704 0.0
C1629 C 0.60371 0.14177 0.778 0.0
H1630 H 0.60054 0.18474 0.7348 0.0
H1631 H 0.48659 0.01575 0.80038 0.0
loop_
_geom_bond_atom_site_label_1
_geom_bond_atom_site_label_2
_geom_bond_distance
_geom_bond_site_symmetry_2
_ccdc_geom_bond_type
O0 Tb1 2.292 . S
O0 C3 1.255 . S
Tb1 O0 2.292 . S
Tb1 O17 2.326 . S
Tb1 O19 2.500 . S
Tb1 O20 2.473 . S
Tb1 O23 2.324 . S
Eu2 O6 2.292 1_554 S
Eu2 C7 2.852 . S
Eu2 O18 2.324 . S
Eu2 O22 2.326 . S
Eu2 O24 2.500 . S
Eu2 O25 2.473 . S
C3 O0 1.255 . S
C3 O4 1.247 . S
O4 C3 1.247 . S
C5 O17 1.242 . S
C5 O18 1.258 . S
O6 Eu2 2.292 1_556 S
O6 C8 1.255 . S
C7 Eu2 2.852 . S
C7 C11 1.503 . S
C7 O24 1.273 . S
C7 O25 1.257 . S
C8 O6 1.255 . S
C8 O9 1.247 . S
O9 C8 1.247 . S
C10 O22 1.242 . S
C10 O23 1.258 . S
C11 C7 1.503 . S
C11 C12 1.379 . S
C11 C16 1.392 . S
C12 C11 1.379 . S
C12 C13 1.404 . S
C12 H26 0.929 . S
C13 C12 1.404 . S
C13 C14 1.389 . S
C14 C13 1.389 . S
C14 C15 1.399 . S
C14 H27 0.931 . S
C15 C14 1.399 . S
C15 C16 1.390 . S
C16 C11 1.392 . S
C16 C15 1.390 . S
C16 H28 0.929 . S
O17 Tb1 2.326 . S
O17 C5 1.242 . S
O18 Eu2 2.324 . S
O18 C5 1.258 . S
O19 Tb1 2.500 . S
O19 C21 1.273 . S
O20 Tb1 2.473 . S
O20 C21 1.257 . S
C21 O19 1.273 . S
C21 O20 1.257 . S
O22 Eu2 2.326 . S
O22 C10 1.242 . S
O23 Tb1 2.324 . S
O23 C10 1.258 . S
O24 Eu2 2.500 . S
O24 C7 1.273 . S
O25 Eu2 2.473 . S
O25 C7 1.257 . S
H26 C12 0.929 . S
H27 C14 0.931 . S
H28 C16 0.929 . S
O29 Tb30 2.292 . S
O29 C32 1.255 . S
Tb30 O29 2.292 . S
Tb30 O46 2.326 . S
Tb30 O48 2.500 . S
Tb30 O49 2.473 . S
Tb30 O52 2.324 . S
Eu31 O35 2.292 . S
Eu31 C36 2.852 . S
Eu31 O47 2.324 . S
Eu31 O51 2.326 . S
Eu31 O53 2.500 . S
Eu31 O54 2.473 . S
C32 O29 1.255 . S
C32 O33 1.247 . S
O33 C32 1.247 . S
C34 O46 1.242 . S
C34 O47 1.258 . S
O35 Eu31 2.292 . S
O35 C37 1.255 . S
C36 Eu31 2.852 . S
C36 C40 1.503 . S
C36 O53 1.273 . S
C36 O54 1.257 . S
C37 O35 1.255 . S
C37 O38 1.247 . S
O38 C37 1.247 . S
C39 O51 1.242 . S
C39 O52 1.258 . S
C40 C36 1.503 . S
C40 C41 1.379 . S
C40 C45 1.392 . S
C41 C40 1.379 . S
C41 C42 1.404 . S
C41 H55 0.929 . S
C42 C41 1.404 . S
C42 C43 1.389 . S
C43 C42 1.389 . S
C43 C44 1.399 . S
C43 H56 0.931 . S
C44 C43 1.399 . S
C44 C45 1.390 . S
C45 C40 1.392 . S
C45 C44 1.390 . S
C45 H57 0.929 . S
O46 Tb30 2.326 . S
O46 C34 1.242 . S
O47 Eu31 2.324 . S
O47 C34 1.258 . S
O48 Tb30 2.500 . S
O48 C50 1.273 . S
O49 Tb30 2.473 . S
O49 C50 1.257 . S
C50 O48 1.273 . S
C50 O49 1.257 . S
O51 Eu31 2.326 . S
O51 C39 1.242 . S
O52 Tb30 2.324 . S
O52 C39 1.258 . S
O53 Eu31 2.500 . S
O53 C36 1.273 . S
O54 Eu31 2.473 . S
O54 C36 1.257 . S
H55 C41 0.929 . S
H56 C43 0.931 . S
H57 C45 0.929 . S
O58 Tb59 2.292 . S
O58 C61 1.255 . S
Tb59 O58 2.292 . S
Tb59 O75 2.326 . S
Tb59 O77 2.500 . S
Tb59 O78 2.473 . S
Tb59 O81 2.324 . S
Eu60 O64 2.292 1_556 S
Eu60 C65 2.852 . S
Eu60 O76 2.324 . S
Eu60 O80 2.326 . S
Eu60 O82 2.500 . S
Eu60 O83 2.473 . S
C61 O58 1.255 . S
C61 O62 1.247 . S
O62 C61 1.247 . S
C63 O75 1.242 . S
C63 O76 1.258 . S
O64 Eu60 2.292 1_554 S
O64 C66 1.255 . S
C65 Eu60 2.852 . S
C65 C69 1.503 . S
C65 O82 1.273 . S
C65 O83 1.257 . S
C66 O64 1.255 . S
C66 O67 1.247 . S
O67 C66 1.247 . S
C68 O80 1.242 . S
C68 O81 1.258 . S
C69 C65 1.503 . S
C69 C70 1.379 . S
C69 C74 1.392 . S
C70 C69 1.379 . S
C70 C71 1.404 . S
C70 H84 0.929 . S
C71 C70 1.404 . S
C71 C72 1.389 . S
C72 C71 1.389 . S
C72 C73 1.399 . S
C72 H85 0.931 . S
C73 C72 1.399 . S
C73 C74 1.390 . S
C74 C69 1.392 . S
C74 C73 1.390 . S
C74 H86 0.929 . S
O75 Tb59 2.326 . S
O75 C63 1.242 . S
O76 Eu60 2.324 . S
O76 C63 1.258 . S
O77 Tb59 2.500 . S
O77 C79 1.273 . S
O78 Tb59 2.473 . S
O78 C79 1.257 . S
C79 O77 1.273 . S
C79 O78 1.257 . S
O80 Eu60 2.326 . S
O80 C68 1.242 . S
O81 Tb59 2.324 . S
O81 C68 1.258 . S
O82 Eu60 2.500 . S
O82 C65 1.273 . S
O83 Eu60 2.473 . S
O83 C65 1.257 . S
H84 C70 0.929 . S
H85 C72 0.931 . S
H86 C74 0.929 . S
O87 Tb88 2.292 . S
O87 C90 1.255 . S
Tb88 O87 2.292 . S
Tb88 O104 2.326 . S
Tb88 O106 2.500 . S
Tb88 O107 2.473 . S
Tb88 O110 2.324 . S
Eu89 O93 2.292 . S
Eu89 C94 2.852 . S
Eu89 O105 2.324 . S
Eu89 O109 2.326 . S
Eu89 O111 2.500 . S
Eu89 O112 2.473 . S
C90 O87 1.255 . S
C90 O91 1.247 . S
O91 C90 1.247 . S
C92 O104 1.242 . S
C92 O105 1.258 . S
O93 Eu89 2.292 . S
O93 C95 1.255 . S
C94 Eu89 2.852 . S
C94 C98 1.503 . S
C94 O111 1.273 . S
C94 O112 1.257 . S
C95 O93 1.255 . S
C95 O96 1.247 . S
O96 C95 1.247 . S
C97 O109 1.242 . S
C97 O110 1.258 . S
C98 C94 1.503 . S
C98 C99 1.379 . S
C98 C103 1.392 . S
C99 C98 1.379 . S
C99 C100 1.404 . S
C99 H113 0.929 . S
C100 C99 1.404 . S
C100 C101 1.389 . S
C101 C100 1.389 . S
C101 C102 1.399 . S
C101 H114 0.931 . S
C102 C101 1.399 . S
C102 C103 1.390 . S
C103 C98 1.392 . S
C103 C102 1.390 . S
C103 H115 0.929 . S
O104 Tb88 2.326 . S
O104 C92 1.242 . S
O105 Eu89 2.324 . S
O105 C92 1.258 . S
O106 Tb88 2.500 . S
O106 C108 1.273 . S
O107 Tb88 2.473 . S
O107 C108 1.257 . S
C108 O106 1.273 . S
C108 O107 1.257 . S
O109 Eu89 2.326 . S
O109 C97 1.242 . S
O110 Tb88 2.324 . S
O110 C97 1.258 . S
O111 Eu89 2.500 . S
O111 C94 1.273 . S
O112 Eu89 2.473 . S
O112 C94 1.257 . S
H113 C99 0.929 . S
H114 C101 0.931 . S
H115 C103 0.929 . S
O116 Tb117 2.292 . S
O116 C119 1.255 . S
Tb117 O116 2.292 . S
Tb117 O133 2.326 . S
Tb117 O135 2.500 . S
Tb117 O136 2.473 . S
Tb117 O139 2.324 . S
Eu118 O122 2.292 1_554 S
Eu118 C123 2.852 . S
Eu118 O134 2.324 . S
Eu118 O138 2.326 . S
Eu118 O140 2.500 . S
Eu118 O141 2.473 . S
C119 O116 1.255 . S
C119 O120 1.247 . S
O120 C119 1.247 . S
C121 O133 1.242 . S
C121 O134 1.258 . S
O122 Eu118 2.292 1_556 S
O122 C124 1.255 . S
C123 Eu118 2.852 . S
C123 C127 1.503 . S
C123 O140 1.273 . S
C123 O141 1.257 . S
C124 O122 1.255 . S
C124 O125 1.247 . S
O125 C124 1.247 . S
C126 O138 1.242 . S
C126 O139 1.258 . S
C127 C123 1.503 . S
C127 C128 1.379 . S
C127 C132 1.392 . S
C128 C127 1.379 . S
C128 C129 1.404 . S
C128 H142 0.929 . S
C129 C128 1.404 . S
C129 C130 1.389 . S
C130 C129 1.389 . S
C130 C131 1.399 . S
C130 H143 0.931 . S
C131 C130 1.399 . S
C131 C132 1.390 . S
C132 C127 1.392 . S
C132 C131 1.390 . S
C132 H144 0.929 . S
O133 Tb117 2.326 . S
O133 C121 1.242 . S
O134 Eu118 2.324 . S
O134 C121 1.258 . S
O135 Tb117 2.500 . S
O135 C137 1.273 . S
O136 Tb117 2.473 . S
O136 C137 1.257 . S
C137 O135 1.273 . S
C137 O136 1.257 . S
O138 Eu118 2.326 . S
O138 C126 1.242 . S
O139 Tb117 2.324 . S
O139 C126 1.258 . S
O140 Eu118 2.500 . S
O140 C123 1.273 . S
O141 Eu118 2.473 . S
O141 C123 1.257 . S
H142 C128 0.929 . S
H143 C130 0.931 . S
H144 C132 0.929 . S
O145 Tb146 2.292 . S
O145 C148 1.255 . S
Tb146 O145 2.292 . S
Tb146 O162 2.326 . S
Tb146 O164 2.500 . S
Tb146 O165 2.473 . S
Tb146 O168 2.324 . S
Eu147 O151 2.292 . S
Eu147 C152 2.852 . S
Eu147 O163 2.324 . S
Eu147 O167 2.326 . S
Eu147 O169 2.500 . S
Eu147 O170 2.473 . S
C148 O145 1.255 . S
C148 O149 1.247 . S
O149 C148 1.247 . S
C150 O162 1.242 . S
C150 O163 1.258 . S
O151 Eu147 2.292 . S
O151 C153 1.255 . S
C152 Eu147 2.852 . S
C152 C156 1.503 . S
C152 O169 1.273 . S
C152 O170 1.257 . S
C153 O151 1.255 . S
C153 O154 1.247 . S
O154 C153 1.247 . S
C155 O167 1.242 . S
C155 O168 1.258 . S
C156 C152 1.503 . S
C156 C157 1.379 . S
C156 C161 1.392 . S
C157 C156 1.379 . S
C157 C158 1.404 . S
C157 H171 0.929 . S
C158 C157 1.404 . S
C158 C159 1.389 . S
C159 C158 1.389 . S
C159 C160 1.399 . S
C159 H172 0.931 . S
C160 C159 1.399 . S
C160 C161 1.390 . S
C161 C156 1.392 . S
C161 C160 1.390 . S
C161 H173 0.929 . S
O162 Tb146 2.326 . S
O162 C150 1.242 . S
O163 Eu147 2.324 . S
O163 C150 1.258 . S
O164 Tb146 2.500 . S
O164 C166 1.273 . S
O165 Tb146 2.473 . S
O165 C166 1.257 . S
C166 O164 1.273 . S
C166 O165 1.257 . S
O167 Eu147 2.326 . S
O167 C155 1.242 . S
O168 Tb146 2.324 . S
O168 C155 1.258 . S
O169 Eu147 2.500 . S
O169 C152 1.273 . S
O170 Eu147 2.473 . S
O170 C152 1.257 . S
H171 C157 0.929 . S
H172 C159 0.931 . S
H173 C161 0.929 . S
O174 Tb175 2.292 . S
O174 C177 1.255 . S
Tb175 O174 2.292 . S
Tb175 O191 2.326 . S
Tb175 O193 2.500 . S
Tb175 O194 2.473 . S
Tb175 O197 2.324 . S
Eu176 O180 2.292 1_556 S
Eu176 C181 2.852 . S
Eu176 O192 2.324 . S
Eu176 O196 2.326 . S
Eu176 O198 2.500 . S
Eu176 O199 2.473 . S
C177 O174 1.255 . S
C177 O178 1.247 . S
O178 C177 1.247 . S
C179 O191 1.242 . S
C179 O192 1.258 . S
O180 Eu176 2.292 1_554 S
O180 C182 1.255 . S
C181 Eu176 2.852 . S
C181 C185 1.503 . S
C181 O198 1.273 . S
C181 O199 1.257 . S
C182 O180 1.255 . S
C182 O183 1.247 . S
O183 C182 1.247 . S
C184 O196 1.242 . S
C184 O197 1.258 . S
C185 C181 1.503 . S
C185 C186 1.379 . S
C185 C190 1.392 . S
C186 C185 1.379 . S
C186 C187 1.404 . S
C186 H200 0.929 . S
C187 C186 1.404 . S
C187 C188 1.389 . S
C188 C187 1.389 . S
C188 C189 1.399 . S
C188 H201 0.931 . S
C189 C188 1.399 . S
C189 C190 1.390 . S
C190 C185 1.392 . S
C190 C189 1.390 . S
C190 H202 0.929 . S
O191 Tb175 2.326 . S
O191 C179 1.242 . S
O192 Eu176 2.324 . S
O192 C179 1.258 . S
O193 Tb175 2.500 . S
O193 C195 1.273 . S
O194 Tb175 2.473 . S
O194 C195 1.257 . S
C195 O193 1.273 . S
C195 O194 1.257 . S
O196 Eu176 2.326 . S
O196 C184 1.242 . S
O197 Tb175 2.324 . S
O197 C184 1.258 . S
O198 Eu176 2.500 . S
O198 C181 1.273 . S
O199 Eu176 2.473 . S
O199 C181 1.257 . S
H200 C186 0.929 . S
H201 C188 0.931 . S
H202 C190 0.929 . S
O203 Tb204 2.292 . S
O203 C206 1.255 . S
Tb204 O203 2.292 . S
Tb204 O220 2.326 . S
Tb204 O222 2.500 . S
Tb204 O223 2.473 . S
Tb204 O226 2.324 . S
Eu205 O209 2.292 . S
Eu205 C210 2.852 . S
Eu205 O221 2.324 . S
Eu205 O225 2.326 . S
Eu205 O227 2.500 . S
Eu205 O228 2.473 . S
C206 O203 1.255 . S
C206 O207 1.247 . S
O207 C206 1.247 . S
C208 O220 1.242 . S
C208 O221 1.258 . S
O209 Eu205 2.292 . S
O209 C211 1.255 . S
C210 Eu205 2.852 . S
C210 C214 1.503 . S
C210 O227 1.273 . S
C210 O228 1.257 . S
C211 O209 1.255 . S
C211 O212 1.247 . S
O212 C211 1.247 . S
C213 O225 1.242 . S
C213 O226 1.258 . S
C214 C210 1.503 . S
C214 C215 1.379 . S
C214 C219 1.392 . S
C215 C214 1.379 . S
C215 C216 1.404 . S
C215 H229 0.929 . S
C216 C215 1.404 . S
C216 C217 1.389 . S
C217 C216 1.389 . S
C217 C218 1.399 . S
C217 H230 0.931 . S
C218 C217 1.399 . S
C218 C219 1.390 . S
C219 C214 1.392 . S
C219 C218 1.390 . S
C219 H231 0.929 . S
O220 Tb204 2.326 . S
O220 C208 1.242 . S
O221 Eu205 2.324 . S
O221 C208 1.258 . S
O222 Tb204 2.500 . S
O222 C224 1.273 . S
O223 Tb204 2.473 . S
O223 C224 1.257 . S
C224 O222 1.273 . S
C224 O223 1.257 . S
O225 Eu205 2.326 . S
O225 C213 1.242 . S
O226 Tb204 2.324 . S
O226 C213 1.258 . S
O227 Eu205 2.500 . S
O227 C210 1.273 . S
O228 Eu205 2.473 . S
O228 C210 1.257 . S
H229 C215 0.929 . S
H230 C217 0.931 . S
H231 C219 0.929 . S
H232 C250 0.951 . S
H233 C252 0.951 . S
H234 C254 0.950 . S
H235 C255 0.950 . S
H236 C257 0.950 . S
H237 C260 0.950 . S
H238 C261 0.950 . S
H239 C263 0.950 . S
H240 C264 0.950 . S
H241 C265 0.951 . S
H242 C267 0.951 . S
H243 C269 0.950 . S
H244 C270 0.950 . S
H245 C272 0.950 . S
H246 C275 0.950 . S
H247 C276 0.950 . S
H248 C278 0.950 . S
H249 C279 0.950 . S
C250 H232 0.951 . S
C250 C251 1.366 . S
C250 C252 1.388 . S
C251 C250 1.366 . S
C251 C255 1.385 . S
C252 H233 0.951 . S
C252 C250 1.388 . S
C252 C253 1.366 . S
C253 C252 1.366 . S
C253 C254 1.414 . S
C253 C256 1.499 . S
C254 H234 0.950 . S
C254 C253 1.414 . S
C254 C255 1.374 . S
C255 H235 0.950 . S
C255 C251 1.385 . S
C255 C254 1.374 . S
C256 C253 1.499 . S
C256 C257 1.373 . S
C256 C258 1.389 . S
C257 H236 0.950 . S
C257 C256 1.373 . S
C257 C273 1.377 . S
C258 C256 1.389 . S
C258 C259 1.524 . S
C258 C272 1.377 . S
C259 C258 1.524 . S
C259 C260 1.397 . S
C259 C264 1.363 . S
C260 H237 0.950 . S
C260 C259 1.397 . S
C260 C261 1.334 . S
C261 H238 0.950 . S
C261 C260 1.334 . S
C261 C262 1.287 . S
C262 C261 1.287 . S
C262 C263 1.524 . S
C262 H281 0.913 . S
C263 H239 0.950 . S
C263 C262 1.524 . S
C263 C264 1.415 . S
C264 H240 0.950 . S
C264 C259 1.363 . S
C264 C263 1.415 . S
C265 H241 0.951 . S
C265 C266 1.366 . S
C265 C267 1.388 . S
C266 C265 1.366 . S
C266 C270 1.385 . S
C267 H242 0.951 . S
C267 C265 1.388 . S
C267 C268 1.366 . S
C268 C267 1.366 . S
C268 C269 1.414 . S
C268 C271 1.499 . S
C269 H243 0.950 . S
C269 C268 1.414 . S
C269 C270 1.374 . S
C270 H244 0.950 . S
C270 C266 1.385 . S
C270 C269 1.374 . S
C271 C268 1.499 . S
C271 C272 1.373 . S
C271 C273 1.389 . S
C272 H245 0.950 . S
C272 C258 1.377 . S
C272 C271 1.373 . S
C273 C257 1.377 . S
C273 C271 1.389 . S
C273 C274 1.524 . S
C274 C273 1.524 . S
C274 C275 1.397 . S
C274 C279 1.363 . S
C275 H246 0.950 . S
C275 C274 1.397 . S
C275 C276 1.334 . S
C276 H247 0.950 . S
C276 C275 1.334 . S
C276 C277 1.287 . S
C277 C276 1.287 . S
C277 C278 1.524 . S
C277 H280 0.999 . S
C278 H248 0.950 . S
C278 C277 1.524 . S
C278 C279 1.415 . S
C279 H249 0.950 . S
C279 C274 1.363 . S
C279 C278 1.415 . S
H280 C277 0.999 . S
H281 C262 0.913 . S
H282 C300 0.951 . S
H283 C302 0.951 . S
H284 C304 0.950 . S
H285 C305 0.950 . S
H286 C307 0.950 . S
H287 C310 0.950 . S
H288 C311 0.950 . S
H289 C313 0.950 . S
H290 C314 0.950 . S
H291 C315 0.951 . S
H292 C317 0.951 . S
H293 C319 0.950 . S
H294 C320 0.950 . S
H295 C322 0.950 . S
H296 C325 0.950 . S
H297 C326 0.950 . S
H298 C328 0.950 . S
H299 C329 0.950 . S
C300 H282 0.951 . S
C300 C301 1.366 . S
C300 C302 1.388 . S
C301 C300 1.366 . S
C301 C305 1.385 . S
C302 H283 0.951 . S
C302 C300 1.388 . S
C302 C303 1.366 . S
C303 C302 1.366 . S
C303 C304 1.414 . S
C303 C306 1.499 . S
C304 H284 0.950 . S
C304 C303 1.414 . S
C304 C305 1.374 . S
C305 H285 0.950 . S
C305 C301 1.385 . S
C305 C304 1.374 . S
C306 C303 1.499 . S
C306 C307 1.373 . S
C306 C308 1.389 . S
C307 H286 0.950 . S
C307 C306 1.373 . S
C307 C323 1.377 . S
C308 C306 1.389 . S
C308 C309 1.524 . S
C308 C322 1.377 . S
C309 C308 1.524 . S
C309 C310 1.397 . S
C309 C314 1.363 . S
C310 H287 0.950 . S
C310 C309 1.397 . S
C310 C311 1.334 . S
C311 H288 0.950 . S
C311 C310 1.334 . S
C311 C312 1.287 . S
C312 C311 1.287 . S
C312 C313 1.524 . S
C312 H331 0.913 . S
C313 H289 0.950 . S
C313 C312 1.524 . S
C313 C314 1.415 . S
C314 H290 0.950 . S
C314 C309 1.363 . S
C314 C313 1.415 . S
C315 H291 0.951 . S
C315 C316 1.366 . S
C315 C317 1.388 . S
C316 C315 1.366 . S
C316 C320 1.385 . S
C317 H292 0.951 . S
C317 C315 1.388 . S
C317 C318 1.366 . S
C318 C317 1.366 . S
C318 C319 1.414 . S
C318 C321 1.499 . S
C319 H293 0.950 . S
C319 C318 1.414 . S
C319 C320 1.374 . S
C320 H294 0.950 . S
C320 C316 1.385 . S
C320 C319 1.374 . S
C321 C318 1.499 . S
C321 C322 1.373 . S
C321 C323 1.389 . S
C322 H295 0.950 . S
C322 C308 1.377 . S
C322 C321 1.373 . S
C323 C307 1.377 . S
C323 C321 1.389 . S
C323 C324 1.524 . S
C324 C323 1.524 . S
C324 C325 1.397 . S
C324 C329 1.363 . S
C325 H296 0.950 . S
C325 C324 1.397 . S
C325 C326 1.334 . S
C326 H297 0.950 . S
C326 C325 1.334 . S
C326 C327 1.287 . S
C327 C326 1.287 . S
C327 C328 1.524 . S
C327 H330 0.999 . S
C328 H298 0.950 . S
C328 C327 1.524 . S
C328 C329 1.415 . S
C329 H299 0.950 . S
C329 C324 1.363 . S
C329 C328 1.415 . S
H330 C327 0.999 . S
H331 C312 0.913 . S
H332 C350 0.951 . S
H333 C352 0.951 . S
H334 C354 0.950 . S
H335 C355 0.950 . S
H336 C357 0.950 . S
H337 C360 0.950 . S
H338 C361 0.950 . S
H339 C363 0.950 . S
H340 C364 0.950 . S
H341 C365 0.951 . S
H342 C367 0.951 . S
H343 C369 0.950 . S
H344 C370 0.950 . S
H345 C372 0.950 . S
H346 C375 0.950 . S
H347 C376 0.950 . S
H348 C378 0.950 . S
H349 C379 0.950 . S
C350 H332 0.951 . S
C350 C351 1.366 . S
C350 C352 1.388 . S
C351 C350 1.366 . S
C351 C355 1.385 . S
C352 H333 0.951 . S
C352 C350 1.388 . S
C352 C353 1.366 . S
C353 C352 1.366 . S
C353 C354 1.414 . S
C353 C356 1.499 . S
C354 H334 0.950 . S
C354 C353 1.414 . S
C354 C355 1.374 . S
C355 H335 0.950 . S
C355 C351 1.385 . S
C355 C354 1.374 . S
C356 C353 1.499 . S
C356 C357 1.373 . S
C356 C358 1.389 . S
C357 H336 0.950 . S
C357 C356 1.373 . S
C357 C373 1.377 1_655 S
C358 C356 1.389 . S
C358 C359 1.524 . S
C358 C372 1.377 1_655 S
C359 C358 1.524 . S
C359 C360 1.397 . S
C359 C364 1.363 . S
C360 H337 0.950 . S
C360 C359 1.397 . S
C360 C361 1.334 . S
C361 H338 0.950 . S
C361 C360 1.334 . S
C361 C362 1.287 . S
C362 C361 1.287 . S
C362 C363 1.524 . S
C362 H381 0.913 . S
C363 H339 0.950 . S
C363 C362 1.524 . S
C363 C364 1.415 . S
C364 H340 0.950 . S
C364 C359 1.363 . S
C364 C363 1.415 . S
C365 H341 0.951 . S
C365 C366 1.366 . S
C365 C367 1.388 . S
C366 C365 1.366 . S
C366 C370 1.385 . S
C367 H342 0.951 . S
C367 C365 1.388 . S
C367 C368 1.366 . S
C368 C367 1.366 . S
C368 C369 1.414 . S
C368 C371 1.499 . S
C369 H343 0.950 . S
C369 C368 1.414 . S
C369 C370 1.374 . S
C370 H344 0.950 . S
C370 C366 1.385 . S
C370 C369 1.374 . S
C371 C368 1.499 . S
C371 C372 1.373 . S
C371 C373 1.389 . S
C372 H345 0.950 . S
C372 C358 1.377 1_455 S
C372 C371 1.373 . S
C373 C357 1.377 1_455 S
C373 C371 1.389 . S
C373 C374 1.524 . S
C374 C373 1.524 . S
C374 C375 1.397 . S
C374 C379 1.363 . S
C375 H346 0.950 . S
C375 C374 1.397 . S
C375 C376 1.334 . S
C376 H347 0.950 . S
C376 C375 1.334 . S
C376 C377 1.287 . S
C377 C376 1.287 . S
C377 C378 1.524 . S
C377 H380 0.999 . S
C378 H348 0.950 . S
C378 C377 1.524 . S
C378 C379 1.415 . S
C379 H349 0.950 . S
C379 C374 1.363 . S
C379 C378 1.415 . S
H380 C377 0.999 . S
H381 C362 0.913 . S
H382 C400 0.951 . S
H383 C402 0.951 . S
H384 C404 0.950 . S
H385 C405 0.950 . S
H386 C407 0.950 . S
H387 C410 0.950 . S
H388 C411 0.950 . S
H389 C413 0.950 . S
H390 C414 0.950 . S
H391 C415 0.951 . S
H392 C417 0.951 . S
H393 C419 0.950 . S
H394 C420 0.950 . S
H395 C422 0.950 . S
H396 C425 0.950 . S
H397 C426 0.950 . S
H398 C428 0.950 . S
H399 C429 0.950 . S
C400 H382 0.951 . S
C400 C401 1.366 . S
C400 C402 1.388 . S
C401 C400 1.366 . S
C401 C405 1.385 . S
C402 H383 0.951 . S
C402 C400 1.388 . S
C402 C403 1.366 . S
C403 C402 1.366 . S
C403 C404 1.414 . S
C403 C406 1.499 . S
C404 H384 0.950 . S
C404 C403 1.414 . S
C404 C405 1.374 . S
C405 H385 0.950 . S
C405 C401 1.385 . S
C405 C404 1.374 . S
C406 C403 1.499 . S
C406 C407 1.373 . S
C406 C408 1.389 . S
C407 H386 0.950 . S
C407 C406 1.373 . S
C407 C423 1.377 1_655 S
C408 C406 1.389 . S
C408 C409 1.524 . S
C408 C422 1.377 1_655 S
C409 C408 1.524 . S
C409 C410 1.397 . S
C409 C414 1.363 . S
C410 H387 0.950 . S
C410 C409 1.397 . S
C410 C411 1.334 . S
C411 H388 0.950 . S
C411 C410 1.334 . S
C411 C412 1.287 . S
C412 C411 1.287 . S
C412 C413 1.524 . S
C412 H431 0.913 . S
C413 H389 0.950 . S
C413 C412 1.524 . S
C413 C414 1.415 . S
C414 H390 0.950 . S
C414 C409 1.363 . S
C414 C413 1.415 . S
C415 H391 0.951 . S
C415 C416 1.366 . S
C415 C417 1.388 . S
C416 C415 1.366 . S
C416 C420 1.385 . S
C417 H392 0.951 . S
C417 C415 1.388 . S
C417 C418 1.366 . S
C418 C417 1.366 . S
C418 C419 1.414 . S
C418 C421 1.499 . S
C419 H393 0.950 . S
C419 C418 1.414 . S
C419 C420 1.374 . S
C420 H394 0.950 . S
C420 C416 1.385 . S
C420 C419 1.374 . S
C421 C418 1.499 . S
C421 C422 1.373 . S
C421 C423 1.389 . S
C422 H395 0.950 . S
C422 C408 1.377 1_455 S
C422 C421 1.373 . S
C423 C407 1.377 1_455 S
C423 C421 1.389 . S
C423 C424 1.524 . S
C424 C423 1.524 . S
C424 C425 1.397 . S
C424 C429 1.363 . S
C425 H396 0.950 . S
C425 C424 1.397 . S
C425 C426 1.334 . S
C426 H397 0.950 . S
C426 C425 1.334 . S
C426 C427 1.287 . S
C427 C426 1.287 . S
C427 C428 1.524 . S
C427 H430 0.999 . S
C428 H398 0.950 . S
C428 C427 1.524 . S
C428 C429 1.415 . S
C429 H399 0.950 . S
C429 C424 1.363 . S
C429 C428 1.415 . S
H430 C427 0.999 . S
H431 C412 0.913 . S
H432 C450 0.951 1_554 S
H433 C452 0.951 . S
H434 C454 0.950 . S
H435 C455 0.950 . S
H436 C457 0.950 . S
H437 C460 0.950 1_556 S
H438 C461 0.950 . S
H439 C463 0.950 . S
H440 C464 0.950 . S
H441 C465 0.951 1_556 S
H442 C467 0.951 . S
H443 C469 0.950 . S
H444 C470 0.950 . S
H445 C472 0.950 . S
H446 C475 0.950 1_554 S
H447 C476 0.950 . S
H448 C478 0.950 . S
H449 C479 0.950 . S
C450 H432 0.951 1_556 S
C450 C451 1.366 . S
C450 C452 1.388 1_556 S
C451 C450 1.366 . S
C451 C455 1.385 . S
C452 H433 0.951 . S
C452 C450 1.388 1_554 S
C452 C453 1.366 1_554 S
C453 C452 1.366 1_556 S
C453 C454 1.414 . S
C453 C456 1.499 . S
C454 H434 0.950 . S
C454 C453 1.414 . S
C454 C455 1.374 . S
C455 H435 0.950 . S
C455 C451 1.385 . S
C455 C454 1.374 . S
C456 C453 1.499 . S
C456 C457 1.373 . S
C456 C458 1.389 1_556 S
C457 H436 0.950 . S
C457 C456 1.373 . S
C457 C473 1.377 . S
C458 C456 1.389 1_554 S
C458 C459 1.524 . S
C458 C472 1.377 . S
C459 C458 1.524 . S
C459 C460 1.397 . S
C459 C464 1.363 . S
C460 H437 0.950 1_554 S
C460 C459 1.397 . S
C460 C461 1.334 . S
C461 H438 0.950 . S
C461 C460 1.334 . S
C461 C462 1.287 . S
C462 C461 1.287 . S
C462 C463 1.524 . S
C462 H481 0.913 . S
C463 H439 0.950 . S
C463 C462 1.524 . S
C463 C464 1.415 . S
C464 H440 0.950 . S
C464 C459 1.363 . S
C464 C463 1.415 . S
C465 H441 0.951 1_554 S
C465 C466 1.366 . S
C465 C467 1.388 1_554 S
C466 C465 1.366 . S
C466 C470 1.385 . S
C467 H442 0.951 . S
C467 C465 1.388 1_556 S
C467 C468 1.366 1_556 S
C468 C467 1.366 1_554 S
C468 C469 1.414 . S
C468 C471 1.499 . S
C469 H443 0.950 . S
C469 C468 1.414 . S
C469 C470 1.374 . S
C470 H444 0.950 . S
C470 C466 1.385 . S
C470 C469 1.374 . S
C471 C468 1.499 . S
C471 C472 1.373 . S
C471 C473 1.389 1_554 S
C472 H445 0.950 . S
C472 C458 1.377 . S
C472 C471 1.373 . S
C473 C457 1.377 . S
C473 C471 1.389 1_556 S
C473 C474 1.524 . S
C474 C473 1.524 . S
C474 C475 1.397 . S
C474 C479 1.363 . S
C475 H446 0.950 1_556 S
C475 C474 1.397 . S
C475 C476 1.334 . S
C476 H447 0.950 . S
C476 C475 1.334 . S
C476 C477 1.287 . S
C477 C476 1.287 . S
C477 C478 1.524 . S
C477 H480 0.999 . S
C478 H448 0.950 . S
C478 C477 1.524 . S
C478 C479 1.415 . S
C479 H449 0.950 . S
C479 C474 1.363 . S
C479 C478 1.415 . S
H480 C477 0.999 . S
H481 C462 0.913 . S
H482 C500 0.951 . S
H483 C502 0.951 . S
H484 C504 0.950 . S
H485 C505 0.950 . S
H486 C507 0.950 . S
H487 C510 0.950 . S
H488 C511 0.950 . S
H489 C513 0.950 . S
H490 C514 0.950 . S
H491 C515 0.951 . S
H492 C517 0.951 . S
H493 C519 0.950 . S
H494 C520 0.950 . S
H495 C522 0.950 . S
H496 C525 0.950 . S
H497 C526 0.950 . S
H498 C528 0.950 . S
H499 C529 0.950 . S
C500 H482 0.951 . S
C500 C501 1.366 . S
C500 C502 1.388 . S
C501 C500 1.366 . S
C501 C505 1.385 . S
C502 H483 0.951 . S
C502 C500 1.388 . S
C502 C503 1.366 . S
C503 C502 1.366 . S
C503 C504 1.414 . S
C503 C506 1.499 . S
C504 H484 0.950 . S
C504 C503 1.414 . S
C504 C505 1.374 . S
C505 H485 0.950 . S
C505 C501 1.385 . S
C505 C504 1.374 . S
C506 C503 1.499 . S
C506 C507 1.373 . S
C506 C508 1.389 . S
C507 H486 0.950 . S
C507 C506 1.373 . S
C507 C523 1.377 . S
C508 C506 1.389 . S
C508 C509 1.524 . S
C508 C522 1.377 . S
C509 C508 1.524 . S
C509 C510 1.397 . S
C509 C514 1.363 . S
C510 H487 0.950 . S
C510 C509 1.397 . S
C510 C511 1.334 . S
C511 H488 0.950 . S
C511 C510 1.334 . S
C511 C512 1.287 . S
C512 C511 1.287 . S
C512 C513 1.524 . S
C512 H531 0.913 . S
C513 H489 0.950 . S
C513 C512 1.524 . S
C513 C514 1.415 . S
C514 H490 0.950 . S
C514 C509 1.363 . S
C514 C513 1.415 . S
C515 H491 0.951 . S
C515 C516 1.366 . S
C515 C517 1.388 . S
C516 C515 1.366 . S
C516 C520 1.385 . S
C517 H492 0.951 . S
C517 C515 1.388 . S
C517 C518 1.366 . S
C518 C517 1.366 . S
C518 C519 1.414 . S
C518 C521 1.499 . S
C519 H493 0.950 . S
C519 C518 1.414 . S
C519 C520 1.374 . S
C520 H494 0.950 . S
C520 C516 1.385 . S
C520 C519 1.374 . S
C521 C518 1.499 . S
C521 C522 1.373 . S
C521 C523 1.389 . S
C522 H495 0.950 . S
C522 C508 1.377 . S
C522 C521 1.373 . S
C523 C507 1.377 . S
C523 C521 1.389 . S
C523 C524 1.524 . S
C524 C523 1.524 . S
C524 C525 1.397 . S
C524 C529 1.363 . S
C525 H496 0.950 . S
C525 C524 1.397 . S
C525 C526 1.334 . S
C526 H497 0.950 . S
C526 C525 1.334 . S
C526 C527 1.287 . S
C527 C526 1.287 . S
C527 C528 1.524 . S
C527 H530 0.999 . S
C528 H498 0.950 . S
C528 C527 1.524 . S
C528 C529 1.415 . S
C529 H499 0.950 . S
C529 C524 1.363 . S
C529 C528 1.415 . S
H530 C527 0.999 . S
H531 C512 0.913 . S
H532 C550 0.951 . S
H533 C552 0.951 . S
H534 C554 0.945 1_556 S
H535 C555 0.950 1_556 S
H536 C557 0.943 . S
H537 C560 0.950 . S
H538 C561 0.950 . S
H539 C563 0.950 . S
H540 C564 0.950 . S
H541 C565 0.951 . S
H542 C567 0.951 . S
H543 C569 0.945 1_554 S
H544 C570 0.950 1_554 S
H545 C572 0.943 . S
H546 C575 0.950 . S
H547 C576 0.950 . S
H548 C578 0.950 . S
H549 C579 0.950 . S
C550 H532 0.951 . S
C550 C551 1.366 . S
C550 C552 1.388 . S
C551 C550 1.366 . S
C551 C555 1.385 . S
C552 H533 0.951 . S
C552 C550 1.388 . S
C552 C553 1.366 . S
C553 C552 1.366 . S
C553 C554 1.417 . S
C553 C556 1.499 . S
C554 H534 0.945 1_554 S
C554 C553 1.417 . S
C554 C555 1.376 . S
C555 H535 0.950 1_554 S
C555 C551 1.385 . S
C555 C554 1.376 . S
C556 C553 1.499 . S
C556 C557 1.376 1_554 S
C556 C558 1.389 . S
C557 H536 0.943 . S
C557 C556 1.376 1_556 S
C557 C573 1.381 . S
C558 C556 1.389 . S
C558 C559 1.524 . S
C558 C572 1.381 . S
C559 C558 1.524 . S
C559 C560 1.397 1_554 S
C559 C564 1.363 . S
C560 H537 0.950 . S
C560 C559 1.397 1_556 S
C560 C561 1.334 . S
C561 H538 0.950 . S
C561 C560 1.334 . S
C561 C562 1.287 1_556 S
C562 C561 1.287 1_554 S
C562 C563 1.524 . S
C562 H581 0.913 . S
C563 H539 0.950 . S
C563 C562 1.524 . S
C563 C564 1.415 . S
C564 H540 0.950 . S
C564 C559 1.363 . S
C564 C563 1.415 . S
C565 H541 0.951 . S
C565 C566 1.366 . S
C565 C567 1.388 . S
C566 C565 1.366 . S
C566 C570 1.385 . S
C567 H542 0.951 . S
C567 C565 1.388 . S
C567 C568 1.366 . S
C568 C567 1.366 . S
C568 C569 1.417 . S
C568 C571 1.499 . S
C569 H543 0.945 1_556 S
C569 C568 1.417 . S
C569 C570 1.376 . S
C570 H544 0.950 1_556 S
C570 C566 1.385 . S
C570 C569 1.376 . S
C571 C568 1.499 . S
C571 C572 1.376 1_556 S
C571 C573 1.389 . S
C572 H545 0.943 . S
C572 C558 1.381 . S
C572 C571 1.376 1_554 S
C573 C557 1.381 . S
C573 C571 1.389 . S
C573 C574 1.524 . S
C574 C573 1.524 . S
C574 C575 1.397 1_556 S
C574 C579 1.363 . S
C575 H546 0.950 . S
C575 C574 1.397 1_554 S
C575 C576 1.334 . S
C576 H547 0.950 . S
C576 C575 1.334 . S
C576 C577 1.287 1_554 S
C577 C576 1.287 1_556 S
C577 C578 1.524 . S
C577 H580 0.999 . S
C578 H548 0.950 . S
C578 C577 1.524 . S
C578 C579 1.415 . S
C579 H549 0.950 . S
C579 C574 1.363 . S
C579 C578 1.415 . S
H580 C577 0.999 . S
H581 C562 0.913 . S
H582 C600 0.951 . S
H583 C602 0.951 . S
H584 C604 0.950 . S
H585 C605 0.950 . S
H586 C607 0.950 . S
H587 C610 0.950 . S
H588 C611 0.950 . S
H589 C613 0.950 . S
H590 C614 0.950 . S
H591 C615 0.951 . S
H592 C617 0.951 . S
H593 C619 0.950 . S
H594 C620 0.950 . S
H595 C622 0.950 . S
H596 C625 0.950 . S
H597 C626 0.950 . S
H598 C628 0.950 . S
H599 C629 0.950 . S
C600 H582 0.951 . S
C600 C601 1.366 . S
C600 C602 1.388 . S
C601 C600 1.366 . S
C601 C605 1.385 . S
C602 H583 0.951 . S
C602 C600 1.388 . S
C602 C603 1.366 . S
C603 C602 1.366 . S
C603 C604 1.414 . S
C603 C606 1.499 . S
C604 H584 0.950 . S
C604 C603 1.414 . S
C604 C605 1.374 . S
C605 H585 0.950 . S
C605 C601 1.385 . S
C605 C604 1.374 . S
C606 C603 1.499 . S
C606 C607 1.373 . S
C606 C608 1.389 . S
C607 H586 0.950 . S
C607 C606 1.373 . S
C607 C623 1.377 . S
C608 C606 1.389 . S
C608 C609 1.524 . S
C608 C622 1.377 . S
C609 C608 1.524 . S
C609 C610 1.397 . S
C609 C614 1.363 . S
C610 H587 0.950 . S
C610 C609 1.397 . S
C610 C611 1.334 . S
C611 H588 0.950 . S
C611 C610 1.334 . S
C611 C612 1.287 . S
C612 C611 1.287 . S
C612 C613 1.524 . S
C612 H631 0.913 . S
C613 H589 0.950 . S
C613 C612 1.524 . S
C613 C614 1.415 . S
C614 H590 0.950 . S
C614 C609 1.363 . S
C614 C613 1.415 . S
C615 H591 0.951 . S
C615 C616 1.366 . S
C615 C617 1.388 . S
C616 C615 1.366 . S
C616 C620 1.385 . S
C617 H592 0.951 . S
C617 C615 1.388 . S
C617 C618 1.366 . S
C618 C617 1.366 . S
C618 C619 1.414 . S
C618 C621 1.499 . S
C619 H593 0.950 . S
C619 C618 1.414 . S
C619 C620 1.374 . S
C620 H594 0.950 . S
C620 C616 1.385 . S
C620 C619 1.374 . S
C621 C618 1.499 . S
C621 C622 1.373 . S
C621 C623 1.389 . S
C622 H595 0.950 . S
C622 C608 1.377 . S
C622 C621 1.373 . S
C623 C607 1.377 . S
C623 C621 1.389 . S
C623 C624 1.524 . S
C624 C623 1.524 . S
C624 C625 1.397 . S
C624 C629 1.363 . S
C625 H596 0.950 . S
C625 C624 1.397 . S
C625 C626 1.334 . S
C626 H597 0.950 . S
C626 C625 1.334 . S
C626 C627 1.287 . S
C627 C626 1.287 . S
C627 C628 1.524 . S
C627 H630 0.999 . S
C628 H598 0.950 . S
C628 C627 1.524 . S
C628 C629 1.415 . S
C629 H599 0.950 . S
C629 C624 1.363 . S
C629 C628 1.415 . S
H630 C627 0.999 . S
H631 C612 0.913 . S
H632 C650 0.951 . S
H633 C652 0.951 . S
H634 C654 0.950 . S
H635 C655 0.950 . S
H636 C657 0.950 . S
H637 C660 0.950 . S
H638 C661 0.950 . S
H639 C663 0.950 . S
H640 C664 0.950 . S
H641 C665 0.951 . S
H642 C667 0.951 . S
H643 C669 0.950 . S
H644 C670 0.950 1_554 S
H645 C672 0.950 . S
H646 C675 0.950 . S
H647 C676 0.950 . S
H648 C678 0.950 . S
H649 C679 0.950 . S
C650 H632 0.951 . S
C650 C651 1.366 . S
C650 C652 1.388 . S
C651 C650 1.366 . S
C651 C655 1.385 . S
C652 H633 0.951 . S
C652 C650 1.388 . S
C652 C653 1.366 . S
C653 C652 1.366 . S
C653 C654 1.414 . S
C653 C656 1.499 . S
C654 H634 0.950 . S
C654 C653 1.414 . S
C654 C655 1.374 . S
C655 H635 0.950 . S
C655 C651 1.385 . S
C655 C654 1.374 . S
C656 C653 1.499 . S
C656 C657 1.373 . S
C656 C658 1.389 . S
C657 H636 0.950 . S
C657 C656 1.373 . S
C657 C673 1.377 . S
C658 C656 1.389 . S
C658 C659 1.524 . S
C658 C672 1.377 . S
C659 C658 1.524 . S
C659 C660 1.397 . S
C659 C664 1.363 . S
C660 H637 0.950 . S
C660 C659 1.397 . S
C660 C661 1.334 . S
C661 H638 0.950 . S
C661 C660 1.334 . S
C661 C662 1.287 . S
C662 C661 1.287 . S
C662 C663 1.524 . S
C662 H681 0.913 . S
C663 H639 0.950 . S
C663 C662 1.524 . S
C663 C664 1.415 . S
C664 H640 0.950 . S
C664 C659 1.363 . S
C664 C663 1.415 . S
C665 H641 0.951 . S
C665 C666 1.366 . S
C665 C667 1.388 . S
C666 C665 1.366 . S
C666 C670 1.385 . S
C667 H642 0.951 . S
C667 C665 1.388 . S
C667 C668 1.366 . S
C668 C667 1.366 . S
C668 C669 1.414 . S
C668 C671 1.499 . S
C669 H643 0.950 . S
C669 C668 1.414 . S
C669 C670 1.374 . S
C670 H644 0.950 1_556 S
C670 C666 1.385 . S
C670 C669 1.374 . S
C671 C668 1.499 . S
C671 C672 1.373 . S
C671 C673 1.389 . S
C672 H645 0.950 . S
C672 C658 1.377 . S
C672 C671 1.373 . S
C673 C657 1.377 . S
C673 C671 1.389 . S
C673 C674 1.524 . S
C674 C673 1.524 . S
C674 C675 1.397 . S
C674 C679 1.363 . S
C675 H646 0.950 . S
C675 C674 1.397 . S
C675 C676 1.334 . S
C676 H647 0.950 . S
C676 C675 1.334 . S
C676 C677 1.287 . S
C677 C676 1.287 . S
C677 C678 1.524 . S
C677 H680 0.999 . S
C678 H648 0.950 . S
C678 C677 1.524 . S
C678 C679 1.415 . S
C679 H649 0.950 . S
C679 C674 1.363 . S
C679 C678 1.415 . S
H680 C677 0.999 . S
H681 C662 0.913 . S
H682 C700 0.951 . S
H683 C702 0.951 . S
H684 C704 0.950 . S
H685 C705 0.950 . S
H686 C707 0.950 . S
H687 C710 0.950 . S
H688 C711 0.950 . S
H689 C713 0.950 . S
H690 C714 0.950 . S
H691 C715 0.951 . S
H692 C717 0.951 . S
H693 C719 0.950 . S
H694 C720 0.950 . S
H695 C722 0.950 . S
H696 C725 0.950 . S
H697 C726 0.950 . S
H698 C728 0.950 . S
H699 C729 0.950 . S
C700 H682 0.951 . S
C700 C701 1.366 . S
C700 C702 1.388 . S
C701 C700 1.366 . S
C701 C705 1.385 . S
C702 H683 0.951 . S
C702 C700 1.388 . S
C702 C703 1.366 . S
C703 C702 1.366 . S
C703 C704 1.414 . S
C703 C706 1.499 . S
C704 H684 0.950 . S
C704 C703 1.414 . S
C704 C705 1.374 . S
C705 H685 0.950 . S
C705 C701 1.385 . S
C705 C704 1.374 . S
C706 C703 1.499 . S
C706 C707 1.373 . S
C706 C708 1.389 . S
C707 H686 0.950 . S
C707 C706 1.373 . S
C707 C723 1.377 . S
C708 C706 1.389 . S
C708 C709 1.524 . S
C708 C722 1.377 . S
C709 C708 1.524 . S
C709 C710 1.397 . S
C709 C714 1.363 . S
C710 H687 0.950 . S
C710 C709 1.397 . S
C710 C711 1.334 . S
C711 H688 0.950 . S
C711 C710 1.334 . S
C711 C712 1.287 . S
C712 C711 1.287 . S
C712 C713 1.524 . S
C712 H731 0.913 . S
C713 H689 0.950 . S
C713 C712 1.524 . S
C713 C714 1.415 . S
C714 H690 0.950 . S
C714 C709 1.363 . S
C714 C713 1.415 . S
C715 H691 0.951 . S
C715 C716 1.366 . S
C715 C717 1.388 . S
C716 C715 1.366 . S
C716 C720 1.385 . S
C717 H692 0.951 . S
C717 C715 1.388 . S
C717 C718 1.366 . S
C718 C717 1.366 . S
C718 C719 1.414 . S
C718 C721 1.499 . S
C719 H693 0.950 . S
C719 C718 1.414 . S
C719 C720 1.374 . S
C720 H694 0.950 . S
C720 C716 1.385 . S
C720 C719 1.374 . S
C721 C718 1.499 . S
C721 C722 1.373 . S
C721 C723 1.389 . S
C722 H695 0.950 . S
C722 C708 1.377 . S
C722 C721 1.373 . S
C723 C707 1.377 . S
C723 C721 1.389 . S
C723 C724 1.524 . S
C724 C723 1.524 . S
C724 C725 1.397 . S
C724 C729 1.363 . S
C725 H696 0.950 . S
C725 C724 1.397 . S
C725 C726 1.334 . S
C726 H697 0.950 . S
C726 C725 1.334 . S
C726 C727 1.287 . S
C727 C726 1.287 . S
C727 C728 1.524 . S
C727 H730 0.999 . S
C728 H698 0.950 . S
C728 C727 1.524 . S
C728 C729 1.415 . S
C729 H699 0.950 . S
C729 C724 1.363 . S
C729 C728 1.415 . S
H730 C727 0.999 . S
H731 C712 0.913 . S
H732 C750 0.951 . S
H733 C752 0.951 . S
H734 C754 0.950 . S
H735 C755 0.950 . S
H736 C757 0.950 . S
H737 C760 0.950 . S
H738 C761 0.950 . S
H739 C763 0.950 . S
H740 C764 0.950 . S
H741 C765 0.951 1_556 S
H742 C767 0.951 . S
H743 C769 0.950 . S
H744 C770 0.950 . S
H745 C772 0.950 . S
H746 C775 0.950 . S
H747 C776 0.950 . S
H748 C778 0.950 1_556 S
H749 C779 0.950 . S
C750 H732 0.951 . S
C750 C751 1.366 . S
C750 C752 1.388 . S
C751 C750 1.366 . S
C751 C755 1.385 . S
C752 H733 0.951 . S
C752 C750 1.388 . S
C752 C753 1.366 . S
C753 C752 1.366 . S
C753 C754 1.414 . S
C753 C756 1.499 . S
C754 H734 0.950 . S
C754 C753 1.414 . S
C754 C755 1.374 . S
C755 H735 0.950 . S
C755 C751 1.385 . S
C755 C754 1.374 . S
C756 C753 1.499 . S
C756 C757 1.373 . S
C756 C758 1.389 . S
C757 H736 0.950 . S
C757 C756 1.373 . S
C757 C773 1.377 . S
C758 C756 1.389 . S
C758 C759 1.524 . S
C758 C772 1.377 . S
C759 C758 1.524 . S
C759 C760 1.397 . S
C759 C764 1.363 . S
C760 H737 0.950 . S
C760 C759 1.397 . S
C760 C761 1.334 . S
C761 H738 0.950 . S
C761 C760 1.334 . S
C761 C762 1.287 . S
C762 C761 1.287 . S
C762 C763 1.524 . S
C762 H781 0.913 . S
C763 H739 0.950 . S
C763 C762 1.524 . S
C763 C764 1.415 . S
C764 H740 0.950 . S
C764 C759 1.363 . S
C764 C763 1.415 . S
C765 H741 0.951 1_554 S
C765 C766 1.366 . S
C765 C767 1.388 . S
C766 C765 1.366 . S
C766 C770 1.385 . S
C767 H742 0.951 . S
C767 C765 1.388 . S
C767 C768 1.366 . S
C768 C767 1.366 . S
C768 C769 1.414 . S
C768 C771 1.499 . S
C769 H743 0.950 . S
C769 C768 1.414 . S
C769 C770 1.374 . S
C770 H744 0.950 . S
C770 C766 1.385 . S
C770 C769 1.374 . S
C771 C768 1.499 . S
C771 C772 1.373 . S
C771 C773 1.389 . S
C772 H745 0.950 . S
C772 C758 1.377 . S
C772 C771 1.373 . S
C773 C757 1.377 . S
C773 C771 1.389 . S
C773 C774 1.524 . S
C774 C773 1.524 . S
C774 C775 1.397 . S
C774 C779 1.363 . S
C775 H746 0.950 . S
C775 C774 1.397 . S
C775 C776 1.334 . S
C776 H747 0.950 . S
C776 C775 1.334 . S
C776 C777 1.287 . S
C777 C776 1.287 . S
C777 C778 1.524 . S
C777 H780 0.999 1_554 S
C778 H748 0.950 1_554 S
C778 C777 1.524 . S
C778 C779 1.415 . S
C779 H749 0.950 . S
C779 C774 1.363 . S
C779 C778 1.415 . S
H780 C777 0.999 1_556 S
H781 C762 0.913 . S
H782 C800 0.951 . S
H783 C802 0.951 . S
H784 C804 0.950 . S
H785 C805 0.950 . S
H786 C807 0.950 . S
H787 C810 0.950 . S
H788 C811 0.950 . S
H789 C813 0.950 . S
H790 C814 0.950 . S
H791 C815 0.951 . S
H792 C817 0.951 . S
H793 C819 0.950 . S
H794 C820 0.950 . S
H795 C822 0.950 . S
H796 C825 0.950 . S
H797 C826 0.950 . S
H798 C828 0.950 . S
H799 C829 0.950 . S
C800 H782 0.951 . S
C800 C801 1.366 . S
C800 C802 1.388 . S
C801 C800 1.366 . S
C801 C805 1.385 . S
C802 H783 0.951 . S
C802 C800 1.388 . S
C802 C803 1.366 . S
C803 C802 1.366 . S
C803 C804 1.414 . S
C803 C806 1.499 . S
C804 H784 0.950 . S
C804 C803 1.414 . S
C804 C805 1.374 . S
C805 H785 0.950 . S
C805 C801 1.385 . S
C805 C804 1.374 . S
C806 C803 1.499 . S
C806 C807 1.373 . S
C806 C808 1.389 . S
C807 H786 0.950 . S
C807 C806 1.373 . S
C807 C823 1.377 . S
C808 C806 1.389 . S
C808 C809 1.524 . S
C808 C822 1.377 . S
C809 C808 1.524 . S
C809 C810 1.397 . S
C809 C814 1.363 . S
C810 H787 0.950 . S
C810 C809 1.397 . S
C810 C811 1.334 . S
C811 H788 0.950 . S
C811 C810 1.334 . S
C811 C812 1.287 . S
C812 C811 1.287 . S
C812 C813 1.524 . S
C812 H831 0.913 . S
C813 H789 0.950 . S
C813 C812 1.524 . S
C813 C814 1.415 . S
C814 H790 0.950 . S
C814 C809 1.363 . S
C814 C813 1.415 . S
C815 H791 0.951 . S
C815 C816 1.366 . S
C815 C817 1.388 . S
C816 C815 1.366 . S
C816 C820 1.385 . S
C817 H792 0.951 . S
C817 C815 1.388 . S
C817 C818 1.366 . S
C818 C817 1.366 . S
C818 C819 1.414 . S
C818 C821 1.499 . S
C819 H793 0.950 . S
C819 C818 1.414 . S
C819 C820 1.374 . S
C820 H794 0.950 . S
C820 C816 1.385 . S
C820 C819 1.374 . S
C821 C818 1.499 . S
C821 C822 1.373 . S
C821 C823 1.389 . S
C822 H795 0.950 . S
C822 C808 1.377 . S
C822 C821 1.373 . S
C823 C807 1.377 . S
C823 C821 1.389 . S
C823 C824 1.524 . S
C824 C823 1.524 . S
C824 C825 1.397 . S
C824 C829 1.363 . S
C825 H796 0.950 . S
C825 C824 1.397 . S
C825 C826 1.334 . S
C826 H797 0.950 . S
C826 C825 1.334 . S
C826 C827 1.287 . S
C827 C826 1.287 . S
C827 C828 1.524 . S
C827 H830 0.999 . S
C828 H798 0.950 . S
C828 C827 1.524 . S
C828 C829 1.415 . S
C829 H799 0.950 . S
C829 C824 1.363 . S
C829 C828 1.415 . S
H830 C827 0.999 . S
H831 C812 0.913 . S
H832 C850 0.951 . S
H833 C852 0.951 . S
H834 C854 0.950 . S
H835 C855 0.950 1_554 S
H836 C857 0.950 . S
H837 C860 0.950 . S
H838 C861 0.950 . S
H839 C863 0.950 . S
H840 C864 0.950 . S
H841 C865 0.951 . S
H842 C867 0.951 . S
H843 C869 0.950 . S
H844 C870 0.950 . S
H845 C872 0.950 . S
H846 C875 0.950 . S
H847 C876 0.950 . S
H848 C878 0.950 . S
H849 C879 0.950 . S
C850 H832 0.951 . S
C850 C851 1.366 . S
C850 C852 1.388 . S
C851 C850 1.366 . S
C851 C855 1.385 . S
C852 H833 0.951 . S
C852 C850 1.388 . S
C852 C853 1.366 . S
C853 C852 1.366 . S
C853 C854 1.414 . S
C853 C856 1.499 . S
C854 H834 0.950 . S
C854 C853 1.414 . S
C854 C855 1.374 . S
C855 H835 0.950 1_556 S
C855 C851 1.385 . S
C855 C854 1.374 . S
C856 C853 1.499 . S
C856 C857 1.373 . S
C856 C858 1.389 . S
C857 H836 0.950 . S
C857 C856 1.373 . S
C857 C873 1.377 1_565 S
C858 C856 1.389 . S
C858 C859 1.524 . S
C858 C872 1.377 . S
C859 C858 1.524 . S
C859 C860 1.397 . S
C859 C864 1.363 . S
C860 H837 0.950 . S
C860 C859 1.397 . S
C860 C861 1.334 . S
C861 H838 0.950 . S
C861 C860 1.334 . S
C861 C862 1.287 . S
C862 C861 1.287 . S
C862 C863 1.524 . S
C862 H881 0.913 . S
C863 H839 0.950 . S
C863 C862 1.524 . S
C863 C864 1.415 . S
C864 H840 0.950 . S
C864 C859 1.363 . S
C864 C863 1.415 . S
C865 H841 0.951 . S
C865 C866 1.366 . S
C865 C867 1.388 . S
C866 C865 1.366 . S
C866 C870 1.385 . S
C867 H842 0.951 . S
C867 C865 1.388 . S
C867 C868 1.366 . S
C868 C867 1.366 . S
C868 C869 1.414 . S
C868 C871 1.499 . S
C869 H843 0.950 . S
C869 C868 1.414 . S
C869 C870 1.374 . S
C870 H844 0.950 . S
C870 C866 1.385 . S
C870 C869 1.374 . S
C871 C868 1.499 . S
C871 C872 1.373 1_545 S
C871 C873 1.389 . S
C872 H845 0.950 . S
C872 C858 1.377 . S
C872 C871 1.373 1_565 S
C873 C857 1.377 1_545 S
C873 C871 1.389 . S
C873 C874 1.524 . S
C874 C873 1.524 . S
C874 C875 1.397 . S
C874 C879 1.363 . S
C875 H846 0.950 . S
C875 C874 1.397 . S
C875 C876 1.334 . S
C876 H847 0.950 . S
C876 C875 1.334 . S
C876 C877 1.287 . S
C877 C876 1.287 . S
C877 C878 1.524 . S
C877 H880 0.999 . S
C878 H848 0.950 . S
C878 C877 1.524 . S
C878 C879 1.415 . S
C879 H849 0.950 . S
C879 C874 1.363 . S
C879 C878 1.415 . S
H880 C877 0.999 . S
H881 C862 0.913 . S
H882 C900 0.951 . S
H883 C902 0.951 . S
H884 C904 0.950 . S
H885 C905 0.950 . S
H886 C907 0.950 . S
H887 C910 0.950 . S
H888 C911 0.950 . S
H889 C913 0.950 . S
H890 C914 0.950 1_565 S
H891 C915 0.951 . S
H892 C917 0.951 . S
H893 C919 0.950 . S
H894 C920 0.950 . S
H895 C922 0.950 . S
H896 C925 0.950 . S
H897 C926 0.950 . S
H898 C928 0.950 . S
H899 C929 0.950 . S
C900 H882 0.951 . S
C900 C901 1.366 . S
C900 C902 1.388 . S
C901 C900 1.366 . S
C901 C905 1.385 . S
C902 H883 0.951 . S
C902 C900 1.388 . S
C902 C903 1.366 . S
C903 C902 1.366 . S
C903 C904 1.414 . S
C903 C906 1.499 . S
C904 H884 0.950 . S
C904 C903 1.414 . S
C904 C905 1.374 . S
C905 H885 0.950 . S
C905 C901 1.385 . S
C905 C904 1.374 . S
C906 C903 1.499 . S
C906 C907 1.373 1_545 S
C906 C908 1.389 . S
C907 H886 0.950 . S
C907 C906 1.373 1_565 S
C907 C923 1.377 . S
C908 C906 1.389 . S
C908 C909 1.524 . S
C908 C922 1.377 1_545 S
C909 C908 1.524 . S
C909 C910 1.397 . S
C909 C914 1.363 . S
C910 H887 0.950 . S
C910 C909 1.397 . S
C910 C911 1.334 . S
C911 H888 0.950 . S
C911 C910 1.334 . S
C911 C912 1.287 . S
C912 C911 1.287 . S
C912 C913 1.524 . S
C912 H931 0.913 . S
C913 H889 0.950 . S
C913 C912 1.524 . S
C913 C914 1.415 . S
C914 H890 0.950 1_545 S
C914 C909 1.363 . S
C914 C913 1.415 . S
C915 H891 0.951 . S
C915 C916 1.366 . S
C915 C917 1.388 . S
C916 C915 1.366 . S
C916 C920 1.385 . S
C917 H892 0.951 . S
C917 C915 1.388 . S
C917 C918 1.366 . S
C918 C917 1.366 . S
C918 C919 1.414 . S
C918 C921 1.499 . S
C919 H893 0.950 . S
C919 C918 1.414 . S
C919 C920 1.374 . S
C920 H894 0.950 . S
C920 C916 1.385 . S
C920 C919 1.374 . S
C921 C918 1.499 . S
C921 C922 1.373 . S
C921 C923 1.389 . S
C922 H895 0.950 . S
C922 C908 1.377 1_565 S
C922 C921 1.373 . S
C923 C907 1.377 . S
C923 C921 1.389 . S
C923 C924 1.524 . S
C924 C923 1.524 . S
C924 C925 1.397 . S
C924 C929 1.363 . S
C925 H896 0.950 . S
C925 C924 1.397 . S
C925 C926 1.334 . S
C926 H897 0.950 . S
C926 C925 1.334 . S
C926 C927 1.287 . S
C927 C926 1.287 . S
C927 C928 1.524 . S
C927 H930 0.999 . S
C928 H898 0.950 . S
C928 C927 1.524 . S
C928 C929 1.415 . S
C929 H899 0.950 . S
C929 C924 1.363 . S
C929 C928 1.415 . S
H930 C927 0.999 . S
H931 C912 0.913 . S
H932 C950 0.951 . S
H933 C952 0.951 . S
H934 C954 0.950 . S
H935 C955 0.950 . S
H936 C957 0.950 . S
H937 C960 0.950 . S
H938 C961 0.950 . S
H939 C963 0.950 . S
H940 C964 0.950 . S
H941 C965 0.951 . S
H942 C967 0.951 . S
H943 C969 0.950 . S
H944 C970 0.950 1_556 S
H945 C972 0.950 . S
H946 C975 0.950 . S
H947 C976 0.950 . S
H948 C978 0.950 . S
H949 C979 0.950 . S
C950 H932 0.951 . S
C950 C951 1.366 . S
C950 C952 1.388 . S
C951 C950 1.366 . S
C951 C955 1.385 . S
C952 H933 0.951 . S
C952 C950 1.388 . S
C952 C953 1.366 . S
C953 C952 1.366 . S
C953 C954 1.414 . S
C953 C956 1.499 . S
C954 H934 0.950 . S
C954 C953 1.414 . S
C954 C955 1.374 . S
C955 H935 0.950 . S
C955 C951 1.385 . S
C955 C954 1.374 . S
C956 C953 1.499 . S
C956 C957 1.373 1_565 S
C956 C958 1.389 . S
C957 H936 0.950 . S
C957 C956 1.373 1_545 S
C957 C973 1.377 . S
C958 C956 1.389 . S
C958 C959 1.524 . S
C958 C972 1.377 1_565 S
C959 C958 1.524 . S
C959 C960 1.397 . S
C959 C964 1.363 . S
C960 H937 0.950 . S
C960 C959 1.397 . S
C960 C961 1.334 . S
C961 H938 0.950 . S
C961 C960 1.334 . S
C961 C962 1.287 . S
C962 C961 1.287 . S
C962 C963 1.524 . S
C962 H981 0.913 . S
C963 H939 0.950 . S
C963 C962 1.524 . S
C963 C964 1.415 . S
C964 H940 0.950 . S
C964 C959 1.363 . S
C964 C963 1.415 . S
C965 H941 0.951 . S
C965 C966 1.366 . S
C965 C967 1.388 . S
C966 C965 1.366 . S
C966 C970 1.385 . S
C967 H942 0.951 . S
C967 C965 1.388 . S
C967 C968 1.366 . S
C968 C967 1.366 . S
C968 C969 1.414 . S
C968 C971 1.499 . S
C969 H943 0.950 . S
C969 C968 1.414 . S
C969 C970 1.374 . S
C970 H944 0.950 1_554 S
C970 C966 1.385 . S
C970 C969 1.374 . S
C971 C968 1.499 . S
C971 C972 1.373 . S
C971 C973 1.389 . S
C972 H945 0.950 . S
C972 C958 1.377 1_545 S
C972 C971 1.373 . S
C973 C957 1.377 . S
C973 C971 1.389 . S
C973 C974 1.524 . S
C974 C973 1.524 . S
C974 C975 1.397 . S
C974 C979 1.363 . S
C975 H946 0.950 . S
C975 C974 1.397 . S
C975 C976 1.334 . S
C976 H947 0.950 . S
C976 C975 1.334 . S
C976 C977 1.287 . S
C977 C976 1.287 . S
C977 C978 1.524 . S
C977 H980 0.999 . S
C978 H948 0.950 . S
C978 C977 1.524 . S
C978 C979 1.415 . S
C979 H949 0.950 . S
C979 C974 1.363 . S
C979 C978 1.415 . S
H980 C977 0.999 . S
H981 C962 0.913 . S
H982 C1000 0.951 . S
H983 C1002 0.951 . S
H984 C1004 0.941 1_545 S
H985 C1005 0.950 . S
H986 C1007 0.950 . S
H987 C1010 0.950 . S
H988 C1011 0.942 1_545 S
H989 C1013 0.950 . S
H990 C1014 0.950 . S
H991 C1015 0.951 . S
H992 C1017 0.951 . S
H993 C1019 0.950 . S
H994 C1020 0.950 . S
H995 C1022 0.950 . S
H996 C1025 0.950 . S
H997 C1026 0.950 . S
H998 C1028 0.950 . S
H999 C1029 0.950 . S
C1000 H982 0.951 . S
C1000 C1001 1.366 . S
C1000 C1002 1.388 . S
C1001 C1000 1.366 . S
C1001 C1005 1.385 . S
C1002 H983 0.951 . S
C1002 C1000 1.388 . S
C1002 C1003 1.366 . S
C1003 C1002 1.366 . S
C1003 C1004 1.414 . S
C1003 C1006 1.499 . S
C1004 H984 0.941 1_565 S
C1004 C1003 1.414 . S
C1004 C1005 1.374 . S
C1005 H985 0.950 . S
C1005 C1001 1.385 . S
C1005 C1004 1.374 . S
C1006 C1003 1.499 . S
C1006 C1007 1.373 1_565 S
C1006 C1008 1.389 1_565 S
C1007 H986 0.950 . S
C1007 C1006 1.373 1_545 S
C1007 C1023 1.377 . S
C1008 C1006 1.389 1_545 S
C1008 C1009 1.524 1_545 S
C1008 C1022 1.377 . S
C1009 C1008 1.524 1_565 S
C1009 C1010 1.397 1_565 S
C1009 C1014 1.363 . S
C1010 H987 0.950 . S
C1010 C1009 1.397 1_545 S
C1010 C1011 1.325 1_545 S
C1011 H988 0.942 1_565 S
C1011 C1010 1.325 1_565 S
C1011 C1012 1.307 . S
C1012 C1011 1.307 . S
C1012 C1013 1.524 . S
C1012 H1031 0.913 . S
C1013 H989 0.950 . S
C1013 C1012 1.524 . S
C1013 C1014 1.415 . S
C1014 H990 0.950 . S
C1014 C1009 1.363 . S
C1014 C1013 1.415 . S
C1015 H991 0.951 . S
C1015 C1016 1.366 . S
C1015 C1017 1.388 . S
C1016 C1015 1.366 . S
C1016 C1020 1.385 . S
C1017 H992 0.951 . S
C1017 C1015 1.388 . S
C1017 C1018 1.366 . S
C1018 C1017 1.366 . S
C1018 C1019 1.414 . S
C1018 C1021 1.499 . S
C1019 H993 0.950 . S
C1019 C1018 1.414 . S
C1019 C1020 1.374 . S
C1020 H994 0.950 . S
C1020 C1016 1.385 . S
C1020 C1019 1.374 . S
C1021 C1018 1.499 . S
C1021 C1022 1.373 . S
C1021 C1023 1.389 . S
C1022 H995 0.950 . S
C1022 C1008 1.377 . S
C1022 C1021 1.373 . S
C1023 C1007 1.377 . S
C1023 C1021 1.389 . S
C1023 C1024 1.524 . S
C1024 C1023 1.524 . S
C1024 C1025 1.397 . S
C1024 C1029 1.363 . S
C1025 H996 0.950 . S
C1025 C1024 1.397 . S
C1025 C1026 1.334 . S
C1026 H997 0.950 . S
C1026 C1025 1.334 . S
C1026 C1027 1.287 . S
C1027 C1026 1.287 . S
C1027 C1028 1.524 . S
C1027 H1030 0.999 . S
C1028 H998 0.950 . S
C1028 C1027 1.524 . S
C1028 C1029 1.415 . S
C1029 H999 0.950 . S
C1029 C1024 1.363 . S
C1029 C1028 1.415 . S
H1030 C1027 0.999 . S
H1031 C1012 0.913 . S
H1032 C1050 0.951 . S
H1033 C1052 0.951 . S
H1034 C1054 0.950 . S
H1035 C1055 0.950 . S
H1036 C1057 0.950 . S
H1037 C1060 0.950 . S
H1038 C1061 0.950 . S
H1039 C1063 0.950 . S
H1040 C1064 0.950 . S
H1041 C1065 0.951 . S
H1042 C1067 0.951 . S
H1043 C1069 0.950 . S
H1044 C1070 0.950 . S
H1045 C1072 0.950 . S
H1046 C1075 0.950 . S
H1047 C1076 0.950 . S
H1048 C1078 0.950 . S
H1049 C1079 0.950 . S
C1050 H1032 0.951 . S
C1050 C1051 1.366 . S
C1050 C1052 1.388 . S
C1051 C1050 1.366 . S
C1051 C1055 1.385 . S
C1052 H1033 0.951 . S
C1052 C1050 1.388 . S
C1052 C1053 1.366 . S
C1053 C1052 1.366 . S
C1053 C1054 1.414 . S
C1053 C1056 1.499 . S
C1054 H1034 0.950 . S
C1054 C1053 1.414 . S
C1054 C1055 1.374 . S
C1055 H1035 0.950 . S
C1055 C1051 1.385 . S
C1055 C1054 1.374 . S
C1056 C1053 1.499 . S
C1056 C1057 1.373 . S
C1056 C1058 1.391 1_655 S
C1057 H1036 0.950 . S
C1057 C1056 1.373 . S
C1057 C1073 1.374 1_556 S
C1058 C1056 1.391 1_455 S
C1058 C1059 1.522 . S
C1058 C1072 1.374 1_556 S
C1059 C1058 1.522 . S
C1059 C1060 1.419 . S
C1059 C1064 1.346 1_556 S
C1060 H1037 0.950 . S
C1060 C1059 1.419 . S
C1060 C1061 1.334 . S
C1061 H1038 0.950 . S
C1061 C1060 1.334 . S
C1061 C1062 1.287 . S
C1062 C1061 1.287 . S
C1062 C1063 1.524 1_556 S
C1062 H1081 0.913 . S
C1063 H1039 0.950 . S
C1063 C1062 1.524 1_554 S
C1063 C1064 1.415 . S
C1064 H1040 0.950 . S
C1064 C1059 1.346 1_554 S
C1064 C1063 1.415 . S
C1065 H1041 0.951 . S
C1065 C1066 1.366 . S
C1065 C1067 1.388 . S
C1066 C1065 1.366 . S
C1066 C1070 1.385 . S
C1067 H1042 0.951 . S
C1067 C1065 1.388 . S
C1067 C1068 1.366 . S
C1068 C1067 1.366 . S
C1068 C1069 1.414 . S
C1068 C1071 1.499 . S
C1069 H1043 0.950 . S
C1069 C1068 1.414 . S
C1069 C1070 1.374 . S
C1070 H1044 0.950 . S
C1070 C1066 1.385 . S
C1070 C1069 1.374 . S
C1071 C1068 1.499 . S
C1071 C1072 1.373 . S
C1071 C1073 1.391 1_455 S
C1072 H1045 0.950 . S
C1072 C1058 1.374 1_554 S
C1072 C1071 1.373 . S
C1073 C1057 1.374 1_554 S
C1073 C1071 1.391 1_655 S
C1073 C1074 1.522 . S
C1074 C1073 1.522 . S
C1074 C1075 1.419 . S
C1074 C1079 1.346 1_554 S
C1075 H1046 0.950 . S
C1075 C1074 1.419 . S
C1075 C1076 1.334 . S
C1076 H1047 0.950 . S
C1076 C1075 1.334 . S
C1076 C1077 1.287 . S
C1077 C1076 1.287 . S
C1077 C1078 1.524 1_554 S
C1077 H1080 0.999 . S
C1078 H1048 0.950 . S
C1078 C1077 1.524 1_556 S
C1078 C1079 1.415 . S
C1079 H1049 0.950 . S
C1079 C1074 1.346 1_556 S
C1079 C1078 1.415 . S
H1080 C1077 0.999 . S
H1081 C1062 0.913 . S
H1082 C1100 0.951 . S
H1083 C1102 0.951 . S
H1084 C1104 0.950 . S
H1085 C1105 0.950 . S
H1086 C1107 0.950 . S
H1087 C1110 0.950 . S
H1088 C1111 0.950 . S
H1089 C1113 0.950 . S
H1090 C1114 0.950 . S
H1091 C1115 0.951 . S
H1092 C1117 0.951 . S
H1093 C1119 0.950 . S
H1094 C1120 0.950 . S
H1095 C1122 0.950 . S
H1096 C1125 0.950 . S
H1097 C1126 0.950 . S
H1098 C1128 0.950 . S
H1099 C1129 0.950 . S
C1100 H1082 0.951 . S
C1100 C1101 1.366 . S
C1100 C1102 1.388 . S
C1101 C1100 1.366 . S
C1101 C1105 1.385 . S
C1102 H1083 0.951 . S
C1102 C1100 1.388 . S
C1102 C1103 1.366 . S
C1103 C1102 1.366 . S
C1103 C1104 1.414 . S
C1103 C1106 1.499 . S
C1104 H1084 0.950 . S
C1104 C1103 1.414 . S
C1104 C1105 1.374 . S
C1105 H1085 0.950 . S
C1105 C1101 1.385 . S
C1105 C1104 1.374 . S
C1106 C1103 1.499 . S
C1106 C1107 1.373 . S
C1106 C1108 1.389 . S
C1107 H1086 0.950 . S
C1107 C1106 1.373 . S
C1107 C1123 1.377 1_455 S
C1108 C1106 1.389 . S
C1108 C1109 1.524 . S
C1108 C1122 1.377 1_455 S
C1109 C1108 1.524 . S
C1109 C1110 1.397 . S
C1109 C1114 1.363 1_455 S
C1110 H1087 0.950 . S
C1110 C1109 1.397 . S
C1110 C1111 1.334 . S
C1111 H1088 0.950 . S
C1111 C1110 1.334 . S
C1111 C1112 1.287 . S
C1112 C1111 1.287 . S
C1112 C1113 1.524 1_455 S
C1112 H1131 0.913 . S
C1113 H1089 0.950 . S
C1113 C1112 1.524 1_655 S
C1113 C1114 1.415 . S
C1114 H1090 0.950 . S
C1114 C1109 1.363 1_655 S
C1114 C1113 1.415 . S
C1115 H1091 0.951 . S
C1115 C1116 1.366 . S
C1115 C1117 1.388 . S
C1116 C1115 1.366 . S
C1116 C1120 1.385 . S
C1117 H1092 0.951 . S
C1117 C1115 1.388 . S
C1117 C1118 1.366 . S
C1118 C1117 1.366 . S
C1118 C1119 1.414 . S
C1118 C1121 1.499 . S
C1119 H1093 0.950 . S
C1119 C1118 1.414 . S
C1119 C1120 1.374 . S
C1120 H1094 0.950 . S
C1120 C1116 1.385 . S
C1120 C1119 1.374 . S
C1121 C1118 1.499 . S
C1121 C1122 1.373 . S
C1121 C1123 1.389 . S
C1122 H1095 0.950 . S
C1122 C1108 1.377 1_655 S
C1122 C1121 1.373 . S
C1123 C1107 1.377 1_655 S
C1123 C1121 1.389 . S
C1123 C1124 1.524 . S
C1124 C1123 1.524 . S
C1124 C1125 1.397 . S
C1124 C1129 1.363 1_655 S
C1125 H1096 0.950 . S
C1125 C1124 1.397 . S
C1125 C1126 1.334 . S
C1126 H1097 0.950 . S
C1126 C1125 1.334 . S
C1126 C1127 1.287 . S
C1127 C1126 1.287 . S
C1127 C1128 1.524 1_655 S
C1127 H1130 0.999 . S
C1128 H1098 0.950 . S
C1128 C1127 1.524 1_455 S
C1128 C1129 1.415 . S
C1129 H1099 0.950 . S
C1129 C1124 1.363 1_455 S
C1129 C1128 1.415 . S
H1130 C1127 0.999 . S
H1131 C1112 0.913 . S
H1132 C1150 0.951 . S
H1133 C1152 0.951 . S
H1134 C1154 0.950 . S
H1135 C1155 0.950 . S
H1136 C1157 0.950 . S
H1137 C1160 0.950 . S
H1138 C1161 0.950 . S
H1139 C1163 0.950 . S
H1140 C1164 0.950 . S
H1141 C1165 0.951 . S
H1142 C1167 0.951 . S
H1143 C1169 0.950 . S
H1144 C1170 0.950 . S
H1145 C1172 0.950 . S
H1146 C1175 0.950 . S
H1147 C1176 0.950 . S
H1148 C1178 0.950 . S
H1149 C1179 0.950 . S
C1150 H1132 0.951 . S
C1150 C1151 1.366 . S
C1150 C1152 1.388 . S
C1151 C1150 1.366 . S
C1151 C1155 1.385 . S
C1152 H1133 0.951 . S
C1152 C1150 1.388 . S
C1152 C1153 1.366 . S
C1153 C1152 1.366 . S
C1153 C1154 1.414 . S
C1153 C1156 1.499 . S
C1154 H1134 0.950 . S
C1154 C1153 1.414 . S
C1154 C1155 1.374 . S
C1155 H1135 0.950 . S
C1155 C1151 1.385 . S
C1155 C1154 1.374 . S
C1156 C1153 1.499 . S
C1156 C1157 1.373 . S
C1156 C1158 1.389 1_545 S
C1157 H1136 0.950 . S
C1157 C1156 1.373 . S
C1157 C1173 1.377 1_556 S
C1158 C1156 1.389 1_565 S
C1158 C1159 1.524 . S
C1158 C1172 1.377 1_556 S
C1159 C1158 1.524 . S
C1159 C1160 1.397 1_566 S
C1159 C1164 1.363 . S
C1160 H1137 0.950 . S
C1160 C1159 1.397 1_544 S
C1160 C1161 1.334 . S
C1161 H1138 0.950 . S
C1161 C1160 1.334 . S
C1161 C1162 1.287 1_544 S
C1162 C1161 1.287 1_566 S
C1162 C1163 1.524 . S
C1162 H1181 0.913 . S
C1163 H1139 0.950 . S
C1163 C1162 1.524 . S
C1163 C1164 1.415 . S
C1164 H1140 0.950 . S
C1164 C1159 1.363 . S
C1164 C1163 1.415 . S
C1165 H1141 0.951 . S
C1165 C1166 1.366 . S
C1165 C1167 1.388 . S
C1166 C1165 1.366 . S
C1166 C1170 1.385 . S
C1167 H1142 0.951 . S
C1167 C1165 1.388 . S
C1167 C1168 1.366 . S
C1168 C1167 1.366 . S
C1168 C1169 1.414 . S
C1168 C1171 1.499 . S
C1169 H1143 0.950 . S
C1169 C1168 1.414 . S
C1169 C1170 1.374 . S
C1170 H1144 0.950 . S
C1170 C1166 1.385 . S
C1170 C1169 1.374 . S
C1171 C1168 1.499 . S
C1171 C1172 1.373 . S
C1171 C1173 1.389 1_565 S
C1172 H1145 0.950 . S
C1172 C1158 1.377 1_554 S
C1172 C1171 1.373 . S
C1173 C1157 1.377 1_554 S
C1173 C1171 1.389 1_545 S
C1173 C1174 1.524 . S
C1174 C1173 1.524 . S
C1174 C1175 1.397 1_544 S
C1174 C1179 1.363 . S
C1175 H1146 0.950 . S
C1175 C1174 1.397 1_566 S
C1175 C1176 1.334 . S
C1176 H1147 0.950 . S
C1176 C1175 1.334 . S
C1176 C1177 1.287 1_566 S
C1177 C1176 1.287 1_544 S
C1177 C1178 1.524 . S
C1177 H1180 0.999 . S
C1178 H1148 0.950 . S
C1178 C1177 1.524 . S
C1178 C1179 1.415 . S
C1179 H1149 0.950 . S
C1179 C1174 1.363 . S
C1179 C1178 1.415 . S
H1180 C1177 0.999 . S
H1181 C1162 0.913 . S
H1182 C1200 0.951 . S
H1183 C1202 0.951 . S
H1184 C1204 0.950 . S
H1185 C1205 0.950 . S
H1186 C1207 0.950 . S
H1187 C1210 0.950 . S
H1188 C1211 0.950 . S
H1189 C1213 0.950 . S
H1190 C1214 0.950 . S
H1191 C1215 0.951 . S
H1192 C1217 0.951 . S
H1193 C1219 0.950 . S
H1194 C1220 0.950 . S
H1195 C1222 0.950 . S
H1196 C1225 0.950 . S
H1197 C1226 0.950 . S
H1198 C1228 0.950 . S
H1199 C1229 0.950 . S
C1200 H1182 0.951 . S
C1200 C1201 1.366 . S
C1200 C1202 1.388 . S
C1201 C1200 1.366 . S
C1201 C1205 1.385 . S
C1202 H1183 0.951 . S
C1202 C1200 1.388 . S
C1202 C1203 1.366 . S
C1203 C1202 1.366 . S
C1203 C1204 1.414 . S
C1203 C1206 1.499 . S
C1204 H1184 0.950 . S
C1204 C1203 1.414 . S
C1204 C1205 1.374 . S
C1205 H1185 0.950 . S
C1205 C1201 1.385 . S
C1205 C1204 1.374 . S
C1206 C1203 1.499 . S
C1206 C1207 1.373 1_565 S
C1206 C1208 1.389 . S
C1207 H1186 0.950 . S
C1207 C1206 1.373 1_545 S
C1207 C1223 1.377 . S
C1208 C1206 1.389 . S
C1208 C1209 1.524 . S
C1208 C1222 1.377 . S
C1209 C1208 1.524 . S
C1209 C1210 1.397 . S
C1209 C1214 1.363 . S
C1210 H1187 0.950 . S
C1210 C1209 1.397 . S
C1210 C1211 1.334 . S
C1211 H1188 0.950 . S
C1211 C1210 1.334 . S
C1211 C1212 1.287 . S
C1212 C1211 1.287 . S
C1212 C1213 1.524 . S
C1212 H1231 0.913 . S
C1213 H1189 0.950 . S
C1213 C1212 1.524 . S
C1213 C1214 1.415 . S
C1214 H1190 0.950 . S
C1214 C1209 1.363 . S
C1214 C1213 1.415 . S
C1215 H1191 0.951 . S
C1215 C1216 1.366 . S
C1215 C1217 1.388 . S
C1216 C1215 1.366 . S
C1216 C1220 1.385 . S
C1217 H1192 0.951 . S
C1217 C1215 1.388 . S
C1217 C1218 1.366 . S
C1218 C1217 1.366 . S
C1218 C1219 1.414 . S
C1218 C1221 1.499 . S
C1219 H1193 0.950 . S
C1219 C1218 1.414 . S
C1219 C1220 1.374 . S
C1220 H1194 0.950 . S
C1220 C1216 1.385 . S
C1220 C1219 1.374 . S
C1221 C1218 1.499 . S
C1221 C1222 1.373 1_545 S
C1221 C1223 1.389 . S
C1222 H1195 0.950 . S
C1222 C1208 1.377 . S
C1222 C1221 1.373 1_565 S
C1223 C1207 1.377 . S
C1223 C1221 1.389 . S
C1223 C1224 1.524 . S
C1224 C1223 1.524 . S
C1224 C1225 1.397 . S
C1224 C1229 1.363 . S
C1225 H1196 0.950 . S
C1225 C1224 1.397 . S
C1225 C1226 1.334 . S
C1226 H1197 0.950 . S
C1226 C1225 1.334 . S
C1226 C1227 1.287 . S
C1227 C1226 1.287 . S
C1227 C1228 1.524 . S
C1227 H1230 0.999 . S
C1228 H1198 0.950 . S
C1228 C1227 1.524 . S
C1228 C1229 1.415 . S
C1229 H1199 0.950 . S
C1229 C1224 1.363 . S
C1229 C1228 1.415 . S
H1230 C1227 0.999 . S
H1231 C1212 0.913 . S
H1232 C1250 0.951 . S
H1233 C1252 0.951 . S
H1234 C1254 0.950 . S
H1235 C1255 0.950 . S
H1236 C1257 0.950 . S
H1237 C1260 0.950 . S
H1238 C1261 0.950 . S
H1239 C1263 0.950 . S
H1240 C1264 0.950 . S
H1241 C1265 0.951 . S
H1242 C1267 0.951 . S
H1243 C1269 0.950 . S
H1244 C1270 0.950 . S
H1245 C1272 0.950 . S
H1246 C1275 0.950 . S
H1247 C1276 0.950 . S
H1248 C1278 0.950 . S
H1249 C1279 0.950 . S
C1250 H1232 0.951 . S
C1250 C1251 1.366 . S
C1250 C1252 1.388 . S
C1251 C1250 1.366 . S
C1251 C1255 1.385 . S
C1252 H1233 0.951 . S
C1252 C1250 1.388 . S
C1252 C1253 1.366 . S
C1253 C1252 1.366 . S
C1253 C1254 1.414 . S
C1253 C1256 1.499 . S
C1254 H1234 0.950 . S
C1254 C1253 1.414 . S
C1254 C1255 1.374 . S
C1255 H1235 0.950 . S
C1255 C1251 1.385 . S
C1255 C1254 1.374 . S
C1256 C1253 1.499 . S
C1256 C1257 1.373 . S
C1256 C1258 1.389 1_655 S
C1257 H1236 0.950 . S
C1257 C1256 1.373 . S
C1257 C1273 1.377 . S
C1258 C1256 1.389 1_455 S
C1258 C1259 1.524 . S
C1258 C1272 1.377 . S
C1259 C1258 1.524 . S
C1259 C1260 1.397 . S
C1259 C1264 1.363 . S
C1260 H1237 0.950 . S
C1260 C1259 1.397 . S
C1260 C1261 1.334 . S
C1261 H1238 0.950 . S
C1261 C1260 1.334 . S
C1261 C1262 1.287 . S
C1262 C1261 1.287 . S
C1262 C1263 1.524 . S
C1262 H1281 0.913 . S
C1263 H1239 0.950 . S
C1263 C1262 1.524 . S
C1263 C1264 1.415 . S
C1264 H1240 0.950 . S
C1264 C1259 1.363 . S
C1264 C1263 1.415 . S
C1265 H1241 0.951 . S
C1265 C1266 1.366 . S
C1265 C1267 1.388 . S
C1266 C1265 1.366 . S
C1266 C1270 1.385 . S
C1267 H1242 0.951 . S
C1267 C1265 1.388 . S
C1267 C1268 1.366 . S
C1268 C1267 1.366 . S
C1268 C1269 1.414 . S
C1268 C1271 1.499 . S
C1269 H1243 0.950 . S
C1269 C1268 1.414 . S
C1269 C1270 1.374 . S
C1270 H1244 0.950 . S
C1270 C1266 1.385 . S
C1270 C1269 1.374 . S
C1271 C1268 1.499 . S
C1271 C1272 1.373 . S
C1271 C1273 1.389 1_455 S
C1272 H1245 0.950 . S
C1272 C1258 1.377 . S
C1272 C1271 1.373 . S
C1273 C1257 1.377 . S
C1273 C1271 1.389 1_655 S
C1273 C1274 1.524 . S
C1274 C1273 1.524 . S
C1274 C1275 1.397 . S
C1274 C1279 1.363 . S
C1275 H1246 0.950 . S
C1275 C1274 1.397 . S
C1275 C1276 1.334 . S
C1276 H1247 0.950 . S
C1276 C1275 1.334 . S
C1276 C1277 1.287 . S
C1277 C1276 1.287 . S
C1277 C1278 1.524 . S
C1277 H1280 0.999 . S
C1278 H1248 0.950 . S
C1278 C1277 1.524 . S
C1278 C1279 1.415 . S
C1279 H1249 0.950 . S
C1279 C1274 1.363 . S
C1279 C1278 1.415 . S
H1280 C1277 0.999 . S
H1281 C1262 0.913 . S
H1282 C1300 0.951 . S
H1283 C1302 0.951 . S
H1284 C1304 0.950 . S
H1285 C1305 0.950 . S
H1286 C1307 0.950 . S
H1287 C1310 0.950 . S
H1288 C1311 0.950 . S
H1289 C1313 0.950 . S
H1290 C1314 0.950 . S
H1291 C1315 0.951 . S
H1292 C1317 0.951 . S
H1293 C1319 0.950 . S
H1294 C1320 0.950 . S
H1295 C1322 0.950 . S
H1296 C1325 0.950 . S
H1297 C1326 0.950 . S
H1298 C1328 0.950 . S
H1299 C1329 0.950 . S
C1300 H1282 0.951 . S
C1300 C1301 1.366 . S
C1300 C1302 1.388 . S
C1301 C1300 1.366 . S
C1301 C1305 1.385 . S
C1302 H1283 0.951 . S
C1302 C1300 1.388 . S
C1302 C1303 1.366 . S
C1303 C1302 1.366 . S
C1303 C1304 1.414 . S
C1303 C1306 1.499 . S
C1304 H1284 0.950 . S
C1304 C1303 1.414 . S
C1304 C1305 1.374 . S
C1305 H1285 0.950 . S
C1305 C1301 1.385 . S
C1305 C1304 1.374 . S
C1306 C1303 1.499 . S
C1306 C1307 1.373 1_455 S
C1306 C1308 1.389 . S
C1307 H1286 0.950 . S
C1307 C1306 1.373 1_655 S
C1307 C1323 1.377 . S
C1308 C1306 1.389 . S
C1308 C1309 1.524 . S
C1308 C1322 1.377 . S
C1309 C1308 1.524 . S
C1309 C1310 1.397 . S
C1309 C1314 1.363 . S
C1310 H1287 0.950 . S
C1310 C1309 1.397 . S
C1310 C1311 1.334 . S
C1311 H1288 0.950 . S
C1311 C1310 1.334 . S
C1311 C1312 1.287 . S
C1312 C1311 1.287 . S
C1312 C1313 1.524 . S
C1312 H1331 0.913 . S
C1313 H1289 0.950 . S
C1313 C1312 1.524 . S
C1313 C1314 1.415 . S
C1314 H1290 0.950 . S
C1314 C1309 1.363 . S
C1314 C1313 1.415 . S
C1315 H1291 0.951 . S
C1315 C1316 1.366 . S
C1315 C1317 1.388 . S
C1316 C1315 1.366 . S
C1316 C1320 1.385 . S
C1317 H1292 0.951 . S
C1317 C1315 1.388 . S
C1317 C1318 1.366 . S
C1318 C1317 1.366 . S
C1318 C1319 1.414 . S
C1318 C1321 1.499 . S
C1319 H1293 0.950 . S
C1319 C1318 1.414 . S
C1319 C1320 1.374 . S
C1320 H1294 0.950 . S
C1320 C1316 1.385 . S
C1320 C1319 1.374 . S
C1321 C1318 1.499 . S
C1321 C1322 1.373 1_655 S
C1321 C1323 1.389 . S
C1322 H1295 0.950 . S
C1322 C1308 1.377 . S
C1322 C1321 1.373 1_455 S
C1323 C1307 1.377 . S
C1323 C1321 1.389 . S
C1323 C1324 1.524 . S
C1324 C1323 1.524 . S
C1324 C1325 1.397 . S
C1324 C1329 1.363 . S
C1325 H1296 0.950 . S
C1325 C1324 1.397 . S
C1325 C1326 1.334 . S
C1326 H1297 0.950 . S
C1326 C1325 1.334 . S
C1326 C1327 1.287 . S
C1327 C1326 1.287 . S
C1327 C1328 1.524 . S
C1327 H1330 0.999 . S
C1328 H1298 0.950 . S
C1328 C1327 1.524 . S
C1328 C1329 1.415 . S
C1329 H1299 0.950 . S
C1329 C1324 1.363 . S
C1329 C1328 1.415 . S
H1330 C1327 0.999 . S
H1331 C1312 0.913 . S
H1332 C1350 0.951 . S
H1333 C1352 0.951 . S
H1334 C1354 0.950 . S
H1335 C1355 0.950 . S
H1336 C1357 0.950 . S
H1337 C1360 0.950 . S
H1338 C1361 0.950 . S
H1339 C1363 0.950 . S
H1340 C1364 0.950 . S
H1341 C1365 0.951 . S
H1342 C1367 0.951 . S
H1343 C1369 0.950 . S
H1344 C1370 0.950 . S
H1345 C1372 0.950 . S
H1346 C1375 0.950 . S
H1347 C1376 0.950 . S
H1348 C1378 0.950 . S
H1349 C1379 0.950 . S
C1350 H1332 0.951 . S
C1350 C1351 1.366 . S
C1350 C1352 1.388 . S
C1351 C1350 1.366 . S
C1351 C1355 1.385 . S
C1352 H1333 0.951 . S
C1352 C1350 1.388 . S
C1352 C1353 1.366 . S
C1353 C1352 1.366 . S
C1353 C1354 1.414 . S
C1353 C1356 1.499 . S
C1354 H1334 0.950 . S
C1354 C1353 1.414 . S
C1354 C1355 1.374 . S
C1355 H1335 0.950 . S
C1355 C1351 1.385 . S
C1355 C1354 1.374 . S
C1356 C1353 1.499 . S
C1356 C1357 1.373 . S
C1356 C1358 1.389 . S
C1357 H1336 0.950 . S
C1357 C1356 1.373 . S
C1357 C1373 1.377 . S
C1358 C1356 1.389 . S
C1358 C1359 1.524 . S
C1358 C1372 1.377 . S
C1359 C1358 1.524 . S
C1359 C1360 1.397 . S
C1359 C1364 1.363 . S
C1360 H1337 0.950 . S
C1360 C1359 1.397 . S
C1360 C1361 1.334 . S
C1361 H1338 0.950 . S
C1361 C1360 1.334 . S
C1361 C1362 1.287 . S
C1362 C1361 1.287 . S
C1362 C1363 1.524 . S
C1362 H1381 0.913 . S
C1363 H1339 0.950 . S
C1363 C1362 1.524 . S
C1363 C1364 1.415 . S
C1364 H1340 0.950 . S
C1364 C1359 1.363 . S
C1364 C1363 1.415 . S
C1365 H1341 0.951 . S
C1365 C1366 1.366 . S
C1365 C1367 1.388 . S
C1366 C1365 1.366 . S
C1366 C1370 1.385 . S
C1367 H1342 0.951 . S
C1367 C1365 1.388 . S
C1367 C1368 1.366 . S
C1368 C1367 1.366 . S
C1368 C1369 1.414 . S
C1368 C1371 1.499 . S
C1369 H1343 0.950 . S
C1369 C1368 1.414 . S
C1369 C1370 1.374 . S
C1370 H1344 0.950 . S
C1370 C1366 1.385 . S
C1370 C1369 1.374 . S
C1371 C1368 1.499 . S
C1371 C1372 1.373 . S
C1371 C1373 1.389 . S
C1372 H1345 0.950 . S
C1372 C1358 1.377 . S
C1372 C1371 1.373 . S
C1373 C1357 1.377 . S
C1373 C1371 1.389 . S
C1373 C1374 1.524 . S
C1374 C1373 1.524 . S
C1374 C1375 1.397 . S
C1374 C1379 1.363 . S
C1375 H1346 0.950 . S
C1375 C1374 1.397 . S
C1375 C1376 1.334 . S
C1376 H1347 0.950 . S
C1376 C1375 1.334 . S
C1376 C1377 1.287 . S
C1377 C1376 1.287 . S
C1377 C1378 1.524 . S
C1377 H1380 0.999 . S
C1378 H1348 0.950 . S
C1378 C1377 1.524 . S
C1378 C1379 1.415 . S
C1379 H1349 0.950 . S
C1379 C1374 1.363 . S
C1379 C1378 1.415 . S
H1380 C1377 0.999 . S
H1381 C1362 0.913 . S
H1382 C1400 0.951 . S
H1383 C1402 0.951 . S
H1384 C1404 0.950 . S
H1385 C1405 0.950 . S
H1386 C1407 0.950 . S
H1387 C1410 0.950 . S
H1388 C1411 0.950 . S
H1389 C1413 0.950 . S
H1390 C1414 0.950 . S
H1391 C1415 0.951 . S
H1392 C1417 0.951 . S
H1393 C1419 0.950 . S
H1394 C1420 0.950 . S
H1395 C1422 0.950 . S
H1396 C1425 0.950 . S
H1397 C1426 0.950 . S
H1398 C1428 0.950 . S
H1399 C1429 0.950 . S
C1400 H1382 0.951 . S
C1400 C1401 1.366 . S
C1400 C1402 1.388 . S
C1401 C1400 1.366 . S
C1401 C1405 1.385 . S
C1402 H1383 0.951 . S
C1402 C1400 1.388 . S
C1402 C1403 1.366 . S
C1403 C1402 1.366 . S
C1403 C1404 1.414 . S
C1403 C1406 1.499 . S
C1404 H1384 0.950 . S
C1404 C1403 1.414 . S
C1404 C1405 1.374 . S
C1405 H1385 0.950 . S
C1405 C1401 1.385 . S
C1405 C1404 1.374 . S
C1406 C1403 1.499 . S
C1406 C1407 1.373 . S
C1406 C1408 1.389 . S
C1407 H1386 0.950 . S
C1407 C1406 1.373 . S
C1407 C1423 1.377 . S
C1408 C1406 1.389 . S
C1408 C1409 1.524 . S
C1408 C1422 1.377 . S
C1409 C1408 1.524 . S
C1409 C1410 1.397 . S
C1409 C1414 1.363 . S
C1410 H1387 0.950 . S
C1410 C1409 1.397 . S
C1410 C1411 1.334 . S
C1411 H1388 0.950 . S
C1411 C1410 1.334 . S
C1411 C1412 1.287 . S
C1412 C1411 1.287 . S
C1412 C1413 1.524 . S
C1412 H1431 0.913 . S
C1413 H1389 0.950 . S
C1413 C1412 1.524 . S
C1413 C1414 1.415 . S
C1414 H1390 0.950 . S
C1414 C1409 1.363 . S
C1414 C1413 1.415 . S
C1415 H1391 0.951 . S
C1415 C1416 1.366 . S
C1415 C1417 1.388 . S
C1416 C1415 1.366 . S
C1416 C1420 1.385 . S
C1417 H1392 0.951 . S
C1417 C1415 1.388 . S
C1417 C1418 1.366 . S
C1418 C1417 1.366 . S
C1418 C1419 1.414 . S
C1418 C1421 1.499 . S
C1419 H1393 0.950 . S
C1419 C1418 1.414 . S
C1419 C1420 1.374 . S
C1420 H1394 0.950 . S
C1420 C1416 1.385 . S
C1420 C1419 1.374 . S
C1421 C1418 1.499 . S
C1421 C1422 1.373 . S
C1421 C1423 1.389 . S
C1422 H1395 0.950 . S
C1422 C1408 1.377 . S
C1422 C1421 1.373 . S
C1423 C1407 1.377 . S
C1423 C1421 1.389 . S
C1423 C1424 1.524 . S
C1424 C1423 1.524 . S
C1424 C1425 1.397 . S
C1424 C1429 1.363 . S
C1425 H1396 0.950 . S
C1425 C1424 1.397 . S
C1425 C1426 1.334 . S
C1426 H1397 0.950 . S
C1426 C1425 1.334 . S
C1426 C1427 1.287 . S
C1427 C1426 1.287 . S
C1427 C1428 1.524 . S
C1427 H1430 0.999 . S
C1428 H1398 0.950 . S
C1428 C1427 1.524 . S
C1428 C1429 1.415 . S
C1429 H1399 0.950 . S
C1429 C1424 1.363 . S
C1429 C1428 1.415 . S
H1430 C1427 0.999 . S
H1431 C1412 0.913 . S
H1432 C1450 0.951 . S
H1433 C1452 0.951 . S
H1434 C1454 0.950 . S
H1435 C1455 0.950 . S
H1436 C1457 0.950 . S
H1437 C1460 0.950 . S
H1438 C1461 0.950 . S
H1439 C1463 0.950 . S
H1440 C1464 0.950 . S
H1441 C1465 0.951 . S
H1442 C1467 0.951 . S
H1443 C1469 0.950 . S
H1444 C1470 0.950 . S
H1445 C1472 0.950 . S
H1446 C1475 0.950 . S
H1447 C1476 0.950 . S
H1448 C1478 0.950 . S
H1449 C1479 0.950 . S
C1450 H1432 0.951 . S
C1450 C1451 1.366 . S
C1450 C1452 1.388 . S
C1451 C1450 1.366 . S
C1451 C1455 1.385 . S
C1452 H1433 0.951 . S
C1452 C1450 1.388 . S
C1452 C1453 1.366 . S
C1453 C1452 1.366 . S
C1453 C1454 1.414 . S
C1453 C1456 1.499 . S
C1454 H1434 0.950 . S
C1454 C1453 1.414 . S
C1454 C1455 1.374 . S
C1455 H1435 0.950 . S
C1455 C1451 1.385 . S
C1455 C1454 1.374 . S
C1456 C1453 1.499 . S
C1456 C1457 1.373 1_455 S
C1456 C1458 1.389 . S
C1457 H1436 0.950 . S
C1457 C1456 1.373 1_655 S
C1457 C1473 1.377 . S
C1458 C1456 1.389 . S
C1458 C1459 1.524 . S
C1458 C1472 1.377 . S
C1459 C1458 1.524 . S
C1459 C1460 1.397 . S
C1459 C1464 1.363 . S
C1460 H1437 0.950 . S
C1460 C1459 1.397 . S
C1460 C1461 1.334 . S
C1461 H1438 0.950 . S
C1461 C1460 1.334 . S
C1461 C1462 1.287 . S
C1462 C1461 1.287 . S
C1462 C1463 1.524 . S
C1462 H1481 0.913 . S
C1463 H1439 0.950 . S
C1463 C1462 1.524 . S
C1463 C1464 1.415 . S
C1464 H1440 0.950 . S
C1464 C1459 1.363 . S
C1464 C1463 1.415 . S
C1465 H1441 0.951 . S
C1465 C1466 1.366 . S
C1465 C1467 1.388 . S
C1466 C1465 1.366 . S
C1466 C1470 1.385 . S
C1467 H1442 0.951 . S
C1467 C1465 1.388 . S
C1467 C1468 1.366 . S
C1468 C1467 1.366 . S
C1468 C1469 1.414 . S
C1468 C1471 1.499 . S
C1469 H1443 0.950 . S
C1469 C1468 1.414 . S
C1469 C1470 1.374 . S
C1470 H1444 0.950 . S
C1470 C1466 1.385 . S
C1470 C1469 1.374 . S
C1471 C1468 1.499 . S
C1471 C1472 1.373 1_655 S
C1471 C1473 1.389 . S
C1472 H1445 0.950 . S
C1472 C1458 1.377 . S
C1472 C1471 1.373 1_455 S
C1473 C1457 1.377 . S
C1473 C1471 1.389 . S
C1473 C1474 1.524 . S
C1474 C1473 1.524 . S
C1474 C1475 1.397 . S
C1474 C1479 1.363 . S
C1475 H1446 0.950 . S
C1475 C1474 1.397 . S
C1475 C1476 1.334 . S
C1476 H1447 0.950 . S
C1476 C1475 1.334 . S
C1476 C1477 1.287 . S
C1477 C1476 1.287 . S
C1477 C1478 1.524 . S
C1477 H1480 0.999 . S
C1478 H1448 0.950 . S
C1478 C1477 1.524 . S
C1478 C1479 1.415 . S
C1479 H1449 0.950 . S
C1479 C1474 1.363 . S
C1479 C1478 1.415 . S
H1480 C1477 0.999 . S
H1481 C1462 0.913 . S
H1482 C1500 0.951 . S
H1483 C1502 0.951 . S
H1484 C1504 0.950 . S
H1485 C1505 0.950 . S
H1486 C1507 0.950 . S
H1487 C1510 0.950 . S
H1488 C1511 0.950 . S
H1489 C1513 0.950 . S
H1490 C1514 0.950 . S
H1491 C1515 0.951 . S
H1492 C1517 0.951 . S
H1493 C1519 0.950 . S
H1494 C1520 0.950 . S
H1495 C1522 0.950 . S
H1496 C1525 0.950 . S
H1497 C1526 0.950 . S
H1498 C1528 0.950 . S
H1499 C1529 0.950 . S
C1500 H1482 0.951 . S
C1500 C1501 1.366 . S
C1500 C1502 1.388 . S
C1501 C1500 1.366 . S
C1501 C1505 1.385 . S
C1502 H1483 0.951 . S
C1502 C1500 1.388 . S
C1502 C1503 1.366 . S
C1503 C1502 1.366 . S
C1503 C1504 1.414 . S
C1503 C1506 1.499 . S
C1504 H1484 0.950 . S
C1504 C1503 1.414 . S
C1504 C1505 1.374 . S
C1505 H1485 0.950 . S
C1505 C1501 1.385 . S
C1505 C1504 1.374 . S
C1506 C1503 1.499 . S
C1506 C1507 1.373 1_455 S
C1506 C1508 1.389 . S
C1507 H1486 0.950 . S
C1507 C1506 1.373 1_655 S
C1507 C1523 1.377 . S
C1508 C1506 1.389 . S
C1508 C1509 1.524 . S
C1508 C1522 1.377 . S
C1509 C1508 1.524 . S
C1509 C1510 1.397 . S
C1509 C1514 1.363 . S
C1510 H1487 0.950 . S
C1510 C1509 1.397 . S
C1510 C1511 1.334 . S
C1511 H1488 0.950 . S
C1511 C1510 1.334 . S
C1511 C1512 1.287 . S
C1512 C1511 1.287 . S
C1512 C1513 1.524 . S
C1512 H1531 0.913 . S
C1513 H1489 0.950 . S
C1513 C1512 1.524 . S
C1513 C1514 1.415 . S
C1514 H1490 0.950 . S
C1514 C1509 1.363 . S
C1514 C1513 1.415 . S
C1515 H1491 0.951 . S
C1515 C1516 1.366 . S
C1515 C1517 1.388 . S
C1516 C1515 1.366 . S
C1516 C1520 1.385 . S
C1517 H1492 0.951 . S
C1517 C1515 1.388 . S
C1517 C1518 1.366 . S
C1518 C1517 1.366 . S
C1518 C1519 1.414 . S
C1518 C1521 1.499 . S
C1519 H1493 0.950 . S
C1519 C1518 1.414 . S
C1519 C1520 1.374 . S
C1520 H1494 0.950 . S
C1520 C1516 1.385 . S
C1520 C1519 1.374 . S
C1521 C1518 1.499 . S
C1521 C1522 1.373 1_655 S
C1521 C1523 1.389 . S
C1522 H1495 0.950 . S
C1522 C1508 1.377 . S
C1522 C1521 1.373 1_455 S
C1523 C1507 1.377 . S
C1523 C1521 1.389 . S
C1523 C1524 1.524 . S
C1524 C1523 1.524 . S
C1524 C1525 1.397 . S
C1524 C1529 1.363 . S
C1525 H1496 0.950 . S
C1525 C1524 1.397 . S
C1525 C1526 1.334 . S
C1526 H1497 0.950 . S
C1526 C1525 1.334 . S
C1526 C1527 1.287 . S
C1527 C1526 1.287 . S
C1527 C1528 1.524 . S
C1527 H1530 0.999 . S
C1528 H1498 0.950 . S
C1528 C1527 1.524 . S
C1528 C1529 1.415 . S
C1529 H1499 0.950 . S
C1529 C1524 1.363 . S
C1529 C1528 1.415 . S
H1530 C1527 0.999 . S
H1531 C1512 0.913 . S
H1532 C1550 0.951 . S
H1533 C1552 0.951 . S
H1534 C1554 0.950 . S
H1535 C1555 0.950 . S
H1536 C1557 0.950 . S
H1537 C1560 0.950 . S
H1538 C1561 0.950 . S
H1539 C1563 0.950 . S
H1540 C1564 0.950 . S
H1541 C1565 0.951 . S
H1542 C1567 0.951 . S
H1543 C1569 0.950 . S
H1544 C1570 0.950 . S
H1545 C1572 0.950 . S
H1546 C1575 0.950 . S
H1547 C1576 0.950 . S
H1548 C1578 0.950 . S
H1549 C1579 0.950 . S
C1550 H1532 0.951 . S
C1550 C1551 1.366 . S
C1550 C1552 1.388 . S
C1551 C1550 1.366 . S
C1551 C1555 1.385 . S
C1552 H1533 0.951 . S
C1552 C1550 1.388 . S
C1552 C1553 1.366 . S
C1553 C1552 1.366 . S
C1553 C1554 1.414 . S
C1553 C1556 1.499 . S
C1554 H1534 0.950 . S
C1554 C1553 1.414 . S
C1554 C1555 1.374 . S
C1555 H1535 0.950 . S
C1555 C1551 1.385 . S
C1555 C1554 1.374 . S
C1556 C1553 1.499 . S
C1556 C1557 1.373 . S
C1556 C1558 1.389 . S
C1557 H1536 0.950 . S
C1557 C1556 1.373 . S
C1557 C1573 1.377 . S
C1558 C1556 1.389 . S
C1558 C1559 1.524 . S
C1558 C1572 1.377 . S
C1559 C1558 1.524 . S
C1559 C1560 1.397 . S
C1559 C1564 1.363 . S
C1560 H1537 0.950 . S
C1560 C1559 1.397 . S
C1560 C1561 1.334 . S
C1561 H1538 0.950 . S
C1561 C1560 1.334 . S
C1561 C1562 1.287 . S
C1562 C1561 1.287 . S
C1562 C1563 1.524 . S
C1562 H1581 0.913 . S
C1563 H1539 0.950 . S
C1563 C1562 1.524 . S
C1563 C1564 1.415 . S
C1564 H1540 0.950 . S
C1564 C1559 1.363 . S
C1564 C1563 1.415 . S
C1565 H1541 0.951 . S
C1565 C1566 1.366 . S
C1565 C1567 1.388 . S
C1566 C1565 1.366 . S
C1566 C1570 1.385 . S
C1567 H1542 0.951 . S
C1567 C1565 1.388 . S
C1567 C1568 1.366 . S
C1568 C1567 1.366 . S
C1568 C1569 1.414 . S
C1568 C1571 1.499 . S
C1569 H1543 0.950 . S
C1569 C1568 1.414 . S
C1569 C1570 1.374 . S
C1570 H1544 0.950 . S
C1570 C1566 1.385 . S
C1570 C1569 1.374 . S
C1571 C1568 1.499 . S
C1571 C1572 1.373 . S
C1571 C1573 1.389 . S
C1572 H1545 0.950 . S
C1572 C1558 1.377 . S
C1572 C1571 1.373 . S
C1573 C1557 1.377 . S
C1573 C1571 1.389 . S
C1573 C1574 1.524 . S
C1574 C1573 1.524 . S
C1574 C1575 1.397 . S
C1574 C1579 1.363 . S
C1575 H1546 0.950 . S
C1575 C1574 1.397 . S
C1575 C1576 1.334 . S
C1576 H1547 0.950 . S
C1576 C1575 1.334 . S
C1576 C1577 1.287 . S
C1577 C1576 1.287 . S
C1577 C1578 1.524 . S
C1577 H1580 0.999 . S
C1578 H1548 0.950 . S
C1578 C1577 1.524 . S
C1578 C1579 1.415 . S
C1579 H1549 0.950 . S
C1579 C1574 1.363 . S
C1579 C1578 1.415 . S
H1580 C1577 0.999 . S
H1581 C1562 0.913 . S
H1582 C1600 0.951 . S
H1583 C1602 0.951 . S
H1584 C1604 0.950 . S
H1585 C1605 0.950 . S
H1586 C1607 0.950 . S
H1587 C1610 0.950 . S
H1588 C1611 0.950 . S
H1589 C1613 0.950 . S
H1590 C1614 0.950 . S
H1591 C1615 0.951 . S
H1592 C1617 0.951 . S
H1593 C1619 0.950 . S
H1594 C1620 0.950 . S
H1595 C1622 0.950 . S
H1596 C1625 0.950 . S
H1597 C1626 0.950 . S
H1598 C1628 0.950 . S
H1599 C1629 0.950 . S
C1600 H1582 0.951 . S
C1600 C1601 1.366 . S
C1600 C1602 1.388 . S
C1601 C1600 1.366 . S
C1601 C1605 1.385 . S
C1602 H1583 0.951 . S
C1602 C1600 1.388 . S
C1602 C1603 1.366 . S
C1603 C1602 1.366 . S
C1603 C1604 1.414 . S
C1603 C1606 1.499 . S
C1604 H1584 0.950 . S
C1604 C1603 1.414 . S
C1604 C1605 1.374 . S
C1605 H1585 0.950 . S
C1605 C1601 1.385 . S
C1605 C1604 1.374 . S
C1606 C1603 1.499 . S
C1606 C1607 1.373 . S
C1606 C1608 1.389 . S
C1607 H1586 0.950 . S
C1607 C1606 1.373 . S
C1607 C1623 1.377 . S
C1608 C1606 1.389 . S
C1608 C1609 1.524 . S
C1608 C1622 1.377 . S
C1609 C1608 1.524 . S
C1609 C1610 1.397 . S
C1609 C1614 1.363 . S
C1610 H1587 0.950 . S
C1610 C1609 1.397 . S
C1610 C1611 1.334 . S
C1611 H1588 0.950 . S
C1611 C1610 1.334 . S
C1611 C1612 1.287 . S
C1612 C1611 1.287 . S
C1612 C1613 1.524 . S
C1612 H1631 0.913 . S
C1613 H1589 0.950 . S
C1613 C1612 1.524 . S
C1613 C1614 1.415 . S
C1614 H1590 0.950 . S
C1614 C1609 1.363 . S
C1614 C1613 1.415 . S
C1615 H1591 0.951 . S
C1615 C1616 1.366 . S
C1615 C1617 1.388 . S
C1616 C1615 1.366 . S
C1616 C1620 1.385 . S
C1617 H1592 0.951 . S
C1617 C1615 1.388 . S
C1617 C1618 1.366 . S
C1618 C1617 1.366 . S
C1618 C1619 1.414 . S
C1618 C1621 1.499 . S
C1619 H1593 0.950 . S
C1619 C1618 1.414 . S
C1619 C1620 1.374 . S
C1620 H1594 0.950 . S
C1620 C1616 1.385 . S
C1620 C1619 1.374 . S
C1621 C1618 1.499 . S
C1621 C1622 1.373 . S
C1621 C1623 1.389 . S
C1622 H1595 0.950 . S
C1622 C1608 1.377 . S
C1622 C1621 1.373 . S
C1623 C1607 1.377 . S
C1623 C1621 1.389 . S
C1623 C1624 1.524 . S
C1624 C1623 1.524 . S
C1624 C1625 1.397 . S
C1624 C1629 1.363 . S
C1625 H1596 0.950 . S
C1625 C1624 1.397 . S
C1625 C1626 1.334 . S
C1626 H1597 0.950 . S
C1626 C1625 1.334 . S
C1626 C1627 1.287 . S
C1627 C1626 1.287 . S
C1627 C1628 1.524 . S
C1627 H1630 0.999 . S
C1628 H1598 0.950 . S
C1628 C1627 1.524 . S
C1628 C1629 1.415 . S
C1629 H1599 0.950 . S
C1629 C1624 1.363 . S
C1629 C1628 1.415 . S
H1630 C1627 0.999 . S
H1631 C1612 0.913 . S
C251 C42 3.427 . S
C266 C13 3.427 . S
C301 C100 3.427 . S
C316 C71 3.427 . S
C351 C129 3.427 . S
C366 C158 3.427 . S
C401 C216 3.427 . S
C416 C187 3.427 . S
C451 C189 2.438 . S
C466 C15 2.438 . S
C501 C44 2.439 . S
C516 C218 2.439 . S
C551 C131 2.438 . S
C566 C73 2.438 . S
C601 C102 2.439 . S
C616 C160 2.439 . S
C651 C90 1.982 . S
C666 C10 1.893 1_556 S
C701 C61 1.982 . S
C716 C39 1.894 . S
C751 C32 1.982 . S
C766 C68 1.894 1_554 S
C801 C97 1.894 . S
C816 C3 1.982 . S
C851 C126 1.893 1_556 S
C866 C206 1.982 . S
C901 C177 1.982 . S
C916 C155 1.893 . S
C951 C148 1.982 . S
C966 C184 1.893 1_554 S
C1001 C119 1.982 . S
C1016 C213 1.893 . S
C1051 C79 1.169 . S
C1066 C21 1.169 . S
C1101 C108 1.169 . S
C1116 C50 1.169 . S
C1151 C195 1.170 . S
C1166 C137 1.170 . S
C1201 C166 1.169 . S
C1216 C224 1.169 . S
C1251 C37 0.898 . S
C1266 C8 0.898 . S
C1301 C95 0.896 . S
C1316 C66 0.897 . S
C1351 C124 0.896 . S
C1366 C153 0.896 . S
C1401 C182 0.896 . S
C1416 C211 0.898 . S
C1451 C5 2.467 . S
C1466 C34 2.467 . S
C1501 C92 2.467 . S
C1516 C63 2.467 . S
C1551 C150 2.467 . S
C1566 C121 2.467 . S
C1601 C179 2.467 . S
C1616 C208 2.467 . S
