# Generated by pormake.
# Topology uko, (4)-cn, num edge types: 1
# Building blocks:
#     Node 0, Type 0, BuildingBlock: QUQFOY_clean_sbu_3, # of connection points: 4
#     Node 1, Type 0, BuildingBlock: QUQFOY_clean_sbu_3, # of connection points: 4
#     Node 2, Type 0, BuildingBlock: QUQFOY_clean_sbu_3, # of connection points: 4
#     Node 3, Type 0, BuildingBlock: QUQFOY_clean_sbu_3, # of connection points: 4
#     Node 4, Type 0, BuildingBlock: QUQFOY_clean_sbu_3, # of connection points: 4
#     Node 5, Type 0, BuildingBlock: QUQFOY_clean_sbu_3, # of connection points: 4
#     Node 6, Type 0, BuildingBlock: QUQFOY_clean_sbu_3, # of connection points: 4
#     Node 7, Type 0, BuildingBlock: QUQFOY_clean_sbu_3, # of connection points: 4
#     Node 8, Type 0, BuildingBlock: QUQFOY_clean_sbu_3, # of connection points: 4
#     Node 9, Type 0, BuildingBlock: QUQFOY_clean_sbu_3, # of connection points: 4
#     Node 10, Type 0, BuildingBlock: QUQFOY_clean_sbu_3, # of connection points: 4
#     Node 11, Type 0, BuildingBlock: QUQFOY_clean_sbu_3, # of connection points: 4
#     Node 12, Type 0, BuildingBlock: QUQFOY_clean_sbu_3, # of connection points: 4
#     Node 13, Type 0, BuildingBlock: QUQFOY_clean_sbu_3, # of connection points: 4
#     Node 14, Type 0, BuildingBlock: QUQFOY_clean_sbu_3, # of connection points: 4
#     Node 15, Type 0, BuildingBlock: QUQFOY_clean_sbu_3, # of connection points: 4
#     Node 16, Type 0, BuildingBlock: QUQFOY_clean_sbu_3, # of connection points: 4
#     Node 17, Type 0, BuildingBlock: QUQFOY_clean_sbu_3, # of connection points: 4
#     Node 18, Type 0, BuildingBlock: QUQFOY_clean_sbu_3, # of connection points: 4
#     Node 19, Type 0, BuildingBlock: QUQFOY_clean_sbu_3, # of connection points: 4
#     Node 20, Type 0, BuildingBlock: QUQFOY_clean_sbu_3, # of connection points: 4
#     Node 21, Type 0, BuildingBlock: QUQFOY_clean_sbu_3, # of connection points: 4
#     Node 22, Type 0, BuildingBlock: QUQFOY_clean_sbu_3, # of connection points: 4
#     Node 23, Type 0, BuildingBlock: QUQFOY_clean_sbu_3, # of connection points: 4
#     Node 24, Type 0, BuildingBlock: QUQFOY_clean_sbu_3, # of connection points: 4
#     Node 25, Type 0, BuildingBlock: QUQFOY_clean_sbu_3, # of connection points: 4
#     Node 26, Type 0, BuildingBlock: QUQFOY_clean_sbu_3, # of connection points: 4
#     Node 27, Type 0, BuildingBlock: QUQFOY_clean_sbu_3, # of connection points: 4
#     Node 28, Type 0, BuildingBlock: QUQFOY_clean_sbu_3, # of connection points: 4
#     Node 29, Type 0, BuildingBlock: QUQFOY_clean_sbu_3, # of connection points: 4
#     Node 30, Type 0, BuildingBlock: QUQFOY_clean_sbu_3, # of connection points: 4
#     Node 31, Type 0, BuildingBlock: QUQFOY_clean_sbu_3, # of connection points: 4
#     Node 32, Type 0, BuildingBlock: QUQFOY_clean_sbu_3, # of connection points: 4
#     Node 33, Type 0, BuildingBlock: QUQFOY_clean_sbu_3, # of connection points: 4
#     Node 34, Type 0, BuildingBlock: QUQFOY_clean_sbu_3, # of connection points: 4
#     Node 35, Type 0, BuildingBlock: QUQFOY_clean_sbu_3, # of connection points: 4
#     Node 36, Type 0, BuildingBlock: QUQFOY_clean_sbu_3, # of connection points: 4
#     Node 37, Type 0, BuildingBlock: QUQFOY_clean_sbu_3, # of connection points: 4
#     Node 38, Type 0, BuildingBlock: QUQFOY_clean_sbu_3, # of connection points: 4
#     Node 39, Type 0, BuildingBlock: QUQFOY_clean_sbu_3, # of connection points: 4
#     Node 40, Type 0, BuildingBlock: QUQFOY_clean_sbu_3, # of connection points: 4
#     Node 41, Type 0, BuildingBlock: QUQFOY_clean_sbu_3, # of connection points: 4
#     Node 42, Type 0, BuildingBlock: QUQFOY_clean_sbu_3, # of connection points: 4
#     Node 43, Type 0, BuildingBlock: QUQFOY_clean_sbu_3, # of connection points: 4
#     Node 44, Type 0, BuildingBlock: QUQFOY_clean_sbu_3, # of connection points: 4
#     Node 45, Type 0, BuildingBlock: QUQFOY_clean_sbu_3, # of connection points: 4
#     Node 46, Type 0, BuildingBlock: QUQFOY_clean_sbu_3, # of connection points: 4
#     Node 47, Type 0, BuildingBlock: QUQFOY_clean_sbu_3, # of connection points: 4
#     Edge 48, Type (0, 0), None
#     Edge 49, Type (0, 0), None
#     Edge 50, Type (0, 0), None
#     Edge 51, Type (0, 0), None
#     Edge 52, Type (0, 0), None
#     Edge 53, Type (0, 0), None
#     Edge 54, Type (0, 0), None
#     Edge 55, Type (0, 0), None
#     Edge 56, Type (0, 0), None
#     Edge 57, Type (0, 0), None
#     Edge 58, Type (0, 0), None
#     Edge 59, Type (0, 0), None
#     Edge 60, Type (0, 0), None
#     Edge 61, Type (0, 0), None
#     Edge 62, Type (0, 0), None
#     Edge 63, Type (0, 0), None
#     Edge 64, Type (0, 0), None
#     Edge 65, Type (0, 0), None
#     Edge 66, Type (0, 0), None
#     Edge 67, Type (0, 0), None
#     Edge 68, Type (0, 0), None
#     Edge 69, Type (0, 0), None
#     Edge 70, Type (0, 0), None
#     Edge 71, Type (0, 0), None
#     Edge 72, Type (0, 0), None
#     Edge 73, Type (0, 0), None
#     Edge 74, Type (0, 0), None
#     Edge 75, Type (0, 0), None
#     Edge 76, Type (0, 0), None
#     Edge 77, Type (0, 0), None
#     Edge 78, Type (0, 0), None
#     Edge 79, Type (0, 0), None
#     Edge 80, Type (0, 0), None
#     Edge 81, Type (0, 0), None
#     Edge 82, Type (0, 0), None
#     Edge 83, Type (0, 0), None
#     Edge 84, Type (0, 0), None
#     Edge 85, Type (0, 0), None
#     Edge 86, Type (0, 0), None
#     Edge 87, Type (0, 0), None
#     Edge 88, Type (0, 0), None
#     Edge 89, Type (0, 0), None
#     Edge 90, Type (0, 0), None
#     Edge 91, Type (0, 0), None
#     Edge 92, Type (0, 0), None
#     Edge 93, Type (0, 0), None
#     Edge 94, Type (0, 0), None
#     Edge 95, Type (0, 0), None
#     Edge 96, Type (0, 0), None
#     Edge 97, Type (0, 0), None
#     Edge 98, Type (0, 0), None
#     Edge 99, Type (0, 0), None
#     Edge 100, Type (0, 0), None
#     Edge 101, Type (0, 0), None
#     Edge 102, Type (0, 0), None
#     Edge 103, Type (0, 0), None
#     Edge 104, Type (0, 0), None
#     Edge 105, Type (0, 0), None
#     Edge 106, Type (0, 0), None
#     Edge 107, Type (0, 0), None
#     Edge 108, Type (0, 0), None
#     Edge 109, Type (0, 0), None
#     Edge 110, Type (0, 0), None
#     Edge 111, Type (0, 0), None
#     Edge 112, Type (0, 0), None
#     Edge 113, Type (0, 0), None
#     Edge 114, Type (0, 0), None
#     Edge 115, Type (0, 0), None
#     Edge 116, Type (0, 0), None
#     Edge 117, Type (0, 0), None
#     Edge 118, Type (0, 0), None
#     Edge 119, Type (0, 0), None
#     Edge 120, Type (0, 0), None
#     Edge 121, Type (0, 0), None
#     Edge 122, Type (0, 0), None
#     Edge 123, Type (0, 0), None
#     Edge 124, Type (0, 0), None
#     Edge 125, Type (0, 0), None
#     Edge 126, Type (0, 0), None
#     Edge 127, Type (0, 0), None
#     Edge 128, Type (0, 0), None
#     Edge 129, Type (0, 0), None
#     Edge 130, Type (0, 0), None
#     Edge 131, Type (0, 0), None
#     Edge 132, Type (0, 0), None
#     Edge 133, Type (0, 0), None
#     Edge 134, Type (0, 0), None
#     Edge 135, Type (0, 0), None
#     Edge 136, Type (0, 0), None
#     Edge 137, Type (0, 0), None
#     Edge 138, Type (0, 0), None
#     Edge 139, Type (0, 0), None
#     Edge 140, Type (0, 0), None
#     Edge 141, Type (0, 0), None
#     Edge 142, Type (0, 0), None
#     Edge 143, Type (0, 0), None
# Relax obj value: 0.278
# Max RMSD: 0.154
# Mean RMSD: 0.154
data_MOF--net-uko--node1-QUQFOY_clean_sbu_3--edge1-none
_symmetry_space_group_name_H-M    P1
_symmetry_Int_Tables_number       1
_symmetry_cell_setting            triclinic
loop_
_symmetry_equiv_pos_as_xyz
'x, y, z'
_cell_length_a     27.143717
_cell_length_b     27.148973
_cell_length_c     27.150036
_cell_angle_alpha  90.004006
_cell_angle_beta   90.008746
_cell_angle_gamma 90.006636
loop_
_atom_site_label
_atom_site_type_symbol
_atom_site_fract_x
_atom_site_fract_y
_atom_site_fract_z
_atom_type_partial_charge
C0 C 0.09713 0.40725 0.15403 0.0
O1 O 0.10737 0.42566 0.19551 0.0
Cd2 Cd 0.04135 0.42226 0.24641 0.0
O3 O 0.05842 0.38098 0.14785 0.0
Cd4 Cd -0.00551 0.34518 0.20831 0.0
C5 C 0.94341 0.44707 0.20324 0.0
O6 O 0.05239 0.34019 0.27827 0.0
O7 O -0.02439 0.32844 0.29346 0.0
O8 O 0.01781 0.26121 0.18353 0.0
C9 C 0.01984 0.32398 0.3073 0.0
O10 O -0.01707 0.44094 0.17992 0.0
C11 C -0.02554 0.24575 0.17614 0.0
O12 O 0.92655 0.40784 0.22153 0.0
O13 O 0.94015 0.2775 0.17919 0.0
C14 C 0.84123 0.03104 0.15404 0.0
O15 O 0.83098 0.01266 0.19551 0.0
Cd16 Cd 0.897 0.01598 0.24643 0.0
O17 O 0.87998 0.05727 0.14785 0.0
Cd18 Cd 0.94394 0.09305 0.20831 0.0
C19 C -0.00507 -0.00888 0.20327 0.0
O20 O 0.88608 0.09807 0.27828 0.0
O21 O 0.96288 0.10979 0.29345 0.0
O22 O 0.92062 0.17701 0.18353 0.0
C23 C 0.91865 0.11427 0.30731 0.0
O24 O 0.9554 -0.00272 0.17996 0.0
C25 C 0.96398 0.19247 0.17616 0.0
O26 O 0.01185 0.03035 0.22152 0.0
O27 O -0.00171 0.16072 0.17919 0.0
C28 C 0.09704 0.53108 0.28423 0.0
O29 O 0.10734 0.51272 0.24276 0.0
Cd30 Cd 0.04131 0.51602 0.19184 0.0
O31 O 0.05829 0.55729 0.29039 0.0
Cd32 Cd -0.0056 0.59305 0.22986 0.0
C33 C 0.94339 0.49116 0.23494 0.0
O34 O 0.05232 0.59809 0.15995 0.0
O35 O -0.02447 0.60978 0.1447 0.0
O36 O 0.01771 0.67702 0.25467 0.0
C37 C 0.01977 0.61428 0.13089 0.0
O38 O -0.0171 0.49725 0.2583 0.0
C39 C -0.02565 0.69247 0.26202 0.0
O40 O 0.92651 0.53034 0.21657 0.0
O41 O 0.94004 0.66072 0.25894 0.0
C42 C 0.84122 0.9072 0.28423 0.0
O43 O 0.83094 0.92557 0.24276 0.0
Cd44 Cd 0.89696 0.92227 0.19185 0.0
O45 O 0.87997 0.88098 0.29041 0.0
Cd46 Cd 0.94387 0.8452 0.22991 0.0
C47 C -0.00508 0.94706 0.23501 0.0
O48 O 0.88599 0.8402 0.15995 0.0
O49 O 0.96279 0.82853 0.14476 0.0
O50 O 0.92052 0.76121 0.25461 0.0
C51 C 0.91856 0.82403 0.13091 0.0
O52 O 0.95539 0.94099 0.25833 0.0
C53 C 0.96387 0.74576 0.26202 0.0
O54 O 0.01182 0.90786 0.2167 0.0
O55 O -0.00181 0.77751 0.25903 0.0
C56 C 0.15444 0.09733 0.40709 0.0
O57 O 0.19592 0.10761 0.42548 0.0
Cd58 Cd 0.24684 0.0416 0.42216 0.0
O59 O 0.14829 0.05858 0.38086 0.0
Cd60 Cd 0.2088 -0.00535 0.34517 0.0
C61 C 0.20362 0.94371 0.44706 0.0
O62 O 0.27875 0.05255 0.34009 0.0
O63 O 0.29398 -0.02424 0.32852 0.0
O64 O 0.18401 0.01784 0.26118 0.0
C65 C 0.3078 0.01998 0.32394 0.0
O66 O 0.18032 -0.01678 0.44082 0.0
C67 C 0.17662 -0.02553 0.24578 0.0
O68 O 0.22198 0.92679 0.4079 0.0
O69 O 0.17969 0.94021 0.27757 0.0
C70 C 0.78397 0.34091 0.40693 0.0
O71 O 0.74247 0.33062 0.42527 0.0
Cd72 Cd 0.69164 0.3967 0.42198 0.0
O73 O 0.79017 0.37968 0.38076 0.0
Cd74 Cd 0.72969 0.44366 0.34507 0.0
C75 C 0.73494 0.49453 0.44699 0.0
O76 O 0.65969 0.38583 0.33991 0.0
O77 O 0.64455 0.46264 0.32835 0.0
O78 O 0.75451 0.42048 0.2611 0.0
C79 C 0.63068 0.41844 0.32376 0.0
O80 O 0.75822 0.45501 0.44069 0.0
C81 C 0.76192 0.46385 0.24572 0.0
O82 O 0.71656 0.51149 0.40784 0.0
O83 O 0.75886 0.4981 0.27753 0.0
C84 C 0.15438 0.84102 0.03125 0.0
O85 O 0.19585 0.83073 0.01288 0.0
Cd86 Cd 0.24677 0.89676 0.01613 0.0
O87 O 0.14822 0.87979 0.05744 0.0
Cd88 Cd 0.20874 0.94374 0.09313 0.0
C89 C 0.20352 -0.00536 -0.00879 0.0
O90 O 0.27871 0.88589 0.0982 0.0
O91 O 0.29391 0.96269 0.10977 0.0
O92 O 0.184 0.92054 0.17712 0.0
C93 C 0.30776 0.91848 0.11433 0.0
O94 O 0.18024 0.95512 -0.00254 0.0
C95 C 0.17662 0.96391 0.19252 0.0
O96 O 0.22188 0.01159 0.03038 0.0
O97 O 0.17964 -0.00183 0.16072 0.0
C98 C 0.78406 0.59727 0.03117 0.0
O99 O 0.74258 0.60751 0.01276 0.0
Cd100 Cd 0.69171 0.54146 0.01616 0.0
O101 O 0.79022 0.55854 0.05741 0.0
Cd102 Cd 0.72969 0.49462 0.09311 0.0
C103 C 0.73492 0.44362 -0.00876 0.0
O104 O 0.65977 0.55253 0.09821 0.0
O105 O 0.64453 0.47575 0.10986 0.0
O106 O 0.75454 0.5178 0.17709 0.0
C107 C 0.63072 0.51998 0.11439 0.0
O108 O 0.75826 0.48311 -0.00251 0.0
C109 C 0.7619 0.47442 0.19247 0.0
O110 O 0.71647 0.42675 0.03039 0.0
O111 O 0.75883 0.44017 0.16066 0.0
C112 C 0.40729 0.15405 0.09687 0.0
O113 O 0.42572 0.1955 0.10715 0.0
Cd114 Cd 0.42229 0.24645 0.04118 0.0
O115 O 0.381 0.14792 0.05816 0.0
Cd116 Cd 0.34524 0.20854 -0.00563 0.0
C117 C 0.44707 0.20336 0.94323 0.0
O118 O 0.34024 0.2784 0.05237 0.0
O119 O 0.32858 0.29375 -0.02438 0.0
O120 O 0.26122 0.18375 0.01756 0.0
C121 C 0.32408 0.30751 0.01987 0.0
O122 O 0.44093 0.18 -0.01729 0.0
C123 C 0.24581 0.17642 -0.02581 0.0
O124 O 0.40787 0.2218 0.92645 0.0
O125 O 0.2776 0.17952 0.93993 0.0
C126 C 0.40712 0.78423 0.34128 0.0
O127 O 0.42546 0.74273 0.33099 0.0
Cd128 Cd 0.4221 0.69186 0.39703 0.0
O129 O 0.38091 0.79041 0.38002 0.0
Cd130 Cd 0.34512 0.72987 0.44388 0.0
C131 C 0.44702 0.73502 0.49493 0.0
O132 O 0.34002 0.65993 0.38599 0.0
O133 O 0.32839 0.64471 0.46276 0.0
O134 O 0.26112 0.75467 0.42066 0.0
C135 C 0.32385 0.63088 0.41854 0.0
O136 O 0.44084 0.75834 0.45543 0.0
C137 C 0.24572 0.76205 0.46403 0.0
O138 O 0.40781 0.71664 0.51177 0.0
O139 O 0.27752 0.75899 0.49829 0.0
C140 C 0.53102 0.65419 0.34131 0.0
O141 O 0.51262 0.69566 0.33105 0.0
Cd142 Cd 0.51603 0.74654 0.39707 0.0
O143 O 0.55727 0.64803 0.38004 0.0
Cd144 Cd 0.59303 0.70858 0.44392 0.0
C145 C 0.49116 0.7034 0.49494 0.0
O146 O 0.5981 0.77846 0.38597 0.0
O147 O 0.60979 0.79376 0.46273 0.0
O148 O 0.67701 0.6837 0.42075 0.0
C149 C 0.6143 0.80755 0.41849 0.0
O150 O 0.49726 0.68004 0.45544 0.0
C151 C 0.69242 0.67636 0.46412 0.0
O152 O 0.53033 0.72185 0.51178 0.0
O153 O 0.66063 0.6795 0.49838 0.0
C154 C 0.03108 0.78405 0.59738 0.0
O155 O 0.01275 0.74256 0.60767 0.0
Cd156 Cd 0.01609 0.69166 0.54165 0.0
O157 O 0.05729 0.79023 0.55863 0.0
Cd158 Cd 0.09307 0.72976 0.49472 0.0
C159 C -0.00887 0.73483 0.44376 0.0
O160 O 0.0982 0.65981 0.55258 0.0
O161 O 0.10984 0.64463 0.47579 0.0
O162 O 0.17705 0.75461 0.51794 0.0
C163 C 0.11438 0.63079 0.52001 0.0
O164 O -0.00265 0.75814 0.48327 0.0
C165 C 0.19244 0.762 0.47457 0.0
O166 O 0.03033 0.71652 0.42685 0.0
O167 O 0.16065 0.75895 0.44031 0.0
C168 C 0.84133 0.53101 0.78422 0.0
O169 O 0.83104 0.5126 0.74276 0.0
Cd170 Cd 0.897 0.5159 0.69179 0.0
O171 O 0.88007 0.55726 0.79037 0.0
Cd172 Cd 0.94395 0.59302 0.72983 0.0
C173 C -0.00499 0.49115 0.73493 0.0
O174 O 0.88602 0.59796 0.6599 0.0
O175 O 0.9628 0.6096 0.64464 0.0
O176 O 0.92066 0.67703 0.75454 0.0
C177 C 0.91856 0.61409 0.63082 0.0
O178 O 0.95548 0.49728 0.75823 0.0
C179 C 0.96403 0.69249 0.7619 0.0
O180 O 0.0119 0.53038 0.71666 0.0
O181 O -0.00168 0.66073 0.75886 0.0
C182 C 0.09735 0.90714 0.78404 0.0
O183 O 0.10764 0.92547 0.74255 0.0
Cd184 Cd 0.04159 0.9223 0.69165 0.0
O185 O 0.05856 0.88097 0.79023 0.0
Cd186 Cd -0.00544 0.84521 0.72979 0.0
C187 C 0.94366 0.94715 0.73492 0.0
O188 O 0.05235 0.84023 0.65975 0.0
O189 O -0.02451 0.82859 0.64465 0.0
O190 O 0.01788 0.76122 0.75447 0.0
C191 C 0.0197 0.82408 0.63077 0.0
O192 O -0.01678 0.94094 0.75816 0.0
C193 C -0.02548 0.74577 0.76188 0.0
O194 O 0.92665 0.90794 0.71671 0.0
O195 O 0.94022 0.77753 0.7589 0.0
C196 C 0.84137 0.40719 0.65395 0.0
O197 O 0.8311 0.42556 0.69542 0.0
Cd198 Cd 0.89712 0.42221 0.74632 0.0
O199 O 0.88011 0.38095 0.64779 0.0
Cd200 Cd 0.94401 0.34519 0.70831 0.0
C201 C -0.00496 0.44706 0.70322 0.0
O202 O 0.88608 0.34015 0.77821 0.0
O203 O 0.96286 0.32842 0.79346 0.0
O204 O 0.92073 0.26121 0.68349 0.0
C205 C 0.91862 0.32395 0.80727 0.0
O206 O 0.95553 0.44097 0.67985 0.0
C207 C 0.96409 0.24578 0.67613 0.0
O208 O 0.01191 0.40788 0.7216 0.0
O209 O -0.00161 0.27754 0.67922 0.0
C210 C 0.09737 0.03111 0.65416 0.0
O211 O 0.10762 0.01276 0.69565 0.0
Cd212 Cd 0.04153 0.01607 0.74647 0.0
O213 O 0.05862 0.05732 0.64794 0.0
Cd214 Cd -0.00537 0.0931 0.70835 0.0
C215 C 0.94365 -0.00878 0.7032 0.0
O216 O 0.05244 0.09815 0.77836 0.0
O217 O -0.02437 0.10984 0.79346 0.0
O218 O 0.01795 0.17707 0.68358 0.0
C219 C 0.01984 0.11434 0.80736 0.0
O220 O -0.01681 -0.00267 0.67991 0.0
C221 C -0.02541 0.1925 0.67616 0.0
O222 O 0.9267 0.0304 0.72151 0.0
O223 O 0.94029 0.16074 0.67915 0.0
C224 C 0.78401 0.84084 0.53122 0.0
O225 O 0.74252 0.83059 0.51283 0.0
Cd226 Cd 0.69166 0.89664 0.51616 0.0
O227 O 0.7902 0.87957 0.55746 0.0
Cd228 Cd 0.72973 0.94354 0.59317 0.0
C229 C 0.73496 -0.0055 0.49129 0.0
O230 O 0.65973 0.88569 0.59822 0.0
O231 O 0.64456 0.96249 0.60983 0.0
O232 O 0.75448 0.92035 0.67717 0.0
C233 C 0.6307 0.91828 0.61437 0.0
O234 O 0.75824 0.95497 0.49753 0.0
C235 C 0.76189 0.96372 0.69256 0.0
O236 O 0.7166 0.01143 0.53046 0.0
O237 O 0.75887 -0.00203 0.66075 0.0
C238 C 0.15444 0.59744 0.53143 0.0
O239 O 0.19594 0.60776 0.5131 0.0
Cd240 Cd 0.24679 0.54168 0.51624 0.0
O241 O 0.14826 0.55863 0.55755 0.0
Cd242 Cd 0.20874 0.49465 0.59322 0.0
C243 C 0.20341 0.44381 0.49132 0.0
O244 O 0.27881 0.55242 0.59829 0.0
O245 O 0.29391 0.47559 0.60976 0.0
O246 O 0.18409 0.51785 0.67724 0.0
C247 C 0.30783 0.51978 0.61436 0.0
O248 O 0.18019 0.48337 0.49762 0.0
C249 C 0.17666 0.47448 0.69262 0.0
O250 O 0.22174 0.42678 0.53045 0.0
O251 O 0.17963 0.44023 0.66081 0.0
C252 C 0.78392 0.09731 0.90703 0.0
O253 O 0.74243 0.10758 0.92539 0.0
Cd254 Cd 0.69156 0.04153 0.92209 0.0
O255 O 0.7901 0.05854 0.88084 0.0
Cd256 Cd 0.72963 -0.00546 0.84516 0.0
C257 C 0.73483 0.9437 0.94709 0.0
O258 O 0.65966 0.05239 0.84 0.0
O259 O 0.64447 -0.02442 0.82842 0.0
O260 O 0.75448 0.01769 0.76118 0.0
C261 C 0.63062 0.01979 0.82385 0.0
O262 O 0.75812 -0.01679 0.9408 0.0
C263 C 0.76185 -0.02569 0.74581 0.0
O264 O 0.71647 0.92672 0.90794 0.0
O265 O 0.75877 0.94006 0.77762 0.0
C266 C 0.15445 0.341 0.90712 0.0
O267 O 0.19592 0.33069 0.9255 0.0
Cd268 Cd 0.24685 0.3967 0.92219 0.0
O269 O 0.14831 0.37975 0.88091 0.0
Cd270 Cd 0.20888 0.44365 0.84524 0.0
C271 C 0.20366 0.49459 0.94712 0.0
O272 O 0.27879 0.38572 0.84014 0.0
O273 O 0.29408 0.46251 0.8286 0.0
O274 O 0.18405 0.42051 0.76124 0.0
C275 C 0.30788 0.41828 0.82402 0.0
O276 O 0.18033 0.45509 0.94084 0.0
C277 C 0.17671 0.4639 0.74588 0.0
O278 O 0.22208 0.5115 0.90798 0.0
O279 O 0.17981 0.49814 0.77768 0.0
C280 C 0.53114 0.78399 0.84124 0.0
O281 O 0.51274 0.74252 0.83097 0.0
Cd282 Cd 0.51615 0.69163 0.89699 0.0
O283 O 0.5574 0.79015 0.87997 0.0
Cd284 Cd 0.59315 0.72959 0.94383 0.0
C285 C 0.49128 0.73481 -0.00513 0.0
O286 O 0.59821 0.6597 0.88588 0.0
O287 O 0.60984 0.6444 0.96264 0.0
O288 O 0.67715 0.75445 0.92069 0.0
C289 C 0.61437 0.63061 0.91841 0.0
O290 O 0.49748 0.75814 0.95538 0.0
C291 C 0.69254 0.76179 0.96407 0.0
O292 O 0.53046 0.71637 0.01171 0.0
O293 O 0.66074 0.75866 -0.00169 0.0
C294 C 0.53122 0.154 0.59689 0.0
O295 O 0.51288 0.19548 0.6072 0.0
Cd296 Cd 0.51623 0.24642 0.54123 0.0
O297 O 0.55744 0.14785 0.55814 0.0
Cd298 Cd 0.59321 0.20844 0.49431 0.0
C299 C 0.49132 0.20334 0.44328 0.0
O300 O 0.59831 0.27833 0.55227 0.0
O301 O 0.6099 0.29363 0.47551 0.0
O302 O 0.67722 0.18362 0.51748 0.0
C303 C 0.61445 0.30742 0.51974 0.0
O304 O 0.4975 0.17999 0.48277 0.0
C305 C 0.69261 0.17628 0.4741 0.0
O306 O 0.53052 0.22171 0.42643 0.0
O307 O 0.6608 0.17938 0.43985 0.0
C308 C 0.40737 0.2842 0.59694 0.0
O309 O 0.42578 0.24274 0.6072 0.0
Cd310 Cd 0.4224 0.19183 0.5412 0.0
O311 O 0.3811 0.29034 0.55822 0.0
Cd312 Cd 0.34534 0.22977 0.49435 0.0
C313 C 0.44718 0.23498 0.44329 0.0
O314 O 0.34034 0.15988 0.55229 0.0
O315 O 0.32867 0.14458 0.47554 0.0
O316 O 0.26133 0.25457 0.51752 0.0
C317 C 0.32418 0.13078 0.51977 0.0
O318 O 0.44111 0.25832 0.4828 0.0
C319 C 0.24592 0.26191 0.47414 0.0
O320 O 0.408 0.21655 0.42645 0.0
O321 O 0.27772 0.25881 0.43989 0.0
C322 C 0.9072 0.15431 0.34067 0.0
O323 O 0.92551 0.19581 0.33037 0.0
Cd324 Cd 0.92227 0.24667 0.39644 0.0
O325 O 0.88104 0.14809 0.37945 0.0
Cd326 Cd 0.84527 0.20852 0.44342 0.0
C327 C 0.94721 0.20336 0.49431 0.0
O328 O 0.84017 0.27856 0.38565 0.0
O329 O 0.82854 0.29362 0.4625 0.0
O330 O 0.76127 0.18375 0.42018 0.0
C331 C 0.82401 0.30751 0.4183 0.0
O332 O 0.94096 0.18012 0.45476 0.0
C333 C 0.74588 0.17631 0.46354 0.0
O334 O 0.90803 0.22164 0.5113 0.0
O335 O 0.77769 0.1793 0.4978 0.0
C336 C 0.59735 0.90688 0.65443 0.0
O337 O 0.60765 0.92525 0.6959 0.0
Cd338 Cd 0.54152 0.9221 0.7467 0.0
O339 O 0.55855 0.88071 0.64826 0.0
Cd340 Cd 0.49462 0.84507 0.70881 0.0
C341 C 0.44364 0.9469 0.70329 0.0
O342 O 0.55241 0.84014 0.77885 0.0
O343 O 0.47556 0.82855 0.79396 0.0
O344 O 0.5179 0.76106 0.68419 0.0
C345 C 0.51977 0.82403 0.80785 0.0
O346 O 0.48319 0.94061 0.68007 0.0
C347 C 0.47454 0.74562 0.67677 0.0
O348 O 0.42669 0.90778 0.72173 0.0
O349 O 0.44025 0.7774 0.67975 0.0
C350 C 0.34122 0.53109 0.65442 0.0
O351 O 0.33092 0.51267 0.69587 0.0
Cd352 Cd 0.39699 0.51593 0.74674 0.0
O353 O 0.37998 0.55731 0.6483 0.0
Cd354 Cd 0.44388 0.59295 0.7089 0.0
C355 C 0.49489 0.49112 0.70349 0.0
O356 O 0.38599 0.59792 0.77883 0.0
O357 O 0.46278 0.60952 0.79409 0.0
O358 O 0.42064 0.67693 0.68415 0.0
C359 C 0.41855 0.61404 0.80791 0.0
O360 O 0.45537 0.49739 0.68019 0.0
C361 C 0.46402 0.69236 0.67682 0.0
O362 O 0.5118 0.53026 0.72195 0.0
O363 O 0.49831 0.66059 0.67988 0.0
C364 C 0.59729 0.03117 0.78376 0.0
O365 O 0.60763 0.01279 0.7423 0.0
Cd366 Cd 0.54152 0.0159 0.69146 0.0
O367 O 0.55849 0.05732 0.78988 0.0
Cd368 Cd 0.49458 0.09293 0.72927 0.0
C369 C 0.44363 -0.00888 0.73479 0.0
O370 O 0.55243 0.09786 0.65929 0.0
O371 O 0.4756 0.10941 0.64408 0.0
O372 O 0.51784 0.17695 0.75395 0.0
C373 C 0.51983 0.11395 0.63025 0.0
O374 O 0.48318 -0.00265 0.75806 0.0
C375 C 0.47447 0.19237 0.76131 0.0
O376 O 0.42668 0.0302 0.71629 0.0
O377 O 0.44019 0.1606 0.75826 0.0
C378 C 0.34118 0.40687 0.78392 0.0
O379 O 0.33083 0.42523 0.74246 0.0
Cd380 Cd 0.39693 0.4222 0.69163 0.0
O381 O 0.38 0.38074 0.79005 0.0
Cd382 Cd 0.44389 0.34512 0.72943 0.0
C383 C 0.49486 0.44692 0.73501 0.0
O384 O 0.38608 0.34025 0.65939 0.0
O385 O 0.46293 0.32878 0.64423 0.0
O386 O 0.4206 0.26108 0.75394 0.0
C387 C 0.41871 0.32423 0.63035 0.0
O388 O 0.4553 0.44071 0.75823 0.0
C389 C 0.46396 0.24564 0.76133 0.0
O390 O 0.51183 0.40782 0.71655 0.0
O391 O 0.49826 0.27742 0.7584 0.0
C392 C 0.65445 0.59729 0.90696 0.0
O393 O 0.69594 0.60762 0.9253 0.0
Cd394 Cd 0.74678 0.54153 0.92227 0.0
O395 O 0.64827 0.55847 0.88084 0.0
Cd396 Cd 0.70882 0.49451 0.84519 0.0
C397 C 0.70335 0.44366 0.94706 0.0
O398 O 0.77887 0.55231 0.84027 0.0
O399 O 0.79404 0.47547 0.82882 0.0
O400 O 0.6842 0.51769 0.76112 0.0
C401 C 0.80792 0.51968 0.82425 0.0
O402 O 0.68015 0.48324 0.94086 0.0
C403 C 0.67683 0.47431 0.74572 0.0
O404 O 0.72175 0.42665 0.90795 0.0
O405 O 0.67983 0.44006 0.77753 0.0
C406 C 0.28404 0.84093 0.90711 0.0
O407 O 0.24254 0.83067 0.92545 0.0
Cd408 Cd 0.19175 0.89678 0.92223 0.0
O409 O 0.29026 0.8797 0.88093 0.0
Cd410 Cd 0.22981 0.9437 0.8452 0.0
C411 C 0.23515 -0.00539 0.94708 0.0
O412 O 0.15977 0.8859 0.84019 0.0
O413 O 0.14464 0.96273 0.82858 0.0
O414 O 0.25454 0.92051 0.76118 0.0
C415 C 0.13076 0.91852 0.82407 0.0
O416 O 0.25839 0.95505 0.94092 0.0
C417 C 0.26196 0.96388 0.74579 0.0
O418 O 0.21677 0.01158 0.90794 0.0
O419 O 0.25893 -0.00187 0.7776 0.0
C420 C 0.65451 0.34078 0.53118 0.0
O421 O 0.696 0.33049 0.51283 0.0
Cd422 Cd 0.74683 0.3966 0.51588 0.0
O423 O 0.64833 0.37958 0.55732 0.0
Cd424 Cd 0.70882 0.4436 0.593 0.0
C425 C 0.70334 0.49446 0.49114 0.0
O426 O 0.77891 0.38586 0.59789 0.0
O427 O 0.79402 0.46271 0.6094 0.0
O428 O 0.68425 0.42038 0.67706 0.0
C429 C 0.80793 0.41851 0.61393 0.0
O430 O 0.68017 0.45486 0.49733 0.0
C431 C 0.67685 0.46374 0.69246 0.0
O432 O 0.72171 0.5115 0.53026 0.0
O433 O 0.67979 0.498 0.66065 0.0
C434 C 0.28414 0.09742 0.53125 0.0
O435 O 0.24263 0.1077 0.51292 0.0
Cd436 Cd 0.19183 0.04158 0.51605 0.0
O437 O 0.29035 0.05863 0.55739 0.0
Cd438 Cd 0.22988 -0.00538 0.5931 0.0
C439 C 0.23524 0.94375 0.49121 0.0
O440 O 0.15982 0.05239 0.59808 0.0
O441 O 0.14471 -0.02446 0.60966 0.0
O442 O 0.25456 0.01783 0.67714 0.0
C443 C 0.13082 0.01975 0.61417 0.0
O444 O 0.25846 -0.01668 0.49739 0.0
C445 C 0.26196 -0.02554 0.69253 0.0
O446 O 0.21686 0.92676 0.53034 0.0
O447 O 0.25898 0.9402 0.66072 0.0
C448 C 0.9071 0.65413 0.59746 0.0
O449 O 0.92542 0.69563 0.60777 0.0
Cd450 Cd 0.92222 0.74647 0.54169 0.0
O451 O 0.88093 0.64793 0.55868 0.0
Cd452 Cd 0.84516 0.7084 0.49474 0.0
C453 C 0.94702 0.70315 0.4438 0.0
O454 O 0.84017 0.77845 0.55251 0.0
O455 O 0.82855 0.79353 0.47566 0.0
O456 O 0.76112 0.68377 0.51802 0.0
C457 C 0.82403 0.80742 0.51987 0.0
O458 O 0.9409 0.67991 0.48336 0.0
C459 C 0.7457 0.67633 0.47467 0.0
O460 O 0.90785 0.72147 0.42684 0.0
O461 O 0.77749 0.67925 0.44039 0.0
C462 C 0.90712 0.28392 0.84063 0.0
O463 O 0.92541 0.24241 0.83035 0.0
Cd464 Cd 0.92219 0.19161 0.89646 0.0
O465 O 0.88098 0.29016 0.87941 0.0
Cd466 Cd 0.84519 0.22976 0.9434 0.0
C467 C 0.9471 0.235 -0.00568 0.0
O468 O 0.84011 0.15966 0.88569 0.0
O469 O 0.82849 0.14466 0.96255 0.0
O470 O 0.76117 0.25445 0.92012 0.0
C471 C 0.82395 0.13073 0.91836 0.0
O472 O 0.94086 0.2582 0.95475 0.0
C473 C 0.74577 0.26194 0.96347 0.0
O474 O 0.90791 0.21672 0.01131 0.0
O475 O 0.77758 0.25899 -0.00226 0.0
C476 C 0.03127 0.15438 0.84073 0.0
O477 O 0.01296 0.19588 0.83042 0.0
Cd478 Cd 0.01614 0.2467 0.89652 0.0
O479 O 0.0574 0.14818 0.87953 0.0
Cd480 Cd 0.09313 0.20862 0.94353 0.0
C481 C -0.00878 0.20334 -0.00566 0.0
O482 O 0.09822 0.27867 0.88579 0.0
O483 O 0.10982 0.29373 0.96264 0.0
O484 O 0.17713 0.18389 0.92028 0.0
C485 C 0.11437 0.30763 0.91845 0.0
O486 O -0.00259 0.18011 0.95479 0.0
C487 C 0.19253 0.17645 0.96364 0.0
O488 O 0.03036 0.22168 0.01138 0.0
O489 O 0.16074 0.17943 -0.00209 0.0
C490 C 0.53114 0.28427 0.09679 0.0
O491 O 0.51277 0.2428 0.1071 0.0
Cd492 Cd 0.51614 0.19189 0.0411 0.0
O493 O 0.55738 0.29039 0.05805 0.0
Cd494 Cd 0.59311 0.22975 -0.00574 0.0
C495 C 0.49125 0.23495 0.9432 0.0
O496 O 0.59818 0.15992 0.05226 0.0
O497 O 0.60982 0.14455 -0.02449 0.0
O498 O 0.67711 0.25462 0.01741 0.0
C499 C 0.61434 0.1308 0.01976 0.0
O500 O 0.49736 0.25835 -0.01733 0.0
C501 C 0.6925 0.26191 -0.02598 0.0
O502 O 0.53041 0.21643 0.9264 0.0
O503 O 0.6607 0.25878 0.93977 0.0
C504 C 0.3411 0.03138 0.28384 0.0
O505 O 0.33074 0.013 0.24238 0.0
Cd506 Cd 0.3968 0.01603 0.1915 0.0
O507 O 0.37992 0.05751 0.28996 0.0
Cd508 Cd 0.44382 0.09312 0.22934 0.0
C509 C 0.49477 -0.0087 0.23488 0.0
O510 O 0.38599 0.09799 0.15931 0.0
O511 O 0.46285 0.10945 0.14413 0.0
O512 O 0.42056 0.17717 0.25387 0.0
C513 C 0.41863 0.11401 0.13026 0.0
O514 O 0.4552 -0.0024 0.25808 0.0
C515 C 0.46393 0.19261 0.26126 0.0
O516 O 0.51175 0.03042 0.21647 0.0
O517 O 0.49821 0.16083 0.25829 0.0
C518 C 0.59733 0.40708 0.28367 0.0
O519 O 0.60767 0.42546 0.24222 0.0
Cd520 Cd 0.54159 0.42237 0.19134 0.0
O521 O 0.55853 0.38092 0.28979 0.0
Cd522 Cd 0.49459 0.34531 0.2292 0.0
C523 C 0.44367 0.44715 0.23471 0.0
O524 O 0.55241 0.34039 0.1592 0.0
O525 O 0.47556 0.32887 0.14401 0.0
O526 O 0.51783 0.26129 0.25384 0.0
C527 C 0.51979 0.32433 0.13016 0.0
O528 O 0.48322 0.44084 0.25793 0.0
C529 C 0.47446 0.24587 0.2612 0.0
O530 O 0.42667 0.40804 0.21629 0.0
O531 O 0.44018 0.27765 0.2582 0.0
C532 C 0.3411 0.9071 0.15441 0.0
O533 O 0.33079 0.92549 0.19587 0.0
Cd534 Cd 0.39691 0.92232 0.24669 0.0
O535 O 0.37989 0.88093 0.14828 0.0
Cd536 Cd 0.4438 0.84529 0.20888 0.0
C537 C 0.49478 0.94709 0.20336 0.0
O538 O 0.38594 0.84036 0.27885 0.0
O539 O 0.46277 0.82876 0.29406 0.0
O540 O 0.42057 0.76128 0.18417 0.0
C541 C 0.41854 0.82425 0.30789 0.0
O542 O 0.45524 0.94087 0.18009 0.0
C543 C 0.46395 0.74587 0.17681 0.0
O544 O 0.51172 0.908 0.22187 0.0
O545 O 0.49822 0.77766 0.17986 0.0
C546 C 0.59738 0.53142 0.15446 0.0
O547 O 0.6077 0.51309 0.19594 0.0
Cd548 Cd 0.54153 0.51615 0.24668 0.0
O549 O 0.55856 0.55754 0.14827 0.0
Cd550 Cd 0.49459 0.59317 0.20881 0.0
C551 C 0.44368 0.49136 0.2032 0.0
O552 O 0.55235 0.59811 0.27889 0.0
O553 O 0.47548 0.60962 0.29397 0.0
O554 O 0.51786 0.6772 0.18422 0.0
C555 C 0.51969 0.61417 0.30788 0.0
O556 O 0.48325 0.49761 0.18 0.0
C557 C 0.47449 0.69261 0.17681 0.0
O558 O 0.42667 0.53044 0.22167 0.0
O559 O 0.44021 0.66082 0.17976 0.0
C560 C 0.28402 0.34084 0.03135 0.0
O561 O 0.24252 0.33055 0.01301 0.0
Cd562 Cd 0.19173 0.39667 0.01605 0.0
O563 O 0.29022 0.37965 0.05748 0.0
Cd564 Cd 0.22972 0.44366 0.09315 0.0
C565 C 0.23524 0.49452 -0.00871 0.0
O566 O 0.15962 0.38592 0.09803 0.0
O567 O 0.14452 0.46277 0.10951 0.0
O568 O 0.25429 0.42048 0.17723 0.0
C569 C 0.1306 0.41857 0.11405 0.0
O570 O 0.2584 0.45493 -0.00251 0.0
C571 C 0.26169 0.46385 0.19262 0.0
O572 O 0.21686 0.51155 0.0304 0.0
O573 O 0.25873 0.49809 0.1608 0.0
C574 C 0.65439 0.09746 0.03125 0.0
O575 O 0.69589 0.10776 0.01293 0.0
Cd576 Cd 0.7467 0.04164 0.01598 0.0
O577 O 0.64818 0.05866 0.05738 0.0
Cd578 Cd 0.70865 -0.00536 0.09309 0.0
C579 C 0.70321 0.94377 -0.00878 0.0
O580 O 0.77876 0.05237 0.09801 0.0
O581 O 0.79384 -0.02448 0.1095 0.0
O582 O 0.68408 0.01784 0.17716 0.0
C583 C 0.80777 0.01971 0.11404 0.0
O584 O 0.68005 -0.01663 -0.0026 0.0
C585 C 0.67665 -0.02552 0.19255 0.0
O586 O 0.72154 0.92673 0.03035 0.0
O587 O 0.67959 0.94023 0.16073 0.0
C588 C 0.28381 0.59751 0.40711 0.0
O589 O 0.24231 0.60778 0.42546 0.0
Cd590 Cd 0.19152 0.54166 0.42236 0.0
O591 O 0.29001 0.55871 0.38096 0.0
Cd592 Cd 0.22955 0.49465 0.34529 0.0
C593 C 0.23501 0.44384 0.44717 0.0
O594 O 0.15947 0.5524 0.34033 0.0
O595 O 0.14437 0.47555 0.3288 0.0
O596 O 0.25423 0.51782 0.26125 0.0
C597 C 0.13046 0.51975 0.32426 0.0
O598 O 0.25819 0.48343 0.44095 0.0
C599 C 0.26163 0.47444 0.24588 0.0
O600 O 0.21664 0.42678 0.40806 0.0
O601 O 0.25863 0.4402 0.27769 0.0
C602 C 0.65438 0.84086 0.40702 0.0
O603 O 0.69588 0.83053 0.42533 0.0
Cd604 Cd 0.74673 0.89661 0.4223 0.0
O605 O 0.64819 0.87969 0.38092 0.0
Cd606 Cd 0.70871 0.94367 0.34524 0.0
C607 C 0.70334 -0.00552 0.44715 0.0
O608 O 0.77876 0.88589 0.34028 0.0
O609 O 0.79392 0.96274 0.32881 0.0
O610 O 0.68404 0.92051 0.26118 0.0
C611 C 0.8078 0.91853 0.32425 0.0
O612 O 0.68013 0.95491 0.44094 0.0
C613 C 0.67668 0.96389 0.24581 0.0
O614 O 0.72169 0.01152 0.40803 0.0
O615 O 0.67969 -0.00186 0.27763 0.0
C616 C 0.03133 0.28394 0.34065 0.0
O617 O 0.01304 0.24243 0.33035 0.0
Cd618 Cd 0.0162 0.19164 0.39646 0.0
O619 O 0.05746 0.29018 0.37946 0.0
Cd620 Cd 0.09322 0.22976 0.44346 0.0
C621 C -0.00867 0.23504 0.4943 0.0
O622 O 0.09828 0.15967 0.38574 0.0
O623 O 0.10985 0.14465 0.4626 0.0
O624 O 0.17725 0.25445 0.42022 0.0
C625 C 0.1144 0.13073 0.4184 0.0
O626 O -0.0025 0.25824 0.45473 0.0
C627 C 0.19265 0.2619 0.46358 0.0
O628 O 0.03048 0.21673 0.51133 0.0
O629 O 0.16085 0.25895 0.49784 0.0
C630 C 0.03124 0.65434 0.09756 0.0
O631 O 0.01295 0.69584 0.10788 0.0
Cd632 Cd 0.01613 0.7467 0.04182 0.0
O633 O 0.05738 0.64814 0.05876 0.0
Cd634 Cd 0.09314 0.70859 -0.00519 0.0
C635 C -0.00877 0.70336 0.94392 0.0
O636 O 0.09822 0.77864 0.05257 0.0
O637 O 0.10976 0.79372 -0.02428 0.0
O638 O 0.17717 0.68388 0.01803 0.0
C639 C 0.11433 0.80762 0.01992 0.0
O640 O -0.00252 0.68015 -0.01653 0.0
C641 C 0.19255 0.67643 -0.02533 0.0
O642 O 0.03041 0.72163 0.92691 0.0
O643 O 0.16074 0.67942 0.94041 0.0
C644 C 0.90711 0.78398 0.09755 0.0
O645 O 0.92543 0.74249 0.10786 0.0
Cd646 Cd 0.92228 0.69166 0.04177 0.0
O647 O 0.88097 0.79018 0.05875 0.0
Cd648 Cd 0.84524 0.72972 -0.00523 0.0
C649 C 0.94712 0.73503 0.94392 0.0
O650 O 0.84021 0.65965 0.0525 0.0
O651 O 0.82863 0.64459 -0.02436 0.0
O652 O 0.7612 0.75436 0.018 0.0
C653 C 0.82409 0.63068 0.01984 0.0
O654 O 0.94094 0.75825 -0.01652 0.0
C655 C 0.74581 0.7618 -0.02536 0.0
O656 O 0.90797 0.7167 0.92688 0.0
O657 O 0.77762 0.75887 0.94038 0.0
C658 C 0.40713 0.65411 0.84125 0.0
O659 O 0.42547 0.69559 0.83093 0.0
Cd660 Cd 0.42223 0.74645 0.89699 0.0
O661 O 0.38094 0.64796 0.88003 0.0
Cd662 Cd 0.34523 0.70856 0.94388 0.0
C663 C 0.44709 0.70325 -0.00513 0.0
O664 O 0.3402 0.77848 0.88598 0.0
O665 O 0.32858 0.79373 0.96278 0.0
O666 O 0.2612 0.68378 0.92071 0.0
C667 C 0.32407 0.80753 0.91855 0.0
O668 O 0.44094 0.67993 0.95536 0.0
C669 C 0.24582 0.67644 0.9641 0.0
O670 O 0.40796 0.72173 0.01174 0.0
O671 O 0.27764 0.6795 -0.00165 0.0
loop_
_geom_bond_atom_site_label_1
_geom_bond_atom_site_label_2
_geom_bond_distance
_geom_bond_site_symmetry_2
_ccdc_geom_bond_type
C0 O1 1.306 . S
C0 O3 1.160 . S
O1 C0 1.306 . S
O1 Cd2 2.228 . S
Cd2 O1 2.228 . S
Cd2 O6 2.273 . S
Cd2 O10 2.277 . S
O3 C0 1.160 . S
O3 Cd4 2.203 . S
Cd4 O3 2.203 . S
Cd4 O6 2.411 . S
Cd4 O7 2.333 . S
Cd4 O8 2.352 . S
Cd4 O12 2.277 . S
Cd4 O13 2.356 1_455 S
C5 O10 1.209 . S
C5 O12 1.226 . S
O6 Cd2 2.273 . S
O6 Cd4 2.411 . S
O6 C9 1.320 . S
O7 Cd4 2.333 . S
O7 C9 1.214 . S
O8 Cd4 2.352 . S
O8 C11 1.258 1_455 S
C9 O6 1.320 . S
C9 O7 1.214 . S
O10 Cd2 2.277 . S
O10 C5 1.209 . S
C11 O8 1.258 1_655 S
C11 O13 1.282 . S
O12 Cd4 2.277 . S
O12 C5 1.226 . S
O13 Cd4 2.356 1_655 S
O13 C11 1.282 . S
C14 O15 1.306 . S
C14 O17 1.160 . S
O15 C14 1.306 . S
O15 Cd16 2.228 . S
Cd16 O15 2.228 . S
Cd16 O20 2.273 . S
Cd16 O24 2.277 . S
O17 C14 1.160 . S
O17 Cd18 2.203 . S
Cd18 O17 2.203 . S
Cd18 O20 2.411 . S
Cd18 O21 2.333 . S
Cd18 O22 2.352 . S
Cd18 O26 2.277 . S
Cd18 O27 2.356 1_655 S
C19 O24 1.209 . S
C19 O26 1.226 . S
O20 Cd16 2.273 . S
O20 Cd18 2.411 . S
O20 C23 1.320 . S
O21 Cd18 2.333 . S
O21 C23 1.214 . S
O22 Cd18 2.352 . S
O22 C25 1.258 1_655 S
C23 O20 1.320 . S
C23 O21 1.214 . S
O24 Cd16 2.277 . S
O24 C19 1.209 . S
C25 O22 1.258 1_455 S
C25 O27 1.282 . S
O26 Cd18 2.277 . S
O26 C19 1.226 . S
O27 Cd18 2.356 1_455 S
O27 C25 1.282 . S
C28 O29 1.306 . S
C28 O31 1.160 . S
O29 C28 1.306 . S
O29 Cd30 2.228 . S
Cd30 O29 2.228 . S
Cd30 O34 2.273 . S
Cd30 O38 2.277 . S
O31 C28 1.160 . S
O31 Cd32 2.203 . S
Cd32 O31 2.203 . S
Cd32 O34 2.411 . S
Cd32 O35 2.333 . S
Cd32 O36 2.352 . S
Cd32 O40 2.277 . S
Cd32 O41 2.356 1_455 S
C33 O38 1.209 . S
C33 O40 1.226 . S
O34 Cd30 2.273 . S
O34 Cd32 2.411 . S
O34 C37 1.320 . S
O35 Cd32 2.333 . S
O35 C37 1.214 . S
O36 Cd32 2.352 . S
O36 C39 1.258 1_455 S
C37 O34 1.320 . S
C37 O35 1.214 . S
O38 Cd30 2.277 . S
O38 C33 1.209 . S
C39 O36 1.258 1_655 S
C39 O41 1.282 . S
O40 Cd32 2.277 . S
O40 C33 1.226 . S
O41 Cd32 2.356 1_655 S
O41 C39 1.282 . S
C42 O43 1.306 . S
C42 O45 1.160 . S
O43 C42 1.306 . S
O43 Cd44 2.228 . S
Cd44 O43 2.228 . S
Cd44 O48 2.273 . S
Cd44 O52 2.277 . S
O45 C42 1.160 . S
O45 Cd46 2.203 . S
Cd46 O45 2.203 . S
Cd46 O48 2.411 . S
Cd46 O49 2.333 . S
Cd46 O50 2.352 . S
Cd46 O54 2.277 . S
Cd46 O55 2.356 1_655 S
C47 O52 1.209 . S
C47 O54 1.226 . S
O48 Cd44 2.273 . S
O48 Cd46 2.411 . S
O48 C51 1.320 . S
O49 Cd46 2.333 . S
O49 C51 1.214 . S
O50 Cd46 2.352 . S
O50 C53 1.258 1_655 S
C51 O48 1.320 . S
C51 O49 1.214 . S
O52 Cd44 2.277 . S
O52 C47 1.209 . S
C53 O50 1.258 1_455 S
C53 O55 1.282 . S
O54 Cd46 2.277 . S
O54 C47 1.226 . S
O55 Cd46 2.356 1_455 S
O55 C53 1.282 . S
C56 O57 1.306 . S
C56 O59 1.160 . S
O57 C56 1.306 . S
O57 Cd58 2.228 . S
Cd58 O57 2.228 . S
Cd58 O62 2.273 . S
Cd58 O66 2.277 . S
O59 C56 1.160 . S
O59 Cd60 2.203 . S
Cd60 O59 2.203 . S
Cd60 O62 2.411 . S
Cd60 O63 2.333 . S
Cd60 O64 2.352 . S
Cd60 O68 2.277 . S
Cd60 O69 2.356 1_545 S
C61 O66 1.209 . S
C61 O68 1.226 . S
O62 Cd58 2.273 . S
O62 Cd60 2.411 . S
O62 C65 1.320 . S
O63 Cd60 2.333 . S
O63 C65 1.214 . S
O64 Cd60 2.352 . S
O64 C67 1.258 1_545 S
C65 O62 1.320 . S
C65 O63 1.214 . S
O66 Cd58 2.277 . S
O66 C61 1.209 . S
C67 O64 1.258 1_565 S
C67 O69 1.282 . S
O68 Cd60 2.277 . S
O68 C61 1.226 . S
O69 Cd60 2.356 1_565 S
O69 C67 1.282 . S
C70 O71 1.306 . S
C70 O73 1.160 . S
O71 C70 1.306 . S
O71 Cd72 2.228 . S
Cd72 O71 2.228 . S
Cd72 O76 2.273 . S
Cd72 O80 2.277 . S
O73 C70 1.160 . S
O73 Cd74 2.203 . S
Cd74 O73 2.203 . S
Cd74 O76 2.411 . S
Cd74 O77 2.333 . S
Cd74 O78 2.352 . S
Cd74 O82 2.277 . S
Cd74 O83 2.356 . S
C75 O80 1.209 . S
C75 O82 1.226 . S
O76 Cd72 2.273 . S
O76 Cd74 2.411 . S
O76 C79 1.320 . S
O77 Cd74 2.333 . S
O77 C79 1.214 . S
O78 Cd74 2.352 . S
O78 C81 1.258 . S
C79 O76 1.320 . S
C79 O77 1.214 . S
O80 Cd72 2.277 . S
O80 C75 1.209 . S
C81 O78 1.258 . S
C81 O83 1.282 . S
O82 Cd74 2.277 . S
O82 C75 1.226 . S
O83 Cd74 2.356 . S
O83 C81 1.282 . S
C84 O85 1.306 . S
C84 O87 1.160 . S
O85 C84 1.306 . S
O85 Cd86 2.228 . S
Cd86 O85 2.228 . S
Cd86 O90 2.273 . S
Cd86 O94 2.277 . S
O87 C84 1.160 . S
O87 Cd88 2.203 . S
Cd88 O87 2.203 . S
Cd88 O90 2.411 . S
Cd88 O91 2.333 . S
Cd88 O92 2.352 . S
Cd88 O96 2.277 . S
Cd88 O97 2.356 1_565 S
C89 O94 1.209 . S
C89 O96 1.226 . S
O90 Cd86 2.273 . S
O90 Cd88 2.411 . S
O90 C93 1.320 . S
O91 Cd88 2.333 . S
O91 C93 1.214 . S
O92 Cd88 2.352 . S
O92 C95 1.258 1_565 S
C93 O90 1.320 . S
C93 O91 1.214 . S
O94 Cd86 2.277 . S
O94 C89 1.209 . S
C95 O92 1.258 1_545 S
C95 O97 1.282 . S
O96 Cd88 2.277 . S
O96 C89 1.226 . S
O97 Cd88 2.356 1_545 S
O97 C95 1.282 . S
C98 O99 1.306 . S
C98 O101 1.160 . S
O99 C98 1.306 . S
O99 Cd100 2.228 . S
Cd100 O99 2.228 . S
Cd100 O104 2.273 . S
Cd100 O108 2.277 . S
O101 C98 1.160 . S
O101 Cd102 2.203 . S
Cd102 O101 2.203 . S
Cd102 O104 2.411 . S
Cd102 O105 2.333 . S
Cd102 O106 2.352 . S
Cd102 O110 2.277 . S
Cd102 O111 2.356 . S
C103 O108 1.209 . S
C103 O110 1.226 . S
O104 Cd100 2.273 . S
O104 Cd102 2.411 . S
O104 C107 1.320 . S
O105 Cd102 2.333 . S
O105 C107 1.214 . S
O106 Cd102 2.352 . S
O106 C109 1.258 . S
C107 O104 1.320 . S
C107 O105 1.214 . S
O108 Cd100 2.277 . S
O108 C103 1.209 . S
C109 O106 1.258 . S
C109 O111 1.282 . S
O110 Cd102 2.277 . S
O110 C103 1.226 . S
O111 Cd102 2.356 . S
O111 C109 1.282 . S
C112 O113 1.306 . S
C112 O115 1.160 . S
O113 C112 1.306 . S
O113 Cd114 2.228 . S
Cd114 O113 2.228 . S
Cd114 O118 2.273 . S
Cd114 O122 2.277 . S
O115 C112 1.160 . S
O115 Cd116 2.203 . S
Cd116 O115 2.203 . S
Cd116 O118 2.411 . S
Cd116 O119 2.333 . S
Cd116 O120 2.352 . S
Cd116 O124 2.277 . S
Cd116 O125 2.356 1_554 S
C117 O122 1.209 . S
C117 O124 1.226 . S
O118 Cd114 2.273 . S
O118 Cd116 2.411 . S
O118 C121 1.320 . S
O119 Cd116 2.333 . S
O119 C121 1.214 . S
O120 Cd116 2.352 . S
O120 C123 1.258 1_554 S
C121 O118 1.320 . S
C121 O119 1.214 . S
O122 Cd114 2.277 . S
O122 C117 1.209 . S
C123 O120 1.258 1_556 S
C123 O125 1.282 . S
O124 Cd116 2.277 . S
O124 C117 1.226 . S
O125 Cd116 2.356 1_556 S
O125 C123 1.282 . S
C126 O127 1.306 . S
C126 O129 1.160 . S
O127 C126 1.306 . S
O127 Cd128 2.228 . S
Cd128 O127 2.228 . S
Cd128 O132 2.273 . S
Cd128 O136 2.277 . S
O129 C126 1.160 . S
O129 Cd130 2.203 . S
Cd130 O129 2.203 . S
Cd130 O132 2.411 . S
Cd130 O133 2.333 . S
Cd130 O134 2.352 . S
Cd130 O138 2.277 . S
Cd130 O139 2.356 . S
C131 O136 1.209 . S
C131 O138 1.226 . S
O132 Cd128 2.273 . S
O132 Cd130 2.411 . S
O132 C135 1.320 . S
O133 Cd130 2.333 . S
O133 C135 1.214 . S
O134 Cd130 2.352 . S
O134 C137 1.258 . S
C135 O132 1.320 . S
C135 O133 1.214 . S
O136 Cd128 2.277 . S
O136 C131 1.209 . S
C137 O134 1.258 . S
C137 O139 1.282 . S
O138 Cd130 2.277 . S
O138 C131 1.226 . S
O139 Cd130 2.356 . S
O139 C137 1.282 . S
C140 O141 1.306 . S
C140 O143 1.160 . S
O141 C140 1.306 . S
O141 Cd142 2.228 . S
Cd142 O141 2.228 . S
Cd142 O146 2.273 . S
Cd142 O150 2.277 . S
O143 C140 1.160 . S
O143 Cd144 2.203 . S
Cd144 O143 2.203 . S
Cd144 O146 2.411 . S
Cd144 O147 2.333 . S
Cd144 O148 2.352 . S
Cd144 O152 2.277 . S
Cd144 O153 2.356 . S
C145 O150 1.209 . S
C145 O152 1.226 . S
O146 Cd142 2.273 . S
O146 Cd144 2.411 . S
O146 C149 1.320 . S
O147 Cd144 2.333 . S
O147 C149 1.214 . S
O148 Cd144 2.352 . S
O148 C151 1.258 . S
C149 O146 1.320 . S
C149 O147 1.214 . S
O150 Cd142 2.277 . S
O150 C145 1.209 . S
C151 O148 1.258 . S
C151 O153 1.282 . S
O152 Cd144 2.277 . S
O152 C145 1.226 . S
O153 Cd144 2.356 . S
O153 C151 1.282 . S
C154 O155 1.306 . S
C154 O157 1.160 . S
O155 C154 1.306 . S
O155 Cd156 2.228 . S
Cd156 O155 2.228 . S
Cd156 O160 2.273 . S
Cd156 O164 2.277 . S
O157 C154 1.160 . S
O157 Cd158 2.203 . S
Cd158 O157 2.203 . S
Cd158 O160 2.411 . S
Cd158 O161 2.333 . S
Cd158 O162 2.352 . S
Cd158 O166 2.277 . S
Cd158 O167 2.356 . S
C159 O164 1.209 . S
C159 O166 1.226 . S
O160 Cd156 2.273 . S
O160 Cd158 2.411 . S
O160 C163 1.320 . S
O161 Cd158 2.333 . S
O161 C163 1.214 . S
O162 Cd158 2.352 . S
O162 C165 1.258 . S
C163 O160 1.320 . S
C163 O161 1.214 . S
O164 Cd156 2.277 . S
O164 C159 1.209 . S
C165 O162 1.258 . S
C165 O167 1.282 . S
O166 Cd158 2.277 . S
O166 C159 1.226 . S
O167 Cd158 2.356 . S
O167 C165 1.282 . S
C168 O169 1.306 . S
C168 O171 1.160 . S
O169 C168 1.306 . S
O169 Cd170 2.228 . S
Cd170 O169 2.228 . S
Cd170 O174 2.273 . S
Cd170 O178 2.277 . S
O171 C168 1.160 . S
O171 Cd172 2.203 . S
Cd172 O171 2.203 . S
Cd172 O174 2.411 . S
Cd172 O175 2.333 . S
Cd172 O176 2.352 . S
Cd172 O180 2.277 . S
Cd172 O181 2.356 1_655 S
C173 O178 1.209 . S
C173 O180 1.226 . S
O174 Cd170 2.273 . S
O174 Cd172 2.411 . S
O174 C177 1.320 . S
O175 Cd172 2.333 . S
O175 C177 1.214 . S
O176 Cd172 2.352 . S
O176 C179 1.258 1_655 S
C177 O174 1.320 . S
C177 O175 1.214 . S
O178 Cd170 2.277 . S
O178 C173 1.209 . S
C179 O176 1.258 1_455 S
C179 O181 1.282 . S
O180 Cd172 2.277 . S
O180 C173 1.226 . S
O181 Cd172 2.356 1_455 S
O181 C179 1.282 . S
C182 O183 1.306 . S
C182 O185 1.160 . S
O183 C182 1.306 . S
O183 Cd184 2.228 . S
Cd184 O183 2.228 . S
Cd184 O188 2.273 . S
Cd184 O192 2.277 . S
O185 C182 1.160 . S
O185 Cd186 2.203 . S
Cd186 O185 2.203 . S
Cd186 O188 2.411 . S
Cd186 O189 2.333 . S
Cd186 O190 2.352 . S
Cd186 O194 2.277 . S
Cd186 O195 2.356 1_455 S
C187 O192 1.209 . S
C187 O194 1.226 . S
O188 Cd184 2.273 . S
O188 Cd186 2.411 . S
O188 C191 1.320 . S
O189 Cd186 2.333 . S
O189 C191 1.214 . S
O190 Cd186 2.352 . S
O190 C193 1.258 1_455 S
C191 O188 1.320 . S
C191 O189 1.214 . S
O192 Cd184 2.277 . S
O192 C187 1.209 . S
C193 O190 1.258 1_655 S
C193 O195 1.282 . S
O194 Cd186 2.277 . S
O194 C187 1.226 . S
O195 Cd186 2.356 1_655 S
O195 C193 1.282 . S
C196 O197 1.306 . S
C196 O199 1.160 . S
O197 C196 1.306 . S
O197 Cd198 2.228 . S
Cd198 O197 2.228 . S
Cd198 O202 2.273 . S
Cd198 O206 2.277 . S
O199 C196 1.160 . S
O199 Cd200 2.203 . S
Cd200 O199 2.203 . S
Cd200 O202 2.411 . S
Cd200 O203 2.333 . S
Cd200 O204 2.352 . S
Cd200 O208 2.277 . S
Cd200 O209 2.356 1_655 S
C201 O206 1.209 . S
C201 O208 1.226 . S
O202 Cd198 2.273 . S
O202 Cd200 2.411 . S
O202 C205 1.320 . S
O203 Cd200 2.333 . S
O203 C205 1.214 . S
O204 Cd200 2.352 . S
O204 C207 1.258 1_655 S
C205 O202 1.320 . S
C205 O203 1.214 . S
O206 Cd198 2.277 . S
O206 C201 1.209 . S
C207 O204 1.258 1_455 S
C207 O209 1.282 . S
O208 Cd200 2.277 . S
O208 C201 1.226 . S
O209 Cd200 2.356 1_455 S
O209 C207 1.282 . S
C210 O211 1.306 . S
C210 O213 1.160 . S
O211 C210 1.306 . S
O211 Cd212 2.228 . S
Cd212 O211 2.228 . S
Cd212 O216 2.273 . S
Cd212 O220 2.277 . S
O213 C210 1.160 . S
O213 Cd214 2.203 . S
Cd214 O213 2.203 . S
Cd214 O216 2.411 . S
Cd214 O217 2.333 . S
Cd214 O218 2.352 . S
Cd214 O222 2.277 . S
Cd214 O223 2.356 1_455 S
C215 O220 1.209 . S
C215 O222 1.226 . S
O216 Cd212 2.273 . S
O216 Cd214 2.411 . S
O216 C219 1.320 . S
O217 Cd214 2.333 . S
O217 C219 1.214 . S
O218 Cd214 2.352 . S
O218 C221 1.258 1_455 S
C219 O216 1.320 . S
C219 O217 1.214 . S
O220 Cd212 2.277 . S
O220 C215 1.209 . S
C221 O218 1.258 1_655 S
C221 O223 1.282 . S
O222 Cd214 2.277 . S
O222 C215 1.226 . S
O223 Cd214 2.356 1_655 S
O223 C221 1.282 . S
C224 O225 1.306 . S
C224 O227 1.160 . S
O225 C224 1.306 . S
O225 Cd226 2.228 . S
Cd226 O225 2.228 . S
Cd226 O230 2.273 . S
Cd226 O234 2.277 . S
O227 C224 1.160 . S
O227 Cd228 2.203 . S
Cd228 O227 2.203 . S
Cd228 O230 2.411 . S
Cd228 O231 2.333 . S
Cd228 O232 2.352 . S
Cd228 O236 2.277 . S
Cd228 O237 2.356 1_565 S
C229 O234 1.209 . S
C229 O236 1.226 . S
O230 Cd226 2.273 . S
O230 Cd228 2.411 . S
O230 C233 1.320 . S
O231 Cd228 2.333 . S
O231 C233 1.214 . S
O232 Cd228 2.352 . S
O232 C235 1.258 1_565 S
C233 O230 1.320 . S
C233 O231 1.214 . S
O234 Cd226 2.277 . S
O234 C229 1.209 . S
C235 O232 1.258 1_545 S
C235 O237 1.282 . S
O236 Cd228 2.277 . S
O236 C229 1.226 . S
O237 Cd228 2.356 1_545 S
O237 C235 1.282 . S
C238 O239 1.306 . S
C238 O241 1.160 . S
O239 C238 1.306 . S
O239 Cd240 2.228 . S
Cd240 O239 2.228 . S
Cd240 O244 2.273 . S
Cd240 O248 2.277 . S
O241 C238 1.160 . S
O241 Cd242 2.203 . S
Cd242 O241 2.203 . S
Cd242 O244 2.411 . S
Cd242 O245 2.333 . S
Cd242 O246 2.352 . S
Cd242 O250 2.277 . S
Cd242 O251 2.356 . S
C243 O248 1.209 . S
C243 O250 1.226 . S
O244 Cd240 2.273 . S
O244 Cd242 2.411 . S
O244 C247 1.320 . S
O245 Cd242 2.333 . S
O245 C247 1.214 . S
O246 Cd242 2.352 . S
O246 C249 1.258 . S
C247 O244 1.320 . S
C247 O245 1.214 . S
O248 Cd240 2.277 . S
O248 C243 1.209 . S
C249 O246 1.258 . S
C249 O251 1.282 . S
O250 Cd242 2.277 . S
O250 C243 1.226 . S
O251 Cd242 2.356 . S
O251 C249 1.282 . S
C252 O253 1.306 . S
C252 O255 1.160 . S
O253 C252 1.306 . S
O253 Cd254 2.228 . S
Cd254 O253 2.228 . S
Cd254 O258 2.273 . S
Cd254 O262 2.277 . S
O255 C252 1.160 . S
O255 Cd256 2.203 . S
Cd256 O255 2.203 . S
Cd256 O258 2.411 . S
Cd256 O259 2.333 . S
Cd256 O260 2.352 . S
Cd256 O264 2.277 . S
Cd256 O265 2.356 1_545 S
C257 O262 1.209 . S
C257 O264 1.226 . S
O258 Cd254 2.273 . S
O258 Cd256 2.411 . S
O258 C261 1.320 . S
O259 Cd256 2.333 . S
O259 C261 1.214 . S
O260 Cd256 2.352 . S
O260 C263 1.258 1_545 S
C261 O258 1.320 . S
C261 O259 1.214 . S
O262 Cd254 2.277 . S
O262 C257 1.209 . S
C263 O260 1.258 1_565 S
C263 O265 1.282 . S
O264 Cd256 2.277 . S
O264 C257 1.226 . S
O265 Cd256 2.356 1_565 S
O265 C263 1.282 . S
C266 O267 1.306 . S
C266 O269 1.160 . S
O267 C266 1.306 . S
O267 Cd268 2.228 . S
Cd268 O267 2.228 . S
Cd268 O272 2.273 . S
Cd268 O276 2.277 . S
O269 C266 1.160 . S
O269 Cd270 2.203 . S
Cd270 O269 2.203 . S
Cd270 O272 2.411 . S
Cd270 O273 2.333 . S
Cd270 O274 2.352 . S
Cd270 O278 2.277 . S
Cd270 O279 2.356 . S
C271 O276 1.209 . S
C271 O278 1.226 . S
O272 Cd268 2.273 . S
O272 Cd270 2.411 . S
O272 C275 1.320 . S
O273 Cd270 2.333 . S
O273 C275 1.214 . S
O274 Cd270 2.352 . S
O274 C277 1.258 . S
C275 O272 1.320 . S
C275 O273 1.214 . S
O276 Cd268 2.277 . S
O276 C271 1.209 . S
C277 O274 1.258 . S
C277 O279 1.282 . S
O278 Cd270 2.277 . S
O278 C271 1.226 . S
O279 Cd270 2.356 . S
O279 C277 1.282 . S
C280 O281 1.306 . S
C280 O283 1.160 . S
O281 C280 1.306 . S
O281 Cd282 2.228 . S
Cd282 O281 2.228 . S
Cd282 O286 2.273 . S
Cd282 O290 2.277 . S
O283 C280 1.160 . S
O283 Cd284 2.203 . S
Cd284 O283 2.203 . S
Cd284 O286 2.411 . S
Cd284 O287 2.333 . S
Cd284 O288 2.352 . S
Cd284 O292 2.277 . S
Cd284 O293 2.356 1_556 S
C285 O290 1.209 . S
C285 O292 1.226 . S
O286 Cd282 2.273 . S
O286 Cd284 2.411 . S
O286 C289 1.320 . S
O287 Cd284 2.333 . S
O287 C289 1.214 . S
O288 Cd284 2.352 . S
O288 C291 1.258 1_556 S
C289 O286 1.320 . S
C289 O287 1.214 . S
O290 Cd282 2.277 . S
O290 C285 1.209 . S
C291 O288 1.258 1_554 S
C291 O293 1.282 . S
O292 Cd284 2.277 . S
O292 C285 1.226 . S
O293 Cd284 2.356 1_554 S
O293 C291 1.282 . S
C294 O295 1.306 . S
C294 O297 1.160 . S
O295 C294 1.306 . S
O295 Cd296 2.228 . S
Cd296 O295 2.228 . S
Cd296 O300 2.273 . S
Cd296 O304 2.277 . S
O297 C294 1.160 . S
O297 Cd298 2.203 . S
Cd298 O297 2.203 . S
Cd298 O300 2.411 . S
Cd298 O301 2.333 . S
Cd298 O302 2.352 . S
Cd298 O306 2.277 . S
Cd298 O307 2.356 . S
C299 O304 1.209 . S
C299 O306 1.226 . S
O300 Cd296 2.273 . S
O300 Cd298 2.411 . S
O300 C303 1.320 . S
O301 Cd298 2.333 . S
O301 C303 1.214 . S
O302 Cd298 2.352 . S
O302 C305 1.258 . S
C303 O300 1.320 . S
C303 O301 1.214 . S
O304 Cd296 2.277 . S
O304 C299 1.209 . S
C305 O302 1.258 . S
C305 O307 1.282 . S
O306 Cd298 2.277 . S
O306 C299 1.226 . S
O307 Cd298 2.356 . S
O307 C305 1.282 . S
C308 O309 1.306 . S
C308 O311 1.160 . S
O309 C308 1.306 . S
O309 Cd310 2.228 . S
Cd310 O309 2.228 . S
Cd310 O314 2.273 . S
Cd310 O318 2.277 . S
O311 C308 1.160 . S
O311 Cd312 2.203 . S
Cd312 O311 2.203 . S
Cd312 O314 2.411 . S
Cd312 O315 2.333 . S
Cd312 O316 2.352 . S
Cd312 O320 2.277 . S
Cd312 O321 2.356 . S
C313 O318 1.209 . S
C313 O320 1.226 . S
O314 Cd310 2.273 . S
O314 Cd312 2.411 . S
O314 C317 1.320 . S
O315 Cd312 2.333 . S
O315 C317 1.214 . S
O316 Cd312 2.352 . S
O316 C319 1.258 . S
C317 O314 1.320 . S
C317 O315 1.214 . S
O318 Cd310 2.277 . S
O318 C313 1.209 . S
C319 O316 1.258 . S
C319 O321 1.282 . S
O320 Cd312 2.277 . S
O320 C313 1.226 . S
O321 Cd312 2.356 . S
O321 C319 1.282 . S
C322 O323 1.306 . S
C322 O325 1.160 . S
O323 C322 1.306 . S
O323 Cd324 2.228 . S
Cd324 O323 2.228 . S
Cd324 O328 2.273 . S
Cd324 O332 2.277 . S
O325 C322 1.160 . S
O325 Cd326 2.203 . S
Cd326 O325 2.203 . S
Cd326 O328 2.411 . S
Cd326 O329 2.333 . S
Cd326 O330 2.352 . S
Cd326 O334 2.277 . S
Cd326 O335 2.356 . S
C327 O332 1.209 . S
C327 O334 1.226 . S
O328 Cd324 2.273 . S
O328 Cd326 2.411 . S
O328 C331 1.320 . S
O329 Cd326 2.333 . S
O329 C331 1.214 . S
O330 Cd326 2.352 . S
O330 C333 1.258 . S
C331 O328 1.320 . S
C331 O329 1.214 . S
O332 Cd324 2.277 . S
O332 C327 1.209 . S
C333 O330 1.258 . S
C333 O335 1.282 . S
O334 Cd326 2.277 . S
O334 C327 1.226 . S
O335 Cd326 2.356 . S
O335 C333 1.282 . S
C336 O337 1.306 . S
C336 O339 1.160 . S
O337 C336 1.306 . S
O337 Cd338 2.228 . S
Cd338 O337 2.228 . S
Cd338 O342 2.273 . S
Cd338 O346 2.277 . S
O339 C336 1.160 . S
O339 Cd340 2.203 . S
Cd340 O339 2.203 . S
Cd340 O342 2.411 . S
Cd340 O343 2.333 . S
Cd340 O344 2.352 . S
Cd340 O348 2.277 . S
Cd340 O349 2.356 . S
C341 O346 1.209 . S
C341 O348 1.226 . S
O342 Cd338 2.273 . S
O342 Cd340 2.411 . S
O342 C345 1.320 . S
O343 Cd340 2.333 . S
O343 C345 1.214 . S
O344 Cd340 2.352 . S
O344 C347 1.258 . S
C345 O342 1.320 . S
C345 O343 1.214 . S
O346 Cd338 2.277 . S
O346 C341 1.209 . S
C347 O344 1.258 . S
C347 O349 1.282 . S
O348 Cd340 2.277 . S
O348 C341 1.226 . S
O349 Cd340 2.356 . S
O349 C347 1.282 . S
C350 O351 1.306 . S
C350 O353 1.160 . S
O351 C350 1.306 . S
O351 Cd352 2.228 . S
Cd352 O351 2.228 . S
Cd352 O356 2.273 . S
Cd352 O360 2.277 . S
O353 C350 1.160 . S
O353 Cd354 2.203 . S
Cd354 O353 2.203 . S
Cd354 O356 2.411 . S
Cd354 O357 2.333 . S
Cd354 O358 2.352 . S
Cd354 O362 2.277 . S
Cd354 O363 2.356 . S
C355 O360 1.209 . S
C355 O362 1.226 . S
O356 Cd352 2.273 . S
O356 Cd354 2.411 . S
O356 C359 1.320 . S
O357 Cd354 2.333 . S
O357 C359 1.214 . S
O358 Cd354 2.352 . S
O358 C361 1.258 . S
C359 O356 1.320 . S
C359 O357 1.214 . S
O360 Cd352 2.277 . S
O360 C355 1.209 . S
C361 O358 1.258 . S
C361 O363 1.282 . S
O362 Cd354 2.277 . S
O362 C355 1.226 . S
O363 Cd354 2.356 . S
O363 C361 1.282 . S
C364 O365 1.306 . S
C364 O367 1.160 . S
O365 C364 1.306 . S
O365 Cd366 2.228 . S
Cd366 O365 2.228 . S
Cd366 O370 2.273 . S
Cd366 O374 2.277 . S
O367 C364 1.160 . S
O367 Cd368 2.203 . S
Cd368 O367 2.203 . S
Cd368 O370 2.411 . S
Cd368 O371 2.333 . S
Cd368 O372 2.352 . S
Cd368 O376 2.277 . S
Cd368 O377 2.356 . S
C369 O374 1.209 . S
C369 O376 1.226 . S
O370 Cd366 2.273 . S
O370 Cd368 2.411 . S
O370 C373 1.320 . S
O371 Cd368 2.333 . S
O371 C373 1.214 . S
O372 Cd368 2.352 . S
O372 C375 1.258 . S
C373 O370 1.320 . S
C373 O371 1.214 . S
O374 Cd366 2.277 . S
O374 C369 1.209 . S
C375 O372 1.258 . S
C375 O377 1.282 . S
O376 Cd368 2.277 . S
O376 C369 1.226 . S
O377 Cd368 2.356 . S
O377 C375 1.282 . S
C378 O379 1.306 . S
C378 O381 1.160 . S
O379 C378 1.306 . S
O379 Cd380 2.228 . S
Cd380 O379 2.228 . S
Cd380 O384 2.273 . S
Cd380 O388 2.277 . S
O381 C378 1.160 . S
O381 Cd382 2.203 . S
Cd382 O381 2.203 . S
Cd382 O384 2.411 . S
Cd382 O385 2.333 . S
Cd382 O386 2.352 . S
Cd382 O390 2.277 . S
Cd382 O391 2.356 . S
C383 O388 1.209 . S
C383 O390 1.226 . S
O384 Cd380 2.273 . S
O384 Cd382 2.411 . S
O384 C387 1.320 . S
O385 Cd382 2.333 . S
O385 C387 1.214 . S
O386 Cd382 2.352 . S
O386 C389 1.258 . S
C387 O384 1.320 . S
C387 O385 1.214 . S
O388 Cd380 2.277 . S
O388 C383 1.209 . S
C389 O386 1.258 . S
C389 O391 1.282 . S
O390 Cd382 2.277 . S
O390 C383 1.226 . S
O391 Cd382 2.356 . S
O391 C389 1.282 . S
C392 O393 1.306 . S
C392 O395 1.160 . S
O393 C392 1.306 . S
O393 Cd394 2.228 . S
Cd394 O393 2.228 . S
Cd394 O398 2.273 . S
Cd394 O402 2.277 . S
O395 C392 1.160 . S
O395 Cd396 2.203 . S
Cd396 O395 2.203 . S
Cd396 O398 2.411 . S
Cd396 O399 2.333 . S
Cd396 O400 2.352 . S
Cd396 O404 2.277 . S
Cd396 O405 2.356 . S
C397 O402 1.209 . S
C397 O404 1.226 . S
O398 Cd394 2.273 . S
O398 Cd396 2.411 . S
O398 C401 1.320 . S
O399 Cd396 2.333 . S
O399 C401 1.214 . S
O400 Cd396 2.352 . S
O400 C403 1.258 . S
C401 O398 1.320 . S
C401 O399 1.214 . S
O402 Cd394 2.277 . S
O402 C397 1.209 . S
C403 O400 1.258 . S
C403 O405 1.282 . S
O404 Cd396 2.277 . S
O404 C397 1.226 . S
O405 Cd396 2.356 . S
O405 C403 1.282 . S
C406 O407 1.306 . S
C406 O409 1.160 . S
O407 C406 1.306 . S
O407 Cd408 2.228 . S
Cd408 O407 2.228 . S
Cd408 O412 2.273 . S
Cd408 O416 2.277 . S
O409 C406 1.160 . S
O409 Cd410 2.203 . S
Cd410 O409 2.203 . S
Cd410 O412 2.411 . S
Cd410 O413 2.333 . S
Cd410 O414 2.352 . S
Cd410 O418 2.277 . S
Cd410 O419 2.356 1_565 S
C411 O416 1.209 . S
C411 O418 1.226 . S
O412 Cd408 2.273 . S
O412 Cd410 2.411 . S
O412 C415 1.320 . S
O413 Cd410 2.333 . S
O413 C415 1.214 . S
O414 Cd410 2.352 . S
O414 C417 1.258 1_565 S
C415 O412 1.320 . S
C415 O413 1.214 . S
O416 Cd408 2.277 . S
O416 C411 1.209 . S
C417 O414 1.258 1_545 S
C417 O419 1.282 . S
O418 Cd410 2.277 . S
O418 C411 1.226 . S
O419 Cd410 2.356 1_545 S
O419 C417 1.282 . S
C420 O421 1.306 . S
C420 O423 1.160 . S
O421 C420 1.306 . S
O421 Cd422 2.228 . S
Cd422 O421 2.228 . S
Cd422 O426 2.273 . S
Cd422 O430 2.277 . S
O423 C420 1.160 . S
O423 Cd424 2.203 . S
Cd424 O423 2.203 . S
Cd424 O426 2.411 . S
Cd424 O427 2.333 . S
Cd424 O428 2.352 . S
Cd424 O432 2.277 . S
Cd424 O433 2.356 . S
C425 O430 1.209 . S
C425 O432 1.226 . S
O426 Cd422 2.273 . S
O426 Cd424 2.411 . S
O426 C429 1.320 . S
O427 Cd424 2.333 . S
O427 C429 1.214 . S
O428 Cd424 2.352 . S
O428 C431 1.258 . S
C429 O426 1.320 . S
C429 O427 1.214 . S
O430 Cd422 2.277 . S
O430 C425 1.209 . S
C431 O428 1.258 . S
C431 O433 1.282 . S
O432 Cd424 2.277 . S
O432 C425 1.226 . S
O433 Cd424 2.356 . S
O433 C431 1.282 . S
C434 O435 1.306 . S
C434 O437 1.160 . S
O435 C434 1.306 . S
O435 Cd436 2.228 . S
Cd436 O435 2.228 . S
Cd436 O440 2.273 . S
Cd436 O444 2.277 . S
O437 C434 1.160 . S
O437 Cd438 2.203 . S
Cd438 O437 2.203 . S
Cd438 O440 2.411 . S
Cd438 O441 2.333 . S
Cd438 O442 2.352 . S
Cd438 O446 2.277 . S
Cd438 O447 2.356 1_545 S
C439 O444 1.209 . S
C439 O446 1.226 . S
O440 Cd436 2.273 . S
O440 Cd438 2.411 . S
O440 C443 1.320 . S
O441 Cd438 2.333 . S
O441 C443 1.214 . S
O442 Cd438 2.352 . S
O442 C445 1.258 1_545 S
C443 O440 1.320 . S
C443 O441 1.214 . S
O444 Cd436 2.277 . S
O444 C439 1.209 . S
C445 O442 1.258 1_565 S
C445 O447 1.282 . S
O446 Cd438 2.277 . S
O446 C439 1.226 . S
O447 Cd438 2.356 1_565 S
O447 C445 1.282 . S
C448 O449 1.306 . S
C448 O451 1.160 . S
O449 C448 1.306 . S
O449 Cd450 2.228 . S
Cd450 O449 2.228 . S
Cd450 O454 2.273 . S
Cd450 O458 2.277 . S
O451 C448 1.160 . S
O451 Cd452 2.203 . S
Cd452 O451 2.203 . S
Cd452 O454 2.411 . S
Cd452 O455 2.333 . S
Cd452 O456 2.352 . S
Cd452 O460 2.277 . S
Cd452 O461 2.356 . S
C453 O458 1.209 . S
C453 O460 1.226 . S
O454 Cd450 2.273 . S
O454 Cd452 2.411 . S
O454 C457 1.320 . S
O455 Cd452 2.333 . S
O455 C457 1.214 . S
O456 Cd452 2.352 . S
O456 C459 1.258 . S
C457 O454 1.320 . S
C457 O455 1.214 . S
O458 Cd450 2.277 . S
O458 C453 1.209 . S
C459 O456 1.258 . S
C459 O461 1.282 . S
O460 Cd452 2.277 . S
O460 C453 1.226 . S
O461 Cd452 2.356 . S
O461 C459 1.282 . S
C462 O463 1.306 . S
C462 O465 1.160 . S
O463 C462 1.306 . S
O463 Cd464 2.228 . S
Cd464 O463 2.228 . S
Cd464 O468 2.273 . S
Cd464 O472 2.277 . S
O465 C462 1.160 . S
O465 Cd466 2.203 . S
Cd466 O465 2.203 . S
Cd466 O468 2.411 . S
Cd466 O469 2.333 . S
Cd466 O470 2.352 . S
Cd466 O474 2.277 . S
Cd466 O475 2.356 1_556 S
C467 O472 1.209 . S
C467 O474 1.226 . S
O468 Cd464 2.273 . S
O468 Cd466 2.411 . S
O468 C471 1.320 . S
O469 Cd466 2.333 . S
O469 C471 1.214 . S
O470 Cd466 2.352 . S
O470 C473 1.258 1_556 S
C471 O468 1.320 . S
C471 O469 1.214 . S
O472 Cd464 2.277 . S
O472 C467 1.209 . S
C473 O470 1.258 1_554 S
C473 O475 1.282 . S
O474 Cd466 2.277 . S
O474 C467 1.226 . S
O475 Cd466 2.356 1_554 S
O475 C473 1.282 . S
C476 O477 1.306 . S
C476 O479 1.160 . S
O477 C476 1.306 . S
O477 Cd478 2.228 . S
Cd478 O477 2.228 . S
Cd478 O482 2.273 . S
Cd478 O486 2.277 . S
O479 C476 1.160 . S
O479 Cd480 2.203 . S
Cd480 O479 2.203 . S
Cd480 O482 2.411 . S
Cd480 O483 2.333 . S
Cd480 O484 2.352 . S
Cd480 O488 2.277 . S
Cd480 O489 2.356 1_556 S
C481 O486 1.209 . S
C481 O488 1.226 . S
O482 Cd478 2.273 . S
O482 Cd480 2.411 . S
O482 C485 1.320 . S
O483 Cd480 2.333 . S
O483 C485 1.214 . S
O484 Cd480 2.352 . S
O484 C487 1.258 1_556 S
C485 O482 1.320 . S
C485 O483 1.214 . S
O486 Cd478 2.277 . S
O486 C481 1.209 . S
C487 O484 1.258 1_554 S
C487 O489 1.282 . S
O488 Cd480 2.277 . S
O488 C481 1.226 . S
O489 Cd480 2.356 1_554 S
O489 C487 1.282 . S
C490 O491 1.306 . S
C490 O493 1.160 . S
O491 C490 1.306 . S
O491 Cd492 2.228 . S
Cd492 O491 2.228 . S
Cd492 O496 2.273 . S
Cd492 O500 2.277 . S
O493 C490 1.160 . S
O493 Cd494 2.203 . S
Cd494 O493 2.203 . S
Cd494 O496 2.411 . S
Cd494 O497 2.333 . S
Cd494 O498 2.352 . S
Cd494 O502 2.277 . S
Cd494 O503 2.356 1_554 S
C495 O500 1.209 . S
C495 O502 1.226 . S
O496 Cd492 2.273 . S
O496 Cd494 2.411 . S
O496 C499 1.320 . S
O497 Cd494 2.333 . S
O497 C499 1.214 . S
O498 Cd494 2.352 . S
O498 C501 1.258 1_554 S
C499 O496 1.320 . S
C499 O497 1.214 . S
O500 Cd492 2.277 . S
O500 C495 1.209 . S
C501 O498 1.258 1_556 S
C501 O503 1.282 . S
O502 Cd494 2.277 . S
O502 C495 1.226 . S
O503 Cd494 2.356 1_556 S
O503 C501 1.282 . S
C504 O505 1.306 . S
C504 O507 1.160 . S
O505 C504 1.306 . S
O505 Cd506 2.228 . S
Cd506 O505 2.228 . S
Cd506 O510 2.273 . S
Cd506 O514 2.277 . S
O507 C504 1.160 . S
O507 Cd508 2.203 . S
Cd508 O507 2.203 . S
Cd508 O510 2.411 . S
Cd508 O511 2.333 . S
Cd508 O512 2.352 . S
Cd508 O516 2.277 . S
Cd508 O517 2.356 . S
C509 O514 1.209 . S
C509 O516 1.226 . S
O510 Cd506 2.273 . S
O510 Cd508 2.411 . S
O510 C513 1.320 . S
O511 Cd508 2.333 . S
O511 C513 1.214 . S
O512 Cd508 2.352 . S
O512 C515 1.258 . S
C513 O510 1.320 . S
C513 O511 1.214 . S
O514 Cd506 2.277 . S
O514 C509 1.209 . S
C515 O512 1.258 . S
C515 O517 1.282 . S
O516 Cd508 2.277 . S
O516 C509 1.226 . S
O517 Cd508 2.356 . S
O517 C515 1.282 . S
C518 O519 1.306 . S
C518 O521 1.160 . S
O519 C518 1.306 . S
O519 Cd520 2.228 . S
Cd520 O519 2.228 . S
Cd520 O524 2.273 . S
Cd520 O528 2.277 . S
O521 C518 1.160 . S
O521 Cd522 2.203 . S
Cd522 O521 2.203 . S
Cd522 O524 2.411 . S
Cd522 O525 2.333 . S
Cd522 O526 2.352 . S
Cd522 O530 2.277 . S
Cd522 O531 2.356 . S
C523 O528 1.209 . S
C523 O530 1.226 . S
O524 Cd520 2.273 . S
O524 Cd522 2.411 . S
O524 C527 1.320 . S
O525 Cd522 2.333 . S
O525 C527 1.214 . S
O526 Cd522 2.352 . S
O526 C529 1.258 . S
C527 O524 1.320 . S
C527 O525 1.214 . S
O528 Cd520 2.277 . S
O528 C523 1.209 . S
C529 O526 1.258 . S
C529 O531 1.282 . S
O530 Cd522 2.277 . S
O530 C523 1.226 . S
O531 Cd522 2.356 . S
O531 C529 1.282 . S
C532 O533 1.306 . S
C532 O535 1.160 . S
O533 C532 1.306 . S
O533 Cd534 2.228 . S
Cd534 O533 2.228 . S
Cd534 O538 2.273 . S
Cd534 O542 2.277 . S
O535 C532 1.160 . S
O535 Cd536 2.203 . S
Cd536 O535 2.203 . S
Cd536 O538 2.411 . S
Cd536 O539 2.333 . S
Cd536 O540 2.352 . S
Cd536 O544 2.277 . S
Cd536 O545 2.356 . S
C537 O542 1.209 . S
C537 O544 1.226 . S
O538 Cd534 2.273 . S
O538 Cd536 2.411 . S
O538 C541 1.320 . S
O539 Cd536 2.333 . S
O539 C541 1.214 . S
O540 Cd536 2.352 . S
O540 C543 1.258 . S
C541 O538 1.320 . S
C541 O539 1.214 . S
O542 Cd534 2.277 . S
O542 C537 1.209 . S
C543 O540 1.258 . S
C543 O545 1.282 . S
O544 Cd536 2.277 . S
O544 C537 1.226 . S
O545 Cd536 2.356 . S
O545 C543 1.282 . S
C546 O547 1.306 . S
C546 O549 1.160 . S
O547 C546 1.306 . S
O547 Cd548 2.228 . S
Cd548 O547 2.228 . S
Cd548 O552 2.273 . S
Cd548 O556 2.277 . S
O549 C546 1.160 . S
O549 Cd550 2.203 . S
Cd550 O549 2.203 . S
Cd550 O552 2.411 . S
Cd550 O553 2.333 . S
Cd550 O554 2.352 . S
Cd550 O558 2.277 . S
Cd550 O559 2.356 . S
C551 O556 1.209 . S
C551 O558 1.226 . S
O552 Cd548 2.273 . S
O552 Cd550 2.411 . S
O552 C555 1.320 . S
O553 Cd550 2.333 . S
O553 C555 1.214 . S
O554 Cd550 2.352 . S
O554 C557 1.258 . S
C555 O552 1.320 . S
C555 O553 1.214 . S
O556 Cd548 2.277 . S
O556 C551 1.209 . S
C557 O554 1.258 . S
C557 O559 1.282 . S
O558 Cd550 2.277 . S
O558 C551 1.226 . S
O559 Cd550 2.356 . S
O559 C557 1.282 . S
C560 O561 1.306 . S
C560 O563 1.160 . S
O561 C560 1.306 . S
O561 Cd562 2.228 . S
Cd562 O561 2.228 . S
Cd562 O566 2.273 . S
Cd562 O570 2.277 . S
O563 C560 1.160 . S
O563 Cd564 2.203 . S
Cd564 O563 2.203 . S
Cd564 O566 2.411 . S
Cd564 O567 2.333 . S
Cd564 O568 2.352 . S
Cd564 O572 2.277 . S
Cd564 O573 2.356 . S
C565 O570 1.209 . S
C565 O572 1.226 . S
O566 Cd562 2.273 . S
O566 Cd564 2.411 . S
O566 C569 1.320 . S
O567 Cd564 2.333 . S
O567 C569 1.214 . S
O568 Cd564 2.352 . S
O568 C571 1.258 . S
C569 O566 1.320 . S
C569 O567 1.214 . S
O570 Cd562 2.277 . S
O570 C565 1.209 . S
C571 O568 1.258 . S
C571 O573 1.282 . S
O572 Cd564 2.277 . S
O572 C565 1.226 . S
O573 Cd564 2.356 . S
O573 C571 1.282 . S
C574 O575 1.306 . S
C574 O577 1.160 . S
O575 C574 1.306 . S
O575 Cd576 2.228 . S
Cd576 O575 2.228 . S
Cd576 O580 2.273 . S
Cd576 O584 2.277 . S
O577 C574 1.160 . S
O577 Cd578 2.203 . S
Cd578 O577 2.203 . S
Cd578 O580 2.411 . S
Cd578 O581 2.333 . S
Cd578 O582 2.352 . S
Cd578 O586 2.277 . S
Cd578 O587 2.356 1_545 S
C579 O584 1.209 . S
C579 O586 1.226 . S
O580 Cd576 2.273 . S
O580 Cd578 2.411 . S
O580 C583 1.320 . S
O581 Cd578 2.333 . S
O581 C583 1.214 . S
O582 Cd578 2.352 . S
O582 C585 1.258 1_545 S
C583 O580 1.320 . S
C583 O581 1.214 . S
O584 Cd576 2.277 . S
O584 C579 1.209 . S
C585 O582 1.258 1_565 S
C585 O587 1.282 . S
O586 Cd578 2.277 . S
O586 C579 1.226 . S
O587 Cd578 2.356 1_565 S
O587 C585 1.282 . S
C588 O589 1.306 . S
C588 O591 1.160 . S
O589 C588 1.306 . S
O589 Cd590 2.228 . S
Cd590 O589 2.228 . S
Cd590 O594 2.273 . S
Cd590 O598 2.277 . S
O591 C588 1.160 . S
O591 Cd592 2.203 . S
Cd592 O591 2.203 . S
Cd592 O594 2.411 . S
Cd592 O595 2.333 . S
Cd592 O596 2.352 . S
Cd592 O600 2.277 . S
Cd592 O601 2.356 . S
C593 O598 1.209 . S
C593 O600 1.226 . S
O594 Cd590 2.273 . S
O594 Cd592 2.411 . S
O594 C597 1.320 . S
O595 Cd592 2.333 . S
O595 C597 1.214 . S
O596 Cd592 2.352 . S
O596 C599 1.258 . S
C597 O594 1.320 . S
C597 O595 1.214 . S
O598 Cd590 2.277 . S
O598 C593 1.209 . S
C599 O596 1.258 . S
C599 O601 1.282 . S
O600 Cd592 2.277 . S
O600 C593 1.226 . S
O601 Cd592 2.356 . S
O601 C599 1.282 . S
C602 O603 1.306 . S
C602 O605 1.160 . S
O603 C602 1.306 . S
O603 Cd604 2.228 . S
Cd604 O603 2.228 . S
Cd604 O608 2.273 . S
Cd604 O612 2.277 . S
O605 C602 1.160 . S
O605 Cd606 2.203 . S
Cd606 O605 2.203 . S
Cd606 O608 2.411 . S
Cd606 O609 2.333 . S
Cd606 O610 2.352 . S
Cd606 O614 2.277 . S
Cd606 O615 2.356 1_565 S
C607 O612 1.209 . S
C607 O614 1.226 . S
O608 Cd604 2.273 . S
O608 Cd606 2.411 . S
O608 C611 1.320 . S
O609 Cd606 2.333 . S
O609 C611 1.214 . S
O610 Cd606 2.352 . S
O610 C613 1.258 1_565 S
C611 O608 1.320 . S
C611 O609 1.214 . S
O612 Cd604 2.277 . S
O612 C607 1.209 . S
C613 O610 1.258 1_545 S
C613 O615 1.282 . S
O614 Cd606 2.277 . S
O614 C607 1.226 . S
O615 Cd606 2.356 1_545 S
O615 C613 1.282 . S
C616 O617 1.306 . S
C616 O619 1.160 . S
O617 C616 1.306 . S
O617 Cd618 2.228 . S
Cd618 O617 2.228 . S
Cd618 O622 2.273 . S
Cd618 O626 2.277 . S
O619 C616 1.160 . S
O619 Cd620 2.203 . S
Cd620 O619 2.203 . S
Cd620 O622 2.411 . S
Cd620 O623 2.333 . S
Cd620 O624 2.352 . S
Cd620 O628 2.277 . S
Cd620 O629 2.356 . S
C621 O626 1.209 . S
C621 O628 1.226 . S
O622 Cd618 2.273 . S
O622 Cd620 2.411 . S
O622 C625 1.320 . S
O623 Cd620 2.333 . S
O623 C625 1.214 . S
O624 Cd620 2.352 . S
O624 C627 1.258 . S
C625 O622 1.320 . S
C625 O623 1.214 . S
O626 Cd618 2.277 . S
O626 C621 1.209 . S
C627 O624 1.258 . S
C627 O629 1.282 . S
O628 Cd620 2.277 . S
O628 C621 1.226 . S
O629 Cd620 2.356 . S
O629 C627 1.282 . S
C630 O631 1.306 . S
C630 O633 1.160 . S
O631 C630 1.306 . S
O631 Cd632 2.228 . S
Cd632 O631 2.228 . S
Cd632 O636 2.273 . S
Cd632 O640 2.277 . S
O633 C630 1.160 . S
O633 Cd634 2.203 . S
Cd634 O633 2.203 . S
Cd634 O636 2.411 . S
Cd634 O637 2.333 . S
Cd634 O638 2.352 . S
Cd634 O642 2.277 . S
Cd634 O643 2.356 1_554 S
C635 O640 1.209 . S
C635 O642 1.226 . S
O636 Cd632 2.273 . S
O636 Cd634 2.411 . S
O636 C639 1.320 . S
O637 Cd634 2.333 . S
O637 C639 1.214 . S
O638 Cd634 2.352 . S
O638 C641 1.258 1_554 S
C639 O636 1.320 . S
C639 O637 1.214 . S
O640 Cd632 2.277 . S
O640 C635 1.209 . S
C641 O638 1.258 1_556 S
C641 O643 1.282 . S
O642 Cd634 2.277 . S
O642 C635 1.226 . S
O643 Cd634 2.356 1_556 S
O643 C641 1.282 . S
C644 O645 1.306 . S
C644 O647 1.160 . S
O645 C644 1.306 . S
O645 Cd646 2.228 . S
Cd646 O645 2.228 . S
Cd646 O650 2.273 . S
Cd646 O654 2.277 . S
O647 C644 1.160 . S
O647 Cd648 2.203 . S
Cd648 O647 2.203 . S
Cd648 O650 2.411 . S
Cd648 O651 2.333 . S
Cd648 O652 2.352 . S
Cd648 O656 2.277 . S
Cd648 O657 2.356 1_554 S
C649 O654 1.209 . S
C649 O656 1.226 . S
O650 Cd646 2.273 . S
O650 Cd648 2.411 . S
O650 C653 1.320 . S
O651 Cd648 2.333 . S
O651 C653 1.214 . S
O652 Cd648 2.352 . S
O652 C655 1.258 1_554 S
C653 O650 1.320 . S
C653 O651 1.214 . S
O654 Cd646 2.277 . S
O654 C649 1.209 . S
C655 O652 1.258 1_556 S
C655 O657 1.282 . S
O656 Cd648 2.277 . S
O656 C649 1.226 . S
O657 Cd648 2.356 1_556 S
O657 C655 1.282 . S
C658 O659 1.306 . S
C658 O661 1.160 . S
O659 C658 1.306 . S
O659 Cd660 2.228 . S
Cd660 O659 2.228 . S
Cd660 O664 2.273 . S
Cd660 O668 2.277 . S
O661 C658 1.160 . S
O661 Cd662 2.203 . S
Cd662 O661 2.203 . S
Cd662 O664 2.411 . S
Cd662 O665 2.333 . S
Cd662 O666 2.352 . S
Cd662 O670 2.277 . S
Cd662 O671 2.356 1_556 S
C663 O668 1.209 . S
C663 O670 1.226 . S
O664 Cd660 2.273 . S
O664 Cd662 2.411 . S
O664 C667 1.320 . S
O665 Cd662 2.333 . S
O665 C667 1.214 . S
O666 Cd662 2.352 . S
O666 C669 1.258 1_556 S
C667 O664 1.320 . S
C667 O665 1.214 . S
O668 Cd660 2.277 . S
O668 C663 1.209 . S
C669 O666 1.258 1_554 S
C669 O671 1.282 . S
O670 Cd662 2.277 . S
O670 C663 1.226 . S
O671 Cd662 2.356 1_554 S
O671 C669 1.282 . S
C25 C11 2.113 1_455 S
C39 C53 2.113 1_655 S
C95 C67 2.113 1_545 S
C109 C81 2.113 . S
C123 C487 2.113 1_556 S
C137 C165 2.113 . S
C459 C151 2.113 . S
C193 C179 2.113 1_655 S
C221 C207 2.113 1_655 S
C263 C235 2.113 1_565 S
C277 C249 2.113 . S
C291 C655 2.113 1_554 S
C305 C333 2.113 . S
C627 C319 2.113 . S
C347 C361 2.113 . S
C389 C375 2.113 . S
C403 C431 2.113 . S
C445 C417 2.113 1_565 S
C501 C473 2.113 1_556 S
C529 C515 2.113 . S
C543 C557 2.113 . S
C599 C571 2.113 . S
C585 C613 2.113 1_565 S
C641 C669 2.113 1_556 S
C616 C9 1.632 . S
C322 C23 1.632 . S
C630 C37 1.632 . S
C51 C644 1.632 . S
C65 C504 1.632 . S
C518 C79 1.632 . S
C93 C532 1.632 . S
C546 C107 1.632 . S
C560 C121 1.632 . S
C135 C588 1.632 . S
C602 C149 1.632 . S
C163 C238 1.632 . S
C177 C448 1.632 . S
C191 C154 1.632 . S
C205 C462 1.632 . S
C219 C476 1.632 . S
C336 C233 1.632 . S
C350 C247 1.632 . S
C261 C364 1.632 . S
C275 C378 1.632 . S
C289 C392 1.632 . S
C303 C420 1.632 . S
C434 C317 1.632 . S
C70 C331 1.632 . S
C345 C280 1.632 . S
C359 C658 1.632 . S
C373 C294 1.632 . S
C387 C308 1.632 . S
C168 C401 1.632 . S
C415 C182 1.632 . S
C196 C429 1.632 . S
C210 C443 1.632 . S
C224 C457 1.632 . S
C252 C471 1.632 . S
C485 C266 1.632 . S
C499 C574 1.632 . S
C112 C513 1.632 . S
C527 C490 1.632 . S
C541 C126 1.632 . S
C140 C555 1.632 . S
C569 C0 1.632 . S
C583 C14 1.632 . S
C28 C597 1.632 . S
C611 C42 1.632 . S
C625 C56 1.632 . S
C84 C639 1.632 . S
C653 C98 1.632 . S
C406 C667 1.632 . S
C33 C5 1.405 . S
C47 C19 1.405 1_565 S
C439 C61 1.405 . S
C425 C75 1.405 . S
C411 C89 1.405 1_556 S
C103 C397 1.405 1_554 S
C117 C495 1.405 . S
C145 C131 1.405 . S
C159 C453 1.405 1_455 S
C201 C173 1.405 . S
C215 C187 1.405 1_545 S
C607 C229 1.405 . S
C593 C243 1.405 . S
C257 C579 1.405 1_556 S
C271 C565 1.405 1_556 S
C663 C285 1.405 . S
C313 C299 1.405 . S
C327 C621 1.405 1_655 S
C369 C341 1.405 1_545 S
C355 C383 1.405 . S
C481 C467 1.405 1_455 S
C509 C537 1.405 1_545 S
C523 C551 1.405 . S
C635 C649 1.405 1_455 S
