# Generated by pormake.
# Topology snp, (6)-cn, num edge types: 1
# Building blocks:
#     Node 0, Type 0, BuildingBlock: KUMBOL_clean_sbu_0, # of connection points: 6
#     Node 1, Type 0, BuildingBlock: KUMBOL_clean_sbu_0, # of connection points: 6
#     Node 2, Type 0, BuildingBlock: KUMBOL_clean_sbu_0, # of connection points: 6
#     Node 3, Type 0, BuildingBlock: KUMBOL_clean_sbu_0, # of connection points: 6
#     Edge 4, Type (0, 0), BuildingBlock: ZUJKAS_clean_linker_0, # of connection points: 2
#     Edge 5, Type (0, 0), BuildingBlock: ZUJKAS_clean_linker_0, # of connection points: 2
#     Edge 6, Type (0, 0), BuildingBlock: ZUJKAS_clean_linker_0, # of connection points: 2
#     Edge 7, Type (0, 0), BuildingBlock: ZUJKAS_clean_linker_0, # of connection points: 2
#     Edge 8, Type (0, 0), BuildingBlock: ZUJKAS_clean_linker_0, # of connection points: 2
#     Edge 9, Type (0, 0), BuildingBlock: ZUJKAS_clean_linker_0, # of connection points: 2
#     Edge 10, Type (0, 0), BuildingBlock: ZUJKAS_clean_linker_0, # of connection points: 2
#     Edge 11, Type (0, 0), BuildingBlock: ZUJKAS_clean_linker_0, # of connection points: 2
#     Edge 12, Type (0, 0), BuildingBlock: ZUJKAS_clean_linker_0, # of connection points: 2
#     Edge 13, Type (0, 0), BuildingBlock: ZUJKAS_clean_linker_0, # of connection points: 2
#     Edge 14, Type (0, 0), BuildingBlock: ZUJKAS_clean_linker_0, # of connection points: 2
#     Edge 15, Type (0, 0), BuildingBlock: ZUJKAS_clean_linker_0, # of connection points: 2
# Relax obj value: 0.224
# Max RMSD: 0.242
# Mean RMSD: 0.223
data_MOF--net-snp--node1-KUMBOL_clean_sbu_0--edge1-ZUJKAS_clean_linker_0
_symmetry_space_group_name_H-M    P1
_symmetry_Int_Tables_number       1
_symmetry_cell_setting            triclinic
loop_
_symmetry_equiv_pos_as_xyz
'x, y, z'
_cell_length_a     31.582725
_cell_length_b     33.218989
_cell_length_c     41.10847
_cell_angle_alpha  115.11567
_cell_angle_beta   100.33213
_cell_angle_gamma 93.269668
loop_
_atom_site_label
_atom_site_type_symbol
_atom_site_fract_x
_atom_site_fract_y
_atom_site_fract_z
_atom_type_partial_charge
Gd0 Gd 0.36911 0.04273 0.23696 0.0
Gd1 Gd 0.34612 0.14046 0.21852 0.0
C2 C 0.37688 0.27395 0.32525 0.0
C3 C 0.30466 0.29185 0.3319 0.0
C4 C 0.31384 0.22383 0.27997 0.0
C5 C 0.35865 0.23431 0.29249 0.0
C6 C 0.28653 0.25326 0.29911 0.0
C7 C 0.34971 0.30203 0.34507 0.0
C8 C 0.42199 0.2847 0.33723 0.0
C9 C 0.44799 0.25697 0.31643 0.0
N10 N 0.38436 0.20634 0.27272 0.0
C11 C 0.42886 0.21834 0.28419 0.0
H12 H 0.45124 0.1995 0.26938 0.0
C13 C 0.2538 0.18037 0.23148 0.0
N14 N 0.29689 0.18643 0.24806 0.0
C15 C 0.22548 0.20797 0.24959 0.0
C16 C 0.24178 0.24404 0.28403 0.0
H17 H 0.24116 0.1551 0.2036 0.0
H18 H 0.36329 0.33221 0.37032 0.0
H19 H 0.30662 0.96659 0.15642 0.0
H20 H 0.43707 0.31466 0.36221 0.0
H21 H 0.48308 0.26546 0.32513 0.0
H22 H 0.28414 0.31455 0.34693 0.0
H23 H 0.4628 0.06681 0.29985 0.0
H24 H 0.38185 0.86663 0.10155 0.0
H25 H 0.31243 0.89761 0.10295 0.0
H26 H 0.51842 0.90924 0.18916 0.0
H27 H 0.19129 0.20204 0.23651 0.0
H28 H 0.21988 0.26582 0.29788 0.0
H29 H 0.45874 0.87129 0.13394 0.0
H30 H 0.53249 0.0382 0.30545 0.0
N31 N 0.37226 0.97606 0.18492 0.0
C32 C 0.37947 0.89714 0.12513 0.0
C33 C 0.34024 0.91444 0.12587 0.0
C34 C 0.41483 0.91888 0.15527 0.0
C35 C 0.41004 0.95863 0.1852 0.0
C36 C 0.33707 0.95369 0.15637 0.0
N37 N 0.43705 0.01749 0.24452 0.0
C38 C 0.44341 0.97978 0.21615 0.0
C39 C 0.5078 0.02157 0.28007 0.0
C40 C 0.51534 0.98377 0.2506 0.0
C41 C 0.46813 0.03778 0.27673 0.0
C42 C 0.48282 0.96209 0.21823 0.0
H43 H 0.54609 0.97126 0.2533 0.0
O44 O 0.36589 0.03804 0.28794 0.0
O45 O 0.3507 0.11172 0.25818 0.0
O46 O 0.41782 0.13478 0.22344 0.0
O47 O 0.43001 0.0661 0.2242 0.0
O48 O 0.39852 0.10031 0.29299 0.0
O49 O 0.32545 0.98933 0.23646 0.0
O50 O 0.30281 0.14054 0.17081 0.0
O51 O 0.3453 0.066 0.19403 0.0
O52 O 0.29818 0.03179 0.21037 0.0
O53 O 0.28121 0.09957 0.21125 0.0
O54 O 0.37117 0.0992 0.16834 0.0
O55 O 0.36258 0.18797 0.19781 0.0
C56 C 0.37517 0.12941 0.28988 0.0
C57 C 0.48829 0.9232 0.18817 0.0
C58 C 0.45435 0.90163 0.15672 0.0
C59 C 0.33744 1.00169 0.2717 0.0
C60 C 0.34519 0.96562 0.28308 0.0
C61 C 0.37344 0.93542 0.26793 0.0
C62 C 0.32326 0.96046 0.3085 0.0
C63 C 0.32924 0.92498 0.31858 0.0
C64 C 0.37948 0.90031 0.27756 0.0
C65 C 0.35751 0.8949 0.30239 0.0
C66 C 0.44288 0.10364 0.22238 0.0
C67 C 0.3606 0.05998 0.16613 0.0
C68 C 0.32724 0.17415 0.17167 0.0
C69 C 0.30535 0.20925 0.16563 0.0
C70 C 0.29461 0.24524 0.19493 0.0
C71 C 0.29757 0.2082 0.13042 0.0
C72 C 0.27928 0.243 0.12454 0.0
C73 C 0.27504 0.27886 0.18904 0.0
C74 C 0.26737 0.27784 0.15418 0.0
C75 C 0.26968 0.058 0.20663 0.0
H76 H 0.39043 0.93868 0.24834 0.0
H77 H 0.30184 0.98423 0.32046 0.0
H78 H 0.40102 0.87683 0.26541 0.0
H79 H 0.36226 0.86651 0.30836 0.0
H80 H 0.30196 0.24791 0.22248 0.0
H81 H 0.30734 0.18127 0.10807 0.0
H82 H 0.26646 0.30628 0.21176 0.0
H83 H 0.25245 0.30463 0.1505 0.0
Gd84 Gd 0.20444 0.33512 0.66591 0.0
Gd85 Gd 0.11834 0.26824 0.58511 0.0
C86 C 0.98114 0.23754 0.59855 0.0
C87 C 0.9881 0.17689 0.61644 0.0
C88 C 0.05022 0.21017 0.60398 0.0
C89 C 0.02548 0.23979 0.59707 0.0
C90 C 0.03157 0.17779 0.6131 0.0
C91 C 0.96291 0.20672 0.60917 0.0
C92 C 0.95604 0.26517 0.58801 0.0
C93 C 0.97474 0.29249 0.57473 0.0
N94 N 0.04403 0.26899 0.58676 0.0
C95 C 0.0187 0.29314 0.57345 0.0
H96 H 0.03267 0.3136 0.56229 0.0
C97 C 0.11685 0.18147 0.60501 0.0
N98 N 0.09229 0.21235 0.60096 0.0
C99 C 0.09968 0.14852 0.6137 0.0
C100 C 0.05697 0.14687 0.6181 0.0
H101 H 0.14993 0.18196 0.60203 0.0
H102 H 0.92907 0.20488 0.61089 0.0
H103 H 0.28224 0.30717 0.61559 0.0
H104 H 0.92188 0.26442 0.58871 0.0
H105 H 0.95527 0.31277 0.56518 0.0
H106 H 0.97341 0.15266 0.62388 0.0
H107 H 0.1751 0.41691 0.73761 0.0
H108 H 0.35397 0.42833 0.63 0.0
H109 H 0.34068 0.34538 0.60262 0.0
H110 H 0.29438 0.54397 0.71797 0.0
H111 H 0.1196 0.12462 0.61723 0.0
H112 H 0.04385 0.12141 0.62502 0.0
H113 H 0.33576 0.5021 0.67229 0.0
H114 H 0.18883 0.49946 0.77143 0.0
N115 N 0.26134 0.36759 0.65043 0.0
C116 C 0.32811 0.41172 0.6361 0.0
C117 C 0.32084 0.36492 0.62074 0.0
C118 C 0.30275 0.43656 0.65997 0.0
C119 C 0.26949 0.41331 0.66709 0.0
C120 C 0.28736 0.3433 0.62834 0.0
N121 N 0.21626 0.41376 0.701 0.0
C122 C 0.24638 0.43704 0.69311 0.0
C123 C 0.20488 0.48237 0.74923 0.0
C124 C 0.23386 0.50698 0.74008 0.0
C125 C 0.19698 0.43551 0.72977 0.0
C126 C 0.25564 0.48439 0.71225 0.0
H127 H 0.24009 0.5433 0.75537 0.0
O128 O 0.21072 0.30521 0.70438 0.0
O129 O 0.14459 0.28365 0.64352 0.0
O130 O 0.09791 0.33692 0.61486 0.0
O131 O 0.16138 0.38285 0.65684 0.0
O132 O 0.14709 0.34087 0.69205 0.0
O133 O 0.26487 0.34885 0.70637 0.0
O134 O 0.11674 0.20606 0.53638 0.0
O135 O 0.18452 0.3076 0.60485 0.0
O136 O 0.23102 0.27215 0.63379 0.0
O137 O 0.17702 0.23143 0.58012 0.0
O138 O 0.14083 0.32269 0.57031 0.0
O139 O 0.08788 0.26043 0.5304 0.0
C140 C 0.12429 0.30271 0.66873 0.0
C141 C 0.28714 0.50761 0.7038 0.0
C142 C 0.31068 0.48375 0.67776 0.0
C143 C 0.24899 0.32752 0.72271 0.0
C144 C 0.2549 0.3516 0.76322 0.0
C145 C 0.26677 0.39854 0.78192 0.0
C146 C 0.24785 0.32756 0.78347 0.0
C147 C 0.25196 0.35031 0.82195 0.0
C148 C 0.27064 0.42118 0.8199 0.0
C149 C 0.26324 0.39739 0.83979 0.0
C150 C 0.12069 0.37682 0.63853 0.0
C151 C 0.18151 0.32987 0.58622 0.0
C152 C 0.09404 0.21892 0.51377 0.0
C153 C 0.05651 0.18681 0.48619 0.0
C154 C 0.0313 0.15823 0.4949 0.0
C155 C 0.04592 0.18456 0.4506 0.0
C156 C 0.01042 0.15373 0.4236 0.0
C157 C 0.99632 0.12754 0.46838 0.0
C158 C 0.98598 0.12511 0.43303 0.0
C159 C 0.21602 0.23742 0.60137 0.0
H160 H 0.27307 0.41789 0.76729 0.0
H161 H 0.23876 0.29134 0.76924 0.0
H162 H 0.2797 0.45735 0.83403 0.0
H163 H 0.26733 0.41583 0.86938 0.0
H164 H 0.0388 0.15943 0.52208 0.0
H165 H 0.06509 0.20719 0.4442 0.0
H166 H 0.97723 0.10531 0.47518 0.0
H167 H 0.95912 0.10031 0.41294 0.0
Gd168 Gd 0.81496 0.97829 0.98961 0.0
Gd169 Gd 0.84583 0.08478 0.98606 0.0
C170 C 0.87266 0.21507 0.09281 0.0
C171 C 0.81 0.25133 0.08328 0.0
C172 C 0.8177 0.17892 0.03581 0.0
C173 C 0.85611 0.17862 0.05783 0.0
C174 C 0.79463 0.21567 0.04788 0.0
C175 C 0.84893 0.25099 0.10574 0.0
C176 C 0.91313 0.21488 0.11323 0.0
C177 C 0.93666 0.17975 0.09805 0.0
N178 N 0.87845 0.14375 0.0442 0.0
C179 C 0.919 0.14459 0.06304 0.0
H180 H 0.93734 0.11755 0.05153 0.0
C181 C 0.76905 0.14514 0.97726 0.0
N182 N 0.80381 0.14382 1.00181 0.0
C183 C 0.74495 0.18079 0.98802 0.0
C184 C 0.75745 0.21594 0.02366 0.0
H185 H 0.75932 0.11805 0.94968 0.0
H186 H 0.86092 0.27916 0.13267 0.0
H187 H 0.71505 0.96577 0.93124 0.0
H188 H 0.92694 0.24217 0.1403 0.0
H189 H 0.96834 0.17965 0.11331 0.0
H190 H 0.79254 0.27972 0.09323 0.0
H191 H 0.89749 0.92582 1.00912 0.0
H192 H 0.69828 0.83907 0.83824 0.0
H193 H 0.67226 0.91042 0.87229 0.0
H194 H 0.82271 0.77367 0.86383 0.0
H195 H 0.71682 0.1812 0.96883 0.0
H196 H 0.7388 0.24358 0.03188 0.0
H197 H 0.75445 0.78891 0.83514 0.0
H198 H 0.92401 0.85359 0.97988 0.0
N199 N 0.76721 0.92733 0.93298 0.0
C200 C 0.71778 0.86339 0.86474 0.0
C201 C 0.70296 0.90356 0.88391 0.0
C202 C 0.75734 0.85483 0.88005 0.0
C203 C 0.78179 0.88771 0.91464 0.0
C204 C 0.72786 0.93511 0.91808 0.0
N205 N 0.84464 0.91126 0.96341 0.0
C206 C 0.82124 0.87945 0.9303 0.0
C207 C 0.89531 0.86051 0.96549 0.0
C208 C 0.87355 0.82883 0.93032 0.0
C209 C 0.88 0.90137 0.98196 0.0
C210 C 0.83578 0.83772 0.91251 0.0
H211 H 0.88555 0.79716 0.91756 0.0
O212 O 0.83906 0.96516 0.03654 0.0
O213 O 0.855 0.04728 0.02034 0.0
O214 O 0.90634 0.05216 0.99031 0.0
O215 O 0.88184 0.97813 0.97741 0.0
O216 O 0.8121 0.02995 0.04604 0.0
O217 O 0.77197 0.9395 1.00491 0.0
O218 O 0.84824 0.09411 0.93703 0.0
O219 O 0.82651 0.01124 0.95493 0.0
O220 O 0.75602 0.01282 0.98731 0.0
O221 O 0.78442 0.08817 1.00804 0.0
O222 O 0.79645 0.04818 0.93152 0.0
O223 O 0.90402 0.11983 0.98251 0.0
C224 C 0.84268 0.06007 0.05034 0.0
C225 C 0.81175 0.80562 0.87798 0.0
C226 C 0.7728 0.81424 0.86172 0.0
C227 C 0.80245 0.94083 0.03178 0.0
C228 C 0.80603 0.89897 0.03565 0.0
C229 C 0.79572 0.85678 1.00483 0.0
C230 C 0.81957 0.90146 0.07108 0.0
C231 C 0.82252 0.86207 0.07585 0.0
C232 C 0.79957 0.81768 1.00925 0.0
C233 C 0.8128 0.82018 0.04444 0.0
C234 C 0.91219 0.00982 0.981 0.0
C235 C 0.80148 0.00775 0.92613 0.0
C236 C 0.88709 0.11715 0.95025 0.0
C237 C 0.89297 0.15867 0.94561 0.0
C238 C 0.87721 0.1971 0.96795 0.0
C239 C 0.91378 0.1598 0.91828 0.0
C240 C 0.91879 0.19927 0.91329 0.0
C241 C 0.8815 0.23595 0.96295 0.0
C242 C 0.90188 0.23707 0.93584 0.0
C243 C 0.75284 0.05621 1.00223 0.0
H244 H 0.7846 0.85396 0.97738 0.0
H245 H 0.82668 0.93404 0.09494 0.0
H246 H 0.79196 0.78525 0.98533 0.0
H247 H 0.81545 0.78928 0.04705 0.0
H248 H 0.86146 0.19709 0.98918 0.0
H249 H 0.92645 0.13022 0.90137 0.0
H250 H 0.86884 0.26534 0.9801 0.0
H251 H 0.90396 0.26759 0.93234 0.0
Gd252 Gd 0.10658 0.87024 0.63356 0.0
Gd253 Gd 0.00341 0.82823 0.56126 0.0
C254 C 0.8698 0.80367 0.58285 0.0
C255 C 0.85295 0.72211 0.5514 0.0
C256 C 0.92074 0.75981 0.55057 0.0
C257 C 0.90989 0.80107 0.57204 0.0
C258 C 0.89206 0.71988 0.53939 0.0
C259 C 0.84186 0.76393 0.57312 0.0
C260 C 0.85841 0.84613 0.60208 0.0
C261 C 0.88591 0.88453 0.60873 0.0
N262 N 0.93742 0.83877 0.58057 0.0
C263 C 0.92516 0.88016 0.59715 0.0
H264 H 0.94611 0.91013 0.60253 0.0
C265 C 0.96876 0.71946 0.51502 0.0
N266 N 0.95866 0.75891 0.53932 0.0
C267 C 0.94144 0.67893 0.50326 0.0
C268 C 0.90313 0.67907 0.5158 0.0
H269 H 0.9985 0.71917 0.50547 0.0
H270 H 0.81111 0.76524 0.58147 0.0
H271 H 0.15211 0.78057 0.58523 0.0
H272 H 0.828 0.8496 0.61102 0.0
H273 H 0.87698 0.91751 0.62286 0.0
H274 H 0.83064 0.69178 0.54338 0.0
H275 H 0.12735 0.97969 0.69139 0.0
H276 H 0.26358 0.82741 0.55831 0.0
H277 H 0.21332 0.76478 0.55439 0.0
H278 H 0.27761 0.98775 0.62558 0.0
H279 H 0.94998 0.64763 0.48461 0.0
H280 H 0.88198 0.64764 0.5066 0.0
H281 H 0.28685 0.91087 0.58439 0.0
H282 H 0.17884 0.04674 0.70476 0.0
N283 N 0.16684 0.85166 0.60627 0.0
C284 C 0.23681 0.83461 0.57211 0.0
C285 C 0.20857 0.79919 0.56992 0.0
C286 C 0.23088 0.87894 0.59299 0.0
C287 C 0.19539 0.88639 0.61024 0.0
C288 C 0.17384 0.80836 0.58757 0.0
N289 N 0.1566 0.93479 0.65023 0.0
C290 C 0.19005 0.92946 0.63299 0.0
C291 C 0.18228 0.01396 0.68439 0.0
C292 C 0.21535 0.00936 0.66514 0.0
C293 C 0.15337 0.97598 0.67692 0.0
C294 C 0.22008 0.96659 0.63955 0.0
H295 H 0.23766 0.0388 0.67088 0.0
O296 O 0.12161 0.89705 0.6934 0.0
O297 O 0.03463 0.85446 0.62079 0.0
O298 O 0.01779 0.90447 0.58727 0.0
O299 O 0.09243 0.92287 0.61465 0.0
O300 O 0.06314 0.91089 0.66908 0.0
O301 O 0.13957 0.8329 0.66028 0.0
O302 O 0.99237 0.80547 0.50206 0.0
O303 O 0.07505 0.84711 0.57463 0.0
O304 O 0.08702 0.79434 0.60848 0.0
O305 O 0.01181 0.7794 0.58568 0.0
O306 O 0.04984 0.79148 0.52627 0.0
O307 O 0.96959 0.86656 0.53613 0.0
C308 C 0.02678 0.88626 0.64858 0.0
C309 C 0.25441 0.95964 0.62118 0.0
C310 C 0.25972 0.91586 0.59782 0.0
C311 C 0.14249 0.86444 0.69355 0.0
C312 C 0.18585 0.878 0.71885 0.0
C313 C 0.22268 0.88695 0.707 0.0
C314 C 0.19065 0.88255 0.75512 0.0
C315 C 0.23224 0.89553 0.77927 0.0
C316 C 0.26369 0.90015 0.73074 0.0
C317 C 0.26853 0.90444 0.76652 0.0
C318 C 0.05534 0.93184 0.60025 0.0
C319 C 0.08512 0.81878 0.5462 0.0
C320 C 0.9712 0.83833 0.50275 0.0
C321 C 0.93112 0.82633 0.47411 0.0
C322 C 0.89341 0.80329 0.47543 0.0
C323 C 0.9307 0.83815 0.44503 0.0
C324 C 0.89273 0.8269 0.41707 0.0
C325 C 0.85566 0.79203 0.44793 0.0
C326 C 0.85523 0.8036 0.41893 0.0
C327 C 0.04876 0.76867 0.59837 0.0
H328 H 0.21977 0.88374 0.67938 0.0
H329 H 0.16224 0.87548 0.76428 0.0
H330 H 0.2919 0.90721 0.72139 0.0
H331 H 0.30078 0.91542 0.78442 0.0
H332 H 0.89318 0.79399 0.49762 0.0
H333 H 0.95987 0.85648 0.44447 0.0
H334 H 0.82666 0.77402 0.44897 0.0
H335 H 0.82568 0.79358 0.39763 0.0
H336 H 0.98889 0.06684 1.01461 0.0
H337 H 0.05819 0.04508 0.03239 0.0
H338 H 0.00451 0.90512 0.96576 0.0
H339 H 0.93548 0.92696 0.94604 0.0
H340 H 0.02039 0.9369 0.04422 0.0
H341 H 0.16567 0.98421 1.00346 0.0
H342 H 0.12977 0.02571 1.01111 0.0
H343 H 0.11143 0.96985 0.97436 0.0
C344 C 0.99241 0.03156 1.00221 0.0
C345 C 0.95637 0.99835 0.98064 0.0
C346 C 0.0322 0.01911 1.01217 0.0
C347 C 0.03611 0.97346 1.00075 0.0
C348 C 1.00195 0.94047 0.97493 0.0
H349 H 0.24005 0.96741 0.17235 0.0
H350 H 0.17964 0.93066 0.11875 0.0
C351 C 0.96239 0.953 0.96435 0.0
C352 C 0.06928 0.96204 0.02409 0.0
H353 H 0.17578 0.99695 0.06804 0.0
C354 C 0.0548 0.94796 0.04855 0.0
C355 C 0.11389 0.97644 0.02954 0.0
C356 C 0.13116 0.98947 1.00293 0.0
C357 C 0.08312 0.95375 0.08108 0.0
C358 C 0.12651 0.97343 0.0886 0.0
C359 C 0.14213 0.98221 0.06204 0.0
C360 C 0.15446 0.99217 0.12572 0.0
C361 C 0.06579 0.94326 0.10891 0.0
C362 C 0.15809 0.03832 0.14848 0.0
C363 C 0.1931 0.05969 0.1787 0.0
C364 C 0.2251 0.03516 0.18592 0.0
C365 C 0.21727 0.98782 0.16642 0.0
C366 C 0.18258 0.96649 0.13589 0.0
H367 H 0.03276 0.92311 0.09711 0.0
H368 H 0.08814 0.92459 0.11933 0.0
H369 H 0.06414 0.9752 0.1328 0.0
H370 H 0.13583 0.05834 0.14117 0.0
H371 H 0.19661 0.09563 0.19451 0.0
H372 H 0.09549 0.01744 0.64171 0.0
H373 H 0.1413 0.05394 0.61714 0.0
H374 H 0.07658 0.95891 0.50633 0.0
H375 H 0.031 0.92232 0.53088 0.0
H376 H 0.19476 0.99401 0.57226 0.0
H377 H 0.09729 0.08048 0.50117 0.0
H378 H 0.07929 0.0691 0.53607 0.0
H379 H 0.07701 0.02388 0.49162 0.0
C380 C 0.08934 0.00614 0.61218 0.0
C381 C 0.06045 0.96683 0.58817 0.0
C382 C 0.11582 0.02652 0.59815 0.0
C383 C 0.1127 0.00833 0.56001 0.0
C384 C 0.07929 0.97332 0.53584 0.0
H385 H 0.23523 0.19689 0.53351 0.0
H386 H 0.24551 0.11844 0.50552 0.0
C387 C 0.05268 0.95297 0.54996 0.0
C388 C 0.14792 0.0226 0.54656 0.0
H389 H 0.17233 0.09375 0.51124 0.0
C390 C 0.19006 0.01497 0.558 0.0
C391 C 0.14133 0.04808 0.52668 0.0
C392 C 0.0964 0.05613 0.51311 0.0
C393 C 0.22646 0.03728 0.55434 0.0
C394 C 0.2203 0.06933 0.54052 0.0
C395 C 0.17778 0.07042 0.52311 0.0
C396 C 0.2514 0.11167 0.55611 0.0
C397 C 0.2711 0.02987 0.5689 0.0
C398 C 0.26142 0.136 0.59489 0.0
C399 C 0.25677 0.18128 0.61112 0.0
C400 C 0.24281 0.20189 0.58856 0.0
C401 C 0.24437 0.18085 0.55121 0.0
C402 C 0.251 0.13604 0.53528 0.0
H403 H 0.27158 0.99349 0.56073 0.0
H404 H 0.2965 0.0427 0.55872 0.0
H405 H 0.27893 0.04694 0.59949 0.0
H406 H 0.26356 0.11902 0.61234 0.0
H407 H 0.25689 0.19749 0.64026 0.0
H408 H 0.74755 0.13778 0.05759 0.0
H409 H 0.69613 0.15312 0.09781 0.0
H410 H 0.62545 0.01939 0.03072 0.0
H411 H 0.67637 1.00376 0.9901 0.0
H412 H 0.57209 0.08883 0.05663 0.0
H413 H 0.70313 0.09151 0.16818 0.0
H414 H 0.71517 0.12909 0.14882 0.0
H415 H 0.7077 0.06944 0.12074 0.0
C416 C 0.72035 0.11205 0.05065 0.0
C417 C 0.71629 0.06938 0.02072 0.0
C418 C 0.6913 0.12073 0.07399 0.0
C419 C 0.65768 0.087 0.06768 0.0
C420 C 0.65148 0.04569 0.03623 0.0
H421 H 0.49776 0.04037 0.20156 0.0
H422 H 0.55366 0.03914 0.16717 0.0
C423 C 0.68057 0.03689 1.01299 0.0
C424 C 0.63056 0.09347 0.0949 0.0
H425 H 0.63436 0.10506 0.18215 0.0
C426 C 0.58569 0.09268 0.08414 0.0
C427 C 0.64841 0.09763 0.13054 0.0
C428 C 0.69617 0.09663 0.14285 0.0
C429 C 0.55818 0.09636 0.10824 0.0
C430 C 0.57613 0.1013 0.14407 0.0
C431 C 0.62091 0.10171 0.15477 0.0
C432 C 0.54827 0.10522 0.17029 0.0
C433 C 0.50992 0.0941 0.09505 0.0
C434 C 0.52844 0.14367 0.18494 0.0
C435 C 0.49664 0.14463 0.20475 0.0
C436 C 0.48393 0.10701 0.21022 0.0
C437 C 0.50651 0.06991 0.19797 0.0
C438 C 0.53844 0.06905 0.17815 0.0
H439 H 0.50034 0.08224 0.06473 0.0
H440 H 0.4911 0.07128 0.10252 0.0
H441 H 0.50073 0.12809 0.10868 0.0
H442 H 0.53605 0.17211 0.17949 0.0
H443 H 0.48029 0.17393 0.21377 0.0
H444 H 0.03466 0.38541 0.61943 0.0
H445 H 0.00657 0.45101 0.61575 0.0
H446 H 0.1363 0.52583 0.66025 0.0
H447 H 0.16445 0.46099 0.66364 0.0
H448 H 0.07259 0.5761 0.68917 0.0
H449 H 0.02878 0.48723 0.5355 0.0
H450 H 0.00453 0.46146 0.55972 0.0
H451 H 0.06215 0.46529 0.56276 0.0
C452 C 0.05712 0.41583 0.62847 0.0
C453 C 0.10191 0.4176 0.64126 0.0
C454 C 0.04101 0.45329 0.62643 0.0
C455 C 0.06953 0.49292 0.6371 0.0
C456 C 0.11374 0.49551 0.65181 0.0
H457 H 0.1173 0.73263 0.62062 0.0
H458 H 0.11452 0.66542 0.63081 0.0
C459 C 0.12977 0.4583 0.65385 0.0
C460 C 0.05475 0.53118 0.63111 0.0
H461 H 0.02472 0.56437 0.5633 0.0
C462 C 0.06134 0.57343 0.6617 0.0
C463 C 0.04016 0.5275 0.59519 0.0
C464 C 0.03367 0.48308 0.56129 0.0
C465 C 0.0557 0.61245 0.65722 0.0
C466 C 0.04344 0.609 0.62127 0.0
C467 C 0.03425 0.56661 0.59078 0.0
C468 C 0.04432 0.64934 0.61473 0.0
C469 C 0.06437 0.65732 0.69082 0.0
C470 C 0.00571 0.66186 0.60168 0.0
C471 C 0.0071 0.70048 0.59602 0.0
C472 C 0.04722 0.72671 0.60275 0.0
C473 C 0.08585 0.71336 0.61518 0.0
C474 C 0.08437 0.67504 0.62114 0.0
H475 H 0.06353 0.6535 0.71628 0.0
H476 H 0.09713 0.67465 0.69428 0.0
H477 H 0.04012 0.67906 0.68757 0.0
H478 H 0.97455 0.64219 0.59647 0.0
H479 H 0.97669 0.71004 0.58691 0.0
H480 H 0.23489 0.39538 0.58145 0.0
H481 H 0.28322 0.38231 0.5377 0.0
H482 H 0.23867 0.23975 0.48961 0.0
H483 H 0.19094 0.25278 0.53187 0.0
H484 H 0.33272 0.26595 0.50967 0.0
H485 H 0.24198 0.33739 0.42225 0.0
H486 H 0.25739 0.37015 0.47164 0.0
H487 H 0.21625 0.3217 0.45187 0.0
C488 C 0.23607 0.36141 0.56167 0.0
C489 C 0.21125 0.32472 0.56136 0.0
C490 C 0.26337 0.35397 0.53671 0.0
C491 C 0.26508 0.30989 0.5109 0.0
C492 C 0.23881 0.27386 0.5099 0.0
H493 H 0.29433 0.14517 0.30125 0.0
H494 H 0.2756 0.19839 0.35768 0.0
C495 C 0.21196 0.28126 0.53448 0.0
C496 C 0.29297 0.29937 0.48383 0.0
H497 H 0.29081 0.28869 0.39732 0.0
C498 C 0.32472 0.27198 0.48548 0.0
C499 C 0.28184 0.30691 0.45226 0.0
C500 C 0.24748 0.33555 0.44902 0.0
C501 C 0.34305 0.24889 0.45521 0.0
C502 C 0.33018 0.25448 0.42273 0.0
C503 C 0.30079 0.28455 0.42218 0.0
C504 C 0.34242 0.22534 0.38778 0.0
C505 C 0.37308 0.21585 0.45732 0.0
C506 C 0.38621 0.22307 0.38565 0.0
C507 C 0.39689 0.1921 0.35355 0.0
C508 C 0.364 0.16418 0.32265 0.0
C509 C 0.32027 0.16703 0.3245 0.0
C510 C 0.3096 0.19747 0.3567 0.0
H511 H 0.37217 0.20864 0.48124 0.0
H512 H 0.36435 0.1836 0.4318 0.0
H513 H 0.40701 0.23007 0.46038 0.0
H514 H 0.41211 0.24477 0.40894 0.0
H515 H 0.43084 0.19007 0.35277 0.0
H516 H 0.04812 0.32274 0.68899 0.0
H517 H 0.01192 0.29467 0.72505 0.0
H518 H 0.10536 0.20333 0.71867 0.0
H519 H 0.14244 0.23273 0.68404 0.0
H520 H 0.97347 0.21398 0.71614 0.0
H521 H 0.12273 0.27541 0.82857 0.0
H522 H 0.11714 0.28896 0.79009 0.0
H523 H 0.13053 0.23503 0.78508 0.0
C524 C 0.06021 0.29596 0.69466 0.0
C525 C 0.09731 0.27904 0.68296 0.0
C526 C 0.03964 0.27999 0.71531 0.0
C527 C 0.05633 0.24741 0.72524 0.0
C528 C 0.0923 0.22906 0.71206 0.0
H529 H 0.91614 0.13375 0.84295 0.0
H530 H 0.95045 0.14045 0.79614 0.0
C531 C 0.11301 0.24526 0.69165 0.0
C532 C 0.03778 0.23499 0.75126 0.0
H533 H 0.06336 0.23664 0.83631 0.0
C534 C 0.99313 0.21875 0.74237 0.0
C535 C 0.06334 0.24175 0.78576 0.0
C536 C 0.11096 0.26163 0.7982 0.0
C537 C 0.97324 0.2096 0.76707 0.0
C538 C 0.99889 0.21583 0.80138 0.0
C539 C 0.04368 0.23145 0.80997 0.0
C540 C 0.9796 0.20999 0.83006 0.0
C541 C 0.92462 0.19518 0.75674 0.0
C542 C 0.98607 0.24598 0.86538 0.0
C543 C 0.96737 0.24192 0.89241 0.0
C544 C 0.94131 0.20178 0.88491 0.0
C545 C 0.93595 0.16518 0.84985 0.0
C546 C 0.95505 0.16919 0.82279 0.0
H547 H 0.90852 0.20298 0.73419 0.0
H548 H 0.91769 0.1583 0.74699 0.0
H549 H 0.90991 0.2119 0.78084 0.0
H550 H 0.00519 0.27769 0.87196 0.0
H551 H 0.9733 0.27053 0.91927 0.0
H552 H 0.82689 0.85612 0.3833 0.0
H553 H 0.82336 0.86858 0.3285 0.0
H554 H 0.95418 0.83897 0.32578 0.0
H555 H 0.95735 0.82442 0.37966 0.0
H556 H 0.87236 0.92669 0.31243 0.0
H557 H 0.88568 0.74882 0.224 0.0
H558 H 0.87625 0.76719 0.26979 0.0
H559 H 0.92994 0.77779 0.26351 0.0
C560 C 0.85487 0.8519 0.37095 0.0
C561 C 0.89215 0.83851 0.38566 0.0
C562 C 0.85294 0.85952 0.3398 0.0
C563 C 0.88821 0.85397 0.32261 0.0
C564 C 0.92624 0.84262 0.33814 0.0
H565 H 0.88662 0.92038 0.13536 0.0
H566 H 0.90636 0.92182 0.1964 0.0
C567 C 0.92814 0.83478 0.36924 0.0
C568 C 0.88406 0.85805 0.28753 0.0
H569 H 0.88062 0.79742 0.1958 0.0
C570 C 0.87444 0.89855 0.28693 0.0
C571 C 0.88643 0.82117 0.25423 0.0
C572 C 0.89476 0.77614 0.25265 0.0
C573 C 0.86634 0.90292 0.25385 0.0
C574 C 0.86851 0.86591 0.22054 0.0
C575 C 0.8791 0.8258 0.22135 0.0
C576 C 0.85663 0.86653 0.18405 0.0
C577 C 0.85386 0.94646 0.25466 0.0
C578 C 0.82262 0.83465 0.15659 0.0
C579 C 0.81156 0.83353 0.12174 0.0
C580 C 0.83429 0.86425 0.11339 0.0
C581 C 0.86819 0.89652 0.14101 0.0
C582 C 0.87944 0.89745 0.17595 0.0
H583 H 0.84413 0.96761 0.28064 0.0
H584 H 0.88216 0.96589 0.25257 0.0
H585 H 0.82659 0.93996 0.23102 0.0
H586 H 0.80444 0.81055 0.16217 0.0
H587 H 0.78485 0.80873 0.10137 0.0
H588 H 0.18211 0.93362 0.82987 0.0
H589 H 0.19856 0.94989 0.89538 0.0
H590 H 0.31348 0.88623 0.88158 0.0
H591 H 0.29705 0.86921 0.81631 0.0
H592 H 0.21983 0.88903 0.93398 0.0
H593 H 0.35423 0.02253 0.96076 0.0
H594 H 0.31018 1.00086 0.92028 0.0
H595 H 0.35321 0.9686 0.923 0.0
C596 C 0.21037 0.92225 0.8406 0.0
C597 C 0.23859 0.90068 0.81786 0.0
C598 C 0.21979 0.93168 0.87807 0.0
C599 C 0.25754 0.91975 0.89344 0.0
C600 C 0.28446 0.89622 0.87041 0.0
H601 H 0.40632 0.01003 0.11748 0.0
H602 H 0.37926 0.96766 0.05051 0.0
C603 C 0.27509 0.88674 0.8331 0.0
C604 C 0.27091 0.93465 0.9339 0.0
H605 H 0.34784 0.00613 1.0101 0.0
C606 C 0.24776 0.91465 0.95074 0.0
C607 C 0.30738 0.96802 0.95567 0.0
C608 C 0.33264 0.99162 0.93923 0.0
C609 C 0.26077 0.92652 0.98873 0.0
C610 C 0.29742 0.95997 1.01056 0.0
C611 C 0.32018 0.98007 0.99351 0.0
C612 C 0.31197 0.9766 0.05135 0.0
C613 C 0.23569 0.90229 1.00478 0.0
C614 C 0.28314 0.99427 0.07448 0.0
C615 C 0.29846 0.01738 0.11278 0.0
C616 C 0.34305 0.02376 0.1287 0.0
C617 C 0.37166 1.00449 0.10589 0.0
C618 C 0.35621 0.98069 0.06762 0.0
H619 H 0.2195 0.86839 0.98342 0.0
H620 H 0.25714 0.89855 0.02757 0.0
H621 H 0.20987 0.92175 0.01578 0.0
H622 H 0.24932 0.99311 0.06283 0.0
H623 H 0.27601 0.03348 0.12959 0.0
H624 H 0.76221 1.00271 0.85937 0.0
H625 H 0.78588 0.96516 0.80158 0.0
H626 H 0.87267 0.90063 0.851 0.0
H627 H 0.85231 0.94104 0.90902 0.0
H628 H 0.91598 0.94814 0.82918 0.0
H629 H 0.77635 0.84657 0.71361 0.0
H630 H 0.76643 0.90276 0.73958 0.0
H631 H 0.77343 0.86578 0.76127 0.0
C632 C 0.78527 0.97932 0.85748 0.0
C633 C 0.80504 0.97467 0.88896 0.0
C634 C 0.79854 0.95751 0.82424 0.0
C635 C 0.83104 0.92979 0.82171 0.0
C636 C 0.84752 0.92175 0.8521 0.0
H637 H 0.97425 0.81609 0.64645 0.0
H638 H 0.92023 0.82241 0.68408 0.0
C639 C 0.83533 0.94456 0.88543 0.0
C640 C 0.85408 0.9167 0.79094 0.0
H641 H 0.84056 0.86875 0.69707 0.0
C642 C 0.89934 0.93008 0.80036 0.0
C643 C 0.83267 0.8932 0.75322 0.0
C644 C 0.7846 0.87584 0.7413 0.0
C645 C 0.92356 0.92161 0.77342 0.0
C646 C 0.90194 0.90035 0.73578 0.0
C647 C 0.85691 0.88562 0.72601 0.0
C648 C 0.9263 0.89492 0.70691 0.0
C649 C 0.97229 0.93593 0.7856 0.0
C650 C 0.94613 0.93336 0.70626 0.0
C651 C 0.9771 0.92987 0.6853 0.0
C652 C 0.98788 0.88777 0.6638 0.0
C653 C 0.96587 0.84885 0.66236 0.0
C654 C 0.93509 0.85243 0.68379 0.0
H655 H 0.98492 0.94075 0.81423 0.0
H656 H 0.98939 0.91073 0.767 0.0
H657 H 0.98038 0.96841 0.78481 0.0
H658 H 0.9396 0.9664 0.72378 0.0
H659 H 0.99393 0.96029 0.68698 0.0
H660 H 0.24603 0.94008 0.32821 0.0
H661 H 0.20788 0.92573 0.36996 0.0
H662 H 0.32012 0.87716 0.40917 0.0
H663 H 0.35939 0.89427 0.36976 0.0
H664 H 0.18345 0.84944 0.37217 0.0
H665 H 0.29704 0.95842 0.50552 0.0
H666 H 0.29921 0.96307 0.46372 0.0
H667 H 0.32346 0.92008 0.4729 0.0
C668 C 0.26309 0.92741 0.34635 0.0
C669 C 0.30604 0.91842 0.3453 0.0
C670 C 0.24098 0.91875 0.37004 0.0
C671 C 0.26117 0.90095 0.39337 0.0
C672 C 0.30397 0.89199 0.39237 0.0
H673 H 0.11798 0.76106 0.48976 0.0
H674 H 0.16243 0.7798 0.45337 0.0
C675 C 0.32623 0.90111 0.36911 0.0
C676 C 0.23705 0.88997 0.41756 0.0
H677 H 0.24364 0.90534 0.50628 0.0
C678 C 0.19662 0.86185 0.40151 0.0
C679 C 0.2537 0.90649 0.45606 0.0
C680 C 0.29548 0.93905 0.47565 0.0
C681 C 0.17293 0.84921 0.42254 0.0
C682 C 0.1905 0.86409 0.46069 0.0
C683 C 0.23047 0.89305 0.47694 0.0
C684 C 0.16686 0.8519 0.48451 0.0
C685 C 0.1287 0.82094 0.40374 0.0
C686 C 0.1562 0.88584 0.51524 0.0
C687 C 0.13163 0.87517 0.53643 0.0
C688 C 0.11713 0.83016 0.52762 0.0
C689 C 0.12886 0.79607 0.49745 0.0
C690 C 0.15388 0.80679 0.4764 0.0
H691 H 0.11503 0.82279 0.37764 0.0
H692 H 0.13168 0.78527 0.3969 0.0
H693 H 0.10537 0.83175 0.42197 0.0
H694 H 0.16561 0.92075 0.52207 0.0
H695 H 0.123 0.9024 0.55899 0.0
H696 H 0.20748 0.37151 0.8769 0.0
H697 H 0.20828 0.33869 0.92011 0.0
H698 H 0.28361 0.23996 0.86045 0.0
H699 H 0.28382 0.2734 0.81749 0.0
H700 H 0.18345 0.25197 0.91386 0.0
H701 H 0.3623 0.30772 0.96467 0.0
H702 H 0.32907 0.32693 0.9352 0.0
H703 H 0.34362 0.27141 0.9162 0.0
C704 C 0.22397 0.3426 0.8728 0.0
C705 C 0.24629 0.32559 0.84416 0.0
C706 C 0.22414 0.32367 0.89738 0.0
C707 C 0.24673 0.28743 0.89397 0.0
C708 C 0.26661 0.26842 0.86397 0.0
H709 H 0.25046 0.17365 0.05452 0.0
H710 H 0.24232 0.17801 0.99554 0.0
C711 C 0.26638 0.28732 0.83926 0.0
C712 C 0.25224 0.27242 0.9236 0.0
H713 H 0.32813 0.27394 0.99492 0.0
C714 C 0.21511 0.25615 0.93132 0.0
C715 C 0.29357 0.27841 0.9466 0.0
C716 C 0.33447 0.29737 0.9406 0.0
C717 C 0.21812 0.24672 0.9619 0.0
C718 C 0.25939 0.25348 0.98521 0.0
C719 C 0.29658 0.26854 0.97688 0.0
C720 C 0.26442 0.24964 0.02041 0.0
C721 C 0.177 0.23165 0.97008 0.0
C722 C 0.28039 0.28816 0.05387 0.0
C723 C 0.28529 0.28574 0.0874 0.0
C724 C 0.27446 0.24464 0.08837 0.0
C725 C 0.25914 0.2058 0.05476 0.0
C726 C 0.2541 0.20831 0.02106 0.0
H727 H 0.1473 0.23501 0.95286 0.0
H728 H 0.17571 0.1958 0.96449 0.0
H729 H 0.17668 0.25151 0.99959 0.0
H730 H 0.28885 0.32035 0.05406 0.0
H731 H 0.29799 0.31615 0.11265 0.0
H732 H 0.92536 0.04801 0.07293 0.0
H733 H 0.96395 0.07158 0.13711 0.0
H734 H 0.86132 0.14642 0.17536 0.0
H735 H 0.82257 0.12259 0.11125 0.0
H736 H 0.95639 0.18772 0.21829 0.0
H737 H 0.90137 0.01314 0.19479 0.0
H738 H 0.92856 0.01983 0.16208 0.0
H739 H 0.87597 0.03672 0.16525 0.0
C740 C 0.91199 0.07092 0.09511 0.0
C741 C 0.87142 0.08421 0.08736 0.0
C742 C 0.93382 0.08404 0.13169 0.0
C743 C 0.91532 0.11049 0.16095 0.0
C744 C 0.87622 0.12616 0.1532 0.0
H745 H 0.92888 0.13931 0.3801 0.0
H746 H 0.90959 0.13006 0.31685 0.0
C747 C 0.85422 0.11274 0.11666 0.0
C748 C 0.93373 0.11747 0.19917 0.0
H749 H 0.94025 0.06375 0.25437 0.0
C750 C 0.95334 0.1606 0.22619 0.0
C751 C 0.92919 0.08205 0.20939 0.0
C752 C 0.90745 0.03529 0.18156 0.0
C753 C 0.96838 0.16925 0.26328 0.0
C754 C 0.96348 0.1339 0.27353 0.0
C755 C 0.94414 0.09074 0.24641 0.0
C756 C 0.97599 0.14135 0.31253 0.0
C757 C 0.9882 0.21634 0.29153 0.0
C758 C 0.01986 0.1508 0.33122 0.0
C759 C 0.03115 0.15554 0.36742 0.0
C760 C 0.99876 0.15093 0.38567 0.0
C761 C 0.95482 0.14224 0.36688 0.0
C762 C 0.94364 0.13723 0.33072 0.0
H763 H 0.98415 0.24116 0.28013 0.0
H764 H 0.9732 0.2266 0.31578 0.0
H765 H 0.02352 0.21727 0.30131 0.0
H766 H 0.04539 0.15356 0.31754 0.0
H767 H 0.06529 0.1616 0.38069 0.0
loop_
_geom_bond_atom_site_label_1
_geom_bond_atom_site_label_2
_geom_bond_distance
_geom_bond_site_symmetry_2
_ccdc_geom_bond_type
Gd0 N31 2.661 . S
Gd0 N37 2.601 . S
Gd0 O44 2.545 . S
Gd0 O45 2.606 1_565 S
Gd0 O47 2.429 . S
Gd0 O48 2.545 1_565 S
Gd0 O49 2.412 . S
Gd0 O51 2.362 . S
Gd0 O52 2.324 . S
Gd0 C59 2.828 . S
Gd1 N10 2.661 . S
Gd1 N14 2.601 . S
Gd1 O45 2.362 . S
Gd1 O46 2.324 . S
Gd1 O50 2.545 . S
Gd1 O51 2.606 1_545 S
Gd1 O53 2.429 . S
Gd1 O54 2.545 . S
Gd1 O55 2.412 . S
Gd1 C68 2.828 . S
C2 C5 1.417 . S
C2 C7 1.431 . S
C2 C8 1.412 . S
C3 C6 1.437 . S
C3 C7 1.317 . S
C3 H22 0.929 . S
C4 C5 1.426 . S
C4 C6 1.413 . S
C4 N14 1.359 . S
C5 C2 1.417 . S
C5 C4 1.426 . S
C5 N10 1.350 . S
C6 C3 1.437 . S
C6 C4 1.413 . S
C6 C16 1.391 . S
C7 C2 1.431 . S
C7 C3 1.317 . S
C7 H18 0.930 . S
C8 C2 1.412 . S
C8 C9 1.355 . S
C8 H20 0.930 . S
C9 C8 1.355 . S
C9 C11 1.402 . S
C9 H21 0.930 . S
N10 Gd1 2.661 . S
N10 C5 1.350 . S
N10 C11 1.307 . S
C11 C9 1.402 . S
C11 N10 1.307 . S
C11 H12 0.930 . S
H12 C11 0.930 . S
C13 N14 1.334 . S
C13 C15 1.394 . S
C13 H17 0.930 . S
N14 Gd1 2.601 . S
N14 C4 1.359 . S
N14 C13 1.334 . S
C15 C13 1.394 . S
C15 C16 1.359 . S
C15 H27 0.930 . S
C16 C6 1.391 . S
C16 C15 1.359 . S
C16 H28 0.929 . S
H17 C13 0.930 . S
H18 C7 0.930 . S
H19 C36 0.930 . S
H20 C8 0.930 . S
H21 C9 0.930 . S
H22 C3 0.929 . S
H23 C41 0.930 . S
H24 C32 0.930 . S
H25 C33 0.930 . S
H26 C57 0.929 . S
H27 C15 0.930 . S
H28 C16 0.929 . S
H29 C58 0.931 . S
H30 C39 0.930 . S
N31 Gd0 2.661 . S
N31 C35 1.350 . S
N31 C36 1.307 . S
C32 H24 0.930 . S
C32 C33 1.355 . S
C32 C34 1.412 . S
C33 H25 0.930 . S
C33 C32 1.355 . S
C33 C36 1.402 . S
C34 C32 1.412 . S
C34 C35 1.417 . S
C34 C58 1.431 . S
C35 N31 1.350 . S
C35 C34 1.417 . S
C35 C38 1.426 . S
C36 H19 0.930 . S
C36 N31 1.307 . S
C36 C33 1.402 . S
N37 Gd0 2.601 . S
N37 C38 1.359 . S
N37 C41 1.334 . S
C38 C35 1.426 . S
C38 N37 1.359 . S
C38 C42 1.413 . S
C39 H30 0.930 . S
C39 C40 1.359 . S
C39 C41 1.394 . S
C40 C39 1.359 . S
C40 C42 1.391 . S
C40 H43 0.929 . S
C41 H23 0.930 . S
C41 N37 1.334 . S
C41 C39 1.394 . S
C42 C38 1.413 . S
C42 C40 1.391 . S
C42 C57 1.437 . S
H43 C40 0.929 . S
O44 Gd0 2.545 . S
O44 C59 1.258 . S
O45 Gd0 2.606 1_545 S
O45 Gd1 2.362 . S
O45 C56 1.284 . S
O46 Gd1 2.324 . S
O46 C66 1.254 . S
O47 Gd0 2.429 . S
O47 C66 1.268 1_565 S
O48 Gd0 2.545 1_545 S
O48 C56 1.250 . S
O49 Gd0 2.412 . S
O49 C59 1.252 . S
O50 Gd1 2.545 . S
O50 C68 1.258 . S
O51 Gd0 2.362 . S
O51 Gd1 2.606 1_565 S
O51 C67 1.284 . S
O52 Gd0 2.324 . S
O52 C75 1.254 1_565 S
O53 Gd1 2.429 . S
O53 C75 1.268 . S
O54 Gd1 2.545 . S
O54 C67 1.250 1_545 S
O55 Gd1 2.412 . S
O55 C68 1.252 . S
C56 O45 1.284 . S
C56 O48 1.250 . S
C57 H26 0.929 . S
C57 C42 1.437 . S
C57 C58 1.317 . S
C58 H29 0.931 . S
C58 C34 1.431 . S
C58 C57 1.317 . S
C59 Gd0 2.828 . S
C59 O44 1.258 . S
C59 O49 1.252 . S
C59 C60 1.497 . S
C60 C59 1.497 . S
C60 C61 1.395 . S
C60 C62 1.380 . S
C61 C60 1.395 . S
C61 C64 1.398 . S
C61 H76 0.930 . S
C62 C60 1.380 . S
C62 C63 1.391 . S
C62 H77 0.930 . S
C63 C62 1.391 . S
C63 C65 1.387 . S
C64 C61 1.398 . S
C64 C65 1.380 . S
C64 H78 0.930 . S
C65 C63 1.387 . S
C65 C64 1.380 . S
C65 H79 0.930 . S
C66 O46 1.254 . S
C66 O47 1.268 1_545 S
C67 O51 1.284 . S
C67 O54 1.250 1_565 S
C68 Gd1 2.828 . S
C68 O50 1.258 . S
C68 O55 1.252 . S
C68 C69 1.497 . S
C69 C68 1.497 . S
C69 C70 1.395 . S
C69 C71 1.380 . S
C70 C69 1.395 . S
C70 C73 1.398 . S
C70 H80 0.930 . S
C71 C69 1.380 . S
C71 C72 1.391 . S
C71 H81 0.930 . S
C72 C71 1.391 . S
C72 C74 1.387 . S
C73 C70 1.398 . S
C73 C74 1.380 . S
C73 H82 0.930 . S
C74 C72 1.387 . S
C74 C73 1.380 . S
C74 H83 0.930 . S
C75 O52 1.254 1_545 S
C75 O53 1.268 . S
H76 C61 0.930 . S
H77 C62 0.930 . S
H78 C64 0.930 . S
H79 C65 0.930 . S
H80 C70 0.930 . S
H81 C71 0.930 . S
H82 C73 0.930 . S
H83 C74 0.930 . S
Gd84 N115 2.661 . S
Gd84 N121 2.601 . S
Gd84 O128 2.545 . S
Gd84 O129 2.606 . S
Gd84 O131 2.429 . S
Gd84 O132 2.545 . S
Gd84 O133 2.412 . S
Gd84 O135 2.362 . S
Gd84 O136 2.324 . S
Gd84 C143 2.828 . S
Gd85 N94 2.661 . S
Gd85 N98 2.601 . S
Gd85 O129 2.362 . S
Gd85 O130 2.324 . S
Gd85 O134 2.545 . S
Gd85 O135 2.606 . S
Gd85 O137 2.429 . S
Gd85 O138 2.545 . S
Gd85 O139 2.412 . S
Gd85 C152 2.828 . S
C86 C89 1.417 1_655 S
C86 C91 1.431 . S
C86 C92 1.412 . S
C87 C90 1.437 . S
C87 C91 1.317 . S
C87 H106 0.929 . S
C88 C89 1.426 . S
C88 C90 1.413 1_455 S
C88 N98 1.359 . S
C89 C86 1.417 1_455 S
C89 C88 1.426 . S
C89 N94 1.350 . S
C90 C87 1.437 . S
C90 C88 1.413 1_655 S
C90 C100 1.391 . S
C91 C86 1.431 . S
C91 C87 1.317 . S
C91 H102 0.930 . S
C92 C86 1.412 . S
C92 C93 1.355 1_655 S
C92 H104 0.930 . S
C93 C92 1.355 1_455 S
C93 C95 1.402 . S
C93 H105 0.930 . S
N94 Gd85 2.661 . S
N94 C89 1.350 . S
N94 C95 1.307 . S
C95 C93 1.402 . S
C95 N94 1.307 . S
C95 H96 0.930 . S
H96 C95 0.930 . S
C97 N98 1.334 . S
C97 C99 1.394 . S
C97 H101 0.930 . S
N98 Gd85 2.601 . S
N98 C88 1.359 . S
N98 C97 1.334 . S
C99 C97 1.394 . S
C99 C100 1.359 1_455 S
C99 H111 0.930 . S
C100 C90 1.391 . S
C100 C99 1.359 1_655 S
C100 H112 0.929 . S
H101 C97 0.930 . S
H102 C91 0.930 . S
H103 C120 0.930 . S
H104 C92 0.930 . S
H105 C93 0.930 . S
H106 C87 0.929 . S
H107 C125 0.930 . S
H108 C116 0.930 . S
H109 C117 0.930 . S
H110 C141 0.929 . S
H111 C99 0.930 . S
H112 C100 0.929 . S
H113 C142 0.930 . S
H114 C123 0.930 . S
N115 Gd84 2.661 . S
N115 C119 1.350 . S
N115 C120 1.307 . S
C116 H108 0.930 . S
C116 C117 1.355 . S
C116 C118 1.412 . S
C117 H109 0.930 . S
C117 C116 1.355 . S
C117 C120 1.402 . S
C118 C116 1.412 . S
C118 C119 1.417 . S
C118 C142 1.431 . S
C119 N115 1.350 . S
C119 C118 1.417 . S
C119 C122 1.426 . S
C120 H103 0.930 . S
C120 N115 1.307 . S
C120 C117 1.402 . S
N121 Gd84 2.601 . S
N121 C122 1.359 . S
N121 C125 1.334 . S
C122 C119 1.426 . S
C122 N121 1.359 . S
C122 C126 1.413 . S
C123 H114 0.930 . S
C123 C124 1.359 . S
C123 C125 1.394 . S
C124 C123 1.359 . S
C124 C126 1.391 . S
C124 H127 0.929 . S
C125 H107 0.930 . S
C125 N121 1.334 . S
C125 C123 1.394 . S
C126 C122 1.413 . S
C126 C124 1.391 . S
C126 C141 1.437 . S
H127 C124 0.929 . S
O128 Gd84 2.545 . S
O128 C143 1.258 . S
O129 Gd84 2.606 . S
O129 Gd85 2.362 . S
O129 C140 1.284 . S
O130 Gd85 2.324 . S
O130 C150 1.254 . S
O131 Gd84 2.429 . S
O131 C150 1.268 . S
O132 Gd84 2.545 . S
O132 C140 1.250 . S
O133 Gd84 2.412 . S
O133 C143 1.252 . S
O134 Gd85 2.545 . S
O134 C152 1.258 . S
O135 Gd84 2.362 . S
O135 Gd85 2.606 . S
O135 C151 1.284 . S
O136 Gd84 2.324 . S
O136 C159 1.254 . S
O137 Gd85 2.429 . S
O137 C159 1.268 . S
O138 Gd85 2.545 . S
O138 C151 1.250 . S
O139 Gd85 2.412 . S
O139 C152 1.252 . S
C140 O129 1.284 . S
C140 O132 1.250 . S
C141 H110 0.929 . S
C141 C126 1.437 . S
C141 C142 1.317 . S
C142 H113 0.930 . S
C142 C118 1.431 . S
C142 C141 1.317 . S
C143 Gd84 2.828 . S
C143 O128 1.258 . S
C143 O133 1.252 . S
C143 C144 1.497 . S
C144 C143 1.497 . S
C144 C145 1.395 . S
C144 C146 1.380 . S
C145 C144 1.395 . S
C145 C148 1.398 . S
C145 H160 0.930 . S
C146 C144 1.380 . S
C146 C147 1.391 . S
C146 H161 0.930 . S
C147 C146 1.391 . S
C147 C149 1.387 . S
C148 C145 1.398 . S
C148 C149 1.380 . S
C148 H162 0.930 . S
C149 C147 1.387 . S
C149 C148 1.380 . S
C149 H163 0.930 . S
C150 O130 1.254 . S
C150 O131 1.268 . S
C151 O135 1.284 . S
C151 O138 1.250 . S
C152 Gd85 2.828 . S
C152 O134 1.258 . S
C152 O139 1.252 . S
C152 C153 1.497 . S
C153 C152 1.497 . S
C153 C154 1.395 . S
C153 C155 1.380 . S
C154 C153 1.395 . S
C154 C157 1.398 1_455 S
C154 H164 0.930 . S
C155 C153 1.380 . S
C155 C156 1.391 . S
C155 H165 0.930 . S
C156 C155 1.391 . S
C156 C158 1.387 . S
C157 C154 1.398 1_655 S
C157 C158 1.380 1_655 S
C157 H166 0.930 . S
C158 C156 1.387 . S
C158 C157 1.380 1_455 S
C158 H167 0.930 1_455 S
C159 O136 1.254 . S
C159 O137 1.268 . S
H160 C145 0.930 . S
H161 C146 0.930 . S
H162 C148 0.930 . S
H163 C149 0.930 . S
H164 C154 0.930 . S
H165 C155 0.930 . S
H166 C157 0.930 . S
H167 C158 0.930 1_655 S
Gd168 N199 2.661 1_544 S
Gd168 N205 2.601 1_545 S
Gd168 O212 2.545 . S
Gd168 O213 2.606 . S
Gd168 O215 2.429 . S
Gd168 O216 2.545 . S
Gd168 O217 2.412 . S
Gd168 O219 2.362 . S
Gd168 O220 2.324 . S
Gd168 C227 2.828 1_545 S
Gd169 N178 2.661 . S
Gd169 N182 2.601 . S
Gd169 O213 2.362 . S
Gd169 O214 2.324 . S
Gd169 O218 2.543 1_554 S
Gd169 O219 2.606 . S
Gd169 O221 2.429 . S
Gd169 O222 2.545 1_554 S
Gd169 O223 2.412 . S
Gd169 C236 2.828 1_554 S
C170 C173 1.417 . S
C170 C175 1.431 . S
C170 C176 1.412 . S
C171 C174 1.437 . S
C171 C175 1.317 . S
C171 H190 0.929 . S
C172 C173 1.426 . S
C172 C174 1.413 . S
C172 N182 1.359 . S
C173 C170 1.417 . S
C173 C172 1.426 . S
C173 N178 1.350 . S
C174 C171 1.437 . S
C174 C172 1.413 . S
C174 C184 1.391 . S
C175 C170 1.431 . S
C175 C171 1.317 . S
C175 H186 0.930 . S
C176 C170 1.412 . S
C176 C177 1.355 . S
C176 H188 0.930 . S
C177 C176 1.355 . S
C177 C179 1.402 . S
C177 H189 0.930 1_655 S
N178 Gd169 2.661 . S
N178 C173 1.350 . S
N178 C179 1.307 . S
C179 C177 1.402 . S
C179 N178 1.307 . S
C179 H180 0.930 . S
H180 C179 0.930 . S
C181 N182 1.334 . S
C181 C183 1.394 . S
C181 H185 0.930 . S
N182 Gd169 2.601 . S
N182 C172 1.359 . S
N182 C181 1.334 . S
C183 C181 1.394 . S
C183 C184 1.359 . S
C183 H195 0.930 . S
C184 C174 1.391 . S
C184 C183 1.359 . S
C184 H196 0.929 . S
H185 C181 0.930 . S
H186 C175 0.930 . S
H187 C204 0.930 1_545 S
H188 C176 0.930 . S
H189 C177 0.930 1_455 S
H190 C171 0.929 . S
H191 C209 0.930 . S
H192 C200 0.930 . S
H193 C201 0.930 . S
H194 C225 0.929 . S
H195 C183 0.930 . S
H196 C184 0.929 . S
H197 C226 0.930 . S
H198 C207 0.930 . S
N199 Gd168 2.661 1_566 S
N199 C203 1.350 . S
N199 C204 1.307 . S
C200 H192 0.930 . S
C200 C201 1.355 . S
C200 C202 1.412 . S
C201 H193 0.930 . S
C201 C200 1.355 . S
C201 C204 1.402 . S
C202 C200 1.412 . S
C202 C203 1.417 . S
C202 C226 1.431 . S
C203 N199 1.350 . S
C203 C202 1.417 . S
C203 C206 1.426 . S
C204 H187 0.930 1_565 S
C204 N199 1.307 . S
C204 C201 1.402 . S
N205 Gd168 2.601 1_565 S
N205 C206 1.359 1_554 S
N205 C209 1.334 . S
C206 C203 1.426 . S
C206 N205 1.359 1_556 S
C206 C210 1.413 . S
C207 H198 0.930 . S
C207 C208 1.359 1_554 S
C207 C209 1.394 . S
C208 C207 1.359 1_556 S
C208 C210 1.391 . S
C208 H211 0.929 . S
C209 H191 0.930 . S
C209 N205 1.334 . S
C209 C207 1.394 . S
C210 C206 1.413 . S
C210 C208 1.391 . S
C210 C225 1.437 . S
H211 C208 0.929 . S
O212 Gd168 2.545 . S
O212 C227 1.258 1_545 S
O213 Gd168 2.606 . S
O213 Gd169 2.362 . S
O213 C224 1.284 . S
O214 Gd169 2.324 . S
O214 C234 1.254 . S
O215 Gd168 2.429 . S
O215 C234 1.268 . S
O216 Gd168 2.545 . S
O216 C224 1.250 . S
O217 Gd168 2.412 . S
O217 C227 1.252 1_545 S
O218 Gd169 2.543 1_556 S
O218 C236 1.259 . S
O219 Gd168 2.362 . S
O219 Gd169 2.606 . S
O219 C235 1.284 1_554 S
O220 Gd168 2.324 . S
O220 C243 1.254 . S
O221 Gd169 2.429 . S
O221 C243 1.268 . S
O222 Gd169 2.545 1_556 S
O222 C235 1.250 . S
O223 Gd169 2.412 . S
O223 C236 1.252 1_554 S
C224 O213 1.284 . S
C224 O216 1.250 . S
C225 H194 0.929 . S
C225 C210 1.437 . S
C225 C226 1.317 . S
C226 H197 0.930 . S
C226 C202 1.431 . S
C226 C225 1.317 . S
C227 Gd168 2.828 1_565 S
C227 O212 1.258 1_565 S
C227 O217 1.252 1_565 S
C227 C228 1.497 . S
C228 C227 1.497 . S
C228 C229 1.395 . S
C228 C230 1.380 . S
C229 C228 1.395 . S
C229 C232 1.398 . S
C229 H244 0.930 . S
C230 C228 1.380 . S
C230 C231 1.391 . S
C230 H245 0.930 . S
C231 C230 1.391 . S
C231 C233 1.387 . S
C232 C229 1.398 . S
C232 C233 1.380 . S
C232 H246 0.930 . S
C233 C231 1.387 . S
C233 C232 1.380 . S
C233 H247 0.930 . S
C234 O214 1.254 . S
C234 O215 1.268 . S
C235 O219 1.284 1_556 S
C235 O222 1.250 . S
C236 Gd169 2.828 1_556 S
C236 O218 1.259 . S
C236 O223 1.252 1_556 S
C236 C237 1.497 . S
C237 C236 1.497 . S
C237 C238 1.395 . S
C237 C239 1.380 . S
C238 C237 1.395 . S
C238 C241 1.398 . S
C238 H248 0.930 . S
C239 C237 1.380 . S
C239 C240 1.391 . S
C239 H249 0.930 . S
C240 C239 1.391 . S
C240 C242 1.387 . S
C241 C238 1.398 . S
C241 C242 1.380 . S
C241 H250 0.930 . S
C242 C240 1.387 . S
C242 C241 1.380 . S
C242 H251 0.930 . S
C243 O220 1.254 . S
C243 O221 1.268 . S
H244 C229 0.930 . S
H245 C230 0.930 . S
H246 C232 0.930 . S
H247 C233 0.930 . S
H248 C238 0.930 . S
H249 C239 0.930 . S
H250 C241 0.930 . S
H251 C242 0.930 . S
Gd252 N283 2.661 . S
Gd252 N289 2.601 . S
Gd252 O296 2.545 . S
Gd252 O297 2.606 1_455 S
Gd252 O299 2.429 . S
Gd252 O300 2.545 . S
Gd252 O301 2.412 . S
Gd252 O303 2.362 . S
Gd252 O304 2.324 . S
Gd252 C311 2.828 . S
Gd253 N262 2.661 . S
Gd253 N266 2.601 . S
Gd253 O297 2.362 . S
Gd253 O298 2.324 . S
Gd253 O302 2.545 . S
Gd253 O303 2.606 1_655 S
Gd253 O305 2.429 . S
Gd253 O306 2.545 1_655 S
Gd253 O307 2.412 . S
Gd253 C320 2.828 . S
C254 C257 1.417 . S
C254 C259 1.431 . S
C254 C260 1.412 . S
C255 C258 1.437 . S
C255 C259 1.317 . S
C255 H274 0.929 . S
C256 C257 1.426 . S
C256 C258 1.413 . S
C256 N266 1.359 . S
C257 C254 1.417 . S
C257 C256 1.426 . S
C257 N262 1.350 . S
C258 C255 1.437 . S
C258 C256 1.413 . S
C258 C268 1.391 . S
C259 C254 1.431 . S
C259 C255 1.317 . S
C259 H270 0.930 . S
C260 C254 1.412 . S
C260 C261 1.355 . S
C260 H272 0.930 . S
C261 C260 1.355 . S
C261 C263 1.402 . S
C261 H273 0.930 . S
N262 Gd253 2.661 . S
N262 C257 1.350 . S
N262 C263 1.307 . S
C263 C261 1.402 . S
C263 N262 1.307 . S
C263 H264 0.930 . S
H264 C263 0.930 . S
C265 N266 1.334 . S
C265 C267 1.394 . S
C265 H269 0.930 . S
N266 Gd253 2.601 . S
N266 C256 1.359 . S
N266 C265 1.334 . S
C267 C265 1.394 . S
C267 C268 1.359 . S
C267 H279 0.930 . S
C268 C258 1.391 . S
C268 C267 1.359 . S
C268 H280 0.929 . S
H269 C265 0.930 . S
H270 C259 0.930 . S
H271 C288 0.930 . S
H272 C260 0.930 . S
H273 C261 0.930 . S
H274 C255 0.929 . S
H275 C293 0.930 . S
H276 C284 0.930 . S
H277 C285 0.930 . S
H278 C309 0.929 . S
H279 C267 0.930 . S
H280 C268 0.929 . S
H281 C310 0.930 . S
H282 C291 0.930 . S
N283 Gd252 2.661 . S
N283 C287 1.350 . S
N283 C288 1.307 . S
C284 H276 0.930 . S
C284 C285 1.355 . S
C284 C286 1.412 . S
C285 H277 0.930 . S
C285 C284 1.355 . S
C285 C288 1.402 . S
C286 C284 1.412 . S
C286 C287 1.417 . S
C286 C310 1.431 . S
C287 N283 1.350 . S
C287 C286 1.417 . S
C287 C290 1.426 . S
C288 H271 0.930 . S
C288 N283 1.307 . S
C288 C285 1.402 . S
N289 Gd252 2.601 . S
N289 C290 1.359 . S
N289 C293 1.334 . S
C290 C287 1.426 . S
C290 N289 1.359 . S
C290 C294 1.413 . S
C291 H282 0.930 . S
C291 C292 1.359 . S
C291 C293 1.394 . S
C292 C291 1.359 . S
C292 C294 1.391 . S
C292 H295 0.929 . S
C293 H275 0.930 . S
C293 N289 1.334 . S
C293 C291 1.394 . S
C294 C290 1.413 . S
C294 C292 1.391 . S
C294 C309 1.437 . S
H295 C292 0.929 . S
O296 Gd252 2.545 . S
O296 C311 1.258 . S
O297 Gd252 2.606 1_655 S
O297 Gd253 2.362 . S
O297 C308 1.284 . S
O298 Gd253 2.324 . S
O298 C318 1.254 1_655 S
O299 Gd252 2.429 . S
O299 C318 1.268 . S
O300 Gd252 2.545 . S
O300 C308 1.250 1_455 S
O301 Gd252 2.412 . S
O301 C311 1.252 . S
O302 Gd253 2.545 . S
O302 C320 1.258 . S
O303 Gd252 2.362 . S
O303 Gd253 2.606 1_455 S
O303 C319 1.284 . S
O304 Gd252 2.324 . S
O304 C327 1.254 . S
O305 Gd253 2.429 . S
O305 C327 1.268 1_655 S
O306 Gd253 2.545 1_455 S
O306 C319 1.250 . S
O307 Gd253 2.412 . S
O307 C320 1.252 . S
C308 O297 1.284 . S
C308 O300 1.250 1_655 S
C309 H278 0.929 . S
C309 C294 1.437 . S
C309 C310 1.317 . S
C310 H281 0.930 . S
C310 C286 1.431 . S
C310 C309 1.317 . S
C311 Gd252 2.828 . S
C311 O296 1.258 . S
C311 O301 1.252 . S
C311 C312 1.497 . S
C312 C311 1.497 . S
C312 C313 1.395 . S
C312 C314 1.380 . S
C313 C312 1.395 . S
C313 C316 1.398 . S
C313 H328 0.930 . S
C314 C312 1.380 . S
C314 C315 1.391 . S
C314 H329 0.930 . S
C315 C314 1.391 . S
C315 C317 1.387 . S
C316 C313 1.398 . S
C316 C317 1.380 . S
C316 H330 0.930 . S
C317 C315 1.387 . S
C317 C316 1.380 . S
C317 H331 0.930 . S
C318 O298 1.254 1_455 S
C318 O299 1.268 . S
C319 O303 1.284 . S
C319 O306 1.250 . S
C320 Gd253 2.828 . S
C320 O302 1.258 . S
C320 O307 1.252 . S
C320 C321 1.497 . S
C321 C320 1.497 . S
C321 C322 1.395 . S
C321 C323 1.380 . S
C322 C321 1.395 . S
C322 C325 1.398 . S
C322 H332 0.930 . S
C323 C321 1.380 . S
C323 C324 1.391 . S
C323 H333 0.930 . S
C324 C323 1.391 . S
C324 C326 1.387 . S
C325 C322 1.398 . S
C325 C326 1.380 . S
C325 H334 0.930 . S
C326 C324 1.387 . S
C326 C325 1.380 . S
C326 H335 0.930 . S
C327 O304 1.254 . S
C327 O305 1.268 1_455 S
H328 C313 0.930 . S
H329 C314 0.930 . S
H330 C316 0.930 . S
H331 C317 0.930 . S
H332 C322 0.930 . S
H333 C323 0.930 . S
H334 C325 0.930 . S
H335 C326 0.930 . S
H336 C344 0.929 1_556 S
H337 C346 0.930 . S
H338 C348 0.930 . S
H339 C351 0.929 . S
H340 C354 0.930 . S
H341 C356 0.960 . S
H342 C356 0.960 . S
H343 C356 0.960 . S
C344 H336 0.929 1_554 S
C344 C345 1.377 . S
C344 C346 1.384 1_655 S
C345 C344 1.377 . S
C345 C351 1.390 . S
C346 H337 0.930 . S
C346 C344 1.384 1_455 S
C346 C347 1.372 . S
C347 C346 1.372 . S
C347 C348 1.400 1_455 S
C347 C352 1.490 . S
C348 H338 0.930 . S
C348 C347 1.400 1_655 S
C348 C351 1.386 . S
H349 C365 0.930 . S
H350 C366 0.931 . S
C351 H339 0.929 . S
C351 C345 1.390 . S
C351 C348 1.386 . S
C352 C347 1.490 . S
C352 C354 1.395 . S
C352 C355 1.403 . S
H353 C359 0.930 1_565 S
C354 H340 0.930 . S
C354 C352 1.395 . S
C354 C357 1.403 . S
C355 C352 1.403 . S
C355 C356 1.524 1_545 S
C355 C359 1.400 . S
C356 H341 0.960 . S
C356 H342 0.960 . S
C356 H343 0.960 . S
C356 C355 1.524 1_565 S
C357 C354 1.403 . S
C357 C358 1.392 . S
C357 C361 1.495 . S
C358 C357 1.392 . S
C358 C359 1.385 . S
C358 C360 1.478 . S
C359 H353 0.930 1_545 S
C359 C355 1.400 . S
C359 C358 1.385 . S
C360 C358 1.478 . S
C360 C362 1.381 . S
C360 C366 1.383 . S
C361 C357 1.495 . S
C361 H367 0.959 . S
C361 H368 0.961 . S
C361 H369 0.960 . S
C362 C360 1.381 . S
C362 C363 1.394 . S
C362 H370 0.930 . S
C363 C362 1.394 . S
C363 C364 1.383 . S
C363 H371 0.929 . S
C364 C363 1.383 . S
C364 C365 1.377 . S
C365 H349 0.930 . S
C365 C364 1.377 . S
C365 C366 1.379 . S
C366 H350 0.931 . S
C366 C360 1.383 . S
C366 C365 1.379 . S
H367 C361 0.959 . S
H368 C361 0.961 . S
H369 C361 0.960 . S
H370 C362 0.930 . S
H371 C363 0.929 . S
H372 C380 0.929 . S
H373 C382 0.930 1_655 S
H374 C384 0.930 . S
H375 C387 0.929 . S
H376 C390 0.930 . S
H377 C392 0.960 . S
H378 C392 0.960 . S
H379 C392 0.960 . S
C380 H372 0.929 . S
C380 C381 1.377 1_655 S
C380 C382 1.384 1_655 S
C381 C380 1.377 1_455 S
C381 C387 1.390 . S
C382 H373 0.930 1_455 S
C382 C380 1.384 1_455 S
C382 C383 1.372 . S
C383 C382 1.372 . S
C383 C384 1.400 . S
C383 C388 1.490 1_565 S
C384 H374 0.930 . S
C384 C383 1.400 . S
C384 C387 1.386 . S
H385 C401 0.930 . S
H386 C402 0.931 . S
C387 H375 0.929 . S
C387 C381 1.390 . S
C387 C384 1.386 . S
C388 C383 1.490 1_545 S
C388 C390 1.395 . S
C388 C391 1.403 . S
H389 C395 0.930 . S
C390 H376 0.930 . S
C390 C388 1.395 . S
C390 C393 1.403 . S
C391 C388 1.403 . S
C391 C392 1.524 1_545 S
C391 C395 1.400 . S
C392 H377 0.960 . S
C392 H378 0.960 . S
C392 H379 0.960 . S
C392 C391 1.524 1_565 S
C393 C390 1.403 . S
C393 C394 1.392 . S
C393 C397 1.495 . S
C394 C393 1.392 . S
C394 C395 1.385 . S
C394 C396 1.478 . S
C395 H389 0.930 . S
C395 C391 1.400 . S
C395 C394 1.385 . S
C396 C394 1.478 . S
C396 C398 1.381 . S
C396 C402 1.383 . S
C397 C393 1.495 . S
C397 H403 0.959 . S
C397 H404 0.961 . S
C397 H405 0.960 . S
C398 C396 1.381 . S
C398 C399 1.394 . S
C398 H406 0.930 . S
C399 C398 1.394 . S
C399 C400 1.383 . S
C399 H407 0.929 . S
C400 C399 1.383 . S
C400 C401 1.377 . S
C401 H385 0.930 . S
C401 C400 1.377 . S
C401 C402 1.379 . S
C402 H386 0.931 . S
C402 C396 1.383 . S
C402 C401 1.379 . S
H403 C397 0.959 . S
H404 C397 0.961 . S
H405 C397 0.960 . S
H406 C398 0.930 . S
H407 C399 0.929 . S
H408 C416 0.929 . S
H409 C418 0.930 . S
H410 C420 0.930 . S
H411 C423 0.929 . S
H412 C426 0.930 . S
H413 C428 0.960 . S
H414 C428 0.960 . S
H415 C428 0.960 . S
C416 H408 0.929 . S
C416 C417 1.377 . S
C416 C418 1.384 . S
C417 C416 1.377 . S
C417 C423 1.390 . S
C418 H409 0.930 . S
C418 C416 1.384 . S
C418 C419 1.372 . S
C419 C418 1.372 . S
C419 C420 1.400 . S
C419 C424 1.490 . S
C420 H410 0.930 . S
C420 C419 1.400 . S
C420 C423 1.386 . S
H421 C437 0.930 . S
H422 C438 0.931 . S
C423 H411 0.929 . S
C423 C417 1.390 . S
C423 C420 1.386 . S
C424 C419 1.490 . S
C424 C426 1.395 . S
C424 C427 1.403 . S
H425 C431 0.930 . S
C426 H412 0.930 . S
C426 C424 1.395 . S
C426 C429 1.403 . S
C427 C424 1.403 . S
C427 C428 1.524 . S
C427 C431 1.400 . S
C428 H413 0.960 . S
C428 H414 0.960 . S
C428 H415 0.960 . S
C428 C427 1.524 . S
C429 C426 1.403 . S
C429 C430 1.392 . S
C429 C433 1.495 . S
C430 C429 1.392 . S
C430 C431 1.385 . S
C430 C432 1.478 . S
C431 H425 0.930 . S
C431 C427 1.400 . S
C431 C430 1.385 . S
C432 C430 1.478 . S
C432 C434 1.381 . S
C432 C438 1.383 1_545 S
C433 C429 1.495 . S
C433 H439 0.959 . S
C433 H440 0.961 . S
C433 H441 0.960 . S
C434 C432 1.381 . S
C434 C435 1.394 . S
C434 H442 0.930 . S
C435 C434 1.394 . S
C435 C436 1.383 . S
C435 H443 0.929 . S
C436 C435 1.383 . S
C436 C437 1.377 1_545 S
C437 H421 0.930 . S
C437 C436 1.377 1_565 S
C437 C438 1.379 . S
C438 H422 0.931 . S
C438 C432 1.383 1_565 S
C438 C437 1.379 . S
H439 C433 0.959 . S
H440 C433 0.961 . S
H441 C433 0.960 . S
H442 C434 0.930 . S
H443 C435 0.929 . S
H444 C452 0.929 . S
H445 C454 0.930 . S
H446 C456 0.930 . S
H447 C459 0.929 . S
H448 C462 0.930 . S
H449 C464 0.960 . S
H450 C464 0.960 . S
H451 C464 0.960 . S
C452 H444 0.929 . S
C452 C453 1.377 . S
C452 C454 1.384 . S
C453 C452 1.377 . S
C453 C459 1.390 . S
C454 H445 0.930 . S
C454 C452 1.384 . S
C454 C455 1.372 . S
C455 C454 1.372 . S
C455 C456 1.400 . S
C455 C460 1.490 . S
C456 H446 0.930 . S
C456 C455 1.400 . S
C456 C459 1.386 . S
H457 C473 0.930 . S
H458 C474 0.931 . S
C459 H447 0.929 . S
C459 C453 1.390 . S
C459 C456 1.386 . S
C460 C455 1.490 . S
C460 C462 1.395 . S
C460 C463 1.403 . S
H461 C467 0.930 . S
C462 H448 0.930 . S
C462 C460 1.395 . S
C462 C465 1.403 . S
C463 C460 1.403 . S
C463 C464 1.524 . S
C463 C467 1.400 . S
C464 H449 0.960 . S
C464 H450 0.960 . S
C464 H451 0.960 . S
C464 C463 1.524 . S
C465 C462 1.403 . S
C465 C466 1.392 . S
C465 C469 1.495 . S
C466 C465 1.392 . S
C466 C467 1.385 . S
C466 C468 1.478 . S
C467 H461 0.930 . S
C467 C463 1.400 . S
C467 C466 1.385 . S
C468 C466 1.478 . S
C468 C470 1.381 . S
C468 C474 1.383 . S
C469 C465 1.495 . S
C469 H475 0.959 1_455 S
C469 H476 0.961 1_455 S
C469 H477 0.960 1_455 S
C470 C468 1.381 . S
C470 C471 1.403 . S
C470 H478 0.930 . S
C471 C470 1.403 . S
C471 C472 1.386 . S
C471 H479 0.918 1_455 S
C472 C471 1.386 . S
C472 C473 1.377 . S
C473 H457 0.930 . S
C473 C472 1.377 . S
C473 C474 1.379 . S
C474 H458 0.931 . S
C474 C468 1.383 . S
C474 C473 1.379 . S
H475 C469 0.959 1_655 S
H476 C469 0.961 1_655 S
H477 C469 0.960 1_655 S
H478 C470 0.930 . S
H479 C471 0.918 1_655 S
H480 C488 0.929 . S
H481 C490 0.930 . S
H482 C492 0.930 . S
H483 C495 0.929 . S
H484 C498 0.930 . S
H485 C500 0.960 . S
H486 C500 0.960 . S
H487 C500 0.960 . S
C488 H480 0.929 . S
C488 C489 1.377 . S
C488 C490 1.384 . S
C489 C488 1.377 . S
C489 C495 1.390 . S
C490 H481 0.930 . S
C490 C488 1.384 . S
C490 C491 1.372 . S
C491 C490 1.372 . S
C491 C492 1.400 . S
C491 C496 1.490 . S
C492 H482 0.930 . S
C492 C491 1.400 . S
C492 C495 1.386 . S
H493 C509 0.930 . S
H494 C510 0.931 . S
C495 H483 0.929 . S
C495 C489 1.390 . S
C495 C492 1.386 . S
C496 C491 1.490 . S
C496 C498 1.395 . S
C496 C499 1.403 . S
H497 C503 0.930 . S
C498 H484 0.930 . S
C498 C496 1.395 . S
C498 C501 1.403 . S
C499 C496 1.403 . S
C499 C500 1.524 . S
C499 C503 1.400 . S
C500 H485 0.960 . S
C500 H486 0.960 . S
C500 H487 0.960 . S
C500 C499 1.524 . S
C501 C498 1.403 . S
C501 C502 1.392 . S
C501 C505 1.495 . S
C502 C501 1.392 . S
C502 C503 1.385 . S
C502 C504 1.478 . S
C503 H497 0.930 . S
C503 C499 1.400 . S
C503 C502 1.385 . S
C504 C502 1.478 . S
C504 C506 1.381 . S
C504 C510 1.383 . S
C505 C501 1.495 . S
C505 H511 0.959 . S
C505 H512 0.961 . S
C505 H513 0.960 . S
C506 C504 1.381 . S
C506 C507 1.394 . S
C506 H514 0.930 . S
C507 C506 1.394 . S
C507 C508 1.383 . S
C507 H515 0.929 . S
C508 C507 1.383 . S
C508 C509 1.377 . S
C509 H493 0.930 . S
C509 C508 1.377 . S
C509 C510 1.379 . S
C510 H494 0.931 . S
C510 C504 1.383 . S
C510 C509 1.379 . S
H511 C505 0.959 . S
H512 C505 0.961 . S
H513 C505 0.960 . S
H514 C506 0.930 . S
H515 C507 0.929 . S
H516 C524 0.929 . S
H517 C526 0.930 . S
H518 C528 0.930 . S
H519 C531 0.929 . S
H520 C534 0.930 . S
H521 C536 0.960 . S
H522 C536 0.960 . S
H523 C536 0.960 . S
C524 H516 0.929 . S
C524 C525 1.377 . S
C524 C526 1.384 . S
C525 C524 1.377 . S
C525 C531 1.390 . S
C526 H517 0.930 . S
C526 C524 1.384 . S
C526 C527 1.372 . S
C527 C526 1.372 . S
C527 C528 1.400 . S
C527 C532 1.490 . S
C528 H518 0.930 . S
C528 C527 1.400 . S
C528 C531 1.386 . S
H529 C545 0.930 . S
H530 C546 0.931 . S
C531 H519 0.929 . S
C531 C525 1.390 . S
C531 C528 1.386 . S
C532 C527 1.490 . S
C532 C534 1.395 . S
C532 C535 1.403 . S
H533 C539 0.930 . S
C534 H520 0.930 . S
C534 C532 1.395 . S
C534 C537 1.403 . S
C535 C532 1.403 . S
C535 C536 1.524 . S
C535 C539 1.400 . S
C536 H521 0.960 . S
C536 H522 0.960 . S
C536 H523 0.960 . S
C536 C535 1.524 . S
C537 C534 1.403 . S
C537 C538 1.392 . S
C537 C541 1.495 . S
C538 C537 1.392 . S
C538 C539 1.385 . S
C538 C540 1.478 1_455 S
C539 H533 0.930 . S
C539 C535 1.400 . S
C539 C538 1.385 . S
C540 C538 1.478 1_655 S
C540 C542 1.381 1_655 S
C540 C546 1.383 . S
C541 C537 1.495 . S
C541 H547 0.959 . S
C541 H548 0.961 1_455 S
C541 H549 0.960 . S
C542 C540 1.381 1_455 S
C542 C543 1.394 1_455 S
C542 H550 0.930 . S
C543 C542 1.394 1_655 S
C543 C544 1.383 . S
C543 H551 0.929 1_655 S
C544 C543 1.383 . S
C544 C545 1.377 . S
C545 H529 0.930 . S
C545 C544 1.377 . S
C545 C546 1.379 . S
C546 H530 0.931 . S
C546 C540 1.383 . S
C546 C545 1.379 . S
H547 C541 0.959 . S
H548 C541 0.961 1_655 S
H549 C541 0.960 . S
H550 C542 0.930 . S
H551 C543 0.929 1_455 S
H552 C560 0.929 . S
H553 C562 0.930 . S
H554 C564 0.930 . S
H555 C567 0.929 . S
H556 C570 0.930 . S
H557 C572 0.960 . S
H558 C572 0.960 . S
H559 C572 0.960 . S
C560 H552 0.929 . S
C560 C561 1.377 . S
C560 C562 1.384 . S
C561 C560 1.377 . S
C561 C567 1.390 . S
C562 H553 0.930 . S
C562 C560 1.384 . S
C562 C563 1.372 . S
C563 C562 1.372 . S
C563 C564 1.400 . S
C563 C568 1.490 . S
C564 H554 0.930 . S
C564 C563 1.400 . S
C564 C567 1.386 . S
H565 C581 0.930 . S
H566 C582 0.931 . S
C567 H555 0.929 . S
C567 C561 1.390 . S
C567 C564 1.386 . S
C568 C563 1.490 . S
C568 C570 1.395 . S
C568 C571 1.403 . S
H569 C575 0.930 . S
C570 H556 0.930 . S
C570 C568 1.395 . S
C570 C573 1.403 . S
C571 C568 1.403 . S
C571 C572 1.524 . S
C571 C575 1.400 . S
C572 H557 0.960 . S
C572 H558 0.960 . S
C572 H559 0.960 . S
C572 C571 1.524 . S
C573 C570 1.403 . S
C573 C574 1.392 . S
C573 C577 1.495 . S
C574 C573 1.392 . S
C574 C575 1.385 . S
C574 C576 1.478 . S
C575 H569 0.930 . S
C575 C571 1.400 . S
C575 C574 1.385 . S
C576 C574 1.478 . S
C576 C578 1.381 . S
C576 C582 1.383 . S
C577 C573 1.495 . S
C577 H583 0.959 1_565 S
C577 H584 0.961 1_565 S
C577 H585 0.960 . S
C578 C576 1.381 . S
C578 C579 1.394 . S
C578 H586 0.930 . S
C579 C578 1.394 . S
C579 C580 1.383 . S
C579 H587 0.929 . S
C580 C579 1.383 . S
C580 C581 1.377 . S
C581 H565 0.930 . S
C581 C580 1.377 . S
C581 C582 1.379 . S
C582 H566 0.931 . S
C582 C576 1.383 . S
C582 C581 1.379 . S
H583 C577 0.959 1_545 S
H584 C577 0.961 1_545 S
H585 C577 0.960 . S
H586 C578 0.930 . S
H587 C579 0.929 . S
H588 C596 0.929 . S
H589 C598 0.930 . S
H590 C600 0.930 . S
H591 C603 0.929 . S
H592 C606 0.930 . S
H593 C608 0.960 . S
H594 C608 0.960 . S
H595 C608 0.960 . S
C596 H588 0.929 . S
C596 C597 1.377 . S
C596 C598 1.384 . S
C597 C596 1.377 . S
C597 C603 1.390 . S
C598 H589 0.930 . S
C598 C596 1.384 . S
C598 C599 1.372 . S
C599 C598 1.372 . S
C599 C600 1.400 . S
C599 C604 1.490 . S
C600 H590 0.930 . S
C600 C599 1.400 . S
C600 C603 1.386 . S
H601 C617 0.930 . S
H602 C618 0.931 . S
C603 H591 0.929 . S
C603 C597 1.390 . S
C603 C600 1.386 . S
C604 C599 1.490 . S
C604 C606 1.395 . S
C604 C607 1.403 . S
H605 C611 0.930 . S
C606 H592 0.930 . S
C606 C604 1.395 . S
C606 C609 1.403 . S
C607 C604 1.403 . S
C607 C608 1.524 . S
C607 C611 1.400 . S
C608 H593 0.960 . S
C608 H594 0.960 . S
C608 H595 0.960 . S
C608 C607 1.524 . S
C609 C606 1.403 . S
C609 C610 1.392 . S
C609 C613 1.495 . S
C610 C609 1.392 . S
C610 C611 1.385 . S
C610 C612 1.478 . S
C611 H605 0.930 . S
C611 C607 1.400 . S
C611 C610 1.385 . S
C612 C610 1.478 . S
C612 C614 1.381 1_556 S
C612 C618 1.383 . S
C613 C609 1.495 . S
C613 H619 0.959 . S
C613 H620 0.961 . S
C613 H621 0.960 . S
C614 C612 1.381 1_554 S
C614 C615 1.394 . S
C614 H622 0.930 . S
C615 C614 1.394 . S
C615 C616 1.383 . S
C615 H623 0.929 . S
C616 C615 1.383 . S
C616 C617 1.377 . S
C617 H601 0.930 . S
C617 C616 1.377 . S
C617 C618 1.379 1_554 S
C618 H602 0.931 . S
C618 C612 1.383 . S
C618 C617 1.379 1_556 S
H619 C613 0.959 . S
H620 C613 0.961 . S
H621 C613 0.960 . S
H622 C614 0.930 . S
H623 C615 0.929 . S
H624 C632 0.929 . S
H625 C634 0.930 . S
H626 C636 0.930 . S
H627 C639 0.940 1_545 S
H628 C642 0.930 1_545 S
H629 C644 0.960 . S
H630 C644 0.960 . S
H631 C644 0.960 . S
C632 H624 0.929 . S
C632 C633 1.377 . S
C632 C634 1.384 1_545 S
C633 C632 1.377 . S
C633 C639 1.378 1_545 S
C634 H625 0.930 . S
C634 C632 1.384 1_565 S
C634 C635 1.372 . S
C635 C634 1.372 . S
C635 C636 1.400 . S
C635 C640 1.490 . S
C636 H626 0.930 . S
C636 C635 1.400 . S
C636 C639 1.388 . S
H637 C653 0.930 1_455 S
H638 C654 0.931 . S
C639 H627 0.940 1_565 S
C639 C633 1.378 1_565 S
C639 C636 1.388 . S
C640 C635 1.490 . S
C640 C642 1.395 . S
C640 C643 1.403 . S
H641 C647 0.930 . S
C642 H628 0.930 1_565 S
C642 C640 1.395 . S
C642 C645 1.403 . S
C643 C640 1.403 . S
C643 C644 1.524 . S
C643 C647 1.400 . S
C644 H629 0.960 . S
C644 H630 0.960 . S
C644 H631 0.960 . S
C644 C643 1.524 . S
C645 C642 1.403 . S
C645 C646 1.392 . S
C645 C649 1.495 . S
C646 C645 1.392 . S
C646 C647 1.385 . S
C646 C648 1.478 . S
C647 H641 0.930 . S
C647 C643 1.400 . S
C647 C646 1.385 . S
C648 C646 1.478 . S
C648 C650 1.381 . S
C648 C654 1.383 . S
C649 C645 1.495 . S
C649 H655 0.959 1_565 S
C649 H656 0.961 . S
C649 H657 0.960 . S
C650 C648 1.381 . S
C650 C651 1.394 . S
C650 H658 0.930 . S
C651 C650 1.394 . S
C651 C652 1.383 . S
C651 H659 0.929 . S
C652 C651 1.383 . S
C652 C653 1.377 . S
C653 H637 0.930 1_655 S
C653 C652 1.377 . S
C653 C654 1.379 . S
C654 H638 0.931 . S
C654 C648 1.383 . S
C654 C653 1.379 . S
H655 C649 0.959 1_545 S
H656 C649 0.961 . S
H657 C649 0.960 . S
H658 C650 0.930 . S
H659 C651 0.929 . S
H660 C668 0.929 . S
H661 C670 0.930 . S
H662 C672 0.930 . S
H663 C675 0.929 . S
H664 C678 0.930 . S
H665 C680 0.960 . S
H666 C680 0.960 . S
H667 C680 0.960 . S
C668 H660 0.929 . S
C668 C669 1.377 . S
C668 C670 1.384 . S
C669 C668 1.377 . S
C669 C675 1.390 . S
C670 H661 0.930 . S
C670 C668 1.384 . S
C670 C671 1.372 . S
C671 C670 1.372 . S
C671 C672 1.400 . S
C671 C676 1.490 . S
C672 H662 0.930 . S
C672 C671 1.400 . S
C672 C675 1.386 . S
H673 C689 0.930 . S
H674 C690 0.931 . S
C675 H663 0.929 . S
C675 C669 1.390 . S
C675 C672 1.386 . S
C676 C671 1.490 . S
C676 C678 1.395 . S
C676 C679 1.403 . S
H677 C683 0.930 . S
C678 H664 0.930 . S
C678 C676 1.395 . S
C678 C681 1.403 . S
C679 C676 1.403 . S
C679 C680 1.524 . S
C679 C683 1.400 . S
C680 H665 0.960 . S
C680 H666 0.960 . S
C680 H667 0.960 . S
C680 C679 1.524 . S
C681 C678 1.403 . S
C681 C682 1.392 . S
C681 C685 1.495 . S
C682 C681 1.392 . S
C682 C683 1.385 . S
C682 C684 1.478 . S
C683 H677 0.930 . S
C683 C679 1.400 . S
C683 C682 1.385 . S
C684 C682 1.478 . S
C684 C686 1.381 . S
C684 C690 1.383 . S
C685 C681 1.495 . S
C685 H691 0.959 . S
C685 H692 0.961 . S
C685 H693 0.960 . S
C686 C684 1.381 . S
C686 C687 1.394 . S
C686 H694 0.930 . S
C687 C686 1.394 . S
C687 C688 1.383 . S
C687 H695 0.929 . S
C688 C687 1.383 . S
C688 C689 1.377 . S
C689 H673 0.930 . S
C689 C688 1.377 . S
C689 C690 1.379 . S
C690 H674 0.931 . S
C690 C684 1.383 . S
C690 C689 1.379 . S
H691 C685 0.959 . S
H692 C685 0.961 . S
H693 C685 0.960 . S
H694 C686 0.930 . S
H695 C687 0.929 . S
H696 C704 0.929 . S
H697 C706 0.930 . S
H698 C708 0.930 . S
H699 C711 0.929 . S
H700 C714 0.930 . S
H701 C716 0.960 . S
H702 C716 0.960 . S
H703 C716 0.960 . S
C704 H696 0.929 . S
C704 C705 1.377 . S
C704 C706 1.384 . S
C705 C704 1.377 . S
C705 C711 1.390 . S
C706 H697 0.930 . S
C706 C704 1.384 . S
C706 C707 1.372 . S
C707 C706 1.372 . S
C707 C708 1.400 . S
C707 C712 1.490 . S
C708 H698 0.930 . S
C708 C707 1.400 . S
C708 C711 1.386 . S
H709 C725 0.930 . S
H710 C726 0.931 . S
C711 H699 0.929 . S
C711 C705 1.390 . S
C711 C708 1.386 . S
C712 C707 1.490 . S
C712 C714 1.395 . S
C712 C715 1.403 . S
H713 C719 0.930 . S
C714 H700 0.930 . S
C714 C712 1.395 . S
C714 C717 1.403 . S
C715 C712 1.403 . S
C715 C716 1.524 . S
C715 C719 1.400 . S
C716 H701 0.960 . S
C716 H702 0.960 . S
C716 H703 0.960 . S
C716 C715 1.524 . S
C717 C714 1.403 . S
C717 C718 1.392 . S
C717 C721 1.495 . S
C718 C717 1.392 . S
C718 C719 1.385 . S
C718 C720 1.478 . S
C719 H713 0.930 . S
C719 C715 1.400 . S
C719 C718 1.385 . S
C720 C718 1.478 . S
C720 C722 1.369 1_556 S
C720 C726 1.383 . S
C721 C717 1.495 . S
C721 H727 0.959 . S
C721 H728 0.961 . S
C721 H729 0.960 . S
C722 C720 1.369 1_554 S
C722 C723 1.409 . S
C722 H730 0.928 . S
C723 C722 1.409 . S
C723 C724 1.383 . S
C723 H731 0.929 . S
C724 C723 1.383 . S
C724 C725 1.377 1_554 S
C725 H709 0.930 . S
C725 C724 1.377 1_556 S
C725 C726 1.379 . S
C726 H710 0.931 . S
C726 C720 1.383 . S
C726 C725 1.379 . S
H727 C721 0.959 . S
H728 C721 0.961 . S
H729 C721 0.960 . S
H730 C722 0.928 . S
H731 C723 0.929 . S
H732 C740 0.929 . S
H733 C742 0.930 . S
H734 C744 0.930 . S
H735 C747 0.929 . S
H736 C750 0.930 1_455 S
H737 C752 0.960 . S
H738 C752 0.960 . S
H739 C752 0.960 . S
C740 H732 0.929 . S
C740 C741 1.377 . S
C740 C742 1.384 . S
C741 C740 1.377 . S
C741 C747 1.390 . S
C742 H733 0.930 . S
C742 C740 1.384 . S
C742 C743 1.372 . S
C743 C742 1.372 . S
C743 C744 1.400 . S
C743 C748 1.490 . S
C744 H734 0.930 . S
C744 C743 1.400 . S
C744 C747 1.386 . S
H745 C761 0.930 . S
H746 C762 0.931 1_655 S
C747 H735 0.929 . S
C747 C741 1.390 . S
C747 C744 1.386 . S
C748 C743 1.490 . S
C748 C750 1.395 . S
C748 C751 1.403 . S
H749 C755 0.930 . S
C750 H736 0.930 1_655 S
C750 C748 1.395 . S
C750 C753 1.403 1_655 S
C751 C748 1.403 . S
C751 C752 1.524 . S
C751 C755 1.400 . S
C752 H737 0.960 . S
C752 H738 0.960 . S
C752 H739 0.960 . S
C752 C751 1.524 . S
C753 C750 1.403 1_455 S
C753 C754 1.392 1_455 S
C753 C757 1.495 . S
C754 C753 1.392 1_655 S
C754 C755 1.385 . S
C754 C756 1.478 1_655 S
C755 H749 0.930 . S
C755 C751 1.400 . S
C755 C754 1.385 . S
C756 C754 1.478 1_455 S
C756 C758 1.381 . S
C756 C762 1.383 . S
C757 C753 1.495 . S
C757 H763 0.959 . S
C757 H764 0.961 . S
C757 H765 0.960 . S
C758 C756 1.381 . S
C758 C759 1.394 . S
C758 H766 0.930 . S
C759 C758 1.394 . S
C759 C760 1.383 . S
C759 H767 0.929 . S
C760 C759 1.383 . S
C760 C761 1.377 . S
C761 H745 0.930 . S
C761 C760 1.377 . S
C761 C762 1.379 . S
C762 H746 0.931 1_455 S
C762 C756 1.383 . S
C762 C761 1.379 . S
H763 C757 0.959 . S
H764 C757 0.961 . S
H765 C757 0.960 . S
H766 C758 0.930 . S
H767 C759 0.929 . S
C345 C234 0.987 . S
C364 C75 0.976 . S
C381 C318 0.498 . S
C400 C159 0.510 . S
C417 C243 1.151 . S
C436 C66 1.145 . S
C453 C150 1.221 . S
C472 C327 1.254 . S
C489 C151 1.932 . S
C508 C56 2.059 . S
C525 C140 2.238 . S
C544 C240 2.233 . S
C561 C324 1.049 . S
C580 C231 0.954 . S
C597 C315 0.723 . S
C616 C67 0.747 . S
C633 C235 2.070 . S
C652 C308 1.911 . S
C669 C63 2.256 . S
C688 C319 2.218 . S
C705 C147 1.049 . S
C724 C72 0.823 . S
C741 C224 0.708 . S
C760 C156 0.785 . S
