# Generated by pormake.
# Topology dia-a, (4)-cn, num edge types: 1
# Building blocks:
#     Node 0, Type 0, BuildingBlock: NAHDIM_clean_sbu_0, # of connection points: 4
#     Node 1, Type 0, BuildingBlock: NAHDIM_clean_sbu_0, # of connection points: 4
#     Node 2, Type 0, BuildingBlock: NAHDIM_clean_sbu_0, # of connection points: 4
#     Node 3, Type 0, BuildingBlock: NAHDIM_clean_sbu_0, # of connection points: 4
#     Node 4, Type 0, BuildingBlock: NAHDIM_clean_sbu_0, # of connection points: 4
#     Node 5, Type 0, BuildingBlock: NAHDIM_clean_sbu_0, # of connection points: 4
#     Node 6, Type 0, BuildingBlock: NAHDIM_clean_sbu_0, # of connection points: 4
#     Node 7, Type 0, BuildingBlock: NAHDIM_clean_sbu_0, # of connection points: 4
#     Node 8, Type 0, BuildingBlock: NAHDIM_clean_sbu_0, # of connection points: 4
#     Node 9, Type 0, BuildingBlock: NAHDIM_clean_sbu_0, # of connection points: 4
#     Node 10, Type 0, BuildingBlock: NAHDIM_clean_sbu_0, # of connection points: 4
#     Node 11, Type 0, BuildingBlock: NAHDIM_clean_sbu_0, # of connection points: 4
#     Node 12, Type 0, BuildingBlock: NAHDIM_clean_sbu_0, # of connection points: 4
#     Node 13, Type 0, BuildingBlock: NAHDIM_clean_sbu_0, # of connection points: 4
#     Node 14, Type 0, BuildingBlock: NAHDIM_clean_sbu_0, # of connection points: 4
#     Node 15, Type 0, BuildingBlock: NAHDIM_clean_sbu_0, # of connection points: 4
#     Node 16, Type 0, BuildingBlock: NAHDIM_clean_sbu_0, # of connection points: 4
#     Node 17, Type 0, BuildingBlock: NAHDIM_clean_sbu_0, # of connection points: 4
#     Node 18, Type 0, BuildingBlock: NAHDIM_clean_sbu_0, # of connection points: 4
#     Node 19, Type 0, BuildingBlock: NAHDIM_clean_sbu_0, # of connection points: 4
#     Node 20, Type 0, BuildingBlock: NAHDIM_clean_sbu_0, # of connection points: 4
#     Node 21, Type 0, BuildingBlock: NAHDIM_clean_sbu_0, # of connection points: 4
#     Node 22, Type 0, BuildingBlock: NAHDIM_clean_sbu_0, # of connection points: 4
#     Node 23, Type 0, BuildingBlock: NAHDIM_clean_sbu_0, # of connection points: 4
#     Node 24, Type 0, BuildingBlock: NAHDIM_clean_sbu_0, # of connection points: 4
#     Node 25, Type 0, BuildingBlock: NAHDIM_clean_sbu_0, # of connection points: 4
#     Node 26, Type 0, BuildingBlock: NAHDIM_clean_sbu_0, # of connection points: 4
#     Node 27, Type 0, BuildingBlock: NAHDIM_clean_sbu_0, # of connection points: 4
#     Node 28, Type 0, BuildingBlock: NAHDIM_clean_sbu_0, # of connection points: 4
#     Node 29, Type 0, BuildingBlock: NAHDIM_clean_sbu_0, # of connection points: 4
#     Node 30, Type 0, BuildingBlock: NAHDIM_clean_sbu_0, # of connection points: 4
#     Node 31, Type 0, BuildingBlock: NAHDIM_clean_sbu_0, # of connection points: 4
#     Edge 32, Type (0, 0), BuildingBlock: XUDNAN_clean_linker_2, # of connection points: 2
#     Edge 33, Type (0, 0), BuildingBlock: XUDNAN_clean_linker_2, # of connection points: 2
#     Edge 34, Type (0, 0), BuildingBlock: XUDNAN_clean_linker_2, # of connection points: 2
#     Edge 35, Type (0, 0), BuildingBlock: XUDNAN_clean_linker_2, # of connection points: 2
#     Edge 36, Type (0, 0), BuildingBlock: XUDNAN_clean_linker_2, # of connection points: 2
#     Edge 37, Type (0, 0), BuildingBlock: XUDNAN_clean_linker_2, # of connection points: 2
#     Edge 38, Type (0, 0), BuildingBlock: XUDNAN_clean_linker_2, # of connection points: 2
#     Edge 39, Type (0, 0), BuildingBlock: XUDNAN_clean_linker_2, # of connection points: 2
#     Edge 40, Type (0, 0), BuildingBlock: XUDNAN_clean_linker_2, # of connection points: 2
#     Edge 41, Type (0, 0), BuildingBlock: XUDNAN_clean_linker_2, # of connection points: 2
#     Edge 42, Type (0, 0), BuildingBlock: XUDNAN_clean_linker_2, # of connection points: 2
#     Edge 43, Type (0, 0), BuildingBlock: XUDNAN_clean_linker_2, # of connection points: 2
#     Edge 44, Type (0, 0), BuildingBlock: XUDNAN_clean_linker_2, # of connection points: 2
#     Edge 45, Type (0, 0), BuildingBlock: XUDNAN_clean_linker_2, # of connection points: 2
#     Edge 46, Type (0, 0), BuildingBlock: XUDNAN_clean_linker_2, # of connection points: 2
#     Edge 47, Type (0, 0), BuildingBlock: XUDNAN_clean_linker_2, # of connection points: 2
#     Edge 48, Type (0, 0), BuildingBlock: XUDNAN_clean_linker_2, # of connection points: 2
#     Edge 49, Type (0, 0), BuildingBlock: XUDNAN_clean_linker_2, # of connection points: 2
#     Edge 50, Type (0, 0), BuildingBlock: XUDNAN_clean_linker_2, # of connection points: 2
#     Edge 51, Type (0, 0), BuildingBlock: XUDNAN_clean_linker_2, # of connection points: 2
#     Edge 52, Type (0, 0), BuildingBlock: XUDNAN_clean_linker_2, # of connection points: 2
#     Edge 53, Type (0, 0), BuildingBlock: XUDNAN_clean_linker_2, # of connection points: 2
#     Edge 54, Type (0, 0), BuildingBlock: XUDNAN_clean_linker_2, # of connection points: 2
#     Edge 55, Type (0, 0), BuildingBlock: XUDNAN_clean_linker_2, # of connection points: 2
#     Edge 56, Type (0, 0), BuildingBlock: XUDNAN_clean_linker_2, # of connection points: 2
#     Edge 57, Type (0, 0), BuildingBlock: XUDNAN_clean_linker_2, # of connection points: 2
#     Edge 58, Type (0, 0), BuildingBlock: XUDNAN_clean_linker_2, # of connection points: 2
#     Edge 59, Type (0, 0), BuildingBlock: XUDNAN_clean_linker_2, # of connection points: 2
#     Edge 60, Type (0, 0), BuildingBlock: XUDNAN_clean_linker_2, # of connection points: 2
#     Edge 61, Type (0, 0), BuildingBlock: XUDNAN_clean_linker_2, # of connection points: 2
#     Edge 62, Type (0, 0), BuildingBlock: XUDNAN_clean_linker_2, # of connection points: 2
#     Edge 63, Type (0, 0), BuildingBlock: XUDNAN_clean_linker_2, # of connection points: 2
#     Edge 64, Type (0, 0), BuildingBlock: XUDNAN_clean_linker_2, # of connection points: 2
#     Edge 65, Type (0, 0), BuildingBlock: XUDNAN_clean_linker_2, # of connection points: 2
#     Edge 66, Type (0, 0), BuildingBlock: XUDNAN_clean_linker_2, # of connection points: 2
#     Edge 67, Type (0, 0), BuildingBlock: XUDNAN_clean_linker_2, # of connection points: 2
#     Edge 68, Type (0, 0), BuildingBlock: XUDNAN_clean_linker_2, # of connection points: 2
#     Edge 69, Type (0, 0), BuildingBlock: XUDNAN_clean_linker_2, # of connection points: 2
#     Edge 70, Type (0, 0), BuildingBlock: XUDNAN_clean_linker_2, # of connection points: 2
#     Edge 71, Type (0, 0), BuildingBlock: XUDNAN_clean_linker_2, # of connection points: 2
#     Edge 72, Type (0, 0), BuildingBlock: XUDNAN_clean_linker_2, # of connection points: 2
#     Edge 73, Type (0, 0), BuildingBlock: XUDNAN_clean_linker_2, # of connection points: 2
#     Edge 74, Type (0, 0), BuildingBlock: XUDNAN_clean_linker_2, # of connection points: 2
#     Edge 75, Type (0, 0), BuildingBlock: XUDNAN_clean_linker_2, # of connection points: 2
#     Edge 76, Type (0, 0), BuildingBlock: XUDNAN_clean_linker_2, # of connection points: 2
#     Edge 77, Type (0, 0), BuildingBlock: XUDNAN_clean_linker_2, # of connection points: 2
#     Edge 78, Type (0, 0), BuildingBlock: XUDNAN_clean_linker_2, # of connection points: 2
#     Edge 79, Type (0, 0), BuildingBlock: XUDNAN_clean_linker_2, # of connection points: 2
#     Edge 80, Type (0, 0), BuildingBlock: XUDNAN_clean_linker_2, # of connection points: 2
#     Edge 81, Type (0, 0), BuildingBlock: XUDNAN_clean_linker_2, # of connection points: 2
#     Edge 82, Type (0, 0), BuildingBlock: XUDNAN_clean_linker_2, # of connection points: 2
#     Edge 83, Type (0, 0), BuildingBlock: XUDNAN_clean_linker_2, # of connection points: 2
#     Edge 84, Type (0, 0), BuildingBlock: XUDNAN_clean_linker_2, # of connection points: 2
#     Edge 85, Type (0, 0), BuildingBlock: XUDNAN_clean_linker_2, # of connection points: 2
#     Edge 86, Type (0, 0), BuildingBlock: XUDNAN_clean_linker_2, # of connection points: 2
#     Edge 87, Type (0, 0), BuildingBlock: XUDNAN_clean_linker_2, # of connection points: 2
#     Edge 88, Type (0, 0), BuildingBlock: XUDNAN_clean_linker_2, # of connection points: 2
#     Edge 89, Type (0, 0), BuildingBlock: XUDNAN_clean_linker_2, # of connection points: 2
#     Edge 90, Type (0, 0), BuildingBlock: XUDNAN_clean_linker_2, # of connection points: 2
#     Edge 91, Type (0, 0), BuildingBlock: XUDNAN_clean_linker_2, # of connection points: 2
#     Edge 92, Type (0, 0), BuildingBlock: XUDNAN_clean_linker_2, # of connection points: 2
#     Edge 93, Type (0, 0), BuildingBlock: XUDNAN_clean_linker_2, # of connection points: 2
#     Edge 94, Type (0, 0), BuildingBlock: XUDNAN_clean_linker_2, # of connection points: 2
#     Edge 95, Type (0, 0), BuildingBlock: XUDNAN_clean_linker_2, # of connection points: 2
# Relax obj value: 0.791
# Max RMSD: 0.299
# Mean RMSD: 0.284
data_MOF--net-dia-a--node1-NAHDIM_clean_sbu_0--edge1-XUDNAN_clean_linker_2
_symmetry_space_group_name_H-M    P1
_symmetry_Int_Tables_number       1
_symmetry_cell_setting            triclinic
loop_
_symmetry_equiv_pos_as_xyz
'x, y, z'
_cell_length_a     69.275696
_cell_length_b     64.020757
_cell_length_c     49.457868
_cell_angle_alpha  94.845281
_cell_angle_beta   93.62951
_cell_angle_gamma 88.93186
loop_
_atom_site_label
_atom_site_type_symbol
_atom_site_fract_x
_atom_site_fract_y
_atom_site_fract_z
_atom_type_partial_charge
C0 C 0.0828 0.01645 0.47928 0.0
O1 O 0.08637 0.01328 0.45347 0.0
O2 O 0.09216 0.06365 0.44123 0.0
Zn3 Zn 0.10045 0.05869 0.48014 0.0
O4 O 0.09223 0.08305 0.50511 0.0
C5 C 0.13349 0.05048 0.51224 0.0
O6 O 0.11952 0.04482 0.52674 0.0
O7 O 0.08746 0.03366 0.49245 0.0
C8 C 0.07588 0.08358 0.51537 0.0
O9 O 0.06334 0.06882 0.50744 0.0
C10 C 0.09147 0.08185 0.43264 0.0
O11 O 0.08373 0.08438 0.40819 0.0
O12 O 0.12915 0.05608 0.48853 0.0
C13 C 0.90759 0.18211 0.8128 0.0
O14 O 0.9009 0.18728 0.83677 0.0
O15 O 0.86748 0.2236 0.82074 0.0
Zn16 Zn 0.8938 0.22312 0.80532 0.0
O17 O 0.91158 0.23447 0.83675 0.0
C18 C 0.87947 0.24488 0.75841 0.0
O19 O 0.86476 0.2322 0.7583 0.0
O20 O 0.90439 0.19449 0.79417 0.0
C21 C 0.91975 0.25214 0.83785 0.0
O22 O 0.91739 0.26361 0.81705 0.0
C23 C 0.86264 0.24225 0.82882 0.0
O24 O 0.87392 0.25763 0.82407 0.0
O25 O 0.89376 0.24289 0.77547 0.0
C26 C 0.5982 0.28852 0.98501 0.0
O27 O 0.58871 0.29917 0.96675 0.0
O28 O 0.59699 0.22119 -0.00028 0.0
Zn29 Zn 0.6032 0.25037 0.01584 0.0
O30 O 0.63258 0.2512 0.02284 0.0
C31 C 0.57335 0.25017 0.0551 0.0
O32 O 0.56108 0.24737 0.03379 0.0
O33 O 0.5912 0.27147 0.99122 0.0
C34 C 0.6397 0.25391 0.04726 0.0
O35 O 0.628 0.2581 0.06692 0.0
C36 C 0.60565 0.21209 0.98 0.0
O37 O 0.61857 0.22246 0.96835 0.0
O38 O 0.59108 0.25295 0.05166 0.0
C39 C 0.86276 0.00953 0.22061 0.0
O40 O 0.87959 0.01001 0.23445 0.0
O41 O 0.88072 0.97205 0.26794 0.0
Zn42 Zn 0.8589 0.96756 0.2394 0.0
O43 O 0.8359 0.96214 0.26053 0.0
C44 C 0.87781 0.92921 0.22035 0.0
O45 O 0.89183 0.93672 0.23731 0.0
O46 O 0.8527 0.993 0.21911 0.0
C47 C 0.83751 0.94634 0.27446 0.0
O48 O 0.85342 0.93486 0.27359 0.0
C49 C 0.87794 0.98402 0.2892 0.0
O50 O 0.862 0.99544 0.29011 0.0
O51 O 0.86302 0.94073 0.21564 0.0
C52 C 0.03626 0.13471 0.78912 0.0
O53 O 0.04991 0.13042 0.80757 0.0
O54 O 0.09021 0.14817 0.77868 0.0
Zn55 Zn 0.06532 0.15534 0.75742 0.0
O56 O 0.06886 0.14644 0.71815 0.0
C57 C 0.07596 0.1966 0.75049 0.0
O58 O 0.093 0.18722 0.75075 0.0
O59 O 0.04053 0.14386 0.76854 0.0
C60 C 0.05625 0.13779 0.70132 0.0
O61 O 0.03949 0.13266 0.7097 0.0
C62 C 0.09951 0.13194 0.76983 0.0
O63 O 0.09107 0.11911 0.75072 0.0
O64 O 0.06154 0.1864 0.75653 0.0
C65 C 0.73269 0.3326 0.01874 0.0
O66 O 0.74489 0.33304 0.04022 0.0
O67 O 0.78289 0.35657 0.01772 0.0
Zn68 Zn 0.76517 0.34433 0.98684 0.0
O69 O 0.7785 0.31949 0.9684 0.0
C70 C 0.77983 0.36817 0.94904 0.0
O71 O 0.79542 0.35989 0.96067 0.0
O72 O 0.7385 0.33701 0.99608 0.0
C73 C 0.77157 0.30196 0.95887 0.0
O74 O 0.75367 0.29738 0.96311 0.0
C75 C 0.7937 0.34495 0.03202 0.0
O76 O 0.79097 0.32461 0.0295 0.0
O77 O 0.7635 0.36472 0.95802 0.0
C78 C 0.77287 0.12289 0.17835 0.0
O79 O 0.75569 0.1147 0.17906 0.0
O80 O 0.73618 0.13356 0.13184 0.0
Zn81 Zn 0.74709 0.15303 0.16311 0.0
O82 O 0.7304 0.15193 0.19511 0.0
C83 C 0.74941 0.18407 0.12516 0.0
O84 O 0.75787 0.16848 0.11125 0.0
O85 O 0.77393 0.14184 0.1727 0.0
C86 C 0.71606 0.16432 0.19865 0.0
O87 O 0.71233 0.17874 0.18159 0.0
C88 C 0.72322 0.12003 0.1336 0.0
O89 O 0.71572 0.11842 0.15706 0.0
O90 O 0.74559 0.18185 0.14956 0.0
C91 C 0.98359 0.9246 0.52709 0.0
O92 O 0.97165 0.92917 0.54641 0.0
O93 O 0.93221 0.90433 0.52483 0.0
Zn94 Zn 0.95041 0.90544 0.49489 0.0
O95 O 0.93961 0.92576 0.46879 0.0
C96 C 0.94665 0.86065 0.48674 0.0
O97 O 0.94532 0.8623 0.51322 0.0
O98 O 0.97761 0.91395 0.50549 0.0
C99 C 0.94393 0.92355 0.44411 0.0
O100 O 0.95545 0.90801 0.43615 0.0
C101 C 0.91993 0.91884 0.53016 0.0
O102 O 0.92212 0.93718 0.52077 0.0
O103 O 0.94987 0.87694 0.47481 0.0
C104 C 0.57962 0.99756 0.98981 0.0
O105 O 0.57196 0.01629 0.99491 0.0
O106 O 0.60496 0.04773 0.98036 0.0
Zn107 Zn 0.61129 0.0227 0.00218 0.0
O108 O 0.60265 0.02912 0.03991 0.0
C109 C 0.65136 0.03099 0.99642 0.0
O110 O 0.64484 0.03934 0.97419 0.0
O111 O 0.59786 0.99593 0.98866 0.0
C112 C 0.61026 0.04396 0.05537 0.0
O113 O 0.6232 0.05574 0.04594 0.0
C114 C 0.59307 0.06199 0.98834 0.0
O115 O 0.58288 0.05917 0.0092 0.0
O116 O 0.64004 0.02002 0.00846 0.0
C117 C 0.90298 0.71599 0.28721 0.0
O118 O 0.89964 0.71733 0.31314 0.0
O119 O 0.85268 0.7503 0.29544 0.0
Zn120 Zn 0.88055 0.75446 0.28806 0.0
O121 O 0.89456 0.7652 0.32341 0.0
C122 C 0.86935 0.78181 0.24486 0.0
O123 O 0.85479 0.76901 0.23909 0.0
O124 O 0.89506 0.72927 0.27214 0.0
C125 C 0.89112 0.7598 0.34677 0.0
O126 O 0.87784 0.7458 0.34899 0.0
C127 C 0.84544 0.7352 0.30631 0.0
O128 O 0.85612 0.71849 0.31056 0.0
O129 O 0.88182 0.77808 0.26387 0.0
C130 C 0.12035 0.28043 0.50699 0.0
O131 O 0.12432 0.26143 0.49647 0.0
O132 O 0.11113 0.22998 0.53298 0.0
Zn133 Zn 0.11617 0.25837 0.55412 0.0
O134 O 0.1432 0.2574 0.57231 0.0
C135 C 0.08182 0.26726 0.59127 0.0
O136 O 0.06881 0.2715 0.57195 0.0
O137 O 0.11499 0.28282 0.53115 0.0
C138 C 0.14474 0.24731 0.59339 0.0
O139 O 0.12936 0.23825 0.60101 0.0
C140 C 0.12568 0.21841 0.52708 0.0
O141 O 0.14314 0.22584 0.53279 0.0
O142 O 0.09905 0.2625 0.58552 0.0
C143 C 0.83967 0.46547 0.74979 0.0
O144 O 0.84108 0.46329 0.77603 0.0
O145 O 0.87801 0.4312 0.77454 0.0
Zn146 Zn 0.85377 0.42445 0.75132 0.0
O147 O 0.83529 0.41755 0.77884 0.0
C148 C 0.8728 0.38953 0.72089 0.0
O149 O 0.88878 0.39983 0.72809 0.0
O150 O 0.8445 0.45017 0.73338 0.0
C151 C 0.81716 0.42061 0.77961 0.0
O152 O 0.80756 0.42939 0.75968 0.0
C153 C 0.88551 0.41673 0.78798 0.0
O154 O 0.87839 0.39776 0.78406 0.0
O155 O 0.8566 0.39805 0.72624 0.0
C156 C 0.52536 0.13332 0.25845 0.0
O157 O 0.52924 0.12493 0.23421 0.0
O158 O 0.58664 0.15742 0.27773 0.0
Zn159 Zn 0.56286 0.14849 0.25445 0.0
O160 O 0.57092 0.12436 0.22896 0.0
C161 C 0.56962 0.17985 0.21914 0.0
O162 O 0.58749 0.17336 0.22418 0.0
O163 O 0.53862 0.14317 0.27301 0.0
C164 C 0.56989 0.10473 0.23056 0.0
O165 O 0.56211 0.0975 0.25139 0.0
C166 C 0.59877 0.14367 0.28542 0.0
O167 O 0.59309 0.1242 0.28527 0.0
O168 O 0.55605 0.17158 0.23044 0.0
C169 C 0.72754 0.87558 0.47608 0.0
O170 O 0.73854 0.88933 0.49071 0.0
O171 O 0.78075 0.871 0.48367 0.0
Zn172 Zn 0.76319 0.86075 0.45122 0.0
O173 O 0.76949 0.83089 0.4378 0.0
C174 C 0.76019 0.89409 0.41277 0.0
O175 O 0.74465 0.90117 0.42463 0.0
O176 O 0.73507 0.86273 0.45865 0.0
C177 C 0.76411 0.82536 0.41321 0.0
O178 O 0.75401 0.83867 0.399 0.0
C179 C 0.79593 0.8608 0.49066 0.0
O180 O 0.79913 0.84222 0.47824 0.0
O181 O 0.76918 0.87814 0.42104 0.0
C182 C 0.29096 0.1111 0.71086 0.0
O183 O 0.28482 0.11763 0.73475 0.0
O184 O 0.2412 0.11276 0.65195 0.0
Zn185 Zn 0.25346 0.12596 0.68698 0.0
O186 O 0.23678 0.11878 0.71719 0.0
C187 C 0.23519 0.16469 0.68505 0.0
O188 O 0.2215 0.15247 0.69158 0.0
O189 O 0.28038 0.11394 0.68955 0.0
C190 C 0.2354 0.1297 0.73972 0.0
O191 O 0.2473 0.14535 0.74603 0.0
C192 C 0.23197 0.09572 0.65065 0.0
O193 O 0.23042 0.08617 0.67289 0.0
O194 O 0.25212 0.15704 0.68259 0.0
C195 C 0.98277 0.42043 0.02732 0.0
O196 O 0.96654 0.43113 0.02409 0.0
O197 O 0.93641 0.38576 0.03893 0.0
Zn198 Zn 0.95676 0.38805 0.01186 0.0
O199 O 0.94672 0.40506 0.98136 0.0
C200 C 0.95906 0.34142 -0.0 0.0
O201 O 0.95563 0.33887 0.02532 0.0
O202 O 0.9821 0.40055 0.02603 0.0
C203 C 0.95551 0.40224 0.95951 0.0
O204 O 0.9706 0.38952 0.9586 0.0
C205 C 0.92158 0.39776 0.03856 0.0
O206 O 0.92107 0.4135 0.02312 0.0
O207 O 0.96075 0.35975 0.99256 0.0
C208 C 0.08879 0.51307 0.99724 0.0
O209 O 0.08211 0.53243 0.99912 0.0
O210 O 0.12418 0.55725 0.98579 0.0
Zn211 Zn 0.12392 0.53443 0.01145 0.0
O212 O 0.11273 0.5477 0.04561 0.0
C213 C 0.16633 0.52703 0.01265 0.0
O214 O 0.1663 0.53643 0.99006 0.0
O215 O 0.10697 0.50994 0.99904 0.0
C216 C 0.10135 0.56355 0.04634 0.0
O217 O 0.09642 0.57236 0.02382 0.0
C218 C 0.13489 0.57262 0.99444 0.0
O219 O 0.14599 0.57114 0.01677 0.0
O220 O 0.15047 0.5242 0.02327 0.0
C221 C 0.46156 0.42497 0.54867 0.0
O222 O 0.44405 0.42782 0.55717 0.0
O223 O 0.41746 0.39441 0.52537 0.0
Zn224 Zn 0.44302 0.39556 0.50819 0.0
O225 O 0.43839 0.4119 0.47563 0.0
C226 C 0.44283 0.35033 0.49971 0.0
O227 O 0.4318 0.35175 0.52045 0.0
O228 O 0.46458 0.41036 0.53039 0.0
C229 C 0.45194 0.4136 0.45984 0.0
O230 O 0.46884 0.40479 0.46545 0.0
C231 C 0.40557 0.40976 0.52478 0.0
O232 O 0.4112 0.42747 0.5164 0.0
O233 O 0.45048 0.36681 0.49285 0.0
C234 C 0.1117 0.77859 0.02104 0.0
O235 O 0.09877 0.76753 0.00571 0.0
O236 O 0.10401 0.72466 0.03092 0.0
Zn237 Zn 0.10728 0.74791 0.06084 0.0
O238 O 0.12969 0.74033 0.08668 0.0
C239 C 0.07179 0.74378 0.0933 0.0
O240 O 0.05451 0.75084 0.09922 0.0
O241 O 0.11635 0.77348 0.04487 0.0
C242 C 0.13648 0.72177 0.08724 0.0
O243 O 0.12778 0.70642 0.07219 0.0
C244 C 0.11842 0.71993 0.01683 0.0
O245 O 0.13422 0.73106 0.02135 0.0
O246 O 0.0817 0.75411 0.07828 0.0
C247 C 0.02187 0.63297 0.26513 0.0
O248 O 0.02316 0.6173 0.28069 0.0
O249 O 0.08059 0.62013 0.26665 0.0
Zn250 Zn 0.05689 0.61537 0.24106 0.0
O251 O 0.04689 0.58594 0.24225 0.0
C252 C 0.08229 0.62389 0.19819 0.0
O253 O 0.09615 0.61718 0.21478 0.0
O254 O 0.03503 0.63541 0.24897 0.0
C255 C 0.04618 0.57157 0.22293 0.0
O256 O 0.04068 0.55273 0.22742 0.0
C257 C 0.08993 0.60479 0.27613 0.0
O258 O 0.08219 0.58611 0.27303 0.0
O259 O 0.0648 0.62279 0.20434 0.0
C260 C 0.22169 0.85359 0.96827 0.0
O261 O 0.23356 0.85883 0.98943 0.0
O262 O 0.27254 0.86809 0.96997 0.0
Zn263 Zn 0.25492 0.86023 0.9367 0.0
O264 O 0.2676 0.83565 0.9161 0.0
C265 C 0.25996 0.90141 0.91575 0.0
O266 O 0.26381 0.90882 0.94106 0.0
O267 O 0.22776 0.8533 0.94454 0.0
C268 C 0.28437 0.83944 0.90874 0.0
O269 O 0.29182 0.85798 0.91585 0.0
C270 C 0.28059 0.85302 0.98174 0.0
O271 O 0.27493 0.83381 0.97418 0.0
O272 O 0.25482 0.88249 0.91068 0.0
C273 C 0.37473 0.99311 0.73684 0.0
O274 O 0.38238 0.99302 0.76178 0.0
O275 O 0.38963 0.94846 0.77442 0.0
Zn276 Zn 0.36811 0.95017 0.74517 0.0
O277 O 0.34356 0.95223 0.76511 0.0
C278 C 0.3839 0.91287 0.71773 0.0
O279 O 0.40033 0.92234 0.72489 0.0
O280 O 0.36905 0.97594 0.72431 0.0
C281 C 0.33312 0.93644 0.76728 0.0
O282 O 0.33758 0.91835 0.75446 0.0
C283 C 0.38752 0.95719 0.79813 0.0
O284 O 0.37204 0.96881 0.80266 0.0
O285 O 0.36813 0.92271 0.72197 0.0
C286 C 0.47984 0.89746 0.01973 0.0
O287 O 0.4633 0.90785 0.01882 0.0
O288 O 0.43122 0.86895 0.02045 0.0
Zn289 Zn 0.45433 0.86728 0.99723 0.0
O290 O 0.44763 0.88698 0.96842 0.0
C291 C 0.45022 0.82201 0.9874 0.0
O292 O 0.44474 0.82306 0.01243 0.0
O293 O 0.47961 0.87768 0.01472 0.0
C294 C 0.4503 0.88332 0.94328 0.0
O295 O 0.45776 0.86522 0.93435 0.0
C296 C 0.41645 0.86157 0.00652 0.0
O297 O 0.41826 0.85425 0.98117 0.0
O298 O 0.45658 0.83837 0.9783 0.0
C299 C 0.29252 0.61712 0.21935 0.0
O300 O 0.29136 0.63651 0.2302 0.0
O301 O 0.24147 0.59342 0.1704 0.0
Zn302 Zn 0.24942 0.6144 0.20111 0.0
O303 O 0.23239 0.61013 0.23208 0.0
C304 C 0.24537 0.66096 0.19011 0.0
O305 O 0.25628 0.66779 0.21162 0.0
O306 O 0.2775 0.60794 0.2086 0.0
C307 C 0.22207 0.62511 0.24217 0.0
O308 O 0.22416 0.64401 0.23447 0.0
C309 C 0.24417 0.57372 0.16976 0.0
O310 O 0.25212 0.56539 0.19123 0.0
O311 O 0.2427 0.64143 0.18489 0.0
C312 C 0.39826 0.69903 0.78642 0.0
O313 O 0.38999 0.70077 0.8097 0.0
O314 O 0.34466 0.72099 0.76984 0.0
Zn315 Zn 0.37184 0.73259 0.77601 0.0
O316 O 0.37825 0.74239 0.81536 0.0
C317 C 0.36402 0.76649 0.73863 0.0
O318 O 0.3458 0.76093 0.73713 0.0
O319 O 0.39185 0.71007 0.7675 0.0
C320 C 0.3945 0.75121 0.82042 0.0
O321 O 0.40529 0.75403 0.80014 0.0
C322 C 0.32859 0.72608 0.78002 0.0
O323 O 0.31346 0.71446 0.77231 0.0
O324 O 0.37647 0.75656 0.75282 0.0
C325 C 0.55278 0.53654 0.52997 0.0
O326 O 0.55456 0.55487 0.54384 0.0
O327 O 0.58586 0.57395 0.48931 0.0
Zn328 Zn 0.58867 0.54929 0.51268 0.0
O329 O 0.59327 0.56164 0.55112 0.0
C330 C 0.62685 0.53986 0.49484 0.0
O331 O 0.62347 0.556 0.48043 0.0
O332 O 0.56525 0.53083 0.51288 0.0
C333 C 0.599 0.55038 0.5701 0.0
O334 O 0.60273 0.53037 0.56427 0.0
C335 C 0.57719 0.59028 0.49919 0.0
O336 O 0.56848 0.58935 0.52186 0.0
O337 O 0.61293 0.53246 0.50639 0.0
C338 C 0.62124 0.79807 0.51754 0.0
O339 O 0.61637 0.78363 0.49798 0.0
O340 O 0.6105 0.74173 0.52574 0.0
Zn341 Zn 0.62414 0.7633 0.55243 0.0
O342 O 0.65234 0.75545 0.56026 0.0
C343 C 0.61523 0.74288 0.59645 0.0
O344 O 0.62232 0.72817 0.57961 0.0
O345 O 0.62353 0.79299 0.54182 0.0
C346 C 0.66019 0.7379 0.55318 0.0
O347 O 0.65019 0.72401 0.53731 0.0
C348 C 0.61541 0.73401 0.50258 0.0
O349 O 0.63041 0.74165 0.49193 0.0
O350 O 0.61294 0.76128 0.58877 0.0
C351 C 0.7608 0.58678 0.70635 0.0
O352 O 0.746 0.5864 0.72164 0.0
O353 O 0.72614 0.58835 0.63711 0.0
Zn354 Zn 0.73334 0.60713 0.67054 0.0
O355 O 0.71204 0.60644 0.69683 0.0
C356 C 0.74143 0.65313 0.66382 0.0
O357 O 0.75135 0.65592 0.68733 0.0
O358 O 0.75905 0.59633 0.68483 0.0
C359 C 0.70822 0.62184 0.71372 0.0
O360 O 0.71889 0.63869 0.7151 0.0
C361 C 0.71883 0.57026 0.63617 0.0
O362 O 0.71515 0.56227 0.65887 0.0
O363 O 0.73423 0.63537 0.65604 0.0
C364 C 0.53386 0.65663 0.80892 0.0
O365 O 0.54004 0.65901 0.83464 0.0
O366 O 0.58647 0.65008 0.83193 0.0
Zn367 Zn 0.57504 0.65184 0.79341 0.0
O368 O 0.5819 0.62717 0.7678 0.0
C369 C 0.59886 0.67606 0.76308 0.0
O370 O 0.60881 0.65839 0.76172 0.0
O371 O 0.54596 0.65358 0.79071 0.0
C372 C 0.57544 0.62882 0.74345 0.0
O373 O 0.56449 0.64513 0.73806 0.0
C374 C 0.60382 0.64491 0.83882 0.0
O375 O 0.60963 0.64617 0.86467 0.0
O376 O 0.58425 0.67766 0.77745 0.0
C377 C 0.21249 0.36832 0.44074 0.0
O378 O 0.21972 0.38624 0.45128 0.0
O379 O 0.26695 0.37079 0.45374 0.0
Zn380 Zn 0.25113 0.35805 0.42089 0.0
O381 O 0.2614 0.32915 0.40986 0.0
C382 C 0.25549 0.39541 0.3918 0.0
O383 O 0.25067 0.40591 0.41442 0.0
O384 O 0.22313 0.35532 0.42747 0.0
C385 C 0.25958 0.32206 0.38506 0.0
O386 O 0.25053 0.33352 0.36727 0.0
C387 C 0.27931 0.36005 0.46696 0.0
O388 O 0.2805 0.33972 0.46081 0.0
O389 O 0.25544 0.37551 0.39008 0.0
C390 C 0.38361 0.50261 0.23318 0.0
O391 O 0.3972 0.50042 0.2525 0.0
O392 O 0.39678 0.45959 0.27109 0.0
Zn393 Zn 0.37576 0.45929 0.24099 0.0
O394 O 0.35064 0.45648 0.25881 0.0
C395 C 0.39337 0.42121 0.21858 0.0
O396 O 0.40817 0.42823 0.23445 0.0
O397 O 0.37396 0.48665 0.22352 0.0
C398 C 0.34525 0.43861 0.2646 0.0
O399 O 0.35587 0.42198 0.25793 0.0
C400 C 0.39317 0.46642 0.29513 0.0
O401 O 0.37611 0.47482 0.29965 0.0
O402 O 0.37862 0.4331 0.21543 0.0
C403 C 0.40174 0.20308 0.27159 0.0
O404 O 0.38344 0.198 0.26754 0.0
O405 O 0.36168 0.24141 0.28992 0.0
Zn406 Zn 0.38984 0.24715 0.28757 0.0
O407 O 0.39921 0.2571 0.32553 0.0
C408 C 0.38105 0.27456 0.24423 0.0
O409 O 0.3661 0.26226 0.23863 0.0
O410 O 0.40635 0.22201 0.27818 0.0
C411 C 0.41483 0.26702 0.33125 0.0
O412 O 0.42535 0.27181 0.31153 0.0
C413 C 0.35672 0.23186 0.30984 0.0
O414 O 0.37024 0.22275 0.32477 0.0
O415 O 0.39328 0.27057 0.26345 0.0
H416 H 0.00683 0.92656 0.48488 0.0
H417 H 0.00241 0.94732 0.57014 0.0
H418 H 0.03099 0.96963 0.56845 0.0
H419 H 0.06089 0.92879 0.48362 0.0
H420 H 0.05912 0.93851 0.45038 0.0
H421 H 0.04103 0.92105 0.45978 0.0
H422 H 0.01429 0.94822 0.44798 0.0
H423 H 0.03223 0.96583 0.43886 0.0
H424 H 0.01564 0.97448 0.46428 0.0
H425 H 0.0565 0.9934 0.55578 0.0
H426 H 0.077 0.01691 0.53343 0.0
H427 H 0.06419 0.98124 0.45595 0.0
C428 C 0.01223 0.93522 0.50349 0.0
C429 C 0.00247 0.93509 0.52774 0.0
C430 C 0.00974 0.94708 0.55141 0.0
C431 C 0.02599 0.95975 0.55064 0.0
C432 C 0.03479 0.96015 0.52608 0.0
C433 C 0.02824 0.94807 0.50297 0.0
C434 C 0.03864 0.95319 0.47836 0.0
C435 C 0.05064 0.93426 0.4674 0.0
C436 C 0.02435 0.96089 0.45608 0.0
C437 C 0.05154 0.97066 0.49098 0.0
C438 C 0.04935 0.97416 0.51862 0.0
C439 C 0.05859 0.99056 0.53428 0.0
C440 C 0.07013 0.00389 0.52133 0.0
C441 C 0.07223 0.00088 0.49291 0.0
C442 C 0.06309 0.98377 0.47773 0.0
H443 H 0.92882 0.17177 0.76874 0.0
H444 H 0.92127 0.15591 0.85092 0.0
H445 H 0.95162 0.13521 0.85023 0.0
H446 H 0.9551 0.12092 0.74473 0.0
H447 H 0.97055 0.13539 0.72526 0.0
H448 H 0.9459 0.14398 0.72944 0.0
H449 H 0.95811 0.18062 0.74861 0.0
H450 H 0.98268 0.17215 0.74483 0.0
H451 H 0.97531 0.18266 0.77762 0.0
H452 H 0.98599 0.12359 0.84476 0.0
H453 H 0.0204 0.12108 0.83413 0.0
H454 H 0.00526 0.14395 0.75532 0.0
C455 C 0.93309 0.16319 0.78615 0.0
C456 C 0.92266 0.16549 0.80986 0.0
C457 C 0.92896 0.15434 0.83245 0.0
C458 C 0.94619 0.14248 0.83223 0.0
C459 C 0.9568 0.14161 0.80911 0.0
C460 C 0.95026 0.15136 0.78625 0.0
C461 C 0.96547 0.15061 0.76552 0.0
C462 C 0.95886 0.1369 0.73971 0.0
C463 C 0.9707 0.17282 0.75879 0.0
C464 C 0.98202 0.14027 0.78105 0.0
C465 C 0.97667 0.13473 0.8059 0.0
C466 C 0.99021 0.1273 0.82504 0.0
C467 C 0.00976 0.12598 0.81887 0.0
C468 C 0.01555 0.13228 0.79389 0.0
C469 C 0.00132 0.13878 0.77449 0.0
H470 H 0.70557 0.32658 0.97657 0.0
H471 H 0.71381 0.32428 0.06403 0.0
H472 H 0.67969 0.31364 0.06545 0.0
H473 H 0.657 0.34704 0.97469 0.0
H474 H 0.64967 0.33138 0.94387 0.0
H475 H 0.67448 0.33927 0.95013 0.0
H476 H 0.68576 0.30037 0.94411 0.0
H477 H 0.661 0.29238 0.93773 0.0
H478 H 0.67591 0.28158 0.96449 0.0
H479 H 0.6442 0.30363 0.05678 0.0
H480 H 0.61144 0.29251 0.03833 0.0
H481 H 0.62755 0.30104 0.95686 0.0
C482 C 0.70025 0.32401 0.99613 0.0
C483 C 0.71233 0.32642 0.02024 0.0
C484 C 0.70478 0.32262 0.04531 0.0
C485 C 0.68543 0.31662 0.04631 0.0
C486 C 0.67392 0.31449 0.02208 0.0
C487 C 0.68113 0.31796 0.99746 0.0
C488 C 0.66614 0.31401 0.97414 0.0
C489 C 0.66155 0.33413 0.95988 0.0
C490 C 0.67259 0.29601 0.95394 0.0
C491 C 0.64926 0.30774 0.98939 0.0
C492 C 0.65392 0.30822 0.01704 0.0
C493 C 0.64048 0.30306 0.03515 0.0
C494 C 0.622 0.29671 0.02456 0.0
C495 C 0.61731 0.29558 0.99626 0.0
C496 C 0.63095 0.30159 0.97859 0.0
H497 H 0.77401 0.0805 0.17596 0.0
H498 H 0.81082 0.13491 0.19012 0.0
H499 H 0.83913 0.11148 0.19887 0.0
H500 H 0.79511 0.05181 0.22722 0.0
H501 H 0.79249 0.02677 0.20788 0.0
H502 H 0.77588 0.04787 0.20107 0.0
H503 H 0.78416 0.04434 0.15045 0.0
H504 H 0.80088 0.02324 0.15714 0.0
H505 H 0.809 0.04591 0.14201 0.0
H506 H 0.86274 0.08152 0.20985 0.0
H507 H 0.87919 0.04848 0.22145 0.0
H508 H 0.82625 0.01458 0.19795 0.0
C509 C 0.78802 0.08758 0.18074 0.0
C510 C 0.79023 0.10952 0.18255 0.0
C511 C 0.80885 0.1181 0.18864 0.0
C512 C 0.82497 0.10492 0.19358 0.0
C513 C 0.82218 0.08328 0.19188 0.0
C514 C 0.80413 0.07475 0.18537 0.0
C515 C 0.80457 0.05118 0.18562 0.0
C516 C 0.79123 0.044 0.20671 0.0
C517 C 0.79935 0.04055 0.15711 0.0
C518 C 0.82562 0.04768 0.19405 0.0
C519 C 0.83565 0.06628 0.19745 0.0
C520 C 0.85506 0.06686 0.20686 0.0
C521 C 0.86429 0.04801 0.21339 0.0
C522 C 0.85405 0.0289 0.21048 0.0
C523 C 0.8346 0.02883 0.20012 0.0
H524 H 0.54088 0.99687 0.99602 0.0
H525 H 0.59131 0.9561 0.98777 0.0
H526 H 0.57162 0.9258 0.99669 0.0
H527 H 0.52238 0.97362 0.05089 0.0
H528 H 0.49738 0.9767 0.03927 0.0
H529 H 0.51509 0.99482 0.03055 0.0
H530 H 0.5054 0.98672 0.97926 0.0
H531 H 0.48736 0.96894 0.98785 0.0
H532 H 0.50546 0.95992 0.96478 0.0
H533 H 0.54619 0.90017 0.00812 0.0
H534 H 0.51681 0.88115 0.01717 0.0
H535 H 0.48406 0.93968 0.01945 0.0
C536 C 0.5478 0.98155 0.99568 0.0
C537 C 0.56763 0.97885 0.99115 0.0
C538 C 0.57609 0.95852 0.99104 0.0
C539 C 0.56506 0.94125 0.99626 0.0
C540 C 0.54566 0.94466 0.00156 0.0
C541 C 0.5371 0.96429 0.001 0.0
C542 C 0.51612 0.96401 0.00762 0.0
C543 C 0.51255 0.97812 0.03363 0.0
C544 C 0.5028 0.97026 0.98344 0.0
C545 C 0.51414 0.94113 0.01208 0.0
C546 C 0.53129 0.93016 0.00854 0.0
C547 C 0.5327 0.90863 0.01096 0.0
C548 C 0.51597 0.89798 0.01628 0.0
C549 C 0.49813 0.90892 0.01914 0.0
C550 C 0.49746 0.93085 0.01765 0.0
H551 H 0.9237 0.68647 0.31444 0.0
H552 H 0.91794 0.71426 0.23714 0.0
H553 H 0.94723 0.69505 0.22277 0.0
H554 H 0.9738 0.68947 0.32391 0.0
H555 H 0.97744 0.6647 0.33843 0.0
H556 H 0.95491 0.67883 0.3419 0.0
H557 H 0.93602 0.64656 0.31984 0.0
H558 H 0.95848 0.63217 0.3167 0.0
H559 H 0.94232 0.63477 0.28712 0.0
H560 H 0.97898 0.6765 0.21898 0.0
H561 H 0.00936 0.65616 0.22356 0.0
H562 H 0.99414 0.63914 0.30259 0.0
C563 C 0.92834 0.68817 0.29425 0.0
C564 C 0.91853 0.70191 0.27694 0.0
C565 C 0.92516 0.70378 0.25074 0.0
C566 C 0.94182 0.69299 0.24241 0.0
C567 C 0.95153 0.68019 0.26036 0.0
C568 C 0.94487 0.67739 0.28553 0.0
C569 C 0.95839 0.66323 0.30125 0.0
C570 C 0.96662 0.67476 0.32795 0.0
C571 C 0.94819 0.64298 0.30653 0.0
C572 C 0.97393 0.65892 0.28123 0.0
C573 C 0.96969 0.66894 0.25783 0.0
C574 C 0.98232 0.66831 0.237 0.0
C575 C -0.00038 0.65685 0.23992 0.0
C576 C 0.00408 0.64601 0.26341 0.0
C577 C 0.99103 0.64711 0.28431 0.0
H578 H 0.19412 0.33229 0.42178 0.0
H579 H 0.18737 0.389 0.47507 0.0
H580 H 0.15772 0.37472 0.49136 0.0
H581 H 0.14078 0.32055 0.40777 0.0
H582 H 0.1456 0.29283 0.40851 0.0
H583 H 0.16327 0.30952 0.39635 0.0
H584 H 0.1891 0.29634 0.43142 0.0
H585 H 0.17159 0.27975 0.44367 0.0
H586 H 0.18433 0.29867 0.46698 0.0
H587 H 0.13303 0.35169 0.50816 0.0
H588 H 0.11623 0.32202 0.52457 0.0
H589 H 0.1392 0.28039 0.4602 0.0
C590 C 0.18608 0.34204 0.43622 0.0
C591 C 0.19305 0.36177 0.44714 0.0
C592 C 0.18224 0.37389 0.46629 0.0
C593 C 0.16533 0.36593 0.47558 0.0
C594 C 0.15931 0.34599 0.46521 0.0
C595 C 0.16929 0.33431 0.4457 0.0
C596 C 0.1616 0.31227 0.44055 0.0
C597 C 0.15225 0.30859 0.41157 0.0
C598 C 0.1776 0.29581 0.44601 0.0
C599 C 0.14655 0.3129 0.46145 0.0
C600 C 0.14506 0.33262 0.475 0.0
C601 C 0.13373 0.33634 0.49726 0.0
C602 C 0.12426 0.31935 0.50648 0.0
C603 C 0.12638 0.29887 0.49363 0.0
C604 C 0.13703 0.29588 0.47019 0.0
H605 H 0.77017 0.56533 0.7511 0.0
H606 H 0.78896 0.57562 0.67125 0.0
H607 H 0.81324 0.54722 0.67514 0.0
H608 H 0.81917 0.55128 0.78135 0.0
H609 H 0.80921 0.53197 0.80082 0.0
H610 H 0.79516 0.55496 0.7932 0.0
H611 H 0.76745 0.53121 0.7716 0.0
H612 H 0.78147 0.50818 0.77875 0.0
H613 H 0.7724 0.51164 0.74442 0.0
H614 H 0.83157 0.51408 0.68446 0.0
H615 H 0.84539 0.48124 0.70114 0.0
H616 H 0.81589 0.49379 0.77572 0.0
C617 C 0.77975 0.56201 0.73475 0.0
C618 C 0.77764 0.57268 0.71087 0.0
C619 C 0.79036 0.56775 0.68983 0.0
C620 C 0.80419 0.55159 0.6918 0.0
C621 C 0.80535 0.5408 0.71516 0.0
C622 C 0.79377 0.5461 0.73653 0.0
C623 C 0.79719 0.53135 0.75875 0.0
C624 C 0.8057 0.54309 0.78509 0.0
C625 C 0.77852 0.51992 0.76364 0.0
C626 C 0.81192 0.51645 0.74607 0.0
C627 C 0.81648 0.52215 0.72094 0.0
C628 C 0.82849 0.50972 0.70439 0.0
C629 C 0.83614 0.49106 0.71392 0.0
C630 C 0.83186 0.48517 0.7398 0.0
C631 C 0.81972 0.49814 0.75607 0.0
H632 H 0.50995 0.16426 0.29203 0.0
H633 H 0.49471 0.10935 0.23808 0.0
H634 H 0.46008 0.11882 0.24055 0.0
H635 H 0.46545 0.16652 0.3329 0.0
H636 H 0.4648 0.19474 0.33404 0.0
H637 H 0.48766 0.18084 0.33342 0.0
H638 H 0.49573 0.19949 0.29109 0.0
H639 H 0.47283 0.21309 0.29119 0.0
H640 H 0.47936 0.19724 0.26118 0.0
H641 H 0.42761 0.13735 0.24311 0.0
H642 H 0.40053 0.16321 0.24581 0.0
H643 H 0.43791 0.20656 0.29582 0.0
C644 C 0.4993 0.1537 0.28176 0.0
C645 C 0.50496 0.13594 0.26516 0.0
C646 C 0.49062 0.12293 0.25115 0.0
C647 C 0.47093 0.12818 0.25245 0.0
C648 C 0.46585 0.14647 0.26784 0.0
C649 C 0.47966 0.15892 0.28247 0.0
C650 C 0.47089 0.17921 0.29428 0.0
C651 C 0.47228 0.18038 0.32552 0.0
C652 C 0.48026 0.19836 0.28379 0.0
C653 C 0.4502 0.17665 0.28306 0.0
C654 C 0.44739 0.15751 0.26839 0.0
C655 C 0.42959 0.15226 0.25491 0.0
C656 C 0.41433 0.16703 0.25644 0.0
C657 C 0.41719 0.18689 0.27083 0.0
C658 C 0.4353 0.19153 0.28451 0.0
H659 H 0.70057 0.8515 0.44626 0.0
H660 H 0.70869 0.89308 0.51984 0.0
H661 H 0.67671 0.8832 0.53368 0.0
H662 H 0.64541 0.8576 0.43774 0.0
H663 H 0.64324 0.83029 0.42588 0.0
H664 H 0.66409 0.84473 0.41842 0.0
H665 H 0.68661 0.81715 0.44023 0.0
H666 H 0.66595 0.80272 0.4477 0.0
H667 H 0.68343 0.81135 0.47471 0.0
H668 H 0.64846 0.86276 0.54456 0.0
H669 H 0.62663 0.83387 0.55127 0.0
H670 H 0.63599 0.80635 0.46998 0.0
C671 C 0.69532 0.8591 0.46483 0.0
C672 C 0.70711 0.87302 0.482 0.0
C673 C 0.69985 0.88247 0.50628 0.0
C674 C 0.68165 0.877 0.51425 0.0
C675 C 0.67075 0.86242 0.49744 0.0
C676 C 0.67721 0.85386 0.47297 0.0
C677 C 0.66424 0.8364 0.46045 0.0
C678 C 0.65361 0.84264 0.43406 0.0
C679 C 0.67574 0.8157 0.45552 0.0
C680 C 0.65037 0.8353 0.48269 0.0
C681 C 0.65402 0.8508 0.50355 0.0
C682 C 0.64503 0.85099 0.52802 0.0
C683 C 0.63268 0.83449 0.53169 0.0
C684 C 0.62948 0.81802 0.51102 0.0
C685 C 0.63771 0.81904 0.48581 0.0
H686 H 0.31564 0.09837 0.75214 0.0
H687 H 0.30525 0.09241 0.66436 0.0
H688 H 0.33044 0.0649 0.66083 0.0
H689 H 0.36962 0.08612 0.75259 0.0
H690 H 0.36854 0.07187 0.78236 0.0
H691 H 0.35252 0.09397 0.77766 0.0
H692 H 0.32303 0.07056 0.78261 0.0
H693 H 0.33888 0.04847 0.78719 0.0
H694 H 0.31982 0.04681 0.76057 0.0
H695 H 0.35109 0.03328 0.66737 0.0
H696 H 0.36738 0.00158 0.68373 0.0
H697 H 0.36621 0.02924 0.76671 0.0
C698 C 0.31912 0.09179 0.73212 0.0
C699 C 0.30843 0.09754 0.70858 0.0
C700 C 0.31324 0.08832 0.68275 0.0
C701 C 0.32761 0.07269 0.68048 0.0
C702 C 0.33732 0.06673 0.70417 0.0
C703 C 0.33356 0.07628 0.72948 0.0
C704 C 0.3446 0.06554 0.75192 0.0
C705 C 0.35972 0.08025 0.76702 0.0
C706 C 0.33075 0.05736 0.77171 0.0
C707 C 0.35418 0.04774 0.73537 0.0
C708 C 0.35001 0.04882 0.70782 0.0
C709 C 0.35503 0.03259 0.6888 0.0
C710 C 0.36421 0.01463 0.69823 0.0
C711 C 0.36837 0.01318 0.72638 0.0
C712 C 0.3638 0.03023 0.745 0.0
H713 H 0.98869 0.46215 0.02368 0.0
H714 H 0.01909 0.40244 0.02756 0.0
H715 H 0.04957 0.41943 0.01887 0.0
H716 H 0.01298 0.47936 0.96944 0.0
H717 H 0.01373 0.50648 0.98258 0.0
H718 H 0.99456 0.49004 0.991 0.0
H719 H 0.00318 0.49887 0.04243 0.0
H720 H 0.02213 0.51568 0.03418 0.0
H721 H 0.02765 0.49483 0.05585 0.0
H722 H 0.07639 0.44275 0.00729 0.0
H723 H 0.09804 0.47121 0.99805 0.0
H724 H 0.0496 0.51522 0.00109 0.0
C725 C 0.0018 0.45267 0.0232 0.0
C726 C 0.0015 0.43096 0.02635 0.0
C727 C 0.01898 0.41912 0.02533 0.0
C728 C 0.03634 0.42861 0.02026 0.0
C729 C 0.03596 0.44991 0.01631 0.0
C730 C 0.01918 0.46184 0.01808 0.0
C731 C 0.02252 0.48434 0.01263 0.0
C732 C 0.01022 0.4904 0.98742 0.0
C733 C 0.01865 0.49931 0.03777 0.0
C734 C 0.04379 0.48322 0.00739 0.0
C735 C 0.05129 0.46324 0.00952 0.0
C736 C 0.07068 0.45848 0.00567 0.0
C737 C 0.08284 0.47472 0.00027 0.0
C738 C 0.07552 0.49545 0.9988 0.0
C739 C 0.05565 0.49955 0.00191 0.0
H740 H 0.49493 0.42955 0.52304 0.0
H741 H 0.46032 0.45873 0.58644 0.0
H742 H 0.48095 0.48999 0.58969 0.0
H743 H 0.54215 0.45208 0.54968 0.0
H744 H 0.54941 0.45533 0.51595 0.0
H745 H 0.53367 0.43421 0.52149 0.0
H746 H 0.50873 0.44722 0.48515 0.0
H747 H 0.52416 0.46862 0.47988 0.0
H748 H 0.49964 0.4738 0.489 0.0
H749 H 0.50268 0.51937 0.58232 0.0
H750 H 0.52595 0.54408 0.56777 0.0
H751 H 0.54622 0.49594 0.50857 0.0
C752 C 0.49202 0.44221 0.53824 0.0
C753 C 0.47605 0.44166 0.55461 0.0
C754 C 0.47253 0.45877 0.57381 0.0
C755 C 0.48414 0.4766 0.57574 0.0
C756 C 0.4992 0.47701 0.55841 0.0
C757 C 0.50336 0.46016 0.54029 0.0
C758 C 0.51952 0.46512 0.52268 0.0
C759 C 0.53724 0.45084 0.52777 0.0
C760 C 0.51259 0.4636 0.49239 0.0
C761 C 0.52353 0.48757 0.53334 0.0
C762 C 0.5117 0.49407 0.55401 0.0
C763 C 0.5122 0.51439 0.56641 0.0
C764 C 0.52541 0.52835 0.55784 0.0
C765 C 0.53795 0.52195 0.53702 0.0
C766 C 0.53685 0.5013 0.52453 0.0
H767 H 0.14154 0.80141 0.04652 0.0
H768 H 0.10862 0.79091 0.96906 0.0
H769 H 0.13141 0.81301 0.94815 0.0
H770 H 0.15672 0.85617 0.03809 0.0
H771 H 0.18023 0.85171 0.05451 0.0
H772 H 0.15949 0.83819 0.06427 0.0
H773 H 0.17723 0.80262 0.05451 0.0
H774 H 0.19789 0.81593 0.04448 0.0
H775 H 0.18623 0.79607 0.02139 0.0
H776 H 0.16028 0.83168 0.93436 0.0
H777 H 0.19238 0.84634 0.92899 0.0
H778 H 0.20636 0.84456 0.01558 0.0
C779 C 0.13876 0.80422 0.02533 0.0
C780 C 0.12325 0.79446 0.00944 0.0
C781 C 0.12033 0.79831 0.98169 0.0
C782 C 0.13319 0.81086 0.96964 0.0
C783 C 0.14876 0.81959 0.9857 0.0
C784 C 0.15145 0.81663 0.01303 0.0
C785 C 0.17026 0.82601 0.02526 0.0
C786 C 0.16644 0.8441 0.0468 0.0
C787 C 0.18369 0.80915 0.03709 0.0
C788 C 0.17814 0.83398 0.00029 0.0
C789 C 0.16542 0.83039 0.97774 0.0
C790 C 0.17019 0.83493 0.95196 0.0
C791 C 0.1885 0.84316 0.9491 0.0
C792 C 0.20185 0.84668 0.9719 0.0
C793 C 0.19639 0.84234 0.99784 0.0
H794 H 0.3532 0.5126 0.19853 0.0
H795 H 0.39727 0.54052 0.25594 0.0
H796 H 0.38092 0.57499 0.25378 0.0
H797 H 0.34358 0.55982 0.15858 0.0
H798 H 0.31809 0.55427 0.15484 0.0
H799 H 0.33553 0.53308 0.15647 0.0
H800 H 0.31833 0.51974 0.19664 0.0
H801 H 0.30107 0.54096 0.19541 0.0
H802 H 0.31514 0.53723 0.22661 0.0
H803 H 0.35653 0.60495 0.25153 0.0
H804 H 0.3271 0.62744 0.24791 0.0
H805 H 0.29951 0.57932 0.19226 0.0
C806 C 0.35984 0.52607 0.20991 0.0
C807 C 0.37653 0.52383 0.22736 0.0
C808 C 0.38454 0.54184 0.24228 0.0
C809 C 0.37535 0.56152 0.24119 0.0
C810 C 0.35832 0.56297 0.22482 0.0
C811 C 0.35084 0.54573 0.2091 0.0
C812 C 0.3313 0.55069 0.1956 0.0
C813 C 0.33219 0.5494 0.16453 0.0
C814 C 0.31555 0.53631 0.20409 0.0
C815 C 0.32852 0.57306 0.2072 0.0
C816 C 0.34433 0.58009 0.22364 0.0
C817 C 0.34423 0.59975 0.23824 0.0
C818 C 0.32746 0.6124 0.23614 0.0
C819 C 0.311 0.60515 0.21985 0.0
C820 C 0.31184 0.58541 0.20485 0.0
H821 H 0.50347 0.66588 0.84151 0.0
H822 H 0.51713 0.65234 0.75725 0.0
H823 H 0.483 0.65825 0.74256 0.0
H824 H 0.45496 0.642 0.83446 0.0
H825 H 0.44487 0.66202 0.85748 0.0
H826 H 0.47008 0.65478 0.86171 0.0
H827 H 0.4796 0.69354 0.85943 0.0
H828 H 0.45446 0.70087 0.85523 0.0
H829 H 0.47099 0.70722 0.83052 0.0
H830 H 0.44836 0.66945 0.73651 0.0
H831 H 0.41531 0.68436 0.73995 0.0
H832 H 0.42373 0.68923 0.82793 0.0
C833 C 0.49923 0.66381 0.82001 0.0
C834 C 0.51302 0.65864 0.80058 0.0
C835 C 0.50687 0.65628 0.77259 0.0
C836 C 0.48748 0.65955 0.764 0.0
C837 C 0.47432 0.66496 0.78361 0.0
C838 C 0.47988 0.66693 0.81105 0.0
C839 C 0.46304 0.67405 0.82781 0.0
C840 C 0.45794 0.6572 0.84647 0.0
C841 C 0.46728 0.69517 0.8442 0.0
C842 C 0.44734 0.67631 0.80546 0.0
C843 C 0.45412 0.6709 0.7801 0.0
C844 C 0.44274 0.67335 0.75626 0.0
C845 C 0.42403 0.68184 0.75839 0.0
C846 C 0.41688 0.68763 0.78417 0.0
C847 C 0.42861 0.68443 0.80794 0.0
H848 H 0.09316 0.19954 0.50125 0.0
H849 H 0.15318 0.18757 0.52684 0.0
H850 H 0.15019 0.15092 0.50781 0.0
H851 H 0.07478 0.14839 0.51345 0.0
H852 H 0.05841 0.14654 0.48358 0.0
H853 H 0.06447 0.17184 0.50046 0.0
H854 H 0.07602 0.1842 0.45585 0.0
H855 H 0.06972 0.15918 0.43848 0.0
H856 H 0.09393 0.16888 0.43773 0.0
H857 H 0.14142 0.11606 0.48478 0.0
H858 H 0.12748 0.08544 0.45698 0.0
H859 H 0.07338 0.11945 0.44535 0.0
C860 C 0.10559 0.18913 0.50302 0.0
C861 C 0.12339 0.19643 0.51557 0.0
C862 C 0.13942 0.1824 0.51722 0.0
C863 C 0.13785 0.16149 0.50661 0.0
C864 C 0.12019 0.15481 0.49424 0.0
C865 C 0.10435 0.16818 0.49221 0.0
C866 C 0.08739 0.15718 0.47652 0.0
C867 C 0.07025 0.15591 0.49458 0.0
C868 C 0.08142 0.16801 0.45061 0.0
C869 C 0.0963 0.13569 0.46978 0.0
C870 C 0.11516 0.13462 0.48055 0.0
C871 C 0.12658 0.11661 0.47655 0.0
C872 C 0.11853 0.09924 0.46101 0.0
C873 C 0.09931 0.10001 0.44977 0.0
C874 C 0.08808 0.11849 0.45405 0.0
H875 H 0.90137 0.36252 0.73652 0.0
H876 H 0.84523 0.36483 0.69283 0.0
H877 H 0.84353 0.32619 0.6909 0.0
H878 H 0.9184 0.31005 0.70481 0.0
H879 H 0.92937 0.30324 0.73698 0.0
H880 H 0.92829 0.33024 0.7291 0.0
H881 H 0.91098 0.34026 0.77339 0.0
H882 H 0.9118 0.31337 0.78126 0.0
H883 H 0.88893 0.32722 0.77909 0.0
H884 H 0.84541 0.28841 0.70048 0.0
H885 H 0.85034 0.2549 0.72138 0.0
H886 H 0.90483 0.27742 0.76025 0.0
C887 C 0.88914 0.35481 0.72541 0.0
C888 C 0.8736 0.36659 0.7143 0.0
C889 C 0.85742 0.35603 0.70107 0.0
C890 C 0.85635 0.3341 0.69987 0.0
C891 C 0.87156 0.32297 0.71208 0.0
C892 C 0.88772 0.33298 0.7245 0.0
C893 C 0.9007 0.31795 0.73958 0.0
C894 C 0.92035 0.31521 0.72685 0.0
C895 C 0.90323 0.32513 0.77012 0.0
C896 C 0.88897 0.29812 0.73462 0.0
C897 C 0.87241 0.30121 0.71827 0.0
C898 C 0.85852 0.28568 0.71285 0.0
C899 C 0.86143 0.26669 0.72487 0.0
C900 C 0.87801 0.26345 0.74236 0.0
C901 C 0.89214 0.27924 0.74665 0.0
H902 H 0.575 0.0978 0.00822 0.0
H903 H 0.61251 0.07375 0.94541 0.0
H904 H 0.61676 0.10979 0.9326 0.0
H905 H 0.5527 0.14179 0.97193 0.0
H906 H 0.55275 0.15881 0.00289 0.0
H907 H 0.55019 0.13093 0.00397 0.0
H908 H 0.57962 0.13043 0.039 0.0
H909 H 0.58237 0.1582 0.03789 0.0
H910 H 0.60238 0.14065 0.03068 0.0
H911 H 0.62016 0.14881 0.93064 0.0
H912 H 0.62235 0.18729 0.9396 0.0
H913 H 0.58286 0.18546 0.00408 0.0
C914 C 0.58365 0.09998 0.99122 0.0
C915 C 0.5933 0.0829 0.97767 0.0
C916 C 0.60485 0.08656 0.95595 0.0
C917 C 0.60733 0.10699 0.94851 0.0
C918 C 0.5981 0.12355 0.96291 0.0
C919 C 0.58637 0.12022 0.98369 0.0
C920 C 0.57958 0.14072 0.99776 0.0
C921 C 0.55749 0.1432 0.9939 0.0
C922 C 0.58641 0.1426 0.02811 0.0
C923 C 0.58978 0.15613 0.9822 0.0
C924 C 0.60019 0.14598 0.96195 0.0
C925 C 0.61181 0.15694 0.94614 0.0
C926 C 0.613 0.1788 0.95142 0.0
C927 C 0.60273 0.18943 0.97246 0.0
C928 C 0.59073 0.17788 0.98763 0.0
H929 H 0.89616 0.81273 0.25529 0.0
H930 H 0.84402 0.79622 0.20536 0.0
H931 H 0.84342 0.83123 0.18773 0.0
H932 H 0.88184 0.86274 0.27593 0.0
H933 H 0.90535 0.87433 0.27584 0.0
H934 H 0.90343 0.84701 0.28088 0.0
H935 H 0.92459 0.83736 0.24011 0.0
H936 H 0.92655 0.86476 0.23492 0.0
H937 H 0.91755 0.84655 0.20741 0.0
H938 H 0.84592 0.86961 0.18075 0.0
H939 H 0.85103 0.90788 0.18561 0.0
H940 H 0.90184 0.89881 0.23951 0.0
C941 C 0.88488 0.81623 0.24011 0.0
C942 C 0.87018 0.80167 0.23163 0.0
C943 C 0.8555 0.80706 0.21207 0.0
C944 C 0.85508 0.82689 0.20186 0.0
C945 C 0.86954 0.84107 0.21121 0.0
C946 C 0.88425 0.8359 0.22978 0.0
C947 C 0.89695 0.8545 0.23871 0.0
C948 C 0.89687 0.85996 0.26965 0.0
C949 C 0.91764 0.85055 0.22974 0.0
C950 C 0.88668 0.8712 0.22308 0.0
C951 C 0.87106 0.86313 0.20702 0.0
C952 C 0.85835 0.87602 0.19279 0.0
C953 C 0.86137 0.89775 0.19567 0.0
C954 C 0.87693 0.90636 0.21275 0.0
C955 C 0.89004 0.89275 0.22585 0.0
H956 H 0.2048 0.10351 0.72665 0.0
H957 H 0.2255 0.1531 0.78605 0.0
H958 H 0.19348 0.15518 0.80548 0.0
H959 H 0.16116 0.12575 0.71175 0.0
H960 H 0.14751 0.10188 0.70731 0.0
H961 H 0.1729 0.10116 0.70184 0.0
H962 H 0.17868 0.07364 0.73711 0.0
H963 H 0.15318 0.07413 0.74259 0.0
H964 H 0.17059 0.07917 0.77095 0.0
H965 H 0.1578 0.15617 0.81301 0.0
H966 H 0.12207 0.15544 0.80842 0.0
H967 H 0.12492 0.10493 0.74447 0.0
C968 C 0.20286 0.1143 0.74437 0.0
C969 C 0.21775 0.12807 0.75489 0.0
C970 C 0.2144 0.14227 0.77773 0.0
C971 C 0.19623 0.14355 0.78894 0.0
C972 C 0.18161 0.13037 0.77729 0.0
C973 C 0.18483 0.11581 0.75571 0.0
C974 C 0.16627 0.10512 0.74484 0.0
C975 C 0.1617 0.10871 0.71467 0.0
C976 C 0.16725 0.08162 0.74914 0.0
C977 C 0.15195 0.11657 0.76288 0.0
C978 C 0.16107 0.13086 0.78175 0.0
C979 C 0.15056 0.14468 0.79876 0.0
C980 C 0.13025 0.14418 0.79598 0.0
C981 C 0.12065 0.13 0.77627 0.0
C982 C 0.13175 0.11567 0.76013 0.0
H983 H 0.80941 0.38317 0.02713 0.0
H984 H 0.81958 0.32548 0.06622 0.0
H985 H 0.85286 0.33669 0.08044 0.0
H986 H 0.85149 0.38244 0.99762 0.0
H987 H 0.85553 0.4103 0.00097 0.0
H988 H 0.83135 0.40061 0.00012 0.0
H989 H 0.82591 0.42148 0.04629 0.0
H990 H 0.85014 0.43143 0.04722 0.0
H991 H 0.84249 0.41797 0.0752 0.0
H992 H 0.88645 0.35058 0.08222 0.0
H993 H 0.9172 0.36575 0.0712 0.0
H994 H 0.88522 0.4143 0.03066 0.0
C995 C 0.81833 0.37329 0.03971 0.0
C996 C 0.81182 0.35352 0.04577 0.0
C997 C 0.82419 0.34076 0.06152 0.0
C998 C 0.84312 0.34704 0.06977 0.0
C999 C 0.84941 0.36618 0.06226 0.0
C1000 C 0.83729 0.37923 0.04781 0.0
C1001 C 0.84823 0.39741 0.03874 0.0
C1002 C 0.84655 0.39768 0.00753 0.0
C1003 C 0.84128 0.41831 0.05271 0.0
C1004 C 0.86858 0.39196 0.04905 0.0
C1005 C 0.86893 0.37416 0.06309 0.0
C1006 C 0.88631 0.36482 0.07186 0.0
C1007 C 0.90373 0.37353 0.06546 0.0
C1008 C 0.90365 0.39131 0.05021 0.0
C1009 C 0.88581 0.40097 0.04279 0.0
H1010 H 0.68362 0.18751 0.21076 0.0
H1011 H 0.7178 0.13378 0.23448 0.0
H1012 H 0.69344 0.12635 0.26656 0.0
H1013 H 0.66428 0.20254 0.27904 0.0
H1014 H 0.64103 0.20971 0.26381 0.0
H1015 H 0.66264 0.21287 0.24616 0.0
H1016 H 0.64798 0.19008 0.20421 0.0
H1017 H 0.62639 0.18724 0.2217 0.0
H1018 H 0.63935 0.16427 0.20867 0.0
H1019 H 0.66308 0.12136 0.29008 0.0
H1020 H 0.62922 0.11905 0.3023 0.0
H1021 H 0.61549 0.17701 0.26527 0.0
C1022 C 0.68625 0.17449 0.2232 0.0
C1023 C 0.70267 0.16128 0.22015 0.0
C1024 C 0.7054 0.14422 0.23654 0.0
C1025 C 0.69167 0.13991 0.25492 0.0
C1026 C 0.67541 0.15297 0.25698 0.0
C1027 C 0.67273 0.17004 0.24171 0.0
C1028 C 0.65317 0.1804 0.24566 0.0
C1029 C 0.65543 0.20271 0.2595 0.0
C1030 C 0.64102 0.18047 0.21845 0.0
C1031 C 0.64487 0.16589 0.26447 0.0
C1032 C 0.65801 0.15034 0.27111 0.0
C1033 C 0.65283 0.13374 0.28559 0.0
C1034 C 0.63355 0.13256 0.29249 0.0
C1035 C 0.6197 0.14788 0.28491 0.0
C1036 C 0.62575 0.16522 0.27182 0.0
H1037 H 0.90556 0.87948 0.53015 0.0
H1038 H 0.89043 0.94516 0.54651 0.0
H1039 H 0.85615 0.93568 0.54797 0.0
H1040 H 0.87036 0.86906 0.48328 0.0
H1041 H 0.86525 0.84281 0.4911 0.0
H1042 H 0.88879 0.85348 0.49981 0.0
H1043 H 0.88599 0.8464 0.55016 0.0
H1044 H 0.86242 0.83534 0.54159 0.0
H1045 H 0.86541 0.85647 0.56793 0.0
H1046 H 0.82344 0.92029 0.53761 0.0
H1047 H 0.79548 0.90066 0.51593 0.0
H1048 H 0.83187 0.84511 0.50449 0.0
C1049 C 0.89521 0.8918 0.5354 0.0
C1050 C 0.90071 0.91306 0.5385 0.0
C1051 C 0.88657 0.92876 0.54436 0.0
C1052 C 0.86705 0.92349 0.54527 0.0
C1053 C 0.86193 0.90247 0.54038 0.0
C1054 C 0.87567 0.88682 0.53585 0.0
C1055 C 0.86633 0.86603 0.52648 0.0
C1056 C 0.87307 0.85737 0.49852 0.0
C1057 C 0.87027 0.85012 0.54782 0.0
C1058 C 0.84524 0.87268 0.52477 0.0
C1059 C 0.84293 0.8936 0.53363 0.0
C1060 C 0.82501 0.90378 0.53124 0.0
C1061 C 0.80919 0.8925 0.5188 0.0
C1062 C 0.81146 0.87131 0.50853 0.0
C1063 C 0.82959 0.86118 0.51245 0.0
H1064 H 0.59416 0.11403 0.19227 0.0
H1065 H 0.56038 0.0635 0.21754 0.0
H1066 H 0.56899 0.04122 0.17654 0.0
H1067 H 0.58081 0.10731 0.12351 0.0
H1068 H 0.60414 0.1132 0.11206 0.0
H1069 H 0.59712 0.12424 0.14469 0.0
H1070 H 0.62787 0.10826 0.16811 0.0
H1071 H 0.63509 0.09742 0.13541 0.0
H1072 H 0.63281 0.08055 0.16238 0.0
H1073 H 0.57828 0.02621 0.13034 0.0
H1074 H 0.58918 0.01864 0.08389 0.0
H1075 H 0.61753 0.0789 0.08995 0.0
C1076 C 0.58879 0.09816 0.18943 0.0
C1077 C 0.57655 0.09045 0.20797 0.0
C1078 C 0.56985 0.06963 0.2036 0.0
C1079 C 0.57465 0.05691 0.18039 0.0
C1080 C 0.58637 0.06521 0.16214 0.0
C1081 C 0.59359 0.08526 0.16664 0.0
C1082 C 0.60516 0.09087 0.14341 0.0
C1083 C 0.59627 0.11003 0.13014 0.0
C1084 C 0.6265 0.09448 0.15291 0.0
C1085 C 0.60282 0.07108 0.12467 0.0
C1086 C 0.59203 0.05642 0.13585 0.0
C1087 C 0.587 0.03742 0.12156 0.0
C1088 C 0.59317 0.03333 0.09516 0.0
C1089 C 0.60428 0.04816 0.08341 0.0
C1090 C 0.60926 0.06716 0.09852 0.0
H1091 H 0.81686 0.76351 0.29523 0.0
H1092 H 0.83525 0.71818 0.35224 0.0
H1093 H 0.81165 0.73323 0.38406 0.0
H1094 H 0.81478 0.80495 0.33979 0.0
H1095 H 0.79363 0.81757 0.32508 0.0
H1096 H 0.80807 0.80019 0.304 0.0
H1097 H 0.77812 0.77754 0.28861 0.0
H1098 H 0.76339 0.79513 0.30931 0.0
H1099 H 0.7639 0.76746 0.31377 0.0
H1100 H 0.79265 0.75866 0.41376 0.0
H1101 H 0.77671 0.78971 0.43649 0.0
H1102 H 0.76931 0.81729 0.35935 0.0
C1103 C 0.81526 0.75614 0.31387 0.0
C1104 C 0.8278 0.73965 0.32123 0.0
C1105 C 0.8256 0.73063 0.346 0.0
C1106 C 0.81227 0.73915 0.36428 0.0
C1107 C 0.80096 0.75632 0.35715 0.0
C1108 C 0.80193 0.76434 0.33215 0.0
C1109 C 0.78989 0.78422 0.3305 0.0
C1110 C 0.80234 0.80281 0.32451 0.0
C1111 C 0.77281 0.78088 0.30929 0.0
C1112 C 0.78302 0.7869 0.35901 0.0
C1113 C 0.78936 0.77057 0.37406 0.0
C1114 C 0.78701 0.77114 0.40194 0.0
C1115 C 0.77807 0.78887 0.41472 0.0
C1116 C 0.7715 0.80569 0.39957 0.0
C1117 C 0.77366 0.80438 0.3713 0.0
H1118 H 0.205 0.18879 0.7009 0.0
H1119 H 0.25191 0.18597 0.64683 0.0
H1120 H 0.23627 0.21444 0.62217 0.0
H1121 H 0.17008 0.19018 0.65422 0.0
H1122 H 0.15368 0.20776 0.67205 0.0
H1123 H 0.17109 0.1928 0.69088 0.0
H1124 H 0.1849 0.22667 0.7167 0.0
H1125 H 0.1671 0.24188 0.69837 0.0
H1126 H 0.19244 0.24771 0.69789 0.0
H1127 H 0.21154 0.23576 0.59653 0.0
H1128 H 0.1811 0.24855 0.57409 0.0
H1129 H 0.15072 0.23751 0.64527 0.0
C1130 C 0.21242 0.19492 0.68469 0.0
C1131 C 0.22961 0.18534 0.67576 0.0
C1132 C 0.23884 0.19337 0.65421 0.0
C1133 C 0.23003 0.20951 0.64008 0.0
C1134 C 0.21226 0.21766 0.6482 0.0
C1135 C 0.2038 0.21093 0.67051 0.0
C1136 C 0.18338 0.21935 0.6726 0.0
C1137 C 0.16872 0.20146 0.6724 0.0
C1138 C 0.18188 0.23483 0.69789 0.0
C1139 C 0.18109 0.23052 0.64689 0.0
C1140 C 0.19799 0.22993 0.63335 0.0
C1141 C 0.19842 0.2369 0.60737 0.0
C1142 C 0.18108 0.2441 0.59474 0.0
C1143 C 0.16359 0.24389 0.60801 0.0
C1144 C 0.16387 0.2378 0.63471 0.0
H1145 H 0.91485 0.39204 0.80682 0.0
H1146 H 0.88628 0.45227 0.82232 0.0
H1147 H 0.90455 0.45741 0.86689 0.0
H1148 H 0.91451 0.37488 0.86961 0.0
H1149 H 0.93835 0.36304 0.86998 0.0
H1150 H 0.92507 0.36592 0.83819 0.0
H1151 H 0.95414 0.38611 0.82276 0.0
H1152 H 0.96702 0.38331 0.85512 0.0
H1153 H 0.963 0.40898 0.84324 0.0
H1154 H 0.92017 0.4522 0.91298 0.0
H1155 H 0.93575 0.43928 0.95499 0.0
H1156 H 0.95647 0.38407 0.90805 0.0
C1157 C 0.913 0.40661 0.81926 0.0
C1158 C 0.8993 0.42179 0.8113 0.0
C1159 C 0.89697 0.4406 0.82802 0.0
C1160 C 0.90722 0.44362 0.85337 0.0
C1161 C 0.92013 0.42795 0.86118 0.0
C1162 C 0.92351 0.4101 0.84425 0.0
C1163 C 0.93731 0.39515 0.858 0.0
C1164 C 0.92822 0.37349 0.85901 0.0
C1165 C 0.95651 0.39329 0.84395 0.0
C1166 C 0.93997 0.4066 0.88599 0.0
C1167 C 0.93009 0.42559 0.88738 0.0
C1168 C 0.9285 0.43772 0.91196 0.0
C1169 C 0.93724 0.43023 0.9357 0.0
C1170 C 0.94755 0.41095 0.93452 0.0
C1171 C 0.94916 0.3992 0.90931 0.0
H1172 H 0.23636 0.58637 0.11904 0.0
H1173 H 0.23717 0.53146 0.16483 0.0
H1174 H 0.2227 0.51068 0.12439 0.0
H1175 H 0.19209 0.57936 0.0872 0.0
H1176 H 0.19784 0.58846 0.05519 0.0
H1177 H 0.21145 0.59761 0.08583 0.0
H1178 H 0.24321 0.5847 0.0644 0.0
H1179 H 0.22959 0.57536 0.03361 0.0
H1180 H 0.24559 0.55773 0.05114 0.0
H1181 H 0.2021 0.49841 0.08299 0.0
H1182 H 0.17796 0.49552 0.04386 0.0
H1183 H 0.1928 0.55743 0.02356 0.0
C1184 C 0.23393 0.56984 0.12038 0.0
C1185 C 0.2378 0.5605 0.14504 0.0
C1186 C 0.23438 0.53887 0.14606 0.0
C1187 C 0.22624 0.52695 0.12316 0.0
C1188 C 0.22209 0.53681 0.09931 0.0
C1189 C 0.2261 0.55772 0.09769 0.0
C1190 C 0.21852 0.56525 0.07079 0.0
C1191 C 0.20412 0.58374 0.07503 0.0
C1192 C 0.23523 0.5711 0.05399 0.0
C1193 C 0.20855 0.54566 0.05811 0.0
C1194 C 0.21099 0.52931 0.0747 0.0
C1195 C 0.20067 0.51077 0.06933 0.0
C1196 C 0.18704 0.50922 0.04707 0.0
C1197 C 0.18408 0.52599 0.03036 0.0
C1198 C 0.19551 0.54403 0.03532 0.0
H1199 H 0.59727 0.24557 0.10014 0.0
H1200 H 0.53681 0.24379 0.07124 0.0
H1201 H 0.52851 0.23037 0.11443 0.0
H1202 H 0.59831 0.19844 0.12606 0.0
H1203 H 0.61476 0.20531 0.15501 0.0
H1204 H 0.61544 0.21918 0.12502 0.0
H1205 H 0.61026 0.25447 0.15345 0.0
H1206 H 0.60978 0.24071 0.18373 0.0
H1207 H 0.5899 0.25778 0.17446 0.0
H1208 H 0.52758 0.21228 0.15754 0.0
H1209 H 0.53412 0.19043 0.19603 0.0
H1210 H 0.59543 0.20294 0.19524 0.0
C1211 C 0.58218 0.24308 0.10318 0.0
C1212 C 0.56765 0.24588 0.08238 0.0
C1213 C 0.54815 0.24191 0.08699 0.0
C1214 C 0.5433 0.23434 0.11148 0.0
C1215 C 0.55813 0.23091 0.13111 0.0
C1216 C 0.57717 0.23529 0.12725 0.0
C1217 C 0.59075 0.22773 0.14967 0.0
C1218 C 0.60567 0.21172 0.13824 0.0
C1219 C 0.60075 0.24628 0.16631 0.0
C1220 C 0.57647 0.21754 0.16613 0.0
C1221 C 0.55768 0.21995 0.15553 0.0
C1222 C 0.54219 0.2106 0.16628 0.0
C1223 C 0.54606 0.19819 0.18811 0.0
C1224 C 0.5653 0.19499 0.19859 0.0
C1225 C 0.58057 0.20518 0.18776 0.0
H1226 H 0.83626 0.91237 0.30401 0.0
H1227 H 0.80447 0.96906 0.28571 0.0
H1228 H 0.78007 0.96121 0.31777 0.0
H1229 H 0.79435 0.88019 0.31092 0.0
H1230 H 0.8061 0.86694 0.33833 0.0
H1231 H 0.82026 0.87655 0.3128 0.0
H1232 H 0.84117 0.89788 0.3504 0.0
H1233 H 0.82706 0.8884 0.37601 0.0
H1234 H 0.82956 0.9162 0.3741 0.0
H1235 H 0.76007 0.9478 0.35398 0.0
H1236 H 0.74621 0.92986 0.39061 0.0
H1237 H 0.7915 0.88222 0.38412 0.0
C1238 C 0.82409 0.92308 0.3065 0.0
C1239 C 0.82225 0.94133 0.29236 0.0
C1240 C 0.80612 0.95494 0.29629 0.0
C1241 C 0.79221 0.95061 0.31444 0.0
C1242 C 0.7946 0.93256 0.3283 0.0
C1243 C 0.81011 0.91898 0.32438 0.0
C1244 C 0.8098 0.901 0.34226 0.0
C1245 C 0.80748 0.87993 0.32505 0.0
C1246 C 0.82797 0.90088 0.36185 0.0
C1247 C 0.79187 0.90675 0.35725 0.0
C1248 C 0.78319 0.92492 0.34889 0.0
C1249 C 0.76668 0.93348 0.36054 0.0
C1250 C 0.75892 0.92321 0.38133 0.0
C1251 C 0.76775 0.90465 0.39025 0.0
C1252 C 0.78434 0.89636 0.37779 0.0
H1253 H 0.14709 0.0383 0.56138 0.0
H1254 H 0.16337 0.07194 0.4939 0.0
H1255 H 0.19315 0.08373 0.52055 0.0
H1256 H 0.15954 0.07618 0.61125 0.0
H1257 H 0.16858 0.05899 0.63633 0.0
H1258 H 0.15068 0.04981 0.61038 0.0
H1259 H 0.17306 0.01862 0.59543 0.0
H1260 H 0.191 0.02754 0.62165 0.0
H1261 H 0.19735 0.02357 0.58679 0.0
H1262 H 0.21794 0.0966 0.55714 0.0
H1263 H 0.23671 0.10799 0.59979 0.0
H1264 H 0.2042 0.06565 0.64311 0.0
C1265 C 0.15721 0.04759 0.55185 0.0
C1266 C 0.15297 0.05412 0.52553 0.0
C1267 C 0.16644 0.06654 0.51392 0.0
C1268 C 0.18337 0.07334 0.52893 0.0
C1269 C 0.18669 0.06734 0.55531 0.0
C1270 C 0.17411 0.05447 0.56651 0.0
C1271 C 0.1799 0.05191 0.59608 0.0
C1272 C 0.16372 0.0597 0.61458 0.0
C1273 C 0.18568 0.02905 0.60022 0.0
C1274 C 0.19724 0.06606 0.60016 0.0
C1275 C 0.20108 0.07464 0.57635 0.0
C1276 C 0.21535 0.08962 0.57574 0.0
C1277 C 0.22586 0.09607 0.60009 0.0
C1278 C 0.222 0.08759 0.62472 0.0
C1279 C 0.20772 0.07215 0.62454 0.0
H1280 H 0.45886 0.34498 0.45044 0.0
H1281 H 0.42477 0.31327 0.50485 0.0
H1282 H 0.41772 0.2852 0.46846 0.0
H1283 H 0.42788 0.33827 0.39559 0.0
H1284 H 0.4455 0.33406 0.37031 0.0
H1285 H 0.45179 0.34899 0.40193 0.0
H1286 H 0.48087 0.32403 0.41122 0.0
H1287 H 0.47489 0.30914 0.37928 0.0
H1288 H 0.47702 0.2962 0.41034 0.0
H1289 H 0.40911 0.2648 0.42439 0.0
H1290 H 0.40131 0.25214 0.37653 0.0
H1291 H 0.44107 0.29699 0.35062 0.0
C1292 C 0.45054 0.33172 0.45509 0.0
C1293 C 0.4424 0.3313 0.48054 0.0
C1294 C 0.43126 0.31388 0.48558 0.0
C1295 C 0.42719 0.29785 0.46502 0.0
C1296 C 0.43456 0.29935 0.43968 0.0
C1297 C 0.44629 0.31567 0.43478 0.0
C1298 C 0.45048 0.31502 0.40502 0.0
C1299 C 0.44349 0.33528 0.3925 0.0
C1300 C 0.4721 0.31084 0.40125 0.0
C1301 C 0.43847 0.29643 0.39371 0.0
C1302 C 0.42962 0.28742 0.41409 0.0
C1303 C 0.41632 0.27136 0.40834 0.0
C1304 C 0.41188 0.26439 0.38108 0.0
C1305 C 0.42069 0.27351 0.3599 0.0
C1306 C 0.43439 0.28947 0.36641 0.0
H1307 H 0.05815 0.63633 0.15629 0.0
H1308 H 0.11669 0.64271 0.19232 0.0
H1309 H 0.12197 0.67184 0.16419 0.0
H1310 H 0.0702 0.65142 0.08618 0.0
H1311 H 0.04719 0.66473 0.08186 0.0
H1312 H 0.04928 0.64193 0.10098 0.0
H1313 H 0.03504 0.66327 0.14199 0.0
H1314 H 0.03312 0.68621 0.1234 0.0
H1315 H 0.04657 0.68718 0.15589 0.0
H1316 H 0.11764 0.70559 0.14235 0.0
H1317 H 0.10604 0.73758 0.12127 0.0
H1318 H 0.05224 0.70734 0.09421 0.0
C1319 C 0.07232 0.6433 0.15747 0.0
C1320 C 0.08696 0.63731 0.17661 0.0
C1321 C 0.10526 0.64697 0.17777 0.0
C1322 C 0.10839 0.66359 0.16189 0.0
C1323 C 0.09328 0.66993 0.14434 0.0
C1324 C 0.07581 0.65963 0.14134 0.0
C1325 C 0.06148 0.67043 0.1225 0.0
C1326 C 0.05677 0.65629 0.09632 0.0
C1327 C 0.04298 0.67717 0.13681 0.0
C1328 C 0.07315 0.6892 0.11689 0.0
C1329 C 0.09151 0.68857 0.12958 0.0
C1330 C 0.1038 0.70568 0.13088 0.0
C1331 C 0.09732 0.72366 0.11845 0.0
C1332 C 0.07906 0.72418 0.10418 0.0
C1333 C 0.06674 0.70682 0.10371 0.0
H1334 H 0.93128 0.29246 0.85105 0.0
H1335 H 0.92995 0.2315 0.88314 0.0
H1336 H 0.94325 0.24701 0.92775 0.0
H1337 H 0.97513 0.31245 0.88924 0.0
H1338 H 0.96495 0.33848 0.89471 0.0
H1339 H 0.95759 0.32205 0.86458 0.0
H1340 H 0.92189 0.32691 0.87636 0.0
H1341 H 0.9288 0.34289 0.90704 0.0
H1342 H 0.91465 0.3198 0.90869 0.0
H1343 H 0.95309 0.27024 0.97036 0.0
H1344 H 0.95919 0.29904 0.00652 0.0
H1345 H 0.95452 0.34402 0.94541 0.0
C1346 C 0.93426 0.28222 0.8672 0.0
C1347 C 0.92973 0.26075 0.86356 0.0
C1348 C 0.9334 0.24801 0.88546 0.0
C1349 C 0.94099 0.25666 0.91085 0.0
C1350 C 0.94488 0.27803 0.91394 0.0
C1351 C 0.94171 0.2906 0.89262 0.0
C1352 C 0.94528 0.31339 0.90171 0.0
C1353 C 0.96172 0.32209 0.88667 0.0
C1354 C 0.92655 0.32651 0.89823 0.0
C1355 C 0.95111 0.3117 0.9314 0.0
C1356 C 0.95071 0.29125 0.93824 0.0
C1357 C 0.95383 0.28627 0.96514 0.0
C1358 C 0.95725 0.30269 0.98553 0.0
C1359 C 0.9576 0.32373 0.97879 0.0
C1360 C 0.95481 0.32809 0.95128 0.0
H1361 H 0.19077 0.65045 0.25174 0.0
H1362 H 0.21522 0.58937 0.26692 0.0
H1363 H 0.18487 0.58013 0.28651 0.0
H1364 H 0.15913 0.65697 0.31142 0.0
H1365 H 0.14011 0.66892 0.29116 0.0
H1366 H 0.16505 0.6725 0.2844 0.0
H1367 H 0.15779 0.65819 0.23419 0.0
H1368 H 0.13295 0.65465 0.24086 0.0
H1369 H 0.14698 0.63276 0.22699 0.0
H1370 H 0.15043 0.57539 0.29695 0.0
H1371 H 0.11479 0.57484 0.29516 0.0
H1372 H 0.11265 0.63884 0.2723 0.0
C1373 C 0.19005 0.63543 0.26014 0.0
C1374 C 0.20545 0.62071 0.2581 0.0
C1375 C 0.20366 0.60095 0.2685 0.0
C1376 C 0.1865 0.59561 0.27977 0.0
C1377 C 0.1713 0.61023 0.28055 0.0
C1378 C 0.17296 0.62979 0.27108 0.0
C1379 C 0.15376 0.64149 0.27042 0.0
C1380 C 0.15457 0.66113 0.29056 0.0
C1381 C 0.14752 0.64707 0.2414 0.0
C1382 C 0.14081 0.62509 0.27976 0.0
C1383 C 0.15126 0.60736 0.28614 0.0
C1384 C 0.14216 0.58934 0.29256 0.0
C1385 C 0.12187 0.58917 0.29147 0.0
C1386 C 0.11089 0.60682 0.28369 0.0
C1387 C 0.12059 0.62523 0.27881 0.0
H1388 H 0.30999 0.82495 0.98733 0.0
H1389 H 0.2934 0.88922 0.01059 0.0
H1390 H 0.32675 0.89621 0.02984 0.0
H1391 H 0.34893 0.81796 0.04335 0.0
H1392 H 0.36386 0.80334 0.01967 0.0
H1393 H 0.33788 0.80184 0.01513 0.0
H1394 H 0.33927 0.81312 0.96615 0.0
H1395 H 0.3651 0.81469 0.97055 0.0
H1396 H 0.35107 0.8372 0.96097 0.0
H1397 H 0.36295 0.89766 0.03942 0.0
H1398 H 0.39824 0.89449 0.03375 0.0
H1399 H 0.39093 0.83015 0.00078 0.0
C1400 C 0.31313 0.84023 0.99761 0.0
C1401 C 0.29905 0.85643 0.99801 0.0
C1402 C 0.30394 0.87651 0.01049 0.0
C1403 C 0.32282 0.88057 0.02156 0.0
C1404 C 0.33663 0.86441 0.01982 0.0
C1405 C 0.33195 0.84462 0.00804 0.0
C1406 C 0.34981 0.83109 0.00389 0.0
C1407 C 0.35013 0.81246 0.02157 0.0
C1408 C 0.3514 0.82362 0.97361 0.0
C1409 C 0.36536 0.84662 0.01389 0.0
C1410 C 0.35755 0.86553 0.02394 0.0
C1411 C 0.36921 0.88279 0.03214 0.0
C1412 C 0.38922 0.88086 0.029 0.0
C1413 C 0.39712 0.86201 0.01714 0.0
C1414 C 0.38515 0.84458 0.01035 0.0
H1415 H 0.15912 0.60574 0.00166 0.0
H1416 H 0.10288 0.58665 0.96553 0.0
H1417 H 0.09435 0.62362 0.95927 0.0
H1418 H 0.14409 0.64691 0.04044 0.0
H1419 H 0.16382 0.6642 0.03686 0.0
H1420 H 0.16757 0.63634 0.03247 0.0
H1421 H 0.17951 0.63926 0.98439 0.0
H1422 H 0.17626 0.66733 0.98882 0.0
H1423 H 0.16468 0.6526 0.95978 0.0
H1424 H 0.08901 0.66227 0.96834 0.0
H1425 H 0.08881 0.69937 0.98717 0.0
H1426 H 0.14923 0.69349 0.01406 0.0
C1427 C 0.14533 0.60928 0.99135 0.0
C1428 C 0.13169 0.5934 0.984 0.0
C1429 C 0.11365 0.59857 0.971 0.0
C1430 C 0.10866 0.61955 0.96742 0.0
C1431 C 0.12207 0.63502 0.97632 0.0
C1432 C 0.14026 0.63007 0.98738 0.0
C1433 C 0.15121 0.64955 0.99819 0.0
C1434 C 0.15699 0.6492 0.02879 0.0
C1435 C 0.16897 0.65235 0.9818 0.0
C1436 C 0.13595 0.66617 0.99303 0.0
C1437 C 0.11926 0.65755 0.98023 0.0
C1438 C 0.10221 0.66935 0.97735 0.0
C1439 C 0.10218 0.69035 0.98817 0.0
C1440 C 0.11914 0.69931 0.00134 0.0
C1441 C 0.13631 0.68722 0.00306 0.0
H1442 H 0.35279 0.88673 0.71486 0.0
H1443 H 0.4148 0.88694 0.70678 0.0
H1444 H 0.41553 0.8483 0.70459 0.0
H1445 H 0.35332 0.8492 0.75952 0.0
H1446 H 0.33118 0.83662 0.74654 0.0
H1447 H 0.33468 0.86379 0.74188 0.0
H1448 H 0.3285 0.85624 0.68978 0.0
H1449 H 0.32477 0.82898 0.69428 0.0
H1450 H 0.34258 0.83622 0.67185 0.0
H1451 H 0.41059 0.81067 0.71157 0.0
H1452 H 0.40005 0.77661 0.72505 0.0
H1453 H 0.34117 0.80054 0.72797 0.0
C1454 C 0.36642 0.87865 0.71163 0.0
C1455 C 0.38374 0.88989 0.71084 0.0
C1456 C 0.40134 0.87869 0.70727 0.0
C1457 C 0.40189 0.85672 0.70598 0.0
C1458 C 0.3847 0.84616 0.70804 0.0
C1459 C 0.36723 0.85673 0.71044 0.0
C1460 C 0.35121 0.84192 0.71525 0.0
C1461 C 0.34208 0.84826 0.7424 0.0
C1462 C 0.33586 0.84077 0.69136 0.0
C1463 C 0.36254 0.82151 0.71629 0.0
C1464 C 0.3818 0.82425 0.71178 0.0
C1465 C 0.39548 0.8082 0.71444 0.0
C1466 C 0.38938 0.78894 0.72221 0.0
C1467 C 0.36976 0.78586 0.72716 0.0
C1468 C 0.35615 0.80226 0.7236 0.0
H1469 H 0.42573 0.77541 0.83697 0.0
H1470 H 0.37932 0.74129 0.86756 0.0
H1471 H 0.39166 0.75177 0.9147 0.0
H1472 H 0.46313 0.76482 0.88982 0.0
H1473 H 0.47297 0.79077 0.89087 0.0
H1474 H 0.46162 0.77888 0.85967 0.0
H1475 H 0.43814 0.81079 0.85679 0.0
H1476 H 0.44957 0.82285 0.8877 0.0
H1477 H 0.42385 0.81869 0.88522 0.0
H1478 H 0.40797 0.76785 0.95838 0.0
H1479 H 0.42462 0.79107 0.99457 0.0
H1480 H 0.46008 0.81466 0.93489 0.0
C1481 C 0.41828 0.7699 0.85355 0.0
C1482 C 0.40166 0.75742 0.84864 0.0
C1483 C 0.39213 0.75084 0.8709 0.0
C1484 C 0.39911 0.75658 0.89771 0.0
C1485 C 0.41561 0.76887 0.90184 0.0
C1486 C 0.42496 0.77559 0.88034 0.0
C1487 C 0.44136 0.79014 0.89008 0.0
C1488 C 0.46093 0.78057 0.88214 0.0
C1489 C 0.43802 0.8119 0.87932 0.0
C1490 C 0.43953 0.79096 0.92044 0.0
C1491 C 0.42483 0.77832 0.9269 0.0
C1492 C 0.41967 0.7776 0.9536 0.0
C1493 C 0.4293 0.79077 0.97406 0.0
C1494 C 0.44371 0.80462 0.96757 0.0
C1495 C 0.44928 0.80409 0.94055 0.0
H1496 H 0.10634 0.26057 0.63474 0.0
H1497 H 0.04536 0.26797 0.61131 0.0
H1498 H 0.03726 0.25782 0.65647 0.0
H1499 H 0.1004 0.21383 0.66254 0.0
H1500 H 0.1202 0.21837 0.68769 0.0
H1501 H 0.11989 0.23054 0.65629 0.0
H1502 H 0.12367 0.26668 0.68508 0.0
H1503 H 0.12265 0.25404 0.71616 0.0
H1504 H 0.10571 0.27484 0.70881 0.0
H1505 H 0.03595 0.24016 0.70022 0.0
H1506 H 0.04131 0.21559 0.7359 0.0
H1507 H 0.10327 0.21939 0.72957 0.0
C1508 C 0.09126 0.26064 0.63922 0.0
C1509 C 0.07648 0.26505 0.61943 0.0
C1510 C 0.05695 0.26481 0.62621 0.0
C1511 C 0.05224 0.2591 0.65185 0.0
C1512 C 0.06724 0.25383 0.67042 0.0
C1513 C 0.08638 0.25462 0.66428 0.0
C1514 C 0.09973 0.24487 0.68519 0.0
C1515 C 0.1107 0.22578 0.67217 0.0
C1516 C 0.11376 0.26109 0.69968 0.0
C1517 C 0.08519 0.23813 0.70406 0.0
C1518 C 0.0665 0.24359 0.69546 0.0
C1519 C 0.05053 0.23627 0.70748 0.0
C1520 C 0.05373 0.22231 0.7278 0.0
C1521 C 0.07275 0.21559 0.73558 0.0
C1522 C 0.08859 0.22449 0.72446 0.0
H1523 H 0.27348 0.79941 0.88984 0.0
H1524 H 0.31923 0.84459 0.88752 0.0
H1525 H 0.33629 0.81987 0.85608 0.0
H1526 H 0.30487 0.75261 0.8867 0.0
H1527 H 0.28749 0.73713 0.8654 0.0
H1528 H 0.27935 0.75792 0.88903 0.0
H1529 H 0.26005 0.77471 0.84959 0.0
H1530 H 0.26817 0.75404 0.82585 0.0
H1531 H 0.27242 0.78101 0.82039 0.0
H1532 H 0.34719 0.79149 0.82232 0.0
H1533 H 0.3516 0.76089 0.78981 0.0
H1534 H 0.29968 0.73338 0.81498 0.0
C1535 C 0.28718 0.80401 0.88296 0.0
C1536 C 0.295 0.82394 0.89118 0.0
C1537 C 0.31294 0.8294 0.88158 0.0
C1538 C 0.32277 0.81546 0.86371 0.0
C1539 C 0.31456 0.79606 0.85574 0.0
C1540 C 0.29725 0.79024 0.86516 0.0
C1541 C 0.29133 0.76868 0.85276 0.0
C1542 C 0.29073 0.75317 0.87479 0.0
C1543 C 0.27184 0.76968 0.83616 0.0
C1544 C 0.30784 0.76348 0.83454 0.0
C1545 C 0.3211 0.77946 0.83665 0.0
C1546 C 0.33709 0.77869 0.8209 0.0
C1547 C 0.3396 0.76109 0.80254 0.0
C1548 C 0.3264 0.74436 0.8002 0.0
C1549 C 0.31026 0.74573 0.81647 0.0
H1550 H 0.94352 0.91807 0.38862 0.0
H1551 H 0.92477 0.96083 0.45498 0.0
H1552 H 0.90915 0.98358 0.42181 0.0
H1553 H 0.95209 0.95768 0.34093 0.0
H1554 H 0.9427 0.9412 0.3119 0.0
H1555 H 0.95431 0.92957 0.34075 0.0
H1556 H 0.92375 0.90754 0.34491 0.0
H1557 H 0.91216 0.919 0.31604 0.0
H1558 H 0.90063 0.92065 0.34782 0.0
H1559 H 0.89322 -5e-05 0.38169 0.0
H1560 H 0.87684 0.00775 0.3378 0.0
H1561 H 0.906 0.95422 0.29777 0.0
C1562 C 0.93646 0.93243 0.39619 0.0
C1563 C 0.93548 0.93777 0.42437 0.0
C1564 C 0.92574 0.95647 0.43346 0.0
C1565 C 0.91692 0.96954 0.41479 0.0
C1566 C 0.91798 0.96369 0.38713 0.0
C1567 C 0.92747 0.94555 0.37785 0.0
C1568 C 0.92511 0.94187 0.34719 0.0
C1569 C 0.94472 0.94264 0.33445 0.0
C1570 C 0.9148 0.92104 0.3385 0.0
C1571 C 0.91245 0.96054 0.34071 0.0
C1572 C 0.90869 0.97308 0.36397 0.0
C1573 C 0.89627 0.99042 0.36328 0.0
C1574 C 0.88704 0.99474 0.33826 0.0
C1575 C 0.89023 0.9817 0.31433 0.0
C1576 C 0.90351 0.96472 0.31558 0.0
H1577 H 0.57027 0.63334 0.68926 0.0
H1578 H 0.5945 0.591 0.74696 0.0
H1579 H 0.60502 0.56677 0.70879 0.0
H1580 H 0.55178 0.59427 0.63964 0.0
H1581 H 0.55733 0.60854 0.61127 0.0
H1582 H 0.55241 0.62252 0.64326 0.0
H1583 H 0.58523 0.64112 0.64396 0.0
H1584 H 0.59055 0.62705 0.61217 0.0
H1585 H 0.60725 0.62577 0.64148 0.0
H1586 H 0.61117 0.5464 0.66366 0.0
H1587 H 0.6128 0.53196 0.61585 0.0
H1588 H 0.58535 0.58872 0.58884 0.0
C1589 C 0.57776 0.61897 0.69396 0.0
C1590 C 0.58155 0.61399 0.72105 0.0
C1591 C 0.59152 0.59511 0.7263 0.0
C1592 C 0.59753 0.58128 0.70478 0.0
C1593 C 0.59353 0.5867 0.67826 0.0
C1594 C 0.58391 0.60514 0.67286 0.0
C1595 C 0.58101 0.60727 0.64269 0.0
C1596 C 0.55935 0.60819 0.63369 0.0
C1597 C 0.59167 0.62644 0.6346 0.0
C1598 C 0.59034 0.58705 0.63184 0.0
C1599 C 0.59748 0.57534 0.65258 0.0
C1600 C 0.60584 0.55556 0.64728 0.0
C1601 C 0.60672 0.5475 0.62007 0.0
C1602 C 0.5994 0.55931 0.59862 0.0
C1603 C 0.59134 0.57942 0.60473 0.0
H1604 H 0.80224 0.31357 0.9323 0.0
H1605 H 0.76619 0.26025 0.9416 0.0
H1606 H 0.78496 0.23873 0.90801 0.0
H1607 H 0.80575 0.30386 0.8604 0.0
H1608 H 0.83028 0.31295 0.86158 0.0
H1609 H 0.81413 0.32347 0.88659 0.0
H1610 H 0.83865 0.31291 0.92507 0.0
H1611 H 0.85481 0.30234 0.90014 0.0
H1612 H 0.84695 0.28605 0.92523 0.0
H1613 H 0.8089 0.22303 0.87386 0.0
H1614 H 0.83498 0.21501 0.84224 0.0
H1615 H 0.85323 0.27978 0.85481 0.0
C1616 C 0.79834 0.2973 0.92755 0.0
C1617 C 0.7829 0.28847 0.93979 0.0
C1618 C 0.77806 0.26726 0.93253 0.0
C1619 C 0.78861 0.25497 0.91348 0.0
C1620 C 0.80371 0.26428 0.90167 0.0
C1621 C 0.80842 0.28503 0.90841 0.0
C1622 C 0.82491 0.29168 0.89267 0.0
C1623 C 0.81837 0.30901 0.87421 0.0
C1624 C 0.84236 0.29864 0.91193 0.0
C1625 C 0.82906 0.27131 0.87626 0.0
C1626 C 0.81676 0.25562 0.88162 0.0
C1627 C 0.81849 0.23526 0.86937 0.0
C1628 C 0.83331 0.23085 0.85145 0.0
C1629 C 0.84607 0.24678 0.84593 0.0
C1630 C 0.84364 0.26726 0.85833 0.0
H1631 H 0.11107 0.55155 0.0972 0.0
H1632 H 0.07121 0.59151 0.05308 0.0
H1633 H 0.05401 0.60028 0.0949 0.0
H1634 H 0.07802 0.52962 0.13475 0.0
H1635 H 0.09322 0.52931 0.16567 0.0
H1636 H 0.10397 0.52839 0.13343 0.0
H1637 H 0.12413 0.56134 0.14984 0.0
H1638 H 0.11362 0.5622 0.18234 0.0
H1639 H 0.112 0.58486 0.16299 0.0
H1640 H 0.03871 0.60093 0.13991 0.0
H1641 H 0.0282 0.59555 0.18588 0.0
H1642 H 0.07829 0.5556 0.20014 0.0
C1643 C 0.09893 0.56244 0.09641 0.0
C1644 C 0.0924 0.57075 0.07187 0.0
C1645 C 0.07647 0.58495 0.07169 0.0
C1646 C 0.06661 0.59004 0.09533 0.0
C1647 C 0.07307 0.58103 0.119 0.0
C1648 C 0.08906 0.5678 0.11981 0.0
C1649 C 0.09253 0.55936 0.14737 0.0
C1650 C 0.09188 0.53525 0.14515 0.0
C1651 C 0.11171 0.56742 0.16146 0.0
C1652 C 0.07543 0.56902 0.16152 0.0
C1653 C 0.06448 0.58169 0.14498 0.0
C1654 C 0.04737 0.59137 0.15321 0.0
C1655 C 0.04147 0.5882 0.17917 0.0
C1656 C 0.05266 0.57543 0.19627 0.0
C1657 C 0.06974 0.56567 0.18735 0.0
H1658 H 0.564 0.62819 0.52023 0.0
H1659 H 0.59763 0.59932 0.45567 0.0
H1660 H 0.60689 0.63449 0.44418 0.0
H1661 H 0.54869 0.67687 0.48689 0.0
H1662 H 0.55141 0.69259 0.51886 0.0
H1663 H 0.54428 0.6656 0.51808 0.0
H1664 H 0.57308 0.65834 0.55226 0.0
H1665 H 0.58033 0.68517 0.55304 0.0
H1666 H 0.59726 0.66438 0.54417 0.0
H1667 H 0.61664 0.67243 0.44481 0.0
H1668 H 0.6263 0.70904 0.45793 0.0
H1669 H 0.58642 0.71256 0.52243 0.0
C1670 C 0.57279 0.6292 0.50306 0.0
C1671 C 0.57997 0.61097 0.48873 0.0
C1672 C 0.59179 0.61306 0.46678 0.0
C1673 C 0.5971 0.63299 0.46009 0.0
C1674 C 0.59036 0.65065 0.4754 0.0
C1675 C 0.57831 0.64888 0.49631 0.0
C1676 C 0.57492 0.66986 0.5119 0.0
C1677 C 0.55355 0.67663 0.50873 0.0
C1678 C 0.58182 0.6694 0.5421 0.0
C1679 C 0.58758 0.68362 0.49726 0.0
C1680 C 0.5961 0.6724 0.47594 0.0
C1681 C 0.60974 0.68145 0.4611 0.0
C1682 C 0.61514 0.70228 0.46871 0.0
C1683 C 0.60707 0.71375 0.49115 0.0
C1684 C 0.59269 0.70438 0.50495 0.0
H1685 H 0.69644 0.65195 0.75233 0.0
H1686 H 0.682 0.59026 0.71383 0.0
H1687 H 0.65367 0.58953 0.74164 0.0
H1688 H 0.68316 0.64269 0.81953 0.0
H1689 H 0.6734 0.66876 0.82648 0.0
H1690 H 0.69256 0.66434 0.80359 0.0
H1691 H 0.67152 0.68158 0.76644 0.0
H1692 H 0.65188 0.68565 0.78859 0.0
H1693 H 0.64801 0.67124 0.75586 0.0
H1694 H 0.62695 0.59547 0.77376 0.0
H1695 H 0.60347 0.60799 0.80758 0.0
H1696 H 0.63544 0.66552 0.82529 0.0
C1697 C 0.68739 0.63823 0.74979 0.0
C1698 C 0.6915 0.62113 0.73091 0.0
C1699 C 0.67921 0.60353 0.7282 0.0
C1700 C 0.66307 0.60296 0.7439 0.0
C1701 C 0.65944 0.62009 0.76229 0.0
C1702 C 0.67127 0.63738 0.76535 0.0
C1703 C 0.66411 0.65378 0.78644 0.0
C1704 C 0.67921 0.65761 0.81043 0.0
C1705 C 0.65855 0.67428 0.77357 0.0
C1706 C 0.64645 0.64297 0.79487 0.0
C1707 C 0.64398 0.62358 0.78063 0.0
C1708 C 0.62863 0.6107 0.78484 0.0
C1709 C 0.61537 0.61792 0.80394 0.0
C1710 C 0.61752 0.63782 0.81836 0.0
C1711 C 0.63342 0.65034 0.81414 0.0
H1712 H 0.22128 0.65052 0.14566 0.0
H1713 H 0.24025 0.70374 0.20054 0.0
H1714 H 0.21523 0.726 0.17857 0.0
H1715 H 0.20853 0.67894 0.08574 0.0
H1716 H 0.18792 0.66257 0.07618 0.0
H1717 H 0.2088 0.65206 0.09416 0.0
H1718 H 0.18682 0.64123 0.13104 0.0
H1719 H 0.16599 0.65211 0.1134 0.0
H1720 H 0.17203 0.66087 0.14846 0.0
H1721 H 0.18601 0.74144 0.15276 0.0
H1722 H 0.15626 0.74897 0.12465 0.0
H1723 H 0.15661 0.68479 0.08846 0.0
C1724 C 0.22052 0.66696 0.15284 0.0
C1725 C 0.23279 0.67541 0.17482 0.0
C1726 C 0.23112 0.69696 0.18359 0.0
C1727 C 0.21691 0.70969 0.1713 0.0
C1728 C 0.20459 0.70057 0.15031 0.0
C1729 C 0.20641 0.6797 0.14107 0.0
C1730 C 0.19078 0.67316 0.11948 0.0
C1731 C 0.19954 0.66629 0.09228 0.0
C1732 C 0.17817 0.65582 0.12866 0.0
C1733 C 0.17961 0.69355 0.11816 0.0
C1734 C 0.1878 0.70925 0.13592 0.0
C1735 C 0.17959 0.7293 0.13864 0.0
C1736 C 0.16268 0.7334 0.12265 0.0
C1737 C 0.15411 0.71746 0.10437 0.0
C1738 C 0.16276 0.69732 0.10223 0.0
H1739 H 0.62853 0.70893 0.62155 0.0
H1740 H 0.59441 0.76601 0.63453 0.0
H1741 H 0.58873 0.75685 0.68114 0.0
H1742 H 0.59976 0.6765 0.65491 0.0
H1743 H 0.61968 0.66163 0.66916 0.0
H1744 H 0.62201 0.6735 0.63788 0.0
H1745 H 0.65248 0.69318 0.6588 0.0
H1746 H 0.65033 0.68138 0.69027 0.0
H1747 H 0.65111 0.7095 0.69018 0.0
H1748 H 0.5848 0.73946 0.72506 0.0
H1749 H 0.58299 0.71572 0.76183 0.0
H1750 H 0.62091 0.67124 0.71938 0.0
C1751 C 0.61991 0.71962 0.63417 0.0
C1752 C 0.61178 0.73812 0.62442 0.0
C1753 C 0.60074 0.75173 0.64166 0.0
C1754 C 0.59751 0.74668 0.66814 0.0
C1755 C 0.60572 0.72819 0.67705 0.0
C1756 C 0.61681 0.71499 0.66055 0.0
C1757 C 0.6235 0.69569 0.67426 0.0
C1758 C 0.61577 0.67565 0.65809 0.0
C1759 C 0.64567 0.69491 0.67864 0.0
C1760 C 0.61405 0.69977 0.7009 0.0
C1761 C 0.60393 0.71861 0.70231 0.0
C1762 C 0.59293 0.72485 0.72433 0.0
C1763 C 0.59199 0.71128 0.74511 0.0
C1764 C 0.60201 0.69176 0.74365 0.0
C1765 C 0.61345 0.68625 0.72148 0.0
H1766 H 0.83356 0.40207 0.82324 0.0
H1767 H 0.77871 0.42598 0.7903 0.0
H1768 H 0.76302 0.41637 0.8311 0.0
H1769 H 0.81473 0.35795 0.85191 0.0
H1770 H 0.83173 0.36002 0.8811 0.0
H1771 H 0.83823 0.36902 0.84945 0.0
H1772 H 0.84598 0.40561 0.87405 0.0
H1773 H 0.83926 0.39672 0.9057 0.0
H1774 H 0.82767 0.41964 0.89289 0.0
H1775 H 0.75342 0.4033 0.8757 0.0
H1776 H 0.75076 0.3875 0.91932 0.0
H1777 H 0.81229 0.37304 0.92201 0.0
C1778 C 0.81824 0.40534 0.82448 0.0
C1779 C 0.80735 0.41479 0.80355 0.0
C1780 C 0.78733 0.41873 0.80609 0.0
C1781 C 0.77831 0.41338 0.82919 0.0
C1782 C 0.78955 0.40414 0.84949 0.0
C1783 C 0.80908 0.40015 0.84724 0.0
C1784 C 0.81801 0.38986 0.87152 0.0
C1785 C 0.82614 0.36792 0.86297 0.0
C1786 C 0.83365 0.4038 0.88695 0.0
C1787 C 0.80045 0.3886 0.88786 0.0
C1788 C 0.78414 0.39689 0.87493 0.0
C1789 C 0.76613 0.39687 0.88604 0.0
C1790 C 0.76476 0.3879 0.91082 0.0
C1791 C 0.78132 0.37914 0.92415 0.0
C1792 C 0.79937 0.37976 0.91252 0.0
H1793 H 0.94744 0.85255 0.43168 0.0
H1794 H 0.93339 0.82456 0.50483 0.0
H1795 H 0.9204 0.79366 0.47677 0.0
H1796 H 0.90574 0.83839 0.39363 0.0
H1797 H 0.91688 0.83316 0.36174 0.0
H1798 H 0.92764 0.85156 0.38755 0.0
H1799 H 0.95998 0.83054 0.38668 0.0
H1800 H 0.94935 0.81212 0.36064 0.0
H1801 H 0.96016 0.80296 0.39167 0.0
H1802 H 0.90527 0.76808 0.44062 0.0
H1803 H 0.89019 0.7492 0.3992 0.0
H1804 H 0.91449 0.79397 0.34999 0.0
C1805 C 0.94209 0.83969 0.44189 0.0
C1806 C 0.94151 0.84092 0.47046 0.0
C1807 C 0.93413 0.8239 0.48299 0.0
C1808 C 0.92671 0.80628 0.46721 0.0
C1809 C 0.92698 0.80587 0.43902 0.0
C1810 C 0.93468 0.82204 0.42649 0.0
C1811 C 0.93192 0.81859 0.39587 0.0
C1812 C 0.91982 0.83648 0.38402 0.0
C1813 C 0.95152 0.81589 0.38296 0.0
C1814 C 0.92092 0.79828 0.39312 0.0
C1815 C 0.91836 0.79108 0.4182 0.0
C1816 C 0.90747 0.77336 0.42084 0.0
C1817 C 0.89891 0.76281 0.39722 0.0
C1818 C 0.90127 0.77006 0.37137 0.0
C1819 C 0.91264 0.78786 0.36939 0.0
H1820 H 0.38726 0.37222 0.52365 0.0
H1821 H 0.37676 0.4394 0.52976 0.0
H1822 H 0.3416 0.43338 0.52402 0.0
H1823 H 0.35537 0.36096 0.47101 0.0
H1824 H 0.34714 0.33642 0.48118 0.0
H1825 H 0.3708 0.34562 0.49271 0.0
H1826 H 0.36264 0.34345 0.54277 0.0
H1827 H 0.33889 0.334 0.5314 0.0
H1828 H 0.34144 0.35684 0.55522 0.0
H1829 H 0.30865 0.42042 0.50875 0.0
H1830 H 0.28074 0.40166 0.48534 0.0
H1831 H 0.31262 0.34285 0.4887 0.0
C1832 C 0.37754 0.38567 0.52497 0.0
C1833 C 0.38474 0.40629 0.5274 0.0
C1834 C 0.37156 0.42347 0.52813 0.0
C1835 C 0.35155 0.42019 0.52497 0.0
C1836 C 0.34495 0.39964 0.52128 0.0
C1837 C 0.35756 0.38264 0.52156 0.0
C1838 C 0.34712 0.3623 0.51328 0.0
C1839 C 0.35561 0.35067 0.48805 0.0
C1840 C 0.34755 0.34832 0.53709 0.0
C1841 C 0.32689 0.37059 0.50684 0.0
C1842 C 0.32582 0.39212 0.51216 0.0
C1843 C 0.30917 0.40352 0.50513 0.0
C1844 C 0.2934 0.39273 0.49174 0.0
C1845 C 0.29444 0.37076 0.48532 0.0
C1846 C 0.31122 0.35957 0.49376 0.0
H1847 H 0.41712 0.39001 0.23623 0.0
H1848 H 0.36523 0.40081 0.18521 0.0
H1849 H 0.35903 0.36275 0.18058 0.0
H1850 H 0.43042 0.33689 0.20333 0.0
H1851 H 0.43811 0.32774 0.23583 0.0
H1852 H 0.44068 0.35497 0.2301 0.0
H1853 H 0.42115 0.36568 0.27219 0.0
H1854 H 0.4183 0.3386 0.27786 0.0
H1855 H 0.39727 0.35531 0.27386 0.0
H1856 H 0.35574 0.32453 0.18759 0.0
H1857 H 0.3556 0.28971 0.20555 0.0
H1858 H 0.40919 0.30431 0.25309 0.0
C1859 C 0.40486 0.38434 0.22318 0.0
C1860 C 0.39177 0.3984 0.21084 0.0
C1861 C 0.37557 0.39033 0.19463 0.0
C1862 C 0.37194 0.36872 0.19187 0.0
C1863 C 0.38469 0.35539 0.20536 0.0
C1864 C 0.40093 0.3629 0.22052 0.0
C1865 C 0.41101 0.34587 0.23583 0.0
C1866 C 0.43125 0.34108 0.22565 0.0
C1867 C 0.41197 0.35172 0.26675 0.0
C1868 C 0.39748 0.3278 0.22784 0.0
C1869 C 0.38259 0.33345 0.20985 0.0
C1870 C 0.36753 0.31983 0.20127 0.0
C1871 C 0.36756 0.30007 0.21164 0.0
C1872 C 0.38242 0.29422 0.23068 0.0
C1873 C 0.39774 0.30818 0.23835 0.0
H1874 H 0.32756 0.25612 0.28863 0.0
H1875 H 0.34297 0.21878 0.35621 0.0
H1876 H 0.31524 0.23398 0.38019 0.0
H1877 H 0.31863 0.30053 0.32546 0.0
H1878 H 0.29838 0.30973 0.30481 0.0
H1879 H 0.3159 0.29216 0.2897 0.0
H1880 H 0.28897 0.26593 0.27234 0.0
H1881 H 0.27119 0.28363 0.28703 0.0
H1882 H 0.27283 0.2569 0.29594 0.0
H1883 H 0.29151 0.2591 0.40115 0.0
H1884 H 0.27154 0.28995 0.41558 0.0
H1885 H 0.27079 0.31036 0.33411 0.0
C1886 C 0.32462 0.25043 0.30794 0.0
C1887 C 0.33747 0.23628 0.32054 0.0
C1888 C 0.33331 0.22954 0.34607 0.0
C1889 C 0.31755 0.23809 0.35987 0.0
C1890 C 0.30591 0.25307 0.34766 0.0
C1891 C 0.30897 0.25884 0.32196 0.0
C1892 C 0.29602 0.27713 0.31479 0.0
C1893 C 0.30795 0.29598 0.30834 0.0
C1894 C 0.28138 0.27049 0.29112 0.0
C1895 C 0.2861 0.2816 0.34108 0.0
C1896 C 0.29177 0.26737 0.35967 0.0
C1897 C 0.28646 0.26993 0.38651 0.0
C1898 C 0.27524 0.28755 0.39457 0.0
C1899 C 0.26943 0.30234 0.37585 0.0
C1900 C 0.27458 0.299 0.34866 0.0
H1901 H 0.03741 0.11188 0.66155 0.0
H1902 H 0.08441 0.15616 0.6757 0.0
H1903 H 0.0918 0.15034 0.62752 0.0
H1904 H 0.06218 0.07553 0.61881 0.0
H1905 H 0.04129 0.06817 0.5967 0.0
H1906 H 0.03832 0.07762 0.63149 0.0
H1907 H 0.01464 0.10653 0.61534 0.0
H1908 H 0.01768 0.09722 0.58042 0.0
H1909 H 0.02234 0.12425 0.59181 0.0
H1910 H 0.09577 0.13784 0.57904 0.0
H1911 H 0.09742 0.11766 0.53447 0.0
H1912 H 0.04795 0.08142 0.55168 0.0
C1913 C 0.04905 0.12058 0.65439 0.0
C1914 C 0.06028 0.13451 0.67231 0.0
C1915 C 0.07564 0.14535 0.66232 0.0
C1916 C 0.07986 0.14229 0.63494 0.0
C1917 C 0.0686 0.12834 0.61782 0.0
C1918 C 0.05357 0.11757 0.62714 0.0
C1919 C 0.04482 0.10212 0.60509 0.0
C1920 C 0.04678 0.07953 0.61353 0.0
C1921 C 0.02361 0.10789 0.59773 0.0
C1922 C 0.05755 0.10557 0.58213 0.0
C1923 C 0.071 0.12097 0.58978 0.0
C1924 C 0.08517 0.12592 0.57269 0.0
C1925 C 0.086 0.11437 0.54743 0.0
C1926 C 0.07276 0.09805 0.53958 0.0
C1927 C 0.05805 0.09404 0.5569 0.0
H1928 H 0.65736 0.25291 0.09785 0.0
H1929 H 0.66881 0.2453 0.01234 0.0
H1930 H 0.70202 0.23292 0.02455 0.0
H1931 H 0.70808 0.26716 0.12516 0.0
H1932 H 0.70577 0.25228 0.15412 0.0
H1933 H 0.68483 0.2651 0.13909 0.0
H1934 H 0.66691 0.22966 0.13294 0.0
H1935 H 0.68769 0.21679 0.14783 0.0
H1936 H 0.67786 0.20752 0.11445 0.0
H1937 H 0.73125 0.21508 0.04542 0.0
H1938 H 0.75322 0.19301 0.0725 0.0
H1939 H 0.72256 0.21248 0.14439 0.0
C1940 C 0.66703 0.24935 0.08168 0.0
C1941 C 0.6605 0.25007 0.05413 0.0
C1942 C 0.67352 0.24489 0.03359 0.0
C1943 C 0.69244 0.23794 0.04037 0.0
C1944 C 0.69814 0.23651 0.06775 0.0
C1945 C 0.68583 0.24228 0.0881 0.0
C1946 C 0.69427 0.23665 0.11556 0.0
C1947 C 0.69849 0.25648 0.1346 0.0
C1948 C 0.68089 0.22177 0.12842 0.0
C1949 C 0.7128 0.22571 0.10736 0.0
C1950 C 0.71503 0.22619 0.07982 0.0
C1951 C 0.72989 0.21504 0.06709 0.0
C1952 C 0.74232 0.20251 0.08267 0.0
C1953 C 0.73969 0.20107 0.11062 0.0
C1954 C 0.72521 0.21353 0.12322 0.0
H1955 H 0.3857 0.46772 0.34871 0.0
H1956 H 0.43133 0.45463 0.29324 0.0
H1957 H 0.45291 0.44324 0.33111 0.0
H1958 H 0.41699 0.48497 0.41007 0.0
H1959 H 0.40203 0.47219 0.43205 0.0
H1960 H 0.39139 0.48247 0.40162 0.0
H1961 H 0.37732 0.4459 0.38579 0.0
H1962 H 0.388 0.43549 0.41599 0.0
H1963 H 0.39339 0.42344 0.383 0.0
H1964 H 0.46823 0.42989 0.37393 0.0
H1965 H 0.47578 0.41488 0.41785 0.0
H1966 H 0.41957 0.43578 0.44449 0.0
C1967 C 0.40041 0.46306 0.34465 0.0
C1968 C 0.40692 0.46225 0.31812 0.0
C1969 C 0.42611 0.45549 0.31349 0.0
C1970 C 0.43847 0.44905 0.33487 0.0
C1971 C 0.4314 0.44949 0.36069 0.0
C1972 C 0.41283 0.45637 0.36565 0.0
C1973 C 0.40802 0.45331 0.39444 0.0
C1974 C 0.4044 0.4745 0.41049 0.0
C1975 C 0.39066 0.43866 0.3948 0.0
C1976 C 0.42659 0.44308 0.4047 0.0
C1977 C 0.44003 0.44131 0.38512 0.0
C1978 C 0.45791 0.43143 0.38953 0.0
C1979 C 0.46205 0.42293 0.41452 0.0
C1980 C 0.44826 0.42416 0.43457 0.0
C1981 C 0.43044 0.43465 0.42962 0.0
H1982 H 0.63786 0.51873 0.53902 0.0
H1983 H 0.66067 0.55323 0.47664 0.0
H1984 H 0.69167 0.55687 0.5037 0.0
H1985 H 0.65166 0.5508 0.58935 0.0
H1986 H 0.65822 0.53276 0.6146 0.0
H1987 H 0.64114 0.5251 0.58704 0.0
H1988 H 0.66181 0.49263 0.57277 0.0
H1989 H 0.67897 0.49961 0.60089 0.0
H1990 H 0.68698 0.4956 0.56684 0.0
H1991 H 0.71542 0.56595 0.54171 0.0
H1992 H 0.7304 0.57845 0.58647 0.0
H1993 H 0.69211 0.53923 0.62557 0.0
C1994 C 0.64971 0.52606 0.53035 0.0
C1995 C 0.64683 0.53573 0.50573 0.0
C1996 C 0.66256 0.54561 0.49538 0.0
C1997 C 0.68027 0.54772 0.51065 0.0
C1998 C 0.68207 0.53967 0.53606 0.0
C1999 C 0.6673 0.52864 0.54565 0.0
C2000 C 0.67122 0.52521 0.57548 0.0
C2001 C 0.65459 0.53403 0.5926 0.0
C2002 C 0.67498 0.50187 0.57921 0.0
C2003 C 0.68951 0.5377 0.5818 0.0
C2004 C 0.69591 0.54528 0.55859 0.0
C2005 C 0.71093 0.55957 0.55985 0.0
C2006 C 0.71925 0.56671 0.58542 0.0
C2007 C 0.71243 0.55972 0.60946 0.0
C2008 C 0.69787 0.54447 0.60749 0.0
H2009 H 0.26491 0.88552 0.86386 0.0
H2010 H 0.26918 0.94311 0.91672 0.0
H2011 H 0.28404 0.96041 0.88039 0.0
H2012 H 0.30983 0.88787 0.84105 0.0
H2013 H 0.30379 0.87668 0.80696 0.0
H2014 H 0.28969 0.87036 0.83433 0.0
H2015 H 0.25848 0.88321 0.80866 0.0
H2016 H 0.2725 0.88944 0.78099 0.0
H2017 H 0.25739 0.90928 0.79737 0.0
H2018 H 0.30256 0.96968 0.84095 0.0
H2019 H 0.32411 0.96978 0.80307 0.0
H2020 H 0.30864 0.90544 0.77734 0.0
C2021 C 0.26829 0.902 0.86754 0.0
C2022 C 0.26566 0.91306 0.89302 0.0
C2023 C 0.27089 0.93441 0.89724 0.0
C2024 C 0.27928 0.94436 0.8767 0.0
C2025 C 0.28233 0.93271 0.85215 0.0
C2026 C 0.27692 0.91199 0.84752 0.0
C2027 C 0.28411 0.90198 0.82115 0.0
C2028 C 0.29765 0.88313 0.8262 0.0
C2029 C 0.2671 0.89561 0.80084 0.0
C2030 C 0.295 0.92009 0.81203 0.0
C2031 C 0.29349 0.93782 0.82983 0.0
C2032 C 0.30356 0.956 0.82664 0.0
C2033 C 0.31578 0.9559 0.80506 0.0
C2034 C 0.31802 0.93761 0.7872 0.0
C2035 C 0.3071 0.91972 0.79045 0.0
H2036 H 0.6987 0.08676 0.1314 0.0
H2037 H 0.73356 0.12162 0.08127 0.0
H2038 H 0.7224 0.09878 0.04082 0.0
H2039 H 0.70574 0.03492 0.09454 0.0
H2040 H 0.68126 0.02718 0.09852 0.0
H2041 H 0.69334 0.04503 0.12396 0.0
H2042 H 0.66544 0.07228 0.11849 0.0
H2043 H 0.65325 0.05432 0.09352 0.0
H2044 H 0.65853 0.08038 0.08516 0.0
H2045 H 0.70458 0.0749 0.00522 0.0
H2046 H 0.6809 0.05241 0.97747 0.0
H2047 H 0.65937 0.03184 0.05122 0.0
C2048 C 0.70418 0.08945 0.11198 0.0
C2049 C 0.717 0.10597 0.10951 0.0
C2050 C 0.72375 0.10902 0.08369 0.0
C2051 C 0.71757 0.09607 0.0606 0.0
C2052 C 0.70485 0.07998 0.06372 0.0
C2053 C 0.69828 0.07659 0.08879 0.0
C2054 C 0.68375 0.05908 0.08645 0.0
C2055 C 0.6915 0.04045 0.10178 0.0
C2056 C 0.66409 0.067 0.09648 0.0
C2057 C 0.68268 0.05365 0.05602 0.0
C2058 C 0.69506 0.06573 0.04325 0.0
C2059 C 0.69511 0.06501 0.01499 0.0
C2060 C 0.68167 0.05216 0.99938 0.0
C2061 C 0.66846 0.04018 0.01212 0.0
C2062 C 0.66957 0.04038 0.04079 0.0
H2063 H 0.4464 0.87817 0.88755 0.0
H2064 H 0.44004 0.92412 0.95629 0.0
H2065 H 0.42729 0.94987 0.92518 0.0
H2066 H 0.45921 0.91589 0.83814 0.0
H2067 H 0.44545 0.90183 0.81047 0.0
H2068 H 0.45665 0.88788 0.83765 0.0
H2069 H 0.42345 0.8725 0.84623 0.0
H2070 H 0.4122 0.88634 0.81913 0.0
H2071 H 0.4033 0.89005 0.85269 0.0
H2072 H 0.41144 0.96892 0.888 0.0
H2073 H 0.39335 0.97999 0.8469 0.0
H2074 H 0.41051 0.92224 0.80185 0.0
C2075 C 0.44275 0.89381 0.89598 0.0
C2076 C 0.44425 0.89916 0.92431 0.0
C2077 C 0.43899 0.91966 0.93463 0.0
C2078 C 0.43184 0.93445 0.91712 0.0
C2079 C 0.43016 0.92856 0.88934 0.0
C2080 C 0.43554 0.90878 0.87876 0.0
C2081 C 0.43065 0.90587 0.8484 0.0
C2082 C 0.44909 0.90268 0.83274 0.0
C2083 C 0.41656 0.88762 0.84121 0.0
C2084 C 0.42105 0.92682 0.84379 0.0
C2085 C 0.42115 0.93977 0.86762 0.0
C2086 C 0.4116 0.95914 0.86907 0.0
C2087 C 0.40134 0.96527 0.84567 0.0
C2088 C 0.40076 0.95208 0.8212 0.0
C2089 C 0.41114 0.93287 0.82013 0.0
H2090 H 0.67915 0.70037 0.54593 0.0
H2091 H 0.68187 0.76038 0.59373 0.0
H2092 H 0.70811 0.74659 0.62365 0.0
H2093 H 0.68194 0.67073 0.59863 0.0
H2094 H 0.69634 0.64967 0.58344 0.0
H2095 H 0.68137 0.66555 0.56218 0.0
H2096 H 0.71116 0.67475 0.5365 0.0
H2097 H 0.72629 0.65867 0.55761 0.0
H2098 H 0.73224 0.68573 0.55534 0.0
H2099 H 0.72941 0.7242 0.6533 0.0
H2100 H 0.74365 0.69552 0.67909 0.0
H2101 H 0.7268 0.65061 0.61149 0.0
C2102 C 0.68573 0.71089 0.56207 0.0
C2103 C 0.67848 0.73145 0.56742 0.0
C2104 C 0.68728 0.74459 0.58908 0.0
C2105 C 0.70223 0.7369 0.60619 0.0
C2106 C 0.7084 0.71616 0.60113 0.0
C2107 C 0.70057 0.70345 0.5793 0.0
C2108 C 0.70776 0.68107 0.58014 0.0
C2109 C 0.69085 0.66589 0.58118 0.0
C2110 C 0.7201 0.67469 0.55596 0.0
C2111 C 0.72001 0.6829 0.60658 0.0
C2112 C 0.72059 0.70329 0.61821 0.0
C2113 C 0.72945 0.70826 0.64407 0.0
C2114 C 0.7375 0.69189 0.65859 0.0
C2115 C 0.73634 0.67086 0.64729 0.0
C2116 C 0.72803 0.66654 0.62064 0.0
H2117 H 0.32817 0.40256 0.27621 0.0
H2118 H 0.3241 0.47032 0.28995 0.0
H2119 H 0.29769 0.46679 0.32051 0.0
H2120 H 0.2758 0.39235 0.27855 0.0
H2121 H 0.28042 0.36885 0.29571 0.0
H2122 H 0.29735 0.37688 0.27252 0.0
H2123 H 0.32491 0.37632 0.31046 0.0
H2124 H 0.30808 0.36833 0.33367 0.0
H2125 H 0.32222 0.39155 0.3424 0.0
H2126 H 0.2746 0.45565 0.35393 0.0
H2127 H 0.25633 0.43777 0.38646 0.0
H2128 H 0.27495 0.3775 0.3493 0.0
C2129 C 0.3215 0.41669 0.28522 0.0
C2130 C 0.32818 0.43671 0.28067 0.0
C2131 C 0.31914 0.45481 0.29302 0.0
C2132 C 0.30411 0.45296 0.31039 0.0
C2133 C 0.29814 0.43294 0.31487 0.0
C2134 C 0.30643 0.41513 0.3024 0.0
C2135 C 0.2983 0.39543 0.31186 0.0
C2136 C 0.28731 0.38263 0.28825 0.0
C2137 C 0.31433 0.38214 0.32541 0.0
C2138 C 0.28462 0.40492 0.33231 0.0
C2139 C 0.28458 0.42656 0.33365 0.0
C2140 C 0.27422 0.4387 0.3527 0.0
C2141 C 0.26392 0.42842 0.37111 0.0
C2142 C 0.26407 0.40625 0.37029 0.0
C2143 C 0.27423 0.39446 0.35019 0.0
loop_
_geom_bond_atom_site_label_1
_geom_bond_atom_site_label_2
_geom_bond_distance
_geom_bond_site_symmetry_2
_ccdc_geom_bond_type
C0 O1 1.160 . S
C0 O7 1.185 . S
O1 C0 1.160 . S
O2 Zn3 1.899 . S
O2 C10 1.284 . S
Zn3 O2 1.899 . S
Zn3 O4 2.032 . S
Zn3 O7 2.086 . S
Zn3 O12 1.977 . S
O4 Zn3 2.032 . S
O4 C8 1.278 . S
C5 O6 1.203 . S
C5 O12 1.267 . S
O6 C5 1.203 . S
O7 C0 1.185 . S
O7 Zn3 2.086 . S
C8 O4 1.278 . S
C8 O9 1.211 . S
O9 C8 1.211 . S
C10 O2 1.284 . S
C10 O11 1.273 . S
O11 C10 1.273 . S
O12 Zn3 1.977 . S
O12 C5 1.267 . S
C13 O14 1.160 . S
C13 O20 1.185 . S
O14 C13 1.160 . S
O15 Zn16 1.899 . S
O15 C23 1.284 . S
Zn16 O15 1.899 . S
Zn16 O17 2.032 . S
Zn16 O20 2.086 . S
Zn16 O25 1.977 . S
O17 Zn16 2.032 . S
O17 C21 1.278 . S
C18 O19 1.203 . S
C18 O25 1.267 . S
O19 C18 1.203 . S
O20 C13 1.185 . S
O20 Zn16 2.086 . S
C21 O17 1.278 . S
C21 O22 1.211 . S
O22 C21 1.211 . S
C23 O15 1.284 . S
C23 O24 1.273 . S
O24 C23 1.273 . S
O25 Zn16 1.977 . S
O25 C18 1.267 . S
C26 O27 1.160 1_554 S
C26 O33 1.185 . S
O27 C26 1.160 1_556 S
O28 Zn29 1.899 . S
O28 C36 1.284 . S
Zn29 O28 1.899 . S
Zn29 O30 2.032 . S
Zn29 O33 2.086 . S
Zn29 O38 1.977 . S
O30 Zn29 2.032 . S
O30 C34 1.278 . S
C31 O32 1.203 . S
C31 O38 1.267 . S
O32 C31 1.203 . S
O33 C26 1.185 . S
O33 Zn29 2.086 . S
C34 O30 1.278 . S
C34 O35 1.211 . S
O35 C34 1.211 . S
C36 O28 1.284 . S
C36 O37 1.273 . S
O37 C36 1.273 . S
O38 Zn29 1.977 . S
O38 C31 1.267 . S
C39 O40 1.160 . S
C39 O46 1.185 . S
O40 C39 1.160 . S
O41 Zn42 1.899 . S
O41 C49 1.284 . S
Zn42 O41 1.899 . S
Zn42 O43 2.032 . S
Zn42 O46 2.086 . S
Zn42 O51 1.977 . S
O43 Zn42 2.032 . S
O43 C47 1.278 . S
C44 O45 1.203 . S
C44 O51 1.267 . S
O45 C44 1.203 . S
O46 C39 1.185 . S
O46 Zn42 2.086 . S
C47 O43 1.278 . S
C47 O48 1.211 . S
O48 C47 1.211 . S
C49 O41 1.284 . S
C49 O50 1.273 . S
O50 C49 1.273 . S
O51 Zn42 1.977 . S
O51 C44 1.267 . S
C52 O53 1.160 . S
C52 O59 1.185 . S
O53 C52 1.160 . S
O54 Zn55 1.899 . S
O54 C62 1.284 . S
Zn55 O54 1.899 . S
Zn55 O56 2.032 . S
Zn55 O59 2.086 . S
Zn55 O64 1.977 . S
O56 Zn55 2.032 . S
O56 C60 1.278 . S
C57 O58 1.203 . S
C57 O64 1.267 . S
O58 C57 1.203 . S
O59 C52 1.185 . S
O59 Zn55 2.086 . S
C60 O56 1.278 . S
C60 O61 1.211 . S
O61 C60 1.211 . S
C62 O54 1.284 . S
C62 O63 1.273 . S
O63 C62 1.273 . S
O64 Zn55 1.977 . S
O64 C57 1.267 . S
C65 O66 1.160 . S
C65 O72 1.185 . S
O66 C65 1.160 . S
O67 Zn68 1.899 . S
O67 C75 1.284 . S
Zn68 O67 1.899 . S
Zn68 O69 2.032 . S
Zn68 O72 2.086 . S
Zn68 O77 1.977 . S
O69 Zn68 2.032 . S
O69 C73 1.278 . S
C70 O71 1.203 . S
C70 O77 1.267 . S
O71 C70 1.203 . S
O72 C65 1.185 . S
O72 Zn68 2.086 . S
C73 O69 1.278 . S
C73 O74 1.211 . S
O74 C73 1.211 . S
C75 O67 1.284 . S
C75 O76 1.273 . S
O76 C75 1.273 . S
O77 Zn68 1.977 . S
O77 C70 1.267 . S
C78 O79 1.160 . S
C78 O85 1.185 . S
O79 C78 1.160 . S
O80 Zn81 1.899 . S
O80 C88 1.284 . S
Zn81 O80 1.899 . S
Zn81 O82 2.032 . S
Zn81 O85 2.086 . S
Zn81 O90 1.977 . S
O82 Zn81 2.032 . S
O82 C86 1.278 . S
C83 O84 1.203 . S
C83 O90 1.267 . S
O84 C83 1.203 . S
O85 C78 1.185 . S
O85 Zn81 2.086 . S
C86 O82 1.278 . S
C86 O87 1.211 . S
O87 C86 1.211 . S
C88 O80 1.284 . S
C88 O89 1.273 . S
O89 C88 1.273 . S
O90 Zn81 1.977 . S
O90 C83 1.267 . S
C91 O92 1.160 . S
C91 O98 1.185 . S
O92 C91 1.160 . S
O93 Zn94 1.899 . S
O93 C101 1.284 . S
Zn94 O93 1.899 . S
Zn94 O95 2.032 . S
Zn94 O98 2.086 . S
Zn94 O103 1.977 . S
O95 Zn94 2.032 . S
O95 C99 1.278 . S
C96 O97 1.203 . S
C96 O103 1.267 . S
O97 C96 1.203 . S
O98 C91 1.185 . S
O98 Zn94 2.086 . S
C99 O95 1.278 . S
C99 O100 1.211 . S
O100 C99 1.211 . S
C101 O93 1.284 . S
C101 O102 1.273 . S
O102 C101 1.273 . S
O103 Zn94 1.977 . S
O103 C96 1.267 . S
C104 O105 1.160 . S
C104 O111 1.185 1_556 S
O105 C104 1.160 . S
O106 Zn107 1.899 1_556 S
O106 C114 1.284 . S
Zn107 O106 1.899 1_554 S
Zn107 O108 2.032 . S
Zn107 O111 2.086 . S
Zn107 O116 1.977 . S
O108 Zn107 2.032 . S
O108 C112 1.278 . S
C109 O110 1.203 . S
C109 O116 1.267 . S
O110 C109 1.203 . S
O111 C104 1.185 1_554 S
O111 Zn107 2.086 . S
C112 O108 1.278 . S
C112 O113 1.211 . S
O113 C112 1.211 . S
C114 O106 1.284 . S
C114 O115 1.273 1_556 S
O115 C114 1.273 1_554 S
O116 Zn107 1.977 . S
O116 C109 1.267 . S
C117 O118 1.160 . S
C117 O124 1.185 . S
O118 C117 1.160 . S
O119 Zn120 1.899 . S
O119 C127 1.284 . S
Zn120 O119 1.899 . S
Zn120 O121 2.032 . S
Zn120 O124 2.086 . S
Zn120 O129 1.977 . S
O121 Zn120 2.032 . S
O121 C125 1.278 . S
C122 O123 1.203 . S
C122 O129 1.267 . S
O123 C122 1.203 . S
O124 C117 1.185 . S
O124 Zn120 2.086 . S
C125 O121 1.278 . S
C125 O126 1.211 . S
O126 C125 1.211 . S
C127 O119 1.284 . S
C127 O128 1.273 . S
O128 C127 1.273 . S
O129 Zn120 1.977 . S
O129 C122 1.267 . S
C130 O131 1.160 . S
C130 O137 1.185 . S
O131 C130 1.160 . S
O132 Zn133 1.899 . S
O132 C140 1.284 . S
Zn133 O132 1.899 . S
Zn133 O134 2.032 . S
Zn133 O137 2.086 . S
Zn133 O142 1.977 . S
O134 Zn133 2.032 . S
O134 C138 1.278 . S
C135 O136 1.203 . S
C135 O142 1.267 . S
O136 C135 1.203 . S
O137 C130 1.185 . S
O137 Zn133 2.086 . S
C138 O134 1.278 . S
C138 O139 1.211 . S
O139 C138 1.211 . S
C140 O132 1.284 . S
C140 O141 1.273 . S
O141 C140 1.273 . S
O142 Zn133 1.977 . S
O142 C135 1.267 . S
C143 O144 1.160 . S
C143 O150 1.185 . S
O144 C143 1.160 . S
O145 Zn146 1.899 . S
O145 C153 1.284 . S
Zn146 O145 1.899 . S
Zn146 O147 2.032 . S
Zn146 O150 2.086 . S
Zn146 O155 1.977 . S
O147 Zn146 2.032 . S
O147 C151 1.278 . S
C148 O149 1.203 . S
C148 O155 1.267 . S
O149 C148 1.203 . S
O150 C143 1.185 . S
O150 Zn146 2.086 . S
C151 O147 1.278 . S
C151 O152 1.211 . S
O152 C151 1.211 . S
C153 O145 1.284 . S
C153 O154 1.273 . S
O154 C153 1.273 . S
O155 Zn146 1.977 . S
O155 C148 1.267 . S
C156 O157 1.160 . S
C156 O163 1.185 . S
O157 C156 1.160 . S
O158 Zn159 1.899 . S
O158 C166 1.284 . S
Zn159 O158 1.899 . S
Zn159 O160 2.032 . S
Zn159 O163 2.086 . S
Zn159 O168 1.977 . S
O160 Zn159 2.032 . S
O160 C164 1.278 . S
C161 O162 1.203 . S
C161 O168 1.267 . S
O162 C161 1.203 . S
O163 C156 1.185 . S
O163 Zn159 2.086 . S
C164 O160 1.278 . S
C164 O165 1.211 . S
O165 C164 1.211 . S
C166 O158 1.284 . S
C166 O167 1.273 . S
O167 C166 1.273 . S
O168 Zn159 1.977 . S
O168 C161 1.267 . S
C169 O170 1.160 . S
C169 O176 1.185 . S
O170 C169 1.160 . S
O171 Zn172 1.899 . S
O171 C179 1.284 . S
Zn172 O171 1.899 . S
Zn172 O173 2.032 . S
Zn172 O176 2.086 . S
Zn172 O181 1.977 . S
O173 Zn172 2.032 . S
O173 C177 1.278 . S
C174 O175 1.203 . S
C174 O181 1.267 . S
O175 C174 1.203 . S
O176 C169 1.185 . S
O176 Zn172 2.086 . S
C177 O173 1.278 . S
C177 O178 1.211 . S
O178 C177 1.211 . S
C179 O171 1.284 . S
C179 O180 1.273 . S
O180 C179 1.273 . S
O181 Zn172 1.977 . S
O181 C174 1.267 . S
C182 O183 1.160 . S
C182 O189 1.185 . S
O183 C182 1.160 . S
O184 Zn185 1.899 . S
O184 C192 1.284 . S
Zn185 O184 1.899 . S
Zn185 O186 2.032 . S
Zn185 O189 2.086 . S
Zn185 O194 1.977 . S
O186 Zn185 2.032 . S
O186 C190 1.278 . S
C187 O188 1.203 . S
C187 O194 1.267 . S
O188 C187 1.203 . S
O189 C182 1.185 . S
O189 Zn185 2.086 . S
C190 O186 1.278 . S
C190 O191 1.211 . S
O191 C190 1.211 . S
C192 O184 1.284 . S
C192 O193 1.273 . S
O193 C192 1.273 . S
O194 Zn185 1.977 . S
O194 C187 1.267 . S
C195 O196 1.160 . S
C195 O202 1.185 1_554 S
O196 C195 1.160 . S
O197 Zn198 1.899 1_554 S
O197 C205 1.284 . S
Zn198 O197 1.899 1_556 S
Zn198 O199 2.032 . S
Zn198 O202 2.086 . S
Zn198 O207 1.977 . S
O199 Zn198 2.032 . S
O199 C203 1.278 . S
C200 O201 1.203 . S
C200 O207 1.267 . S
O201 C200 1.203 . S
O202 C195 1.185 1_556 S
O202 Zn198 2.086 . S
C203 O199 1.278 . S
C203 O204 1.211 . S
O204 C203 1.211 . S
C205 O197 1.284 . S
C205 O206 1.273 1_554 S
O206 C205 1.273 1_556 S
O207 Zn198 1.977 . S
O207 C200 1.267 . S
C208 O209 1.160 . S
C208 O215 1.185 1_556 S
O209 C208 1.160 . S
O210 Zn211 1.899 1_556 S
O210 C218 1.284 . S
Zn211 O210 1.899 1_554 S
Zn211 O212 2.032 . S
Zn211 O215 2.086 . S
Zn211 O220 1.977 . S
O212 Zn211 2.032 . S
O212 C216 1.278 . S
C213 O214 1.203 . S
C213 O220 1.267 . S
O214 C213 1.203 . S
O215 C208 1.185 1_554 S
O215 Zn211 2.086 . S
C216 O212 1.278 . S
C216 O217 1.211 . S
O217 C216 1.211 . S
C218 O210 1.284 . S
C218 O219 1.273 1_556 S
O219 C218 1.273 1_554 S
O220 Zn211 1.977 . S
O220 C213 1.267 . S
C221 O222 1.160 . S
C221 O228 1.185 . S
O222 C221 1.160 . S
O223 Zn224 1.899 . S
O223 C231 1.284 . S
Zn224 O223 1.899 . S
Zn224 O225 2.032 . S
Zn224 O228 2.086 . S
Zn224 O233 1.977 . S
O225 Zn224 2.032 . S
O225 C229 1.278 . S
C226 O227 1.203 . S
C226 O233 1.267 . S
O227 C226 1.203 . S
O228 C221 1.185 . S
O228 Zn224 2.086 . S
C229 O225 1.278 . S
C229 O230 1.211 . S
O230 C229 1.211 . S
C231 O223 1.284 . S
C231 O232 1.273 . S
O232 C231 1.273 . S
O233 Zn224 1.977 . S
O233 C226 1.267 . S
C234 O235 1.160 1_554 S
C234 O241 1.185 . S
O235 C234 1.160 1_556 S
O236 Zn237 1.899 . S
O236 C244 1.284 . S
Zn237 O236 1.899 . S
Zn237 O238 2.032 . S
Zn237 O241 2.086 . S
Zn237 O246 1.977 . S
O238 Zn237 2.032 . S
O238 C242 1.278 . S
C239 O240 1.203 . S
C239 O246 1.267 . S
O240 C239 1.203 . S
O241 C234 1.185 . S
O241 Zn237 2.086 . S
C242 O238 1.278 . S
C242 O243 1.211 . S
O243 C242 1.211 . S
C244 O236 1.284 . S
C244 O245 1.273 . S
O245 C244 1.273 . S
O246 Zn237 1.977 . S
O246 C239 1.267 . S
C247 O248 1.160 . S
C247 O254 1.185 . S
O248 C247 1.160 . S
O249 Zn250 1.899 . S
O249 C257 1.284 . S
Zn250 O249 1.899 . S
Zn250 O251 2.032 . S
Zn250 O254 2.086 . S
Zn250 O259 1.977 . S
O251 Zn250 2.032 . S
O251 C255 1.278 . S
C252 O253 1.203 . S
C252 O259 1.267 . S
O253 C252 1.203 . S
O254 C247 1.185 . S
O254 Zn250 2.086 . S
C255 O251 1.278 . S
C255 O256 1.211 . S
O256 C255 1.211 . S
C257 O249 1.284 . S
C257 O258 1.273 . S
O258 C257 1.273 . S
O259 Zn250 1.977 . S
O259 C252 1.267 . S
C260 O261 1.160 . S
C260 O267 1.185 . S
O261 C260 1.160 . S
O262 Zn263 1.899 . S
O262 C270 1.284 . S
Zn263 O262 1.899 . S
Zn263 O264 2.032 . S
Zn263 O267 2.086 . S
Zn263 O272 1.977 . S
O264 Zn263 2.032 . S
O264 C268 1.278 . S
C265 O266 1.203 . S
C265 O272 1.267 . S
O266 C265 1.203 . S
O267 C260 1.185 . S
O267 Zn263 2.086 . S
C268 O264 1.278 . S
C268 O269 1.211 . S
O269 C268 1.211 . S
C270 O262 1.284 . S
C270 O271 1.273 . S
O271 C270 1.273 . S
O272 Zn263 1.977 . S
O272 C265 1.267 . S
C273 O274 1.160 . S
C273 O280 1.185 . S
O274 C273 1.160 . S
O275 Zn276 1.899 . S
O275 C283 1.284 . S
Zn276 O275 1.899 . S
Zn276 O277 2.032 . S
Zn276 O280 2.086 . S
Zn276 O285 1.977 . S
O277 Zn276 2.032 . S
O277 C281 1.278 . S
C278 O279 1.203 . S
C278 O285 1.267 . S
O279 C278 1.203 . S
O280 C273 1.185 . S
O280 Zn276 2.086 . S
C281 O277 1.278 . S
C281 O282 1.211 . S
O282 C281 1.211 . S
C283 O275 1.284 . S
C283 O284 1.273 . S
O284 C283 1.273 . S
O285 Zn276 1.977 . S
O285 C278 1.267 . S
C286 O287 1.160 . S
C286 O293 1.185 1_554 S
O287 C286 1.160 . S
O288 Zn289 1.899 1_554 S
O288 C296 1.284 . S
Zn289 O288 1.899 1_556 S
Zn289 O290 2.032 . S
Zn289 O293 2.086 . S
Zn289 O298 1.977 . S
O290 Zn289 2.032 . S
O290 C294 1.278 . S
C291 O292 1.203 . S
C291 O298 1.267 . S
O292 C291 1.203 . S
O293 C286 1.185 1_556 S
O293 Zn289 2.086 . S
C294 O290 1.278 . S
C294 O295 1.211 . S
O295 C294 1.211 . S
C296 O288 1.284 . S
C296 O297 1.273 1_554 S
O297 C296 1.273 1_556 S
O298 Zn289 1.977 . S
O298 C291 1.267 . S
C299 O300 1.160 . S
C299 O306 1.185 . S
O300 C299 1.160 . S
O301 Zn302 1.899 . S
O301 C309 1.284 . S
Zn302 O301 1.899 . S
Zn302 O303 2.032 . S
Zn302 O306 2.086 . S
Zn302 O311 1.977 . S
O303 Zn302 2.032 . S
O303 C307 1.278 . S
C304 O305 1.203 . S
C304 O311 1.267 . S
O305 C304 1.203 . S
O306 C299 1.185 . S
O306 Zn302 2.086 . S
C307 O303 1.278 . S
C307 O308 1.211 . S
O308 C307 1.211 . S
C309 O301 1.284 . S
C309 O310 1.273 . S
O310 C309 1.273 . S
O311 Zn302 1.977 . S
O311 C304 1.267 . S
C312 O313 1.160 . S
C312 O319 1.185 . S
O313 C312 1.160 . S
O314 Zn315 1.899 . S
O314 C322 1.284 . S
Zn315 O314 1.899 . S
Zn315 O316 2.032 . S
Zn315 O319 2.086 . S
Zn315 O324 1.977 . S
O316 Zn315 2.032 . S
O316 C320 1.278 . S
C317 O318 1.203 . S
C317 O324 1.267 . S
O318 C317 1.203 . S
O319 C312 1.185 . S
O319 Zn315 2.086 . S
C320 O316 1.278 . S
C320 O321 1.211 . S
O321 C320 1.211 . S
C322 O314 1.284 . S
C322 O323 1.273 . S
O323 C322 1.273 . S
O324 Zn315 1.977 . S
O324 C317 1.267 . S
C325 O326 1.160 . S
C325 O332 1.185 . S
O326 C325 1.160 . S
O327 Zn328 1.899 . S
O327 C335 1.284 . S
Zn328 O327 1.899 . S
Zn328 O329 2.032 . S
Zn328 O332 2.086 . S
Zn328 O337 1.977 . S
O329 Zn328 2.032 . S
O329 C333 1.278 . S
C330 O331 1.203 . S
C330 O337 1.267 . S
O331 C330 1.203 . S
O332 C325 1.185 . S
O332 Zn328 2.086 . S
C333 O329 1.278 . S
C333 O334 1.211 . S
O334 C333 1.211 . S
C335 O327 1.284 . S
C335 O336 1.273 . S
O336 C335 1.273 . S
O337 Zn328 1.977 . S
O337 C330 1.267 . S
C338 O339 1.160 . S
C338 O345 1.185 . S
O339 C338 1.160 . S
O340 Zn341 1.899 . S
O340 C348 1.284 . S
Zn341 O340 1.899 . S
Zn341 O342 2.032 . S
Zn341 O345 2.086 . S
Zn341 O350 1.977 . S
O342 Zn341 2.032 . S
O342 C346 1.278 . S
C343 O344 1.203 . S
C343 O350 1.267 . S
O344 C343 1.203 . S
O345 C338 1.185 . S
O345 Zn341 2.086 . S
C346 O342 1.278 . S
C346 O347 1.211 . S
O347 C346 1.211 . S
C348 O340 1.284 . S
C348 O349 1.273 . S
O349 C348 1.273 . S
O350 Zn341 1.977 . S
O350 C343 1.267 . S
C351 O352 1.160 . S
C351 O358 1.185 . S
O352 C351 1.160 . S
O353 Zn354 1.899 . S
O353 C361 1.284 . S
Zn354 O353 1.899 . S
Zn354 O355 2.032 . S
Zn354 O358 2.086 . S
Zn354 O363 1.977 . S
O355 Zn354 2.032 . S
O355 C359 1.278 . S
C356 O357 1.203 . S
C356 O363 1.267 . S
O357 C356 1.203 . S
O358 C351 1.185 . S
O358 Zn354 2.086 . S
C359 O355 1.278 . S
C359 O360 1.211 . S
O360 C359 1.211 . S
C361 O353 1.284 . S
C361 O362 1.273 . S
O362 C361 1.273 . S
O363 Zn354 1.977 . S
O363 C356 1.267 . S
C364 O365 1.160 . S
C364 O371 1.185 . S
O365 C364 1.160 . S
O366 Zn367 1.899 . S
O366 C374 1.284 . S
Zn367 O366 1.899 . S
Zn367 O368 2.032 . S
Zn367 O371 2.086 . S
Zn367 O376 1.977 . S
O368 Zn367 2.032 . S
O368 C372 1.278 . S
C369 O370 1.203 . S
C369 O376 1.267 . S
O370 C369 1.203 . S
O371 C364 1.185 . S
O371 Zn367 2.086 . S
C372 O368 1.278 . S
C372 O373 1.211 . S
O373 C372 1.211 . S
C374 O366 1.284 . S
C374 O375 1.273 . S
O375 C374 1.273 . S
O376 Zn367 1.977 . S
O376 C369 1.267 . S
C377 O378 1.160 . S
C377 O384 1.185 . S
O378 C377 1.160 . S
O379 Zn380 1.899 . S
O379 C387 1.284 . S
Zn380 O379 1.899 . S
Zn380 O381 2.032 . S
Zn380 O384 2.086 . S
Zn380 O389 1.977 . S
O381 Zn380 2.032 . S
O381 C385 1.278 . S
C382 O383 1.203 . S
C382 O389 1.267 . S
O383 C382 1.203 . S
O384 C377 1.185 . S
O384 Zn380 2.086 . S
C385 O381 1.278 . S
C385 O386 1.211 . S
O386 C385 1.211 . S
C387 O379 1.284 . S
C387 O388 1.273 . S
O388 C387 1.273 . S
O389 Zn380 1.977 . S
O389 C382 1.267 . S
C390 O391 1.160 . S
C390 O397 1.185 . S
O391 C390 1.160 . S
O392 Zn393 1.899 . S
O392 C400 1.284 . S
Zn393 O392 1.899 . S
Zn393 O394 2.032 . S
Zn393 O397 2.086 . S
Zn393 O402 1.977 . S
O394 Zn393 2.032 . S
O394 C398 1.278 . S
C395 O396 1.203 . S
C395 O402 1.267 . S
O396 C395 1.203 . S
O397 C390 1.185 . S
O397 Zn393 2.086 . S
C398 O394 1.278 . S
C398 O399 1.211 . S
O399 C398 1.211 . S
C400 O392 1.284 . S
C400 O401 1.273 . S
O401 C400 1.273 . S
O402 Zn393 1.977 . S
O402 C395 1.267 . S
C403 O404 1.160 . S
C403 O410 1.185 . S
O404 C403 1.160 . S
O405 Zn406 1.899 . S
O405 C413 1.284 . S
Zn406 O405 1.899 . S
Zn406 O407 2.032 . S
Zn406 O410 2.086 . S
Zn406 O415 1.977 . S
O407 Zn406 2.032 . S
O407 C411 1.278 . S
C408 O409 1.203 . S
C408 O415 1.267 . S
O409 C408 1.203 . S
O410 C403 1.185 . S
O410 Zn406 2.086 . S
C411 O407 1.278 . S
C411 O412 1.211 . S
O412 C411 1.211 . S
C413 O405 1.284 . S
C413 O414 1.273 . S
O414 C413 1.273 . S
O415 Zn406 1.977 . S
O415 C408 1.267 . S
H416 C428 0.930 . S
H417 C430 0.930 . S
H418 C431 0.930 . S
H419 C435 0.959 . S
H420 C435 0.959 . S
H421 C435 0.961 . S
H422 C436 0.960 . S
H423 C436 0.961 . S
H424 C436 0.959 . S
H425 C439 0.939 . S
H426 C440 0.931 . S
H427 C442 0.930 . S
C428 H416 0.930 . S
C428 C429 1.399 1_455 S
C428 C433 1.399 . S
C429 C428 1.399 1_655 S
C429 C430 1.376 . S
C430 H417 0.930 . S
C430 C429 1.376 . S
C430 C431 1.388 1_655 S
C431 H418 0.930 . S
C431 C430 1.388 1_455 S
C431 C432 1.390 . S
C432 C431 1.390 . S
C432 C433 1.394 . S
C432 C438 1.465 . S
C433 C428 1.399 . S
C433 C432 1.394 . S
C433 C434 1.516 . S
C434 C433 1.516 . S
C434 C435 1.502 . S
C434 C436 1.561 . S
C434 C437 1.526 . S
C435 H419 0.959 . S
C435 H420 0.959 . S
C435 H421 0.961 . S
C435 C434 1.502 . S
C436 H422 0.960 . S
C436 H423 0.961 . S
C436 H424 0.959 . S
C436 C434 1.561 . S
C437 C434 1.526 . S
C437 C438 1.396 . S
C437 C442 1.390 . S
C438 C432 1.465 . S
C438 C437 1.396 . S
C438 C439 1.399 . S
C439 H425 0.939 . S
C439 C438 1.399 . S
C439 C440 1.385 1_565 S
C440 H426 0.931 . S
C440 C439 1.385 1_545 S
C440 C441 1.389 . S
C441 C440 1.389 . S
C441 C442 1.387 1_545 S
C442 H427 0.930 . S
C442 C437 1.390 . S
C442 C441 1.387 1_565 S
H443 C455 0.930 . S
H444 C457 0.930 . S
H445 C458 0.930 . S
H446 C462 0.959 . S
H447 C462 0.959 . S
H448 C462 0.961 . S
H449 C463 0.960 . S
H450 C463 0.961 . S
H451 C463 0.959 . S
H452 C466 0.929 . S
H453 C467 0.931 . S
H454 C469 0.930 . S
C455 H443 0.930 . S
C455 C456 1.399 . S
C455 C460 1.399 . S
C456 C455 1.399 . S
C456 C457 1.376 . S
C457 H444 0.930 . S
C457 C456 1.376 . S
C457 C458 1.388 . S
C458 H445 0.930 . S
C458 C457 1.388 . S
C458 C459 1.390 . S
C459 C458 1.390 . S
C459 C460 1.394 . S
C459 C465 1.465 . S
C460 C455 1.399 . S
C460 C459 1.394 . S
C460 C461 1.516 . S
C461 C460 1.516 . S
C461 C462 1.502 . S
C461 C463 1.561 . S
C461 C464 1.526 . S
C462 H446 0.959 . S
C462 H447 0.959 . S
C462 H448 0.961 . S
C462 C461 1.502 . S
C463 H449 0.960 . S
C463 H450 0.961 . S
C463 H451 0.959 . S
C463 C461 1.561 . S
C464 C461 1.526 . S
C464 C465 1.396 . S
C464 C469 1.390 1_655 S
C465 C459 1.465 . S
C465 C464 1.396 . S
C465 C466 1.399 . S
C466 H452 0.929 . S
C466 C465 1.399 . S
C466 C467 1.385 1_655 S
C467 H453 0.931 . S
C467 C466 1.385 1_455 S
C467 C468 1.389 . S
C468 C467 1.389 . S
C468 C469 1.387 . S
C469 H454 0.930 . S
C469 C464 1.390 1_455 S
C469 C468 1.387 . S
H470 C482 0.930 . S
H471 C484 0.930 . S
H472 C485 0.930 . S
H473 C489 0.959 . S
H474 C489 0.959 . S
H475 C489 0.961 . S
H476 C490 0.960 . S
H477 C490 0.961 . S
H478 C490 0.959 . S
H479 C493 0.929 . S
H480 C494 0.931 . S
H481 C496 0.930 . S
C482 H470 0.930 . S
C482 C483 1.399 . S
C482 C487 1.399 . S
C483 C482 1.399 . S
C483 C484 1.376 1_556 S
C484 H471 0.930 . S
C484 C483 1.376 1_554 S
C484 C485 1.388 . S
C485 H472 0.930 . S
C485 C484 1.388 . S
C485 C486 1.390 . S
C486 C485 1.390 . S
C486 C487 1.394 1_554 S
C486 C492 1.465 . S
C487 C482 1.399 . S
C487 C486 1.394 1_556 S
C487 C488 1.516 . S
C488 C487 1.516 . S
C488 C489 1.502 . S
C488 C490 1.561 . S
C488 C491 1.526 . S
C489 H473 0.959 . S
C489 H474 0.959 . S
C489 H475 0.961 . S
C489 C488 1.502 . S
C490 H476 0.960 . S
C490 H477 0.961 . S
C490 H478 0.959 . S
C490 C488 1.561 . S
C491 C488 1.526 . S
C491 C492 1.396 1_556 S
C491 C496 1.390 . S
C492 C486 1.465 . S
C492 C491 1.396 1_554 S
C492 C493 1.399 . S
C493 H479 0.929 . S
C493 C492 1.399 . S
C493 C494 1.385 . S
C494 H480 0.931 . S
C494 C493 1.385 . S
C494 C495 1.389 . S
C495 C494 1.389 . S
C495 C496 1.387 1_554 S
C496 H481 0.930 . S
C496 C491 1.390 . S
C496 C495 1.387 1_556 S
H497 C509 0.930 . S
H498 C511 0.930 . S
H499 C512 0.930 . S
H500 C516 0.959 . S
H501 C516 0.959 . S
H502 C516 0.961 . S
H503 C517 0.960 . S
H504 C517 0.961 . S
H505 C517 0.959 . S
H506 C520 0.929 . S
H507 C521 0.931 . S
H508 C523 0.930 1_565 S
C509 H497 0.930 . S
C509 C510 1.399 . S
C509 C514 1.399 . S
C510 C509 1.399 . S
C510 C511 1.376 . S
C511 H498 0.930 . S
C511 C510 1.376 . S
C511 C512 1.388 . S
C512 H499 0.930 . S
C512 C511 1.388 . S
C512 C513 1.390 . S
C513 C512 1.390 . S
C513 C514 1.394 . S
C513 C519 1.465 . S
C514 C509 1.399 . S
C514 C513 1.394 . S
C514 C515 1.516 . S
C515 C514 1.516 . S
C515 C516 1.502 . S
C515 C517 1.561 . S
C515 C518 1.526 . S
C516 H500 0.959 . S
C516 H501 0.959 . S
C516 H502 0.961 . S
C516 C515 1.502 . S
C517 H503 0.960 . S
C517 H504 0.961 . S
C517 H505 0.959 . S
C517 C515 1.561 . S
C518 C515 1.526 . S
C518 C519 1.396 . S
C518 C523 1.390 . S
C519 C513 1.465 . S
C519 C518 1.396 . S
C519 C520 1.399 . S
C520 H506 0.929 . S
C520 C519 1.399 . S
C520 C521 1.385 . S
C521 H507 0.931 . S
C521 C520 1.385 . S
C521 C522 1.389 1_545 S
C522 C521 1.389 1_565 S
C522 C523 1.387 1_565 S
C523 H508 0.930 1_545 S
C523 C518 1.390 . S
C523 C522 1.387 1_545 S
H524 C536 0.951 . S
H525 C538 0.930 . S
H526 C539 0.930 . S
H527 C543 0.959 . S
H528 C543 0.959 . S
H529 C543 0.961 . S
H530 C544 0.960 . S
H531 C544 0.961 . S
H532 C544 0.959 . S
H533 C547 0.929 . S
H534 C548 0.931 . S
H535 C550 0.930 . S
C536 H524 0.951 . S
C536 C537 1.391 1_565 S
C536 C541 1.399 . S
C537 C536 1.391 1_545 S
C537 C538 1.363 1_546 S
C538 H525 0.930 . S
C538 C537 1.363 1_564 S
C538 C539 1.388 . S
C539 H526 0.930 . S
C539 C538 1.388 . S
C539 C540 1.390 . S
C540 C539 1.390 . S
C540 C541 1.394 1_554 S
C540 C546 1.465 . S
C541 C536 1.399 . S
C541 C540 1.394 1_556 S
C541 C542 1.516 . S
C542 C541 1.516 . S
C542 C543 1.502 . S
C542 C544 1.561 . S
C542 C545 1.526 . S
C543 H527 0.959 . S
C543 H528 0.959 . S
C543 H529 0.961 . S
C543 C542 1.502 . S
C544 H530 0.960 . S
C544 H531 0.961 . S
C544 H532 0.959 . S
C544 C542 1.561 . S
C545 C542 1.526 . S
C545 C546 1.396 1_556 S
C545 C550 1.390 . S
C546 C540 1.465 . S
C546 C545 1.396 1_554 S
C546 C547 1.399 . S
C547 H533 0.929 . S
C547 C546 1.399 . S
C547 C548 1.385 . S
C548 H534 0.931 . S
C548 C547 1.385 . S
C548 C549 1.389 . S
C549 C548 1.389 . S
C549 C550 1.387 1_554 S
C550 H535 0.930 . S
C550 C545 1.390 . S
C550 C549 1.387 1_556 S
H551 C563 0.930 . S
H552 C565 0.930 . S
H553 C566 0.930 . S
H554 C570 0.959 . S
H555 C570 0.959 . S
H556 C570 0.961 . S
H557 C571 0.960 . S
H558 C571 0.961 . S
H559 C571 0.959 . S
H560 C574 0.929 . S
H561 C575 0.952 . S
H562 C577 0.930 . S
C563 H551 0.930 . S
C563 C564 1.399 . S
C563 C568 1.399 . S
C564 C563 1.399 . S
C564 C565 1.376 . S
C565 H552 0.930 . S
C565 C564 1.376 . S
C565 C566 1.388 . S
C566 H553 0.930 . S
C566 C565 1.388 . S
C566 C567 1.390 . S
C567 C566 1.390 . S
C567 C568 1.394 . S
C567 C573 1.465 . S
C568 C563 1.399 . S
C568 C567 1.394 . S
C568 C569 1.516 . S
C569 C568 1.516 . S
C569 C570 1.502 . S
C569 C571 1.561 . S
C569 C572 1.526 . S
C570 H554 0.959 . S
C570 H555 0.959 . S
C570 H556 0.961 . S
C570 C569 1.502 . S
C571 H557 0.960 . S
C571 H558 0.961 . S
C571 H559 0.959 . S
C571 C569 1.561 . S
C572 C569 1.526 . S
C572 C573 1.396 . S
C572 C577 1.390 1_655 S
C573 C567 1.465 . S
C573 C572 1.396 . S
C573 C574 1.399 . S
C574 H560 0.929 . S
C574 C573 1.399 . S
C574 C575 1.341 1_655 S
C575 H561 0.952 . S
C575 C574 1.341 1_455 S
C575 C576 1.414 . S
C576 C575 1.414 . S
C576 C577 1.387 . S
C577 H562 0.930 . S
C577 C572 1.390 1_455 S
C577 C576 1.387 . S
H578 C590 0.930 . S
H579 C592 0.930 . S
H580 C593 0.930 . S
H581 C597 0.959 . S
H582 C597 0.959 . S
H583 C597 0.961 . S
H584 C598 0.960 . S
H585 C598 0.961 . S
H586 C598 0.959 . S
H587 C601 0.929 . S
H588 C602 0.931 . S
H589 C604 0.930 . S
C590 H578 0.930 . S
C590 C591 1.399 . S
C590 C595 1.399 . S
C591 C590 1.399 . S
C591 C592 1.376 . S
C592 H579 0.930 . S
C592 C591 1.376 . S
C592 C593 1.388 . S
C593 H580 0.930 . S
C593 C592 1.388 . S
C593 C594 1.390 . S
C594 C593 1.390 . S
C594 C595 1.394 . S
C594 C600 1.465 . S
C595 C590 1.399 . S
C595 C594 1.394 . S
C595 C596 1.516 . S
C596 C595 1.516 . S
C596 C597 1.502 . S
C596 C598 1.561 . S
C596 C599 1.526 . S
C597 H581 0.959 . S
C597 H582 0.959 . S
C597 H583 0.961 . S
C597 C596 1.502 . S
C598 H584 0.960 . S
C598 H585 0.961 . S
C598 H586 0.959 . S
C598 C596 1.561 . S
C599 C596 1.526 . S
C599 C600 1.396 . S
C599 C604 1.390 . S
C600 C594 1.465 . S
C600 C599 1.396 . S
C600 C601 1.399 . S
C601 H587 0.929 . S
C601 C600 1.399 . S
C601 C602 1.385 . S
C602 H588 0.931 . S
C602 C601 1.385 . S
C602 C603 1.389 . S
C603 C602 1.389 . S
C603 C604 1.387 . S
C604 H589 0.930 . S
C604 C599 1.390 . S
C604 C603 1.387 . S
H605 C617 0.930 . S
H606 C619 0.930 . S
H607 C620 0.930 . S
H608 C624 0.959 . S
H609 C624 0.959 . S
H610 C624 0.961 . S
H611 C625 0.960 . S
H612 C625 0.961 . S
H613 C625 0.959 . S
H614 C628 0.929 . S
H615 C629 0.931 . S
H616 C631 0.930 . S
C617 H605 0.930 . S
C617 C618 1.399 . S
C617 C622 1.399 . S
C618 C617 1.399 . S
C618 C619 1.376 . S
C619 H606 0.930 . S
C619 C618 1.376 . S
C619 C620 1.388 . S
C620 H607 0.930 . S
C620 C619 1.388 . S
C620 C621 1.390 . S
C621 C620 1.390 . S
C621 C622 1.394 . S
C621 C627 1.465 . S
C622 C617 1.399 . S
C622 C621 1.394 . S
C622 C623 1.516 . S
C623 C622 1.516 . S
C623 C624 1.502 . S
C623 C625 1.561 . S
C623 C626 1.526 . S
C624 H608 0.959 . S
C624 H609 0.959 . S
C624 H610 0.961 . S
C624 C623 1.502 . S
C625 H611 0.960 . S
C625 H612 0.961 . S
C625 H613 0.959 . S
C625 C623 1.561 . S
C626 C623 1.526 . S
C626 C627 1.396 . S
C626 C631 1.390 . S
C627 C621 1.465 . S
C627 C626 1.396 . S
C627 C628 1.399 . S
C628 H614 0.929 . S
C628 C627 1.399 . S
C628 C629 1.385 . S
C629 H615 0.931 . S
C629 C628 1.385 . S
C629 C630 1.389 . S
C630 C629 1.389 . S
C630 C631 1.387 . S
C631 H616 0.930 . S
C631 C626 1.390 . S
C631 C630 1.387 . S
H632 C644 0.930 . S
H633 C646 0.930 . S
H634 C647 0.930 . S
H635 C651 0.959 . S
H636 C651 0.959 . S
H637 C651 0.961 . S
H638 C652 0.960 . S
H639 C652 0.961 . S
H640 C652 0.959 . S
H641 C655 0.929 . S
H642 C656 0.931 . S
H643 C658 0.930 . S
C644 H632 0.930 . S
C644 C645 1.399 . S
C644 C649 1.399 . S
C645 C644 1.399 . S
C645 C646 1.376 . S
C646 H633 0.930 . S
C646 C645 1.376 . S
C646 C647 1.388 . S
C647 H634 0.930 . S
C647 C646 1.388 . S
C647 C648 1.390 . S
C648 C647 1.390 . S
C648 C649 1.394 . S
C648 C654 1.465 . S
C649 C644 1.399 . S
C649 C648 1.394 . S
C649 C650 1.516 . S
C650 C649 1.516 . S
C650 C651 1.502 . S
C650 C652 1.561 . S
C650 C653 1.526 . S
C651 H635 0.959 . S
C651 H636 0.959 . S
C651 H637 0.961 . S
C651 C650 1.502 . S
C652 H638 0.960 . S
C652 H639 0.961 . S
C652 H640 0.959 . S
C652 C650 1.561 . S
C653 C650 1.526 . S
C653 C654 1.396 . S
C653 C658 1.390 . S
C654 C648 1.465 . S
C654 C653 1.396 . S
C654 C655 1.399 . S
C655 H641 0.929 . S
C655 C654 1.399 . S
C655 C656 1.385 . S
C656 H642 0.931 . S
C656 C655 1.385 . S
C656 C657 1.389 . S
C657 C656 1.389 . S
C657 C658 1.387 . S
C658 H643 0.930 . S
C658 C653 1.390 . S
C658 C657 1.387 . S
H659 C671 0.930 . S
H660 C673 0.930 . S
H661 C674 0.930 . S
H662 C678 0.959 . S
H663 C678 0.959 . S
H664 C678 0.961 . S
H665 C679 0.960 . S
H666 C679 0.961 . S
H667 C679 0.959 . S
H668 C682 0.929 . S
H669 C683 0.931 . S
H670 C685 0.930 . S
C671 H659 0.930 . S
C671 C672 1.399 . S
C671 C676 1.399 . S
C672 C671 1.399 . S
C672 C673 1.376 . S
C673 H660 0.930 . S
C673 C672 1.376 . S
C673 C674 1.388 . S
C674 H661 0.930 . S
C674 C673 1.388 . S
C674 C675 1.390 . S
C675 C674 1.390 . S
C675 C676 1.394 . S
C675 C681 1.465 . S
C676 C671 1.399 . S
C676 C675 1.394 . S
C676 C677 1.516 . S
C677 C676 1.516 . S
C677 C678 1.502 . S
C677 C679 1.561 . S
C677 C680 1.526 . S
C678 H662 0.959 . S
C678 H663 0.959 . S
C678 H664 0.961 . S
C678 C677 1.502 . S
C679 H665 0.960 . S
C679 H666 0.961 . S
C679 H667 0.959 . S
C679 C677 1.561 . S
C680 C677 1.526 . S
C680 C681 1.396 . S
C680 C685 1.390 . S
C681 C675 1.465 . S
C681 C680 1.396 . S
C681 C682 1.399 . S
C682 H668 0.929 . S
C682 C681 1.399 . S
C682 C683 1.385 . S
C683 H669 0.931 . S
C683 C682 1.385 . S
C683 C684 1.389 . S
C684 C683 1.389 . S
C684 C685 1.387 . S
C685 H670 0.930 . S
C685 C680 1.390 . S
C685 C684 1.387 . S
H686 C698 0.930 . S
H687 C700 0.930 . S
H688 C701 0.930 . S
H689 C705 0.959 . S
H690 C705 0.959 . S
H691 C705 0.961 . S
H692 C706 0.960 . S
H693 C706 0.961 . S
H694 C706 0.959 . S
H695 C709 0.929 . S
H696 C710 0.931 . S
H697 C712 0.930 . S
C698 H686 0.930 . S
C698 C699 1.399 . S
C698 C703 1.399 . S
C699 C698 1.399 . S
C699 C700 1.376 . S
C700 H687 0.930 . S
C700 C699 1.376 . S
C700 C701 1.388 . S
C701 H688 0.930 . S
C701 C700 1.388 . S
C701 C702 1.390 . S
C702 C701 1.390 . S
C702 C703 1.394 . S
C702 C708 1.465 . S
C703 C698 1.399 . S
C703 C702 1.394 . S
C703 C704 1.516 . S
C704 C703 1.516 . S
C704 C705 1.502 . S
C704 C706 1.561 . S
C704 C707 1.526 . S
C705 H689 0.959 . S
C705 H690 0.959 . S
C705 H691 0.961 . S
C705 C704 1.502 . S
C706 H692 0.960 . S
C706 H693 0.961 . S
C706 H694 0.959 . S
C706 C704 1.561 . S
C707 C704 1.526 . S
C707 C708 1.396 . S
C707 C712 1.390 . S
C708 C702 1.465 . S
C708 C707 1.396 . S
C708 C709 1.399 . S
C709 H695 0.929 . S
C709 C708 1.399 . S
C709 C710 1.385 1_545 S
C710 H696 0.931 . S
C710 C709 1.385 1_565 S
C710 C711 1.389 . S
C711 C710 1.389 . S
C711 C712 1.387 1_565 S
C712 H697 0.930 . S
C712 C707 1.390 . S
C712 C711 1.387 1_545 S
H713 C725 0.930 . S
H714 C727 0.947 . S
H715 C728 0.930 . S
H716 C732 0.959 . S
H717 C732 0.959 . S
H718 C732 0.961 . S
H719 C733 0.960 1_655 S
H720 C733 0.961 . S
H721 C733 0.959 . S
H722 C736 0.929 . S
H723 C737 0.931 . S
H724 C739 0.930 . S
C725 H713 0.930 . S
C725 C726 1.399 1_556 S
C725 C730 1.399 1_655 S
C726 C725 1.399 1_554 S
C726 C727 1.376 1_655 S
C727 H714 0.947 . S
C727 C726 1.376 1_455 S
C727 C728 1.388 . S
C728 H715 0.930 . S
C728 C727 1.388 . S
C728 C729 1.390 . S
C729 C728 1.390 . S
C729 C730 1.394 1_554 S
C729 C735 1.465 . S
C730 C725 1.399 1_455 S
C730 C729 1.394 1_556 S
C730 C731 1.516 . S
C731 C730 1.516 . S
C731 C732 1.502 . S
C731 C733 1.561 . S
C731 C734 1.526 . S
C732 H716 0.959 . S
C732 H717 0.959 . S
C732 H718 0.961 . S
C732 C731 1.502 . S
C733 H719 0.960 1_455 S
C733 H720 0.961 . S
C733 H721 0.959 . S
C733 C731 1.561 . S
C734 C731 1.526 . S
C734 C735 1.396 1_556 S
C734 C739 1.390 . S
C735 C729 1.465 . S
C735 C734 1.396 1_554 S
C735 C736 1.399 . S
C736 H722 0.929 . S
C736 C735 1.399 . S
C736 C737 1.385 . S
C737 H723 0.931 . S
C737 C736 1.385 . S
C737 C738 1.389 1_554 S
C738 C737 1.389 1_556 S
C738 C739 1.387 . S
C739 H724 0.930 . S
C739 C734 1.390 . S
C739 C738 1.387 . S
H740 C752 0.930 . S
H741 C754 0.930 . S
H742 C755 0.930 . S
H743 C759 0.959 . S
H744 C759 0.959 . S
H745 C759 0.961 . S
H746 C760 0.960 . S
H747 C760 0.961 . S
H748 C760 0.959 . S
H749 C763 0.929 . S
H750 C764 0.931 . S
H751 C766 0.930 . S
C752 H740 0.930 . S
C752 C753 1.399 . S
C752 C757 1.399 . S
C753 C752 1.399 . S
C753 C754 1.376 . S
C754 H741 0.930 . S
C754 C753 1.376 . S
C754 C755 1.388 . S
C755 H742 0.930 . S
C755 C754 1.388 . S
C755 C756 1.390 . S
C756 C755 1.390 . S
C756 C757 1.394 . S
C756 C762 1.465 . S
C757 C752 1.399 . S
C757 C756 1.394 . S
C757 C758 1.516 . S
C758 C757 1.516 . S
C758 C759 1.502 . S
C758 C760 1.561 . S
C758 C761 1.526 . S
C759 H743 0.959 . S
C759 H744 0.959 . S
C759 H745 0.961 . S
C759 C758 1.502 . S
C760 H746 0.960 . S
C760 H747 0.961 . S
C760 H748 0.959 . S
C760 C758 1.561 . S
C761 C758 1.526 . S
C761 C762 1.396 . S
C761 C766 1.390 . S
C762 C756 1.465 . S
C762 C761 1.396 . S
C762 C763 1.399 . S
C763 H749 0.929 . S
C763 C762 1.399 . S
C763 C764 1.385 . S
C764 H750 0.931 . S
C764 C763 1.385 . S
C764 C765 1.389 . S
C765 C764 1.389 . S
C765 C766 1.387 . S
C766 H751 0.930 . S
C766 C761 1.390 . S
C766 C765 1.387 . S
H767 C779 0.930 . S
H768 C781 0.930 . S
H769 C782 0.930 . S
H770 C786 0.959 . S
H771 C786 0.959 . S
H772 C786 0.961 . S
H773 C787 0.960 . S
H774 C787 0.961 . S
H775 C787 0.959 . S
H776 C790 0.929 . S
H777 C791 0.931 . S
H778 C793 0.930 . S
C779 H767 0.930 . S
C779 C780 1.399 . S
C779 C784 1.399 . S
C780 C779 1.399 . S
C780 C781 1.376 1_554 S
C781 H768 0.930 . S
C781 C780 1.376 1_556 S
C781 C782 1.388 . S
C782 H769 0.930 . S
C782 C781 1.388 . S
C782 C783 1.390 . S
C783 C782 1.390 . S
C783 C784 1.394 1_556 S
C783 C789 1.465 . S
C784 C779 1.399 . S
C784 C783 1.394 1_554 S
C784 C785 1.516 . S
C785 C784 1.516 . S
C785 C786 1.502 . S
C785 C787 1.561 . S
C785 C788 1.526 . S
C786 H770 0.959 . S
C786 H771 0.959 . S
C786 H772 0.961 . S
C786 C785 1.502 . S
C787 H773 0.960 . S
C787 H774 0.961 . S
C787 H775 0.959 . S
C787 C785 1.561 . S
C788 C785 1.526 . S
C788 C789 1.396 1_554 S
C788 C793 1.390 . S
C789 C783 1.465 . S
C789 C788 1.396 1_556 S
C789 C790 1.399 . S
C790 H776 0.929 . S
C790 C789 1.399 . S
C790 C791 1.385 . S
C791 H777 0.931 . S
C791 C790 1.385 . S
C791 C792 1.389 . S
C792 C791 1.389 . S
C792 C793 1.387 1_556 S
C793 H778 0.930 . S
C793 C788 1.390 . S
C793 C792 1.387 1_554 S
H794 C806 0.930 . S
H795 C808 0.930 . S
H796 C809 0.930 . S
H797 C813 0.959 . S
H798 C813 0.959 . S
H799 C813 0.961 . S
H800 C814 0.960 . S
H801 C814 0.961 . S
H802 C814 0.959 . S
H803 C817 0.929 . S
H804 C818 0.931 . S
H805 C820 0.930 . S
C806 H794 0.930 . S
C806 C807 1.399 . S
C806 C811 1.399 . S
C807 C806 1.399 . S
C807 C808 1.376 . S
C808 H795 0.930 . S
C808 C807 1.376 . S
C808 C809 1.388 . S
C809 H796 0.930 . S
C809 C808 1.388 . S
C809 C810 1.390 . S
C810 C809 1.390 . S
C810 C811 1.394 . S
C810 C816 1.465 . S
C811 C806 1.399 . S
C811 C810 1.394 . S
C811 C812 1.516 . S
C812 C811 1.516 . S
C812 C813 1.502 . S
C812 C814 1.561 . S
C812 C815 1.526 . S
C813 H797 0.959 . S
C813 H798 0.959 . S
C813 H799 0.961 . S
C813 C812 1.502 . S
C814 H800 0.960 . S
C814 H801 0.961 . S
C814 H802 0.959 . S
C814 C812 1.561 . S
C815 C812 1.526 . S
C815 C816 1.396 . S
C815 C820 1.390 . S
C816 C810 1.465 . S
C816 C815 1.396 . S
C816 C817 1.399 . S
C817 H803 0.929 . S
C817 C816 1.399 . S
C817 C818 1.385 . S
C818 H804 0.931 . S
C818 C817 1.385 . S
C818 C819 1.389 . S
C819 C818 1.389 . S
C819 C820 1.387 . S
C820 H805 0.930 . S
C820 C815 1.390 . S
C820 C819 1.387 . S
H821 C833 0.930 . S
H822 C835 0.930 . S
H823 C836 0.930 . S
H824 C840 0.959 . S
H825 C840 0.959 . S
H826 C840 0.961 . S
H827 C841 0.960 . S
H828 C841 0.961 . S
H829 C841 0.959 . S
H830 C844 0.929 . S
H831 C845 0.931 . S
H832 C847 0.930 . S
C833 H821 0.930 . S
C833 C834 1.399 . S
C833 C838 1.399 . S
C834 C833 1.399 . S
C834 C835 1.376 . S
C835 H822 0.930 . S
C835 C834 1.376 . S
C835 C836 1.388 . S
C836 H823 0.930 . S
C836 C835 1.388 . S
C836 C837 1.390 . S
C837 C836 1.390 . S
C837 C838 1.394 . S
C837 C843 1.465 . S
C838 C833 1.399 . S
C838 C837 1.394 . S
C838 C839 1.516 . S
C839 C838 1.516 . S
C839 C840 1.502 . S
C839 C841 1.561 . S
C839 C842 1.526 . S
C840 H824 0.959 . S
C840 H825 0.959 . S
C840 H826 0.961 . S
C840 C839 1.502 . S
C841 H827 0.960 . S
C841 H828 0.961 . S
C841 H829 0.959 . S
C841 C839 1.561 . S
C842 C839 1.526 . S
C842 C843 1.396 . S
C842 C847 1.390 . S
C843 C837 1.465 . S
C843 C842 1.396 . S
C843 C844 1.399 . S
C844 H830 0.929 . S
C844 C843 1.399 . S
C844 C845 1.385 . S
C845 H831 0.931 . S
C845 C844 1.385 . S
C845 C846 1.389 . S
C846 C845 1.389 . S
C846 C847 1.387 . S
C847 H832 0.930 . S
C847 C842 1.390 . S
C847 C846 1.387 . S
H848 C860 0.930 . S
H849 C862 0.930 . S
H850 C863 0.930 . S
H851 C867 0.959 . S
H852 C867 0.959 . S
H853 C867 0.961 . S
H854 C868 0.960 . S
H855 C868 0.961 . S
H856 C868 0.959 . S
H857 C871 0.929 . S
H858 C872 0.931 . S
H859 C874 0.930 . S
C860 H848 0.930 . S
C860 C861 1.399 . S
C860 C865 1.399 . S
C861 C860 1.399 . S
C861 C862 1.376 . S
C862 H849 0.930 . S
C862 C861 1.376 . S
C862 C863 1.388 . S
C863 H850 0.930 . S
C863 C862 1.388 . S
C863 C864 1.390 . S
C864 C863 1.390 . S
C864 C865 1.394 . S
C864 C870 1.465 . S
C865 C860 1.399 . S
C865 C864 1.394 . S
C865 C866 1.516 . S
C866 C865 1.516 . S
C866 C867 1.502 . S
C866 C868 1.561 . S
C866 C869 1.526 . S
C867 H851 0.959 . S
C867 H852 0.959 . S
C867 H853 0.961 . S
C867 C866 1.502 . S
C868 H854 0.960 . S
C868 H855 0.961 . S
C868 H856 0.959 . S
C868 C866 1.561 . S
C869 C866 1.526 . S
C869 C870 1.396 . S
C869 C874 1.390 . S
C870 C864 1.465 . S
C870 C869 1.396 . S
C870 C871 1.399 . S
C871 H857 0.929 . S
C871 C870 1.399 . S
C871 C872 1.385 . S
C872 H858 0.931 . S
C872 C871 1.385 . S
C872 C873 1.389 . S
C873 C872 1.389 . S
C873 C874 1.387 . S
C874 H859 0.930 . S
C874 C869 1.390 . S
C874 C873 1.387 . S
H875 C887 0.930 . S
H876 C889 0.930 . S
H877 C890 0.930 . S
H878 C894 0.959 . S
H879 C894 0.959 . S
H880 C894 0.961 . S
H881 C895 0.960 . S
H882 C895 0.961 . S
H883 C895 0.959 . S
H884 C898 0.929 . S
H885 C899 0.931 . S
H886 C901 0.930 . S
C887 H875 0.930 . S
C887 C888 1.399 . S
C887 C892 1.399 . S
C888 C887 1.399 . S
C888 C889 1.376 . S
C889 H876 0.930 . S
C889 C888 1.376 . S
C889 C890 1.388 . S
C890 H877 0.930 . S
C890 C889 1.388 . S
C890 C891 1.390 . S
C891 C890 1.390 . S
C891 C892 1.394 . S
C891 C897 1.465 . S
C892 C887 1.399 . S
C892 C891 1.394 . S
C892 C893 1.516 . S
C893 C892 1.516 . S
C893 C894 1.502 . S
C893 C895 1.561 . S
C893 C896 1.526 . S
C894 H878 0.959 . S
C894 H879 0.959 . S
C894 H880 0.961 . S
C894 C893 1.502 . S
C895 H881 0.960 . S
C895 H882 0.961 . S
C895 H883 0.959 . S
C895 C893 1.561 . S
C896 C893 1.526 . S
C896 C897 1.396 . S
C896 C901 1.390 . S
C897 C891 1.465 . S
C897 C896 1.396 . S
C897 C898 1.399 . S
C898 H884 0.929 . S
C898 C897 1.399 . S
C898 C899 1.385 . S
C899 H885 0.931 . S
C899 C898 1.385 . S
C899 C900 1.389 . S
C900 C899 1.389 . S
C900 C901 1.387 . S
C901 H886 0.930 . S
C901 C896 1.390 . S
C901 C900 1.387 . S
H902 C914 0.930 . S
H903 C916 0.930 . S
H904 C917 0.930 . S
H905 C921 0.959 . S
H906 C921 0.959 . S
H907 C921 0.961 . S
H908 C922 0.960 . S
H909 C922 0.961 . S
H910 C922 0.959 . S
H911 C925 0.929 . S
H912 C926 0.931 . S
H913 C928 0.930 . S
C914 H902 0.930 . S
C914 C915 1.399 1_554 S
C914 C919 1.399 . S
C915 C914 1.399 1_556 S
C915 C916 1.376 . S
C916 H903 0.930 . S
C916 C915 1.376 . S
C916 C917 1.388 . S
C917 H904 0.930 . S
C917 C916 1.388 . S
C917 C918 1.390 . S
C918 C917 1.390 . S
C918 C919 1.394 1_556 S
C918 C924 1.465 . S
C919 C914 1.399 . S
C919 C918 1.394 1_554 S
C919 C920 1.516 . S
C920 C919 1.516 . S
C920 C921 1.502 . S
C920 C922 1.561 . S
C920 C923 1.526 . S
C921 H905 0.959 . S
C921 H906 0.959 . S
C921 H907 0.961 . S
C921 C920 1.502 . S
C922 H908 0.960 . S
C922 H909 0.961 . S
C922 H910 0.959 . S
C922 C920 1.561 . S
C923 C920 1.526 . S
C923 C924 1.396 1_554 S
C923 C928 1.390 . S
C924 C918 1.465 . S
C924 C923 1.396 1_556 S
C924 C925 1.399 . S
C925 H911 0.929 . S
C925 C924 1.399 . S
C925 C926 1.385 . S
C926 H912 0.931 . S
C926 C925 1.385 . S
C926 C927 1.380 1_556 S
C927 C926 1.380 1_554 S
C927 C928 1.394 . S
C928 H913 0.930 . S
C928 C923 1.390 . S
C928 C927 1.394 . S
H929 C941 0.930 . S
H930 C943 0.930 . S
H931 C944 0.930 . S
H932 C948 0.959 . S
H933 C948 0.959 . S
H934 C948 0.961 . S
H935 C949 0.960 . S
H936 C949 0.961 . S
H937 C949 0.959 . S
H938 C952 0.929 . S
H939 C953 0.931 . S
H940 C955 0.930 . S
C941 H929 0.930 . S
C941 C942 1.399 . S
C941 C946 1.399 . S
C942 C941 1.399 . S
C942 C943 1.376 . S
C943 H930 0.930 . S
C943 C942 1.376 . S
C943 C944 1.388 . S
C944 H931 0.930 . S
C944 C943 1.388 . S
C944 C945 1.390 . S
C945 C944 1.390 . S
C945 C946 1.394 . S
C945 C951 1.465 . S
C946 C941 1.399 . S
C946 C945 1.394 . S
C946 C947 1.516 . S
C947 C946 1.516 . S
C947 C948 1.502 . S
C947 C949 1.561 . S
C947 C950 1.526 . S
C948 H932 0.959 . S
C948 H933 0.959 . S
C948 H934 0.961 . S
C948 C947 1.502 . S
C949 H935 0.960 . S
C949 H936 0.961 . S
C949 H937 0.959 . S
C949 C947 1.561 . S
C950 C947 1.526 . S
C950 C951 1.396 . S
C950 C955 1.390 . S
C951 C945 1.465 . S
C951 C950 1.396 . S
C951 C952 1.399 . S
C952 H938 0.929 . S
C952 C951 1.399 . S
C952 C953 1.385 . S
C953 H939 0.931 . S
C953 C952 1.385 . S
C953 C954 1.389 . S
C954 C953 1.389 . S
C954 C955 1.387 . S
C955 H940 0.930 . S
C955 C950 1.390 . S
C955 C954 1.387 . S
H956 C968 0.930 . S
H957 C970 0.930 . S
H958 C971 0.930 . S
H959 C975 0.959 . S
H960 C975 0.959 . S
H961 C975 0.961 . S
H962 C976 0.960 . S
H963 C976 0.961 . S
H964 C976 0.959 . S
H965 C979 0.929 . S
H966 C980 0.931 . S
H967 C982 0.930 . S
C968 H956 0.930 . S
C968 C969 1.399 . S
C968 C973 1.399 . S
C969 C968 1.399 . S
C969 C970 1.376 . S
C970 H957 0.930 . S
C970 C969 1.376 . S
C970 C971 1.388 . S
C971 H958 0.930 . S
C971 C970 1.388 . S
C971 C972 1.390 . S
C972 C971 1.390 . S
C972 C973 1.394 . S
C972 C978 1.465 . S
C973 C968 1.399 . S
C973 C972 1.394 . S
C973 C974 1.516 . S
C974 C973 1.516 . S
C974 C975 1.502 . S
C974 C976 1.561 . S
C974 C977 1.526 . S
C975 H959 0.959 . S
C975 H960 0.959 . S
C975 H961 0.961 . S
C975 C974 1.502 . S
C976 H962 0.960 . S
C976 H963 0.961 . S
C976 H964 0.959 . S
C976 C974 1.561 . S
C977 C974 1.526 . S
C977 C978 1.396 . S
C977 C982 1.390 . S
C978 C972 1.465 . S
C978 C977 1.396 . S
C978 C979 1.399 . S
C979 H965 0.929 . S
C979 C978 1.399 . S
C979 C980 1.385 . S
C980 H966 0.931 . S
C980 C979 1.385 . S
C980 C981 1.389 . S
C981 C980 1.389 . S
C981 C982 1.387 . S
C982 H967 0.930 . S
C982 C977 1.390 . S
C982 C981 1.387 . S
H983 C995 0.930 . S
H984 C997 0.930 . S
H985 C998 0.930 . S
H986 C1002 0.959 . S
H987 C1002 0.959 . S
H988 C1002 0.961 . S
H989 C1003 0.960 . S
H990 C1003 0.961 . S
H991 C1003 0.959 . S
H992 C1006 0.929 . S
H993 C1007 0.931 . S
H994 C1009 0.928 1_556 S
C995 H983 0.930 . S
C995 C996 1.399 . S
C995 C1000 1.399 . S
C996 C995 1.399 . S
C996 C997 1.376 1_556 S
C997 H984 0.930 . S
C997 C996 1.376 1_554 S
C997 C998 1.388 . S
C998 H985 0.930 . S
C998 C997 1.388 . S
C998 C999 1.390 . S
C999 C998 1.390 . S
C999 C1000 1.394 1_554 S
C999 C1005 1.465 . S
C1000 C995 1.399 . S
C1000 C999 1.394 1_556 S
C1000 C1001 1.516 . S
C1001 C1000 1.516 . S
C1001 C1002 1.502 . S
C1001 C1003 1.561 1_556 S
C1001 C1004 1.526 1_556 S
C1002 H986 0.959 . S
C1002 H987 0.959 . S
C1002 H988 0.961 . S
C1002 C1001 1.502 . S
C1003 H989 0.960 . S
C1003 H990 0.961 . S
C1003 H991 0.959 . S
C1003 C1001 1.561 1_554 S
C1004 C1001 1.526 1_554 S
C1004 C1005 1.396 . S
C1004 C1009 1.390 . S
C1005 C999 1.465 . S
C1005 C1004 1.396 . S
C1005 C1006 1.399 . S
C1006 H992 0.929 . S
C1006 C1005 1.399 . S
C1006 C1007 1.385 . S
C1007 H993 0.931 . S
C1007 C1006 1.385 . S
C1007 C1008 1.389 . S
C1008 C1007 1.389 . S
C1008 C1009 1.387 . S
C1009 H994 0.928 1_554 S
C1009 C1004 1.390 . S
C1009 C1008 1.387 . S
H1010 C1022 0.930 . S
H1011 C1024 0.930 . S
H1012 C1025 0.930 . S
H1013 C1029 0.959 . S
H1014 C1029 0.959 . S
H1015 C1029 0.961 . S
H1016 C1030 0.960 . S
H1017 C1030 0.961 . S
H1018 C1030 0.959 . S
H1019 C1033 0.929 . S
H1020 C1034 0.931 . S
H1021 C1036 0.930 . S
C1022 H1010 0.930 . S
C1022 C1023 1.399 . S
C1022 C1027 1.399 . S
C1023 C1022 1.399 . S
C1023 C1024 1.376 . S
C1024 H1011 0.930 . S
C1024 C1023 1.376 . S
C1024 C1025 1.388 . S
C1025 H1012 0.930 . S
C1025 C1024 1.388 . S
C1025 C1026 1.390 . S
C1026 C1025 1.390 . S
C1026 C1027 1.394 . S
C1026 C1032 1.465 . S
C1027 C1022 1.399 . S
C1027 C1026 1.394 . S
C1027 C1028 1.516 . S
C1028 C1027 1.516 . S
C1028 C1029 1.502 . S
C1028 C1030 1.561 . S
C1028 C1031 1.526 . S
C1029 H1013 0.959 . S
C1029 H1014 0.959 . S
C1029 H1015 0.961 . S
C1029 C1028 1.502 . S
C1030 H1016 0.960 . S
C1030 H1017 0.961 . S
C1030 H1018 0.959 . S
C1030 C1028 1.561 . S
C1031 C1028 1.526 . S
C1031 C1032 1.396 . S
C1031 C1036 1.390 . S
C1032 C1026 1.465 . S
C1032 C1031 1.396 . S
C1032 C1033 1.399 . S
C1033 H1019 0.929 . S
C1033 C1032 1.399 . S
C1033 C1034 1.385 . S
C1034 H1020 0.931 . S
C1034 C1033 1.385 . S
C1034 C1035 1.389 . S
C1035 C1034 1.389 . S
C1035 C1036 1.387 . S
C1036 H1021 0.930 . S
C1036 C1031 1.390 . S
C1036 C1035 1.387 . S
H1037 C1049 0.930 . S
H1038 C1051 0.930 . S
H1039 C1052 0.930 . S
H1040 C1056 0.959 . S
H1041 C1056 0.959 . S
H1042 C1056 0.961 . S
H1043 C1057 0.960 . S
H1044 C1057 0.961 . S
H1045 C1057 0.959 . S
H1046 C1060 0.929 . S
H1047 C1061 0.931 . S
H1048 C1063 0.930 . S
C1049 H1037 0.930 . S
C1049 C1050 1.399 . S
C1049 C1054 1.399 . S
C1050 C1049 1.399 . S
C1050 C1051 1.376 . S
C1051 H1038 0.930 . S
C1051 C1050 1.376 . S
C1051 C1052 1.388 . S
C1052 H1039 0.930 . S
C1052 C1051 1.388 . S
C1052 C1053 1.390 . S
C1053 C1052 1.390 . S
C1053 C1054 1.394 . S
C1053 C1059 1.465 . S
C1054 C1049 1.399 . S
C1054 C1053 1.394 . S
C1054 C1055 1.516 . S
C1055 C1054 1.516 . S
C1055 C1056 1.502 . S
C1055 C1057 1.561 . S
C1055 C1058 1.526 . S
C1056 H1040 0.959 . S
C1056 H1041 0.959 . S
C1056 H1042 0.961 . S
C1056 C1055 1.502 . S
C1057 H1043 0.960 . S
C1057 H1044 0.961 . S
C1057 H1045 0.959 . S
C1057 C1055 1.561 . S
C1058 C1055 1.526 . S
C1058 C1059 1.396 . S
C1058 C1063 1.390 . S
C1059 C1053 1.465 . S
C1059 C1058 1.396 . S
C1059 C1060 1.399 . S
C1060 H1046 0.929 . S
C1060 C1059 1.399 . S
C1060 C1061 1.385 . S
C1061 H1047 0.931 . S
C1061 C1060 1.385 . S
C1061 C1062 1.389 . S
C1062 C1061 1.389 . S
C1062 C1063 1.387 . S
C1063 H1048 0.930 . S
C1063 C1058 1.390 . S
C1063 C1062 1.387 . S
H1064 C1076 0.930 . S
H1065 C1078 0.930 . S
H1066 C1079 0.930 . S
H1067 C1083 0.959 . S
H1068 C1083 0.959 . S
H1069 C1083 0.961 . S
H1070 C1084 0.960 . S
H1071 C1084 0.961 . S
H1072 C1084 0.959 . S
H1073 C1087 0.929 . S
H1074 C1088 0.931 . S
H1075 C1090 0.930 . S
C1076 H1064 0.930 . S
C1076 C1077 1.399 . S
C1076 C1081 1.399 . S
C1077 C1076 1.399 . S
C1077 C1078 1.376 . S
C1078 H1065 0.930 . S
C1078 C1077 1.376 . S
C1078 C1079 1.388 . S
C1079 H1066 0.930 . S
C1079 C1078 1.388 . S
C1079 C1080 1.390 . S
C1080 C1079 1.390 . S
C1080 C1081 1.394 . S
C1080 C1086 1.465 . S
C1081 C1076 1.399 . S
C1081 C1080 1.394 . S
C1081 C1082 1.516 . S
C1082 C1081 1.516 . S
C1082 C1083 1.502 . S
C1082 C1084 1.561 . S
C1082 C1085 1.526 . S
C1083 H1067 0.959 . S
C1083 H1068 0.959 . S
C1083 H1069 0.961 . S
C1083 C1082 1.502 . S
C1084 H1070 0.960 . S
C1084 H1071 0.961 . S
C1084 H1072 0.959 . S
C1084 C1082 1.561 . S
C1085 C1082 1.526 . S
C1085 C1086 1.396 . S
C1085 C1090 1.390 . S
C1086 C1080 1.465 . S
C1086 C1085 1.396 . S
C1086 C1087 1.399 . S
C1087 H1073 0.929 . S
C1087 C1086 1.399 . S
C1087 C1088 1.385 . S
C1088 H1074 0.931 . S
C1088 C1087 1.385 . S
C1088 C1089 1.389 . S
C1089 C1088 1.389 . S
C1089 C1090 1.387 . S
C1090 H1075 0.930 . S
C1090 C1085 1.390 . S
C1090 C1089 1.387 . S
H1091 C1103 0.930 . S
H1092 C1105 0.930 . S
H1093 C1106 0.930 . S
H1094 C1110 0.959 . S
H1095 C1110 0.959 . S
H1096 C1110 0.961 . S
H1097 C1111 0.960 . S
H1098 C1111 0.961 . S
H1099 C1111 0.959 . S
H1100 C1114 0.929 . S
H1101 C1115 0.931 . S
H1102 C1117 0.930 . S
C1103 H1091 0.930 . S
C1103 C1104 1.399 . S
C1103 C1108 1.399 . S
C1104 C1103 1.399 . S
C1104 C1105 1.376 . S
C1105 H1092 0.930 . S
C1105 C1104 1.376 . S
C1105 C1106 1.388 . S
C1106 H1093 0.930 . S
C1106 C1105 1.388 . S
C1106 C1107 1.390 . S
C1107 C1106 1.390 . S
C1107 C1108 1.394 . S
C1107 C1113 1.465 . S
C1108 C1103 1.399 . S
C1108 C1107 1.394 . S
C1108 C1109 1.516 . S
C1109 C1108 1.516 . S
C1109 C1110 1.502 . S
C1109 C1111 1.561 . S
C1109 C1112 1.526 . S
C1110 H1094 0.959 . S
C1110 H1095 0.959 . S
C1110 H1096 0.961 . S
C1110 C1109 1.502 . S
C1111 H1097 0.960 . S
C1111 H1098 0.961 . S
C1111 H1099 0.959 . S
C1111 C1109 1.561 . S
C1112 C1109 1.526 . S
C1112 C1113 1.396 . S
C1112 C1117 1.390 . S
C1113 C1107 1.465 . S
C1113 C1112 1.396 . S
C1113 C1114 1.399 . S
C1114 H1100 0.929 . S
C1114 C1113 1.399 . S
C1114 C1115 1.385 . S
C1115 H1101 0.931 . S
C1115 C1114 1.385 . S
C1115 C1116 1.389 . S
C1116 C1115 1.389 . S
C1116 C1117 1.387 . S
C1117 H1102 0.930 . S
C1117 C1112 1.390 . S
C1117 C1116 1.387 . S
H1118 C1130 0.930 . S
H1119 C1132 0.930 . S
H1120 C1133 0.930 . S
H1121 C1137 0.959 . S
H1122 C1137 0.959 . S
H1123 C1137 0.961 . S
H1124 C1138 0.960 . S
H1125 C1138 0.961 . S
H1126 C1138 0.959 . S
H1127 C1141 0.929 . S
H1128 C1142 0.931 . S
H1129 C1144 0.930 . S
C1130 H1118 0.930 . S
C1130 C1131 1.399 . S
C1130 C1135 1.399 . S
C1131 C1130 1.399 . S
C1131 C1132 1.376 . S
C1132 H1119 0.930 . S
C1132 C1131 1.376 . S
C1132 C1133 1.388 . S
C1133 H1120 0.930 . S
C1133 C1132 1.388 . S
C1133 C1134 1.390 . S
C1134 C1133 1.390 . S
C1134 C1135 1.394 . S
C1134 C1140 1.465 . S
C1135 C1130 1.399 . S
C1135 C1134 1.394 . S
C1135 C1136 1.516 . S
C1136 C1135 1.516 . S
C1136 C1137 1.502 . S
C1136 C1138 1.561 . S
C1136 C1139 1.526 . S
C1137 H1121 0.959 . S
C1137 H1122 0.959 . S
C1137 H1123 0.961 . S
C1137 C1136 1.502 . S
C1138 H1124 0.960 . S
C1138 H1125 0.961 . S
C1138 H1126 0.959 . S
C1138 C1136 1.561 . S
C1139 C1136 1.526 . S
C1139 C1140 1.396 . S
C1139 C1144 1.390 . S
C1140 C1134 1.465 . S
C1140 C1139 1.396 . S
C1140 C1141 1.399 . S
C1141 H1127 0.929 . S
C1141 C1140 1.399 . S
C1141 C1142 1.385 . S
C1142 H1128 0.931 . S
C1142 C1141 1.385 . S
C1142 C1143 1.389 . S
C1143 C1142 1.389 . S
C1143 C1144 1.387 . S
C1144 H1129 0.930 . S
C1144 C1139 1.390 . S
C1144 C1143 1.387 . S
H1145 C1157 0.930 . S
H1146 C1159 0.930 . S
H1147 C1160 0.930 . S
H1148 C1164 0.959 . S
H1149 C1164 0.959 . S
H1150 C1164 0.961 . S
H1151 C1165 0.960 . S
H1152 C1165 0.961 . S
H1153 C1165 0.959 . S
H1154 C1168 0.929 . S
H1155 C1169 0.931 . S
H1156 C1171 0.930 . S
C1157 H1145 0.930 . S
C1157 C1158 1.399 . S
C1157 C1162 1.399 . S
C1158 C1157 1.399 . S
C1158 C1159 1.376 . S
C1159 H1146 0.930 . S
C1159 C1158 1.376 . S
C1159 C1160 1.388 . S
C1160 H1147 0.930 . S
C1160 C1159 1.388 . S
C1160 C1161 1.390 . S
C1161 C1160 1.390 . S
C1161 C1162 1.394 . S
C1161 C1167 1.465 . S
C1162 C1157 1.399 . S
C1162 C1161 1.394 . S
C1162 C1163 1.516 . S
C1163 C1162 1.516 . S
C1163 C1164 1.502 . S
C1163 C1165 1.561 . S
C1163 C1166 1.526 . S
C1164 H1148 0.959 . S
C1164 H1149 0.959 . S
C1164 H1150 0.961 . S
C1164 C1163 1.502 . S
C1165 H1151 0.960 . S
C1165 H1152 0.961 . S
C1165 H1153 0.959 . S
C1165 C1163 1.561 . S
C1166 C1163 1.526 . S
C1166 C1167 1.396 . S
C1166 C1171 1.390 . S
C1167 C1161 1.465 . S
C1167 C1166 1.396 . S
C1167 C1168 1.399 . S
C1168 H1154 0.929 . S
C1168 C1167 1.399 . S
C1168 C1169 1.385 . S
C1169 H1155 0.931 . S
C1169 C1168 1.385 . S
C1169 C1170 1.389 . S
C1170 C1169 1.389 . S
C1170 C1171 1.387 . S
C1171 H1156 0.930 . S
C1171 C1166 1.390 . S
C1171 C1170 1.387 . S
H1172 C1184 0.930 . S
H1173 C1186 0.930 . S
H1174 C1187 0.930 . S
H1175 C1191 0.959 . S
H1176 C1191 0.959 . S
H1177 C1191 0.961 . S
H1178 C1192 0.960 . S
H1179 C1192 0.961 . S
H1180 C1192 0.959 . S
H1181 C1195 0.929 . S
H1182 C1196 0.931 . S
H1183 C1198 0.930 . S
C1184 H1172 0.930 . S
C1184 C1185 1.399 . S
C1184 C1189 1.399 . S
C1185 C1184 1.399 . S
C1185 C1186 1.376 . S
C1186 H1173 0.930 . S
C1186 C1185 1.376 . S
C1186 C1187 1.388 . S
C1187 H1174 0.930 . S
C1187 C1186 1.388 . S
C1187 C1188 1.390 . S
C1188 C1187 1.390 . S
C1188 C1189 1.394 . S
C1188 C1194 1.465 . S
C1189 C1184 1.399 . S
C1189 C1188 1.394 . S
C1189 C1190 1.516 . S
C1190 C1189 1.516 . S
C1190 C1191 1.502 . S
C1190 C1192 1.561 . S
C1190 C1193 1.526 . S
C1191 H1175 0.959 . S
C1191 H1176 0.959 . S
C1191 H1177 0.961 . S
C1191 C1190 1.502 . S
C1192 H1178 0.960 . S
C1192 H1179 0.961 . S
C1192 H1180 0.959 . S
C1192 C1190 1.561 . S
C1193 C1190 1.526 . S
C1193 C1194 1.396 . S
C1193 C1198 1.390 . S
C1194 C1188 1.465 . S
C1194 C1193 1.396 . S
C1194 C1195 1.399 . S
C1195 H1181 0.929 . S
C1195 C1194 1.399 . S
C1195 C1196 1.385 . S
C1196 H1182 0.931 . S
C1196 C1195 1.385 . S
C1196 C1197 1.389 . S
C1197 C1196 1.389 . S
C1197 C1198 1.387 . S
C1198 H1183 0.930 . S
C1198 C1193 1.390 . S
C1198 C1197 1.387 . S
H1199 C1211 0.930 . S
H1200 C1213 0.930 . S
H1201 C1214 0.930 . S
H1202 C1218 0.959 . S
H1203 C1218 0.959 . S
H1204 C1218 0.961 . S
H1205 C1219 0.960 . S
H1206 C1219 0.961 . S
H1207 C1219 0.959 . S
H1208 C1222 0.929 . S
H1209 C1223 0.931 . S
H1210 C1225 0.930 . S
C1211 H1199 0.930 . S
C1211 C1212 1.399 . S
C1211 C1216 1.399 . S
C1212 C1211 1.399 . S
C1212 C1213 1.376 . S
C1213 H1200 0.930 . S
C1213 C1212 1.376 . S
C1213 C1214 1.388 . S
C1214 H1201 0.930 . S
C1214 C1213 1.388 . S
C1214 C1215 1.390 . S
C1215 C1214 1.390 . S
C1215 C1216 1.394 . S
C1215 C1221 1.465 . S
C1216 C1211 1.399 . S
C1216 C1215 1.394 . S
C1216 C1217 1.516 . S
C1217 C1216 1.516 . S
C1217 C1218 1.502 . S
C1217 C1219 1.561 . S
C1217 C1220 1.526 . S
C1218 H1202 0.959 . S
C1218 H1203 0.959 . S
C1218 H1204 0.961 . S
C1218 C1217 1.502 . S
C1219 H1205 0.960 . S
C1219 H1206 0.961 . S
C1219 H1207 0.959 . S
C1219 C1217 1.561 . S
C1220 C1217 1.526 . S
C1220 C1221 1.396 . S
C1220 C1225 1.390 . S
C1221 C1215 1.465 . S
C1221 C1220 1.396 . S
C1221 C1222 1.399 . S
C1222 H1208 0.929 . S
C1222 C1221 1.399 . S
C1222 C1223 1.385 . S
C1223 H1209 0.931 . S
C1223 C1222 1.385 . S
C1223 C1224 1.389 . S
C1224 C1223 1.389 . S
C1224 C1225 1.387 . S
C1225 H1210 0.930 . S
C1225 C1220 1.390 . S
C1225 C1224 1.387 . S
H1226 C1238 0.930 . S
H1227 C1240 0.930 . S
H1228 C1241 0.930 . S
H1229 C1245 0.959 . S
H1230 C1245 0.959 . S
H1231 C1245 0.961 . S
H1232 C1246 0.960 . S
H1233 C1246 0.961 . S
H1234 C1246 0.959 . S
H1235 C1249 0.929 . S
H1236 C1250 0.931 . S
H1237 C1252 0.930 . S
C1238 H1226 0.930 . S
C1238 C1239 1.399 . S
C1238 C1243 1.399 . S
C1239 C1238 1.399 . S
C1239 C1240 1.376 . S
C1240 H1227 0.930 . S
C1240 C1239 1.376 . S
C1240 C1241 1.388 . S
C1241 H1228 0.930 . S
C1241 C1240 1.388 . S
C1241 C1242 1.390 . S
C1242 C1241 1.390 . S
C1242 C1243 1.394 . S
C1242 C1248 1.465 . S
C1243 C1238 1.399 . S
C1243 C1242 1.394 . S
C1243 C1244 1.516 . S
C1244 C1243 1.516 . S
C1244 C1245 1.502 . S
C1244 C1246 1.561 . S
C1244 C1247 1.526 . S
C1245 H1229 0.959 . S
C1245 H1230 0.959 . S
C1245 H1231 0.961 . S
C1245 C1244 1.502 . S
C1246 H1232 0.960 . S
C1246 H1233 0.961 . S
C1246 H1234 0.959 . S
C1246 C1244 1.561 . S
C1247 C1244 1.526 . S
C1247 C1248 1.396 . S
C1247 C1252 1.390 . S
C1248 C1242 1.465 . S
C1248 C1247 1.396 . S
C1248 C1249 1.399 . S
C1249 H1235 0.929 . S
C1249 C1248 1.399 . S
C1249 C1250 1.385 . S
C1250 H1236 0.931 . S
C1250 C1249 1.385 . S
C1250 C1251 1.389 . S
C1251 C1250 1.389 . S
C1251 C1252 1.387 . S
C1252 H1237 0.930 . S
C1252 C1247 1.390 . S
C1252 C1251 1.387 . S
H1253 C1265 0.930 . S
H1254 C1267 0.930 . S
H1255 C1268 0.930 . S
H1256 C1272 0.959 . S
H1257 C1272 0.959 . S
H1258 C1272 0.961 . S
H1259 C1273 0.960 . S
H1260 C1273 0.961 . S
H1261 C1273 0.959 . S
H1262 C1276 0.929 . S
H1263 C1277 0.931 . S
H1264 C1279 0.930 . S
C1265 H1253 0.930 . S
C1265 C1266 1.399 . S
C1265 C1270 1.399 . S
C1266 C1265 1.399 . S
C1266 C1267 1.376 . S
C1267 H1254 0.930 . S
C1267 C1266 1.376 . S
C1267 C1268 1.388 . S
C1268 H1255 0.930 . S
C1268 C1267 1.388 . S
C1268 C1269 1.390 . S
C1269 C1268 1.390 . S
C1269 C1270 1.394 . S
C1269 C1275 1.465 . S
C1270 C1265 1.399 . S
C1270 C1269 1.394 . S
C1270 C1271 1.516 . S
C1271 C1270 1.516 . S
C1271 C1272 1.502 . S
C1271 C1273 1.561 . S
C1271 C1274 1.526 . S
C1272 H1256 0.959 . S
C1272 H1257 0.959 . S
C1272 H1258 0.961 . S
C1272 C1271 1.502 . S
C1273 H1259 0.960 . S
C1273 H1260 0.961 . S
C1273 H1261 0.959 . S
C1273 C1271 1.561 . S
C1274 C1271 1.526 . S
C1274 C1275 1.396 . S
C1274 C1279 1.390 . S
C1275 C1269 1.465 . S
C1275 C1274 1.396 . S
C1275 C1276 1.399 . S
C1276 H1262 0.929 . S
C1276 C1275 1.399 . S
C1276 C1277 1.385 . S
C1277 H1263 0.931 . S
C1277 C1276 1.385 . S
C1277 C1278 1.389 . S
C1278 C1277 1.389 . S
C1278 C1279 1.387 . S
C1279 H1264 0.930 . S
C1279 C1274 1.390 . S
C1279 C1278 1.387 . S
H1280 C1292 0.930 . S
H1281 C1294 0.930 . S
H1282 C1295 0.930 . S
H1283 C1299 0.959 . S
H1284 C1299 0.959 . S
H1285 C1299 0.961 . S
H1286 C1300 0.960 . S
H1287 C1300 0.961 . S
H1288 C1300 0.959 . S
H1289 C1303 0.929 . S
H1290 C1304 0.931 . S
H1291 C1306 0.930 . S
C1292 H1280 0.930 . S
C1292 C1293 1.399 . S
C1292 C1297 1.399 . S
C1293 C1292 1.399 . S
C1293 C1294 1.376 . S
C1294 H1281 0.930 . S
C1294 C1293 1.376 . S
C1294 C1295 1.388 . S
C1295 H1282 0.930 . S
C1295 C1294 1.388 . S
C1295 C1296 1.390 . S
C1296 C1295 1.390 . S
C1296 C1297 1.394 . S
C1296 C1302 1.465 . S
C1297 C1292 1.399 . S
C1297 C1296 1.394 . S
C1297 C1298 1.516 . S
C1298 C1297 1.516 . S
C1298 C1299 1.502 . S
C1298 C1300 1.561 . S
C1298 C1301 1.526 . S
C1299 H1283 0.959 . S
C1299 H1284 0.959 . S
C1299 H1285 0.961 . S
C1299 C1298 1.502 . S
C1300 H1286 0.960 . S
C1300 H1287 0.961 . S
C1300 H1288 0.959 . S
C1300 C1298 1.561 . S
C1301 C1298 1.526 . S
C1301 C1302 1.396 . S
C1301 C1306 1.390 . S
C1302 C1296 1.465 . S
C1302 C1301 1.396 . S
C1302 C1303 1.399 . S
C1303 H1289 0.929 . S
C1303 C1302 1.399 . S
C1303 C1304 1.385 . S
C1304 H1290 0.931 . S
C1304 C1303 1.385 . S
C1304 C1305 1.389 . S
C1305 C1304 1.389 . S
C1305 C1306 1.387 . S
C1306 H1291 0.930 . S
C1306 C1301 1.390 . S
C1306 C1305 1.387 . S
H1307 C1319 0.930 . S
H1308 C1321 0.930 . S
H1309 C1322 0.930 . S
H1310 C1326 0.959 . S
H1311 C1326 0.959 . S
H1312 C1326 0.961 . S
H1313 C1327 0.960 . S
H1314 C1327 0.961 . S
H1315 C1327 0.959 . S
H1316 C1330 0.929 . S
H1317 C1331 0.931 . S
H1318 C1333 0.930 . S
C1319 H1307 0.930 . S
C1319 C1320 1.399 . S
C1319 C1324 1.399 . S
C1320 C1319 1.399 . S
C1320 C1321 1.376 . S
C1321 H1308 0.930 . S
C1321 C1320 1.376 . S
C1321 C1322 1.388 . S
C1322 H1309 0.930 . S
C1322 C1321 1.388 . S
C1322 C1323 1.390 . S
C1323 C1322 1.390 . S
C1323 C1324 1.394 . S
C1323 C1329 1.465 . S
C1324 C1319 1.399 . S
C1324 C1323 1.394 . S
C1324 C1325 1.516 . S
C1325 C1324 1.516 . S
C1325 C1326 1.502 . S
C1325 C1327 1.561 . S
C1325 C1328 1.526 . S
C1326 H1310 0.959 . S
C1326 H1311 0.959 . S
C1326 H1312 0.961 . S
C1326 C1325 1.502 . S
C1327 H1313 0.960 . S
C1327 H1314 0.961 . S
C1327 H1315 0.959 . S
C1327 C1325 1.561 . S
C1328 C1325 1.526 . S
C1328 C1329 1.396 . S
C1328 C1333 1.390 . S
C1329 C1323 1.465 . S
C1329 C1328 1.396 . S
C1329 C1330 1.399 . S
C1330 H1316 0.929 . S
C1330 C1329 1.399 . S
C1330 C1331 1.385 . S
C1331 H1317 0.931 . S
C1331 C1330 1.385 . S
C1331 C1332 1.389 . S
C1332 C1331 1.389 . S
C1332 C1333 1.387 . S
C1333 H1318 0.930 . S
C1333 C1328 1.390 . S
C1333 C1332 1.387 . S
H1334 C1346 0.930 . S
H1335 C1348 0.930 . S
H1336 C1349 0.930 . S
H1337 C1353 0.959 . S
H1338 C1353 0.959 . S
H1339 C1353 0.961 . S
H1340 C1354 0.960 . S
H1341 C1354 0.961 . S
H1342 C1354 0.959 . S
H1343 C1357 0.929 . S
H1344 C1358 0.931 . S
H1345 C1360 0.930 . S
C1346 H1334 0.930 . S
C1346 C1347 1.399 . S
C1346 C1351 1.399 . S
C1347 C1346 1.399 . S
C1347 C1348 1.376 . S
C1348 H1335 0.930 . S
C1348 C1347 1.376 . S
C1348 C1349 1.388 . S
C1349 H1336 0.930 . S
C1349 C1348 1.388 . S
C1349 C1350 1.390 . S
C1350 C1349 1.390 . S
C1350 C1351 1.394 . S
C1350 C1356 1.465 . S
C1351 C1346 1.399 . S
C1351 C1350 1.394 . S
C1351 C1352 1.516 . S
C1352 C1351 1.516 . S
C1352 C1353 1.502 . S
C1352 C1354 1.561 . S
C1352 C1355 1.526 . S
C1353 H1337 0.959 . S
C1353 H1338 0.959 . S
C1353 H1339 0.961 . S
C1353 C1352 1.502 . S
C1354 H1340 0.960 . S
C1354 H1341 0.961 . S
C1354 H1342 0.959 . S
C1354 C1352 1.561 . S
C1355 C1352 1.526 . S
C1355 C1356 1.396 . S
C1355 C1360 1.390 . S
C1356 C1350 1.465 . S
C1356 C1355 1.396 . S
C1356 C1357 1.399 . S
C1357 H1343 0.929 . S
C1357 C1356 1.399 . S
C1357 C1358 1.385 . S
C1358 H1344 0.931 . S
C1358 C1357 1.385 . S
C1358 C1359 1.389 . S
C1359 C1358 1.389 . S
C1359 C1360 1.387 . S
C1360 H1345 0.930 . S
C1360 C1355 1.390 . S
C1360 C1359 1.387 . S
H1361 C1373 0.930 . S
H1362 C1375 0.930 . S
H1363 C1376 0.930 . S
H1364 C1380 0.959 . S
H1365 C1380 0.959 . S
H1366 C1380 0.961 . S
H1367 C1381 0.960 . S
H1368 C1381 0.961 . S
H1369 C1381 0.959 . S
H1370 C1384 0.929 . S
H1371 C1385 0.931 . S
H1372 C1387 0.930 . S
C1373 H1361 0.930 . S
C1373 C1374 1.399 . S
C1373 C1378 1.399 . S
C1374 C1373 1.399 . S
C1374 C1375 1.376 . S
C1375 H1362 0.930 . S
C1375 C1374 1.376 . S
C1375 C1376 1.388 . S
C1376 H1363 0.930 . S
C1376 C1375 1.388 . S
C1376 C1377 1.390 . S
C1377 C1376 1.390 . S
C1377 C1378 1.394 . S
C1377 C1383 1.465 . S
C1378 C1373 1.399 . S
C1378 C1377 1.394 . S
C1378 C1379 1.516 . S
C1379 C1378 1.516 . S
C1379 C1380 1.502 . S
C1379 C1381 1.561 . S
C1379 C1382 1.526 . S
C1380 H1364 0.959 . S
C1380 H1365 0.959 . S
C1380 H1366 0.961 . S
C1380 C1379 1.502 . S
C1381 H1367 0.960 . S
C1381 H1368 0.961 . S
C1381 H1369 0.959 . S
C1381 C1379 1.561 . S
C1382 C1379 1.526 . S
C1382 C1383 1.396 . S
C1382 C1387 1.390 . S
C1383 C1377 1.465 . S
C1383 C1382 1.396 . S
C1383 C1384 1.399 . S
C1384 H1370 0.929 . S
C1384 C1383 1.399 . S
C1384 C1385 1.385 . S
C1385 H1371 0.931 . S
C1385 C1384 1.385 . S
C1385 C1386 1.389 . S
C1386 C1385 1.389 . S
C1386 C1387 1.387 . S
C1387 H1372 0.930 . S
C1387 C1382 1.390 . S
C1387 C1386 1.387 . S
H1388 C1400 0.930 . S
H1389 C1402 0.930 . S
H1390 C1403 0.930 . S
H1391 C1407 0.959 . S
H1392 C1407 0.959 . S
H1393 C1407 0.961 . S
H1394 C1408 0.960 . S
H1395 C1408 0.961 . S
H1396 C1408 0.959 . S
H1397 C1411 0.929 1_556 S
H1398 C1412 0.931 . S
H1399 C1414 0.930 . S
C1400 H1388 0.930 . S
C1400 C1401 1.399 . S
C1400 C1405 1.399 . S
C1401 C1400 1.399 . S
C1401 C1402 1.376 . S
C1402 H1389 0.930 . S
C1402 C1401 1.376 . S
C1402 C1403 1.388 . S
C1403 H1390 0.930 . S
C1403 C1402 1.388 . S
C1403 C1404 1.390 . S
C1404 C1403 1.390 . S
C1404 C1405 1.394 . S
C1404 C1410 1.461 1_556 S
C1405 C1400 1.399 . S
C1405 C1404 1.394 . S
C1405 C1406 1.516 1_556 S
C1406 C1405 1.516 1_554 S
C1406 C1407 1.502 . S
C1406 C1408 1.561 1_554 S
C1406 C1409 1.526 . S
C1407 H1391 0.959 . S
C1407 H1392 0.959 . S
C1407 H1393 0.961 . S
C1407 C1406 1.502 . S
C1408 H1394 0.960 . S
C1408 H1395 0.961 . S
C1408 H1396 0.959 . S
C1408 C1406 1.561 1_556 S
C1409 C1406 1.526 . S
C1409 C1410 1.405 . S
C1409 C1414 1.390 . S
C1410 C1404 1.461 1_554 S
C1410 C1409 1.405 . S
C1410 C1411 1.396 . S
C1411 H1397 0.929 1_554 S
C1411 C1410 1.396 . S
C1411 C1412 1.385 . S
C1412 H1398 0.931 . S
C1412 C1411 1.385 . S
C1412 C1413 1.389 . S
C1413 C1412 1.389 . S
C1413 C1414 1.387 . S
C1414 H1399 0.930 . S
C1414 C1409 1.390 . S
C1414 C1413 1.387 . S
H1415 C1427 0.930 . S
H1416 C1429 0.930 1_554 S
H1417 C1430 0.930 . S
H1418 C1434 0.959 . S
H1419 C1434 0.959 . S
H1420 C1434 0.961 . S
H1421 C1435 0.960 . S
H1422 C1435 0.961 . S
H1423 C1435 0.959 . S
H1424 C1438 0.929 . S
H1425 C1439 0.931 . S
H1426 C1441 0.930 . S
C1427 H1415 0.930 . S
C1427 C1428 1.399 . S
C1427 C1432 1.399 . S
C1428 C1427 1.399 . S
C1428 C1429 1.376 . S
C1429 H1416 0.930 1_556 S
C1429 C1428 1.376 . S
C1429 C1430 1.388 1_556 S
C1430 H1417 0.930 . S
C1430 C1429 1.388 1_554 S
C1430 C1431 1.390 1_554 S
C1431 C1430 1.390 1_556 S
C1431 C1432 1.394 . S
C1431 C1437 1.465 1_556 S
C1432 C1427 1.399 . S
C1432 C1431 1.394 . S
C1432 C1433 1.516 . S
C1433 C1432 1.516 . S
C1433 C1434 1.502 . S
C1433 C1435 1.561 . S
C1433 C1436 1.526 . S
C1434 H1418 0.959 . S
C1434 H1419 0.959 . S
C1434 H1420 0.961 . S
C1434 C1433 1.502 . S
C1435 H1421 0.960 . S
C1435 H1422 0.961 . S
C1435 H1423 0.959 . S
C1435 C1433 1.561 . S
C1436 C1433 1.526 . S
C1436 C1437 1.392 1_556 S
C1436 C1441 1.390 . S
C1437 C1431 1.465 1_554 S
C1437 C1436 1.392 1_554 S
C1437 C1438 1.403 . S
C1438 H1424 0.929 . S
C1438 C1437 1.403 . S
C1438 C1439 1.385 . S
C1439 H1425 0.931 . S
C1439 C1438 1.385 . S
C1439 C1440 1.389 . S
C1440 C1439 1.389 . S
C1440 C1441 1.387 1_554 S
C1441 H1426 0.930 . S
C1441 C1436 1.390 . S
C1441 C1440 1.387 1_556 S
H1442 C1454 0.930 . S
H1443 C1456 0.930 . S
H1444 C1457 0.930 . S
H1445 C1461 0.959 . S
H1446 C1461 0.959 . S
H1447 C1461 0.961 . S
H1448 C1462 0.960 . S
H1449 C1462 0.961 . S
H1450 C1462 0.959 . S
H1451 C1465 0.929 . S
H1452 C1466 0.931 . S
H1453 C1468 0.930 . S
C1454 H1442 0.930 . S
C1454 C1455 1.399 . S
C1454 C1459 1.399 . S
C1455 C1454 1.399 . S
C1455 C1456 1.376 . S
C1456 H1443 0.930 . S
C1456 C1455 1.376 . S
C1456 C1457 1.388 . S
C1457 H1444 0.930 . S
C1457 C1456 1.388 . S
C1457 C1458 1.390 . S
C1458 C1457 1.390 . S
C1458 C1459 1.394 . S
C1458 C1464 1.465 . S
C1459 C1454 1.399 . S
C1459 C1458 1.394 . S
C1459 C1460 1.516 . S
C1460 C1459 1.516 . S
C1460 C1461 1.502 . S
C1460 C1462 1.561 . S
C1460 C1463 1.526 . S
C1461 H1445 0.959 . S
C1461 H1446 0.959 . S
C1461 H1447 0.961 . S
C1461 C1460 1.502 . S
C1462 H1448 0.960 . S
C1462 H1449 0.961 . S
C1462 H1450 0.959 . S
C1462 C1460 1.561 . S
C1463 C1460 1.526 . S
C1463 C1464 1.396 . S
C1463 C1468 1.390 . S
C1464 C1458 1.465 . S
C1464 C1463 1.396 . S
C1464 C1465 1.399 . S
C1465 H1451 0.929 . S
C1465 C1464 1.399 . S
C1465 C1466 1.385 . S
C1466 H1452 0.931 . S
C1466 C1465 1.385 . S
C1466 C1467 1.389 . S
C1467 C1466 1.389 . S
C1467 C1468 1.387 . S
C1468 H1453 0.930 . S
C1468 C1463 1.390 . S
C1468 C1467 1.387 . S
H1469 C1481 0.930 . S
H1470 C1483 0.930 . S
H1471 C1484 0.930 . S
H1472 C1488 0.959 . S
H1473 C1488 0.959 . S
H1474 C1488 0.961 . S
H1475 C1489 0.960 . S
H1476 C1489 0.961 . S
H1477 C1489 0.959 . S
H1478 C1492 0.929 . S
H1479 C1493 0.931 . S
H1480 C1495 0.930 . S
C1481 H1469 0.930 . S
C1481 C1482 1.399 . S
C1481 C1486 1.399 . S
C1482 C1481 1.399 . S
C1482 C1483 1.376 . S
C1483 H1470 0.930 . S
C1483 C1482 1.376 . S
C1483 C1484 1.388 . S
C1484 H1471 0.930 . S
C1484 C1483 1.388 . S
C1484 C1485 1.390 . S
C1485 C1484 1.390 . S
C1485 C1486 1.394 . S
C1485 C1491 1.465 . S
C1486 C1481 1.399 . S
C1486 C1485 1.394 . S
C1486 C1487 1.516 . S
C1487 C1486 1.516 . S
C1487 C1488 1.502 . S
C1487 C1489 1.561 . S
C1487 C1490 1.526 . S
C1488 H1472 0.959 . S
C1488 H1473 0.959 . S
C1488 H1474 0.961 . S
C1488 C1487 1.502 . S
C1489 H1475 0.960 . S
C1489 H1476 0.961 . S
C1489 H1477 0.959 . S
C1489 C1487 1.561 . S
C1490 C1487 1.526 . S
C1490 C1491 1.396 . S
C1490 C1495 1.390 . S
C1491 C1485 1.465 . S
C1491 C1490 1.396 . S
C1491 C1492 1.399 . S
C1492 H1478 0.929 . S
C1492 C1491 1.399 . S
C1492 C1493 1.385 . S
C1493 H1479 0.931 . S
C1493 C1492 1.385 . S
C1493 C1494 1.389 . S
C1494 C1493 1.389 . S
C1494 C1495 1.387 . S
C1495 H1480 0.930 . S
C1495 C1490 1.390 . S
C1495 C1494 1.387 . S
H1496 C1508 0.930 . S
H1497 C1510 0.930 . S
H1498 C1511 0.930 . S
H1499 C1515 0.959 . S
H1500 C1515 0.959 . S
H1501 C1515 0.961 . S
H1502 C1516 0.960 . S
H1503 C1516 0.961 . S
H1504 C1516 0.959 . S
H1505 C1519 0.929 . S
H1506 C1520 0.931 . S
H1507 C1522 0.930 . S
C1508 H1496 0.930 . S
C1508 C1509 1.399 . S
C1508 C1513 1.399 . S
C1509 C1508 1.399 . S
C1509 C1510 1.376 . S
C1510 H1497 0.930 . S
C1510 C1509 1.376 . S
C1510 C1511 1.388 . S
C1511 H1498 0.930 . S
C1511 C1510 1.388 . S
C1511 C1512 1.390 . S
C1512 C1511 1.390 . S
C1512 C1513 1.394 . S
C1512 C1518 1.465 . S
C1513 C1508 1.399 . S
C1513 C1512 1.394 . S
C1513 C1514 1.516 . S
C1514 C1513 1.516 . S
C1514 C1515 1.502 . S
C1514 C1516 1.561 . S
C1514 C1517 1.526 . S
C1515 H1499 0.959 . S
C1515 H1500 0.959 . S
C1515 H1501 0.961 . S
C1515 C1514 1.502 . S
C1516 H1502 0.960 . S
C1516 H1503 0.961 . S
C1516 H1504 0.959 . S
C1516 C1514 1.561 . S
C1517 C1514 1.526 . S
C1517 C1518 1.396 . S
C1517 C1522 1.390 . S
C1518 C1512 1.465 . S
C1518 C1517 1.396 . S
C1518 C1519 1.399 . S
C1519 H1505 0.929 . S
C1519 C1518 1.399 . S
C1519 C1520 1.385 . S
C1520 H1506 0.931 . S
C1520 C1519 1.385 . S
C1520 C1521 1.389 . S
C1521 C1520 1.389 . S
C1521 C1522 1.387 . S
C1522 H1507 0.930 . S
C1522 C1517 1.390 . S
C1522 C1521 1.387 . S
H1523 C1535 0.930 . S
H1524 C1537 0.930 . S
H1525 C1538 0.930 . S
H1526 C1542 0.959 . S
H1527 C1542 0.959 . S
H1528 C1542 0.961 . S
H1529 C1543 0.960 . S
H1530 C1543 0.961 . S
H1531 C1543 0.959 . S
H1532 C1546 0.929 . S
H1533 C1547 0.931 . S
H1534 C1549 0.930 . S
C1535 H1523 0.930 . S
C1535 C1536 1.399 . S
C1535 C1540 1.399 . S
C1536 C1535 1.399 . S
C1536 C1537 1.376 . S
C1537 H1524 0.930 . S
C1537 C1536 1.376 . S
C1537 C1538 1.388 . S
C1538 H1525 0.930 . S
C1538 C1537 1.388 . S
C1538 C1539 1.390 . S
C1539 C1538 1.390 . S
C1539 C1540 1.394 . S
C1539 C1545 1.465 . S
C1540 C1535 1.399 . S
C1540 C1539 1.394 . S
C1540 C1541 1.516 . S
C1541 C1540 1.516 . S
C1541 C1542 1.502 . S
C1541 C1543 1.561 . S
C1541 C1544 1.526 . S
C1542 H1526 0.959 . S
C1542 H1527 0.959 . S
C1542 H1528 0.961 . S
C1542 C1541 1.502 . S
C1543 H1529 0.960 . S
C1543 H1530 0.961 . S
C1543 H1531 0.959 . S
C1543 C1541 1.561 . S
C1544 C1541 1.526 . S
C1544 C1545 1.396 . S
C1544 C1549 1.390 . S
C1545 C1539 1.465 . S
C1545 C1544 1.396 . S
C1545 C1546 1.399 . S
C1546 H1532 0.929 . S
C1546 C1545 1.399 . S
C1546 C1547 1.385 . S
C1547 H1533 0.931 . S
C1547 C1546 1.385 . S
C1547 C1548 1.389 . S
C1548 C1547 1.389 . S
C1548 C1549 1.387 . S
C1549 H1534 0.930 . S
C1549 C1544 1.390 . S
C1549 C1548 1.387 . S
H1550 C1562 0.930 . S
H1551 C1564 0.930 . S
H1552 C1565 0.930 . S
H1553 C1569 0.959 . S
H1554 C1569 0.959 . S
H1555 C1569 0.961 . S
H1556 C1570 0.960 . S
H1557 C1570 0.961 . S
H1558 C1570 0.959 . S
H1559 C1573 0.929 . S
H1560 C1574 0.931 . S
H1561 C1576 0.930 . S
C1562 H1550 0.930 . S
C1562 C1563 1.399 . S
C1562 C1567 1.399 . S
C1563 C1562 1.399 . S
C1563 C1564 1.376 . S
C1564 H1551 0.930 . S
C1564 C1563 1.376 . S
C1564 C1565 1.388 . S
C1565 H1552 0.930 . S
C1565 C1564 1.388 . S
C1565 C1566 1.390 . S
C1566 C1565 1.390 . S
C1566 C1567 1.394 . S
C1566 C1572 1.465 . S
C1567 C1562 1.399 . S
C1567 C1566 1.394 . S
C1567 C1568 1.516 . S
C1568 C1567 1.516 . S
C1568 C1569 1.502 . S
C1568 C1570 1.561 . S
C1568 C1571 1.526 . S
C1569 H1553 0.959 . S
C1569 H1554 0.959 . S
C1569 H1555 0.961 . S
C1569 C1568 1.502 . S
C1570 H1556 0.960 . S
C1570 H1557 0.961 . S
C1570 H1558 0.959 . S
C1570 C1568 1.561 . S
C1571 C1568 1.526 . S
C1571 C1572 1.396 . S
C1571 C1576 1.390 . S
C1572 C1566 1.465 . S
C1572 C1571 1.396 . S
C1572 C1573 1.399 . S
C1573 H1559 0.929 . S
C1573 C1572 1.399 . S
C1573 C1574 1.385 . S
C1574 H1560 0.931 . S
C1574 C1573 1.385 . S
C1574 C1575 1.389 . S
C1575 C1574 1.389 . S
C1575 C1576 1.387 . S
C1576 H1561 0.930 . S
C1576 C1571 1.390 . S
C1576 C1575 1.387 . S
H1577 C1589 0.930 . S
H1578 C1591 0.930 . S
H1579 C1592 0.930 . S
H1580 C1596 0.959 . S
H1581 C1596 0.959 . S
H1582 C1596 0.961 . S
H1583 C1597 0.960 . S
H1584 C1597 0.961 . S
H1585 C1597 0.959 . S
H1586 C1600 0.929 . S
H1587 C1601 0.931 . S
H1588 C1603 0.930 . S
C1589 H1577 0.930 . S
C1589 C1590 1.399 . S
C1589 C1594 1.399 . S
C1590 C1589 1.399 . S
C1590 C1591 1.376 . S
C1591 H1578 0.930 . S
C1591 C1590 1.376 . S
C1591 C1592 1.388 . S
C1592 H1579 0.930 . S
C1592 C1591 1.388 . S
C1592 C1593 1.390 . S
C1593 C1592 1.390 . S
C1593 C1594 1.394 . S
C1593 C1599 1.465 . S
C1594 C1589 1.399 . S
C1594 C1593 1.394 . S
C1594 C1595 1.516 . S
C1595 C1594 1.516 . S
C1595 C1596 1.502 . S
C1595 C1597 1.561 . S
C1595 C1598 1.526 . S
C1596 H1580 0.959 . S
C1596 H1581 0.959 . S
C1596 H1582 0.961 . S
C1596 C1595 1.502 . S
C1597 H1583 0.960 . S
C1597 H1584 0.961 . S
C1597 H1585 0.959 . S
C1597 C1595 1.561 . S
C1598 C1595 1.526 . S
C1598 C1599 1.396 . S
C1598 C1603 1.390 . S
C1599 C1593 1.465 . S
C1599 C1598 1.396 . S
C1599 C1600 1.399 . S
C1600 H1586 0.929 . S
C1600 C1599 1.399 . S
C1600 C1601 1.385 . S
C1601 H1587 0.931 . S
C1601 C1600 1.385 . S
C1601 C1602 1.389 . S
C1602 C1601 1.389 . S
C1602 C1603 1.387 . S
C1603 H1588 0.930 . S
C1603 C1598 1.390 . S
C1603 C1602 1.387 . S
H1604 C1616 0.930 . S
H1605 C1618 0.930 . S
H1606 C1619 0.930 . S
H1607 C1623 0.959 . S
H1608 C1623 0.959 . S
H1609 C1623 0.961 . S
H1610 C1624 0.960 . S
H1611 C1624 0.961 . S
H1612 C1624 0.959 . S
H1613 C1627 0.929 . S
H1614 C1628 0.931 . S
H1615 C1630 0.930 . S
C1616 H1604 0.930 . S
C1616 C1617 1.399 . S
C1616 C1621 1.399 . S
C1617 C1616 1.399 . S
C1617 C1618 1.376 . S
C1618 H1605 0.930 . S
C1618 C1617 1.376 . S
C1618 C1619 1.388 . S
C1619 H1606 0.930 . S
C1619 C1618 1.388 . S
C1619 C1620 1.390 . S
C1620 C1619 1.390 . S
C1620 C1621 1.394 . S
C1620 C1626 1.465 . S
C1621 C1616 1.399 . S
C1621 C1620 1.394 . S
C1621 C1622 1.516 . S
C1622 C1621 1.516 . S
C1622 C1623 1.502 . S
C1622 C1624 1.561 . S
C1622 C1625 1.526 . S
C1623 H1607 0.959 . S
C1623 H1608 0.959 . S
C1623 H1609 0.961 . S
C1623 C1622 1.502 . S
C1624 H1610 0.960 . S
C1624 H1611 0.961 . S
C1624 H1612 0.959 . S
C1624 C1622 1.561 . S
C1625 C1622 1.526 . S
C1625 C1626 1.396 . S
C1625 C1630 1.390 . S
C1626 C1620 1.465 . S
C1626 C1625 1.396 . S
C1626 C1627 1.399 . S
C1627 H1613 0.929 . S
C1627 C1626 1.399 . S
C1627 C1628 1.385 . S
C1628 H1614 0.931 . S
C1628 C1627 1.385 . S
C1628 C1629 1.389 . S
C1629 C1628 1.389 . S
C1629 C1630 1.387 . S
C1630 H1615 0.930 . S
C1630 C1625 1.390 . S
C1630 C1629 1.387 . S
H1631 C1643 0.930 . S
H1632 C1645 0.930 . S
H1633 C1646 0.930 . S
H1634 C1650 0.959 . S
H1635 C1650 0.959 . S
H1636 C1650 0.961 . S
H1637 C1651 0.960 . S
H1638 C1651 0.961 . S
H1639 C1651 0.959 . S
H1640 C1654 0.929 . S
H1641 C1655 0.931 . S
H1642 C1657 0.930 . S
C1643 H1631 0.930 . S
C1643 C1644 1.399 . S
C1643 C1648 1.399 . S
C1644 C1643 1.399 . S
C1644 C1645 1.376 . S
C1645 H1632 0.930 . S
C1645 C1644 1.376 . S
C1645 C1646 1.388 . S
C1646 H1633 0.930 . S
C1646 C1645 1.388 . S
C1646 C1647 1.390 . S
C1647 C1646 1.390 . S
C1647 C1648 1.394 . S
C1647 C1653 1.465 . S
C1648 C1643 1.399 . S
C1648 C1647 1.394 . S
C1648 C1649 1.516 . S
C1649 C1648 1.516 . S
C1649 C1650 1.502 . S
C1649 C1651 1.561 . S
C1649 C1652 1.526 . S
C1650 H1634 0.959 . S
C1650 H1635 0.959 . S
C1650 H1636 0.961 . S
C1650 C1649 1.502 . S
C1651 H1637 0.960 . S
C1651 H1638 0.961 . S
C1651 H1639 0.959 . S
C1651 C1649 1.561 . S
C1652 C1649 1.526 . S
C1652 C1653 1.396 . S
C1652 C1657 1.390 . S
C1653 C1647 1.465 . S
C1653 C1652 1.396 . S
C1653 C1654 1.399 . S
C1654 H1640 0.929 . S
C1654 C1653 1.399 . S
C1654 C1655 1.385 . S
C1655 H1641 0.931 . S
C1655 C1654 1.385 . S
C1655 C1656 1.389 . S
C1656 C1655 1.389 . S
C1656 C1657 1.387 . S
C1657 H1642 0.930 . S
C1657 C1652 1.390 . S
C1657 C1656 1.387 . S
H1658 C1670 0.930 . S
H1659 C1672 0.930 . S
H1660 C1673 0.930 . S
H1661 C1677 0.959 . S
H1662 C1677 0.959 . S
H1663 C1677 0.961 . S
H1664 C1678 0.960 . S
H1665 C1678 0.961 . S
H1666 C1678 0.959 . S
H1667 C1681 0.929 . S
H1668 C1682 0.931 . S
H1669 C1684 0.930 . S
C1670 H1658 0.930 . S
C1670 C1671 1.399 . S
C1670 C1675 1.399 . S
C1671 C1670 1.399 . S
C1671 C1672 1.376 . S
C1672 H1659 0.930 . S
C1672 C1671 1.376 . S
C1672 C1673 1.388 . S
C1673 H1660 0.930 . S
C1673 C1672 1.388 . S
C1673 C1674 1.390 . S
C1674 C1673 1.390 . S
C1674 C1675 1.394 . S
C1674 C1680 1.465 . S
C1675 C1670 1.399 . S
C1675 C1674 1.394 . S
C1675 C1676 1.516 . S
C1676 C1675 1.516 . S
C1676 C1677 1.502 . S
C1676 C1678 1.561 . S
C1676 C1679 1.526 . S
C1677 H1661 0.959 . S
C1677 H1662 0.959 . S
C1677 H1663 0.961 . S
C1677 C1676 1.502 . S
C1678 H1664 0.960 . S
C1678 H1665 0.961 . S
C1678 H1666 0.959 . S
C1678 C1676 1.561 . S
C1679 C1676 1.526 . S
C1679 C1680 1.396 . S
C1679 C1684 1.390 . S
C1680 C1674 1.465 . S
C1680 C1679 1.396 . S
C1680 C1681 1.399 . S
C1681 H1667 0.929 . S
C1681 C1680 1.399 . S
C1681 C1682 1.385 . S
C1682 H1668 0.931 . S
C1682 C1681 1.385 . S
C1682 C1683 1.389 . S
C1683 C1682 1.389 . S
C1683 C1684 1.387 . S
C1684 H1669 0.930 . S
C1684 C1679 1.390 . S
C1684 C1683 1.387 . S
H1685 C1697 0.930 . S
H1686 C1699 0.930 . S
H1687 C1700 0.930 . S
H1688 C1704 0.959 . S
H1689 C1704 0.959 . S
H1690 C1704 0.961 . S
H1691 C1705 0.960 . S
H1692 C1705 0.961 . S
H1693 C1705 0.959 . S
H1694 C1708 0.929 . S
H1695 C1709 0.931 . S
H1696 C1711 0.930 . S
C1697 H1685 0.930 . S
C1697 C1698 1.399 . S
C1697 C1702 1.399 . S
C1698 C1697 1.399 . S
C1698 C1699 1.376 . S
C1699 H1686 0.930 . S
C1699 C1698 1.376 . S
C1699 C1700 1.388 . S
C1700 H1687 0.930 . S
C1700 C1699 1.388 . S
C1700 C1701 1.390 . S
C1701 C1700 1.390 . S
C1701 C1702 1.394 . S
C1701 C1707 1.465 . S
C1702 C1697 1.399 . S
C1702 C1701 1.394 . S
C1702 C1703 1.516 . S
C1703 C1702 1.516 . S
C1703 C1704 1.502 . S
C1703 C1705 1.561 . S
C1703 C1706 1.526 . S
C1704 H1688 0.959 . S
C1704 H1689 0.959 . S
C1704 H1690 0.961 . S
C1704 C1703 1.502 . S
C1705 H1691 0.960 . S
C1705 H1692 0.961 . S
C1705 H1693 0.959 . S
C1705 C1703 1.561 . S
C1706 C1703 1.526 . S
C1706 C1707 1.396 . S
C1706 C1711 1.390 . S
C1707 C1701 1.465 . S
C1707 C1706 1.396 . S
C1707 C1708 1.399 . S
C1708 H1694 0.929 . S
C1708 C1707 1.399 . S
C1708 C1709 1.385 . S
C1709 H1695 0.931 . S
C1709 C1708 1.385 . S
C1709 C1710 1.389 . S
C1710 C1709 1.389 . S
C1710 C1711 1.387 . S
C1711 H1696 0.930 . S
C1711 C1706 1.390 . S
C1711 C1710 1.387 . S
H1712 C1724 0.930 . S
H1713 C1726 0.930 . S
H1714 C1727 0.930 . S
H1715 C1731 0.959 . S
H1716 C1731 0.959 . S
H1717 C1731 0.961 . S
H1718 C1732 0.960 . S
H1719 C1732 0.961 . S
H1720 C1732 0.959 . S
H1721 C1735 0.929 . S
H1722 C1736 0.931 . S
H1723 C1738 0.930 . S
C1724 H1712 0.930 . S
C1724 C1725 1.399 . S
C1724 C1729 1.399 . S
C1725 C1724 1.399 . S
C1725 C1726 1.376 . S
C1726 H1713 0.930 . S
C1726 C1725 1.376 . S
C1726 C1727 1.388 . S
C1727 H1714 0.930 . S
C1727 C1726 1.388 . S
C1727 C1728 1.390 . S
C1728 C1727 1.390 . S
C1728 C1729 1.394 . S
C1728 C1734 1.465 . S
C1729 C1724 1.399 . S
C1729 C1728 1.394 . S
C1729 C1730 1.516 . S
C1730 C1729 1.516 . S
C1730 C1731 1.502 . S
C1730 C1732 1.561 . S
C1730 C1733 1.526 . S
C1731 H1715 0.959 . S
C1731 H1716 0.959 . S
C1731 H1717 0.961 . S
C1731 C1730 1.502 . S
C1732 H1718 0.960 . S
C1732 H1719 0.961 . S
C1732 H1720 0.959 . S
C1732 C1730 1.561 . S
C1733 C1730 1.526 . S
C1733 C1734 1.396 . S
C1733 C1738 1.390 . S
C1734 C1728 1.465 . S
C1734 C1733 1.396 . S
C1734 C1735 1.399 . S
C1735 H1721 0.929 . S
C1735 C1734 1.399 . S
C1735 C1736 1.385 . S
C1736 H1722 0.931 . S
C1736 C1735 1.385 . S
C1736 C1737 1.389 . S
C1737 C1736 1.389 . S
C1737 C1738 1.387 . S
C1738 H1723 0.930 . S
C1738 C1733 1.390 . S
C1738 C1737 1.387 . S
H1739 C1751 0.930 . S
H1740 C1753 0.930 . S
H1741 C1754 0.930 . S
H1742 C1758 0.959 . S
H1743 C1758 0.959 . S
H1744 C1758 0.961 . S
H1745 C1759 0.960 . S
H1746 C1759 0.961 . S
H1747 C1759 0.959 . S
H1748 C1762 0.929 . S
H1749 C1763 0.931 . S
H1750 C1765 0.930 . S
C1751 H1739 0.930 . S
C1751 C1752 1.399 . S
C1751 C1756 1.399 . S
C1752 C1751 1.399 . S
C1752 C1753 1.376 . S
C1753 H1740 0.930 . S
C1753 C1752 1.376 . S
C1753 C1754 1.388 . S
C1754 H1741 0.930 . S
C1754 C1753 1.388 . S
C1754 C1755 1.390 . S
C1755 C1754 1.390 . S
C1755 C1756 1.394 . S
C1755 C1761 1.465 . S
C1756 C1751 1.399 . S
C1756 C1755 1.394 . S
C1756 C1757 1.516 . S
C1757 C1756 1.516 . S
C1757 C1758 1.502 . S
C1757 C1759 1.561 . S
C1757 C1760 1.526 . S
C1758 H1742 0.959 . S
C1758 H1743 0.959 . S
C1758 H1744 0.961 . S
C1758 C1757 1.502 . S
C1759 H1745 0.960 . S
C1759 H1746 0.961 . S
C1759 H1747 0.959 . S
C1759 C1757 1.561 . S
C1760 C1757 1.526 . S
C1760 C1761 1.396 . S
C1760 C1765 1.390 . S
C1761 C1755 1.465 . S
C1761 C1760 1.396 . S
C1761 C1762 1.399 . S
C1762 H1748 0.929 . S
C1762 C1761 1.399 . S
C1762 C1763 1.385 . S
C1763 H1749 0.931 . S
C1763 C1762 1.385 . S
C1763 C1764 1.389 . S
C1764 C1763 1.389 . S
C1764 C1765 1.387 . S
C1765 H1750 0.930 . S
C1765 C1760 1.390 . S
C1765 C1764 1.387 . S
H1766 C1778 0.930 . S
H1767 C1780 0.930 . S
H1768 C1781 0.930 . S
H1769 C1785 0.959 . S
H1770 C1785 0.959 . S
H1771 C1785 0.961 . S
H1772 C1786 0.960 . S
H1773 C1786 0.961 . S
H1774 C1786 0.959 . S
H1775 C1789 0.929 . S
H1776 C1790 0.931 . S
H1777 C1792 0.930 . S
C1778 H1766 0.930 . S
C1778 C1779 1.399 . S
C1778 C1783 1.399 . S
C1779 C1778 1.399 . S
C1779 C1780 1.376 . S
C1780 H1767 0.930 . S
C1780 C1779 1.376 . S
C1780 C1781 1.388 . S
C1781 H1768 0.930 . S
C1781 C1780 1.388 . S
C1781 C1782 1.390 . S
C1782 C1781 1.390 . S
C1782 C1783 1.394 . S
C1782 C1788 1.465 . S
C1783 C1778 1.399 . S
C1783 C1782 1.394 . S
C1783 C1784 1.516 . S
C1784 C1783 1.516 . S
C1784 C1785 1.502 . S
C1784 C1786 1.561 . S
C1784 C1787 1.526 . S
C1785 H1769 0.959 . S
C1785 H1770 0.959 . S
C1785 H1771 0.961 . S
C1785 C1784 1.502 . S
C1786 H1772 0.960 . S
C1786 H1773 0.961 . S
C1786 H1774 0.959 . S
C1786 C1784 1.561 . S
C1787 C1784 1.526 . S
C1787 C1788 1.396 . S
C1787 C1792 1.390 . S
C1788 C1782 1.465 . S
C1788 C1787 1.396 . S
C1788 C1789 1.399 . S
C1789 H1775 0.929 . S
C1789 C1788 1.399 . S
C1789 C1790 1.385 . S
C1790 H1776 0.931 . S
C1790 C1789 1.385 . S
C1790 C1791 1.389 . S
C1791 C1790 1.389 . S
C1791 C1792 1.387 . S
C1792 H1777 0.930 . S
C1792 C1787 1.390 . S
C1792 C1791 1.387 . S
H1793 C1805 0.930 . S
H1794 C1807 0.930 . S
H1795 C1808 0.930 . S
H1796 C1812 0.959 . S
H1797 C1812 0.959 . S
H1798 C1812 0.961 . S
H1799 C1813 0.960 . S
H1800 C1813 0.961 . S
H1801 C1813 0.959 . S
H1802 C1816 0.929 . S
H1803 C1817 0.931 . S
H1804 C1819 0.930 . S
C1805 H1793 0.930 . S
C1805 C1806 1.399 . S
C1805 C1810 1.399 . S
C1806 C1805 1.399 . S
C1806 C1807 1.376 . S
C1807 H1794 0.930 . S
C1807 C1806 1.376 . S
C1807 C1808 1.388 . S
C1808 H1795 0.930 . S
C1808 C1807 1.388 . S
C1808 C1809 1.390 . S
C1809 C1808 1.390 . S
C1809 C1810 1.394 . S
C1809 C1815 1.465 . S
C1810 C1805 1.399 . S
C1810 C1809 1.394 . S
C1810 C1811 1.516 . S
C1811 C1810 1.516 . S
C1811 C1812 1.502 . S
C1811 C1813 1.561 . S
C1811 C1814 1.526 . S
C1812 H1796 0.959 . S
C1812 H1797 0.959 . S
C1812 H1798 0.961 . S
C1812 C1811 1.502 . S
C1813 H1799 0.960 . S
C1813 H1800 0.961 . S
C1813 H1801 0.959 . S
C1813 C1811 1.561 . S
C1814 C1811 1.526 . S
C1814 C1815 1.396 . S
C1814 C1819 1.390 . S
C1815 C1809 1.465 . S
C1815 C1814 1.396 . S
C1815 C1816 1.399 . S
C1816 H1802 0.929 . S
C1816 C1815 1.399 . S
C1816 C1817 1.385 . S
C1817 H1803 0.931 . S
C1817 C1816 1.385 . S
C1817 C1818 1.389 . S
C1818 C1817 1.389 . S
C1818 C1819 1.387 . S
C1819 H1804 0.930 . S
C1819 C1814 1.390 . S
C1819 C1818 1.387 . S
H1820 C1832 0.930 . S
H1821 C1834 0.930 . S
H1822 C1835 0.930 . S
H1823 C1839 0.959 . S
H1824 C1839 0.959 . S
H1825 C1839 0.961 . S
H1826 C1840 0.960 . S
H1827 C1840 0.961 . S
H1828 C1840 0.959 . S
H1829 C1843 0.929 . S
H1830 C1844 0.931 . S
H1831 C1846 0.930 . S
C1832 H1820 0.930 . S
C1832 C1833 1.399 . S
C1832 C1837 1.399 . S
C1833 C1832 1.399 . S
C1833 C1834 1.376 . S
C1834 H1821 0.930 . S
C1834 C1833 1.376 . S
C1834 C1835 1.388 . S
C1835 H1822 0.930 . S
C1835 C1834 1.388 . S
C1835 C1836 1.390 . S
C1836 C1835 1.390 . S
C1836 C1837 1.394 . S
C1836 C1842 1.465 . S
C1837 C1832 1.399 . S
C1837 C1836 1.394 . S
C1837 C1838 1.516 . S
C1838 C1837 1.516 . S
C1838 C1839 1.502 . S
C1838 C1840 1.561 . S
C1838 C1841 1.526 . S
C1839 H1823 0.959 . S
C1839 H1824 0.959 . S
C1839 H1825 0.961 . S
C1839 C1838 1.502 . S
C1840 H1826 0.960 . S
C1840 H1827 0.961 . S
C1840 H1828 0.959 . S
C1840 C1838 1.561 . S
C1841 C1838 1.526 . S
C1841 C1842 1.396 . S
C1841 C1846 1.390 . S
C1842 C1836 1.465 . S
C1842 C1841 1.396 . S
C1842 C1843 1.399 . S
C1843 H1829 0.929 . S
C1843 C1842 1.399 . S
C1843 C1844 1.385 . S
C1844 H1830 0.931 . S
C1844 C1843 1.385 . S
C1844 C1845 1.389 . S
C1845 C1844 1.389 . S
C1845 C1846 1.387 . S
C1846 H1831 0.930 . S
C1846 C1841 1.390 . S
C1846 C1845 1.387 . S
H1847 C1859 0.930 . S
H1848 C1861 0.930 . S
H1849 C1862 0.930 . S
H1850 C1866 0.959 . S
H1851 C1866 0.959 . S
H1852 C1866 0.961 . S
H1853 C1867 0.960 . S
H1854 C1867 0.961 . S
H1855 C1867 0.959 . S
H1856 C1870 0.929 . S
H1857 C1871 0.931 . S
H1858 C1873 0.930 . S
C1859 H1847 0.930 . S
C1859 C1860 1.399 . S
C1859 C1864 1.399 . S
C1860 C1859 1.399 . S
C1860 C1861 1.376 . S
C1861 H1848 0.930 . S
C1861 C1860 1.376 . S
C1861 C1862 1.388 . S
C1862 H1849 0.930 . S
C1862 C1861 1.388 . S
C1862 C1863 1.390 . S
C1863 C1862 1.390 . S
C1863 C1864 1.394 . S
C1863 C1869 1.465 . S
C1864 C1859 1.399 . S
C1864 C1863 1.394 . S
C1864 C1865 1.516 . S
C1865 C1864 1.516 . S
C1865 C1866 1.502 . S
C1865 C1867 1.561 . S
C1865 C1868 1.526 . S
C1866 H1850 0.959 . S
C1866 H1851 0.959 . S
C1866 H1852 0.961 . S
C1866 C1865 1.502 . S
C1867 H1853 0.960 . S
C1867 H1854 0.961 . S
C1867 H1855 0.959 . S
C1867 C1865 1.561 . S
C1868 C1865 1.526 . S
C1868 C1869 1.396 . S
C1868 C1873 1.390 . S
C1869 C1863 1.465 . S
C1869 C1868 1.396 . S
C1869 C1870 1.399 . S
C1870 H1856 0.929 . S
C1870 C1869 1.399 . S
C1870 C1871 1.385 . S
C1871 H1857 0.931 . S
C1871 C1870 1.385 . S
C1871 C1872 1.389 . S
C1872 C1871 1.389 . S
C1872 C1873 1.387 . S
C1873 H1858 0.930 . S
C1873 C1868 1.390 . S
C1873 C1872 1.387 . S
H1874 C1886 0.930 . S
H1875 C1888 0.930 . S
H1876 C1889 0.930 . S
H1877 C1893 0.959 . S
H1878 C1893 0.959 . S
H1879 C1893 0.961 . S
H1880 C1894 0.960 . S
H1881 C1894 0.961 . S
H1882 C1894 0.959 . S
H1883 C1897 0.929 . S
H1884 C1898 0.931 . S
H1885 C1900 0.930 . S
C1886 H1874 0.930 . S
C1886 C1887 1.399 . S
C1886 C1891 1.399 . S
C1887 C1886 1.399 . S
C1887 C1888 1.376 . S
C1888 H1875 0.930 . S
C1888 C1887 1.376 . S
C1888 C1889 1.388 . S
C1889 H1876 0.930 . S
C1889 C1888 1.388 . S
C1889 C1890 1.390 . S
C1890 C1889 1.390 . S
C1890 C1891 1.394 . S
C1890 C1896 1.465 . S
C1891 C1886 1.399 . S
C1891 C1890 1.394 . S
C1891 C1892 1.516 . S
C1892 C1891 1.516 . S
C1892 C1893 1.502 . S
C1892 C1894 1.561 . S
C1892 C1895 1.526 . S
C1893 H1877 0.959 . S
C1893 H1878 0.959 . S
C1893 H1879 0.961 . S
C1893 C1892 1.502 . S
C1894 H1880 0.960 . S
C1894 H1881 0.961 . S
C1894 H1882 0.959 . S
C1894 C1892 1.561 . S
C1895 C1892 1.526 . S
C1895 C1896 1.396 . S
C1895 C1900 1.390 . S
C1896 C1890 1.465 . S
C1896 C1895 1.396 . S
C1896 C1897 1.399 . S
C1897 H1883 0.929 . S
C1897 C1896 1.399 . S
C1897 C1898 1.385 . S
C1898 H1884 0.931 . S
C1898 C1897 1.385 . S
C1898 C1899 1.389 . S
C1899 C1898 1.389 . S
C1899 C1900 1.387 . S
C1900 H1885 0.930 . S
C1900 C1895 1.390 . S
C1900 C1899 1.387 . S
H1901 C1913 0.930 . S
H1902 C1915 0.930 . S
H1903 C1916 0.930 . S
H1904 C1920 0.959 . S
H1905 C1920 0.959 . S
H1906 C1920 0.961 . S
H1907 C1921 0.960 . S
H1908 C1921 0.961 . S
H1909 C1921 0.959 . S
H1910 C1924 0.929 . S
H1911 C1925 0.931 . S
H1912 C1927 0.930 . S
C1913 H1901 0.930 . S
C1913 C1914 1.399 . S
C1913 C1918 1.399 . S
C1914 C1913 1.399 . S
C1914 C1915 1.376 . S
C1915 H1902 0.930 . S
C1915 C1914 1.376 . S
C1915 C1916 1.388 . S
C1916 H1903 0.930 . S
C1916 C1915 1.388 . S
C1916 C1917 1.390 . S
C1917 C1916 1.390 . S
C1917 C1918 1.394 . S
C1917 C1923 1.465 . S
C1918 C1913 1.399 . S
C1918 C1917 1.394 . S
C1918 C1919 1.516 . S
C1919 C1918 1.516 . S
C1919 C1920 1.502 . S
C1919 C1921 1.561 . S
C1919 C1922 1.526 . S
C1920 H1904 0.959 . S
C1920 H1905 0.959 . S
C1920 H1906 0.961 . S
C1920 C1919 1.502 . S
C1921 H1907 0.960 . S
C1921 H1908 0.961 . S
C1921 H1909 0.959 . S
C1921 C1919 1.561 . S
C1922 C1919 1.526 . S
C1922 C1923 1.396 . S
C1922 C1927 1.390 . S
C1923 C1917 1.465 . S
C1923 C1922 1.396 . S
C1923 C1924 1.399 . S
C1924 H1910 0.929 . S
C1924 C1923 1.399 . S
C1924 C1925 1.385 . S
C1925 H1911 0.931 . S
C1925 C1924 1.385 . S
C1925 C1926 1.389 . S
C1926 C1925 1.389 . S
C1926 C1927 1.387 . S
C1927 H1912 0.930 . S
C1927 C1922 1.390 . S
C1927 C1926 1.387 . S
H1928 C1940 0.930 . S
H1929 C1942 0.930 . S
H1930 C1943 0.930 . S
H1931 C1947 0.959 . S
H1932 C1947 0.959 . S
H1933 C1947 0.961 . S
H1934 C1948 0.960 . S
H1935 C1948 0.961 . S
H1936 C1948 0.959 . S
H1937 C1951 0.929 . S
H1938 C1952 0.931 . S
H1939 C1954 0.930 . S
C1940 H1928 0.930 . S
C1940 C1941 1.399 . S
C1940 C1945 1.399 . S
C1941 C1940 1.399 . S
C1941 C1942 1.376 . S
C1942 H1929 0.930 . S
C1942 C1941 1.376 . S
C1942 C1943 1.388 . S
C1943 H1930 0.930 . S
C1943 C1942 1.388 . S
C1943 C1944 1.390 . S
C1944 C1943 1.390 . S
C1944 C1945 1.394 . S
C1944 C1950 1.465 . S
C1945 C1940 1.399 . S
C1945 C1944 1.394 . S
C1945 C1946 1.516 . S
C1946 C1945 1.516 . S
C1946 C1947 1.502 . S
C1946 C1948 1.561 . S
C1946 C1949 1.526 . S
C1947 H1931 0.959 . S
C1947 H1932 0.959 . S
C1947 H1933 0.961 . S
C1947 C1946 1.502 . S
C1948 H1934 0.960 . S
C1948 H1935 0.961 . S
C1948 H1936 0.959 . S
C1948 C1946 1.561 . S
C1949 C1946 1.526 . S
C1949 C1950 1.396 . S
C1949 C1954 1.390 . S
C1950 C1944 1.465 . S
C1950 C1949 1.396 . S
C1950 C1951 1.399 . S
C1951 H1937 0.929 . S
C1951 C1950 1.399 . S
C1951 C1952 1.385 . S
C1952 H1938 0.931 . S
C1952 C1951 1.385 . S
C1952 C1953 1.389 . S
C1953 C1952 1.389 . S
C1953 C1954 1.387 . S
C1954 H1939 0.930 . S
C1954 C1949 1.390 . S
C1954 C1953 1.387 . S
H1955 C1967 0.930 . S
H1956 C1969 0.930 . S
H1957 C1970 0.930 . S
H1958 C1974 0.959 . S
H1959 C1974 0.959 . S
H1960 C1974 0.961 . S
H1961 C1975 0.960 . S
H1962 C1975 0.961 . S
H1963 C1975 0.959 . S
H1964 C1978 0.929 . S
H1965 C1979 0.931 . S
H1966 C1981 0.930 . S
C1967 H1955 0.930 . S
C1967 C1968 1.399 . S
C1967 C1972 1.399 . S
C1968 C1967 1.399 . S
C1968 C1969 1.376 . S
C1969 H1956 0.930 . S
C1969 C1968 1.376 . S
C1969 C1970 1.388 . S
C1970 H1957 0.930 . S
C1970 C1969 1.388 . S
C1970 C1971 1.390 . S
C1971 C1970 1.390 . S
C1971 C1972 1.394 . S
C1971 C1977 1.465 . S
C1972 C1967 1.399 . S
C1972 C1971 1.394 . S
C1972 C1973 1.516 . S
C1973 C1972 1.516 . S
C1973 C1974 1.502 . S
C1973 C1975 1.561 . S
C1973 C1976 1.526 . S
C1974 H1958 0.959 . S
C1974 H1959 0.959 . S
C1974 H1960 0.961 . S
C1974 C1973 1.502 . S
C1975 H1961 0.960 . S
C1975 H1962 0.961 . S
C1975 H1963 0.959 . S
C1975 C1973 1.561 . S
C1976 C1973 1.526 . S
C1976 C1977 1.396 . S
C1976 C1981 1.390 . S
C1977 C1971 1.465 . S
C1977 C1976 1.396 . S
C1977 C1978 1.399 . S
C1978 H1964 0.929 . S
C1978 C1977 1.399 . S
C1978 C1979 1.385 . S
C1979 H1965 0.931 . S
C1979 C1978 1.385 . S
C1979 C1980 1.389 . S
C1980 C1979 1.389 . S
C1980 C1981 1.387 . S
C1981 H1966 0.930 . S
C1981 C1976 1.390 . S
C1981 C1980 1.387 . S
H1982 C1994 0.930 . S
H1983 C1996 0.930 . S
H1984 C1997 0.930 . S
H1985 C2001 0.959 . S
H1986 C2001 0.959 . S
H1987 C2001 0.961 . S
H1988 C2002 0.960 . S
H1989 C2002 0.961 . S
H1990 C2002 0.959 . S
H1991 C2005 0.929 . S
H1992 C2006 0.931 . S
H1993 C2008 0.930 . S
C1994 H1982 0.930 . S
C1994 C1995 1.399 . S
C1994 C1999 1.399 . S
C1995 C1994 1.399 . S
C1995 C1996 1.376 . S
C1996 H1983 0.930 . S
C1996 C1995 1.376 . S
C1996 C1997 1.388 . S
C1997 H1984 0.930 . S
C1997 C1996 1.388 . S
C1997 C1998 1.390 . S
C1998 C1997 1.390 . S
C1998 C1999 1.394 . S
C1998 C2004 1.465 . S
C1999 C1994 1.399 . S
C1999 C1998 1.394 . S
C1999 C2000 1.516 . S
C2000 C1999 1.516 . S
C2000 C2001 1.502 . S
C2000 C2002 1.561 . S
C2000 C2003 1.526 . S
C2001 H1985 0.959 . S
C2001 H1986 0.959 . S
C2001 H1987 0.961 . S
C2001 C2000 1.502 . S
C2002 H1988 0.960 . S
C2002 H1989 0.961 . S
C2002 H1990 0.959 . S
C2002 C2000 1.561 . S
C2003 C2000 1.526 . S
C2003 C2004 1.396 . S
C2003 C2008 1.390 . S
C2004 C1998 1.465 . S
C2004 C2003 1.396 . S
C2004 C2005 1.399 . S
C2005 H1991 0.929 . S
C2005 C2004 1.399 . S
C2005 C2006 1.385 . S
C2006 H1992 0.931 . S
C2006 C2005 1.385 . S
C2006 C2007 1.389 . S
C2007 C2006 1.389 . S
C2007 C2008 1.387 . S
C2008 H1993 0.930 . S
C2008 C2003 1.390 . S
C2008 C2007 1.387 . S
H2009 C2021 0.930 . S
H2010 C2023 0.930 . S
H2011 C2024 0.930 . S
H2012 C2028 0.959 . S
H2013 C2028 0.959 . S
H2014 C2028 0.961 . S
H2015 C2029 0.960 . S
H2016 C2029 0.961 . S
H2017 C2029 0.959 . S
H2018 C2032 0.929 . S
H2019 C2033 0.931 . S
H2020 C2035 0.930 . S
C2021 H2009 0.930 . S
C2021 C2022 1.399 . S
C2021 C2026 1.399 . S
C2022 C2021 1.399 . S
C2022 C2023 1.376 . S
C2023 H2010 0.930 . S
C2023 C2022 1.376 . S
C2023 C2024 1.388 . S
C2024 H2011 0.930 . S
C2024 C2023 1.388 . S
C2024 C2025 1.390 . S
C2025 C2024 1.390 . S
C2025 C2026 1.394 . S
C2025 C2031 1.465 . S
C2026 C2021 1.399 . S
C2026 C2025 1.394 . S
C2026 C2027 1.516 . S
C2027 C2026 1.516 . S
C2027 C2028 1.502 . S
C2027 C2029 1.561 . S
C2027 C2030 1.526 . S
C2028 H2012 0.959 . S
C2028 H2013 0.959 . S
C2028 H2014 0.961 . S
C2028 C2027 1.502 . S
C2029 H2015 0.960 . S
C2029 H2016 0.961 . S
C2029 H2017 0.959 . S
C2029 C2027 1.561 . S
C2030 C2027 1.526 . S
C2030 C2031 1.396 . S
C2030 C2035 1.390 . S
C2031 C2025 1.465 . S
C2031 C2030 1.396 . S
C2031 C2032 1.399 . S
C2032 H2018 0.929 . S
C2032 C2031 1.399 . S
C2032 C2033 1.385 . S
C2033 H2019 0.931 . S
C2033 C2032 1.385 . S
C2033 C2034 1.389 . S
C2034 C2033 1.389 . S
C2034 C2035 1.387 . S
C2035 H2020 0.930 . S
C2035 C2030 1.390 . S
C2035 C2034 1.387 . S
H2036 C2048 0.930 . S
H2037 C2050 0.930 . S
H2038 C2051 0.930 . S
H2039 C2055 0.959 . S
H2040 C2055 0.959 . S
H2041 C2055 0.961 . S
H2042 C2056 0.960 . S
H2043 C2056 0.961 . S
H2044 C2056 0.959 . S
H2045 C2059 0.929 . S
H2046 C2060 0.931 . S
H2047 C2062 0.930 . S
C2048 H2036 0.930 . S
C2048 C2049 1.399 . S
C2048 C2053 1.399 . S
C2049 C2048 1.399 . S
C2049 C2050 1.376 . S
C2050 H2037 0.930 . S
C2050 C2049 1.376 . S
C2050 C2051 1.388 . S
C2051 H2038 0.930 . S
C2051 C2050 1.388 . S
C2051 C2052 1.390 . S
C2052 C2051 1.390 . S
C2052 C2053 1.394 . S
C2052 C2058 1.465 . S
C2053 C2048 1.399 . S
C2053 C2052 1.394 . S
C2053 C2054 1.516 . S
C2054 C2053 1.516 . S
C2054 C2055 1.502 . S
C2054 C2056 1.561 . S
C2054 C2057 1.526 . S
C2055 H2039 0.959 . S
C2055 H2040 0.959 . S
C2055 H2041 0.961 . S
C2055 C2054 1.502 . S
C2056 H2042 0.960 . S
C2056 H2043 0.961 . S
C2056 H2044 0.959 . S
C2056 C2054 1.561 . S
C2057 C2054 1.526 . S
C2057 C2058 1.396 . S
C2057 C2062 1.390 . S
C2058 C2052 1.465 . S
C2058 C2057 1.396 . S
C2058 C2059 1.399 . S
C2059 H2045 0.929 . S
C2059 C2058 1.399 . S
C2059 C2060 1.385 . S
C2060 H2046 0.931 . S
C2060 C2059 1.385 . S
C2060 C2061 1.389 . S
C2061 C2060 1.389 . S
C2061 C2062 1.387 . S
C2062 H2047 0.930 . S
C2062 C2057 1.390 . S
C2062 C2061 1.387 . S
H2063 C2075 0.930 . S
H2064 C2077 0.930 . S
H2065 C2078 0.930 . S
H2066 C2082 0.959 . S
H2067 C2082 0.959 . S
H2068 C2082 0.961 . S
H2069 C2083 0.960 . S
H2070 C2083 0.961 . S
H2071 C2083 0.959 . S
H2072 C2086 0.929 . S
H2073 C2087 0.931 . S
H2074 C2089 0.930 . S
C2075 H2063 0.930 . S
C2075 C2076 1.399 . S
C2075 C2080 1.399 . S
C2076 C2075 1.399 . S
C2076 C2077 1.376 . S
C2077 H2064 0.930 . S
C2077 C2076 1.376 . S
C2077 C2078 1.388 . S
C2078 H2065 0.930 . S
C2078 C2077 1.388 . S
C2078 C2079 1.390 . S
C2079 C2078 1.390 . S
C2079 C2080 1.394 . S
C2079 C2085 1.465 . S
C2080 C2075 1.399 . S
C2080 C2079 1.394 . S
C2080 C2081 1.516 . S
C2081 C2080 1.516 . S
C2081 C2082 1.502 . S
C2081 C2083 1.561 . S
C2081 C2084 1.526 . S
C2082 H2066 0.959 . S
C2082 H2067 0.959 . S
C2082 H2068 0.961 . S
C2082 C2081 1.502 . S
C2083 H2069 0.960 . S
C2083 H2070 0.961 . S
C2083 H2071 0.959 . S
C2083 C2081 1.561 . S
C2084 C2081 1.526 . S
C2084 C2085 1.396 . S
C2084 C2089 1.390 . S
C2085 C2079 1.465 . S
C2085 C2084 1.396 . S
C2085 C2086 1.399 . S
C2086 H2072 0.929 . S
C2086 C2085 1.399 . S
C2086 C2087 1.385 . S
C2087 H2073 0.931 . S
C2087 C2086 1.385 . S
C2087 C2088 1.389 . S
C2088 C2087 1.389 . S
C2088 C2089 1.387 . S
C2089 H2074 0.930 . S
C2089 C2084 1.390 . S
C2089 C2088 1.387 . S
H2090 C2102 0.930 . S
H2091 C2104 0.930 . S
H2092 C2105 0.930 . S
H2093 C2109 0.959 . S
H2094 C2109 0.959 . S
H2095 C2109 0.961 . S
H2096 C2110 0.960 . S
H2097 C2110 0.961 . S
H2098 C2110 0.959 . S
H2099 C2113 0.929 . S
H2100 C2114 0.931 . S
H2101 C2116 0.930 . S
C2102 H2090 0.930 . S
C2102 C2103 1.399 . S
C2102 C2107 1.399 . S
C2103 C2102 1.399 . S
C2103 C2104 1.376 . S
C2104 H2091 0.930 . S
C2104 C2103 1.376 . S
C2104 C2105 1.388 . S
C2105 H2092 0.930 . S
C2105 C2104 1.388 . S
C2105 C2106 1.390 . S
C2106 C2105 1.390 . S
C2106 C2107 1.394 . S
C2106 C2112 1.465 . S
C2107 C2102 1.399 . S
C2107 C2106 1.394 . S
C2107 C2108 1.516 . S
C2108 C2107 1.516 . S
C2108 C2109 1.502 . S
C2108 C2110 1.561 . S
C2108 C2111 1.526 . S
C2109 H2093 0.959 . S
C2109 H2094 0.959 . S
C2109 H2095 0.961 . S
C2109 C2108 1.502 . S
C2110 H2096 0.960 . S
C2110 H2097 0.961 . S
C2110 H2098 0.959 . S
C2110 C2108 1.561 . S
C2111 C2108 1.526 . S
C2111 C2112 1.396 . S
C2111 C2116 1.390 . S
C2112 C2106 1.465 . S
C2112 C2111 1.396 . S
C2112 C2113 1.399 . S
C2113 H2099 0.929 . S
C2113 C2112 1.399 . S
C2113 C2114 1.385 . S
C2114 H2100 0.931 . S
C2114 C2113 1.385 . S
C2114 C2115 1.389 . S
C2115 C2114 1.389 . S
C2115 C2116 1.387 . S
C2116 H2101 0.930 . S
C2116 C2111 1.390 . S
C2116 C2115 1.387 . S
H2117 C2129 0.930 . S
H2118 C2131 0.930 . S
H2119 C2132 0.930 . S
H2120 C2136 0.959 . S
H2121 C2136 0.959 . S
H2122 C2136 0.961 . S
H2123 C2137 0.960 . S
H2124 C2137 0.961 . S
H2125 C2137 0.959 . S
H2126 C2140 0.929 . S
H2127 C2141 0.931 . S
H2128 C2143 0.930 . S
C2129 H2117 0.930 . S
C2129 C2130 1.399 . S
C2129 C2134 1.399 . S
C2130 C2129 1.399 . S
C2130 C2131 1.376 . S
C2131 H2118 0.930 . S
C2131 C2130 1.376 . S
C2131 C2132 1.388 . S
C2132 H2119 0.930 . S
C2132 C2131 1.388 . S
C2132 C2133 1.390 . S
C2133 C2132 1.390 . S
C2133 C2134 1.394 . S
C2133 C2139 1.465 . S
C2134 C2129 1.399 . S
C2134 C2133 1.394 . S
C2134 C2135 1.516 . S
C2135 C2134 1.516 . S
C2135 C2136 1.502 . S
C2135 C2137 1.561 . S
C2135 C2138 1.526 . S
C2136 H2120 0.959 . S
C2136 H2121 0.959 . S
C2136 H2122 0.961 . S
C2136 C2135 1.502 . S
C2137 H2123 0.960 . S
C2137 H2124 0.961 . S
C2137 H2125 0.959 . S
C2137 C2135 1.561 . S
C2138 C2135 1.526 . S
C2138 C2139 1.396 . S
C2138 C2143 1.390 . S
C2139 C2133 1.465 . S
C2139 C2138 1.396 . S
C2139 C2140 1.399 . S
C2140 H2126 0.929 . S
C2140 C2139 1.399 . S
C2140 C2141 1.385 . S
C2141 H2127 0.931 . S
C2141 C2140 1.385 . S
C2141 C2142 1.389 . S
C2142 C2141 1.389 . S
C2142 C2143 1.387 . S
C2143 H2128 0.930 . S
C2143 C2138 1.390 . S
C2143 C2142 1.387 . S
C429 C91 1.476 . S
C441 C0 1.444 . S
C456 C13 1.548 . S
C468 C52 1.606 . S
C483 C65 1.291 . S
C495 C26 1.298 . S
C510 C78 1.402 . S
C522 C39 1.374 . S
C537 C104 1.505 . S
C549 C286 1.506 . S
C564 C117 1.597 . S
C576 C247 1.593 . S
C591 C377 1.291 . S
C603 C130 1.299 . S
C618 C351 1.271 . S
C630 C143 1.463 . S
C645 C156 1.595 . S
C657 C403 1.593 . S
C672 C169 1.289 . S
C684 C338 1.294 . S
C699 C182 1.271 . S
C711 C273 1.463 . S
C726 C195 1.493 . S
C738 C208 1.457 . S
C753 C221 1.473 . S
C765 C325 1.443 . S
C780 C234 1.277 . S
C792 C260 1.317 . S
C807 C390 1.389 . S
C819 C299 1.372 . S
C834 C364 1.580 . S
C846 C312 1.570 . S
C861 C140 0.460 . S
C873 C10 0.533 . S
C888 C148 0.833 . S
C900 C18 0.815 . S
C915 C114 0.765 . S
C927 C36 0.697 . S
C942 C122 0.680 . S
C954 C44 0.642 . S
C969 C190 0.761 . S
C981 C62 0.787 . S
C996 C75 0.684 . S
C1008 C205 0.784 . S
C1023 C86 0.603 . S
C1035 C166 0.605 . S
C1050 C101 0.743 . S
C1062 C179 0.744 . S
C1077 C164 0.768 . S
C1089 C112 0.596 . S
C1104 C127 0.850 . S
C1116 C177 0.926 . S
C1131 C187 0.720 . S
C1143 C138 0.668 . S
C1158 C153 0.725 . S
C1170 C203 0.756 . S
C1185 C309 0.794 . S
C1197 C213 0.814 . S
C1212 C31 0.746 . S
C1224 C161 0.804 . S
C1239 C47 0.539 . S
C1251 C174 0.678 . S
C1266 C5 0.739 . S
C1278 C192 0.809 . S
C1293 C226 0.742 . S
C1305 C411 0.696 . S
C1320 C252 0.834 . S
C1332 C239 0.757 . S
C1347 C21 0.706 . S
C1359 C200 0.757 . S
C1374 C307 0.657 . S
C1386 C257 0.670 . S
C1401 C270 0.654 . S
C1413 C296 0.621 . S
C1428 C218 0.610 . S
C1440 C244 0.620 . S
C1455 C278 0.680 . S
C1467 C317 0.678 . S
C1482 C320 0.687 . S
C1494 C291 0.723 . S
C1509 C135 0.878 . S
C1521 C57 0.847 . S
C1536 C268 0.817 . S
C1548 C322 0.689 . S
C1563 C99 0.751 . S
C1575 C49 0.712 . S
C1590 C372 0.762 . S
C1602 C333 0.592 . S
C1617 C73 0.851 . S
C1629 C23 0.664 . S
C1644 C216 0.599 . S
C1656 C255 0.579 . S
C1671 C335 0.760 . S
C1683 C348 0.680 . S
C1698 C359 0.584 . S
C1710 C374 0.581 . S
C1725 C304 0.743 . S
C1737 C242 0.554 . S
C1752 C343 0.785 . S
C1764 C369 0.843 . S
C1779 C151 0.485 . S
C1791 C70 0.631 . S
C1806 C96 0.570 . S
C1818 C125 0.580 . S
C1833 C231 0.721 . S
C1845 C387 0.732 . S
C1860 C395 0.840 . S
C1872 C408 0.818 . S
C1887 C413 0.910 . S
C1899 C385 0.930 . S
C1914 C60 0.625 . S
C1926 C8 0.667 . S
C1941 C34 0.704 . S
C1953 C83 0.883 . S
C1968 C400 0.589 . S
C1980 C229 0.627 . S
C1995 C330 0.819 . S
C2007 C361 0.833 . S
C2022 C265 0.805 . S
C2034 C281 0.609 . S
C2049 C88 0.846 . S
C2061 C109 0.876 . S
C2076 C294 0.756 . S
C2088 C283 0.724 . S
C2103 C346 0.671 . S
C2115 C356 0.880 . S
C2130 C398 0.539 . S
C2142 C382 0.679 . S
