# Generated by pormake.
# Topology qtz-x, (6)-cn, num edge types: 1
# Building blocks:
#     Node 0, Type 0, BuildingBlock: MIFKUJ_clean_sbu_0, # of connection points: 6
#     Node 1, Type 0, BuildingBlock: MIFKUJ_clean_sbu_0, # of connection points: 6
#     Node 2, Type 0, BuildingBlock: MIFKUJ_clean_sbu_0, # of connection points: 6
#     Edge 3, Type (0, 0), BuildingBlock: MIFKUJ_clean_linker_0, # of connection points: 2
#     Edge 4, Type (0, 0), BuildingBlock: MIFKUJ_clean_linker_0, # of connection points: 2
#     Edge 5, Type (0, 0), BuildingBlock: MIFKUJ_clean_linker_0, # of connection points: 2
#     Edge 6, Type (0, 0), BuildingBlock: MIFKUJ_clean_linker_0, # of connection points: 2
#     Edge 7, Type (0, 0), BuildingBlock: MIFKUJ_clean_linker_0, # of connection points: 2
#     Edge 8, Type (0, 0), BuildingBlock: MIFKUJ_clean_linker_0, # of connection points: 2
#     Edge 9, Type (0, 0), BuildingBlock: MIFKUJ_clean_linker_0, # of connection points: 2
#     Edge 10, Type (0, 0), BuildingBlock: MIFKUJ_clean_linker_0, # of connection points: 2
#     Edge 11, Type (0, 0), BuildingBlock: MIFKUJ_clean_linker_0, # of connection points: 2
# Relax obj value: 0.167
# Max RMSD: 0.236
# Mean RMSD: 0.235
data_MOF--net-qtz-x--node1-MIFKUJ_clean_sbu_0--edge1-MIFKUJ_clean_linker_0
_symmetry_space_group_name_H-M    P1
_symmetry_Int_Tables_number       1
_symmetry_cell_setting            triclinic
loop_
_symmetry_equiv_pos_as_xyz
'x, y, z'
_cell_length_a     18.811377
_cell_length_b     18.654305
_cell_length_c     57.107837
_cell_angle_alpha  94.902588
_cell_angle_beta   89.787679
_cell_angle_gamma 120.32676
loop_
_atom_site_label
_atom_site_type_symbol
_atom_site_fract_x
_atom_site_fract_y
_atom_site_fract_z
_atom_type_partial_charge
Zn0 Zn 0.06366 0.49723 0.19678 0.0
Zn1 Zn 0.93283 0.43196 0.15611 0.0
C2 C 0.957 0.49355 0.23292 0.0
O3 O 0.01419 0.57288 0.2359 0.0
C4 C 0.01641 0.42307 0.11662 0.0
O5 O 0.95303 0.34687 0.11635 0.0
O6 O 0.15699 0.54721 0.22126 0.0
O7 O 0.06549 0.40652 0.17628 0.0
O8 O 0.93031 0.33719 0.17058 0.0
C9 C 0.15218 0.50299 0.2376 0.0
O10 O 0.09335 0.42422 0.23595 0.0
O11 O 0.96176 0.44767 0.21591 0.0
C12 C 0.84255 0.44199 0.11972 0.0
O13 O 0.90557 0.5185 0.12334 0.0
O14 O 0.8344 0.38889 0.13365 0.0
O15 O 0.93736 0.52539 0.17699 0.0
O16 O 0.07216 0.59018 0.18011 0.0
O17 O 0.0272 0.47577 0.13394 0.0
C18 C -0.00153 0.33851 0.17094 0.0
C19 C 0.00644 0.59238 0.17763 0.0
Zn20 Zn 0.49645 0.00767 0.53188 0.0
Zn21 Zn 0.5404 0.11085 0.48816 0.0
C22 C 0.60229 0.1144 0.57118 0.0
O23 O 0.63287 0.06479 0.56813 0.0
C24 C 0.41215 0.96964 0.46081 0.0
O25 O 0.3828 0.02037 0.46094 0.0
O26 O 0.45072 0.91118 0.55164 0.0
O27 O 0.40116 0.00735 0.51637 0.0
O28 O 0.47073 0.13829 0.5085 0.0
C29 C 0.39189 0.90023 0.56472 0.0
O30 O 0.35835 0.94671 0.56301 0.0
O31 O 0.54751 0.10613 0.55645 0.0
C32 C 0.59468 0.14589 0.44287 0.0
O33 O 0.60311 0.08162 0.44607 0.0
O34 O 0.57122 0.1769 0.45977 0.0
O35 O 0.64349 0.13357 0.50397 0.0
O36 O 0.58389 0.00355 0.51262 0.0
O37 O 0.47652 0.99129 0.47349 0.0
C38 C 0.40487 0.07652 0.51452 0.0
C39 C 0.64801 0.07031 0.50803 0.0
Zn40 Zn 0.45191 0.43465 0.86366 0.0
Zn41 Zn 0.40949 0.49533 0.81673 0.0
C42 C 0.43207 0.52489 0.90324 0.0
O43 O 0.51279 0.56032 0.90411 0.0
C44 C 0.44471 0.38495 0.78771 0.0
O45 O 0.36383 0.34192 0.78556 0.0
O46 O 0.50004 0.38863 0.88512 0.0
O47 O 0.36816 0.33972 0.84154 0.0
O48 O 0.30861 0.40639 0.8294 0.0
C49 C 0.45172 0.3352 0.89854 0.0
O50 O 0.37207 0.30605 0.89599 0.0
O51 O 0.39083 0.4713 0.88607 0.0
C52 C 0.42223 0.60452 0.78218 0.0
O53 O 0.4955 0.65296 0.7926 0.0
O54 O 0.37355 0.53508 0.79002 0.0
O55 O 0.47573 0.59207 0.84014 0.0
O56 O 0.54691 0.53642 0.85177 0.0
O57 O 0.47957 0.45201 0.80144 0.0
C58 C 0.30351 0.34053 0.83568 0.0
C59 C 0.54111 0.60029 0.8492 0.0
H60 H 0.87822 0.62029 0.17502 0.0
H61 H 0.88402 0.74883 0.16641 0.0
H62 H 0.14752 0.86708 0.16027 0.0
H63 H 0.14269 0.73922 0.16942 0.0
H64 H 0.10491 0.96062 0.18795 0.0
H65 H 0.02055 0.8102 0.11149 0.0
H66 H 0.93457 0.68668 0.08368 0.0
H67 H 0.7201 0.7014 0.10153 0.0
H68 H 0.80461 0.82445 0.12971 0.0
H69 H 0.13152 0.32622 0.15828 0.0
H70 H 0.13735 0.19867 0.15055 0.0
H71 H 0.87636 0.05116 0.16077 0.0
H72 H 0.86949 0.17856 0.16802 0.0
H73 H 0.92916 0.97617 0.12624 0.0
H74 H 0.00324 0.10408 0.20644 0.0
H75 H 0.08161 0.22097 0.23694 0.0
H76 H 0.30807 0.24118 0.21389 0.0
H77 H 0.23098 0.12509 0.18301 0.0
C78 C 0.93739 0.67363 0.17181 0.0
C79 C 0.01007 0.67009 0.17296 0.0
C80 C 0.94045 0.74659 0.16667 0.0
C81 C 0.01598 0.81646 0.16229 0.0
C82 C 0.08867 0.81324 0.16345 0.0
C83 C 0.08579 0.74047 0.16877 0.0
C84 C 0.01959 0.89479 0.15818 0.0
C85 C 0.06815 0.96467 0.17408 0.0
C86 C 0.9696 0.89861 0.14045 0.0
C87 C 0.91899 0.82645 0.12283 0.0
C88 C 0.95502 0.787 0.10956 0.0
C89 C 0.90651 0.717 0.09373 0.0
C90 C 0.82188 0.68605 0.09089 0.0
C91 C 0.78568 0.72543 0.10376 0.0
C92 C 0.83391 0.79546 0.11963 0.0
C93 C 0.0752 0.26659 0.15863 0.0
C94 C 0.0004 0.26194 0.16432 0.0
C95 C 0.07855 0.19402 0.15401 0.0
C96 C 0.0075 0.11614 0.15545 0.0
C97 C 0.9317 0.11105 0.15958 0.0
C98 C 0.92808 0.18369 0.16394 0.0
C99 C 0.01436 0.04139 0.15604 0.0
C100 C 0.96745 0.97234 0.13966 0.0
C101 C 0.06513 0.03758 0.1735 0.0
C102 C 0.11148 0.10662 0.19226 0.0
C103 C 0.0698 0.13386 0.20778 0.0
C104 C 0.11396 0.1999 0.22514 0.0
C105 C 0.19979 0.23865 0.2273 0.0
C106 C 0.24159 0.21122 0.21216 0.0
C107 C 0.19771 0.14529 0.19473 0.0
H108 H 0.23389 0.2898 0.24075 0.0
H109 H 0.78439 0.63163 0.0787 0.0
H110 H 0.24815 0.94962 0.5187 0.0
H111 H 0.12273 0.95768 0.51815 0.0
H112 H 0.26746 0.22359 0.51419 0.0
H113 H 0.39366 0.21651 0.51474 0.0
H114 H 0.13519 0.17124 0.54545 0.0
H115 H 0.18991 0.1152 0.4661 0.0
H116 H 0.22383 0.04136 0.43417 0.0
H117 H -0.00011 0.81319 0.44371 0.0
H118 H 0.96538 0.8853 0.47605 0.0
H119 H 0.79911 0.20856 0.50555 0.0
H120 H 0.93248 0.21597 0.5064 0.0
H121 H 0.81048 0.94999 0.51027 0.0
H122 H 0.67671 0.94165 0.50947 0.0
H123 H 0.93681 0.01213 0.47766 0.0
H124 H 0.886 0.06762 0.5582 0.0
H125 H 0.85291 0.14136 0.59035 0.0
H126 H 0.07066 0.37191 0.57841 0.0
H127 H 0.10439 0.29978 0.54586 0.0
C128 C 0.25342 0.00995 0.51796 0.0
C129 C 0.33032 0.08229 0.5164 0.0
C130 C 0.18192 0.01434 0.51764 0.0
C131 C 0.18668 0.09102 0.51582 0.0
C132 C 0.26335 0.16401 0.5155 0.0
C133 C 0.33497 0.15967 0.51569 0.0
C134 C 0.111 0.09375 0.51286 0.0
C135 C 0.0922 0.13767 0.53049 0.0
C136 C 0.05549 0.04896 0.49338 0.0
C137 C 0.0754 0.00556 0.47366 0.0
C138 C 0.1482 0.04912 0.46153 0.0
C139 C 0.16751 0.0076 0.44334 0.0
C140 C 0.11411 0.92262 0.43694 0.0
C141 C 0.04122 0.87902 0.4487 0.0
C142 C 0.02173 0.9202 0.46696 0.0
C143 C 0.80064 0.15155 0.50645 0.0
C144 C 0.7278 0.07453 0.50759 0.0
C145 C 0.87666 0.15605 0.50696 0.0
C146 C 0.88045 0.0836 0.50854 0.0
C147 C 0.80799 0.00635 0.50904 0.0
C148 C 0.73196 0.00182 0.5087 0.0
C149 C 0.96033 0.08855 0.51043 0.0
C150 C -0.01995 0.04626 0.49253 0.0
C151 C 0.01675 0.13506 0.52963 0.0
C152 C -0.00287 0.17846 0.54937 0.0
C153 C 0.92644 0.1342 0.56226 0.0
C154 C 0.90764 0.17568 0.58059 0.0
C155 C 0.95953 0.26133 0.58636 0.0
C156 C 0.0305 0.30561 0.57388 0.0
C157 C 0.04947 0.26445 0.55549 0.0
H158 H 0.94486 0.29334 0.60056 0.0
H159 H 0.12913 0.8906 0.42283 0.0
H160 H 0.55032 0.74886 0.8443 0.0
H161 H 0.67422 0.88674 0.84787 0.0
H162 H 0.81744 0.7802 0.86965 0.0
H163 H 0.69372 0.64189 0.86638 0.0
H164 H 0.86844 0.94298 0.89235 0.0
H165 H 0.80145 0.79167 0.81383 0.0
H166 H 0.70724 0.71602 0.77911 0.0
H167 H 0.6866 0.93071 0.76948 0.0
H168 H 0.77987 0.00724 0.80439 0.0
H169 H 0.26723 0.19496 0.85347 0.0
H170 H 0.13025 0.07819 0.85973 0.0
H171 H 0.01874 0.20466 0.82969 0.0
H172 H 0.155 0.32102 0.82306 0.0
H173 H 0.94422 0.04306 0.81316 0.0
H174 H 0.02447 0.20267 0.88754 0.0
H175 H 0.11795 0.28179 0.92213 0.0
H176 H 0.11152 0.05986 0.94016 0.0
H177 H 0.01891 0.97958 0.90545 0.0
C178 C 0.60787 0.75484 0.85025 0.0
C179 C 0.61291 0.68438 0.8545 0.0
C180 C 0.67829 0.83366 0.85241 0.0
C181 C 0.75454 0.84282 0.8587 0.0
C182 C 0.75876 0.77383 0.86476 0.0
C183 C 0.68829 0.6949 0.86265 0.0
C184 C 0.83109 0.92103 0.8556 0.0
C185 C 0.88546 0.96504 0.87509 0.0
C186 C 0.85156 0.95019 0.8331 0.0
C187 C 0.79698 0.90485 0.81182 0.0
C188 C 0.77646 0.82256 0.80438 0.0
C189 C 0.7233 0.77955 0.78467 0.0
C190 C 0.69092 0.81852 0.77211 0.0
C191 C 0.71174 0.90062 0.77923 0.0
C192 C 0.76478 0.94385 0.79896 0.0
C193 C 0.21355 0.19762 0.84803 0.0
C194 C 0.22174 0.26718 0.83787 0.0
C195 C 0.13555 0.1313 0.85179 0.0
C196 C 0.06493 0.13394 0.84552 0.0
C197 C 0.07281 0.20208 0.83476 0.0
C198 C 0.15065 0.26835 0.831 0.0
C199 C -0.01738 0.06469 0.84986 0.0
C200 C 0.92704 0.02213 0.83054 0.0
C201 C 0.96089 0.0377 0.87255 0.0
C202 C 0.0152 0.0852 0.89377 0.0
C203 C 0.04336 0.1708 0.8988 0.0
C204 C 0.09616 0.21587 0.91843 0.0
C205 C 0.12082 0.17592 0.9333 0.0
C206 C 0.0924 0.09072 0.92861 0.0
C207 C 0.03964 0.04536 0.90897 0.0
H208 H 0.16183 0.21094 0.94847 0.0
H209 H 0.64988 0.78514 0.75684 0.0
H210 H 0.27027 0.42867 0.91339 0.0
H211 H 0.20626 0.43635 0.94999 0.0
H212 H 0.43403 0.65529 0.9764 0.0
H213 H 0.49924 0.6463 0.94001 0.0
H214 H 0.38067 0.55496 1.00839 0.0
H215 H 0.26002 0.6647 0.96229 0.0
H216 H 0.18867 0.67915 0.92852 0.0
H217 H 0.96985 0.44916 0.93995 0.0
H218 H 0.0403 0.43194 0.97353 0.0
H219 H 0.15837 0.57176 0.11121 0.0
H220 H 0.236 0.61346 0.0753 0.0
H221 H 0.06375 0.37443 0.03881 0.0
H222 H -0.01309 0.33215 0.07433 0.0
H223 H 0.09957 0.51424 0.01369 0.0
H224 H 0.24197 0.40871 0.05933 0.0
H225 H 0.31828 0.41405 0.09506 0.0
H226 H 0.50605 0.66521 0.08548 0.0
H227 H 0.4297 0.66208 0.04999 0.0
C228 C 0.30634 0.47944 0.92679 0.0
C229 C 0.38988 0.53688 0.92381 0.0
C230 C 0.26955 0.48395 0.94773 0.0
C231 C 0.31505 0.54686 0.96596 0.0
C232 C 0.39767 0.60609 0.96264 0.0
C233 C 0.43478 0.60107 0.94179 0.0
C234 C 0.27796 0.54657 0.98903 0.0
C235 C 0.31989 0.54783 0.00953 0.0
C236 C 0.19882 0.53772 0.99071 0.0
C237 C 0.15588 0.54669 0.97035 0.0
C238 C 0.19696 0.61661 0.95748 0.0
C239 C 0.15661 0.62531 0.93837 0.0
C240 C 0.07486 0.56486 0.93206 0.0
C241 C 0.03325 0.49562 0.94485 0.0
C242 C 0.07337 0.48638 0.96393 0.0
C243 C 0.13747 0.52805 0.09556 0.0
C244 C 0.06679 0.44849 0.09567 0.0
C245 C 0.18166 0.55202 0.07508 0.0
C246 C 0.1553 0.497 0.05442 0.0
C247 C 0.08478 0.4179 0.05454 0.0
C248 C 0.04133 0.39366 0.07495 0.0
C249 C 0.20127 0.51991 0.0326 0.0
C250 C 0.16089 0.52281 0.0124 0.0
C251 C 0.28269 0.53501 0.03131 0.0
C252 C 0.32951 0.53559 0.05222 0.0
C253 C 0.29915 0.46532 0.06496 0.0
C254 C 0.34238 0.46799 0.08518 0.0
C255 C 0.41667 0.54018 0.09263 0.0
C256 C 0.44827 0.60955 0.07976 0.0
C257 C 0.40499 0.60738 0.05961 0.0
H258 H 0.44999 0.5423 0.10833 0.0
H259 H 0.04365 0.57179 0.91729 0.0
H260 H 0.6426 0.30428 0.43221 0.0
H261 H 0.68009 0.35811 0.3936 0.0
H262 H 0.61268 0.11166 0.3624 0.0
H263 H 0.57892 0.05898 0.40091 0.0
H264 H 0.75589 0.21491 0.34993 0.0
H265 H 0.50124 0.21219 0.35154 0.0
H266 H 0.3972 0.24245 0.3683 0.0
H267 H 0.56707 0.50532 0.36838 0.0
H268 H 0.67287 0.47681 0.35202 0.0
H269 H 0.83997 0.32905 0.2346 0.0
H270 H 0.75438 0.26525 0.26757 0.0
H271 H 0.85227 0.50806 0.3058 0.0
H272 H 0.93744 0.57266 0.27284 0.0
H273 H 0.68254 0.4007 0.31246 0.0
H274 H 0.94173 0.39525 0.32337 0.0
H275 H 0.0491 0.3642 0.31008 0.0
H276 H 0.86293 0.11425 0.28523 0.0
H277 H 0.75457 0.14296 0.29937 0.0
C278 C 0.63507 0.26172 0.41701 0.0
C279 C 0.60927 0.17795 0.41955 0.0
C280 C 0.65585 0.29226 0.39493 0.0
C281 C 0.64904 0.2389 0.375 0.0
C282 C 0.61926 0.15428 0.37748 0.0
C283 C 0.60018 0.12429 0.39953 0.0
C284 C 0.6807 0.27218 0.35209 0.0
C285 C 0.73798 0.25389 0.34157 0.0
C286 C 0.65935 0.32489 0.34132 0.0
C287 C 0.59539 0.34234 0.35077 0.0
C288 C 0.51672 0.2765 0.35529 0.0
C289 C 0.45741 0.29333 0.36472 0.0
C290 C 0.47574 0.37575 0.36955 0.0
C291 C 0.55315 0.44152 0.36474 0.0
C292 C 0.61281 0.42506 0.35536 0.0
C293 C 0.84227 0.36911 0.24983 0.0
C294 C 0.89624 0.4559 0.25119 0.0
C295 C 0.79347 0.33249 0.26869 0.0
C296 C 0.79791 0.38187 0.28924 0.0
C297 C 0.84797 0.46886 0.2901 0.0
C298 C 0.89682 0.50559 0.27125 0.0
C299 C 0.75656 0.34247 0.31057 0.0
C300 C 0.69843 0.36021 0.32079 0.0
C301 C 0.77611 0.28847 0.32111 0.0
C302 C 0.84043 0.27145 0.31214 0.0
C303 C 0.92389 0.33386 0.31495 0.0
C304 C -0.01515 0.31664 0.30732 0.0
C305 C 0.96291 0.23776 0.29645 0.0
C306 C 0.87987 0.17545 0.29354 0.0
C307 C 0.8187 0.1919 0.30154 0.0
H308 H 0.01026 0.22475 0.29045 0.0
H309 H 0.42984 0.38865 0.37694 0.0
H310 H 0.50114 0.75497 0.76379 0.0
H311 H 0.46932 0.78864 0.7262 0.0
H312 H 0.26062 0.5389 0.71358 0.0
H313 H 0.29225 0.50459 0.75109 0.0
H314 H 0.35109 0.58227 0.67567 0.0
H315 H 0.23083 0.69544 0.72722 0.0
H316 H 0.21571 0.77702 0.76106 0.0
H317 H 0.39926 0.00456 0.73492 0.0
H318 H 0.41792 0.92432 0.7013 0.0
H319 H 0.26148 0.85203 0.59317 0.0
H320 H 0.23791 0.77992 0.62868 0.0
H321 H 0.4539 0.75951 0.61654 0.0
H322 H 0.4762 0.82899 0.58072 0.0
H323 H 0.32746 0.8316 0.6666 0.0
H324 H 0.44528 0.59985 0.64084 0.0
H325 H 0.43753 0.50697 0.60623 0.0
H326 H 0.21818 0.49566 0.58009 0.0
H327 H 0.22369 0.58735 0.61464 0.0
C328 C 0.44821 0.70736 0.75308 0.0
C329 C 0.39943 0.62705 0.76037 0.0
C330 C 0.42985 0.7268 0.73166 0.0
C331 C 0.36243 0.66629 0.71713 0.0
C332 C 0.31295 0.58643 0.72452 0.0
C333 C 0.33093 0.56711 0.74601 0.0
C334 C 0.34599 0.68563 0.6938 0.0
C335 C 0.3456 0.63661 0.67366 0.0
C336 C 0.33573 0.75472 0.69125 0.0
C337 C 0.32666 0.80357 0.71184 0.0
C338 C 0.26916 0.7628 0.72886 0.0
C339 C 0.25987 0.80885 0.74801 0.0
C340 C 0.30695 0.8959 0.75022 0.0
C341 C 0.36334 0.93708 0.73326 0.0
C342 C 0.3734 0.8913 0.71417 0.0
C343 C 0.30294 0.83059 0.59781 0.0
C344 C 0.37081 0.84638 0.58417 0.0
C345 C 0.28954 0.78963 0.61816 0.0
C346 C 0.34391 0.76397 0.6253 0.0
C347 C 0.41008 0.77715 0.61122 0.0
C348 C 0.423 0.81728 0.59074 0.0
C349 C 0.33626 0.73046 0.64844 0.0
C350 C 0.3322 0.77683 0.66858 0.0
C351 C 0.33958 0.65737 0.65098 0.0
C352 C 0.3353 0.60109 0.63029 0.0
C353 C 0.39508 0.57716 0.62779 0.0
C354 C 0.3911 0.52474 0.60818 0.0
C355 C 0.32743 0.49545 0.591 0.0
C356 C 0.26748 0.51841 0.5934 0.0
C357 C 0.27109 0.57075 0.61298 0.0
H358 H 0.32452 0.45492 0.57583 0.0
H359 H 0.29942 0.93147 0.765 0.0
H360 H 0.6135 0.40303 0.91265 0.0
H361 H 0.6676 0.39084 0.94983 0.0
H362 H 0.42089 0.21549 0.96867 0.0
H363 H 0.36596 0.22896 0.93161 0.0
H364 H 0.49266 0.32785 1.00334 0.0
H365 H 0.56521 0.15739 0.95737 0.0
H366 H 0.62029 0.10633 0.92508 0.0
H367 H 0.86534 0.30697 0.94461 0.0
H368 H 0.81172 0.36145 0.97654 0.0
H369 H 0.69403 0.29865 0.10856 0.0
H370 H 0.61588 0.25307 0.0705 0.0
H371 H 0.80099 0.47807 0.04278 0.0
H372 H 0.87804 0.52483 0.08058 0.0
H373 H 0.74393 0.30863 0.01414 0.0
H374 H 0.64835 0.48573 0.0562 0.0
H375 H 0.58881 0.5151 0.09175 0.0
H376 H 0.37555 0.26943 0.08098 0.0
H377 H 0.43447 0.23831 0.04552 0.0
C378 C 0.57077 0.36061 0.92447 0.0
C379 C 0.48536 0.31735 0.91921 0.0
C380 C 0.60187 0.35335 0.94573 0.0
C381 C 0.5484 0.30188 0.96207 0.0
C382 C 0.46334 0.25572 0.95638 0.0
C383 C 0.43209 0.26328 0.93514 0.0
C384 C 0.58108 0.30292 0.98582 0.0
C385 C 0.54658 0.32181 1.0056 0.0
C386 C 0.65119 0.29456 0.98899 0.0
C387 C 0.68409 0.26406 0.96929 0.0
C388 C 0.63073 0.1916 0.95459 0.0
C389 C 0.66174 0.16202 0.93633 0.0
C390 C 0.74623 0.20377 0.93271 0.0
C391 C 0.79987 0.27525 0.94733 0.0
C392 C 0.76915 0.30555 0.96551 0.0
C393 C 0.71759 0.33852 0.09437 0.0
C394 C 0.79181 0.41551 0.09759 0.0
C395 C 0.67326 0.31225 0.07269 0.0
C396 C 0.70342 0.36202 0.0539 0.0
C397 C 0.77732 0.43865 0.05707 0.0
C398 C 0.82073 0.46556 0.07876 0.0
C399 C 0.65717 0.3364 0.031 0.0
C400 C 0.68923 0.31307 0.01156 0.0
C401 C 0.58381 0.33844 0.02814 0.0
C402 C 0.54615 0.35939 0.04842 0.0
C403 C 0.58884 0.43798 0.06146 0.0
C404 C 0.55529 0.45488 0.08159 0.0
C405 C 0.47887 0.39378 0.08875 0.0
C406 C 0.435 0.3164 0.0755 0.0
C407 C 0.46836 0.29917 0.05537 0.0
H408 H 0.45354 0.40637 0.10455 0.0
H409 H 0.77019 0.18052 0.91865 0.0
H410 H 0.27993 0.66367 0.2473 0.0
H411 H 0.34086 0.73576 0.28606 0.0
H412 H 0.18687 0.50767 0.31791 0.0
H413 H 0.12986 0.43468 0.27911 0.0
H414 H 0.27232 0.76968 0.31929 0.0
H415 H 0.25824 0.5053 0.37064 0.0
H416 H 0.28087 0.38622 0.36318 0.0
H417 H 0.44047 0.50522 0.30757 0.0
H418 H 0.41963 0.6254 0.31486 0.0
H419 H 0.2632 0.88659 0.43681 0.0
H420 H 0.22778 0.79523 0.4002 0.0
H421 H 0.46439 0.81104 0.40437 0.0
H422 H 0.49847 0.89918 0.44154 0.0
H423 H 0.35615 0.66394 0.38435 0.0
H424 H 0.43615 0.94439 0.37227 0.0
H425 H 0.4327 0.0752 0.37839 0.0
H426 H 0.18027 0.946 0.35256 0.0
H427 H 0.1818 0.81421 0.34651 0.0
C428 C 0.26071 0.62844 0.26252 0.0
C429 C 0.19944 0.54356 0.26021 0.0
C430 C 0.29521 0.66984 0.28471 0.0
C431 C 0.26858 0.62746 0.30505 0.0
C432 C 0.20985 0.54178 0.30259 0.0
C433 C 0.17663 0.50009 0.28037 0.0
C434 C 0.29622 0.6741 0.32884 0.0
C435 C 0.29118 0.74658 0.3334 0.0
C436 C 0.32245 0.64539 0.34732 0.0
C437 C 0.3367 0.57405 0.34317 0.0
C438 C 0.29851 0.50628 0.35691 0.0
C439 C 0.3109 0.4385 0.35267 0.0
C440 C 0.3617 0.43798 0.33483 0.0
C441 C 0.40077 0.50551 0.3213 0.0
C442 C 0.38858 0.5734 0.32545 0.0
C443 C 0.30669 0.86872 0.43023 0.0
C444 C 0.38388 0.90074 0.44187 0.0
C445 C 0.2867 0.81701 0.40923 0.0
C446 C 0.34449 0.79837 0.39915 0.0
C447 C 0.41905 0.82501 0.41169 0.0
C448 C 0.43842 0.87542 0.43297 0.0
C449 C 0.33014 0.75779 0.37471 0.0
C450 C 0.33775 0.68686 0.37009 0.0
C451 C 0.30961 0.78978 0.35589 0.0
C452 C 0.30893 0.8693 0.35908 0.0
C453 C 0.37982 0.94382 0.36797 0.0
C454 C 0.37825 0.01813 0.37142 0.0
C455 C 0.30634 0.01884 0.3659 0.0
C456 C 0.23592 0.94532 0.35683 0.0
C457 C 0.23713 0.87083 0.35335 0.0
H458 H 0.30522 0.07639 0.36862 0.0
H459 H 0.3709 0.3853 0.33149 0.0
H460 H 0.39595 0.2347 0.76299 0.0
H461 H 0.46528 0.20589 0.7304 0.0
H462 H 0.67112 0.45763 0.74186 0.0
H463 H 0.60242 0.48666 0.77472 0.0
H464 H 0.60702 0.4215 0.69766 0.0
H465 H 0.70135 0.30388 0.74889 0.0
H466 H 0.70468 0.21898 0.7791 0.0
H467 H 0.54864 -0.00491 0.73449 0.0
H468 H 0.54129 0.07829 0.7043 0.0
H469 H 0.72362 0.15765 0.60503 0.0
H470 H 0.73724 0.22654 0.64459 0.0
H471 H 0.52789 0.25248 0.62833 0.0
H472 H 0.51612 0.18703 0.58873 0.0
H473 H 0.63961 0.17588 0.67809 0.0
H474 H 0.52674 0.40847 0.6608 0.0
H475 H 0.54295 0.50459 0.6315 0.0
H476 H 0.76715 0.51614 0.61001 0.0
H477 H 0.75357 0.42174 0.63962 0.0
C478 C 0.4569 0.2833 0.75895 0.0
C479 C 0.49339 0.36314 0.77127 0.0
C480 C 0.49669 0.26662 0.7404 0.0
C481 C 0.57334 0.32966 0.73367 0.0
C482 C 0.61205 0.40807 0.7468 0.0
C483 C 0.57278 0.42447 0.7656 0.0
C484 C 0.60637 0.31678 0.71106 0.0
C485 C 0.61489 0.36819 0.69342 0.0
C486 C 0.61928 0.2488 0.70578 0.0
C487 C 0.62007 0.19769 0.72433 0.0
C488 C 0.66631 0.23651 0.74563 0.0
C489 C 0.66899 0.18861 0.76277 0.0
C490 C 0.62649 0.10167 0.75876 0.0
C491 C 0.58108 0.06245 0.73761 0.0
C492 C 0.57749 0.11 0.72049 0.0
C493 C 0.68175 0.17985 0.60975 0.0
C494 C 0.61884 0.16691 0.59372 0.0
C495 C 0.68936 0.21889 0.63241 0.0
C496 C 0.63402 0.2454 0.63951 0.0
C497 C 0.57273 0.2346 0.62323 0.0
C498 C 0.5658 0.19671 0.60053 0.0
C499 C 0.6351 0.27761 0.66436 0.0
C500 C 0.63294 0.22986 0.68242 0.0
C501 C 0.62976 0.35005 0.67018 0.0
C502 C 0.63878 0.40741 0.65237 0.0
C503 C 0.57982 0.43186 0.64994 0.0
C504 C 0.58848 0.486 0.63324 0.0
C505 C 0.65579 0.51613 0.61881 0.0
C506 C 0.71485 0.49249 0.62114 0.0
C507 C 0.70671 0.43865 0.63789 0.0
H508 H 0.66229 0.55796 0.60587 0.0
H509 H 0.62906 0.0647 0.77199 0.0
loop_
_geom_bond_atom_site_label_1
_geom_bond_atom_site_label_2
_geom_bond_distance
_geom_bond_site_symmetry_2
_ccdc_geom_bond_type
Zn0 O6 1.969 . S
Zn0 O7 1.965 . S
Zn0 O11 2.024 1_455 S
Zn0 O16 1.969 . S
Zn1 O8 1.969 . S
Zn1 O14 1.969 1_455 S
Zn1 O15 1.965 1_455 S
Zn1 O17 2.024 . S
C2 O3 1.229 . S
C2 O11 1.058 . S
O3 C2 1.229 . S
C4 O5 1.229 . S
C4 O17 1.058 . S
O5 C4 1.229 . S
O6 Zn0 1.969 . S
O6 C9 1.267 . S
O7 Zn0 1.965 . S
O7 C18 1.260 . S
O8 Zn1 1.969 . S
O8 C18 1.258 . S
C9 O6 1.267 . S
C9 O10 1.228 . S
O10 C9 1.228 . S
O11 Zn0 2.024 1_655 S
O11 C2 1.058 . S
C12 O13 1.228 . S
C12 O14 1.267 . S
O13 C12 1.228 . S
O14 Zn1 1.969 1_655 S
O14 C12 1.267 . S
O15 Zn1 1.965 1_655 S
O15 C19 1.260 1_655 S
O16 Zn0 1.969 . S
O16 C19 1.258 . S
O17 Zn1 2.024 . S
O17 C4 1.058 . S
C18 O7 1.260 . S
C18 O8 1.258 . S
C19 O15 1.260 1_455 S
C19 O16 1.258 . S
Zn20 O26 1.969 1_545 S
Zn20 O27 1.965 1_545 S
Zn20 O31 2.024 . S
Zn20 O36 1.969 . S
Zn21 O28 1.969 . S
Zn21 O34 1.969 . S
Zn21 O35 1.965 . S
Zn21 O37 2.024 1_545 S
C22 O23 1.229 . S
C22 O31 1.058 . S
O23 C22 1.229 . S
C24 O25 1.229 . S
C24 O37 1.058 . S
O25 C24 1.229 . S
O26 Zn20 1.969 1_565 S
O26 C29 1.267 . S
O27 Zn20 1.965 1_565 S
O27 C38 1.260 . S
O28 Zn21 1.969 . S
O28 C38 1.258 1_545 S
C29 O26 1.267 . S
C29 O30 1.228 . S
O30 C29 1.228 . S
O31 Zn20 2.024 . S
O31 C22 1.058 . S
C32 O33 1.228 . S
C32 O34 1.267 . S
O33 C32 1.228 . S
O34 Zn21 1.969 . S
O34 C32 1.267 . S
O35 Zn21 1.965 . S
O35 C39 1.260 . S
O36 Zn20 1.969 . S
O36 C39 1.258 . S
O37 Zn21 2.024 1_565 S
O37 C24 1.058 . S
C38 O27 1.260 . S
C38 O28 1.258 1_565 S
C39 O35 1.260 . S
C39 O36 1.258 . S
Zn40 O46 1.969 . S
Zn40 O47 1.965 . S
Zn40 O51 2.024 . S
Zn40 O56 1.969 . S
Zn41 O48 1.969 . S
Zn41 O54 1.969 . S
Zn41 O55 1.965 . S
Zn41 O57 2.024 . S
C42 O43 1.229 . S
C42 O51 1.058 . S
O43 C42 1.229 . S
C44 O45 1.229 . S
C44 O57 1.058 . S
O45 C44 1.229 . S
O46 Zn40 1.969 . S
O46 C49 1.267 . S
O47 Zn40 1.965 . S
O47 C58 1.260 . S
O48 Zn41 1.969 . S
O48 C58 1.258 . S
C49 O46 1.267 . S
C49 O50 1.228 . S
O50 C49 1.228 . S
O51 Zn40 2.024 . S
O51 C42 1.058 . S
C52 O53 1.228 . S
C52 O54 1.267 . S
O53 C52 1.228 . S
O54 Zn41 1.969 . S
O54 C52 1.267 . S
O55 Zn41 1.965 . S
O55 C59 1.260 . S
O56 Zn40 1.969 . S
O56 C59 1.258 . S
O57 Zn41 2.024 . S
O57 C44 1.058 . S
C58 O47 1.260 . S
C58 O48 1.258 . S
C59 O55 1.260 . S
C59 O56 1.258 . S
H60 C78 0.951 . S
H61 C80 0.951 . S
H62 C82 0.950 . S
H63 C83 0.950 . S
H64 C85 0.950 . S
H65 C88 0.950 . S
H66 C89 0.950 . S
H67 C91 0.950 . S
H68 C92 0.950 . S
H69 C93 0.951 . S
H70 C95 0.951 . S
H71 C97 0.950 . S
H72 C98 0.950 . S
H73 C100 0.950 . S
H74 C103 0.950 . S
H75 C104 0.950 . S
H76 C106 0.950 . S
H77 C107 0.950 . S
C78 H60 0.951 . S
C78 C79 1.366 1_655 S
C78 C80 1.388 . S
C79 C78 1.366 1_455 S
C79 C83 1.385 . S
C80 H61 0.951 . S
C80 C78 1.388 . S
C80 C81 1.366 1_655 S
C81 C80 1.366 1_455 S
C81 C82 1.414 . S
C81 C84 1.499 . S
C82 H62 0.950 . S
C82 C81 1.414 . S
C82 C83 1.374 . S
C83 H63 0.950 . S
C83 C79 1.385 . S
C83 C82 1.374 . S
C84 C81 1.499 . S
C84 C85 1.373 . S
C84 C86 1.389 1_455 S
C85 H64 0.950 . S
C85 C84 1.373 . S
C85 C101 1.377 1_565 S
C86 C84 1.389 1_655 S
C86 C87 1.524 . S
C86 C100 1.377 . S
C87 C86 1.524 . S
C87 C88 1.397 . S
C87 C92 1.363 . S
C88 H65 0.950 . S
C88 C87 1.397 . S
C88 C89 1.334 . S
C89 H66 0.950 . S
C89 C88 1.334 . S
C89 C90 1.287 . S
C90 C89 1.287 . S
C90 C91 1.524 . S
C90 H109 0.913 . S
C91 H67 0.950 . S
C91 C90 1.524 . S
C91 C92 1.415 . S
C92 H68 0.950 . S
C92 C87 1.363 . S
C92 C91 1.415 . S
C93 H69 0.951 . S
C93 C94 1.366 . S
C93 C95 1.388 . S
C94 C93 1.366 . S
C94 C98 1.385 1_455 S
C95 H70 0.951 . S
C95 C93 1.388 . S
C95 C96 1.366 . S
C96 C95 1.366 . S
C96 C97 1.414 1_455 S
C96 C99 1.499 . S
C97 H71 0.950 . S
C97 C96 1.414 1_655 S
C97 C98 1.374 . S
C98 H72 0.950 . S
C98 C94 1.385 1_655 S
C98 C97 1.374 . S
C99 C96 1.499 . S
C99 C100 1.373 1_445 S
C99 C101 1.389 . S
C100 H73 0.950 . S
C100 C86 1.377 . S
C100 C99 1.373 1_665 S
C101 C85 1.377 1_545 S
C101 C99 1.389 . S
C101 C102 1.524 . S
C102 C101 1.524 . S
C102 C103 1.397 . S
C102 C107 1.363 . S
C103 H74 0.950 . S
C103 C102 1.397 . S
C103 C104 1.334 . S
C104 H75 0.950 . S
C104 C103 1.334 . S
C104 C105 1.287 . S
C105 C104 1.287 . S
C105 C106 1.524 . S
C105 H108 0.999 . S
C106 H76 0.950 . S
C106 C105 1.524 . S
C106 C107 1.415 . S
C107 H77 0.950 . S
C107 C102 1.363 . S
C107 C106 1.415 . S
H108 C105 0.999 . S
H109 C90 0.913 . S
H110 C128 0.951 . S
H111 C130 0.951 . S
H112 C132 0.950 . S
H113 C133 0.950 . S
H114 C135 0.955 . S
H115 C138 0.950 . S
H116 C139 0.950 . S
H117 C141 0.950 1_565 S
H118 C142 0.950 . S
H119 C143 0.951 . S
H120 C145 0.951 . S
H121 C147 0.950 . S
H122 C148 0.950 . S
H123 C150 0.950 . S
H124 C153 0.950 . S
H125 C154 0.950 . S
H126 C156 0.950 . S
H127 C157 0.950 1_455 S
C128 H110 0.951 . S
C128 C129 1.366 1_565 S
C128 C130 1.388 . S
C129 C128 1.366 1_545 S
C129 C133 1.385 . S
C130 H111 0.951 . S
C130 C128 1.388 . S
C130 C131 1.366 1_565 S
C131 C130 1.366 1_545 S
C131 C132 1.414 . S
C131 C134 1.499 . S
C132 H112 0.950 . S
C132 C131 1.414 . S
C132 C133 1.374 . S
C133 H113 0.950 . S
C133 C129 1.385 . S
C133 C132 1.374 . S
C134 C131 1.499 . S
C134 C135 1.373 . S
C134 C136 1.389 . S
C135 H114 0.955 . S
C135 C134 1.373 . S
C135 C151 1.377 1_455 S
C136 C134 1.389 . S
C136 C137 1.524 . S
C136 C150 1.377 1_455 S
C137 C136 1.524 . S
C137 C138 1.397 . S
C137 C142 1.363 1_545 S
C138 H115 0.950 . S
C138 C137 1.397 . S
C138 C139 1.334 . S
C139 H116 0.950 . S
C139 C138 1.334 . S
C139 C140 1.287 . S
C140 C139 1.287 . S
C140 C141 1.524 . S
C140 H159 0.913 . S
C141 H117 0.950 1_545 S
C141 C140 1.524 . S
C141 C142 1.415 1_545 S
C142 H118 0.950 . S
C142 C137 1.363 1_565 S
C142 C141 1.415 1_565 S
C143 H119 0.951 . S
C143 C144 1.366 . S
C143 C145 1.388 . S
C144 C143 1.366 . S
C144 C148 1.385 1_545 S
C145 H120 0.951 . S
C145 C143 1.388 . S
C145 C146 1.366 . S
C146 C145 1.366 . S
C146 C147 1.414 1_545 S
C146 C149 1.499 . S
C147 H121 0.950 . S
C147 C146 1.414 1_565 S
C147 C148 1.374 . S
C148 H122 0.950 . S
C148 C144 1.385 1_565 S
C148 C147 1.374 . S
C149 C146 1.499 . S
C149 C150 1.373 . S
C149 C151 1.389 . S
C150 H123 0.950 . S
C150 C136 1.377 1_655 S
C150 C149 1.373 . S
C151 C135 1.377 1_655 S
C151 C149 1.389 . S
C151 C152 1.524 1_545 S
C152 C151 1.524 1_565 S
C152 C153 1.397 . S
C152 C157 1.363 1_565 S
C153 H124 0.950 . S
C153 C152 1.397 . S
C153 C154 1.334 . S
C154 H125 0.950 . S
C154 C153 1.334 . S
C154 C155 1.287 . S
C155 C154 1.287 . S
C155 C156 1.524 1_565 S
C155 H158 0.999 . S
C156 H126 0.950 . S
C156 C155 1.524 1_545 S
C156 C157 1.415 . S
C157 H127 0.950 1_655 S
C157 C152 1.363 1_545 S
C157 C156 1.415 . S
H158 C155 0.999 . S
H159 C140 0.913 . S
H160 C178 0.951 . S
H161 C180 0.951 . S
H162 C182 0.950 . S
H163 C183 0.950 . S
H164 C185 0.950 . S
H165 C188 0.950 . S
H166 C189 0.950 . S
H167 C191 0.950 . S
H168 C192 0.950 . S
H169 C193 0.951 . S
H170 C195 0.951 . S
H171 C197 0.950 . S
H172 C198 0.950 . S
H173 C200 0.950 . S
H174 C203 0.950 1_455 S
H175 C204 0.947 . S
H176 C206 0.950 . S
H177 C207 0.950 . S
C178 H160 0.951 . S
C178 C179 1.366 . S
C178 C180 1.388 . S
C179 C178 1.366 . S
C179 C183 1.385 . S
C180 H161 0.951 . S
C180 C178 1.388 . S
C180 C181 1.366 . S
C181 C180 1.366 . S
C181 C182 1.414 . S
C181 C184 1.499 . S
C182 H162 0.950 . S
C182 C181 1.414 . S
C182 C183 1.374 . S
C183 H163 0.950 . S
C183 C179 1.385 . S
C183 C182 1.374 . S
C184 C181 1.499 . S
C184 C185 1.373 . S
C184 C186 1.389 . S
C185 H164 0.950 . S
C185 C184 1.373 . S
C185 C201 1.377 1_565 S
C186 C184 1.389 . S
C186 C187 1.524 . S
C186 C200 1.377 1_665 S
C187 C186 1.524 . S
C187 C188 1.397 . S
C187 C192 1.363 . S
C188 H165 0.950 . S
C188 C187 1.397 . S
C188 C189 1.334 . S
C189 H166 0.950 . S
C189 C188 1.334 . S
C189 C190 1.287 . S
C190 C189 1.287 . S
C190 C191 1.524 . S
C190 H209 0.913 . S
C191 H167 0.950 . S
C191 C190 1.524 . S
C191 C192 1.415 . S
C192 H168 0.950 . S
C192 C187 1.363 . S
C192 C191 1.415 . S
C193 H169 0.951 . S
C193 C194 1.366 . S
C193 C195 1.388 . S
C194 C193 1.366 . S
C194 C198 1.385 . S
C195 H170 0.951 . S
C195 C193 1.388 . S
C195 C196 1.366 . S
C196 C195 1.366 . S
C196 C197 1.414 . S
C196 C199 1.499 . S
C197 H171 0.950 . S
C197 C196 1.414 . S
C197 C198 1.374 . S
C198 H172 0.950 . S
C198 C194 1.385 . S
C198 C197 1.374 . S
C199 C196 1.499 . S
C199 C200 1.373 . S
C199 C201 1.389 1_455 S
C200 H173 0.950 . S
C200 C186 1.377 1_445 S
C200 C199 1.373 . S
C201 C185 1.377 1_545 S
C201 C199 1.389 1_655 S
C201 C202 1.524 . S
C202 C201 1.524 . S
C202 C203 1.397 . S
C202 C207 1.363 . S
C203 H174 0.950 1_655 S
C203 C202 1.397 . S
C203 C204 1.340 1_655 S
C204 H175 0.947 . S
C204 C203 1.340 1_455 S
C204 C205 1.284 1_455 S
C205 C204 1.284 1_655 S
C205 C206 1.524 . S
C205 H208 0.999 . S
C206 H176 0.950 . S
C206 C205 1.524 . S
C206 C207 1.415 . S
C207 H177 0.950 . S
C207 C202 1.363 . S
C207 C206 1.415 . S
H208 C205 0.999 . S
H209 C190 0.913 . S
H210 C228 0.951 . S
H211 C230 0.951 . S
H212 C232 0.950 . S
H213 C233 0.950 . S
H214 C235 0.950 . S
H215 C238 0.950 . S
H216 C239 0.950 . S
H217 C241 0.950 . S
H218 C242 0.950 . S
H219 C243 0.951 . S
H220 C245 0.951 . S
H221 C247 0.950 . S
H222 C248 0.950 . S
H223 C250 0.950 . S
H224 C253 0.950 . S
H225 C254 0.950 . S
H226 C256 0.950 . S
H227 C257 0.950 . S
C228 H210 0.951 . S
C228 C229 1.366 . S
C228 C230 1.388 . S
C229 C228 1.366 . S
C229 C233 1.385 . S
C230 H211 0.951 . S
C230 C228 1.388 . S
C230 C231 1.366 . S
C231 C230 1.366 . S
C231 C232 1.414 . S
C231 C234 1.499 . S
C232 H212 0.950 . S
C232 C231 1.414 . S
C232 C233 1.374 . S
C233 H213 0.950 . S
C233 C229 1.385 . S
C233 C232 1.374 . S
C234 C231 1.499 . S
C234 C235 1.373 . S
C234 C236 1.389 . S
C235 H214 0.950 . S
C235 C234 1.373 . S
C235 C251 1.377 1_556 S
C236 C234 1.389 . S
C236 C237 1.524 . S
C236 C250 1.377 1_556 S
C237 C236 1.524 . S
C237 C238 1.397 . S
C237 C242 1.363 . S
C238 H215 0.950 . S
C238 C237 1.397 . S
C238 C239 1.334 . S
C239 H216 0.950 . S
C239 C238 1.334 . S
C239 C240 1.287 . S
C240 C239 1.287 . S
C240 C241 1.524 . S
C240 H259 0.913 . S
C241 H217 0.950 . S
C241 C240 1.524 . S
C241 C242 1.415 . S
C242 H218 0.950 . S
C242 C237 1.363 . S
C242 C241 1.415 . S
C243 H219 0.951 . S
C243 C244 1.366 . S
C243 C245 1.388 . S
C244 C243 1.366 . S
C244 C248 1.385 . S
C245 H220 0.951 . S
C245 C243 1.388 . S
C245 C246 1.366 . S
C246 C245 1.366 . S
C246 C247 1.414 . S
C246 C249 1.499 . S
C247 H221 0.950 . S
C247 C246 1.414 . S
C247 C248 1.374 . S
C248 H222 0.950 . S
C248 C244 1.385 . S
C248 C247 1.374 . S
C249 C246 1.499 . S
C249 C250 1.373 . S
C249 C251 1.389 . S
C250 H223 0.950 . S
C250 C236 1.377 1_554 S
C250 C249 1.373 . S
C251 C235 1.377 1_554 S
C251 C249 1.389 . S
C251 C252 1.524 . S
C252 C251 1.524 . S
C252 C253 1.397 . S
C252 C257 1.363 . S
C253 H224 0.950 . S
C253 C252 1.397 . S
C253 C254 1.334 . S
C254 H225 0.950 . S
C254 C253 1.334 . S
C254 C255 1.287 . S
C255 C254 1.287 . S
C255 C256 1.524 . S
C255 H258 0.999 . S
C256 H226 0.950 . S
C256 C255 1.524 . S
C256 C257 1.415 . S
C257 H227 0.950 . S
C257 C252 1.363 . S
C257 C256 1.415 . S
H258 C255 0.999 . S
H259 C240 0.913 . S
H260 C278 0.951 . S
H261 C280 0.951 . S
H262 C282 0.950 . S
H263 C283 0.950 . S
H264 C285 0.950 . S
H265 C288 0.950 . S
H266 C289 0.950 . S
H267 C291 0.950 . S
H268 C292 0.950 . S
H269 C293 0.951 . S
H270 C295 0.951 . S
H271 C297 0.950 . S
H272 C298 0.950 . S
H273 C300 0.950 . S
H274 C303 0.950 . S
H275 C304 0.950 . S
H276 C306 0.950 . S
H277 C307 0.950 . S
C278 H260 0.951 . S
C278 C279 1.366 . S
C278 C280 1.388 . S
C279 C278 1.366 . S
C279 C283 1.385 . S
C280 H261 0.951 . S
C280 C278 1.388 . S
C280 C281 1.366 . S
C281 C280 1.366 . S
C281 C282 1.414 . S
C281 C284 1.499 . S
C282 H262 0.950 . S
C282 C281 1.414 . S
C282 C283 1.374 . S
C283 H263 0.950 . S
C283 C279 1.385 . S
C283 C282 1.374 . S
C284 C281 1.499 . S
C284 C285 1.373 . S
C284 C286 1.389 . S
C285 H264 0.950 . S
C285 C284 1.373 . S
C285 C301 1.377 . S
C286 C284 1.389 . S
C286 C287 1.524 . S
C286 C300 1.377 . S
C287 C286 1.524 . S
C287 C288 1.397 . S
C287 C292 1.363 . S
C288 H265 0.950 . S
C288 C287 1.397 . S
C288 C289 1.334 . S
C289 H266 0.950 . S
C289 C288 1.334 . S
C289 C290 1.287 . S
C290 C289 1.287 . S
C290 C291 1.524 . S
C290 H309 0.913 . S
C291 H267 0.950 . S
C291 C290 1.524 . S
C291 C292 1.415 . S
C292 H268 0.950 . S
C292 C287 1.363 . S
C292 C291 1.415 . S
C293 H269 0.951 . S
C293 C294 1.366 . S
C293 C295 1.388 . S
C294 C293 1.366 . S
C294 C298 1.385 . S
C295 H270 0.951 . S
C295 C293 1.388 . S
C295 C296 1.366 . S
C296 C295 1.366 . S
C296 C297 1.414 . S
C296 C299 1.499 . S
C297 H271 0.950 . S
C297 C296 1.414 . S
C297 C298 1.374 . S
C298 H272 0.950 . S
C298 C294 1.385 . S
C298 C297 1.374 . S
C299 C296 1.499 . S
C299 C300 1.373 . S
C299 C301 1.389 . S
C300 H273 0.950 . S
C300 C286 1.377 . S
C300 C299 1.373 . S
C301 C285 1.377 . S
C301 C299 1.389 . S
C301 C302 1.524 . S
C302 C301 1.524 . S
C302 C303 1.397 . S
C302 C307 1.363 . S
C303 H274 0.950 . S
C303 C302 1.397 . S
C303 C304 1.334 . S
C304 H275 0.950 . S
C304 C303 1.334 . S
C304 C305 1.287 . S
C305 C304 1.287 . S
C305 C306 1.524 . S
C305 H308 0.999 . S
C306 H276 0.950 . S
C306 C305 1.524 . S
C306 C307 1.415 . S
C307 H277 0.950 . S
C307 C302 1.363 . S
C307 C306 1.415 . S
H308 C305 0.999 . S
H309 C290 0.913 . S
H310 C328 0.951 . S
H311 C330 0.951 . S
H312 C332 0.950 . S
H313 C333 0.950 . S
H314 C335 0.950 . S
H315 C338 0.950 . S
H316 C339 0.950 . S
H317 C341 0.950 . S
H318 C342 0.950 . S
H319 C343 0.951 . S
H320 C345 0.951 . S
H321 C347 0.950 . S
H322 C348 0.950 . S
H323 C350 0.950 . S
H324 C353 0.950 . S
H325 C354 0.950 . S
H326 C356 0.950 . S
H327 C357 0.950 . S
C328 H310 0.951 . S
C328 C329 1.366 . S
C328 C330 1.388 . S
C329 C328 1.366 . S
C329 C333 1.385 . S
C330 H311 0.951 . S
C330 C328 1.388 . S
C330 C331 1.366 . S
C331 C330 1.366 . S
C331 C332 1.414 . S
C331 C334 1.499 . S
C332 H312 0.950 . S
C332 C331 1.414 . S
C332 C333 1.374 . S
C333 H313 0.950 . S
C333 C329 1.385 . S
C333 C332 1.374 . S
C334 C331 1.499 . S
C334 C335 1.373 . S
C334 C336 1.389 . S
C335 H314 0.950 . S
C335 C334 1.373 . S
C335 C351 1.377 . S
C336 C334 1.389 . S
C336 C337 1.524 . S
C336 C350 1.377 . S
C337 C336 1.524 . S
C337 C338 1.397 . S
C337 C342 1.363 . S
C338 H315 0.950 . S
C338 C337 1.397 . S
C338 C339 1.334 . S
C339 H316 0.950 . S
C339 C338 1.334 . S
C339 C340 1.287 . S
C340 C339 1.287 . S
C340 C341 1.524 . S
C340 H359 0.913 . S
C341 H317 0.950 . S
C341 C340 1.524 . S
C341 C342 1.415 . S
C342 H318 0.950 . S
C342 C337 1.363 . S
C342 C341 1.415 . S
C343 H319 0.951 . S
C343 C344 1.366 . S
C343 C345 1.388 . S
C344 C343 1.366 . S
C344 C348 1.385 . S
C345 H320 0.951 . S
C345 C343 1.388 . S
C345 C346 1.366 . S
C346 C345 1.366 . S
C346 C347 1.414 . S
C346 C349 1.499 . S
C347 H321 0.950 . S
C347 C346 1.414 . S
C347 C348 1.374 . S
C348 H322 0.950 . S
C348 C344 1.385 . S
C348 C347 1.374 . S
C349 C346 1.499 . S
C349 C350 1.373 . S
C349 C351 1.389 . S
C350 H323 0.950 . S
C350 C336 1.377 . S
C350 C349 1.373 . S
C351 C335 1.377 . S
C351 C349 1.389 . S
C351 C352 1.524 . S
C352 C351 1.524 . S
C352 C353 1.397 . S
C352 C357 1.363 . S
C353 H324 0.950 . S
C353 C352 1.397 . S
C353 C354 1.334 . S
C354 H325 0.950 . S
C354 C353 1.334 . S
C354 C355 1.287 . S
C355 C354 1.287 . S
C355 C356 1.524 . S
C355 H358 0.999 . S
C356 H326 0.950 . S
C356 C355 1.524 . S
C356 C357 1.415 . S
C357 H327 0.950 . S
C357 C352 1.363 . S
C357 C356 1.415 . S
H358 C355 0.999 . S
H359 C340 0.913 . S
H360 C378 0.951 . S
H361 C380 0.951 . S
H362 C382 0.950 . S
H363 C383 0.950 . S
H364 C385 0.950 . S
H365 C388 0.950 . S
H366 C389 0.950 . S
H367 C391 0.950 . S
H368 C392 0.950 . S
H369 C393 0.951 . S
H370 C395 0.951 . S
H371 C397 0.950 . S
H372 C398 0.950 . S
H373 C400 0.950 . S
H374 C403 0.950 . S
H375 C404 0.950 . S
H376 C406 0.950 . S
H377 C407 0.950 . S
C378 H360 0.951 . S
C378 C379 1.366 . S
C378 C380 1.388 . S
C379 C378 1.366 . S
C379 C383 1.385 . S
C380 H361 0.951 . S
C380 C378 1.388 . S
C380 C381 1.366 . S
C381 C380 1.366 . S
C381 C382 1.414 . S
C381 C384 1.499 . S
C382 H362 0.950 . S
C382 C381 1.414 . S
C382 C383 1.374 . S
C383 H363 0.950 . S
C383 C379 1.385 . S
C383 C382 1.374 . S
C384 C381 1.499 . S
C384 C385 1.373 . S
C384 C386 1.389 . S
C385 H364 0.950 . S
C385 C384 1.373 . S
C385 C401 1.377 1_556 S
C386 C384 1.389 . S
C386 C387 1.524 . S
C386 C400 1.377 1_556 S
C387 C386 1.524 . S
C387 C388 1.397 . S
C387 C392 1.363 . S
C388 H365 0.950 . S
C388 C387 1.397 . S
C388 C389 1.334 . S
C389 H366 0.950 . S
C389 C388 1.334 . S
C389 C390 1.287 . S
C390 C389 1.287 . S
C390 C391 1.524 . S
C390 H409 0.913 . S
C391 H367 0.950 . S
C391 C390 1.524 . S
C391 C392 1.415 . S
C392 H368 0.950 . S
C392 C387 1.363 . S
C392 C391 1.415 . S
C393 H369 0.951 . S
C393 C394 1.366 . S
C393 C395 1.388 . S
C394 C393 1.366 . S
C394 C398 1.385 . S
C395 H370 0.951 . S
C395 C393 1.388 . S
C395 C396 1.366 . S
C396 C395 1.366 . S
C396 C397 1.414 . S
C396 C399 1.499 . S
C397 H371 0.950 . S
C397 C396 1.414 . S
C397 C398 1.374 . S
C398 H372 0.950 . S
C398 C394 1.385 . S
C398 C397 1.374 . S
C399 C396 1.499 . S
C399 C400 1.373 . S
C399 C401 1.389 . S
C400 H373 0.950 . S
C400 C386 1.377 1_554 S
C400 C399 1.373 . S
C401 C385 1.377 1_554 S
C401 C399 1.389 . S
C401 C402 1.524 . S
C402 C401 1.524 . S
C402 C403 1.397 . S
C402 C407 1.363 . S
C403 H374 0.950 . S
C403 C402 1.397 . S
C403 C404 1.334 . S
C404 H375 0.950 . S
C404 C403 1.334 . S
C404 C405 1.287 . S
C405 C404 1.287 . S
C405 C406 1.524 . S
C405 H408 0.999 . S
C406 H376 0.950 . S
C406 C405 1.524 . S
C406 C407 1.415 . S
C407 H377 0.950 . S
C407 C402 1.363 . S
C407 C406 1.415 . S
H408 C405 0.999 . S
H409 C390 0.913 . S
H410 C428 0.951 . S
H411 C430 0.951 . S
H412 C432 0.950 . S
H413 C433 0.950 . S
H414 C435 0.950 . S
H415 C438 0.950 . S
H416 C439 0.950 . S
H417 C441 0.950 . S
H418 C442 0.950 . S
H419 C443 0.951 . S
H420 C445 0.951 . S
H421 C447 0.950 . S
H422 C448 0.950 . S
H423 C450 0.950 . S
H424 C453 0.950 . S
H425 C454 0.950 . S
H426 C456 0.953 . S
H427 C457 0.950 . S
C428 H410 0.951 . S
C428 C429 1.366 . S
C428 C430 1.388 . S
C429 C428 1.366 . S
C429 C433 1.385 . S
C430 H411 0.951 . S
C430 C428 1.388 . S
C430 C431 1.366 . S
C431 C430 1.366 . S
C431 C432 1.414 . S
C431 C434 1.499 . S
C432 H412 0.950 . S
C432 C431 1.414 . S
C432 C433 1.374 . S
C433 H413 0.950 . S
C433 C429 1.385 . S
C433 C432 1.374 . S
C434 C431 1.499 . S
C434 C435 1.373 . S
C434 C436 1.389 . S
C435 H414 0.950 . S
C435 C434 1.373 . S
C435 C451 1.377 . S
C436 C434 1.389 . S
C436 C437 1.524 . S
C436 C450 1.377 . S
C437 C436 1.524 . S
C437 C438 1.397 . S
C437 C442 1.363 . S
C438 H415 0.950 . S
C438 C437 1.397 . S
C438 C439 1.334 . S
C439 H416 0.950 . S
C439 C438 1.334 . S
C439 C440 1.287 . S
C440 C439 1.287 . S
C440 C441 1.524 . S
C440 H459 0.913 . S
C441 H417 0.950 . S
C441 C440 1.524 . S
C441 C442 1.415 . S
C442 H418 0.950 . S
C442 C437 1.363 . S
C442 C441 1.415 . S
C443 H419 0.951 . S
C443 C444 1.366 . S
C443 C445 1.388 . S
C444 C443 1.366 . S
C444 C448 1.385 . S
C445 H420 0.951 . S
C445 C443 1.388 . S
C445 C446 1.366 . S
C446 C445 1.366 . S
C446 C447 1.414 . S
C446 C449 1.499 . S
C447 H421 0.950 . S
C447 C446 1.414 . S
C447 C448 1.374 . S
C448 H422 0.950 . S
C448 C444 1.385 . S
C448 C447 1.374 . S
C449 C446 1.499 . S
C449 C450 1.373 . S
C449 C451 1.389 . S
C450 H423 0.950 . S
C450 C436 1.377 . S
C450 C449 1.373 . S
C451 C435 1.377 . S
C451 C449 1.389 . S
C451 C452 1.524 . S
C452 C451 1.524 . S
C452 C453 1.397 . S
C452 C457 1.363 . S
C453 H424 0.950 . S
C453 C452 1.397 . S
C453 C454 1.334 . S
C454 H425 0.950 . S
C454 C453 1.334 . S
C454 C455 1.287 . S
C455 C454 1.287 . S
C455 C456 1.524 . S
C455 H458 0.999 . S
C456 H426 0.953 . S
C456 C455 1.524 . S
C456 C457 1.415 . S
C457 H427 0.950 . S
C457 C452 1.363 . S
C457 C456 1.415 . S
H458 C455 0.999 . S
H459 C440 0.913 . S
H460 C478 0.951 . S
H461 C480 0.951 . S
H462 C482 0.950 . S
H463 C483 0.950 . S
H464 C485 0.950 . S
H465 C488 0.950 . S
H466 C489 0.950 . S
H467 C491 0.950 . S
H468 C492 0.950 . S
H469 C493 0.951 . S
H470 C495 0.951 . S
H471 C497 0.950 . S
H472 C498 0.950 . S
H473 C500 0.950 . S
H474 C503 0.950 . S
H475 C504 0.950 . S
H476 C506 0.950 . S
H477 C507 0.950 . S
C478 H460 0.951 . S
C478 C479 1.366 . S
C478 C480 1.388 . S
C479 C478 1.366 . S
C479 C483 1.385 . S
C480 H461 0.951 . S
C480 C478 1.388 . S
C480 C481 1.366 . S
C481 C480 1.366 . S
C481 C482 1.414 . S
C481 C484 1.499 . S
C482 H462 0.950 . S
C482 C481 1.414 . S
C482 C483 1.374 . S
C483 H463 0.950 . S
C483 C479 1.385 . S
C483 C482 1.374 . S
C484 C481 1.499 . S
C484 C485 1.373 . S
C484 C486 1.389 . S
C485 H464 0.950 . S
C485 C484 1.373 . S
C485 C501 1.377 . S
C486 C484 1.389 . S
C486 C487 1.524 . S
C486 C500 1.377 . S
C487 C486 1.524 . S
C487 C488 1.397 . S
C487 C492 1.363 . S
C488 H465 0.950 . S
C488 C487 1.397 . S
C488 C489 1.334 . S
C489 H466 0.950 . S
C489 C488 1.334 . S
C489 C490 1.287 . S
C490 C489 1.287 . S
C490 C491 1.524 . S
C490 H509 0.913 . S
C491 H467 0.950 . S
C491 C490 1.524 . S
C491 C492 1.415 . S
C492 H468 0.950 . S
C492 C487 1.363 . S
C492 C491 1.415 . S
C493 H469 0.951 . S
C493 C494 1.366 . S
C493 C495 1.388 . S
C494 C493 1.366 . S
C494 C498 1.385 . S
C495 H470 0.951 . S
C495 C493 1.388 . S
C495 C496 1.366 . S
C496 C495 1.366 . S
C496 C497 1.414 . S
C496 C499 1.499 . S
C497 H471 0.950 . S
C497 C496 1.414 . S
C497 C498 1.374 . S
C498 H472 0.950 . S
C498 C494 1.385 . S
C498 C497 1.374 . S
C499 C496 1.499 . S
C499 C500 1.373 . S
C499 C501 1.389 . S
C500 H473 0.950 . S
C500 C486 1.377 . S
C500 C499 1.373 . S
C501 C485 1.377 . S
C501 C499 1.389 . S
C501 C502 1.524 . S
C502 C501 1.524 . S
C502 C503 1.397 . S
C502 C507 1.363 . S
C503 H474 0.950 . S
C503 C502 1.397 . S
C503 C504 1.334 . S
C504 H475 0.950 . S
C504 C503 1.334 . S
C504 C505 1.287 . S
C505 C504 1.287 . S
C505 C506 1.524 . S
C505 H508 0.999 . S
C506 H476 0.950 . S
C506 C505 1.524 . S
C506 C507 1.415 . S
C507 H477 0.950 . S
C507 C502 1.363 . S
C507 C506 1.415 . S
H508 C505 0.999 . S
H509 C490 0.913 . S
C79 C19 1.392 . S
C94 C18 1.392 . S
C129 C38 1.381 1_545 S
C144 C39 1.381 . S
C179 C59 1.387 . S
C194 C58 1.387 . S
C229 C42 1.056 . S
C244 C4 1.075 . S
C279 C32 1.254 . S
C294 C2 1.206 . S
C329 C52 1.024 . S
C344 C29 1.036 . S
C379 C49 1.036 . S
C394 C12 1.029 . S
C429 C9 0.887 . S
C444 C24 0.873 . S
C479 C44 1.084 . S
C494 C22 1.060 . S
