# Generated by pormake.
# Topology unp, (4)-cn, num edge types: 1
# Building blocks:
#     Node 0, Type 0, BuildingBlock: ICAMEG_clean_sbu_1, # of connection points: 4
#     Node 1, Type 0, BuildingBlock: ICAMEG_clean_sbu_1, # of connection points: 4
#     Node 2, Type 0, BuildingBlock: ICAMEG_clean_sbu_1, # of connection points: 4
#     Node 3, Type 0, BuildingBlock: ICAMEG_clean_sbu_1, # of connection points: 4
#     Node 4, Type 0, BuildingBlock: ICAMEG_clean_sbu_1, # of connection points: 4
#     Node 5, Type 0, BuildingBlock: ICAMEG_clean_sbu_1, # of connection points: 4
#     Node 6, Type 0, BuildingBlock: ICAMEG_clean_sbu_1, # of connection points: 4
#     Node 7, Type 0, BuildingBlock: ICAMEG_clean_sbu_1, # of connection points: 4
#     Node 8, Type 0, BuildingBlock: ICAMEG_clean_sbu_1, # of connection points: 4
#     Node 9, Type 0, BuildingBlock: ICAMEG_clean_sbu_1, # of connection points: 4
#     Node 10, Type 0, BuildingBlock: ICAMEG_clean_sbu_1, # of connection points: 4
#     Node 11, Type 0, BuildingBlock: ICAMEG_clean_sbu_1, # of connection points: 4
#     Node 12, Type 0, BuildingBlock: ICAMEG_clean_sbu_1, # of connection points: 4
#     Node 13, Type 0, BuildingBlock: ICAMEG_clean_sbu_1, # of connection points: 4
#     Node 14, Type 0, BuildingBlock: ICAMEG_clean_sbu_1, # of connection points: 4
#     Node 15, Type 0, BuildingBlock: ICAMEG_clean_sbu_1, # of connection points: 4
#     Node 16, Type 0, BuildingBlock: ICAMEG_clean_sbu_1, # of connection points: 4
#     Node 17, Type 0, BuildingBlock: ICAMEG_clean_sbu_1, # of connection points: 4
#     Edge 18, Type (0, 0), BuildingBlock: ZUJKAS_clean_linker_0, # of connection points: 2
#     Edge 19, Type (0, 0), BuildingBlock: ZUJKAS_clean_linker_0, # of connection points: 2
#     Edge 20, Type (0, 0), BuildingBlock: ZUJKAS_clean_linker_0, # of connection points: 2
#     Edge 21, Type (0, 0), BuildingBlock: ZUJKAS_clean_linker_0, # of connection points: 2
#     Edge 22, Type (0, 0), BuildingBlock: ZUJKAS_clean_linker_0, # of connection points: 2
#     Edge 23, Type (0, 0), BuildingBlock: ZUJKAS_clean_linker_0, # of connection points: 2
#     Edge 24, Type (0, 0), BuildingBlock: ZUJKAS_clean_linker_0, # of connection points: 2
#     Edge 25, Type (0, 0), BuildingBlock: ZUJKAS_clean_linker_0, # of connection points: 2
#     Edge 26, Type (0, 0), BuildingBlock: ZUJKAS_clean_linker_0, # of connection points: 2
#     Edge 27, Type (0, 0), BuildingBlock: ZUJKAS_clean_linker_0, # of connection points: 2
#     Edge 28, Type (0, 0), BuildingBlock: ZUJKAS_clean_linker_0, # of connection points: 2
#     Edge 29, Type (0, 0), BuildingBlock: ZUJKAS_clean_linker_0, # of connection points: 2
#     Edge 30, Type (0, 0), BuildingBlock: ZUJKAS_clean_linker_0, # of connection points: 2
#     Edge 31, Type (0, 0), BuildingBlock: ZUJKAS_clean_linker_0, # of connection points: 2
#     Edge 32, Type (0, 0), BuildingBlock: ZUJKAS_clean_linker_0, # of connection points: 2
#     Edge 33, Type (0, 0), BuildingBlock: ZUJKAS_clean_linker_0, # of connection points: 2
#     Edge 34, Type (0, 0), BuildingBlock: ZUJKAS_clean_linker_0, # of connection points: 2
#     Edge 35, Type (0, 0), BuildingBlock: ZUJKAS_clean_linker_0, # of connection points: 2
#     Edge 36, Type (0, 0), BuildingBlock: ZUJKAS_clean_linker_0, # of connection points: 2
#     Edge 37, Type (0, 0), BuildingBlock: ZUJKAS_clean_linker_0, # of connection points: 2
#     Edge 38, Type (0, 0), BuildingBlock: ZUJKAS_clean_linker_0, # of connection points: 2
#     Edge 39, Type (0, 0), BuildingBlock: ZUJKAS_clean_linker_0, # of connection points: 2
#     Edge 40, Type (0, 0), BuildingBlock: ZUJKAS_clean_linker_0, # of connection points: 2
#     Edge 41, Type (0, 0), BuildingBlock: ZUJKAS_clean_linker_0, # of connection points: 2
#     Edge 42, Type (0, 0), BuildingBlock: ZUJKAS_clean_linker_0, # of connection points: 2
#     Edge 43, Type (0, 0), BuildingBlock: ZUJKAS_clean_linker_0, # of connection points: 2
#     Edge 44, Type (0, 0), BuildingBlock: ZUJKAS_clean_linker_0, # of connection points: 2
#     Edge 45, Type (0, 0), BuildingBlock: ZUJKAS_clean_linker_0, # of connection points: 2
#     Edge 46, Type (0, 0), BuildingBlock: ZUJKAS_clean_linker_0, # of connection points: 2
#     Edge 47, Type (0, 0), BuildingBlock: ZUJKAS_clean_linker_0, # of connection points: 2
#     Edge 48, Type (0, 0), BuildingBlock: ZUJKAS_clean_linker_0, # of connection points: 2
#     Edge 49, Type (0, 0), BuildingBlock: ZUJKAS_clean_linker_0, # of connection points: 2
#     Edge 50, Type (0, 0), BuildingBlock: ZUJKAS_clean_linker_0, # of connection points: 2
#     Edge 51, Type (0, 0), BuildingBlock: ZUJKAS_clean_linker_0, # of connection points: 2
#     Edge 52, Type (0, 0), BuildingBlock: ZUJKAS_clean_linker_0, # of connection points: 2
#     Edge 53, Type (0, 0), BuildingBlock: ZUJKAS_clean_linker_0, # of connection points: 2
# Relax obj value: 0.387
# Max RMSD: 0.171
# Mean RMSD: 0.171
data_MOF--net-unp--node1-ICAMEG_clean_sbu_1--edge1-ZUJKAS_clean_linker_0
_symmetry_space_group_name_H-M    P1
_symmetry_Int_Tables_number       1
_symmetry_cell_setting            triclinic
loop_
_symmetry_equiv_pos_as_xyz
'x, y, z'
_cell_length_a     65.749767
_cell_length_b     65.758764
_cell_length_c     81.059019
_cell_angle_alpha  89.988956
_cell_angle_beta   90.02233
_cell_angle_gamma 120.00796
loop_
_atom_site_label
_atom_site_type_symbol
_atom_site_fract_x
_atom_site_fract_y
_atom_site_fract_z
_atom_type_partial_charge
Co0 Co 0.14198 0.13737 0.10765 0.0
Co1 Co 0.16245 0.16376 0.14481 0.0
O2 O 0.16708 0.16184 0.12106 0.0
C3 C 0.1674 0.17977 0.08516 0.0
O4 O 0.1807 0.19324 0.09716 0.0
C5 C 0.2089 0.16744 0.1428 0.0
O6 O 0.19963 0.14955 0.13259 0.0
O7 O 0.15626 0.13114 0.14754 0.0
O8 O 0.13099 0.11468 0.1266 0.0
H9 H 0.12116 0.13383 0.19906 0.0
H10 H 0.19189 0.15981 0.09641 0.0
O11 O 0.15168 0.15852 0.08787 0.0
H12 H 0.16352 0.07487 0.09783 0.0
H13 H 0.10555 0.09058 0.05593 0.0
H14 H 0.09161 0.10331 0.11379 0.0
H15 H 0.13721 0.08994 0.10535 0.0
H16 H 0.13785 0.12027 0.07296 0.0
O17 O 0.19651 0.17563 0.14867 0.0
H18 H 0.12687 0.13232 0.16911 0.0
H19 H 0.18958 0.19855 0.17116 0.0
H20 H 0.05888 0.07341 0.09721 0.0
H21 H 0.21859 0.14546 0.08847 0.0
H22 H 0.06574 0.06686 0.06806 0.0
H23 H 0.20452 0.10269 0.08922 0.0
O24 O 0.12086 0.14915 0.11459 0.0
H25 H 0.20823 0.24677 0.12411 0.0
H26 H 0.13842 0.18997 0.15542 0.0
H27 H 0.14599 0.23035 0.15151 0.0
H28 H 0.18114 0.25909 0.13579 0.0
H29 H 0.19987 0.20612 0.12819 0.0
H30 H 0.18468 0.20068 0.20117 0.0
H31 H 0.15021 0.16821 0.2153 0.0
O32 O 0.12793 0.15177 0.14171 0.0
C33 C 0.14086 0.11329 0.13974 0.0
C34 C 0.1362 0.14814 0.19304 0.0
C35 C 0.17187 0.18564 0.19422 0.0
N36 N 0.15838 0.16544 0.16837 0.0
C37 C 0.13948 0.14742 0.17607 0.0
C38 C 0.17457 0.18432 0.17724 0.0
C39 C 0.15252 0.16742 0.20214 0.0
C40 C 0.18538 0.14117 0.09643 0.0
N41 N 0.16281 0.12578 0.10107 0.0
C42 C 0.2007 0.13314 0.09206 0.0
C43 C 0.19282 0.10915 0.09252 0.0
C44 C 0.16983 0.09354 0.09735 0.0
C45 C 0.15501 0.10221 0.10161 0.0
C46 C 0.10235 0.09326 0.06862 0.0
C47 C 0.0948 0.10054 0.10113 0.0
C48 C 0.12056 0.11009 0.07832 0.0
N49 N 0.11668 0.1135 0.09439 0.0
C50 C 0.07616 0.08359 0.0918 0.0
C51 C 0.08002 0.07994 0.07544 0.0
C52 C 0.11491 0.14985 0.12943 0.0
C53 C 0.19285 0.23441 0.13098 0.0
C54 C 0.15364 0.2023 0.14843 0.0
C55 C 0.15789 0.22518 0.14633 0.0
C56 C 0.17763 0.2413 0.13752 0.0
N57 N 0.16863 0.19565 0.14194 0.0
C58 C 0.18804 0.21138 0.13334 0.0
Co59 Co 0.84502 0.98634 0.1051 0.0
Co60 Co 0.8188 0.98395 0.14182 0.0
O61 O 0.82141 0.98946 0.11793 0.0
C62 C 0.80249 0.96892 0.08288 0.0
O63 O 0.78888 0.96699 0.09531 0.0
C64 C 0.81946 0.02886 0.13858 0.0
O65 O 0.83686 0.03555 0.12809 0.0
O66 O 0.85216 0.0087 0.14444 0.0
O67 O 0.86749 0.99748 0.12418 0.0
H68 H 0.84598 0.97202 0.19705 0.0
H69 H 0.82535 0.01515 0.09184 0.0
O70 O 0.82406 0.9754 0.08519 0.0
H71 H 0.91092 0.06873 0.0946 0.0
H72 H 0.89166 0.99219 0.05421 0.0
H73 H 0.87665 0.96739 0.11244 0.0
H74 H 0.89368 0.02738 0.10306 0.0
H75 H 0.86284 0.99729 0.07046 0.0
O76 O 0.80962 0.00836 0.14482 0.0
H77 H 0.84826 0.97805 0.16692 0.0
H78 H 0.78474 0.98014 0.16764 0.0
H79 H 0.90566 0.96207 0.09666 0.0
H80 H 0.8419 0.05622 0.08292 0.0
H81 H 0.91335 0.97452 0.06732 0.0
H82 H 0.88499 0.0834 0.08435 0.0
O83 O 0.83129 0.95346 0.11282 0.0
H84 H 0.73641 0.95196 0.12093 0.0
H85 H 0.78932 0.93434 0.15322 0.0
H86 H 0.74789 0.90367 0.14956 0.0
H87 H 0.72111 0.91242 0.13335 0.0
H88 H 0.77806 0.98203 0.12472 0.0
H89 H 0.78188 0.97434 0.1978 0.0
H90 H 0.81259 0.97013 0.21269 0.0
O91 O 0.82824 0.95937 0.13966 0.0
C92 C 0.86957 0.0095 0.13704 0.0
C93 C 0.83243 0.97373 0.19069 0.0
C94 C 0.79647 0.97506 0.19111 0.0
N95 N 0.81651 0.97915 0.16551 0.0
C96 C 0.83359 0.97706 0.17362 0.0
C97 C 0.7982 0.97836 0.17404 0.0
C98 C 0.81371 0.97269 0.19946 0.0
C99 C 0.84413 0.02668 0.09221 0.0
N100 N 0.85849 0.01871 0.0978 0.0
C101 C 0.8534 0.05001 0.08726 0.0
C102 C 0.87757 0.06526 0.08811 0.0
C103 C 0.89212 0.05705 0.09386 0.0
C104 C 0.88223 0.0336 0.09867 0.0
C105 C 0.88846 0.98669 0.06699 0.0
C106 C 0.87989 0.9729 0.0997 0.0
C107 C 0.8721 0.98948 0.07624 0.0
N108 N 0.86805 0.98268 0.09241 0.0
C109 C 0.89634 0.96982 0.09082 0.0
C110 C 0.90064 0.97679 0.07435 0.0
C111 C 0.82983 0.94733 0.12789 0.0
C112 C 0.74791 0.94793 0.12801 0.0
C113 C 0.77785 0.93822 0.14599 0.0
C114 C 0.75437 0.92081 0.14404 0.0
C115 C 0.73934 0.92574 0.13497 0.0
N116 N 0.78613 0.95992 0.13909 0.0
C117 C 0.77149 0.96491 0.13024 0.0
Co118 Co 0.98722 0.84658 0.10794 0.0
Co119 Co 0.99712 0.82235 0.14175 0.0
O120 O 0.98599 0.81955 0.11903 0.0
C121 C 0.0035 0.825 0.08255 0.0
O122 O 0.0163 0.82212 0.09372 0.0
C123 C 0.95083 0.77936 0.14258 0.0
O124 O 0.94259 0.7913 0.1349 0.0
O125 O 0.97434 0.83213 0.14876 0.0
O126 O 0.98216 0.85906 0.12921 0.0
H127 H 0.02371 0.86172 0.19693 0.0
H128 H 0.95402 0.79849 0.096 0.0
O129 O 0.99174 0.8349 0.0863 0.0
H130 H 0.90482 0.83321 0.10979 0.0
H131 H 0.97097 0.88755 0.0616 0.0
H132 H 0.00989 0.89759 0.1154 0.0
H133 H 0.94781 0.85626 0.11296 0.0
H134 H 0.96843 0.85345 0.07618 0.0
O135 O 0.97264 0.78895 0.14589 0.0
H136 H 0.01058 0.85817 0.16803 0.0
H137 H 0.00523 0.79126 0.16429 0.0
H138 H 0.01268 0.9321 0.10131 0.0
H139 H 0.91108 0.77493 0.09235 0.0
H140 H 0.99316 0.92722 0.0742 0.0
H141 H 0.88615 0.79223 0.09937 0.0
O142 O 0.02161 0.86466 0.11158 0.0
H143 H 0.0206 0.77047 0.11172 0.0
H144 H 0.04835 0.84053 0.14699 0.0
H145 H 0.07645 0.82849 0.13763 0.0
H146 H 0.0626 0.79319 0.11989 0.0
H147 H 0.99314 0.78331 0.12122 0.0
H148 H 0.01808 0.79396 0.19321 0.0
H149 H 0.02754 0.82945 0.2097 0.0
O150 O 0.02196 0.85615 0.13827 0.0
C151 C 0.97261 0.84907 0.14278 0.0
C152 C 0.01975 0.84622 0.18985 0.0
C153 C 0.01656 0.80817 0.18777 0.0
N154 N 0.00744 0.82468 0.16443 0.0
C155 C 0.01239 0.84415 0.17346 0.0
C156 C 0.00926 0.80673 0.17141 0.0
C157 C 0.02186 0.82809 0.19701 0.0
C158 C 0.94332 0.80624 0.09888 0.0
N159 N 0.95344 0.82872 0.10469 0.0
C160 C 0.919 0.79278 0.09687 0.0
C161 C 0.90503 0.80249 0.10083 0.0
C162 C 0.91548 0.82547 0.10667 0.0
C163 C 0.93985 0.83841 0.1085 0.0
C164 C 0.97958 0.8899 0.0734 0.0
C165 C 0.0013 0.89527 0.10363 0.0
C166 C 0.97829 0.87067 0.08169 0.0
N167 N 0.98901 0.87348 0.09664 0.0
C168 C 0.00297 0.9149 0.0957 0.0
C169 C 0.99202 0.91215 0.08048 0.0
C170 C 0.03135 0.86942 0.12574 0.0
C171 C 0.02683 0.78585 0.11948 0.0
C172 C 0.04221 0.82524 0.13919 0.0
C173 C 0.05819 0.81846 0.13398 0.0
C174 C 0.05041 0.79863 0.12404 0.0
N175 N 0.01912 0.8126 0.13466 0.0
C176 C 0.01135 0.79314 0.12494 0.0
Co177 Co 0.13018 0.15309 0.88985 0.0
Co178 Co 0.16348 0.16956 0.85471 0.0
O179 O 0.15737 0.17594 0.87722 0.0
C180 C 0.16945 0.16807 0.91409 0.0
O181 O 0.18189 0.16415 0.90321 0.0
C182 C 0.16559 0.21504 0.85228 0.0
O183 O 0.1463 0.20585 0.86113 0.0
O184 O 0.13149 0.16206 0.84765 0.0
O185 O 0.11029 0.14177 0.86963 0.0
H186 H 0.14485 0.12337 0.80202 0.0
H187 H 0.1549 0.20307 0.9002 0.0
O188 O 0.14893 0.16407 0.91056 0.0
H189 H 0.07323 0.1832 0.8892 0.0
H190 H 0.0759 0.12503 0.93893 0.0
H191 H 0.09369 0.10323 0.88486 0.0
H192 H 0.08513 0.15334 0.88604 0.0
H193 H 0.10951 0.15399 0.92247 0.0
O194 O 0.17532 0.20306 0.84873 0.0
H195 H 0.13753 0.13132 0.83049 0.0
H196 H 0.20254 0.19549 0.83079 0.0
H197 H 0.05983 0.07379 0.90085 0.0
H198 H 0.14364 0.23339 0.90377 0.0
H199 H 0.05074 0.08462 0.9281 0.0
H200 H 0.10257 0.22356 0.89817 0.0
O201 O 0.13974 0.12913 0.8865 0.0
H202 H 0.24104 0.21818 0.88315 0.0
H203 H 0.1923 0.14636 0.85077 0.0
H204 H 0.23162 0.15526 0.86009 0.0
H205 H 0.2563 0.19142 0.87638 0.0
H206 H 0.20152 0.2085 0.87368 0.0
H207 H 0.21047 0.18836 0.80225 0.0
H208 H 0.18154 0.15202 0.78771 0.0
O209 O 0.15148 0.13573 0.86008 0.0
C210 C 0.11206 0.14867 0.85477 0.0
C211 C 0.15762 0.13923 0.80824 0.0
C212 C 0.19444 0.17572 0.80837 0.0
N213 N 0.16968 0.16373 0.83233 0.0
C214 C 0.1536 0.14379 0.82438 0.0
C215 C 0.18983 0.17969 0.82451 0.0
C216 C 0.1782 0.15533 0.80022 0.0
C217 C 0.13693 0.19858 0.89793 0.0
N218 N 0.12071 0.17645 0.89292 0.0
C219 C 0.13068 0.21585 0.8999 0.0
C220 C 0.10765 0.21034 0.89673 0.0
C221 C 0.09118 0.18771 0.89168 0.0
C222 C 0.09805 0.17089 0.88986 0.0
C223 C 0.07967 0.1201 0.92706 0.0
C224 C 0.08981 0.10813 0.89667 0.0
C225 C 0.09873 0.13641 0.91771 0.0
N226 N 0.10353 0.13035 0.90268 0.0
C227 C 0.07063 0.09136 0.90568 0.0
C228 C 0.06555 0.09744 0.92098 0.0
C229 C 0.1448 0.12281 0.87295 0.0
C230 C 0.23048 0.2024 0.87602 0.0
C231 C 0.2029 0.16209 0.8579 0.0
C232 C 0.22517 0.16706 0.86311 0.0
C233 C 0.23901 0.18736 0.87224 0.0
N234 N 0.19468 0.17696 0.86163 0.0
C235 C 0.20813 0.19688 0.87058 0.0
Co236 Co 0.84737 0.99389 0.89487 0.0
Co237 Co 0.82523 0.99233 0.85663 0.0
O238 O 0.82108 0.9887 0.88062 0.0
C239 C 0.81868 0.00973 0.91479 0.0
O240 O 0.80508 0.00724 0.90221 0.0
C241 C 0.78099 0.94706 0.86016 0.0
O242 O 0.79122 0.9409 0.87143 0.0
O243 O 0.83502 0.96823 0.85632 0.0
O244 O 0.8602 0.98171 0.87749 0.0
H245 H 0.86783 0.00144 0.80326 0.0
H246 H 0.79785 0.96417 0.90648 0.0
O247 O 0.83587 0.00607 0.91322 0.0
H248 H 0.8336 0.91409 0.91122 0.0
H249 H 0.88639 0.99463 0.94858 0.0
H250 H 0.89846 0.01371 0.88929 0.0
H251 H 0.8568 0.95465 0.90097 0.0
H252 H 0.8529 0.98666 0.93066 0.0
O253 O 0.79203 0.96713 0.85333 0.0
H254 H 0.86248 0.9977 0.83344 0.0
H255 H 0.79586 0.99287 0.82875 0.0
H256 H 0.93238 0.02186 0.90675 0.0
H257 H 0.77423 0.92395 0.9171 0.0
H258 H 0.92647 0.01228 0.93664 0.0
H259 H 0.79203 0.8985 0.91948 0.0
O260 O 0.86622 0.02616 0.88592 0.0
H261 H 0.77224 0.02375 0.87237 0.0
H262 H 0.84455 0.04065 0.84278 0.0
H263 H 0.83255 0.07065 0.84363 0.0
H264 H 0.79612 0.06227 0.85848 0.0
H265 H 0.78504 0.99433 0.87135 0.0
H266 H 0.80039 0.99635 0.7985 0.0
H267 H 0.83664 0.00078 0.78558 0.0
O268 O 0.85876 0.01783 0.8591 0.0
C269 C 0.85148 0.96866 0.86484 0.0
C270 C 0.85199 -0.00041 0.80875 0.0
C271 C 0.81413 0.99671 0.80608 0.0
N272 N 0.82898 0.99528 0.83286 0.0
C273 C 0.84889 0.99753 0.82584 0.0
C274 C 0.81164 0.9947 0.82321 0.0
C275 C 0.83447 -0.0008 0.79884 0.0
C276 C 0.80597 0.95353 0.90779 0.0
N277 N 0.82889 0.96208 0.9034 0.0
C278 C 0.79239 0.93061 0.91368 0.0
C279 C 0.80236 0.91631 0.91497 0.0
C280 C 0.82568 0.92504 0.91034 0.0
C281 C 0.83872 0.94806 0.90452 0.0
C282 C 0.88919 0.99886 0.93558 0.0
C283 C 0.89569 0.00942 0.90226 0.0
C284 C 0.8703 0.99445 0.92537 0.0
N285 N 0.87368 -0.00035 0.90891 0.0
C286 C 0.915 0.0141 0.9121 0.0
C287 C 0.91167 0.00875 0.92887 0.0
C288 C 0.87142 0.03123 0.87076 0.0
C289 C 0.78816 0.02762 0.86587 0.0
C290 C 0.8288 0.03694 0.84941 0.0
C291 C 0.82203 0.05396 0.84978 0.0
C292 C 0.80157 0.04924 0.85809 0.0
N293 N 0.81557 0.0158 0.85711 0.0
C294 C 0.79547 0.01102 0.86523 0.0
Co295 Co 0.00743 0.84679 0.90026 0.0
Co296 Co 0.00036 0.8269 0.85985 0.0
O297 O 0.00562 0.8245 0.88348 0.0
C298 C 0.97852 0.79871 0.91604 0.0
O299 O 0.97964 0.78759 0.90295 0.0
C300 C 0.04585 0.82844 0.86067 0.0
O301 O 0.0521 0.8442 0.87241 0.0
O302 O 0.0242 0.86109 0.85925 0.0
O303 O 0.02723 0.87348 0.88543 0.0
H304 H 0.9853 0.86212 0.80955 0.0
H305 H 0.02324 0.81186 0.90665 0.0
O306 O 0.98778 0.82097 0.91613 0.0
H307 H 0.09042 0.88875 0.92178 0.0
H308 H 0.0151 0.87864 0.95791 0.0
H309 H 0.00407 0.89005 0.89914 0.0
H310 H 0.05366 0.88568 0.9117 0.0
H311 H 0.01378 0.85088 0.93691 0.0
O312 O 0.02546 0.81938 0.8543 0.0
H313 H 0.99197 0.85925 0.83919 0.0
H314 H 0.99788 0.79875 0.8303 0.0
H315 H 0.00557 0.91838 0.91973 0.0
H316 H 0.0594 0.81407 0.91691 0.0
H317 H 0.01111 0.91275 0.94936 0.0
H318 H 0.09345 0.85275 0.92453 0.0
O319 O 0.97837 0.84537 0.89155 0.0
H320 H 0.97078 0.74168 0.87212 0.0
H321 H 0.95076 0.79848 0.84834 0.0
H322 H 0.92096 0.75639 0.8487 0.0
H323 H 0.93092 0.72764 0.86061 0.0
H324 H -6e-05 0.78399 0.87173 0.0
H325 H 0.99146 0.80108 0.80054 0.0
H326 H 0.98502 0.83289 0.79 0.0
O327 O 0.9755 0.8347 0.86494 0.0
C328 C 0.03268 0.87709 0.87023 0.0
C329 C 0.98803 0.84814 0.814 0.0
C330 C 0.99151 0.8139 0.80894 0.0
N331 N 0.99515 0.82876 0.83648 0.0
C332 C 0.99175 0.84639 0.83077 0.0
C333 C 0.99519 0.8127 0.8258 0.0
C334 C 0.98789 0.83175 0.80303 0.0
C335 C 0.03763 0.8287 0.91021 0.0
N336 N 0.03597 0.84854 0.90883 0.0
C337 C 0.05824 0.82987 0.9159 0.0
C338 C 0.07736 0.85157 0.92013 0.0
C339 C 0.07566 0.87177 0.91858 0.0
C340 C 0.05477 0.86991 0.91284 0.0
C341 C 0.01272 0.8813 0.94504 0.0
C342 C 0.00667 0.88758 0.912 0.0
C343 C 0.01187 0.86559 0.93309 0.0
N344 N 0.00903 0.86893 0.91678 0.0
C345 C 0.00742 0.90363 0.92361 0.0
C346 C 0.0105 0.90044 0.94023 0.0
C347 C 0.9685 0.84128 0.87742 0.0
C348 C 0.96623 0.75403 0.86689 0.0
C349 C 0.95517 0.78613 0.8537 0.0
C350 C 0.93825 0.76229 0.85379 0.0
C351 C 0.94386 0.74617 0.86045 0.0
N352 N 0.97706 0.79371 0.86006 0.0
C353 C 0.98271 0.778 0.86657 0.0
Co354 Co 0.80898 0.48573 0.43736 0.0
Co355 Co 0.83317 0.5052 0.47521 0.0
O356 O 0.83628 0.50569 0.45117 0.0
C357 C 0.83868 0.53017 0.41773 0.0
O358 O 0.85183 0.54093 0.43057 0.0
C359 C 0.87564 0.50113 0.47073 0.0
O360 O 0.86368 0.48367 0.46048 0.0
O361 O 0.82171 0.47092 0.47517 0.0
O362 O 0.79551 0.46074 0.45476 0.0
H363 H 0.79218 0.47265 0.52922 0.0
H364 H 0.85759 0.5029 0.42489 0.0
O365 O 0.82118 0.50944 0.41901 0.0
H366 H 0.81741 0.41668 0.42025 0.0
H367 H 0.76684 0.44896 0.38417 0.0
H368 H 0.75779 0.45679 0.44382 0.0
H369 H 0.79635 0.43612 0.43086 0.0
H370 H 0.80149 0.47305 0.40158 0.0
O371 O 0.86604 0.51165 0.47753 0.0
H372 H 0.79621 0.47431 0.49892 0.0
H373 H 0.86454 0.53397 0.50273 0.0
H374 H 0.72273 0.43247 0.42689 0.0
H375 H 0.87914 0.4842 0.41391 0.0
H376 H 0.72712 0.4284 0.39682 0.0
H377 H 0.85909 0.44076 0.4116 0.0
O378 O 0.7921 0.50087 0.44699 0.0
H379 H 0.88888 0.5892 0.45978 0.0
H380 H 0.81647 0.53582 0.49009 0.0
H381 H 0.83045 0.57828 0.48978 0.0
H382 H 0.86694 0.60531 0.47457 0.0
H383 H 0.87411 0.54657 0.46026 0.0
H384 H 0.86134 0.53284 0.53307 0.0
H385 H 0.8249 0.50208 0.54651 0.0
O386 O 0.80005 0.49881 0.47357 0.0
C387 C 0.80443 0.45551 0.46686 0.0
C388 C 0.80811 0.48619 0.52351 0.0
C389 C 0.84693 0.51996 0.52567 0.0
N390 N 0.83048 0.50435 0.49906 0.0
C391 C 0.81047 0.48726 0.50636 0.0
C392 C 0.84866 0.52048 0.50849 0.0
C393 C 0.82649 0.5027 0.5332 0.0
C394 C 0.84854 0.48406 0.42362 0.0
N395 N 0.82557 0.47073 0.42826 0.0
C396 C 0.86092 0.47353 0.41752 0.0
C397 C 0.84969 0.44915 0.41626 0.0
C398 C 0.82631 0.43564 0.42111 0.0
C399 C 0.81448 0.44678 0.42712 0.0
C400 C 0.7647 0.45059 0.39726 0.0
C401 C 0.7599 0.45511 0.43076 0.0
C402 C 0.78426 0.46428 0.40717 0.0
N403 N 0.78171 0.46634 0.42373 0.0
C404 C 0.73995 0.44131 0.42123 0.0
C405 C 0.74242 0.43905 0.40436 0.0
C406 C 0.78744 0.50056 0.46229 0.0
C407 C 0.87294 0.5776 0.46644 0.0
C408 C 0.83222 0.54741 0.48329 0.0
C409 C 0.84012 0.57147 0.48324 0.0
C410 C 0.86061 0.58663 0.47472 0.0
N411 N 0.84437 0.53868 0.47508 0.0
C412 C 0.86452 0.55345 0.46677 0.0
Co413 Co 0.53257 0.34753 0.44724 0.0
Co414 Co 0.49793 0.33507 0.48107 0.0
O415 O 0.50591 0.34682 0.45846 0.0
C416 C 0.49478 0.3292 0.4217 0.0
O417 O 0.47988 0.31407 0.43238 0.0
C418 C 0.4984 0.37996 0.48188 0.0
O419 O 0.51849 0.38918 0.47398 0.0
O420 O 0.53008 0.35884 0.48828 0.0
O421 O 0.55025 0.35296 0.46846 0.0
H422 H 0.51204 0.30805 0.53565 0.0
H423 H 0.51524 0.37898 0.43571 0.0
O424 O 0.51613 0.34276 0.4257 0.0
H425 H 0.59862 0.43144 0.44972 0.0
H426 H 0.59031 0.36756 0.4007 0.0
H427 H 0.56334 0.3275 0.45432 0.0
H428 H 0.58065 0.38856 0.45259 0.0
H429 H 0.55759 0.36769 0.41546 0.0
O430 O 0.48745 0.35823 0.48555 0.0
H431 H 0.52126 0.32204 0.5069 0.0
H432 H 0.45826 0.32491 0.50377 0.0
H433 H 0.59616 0.32703 0.44003 0.0
H434 H 0.53264 0.42178 0.43238 0.0
H435 H 0.60989 0.34719 0.41301 0.0
H436 H 0.57458 0.44834 0.43951 0.0
O437 O 0.51799 0.31318 0.4505 0.0
H438 H 0.42231 0.30881 0.45057 0.0
H439 H 0.46653 0.28347 0.486 0.0
H440 H 0.42694 0.25421 0.47633 0.0
H441 H 0.40453 0.26685 0.45851 0.0
H442 H 0.46206 0.33746 0.4604 0.0
H443 H 0.44846 0.31117 0.53254 0.0
H444 H 0.47541 0.30253 0.54865 0.0
O445 O 0.50829 0.31143 0.47715 0.0
C446 C 0.54918 0.36173 0.48222 0.0
C447 C 0.50012 0.31168 0.52874 0.0
C448 C 0.46445 0.31346 0.527 0.0
N449 N 0.49021 0.32408 0.50364 0.0
C450 C 0.50522 0.31954 0.51245 0.0
C451 C 0.47012 0.32128 0.51074 0.0
C452 C 0.47958 0.30861 0.53603 0.0
C453 C 0.53358 0.3904 0.43865 0.0
N454 N 0.54687 0.38125 0.44437 0.0
C455 C 0.54331 0.41463 0.43681 0.0
C456 C 0.56683 0.42953 0.44084 0.0
C457 C 0.58032 0.42006 0.44657 0.0
C458 C 0.57001 0.39575 0.44823 0.0
C459 C 0.58449 0.35871 0.41246 0.0
C460 C 0.5692 0.33634 0.44259 0.0
C461 C 0.56591 0.35865 0.42085 0.0
N462 N 0.55854 0.34762 0.43576 0.0
C463 C 0.5878 0.336 0.43454 0.0
C464 C 0.59548 0.34729 0.41938 0.0
C465 C 0.51284 0.30286 0.46446 0.0
C466 C 0.43188 0.30311 0.45836 0.0
C467 C 0.45694 0.28909 0.47819 0.0
C468 C 0.4345 0.27245 0.47279 0.0
C469 C 0.42193 0.27955 0.4628 0.0
N470 N 0.46656 0.31216 0.4738 0.0
C471 C 0.45435 0.31926 0.46401 0.0
Co472 Co 0.65029 0.17171 0.43293 0.0
Co473 Co 0.66426 0.16223 0.47245 0.0
O474 O 0.65675 0.15351 0.4491 0.0
C475 C 0.68191 0.15755 0.41501 0.0
O476 O 0.68377 0.14645 0.42785 0.0
C477 C 0.62126 0.11603 0.47349 0.0
O478 O 0.61307 0.12358 0.46167 0.0
O479 O 0.63855 0.16981 0.47484 0.0
O480 O 0.63014 0.17599 0.44912 0.0
H481 H 0.68132 0.21368 0.52233 0.0
H482 H 0.63978 0.12254 0.42609 0.0
O483 O 0.67017 0.16813 0.41573 0.0
H484 H 0.56552 0.12183 0.41628 0.0
H485 H 0.63245 0.19107 0.37648 0.0
H486 H 0.64787 0.21545 0.4348 0.0
H487 H 0.60102 0.15828 0.42468 0.0
H488 H 0.6397 0.16747 0.39678 0.0
O489 O 0.64182 0.1292 0.4792 0.0
H490 H 0.67172 0.20266 0.49309 0.0
H491 H 0.67277 0.1394 0.50134 0.0
H492 H 0.64045 0.23942 0.41494 0.0
H493 H 0.60491 0.08591 0.41747 0.0
H494 H 0.63268 0.22726 0.38554 0.0
H495 H 0.56732 0.08527 0.41254 0.0
O496 O 0.6783 0.20149 0.44037 0.0
H497 H 0.69871 0.11162 0.45728 0.0
H498 H 0.71523 0.18743 0.48099 0.0
H499 H 0.74731 0.17848 0.47845 0.0
H500 H 0.73912 0.1403 0.46657 0.0
H501 H 0.66722 0.12143 0.45983 0.0
H502 H 0.68217 0.14964 0.53071 0.0
H503 H 0.6866 0.18706 0.54136 0.0
O504 O 0.68643 0.19533 0.46621 0.0
C505 C 0.62696 0.17483 0.46464 0.0
C506 C 0.67949 0.19735 0.51783 0.0
C507 C 0.67994 0.16139 0.52253 0.0
N508 N 0.67184 0.17049 0.49549 0.0
C509 C 0.67412 0.19105 0.50127 0.0
C510 C 0.67456 0.15567 0.5059 0.0
C511 C 0.68244 0.1824 0.5285 0.0
C512 C 0.62378 0.12272 0.42367 0.0
N513 N 0.62275 0.14283 0.42561 0.0
C514 C 0.60394 0.10176 0.41891 0.0
C515 C 0.58284 0.1014 0.4162 0.0
C516 C 0.58182 0.12189 0.4183 0.0
C517 C 0.60201 0.1425 0.42308 0.0
C518 C 0.63577 0.19652 0.38926 0.0
C519 C 0.64433 0.20995 0.42205 0.0
C520 C 0.63997 0.18327 0.40081 0.0
N521 N 0.64404 0.18998 0.417 0.0
C522 C 0.64022 0.22363 0.41085 0.0
C523 C 0.63589 0.21682 0.39435 0.0
C524 C 0.6902 0.20848 0.4537 0.0
C525 C 0.70249 0.12831 0.46249 0.0
C526 C 0.71157 0.17088 0.47566 0.0
C527 C 0.72978 0.16586 0.47433 0.0
C528 C 0.72517 0.14442 0.46769 0.0
N529 N 0.68937 0.15499 0.47053 0.0
C530 C 0.68471 0.13392 0.46403 0.0
Co531 Co 0.81698 0.47615 0.23059 0.0
Co532 Co 0.84021 0.50147 0.19366 0.0
O533 O 0.8386 0.50388 0.21766 0.0
C534 C 0.86004 0.50377 0.25185 0.0
O535 O 0.87262 0.51564 0.23909 0.0
C536 C 0.83668 0.54428 0.19756 0.0
O537 O 0.81881 0.5324 0.20751 0.0
O538 O 0.80618 0.49088 0.19224 0.0
O539 O 0.79384 0.46346 0.21193 0.0
H540 H 0.81172 0.46224 0.13861 0.0
H541 H 0.83347 0.5241 0.24387 0.0
O542 O 0.83875 0.48757 0.25008 0.0
H543 H 0.74704 0.4853 0.24348 0.0
H544 H 0.77437 0.43253 0.28199 0.0
H545 H 0.78813 0.42523 0.22306 0.0
H546 H 0.76697 0.46405 0.23425 0.0
H547 H 0.80068 0.46759 0.26564 0.0
O548 O 0.84748 0.53462 0.19128 0.0
H549 H 0.81087 0.46549 0.16889 0.0
H550 H 0.87174 0.5332 0.16726 0.0
H551 H 0.76161 0.38978 0.23893 0.0
H552 H 0.81423 0.54584 0.25353 0.0
H553 H 0.75455 0.39327 0.26862 0.0
H554 H 0.77069 0.52649 0.25329 0.0
O555 O 0.83277 0.45936 0.22201 0.0
H556 H 0.92302 0.55542 0.21252 0.0
H557 H 0.87131 0.48423 0.18044 0.0
H558 H 0.9135 0.49738 0.18265 0.0
H559 H 0.93969 0.53325 0.19875 0.0
H560 H 0.88064 0.54147 0.21017 0.0
H561 H 0.87314 0.53078 0.13696 0.0
H562 H 0.84304 0.49505 0.12244 0.0
O563 O 0.83298 0.46801 0.19531 0.0
C564 C 0.78992 0.47339 0.19984 0.0
C565 C 0.82499 0.47786 0.1448 0.0
C566 C 0.85944 0.51635 0.14387 0.0
N567 N 0.84136 0.49941 0.16985 0.0
C568 C 0.82463 0.47978 0.16195 0.0
C569 C 0.85853 0.51763 0.16103 0.0
C570 C 0.84255 0.49629 0.13573 0.0
C571 C 0.81454 0.51539 0.244 0.0
N572 N 0.80142 0.49273 0.23866 0.0
C573 C 0.80372 0.52786 0.24938 0.0
C574 C 0.7793 0.51701 0.24921 0.0
C575 C 0.76602 0.49391 0.24372 0.0
C576 C 0.77744 0.48197 0.23847 0.0
C577 C 0.77731 0.43078 0.26906 0.0
C578 C 0.78517 0.42696 0.23596 0.0
C579 C 0.79227 0.45057 0.25974 0.0
N580 N 0.79598 0.44851 0.24338 0.0
C581 C 0.77013 0.40679 0.24489 0.0
C582 C 0.76619 0.40876 0.26155 0.0
C583 C 0.83361 0.45499 0.20677 0.0
C584 C 0.91179 0.53975 0.20548 0.0
C585 C 0.88252 0.49971 0.18763 0.0
C586 C 0.90643 0.50715 0.18876 0.0
C587 C 0.92112 0.52729 0.19777 0.0
N588 N 0.87348 0.51198 0.19528 0.0
C589 C 0.88779 0.5318 0.20407 0.0
Co590 Co 0.50674 0.3186 0.2353 0.0
Co591 Co 0.49608 0.3306 0.19556 0.0
O592 O 0.48799 0.32423 0.2191 0.0
C593 C 0.49086 0.34883 0.25333 0.0
O594 O 0.47921 0.35009 0.2406 0.0
C595 C 0.44916 0.28871 0.19556 0.0
O596 O 0.45695 0.28025 0.20704 0.0
O597 O 0.50212 0.30388 0.19359 0.0
O598 O 0.51179 0.29873 0.2192 0.0
H599 H 0.5444 0.34241 0.14466 0.0
H600 H 0.45691 0.30631 0.24177 0.0
O601 O 0.50239 0.33805 0.25241 0.0
H602 H 0.4594 0.23401 0.25299 0.0
H603 H 0.52751 0.30262 0.29186 0.0
H604 H 0.55136 0.31789 0.23344 0.0
H605 H 0.4951 0.27005 0.24432 0.0
H606 H 0.50306 0.30854 0.27153 0.0
O607 O 0.46252 0.30903 0.18956 0.0
H608 H 0.53449 0.33448 0.17418 0.0
H609 H 0.4733 0.3397 0.16693 0.0
H610 H 0.57618 0.31176 0.25334 0.0
H611 H 0.42102 0.27091 0.25071 0.0
H612 H 0.5643 0.30407 0.28279 0.0
H613 H 0.42199 0.23428 0.25634 0.0
O614 O 0.53584 0.34718 0.22774 0.0
H615 H 0.44918 0.36917 0.21067 0.0
H616 H 0.52297 0.38118 0.18606 0.0
H617 H 0.51605 0.41464 0.18823 0.0
H618 H 0.47889 0.40872 0.20056 0.0
H619 H 0.45696 0.33627 0.20846 0.0
H620 H 0.48242 0.34749 0.13729 0.0
H621 H 0.51826 0.34899 0.126 0.0
O622 O 0.52979 0.35191 0.20104 0.0
C623 C 0.50887 0.29384 0.20387 0.0
C624 C 0.52879 0.34191 0.14945 0.0
C625 C 0.49399 0.34473 0.14531 0.0
N626 N 0.50351 0.33691 0.17231 0.0
C627 C 0.52314 0.33752 0.16616 0.0
C628 C 0.4889 0.34028 0.16209 0.0
C629 C 0.51411 0.34557 0.13898 0.0
C630 C 0.4578 0.29077 0.2445 0.0
N631 N 0.47839 0.29058 0.24276 0.0
C632 C 0.43726 0.2706 0.24943 0.0
C633 C 0.43779 0.25005 0.25254 0.0
C634 C 0.45875 0.24988 0.25065 0.0
C635 C 0.47893 0.27037 0.24569 0.0
C636 C 0.53285 0.3059 0.27906 0.0
C637 C 0.54598 0.31436 0.24621 0.0
C638 C 0.51912 0.30936 0.26749 0.0
N639 N 0.52568 0.31337 0.25127 0.0
C640 C 0.56015 0.31099 0.25743 0.0
C641 C 0.55348 0.30671 0.27396 0.0
C642 C 0.54284 0.35734 0.21379 0.0
C643 C 0.46543 0.37197 0.20526 0.0
C644 C 0.50686 0.3785 0.19159 0.0
C645 C 0.50299 0.3975 0.19271 0.0
C646 C 0.48212 0.39416 0.19961 0.0
N647 N 0.4904 0.35679 0.19717 0.0
C648 C 0.46989 0.35338 0.20392 0.0
Co649 Co 0.68059 0.19785 0.22171 0.0
Co650 Co 0.66888 0.1645 0.18714 0.0
O651 O 0.67949 0.17113 0.21013 0.0
C652 C 0.66201 0.15895 0.24674 0.0
O653 O 0.65077 0.14321 0.23524 0.0
C654 C 0.71288 0.16299 0.18698 0.0
O655 O 0.7225 0.18246 0.19564 0.0
O656 O 0.69376 0.19663 0.18081 0.0
O657 O 0.68794 0.21654 0.20083 0.0
H658 H 0.64578 0.18258 0.13236 0.0
H659 H 0.70984 0.17826 0.23382 0.0
O660 O 0.67377 0.18068 0.24315 0.0
H661 H 0.76563 0.26157 0.22179 0.0
H662 H 0.70031 0.25448 0.26896 0.0
H663 H 0.66231 0.23005 0.21448 0.0
H664 H 0.72313 0.2453 0.21773 0.0
H665 H 0.69999 0.22169 0.25398 0.0
O666 O 0.69137 0.15315 0.18282 0.0
H667 H 0.65836 0.19002 0.16147 0.0
H668 H 0.6585 0.12556 0.16364 0.0
H669 H 0.66236 0.263 0.22898 0.0
H670 H 0.7522 0.19393 0.23834 0.0
H671 H 0.68147 0.27544 0.25644 0.0
H672 H 0.78043 0.23583 0.23221 0.0
O673 O 0.64659 0.18453 0.21754 0.0
H674 H 0.63892 0.08653 0.21518 0.0
H675 H 0.61728 0.13491 0.18104 0.0
H676 H 0.5867 0.09512 0.18932 0.0
H677 H 0.59745 0.0706 0.20647 0.0
H678 H 0.66891 0.12657 0.20681 0.0
H679 H 0.64613 0.11752 0.13451 0.0
H680 H 0.63958 0.1461 0.11869 0.0
O681 O 0.64587 0.17574 0.19077 0.0
C682 C 0.69697 0.21567 0.18716 0.0
C683 C 0.6485 0.16996 0.13913 0.0
C684 C 0.64873 0.13345 0.14034 0.0
N685 N 0.65896 0.15816 0.16428 0.0
C686 C 0.65557 0.17405 0.15563 0.0
C687 C 0.65578 0.13813 0.15682 0.0
C688 C 0.64505 0.1495 0.13147 0.0
C689 C 0.72198 0.19658 0.23133 0.0
N690 N 0.71399 0.21082 0.22552 0.0
C691 C 0.74596 0.20533 0.23383 0.0
C692 C 0.7618 0.22884 0.23037 0.0
C693 C 0.75351 0.24328 0.22452 0.0
C694 C 0.72941 0.23394 0.22219 0.0
C695 C 0.69192 0.24922 0.25701 0.0
C696 C 0.67071 0.23535 0.2264 0.0
C697 C 0.6916 0.2306 0.24849 0.0
N698 N 0.68113 0.22392 0.23336 0.0
C699 C 0.67066 0.25403 0.23456 0.0
C700 C 0.68136 0.26098 0.24997 0.0
C701 C 0.63695 0.1801 0.20334 0.0
C702 C 0.63402 0.09703 0.20768 0.0
C703 C 0.62208 0.12444 0.18863 0.0
C704 C 0.6047 0.10187 0.19321 0.0
C705 C 0.61075 0.08812 0.20282 0.0
N706 N 0.64487 0.13306 0.19346 0.0
C707 C 0.65094 0.11967 0.20285 0.0
Co708 Co 0.4777 0.8154 0.77374 0.0
Co709 Co 0.49765 0.83958 0.8119 0.0
O710 O 0.50269 0.83821 0.78817 0.0
C711 C 0.50517 0.85946 0.75311 0.0
O712 O 0.51809 0.87153 0.7657 0.0
C713 C 0.54126 0.83731 0.81085 0.0
O714 O 0.53099 0.82023 0.80007 0.0
O715 O 0.48776 0.80581 0.81416 0.0
O716 O 0.46526 0.79132 0.79168 0.0
H717 H 0.4527 0.81094 0.865 0.0
H718 H 0.52804 0.83747 0.76342 0.0
O719 O 0.48887 0.8382 0.75483 0.0
H720 H 0.49763 0.75215 0.76216 0.0
H721 H 0.44344 0.77328 0.72011 0.0
H722 H 0.4269 0.78153 0.77829 0.0
H723 H 0.4718 0.76768 0.76995 0.0
H724 H 0.47503 0.80129 0.73841 0.0
O725 O 0.53063 0.84756 0.81645 0.0
H726 H 0.45926 0.80997 0.83511 0.0
H727 H 0.52611 0.87161 0.83923 0.0
H728 H 0.39484 0.7532 0.76046 0.0
H729 H 0.55427 0.82268 0.75521 0.0
H730 H 0.40301 0.74893 0.73113 0.0
H731 H 0.53917 0.77971 0.75461 0.0
O732 O 0.45662 0.82719 0.78099 0.0
H733 H 0.55189 0.92254 0.79354 0.0
H734 H 0.47797 0.86979 0.82251 0.0
H735 H 0.4903 0.91168 0.81944 0.0
H736 H 0.52754 0.9384 0.8049 0.0
H737 H 0.53874 0.88043 0.79672 0.0
H738 H 0.52037 0.87312 0.86918 0.0
H739 H 0.4834 0.84269 0.88224 0.0
O740 O 0.46431 0.83139 0.80812 0.0
C741 C 0.47282 0.78869 0.80552 0.0
C742 C 0.46885 0.82434 0.85944 0.0
C743 C 0.50684 0.85923 0.86179 0.0
N744 N 0.49295 0.84081 0.83542 0.0
C745 C 0.47264 0.82391 0.84252 0.0
C746 C 0.51001 0.85825 0.84483 0.0
C747 C 0.48609 0.84215 0.86911 0.0
C748 C 0.52109 0.81878 0.76283 0.0
N749 N 0.49821 0.80353 0.76687 0.0
C750 C 0.53614 0.81048 0.75832 0.0
C751 C 0.52768 0.78638 0.75803 0.0
C752 C 0.50439 0.77091 0.76227 0.0
C753 C 0.48985 0.77984 0.76669 0.0
C754 C 0.43965 0.77498 0.73287 0.0
C755 C 0.43063 0.77974 0.76557 0.0
C756 C 0.45746 0.79088 0.74328 0.0
N757 N 0.45284 0.79305 0.75943 0.0
C758 C 0.41239 0.76368 0.75552 0.0
C759 C 0.41698 0.76131 0.73906 0.0
C760 C 0.45136 0.82938 0.79578 0.0
C761 C 0.53562 0.91108 0.79989 0.0
C762 C 0.49406 0.88122 0.816 0.0
C763 C 0.50102 0.90497 0.81439 0.0
C764 C 0.52194 0.91996 0.80625 0.0
N765 N 0.50754 0.87263 0.80968 0.0
C766 C 0.52811 0.88723 0.80175 0.0
Co767 Co 0.19366 0.67063 0.7743 0.0
Co768 Co 0.16261 0.66503 0.80914 0.0
O769 O 0.1685 0.67274 0.78566 0.0
C770 C 0.15353 0.65143 0.75029 0.0
O771 O 0.13826 0.64251 0.76235 0.0
C772 C 0.16459 0.71068 0.80693 0.0
O773 O 0.18439 0.71848 0.7988 0.0
O774 O 0.19558 0.68919 0.81417 0.0
O775 O 0.21336 0.6795 0.79479 0.0
H776 H 0.1816 0.64754 0.86558 0.0
H777 H 0.17608 0.70068 0.7604 0.0
O778 O 0.17547 0.66223 0.75324 0.0
H779 H 0.26081 0.75378 0.76953 0.0
H780 H 0.24686 0.68118 0.72638 0.0
H781 H 0.22376 0.65031 0.78286 0.0
H782 H 0.24252 0.71161 0.77594 0.0
H783 H 0.21619 0.68507 0.74113 0.0
O784 O 0.15323 0.6894 0.81172 0.0
H785 H 0.18811 0.65625 0.83581 0.0
H786 H 0.12536 0.65957 0.83268 0.0
H787 H 0.25461 0.64622 0.7686 0.0
H788 H 0.19376 0.74269 0.75352 0.0
H789 H 0.26635 0.66169 0.74015 0.0
H790 H 0.2364 0.76958 0.75818 0.0
O791 O 0.17867 0.63705 0.7805 0.0
H792 H 0.08374 0.63576 0.78258 0.0
H793 H 0.13128 0.61465 0.8181 0.0
H794 H 0.09045 0.58472 0.81151 0.0
H795 H 0.06636 0.59523 0.79367 0.0
H796 H 0.12477 0.66505 0.78929 0.0
H797 H 0.11827 0.65111 0.86244 0.0
H798 H 0.14646 0.64492 0.87908 0.0
O799 O 0.17205 0.64036 0.80718 0.0
C800 C 0.21394 0.69072 0.80775 0.0
C801 C 0.16913 0.6501 0.85845 0.0
C802 C 0.13361 0.65213 0.85669 0.0
N803 N 0.15699 0.65812 0.83249 0.0
C804 C 0.17269 0.65494 0.84158 0.0
C805 C 0.13773 0.65694 0.83985 0.0
C806 C 0.14943 0.64866 0.86602 0.0
C807 C 0.1947 0.71221 0.76226 0.0
N808 N 0.20823 0.70366 0.76853 0.0
C809 C 0.20459 0.736 0.75842 0.0
C810 C 0.22851 0.75109 0.76105 0.0
C811 C 0.24222 0.74224 0.76743 0.0
C812 C 0.23173 0.71834 0.77109 0.0
C813 C 0.24189 0.67436 0.73878 0.0
C814 C 0.22878 0.65715 0.7705 0.0
C815 C 0.22447 0.67644 0.74718 0.0
N816 N 0.21817 0.66795 0.76287 0.0
C817 C 0.24625 0.65475 0.76248 0.0
C818 C 0.25282 0.66343 0.74651 0.0
C819 C 0.17511 0.62941 0.79529 0.0
C820 C 0.09405 0.63097 0.79039 0.0
C821 C 0.12099 0.61931 0.81021 0.0
C822 C 0.09783 0.60231 0.80658 0.0
C823 C 0.08432 0.60823 0.79659 0.0
N824 N 0.13041 0.64157 0.80406 0.0
C825 C 0.11725 0.64751 0.79428 0.0
Co826 Co 0.32778 0.52511 0.77216 0.0
Co827 Co 0.33892 0.50085 0.80559 0.0
O828 O 0.3282 0.49858 0.78277 0.0
C829 C 0.34693 0.5065 0.74654 0.0
O830 O 0.35973 0.50375 0.75777 0.0
C831 C 0.29387 0.45663 0.80475 0.0
O832 O 0.28527 0.46802 0.79678 0.0
O833 O 0.3151 0.50908 0.81291 0.0
O834 O 0.3208 0.53567 0.79353 0.0
H835 H 0.36405 0.53869 0.86135 0.0
H836 H 0.29771 0.47717 0.75866 0.0
O837 O 0.33421 0.51533 0.75036 0.0
H838 H 0.24325 0.50543 0.77318 0.0
H839 H 0.30916 0.56515 0.72644 0.0
H840 H 0.34673 0.57528 0.7808 0.0
H841 H 0.28587 0.53075 0.77729 0.0
H842 H 0.30888 0.53165 0.74033 0.0
O843 O 0.31535 0.46705 0.80907 0.0
H844 H 0.35123 0.53573 0.83241 0.0
H845 H 0.34781 0.46977 0.8276 0.0
H846 H 0.34729 0.6092 0.7674 0.0
H847 H 0.25522 0.45142 0.75404 0.0
H848 H 0.32841 0.60426 0.74001 0.0
H849 H 0.22765 0.46545 0.76143 0.0
O850 O 0.36189 0.54508 0.77644 0.0
H851 H 0.36568 0.45233 0.77455 0.0
H852 H 0.39032 0.52058 0.8112 0.0
H853 H 0.41969 0.51036 0.80163 0.0
H854 H 0.40741 0.47597 0.78321 0.0
H855 H 0.33693 0.46335 0.78426 0.0
H856 H 0.36038 0.47191 0.85654 0.0
H857 H 0.3687 0.50662 0.87359 0.0
O858 O 0.36285 0.53499 0.80271 0.0
C859 C 0.31224 0.52549 0.80722 0.0
C860 C 0.36056 0.52352 0.85403 0.0
C861 C 0.35847 0.48602 0.85134 0.0
N862 N 0.34899 0.50271 0.8283 0.0
C863 C 0.35336 0.52178 0.83762 0.0
C864 C 0.35131 0.48489 0.83497 0.0
C865 C 0.36314 0.5055 0.86089 0.0
C866 C 0.28587 0.48354 0.76169 0.0
N867 N 0.2943 0.50545 0.76824 0.0
C868 C 0.2618 0.46882 0.75913 0.0
C869 C 0.24634 0.47669 0.7633 0.0
C870 C 0.25508 0.49911 0.7699 0.0
C871 C 0.27924 0.51334 0.77226 0.0
C872 C 0.31748 0.56753 0.73836 0.0
C873 C 0.33846 0.57296 0.76889 0.0
C874 C 0.31746 0.54864 0.74625 0.0
N875 N 0.32783 0.55149 0.76135 0.0
C876 C 0.33884 0.59225 0.76135 0.0
C877 C 0.32826 0.58946 0.74599 0.0
C878 C 0.37172 0.54915 0.79056 0.0
C879 C 0.37123 0.46732 0.78261 0.0
C880 C 0.38487 0.50568 0.8031 0.0
C881 C 0.40156 0.49993 0.79777 0.0
C882 C 0.39465 0.48061 0.78745 0.0
N883 N 0.36193 0.49255 0.7983 0.0
C884 C 0.35502 0.47358 0.7882 0.0
Co885 Co 0.47416 0.81144 0.56497 0.0
Co886 Co 0.49764 0.83202 0.52697 0.0
O887 O 0.49727 0.83665 0.55084 0.0
C888 C 0.51857 0.83729 0.5854 0.0
O889 O 0.53091 0.84935 0.57261 0.0
C890 C 0.49964 0.87777 0.52948 0.0
O891 O 0.48267 0.86838 0.5404 0.0
O892 O 0.46442 0.8245 0.52558 0.0
O893 O 0.45002 0.79977 0.54697 0.0
H894 H 0.46505 0.78922 0.47354 0.0
H895 H 0.49694 0.86127 0.57631 0.0
O896 O 0.49695 0.82183 0.58389 0.0
H897 H 0.41187 0.83235 0.57764 0.0
H898 H 0.43168 0.77583 0.61825 0.0
H899 H 0.43978 0.76092 0.55967 0.0
H900 H 0.42671 0.80625 0.56906 0.0
H901 H 0.46003 0.80781 0.60037 0.0
O902 O 0.50791 0.86573 0.52314 0.0
H903 H 0.46553 0.79525 0.5036 0.0
H904 H 0.52978 0.85979 0.49949 0.0
H905 H 0.41111 0.72851 0.57709 0.0
H906 H 0.48283 0.88777 0.5853 0.0
H907 H 0.40691 0.73585 0.60661 0.0
H908 H 0.43999 0.87342 0.58594 0.0
O909 O 0.48561 0.7904 0.55711 0.0
H910 H 0.58195 0.88111 0.5444 0.0
H911 H 0.52475 0.80967 0.51477 0.0
H912 H 0.56596 0.81908 0.51687 0.0
H913 H 0.59491 0.85507 0.53175 0.0
H914 H 0.54048 0.87087 0.54216 0.0
H915 H 0.52989 0.85458 0.46936 0.0
H916 H 0.4974 0.81902 0.45621 0.0
O917 O 0.48737 0.79794 0.53005 0.0
C918 C 0.44734 0.80899 0.53394 0.0
C919 C 0.47933 0.80475 0.47913 0.0
C920 C 0.51571 0.84144 0.47679 0.0
N921 N 0.49775 0.82775 0.5033 0.0
C922 C 0.47973 0.80823 0.49615 0.0
C923 C 0.51553 0.84433 0.49384 0.0
C924 C 0.49748 0.82149 0.46941 0.0
C925 C 0.47829 0.85466 0.57687 0.0
N926 N 0.46274 0.83206 0.57239 0.0
C927 C 0.47039 0.86986 0.58184 0.0
C928 C 0.44636 0.86182 0.58216 0.0
C929 C 0.43057 0.83879 0.5775 0.0
C930 C 0.43912 0.82409 0.57263 0.0
C931 C 0.43335 0.77241 0.6054 0.0
C932 C 0.43803 0.76431 0.57249 0.0
C933 C 0.44944 0.79043 0.59522 0.0
N934 N 0.45157 0.78627 0.57896 0.0
C935 C 0.42178 0.74586 0.5823 0.0
C936 C 0.41944 0.74999 0.59886 0.0
C937 C 0.4863 0.78494 0.54211 0.0
C938 C 0.5695 0.86537 0.53791 0.0
C939 C 0.53716 0.82521 0.52143 0.0
C940 C 0.56051 0.83053 0.52249 0.0
C941 C 0.57675 0.85074 0.53082 0.0
N942 N 0.53016 0.83961 0.52846 0.0
C943 C 0.54601 0.8595 0.53657 0.0
Co944 Co 0.1792 0.65356 0.55653 0.0
Co945 Co 0.15698 0.66372 0.52183 0.0
O946 O 0.1529 0.65251 0.54458 0.0
C947 C 0.15799 0.67104 0.58134 0.0
O948 O 0.15843 0.68617 0.57057 0.0
C949 C 0.11403 0.61748 0.52037 0.0
O950 O 0.12584 0.60919 0.52818 0.0
O951 O 0.16706 0.64091 0.51549 0.0
O952 O 0.193 0.64889 0.53578 0.0
H953 H 0.19923 0.69055 0.46763 0.0
H954 H 0.13043 0.62018 0.56712 0.0
O955 O 0.16605 0.65763 0.57761 0.0
H956 H 0.16599 0.57121 0.5551 0.0
H957 H 0.21732 0.63659 0.60441 0.0
H958 H 0.23058 0.67641 0.55067 0.0
H959 H 0.1892 0.61427 0.55229 0.0
H960 H 0.18413 0.63443 0.58875 0.0
O961 O 0.12372 0.6393 0.51705 0.0
H962 H 0.19418 0.67735 0.49659 0.0
H963 H 0.12704 0.6718 0.49814 0.0
H964 H 0.26421 0.67891 0.56587 0.0
H965 H 0.10669 0.57719 0.5704 0.0
H966 H 0.2577 0.65888 0.59294 0.0
H967 H 0.12442 0.55239 0.56425 0.0
O968 O 0.19747 0.688 0.55313 0.0
H969 H 0.10431 0.68751 0.55037 0.0
H970 H 0.17533 0.71487 0.51619 0.0
H971 H 0.16307 0.74309 0.52487 0.0
H972 H 0.12729 0.72944 0.54206 0.0
H973 H 0.11732 0.65993 0.54152 0.0
H974 H 0.13123 0.68472 0.46915 0.0
H975 H 0.16759 0.69431 0.45372 0.0
O976 O 0.19061 0.68853 0.5261 0.0
C977 C 0.18368 0.6392 0.52209 0.0
C978 C 0.18335 0.68652 0.47424 0.0
C979 C 0.14517 0.68322 0.47508 0.0
N980 N 0.16048 0.6741 0.49909 0.0
C981 C 0.18044 0.67913 0.49066 0.0
C982 C 0.14288 0.67588 0.49149 0.0
C983 C 0.16558 0.6886 0.46644 0.0
C984 C 0.13835 0.60953 0.56462 0.0
N985 N 0.16116 0.61974 0.55949 0.0
C986 C 0.12479 0.58519 0.56642 0.0
C987 C 0.13475 0.57128 0.56296 0.0
C988 C 0.15806 0.58182 0.55782 0.0
C989 C 0.17109 0.60621 0.55619 0.0
C990 C 0.22038 0.64538 0.59262 0.0
C991 C 0.22756 0.6676 0.56241 0.0
C992 C 0.20166 0.64428 0.58371 0.0
N993 N 0.20537 0.65521 0.56876 0.0
C994 C 0.2467 0.6691 0.57098 0.0
C995 C 0.24303 0.65787 0.58617 0.0
C996 C 0.20298 0.69789 0.53903 0.0
C997 C 0.11989 0.69366 0.54284 0.0
C998 C 0.15979 0.70882 0.52372 0.0
C999 C 0.1529 0.72487 0.52856 0.0
C1000 C 0.13282 0.71719 0.5382 0.0
N1001 N 0.14699 0.68576 0.5283 0.0
C1002 C 0.12729 0.67811 0.53775 0.0
Co1003 Co 0.32517 0.51461 0.55998 0.0
Co1004 Co 0.3252 0.4934 0.5216 0.0
O1005 O 0.32928 0.49303 0.54556 0.0
C1006 C 0.30862 0.46988 0.57986 0.0
O1007 O 0.31163 0.45885 0.56746 0.0
C1008 C 0.37028 0.49453 0.52503 0.0
O1009 O 0.37606 0.51075 0.53637 0.0
O1010 O 0.34952 0.52711 0.52097 0.0
O1011 O 0.33793 0.53976 0.54267 0.0
H1012 H 0.31577 0.52667 0.46822 0.0
H1013 H 0.35395 0.49342 0.57119 0.0
O1014 O 0.31243 0.49078 0.57823 0.0
H1015 H 0.40604 0.57895 0.57602 0.0
H1016 H 0.32664 0.5533 0.61398 0.0
H1017 H 0.3067 0.54709 0.55486 0.0
H1018 H 0.36545 0.56267 0.56607 0.0
H1019 H 0.33318 0.52707 0.59578 0.0
O1020 O 0.35024 0.48521 0.51811 0.0
H1021 H 0.32002 0.52536 0.49838 0.0
H1022 H 0.32372 0.46295 0.49382 0.0
H1023 H 0.30004 0.57364 0.5726 0.0
H1024 H 0.39416 0.50892 0.58151 0.0
H1025 H 0.31005 0.57689 0.6024 0.0
H1026 H 0.42063 0.55202 0.58393 0.0
O1027 O 0.2929 0.50217 0.55127 0.0
H1028 H 0.29332 0.40903 0.53769 0.0
H1029 H 0.27647 0.46469 0.50838 0.0
H1030 H 0.24614 0.42281 0.5096 0.0
H1031 H 0.2545 0.39464 0.52431 0.0
H1032 H 0.32309 0.45113 0.53629 0.0
H1033 H 0.31972 0.46369 0.4636 0.0
H1034 H 0.3156 0.49566 0.45061 0.0
O1035 O 0.30007 0.50191 0.52431 0.0
C1036 C 0.35024 0.54354 0.52968 0.0
C1037 C 0.31744 0.51258 0.47373 0.0
C1038 C 0.31969 0.47725 0.47114 0.0
N1039 N 0.32181 0.49394 0.49786 0.0
C1040 C 0.31977 0.51171 0.49081 0.0
C1041 C 0.32197 0.47694 0.48825 0.0
C1042 C 0.31738 0.4952 0.46386 0.0
C1043 C 0.365 0.51211 0.57255 0.0
N1044 N 0.35699 0.527 0.56833 0.0
C1045 C 0.38793 0.52084 0.57826 0.0
C1046 C 0.4028 0.54502 0.57957 0.0
C1047 C 0.39463 0.56013 0.57512 0.0
C1048 C 0.37159 0.55077 0.56948 0.0
C1049 C 0.32224 0.55206 0.60102 0.0
C1050 C 0.3112 0.54847 0.56779 0.0
C1051 C 0.32584 0.53719 0.59065 0.0
N1052 N 0.32045 0.53563 0.57424 0.0
C1053 C 0.30735 0.56351 0.57779 0.0
C1054 C 0.31294 0.5653 0.59451 0.0
C1055 C 0.28739 0.50204 0.53618 0.0
C1056 C 0.28946 0.42113 0.53125 0.0
C1057 C 0.28018 0.45259 0.51494 0.0
C1058 C 0.26296 0.42887 0.51552 0.0
C1059 C 0.26768 0.41307 0.52376 0.0
N1060 N 0.30149 0.46037 0.52235 0.0
C1061 C 0.30626 0.44498 0.5304 0.0
H1062 H 0.4311 0.29502 0.16707 0.0
H1063 H 0.39062 0.27259 0.1573 0.0
H1064 H 0.37165 0.22897 0.20077 0.0
H1065 H 0.4124 0.25087 0.21038 0.0
H1066 H 0.35158 0.20332 0.17327 0.0
H1067 H 0.33755 0.27968 0.17541 0.0
H1068 H 0.36176 0.28469 0.16249 0.0
H1069 H 0.36304 0.28045 0.18433 0.0
C1070 C 0.41831 0.28065 0.17456 0.0
C1071 C 0.42482 0.2748 0.18956 0.0
C1072 C 0.39518 0.26792 0.16899 0.0
C1073 C 0.37805 0.24947 0.17849 0.0
C1074 C 0.38461 0.24324 0.1933 0.0
H1075 H 0.22939 0.19489 0.16963 0.0
H1076 H 0.27034 0.21314 0.17813 0.0
C1077 C 0.40785 0.25577 0.19878 0.0
C1078 C 0.35324 0.23688 0.17307 0.0
H1079 H 0.30779 0.24525 0.16244 0.0
C1080 C 0.34193 0.21243 0.17095 0.0
C1081 C 0.34065 0.2488 0.17027 0.0
C1082 C 0.35128 0.27481 0.1734 0.0
C1083 C 0.31833 0.19957 0.16602 0.0
C1084 C 0.306 0.21163 0.16269 0.0
C1085 C 0.31735 0.23606 0.16484 0.0
C1086 C 0.28098 0.19931 0.15773 0.0
C1087 C 0.30671 0.17318 0.16486 0.0
C1088 C 0.27331 0.18538 0.14343 0.0
C1089 C 0.24973 0.1746 0.13865 0.0
C1090 C 0.23364 0.17803 0.14791 0.0
C1091 C 0.24141 0.19203 0.16217 0.0
C1092 C 0.26481 0.20247 0.16706 0.0
H1093 H 0.31635 0.16634 0.17211 0.0
H1094 H 0.28829 0.16459 0.16934 0.0
H1095 H 0.30651 0.1681 0.15178 0.0
H1096 H 0.28561 0.18319 0.13582 0.0
H1097 H 0.24423 0.16405 0.12753 0.0
H1098 H 0.82357 0.06701 0.12201 0.0
H1099 H 0.80864 0.09281 0.1308 0.0
H1100 H 0.78425 0.05406 0.1764 0.0
H1101 H 0.79806 0.02774 0.16738 0.0
H1102 H 0.75125 0.05905 0.16322 0.0
H1103 H 0.83266 0.14585 0.16311 0.0
H1104 H 0.8271 0.13136 0.14351 0.0
H1105 H 0.83301 0.11869 0.16127 0.0
C1106 C 0.81517 0.06418 0.13395 0.0
C1107 C 0.81179 0.04532 0.14397 0.0
C1108 C 0.80685 0.07904 0.13903 0.0
C1109 C 0.79564 0.07559 0.15438 0.0
C1110 C 0.79284 0.05707 0.16452 0.0
H1111 H 0.75328 0.16851 0.20091 0.0
H1112 H 0.7744 0.14792 0.19319 0.0
C1113 C 0.80068 0.042 0.15933 0.0
C1114 C 0.78509 0.08992 0.15944 0.0
H1115 H 0.79645 0.14609 0.1652 0.0
C1116 C 0.76123 0.07808 0.16377 0.0
C1117 C 0.79817 0.11473 0.16039 0.0
C1118 C 0.82421 0.12839 0.15699 0.0
C1119 C 0.74998 0.0903 0.16882 0.0
C1120 C 0.7627 0.11514 0.16891 0.0
C1121 C 0.78668 0.12705 0.1649 0.0
C1122 C 0.75117 0.12889 0.17291 0.0
C1123 C 0.72465 0.07639 0.17428 0.0
C1124 C 0.73161 0.12549 0.16376 0.0
C1125 C 0.71936 0.13681 0.1683 0.0
C1126 C 0.72681 0.15222 0.18183 0.0
C1127 C 0.74714 0.15663 0.19047 0.0
C1128 C 0.7592 0.14493 0.18607 0.0
H1129 H 0.72003 0.0585 0.1785 0.0
H1130 H 0.72094 0.08536 0.18446 0.0
H1131 H 0.71305 0.07437 0.16371 0.0
H1132 H 0.72555 0.11374 0.15326 0.0
H1133 H 0.704 0.13342 0.16122 0.0
H1134 H 0.81838 0.57156 0.20814 0.0
H1135 H 0.83023 0.61172 0.19926 0.0
H1136 H 0.88298 0.61193 0.16755 0.0
H1137 H 0.87141 0.5722 0.17618 0.0
H1138 H 0.8756 0.65247 0.20178 0.0
H1139 H 0.84661 0.63245 0.13679 0.0
H1140 H 0.836 0.61022 0.1527 0.0
H1141 H 0.86396 0.61966 0.14301 0.0
C1142 C 0.83246 0.58018 0.19925 0.0
C1143 C 0.84386 0.56865 0.1928 0.0
C1144 C 0.83914 0.60305 0.19418 0.0
C1145 C 0.8571 0.6145 0.18249 0.0
C1146 C 0.86868 0.60314 0.17627 0.0
H1147 H 0.96213 0.75084 0.15988 0.0
H1148 H 0.93559 0.71155 0.17034 0.0
C1149 C 0.86213 0.58046 0.18134 0.0
C1150 C 0.86487 0.63879 0.17721 0.0
H1151 H 0.87696 0.67233 0.14256 0.0
C1152 C 0.87546 0.65685 0.18889 0.0
C1153 C 0.8643 0.6444 0.16044 0.0
C1154 C 0.85188 0.62563 0.14754 0.0
C1155 C 0.8871 0.68048 0.18403 0.0
C1156 C 0.88839 0.68601 0.16706 0.0
C1157 C 0.87623 0.668 0.15554 0.0
C1158 C 0.90409 0.71004 0.16088 0.0
C1159 C 0.89854 0.69928 0.19703 0.0
C1160 C 0.89521 0.72189 0.15159 0.0
C1161 C 0.9104 0.74438 0.14544 0.0
C1162 C 0.9347 0.75523 0.14839 0.0
C1163 C 0.94351 0.74307 0.15745 0.0
C1164 C 0.92834 0.72068 0.16358 0.0
H1165 H 0.88981 0.69302 0.2092 0.0
H1166 H 0.91718 0.70397 0.19845 0.0
H1167 H 0.89806 0.71536 0.19355 0.0
H1168 H 0.87654 0.71378 0.1492 0.0
H1169 H 0.90309 0.75328 0.13848 0.0
H1170 H 0.30001 0.43282 0.82975 0.0
H1171 H 0.27559 0.39133 0.83657 0.0
H1172 H 0.22959 0.38246 0.79581 0.0
H1173 H 0.25346 0.42443 0.7894 0.0
H1174 H 0.20489 0.35881 0.82186 0.0
H1175 H 0.27641 0.33897 0.81247 0.0
H1176 H 0.2844 0.36147 0.82769 0.0
H1177 H 0.27929 0.36675 0.80667 0.0
C1178 C 0.2847 0.42202 0.82223 0.0
C1179 C 0.27873 0.4317 0.80894 0.0
C1180 C 0.27084 0.3983 0.82608 0.0
C1181 C 0.25118 0.38367 0.8164 0.0
C1182 C 0.24483 0.39342 0.80334 0.0
H1183 H 0.1913 0.23286 0.82444 0.0
H1184 H 0.20951 0.27317 0.81435 0.0
C1185 C 0.25845 0.41733 0.79968 0.0
C1186 C 0.23729 0.35824 0.82003 0.0
H1187 H 0.24275 0.31015 0.82723 0.0
C1188 C 0.21307 0.34805 0.82285 0.0
C1189 C 0.2479 0.34413 0.82096 0.0
C1190 C 0.27337 0.35335 0.8166 0.0
C1191 C 0.19929 0.32426 0.82709 0.0
C1192 C 0.21025 0.31057 0.82914 0.0
C1193 C 0.23435 0.32067 0.82587 0.0
C1194 C 0.19728 0.28575 0.83461 0.0
C1195 C 0.17314 0.31404 0.82905 0.0
C1196 C 0.18417 0.27932 0.8493 0.0
C1197 C 0.17325 0.25612 0.85487 0.0
C1198 C 0.17596 0.23921 0.84611 0.0
C1199 C 0.1891 0.24564 0.83147 0.0
C1200 C 0.19947 0.26865 0.8257 0.0
H1201 H 0.16676 0.32403 0.82172 0.0
H1202 H 0.16329 0.29536 0.82515 0.0
H1203 H 0.1691 0.31514 0.8422 0.0
H1204 H 0.18284 0.29232 0.85668 0.0
H1205 H 0.16338 0.25157 0.86629 0.0
H1206 H 0.75982 0.94833 0.83182 0.0
H1207 H 0.71837 0.92506 0.82471 0.0
H1208 H 0.70469 0.88697 0.8705 0.0
H1209 H 0.74662 0.91004 0.87763 0.0
H1210 H 0.67937 0.85859 0.84277 0.0
H1211 H 0.67097 0.93807 0.84838 0.0
H1212 H 0.69373 0.94191 0.83435 0.0
H1213 H 0.69623 0.93698 0.85591 0.0
C1214 C 0.74806 0.9349 0.84036 0.0
C1215 C 0.75635 0.93122 0.85541 0.0
C1216 C 0.72439 0.92164 0.83627 0.0
C1217 C 0.70847 0.90472 0.84725 0.0
C1218 C 0.71678 0.90011 0.86193 0.0
H1219 H 0.56095 0.86031 0.8394 0.0
H1220 H 0.60052 0.87361 0.84951 0.0
C1221 C 0.74065 0.91327 0.86598 0.0
C1222 C 0.68306 0.893 0.84366 0.0
H1223 H 0.63933 0.90495 0.83531 0.0
C1224 C 0.67046 0.8686 0.84129 0.0
C1225 C 0.6715 0.90613 0.84201 0.0
C1226 C 0.68373 0.93218 0.84546 0.0
C1227 C 0.64663 0.85705 0.83677 0.0
C1228 C 0.63543 0.87042 0.83425 0.0
C1229 C 0.64797 0.89473 0.83708 0.0
C1230 C 0.61069 0.85985 0.8288 0.0
C1231 C 0.63368 0.8307 0.8349 0.0
C1232 C 0.60313 0.84748 0.81384 0.0
C1233 C 0.58031 0.83957 0.8081 0.0
C1234 C 0.56495 0.84441 0.81707 0.0
C1235 C 0.57248 0.85654 0.83212 0.0
C1236 C 0.59507 0.86407 0.83795 0.0
H1237 H 0.64233 0.82265 0.84199 0.0
H1238 H 0.61519 0.82282 0.83911 0.0
H1239 H 0.63361 0.82619 0.82171 0.0
H1240 H 0.61507 0.84456 0.80636 0.0
H1241 H 0.57495 0.83035 0.79642 0.0
H1242 H 0.18559 0.75808 0.80122 0.0
H1243 H 0.17189 0.78473 0.81045 0.0
H1244 H 0.11055 0.72625 0.83202 0.0
H1245 H 0.12405 0.69965 0.82307 0.0
H1246 H 0.12973 0.78403 0.80334 0.0
H1247 H 0.13818 0.77318 0.87023 0.0
H1248 H 0.15213 0.76447 0.85479 0.0
H1249 H 0.12165 0.74552 0.85985 0.0
C1250 C 0.16918 0.75092 0.80792 0.0
C1251 C 0.15601 0.72679 0.81154 0.0
C1252 C 0.16143 0.76616 0.8132 0.0
C1253 C 0.14052 0.75748 0.82223 0.0
C1254 C 0.12706 0.73335 0.82543 0.0
H1255 H 0.03793 0.79585 0.83703 0.0
H1256 H 0.06475 0.78301 0.82739 0.0
C1257 C 0.13474 0.71816 0.8202 0.0
C1258 C 0.13215 0.77331 0.82803 0.0
H1259 H 0.11225 0.78757 0.86249 0.0
C1260 C 0.12629 0.78519 0.81629 0.0
C1261 C 0.12816 0.77518 0.84496 0.0
C1262 C 0.1356 0.7641 0.8582 0.0
C1263 C 0.115 0.79761 0.82097 0.0
C1264 C 0.10913 0.7977 0.83775 0.0
C1265 C 0.11648 0.7872 0.8496 0.0
C1266 C 0.09358 0.80669 0.8431 0.0
C1267 C 0.10904 0.81007 0.80785 0.0
C1268 C 0.10067 0.8238 0.8555 0.0
C1269 C 0.08522 0.83103 0.86122 0.0
C1270 C 0.06241 0.82112 0.85467 0.0
C1271 C 0.05542 0.80395 0.84227 0.0
C1272 C 0.07081 0.79674 0.83661 0.0
H1273 H 0.12137 0.8152 0.79726 0.0
H1274 H 0.09109 0.79805 0.80313 0.0
H1275 H 0.10953 0.82604 0.81284 0.0
H1276 H 0.1181 0.83146 0.8608 0.0
H1277 H 0.0911 0.84424 0.87081 0.0
H1278 H 0.90458 0.537 0.49097 0.0
H1279 H 0.94512 0.54984 0.49813 0.0
H1280 H 0.94351 0.49555 0.46736 0.0
H1281 H 0.90257 0.48253 0.45988 0.0
H1282 H 0.96313 0.52305 0.51327 0.0
H1283 H 0.00166 0.5574 0.45124 0.0
H1284 H 0.97254 0.55126 0.45676 0.0
H1285 H 0.97786 0.52755 0.45254 0.0
C1286 C 0.91274 0.52771 0.48566 0.0
C1287 C 0.90033 0.50874 0.47481 0.0
C1288 C 0.93592 0.53507 0.48983 0.0
C1289 C 0.94727 0.52369 0.48323 0.0
C1290 C 0.93505 0.50467 0.47244 0.0
H1291 H 0.08853 0.5696 0.5235 0.0
H1292 H 0.04838 0.54328 0.51386 0.0
C1293 C 0.9117 0.49725 0.46822 0.0
C1294 C 0.97202 0.53231 0.48776 0.0
H1295 H 0.0279 0.56469 0.47306 0.0
C1296 C 0.97736 0.5318 0.50447 0.0
C1297 C 0.99039 0.5438 0.4762 0.0
C1298 C 0.9855 0.54525 0.45818 0.0
C1299 C 0.00065 0.54351 0.51008 0.0
C1300 C 0.019 0.5557 0.4986 0.0
C1301 C 0.01371 0.55525 0.48178 0.0
C1302 C 0.04351 0.57113 0.50401 0.0
C1303 C 0.00534 0.54395 0.52835 0.0
C1304 C 0.05411 0.59541 0.5014 0.0
C1305 C 0.07697 0.61044 0.50681 0.0
C1306 C 0.0897 0.60145 0.5149 0.0
C1307 C 0.07911 0.57707 0.5174 0.0
C1308 C 0.05619 0.56201 0.51193 0.0
H1309 H 0.98901 0.53704 0.53578 0.0
H1310 H 0.0134 0.53295 0.53091 0.0
H1311 H 0.01783 0.56212 0.5325 0.0
H1312 H 0.04455 0.60276 0.49534 0.0
H1313 H 0.08461 0.62911 0.50465 0.0
H1314 H 0.40572 0.49537 0.54319 0.0
H1315 H 0.43098 0.47949 0.53513 0.0
H1316 H 0.3981 0.46187 0.48713 0.0
H1317 H 0.37221 0.47662 0.49539 0.0
H1318 H 0.39855 0.42598 0.49971 0.0
H1319 H 0.48774 0.50312 0.50633 0.0
H1320 H 0.47096 0.49678 0.52497 0.0
H1321 H 0.46161 0.50557 0.50677 0.0
C1322 C 0.40415 0.48834 0.53087 0.0
C1323 C 0.38696 0.48702 0.51994 0.0
C1324 C 0.4187 0.47948 0.52622 0.0
C1325 C 0.41665 0.46978 0.51044 0.0
C1326 C 0.4 0.46926 0.49937 0.0
H1327 H 0.50831 0.42232 0.46888 0.0
H1328 H 0.4891 0.44506 0.47561 0.0
C1329 C 0.38518 0.47763 0.50411 0.0
C1330 C 0.43017 0.45815 0.50589 0.0
H1331 H 0.48537 0.46565 0.50376 0.0
C1332 C 0.41756 0.43477 0.50046 0.0
C1333 C 0.45498 0.46969 0.50667 0.0
C1334 C 0.46963 0.49525 0.51133 0.0
C1335 C 0.42898 0.42248 0.496 0.0
C1336 C 0.45366 0.43357 0.49765 0.0
C1337 C 0.4664 0.45711 0.50274 0.0
C1338 C 0.46639 0.4208 0.4943 0.0
C1339 C 0.41445 0.39784 0.48934 0.0
C1340 C 0.46038 0.40004 0.50288 0.0
C1341 C 0.47097 0.38689 0.4989 0.0
C1342 C 0.48817 0.39458 0.4865 0.0
C1343 C 0.49503 0.41597 0.47845 0.0
C1344 C 0.48413 0.42897 0.48229 0.0
H1345 H 0.39761 0.39489 0.48402 0.0
H1346 H 0.4241 0.39411 0.47967 0.0
H1347 H 0.41016 0.38508 0.49955 0.0
H1348 H 0.44723 0.3938 0.51253 0.0
H1349 H 0.46564 0.37067 0.50551 0.0
H1350 H 0.62758 0.09904 0.50249 0.0
H1351 H 0.6045 0.0592 0.5133 0.0
H1352 H 0.55955 0.03913 0.47048 0.0
H1353 H 0.58217 0.07927 0.45978 0.0
H1354 H 0.53471 0.0206 0.499 0.0
H1355 H 0.60996 0.00483 0.49541 0.0
H1356 H 0.61589 0.02975 0.50786 0.0
H1357 H 0.61064 0.03006 0.4861 0.0
C1358 C 0.61276 0.08616 0.49537 0.0
C1359 C 0.6068 0.09216 0.4802 0.0
C1360 C 0.59964 0.0634 0.50155 0.0
C1361 C 0.58065 0.04612 0.49252 0.0
C1362 C 0.57423 0.05222 0.47759 0.0
H1363 H 0.52445 0.89783 0.50162 0.0
H1364 H 0.54216 0.93866 0.49305 0.0
C1365 C 0.58718 0.0751 0.47149 0.0
C1366 C 0.56792 0.02156 0.49841 0.0
H1367 H 0.57575 0.9757 0.50881 0.0
C1368 C 0.54362 0.01071 0.50112 0.0
C1369 C 0.5796 0.00868 0.50098 0.0
C1370 C 0.60541 0.01882 0.49729 0.0
C1371 C 0.53064 0.98725 0.50637 0.0
C1372 C 0.54246 0.97459 0.50932 0.0
C1373 C 0.56677 0.98552 0.50667 0.0
C1374 C 0.52997 0.94957 0.51425 0.0
C1375 C 0.50437 0.97607 0.50823 0.0
C1376 C 0.51702 0.94207 0.52897 0.0
C1377 C 0.50657 0.91853 0.53384 0.0
C1378 C 0.50935 0.90234 0.52418 0.0
C1379 C 0.52216 0.90992 0.5094 0.0
C1380 C 0.53227 0.93325 0.50447 0.0
H1381 H 0.49744 0.98606 0.50151 0.0
H1382 H 0.49527 0.95771 0.50361 0.0
H1383 H 0.50001 0.97575 0.52149 0.0
H1384 H 0.51546 0.95448 0.53689 0.0
H1385 H 0.49691 0.91316 0.54534 0.0
H1386 H 0.09088 0.1348 0.15846 0.0
H1387 H 0.04854 0.11593 0.16221 0.0
H1388 H 0.04077 0.13239 0.1119 0.0
H1389 H 0.08316 0.15037 0.10777 0.0
H1390 H 0.01335 0.12534 0.15974 0.0
H1391 H 0.00464 0.06186 0.11125 0.0
H1392 H 0.03271 0.08361 0.11936 0.0
H1393 H 0.01817 0.09156 0.10397 0.0
C1394 C 0.08028 0.13482 0.14825 0.0
C1395 C 0.09034 0.14361 0.13269 0.0
C1396 C 0.05602 0.12404 0.15044 0.0
C1397 C 0.04145 0.12212 0.13719 0.0
C1398 C 0.05166 0.13303 0.12214 0.0
H1399 H 0.88864 0.05612 0.14274 0.0
H1400 H 0.93065 0.08485 0.14465 0.0
C1401 C 0.0759 0.14343 0.11983 0.0
C1402 C 0.01569 0.10663 0.13869 0.0
H1403 H 0.96957 0.05742 0.12231 0.0
C1404 C 0.00371 0.11047 0.15157 0.0
C1405 C 0.00328 0.08691 0.12825 0.0
C1406 C 0.01536 0.08055 0.11505 0.0
C1407 C 0.97962 0.09511 0.15429 0.0
C1408 C 0.96712 0.07582 0.14353 0.0
C1409 C 0.97913 0.07218 0.13058 0.0
C1410 C 0.94165 0.0588 0.14532 0.0
C1411 C 0.96807 0.09932 0.16895 0.0
C1412 C 0.93377 0.03461 0.1452 0.0
C1413 C 0.90993 0.01832 0.14363 0.0
C1414 C 0.89349 0.02591 0.14261 0.0
C1415 C 0.90107 0.04993 0.14391 0.0
C1416 C 0.92506 0.06633 0.14503 0.0
H1417 H 0.98112 0.10978 0.17863 0.0
H1418 H 0.95954 0.10938 0.1649 0.0
H1419 H 0.95446 0.08253 0.17447 0.0
H1420 H 0.94621 0.02836 0.14543 0.0
H1421 H 0.90439 -0.00016 0.14247 0.0
H1422 H 0.84003 0.93702 0.15836 0.0
H1423 H 0.85925 0.91445 0.16425 0.0
H1424 H 0.85058 0.8919 0.11349 0.0
H1425 H 0.83236 0.91558 0.10722 0.0
H1426 H 0.85274 0.87109 0.16237 0.0
H1427 H 0.92077 0.92909 0.11736 0.0
H1428 H 0.89716 0.93378 0.1236 0.0
H1429 H 0.89226 0.91195 0.10828 0.0
C1430 C 0.84178 0.92696 0.14845 0.0
C1431 C 0.83528 0.92869 0.13218 0.0
C1432 C 0.85274 0.91396 0.15189 0.0
C1433 C 0.85708 0.90217 0.13919 0.0
C1434 C 0.84811 0.90157 0.12335 0.0
H1435 H 0.92669 0.82026 0.14959 0.0
H1436 H 0.89723 0.83241 0.15144 0.0
C1437 C 0.83753 0.91496 0.11981 0.0
C1438 C 0.8733 0.89303 0.14217 0.0
H1439 H 0.92547 0.89919 0.12945 0.0
C1440 C 0.86867 0.8772 0.1552 0.0
C1441 C 0.89441 0.90156 0.1331 0.0
C1442 C 0.90162 0.92021 0.11993 0.0
C1443 C 0.88454 0.86957 0.15934 0.0
C1444 C 0.90522 0.87746 0.14986 0.0
C1445 C 0.90969 0.89319 0.1368 0.0
C1446 C 0.92254 0.86963 0.15281 0.0
C1447 C 0.87927 0.85369 0.17408 0.0
C1448 C 0.94661 0.88639 0.15339 0.0
C1449 C 0.96339 0.87946 0.15179 0.0
C1450 C 0.95638 0.85564 0.15013 0.0
C1451 C 0.93247 0.8387 0.15129 0.0
C1452 C 0.91561 0.84567 0.15234 0.0
H1453 H 0.86776 0.85591 0.18306 0.0
H1454 H 0.86986 0.83514 0.1699 0.0
H1455 H 0.89561 0.85712 0.1805 0.0
H1456 H 0.95241 0.90497 0.1538 0.0
H1457 H 0.98175 0.89279 0.15069 0.0
H1458 H 0.0985 0.07936 0.15051 0.0
H1459 H 0.08524 0.03738 0.15228 0.0
H1460 H 0.15522 0.05191 0.14018 0.0
H1461 H 0.16868 0.09399 0.1395 0.0
H1462 H 0.08391 0.01414 0.12657 0.0
H1463 H 0.138 0.00066 0.17279 0.0
H1464 H 0.13714 0.02762 0.17152 0.0
H1465 H 0.15569 0.0225 0.15784 0.0
C1466 C 0.1112 0.07355 0.14905 0.0
C1467 C 0.13461 0.08968 0.14521 0.0
C1468 C 0.10363 0.04962 0.1499 0.0
C1469 C 0.11923 0.04139 0.14644 0.0
C1470 C 0.14297 0.05774 0.14337 0.0
H1471 H 0.05906 0.90221 0.1027 0.0
H1472 H 0.08482 0.94426 0.10746 0.0
C1473 C 0.15067 0.08178 0.14297 0.0
C1474 C 0.10986 0.0159 0.14367 0.0
H1475 H 0.11678 0.96922 0.15361 0.0
C1476 C 0.09103 0.00433 0.13261 0.0
C1477 C 0.11912 0.00304 0.15151 0.0
C1478 C 0.13844 0.01405 0.1642 0.0
C1479 C 0.08101 0.98032 0.12931 0.0
C1480 C 0.09079 0.96762 0.13666 0.0
C1481 C 0.10965 0.97911 0.14772 0.0
C1482 C 0.08024 0.94199 0.13398 0.0
C1483 C 0.05942 0.96868 0.11847 0.0
C1484 C 0.07087 0.92658 0.1474 0.0
C1485 C 0.05664 0.90249 0.14475 0.0
C1486 C 0.05126 0.89344 0.1286 0.0
C1487 C 0.06253 0.90866 0.11527 0.0
C1488 C 0.07712 0.93272 0.11796 0.0
H1489 H 0.05073 0.97941 0.11746 0.0
H1490 H 0.06455 0.96643 0.10586 0.0
H1491 H 0.04642 0.95112 0.12334 0.0
H1492 H 0.07326 0.93331 0.15987 0.0
H1493 H 0.04849 0.89129 0.15534 0.0
H1494 H 0.06974 0.90898 0.88808 0.0
H1495 H 0.0935 0.95097 0.88305 0.0
H1496 H 0.0582 0.94263 0.83657 0.0
H1497 H 0.03394 0.90014 0.84168 0.0
H1498 H 0.12343 0.97989 0.85663 0.0
H1499 H 0.04218 0.98534 0.86551 0.0
H1500 H 0.04347 0.95937 0.87082 0.0
H1501 H 0.04182 0.96611 0.84958 0.0
C1502 C 0.06718 0.91598 0.8767 0.0
C1503 C 0.04968 0.90142 0.86543 0.0
C1504 C 0.08093 0.93997 0.87377 0.0
C1505 C 0.07736 0.9499 0.85957 0.0
C1506 C 0.06102 0.93523 0.84769 0.0
H1507 H 0.15363 0.10277 0.84632 0.0
H1508 H 0.13932 0.06108 0.84175 0.0
C1509 C 0.04728 0.91103 0.85057 0.0
C1510 C 0.0889 0.97575 0.8585 0.0
H1511 H 0.0779 0.02073 0.86434 0.0
C1512 C 0.11353 0.98893 0.858 0.0
C1513 C 0.07584 0.98732 0.86059 0.0
C1514 C 0.04937 0.97393 0.86177 0.0
C1515 C 0.1255 0.01343 0.86001 0.0
C1516 C 0.11242 0.02487 0.86253 0.0
C1517 C 0.08781 0.01178 0.86247 0.0
C1518 C 0.12373 0.0503 0.86595 0.0
C1519 C 0.15199 0.02679 0.86018 0.0
C1520 C 0.12 0.05803 0.88118 0.0
C1521 C 0.12811 0.08185 0.88387 0.0
C1522 C 0.1399 0.09833 0.87128 0.0
C1523 C 0.14458 0.09058 0.8563 0.0
C1524 C 0.13649 0.06676 0.85364 0.0
H1525 H 0.15941 0.01489 0.86085 0.0
H1526 H 0.15852 0.03737 0.84872 0.0
H1527 H 0.15863 0.03907 0.87081 0.0
H1528 H 0.11015 0.04552 0.89082 0.0
H1529 H 0.1242 0.08714 0.89555 0.0
H1530 H 0.08241 0.10685 0.84084 0.0
H1531 H 0.04018 0.09114 0.83719 0.0
H1532 H 0.04908 0.15904 0.84934 0.0
H1533 H 0.09137 0.1749 0.85206 0.0
H1534 H 0.0169 0.08896 0.86379 0.0
H1535 H 0.99657 0.13704 0.81666 0.0
H1536 H 0.02463 0.13832 0.81759 0.0
H1537 H 0.01855 0.15654 0.83092 0.0
C1538 C 0.07543 0.11866 0.84168 0.0
C1539 C 0.08994 0.14207 0.84642 0.0
C1540 C 0.05133 0.10968 0.83979 0.0
C1541 C 0.04141 0.12389 0.84299 0.0
C1542 C 0.05628 0.14785 0.8464 0.0
H1543 H 0.90586 0.06256 0.89159 0.0
H1544 H 0.94711 0.08887 0.8846 0.0
C1545 C 0.08047 0.15692 0.84795 0.0
C1546 C 0.01581 0.11281 0.84603 0.0
H1547 H 0.96666 0.11588 0.83705 0.0
C1548 C 0.0059 0.0947 0.85777 0.0
C1549 C 0.00146 0.12038 0.83828 0.0
C1550 C 0.01081 0.13898 0.82504 0.0
C1551 C 0.98212 0.08394 0.862 0.0
C1552 C 0.96794 0.09209 0.85473 0.0
C1553 C 0.97771 0.11004 0.84286 0.0
C1554 C 0.94256 0.08079 0.85851 0.0
C1555 C 0.97233 0.06351 0.8739 0.0
C1556 C 0.92613 0.06904 0.84597 0.0
C1557 C 0.90251 0.05432 0.84987 0.0
C1558 C 0.89496 0.05093 0.86641 0.0
C1559 C 0.91112 0.06447 0.87876 0.0
C1560 C 0.93473 0.07941 0.87481 0.0
H1561 H 0.98395 0.0558 0.875 0.0
H1562 H 0.97077 0.06968 0.88633 0.0
H1563 H 0.95464 0.04945 0.86999 0.0
H1564 H 0.93177 0.07005 0.83329 0.0
H1565 H 0.89051 0.0445 0.83998 0.0
H1566 H 0.95145 0.86109 0.8992 0.0
H1567 H 0.92458 0.87559 0.89309 0.0
H1568 H 0.91553 0.84852 0.84355 0.0
H1569 H 0.94244 0.83406 0.84942 0.0
H1570 H 0.92992 0.89577 0.8448 0.0
H1571 H 0.85357 0.84544 0.88594 0.0
H1572 H 0.88115 0.85753 0.89659 0.0
H1573 H 0.87408 0.83566 0.88088 0.0
C1574 C 0.94333 0.85769 0.88712 0.0
C1575 C 0.94928 0.84653 0.87479 0.0
C1576 C 0.92786 0.8659 0.88368 0.0
C1577 C 0.91792 0.86295 0.86791 0.0
C1578 C 0.92294 0.85087 0.85582 0.0
H1579 H 0.82847 0.92564 0.84978 0.0
H1580 H 0.8426 0.8975 0.84703 0.0
C1581 C 0.93837 0.84263 0.85923 0.0
C1582 C 0.90473 0.87497 0.86351 0.0
H1583 H 0.85936 0.88253 0.87591 0.0
C1584 C 0.9142 0.89254 0.85136 0.0
C1585 C 0.8841 0.87057 0.87193 0.0
C1586 C 0.87247 0.8511 0.88445 0.0
C1587 C 0.90446 0.90686 0.8482 0.0
C1588 C 0.88489 0.90358 0.85749 0.0
C1589 C 0.87446 0.88504 0.86886 0.0
C1590 C 0.87698 0.921 0.85718 0.0
C1591 C 0.91569 0.92595 0.83538 0.0
C1592 C 0.89176 0.94347 0.86361 0.0
C1593 C 0.88376 0.95936 0.8653 0.0
C1594 C 0.86082 0.95313 0.86051 0.0
C1595 C 0.84632 0.93096 0.85339 0.0
C1596 C 0.85428 0.91487 0.8519 0.0
H1597 H 0.92597 0.9221 0.8263 0.0
H1598 H 0.90222 0.92825 0.82869 0.0
H1599 H 0.92786 0.9428 0.84156 0.0
H1600 H 0.90922 0.94839 0.86795 0.0
H1601 H 0.89531 0.97631 0.87084 0.0
H1602 H 0.76818 0.49164 0.49314 0.0
H1603 H 0.72683 0.47474 0.49979 0.0
H1604 H 0.71232 0.48524 0.44959 0.0
H1605 H 0.7537 0.50114 0.44252 0.0
H1606 H 0.69101 0.48341 0.49878 0.0
H1607 H 0.67729 0.4148 0.45294 0.0
H1608 H 0.70613 0.43762 0.45896 0.0
H1609 H 0.68925 0.44364 0.4443 0.0
C1610 C 0.75636 0.4908 0.48351 0.0
C1611 C 0.76415 0.49698 0.46713 0.0
C1612 C 0.73266 0.48122 0.4874 0.0
C1613 C 0.71639 0.47797 0.47506 0.0
C1614 C 0.72453 0.48689 0.45918 0.0
H1615 H 0.56491 0.40747 0.4888 0.0
H1616 H 0.60633 0.43785 0.48982 0.0
C1617 C 0.74822 0.49612 0.45518 0.0
C1618 C 0.691 0.46244 0.47836 0.0
H1619 H 0.64396 0.41028 0.46669 0.0
C1620 C 0.68064 0.46743 0.49176 0.0
C1621 C 0.67769 0.44132 0.46942 0.0
C1622 C 0.68816 0.43385 0.45572 0.0
C1623 C 0.65734 0.45177 0.49652 0.0
C1624 C 0.64398 0.43089 0.48737 0.0
C1625 C 0.65427 0.4262 0.47381 0.0
C1626 C 0.61924 0.41337 0.4913 0.0
C1627 C 0.64757 0.45738 0.51157 0.0
C1628 C 0.61261 0.38951 0.4924 0.0
C1629 C 0.58903 0.3722 0.49137 0.0
C1630 C 0.57169 0.3785 0.4897 0.0
C1631 C 0.57802 0.40227 0.49051 0.0
C1632 C 0.60173 0.41965 0.49106 0.0
H1633 H 0.66179 0.46969 0.51995 0.0
H1634 H 0.63748 0.46593 0.50763 0.0
H1635 H 0.6356 0.44122 0.51855 0.0
H1636 H 0.62582 0.38424 0.49265 0.0
H1637 H 0.58448 0.35395 0.49051 0.0
H1638 H 0.50529 0.27689 0.49258 0.0
H1639 H 0.51908 0.24926 0.49822 0.0
H1640 H 0.54264 0.25546 0.44791 0.0
H1641 H 0.52895 0.28304 0.44204 0.0
H1642 H 0.51172 0.20445 0.4794 0.0
H1643 H 0.6021 0.28162 0.48113 0.0
H1644 H 0.57618 0.28411 0.48408 0.0
H1645 H 0.58444 0.28021 0.46373 0.0
C1646 C 0.51294 0.27202 0.48258 0.0
C1647 C 0.51639 0.28254 0.46691 0.0
C1648 C 0.52076 0.25621 0.48586 0.0
C1649 C 0.53212 0.25069 0.47354 0.0
C1650 C 0.53404 0.25974 0.45759 0.0
H1651 H 0.58648 0.16551 0.44952 0.0
H1652 H 0.56089 0.18098 0.45656 0.0
C1653 C 0.52616 0.27546 0.45426 0.0
C1654 C 0.54407 0.23741 0.47758 0.0
H1655 H 0.59877 0.24399 0.4799 0.0
C1656 C 0.53073 0.21304 0.47977 0.0
C1657 C 0.56882 0.24884 0.47846 0.0
C1658 C 0.58381 0.27517 0.47687 0.0
C1659 C 0.5417 0.19954 0.48171 0.0
C1660 C 0.56652 0.2108 0.48127 0.0
C1661 C 0.57975 0.23536 0.48024 0.0
C1662 C 0.57908 0.19756 0.47922 0.0
C1663 C 0.52666 0.17331 0.48373 0.0
C1664 C 0.59773 0.2015 0.48972 0.0
C1665 C 0.61256 0.19268 0.48564 0.0
C1666 C 0.60914 0.18025 0.47084 0.0
C1667 C 0.58969 0.17526 0.46089 0.0
C1668 C 0.57483 0.18383 0.46503 0.0
H1669 H 0.50966 0.16859 0.48971 0.0
H1670 H 0.52273 0.16491 0.47138 0.0
H1671 H 0.53573 0.16605 0.49117 0.0
H1672 H 0.60144 0.21229 0.50064 0.0
H1673 H 0.62749 0.19684 0.49348 0.0
H1674 H 0.82662 0.43394 0.48091 0.0
H1675 H 0.81186 0.39144 0.48212 0.0
H1676 H 0.74569 0.37811 0.4618 0.0
H1677 H 0.76018 0.42023 0.46051 0.0
H1678 H 0.74398 0.34775 0.48975 0.0
H1679 H 0.80109 0.35423 0.43683 0.0
H1680 H 0.8144 0.37359 0.45417 0.0
H1681 H 0.79414 0.37698 0.44129 0.0
C1682 C 0.80875 0.42189 0.47709 0.0
C1683 C 0.79457 0.43035 0.47055 0.0
C1684 C 0.80044 0.3977 0.47766 0.0
C1685 C 0.77782 0.38178 0.47186 0.0
C1686 C 0.76322 0.39018 0.46627 0.0
H1687 H 0.69982 0.24446 0.4322 0.0
H1688 H 0.72436 0.28656 0.43745 0.0
C1689 C 0.77154 0.41423 0.46555 0.0
C1690 C 0.76954 0.35643 0.47052 0.0
H1691 H 0.77366 0.31633 0.4461 0.0
C1692 C 0.75069 0.3408 0.48043 0.0
C1693 C 0.77819 0.34761 0.45813 0.0
C1694 C 0.79799 0.36385 0.44688 0.0
C1695 C 0.73982 0.31646 0.47801 0.0
C1696 C 0.74822 0.30761 0.46544 0.0
C1697 C 0.76743 0.32323 0.45577 0.0
C1698 C 0.7361 0.28227 0.46146 0.0
C1699 C 0.71875 0.30044 0.48841 0.0
C1700 C 0.73532 0.26602 0.47298 0.0
C1701 C 0.72133 0.24197 0.47005 0.0
C1702 C 0.70788 0.23372 0.4555 0.0
C1703 C 0.70987 0.25013 0.44354 0.0
C1704 C 0.72388 0.27421 0.44651 0.0
H1705 H 0.71196 0.31029 0.49545 0.0
H1706 H 0.70438 0.28717 0.48057 0.0
H1707 H 0.72377 0.29095 0.49736 0.0
H1708 H 0.74494 0.27194 0.48448 0.0
H1709 H 0.72042 0.22989 0.47949 0.0
H1710 H 0.68874 0.25016 0.17749 0.0
H1711 H 0.71844 0.29171 0.17533 0.0
H1712 H 0.77305 0.27409 0.18142 0.0
H1713 H 0.74331 0.23242 0.18249 0.0
H1714 H 0.74295 0.31127 0.20166 0.0
H1715 H 0.80547 0.32863 0.15055 0.0
H1716 H 0.77723 0.30211 0.15167 0.0
H1717 H 0.8016 0.3049 0.16359 0.0
C1718 C 0.70715 0.25515 0.17736 0.0
C1719 C 0.71389 0.23828 0.1799 0.0
C1720 C 0.72411 0.27886 0.17631 0.0
C1721 C 0.74803 0.28609 0.17826 0.0
C1722 C 0.75483 0.26901 0.17949 0.0
H1723 H 0.83277 0.42097 0.22694 0.0
H1724 H 0.8168 0.37956 0.21995 0.0
C1725 C 0.73782 0.24517 0.18007 0.0
C1726 C 0.76493 0.31109 0.182 0.0
H1727 H 0.81776 0.35833 0.17136 0.0
C1728 C 0.75923 0.32157 0.19492 0.0
C1729 C 0.78625 0.32449 0.17332 0.0
C1730 C 0.79292 0.31453 0.15891 0.0
C1731 C 0.77389 0.34513 0.1992 0.0
C1732 C 0.7955 0.35843 0.19082 0.0
C1733 C 0.8014 0.34796 0.17798 0.0
C1734 C 0.81084 0.3838 0.19423 0.0
C1735 C 0.76552 0.35573 0.21222 0.0
C1736 C 0.81473 0.40015 0.18178 0.0
C1737 C 0.82431 0.42386 0.18565 0.0
C1738 C 0.82988 0.4316 0.2021 0.0
C1739 C 0.82828 0.41555 0.21422 0.0
C1740 C 0.81902 0.39185 0.21026 0.0
H1741 H 0.74632 0.34483 0.21443 0.0
H1742 H 0.7746 0.357 0.22404 0.0
H1743 H 0.76947 0.37364 0.20863 0.0
H1744 H 0.80881 0.39436 0.16929 0.0
H1745 H 0.82567 0.43576 0.17591 0.0
H1746 H 0.76881 0.4996 0.19667 0.0
H1747 H 0.72641 0.48484 0.19831 0.0
H1748 H 0.71326 0.41369 0.1959 0.0
H1749 H 0.75557 0.42841 0.19525 0.0
H1750 H 0.6872 0.45804 0.18144 0.0
H1751 H 0.68464 0.41306 0.23956 0.0
H1752 H 0.71182 0.43319 0.22947 0.0
H1753 H 0.69534 0.40291 0.22302 0.0
C1754 C 0.75675 0.48085 0.19599 0.0
C1755 C 0.76524 0.46506 0.19583 0.0
C1756 C 0.73259 0.47243 0.19706 0.0
C1757 C 0.71674 0.44816 0.19778 0.0
C1758 C 0.72523 0.43248 0.19595 0.0
H1759 H 0.56823 0.37062 0.18534 0.0
H1760 H 0.61032 0.396 0.1823 0.0
C1761 C 0.74932 0.44085 0.19532 0.0
C1762 C 0.69156 0.43908 0.2015 0.0
H1763 H 0.64744 0.40089 0.22672 0.0
C1764 C 0.6785 0.44573 0.19144 0.0
C1765 C 0.68041 0.4238 0.21499 0.0
C1766 C 0.69386 0.41807 0.22749 0.0
C1767 C 0.6543 0.43644 0.19393 0.0
C1768 C 0.64272 0.41932 0.20639 0.0
C1769 C 0.65609 0.41369 0.21698 0.0
C1770 C 0.61671 0.40584 0.2081 0.0
C1771 C 0.64157 0.44528 0.18323 0.0
C1772 C 0.60609 0.40225 0.22371 0.0
C1773 C 0.58195 0.38692 0.22559 0.0
C1774 C 0.56793 0.37521 0.21184 0.0
C1775 C 0.57845 0.37952 0.19617 0.0
C1776 C 0.60259 0.39433 0.19437 0.0
H1777 H 0.65343 0.46387 0.1796 0.0
H1778 H 0.63567 0.43474 0.17173 0.0
H1779 H 0.62604 0.44404 0.18961 0.0
H1780 H 0.61658 0.41082 0.23452 0.0
H1781 H 0.57435 0.38399 0.23782 0.0
H1782 H 0.52714 0.29159 0.17398 0.0
H1783 H 0.54217 0.26526 0.16659 0.0
H1784 H 0.51799 0.2297 0.21329 0.0
H1785 H 0.50306 0.25561 0.22061 0.0
H1786 H 0.57708 0.2649 0.18568 0.0
H1787 H 0.50081 0.17508 0.18184 0.0
H1788 H 0.49809 0.201 0.17977 0.0
H1789 H 0.49944 0.19012 0.19989 0.0
C1790 C 0.52449 0.27771 0.18243 0.0
C1791 C 0.51422 0.27582 0.19797 0.0
C1792 C 0.53305 0.26271 0.1782 0.0
C1793 C 0.53092 0.24535 0.18932 0.0
C1794 C 0.51939 0.24261 0.20438 0.0
H1795 H 0.61666 0.19603 0.22551 0.0
H1796 H 0.58878 0.2093 0.21941 0.0
C1797 C 0.51113 0.25769 0.20865 0.0
C1798 C 0.54388 0.23262 0.18671 0.0
H1799 H 0.53786 0.17811 0.19032 0.0
C1800 C 0.56848 0.2459 0.1862 0.0
C1801 C 0.53264 0.20783 0.18742 0.0
C1802 C 0.50626 0.19268 0.18709 0.0
C1803 C 0.58215 0.23512 0.18765 0.0
C1804 C 0.57089 0.21052 0.18969 0.0
C1805 C 0.54635 0.19704 0.189 0.0
C1806 C 0.5846 0.19905 0.19374 0.0
C1807 C 0.60858 0.25014 0.18783 0.0
C1808 C 0.59071 0.18821 0.1814 0.0
C1809 C 0.60671 0.18065 0.1848 0.0
C1810 C 0.61683 0.18389 0.20061 0.0
C1811 C 0.60935 0.19336 0.2132 0.0
C1812 C 0.59343 0.20097 0.20975 0.0
H1813 H 0.61459 0.2683 0.18348 0.0
H1814 H 0.61507 0.2511 0.20061 0.0
H1815 H 0.61661 0.24223 0.17994 0.0
H1816 H 0.58398 0.18661 0.16898 0.0
H1817 H 0.61194 0.17328 0.17483 0.0
H1818 H 0.25334 0.68742 0.80621 0.0
H1819 H 0.2935 0.71882 0.81095 0.0
H1820 H 0.26793 0.7641 0.82798 0.0
H1821 H 0.22737 0.7325 0.82319 0.0
H1822 H 0.30038 0.78293 0.80204 0.0
H1823 H 0.33449 0.75013 0.85135 0.0
H1824 H 0.31936 0.72822 0.83581 0.0
H1825 H 0.30343 0.73852 0.84802 0.0
C1826 C 0.25621 0.70381 0.81146 0.0
C1827 C 0.23728 0.70753 0.81438 0.0
C1828 C 0.27918 0.72172 0.81421 0.0
C1829 C 0.28367 0.7437 0.81996 0.0
C1830 C 0.26476 0.74716 0.82368 0.0
H1831 H 0.43504 0.8364 0.82502 0.0
H1832 H 0.39422 0.82222 0.83249 0.0
C1833 C 0.24165 0.72907 0.82107 0.0
C1834 C 0.30812 0.76352 0.81996 0.0
H1835 H 0.36321 0.77703 0.83168 0.0
C1836 C 0.31413 0.78206 0.80885 0.0
C1837 C 0.32598 0.76254 0.82899 0.0
C1838 C 0.32046 0.74389 0.84184 0.0
C1839 C 0.33772 0.79857 0.80555 0.0
C1840 C 0.35562 0.79616 0.81338 0.0
C1841 C 0.34952 0.77877 0.8255 0.0
C1842 C 0.38051 0.80955 0.80805 0.0
C1843 C 0.34316 0.81797 0.79337 0.0
C1844 C 0.38652 0.80797 0.79165 0.0
C1845 C 0.40993 0.81629 0.78726 0.0
C1846 C 0.42771 0.82588 0.79929 0.0
C1847 C 0.4218 0.82892 0.81544 0.0
C1848 C 0.39843 0.82082 0.81977 0.0
H1849 H 0.3292 0.8228 0.79343 0.0
H1850 H 0.36029 0.83389 0.79608 0.0
H1851 H 0.34387 0.81178 0.78076 0.0
H1852 H 0.37299 0.79891 0.78244 0.0
H1853 H 0.41381 0.8137 0.77472 0.0
H1854 H 0.32219 0.56797 0.81885 0.0
H1855 H 0.2936 0.58093 0.82309 0.0
H1856 H 0.23714 0.51002 0.81491 0.0
H1857 H 0.26577 0.49691 0.81185 0.0
H1858 H 0.26919 0.57983 0.7982 0.0
H1859 H 0.20624 0.53025 0.848 0.0
H1860 H 0.23386 0.53087 0.84581 0.0
H1861 H 0.20884 0.51103 0.83357 0.0
C1862 C 0.30363 0.55501 0.81895 0.0
C1863 C 0.29604 0.53147 0.81531 0.0
C1864 C 0.2873 0.5624 0.82119 0.0
C1865 C 0.26315 0.54648 0.8193 0.0
C1866 C 0.25555 0.52257 0.81687 0.0
H1867 H 0.17878 0.5989 0.77409 0.0
H1868 H 0.19607 0.57439 0.78033 0.0
C1869 C 0.27192 0.51506 0.81512 0.0
C1870 C 0.24673 0.55556 0.81683 0.0
H1871 H 0.19358 0.54876 0.82804 0.0
C1872 C 0.25279 0.57316 0.8049 0.0
C1873 C 0.22527 0.54685 0.82548 0.0
C1874 C 0.21828 0.52888 0.83904 0.0
C1875 C 0.23818 0.58241 0.80142 0.0
C1876 C 0.21625 0.57303 0.80953 0.0
C1877 C 0.21016 0.55553 0.82156 0.0
C1878 C 0.20044 0.5826 0.8064 0.0
C1879 C 0.24683 0.60269 0.78945 0.0
C1880 C 0.19527 0.59358 0.81923 0.0
C1881 C 0.18489 0.60715 0.81577 0.0
C1882 C 0.17981 0.61019 0.79938 0.0
C1883 C 0.18285 0.59724 0.7868 0.0
C1884 C 0.19286 0.58334 0.79033 0.0
H1885 H 0.26618 0.61166 0.78779 0.0
H1886 H 0.2386 0.59603 0.77721 0.0
H1887 H 0.24214 0.61587 0.7937 0.0
H1888 H 0.20073 0.59303 0.83175 0.0
H1889 H 0.18254 0.61663 0.82581 0.0
H1890 H 0.49658 0.77281 0.82442 0.0
H1891 H 0.48646 0.73165 0.82795 0.0
H1892 H 0.42185 0.70899 0.80129 0.0
H1893 H 0.43171 0.74971 0.79775 0.0
H1894 H 0.41883 0.68142 0.83049 0.0
H1895 H 0.48905 0.69519 0.78577 0.0
H1896 H 0.49677 0.71444 0.80333 0.0
H1897 H 0.4784 0.71563 0.78747 0.0
C1898 C 0.47993 0.75898 0.81972 0.0
C1899 C 0.46497 0.76441 0.81073 0.0
C1900 C 0.4743 0.73556 0.82163 0.0
C1901 C 0.45358 0.71742 0.81468 0.0
C1902 C 0.43796 0.72279 0.80669 0.0
H1903 H 0.39129 0.58731 0.76994 0.0
H1904 H 0.41652 0.62815 0.77807 0.0
C1905 C 0.44362 0.74605 0.80467 0.0
C1906 C 0.44857 0.69289 0.81441 0.0
H1907 H 0.46152 0.6563 0.79272 0.0
C1908 C 0.42846 0.67585 0.82259 0.0
C1909 C 0.46109 0.68587 0.80388 0.0
C1910 C 0.4825 0.70362 0.7945 0.0
C1911 C 0.41973 0.65184 0.81984 0.0
C1912 C 0.43172 0.64478 0.80879 0.0
C1913 C 0.45254 0.66183 0.80127 0.0
C1914 C 0.42103 0.62012 0.80323 0.0
C1915 C 0.39681 0.63432 0.82783 0.0
C1916 C 0.41633 0.60206 0.81444 0.0
C1917 C 0.40172 0.57864 0.80988 0.0
C1918 C 0.39167 0.57295 0.794 0.0
C1919 C 0.39845 0.59103 0.78232 0.0
C1920 C 0.41293 0.61443 0.78694 0.0
H1921 H 0.38795 0.64295 0.8339 0.0
H1922 H 0.38462 0.62166 0.81855 0.0
H1923 H 0.4002 0.62425 0.83735 0.0
H1924 H 0.42285 0.60613 0.82698 0.0
H1925 H 0.39721 0.56515 0.81912 0.0
H1926 H 0.47387 0.74812 0.56338 0.0
H1927 H 0.45857 0.70708 0.55594 0.0
H1928 H 0.47335 0.72646 0.50467 0.0
H1929 H 0.48826 0.76749 0.51191 0.0
H1930 H 0.42792 0.69454 0.50974 0.0
H1931 H 0.48321 0.66472 0.54079 0.0
H1932 H 0.47425 0.67984 0.55482 0.0
H1933 H 0.49287 0.69543 0.53759 0.0
C1934 C 0.47449 0.74379 0.55057 0.0
C1935 C 0.48198 0.7611 0.53823 0.0
C1936 C 0.46587 0.72028 0.54634 0.0
C1937 C 0.46495 0.71372 0.52975 0.0
C1938 C 0.47396 0.73116 0.51755 0.0
H1939 H 0.39035 0.56091 0.51114 0.0
H1940 H 0.42016 0.60243 0.50729 0.0
C1941 C 0.48246 0.75463 0.52174 0.0
C1942 C 0.45133 0.68863 0.52503 0.0
H1943 H 0.44296 0.63452 0.53486 0.0
C1944 C 0.43155 0.68147 0.51491 0.0
C1945 C 0.45619 0.67159 0.5316 0.0
C1946 C 0.47795 0.67832 0.54166 0.0
C1947 C 0.41557 0.65763 0.51221 0.0
C1948 C 0.41937 0.64059 0.51996 0.0
C1949 C 0.44002 0.6477 0.52905 0.0
C1950 C 0.40073 0.61569 0.52063 0.0
C1951 C 0.39423 0.65085 0.50163 0.0
C1952 C 0.37999 0.60958 0.52927 0.0
C1953 C 0.36312 0.58609 0.53155 0.0
C1954 C 0.36664 0.5682 0.5252 0.0
C1955 C 0.38707 0.57434 0.51602 0.0
C1956 C 0.40414 0.59797 0.51389 0.0
H1957 H 0.39733 0.66503 0.49279 0.0
H1958 H 0.38919 0.63448 0.49462 0.0
H1959 H 0.37927 0.64771 0.50966 0.0
H1960 H 0.37722 0.62303 0.53476 0.0
H1961 H 0.34758 0.58193 0.53869 0.0
H1962 H 0.23067 0.73018 0.56224 0.0
H1963 H 0.27258 0.75885 0.55985 0.0
H1964 H 0.27148 0.73804 0.50919 0.0
H1965 H 0.22963 0.71076 0.51121 0.0
H1966 H 0.30374 0.74822 0.55657 0.0
H1967 H 0.31572 0.80511 0.50349 0.0
H1968 H 0.28718 0.7866 0.51253 0.0
H1969 H 0.29847 0.77524 0.49694 0.0
C1970 C 0.23926 0.73239 0.55044 0.0
C1971 C 0.22685 0.71824 0.53693 0.0
C1972 C 0.26323 0.74873 0.54908 0.0
C1973 C 0.27532 0.75088 0.53427 0.0
C1974 C 0.26261 0.73745 0.52058 0.0
H1975 H 0.41068 0.76477 0.53166 0.0
H1976 H 0.36908 0.75308 0.53051 0.0
C1977 C 0.23858 0.72161 0.52181 0.0
C1978 C 0.30145 0.7641 0.53385 0.0
H1979 H 0.34849 0.79819 0.50909 0.0
C1980 C 0.31347 0.75957 0.54634 0.0
C1981 C 0.31448 0.77929 0.52071 0.0
C1982 C 0.30323 0.78702 0.5078 0.0
C1983 C 0.33777 0.76863 0.54559 0.0
C1984 C 0.35033 0.78167 0.53155 0.0
C1985 C 0.33871 0.78753 0.51958 0.0
C1986 C 0.37533 0.78866 0.52907 0.0
C1987 C 0.34967 0.76399 0.55987 0.0
C1988 C 0.3926 0.81238 0.52719 0.0
C1989 C 0.41643 0.81899 0.52724 0.0
C1990 C 0.42313 0.80196 0.52932 0.0
C1991 C 0.40584 0.77817 0.53004 0.0
C1992 C 0.38213 0.77154 0.5296 0.0
H1993 H 0.33975 0.76129 0.57153 0.0
H1994 H 0.35032 0.74773 0.55741 0.0
H1995 H 0.36788 0.77871 0.56169 0.0
H1996 H 0.38772 0.82584 0.52661 0.0
H1997 H 0.42955 0.83748 0.52689 0.0
H1998 H 0.25269 0.49872 0.55674 0.0
H1999 H 0.22548 0.51307 0.55122 0.0
H2000 H 0.25234 0.53116 0.50157 0.0
H2001 H 0.27831 0.51567 0.50664 0.0
H2002 H 0.23921 0.55581 0.54648 0.0
H2003 H 0.18621 0.51028 0.49192 0.0
H2004 H 0.2027 0.49945 0.50297 0.0
H2005 H 0.21652 0.52143 0.48708 0.0
C2006 C 0.2522 0.50502 0.54448 0.0
C2007 C 0.26784 0.50624 0.53219 0.0
C2008 C 0.23665 0.51324 0.54133 0.0
C2009 C 0.23667 0.5231 0.52592 0.0
C2010 C 0.25137 0.52307 0.51339 0.0
H2011 H 0.22782 0.64709 0.51766 0.0
H2012 H 0.23889 0.61674 0.51619 0.0
C2013 C 0.26651 0.51441 0.51641 0.0
C2014 C 0.22459 0.5369 0.52379 0.0
H2015 H 0.19411 0.55056 0.49602 0.0
C2016 C 0.22892 0.55424 0.53559 0.0
C2017 C 0.21088 0.53483 0.50972 0.0
C2018 C 0.20362 0.51528 0.49734 0.0
C2019 C 0.22105 0.57025 0.53333 0.0
C2020 C 0.20938 0.56963 0.51849 0.0
C2021 C 0.20375 0.55149 0.50712 0.0
C2022 C 0.20309 0.58785 0.51481 0.0
C2023 C 0.22546 0.58774 0.5469 0.0
C2024 C 0.1795 0.58174 0.5128 0.0
C2025 C 0.17325 0.59919 0.51296 0.0
C2026 C 0.19052 0.62277 0.5154 0.0
C2027 C 0.21425 0.62899 0.51572 0.0
C2028 C 0.22052 0.61166 0.51512 0.0
H2029 H 0.2274 0.58114 0.55908 0.0
H2030 H 0.24204 0.60432 0.54432 0.0
H2031 H 0.21097 0.59173 0.54775 0.0
H2032 H 0.16581 0.56347 0.5124 0.0
H2033 H 0.1548 0.59399 0.51293 0.0
H2034 H 0.20926 0.21427 0.07232 0.0
H2035 H 0.22038 0.22045 0.04301 0.0
H2036 H 0.15001 0.16748 0.02961 0.0
H2037 H 0.13888 0.1611 0.05862 0.0
H2038 H 0.18746 0.16048 0.01741 0.0
H2039 H 0.20128 0.24966 0.00394 0.0
H2040 H 0.21483 0.24551 0.02198 0.0
H2041 H 0.18352 0.23243 0.02112 0.0
C2042 C 0.19604 0.20441 0.06308 0.0
C2043 C 0.17322 0.18712 0.06776 0.0
C2044 C 0.20244 0.2079 0.04637 0.0
C2045 C 0.18603 0.19433 0.0342 0.0
C2046 C 0.16297 0.17803 0.03884 0.0
H2047 H 0.15042 0.18387 0.93686 0.0
H2048 H 0.16179 0.194 0.96545 0.0
C2049 C 0.15662 0.17446 0.05543 0.0
C2050 C 0.19276 0.1955 0.01665 0.0
H2051 H 0.20191 0.22742 0.98148 0.0
C2052 C 0.19114 0.17528 0.00954 0.0
C2053 C 0.19764 0.2149 0.00655 0.0
C2054 C 0.19939 0.23691 0.01366 0.0
C2055 C 0.19252 0.17323 0.99241 0.0
C2056 C 0.19605 0.19214 0.98215 0.0
C2057 C 0.19935 0.21302 0.98939 0.0
C2058 C 0.19181 0.1889 0.96412 0.0
C2059 C 0.1883 0.15018 0.98538 0.0
C2060 C 0.20528 0.18318 0.95367 0.0
C2061 C 0.19862 0.17706 0.93714 0.0
C2062 C 0.17844 0.17664 0.93092 0.0
C2063 C 0.16585 0.18361 0.94127 0.0
C2064 C 0.17245 0.18964 0.95764 0.0
H2065 H 0.18275 0.13632 0.99497 0.0
H2066 H 0.17457 0.14386 0.97566 0.0
H2067 H 0.20473 0.15269 0.97967 0.0
H2068 H 0.22052 0.18285 0.95838 0.0
H2069 H 0.2088 0.172 0.92943 0.0
H2070 H 0.8463 0.02573 0.94203 0.0
H2071 H 0.83339 0.019 0.97073 0.0
H2072 H 0.76137 0.98881 0.95497 0.0
H2073 H 0.7742 0.99553 0.92604 0.0
H2074 H 0.80323 0.0305 0.99109 0.0
H2075 H 0.76709 0.93499 0.9791 0.0
H2076 H 0.78746 0.9572 0.9651 0.0
H2077 H 0.7576 0.95087 0.96609 0.0
C2078 C 0.82776 0.01825 0.94466 0.0
C2079 C 0.81125 0.01101 0.93179 0.0
C2080 C 0.82041 0.01442 0.96107 0.0
C2081 C 0.79643 0.00312 0.96493 0.0
C2082 C 0.77996 0.9974 0.95219 0.0
H2083 H 0.76644 0.97501 0.07172 0.0
H2084 H 0.75886 0.98112 0.04296 0.0
C2085 C 0.78733 0.00142 0.9357 0.0
C2086 C 0.78903 0.9952 0.9821 0.0
H2087 H 0.77002 0.94682 0.00666 0.0
C2088 C 0.79538 0.01216 0.99453 0.0
C2089 C 0.77906 0.97125 0.98648 0.0
C2090 C 0.77245 0.95242 0.97357 0.0
C2091 C 0.79306 0.00591 0.01129 0.0
C2092 C 0.7841 0.9821 0.01565 0.0
C2093 C 0.77667 0.96501 0.00322 0.0
C2094 C 0.78589 0.97526 0.03276 0.0
C2095 C 0.80169 0.02495 0.02421 0.0
C2096 C 0.80293 0.96906 0.03639 0.0
C2097 C 0.80731 0.96562 0.05269 0.0
C2098 C 0.79458 0.96812 0.06569 0.0
C2099 C 0.77645 0.97286 0.06196 0.0
C2100 C 0.77221 0.97652 0.04557 0.0
H2101 H 0.80998 0.0428 0.0187 0.0
H2102 H 0.78672 0.02244 0.03199 0.0
H2103 H 0.81467 0.02388 0.0324 0.0
H2104 H 0.81364 0.96796 0.02666 0.0
H2105 H 0.82132 0.9619 0.05515 0.0
H2106 H 0.9878 0.76537 0.92797 0.0
H2107 H 0.98781 0.75554 0.95723 0.0
H2108 H 0.95633 0.79739 0.96985 0.0
H2109 H 0.95652 0.80735 0.94087 0.0
H2110 H 0.01411 0.79263 0.97944 0.0
H2111 H 0.92226 0.74066 0.00066 0.0
H2112 H 0.9305 0.74194 0.97924 0.0
H2113 H 0.92669 0.76496 0.98804 0.0
C2114 C 0.97992 0.77155 0.93694 0.0
C2115 C 0.97202 0.78699 0.93222 0.0
C2116 C 0.9801 0.76607 0.95364 0.0
C2117 C 0.97189 0.77556 0.96569 0.0
C2118 C 0.9623 0.78947 0.96076 0.0
H2119 H 0.98271 0.8329 0.0563 0.0
H2120 H 0.97591 0.81566 0.02896 0.0
C2121 C 0.96244 0.79519 0.94419 0.0
C2122 C 0.97673 0.7746 0.98344 0.0
H2123 H 0.95069 0.76654 0.02108 0.0
C2124 C 0.00028 0.78624 0.98862 0.0
C2125 C 0.95866 0.76622 0.99535 0.0
C2126 C 0.9331 0.75253 0.99054 0.0
C2127 C 0.00622 0.79179 0.00532 0.0
C2128 C 0.98809 0.7852 0.01706 0.0
C2129 C 0.96457 0.77172 0.01202 0.0
C2130 C 0.99291 0.79537 0.03387 0.0
C2131 C 0.03175 0.80637 0.01009 0.0
C2132 C 0.00503 0.7899 0.04572 0.0
C2133 C 0.00913 0.79992 0.06153 0.0
C2134 C 0.00102 0.81544 0.06566 0.0
C2135 C 0.98914 0.82098 0.05362 0.0
C2136 C 0.98514 0.81106 0.03796 0.0
H2137 H 0.0436 0.81188 0.99921 0.0
H2138 H 0.03479 0.82232 0.01688 0.0
H2139 H 0.03654 0.79604 0.01842 0.0
H2140 H 0.01103 0.77768 0.04283 0.0
H2141 H 0.01817 0.79518 0.07057 0.0
H2142 H 0.89298 0.54792 0.26201 0.0
H2143 H 0.90057 0.56257 0.29051 0.0
H2144 H 0.85292 0.49272 0.30828 0.0
H2145 H 0.84515 0.47807 0.28 0.0
H2146 H 0.86272 0.55793 0.3112 0.0
H2147 H 0.91017 0.51716 0.3398 0.0
H2148 H 0.90967 0.52118 0.31776 0.0
H2149 H 0.88522 0.49685 0.32781 0.0
C2150 C 0.88469 0.53559 0.27203 0.0
C2151 C 0.86848 0.51184 0.2688 0.0
C2152 C 0.88895 0.54401 0.28828 0.0
C2153 C 0.87745 0.52869 0.30149 0.0
C2154 C 0.86227 0.50477 0.29829 0.0
H2155 H 0.81229 0.51976 0.38992 0.0
H2156 H 0.82641 0.52678 0.36151 0.0
C2157 C 0.85778 0.49643 0.28212 0.0
C2158 C 0.87884 0.53771 0.31843 0.0
H2159 H 0.88812 0.5277 0.35827 0.0
C2160 C 0.86884 0.55186 0.32149 0.0
C2161 C 0.887 0.52995 0.3318 0.0
C2162 C 0.89883 0.51562 0.32915 0.0
C2163 C 0.86509 0.55687 0.33767 0.0
C2164 C 0.87142 0.54739 0.35106 0.0
C2165 C 0.88314 0.53486 0.34798 0.0
C2166 C 0.86317 0.54734 0.36807 0.0
C2167 C 0.85349 0.57142 0.34032 0.0
C2168 C 0.87914 0.55696 0.38121 0.0
C2169 C 0.87106 0.55313 0.39753 0.0
C2170 C 0.84693 0.53918 0.40091 0.0
C2171 C 0.83097 0.53065 0.38769 0.0
C2172 C 0.83902 0.53473 0.37144 0.0
H2173 H 0.85654 0.58327 0.32968 0.0
H2174 H 0.83426 0.55957 0.34158 0.0
H2175 H 0.86007 0.58213 0.35173 0.0
H2176 H 0.89787 0.56656 0.37885 0.0
H2177 H 0.88379 0.55969 0.40747 0.0
H2178 H 0.52155 0.36496 0.27873 0.0
H2179 H 0.51181 0.36334 0.30795 0.0
H2180 H 0.44016 0.34183 0.29532 0.0
H2181 H 0.44989 0.34369 0.26584 0.0
H2182 H 0.47564 0.38126 0.32714 0.0
H2183 H 0.45388 0.28792 0.32293 0.0
H2184 H 0.47744 0.30939 0.31032 0.0
H2185 H 0.44784 0.3024 0.30626 0.0
C2186 C 0.50393 0.36076 0.28214 0.0
C2187 C 0.48648 0.35451 0.27006 0.0
C2188 C 0.49839 0.35977 0.29882 0.0
C2189 C 0.47528 0.35233 0.3037 0.0
C2190 C 0.45812 0.34772 0.2917 0.0
H2191 H 0.45176 0.30196 0.40667 0.0
H2192 H 0.4404 0.30677 0.37862 0.0
C2193 C 0.46373 0.34895 0.27491 0.0
C2194 C 0.46903 0.34659 0.32124 0.0
H2195 H 0.46122 0.3049 0.34954 0.0
C2196 C 0.47183 0.36439 0.33208 0.0
C2197 C 0.46386 0.32448 0.32755 0.0
C2198 C 0.46044 0.3048 0.31623 0.0
C2199 C 0.47118 0.36111 0.34923 0.0
C2200 C 0.46826 0.33973 0.35558 0.0
C2201 C 0.46354 0.3213 0.34469 0.0
C2202 C 0.47384 0.33752 0.37298 0.0
C2203 C 0.4746 0.38092 0.36039 0.0
C2204 C 0.49645 0.35291 0.37896 0.0
C2205 C 0.50298 0.35014 0.39476 0.0
C2206 C 0.48712 0.33174 0.40501 0.0
C2207 C 0.46437 0.3163 0.39908 0.0
C2208 C 0.45784 0.31907 0.38311 0.0
H2209 H 0.46776 0.3916 0.35454 0.0
H2210 H 0.4657 0.37428 0.37244 0.0
H2211 H 0.49365 0.39268 0.36265 0.0
H2212 H 0.50934 0.36683 0.37122 0.0
H2213 H 0.52064 0.36243 0.39885 0.0
H2214 H 0.67876 0.11752 0.40239 0.0
H2215 H 0.67998 0.10901 0.37297 0.0
H2216 H 0.70007 0.18054 0.36094 0.0
H2217 H 0.69858 0.18895 0.39007 0.0
H2218 H 0.64963 0.11479 0.35029 0.0
H2219 H 0.74238 0.16682 0.33079 0.0
H2220 H 0.73387 0.15809 0.35197 0.0
H2221 H 0.73371 0.18339 0.34364 0.0
C2222 C 0.68435 0.13161 0.39349 0.0
C2223 C 0.68874 0.15393 0.39844 0.0
C2224 C 0.68486 0.12669 0.37671 0.0
C2225 C 0.69032 0.1442 0.36481 0.0
C2226 C 0.69625 0.16689 0.36993 0.0
H2227 H 0.67541 0.18692 0.27379 0.0
H2228 H 0.68177 0.17749 0.30161 0.0
C2229 C 0.69537 0.17168 0.38657 0.0
C2230 C 0.68667 0.13852 0.34699 0.0
H2231 H 0.71312 0.15994 0.30987 0.0
C2232 C 0.66359 0.124 0.34136 0.0
C2233 C 0.70492 0.15053 0.33544 0.0
C2234 C 0.73016 0.1654 0.34076 0.0
C2235 C 0.65796 0.12304 0.32454 0.0
C2236 C 0.67596 0.13673 0.31316 0.0
C2237 C 0.69932 0.14958 0.31866 0.0
C2238 C 0.67066 0.14119 0.29623 0.0
C2239 C 0.63262 0.10901 0.31922 0.0
C2240 C 0.6618 0.1237 0.28401 0.0
C2241 C 0.65799 0.12904 0.26793 0.0
C2242 C 0.66317 0.15197 0.26392 0.0
C2243 C 0.67142 0.16914 0.27638 0.0
C2244 C 0.67512 0.16381 0.29231 0.0
H2245 H 0.62054 0.10066 0.32982 0.0
H2246 H 0.62742 0.12051 0.31261 0.0
H2247 H 0.63044 0.095 0.31054 0.0
H2248 H 0.65837 0.10616 0.28679 0.0
H2249 H 0.65177 0.1155 0.25856 0.0
H2250 H 0.55249 0.8808 0.5959 0.0
H2251 H 0.56135 0.89437 0.62463 0.0
H2252 H 0.51361 0.8241 0.6416 0.0
H2253 H 0.50449 0.81053 0.6131 0.0
H2254 H 0.52353 0.88869 0.64651 0.0
H2255 H 0.57265 0.84752 0.67179 0.0
H2256 H 0.57163 0.85276 0.64999 0.0
H2257 H 0.54746 0.82784 0.65974 0.0
C2258 C 0.54445 0.86813 0.60578 0.0
C2259 C 0.52781 0.8446 0.60229 0.0
C2260 C 0.54944 0.87593 0.62215 0.0
C2261 C 0.53827 0.86019 0.6352 0.0
C2262 C 0.52269 0.83645 0.63171 0.0
H2263 H 0.47733 0.84708 0.72599 0.0
H2264 H 0.48993 0.85445 0.69722 0.0
C2265 C 0.51745 0.82874 0.61542 0.0
C2266 C 0.54034 0.86865 0.65238 0.0
H2267 H 0.55167 0.85769 0.69144 0.0
C2268 C 0.53025 0.88246 0.65633 0.0
C2269 C 0.54923 0.86062 0.66513 0.0
C2270 C 0.56107 0.84653 0.66147 0.0
C2271 C 0.52716 0.88689 0.67281 0.0
C2272 C 0.53432 0.87723 0.68559 0.0
C2273 C 0.5461 0.86501 0.68161 0.0
C2274 C 0.52682 0.8766 0.70289 0.0
C2275 C 0.51531 0.90096 0.67646 0.0
C2276 C 0.54337 0.88699 0.71561 0.0
C2277 C 0.53614 0.88303 0.73214 0.0
C2278 C 0.51234 0.86817 0.7361 0.0
C2279 C 0.49576 0.85869 0.72329 0.0
C2280 C 0.50293 0.86294 0.70685 0.0
H2281 H 0.5171 0.91264 0.66599 0.0
H2282 H 0.4963 0.88876 0.67857 0.0
H2283 H 0.52273 0.91178 0.68775 0.0
H2284 H 0.56191 0.8974 0.71277 0.0
H2285 H 0.54933 0.89031 0.74176 0.0
H2286 H 0.14925 0.63734 0.60407 0.0
H2287 H 0.13688 0.63529 0.63243 0.0
H2288 H 0.13197 0.69774 0.62549 0.0
H2289 H 0.14501 0.70026 0.59673 0.0
H2290 H 0.15717 0.70123 0.65215 0.0
H2291 H 0.07602 0.61566 0.65541 0.0
H2292 H 0.09822 0.61182 0.64552 0.0
H2293 H 0.08827 0.63011 0.63598 0.0
C2294 C 0.14531 0.65057 0.60842 0.0
C2295 C 0.14833 0.66912 0.59813 0.0
C2296 C 0.13785 0.64913 0.62465 0.0
C2297 C 0.13292 0.66601 0.63104 0.0
C2298 C 0.13536 0.68432 0.62074 0.0
H2299 H 0.11087 0.64443 0.73913 0.0
H2300 H 0.10117 0.64976 0.71067 0.0
C2301 C 0.14286 0.68578 0.60435 0.0
C2302 C 0.12844 0.66587 0.64899 0.0
H2303 H 0.1007 0.62744 0.68059 0.0
C2304 C 0.1443 0.68534 0.65835 0.0
C2305 C 0.11134 0.64539 0.65721 0.0
C2306 C 0.09235 0.6247 0.64794 0.0
C2307 C 0.14519 0.68394 0.67557 0.0
C2308 C 0.13019 0.66237 0.68355 0.0
C2309 C 0.11259 0.64378 0.67442 0.0
C2310 C 0.13492 0.65791 0.70064 0.0
C2311 C 0.1631 0.7052 0.68499 0.0
C2312 C 0.15662 0.65971 0.7042 0.0
C2313 C 0.16212 0.65664 0.72024 0.0
C2314 C 0.14595 0.65146 0.73312 0.0
C2315 C 0.12367 0.64841 0.72944 0.0
C2316 C 0.11817 0.65159 0.71325 0.0
H2317 H 0.16698 0.72169 0.67857 0.0
H2318 H 0.15699 0.70553 0.6977 0.0
H2319 H 0.17974 0.70478 0.68579 0.0
H2320 H 0.1695 0.66383 0.69455 0.0
H2321 H 0.17929 0.65875 0.72258 0.0
H2322 H 0.3248 0.44186 0.59226 0.0
H2323 H 0.32961 0.43573 0.62158 0.0
H2324 H 0.29359 0.47299 0.63499 0.0
H2325 H 0.28887 0.47921 0.60594 0.0
H2326 H 0.35531 0.47466 0.64259 0.0
H2327 H 0.2661 0.41769 0.66732 0.0
H2328 H 0.27289 0.41867 0.64562 0.0
H2329 H 0.26742 0.44058 0.65453 0.0
C2330 C 0.31715 0.44794 0.60148 0.0
C2331 C 0.30639 0.46095 0.59685 0.0
C2332 C 0.32005 0.44456 0.6182 0.0
C2333 C 0.31176 0.4537 0.63046 0.0
C2334 C 0.2997 0.46536 0.62577 0.0
H2335 H 0.32624 0.5144 0.72023 0.0
H2336 H 0.31951 0.49706 0.69291 0.0
C2337 C 0.29708 0.46899 0.60915 0.0
C2338 C 0.31834 0.45427 0.64801 0.0
H2339 H 0.29487 0.44577 0.6866 0.0
C2340 C 0.3422 0.46769 0.65228 0.0
C2341 C 0.30121 0.44512 0.6606 0.0
C2342 C 0.27549 0.4295 0.65678 0.0
C2343 C 0.34915 0.47409 0.66875 0.0
C2344 C 0.33179 0.46666 0.68115 0.0
C2345 C 0.30814 0.45157 0.67703 0.0
C2346 C 0.33718 0.47742 0.69777 0.0
C2347 C 0.37475 0.49032 0.67264 0.0
C2348 C 0.34975 0.4724 0.70953 0.0
C2349 C 0.35374 0.48241 0.72534 0.0
C2350 C 0.34511 0.49748 0.72954 0.0
C2351 C 0.33304 0.50279 0.71751 0.0
C2352 C 0.3291 0.49284 0.70186 0.0
H2353 H 0.38597 0.49534 0.66144 0.0
H2354 H 0.37708 0.50652 0.67866 0.0
H2355 H 0.38091 0.4816 0.68143 0.0
H2356 H 0.35605 0.46044 0.70659 0.0
H2357 H 0.36298 0.47788 0.73436 0.0
loop_
_geom_bond_atom_site_label_1
_geom_bond_atom_site_label_2
_geom_bond_distance
_geom_bond_site_symmetry_2
_ccdc_geom_bond_type
Co0 O2 2.143 . S
Co0 O8 2.074 . S
Co0 O11 2.093 . S
Co0 O24 2.097 . S
Co0 N41 2.151 . S
Co0 N49 2.214 . S
Co1 O2 2.160 . S
Co1 O7 2.058 . S
Co1 O17 2.057 . S
Co1 O32 2.037 . S
Co1 N36 2.145 . S
Co1 N57 2.257 . S
O2 Co0 2.143 . S
O2 Co1 2.160 . S
C3 O4 1.278 . S
C3 O11 1.224 . S
O4 C3 1.278 . S
C5 O6 1.245 . S
C5 O17 1.232 . S
O6 C5 1.245 . S
O7 Co1 2.058 . S
O7 C33 1.269 . S
O8 Co0 2.074 . S
O8 C33 1.257 . S
H9 C34 0.930 . S
H10 C40 0.930 . S
O11 Co0 2.093 . S
O11 C3 1.224 . S
H12 C44 0.929 . S
H13 C46 0.930 . S
H14 C47 0.930 . S
H15 C45 0.929 . S
H16 C48 0.928 . S
O17 Co1 2.057 . S
O17 C5 1.232 . S
H18 C37 0.929 . S
H19 C38 0.929 . S
H20 C50 0.931 . S
H21 C42 0.929 . S
H22 C51 0.930 . S
H23 C43 0.931 . S
O24 Co0 2.097 . S
O24 C52 1.214 . S
H25 C53 0.929 . S
H26 C54 0.929 . S
H27 C55 0.930 . S
H28 C56 0.929 . S
H29 C58 0.930 . S
H30 C35 0.930 . S
H31 C39 0.930 . S
O32 Co1 2.037 . S
O32 C52 1.234 . S
C33 O7 1.269 . S
C33 O8 1.257 . S
C34 H9 0.930 . S
C34 C37 1.388 . S
C34 C39 1.418 . S
C35 H30 0.930 . S
C35 C38 1.404 . S
C35 C39 1.353 . S
N36 Co1 2.145 . S
N36 C37 1.397 . S
N36 C38 1.334 . S
C37 H18 0.929 . S
C37 C34 1.388 . S
C37 N36 1.397 . S
C38 H19 0.929 . S
C38 C35 1.404 . S
C38 N36 1.334 . S
C39 H31 0.930 . S
C39 C34 1.418 . S
C39 C35 1.353 . S
C40 H10 0.930 . S
C40 N41 1.330 . S
C40 C42 1.446 . S
N41 Co0 2.151 . S
N41 C40 1.330 . S
N41 C45 1.418 . S
C42 H21 0.929 . S
C42 C40 1.446 . S
C42 C43 1.332 . S
C43 H23 0.931 . S
C43 C42 1.332 . S
C43 C44 1.267 . S
C44 H12 0.929 . S
C44 C43 1.267 . S
C44 C45 1.251 . S
C45 H15 0.929 . S
C45 N41 1.418 . S
C45 C44 1.251 . S
C46 H13 0.930 . S
C46 C48 1.406 . S
C46 C51 1.261 . S
C47 H14 0.930 . S
C47 N49 1.325 . S
C47 C50 1.357 . S
C48 H16 0.928 . S
C48 C46 1.406 . S
C48 N49 1.261 . S
N49 Co0 2.214 . S
N49 C47 1.325 . S
N49 C48 1.261 . S
C50 H20 0.931 . S
C50 C47 1.357 . S
C50 C51 1.312 . S
C51 H22 0.930 . S
C51 C46 1.261 . S
C51 C50 1.312 . S
C52 O24 1.214 . S
C52 O32 1.234 . S
C53 H25 0.929 . S
C53 C56 1.391 . S
C53 C58 1.391 . S
C54 H26 0.929 . S
C54 C55 1.390 . S
C54 N57 1.391 . S
C55 H27 0.930 . S
C55 C54 1.390 . S
C55 C56 1.392 . S
C56 H28 0.929 . S
C56 C53 1.391 . S
C56 C55 1.392 . S
N57 Co1 2.257 . S
N57 C54 1.391 . S
N57 C58 1.388 . S
C58 H29 0.930 . S
C58 C53 1.391 . S
C58 N57 1.388 . S
Co59 O61 2.143 . S
Co59 O67 2.074 . S
Co59 O70 2.093 1_545 S
Co59 O83 2.097 1_545 S
Co59 N100 2.151 . S
Co59 N108 2.214 . S
Co60 O61 2.160 1_565 S
Co60 O66 2.058 1_565 S
Co60 O76 2.057 1_565 S
Co60 O91 2.037 . S
Co60 N95 2.145 . S
Co60 N116 2.257 . S
O61 Co59 2.143 . S
O61 Co60 2.160 1_545 S
C62 O63 1.278 . S
C62 O70 1.224 . S
O63 C62 1.278 . S
C64 O65 1.245 . S
C64 O76 1.232 . S
O65 C64 1.245 . S
O66 Co60 2.058 1_545 S
O66 C92 1.269 . S
O67 Co59 2.074 . S
O67 C92 1.257 . S
H68 C93 0.930 . S
H69 C99 0.930 . S
O70 Co59 2.093 1_565 S
O70 C62 1.224 . S
H71 C103 0.929 . S
H72 C105 0.930 . S
H73 C106 0.920 1_565 S
H74 C104 0.929 . S
H75 C107 0.928 . S
O76 Co60 2.057 1_545 S
O76 C64 1.232 . S
H77 C96 0.929 . S
H78 C97 0.929 . S
H79 C109 0.931 1_565 S
H80 C101 0.929 . S
H81 C110 0.930 . S
H82 C102 0.931 . S
O83 Co59 2.097 1_565 S
O83 C111 1.214 . S
H84 C112 0.929 . S
H85 C113 0.929 . S
H86 C114 0.930 . S
H87 C115 0.929 . S
H88 C117 0.930 . S
H89 C94 0.930 . S
H90 C98 0.930 . S
O91 Co60 2.037 . S
O91 C111 1.234 . S
C92 O66 1.269 . S
C92 O67 1.257 . S
C93 H68 0.930 . S
C93 C96 1.388 . S
C93 C98 1.418 . S
C94 H89 0.930 . S
C94 C97 1.404 . S
C94 C98 1.353 . S
N95 Co60 2.145 . S
N95 C96 1.397 . S
N95 C97 1.334 . S
C96 H77 0.929 . S
C96 C93 1.388 . S
C96 N95 1.397 . S
C97 H78 0.929 . S
C97 C94 1.404 . S
C97 N95 1.334 . S
C98 H90 0.930 . S
C98 C93 1.418 . S
C98 C94 1.353 . S
C99 H69 0.930 . S
C99 N100 1.330 . S
C99 C101 1.446 . S
N100 Co59 2.151 . S
N100 C99 1.330 . S
N100 C104 1.418 . S
C101 H80 0.929 . S
C101 C99 1.446 . S
C101 C102 1.332 . S
C102 H82 0.931 . S
C102 C101 1.332 . S
C102 C103 1.267 . S
C103 H71 0.929 . S
C103 C102 1.267 . S
C103 C104 1.251 . S
C104 H74 0.929 . S
C104 N100 1.418 . S
C104 C103 1.251 . S
C105 H72 0.930 . S
C105 C107 1.406 . S
C105 C110 1.261 . S
C106 H73 0.920 1_545 S
C106 N108 1.360 . S
C106 C109 1.334 . S
C107 H75 0.928 . S
C107 C105 1.406 . S
C107 N108 1.261 . S
N108 Co59 2.214 . S
N108 C106 1.360 . S
N108 C107 1.261 . S
C109 H79 0.931 1_545 S
C109 C106 1.334 . S
C109 C110 1.312 . S
C110 H81 0.930 . S
C110 C105 1.261 . S
C110 C109 1.312 . S
C111 O83 1.214 . S
C111 O91 1.234 . S
C112 H84 0.929 . S
C112 C115 1.391 . S
C112 C117 1.391 . S
C113 H85 0.929 . S
C113 C114 1.390 . S
C113 N116 1.391 . S
C114 H86 0.930 . S
C114 C113 1.390 . S
C114 C115 1.392 . S
C115 H87 0.929 . S
C115 C112 1.391 . S
C115 C114 1.392 . S
N116 Co60 2.257 . S
N116 C113 1.391 . S
N116 C117 1.388 . S
C117 H88 0.930 . S
C117 C112 1.391 . S
C117 N116 1.388 . S
Co118 O120 2.143 . S
Co118 O126 2.074 . S
Co118 O129 2.093 1_655 S
Co118 O142 2.097 1_655 S
Co118 N159 2.151 . S
Co118 N167 2.214 . S
Co119 O120 2.160 . S
Co119 O125 2.062 . S
Co119 O135 2.057 . S
Co119 O150 2.036 1_655 S
Co119 N154 2.144 1_655 S
Co119 N175 2.253 1_655 S
O120 Co118 2.143 . S
O120 Co119 2.160 . S
C121 O122 1.278 . S
C121 O129 1.224 . S
O122 C121 1.278 . S
C123 O124 1.245 . S
C123 O135 1.232 . S
O124 C123 1.245 . S
O125 Co119 2.062 . S
O125 C151 1.269 . S
O126 Co118 2.074 . S
O126 C151 1.257 . S
H127 C152 0.930 . S
H128 C158 0.930 . S
O129 Co118 2.093 1_455 S
O129 C121 1.224 . S
H130 C162 0.929 . S
H131 C164 0.930 . S
H132 C165 0.920 1_455 S
H133 C163 0.929 . S
H134 C166 0.928 . S
O135 Co119 2.057 . S
O135 C123 1.232 . S
H136 C155 0.929 . S
H137 C156 0.925 . S
H138 C168 0.931 . S
H139 C160 0.929 . S
H140 C169 0.930 . S
H141 C161 0.931 . S
O142 Co118 2.097 1_455 S
O142 C170 1.214 . S
H143 C171 0.929 . S
H144 C172 0.929 . S
H145 C173 0.930 . S
H146 C174 0.929 . S
H147 C176 0.930 . S
H148 C153 0.930 . S
H149 C157 0.930 . S
O150 Co119 2.036 1_455 S
O150 C170 1.234 . S
C151 O125 1.269 . S
C151 O126 1.257 . S
C152 H127 0.930 . S
C152 C155 1.388 . S
C152 C157 1.418 . S
C153 H148 0.930 . S
C153 C156 1.404 . S
C153 C157 1.353 . S
N154 Co119 2.144 1_455 S
N154 C155 1.397 . S
N154 C156 1.334 . S
C155 H136 0.929 . S
C155 C152 1.388 . S
C155 N154 1.397 . S
C156 H137 0.925 . S
C156 C153 1.404 . S
C156 N154 1.334 . S
C157 H149 0.930 . S
C157 C152 1.418 . S
C157 C153 1.353 . S
C158 H128 0.930 . S
C158 N159 1.330 . S
C158 C160 1.446 . S
N159 Co118 2.151 . S
N159 C158 1.330 . S
N159 C163 1.418 . S
C160 H139 0.929 . S
C160 C158 1.446 . S
C160 C161 1.332 . S
C161 H141 0.931 . S
C161 C160 1.332 . S
C161 C162 1.267 . S
C162 H130 0.929 . S
C162 C161 1.267 . S
C162 C163 1.251 . S
C163 H133 0.929 . S
C163 N159 1.418 . S
C163 C162 1.251 . S
C164 H131 0.930 . S
C164 C166 1.406 . S
C164 C169 1.261 . S
C165 H132 0.920 1_655 S
C165 N167 1.325 . S
C165 C168 1.357 . S
C166 H134 0.928 . S
C166 C164 1.406 . S
C166 N167 1.261 . S
N167 Co118 2.214 . S
N167 C165 1.325 . S
N167 C166 1.261 . S
C168 H138 0.931 . S
C168 C165 1.357 . S
C168 C169 1.312 . S
C169 H140 0.930 . S
C169 C164 1.261 . S
C169 C168 1.312 . S
C170 O142 1.214 . S
C170 O150 1.234 . S
C171 H143 0.929 . S
C171 C174 1.391 . S
C171 C176 1.391 . S
C172 H144 0.929 . S
C172 C173 1.390 . S
C172 N175 1.391 . S
C173 H145 0.930 . S
C173 C172 1.390 . S
C173 C174 1.392 . S
C174 H146 0.929 . S
C174 C171 1.391 . S
C174 C173 1.392 . S
N175 Co119 2.253 1_455 S
N175 C172 1.391 . S
N175 C176 1.388 . S
C176 H147 0.930 . S
C176 C171 1.391 . S
C176 N175 1.388 . S
Co177 O179 2.143 . S
Co177 O185 2.074 . S
Co177 O188 2.093 . S
Co177 O201 2.097 . S
Co177 N218 2.151 . S
Co177 N226 2.214 . S
Co178 O179 2.160 . S
Co178 O184 2.058 . S
Co178 O194 2.057 . S
Co178 O209 2.037 . S
Co178 N213 2.145 . S
Co178 N234 2.257 . S
O179 Co177 2.143 . S
O179 Co178 2.160 . S
C180 O181 1.278 . S
C180 O188 1.224 . S
O181 C180 1.278 . S
C182 O183 1.245 . S
C182 O194 1.232 . S
O183 C182 1.245 . S
O184 Co178 2.058 . S
O184 C210 1.269 . S
O185 Co177 2.074 . S
O185 C210 1.257 . S
H186 C211 0.930 . S
H187 C217 0.930 . S
O188 Co177 2.093 . S
O188 C180 1.224 . S
H189 C221 0.929 . S
H190 C223 0.930 . S
H191 C224 0.930 . S
H192 C222 0.929 . S
H193 C225 0.928 . S
O194 Co178 2.057 . S
O194 C182 1.232 . S
H195 C214 0.929 . S
H196 C215 0.929 . S
H197 C227 0.931 . S
H198 C219 0.929 . S
H199 C228 0.930 . S
H200 C220 0.931 . S
O201 Co177 2.097 . S
O201 C229 1.214 . S
H202 C230 0.929 . S
H203 C231 0.929 . S
H204 C232 0.930 . S
H205 C233 0.929 . S
H206 C235 0.930 . S
H207 C212 0.930 . S
H208 C216 0.930 . S
O209 Co178 2.037 . S
O209 C229 1.234 . S
C210 O184 1.269 . S
C210 O185 1.257 . S
C211 H186 0.930 . S
C211 C214 1.388 . S
C211 C216 1.418 . S
C212 H207 0.930 . S
C212 C215 1.404 . S
C212 C216 1.353 . S
N213 Co178 2.145 . S
N213 C214 1.397 . S
N213 C215 1.334 . S
C214 H195 0.929 . S
C214 C211 1.388 . S
C214 N213 1.397 . S
C215 H196 0.929 . S
C215 C212 1.404 . S
C215 N213 1.334 . S
C216 H208 0.930 . S
C216 C211 1.418 . S
C216 C212 1.353 . S
C217 H187 0.930 . S
C217 N218 1.330 . S
C217 C219 1.446 . S
N218 Co177 2.151 . S
N218 C217 1.330 . S
N218 C222 1.418 . S
C219 H198 0.929 . S
C219 C217 1.446 . S
C219 C220 1.332 . S
C220 H200 0.931 . S
C220 C219 1.332 . S
C220 C221 1.267 . S
C221 H189 0.929 . S
C221 C220 1.267 . S
C221 C222 1.251 . S
C222 H192 0.929 . S
C222 N218 1.418 . S
C222 C221 1.251 . S
C223 H190 0.930 . S
C223 C225 1.406 . S
C223 C228 1.261 . S
C224 H191 0.930 . S
C224 N226 1.325 . S
C224 C227 1.357 . S
C225 H193 0.928 . S
C225 C223 1.406 . S
C225 N226 1.261 . S
N226 Co177 2.214 . S
N226 C224 1.325 . S
N226 C225 1.261 . S
C227 H197 0.931 . S
C227 C224 1.357 . S
C227 C228 1.312 . S
C228 H199 0.930 . S
C228 C223 1.261 . S
C228 C227 1.312 . S
C229 O201 1.214 . S
C229 O209 1.234 . S
C230 H202 0.929 . S
C230 C233 1.391 . S
C230 C235 1.391 . S
C231 H203 0.929 . S
C231 C232 1.390 . S
C231 N234 1.391 . S
C232 H204 0.930 . S
C232 C231 1.390 . S
C232 C233 1.392 . S
C233 H205 0.929 . S
C233 C230 1.391 . S
C233 C232 1.392 . S
N234 Co178 2.257 . S
N234 C231 1.391 . S
N234 C235 1.388 . S
C235 H206 0.930 . S
C235 C230 1.391 . S
C235 N234 1.388 . S
Co236 O238 2.143 . S
Co236 O244 2.074 . S
Co236 O247 2.093 1_565 S
Co236 O260 2.097 1_565 S
Co236 N277 2.151 . S
Co236 N285 2.214 . S
Co237 O238 2.160 . S
Co237 O243 2.062 . S
Co237 O253 2.057 . S
Co237 O268 2.036 1_565 S
Co237 N272 2.144 1_565 S
Co237 N293 2.253 1_565 S
O238 Co236 2.143 . S
O238 Co237 2.160 . S
C239 O240 1.278 . S
C239 O247 1.224 . S
O240 C239 1.278 . S
C241 O242 1.245 . S
C241 O253 1.232 . S
O242 C241 1.245 . S
O243 Co237 2.062 . S
O243 C269 1.269 . S
O244 Co236 2.074 . S
O244 C269 1.257 . S
H245 C270 0.930 . S
H246 C276 0.930 . S
O247 Co236 2.093 1_545 S
O247 C239 1.224 . S
H248 C280 0.929 . S
H249 C282 0.930 . S
H250 C283 0.920 1_545 S
H251 C281 0.929 . S
H252 C284 0.928 . S
O253 Co237 2.057 . S
O253 C241 1.232 . S
H254 C273 0.929 . S
H255 C274 0.925 . S
H256 C286 0.931 . S
H257 C278 0.929 . S
H258 C287 0.930 . S
H259 C279 0.931 . S
O260 Co236 2.097 1_545 S
O260 C288 1.214 . S
H261 C289 0.929 . S
H262 C290 0.929 . S
H263 C291 0.930 . S
H264 C292 0.929 . S
H265 C294 0.930 . S
H266 C271 0.930 . S
H267 C275 0.930 . S
O268 Co237 2.036 1_545 S
O268 C288 1.234 . S
C269 O243 1.269 . S
C269 O244 1.257 . S
C270 H245 0.930 . S
C270 C273 1.388 . S
C270 C275 1.418 . S
C271 H266 0.930 . S
C271 C274 1.404 . S
C271 C275 1.353 . S
N272 Co237 2.144 1_545 S
N272 C273 1.397 . S
N272 C274 1.334 . S
C273 H254 0.929 . S
C273 C270 1.388 . S
C273 N272 1.397 . S
C274 H255 0.925 . S
C274 C271 1.404 . S
C274 N272 1.334 . S
C275 H267 0.930 . S
C275 C270 1.418 . S
C275 C271 1.353 . S
C276 H246 0.930 . S
C276 N277 1.330 . S
C276 C278 1.446 . S
N277 Co236 2.151 . S
N277 C276 1.330 . S
N277 C281 1.418 . S
C278 H257 0.929 . S
C278 C276 1.446 . S
C278 C279 1.332 . S
C279 H259 0.931 . S
C279 C278 1.332 . S
C279 C280 1.267 . S
C280 H248 0.929 . S
C280 C279 1.267 . S
C280 C281 1.251 . S
C281 H251 0.929 . S
C281 N277 1.418 . S
C281 C280 1.251 . S
C282 H249 0.930 . S
C282 C284 1.406 . S
C282 C287 1.261 . S
C283 H250 0.920 1_565 S
C283 N285 1.325 . S
C283 C286 1.357 . S
C284 H252 0.928 . S
C284 C282 1.406 . S
C284 N285 1.261 . S
N285 Co236 2.214 . S
N285 C283 1.325 . S
N285 C284 1.261 . S
C286 H256 0.931 . S
C286 C283 1.357 . S
C286 C287 1.312 . S
C287 H258 0.930 . S
C287 C282 1.261 . S
C287 C286 1.312 . S
C288 O260 1.214 . S
C288 O268 1.234 . S
C289 H261 0.929 . S
C289 C292 1.391 . S
C289 C294 1.391 . S
C290 H262 0.929 . S
C290 C291 1.390 . S
C290 N293 1.391 . S
C291 H263 0.930 . S
C291 C290 1.390 . S
C291 C292 1.392 . S
C292 H264 0.929 . S
C292 C289 1.391 . S
C292 C291 1.392 . S
N293 Co237 2.253 1_545 S
N293 C290 1.391 . S
N293 C294 1.388 . S
C294 H265 0.930 . S
C294 C289 1.391 . S
C294 N293 1.388 . S
Co295 O297 2.143 . S
Co295 O303 2.074 . S
Co295 O306 2.093 1_455 S
Co295 O319 2.097 1_455 S
Co295 N336 2.151 . S
Co295 N344 2.214 . S
Co296 O297 2.160 1_655 S
Co296 O302 2.058 1_655 S
Co296 O312 2.057 1_655 S
Co296 O327 2.037 . S
Co296 N331 2.145 . S
Co296 N352 2.257 . S
O297 Co295 2.143 . S
O297 Co296 2.160 1_455 S
C298 O299 1.278 . S
C298 O306 1.224 . S
O299 C298 1.278 . S
C300 O301 1.245 . S
C300 O312 1.232 . S
O301 C300 1.245 . S
O302 Co296 2.058 1_455 S
O302 C328 1.269 . S
O303 Co295 2.074 . S
O303 C328 1.257 . S
H304 C329 0.930 . S
H305 C335 0.930 . S
O306 Co295 2.093 1_655 S
O306 C298 1.224 . S
H307 C339 0.929 . S
H308 C341 0.930 . S
H309 C342 0.920 1_655 S
H310 C340 0.929 . S
H311 C343 0.928 . S
O312 Co296 2.057 1_455 S
O312 C300 1.232 . S
H313 C332 0.929 . S
H314 C333 0.929 . S
H315 C345 0.931 1_655 S
H316 C337 0.929 . S
H317 C346 0.930 . S
H318 C338 0.931 . S
O319 Co295 2.097 1_655 S
O319 C347 1.214 . S
H320 C348 0.929 . S
H321 C349 0.929 . S
H322 C350 0.930 . S
H323 C351 0.929 . S
H324 C353 0.930 . S
H325 C330 0.930 . S
H326 C334 0.930 . S
O327 Co296 2.037 . S
O327 C347 1.234 . S
C328 O302 1.269 . S
C328 O303 1.257 . S
C329 H304 0.930 . S
C329 C332 1.388 . S
C329 C334 1.418 . S
C330 H325 0.930 . S
C330 C333 1.404 . S
C330 C334 1.353 . S
N331 Co296 2.145 . S
N331 C332 1.397 . S
N331 C333 1.334 . S
C332 H313 0.929 . S
C332 C329 1.388 . S
C332 N331 1.397 . S
C333 H314 0.929 . S
C333 C330 1.404 . S
C333 N331 1.334 . S
C334 H326 0.930 . S
C334 C329 1.418 . S
C334 C330 1.353 . S
C335 H305 0.930 . S
C335 N336 1.330 . S
C335 C337 1.446 . S
N336 Co295 2.151 . S
N336 C335 1.330 . S
N336 C340 1.418 . S
C337 H316 0.929 . S
C337 C335 1.446 . S
C337 C338 1.332 . S
C338 H318 0.931 . S
C338 C337 1.332 . S
C338 C339 1.267 . S
C339 H307 0.929 . S
C339 C338 1.267 . S
C339 C340 1.251 . S
C340 H310 0.929 . S
C340 N336 1.418 . S
C340 C339 1.251 . S
C341 H308 0.930 . S
C341 C343 1.406 . S
C341 C346 1.261 . S
C342 H309 0.920 1_455 S
C342 N344 1.360 . S
C342 C345 1.334 . S
C343 H311 0.928 . S
C343 C341 1.406 . S
C343 N344 1.261 . S
N344 Co295 2.214 . S
N344 C342 1.360 . S
N344 C343 1.261 . S
C345 H315 0.931 1_455 S
C345 C342 1.334 . S
C345 C346 1.312 . S
C346 H317 0.930 . S
C346 C341 1.261 . S
C346 C345 1.312 . S
C347 O319 1.214 . S
C347 O327 1.234 . S
C348 H320 0.929 . S
C348 C351 1.391 . S
C348 C353 1.391 . S
C349 H321 0.929 . S
C349 C350 1.390 . S
C349 N352 1.391 . S
C350 H322 0.930 . S
C350 C349 1.390 . S
C350 C351 1.392 . S
C351 H323 0.929 . S
C351 C348 1.391 . S
C351 C350 1.392 . S
N352 Co296 2.257 . S
N352 C349 1.391 . S
N352 C353 1.388 . S
C353 H324 0.930 . S
C353 C348 1.391 . S
C353 N352 1.388 . S
Co354 O356 2.143 . S
Co354 O362 2.074 . S
Co354 O365 2.093 . S
Co354 O378 2.097 . S
Co354 N395 2.151 . S
Co354 N403 2.214 . S
Co355 O356 2.160 . S
Co355 O361 2.058 . S
Co355 O371 2.057 . S
Co355 O386 2.037 . S
Co355 N390 2.145 . S
Co355 N411 2.257 . S
O356 Co354 2.143 . S
O356 Co355 2.160 . S
C357 O358 1.278 . S
C357 O365 1.224 . S
O358 C357 1.278 . S
C359 O360 1.245 . S
C359 O371 1.232 . S
O360 C359 1.245 . S
O361 Co355 2.058 . S
O361 C387 1.269 . S
O362 Co354 2.074 . S
O362 C387 1.257 . S
H363 C388 0.930 . S
H364 C394 0.930 . S
O365 Co354 2.093 . S
O365 C357 1.224 . S
H366 C398 0.929 . S
H367 C400 0.930 . S
H368 C401 0.930 . S
H369 C399 0.929 . S
H370 C402 0.928 . S
O371 Co355 2.057 . S
O371 C359 1.232 . S
H372 C391 0.929 . S
H373 C392 0.929 . S
H374 C404 0.931 . S
H375 C396 0.929 . S
H376 C405 0.930 . S
H377 C397 0.931 . S
O378 Co354 2.097 . S
O378 C406 1.214 . S
H379 C407 0.929 . S
H380 C408 0.929 . S
H381 C409 0.930 . S
H382 C410 0.929 . S
H383 C412 0.930 . S
H384 C389 0.930 . S
H385 C393 0.930 . S
O386 Co355 2.037 . S
O386 C406 1.234 . S
C387 O361 1.269 . S
C387 O362 1.257 . S
C388 H363 0.930 . S
C388 C391 1.388 . S
C388 C393 1.418 . S
C389 H384 0.930 . S
C389 C392 1.404 . S
C389 C393 1.353 . S
N390 Co355 2.145 . S
N390 C391 1.397 . S
N390 C392 1.334 . S
C391 H372 0.929 . S
C391 C388 1.388 . S
C391 N390 1.397 . S
C392 H373 0.929 . S
C392 C389 1.404 . S
C392 N390 1.334 . S
C393 H385 0.930 . S
C393 C388 1.418 . S
C393 C389 1.353 . S
C394 H364 0.930 . S
C394 N395 1.330 . S
C394 C396 1.446 . S
N395 Co354 2.151 . S
N395 C394 1.330 . S
N395 C399 1.418 . S
C396 H375 0.929 . S
C396 C394 1.446 . S
C396 C397 1.332 . S
C397 H377 0.931 . S
C397 C396 1.332 . S
C397 C398 1.267 . S
C398 H366 0.929 . S
C398 C397 1.267 . S
C398 C399 1.251 . S
C399 H369 0.929 . S
C399 N395 1.418 . S
C399 C398 1.251 . S
C400 H367 0.930 . S
C400 C402 1.406 . S
C400 C405 1.261 . S
C401 H368 0.930 . S
C401 N403 1.325 . S
C401 C404 1.357 . S
C402 H370 0.928 . S
C402 C400 1.406 . S
C402 N403 1.261 . S
N403 Co354 2.214 . S
N403 C401 1.325 . S
N403 C402 1.261 . S
C404 H374 0.931 . S
C404 C401 1.357 . S
C404 C405 1.312 . S
C405 H376 0.930 . S
C405 C400 1.261 . S
C405 C404 1.312 . S
C406 O378 1.214 . S
C406 O386 1.234 . S
C407 H379 0.929 . S
C407 C410 1.391 . S
C407 C412 1.391 . S
C408 H380 0.929 . S
C408 C409 1.390 . S
C408 N411 1.391 . S
C409 H381 0.930 . S
C409 C408 1.390 . S
C409 C410 1.392 . S
C410 H382 0.929 . S
C410 C407 1.391 . S
C410 C409 1.392 . S
N411 Co355 2.257 . S
N411 C408 1.391 . S
N411 C412 1.388 . S
C412 H383 0.930 . S
C412 C407 1.391 . S
C412 N411 1.388 . S
Co413 O415 2.143 . S
Co413 O421 2.074 . S
Co413 O424 2.093 . S
Co413 O437 2.097 . S
Co413 N454 2.151 . S
Co413 N462 2.214 . S
Co414 O415 2.160 . S
Co414 O420 2.058 . S
Co414 O430 2.057 . S
Co414 O445 2.037 . S
Co414 N449 2.145 . S
Co414 N470 2.257 . S
O415 Co413 2.143 . S
O415 Co414 2.160 . S
C416 O417 1.278 . S
C416 O424 1.224 . S
O417 C416 1.278 . S
C418 O419 1.245 . S
C418 O430 1.232 . S
O419 C418 1.245 . S
O420 Co414 2.058 . S
O420 C446 1.269 . S
O421 Co413 2.074 . S
O421 C446 1.257 . S
H422 C447 0.930 . S
H423 C453 0.930 . S
O424 Co413 2.093 . S
O424 C416 1.224 . S
H425 C457 0.929 . S
H426 C459 0.930 . S
H427 C460 0.930 . S
H428 C458 0.929 . S
H429 C461 0.928 . S
O430 Co414 2.057 . S
O430 C418 1.232 . S
H431 C450 0.929 . S
H432 C451 0.929 . S
H433 C463 0.931 . S
H434 C455 0.929 . S
H435 C464 0.930 . S
H436 C456 0.931 . S
O437 Co413 2.097 . S
O437 C465 1.214 . S
H438 C466 0.929 . S
H439 C467 0.929 . S
H440 C468 0.930 . S
H441 C469 0.929 . S
H442 C471 0.930 . S
H443 C448 0.930 . S
H444 C452 0.930 . S
O445 Co414 2.037 . S
O445 C465 1.234 . S
C446 O420 1.269 . S
C446 O421 1.257 . S
C447 H422 0.930 . S
C447 C450 1.388 . S
C447 C452 1.418 . S
C448 H443 0.930 . S
C448 C451 1.404 . S
C448 C452 1.353 . S
N449 Co414 2.145 . S
N449 C450 1.397 . S
N449 C451 1.334 . S
C450 H431 0.929 . S
C450 C447 1.388 . S
C450 N449 1.397 . S
C451 H432 0.929 . S
C451 C448 1.404 . S
C451 N449 1.334 . S
C452 H444 0.930 . S
C452 C447 1.418 . S
C452 C448 1.353 . S
C453 H423 0.930 . S
C453 N454 1.330 . S
C453 C455 1.446 . S
N454 Co413 2.151 . S
N454 C453 1.330 . S
N454 C458 1.418 . S
C455 H434 0.929 . S
C455 C453 1.446 . S
C455 C456 1.332 . S
C456 H436 0.931 . S
C456 C455 1.332 . S
C456 C457 1.267 . S
C457 H425 0.929 . S
C457 C456 1.267 . S
C457 C458 1.251 . S
C458 H428 0.929 . S
C458 N454 1.418 . S
C458 C457 1.251 . S
C459 H426 0.930 . S
C459 C461 1.406 . S
C459 C464 1.261 . S
C460 H427 0.930 . S
C460 N462 1.325 . S
C460 C463 1.357 . S
C461 H429 0.928 . S
C461 C459 1.406 . S
C461 N462 1.261 . S
N462 Co413 2.214 . S
N462 C460 1.325 . S
N462 C461 1.261 . S
C463 H433 0.931 . S
C463 C460 1.357 . S
C463 C464 1.312 . S
C464 H435 0.930 . S
C464 C459 1.261 . S
C464 C463 1.312 . S
C465 O437 1.214 . S
C465 O445 1.234 . S
C466 H438 0.929 . S
C466 C469 1.391 . S
C466 C471 1.391 . S
C467 H439 0.929 . S
C467 C468 1.390 . S
C467 N470 1.391 . S
C468 H440 0.930 . S
C468 C467 1.390 . S
C468 C469 1.392 . S
C469 H441 0.929 . S
C469 C466 1.391 . S
C469 C468 1.392 . S
N470 Co414 2.257 . S
N470 C467 1.391 . S
N470 C471 1.388 . S
C471 H442 0.930 . S
C471 C466 1.391 . S
C471 N470 1.388 . S
Co472 O474 2.143 . S
Co472 O480 2.074 . S
Co472 O483 2.093 . S
Co472 O496 2.097 . S
Co472 N513 2.151 . S
Co472 N521 2.214 . S
Co473 O474 2.160 . S
Co473 O479 2.058 . S
Co473 O489 2.057 . S
Co473 O504 2.037 . S
Co473 N508 2.145 . S
Co473 N529 2.257 . S
O474 Co472 2.143 . S
O474 Co473 2.160 . S
C475 O476 1.278 . S
C475 O483 1.224 . S
O476 C475 1.278 . S
C477 O478 1.245 . S
C477 O489 1.232 . S
O478 C477 1.245 . S
O479 Co473 2.058 . S
O479 C505 1.269 . S
O480 Co472 2.074 . S
O480 C505 1.257 . S
H481 C506 0.930 . S
H482 C512 0.930 . S
O483 Co472 2.093 . S
O483 C475 1.224 . S
H484 C516 0.929 . S
H485 C518 0.930 . S
H486 C519 0.930 . S
H487 C517 0.929 . S
H488 C520 0.928 . S
O489 Co473 2.057 . S
O489 C477 1.232 . S
H490 C509 0.929 . S
H491 C510 0.929 . S
H492 C522 0.931 . S
H493 C514 0.929 . S
H494 C523 0.930 . S
H495 C515 0.931 . S
O496 Co472 2.097 . S
O496 C524 1.214 . S
H497 C525 0.929 . S
H498 C526 0.929 . S
H499 C527 0.930 . S
H500 C528 0.929 . S
H501 C530 0.930 . S
H502 C507 0.930 . S
H503 C511 0.930 . S
O504 Co473 2.037 . S
O504 C524 1.234 . S
C505 O479 1.269 . S
C505 O480 1.257 . S
C506 H481 0.930 . S
C506 C509 1.388 . S
C506 C511 1.418 . S
C507 H502 0.930 . S
C507 C510 1.404 . S
C507 C511 1.353 . S
N508 Co473 2.145 . S
N508 C509 1.397 . S
N508 C510 1.334 . S
C509 H490 0.929 . S
C509 C506 1.388 . S
C509 N508 1.397 . S
C510 H491 0.929 . S
C510 C507 1.404 . S
C510 N508 1.334 . S
C511 H503 0.930 . S
C511 C506 1.418 . S
C511 C507 1.353 . S
C512 H482 0.930 . S
C512 N513 1.330 . S
C512 C514 1.446 . S
N513 Co472 2.151 . S
N513 C512 1.330 . S
N513 C517 1.418 . S
C514 H493 0.929 . S
C514 C512 1.446 . S
C514 C515 1.332 . S
C515 H495 0.931 . S
C515 C514 1.332 . S
C515 C516 1.267 . S
C516 H484 0.929 . S
C516 C515 1.267 . S
C516 C517 1.251 . S
C517 H487 0.929 . S
C517 N513 1.418 . S
C517 C516 1.251 . S
C518 H485 0.930 . S
C518 C520 1.406 . S
C518 C523 1.261 . S
C519 H486 0.930 . S
C519 N521 1.325 . S
C519 C522 1.357 . S
C520 H488 0.928 . S
C520 C518 1.406 . S
C520 N521 1.261 . S
N521 Co472 2.214 . S
N521 C519 1.325 . S
N521 C520 1.261 . S
C522 H492 0.931 . S
C522 C519 1.357 . S
C522 C523 1.312 . S
C523 H494 0.930 . S
C523 C518 1.261 . S
C523 C522 1.312 . S
C524 O496 1.214 . S
C524 O504 1.234 . S
C525 H497 0.929 . S
C525 C528 1.391 . S
C525 C530 1.391 . S
C526 H498 0.929 . S
C526 C527 1.390 . S
C526 N529 1.391 . S
C527 H499 0.930 . S
C527 C526 1.390 . S
C527 C528 1.392 . S
C528 H500 0.929 . S
C528 C525 1.391 . S
C528 C527 1.392 . S
N529 Co473 2.257 . S
N529 C526 1.391 . S
N529 C530 1.388 . S
C530 H501 0.930 . S
C530 C525 1.391 . S
C530 N529 1.388 . S
Co531 O533 2.143 . S
Co531 O539 2.074 . S
Co531 O542 2.093 . S
Co531 O555 2.097 . S
Co531 N572 2.151 . S
Co531 N580 2.214 . S
Co532 O533 2.160 . S
Co532 O538 2.058 . S
Co532 O548 2.057 . S
Co532 O563 2.037 . S
Co532 N567 2.145 . S
Co532 N588 2.257 . S
O533 Co531 2.143 . S
O533 Co532 2.160 . S
C534 O535 1.278 . S
C534 O542 1.224 . S
O535 C534 1.278 . S
C536 O537 1.245 . S
C536 O548 1.232 . S
O537 C536 1.245 . S
O538 Co532 2.058 . S
O538 C564 1.269 . S
O539 Co531 2.074 . S
O539 C564 1.257 . S
H540 C565 0.930 . S
H541 C571 0.930 . S
O542 Co531 2.093 . S
O542 C534 1.224 . S
H543 C575 0.929 . S
H544 C577 0.930 . S
H545 C578 0.930 . S
H546 C576 0.929 . S
H547 C579 0.928 . S
O548 Co532 2.057 . S
O548 C536 1.232 . S
H549 C568 0.929 . S
H550 C569 0.929 . S
H551 C581 0.931 . S
H552 C573 0.929 . S
H553 C582 0.930 . S
H554 C574 0.931 . S
O555 Co531 2.097 . S
O555 C583 1.214 . S
H556 C584 0.929 . S
H557 C585 0.929 . S
H558 C586 0.930 . S
H559 C587 0.929 . S
H560 C589 0.930 . S
H561 C566 0.930 . S
H562 C570 0.930 . S
O563 Co532 2.037 . S
O563 C583 1.234 . S
C564 O538 1.269 . S
C564 O539 1.257 . S
C565 H540 0.930 . S
C565 C568 1.388 . S
C565 C570 1.418 . S
C566 H561 0.930 . S
C566 C569 1.404 . S
C566 C570 1.353 . S
N567 Co532 2.145 . S
N567 C568 1.397 . S
N567 C569 1.334 . S
C568 H549 0.929 . S
C568 C565 1.388 . S
C568 N567 1.397 . S
C569 H550 0.929 . S
C569 C566 1.404 . S
C569 N567 1.334 . S
C570 H562 0.930 . S
C570 C565 1.418 . S
C570 C566 1.353 . S
C571 H541 0.930 . S
C571 N572 1.330 . S
C571 C573 1.446 . S
N572 Co531 2.151 . S
N572 C571 1.330 . S
N572 C576 1.418 . S
C573 H552 0.929 . S
C573 C571 1.446 . S
C573 C574 1.332 . S
C574 H554 0.931 . S
C574 C573 1.332 . S
C574 C575 1.267 . S
C575 H543 0.929 . S
C575 C574 1.267 . S
C575 C576 1.251 . S
C576 H546 0.929 . S
C576 N572 1.418 . S
C576 C575 1.251 . S
C577 H544 0.930 . S
C577 C579 1.406 . S
C577 C582 1.261 . S
C578 H545 0.930 . S
C578 N580 1.325 . S
C578 C581 1.357 . S
C579 H547 0.928 . S
C579 C577 1.406 . S
C579 N580 1.261 . S
N580 Co531 2.214 . S
N580 C578 1.325 . S
N580 C579 1.261 . S
C581 H551 0.931 . S
C581 C578 1.357 . S
C581 C582 1.312 . S
C582 H553 0.930 . S
C582 C577 1.261 . S
C582 C581 1.312 . S
C583 O555 1.214 . S
C583 O563 1.234 . S
C584 H556 0.929 . S
C584 C587 1.391 . S
C584 C589 1.391 . S
C585 H557 0.929 . S
C585 C586 1.390 . S
C585 N588 1.391 . S
C586 H558 0.930 . S
C586 C585 1.390 . S
C586 C587 1.392 . S
C587 H559 0.929 . S
C587 C584 1.391 . S
C587 C586 1.392 . S
N588 Co532 2.257 . S
N588 C585 1.391 . S
N588 C589 1.388 . S
C589 H560 0.930 . S
C589 C584 1.391 . S
C589 N588 1.388 . S
Co590 O592 2.143 . S
Co590 O598 2.074 . S
Co590 O601 2.093 . S
Co590 O614 2.097 . S
Co590 N631 2.151 . S
Co590 N639 2.214 . S
Co591 O592 2.160 . S
Co591 O597 2.058 . S
Co591 O607 2.057 . S
Co591 O622 2.037 . S
Co591 N626 2.145 . S
Co591 N647 2.257 . S
O592 Co590 2.143 . S
O592 Co591 2.160 . S
C593 O594 1.278 . S
C593 O601 1.224 . S
O594 C593 1.278 . S
C595 O596 1.245 . S
C595 O607 1.232 . S
O596 C595 1.245 . S
O597 Co591 2.058 . S
O597 C623 1.269 . S
O598 Co590 2.074 . S
O598 C623 1.257 . S
H599 C624 0.930 . S
H600 C630 0.930 . S
O601 Co590 2.093 . S
O601 C593 1.224 . S
H602 C634 0.929 . S
H603 C636 0.930 . S
H604 C637 0.930 . S
H605 C635 0.929 . S
H606 C638 0.928 . S
O607 Co591 2.057 . S
O607 C595 1.232 . S
H608 C627 0.929 . S
H609 C628 0.929 . S
H610 C640 0.931 . S
H611 C632 0.929 . S
H612 C641 0.930 . S
H613 C633 0.931 . S
O614 Co590 2.097 . S
O614 C642 1.214 . S
H615 C643 0.929 . S
H616 C644 0.929 . S
H617 C645 0.930 . S
H618 C646 0.929 . S
H619 C648 0.930 . S
H620 C625 0.930 . S
H621 C629 0.930 . S
O622 Co591 2.037 . S
O622 C642 1.234 . S
C623 O597 1.269 . S
C623 O598 1.257 . S
C624 H599 0.930 . S
C624 C627 1.388 . S
C624 C629 1.418 . S
C625 H620 0.930 . S
C625 C628 1.404 . S
C625 C629 1.353 . S
N626 Co591 2.145 . S
N626 C627 1.397 . S
N626 C628 1.334 . S
C627 H608 0.929 . S
C627 C624 1.388 . S
C627 N626 1.397 . S
C628 H609 0.929 . S
C628 C625 1.404 . S
C628 N626 1.334 . S
C629 H621 0.930 . S
C629 C624 1.418 . S
C629 C625 1.353 . S
C630 H600 0.930 . S
C630 N631 1.330 . S
C630 C632 1.446 . S
N631 Co590 2.151 . S
N631 C630 1.330 . S
N631 C635 1.418 . S
C632 H611 0.929 . S
C632 C630 1.446 . S
C632 C633 1.332 . S
C633 H613 0.931 . S
C633 C632 1.332 . S
C633 C634 1.267 . S
C634 H602 0.929 . S
C634 C633 1.267 . S
C634 C635 1.251 . S
C635 H605 0.929 . S
C635 N631 1.418 . S
C635 C634 1.251 . S
C636 H603 0.930 . S
C636 C638 1.406 . S
C636 C641 1.261 . S
C637 H604 0.930 . S
C637 N639 1.325 . S
C637 C640 1.357 . S
C638 H606 0.928 . S
C638 C636 1.406 . S
C638 N639 1.261 . S
N639 Co590 2.214 . S
N639 C637 1.325 . S
N639 C638 1.261 . S
C640 H610 0.931 . S
C640 C637 1.357 . S
C640 C641 1.312 . S
C641 H612 0.930 . S
C641 C636 1.261 . S
C641 C640 1.312 . S
C642 O614 1.214 . S
C642 O622 1.234 . S
C643 H615 0.929 . S
C643 C646 1.391 . S
C643 C648 1.391 . S
C644 H616 0.929 . S
C644 C645 1.390 . S
C644 N647 1.391 . S
C645 H617 0.930 . S
C645 C644 1.390 . S
C645 C646 1.392 . S
C646 H618 0.929 . S
C646 C643 1.391 . S
C646 C645 1.392 . S
N647 Co591 2.257 . S
N647 C644 1.391 . S
N647 C648 1.388 . S
C648 H619 0.930 . S
C648 C643 1.391 . S
C648 N647 1.388 . S
Co649 O651 2.143 . S
Co649 O657 2.074 . S
Co649 O660 2.093 . S
Co649 O673 2.097 . S
Co649 N690 2.151 . S
Co649 N698 2.214 . S
Co650 O651 2.160 . S
Co650 O656 2.058 . S
Co650 O666 2.057 . S
Co650 O681 2.037 . S
Co650 N685 2.145 . S
Co650 N706 2.257 . S
O651 Co649 2.143 . S
O651 Co650 2.160 . S
C652 O653 1.278 . S
C652 O660 1.224 . S
O653 C652 1.278 . S
C654 O655 1.245 . S
C654 O666 1.232 . S
O655 C654 1.245 . S
O656 Co650 2.058 . S
O656 C682 1.269 . S
O657 Co649 2.074 . S
O657 C682 1.257 . S
H658 C683 0.930 . S
H659 C689 0.930 . S
O660 Co649 2.093 . S
O660 C652 1.224 . S
H661 C693 0.929 . S
H662 C695 0.930 . S
H663 C696 0.930 . S
H664 C694 0.929 . S
H665 C697 0.928 . S
O666 Co650 2.057 . S
O666 C654 1.232 . S
H667 C686 0.929 . S
H668 C687 0.929 . S
H669 C699 0.931 . S
H670 C691 0.929 . S
H671 C700 0.930 . S
H672 C692 0.931 . S
O673 Co649 2.097 . S
O673 C701 1.214 . S
H674 C702 0.929 . S
H675 C703 0.929 . S
H676 C704 0.930 . S
H677 C705 0.929 . S
H678 C707 0.930 . S
H679 C684 0.930 . S
H680 C688 0.930 . S
O681 Co650 2.037 . S
O681 C701 1.234 . S
C682 O656 1.269 . S
C682 O657 1.257 . S
C683 H658 0.930 . S
C683 C686 1.388 . S
C683 C688 1.418 . S
C684 H679 0.930 . S
C684 C687 1.404 . S
C684 C688 1.353 . S
N685 Co650 2.145 . S
N685 C686 1.397 . S
N685 C687 1.334 . S
C686 H667 0.929 . S
C686 C683 1.388 . S
C686 N685 1.397 . S
C687 H668 0.929 . S
C687 C684 1.404 . S
C687 N685 1.334 . S
C688 H680 0.930 . S
C688 C683 1.418 . S
C688 C684 1.353 . S
C689 H659 0.930 . S
C689 N690 1.330 . S
C689 C691 1.446 . S
N690 Co649 2.151 . S
N690 C689 1.330 . S
N690 C694 1.418 . S
C691 H670 0.929 . S
C691 C689 1.446 . S
C691 C692 1.332 . S
C692 H672 0.931 . S
C692 C691 1.332 . S
C692 C693 1.267 . S
C693 H661 0.929 . S
C693 C692 1.267 . S
C693 C694 1.251 . S
C694 H664 0.929 . S
C694 N690 1.418 . S
C694 C693 1.251 . S
C695 H662 0.930 . S
C695 C697 1.406 . S
C695 C700 1.261 . S
C696 H663 0.930 . S
C696 N698 1.325 . S
C696 C699 1.357 . S
C697 H665 0.928 . S
C697 C695 1.406 . S
C697 N698 1.261 . S
N698 Co649 2.214 . S
N698 C696 1.325 . S
N698 C697 1.261 . S
C699 H669 0.931 . S
C699 C696 1.357 . S
C699 C700 1.312 . S
C700 H671 0.930 . S
C700 C695 1.261 . S
C700 C699 1.312 . S
C701 O673 1.214 . S
C701 O681 1.234 . S
C702 H674 0.929 . S
C702 C705 1.391 . S
C702 C707 1.391 . S
C703 H675 0.929 . S
C703 C704 1.390 . S
C703 N706 1.391 . S
C704 H676 0.930 . S
C704 C703 1.390 . S
C704 C705 1.392 . S
C705 H677 0.929 . S
C705 C702 1.391 . S
C705 C704 1.392 . S
N706 Co650 2.257 . S
N706 C703 1.391 . S
N706 C707 1.388 . S
C707 H678 0.930 . S
C707 C702 1.391 . S
C707 N706 1.388 . S
Co708 O710 2.143 . S
Co708 O716 2.074 . S
Co708 O719 2.093 . S
Co708 O732 2.097 . S
Co708 N749 2.151 . S
Co708 N757 2.214 . S
Co709 O710 2.160 . S
Co709 O715 2.058 . S
Co709 O725 2.057 . S
Co709 O740 2.037 . S
Co709 N744 2.145 . S
Co709 N765 2.257 . S
O710 Co708 2.143 . S
O710 Co709 2.160 . S
C711 O712 1.278 . S
C711 O719 1.224 . S
O712 C711 1.278 . S
C713 O714 1.245 . S
C713 O725 1.232 . S
O714 C713 1.245 . S
O715 Co709 2.058 . S
O715 C741 1.269 . S
O716 Co708 2.074 . S
O716 C741 1.257 . S
H717 C742 0.930 . S
H718 C748 0.930 . S
O719 Co708 2.093 . S
O719 C711 1.224 . S
H720 C752 0.929 . S
H721 C754 0.930 . S
H722 C755 0.930 . S
H723 C753 0.929 . S
H724 C756 0.928 . S
O725 Co709 2.057 . S
O725 C713 1.232 . S
H726 C745 0.929 . S
H727 C746 0.929 . S
H728 C758 0.931 . S
H729 C750 0.929 . S
H730 C759 0.930 . S
H731 C751 0.931 . S
O732 Co708 2.097 . S
O732 C760 1.214 . S
H733 C761 0.929 . S
H734 C762 0.929 . S
H735 C763 0.930 . S
H736 C764 0.929 . S
H737 C766 0.930 . S
H738 C743 0.930 . S
H739 C747 0.930 . S
O740 Co709 2.037 . S
O740 C760 1.234 . S
C741 O715 1.269 . S
C741 O716 1.257 . S
C742 H717 0.930 . S
C742 C745 1.388 . S
C742 C747 1.418 . S
C743 H738 0.930 . S
C743 C746 1.404 . S
C743 C747 1.353 . S
N744 Co709 2.145 . S
N744 C745 1.397 . S
N744 C746 1.334 . S
C745 H726 0.929 . S
C745 C742 1.388 . S
C745 N744 1.397 . S
C746 H727 0.929 . S
C746 C743 1.404 . S
C746 N744 1.334 . S
C747 H739 0.930 . S
C747 C742 1.418 . S
C747 C743 1.353 . S
C748 H718 0.930 . S
C748 N749 1.330 . S
C748 C750 1.446 . S
N749 Co708 2.151 . S
N749 C748 1.330 . S
N749 C753 1.418 . S
C750 H729 0.929 . S
C750 C748 1.446 . S
C750 C751 1.332 . S
C751 H731 0.931 . S
C751 C750 1.332 . S
C751 C752 1.267 . S
C752 H720 0.929 . S
C752 C751 1.267 . S
C752 C753 1.251 . S
C753 H723 0.929 . S
C753 N749 1.418 . S
C753 C752 1.251 . S
C754 H721 0.930 . S
C754 C756 1.406 . S
C754 C759 1.261 . S
C755 H722 0.930 . S
C755 N757 1.325 . S
C755 C758 1.357 . S
C756 H724 0.928 . S
C756 C754 1.406 . S
C756 N757 1.261 . S
N757 Co708 2.214 . S
N757 C755 1.325 . S
N757 C756 1.261 . S
C758 H728 0.931 . S
C758 C755 1.357 . S
C758 C759 1.312 . S
C759 H730 0.930 . S
C759 C754 1.261 . S
C759 C758 1.312 . S
C760 O732 1.214 . S
C760 O740 1.234 . S
C761 H733 0.929 . S
C761 C764 1.391 . S
C761 C766 1.391 . S
C762 H734 0.929 . S
C762 C763 1.390 . S
C762 N765 1.391 . S
C763 H735 0.930 . S
C763 C762 1.390 . S
C763 C764 1.392 . S
C764 H736 0.929 . S
C764 C761 1.391 . S
C764 C763 1.392 . S
N765 Co709 2.257 . S
N765 C762 1.391 . S
N765 C766 1.388 . S
C766 H737 0.930 . S
C766 C761 1.391 . S
C766 N765 1.388 . S
Co767 O769 2.143 . S
Co767 O775 2.074 . S
Co767 O778 2.093 . S
Co767 O791 2.097 . S
Co767 N808 2.151 . S
Co767 N816 2.214 . S
Co768 O769 2.160 . S
Co768 O774 2.058 . S
Co768 O784 2.057 . S
Co768 O799 2.037 . S
Co768 N803 2.145 . S
Co768 N824 2.257 . S
O769 Co767 2.143 . S
O769 Co768 2.160 . S
C770 O771 1.278 . S
C770 O778 1.224 . S
O771 C770 1.278 . S
C772 O773 1.245 . S
C772 O784 1.232 . S
O773 C772 1.245 . S
O774 Co768 2.058 . S
O774 C800 1.269 . S
O775 Co767 2.074 . S
O775 C800 1.257 . S
H776 C801 0.930 . S
H777 C807 0.930 . S
O778 Co767 2.093 . S
O778 C770 1.224 . S
H779 C811 0.929 . S
H780 C813 0.930 . S
H781 C814 0.930 . S
H782 C812 0.929 . S
H783 C815 0.928 . S
O784 Co768 2.057 . S
O784 C772 1.232 . S
H785 C804 0.929 . S
H786 C805 0.929 . S
H787 C817 0.931 . S
H788 C809 0.929 . S
H789 C818 0.930 . S
H790 C810 0.931 . S
O791 Co767 2.097 . S
O791 C819 1.214 . S
H792 C820 0.929 . S
H793 C821 0.929 . S
H794 C822 0.930 . S
H795 C823 0.929 . S
H796 C825 0.930 . S
H797 C802 0.930 . S
H798 C806 0.930 . S
O799 Co768 2.037 . S
O799 C819 1.234 . S
C800 O774 1.269 . S
C800 O775 1.257 . S
C801 H776 0.930 . S
C801 C804 1.388 . S
C801 C806 1.418 . S
C802 H797 0.930 . S
C802 C805 1.404 . S
C802 C806 1.353 . S
N803 Co768 2.145 . S
N803 C804 1.397 . S
N803 C805 1.334 . S
C804 H785 0.929 . S
C804 C801 1.388 . S
C804 N803 1.397 . S
C805 H786 0.929 . S
C805 C802 1.404 . S
C805 N803 1.334 . S
C806 H798 0.930 . S
C806 C801 1.418 . S
C806 C802 1.353 . S
C807 H777 0.930 . S
C807 N808 1.330 . S
C807 C809 1.446 . S
N808 Co767 2.151 . S
N808 C807 1.330 . S
N808 C812 1.418 . S
C809 H788 0.929 . S
C809 C807 1.446 . S
C809 C810 1.332 . S
C810 H790 0.931 . S
C810 C809 1.332 . S
C810 C811 1.267 . S
C811 H779 0.929 . S
C811 C810 1.267 . S
C811 C812 1.251 . S
C812 H782 0.929 . S
C812 N808 1.418 . S
C812 C811 1.251 . S
C813 H780 0.930 . S
C813 C815 1.406 . S
C813 C818 1.261 . S
C814 H781 0.930 . S
C814 N816 1.325 . S
C814 C817 1.357 . S
C815 H783 0.928 . S
C815 C813 1.406 . S
C815 N816 1.261 . S
N816 Co767 2.214 . S
N816 C814 1.325 . S
N816 C815 1.261 . S
C817 H787 0.931 . S
C817 C814 1.357 . S
C817 C818 1.312 . S
C818 H789 0.930 . S
C818 C813 1.261 . S
C818 C817 1.312 . S
C819 O791 1.214 . S
C819 O799 1.234 . S
C820 H792 0.929 . S
C820 C823 1.391 . S
C820 C825 1.391 . S
C821 H793 0.929 . S
C821 C822 1.390 . S
C821 N824 1.391 . S
C822 H794 0.930 . S
C822 C821 1.390 . S
C822 C823 1.392 . S
C823 H795 0.929 . S
C823 C820 1.391 . S
C823 C822 1.392 . S
N824 Co768 2.257 . S
N824 C821 1.391 . S
N824 C825 1.388 . S
C825 H796 0.930 . S
C825 C820 1.391 . S
C825 N824 1.388 . S
Co826 O828 2.143 . S
Co826 O834 2.074 . S
Co826 O837 2.093 . S
Co826 O850 2.097 . S
Co826 N867 2.151 . S
Co826 N875 2.214 . S
Co827 O828 2.160 . S
Co827 O833 2.058 . S
Co827 O843 2.057 . S
Co827 O858 2.037 . S
Co827 N862 2.145 . S
Co827 N883 2.257 . S
O828 Co826 2.143 . S
O828 Co827 2.160 . S
C829 O830 1.278 . S
C829 O837 1.224 . S
O830 C829 1.278 . S
C831 O832 1.245 . S
C831 O843 1.232 . S
O832 C831 1.245 . S
O833 Co827 2.058 . S
O833 C859 1.269 . S
O834 Co826 2.074 . S
O834 C859 1.257 . S
H835 C860 0.930 . S
H836 C866 0.930 . S
O837 Co826 2.093 . S
O837 C829 1.224 . S
H838 C870 0.929 . S
H839 C872 0.930 . S
H840 C873 0.930 . S
H841 C871 0.929 . S
H842 C874 0.928 . S
O843 Co827 2.057 . S
O843 C831 1.232 . S
H844 C863 0.929 . S
H845 C864 0.929 . S
H846 C876 0.931 . S
H847 C868 0.929 . S
H848 C877 0.930 . S
H849 C869 0.931 . S
O850 Co826 2.097 . S
O850 C878 1.214 . S
H851 C879 0.929 . S
H852 C880 0.929 . S
H853 C881 0.930 . S
H854 C882 0.929 . S
H855 C884 0.930 . S
H856 C861 0.930 . S
H857 C865 0.930 . S
O858 Co827 2.037 . S
O858 C878 1.234 . S
C859 O833 1.269 . S
C859 O834 1.257 . S
C860 H835 0.930 . S
C860 C863 1.388 . S
C860 C865 1.418 . S
C861 H856 0.930 . S
C861 C864 1.404 . S
C861 C865 1.353 . S
N862 Co827 2.145 . S
N862 C863 1.397 . S
N862 C864 1.334 . S
C863 H844 0.929 . S
C863 C860 1.388 . S
C863 N862 1.397 . S
C864 H845 0.929 . S
C864 C861 1.404 . S
C864 N862 1.334 . S
C865 H857 0.930 . S
C865 C860 1.418 . S
C865 C861 1.353 . S
C866 H836 0.930 . S
C866 N867 1.330 . S
C866 C868 1.446 . S
N867 Co826 2.151 . S
N867 C866 1.330 . S
N867 C871 1.418 . S
C868 H847 0.929 . S
C868 C866 1.446 . S
C868 C869 1.332 . S
C869 H849 0.931 . S
C869 C868 1.332 . S
C869 C870 1.267 . S
C870 H838 0.929 . S
C870 C869 1.267 . S
C870 C871 1.251 . S
C871 H841 0.929 . S
C871 N867 1.418 . S
C871 C870 1.251 . S
C872 H839 0.930 . S
C872 C874 1.406 . S
C872 C877 1.261 . S
C873 H840 0.930 . S
C873 N875 1.325 . S
C873 C876 1.357 . S
C874 H842 0.928 . S
C874 C872 1.406 . S
C874 N875 1.261 . S
N875 Co826 2.214 . S
N875 C873 1.325 . S
N875 C874 1.261 . S
C876 H846 0.931 . S
C876 C873 1.357 . S
C876 C877 1.312 . S
C877 H848 0.930 . S
C877 C872 1.261 . S
C877 C876 1.312 . S
C878 O850 1.214 . S
C878 O858 1.234 . S
C879 H851 0.929 . S
C879 C882 1.391 . S
C879 C884 1.391 . S
C880 H852 0.929 . S
C880 C881 1.390 . S
C880 N883 1.391 . S
C881 H853 0.930 . S
C881 C880 1.390 . S
C881 C882 1.392 . S
C882 H854 0.929 . S
C882 C879 1.391 . S
C882 C881 1.392 . S
N883 Co827 2.257 . S
N883 C880 1.391 . S
N883 C884 1.388 . S
C884 H855 0.930 . S
C884 C879 1.391 . S
C884 N883 1.388 . S
Co885 O887 2.143 . S
Co885 O893 2.074 . S
Co885 O896 2.093 . S
Co885 O909 2.097 . S
Co885 N926 2.151 . S
Co885 N934 2.214 . S
Co886 O887 2.160 . S
Co886 O892 2.058 . S
Co886 O902 2.057 . S
Co886 O917 2.037 . S
Co886 N921 2.145 . S
Co886 N942 2.257 . S
O887 Co885 2.143 . S
O887 Co886 2.160 . S
C888 O889 1.278 . S
C888 O896 1.224 . S
O889 C888 1.278 . S
C890 O891 1.245 . S
C890 O902 1.232 . S
O891 C890 1.245 . S
O892 Co886 2.058 . S
O892 C918 1.269 . S
O893 Co885 2.074 . S
O893 C918 1.257 . S
H894 C919 0.930 . S
H895 C925 0.930 . S
O896 Co885 2.093 . S
O896 C888 1.224 . S
H897 C929 0.929 . S
H898 C931 0.930 . S
H899 C932 0.930 . S
H900 C930 0.929 . S
H901 C933 0.928 . S
O902 Co886 2.057 . S
O902 C890 1.232 . S
H903 C922 0.929 . S
H904 C923 0.929 . S
H905 C935 0.931 . S
H906 C927 0.929 . S
H907 C936 0.930 . S
H908 C928 0.931 . S
O909 Co885 2.097 . S
O909 C937 1.214 . S
H910 C938 0.929 . S
H911 C939 0.929 . S
H912 C940 0.930 . S
H913 C941 0.929 . S
H914 C943 0.930 . S
H915 C920 0.930 . S
H916 C924 0.930 . S
O917 Co886 2.037 . S
O917 C937 1.234 . S
C918 O892 1.269 . S
C918 O893 1.257 . S
C919 H894 0.930 . S
C919 C922 1.388 . S
C919 C924 1.418 . S
C920 H915 0.930 . S
C920 C923 1.404 . S
C920 C924 1.353 . S
N921 Co886 2.145 . S
N921 C922 1.397 . S
N921 C923 1.334 . S
C922 H903 0.929 . S
C922 C919 1.388 . S
C922 N921 1.397 . S
C923 H904 0.929 . S
C923 C920 1.404 . S
C923 N921 1.334 . S
C924 H916 0.930 . S
C924 C919 1.418 . S
C924 C920 1.353 . S
C925 H895 0.930 . S
C925 N926 1.330 . S
C925 C927 1.446 . S
N926 Co885 2.151 . S
N926 C925 1.330 . S
N926 C930 1.418 . S
C927 H906 0.929 . S
C927 C925 1.446 . S
C927 C928 1.332 . S
C928 H908 0.931 . S
C928 C927 1.332 . S
C928 C929 1.267 . S
C929 H897 0.929 . S
C929 C928 1.267 . S
C929 C930 1.251 . S
C930 H900 0.929 . S
C930 N926 1.418 . S
C930 C929 1.251 . S
C931 H898 0.930 . S
C931 C933 1.406 . S
C931 C936 1.261 . S
C932 H899 0.930 . S
C932 N934 1.325 . S
C932 C935 1.357 . S
C933 H901 0.928 . S
C933 C931 1.406 . S
C933 N934 1.261 . S
N934 Co885 2.214 . S
N934 C932 1.325 . S
N934 C933 1.261 . S
C935 H905 0.931 . S
C935 C932 1.357 . S
C935 C936 1.312 . S
C936 H907 0.930 . S
C936 C931 1.261 . S
C936 C935 1.312 . S
C937 O909 1.214 . S
C937 O917 1.234 . S
C938 H910 0.929 . S
C938 C941 1.391 . S
C938 C943 1.391 . S
C939 H911 0.929 . S
C939 C940 1.390 . S
C939 N942 1.391 . S
C940 H912 0.930 . S
C940 C939 1.390 . S
C940 C941 1.392 . S
C941 H913 0.929 . S
C941 C938 1.391 . S
C941 C940 1.392 . S
N942 Co886 2.257 . S
N942 C939 1.391 . S
N942 C943 1.388 . S
C943 H914 0.930 . S
C943 C938 1.391 . S
C943 N942 1.388 . S
Co944 O946 2.143 . S
Co944 O952 2.074 . S
Co944 O955 2.093 . S
Co944 O968 2.097 . S
Co944 N985 2.151 . S
Co944 N993 2.214 . S
Co945 O946 2.160 . S
Co945 O951 2.058 . S
Co945 O961 2.057 . S
Co945 O976 2.037 . S
Co945 N980 2.145 . S
Co945 N1001 2.257 . S
O946 Co944 2.143 . S
O946 Co945 2.160 . S
C947 O948 1.278 . S
C947 O955 1.224 . S
O948 C947 1.278 . S
C949 O950 1.245 . S
C949 O961 1.232 . S
O950 C949 1.245 . S
O951 Co945 2.058 . S
O951 C977 1.269 . S
O952 Co944 2.074 . S
O952 C977 1.257 . S
H953 C978 0.930 . S
H954 C984 0.930 . S
O955 Co944 2.093 . S
O955 C947 1.224 . S
H956 C988 0.929 . S
H957 C990 0.930 . S
H958 C991 0.930 . S
H959 C989 0.929 . S
H960 C992 0.928 . S
O961 Co945 2.057 . S
O961 C949 1.232 . S
H962 C981 0.929 . S
H963 C982 0.929 . S
H964 C994 0.931 . S
H965 C986 0.929 . S
H966 C995 0.930 . S
H967 C987 0.931 . S
O968 Co944 2.097 . S
O968 C996 1.214 . S
H969 C997 0.929 . S
H970 C998 0.929 . S
H971 C999 0.930 . S
H972 C1000 0.929 . S
H973 C1002 0.930 . S
H974 C979 0.930 . S
H975 C983 0.930 . S
O976 Co945 2.037 . S
O976 C996 1.234 . S
C977 O951 1.269 . S
C977 O952 1.257 . S
C978 H953 0.930 . S
C978 C981 1.388 . S
C978 C983 1.418 . S
C979 H974 0.930 . S
C979 C982 1.404 . S
C979 C983 1.353 . S
N980 Co945 2.145 . S
N980 C981 1.397 . S
N980 C982 1.334 . S
C981 H962 0.929 . S
C981 C978 1.388 . S
C981 N980 1.397 . S
C982 H963 0.929 . S
C982 C979 1.404 . S
C982 N980 1.334 . S
C983 H975 0.930 . S
C983 C978 1.418 . S
C983 C979 1.353 . S
C984 H954 0.930 . S
C984 N985 1.330 . S
C984 C986 1.446 . S
N985 Co944 2.151 . S
N985 C984 1.330 . S
N985 C989 1.418 . S
C986 H965 0.929 . S
C986 C984 1.446 . S
C986 C987 1.332 . S
C987 H967 0.931 . S
C987 C986 1.332 . S
C987 C988 1.267 . S
C988 H956 0.929 . S
C988 C987 1.267 . S
C988 C989 1.251 . S
C989 H959 0.929 . S
C989 N985 1.418 . S
C989 C988 1.251 . S
C990 H957 0.930 . S
C990 C992 1.406 . S
C990 C995 1.261 . S
C991 H958 0.930 . S
C991 N993 1.325 . S
C991 C994 1.357 . S
C992 H960 0.928 . S
C992 C990 1.406 . S
C992 N993 1.261 . S
N993 Co944 2.214 . S
N993 C991 1.325 . S
N993 C992 1.261 . S
C994 H964 0.931 . S
C994 C991 1.357 . S
C994 C995 1.312 . S
C995 H966 0.930 . S
C995 C990 1.261 . S
C995 C994 1.312 . S
C996 O968 1.214 . S
C996 O976 1.234 . S
C997 H969 0.929 . S
C997 C1000 1.391 . S
C997 C1002 1.391 . S
C998 H970 0.929 . S
C998 C999 1.390 . S
C998 N1001 1.391 . S
C999 H971 0.930 . S
C999 C998 1.390 . S
C999 C1000 1.392 . S
C1000 H972 0.929 . S
C1000 C997 1.391 . S
C1000 C999 1.392 . S
N1001 Co945 2.257 . S
N1001 C998 1.391 . S
N1001 C1002 1.388 . S
C1002 H973 0.930 . S
C1002 C997 1.391 . S
C1002 N1001 1.388 . S
Co1003 O1005 2.143 . S
Co1003 O1011 2.074 . S
Co1003 O1014 2.093 . S
Co1003 O1027 2.097 . S
Co1003 N1044 2.151 . S
Co1003 N1052 2.214 . S
Co1004 O1005 2.160 . S
Co1004 O1010 2.058 . S
Co1004 O1020 2.057 . S
Co1004 O1035 2.037 . S
Co1004 N1039 2.145 . S
Co1004 N1060 2.257 . S
O1005 Co1003 2.143 . S
O1005 Co1004 2.160 . S
C1006 O1007 1.278 . S
C1006 O1014 1.224 . S
O1007 C1006 1.278 . S
C1008 O1009 1.245 . S
C1008 O1020 1.232 . S
O1009 C1008 1.245 . S
O1010 Co1004 2.058 . S
O1010 C1036 1.269 . S
O1011 Co1003 2.074 . S
O1011 C1036 1.257 . S
H1012 C1037 0.930 . S
H1013 C1043 0.930 . S
O1014 Co1003 2.093 . S
O1014 C1006 1.224 . S
H1015 C1047 0.929 . S
H1016 C1049 0.930 . S
H1017 C1050 0.930 . S
H1018 C1048 0.929 . S
H1019 C1051 0.928 . S
O1020 Co1004 2.057 . S
O1020 C1008 1.232 . S
H1021 C1040 0.929 . S
H1022 C1041 0.929 . S
H1023 C1053 0.931 . S
H1024 C1045 0.929 . S
H1025 C1054 0.930 . S
H1026 C1046 0.931 . S
O1027 Co1003 2.097 . S
O1027 C1055 1.214 . S
H1028 C1056 0.929 . S
H1029 C1057 0.929 . S
H1030 C1058 0.930 . S
H1031 C1059 0.929 . S
H1032 C1061 0.930 . S
H1033 C1038 0.930 . S
H1034 C1042 0.930 . S
O1035 Co1004 2.037 . S
O1035 C1055 1.234 . S
C1036 O1010 1.269 . S
C1036 O1011 1.257 . S
C1037 H1012 0.930 . S
C1037 C1040 1.388 . S
C1037 C1042 1.418 . S
C1038 H1033 0.930 . S
C1038 C1041 1.404 . S
C1038 C1042 1.353 . S
N1039 Co1004 2.145 . S
N1039 C1040 1.397 . S
N1039 C1041 1.334 . S
C1040 H1021 0.929 . S
C1040 C1037 1.388 . S
C1040 N1039 1.397 . S
C1041 H1022 0.929 . S
C1041 C1038 1.404 . S
C1041 N1039 1.334 . S
C1042 H1034 0.930 . S
C1042 C1037 1.418 . S
C1042 C1038 1.353 . S
C1043 H1013 0.930 . S
C1043 N1044 1.330 . S
C1043 C1045 1.446 . S
N1044 Co1003 2.151 . S
N1044 C1043 1.330 . S
N1044 C1048 1.418 . S
C1045 H1024 0.929 . S
C1045 C1043 1.446 . S
C1045 C1046 1.332 . S
C1046 H1026 0.931 . S
C1046 C1045 1.332 . S
C1046 C1047 1.267 . S
C1047 H1015 0.929 . S
C1047 C1046 1.267 . S
C1047 C1048 1.251 . S
C1048 H1018 0.929 . S
C1048 N1044 1.418 . S
C1048 C1047 1.251 . S
C1049 H1016 0.930 . S
C1049 C1051 1.406 . S
C1049 C1054 1.261 . S
C1050 H1017 0.930 . S
C1050 N1052 1.325 . S
C1050 C1053 1.357 . S
C1051 H1019 0.928 . S
C1051 C1049 1.406 . S
C1051 N1052 1.261 . S
N1052 Co1003 2.214 . S
N1052 C1050 1.325 . S
N1052 C1051 1.261 . S
C1053 H1023 0.931 . S
C1053 C1050 1.357 . S
C1053 C1054 1.312 . S
C1054 H1025 0.930 . S
C1054 C1049 1.261 . S
C1054 C1053 1.312 . S
C1055 O1027 1.214 . S
C1055 O1035 1.234 . S
C1056 H1028 0.929 . S
C1056 C1059 1.391 . S
C1056 C1061 1.391 . S
C1057 H1029 0.929 . S
C1057 C1058 1.390 . S
C1057 N1060 1.391 . S
C1058 H1030 0.930 . S
C1058 C1057 1.390 . S
C1058 C1059 1.392 . S
C1059 H1031 0.929 . S
C1059 C1056 1.391 . S
C1059 C1058 1.392 . S
N1060 Co1004 2.257 . S
N1060 C1057 1.391 . S
N1060 C1061 1.388 . S
C1061 H1032 0.930 . S
C1061 C1056 1.391 . S
C1061 N1060 1.388 . S
H1062 C1070 0.929 . S
H1063 C1072 0.930 . S
H1064 C1074 0.930 . S
H1065 C1077 0.929 . S
H1066 C1080 0.930 . S
H1067 C1082 0.960 . S
H1068 C1082 0.960 . S
H1069 C1082 0.960 . S
C1070 H1062 0.929 . S
C1070 C1071 1.377 . S
C1070 C1072 1.384 . S
C1071 C1070 1.377 . S
C1071 C1077 1.390 . S
C1072 H1063 0.930 . S
C1072 C1070 1.384 . S
C1072 C1073 1.372 . S
C1073 C1072 1.372 . S
C1073 C1074 1.400 . S
C1073 C1078 1.490 . S
C1074 H1064 0.930 . S
C1074 C1073 1.400 . S
C1074 C1077 1.386 . S
H1075 C1091 0.930 . S
H1076 C1092 0.931 . S
C1077 H1065 0.929 . S
C1077 C1071 1.390 . S
C1077 C1074 1.386 . S
C1078 C1073 1.490 . S
C1078 C1080 1.395 . S
C1078 C1081 1.403 . S
H1079 C1085 0.930 . S
C1080 H1066 0.930 . S
C1080 C1078 1.395 . S
C1080 C1083 1.403 . S
C1081 C1078 1.403 . S
C1081 C1082 1.524 . S
C1081 C1085 1.400 . S
C1082 H1067 0.960 . S
C1082 H1068 0.960 . S
C1082 H1069 0.960 . S
C1082 C1081 1.524 . S
C1083 C1080 1.403 . S
C1083 C1084 1.392 . S
C1083 C1087 1.495 . S
C1084 C1083 1.392 . S
C1084 C1085 1.385 . S
C1084 C1086 1.478 . S
C1085 H1079 0.930 . S
C1085 C1081 1.400 . S
C1085 C1084 1.385 . S
C1086 C1084 1.478 . S
C1086 C1088 1.381 . S
C1086 C1092 1.383 . S
C1087 C1083 1.495 . S
C1087 H1093 0.959 . S
C1087 H1094 0.961 . S
C1087 H1095 0.960 . S
C1088 C1086 1.381 . S
C1088 C1089 1.394 . S
C1088 H1096 0.930 . S
C1089 C1088 1.394 . S
C1089 C1090 1.383 . S
C1089 H1097 0.929 . S
C1090 C1089 1.383 . S
C1090 C1091 1.377 . S
C1091 H1075 0.930 . S
C1091 C1090 1.377 . S
C1091 C1092 1.379 . S
C1092 H1076 0.931 . S
C1092 C1086 1.383 . S
C1092 C1091 1.379 . S
H1093 C1087 0.959 . S
H1094 C1087 0.961 . S
H1095 C1087 0.960 . S
H1096 C1088 0.930 . S
H1097 C1089 0.929 . S
H1098 C1106 0.929 . S
H1099 C1108 0.930 . S
H1100 C1110 0.930 . S
H1101 C1113 0.929 . S
H1102 C1116 0.930 . S
H1103 C1118 0.960 . S
H1104 C1118 0.960 . S
H1105 C1118 0.960 . S
C1106 H1098 0.929 . S
C1106 C1107 1.377 . S
C1106 C1108 1.384 . S
C1107 C1106 1.377 . S
C1107 C1113 1.390 . S
C1108 H1099 0.930 . S
C1108 C1106 1.384 . S
C1108 C1109 1.372 . S
C1109 C1108 1.372 . S
C1109 C1110 1.400 . S
C1109 C1114 1.490 . S
C1110 H1100 0.930 . S
C1110 C1109 1.400 . S
C1110 C1113 1.386 . S
H1111 C1127 0.930 . S
H1112 C1128 0.931 . S
C1113 H1101 0.929 . S
C1113 C1107 1.390 . S
C1113 C1110 1.386 . S
C1114 C1109 1.490 . S
C1114 C1116 1.395 . S
C1114 C1117 1.403 . S
H1115 C1121 0.930 . S
C1116 H1102 0.930 . S
C1116 C1114 1.395 . S
C1116 C1119 1.403 . S
C1117 C1114 1.403 . S
C1117 C1118 1.524 . S
C1117 C1121 1.400 . S
C1118 H1103 0.960 . S
C1118 H1104 0.960 . S
C1118 H1105 0.960 . S
C1118 C1117 1.524 . S
C1119 C1116 1.403 . S
C1119 C1120 1.392 . S
C1119 C1123 1.495 . S
C1120 C1119 1.392 . S
C1120 C1121 1.385 . S
C1120 C1122 1.478 . S
C1121 H1115 0.930 . S
C1121 C1117 1.400 . S
C1121 C1120 1.385 . S
C1122 C1120 1.478 . S
C1122 C1124 1.381 . S
C1122 C1128 1.383 . S
C1123 C1119 1.495 . S
C1123 H1129 0.959 . S
C1123 H1130 0.961 . S
C1123 H1131 0.960 . S
C1124 C1122 1.381 . S
C1124 C1125 1.394 . S
C1124 H1132 0.930 . S
C1125 C1124 1.394 . S
C1125 C1126 1.383 . S
C1125 H1133 0.929 . S
C1126 C1125 1.383 . S
C1126 C1127 1.377 . S
C1127 H1111 0.930 . S
C1127 C1126 1.377 . S
C1127 C1128 1.379 . S
C1128 H1112 0.931 . S
C1128 C1122 1.383 . S
C1128 C1127 1.379 . S
H1129 C1123 0.959 . S
H1130 C1123 0.961 . S
H1131 C1123 0.960 . S
H1132 C1124 0.930 . S
H1133 C1125 0.929 . S
H1134 C1142 0.929 . S
H1135 C1144 0.930 . S
H1136 C1146 0.930 . S
H1137 C1149 0.929 . S
H1138 C1152 0.930 . S
H1139 C1154 0.960 . S
H1140 C1154 0.960 . S
H1141 C1154 0.960 . S
C1142 H1134 0.929 . S
C1142 C1143 1.377 . S
C1142 C1144 1.384 . S
C1143 C1142 1.377 . S
C1143 C1149 1.390 . S
C1144 H1135 0.930 . S
C1144 C1142 1.384 . S
C1144 C1145 1.372 . S
C1145 C1144 1.372 . S
C1145 C1146 1.400 . S
C1145 C1150 1.490 . S
C1146 H1136 0.930 . S
C1146 C1145 1.400 . S
C1146 C1149 1.386 . S
H1147 C1163 0.930 . S
H1148 C1164 0.931 . S
C1149 H1137 0.929 . S
C1149 C1143 1.390 . S
C1149 C1146 1.386 . S
C1150 C1145 1.490 . S
C1150 C1152 1.395 . S
C1150 C1153 1.403 . S
H1151 C1157 0.930 . S
C1152 H1138 0.930 . S
C1152 C1150 1.395 . S
C1152 C1155 1.403 . S
C1153 C1150 1.403 . S
C1153 C1154 1.524 . S
C1153 C1157 1.400 . S
C1154 H1139 0.960 . S
C1154 H1140 0.960 . S
C1154 H1141 0.960 . S
C1154 C1153 1.524 . S
C1155 C1152 1.403 . S
C1155 C1156 1.392 . S
C1155 C1159 1.495 . S
C1156 C1155 1.392 . S
C1156 C1157 1.385 . S
C1156 C1158 1.478 . S
C1157 H1151 0.930 . S
C1157 C1153 1.400 . S
C1157 C1156 1.385 . S
C1158 C1156 1.478 . S
C1158 C1160 1.381 . S
C1158 C1164 1.383 . S
C1159 C1155 1.495 . S
C1159 H1165 0.959 . S
C1159 H1166 0.961 . S
C1159 H1167 0.960 . S
C1160 C1158 1.381 . S
C1160 C1161 1.394 . S
C1160 H1168 0.930 . S
C1161 C1160 1.394 . S
C1161 C1162 1.383 . S
C1161 H1169 0.929 . S
C1162 C1161 1.383 . S
C1162 C1163 1.377 . S
C1163 H1147 0.930 . S
C1163 C1162 1.377 . S
C1163 C1164 1.379 . S
C1164 H1148 0.931 . S
C1164 C1158 1.383 . S
C1164 C1163 1.379 . S
H1165 C1159 0.959 . S
H1166 C1159 0.961 . S
H1167 C1159 0.960 . S
H1168 C1160 0.930 . S
H1169 C1161 0.929 . S
H1170 C1178 0.929 . S
H1171 C1180 0.930 . S
H1172 C1182 0.930 . S
H1173 C1185 0.929 . S
H1174 C1188 0.930 . S
H1175 C1190 0.960 . S
H1176 C1190 0.960 . S
H1177 C1190 0.960 . S
C1178 H1170 0.929 . S
C1178 C1179 1.377 . S
C1178 C1180 1.384 . S
C1179 C1178 1.377 . S
C1179 C1185 1.390 . S
C1180 H1171 0.930 . S
C1180 C1178 1.384 . S
C1180 C1181 1.372 . S
C1181 C1180 1.372 . S
C1181 C1182 1.400 . S
C1181 C1186 1.490 . S
C1182 H1172 0.930 . S
C1182 C1181 1.400 . S
C1182 C1185 1.386 . S
H1183 C1199 0.930 . S
H1184 C1200 0.931 . S
C1185 H1173 0.929 . S
C1185 C1179 1.390 . S
C1185 C1182 1.386 . S
C1186 C1181 1.490 . S
C1186 C1188 1.395 . S
C1186 C1189 1.403 . S
H1187 C1193 0.930 . S
C1188 H1174 0.930 . S
C1188 C1186 1.395 . S
C1188 C1191 1.403 . S
C1189 C1186 1.403 . S
C1189 C1190 1.524 . S
C1189 C1193 1.400 . S
C1190 H1175 0.960 . S
C1190 H1176 0.960 . S
C1190 H1177 0.960 . S
C1190 C1189 1.524 . S
C1191 C1188 1.403 . S
C1191 C1192 1.392 . S
C1191 C1195 1.495 . S
C1192 C1191 1.392 . S
C1192 C1193 1.385 . S
C1192 C1194 1.478 . S
C1193 H1187 0.930 . S
C1193 C1189 1.400 . S
C1193 C1192 1.385 . S
C1194 C1192 1.478 . S
C1194 C1196 1.381 . S
C1194 C1200 1.383 . S
C1195 C1191 1.495 . S
C1195 H1201 0.959 . S
C1195 H1202 0.961 . S
C1195 H1203 0.960 . S
C1196 C1194 1.381 . S
C1196 C1197 1.394 . S
C1196 H1204 0.930 . S
C1197 C1196 1.394 . S
C1197 C1198 1.383 . S
C1197 H1205 0.929 . S
C1198 C1197 1.383 . S
C1198 C1199 1.377 . S
C1199 H1183 0.930 . S
C1199 C1198 1.377 . S
C1199 C1200 1.379 . S
C1200 H1184 0.931 . S
C1200 C1194 1.383 . S
C1200 C1199 1.379 . S
H1201 C1195 0.959 . S
H1202 C1195 0.961 . S
H1203 C1195 0.960 . S
H1204 C1196 0.930 . S
H1205 C1197 0.929 . S
H1206 C1214 0.929 . S
H1207 C1216 0.930 . S
H1208 C1218 0.930 . S
H1209 C1221 0.929 . S
H1210 C1224 0.930 . S
H1211 C1226 0.960 . S
H1212 C1226 0.960 . S
H1213 C1226 0.960 . S
C1214 H1206 0.929 . S
C1214 C1215 1.377 . S
C1214 C1216 1.384 . S
C1215 C1214 1.377 . S
C1215 C1221 1.390 . S
C1216 H1207 0.930 . S
C1216 C1214 1.384 . S
C1216 C1217 1.372 . S
C1217 C1216 1.372 . S
C1217 C1218 1.400 . S
C1217 C1222 1.490 . S
C1218 H1208 0.930 . S
C1218 C1217 1.400 . S
C1218 C1221 1.386 . S
H1219 C1235 0.930 . S
H1220 C1236 0.931 . S
C1221 H1209 0.929 . S
C1221 C1215 1.390 . S
C1221 C1218 1.386 . S
C1222 C1217 1.490 . S
C1222 C1224 1.395 . S
C1222 C1225 1.403 . S
H1223 C1229 0.930 . S
C1224 H1210 0.930 . S
C1224 C1222 1.395 . S
C1224 C1227 1.403 . S
C1225 C1222 1.403 . S
C1225 C1226 1.524 . S
C1225 C1229 1.400 . S
C1226 H1211 0.960 . S
C1226 H1212 0.960 . S
C1226 H1213 0.960 . S
C1226 C1225 1.524 . S
C1227 C1224 1.403 . S
C1227 C1228 1.392 . S
C1227 C1231 1.495 . S
C1228 C1227 1.392 . S
C1228 C1229 1.385 . S
C1228 C1230 1.478 . S
C1229 H1223 0.930 . S
C1229 C1225 1.400 . S
C1229 C1228 1.385 . S
C1230 C1228 1.478 . S
C1230 C1232 1.381 . S
C1230 C1236 1.383 . S
C1231 C1227 1.495 . S
C1231 H1237 0.959 . S
C1231 H1238 0.961 . S
C1231 H1239 0.960 . S
C1232 C1230 1.381 . S
C1232 C1233 1.394 . S
C1232 H1240 0.930 . S
C1233 C1232 1.394 . S
C1233 C1234 1.383 . S
C1233 H1241 0.929 . S
C1234 C1233 1.383 . S
C1234 C1235 1.377 . S
C1235 H1219 0.930 . S
C1235 C1234 1.377 . S
C1235 C1236 1.379 . S
C1236 H1220 0.931 . S
C1236 C1230 1.383 . S
C1236 C1235 1.379 . S
H1237 C1231 0.959 . S
H1238 C1231 0.961 . S
H1239 C1231 0.960 . S
H1240 C1232 0.930 . S
H1241 C1233 0.929 . S
H1242 C1250 0.929 . S
H1243 C1252 0.930 . S
H1244 C1254 0.930 . S
H1245 C1257 0.929 . S
H1246 C1260 0.930 . S
H1247 C1262 0.960 . S
H1248 C1262 0.960 . S
H1249 C1262 0.960 . S
C1250 H1242 0.929 . S
C1250 C1251 1.377 . S
C1250 C1252 1.384 . S
C1251 C1250 1.377 . S
C1251 C1257 1.390 . S
C1252 H1243 0.930 . S
C1252 C1250 1.384 . S
C1252 C1253 1.372 . S
C1253 C1252 1.372 . S
C1253 C1254 1.400 . S
C1253 C1258 1.490 . S
C1254 H1244 0.930 . S
C1254 C1253 1.400 . S
C1254 C1257 1.386 . S
H1255 C1271 0.930 . S
H1256 C1272 0.931 . S
C1257 H1245 0.929 . S
C1257 C1251 1.390 . S
C1257 C1254 1.386 . S
C1258 C1253 1.490 . S
C1258 C1260 1.395 . S
C1258 C1261 1.403 . S
H1259 C1265 0.930 . S
C1260 H1246 0.930 . S
C1260 C1258 1.395 . S
C1260 C1263 1.403 . S
C1261 C1258 1.403 . S
C1261 C1262 1.524 . S
C1261 C1265 1.400 . S
C1262 H1247 0.960 . S
C1262 H1248 0.960 . S
C1262 H1249 0.960 . S
C1262 C1261 1.524 . S
C1263 C1260 1.403 . S
C1263 C1264 1.392 . S
C1263 C1267 1.495 . S
C1264 C1263 1.392 . S
C1264 C1265 1.385 . S
C1264 C1266 1.478 . S
C1265 H1259 0.930 . S
C1265 C1261 1.400 . S
C1265 C1264 1.385 . S
C1266 C1264 1.478 . S
C1266 C1268 1.381 . S
C1266 C1272 1.383 . S
C1267 C1263 1.495 . S
C1267 H1273 0.959 . S
C1267 H1274 0.961 . S
C1267 H1275 0.960 . S
C1268 C1266 1.381 . S
C1268 C1269 1.394 . S
C1268 H1276 0.930 . S
C1269 C1268 1.394 . S
C1269 C1270 1.383 . S
C1269 H1277 0.929 . S
C1270 C1269 1.383 . S
C1270 C1271 1.377 . S
C1271 H1255 0.930 . S
C1271 C1270 1.377 . S
C1271 C1272 1.379 . S
C1272 H1256 0.931 . S
C1272 C1266 1.383 . S
C1272 C1271 1.379 . S
H1273 C1267 0.959 . S
H1274 C1267 0.961 . S
H1275 C1267 0.960 . S
H1276 C1268 0.930 . S
H1277 C1269 0.929 . S
H1278 C1286 0.929 . S
H1279 C1288 0.930 . S
H1280 C1290 0.930 . S
H1281 C1293 0.929 . S
H1282 C1296 0.930 . S
H1283 C1298 0.960 . S
H1284 C1298 0.960 . S
H1285 C1298 0.960 . S
C1286 H1278 0.929 . S
C1286 C1287 1.377 . S
C1286 C1288 1.384 . S
C1287 C1286 1.377 . S
C1287 C1293 1.390 . S
C1288 H1279 0.930 . S
C1288 C1286 1.384 . S
C1288 C1289 1.372 . S
C1289 C1288 1.372 . S
C1289 C1290 1.400 . S
C1289 C1294 1.490 . S
C1290 H1280 0.930 . S
C1290 C1289 1.400 . S
C1290 C1293 1.386 . S
H1291 C1307 0.930 . S
H1292 C1308 0.931 . S
C1293 H1281 0.929 . S
C1293 C1287 1.390 . S
C1293 C1290 1.386 . S
C1294 C1289 1.490 . S
C1294 C1296 1.395 . S
C1294 C1297 1.403 . S
H1295 C1301 0.930 . S
C1296 H1282 0.930 . S
C1296 C1294 1.395 . S
C1296 C1299 1.403 1_655 S
C1297 C1294 1.403 . S
C1297 C1298 1.524 . S
C1297 C1301 1.400 1_655 S
C1298 H1283 0.960 . S
C1298 H1284 0.960 . S
C1298 H1285 0.960 . S
C1298 C1297 1.524 . S
C1299 C1296 1.403 1_455 S
C1299 C1300 1.392 . S
C1299 C1303 1.495 . S
C1300 C1299 1.392 . S
C1300 C1301 1.385 . S
C1300 C1302 1.478 . S
C1301 H1295 0.930 . S
C1301 C1297 1.400 1_455 S
C1301 C1300 1.385 . S
C1302 C1300 1.478 . S
C1302 C1304 1.381 . S
C1302 C1308 1.383 . S
C1303 C1299 1.495 . S
C1303 H1309 0.972 . S
C1303 H1310 0.961 . S
C1303 H1311 0.960 . S
C1304 C1302 1.381 . S
C1304 C1305 1.394 . S
C1304 H1312 0.930 . S
C1305 C1304 1.394 . S
C1305 C1306 1.383 . S
C1305 H1313 0.929 . S
C1306 C1305 1.383 . S
C1306 C1307 1.377 . S
C1307 H1291 0.930 . S
C1307 C1306 1.377 . S
C1307 C1308 1.379 . S
C1308 H1292 0.931 . S
C1308 C1302 1.383 . S
C1308 C1307 1.379 . S
H1309 C1303 0.972 . S
H1310 C1303 0.961 . S
H1311 C1303 0.960 . S
H1312 C1304 0.930 . S
H1313 C1305 0.929 . S
H1314 C1322 0.929 . S
H1315 C1324 0.930 . S
H1316 C1326 0.930 . S
H1317 C1329 0.929 . S
H1318 C1332 0.930 . S
H1319 C1334 0.960 . S
H1320 C1334 0.960 . S
H1321 C1334 0.960 . S
C1322 H1314 0.929 . S
C1322 C1323 1.377 . S
C1322 C1324 1.384 . S
C1323 C1322 1.377 . S
C1323 C1329 1.390 . S
C1324 H1315 0.930 . S
C1324 C1322 1.384 . S
C1324 C1325 1.372 . S
C1325 C1324 1.372 . S
C1325 C1326 1.400 . S
C1325 C1330 1.490 . S
C1326 H1316 0.930 . S
C1326 C1325 1.400 . S
C1326 C1329 1.386 . S
H1327 C1343 0.930 . S
H1328 C1344 0.931 . S
C1329 H1317 0.929 . S
C1329 C1323 1.390 . S
C1329 C1326 1.386 . S
C1330 C1325 1.490 . S
C1330 C1332 1.395 . S
C1330 C1333 1.403 . S
H1331 C1337 0.930 . S
C1332 H1318 0.930 . S
C1332 C1330 1.395 . S
C1332 C1335 1.403 . S
C1333 C1330 1.403 . S
C1333 C1334 1.524 . S
C1333 C1337 1.400 . S
C1334 H1319 0.960 . S
C1334 H1320 0.960 . S
C1334 H1321 0.960 . S
C1334 C1333 1.524 . S
C1335 C1332 1.403 . S
C1335 C1336 1.392 . S
C1335 C1339 1.495 . S
C1336 C1335 1.392 . S
C1336 C1337 1.385 . S
C1336 C1338 1.478 . S
C1337 H1331 0.930 . S
C1337 C1333 1.400 . S
C1337 C1336 1.385 . S
C1338 C1336 1.478 . S
C1338 C1340 1.381 . S
C1338 C1344 1.383 . S
C1339 C1335 1.495 . S
C1339 H1345 0.959 . S
C1339 H1346 0.961 . S
C1339 H1347 0.960 . S
C1340 C1338 1.381 . S
C1340 C1341 1.394 . S
C1340 H1348 0.930 . S
C1341 C1340 1.394 . S
C1341 C1342 1.383 . S
C1341 H1349 0.929 . S
C1342 C1341 1.383 . S
C1342 C1343 1.377 . S
C1343 H1327 0.930 . S
C1343 C1342 1.377 . S
C1343 C1344 1.379 . S
C1344 H1328 0.931 . S
C1344 C1338 1.383 . S
C1344 C1343 1.379 . S
H1345 C1339 0.959 . S
H1346 C1339 0.961 . S
H1347 C1339 0.960 . S
H1348 C1340 0.930 . S
H1349 C1341 0.929 . S
H1350 C1358 0.929 . S
H1351 C1360 0.930 . S
H1352 C1362 0.930 . S
H1353 C1365 0.929 . S
H1354 C1368 0.930 . S
H1355 C1370 0.960 . S
H1356 C1370 0.960 . S
H1357 C1370 0.960 . S
C1358 H1350 0.929 . S
C1358 C1359 1.377 . S
C1358 C1360 1.384 . S
C1359 C1358 1.377 . S
C1359 C1365 1.390 . S
C1360 H1351 0.930 . S
C1360 C1358 1.384 . S
C1360 C1361 1.372 . S
C1361 C1360 1.372 . S
C1361 C1362 1.400 . S
C1361 C1366 1.490 . S
C1362 H1352 0.930 . S
C1362 C1361 1.400 . S
C1362 C1365 1.386 . S
H1363 C1379 0.930 . S
H1364 C1380 0.931 . S
C1365 H1353 0.929 . S
C1365 C1359 1.390 . S
C1365 C1362 1.386 . S
C1366 C1361 1.490 . S
C1366 C1368 1.395 . S
C1366 C1369 1.403 . S
H1367 C1373 0.930 . S
C1368 H1354 0.930 . S
C1368 C1366 1.395 . S
C1368 C1371 1.403 1_545 S
C1369 C1366 1.403 . S
C1369 C1370 1.524 . S
C1369 C1373 1.400 1_545 S
C1370 H1355 0.960 . S
C1370 H1356 0.960 . S
C1370 H1357 0.960 . S
C1370 C1369 1.524 . S
C1371 C1368 1.403 1_565 S
C1371 C1372 1.392 . S
C1371 C1375 1.495 . S
C1372 C1371 1.392 . S
C1372 C1373 1.385 . S
C1372 C1374 1.478 . S
C1373 H1367 0.930 . S
C1373 C1369 1.400 1_565 S
C1373 C1372 1.385 . S
C1374 C1372 1.478 . S
C1374 C1376 1.381 . S
C1374 C1380 1.383 . S
C1375 C1371 1.495 . S
C1375 H1381 0.959 . S
C1375 H1382 0.961 . S
C1375 H1383 0.960 . S
C1376 C1374 1.381 . S
C1376 C1377 1.394 . S
C1376 H1384 0.930 . S
C1377 C1376 1.394 . S
C1377 C1378 1.383 . S
C1377 H1385 0.929 . S
C1378 C1377 1.383 . S
C1378 C1379 1.377 . S
C1379 H1363 0.930 . S
C1379 C1378 1.377 . S
C1379 C1380 1.379 . S
C1380 H1364 0.931 . S
C1380 C1374 1.383 . S
C1380 C1379 1.379 . S
H1381 C1375 0.959 . S
H1382 C1375 0.961 . S
H1383 C1375 0.960 . S
H1384 C1376 0.930 . S
H1385 C1377 0.929 . S
H1386 C1394 0.929 . S
H1387 C1396 0.930 . S
H1388 C1398 0.930 . S
H1389 C1401 0.929 . S
H1390 C1404 0.930 . S
H1391 C1406 0.960 . S
H1392 C1406 0.960 . S
H1393 C1406 0.960 . S
C1394 H1386 0.929 . S
C1394 C1395 1.377 . S
C1394 C1396 1.384 . S
C1395 C1394 1.377 . S
C1395 C1401 1.390 . S
C1396 H1387 0.930 . S
C1396 C1394 1.384 . S
C1396 C1397 1.372 . S
C1397 C1396 1.372 . S
C1397 C1398 1.400 . S
C1397 C1402 1.490 . S
C1398 H1388 0.930 . S
C1398 C1397 1.400 . S
C1398 C1401 1.386 . S
H1399 C1415 0.930 . S
H1400 C1416 0.931 . S
C1401 H1389 0.929 . S
C1401 C1395 1.390 . S
C1401 C1398 1.386 . S
C1402 C1397 1.490 . S
C1402 C1404 1.395 . S
C1402 C1405 1.403 . S
H1403 C1409 0.930 . S
C1404 H1390 0.930 . S
C1404 C1402 1.395 . S
C1404 C1407 1.403 1_455 S
C1405 C1402 1.403 . S
C1405 C1406 1.524 . S
C1405 C1409 1.400 1_455 S
C1406 H1391 0.960 . S
C1406 H1392 0.960 . S
C1406 H1393 0.960 . S
C1406 C1405 1.524 . S
C1407 C1404 1.403 1_655 S
C1407 C1408 1.392 . S
C1407 C1411 1.495 . S
C1408 C1407 1.392 . S
C1408 C1409 1.385 . S
C1408 C1410 1.478 . S
C1409 H1403 0.930 . S
C1409 C1405 1.400 1_655 S
C1409 C1408 1.385 . S
C1410 C1408 1.478 . S
C1410 C1412 1.381 . S
C1410 C1416 1.383 . S
C1411 C1407 1.495 . S
C1411 H1417 0.959 . S
C1411 H1418 0.961 . S
C1411 H1419 0.960 . S
C1412 C1410 1.381 . S
C1412 C1413 1.394 . S
C1412 H1420 0.930 . S
C1413 C1412 1.394 . S
C1413 C1414 1.383 . S
C1413 H1421 0.929 . S
C1414 C1413 1.383 . S
C1414 C1415 1.377 . S
C1415 H1399 0.930 . S
C1415 C1414 1.377 . S
C1415 C1416 1.379 . S
C1416 H1400 0.931 . S
C1416 C1410 1.383 . S
C1416 C1415 1.379 . S
H1417 C1411 0.959 . S
H1418 C1411 0.961 . S
H1419 C1411 0.960 . S
H1420 C1412 0.930 . S
H1421 C1413 0.929 . S
H1422 C1430 0.929 . S
H1423 C1432 0.930 . S
H1424 C1434 0.930 . S
H1425 C1437 0.929 . S
H1426 C1440 0.930 . S
H1427 C1442 0.960 . S
H1428 C1442 0.960 . S
H1429 C1442 0.960 . S
C1430 H1422 0.929 . S
C1430 C1431 1.377 . S
C1430 C1432 1.384 . S
C1431 C1430 1.377 . S
C1431 C1437 1.390 . S
C1432 H1423 0.930 . S
C1432 C1430 1.384 . S
C1432 C1433 1.372 . S
C1433 C1432 1.372 . S
C1433 C1434 1.400 . S
C1433 C1438 1.490 . S
C1434 H1424 0.930 . S
C1434 C1433 1.400 . S
C1434 C1437 1.386 . S
H1435 C1451 0.930 . S
H1436 C1452 0.931 . S
C1437 H1425 0.929 . S
C1437 C1431 1.390 . S
C1437 C1434 1.386 . S
C1438 C1433 1.490 . S
C1438 C1440 1.395 . S
C1438 C1441 1.403 . S
H1439 C1445 0.930 . S
C1440 H1426 0.930 . S
C1440 C1438 1.395 . S
C1440 C1443 1.403 . S
C1441 C1438 1.403 . S
C1441 C1442 1.524 . S
C1441 C1445 1.400 . S
C1442 H1427 0.960 . S
C1442 H1428 0.960 . S
C1442 H1429 0.960 . S
C1442 C1441 1.524 . S
C1443 C1440 1.403 . S
C1443 C1444 1.392 . S
C1443 C1447 1.495 . S
C1444 C1443 1.392 . S
C1444 C1445 1.385 . S
C1444 C1446 1.478 . S
C1445 H1439 0.930 . S
C1445 C1441 1.400 . S
C1445 C1444 1.385 . S
C1446 C1444 1.478 . S
C1446 C1448 1.381 . S
C1446 C1452 1.383 . S
C1447 C1443 1.495 . S
C1447 H1453 0.959 . S
C1447 H1454 0.961 . S
C1447 H1455 0.960 . S
C1448 C1446 1.381 . S
C1448 C1449 1.394 . S
C1448 H1456 0.930 . S
C1449 C1448 1.394 . S
C1449 C1450 1.383 . S
C1449 H1457 0.929 . S
C1450 C1449 1.383 . S
C1450 C1451 1.377 . S
C1451 H1435 0.930 . S
C1451 C1450 1.377 . S
C1451 C1452 1.379 . S
C1452 H1436 0.931 . S
C1452 C1446 1.383 . S
C1452 C1451 1.379 . S
H1453 C1447 0.959 . S
H1454 C1447 0.961 . S
H1455 C1447 0.960 . S
H1456 C1448 0.930 . S
H1457 C1449 0.929 . S
H1458 C1466 0.929 . S
H1459 C1468 0.930 . S
H1460 C1470 0.930 . S
H1461 C1473 0.929 . S
H1462 C1476 0.930 . S
H1463 C1478 0.960 . S
H1464 C1478 0.960 . S
H1465 C1478 0.960 . S
C1466 H1458 0.929 . S
C1466 C1467 1.377 . S
C1466 C1468 1.384 . S
C1467 C1466 1.377 . S
C1467 C1473 1.390 . S
C1468 H1459 0.930 . S
C1468 C1466 1.384 . S
C1468 C1469 1.372 . S
C1469 C1468 1.372 . S
C1469 C1470 1.400 . S
C1469 C1474 1.490 . S
C1470 H1460 0.930 . S
C1470 C1469 1.400 . S
C1470 C1473 1.386 . S
H1471 C1487 0.930 . S
H1472 C1488 0.931 . S
C1473 H1461 0.929 . S
C1473 C1467 1.390 . S
C1473 C1470 1.386 . S
C1474 C1469 1.490 . S
C1474 C1476 1.395 . S
C1474 C1477 1.403 . S
H1475 C1481 0.930 . S
C1476 H1462 0.930 . S
C1476 C1474 1.395 . S
C1476 C1479 1.403 1_545 S
C1477 C1474 1.403 . S
C1477 C1478 1.524 . S
C1477 C1481 1.400 1_545 S
C1478 H1463 0.960 . S
C1478 H1464 0.960 . S
C1478 H1465 0.960 . S
C1478 C1477 1.524 . S
C1479 C1476 1.403 1_565 S
C1479 C1480 1.392 . S
C1479 C1483 1.495 . S
C1480 C1479 1.392 . S
C1480 C1481 1.385 . S
C1480 C1482 1.478 . S
C1481 H1475 0.930 . S
C1481 C1477 1.400 1_565 S
C1481 C1480 1.385 . S
C1482 C1480 1.478 . S
C1482 C1484 1.381 . S
C1482 C1488 1.383 . S
C1483 C1479 1.495 . S
C1483 H1489 0.959 . S
C1483 H1490 0.961 . S
C1483 H1491 0.960 . S
C1484 C1482 1.381 . S
C1484 C1485 1.394 . S
C1484 H1492 0.930 . S
C1485 C1484 1.394 . S
C1485 C1486 1.383 . S
C1485 H1493 0.929 . S
C1486 C1485 1.383 . S
C1486 C1487 1.377 . S
C1487 H1471 0.930 . S
C1487 C1486 1.377 . S
C1487 C1488 1.379 . S
C1488 H1472 0.931 . S
C1488 C1482 1.383 . S
C1488 C1487 1.379 . S
H1489 C1483 0.959 . S
H1490 C1483 0.961 . S
H1491 C1483 0.960 . S
H1492 C1484 0.930 . S
H1493 C1485 0.929 . S
H1494 C1502 0.929 . S
H1495 C1504 0.930 . S
H1496 C1506 0.930 . S
H1497 C1509 0.929 . S
H1498 C1512 0.930 . S
H1499 C1514 0.960 . S
H1500 C1514 0.960 . S
H1501 C1514 0.960 . S
C1502 H1494 0.929 . S
C1502 C1503 1.377 . S
C1502 C1504 1.384 . S
C1503 C1502 1.377 . S
C1503 C1509 1.390 . S
C1504 H1495 0.930 . S
C1504 C1502 1.384 . S
C1504 C1505 1.372 . S
C1505 C1504 1.372 . S
C1505 C1506 1.400 . S
C1505 C1510 1.490 . S
C1506 H1496 0.930 . S
C1506 C1505 1.400 . S
C1506 C1509 1.386 . S
H1507 C1523 0.930 . S
H1508 C1524 0.931 . S
C1509 H1497 0.929 . S
C1509 C1503 1.390 . S
C1509 C1506 1.386 . S
C1510 C1505 1.490 . S
C1510 C1512 1.395 . S
C1510 C1513 1.403 . S
H1511 C1517 0.930 . S
C1512 H1498 0.930 . S
C1512 C1510 1.395 . S
C1512 C1515 1.403 1_565 S
C1513 C1510 1.403 . S
C1513 C1514 1.524 . S
C1513 C1517 1.400 1_565 S
C1514 H1499 0.960 . S
C1514 H1500 0.960 . S
C1514 H1501 0.960 . S
C1514 C1513 1.524 . S
C1515 C1512 1.403 1_545 S
C1515 C1516 1.392 . S
C1515 C1519 1.495 . S
C1516 C1515 1.392 . S
C1516 C1517 1.385 . S
C1516 C1518 1.478 . S
C1517 H1511 0.930 . S
C1517 C1513 1.400 1_545 S
C1517 C1516 1.385 . S
C1518 C1516 1.478 . S
C1518 C1520 1.381 . S
C1518 C1524 1.383 . S
C1519 C1515 1.495 . S
C1519 H1525 0.959 . S
C1519 H1526 0.961 . S
C1519 H1527 0.960 . S
C1520 C1518 1.381 . S
C1520 C1521 1.394 . S
C1520 H1528 0.930 . S
C1521 C1520 1.394 . S
C1521 C1522 1.383 . S
C1521 H1529 0.929 . S
C1522 C1521 1.383 . S
C1522 C1523 1.377 . S
C1523 H1507 0.930 . S
C1523 C1522 1.377 . S
C1523 C1524 1.379 . S
C1524 H1508 0.931 . S
C1524 C1518 1.383 . S
C1524 C1523 1.379 . S
H1525 C1519 0.959 . S
H1526 C1519 0.961 . S
H1527 C1519 0.960 . S
H1528 C1520 0.930 . S
H1529 C1521 0.929 . S
H1530 C1538 0.929 . S
H1531 C1540 0.930 . S
H1532 C1542 0.930 . S
H1533 C1545 0.929 . S
H1534 C1548 0.930 . S
H1535 C1550 0.960 . S
H1536 C1550 0.960 . S
H1537 C1550 0.960 . S
C1538 H1530 0.929 . S
C1538 C1539 1.377 . S
C1538 C1540 1.384 . S
C1539 C1538 1.377 . S
C1539 C1545 1.390 . S
C1540 H1531 0.930 . S
C1540 C1538 1.384 . S
C1540 C1541 1.372 . S
C1541 C1540 1.372 . S
C1541 C1542 1.400 . S
C1541 C1546 1.490 . S
C1542 H1532 0.930 . S
C1542 C1541 1.400 . S
C1542 C1545 1.386 . S
H1543 C1559 0.930 . S
H1544 C1560 0.931 . S
C1545 H1533 0.929 . S
C1545 C1539 1.390 . S
C1545 C1542 1.386 . S
C1546 C1541 1.490 . S
C1546 C1548 1.395 . S
C1546 C1549 1.403 . S
H1547 C1553 0.930 . S
C1548 H1534 0.930 . S
C1548 C1546 1.395 . S
C1548 C1551 1.403 1_455 S
C1549 C1546 1.403 . S
C1549 C1550 1.524 . S
C1549 C1553 1.400 1_455 S
C1550 H1535 0.960 . S
C1550 H1536 0.960 . S
C1550 H1537 0.960 . S
C1550 C1549 1.524 . S
C1551 C1548 1.403 1_655 S
C1551 C1552 1.392 . S
C1551 C1555 1.495 . S
C1552 C1551 1.392 . S
C1552 C1553 1.385 . S
C1552 C1554 1.478 . S
C1553 H1547 0.930 . S
C1553 C1549 1.400 1_655 S
C1553 C1552 1.385 . S
C1554 C1552 1.478 . S
C1554 C1556 1.381 . S
C1554 C1560 1.383 . S
C1555 C1551 1.495 . S
C1555 H1561 0.959 . S
C1555 H1562 0.961 . S
C1555 H1563 0.960 . S
C1556 C1554 1.381 . S
C1556 C1557 1.394 . S
C1556 H1564 0.930 . S
C1557 C1556 1.394 . S
C1557 C1558 1.383 . S
C1557 H1565 0.929 . S
C1558 C1557 1.383 . S
C1558 C1559 1.377 . S
C1559 H1543 0.930 . S
C1559 C1558 1.377 . S
C1559 C1560 1.379 . S
C1560 H1544 0.931 . S
C1560 C1554 1.383 . S
C1560 C1559 1.379 . S
H1561 C1555 0.959 . S
H1562 C1555 0.961 . S
H1563 C1555 0.960 . S
H1564 C1556 0.930 . S
H1565 C1557 0.929 . S
H1566 C1574 0.929 . S
H1567 C1576 0.930 . S
H1568 C1578 0.930 . S
H1569 C1581 0.929 . S
H1570 C1584 0.930 . S
H1571 C1586 0.960 . S
H1572 C1586 0.960 . S
H1573 C1586 0.960 . S
C1574 H1566 0.929 . S
C1574 C1575 1.377 . S
C1574 C1576 1.384 . S
C1575 C1574 1.377 . S
C1575 C1581 1.390 . S
C1576 H1567 0.930 . S
C1576 C1574 1.384 . S
C1576 C1577 1.372 . S
C1577 C1576 1.372 . S
C1577 C1578 1.400 . S
C1577 C1582 1.490 . S
C1578 H1568 0.930 . S
C1578 C1577 1.400 . S
C1578 C1581 1.386 . S
H1579 C1595 0.930 . S
H1580 C1596 0.931 . S
C1581 H1569 0.929 . S
C1581 C1575 1.390 . S
C1581 C1578 1.386 . S
C1582 C1577 1.490 . S
C1582 C1584 1.395 . S
C1582 C1585 1.403 . S
H1583 C1589 0.930 . S
C1584 H1570 0.930 . S
C1584 C1582 1.395 . S
C1584 C1587 1.403 . S
C1585 C1582 1.403 . S
C1585 C1586 1.524 . S
C1585 C1589 1.400 . S
C1586 H1571 0.960 . S
C1586 H1572 0.960 . S
C1586 H1573 0.960 . S
C1586 C1585 1.524 . S
C1587 C1584 1.403 . S
C1587 C1588 1.392 . S
C1587 C1591 1.495 . S
C1588 C1587 1.392 . S
C1588 C1589 1.385 . S
C1588 C1590 1.478 . S
C1589 H1583 0.930 . S
C1589 C1585 1.400 . S
C1589 C1588 1.385 . S
C1590 C1588 1.478 . S
C1590 C1592 1.381 . S
C1590 C1596 1.383 . S
C1591 C1587 1.495 . S
C1591 H1597 0.959 . S
C1591 H1598 0.961 . S
C1591 H1599 0.960 . S
C1592 C1590 1.381 . S
C1592 C1593 1.394 . S
C1592 H1600 0.930 . S
C1593 C1592 1.394 . S
C1593 C1594 1.383 . S
C1593 H1601 0.929 . S
C1594 C1593 1.383 . S
C1594 C1595 1.377 . S
C1595 H1579 0.930 . S
C1595 C1594 1.377 . S
C1595 C1596 1.379 . S
C1596 H1580 0.931 . S
C1596 C1590 1.383 . S
C1596 C1595 1.379 . S
H1597 C1591 0.959 . S
H1598 C1591 0.961 . S
H1599 C1591 0.960 . S
H1600 C1592 0.930 . S
H1601 C1593 0.929 . S
H1602 C1610 0.929 . S
H1603 C1612 0.930 . S
H1604 C1614 0.930 . S
H1605 C1617 0.929 . S
H1606 C1620 0.930 . S
H1607 C1622 0.960 . S
H1608 C1622 0.960 . S
H1609 C1622 0.960 . S
C1610 H1602 0.929 . S
C1610 C1611 1.377 . S
C1610 C1612 1.384 . S
C1611 C1610 1.377 . S
C1611 C1617 1.390 . S
C1612 H1603 0.930 . S
C1612 C1610 1.384 . S
C1612 C1613 1.372 . S
C1613 C1612 1.372 . S
C1613 C1614 1.400 . S
C1613 C1618 1.490 . S
C1614 H1604 0.930 . S
C1614 C1613 1.400 . S
C1614 C1617 1.386 . S
H1615 C1631 0.930 . S
H1616 C1632 0.931 . S
C1617 H1605 0.929 . S
C1617 C1611 1.390 . S
C1617 C1614 1.386 . S
C1618 C1613 1.490 . S
C1618 C1620 1.395 . S
C1618 C1621 1.403 . S
H1619 C1625 0.930 . S
C1620 H1606 0.930 . S
C1620 C1618 1.395 . S
C1620 C1623 1.403 . S
C1621 C1618 1.403 . S
C1621 C1622 1.524 . S
C1621 C1625 1.400 . S
C1622 H1607 0.960 . S
C1622 H1608 0.960 . S
C1622 H1609 0.960 . S
C1622 C1621 1.524 . S
C1623 C1620 1.403 . S
C1623 C1624 1.392 . S
C1623 C1627 1.495 . S
C1624 C1623 1.392 . S
C1624 C1625 1.385 . S
C1624 C1626 1.478 . S
C1625 H1619 0.930 . S
C1625 C1621 1.400 . S
C1625 C1624 1.385 . S
C1626 C1624 1.478 . S
C1626 C1628 1.381 . S
C1626 C1632 1.383 . S
C1627 C1623 1.495 . S
C1627 H1633 0.959 . S
C1627 H1634 0.961 . S
C1627 H1635 0.960 . S
C1628 C1626 1.381 . S
C1628 C1629 1.394 . S
C1628 H1636 0.930 . S
C1629 C1628 1.394 . S
C1629 C1630 1.383 . S
C1629 H1637 0.929 . S
C1630 C1629 1.383 . S
C1630 C1631 1.377 . S
C1631 H1615 0.930 . S
C1631 C1630 1.377 . S
C1631 C1632 1.379 . S
C1632 H1616 0.931 . S
C1632 C1626 1.383 . S
C1632 C1631 1.379 . S
H1633 C1627 0.959 . S
H1634 C1627 0.961 . S
H1635 C1627 0.960 . S
H1636 C1628 0.930 . S
H1637 C1629 0.929 . S
H1638 C1646 0.929 . S
H1639 C1648 0.930 . S
H1640 C1650 0.930 . S
H1641 C1653 0.929 . S
H1642 C1656 0.930 . S
H1643 C1658 0.960 . S
H1644 C1658 0.960 . S
H1645 C1658 0.960 . S
C1646 H1638 0.929 . S
C1646 C1647 1.377 . S
C1646 C1648 1.384 . S
C1647 C1646 1.377 . S
C1647 C1653 1.390 . S
C1648 H1639 0.930 . S
C1648 C1646 1.384 . S
C1648 C1649 1.372 . S
C1649 C1648 1.372 . S
C1649 C1650 1.400 . S
C1649 C1654 1.490 . S
C1650 H1640 0.930 . S
C1650 C1649 1.400 . S
C1650 C1653 1.386 . S
H1651 C1667 0.930 . S
H1652 C1668 0.931 . S
C1653 H1641 0.929 . S
C1653 C1647 1.390 . S
C1653 C1650 1.386 . S
C1654 C1649 1.490 . S
C1654 C1656 1.395 . S
C1654 C1657 1.403 . S
H1655 C1661 0.930 . S
C1656 H1642 0.930 . S
C1656 C1654 1.395 . S
C1656 C1659 1.403 . S
C1657 C1654 1.403 . S
C1657 C1658 1.524 . S
C1657 C1661 1.400 . S
C1658 H1643 0.960 . S
C1658 H1644 0.960 . S
C1658 H1645 0.960 . S
C1658 C1657 1.524 . S
C1659 C1656 1.403 . S
C1659 C1660 1.392 . S
C1659 C1663 1.495 . S
C1660 C1659 1.392 . S
C1660 C1661 1.385 . S
C1660 C1662 1.478 . S
C1661 H1655 0.930 . S
C1661 C1657 1.400 . S
C1661 C1660 1.385 . S
C1662 C1660 1.478 . S
C1662 C1664 1.381 . S
C1662 C1668 1.383 . S
C1663 C1659 1.495 . S
C1663 H1669 0.959 . S
C1663 H1670 0.961 . S
C1663 H1671 0.960 . S
C1664 C1662 1.381 . S
C1664 C1665 1.394 . S
C1664 H1672 0.930 . S
C1665 C1664 1.394 . S
C1665 C1666 1.383 . S
C1665 H1673 0.929 . S
C1666 C1665 1.383 . S
C1666 C1667 1.377 . S
C1667 H1651 0.930 . S
C1667 C1666 1.377 . S
C1667 C1668 1.379 . S
C1668 H1652 0.931 . S
C1668 C1662 1.383 . S
C1668 C1667 1.379 . S
H1669 C1663 0.959 . S
H1670 C1663 0.961 . S
H1671 C1663 0.960 . S
H1672 C1664 0.930 . S
H1673 C1665 0.929 . S
H1674 C1682 0.929 . S
H1675 C1684 0.930 . S
H1676 C1686 0.930 . S
H1677 C1689 0.929 . S
H1678 C1692 0.930 . S
H1679 C1694 0.960 . S
H1680 C1694 0.960 . S
H1681 C1694 0.960 . S
C1682 H1674 0.929 . S
C1682 C1683 1.377 . S
C1682 C1684 1.384 . S
C1683 C1682 1.377 . S
C1683 C1689 1.390 . S
C1684 H1675 0.930 . S
C1684 C1682 1.384 . S
C1684 C1685 1.372 . S
C1685 C1684 1.372 . S
C1685 C1686 1.400 . S
C1685 C1690 1.490 . S
C1686 H1676 0.930 . S
C1686 C1685 1.400 . S
C1686 C1689 1.386 . S
H1687 C1703 0.930 . S
H1688 C1704 0.931 . S
C1689 H1677 0.929 . S
C1689 C1683 1.390 . S
C1689 C1686 1.386 . S
C1690 C1685 1.490 . S
C1690 C1692 1.395 . S
C1690 C1693 1.403 . S
H1691 C1697 0.930 . S
C1692 H1678 0.930 . S
C1692 C1690 1.395 . S
C1692 C1695 1.403 . S
C1693 C1690 1.403 . S
C1693 C1694 1.524 . S
C1693 C1697 1.400 . S
C1694 H1679 0.960 . S
C1694 H1680 0.960 . S
C1694 H1681 0.960 . S
C1694 C1693 1.524 . S
C1695 C1692 1.403 . S
C1695 C1696 1.392 . S
C1695 C1699 1.495 . S
C1696 C1695 1.392 . S
C1696 C1697 1.385 . S
C1696 C1698 1.478 . S
C1697 H1691 0.930 . S
C1697 C1693 1.400 . S
C1697 C1696 1.385 . S
C1698 C1696 1.478 . S
C1698 C1700 1.381 . S
C1698 C1704 1.383 . S
C1699 C1695 1.495 . S
C1699 H1705 0.959 . S
C1699 H1706 0.961 . S
C1699 H1707 0.960 . S
C1700 C1698 1.381 . S
C1700 C1701 1.394 . S
C1700 H1708 0.930 . S
C1701 C1700 1.394 . S
C1701 C1702 1.383 . S
C1701 H1709 0.929 . S
C1702 C1701 1.383 . S
C1702 C1703 1.377 . S
C1703 H1687 0.930 . S
C1703 C1702 1.377 . S
C1703 C1704 1.379 . S
C1704 H1688 0.931 . S
C1704 C1698 1.383 . S
C1704 C1703 1.379 . S
H1705 C1699 0.959 . S
H1706 C1699 0.961 . S
H1707 C1699 0.960 . S
H1708 C1700 0.930 . S
H1709 C1701 0.929 . S
H1710 C1718 0.929 . S
H1711 C1720 0.930 . S
H1712 C1722 0.930 . S
H1713 C1725 0.929 . S
H1714 C1728 0.930 . S
H1715 C1730 0.960 . S
H1716 C1730 0.960 . S
H1717 C1730 0.960 . S
C1718 H1710 0.929 . S
C1718 C1719 1.377 . S
C1718 C1720 1.384 . S
C1719 C1718 1.377 . S
C1719 C1725 1.390 . S
C1720 H1711 0.930 . S
C1720 C1718 1.384 . S
C1720 C1721 1.372 . S
C1721 C1720 1.372 . S
C1721 C1722 1.400 . S
C1721 C1726 1.490 . S
C1722 H1712 0.930 . S
C1722 C1721 1.400 . S
C1722 C1725 1.386 . S
H1723 C1739 0.930 . S
H1724 C1740 0.931 . S
C1725 H1713 0.929 . S
C1725 C1719 1.390 . S
C1725 C1722 1.386 . S
C1726 C1721 1.490 . S
C1726 C1728 1.395 . S
C1726 C1729 1.403 . S
H1727 C1733 0.930 . S
C1728 H1714 0.930 . S
C1728 C1726 1.395 . S
C1728 C1731 1.403 . S
C1729 C1726 1.403 . S
C1729 C1730 1.524 . S
C1729 C1733 1.400 . S
C1730 H1715 0.960 . S
C1730 H1716 0.960 . S
C1730 H1717 0.960 . S
C1730 C1729 1.524 . S
C1731 C1728 1.403 . S
C1731 C1732 1.392 . S
C1731 C1735 1.495 . S
C1732 C1731 1.392 . S
C1732 C1733 1.385 . S
C1732 C1734 1.478 . S
C1733 H1727 0.930 . S
C1733 C1729 1.400 . S
C1733 C1732 1.385 . S
C1734 C1732 1.478 . S
C1734 C1736 1.381 . S
C1734 C1740 1.383 . S
C1735 C1731 1.495 . S
C1735 H1741 0.959 . S
C1735 H1742 0.961 . S
C1735 H1743 0.960 . S
C1736 C1734 1.381 . S
C1736 C1737 1.394 . S
C1736 H1744 0.930 . S
C1737 C1736 1.394 . S
C1737 C1738 1.383 . S
C1737 H1745 0.929 . S
C1738 C1737 1.383 . S
C1738 C1739 1.377 . S
C1739 H1723 0.930 . S
C1739 C1738 1.377 . S
C1739 C1740 1.379 . S
C1740 H1724 0.931 . S
C1740 C1734 1.383 . S
C1740 C1739 1.379 . S
H1741 C1735 0.959 . S
H1742 C1735 0.961 . S
H1743 C1735 0.960 . S
H1744 C1736 0.930 . S
H1745 C1737 0.929 . S
H1746 C1754 0.929 . S
H1747 C1756 0.930 . S
H1748 C1758 0.930 . S
H1749 C1761 0.929 . S
H1750 C1764 0.930 . S
H1751 C1766 0.960 . S
H1752 C1766 0.960 . S
H1753 C1766 0.960 . S
C1754 H1746 0.929 . S
C1754 C1755 1.377 . S
C1754 C1756 1.384 . S
C1755 C1754 1.377 . S
C1755 C1761 1.390 . S
C1756 H1747 0.930 . S
C1756 C1754 1.384 . S
C1756 C1757 1.372 . S
C1757 C1756 1.372 . S
C1757 C1758 1.400 . S
C1757 C1762 1.490 . S
C1758 H1748 0.930 . S
C1758 C1757 1.400 . S
C1758 C1761 1.386 . S
H1759 C1775 0.930 . S
H1760 C1776 0.931 . S
C1761 H1749 0.929 . S
C1761 C1755 1.390 . S
C1761 C1758 1.386 . S
C1762 C1757 1.490 . S
C1762 C1764 1.395 . S
C1762 C1765 1.403 . S
H1763 C1769 0.930 . S
C1764 H1750 0.930 . S
C1764 C1762 1.395 . S
C1764 C1767 1.403 . S
C1765 C1762 1.403 . S
C1765 C1766 1.524 . S
C1765 C1769 1.400 . S
C1766 H1751 0.960 . S
C1766 H1752 0.960 . S
C1766 H1753 0.960 . S
C1766 C1765 1.524 . S
C1767 C1764 1.403 . S
C1767 C1768 1.392 . S
C1767 C1771 1.495 . S
C1768 C1767 1.392 . S
C1768 C1769 1.385 . S
C1768 C1770 1.478 . S
C1769 H1763 0.930 . S
C1769 C1765 1.400 . S
C1769 C1768 1.385 . S
C1770 C1768 1.478 . S
C1770 C1772 1.381 . S
C1770 C1776 1.383 . S
C1771 C1767 1.495 . S
C1771 H1777 0.959 . S
C1771 H1778 0.961 . S
C1771 H1779 0.960 . S
C1772 C1770 1.381 . S
C1772 C1773 1.394 . S
C1772 H1780 0.930 . S
C1773 C1772 1.394 . S
C1773 C1774 1.383 . S
C1773 H1781 0.929 . S
C1774 C1773 1.383 . S
C1774 C1775 1.377 . S
C1775 H1759 0.930 . S
C1775 C1774 1.377 . S
C1775 C1776 1.379 . S
C1776 H1760 0.931 . S
C1776 C1770 1.383 . S
C1776 C1775 1.379 . S
H1777 C1771 0.959 . S
H1778 C1771 0.961 . S
H1779 C1771 0.960 . S
H1780 C1772 0.930 . S
H1781 C1773 0.929 . S
H1782 C1790 0.929 . S
H1783 C1792 0.930 . S
H1784 C1794 0.930 . S
H1785 C1797 0.929 . S
H1786 C1800 0.930 . S
H1787 C1802 0.960 . S
H1788 C1802 0.960 . S
H1789 C1802 0.960 . S
C1790 H1782 0.929 . S
C1790 C1791 1.377 . S
C1790 C1792 1.384 . S
C1791 C1790 1.377 . S
C1791 C1797 1.390 . S
C1792 H1783 0.930 . S
C1792 C1790 1.384 . S
C1792 C1793 1.372 . S
C1793 C1792 1.372 . S
C1793 C1794 1.400 . S
C1793 C1798 1.490 . S
C1794 H1784 0.930 . S
C1794 C1793 1.400 . S
C1794 C1797 1.386 . S
H1795 C1811 0.930 . S
H1796 C1812 0.931 . S
C1797 H1785 0.929 . S
C1797 C1791 1.390 . S
C1797 C1794 1.386 . S
C1798 C1793 1.490 . S
C1798 C1800 1.395 . S
C1798 C1801 1.403 . S
H1799 C1805 0.930 . S
C1800 H1786 0.930 . S
C1800 C1798 1.395 . S
C1800 C1803 1.403 . S
C1801 C1798 1.403 . S
C1801 C1802 1.524 . S
C1801 C1805 1.400 . S
C1802 H1787 0.960 . S
C1802 H1788 0.960 . S
C1802 H1789 0.960 . S
C1802 C1801 1.524 . S
C1803 C1800 1.403 . S
C1803 C1804 1.392 . S
C1803 C1807 1.495 . S
C1804 C1803 1.392 . S
C1804 C1805 1.385 . S
C1804 C1806 1.478 . S
C1805 H1799 0.930 . S
C1805 C1801 1.400 . S
C1805 C1804 1.385 . S
C1806 C1804 1.478 . S
C1806 C1808 1.381 . S
C1806 C1812 1.383 . S
C1807 C1803 1.495 . S
C1807 H1813 0.959 . S
C1807 H1814 0.961 . S
C1807 H1815 0.960 . S
C1808 C1806 1.381 . S
C1808 C1809 1.394 . S
C1808 H1816 0.930 . S
C1809 C1808 1.394 . S
C1809 C1810 1.383 . S
C1809 H1817 0.929 . S
C1810 C1809 1.383 . S
C1810 C1811 1.377 . S
C1811 H1795 0.930 . S
C1811 C1810 1.377 . S
C1811 C1812 1.379 . S
C1812 H1796 0.931 . S
C1812 C1806 1.383 . S
C1812 C1811 1.379 . S
H1813 C1807 0.959 . S
H1814 C1807 0.961 . S
H1815 C1807 0.960 . S
H1816 C1808 0.930 . S
H1817 C1809 0.929 . S
H1818 C1826 0.929 . S
H1819 C1828 0.930 . S
H1820 C1830 0.930 . S
H1821 C1833 0.929 . S
H1822 C1836 0.930 . S
H1823 C1838 0.960 . S
H1824 C1838 0.960 . S
H1825 C1838 0.960 . S
C1826 H1818 0.929 . S
C1826 C1827 1.377 . S
C1826 C1828 1.384 . S
C1827 C1826 1.377 . S
C1827 C1833 1.390 . S
C1828 H1819 0.930 . S
C1828 C1826 1.384 . S
C1828 C1829 1.372 . S
C1829 C1828 1.372 . S
C1829 C1830 1.400 . S
C1829 C1834 1.490 . S
C1830 H1820 0.930 . S
C1830 C1829 1.400 . S
C1830 C1833 1.386 . S
H1831 C1847 0.930 . S
H1832 C1848 0.931 . S
C1833 H1821 0.929 . S
C1833 C1827 1.390 . S
C1833 C1830 1.386 . S
C1834 C1829 1.490 . S
C1834 C1836 1.395 . S
C1834 C1837 1.403 . S
H1835 C1841 0.930 . S
C1836 H1822 0.930 . S
C1836 C1834 1.395 . S
C1836 C1839 1.403 . S
C1837 C1834 1.403 . S
C1837 C1838 1.524 . S
C1837 C1841 1.400 . S
C1838 H1823 0.960 . S
C1838 H1824 0.960 . S
C1838 H1825 0.960 . S
C1838 C1837 1.524 . S
C1839 C1836 1.403 . S
C1839 C1840 1.392 . S
C1839 C1843 1.495 . S
C1840 C1839 1.392 . S
C1840 C1841 1.385 . S
C1840 C1842 1.478 . S
C1841 H1835 0.930 . S
C1841 C1837 1.400 . S
C1841 C1840 1.385 . S
C1842 C1840 1.478 . S
C1842 C1844 1.381 . S
C1842 C1848 1.383 . S
C1843 C1839 1.495 . S
C1843 H1849 0.959 . S
C1843 H1850 0.961 . S
C1843 H1851 0.960 . S
C1844 C1842 1.381 . S
C1844 C1845 1.394 . S
C1844 H1852 0.930 . S
C1845 C1844 1.394 . S
C1845 C1846 1.383 . S
C1845 H1853 0.929 . S
C1846 C1845 1.383 . S
C1846 C1847 1.377 . S
C1847 H1831 0.930 . S
C1847 C1846 1.377 . S
C1847 C1848 1.379 . S
C1848 H1832 0.931 . S
C1848 C1842 1.383 . S
C1848 C1847 1.379 . S
H1849 C1843 0.959 . S
H1850 C1843 0.961 . S
H1851 C1843 0.960 . S
H1852 C1844 0.930 . S
H1853 C1845 0.929 . S
H1854 C1862 0.929 . S
H1855 C1864 0.930 . S
H1856 C1866 0.930 . S
H1857 C1869 0.929 . S
H1858 C1872 0.930 . S
H1859 C1874 0.960 . S
H1860 C1874 0.960 . S
H1861 C1874 0.960 . S
C1862 H1854 0.929 . S
C1862 C1863 1.377 . S
C1862 C1864 1.384 . S
C1863 C1862 1.377 . S
C1863 C1869 1.390 . S
C1864 H1855 0.930 . S
C1864 C1862 1.384 . S
C1864 C1865 1.372 . S
C1865 C1864 1.372 . S
C1865 C1866 1.400 . S
C1865 C1870 1.490 . S
C1866 H1856 0.930 . S
C1866 C1865 1.400 . S
C1866 C1869 1.386 . S
H1867 C1883 0.930 . S
H1868 C1884 0.931 . S
C1869 H1857 0.929 . S
C1869 C1863 1.390 . S
C1869 C1866 1.386 . S
C1870 C1865 1.490 . S
C1870 C1872 1.395 . S
C1870 C1873 1.403 . S
H1871 C1877 0.930 . S
C1872 H1858 0.930 . S
C1872 C1870 1.395 . S
C1872 C1875 1.403 . S
C1873 C1870 1.403 . S
C1873 C1874 1.524 . S
C1873 C1877 1.400 . S
C1874 H1859 0.960 . S
C1874 H1860 0.960 . S
C1874 H1861 0.960 . S
C1874 C1873 1.524 . S
C1875 C1872 1.403 . S
C1875 C1876 1.392 . S
C1875 C1879 1.495 . S
C1876 C1875 1.392 . S
C1876 C1877 1.385 . S
C1876 C1878 1.478 . S
C1877 H1871 0.930 . S
C1877 C1873 1.400 . S
C1877 C1876 1.385 . S
C1878 C1876 1.478 . S
C1878 C1880 1.381 . S
C1878 C1884 1.383 . S
C1879 C1875 1.495 . S
C1879 H1885 0.959 . S
C1879 H1886 0.961 . S
C1879 H1887 0.960 . S
C1880 C1878 1.381 . S
C1880 C1881 1.394 . S
C1880 H1888 0.930 . S
C1881 C1880 1.394 . S
C1881 C1882 1.383 . S
C1881 H1889 0.929 . S
C1882 C1881 1.383 . S
C1882 C1883 1.377 . S
C1883 H1867 0.930 . S
C1883 C1882 1.377 . S
C1883 C1884 1.379 . S
C1884 H1868 0.931 . S
C1884 C1878 1.383 . S
C1884 C1883 1.379 . S
H1885 C1879 0.959 . S
H1886 C1879 0.961 . S
H1887 C1879 0.960 . S
H1888 C1880 0.930 . S
H1889 C1881 0.929 . S
H1890 C1898 0.929 . S
H1891 C1900 0.930 . S
H1892 C1902 0.930 . S
H1893 C1905 0.929 . S
H1894 C1908 0.930 . S
H1895 C1910 0.960 . S
H1896 C1910 0.960 . S
H1897 C1910 0.960 . S
C1898 H1890 0.929 . S
C1898 C1899 1.377 . S
C1898 C1900 1.384 . S
C1899 C1898 1.377 . S
C1899 C1905 1.390 . S
C1900 H1891 0.930 . S
C1900 C1898 1.384 . S
C1900 C1901 1.372 . S
C1901 C1900 1.372 . S
C1901 C1902 1.400 . S
C1901 C1906 1.490 . S
C1902 H1892 0.930 . S
C1902 C1901 1.400 . S
C1902 C1905 1.386 . S
H1903 C1919 0.930 . S
H1904 C1920 0.931 . S
C1905 H1893 0.929 . S
C1905 C1899 1.390 . S
C1905 C1902 1.386 . S
C1906 C1901 1.490 . S
C1906 C1908 1.395 . S
C1906 C1909 1.403 . S
H1907 C1913 0.930 . S
C1908 H1894 0.930 . S
C1908 C1906 1.395 . S
C1908 C1911 1.403 . S
C1909 C1906 1.403 . S
C1909 C1910 1.524 . S
C1909 C1913 1.400 . S
C1910 H1895 0.960 . S
C1910 H1896 0.960 . S
C1910 H1897 0.960 . S
C1910 C1909 1.524 . S
C1911 C1908 1.403 . S
C1911 C1912 1.392 . S
C1911 C1915 1.495 . S
C1912 C1911 1.392 . S
C1912 C1913 1.385 . S
C1912 C1914 1.478 . S
C1913 H1907 0.930 . S
C1913 C1909 1.400 . S
C1913 C1912 1.385 . S
C1914 C1912 1.478 . S
C1914 C1916 1.381 . S
C1914 C1920 1.383 . S
C1915 C1911 1.495 . S
C1915 H1921 0.959 . S
C1915 H1922 0.961 . S
C1915 H1923 0.960 . S
C1916 C1914 1.381 . S
C1916 C1917 1.394 . S
C1916 H1924 0.930 . S
C1917 C1916 1.394 . S
C1917 C1918 1.383 . S
C1917 H1925 0.929 . S
C1918 C1917 1.383 . S
C1918 C1919 1.377 . S
C1919 H1903 0.930 . S
C1919 C1918 1.377 . S
C1919 C1920 1.379 . S
C1920 H1904 0.931 . S
C1920 C1914 1.383 . S
C1920 C1919 1.379 . S
H1921 C1915 0.959 . S
H1922 C1915 0.961 . S
H1923 C1915 0.960 . S
H1924 C1916 0.930 . S
H1925 C1917 0.929 . S
H1926 C1934 0.929 . S
H1927 C1936 0.930 . S
H1928 C1938 0.930 . S
H1929 C1941 0.929 . S
H1930 C1944 0.930 . S
H1931 C1946 0.960 . S
H1932 C1946 0.960 . S
H1933 C1946 0.960 . S
C1934 H1926 0.929 . S
C1934 C1935 1.377 . S
C1934 C1936 1.384 . S
C1935 C1934 1.377 . S
C1935 C1941 1.390 . S
C1936 H1927 0.930 . S
C1936 C1934 1.384 . S
C1936 C1937 1.372 . S
C1937 C1936 1.372 . S
C1937 C1938 1.400 . S
C1937 C1942 1.490 . S
C1938 H1928 0.930 . S
C1938 C1937 1.400 . S
C1938 C1941 1.386 . S
H1939 C1955 0.930 . S
H1940 C1956 0.931 . S
C1941 H1929 0.929 . S
C1941 C1935 1.390 . S
C1941 C1938 1.386 . S
C1942 C1937 1.490 . S
C1942 C1944 1.395 . S
C1942 C1945 1.403 . S
H1943 C1949 0.930 . S
C1944 H1930 0.930 . S
C1944 C1942 1.395 . S
C1944 C1947 1.403 . S
C1945 C1942 1.403 . S
C1945 C1946 1.524 . S
C1945 C1949 1.400 . S
C1946 H1931 0.960 . S
C1946 H1932 0.960 . S
C1946 H1933 0.960 . S
C1946 C1945 1.524 . S
C1947 C1944 1.403 . S
C1947 C1948 1.392 . S
C1947 C1951 1.495 . S
C1948 C1947 1.392 . S
C1948 C1949 1.385 . S
C1948 C1950 1.478 . S
C1949 H1943 0.930 . S
C1949 C1945 1.400 . S
C1949 C1948 1.385 . S
C1950 C1948 1.478 . S
C1950 C1952 1.381 . S
C1950 C1956 1.383 . S
C1951 C1947 1.495 . S
C1951 H1957 0.959 . S
C1951 H1958 0.961 . S
C1951 H1959 0.960 . S
C1952 C1950 1.381 . S
C1952 C1953 1.394 . S
C1952 H1960 0.930 . S
C1953 C1952 1.394 . S
C1953 C1954 1.383 . S
C1953 H1961 0.929 . S
C1954 C1953 1.383 . S
C1954 C1955 1.377 . S
C1955 H1939 0.930 . S
C1955 C1954 1.377 . S
C1955 C1956 1.379 . S
C1956 H1940 0.931 . S
C1956 C1950 1.383 . S
C1956 C1955 1.379 . S
H1957 C1951 0.959 . S
H1958 C1951 0.961 . S
H1959 C1951 0.960 . S
H1960 C1952 0.930 . S
H1961 C1953 0.929 . S
H1962 C1970 0.929 . S
H1963 C1972 0.930 . S
H1964 C1974 0.930 . S
H1965 C1977 0.929 . S
H1966 C1980 0.930 . S
H1967 C1982 0.960 . S
H1968 C1982 0.960 . S
H1969 C1982 0.960 . S
C1970 H1962 0.929 . S
C1970 C1971 1.377 . S
C1970 C1972 1.384 . S
C1971 C1970 1.377 . S
C1971 C1977 1.390 . S
C1972 H1963 0.930 . S
C1972 C1970 1.384 . S
C1972 C1973 1.372 . S
C1973 C1972 1.372 . S
C1973 C1974 1.400 . S
C1973 C1978 1.490 . S
C1974 H1964 0.930 . S
C1974 C1973 1.400 . S
C1974 C1977 1.386 . S
H1975 C1991 0.930 . S
H1976 C1992 0.931 . S
C1977 H1965 0.929 . S
C1977 C1971 1.390 . S
C1977 C1974 1.386 . S
C1978 C1973 1.490 . S
C1978 C1980 1.395 . S
C1978 C1981 1.403 . S
H1979 C1985 0.930 . S
C1980 H1966 0.930 . S
C1980 C1978 1.395 . S
C1980 C1983 1.403 . S
C1981 C1978 1.403 . S
C1981 C1982 1.524 . S
C1981 C1985 1.400 . S
C1982 H1967 0.960 . S
C1982 H1968 0.960 . S
C1982 H1969 0.960 . S
C1982 C1981 1.524 . S
C1983 C1980 1.403 . S
C1983 C1984 1.392 . S
C1983 C1987 1.495 . S
C1984 C1983 1.392 . S
C1984 C1985 1.385 . S
C1984 C1986 1.478 . S
C1985 H1979 0.930 . S
C1985 C1981 1.400 . S
C1985 C1984 1.385 . S
C1986 C1984 1.478 . S
C1986 C1988 1.381 . S
C1986 C1992 1.383 . S
C1987 C1983 1.495 . S
C1987 H1993 0.959 . S
C1987 H1994 0.961 . S
C1987 H1995 0.960 . S
C1988 C1986 1.381 . S
C1988 C1989 1.394 . S
C1988 H1996 0.930 . S
C1989 C1988 1.394 . S
C1989 C1990 1.383 . S
C1989 H1997 0.929 . S
C1990 C1989 1.383 . S
C1990 C1991 1.377 . S
C1991 H1975 0.930 . S
C1991 C1990 1.377 . S
C1991 C1992 1.379 . S
C1992 H1976 0.931 . S
C1992 C1986 1.383 . S
C1992 C1991 1.379 . S
H1993 C1987 0.959 . S
H1994 C1987 0.961 . S
H1995 C1987 0.960 . S
H1996 C1988 0.930 . S
H1997 C1989 0.929 . S
H1998 C2006 0.929 . S
H1999 C2008 0.930 . S
H2000 C2010 0.930 . S
H2001 C2013 0.929 . S
H2002 C2016 0.930 . S
H2003 C2018 0.960 . S
H2004 C2018 0.960 . S
H2005 C2018 0.960 . S
C2006 H1998 0.929 . S
C2006 C2007 1.377 . S
C2006 C2008 1.384 . S
C2007 C2006 1.377 . S
C2007 C2013 1.390 . S
C2008 H1999 0.930 . S
C2008 C2006 1.384 . S
C2008 C2009 1.372 . S
C2009 C2008 1.372 . S
C2009 C2010 1.400 . S
C2009 C2014 1.490 . S
C2010 H2000 0.930 . S
C2010 C2009 1.400 . S
C2010 C2013 1.386 . S
H2011 C2027 0.930 . S
H2012 C2028 0.931 . S
C2013 H2001 0.929 . S
C2013 C2007 1.390 . S
C2013 C2010 1.386 . S
C2014 C2009 1.490 . S
C2014 C2016 1.395 . S
C2014 C2017 1.403 . S
H2015 C2021 0.930 . S
C2016 H2002 0.930 . S
C2016 C2014 1.395 . S
C2016 C2019 1.403 . S
C2017 C2014 1.403 . S
C2017 C2018 1.524 . S
C2017 C2021 1.400 . S
C2018 H2003 0.960 . S
C2018 H2004 0.960 . S
C2018 H2005 0.960 . S
C2018 C2017 1.524 . S
C2019 C2016 1.403 . S
C2019 C2020 1.392 . S
C2019 C2023 1.495 . S
C2020 C2019 1.392 . S
C2020 C2021 1.385 . S
C2020 C2022 1.478 . S
C2021 H2015 0.930 . S
C2021 C2017 1.400 . S
C2021 C2020 1.385 . S
C2022 C2020 1.478 . S
C2022 C2024 1.381 . S
C2022 C2028 1.383 . S
C2023 C2019 1.495 . S
C2023 H2029 0.959 . S
C2023 H2030 0.961 . S
C2023 H2031 0.960 . S
C2024 C2022 1.381 . S
C2024 C2025 1.394 . S
C2024 H2032 0.930 . S
C2025 C2024 1.394 . S
C2025 C2026 1.383 . S
C2025 H2033 0.929 . S
C2026 C2025 1.383 . S
C2026 C2027 1.377 . S
C2027 H2011 0.930 . S
C2027 C2026 1.377 . S
C2027 C2028 1.379 . S
C2028 H2012 0.931 . S
C2028 C2022 1.383 . S
C2028 C2027 1.379 . S
H2029 C2023 0.959 . S
H2030 C2023 0.961 . S
H2031 C2023 0.960 . S
H2032 C2024 0.930 . S
H2033 C2025 0.929 . S
H2034 C2042 0.929 . S
H2035 C2044 0.930 . S
H2036 C2046 0.930 . S
H2037 C2049 0.929 . S
H2038 C2052 0.930 . S
H2039 C2054 0.960 . S
H2040 C2054 0.960 . S
H2041 C2054 0.960 . S
C2042 H2034 0.929 . S
C2042 C2043 1.377 . S
C2042 C2044 1.384 . S
C2043 C2042 1.377 . S
C2043 C2049 1.390 . S
C2044 H2035 0.930 . S
C2044 C2042 1.384 . S
C2044 C2045 1.372 . S
C2045 C2044 1.372 . S
C2045 C2046 1.400 . S
C2045 C2050 1.490 . S
C2046 H2036 0.930 . S
C2046 C2045 1.400 . S
C2046 C2049 1.386 . S
H2047 C2063 0.930 . S
H2048 C2064 0.931 . S
C2049 H2037 0.929 . S
C2049 C2043 1.390 . S
C2049 C2046 1.386 . S
C2050 C2045 1.490 . S
C2050 C2052 1.395 . S
C2050 C2053 1.403 . S
H2051 C2057 0.930 . S
C2052 H2038 0.930 . S
C2052 C2050 1.395 . S
C2052 C2055 1.403 1_554 S
C2053 C2050 1.403 . S
C2053 C2054 1.524 . S
C2053 C2057 1.400 1_554 S
C2054 H2039 0.960 . S
C2054 H2040 0.960 . S
C2054 H2041 0.960 . S
C2054 C2053 1.524 . S
C2055 C2052 1.403 1_556 S
C2055 C2056 1.392 . S
C2055 C2059 1.495 . S
C2056 C2055 1.392 . S
C2056 C2057 1.385 . S
C2056 C2058 1.478 . S
C2057 H2051 0.930 . S
C2057 C2053 1.400 1_556 S
C2057 C2056 1.385 . S
C2058 C2056 1.478 . S
C2058 C2060 1.381 . S
C2058 C2064 1.383 . S
C2059 C2055 1.495 . S
C2059 H2065 0.959 . S
C2059 H2066 0.961 . S
C2059 H2067 0.960 . S
C2060 C2058 1.381 . S
C2060 C2061 1.394 . S
C2060 H2068 0.930 . S
C2061 C2060 1.394 . S
C2061 C2062 1.383 . S
C2061 H2069 0.929 . S
C2062 C2061 1.383 . S
C2062 C2063 1.377 . S
C2063 H2047 0.930 . S
C2063 C2062 1.377 . S
C2063 C2064 1.379 . S
C2064 H2048 0.931 . S
C2064 C2058 1.383 . S
C2064 C2063 1.379 . S
H2065 C2059 0.959 . S
H2066 C2059 0.961 . S
H2067 C2059 0.960 . S
H2068 C2060 0.930 . S
H2069 C2061 0.929 . S
H2070 C2078 0.929 . S
H2071 C2080 0.930 . S
H2072 C2082 0.930 . S
H2073 C2085 0.929 . S
H2074 C2088 0.930 . S
H2075 C2090 0.960 . S
H2076 C2090 0.960 . S
H2077 C2090 0.960 . S
C2078 H2070 0.929 . S
C2078 C2079 1.377 . S
C2078 C2080 1.384 . S
C2079 C2078 1.377 . S
C2079 C2085 1.390 1_545 S
C2080 H2071 0.930 . S
C2080 C2078 1.384 . S
C2080 C2081 1.372 . S
C2081 C2080 1.372 . S
C2081 C2082 1.400 1_545 S
C2081 C2086 1.490 . S
C2082 H2072 0.930 . S
C2082 C2081 1.400 1_565 S
C2082 C2085 1.386 . S
H2083 C2099 0.930 . S
H2084 C2100 0.931 . S
C2085 H2073 0.929 . S
C2085 C2079 1.390 1_565 S
C2085 C2082 1.386 . S
C2086 C2081 1.490 . S
C2086 C2088 1.395 . S
C2086 C2089 1.403 1_545 S
H2087 C2093 0.930 . S
C2088 H2074 0.930 . S
C2088 C2086 1.395 . S
C2088 C2091 1.403 1_556 S
C2089 C2086 1.403 1_565 S
C2089 C2090 1.524 . S
C2089 C2093 1.400 1_556 S
C2090 H2075 0.960 . S
C2090 H2076 0.960 . S
C2090 H2077 0.960 . S
C2090 C2089 1.524 . S
C2091 C2088 1.403 1_554 S
C2091 C2092 1.391 . S
C2091 C2095 1.495 . S
C2092 C2091 1.391 . S
C2092 C2093 1.386 1_545 S
C2092 C2094 1.478 1_545 S
C2093 H2087 0.930 . S
C2093 C2089 1.400 1_554 S
C2093 C2092 1.386 1_565 S
C2094 C2092 1.478 1_565 S
C2094 C2096 1.381 1_565 S
C2094 C2100 1.383 . S
C2095 C2091 1.495 . S
C2095 H2101 0.959 . S
C2095 H2102 0.961 . S
C2095 H2103 0.960 . S
C2096 C2094 1.381 1_545 S
C2096 C2097 1.394 1_545 S
C2096 H2104 0.930 . S
C2097 C2096 1.394 1_565 S
C2097 C2098 1.383 . S
C2097 H2105 0.933 1_565 S
C2098 C2097 1.383 . S
C2098 C2099 1.377 . S
C2099 H2083 0.930 . S
C2099 C2098 1.377 . S
C2099 C2100 1.379 . S
C2100 H2084 0.931 . S
C2100 C2094 1.383 . S
C2100 C2099 1.379 . S
H2101 C2095 0.959 . S
H2102 C2095 0.961 . S
H2103 C2095 0.960 . S
H2104 C2096 0.930 . S
H2105 C2097 0.933 1_545 S
H2106 C2114 0.929 . S
H2107 C2116 0.930 . S
H2108 C2118 0.930 . S
H2109 C2121 0.929 . S
H2110 C2124 0.930 . S
H2111 C2126 0.960 . S
H2112 C2126 0.960 . S
H2113 C2126 0.960 . S
C2114 H2106 0.929 . S
C2114 C2115 1.377 1_455 S
C2114 C2116 1.384 . S
C2115 C2114 1.377 1_655 S
C2115 C2121 1.390 . S
C2116 H2107 0.930 . S
C2116 C2114 1.384 . S
C2116 C2117 1.372 1_455 S
C2117 C2116 1.372 1_655 S
C2117 C2118 1.400 . S
C2117 C2122 1.490 . S
C2118 H2108 0.930 . S
C2118 C2117 1.400 . S
C2118 C2121 1.386 . S
H2119 C2135 0.930 . S
H2120 C2136 0.931 . S
C2121 H2109 0.929 . S
C2121 C2115 1.390 . S
C2121 C2118 1.386 . S
C2122 C2117 1.490 . S
C2122 C2124 1.395 1_655 S
C2122 C2125 1.403 . S
H2123 C2129 0.930 . S
C2124 H2110 0.930 . S
C2124 C2122 1.395 1_455 S
C2124 C2127 1.403 1_556 S
C2125 C2122 1.403 . S
C2125 C2126 1.524 . S
C2125 C2129 1.400 1_556 S
C2126 H2111 0.960 . S
C2126 H2112 0.960 . S
C2126 H2113 0.960 . S
C2126 C2125 1.524 . S
C2127 C2124 1.403 1_554 S
C2127 C2128 1.392 . S
C2127 C2131 1.495 . S
C2128 C2127 1.392 . S
C2128 C2129 1.385 1_455 S
C2128 C2130 1.478 . S
C2129 H2123 0.930 . S
C2129 C2125 1.400 1_554 S
C2129 C2128 1.385 1_655 S
C2130 C2128 1.478 . S
C2130 C2132 1.381 . S
C2130 C2136 1.383 1_455 S
C2131 C2127 1.495 . S
C2131 H2137 0.959 . S
C2131 H2138 0.961 . S
C2131 H2139 0.960 . S
C2132 C2130 1.381 . S
C2132 C2133 1.394 . S
C2132 H2140 0.930 . S
C2133 C2132 1.394 . S
C2133 C2134 1.383 . S
C2133 H2141 0.929 . S
C2134 C2133 1.383 . S
C2134 C2135 1.377 1_455 S
C2135 H2119 0.930 . S
C2135 C2134 1.377 1_655 S
C2135 C2136 1.379 . S
C2136 H2120 0.931 . S
C2136 C2130 1.383 1_655 S
C2136 C2135 1.379 . S
H2137 C2131 0.959 . S
H2138 C2131 0.961 . S
H2139 C2131 0.960 . S
H2140 C2132 0.930 . S
H2141 C2133 0.929 . S
H2142 C2150 0.929 . S
H2143 C2152 0.930 . S
H2144 C2154 0.930 . S
H2145 C2157 0.929 . S
H2146 C2160 0.930 . S
H2147 C2162 0.960 . S
H2148 C2162 0.960 . S
H2149 C2162 0.960 . S
C2150 H2142 0.929 . S
C2150 C2151 1.377 . S
C2150 C2152 1.384 . S
C2151 C2150 1.377 . S
C2151 C2157 1.390 . S
C2152 H2143 0.930 . S
C2152 C2150 1.384 . S
C2152 C2153 1.372 . S
C2153 C2152 1.372 . S
C2153 C2154 1.400 . S
C2153 C2158 1.490 . S
C2154 H2144 0.930 . S
C2154 C2153 1.400 . S
C2154 C2157 1.386 . S
H2155 C2171 0.930 . S
H2156 C2172 0.931 . S
C2157 H2145 0.929 . S
C2157 C2151 1.390 . S
C2157 C2154 1.386 . S
C2158 C2153 1.490 . S
C2158 C2160 1.395 . S
C2158 C2161 1.403 . S
H2159 C2165 0.930 . S
C2160 H2146 0.930 . S
C2160 C2158 1.395 . S
C2160 C2163 1.403 . S
C2161 C2158 1.403 . S
C2161 C2162 1.524 . S
C2161 C2165 1.400 . S
C2162 H2147 0.960 . S
C2162 H2148 0.960 . S
C2162 H2149 0.960 . S
C2162 C2161 1.524 . S
C2163 C2160 1.403 . S
C2163 C2164 1.392 . S
C2163 C2167 1.495 . S
C2164 C2163 1.392 . S
C2164 C2165 1.385 . S
C2164 C2166 1.478 . S
C2165 H2159 0.930 . S
C2165 C2161 1.400 . S
C2165 C2164 1.385 . S
C2166 C2164 1.478 . S
C2166 C2168 1.381 . S
C2166 C2172 1.383 . S
C2167 C2163 1.495 . S
C2167 H2173 0.959 . S
C2167 H2174 0.961 . S
C2167 H2175 0.960 . S
C2168 C2166 1.381 . S
C2168 C2169 1.394 . S
C2168 H2176 0.930 . S
C2169 C2168 1.394 . S
C2169 C2170 1.383 . S
C2169 H2177 0.929 . S
C2170 C2169 1.383 . S
C2170 C2171 1.377 . S
C2171 H2155 0.930 . S
C2171 C2170 1.377 . S
C2171 C2172 1.379 . S
C2172 H2156 0.931 . S
C2172 C2166 1.383 . S
C2172 C2171 1.379 . S
H2173 C2167 0.959 . S
H2174 C2167 0.961 . S
H2175 C2167 0.960 . S
H2176 C2168 0.930 . S
H2177 C2169 0.929 . S
H2178 C2186 0.929 . S
H2179 C2188 0.930 . S
H2180 C2190 0.930 . S
H2181 C2193 0.929 . S
H2182 C2196 0.930 . S
H2183 C2198 0.960 . S
H2184 C2198 0.960 . S
H2185 C2198 0.960 . S
C2186 H2178 0.929 . S
C2186 C2187 1.377 . S
C2186 C2188 1.384 . S
C2187 C2186 1.377 . S
C2187 C2193 1.390 . S
C2188 H2179 0.930 . S
C2188 C2186 1.384 . S
C2188 C2189 1.372 . S
C2189 C2188 1.372 . S
C2189 C2190 1.400 . S
C2189 C2194 1.490 . S
C2190 H2180 0.930 . S
C2190 C2189 1.400 . S
C2190 C2193 1.386 . S
H2191 C2207 0.930 . S
H2192 C2208 0.931 . S
C2193 H2181 0.929 . S
C2193 C2187 1.390 . S
C2193 C2190 1.386 . S
C2194 C2189 1.490 . S
C2194 C2196 1.395 . S
C2194 C2197 1.403 . S
H2195 C2201 0.930 . S
C2196 H2182 0.930 . S
C2196 C2194 1.395 . S
C2196 C2199 1.403 . S
C2197 C2194 1.403 . S
C2197 C2198 1.524 . S
C2197 C2201 1.400 . S
C2198 H2183 0.960 . S
C2198 H2184 0.960 . S
C2198 H2185 0.960 . S
C2198 C2197 1.524 . S
C2199 C2196 1.403 . S
C2199 C2200 1.392 . S
C2199 C2203 1.495 . S
C2200 C2199 1.392 . S
C2200 C2201 1.385 . S
C2200 C2202 1.478 . S
C2201 H2195 0.930 . S
C2201 C2197 1.400 . S
C2201 C2200 1.385 . S
C2202 C2200 1.478 . S
C2202 C2204 1.381 . S
C2202 C2208 1.383 . S
C2203 C2199 1.495 . S
C2203 H2209 0.959 . S
C2203 H2210 0.961 . S
C2203 H2211 0.960 . S
C2204 C2202 1.381 . S
C2204 C2205 1.394 . S
C2204 H2212 0.930 . S
C2205 C2204 1.394 . S
C2205 C2206 1.383 . S
C2205 H2213 0.929 . S
C2206 C2205 1.383 . S
C2206 C2207 1.377 . S
C2207 H2191 0.930 . S
C2207 C2206 1.377 . S
C2207 C2208 1.379 . S
C2208 H2192 0.931 . S
C2208 C2202 1.383 . S
C2208 C2207 1.379 . S
H2209 C2203 0.959 . S
H2210 C2203 0.961 . S
H2211 C2203 0.960 . S
H2212 C2204 0.930 . S
H2213 C2205 0.929 . S
H2214 C2222 0.929 . S
H2215 C2224 0.930 . S
H2216 C2226 0.930 . S
H2217 C2229 0.929 . S
H2218 C2232 0.930 . S
H2219 C2234 0.960 . S
H2220 C2234 0.960 . S
H2221 C2234 0.960 . S
C2222 H2214 0.929 . S
C2222 C2223 1.377 . S
C2222 C2224 1.384 . S
C2223 C2222 1.377 . S
C2223 C2229 1.390 . S
C2224 H2215 0.930 . S
C2224 C2222 1.384 . S
C2224 C2225 1.372 . S
C2225 C2224 1.372 . S
C2225 C2226 1.400 . S
C2225 C2230 1.490 . S
C2226 H2216 0.930 . S
C2226 C2225 1.400 . S
C2226 C2229 1.386 . S
H2227 C2243 0.930 . S
H2228 C2244 0.931 . S
C2229 H2217 0.929 . S
C2229 C2223 1.390 . S
C2229 C2226 1.386 . S
C2230 C2225 1.490 . S
C2230 C2232 1.395 . S
C2230 C2233 1.403 . S
H2231 C2237 0.930 . S
C2232 H2218 0.930 . S
C2232 C2230 1.395 . S
C2232 C2235 1.403 . S
C2233 C2230 1.403 . S
C2233 C2234 1.524 . S
C2233 C2237 1.400 . S
C2234 H2219 0.960 . S
C2234 H2220 0.960 . S
C2234 H2221 0.960 . S
C2234 C2233 1.524 . S
C2235 C2232 1.403 . S
C2235 C2236 1.392 . S
C2235 C2239 1.495 . S
C2236 C2235 1.392 . S
C2236 C2237 1.385 . S
C2236 C2238 1.478 . S
C2237 H2231 0.930 . S
C2237 C2233 1.400 . S
C2237 C2236 1.385 . S
C2238 C2236 1.478 . S
C2238 C2240 1.381 . S
C2238 C2244 1.383 . S
C2239 C2235 1.495 . S
C2239 H2245 0.959 . S
C2239 H2246 0.961 . S
C2239 H2247 0.960 . S
C2240 C2238 1.381 . S
C2240 C2241 1.394 . S
C2240 H2248 0.930 . S
C2241 C2240 1.394 . S
C2241 C2242 1.383 . S
C2241 H2249 0.929 . S
C2242 C2241 1.383 . S
C2242 C2243 1.377 . S
C2243 H2227 0.930 . S
C2243 C2242 1.377 . S
C2243 C2244 1.379 . S
C2244 H2228 0.931 . S
C2244 C2238 1.383 . S
C2244 C2243 1.379 . S
H2245 C2239 0.959 . S
H2246 C2239 0.961 . S
H2247 C2239 0.960 . S
H2248 C2240 0.930 . S
H2249 C2241 0.929 . S
H2250 C2258 0.929 . S
H2251 C2260 0.930 . S
H2252 C2262 0.930 . S
H2253 C2265 0.929 . S
H2254 C2268 0.930 . S
H2255 C2270 0.960 . S
H2256 C2270 0.960 . S
H2257 C2270 0.960 . S
C2258 H2250 0.929 . S
C2258 C2259 1.377 . S
C2258 C2260 1.384 . S
C2259 C2258 1.377 . S
C2259 C2265 1.390 . S
C2260 H2251 0.930 . S
C2260 C2258 1.384 . S
C2260 C2261 1.372 . S
C2261 C2260 1.372 . S
C2261 C2262 1.400 . S
C2261 C2266 1.490 . S
C2262 H2252 0.930 . S
C2262 C2261 1.400 . S
C2262 C2265 1.386 . S
H2263 C2279 0.930 . S
H2264 C2280 0.931 . S
C2265 H2253 0.929 . S
C2265 C2259 1.390 . S
C2265 C2262 1.386 . S
C2266 C2261 1.490 . S
C2266 C2268 1.395 . S
C2266 C2269 1.403 . S
H2267 C2273 0.930 . S
C2268 H2254 0.930 . S
C2268 C2266 1.395 . S
C2268 C2271 1.403 . S
C2269 C2266 1.403 . S
C2269 C2270 1.524 . S
C2269 C2273 1.400 . S
C2270 H2255 0.960 . S
C2270 H2256 0.960 . S
C2270 H2257 0.960 . S
C2270 C2269 1.524 . S
C2271 C2268 1.403 . S
C2271 C2272 1.392 . S
C2271 C2275 1.495 . S
C2272 C2271 1.392 . S
C2272 C2273 1.385 . S
C2272 C2274 1.478 . S
C2273 H2267 0.930 . S
C2273 C2269 1.400 . S
C2273 C2272 1.385 . S
C2274 C2272 1.478 . S
C2274 C2276 1.381 . S
C2274 C2280 1.383 . S
C2275 C2271 1.495 . S
C2275 H2281 0.959 . S
C2275 H2282 0.961 . S
C2275 H2283 0.960 . S
C2276 C2274 1.381 . S
C2276 C2277 1.394 . S
C2276 H2284 0.930 . S
C2277 C2276 1.394 . S
C2277 C2278 1.383 . S
C2277 H2285 0.929 . S
C2278 C2277 1.383 . S
C2278 C2279 1.377 . S
C2279 H2263 0.930 . S
C2279 C2278 1.377 . S
C2279 C2280 1.379 . S
C2280 H2264 0.931 . S
C2280 C2274 1.383 . S
C2280 C2279 1.379 . S
H2281 C2275 0.959 . S
H2282 C2275 0.961 . S
H2283 C2275 0.960 . S
H2284 C2276 0.930 . S
H2285 C2277 0.929 . S
H2286 C2294 0.929 . S
H2287 C2296 0.930 . S
H2288 C2298 0.930 . S
H2289 C2301 0.929 . S
H2290 C2304 0.930 . S
H2291 C2306 0.960 . S
H2292 C2306 0.960 . S
H2293 C2306 0.960 . S
C2294 H2286 0.929 . S
C2294 C2295 1.377 . S
C2294 C2296 1.384 . S
C2295 C2294 1.377 . S
C2295 C2301 1.390 . S
C2296 H2287 0.930 . S
C2296 C2294 1.384 . S
C2296 C2297 1.372 . S
C2297 C2296 1.372 . S
C2297 C2298 1.400 . S
C2297 C2302 1.490 . S
C2298 H2288 0.930 . S
C2298 C2297 1.400 . S
C2298 C2301 1.386 . S
H2299 C2315 0.930 . S
H2300 C2316 0.931 . S
C2301 H2289 0.929 . S
C2301 C2295 1.390 . S
C2301 C2298 1.386 . S
C2302 C2297 1.490 . S
C2302 C2304 1.395 . S
C2302 C2305 1.403 . S
H2303 C2309 0.930 . S
C2304 H2290 0.930 . S
C2304 C2302 1.395 . S
C2304 C2307 1.403 . S
C2305 C2302 1.403 . S
C2305 C2306 1.524 . S
C2305 C2309 1.400 . S
C2306 H2291 0.960 . S
C2306 H2292 0.960 . S
C2306 H2293 0.960 . S
C2306 C2305 1.524 . S
C2307 C2304 1.403 . S
C2307 C2308 1.392 . S
C2307 C2311 1.495 . S
C2308 C2307 1.392 . S
C2308 C2309 1.385 . S
C2308 C2310 1.478 . S
C2309 H2303 0.930 . S
C2309 C2305 1.400 . S
C2309 C2308 1.385 . S
C2310 C2308 1.478 . S
C2310 C2312 1.381 . S
C2310 C2316 1.383 . S
C2311 C2307 1.495 . S
C2311 H2317 0.959 . S
C2311 H2318 0.961 . S
C2311 H2319 0.960 . S
C2312 C2310 1.381 . S
C2312 C2313 1.394 . S
C2312 H2320 0.930 . S
C2313 C2312 1.394 . S
C2313 C2314 1.383 . S
C2313 H2321 0.929 . S
C2314 C2313 1.383 . S
C2314 C2315 1.377 . S
C2315 H2299 0.930 . S
C2315 C2314 1.377 . S
C2315 C2316 1.379 . S
C2316 H2300 0.931 . S
C2316 C2310 1.383 . S
C2316 C2315 1.379 . S
H2317 C2311 0.959 . S
H2318 C2311 0.961 . S
H2319 C2311 0.960 . S
H2320 C2312 0.930 . S
H2321 C2313 0.929 . S
H2322 C2330 0.929 . S
H2323 C2332 0.930 . S
H2324 C2334 0.930 . S
H2325 C2337 0.929 . S
H2326 C2340 0.930 . S
H2327 C2342 0.960 . S
H2328 C2342 0.960 . S
H2329 C2342 0.960 . S
C2330 H2322 0.929 . S
C2330 C2331 1.377 . S
C2330 C2332 1.384 . S
C2331 C2330 1.377 . S
C2331 C2337 1.390 . S
C2332 H2323 0.930 . S
C2332 C2330 1.384 . S
C2332 C2333 1.372 . S
C2333 C2332 1.372 . S
C2333 C2334 1.400 . S
C2333 C2338 1.490 . S
C2334 H2324 0.930 . S
C2334 C2333 1.400 . S
C2334 C2337 1.386 . S
H2335 C2351 0.930 . S
H2336 C2352 0.931 . S
C2337 H2325 0.929 . S
C2337 C2331 1.390 . S
C2337 C2334 1.386 . S
C2338 C2333 1.490 . S
C2338 C2340 1.395 . S
C2338 C2341 1.403 . S
H2339 C2345 0.930 . S
C2340 H2326 0.930 . S
C2340 C2338 1.395 . S
C2340 C2343 1.403 . S
C2341 C2338 1.403 . S
C2341 C2342 1.524 . S
C2341 C2345 1.400 . S
C2342 H2327 0.960 . S
C2342 H2328 0.960 . S
C2342 H2329 0.960 . S
C2342 C2341 1.524 . S
C2343 C2340 1.403 . S
C2343 C2344 1.392 . S
C2343 C2347 1.495 . S
C2344 C2343 1.392 . S
C2344 C2345 1.385 . S
C2344 C2346 1.478 . S
C2345 H2339 0.930 . S
C2345 C2341 1.400 . S
C2345 C2344 1.385 . S
C2346 C2344 1.478 . S
C2346 C2348 1.381 . S
C2346 C2352 1.383 . S
C2347 C2343 1.495 . S
C2347 H2353 0.959 . S
C2347 H2354 0.961 . S
C2347 H2355 0.960 . S
C2348 C2346 1.381 . S
C2348 C2349 1.394 . S
C2348 H2356 0.930 . S
C2349 C2348 1.394 . S
C2349 C2350 1.383 . S
C2349 H2357 0.929 . S
C2350 C2349 1.383 . S
C2350 C2351 1.377 . S
C2351 H2335 0.930 . S
C2351 C2350 1.377 . S
C2351 C2352 1.379 . S
C2352 H2336 0.931 . S
C2352 C2346 1.383 . S
C2352 C2351 1.379 . S
H2353 C2347 0.959 . S
H2354 C2347 0.961 . S
H2355 C2347 0.960 . S
H2356 C2348 0.930 . S
H2357 C2349 0.929 . S
C1071 C595 1.031 . S
C1090 C5 1.010 . S
C1107 C64 1.023 . S
C1126 C654 1.040 . S
C1143 C536 1.030 . S
C1162 C123 1.021 . S
C1179 C831 1.031 . S
C1198 C182 1.011 . S
C1215 C241 1.031 . S
C1234 C713 1.012 . S
C1251 C772 1.031 . S
C1270 C300 1.021 . S
C1287 C359 1.025 . S
C1306 C949 1.022 . S
C1323 C1008 1.024 . S
C1342 C418 1.037 . S
C1359 C477 1.031 . S
C1378 C890 1.015 . S
C1395 C52 1.082 . S
C1414 C92 1.097 . S
C1431 C111 1.082 . S
C1450 C151 1.099 . S
C1467 C33 1.067 . S
C1486 C170 1.074 . S
C1503 C328 1.057 . S
C1522 C229 1.102 . S
C1539 C210 1.072 . S
C1558 C288 1.064 . S
C1575 C347 1.085 . S
C1594 C269 1.069 . S
C1611 C406 1.083 . S
C1630 C446 1.088 . S
C1647 C465 1.083 . S
C1666 C505 1.096 . S
C1683 C387 1.068 . S
C1702 C524 1.078 . S
C1719 C682 1.069 . S
C1738 C583 1.067 . S
C1755 C564 1.057 . S
C1774 C642 1.106 . S
C1791 C623 1.072 . S
C1810 C701 1.063 . S
C1827 C800 1.059 . S
C1846 C760 1.095 . S
C1863 C859 1.065 . S
C1882 C819 1.080 . S
C1899 C741 1.065 . S
C1918 C878 1.087 . S
C1935 C937 1.085 . S
C1954 C1036 1.070 . S
C1971 C996 1.090 . S
C1990 C918 1.037 . S
C2007 C1055 1.090 . S
C2026 C977 1.035 . S
C2043 C3 1.785 . S
C2062 C180 1.765 . S
C2079 C239 1.778 . S
C2098 C62 1.771 . S
C2115 C298 1.785 . S
C2134 C121 1.767 . S
C2151 C534 1.786 . S
C2170 C357 1.791 . S
C2187 C593 1.779 . S
C2206 C416 1.789 . S
C2223 C475 1.786 . S
C2242 C652 1.793 . S
C2259 C888 1.785 . S
C2278 C711 1.798 . S
C2295 C947 1.781 . S
C2314 C770 1.757 . S
C2331 C1006 1.786 . S
C2350 C829 1.773 . S
