# Generated by pormake.
# Topology wka, (5)-cn, num edge types: 1
# Building blocks:
#     Node 0, Type 0, BuildingBlock: XOMCOT_clean_sbu_0, # of connection points: 5
#     Node 1, Type 0, BuildingBlock: XOMCOT_clean_sbu_0, # of connection points: 5
#     Node 2, Type 0, BuildingBlock: XOMCOT_clean_sbu_0, # of connection points: 5
#     Node 3, Type 0, BuildingBlock: XOMCOT_clean_sbu_0, # of connection points: 5
#     Node 4, Type 0, BuildingBlock: XOMCOT_clean_sbu_0, # of connection points: 5
#     Node 5, Type 0, BuildingBlock: XOMCOT_clean_sbu_0, # of connection points: 5
#     Node 6, Type 0, BuildingBlock: XOMCOT_clean_sbu_0, # of connection points: 5
#     Node 7, Type 0, BuildingBlock: XOMCOT_clean_sbu_0, # of connection points: 5
#     Node 8, Type 0, BuildingBlock: XOMCOT_clean_sbu_0, # of connection points: 5
#     Node 9, Type 0, BuildingBlock: XOMCOT_clean_sbu_0, # of connection points: 5
#     Node 10, Type 0, BuildingBlock: XOMCOT_clean_sbu_0, # of connection points: 5
#     Node 11, Type 0, BuildingBlock: XOMCOT_clean_sbu_0, # of connection points: 5
#     Edge 12, Type (0, 0), BuildingBlock: EZIPEK_clean_linker_0, # of connection points: 2
#     Edge 13, Type (0, 0), BuildingBlock: EZIPEK_clean_linker_0, # of connection points: 2
#     Edge 14, Type (0, 0), BuildingBlock: EZIPEK_clean_linker_0, # of connection points: 2
#     Edge 15, Type (0, 0), BuildingBlock: EZIPEK_clean_linker_0, # of connection points: 2
#     Edge 16, Type (0, 0), BuildingBlock: EZIPEK_clean_linker_0, # of connection points: 2
#     Edge 17, Type (0, 0), BuildingBlock: EZIPEK_clean_linker_0, # of connection points: 2
#     Edge 18, Type (0, 0), BuildingBlock: EZIPEK_clean_linker_0, # of connection points: 2
#     Edge 19, Type (0, 0), BuildingBlock: EZIPEK_clean_linker_0, # of connection points: 2
#     Edge 20, Type (0, 0), BuildingBlock: EZIPEK_clean_linker_0, # of connection points: 2
#     Edge 21, Type (0, 0), BuildingBlock: EZIPEK_clean_linker_0, # of connection points: 2
#     Edge 22, Type (0, 0), BuildingBlock: EZIPEK_clean_linker_0, # of connection points: 2
#     Edge 23, Type (0, 0), BuildingBlock: EZIPEK_clean_linker_0, # of connection points: 2
#     Edge 24, Type (0, 0), BuildingBlock: EZIPEK_clean_linker_0, # of connection points: 2
#     Edge 25, Type (0, 0), BuildingBlock: EZIPEK_clean_linker_0, # of connection points: 2
#     Edge 26, Type (0, 0), BuildingBlock: EZIPEK_clean_linker_0, # of connection points: 2
#     Edge 27, Type (0, 0), BuildingBlock: EZIPEK_clean_linker_0, # of connection points: 2
#     Edge 28, Type (0, 0), BuildingBlock: EZIPEK_clean_linker_0, # of connection points: 2
#     Edge 29, Type (0, 0), BuildingBlock: EZIPEK_clean_linker_0, # of connection points: 2
#     Edge 30, Type (0, 0), BuildingBlock: EZIPEK_clean_linker_0, # of connection points: 2
#     Edge 31, Type (0, 0), BuildingBlock: EZIPEK_clean_linker_0, # of connection points: 2
#     Edge 32, Type (0, 0), BuildingBlock: EZIPEK_clean_linker_0, # of connection points: 2
#     Edge 33, Type (0, 0), BuildingBlock: EZIPEK_clean_linker_0, # of connection points: 2
#     Edge 34, Type (0, 0), BuildingBlock: EZIPEK_clean_linker_0, # of connection points: 2
#     Edge 35, Type (0, 0), BuildingBlock: EZIPEK_clean_linker_0, # of connection points: 2
#     Edge 36, Type (0, 0), BuildingBlock: EZIPEK_clean_linker_0, # of connection points: 2
#     Edge 37, Type (0, 0), BuildingBlock: EZIPEK_clean_linker_0, # of connection points: 2
#     Edge 38, Type (0, 0), BuildingBlock: EZIPEK_clean_linker_0, # of connection points: 2
#     Edge 39, Type (0, 0), BuildingBlock: EZIPEK_clean_linker_0, # of connection points: 2
#     Edge 40, Type (0, 0), BuildingBlock: EZIPEK_clean_linker_0, # of connection points: 2
#     Edge 41, Type (0, 0), BuildingBlock: EZIPEK_clean_linker_0, # of connection points: 2
# Relax obj value: 0.228
# Max RMSD: 0.189
# Mean RMSD: 0.189
data_MOF--net-wka--node1-XOMCOT_clean_sbu_0--edge1-EZIPEK_clean_linker_0
_symmetry_space_group_name_H-M    P1
_symmetry_Int_Tables_number       1
_symmetry_cell_setting            triclinic
loop_
_symmetry_equiv_pos_as_xyz
'x, y, z'
_cell_length_a     49.936136
_cell_length_b     49.972692
_cell_length_c     13.255347
_cell_angle_alpha  89.832809
_cell_angle_beta   90.199309
_cell_angle_gamma 119.94232
loop_
_atom_site_label
_atom_site_type_symbol
_atom_site_fract_x
_atom_site_fract_y
_atom_site_fract_z
_atom_type_partial_charge
Co0 Co 0.11496 0.40814 0.0617 0.0
C1 C 0.1132 0.39777 0.27837 0.0
C2 C 0.06705 0.37746 0.22081 0.0
C3 C 0.06583 0.37569 0.32494 0.0
N4 N 0.09698 0.39199 0.19222 0.0
N5 N 0.09505 0.38861 0.35982 0.0
H6 H 0.13808 0.41007 0.28371 0.0
H7 H 0.04749 0.36988 0.17059 0.0
C8 C 0.06168 0.39148 0.92021 0.0
O9 O 0.07777 0.42011 0.88868 0.0
N10 N 0.13351 0.42409 0.93071 0.0
C11 C 0.14173 0.45179 0.88877 0.0
C12 C 0.14228 0.4492 0.78644 0.0
C13 C 0.13206 0.40604 0.85292 0.0
N14 N 0.13553 0.42023 0.76314 0.0
C15 C 0.13302 0.47146 0.10712 0.0
C16 C 0.07458 0.4645 0.09988 0.0
C17 C 0.10021 0.4942 0.10503 0.0
C18 C 0.12966 0.49757 0.11357 0.0
C19 C 0.07908 0.4391 0.09398 0.0
N20 N 0.10815 0.44302 0.08688 0.0
H21 H 0.15604 0.47462 0.10968 0.0
H22 H 0.059 0.41643 0.09186 0.0
H23 H 0.1436 0.47172 0.92564 0.0
H24 H 0.12635 0.38226 0.86197 0.0
O25 O 0.15603 0.42578 0.11833 0.0
O26 O 0.12969 0.37838 0.05749 0.0
O27 O 0.0725 0.38239 0.99264 0.0
C28 C 0.15456 0.39949 0.10247 0.0
H29 H 0.04532 0.36657 0.37137 0.0
H30 H 0.14487 0.46669 0.73269 0.0
H31 H 0.05139 0.46106 0.09772 0.0
H32 H 0.14993 0.52025 0.12077 0.0
Co33 Co 0.70508 0.10233 0.29393 0.0
C34 C 0.69894 0.09624 0.51453 0.0
C35 C 0.69148 0.05392 0.44826 0.0
C36 C 0.68983 0.05057 0.55207 0.0
N37 N 0.69735 0.08267 0.42517 0.0
N38 N 0.69526 0.0775 0.59291 0.0
H39 H 0.70399 0.11985 0.52276 0.0
H40 H 0.68935 0.03684 0.39408 0.0
C41 C 0.66663 0.0516 0.14923 0.0
O42 O 0.65582 0.06961 0.12046 0.0
N43 N 0.71378 0.12239 0.16129 0.0
C44 C 0.71386 0.14831 0.13105 0.0
C45 C 0.71576 0.15023 0.02709 0.0
C46 C 0.71845 0.11072 0.07558 0.0
N47 N 0.71763 0.1259 0.99278 0.0
C48 C 0.66296 0.12623 0.30661 0.0
C49 C 0.60933 0.06955 0.31682 0.0
C50 C 0.60715 0.09626 0.30675 0.0
C51 C 0.63434 0.12496 0.30548 0.0
C52 C 0.63847 0.07198 0.31866 0.0
N53 N 0.66476 0.09986 0.30402 0.0
H54 H 0.68361 0.14846 0.31092 0.0
H55 H 0.63979 0.0512 0.32824 0.0
H56 H 0.71205 0.1646 0.17935 0.0
H57 H 0.72032 0.09017 0.07239 0.0
O58 O 0.7305 0.14221 0.35734 0.0
O59 O 0.74813 0.11221 0.30153 0.0
O60 O 0.68594 0.06015 0.22306 0.0
C61 C 0.75381 0.13779 0.34582 0.0
H62 H 0.6863 0.03049 0.59436 0.0
H63 H 0.71383 0.16694 0.98011 0.0
H64 H 0.58871 0.04705 0.32215 0.0
H65 H 0.63341 0.14615 0.3028 0.0
Co66 Co 0.60044 0.71291 0.40401 0.0
C67 C 0.59884 0.70385 0.62193 0.0
C68 C 0.64399 0.71791 0.56312 0.0
C69 C 0.64567 0.71907 0.66726 0.0
N70 N 0.61463 0.70848 0.53524 0.0
N71 N 0.61726 0.71039 0.70321 0.0
H72 H 0.57503 0.69857 0.62541 0.0
H73 H 0.66326 0.72594 0.51164 0.0
C74 C 0.62061 0.67829 0.26827 0.0
O75 O 0.59164 0.66282 0.23871 0.0
N76 N 0.58671 0.71888 0.2713 0.0
C77 C 0.56124 0.72047 0.24592 0.0
C78 C 0.55998 0.72276 0.14234 0.0
C79 C 0.60169 0.72299 0.18294 0.0
N80 N 0.5854 0.72399 0.10372 0.0
C81 C 0.53679 0.66409 0.40559 0.0
C82 C 0.54815 0.61629 0.4446 0.0
C83 C 0.51784 0.60956 0.42522 0.0
C84 C 0.51215 0.63386 0.40832 0.0
C85 C 0.57217 0.64706 0.44133 0.0
N86 N 0.56658 0.67027 0.41429 0.0
H87 H 0.53167 0.68246 0.39907 0.0
H88 H 0.59542 0.65227 0.45872 0.0
H89 H 0.54454 0.72019 0.2978 0.0
H90 H 0.62387 0.72471 0.17488 0.0
O91 O 0.58039 0.73253 0.46868 0.0
O92 O 0.62817 0.75755 0.41263 0.0
O93 O 0.6287 0.69932 0.33616 0.0
C94 C 0.60604 0.75865 0.46118 0.0
H95 H 0.66641 0.72781 0.71267 0.0
H96 H 0.54158 0.72268 0.09872 0.0
H97 H 0.55316 0.59802 0.46133 0.0
H98 H 0.48878 0.62948 0.39756 0.0
Co99 Co 0.895 0.59437 0.61096 0.0
C100 C 0.90545 0.58807 0.82601 0.0
C101 C 0.93486 0.63418 0.77259 0.0
C102 C 0.93595 0.63446 0.87636 0.0
N103 N 0.91572 0.60508 0.74086 0.0
N104 N 0.91659 0.60561 0.90974 0.0
H105 H 0.88764 0.564 0.82676 0.0
H106 H 0.94448 0.65436 0.72442 0.0
C107 C 0.96428 0.63168 0.54569 0.0
O108 O 0.97608 0.63034 0.63277 0.0
N109 N 0.87462 0.58498 0.47935 0.0
C110 C 0.84482 0.57532 0.45526 0.0
C111 C 0.84149 0.57261 0.35147 0.0
C112 C 0.88873 0.58791 0.38986 0.0
N113 N 0.86931 0.58085 0.31128 0.0
C114 C 0.87466 0.53109 0.56601 0.0
C115 C 0.92657 0.53014 0.63387 0.0
C116 C 0.90194 0.5032 0.59368 0.0
C117 C 0.8757 0.50376 0.55988 0.0
C118 C 0.92465 0.55709 0.63811 0.0
N119 N 0.89929 0.55768 0.6016 0.0
H120 H 0.85362 0.53058 0.54381 0.0
H121 H 0.94339 0.57715 0.67249 0.0
H122 H 0.82669 0.57074 0.50855 0.0
H123 H 0.91289 0.59538 0.38063 0.0
O124 O 0.85547 0.57538 0.67922 0.0
O125 O 0.88179 0.62454 0.63772 0.0
O126 O 0.93517 0.62056 0.53409 0.0
C127 C 0.85755 0.60229 0.68254 0.0
H128 H 0.9468 0.65484 0.92354 0.0
H129 H 0.82062 0.5661 0.30871 0.0
H130 H 0.94691 0.5302 0.66287 0.0
H131 H 0.85596 0.48306 0.53066 0.0
Co132 Co 0.29879 0.90063 0.79946 0.0
C133 C 0.31551 0.91232 0.01439 0.0
C134 C 0.29703 0.94013 0.95907 0.0
C135 C 0.2978 0.94147 0.06292 0.0
N136 N 0.30793 0.92165 0.92862 0.0
N137 N 0.30839 0.92306 0.09753 0.0
H138 H 0.32285 0.89529 0.0161 0.0
H139 H 0.28598 0.94909 0.91006 0.0
C140 C 0.32967 0.96944 0.7291 0.0
O141 O 0.3428 0.98187 0.81547 0.0
N142 N 0.28868 0.88011 0.66801 0.0
C143 C 0.26884 0.85032 0.6437 0.0
C144 C 0.26825 0.84721 0.53976 0.0
C145 C 0.29972 0.89439 0.57841 0.0
N146 N 0.28753 0.87515 0.49959 0.0
C147 C 0.3435 0.88242 0.75685 0.0
C148 C 0.39471 0.93433 0.83215 0.0
C149 C 0.39812 0.91027 0.79306 0.0
C150 C 0.3722 0.88407 0.75523 0.0
C151 C 0.36555 0.9318 0.83201 0.0
N152 N 0.34041 0.90642 0.79213 0.0
H153 H 0.32357 0.86129 0.73224 0.0
H154 H 0.36336 0.95006 0.86611 0.0
H155 H 0.25532 0.8321 0.69689 0.0
H156 H 0.31601 0.9186 0.5691 0.0
O157 O 0.27957 0.86127 0.8692 0.0
O158 O 0.25489 0.88567 0.82568 0.0
O159 O 0.31155 0.9403 0.72039 0.0
C160 C 0.25397 0.86197 0.87144 0.0
H161 H 0.28762 0.95184 0.10936 0.0
H162 H 0.25398 0.82641 0.49691 0.0
H163 H 0.4143 0.9546 0.86417 0.0
H164 H 0.37404 0.86474 0.72683 0.0
Co165 Co 0.40719 0.29433 0.8972 0.0
C166 C 0.41161 0.30668 0.11495 0.0
C167 C 0.36719 0.29567 0.05637 0.0
C168 C 0.36573 0.2949 0.1604 0.0
N169 N 0.3959 0.30273 0.0281 0.0
N170 N 0.39356 0.30128 0.19644 0.0
H171 H 0.43497 0.31083 0.11861 0.0
H172 H 0.34783 0.28846 0.00543 0.0
C173 C 0.38425 0.32703 0.7604 0.0
O174 O 0.41265 0.3424 0.7259 0.0
N175 N 0.41763 0.28425 0.76501 0.0
C176 C 0.44087 0.27881 0.74153 0.0
C177 C 0.44214 0.2763 0.63807 0.0
C178 C 0.40366 0.28215 0.67548 0.0
N179 N 0.4188 0.2788 0.59747 0.0
C180 C 0.47067 0.34218 0.8745 0.0
C181 C 0.46193 0.39134 0.91832 0.0
C182 C 0.49164 0.39701 0.89505 0.0
C183 C 0.49597 0.37206 0.87433 0.0
C184 C 0.43728 0.3609 0.91929 0.0
N185 N 0.44148 0.33685 0.89189 0.0
H186 H 0.47498 0.32338 0.86436 0.0
H187 H 0.41469 0.35658 0.94149 0.0
H188 H 0.4565 0.27741 0.79502 0.0
H189 H 0.38312 0.2835 0.66511 0.0
O190 O 0.42921 0.27654 0.96239 0.0
O191 O 0.37988 0.25024 0.9256 0.0
O192 O 0.37734 0.3063 0.8292 0.0
C193 C 0.40361 0.25065 0.96967 0.0
H194 H 0.34517 0.28734 0.20565 0.0
H195 H 0.45945 0.27409 0.59585 0.0
H196 H 0.45799 0.41016 0.93733 0.0
H197 H 0.51885 0.37565 0.85933 0.0
Co198 Co 0.60091 0.89602 0.76631 0.0
C199 C 0.6003 0.90389 0.54493 0.0
C200 C 0.64321 0.9377 0.61007 0.0
C201 C 0.64619 0.93948 0.50634 0.0
N202 N 0.61412 0.91576 0.63465 0.0
N203 N 0.61909 0.91814 0.46639 0.0
H204 H 0.57847 0.88293 0.53584 0.0
H205 H 0.66179 0.94979 0.66366 0.0
C206 C 0.63162 0.96352 0.82382 0.0
O207 O 0.62182 0.96952 0.73935 0.0
N208 N 0.58874 0.87622 0.89691 0.0
C209 C 0.56081 0.85271 0.92406 0.0
C210 C 0.55961 0.85066 0.02821 0.0
C211 C 0.60424 0.88775 0.98415 0.0
N212 N 0.5869 0.87291 0.06495 0.0
C213 C 0.54274 0.88926 0.7 0.0
C214 C 0.53509 0.91989 0.86061 0.0
C215 C 0.51248 0.90767 0.78538 0.0
C216 C 0.51628 0.89197 0.70477 0.0
C217 C 0.56134 0.91688 0.85224 0.0
N218 N 0.56567 0.90287 0.77049 0.0
H219 H 0.54378 0.87486 0.64219 0.0
H220 H 0.57785 0.92529 0.91307 0.0
H221 H 0.54188 0.83965 0.87244 0.0
H222 H 0.62697 0.90799 0.98955 0.0
O223 O 0.58107 0.85666 0.70002 0.0
O224 O 0.6295 0.88027 0.75072 0.0
O225 O 0.62799 0.93661 0.83927 0.0
C226 C 0.60706 0.85671 0.70417 0.0
H227 H 0.66712 0.95363 0.46397 0.0
H228 H 0.53966 0.8356 0.07344 0.0
H229 H 0.53227 0.93128 0.92579 0.0
H230 H 0.49851 0.88114 0.64755 0.0
Co231 Co 0.70781 0.59921 0.91372 0.0
C232 C 0.69456 0.59602 0.69967 0.0
C233 C 0.71909 0.6432 0.74866 0.0
C234 C 0.71896 0.64267 0.64457 0.0
N235 N 0.70373 0.61389 0.78299 0.0
N236 N 0.7036 0.61297 0.61463 0.0
H237 H 0.68491 0.57122 0.70113 0.0
H238 H 0.73223 0.66332 0.79556 0.0
C239 C 0.68039 0.6412 0.97504 0.0
O240 O 0.67804 0.64996 0.8836 0.0
N241 N 0.71208 0.58414 0.04503 0.0
C242 C 0.71476 0.55917 0.06776 0.0
C243 C 0.71397 0.55563 0.17122 0.0
C244 C 0.71072 0.59587 0.13533 0.0
N245 N 0.71135 0.57876 0.21258 0.0
C246 C 0.66238 0.53473 0.89583 0.0
C247 C 0.61132 0.54224 0.87963 0.0
C248 C 0.60701 0.51242 0.88562 0.0
C249 C 0.63292 0.5087 0.89092 0.0
C250 C 0.64127 0.56762 0.8833 0.0
N251 N 0.66623 0.56376 0.89849 0.0
H252 H 0.68209 0.53144 0.89631 0.0
H253 H 0.64418 0.59032 0.87496 0.0
H254 H 0.71754 0.54462 0.01378 0.0
H255 H 0.709 0.61637 0.14612 0.0
O256 O 0.73126 0.58264 0.85001 0.0
O257 O 0.75201 0.62961 0.91462 0.0
O258 O 0.69118 0.62311 0.98982 0.0
C259 C 0.75594 0.60907 0.86681 0.0
H260 H 0.73152 0.66231 0.59506 0.0
H261 H 0.71521 0.53761 0.21285 0.0
H262 H 0.59173 0.54584 0.8723 0.0
H263 H 0.63036 0.48586 0.89226 0.0
Co264 Co 0.10901 0.70745 0.09609 0.0
C265 C 0.10149 0.69999 0.87828 0.0
C266 C 0.07133 0.71492 0.93939 0.0
C267 C 0.07037 0.71611 0.83532 0.0
N268 N 0.09097 0.70494 0.96558 0.0
N269 N 0.08939 0.70674 0.798 0.0
H270 H 0.11958 0.6941 0.87356 0.0
H271 H 0.06039 0.72297 0.99197 0.0
C272 C 0.05509 0.66989 0.23239 0.0
O273 O 0.06948 0.65496 0.25792 0.0
N274 N 0.12767 0.71082 0.22877 0.0
C275 C 0.15078 0.7057 0.25766 0.0
C276 C 0.15325 0.7072 0.36136 0.0
C277 C 0.11783 0.7171 0.3155 0.0
N278 N 0.13216 0.71394 0.39683 0.0
C279 C 0.12846 0.66276 0.06526 0.0
C280 C 0.07029 0.61115 0.05724 0.0
C281 C 0.09622 0.60738 0.06383 0.0
C282 C 0.1256 0.63356 0.06283 0.0
C283 C 0.07442 0.64103 0.05872 0.0
N284 N 0.10306 0.6661 0.07441 0.0
H285 H 0.15123 0.68269 0.06014 0.0
H286 H 0.05456 0.64402 0.05076 0.0
H287 H 0.16515 0.70113 0.20878 0.0
H288 H 0.09957 0.72256 0.32004 0.0
O289 O 0.14947 0.73108 0.03607 0.0
O290 O 0.12307 0.75165 0.10019 0.0
O291 O 0.06659 0.69074 0.16342 0.0
C292 C 0.14779 0.75575 0.05346 0.0
H293 H 0.05823 0.72491 0.79074 0.0
H294 H 0.16841 0.70252 0.40732 0.0
H295 H 0.04724 0.5913 0.05248 0.0
H296 H 0.14615 0.63142 0.06196 0.0
Co297 Co 0.40455 0.11115 0.26725 0.0
C298 C 0.40408 0.10597 0.04617 0.0
C299 C 0.36932 0.06341 0.11154 0.0
C300 C 0.36718 0.06063 0.00761 0.0
N301 N 0.39254 0.0919 0.1354 0.0
N302 N 0.38879 0.08766 0.96761 0.0
H303 H 0.42281 0.12948 0.03796 0.0
H304 H 0.35438 0.04609 0.16526 0.0
C305 C 0.38575 0.05762 0.40993 0.0
O306 O 0.41441 0.07234 0.44277 0.0
N307 N 0.41613 0.13106 0.39971 0.0
C308 C 0.4421 0.15703 0.42866 0.0
C309 C 0.44238 0.15941 0.53243 0.0
C310 C 0.4 0.11984 0.48592 0.0
N311 N 0.41611 0.13543 0.5677 0.0
C312 C 0.46953 0.13064 0.26355 0.0
C313 C 0.46291 0.07246 0.25157 0.0
C314 C 0.4925 0.09808 0.26401 0.0
C315 C 0.49579 0.12751 0.26649 0.0
C316 C 0.43727 0.0768 0.24771 0.0
N317 N 0.44056 0.10536 0.26294 0.0
H318 H 0.47272 0.15352 0.25953 0.0
H319 H 0.41467 0.05708 0.23479 0.0
H320 H 0.45998 0.17323 0.37937 0.0
H321 H 0.37745 0.09972 0.4905 0.0
O322 O 0.42303 0.15124 0.20402 0.0
O323 O 0.37419 0.12479 0.25252 0.0
O324 O 0.37764 0.06912 0.33687 0.0
C325 C 0.39613 0.14922 0.208 0.0
H326 H 0.35043 0.04087 0.96478 0.0
H327 H 0.46107 0.17632 0.57861 0.0
H328 H 0.45969 0.04944 0.24506 0.0
H329 H 0.51849 0.1479 0.27096 0.0
Co330 Co 0.30292 0.40672 0.38456 0.0
C331 C 0.31949 0.41185 0.16998 0.0
C332 C 0.29975 0.36532 0.22332 0.0
C333 C 0.30034 0.365 0.1195 0.0
N334 N 0.31176 0.39471 0.2552 0.0
N335 N 0.31173 0.39419 0.0861 0.0
H336 H 0.32759 0.43635 0.1693 0.0
H337 H 0.28794 0.34521 0.27134 0.0
C338 C 0.3298 0.36478 0.45398 0.0
O339 O 0.34179 0.36396 0.367 0.0
N340 N 0.29311 0.41757 0.51554 0.0
C341 C 0.27505 0.42978 0.53846 0.0
C342 C 0.27458 0.4327 0.64225 0.0
C343 C 0.3032 0.41335 0.60577 0.0
N344 N 0.29219 0.42208 0.68362 0.0
C345 C 0.34948 0.46883 0.42872 0.0
C346 C 0.40001 0.46438 0.3678 0.0
C347 C 0.4046 0.49251 0.40527 0.0
C348 C 0.37898 0.49466 0.43562 0.0
C349 C 0.37002 0.43907 0.36181 0.0
N350 N 0.34522 0.44113 0.39514 0.0
H351 H 0.32994 0.47137 0.44865 0.0
H352 H 0.36694 0.41807 0.32927 0.0
H353 H 0.26285 0.436 0.48431 0.0
H354 H 0.31806 0.40372 0.61626 0.0
O355 O 0.28524 0.42842 0.31433 0.0
O356 O 0.25889 0.37931 0.35563 0.0
O357 O 0.31384 0.37824 0.46357 0.0
C358 C 0.25922 0.40264 0.30931 0.0
H359 H 0.28946 0.34462 0.0723 0.0
H360 H 0.26168 0.44107 0.68416 0.0
H361 H 0.41937 0.4622 0.34172 0.0
H362 H 0.38174 0.51633 0.46279 0.0
Co363 Co 0.90018 0.29161 0.55294 0.0
C364 C 0.90724 0.29964 0.33075 0.0
C365 C 0.94759 0.30262 0.39805 0.0
C366 C 0.95128 0.30433 0.29469 0.0
N367 N 0.92035 0.30075 0.42125 0.0
N368 N 0.92548 0.30171 0.25304 0.0
H369 H 0.88368 0.2945 0.32045 0.0
H370 H 0.96304 0.30094 0.45165 0.0
C371 C 0.9666 0.33521 0.61695 0.0
O372 O 0.97087 0.35232 0.5366 0.0
N373 N 0.88038 0.28177 0.68363 0.0
C374 C 0.8549 0.28273 0.71132 0.0
C375 C 0.85347 0.28242 0.81554 0.0
C376 C 0.89364 0.28022 0.77059 0.0
N377 N 0.87819 0.28136 0.85175 0.0
C378 C 0.88913 0.34025 0.48335 0.0
C379 C 0.91349 0.37753 0.65113 0.0
C380 C 0.90191 0.38735 0.57205 0.0
C381 C 0.88927 0.36827 0.48781 0.0
C382 C 0.91314 0.34951 0.64314 0.0
N383 N 0.90214 0.33167 0.55837 0.0
H384 H 0.87761 0.32518 0.42093 0.0
H385 H 0.92167 0.34216 0.70602 0.0
H386 H 0.83995 0.28608 0.65991 0.0
H387 H 0.91546 0.28064 0.77553 0.0
O388 O 0.86027 0.26785 0.48779 0.0
O389 O 0.88955 0.24851 0.53717 0.0
O390 O 0.94152 0.30933 0.62664 0.0
C391 C 0.86399 0.24399 0.49479 0.0
H392 H 0.97029 0.30508 0.25323 0.0
H393 H 0.83705 0.28519 0.86101 0.0
H394 H 0.92273 0.39142 0.71853 0.0
H395 H 0.87916 0.37478 0.42683 0.0
C396 C 0.09368 0.56037 0.98645 0.0
C397 C 0.09319 0.57635 0.07398 0.0
C398 C 0.09259 0.5359 0.18163 0.0
C399 C 0.09643 0.52176 0.09456 0.0
N400 N 0.10237 0.52074 0.9143 0.0
N401 N 0.09369 0.58092 0.2551 0.0
C402 C 0.09723 0.53394 0.99684 0.0
C403 C 0.09281 0.56441 0.17175 0.0
N404 N 0.09037 0.57036 0.89354 0.0
N405 N 0.08831 0.52179 0.27344 0.0
H406 H 0.09252 0.60117 0.25099 0.0
H407 H 0.09719 0.5756 0.32814 0.0
H408 H 0.08881 0.50133 0.28346 0.0
H409 H 0.08212 0.529 0.33845 0.0
H410 H 0.08733 0.55814 0.82705 0.0
H411 H 0.08826 0.58995 0.88349 0.0
H412 H 0.10683 0.53044 0.84246 0.0
H413 H 0.10402 0.50076 0.9183 0.0
C414 C 0.53199 0.09462 0.37284 0.0
C415 C 0.52026 0.09452 0.27489 0.0
C416 C 0.565 0.09459 0.19804 0.0
C417 C 0.57652 0.0943 0.29601 0.0
N418 N 0.56957 0.08957 0.47616 0.0
N419 N 0.52257 0.09002 0.09471 0.0
C420 C 0.55951 0.09291 0.38334 0.0
C421 C 0.53586 0.0931 0.18754 0.0
N422 N 0.51715 0.0972 0.45568 0.0
N423 N 0.58239 0.09709 0.11519 0.0
H424 H 0.50178 0.08985 0.08409 0.0
H425 H 0.53087 0.08559 0.02869 0.0
H426 H 0.60312 0.09682 0.11954 0.0
H427 H 0.57733 0.10104 0.04237 0.0
H428 H 0.52619 0.10115 0.52843 0.0
H429 H 0.49615 0.09693 0.45135 0.0
H430 H 0.55676 0.08506 0.54207 0.0
H431 H 0.59015 0.08933 0.48687 0.0
C432 C 0.4506 0.53126 0.5043 0.0
C433 C 0.43596 0.52027 0.40941 0.0
C434 C 0.47946 0.56407 0.32514 0.0
C435 C 0.49173 0.57726 0.42072 0.0
N436 N 0.48839 0.57489 0.60219 0.0
N437 N 0.43465 0.52739 0.22961 0.0
C438 C 0.47732 0.56112 0.51075 0.0
C439 C 0.45005 0.53681 0.31957 0.0
N440 N 0.43913 0.5129 0.58783 0.0
N441 N 0.49615 0.57753 0.23977 0.0
H442 H 0.4131 0.50752 0.22204 0.0
H443 H 0.44208 0.54045 0.16372 0.0
H444 H 0.51777 0.59757 0.24131 0.0
H445 H 0.48998 0.56741 0.16867 0.0
H446 H 0.45037 0.51822 0.65735 0.0
H447 H 0.4196 0.49091 0.58547 0.0
H448 H 0.47687 0.56594 0.67001 0.0
H449 H 0.50827 0.59643 0.60985 0.0
C450 C 0.88199 0.42034 0.64581 0.0
C451 C 0.90236 0.41726 0.57866 0.0
C452 C 0.92153 0.47014 0.51767 0.0
C453 C 0.90293 0.47398 0.59041 0.0
N454 N 0.86999 0.45506 0.73667 0.0
N455 N 0.94551 0.44068 0.46399 0.0
C456 C 0.88446 0.44973 0.65834 0.0
C457 C 0.9233 0.4426 0.5183 0.0
N458 N 0.85956 0.39496 0.69495 0.0
N459 N 0.93666 0.49235 0.44587 0.0
H460 H 0.94758 0.42092 0.46275 0.0
H461 H 0.9635 0.45946 0.4272 0.0
H462 H 0.93603 0.51289 0.44319 0.0
H463 H 0.94777 0.48938 0.3842 0.0
H464 H 0.84192 0.3951 0.73623 0.0
H465 H 0.85689 0.37299 0.68744 0.0
H466 H 0.85893 0.43932 0.79487 0.0
H467 H 0.87141 0.47635 0.74867 0.0
C468 C 0.43349 0.8935 0.86813 0.0
C469 C 0.42845 0.91161 0.79613 0.0
C470 C 0.48061 0.93098 0.72902 0.0
C471 C 0.48411 0.91004 0.79266 0.0
N472 N 0.46272 0.86852 0.91425 0.0
N473 N 0.44543 0.94507 0.65052 0.0
C474 C 0.46029 0.8906 0.86036 0.0
C475 C 0.4516 0.92982 0.72471 0.0
N476 N 0.41296 0.87966 0.94527 0.0
N477 N 0.50525 0.95239 0.67445 0.0
H478 H 0.42455 0.94501 0.64552 0.0
H479 H 0.46003 0.95586 0.58958 0.0
H480 H 0.52684 0.95385 0.6758 0.0
H481 H 0.50515 0.97035 0.63478 0.0
H482 H 0.41697 0.86887 0.00605 0.0
H483 H 0.39307 0.88132 0.95342 0.0
H484 H 0.44462 0.85137 0.95594 0.0
H485 H 0.48205 0.86574 0.91113 0.0
C486 C 0.55888 0.4725 0.79766 0.0
C487 C 0.57546 0.48493 0.8888 0.0
C488 C 0.53381 0.44282 0.98582 0.0
C489 C 0.51871 0.42883 0.89384 0.0
N490 N 0.51575 0.42942 0.71249 0.0
N491 N 0.57961 0.4831 0.06958 0.0
C492 C 0.5308 0.44361 0.7998 0.0
C493 C 0.56299 0.47055 0.98307 0.0
N494 N 0.57004 0.48847 0.70936 0.0
N495 N 0.52014 0.42949 0.0756 0.0
H496 H 0.60015 0.50427 0.07115 0.0
H497 H 0.57397 0.47228 0.13962 0.0
H498 H 0.49946 0.40855 0.08046 0.0
H499 H 0.52808 0.43976 0.14569 0.0
H500 H 0.55787 0.48256 0.64162 0.0
H501 H 0.59111 0.50901 0.70446 0.0
H502 H 0.52477 0.43676 0.64062 0.0
H503 H 0.49426 0.40924 0.71164 0.0
C504 C 0.02068 0.34117 0.8356 0.0
C505 C 0.03086 0.37168 0.86965 0.0
C506 C 0.99673 0.37686 0.74713 0.0
C507 C 0.98878 0.34765 0.70431 0.0
N508 N 0.9945 0.30245 0.70479 0.0
N509 N 0.01638 0.41033 0.8925 0.0
C510 C 1.00052 0.32955 0.74944 0.0
C511 C 0.015 0.38687 0.8359 0.0
N512 N 0.02967 0.32315 0.88641 0.0
N513 N 0.9881 0.39603 0.70197 0.0
H514 H 0.0282 0.41688 0.96092 0.0
H515 H 1.00271 0.42032 0.87903 0.0
H516 H 0.97419 0.39049 0.63849 0.0
H517 H 0.99704 0.41903 0.72291 0.0
H518 H 0.02128 0.29989 0.87124 0.0
H519 H 0.04321 0.3305 0.95126 0.0
H520 H 0.00467 0.28955 0.72649 0.0
H521 H 0.98119 0.2939 0.63957 0.0
C522 C 0.67063 0.99583 0.95869 0.0
C523 C 0.64163 0.98577 0.9103 0.0
C524 C 0.627 0.00822 0.04897 0.0
C525 C 0.6576 0.02343 0.08628 0.0
N526 N 0.70939 0.03115 0.07666 0.0
N527 N 0.59461 0.98895 0.90232 0.0
C528 C 0.67964 0.01677 0.04224 0.0
C529 C 0.6205 0.99383 0.9532 0.0
N530 N 0.68982 0.98576 0.92406 0.0
N531 N 0.60388 0.00737 0.10615 0.0
H532 H 0.58873 0.97958 0.83044 0.0
H533 H 0.58046 0.99734 0.92766 0.0
H534 H 0.60791 0.01684 0.17848 0.0
H535 H 0.58057 0.99416 0.08697 0.0
H536 H 0.70932 0.98895 0.96316 0.0
H537 H 0.68541 0.97276 0.85837 0.0
H538 H 0.72742 0.03102 0.03791 0.0
H539 H 0.71648 0.04407 0.14262 0.0
C540 C 0.66769 0.69341 0.15711 0.0
C541 C 0.64292 0.67105 0.21668 0.0
C542 C 0.64579 0.62936 0.1284 0.0
C543 C 0.66917 0.65146 0.06372 0.0
N544 N 0.70804 0.70443 0.03415 0.0
N545 N 0.6159 0.61937 0.28169 0.0
C546 C 0.68179 0.68352 0.08337 0.0
C547 C 0.63445 0.63955 0.20917 0.0
N548 N 0.67724 0.72401 0.16892 0.0
N549 N 0.63324 0.5985 0.11059 0.0
H550 H 0.60876 0.62662 0.34443 0.0
H551 H 0.61024 0.59636 0.28597 0.0
H552 H 0.64228 0.58949 0.05958 0.0
H553 H 0.61284 0.58157 0.14342 0.0
H554 H 0.69149 0.74108 0.11803 0.0
H555 H 0.67055 0.73243 0.22973 0.0
H556 H 0.72032 0.72787 0.05109 0.0
H557 H 0.71926 0.69794 0.98165 0.0
C558 C 0.00577 0.67466 0.44079 0.0
C559 C 0.98458 0.64267 0.45468 0.0
C560 C 1.00321 0.6311 0.29818 0.0
C561 C 0.02648 0.6625 0.29016 0.0
N562 N 0.04292 0.71536 0.33131 0.0
N563 N 0.96434 0.58993 0.40034 0.0
C564 C 0.02569 0.68473 0.35474 0.0
C565 C 0.98324 0.6208 0.38329 0.0
N566 N 0.00758 0.69526 0.51193 0.0
N567 N 0.99961 0.61135 0.22152 0.0
H568 H 0.949 0.58133 0.46037 0.0
H569 H 0.9651 0.57264 0.35905 0.0
H570 H 0.01327 0.61875 0.15697 0.0
H571 H 0.98124 0.58882 0.21607 0.0
H572 H 0.02497 0.7183 0.51397 0.0
H573 H 0.99254 0.68885 0.5732 0.0
H574 H 0.04192 0.73282 0.37059 0.0
H575 H 0.05575 0.72317 0.26521 0.0
C576 C 0.3397 0.02895 0.52656 0.0
C577 C 0.36346 0.02928 0.46704 0.0
C578 C 0.36088 0.98682 0.56827 0.0
C579 C 0.33969 0.98881 0.63538 0.0
N580 N 0.3095 0.01227 0.6813 0.0
N581 N 0.3883 1.00183 0.40862 0.0
C582 C 0.32899 0.00981 0.61464 0.0
C583 C 0.3714 0.00605 0.48123 0.0
N584 N 0.32645 0.04583 0.49637 0.0
N585 N 0.37265 0.96805 0.59122 0.0
H586 H 0.39519 0.015 0.34277 0.0
H587 H 0.39253 0.98345 0.40765 0.0
H588 H 0.36511 0.95305 0.65224 0.0
H589 H 0.39112 0.96849 0.55361 0.0
H590 H 0.30753 0.0451 0.53169 0.0
H591 H 0.33223 0.05808 0.42872 0.0
H592 H 0.30378 0.02962 0.67827 0.0
H593 H 0.30036 0.99785 0.744 0.0
C594 C 0.33845 0.31099 0.64245 0.0
C595 C 0.36096 0.33303 0.70915 0.0
C596 C 0.35919 0.37492 0.61834 0.0
C597 C 0.33834 0.35339 0.54658 0.0
N598 N 0.30307 0.30062 0.50119 0.0
N599 N 0.38285 0.38319 0.78383 0.0
C600 C 0.32632 0.32122 0.56227 0.0
C601 C 0.36794 0.36409 0.70446 0.0
N602 N 0.32918 0.28047 0.65491 0.0
N603 N 0.37233 0.40591 0.60138 0.0
H604 H 0.38843 0.3752 0.84884 0.0
H605 H 0.38624 0.40544 0.7903 0.0
H606 H 0.36647 0.41502 0.54037 0.0
H607 H 0.39053 0.42261 0.64409 0.0
H608 H 0.31604 0.26335 0.60269 0.0
H609 H 0.33481 0.27223 0.71918 0.0
H610 H 0.29147 0.27682 0.5117 0.0
H611 H 0.29391 0.30756 0.44249 0.0
C612 C 0.20954 0.41222 0.10176 0.0
C613 C 0.17966 0.39438 0.14213 0.0
C614 C 0.20121 0.38151 0.28983 0.0
C615 C 0.23176 0.39998 0.25105 0.0
N616 N 0.26458 0.43655 0.12203 0.0
N617 N 0.14582 0.35529 0.25888 0.0
C618 C 0.23578 0.41627 0.15752 0.0
C619 C 0.17514 0.37682 0.23106 0.0
N620 N 0.21257 0.42377 0.00607 0.0
N621 N 0.19707 0.37104 0.38718 0.0
H622 H 0.12642 0.35107 0.21694 0.0
H623 H 0.1409 0.33943 0.31693 0.0
H624 H 0.21523 0.37618 0.43669 0.0
H625 H 0.17576 0.36048 0.42345 0.0
H626 H 0.23299 0.43344 0.96482 0.0
H627 H 0.19365 0.42062 0.9631 0.0
H628 H 0.26883 0.45299 0.06662 0.0
H629 H 0.28473 0.43818 0.14885 0.0
C630 C 0.79246 0.16351 0.48607 0.0
C631 C 0.78525 0.16129 0.38169 0.0
C632 C 0.83537 0.20763 0.35197 0.0
C633 C 0.83949 0.21321 0.45728 0.0
N634 N 0.82118 0.19665 0.62651 0.0
N635 N 0.7997 0.18192 0.21367 0.0
C636 C 0.8179 0.19107 0.5251 0.0
C637 C 0.80677 0.18348 0.31394 0.0
N638 N 0.77583 0.1387 0.54709 0.0
N639 N 0.85945 0.22446 0.28872 0.0
H640 H 0.77968 0.16373 0.18263 0.0
H641 H 0.81281 0.19952 0.16259 0.0
H642 H 0.88137 0.23972 0.31661 0.0
H643 H 0.85865 0.22009 0.21175 0.0
H644 H 0.78151 0.13808 0.62232 0.0
H645 H 0.75911 0.1175 0.51814 0.0
H646 H 0.80416 0.18317 0.67877 0.0
H647 H 0.84022 0.21588 0.65782 0.0
C648 C 0.58236 0.80419 0.62645 0.0
C649 C 0.61004 0.8318 0.65021 0.0
C650 C 0.63796 0.81084 0.55507 0.0
C651 C 0.60937 0.78664 0.51557 0.0
N652 N 0.55527 0.77022 0.48902 0.0
N653 N 0.66505 0.8636 0.61406 0.0
C654 C 0.58187 0.78646 0.5433 0.0
C655 C 0.63822 0.83592 0.60825 0.0
N656 N 0.55656 0.79404 0.68457 0.0
N657 N 0.66465 0.80973 0.54779 0.0
H658 H 0.66694 0.88327 0.64709 0.0
H659 H 0.68493 0.86794 0.5751 0.0
H660 H 0.66613 0.79158 0.51589 0.0
H661 H 0.6849 0.82543 0.58493 0.0
H662 H 0.53646 0.77304 0.67089 0.0
H663 H 0.55682 0.80422 0.75346 0.0
H664 H 0.53524 0.77096 0.50568 0.0
H665 H 0.55469 0.75997 0.42005 0.0
C666 C 0.79793 0.59616 0.88035 0.0
C667 C 0.78681 0.61417 0.83493 0.0
C668 C 0.82397 0.62745 0.69622 0.0
C669 C 0.83372 0.60717 0.73702 0.0
N670 N 0.82717 0.57015 0.86873 0.0
N671 N 0.79662 0.65577 0.72272 0.0
C672 C 0.81998 0.59104 0.82936 0.0
C673 C 0.80232 0.63275 0.7504 0.0
N674 N 0.78921 0.5861 0.97711 0.0
N675 N 0.8327 0.63918 0.601 0.0
H676 H 0.78139 0.66032 0.7625 0.0
H677 H 0.80922 0.67224 0.6679 0.0
H678 H 0.84577 0.63361 0.55366 0.0
H679 H 0.82389 0.65146 0.56352 0.0
H680 H 0.79891 0.57578 0.02093 0.0
H681 H 0.77516 0.59199 0.01831 0.0
H682 H 0.8138 0.55382 0.92298 0.0
H683 H 0.84598 0.56831 0.84696 0.0
C684 C 0.22973 0.82219 0.01322 0.0
C685 C 0.22588 0.83709 0.9263 0.0
C686 C 0.16934 0.80496 0.94933 0.0
C687 C 0.17377 0.78667 0.02233 0.0
N688 N 0.20862 0.77782 0.12401 0.0
N689 N 0.19037 0.83737 0.80169 0.0
C690 C 0.20411 0.79527 0.05373 0.0
C691 C 0.1952 0.82741 0.89246 0.0
N692 N 0.25744 0.83458 0.06222 0.0
N693 N 0.14044 0.80053 0.93206 0.0
H694 H 0.20803 0.85097 0.75172 0.0
H695 H 0.16853 0.82892 0.76974 0.0
H696 H 0.12086 0.78373 0.96911 0.0
H697 H 0.13635 0.81531 0.8873 0.0
H698 H 0.26057 0.82679 0.1318 0.0
H699 H 0.2764 0.85522 0.0418 0.0
H700 H 0.22999 0.77949 0.13724 0.0
H701 H 0.19071 0.76079 0.16658 0.0
C702 C 0.41123 0.20443 0.19186 0.0
C703 C 0.39188 0.17387 0.1597 0.0
C704 C 0.37995 0.19304 1.00414 0.0
C705 C 0.40111 0.22416 0.03302 0.0
N706 N 0.44328 0.25769 0.14835 0.0
N707 N 0.35123 0.13866 0.05021 0.0
C708 C 0.41848 0.22948 0.12517 0.0
C709 C 0.37414 0.16805 0.07053 0.0
N710 N 0.42167 0.20952 0.28935 0.0
N711 N 0.368 0.18701 0.90851 0.0
H712 H 0.34703 0.11984 0.09524 0.0
H713 H 0.33437 0.13342 0.99532 0.0
H714 H 0.37422 0.20403 0.85354 0.0
H715 H 0.35487 0.16486 0.8792 0.0
H716 H 0.43258 0.23123 0.32314 0.0
H717 H 0.41572 0.19149 0.34041 0.0
H718 H 0.45824 0.26108 0.20806 0.0
H719 H 0.45224 0.27727 0.10405 0.0
C720 C 0.13093 0.42416 0.48837 0.0
C721 C 0.10607 0.3947 0.46205 0.0
C722 C 0.10169 0.3787 0.63759 0.0
C723 C 0.12843 0.40768 0.66197 0.0
N724 N 0.1752 0.4507 0.59737 0.0
N725 N 0.07614 0.34082 0.5054 0.0
C726 C 0.14548 0.42775 0.58227 0.0
C727 C 0.09419 0.37083 0.53456 0.0
N728 N 0.13938 0.44918 0.42754 0.0
N729 N 0.08199 0.35954 0.7094 0.0
H730 H 0.07134 0.33437 0.42986 0.0
H731 H 0.06917 0.32232 0.5551 0.0
H732 H 0.08344 0.36499 0.78497 0.0
H733 H 0.06165 0.33932 0.69145 0.0
H734 H 0.15635 0.47141 0.44838 0.0
H735 H 0.12682 0.44839 0.36348 0.0
H736 H 0.18894 0.46494 0.53901 0.0
H737 H 0.18674 0.45286 0.66536 0.0
C738 C 0.73433 0.10924 0.84221 0.0
C739 C 0.71167 0.11343 0.89182 0.0
C740 C 0.67703 0.09146 0.74586 0.0
C741 C 0.69934 0.08636 0.69777 0.0
N742 N 0.74622 0.08385 0.70868 0.0
N743 N 0.65859 0.10152 0.90194 0.0
C744 C 0.72702 0.09307 0.74888 0.0
C745 C 0.68217 0.10264 0.8467 0.0
N746 N 0.7633 0.12193 0.88274 0.0
N747 N 0.65091 0.08561 0.69447 0.0
H748 H 0.66113 0.10875 0.97666 0.0
H749 H 0.63577 0.09086 0.87697 0.0
H750 H 0.64554 0.07531 0.62334 0.0
H751 H 0.63545 0.09232 0.71996 0.0
H752 H 0.78196 0.12259 0.84552 0.0
H753 H 0.7693 0.13428 0.9503 0.0
H754 H 0.76492 0.08501 0.74761 0.0
H755 H 0.74241 0.07318 0.63862 0.0
C756 C 0.59457 0.6879 0.86798 0.0
C757 C 0.60933 0.71404 0.80448 0.0
C758 C 0.60738 0.74688 0.93823 0.0
C759 C 0.59144 0.72049 1.00006 0.0
N760 N 0.56542 0.66542 0.02151 0.0
N761 N 0.62633 0.76745 0.77105 0.0
C762 C 0.58374 0.69079 0.96411 0.0
C763 C 0.61477 0.74333 0.83741 0.0
N764 N 0.59158 0.66055 0.83636 0.0
N765 N 0.61607 0.77531 0.9775 0.0
H766 H 0.63247 0.76545 0.69761 0.0
H767 H 0.62807 0.78868 0.78621 0.0
H768 H 0.61017 0.77818 0.05054 0.0
H769 H 0.63039 0.796 0.94045 0.0
H770 H 0.58373 0.6411 0.88205 0.0
H771 H 0.59904 0.658 0.76542 0.0
H772 H 0.55678 0.64279 0.99725 0.0
H773 H 0.55674 0.66701 0.09131 0.0
C774 C 0.88603 0.61177 0.04537 0.0
C775 C 0.90273 0.59768 0.00872 0.0
C776 C 0.89154 0.56791 0.16566 0.0
C777 C 0.87829 0.58486 0.20652 0.0
N778 N 0.86846 0.62727 0.19204 0.0
N779 N 0.92431 0.56479 0.03644 0.0
C780 C 0.87684 0.60787 0.14803 0.0
C781 C 0.90615 0.57624 0.06948 0.0
N782 N 0.8782 0.62823 0.98136 0.0
N783 N 0.88956 0.5435 0.21855 0.0
H784 H 0.93523 0.57066 0.96633 0.0
H785 H 0.93041 0.55148 0.08103 0.0
H786 H 0.87839 0.53664 0.28809 0.0
H787 H 0.89649 0.52853 0.19001 0.0
H788 H 0.86345 0.63643 1.00155 0.0
H789 H 0.88346 0.63066 0.90474 0.0
H790 H 0.87015 0.64657 0.15574 0.0
H791 H 0.86276 0.62599 0.2681 0.0
C792 C 0.32237 0.89857 0.35332 0.0
C793 C 0.29218 0.8845 0.39486 0.0
C794 C 0.27229 0.89192 0.23432 0.0
C795 C 0.30296 0.9094 0.19706 0.0
N796 N 0.35759 0.93224 0.22391 0.0
N797 N 0.23955 0.87364 0.38172 0.0
C798 C 0.32816 0.9134 0.25733 0.0
C799 C 0.26738 0.88261 0.33706 0.0
N800 N 0.34528 0.89715 0.40531 0.0
N801 N 0.24775 0.88328 0.17073 0.0
H802 H 0.23536 0.86789 0.45787 0.0
H803 H 0.22165 0.87496 0.34581 0.0
H804 H 0.2503 0.88841 0.09394 0.0
H805 H 0.225 0.86792 0.19147 0.0
H806 H 0.36726 0.90472 0.37624 0.0
H807 H 0.34136 0.88582 0.47456 0.0
H808 H 0.37717 0.93867 0.26796 0.0
H809 H 0.36228 0.94338 0.15411 0.0
C810 C 0.42773 0.31494 0.45759 0.0
C811 C 0.41447 0.28415 0.49345 0.0
C812 C 0.38865 0.26452 0.33077 0.0
C813 C 0.40039 0.29541 0.29711 0.0
N814 N 0.42843 0.3499 0.32801 0.0
N815 N 0.38119 0.22976 0.4708 0.0
C816 C 0.41938 0.32062 0.36042 0.0
C817 C 0.39462 0.25893 0.43157 0.0
N818 N 0.44855 0.33859 0.51685 0.0
N819 N 0.37238 0.24073 0.26517 0.0
H820 H 0.38613 0.22534 0.54349 0.0
H821 H 0.36436 0.21015 0.43412 0.0
H822 H 0.36829 0.24419 0.19045 0.0
H823 H 0.36452 0.21764 0.28181 0.0
H824 H 0.46117 0.36146 0.49326 0.0
H825 H 0.45473 0.33501 0.58874 0.0
H826 H 0.43998 0.36949 0.37285 0.0
H827 H 0.42258 0.35442 0.25683 0.0
C828 C 0.58867 0.90725 0.20154 0.0
C829 C 0.59411 0.88348 0.16762 0.0
C830 C 0.61679 0.88304 0.33129 0.0
C831 C 0.61277 0.90787 0.36324 0.0
N832 N 0.59863 0.94628 0.32832 0.0
N833 N 0.6154 0.85034 0.19328 0.0
C834 C 0.59986 0.92083 0.2978 0.0
C835 C 0.60875 0.87178 0.23083 0.0
N836 N 0.57189 0.91598 0.14245 0.0
N837 N 0.62784 0.87007 0.3982 0.0
H838 H 0.60891 0.84129 0.12069 0.0
H839 H 0.62853 0.8426 0.23131 0.0
H840 H 0.63522 0.87901 0.47032 0.0
H841 H 0.62851 0.84993 0.38445 0.0
H842 H 0.56505 0.93162 0.16455 0.0
H843 H 0.56255 0.90551 0.07347 0.0
H844 H 0.5922 0.9589 0.28163 0.0
H845 H 0.6062 0.95609 0.39953 0.0
C846 C 0.68015 0.58121 0.35213 0.0
C847 C 0.70826 0.58399 0.31736 0.0
C848 C 0.7307 0.59995 0.48542 0.0
C849 C 0.70444 0.60167 0.51573 0.0
N850 N 0.65422 0.59463 0.48077 0.0
N851 N 0.76154 0.59908 0.34627 0.0
C852 C 0.67905 0.59234 0.44982 0.0
C853 C 0.73385 0.59395 0.383 0.0
N854 N 0.65448 0.56718 0.29224 0.0
N855 N 0.7521 0.60314 0.55554 0.0
H856 H 0.76466 0.59527 0.27103 0.0
H857 H 0.78192 0.60941 0.38828 0.0
H858 H 0.74981 0.60686 0.63142 0.0
H859 H 0.77003 0.59879 0.54042 0.0
H860 H 0.63253 0.56189 0.31588 0.0
H861 H 0.65473 0.55829 0.22133 0.0
H862 H 0.63581 0.59059 0.43408 0.0
H863 H 0.6529 0.6022 0.55292 0.0
C864 C 0.13679 0.7383 0.56191 0.0
C865 C 0.12231 0.71196 0.49956 0.0
C866 C 0.0839 0.6836 0.63052 0.0
C867 C 0.09965 0.70915 0.69557 0.0
N868 N 0.14338 0.75907 0.73078 0.0
N869 N 0.08672 0.65767 0.48028 0.0
C870 C 0.1268 0.73608 0.66331 0.0
C871 C 0.09703 0.68404 0.53536 0.0
N872 N 0.15968 0.76546 0.52311 0.0
N873 N 0.05644 0.65904 0.66026 0.0
H874 H 0.09768 0.65709 0.41429 0.0
H875 H 0.06973 0.63598 0.50499 0.0
H876 H 0.04689 0.65804 0.73104 0.0
H877 H 0.04213 0.64095 0.61245 0.0
H878 H 0.16925 0.78644 0.56125 0.0
H879 H 0.16778 0.76725 0.4495 0.0
H880 H 0.16527 0.77764 0.71579 0.0
H881 H 0.13602 0.75822 0.80465 0.0
C882 C 0.38375 0.12166 0.71997 0.0
C883 C 0.40949 0.12356 0.66919 0.0
C884 C 0.42025 0.09961 0.8138 0.0
C885 C 0.39391 0.0968 0.86318 0.0
N886 N 0.3472 0.0995 0.8577 0.0
N887 N 0.44794 0.10799 0.65657 0.0
C888 C 0.37453 0.10603 0.81426 0.0
C889 C 0.42665 0.11082 0.71306 0.0
N890 N 0.36881 0.13571 0.67875 0.0
N891 N 0.4392 0.09167 0.86408 0.0
H892 H 0.45277 0.11528 0.58182 0.0
H893 H 0.4589 0.09601 0.68058 0.0
H894 H 0.43393 0.08156 0.93559 0.0
H895 H 0.46076 0.09654 0.83742 0.0
H896 H 0.35143 0.13764 0.71518 0.0
H897 H 0.37552 0.14759 0.61025 0.0
H898 H 0.33052 0.10285 0.82185 0.0
H899 H 0.34011 0.08851 0.92735 0.0
C900 C 0.27135 0.39541 0.84645 0.0
C901 C 0.29656 0.41754 0.78875 0.0
C902 C 0.33216 0.4236 0.92696 0.0
C903 C 0.30667 0.40301 0.98689 0.0
N904 N 0.25145 0.3751 0.01225 0.0
N905 N 0.35017 0.45638 0.77797 0.0
C906 C 0.27607 0.39066 0.94915 0.0
C907 C 0.32679 0.43279 0.8305 0.0
N908 N 0.24325 0.3776 0.80157 0.0
N909 N 0.36143 0.43337 0.96103 0.0
H910 H 0.34658 0.46376 0.70809 0.0
H911 H 0.37232 0.47024 0.80689 0.0
H912 H 0.36582 0.42678 0.03113 0.0
H913 H 0.38114 0.44599 0.91735 0.0
H914 H 0.22488 0.35878 0.8369 0.0
H915 H 0.23911 0.37969 0.72567 0.0
H916 H 0.22878 0.36814 0.99137 0.0
H917 H 0.25391 0.37225 0.08893 0.0
C918 C 0.90851 0.26972 0.09781 0.0
C919 C 0.91659 0.29781 0.14814 0.0
C920 C 0.90172 0.31626 0.9981 0.0
C921 C 0.88993 0.2867 0.95351 0.0
N922 N 0.87859 0.23416 0.9639 0.0
N923 N 0.92012 0.34754 0.14959 0.0
C924 C 0.89256 0.26318 1.00409 0.0
C925 C 0.91289 0.32098 0.09906 0.0
N926 N 0.91612 0.24933 0.13906 0.0
N927 N 0.90364 0.34016 0.94219 0.0
H928 H 0.93054 0.3526 0.22065 0.0
H929 H 0.91453 0.36381 0.12334 0.0
H930 H 0.89608 0.33761 0.8677 0.0
H931 H 0.91501 0.36301 0.96647 0.0
H932 H 0.91403 0.23027 0.1004 0.0
H933 H 0.92623 0.25227 0.20988 0.0
H934 H 0.87668 0.215 1.00178 0.0
H935 H 0.86641 0.22874 0.89588 0.0
loop_
_geom_bond_atom_site_label_1
_geom_bond_atom_site_label_2
_geom_bond_distance
_geom_bond_site_symmetry_2
_ccdc_geom_bond_type
Co0 N4 2.148 . S
Co0 N10 2.128 1_554 S
Co0 N20 2.194 . S
Co0 O25 2.351 . S
Co0 O26 2.155 . S
Co0 O27 2.098 . S
C1 N4 1.301 . S
C1 N5 1.328 . S
C1 H6 0.930 . S
C2 C3 1.333 . S
C2 N4 1.317 . S
C2 H7 0.930 . S
C3 C2 1.333 . S
C3 N5 1.350 . S
C3 H29 0.931 . S
N4 Co0 2.148 . S
N4 C1 1.301 . S
N4 C2 1.317 . S
N5 C1 1.328 . S
N5 C3 1.350 . S
H6 C1 0.930 . S
H7 C2 0.930 . S
C8 O9 1.224 . S
C8 O27 1.244 1_556 S
O9 C8 1.224 . S
N10 Co0 2.128 1_556 S
N10 C11 1.355 . S
N10 C13 1.311 . S
C11 N10 1.355 . S
C11 C12 1.363 . S
C11 H23 0.929 . S
C12 C11 1.363 . S
C12 N14 1.375 . S
C12 H30 0.931 . S
C13 N10 1.311 . S
C13 N14 1.347 . S
C13 H24 0.929 . S
N14 C12 1.375 . S
N14 C13 1.347 . S
C15 C18 1.365 . S
C15 N20 1.328 . S
C15 H21 0.929 . S
C16 C17 1.362 . S
C16 C19 1.378 . S
C16 H31 0.929 . S
C17 C16 1.362 . S
C17 C18 1.366 . S
C18 C15 1.365 . S
C18 C17 1.366 . S
C18 H32 0.930 . S
C19 C16 1.378 . S
C19 N20 1.315 . S
C19 H22 0.930 . S
N20 Co0 2.194 . S
N20 C15 1.328 . S
N20 C19 1.315 . S
H21 C15 0.929 . S
H22 C19 0.930 . S
H23 C11 0.929 . S
H24 C13 0.929 . S
O25 Co0 2.351 . S
O25 C28 1.244 . S
O26 Co0 2.155 . S
O26 C28 1.240 . S
O27 Co0 2.098 . S
O27 C8 1.244 1_554 S
C28 O25 1.244 . S
C28 O26 1.240 . S
H29 C3 0.931 . S
H30 C12 0.931 . S
H31 C16 0.929 . S
H32 C18 0.930 . S
Co33 N37 2.148 . S
Co33 N43 2.128 . S
Co33 N53 2.194 . S
Co33 O58 2.351 . S
Co33 O59 2.155 . S
Co33 O60 2.096 . S
C34 N37 1.301 . S
C34 N38 1.328 . S
C34 H39 0.930 . S
C35 C36 1.333 . S
C35 N37 1.317 . S
C35 H40 0.930 . S
C36 C35 1.333 . S
C36 N38 1.350 . S
C36 H62 0.931 . S
N37 Co33 2.148 . S
N37 C34 1.301 . S
N37 C35 1.317 . S
N38 C34 1.328 . S
N38 C36 1.350 . S
H39 C34 0.930 . S
H40 C35 0.930 . S
C41 O42 1.224 . S
C41 O60 1.247 . S
O42 C41 1.224 . S
N43 Co33 2.128 . S
N43 C44 1.355 . S
N43 C46 1.311 1_554 S
C44 N43 1.355 . S
C44 C45 1.363 1_554 S
C44 H56 0.929 . S
C45 C44 1.363 1_556 S
C45 N47 1.375 . S
C45 H63 0.931 . S
C46 N43 1.311 1_556 S
C46 N47 1.347 . S
C46 H57 0.929 . S
N47 C45 1.375 . S
N47 C46 1.347 . S
C48 C51 1.365 . S
C48 N53 1.328 . S
C48 H54 0.929 . S
C49 C50 1.362 . S
C49 C52 1.378 . S
C49 H64 0.929 . S
C50 C49 1.362 . S
C50 C51 1.366 . S
C51 C48 1.365 . S
C51 C50 1.366 . S
C51 H65 0.930 . S
C52 C49 1.378 . S
C52 N53 1.315 . S
C52 H55 0.930 . S
N53 Co33 2.194 . S
N53 C48 1.328 . S
N53 C52 1.315 . S
H54 C48 0.929 . S
H55 C52 0.930 . S
H56 C44 0.929 . S
H57 C46 0.929 . S
O58 Co33 2.351 . S
O58 C61 1.244 . S
O59 Co33 2.155 . S
O59 C61 1.240 . S
O60 Co33 2.096 . S
O60 C41 1.247 . S
C61 O58 1.244 . S
C61 O59 1.240 . S
H62 C36 0.931 . S
H63 C45 0.931 . S
H64 C49 0.929 . S
H65 C51 0.930 . S
Co66 N70 2.148 . S
Co66 N76 2.128 . S
Co66 N86 2.194 . S
Co66 O91 2.351 . S
Co66 O92 2.155 . S
Co66 O93 2.096 . S
C67 N70 1.301 . S
C67 N71 1.328 . S
C67 H72 0.930 . S
C68 C69 1.333 . S
C68 N70 1.317 . S
C68 H73 0.930 . S
C69 C68 1.333 . S
C69 N71 1.350 . S
C69 H95 0.931 . S
N70 Co66 2.148 . S
N70 C67 1.301 . S
N70 C68 1.317 . S
N71 C67 1.328 . S
N71 C69 1.350 . S
H72 C67 0.930 . S
H73 C68 0.930 . S
C74 O75 1.224 . S
C74 O93 1.247 . S
O75 C74 1.224 . S
N76 Co66 2.128 . S
N76 C77 1.355 . S
N76 C79 1.311 . S
C77 N76 1.355 . S
C77 C78 1.363 . S
C77 H89 0.929 . S
C78 C77 1.363 . S
C78 N80 1.375 . S
C78 H96 0.931 . S
C79 N76 1.311 . S
C79 N80 1.347 . S
C79 H90 0.929 . S
N80 C78 1.375 . S
N80 C79 1.347 . S
C81 C84 1.365 . S
C81 N86 1.328 . S
C81 H87 0.929 . S
C82 C83 1.362 . S
C82 C85 1.378 . S
C82 H97 0.929 . S
C83 C82 1.362 . S
C83 C84 1.366 . S
C84 C81 1.365 . S
C84 C83 1.366 . S
C84 H98 0.930 . S
C85 C82 1.378 . S
C85 N86 1.315 . S
C85 H88 0.930 . S
N86 Co66 2.194 . S
N86 C81 1.328 . S
N86 C85 1.315 . S
H87 C81 0.929 . S
H88 C85 0.930 . S
H89 C77 0.929 . S
H90 C79 0.929 . S
O91 Co66 2.351 . S
O91 C94 1.244 . S
O92 Co66 2.155 . S
O92 C94 1.240 . S
O93 Co66 2.096 . S
O93 C74 1.247 . S
C94 O91 1.244 . S
C94 O92 1.240 . S
H95 C69 0.931 . S
H96 C78 0.931 . S
H97 C82 0.929 . S
H98 C84 0.930 . S
Co99 N103 2.148 . S
Co99 N109 2.128 . S
Co99 N119 2.194 . S
Co99 O124 2.351 . S
Co99 O125 2.155 . S
Co99 O126 2.096 . S
C100 N103 1.301 . S
C100 N104 1.328 . S
C100 H105 0.930 . S
C101 C102 1.333 . S
C101 N103 1.317 . S
C101 H106 0.930 . S
C102 C101 1.333 . S
C102 N104 1.350 . S
C102 H128 0.931 . S
N103 Co99 2.148 . S
N103 C100 1.301 . S
N103 C101 1.317 . S
N104 C100 1.328 . S
N104 C102 1.350 . S
H105 C100 0.930 . S
H106 C101 0.930 . S
C107 O108 1.224 . S
C107 O126 1.247 . S
O108 C107 1.224 . S
N109 Co99 2.128 . S
N109 C110 1.355 . S
N109 C112 1.311 . S
C110 N109 1.355 . S
C110 C111 1.363 . S
C110 H122 0.929 . S
C111 C110 1.363 . S
C111 N113 1.375 . S
C111 H129 0.931 . S
C112 N109 1.311 . S
C112 N113 1.347 . S
C112 H123 0.929 . S
N113 C111 1.375 . S
N113 C112 1.347 . S
C114 C117 1.365 . S
C114 N119 1.328 . S
C114 H120 0.929 . S
C115 C116 1.362 . S
C115 C118 1.378 . S
C115 H130 0.929 . S
C116 C115 1.362 . S
C116 C117 1.366 . S
C117 C114 1.365 . S
C117 C116 1.366 . S
C117 H131 0.930 . S
C118 C115 1.378 . S
C118 N119 1.315 . S
C118 H121 0.930 . S
N119 Co99 2.194 . S
N119 C114 1.328 . S
N119 C118 1.315 . S
H120 C114 0.929 . S
H121 C118 0.930 . S
H122 C110 0.929 . S
H123 C112 0.929 . S
O124 Co99 2.351 . S
O124 C127 1.244 . S
O125 Co99 2.155 . S
O125 C127 1.240 . S
O126 Co99 2.096 . S
O126 C107 1.247 . S
C127 O124 1.244 . S
C127 O125 1.240 . S
H128 C102 0.931 . S
H129 C111 0.931 . S
H130 C115 0.929 . S
H131 C117 0.930 . S
Co132 N136 2.148 . S
Co132 N142 2.128 . S
Co132 N152 2.194 . S
Co132 O157 2.351 . S
Co132 O158 2.155 . S
Co132 O159 2.096 . S
C133 N136 1.301 . S
C133 N137 1.328 1_556 S
C133 H138 0.930 . S
C134 C135 1.333 . S
C134 N136 1.317 . S
C134 H139 0.930 . S
C135 C134 1.333 . S
C135 N137 1.350 1_556 S
C135 H161 0.931 1_556 S
N136 Co132 2.148 . S
N136 C133 1.301 . S
N136 C134 1.317 . S
N137 C133 1.328 1_554 S
N137 C135 1.350 1_554 S
H138 C133 0.930 . S
H139 C134 0.930 . S
C140 O141 1.224 . S
C140 O159 1.247 . S
O141 C140 1.224 . S
N142 Co132 2.128 . S
N142 C143 1.355 . S
N142 C145 1.311 . S
C143 N142 1.355 . S
C143 C144 1.363 . S
C143 H155 0.929 . S
C144 C143 1.363 . S
C144 N146 1.375 . S
C144 H162 0.931 . S
C145 N142 1.311 . S
C145 N146 1.347 . S
C145 H156 0.929 . S
N146 C144 1.375 . S
N146 C145 1.347 . S
C147 C150 1.365 . S
C147 N152 1.328 . S
C147 H153 0.929 . S
C148 C149 1.362 . S
C148 C151 1.378 . S
C148 H163 0.929 . S
C149 C148 1.362 . S
C149 C150 1.366 . S
C150 C147 1.365 . S
C150 C149 1.366 . S
C150 H164 0.930 . S
C151 C148 1.378 . S
C151 N152 1.315 . S
C151 H154 0.930 . S
N152 Co132 2.194 . S
N152 C147 1.328 . S
N152 C151 1.315 . S
H153 C147 0.929 . S
H154 C151 0.930 . S
H155 C143 0.929 . S
H156 C145 0.929 . S
O157 Co132 2.351 . S
O157 C160 1.244 . S
O158 Co132 2.155 . S
O158 C160 1.240 . S
O159 Co132 2.096 . S
O159 C140 1.247 . S
C160 O157 1.244 . S
C160 O158 1.240 . S
H161 C135 0.931 1_554 S
H162 C144 0.931 . S
H163 C148 0.929 . S
H164 C150 0.930 . S
Co165 N169 2.148 1_556 S
Co165 N175 2.128 . S
Co165 N185 2.194 . S
Co165 O190 2.351 . S
Co165 O191 2.155 . S
Co165 O192 2.096 . S
C166 N169 1.301 . S
C166 N170 1.328 . S
C166 H171 0.930 . S
C167 C168 1.333 . S
C167 N169 1.317 . S
C167 H172 0.930 . S
C168 C167 1.333 . S
C168 N170 1.350 . S
C168 H194 0.931 . S
N169 Co165 2.148 1_554 S
N169 C166 1.301 . S
N169 C167 1.317 . S
N170 C166 1.328 . S
N170 C168 1.350 . S
H171 C166 0.930 . S
H172 C167 0.930 . S
C173 O174 1.224 . S
C173 O192 1.247 . S
O174 C173 1.224 . S
N175 Co165 2.128 . S
N175 C176 1.355 . S
N175 C178 1.311 . S
C176 N175 1.355 . S
C176 C177 1.363 . S
C176 H188 0.929 . S
C177 C176 1.363 . S
C177 N179 1.375 . S
C177 H195 0.931 . S
C178 N175 1.311 . S
C178 N179 1.347 . S
C178 H189 0.929 . S
N179 C177 1.375 . S
N179 C178 1.347 . S
C180 C183 1.365 . S
C180 N185 1.328 . S
C180 H186 0.929 . S
C181 C182 1.362 . S
C181 C184 1.378 . S
C181 H196 0.929 . S
C182 C181 1.362 . S
C182 C183 1.366 . S
C183 C180 1.365 . S
C183 C182 1.366 . S
C183 H197 0.930 . S
C184 C181 1.378 . S
C184 N185 1.315 . S
C184 H187 0.930 . S
N185 Co165 2.194 . S
N185 C180 1.328 . S
N185 C184 1.315 . S
H186 C180 0.929 . S
H187 C184 0.930 . S
H188 C176 0.929 . S
H189 C178 0.929 . S
O190 Co165 2.351 . S
O190 C193 1.244 . S
O191 Co165 2.155 . S
O191 C193 1.240 . S
O192 Co165 2.096 . S
O192 C173 1.247 . S
C193 O190 1.244 . S
C193 O191 1.240 . S
H194 C168 0.931 . S
H195 C177 0.931 . S
H196 C181 0.929 . S
H197 C183 0.930 . S
Co198 N202 2.148 . S
Co198 N208 2.128 . S
Co198 N218 2.194 . S
Co198 O223 2.351 . S
Co198 O224 2.155 . S
Co198 O225 2.096 . S
C199 N202 1.301 . S
C199 N203 1.328 . S
C199 H204 0.930 . S
C200 C201 1.333 . S
C200 N202 1.317 . S
C200 H205 0.930 . S
C201 C200 1.333 . S
C201 N203 1.350 . S
C201 H227 0.931 . S
N202 Co198 2.148 . S
N202 C199 1.301 . S
N202 C200 1.317 . S
N203 C199 1.328 . S
N203 C201 1.350 . S
H204 C199 0.930 . S
H205 C200 0.930 . S
C206 O207 1.224 . S
C206 O225 1.247 . S
O207 C206 1.224 . S
N208 Co198 2.128 . S
N208 C209 1.355 . S
N208 C211 1.311 1_556 S
C209 N208 1.355 . S
C209 C210 1.363 1_556 S
C209 H221 0.929 . S
C210 C209 1.363 1_554 S
C210 N212 1.375 . S
C210 H228 0.931 . S
C211 N208 1.311 1_554 S
C211 N212 1.347 . S
C211 H222 0.929 . S
N212 C210 1.375 . S
N212 C211 1.347 . S
C213 C216 1.365 . S
C213 N218 1.328 . S
C213 H219 0.929 . S
C214 C215 1.362 . S
C214 C217 1.378 . S
C214 H229 0.929 . S
C215 C214 1.362 . S
C215 C216 1.366 . S
C216 C213 1.365 . S
C216 C215 1.366 . S
C216 H230 0.930 . S
C217 C214 1.378 . S
C217 N218 1.315 . S
C217 H220 0.930 . S
N218 Co198 2.194 . S
N218 C213 1.328 . S
N218 C217 1.315 . S
H219 C213 0.929 . S
H220 C217 0.930 . S
H221 C209 0.929 . S
H222 C211 0.929 . S
O223 Co198 2.351 . S
O223 C226 1.244 . S
O224 Co198 2.155 . S
O224 C226 1.240 . S
O225 Co198 2.096 . S
O225 C206 1.247 . S
C226 O223 1.244 . S
C226 O224 1.240 . S
H227 C201 0.931 . S
H228 C210 0.931 . S
H229 C214 0.929 . S
H230 C216 0.930 . S
Co231 N235 2.148 . S
Co231 N241 2.128 1_556 S
Co231 N251 2.194 . S
Co231 O256 2.351 . S
Co231 O257 2.155 . S
Co231 O258 2.098 . S
C232 N235 1.301 . S
C232 N236 1.328 . S
C232 H237 0.930 . S
C233 C234 1.333 . S
C233 N235 1.317 . S
C233 H238 0.930 . S
C234 C233 1.333 . S
C234 N236 1.350 . S
C234 H260 0.931 . S
N235 Co231 2.148 . S
N235 C232 1.301 . S
N235 C233 1.317 . S
N236 C232 1.328 . S
N236 C234 1.350 . S
H237 C232 0.930 . S
H238 C233 0.930 . S
C239 O240 1.224 . S
C239 O258 1.244 1_554 S
O240 C239 1.224 . S
N241 Co231 2.128 1_554 S
N241 C242 1.355 . S
N241 C244 1.311 . S
C242 N241 1.355 . S
C242 C243 1.363 . S
C242 H254 0.929 . S
C243 C242 1.363 . S
C243 N245 1.375 . S
C243 H261 0.931 . S
C244 N241 1.311 . S
C244 N245 1.347 . S
C244 H255 0.929 . S
N245 C243 1.375 . S
N245 C244 1.347 . S
C246 C249 1.365 . S
C246 N251 1.328 . S
C246 H252 0.929 . S
C247 C248 1.362 . S
C247 C250 1.378 . S
C247 H262 0.929 . S
C248 C247 1.362 . S
C248 C249 1.366 . S
C249 C246 1.365 . S
C249 C248 1.366 . S
C249 H263 0.930 . S
C250 C247 1.378 . S
C250 N251 1.315 . S
C250 H253 0.930 . S
N251 Co231 2.194 . S
N251 C246 1.328 . S
N251 C250 1.315 . S
H252 C246 0.929 . S
H253 C250 0.930 . S
H254 C242 0.929 . S
H255 C244 0.929 . S
O256 Co231 2.351 . S
O256 C259 1.244 . S
O257 Co231 2.155 . S
O257 C259 1.240 . S
O258 Co231 2.098 . S
O258 C239 1.244 1_556 S
C259 O256 1.244 . S
C259 O257 1.240 . S
H260 C234 0.931 . S
H261 C243 0.931 . S
H262 C247 0.929 . S
H263 C249 0.930 . S
Co264 N268 2.148 1_554 S
Co264 N274 2.128 . S
Co264 N284 2.194 . S
Co264 O289 2.351 . S
Co264 O290 2.155 . S
Co264 O291 2.096 . S
C265 N268 1.301 . S
C265 N269 1.328 . S
C265 H270 0.930 . S
C266 C267 1.333 . S
C266 N268 1.317 . S
C266 H271 0.930 . S
C267 C266 1.333 . S
C267 N269 1.350 . S
C267 H293 0.931 . S
N268 Co264 2.148 1_556 S
N268 C265 1.301 . S
N268 C266 1.317 . S
N269 C265 1.328 . S
N269 C267 1.350 . S
H270 C265 0.930 . S
H271 C266 0.930 . S
C272 O273 1.224 . S
C272 O291 1.247 . S
O273 C272 1.224 . S
N274 Co264 2.128 . S
N274 C275 1.355 . S
N274 C277 1.311 . S
C275 N274 1.355 . S
C275 C276 1.363 . S
C275 H287 0.929 . S
C276 C275 1.363 . S
C276 N278 1.375 . S
C276 H294 0.931 . S
C277 N274 1.311 . S
C277 N278 1.347 . S
C277 H288 0.929 . S
N278 C276 1.375 . S
N278 C277 1.347 . S
C279 C282 1.365 . S
C279 N284 1.328 . S
C279 H285 0.929 . S
C280 C281 1.362 . S
C280 C283 1.378 . S
C280 H295 0.929 . S
C281 C280 1.362 . S
C281 C282 1.366 . S
C282 C279 1.365 . S
C282 C281 1.366 . S
C282 H296 0.930 . S
C283 C280 1.378 . S
C283 N284 1.315 . S
C283 H286 0.930 . S
N284 Co264 2.194 . S
N284 C279 1.328 . S
N284 C283 1.315 . S
H285 C279 0.929 . S
H286 C283 0.930 . S
H287 C275 0.929 . S
H288 C277 0.929 . S
O289 Co264 2.351 . S
O289 C292 1.244 . S
O290 Co264 2.155 . S
O290 C292 1.240 . S
O291 Co264 2.096 . S
O291 C272 1.247 . S
C292 O289 1.244 . S
C292 O290 1.240 . S
H293 C267 0.931 . S
H294 C276 0.931 . S
H295 C280 0.929 . S
H296 C282 0.930 . S
Co297 N301 2.148 . S
Co297 N307 2.128 . S
Co297 N317 2.194 . S
Co297 O322 2.351 . S
Co297 O323 2.155 . S
Co297 O324 2.096 . S
C298 N301 1.301 . S
C298 N302 1.328 1_554 S
C298 H303 0.930 . S
C299 C300 1.333 . S
C299 N301 1.317 . S
C299 H304 0.930 . S
C300 C299 1.333 . S
C300 N302 1.350 1_554 S
C300 H326 0.931 1_554 S
N301 Co297 2.148 . S
N301 C298 1.301 . S
N301 C299 1.317 . S
N302 C298 1.328 1_556 S
N302 C300 1.350 1_556 S
H303 C298 0.930 . S
H304 C299 0.930 . S
C305 O306 1.224 . S
C305 O324 1.247 . S
O306 C305 1.224 . S
N307 Co297 2.128 . S
N307 C308 1.355 . S
N307 C310 1.311 . S
C308 N307 1.355 . S
C308 C309 1.363 . S
C308 H320 0.929 . S
C309 C308 1.363 . S
C309 N311 1.375 . S
C309 H327 0.931 . S
C310 N307 1.311 . S
C310 N311 1.347 . S
C310 H321 0.929 . S
N311 C309 1.375 . S
N311 C310 1.347 . S
C312 C315 1.365 . S
C312 N317 1.328 . S
C312 H318 0.929 . S
C313 C314 1.362 . S
C313 C316 1.378 . S
C313 H328 0.929 . S
C314 C313 1.362 . S
C314 C315 1.366 . S
C315 C312 1.365 . S
C315 C314 1.366 . S
C315 H329 0.930 . S
C316 C313 1.378 . S
C316 N317 1.315 . S
C316 H319 0.930 . S
N317 Co297 2.194 . S
N317 C312 1.328 . S
N317 C316 1.315 . S
H318 C312 0.929 . S
H319 C316 0.930 . S
H320 C308 0.929 . S
H321 C310 0.929 . S
O322 Co297 2.351 . S
O322 C325 1.244 . S
O323 Co297 2.155 . S
O323 C325 1.240 . S
O324 Co297 2.096 . S
O324 C305 1.247 . S
C325 O322 1.244 . S
C325 O323 1.240 . S
H326 C300 0.931 1_556 S
H327 C309 0.931 . S
H328 C313 0.929 . S
H329 C315 0.930 . S
Co330 N334 2.148 . S
Co330 N340 2.128 . S
Co330 N350 2.194 . S
Co330 O355 2.351 . S
Co330 O356 2.155 . S
Co330 O357 2.096 . S
C331 N334 1.301 . S
C331 N335 1.328 . S
C331 H336 0.930 . S
C332 C333 1.333 . S
C332 N334 1.317 . S
C332 H337 0.930 . S
C333 C332 1.333 . S
C333 N335 1.350 . S
C333 H359 0.931 . S
N334 Co330 2.148 . S
N334 C331 1.301 . S
N334 C332 1.317 . S
N335 C331 1.328 . S
N335 C333 1.350 . S
H336 C331 0.930 . S
H337 C332 0.930 . S
C338 O339 1.224 . S
C338 O357 1.247 . S
O339 C338 1.224 . S
N340 Co330 2.128 . S
N340 C341 1.355 . S
N340 C343 1.311 . S
C341 N340 1.355 . S
C341 C342 1.363 . S
C341 H353 0.929 . S
C342 C341 1.363 . S
C342 N344 1.375 . S
C342 H360 0.931 . S
C343 N340 1.311 . S
C343 N344 1.347 . S
C343 H354 0.929 . S
N344 C342 1.375 . S
N344 C343 1.347 . S
C345 C348 1.365 . S
C345 N350 1.328 . S
C345 H351 0.929 . S
C346 C347 1.362 . S
C346 C349 1.378 . S
C346 H361 0.929 . S
C347 C346 1.362 . S
C347 C348 1.366 . S
C348 C345 1.365 . S
C348 C347 1.366 . S
C348 H362 0.930 . S
C349 C346 1.378 . S
C349 N350 1.315 . S
C349 H352 0.930 . S
N350 Co330 2.194 . S
N350 C345 1.328 . S
N350 C349 1.315 . S
H351 C345 0.929 . S
H352 C349 0.930 . S
H353 C341 0.929 . S
H354 C343 0.929 . S
O355 Co330 2.351 . S
O355 C358 1.244 . S
O356 Co330 2.155 . S
O356 C358 1.240 . S
O357 Co330 2.096 . S
O357 C338 1.247 . S
C358 O355 1.244 . S
C358 O356 1.240 . S
H359 C333 0.931 . S
H360 C342 0.931 . S
H361 C346 0.929 . S
H362 C348 0.930 . S
Co363 N367 2.148 . S
Co363 N373 2.128 . S
Co363 N383 2.194 . S
Co363 O388 2.351 . S
Co363 O389 2.155 . S
Co363 O390 2.096 . S
C364 N367 1.301 . S
C364 N368 1.328 . S
C364 H369 0.930 . S
C365 C366 1.333 . S
C365 N367 1.317 . S
C365 H370 0.930 . S
C366 C365 1.333 . S
C366 N368 1.350 . S
C366 H392 0.931 . S
N367 Co363 2.148 . S
N367 C364 1.301 . S
N367 C365 1.317 . S
N368 C364 1.328 . S
N368 C366 1.350 . S
H369 C364 0.930 . S
H370 C365 0.930 . S
C371 O372 1.224 . S
C371 O390 1.247 . S
O372 C371 1.224 . S
N373 Co363 2.128 . S
N373 C374 1.355 . S
N373 C376 1.311 . S
C374 N373 1.355 . S
C374 C375 1.363 . S
C374 H386 0.929 . S
C375 C374 1.363 . S
C375 N377 1.375 . S
C375 H393 0.931 . S
C376 N373 1.311 . S
C376 N377 1.347 . S
C376 H387 0.929 . S
N377 C375 1.375 . S
N377 C376 1.347 . S
C378 C381 1.365 . S
C378 N383 1.328 . S
C378 H384 0.929 . S
C379 C380 1.362 . S
C379 C382 1.378 . S
C379 H394 0.929 . S
C380 C379 1.362 . S
C380 C381 1.366 . S
C381 C378 1.365 . S
C381 C380 1.366 . S
C381 H395 0.930 . S
C382 C379 1.378 . S
C382 N383 1.315 . S
C382 H385 0.930 . S
N383 Co363 2.194 . S
N383 C378 1.328 . S
N383 C382 1.315 . S
H384 C378 0.929 . S
H385 C382 0.930 . S
H386 C374 0.929 . S
H387 C376 0.929 . S
O388 Co363 2.351 . S
O388 C391 1.244 . S
O389 Co363 2.155 . S
O389 C391 1.240 . S
O390 Co363 2.096 . S
O390 C371 1.247 . S
C391 O388 1.244 . S
C391 O389 1.240 . S
H392 C366 0.931 . S
H393 C375 0.931 . S
H394 C379 0.929 . S
H395 C381 0.930 . S
C396 C397 1.363 . S
C396 C402 1.379 . S
C396 N404 1.356 1_554 S
C397 C396 1.363 . S
C397 C403 1.363 . S
C398 C399 1.363 . S
C398 C403 1.379 . S
C398 N405 1.356 . S
C399 C398 1.363 . S
C399 C402 1.363 . S
N400 C402 1.356 1_556 S
N400 H412 0.984 . S
N400 H413 0.985 . S
N401 C403 1.356 . S
N401 H406 0.984 . S
N401 H407 0.985 . S
C402 C396 1.379 . S
C402 C399 1.363 . S
C402 N400 1.356 1_554 S
C403 C397 1.363 . S
C403 C398 1.379 . S
C403 N401 1.356 . S
N404 C396 1.356 1_556 S
N404 H410 0.984 . S
N404 H411 0.984 . S
N405 C398 1.356 . S
N405 H408 0.984 . S
N405 H409 0.985 . S
H406 N401 0.984 . S
H407 N401 0.985 . S
H408 N405 0.984 . S
H409 N405 0.985 . S
H410 N404 0.984 . S
H411 N404 0.984 . S
H412 N400 0.984 . S
H413 N400 0.985 . S
C414 C415 1.363 . S
C414 C420 1.379 . S
C414 N422 1.356 . S
C415 C414 1.363 . S
C415 C421 1.363 . S
C416 C417 1.363 . S
C416 C421 1.379 . S
C416 N423 1.356 . S
C417 C416 1.363 . S
C417 C420 1.363 . S
N418 C420 1.356 . S
N418 H430 0.984 . S
N418 H431 0.985 . S
N419 C421 1.356 . S
N419 H424 0.984 . S
N419 H425 0.985 . S
C420 C414 1.379 . S
C420 C417 1.363 . S
C420 N418 1.356 . S
C421 C415 1.363 . S
C421 C416 1.379 . S
C421 N419 1.356 . S
N422 C414 1.356 . S
N422 H428 0.984 . S
N422 H429 0.984 . S
N423 C416 1.356 . S
N423 H426 0.984 . S
N423 H427 0.985 . S
H424 N419 0.984 . S
H425 N419 0.985 . S
H426 N423 0.984 . S
H427 N423 0.985 . S
H428 N422 0.984 . S
H429 N422 0.984 . S
H430 N418 0.984 . S
H431 N418 0.985 . S
C432 C433 1.363 . S
C432 C438 1.379 . S
C432 N440 1.356 . S
C433 C432 1.363 . S
C433 C439 1.363 . S
C434 C435 1.363 . S
C434 C439 1.379 . S
C434 N441 1.356 . S
C435 C434 1.363 . S
C435 C438 1.363 . S
N436 C438 1.356 . S
N436 H448 0.984 . S
N436 H449 0.985 . S
N437 C439 1.356 . S
N437 H442 0.984 . S
N437 H443 0.985 . S
C438 C432 1.379 . S
C438 C435 1.363 . S
C438 N436 1.356 . S
C439 C433 1.363 . S
C439 C434 1.379 . S
C439 N437 1.356 . S
N440 C432 1.356 . S
N440 H446 0.984 . S
N440 H447 0.984 . S
N441 C434 1.356 . S
N441 H444 0.984 . S
N441 H445 0.985 . S
H442 N437 0.984 . S
H443 N437 0.985 . S
H444 N441 0.984 . S
H445 N441 0.985 . S
H446 N440 0.984 . S
H447 N440 0.984 . S
H448 N436 0.984 . S
H449 N436 0.985 . S
C450 C451 1.363 . S
C450 C456 1.379 . S
C450 N458 1.356 . S
C451 C450 1.363 . S
C451 C457 1.363 . S
C452 C453 1.363 . S
C452 C457 1.379 . S
C452 N459 1.356 . S
C453 C452 1.363 . S
C453 C456 1.363 . S
N454 C456 1.356 . S
N454 H466 0.984 . S
N454 H467 0.985 . S
N455 C457 1.356 . S
N455 H460 0.984 . S
N455 H461 0.985 . S
C456 C450 1.379 . S
C456 C453 1.363 . S
C456 N454 1.356 . S
C457 C451 1.363 . S
C457 C452 1.379 . S
C457 N455 1.356 . S
N458 C450 1.356 . S
N458 H464 0.984 . S
N458 H465 0.984 . S
N459 C452 1.356 . S
N459 H462 0.984 . S
N459 H463 0.985 . S
H460 N455 0.984 . S
H461 N455 0.985 . S
H462 N459 0.984 . S
H463 N459 0.985 . S
H464 N458 0.984 . S
H465 N458 0.984 . S
H466 N454 0.984 . S
H467 N454 0.985 . S
C468 C469 1.363 . S
C468 C474 1.379 . S
C468 N476 1.356 . S
C469 C468 1.363 . S
C469 C475 1.363 . S
C470 C471 1.363 . S
C470 C475 1.379 . S
C470 N477 1.356 . S
C471 C470 1.363 . S
C471 C474 1.363 . S
N472 C474 1.356 . S
N472 H484 0.984 . S
N472 H485 0.985 . S
N473 C475 1.356 . S
N473 H478 0.984 . S
N473 H479 0.985 . S
C474 C468 1.379 . S
C474 C471 1.363 . S
C474 N472 1.356 . S
C475 C469 1.363 . S
C475 C470 1.379 . S
C475 N473 1.356 . S
N476 C468 1.356 . S
N476 H482 0.984 . S
N476 H483 0.984 . S
N477 C470 1.356 . S
N477 H480 0.984 . S
N477 H481 0.985 . S
H478 N473 0.984 . S
H479 N473 0.985 . S
H480 N477 0.984 . S
H481 N477 0.985 . S
H482 N476 0.984 . S
H483 N476 0.984 . S
H484 N472 0.984 . S
H485 N472 0.985 . S
C486 C487 1.363 . S
C486 C492 1.379 . S
C486 N494 1.356 . S
C487 C486 1.363 . S
C487 C493 1.363 . S
C488 C489 1.363 . S
C488 C493 1.379 . S
C488 N495 1.356 1_556 S
C489 C488 1.363 . S
C489 C492 1.363 . S
N490 C492 1.356 . S
N490 H502 0.984 . S
N490 H503 0.985 . S
N491 C493 1.356 1_554 S
N491 H496 0.984 . S
N491 H497 0.985 . S
C492 C486 1.379 . S
C492 C489 1.363 . S
C492 N490 1.356 . S
C493 C487 1.363 . S
C493 C488 1.379 . S
C493 N491 1.356 1_556 S
N494 C486 1.356 . S
N494 H500 0.984 . S
N494 H501 0.984 . S
N495 C488 1.356 1_554 S
N495 H498 0.984 . S
N495 H499 0.985 . S
H496 N491 0.984 . S
H497 N491 0.985 . S
H498 N495 0.984 . S
H499 N495 0.985 . S
H500 N494 0.984 . S
H501 N494 0.984 . S
H502 N490 0.984 . S
H503 N490 0.985 . S
C504 C505 1.363 . S
C504 C510 1.379 1_455 S
C504 N512 1.356 . S
C505 C504 1.363 . S
C505 C511 1.363 . S
C506 C507 1.363 . S
C506 C511 1.379 1_655 S
C506 N513 1.356 . S
C507 C506 1.363 . S
C507 C510 1.363 . S
N508 C510 1.356 . S
N508 H520 0.984 . S
N508 H521 0.985 . S
N509 C511 1.356 . S
N509 H514 0.984 . S
N509 H515 0.985 . S
C510 C504 1.379 1_655 S
C510 C507 1.363 . S
C510 N508 1.356 . S
C511 C505 1.363 . S
C511 C506 1.379 1_455 S
C511 N509 1.356 . S
N512 C504 1.356 . S
N512 H518 0.984 . S
N512 H519 0.984 . S
N513 C506 1.356 . S
N513 H516 0.984 . S
N513 H517 0.985 . S
H514 N509 0.984 . S
H515 N509 0.985 . S
H516 N513 0.984 . S
H517 N513 0.985 . S
H518 N512 0.984 . S
H519 N512 0.984 . S
H520 N508 0.984 . S
H521 N508 0.985 . S
C522 C523 1.363 1_545 S
C522 C528 1.379 . S
C522 N530 1.356 . S
C523 C522 1.363 1_565 S
C523 C529 1.363 1_556 S
C524 C525 1.363 1_565 S
C524 C529 1.379 . S
C524 N531 1.356 . S
C525 C524 1.363 1_545 S
C525 C528 1.363 1_554 S
N526 C528 1.356 1_554 S
N526 H538 0.984 1_554 S
N526 H539 0.985 . S
N527 C529 1.356 1_556 S
N527 H532 0.984 . S
N527 H533 0.985 1_556 S
C528 C522 1.379 . S
C528 C525 1.363 1_556 S
C528 N526 1.356 1_556 S
C529 C523 1.363 1_554 S
C529 C524 1.379 . S
C529 N527 1.356 1_554 S
N530 C522 1.356 . S
N530 H536 0.984 . S
N530 H537 0.984 1_545 S
N531 C524 1.356 . S
N531 H534 0.984 1_565 S
N531 H535 0.985 . S
H532 N527 0.984 . S
H533 N527 0.985 1_554 S
H534 N531 0.984 1_545 S
H535 N531 0.985 . S
H536 N530 0.984 . S
H537 N530 0.984 1_565 S
H538 N526 0.984 1_556 S
H539 N526 0.985 . S
C540 C541 1.363 . S
C540 C546 1.379 . S
C540 N548 1.356 . S
C541 C540 1.363 . S
C541 C547 1.363 . S
C542 C543 1.363 . S
C542 C547 1.379 . S
C542 N549 1.356 . S
C543 C542 1.363 . S
C543 C546 1.363 . S
N544 C546 1.356 1_556 S
N544 H556 0.984 . S
N544 H557 0.985 . S
N545 C547 1.356 . S
N545 H550 0.984 . S
N545 H551 0.985 . S
C546 C540 1.379 . S
C546 C543 1.363 . S
C546 N544 1.356 1_554 S
C547 C541 1.363 . S
C547 C542 1.379 . S
C547 N545 1.356 . S
N548 C540 1.356 . S
N548 H554 0.984 . S
N548 H555 0.984 . S
N549 C542 1.356 . S
N549 H552 0.984 . S
N549 H553 0.985 . S
H550 N545 0.984 . S
H551 N545 0.985 . S
H552 N549 0.984 . S
H553 N549 0.985 . S
H554 N548 0.984 . S
H555 N548 0.984 . S
H556 N544 0.984 . S
H557 N544 0.985 . S
C558 C559 1.363 . S
C558 C564 1.379 1_655 S
C558 N566 1.356 . S
C559 C558 1.363 . S
C559 C565 1.363 . S
C560 C561 1.363 . S
C560 C565 1.379 1_455 S
C560 N567 1.356 . S
C561 C560 1.363 . S
C561 C564 1.363 . S
N562 C564 1.356 . S
N562 H574 0.984 . S
N562 H575 0.985 . S
N563 C565 1.356 . S
N563 H568 0.984 . S
N563 H569 0.985 . S
C564 C558 1.379 1_455 S
C564 C561 1.363 . S
C564 N562 1.356 . S
C565 C559 1.363 . S
C565 C560 1.379 1_655 S
C565 N563 1.356 . S
N566 C558 1.356 . S
N566 H572 0.982 . S
N566 H573 0.984 . S
N567 C560 1.356 . S
N567 H570 0.984 . S
N567 H571 0.982 . S
H568 N563 0.984 . S
H569 N563 0.985 . S
H570 N567 0.984 . S
H571 N567 0.982 . S
H572 N566 0.982 . S
H573 N566 0.984 . S
H574 N562 0.984 . S
H575 N562 0.985 . S
C576 C577 1.363 . S
C576 C582 1.379 1_545 S
C576 N584 1.356 . S
C577 C576 1.363 . S
C577 C583 1.363 . S
C578 C579 1.363 . S
C578 C583 1.379 1_565 S
C578 N585 1.356 . S
C579 C578 1.363 . S
C579 C582 1.363 . S
N580 C582 1.356 . S
N580 H592 0.984 . S
N580 H593 0.985 . S
N581 C583 1.356 . S
N581 H586 0.984 . S
N581 H587 0.985 . S
C582 C576 1.379 1_565 S
C582 C579 1.363 . S
C582 N580 1.356 . S
C583 C577 1.363 . S
C583 C578 1.379 1_545 S
C583 N581 1.356 . S
N584 C576 1.356 . S
N584 H590 0.984 . S
N584 H591 0.984 . S
N585 C578 1.356 . S
N585 H588 0.984 . S
N585 H589 0.985 . S
H586 N581 0.984 . S
H587 N581 0.985 . S
H588 N585 0.984 . S
H589 N585 0.985 . S
H590 N584 0.984 . S
H591 N584 0.984 . S
H592 N580 0.984 . S
H593 N580 0.985 . S
C594 C595 1.363 . S
C594 C600 1.379 . S
C594 N602 1.356 . S
C595 C594 1.363 . S
C595 C601 1.363 . S
C596 C597 1.363 . S
C596 C601 1.379 . S
C596 N603 1.356 . S
C597 C596 1.363 . S
C597 C600 1.363 . S
N598 C600 1.356 . S
N598 H610 0.984 . S
N598 H611 0.985 . S
N599 C601 1.356 . S
N599 H604 0.984 . S
N599 H605 0.985 . S
C600 C594 1.379 . S
C600 C597 1.363 . S
C600 N598 1.356 . S
C601 C595 1.363 . S
C601 C596 1.379 . S
C601 N599 1.356 . S
N602 C594 1.356 . S
N602 H608 0.984 . S
N602 H609 0.984 . S
N603 C596 1.356 . S
N603 H606 0.984 . S
N603 H607 0.985 . S
H604 N599 0.984 . S
H605 N599 0.985 . S
H606 N603 0.984 . S
H607 N603 0.985 . S
H608 N602 0.984 . S
H609 N602 0.984 . S
H610 N598 0.984 . S
H611 N598 0.985 . S
C612 C613 1.363 . S
C612 C618 1.379 . S
C612 N620 1.356 . S
C613 C612 1.363 . S
C613 C619 1.363 . S
C614 C615 1.363 . S
C614 C619 1.379 . S
C614 N621 1.356 . S
C615 C614 1.363 . S
C615 C618 1.363 . S
N616 C618 1.356 . S
N616 H628 0.984 . S
N616 H629 0.985 . S
N617 C619 1.356 . S
N617 H622 0.984 . S
N617 H623 0.985 . S
C618 C612 1.379 . S
C618 C615 1.363 . S
C618 N616 1.356 . S
C619 C613 1.363 . S
C619 C614 1.379 . S
C619 N617 1.356 . S
N620 C612 1.356 . S
N620 H626 0.984 . S
N620 H627 0.984 . S
N621 C614 1.356 . S
N621 H624 0.984 . S
N621 H625 0.985 . S
H622 N617 0.984 . S
H623 N617 0.985 . S
H624 N621 0.984 . S
H625 N621 0.985 . S
H626 N620 0.984 . S
H627 N620 0.984 . S
H628 N616 0.984 . S
H629 N616 0.985 . S
C630 C631 1.363 . S
C630 C636 1.379 . S
C630 N638 1.356 . S
C631 C630 1.363 . S
C631 C637 1.363 . S
C632 C633 1.363 . S
C632 C637 1.379 . S
C632 N639 1.356 . S
C633 C632 1.363 . S
C633 C636 1.363 . S
N634 C636 1.356 . S
N634 H646 0.984 . S
N634 H647 0.985 . S
N635 C637 1.356 . S
N635 H640 0.984 . S
N635 H641 0.985 . S
C636 C630 1.379 . S
C636 C633 1.363 . S
C636 N634 1.356 . S
C637 C631 1.363 . S
C637 C632 1.379 . S
C637 N635 1.356 . S
N638 C630 1.356 . S
N638 H644 0.984 . S
N638 H645 0.984 . S
N639 C632 1.356 . S
N639 H642 0.984 . S
N639 H643 0.985 . S
H640 N635 0.984 . S
H641 N635 0.985 . S
H642 N639 0.984 . S
H643 N639 0.985 . S
H644 N638 0.984 . S
H645 N638 0.984 . S
H646 N634 0.984 . S
H647 N634 0.985 . S
C648 C649 1.363 . S
C648 C654 1.379 . S
C648 N656 1.356 . S
C649 C648 1.363 . S
C649 C655 1.363 . S
C650 C651 1.363 . S
C650 C655 1.379 . S
C650 N657 1.356 . S
C651 C650 1.363 . S
C651 C654 1.363 . S
N652 C654 1.356 . S
N652 H664 0.984 . S
N652 H665 0.985 . S
N653 C655 1.356 . S
N653 H658 0.984 . S
N653 H659 0.985 . S
C654 C648 1.379 . S
C654 C651 1.363 . S
C654 N652 1.356 . S
C655 C649 1.363 . S
C655 C650 1.379 . S
C655 N653 1.356 . S
N656 C648 1.356 . S
N656 H662 0.984 . S
N656 H663 0.984 . S
N657 C650 1.356 . S
N657 H660 0.984 . S
N657 H661 0.985 . S
H658 N653 0.984 . S
H659 N653 0.985 . S
H660 N657 0.984 . S
H661 N657 0.985 . S
H662 N656 0.984 . S
H663 N656 0.984 . S
H664 N652 0.984 . S
H665 N652 0.985 . S
C666 C667 1.363 . S
C666 C672 1.379 . S
C666 N674 1.356 . S
C667 C666 1.363 . S
C667 C673 1.363 . S
C668 C669 1.363 . S
C668 C673 1.379 . S
C668 N675 1.356 . S
C669 C668 1.363 . S
C669 C672 1.363 . S
N670 C672 1.356 . S
N670 H682 0.984 . S
N670 H683 0.985 . S
N671 C673 1.356 . S
N671 H676 0.984 . S
N671 H677 0.985 . S
C672 C666 1.379 . S
C672 C669 1.363 . S
C672 N670 1.356 . S
C673 C667 1.363 . S
C673 C668 1.379 . S
C673 N671 1.356 . S
N674 C666 1.356 . S
N674 H680 0.984 . S
N674 H681 0.984 . S
N675 C668 1.356 . S
N675 H678 0.984 . S
N675 H679 0.985 . S
H676 N671 0.984 . S
H677 N671 0.985 . S
H678 N675 0.984 . S
H679 N675 0.985 . S
H680 N674 0.984 . S
H681 N674 0.984 . S
H682 N670 0.984 . S
H683 N670 0.985 . S
C684 C685 1.363 . S
C684 C690 1.379 1_556 S
C684 N692 1.356 . S
C685 C684 1.363 . S
C685 C691 1.363 . S
C686 C687 1.363 . S
C686 C691 1.379 . S
C686 N693 1.356 . S
C687 C686 1.363 . S
C687 C690 1.363 1_556 S
N688 C690 1.356 . S
N688 H700 0.984 . S
N688 H701 0.985 . S
N689 C691 1.356 . S
N689 H694 0.984 . S
N689 H695 0.985 . S
C690 C684 1.379 1_554 S
C690 C687 1.363 1_554 S
C690 N688 1.356 . S
C691 C685 1.363 . S
C691 C686 1.379 . S
C691 N689 1.356 . S
N692 C684 1.356 . S
N692 H698 0.984 . S
N692 H699 0.984 . S
N693 C686 1.356 . S
N693 H696 0.984 . S
N693 H697 0.985 . S
H694 N689 0.984 . S
H695 N689 0.985 . S
H696 N693 0.984 . S
H697 N693 0.985 . S
H698 N692 0.984 . S
H699 N692 0.984 . S
H700 N688 0.984 . S
H701 N688 0.985 . S
C702 C703 1.363 . S
C702 C708 1.379 . S
C702 N710 1.356 . S
C703 C702 1.363 . S
C703 C709 1.363 . S
C704 C705 1.363 1_556 S
C704 C709 1.379 1_556 S
C704 N711 1.356 . S
C705 C704 1.363 1_554 S
C705 C708 1.363 . S
N706 C708 1.356 . S
N706 H718 0.984 . S
N706 H719 0.985 . S
N707 C709 1.356 . S
N707 H712 0.984 . S
N707 H713 0.985 . S
C708 C702 1.379 . S
C708 C705 1.363 . S
C708 N706 1.356 . S
C709 C703 1.363 . S
C709 C704 1.379 1_554 S
C709 N707 1.356 . S
N710 C702 1.356 . S
N710 H716 0.984 . S
N710 H717 0.984 . S
N711 C704 1.356 . S
N711 H714 0.984 . S
N711 H715 0.985 . S
H712 N707 0.984 . S
H713 N707 0.985 . S
H714 N711 0.984 . S
H715 N711 0.985 . S
H716 N710 0.984 . S
H717 N710 0.984 . S
H718 N706 0.984 . S
H719 N706 0.985 . S
C720 C721 1.363 . S
C720 C726 1.379 . S
C720 N728 1.356 . S
C721 C720 1.363 . S
C721 C727 1.363 . S
C722 C723 1.363 . S
C722 C727 1.379 . S
C722 N729 1.356 . S
C723 C722 1.363 . S
C723 C726 1.363 . S
N724 C726 1.356 . S
N724 H736 0.984 . S
N724 H737 0.985 . S
N725 C727 1.356 . S
N725 H730 0.984 . S
N725 H731 0.985 . S
C726 C720 1.379 . S
C726 C723 1.363 . S
C726 N724 1.356 . S
C727 C721 1.363 . S
C727 C722 1.379 . S
C727 N725 1.356 . S
N728 C720 1.356 . S
N728 H734 0.984 . S
N728 H735 0.984 . S
N729 C722 1.356 . S
N729 H732 0.984 . S
N729 H733 0.985 . S
H730 N725 0.984 . S
H731 N725 0.985 . S
H732 N729 0.984 . S
H733 N729 0.985 . S
H734 N728 0.984 . S
H735 N728 0.984 . S
H736 N724 0.984 . S
H737 N724 0.985 . S
C738 C739 1.363 . S
C738 C744 1.379 . S
C738 N746 1.356 . S
C739 C738 1.363 . S
C739 C745 1.363 . S
C740 C741 1.363 . S
C740 C745 1.379 . S
C740 N747 1.356 . S
C741 C740 1.363 . S
C741 C744 1.363 . S
N742 C744 1.356 . S
N742 H754 0.984 . S
N742 H755 0.985 . S
N743 C745 1.356 . S
N743 H748 0.984 . S
N743 H749 0.985 . S
C744 C738 1.379 . S
C744 C741 1.363 . S
C744 N742 1.356 . S
C745 C739 1.363 . S
C745 C740 1.379 . S
C745 N743 1.356 . S
N746 C738 1.356 . S
N746 H752 0.984 . S
N746 H753 0.984 . S
N747 C740 1.356 . S
N747 H750 0.984 . S
N747 H751 0.985 . S
H748 N743 0.984 . S
H749 N743 0.985 . S
H750 N747 0.984 . S
H751 N747 0.985 . S
H752 N746 0.984 . S
H753 N746 0.984 . S
H754 N742 0.984 . S
H755 N742 0.985 . S
C756 C757 1.363 . S
C756 C762 1.379 . S
C756 N764 1.356 . S
C757 C756 1.363 . S
C757 C763 1.363 . S
C758 C759 1.363 . S
C758 C763 1.379 . S
C758 N765 1.356 1_556 S
C759 C758 1.363 . S
C759 C762 1.363 . S
N760 C762 1.356 . S
N760 H772 0.984 . S
N760 H773 0.985 1_556 S
N761 C763 1.356 . S
N761 H766 0.984 . S
N761 H767 0.985 . S
C762 C756 1.379 . S
C762 C759 1.363 . S
C762 N760 1.356 . S
C763 C757 1.363 . S
C763 C758 1.379 . S
C763 N761 1.356 . S
N764 C756 1.356 . S
N764 H770 0.984 . S
N764 H771 0.984 . S
N765 C758 1.356 1_554 S
N765 H768 0.984 . S
N765 H769 0.985 . S
H766 N761 0.984 . S
H767 N761 0.985 . S
H768 N765 0.984 . S
H769 N765 0.985 . S
H770 N764 0.984 . S
H771 N764 0.984 . S
H772 N760 0.984 . S
H773 N760 0.985 1_554 S
C774 C775 1.363 1_554 S
C774 C780 1.379 . S
C774 N782 1.356 1_554 S
C775 C774 1.363 1_556 S
C775 C781 1.363 . S
C776 C777 1.363 . S
C776 C781 1.379 1_554 S
C776 N783 1.356 . S
C777 C776 1.363 . S
C777 C780 1.363 . S
N778 C780 1.356 . S
N778 H790 0.984 . S
N778 H791 0.985 . S
N779 C781 1.356 . S
N779 H784 0.984 . S
N779 H785 0.985 . S
C780 C774 1.379 . S
C780 C777 1.363 . S
C780 N778 1.356 . S
C781 C775 1.363 . S
C781 C776 1.379 1_556 S
C781 N779 1.356 . S
N782 C774 1.356 1_556 S
N782 H788 0.984 1_556 S
N782 H789 0.984 . S
N783 C776 1.356 . S
N783 H786 0.984 . S
N783 H787 0.985 . S
H784 N779 0.984 . S
H785 N779 0.985 . S
H786 N783 0.984 . S
H787 N783 0.985 . S
H788 N782 0.984 1_554 S
H789 N782 0.984 . S
H790 N778 0.984 . S
H791 N778 0.985 . S
C792 C793 1.363 . S
C792 C798 1.379 . S
C792 N800 1.356 . S
C793 C792 1.363 . S
C793 C799 1.363 . S
C794 C795 1.363 . S
C794 C799 1.379 . S
C794 N801 1.356 . S
C795 C794 1.363 . S
C795 C798 1.363 . S
N796 C798 1.356 . S
N796 H808 0.984 . S
N796 H809 0.985 . S
N797 C799 1.356 . S
N797 H802 0.984 . S
N797 H803 0.985 . S
C798 C792 1.379 . S
C798 C795 1.363 . S
C798 N796 1.356 . S
C799 C793 1.363 . S
C799 C794 1.379 . S
C799 N797 1.356 . S
N800 C792 1.356 . S
N800 H806 0.984 . S
N800 H807 0.984 . S
N801 C794 1.356 . S
N801 H804 0.984 . S
N801 H805 0.985 . S
H802 N797 0.984 . S
H803 N797 0.985 . S
H804 N801 0.984 . S
H805 N801 0.985 . S
H806 N800 0.984 . S
H807 N800 0.984 . S
H808 N796 0.984 . S
H809 N796 0.985 . S
C810 C811 1.363 . S
C810 C816 1.379 . S
C810 N818 1.356 . S
C811 C810 1.363 . S
C811 C817 1.363 . S
C812 C813 1.363 . S
C812 C817 1.379 . S
C812 N819 1.356 . S
C813 C812 1.363 . S
C813 C816 1.363 . S
N814 C816 1.356 . S
N814 H826 0.984 . S
N814 H827 0.985 . S
N815 C817 1.356 . S
N815 H820 0.984 . S
N815 H821 0.985 . S
C816 C810 1.379 . S
C816 C813 1.363 . S
C816 N814 1.356 . S
C817 C811 1.363 . S
C817 C812 1.379 . S
C817 N815 1.356 . S
N818 C810 1.356 . S
N818 H824 0.984 . S
N818 H825 0.984 . S
N819 C812 1.356 . S
N819 H822 0.984 . S
N819 H823 0.985 . S
H820 N815 0.984 . S
H821 N815 0.985 . S
H822 N819 0.984 . S
H823 N819 0.985 . S
H824 N818 0.984 . S
H825 N818 0.984 . S
H826 N814 0.984 . S
H827 N814 0.985 . S
C828 C829 1.363 . S
C828 C834 1.379 . S
C828 N836 1.356 . S
C829 C828 1.363 . S
C829 C835 1.363 . S
C830 C831 1.363 . S
C830 C835 1.379 . S
C830 N837 1.356 . S
C831 C830 1.363 . S
C831 C834 1.363 . S
N832 C834 1.356 . S
N832 H844 0.984 . S
N832 H845 0.985 . S
N833 C835 1.356 . S
N833 H838 0.984 . S
N833 H839 0.985 . S
C834 C828 1.379 . S
C834 C831 1.363 . S
C834 N832 1.356 . S
C835 C829 1.363 . S
C835 C830 1.379 . S
C835 N833 1.356 . S
N836 C828 1.356 . S
N836 H842 0.984 . S
N836 H843 0.984 . S
N837 C830 1.356 . S
N837 H840 0.984 . S
N837 H841 0.985 . S
H838 N833 0.984 . S
H839 N833 0.985 . S
H840 N837 0.984 . S
H841 N837 0.985 . S
H842 N836 0.984 . S
H843 N836 0.984 . S
H844 N832 0.984 . S
H845 N832 0.985 . S
C846 C847 1.363 . S
C846 C852 1.379 . S
C846 N854 1.356 . S
C847 C846 1.363 . S
C847 C853 1.363 . S
C848 C849 1.363 . S
C848 C853 1.379 . S
C848 N855 1.356 . S
C849 C848 1.363 . S
C849 C852 1.363 . S
N850 C852 1.356 . S
N850 H862 0.984 . S
N850 H863 0.985 . S
N851 C853 1.356 . S
N851 H856 0.984 . S
N851 H857 0.985 . S
C852 C846 1.379 . S
C852 C849 1.363 . S
C852 N850 1.356 . S
C853 C847 1.363 . S
C853 C848 1.379 . S
C853 N851 1.356 . S
N854 C846 1.356 . S
N854 H860 0.984 . S
N854 H861 0.984 . S
N855 C848 1.356 . S
N855 H858 0.984 . S
N855 H859 0.985 . S
H856 N851 0.984 . S
H857 N851 0.985 . S
H858 N855 0.984 . S
H859 N855 0.985 . S
H860 N854 0.984 . S
H861 N854 0.984 . S
H862 N850 0.984 . S
H863 N850 0.985 . S
C864 C865 1.363 . S
C864 C870 1.379 . S
C864 N872 1.356 . S
C865 C864 1.363 . S
C865 C871 1.363 . S
C866 C867 1.363 . S
C866 C871 1.379 . S
C866 N873 1.356 . S
C867 C866 1.363 . S
C867 C870 1.363 . S
N868 C870 1.356 . S
N868 H880 0.984 . S
N868 H881 0.985 . S
N869 C871 1.356 . S
N869 H874 0.984 . S
N869 H875 0.985 . S
C870 C864 1.379 . S
C870 C867 1.363 . S
C870 N868 1.356 . S
C871 C865 1.363 . S
C871 C866 1.379 . S
C871 N869 1.356 . S
N872 C864 1.356 . S
N872 H878 0.984 . S
N872 H879 0.984 . S
N873 C866 1.356 . S
N873 H876 0.984 . S
N873 H877 0.985 . S
H874 N869 0.984 . S
H875 N869 0.985 . S
H876 N873 0.984 . S
H877 N873 0.985 . S
H878 N872 0.984 . S
H879 N872 0.984 . S
H880 N868 0.984 . S
H881 N868 0.985 . S
C882 C883 1.363 . S
C882 C888 1.379 . S
C882 N890 1.356 . S
C883 C882 1.363 . S
C883 C889 1.363 . S
C884 C885 1.363 . S
C884 C889 1.379 . S
C884 N891 1.356 . S
C885 C884 1.363 . S
C885 C888 1.363 . S
N886 C888 1.356 . S
N886 H898 0.984 . S
N886 H899 0.985 . S
N887 C889 1.356 . S
N887 H892 0.984 . S
N887 H893 0.985 . S
C888 C882 1.379 . S
C888 C885 1.363 . S
C888 N886 1.356 . S
C889 C883 1.363 . S
C889 C884 1.379 . S
C889 N887 1.356 . S
N890 C882 1.356 . S
N890 H896 0.984 . S
N890 H897 0.984 . S
N891 C884 1.356 . S
N891 H894 0.981 1_556 S
N891 H895 0.985 . S
H892 N887 0.984 . S
H893 N887 0.985 . S
H894 N891 0.981 1_554 S
H895 N891 0.985 . S
H896 N890 0.984 . S
H897 N890 0.984 . S
H898 N886 0.984 . S
H899 N886 0.985 . S
C900 C901 1.363 . S
C900 C906 1.379 . S
C900 N908 1.356 . S
C901 C900 1.363 . S
C901 C907 1.363 . S
C902 C903 1.361 1_556 S
C902 C907 1.384 . S
C902 N909 1.352 1_556 S
C903 C902 1.361 1_554 S
C903 C906 1.363 1_554 S
N904 C906 1.356 1_554 S
N904 H916 0.984 . S
N904 H917 0.985 . S
N905 C907 1.356 . S
N905 H910 0.984 . S
N905 H911 0.985 . S
C906 C900 1.379 . S
C906 C903 1.363 1_556 S
C906 N904 1.356 1_556 S
C907 C901 1.363 . S
C907 C902 1.384 . S
C907 N905 1.356 . S
N908 C900 1.356 . S
N908 H914 0.984 . S
N908 H915 0.984 . S
N909 C902 1.352 1_554 S
N909 H912 0.984 . S
N909 H913 0.985 . S
H910 N905 0.984 . S
H911 N905 0.985 . S
H912 N909 0.984 . S
H913 N909 0.985 . S
H914 N908 0.984 . S
H915 N908 0.984 . S
H916 N904 0.984 . S
H917 N904 0.985 . S
C918 C919 1.363 . S
C918 C924 1.379 . S
C918 N926 1.356 . S
C919 C918 1.363 . S
C919 C925 1.363 . S
C920 C921 1.363 . S
C920 C925 1.379 . S
C920 N927 1.356 . S
C921 C920 1.363 . S
C921 C924 1.363 . S
N922 C924 1.356 1_556 S
N922 H934 0.984 . S
N922 H935 0.985 . S
N923 C925 1.356 . S
N923 H928 0.984 . S
N923 H929 0.985 . S
C924 C918 1.379 . S
C924 C921 1.363 . S
C924 N922 1.356 1_554 S
C925 C919 1.363 . S
C925 C920 1.379 . S
C925 N923 1.356 . S
N926 C918 1.356 . S
N926 H932 0.984 . S
N926 H933 0.984 . S
N927 C920 1.356 . S
N927 H930 0.984 1_554 S
N927 H931 0.985 . S
H928 N923 0.984 . S
H929 N923 0.985 . S
H930 N927 0.984 1_556 S
H931 N927 0.985 . S
H932 N926 0.984 . S
H933 N926 0.984 . S
H934 N922 0.984 . S
H935 N922 0.985 . S
C397 C281 1.598 . S
C399 C17 1.598 . S
C415 C314 1.598 . S
C417 C50 1.598 . S
C433 C347 1.598 . S
C435 C83 1.598 . S
C451 C380 1.598 . S
C453 C116 1.598 . S
C469 C149 1.598 . S
C471 C215 1.598 . S
C487 C248 1.598 . S
C489 C182 1.598 . S
C505 C8 1.365 . S
C507 C371 1.365 . S
C523 C206 1.366 . S
C525 C41 1.365 . S
C541 C74 1.365 . S
C543 C239 1.365 . S
C559 C107 1.365 . S
C561 C272 1.365 . S
C577 C305 1.365 . S
C579 C140 1.365 . S
C595 C173 1.365 . S
C597 C338 1.365 . S
C613 C28 1.515 . S
C615 C358 1.515 . S
C631 C61 1.515 . S
C633 C391 1.515 . S
C649 C226 1.515 . S
C651 C94 1.515 . S
C667 C259 1.515 . S
C669 C127 1.515 . S
C685 C160 1.515 . S
C687 C292 1.515 1_556 S
C703 C325 1.515 . S
C705 C193 1.515 1_554 S
C721 N5 1.269 . S
C723 N14 1.269 . S
C739 N47 1.269 . S
C741 N38 1.269 . S
C757 N71 1.269 . S
C759 N80 1.269 1_556 S
C775 N104 1.269 . S
C777 N113 1.269 . S
C793 N146 1.269 . S
C795 N137 1.269 . S
C811 N179 1.269 . S
C813 N170 1.269 . S
C829 N212 1.269 . S
C831 N203 1.269 . S
C847 N245 1.269 . S
C849 N236 1.269 . S
C865 N278 1.269 . S
C867 N269 1.269 . S
C883 N311 1.269 . S
C885 N302 1.269 . S
C901 N344 1.269 . S
C903 N335 1.269 . S
C919 N368 1.269 . S
C921 N377 1.269 1_554 S
