# Generated by pormake.
# Topology wiz, (3)-cn, num edge types: 1
# Building blocks:
#     Node 0, Type 0, BuildingBlock: OLANEW_clean_sbu_2, # of connection points: 3
#     Node 1, Type 0, BuildingBlock: OLANEW_clean_sbu_2, # of connection points: 3
#     Node 2, Type 0, BuildingBlock: OLANEW_clean_sbu_2, # of connection points: 3
#     Node 3, Type 0, BuildingBlock: OLANEW_clean_sbu_2, # of connection points: 3
#     Node 4, Type 0, BuildingBlock: OLANEW_clean_sbu_2, # of connection points: 3
#     Node 5, Type 0, BuildingBlock: OLANEW_clean_sbu_2, # of connection points: 3
#     Node 6, Type 0, BuildingBlock: OLANEW_clean_sbu_2, # of connection points: 3
#     Node 7, Type 0, BuildingBlock: OLANEW_clean_sbu_2, # of connection points: 3
#     Node 8, Type 0, BuildingBlock: OLANEW_clean_sbu_2, # of connection points: 3
#     Node 9, Type 0, BuildingBlock: OLANEW_clean_sbu_2, # of connection points: 3
#     Node 10, Type 0, BuildingBlock: OLANEW_clean_sbu_2, # of connection points: 3
#     Node 11, Type 0, BuildingBlock: OLANEW_clean_sbu_2, # of connection points: 3
#     Edge 12, Type (0, 0), BuildingBlock: FUNLAD_clean_linker_1, # of connection points: 2
#     Edge 13, Type (0, 0), BuildingBlock: FUNLAD_clean_linker_1, # of connection points: 2
#     Edge 14, Type (0, 0), BuildingBlock: FUNLAD_clean_linker_1, # of connection points: 2
#     Edge 15, Type (0, 0), BuildingBlock: FUNLAD_clean_linker_1, # of connection points: 2
#     Edge 16, Type (0, 0), BuildingBlock: FUNLAD_clean_linker_1, # of connection points: 2
#     Edge 17, Type (0, 0), BuildingBlock: FUNLAD_clean_linker_1, # of connection points: 2
#     Edge 18, Type (0, 0), BuildingBlock: FUNLAD_clean_linker_1, # of connection points: 2
#     Edge 19, Type (0, 0), BuildingBlock: FUNLAD_clean_linker_1, # of connection points: 2
#     Edge 20, Type (0, 0), BuildingBlock: FUNLAD_clean_linker_1, # of connection points: 2
#     Edge 21, Type (0, 0), BuildingBlock: FUNLAD_clean_linker_1, # of connection points: 2
#     Edge 22, Type (0, 0), BuildingBlock: FUNLAD_clean_linker_1, # of connection points: 2
#     Edge 23, Type (0, 0), BuildingBlock: FUNLAD_clean_linker_1, # of connection points: 2
#     Edge 24, Type (0, 0), BuildingBlock: FUNLAD_clean_linker_1, # of connection points: 2
#     Edge 25, Type (0, 0), BuildingBlock: FUNLAD_clean_linker_1, # of connection points: 2
#     Edge 26, Type (0, 0), BuildingBlock: FUNLAD_clean_linker_1, # of connection points: 2
#     Edge 27, Type (0, 0), BuildingBlock: FUNLAD_clean_linker_1, # of connection points: 2
#     Edge 28, Type (0, 0), BuildingBlock: FUNLAD_clean_linker_1, # of connection points: 2
#     Edge 29, Type (0, 0), BuildingBlock: FUNLAD_clean_linker_1, # of connection points: 2
# Relax obj value: 0.000
# Max RMSD: 0.047
# Mean RMSD: 0.047
data_MOF--net-wiz--node1-OLANEW_clean_sbu_2--edge1-FUNLAD_clean_linker_1
_symmetry_space_group_name_H-M    P1
_symmetry_Int_Tables_number       1
_symmetry_cell_setting            triclinic
loop_
_symmetry_equiv_pos_as_xyz
'x, y, z'
_cell_length_a     35.893072
_cell_length_b     35.92212
_cell_length_c     77.528723
_cell_angle_alpha  89.945122
_cell_angle_beta   90.073161
_cell_angle_gamma 119.98122
loop_
_atom_site_label
_atom_site_type_symbol
_atom_site_fract_x
_atom_site_fract_y
_atom_site_fract_z
_atom_type_partial_charge
O0 O 0.10654 0.40698 0.05558 0.0
Cd1 Cd 0.07354 0.42185 0.08025 0.0
O2 O 0.15759 0.41201 0.07266 0.0
Cd3 Cd 0.21975 0.41601 0.07671 0.0
O4 O 0.2854 0.42752 0.07847 0.0
C5 C 0.31146 0.45417 0.08938 0.0
O6 O 0.29836 0.47411 0.09981 0.0
C7 C 0.14161 0.40685 0.05763 0.0
C8 C 0.03303 0.35507 0.10393 0.0
O9 O 0.01199 0.35899 0.09136 0.0
O10 O 0.07334 0.38208 0.10512 0.0
O11 O 0.79296 0.18227 0.39552 0.0
Cd12 Cd 0.80758 0.21855 0.42351 0.0
O13 O 0.86008 0.19873 0.39109 0.0
Cd14 Cd 0.88266 0.23979 0.41382 0.0
O15 O 0.91062 0.3025 0.4262 0.0
C16 C 0.8963 0.3268 0.4214 0.0
O17 O 0.86446 0.31219 0.41026 0.0
C18 C 0.82101 0.18013 0.38625 0.0
C19 C 0.76061 0.16205 0.44999 0.0
O20 O 0.74479 0.18093 0.44112 0.0
O21 O 0.79868 0.16977 0.4464 0.0
O22 O 0.55767 0.76722 0.73886 0.0
Cd23 Cd 0.55103 0.76818 0.77029 0.0
O24 O 0.62001 0.82737 0.73794 0.0
Cd25 Cd 0.61408 0.84313 0.7646 0.0
O26 O 0.59011 0.8787 0.77927 0.0
C27 C 0.5501 0.8655 0.77824 0.0
O28 O 0.52523 0.8298 0.76979 0.0
C29 C 0.58984 0.79496 0.73031 0.0
C30 C 0.59269 0.73258 0.78853 0.0
O31 O 0.5538 0.70914 0.78341 0.0
O32 O 0.61226 0.77273 0.78482 0.0
O33 O 0.81713 0.6352 0.07658 0.0
Cd34 Cd 0.79393 0.62524 0.10673 0.0
O35 O 0.76991 0.65362 0.06813 0.0
Cd36 Cd 0.73531 0.6404 0.09251 0.0
O37 O 0.67214 0.61574 0.10434 0.0
C38 C 0.64208 0.58198 0.09744 0.0
O39 O 0.65143 0.56355 0.08486 0.0
C40 C 0.80111 0.6475 0.06479 0.0
C41 C 0.86104 0.63995 0.12902 0.0
O42 O 0.83603 0.60241 0.1229 0.0
O43 O 0.85436 0.67058 0.12469 0.0
O44 O 0.26491 0.82231 0.40468 0.0
Cd45 Cd 0.29172 0.81429 0.43262 0.0
O46 O 0.1998 0.78643 0.41528 0.0
Cd47 Cd 0.13007 0.74884 0.41263 0.0
O48 O 0.06974 0.68787 0.41243 0.0
C49 C 0.06946 0.65863 0.42173 0.0
O50 O 0.10369 0.6676 0.43096 0.0
C51 C 0.2245 0.80497 0.40257 0.0
C52 C 0.30205 0.87572 0.45688 0.0
O53 O 0.33314 0.88173 0.44697 0.0
O54 O 0.26588 0.841 0.45518 0.0
O55 O 0.41632 0.16459 0.74997 0.0
Cd56 Cd 0.41145 0.14378 0.78035 0.0
O57 O 0.34948 0.11552 0.74398 0.0
Cd58 Cd 0.34365 0.08252 0.76832 0.0
O59 O 0.36075 0.03905 0.78123 0.0
C60 C 0.39807 0.04551 0.77773 0.0
O61 O 0.42321 0.07792 0.76767 0.0
C62 C 0.38513 0.14758 0.73938 0.0
C63 C 0.38348 0.18709 0.80177 0.0
O64 O 0.42364 0.20219 0.79881 0.0
O65 O 0.35645 0.1517 0.79453 0.0
O66 O 0.57504 0.86619 0.59587 0.0
Cd67 Cd 0.55021 0.8675 0.56659 0.0
O68 O 0.60417 0.82947 0.58596 0.0
Cd69 Cd 0.63085 0.78776 0.59097 0.0
O70 O 0.62763 0.72751 0.5979 0.0
C71 C 0.59065 0.69775 0.60243 0.0
O72 O 0.5585 0.70543 0.60269 0.0
C73 C 0.59498 0.84582 0.5986 0.0
C74 C 0.61099 0.92879 0.54447 0.0
O75 O 0.58599 0.93712 0.5534 0.0
O76 O 0.60806 0.89198 0.5463 0.0
O77 O 0.81191 0.64341 0.91955 0.0
Cd78 Cd 0.82848 0.63676 0.88948 0.0
O79 O 0.87667 0.66067 0.92876 0.0
Cd80 Cd 0.90015 0.64987 0.90442 0.0
O81 O 0.9395 0.62629 0.89255 0.0
C82 C 0.93491 0.59159 0.89884 0.0
O83 O 0.90579 0.57165 0.91086 0.0
C84 C 0.83913 0.65437 0.93172 0.0
C85 C 0.79054 0.66835 0.86675 0.0
O86 O 0.77063 0.62879 0.87138 0.0
O87 O 0.82831 0.69294 0.87278 0.0
O88 O 0.19185 0.77887 0.26031 0.0
Cd89 Cd 0.20304 0.78909 0.22906 0.0
O90 O 0.19123 0.83914 0.26464 0.0
Cd91 Cd 0.2156 0.86182 0.23872 0.0
O92 O 0.27406 0.89327 0.22318 0.0
C93 C 0.29582 0.93408 0.22297 0.0
O94 O 0.28056 0.95609 0.23075 0.0
C95 C 0.18724 0.80416 0.2704 0.0
C96 C 0.12815 0.76614 0.21033 0.0
O97 O 0.13979 0.73843 0.21357 0.0
O98 O 0.15148 0.80442 0.21607 0.0
O99 O 0.42075 0.17129 0.60018 0.0
Cd100 Cd 0.44636 0.18889 0.57043 0.0
O101 O 0.41148 0.22691 0.59836 0.0
Cd102 Cd 0.40052 0.27586 0.60995 0.0
O103 O 0.41392 0.34053 0.61616 0.0
C104 C 0.45317 0.36874 0.61827 0.0
O105 O 0.48259 0.35723 0.6174 0.0
C106 C 0.40998 0.19646 0.6072 0.0
C107 C 0.41978 0.11859 0.54865 0.0
O108 O 0.45454 0.13302 0.55742 0.0
O109 O 0.39707 0.13681 0.55039 0.0
O110 O 0.30425 0.42277 0.93654 0.0
Cd111 Cd 0.35185 0.44855 0.91142 0.0
O112 O 0.25731 0.4309 0.92133 0.0
Cd113 Cd 0.19769 0.43291 0.91887 0.0
O114 O 0.14205 0.44207 0.91742 0.0
C115 C 0.14192 0.4688 0.90673 0.0
O116 O 0.17508 0.49011 0.89646 0.0
C117 C 0.26834 0.42161 0.93555 0.0
C118 C 0.35822 0.3865 0.89224 0.0
O119 O 0.38292 0.40462 0.90519 0.0
O120 O 0.32967 0.39679 0.88859 0.0
O121 O 0.80197 0.08924 0.24504 0.0
Cd122 Cd 0.77381 0.06622 0.21588 0.0
O123 O 0.74006 0.07937 0.25482 0.0
Cd124 Cd 0.70361 0.05577 0.23086 0.0
O125 O 0.64244 0.02447 0.217 0.0
C126 C 0.61964 0.04237 0.21767 0.0
O127 O 0.63507 0.07966 0.22549 0.0
C128 C 0.77928 0.0905 0.25734 0.0
C129 C 0.82139 0.12921 0.19145 0.0
O130 O 0.78858 0.12759 0.1987 0.0
O131 O 0.83179 0.1011 0.1957 0.0
H132 H 0.21089 0.41298 0.94946 0.0
C133 C 0.24078 0.4125 0.9509 0.0
H134 H 0.28338 0.40794 0.96845 0.0
H135 H 0.22094 0.47965 0.02992 0.0
H136 H 0.29239 0.53942 0.02466 0.0
H137 H 0.33544 0.53847 1.00008 0.0
H138 H 0.30702 0.4778 0.98053 0.0
C139 C 0.25276 0.40672 0.96665 0.0
C140 C 0.22785 0.40499 0.98229 0.0
C141 C 0.24548 0.44012 0.99394 0.0
C142 C 0.22102 0.44021 0.00835 0.0
C143 C 0.23856 0.47694 0.01916 0.0
C144 C 0.27948 0.51176 0.0162 0.0
C145 C 0.30369 0.51126 0.00235 0.0
C146 C 0.28697 0.47611 0.99125 0.0
H147 H 0.1945 0.40232 0.04512 0.0
C148 C 0.16521 0.40337 0.0427 0.0
H149 H 0.12373 0.40473 0.02365 0.0
H150 H 0.18616 0.33097 0.96334 0.0
H151 H 0.11488 0.27053 0.96876 0.0
H152 H 0.07238 0.27061 0.99373 0.0
H153 H 0.10094 0.33106 0.01347 0.0
C154 C 0.15329 0.40441 0.02634 0.0
C155 C 0.17941 0.40448 0.01139 0.0
C156 C 0.16205 0.36912 0.99986 0.0
C157 C 0.18638 0.36925 0.98535 0.0
C158 C 0.16869 0.33299 0.97432 0.0
C159 C 0.12791 0.29795 0.97734 0.0
C160 C 0.104 0.29798 0.99141 0.0
C161 C 0.12075 0.33296 0.00261 0.0
H162 H 0.83247 0.1152 0.27633 0.0
C163 C 0.79862 0.10489 0.2746 0.0
H164 H 0.74122 0.09391 0.28667 0.0
H165 H 0.79449 0.07751 0.36231 0.0
H166 H 0.74513 0.00254 0.35566 0.0
H167 H 0.71776 0.98006 0.32607 0.0
H168 H 0.73978 0.03236 0.30292 0.0
C169 C 0.77543 0.10555 0.28809 0.0
C170 C 0.7943 0.11913 0.30562 0.0
C171 C 0.78077 0.08822 0.31903 0.0
C172 C 0.79607 0.10122 0.33614 0.0
C173 C 0.78295 0.06952 0.34918 0.0
C174 C 0.75487 0.02633 0.34552 0.0
C175 C 0.73949 0.01367 0.32886 0.0
C176 C 0.75228 0.04406 0.3157 0.0
H177 H 0.77464 0.14405 0.36558 0.0
C178 C 0.80827 0.15869 0.36932 0.0
H179 H 0.8711 0.17609 0.36122 0.0
H180 H 0.82586 0.187 0.28301 0.0
H181 H 0.876 0.2616 0.28961 0.0
H182 H 0.90339 0.28397 0.3192 0.0
H183 H 0.88058 0.23186 0.34237 0.0
C184 C 0.83712 0.15993 0.35795 0.0
C185 C 0.82431 0.14525 0.33985 0.0
C186 C 0.83902 0.17599 0.32633 0.0
C187 C 0.82368 0.16301 0.30921 0.0
C188 C 0.83726 0.19476 0.29615 0.0
C189 C 0.86588 0.23783 0.29978 0.0
C190 C 0.88126 0.25043 0.31644 0.0
C191 C 0.86795 0.22009 0.32962 0.0
H192 H 0.55836 0.77 0.70524 0.0
C193 C 0.58875 0.79249 0.7113 0.0
H194 H 0.65195 0.84346 0.70755 0.0
H195 H 0.56206 0.76137 0.62984 0.0
H196 H 0.55571 0.69425 0.63946 0.0
H197 H 0.57942 0.68758 0.66857 0.0
H198 H 0.60829 0.74776 0.6885 0.0
C199 C 0.62182 0.82047 0.70147 0.0
C200 C 0.61564 0.82642 0.68283 0.0
C201 C 0.60171 0.79193 0.67095 0.0
C202 C 0.5908 0.79671 0.65374 0.0
C203 C 0.5732 0.76044 0.6427 0.0
C204 C 0.56904 0.72154 0.6481 0.0
C205 C 0.58216 0.71771 0.66454 0.0
C206 C 0.59833 0.75238 0.67588 0.0
H207 H 0.62972 0.82942 0.61797 0.0
C208 C 0.60571 0.83912 0.61629 0.0
H209 H 0.56152 0.85272 0.62858 0.0
H210 H 0.64192 0.89962 0.70213 0.0
H211 H 0.65284 0.96797 0.69196 0.0
H212 H 0.63955 0.97786 0.66155 0.0
H213 H 0.61462 0.91911 0.64119 0.0
C214 C 0.58541 0.84282 0.63016 0.0
C215 C 0.59683 0.837 0.64808 0.0
C216 C 0.61272 0.87205 0.65974 0.0
C217 C 0.62161 0.86666 0.67716 0.0
C218 C 0.63564 0.90189 0.68865 0.0
C219 C 0.64193 0.94143 0.683 0.0
C220 C 0.63437 0.94698 0.6659 0.0
C221 C 0.61992 0.91286 0.65435 0.0
H222 H 0.84217 0.64428 0.04429 0.0
C223 C 0.81726 0.65228 0.04696 0.0
H224 H 0.77608 0.67274 0.03636 0.0
H225 H 0.88949 0.74796 0.96868 0.0
H226 H 0.91257 0.81427 0.98452 0.0
H227 H 0.89084 0.81278 0.01481 0.0
H228 H 0.84587 0.74498 0.02946 0.0
C229 C 0.8004 0.66381 0.03393 0.0
C230 C 0.81402 0.66457 0.01578 0.0
C231 C 0.84021 0.7044 0.00742 0.0
C232 C 0.85293 0.70525 0.98999 0.0
C233 C 0.87911 0.7455 0.98194 0.0
C234 C 0.89253 0.78378 0.99087 0.0
C235 C 0.88028 0.78294 0.00793 0.0
C236 C 0.85443 0.74382 0.01617 0.0
H237 H 0.79314 0.64926 0.95182 0.0
C238 C 0.82621 0.65734 0.9495 0.0
H239 H 0.88685 0.67631 0.96079 0.0
H240 H 0.76066 0.58269 0.02755 0.0
H241 H 0.73888 0.51649 0.01194 0.0
H242 H 0.76369 0.5179 0.98217 0.0
H243 H 0.80991 0.5855 0.96774 0.0
C244 C 0.85345 0.6673 0.96288 0.0
C245 C 0.83919 0.66626 0.98095 0.0
C246 C 0.81308 0.62635 0.98933 0.0
C247 C 0.79995 0.62552 0.00669 0.0
C248 C 0.77258 0.58525 0.01454 0.0
C249 C 0.75967 0.54696 0.00571 0.0
C250 C 0.77354 0.54775 0.98893 0.0
C251 C 0.79995 0.58685 0.98078 0.0
H252 H 0.18938 0.77034 0.29373 0.0
C253 C 0.18328 0.7954 0.28911 0.0
H254 H 0.17243 0.84591 0.29597 0.0
H255 H 0.16692 0.73367 0.36724 0.0
H256 H 0.10527 0.6726 0.35434 0.0
H257 H 0.07864 0.67846 0.32569 0.0
H258 H 0.11446 0.74534 0.30959 0.0
C259 C 0.17782 0.82039 0.30055 0.0
C260 C 0.18707 0.81919 0.31926 0.0
C261 C 0.16408 0.7808 0.329 0.0
C262 C 0.17781 0.77828 0.34599 0.0
C263 C 0.15661 0.7383 0.35472 0.0
C264 C 0.12131 0.70277 0.34739 0.0
C265 C 0.10644 0.706 0.33123 0.0
C266 C 0.12747 0.74446 0.32207 0.0
H267 H 0.17282 0.7968 0.3847 0.0
C268 C 0.20622 0.80471 0.38548 0.0
H269 H 0.26308 0.82121 0.37179 0.0
H270 H 0.23726 0.89885 0.30462 0.0
H271 H 0.29485 0.96158 0.31842 0.0
H272 H 0.31487 0.95874 0.34862 0.0
H273 H 0.27767 0.89281 0.36512 0.0
C274 C 0.22956 0.81292 0.37099 0.0
C275 C 0.21272 0.81515 0.35366 0.0
C276 C 0.23374 0.85436 0.34434 0.0
C277 C 0.22131 0.85629 0.32708 0.0
C278 C 0.24442 0.8955 0.31788 0.0
C279 C 0.27776 0.9319 0.32563 0.0
C280 C 0.28909 0.93028 0.34262 0.0
C281 C 0.26752 0.89211 0.35192 0.0
H282 H 0.37879 0.20652 0.6298 0.0
C283 C 0.39715 0.19171 0.62547 0.0
H284 H 0.42738 0.15659 0.63255 0.0
H285 H 0.38965 0.22902 0.70669 0.0
H286 H 0.43267 0.30093 0.69503 0.0
H287 H 0.46187 0.31202 0.66549 0.0
H288 H 0.44713 0.25145 0.64732 0.0
C289 C 0.40906 0.17146 0.63688 0.0
C290 C 0.39537 0.16585 0.65531 0.0
C291 C 0.40694 0.20194 0.66614 0.0
C292 C 0.39287 0.19569 0.6836 0.0
C293 C 0.40166 0.23206 0.69368 0.0
C294 C 0.42601 0.2735 0.6871 0.0
C295 C 0.44225 0.27973 0.67044 0.0
C296 C 0.43309 0.24454 0.66006 0.0
H297 H 0.42534 0.18375 0.71724 0.0
C298 C 0.39237 0.16218 0.72127 0.0
H299 H 0.32781 0.12448 0.7134 0.0
H300 H 0.36543 0.08968 0.63793 0.0
H301 H 0.32594 0.01815 0.65009 0.0
H302 H 0.30724 0.00753 0.68098 0.0
H303 H 0.32728 0.06826 0.69982 0.0
C304 C 0.36067 0.14668 0.70946 0.0
C305 C 0.37044 0.1536 0.69064 0.0
C306 C 0.35908 0.11757 0.67984 0.0
C307 C 0.37102 0.12371 0.66213 0.0
C308 C 0.35818 0.08707 0.65156 0.0
C309 C 0.33533 0.04572 0.65835 0.0
C310 C 0.32473 0.03974 0.67573 0.0
C311 C 0.33639 0.07505 0.68641 0.0
H312 H 0.59029 0.58516 0.11159 0.0
C313 C 0.59691 0.56705 0.10206 0.0
H314 H 0.57052 0.51706 0.08366 0.0
H315 H 0.39593 0.4686 0.12934 0.0
H316 H 0.42991 0.45103 0.15257 0.0
H317 H 0.50484 0.46658 0.14994 0.0
H318 H 0.54632 0.4999 0.12409 0.0
C319 C 0.56416 0.53422 0.09371 0.0
C320 C 0.51917 0.52506 0.09566 0.0
C321 C 0.49545 0.5056 0.11087 0.0
C322 C 0.45211 0.49629 0.11232 0.0
C323 C 0.42898 0.47648 0.12757 0.0
C324 C 0.44807 0.46615 0.141 0.0
C325 C 0.49027 0.47494 0.13952 0.0
C326 C 0.51379 0.49427 0.12464 0.0
H327 H 0.36606 0.44781 0.08012 0.0
C328 C 0.35662 0.46429 0.08938 0.0
H329 H 0.37764 0.51053 0.10935 0.0
H330 H 0.55604 0.56338 0.0649 0.0
H331 H 0.52273 0.58257 0.04201 0.0
H332 H 0.44836 0.56849 0.04489 0.0
H333 H 0.40679 0.53482 0.07061 0.0
C334 C 0.38655 0.4944 0.09973 0.0
C335 C 0.43251 0.50606 0.0985 0.0
C336 C 0.45667 0.52666 0.08348 0.0
C337 C 0.49983 0.53559 0.08197 0.0
C338 C 0.5231 0.55577 0.06676 0.0
C339 C 0.50443 0.56712 0.05352 0.0
C340 C 0.46256 0.55914 0.05513 0.0
C341 C 0.4389 0.53939 0.06993 0.0
H342 H 0.94728 0.38373 0.43478 0.0
C343 C 0.91916 0.3724 0.42651 0.0
H344 H 0.88201 0.39012 0.41105 0.0
H345 H 0.00086 0.56522 0.45874 0.0
H346 H 0.9557 0.52342 0.48267 0.0
H347 H 0.90174 0.44673 0.47901 0.0
H348 H 0.89265 0.41134 0.45138 0.0
C349 C 0.90893 0.40072 0.41991 0.0
C350 C 0.93849 0.44768 0.42194 0.0
C351 C 0.94314 0.46789 0.43811 0.0
C352 C 0.97406 0.51216 0.44018 0.0
C353 C 0.97805 0.5316 0.45648 0.0
C354 C 0.95225 0.50802 0.4703 0.0
C355 C 0.92188 0.46483 0.46825 0.0
C356 C 0.91715 0.44486 0.45236 0.0
H357 H 0.00589 0.60784 0.41251 0.0
C358 C 0.03299 0.61431 0.42075 0.0
H359 H 0.06074 0.58771 0.43716 0.0
H360 H 0.93576 0.41911 0.38894 0.0
H361 H 0.98122 0.46044 0.36509 0.0
H362 H 0.03691 0.53643 0.36892 0.0
H363 H 0.04714 0.57156 0.39651 0.0
C364 C 0.03422 0.58161 0.42863 0.0
C365 C 5e-05 0.53613 0.42604 0.0
C366 C 0.99501 0.51597 0.40978 0.0
C367 C 0.96365 0.47187 0.40767 0.0
C368 C 0.95915 0.45249 0.3913 0.0
C369 C 0.98511 0.47581 0.37749 0.0
C370 C 0.0164 0.51859 0.37964 0.0
C371 C 0.02164 0.53851 0.39557 0.0
H372 H 0.38694 0.98434 0.78919 0.0
C373 C 0.41067 0.01379 0.7829 0.0
H374 H 0.47237 0.04753 0.77167 0.0
H375 H 0.49239 0.8978 0.81363 0.0
H376 H 0.4902 0.9336 0.83986 0.0
H377 H 0.47401 0.99273 0.83876 0.0
H378 H 0.45949 0.01617 0.81144 0.0
C379 C 0.4491 0.01882 0.7785 0.0
C380 C 0.45807 0.98275 0.77959 0.0
C381 C 0.46701 0.96991 0.79563 0.0
C382 C 0.4774 0.93652 0.79623 0.0
C383 C 0.4853 0.92363 0.81243 0.0
C384 C 0.48397 0.94379 0.82758 0.0
C385 C 0.47477 0.97704 0.82696 0.0
C386 C 0.46639 0.99011 0.8112 0.0
H387 H 0.55676 0.92636 0.78785 0.0
C388 C 0.5337 0.89409 0.78352 0.0
H389 H 0.46961 0.85165 0.77599 0.0
H390 H 0.44066 0.99843 0.74679 0.0
H391 H 0.44379 0.96339 0.72059 0.0
H392 H 0.46359 0.90682 0.72151 0.0
H393 H 0.48014 0.88482 0.74863 0.0
C394 C 0.49251 0.88334 0.78091 0.0
C395 C 0.47949 0.91666 0.78075 0.0
C396 C 0.46992 0.92913 0.76473 0.0
C397 C 0.45917 0.96216 0.76416 0.0
C398 C 0.44959 0.97388 0.74798 0.0
C399 C 0.45115 0.95397 0.73282 0.0
C400 C 0.46223 0.92209 0.73334 0.0
C401 C 0.47157 0.90971 0.74905 0.0
H402 H 0.44015 0.42253 0.61987 0.0
C403 C 0.46552 0.41437 0.61975 0.0
H404 H 0.53255 0.43831 0.61848 0.0
H405 H 0.55429 0.60334 0.57881 0.0
H406 H 0.55987 0.56276 0.55506 0.0
H407 H 0.54713 0.4893 0.55949 0.0
H408 H 0.52822 0.45587 0.58772 0.0
C409 C 0.50684 0.44586 0.6194 0.0
C410 C 0.51817 0.49142 0.61734 0.0
C411 C 0.53074 0.51106 0.60089 0.0
C412 C 0.53917 0.5538 0.59845 0.0
C413 C 0.5491 0.57162 0.58162 0.0
C414 C 0.55207 0.54852 0.5678 0.0
C415 C 0.54482 0.50714 0.57028 0.0
C416 C 0.53406 0.48838 0.58658 0.0
H417 H 0.61053 0.6489 0.60506 0.0
C418 C 0.58353 0.65449 0.60622 0.0
H419 H 0.51732 0.62705 0.61181 0.0
H420 H 0.49718 0.46379 0.65066 0.0
H421 H 0.49268 0.50472 0.67468 0.0
H422 H 0.50843 0.57935 0.6706 0.0
H423 H 0.52865 0.61346 0.64249 0.0
C424 C 0.54433 0.62168 0.61014 0.0
C425 C 0.53642 0.57728 0.61263 0.0
C426 C 0.52446 0.55779 0.62913 0.0
C427 C 0.51533 0.51478 0.63149 0.0
C428 C 0.50395 0.49622 0.64814 0.0
C429 C 0.50142 0.5194 0.66204 0.0
C430 C 0.51029 0.56142 0.65974 0.0
C431 C 0.52176 0.58059 0.64353 0.0
H432 H 0.0796 0.45949 0.91576 0.0
C433 C 0.10585 0.47739 0.90676 0.0
H434 H 0.13094 0.52537 0.88745 0.0
H435 H 0.95139 0.51209 0.87133 0.0
H436 H 0.96279 0.48224 0.84513 0.0
H437 H 0.02334 0.46839 0.8428 0.0
H438 H 0.07283 0.4842 0.86668 0.0
C439 C 0.1055 0.50783 0.89679 0.0
C440 C 0.0701 0.51792 0.89799 0.0
C441 C 0.04188 0.5091 0.88381 0.0
C442 C 0.00713 0.51739 0.8851 0.0
C443 C 0.97872 0.50714 0.87093 0.0
C444 C 0.98478 0.48981 0.85584 0.0
C445 C 0.01886 0.48198 0.85454 0.0
C446 C 0.04708 0.49129 0.86834 0.0
H447 H 0.99134 0.59647 0.8853 0.0
C448 C 0.96559 0.57718 0.8943 0.0
H449 H 0.94014 0.52502 0.91173 0.0
H450 H 0.12187 0.54446 0.92671 0.0
H451 H 0.11046 0.57432 0.95282 0.0
H452 H 0.04873 0.58623 0.95542 0.0
H453 H 0.99833 0.56875 0.93183 0.0
C454 C 0.96471 0.54342 0.90218 0.0
C455 C 0.00097 0.53481 0.90051 0.0
C456 C 0.0295 0.54415 0.91461 0.0
C457 C 0.0645 0.53635 0.91326 0.0
C458 C 0.09377 0.54812 0.92723 0.0
C459 C 0.08785 0.5657 0.94227 0.0
C460 C 0.05314 0.57247 0.94372 0.0
C461 C 0.02436 0.56212 0.93007 0.0
H462 H 0.35959 0.99116 0.21909 0.0
C463 C 0.34088 0.95662 0.21704 0.0
H464 H 0.34276 0.90077 0.21015 0.0
H465 H 0.53577 0.06657 0.18803 0.0
H466 H 0.49767 0.08121 0.16551 0.0
H467 H 0.41853 0.03883 0.16345 0.0
H468 H 0.37694 0.98162 0.18392 0.0
C469 C 0.36074 0.9355 0.21158 0.0
C470 C 0.40856 0.95751 0.21116 0.0
C471 C 0.43237 0.99035 0.19896 0.0
C472 C 0.47803 0.01448 0.20005 0.0
C473 C 0.50102 0.04736 0.1878 0.0
C474 C 0.47957 0.056 0.1748 0.0
C475 C 0.435 0.03216 0.17364 0.0
C476 C 0.41151 -0.00039 0.18553 0.0
H477 H 0.5617 0.98592 0.2072 0.0
C478 C 0.57421 0.01826 0.21222 0.0
H479 H 0.5591 0.06551 0.22011 0.0
H480 H 0.37272 0.89462 0.2359 0.0
H481 H 0.41062 0.87995 0.25831 0.0
H482 H 0.48958 0.92307 0.26073 0.0
H483 H 0.53104 0.98077 0.2407 0.0
C484 C 0.54712 0.03312 0.21525 0.0
C485 C 0.49977 0.00541 0.21321 0.0
C486 C 0.47599 0.97174 0.22516 0.0
C487 C 0.43038 0.94739 0.22396 0.0
C488 C 0.4074 0.91418 0.23614 0.0
C489 C 0.42873 0.90543 0.24913 0.0
C490 C 0.47318 0.92965 0.25048 0.0
C491 C 0.49665 0.96258 0.23876 0.0
H492 H 0.83513 0.18503 0.17517 0.0
C493 C 0.84618 0.16275 0.17854 0.0
H494 H 0.89232 0.14385 0.17381 0.0
H495 H 0.94251 0.22736 0.09965 0.0
H496 H 0.90613 0.15136 0.09275 0.0
H497 H 0.86859 0.09671 0.11532 0.0
H498 H 0.86739 0.1177 0.14494 0.0
C499 C 0.88159 0.16662 0.17095 0.0
C500 C 0.90515 0.19988 0.1575 0.0
C501 C 0.90538 0.18705 0.14023 0.0
C502 C 0.92653 0.21856 0.12717 0.0
C503 C 0.92654 0.20481 0.11005 0.0
C504 C 0.90584 0.16127 0.10591 0.0
C505 C 0.88474 0.13051 0.11862 0.0
C506 C 0.88437 0.14303 0.13559 0.0
H507 H 0.03127 0.3188 0.12721 0.0
C508 C 0.01157 0.32138 0.11714 0.0
H509 H 0.94863 0.29715 0.10738 0.0
H510 H 0.91606 0.23549 0.18969 0.0
H511 H 0.95029 0.31141 0.19645 0.0
H512 H 0.98183 0.36602 0.17347 0.0
H513 H 0.98014 0.34505 0.14366 0.0
C514 C 0.96867 0.29553 0.11754 0.0
C515 C 0.94729 0.26286 0.13138 0.0
C516 C 0.94697 0.27574 0.14867 0.0
C517 C 0.92683 0.24421 0.1618 0.0
C518 C 0.92918 0.25798 0.17909 0.0
C519 C 0.94901 0.3015 0.18318 0.0
C520 C 0.96692 0.33224 0.17025 0.0
C521 C 0.96597 0.31972 0.15318 0.0
H522 H 0.66256 0.95144 0.52498 0.0
C523 C 0.64123 0.95972 0.53179 0.0
H524 H 0.62052 0.00508 0.53455 0.0
H525 H 0.7841 0.16067 0.50078 0.0
H526 H 0.79413 0.18257 0.53083 0.0
H527 H 0.74769 0.13275 0.55348 0.0
H528 H 0.69084 0.06079 0.54625 0.0
C529 C 0.64115 0.99602 0.52767 0.0
C530 C 0.66972 0.02546 0.51395 0.0
C531 C 0.703 0.06728 0.51842 0.0
C532 C 0.73003 0.09589 0.50538 0.0
C533 C 0.7628 0.13759 0.51019 0.0
C534 C 0.7689 0.15057 0.52738 0.0
C535 C 0.74274 0.12253 0.54014 0.0
C536 C 0.71017 0.08133 0.5358 0.0
H537 H 0.70179 0.12431 0.46538 0.0
C538 C 0.73492 0.1318 0.46378 0.0
H539 H 0.78428 0.12139 0.47326 0.0
H540 H 0.60604 0.94918 0.50055 0.0
H541 H 0.59757 0.92681 0.47067 0.0
H542 H 0.64743 0.97484 0.44837 0.0
H543 H 0.70565 0.04586 0.45583 0.0
C544 C 0.75086 0.11328 0.47423 0.0
C545 C 0.72368 0.08266 0.4879 0.0
C546 C 0.69083 0.04064 0.48343 0.0
C547 C 0.66323 0.01229 0.49641 0.0
C548 C 0.62913 0.97143 0.49139 0.0
C549 C 0.62365 0.95826 0.47423 0.0
C550 C 0.65163 0.98535 0.46167 0.0
C551 C 0.68482 0.02611 0.46612 0.0
H552 H 0.59513 0.67938 0.80173 0.0
C553 C 0.6135 0.71356 0.79888 0.0
H554 H 0.67258 0.77124 0.80232 0.0
H555 H 0.67307 0.65534 0.86889 0.0
H556 H 0.6146 0.66395 0.87987 0.0
H557 H 0.5829 0.69816 0.86214 0.0
H558 H 0.60925 0.72367 0.8333 0.0
C559 C 0.65335 0.73725 0.80537 0.0
C560 C 0.67303 0.71759 0.81634 0.0
C561 C 0.65745 0.70322 0.83328 0.0
C562 C 0.6762 0.68412 0.84361 0.0
C563 C 0.66002 0.67004 0.86047 0.0
C564 C 0.62652 0.67487 0.86696 0.0
C565 C 0.60864 0.69408 0.85697 0.0
C566 C 0.62391 0.70832 0.84036 0.0
H567 H 0.78919 0.71963 0.85154 0.0
C568 C 0.77082 0.68572 0.85487 0.0
H569 H 0.71185 0.62773 0.85196 0.0
H570 H 0.71086 0.74237 0.78461 0.0
H571 H 0.76942 0.73382 0.77363 0.0
H572 H 0.80124 0.69978 0.79139 0.0
H573 H 0.77492 0.67432 0.82027 0.0
C574 C 0.73117 0.66132 0.8483 0.0
C575 C 0.71105 0.68025 0.83716 0.0
C576 C 0.72659 0.69456 0.82022 0.0
C577 C 0.7078 0.71361 0.80988 0.0
C578 C 0.72397 0.7277 0.79303 0.0
C579 C 0.7575 0.7229 0.78655 0.0
C580 C 0.77545 0.70378 0.79655 0.0
C581 C 0.76021 0.68957 0.81317 0.0
H582 H 0.90132 0.62022 0.14352 0.0
C583 C 0.89673 0.64727 0.1406 0.0
H584 H 0.91872 0.71307 0.14506 0.0
H585 H 0.01089 0.71651 0.21537 0.0
H586 H 0.94807 0.71764 0.22612 0.0
H587 H 0.88978 0.70757 0.20639 0.0
H588 H 0.89385 0.69598 0.17579 0.0
C589 C 0.92366 0.68602 0.1474 0.0
C590 C 0.95929 0.69261 0.15916 0.0
C591 C 0.95686 0.70025 0.17695 0.0
C592 C 0.99083 0.70682 0.18828 0.0
C593 C 0.98669 0.71265 0.2061 0.0
C594 C 0.95062 0.71304 0.21247 0.0
C595 C 0.91778 0.70731 0.20136 0.0
C596 C 0.92059 0.70081 0.18381 0.0
H597 H 0.08171 0.78026 0.19752 0.0
C598 C 0.08947 0.7551 0.19999 0.0
H599 H 0.07267 0.69073 0.19511 0.0
H600 H 0.97542 0.68134 0.12557 0.0
H601 H 0.03804 0.67985 0.11486 0.0
H602 H 0.09657 0.69045 0.13455 0.0
H603 H 0.09291 0.70282 0.16507 0.0
C604 C 0.06447 0.71578 0.19327 0.0
C605 C 0.02765 0.70668 0.18172 0.0
C606 C 0.02985 0.69853 0.16396 0.0
C607 C 0.99583 0.69185 0.15264 0.0
C608 C -0.00026 0.68551 0.13485 0.0
C609 C 0.03568 0.68486 0.12849 0.0
C610 C 0.06865 0.69087 0.13957 0.0
C611 C 0.06606 0.69784 0.15709 0.0
H612 H 0.2798 0.90101 0.47799 0.0
C613 C 0.30756 0.90724 0.47024 0.0
H614 H 0.37361 0.94949 0.46551 0.0
H615 H 0.38189 0.11261 0.49946 0.0
H616 H 0.3869 0.13106 0.46914 0.0
H617 H 0.3751 0.07766 0.44668 0.0
H618 H 0.35848 0.00552 0.45441 0.0
C619 C 0.34582 0.9423 0.47341 0.0
C620 C 0.35106 0.9736 0.48709 0.0
C621 C 0.36027 0.01547 0.48235 0.0
C622 C 0.36647 0.04606 0.4953 0.0
C623 C 0.37637 0.0879 0.49018 0.0
C624 C 0.37941 0.09897 0.47281 0.0
C625 C 0.37282 0.06892 0.46016 0.0
C626 C 0.36336 0.02763 0.46479 0.0
H627 H 0.42846 0.06921 0.53537 0.0
C628 C 0.40741 0.08276 0.5365 0.0
H629 H 0.35191 0.08202 0.52694 0.0
H630 H 0.33736 0.89723 0.50073 0.0
H631 H 0.3291 0.87774 0.53099 0.0
H632 H 0.33451 0.92907 0.55333 0.0
H633 H 0.34906 0.00051 0.54553 0.0
C634 C 0.37235 0.06771 0.52642 0.0
C635 C 0.36333 0.03467 0.51298 0.0
C636 C 0.35288 0.99238 0.51771 0.0
C637 C 0.34772 0.96211 0.50477 0.0
C638 C 0.33989 0.92097 0.50994 0.0
C639 C 0.33534 0.90942 0.52729 0.0
C640 C 0.33854 0.93837 0.53987 0.0
C641 C 0.34719 0.97939 0.53522 0.0
H642 H 0.33386 0.19526 0.81525 0.0
C643 C 0.3683 0.20931 0.81333 0.0
H644 H 0.43007 0.26083 0.81944 0.0
H645 H 0.36863 0.39038 0.84115 0.0
H646 H 0.40031 0.41927 0.81324 0.0
H647 H 0.4226 0.37935 0.79396 0.0
H648 H 0.41355 0.31035 0.80253 0.0
C649 C 0.39563 0.24574 0.82162 0.0
C650 C 0.37991 0.26832 0.83299 0.0
C651 C 0.38499 0.30839 0.82772 0.0
C652 C 0.3716 0.33112 0.83874 0.0
C653 C 0.37775 0.37145 0.83324 0.0
C654 C 0.39597 0.38847 0.81724 0.0
C655 C 0.40856 0.36602 0.8064 0.0
C656 C 0.40324 0.32647 0.8115 0.0
H657 H 0.38947 0.34922 0.88513 0.0
C658 C 0.3643 0.35615 0.88147 0.0
H659 H 0.31782 0.34722 0.86271 0.0
H660 H 0.36767 0.19339 0.84754 0.0
H661 H 0.33311 0.16298 0.87488 0.0
H662 H 0.30583 0.2003 0.89317 0.0
H663 H 0.31361 0.26864 0.88433 0.0
C664 C 0.34183 0.33914 0.8669 0.0
C665 C 0.35312 0.31372 0.85503 0.0
C666 C 0.34679 0.27299 0.86008 0.0
C667 C 0.36094 0.25063 0.8492 0.0
C668 C 0.35624 0.21109 0.85499 0.0
C669 C 0.33664 0.19336 0.87071 0.0
C670 C 0.32141 0.21443 0.88104 0.0
C671 C 0.32632 0.25377 0.87585 0.0
loop_
_geom_bond_atom_site_label_1
_geom_bond_atom_site_label_2
_geom_bond_distance
_geom_bond_site_symmetry_2
_ccdc_geom_bond_type
O0 Cd1 2.300 . S
O0 C7 1.275 . S
Cd1 O0 2.300 . S
Cd1 O9 2.381 . S
Cd1 O10 2.378 . S
O2 Cd3 2.385 . S
O2 C7 1.255 . S
Cd3 O2 2.385 . S
Cd3 O4 2.317 . S
O4 Cd3 2.317 . S
O4 C5 1.232 . S
C5 O4 1.232 . S
C5 O6 1.218 . S
O6 C5 1.218 . S
C7 O0 1.275 . S
C7 O2 1.255 . S
C8 O9 1.258 . S
C8 O10 1.256 . S
O9 Cd1 2.381 . S
O9 C8 1.258 . S
O10 Cd1 2.378 . S
O10 C8 1.256 . S
O11 Cd12 2.300 . S
O11 C18 1.275 . S
Cd12 O11 2.300 . S
Cd12 O20 2.381 . S
Cd12 O21 2.378 . S
O13 Cd14 2.385 . S
O13 C18 1.255 . S
Cd14 O13 2.385 . S
Cd14 O15 2.317 . S
O15 Cd14 2.317 . S
O15 C16 1.232 . S
C16 O15 1.232 . S
C16 O17 1.218 . S
O17 C16 1.218 . S
C18 O11 1.275 . S
C18 O13 1.255 . S
C19 O20 1.258 . S
C19 O21 1.256 . S
O20 Cd12 2.381 . S
O20 C19 1.258 . S
O21 Cd12 2.378 . S
O21 C19 1.256 . S
O22 Cd23 2.300 . S
O22 C29 1.275 . S
Cd23 O22 2.300 . S
Cd23 O31 2.381 . S
Cd23 O32 2.378 . S
O24 Cd25 2.385 . S
O24 C29 1.255 . S
Cd25 O24 2.385 . S
Cd25 O26 2.317 . S
O26 Cd25 2.317 . S
O26 C27 1.232 . S
C27 O26 1.232 . S
C27 O28 1.218 . S
O28 C27 1.218 . S
C29 O22 1.275 . S
C29 O24 1.255 . S
C30 O31 1.258 . S
C30 O32 1.256 . S
O31 Cd23 2.381 . S
O31 C30 1.258 . S
O32 Cd23 2.378 . S
O32 C30 1.256 . S
O33 Cd34 2.300 . S
O33 C40 1.275 . S
Cd34 O33 2.300 . S
Cd34 O42 2.381 . S
Cd34 O43 2.378 . S
O35 Cd36 2.385 . S
O35 C40 1.255 . S
Cd36 O35 2.385 . S
Cd36 O37 2.317 . S
O37 Cd36 2.317 . S
O37 C38 1.232 . S
C38 O37 1.232 . S
C38 O39 1.218 . S
O39 C38 1.218 . S
C40 O33 1.275 . S
C40 O35 1.255 . S
C41 O42 1.258 . S
C41 O43 1.256 . S
O42 Cd34 2.381 . S
O42 C41 1.258 . S
O43 Cd34 2.378 . S
O43 C41 1.256 . S
O44 Cd45 2.300 . S
O44 C51 1.275 . S
Cd45 O44 2.300 . S
Cd45 O53 2.381 . S
Cd45 O54 2.378 . S
O46 Cd47 2.385 . S
O46 C51 1.255 . S
Cd47 O46 2.385 . S
Cd47 O48 2.317 . S
O48 Cd47 2.317 . S
O48 C49 1.232 . S
C49 O48 1.232 . S
C49 O50 1.218 . S
O50 C49 1.218 . S
C51 O44 1.275 . S
C51 O46 1.255 . S
C52 O53 1.258 . S
C52 O54 1.256 . S
O53 Cd45 2.381 . S
O53 C52 1.258 . S
O54 Cd45 2.378 . S
O54 C52 1.256 . S
O55 Cd56 2.300 . S
O55 C62 1.275 . S
Cd56 O55 2.300 . S
Cd56 O64 2.381 . S
Cd56 O65 2.378 . S
O57 Cd58 2.385 . S
O57 C62 1.255 . S
Cd58 O57 2.385 . S
Cd58 O59 2.317 . S
O59 Cd58 2.317 . S
O59 C60 1.232 . S
C60 O59 1.232 . S
C60 O61 1.218 . S
O61 C60 1.218 . S
C62 O55 1.275 . S
C62 O57 1.255 . S
C63 O64 1.258 . S
C63 O65 1.256 . S
O64 Cd56 2.381 . S
O64 C63 1.258 . S
O65 Cd56 2.378 . S
O65 C63 1.256 . S
O66 Cd67 2.300 . S
O66 C73 1.275 . S
Cd67 O66 2.300 . S
Cd67 O75 2.381 . S
Cd67 O76 2.378 . S
O68 Cd69 2.385 . S
O68 C73 1.255 . S
Cd69 O68 2.385 . S
Cd69 O70 2.317 . S
O70 Cd69 2.317 . S
O70 C71 1.232 . S
C71 O70 1.232 . S
C71 O72 1.218 . S
O72 C71 1.218 . S
C73 O66 1.275 . S
C73 O68 1.255 . S
C74 O75 1.258 . S
C74 O76 1.256 . S
O75 Cd67 2.381 . S
O75 C74 1.258 . S
O76 Cd67 2.378 . S
O76 C74 1.256 . S
O77 Cd78 2.300 . S
O77 C84 1.275 . S
Cd78 O77 2.300 . S
Cd78 O86 2.381 . S
Cd78 O87 2.378 . S
O79 Cd80 2.385 . S
O79 C84 1.255 . S
Cd80 O79 2.385 . S
Cd80 O81 2.317 . S
O81 Cd80 2.317 . S
O81 C82 1.232 . S
C82 O81 1.232 . S
C82 O83 1.218 . S
O83 C82 1.218 . S
C84 O77 1.275 . S
C84 O79 1.255 . S
C85 O86 1.258 . S
C85 O87 1.256 . S
O86 Cd78 2.381 . S
O86 C85 1.258 . S
O87 Cd78 2.378 . S
O87 C85 1.256 . S
O88 Cd89 2.300 . S
O88 C95 1.275 . S
Cd89 O88 2.300 . S
Cd89 O97 2.381 . S
Cd89 O98 2.378 . S
O90 Cd91 2.385 . S
O90 C95 1.255 . S
Cd91 O90 2.385 . S
Cd91 O92 2.317 . S
O92 Cd91 2.317 . S
O92 C93 1.232 . S
C93 O92 1.232 . S
C93 O94 1.218 . S
O94 C93 1.218 . S
C95 O88 1.275 . S
C95 O90 1.255 . S
C96 O97 1.258 . S
C96 O98 1.256 . S
O97 Cd89 2.381 . S
O97 C96 1.258 . S
O98 Cd89 2.378 . S
O98 C96 1.256 . S
O99 Cd100 2.300 . S
O99 C106 1.275 . S
Cd100 O99 2.300 . S
Cd100 O108 2.381 . S
Cd100 O109 2.378 . S
O101 Cd102 2.385 . S
O101 C106 1.255 . S
Cd102 O101 2.385 . S
Cd102 O103 2.317 . S
O103 Cd102 2.317 . S
O103 C104 1.232 . S
C104 O103 1.232 . S
C104 O105 1.218 . S
O105 C104 1.218 . S
C106 O99 1.275 . S
C106 O101 1.255 . S
C107 O108 1.258 . S
C107 O109 1.256 . S
O108 Cd100 2.381 . S
O108 C107 1.258 . S
O109 Cd100 2.378 . S
O109 C107 1.256 . S
O110 Cd111 2.300 . S
O110 C117 1.275 . S
Cd111 O110 2.300 . S
Cd111 O119 2.381 . S
Cd111 O120 2.378 . S
O112 Cd113 2.385 . S
O112 C117 1.255 . S
Cd113 O112 2.385 . S
Cd113 O114 2.317 . S
O114 Cd113 2.317 . S
O114 C115 1.232 . S
C115 O114 1.232 . S
C115 O116 1.218 . S
O116 C115 1.218 . S
C117 O110 1.275 . S
C117 O112 1.255 . S
C118 O119 1.258 . S
C118 O120 1.256 . S
O119 Cd111 2.381 . S
O119 C118 1.258 . S
O120 Cd111 2.378 . S
O120 C118 1.256 . S
O121 Cd122 2.300 . S
O121 C128 1.275 . S
Cd122 O121 2.300 . S
Cd122 O130 2.381 . S
Cd122 O131 2.378 . S
O123 Cd124 2.385 . S
O123 C128 1.255 . S
Cd124 O123 2.385 . S
Cd124 O125 2.317 . S
O125 Cd124 2.317 . S
O125 C126 1.232 . S
C126 O125 1.232 . S
C126 O127 1.218 . S
O127 C126 1.218 . S
C128 O121 1.275 . S
C128 O123 1.255 . S
C129 O130 1.258 . S
C129 O131 1.256 . S
O130 Cd122 2.381 . S
O130 C129 1.258 . S
O131 Cd122 2.378 . S
O131 C129 1.256 . S
H132 C133 0.951 . S
C133 H132 0.951 . S
C133 C139 1.265 . S
H134 C139 0.950 . S
H135 C143 0.949 . S
H136 C144 0.950 . S
H137 C145 0.951 . S
H138 C146 0.951 . S
C139 C133 1.265 . S
C139 H134 0.950 . S
C139 C140 1.478 . S
C140 C139 1.478 . S
C140 C141 1.397 . S
C140 C157 1.394 . S
C141 C140 1.397 . S
C141 C142 1.438 1_556 S
C141 C146 1.429 . S
C142 C141 1.438 1_554 S
C142 C143 1.428 . S
C142 C155 1.394 . S
C143 H135 0.949 . S
C143 C142 1.428 . S
C143 C144 1.345 . S
C144 H136 0.950 . S
C144 C143 1.345 . S
C144 C145 1.424 1_554 S
C145 H137 0.951 . S
C145 C144 1.424 1_556 S
C145 C146 1.347 . S
C146 H138 0.951 . S
C146 C141 1.429 . S
C146 C145 1.347 . S
H147 C148 0.951 . S
C148 H147 0.951 . S
C148 C154 1.265 . S
H149 C154 0.950 . S
H150 C158 0.949 . S
H151 C159 0.950 . S
H152 C160 0.951 . S
H153 C161 0.951 . S
C154 C148 1.265 . S
C154 H149 0.950 . S
C154 C155 1.478 . S
C155 C142 1.394 . S
C155 C154 1.478 . S
C155 C156 1.397 . S
C156 C155 1.397 . S
C156 C157 1.438 1_554 S
C156 C161 1.429 . S
C157 C140 1.394 . S
C157 C156 1.438 1_556 S
C157 C158 1.428 . S
C158 H150 0.949 . S
C158 C157 1.428 . S
C158 C159 1.345 . S
C159 H151 0.950 . S
C159 C158 1.345 . S
C159 C160 1.424 1_556 S
C160 H152 0.951 . S
C160 C159 1.424 1_554 S
C160 C161 1.347 . S
C161 H153 0.951 . S
C161 C156 1.429 . S
C161 C160 1.347 . S
H162 C163 0.951 . S
C163 H162 0.951 . S
C163 C169 1.265 . S
H164 C169 0.950 . S
H165 C173 0.949 . S
H166 C174 0.950 . S
H167 C175 0.951 . S
H168 C176 0.951 . S
C169 C163 1.265 . S
C169 H164 0.950 . S
C169 C170 1.478 . S
C170 C169 1.478 . S
C170 C171 1.397 . S
C170 C187 1.394 . S
C171 C170 1.397 . S
C171 C172 1.438 . S
C171 C176 1.429 . S
C172 C171 1.438 . S
C172 C173 1.428 . S
C172 C185 1.394 . S
C173 H165 0.949 . S
C173 C172 1.428 . S
C173 C174 1.345 . S
C174 H166 0.950 . S
C174 C173 1.345 . S
C174 C175 1.424 . S
C175 H167 0.951 . S
C175 C174 1.424 . S
C175 C176 1.347 . S
C176 H168 0.951 . S
C176 C171 1.429 . S
C176 C175 1.347 . S
H177 C178 0.951 . S
C178 H177 0.951 . S
C178 C184 1.265 . S
H179 C184 0.950 . S
H180 C188 0.949 . S
H181 C189 0.950 . S
H182 C190 0.951 . S
H183 C191 0.951 . S
C184 C178 1.265 . S
C184 H179 0.950 . S
C184 C185 1.478 . S
C185 C172 1.394 . S
C185 C184 1.478 . S
C185 C186 1.397 . S
C186 C185 1.397 . S
C186 C187 1.438 . S
C186 C191 1.429 . S
C187 C170 1.394 . S
C187 C186 1.438 . S
C187 C188 1.428 . S
C188 H180 0.949 . S
C188 C187 1.428 . S
C188 C189 1.345 . S
C189 H181 0.950 . S
C189 C188 1.345 . S
C189 C190 1.424 . S
C190 H182 0.951 . S
C190 C189 1.424 . S
C190 C191 1.347 . S
C191 H183 0.951 . S
C191 C186 1.429 . S
C191 C190 1.347 . S
H192 C193 0.951 . S
C193 H192 0.951 . S
C193 C199 1.265 . S
H194 C199 0.950 . S
H195 C203 0.949 . S
H196 C204 0.950 . S
H197 C205 0.951 . S
H198 C206 0.951 . S
C199 C193 1.265 . S
C199 H194 0.950 . S
C199 C200 1.478 . S
C200 C199 1.478 . S
C200 C201 1.397 . S
C200 C217 1.394 . S
C201 C200 1.397 . S
C201 C202 1.438 . S
C201 C206 1.429 . S
C202 C201 1.438 . S
C202 C203 1.428 . S
C202 C215 1.394 . S
C203 H195 0.949 . S
C203 C202 1.428 . S
C203 C204 1.345 . S
C204 H196 0.950 . S
C204 C203 1.345 . S
C204 C205 1.424 . S
C205 H197 0.951 . S
C205 C204 1.424 . S
C205 C206 1.347 . S
C206 H198 0.951 . S
C206 C201 1.429 . S
C206 C205 1.347 . S
H207 C208 0.951 . S
C208 H207 0.951 . S
C208 C214 1.265 . S
H209 C214 0.950 . S
H210 C218 0.949 . S
H211 C219 0.950 . S
H212 C220 0.951 . S
H213 C221 0.951 . S
C214 C208 1.265 . S
C214 H209 0.950 . S
C214 C215 1.478 . S
C215 C202 1.394 . S
C215 C214 1.478 . S
C215 C216 1.397 . S
C216 C215 1.397 . S
C216 C217 1.438 . S
C216 C221 1.429 . S
C217 C200 1.394 . S
C217 C216 1.438 . S
C217 C218 1.428 . S
C218 H210 0.949 . S
C218 C217 1.428 . S
C218 C219 1.345 . S
C219 H211 0.950 . S
C219 C218 1.345 . S
C219 C220 1.424 . S
C220 H212 0.951 . S
C220 C219 1.424 . S
C220 C221 1.347 . S
C221 H213 0.951 . S
C221 C216 1.429 . S
C221 C220 1.347 . S
H222 C223 0.951 . S
C223 H222 0.951 . S
C223 C229 1.265 . S
H224 C229 0.950 . S
H225 C233 0.949 . S
H226 C234 0.950 . S
H227 C235 0.951 . S
H228 C236 0.951 . S
C229 C223 1.265 . S
C229 H224 0.950 . S
C229 C230 1.478 . S
C230 C229 1.478 . S
C230 C231 1.397 . S
C230 C247 1.394 . S
C231 C230 1.397 . S
C231 C232 1.438 1_554 S
C231 C236 1.429 . S
C232 C231 1.438 1_556 S
C232 C233 1.428 . S
C232 C245 1.394 . S
C233 H225 0.949 . S
C233 C232 1.428 . S
C233 C234 1.345 . S
C234 H226 0.950 . S
C234 C233 1.345 . S
C234 C235 1.424 1_556 S
C235 H227 0.951 . S
C235 C234 1.424 1_554 S
C235 C236 1.347 . S
C236 H228 0.951 . S
C236 C231 1.429 . S
C236 C235 1.347 . S
H237 C238 0.951 . S
C238 H237 0.951 . S
C238 C244 1.265 . S
H239 C244 0.950 . S
H240 C248 0.949 . S
H241 C249 0.950 . S
H242 C250 0.951 . S
H243 C251 0.951 . S
C244 C238 1.265 . S
C244 H239 0.950 . S
C244 C245 1.478 . S
C245 C232 1.394 . S
C245 C244 1.478 . S
C245 C246 1.397 . S
C246 C245 1.397 . S
C246 C247 1.438 1_556 S
C246 C251 1.429 . S
C247 C230 1.394 . S
C247 C246 1.438 1_554 S
C247 C248 1.428 . S
C248 H240 0.949 . S
C248 C247 1.428 . S
C248 C249 1.345 . S
C249 H241 0.950 . S
C249 C248 1.345 . S
C249 C250 1.424 1_554 S
C250 H242 0.951 . S
C250 C249 1.424 1_556 S
C250 C251 1.347 . S
C251 H243 0.951 . S
C251 C246 1.429 . S
C251 C250 1.347 . S
H252 C253 0.951 . S
C253 H252 0.951 . S
C253 C259 1.265 . S
H254 C259 0.950 . S
H255 C263 0.949 . S
H256 C264 0.950 . S
H257 C265 0.951 . S
H258 C266 0.951 . S
C259 C253 1.265 . S
C259 H254 0.950 . S
C259 C260 1.478 . S
C260 C259 1.478 . S
C260 C261 1.397 . S
C260 C277 1.394 . S
C261 C260 1.397 . S
C261 C262 1.438 . S
C261 C266 1.429 . S
C262 C261 1.438 . S
C262 C263 1.428 . S
C262 C275 1.394 . S
C263 H255 0.949 . S
C263 C262 1.428 . S
C263 C264 1.345 . S
C264 H256 0.950 . S
C264 C263 1.345 . S
C264 C265 1.424 . S
C265 H257 0.951 . S
C265 C264 1.424 . S
C265 C266 1.347 . S
C266 H258 0.951 . S
C266 C261 1.429 . S
C266 C265 1.347 . S
H267 C268 0.951 . S
C268 H267 0.951 . S
C268 C274 1.265 . S
H269 C274 0.950 . S
H270 C278 0.949 . S
H271 C279 0.950 . S
H272 C280 0.951 . S
H273 C281 0.951 . S
C274 C268 1.265 . S
C274 H269 0.950 . S
C274 C275 1.478 . S
C275 C262 1.394 . S
C275 C274 1.478 . S
C275 C276 1.397 . S
C276 C275 1.397 . S
C276 C277 1.438 . S
C276 C281 1.429 . S
C277 C260 1.394 . S
C277 C276 1.438 . S
C277 C278 1.428 . S
C278 H270 0.949 . S
C278 C277 1.428 . S
C278 C279 1.345 . S
C279 H271 0.950 . S
C279 C278 1.345 . S
C279 C280 1.424 . S
C280 H272 0.951 . S
C280 C279 1.424 . S
C280 C281 1.347 . S
C281 H273 0.951 . S
C281 C276 1.429 . S
C281 C280 1.347 . S
H282 C283 0.951 . S
C283 H282 0.951 . S
C283 C289 1.265 . S
H284 C289 0.950 . S
H285 C293 0.949 . S
H286 C294 0.950 . S
H287 C295 0.951 . S
H288 C296 0.951 . S
C289 C283 1.265 . S
C289 H284 0.950 . S
C289 C290 1.478 . S
C290 C289 1.478 . S
C290 C291 1.397 . S
C290 C307 1.394 . S
C291 C290 1.397 . S
C291 C292 1.438 . S
C291 C296 1.429 . S
C292 C291 1.438 . S
C292 C293 1.428 . S
C292 C305 1.394 . S
C293 H285 0.949 . S
C293 C292 1.428 . S
C293 C294 1.345 . S
C294 H286 0.950 . S
C294 C293 1.345 . S
C294 C295 1.424 . S
C295 H287 0.951 . S
C295 C294 1.424 . S
C295 C296 1.347 . S
C296 H288 0.951 . S
C296 C291 1.429 . S
C296 C295 1.347 . S
H297 C298 0.951 . S
C298 H297 0.951 . S
C298 C304 1.265 . S
H299 C304 0.950 . S
H300 C308 0.949 . S
H301 C309 0.950 . S
H302 C310 0.951 . S
H303 C311 0.951 . S
C304 C298 1.265 . S
C304 H299 0.950 . S
C304 C305 1.478 . S
C305 C292 1.394 . S
C305 C304 1.478 . S
C305 C306 1.397 . S
C306 C305 1.397 . S
C306 C307 1.438 . S
C306 C311 1.429 . S
C307 C290 1.394 . S
C307 C306 1.438 . S
C307 C308 1.428 . S
C308 H300 0.949 . S
C308 C307 1.428 . S
C308 C309 1.345 . S
C309 H301 0.950 . S
C309 C308 1.345 . S
C309 C310 1.424 . S
C310 H302 0.951 . S
C310 C309 1.424 . S
C310 C311 1.347 . S
C311 H303 0.951 . S
C311 C306 1.429 . S
C311 C310 1.347 . S
H312 C313 0.951 . S
C313 H312 0.951 . S
C313 C319 1.265 . S
H314 C319 0.950 . S
H315 C323 0.949 . S
H316 C324 0.950 . S
H317 C325 0.951 . S
H318 C326 0.951 . S
C319 C313 1.265 . S
C319 H314 0.950 . S
C319 C320 1.478 . S
C320 C319 1.478 . S
C320 C321 1.397 . S
C320 C337 1.394 . S
C321 C320 1.397 . S
C321 C322 1.438 . S
C321 C326 1.429 . S
C322 C321 1.438 . S
C322 C323 1.428 . S
C322 C335 1.394 . S
C323 H315 0.949 . S
C323 C322 1.428 . S
C323 C324 1.345 . S
C324 H316 0.950 . S
C324 C323 1.345 . S
C324 C325 1.424 . S
C325 H317 0.951 . S
C325 C324 1.424 . S
C325 C326 1.347 . S
C326 H318 0.951 . S
C326 C321 1.429 . S
C326 C325 1.347 . S
H327 C328 0.951 . S
C328 H327 0.951 . S
C328 C334 1.265 . S
H329 C334 0.950 . S
H330 C338 0.949 . S
H331 C339 0.950 . S
H332 C340 0.951 . S
H333 C341 0.951 . S
C334 C328 1.265 . S
C334 H329 0.950 . S
C334 C335 1.478 . S
C335 C322 1.394 . S
C335 C334 1.478 . S
C335 C336 1.397 . S
C336 C335 1.397 . S
C336 C337 1.438 . S
C336 C341 1.429 . S
C337 C320 1.394 . S
C337 C336 1.438 . S
C337 C338 1.428 . S
C338 H330 0.949 . S
C338 C337 1.428 . S
C338 C339 1.345 . S
C339 H331 0.950 . S
C339 C338 1.345 . S
C339 C340 1.424 . S
C340 H332 0.951 . S
C340 C339 1.424 . S
C340 C341 1.347 . S
C341 H333 0.951 . S
C341 C336 1.429 . S
C341 C340 1.347 . S
H342 C343 0.951 . S
C343 H342 0.951 . S
C343 C349 1.265 . S
H344 C349 0.950 . S
H345 C353 0.949 . S
H346 C354 0.950 . S
H347 C355 0.951 . S
H348 C356 0.951 . S
C349 C343 1.265 . S
C349 H344 0.950 . S
C349 C350 1.478 . S
C350 C349 1.478 . S
C350 C351 1.397 . S
C350 C367 1.394 . S
C351 C350 1.397 . S
C351 C352 1.438 1_655 S
C351 C356 1.429 . S
C352 C351 1.438 1_455 S
C352 C353 1.428 . S
C352 C365 1.394 . S
C353 H345 0.949 . S
C353 C352 1.428 . S
C353 C354 1.345 . S
C354 H346 0.950 . S
C354 C353 1.345 . S
C354 C355 1.424 1_455 S
C355 H347 0.951 . S
C355 C354 1.424 1_655 S
C355 C356 1.347 . S
C356 H348 0.951 . S
C356 C351 1.429 . S
C356 C355 1.347 . S
H357 C358 0.951 . S
C358 H357 0.951 . S
C358 C364 1.265 . S
H359 C364 0.950 . S
H360 C368 0.949 . S
H361 C369 0.950 . S
H362 C370 0.951 . S
H363 C371 0.951 . S
C364 C358 1.265 . S
C364 H359 0.950 . S
C364 C365 1.478 . S
C365 C352 1.394 . S
C365 C364 1.478 . S
C365 C366 1.397 . S
C366 C365 1.397 . S
C366 C367 1.438 1_455 S
C366 C371 1.429 . S
C367 C350 1.394 . S
C367 C366 1.438 1_655 S
C367 C368 1.428 . S
C368 H360 0.949 . S
C368 C367 1.428 . S
C368 C369 1.345 . S
C369 H361 0.950 . S
C369 C368 1.345 . S
C369 C370 1.424 1_655 S
C370 H362 0.951 . S
C370 C369 1.424 1_455 S
C370 C371 1.347 . S
C371 H363 0.951 . S
C371 C366 1.429 . S
C371 C370 1.347 . S
H372 C373 0.951 . S
C373 H372 0.951 . S
C373 C379 1.265 . S
H374 C379 0.950 . S
H375 C383 0.949 . S
H376 C384 0.950 . S
H377 C385 0.951 . S
H378 C386 0.951 . S
C379 C373 1.265 . S
C379 H374 0.950 . S
C379 C380 1.478 . S
C380 C379 1.478 . S
C380 C381 1.397 . S
C380 C397 1.394 . S
C381 C380 1.397 . S
C381 C382 1.438 1_545 S
C381 C386 1.429 . S
C382 C381 1.438 1_565 S
C382 C383 1.428 . S
C382 C395 1.394 . S
C383 H375 0.949 . S
C383 C382 1.428 . S
C383 C384 1.345 1_565 S
C384 H376 0.950 . S
C384 C383 1.345 1_545 S
C384 C385 1.424 . S
C385 H377 0.951 . S
C385 C384 1.424 . S
C385 C386 1.347 . S
C386 H378 0.951 . S
C386 C381 1.429 . S
C386 C385 1.347 . S
H387 C388 0.951 . S
C388 H387 0.951 . S
C388 C394 1.265 . S
H389 C394 0.950 . S
H390 C398 0.949 . S
H391 C399 0.950 . S
H392 C400 0.951 . S
H393 C401 0.951 . S
C394 C388 1.265 . S
C394 H389 0.950 . S
C394 C395 1.478 . S
C395 C382 1.394 . S
C395 C394 1.478 . S
C395 C396 1.397 . S
C396 C395 1.397 . S
C396 C397 1.438 1_565 S
C396 C401 1.429 . S
C397 C380 1.394 . S
C397 C396 1.438 1_545 S
C397 C398 1.428 . S
C398 H390 0.949 . S
C398 C397 1.428 . S
C398 C399 1.345 1_545 S
C399 H391 0.950 . S
C399 C398 1.345 1_565 S
C399 C400 1.424 . S
C400 H392 0.951 . S
C400 C399 1.424 . S
C400 C401 1.347 . S
C401 H393 0.951 . S
C401 C396 1.429 . S
C401 C400 1.347 . S
H402 C403 0.951 . S
C403 H402 0.951 . S
C403 C409 1.265 . S
H404 C409 0.950 . S
H405 C413 0.949 . S
H406 C414 0.950 . S
H407 C415 0.951 . S
H408 C416 0.951 . S
C409 C403 1.265 . S
C409 H404 0.950 . S
C409 C410 1.478 . S
C410 C409 1.478 . S
C410 C411 1.397 . S
C410 C427 1.394 . S
C411 C410 1.397 . S
C411 C412 1.438 . S
C411 C416 1.429 . S
C412 C411 1.438 . S
C412 C413 1.428 . S
C412 C425 1.394 . S
C413 H405 0.949 . S
C413 C412 1.428 . S
C413 C414 1.345 . S
C414 H406 0.950 . S
C414 C413 1.345 . S
C414 C415 1.424 . S
C415 H407 0.951 . S
C415 C414 1.424 . S
C415 C416 1.347 . S
C416 H408 0.951 . S
C416 C411 1.429 . S
C416 C415 1.347 . S
H417 C418 0.951 . S
C418 H417 0.951 . S
C418 C424 1.265 . S
H419 C424 0.950 . S
H420 C428 0.949 . S
H421 C429 0.950 . S
H422 C430 0.951 . S
H423 C431 0.951 . S
C424 C418 1.265 . S
C424 H419 0.950 . S
C424 C425 1.478 . S
C425 C412 1.394 . S
C425 C424 1.478 . S
C425 C426 1.397 . S
C426 C425 1.397 . S
C426 C427 1.438 . S
C426 C431 1.429 . S
C427 C410 1.394 . S
C427 C426 1.438 . S
C427 C428 1.428 . S
C428 H420 0.949 . S
C428 C427 1.428 . S
C428 C429 1.345 . S
C429 H421 0.950 . S
C429 C428 1.345 . S
C429 C430 1.424 . S
C430 H422 0.951 . S
C430 C429 1.424 . S
C430 C431 1.347 . S
C431 H423 0.951 . S
C431 C426 1.429 . S
C431 C430 1.347 . S
H432 C433 0.951 . S
C433 H432 0.951 . S
C433 C439 1.265 . S
H434 C439 0.950 . S
H435 C443 0.949 . S
H436 C444 0.950 . S
H437 C445 0.951 . S
H438 C446 0.951 . S
C439 C433 1.265 . S
C439 H434 0.950 . S
C439 C440 1.478 . S
C440 C439 1.478 . S
C440 C441 1.397 . S
C440 C457 1.394 . S
C441 C440 1.397 . S
C441 C442 1.438 1_455 S
C441 C446 1.429 . S
C442 C441 1.438 1_655 S
C442 C443 1.428 . S
C442 C455 1.394 . S
C443 H435 0.949 . S
C443 C442 1.428 . S
C443 C444 1.345 1_655 S
C444 H436 0.950 . S
C444 C443 1.345 1_455 S
C444 C445 1.424 . S
C445 H437 0.951 . S
C445 C444 1.424 . S
C445 C446 1.347 . S
C446 H438 0.951 . S
C446 C441 1.429 . S
C446 C445 1.347 . S
H447 C448 0.951 . S
C448 H447 0.951 . S
C448 C454 1.265 . S
H449 C454 0.950 . S
H450 C458 0.949 . S
H451 C459 0.950 . S
H452 C460 0.951 . S
H453 C461 0.951 . S
C454 C448 1.265 . S
C454 H449 0.950 . S
C454 C455 1.478 . S
C455 C442 1.394 . S
C455 C454 1.478 . S
C455 C456 1.397 . S
C456 C455 1.397 . S
C456 C457 1.438 1_655 S
C456 C461 1.429 . S
C457 C440 1.394 . S
C457 C456 1.438 1_455 S
C457 C458 1.428 . S
C458 H450 0.949 . S
C458 C457 1.428 . S
C458 C459 1.345 1_455 S
C459 H451 0.950 . S
C459 C458 1.345 1_655 S
C459 C460 1.424 . S
C460 H452 0.951 . S
C460 C459 1.424 . S
C460 C461 1.347 . S
C461 H453 0.951 . S
C461 C456 1.429 . S
C461 C460 1.347 . S
H462 C463 0.951 . S
C463 H462 0.951 . S
C463 C469 1.265 . S
H464 C469 0.950 . S
H465 C473 0.949 . S
H466 C474 0.950 . S
H467 C475 0.951 . S
H468 C476 0.951 . S
C469 C463 1.265 . S
C469 H464 0.950 . S
C469 C470 1.478 . S
C470 C469 1.478 . S
C470 C471 1.397 . S
C470 C487 1.394 . S
C471 C470 1.397 . S
C471 C472 1.438 1_565 S
C471 C476 1.429 . S
C472 C471 1.438 1_545 S
C472 C473 1.428 . S
C472 C485 1.394 . S
C473 H465 0.949 . S
C473 C472 1.428 . S
C473 C474 1.345 . S
C474 H466 0.950 . S
C474 C473 1.345 . S
C474 C475 1.424 . S
C475 H467 0.951 . S
C475 C474 1.424 . S
C475 C476 1.347 1_545 S
C476 H468 0.951 . S
C476 C471 1.429 . S
C476 C475 1.347 1_565 S
H477 C478 0.951 . S
C478 H477 0.951 . S
C478 C484 1.265 . S
H479 C484 0.950 . S
H480 C488 0.949 . S
H481 C489 0.950 . S
H482 C490 0.951 . S
H483 C491 0.951 . S
C484 C478 1.265 . S
C484 H479 0.950 . S
C484 C485 1.478 . S
C485 C472 1.394 . S
C485 C484 1.478 . S
C485 C486 1.397 . S
C486 C485 1.397 . S
C486 C487 1.438 1_545 S
C486 C491 1.429 . S
C487 C470 1.394 . S
C487 C486 1.438 1_565 S
C487 C488 1.428 . S
C488 H480 0.949 . S
C488 C487 1.428 . S
C488 C489 1.345 . S
C489 H481 0.950 . S
C489 C488 1.345 . S
C489 C490 1.424 . S
C490 H482 0.951 . S
C490 C489 1.424 . S
C490 C491 1.347 1_565 S
C491 H483 0.951 . S
C491 C486 1.429 . S
C491 C490 1.347 1_545 S
H492 C493 0.951 . S
C493 H492 0.951 . S
C493 C499 1.265 . S
H494 C499 0.950 . S
H495 C503 0.949 . S
H496 C504 0.950 . S
H497 C505 0.951 . S
H498 C506 0.951 . S
C499 C493 1.265 . S
C499 H494 0.950 . S
C499 C500 1.478 . S
C500 C499 1.478 . S
C500 C501 1.397 . S
C500 C517 1.394 . S
C501 C500 1.397 . S
C501 C502 1.438 1_655 S
C501 C506 1.429 . S
C502 C501 1.438 1_455 S
C502 C503 1.428 . S
C502 C515 1.394 . S
C503 H495 0.949 . S
C503 C502 1.428 . S
C503 C504 1.345 1_455 S
C504 H496 0.950 . S
C504 C503 1.345 1_655 S
C504 C505 1.424 . S
C505 H497 0.951 . S
C505 C504 1.424 . S
C505 C506 1.347 . S
C506 H498 0.951 . S
C506 C501 1.429 . S
C506 C505 1.347 . S
H507 C508 0.951 . S
C508 H507 0.951 . S
C508 C514 1.265 . S
H509 C514 0.950 . S
H510 C518 0.949 . S
H511 C519 0.950 . S
H512 C520 0.951 . S
H513 C521 0.951 . S
C514 C508 1.265 . S
C514 H509 0.950 . S
C514 C515 1.478 . S
C515 C502 1.394 . S
C515 C514 1.478 . S
C515 C516 1.397 . S
C516 C515 1.397 . S
C516 C517 1.438 1_455 S
C516 C521 1.429 . S
C517 C500 1.394 . S
C517 C516 1.438 1_655 S
C517 C518 1.428 . S
C518 H510 0.949 . S
C518 C517 1.428 . S
C518 C519 1.345 1_655 S
C519 H511 0.950 . S
C519 C518 1.345 1_455 S
C519 C520 1.424 . S
C520 H512 0.951 . S
C520 C519 1.424 . S
C520 C521 1.347 . S
C521 H513 0.951 . S
C521 C516 1.429 . S
C521 C520 1.347 . S
H522 C523 0.951 . S
C523 H522 0.951 . S
C523 C529 1.265 . S
H524 C529 0.950 . S
H525 C533 0.949 . S
H526 C534 0.950 . S
H527 C535 0.951 . S
H528 C536 0.951 . S
C529 C523 1.265 . S
C529 H524 0.950 . S
C529 C530 1.478 . S
C530 C529 1.478 . S
C530 C531 1.397 . S
C530 C547 1.394 . S
C531 C530 1.397 . S
C531 C532 1.438 1_565 S
C531 C536 1.429 . S
C532 C531 1.438 1_545 S
C532 C533 1.428 . S
C532 C545 1.394 . S
C533 H525 0.949 . S
C533 C532 1.428 . S
C533 C534 1.345 . S
C534 H526 0.950 . S
C534 C533 1.345 . S
C534 C535 1.424 . S
C535 H527 0.951 . S
C535 C534 1.424 . S
C535 C536 1.347 1_545 S
C536 H528 0.951 . S
C536 C531 1.429 . S
C536 C535 1.347 1_565 S
H537 C538 0.951 . S
C538 H537 0.951 . S
C538 C544 1.265 . S
H539 C544 0.950 . S
H540 C548 0.949 . S
H541 C549 0.950 . S
H542 C550 0.951 . S
H543 C551 0.951 . S
C544 C538 1.265 . S
C544 H539 0.950 . S
C544 C545 1.478 . S
C545 C532 1.394 . S
C545 C544 1.478 . S
C545 C546 1.397 . S
C546 C545 1.397 . S
C546 C547 1.438 1_545 S
C546 C551 1.429 . S
C547 C530 1.394 . S
C547 C546 1.438 1_565 S
C547 C548 1.428 . S
C548 H540 0.949 . S
C548 C547 1.428 . S
C548 C549 1.345 . S
C549 H541 0.950 . S
C549 C548 1.345 . S
C549 C550 1.424 . S
C550 H542 0.951 . S
C550 C549 1.424 . S
C550 C551 1.347 1_565 S
C551 H543 0.951 . S
C551 C546 1.429 . S
C551 C550 1.347 1_545 S
H552 C553 0.951 . S
C553 H552 0.951 . S
C553 C559 1.265 . S
H554 C559 0.950 . S
H555 C563 0.949 . S
H556 C564 0.950 . S
H557 C565 0.951 . S
H558 C566 0.951 . S
C559 C553 1.265 . S
C559 H554 0.950 . S
C559 C560 1.478 . S
C560 C559 1.478 . S
C560 C561 1.397 . S
C560 C577 1.394 . S
C561 C560 1.397 . S
C561 C562 1.438 . S
C561 C566 1.429 . S
C562 C561 1.438 . S
C562 C563 1.428 . S
C562 C575 1.394 . S
C563 H555 0.949 . S
C563 C562 1.428 . S
C563 C564 1.345 . S
C564 H556 0.950 . S
C564 C563 1.345 . S
C564 C565 1.424 . S
C565 H557 0.951 . S
C565 C564 1.424 . S
C565 C566 1.347 . S
C566 H558 0.951 . S
C566 C561 1.429 . S
C566 C565 1.347 . S
H567 C568 0.951 . S
C568 H567 0.951 . S
C568 C574 1.265 . S
H569 C574 0.950 . S
H570 C578 0.949 . S
H571 C579 0.950 . S
H572 C580 0.951 . S
H573 C581 0.951 . S
C574 C568 1.265 . S
C574 H569 0.950 . S
C574 C575 1.478 . S
C575 C562 1.394 . S
C575 C574 1.478 . S
C575 C576 1.397 . S
C576 C575 1.397 . S
C576 C577 1.438 . S
C576 C581 1.429 . S
C577 C560 1.394 . S
C577 C576 1.438 . S
C577 C578 1.428 . S
C578 H570 0.949 . S
C578 C577 1.428 . S
C578 C579 1.345 . S
C579 H571 0.950 . S
C579 C578 1.345 . S
C579 C580 1.424 . S
C580 H572 0.951 . S
C580 C579 1.424 . S
C580 C581 1.347 . S
C581 H573 0.951 . S
C581 C576 1.429 . S
C581 C580 1.347 . S
H582 C583 0.951 . S
C583 H582 0.951 . S
C583 C589 1.265 . S
H584 C589 0.950 . S
H585 C593 0.949 . S
H586 C594 0.950 . S
H587 C595 0.951 . S
H588 C596 0.951 . S
C589 C583 1.265 . S
C589 H584 0.950 . S
C589 C590 1.478 . S
C590 C589 1.478 . S
C590 C591 1.397 . S
C590 C607 1.394 . S
C591 C590 1.397 . S
C591 C592 1.438 1_655 S
C591 C596 1.429 . S
C592 C591 1.438 1_455 S
C592 C593 1.428 . S
C592 C605 1.394 . S
C593 H585 0.949 . S
C593 C592 1.428 . S
C593 C594 1.345 . S
C594 H586 0.950 . S
C594 C593 1.345 . S
C594 C595 1.424 1_455 S
C595 H587 0.951 . S
C595 C594 1.424 1_655 S
C595 C596 1.347 . S
C596 H588 0.951 . S
C596 C591 1.429 . S
C596 C595 1.347 . S
H597 C598 0.951 . S
C598 H597 0.951 . S
C598 C604 1.265 . S
H599 C604 0.950 . S
H600 C608 0.949 . S
H601 C609 0.950 . S
H602 C610 0.951 . S
H603 C611 0.951 . S
C604 C598 1.265 . S
C604 H599 0.950 . S
C604 C605 1.478 . S
C605 C592 1.394 . S
C605 C604 1.478 . S
C605 C606 1.397 . S
C606 C605 1.397 . S
C606 C607 1.438 1_455 S
C606 C611 1.429 . S
C607 C590 1.394 . S
C607 C606 1.438 1_655 S
C607 C608 1.428 . S
C608 H600 0.949 . S
C608 C607 1.428 . S
C608 C609 1.345 . S
C609 H601 0.950 . S
C609 C608 1.345 . S
C609 C610 1.424 1_655 S
C610 H602 0.951 . S
C610 C609 1.424 1_455 S
C610 C611 1.347 . S
C611 H603 0.951 . S
C611 C606 1.429 . S
C611 C610 1.347 . S
H612 C613 0.951 . S
C613 H612 0.951 . S
C613 C619 1.265 . S
H614 C619 0.950 . S
H615 C623 0.949 . S
H616 C624 0.950 . S
H617 C625 0.951 . S
H618 C626 0.965 . S
C619 C613 1.265 . S
C619 H614 0.950 . S
C619 C620 1.478 . S
C620 C619 1.478 . S
C620 C621 1.397 1_565 S
C620 C637 1.394 . S
C621 C620 1.397 1_545 S
C621 C622 1.438 . S
C621 C626 1.429 . S
C622 C621 1.438 . S
C622 C623 1.428 . S
C622 C635 1.394 . S
C623 H615 0.949 . S
C623 C622 1.428 . S
C623 C624 1.345 . S
C624 H616 0.950 . S
C624 C623 1.345 . S
C624 C625 1.424 . S
C625 H617 0.951 . S
C625 C624 1.424 . S
C625 C626 1.347 . S
C626 H618 0.965 . S
C626 C621 1.429 . S
C626 C625 1.347 . S
H627 C628 0.951 . S
C628 H627 0.951 . S
C628 C634 1.265 . S
H629 C634 0.950 . S
H630 C638 0.949 . S
H631 C639 0.950 . S
H632 C640 0.951 . S
H633 C641 0.966 . S
C634 C628 1.265 . S
C634 H629 0.950 . S
C634 C635 1.478 . S
C635 C622 1.394 . S
C635 C634 1.478 . S
C635 C636 1.397 1_545 S
C636 C635 1.397 1_565 S
C636 C637 1.438 . S
C636 C641 1.429 . S
C637 C620 1.394 . S
C637 C636 1.438 . S
C637 C638 1.428 . S
C638 H630 0.949 . S
C638 C637 1.428 . S
C638 C639 1.345 . S
C639 H631 0.950 . S
C639 C638 1.345 . S
C639 C640 1.424 . S
C640 H632 0.951 . S
C640 C639 1.424 . S
C640 C641 1.347 . S
C641 H633 0.966 . S
C641 C636 1.429 . S
C641 C640 1.347 . S
H642 C643 0.951 . S
C643 H642 0.951 . S
C643 C649 1.265 . S
H644 C649 0.950 . S
H645 C653 0.949 . S
H646 C654 0.950 . S
H647 C655 0.951 . S
H648 C656 0.951 . S
C649 C643 1.265 . S
C649 H644 0.950 . S
C649 C650 1.478 . S
C650 C649 1.478 . S
C650 C651 1.397 . S
C650 C667 1.394 . S
C651 C650 1.397 . S
C651 C652 1.438 . S
C651 C656 1.429 . S
C652 C651 1.438 . S
C652 C653 1.428 . S
C652 C665 1.394 . S
C653 H645 0.949 . S
C653 C652 1.428 . S
C653 C654 1.345 . S
C654 H646 0.950 . S
C654 C653 1.345 . S
C654 C655 1.424 . S
C655 H647 0.951 . S
C655 C654 1.424 . S
C655 C656 1.347 . S
C656 H648 0.951 . S
C656 C651 1.429 . S
C656 C655 1.347 . S
H657 C658 0.951 . S
C658 H657 0.951 . S
C658 C664 1.265 . S
H659 C664 0.950 . S
H660 C668 0.949 . S
H661 C669 0.950 . S
H662 C670 0.951 . S
H663 C671 0.951 . S
C664 C658 1.265 . S
C664 H659 0.950 . S
C664 C665 1.478 . S
C665 C652 1.394 . S
C665 C664 1.478 . S
C665 C666 1.397 . S
C666 C665 1.397 . S
C666 C667 1.438 . S
C666 C671 1.429 . S
C667 C650 1.394 . S
C667 C666 1.438 . S
C667 C668 1.428 . S
C668 H660 0.949 . S
C668 C667 1.428 . S
C668 C669 1.345 . S
C669 H661 0.950 . S
C669 C668 1.345 . S
C669 C670 1.424 . S
C670 H662 0.951 . S
C670 C669 1.424 . S
C670 C671 1.347 . S
C671 H663 0.951 . S
C671 C666 1.429 . S
C671 C670 1.347 . S
C133 C117 1.462 . S
C148 C7 1.464 . S
C163 C128 1.414 . S
C178 C18 1.467 . S
C193 C29 1.493 . S
C208 C73 1.418 . S
C223 C40 1.454 . S
C238 C84 1.424 . S
C253 C95 1.490 . S
C268 C51 1.427 . S
C283 C106 1.415 . S
C298 C62 1.494 . S
C313 C38 1.177 . S
C328 C5 1.214 . S
C343 C16 1.182 . S
C358 C49 1.193 . S
C373 C60 1.188 . S
C388 C27 1.186 . S
C403 C104 1.178 . S
C418 C71 1.207 . S
C433 C115 1.201 . S
C448 C82 1.179 . S
C463 C93 1.182 . S
C478 C126 1.240 . S
C493 C129 1.509 . S
C508 C8 1.475 . S
C523 C74 1.461 . S
C538 C19 1.498 . S
C553 C30 1.478 . S
C568 C85 1.469 . S
C583 C41 1.505 . S
C598 C96 1.485 . S
C613 C52 1.472 . S
C628 C107 1.509 . S
C643 C63 1.471 . S
C658 C118 1.477 . S
