# Generated by pormake.
# Topology smd, (6)-cn, num edge types: 1
# Building blocks:
#     Node 0, Type 0, BuildingBlock: IZENUY_clean_sbu_0, # of connection points: 6
#     Node 1, Type 0, BuildingBlock: IZENUY_clean_sbu_0, # of connection points: 6
#     Node 2, Type 0, BuildingBlock: IZENUY_clean_sbu_0, # of connection points: 6
#     Node 3, Type 0, BuildingBlock: IZENUY_clean_sbu_0, # of connection points: 6
#     Node 4, Type 0, BuildingBlock: IZENUY_clean_sbu_0, # of connection points: 6
#     Node 5, Type 0, BuildingBlock: IZENUY_clean_sbu_0, # of connection points: 6
#     Node 6, Type 0, BuildingBlock: IZENUY_clean_sbu_0, # of connection points: 6
#     Node 7, Type 0, BuildingBlock: IZENUY_clean_sbu_0, # of connection points: 6
#     Node 8, Type 0, BuildingBlock: IZENUY_clean_sbu_0, # of connection points: 6
#     Node 9, Type 0, BuildingBlock: IZENUY_clean_sbu_0, # of connection points: 6
#     Node 10, Type 0, BuildingBlock: IZENUY_clean_sbu_0, # of connection points: 6
#     Node 11, Type 0, BuildingBlock: IZENUY_clean_sbu_0, # of connection points: 6
#     Node 12, Type 0, BuildingBlock: IZENUY_clean_sbu_0, # of connection points: 6
#     Node 13, Type 0, BuildingBlock: IZENUY_clean_sbu_0, # of connection points: 6
#     Node 14, Type 0, BuildingBlock: IZENUY_clean_sbu_0, # of connection points: 6
#     Node 15, Type 0, BuildingBlock: IZENUY_clean_sbu_0, # of connection points: 6
#     Node 16, Type 0, BuildingBlock: IZENUY_clean_sbu_0, # of connection points: 6
#     Node 17, Type 0, BuildingBlock: IZENUY_clean_sbu_0, # of connection points: 6
#     Edge 18, Type (0, 0), BuildingBlock: UVAHIK_clean_linker_0, # of connection points: 2
#     Edge 19, Type (0, 0), BuildingBlock: UVAHIK_clean_linker_0, # of connection points: 2
#     Edge 20, Type (0, 0), BuildingBlock: UVAHIK_clean_linker_0, # of connection points: 2
#     Edge 21, Type (0, 0), BuildingBlock: UVAHIK_clean_linker_0, # of connection points: 2
#     Edge 22, Type (0, 0), BuildingBlock: UVAHIK_clean_linker_0, # of connection points: 2
#     Edge 23, Type (0, 0), BuildingBlock: UVAHIK_clean_linker_0, # of connection points: 2
#     Edge 24, Type (0, 0), BuildingBlock: UVAHIK_clean_linker_0, # of connection points: 2
#     Edge 25, Type (0, 0), BuildingBlock: UVAHIK_clean_linker_0, # of connection points: 2
#     Edge 26, Type (0, 0), BuildingBlock: UVAHIK_clean_linker_0, # of connection points: 2
#     Edge 27, Type (0, 0), BuildingBlock: UVAHIK_clean_linker_0, # of connection points: 2
#     Edge 28, Type (0, 0), BuildingBlock: UVAHIK_clean_linker_0, # of connection points: 2
#     Edge 29, Type (0, 0), BuildingBlock: UVAHIK_clean_linker_0, # of connection points: 2
#     Edge 30, Type (0, 0), BuildingBlock: UVAHIK_clean_linker_0, # of connection points: 2
#     Edge 31, Type (0, 0), BuildingBlock: UVAHIK_clean_linker_0, # of connection points: 2
#     Edge 32, Type (0, 0), BuildingBlock: UVAHIK_clean_linker_0, # of connection points: 2
#     Edge 33, Type (0, 0), BuildingBlock: UVAHIK_clean_linker_0, # of connection points: 2
#     Edge 34, Type (0, 0), BuildingBlock: UVAHIK_clean_linker_0, # of connection points: 2
#     Edge 35, Type (0, 0), BuildingBlock: UVAHIK_clean_linker_0, # of connection points: 2
#     Edge 36, Type (0, 0), BuildingBlock: UVAHIK_clean_linker_0, # of connection points: 2
#     Edge 37, Type (0, 0), BuildingBlock: UVAHIK_clean_linker_0, # of connection points: 2
#     Edge 38, Type (0, 0), BuildingBlock: UVAHIK_clean_linker_0, # of connection points: 2
#     Edge 39, Type (0, 0), BuildingBlock: UVAHIK_clean_linker_0, # of connection points: 2
#     Edge 40, Type (0, 0), BuildingBlock: UVAHIK_clean_linker_0, # of connection points: 2
#     Edge 41, Type (0, 0), BuildingBlock: UVAHIK_clean_linker_0, # of connection points: 2
#     Edge 42, Type (0, 0), BuildingBlock: UVAHIK_clean_linker_0, # of connection points: 2
#     Edge 43, Type (0, 0), BuildingBlock: UVAHIK_clean_linker_0, # of connection points: 2
#     Edge 44, Type (0, 0), BuildingBlock: UVAHIK_clean_linker_0, # of connection points: 2
#     Edge 45, Type (0, 0), BuildingBlock: UVAHIK_clean_linker_0, # of connection points: 2
#     Edge 46, Type (0, 0), BuildingBlock: UVAHIK_clean_linker_0, # of connection points: 2
#     Edge 47, Type (0, 0), BuildingBlock: UVAHIK_clean_linker_0, # of connection points: 2
#     Edge 48, Type (0, 0), BuildingBlock: UVAHIK_clean_linker_0, # of connection points: 2
#     Edge 49, Type (0, 0), BuildingBlock: UVAHIK_clean_linker_0, # of connection points: 2
#     Edge 50, Type (0, 0), BuildingBlock: UVAHIK_clean_linker_0, # of connection points: 2
#     Edge 51, Type (0, 0), BuildingBlock: UVAHIK_clean_linker_0, # of connection points: 2
#     Edge 52, Type (0, 0), BuildingBlock: UVAHIK_clean_linker_0, # of connection points: 2
#     Edge 53, Type (0, 0), BuildingBlock: UVAHIK_clean_linker_0, # of connection points: 2
#     Edge 54, Type (0, 0), BuildingBlock: UVAHIK_clean_linker_0, # of connection points: 2
#     Edge 55, Type (0, 0), BuildingBlock: UVAHIK_clean_linker_0, # of connection points: 2
#     Edge 56, Type (0, 0), BuildingBlock: UVAHIK_clean_linker_0, # of connection points: 2
#     Edge 57, Type (0, 0), BuildingBlock: UVAHIK_clean_linker_0, # of connection points: 2
#     Edge 58, Type (0, 0), BuildingBlock: UVAHIK_clean_linker_0, # of connection points: 2
#     Edge 59, Type (0, 0), BuildingBlock: UVAHIK_clean_linker_0, # of connection points: 2
#     Edge 60, Type (0, 0), BuildingBlock: UVAHIK_clean_linker_0, # of connection points: 2
#     Edge 61, Type (0, 0), BuildingBlock: UVAHIK_clean_linker_0, # of connection points: 2
#     Edge 62, Type (0, 0), BuildingBlock: UVAHIK_clean_linker_0, # of connection points: 2
#     Edge 63, Type (0, 0), BuildingBlock: UVAHIK_clean_linker_0, # of connection points: 2
#     Edge 64, Type (0, 0), BuildingBlock: UVAHIK_clean_linker_0, # of connection points: 2
#     Edge 65, Type (0, 0), BuildingBlock: UVAHIK_clean_linker_0, # of connection points: 2
#     Edge 66, Type (0, 0), BuildingBlock: UVAHIK_clean_linker_0, # of connection points: 2
#     Edge 67, Type (0, 0), BuildingBlock: UVAHIK_clean_linker_0, # of connection points: 2
#     Edge 68, Type (0, 0), BuildingBlock: UVAHIK_clean_linker_0, # of connection points: 2
#     Edge 69, Type (0, 0), BuildingBlock: UVAHIK_clean_linker_0, # of connection points: 2
#     Edge 70, Type (0, 0), BuildingBlock: UVAHIK_clean_linker_0, # of connection points: 2
#     Edge 71, Type (0, 0), BuildingBlock: UVAHIK_clean_linker_0, # of connection points: 2
# Relax obj value: 0.180
# Max RMSD: 0.219
# Mean RMSD: 0.218
data_MOF--net-smd--node1-IZENUY_clean_sbu_0--edge1-UVAHIK_clean_linker_0
_symmetry_space_group_name_H-M    P1
_symmetry_Int_Tables_number       1
_symmetry_cell_setting            triclinic
loop_
_symmetry_equiv_pos_as_xyz
'x, y, z'
_cell_length_a     94.245851
_cell_length_b     94.261991
_cell_length_c     19.588561
_cell_angle_alpha  90.110737
_cell_angle_beta   89.912249
_cell_angle_gamma 120.17117
loop_
_atom_site_label
_atom_site_type_symbol
_atom_site_fract_x
_atom_site_fract_y
_atom_site_fract_z
_atom_type_partial_charge
Fe0 Fe 0.03703 0.25348 0.57414 0.0
Fe1 Fe 0.02451 0.21908 0.51438 0.0
O2 O 0.02416 0.2377 0.51676 0.0
Fe3 Fe 0.01088 0.24061 0.46245 0.0
O4 O 1.00037 0.24329 0.53436 0.0
O5 O 0.02283 0.26137 0.58655 0.0
O6 O 0.02722 0.2403 0.64614 0.0
C7 C 0.02614 0.2266 0.65604 0.0
C8 C 0.04014 0.27208 0.46371 0.0
O9 O 0.02849 0.21903 0.60743 0.0
C10 C 0.02154 0.22559 0.37396 0.0
O11 O 0.0537 0.24861 0.57284 0.0
O12 O 0.04611 0.22971 0.49353 0.0
O13 O 0.02482 0.26299 0.4532 0.0
O14 O 0.04745 0.26769 0.50503 0.0
C15 C 0.99152 0.20711 0.50146 0.0
O16 O 0.02052 0.21584 0.4211 0.0
O17 O 0.02047 0.23809 0.38751 0.0
C18 C 0.05719 0.24084 0.52942 0.0
O19 O 1.00291 0.20709 0.53499 0.0
O20 O 0.99453 0.21884 0.46135 0.0
C21 C 0.00747 0.25461 0.57766 0.0
Fe22 Fe 0.82723 0.82351 0.51124 0.0
Fe23 Fe 0.80611 0.7878 0.46219 0.0
O24 O 0.80833 0.80459 0.51217 0.0
Fe25 Fe 0.79176 0.80254 0.56315 0.0
O26 O 0.80481 0.8161 0.63127 0.0
O27 O 0.82992 0.82243 0.60337 0.0
O28 O 0.84012 0.81427 0.49874 0.0
C29 C 0.83753 0.7999 0.50879 0.0
C30 C 0.80354 0.83367 0.51398 0.0
O31 O 0.8232 0.78771 0.50492 0.0
C32 C 0.77605 0.78529 0.44225 0.0
O33 O 0.82577 0.8258 0.41911 0.0
O34 O 0.81928 0.80057 0.39253 0.0
O35 O 0.7914 0.81935 0.51949 0.0
O36 O 0.81799 0.83642 0.52335 0.0
C37 C 0.78952 0.77269 0.58494 0.0
O38 O 0.78873 0.78633 0.41539 0.0
O39 O 0.77574 0.7887 0.50441 0.0
C40 C 0.8239 0.81517 0.37493 0.0
O41 O 0.79262 0.77207 0.52263 0.0
O42 O 0.79061 0.78545 0.61102 0.0
C43 C 0.81947 0.82075 0.64808 0.0
Fe44 Fe 0.22009 0.01974 0.50485 0.0
Fe45 Fe 0.24184 0.00627 0.55649 0.0
O46 O 0.23889 0.01975 0.50365 0.0
Fe47 Fe 0.25497 0.03329 0.44888 0.0
O48 O 0.24244 0.0236 0.37491 0.0
O49 O 0.22058 0.0241 0.4119 0.0
O50 O 0.20846 0.99825 0.48223 0.0
C51 C 0.20867 0.9867 0.51348 0.0
C52 C 0.24136 0.0526 0.49271 0.0
O53 O 0.2203 0.98952 0.5538 0.0
C54 C 0.27249 0.03619 0.56269 0.0
O55 O 0.21638 0.01525 0.59766 0.0
O56 O 0.2384 0.01487 0.6324 0.0
O57 O 0.24943 0.04946 0.44962 0.0
O58 O 0.23027 0.04126 0.52771 0.0
C59 C 0.25733 0.00443 0.44347 0.0
O60 O 0.264 0.0207 0.56931 0.0
O61 O 0.26829 0.04355 0.52076 0.0
C62 C 0.22581 0.01581 0.64535 0.0
O63 O 0.24545 0.99668 0.48357 0.0
O64 O 0.26378 0.01982 0.4371 0.0
C65 C 0.2286 0.02218 0.36387 0.0
Fe66 Fe 0.0091 0.78759 0.45228 0.0
Fe67 Fe 0.02335 0.82295 0.50472 0.0
O68 O 0.0234 0.80414 0.5041 0.0
Fe69 Fe 0.03765 0.80184 0.55522 0.0
O70 O 0.04014 0.78851 0.49445 0.0
O71 O 0.02544 0.78708 0.40445 0.0
O72 O 0.00833 0.80061 0.385 0.0
C73 C 0.01844 0.81522 0.36797 0.0
C74 C 0.01055 0.77147 0.5717 0.0
O75 O 0.02731 0.82564 0.41263 0.0
C76 C 0.028 0.81968 0.64158 0.0
O77 O 0.99168 0.78681 0.49657 0.0
O78 O 1.00116 0.81339 0.49219 0.0
O79 O 0.02128 0.78439 0.60081 0.0
O80 O 0.0073 0.77146 0.50922 0.0
C81 C 0.05729 0.83328 0.50892 0.0
O82 O 0.01941 0.82158 0.59686 0.0
O83 O 0.03786 0.81488 0.62478 0.0
C84 C 0.98946 0.79892 0.50221 0.0
O85 O 0.04552 0.83594 0.5174 0.0
O86 O 0.05512 0.81899 0.51403 0.0
C87 C 0.03696 0.78587 0.43144 0.0
Fe88 Fe 0.21884 0.21616 0.50999 0.0
Fe89 Fe 0.24117 0.25065 0.56795 0.0
O90 O 0.23784 0.23486 0.5103 0.0
Fe91 Fe 0.25358 0.23783 0.45301 0.0
O92 O 0.24066 0.23538 0.38106 0.0
O93 O 0.21899 0.21273 0.41701 0.0
O94 O 0.20767 0.22666 0.49113 0.0
C95 C 0.20805 0.2379 0.52736 0.0
C96 C 0.23992 0.20453 0.49305 0.0
O97 O 0.21956 0.24564 0.56988 0.0
C98 C 0.27193 0.25186 0.5661 0.0
O99 O 0.21536 0.21632 0.60296 0.0
O100 O 0.23834 0.23751 0.63955 0.0
O101 O 0.24803 0.21605 0.45097 0.0
O102 O 0.22876 0.20446 0.52883 0.0
C103 C 0.25561 0.26899 0.4553 0.0
O104 O 0.26339 0.2586 0.57691 0.0
O105 O 0.26746 0.2406 0.5223 0.0
C106 C 0.22572 0.22378 0.65011 0.0
O107 O 0.24434 0.26471 0.49894 0.0
O108 O 0.26204 0.26016 0.44433 0.0
C109 C 0.22676 0.22302 0.37006 0.0
Fe110 Fe 0.79268 0.00668 0.55721 0.0
Fe111 Fe 0.82743 0.01966 0.49993 0.0
O112 O 0.80878 0.01995 0.50198 0.0
Fe113 Fe 0.80609 0.03363 0.44924 0.0
O114 O 0.80346 0.04377 0.52259 0.0
O115 O 0.78493 0.02098 0.57148 0.0
O116 O 0.80548 0.0158 0.63088 0.0
C117 C 0.81926 0.01708 0.64121 0.0
C118 C 0.7746 0.00461 0.44672 0.0
O119 O 0.82721 0.01528 0.59265 0.0
C120 C 0.82109 0.02318 0.35972 0.0
O121 O 0.7974 0.98992 0.55387 0.0
O122 O 0.81701 0.99816 0.47741 0.0
O123 O 0.78369 0.02 0.43932 0.0
O124 O 0.77886 0.99687 0.48615 0.0
C125 C 0.83943 0.05271 0.48964 0.0
O126 O 0.83079 0.02401 0.40686 0.0
O127 O 0.80863 0.02434 0.37334 0.0
C128 C 0.8056 0.9868 0.51121 0.0
O129 O 0.83935 0.04119 0.52241 0.0
O130 O 0.82787 0.04984 0.44887 0.0
C131 C 0.79201 0.03645 0.56515 0.0
Fe132 Fe 0.67622 0.57315 0.78892 0.0
Fe133 Fe 0.70075 0.58546 0.90672 0.0
O134 O 0.68867 0.57 0.84706 0.0
Fe135 Fe 0.68903 0.5514 0.84549 0.0
O136 O 0.6673 0.53957 0.86307 0.0
O137 O 0.65998 0.5513 0.78486 0.0
O138 O 0.66463 0.57547 0.85718 0.0
C139 C 0.67102 0.58642 0.90246 0.0
C140 C 0.68861 0.55881 0.70587 0.0
O141 O 0.68622 0.59307 0.91598 0.0
C142 C 0.72149 0.57317 0.86546 0.0
O143 O 0.69008 0.59557 0.78265 0.0
O144 O 0.71201 0.60004 0.83965 0.0
O145 O 0.68577 0.54833 0.75224 0.0
O146 O 0.68722 0.57119 0.71761 0.0
C147 C 0.68913 0.55818 0.98619 0.0
O148 O 0.71752 0.58065 0.90854 0.0
O149 O 0.71077 0.56215 0.82786 0.0
C150 C 0.70523 0.60453 0.79611 0.0
O151 O 0.69009 0.57183 0.97671 0.0
O152 O 0.69235 0.55111 0.93849 0.0
C153 C 0.65635 0.53969 0.82674 0.0
Fe154 Fe 0.47292 0.12341 0.75866 0.0
Fe155 Fe 0.46064 0.13512 0.87851 0.0
O156 O 0.47623 0.13864 0.81946 0.0
Fe157 Fe 0.49515 0.15744 0.82091 0.0
O158 O 0.50641 0.14693 0.83694 0.0
O159 O 0.49462 0.12859 0.7556 0.0
O160 O 0.46979 0.10864 0.82422 0.0
C161 C 0.4587 0.10395 0.86895 0.0
C162 C 0.48827 0.15091 0.68026 0.0
O163 O 0.4525 0.11278 0.88457 0.0
C164 C 0.47387 0.16866 0.84209 0.0
O165 O 0.45067 0.11538 0.75084 0.0
O166 O 0.44642 0.13257 0.81103 0.0
O167 O 0.49864 0.15796 0.7277 0.0
O168 O 0.4756 0.13717 0.68973 0.0
C169 C 0.48755 0.14983 0.96071 0.0
O170 O 0.46592 0.15684 0.88324 0.0
O171 O 0.48501 0.16907 0.805 0.0
C172 C 0.44194 0.12172 0.76539 0.0
O173 O 0.47382 0.13731 0.94912 0.0
O174 O 0.4951 0.16036 0.91432 0.0
C175 C 0.5061 0.13601 0.7987 0.0
Fe176 Fe 0.90923 0.34257 0.8982 0.0
Fe177 Fe 0.8876 0.35565 0.84261 0.0
O178 O 0.90651 0.35589 0.84329 0.0
Fe179 Fe 0.92282 0.36939 0.78964 0.0
O180 O 0.9362 0.37927 0.86193 0.0
O181 O 0.93157 0.3563 0.90916 0.0
O182 O 0.90636 0.35225 0.97213 0.0
C183 C 0.89383 0.35344 0.98348 0.0
C184 C 0.92383 0.3397 0.78409 0.0
O185 O 0.8838 0.35134 0.93564 0.0
C186 C 0.89706 0.35941 0.70177 0.0
O187 O 0.88748 0.32618 0.89805 0.0
O188 O 0.87634 0.33412 0.82007 0.0
O189 O 0.93076 0.35517 0.777 0.0
O190 O 0.91231 0.33232 0.82643 0.0
C191 C 0.90898 0.38869 0.83252 0.0
O192 O 0.88825 0.36004 0.74971 0.0
O193 O 0.91064 0.36045 0.71439 0.0
C194 C 0.87621 0.32287 0.85504 0.0
O195 O 0.89743 0.37714 0.865 0.0
O196 O 0.91778 0.38593 0.79181 0.0
C197 C 0.94054 0.37169 0.90176 0.0
Fe198 Fe 0.70362 0.13589 0.87649 0.0
Fe199 Fe 0.69078 0.15765 0.82009 0.0
O200 O 0.69117 0.13904 0.81844 0.0
Fe201 Fe 0.67914 0.12361 0.75852 0.0
O202 O 0.66785 0.10889 0.82509 0.0
O203 O 0.68972 0.1135 0.88294 0.0
O204 O 0.69265 0.13785 0.94789 0.0
C205 C 0.69118 0.15019 0.95972 0.0
C206 C 0.7088 0.12256 0.76304 0.0
O207 O 0.69393 0.16065 0.91339 0.0
C208 C 0.69084 0.15096 0.6794 0.0
O209 O 0.71985 0.15772 0.88076 0.0
O210 O 0.71256 0.16959 0.80305 0.0
O211 O 0.69362 0.11595 0.74968 0.0
O212 O 0.71525 0.13359 0.80802 0.0
C213 C 0.65832 0.13581 0.79954 0.0
O214 O 0.68757 0.15799 0.72705 0.0
O215 O 0.68988 0.1373 0.68881 0.0
C216 C 0.72348 0.16944 0.83957 0.0
O217 O 0.66899 0.14686 0.83724 0.0
O218 O 0.66237 0.12839 0.75648 0.0
C219 C 0.67461 0.10441 0.86879 0.0
Fe220 Fe 0.90714 0.58609 0.91828 0.0
Fe221 Fe 0.88535 0.5518 0.85736 0.0
O222 O 0.90425 0.57057 0.85956 0.0
Fe223 Fe 0.92037 0.57386 0.80371 0.0
O224 O 0.93388 0.57663 0.87429 0.0
O225 O 0.92937 0.59428 0.92918 0.0
O226 O 0.90407 0.57275 0.98925 0.0
C227 C 0.89143 0.559 0.99912 0.0
C228 C 0.92214 0.60503 0.80785 0.0
O229 O 0.88142 0.55151 0.95067 0.0
C230 C 0.89445 0.55861 0.71659 0.0
O231 O 0.88545 0.58087 0.91849 0.0
O232 O 0.87419 0.56223 0.83809 0.0
O233 O 0.9285 0.59619 0.79548 0.0
O234 O 0.91061 0.60043 0.85043 0.0
C235 C 0.90671 0.54041 0.84189 0.0
O236 O 0.88595 0.5487 0.76383 0.0
O237 O 0.90794 0.5713 0.72991 0.0
C238 C 0.87417 0.57318 0.87495 0.0
O239 O 0.89528 0.54011 0.87642 0.0
O240 O 0.91518 0.5522 0.80146 0.0
C241 C 0.93811 0.58777 0.9184 0.0
Fe242 Fe 0.45785 0.33961 0.89869 0.0
Fe243 Fe 0.49314 0.35358 0.84594 0.0
O244 O 0.47407 0.35305 0.84446 0.0
Fe245 Fe 0.47107 0.36595 0.78816 0.0
O246 O 0.46756 0.37627 0.85862 0.0
O247 O 0.44942 0.35348 0.90916 0.0
O248 O 0.47 0.3491 0.97361 0.0
C249 C 0.48367 0.35035 0.98667 0.0
C250 C 0.44035 0.33634 0.78425 0.0
O251 O 0.4925 0.34958 0.93916 0.0
C252 C 0.48695 0.35525 0.70463 0.0
O253 O 0.4633 0.32336 0.89876 0.0
O254 O 0.48354 0.33199 0.82509 0.0
O255 O 0.44887 0.35175 0.77661 0.0
O256 O 0.44462 0.32918 0.8267 0.0
C257 C 0.50403 0.38625 0.83115 0.0
O258 O 0.49697 0.35758 0.75278 0.0
O259 O 0.47429 0.35625 0.71528 0.0
C260 C 0.47209 0.3205 0.85831 0.0
O261 O 0.50416 0.37523 0.86691 0.0
O262 O 0.49265 0.38263 0.78838 0.0
C263 C 0.45601 0.36888 0.90081 0.0
Fe264 Fe 0.35885 0.88568 0.17756 0.0
Fe265 Fe 0.3445 0.90636 0.1204 0.0
O266 O 0.35835 0.90431 0.17536 0.0
Fe267 Fe 0.37191 0.92097 0.22857 0.0
O268 O 0.37233 0.90809 0.2969 0.0
O269 O 0.35385 0.88291 0.26901 0.0
O270 O 0.33698 0.8723 0.16054 0.0
C271 C 0.32486 0.87453 0.16431 0.0
C272 C 0.39246 0.91023 0.18429 0.0
O273 O 0.3267 0.88866 0.15753 0.0
C274 C 0.37126 0.93724 0.10844 0.0
O275 O 0.36382 0.88707 0.08659 0.0
O276 O 0.34591 0.89405 0.05157 0.0
O277 O 0.38989 0.92216 0.18771 0.0
O278 O 0.38091 0.8957 0.19457 0.0
C279 C 0.34344 0.92186 0.2434 0.0
O280 O 0.36106 0.92432 0.07782 0.0
O281 O 0.37395 0.93708 0.17131 0.0
C282 C 0.35618 0.88948 0.0391 0.0
O283 O 0.34069 0.91901 0.18016 0.0
O284 O 0.35494 0.92103 0.27272 0.0
C285 C 0.36195 0.89359 0.31407 0.0
Fe286 Fe 0.13991 0.45683 0.11165 0.0
Fe287 Fe 0.12469 0.46965 0.21708 0.0
O288 O 0.14165 0.4728 0.16597 0.0
Fe289 Fe 0.16039 0.49187 0.16883 0.0
O290 O 0.17348 0.48289 0.1556 0.0
O291 O 0.15666 0.45618 0.15489 0.0
O292 O 0.12576 0.44016 0.1668 0.0
C293 C 0.12237 0.43951 0.22947 0.0
C294 C 0.15828 0.48518 0.03098 0.0
O295 O 0.12364 0.45193 0.25999 0.0
C296 C 0.13624 0.50143 0.17465 0.0
O297 O 0.12295 0.45619 0.06435 0.0
O298 O 0.10919 0.45663 0.15468 0.0
O299 O 0.15948 0.49517 0.07696 0.0
O300 O 0.15376 0.47048 0.04591 0.0
C301 C 0.1519 0.48751 0.30543 0.0
O302 O 0.1242 0.48699 0.1787 0.0
O303 O 0.15077 0.50434 0.18279 0.0
C304 C 0.10999 0.45449 0.0914 0.0
O305 O 0.13714 0.48224 0.28839 0.0
O306 O 0.16266 0.49006 0.26081 0.0
C307 C 0.17087 0.46842 0.16271 0.0
Fe308 Fe 0.58859 0.70204 0.134 0.0
Fe309 Fe 0.55411 0.6898 0.1929 0.0
O310 O 0.57263 0.68925 0.19078 0.0
Fe311 Fe 0.57527 0.67579 0.24516 0.0
O312 O 0.5776 0.66511 0.17335 0.0
O313 O 0.59594 0.68737 0.12055 0.0
O314 O 0.57547 0.69267 0.0614 0.0
C315 C 0.56182 0.69167 0.05134 0.0
C316 C 0.60698 0.70453 0.24426 0.0
O317 O 0.55414 0.69386 0.09995 0.0
C318 C 0.56064 0.68687 0.3334 0.0
O319 O 0.58418 0.71904 0.13627 0.0
O320 O 0.56485 0.71139 0.21379 0.0
O321 O 0.59771 0.68924 0.2538 0.0
O322 O 0.60278 0.71212 0.20371 0.0
C323 C 0.54184 0.65677 0.20572 0.0
O324 O 0.55086 0.68582 0.28624 0.0
O325 O 0.57307 0.68565 0.3199 0.0
C326 C 0.57618 0.7225 0.17873 0.0
O327 O 0.54198 0.6682 0.17199 0.0
O328 O 0.5534 0.65975 0.24674 0.0
C329 C 0.58884 0.67196 0.12956 0.0
Fe330 Fe 0.34339 0.45557 0.12865 0.0
Fe331 Fe 0.35693 0.49047 0.18484 0.0
O332 O 0.35693 0.47167 0.18339 0.0
Fe333 Fe 0.37046 0.46878 0.23623 0.0
O334 O 0.38024 0.46546 0.16314 0.0
O335 O 0.35717 0.44716 0.11552 0.0
O336 O 0.35278 0.46813 0.05459 0.0
C337 C 0.35425 0.48199 0.04377 0.0
C338 C 0.34082 0.43789 0.24151 0.0
O339 O 0.35255 0.49009 0.09201 0.0
C340 C 0.36064 0.48448 0.32528 0.0
O341 O 0.32699 0.46082 0.13074 0.0
O342 O 0.33543 0.48034 0.20755 0.0
O343 O 0.35631 0.44653 0.24801 0.0
O344 O 0.33334 0.4421 0.20033 0.0
C345 C 0.38994 0.50209 0.19483 0.0
O346 O 0.36138 0.49405 0.27779 0.0
O347 O 0.3616 0.47191 0.31208 0.0
C348 C 0.32399 0.46912 0.1733 0.0
O349 O 0.37845 0.50212 0.16227 0.0
O350 O 0.38705 0.49042 0.23499 0.0
C351 C 0.37262 0.45381 0.1217 0.0
Fe352 Fe 0.55458 0.88637 0.17764 0.0
Fe353 Fe 0.57577 0.92152 0.23232 0.0
O354 O 0.57353 0.90521 0.17909 0.0
Fe355 Fe 0.5902 0.90779 0.12739 0.0
O356 O 0.57737 0.89498 0.05734 0.0
O357 O 0.55211 0.88802 0.08563 0.0
O358 O 0.54188 0.89579 0.19129 0.0
C359 C 0.54471 0.91031 0.1833 0.0
C360 C 0.57823 0.87616 0.17182 0.0
O361 O 0.55909 0.92238 0.18937 0.0
C362 C 0.60547 0.92338 0.25165 0.0
O363 O 0.55569 0.88331 0.26955 0.0
O364 O 0.56201 0.90826 0.29929 0.0
O365 O 0.59046 0.89047 0.16703 0.0
O366 O 0.56379 0.87354 0.16375 0.0
C367 C 0.59281 0.93801 0.11268 0.0
O368 O 0.5927 0.922 0.27912 0.0
O369 O 0.60603 0.92096 0.18843 0.0
C370 C 0.55726 0.89356 0.31505 0.0
O371 O 0.58991 0.93781 0.17568 0.0
O372 O 0.59136 0.92541 0.08318 0.0
C373 C 0.56266 0.89009 0.04072 0.0
Fe374 Fe 0.12494 0.67419 0.22551 0.0
Fe375 Fe 0.16039 0.68801 0.17505 0.0
O376 O 0.14153 0.68792 0.17338 0.0
Fe377 Fe 0.13904 0.70148 0.119 0.0
O378 O 0.13526 0.71126 0.19084 0.0
O379 O 0.1166 0.6881 0.23699 0.0
O380 O 0.13675 0.683 0.30189 0.0
C381 C 0.15034 0.68409 0.31524 0.0
C382 C 0.10813 0.67208 0.11043 0.0
O383 O 0.15928 0.68345 0.26787 0.0
C384 C 0.15488 0.69091 0.03402 0.0
O385 O 0.13006 0.65772 0.22409 0.0
O386 O 0.15056 0.66653 0.15184 0.0
O387 O 0.11686 0.68754 0.10482 0.0
O388 O 0.11211 0.66447 0.15181 0.0
C389 C 0.17197 0.72095 0.16465 0.0
O390 O 0.16461 0.69254 0.08237 0.0
O391 O 0.14249 0.69236 0.04475 0.0
C392 C 0.13884 0.65493 0.18343 0.0
O393 O 0.17173 0.70947 0.19835 0.0
O394 O 0.1607 0.718 0.12217 0.0
C395 C 0.12319 0.70354 0.23033 0.0
C396 C 0.11579 0.41041 0.22946 0.0
C397 C 0.1151 0.42324 0.26325 0.0
C398 C 0.1076 0.39451 0.2553 0.0
C399 C 0.08956 0.36933 0.40735 0.0
H400 H 0.06459 0.3353 0.27376 0.0
C401 C 0.06487 0.3004 0.45967 0.0
C402 C 0.0488 0.28922 0.43797 0.0
C403 C 0.07249 0.31692 0.4408 0.0
C404 C 0.07138 0.34463 0.31186 0.0
H405 H 0.10587 0.42948 0.35302 0.0
H406 H 0.09151 0.40139 0.39895 0.0
H407 H 0.07864 0.36401 0.23935 0.0
H408 H 0.0283 0.28669 0.3781 0.0
H409 H 0.04167 0.31549 0.34469 0.0
H410 H 0.08232 0.34983 0.47981 0.0
C411 C 0.0984 0.40382 0.3519 0.0
C412 C 0.07954 0.36108 0.29205 0.0
C413 C 0.10661 0.41987 0.32568 0.0
C414 C 0.0407 0.29492 0.39557 0.0
C415 C 0.04836 0.31144 0.37639 0.0
C416 C 0.08147 0.3528 0.42714 0.0
C417 C 0.0985 0.39092 0.31589 0.0
C418 C 0.0889 0.37361 0.33927 0.0
C419 C 0.06428 0.32267 0.39938 0.0
C420 C 0.07241 0.34026 0.37941 0.0
H421 H 0.12243 0.41254 0.18186 0.0
H422 H 0.10827 0.38494 0.22726 0.0
H423 H 0.09671 0.3787 0.44477 0.0
H424 H 0.07151 0.29647 0.49237 0.0
H425 H 0.08487 0.3252 0.4584 0.0
C426 C 0.75437 0.76355 0.36813 0.0
C427 C 0.76053 0.7784 0.40397 0.0
C428 C 0.73822 0.75555 0.34346 0.0
C429 C 0.70383 0.76084 0.29393 0.0
H430 H 0.67567 0.7179 0.37279 0.0
C431 C 0.63343 0.72988 0.27415 0.0
C432 C 0.62422 0.71273 0.26789 0.0
C433 C 0.6502 0.73774 0.2893 0.0
C434 C 0.68332 0.72972 0.34903 0.0
H435 H 0.75518 0.79701 0.43911 0.0
H436 H 0.72726 0.78341 0.39334 0.0
H437 H 0.70516 0.73186 0.39283 0.0
H438 H 0.62535 0.69035 0.27273 0.0
H439 H 0.65459 0.70398 0.2963 0.0
H440 H 0.68226 0.75872 0.24859 0.0
C441 C 0.73476 0.77784 0.38514 0.0
C442 C 0.70024 0.73771 0.36075 0.0
C443 C 0.75069 0.7856 0.41127 0.0
C444 C 0.63206 0.70358 0.27823 0.0
C445 C 0.64889 0.71145 0.29192 0.0
C446 C 0.68696 0.75273 0.28096 0.0
C447 C 0.72822 0.76253 0.35278 0.0
C448 C 0.71061 0.75342 0.33404 0.0
C449 C 0.65827 0.72867 0.29702 0.0
C450 C 0.67639 0.73713 0.30917 0.0
H451 H 0.76168 0.75768 0.36274 0.0
H452 H 0.73341 0.74374 0.31857 0.0
H453 H 0.71161 0.77295 0.27267 0.0
H454 H 0.62769 0.73724 0.2667 0.0
H455 H 0.65681 0.75096 0.2946 0.0
C456 C 0.25749 0.97915 0.40574 0.0
C457 C 0.26604 0.99613 0.41768 0.0
C458 C 0.26597 0.97097 0.38916 0.0
C459 C 0.30739 0.97819 0.33697 0.0
H460 H 0.28947 0.93349 0.40121 0.0
C461 C 0.34263 0.94253 0.32108 0.0
C462 C 0.33436 0.92851 0.27979 0.0
C463 C 0.33445 0.95054 0.34484 0.0
C464 C 0.29461 0.946 0.38332 0.0
H465 H 0.29015 0.01791 0.42148 0.0
H466 H 0.305 0.00367 0.3955 0.0
H467 H 0.27499 0.94828 0.42586 0.0
H468 H 0.31101 0.91131 0.23395 0.0
H469 H 0.29655 0.92489 0.27809 0.0
H470 H 0.32727 0.97587 0.29629 0.0
C471 C 0.29172 0.99662 0.3964 0.0
C472 C 0.28624 0.95445 0.39659 0.0
C473 C 0.28321 0.00484 0.41146 0.0
C474 C 0.31761 0.92208 0.26596 0.0
C475 C 0.30935 0.92982 0.29115 0.0
C476 C 0.31592 0.96984 0.32506 0.0
C477 C 0.28325 0.97952 0.38578 0.0
C478 C 0.29239 0.97061 0.37283 0.0
C479 C 0.31782 0.94437 0.32912 0.0
C480 C 0.30951 0.95362 0.34749 0.0
H481 H 0.24424 0.97215 0.40999 0.0
H482 H 0.25892 0.9579 0.37952 0.0
H483 H 0.31243 0.99046 0.31663 0.0
H484 H 0.3556 0.94782 0.33164 0.0
H485 H 0.3412 0.96175 0.37415 0.0
C486 C 0.29747 0.03705 0.61082 0.0
C487 C 0.28906 0.04529 0.5932 0.0
C488 C 0.31383 0.04584 0.63202 0.0
C489 C 0.35043 0.08786 0.62605 0.0
H490 H 0.36806 0.06897 0.7521 0.0
C491 C 0.41619 0.12254 0.7426 0.0
C492 C 0.425 0.11417 0.73866 0.0
C493 C 0.39965 0.11473 0.72358 0.0
C494 C 0.36329 0.07434 0.71658 0.0
H495 H 0.29091 0.06911 0.58706 0.0
H496 H 0.3192 0.08442 0.62709 0.0
H497 H 0.33876 0.05433 0.72724 0.0
H498 H 0.42346 0.09115 0.7105 0.0
H499 H 0.39452 0.07748 0.67856 0.0
H500 H 0.37506 0.10811 0.61735 0.0
C501 C 0.31341 0.07122 0.6222 0.0
C502 C 0.34651 0.06594 0.70202 0.0
C503 C 0.29713 0.06245 0.59987 0.0
C504 C 0.41705 0.09797 0.71384 0.0
C505 C 0.40046 0.09009 0.69606 0.0
C506 C 0.36718 0.09639 0.6416 0.0
C507 C 0.32211 0.06307 0.63726 0.0
C508 C 0.33985 0.07248 0.65589 0.0
C509 C 0.39157 0.09833 0.70152 0.0
C510 C 0.37378 0.0896 0.68635 0.0
H511 H 0.29165 0.02385 0.60545 0.0
H512 H 0.32012 0.0391 0.64195 0.0
H513 H 0.34589 0.09319 0.58934 0.0
H514 H 0.422 0.13504 0.76144 0.0
H515 H 0.39303 0.12133 0.72829 0.0
C516 C 0.94804 0.33909 0.73521 0.0
C517 C 0.93139 0.33071 0.75378 0.0
C518 C 0.95573 0.33042 0.71448 0.0
C519 C 0.95086 0.28881 0.72459 0.0
H520 H 0.98666 0.30712 0.59411 0.0
C521 C 0.98115 0.25368 0.6075 0.0
C522 C 0.99841 0.26222 0.60699 0.0
C523 C 0.97262 0.26155 0.62791 0.0
C524 C 0.97674 0.30193 0.63096 0.0
H525 H 0.90952 0.30674 0.76196 0.0
H526 H 0.92273 0.29163 0.72292 0.0
H527 H 0.97194 0.32165 0.61885 0.0
H528 H 0.02024 0.28556 0.62921 0.0
H529 H 0.00528 0.29932 0.66382 0.0
H530 H 0.9555 0.26884 0.73486 0.0
C531 C 0.93004 0.30486 0.72666 0.0
C532 C 0.96832 0.31026 0.64537 0.0
C533 C 0.92241 0.31352 0.74843 0.0
C534 C 0.00694 0.27862 0.62925 0.0
C535 C 0.99841 0.28655 0.64854 0.0
C536 C 0.95912 0.28035 0.7093 0.0
C537 C 0.94689 0.31317 0.71078 0.0
C538 C 0.95536 0.3039 0.69287 0.0
C539 C 0.98119 0.27816 0.64709 0.0
C540 C 0.97224 0.28693 0.66287 0.0
H541 H 0.95533 0.35233 0.73952 0.0
H542 H 0.96876 0.33727 0.70376 0.0
H543 H 0.94117 0.28365 0.7624 0.0
H544 H 0.97425 0.24102 0.59074 0.0
H545 H 0.95933 0.25483 0.62628 0.0
C546 C 0.76727 0.75052 0.65472 0.0
C547 C 0.7828 0.75738 0.62425 0.0
C548 C 0.75945 0.73433 0.67875 0.0
C549 C 0.76109 0.69587 0.65447 0.0
H550 H 0.72869 0.67961 0.79941 0.0
C551 C 0.73151 0.63028 0.76879 0.0
C552 C 0.71427 0.62165 0.77134 0.0
C553 C 0.7401 0.64691 0.75118 0.0
C554 C 0.73768 0.68403 0.75866 0.0
H555 H 0.80288 0.75342 0.59879 0.0
H556 H 0.78988 0.72572 0.64493 0.0
H557 H 0.74401 0.70898 0.77476 0.0
H558 H 0.69251 0.62365 0.75732 0.0
H559 H 0.70759 0.65283 0.72801 0.0
H560 H 0.75503 0.67088 0.64021 0.0
C561 C 0.78326 0.73233 0.64762 0.0
C562 C 0.74643 0.70084 0.74424 0.0
C563 C 0.79086 0.7483 0.62211 0.0
C564 C 0.70579 0.62993 0.75519 0.0
C565 C 0.71439 0.64664 0.73905 0.0
C566 C 0.75259 0.67914 0.66986 0.0
C567 C 0.76717 0.72485 0.67381 0.0
C568 C 0.75823 0.70702 0.69165 0.0
C569 C 0.73162 0.65529 0.73731 0.0
C570 C 0.74074 0.67306 0.72172 0.0
H571 H 0.76075 0.75725 0.65581 0.0
H572 H 0.74703 0.72904 0.69787 0.0
H573 H 0.76969 0.69995 0.61234 0.0
H574 H 0.73836 0.62421 0.78108 0.0
H575 H 0.75339 0.65334 0.75021 0.0
C576 C 1.00167 0.74187 0.56932 0.0
C577 C 1.00347 0.75546 0.60634 0.0
C578 C 0.99393 0.72629 0.59841 0.0
C579 C 0.96198 0.70065 0.71511 0.0
H580 H 0.98104 0.67257 0.70616 0.0
C581 C 0.92784 0.63395 0.81657 0.0
C582 C 0.93039 0.6222 0.78311 0.0
C583 C 0.93697 0.65052 0.79869 0.0
C584 C 0.9754 0.68013 0.70814 0.0
H585 H 0.99885 0.76355 0.70304 0.0
H586 H 0.98464 0.73586 0.75381 0.0
H587 H 0.99732 0.70124 0.67211 0.0
H588 H 0.94401 0.61855 0.70254 0.0
H589 H 0.95941 0.64732 0.66908 0.0
H590 H 0.9398 0.67947 0.74772 0.0
C591 C 0.98949 0.73747 0.70245 0.0
C592 C 0.98482 0.69661 0.6894 0.0
C593 C 0.99764 0.75324 0.67372 0.0
C594 C 0.94184 0.62732 0.7296 0.0
C595 C 0.9508 0.64387 0.71098 0.0
C596 C 0.95244 0.68408 0.73286 0.0
C597 C 0.98752 0.72387 0.66473 0.0
C598 C 0.97816 0.70698 0.69212 0.0
C599 C 0.94873 0.65576 0.74616 0.0
C600 C 0.95897 0.67354 0.72892 0.0
H601 H 0.00615 0.74328 0.51735 0.0
H602 H 0.99248 0.71601 0.56811 0.0
H603 H 0.9565 0.70836 0.71667 0.0
H604 H 0.91921 0.63047 0.85848 0.0
H605 H 0.93513 0.65926 0.82764 0.0
C606 C 0.29662 0.27555 0.61894 0.0
C607 C 0.28865 0.25929 0.59511 0.0
C608 C 0.31295 0.28318 0.64031 0.0
C609 C 0.35045 0.27965 0.62606 0.0
H610 H 0.36626 0.31301 0.76735 0.0
C611 C 0.4154 0.30995 0.75013 0.0
C612 C 0.42373 0.32718 0.7542 0.0
C613 C 0.39908 0.30122 0.72818 0.0
C614 C 0.362 0.30377 0.72754 0.0
H615 H 0.29133 0.23805 0.57756 0.0
H616 H 0.31964 0.25112 0.6177 0.0
H617 H 0.33714 0.29799 0.7394 0.0
H618 H 0.42159 0.34877 0.73709 0.0
H619 H 0.39299 0.33346 0.70005 0.0
H620 H 0.37543 0.28523 0.61624 0.0
C621 C 0.31348 0.2582 0.61772 0.0
C622 C 0.34533 0.29519 0.71122 0.0
C623 C 0.2972 0.25064 0.59525 0.0
C624 C 0.41554 0.33551 0.73424 0.0
C625 C 0.39915 0.32676 0.71353 0.0
C626 C 0.36711 0.28805 0.64332 0.0
C627 C 0.32167 0.27468 0.63956 0.0
C628 C 0.33932 0.28315 0.65963 0.0
C629 C 0.39071 0.30955 0.71114 0.0
C630 C 0.37305 0.30032 0.69361 0.0
H631 H 0.29044 0.28262 0.61879 0.0
H632 H 0.31884 0.29595 0.65544 0.0
H633 H 0.34641 0.27068 0.5853 0.0
H634 H 0.42141 0.30321 0.76505 0.0
H635 H 0.39281 0.28794 0.72685 0.0
C636 C 0.7099 0.09876 0.71243 0.0
C637 C 0.7182 0.11502 0.73659 0.0
C638 C 0.71857 0.09084 0.69545 0.0
C639 C 0.75826 0.09697 0.64252 0.0
H640 H 0.74409 0.05502 0.7297 0.0
C641 C 0.79394 0.06272 0.60324 0.0
C642 C 0.78468 0.04558 0.59637 0.0
C643 C 0.78654 0.07157 0.62551 0.0
C644 C 0.7481 0.0666 0.7041 0.0
H645 H 0.74216 0.13595 0.75888 0.0
H646 H 0.75738 0.12216 0.72714 0.0
H647 H 0.72956 0.0698 0.75314 0.0
H648 H 0.76047 0.02422 0.6085 0.0
H649 H 0.74744 0.0396 0.64496 0.0
H650 H 0.77638 0.0936 0.59128 0.0
C651 C 0.74413 0.11556 0.72234 0.0
C652 C 0.7398 0.07508 0.71783 0.0
C653 C 0.73543 0.12341 0.74053 0.0
C654 C 0.76798 0.03741 0.61401 0.0
C655 C 0.76051 0.04627 0.63517 0.0
C656 C 0.76641 0.08836 0.62783 0.0
C657 C 0.73574 0.09909 0.70109 0.0
C658 C 0.74476 0.0903 0.68697 0.0
C659 C 0.76964 0.06351 0.6403 0.0
C660 C 0.76141 0.07302 0.65824 0.0
H661 H 0.69663 0.09192 0.70909 0.0
H662 H 0.71185 0.07819 0.67852 0.0
H663 H 0.76225 0.10865 0.6178 0.0
H664 H 0.80688 0.06933 0.59044 0.0
H665 H 0.79408 0.08476 0.63038 0.0
C666 C 0.63092 0.92303 0.28026 0.0
C667 C 0.6209 0.92993 0.29031 0.0
C668 C 0.64686 0.93072 0.30627 0.0
C669 C 0.68095 0.97089 0.33521 0.0
H670 H 0.69979 0.94945 0.43921 0.0
C671 C 0.74922 0.00534 0.4162 0.0
C672 C 0.75737 0.99638 0.42305 0.0
C673 C 0.73237 0.99732 0.40291 0.0
C674 C 0.69484 0.95558 0.4091 0.0
H675 H 0.61942 0.95004 0.3364 0.0
H676 H 0.6477 0.96388 0.38046 0.0
H677 H 0.67038 0.93496 0.41612 0.0
H678 H 0.75443 0.9721 0.41851 0.0
H679 H 0.72527 0.95816 0.39123 0.0
H680 H 0.70533 0.99113 0.32439 0.0
C681 C 0.64302 0.95233 0.35349 0.0
C682 C 0.67794 0.94731 0.39671 0.0
C683 C 0.62687 0.94439 0.3289 0.0
C684 C 0.74845 0.9793 0.41371 0.0
C685 C 0.73166 0.97131 0.39895 0.0
C686 C 0.6979 0.97905 0.34632 0.0
C687 C 0.65323 0.94569 0.34129 0.0
C688 C 0.67086 0.95488 0.35957 0.0
C689 C 0.72328 0.98015 0.39476 0.0
C690 C 0.70514 0.9715 0.38322 0.0
H691 H 0.62658 0.91194 0.25022 0.0
H692 H 0.65451 0.92541 0.29582 0.0
H693 H 0.67579 0.97688 0.30539 0.0
H694 H 0.75571 0.0185 0.42424 0.0
H695 H 0.72643 0.0046 0.40131 0.0
C696 C 0.06264 0.78604 0.40169 0.0
C697 C 0.04565 0.77913 0.3927 0.0
C698 C 0.07074 0.77823 0.37555 0.0
C699 C 0.06421 0.73787 0.34716 0.0
H700 H 0.10439 0.7591 0.24127 0.0
C701 C 0.09726 0.70304 0.26263 0.0
C702 C 0.1144 0.71189 0.25495 0.0
C703 C 0.08861 0.71117 0.27689 0.0
C704 C 0.09335 0.75303 0.2719 0.0
H705 H 0.02379 0.75887 0.34851 0.0
H706 H 0.03796 0.74485 0.30416 0.0
H707 H 0.08972 0.77372 0.2655 0.0
H708 H 0.13601 0.73609 0.25903 0.0
H709 H 0.1211 0.75021 0.28793 0.0
H710 H 0.06813 0.71755 0.35724 0.0
C711 C 0.045 0.75648 0.3304 0.0
C712 C 0.08486 0.76138 0.28497 0.0
C713 C 0.03694 0.76454 0.35514 0.0
C714 C 0.12279 0.72896 0.26446 0.0
C715 C 0.11417 0.73707 0.28016 0.0
C716 C 0.07286 0.72963 0.33534 0.0
C717 C 0.06192 0.76314 0.34147 0.0
C718 C 0.07023 0.75388 0.32278 0.0
C719 C 0.09691 0.72834 0.28519 0.0
C720 C 0.08761 0.7371 0.2977 0.0
H721 H 0.06956 0.79723 0.43098 0.0
H722 H 0.08376 0.78356 0.38514 0.0
H723 H 0.05309 0.73194 0.37749 0.0
H724 H 0.09042 0.68989 0.2545 0.0
H725 H 0.07536 0.70397 0.27912 0.0
C726 C 0.34039 0.41309 0.28971 0.0
C727 C 0.3319 0.42122 0.27134 0.0
C728 C 0.3318 0.39667 0.31026 0.0
C729 C 0.29315 0.3645 0.38182 0.0
H730 H 0.30312 0.33456 0.28564 0.0
C731 C 0.25497 0.29457 0.42648 0.0
C732 C 0.26338 0.28578 0.42674 0.0
C733 C 0.26283 0.31091 0.40482 0.0
C734 C 0.30031 0.34273 0.31386 0.0
H735 H 0.30782 0.41876 0.26299 0.0
H736 H 0.29285 0.39015 0.30075 0.0
H737 H 0.31824 0.36371 0.25832 0.0
H738 H 0.28658 0.2872 0.40393 0.0
H739 H 0.30043 0.31574 0.36857 0.0
H740 H 0.27562 0.34375 0.43905 0.0
C741 C 0.30613 0.39646 0.29843 0.0
C742 C 0.30896 0.35944 0.29793 0.0
C743 C 0.31469 0.4128 0.27671 0.0
C744 C 0.2797 0.29358 0.40369 0.0
C745 C 0.28764 0.30998 0.3831 0.0
C746 C 0.28466 0.34782 0.39861 0.0
C747 C 0.31459 0.38815 0.31404 0.0
C748 C 0.30547 0.37048 0.33175 0.0
C749 C 0.27937 0.31895 0.38392 0.0
C750 C 0.28812 0.33669 0.36487 0.0
H751 H 0.35364 0.4192 0.2858 0.0
H752 H 0.33862 0.39057 0.32261 0.0
H753 H 0.2903 0.37279 0.40893 0.0
H754 H 0.24234 0.28884 0.44352 0.0
H755 H 0.25592 0.31725 0.40476 0.0
C756 C 0.96664 0.39719 0.93371 0.0
C757 C 0.95778 0.38008 0.92546 0.0
C758 C 0.98346 0.40533 0.94794 0.0
C759 C 0.01755 0.39811 1.00081 0.0
H760 H 0.04466 0.44184 0.92685 0.0
C761 C 0.08858 0.43306 0.01567 0.0
C762 C 0.09464 0.44781 0.05214 0.0
C763 C 0.07237 0.42492 0.99164 0.0
C764 C 0.03721 0.4296 0.94745 0.0
H765 H 0.9596 0.35805 0.92594 0.0
H766 H 0.98892 0.37219 0.94807 0.0
H767 H 0.01517 0.42711 0.9055 0.0
H768 H 0.08907 0.46612 0.08911 0.0
H769 H 0.06104 0.45233 0.04442 0.0
H770 H 0.03984 0.40062 0.04125 0.0
C771 C 0.98291 0.37939 0.94591 0.0
C772 C 0.02027 0.42119 0.93604 0.0
C773 C 0.96603 0.37123 0.9331 0.0
C774 C 0.08467 0.45482 0.06053 0.0
C775 C 0.06867 0.44693 0.03509 0.0
C776 C 0.03454 0.4064 0.01099 0.0
C777 C 0.99194 0.3966 0.95274 0.0
C778 C 0.01012 0.4054 0.9634 0.0
C779 C 0.06219 0.43166 1.00236 0.0
C780 C 0.04449 0.42229 0.98512 0.0
H781 H 0.96058 0.40432 0.92829 0.0
H782 H 0.9898 0.41851 0.95467 0.0
H783 H 0.01024 0.38614 0.02382 0.0
H784 H 0.09598 0.42731 0.00962 0.0
H785 H 0.06763 0.41316 0.96644 0.0
C786 C 0.64583 0.589 0.90351 0.0
C787 C 0.66138 0.59358 0.93049 0.0
C788 C 0.63742 0.59694 0.9245 0.0
C789 C 0.64455 0.63558 1.00499 0.0
H790 H 0.59709 0.61204 0.01909 0.0
C791 C 0.6088 0.6696 0.05184 0.0
C792 C 0.59566 0.66233 0.09827 0.0
C793 C 0.61621 0.66089 0.02781 0.0
C794 C 0.61036 0.61881 0.0159 0.0
H795 H 0.67994 0.60961 1.00299 0.0
H796 H 0.66504 0.62313 0.04117 0.0
H797 H 0.61119 0.59717 0.99063 0.0
H798 H 0.57971 0.63998 0.15417 0.0
H799 H 0.5928 0.62503 0.1137 0.0
H800 H 0.64376 0.65711 0.03289 0.0
C801 C 0.65955 0.61372 1.00227 0.0
C802 C 0.61845 0.61029 0.99876 0.0
C803 C 0.66804 0.60586 0.98085 0.0
C804 C 0.58979 0.64599 0.11838 0.0
C805 C 0.59726 0.63735 0.09479 0.0
C806 C 0.63647 0.64408 0.02268 0.0
C807 C 0.64426 0.60955 0.97351 0.0
C808 C 0.63565 0.61856 0.99309 0.0
C809 C 0.61071 0.64474 0.04992 0.0
C810 C 0.61926 0.6358 0.02847 0.0
H811 H 0.64033 0.57963 0.86443 0.0
H812 H 0.62578 0.59351 0.90057 0.0
H813 H 0.65778 0.64242 1.00005 0.0
H814 H 0.61356 0.68213 0.03499 0.0
H815 H 0.62634 0.66687 0.99225 0.0
C816 C 0.44037 0.08188 0.9511 0.0
C817 C 0.45095 0.08686 0.89444 0.0
C818 C 0.43212 0.06547 0.97197 0.0
C819 C 0.4162 0.02364 0.90889 0.0
H820 H 0.41572 0.01278 0.09982 0.0
C821 C 0.38551 0.95624 0.00958 0.0
C822 C 0.37848 0.95341 0.07491 0.0
C823 C 0.3943 0.9723 0.98369 0.0
C824 C 0.41547 0.01555 0.04638 0.0
H825 H 0.46122 0.07846 0.8155 0.0
H826 H 0.44662 0.04978 0.85163 0.0
H827 H 0.43132 0.04128 0.06381 0.0
H828 H 0.37396 0.96474 0.16221 0.0
H829 H 0.38841 0.99233 0.11635 0.0
H830 H 0.39996 0.99794 0.89164 0.0
C831 C 0.44477 0.05862 0.87983 0.0
C832 C 0.42451 0.03192 0.02582 0.0
C833 C 0.45323 0.07507 0.85959 0.0
C834 C 0.37953 0.96664 0.1121 0.0
C835 C 0.38797 0.9825 0.08599 0.0
C836 C 0.40693 0.00722 0.92961 0.0
C837 C 0.43408 0.05364 0.93601 0.0
C838 C 0.42488 0.03616 0.95702 0.0
C839 C 0.39595 0.98568 0.02248 0.0
C840 C 0.4063 1.00299 0.99885 0.0
H841 H 0.43834 0.09064 0.97898 0.0
H842 H 0.42388 0.06195 0.01532 0.0
H843 H 0.41621 0.0266 0.85547 0.0
H844 H 0.38489 0.9462 0.98011 0.0
H845 H 0.40028 0.97427 0.93459 0.0
C846 C 0.67318 0.08173 0.94063 0.0
C847 C 0.66565 0.08728 0.89434 0.0
C848 C 0.66532 0.06527 0.9605 0.0
C849 C 0.63312 0.02371 0.90778 0.0
H850 H 0.63385 0.01325 0.09854 0.0
C851 C 0.60859 0.95733 0.01585 0.0
C852 C 0.59961 0.95397 0.07694 0.0
C853 C 0.61648 0.97325 0.98831 0.0
C854 C 0.63351 0.01597 0.04504 0.0
H855 H 0.64377 0.07984 0.8335 0.0
H856 H 0.63003 0.05115 0.8688 0.0
H857 H 0.64786 0.04182 0.06252 0.0
H858 H 0.5909 0.96438 0.15411 0.0
H859 H 0.60446 0.99176 0.10631 0.0
H860 H 0.61849 0.99772 0.89093 0.0
C861 C 0.64212 0.05952 0.88893 0.0
C862 C 0.64167 0.03234 0.02433 0.0
C863 C 0.64995 0.07601 0.86927 0.0
C864 C 0.59798 0.96658 0.10772 0.0
C865 C 0.60581 0.98233 0.08049 0.0
C866 C 0.62502 0.00726 0.92854 0.0
C867 C 0.64976 0.05394 0.93445 0.0
C868 C 0.64145 0.03643 0.95561 0.0
C869 C 0.6155 0.98599 0.02159 0.0
C870 C 0.62495 0.00325 0.9976 0.0
H871 H 0.68529 0.09004 0.9608 0.0
H872 H 0.67159 0.06134 0.99533 0.0
H873 H 0.6329 0.02648 0.85429 0.0
H874 H 0.61004 0.94787 0.99087 0.0
H875 H 0.62384 0.97573 0.94262 0.0
C876 C 0.0829 0.64618 0.07494 0.0
C877 C 0.09147 0.66338 0.08075 0.0
C878 C 0.06642 0.63777 0.05506 0.0
C879 C 0.02977 0.64112 0.06361 0.0
H880 H 0.0123 0.60726 0.92448 0.0
C881 C 0.9629 0.6118 0.96912 0.0
C882 C 0.95488 0.5954 0.94689 0.0
C883 C 0.97944 0.61971 0.98768 0.0
C884 C 0.01688 0.61646 0.9644 0.0
H885 H 0.08963 0.68527 0.0686 0.0
H886 H 0.06077 0.67052 0.03481 0.0
H887 H 0.04166 0.62192 0.9487 0.0
H888 H 0.95763 0.57418 0.93019 0.0
H889 H 0.98628 0.58773 0.96542 0.0
H890 H 0.00509 0.63546 0.08113 0.0
C891 C 0.06685 0.6636 0.04546 0.0
C892 C 0.03373 0.62493 0.97778 0.0
C893 C 0.08339 0.67203 0.06421 0.0
C894 C 0.96353 0.58687 0.94658 0.0
C895 C 0.98001 0.59471 0.96616 0.0
C896 C 0.01289 0.6325 0.05103 0.0
C897 C 0.05816 0.64639 0.04175 0.0
C898 C 0.04033 0.63741 0.02714 0.0
C899 C 0.9883 0.61135 0.98549 0.0
C900 C 0.00622 0.62011 1.00092 0.0
H901 H 0.08882 0.6392 0.08731 0.0
H902 H 0.05997 0.62449 0.05273 0.0
H903 H 0.03454 0.65053 0.10275 0.0
H904 H 0.95661 0.61876 0.96931 0.0
H905 H 0.9854 0.63258 1.00131 0.0
C906 C 0.37249 0.42929 0.07132 0.0
C907 C 0.38128 0.44586 0.09127 0.0
C908 C 0.38077 0.42122 0.05008 0.0
C909 C 0.41947 0.42736 0.97991 0.0
H910 H 0.40777 0.38625 0.06947 0.0
C911 C 0.45682 0.39498 0.93376 0.0
C912 C 0.4482 0.37776 0.93041 0.0
C913 C 0.44901 0.40346 0.95595 0.0
C914 C 0.41106 0.39757 0.04308 0.0
H915 H 0.40562 0.46714 0.10176 0.0
H916 H 0.42006 0.4531 0.06292 0.0
H917 H 0.39309 0.40061 0.09817 0.0
H918 H 0.42465 0.35591 0.94843 0.0
H919 H 0.41088 0.3706 0.98487 0.0
H920 H 0.43707 0.4242 0.92322 0.0
C921 C 0.40677 0.44635 0.06448 0.0
C922 C 0.40266 0.40582 0.05979 0.0
C923 C 0.39851 0.45436 0.08683 0.0
C924 C 0.43169 0.36918 0.95107 0.0
C925 C 0.4238 0.37765 0.97223 0.0
C926 C 0.42771 0.41899 0.96238 0.0
C927 C 0.39799 0.42962 0.04719 0.0
C928 C 0.40679 0.4208 0.02845 0.0
C929 C 0.43229 0.39493 0.97432 0.0
C930 C 0.42365 0.40398 0.99381 0.0
H931 H 0.35921 0.42236 0.07444 0.0
H932 H 0.3737 0.40835 0.0364 0.0
H933 H 0.42281 0.43883 0.9546 0.0
H934 H 0.46959 0.40195 0.91864 0.0
H935 H 0.4561 0.41672 0.95836 0.0
C936 C 0.08629 0.25396 0.57195 0.0
C937 C 0.07407 0.24343 0.52584 0.0
C938 C 0.10191 0.2556 0.57054 0.0
C939 C 0.12973 0.24811 0.46125 0.0
H940 H 0.14921 0.24651 0.63317 0.0
C941 C 0.18132 0.23244 0.47704 0.0
C942 C 0.19397 0.2408 0.52489 0.0
C943 C 0.16774 0.23466 0.47593 0.0
C944 C 0.14408 0.24723 0.58475 0.0
H945 H 0.06887 0.22667 0.44096 0.0
H946 H 0.09591 0.22941 0.43897 0.0
H947 H 0.12366 0.24716 0.63322 0.0
H948 H 0.20236 0.25832 0.60838 0.0
H949 H 0.17862 0.26223 0.60623 0.0
H950 H 0.14998 0.24788 0.41274 0.0
C951 C 0.09353 0.23654 0.47586 0.0
C952 C 0.12943 0.24761 0.58478 0.0
C953 C 0.07795 0.23488 0.47735 0.0
C954 C 0.19281 0.25164 0.57099 0.0
C955 C 0.17917 0.25382 0.57001 0.0
C956 C 0.14436 0.24772 0.46123 0.0
C957 C 0.10567 0.2468 0.52277 0.0
C958 C 0.12194 0.2478 0.52298 0.0
C959 C 0.16643 0.24529 0.52266 0.0
C960 C 0.15158 0.24701 0.52293 0.0
H961 H 0.08375 0.26078 0.60983 0.0
H962 H 0.11104 0.26374 0.6069 0.0
H963 H 0.12446 0.24856 0.41278 0.0
H964 H 0.18179 0.22402 0.44067 0.0
H965 H 0.15806 0.22772 0.43938 0.0
C966 C 0.78935 0.95651 0.5364 0.0
C967 C 0.80292 0.96991 0.50537 0.0
C968 C 0.78719 0.9407 0.53193 0.0
C969 C 0.80177 0.91612 0.43543 0.0
H970 H 0.78647 0.88796 0.59474 0.0
C971 C 0.81392 0.86275 0.47929 0.0
C972 C 0.80099 0.84781 0.50389 0.0
C973 C 0.81212 0.87654 0.47385 0.0
C974 C 0.79054 0.8956 0.54953 0.0
H975 H 0.82486 0.97712 0.44519 0.0
H976 H 0.82141 0.94987 0.43917 0.0
H977 H 0.78724 0.91424 0.59675 0.0
H978 H 0.77592 0.83556 0.54111 0.0
H979 H 0.77291 0.85988 0.53282 0.0
H980 H 0.80572 0.89774 0.38953 0.0
C981 C 0.81214 0.95138 0.46551 0.0
C982 C 0.79096 0.91066 0.55053 0.0
C983 C 0.8142 0.9671 0.46943 0.0
C984 C 0.78609 0.84689 0.52181 0.0
C985 C 0.78439 0.86081 0.51746 0.0
C986 C 0.80154 0.90118 0.4348 0.0
C987 C 0.79862 0.93793 0.49672 0.0
C988 C 0.79684 0.92127 0.49387 0.0
C989 C 0.79744 0.8758 0.49377 0.0
C990 C 0.79615 0.89087 0.49217 0.0
H991 H 0.78036 0.95822 0.56412 0.0
H992 H 0.77651 0.93065 0.55584 0.0
H993 H 0.80598 0.92372 0.39017 0.0
H994 H 0.82552 0.86385 0.46479 0.0
H995 H 0.82243 0.88795 0.45594 0.0
C996 C 0.08802 0.84656 0.51705 0.0
C997 C 0.07404 0.8475 0.49961 0.0
C998 C 0.1037 0.86052 0.51316 0.0
C999 C 0.12703 0.90122 0.43286 0.0
H1000 H 0.15445 0.91368 0.59441 0.0
C1001 C 0.18019 0.96713 0.47232 0.0
C1002 C 0.19441 0.96983 0.50686 0.0
C1003 C 0.16653 0.95138 0.46746 0.0
C1004 C 0.14714 0.91028 0.54831 0.0
H1005 H 0.06561 0.86361 0.46186 0.0
H1006 H 0.09288 0.88777 0.454 0.0
H1007 H 0.12889 0.88734 0.59119 0.0
H1008 H 0.20547 0.95793 0.56217 0.0
H1009 H 0.18171 0.93033 0.55239 0.0
H1010 H 0.14515 0.92404 0.38967 0.0
C1011 C 0.09175 0.87632 0.47109 0.0
C1012 C 0.13247 0.89518 0.5466 0.0
C1013 C 0.07612 0.86249 0.476 0.0
C1014 C 0.19469 0.95631 0.53558 0.0
C1015 C 0.18102 0.94048 0.53025 0.0
C1016 C 0.14176 0.91622 0.43423 0.0
C1017 C 0.10569 0.87556 0.49048 0.0
C1018 C 0.1221 0.89066 0.48941 0.0
C1019 C 0.16672 0.93782 0.49637 0.0
C1020 C 0.15184 0.92113 0.49257 0.0
H1021 H 0.08682 0.83518 0.53555 0.0
H1022 H 0.11426 0.85957 0.52808 0.0
H1023 H 0.11939 0.89795 0.3877 0.0
H1024 H 0.17948 0.97724 0.44984 0.0
H1025 H 0.15566 0.94992 0.4422 0.0
C1026 C 0.2533 0.18878 0.45115 0.0
C1027 C 0.24233 0.19013 0.49577 0.0
C1028 C 0.25503 0.17487 0.45254 0.0
C1029 C 0.24709 0.13932 0.56087 0.0
H1030 H 0.24803 0.11927 0.38918 0.0
C1031 C 0.23442 0.07286 0.54324 0.0
C1032 C 0.24358 0.06934 0.49651 0.0
C1033 C 0.23589 0.08837 0.54477 0.0
C1034 C 0.24803 0.12484 0.43761 0.0
H1035 H 0.2248 0.17798 0.57771 0.0
H1036 H 0.22771 0.15379 0.57958 0.0
H1037 H 0.24777 0.14502 0.3888 0.0
H1038 H 0.26178 0.07957 0.41573 0.0
H1039 H 0.26439 0.10667 0.41878 0.0
H1040 H 0.2471 0.11903 0.60966 0.0
C1041 C 0.23511 0.16352 0.54395 0.0
C1042 C 0.24788 0.13961 0.43738 0.0
C1043 C 0.23335 0.17738 0.5425 0.0
C1044 C 0.25448 0.08182 0.45221 0.0
C1045 C 0.25592 0.09734 0.45365 0.0
C1046 C 0.24722 0.12456 0.56109 0.0
C1047 C 0.24589 0.16203 0.49877 0.0
C1048 C 0.24719 0.14692 0.499 0.0
C1049 C 0.24655 0.10077 0.49964 0.0
C1050 C 0.24748 0.11702 0.49946 0.0
H1051 H 0.26045 0.19839 0.41468 0.0
H1052 H 0.26358 0.17419 0.41754 0.0
H1053 H 0.24686 0.14477 0.60929 0.0
H1054 H 0.22591 0.06357 0.57817 0.0
H1055 H 0.22834 0.09051 0.58028 0.0
C1056 C 0.85526 0.08227 0.45284 0.0
C1057 C 0.85397 0.06949 0.49421 0.0
C1058 C 0.86926 0.09791 0.45558 0.0
C1059 C 0.9053 0.12463 0.56381 0.0
H1060 H 0.92453 0.14735 0.39407 0.0
C1061 C 0.97147 0.17932 0.54818 0.0
C1062 C 0.97482 0.1924 0.50406 0.0
C1063 C 0.95603 0.16512 0.54874 0.0
C1064 C 0.9192 0.1413 0.44203 0.0
H1065 H 0.86637 0.06329 0.57184 0.0
H1066 H 0.89073 0.09044 0.57619 0.0
H1067 H 0.89887 0.12114 0.39187 0.0
H1068 H 0.96431 0.20085 0.42683 0.0
H1069 H 0.93727 0.17607 0.42822 0.0
H1070 H 0.92571 0.14468 0.61394 0.0
C1071 C 0.88087 0.08844 0.54202 0.0
C1072 C 0.90447 0.12626 0.44076 0.0
C1073 C 0.86692 0.07281 0.53916 0.0
C1074 C 0.9622 0.19101 0.46131 0.0
C1075 C 0.94672 0.17676 0.4618 0.0
C1076 C 0.92001 0.13966 0.56508 0.0
C1077 C 0.88228 0.10117 0.49999 0.0
C1078 C 0.89744 0.11763 0.50158 0.0
C1079 C 0.94348 0.16359 0.50524 0.0
C1080 C 0.92726 0.1481 0.50415 0.0
H1081 H 0.84552 0.08018 0.41779 0.0
H1082 H 0.86985 0.10748 0.4231 0.0
H1083 H 0.90008 0.11847 0.61171 0.0
H1084 H 0.98087 0.17993 0.58188 0.0
H1085 H 0.95406 0.15516 0.58221 0.0
C1086 C 0.9585 0.78098 0.50499 0.0
C1087 C 0.97274 0.79647 0.51218 0.0
C1088 C 0.94287 0.77942 0.50792 0.0
C1089 C 0.92349 0.8044 0.47848 0.0
H1090 H 0.88611 0.77104 0.57893 0.0
C1091 C 0.86758 0.81124 0.52664 0.0
C1092 C 0.85187 0.79752 0.51689 0.0
C1093 C 0.88144 0.80953 0.52831 0.0
C1094 C 0.8964 0.78031 0.55 0.0
H1095 H 0.9816 0.82225 0.53249 0.0
H1096 H 0.95464 0.8195 0.53783 0.0
H1097 H 0.912 0.77068 0.57772 0.0
H1098 H 0.8384 0.77107 0.50434 0.0
H1099 H 0.86281 0.76811 0.50675 0.0
H1100 H 0.90816 0.81411 0.45067 0.0
C1101 C 0.95547 0.80861 0.52833 0.0
C1102 C 0.9112 0.7801 0.54932 0.0
C1103 C 0.97096 0.81016 0.52549 0.0
C1104 C 0.85033 0.7819 0.51167 0.0
C1105 C 0.8643 0.7802 0.51323 0.0
C1106 C 0.9088 0.8046 0.47905 0.0
C1107 C 0.94125 0.79333 0.51792 0.0
C1108 C 0.92501 0.79238 0.51474 0.0
C1109 C 0.88005 0.79407 0.52004 0.0
C1110 C 0.89517 0.7928 0.51601 0.0
H1111 H 0.95943 0.77017 0.49493 0.0
H1112 H 0.93212 0.76747 0.49986 0.0
H1113 H 0.93376 0.81379 0.44984 0.0
H1114 H 0.86925 0.82343 0.53193 0.0
H1115 H 0.89333 0.82043 0.53543 0.0
C1116 C 0.85758 0.58531 0.92086 0.0
C1117 C 0.85974 0.57551 0.87241 0.0
C1118 C 0.84333 0.58648 0.92056 0.0
C1119 C 0.80034 0.56351 0.86177 0.0
H1120 H 0.80037 0.60415 0.89348 0.0
C1121 C 0.74272 0.56776 0.81506 0.0
C1122 C 0.73835 0.57569 0.86464 0.0
C1123 C 0.75807 0.56895 0.81661 0.0
C1124 C 0.80017 0.59269 0.88523 0.0
H1125 H 0.8489 0.55987 0.78376 0.0
H1126 H 0.82431 0.56205 0.78289 0.0
H1127 H 0.82633 0.60407 0.89506 0.0
H1128 H 0.74703 0.59166 0.95331 0.0
H1129 H 0.77395 0.59364 0.95618 0.0
H1130 H 0.77431 0.55209 0.85189 0.0
C1131 C 0.83342 0.56854 0.82209 0.0
C1132 C 0.81502 0.59264 0.88615 0.0
C1133 C 0.84759 0.56736 0.82242 0.0
C1134 C 0.74999 0.58535 0.91445 0.0
C1135 C 0.76542 0.58654 0.91599 0.0
C1136 C 0.78557 0.56357 0.86081 0.0
C1137 C 0.83096 0.57787 0.87182 0.0
C1138 C 0.81528 0.57807 0.87357 0.0
C1139 C 0.7695 0.57808 0.86779 0.0
C1140 C 0.7853 0.57817 0.87166 0.0
H1141 H 0.86672 0.59178 0.96 0.0
H1142 H 0.84179 0.59372 0.95973 0.0
H1143 H 0.80003 0.55199 0.85361 0.0
H1144 H 0.73417 0.56039 0.77536 0.0
H1145 H 0.76095 0.56258 0.7778 0.0
C1146 C 0.45897 0.29117 0.89803 0.0
C1147 C 0.46994 0.30379 0.85436 0.0
C1148 C 0.45752 0.27564 0.89579 0.0
C1149 C 0.46607 0.24873 0.78566 0.0
H1150 H 0.46553 0.22743 0.9556 0.0
C1151 C 0.48016 0.19603 0.79621 0.0
C1152 C 0.47133 0.183 0.84198 0.0
C1153 C 0.47831 0.20983 0.79699 0.0
C1154 C 0.46541 0.23307 0.90765 0.0
H1155 H 0.48777 0.30978 0.77319 0.0
H1156 H 0.48529 0.28283 0.76958 0.0
H1157 H 0.46525 0.25319 0.9581 0.0
H1158 H 0.4534 0.17424 0.92388 0.0
H1159 H 0.4501 0.19837 0.9249 0.0
H1160 H 0.46641 0.22876 0.73516 0.0
C1161 C 0.4777 0.28487 0.80524 0.0
C1162 C 0.46526 0.24786 0.90909 0.0
C1163 C 0.47921 0.30039 0.80766 0.0
C1164 C 0.46043 0.18406 0.88804 0.0
C1165 C 0.4586 0.19793 0.88888 0.0
C1166 C 0.4662 0.23396 0.78422 0.0
C1167 C 0.46692 0.27232 0.84951 0.0
C1168 C 0.46585 0.256 0.84811 0.0
C1169 C 0.46757 0.21102 0.84347 0.0
C1170 C 0.46613 0.22607 0.84518 0.0
H1171 H 0.45162 0.29333 0.93454 0.0
H1172 H 0.44898 0.2662 0.93011 0.0
H1173 H 0.46621 0.2545 0.7377 0.0
H1174 H 0.48867 0.19568 0.75996 0.0
H1175 H 0.48561 0.21976 0.76197 0.0
C1176 C 0.75235 0.18536 0.88512 0.0
C1177 C 0.7403 0.18399 0.83896 0.0
C1178 C 0.76798 0.19941 0.88572 0.0
C1179 C 0.79625 0.23547 0.7806 0.0
H1180 H 0.81593 0.25524 0.95446 0.0
C1181 C 0.84927 0.3023 0.80307 0.0
C1182 C 0.86179 0.30601 0.85082 0.0
C1183 C 0.83535 0.28665 0.80057 0.0
C1184 C 0.81074 0.24976 0.90547 0.0
H1185 H 0.73541 0.19627 0.75642 0.0
H1186 H 0.76247 0.22069 0.75795 0.0
H1187 H 0.79004 0.22922 0.95204 0.0
H1188 H 0.86958 0.29599 0.93267 0.0
H1189 H 0.84529 0.26862 0.92801 0.0
H1190 H 0.8168 0.2561 0.734 0.0
C1191 C 0.75994 0.21087 0.79328 0.0
C1192 C 0.79589 0.23483 0.90408 0.0
C1193 C 0.74435 0.19688 0.79277 0.0
C1194 C 0.86016 0.29358 0.89537 0.0
C1195 C 0.84618 0.27791 0.89299 0.0
C1196 C 0.81108 0.25038 0.78199 0.0
C1197 C 0.77194 0.21238 0.83996 0.0
C1198 C 0.78834 0.22762 0.84161 0.0
C1199 C 0.83357 0.27428 0.84576 0.0
C1200 C 0.8184 0.25784 0.84442 0.0
H1201 H 0.74968 0.17565 0.92127 0.0
H1202 H 0.77699 0.2001 0.92187 0.0
H1203 H 0.79095 0.23011 0.73157 0.0
H1204 H 0.85009 0.31154 0.76791 0.0
H1205 H 0.8258 0.28437 0.76415 0.0
C1206 C 0.89974 0.51299 0.88929 0.0
C1207 C 0.90895 0.52591 0.84356 0.0
C1208 C 0.901 0.49885 0.88866 0.0
C1209 C 0.92684 0.48177 0.83167 0.0
H1210 H 0.88606 0.44037 0.84819 0.0
C1211 C 0.92163 0.41798 0.79264 0.0
C1212 C 0.91095 0.40532 0.83682 0.0
C1213 C 0.92244 0.43324 0.79386 0.0
C1214 C 0.89759 0.45182 0.84433 0.0
H1215 H 0.9271 0.53422 0.76256 0.0
H1216 H 0.92919 0.50939 0.76115 0.0
H1217 H 0.88558 0.46591 0.84941 0.0
H1218 H 0.89331 0.39908 0.919 0.0
H1219 H 0.89487 0.42559 0.92152 0.0
H1220 H 0.93881 0.46753 0.82644 0.0
C1221 C 0.92106 0.5103 0.79778 0.0
C1222 C 0.89732 0.46648 0.84502 0.0
C1223 C 0.91981 0.5245 0.79841 0.0
C1224 C 0.90153 0.40845 0.88365 0.0
C1225 C 0.90235 0.42366 0.88488 0.0
C1226 C 0.92712 0.46704 0.83097 0.0
C1227 C 0.91147 0.49721 0.84225 0.0
C1228 C 0.91194 0.48166 0.83941 0.0
C1229 C 0.91259 0.43615 0.83925 0.0
C1230 C 0.91249 0.45189 0.838 0.0
H1231 H 0.89138 0.51369 0.92533 0.0
H1232 H 0.89369 0.48916 0.9246 0.0
H1233 H 0.93833 0.49326 0.82768 0.0
H1234 H 0.92907 0.41599 0.75596 0.0
H1235 H 0.9304 0.44258 0.75782 0.0
C1236 C 0.53103 0.40736 0.88099 0.0
C1237 C 0.51829 0.4032 0.83381 0.0
C1238 C 0.54484 0.4231 0.88157 0.0
C1239 C 0.56874 0.45916 0.77171 0.0
H1240 H 0.58917 0.48032 0.94266 0.0
C1241 C 0.62731 0.52364 0.78293 0.0
C1242 C 0.6395 0.52526 0.82889 0.0
C1243 C 0.61162 0.50966 0.78424 0.0
C1244 C 0.58368 0.47454 0.89444 0.0
H1245 H 0.51 0.41253 0.75109 0.0
H1246 H 0.5341 0.44003 0.75239 0.0
H1247 H 0.56339 0.45425 0.94401 0.0
H1248 H 0.64457 0.5135 0.91306 0.0
H1249 H 0.61745 0.48924 0.91479 0.0
H1250 H 0.58919 0.47933 0.72218 0.0
C1251 C 0.53345 0.43102 0.78844 0.0
C1252 C 0.5689 0.45959 0.89524 0.0
C1253 C 0.51959 0.41528 0.78799 0.0
C1254 C 0.63553 0.5127 0.87677 0.0
C1255 C 0.6199 0.4988 0.87817 0.0
C1256 C 0.58355 0.47413 0.77091 0.0
C1257 C 0.54629 0.43509 0.83496 0.0
C1258 C 0.56137 0.45158 0.83392 0.0
C1259 C 0.60776 0.49705 0.83179 0.0
C1260 C 0.59133 0.48187 0.83231 0.0
H1261 H 0.53046 0.39839 0.91707 0.0
H1262 H 0.55458 0.42574 0.91754 0.0
H1263 H 0.56336 0.45324 0.72356 0.0
H1264 H 0.62993 0.53309 0.74553 0.0
H1265 H 0.6025 0.50876 0.74821 0.0
C1266 C 0.62961 0.12276 0.75224 0.0
C1267 C 0.6413 0.13288 0.801 0.0
C1268 C 0.61383 0.12073 0.75233 0.0
C1269 C 0.5845 0.12583 0.86184 0.0
H1270 H 0.56605 0.12933 0.6902 0.0
C1271 C 0.53259 0.14094 0.84948 0.0
C1272 C 0.52024 0.13318 0.7999 0.0
C1273 C 0.54623 0.13884 0.84986 0.0
C1274 C 0.57089 0.12806 0.73846 0.0
H1275 H 0.64537 0.14851 0.88902 0.0
H1276 H 0.61804 0.14506 0.88881 0.0
H1277 H 0.59191 0.12923 0.69053 0.0
H1278 H 0.51249 0.11685 0.71236 0.0
H1279 H 0.53637 0.11314 0.71319 0.0
H1280 H 0.56368 0.12497 0.90992 0.0
C1281 C 0.62097 0.13856 0.85081 0.0
C1282 C 0.58572 0.128 0.73865 0.0
C1283 C 0.63672 0.14064 0.85058 0.0
C1284 C 0.52178 0.12305 0.75118 0.0
C1285 C 0.53551 0.12099 0.75142 0.0
C1286 C 0.5697 0.12589 0.86165 0.0
C1287 C 0.60935 0.12868 0.80146 0.0
C1288 C 0.59285 0.1272 0.80048 0.0
C1289 C 0.54793 0.12891 0.80067 0.0
C1290 C 0.56287 0.12732 0.80009 0.0
H1291 H 0.63271 0.11656 0.71341 0.0
H1292 H 0.60511 0.11291 0.714 0.0
H1293 H 0.58948 0.12486 0.91026 0.0
H1294 H 0.53182 0.14882 0.8879 0.0
H1295 H 0.55565 0.14532 0.88793 0.0
C1296 C 0.51478 0.89935 0.16443 0.0
C1297 C 0.53052 0.91293 0.17533 0.0
C1298 C 0.50101 0.90119 0.16316 0.0
C1299 C 0.48611 0.9303 0.14253 0.0
H1300 H 0.44902 0.89703 0.24471 0.0
C1301 C 0.42337 0.92867 0.18328 0.0
C1302 C 0.40935 0.91301 0.17649 0.0
C1303 C 0.43915 0.93056 0.18183 0.0
C1304 C 0.45922 0.90637 0.21558 0.0
H1305 H 0.54415 0.93932 0.1901 0.0
H1306 H 0.51986 0.94253 0.18799 0.0
H1307 H 0.47474 0.89694 0.24416 0.0
H1308 H 0.40103 0.88725 0.15854 0.0
H1309 H 0.42822 0.89056 0.15569 0.0
H1310 H 0.47027 0.93957 0.11353 0.0
C1311 C 0.51831 0.93044 0.18055 0.0
C1312 C 0.47397 0.90631 0.21523 0.0
C1313 C 0.5322 0.92859 0.1819 0.0
C1314 C 0.41149 0.89946 0.16522 0.0
C1315 C 0.42711 0.90134 0.16381 0.0
C1316 C 0.47122 0.93035 0.14285 0.0
C1317 C 0.50253 0.91667 0.1728 0.0
C1318 C 0.48747 0.918 0.17739 0.0
C1319 C 0.44112 0.9168 0.17373 0.0
C1320 C 0.4575 0.91811 0.17806 0.0
H1321 H 0.513 0.88714 0.15808 0.0
H1322 H 0.48908 0.89039 0.15539 0.0
H1323 H 0.49632 0.93948 0.11299 0.0
H1324 H 0.42215 0.93937 0.19175 0.0
H1325 H 0.44973 0.94264 0.18943 0.0
C1326 C 0.12251 0.62455 0.20662 0.0
C1327 C 0.13624 0.63807 0.17695 0.0
C1328 C 0.12031 0.60874 0.20129 0.0
C1329 C 0.13487 0.58438 0.10343 0.0
H1330 H 0.11901 0.55549 0.26045 0.0
C1331 C 0.14643 0.53054 0.14138 0.0
C1332 C 0.13358 0.51555 0.16601 0.0
C1333 C 0.14466 0.54435 0.13725 0.0
C1334 C 0.12323 0.56332 0.21583 0.0
H1335 H 0.15843 0.64547 0.1183 0.0
H1336 H 0.15486 0.61816 0.11058 0.0
H1337 H 0.12007 0.5819 0.2646 0.0
H1338 H 0.10864 0.50325 0.20458 0.0
H1339 H 0.10564 0.52763 0.19846 0.0
H1340 H 0.13863 0.56604 0.05584 0.0
C1341 C 0.14553 0.61962 0.13665 0.0
C1342 C 0.12382 0.57848 0.21809 0.0
C1343 C 0.14766 0.63536 0.14154 0.0
C1344 C 0.11875 0.51461 0.18524 0.0
C1345 C 0.11707 0.52857 0.18213 0.0
C1346 C 0.13443 0.56934 0.10148 0.0
C1347 C 0.13184 0.60606 0.16645 0.0
C1348 C 0.12993 0.58935 0.16231 0.0
C1349 C 0.13006 0.54361 0.15842 0.0
C1350 C 0.12885 0.55875 0.15802 0.0
H1351 H 0.11341 0.62616 0.23391 0.0
H1352 H 0.10951 0.5986 0.22413 0.0
H1353 H 0.13925 0.5922 0.05881 0.0
H1354 H 0.15799 0.53166 0.12584 0.0
H1355 H 0.15495 0.55578 0.11936 0.0
C1356 C 0.51432 0.63663 0.15664 0.0
C1357 C 0.52726 0.64 0.20167 0.0
C1358 C 0.50038 0.62099 0.15384 0.0
C1359 C 0.47682 0.58309 0.25486 0.0
H1360 H 0.45567 0.56474 0.08147 0.0
C1361 C 0.41935 0.51821 0.23384 0.0
C1362 C 0.40666 0.51677 0.19141 0.0
C1363 C 0.4348 0.5325 0.23321 0.0
C1364 C 0.46135 0.56974 0.13038 0.0
H1365 H 0.53572 0.62938 0.27838 0.0
H1366 H 0.51141 0.60205 0.27314 0.0
H1367 H 0.48124 0.59101 0.08402 0.0
H1368 H 0.40047 0.52918 0.11383 0.0
H1369 H 0.42725 0.55402 0.11317 0.0
H1370 H 0.45682 0.56191 0.30128 0.0
C1371 C 0.51198 0.6116 0.24056 0.0
C1372 C 0.47602 0.58481 0.13185 0.0
C1373 C 0.52597 0.62725 0.24328 0.0
C1374 C 0.40992 0.52983 0.14728 0.0
C1375 C 0.42535 0.54407 0.14655 0.0
C1376 C 0.46214 0.568 0.25339 0.0
C1377 C 0.49898 0.60829 0.19596 0.0
C1378 C 0.48385 0.59178 0.19416 0.0
C1379 C 0.43795 0.54567 0.18993 0.0
C1380 C 0.45411 0.56122 0.19118 0.0
H1381 H 0.51486 0.64612 0.12378 0.0
H1382 H 0.49052 0.61897 0.11955 0.0
H1383 H 0.4824 0.58818 0.30383 0.0
H1384 H 0.41731 0.50839 0.26834 0.0
H1385 H 0.44428 0.53323 0.26666 0.0
C1386 C 0.5675 0.7423 0.21808 0.0
C1387 C 0.57868 0.73936 0.18187 0.0
C1388 C 0.56902 0.7578 0.21786 0.0
C1389 C 0.59721 0.80172 0.19247 0.0
H1390 H 0.55733 0.80237 0.15116 0.0
C1391 C 0.59489 0.86215 0.15826 0.0
C1392 C 0.58051 0.86181 0.18015 0.0
C1393 C 0.59594 0.84781 0.15944 0.0
C1394 C 0.56855 0.80246 0.16388 0.0
H1395 H 0.60063 0.75071 0.11913 0.0
H1396 H 0.60337 0.77801 0.11961 0.0
H1397 H 0.55697 0.77643 0.1518 0.0
H1398 H 0.55644 0.84651 0.22477 0.0
H1399 H 0.55846 0.82187 0.22924 0.0
H1400 H 0.60871 0.82779 0.20609 0.0
C1401 C 0.59339 0.76816 0.14774 0.0
C1402 C 0.56834 0.78756 0.16384 0.0
C1403 C 0.59176 0.75252 0.14725 0.0
C1404 C 0.56759 0.84711 0.20641 0.0
C1405 C 0.56871 0.83292 0.20845 0.0
C1406 C 0.59739 0.8167 0.19327 0.0
C1407 C 0.58184 0.77086 0.18207 0.0
C1408 C 0.58259 0.78697 0.17891 0.0
C1409 C 0.58269 0.83291 0.18323 0.0
C1410 C 0.58298 0.81723 0.17989 0.0
H1411 H 0.55731 0.73252 0.24561 0.0
H1412 H 0.56006 0.75957 0.24553 0.0
H1413 H 0.60837 0.80161 0.20442 0.0
H1414 H 0.60505 0.8733 0.13765 0.0
H1415 H 0.60688 0.84828 0.13945 0.0
C1416 C 0.29414 0.86016 0.14896 0.0
C1417 C 0.30823 0.85995 0.17107 0.0
C1418 C 0.27874 0.84575 0.14992 0.0
C1419 C 0.26061 0.8004 0.15501 0.0
H1420 H 0.21997 0.79969 0.19543 0.0
C1421 C 0.20063 0.74016 0.20503 0.0
C1422 C 0.18662 0.73765 0.16924 0.0
C1423 C 0.21485 0.75557 0.20597 0.0
C1424 C 0.23123 0.79975 0.18356 0.0
H1425 H 0.31702 0.84472 0.2154 0.0
H1426 H 0.29032 0.81995 0.2193 0.0
H1427 H 0.24597 0.8258 0.19718 0.0
H1428 H 0.17646 0.74963 0.10847 0.0
H1429 H 0.20138 0.7767 0.1109 0.0
H1430 H 0.24596 0.77438 0.14274 0.0
C1431 C 0.29113 0.83098 0.19865 0.0
C1432 C 0.24612 0.8147 0.18437 0.0
C1433 C 0.30647 0.84525 0.1969 0.0
C1434 C 0.18705 0.75111 0.13624 0.0
C1435 C 0.20128 0.76663 0.13786 0.0
C1436 C 0.24581 0.78551 0.15493 0.0
C1437 C 0.2771 0.83089 0.17366 0.0
C1438 C 0.26105 0.81519 0.17082 0.0
C1439 C 0.21542 0.76893 0.17179 0.0
C1440 C 0.23097 0.78498 0.16981 0.0
H1441 H 0.29511 0.87129 0.1287 0.0
H1442 H 0.26824 0.84616 0.12999 0.0
H1443 H 0.27173 0.80028 0.14228 0.0
H1444 H 0.20077 0.73012 0.2313 0.0
H1445 H 0.22549 0.75702 0.23332 0.0
C1446 C 0.2939 0.45408 0.14333 0.0
C1447 C 0.30731 0.46704 0.17739 0.0
C1448 C 0.2784 0.45277 0.14464 0.0
C1449 C 0.25959 0.47839 0.16361 0.0
H1450 H 0.21906 0.43788 0.20058 0.0
C1451 C 0.1997 0.47897 0.20085 0.0
C1452 C 0.1852 0.46616 0.17256 0.0
C1453 C 0.2139 0.47788 0.20439 0.0
C1454 C 0.23023 0.44925 0.1893 0.0
H1455 H 0.31474 0.48854 0.24103 0.0
H1456 H 0.28788 0.48632 0.24255 0.0
H1457 H 0.24515 0.43807 0.19984 0.0
H1458 H 0.17409 0.44186 0.12786 0.0
H1459 H 0.19911 0.44008 0.1323 0.0
H1460 H 0.24493 0.48958 0.1514 0.0
C1461 C 0.28936 0.47722 0.21458 0.0
C1462 C 0.24518 0.44935 0.18905 0.0
C1463 C 0.30475 0.47844 0.21391 0.0
C1464 C 0.18507 0.45192 0.15009 0.0
C1465 C 0.19942 0.4509 0.1528 0.0
C1466 C 0.24472 0.47826 0.16315 0.0
C1467 C 0.27606 0.46451 0.17935 0.0
C1468 C 0.26003 0.46399 0.17709 0.0
C1469 C 0.21412 0.46404 0.17872 0.0
C1470 C 0.22984 0.46377 0.177 0.0
H1471 H 0.29541 0.44505 0.11498 0.0
H1472 H 0.26838 0.44287 0.11685 0.0
H1473 H 0.27079 0.48978 0.15279 0.0
H1474 H 0.20013 0.49 0.21964 0.0
H1475 H 0.22479 0.48802 0.22671 0.0
C1476 C 0.02624 0.21 0.27928 0.0
C1477 C 0.02168 0.22143 0.30079 0.0
C1478 C 0.02596 0.20624 0.20952 0.0
C1479 C 0.00546 0.20555 0.05025 0.0
H1480 H 0.04494 0.21479 0.95197 0.0
C1481 C 0.01516 0.22537 0.77262 0.0
C1482 C 0.02336 0.22038 0.72715 0.0
C1483 C 0.01363 0.22118 0.84146 0.0
C1484 C 0.0337 0.21176 0.97874 0.0
H1485 H 0.01319 0.23773 0.26549 0.0
H1486 H 0.0124 0.23094 0.14569 0.0
H1487 H 0.04508 0.2154 0.07734 0.0
H1488 H 0.03609 0.20669 0.71817 0.0
H1489 H 0.03355 0.1994 0.8401 0.0
H1490 H 0.99418 0.20246 0.95258 0.0
C1491 C 0.01627 0.22496 0.18232 0.0
C1492 C 0.0338 0.21213 0.05046 0.0
C1493 C 0.01683 0.22892 0.25117 0.0
C1494 C 0.02964 0.21064 0.75199 0.0
C1495 C 0.02828 0.20658 0.82173 0.0
C1496 C 0.00532 0.20507 0.97902 0.0
C1497 C 0.02075 0.21356 0.1606 0.0
C1498 C 0.01986 0.20968 0.08665 0.0
C1499 C 0.02033 0.21192 0.8673 0.0
C1500 C 0.01963 0.20887 0.94225 0.0
H1501 H 0.03008 0.20406 0.31619 0.0
H1502 H 0.02952 0.19744 0.19392 0.0
H1503 H 0.99448 0.20341 0.07696 0.0
H1504 H 0.01012 0.23284 0.75516 0.0
H1505 H 0.00766 0.22574 0.87501 0.0
C1506 C 0.82658 0.80763 0.25487 0.0
C1507 C 0.82767 0.81955 0.30141 0.0
C1508 C 0.82918 0.811 0.18516 0.0
C1509 C 0.8279 0.838 0.05208 0.0
H1510 H 0.84605 0.81684 0.94084 0.0
C1511 C 0.81255 0.82462 0.76752 0.0
C1512 C 0.82405 0.8247 0.72135 0.0
C1513 C 0.81591 0.82707 0.83726 0.0
C1514 C 0.84119 0.82309 0.97092 0.0
H1515 H 0.83271 0.84458 0.31037 0.0
H1516 H 0.83743 0.85057 0.18794 0.0
H1517 H 0.8473 0.81583 0.06476 0.0
H1518 H 0.8484 0.82785 0.713 0.0
H1519 H 0.85439 0.83229 0.83559 0.0
H1520 H 0.82185 0.8453 0.95823 0.0
C1521 C 0.83438 0.8385 0.20583 0.0
C1522 C 0.8417 0.82233 0.04224 0.0
C1523 C 0.83177 0.83511 0.27611 0.0
C1524 C 0.83926 0.82772 0.74698 0.0
C1525 C 0.84264 0.83016 0.81734 0.0
C1526 C 0.82746 0.83883 0.98076 0.0
C1527 C 0.83301 0.82642 0.15933 0.0
C1528 C 0.83462 0.82934 0.08387 0.0
C1529 C 0.83091 0.82971 0.86352 0.0
C1530 C 0.83365 0.83096 0.9391 0.0
H1531 H 0.82342 0.79547 0.272 0.0
H1532 H 0.82766 0.80125 0.15123 0.0
H1533 H 0.82229 0.84352 0.08212 0.0
H1534 H 0.80068 0.82235 0.75007 0.0
H1535 H 0.80642 0.82631 0.8709 0.0
C1536 C 0.21228 0.02503 0.2677 0.0
C1537 C 0.22266 0.01947 0.2923 0.0
C1538 C 0.2081 0.02348 0.19805 0.0
C1539 C 0.20667 1.0004 0.04216 0.0
H1540 H 0.21573 0.03938 0.94077 0.0
C1541 C 0.2284 0.01007 0.76743 0.0
C1542 C 0.22139 0.01559 0.7184 0.0
C1543 C 0.2246 0.00958 0.83638 0.0
C1544 C 0.21279 0.0283 0.9685 0.0
H1545 H 0.23622 0.00738 0.26376 0.0
H1546 H 0.22884 0.00451 0.14396 0.0
H1547 H 0.21588 0.03995 0.06617 0.0
H1548 H 0.2049 0.0251 0.7041 0.0
H1549 H 0.19849 0.0246 0.82662 0.0
H1550 H 0.20444 0.989 0.94512 0.0
C1551 C 0.22393 0.0101 0.17777 0.0
C1552 C 0.21287 0.02862 0.04024 0.0
C1553 C 0.22827 0.01186 0.24653 0.0
C1554 C 0.21046 0.02073 0.74055 0.0
C1555 C 0.20684 0.02049 0.81049 0.0
C1556 C 0.20663 1.0001 0.97092 0.0
C1557 C 0.21394 0.01601 0.15235 0.0
C1558 C 0.21047 0.01485 0.07772 0.0
C1559 C 0.21379 0.01475 0.85892 0.0
C1560 C 0.21033 0.01423 0.93328 0.0
H1561 H 0.20783 0.03101 0.30173 0.0
H1562 H 0.20037 0.02813 0.17991 0.0
H1563 H 0.20445 0.98949 0.06952 0.0
H1564 H 0.23682 0.00595 0.75259 0.0
H1565 H 0.23035 0.00532 0.87246 0.0
C1566 C 0.03835 0.82285 0.76143 0.0
C1567 C 0.02736 0.82359 0.71495 0.0
C1568 C 0.03757 0.82551 0.83106 0.0
C1569 C 0.00908 0.82368 0.96465 0.0
H1570 H 0.04861 0.84255 0.07483 0.0
C1571 C 0.00761 0.80824 0.24865 0.0
C1572 C 0.01902 0.81982 0.2948 0.0
C1573 C 0.00842 0.81166 0.17902 0.0
C1574 C 0.03744 0.83749 0.04508 0.0
H1575 H 0.00704 0.82809 0.70608 0.0
H1576 H 0.00573 0.83291 0.82853 0.0
H1577 H 0.05076 0.8439 0.95089 0.0
H1578 H 0.04005 0.84434 0.30323 0.0
H1579 H 0.0414 0.85043 0.18085 0.0
H1580 H 0.99576 0.81731 0.05886 0.0
C1581 C 0.01491 0.83009 0.81055 0.0
C1582 C 0.03866 0.83806 0.97372 0.0
C1583 C 0.0157 0.82742 0.74027 0.0
C1584 C 0.03107 0.83514 0.26926 0.0
C1585 C 0.03189 0.83858 0.19901 0.0
C1586 C 0.00787 0.82318 0.03602 0.0
C1587 C 0.02579 0.82907 0.85696 0.0
C1588 C 0.02449 0.8307 0.93245 0.0
C1589 C 0.02063 0.82679 0.15284 0.0
C1590 C 0.02201 0.82962 0.0773 0.0
H1591 H 0.04752 0.81991 0.7443 0.0
H1592 H 0.04595 0.82425 0.86489 0.0
H1593 H 0.9979 0.81785 0.93488 0.0
H1594 H 0.99813 0.79628 0.26601 0.0
H1595 H 0.99972 0.80212 0.14538 0.0
C1596 C 0.22407 0.23334 0.2576 0.0
C1597 C 0.22077 0.21993 0.29919 0.0
C1598 C 0.22119 0.23125 0.18765 0.0
C1599 C 0.20286 0.20122 0.04577 0.0
H1600 H 0.24024 0.23544 0.94837 0.0
C1601 C 0.2068 0.21111 0.75001 0.0
C1602 C 0.22246 0.21766 0.72075 0.0
C1603 C 0.20474 0.20845 0.82068 0.0
C1604 C 0.22978 0.22564 0.97456 0.0
H1605 H 0.21087 0.19365 0.30156 0.0
H1606 H 0.20628 0.19 0.17782 0.0
H1607 H 0.23921 0.23669 0.07124 0.0
H1608 H 0.24786 0.22502 0.74013 0.0
H1609 H 0.24421 0.21979 0.86223 0.0
H1610 H 0.19371 0.19006 0.94775 0.0
C1611 C 0.21085 0.20209 0.19965 0.0
C1612 C 0.22904 0.22652 0.0452 0.0
C1613 C 0.21349 0.20416 0.27033 0.0
C1614 C 0.23571 0.2202 0.76183 0.0
C1615 C 0.23362 0.2173 0.83176 0.0
C1616 C 0.20361 0.20033 0.97441 0.0
C1617 C 0.21529 0.21576 0.15733 0.0
C1618 C 0.21556 0.21442 0.08179 0.0
C1619 C 0.21831 0.21216 0.86256 0.0
C1620 C 0.21716 0.21253 0.93815 0.0
H1621 H 0.22945 0.24559 0.27894 0.0
H1622 H 0.22428 0.24195 0.1568 0.0
H1623 H 0.19231 0.19172 0.07259 0.0
H1624 H 0.19641 0.20909 0.71916 0.0
H1625 H 0.19279 0.20449 0.84287 0.0
C1626 C 0.83643 0.01821 0.26479 0.0
C1627 C 0.82525 0.02306 0.28652 0.0
C1628 C 0.84007 0.01837 0.19496 0.0
C1629 C 0.84048 0.03863 0.03481 0.0
H1630 H 0.83142 0.99895 0.93865 0.0
C1631 C 0.82002 0.02779 0.75798 0.0
C1632 C 0.82534 0.01985 0.71258 0.0
C1633 C 0.82425 0.02946 0.82681 0.0
C1634 C 0.8344 0.01024 0.96483 0.0
H1635 H 0.80928 0.032 0.25157 0.0
H1636 H 0.81583 0.03254 0.13166 0.0
H1637 H 0.83106 0.99923 0.06405 0.0
H1638 H 0.83958 0.00769 0.7038 0.0
H1639 H 0.8469 0.01045 0.82583 0.0
H1640 H 0.84323 0.04954 0.9365 0.0
C1641 C 0.82174 0.02855 0.16813 0.0
C1642 C 0.83417 0.01038 0.03657 0.0
C1643 C 0.81791 0.02812 0.23707 0.0
C1644 C 0.83537 0.01393 0.73756 0.0
C1645 C 0.83946 0.01541 0.80734 0.0
C1646 C 0.8408 0.03853 0.96358 0.0
C1647 C 0.83288 0.02375 0.14615 0.0
C1648 C 0.83656 0.0244 0.07202 0.0
C1649 C 0.83386 0.02316 0.85274 0.0
C1650 C 0.83706 0.02414 0.9276 0.0
H1651 H 0.84225 0.0142 0.30157 0.0
H1652 H 0.84867 0.01455 0.17921 0.0
H1653 H 0.8426 0.04968 0.06088 0.0
H1654 H 0.81234 0.03256 0.74043 0.0
H1655 H 0.8195 0.03526 0.86028 0.0
C1656 C 0.69602 0.54607 0.08575 0.0
C1657 C 0.68629 0.55185 0.05646 0.0
C1658 C 0.69553 0.54351 0.15645 0.0
C1659 C 0.68665 0.56001 0.30982 0.0
H1660 H 0.69247 0.52772 0.40893 0.0
C1661 C 0.70096 0.56923 0.59207 0.0
C1662 C 0.69143 0.55578 0.63465 0.0
C1663 C 0.70161 0.56702 0.52209 0.0
C1664 C 0.69078 0.53676 0.3818 0.0
H1665 H 0.66732 0.55789 0.07576 0.0
H1666 H 0.66593 0.55278 0.19794 0.0
H1667 H 0.68912 0.52553 0.28426 0.0
H1668 H 0.67594 0.52934 0.63851 0.0
H1669 H 0.67664 0.52547 0.51486 0.0
H1670 H 0.68795 0.57112 0.40605 0.0
C1671 C 0.6744 0.55083 0.16746 0.0
C1672 C 0.68896 0.53557 0.31054 0.0
C1673 C 0.6751 0.55365 0.09749 0.0
C1674 C 0.68339 0.53991 0.6066 0.0
C1675 C 0.68382 0.5377 0.53594 0.0
C1676 C 0.68844 0.56119 0.38036 0.0
C1677 C 0.68518 0.54653 0.19832 0.0
C1678 C 0.68681 0.54717 0.27389 0.0
C1679 C 0.69245 0.55134 0.49274 0.0
C1680 C 0.69065 0.54969 0.41733 0.0
H1681 H 0.70479 0.54466 0.05494 0.0
H1682 H 0.70399 0.54021 0.17867 0.0
H1683 H 0.68536 0.56937 0.28329 0.0
H1684 H 0.70751 0.58157 0.61267 0.0
H1685 H 0.70877 0.57773 0.49051 0.0
C1686 C 0.50729 0.16328 0.58059 0.0
C1687 C 0.49171 0.1573 0.61005 0.0
C1688 C 0.50936 0.16584 0.50989 0.0
C1689 C 0.48396 0.14905 0.35675 0.0
H1690 H 0.52218 0.18148 0.25745 0.0
C1691 C 0.48947 0.13962 0.07487 0.0
C1692 C 0.49337 0.15299 0.03194 0.0
C1693 C 0.49222 0.14193 0.14487 0.0
C1694 C 0.51141 0.17239 0.28462 0.0
H1695 H 0.46657 0.15092 0.59104 0.0
H1696 H 0.47028 0.15605 0.46882 0.0
H1697 H 0.5209 0.18376 0.38203 0.0
H1698 H 0.50421 0.17939 0.02752 0.0
H1699 H 0.50863 0.18344 0.15114 0.0
H1700 H 0.47424 0.1378 0.26062 0.0
C1701 C 0.48077 0.15815 0.49919 0.0
C1702 C 0.51072 0.17364 0.35585 0.0
C1703 C 0.47865 0.15532 0.56918 0.0
C1704 C 0.50111 0.16889 0.05968 0.0
C1705 C 0.50366 0.1712 0.13034 0.0
C1706 C 0.48464 0.14781 0.28624 0.0
C1707 C 0.49591 0.16263 0.46816 0.0
C1708 C 0.49693 0.16198 0.39258 0.0
C1709 C 0.49864 0.15763 0.17386 0.0
C1710 C 0.49839 0.15936 0.24921 0.0
H1711 H 0.51752 0.16482 0.61127 0.0
H1712 H 0.52117 0.16929 0.48756 0.0
H1713 H 0.47328 0.13964 0.38333 0.0
H1714 H 0.48373 0.12726 0.05454 0.0
H1715 H 0.48867 0.13128 0.17672 0.0
C1716 C 0.87455 0.35054 0.07961 0.0
C1717 C 0.89054 0.35607 0.05515 0.0
C1718 C 0.87185 0.35204 0.14927 0.0
C1719 C 0.8935 0.37493 0.30556 0.0
H1720 H 0.86307 0.33594 0.40637 0.0
C1721 C 0.90526 0.36467 0.5793 0.0
C1722 C 0.89279 0.35953 0.62877 0.0
C1723 C 0.90193 0.36517 0.51045 0.0
C1724 C 0.87135 0.34702 0.37878 0.0
H1725 H 0.91621 0.36804 0.08401 0.0
H1726 H 0.91157 0.37079 0.20382 0.0
H1727 H 0.86278 0.33549 0.28094 0.0
H1728 H 0.86687 0.35067 0.64386 0.0
H1729 H 0.86092 0.35118 0.52145 0.0
H1730 H 0.9027 0.3862 0.40278 0.0
C1731 C 0.90108 0.36528 0.16988 0.0
C1732 C 0.87119 0.34677 0.30704 0.0
C1733 C 0.90373 0.36358 0.10111 0.0
C1734 C 0.87675 0.35474 0.60709 0.0
C1735 C 0.87334 0.35498 0.53723 0.0
C1736 C 0.89368 0.37516 0.3768 0.0
C1737 C 0.88513 0.35941 0.19514 0.0
C1738 C 0.88275 0.36054 0.26977 0.0
C1739 C 0.88599 0.36039 0.48843 0.0
C1740 C 0.88307 0.36103 0.4142 0.0
H1741 H 0.86413 0.34464 0.04546 0.0
H1742 H 0.85942 0.34742 0.16727 0.0
H1743 H 0.90233 0.38583 0.27837 0.0
H1744 H 0.91777 0.3685 0.5937 0.0
H1745 H 0.91188 0.36916 0.47405 0.0
C1746 C 0.69635 0.1691 0.05892 0.0
C1747 C 0.68841 0.1532 0.03103 0.0
C1748 C 0.69598 0.17133 0.12959 0.0
C1749 C 0.69177 0.14802 0.28533 0.0
H1750 H 0.6907 0.18349 0.3813 0.0
C1751 C 0.70499 0.15563 0.56832 0.0
C1752 C 0.69372 0.15732 0.60919 0.0
C1753 C 0.70572 0.15846 0.49834 0.0
C1754 C 0.69097 0.17351 0.35506 0.0
H1755 H 0.67258 0.12739 0.05335 0.0
H1756 H 0.67143 0.13127 0.17555 0.0
H1757 H 0.6873 0.18123 0.25667 0.0
H1758 H 0.67509 0.16434 0.61046 0.0
H1759 H 0.67593 0.16881 0.48675 0.0
H1760 H 0.695 0.13996 0.38241 0.0
C1761 C 0.67846 0.14198 0.14381 0.0
C1762 C 0.68913 0.17227 0.28381 0.0
C1763 C 0.67904 0.13975 0.07381 0.0
C1764 C 0.68393 0.16302 0.57976 0.0
C1765 C 0.68444 0.16558 0.50907 0.0
C1766 C 0.69358 0.14924 0.35587 0.0
C1767 C 0.68752 0.15769 0.17296 0.0
C1768 C 0.68939 0.15941 0.24834 0.0
C1769 C 0.69489 0.16266 0.46734 0.0
C1770 C 0.69328 0.16201 0.39176 0.0
H1771 H 0.70368 0.17967 0.02685 0.0
H1772 H 0.70308 0.18359 0.15051 0.0
H1773 H 0.69237 0.13815 0.25967 0.0
H1774 H 0.71281 0.15145 0.59017 0.0
H1775 H 0.71426 0.15659 0.46798 0.0
C1776 C 0.90119 0.55787 0.11571 0.0
C1777 C 0.888 0.55272 0.07015 0.0
C1778 C 0.89847 0.55369 0.18457 0.0
C1779 C 0.86856 0.54385 0.32131 0.0
H1780 H 0.89991 0.53665 0.42098 0.0
C1781 C 0.87427 0.54234 0.62241 0.0
C1782 C 0.8901 0.55443 0.64345 0.0
C1783 C 0.87082 0.53845 0.55273 0.0
C1784 C 0.89093 0.53844 0.39385 0.0
H1785 H 0.86151 0.53872 0.06102 0.0
H1786 H 0.85668 0.53141 0.18289 0.0
H1787 H 0.89945 0.53548 0.29662 0.0
H1788 H 0.91463 0.57185 0.6073 0.0
H1789 H 0.90869 0.56483 0.48767 0.0
H1790 H 0.86048 0.54734 0.41952 0.0
C1791 C 0.86917 0.53873 0.16463 0.0
C1792 C 0.8907 0.53786 0.32263 0.0
C1793 C 0.87192 0.5428 0.09489 0.0
C1794 C 0.90229 0.5625 0.5934 0.0
C1795 C 0.89894 0.55843 0.52464 0.0
C1796 C 0.86871 0.5443 0.39302 0.0
C1797 C 0.88245 0.54426 0.21032 0.0
C1798 C 0.88003 0.54128 0.28532 0.0
C1799 C 0.88325 0.54633 0.50346 0.0
C1800 C 0.88036 0.54226 0.42968 0.0
H1801 H 0.91373 0.56548 0.09834 0.0
H1802 H 0.909 0.5584 0.21819 0.0
H1803 H 0.86022 0.54659 0.29416 0.0
H1804 H 0.86461 0.53593 0.65964 0.0
H1805 H 0.85859 0.5291 0.53748 0.0
C1806 C 0.50403 0.35518 0.08114 0.0
C1807 C 0.488 0.35048 0.05974 0.0
C1808 C 0.5075 0.35493 0.15089 0.0
C1809 C 0.48749 0.33445 0.31048 0.0
H1810 H 0.51787 0.37402 0.40821 0.0
C1811 C 0.47716 0.34461 0.58755 0.0
C1812 C 0.49036 0.35258 0.63322 0.0
C1813 C 0.47987 0.34308 0.51869 0.0
C1814 C 0.50962 0.36276 0.38158 0.0
H1815 H 0.46308 0.34173 0.09524 0.0
H1816 H 0.46908 0.34102 0.21487 0.0
H1817 H 0.51753 0.374 0.28281 0.0
H1818 H 0.51683 0.36495 0.64247 0.0
H1819 H 0.52164 0.36242 0.52053 0.0
H1820 H 0.47908 0.32332 0.40834 0.0
C1821 C 0.47898 0.34497 0.17823 0.0
C1822 C 0.50943 0.36277 0.30986 0.0
C1823 C 0.47559 0.34549 0.10943 0.0
C1824 C 0.50642 0.35868 0.60851 0.0
C1825 C 0.50917 0.35733 0.53877 0.0
C1826 C 0.48773 0.33441 0.38171 0.0
C1827 C 0.49491 0.3496 0.19986 0.0
C1828 C 0.49788 0.34879 0.27385 0.0
C1829 C 0.49588 0.34956 0.49308 0.0
C1830 C 0.49829 0.34875 0.41824 0.0
H1831 H 0.51386 0.35913 0.04418 0.0
H1832 H 0.51991 0.35862 0.16642 0.0
H1833 H 0.4786 0.32344 0.28394 0.0
H1834 H 0.46463 0.33972 0.60488 0.0
H1835 H 0.46935 0.33725 0.48498 0.0
C1836 C 0.36553 0.90258 0.43515 0.0
C1837 C 0.36047 0.88964 0.38813 0.0
C1838 C 0.36571 0.89994 0.50491 0.0
C1839 C 0.34966 0.86908 0.64204 0.0
H1840 H 0.38623 0.90429 0.73981 0.0
C1841 C 0.35904 0.87343 0.94181 0.0
C1842 C 0.35923 0.88754 0.96655 0.0
C1843 C 0.36017 0.87134 0.87119 0.0
C1844 C 0.37604 0.89427 0.71321 0.0
H1845 H 0.35089 0.86348 0.37833 0.0
H1846 H 0.35134 0.85879 0.50199 0.0
H1847 H 0.38595 0.90448 0.61554 0.0
H1848 H 0.36127 0.91067 0.9378 0.0
H1849 H 0.36394 0.90737 0.81586 0.0
H1850 H 0.33974 0.8591 0.74106 0.0
C1851 C 0.35519 0.87105 0.48395 0.0
C1852 C 0.37578 0.89442 0.64199 0.0
C1853 C 0.35493 0.87372 0.41324 0.0
C1854 C 0.36111 0.89969 0.92008 0.0
C1855 C 0.36264 0.89781 0.85033 0.0
C1856 C 0.35002 0.86884 0.71381 0.0
C1857 C 0.36097 0.88426 0.53044 0.0
C1858 C 0.36228 0.88221 0.60541 0.0
C1859 C 0.36198 0.88355 0.82492 0.0
C1860 C 0.36297 0.88176 0.74996 0.0
H1861 H 0.36952 0.91496 0.41799 0.0
H1862 H 0.36966 0.91031 0.53903 0.0
H1863 H 0.33909 0.85949 0.61558 0.0
H1864 H 0.35744 0.86383 0.97665 0.0
H1865 H 0.35965 0.86025 0.85273 0.0
C1866 C 0.16396 0.50481 0.93255 0.0
C1867 C 0.16264 0.49029 0.95845 0.0
C1868 C 0.16641 0.50831 0.86225 0.0
C1869 C 0.17786 0.49521 0.69955 0.0
H1870 H 0.15042 0.50986 0.61425 0.0
C1871 C 0.1723 0.49724 0.40349 0.0
C1872 C 0.15625 0.49133 0.37902 0.0
C1873 C 0.17579 0.50031 0.4736 0.0
C1874 C 0.15817 0.50572 0.63713 0.0
H1875 H 0.1636 0.46846 0.93065 0.0
H1876 H 0.1676 0.47439 0.81004 0.0
H1877 H 0.15194 0.50943 0.73819 0.0
H1878 H 0.13136 0.4841 0.40995 0.0
H1879 H 0.13733 0.48912 0.53023 0.0
H1880 H 0.18332 0.4906 0.59851 0.0
C1881 C 0.16695 0.48324 0.84326 0.0
C1882 C 0.15922 0.50571 0.70847 0.0
C1883 C 0.16447 0.47974 0.91287 0.0
C1884 C 0.1439 0.48872 0.42632 0.0
C1885 C 0.14736 0.49177 0.49579 0.0
C1886 C 0.17674 0.49515 0.62818 0.0
C1887 C 0.16772 0.49743 0.81652 0.0
C1888 C 0.16869 0.49998 0.74082 0.0
C1889 C 0.16332 0.49759 0.52073 0.0
C1890 C 0.16648 0.49993 0.59598 0.0
H1891 H 0.1626 0.51319 0.96613 0.0
H1892 H 0.16708 0.51944 0.84364 0.0
H1893 H 0.18556 0.49104 0.72246 0.0
H1894 H 0.18212 0.49939 0.36867 0.0
H1895 H 0.18825 0.50487 0.49083 0.0
C1896 C 0.56075 0.68089 0.93444 0.0
C1897 C 0.55566 0.68898 0.9801 0.0
C1898 C 0.55654 0.67938 0.86561 0.0
C1899 C 0.54692 0.6993 0.72854 0.0
H1900 H 0.53862 0.66008 0.63039 0.0
C1901 C 0.54504 0.69161 0.42793 0.0
C1902 C 0.55653 0.68713 0.40657 0.0
C1903 C 0.54131 0.69139 0.49768 0.0
C1904 C 0.54074 0.67106 0.65708 0.0
H1905 H 0.54182 0.70155 0.98937 0.0
H1906 H 0.53452 0.69904 0.86741 0.0
H1907 H 0.53772 0.65982 0.75477 0.0
H1908 H 0.57299 0.67884 0.44216 0.0
H1909 H 0.56624 0.67816 0.56191 0.0
H1910 H 0.5505 0.71063 0.62989 0.0
C1911 C 0.54178 0.69385 0.88566 0.0
C1912 C 0.54029 0.67094 0.7283 0.0
C1913 C 0.54584 0.69519 0.95541 0.0
C1914 C 0.56412 0.68243 0.45634 0.0
C1915 C 0.56019 0.68192 0.52518 0.0
C1916 C 0.54726 0.69938 0.65681 0.0
C1917 C 0.54718 0.68599 0.83995 0.0
C1918 C 0.54408 0.68525 0.76504 0.0
C1919 C 0.54871 0.68631 0.54673 0.0
C1920 C 0.54483 0.68544 0.62066 0.0
H1921 H 0.56827 0.6759 0.95175 0.0
H1922 H 0.56116 0.67348 0.83193 0.0
H1923 H 0.54994 0.71054 0.75529 0.0
H1924 H 0.53903 0.69533 0.39091 0.0
H1925 H 0.53244 0.69488 0.51316 0.0
C1926 C 0.35153 0.4984 0.94763 0.0
C1927 C 0.357 0.48796 0.97224 0.0
C1928 C 0.35309 0.50257 0.87796 0.0
C1929 C 0.37603 0.50366 0.72196 0.0
H1930 H 0.33711 0.49492 0.62069 0.0
C1931 C 0.36586 0.48149 0.4477 0.0
C1932 C 0.36073 0.48881 0.39841 0.0
C1933 C 0.36634 0.48531 0.51665 0.0
C1934 C 0.34817 0.49776 0.6484 0.0
H1935 H 0.36896 0.47427 0.94372 0.0
H1936 H 0.37183 0.4816 0.82396 0.0
H1937 H 0.33662 0.49493 0.74611 0.0
H1938 H 0.35187 0.50581 0.38368 0.0
H1939 H 0.35234 0.51225 0.50615 0.0
H1940 H 0.3873 0.5056 0.62487 0.0
C1941 C 0.36631 0.48659 0.85773 0.0
C1942 C 0.3479 0.49778 0.72014 0.0
C1943 C 0.36454 0.48227 0.92648 0.0
C1944 C 0.35593 0.50001 0.42033 0.0
C1945 C 0.35615 0.50366 0.49023 0.0
C1946 C 0.37626 0.50359 0.65072 0.0
C1947 C 0.36048 0.49664 0.83227 0.0
C1948 C 0.36164 0.50007 0.75759 0.0
C1949 C 0.36155 0.49644 0.53889 0.0
C1950 C 0.36216 0.5 0.61316 0.0
H1951 H 0.3456 0.50291 0.98165 0.0
H1952 H 0.3485 0.51035 0.85979 0.0
H1953 H 0.38691 0.50579 0.74927 0.0
H1954 H 0.3697 0.47284 0.43308 0.0
H1955 H 0.37033 0.47937 0.55294 0.0
C1956 C 0.57011 0.88758 0.92036 0.0
C1957 C 0.55813 0.88617 0.96732 0.0
C1958 C 0.56659 0.88467 0.85089 0.0
C1959 C 0.53875 0.88433 0.71794 0.0
H1960 H 0.56102 0.86716 0.60802 0.0
C1961 C 0.55237 0.89986 0.43393 0.0
C1962 C 0.55299 0.88869 0.3879 0.0
C1963 C 0.5497 0.89636 0.50348 0.0
C1964 C 0.55445 0.87172 0.6377 0.0
H1965 H 0.53284 0.88029 0.97713 0.0
H1966 H 0.5266 0.87506 0.85491 0.0
H1967 H 0.56208 0.86621 0.73199 0.0
H1968 H 0.55078 0.86474 0.37954 0.0
H1969 H 0.54596 0.85849 0.50191 0.0
H1970 H 0.53108 0.88979 0.62363 0.0
C1971 C 0.53883 0.87858 0.87242 0.0
C1972 C 0.55524 0.87139 0.70907 0.0
C1973 C 0.54237 0.8815 0.94256 0.0
C1974 C 0.55038 0.87362 0.41343 0.0
C1975 C 0.54772 0.8701 0.48367 0.0
C1976 C 0.53788 0.88458 0.64656 0.0
C1977 C 0.55095 0.8802 0.82558 0.0
C1978 C 0.54787 0.87819 0.75023 0.0
C1979 C 0.54752 0.88154 0.52976 0.0
C1980 C 0.54617 0.87877 0.60535 0.0
H1981 H 0.58243 0.89119 0.93698 0.0
H1982 H 0.57639 0.88643 0.8167 0.0
H1983 H 0.53291 0.88969 0.74761 0.0
H1984 H 0.55428 0.9116 0.41655 0.0
H1985 H 0.54996 0.90563 0.53702 0.0
C1986 C 0.17067 0.68916 0.41011 0.0
C1987 C 0.15457 0.68409 0.38837 0.0
C1988 C 0.17413 0.68904 0.47995 0.0
C1989 C 0.1541 0.66882 0.64071 0.0
H1990 H 0.18508 0.70864 0.73551 0.0
C1991 C 0.14478 0.6803 0.91728 0.0
C1992 C 0.1581 0.68812 0.96249 0.0
C1993 C 0.14726 0.67854 0.84842 0.0
C1994 C 0.17665 0.69731 0.7097 0.0
H1995 H 0.12952 0.67475 0.42323 0.0
H1996 H 0.13549 0.67428 0.54312 0.0
H1997 H 0.18438 0.70812 0.61013 0.0
H1998 H 0.18456 0.69999 0.97085 0.0
H1999 H 0.18898 0.69709 0.84873 0.0
H2000 H 0.14589 0.65813 0.73941 0.0
C2001 C 0.14546 0.67841 0.5067 0.0
C2002 C 0.17625 0.69703 0.63797 0.0
C2003 C 0.14208 0.6788 0.43777 0.0
C2004 C 0.17405 0.69385 0.93724 0.0
C2005 C 0.17658 0.69228 0.86742 0.0
C2006 C 0.15454 0.66907 0.71194 0.0
C2007 C 0.16147 0.68347 0.52876 0.0
C2008 C 0.1645 0.68296 0.60297 0.0
C2009 C 0.16317 0.68463 0.82225 0.0
C2010 C 0.16533 0.68351 0.74741 0.0
H2011 H 0.18057 0.69336 0.37336 0.0
H2012 H 0.18659 0.69305 0.4957 0.0
H2013 H 0.14509 0.65772 0.61505 0.0
H2014 H 0.13232 0.67568 0.93503 0.0
H2015 H 0.13666 0.67281 0.8151 0.0
loop_
_geom_bond_atom_site_label_1
_geom_bond_atom_site_label_2
_geom_bond_distance
_geom_bond_site_symmetry_2
_ccdc_geom_bond_type
Fe0 O2 1.918 . S
Fe0 O5 1.997 . S
Fe0 O6 2.002 . S
Fe0 O11 1.976 . S
Fe0 O14 1.996 . S
Fe1 O2 1.918 . S
Fe1 O9 1.997 . S
Fe1 O12 1.996 . S
Fe1 O16 1.976 . S
Fe1 O19 2.002 1_455 S
O2 Fe0 1.918 . S
O2 Fe1 1.918 . S
O2 Fe3 1.918 . S
Fe3 O2 1.918 . S
Fe3 O4 2.002 1_455 S
Fe3 O13 1.976 . S
Fe3 O17 1.996 . S
Fe3 O20 1.997 1_455 S
O4 Fe3 2.002 1_655 S
O4 C21 1.295 1_655 S
O5 Fe0 1.997 . S
O5 C21 1.235 . S
O6 Fe0 2.002 . S
O6 C7 1.295 . S
C7 O6 1.295 . S
C7 O9 1.235 . S
C8 O13 1.287 . S
C8 O14 1.255 . S
O9 Fe1 1.997 . S
O9 C7 1.235 . S
C10 O16 1.287 . S
C10 O17 1.255 . S
O11 Fe0 1.976 . S
O11 C18 1.287 . S
O12 Fe1 1.996 . S
O12 C18 1.255 . S
O13 Fe3 1.976 . S
O13 C8 1.287 . S
O14 Fe0 1.996 . S
O14 C8 1.255 . S
C15 O19 1.295 . S
C15 O20 1.235 . S
O16 Fe1 1.976 . S
O16 C10 1.287 . S
O17 Fe3 1.996 . S
O17 C10 1.255 . S
C18 O11 1.287 . S
C18 O12 1.255 . S
O19 Fe1 2.002 1_655 S
O19 C15 1.295 . S
O20 Fe3 1.997 1_655 S
O20 C15 1.235 . S
C21 O4 1.295 1_455 S
C21 O5 1.235 . S
Fe22 O24 1.918 . S
Fe22 O27 1.997 . S
Fe22 O28 2.002 . S
Fe22 O33 1.976 . S
Fe22 O36 1.996 . S
Fe23 O24 1.918 . S
Fe23 O31 1.997 . S
Fe23 O34 1.996 . S
Fe23 O38 1.976 . S
Fe23 O41 2.002 . S
O24 Fe22 1.918 . S
O24 Fe23 1.918 . S
O24 Fe25 1.918 . S
Fe25 O24 1.918 . S
Fe25 O26 2.002 . S
Fe25 O35 1.976 . S
Fe25 O39 1.996 . S
Fe25 O42 1.997 . S
O26 Fe25 2.002 . S
O26 C43 1.295 . S
O27 Fe22 1.997 . S
O27 C43 1.235 . S
O28 Fe22 2.002 . S
O28 C29 1.295 . S
C29 O28 1.295 . S
C29 O31 1.235 . S
C30 O35 1.287 . S
C30 O36 1.255 . S
O31 Fe23 1.997 . S
O31 C29 1.235 . S
C32 O38 1.287 . S
C32 O39 1.255 . S
O33 Fe22 1.976 . S
O33 C40 1.287 . S
O34 Fe23 1.996 . S
O34 C40 1.255 . S
O35 Fe25 1.976 . S
O35 C30 1.287 . S
O36 Fe22 1.996 . S
O36 C30 1.255 . S
C37 O41 1.295 . S
C37 O42 1.235 . S
O38 Fe23 1.976 . S
O38 C32 1.287 . S
O39 Fe25 1.996 . S
O39 C32 1.255 . S
C40 O33 1.287 . S
C40 O34 1.255 . S
O41 Fe23 2.002 . S
O41 C37 1.295 . S
O42 Fe25 1.997 . S
O42 C37 1.235 . S
C43 O26 1.295 . S
C43 O27 1.235 . S
Fe44 O46 1.918 . S
Fe44 O49 1.997 . S
Fe44 O50 2.002 1_545 S
Fe44 O55 1.976 . S
Fe44 O58 1.996 . S
Fe45 O46 1.918 . S
Fe45 O53 1.997 1_545 S
Fe45 O56 1.996 . S
Fe45 O60 1.976 . S
Fe45 O63 2.002 1_545 S
O46 Fe44 1.918 . S
O46 Fe45 1.918 . S
O46 Fe47 1.918 . S
Fe47 O46 1.918 . S
Fe47 O48 2.002 . S
Fe47 O57 1.976 . S
Fe47 O61 1.996 . S
Fe47 O64 1.997 . S
O48 Fe47 2.002 . S
O48 C65 1.295 . S
O49 Fe44 1.997 . S
O49 C65 1.235 . S
O50 Fe44 2.002 1_565 S
O50 C51 1.295 . S
C51 O50 1.295 . S
C51 O53 1.235 . S
C52 O57 1.287 . S
C52 O58 1.255 . S
O53 Fe45 1.997 1_565 S
O53 C51 1.235 . S
C54 O60 1.287 . S
C54 O61 1.255 . S
O55 Fe44 1.976 . S
O55 C62 1.287 . S
O56 Fe45 1.996 . S
O56 C62 1.255 . S
O57 Fe47 1.976 . S
O57 C52 1.287 . S
O58 Fe44 1.996 . S
O58 C52 1.255 . S
C59 O63 1.296 1_545 S
C59 O64 1.233 . S
O60 Fe45 1.976 . S
O60 C54 1.287 . S
O61 Fe47 1.996 . S
O61 C54 1.255 . S
C62 O55 1.287 . S
C62 O56 1.255 . S
O63 Fe45 2.002 1_565 S
O63 C59 1.296 1_565 S
O64 Fe47 1.997 . S
O64 C59 1.233 . S
C65 O48 1.295 . S
C65 O49 1.235 . S
Fe66 O68 1.918 . S
Fe66 O71 1.997 . S
Fe66 O72 2.002 . S
Fe66 O77 1.976 1_455 S
Fe66 O80 1.996 1_455 S
Fe67 O68 1.918 . S
Fe67 O75 1.997 . S
Fe67 O78 1.996 1_455 S
Fe67 O82 1.976 . S
Fe67 O85 2.002 . S
O68 Fe66 1.918 . S
O68 Fe67 1.918 . S
O68 Fe69 1.918 . S
Fe69 O68 1.918 . S
Fe69 O70 2.002 . S
Fe69 O79 1.976 . S
Fe69 O83 1.996 . S
Fe69 O86 1.997 . S
O70 Fe69 2.002 . S
O70 C87 1.295 . S
O71 Fe66 1.997 . S
O71 C87 1.235 . S
O72 Fe66 2.002 . S
O72 C73 1.295 . S
C73 O72 1.295 . S
C73 O75 1.235 . S
C74 O79 1.287 . S
C74 O80 1.255 1_455 S
O75 Fe67 1.997 . S
O75 C73 1.235 . S
C76 O82 1.287 . S
C76 O83 1.255 . S
O77 Fe66 1.976 1_655 S
O77 C84 1.287 . S
O78 Fe67 1.996 1_655 S
O78 C84 1.255 . S
O79 Fe69 1.976 . S
O79 C74 1.287 . S
O80 Fe66 1.996 1_655 S
O80 C74 1.255 1_655 S
C81 O85 1.295 . S
C81 O86 1.235 . S
O82 Fe67 1.976 . S
O82 C76 1.287 . S
O83 Fe69 1.996 . S
O83 C76 1.255 . S
C84 O77 1.287 . S
C84 O78 1.255 . S
O85 Fe67 2.002 . S
O85 C81 1.295 . S
O86 Fe69 1.997 . S
O86 C81 1.235 . S
C87 O70 1.295 . S
C87 O71 1.235 . S
Fe88 O90 1.918 . S
Fe88 O93 1.997 . S
Fe88 O94 2.002 . S
Fe88 O99 1.976 . S
Fe88 O102 1.996 . S
Fe89 O90 1.918 . S
Fe89 O97 1.997 . S
Fe89 O100 1.996 . S
Fe89 O104 1.976 . S
Fe89 O107 2.002 . S
O90 Fe88 1.918 . S
O90 Fe89 1.918 . S
O90 Fe91 1.918 . S
Fe91 O90 1.918 . S
Fe91 O92 2.002 . S
Fe91 O101 1.976 . S
Fe91 O105 1.996 . S
Fe91 O108 1.997 . S
O92 Fe91 2.002 . S
O92 C109 1.295 . S
O93 Fe88 1.997 . S
O93 C109 1.235 . S
O94 Fe88 2.002 . S
O94 C95 1.295 . S
C95 O94 1.295 . S
C95 O97 1.235 . S
C96 O101 1.287 . S
C96 O102 1.255 . S
O97 Fe89 1.997 . S
O97 C95 1.235 . S
C98 O104 1.287 . S
C98 O105 1.255 . S
O99 Fe88 1.976 . S
O99 C106 1.287 . S
O100 Fe89 1.996 . S
O100 C106 1.255 . S
O101 Fe91 1.976 . S
O101 C96 1.287 . S
O102 Fe88 1.996 . S
O102 C96 1.255 . S
C103 O107 1.295 . S
C103 O108 1.235 . S
O104 Fe89 1.976 . S
O104 C98 1.287 . S
O105 Fe91 1.996 . S
O105 C98 1.255 . S
C106 O99 1.287 . S
C106 O100 1.255 . S
O107 Fe89 2.002 . S
O107 C103 1.295 . S
O108 Fe91 1.997 . S
O108 C103 1.235 . S
C109 O92 1.295 . S
C109 O93 1.235 . S
Fe110 O112 1.918 . S
Fe110 O115 1.997 . S
Fe110 O116 2.002 . S
Fe110 O121 1.976 1_545 S
Fe110 O124 1.996 1_545 S
Fe111 O112 1.918 . S
Fe111 O119 1.997 . S
Fe111 O122 1.996 1_545 S
Fe111 O126 1.976 . S
Fe111 O129 2.002 . S
O112 Fe110 1.918 . S
O112 Fe111 1.918 . S
O112 Fe113 1.918 . S
Fe113 O112 1.918 . S
Fe113 O114 2.002 . S
Fe113 O123 1.976 . S
Fe113 O127 1.996 . S
Fe113 O130 1.997 . S
O114 Fe113 2.002 . S
O114 C131 1.295 . S
O115 Fe110 1.997 . S
O115 C131 1.235 . S
O116 Fe110 2.002 . S
O116 C117 1.295 . S
C117 O116 1.295 . S
C117 O119 1.235 . S
C118 O123 1.287 . S
C118 O124 1.255 1_545 S
O119 Fe111 1.997 . S
O119 C117 1.235 . S
C120 O126 1.287 . S
C120 O127 1.255 . S
O121 Fe110 1.976 1_565 S
O121 C128 1.287 . S
O122 Fe111 1.996 1_565 S
O122 C128 1.255 . S
O123 Fe113 1.976 . S
O123 C118 1.287 . S
O124 Fe110 1.996 1_565 S
O124 C118 1.255 1_565 S
C125 O129 1.295 . S
C125 O130 1.235 . S
O126 Fe111 1.976 . S
O126 C120 1.287 . S
O127 Fe113 1.996 . S
O127 C120 1.255 . S
C128 O121 1.287 . S
C128 O122 1.255 . S
O129 Fe111 2.002 . S
O129 C125 1.295 . S
O130 Fe113 1.997 . S
O130 C125 1.235 . S
C131 O114 1.295 . S
C131 O115 1.235 . S
Fe132 O134 1.918 . S
Fe132 O137 1.997 . S
Fe132 O138 2.002 . S
Fe132 O143 1.976 . S
Fe132 O146 1.996 . S
Fe133 O134 1.918 . S
Fe133 O141 1.997 . S
Fe133 O144 1.996 . S
Fe133 O148 1.976 . S
Fe133 O151 2.002 . S
O134 Fe132 1.918 . S
O134 Fe133 1.918 . S
O134 Fe135 1.918 . S
Fe135 O134 1.918 . S
Fe135 O136 2.002 . S
Fe135 O145 1.976 . S
Fe135 O149 1.996 . S
Fe135 O152 1.997 . S
O136 Fe135 2.002 . S
O136 C153 1.295 . S
O137 Fe132 1.997 . S
O137 C153 1.235 . S
O138 Fe132 2.002 . S
O138 C139 1.295 . S
C139 O138 1.295 . S
C139 O141 1.235 . S
C140 O145 1.287 . S
C140 O146 1.255 . S
O141 Fe133 1.997 . S
O141 C139 1.235 . S
C142 O148 1.287 . S
C142 O149 1.255 . S
O143 Fe132 1.976 . S
O143 C150 1.287 . S
O144 Fe133 1.996 . S
O144 C150 1.255 . S
O145 Fe135 1.976 . S
O145 C140 1.287 . S
O146 Fe132 1.996 . S
O146 C140 1.255 . S
C147 O151 1.295 . S
C147 O152 1.235 . S
O148 Fe133 1.976 . S
O148 C142 1.287 . S
O149 Fe135 1.996 . S
O149 C142 1.255 . S
C150 O143 1.287 . S
C150 O144 1.255 . S
O151 Fe133 2.002 . S
O151 C147 1.295 . S
O152 Fe135 1.997 . S
O152 C147 1.235 . S
C153 O136 1.295 . S
C153 O137 1.235 . S
Fe154 O156 1.918 . S
Fe154 O159 1.997 . S
Fe154 O160 2.002 . S
Fe154 O165 1.976 . S
Fe154 O168 1.996 . S
Fe155 O156 1.918 . S
Fe155 O163 1.997 . S
Fe155 O166 1.996 . S
Fe155 O170 1.976 . S
Fe155 O173 2.002 . S
O156 Fe154 1.918 . S
O156 Fe155 1.918 . S
O156 Fe157 1.918 . S
Fe157 O156 1.918 . S
Fe157 O158 2.002 . S
Fe157 O167 1.976 . S
Fe157 O171 1.996 . S
Fe157 O174 1.997 . S
O158 Fe157 2.002 . S
O158 C175 1.295 . S
O159 Fe154 1.997 . S
O159 C175 1.235 . S
O160 Fe154 2.002 . S
O160 C161 1.295 . S
C161 O160 1.295 . S
C161 O163 1.235 . S
C162 O167 1.287 . S
C162 O168 1.255 . S
O163 Fe155 1.997 . S
O163 C161 1.235 . S
C164 O170 1.287 . S
C164 O171 1.255 . S
O165 Fe154 1.976 . S
O165 C172 1.287 . S
O166 Fe155 1.996 . S
O166 C172 1.255 . S
O167 Fe157 1.976 . S
O167 C162 1.287 . S
O168 Fe154 1.996 . S
O168 C162 1.255 . S
C169 O173 1.295 . S
C169 O174 1.235 . S
O170 Fe155 1.976 . S
O170 C164 1.287 . S
O171 Fe157 1.996 . S
O171 C164 1.255 . S
C172 O165 1.287 . S
C172 O166 1.255 . S
O173 Fe155 2.002 . S
O173 C169 1.295 . S
O174 Fe157 1.997 . S
O174 C169 1.235 . S
C175 O158 1.295 . S
C175 O159 1.235 . S
Fe176 O178 1.918 . S
Fe176 O181 1.997 . S
Fe176 O182 2.002 . S
Fe176 O187 1.976 . S
Fe176 O190 1.996 . S
Fe177 O178 1.918 . S
Fe177 O185 1.997 . S
Fe177 O188 1.996 . S
Fe177 O192 1.976 . S
Fe177 O195 2.002 . S
O178 Fe176 1.918 . S
O178 Fe177 1.918 . S
O178 Fe179 1.918 . S
Fe179 O178 1.918 . S
Fe179 O180 2.002 . S
Fe179 O189 1.976 . S
Fe179 O193 1.996 . S
Fe179 O196 1.997 . S
O180 Fe179 2.002 . S
O180 C197 1.295 . S
O181 Fe176 1.997 . S
O181 C197 1.235 . S
O182 Fe176 2.002 . S
O182 C183 1.295 . S
C183 O182 1.295 . S
C183 O185 1.235 . S
C184 O189 1.287 . S
C184 O190 1.255 . S
O185 Fe177 1.997 . S
O185 C183 1.235 . S
C186 O192 1.287 . S
C186 O193 1.255 . S
O187 Fe176 1.976 . S
O187 C194 1.287 . S
O188 Fe177 1.996 . S
O188 C194 1.255 . S
O189 Fe179 1.976 . S
O189 C184 1.287 . S
O190 Fe176 1.996 . S
O190 C184 1.255 . S
C191 O195 1.295 . S
C191 O196 1.235 . S
O192 Fe177 1.976 . S
O192 C186 1.287 . S
O193 Fe179 1.996 . S
O193 C186 1.255 . S
C194 O187 1.287 . S
C194 O188 1.255 . S
O195 Fe177 2.002 . S
O195 C191 1.295 . S
O196 Fe179 1.997 . S
O196 C191 1.235 . S
C197 O180 1.295 . S
C197 O181 1.235 . S
Fe198 O200 1.918 . S
Fe198 O203 1.997 . S
Fe198 O204 2.002 . S
Fe198 O209 1.976 . S
Fe198 O212 1.996 . S
Fe199 O200 1.918 . S
Fe199 O207 1.997 . S
Fe199 O210 1.996 . S
Fe199 O214 1.976 . S
Fe199 O217 2.002 . S
O200 Fe198 1.918 . S
O200 Fe199 1.918 . S
O200 Fe201 1.918 . S
Fe201 O200 1.918 . S
Fe201 O202 2.002 . S
Fe201 O211 1.976 . S
Fe201 O215 1.996 . S
Fe201 O218 1.997 . S
O202 Fe201 2.002 . S
O202 C219 1.295 . S
O203 Fe198 1.997 . S
O203 C219 1.235 . S
O204 Fe198 2.002 . S
O204 C205 1.295 . S
C205 O204 1.295 . S
C205 O207 1.235 . S
C206 O211 1.287 . S
C206 O212 1.255 . S
O207 Fe199 1.997 . S
O207 C205 1.235 . S
C208 O214 1.287 . S
C208 O215 1.255 . S
O209 Fe198 1.976 . S
O209 C216 1.287 . S
O210 Fe199 1.996 . S
O210 C216 1.255 . S
O211 Fe201 1.976 . S
O211 C206 1.287 . S
O212 Fe198 1.996 . S
O212 C206 1.255 . S
C213 O217 1.295 . S
C213 O218 1.235 . S
O214 Fe199 1.976 . S
O214 C208 1.287 . S
O215 Fe201 1.996 . S
O215 C208 1.255 . S
C216 O209 1.287 . S
C216 O210 1.255 . S
O217 Fe199 2.002 . S
O217 C213 1.295 . S
O218 Fe201 1.997 . S
O218 C213 1.235 . S
C219 O202 1.295 . S
C219 O203 1.235 . S
Fe220 O222 1.918 . S
Fe220 O225 1.997 . S
Fe220 O226 2.002 . S
Fe220 O231 1.976 . S
Fe220 O234 1.996 . S
Fe221 O222 1.918 . S
Fe221 O229 1.997 . S
Fe221 O232 1.996 . S
Fe221 O236 1.976 . S
Fe221 O239 2.002 . S
O222 Fe220 1.918 . S
O222 Fe221 1.918 . S
O222 Fe223 1.918 . S
Fe223 O222 1.918 . S
Fe223 O224 2.002 . S
Fe223 O233 1.976 . S
Fe223 O237 1.996 . S
Fe223 O240 1.997 . S
O224 Fe223 2.002 . S
O224 C241 1.295 . S
O225 Fe220 1.997 . S
O225 C241 1.235 . S
O226 Fe220 2.002 . S
O226 C227 1.295 . S
C227 O226 1.295 . S
C227 O229 1.235 . S
C228 O233 1.287 . S
C228 O234 1.255 . S
O229 Fe221 1.997 . S
O229 C227 1.235 . S
C230 O236 1.287 . S
C230 O237 1.255 . S
O231 Fe220 1.976 . S
O231 C238 1.287 . S
O232 Fe221 1.996 . S
O232 C238 1.255 . S
O233 Fe223 1.976 . S
O233 C228 1.287 . S
O234 Fe220 1.996 . S
O234 C228 1.255 . S
C235 O239 1.295 . S
C235 O240 1.235 . S
O236 Fe221 1.976 . S
O236 C230 1.287 . S
O237 Fe223 1.996 . S
O237 C230 1.255 . S
C238 O231 1.287 . S
C238 O232 1.255 . S
O239 Fe221 2.002 . S
O239 C235 1.295 . S
O240 Fe223 1.997 . S
O240 C235 1.235 . S
C241 O224 1.295 . S
C241 O225 1.235 . S
Fe242 O244 1.918 . S
Fe242 O247 1.997 . S
Fe242 O248 2.002 . S
Fe242 O253 1.976 . S
Fe242 O256 1.996 . S
Fe243 O244 1.918 . S
Fe243 O251 1.997 . S
Fe243 O254 1.996 . S
Fe243 O258 1.976 . S
Fe243 O261 2.002 . S
O244 Fe242 1.918 . S
O244 Fe243 1.918 . S
O244 Fe245 1.918 . S
Fe245 O244 1.918 . S
Fe245 O246 2.002 . S
Fe245 O255 1.976 . S
Fe245 O259 1.996 . S
Fe245 O262 1.997 . S
O246 Fe245 2.002 . S
O246 C263 1.295 . S
O247 Fe242 1.997 . S
O247 C263 1.235 . S
O248 Fe242 2.002 . S
O248 C249 1.295 . S
C249 O248 1.295 . S
C249 O251 1.235 . S
C250 O255 1.287 . S
C250 O256 1.255 . S
O251 Fe243 1.997 . S
O251 C249 1.235 . S
C252 O258 1.287 . S
C252 O259 1.255 . S
O253 Fe242 1.976 . S
O253 C260 1.287 . S
O254 Fe243 1.996 . S
O254 C260 1.255 . S
O255 Fe245 1.976 . S
O255 C250 1.287 . S
O256 Fe242 1.996 . S
O256 C250 1.255 . S
C257 O261 1.295 . S
C257 O262 1.235 . S
O258 Fe243 1.976 . S
O258 C252 1.287 . S
O259 Fe245 1.996 . S
O259 C252 1.255 . S
C260 O253 1.287 . S
C260 O254 1.255 . S
O261 Fe243 2.002 . S
O261 C257 1.295 . S
O262 Fe245 1.997 . S
O262 C257 1.235 . S
C263 O246 1.295 . S
C263 O247 1.235 . S
Fe264 O266 1.918 . S
Fe264 O269 1.997 . S
Fe264 O270 2.002 . S
Fe264 O275 1.976 . S
Fe264 O278 1.996 . S
Fe265 O266 1.918 . S
Fe265 O273 1.997 . S
Fe265 O276 1.996 . S
Fe265 O280 1.976 . S
Fe265 O283 2.002 . S
O266 Fe264 1.918 . S
O266 Fe265 1.918 . S
O266 Fe267 1.918 . S
Fe267 O266 1.918 . S
Fe267 O268 2.002 . S
Fe267 O277 1.976 . S
Fe267 O281 1.996 . S
Fe267 O284 1.997 . S
O268 Fe267 2.002 . S
O268 C285 1.295 . S
O269 Fe264 1.997 . S
O269 C285 1.235 . S
O270 Fe264 2.002 . S
O270 C271 1.295 . S
C271 O270 1.295 . S
C271 O273 1.235 . S
C272 O277 1.287 . S
C272 O278 1.255 . S
O273 Fe265 1.997 . S
O273 C271 1.235 . S
C274 O280 1.287 . S
C274 O281 1.255 . S
O275 Fe264 1.976 . S
O275 C282 1.287 . S
O276 Fe265 1.996 . S
O276 C282 1.255 . S
O277 Fe267 1.976 . S
O277 C272 1.287 . S
O278 Fe264 1.996 . S
O278 C272 1.255 . S
C279 O283 1.295 . S
C279 O284 1.235 . S
O280 Fe265 1.976 . S
O280 C274 1.287 . S
O281 Fe267 1.996 . S
O281 C274 1.255 . S
C282 O275 1.287 . S
C282 O276 1.255 . S
O283 Fe265 2.002 . S
O283 C279 1.295 . S
O284 Fe267 1.997 . S
O284 C279 1.235 . S
C285 O268 1.295 . S
C285 O269 1.235 . S
Fe286 O288 1.918 . S
Fe286 O291 1.997 . S
Fe286 O292 2.002 . S
Fe286 O297 1.976 . S
Fe286 O300 1.996 . S
Fe287 O288 1.918 . S
Fe287 O295 1.997 . S
Fe287 O298 1.996 . S
Fe287 O302 1.976 . S
Fe287 O305 2.002 . S
O288 Fe286 1.918 . S
O288 Fe287 1.918 . S
O288 Fe289 1.918 . S
Fe289 O288 1.918 . S
Fe289 O290 2.002 . S
Fe289 O299 1.976 . S
Fe289 O303 1.996 . S
Fe289 O306 1.997 . S
O290 Fe289 2.002 . S
O290 C307 1.295 . S
O291 Fe286 1.997 . S
O291 C307 1.235 . S
O292 Fe286 2.002 . S
O292 C293 1.295 . S
C293 O292 1.295 . S
C293 O295 1.235 . S
C294 O299 1.287 . S
C294 O300 1.255 . S
O295 Fe287 1.997 . S
O295 C293 1.235 . S
C296 O302 1.287 . S
C296 O303 1.255 . S
O297 Fe286 1.976 . S
O297 C304 1.287 . S
O298 Fe287 1.996 . S
O298 C304 1.255 . S
O299 Fe289 1.976 . S
O299 C294 1.287 . S
O300 Fe286 1.996 . S
O300 C294 1.255 . S
C301 O305 1.295 . S
C301 O306 1.235 . S
O302 Fe287 1.976 . S
O302 C296 1.287 . S
O303 Fe289 1.996 . S
O303 C296 1.255 . S
C304 O297 1.287 . S
C304 O298 1.255 . S
O305 Fe287 2.002 . S
O305 C301 1.295 . S
O306 Fe289 1.997 . S
O306 C301 1.235 . S
C307 O290 1.295 . S
C307 O291 1.235 . S
Fe308 O310 1.918 . S
Fe308 O313 1.997 . S
Fe308 O314 2.002 . S
Fe308 O319 1.976 . S
Fe308 O322 1.996 . S
Fe309 O310 1.918 . S
Fe309 O317 1.997 . S
Fe309 O320 1.996 . S
Fe309 O324 1.976 . S
Fe309 O327 2.002 . S
O310 Fe308 1.918 . S
O310 Fe309 1.918 . S
O310 Fe311 1.918 . S
Fe311 O310 1.918 . S
Fe311 O312 2.002 . S
Fe311 O321 1.976 . S
Fe311 O325 1.996 . S
Fe311 O328 1.997 . S
O312 Fe311 2.002 . S
O312 C329 1.295 . S
O313 Fe308 1.997 . S
O313 C329 1.235 . S
O314 Fe308 2.002 . S
O314 C315 1.295 . S
C315 O314 1.295 . S
C315 O317 1.235 . S
C316 O321 1.287 . S
C316 O322 1.255 . S
O317 Fe309 1.997 . S
O317 C315 1.235 . S
C318 O324 1.287 . S
C318 O325 1.255 . S
O319 Fe308 1.976 . S
O319 C326 1.287 . S
O320 Fe309 1.996 . S
O320 C326 1.255 . S
O321 Fe311 1.976 . S
O321 C316 1.287 . S
O322 Fe308 1.996 . S
O322 C316 1.255 . S
C323 O327 1.295 . S
C323 O328 1.235 . S
O324 Fe309 1.976 . S
O324 C318 1.287 . S
O325 Fe311 1.996 . S
O325 C318 1.255 . S
C326 O319 1.287 . S
C326 O320 1.255 . S
O327 Fe309 2.002 . S
O327 C323 1.295 . S
O328 Fe311 1.997 . S
O328 C323 1.235 . S
C329 O312 1.295 . S
C329 O313 1.235 . S
Fe330 O332 1.918 . S
Fe330 O335 1.997 . S
Fe330 O336 2.002 . S
Fe330 O341 1.976 . S
Fe330 O344 1.996 . S
Fe331 O332 1.918 . S
Fe331 O339 1.997 . S
Fe331 O342 1.996 . S
Fe331 O346 1.976 . S
Fe331 O349 2.002 . S
O332 Fe330 1.918 . S
O332 Fe331 1.918 . S
O332 Fe333 1.918 . S
Fe333 O332 1.918 . S
Fe333 O334 2.002 . S
Fe333 O343 1.976 . S
Fe333 O347 1.996 . S
Fe333 O350 1.997 . S
O334 Fe333 2.002 . S
O334 C351 1.295 . S
O335 Fe330 1.997 . S
O335 C351 1.235 . S
O336 Fe330 2.002 . S
O336 C337 1.295 . S
C337 O336 1.295 . S
C337 O339 1.235 . S
C338 O343 1.287 . S
C338 O344 1.255 . S
O339 Fe331 1.997 . S
O339 C337 1.235 . S
C340 O346 1.287 . S
C340 O347 1.255 . S
O341 Fe330 1.976 . S
O341 C348 1.287 . S
O342 Fe331 1.996 . S
O342 C348 1.255 . S
O343 Fe333 1.976 . S
O343 C338 1.287 . S
O344 Fe330 1.996 . S
O344 C338 1.255 . S
C345 O349 1.295 . S
C345 O350 1.235 . S
O346 Fe331 1.976 . S
O346 C340 1.287 . S
O347 Fe333 1.996 . S
O347 C340 1.255 . S
C348 O341 1.287 . S
C348 O342 1.255 . S
O349 Fe331 2.002 . S
O349 C345 1.295 . S
O350 Fe333 1.997 . S
O350 C345 1.235 . S
C351 O334 1.295 . S
C351 O335 1.235 . S
Fe352 O354 1.918 . S
Fe352 O357 1.997 . S
Fe352 O358 2.002 . S
Fe352 O363 1.976 . S
Fe352 O366 1.996 . S
Fe353 O354 1.918 . S
Fe353 O361 1.997 . S
Fe353 O364 1.996 . S
Fe353 O368 1.976 . S
Fe353 O371 2.002 . S
O354 Fe352 1.918 . S
O354 Fe353 1.918 . S
O354 Fe355 1.918 . S
Fe355 O354 1.918 . S
Fe355 O356 2.002 . S
Fe355 O365 1.976 . S
Fe355 O369 1.996 . S
Fe355 O372 1.997 . S
O356 Fe355 2.002 . S
O356 C373 1.295 . S
O357 Fe352 1.997 . S
O357 C373 1.235 . S
O358 Fe352 2.002 . S
O358 C359 1.295 . S
C359 O358 1.295 . S
C359 O361 1.235 . S
C360 O365 1.287 . S
C360 O366 1.255 . S
O361 Fe353 1.997 . S
O361 C359 1.235 . S
C362 O368 1.287 . S
C362 O369 1.255 . S
O363 Fe352 1.976 . S
O363 C370 1.287 . S
O364 Fe353 1.996 . S
O364 C370 1.255 . S
O365 Fe355 1.976 . S
O365 C360 1.287 . S
O366 Fe352 1.996 . S
O366 C360 1.255 . S
C367 O371 1.295 . S
C367 O372 1.235 . S
O368 Fe353 1.976 . S
O368 C362 1.287 . S
O369 Fe355 1.996 . S
O369 C362 1.255 . S
C370 O363 1.287 . S
C370 O364 1.255 . S
O371 Fe353 2.002 . S
O371 C367 1.295 . S
O372 Fe355 1.997 . S
O372 C367 1.235 . S
C373 O356 1.295 . S
C373 O357 1.235 . S
Fe374 O376 1.918 . S
Fe374 O379 1.997 . S
Fe374 O380 2.002 . S
Fe374 O385 1.976 . S
Fe374 O388 1.996 . S
Fe375 O376 1.918 . S
Fe375 O383 1.997 . S
Fe375 O386 1.996 . S
Fe375 O390 1.976 . S
Fe375 O393 2.002 . S
O376 Fe374 1.918 . S
O376 Fe375 1.918 . S
O376 Fe377 1.918 . S
Fe377 O376 1.918 . S
Fe377 O378 2.002 . S
Fe377 O387 1.976 . S
Fe377 O391 1.996 . S
Fe377 O394 1.997 . S
O378 Fe377 2.002 . S
O378 C395 1.295 . S
O379 Fe374 1.997 . S
O379 C395 1.235 . S
O380 Fe374 2.002 . S
O380 C381 1.295 . S
C381 O380 1.295 . S
C381 O383 1.235 . S
C382 O387 1.287 . S
C382 O388 1.255 . S
O383 Fe375 1.997 . S
O383 C381 1.235 . S
C384 O390 1.287 . S
C384 O391 1.255 . S
O385 Fe374 1.976 . S
O385 C392 1.287 . S
O386 Fe375 1.996 . S
O386 C392 1.255 . S
O387 Fe377 1.976 . S
O387 C382 1.287 . S
O388 Fe374 1.996 . S
O388 C382 1.255 . S
C389 O393 1.295 . S
C389 O394 1.235 . S
O390 Fe375 1.976 . S
O390 C384 1.287 . S
O391 Fe377 1.996 . S
O391 C384 1.255 . S
C392 O385 1.287 . S
C392 O386 1.255 . S
O393 Fe375 2.002 . S
O393 C389 1.295 . S
O394 Fe377 1.997 . S
O394 C389 1.235 . S
C395 O378 1.295 . S
C395 O379 1.235 . S
C396 C397 1.349 . S
C396 C398 1.327 . S
C396 H421 0.950 . S
C397 C396 1.349 . S
C397 C413 1.349 . S
C398 C396 1.327 . S
C398 C417 1.429 . S
C398 H422 0.950 . S
C399 C416 1.574 . S
C399 C418 1.368 . S
C399 H423 0.949 . S
H400 C404 0.949 . S
C401 C402 1.349 . S
C401 C403 1.327 . S
C401 H424 0.950 . S
C402 C401 1.349 . S
C402 C414 1.349 . S
C403 C401 1.327 . S
C403 C419 1.429 . S
C403 H425 0.950 . S
C404 H400 0.949 . S
C404 C412 1.574 . S
C404 C420 1.368 . S
H405 C413 0.950 . S
H406 C411 0.950 . S
H407 C412 0.949 . S
H408 C414 0.950 . S
H409 C415 0.950 . S
H410 C416 0.949 . S
C411 H406 0.950 . S
C411 C413 1.327 . S
C411 C417 1.429 . S
C412 C404 1.574 . S
C412 H407 0.949 . S
C412 C418 1.368 . S
C413 C397 1.349 . S
C413 H405 0.950 . S
C413 C411 1.327 . S
C414 C402 1.349 . S
C414 H408 0.950 . S
C414 C415 1.327 . S
C415 H409 0.950 . S
C415 C414 1.327 . S
C415 C419 1.429 . S
C416 C399 1.574 . S
C416 H410 0.949 . S
C416 C420 1.368 . S
C417 C398 1.429 . S
C417 C411 1.429 . S
C417 C418 1.523 . S
C418 C399 1.368 . S
C418 C412 1.368 . S
C418 C417 1.523 . S
C419 C403 1.429 . S
C419 C415 1.429 . S
C419 C420 1.523 . S
C420 C404 1.368 . S
C420 C416 1.368 . S
C420 C419 1.523 . S
H421 C396 0.950 . S
H422 C398 0.950 . S
H423 C399 0.949 . S
H424 C401 0.950 . S
H425 C403 0.950 . S
C426 C427 1.349 . S
C426 C428 1.327 . S
C426 H451 0.950 . S
C427 C426 1.349 . S
C427 C443 1.349 . S
C428 C426 1.327 . S
C428 C447 1.429 . S
C428 H452 0.950 . S
C429 C446 1.574 . S
C429 C448 1.368 . S
C429 H453 0.949 . S
H430 C434 0.949 . S
C431 C432 1.349 . S
C431 C433 1.327 . S
C431 H454 0.950 . S
C432 C431 1.349 . S
C432 C444 1.349 . S
C433 C431 1.327 . S
C433 C449 1.429 . S
C433 H455 0.950 . S
C434 H430 0.949 . S
C434 C442 1.574 . S
C434 C450 1.368 . S
H435 C443 0.950 . S
H436 C441 0.950 . S
H437 C442 0.949 . S
H438 C444 0.950 . S
H439 C445 0.950 . S
H440 C446 0.949 . S
C441 H436 0.950 . S
C441 C443 1.327 . S
C441 C447 1.429 . S
C442 C434 1.574 . S
C442 H437 0.949 . S
C442 C448 1.368 . S
C443 C427 1.349 . S
C443 H435 0.950 . S
C443 C441 1.327 . S
C444 C432 1.349 . S
C444 H438 0.950 . S
C444 C445 1.327 . S
C445 H439 0.950 . S
C445 C444 1.327 . S
C445 C449 1.429 . S
C446 C429 1.574 . S
C446 H440 0.949 . S
C446 C450 1.368 . S
C447 C428 1.429 . S
C447 C441 1.429 . S
C447 C448 1.523 . S
C448 C429 1.368 . S
C448 C442 1.368 . S
C448 C447 1.523 . S
C449 C433 1.429 . S
C449 C445 1.429 . S
C449 C450 1.523 . S
C450 C434 1.368 . S
C450 C446 1.368 . S
C450 C449 1.523 . S
H451 C426 0.950 . S
H452 C428 0.950 . S
H453 C429 0.949 . S
H454 C431 0.950 . S
H455 C433 0.950 . S
C456 C457 1.349 . S
C456 C458 1.327 . S
C456 H481 0.950 . S
C457 C456 1.349 . S
C457 C473 1.346 1_565 S
C458 C456 1.327 . S
C458 C477 1.429 . S
C458 H482 0.950 . S
C459 C476 1.574 . S
C459 C478 1.368 . S
C459 H483 0.949 . S
H460 C464 0.949 . S
C461 C462 1.349 . S
C461 C463 1.327 . S
C461 H484 0.950 . S
C462 C461 1.349 . S
C462 C474 1.349 . S
C463 C461 1.327 . S
C463 C479 1.429 . S
C463 H485 0.950 . S
C464 H460 0.949 . S
C464 C472 1.574 . S
C464 C480 1.368 . S
H465 C473 1.009 . S
H466 C471 0.951 . S
H467 C472 0.949 . S
H468 C474 0.950 . S
H469 C475 0.950 . S
H470 C476 0.949 . S
C471 H466 0.951 . S
C471 C473 1.274 1_565 S
C471 C477 1.429 . S
C472 C464 1.574 . S
C472 H467 0.949 . S
C472 C478 1.368 . S
C473 C457 1.346 1_545 S
C473 H465 1.009 . S
C473 C471 1.274 1_545 S
C474 C462 1.349 . S
C474 H468 0.950 . S
C474 C475 1.327 . S
C475 H469 0.950 . S
C475 C474 1.327 . S
C475 C479 1.429 . S
C476 C459 1.574 . S
C476 H470 0.949 . S
C476 C480 1.368 . S
C477 C458 1.429 . S
C477 C471 1.429 . S
C477 C478 1.523 . S
C478 C459 1.368 . S
C478 C472 1.368 . S
C478 C477 1.523 . S
C479 C463 1.429 . S
C479 C475 1.429 . S
C479 C480 1.523 . S
C480 C464 1.368 . S
C480 C476 1.368 . S
C480 C479 1.523 . S
H481 C456 0.950 . S
H482 C458 0.950 . S
H483 C459 0.949 . S
H484 C461 0.950 . S
H485 C463 0.950 . S
C486 C487 1.349 . S
C486 C488 1.327 . S
C486 H511 0.950 . S
C487 C486 1.349 . S
C487 C503 1.349 . S
C488 C486 1.327 . S
C488 C507 1.429 . S
C488 H512 0.950 . S
C489 C506 1.574 . S
C489 C508 1.368 . S
C489 H513 0.949 . S
H490 C494 0.949 . S
C491 C492 1.349 . S
C491 C493 1.327 . S
C491 H514 0.950 . S
C492 C491 1.349 . S
C492 C504 1.349 . S
C493 C491 1.327 . S
C493 C509 1.429 . S
C493 H515 0.950 . S
C494 H490 0.949 . S
C494 C502 1.574 . S
C494 C510 1.368 . S
H495 C503 0.950 . S
H496 C501 0.950 . S
H497 C502 0.949 . S
H498 C504 0.950 . S
H499 C505 0.950 . S
H500 C506 0.949 . S
C501 H496 0.950 . S
C501 C503 1.327 . S
C501 C507 1.429 . S
C502 C494 1.574 . S
C502 H497 0.949 . S
C502 C508 1.368 . S
C503 C487 1.349 . S
C503 H495 0.950 . S
C503 C501 1.327 . S
C504 C492 1.349 . S
C504 H498 0.950 . S
C504 C505 1.327 . S
C505 H499 0.950 . S
C505 C504 1.327 . S
C505 C509 1.429 . S
C506 C489 1.574 . S
C506 H500 0.949 . S
C506 C510 1.368 . S
C507 C488 1.429 . S
C507 C501 1.429 . S
C507 C508 1.523 . S
C508 C489 1.368 . S
C508 C502 1.368 . S
C508 C507 1.523 . S
C509 C493 1.429 . S
C509 C505 1.429 . S
C509 C510 1.523 . S
C510 C494 1.368 . S
C510 C506 1.368 . S
C510 C509 1.523 . S
H511 C486 0.950 . S
H512 C488 0.950 . S
H513 C489 0.949 . S
H514 C491 0.950 . S
H515 C493 0.950 . S
C516 C517 1.349 . S
C516 C518 1.327 . S
C516 H541 0.950 . S
C517 C516 1.349 . S
C517 C533 1.349 . S
C518 C516 1.327 . S
C518 C537 1.429 . S
C518 H542 0.950 . S
C519 C536 1.574 . S
C519 C538 1.368 . S
C519 H543 0.949 . S
H520 C524 0.949 . S
C521 C522 1.349 . S
C521 C523 1.327 . S
C521 H544 0.950 . S
C522 C521 1.349 . S
C522 C534 1.349 1_655 S
C523 C521 1.327 . S
C523 C539 1.429 . S
C523 H545 0.950 . S
C524 H520 0.949 . S
C524 C532 1.574 . S
C524 C540 1.368 . S
H525 C533 0.950 . S
H526 C531 0.950 . S
H527 C532 0.949 . S
H528 C534 0.950 . S
H529 C535 0.946 . S
H530 C536 0.949 . S
C531 H526 0.950 . S
C531 C533 1.327 . S
C531 C537 1.429 . S
C532 C524 1.574 . S
C532 H527 0.949 . S
C532 C538 1.368 . S
C533 C517 1.349 . S
C533 H525 0.950 . S
C533 C531 1.327 . S
C534 C522 1.349 1_455 S
C534 H528 0.950 . S
C534 C535 1.327 1_455 S
C535 H529 0.946 . S
C535 C534 1.327 1_655 S
C535 C539 1.429 . S
C536 C519 1.574 . S
C536 H530 0.949 . S
C536 C540 1.368 . S
C537 C518 1.429 . S
C537 C531 1.429 . S
C537 C538 1.523 . S
C538 C519 1.368 . S
C538 C532 1.368 . S
C538 C537 1.523 . S
C539 C523 1.429 . S
C539 C535 1.429 . S
C539 C540 1.523 . S
C540 C524 1.368 . S
C540 C536 1.368 . S
C540 C539 1.523 . S
H541 C516 0.950 . S
H542 C518 0.950 . S
H543 C519 0.949 . S
H544 C521 0.950 . S
H545 C523 0.950 . S
C546 C547 1.349 . S
C546 C548 1.327 . S
C546 H571 0.950 . S
C547 C546 1.349 . S
C547 C563 1.349 . S
C548 C546 1.327 . S
C548 C567 1.429 . S
C548 H572 0.950 . S
C549 C566 1.574 . S
C549 C568 1.368 . S
C549 H573 0.949 . S
H550 C554 0.949 . S
C551 C552 1.349 . S
C551 C553 1.327 . S
C551 H574 0.950 . S
C552 C551 1.349 . S
C552 C564 1.349 . S
C553 C551 1.327 . S
C553 C569 1.429 . S
C553 H575 0.950 . S
C554 H550 0.949 . S
C554 C562 1.574 . S
C554 C570 1.368 . S
H555 C563 0.950 . S
H556 C561 0.950 . S
H557 C562 0.949 . S
H558 C564 0.950 . S
H559 C565 0.950 . S
H560 C566 0.949 . S
C561 H556 0.950 . S
C561 C563 1.327 . S
C561 C567 1.429 . S
C562 C554 1.574 . S
C562 H557 0.949 . S
C562 C568 1.368 . S
C563 C547 1.349 . S
C563 H555 0.950 . S
C563 C561 1.327 . S
C564 C552 1.349 . S
C564 H558 0.950 . S
C564 C565 1.327 . S
C565 H559 0.950 . S
C565 C564 1.327 . S
C565 C569 1.429 . S
C566 C549 1.574 . S
C566 H560 0.949 . S
C566 C570 1.368 . S
C567 C548 1.429 . S
C567 C561 1.429 . S
C567 C568 1.523 . S
C568 C549 1.368 . S
C568 C562 1.368 . S
C568 C567 1.523 . S
C569 C553 1.429 . S
C569 C565 1.429 . S
C569 C570 1.523 . S
C570 C554 1.368 . S
C570 C566 1.368 . S
C570 C569 1.523 . S
H571 C546 0.950 . S
H572 C548 0.950 . S
H573 C549 0.949 . S
H574 C551 0.950 . S
H575 C553 0.950 . S
C576 C577 1.349 . S
C576 C578 1.327 . S
C576 H601 0.950 1_655 S
C577 C576 1.349 . S
C577 C593 1.349 . S
C578 C576 1.327 . S
C578 C597 1.429 . S
C578 H602 0.950 . S
C579 C596 1.574 . S
C579 C598 1.368 . S
C579 H603 0.949 . S
H580 C584 0.949 . S
C581 C582 1.349 . S
C581 C583 1.327 . S
C581 H604 0.950 . S
C582 C581 1.349 . S
C582 C594 1.349 . S
C583 C581 1.327 . S
C583 C599 1.429 . S
C583 H605 0.950 . S
C584 H580 0.949 . S
C584 C592 1.574 . S
C584 C600 1.368 . S
H585 C593 0.950 . S
H586 C591 0.950 . S
H587 C592 0.949 . S
H588 C594 0.950 . S
H589 C595 0.950 . S
H590 C596 0.949 . S
C591 H586 0.950 . S
C591 C593 1.327 . S
C591 C597 1.429 . S
C592 C584 1.574 . S
C592 H587 0.949 . S
C592 C598 1.368 . S
C593 C577 1.349 . S
C593 H585 0.950 . S
C593 C591 1.327 . S
C594 C582 1.349 . S
C594 H588 0.950 . S
C594 C595 1.327 . S
C595 H589 0.950 . S
C595 C594 1.327 . S
C595 C599 1.429 . S
C596 C579 1.574 . S
C596 H590 0.949 . S
C596 C600 1.368 . S
C597 C578 1.429 . S
C597 C591 1.429 . S
C597 C598 1.523 . S
C598 C579 1.368 . S
C598 C592 1.368 . S
C598 C597 1.523 . S
C599 C583 1.429 . S
C599 C595 1.429 . S
C599 C600 1.523 . S
C600 C584 1.368 . S
C600 C596 1.368 . S
C600 C599 1.523 . S
H601 C576 0.950 1_455 S
H602 C578 0.950 . S
H603 C579 0.949 . S
H604 C581 0.950 . S
H605 C583 0.950 . S
C606 C607 1.349 . S
C606 C608 1.327 . S
C606 H631 0.950 . S
C607 C606 1.349 . S
C607 C623 1.349 . S
C608 C606 1.327 . S
C608 C627 1.429 . S
C608 H632 0.950 . S
C609 C626 1.574 . S
C609 C628 1.368 . S
C609 H633 0.949 . S
H610 C614 0.949 . S
C611 C612 1.349 . S
C611 C613 1.327 . S
C611 H634 0.950 . S
C612 C611 1.349 . S
C612 C624 1.349 . S
C613 C611 1.327 . S
C613 C629 1.429 . S
C613 H635 0.950 . S
C614 H610 0.949 . S
C614 C622 1.574 . S
C614 C630 1.368 . S
H615 C623 0.950 . S
H616 C621 0.950 . S
H617 C622 0.949 . S
H618 C624 0.950 . S
H619 C625 0.950 . S
H620 C626 0.949 . S
C621 H616 0.950 . S
C621 C623 1.327 . S
C621 C627 1.429 . S
C622 C614 1.574 . S
C622 H617 0.949 . S
C622 C628 1.368 . S
C623 C607 1.349 . S
C623 H615 0.950 . S
C623 C621 1.327 . S
C624 C612 1.349 . S
C624 H618 0.950 . S
C624 C625 1.327 . S
C625 H619 0.950 . S
C625 C624 1.327 . S
C625 C629 1.429 . S
C626 C609 1.574 . S
C626 H620 0.949 . S
C626 C630 1.368 . S
C627 C608 1.429 . S
C627 C621 1.429 . S
C627 C628 1.523 . S
C628 C609 1.368 . S
C628 C622 1.368 . S
C628 C627 1.523 . S
C629 C613 1.429 . S
C629 C625 1.429 . S
C629 C630 1.523 . S
C630 C614 1.368 . S
C630 C626 1.368 . S
C630 C629 1.523 . S
H631 C606 0.950 . S
H632 C608 0.950 . S
H633 C609 0.949 . S
H634 C611 0.950 . S
H635 C613 0.950 . S
C636 C637 1.349 . S
C636 C638 1.327 . S
C636 H661 0.950 . S
C637 C636 1.349 . S
C637 C653 1.349 . S
C638 C636 1.327 . S
C638 C657 1.429 . S
C638 H662 0.950 . S
C639 C656 1.574 . S
C639 C658 1.368 . S
C639 H663 0.949 . S
H640 C644 0.949 . S
C641 C642 1.349 . S
C641 C643 1.327 . S
C641 H664 0.950 . S
C642 C641 1.349 . S
C642 C654 1.349 . S
C643 C641 1.327 . S
C643 C659 1.429 . S
C643 H665 0.950 . S
C644 H640 0.949 . S
C644 C652 1.574 . S
C644 C660 1.368 . S
H645 C653 0.950 . S
H646 C651 0.950 . S
H647 C652 0.949 . S
H648 C654 0.950 . S
H649 C655 0.950 . S
H650 C656 0.949 . S
C651 H646 0.950 . S
C651 C653 1.327 . S
C651 C657 1.429 . S
C652 C644 1.574 . S
C652 H647 0.949 . S
C652 C658 1.368 . S
C653 C637 1.349 . S
C653 H645 0.950 . S
C653 C651 1.327 . S
C654 C642 1.349 . S
C654 H648 0.950 . S
C654 C655 1.327 . S
C655 H649 0.950 . S
C655 C654 1.327 . S
C655 C659 1.429 . S
C656 C639 1.574 . S
C656 H650 0.949 . S
C656 C660 1.368 . S
C657 C638 1.429 . S
C657 C651 1.429 . S
C657 C658 1.523 . S
C658 C639 1.368 . S
C658 C652 1.368 . S
C658 C657 1.523 . S
C659 C643 1.429 . S
C659 C655 1.429 . S
C659 C660 1.523 . S
C660 C644 1.368 . S
C660 C656 1.368 . S
C660 C659 1.523 . S
H661 C636 0.950 . S
H662 C638 0.950 . S
H663 C639 0.949 . S
H664 C641 0.950 . S
H665 C643 0.950 . S
C666 C667 1.349 . S
C666 C668 1.327 . S
C666 H691 0.950 . S
C667 C666 1.349 . S
C667 C683 1.349 . S
C668 C666 1.327 . S
C668 C687 1.429 . S
C668 H692 0.950 . S
C669 C686 1.574 . S
C669 C688 1.368 . S
C669 H693 0.949 . S
H670 C674 0.949 . S
C671 C672 1.349 1_545 S
C671 C673 1.327 1_545 S
C671 H694 0.950 . S
C672 C671 1.349 1_565 S
C672 C684 1.349 . S
C673 C671 1.327 1_565 S
C673 C689 1.429 . S
C673 H695 0.950 1_565 S
C674 H670 0.949 . S
C674 C682 1.574 . S
C674 C690 1.368 . S
H675 C683 0.950 . S
H676 C681 0.950 . S
H677 C682 0.949 . S
H678 C684 0.950 . S
H679 C685 0.950 . S
H680 C686 0.949 . S
C681 H676 0.950 . S
C681 C683 1.327 . S
C681 C687 1.429 . S
C682 C674 1.574 . S
C682 H677 0.949 . S
C682 C688 1.368 . S
C683 C667 1.349 . S
C683 H675 0.950 . S
C683 C681 1.327 . S
C684 C672 1.349 . S
C684 H678 0.950 . S
C684 C685 1.327 . S
C685 H679 0.950 . S
C685 C684 1.327 . S
C685 C689 1.429 . S
C686 C669 1.574 . S
C686 H680 0.949 . S
C686 C690 1.368 . S
C687 C668 1.429 . S
C687 C681 1.429 . S
C687 C688 1.523 . S
C688 C669 1.368 . S
C688 C682 1.368 . S
C688 C687 1.523 . S
C689 C673 1.429 . S
C689 C685 1.429 . S
C689 C690 1.523 . S
C690 C674 1.368 . S
C690 C686 1.368 . S
C690 C689 1.523 . S
H691 C666 0.950 . S
H692 C668 0.950 . S
H693 C669 0.949 . S
H694 C671 0.950 . S
H695 C673 0.950 1_545 S
C696 C697 1.349 . S
C696 C698 1.327 . S
C696 H721 0.950 . S
C697 C696 1.349 . S
C697 C713 1.349 . S
C698 C696 1.327 . S
C698 C717 1.429 . S
C698 H722 0.950 . S
C699 C716 1.574 . S
C699 C718 1.368 . S
C699 H723 0.949 . S
H700 C704 0.949 . S
C701 C702 1.349 . S
C701 C703 1.327 . S
C701 H724 0.950 . S
C702 C701 1.349 . S
C702 C714 1.349 . S
C703 C701 1.327 . S
C703 C719 1.429 . S
C703 H725 0.950 . S
C704 H700 0.949 . S
C704 C712 1.574 . S
C704 C720 1.368 . S
H705 C713 0.950 . S
H706 C711 0.950 . S
H707 C712 0.949 . S
H708 C714 0.950 . S
H709 C715 0.950 . S
H710 C716 0.949 . S
C711 H706 0.950 . S
C711 C713 1.327 . S
C711 C717 1.429 . S
C712 C704 1.574 . S
C712 H707 0.949 . S
C712 C718 1.368 . S
C713 C697 1.349 . S
C713 H705 0.950 . S
C713 C711 1.327 . S
C714 C702 1.349 . S
C714 H708 0.950 . S
C714 C715 1.327 . S
C715 H709 0.950 . S
C715 C714 1.327 . S
C715 C719 1.429 . S
C716 C699 1.574 . S
C716 H710 0.949 . S
C716 C720 1.368 . S
C717 C698 1.429 . S
C717 C711 1.429 . S
C717 C718 1.523 . S
C718 C699 1.368 . S
C718 C712 1.368 . S
C718 C717 1.523 . S
C719 C703 1.429 . S
C719 C715 1.429 . S
C719 C720 1.523 . S
C720 C704 1.368 . S
C720 C716 1.368 . S
C720 C719 1.523 . S
H721 C696 0.950 . S
H722 C698 0.950 . S
H723 C699 0.949 . S
H724 C701 0.950 . S
H725 C703 0.950 . S
C726 C727 1.349 . S
C726 C728 1.327 . S
C726 H751 0.950 . S
C727 C726 1.349 . S
C727 C743 1.349 . S
C728 C726 1.327 . S
C728 C747 1.429 . S
C728 H752 0.950 . S
C729 C746 1.574 . S
C729 C748 1.368 . S
C729 H753 0.949 . S
H730 C734 0.949 . S
C731 C732 1.349 . S
C731 C733 1.327 . S
C731 H754 0.950 . S
C732 C731 1.349 . S
C732 C744 1.349 . S
C733 C731 1.327 . S
C733 C749 1.429 . S
C733 H755 0.950 . S
C734 H730 0.949 . S
C734 C742 1.574 . S
C734 C750 1.368 . S
H735 C743 0.950 . S
H736 C741 0.950 . S
H737 C742 0.949 . S
H738 C744 0.950 . S
H739 C745 0.950 . S
H740 C746 0.949 . S
C741 H736 0.950 . S
C741 C743 1.327 . S
C741 C747 1.429 . S
C742 C734 1.574 . S
C742 H737 0.949 . S
C742 C748 1.368 . S
C743 C727 1.349 . S
C743 H735 0.950 . S
C743 C741 1.327 . S
C744 C732 1.349 . S
C744 H738 0.950 . S
C744 C745 1.327 . S
C745 H739 0.950 . S
C745 C744 1.327 . S
C745 C749 1.429 . S
C746 C729 1.574 . S
C746 H740 0.949 . S
C746 C750 1.368 . S
C747 C728 1.429 . S
C747 C741 1.429 . S
C747 C748 1.523 . S
C748 C729 1.368 . S
C748 C742 1.368 . S
C748 C747 1.523 . S
C749 C733 1.429 . S
C749 C745 1.429 . S
C749 C750 1.523 . S
C750 C734 1.368 . S
C750 C746 1.368 . S
C750 C749 1.523 . S
H751 C726 0.950 . S
H752 C728 0.950 . S
H753 C729 0.949 . S
H754 C731 0.950 . S
H755 C733 0.950 . S
C756 C757 1.349 . S
C756 C758 1.327 . S
C756 H781 0.950 . S
C757 C756 1.349 . S
C757 C773 1.349 . S
C758 C756 1.327 . S
C758 C777 1.429 . S
C758 H782 0.950 . S
C759 C776 1.574 . S
C759 C778 1.368 1_554 S
C759 H783 0.962 . S
H760 C764 0.949 . S
C761 C762 1.349 . S
C761 C763 1.327 . S
C761 H784 0.950 . S
C762 C761 1.349 . S
C762 C774 1.349 . S
C763 C761 1.327 . S
C763 C779 1.429 . S
C763 H785 0.950 . S
C764 H760 0.949 . S
C764 C772 1.574 . S
C764 C780 1.368 1_556 S
H765 C773 0.950 . S
H766 C771 0.950 . S
H767 C772 0.949 . S
H768 C774 0.950 . S
H769 C775 0.949 . S
H770 C776 0.949 . S
C771 H766 0.950 . S
C771 C773 1.327 . S
C771 C777 1.429 . S
C772 C764 1.574 . S
C772 H767 0.949 . S
C772 C778 1.368 . S
C773 C757 1.349 . S
C773 H765 0.950 . S
C773 C771 1.327 . S
C774 C762 1.349 . S
C774 H768 0.950 . S
C774 C775 1.327 . S
C775 H769 0.949 . S
C775 C774 1.327 . S
C775 C779 1.429 . S
C776 C759 1.574 . S
C776 H770 0.949 . S
C776 C780 1.368 . S
C777 C758 1.429 . S
C777 C771 1.429 . S
C777 C778 1.523 1_655 S
C778 C759 1.368 1_556 S
C778 C772 1.368 . S
C778 C777 1.523 1_455 S
C779 C763 1.429 . S
C779 C775 1.429 . S
C779 C780 1.523 . S
C780 C764 1.368 1_554 S
C780 C776 1.368 . S
C780 C779 1.523 . S
H781 C756 0.950 . S
H782 C758 0.950 . S
H783 C759 0.962 . S
H784 C761 0.950 . S
H785 C763 0.950 . S
C786 C787 1.349 . S
C786 C788 1.327 . S
C786 H811 0.950 . S
C787 C786 1.349 . S
C787 C803 1.349 . S
C788 C786 1.327 . S
C788 C807 1.429 . S
C788 H812 0.950 . S
C789 C806 1.574 1_556 S
C789 C808 1.368 . S
C789 H813 0.949 . S
H790 C794 0.949 . S
C791 C792 1.349 . S
C791 C793 1.327 . S
C791 H814 0.950 . S
C792 C791 1.349 . S
C792 C804 1.349 . S
C793 C791 1.327 . S
C793 C809 1.429 . S
C793 H815 0.950 . S
C794 H790 0.949 . S
C794 C802 1.574 1_554 S
C794 C810 1.368 . S
H795 C803 0.950 . S
H796 C801 0.950 . S
H797 C802 0.949 . S
H798 C804 0.950 . S
H799 C805 0.950 . S
H800 C806 0.949 . S
C801 H796 0.950 . S
C801 C803 1.327 . S
C801 C807 1.429 . S
C802 C794 1.574 1_556 S
C802 H797 0.949 . S
C802 C808 1.368 . S
C803 C787 1.349 . S
C803 H795 0.950 . S
C803 C801 1.327 . S
C804 C792 1.349 . S
C804 H798 0.950 . S
C804 C805 1.327 . S
C805 H799 0.950 . S
C805 C804 1.327 . S
C805 C809 1.429 . S
C806 C789 1.574 1_554 S
C806 H800 0.949 . S
C806 C810 1.368 . S
C807 C788 1.429 . S
C807 C801 1.429 . S
C807 C808 1.523 . S
C808 C789 1.368 . S
C808 C802 1.368 . S
C808 C807 1.523 . S
C809 C793 1.429 . S
C809 C805 1.429 . S
C809 C810 1.523 . S
C810 C794 1.368 . S
C810 C806 1.368 . S
C810 C809 1.523 . S
H811 C786 0.950 . S
H812 C788 0.950 . S
H813 C789 0.949 . S
H814 C791 0.950 . S
H815 C793 0.950 . S
C816 C817 1.349 . S
C816 C818 1.327 . S
C816 H841 0.950 . S
C817 C816 1.349 . S
C817 C833 1.349 . S
C818 C816 1.327 . S
C818 C837 1.429 . S
C818 H842 0.950 1_556 S
C819 C836 1.574 . S
C819 C838 1.368 . S
C819 H843 0.949 . S
H820 C824 0.949 . S
C821 C822 1.349 . S
C821 C823 1.327 . S
C821 H844 0.946 1_554 S
C822 C821 1.349 . S
C822 C834 1.349 . S
C823 C821 1.327 . S
C823 C839 1.429 . S
C823 H845 0.950 1_554 S
C824 H820 0.949 . S
C824 C832 1.574 . S
C824 C840 1.368 . S
H825 C833 0.950 . S
H826 C831 0.950 . S
H827 C832 0.949 . S
H828 C834 0.950 . S
H829 C835 0.950 . S
H830 C836 0.949 1_565 S
C831 H826 0.950 . S
C831 C833 1.327 . S
C831 C837 1.429 . S
C832 C824 1.574 . S
C832 H827 0.949 . S
C832 C838 1.368 1_554 S
C833 C817 1.349 . S
C833 H825 0.950 . S
C833 C831 1.327 . S
C834 C822 1.349 . S
C834 H828 0.950 . S
C834 C835 1.327 . S
C835 H829 0.950 . S
C835 C834 1.327 . S
C835 C839 1.429 . S
C836 C819 1.574 . S
C836 H830 0.949 1_545 S
C836 C840 1.368 1_556 S
C837 C818 1.429 . S
C837 C831 1.429 . S
C837 C838 1.523 . S
C838 C819 1.368 . S
C838 C832 1.368 1_556 S
C838 C837 1.523 . S
C839 C823 1.429 . S
C839 C835 1.429 . S
C839 C840 1.523 1_565 S
C840 C824 1.368 . S
C840 C836 1.368 1_554 S
C840 C839 1.523 1_545 S
H841 C816 0.950 . S
H842 C818 0.950 1_554 S
H843 C819 0.949 . S
H844 C821 0.946 1_556 S
H845 C823 0.950 1_556 S
C846 C847 1.349 . S
C846 C848 1.327 1_556 S
C846 H871 0.950 1_556 S
C847 C846 1.349 . S
C847 C863 1.349 . S
C848 C846 1.327 1_554 S
C848 C867 1.429 1_554 S
C848 H872 0.950 . S
C849 C866 1.574 . S
C849 C868 1.368 . S
C849 H873 0.949 . S
H850 C854 0.949 . S
C851 C852 1.349 . S
C851 C853 1.327 1_554 S
C851 H874 0.950 1_554 S
C852 C851 1.349 . S
C852 C864 1.349 . S
C853 C851 1.327 1_556 S
C853 C869 1.429 1_556 S
C853 H875 0.950 . S
C854 H850 0.949 . S
C854 C862 1.574 . S
C854 C870 1.368 . S
H855 C863 0.950 . S
H856 C861 0.950 . S
H857 C862 0.949 . S
H858 C864 0.950 . S
H859 C865 0.950 . S
H860 C866 0.949 1_565 S
C861 H856 0.950 . S
C861 C863 1.327 . S
C861 C867 1.429 . S
C862 C854 1.574 . S
C862 H857 0.949 . S
C862 C868 1.368 1_554 S
C863 C847 1.349 . S
C863 H855 0.950 . S
C863 C861 1.327 . S
C864 C852 1.349 . S
C864 H858 0.950 . S
C864 C865 1.327 . S
C865 H859 0.950 . S
C865 C864 1.327 . S
C865 C869 1.429 . S
C866 C849 1.574 . S
C866 H860 0.949 1_545 S
C866 C870 1.368 1_556 S
C867 C848 1.429 1_556 S
C867 C861 1.429 . S
C867 C868 1.523 . S
C868 C849 1.368 . S
C868 C862 1.368 1_556 S
C868 C867 1.523 . S
C869 C853 1.429 1_554 S
C869 C865 1.429 . S
C869 C870 1.523 1_565 S
C870 C854 1.368 . S
C870 C866 1.368 1_554 S
C870 C869 1.523 1_545 S
H871 C846 0.950 1_554 S
H872 C848 0.950 . S
H873 C849 0.949 . S
H874 C851 0.950 1_556 S
H875 C853 0.950 . S
C876 C877 1.349 . S
C876 C878 1.327 1_554 S
C876 H901 0.950 1_554 S
C877 C876 1.349 . S
C877 C893 1.349 . S
C878 C876 1.327 1_556 S
C878 C897 1.429 1_556 S
C878 H902 0.950 . S
C879 C896 1.574 . S
C879 C898 1.368 . S
C879 H903 0.949 . S
H880 C884 0.949 . S
C881 C882 1.349 . S
C881 C883 1.327 1_556 S
C881 H904 0.950 1_556 S
C882 C881 1.349 . S
C882 C894 1.349 . S
C883 C881 1.327 1_554 S
C883 C899 1.429 1_554 S
C883 H905 0.950 . S
C884 H880 0.949 . S
C884 C892 1.574 . S
C884 C900 1.368 . S
H885 C893 0.950 . S
H886 C891 0.950 . S
H887 C892 0.949 . S
H888 C894 0.950 . S
H889 C895 0.950 . S
H890 C896 0.949 1_655 S
C891 H886 0.950 . S
C891 C893 1.327 . S
C891 C897 1.429 . S
C892 C884 1.574 . S
C892 H887 0.949 . S
C892 C898 1.368 1_556 S
C893 C877 1.349 . S
C893 H885 0.950 . S
C893 C891 1.327 . S
C894 C882 1.349 . S
C894 H888 0.950 . S
C894 C895 1.327 . S
C895 H889 0.950 . S
C895 C894 1.327 . S
C895 C899 1.429 . S
C896 C879 1.574 . S
C896 H890 0.949 1_455 S
C896 C900 1.368 1_554 S
C897 C878 1.429 1_554 S
C897 C891 1.429 . S
C897 C898 1.523 . S
C898 C879 1.368 . S
C898 C892 1.368 1_554 S
C898 C897 1.523 . S
C899 C883 1.429 1_556 S
C899 C895 1.429 . S
C899 C900 1.523 1_655 S
C900 C884 1.368 . S
C900 C896 1.368 1_556 S
C900 C899 1.523 1_455 S
H901 C876 0.950 1_556 S
H902 C878 0.950 . S
H903 C879 0.949 . S
H904 C881 0.950 1_554 S
H905 C883 0.950 . S
C906 C907 1.349 . S
C906 C908 1.327 . S
C906 H931 0.950 . S
C907 C906 1.349 . S
C907 C923 1.349 . S
C908 C906 1.327 . S
C908 C927 1.429 . S
C908 H932 0.950 . S
C909 C926 1.574 1_554 S
C909 C928 1.368 . S
C909 H933 0.949 . S
H910 C914 0.949 . S
C911 C912 1.349 . S
C911 C913 1.327 . S
C911 H934 0.950 . S
C912 C911 1.349 . S
C912 C924 1.349 . S
C913 C911 1.327 . S
C913 C929 1.429 . S
C913 H935 0.950 . S
C914 H910 0.949 . S
C914 C922 1.574 1_556 S
C914 C930 1.368 . S
H915 C923 0.950 . S
H916 C921 0.950 . S
H917 C922 0.949 . S
H918 C924 0.950 . S
H919 C925 0.950 . S
H920 C926 0.949 . S
C921 H916 0.950 . S
C921 C923 1.327 . S
C921 C927 1.429 . S
C922 C914 1.574 1_554 S
C922 H917 0.949 . S
C922 C928 1.368 . S
C923 C907 1.349 . S
C923 H915 0.950 . S
C923 C921 1.327 . S
C924 C912 1.349 . S
C924 H918 0.950 . S
C924 C925 1.327 . S
C925 H919 0.950 . S
C925 C924 1.327 . S
C925 C929 1.429 . S
C926 C909 1.574 1_556 S
C926 H920 0.949 . S
C926 C930 1.368 . S
C927 C908 1.429 . S
C927 C921 1.429 . S
C927 C928 1.523 . S
C928 C909 1.368 . S
C928 C922 1.368 . S
C928 C927 1.523 . S
C929 C913 1.429 . S
C929 C925 1.429 . S
C929 C930 1.523 . S
C930 C914 1.368 . S
C930 C926 1.368 . S
C930 C929 1.523 . S
H931 C906 0.950 . S
H932 C908 0.950 . S
H933 C909 0.949 . S
H934 C911 0.950 . S
H935 C913 0.950 . S
C936 C937 1.349 . S
C936 C938 1.327 . S
C936 H961 0.950 . S
C937 C936 1.349 . S
C937 C953 1.349 . S
C938 C936 1.327 . S
C938 C957 1.429 . S
C938 H962 0.950 . S
C939 C956 1.574 . S
C939 C958 1.368 . S
C939 H963 0.949 . S
H940 C944 0.949 . S
C941 C942 1.349 . S
C941 C943 1.327 . S
C941 H964 0.950 . S
C942 C941 1.349 . S
C942 C954 1.349 . S
C943 C941 1.327 . S
C943 C959 1.429 . S
C943 H965 0.950 . S
C944 H940 0.949 . S
C944 C952 1.574 . S
C944 C960 1.368 . S
H945 C953 0.950 . S
H946 C951 0.950 . S
H947 C952 0.949 . S
H948 C954 0.950 . S
H949 C955 0.950 . S
H950 C956 0.949 . S
C951 H946 0.950 . S
C951 C953 1.327 . S
C951 C957 1.429 . S
C952 C944 1.574 . S
C952 H947 0.949 . S
C952 C958 1.368 . S
C953 C937 1.349 . S
C953 H945 0.950 . S
C953 C951 1.327 . S
C954 C942 1.349 . S
C954 H948 0.950 . S
C954 C955 1.327 . S
C955 H949 0.950 . S
C955 C954 1.327 . S
C955 C959 1.429 . S
C956 C939 1.574 . S
C956 H950 0.949 . S
C956 C960 1.368 . S
C957 C938 1.429 . S
C957 C951 1.429 . S
C957 C958 1.523 . S
C958 C939 1.368 . S
C958 C952 1.368 . S
C958 C957 1.523 . S
C959 C943 1.429 . S
C959 C955 1.429 . S
C959 C960 1.523 . S
C960 C944 1.368 . S
C960 C956 1.368 . S
C960 C959 1.523 . S
H961 C936 0.950 . S
H962 C938 0.950 . S
H963 C939 0.949 . S
H964 C941 0.950 . S
H965 C943 0.950 . S
C966 C967 1.349 . S
C966 C968 1.327 . S
C966 H991 0.950 . S
C967 C966 1.349 . S
C967 C983 1.349 . S
C968 C966 1.327 . S
C968 C987 1.429 . S
C968 H992 0.950 . S
C969 C986 1.574 . S
C969 C988 1.368 . S
C969 H993 0.949 . S
H970 C974 0.949 . S
C971 C972 1.349 . S
C971 C973 1.327 . S
C971 H994 0.950 . S
C972 C971 1.349 . S
C972 C984 1.349 . S
C973 C971 1.327 . S
C973 C989 1.429 . S
C973 H995 0.950 . S
C974 H970 0.949 . S
C974 C982 1.574 . S
C974 C990 1.368 . S
H975 C983 0.950 . S
H976 C981 0.950 . S
H977 C982 0.949 . S
H978 C984 0.950 . S
H979 C985 0.950 . S
H980 C986 0.949 . S
C981 H976 0.950 . S
C981 C983 1.327 . S
C981 C987 1.429 . S
C982 C974 1.574 . S
C982 H977 0.949 . S
C982 C988 1.368 . S
C983 C967 1.349 . S
C983 H975 0.950 . S
C983 C981 1.327 . S
C984 C972 1.349 . S
C984 H978 0.950 . S
C984 C985 1.327 . S
C985 H979 0.950 . S
C985 C984 1.327 . S
C985 C989 1.429 . S
C986 C969 1.574 . S
C986 H980 0.949 . S
C986 C990 1.368 . S
C987 C968 1.429 . S
C987 C981 1.429 . S
C987 C988 1.523 . S
C988 C969 1.368 . S
C988 C982 1.368 . S
C988 C987 1.523 . S
C989 C973 1.429 . S
C989 C985 1.429 . S
C989 C990 1.523 . S
C990 C974 1.368 . S
C990 C986 1.368 . S
C990 C989 1.523 . S
H991 C966 0.950 . S
H992 C968 0.950 . S
H993 C969 0.949 . S
H994 C971 0.950 . S
H995 C973 0.950 . S
C996 C997 1.349 . S
C996 C998 1.327 . S
C996 H1021 0.950 . S
C997 C996 1.349 . S
C997 C1013 1.349 . S
C998 C996 1.327 . S
C998 C1017 1.429 . S
C998 H1022 0.950 . S
C999 C1016 1.574 . S
C999 C1018 1.368 . S
C999 H1023 0.949 . S
H1000 C1004 0.949 . S
C1001 C1002 1.349 . S
C1001 C1003 1.327 . S
C1001 H1024 0.950 . S
C1002 C1001 1.349 . S
C1002 C1014 1.349 . S
C1003 C1001 1.327 . S
C1003 C1019 1.429 . S
C1003 H1025 0.950 . S
C1004 H1000 0.949 . S
C1004 C1012 1.574 . S
C1004 C1020 1.368 . S
H1005 C1013 0.950 . S
H1006 C1011 0.950 . S
H1007 C1012 0.949 . S
H1008 C1014 0.950 . S
H1009 C1015 0.950 . S
H1010 C1016 0.949 . S
C1011 H1006 0.950 . S
C1011 C1013 1.327 . S
C1011 C1017 1.429 . S
C1012 C1004 1.574 . S
C1012 H1007 0.949 . S
C1012 C1018 1.368 . S
C1013 C997 1.349 . S
C1013 H1005 0.950 . S
C1013 C1011 1.327 . S
C1014 C1002 1.349 . S
C1014 H1008 0.950 . S
C1014 C1015 1.327 . S
C1015 H1009 0.950 . S
C1015 C1014 1.327 . S
C1015 C1019 1.429 . S
C1016 C999 1.574 . S
C1016 H1010 0.949 . S
C1016 C1020 1.368 . S
C1017 C998 1.429 . S
C1017 C1011 1.429 . S
C1017 C1018 1.523 . S
C1018 C999 1.368 . S
C1018 C1012 1.368 . S
C1018 C1017 1.523 . S
C1019 C1003 1.429 . S
C1019 C1015 1.429 . S
C1019 C1020 1.523 . S
C1020 C1004 1.368 . S
C1020 C1016 1.368 . S
C1020 C1019 1.523 . S
H1021 C996 0.950 . S
H1022 C998 0.950 . S
H1023 C999 0.949 . S
H1024 C1001 0.950 . S
H1025 C1003 0.950 . S
C1026 C1027 1.349 . S
C1026 C1028 1.327 . S
C1026 H1051 0.950 . S
C1027 C1026 1.349 . S
C1027 C1043 1.349 . S
C1028 C1026 1.327 . S
C1028 C1047 1.429 . S
C1028 H1052 0.950 . S
C1029 C1046 1.574 . S
C1029 C1048 1.368 . S
C1029 H1053 0.949 . S
H1030 C1034 0.949 . S
C1031 C1032 1.349 . S
C1031 C1033 1.327 . S
C1031 H1054 0.950 . S
C1032 C1031 1.349 . S
C1032 C1044 1.349 . S
C1033 C1031 1.327 . S
C1033 C1049 1.429 . S
C1033 H1055 0.950 . S
C1034 H1030 0.949 . S
C1034 C1042 1.574 . S
C1034 C1050 1.368 . S
H1035 C1043 0.950 . S
H1036 C1041 0.950 . S
H1037 C1042 0.949 . S
H1038 C1044 0.950 . S
H1039 C1045 0.950 . S
H1040 C1046 0.949 . S
C1041 H1036 0.950 . S
C1041 C1043 1.327 . S
C1041 C1047 1.429 . S
C1042 C1034 1.574 . S
C1042 H1037 0.949 . S
C1042 C1048 1.368 . S
C1043 C1027 1.349 . S
C1043 H1035 0.950 . S
C1043 C1041 1.327 . S
C1044 C1032 1.349 . S
C1044 H1038 0.950 . S
C1044 C1045 1.327 . S
C1045 H1039 0.950 . S
C1045 C1044 1.327 . S
C1045 C1049 1.429 . S
C1046 C1029 1.574 . S
C1046 H1040 0.949 . S
C1046 C1050 1.368 . S
C1047 C1028 1.429 . S
C1047 C1041 1.429 . S
C1047 C1048 1.523 . S
C1048 C1029 1.368 . S
C1048 C1042 1.368 . S
C1048 C1047 1.523 . S
C1049 C1033 1.429 . S
C1049 C1045 1.429 . S
C1049 C1050 1.523 . S
C1050 C1034 1.368 . S
C1050 C1046 1.368 . S
C1050 C1049 1.523 . S
H1051 C1026 0.950 . S
H1052 C1028 0.950 . S
H1053 C1029 0.949 . S
H1054 C1031 0.950 . S
H1055 C1033 0.950 . S
C1056 C1057 1.349 . S
C1056 C1058 1.327 . S
C1056 H1081 0.950 . S
C1057 C1056 1.349 . S
C1057 C1073 1.349 . S
C1058 C1056 1.327 . S
C1058 C1077 1.429 . S
C1058 H1082 0.950 . S
C1059 C1076 1.574 . S
C1059 C1078 1.368 . S
C1059 H1083 0.949 . S
H1060 C1064 0.949 . S
C1061 C1062 1.349 . S
C1061 C1063 1.327 . S
C1061 H1084 0.950 . S
C1062 C1061 1.349 . S
C1062 C1074 1.349 . S
C1063 C1061 1.327 . S
C1063 C1079 1.429 . S
C1063 H1085 0.950 . S
C1064 H1060 0.949 . S
C1064 C1072 1.574 . S
C1064 C1080 1.368 . S
H1065 C1073 0.950 . S
H1066 C1071 0.950 . S
H1067 C1072 0.949 . S
H1068 C1074 0.950 . S
H1069 C1075 0.950 . S
H1070 C1076 0.949 . S
C1071 H1066 0.950 . S
C1071 C1073 1.327 . S
C1071 C1077 1.429 . S
C1072 C1064 1.574 . S
C1072 H1067 0.949 . S
C1072 C1078 1.368 . S
C1073 C1057 1.349 . S
C1073 H1065 0.950 . S
C1073 C1071 1.327 . S
C1074 C1062 1.349 . S
C1074 H1068 0.950 . S
C1074 C1075 1.327 . S
C1075 H1069 0.950 . S
C1075 C1074 1.327 . S
C1075 C1079 1.429 . S
C1076 C1059 1.574 . S
C1076 H1070 0.949 . S
C1076 C1080 1.368 . S
C1077 C1058 1.429 . S
C1077 C1071 1.429 . S
C1077 C1078 1.523 . S
C1078 C1059 1.368 . S
C1078 C1072 1.368 . S
C1078 C1077 1.523 . S
C1079 C1063 1.429 . S
C1079 C1075 1.429 . S
C1079 C1080 1.523 . S
C1080 C1064 1.368 . S
C1080 C1076 1.368 . S
C1080 C1079 1.523 . S
H1081 C1056 0.950 . S
H1082 C1058 0.950 . S
H1083 C1059 0.949 . S
H1084 C1061 0.950 . S
H1085 C1063 0.950 . S
C1086 C1087 1.349 . S
C1086 C1088 1.327 . S
C1086 H1111 0.950 . S
C1087 C1086 1.349 . S
C1087 C1103 1.349 . S
C1088 C1086 1.327 . S
C1088 C1107 1.429 . S
C1088 H1112 0.950 . S
C1089 C1106 1.574 . S
C1089 C1108 1.368 . S
C1089 H1113 0.949 . S
H1090 C1094 0.949 . S
C1091 C1092 1.349 . S
C1091 C1093 1.327 . S
C1091 H1114 0.950 . S
C1092 C1091 1.349 . S
C1092 C1104 1.349 . S
C1093 C1091 1.327 . S
C1093 C1109 1.429 . S
C1093 H1115 0.950 . S
C1094 H1090 0.949 . S
C1094 C1102 1.574 . S
C1094 C1110 1.368 . S
H1095 C1103 0.950 . S
H1096 C1101 0.950 . S
H1097 C1102 0.949 . S
H1098 C1104 0.950 . S
H1099 C1105 0.950 . S
H1100 C1106 0.949 . S
C1101 H1096 0.950 . S
C1101 C1103 1.327 . S
C1101 C1107 1.429 . S
C1102 C1094 1.574 . S
C1102 H1097 0.949 . S
C1102 C1108 1.368 . S
C1103 C1087 1.349 . S
C1103 H1095 0.950 . S
C1103 C1101 1.327 . S
C1104 C1092 1.349 . S
C1104 H1098 0.950 . S
C1104 C1105 1.327 . S
C1105 H1099 0.950 . S
C1105 C1104 1.327 . S
C1105 C1109 1.429 . S
C1106 C1089 1.574 . S
C1106 H1100 0.949 . S
C1106 C1110 1.368 . S
C1107 C1088 1.429 . S
C1107 C1101 1.429 . S
C1107 C1108 1.523 . S
C1108 C1089 1.368 . S
C1108 C1102 1.368 . S
C1108 C1107 1.523 . S
C1109 C1093 1.429 . S
C1109 C1105 1.429 . S
C1109 C1110 1.523 . S
C1110 C1094 1.368 . S
C1110 C1106 1.368 . S
C1110 C1109 1.523 . S
H1111 C1086 0.950 . S
H1112 C1088 0.950 . S
H1113 C1089 0.949 . S
H1114 C1091 0.950 . S
H1115 C1093 0.950 . S
C1116 C1117 1.349 . S
C1116 C1118 1.327 . S
C1116 H1141 0.950 . S
C1117 C1116 1.349 . S
C1117 C1133 1.349 . S
C1118 C1116 1.327 . S
C1118 C1137 1.429 . S
C1118 H1142 0.950 . S
C1119 C1136 1.574 . S
C1119 C1138 1.368 . S
C1119 H1143 0.949 . S
H1120 C1124 0.949 . S
C1121 C1122 1.349 . S
C1121 C1123 1.327 . S
C1121 H1144 0.950 . S
C1122 C1121 1.349 . S
C1122 C1134 1.349 . S
C1123 C1121 1.327 . S
C1123 C1139 1.429 . S
C1123 H1145 0.950 . S
C1124 H1120 0.949 . S
C1124 C1132 1.574 . S
C1124 C1140 1.368 . S
H1125 C1133 0.950 . S
H1126 C1131 0.950 . S
H1127 C1132 0.949 . S
H1128 C1134 0.950 . S
H1129 C1135 0.950 . S
H1130 C1136 0.949 . S
C1131 H1126 0.950 . S
C1131 C1133 1.327 . S
C1131 C1137 1.429 . S
C1132 C1124 1.574 . S
C1132 H1127 0.949 . S
C1132 C1138 1.368 . S
C1133 C1117 1.349 . S
C1133 H1125 0.950 . S
C1133 C1131 1.327 . S
C1134 C1122 1.349 . S
C1134 H1128 0.950 . S
C1134 C1135 1.327 . S
C1135 H1129 0.950 . S
C1135 C1134 1.327 . S
C1135 C1139 1.429 . S
C1136 C1119 1.574 . S
C1136 H1130 0.949 . S
C1136 C1140 1.368 . S
C1137 C1118 1.429 . S
C1137 C1131 1.429 . S
C1137 C1138 1.523 . S
C1138 C1119 1.368 . S
C1138 C1132 1.368 . S
C1138 C1137 1.523 . S
C1139 C1123 1.429 . S
C1139 C1135 1.429 . S
C1139 C1140 1.523 . S
C1140 C1124 1.368 . S
C1140 C1136 1.368 . S
C1140 C1139 1.523 . S
H1141 C1116 0.950 . S
H1142 C1118 0.950 . S
H1143 C1119 0.949 . S
H1144 C1121 0.950 . S
H1145 C1123 0.950 . S
C1146 C1147 1.349 . S
C1146 C1148 1.327 . S
C1146 H1171 0.950 . S
C1147 C1146 1.349 . S
C1147 C1163 1.349 . S
C1148 C1146 1.327 . S
C1148 C1167 1.429 . S
C1148 H1172 0.950 . S
C1149 C1166 1.574 . S
C1149 C1168 1.368 . S
C1149 H1173 0.949 . S
H1150 C1154 0.949 . S
C1151 C1152 1.349 . S
C1151 C1153 1.327 . S
C1151 H1174 0.950 . S
C1152 C1151 1.349 . S
C1152 C1164 1.349 . S
C1153 C1151 1.327 . S
C1153 C1169 1.429 . S
C1153 H1175 0.950 . S
C1154 H1150 0.949 . S
C1154 C1162 1.574 . S
C1154 C1170 1.368 . S
H1155 C1163 0.950 . S
H1156 C1161 0.950 . S
H1157 C1162 0.949 . S
H1158 C1164 0.950 . S
H1159 C1165 0.950 . S
H1160 C1166 0.949 . S
C1161 H1156 0.950 . S
C1161 C1163 1.327 . S
C1161 C1167 1.429 . S
C1162 C1154 1.574 . S
C1162 H1157 0.949 . S
C1162 C1168 1.368 . S
C1163 C1147 1.349 . S
C1163 H1155 0.950 . S
C1163 C1161 1.327 . S
C1164 C1152 1.349 . S
C1164 H1158 0.950 . S
C1164 C1165 1.327 . S
C1165 H1159 0.950 . S
C1165 C1164 1.327 . S
C1165 C1169 1.429 . S
C1166 C1149 1.574 . S
C1166 H1160 0.949 . S
C1166 C1170 1.368 . S
C1167 C1148 1.429 . S
C1167 C1161 1.429 . S
C1167 C1168 1.523 . S
C1168 C1149 1.368 . S
C1168 C1162 1.368 . S
C1168 C1167 1.523 . S
C1169 C1153 1.429 . S
C1169 C1165 1.429 . S
C1169 C1170 1.523 . S
C1170 C1154 1.368 . S
C1170 C1166 1.368 . S
C1170 C1169 1.523 . S
H1171 C1146 0.950 . S
H1172 C1148 0.950 . S
H1173 C1149 0.949 . S
H1174 C1151 0.950 . S
H1175 C1153 0.950 . S
C1176 C1177 1.349 . S
C1176 C1178 1.327 . S
C1176 H1201 0.950 . S
C1177 C1176 1.349 . S
C1177 C1193 1.349 . S
C1178 C1176 1.327 . S
C1178 C1197 1.429 . S
C1178 H1202 0.950 . S
C1179 C1196 1.574 . S
C1179 C1198 1.368 . S
C1179 H1203 0.949 . S
H1180 C1184 0.949 . S
C1181 C1182 1.349 . S
C1181 C1183 1.327 . S
C1181 H1204 0.950 . S
C1182 C1181 1.349 . S
C1182 C1194 1.349 . S
C1183 C1181 1.327 . S
C1183 C1199 1.429 . S
C1183 H1205 0.950 . S
C1184 H1180 0.949 . S
C1184 C1192 1.574 . S
C1184 C1200 1.368 . S
H1185 C1193 0.950 . S
H1186 C1191 0.950 . S
H1187 C1192 0.949 . S
H1188 C1194 0.950 . S
H1189 C1195 0.950 . S
H1190 C1196 0.949 . S
C1191 H1186 0.950 . S
C1191 C1193 1.327 . S
C1191 C1197 1.429 . S
C1192 C1184 1.574 . S
C1192 H1187 0.949 . S
C1192 C1198 1.368 . S
C1193 C1177 1.349 . S
C1193 H1185 0.950 . S
C1193 C1191 1.327 . S
C1194 C1182 1.349 . S
C1194 H1188 0.950 . S
C1194 C1195 1.327 . S
C1195 H1189 0.950 . S
C1195 C1194 1.327 . S
C1195 C1199 1.429 . S
C1196 C1179 1.574 . S
C1196 H1190 0.949 . S
C1196 C1200 1.368 . S
C1197 C1178 1.429 . S
C1197 C1191 1.429 . S
C1197 C1198 1.523 . S
C1198 C1179 1.368 . S
C1198 C1192 1.368 . S
C1198 C1197 1.523 . S
C1199 C1183 1.429 . S
C1199 C1195 1.429 . S
C1199 C1200 1.523 . S
C1200 C1184 1.368 . S
C1200 C1196 1.368 . S
C1200 C1199 1.523 . S
H1201 C1176 0.950 . S
H1202 C1178 0.950 . S
H1203 C1179 0.949 . S
H1204 C1181 0.950 . S
H1205 C1183 0.950 . S
C1206 C1207 1.349 . S
C1206 C1208 1.327 . S
C1206 H1231 0.950 . S
C1207 C1206 1.349 . S
C1207 C1223 1.349 . S
C1208 C1206 1.327 . S
C1208 C1227 1.429 . S
C1208 H1232 0.950 . S
C1209 C1226 1.574 . S
C1209 C1228 1.368 . S
C1209 H1233 0.949 . S
H1210 C1214 0.949 . S
C1211 C1212 1.349 . S
C1211 C1213 1.327 . S
C1211 H1234 0.950 . S
C1212 C1211 1.349 . S
C1212 C1224 1.349 . S
C1213 C1211 1.327 . S
C1213 C1229 1.429 . S
C1213 H1235 0.950 . S
C1214 H1210 0.949 . S
C1214 C1222 1.574 . S
C1214 C1230 1.368 . S
H1215 C1223 0.950 . S
H1216 C1221 0.950 . S
H1217 C1222 0.949 . S
H1218 C1224 0.950 . S
H1219 C1225 0.950 . S
H1220 C1226 0.949 . S
C1221 H1216 0.950 . S
C1221 C1223 1.327 . S
C1221 C1227 1.429 . S
C1222 C1214 1.574 . S
C1222 H1217 0.949 . S
C1222 C1228 1.368 . S
C1223 C1207 1.349 . S
C1223 H1215 0.950 . S
C1223 C1221 1.327 . S
C1224 C1212 1.349 . S
C1224 H1218 0.950 . S
C1224 C1225 1.327 . S
C1225 H1219 0.950 . S
C1225 C1224 1.327 . S
C1225 C1229 1.429 . S
C1226 C1209 1.574 . S
C1226 H1220 0.949 . S
C1226 C1230 1.368 . S
C1227 C1208 1.429 . S
C1227 C1221 1.429 . S
C1227 C1228 1.523 . S
C1228 C1209 1.368 . S
C1228 C1222 1.368 . S
C1228 C1227 1.523 . S
C1229 C1213 1.429 . S
C1229 C1225 1.429 . S
C1229 C1230 1.523 . S
C1230 C1214 1.368 . S
C1230 C1226 1.368 . S
C1230 C1229 1.523 . S
H1231 C1206 0.950 . S
H1232 C1208 0.950 . S
H1233 C1209 0.949 . S
H1234 C1211 0.950 . S
H1235 C1213 0.950 . S
C1236 C1237 1.349 . S
C1236 C1238 1.327 . S
C1236 H1261 0.950 . S
C1237 C1236 1.349 . S
C1237 C1253 1.349 . S
C1238 C1236 1.327 . S
C1238 C1257 1.429 . S
C1238 H1262 0.950 . S
C1239 C1256 1.574 . S
C1239 C1258 1.368 . S
C1239 H1263 0.949 . S
H1240 C1244 0.949 . S
C1241 C1242 1.349 . S
C1241 C1243 1.327 . S
C1241 H1264 0.950 . S
C1242 C1241 1.349 . S
C1242 C1254 1.349 . S
C1243 C1241 1.327 . S
C1243 C1259 1.429 . S
C1243 H1265 0.950 . S
C1244 H1240 0.949 . S
C1244 C1252 1.574 . S
C1244 C1260 1.368 . S
H1245 C1253 0.950 . S
H1246 C1251 0.950 . S
H1247 C1252 0.949 . S
H1248 C1254 0.950 . S
H1249 C1255 0.950 . S
H1250 C1256 0.949 . S
C1251 H1246 0.950 . S
C1251 C1253 1.327 . S
C1251 C1257 1.429 . S
C1252 C1244 1.574 . S
C1252 H1247 0.949 . S
C1252 C1258 1.368 . S
C1253 C1237 1.349 . S
C1253 H1245 0.950 . S
C1253 C1251 1.327 . S
C1254 C1242 1.349 . S
C1254 H1248 0.950 . S
C1254 C1255 1.327 . S
C1255 H1249 0.950 . S
C1255 C1254 1.327 . S
C1255 C1259 1.429 . S
C1256 C1239 1.574 . S
C1256 H1250 0.949 . S
C1256 C1260 1.368 . S
C1257 C1238 1.429 . S
C1257 C1251 1.429 . S
C1257 C1258 1.523 . S
C1258 C1239 1.368 . S
C1258 C1252 1.368 . S
C1258 C1257 1.523 . S
C1259 C1243 1.429 . S
C1259 C1255 1.429 . S
C1259 C1260 1.523 . S
C1260 C1244 1.368 . S
C1260 C1256 1.368 . S
C1260 C1259 1.523 . S
H1261 C1236 0.950 . S
H1262 C1238 0.950 . S
H1263 C1239 0.949 . S
H1264 C1241 0.950 . S
H1265 C1243 0.950 . S
C1266 C1267 1.349 . S
C1266 C1268 1.327 . S
C1266 H1291 0.950 . S
C1267 C1266 1.349 . S
C1267 C1283 1.349 . S
C1268 C1266 1.327 . S
C1268 C1287 1.429 . S
C1268 H1292 0.950 . S
C1269 C1286 1.574 . S
C1269 C1288 1.368 . S
C1269 H1293 0.949 . S
H1270 C1274 0.949 . S
C1271 C1272 1.349 . S
C1271 C1273 1.327 . S
C1271 H1294 0.950 . S
C1272 C1271 1.349 . S
C1272 C1284 1.349 . S
C1273 C1271 1.327 . S
C1273 C1289 1.429 . S
C1273 H1295 0.950 . S
C1274 H1270 0.949 . S
C1274 C1282 1.574 . S
C1274 C1290 1.368 . S
H1275 C1283 0.950 . S
H1276 C1281 0.950 . S
H1277 C1282 0.949 . S
H1278 C1284 0.950 . S
H1279 C1285 0.950 . S
H1280 C1286 0.949 . S
C1281 H1276 0.950 . S
C1281 C1283 1.327 . S
C1281 C1287 1.429 . S
C1282 C1274 1.574 . S
C1282 H1277 0.949 . S
C1282 C1288 1.368 . S
C1283 C1267 1.349 . S
C1283 H1275 0.950 . S
C1283 C1281 1.327 . S
C1284 C1272 1.349 . S
C1284 H1278 0.950 . S
C1284 C1285 1.327 . S
C1285 H1279 0.950 . S
C1285 C1284 1.327 . S
C1285 C1289 1.429 . S
C1286 C1269 1.574 . S
C1286 H1280 0.949 . S
C1286 C1290 1.368 . S
C1287 C1268 1.429 . S
C1287 C1281 1.429 . S
C1287 C1288 1.523 . S
C1288 C1269 1.368 . S
C1288 C1282 1.368 . S
C1288 C1287 1.523 . S
C1289 C1273 1.429 . S
C1289 C1285 1.429 . S
C1289 C1290 1.523 . S
C1290 C1274 1.368 . S
C1290 C1286 1.368 . S
C1290 C1289 1.523 . S
H1291 C1266 0.950 . S
H1292 C1268 0.950 . S
H1293 C1269 0.949 . S
H1294 C1271 0.950 . S
H1295 C1273 0.950 . S
C1296 C1297 1.349 . S
C1296 C1298 1.327 . S
C1296 H1321 0.950 . S
C1297 C1296 1.349 . S
C1297 C1313 1.349 . S
C1298 C1296 1.327 . S
C1298 C1317 1.429 . S
C1298 H1322 0.950 . S
C1299 C1316 1.574 . S
C1299 C1318 1.368 . S
C1299 H1323 0.949 . S
H1300 C1304 0.949 . S
C1301 C1302 1.349 . S
C1301 C1303 1.327 . S
C1301 H1324 0.950 . S
C1302 C1301 1.349 . S
C1302 C1314 1.349 . S
C1303 C1301 1.327 . S
C1303 C1319 1.429 . S
C1303 H1325 0.950 . S
C1304 H1300 0.949 . S
C1304 C1312 1.574 . S
C1304 C1320 1.368 . S
H1305 C1313 0.950 . S
H1306 C1311 0.950 . S
H1307 C1312 0.949 . S
H1308 C1314 0.950 . S
H1309 C1315 0.950 . S
H1310 C1316 0.949 . S
C1311 H1306 0.950 . S
C1311 C1313 1.327 . S
C1311 C1317 1.429 . S
C1312 C1304 1.574 . S
C1312 H1307 0.949 . S
C1312 C1318 1.368 . S
C1313 C1297 1.349 . S
C1313 H1305 0.950 . S
C1313 C1311 1.327 . S
C1314 C1302 1.349 . S
C1314 H1308 0.950 . S
C1314 C1315 1.327 . S
C1315 H1309 0.950 . S
C1315 C1314 1.327 . S
C1315 C1319 1.429 . S
C1316 C1299 1.574 . S
C1316 H1310 0.949 . S
C1316 C1320 1.368 . S
C1317 C1298 1.429 . S
C1317 C1311 1.429 . S
C1317 C1318 1.523 . S
C1318 C1299 1.368 . S
C1318 C1312 1.368 . S
C1318 C1317 1.523 . S
C1319 C1303 1.429 . S
C1319 C1315 1.429 . S
C1319 C1320 1.523 . S
C1320 C1304 1.368 . S
C1320 C1316 1.368 . S
C1320 C1319 1.523 . S
H1321 C1296 0.950 . S
H1322 C1298 0.950 . S
H1323 C1299 0.949 . S
H1324 C1301 0.950 . S
H1325 C1303 0.950 . S
C1326 C1327 1.349 . S
C1326 C1328 1.327 . S
C1326 H1351 0.950 . S
C1327 C1326 1.349 . S
C1327 C1343 1.349 . S
C1328 C1326 1.327 . S
C1328 C1347 1.429 . S
C1328 H1352 0.950 . S
C1329 C1346 1.574 . S
C1329 C1348 1.368 . S
C1329 H1353 0.949 . S
H1330 C1334 0.949 . S
C1331 C1332 1.349 . S
C1331 C1333 1.327 . S
C1331 H1354 0.950 . S
C1332 C1331 1.349 . S
C1332 C1344 1.349 . S
C1333 C1331 1.327 . S
C1333 C1349 1.429 . S
C1333 H1355 0.950 . S
C1334 H1330 0.949 . S
C1334 C1342 1.574 . S
C1334 C1350 1.368 . S
H1335 C1343 0.950 . S
H1336 C1341 0.950 . S
H1337 C1342 0.949 . S
H1338 C1344 0.950 . S
H1339 C1345 0.950 . S
H1340 C1346 0.949 . S
C1341 H1336 0.950 . S
C1341 C1343 1.327 . S
C1341 C1347 1.429 . S
C1342 C1334 1.574 . S
C1342 H1337 0.949 . S
C1342 C1348 1.368 . S
C1343 C1327 1.349 . S
C1343 H1335 0.950 . S
C1343 C1341 1.327 . S
C1344 C1332 1.349 . S
C1344 H1338 0.950 . S
C1344 C1345 1.327 . S
C1345 H1339 0.950 . S
C1345 C1344 1.327 . S
C1345 C1349 1.429 . S
C1346 C1329 1.574 . S
C1346 H1340 0.949 . S
C1346 C1350 1.368 . S
C1347 C1328 1.429 . S
C1347 C1341 1.429 . S
C1347 C1348 1.523 . S
C1348 C1329 1.368 . S
C1348 C1342 1.368 . S
C1348 C1347 1.523 . S
C1349 C1333 1.429 . S
C1349 C1345 1.429 . S
C1349 C1350 1.523 . S
C1350 C1334 1.368 . S
C1350 C1346 1.368 . S
C1350 C1349 1.523 . S
H1351 C1326 0.950 . S
H1352 C1328 0.950 . S
H1353 C1329 0.949 . S
H1354 C1331 0.950 . S
H1355 C1333 0.950 . S
C1356 C1357 1.349 . S
C1356 C1358 1.327 . S
C1356 H1381 0.950 . S
C1357 C1356 1.349 . S
C1357 C1373 1.349 . S
C1358 C1356 1.327 . S
C1358 C1377 1.429 . S
C1358 H1382 0.950 . S
C1359 C1376 1.574 . S
C1359 C1378 1.368 . S
C1359 H1383 0.949 . S
H1360 C1364 0.949 . S
C1361 C1362 1.349 . S
C1361 C1363 1.327 . S
C1361 H1384 0.950 . S
C1362 C1361 1.349 . S
C1362 C1374 1.349 . S
C1363 C1361 1.327 . S
C1363 C1379 1.429 . S
C1363 H1385 0.950 . S
C1364 H1360 0.949 . S
C1364 C1372 1.574 . S
C1364 C1380 1.368 . S
H1365 C1373 0.950 . S
H1366 C1371 0.950 . S
H1367 C1372 0.949 . S
H1368 C1374 0.950 . S
H1369 C1375 0.950 . S
H1370 C1376 0.949 . S
C1371 H1366 0.950 . S
C1371 C1373 1.327 . S
C1371 C1377 1.429 . S
C1372 C1364 1.574 . S
C1372 H1367 0.949 . S
C1372 C1378 1.368 . S
C1373 C1357 1.349 . S
C1373 H1365 0.950 . S
C1373 C1371 1.327 . S
C1374 C1362 1.349 . S
C1374 H1368 0.950 . S
C1374 C1375 1.327 . S
C1375 H1369 0.950 . S
C1375 C1374 1.327 . S
C1375 C1379 1.429 . S
C1376 C1359 1.574 . S
C1376 H1370 0.949 . S
C1376 C1380 1.368 . S
C1377 C1358 1.429 . S
C1377 C1371 1.429 . S
C1377 C1378 1.523 . S
C1378 C1359 1.368 . S
C1378 C1372 1.368 . S
C1378 C1377 1.523 . S
C1379 C1363 1.429 . S
C1379 C1375 1.429 . S
C1379 C1380 1.523 . S
C1380 C1364 1.368 . S
C1380 C1376 1.368 . S
C1380 C1379 1.523 . S
H1381 C1356 0.950 . S
H1382 C1358 0.950 . S
H1383 C1359 0.949 . S
H1384 C1361 0.950 . S
H1385 C1363 0.950 . S
C1386 C1387 1.349 . S
C1386 C1388 1.327 . S
C1386 H1411 0.950 . S
C1387 C1386 1.349 . S
C1387 C1403 1.349 . S
C1388 C1386 1.327 . S
C1388 C1407 1.429 . S
C1388 H1412 0.950 . S
C1389 C1406 1.574 . S
C1389 C1408 1.368 . S
C1389 H1413 0.949 . S
H1390 C1394 0.949 . S
C1391 C1392 1.349 . S
C1391 C1393 1.327 . S
C1391 H1414 0.950 . S
C1392 C1391 1.349 . S
C1392 C1404 1.349 . S
C1393 C1391 1.327 . S
C1393 C1409 1.429 . S
C1393 H1415 0.950 . S
C1394 H1390 0.949 . S
C1394 C1402 1.574 . S
C1394 C1410 1.368 . S
H1395 C1403 0.950 . S
H1396 C1401 0.950 . S
H1397 C1402 0.949 . S
H1398 C1404 0.950 . S
H1399 C1405 0.950 . S
H1400 C1406 0.949 . S
C1401 H1396 0.950 . S
C1401 C1403 1.327 . S
C1401 C1407 1.429 . S
C1402 C1394 1.574 . S
C1402 H1397 0.949 . S
C1402 C1408 1.368 . S
C1403 C1387 1.349 . S
C1403 H1395 0.950 . S
C1403 C1401 1.327 . S
C1404 C1392 1.349 . S
C1404 H1398 0.950 . S
C1404 C1405 1.327 . S
C1405 H1399 0.950 . S
C1405 C1404 1.327 . S
C1405 C1409 1.429 . S
C1406 C1389 1.574 . S
C1406 H1400 0.949 . S
C1406 C1410 1.368 . S
C1407 C1388 1.429 . S
C1407 C1401 1.429 . S
C1407 C1408 1.523 . S
C1408 C1389 1.368 . S
C1408 C1402 1.368 . S
C1408 C1407 1.523 . S
C1409 C1393 1.429 . S
C1409 C1405 1.429 . S
C1409 C1410 1.523 . S
C1410 C1394 1.368 . S
C1410 C1406 1.368 . S
C1410 C1409 1.523 . S
H1411 C1386 0.950 . S
H1412 C1388 0.950 . S
H1413 C1389 0.949 . S
H1414 C1391 0.950 . S
H1415 C1393 0.950 . S
C1416 C1417 1.349 . S
C1416 C1418 1.327 . S
C1416 H1441 0.950 . S
C1417 C1416 1.349 . S
C1417 C1433 1.349 . S
C1418 C1416 1.327 . S
C1418 C1437 1.429 . S
C1418 H1442 0.950 . S
C1419 C1436 1.574 . S
C1419 C1438 1.368 . S
C1419 H1443 0.949 . S
H1420 C1424 0.949 . S
C1421 C1422 1.349 . S
C1421 C1423 1.327 . S
C1421 H1444 0.950 . S
C1422 C1421 1.349 . S
C1422 C1434 1.349 . S
C1423 C1421 1.327 . S
C1423 C1439 1.429 . S
C1423 H1445 0.950 . S
C1424 H1420 0.949 . S
C1424 C1432 1.574 . S
C1424 C1440 1.368 . S
H1425 C1433 0.950 . S
H1426 C1431 0.950 . S
H1427 C1432 0.949 . S
H1428 C1434 0.950 . S
H1429 C1435 0.950 . S
H1430 C1436 0.949 . S
C1431 H1426 0.950 . S
C1431 C1433 1.327 . S
C1431 C1437 1.429 . S
C1432 C1424 1.574 . S
C1432 H1427 0.949 . S
C1432 C1438 1.368 . S
C1433 C1417 1.349 . S
C1433 H1425 0.950 . S
C1433 C1431 1.327 . S
C1434 C1422 1.349 . S
C1434 H1428 0.950 . S
C1434 C1435 1.327 . S
C1435 H1429 0.950 . S
C1435 C1434 1.327 . S
C1435 C1439 1.429 . S
C1436 C1419 1.574 . S
C1436 H1430 0.949 . S
C1436 C1440 1.368 . S
C1437 C1418 1.429 . S
C1437 C1431 1.429 . S
C1437 C1438 1.523 . S
C1438 C1419 1.368 . S
C1438 C1432 1.368 . S
C1438 C1437 1.523 . S
C1439 C1423 1.429 . S
C1439 C1435 1.429 . S
C1439 C1440 1.523 . S
C1440 C1424 1.368 . S
C1440 C1436 1.368 . S
C1440 C1439 1.523 . S
H1441 C1416 0.950 . S
H1442 C1418 0.950 . S
H1443 C1419 0.949 . S
H1444 C1421 0.950 . S
H1445 C1423 0.950 . S
C1446 C1447 1.349 . S
C1446 C1448 1.327 . S
C1446 H1471 0.950 . S
C1447 C1446 1.349 . S
C1447 C1463 1.349 . S
C1448 C1446 1.327 . S
C1448 C1467 1.429 . S
C1448 H1472 0.950 . S
C1449 C1466 1.574 . S
C1449 C1468 1.368 . S
C1449 H1473 0.949 . S
H1450 C1454 0.949 . S
C1451 C1452 1.349 . S
C1451 C1453 1.327 . S
C1451 H1474 0.950 . S
C1452 C1451 1.349 . S
C1452 C1464 1.349 . S
C1453 C1451 1.327 . S
C1453 C1469 1.429 . S
C1453 H1475 0.950 . S
C1454 H1450 0.949 . S
C1454 C1462 1.574 . S
C1454 C1470 1.368 . S
H1455 C1463 0.950 . S
H1456 C1461 0.950 . S
H1457 C1462 0.949 . S
H1458 C1464 0.950 . S
H1459 C1465 0.950 . S
H1460 C1466 0.949 . S
C1461 H1456 0.950 . S
C1461 C1463 1.327 . S
C1461 C1467 1.429 . S
C1462 C1454 1.574 . S
C1462 H1457 0.949 . S
C1462 C1468 1.368 . S
C1463 C1447 1.349 . S
C1463 H1455 0.950 . S
C1463 C1461 1.327 . S
C1464 C1452 1.349 . S
C1464 H1458 0.950 . S
C1464 C1465 1.327 . S
C1465 H1459 0.950 . S
C1465 C1464 1.327 . S
C1465 C1469 1.429 . S
C1466 C1449 1.574 . S
C1466 H1460 0.949 . S
C1466 C1470 1.368 . S
C1467 C1448 1.429 . S
C1467 C1461 1.429 . S
C1467 C1468 1.523 . S
C1468 C1449 1.368 . S
C1468 C1462 1.368 . S
C1468 C1467 1.523 . S
C1469 C1453 1.429 . S
C1469 C1465 1.429 . S
C1469 C1470 1.523 . S
C1470 C1454 1.368 . S
C1470 C1466 1.368 . S
C1470 C1469 1.523 . S
H1471 C1446 0.950 . S
H1472 C1448 0.950 . S
H1473 C1449 0.949 . S
H1474 C1451 0.950 . S
H1475 C1453 0.950 . S
C1476 C1477 1.349 . S
C1476 C1478 1.327 . S
C1476 H1501 0.950 1_455 S
C1477 C1476 1.349 . S
C1477 C1493 1.349 . S
C1478 C1476 1.327 . S
C1478 C1497 1.429 . S
C1478 H1502 0.950 1_455 S
C1479 C1496 1.574 1_554 S
C1479 C1498 1.368 . S
C1479 H1503 0.949 . S
H1480 C1484 0.949 1_655 S
C1481 C1482 1.349 . S
C1481 C1483 1.327 . S
C1481 H1504 0.950 . S
C1482 C1481 1.349 . S
C1482 C1494 1.349 . S
C1483 C1481 1.327 . S
C1483 C1499 1.429 . S
C1483 H1505 0.950 . S
C1484 H1480 0.949 1_455 S
C1484 C1492 1.574 1_556 S
C1484 C1500 1.368 . S
H1485 C1493 0.950 . S
H1486 C1491 0.950 . S
H1487 C1492 0.949 1_655 S
H1488 C1494 0.950 1_655 S
H1489 C1495 0.950 1_655 S
H1490 C1496 0.949 . S
C1491 H1486 0.950 . S
C1491 C1493 1.327 . S
C1491 C1497 1.429 . S
C1492 C1484 1.574 1_554 S
C1492 H1487 0.949 1_455 S
C1492 C1498 1.368 . S
C1493 C1477 1.349 . S
C1493 H1485 0.950 . S
C1493 C1491 1.327 . S
C1494 C1482 1.349 . S
C1494 H1488 0.950 1_455 S
C1494 C1495 1.327 . S
C1495 H1489 0.950 1_455 S
C1495 C1494 1.327 . S
C1495 C1499 1.429 . S
C1496 C1479 1.574 1_556 S
C1496 H1490 0.949 . S
C1496 C1500 1.368 . S
C1497 C1478 1.429 . S
C1497 C1491 1.429 . S
C1497 C1498 1.523 . S
C1498 C1479 1.368 . S
C1498 C1492 1.368 . S
C1498 C1497 1.523 . S
C1499 C1483 1.429 . S
C1499 C1495 1.429 . S
C1499 C1500 1.523 . S
C1500 C1484 1.368 . S
C1500 C1496 1.368 . S
C1500 C1499 1.523 . S
H1501 C1476 0.950 1_655 S
H1502 C1478 0.950 1_655 S
H1503 C1479 0.949 . S
H1504 C1481 0.950 . S
H1505 C1483 0.950 . S
C1506 C1507 1.349 . S
C1506 C1508 1.327 . S
C1506 H1531 0.950 . S
C1507 C1506 1.349 . S
C1507 C1523 1.349 . S
C1508 C1506 1.327 . S
C1508 C1527 1.429 . S
C1508 H1532 0.950 . S
C1509 C1526 1.574 1_554 S
C1509 C1528 1.368 . S
C1509 H1533 0.949 . S
H1510 C1514 0.949 . S
C1511 C1512 1.349 . S
C1511 C1513 1.327 . S
C1511 H1534 0.950 . S
C1512 C1511 1.349 . S
C1512 C1524 1.349 . S
C1513 C1511 1.327 . S
C1513 C1529 1.429 . S
C1513 H1535 0.950 . S
C1514 H1510 0.949 . S
C1514 C1522 1.574 1_556 S
C1514 C1530 1.368 . S
H1515 C1523 0.950 . S
H1516 C1521 0.950 . S
H1517 C1522 0.949 . S
H1518 C1524 0.950 . S
H1519 C1525 0.950 . S
H1520 C1526 0.949 . S
C1521 H1516 0.950 . S
C1521 C1523 1.327 . S
C1521 C1527 1.429 . S
C1522 C1514 1.574 1_554 S
C1522 H1517 0.949 . S
C1522 C1528 1.368 . S
C1523 C1507 1.349 . S
C1523 H1515 0.950 . S
C1523 C1521 1.327 . S
C1524 C1512 1.349 . S
C1524 H1518 0.950 . S
C1524 C1525 1.327 . S
C1525 H1519 0.950 . S
C1525 C1524 1.327 . S
C1525 C1529 1.429 . S
C1526 C1509 1.574 1_556 S
C1526 H1520 0.949 . S
C1526 C1530 1.368 . S
C1527 C1508 1.429 . S
C1527 C1521 1.429 . S
C1527 C1528 1.523 . S
C1528 C1509 1.368 . S
C1528 C1522 1.368 . S
C1528 C1527 1.523 . S
C1529 C1513 1.429 . S
C1529 C1525 1.429 . S
C1529 C1530 1.523 . S
C1530 C1514 1.368 . S
C1530 C1526 1.368 . S
C1530 C1529 1.523 . S
H1531 C1506 0.950 . S
H1532 C1508 0.950 . S
H1533 C1509 0.949 . S
H1534 C1511 0.950 . S
H1535 C1513 0.950 . S
C1536 C1537 1.349 . S
C1536 C1538 1.327 . S
C1536 H1561 0.950 1_545 S
C1537 C1536 1.349 . S
C1537 C1553 1.349 . S
C1538 C1536 1.327 . S
C1538 C1557 1.429 . S
C1538 H1562 0.950 1_545 S
C1539 C1556 1.574 1_554 S
C1539 C1558 1.368 . S
C1539 H1563 0.949 . S
H1540 C1544 0.949 1_565 S
C1541 C1542 1.349 . S
C1541 C1543 1.327 . S
C1541 H1564 0.950 . S
C1542 C1541 1.349 . S
C1542 C1554 1.349 . S
C1543 C1541 1.327 . S
C1543 C1559 1.429 . S
C1543 H1565 0.950 . S
C1544 H1540 0.949 1_545 S
C1544 C1552 1.574 1_556 S
C1544 C1560 1.368 . S
H1545 C1553 0.950 . S
H1546 C1551 0.950 . S
H1547 C1552 0.949 1_565 S
H1548 C1554 0.950 1_565 S
H1549 C1555 0.950 1_565 S
H1550 C1556 0.949 . S
C1551 H1546 0.950 . S
C1551 C1553 1.327 . S
C1551 C1557 1.429 . S
C1552 C1544 1.574 1_554 S
C1552 H1547 0.949 1_545 S
C1552 C1558 1.368 . S
C1553 C1537 1.349 . S
C1553 H1545 0.950 . S
C1553 C1551 1.327 . S
C1554 C1542 1.349 . S
C1554 H1548 0.950 1_545 S
C1554 C1555 1.327 . S
C1555 H1549 0.950 1_545 S
C1555 C1554 1.327 . S
C1555 C1559 1.429 . S
C1556 C1539 1.574 1_556 S
C1556 H1550 0.949 . S
C1556 C1560 1.368 . S
C1557 C1538 1.429 . S
C1557 C1551 1.429 . S
C1557 C1558 1.523 . S
C1558 C1539 1.368 . S
C1558 C1552 1.368 . S
C1558 C1557 1.523 . S
C1559 C1543 1.429 . S
C1559 C1555 1.429 . S
C1559 C1560 1.523 . S
C1560 C1544 1.368 . S
C1560 C1556 1.368 . S
C1560 C1559 1.523 . S
H1561 C1536 0.950 1_565 S
H1562 C1538 0.950 1_565 S
H1563 C1539 0.949 . S
H1564 C1541 0.950 . S
H1565 C1543 0.950 . S
C1566 C1567 1.349 . S
C1566 C1568 1.327 . S
C1566 H1591 0.950 . S
C1567 C1566 1.349 . S
C1567 C1583 1.349 . S
C1568 C1566 1.327 . S
C1568 C1587 1.429 . S
C1568 H1592 0.950 . S
C1569 C1586 1.574 1_556 S
C1569 C1588 1.368 . S
C1569 H1593 0.949 . S
H1570 C1574 0.949 . S
C1571 C1572 1.349 . S
C1571 C1573 1.327 . S
C1571 H1594 0.950 . S
C1572 C1571 1.349 . S
C1572 C1584 1.349 . S
C1573 C1571 1.327 . S
C1573 C1589 1.429 . S
C1573 H1595 0.950 . S
C1574 H1570 0.949 . S
C1574 C1582 1.574 1_554 S
C1574 C1590 1.368 . S
H1575 C1583 0.950 . S
H1576 C1581 0.950 . S
H1577 C1582 0.949 . S
H1578 C1584 0.950 . S
H1579 C1585 0.950 . S
H1580 C1586 0.949 . S
C1581 H1576 0.950 . S
C1581 C1583 1.327 . S
C1581 C1587 1.429 . S
C1582 C1574 1.574 1_556 S
C1582 H1577 0.949 . S
C1582 C1588 1.368 . S
C1583 C1567 1.349 . S
C1583 H1575 0.950 . S
C1583 C1581 1.327 . S
C1584 C1572 1.349 . S
C1584 H1578 0.950 . S
C1584 C1585 1.327 . S
C1585 H1579 0.950 . S
C1585 C1584 1.327 . S
C1585 C1589 1.429 . S
C1586 C1569 1.574 1_554 S
C1586 H1580 0.949 . S
C1586 C1590 1.368 . S
C1587 C1568 1.429 . S
C1587 C1581 1.429 . S
C1587 C1588 1.523 . S
C1588 C1569 1.368 . S
C1588 C1582 1.368 . S
C1588 C1587 1.523 . S
C1589 C1573 1.429 . S
C1589 C1585 1.429 . S
C1589 C1590 1.523 . S
C1590 C1574 1.368 . S
C1590 C1586 1.368 . S
C1590 C1589 1.523 . S
H1591 C1566 0.950 . S
H1592 C1568 0.950 . S
H1593 C1569 0.949 . S
H1594 C1571 0.950 . S
H1595 C1573 0.950 . S
C1596 C1597 1.349 . S
C1596 C1598 1.327 . S
C1596 H1621 0.950 . S
C1597 C1596 1.349 . S
C1597 C1613 1.349 . S
C1598 C1596 1.327 . S
C1598 C1617 1.429 . S
C1598 H1622 0.950 . S
C1599 C1616 1.574 1_554 S
C1599 C1618 1.368 . S
C1599 H1623 0.949 . S
H1600 C1604 0.949 . S
C1601 C1602 1.349 . S
C1601 C1603 1.327 . S
C1601 H1624 0.950 . S
C1602 C1601 1.349 . S
C1602 C1614 1.349 . S
C1603 C1601 1.327 . S
C1603 C1619 1.429 . S
C1603 H1625 0.950 . S
C1604 H1600 0.949 . S
C1604 C1612 1.574 1_556 S
C1604 C1620 1.368 . S
H1605 C1613 0.950 . S
H1606 C1611 0.950 . S
H1607 C1612 0.949 . S
H1608 C1614 0.950 . S
H1609 C1615 0.950 . S
H1610 C1616 0.949 . S
C1611 H1606 0.950 . S
C1611 C1613 1.327 . S
C1611 C1617 1.429 . S
C1612 C1604 1.574 1_554 S
C1612 H1607 0.949 . S
C1612 C1618 1.368 . S
C1613 C1597 1.349 . S
C1613 H1605 0.950 . S
C1613 C1611 1.327 . S
C1614 C1602 1.349 . S
C1614 H1608 0.950 . S
C1614 C1615 1.327 . S
C1615 H1609 0.950 . S
C1615 C1614 1.327 . S
C1615 C1619 1.429 . S
C1616 C1599 1.574 1_556 S
C1616 H1610 0.949 . S
C1616 C1620 1.368 . S
C1617 C1598 1.429 . S
C1617 C1611 1.429 . S
C1617 C1618 1.523 . S
C1618 C1599 1.368 . S
C1618 C1612 1.368 . S
C1618 C1617 1.523 . S
C1619 C1603 1.429 . S
C1619 C1615 1.429 . S
C1619 C1620 1.523 . S
C1620 C1604 1.368 . S
C1620 C1616 1.368 . S
C1620 C1619 1.523 . S
H1621 C1596 0.950 . S
H1622 C1598 0.950 . S
H1623 C1599 0.949 . S
H1624 C1601 0.950 . S
H1625 C1603 0.950 . S
C1626 C1627 1.349 . S
C1626 C1628 1.327 . S
C1626 H1651 0.950 . S
C1627 C1626 1.349 . S
C1627 C1643 1.349 . S
C1628 C1626 1.327 . S
C1628 C1647 1.429 . S
C1628 H1652 0.950 . S
C1629 C1646 1.574 1_554 S
C1629 C1648 1.368 . S
C1629 H1653 0.940 1_545 S
H1630 C1634 0.949 . S
C1631 C1632 1.349 . S
C1631 C1633 1.327 . S
C1631 H1654 0.929 1_545 S
C1632 C1631 1.349 . S
C1632 C1644 1.349 . S
C1633 C1631 1.327 . S
C1633 C1649 1.429 . S
C1633 H1655 0.925 1_545 S
C1634 H1630 0.949 . S
C1634 C1642 1.574 1_556 S
C1634 C1650 1.368 . S
H1635 C1643 0.977 . S
H1636 C1641 0.947 . S
H1637 C1642 0.949 . S
H1638 C1644 0.950 . S
H1639 C1645 0.950 . S
H1640 C1646 0.929 1_565 S
C1641 H1636 0.947 . S
C1641 C1643 1.327 . S
C1641 C1647 1.429 . S
C1642 C1634 1.574 1_554 S
C1642 H1637 0.949 . S
C1642 C1648 1.368 . S
C1643 C1627 1.349 . S
C1643 H1635 0.977 . S
C1643 C1641 1.327 . S
C1644 C1632 1.349 . S
C1644 H1638 0.950 . S
C1644 C1645 1.327 . S
C1645 H1639 0.950 . S
C1645 C1644 1.327 . S
C1645 C1649 1.429 . S
C1646 C1629 1.574 1_556 S
C1646 H1640 0.929 1_545 S
C1646 C1650 1.368 . S
C1647 C1628 1.429 . S
C1647 C1641 1.429 . S
C1647 C1648 1.523 . S
C1648 C1629 1.368 . S
C1648 C1642 1.368 . S
C1648 C1647 1.523 . S
C1649 C1633 1.429 . S
C1649 C1645 1.429 . S
C1649 C1650 1.523 . S
C1650 C1634 1.368 . S
C1650 C1646 1.368 . S
C1650 C1649 1.523 . S
H1651 C1626 0.950 . S
H1652 C1628 0.950 . S
H1653 C1629 0.940 1_565 S
H1654 C1631 0.929 1_565 S
H1655 C1633 0.925 1_565 S
C1656 C1657 1.349 . S
C1656 C1658 1.327 . S
C1656 H1681 0.950 . S
C1657 C1656 1.349 . S
C1657 C1673 1.349 . S
C1658 C1656 1.327 . S
C1658 C1677 1.429 . S
C1658 H1682 0.950 . S
C1659 C1676 1.574 . S
C1659 C1678 1.368 . S
C1659 H1683 0.949 . S
H1660 C1664 0.949 . S
C1661 C1662 1.349 . S
C1661 C1663 1.327 . S
C1661 H1684 0.950 . S
C1662 C1661 1.349 . S
C1662 C1674 1.349 . S
C1663 C1661 1.327 . S
C1663 C1679 1.429 . S
C1663 H1685 0.950 . S
C1664 H1660 0.949 . S
C1664 C1672 1.574 . S
C1664 C1680 1.368 . S
H1665 C1673 0.950 . S
H1666 C1671 0.950 . S
H1667 C1672 0.949 . S
H1668 C1674 0.950 . S
H1669 C1675 0.950 . S
H1670 C1676 0.949 . S
C1671 H1666 0.950 . S
C1671 C1673 1.327 . S
C1671 C1677 1.429 . S
C1672 C1664 1.574 . S
C1672 H1667 0.949 . S
C1672 C1678 1.368 . S
C1673 C1657 1.349 . S
C1673 H1665 0.950 . S
C1673 C1671 1.327 . S
C1674 C1662 1.349 . S
C1674 H1668 0.950 . S
C1674 C1675 1.327 . S
C1675 H1669 0.950 . S
C1675 C1674 1.327 . S
C1675 C1679 1.429 . S
C1676 C1659 1.574 . S
C1676 H1670 0.949 . S
C1676 C1680 1.368 . S
C1677 C1658 1.429 . S
C1677 C1671 1.429 . S
C1677 C1678 1.523 . S
C1678 C1659 1.368 . S
C1678 C1672 1.368 . S
C1678 C1677 1.523 . S
C1679 C1663 1.429 . S
C1679 C1675 1.429 . S
C1679 C1680 1.523 . S
C1680 C1664 1.368 . S
C1680 C1676 1.368 . S
C1680 C1679 1.523 . S
H1681 C1656 0.950 . S
H1682 C1658 0.950 . S
H1683 C1659 0.949 . S
H1684 C1661 0.950 . S
H1685 C1663 0.950 . S
C1686 C1687 1.349 . S
C1686 C1688 1.327 . S
C1686 H1711 0.950 . S
C1687 C1686 1.349 . S
C1687 C1703 1.349 . S
C1688 C1686 1.327 . S
C1688 C1707 1.429 . S
C1688 H1712 0.950 . S
C1689 C1706 1.574 . S
C1689 C1708 1.368 . S
C1689 H1713 0.949 . S
H1690 C1694 0.949 . S
C1691 C1692 1.349 . S
C1691 C1693 1.327 . S
C1691 H1714 0.950 . S
C1692 C1691 1.349 . S
C1692 C1704 1.349 . S
C1693 C1691 1.327 . S
C1693 C1709 1.429 . S
C1693 H1715 0.950 . S
C1694 H1690 0.949 . S
C1694 C1702 1.574 . S
C1694 C1710 1.368 . S
H1695 C1703 0.950 . S
H1696 C1701 0.950 . S
H1697 C1702 0.949 . S
H1698 C1704 0.950 . S
H1699 C1705 0.950 . S
H1700 C1706 0.949 . S
C1701 H1696 0.950 . S
C1701 C1703 1.327 . S
C1701 C1707 1.429 . S
C1702 C1694 1.574 . S
C1702 H1697 0.949 . S
C1702 C1708 1.368 . S
C1703 C1687 1.349 . S
C1703 H1695 0.950 . S
C1703 C1701 1.327 . S
C1704 C1692 1.349 . S
C1704 H1698 0.950 . S
C1704 C1705 1.327 . S
C1705 H1699 0.950 . S
C1705 C1704 1.327 . S
C1705 C1709 1.429 . S
C1706 C1689 1.574 . S
C1706 H1700 0.949 . S
C1706 C1710 1.368 . S
C1707 C1688 1.429 . S
C1707 C1701 1.429 . S
C1707 C1708 1.523 . S
C1708 C1689 1.368 . S
C1708 C1702 1.368 . S
C1708 C1707 1.523 . S
C1709 C1693 1.429 . S
C1709 C1705 1.429 . S
C1709 C1710 1.523 . S
C1710 C1694 1.368 . S
C1710 C1706 1.368 . S
C1710 C1709 1.523 . S
H1711 C1686 0.950 . S
H1712 C1688 0.950 . S
H1713 C1689 0.949 . S
H1714 C1691 0.950 . S
H1715 C1693 0.950 . S
C1716 C1717 1.349 . S
C1716 C1718 1.327 . S
C1716 H1741 0.950 . S
C1717 C1716 1.349 . S
C1717 C1733 1.349 . S
C1718 C1716 1.327 . S
C1718 C1737 1.429 . S
C1718 H1742 0.950 . S
C1719 C1736 1.574 . S
C1719 C1738 1.368 . S
C1719 H1743 0.949 . S
H1720 C1724 0.949 . S
C1721 C1722 1.349 . S
C1721 C1723 1.327 . S
C1721 H1744 0.950 . S
C1722 C1721 1.349 . S
C1722 C1734 1.349 . S
C1723 C1721 1.327 . S
C1723 C1739 1.429 . S
C1723 H1745 0.950 . S
C1724 H1720 0.949 . S
C1724 C1732 1.574 . S
C1724 C1740 1.368 . S
H1725 C1733 0.950 . S
H1726 C1731 0.950 . S
H1727 C1732 0.949 . S
H1728 C1734 0.950 . S
H1729 C1735 0.950 . S
H1730 C1736 0.949 . S
C1731 H1726 0.950 . S
C1731 C1733 1.327 . S
C1731 C1737 1.429 . S
C1732 C1724 1.574 . S
C1732 H1727 0.949 . S
C1732 C1738 1.368 . S
C1733 C1717 1.349 . S
C1733 H1725 0.950 . S
C1733 C1731 1.327 . S
C1734 C1722 1.349 . S
C1734 H1728 0.950 . S
C1734 C1735 1.327 . S
C1735 H1729 0.950 . S
C1735 C1734 1.327 . S
C1735 C1739 1.429 . S
C1736 C1719 1.574 . S
C1736 H1730 0.949 . S
C1736 C1740 1.368 . S
C1737 C1718 1.429 . S
C1737 C1731 1.429 . S
C1737 C1738 1.523 . S
C1738 C1719 1.368 . S
C1738 C1732 1.368 . S
C1738 C1737 1.523 . S
C1739 C1723 1.429 . S
C1739 C1735 1.429 . S
C1739 C1740 1.523 . S
C1740 C1724 1.368 . S
C1740 C1736 1.368 . S
C1740 C1739 1.523 . S
H1741 C1716 0.950 . S
H1742 C1718 0.950 . S
H1743 C1719 0.949 . S
H1744 C1721 0.950 . S
H1745 C1723 0.950 . S
C1746 C1747 1.349 . S
C1746 C1748 1.327 . S
C1746 H1771 0.950 . S
C1747 C1746 1.349 . S
C1747 C1763 1.349 . S
C1748 C1746 1.327 . S
C1748 C1767 1.429 . S
C1748 H1772 0.950 . S
C1749 C1766 1.574 . S
C1749 C1768 1.368 . S
C1749 H1773 0.949 . S
H1750 C1754 0.949 . S
C1751 C1752 1.349 . S
C1751 C1753 1.327 . S
C1751 H1774 0.950 . S
C1752 C1751 1.349 . S
C1752 C1764 1.349 . S
C1753 C1751 1.327 . S
C1753 C1769 1.429 . S
C1753 H1775 0.950 . S
C1754 H1750 0.949 . S
C1754 C1762 1.574 . S
C1754 C1770 1.368 . S
H1755 C1763 0.950 . S
H1756 C1761 0.950 . S
H1757 C1762 0.949 . S
H1758 C1764 0.950 . S
H1759 C1765 0.950 . S
H1760 C1766 0.949 . S
C1761 H1756 0.950 . S
C1761 C1763 1.327 . S
C1761 C1767 1.429 . S
C1762 C1754 1.574 . S
C1762 H1757 0.949 . S
C1762 C1768 1.368 . S
C1763 C1747 1.349 . S
C1763 H1755 0.950 . S
C1763 C1761 1.327 . S
C1764 C1752 1.349 . S
C1764 H1758 0.950 . S
C1764 C1765 1.327 . S
C1765 H1759 0.950 . S
C1765 C1764 1.327 . S
C1765 C1769 1.429 . S
C1766 C1749 1.574 . S
C1766 H1760 0.949 . S
C1766 C1770 1.368 . S
C1767 C1748 1.429 . S
C1767 C1761 1.429 . S
C1767 C1768 1.523 . S
C1768 C1749 1.368 . S
C1768 C1762 1.368 . S
C1768 C1767 1.523 . S
C1769 C1753 1.429 . S
C1769 C1765 1.429 . S
C1769 C1770 1.523 . S
C1770 C1754 1.368 . S
C1770 C1766 1.368 . S
C1770 C1769 1.523 . S
H1771 C1746 0.950 . S
H1772 C1748 0.950 . S
H1773 C1749 0.949 . S
H1774 C1751 0.950 . S
H1775 C1753 0.950 . S
C1776 C1777 1.349 . S
C1776 C1778 1.327 . S
C1776 H1801 0.950 . S
C1777 C1776 1.349 . S
C1777 C1793 1.349 . S
C1778 C1776 1.327 . S
C1778 C1797 1.429 . S
C1778 H1802 0.950 . S
C1779 C1796 1.574 . S
C1779 C1798 1.368 . S
C1779 H1803 0.949 . S
H1780 C1784 0.949 . S
C1781 C1782 1.349 . S
C1781 C1783 1.327 . S
C1781 H1804 0.950 . S
C1782 C1781 1.349 . S
C1782 C1794 1.349 . S
C1783 C1781 1.327 . S
C1783 C1799 1.429 . S
C1783 H1805 0.950 . S
C1784 H1780 0.949 . S
C1784 C1792 1.574 . S
C1784 C1800 1.368 . S
H1785 C1793 0.950 . S
H1786 C1791 0.950 . S
H1787 C1792 0.949 . S
H1788 C1794 0.950 . S
H1789 C1795 0.950 . S
H1790 C1796 0.949 . S
C1791 H1786 0.950 . S
C1791 C1793 1.327 . S
C1791 C1797 1.429 . S
C1792 C1784 1.574 . S
C1792 H1787 0.949 . S
C1792 C1798 1.368 . S
C1793 C1777 1.349 . S
C1793 H1785 0.950 . S
C1793 C1791 1.327 . S
C1794 C1782 1.349 . S
C1794 H1788 0.950 . S
C1794 C1795 1.327 . S
C1795 H1789 0.950 . S
C1795 C1794 1.327 . S
C1795 C1799 1.429 . S
C1796 C1779 1.574 . S
C1796 H1790 0.949 . S
C1796 C1800 1.368 . S
C1797 C1778 1.429 . S
C1797 C1791 1.429 . S
C1797 C1798 1.523 . S
C1798 C1779 1.368 . S
C1798 C1792 1.368 . S
C1798 C1797 1.523 . S
C1799 C1783 1.429 . S
C1799 C1795 1.429 . S
C1799 C1800 1.523 . S
C1800 C1784 1.368 . S
C1800 C1796 1.368 . S
C1800 C1799 1.523 . S
H1801 C1776 0.950 . S
H1802 C1778 0.950 . S
H1803 C1779 0.949 . S
H1804 C1781 0.950 . S
H1805 C1783 0.950 . S
C1806 C1807 1.349 . S
C1806 C1808 1.327 . S
C1806 H1831 0.950 . S
C1807 C1806 1.349 . S
C1807 C1823 1.349 . S
C1808 C1806 1.327 . S
C1808 C1827 1.429 . S
C1808 H1832 0.950 . S
C1809 C1826 1.574 . S
C1809 C1828 1.368 . S
C1809 H1833 0.949 . S
H1810 C1814 0.949 . S
C1811 C1812 1.349 . S
C1811 C1813 1.327 . S
C1811 H1834 0.950 . S
C1812 C1811 1.349 . S
C1812 C1824 1.349 . S
C1813 C1811 1.327 . S
C1813 C1829 1.429 . S
C1813 H1835 0.950 . S
C1814 H1810 0.949 . S
C1814 C1822 1.574 . S
C1814 C1830 1.368 . S
H1815 C1823 0.950 . S
H1816 C1821 0.950 . S
H1817 C1822 0.949 . S
H1818 C1824 0.950 . S
H1819 C1825 0.950 . S
H1820 C1826 0.949 . S
C1821 H1816 0.950 . S
C1821 C1823 1.327 . S
C1821 C1827 1.429 . S
C1822 C1814 1.574 . S
C1822 H1817 0.949 . S
C1822 C1828 1.368 . S
C1823 C1807 1.349 . S
C1823 H1815 0.950 . S
C1823 C1821 1.327 . S
C1824 C1812 1.349 . S
C1824 H1818 0.950 . S
C1824 C1825 1.327 . S
C1825 H1819 0.950 . S
C1825 C1824 1.327 . S
C1825 C1829 1.429 . S
C1826 C1809 1.574 . S
C1826 H1820 0.949 . S
C1826 C1830 1.368 . S
C1827 C1808 1.429 . S
C1827 C1821 1.429 . S
C1827 C1828 1.523 . S
C1828 C1809 1.368 . S
C1828 C1822 1.368 . S
C1828 C1827 1.523 . S
C1829 C1813 1.429 . S
C1829 C1825 1.429 . S
C1829 C1830 1.523 . S
C1830 C1814 1.368 . S
C1830 C1826 1.368 . S
C1830 C1829 1.523 . S
H1831 C1806 0.950 . S
H1832 C1808 0.950 . S
H1833 C1809 0.949 . S
H1834 C1811 0.950 . S
H1835 C1813 0.950 . S
C1836 C1837 1.349 . S
C1836 C1838 1.327 . S
C1836 H1861 0.950 . S
C1837 C1836 1.349 . S
C1837 C1853 1.349 . S
C1838 C1836 1.327 . S
C1838 C1857 1.429 . S
C1838 H1862 0.950 . S
C1839 C1856 1.574 . S
C1839 C1858 1.368 . S
C1839 H1863 0.949 . S
H1840 C1844 0.949 . S
C1841 C1842 1.349 . S
C1841 C1843 1.327 . S
C1841 H1864 0.950 . S
C1842 C1841 1.349 . S
C1842 C1854 1.349 . S
C1843 C1841 1.327 . S
C1843 C1859 1.429 . S
C1843 H1865 0.950 . S
C1844 H1840 0.949 . S
C1844 C1852 1.574 . S
C1844 C1860 1.368 . S
H1845 C1853 0.950 . S
H1846 C1851 0.950 . S
H1847 C1852 0.949 . S
H1848 C1854 0.950 . S
H1849 C1855 0.950 . S
H1850 C1856 0.949 . S
C1851 H1846 0.950 . S
C1851 C1853 1.327 . S
C1851 C1857 1.429 . S
C1852 C1844 1.574 . S
C1852 H1847 0.949 . S
C1852 C1858 1.368 . S
C1853 C1837 1.349 . S
C1853 H1845 0.950 . S
C1853 C1851 1.327 . S
C1854 C1842 1.349 . S
C1854 H1848 0.950 . S
C1854 C1855 1.327 . S
C1855 H1849 0.950 . S
C1855 C1854 1.327 . S
C1855 C1859 1.429 . S
C1856 C1839 1.574 . S
C1856 H1850 0.949 . S
C1856 C1860 1.368 . S
C1857 C1838 1.429 . S
C1857 C1851 1.429 . S
C1857 C1858 1.523 . S
C1858 C1839 1.368 . S
C1858 C1852 1.368 . S
C1858 C1857 1.523 . S
C1859 C1843 1.429 . S
C1859 C1855 1.429 . S
C1859 C1860 1.523 . S
C1860 C1844 1.368 . S
C1860 C1856 1.368 . S
C1860 C1859 1.523 . S
H1861 C1836 0.950 . S
H1862 C1838 0.950 . S
H1863 C1839 0.949 . S
H1864 C1841 0.950 . S
H1865 C1843 0.950 . S
C1866 C1867 1.349 . S
C1866 C1868 1.327 . S
C1866 H1891 0.950 . S
C1867 C1866 1.349 . S
C1867 C1883 1.349 . S
C1868 C1866 1.327 . S
C1868 C1887 1.429 . S
C1868 H1892 0.950 . S
C1869 C1886 1.574 . S
C1869 C1888 1.368 . S
C1869 H1893 0.949 . S
H1870 C1874 0.949 . S
C1871 C1872 1.349 . S
C1871 C1873 1.327 . S
C1871 H1894 0.950 . S
C1872 C1871 1.349 . S
C1872 C1884 1.349 . S
C1873 C1871 1.327 . S
C1873 C1889 1.429 . S
C1873 H1895 0.950 . S
C1874 H1870 0.949 . S
C1874 C1882 1.574 . S
C1874 C1890 1.368 . S
H1875 C1883 0.950 . S
H1876 C1881 0.950 . S
H1877 C1882 0.949 . S
H1878 C1884 0.950 . S
H1879 C1885 0.950 . S
H1880 C1886 0.949 . S
C1881 H1876 0.950 . S
C1881 C1883 1.327 . S
C1881 C1887 1.429 . S
C1882 C1874 1.574 . S
C1882 H1877 0.949 . S
C1882 C1888 1.368 . S
C1883 C1867 1.349 . S
C1883 H1875 0.950 . S
C1883 C1881 1.327 . S
C1884 C1872 1.349 . S
C1884 H1878 0.950 . S
C1884 C1885 1.327 . S
C1885 H1879 0.950 . S
C1885 C1884 1.327 . S
C1885 C1889 1.429 . S
C1886 C1869 1.574 . S
C1886 H1880 0.949 . S
C1886 C1890 1.368 . S
C1887 C1868 1.429 . S
C1887 C1881 1.429 . S
C1887 C1888 1.523 . S
C1888 C1869 1.368 . S
C1888 C1882 1.368 . S
C1888 C1887 1.523 . S
C1889 C1873 1.429 . S
C1889 C1885 1.429 . S
C1889 C1890 1.523 . S
C1890 C1874 1.368 . S
C1890 C1886 1.368 . S
C1890 C1889 1.523 . S
H1891 C1866 0.950 . S
H1892 C1868 0.950 . S
H1893 C1869 0.949 . S
H1894 C1871 0.950 . S
H1895 C1873 0.950 . S
C1896 C1897 1.349 . S
C1896 C1898 1.327 . S
C1896 H1921 0.950 . S
C1897 C1896 1.349 . S
C1897 C1913 1.349 . S
C1898 C1896 1.327 . S
C1898 C1917 1.429 . S
C1898 H1922 0.950 . S
C1899 C1916 1.574 . S
C1899 C1918 1.368 . S
C1899 H1923 0.949 . S
H1900 C1904 0.949 . S
C1901 C1902 1.349 . S
C1901 C1903 1.327 . S
C1901 H1924 0.950 . S
C1902 C1901 1.349 . S
C1902 C1914 1.349 . S
C1903 C1901 1.327 . S
C1903 C1919 1.429 . S
C1903 H1925 0.950 . S
C1904 H1900 0.949 . S
C1904 C1912 1.574 . S
C1904 C1920 1.368 . S
H1905 C1913 0.950 . S
H1906 C1911 0.950 . S
H1907 C1912 0.949 . S
H1908 C1914 0.950 . S
H1909 C1915 0.950 . S
H1910 C1916 0.949 . S
C1911 H1906 0.950 . S
C1911 C1913 1.327 . S
C1911 C1917 1.429 . S
C1912 C1904 1.574 . S
C1912 H1907 0.949 . S
C1912 C1918 1.368 . S
C1913 C1897 1.349 . S
C1913 H1905 0.950 . S
C1913 C1911 1.327 . S
C1914 C1902 1.349 . S
C1914 H1908 0.950 . S
C1914 C1915 1.327 . S
C1915 H1909 0.950 . S
C1915 C1914 1.327 . S
C1915 C1919 1.429 . S
C1916 C1899 1.574 . S
C1916 H1910 0.949 . S
C1916 C1920 1.368 . S
C1917 C1898 1.429 . S
C1917 C1911 1.429 . S
C1917 C1918 1.523 . S
C1918 C1899 1.368 . S
C1918 C1912 1.368 . S
C1918 C1917 1.523 . S
C1919 C1903 1.429 . S
C1919 C1915 1.429 . S
C1919 C1920 1.523 . S
C1920 C1904 1.368 . S
C1920 C1916 1.368 . S
C1920 C1919 1.523 . S
H1921 C1896 0.950 . S
H1922 C1898 0.950 . S
H1923 C1899 0.949 . S
H1924 C1901 0.950 . S
H1925 C1903 0.950 . S
C1926 C1927 1.349 . S
C1926 C1928 1.327 . S
C1926 H1951 0.950 . S
C1927 C1926 1.349 . S
C1927 C1943 1.349 . S
C1928 C1926 1.327 . S
C1928 C1947 1.429 . S
C1928 H1952 0.950 . S
C1929 C1946 1.574 . S
C1929 C1948 1.368 . S
C1929 H1953 0.949 . S
H1930 C1934 0.949 . S
C1931 C1932 1.349 . S
C1931 C1933 1.327 . S
C1931 H1954 0.950 . S
C1932 C1931 1.349 . S
C1932 C1944 1.349 . S
C1933 C1931 1.327 . S
C1933 C1949 1.429 . S
C1933 H1955 0.950 . S
C1934 H1930 0.949 . S
C1934 C1942 1.574 . S
C1934 C1950 1.368 . S
H1935 C1943 0.950 . S
H1936 C1941 0.950 . S
H1937 C1942 0.949 . S
H1938 C1944 0.950 . S
H1939 C1945 0.950 . S
H1940 C1946 0.949 . S
C1941 H1936 0.950 . S
C1941 C1943 1.327 . S
C1941 C1947 1.429 . S
C1942 C1934 1.574 . S
C1942 H1937 0.949 . S
C1942 C1948 1.368 . S
C1943 C1927 1.349 . S
C1943 H1935 0.950 . S
C1943 C1941 1.327 . S
C1944 C1932 1.349 . S
C1944 H1938 0.950 . S
C1944 C1945 1.327 . S
C1945 H1939 0.950 . S
C1945 C1944 1.327 . S
C1945 C1949 1.429 . S
C1946 C1929 1.574 . S
C1946 H1940 0.949 . S
C1946 C1950 1.368 . S
C1947 C1928 1.429 . S
C1947 C1941 1.429 . S
C1947 C1948 1.523 . S
C1948 C1929 1.368 . S
C1948 C1942 1.368 . S
C1948 C1947 1.523 . S
C1949 C1933 1.429 . S
C1949 C1945 1.429 . S
C1949 C1950 1.523 . S
C1950 C1934 1.368 . S
C1950 C1946 1.368 . S
C1950 C1949 1.523 . S
H1951 C1926 0.950 . S
H1952 C1928 0.950 . S
H1953 C1929 0.949 . S
H1954 C1931 0.950 . S
H1955 C1933 0.950 . S
C1956 C1957 1.349 . S
C1956 C1958 1.327 . S
C1956 H1981 0.950 . S
C1957 C1956 1.349 . S
C1957 C1973 1.349 . S
C1958 C1956 1.327 . S
C1958 C1977 1.429 . S
C1958 H1982 0.950 . S
C1959 C1976 1.574 . S
C1959 C1978 1.368 . S
C1959 H1983 0.949 . S
H1960 C1964 0.949 . S
C1961 C1962 1.349 . S
C1961 C1963 1.327 . S
C1961 H1984 0.950 . S
C1962 C1961 1.349 . S
C1962 C1974 1.349 . S
C1963 C1961 1.327 . S
C1963 C1979 1.429 . S
C1963 H1985 0.950 . S
C1964 H1960 0.949 . S
C1964 C1972 1.574 . S
C1964 C1980 1.368 . S
H1965 C1973 0.950 . S
H1966 C1971 0.950 . S
H1967 C1972 0.949 . S
H1968 C1974 0.950 . S
H1969 C1975 0.950 . S
H1970 C1976 0.949 . S
C1971 H1966 0.950 . S
C1971 C1973 1.327 . S
C1971 C1977 1.429 . S
C1972 C1964 1.574 . S
C1972 H1967 0.949 . S
C1972 C1978 1.368 . S
C1973 C1957 1.349 . S
C1973 H1965 0.950 . S
C1973 C1971 1.327 . S
C1974 C1962 1.349 . S
C1974 H1968 0.950 . S
C1974 C1975 1.327 . S
C1975 H1969 0.950 . S
C1975 C1974 1.327 . S
C1975 C1979 1.429 . S
C1976 C1959 1.574 . S
C1976 H1970 0.949 . S
C1976 C1980 1.368 . S
C1977 C1958 1.429 . S
C1977 C1971 1.429 . S
C1977 C1978 1.523 . S
C1978 C1959 1.368 . S
C1978 C1972 1.368 . S
C1978 C1977 1.523 . S
C1979 C1963 1.429 . S
C1979 C1975 1.429 . S
C1979 C1980 1.523 . S
C1980 C1964 1.368 . S
C1980 C1976 1.368 . S
C1980 C1979 1.523 . S
H1981 C1956 0.950 . S
H1982 C1958 0.950 . S
H1983 C1959 0.949 . S
H1984 C1961 0.950 . S
H1985 C1963 0.950 . S
C1986 C1987 1.349 . S
C1986 C1988 1.327 . S
C1986 H2011 0.950 . S
C1987 C1986 1.349 . S
C1987 C2003 1.349 . S
C1988 C1986 1.327 . S
C1988 C2007 1.429 . S
C1988 H2012 0.950 . S
C1989 C2006 1.574 . S
C1989 C2008 1.368 . S
C1989 H2013 0.949 . S
H1990 C1994 0.949 . S
C1991 C1992 1.349 . S
C1991 C1993 1.327 . S
C1991 H2014 0.950 . S
C1992 C1991 1.349 . S
C1992 C2004 1.349 . S
C1993 C1991 1.327 . S
C1993 C2009 1.429 . S
C1993 H2015 0.950 . S
C1994 H1990 0.949 . S
C1994 C2002 1.574 . S
C1994 C2010 1.368 . S
H1995 C2003 0.950 . S
H1996 C2001 0.950 . S
H1997 C2002 0.949 . S
H1998 C2004 0.950 . S
H1999 C2005 0.950 . S
H2000 C2006 0.949 . S
C2001 H1996 0.950 . S
C2001 C2003 1.327 . S
C2001 C2007 1.429 . S
C2002 C1994 1.574 . S
C2002 H1997 0.949 . S
C2002 C2008 1.368 . S
C2003 C1987 1.349 . S
C2003 H1995 0.950 . S
C2003 C2001 1.327 . S
C2004 C1992 1.349 . S
C2004 H1998 0.950 . S
C2004 C2005 1.327 . S
C2005 H1999 0.950 . S
C2005 C2004 1.327 . S
C2005 C2009 1.429 . S
C2006 C1989 1.574 . S
C2006 H2000 0.949 . S
C2006 C2010 1.368 . S
C2007 C1988 1.429 . S
C2007 C2001 1.429 . S
C2007 C2008 1.523 . S
C2008 C1989 1.368 . S
C2008 C2002 1.368 . S
C2008 C2007 1.523 . S
C2009 C1993 1.429 . S
C2009 C2005 1.429 . S
C2009 C2010 1.523 . S
C2010 C1994 1.368 . S
C2010 C2006 1.368 . S
C2010 C2009 1.523 . S
H2011 C1986 0.950 . S
H2012 C1988 0.950 . S
H2013 C1989 0.949 . S
H2014 C1991 0.950 . S
H2015 C1993 0.950 . S
C397 C293 1.175 . S
C402 C8 1.186 . S
C427 C32 1.156 . S
C432 C316 1.157 . S
C457 C59 1.208 1_565 S
C462 C279 1.206 . S
C487 C54 1.150 . S
C492 C172 1.150 . S
C517 C184 1.184 . S
C522 C21 1.173 1_655 S
C547 C37 1.188 . S
C552 C150 1.199 . S
C577 C74 1.132 1_655 S
C582 C228 1.132 . S
C607 C98 1.148 . S
C612 C250 1.148 . S
C637 C206 1.182 . S
C642 C131 1.171 . S
C667 C362 1.157 . S
C672 C118 1.157 1_565 S
C697 C87 1.206 . S
C702 C395 1.205 . S
C727 C338 1.187 . S
C732 C103 1.176 . S
C757 C197 1.179 . S
C762 C304 1.190 . S
C787 C139 1.213 . S
C792 C329 1.212 . S
C817 C161 1.164 . S
C822 C274 1.175 . S
C847 C219 1.229 . S
C852 C367 1.229 . S
C877 C382 1.192 . S
C882 C241 1.180 . S
C907 C351 1.216 . S
C912 C263 1.215 . S
C937 C18 1.545 . S
C942 C95 1.539 . S
C967 C128 1.547 . S
C972 C30 1.547 . S
C997 C81 1.537 . S
C1002 C51 1.537 . S
C1027 C96 1.550 . S
C1032 C52 1.550 . S
C1057 C125 1.586 . S
C1062 C15 1.586 . S
C1087 C84 1.572 . S
C1092 C29 1.564 . S
C1117 C238 1.544 . S
C1122 C142 1.543 . S
C1147 C260 1.564 . S
C1152 C164 1.564 . S
C1177 C216 1.522 . S
C1182 C194 1.522 . S
C1207 C235 1.584 . S
C1212 C191 1.584 . S
C1237 C257 1.543 . S
C1242 C153 1.543 . S
C1267 C213 1.563 . S
C1272 C175 1.565 . S
C1297 C359 1.536 . S
C1302 C272 1.543 . S
C1327 C392 1.521 . S
C1332 C296 1.521 . S
C1357 C323 1.557 . S
C1362 C345 1.557 . S
C1387 C326 1.570 . S
C1392 C360 1.570 . S
C1417 C271 1.560 . S
C1422 C389 1.560 . S
C1447 C348 1.569 . S
C1452 C307 1.562 . S
C1477 C10 1.425 . S
C1482 C7 1.426 . S
C1507 C40 1.426 . S
C1512 C43 1.427 . S
C1537 C65 1.426 . S
C1542 C62 1.426 . S
C1567 C76 1.425 . S
C1572 C73 1.426 . S
C1597 C109 1.427 . S
C1602 C106 1.425 . S
C1627 C120 1.425 . S
C1632 C117 1.426 . S
C1657 C147 1.426 1_554 S
C1662 C140 1.425 . S
C1687 C162 1.425 . S
C1692 C169 1.427 1_554 S
C1717 C183 1.427 1_554 S
C1722 C186 1.425 . S
C1747 C205 1.426 1_554 S
C1752 C208 1.425 . S
C1777 C227 1.427 1_554 S
C1782 C230 1.425 . S
C1807 C249 1.426 1_554 S
C1812 C252 1.425 . S
C1837 C285 1.426 . S
C1842 C282 1.425 1_556 S
C1867 C294 1.425 1_556 S
C1872 C301 1.428 . S
C1897 C315 1.426 1_556 S
C1902 C318 1.425 . S
C1927 C337 1.426 1_556 S
C1932 C340 1.425 . S
C1957 C373 1.427 1_556 S
C1962 C370 1.426 . S
C1987 C381 1.427 . S
C1992 C384 1.425 1_556 S
