# Generated by pormake.
# Topology sow, (4)-cn, num edge types: 1
# Building blocks:
#     Node 0, Type 0, BuildingBlock: MUDLON_clean_sbu_0, # of connection points: 4
#     Node 1, Type 0, BuildingBlock: MUDLON_clean_sbu_0, # of connection points: 4
#     Node 2, Type 0, BuildingBlock: MUDLON_clean_sbu_0, # of connection points: 4
#     Node 3, Type 0, BuildingBlock: MUDLON_clean_sbu_0, # of connection points: 4
#     Node 4, Type 0, BuildingBlock: MUDLON_clean_sbu_0, # of connection points: 4
#     Node 5, Type 0, BuildingBlock: MUDLON_clean_sbu_0, # of connection points: 4
#     Node 6, Type 0, BuildingBlock: MUDLON_clean_sbu_0, # of connection points: 4
#     Node 7, Type 0, BuildingBlock: MUDLON_clean_sbu_0, # of connection points: 4
#     Edge 8, Type (0, 0), BuildingBlock: UVAHIK_clean_linker_0, # of connection points: 2
#     Edge 9, Type (0, 0), BuildingBlock: UVAHIK_clean_linker_0, # of connection points: 2
#     Edge 10, Type (0, 0), BuildingBlock: UVAHIK_clean_linker_0, # of connection points: 2
#     Edge 11, Type (0, 0), BuildingBlock: UVAHIK_clean_linker_0, # of connection points: 2
#     Edge 12, Type (0, 0), BuildingBlock: UVAHIK_clean_linker_0, # of connection points: 2
#     Edge 13, Type (0, 0), BuildingBlock: UVAHIK_clean_linker_0, # of connection points: 2
#     Edge 14, Type (0, 0), BuildingBlock: UVAHIK_clean_linker_0, # of connection points: 2
#     Edge 15, Type (0, 0), BuildingBlock: UVAHIK_clean_linker_0, # of connection points: 2
#     Edge 16, Type (0, 0), BuildingBlock: UVAHIK_clean_linker_0, # of connection points: 2
#     Edge 17, Type (0, 0), BuildingBlock: UVAHIK_clean_linker_0, # of connection points: 2
#     Edge 18, Type (0, 0), BuildingBlock: UVAHIK_clean_linker_0, # of connection points: 2
#     Edge 19, Type (0, 0), BuildingBlock: UVAHIK_clean_linker_0, # of connection points: 2
#     Edge 20, Type (0, 0), BuildingBlock: UVAHIK_clean_linker_0, # of connection points: 2
#     Edge 21, Type (0, 0), BuildingBlock: UVAHIK_clean_linker_0, # of connection points: 2
#     Edge 22, Type (0, 0), BuildingBlock: UVAHIK_clean_linker_0, # of connection points: 2
#     Edge 23, Type (0, 0), BuildingBlock: UVAHIK_clean_linker_0, # of connection points: 2
# Relax obj value: 0.167
# Max RMSD: 0.252
# Mean RMSD: 0.252
data_MOF--net-sow--node1-MUDLON_clean_sbu_0--edge1-UVAHIK_clean_linker_0
_symmetry_space_group_name_H-M    P1
_symmetry_Int_Tables_number       1
_symmetry_cell_setting            triclinic
loop_
_symmetry_equiv_pos_as_xyz
'x, y, z'
_cell_length_a     53.252559
_cell_length_b     30.806525
_cell_length_c     31.875572
_cell_angle_alpha  89.947319
_cell_angle_beta   90.032631
_cell_angle_gamma 90.058554
loop_
_atom_site_label
_atom_site_type_symbol
_atom_site_fract_x
_atom_site_fract_y
_atom_site_fract_z
_atom_type_partial_charge
Mg0 Mg 0.15158 0.19537 0.10169 0.0
C1 C 0.10625 0.25436 0.10839 0.0
O2 O 0.10007 0.23406 0.07365 0.0
C3 C 0.17802 0.24909 0.03262 0.0
O4 O 0.17182 0.28258 0.0559 0.0
C5 C 0.11813 0.13533 0.05283 0.0
O6 O 0.12635 0.16086 0.02278 0.0
O7 O 0.1265 0.14072 0.08987 0.0
O8 O 0.12758 0.24696 0.12475 0.0
O9 O 0.17843 0.18341 0.15195 0.0
C10 C 0.19032 0.21689 0.16428 0.0
O11 O 0.18606 0.25401 0.14523 0.0
O12 O 0.17175 0.21112 0.04432 0.0
Mg13 Mg 0.37302 0.29613 0.60172 0.0
C14 C 0.41908 0.23897 0.60871 0.0
O15 O 0.42493 0.25952 0.57393 0.0
C16 C 0.34672 0.24182 0.53279 0.0
O17 O 0.35295 0.2084 0.5562 0.0
C18 C 0.40576 0.35715 0.55262 0.0
O19 O 0.39788 0.3312 0.52268 0.0
O20 O 0.39744 0.35159 0.58967 0.0
O21 O 0.39764 0.24545 0.62503 0.0
O22 O 0.3461 0.3076 0.65188 0.0
C23 C 0.33431 0.27401 0.66425 0.0
O24 O 0.3387 0.23692 0.64533 0.0
O25 O 0.35294 0.27984 0.54437 0.0
Mg26 Mg 0.65566 0.2967 0.9233 0.0
C27 C 0.62955 0.24583 0.85687 0.0
O28 O 0.6452 0.26959 0.83478 0.0
C29 C 0.67954 0.23994 0.99334 0.0
O30 O 0.67577 0.20752 0.96733 0.0
C31 C 0.61362 0.34446 0.96124 0.0
O32 O 0.61199 0.30551 0.9779 0.0
O33 O 0.63148 0.35218 0.93577 0.0
O34 O 0.63035 0.24831 0.8967 0.0
O35 O 0.68498 0.30993 0.87701 0.0
C36 C 0.69987 0.27875 0.86895 0.0
O37 O 0.69751 0.24253 0.89036 0.0
O38 O 0.67275 0.27801 0.98281 0.0
Mg39 Mg 0.87329 0.19429 0.42279 0.0
C40 C 0.89708 0.25132 0.35771 0.0
O41 O 0.87995 0.23133 0.33522 0.0
C42 C 0.84929 0.24984 0.49323 0.0
O43 O 0.85393 0.28275 0.46816 0.0
C44 C 0.91632 0.14846 0.46049 0.0
O45 O 0.91746 0.18741 0.47718 0.0
O46 O 0.89844 0.14003 0.43523 0.0
O47 O 0.89785 0.24433 0.39705 0.0
O48 O 0.84436 0.1798 0.37614 0.0
C49 C 0.8274 0.20837 0.37086 0.0
O50 O 0.8275 0.24272 0.39524 0.0
O51 O 0.8556 0.21175 0.48204 0.0
Mg52 Mg 0.87078 0.80064 0.92105 0.0
C53 C 0.83019 0.78072 0.86099 0.0
O54 O 0.83199 0.745 0.88336 0.0
C55 C 0.90375 0.86125 0.97039 0.0
O56 O 0.89527 0.83607 1.00052 0.0
C57 C 0.84565 0.74711 0.99161 0.0
O58 O 0.85444 0.71344 0.97108 0.0
O59 O 0.84997 0.78513 0.97781 0.0
O60 O 0.84437 0.81258 0.87021 0.0
O61 O 0.895 0.74898 0.89881 0.0
C62 C 0.9164 0.74281 0.91543 0.0
O63 O 0.92221 0.76419 0.94973 0.0
O64 O 0.89571 0.85543 0.93321 0.0
Mg65 Mg 0.64916 0.70079 0.42128 0.0
C66 C 0.68581 0.7237 0.35561 0.0
O67 O 0.67883 0.76145 0.37075 0.0
C68 C 0.61624 0.63978 0.46991 0.0
O69 O 0.62381 0.66604 0.49982 0.0
C70 C 0.6776 0.75463 0.48806 0.0
O71 O 0.67495 0.78672 0.46126 0.0
O72 O 0.66857 0.71753 0.47919 0.0
O73 O 0.67649 0.68943 0.37161 0.0
O74 O 0.62457 0.75117 0.39722 0.0
C75 C 0.60282 0.75759 0.41235 0.0
O76 O 0.59622 0.73692 0.44669 0.0
O77 O 0.62482 0.64515 0.43301 0.0
Mg78 Mg 0.37456 0.69772 0.09452 0.0
C79 C 0.32715 0.69719 0.14676 0.0
O80 O 0.31964 0.72161 0.11536 0.0
C81 C 0.41723 0.65313 0.05317 0.0
O82 O 0.41817 0.69222 0.0367 0.0
C83 C 0.34916 0.75159 0.0241 0.0
O84 O 0.35864 0.78531 0.04374 0.0
O85 O 0.35316 0.71367 0.03841 0.0
O86 O 0.34908 0.68088 0.14559 0.0
O87 O 0.39924 0.74904 0.11707 0.0
C88 C 0.39556 0.76556 0.15311 0.0
O89 O 0.37491 0.75559 0.17346 0.0
O90 O 0.39982 0.64451 0.07924 0.0
Mg91 Mg 0.15376 0.79121 0.59162 0.0
C92 C 0.18973 0.76898 0.65918 0.0
O93 O 0.18012 0.73126 0.64849 0.0
C94 C 0.11365 0.8405 0.54993 0.0
O95 O 0.11127 0.801 0.53489 0.0
C96 C 0.19234 0.74927 0.53338 0.0
O97 O 0.20513 0.74681 0.56852 0.0
O98 O 0.17032 0.76529 0.53404 0.0
O99 O 0.18261 0.8027 0.63933 0.0
O100 O 0.1265 0.74791 0.62076 0.0
C101 C 0.12162 0.75747 0.65871 0.0
O102 O 0.13332 0.79052 0.67593 0.0
O103 O 0.13151 0.84814 0.57546 0.0
C104 C 0.30495 0.23726 0.71404 0.0
C105 C 0.31702 0.27544 0.7007 0.0
C106 C 0.28971 0.23729 0.74963 0.0
C107 C 0.25322 0.30716 0.82085 0.0
H108 H 0.26075 0.20971 0.89692 0.0
C109 C 0.20231 0.29602 0.98225 0.0
C110 C 0.193 0.25497 0.9938 0.0
C111 C 0.21733 0.30083 0.94645 0.0
C112 C 0.25818 0.23693 0.87582 0.0
H113 H 0.322 0.34398 0.71385 0.0
H114 H 0.29526 0.34397 0.77638 0.0
H115 H 0.28698 0.21425 0.83466 0.0
H116 H 0.19163 0.18701 0.97605 0.0
H117 H 0.2174 0.19548 0.91368 0.0
H118 H 0.22419 0.3296 0.86209 0.0
C119 C 0.29761 0.31404 0.75903 0.0
C120 C 0.27326 0.23955 0.84012 0.0
C121 C 0.31299 0.314 0.72331 0.0
C122 C 0.19864 0.21906 0.96834 0.0
C123 C 0.21358 0.22387 0.93264 0.0
C124 C 0.23802 0.30448 0.85666 0.0
C125 C 0.28609 0.27548 0.77289 0.0
C126 C 0.27076 0.27437 0.8119 0.0
C127 C 0.22336 0.26469 0.92147 0.0
C128 C 0.24012 0.269 0.88429 0.0
H129 H 0.30746 0.20702 0.69726 0.0
H130 H 0.28074 0.20722 0.75896 0.0
H131 H 0.25075 0.33427 0.79958 0.0
H132 H 0.19833 0.32436 1.00118 0.0
H133 H 0.22469 0.33268 0.93891 0.0
C134 C 0.21967 0.25351 0.21417 0.0
C135 C 0.20758 0.21536 0.2008 0.0
C136 C 0.23488 0.25342 0.24982 0.0
C137 C 0.27137 0.18349 0.32114 0.0
H138 H 0.2638 0.28083 0.39714 0.0
C139 C 0.32247 0.19476 0.48249 0.0
C140 C 0.33173 0.23586 0.49397 0.0
C141 C 0.30741 0.18988 0.44672 0.0
C142 C 0.26638 0.25365 0.37606 0.0
H143 H 0.20256 0.14682 0.21396 0.0
H144 H 0.22928 0.14671 0.2766 0.0
H145 H 0.23752 0.27628 0.33489 0.0
H146 H 0.33298 0.30382 0.47607 0.0
H147 H 0.30715 0.29523 0.41376 0.0
H148 H 0.30045 0.16111 0.36239 0.0
C149 C 0.22695 0.17666 0.25922 0.0
C150 C 0.25127 0.25101 0.34037 0.0
C151 C 0.21159 0.17677 0.22345 0.0
C152 C 0.32601 0.27173 0.46843 0.0
C153 C 0.31104 0.26686 0.43277 0.0
C154 C 0.28659 0.18618 0.35695 0.0
C155 C 0.23847 0.21519 0.27311 0.0
C156 C 0.25379 0.21625 0.31216 0.0
C157 C 0.30129 0.226 0.42169 0.0
C158 C 0.28449 0.22164 0.38454 0.0
H159 H 0.21718 0.28378 0.19738 0.0
H160 H 0.24385 0.28346 0.25917 0.0
H161 H 0.27386 0.15642 0.29989 0.0
H162 H 0.32651 0.16644 0.50148 0.0
H163 H 0.30009 0.15801 0.43925 0.0
C164 C 0.81043 0.17156 0.30613 0.0
C165 C 0.80978 0.20621 0.33483 0.0
C166 C 0.79521 0.17209 0.2702 0.0
C167 C 0.76376 0.24943 0.19997 0.0
H168 H 0.72609 0.15005 0.15983 0.0
C169 C 0.69393 0.26644 0.06364 0.0
C170 C 0.69273 0.23296 0.0338 0.0
C171 C 0.70738 0.26097 0.10091 0.0
C172 C 0.73674 0.17796 0.17031 0.0
H173 H 0.79188 0.26778 0.34895 0.0
H174 H 0.76556 0.26862 0.28661 0.0
H175 H 0.75117 0.14381 0.22391 0.0
H176 H 0.70444 0.16707 0.02015 0.0
H177 H 0.7284 0.15781 0.08488 0.0
H178 H 0.7499 0.28352 0.14642 0.0
C179 C 0.77801 0.24129 0.29156 0.0
C180 C 0.75106 0.17437 0.20707 0.0
C181 C 0.79303 0.24064 0.32746 0.0
C182 C 0.70493 0.1935 0.04252 0.0
C183 C 0.71859 0.18812 0.07976 0.0
C184 C 0.74965 0.25294 0.1632 0.0
C185 C 0.77921 0.20744 0.26214 0.0
C186 C 0.76451 0.21025 0.22252 0.0
C187 C 0.72023 0.22201 0.10925 0.0
C188 C 0.73571 0.21744 0.14805 0.0
H189 H 0.82312 0.14453 0.31087 0.0
H190 H 0.79661 0.14558 0.24802 0.0
H191 H 0.77434 0.27742 0.21056 0.0
H192 H 0.68455 0.29711 0.05817 0.0
H193 H 0.70769 0.28745 0.12323 0.0
C194 C 0.73247 0.24446 0.82342 0.0
C195 C 0.71757 0.28075 0.83306 0.0
C196 C 0.74751 0.24409 0.78759 0.0
C197 C 0.77803 0.31265 0.70769 0.0
H198 H 0.77476 0.20761 0.64094 0.0
C199 C 0.82489 0.29668 0.54338 0.0
C200 C 0.83571 0.25636 0.53338 0.0
C201 C 0.81097 0.30184 0.58034 0.0
C202 C 0.77621 0.23698 0.65943 0.0
H203 H 0.70756 0.34585 0.81325 0.0
H204 H 0.73408 0.34521 0.75044 0.0
H205 H 0.75005 0.21311 0.70478 0.0
H206 H 0.84109 0.19029 0.55519 0.0
H207 H 0.81739 0.19946 0.61969 0.0
H208 H 0.80446 0.33631 0.66234 0.0
C209 C 0.73403 0.31706 0.77082 0.0
C210 C 0.76197 0.24016 0.69603 0.0
C211 C 0.7188 0.31737 0.80672 0.0
C212 C 0.83282 0.22169 0.56165 0.0
C213 C 0.81906 0.22689 0.59859 0.0
C214 C 0.79246 0.30937 0.67104 0.0
C215 C 0.74816 0.28003 0.76046 0.0
C216 C 0.76286 0.27782 0.72084 0.0
C217 C 0.80764 0.26682 0.6082 0.0
C218 C 0.7919 0.27129 0.64665 0.0
H219 H 0.73215 0.21578 0.84309 0.0
H220 H 0.75853 0.21537 0.78092 0.0
H221 H 0.77921 0.342 0.72626 0.0
H222 H 0.82672 0.32405 0.52225 0.0
H223 H 0.80229 0.33295 0.58652 0.0
C224 C 0.82114 0.77759 0.05175 0.0
C225 C 0.83007 0.74121 0.02978 0.0
C226 C 0.80573 0.77253 0.08682 0.0
C227 C 0.78578 0.6944 0.1684 0.0
H228 H 0.72995 0.77422 0.17985 0.0
C229 C 0.71024 0.68237 0.30087 0.0
C230 C 0.70322 0.722 0.31934 0.0
C231 C 0.72583 0.68179 0.2654 0.0
C232 C 0.74557 0.75188 0.17732 0.0
H233 H 0.83009 0.67082 0.02803 0.0
H234 H 0.80292 0.662 0.0893 0.0
H235 H 0.75684 0.77852 0.11835 0.0
H236 H 0.70765 0.79196 0.31559 0.0
H237 H 0.73471 0.79085 0.25438 0.0
H238 H 0.77435 0.66792 0.22773 0.0
C239 C 0.80805 0.69447 0.07944 0.0
C240 C 0.76102 0.75437 0.14206 0.0
C241 C 0.82353 0.69954 0.04422 0.0
C242 C 0.71249 0.76084 0.30207 0.0
C243 C 0.72792 0.76025 0.26674 0.0
C244 C 0.77022 0.69186 0.2038 0.0
C245 C 0.79875 0.73096 0.10088 0.0
C246 C 0.78157 0.72618 0.13744 0.0
C247 C 0.73456 0.72083 0.24763 0.0
C248 C 0.75019 0.72109 0.20896 0.0
H249 H 0.82594 0.81018 0.04176 0.0
H250 H 0.79933 0.80134 0.10306 0.0
H251 H 0.80152 0.67235 0.16592 0.0
H252 H 0.70344 0.65187 0.31343 0.0
H253 H 0.73056 0.65089 0.2513 0.0
C254 C 0.69391 0.72662 0.55665 0.0
C255 C 0.69196 0.76074 0.52753 0.0
C256 C 0.70834 0.73133 0.59296 0.0
C257 C 0.73811 0.81257 0.66284 0.0
H258 H 0.77865 0.71405 0.6966 0.0
C259 C 0.81213 0.81867 0.79773 0.0
C260 C 0.8131 0.7822 0.82427 0.0
C261 C 0.79697 0.81838 0.76174 0.0
C262 C 0.76726 0.74173 0.68788 0.0
H263 H 0.7033 0.82699 0.51427 0.0
H264 H 0.72875 0.83506 0.57761 0.0
H265 H 0.75303 0.70929 0.63362 0.0
H266 H 0.79825 0.71739 0.83442 0.0
H267 H 0.77188 0.71706 0.77222 0.0
H268 H 0.75258 0.84498 0.71732 0.0
C269 C 0.7189 0.80476 0.57246 0.0
C270 C 0.75252 0.739 0.65175 0.0
C271 C 0.7044 0.80006 0.53605 0.0
C272 C 0.79814 0.74594 0.81457 0.0
C273 C 0.7831 0.74562 0.77871 0.0
C274 C 0.75295 0.81534 0.69908 0.0
C275 C 0.72127 0.77025 0.60112 0.0
C276 C 0.73754 0.77416 0.63898 0.0
C277 C 0.78257 0.78154 0.75153 0.0
C278 C 0.76748 0.77974 0.71225 0.0
H279 H 0.68443 0.69599 0.55131 0.0
H280 H 0.70932 0.70438 0.61474 0.0
H281 H 0.72665 0.84015 0.65408 0.0
H282 H 0.82341 0.84714 0.80431 0.0
H283 H 0.79706 0.8465 0.74133 0.0
C284 C 0.32273 0.7209 0.96628 0.0
C285 C 0.33332 0.75729 0.98616 0.0
C286 C 0.30728 0.72582 0.93121 0.0
C287 C 0.29053 0.80073 0.84523 0.0
H288 H 0.23129 0.72776 0.83866 0.0
C289 C 0.21618 0.81159 0.71045 0.0
C290 C 0.20732 0.77156 0.69519 0.0
C291 C 0.23168 0.81317 0.74606 0.0
C292 C 0.24786 0.74816 0.8398 0.0
H293 H 0.33617 0.82751 0.98423 0.0
H294 H 0.309 0.8361 0.92282 0.0
H295 H 0.25791 0.72453 0.90058 0.0
H296 H 0.20846 0.7018 0.70471 0.0
H297 H 0.2354 0.70458 0.76601 0.0
H298 H 0.28041 0.82404 0.78402 0.0
C299 C 0.31284 0.80371 0.9344 0.0
C300 C 0.26314 0.74628 0.87534 0.0
C301 C 0.32831 0.79879 0.9697 0.0
C302 C 0.21473 0.73325 0.71571 0.0
C303 C 0.23008 0.73484 0.75112 0.0
C304 C 0.27517 0.80261 0.80951 0.0
C305 C 0.30196 0.76726 0.915 0.0
C306 C 0.28491 0.77193 0.87822 0.0
C307 C 0.23848 0.77477 0.76715 0.0
C308 C 0.25391 0.77571 0.8061 0.0
H309 H 0.32626 0.68842 0.97789 0.0
H310 H 0.2996 0.69698 0.91659 0.0
H311 H 0.30723 0.82078 0.8464 0.0
H312 H 0.21082 0.84169 0.69534 0.0
H313 H 0.23779 0.84446 0.7577 0.0
C314 C 0.32114 0.67422 0.22172 0.0
C315 C 0.31145 0.69324 0.18502 0.0
C316 C 0.30724 0.67459 0.25898 0.0
C317 C 0.24333 0.69057 0.30257 0.0
H318 H 0.27938 0.72643 0.40239 0.0
C319 C 0.19299 0.7463 0.45454 0.0
C320 C 0.20423 0.73623 0.49325 0.0
C321 C 0.20526 0.73674 0.41681 0.0
C322 C 0.26903 0.71565 0.37506 0.0
H323 H 0.27912 0.72602 0.15835 0.0
H324 H 0.25495 0.72664 0.22325 0.0
H325 H 0.3021 0.7163 0.33699 0.0
H326 H 0.23674 0.70658 0.52259 0.0
H327 H 0.25782 0.68913 0.45705 0.0
H328 H 0.2102 0.69016 0.34068 0.0
C329 C 0.27324 0.7113 0.22323 0.0
C330 C 0.28211 0.70987 0.33748 0.0
C331 C 0.28717 0.71113 0.18605 0.0
C332 C 0.22764 0.71518 0.49335 0.0
C333 C 0.23982 0.7054 0.4557 0.0
C334 C 0.23024 0.69616 0.34028 0.0
C335 C 0.28329 0.69376 0.26034 0.0
C336 C 0.26941 0.69754 0.30071 0.0
C337 C 0.22901 0.71668 0.41692 0.0
C338 C 0.24291 0.70905 0.37698 0.0
H339 H 0.33975 0.66008 0.22204 0.0
H340 H 0.31539 0.66027 0.28688 0.0
H341 H 0.23303 0.6806 0.27489 0.0
H342 H 0.175 0.76263 0.45334 0.0
H343 H 0.19646 0.74633 0.38761 0.0
C344 C 0.09223 0.2932 0.17338 0.0
C345 C 0.08688 0.27789 0.13278 0.0
C346 C 0.0729 0.30742 0.19965 0.0
C347 C 1.00486 0.33535 0.20381 0.0
H348 H 1.00731 0.27491 0.31046 0.0
C349 C 0.91695 0.28015 0.29244 0.0
C350 C 0.91764 0.27492 0.33623 0.0
C351 C 0.93803 0.29495 0.27069 0.0
C352 C 1.00644 0.29305 0.28139 0.0
H353 H 0.0573 0.26907 0.08674 0.0
H354 H 0.02365 0.29357 0.13255 0.0
H355 H 0.0441 0.2757 0.26566 0.0
H356 H 0.94037 0.28461 0.39192 0.0
H357 H 0.97715 0.31117 0.35394 0.0
H358 H 0.96681 0.35131 0.21902 0.0
C359 C 0.04276 0.29471 0.14415 0.0
C360 C 0.02762 0.29344 0.25557 0.0
C361 C 0.06207 0.28041 0.1179 0.0
C362 C 0.93929 0.28794 0.35814 0.0
C363 C 0.96042 0.30288 0.33633 0.0
C364 C 0.98368 0.33514 0.22976 0.0
C365 C 0.04783 0.30681 0.18584 0.0
C366 C 0.02684 0.3134 0.21591 0.0
C367 C 0.96033 0.3051 0.2922 0.0
C368 C 0.98395 0.31272 0.26826 0.0
H369 H 0.11117 0.29211 0.18573 0.0
H370 H 0.07746 0.31724 0.23137 0.0
H371 H 1.0038 0.35157 0.1737 0.0
H372 H 0.90053 0.2707 0.27457 0.0
H373 H 0.93725 0.29581 0.23676 0.0
C374 C 0.4636 0.21465 0.61807 0.0
C375 C 0.43881 0.21624 0.63309 0.0
C376 C 0.48316 0.20099 0.64417 0.0
C377 C 0.49872 0.20153 0.75567 0.0
H378 H 0.56011 0.14676 0.71762 0.0
C379 C 0.58778 0.2077 0.85719 0.0
C380 C 0.60899 0.22248 0.83516 0.0
C381 C 0.56662 0.19269 0.83542 0.0
C382 C 0.54307 0.16202 0.72879 0.0
H383 H 0.41485 0.20113 0.68622 0.0
H384 H 0.44899 0.17701 0.73161 0.0
H385 H 0.52289 0.14564 0.67278 0.0
H386 H 0.62537 0.22993 0.77327 0.0
H387 H 0.58866 0.20443 0.73556 0.0
H388 H 0.51907 0.21985 0.81065 0.0
C389 C 0.45335 0.1871 0.69988 0.0
C390 C 0.52176 0.16135 0.7031 0.0
C391 C 0.43377 0.20072 0.67375 0.0
C392 C 0.60927 0.21909 0.79121 0.0
C393 C 0.58822 0.20406 0.76953 0.0
C394 C 0.52001 0.20229 0.78127 0.0
C395 C 0.47837 0.18855 0.68588 0.0
C396 C 0.49956 0.18228 0.71571 0.0
C397 C 0.56634 0.19199 0.79125 0.0
C398 C 0.54269 0.18378 0.76759 0.0
H399 H 0.46814 0.22619 0.58687 0.0
H400 H 0.50221 0.20281 0.63241 0.0
H401 H 0.48206 0.21847 0.76619 0.0
H402 H 0.58702 0.20972 0.89108 0.0
H403 H 0.55019 0.18303 0.85312 0.0
C404 C 0.10187 0.73775 0.72684 0.0
C405 C 0.10208 0.73434 0.68291 0.0
C406 C 0.08193 0.72101 0.75012 0.0
C407 C 0.01501 0.70331 0.7403 0.0
H408 H 0.02217 0.65626 0.85257 0.0
C409 C 0.9309 0.70143 0.85215 0.0
C410 C 0.93619 0.71976 0.89158 0.0
C411 C 0.95038 0.68762 0.82596 0.0
C412 C 0.01981 0.66929 0.82125 0.0
H413 H 0.08218 0.70885 0.62896 0.0
H414 H 0.04688 0.67996 0.66986 0.0
H415 H 0.0587 0.66026 0.80645 0.0
H416 H 0.96598 0.73459 0.93577 0.0
H417 H 0.99982 0.71134 0.89008 0.0
H418 H 0.97657 0.71483 0.75568 0.0
C419 C 0.06227 0.6956 0.68616 0.0
C420 C 0.04072 0.67145 0.79481 0.0
C421 C 0.08249 0.71194 0.6628 0.0
C422 C 0.96122 0.72082 0.90553 0.0
C423 C 0.98068 0.70718 0.87932 0.0
C424 C 0.99413 0.70136 0.76678 0.0
C425 C 0.06157 0.70079 0.73001 0.0
C426 C 0.03872 0.68992 0.7546 0.0
C427 C 0.97558 0.69191 0.8386 0.0
C428 C 0.99647 0.68578 0.80813 0.0
H429 H 0.1168 0.75459 0.74325 0.0
H430 H 0.08185 0.72605 0.78375 0.0
H431 H 0.01288 0.71812 0.70967 0.0
H432 H 0.91179 0.6997 0.8406 0.0
H433 H 0.94576 0.6752 0.79513 0.0
C434 C 0.4393 0.79605 0.15506 0.0
C435 C 0.41642 0.7875 0.17545 0.0
C436 C 0.46042 0.80891 0.17806 0.0
C437 C 0.48232 0.84136 0.28563 0.0
H438 H 0.54142 0.77586 0.25385 0.0
C439 C 0.55874 0.78366 0.40117 0.0
C440 C 0.58367 0.78069 0.38701 0.0
C441 C 0.53972 0.79794 0.37422 0.0
C442 C 0.5253 0.79516 0.26281 0.0
H443 H 0.39735 0.78898 0.23557 0.0
H444 H 0.4341 0.81003 0.2756 0.0
H445 H 0.50533 0.77706 0.20752 0.0
H446 H 0.60848 0.79378 0.33445 0.0
H447 H 0.57527 0.81861 0.28755 0.0
H448 H 0.50209 0.85721 0.34226 0.0
C449 C 0.43583 0.80752 0.24185 0.0
C450 C 0.50453 0.79597 0.2361 0.0
C451 C 0.41469 0.79512 0.21883 0.0
C452 C 0.58944 0.79529 0.3463 0.0
C453 C 0.5704 0.80935 0.31932 0.0
C454 C 0.50308 0.84021 0.31258 0.0
C455 C 0.45921 0.81309 0.222 0.0
C456 C 0.4825 0.81819 0.24756 0.0
C457 C 0.54523 0.80941 0.33252 0.0
C458 C 0.52458 0.81627 0.30184 0.0
H459 H 0.4412 0.79097 0.12159 0.0
H460 H 0.47795 0.81396 0.16154 0.0
H461 H 0.46588 0.85949 0.29517 0.0
H462 H 0.55366 0.77287 0.43238 0.0
H463 H 0.5205 0.79739 0.3853 0.0
C464 C 0.08598 0.08087 0.07695 0.0
C465 C 0.09752 0.10413 0.04423 0.0
C466 C 0.06521 0.05421 0.06895 0.0
C467 C 0.01413 0.03816 0.99161 0.0
H468 H 1.00585 0.92725 0.04743 0.0
C469 C 0.93599 0.91559 0.94639 0.0
C470 C 0.92436 0.89244 0.97909 0.0
C471 C 0.95675 0.94224 0.95446 0.0
C472 C 1.00771 0.95839 0.03194 0.0
H473 H 0.09669 0.11647 0.9772 0.0
H474 H 0.0608 0.06965 0.96326 0.0
H475 H 0.04324 0.97072 0.06113 0.0
H476 H 0.92504 0.88022 0.04615 0.0
H477 H 0.96094 0.927 0.06021 0.0
H478 H 0.97861 0.02582 0.96241 0.0
C479 C 0.06747 0.07261 0.99524 0.0
C480 C 0.02919 0.9833 0.03979 0.0
C481 C 0.0882 0.09923 1.00322 0.0
C482 C 0.93359 0.8974 0.02015 0.0
C483 C 0.95432 0.924 0.0282 0.0
C484 C 0.99266 0.01324 0.98376 0.0
C485 C 0.0555 0.05019 0.02806 0.0
C486 C 0.03269 0.02349 0.01969 0.0
C487 C 0.96638 0.94633 0.99541 0.0
C488 C 0.98917 0.97305 1.00384 0.0
H489 H 0.09262 0.08401 0.10893 0.0
H490 H 0.05633 0.0377 0.09504 0.0
H491 H 0.01599 0.0693 0.97612 0.0
H492 H 0.92942 0.9124 0.91438 0.0
H493 H 0.9657 0.95868 0.9284 0.0
C494 C 0.58529 0.58332 0.44582 0.0
C495 C 0.59614 0.6076 0.47848 0.0
C496 C 0.56496 0.55564 0.45372 0.0
C497 C 0.53126 0.49815 0.53924 0.0
H498 H 0.4756 0.49886 0.46075 0.0
C499 C 0.43697 0.41326 0.57652 0.0
C500 C 0.42596 0.38911 0.54393 0.0
C501 C 0.45737 0.44075 0.56851 0.0
C502 C 0.49108 0.49794 0.4828 0.0
H503 H 0.59448 0.62092 0.54526 0.0
H504 H 0.55909 0.57297 0.55891 0.0
H505 H 0.51263 0.54311 0.44654 0.0
H506 H 0.42745 0.37576 0.47714 0.0
H507 H 0.46298 0.42335 0.46329 0.0
H508 H 0.50971 0.45299 0.5755 0.0
C509 C 0.56636 0.57499 0.52724 0.0
C510 C 0.51234 0.52325 0.47459 0.0
C511 C 0.58661 0.60269 0.51934 0.0
C512 C 0.43543 0.39391 0.50301 0.0
C513 C 0.45577 0.4214 0.495 0.0
C514 C 0.50999 0.47284 0.54744 0.0
C515 C 0.55507 0.55149 0.49447 0.0
C516 C 0.5327 0.5237 0.50272 0.0
C517 C 0.46719 0.44479 0.5277 0.0
C518 C 0.48962 0.47243 0.51934 0.0
H519 H 0.59218 0.58628 0.41398 0.0
H520 H 0.55694 0.53752 0.42786 0.0
H521 H 0.54672 0.49725 0.5613 0.0
H522 H 0.43013 0.41038 0.6084 0.0
H523 H 0.46549 0.45879 0.59432 0.0
C524 C 0.45588 0.63117 0.01382 0.0
C525 C 0.43683 0.6207 0.04265 0.0
C526 C 0.47496 0.60152 1.00471 0.0
C527 C 0.50718 0.50503 0.04762 0.0
H528 H 0.53145 0.49193 0.93364 0.0
C529 C 0.57511 0.368 0.99991 0.0
C530 C 0.59436 0.37766 0.97118 0.0
C531 C 0.55637 0.39832 1.00875 0.0
C532 C 0.52512 0.4956 0.96572 0.0
H533 H 0.42276 0.57046 0.08416 0.0
H534 H 0.45598 0.51847 0.06798 0.0
H535 H 0.49731 0.54242 0.94828 0.0
H536 H 0.60907 0.42712 0.92945 0.0
H537 H 0.57636 0.48038 0.94517 0.0
H538 H 0.53495 0.45819 0.06507 0.0
C539 C 0.45631 0.54992 0.05279 0.0
C540 C 0.5055 0.5245 0.97412 0.0
C541 C 0.43717 0.57961 0.06187 0.0
C542 C 0.59451 0.41862 0.9517 0.0
C543 C 0.57567 0.44903 0.96052 0.0
C544 C 0.52678 0.47614 0.03922 0.0
C545 C 0.47551 0.5606 0.02422 0.0
C546 C 0.49624 0.52952 0.01517 0.0
C547 C 0.55633 0.43917 0.9891 0.0
C548 C 0.53596 0.47095 0.99815 0.0
H549 H 0.45626 0.66255 0.99848 0.0
H550 H 0.48958 0.61107 0.98298 0.0
H551 H 0.50084 0.50864 0.07971 0.0
H552 H 0.57433 0.33674 0.01544 0.0
H553 H 0.5416 0.38936 0.03045 0.0
C554 C 0.07564 0.86456 0.51006 0.0
C555 C 0.09482 0.87415 0.53897 0.0
C556 C 0.05695 0.89494 0.50099 0.0
C557 C 0.02557 0.99167 0.54453 0.0
H558 H 1.00037 0.00475 0.43103 0.0
C559 C 0.95548 0.12654 0.49842 0.0
C560 C 0.93616 0.11611 0.47006 0.0
C561 C 0.97475 0.09705 0.50684 0.0
C562 C 1.00697 0.00111 0.46299 0.0
H563 H 0.10957 0.92367 0.58054 0.0
H564 H 0.07696 0.97704 0.5644 0.0
H565 H 0.03487 0.95476 0.44496 0.0
H566 H 0.92187 0.06613 0.42856 0.0
H567 H 0.95548 0.01433 0.44354 0.0
H568 H 0.99764 0.03795 0.56258 0.0
C569 C 0.07627 0.94568 0.54911 0.0
C570 C 0.0268 0.97251 0.47097 0.0
C571 C 0.09506 0.91522 0.55815 0.0
C572 C 0.93648 0.07522 0.45053 0.0
C573 C 0.95584 0.04566 0.45892 0.0
C574 C 1.00573 0.02027 0.53654 0.0
C575 C 0.05689 0.93578 0.52059 0.0
C576 C 0.03632 0.96734 0.51187 0.0
C577 C 0.97526 0.05628 0.48711 0.0
C578 C 0.99615 0.02534 0.49567 0.0
H579 H 0.0748 0.83324 0.49472 0.0
H580 H 0.04217 0.88595 0.47931 0.0
H581 H 0.03212 0.98797 0.5765 0.0
H582 H 0.95591 0.15777 0.51399 0.0
H583 H 0.98955 0.10659 0.52827 0.0
loop_
_geom_bond_atom_site_label_1
_geom_bond_atom_site_label_2
_geom_bond_distance
_geom_bond_site_symmetry_2
_ccdc_geom_bond_type
Mg0 O7 2.141 . S
Mg0 O8 2.048 . S
Mg0 O9 2.048 . S
Mg0 O12 2.141 . S
C1 O2 1.313 . S
C1 O8 1.195 . S
O2 C1 1.313 . S
C3 O4 1.245 . S
C3 O12 1.289 . S
O4 C3 1.245 . S
C5 O6 1.245 . S
C5 O7 1.289 . S
O6 C5 1.245 . S
O7 Mg0 2.141 . S
O7 C5 1.289 . S
O8 Mg0 2.048 . S
O8 C1 1.195 . S
O9 Mg0 2.048 . S
O9 C10 1.195 . S
C10 O9 1.195 . S
C10 O11 1.313 . S
O11 C10 1.313 . S
O12 Mg0 2.141 . S
O12 C3 1.289 . S
Mg13 O20 2.141 . S
Mg13 O21 2.048 . S
Mg13 O22 2.048 . S
Mg13 O25 2.141 . S
C14 O15 1.313 . S
C14 O21 1.195 . S
O15 C14 1.313 . S
C16 O17 1.245 . S
C16 O25 1.289 . S
O17 C16 1.245 . S
C18 O19 1.245 . S
C18 O20 1.289 . S
O19 C18 1.245 . S
O20 Mg13 2.141 . S
O20 C18 1.289 . S
O21 Mg13 2.048 . S
O21 C14 1.195 . S
O22 Mg13 2.048 . S
O22 C23 1.195 . S
C23 O22 1.195 . S
C23 O24 1.313 . S
O24 C23 1.313 . S
O25 Mg13 2.141 . S
O25 C16 1.289 . S
Mg26 O33 2.141 . S
Mg26 O34 2.048 . S
Mg26 O35 2.048 . S
Mg26 O38 2.141 . S
C27 O28 1.313 . S
C27 O34 1.195 . S
O28 C27 1.313 . S
C29 O30 1.245 . S
C29 O38 1.289 . S
O30 C29 1.245 . S
C31 O32 1.245 . S
C31 O33 1.289 . S
O32 C31 1.245 . S
O33 Mg26 2.141 . S
O33 C31 1.289 . S
O34 Mg26 2.048 . S
O34 C27 1.195 . S
O35 Mg26 2.048 . S
O35 C36 1.195 . S
C36 O35 1.195 . S
C36 O37 1.313 . S
O37 C36 1.313 . S
O38 Mg26 2.141 . S
O38 C29 1.289 . S
Mg39 O46 2.141 . S
Mg39 O47 2.048 . S
Mg39 O48 2.048 . S
Mg39 O51 2.141 . S
C40 O41 1.313 . S
C40 O47 1.195 . S
O41 C40 1.313 . S
C42 O43 1.245 . S
C42 O51 1.289 . S
O43 C42 1.245 . S
C44 O45 1.245 . S
C44 O46 1.289 . S
O45 C44 1.245 . S
O46 Mg39 2.141 . S
O46 C44 1.289 . S
O47 Mg39 2.048 . S
O47 C40 1.195 . S
O48 Mg39 2.048 . S
O48 C49 1.195 . S
C49 O48 1.195 . S
C49 O50 1.313 . S
O50 C49 1.313 . S
O51 Mg39 2.141 . S
O51 C42 1.289 . S
Mg52 O59 2.141 . S
Mg52 O60 2.048 . S
Mg52 O61 2.048 . S
Mg52 O64 2.141 . S
C53 O54 1.313 . S
C53 O60 1.195 . S
O54 C53 1.313 . S
C55 O56 1.245 . S
C55 O64 1.289 . S
O56 C55 1.245 . S
C57 O58 1.245 . S
C57 O59 1.289 . S
O58 C57 1.245 . S
O59 Mg52 2.141 . S
O59 C57 1.289 . S
O60 Mg52 2.048 . S
O60 C53 1.195 . S
O61 Mg52 2.048 . S
O61 C62 1.195 . S
C62 O61 1.195 . S
C62 O63 1.313 . S
O63 C62 1.313 . S
O64 Mg52 2.141 . S
O64 C55 1.289 . S
Mg65 O72 2.141 . S
Mg65 O73 2.048 . S
Mg65 O74 2.048 . S
Mg65 O77 2.141 . S
C66 O67 1.313 . S
C66 O73 1.195 . S
O67 C66 1.313 . S
C68 O69 1.245 . S
C68 O77 1.289 . S
O69 C68 1.245 . S
C70 O71 1.245 . S
C70 O72 1.289 . S
O71 C70 1.245 . S
O72 Mg65 2.141 . S
O72 C70 1.289 . S
O73 Mg65 2.048 . S
O73 C66 1.195 . S
O74 Mg65 2.048 . S
O74 C75 1.195 . S
C75 O74 1.195 . S
C75 O76 1.313 . S
O76 C75 1.313 . S
O77 Mg65 2.141 . S
O77 C68 1.289 . S
Mg78 O85 2.141 . S
Mg78 O86 2.048 . S
Mg78 O87 2.048 . S
Mg78 O90 2.141 . S
C79 O80 1.313 . S
C79 O86 1.195 . S
O80 C79 1.313 . S
C81 O82 1.245 . S
C81 O90 1.289 . S
O82 C81 1.245 . S
C83 O84 1.245 . S
C83 O85 1.289 . S
O84 C83 1.245 . S
O85 Mg78 2.141 . S
O85 C83 1.289 . S
O86 Mg78 2.048 . S
O86 C79 1.195 . S
O87 Mg78 2.048 . S
O87 C88 1.195 . S
C88 O87 1.195 . S
C88 O89 1.313 . S
O89 C88 1.313 . S
O90 Mg78 2.141 . S
O90 C81 1.289 . S
Mg91 O98 2.141 . S
Mg91 O99 2.048 . S
Mg91 O100 2.048 . S
Mg91 O103 2.141 . S
C92 O93 1.313 . S
C92 O99 1.195 . S
O93 C92 1.313 . S
C94 O95 1.245 . S
C94 O103 1.289 . S
O95 C94 1.245 . S
C96 O97 1.245 . S
C96 O98 1.289 . S
O97 C96 1.245 . S
O98 Mg91 2.141 . S
O98 C96 1.289 . S
O99 Mg91 2.048 . S
O99 C92 1.195 . S
O100 Mg91 2.048 . S
O100 C101 1.195 . S
C101 O100 1.195 . S
C101 O102 1.313 . S
O102 C101 1.313 . S
O103 Mg91 2.141 . S
O103 C94 1.289 . S
C104 C105 1.349 . S
C104 C106 1.327 . S
C104 H129 0.950 . S
C105 C104 1.349 . S
C105 C121 1.349 . S
C106 C104 1.327 . S
C106 C125 1.429 . S
C106 H130 0.950 . S
C107 C124 1.574 . S
C107 C126 1.368 . S
C107 H131 0.949 . S
H108 C112 0.949 . S
C109 C110 1.349 . S
C109 C111 1.327 . S
C109 H132 0.950 . S
C110 C109 1.349 . S
C110 C122 1.349 . S
C111 C109 1.327 . S
C111 C127 1.429 . S
C111 H133 0.950 . S
C112 H108 0.949 . S
C112 C120 1.574 . S
C112 C128 1.368 . S
H113 C121 0.950 . S
H114 C119 0.950 . S
H115 C120 0.949 . S
H116 C122 0.950 . S
H117 C123 0.950 . S
H118 C124 0.949 . S
C119 H114 0.950 . S
C119 C121 1.327 . S
C119 C125 1.429 . S
C120 C112 1.574 . S
C120 H115 0.949 . S
C120 C126 1.368 . S
C121 C105 1.349 . S
C121 H113 0.950 . S
C121 C119 1.327 . S
C122 C110 1.349 . S
C122 H116 0.950 . S
C122 C123 1.327 . S
C123 H117 0.950 . S
C123 C122 1.327 . S
C123 C127 1.429 . S
C124 C107 1.574 . S
C124 H118 0.949 . S
C124 C128 1.368 . S
C125 C106 1.429 . S
C125 C119 1.429 . S
C125 C126 1.523 . S
C126 C107 1.368 . S
C126 C120 1.368 . S
C126 C125 1.523 . S
C127 C111 1.429 . S
C127 C123 1.429 . S
C127 C128 1.523 . S
C128 C112 1.368 . S
C128 C124 1.368 . S
C128 C127 1.523 . S
H129 C104 0.950 . S
H130 C106 0.950 . S
H131 C107 0.949 . S
H132 C109 0.950 . S
H133 C111 0.950 . S
C134 C135 1.349 . S
C134 C136 1.327 . S
C134 H159 0.950 . S
C135 C134 1.349 . S
C135 C151 1.349 . S
C136 C134 1.327 . S
C136 C155 1.429 . S
C136 H160 0.950 . S
C137 C154 1.574 . S
C137 C156 1.368 . S
C137 H161 0.949 . S
H138 C142 0.949 . S
C139 C140 1.349 . S
C139 C141 1.327 . S
C139 H162 0.950 . S
C140 C139 1.349 . S
C140 C152 1.349 . S
C141 C139 1.327 . S
C141 C157 1.429 . S
C141 H163 0.950 . S
C142 H138 0.949 . S
C142 C150 1.574 . S
C142 C158 1.368 . S
H143 C151 0.950 . S
H144 C149 0.950 . S
H145 C150 0.949 . S
H146 C152 0.950 . S
H147 C153 0.950 . S
H148 C154 0.949 . S
C149 H144 0.950 . S
C149 C151 1.327 . S
C149 C155 1.429 . S
C150 C142 1.574 . S
C150 H145 0.949 . S
C150 C156 1.368 . S
C151 C135 1.349 . S
C151 H143 0.950 . S
C151 C149 1.327 . S
C152 C140 1.349 . S
C152 H146 0.950 . S
C152 C153 1.327 . S
C153 H147 0.950 . S
C153 C152 1.327 . S
C153 C157 1.429 . S
C154 C137 1.574 . S
C154 H148 0.949 . S
C154 C158 1.368 . S
C155 C136 1.429 . S
C155 C149 1.429 . S
C155 C156 1.523 . S
C156 C137 1.368 . S
C156 C150 1.368 . S
C156 C155 1.523 . S
C157 C141 1.429 . S
C157 C153 1.429 . S
C157 C158 1.523 . S
C158 C142 1.368 . S
C158 C154 1.368 . S
C158 C157 1.523 . S
H159 C134 0.950 . S
H160 C136 0.950 . S
H161 C137 0.949 . S
H162 C139 0.950 . S
H163 C141 0.950 . S
C164 C165 1.349 . S
C164 C166 1.327 . S
C164 H189 0.950 . S
C165 C164 1.349 . S
C165 C181 1.349 . S
C166 C164 1.327 . S
C166 C185 1.429 . S
C166 H190 0.950 . S
C167 C184 1.574 . S
C167 C186 1.368 . S
C167 H191 0.949 . S
H168 C172 0.949 . S
C169 C170 1.349 . S
C169 C171 1.327 . S
C169 H192 0.950 . S
C170 C169 1.349 . S
C170 C182 1.349 . S
C171 C169 1.327 . S
C171 C187 1.429 . S
C171 H193 0.950 . S
C172 H168 0.949 . S
C172 C180 1.574 . S
C172 C188 1.368 . S
H173 C181 0.950 . S
H174 C179 0.950 . S
H175 C180 0.949 . S
H176 C182 0.950 . S
H177 C183 0.950 . S
H178 C184 0.949 . S
C179 H174 0.950 . S
C179 C181 1.327 . S
C179 C185 1.429 . S
C180 C172 1.574 . S
C180 H175 0.949 . S
C180 C186 1.368 . S
C181 C165 1.349 . S
C181 H173 0.950 . S
C181 C179 1.327 . S
C182 C170 1.349 . S
C182 H176 0.950 . S
C182 C183 1.327 . S
C183 H177 0.950 . S
C183 C182 1.327 . S
C183 C187 1.429 . S
C184 C167 1.574 . S
C184 H178 0.949 . S
C184 C188 1.368 . S
C185 C166 1.429 . S
C185 C179 1.429 . S
C185 C186 1.523 . S
C186 C167 1.368 . S
C186 C180 1.368 . S
C186 C185 1.523 . S
C187 C171 1.429 . S
C187 C183 1.429 . S
C187 C188 1.523 . S
C188 C172 1.368 . S
C188 C184 1.368 . S
C188 C187 1.523 . S
H189 C164 0.950 . S
H190 C166 0.950 . S
H191 C167 0.949 . S
H192 C169 0.950 . S
H193 C171 0.950 . S
C194 C195 1.349 . S
C194 C196 1.327 . S
C194 H219 0.950 . S
C195 C194 1.349 . S
C195 C211 1.349 . S
C196 C194 1.327 . S
C196 C215 1.429 . S
C196 H220 0.950 . S
C197 C214 1.574 . S
C197 C216 1.368 . S
C197 H221 0.949 . S
H198 C202 0.949 . S
C199 C200 1.349 . S
C199 C201 1.327 . S
C199 H222 0.950 . S
C200 C199 1.349 . S
C200 C212 1.349 . S
C201 C199 1.327 . S
C201 C217 1.429 . S
C201 H223 0.950 . S
C202 H198 0.949 . S
C202 C210 1.574 . S
C202 C218 1.368 . S
H203 C211 0.950 . S
H204 C209 0.950 . S
H205 C210 0.949 . S
H206 C212 0.950 . S
H207 C213 0.950 . S
H208 C214 0.949 . S
C209 H204 0.950 . S
C209 C211 1.327 . S
C209 C215 1.429 . S
C210 C202 1.574 . S
C210 H205 0.949 . S
C210 C216 1.368 . S
C211 C195 1.349 . S
C211 H203 0.950 . S
C211 C209 1.327 . S
C212 C200 1.349 . S
C212 H206 0.950 . S
C212 C213 1.327 . S
C213 H207 0.950 . S
C213 C212 1.327 . S
C213 C217 1.429 . S
C214 C197 1.574 . S
C214 H208 0.949 . S
C214 C218 1.368 . S
C215 C196 1.429 . S
C215 C209 1.429 . S
C215 C216 1.523 . S
C216 C197 1.368 . S
C216 C210 1.368 . S
C216 C215 1.523 . S
C217 C201 1.429 . S
C217 C213 1.429 . S
C217 C218 1.523 . S
C218 C202 1.368 . S
C218 C214 1.368 . S
C218 C217 1.523 . S
H219 C194 0.950 . S
H220 C196 0.950 . S
H221 C197 0.949 . S
H222 C199 0.950 . S
H223 C201 0.950 . S
C224 C225 1.349 . S
C224 C226 1.327 . S
C224 H249 0.950 . S
C225 C224 1.349 . S
C225 C241 1.349 . S
C226 C224 1.327 . S
C226 C245 1.429 . S
C226 H250 0.950 . S
C227 C244 1.574 . S
C227 C246 1.368 . S
C227 H251 0.949 . S
H228 C232 0.949 . S
C229 C230 1.349 . S
C229 C231 1.327 . S
C229 H252 0.950 . S
C230 C229 1.349 . S
C230 C242 1.349 . S
C231 C229 1.327 . S
C231 C247 1.429 . S
C231 H253 0.950 . S
C232 H228 0.949 . S
C232 C240 1.574 . S
C232 C248 1.368 . S
H233 C241 0.950 . S
H234 C239 0.950 . S
H235 C240 0.949 . S
H236 C242 0.950 . S
H237 C243 0.950 . S
H238 C244 0.949 . S
C239 H234 0.950 . S
C239 C241 1.327 . S
C239 C245 1.429 . S
C240 C232 1.574 . S
C240 H235 0.949 . S
C240 C246 1.368 . S
C241 C225 1.349 . S
C241 H233 0.950 . S
C241 C239 1.327 . S
C242 C230 1.349 . S
C242 H236 0.950 . S
C242 C243 1.327 . S
C243 H237 0.950 . S
C243 C242 1.327 . S
C243 C247 1.429 . S
C244 C227 1.574 . S
C244 H238 0.949 . S
C244 C248 1.368 . S
C245 C226 1.429 . S
C245 C239 1.429 . S
C245 C246 1.523 . S
C246 C227 1.368 . S
C246 C240 1.368 . S
C246 C245 1.523 . S
C247 C231 1.429 . S
C247 C243 1.429 . S
C247 C248 1.523 . S
C248 C232 1.368 . S
C248 C244 1.368 . S
C248 C247 1.523 . S
H249 C224 0.950 . S
H250 C226 0.950 . S
H251 C227 0.949 . S
H252 C229 0.950 . S
H253 C231 0.950 . S
C254 C255 1.349 . S
C254 C256 1.327 . S
C254 H279 0.950 . S
C255 C254 1.349 . S
C255 C271 1.349 . S
C256 C254 1.327 . S
C256 C275 1.429 . S
C256 H280 0.950 . S
C257 C274 1.574 . S
C257 C276 1.368 . S
C257 H281 0.949 . S
H258 C262 0.949 . S
C259 C260 1.349 . S
C259 C261 1.327 . S
C259 H282 0.950 . S
C260 C259 1.349 . S
C260 C272 1.349 . S
C261 C259 1.327 . S
C261 C277 1.429 . S
C261 H283 0.950 . S
C262 H258 0.949 . S
C262 C270 1.574 . S
C262 C278 1.368 . S
H263 C271 0.950 . S
H264 C269 0.950 . S
H265 C270 0.949 . S
H266 C272 0.950 . S
H267 C273 0.950 . S
H268 C274 0.949 . S
C269 H264 0.950 . S
C269 C271 1.327 . S
C269 C275 1.429 . S
C270 C262 1.574 . S
C270 H265 0.949 . S
C270 C276 1.368 . S
C271 C255 1.349 . S
C271 H263 0.950 . S
C271 C269 1.327 . S
C272 C260 1.349 . S
C272 H266 0.950 . S
C272 C273 1.327 . S
C273 H267 0.950 . S
C273 C272 1.327 . S
C273 C277 1.429 . S
C274 C257 1.574 . S
C274 H268 0.949 . S
C274 C278 1.368 . S
C275 C256 1.429 . S
C275 C269 1.429 . S
C275 C276 1.523 . S
C276 C257 1.368 . S
C276 C270 1.368 . S
C276 C275 1.523 . S
C277 C261 1.429 . S
C277 C273 1.429 . S
C277 C278 1.523 . S
C278 C262 1.368 . S
C278 C274 1.368 . S
C278 C277 1.523 . S
H279 C254 0.950 . S
H280 C256 0.950 . S
H281 C257 0.949 . S
H282 C259 0.950 . S
H283 C261 0.950 . S
C284 C285 1.349 . S
C284 C286 1.327 . S
C284 H309 0.950 . S
C285 C284 1.349 . S
C285 C301 1.349 . S
C286 C284 1.327 . S
C286 C305 1.429 . S
C286 H310 0.950 . S
C287 C304 1.574 . S
C287 C306 1.368 . S
C287 H311 0.949 . S
H288 C292 0.949 . S
C289 C290 1.349 . S
C289 C291 1.327 . S
C289 H312 0.950 . S
C290 C289 1.349 . S
C290 C302 1.349 . S
C291 C289 1.327 . S
C291 C307 1.429 . S
C291 H313 0.950 . S
C292 H288 0.949 . S
C292 C300 1.574 . S
C292 C308 1.368 . S
H293 C301 0.950 . S
H294 C299 0.950 . S
H295 C300 0.949 . S
H296 C302 0.950 . S
H297 C303 0.950 . S
H298 C304 0.949 . S
C299 H294 0.950 . S
C299 C301 1.327 . S
C299 C305 1.429 . S
C300 C292 1.574 . S
C300 H295 0.949 . S
C300 C306 1.368 . S
C301 C285 1.349 . S
C301 H293 0.950 . S
C301 C299 1.327 . S
C302 C290 1.349 . S
C302 H296 0.950 . S
C302 C303 1.327 . S
C303 H297 0.950 . S
C303 C302 1.327 . S
C303 C307 1.429 . S
C304 C287 1.574 . S
C304 H298 0.949 . S
C304 C308 1.368 . S
C305 C286 1.429 . S
C305 C299 1.429 . S
C305 C306 1.523 . S
C306 C287 1.368 . S
C306 C300 1.368 . S
C306 C305 1.523 . S
C307 C291 1.429 . S
C307 C303 1.429 . S
C307 C308 1.523 . S
C308 C292 1.368 . S
C308 C304 1.368 . S
C308 C307 1.523 . S
H309 C284 0.950 . S
H310 C286 0.950 . S
H311 C287 0.949 . S
H312 C289 0.950 . S
H313 C291 0.950 . S
C314 C315 1.349 . S
C314 C316 1.327 . S
C314 H339 0.950 . S
C315 C314 1.349 . S
C315 C331 1.349 . S
C316 C314 1.327 . S
C316 C335 1.429 . S
C316 H340 0.950 . S
C317 C334 1.574 . S
C317 C336 1.368 . S
C317 H341 0.949 . S
H318 C322 0.949 . S
C319 C320 1.349 . S
C319 C321 1.327 . S
C319 H342 0.950 . S
C320 C319 1.349 . S
C320 C332 1.349 . S
C321 C319 1.327 . S
C321 C337 1.429 . S
C321 H343 0.950 . S
C322 H318 0.949 . S
C322 C330 1.574 . S
C322 C338 1.368 . S
H323 C331 0.950 . S
H324 C329 0.950 . S
H325 C330 0.949 . S
H326 C332 0.950 . S
H327 C333 0.950 . S
H328 C334 0.949 . S
C329 H324 0.950 . S
C329 C331 1.327 . S
C329 C335 1.429 . S
C330 C322 1.574 . S
C330 H325 0.949 . S
C330 C336 1.368 . S
C331 C315 1.349 . S
C331 H323 0.950 . S
C331 C329 1.327 . S
C332 C320 1.349 . S
C332 H326 0.950 . S
C332 C333 1.327 . S
C333 H327 0.950 . S
C333 C332 1.327 . S
C333 C337 1.429 . S
C334 C317 1.574 . S
C334 H328 0.949 . S
C334 C338 1.368 . S
C335 C316 1.429 . S
C335 C329 1.429 . S
C335 C336 1.523 . S
C336 C317 1.368 . S
C336 C330 1.368 . S
C336 C335 1.523 . S
C337 C321 1.429 . S
C337 C333 1.429 . S
C337 C338 1.523 . S
C338 C322 1.368 . S
C338 C334 1.368 . S
C338 C337 1.523 . S
H339 C314 0.950 . S
H340 C316 0.950 . S
H341 C317 0.949 . S
H342 C319 0.950 . S
H343 C321 0.950 . S
C344 C345 1.349 . S
C344 C346 1.327 . S
C344 H369 0.950 . S
C345 C344 1.349 . S
C345 C361 1.349 . S
C346 C344 1.327 . S
C346 C365 1.429 . S
C346 H370 0.950 . S
C347 C364 1.574 1_455 S
C347 C366 1.368 . S
C347 H371 0.949 . S
H348 C352 0.949 . S
C349 C350 1.349 . S
C349 C351 1.327 . S
C349 H372 0.950 . S
C350 C349 1.349 . S
C350 C362 1.349 . S
C351 C349 1.327 . S
C351 C367 1.429 . S
C351 H373 0.950 . S
C352 H348 0.949 . S
C352 C360 1.574 1_655 S
C352 C368 1.368 . S
H353 C361 0.950 . S
H354 C359 0.950 . S
H355 C360 0.949 . S
H356 C362 0.950 . S
H357 C363 0.950 . S
H358 C364 0.949 . S
C359 H354 0.950 . S
C359 C361 1.327 . S
C359 C365 1.429 . S
C360 C352 1.574 1_455 S
C360 H355 0.949 . S
C360 C366 1.368 . S
C361 C345 1.349 . S
C361 H353 0.950 . S
C361 C359 1.327 . S
C362 C350 1.349 . S
C362 H356 0.950 . S
C362 C363 1.327 . S
C363 H357 0.950 . S
C363 C362 1.327 . S
C363 C367 1.429 . S
C364 C347 1.574 1_655 S
C364 H358 0.949 . S
C364 C368 1.368 . S
C365 C346 1.429 . S
C365 C359 1.429 . S
C365 C366 1.523 . S
C366 C347 1.368 . S
C366 C360 1.368 . S
C366 C365 1.523 . S
C367 C351 1.429 . S
C367 C363 1.429 . S
C367 C368 1.523 . S
C368 C352 1.368 . S
C368 C364 1.368 . S
C368 C367 1.523 . S
H369 C344 0.950 . S
H370 C346 0.950 . S
H371 C347 0.949 . S
H372 C349 0.950 . S
H373 C351 0.950 . S
C374 C375 1.349 . S
C374 C376 1.327 . S
C374 H399 0.950 . S
C375 C374 1.349 . S
C375 C391 1.349 . S
C376 C374 1.327 . S
C376 C395 1.429 . S
C376 H400 0.950 . S
C377 C394 1.574 . S
C377 C396 1.368 . S
C377 H401 0.949 . S
H378 C382 0.949 . S
C379 C380 1.349 . S
C379 C381 1.327 . S
C379 H402 0.950 . S
C380 C379 1.349 . S
C380 C392 1.349 . S
C381 C379 1.327 . S
C381 C397 1.429 . S
C381 H403 0.950 . S
C382 H378 0.949 . S
C382 C390 1.574 . S
C382 C398 1.368 . S
H383 C391 0.950 . S
H384 C389 0.950 . S
H385 C390 0.949 . S
H386 C392 0.950 . S
H387 C393 0.950 . S
H388 C394 0.949 . S
C389 H384 0.950 . S
C389 C391 1.327 . S
C389 C395 1.429 . S
C390 C382 1.574 . S
C390 H385 0.949 . S
C390 C396 1.368 . S
C391 C375 1.349 . S
C391 H383 0.950 . S
C391 C389 1.327 . S
C392 C380 1.349 . S
C392 H386 0.950 . S
C392 C393 1.327 . S
C393 H387 0.950 . S
C393 C392 1.327 . S
C393 C397 1.429 . S
C394 C377 1.574 . S
C394 H388 0.949 . S
C394 C398 1.368 . S
C395 C376 1.429 . S
C395 C389 1.429 . S
C395 C396 1.523 . S
C396 C377 1.368 . S
C396 C390 1.368 . S
C396 C395 1.523 . S
C397 C381 1.429 . S
C397 C393 1.429 . S
C397 C398 1.523 . S
C398 C382 1.368 . S
C398 C394 1.368 . S
C398 C397 1.523 . S
H399 C374 0.950 . S
H400 C376 0.950 . S
H401 C377 0.949 . S
H402 C379 0.950 . S
H403 C381 0.950 . S
C404 C405 1.349 . S
C404 C406 1.327 . S
C404 H429 0.950 . S
C405 C404 1.349 . S
C405 C421 1.349 . S
C406 C404 1.327 . S
C406 C425 1.429 . S
C406 H430 0.950 . S
C407 C424 1.574 1_455 S
C407 C426 1.368 . S
C407 H431 0.949 . S
H408 C412 0.949 . S
C409 C410 1.349 . S
C409 C411 1.327 . S
C409 H432 0.950 . S
C410 C409 1.349 . S
C410 C422 1.349 . S
C411 C409 1.327 . S
C411 C427 1.429 . S
C411 H433 0.950 . S
C412 H408 0.949 . S
C412 C420 1.574 1_655 S
C412 C428 1.368 . S
H413 C421 0.950 . S
H414 C419 0.950 . S
H415 C420 0.949 . S
H416 C422 0.950 . S
H417 C423 0.950 . S
H418 C424 0.949 . S
C419 H414 0.950 . S
C419 C421 1.327 . S
C419 C425 1.429 . S
C420 C412 1.574 1_455 S
C420 H415 0.949 . S
C420 C426 1.368 . S
C421 C405 1.349 . S
C421 H413 0.950 . S
C421 C419 1.327 . S
C422 C410 1.349 . S
C422 H416 0.950 . S
C422 C423 1.327 . S
C423 H417 0.950 . S
C423 C422 1.327 . S
C423 C427 1.429 . S
C424 C407 1.574 1_655 S
C424 H418 0.949 . S
C424 C428 1.368 . S
C425 C406 1.429 . S
C425 C419 1.429 . S
C425 C426 1.523 . S
C426 C407 1.368 . S
C426 C420 1.368 . S
C426 C425 1.523 . S
C427 C411 1.429 . S
C427 C423 1.429 . S
C427 C428 1.523 . S
C428 C412 1.368 . S
C428 C424 1.368 . S
C428 C427 1.523 . S
H429 C404 0.950 . S
H430 C406 0.950 . S
H431 C407 0.949 . S
H432 C409 0.950 . S
H433 C411 0.950 . S
C434 C435 1.349 . S
C434 C436 1.327 . S
C434 H459 0.950 . S
C435 C434 1.349 . S
C435 C451 1.349 . S
C436 C434 1.327 . S
C436 C455 1.429 . S
C436 H460 0.950 . S
C437 C454 1.574 . S
C437 C456 1.368 . S
C437 H461 0.949 . S
H438 C442 0.949 . S
C439 C440 1.349 . S
C439 C441 1.327 . S
C439 H462 0.950 . S
C440 C439 1.349 . S
C440 C452 1.349 . S
C441 C439 1.327 . S
C441 C457 1.429 . S
C441 H463 0.950 . S
C442 H438 0.949 . S
C442 C450 1.574 . S
C442 C458 1.368 . S
H443 C451 0.950 . S
H444 C449 0.950 . S
H445 C450 0.949 . S
H446 C452 0.950 . S
H447 C453 0.950 . S
H448 C454 0.949 . S
C449 H444 0.950 . S
C449 C451 1.327 . S
C449 C455 1.429 . S
C450 C442 1.574 . S
C450 H445 0.949 . S
C450 C456 1.368 . S
C451 C435 1.349 . S
C451 H443 0.950 . S
C451 C449 1.327 . S
C452 C440 1.349 . S
C452 H446 0.950 . S
C452 C453 1.327 . S
C453 H447 0.950 . S
C453 C452 1.327 . S
C453 C457 1.429 . S
C454 C437 1.574 . S
C454 H448 0.949 . S
C454 C458 1.368 . S
C455 C436 1.429 . S
C455 C449 1.429 . S
C455 C456 1.523 . S
C456 C437 1.368 . S
C456 C450 1.368 . S
C456 C455 1.523 . S
C457 C441 1.429 . S
C457 C453 1.429 . S
C457 C458 1.523 . S
C458 C442 1.368 . S
C458 C454 1.368 . S
C458 C457 1.523 . S
H459 C434 0.950 . S
H460 C436 0.950 . S
H461 C437 0.949 . S
H462 C439 0.950 . S
H463 C441 0.950 . S
C464 C465 1.349 1_556 S
C464 C466 1.327 . S
C464 H489 0.950 . S
C465 C464 1.349 1_554 S
C465 C481 1.349 . S
C466 C464 1.327 . S
C466 C485 1.429 1_556 S
C466 H490 0.950 . S
C467 C484 1.574 1_545 S
C467 C486 1.368 1_655 S
C467 H491 0.949 . S
H468 C472 0.949 . S
C469 C470 1.349 1_554 S
C469 C471 1.327 . S
C469 H492 0.950 . S
C470 C469 1.349 1_556 S
C470 C482 1.349 . S
C471 C469 1.327 . S
C471 C487 1.429 1_554 S
C471 H493 0.950 . S
C472 H468 0.949 . S
C472 C480 1.574 1_565 S
C472 C488 1.368 1_455 S
H473 C481 0.950 . S
H474 C479 0.950 . S
H475 C480 0.949 . S
H476 C482 0.950 . S
H477 C483 0.950 . S
H478 C484 0.949 . S
C479 H474 0.950 . S
C479 C481 1.327 . S
C479 C485 1.429 . S
C480 C472 1.574 1_545 S
C480 H475 0.949 . S
C480 C486 1.368 1_556 S
C481 C465 1.349 . S
C481 H473 0.950 . S
C481 C479 1.327 . S
C482 C470 1.349 . S
C482 H476 0.950 . S
C482 C483 1.327 . S
C483 H477 0.950 . S
C483 C482 1.327 . S
C483 C487 1.429 . S
C484 C467 1.574 1_565 S
C484 H478 0.949 . S
C484 C488 1.368 1_554 S
C485 C466 1.429 1_554 S
C485 C479 1.429 . S
C485 C486 1.523 . S
C486 C467 1.368 1_455 S
C486 C480 1.368 1_554 S
C486 C485 1.523 . S
C487 C471 1.429 1_556 S
C487 C483 1.429 . S
C487 C488 1.523 . S
C488 C472 1.368 1_655 S
C488 C484 1.368 1_556 S
C488 C487 1.523 . S
H489 C464 0.950 . S
H490 C466 0.950 . S
H491 C467 0.949 . S
H492 C469 0.950 . S
H493 C471 0.950 . S
C494 C495 1.349 . S
C494 C496 1.327 . S
C494 H519 0.950 . S
C495 C494 1.349 . S
C495 C511 1.349 . S
C496 C494 1.327 . S
C496 C515 1.429 . S
C496 H520 0.950 . S
C497 C514 1.574 . S
C497 C516 1.368 . S
C497 H521 0.949 . S
H498 C502 0.949 . S
C499 C500 1.349 . S
C499 C501 1.327 . S
C499 H522 0.950 . S
C500 C499 1.349 . S
C500 C512 1.349 . S
C501 C499 1.327 . S
C501 C517 1.429 . S
C501 H523 0.950 . S
C502 H498 0.949 . S
C502 C510 1.574 . S
C502 C518 1.368 . S
H503 C511 0.950 . S
H504 C509 0.950 . S
H505 C510 0.949 . S
H506 C512 0.950 . S
H507 C513 0.950 . S
H508 C514 0.949 . S
C509 H504 0.950 . S
C509 C511 1.327 . S
C509 C515 1.429 . S
C510 C502 1.574 . S
C510 H505 0.949 . S
C510 C516 1.368 . S
C511 C495 1.349 . S
C511 H503 0.950 . S
C511 C509 1.327 . S
C512 C500 1.349 . S
C512 H506 0.950 . S
C512 C513 1.327 . S
C513 H507 0.950 . S
C513 C512 1.327 . S
C513 C517 1.429 . S
C514 C497 1.574 . S
C514 H508 0.949 . S
C514 C518 1.368 . S
C515 C496 1.429 . S
C515 C509 1.429 . S
C515 C516 1.523 . S
C516 C497 1.368 . S
C516 C510 1.368 . S
C516 C515 1.523 . S
C517 C501 1.429 . S
C517 C513 1.429 . S
C517 C518 1.523 . S
C518 C502 1.368 . S
C518 C514 1.368 . S
C518 C517 1.523 . S
H519 C494 0.950 . S
H520 C496 0.950 . S
H521 C497 0.949 . S
H522 C499 0.950 . S
H523 C501 0.950 . S
C524 C525 1.349 . S
C524 C526 1.327 . S
C524 H549 0.953 . S
C525 C524 1.349 . S
C525 C541 1.349 . S
C526 C524 1.327 . S
C526 C545 1.429 . S
C526 H550 0.950 1_554 S
C527 C544 1.574 . S
C527 C546 1.368 . S
C527 H551 0.949 . S
H528 C532 0.949 . S
C529 C530 1.349 . S
C529 C531 1.327 . S
C529 H552 0.953 . S
C530 C529 1.349 . S
C530 C542 1.349 . S
C531 C529 1.327 . S
C531 C547 1.429 . S
C531 H553 0.950 1_556 S
C532 H528 0.949 . S
C532 C540 1.574 . S
C532 C548 1.368 . S
H533 C541 0.950 . S
H534 C539 0.950 . S
H535 C540 0.949 . S
H536 C542 0.950 . S
H537 C543 0.950 . S
H538 C544 0.949 . S
C539 H534 0.950 . S
C539 C541 1.327 . S
C539 C545 1.429 . S
C540 C532 1.574 . S
C540 H535 0.949 . S
C540 C546 1.368 1_556 S
C541 C525 1.349 . S
C541 H533 0.950 . S
C541 C539 1.327 . S
C542 C530 1.349 . S
C542 H536 0.950 . S
C542 C543 1.327 . S
C543 H537 0.950 . S
C543 C542 1.327 . S
C543 C547 1.429 . S
C544 C527 1.574 . S
C544 H538 0.949 . S
C544 C548 1.368 1_554 S
C545 C526 1.429 . S
C545 C539 1.429 . S
C545 C546 1.523 . S
C546 C527 1.368 . S
C546 C540 1.368 1_554 S
C546 C545 1.523 . S
C547 C531 1.429 . S
C547 C543 1.429 . S
C547 C548 1.523 . S
C548 C532 1.368 . S
C548 C544 1.368 1_556 S
C548 C547 1.523 . S
H549 C524 0.953 . S
H550 C526 0.950 1_556 S
H551 C527 0.949 . S
H552 C529 0.953 . S
H553 C531 0.950 1_554 S
C554 C555 1.349 . S
C554 C556 1.327 . S
C554 H579 0.950 . S
C555 C554 1.349 . S
C555 C571 1.349 . S
C556 C554 1.327 . S
C556 C575 1.429 . S
C556 H580 0.950 . S
C557 C574 1.574 . S
C557 C576 1.368 1_545 S
C557 H581 0.949 . S
H558 C562 0.949 . S
C559 C560 1.349 . S
C559 C561 1.327 . S
C559 H582 0.950 . S
C560 C559 1.349 . S
C560 C572 1.349 . S
C561 C559 1.327 . S
C561 C577 1.429 . S
C561 H583 0.950 . S
C562 H558 0.949 . S
C562 C570 1.574 . S
C562 C578 1.368 1_565 S
H563 C571 0.950 . S
H564 C569 0.950 . S
H565 C570 0.949 . S
H566 C572 0.950 . S
H567 C573 0.950 . S
H568 C574 0.949 . S
C569 H564 0.950 . S
C569 C571 1.327 . S
C569 C575 1.429 . S
C570 C562 1.574 . S
C570 H565 0.949 . S
C570 C576 1.368 1_655 S
C571 C555 1.349 . S
C571 H563 0.950 . S
C571 C569 1.327 . S
C572 C560 1.349 . S
C572 H566 0.950 . S
C572 C573 1.327 . S
C573 H567 0.950 . S
C573 C572 1.327 . S
C573 C577 1.429 . S
C574 C557 1.574 . S
C574 H568 0.949 . S
C574 C578 1.368 1_455 S
C575 C556 1.429 . S
C575 C569 1.429 . S
C575 C576 1.523 . S
C576 C557 1.368 1_565 S
C576 C570 1.368 1_455 S
C576 C575 1.523 . S
C577 C561 1.429 . S
C577 C573 1.429 . S
C577 C578 1.523 . S
C578 C562 1.368 1_545 S
C578 C574 1.368 1_655 S
C578 C577 1.523 . S
H579 C554 0.950 . S
H580 C556 0.950 . S
H581 C557 0.949 . S
H582 C559 0.950 . S
H583 C561 0.950 . S
C105 C23 2.219 . S
C110 C3 2.215 1_556 S
C135 C10 2.219 . S
C140 C16 2.215 . S
C165 C49 2.219 . S
C170 C29 2.215 1_554 S
C195 C36 2.219 . S
C200 C42 2.215 . S
C225 C57 2.215 1_554 S
C230 C66 2.219 . S
C255 C70 2.215 . S
C260 C53 2.219 . S
C285 C83 2.215 1_556 S
C290 C92 2.219 . S
C315 C79 2.219 . S
C320 C96 2.215 . S
C345 C1 0.297 . S
C350 C40 0.297 . S
C375 C14 0.297 . S
C380 C27 0.297 . S
C405 C101 0.296 . S
C410 C62 0.297 . S
C435 C88 0.297 . S
C440 C75 0.296 . S
C465 C5 1.904 . S
C470 C55 1.904 . S
C495 C68 1.904 . S
C500 C18 1.904 . S
C525 C81 1.904 . S
C530 C31 1.904 . S
C555 C94 1.904 . S
C560 C44 1.904 . S
