# Generated by pormake.
# Topology sod, (4)-cn, num edge types: 1
# Building blocks:
#     Node 0, Type 0, BuildingBlock: CEKHIL_clean_sbu_0, # of connection points: 4
#     Node 1, Type 0, BuildingBlock: CEKHIL_clean_sbu_0, # of connection points: 4
#     Node 2, Type 0, BuildingBlock: CEKHIL_clean_sbu_0, # of connection points: 4
#     Node 3, Type 0, BuildingBlock: CEKHIL_clean_sbu_0, # of connection points: 4
#     Node 4, Type 0, BuildingBlock: CEKHIL_clean_sbu_0, # of connection points: 4
#     Node 5, Type 0, BuildingBlock: CEKHIL_clean_sbu_0, # of connection points: 4
#     Node 6, Type 0, BuildingBlock: CEKHIL_clean_sbu_0, # of connection points: 4
#     Node 7, Type 0, BuildingBlock: CEKHIL_clean_sbu_0, # of connection points: 4
#     Node 8, Type 0, BuildingBlock: CEKHIL_clean_sbu_0, # of connection points: 4
#     Node 9, Type 0, BuildingBlock: CEKHIL_clean_sbu_0, # of connection points: 4
#     Node 10, Type 0, BuildingBlock: CEKHIL_clean_sbu_0, # of connection points: 4
#     Node 11, Type 0, BuildingBlock: CEKHIL_clean_sbu_0, # of connection points: 4
#     Edge 12, Type (0, 0), BuildingBlock: MIFKUJ_clean_linker_0, # of connection points: 2
#     Edge 13, Type (0, 0), BuildingBlock: MIFKUJ_clean_linker_0, # of connection points: 2
#     Edge 14, Type (0, 0), BuildingBlock: MIFKUJ_clean_linker_0, # of connection points: 2
#     Edge 15, Type (0, 0), BuildingBlock: MIFKUJ_clean_linker_0, # of connection points: 2
#     Edge 16, Type (0, 0), BuildingBlock: MIFKUJ_clean_linker_0, # of connection points: 2
#     Edge 17, Type (0, 0), BuildingBlock: MIFKUJ_clean_linker_0, # of connection points: 2
#     Edge 18, Type (0, 0), BuildingBlock: MIFKUJ_clean_linker_0, # of connection points: 2
#     Edge 19, Type (0, 0), BuildingBlock: MIFKUJ_clean_linker_0, # of connection points: 2
#     Edge 20, Type (0, 0), BuildingBlock: MIFKUJ_clean_linker_0, # of connection points: 2
#     Edge 21, Type (0, 0), BuildingBlock: MIFKUJ_clean_linker_0, # of connection points: 2
#     Edge 22, Type (0, 0), BuildingBlock: MIFKUJ_clean_linker_0, # of connection points: 2
#     Edge 23, Type (0, 0), BuildingBlock: MIFKUJ_clean_linker_0, # of connection points: 2
#     Edge 24, Type (0, 0), BuildingBlock: MIFKUJ_clean_linker_0, # of connection points: 2
#     Edge 25, Type (0, 0), BuildingBlock: MIFKUJ_clean_linker_0, # of connection points: 2
#     Edge 26, Type (0, 0), BuildingBlock: MIFKUJ_clean_linker_0, # of connection points: 2
#     Edge 27, Type (0, 0), BuildingBlock: MIFKUJ_clean_linker_0, # of connection points: 2
#     Edge 28, Type (0, 0), BuildingBlock: MIFKUJ_clean_linker_0, # of connection points: 2
#     Edge 29, Type (0, 0), BuildingBlock: MIFKUJ_clean_linker_0, # of connection points: 2
#     Edge 30, Type (0, 0), BuildingBlock: MIFKUJ_clean_linker_0, # of connection points: 2
#     Edge 31, Type (0, 0), BuildingBlock: MIFKUJ_clean_linker_0, # of connection points: 2
#     Edge 32, Type (0, 0), BuildingBlock: MIFKUJ_clean_linker_0, # of connection points: 2
#     Edge 33, Type (0, 0), BuildingBlock: MIFKUJ_clean_linker_0, # of connection points: 2
#     Edge 34, Type (0, 0), BuildingBlock: MIFKUJ_clean_linker_0, # of connection points: 2
#     Edge 35, Type (0, 0), BuildingBlock: MIFKUJ_clean_linker_0, # of connection points: 2
# Relax obj value: 0.139
# Max RMSD: 0.179
# Mean RMSD: 0.169
data_MOF--net-sod--node1-CEKHIL_clean_sbu_0--edge1-MIFKUJ_clean_linker_0
_symmetry_space_group_name_H-M    P1
_symmetry_Int_Tables_number       1
_symmetry_cell_setting            triclinic
loop_
_symmetry_equiv_pos_as_xyz
'x, y, z'
_cell_length_a     54.374621
_cell_length_b     54.709835
_cell_length_c     54.537656
_cell_angle_alpha  91.934814
_cell_angle_beta   90.004324
_cell_angle_gamma 90.921867
loop_
_atom_site_label
_atom_site_type_symbol
_atom_site_fract_x
_atom_site_fract_y
_atom_site_fract_z
_atom_type_partial_charge
Co0 Co 0.00513 0.26438 0.50654 0.0
O1 O 0.98637 0.28914 0.49072 0.0
O2 O 0.02577 0.2819 0.48403 0.0
C3 C 0.97687 0.23384 0.50213 0.0
O4 O 0.03065 0.24006 0.51779 0.0
Co5 Co 0.98776 0.23899 0.55377 0.0
O6 O 0.0127 0.21444 0.54397 0.0
C7 C 0.00398 0.29099 0.55592 0.0
C8 C 0.0065 0.2946 0.47911 0.0
C9 C 0.03032 0.22014 0.52976 0.0
O10 O 0.01332 0.28875 0.53424 0.0
O11 O 0.9916 0.27385 0.56587 0.0
O12 O 0.99142 0.2389 0.48397 0.0
O13 O 0.97868 0.24837 0.52114 0.0
Co14 Co 0.75803 0.00637 0.50918 0.0
O15 O 0.7847 0.98954 0.49275 0.0
O16 O 0.77487 0.98633 0.53193 0.0
C17 C 0.72974 0.99873 0.47968 0.0
O18 O 0.73177 0.01884 0.5329 0.0
Co19 Co 0.73055 0.05059 0.48933 0.0
O20 O 0.70441 0.04078 0.51268 0.0
C21 C 0.78132 0.05698 0.50884 0.0
C22 C 0.78906 0.97991 0.51377 0.0
C23 C 0.71054 0.02866 0.53117 0.0
O24 O 0.78087 0.03512 0.51695 0.0
O25 O 0.76371 0.06581 0.49646 0.0
O26 O 0.73413 0.98227 0.49572 0.0
O27 O 0.74317 0.01834 0.48122 0.0
Co28 Co 0.00211 0.76675 0.5272 0.0
O29 O 0.984 0.74111 0.54332 0.0
O30 O 0.02349 0.75006 0.54896 0.0
C31 C 0.9739 0.7963 0.53227 0.0
O32 O 0.0272 0.79203 0.51583 0.0
Co33 Co 0.98393 0.79112 0.48 0.0
O34 O 0.01043 0.81571 0.48762 0.0
C35 C 0.99903 0.73963 0.47852 0.0
C36 C 0.00455 0.73653 0.55437 0.0
C37 C 0.02761 0.81102 0.50253 0.0
O38 O 0.01017 0.74301 0.49922 0.0
O39 O 0.98543 0.75572 0.46908 0.0
O40 O 0.98852 0.79138 0.55026 0.0
O41 O 0.97537 0.78205 0.51303 0.0
Co42 Co 0.26106 0.02265 0.50903 0.0
O43 O 0.23404 0.03662 0.49145 0.0
O44 O 0.24364 0.04538 0.53022 0.0
C45 C 0.28966 0.02694 0.47944 0.0
O46 O 0.28784 0.01368 0.53337 0.0
Co47 Co 0.28797 0.97573 0.49139 0.0
O48 O 0.31385 0.98759 0.51471 0.0
C49 C 0.23798 0.97183 0.51244 0.0
C50 C 0.2294 0.04904 0.51162 0.0
C51 C 0.30845 0.00237 0.53235 0.0
O52 O 0.23875 0.99471 0.51897 0.0
O53 O 0.25511 0.96132 0.50013 0.0
O54 O 0.28424 0.04543 0.49394 0.0
O55 O 0.2764 0.00742 0.482 0.0
Co56 Co 0.51834 0.02575 0.26584 0.0
O57 O 0.53806 0.0408 0.24076 0.0
O58 O 0.49981 0.05059 0.25036 0.0
C59 C 0.54721 0.02607 0.29544 0.0
O60 O 0.49233 0.01638 0.29093 0.0
Co61 Co 0.52986 0.97592 0.2882 0.0
O62 O 0.50473 0.98499 0.31307 0.0
C63 C 0.51079 0.97734 0.23765 0.0
C64 C 0.51903 0.05424 0.23676 0.0
C65 C 0.48993 0.00224 0.30919 0.0
O66 O 0.5064 1.00031 0.24062 0.0
O67 O 0.52126 0.96472 0.25386 0.0
O68 O 0.53479 0.0457 0.29154 0.0
O69 O 0.54328 0.00785 0.2802 0.0
Co70 Co 0.01787 0.50513 0.26454 0.0
O71 O 0.03693 0.48846 0.28861 0.0
O72 O 0.99696 0.48299 0.28224 0.0
C73 C 0.04472 0.50091 0.23313 0.0
O74 O 0.99201 0.51725 0.2408 0.0
Co75 Co 0.03634 0.55296 0.24088 0.0
O76 O 0.00928 0.54566 0.21713 0.0
C77 C 0.02175 0.55351 0.29282 0.0
C78 C 0.01652 0.4774 0.2944 0.0
C79 C 0.99172 0.53092 0.22203 0.0
O80 O 0.01108 0.53245 0.28951 0.0
O81 O 0.03485 0.56361 0.27638 0.0
O82 O 0.03007 0.48279 0.23841 0.0
O83 O 0.04417 0.51958 0.24816 0.0
Co84 Co 0.51861 0.00412 0.76419 0.0
O85 O 0.53574 0.98818 0.79007 0.0
O86 O 0.49617 0.983 0.78146 0.0
C87 C 0.54721 0.99733 0.73496 0.0
O88 O 0.49445 0.01595 0.73856 0.0
Co89 Co 0.53959 0.04934 0.73812 0.0
O90 O 0.51505 0.0397 0.71252 0.0
C91 C 0.5197 0.05488 0.78856 0.0
C92 C 0.51486 0.97758 0.795 0.0
C93 C 0.49621 0.02692 0.71807 0.0
O94 O 0.51157 0.03261 0.78766 0.0
O95 O 0.53229 0.06431 0.77132 0.0
O96 O 0.531 0.9804 0.73964 0.0
O97 O 0.54665 0.01682 0.7489 0.0
Co98 Co 0.01787 0.5256 0.76671 0.0
O99 O 0.03815 0.5414 0.74248 0.0
O100 O 0.99934 0.55016 0.75084 0.0
C101 C 0.04568 0.52593 0.79734 0.0
O102 O 0.99119 0.51557 0.79083 0.0
Co103 Co 0.02934 0.47559 0.78888 0.0
O104 O 0.00295 0.48371 0.81269 0.0
C105 C 0.01166 0.4773 0.73791 0.0
C106 C 0.01891 0.55437 0.73793 0.0
C107 C 0.98818 0.50092 0.8086 0.0
O108 O 0.00709 0.50023 0.74088 0.0
O109 O 0.02176 0.4646 0.7543 0.0
O110 O 0.03331 0.54553 0.79311 0.0
O111 O 0.04247 0.50787 0.78177 0.0
Co112 Co 0.25975 0.50616 0.00798 0.0
O113 O 0.28663 0.4906 0.99058 0.0
O114 O 0.27753 0.486 0.02978 0.0
C115 C 0.23072 0.49873 0.97936 0.0
O116 O 0.23349 0.5169 0.03244 0.0
Co117 Co 0.23155 0.55082 0.98994 0.0
O118 O 0.2075 0.5433 0.01607 0.0
C119 C 0.28276 0.55685 0.0076 0.0
C120 C 0.29161 0.48052 0.01124 0.0
C121 C 0.21342 0.52902 0.03298 0.0
O122 O 0.28205 0.53522 0.01625 0.0
O123 O 0.26518 0.56555 0.99514 0.0
O124 O 0.23629 0.4818 0.99449 0.0
O125 O 0.24379 0.51859 0.9808 0.0
Co126 Co 0.50204 0.26562 0.02553 0.0
O127 O 0.48516 0.23917 0.04149 0.0
O128 O 0.5242 0.25001 0.04741 0.0
C129 C 0.47232 0.29339 0.03105 0.0
O130 O 0.52593 0.29205 0.01424 0.0
Co131 Co 0.48292 0.29033 0.97926 0.0
O132 O 0.50698 0.31673 0.98854 0.0
C133 C 0.50429 0.2409 0.97492 0.0
C134 C 0.50585 0.23565 0.0527 0.0
C135 C 0.52496 0.31201 0.00248 0.0
O136 O 0.51118 0.24235 0.99753 0.0
O137 O 0.49177 0.25745 0.9648 0.0
O138 O 0.48786 0.28964 0.0486 0.0
O139 O 0.47418 0.2794 0.01164 0.0
Co140 Co 0.76051 0.52249 0.01031 0.0
O141 O 0.73505 0.53767 0.99153 0.0
O142 O 0.7432 0.5459 0.03076 0.0
C143 C 0.79041 0.52527 0.98178 0.0
O144 O 0.7856 0.51255 0.0359 0.0
Co145 Co 0.78605 0.47435 0.99443 0.0
O146 O 0.81134 0.48527 0.01879 0.0
C147 C 0.73519 0.47267 0.01353 0.0
C148 C 0.72996 0.55012 0.01158 0.0
C149 C 0.80571 0.50043 0.03602 0.0
O150 O 0.73649 0.49567 0.01939 0.0
O151 O 0.75246 0.46115 0.00242 0.0
O152 O 0.78541 0.54407 0.99607 0.0
O153 O 0.77621 0.50635 0.98403 0.0
Co154 Co 0.50533 0.76471 0.00624 0.0
O155 O 0.4856 0.78848 0.99006 0.0
O156 O 0.52521 0.78241 0.98332 0.0
C157 C 0.47829 0.73311 0.00256 0.0
O158 O 0.53175 0.74143 0.01749 0.0
Co159 Co 0.48933 0.73999 0.05423 0.0
O160 O 0.51762 0.71831 0.04791 0.0
C161 C 0.5032 0.79245 0.05498 0.0
C162 C 0.50548 0.79432 0.97822 0.0
C163 C 0.53391 0.72352 0.03205 0.0
O164 O 0.51288 0.7899 0.03345 0.0
O165 O 0.49122 0.77524 0.06519 0.0
O166 O 0.49248 0.73842 0.98421 0.0
O167 O 0.47957 0.74802 0.02133 0.0
H168 H 0.9712 0.32814 0.46974 0.0
H169 H 0.97273 0.36039 0.43975 0.0
H170 H 0.04515 0.33752 0.41738 0.0
H171 H 0.044 0.30571 0.44783 0.0
H172 H 0.04349 0.386 0.42095 0.0
H173 H 0.99158 0.32203 0.38342 0.0
H174 H 0.95589 0.29359 0.38212 0.0
H175 H 0.90687 0.35412 0.38986 0.0
H176 H 0.94228 0.3829 0.3915 0.0
H177 H 0.05342 0.44845 0.30985 0.0
H178 H 0.05145 0.41801 0.34162 0.0
H179 H 0.97574 0.43642 0.35598 0.0
H180 H 0.97728 0.46565 0.32302 0.0
H181 H 0.97839 0.39098 0.35771 0.0
H182 H 0.02796 0.45529 0.39497 0.0
H183 H 0.06242 0.48514 0.39796 0.0
H184 H 0.11412 0.42666 0.39324 0.0
H185 H 0.07997 0.39647 0.38996 0.0
C186 C 0.98745 0.32998 0.45844 0.0
C187 C 0.00742 0.31427 0.46107 0.0
C188 C 0.98827 0.34838 0.44121 0.0
C189 C 0.00891 0.35118 0.42597 0.0
C190 C 0.02901 0.33572 0.42886 0.0
C191 C 0.0283 0.31749 0.44624 0.0
C192 C 0.00961 0.37011 0.40695 0.0
C193 C 0.0294 0.38693 0.40695 0.0
C194 C 0.99084 0.3719 0.38912 0.0
C195 C 0.96958 0.35459 0.38777 0.0
C196 C 0.97319 0.32925 0.38496 0.0
C197 C 0.95301 0.31308 0.38415 0.0
C198 C 0.92913 0.32204 0.38596 0.0
C199 C 0.92537 0.3472 0.38848 0.0
C200 C 0.94548 0.36345 0.38932 0.0
C201 C 0.03639 0.44598 0.31984 0.0
C202 C 0.01552 0.45943 0.31404 0.0
C203 C 0.0353 0.4287 0.33818 0.0
C204 C 0.01359 0.42517 0.35175 0.0
C205 C 0.99274 0.4387 0.34589 0.0
C206 C 0.99363 0.45547 0.32708 0.0
C207 C 0.01236 0.40697 0.37157 0.0
C208 C 0.99248 0.39023 0.37173 0.0
C209 C 0.03085 0.40553 0.3898 0.0
C210 C 0.05141 0.42364 0.39203 0.0
C211 C 0.04668 0.44881 0.39445 0.0
C212 C 0.06616 0.46579 0.39621 0.0
C213 C 0.09044 0.4578 0.39574 0.0
C214 C 0.0953 0.43282 0.39359 0.0
C215 C 0.0759 0.41577 0.39182 0.0
H216 H 0.10549 0.47097 0.39708 0.0
H217 H 0.91354 0.30948 0.38535 0.0
H218 H 0.72989 0.01397 0.43338 0.0
H219 H 0.69486 0.01736 0.40588 0.0
H220 H 0.64735 0.98546 0.46002 0.0
H221 H 0.68301 0.98088 0.48724 0.0
H222 H 0.63262 0.97053 0.41671 0.0
H223 H 0.65052 0.04833 0.45273 0.0
H224 H 0.67614 0.08379 0.46643 0.0
H225 H 0.69455 0.09803 0.39164 0.0
H226 H 0.66938 0.06239 0.37749 0.0
H227 H 0.55068 0.05614 0.33663 0.0
H228 H 0.57679 0.05069 0.37268 0.0
H229 H 0.60675 0.98553 0.33819 0.0
H230 H 0.58018 0.99037 0.30281 0.0
H231 H 0.62317 0.05144 0.37956 0.0
H232 H 0.62263 0.94425 0.37792 0.0
H233 H 0.59343 0.91031 0.36832 0.0
H234 H 0.53271 0.95801 0.38234 0.0
H235 H 0.56152 0.99213 0.39242 0.0
C236 C 0.71203 0.00727 0.43921 0.0
C237 C 0.70904 0.99718 0.46233 0.0
C238 C 0.69198 0.00944 0.42361 0.0
C239 C 0.66829 0.0024 0.43116 0.0
C240 C 0.66541 0.99121 0.45387 0.0
C241 C 0.68574 0.98849 0.46934 0.0
C242 C 0.64676 0.00745 0.4154 0.0
C243 C 0.63046 0.98824 0.40869 0.0
C244 C 0.64322 0.03087 0.4057 0.0
C245 C 0.65813 0.05259 0.41406 0.0
C246 C 0.66012 0.05894 0.43921 0.0
C247 C 0.67457 0.07908 0.44706 0.0
C248 C 0.68698 0.09314 0.42992 0.0
C249 C 0.68492 0.08712 0.40489 0.0
C250 C 0.67054 0.06697 0.39695 0.0
C251 C 0.5628 0.04063 0.33686 0.0
C252 C 0.56333 0.02362 0.31699 0.0
C253 C 0.57769 0.03751 0.35744 0.0
C254 C 0.59343 0.01741 0.35842 0.0
C255 C 0.59428 1.00077 0.33828 0.0
C256 C 0.57921 0.00368 0.31793 0.0
C257 C 0.6098 0.01418 0.3799 0.0
C258 C 0.62508 0.0338 0.38779 0.0
C259 C 0.61174 0.99141 0.39136 0.0
C260 C 0.59429 0.9708 0.38577 0.0
C261 C 0.60306 0.94746 0.37913 0.0
C262 C 0.58657 0.9282 0.37356 0.0
C263 C 0.56124 0.93202 0.37467 0.0
C264 C 0.55234 0.95509 0.38142 0.0
C265 C 0.56875 0.9744 0.38704 0.0
H266 H 0.5485 0.91709 0.37032 0.0
H267 H 0.69817 0.10871 0.43603 0.0
H268 H 0.05538 0.58369 0.31534 0.0
H269 H 0.04997 0.60945 0.35237 0.0
H270 H 0.97614 0.58091 0.36033 0.0
H271 H 0.98168 0.55439 0.32343 0.0
H272 H 0.98373 0.63537 0.35825 0.0
H273 H 0.01106 0.56541 0.40088 0.0
H274 H 0.03898 0.5314 0.40841 0.0
H275 H 0.09859 0.58251 0.42188 0.0
H276 H 0.07113 0.61683 0.41402 0.0
H277 H 0.96169 0.71125 0.4608 0.0
H278 H 0.96423 0.67417 0.43478 0.0
H279 H 0.04353 0.67866 0.4382 0.0
H280 H 0.04083 0.715 0.46581 0.0
H281 H 0.03081 0.63312 0.43608 0.0
H282 H 0.00841 0.70162 0.38899 0.0
H283 H 0.98412 0.73732 0.37793 0.0
H284 H 0.91976 0.6914 0.36879 0.0
H285 H 0.94361 0.65547 0.3801 0.0
C286 C 0.03809 0.58264 0.32515 0.0
C287 C 0.01887 0.56717 0.31646 0.0
C288 C 0.0351 0.59726 0.34635 0.0
C289 C 0.01271 0.59699 0.35906 0.0
C290 C 0.9936 0.58122 0.35077 0.0
C291 C 0.99679 0.5661 0.32979 0.0
C292 C 0.00885 0.61486 0.37961 0.0
C293 C 0.99353 0.63464 0.37554 0.0
C294 C 0.02255 0.6143 0.40161 0.0
C295 C 0.03905 0.5937 0.40667 0.0
C296 C 0.03017 0.5694 0.40525 0.0
C297 C 0.0459 0.55006 0.40961 0.0
C298 C 0.07055 0.55478 0.41557 0.0
C299 C 0.0795 0.57887 0.41725 0.0
C300 C 0.06384 0.59828 0.41287 0.0
C301 C 0.97964 0.70405 0.45626 0.0
C302 C 0.00109 0.71599 0.465 0.0
C303 C 0.9811 0.68297 0.44127 0.0
C304 C 0.00408 0.67399 0.4338 0.0
C305 C 0.02557 0.68528 0.44352 0.0
C306 C 0.02407 0.70604 0.45922 0.0
C307 C 0.00557 0.65382 0.41482 0.0
C308 C 0.02063 0.63373 0.41902 0.0
C309 C 0.9921 0.65436 0.39255 0.0
C310 C 0.97773 0.67592 0.38565 0.0
C311 C 0.98904 0.69917 0.38478 0.0
C312 C 0.97535 0.71944 0.37845 0.0
C313 C 0.9504 0.71664 0.37274 0.0
C314 C 0.93908 0.69355 0.37327 0.0
C315 C 0.95267 0.67322 0.37962 0.0
H316 H 0.93983 0.73235 0.36784 0.0
H317 H 0.08271 0.53978 0.41892 0.0
H318 H 0.31087 0.98776 0.4565 0.0
H319 H 0.34615 0.98755 0.42889 0.0
H320 H 0.35163 0.06617 0.43575 0.0
H321 H 0.31643 0.06654 0.46413 0.0
H322 H 0.3529 0.0425 0.38465 0.0
H323 H 0.39157 0.04104 0.46388 0.0
H324 H 0.39644 0.02573 0.50559 0.0
H325 H 0.41258 0.95426 0.47547 0.0
H326 H 0.40733 0.96902 0.43357 0.0
H327 H 0.46536 0.04473 0.31838 0.0
H328 H 0.43279 0.05229 0.34838 0.0
H329 H 0.43514 0.97688 0.36905 0.0
H330 H 0.46859 0.96958 0.33992 0.0
H331 H 0.43072 0.00326 0.40811 0.0
H332 H 0.38859 0.00141 0.33054 0.0
H333 H 0.38027 0.01347 0.2882 0.0
H334 H 0.36784 0.08729 0.31389 0.0
H335 H 0.37638 0.07573 0.35637 0.0
C336 C 0.31957 0.00504 0.45225 0.0
C337 C 0.31094 0.02718 0.46258 0.0
C338 C 0.33973 0.00486 0.43646 0.0
C339 C 0.35148 0.02682 0.43039 0.0
C340 C 0.34275 0.04905 0.44029 0.0
C341 C 0.32275 0.04922 0.45652 0.0
C342 C 0.37293 0.02616 0.4137 0.0
C343 C 0.37015 0.03441 0.38984 0.0
C344 C 0.39503 0.01488 0.4204 0.0
C345 C 0.39887 0.0061 0.44557 0.0
C346 C 0.396 0.02201 0.46614 0.0
C347 C 0.39884 0.01344 0.48983 0.0
C348 C 0.40477 0.98903 0.49318 0.0
C349 C 0.40797 0.97317 0.47285 0.0
C350 C 0.40508 0.98163 0.44912 0.0
C351 C 0.45884 0.02972 0.32923 0.0
C352 C 0.46943 0.0065 0.32664 0.0
C353 C 0.44013 0.03405 0.34635 0.0
C354 C 0.43111 0.01507 0.36078 0.0
C355 C 0.44173 0.99187 0.3582 0.0
C356 C 0.46079 0.98767 0.34145 0.0
C357 C 0.41075 0.01932 0.37865 0.0
C358 C 0.41367 0.01167 0.40283 0.0
C359 C 0.38858 0.03078 0.37209 0.0
C360 C 0.38339 0.03776 0.34658 0.0
C361 C 0.38426 0.02025 0.32713 0.0
C362 C 0.37947 0.02699 0.30311 0.0
C363 C 0.37361 0.05115 0.29835 0.0
C364 C 0.37243 0.0686 0.3176 0.0
C365 C 0.37723 0.06196 0.34165 0.0
H366 H 0.36991 0.05633 0.27974 0.0
H367 H 0.40691 0.98242 0.51153 0.0
H368 H 0.97898 0.57484 0.71732 0.0
H369 H 0.97823 0.60477 0.68508 0.0
H370 H 0.05749 0.60562 0.68263 0.0
H371 H 0.05841 0.57516 0.71474 0.0
H372 H 0.03408 0.65353 0.68492 0.0
H373 H 0.03131 0.57723 0.63877 0.0
H374 H 0.01555 0.53568 0.62831 0.0
H375 H 0.94443 0.5645 0.61287 0.0
H376 H 0.95966 0.60622 0.62365 0.0
H377 H 0.04586 0.7217 0.5776 0.0
H378 H 0.0492 0.69011 0.60791 0.0
H379 H 0.97109 0.67579 0.60269 0.0
H380 H 0.96769 0.70714 0.57187 0.0
H381 H 0.99522 0.63398 0.60411 0.0
H382 H 0.99601 0.70921 0.6513 0.0
H383 H 0.00975 0.75107 0.66333 0.0
H384 H 0.08209 0.72501 0.67843 0.0
H385 H 0.06885 0.68301 0.66615 0.0
C386 C 0.99628 0.58137 0.70995 0.0
C387 C 0.01878 0.57265 0.71855 0.0
C388 C 0.9958 0.59841 0.69148 0.0
C389 C 0.01779 0.6073 0.68144 0.0
C390 C 0.04033 0.59892 0.69017 0.0
C391 C 0.04082 0.58151 0.70843 0.0
C392 C 0.01702 0.62543 0.66187 0.0
C393 C 0.026 0.6492 0.66707 0.0
C394 C 0.00574 0.61987 0.63894 0.0
C395 C 0.99657 0.59483 0.63226 0.0
C396 C 0.01225 0.57469 0.63336 0.0
C397 C 0.00342 0.55111 0.62733 0.0
C398 C 0.97899 0.54744 0.61998 0.0
C399 C 0.96335 0.56737 0.61859 0.0
C400 C 0.97207 0.59099 0.62464 0.0
C401 C 0.02937 0.71182 0.58285 0.0
C402 C 0.00647 0.71702 0.57242 0.0
C403 C 0.0313 0.69381 0.60028 0.0
C404 C 0.01035 0.6808 0.60789 0.0
C405 C 0.98751 0.68563 0.59716 0.0
C406 C 0.98557 0.7036 0.5796 0.0
C407 C 0.0123 0.66224 0.62708 0.0
C408 C 0.00347 0.63836 0.62187 0.0
C409 C 0.02347 0.66777 0.65014 0.0
C410 C 0.0315 0.693 0.65755 0.0
C411 C 0.0149 0.71243 0.65698 0.0
C412 C 0.02259 0.73618 0.66389 0.0
C413 C 0.0468 0.74071 0.67157 0.0
C414 C 0.06335 0.72148 0.67243 0.0
C415 C 0.05576 0.6977 0.66552 0.0
H416 H 0.05271 0.75911 0.67691 0.0
H417 H 0.97219 0.52917 0.61532 0.0
H418 H 0.49893 0.0295 0.66844 0.0
H419 H 0.46544 0.02636 0.63875 0.0
H420 H 0.41328 0.01759 0.6976 0.0
H421 H 0.44712 0.01941 0.72738 0.0
H422 H 0.39991 0.98889 0.66255 0.0
H423 H 0.42145 0.0733 0.6655 0.0
H424 H 0.44839 0.10995 0.66474 0.0
H425 H 0.46952 0.09123 0.59069 0.0
H426 H 0.44295 0.05427 0.59111 0.0
H427 H 0.29964 0.01606 0.58035 0.0
H428 H 0.3299 0.02135 0.61365 0.0
H429 H 0.38826 0.00353 0.56294 0.0
H430 H 0.35819 0.99758 0.52979 0.0
H431 H 0.39526 0.04818 0.59589 0.0
H432 H 0.37316 0.96148 0.59642 0.0
H433 H 0.34337 0.92719 0.59888 0.0
H434 H 0.31938 0.9546 0.66946 0.0
H435 H 0.34881 0.98928 0.66723 0.0
C436 C 0.48031 0.02699 0.67508 0.0
C437 C 0.47563 0.02496 0.70027 0.0
C438 C 0.46111 0.02534 0.65807 0.0
C439 C 0.43662 0.02241 0.66587 0.0
C440 C 0.43194 0.02 0.69105 0.0
C441 C 0.45128 0.02109 0.70808 0.0
C442 C 0.41612 0.02144 0.64762 0.0
C443 C 0.39873 0.00216 0.64827 0.0
C444 C 0.41438 0.03864 0.62881 0.0
C445 C 0.43035 0.0609 0.62842 0.0
C446 C 0.43196 0.07691 0.64911 0.0
C447 C 0.44715 0.09775 0.64873 0.0
C448 C 0.4607 0.10288 0.6277 0.0
C449 C 0.45903 0.08721 0.60697 0.0
C450 C 0.44388 0.06633 0.60726 0.0
C451 C 0.31892 0.01331 0.57632 0.0
C452 C 0.32653 0.00628 0.55249 0.0
C453 C 0.33615 0.01629 0.59534 0.0
C454 C 0.36126 0.01277 0.59072 0.0
C455 C 0.36895 0.0063 0.56686 0.0
C456 C 0.35173 0.00281 0.54798 0.0
C457 C 0.37963 0.01552 0.61075 0.0
C458 C 0.39649 0.03515 0.61039 0.0
C459 C 0.38049 0.99905 0.63013 0.0
C460 C 0.36297 0.97811 0.63153 0.0
C461 C 0.36137 0.96032 0.61235 0.0
C462 C 0.34459 0.94078 0.61373 0.0
C463 C 0.32944 0.93875 0.63428 0.0
C464 C 0.3311 0.95621 0.65353 0.0
C465 C 0.34783 0.9758 0.65223 0.0
H466 H 0.31646 0.92362 0.63531 0.0
H467 H 0.47245 0.11903 0.62744 0.0
H468 H 0.97955 0.3045 0.5976 0.0
H469 H 0.98139 0.34337 0.62024 0.0
H470 H 0.0351 0.37065 0.5694 0.0
H471 H 0.03328 0.33131 0.54607 0.0
H472 H 0.04679 0.38026 0.62023 0.0
H473 H 0.98185 0.39381 0.56537 0.0
H474 H 0.94422 0.38453 0.54143 0.0
H475 H 0.90273 0.3786 0.60801 0.0
H476 H 0.9402 0.38744 0.6324 0.0
H477 H 0.02444 0.49259 0.69256 0.0
H478 H 0.02346 0.46778 0.65402 0.0
H479 H 0.98669 0.40934 0.69131 0.0
H480 H 0.98862 0.43353 0.72992 0.0
H481 H 0.96928 0.42421 0.63818 0.0
H482 H 0.03816 0.39846 0.69023 0.0
H483 H 0.07595 0.40756 0.71407 0.0
H484 H 0.10993 0.43804 0.65066 0.0
H485 H 0.07211 0.42943 0.62656 0.0
C486 C 0.99189 0.31861 0.59109 0.0
C487 C 0.00631 0.31467 0.56993 0.0
C488 C 0.99276 0.34095 0.60404 0.0
C489 C 0.0081 0.36 0.59631 0.0
C490 C 0.023 0.35618 0.57553 0.0
C491 C 0.02194 0.33373 0.56226 0.0
C492 C 0.00853 0.38345 0.61075 0.0
C493 C 0.03003 0.39034 0.62358 0.0
C494 C 0.98661 0.39653 0.61524 0.0
C495 C 0.96391 0.3912 0.60073 0.0
C496 C 0.96475 0.39034 0.57493 0.0
C497 C 0.94343 0.38519 0.56127 0.0
C498 C 0.9211 0.38096 0.57319 0.0
C499 C 0.92005 0.38189 0.5988 0.0
C500 C 0.94132 0.38702 0.61256 0.0
C501 C 0.01562 0.47468 0.69229 0.0
C502 C 0.00653 0.46489 0.71406 0.0
C503 C 0.01518 0.46055 0.67038 0.0
C504 C 0.00504 0.43679 0.66996 0.0
C505 C 0.9945 0.42768 0.69134 0.0
C506 C 0.9956 0.44147 0.71332 0.0
C507 C 0.00725 0.42032 0.64806 0.0
C508 C 0.98621 0.41468 0.63406 0.0
C509 C 0.02958 0.40854 0.64233 0.0
C510 C 0.05224 0.41368 0.65675 0.0
C511 C 0.05359 0.40737 0.68147 0.0
C512 C 0.07502 0.41237 0.69501 0.0
C513 C 0.0953 0.42347 0.68392 0.0
C514 C 0.09418 0.42952 0.65925 0.0
C515 C 0.07276 0.42459 0.64565 0.0
H516 H 0.11189 0.42731 0.69441 0.0
H517 H 0.90461 0.37698 0.56258 0.0
H518 H 0.53552 0.98433 0.68755 0.0
H519 H 0.56195 0.98862 0.65144 0.0
H520 H 0.62247 0.0115 0.69867 0.0
H521 H 0.59551 0.00896 0.73432 0.0
H522 H 0.62246 0.03986 0.66454 0.0
H523 H 0.61662 0.95232 0.66527 0.0
H524 H 0.59587 0.91192 0.6656 0.0
H525 H 0.56101 0.92582 0.59692 0.0
H526 H 0.58133 0.96645 0.59633 0.0
H527 H 0.72061 0.01983 0.57908 0.0
H528 H 0.69121 0.01353 0.61237 0.0
H529 H 0.631 0.02342 0.56245 0.0
H530 H 0.66032 0.03031 0.52905 0.0
H531 H 0.62947 0.97905 0.59548 0.0
H532 H 0.6391 0.06746 0.59641 0.0
H533 H 0.66361 0.1058 0.59737 0.0
H534 H 0.69613 0.08664 0.66572 0.0
H535 H 0.67206 0.04799 0.66496 0.0
C536 C 0.55461 0.98984 0.69009 0.0
C537 C 0.56367 0.99612 0.71358 0.0
C538 C 0.56976 0.99225 0.66948 0.0
C539 C 0.59444 1.00016 0.67218 0.0
C540 C 0.60355 0.00554 0.69592 0.0
C541 C 0.58822 0.0039 0.71633 0.0
C542 C 0.61052 0.00424 0.65046 0.0
C543 C 0.62413 0.0263 0.64969 0.0
C544 C 0.6125 0.98695 0.6306 0.0
C545 C 0.60029 0.96253 0.63089 0.0
C546 C 0.60439 0.94683 0.65033 0.0
C547 C 0.59273 0.92388 0.65055 0.0
C548 C 0.57708 0.91633 0.63133 0.0
C549 C 0.57311 0.9317 0.61182 0.0
C550 C 0.58471 0.95469 0.61152 0.0
C551 C 0.70111 0.02077 0.57518 0.0
C552 C 0.69277 0.02572 0.55148 0.0
C553 C 0.68437 0.01714 0.59421 0.0
C554 C 0.659 0.01797 0.58979 0.0
C555 C 0.65054 0.02267 0.56614 0.0
C556 C 0.6673 0.02679 0.54718 0.0
C557 C 0.64141 0.01426 0.61011 0.0
C558 C 0.62758 0.99242 0.61048 0.0
C559 C 0.63966 0.0314 0.62993 0.0
C560 C 0.65396 0.05474 0.6305 0.0
C561 C 0.65164 0.07132 0.61153 0.0
C562 C 0.66542 0.09313 0.61206 0.0
C563 C 0.68146 0.09863 0.63156 0.0
C564 C 0.68371 0.08235 0.65061 0.0
C565 C 0.66999 0.0605 0.65015 0.0
H566 H 0.69212 0.11552 0.63194 0.0
H567 H 0.56806 0.89856 0.63154 0.0
H568 H 0.48039 0.34069 0.04707 0.0
H569 H 0.45203 0.37488 0.04378 0.0
H570 H 0.39625 0.32497 0.01427 0.0
H571 H 0.42521 0.29145 0.01581 0.0
H572 H 0.39476 0.36161 0.98942 0.0
H573 H 0.39754 0.35216 0.07697 0.0
H574 H 0.41736 0.34998 0.11752 0.0
H575 H 0.44656 0.42284 0.11073 0.0
H576 H 0.42712 0.42533 0.07002 0.0
H577 H 0.29953 0.45007 0.04872 0.0
H578 H 0.3321 0.42031 0.05244 0.0
H579 H 0.36314 0.44289 0.98379 0.0
H580 H 0.32985 0.47209 0.9795 0.0
H581 H 0.37881 0.42196 0.05718 0.0
H582 H 0.39021 0.39521 0.95424 0.0
H583 H 0.3656 0.39318 0.91617 0.0
H584 H 0.29942 0.38514 0.9583 0.0
H585 H 0.32366 0.38682 0.99657 0.0
C586 C 0.46195 0.33715 0.04016 0.0
C587 C 0.45478 0.31355 0.03186 0.0
C588 C 0.44571 0.35663 0.03832 0.0
C589 C 0.42176 0.35259 0.02902 0.0
C590 C 0.4146 0.32875 0.02133 0.0
C591 C 0.43105 0.30953 0.02239 0.0
C592 C 0.4042 0.37303 0.02654 0.0
C593 C 0.39134 0.37477 0.00431 0.0
C594 C 0.39947 0.39027 0.04588 0.0
C595 C 0.41109 0.38883 0.07037 0.0
C596 C 0.40832 0.36765 0.08408 0.0
C597 C 0.41946 0.36637 0.10709 0.0
C598 C 0.43327 0.38623 0.11666 0.0
C599 C 0.43589 0.40745 0.10328 0.0
C600 C 0.4248 0.40881 0.08025 0.0
C601 C 0.3133 0.44872 0.0344 0.0
C602 C 0.31202 0.46326 0.0137 0.0
C603 C 0.332 0.43176 0.03661 0.0
C604 C 0.34999 0.42911 0.0183 0.0
C605 C 0.34921 0.44421 0.99794 0.0
C606 C 0.33023 0.46094 0.99553 0.0
C607 C 0.36902 0.41004 0.02035 0.0
C608 C 0.38233 0.40877 0.04234 0.0
C609 C 0.37345 0.39258 0.00117 0.0
C610 C 0.35873 0.39146 0.97826 0.0
C611 C 0.37041 0.39297 0.95536 0.0
C612 C 0.35653 0.39188 0.93375 0.0
C613 C 0.33096 0.38914 0.93482 0.0
C614 C 0.31922 0.38738 0.9575 0.0
C615 C 0.33301 0.38843 0.97915 0.0
H616 H 0.32025 0.38831 0.91808 0.0
H617 H 0.44189 0.38521 0.13448 0.0
H618 H 0.32969 0.5424 0.01833 0.0
H619 H 0.36743 0.56762 0.01746 0.0
H620 H 0.32435 0.63098 0.00255 0.0
H621 H 0.28692 0.60608 0.00307 0.0
H622 H 0.36147 0.6274 0.97132 0.0
H623 H 0.35002 0.6223 0.05912 0.0
H624 H 0.34548 0.60083 0.09795 0.0
H625 H 0.41599 0.56798 0.08685 0.0
H626 H 0.42079 0.58905 0.04777 0.0
H627 H 0.44542 0.72135 0.03774 0.0
H628 H 0.41726 0.68643 0.03821 0.0
H629 H 0.44693 0.65936 0.96928 0.0
H630 H 0.47495 0.69501 0.96837 0.0
H631 H 0.42114 0.63903 0.03964 0.0
H632 H 0.40019 0.63065 0.93684 0.0
H633 H 0.40182 0.65541 0.89983 0.0
H634 H 0.3912 0.72074 0.94419 0.0
H635 H 0.38925 0.69632 0.98139 0.0
C636 C 0.32828 0.56179 0.01527 0.0
C637 C 0.30531 0.57221 0.01065 0.0
C638 C 0.34986 0.57615 0.01469 0.0
C639 C 0.34872 0.60116 0.00973 0.0
C640 C 0.32572 0.61167 0.00608 0.0
C641 C 0.30429 0.5974 0.00651 0.0
C642 C 0.37127 0.61662 0.00765 0.0
C643 C 0.37465 0.62975 0.98619 0.0
C644 C 0.38851 0.61967 0.02696 0.0
C645 C 0.38562 0.60699 0.05039 0.0
C646 C 0.36445 0.61032 0.06486 0.0
C647 C 0.36185 0.59827 0.08693 0.0
C648 C 0.3804 0.58298 0.09481 0.0
C649 C 0.40161 0.57978 0.08068 0.0
C650 C 0.40429 0.59178 0.05858 0.0
C651 C 0.44609 0.70795 0.02267 0.0
C652 C 0.46225 0.71106 0.00287 0.0
C653 C 0.43005 0.68786 0.02307 0.0
C654 C 0.42982 0.6703 0.00374 0.0
C655 C 0.44655 0.67285 0.98427 0.0
C656 C 0.46254 0.69319 0.98375 0.0
C657 C 0.41087 0.65041 0.00363 0.0
C658 C 0.40826 0.63628 0.02456 0.0
C659 C 0.39396 0.64683 0.98406 0.0
C660 C 0.3949 0.6617 0.96186 0.0
C661 C 0.39817 0.65029 0.93865 0.0
C662 C 0.39915 0.66426 0.91766 0.0
C663 C 0.39672 0.68964 0.91967 0.0
C664 C 0.39319 0.70109 0.94267 0.0
C665 C 0.39217 0.6872 0.96371 0.0
H666 H 0.3975 0.70042 0.90341 0.0
H667 H 0.37836 0.57367 0.11191 0.0
H668 H 0.5261 0.35979 0.98897 0.0
H669 H 0.55984 0.38953 0.9941 0.0
H670 H 0.60436 0.33474 0.02679 0.0
H671 H 0.57044 0.30511 0.02242 0.0
H672 H 0.61041 0.37586 0.05147 0.0
H673 H 0.61229 0.35224 0.96622 0.0
H674 H 0.59583 0.34517 0.9244 0.0
H675 H 0.57921 0.42141 0.92049 0.0
H676 H 0.59529 0.42888 0.96244 0.0
H677 H 0.73026 0.4244 0.02344 0.0
H678 H 0.69207 0.40027 0.02571 0.0
H679 H 0.64995 0.46518 0.01518 0.0
H680 H 0.68818 0.48966 0.01355 0.0
H681 H 0.64102 0.42215 0.98068 0.0
H682 H 0.64389 0.44479 0.06647 0.0
H683 H 0.66337 0.4497 0.10719 0.0
H684 H 0.6746 0.37225 0.10852 0.0
H685 H 0.65551 0.36691 0.06761 0.0
C686 C 0.5431 0.35402 0.99717 0.0
C687 C 0.5456 0.32999 0.00512 0.0
C688 C 0.56242 0.37106 1.00006 0.0
C689 C 0.58483 0.36433 0.01054 0.0
C690 C 0.58728 0.34041 0.01868 0.0
C691 C 0.56787 0.32344 0.01606 0.0
C692 C 0.60576 0.38212 0.01293 0.0
C693 C 0.61719 0.3858 0.03591 0.0
C694 C 0.61445 0.39549 0.99277 0.0
C695 C 0.60472 0.39106 0.96757 0.0
C696 C 0.60493 0.36746 0.95652 0.0
C697 C 0.59571 0.36339 0.93278 0.0
C698 C 0.58641 0.38281 0.91983 0.0
C699 C 0.58637 0.40637 0.93057 0.0
C700 C 0.59555 0.41054 0.95432 0.0
C701 C 0.71285 0.43362 0.02208 0.0
C702 C 0.71217 0.4589 0.01832 0.0
C703 C 0.69108 0.41983 0.0234 0.0
C704 C 0.66826 0.43097 0.02057 0.0
C705 C 0.66744 0.45631 0.01745 0.0
C706 C 0.68923 0.47025 0.01668 0.0
C707 C 0.64555 0.4157 0.0191 0.0
C708 C 0.63394 0.4124 0.99625 0.0
C709 C 0.63702 0.40236 0.03923 0.0
C710 C 0.64846 0.40549 0.06386 0.0
C711 C 0.65072 0.42883 0.07533 0.0
C712 C 0.66165 0.43169 0.09848 0.0
C713 C 0.67028 0.41131 0.11041 0.0
C714 C 0.66793 0.38802 0.09924 0.0
C715 C 0.65703 0.38507 0.07609 0.0
H716 H 0.67873 0.41356 0.12833 0.0
H717 H 0.57929 0.37963 0.90144 0.0
H718 H 0.70656 0.57103 0.97328 0.0
H719 H 0.67382 0.60141 0.97554 0.0
H720 H 0.67526 0.59994 0.05452 0.0
H721 H 0.70822 0.56999 0.05244 0.0
H722 H 0.62685 0.59564 0.03215 0.0
H723 H 0.70113 0.64589 0.03036 0.0
H724 H 0.74054 0.6595 0.0126 0.0
H725 H 0.70352 0.67801 0.94636 0.0
H726 H 0.66392 0.66417 0.96361 0.0
H727 H 0.55374 0.69514 0.06698 0.0
H728 H 0.58771 0.66674 0.06234 0.0
H729 H 0.59649 0.68651 0.98685 0.0
H730 H 0.56318 0.71584 0.99178 0.0
H731 H 0.63939 0.68057 0.00492 0.0
H732 H 0.56586 0.63219 0.00431 0.0
H733 H 0.52561 0.61727 0.01893 0.0
H734 H 0.55926 0.59306 0.08488 0.0
H735 H 0.59969 0.60816 0.07081 0.0
C736 C 0.69989 0.5772 0.99111 0.0
C737 C 0.70998 0.56818 0.01269 0.0
C738 C 0.68125 0.59457 0.99237 0.0
C739 C 0.67221 0.60294 0.0152 0.0
C740 C 0.68201 0.5937 0.03673 0.0
C741 C 0.70089 0.57666 0.0355 0.0
C742 C 0.65244 0.62129 0.01678 0.0
C743 C 0.62961 0.6143 0.02646 0.0
C744 C 0.65585 0.64532 0.00849 0.0
C745 C 0.67962 0.65374 0.99817 0.0
C746 C 0.70143 0.65265 0.01192 0.0
C747 C 0.72379 0.66045 0.00197 0.0
C748 C 0.72454 0.66955 0.97834 0.0
C749 C 0.70292 0.67092 0.96464 0.0
C750 C 0.68051 0.66312 0.97451 0.0
C751 C 0.56302 0.69357 0.04944 0.0
C752 C 0.55567 0.70764 0.02971 0.0
C753 C 0.58235 0.67718 0.04674 0.0
C754 C 0.59432 0.67393 0.02404 0.0
C755 C 0.58751 0.68854 0.00452 0.0
C756 C 0.56846 0.70532 0.00736 0.0
C757 C 0.61367 0.65511 0.02067 0.0
C758 C 0.63645 0.66193 0.01056 0.0
C759 C 0.61004 0.63071 0.02808 0.0
C760 C 0.58577 0.62151 0.03659 0.0
C761 C 0.56465 0.62384 0.022 0.0
C762 C 0.54181 0.61533 0.03018 0.0
C763 C 0.53987 0.60428 0.05284 0.0
C764 C 0.56079 0.60165 0.06734 0.0
C765 C 0.58368 0.61016 0.05926 0.0
H766 H 0.52216 0.5977 0.05914 0.0
H767 H 0.74187 0.67559 0.97066 0.0
H768 H 0.54302 0.80666 0.94757 0.0
H769 H 0.5436 0.83849 0.91714 0.0
H770 H 0.46923 0.85736 0.93652 0.0
H771 H 0.46849 0.82549 0.96705 0.0
H772 H 0.5145 0.84424 0.87649 0.0
H773 H 0.46495 0.92028 0.93159 0.0
H774 H 0.45769 0.93318 0.97475 0.0
H775 H 0.52556 0.90072 0.99581 0.0
H776 H 0.53339 0.88797 0.95275 0.0
H777 H 0.47898 0.94274 0.80107 0.0
H778 H 0.47661 0.91222 0.83298 0.0
H779 H 0.54297 0.94236 0.86598 0.0
H780 H 0.5458 0.97253 0.83382 0.0
H781 H 0.50199 0.93158 0.90008 0.0
H782 H 0.55103 0.89533 0.83481 0.0
H783 H 0.55931 0.88219 0.79195 0.0
H784 H 0.49542 0.83503 0.79205 0.0
H785 H 0.48655 0.8482 0.83483 0.0
C786 C 0.52677 0.81757 0.94538 0.0
C787 C 0.50572 0.81358 0.95976 0.0
C788 C 0.52711 0.8357 0.92791 0.0
C789 C 0.50652 0.85038 0.92464 0.0
C790 C 0.4854 0.84638 0.93889 0.0
C791 C 0.48499 0.82813 0.95628 0.0
C792 C 0.50728 0.8699 0.90636 0.0
C793 C 0.51168 0.86331 0.88167 0.0
C794 C 0.50376 0.89483 0.91311 0.0
C795 C 0.49961 0.90297 0.93898 0.0
C796 C 0.47838 0.91602 0.94542 0.0
C797 C 0.47416 0.92328 0.96987 0.0
C798 C 0.49111 0.9177 0.98802 0.0
C799 C 0.5124 0.90496 0.98175 0.0
C800 C 0.51672 0.89769 0.95732 0.0
C801 C 0.49298 0.94294 0.8152 0.0
C802 C 0.51264 0.95994 0.8149 0.0
C803 C 0.4916 0.92551 0.83339 0.0
C804 C 0.50962 0.92508 0.8518 0.0
C805 C 0.52886 0.94247 0.85196 0.0
C806 C 0.53051 0.95959 0.83351 0.0
C807 C 0.509 0.90582 0.87029 0.0
C808 C 0.50462 0.91247 0.89495 0.0
C809 C 0.51265 0.88095 0.86358 0.0
C810 C 0.51797 0.87297 0.8379 0.0
C811 C 0.53861 0.88235 0.82561 0.0
C812 C 0.54344 0.87486 0.80135 0.0
C813 C 0.52786 0.85784 0.78925 0.0
C814 C 0.50745 0.84824 0.80142 0.0
C815 C 0.50252 0.85571 0.82568 0.0
H816 H 0.53163 0.85205 0.77048 0.0
H817 H 0.48778 0.92328 0.00695 0.0
H818 H 0.18254 0.49991 0.99247 0.0
H819 H 0.14743 0.50539 0.96502 0.0
H820 H 0.196 0.49948 0.90246 0.0
H821 H 0.23109 0.49571 0.93006 0.0
H822 H 0.1687 0.53592 0.89683 0.0
H823 H 0.15176 0.45215 0.92094 0.0
H824 H 0.1443 0.42075 0.95166 0.0
H825 H 0.08188 0.46024 0.97906 0.0
H826 H 0.08906 0.49193 0.94858 0.0
H827 H 0.06791 0.48485 0.81225 0.0
H828 H 0.09522 0.48062 0.84723 0.0
H829 H 0.08608 0.55684 0.86738 0.0
H830 H 0.05852 0.56127 0.83216 0.0
H831 H 0.09056 0.48787 0.89729 0.0
H832 H 0.14248 0.5785 0.88582 0.0
H833 H 0.15165 0.60824 0.85387 0.0
H834 H 0.14694 0.5508 0.79834 0.0
H835 H 0.13795 0.52074 0.82999 0.0
C836 C 0.18546 0.4993 0.97281 0.0
C837 C 0.20925 0.49705 0.96316 0.0
C838 C 0.16545 0.50242 0.95712 0.0
C839 C 0.16895 0.50267 0.93156 0.0
C840 C 0.19277 0.4995 0.92206 0.0
C841 C 0.21277 0.49705 0.93775 0.0
C842 C 0.14827 0.50733 0.91453 0.0
C843 C 0.15161 0.52541 0.89707 0.0
C844 C 0.12579 0.49388 0.91484 0.0
C845 C 0.12105 0.47446 0.93262 0.0
C846 C 0.13647 0.45413 0.93355 0.0
C847 C 0.13229 0.43629 0.95091 0.0
C848 C 0.11265 0.43853 0.96732 0.0
C849 C 0.09707 0.45853 0.96632 0.0
C850 C 0.10115 0.4764 0.94898 0.0
C851 C 0.07151 0.50072 0.8242 0.0
C852 C 0.06122 0.52347 0.81934 0.0
C853 C 0.087 0.4982 0.8443 0.0
C854 C 0.09273 0.5184 0.85985 0.0
C855 C 0.08196 0.54104 0.8555 0.0
C856 C 0.06627 0.54355 0.83539 0.0
C857 C 0.11142 0.51593 0.87938 0.0
C858 C 0.1076 0.49847 0.89735 0.0
C859 C 0.13367 0.52962 0.87934 0.0
C860 C 0.13929 0.54748 0.86022 0.0
C861 C 0.14345 0.57225 0.86679 0.0
C862 C 0.1486 0.58915 0.84874 0.0
C863 C 0.14979 0.58143 0.82408 0.0
C864 C 0.14591 0.55678 0.81743 0.0
C865 C 0.14075 0.53982 0.83541 0.0
H866 H 0.15377 0.59454 0.81014 0.0
H867 H 0.10949 0.42474 0.98079 0.0
H868 H 0.51807 0.10444 0.79154 0.0
H869 H 0.51732 0.13076 0.82837 0.0
H870 H 0.51211 0.06741 0.87319 0.0
H871 H 0.5123 0.04068 0.83598 0.0
H872 H 0.48408 0.10496 0.89171 0.0
H873 H 0.56702 0.09524 0.86724 0.0
H874 H 0.60218 0.09345 0.83873 0.0
H875 H 0.59285 0.16909 0.82288 0.0
H876 H 0.55739 0.17125 0.85101 0.0
H877 H 0.51226 0.19419 0.98987 0.0
H878 H 0.51754 0.15728 0.96345 0.0
H879 H 0.51476 0.20129 0.8994 0.0
H880 H 0.50932 0.23789 0.9254 0.0
H881 H 0.55217 0.16642 0.89766 0.0
H882 H 0.46439 0.17221 0.91726 0.0
H883 H 0.42959 0.17333 0.94629 0.0
H884 H 0.45014 0.10362 0.9731 0.0
H885 H 0.48525 0.10226 0.9444 0.0
C886 C 0.51649 0.09603 0.80918 0.0
C887 C 0.51556 0.07046 0.81086 0.0
C888 C 0.51617 0.11112 0.83026 0.0
C889 C 0.51538 0.10104 0.85357 0.0
C890 C 0.51299 0.07555 0.85537 0.0
C891 C 0.51303 0.06033 0.83413 0.0
C892 C 0.51806 0.11745 0.8757 0.0
C893 C 0.49925 0.11803 0.89333 0.0
C894 C 0.53795 0.13445 0.87796 0.0
C895 C 0.55946 0.13336 0.86118 0.0
C896 C 0.57238 0.11146 0.85758 0.0
C897 C 0.59237 0.11038 0.84149 0.0
C898 C 0.59973 0.13114 0.82899 0.0
C899 C 0.58714 0.15303 0.83259 0.0
C900 C 0.56711 0.1542 0.84864 0.0
C901 C 0.51315 0.19596 0.97016 0.0
C902 C 0.51027 0.2189 0.95968 0.0
C903 C 0.51602 0.17489 0.95513 0.0
C904 C 0.51638 0.17658 0.92948 0.0
C905 C 0.51453 0.19959 0.91914 0.0
C906 C 0.51133 0.22048 0.93404 0.0
C907 C 0.51769 0.15459 0.91293 0.0
C908 C 0.53734 0.15294 0.89637 0.0
C909 C 0.49877 0.13651 0.91188 0.0
C910 C 0.47758 0.13727 0.92893 0.0
C911 C 0.46158 0.15722 0.92948 0.0
C912 C 0.44179 0.15788 0.94584 0.0
C913 C 0.4377 0.13859 0.96158 0.0
C914 C 0.45336 0.11857 0.96094 0.0
C915 C 0.47319 0.11784 0.94462 0.0
H916 H 0.42238 0.13914 0.97424 0.0
H917 H 0.61521 0.13027 0.81653 0.0
H918 H 0.96494 0.54367 0.82001 0.0
H919 H 0.9314 0.55019 0.8495 0.0
H920 H 0.92998 0.47326 0.86415 0.0
H921 H 0.96402 0.46666 0.83529 0.0
H922 H 0.8811 0.50053 0.85232 0.0
H923 H 0.95385 0.49999 0.90466 0.0
H924 H 0.99543 0.5143 0.91692 0.0
H925 H 0.96939 0.58771 0.92624 0.0
H926 H 0.9277 0.57386 0.91362 0.0
H927 H 0.80733 0.48603 0.95544 0.0
H928 H 0.84075 0.48484 0.9258 0.0
H929 H 0.85428 0.56214 0.93865 0.0
H930 H 0.82096 0.56332 0.9691 0.0
H931 H 0.89668 0.53881 0.93481 0.0
H932 H 0.82408 0.54083 0.88684 0.0
H933 H 0.78225 0.52915 0.87292 0.0
H934 H 0.80682 0.457 0.85292 0.0
H935 H 0.84875 0.46813 0.86706 0.0
C936 C 0.95739 0.52812 0.82942 0.0
C937 C 0.96707 0.50464 0.82535 0.0
C938 C 0.93834 0.53191 0.84629 0.0
C939 C 0.92836 0.51221 0.85896 0.0
C940 C 0.93754 0.48866 0.85452 0.0
C941 C 0.95697 0.48495 0.83809 0.0
C942 C 0.90838 0.51614 0.87698 0.0
C943 C 0.88445 0.50865 0.87046 0.0
C944 C 0.91277 0.52765 0.90019 0.0
C945 C 0.93776 0.53595 0.90788 0.0
C946 C 0.95706 0.51923 0.90905 0.0
C947 C 0.98063 0.52724 0.91613 0.0
C948 C 0.98508 0.55192 0.92227 0.0
C949 C 0.96593 0.56861 0.92142 0.0
C950 C 0.94233 0.56069 0.91432 0.0
C951 C 0.81741 0.50282 0.95207 0.0
C952 C 0.81138 0.52483 0.9645 0.0
C953 C 0.83647 0.50212 0.93498 0.0
C954 C 0.84972 0.5235 0.92957 0.0
C955 C 0.8442 0.54545 0.94241 0.0
C956 C 0.82515 0.54611 0.95975 0.0
C957 C 0.86923 0.52262 0.91047 0.0
C958 C 0.89313 0.5308 0.91666 0.0
C959 C 0.86473 0.5121 0.88674 0.0
C960 C 0.83953 0.50527 0.87821 0.0
C961 C 0.82053 0.52241 0.87965 0.0
C962 C 0.79681 0.5159 0.8717 0.0
C963 C 0.79187 0.49233 0.8621 0.0
C964 C 0.81067 0.47524 0.86039 0.0
C965 C 0.83443 0.48165 0.86835 0.0
H966 H 0.77349 0.48733 0.85593 0.0
H967 H 0.00333 0.55809 0.92776 0.0
H968 H 0.55501 0.0638 0.20304 0.0
H969 H 0.55437 0.09436 0.17115 0.0
H970 H 0.48205 0.11627 0.1947 0.0
H971 H 0.48258 0.08599 0.22658 0.0
H972 H 0.52256 0.10024 0.1321 0.0
H973 H 0.47829 0.17798 0.18974 0.0
H974 H 0.47534 0.19234 0.233 0.0
H975 H 0.54486 0.16001 0.24841 0.0
H976 H 0.54837 0.14575 0.20519 0.0
H977 H 0.47513 0.19649 0.06002 0.0
H978 H 0.47938 0.16498 0.09063 0.0
H979 H 0.54611 0.20022 0.11736 0.0
H980 H 0.54225 0.23151 0.08659 0.0
H981 H 0.51141 0.18802 0.15467 0.0
H982 H 0.55268 0.15163 0.0848 0.0
H983 H 0.55605 0.13774 0.04146 0.0
H984 H 0.49508 0.08801 0.05052 0.0
H985 H 0.49111 0.10188 0.09385 0.0
C986 C 0.539 0.07517 0.20144 0.0
C987 C 0.51891 0.07259 0.21743 0.0
C988 C 0.53862 0.09252 0.18315 0.0
C989 C 0.51825 0.10771 0.1807 0.0
C990 C 0.49807 0.10495 0.19646 0.0
C991 C 0.49841 0.08759 0.21465 0.0
C992 C 0.51813 0.12669 0.16189 0.0
C993 C 0.52016 0.11943 0.13704 0.0
C994 C 0.51513 0.15175 0.16833 0.0
C995 C 0.51347 0.16063 0.19427 0.0
C996 C 0.493 0.17405 0.20234 0.0
C997 C 0.49122 0.18215 0.22686 0.0
C998 C 0.50987 0.17703 0.24346 0.0
C999 C 0.53039 0.16389 0.23555 0.0
C1000 C 0.53227 0.15577 0.21105 0.0
C1001 C 0.49073 0.19748 0.07239 0.0
C1002 C 0.50837 0.21644 0.07091 0.0
C1003 C 0.49315 0.17946 0.0898 0.0
C1004 C 0.51308 0.1803 0.10619 0.0
C1005 C 0.53061 0.19929 0.10486 0.0
C1006 C 0.52841 0.21708 0.08723 0.0
C1007 C 0.51552 0.16152 0.12494 0.0
C1008 C 0.51385 0.16883 0.14976 0.0
C1009 C 0.51892 0.13655 0.11846 0.0
C1010 C 0.52145 0.12797 0.09251 0.0
C1011 C 0.53986 0.13787 0.0775 0.0
C1012 C 0.54191 0.12998 0.05295 0.0
C1013 C 0.52575 0.11205 0.04323 0.0
C1014 C 0.50757 0.10192 0.05807 0.0
C1015 C 0.50543 0.10977 0.08264 0.0
H1016 H 0.52735 0.10598 0.02421 0.0
H1017 H 0.50844 0.18329 0.26244 0.0
H1018 H 0.9918 0.53985 0.17331 0.0
H1019 H 0.95772 0.53573 0.14446 0.0
H1020 H 0.90935 0.51445 0.20306 0.0
H1021 H 0.94401 0.51724 0.23188 0.0
H1022 H 0.89845 0.4877 0.16595 0.0
H1023 H 0.90848 0.57358 0.17617 0.0
H1024 H 0.9301 0.61355 0.1785 0.0
H1025 H 0.95161 0.60463 0.10302 0.0
H1026 H 0.9304 0.56444 0.10031 0.0
H1027 H 0.79543 0.51676 0.08298 0.0
H1028 H 0.82446 0.52279 0.11729 0.0
H1029 H 0.88393 0.49936 0.07034 0.0
H1030 H 0.85509 0.49261 0.03622 0.0
H1031 H 0.88441 0.55106 0.10469 0.0
H1032 H 0.87699 0.4604 0.1 0.0
H1033 H 0.85158 0.42262 0.09992 0.0
H1034 H 0.81988 0.44517 0.169 0.0
H1035 H 0.84487 0.48327 0.16926 0.0
C1036 C 0.97387 0.53446 0.18012 0.0
C1037 C 0.97054 0.5291 0.20493 0.0
C1038 C 0.95429 0.53224 0.1636 0.0
C1039 C 0.93066 0.5254 0.17158 0.0
C1040 C 0.92732 0.5199 0.19639 0.0
C1041 C 0.94711 0.52155 0.21288 0.0
C1042 C 0.90982 0.5233 0.15377 0.0
C1043 C 0.89525 0.50181 0.15287 0.0
C1044 C 0.90527 0.54166 0.13662 0.0
C1045 C 0.91798 0.56589 0.13809 0.0
C1046 C 0.91795 0.58006 0.1601 0.0
C1047 C 0.93011 0.60277 0.16149 0.0
C1048 C 0.94226 0.6116 0.14094 0.0
C1049 C 0.9422 0.59776 0.11893 0.0
C1050 C 0.93008 0.57503 0.11745 0.0
C1051 C 0.81468 0.51282 0.08 0.0
C1052 C 0.82295 0.5041 0.05692 0.0
C1053 C 0.83118 0.51625 0.09959 0.0
C1054 C 0.85624 0.51142 0.09626 0.0
C1055 C 0.8646 0.50306 0.07322 0.0
C1056 C 0.84809 0.49915 0.0538 0.0
C1057 C 0.87394 0.51537 0.11667 0.0
C1058 C 0.8877 0.53722 0.11804 0.0
C1059 C 0.87733 0.49771 0.13459 0.0
C1060 C 0.86252 0.47477 0.13448 0.0
C1061 C 0.8644 0.45741 0.11502 0.0
C1062 C 0.85013 0.43592 0.11498 0.0
C1063 C 0.83406 0.43154 0.1344 0.0
C1064 C 0.83229 0.44861 0.15394 0.0
C1065 C 0.84651 0.47014 0.15405 0.0
H1066 H 0.82303 0.41489 0.13433 0.0
H1067 H 0.95167 0.62918 0.14205 0.0
H1068 H 0.48215 0.80435 0.09892 0.0
H1069 H 0.48277 0.84335 0.12117 0.0
H1070 H 0.52838 0.87452 0.06522 0.0
H1071 H 0.52783 0.83494 0.04225 0.0
H1072 H 0.54418 0.88619 0.11426 0.0
H1073 H 0.47248 0.89307 0.06684 0.0
H1074 H 0.43357 0.88004 0.04683 0.0
H1075 H 0.40033 0.86997 0.11726 0.0
H1076 H 0.43916 0.88257 0.13772 0.0
H1077 H 0.51933 0.99416 0.19187 0.0
H1078 H 0.51723 0.9701 0.15293 0.0
H1079 H 0.48765 0.90854 0.1912 0.0
H1080 H 0.49064 0.93207 0.23013 0.0
H1081 H 0.46478 0.92182 0.14111 0.0
H1082 H 0.54142 0.90385 0.18524 0.0
H1083 H 0.58056 0.91681 0.20492 0.0
H1084 H 0.60414 0.94962 0.13826 0.0
H1085 H 0.56491 0.93712 0.11833 0.0
C1086 C 0.49241 0.81933 0.09114 0.0
C1087 C 0.50494 0.81638 0.06865 0.0
C1088 C 0.4926 0.84176 0.10391 0.0
C1089 C 0.50526 0.86194 0.09467 0.0
C1090 C 0.51832 0.85916 0.07254 0.0
C1091 C 0.518 0.83656 0.0595 0.0
C1092 C 0.5049 0.88546 0.10899 0.0
C1093 C 0.5269 0.8945 0.11951 0.0
C1094 C 0.48233 0.89626 0.11595 0.0
C1095 C 0.45881 0.88871 0.10383 0.0
C1096 C 0.45693 0.88793 0.07808 0.0
C1097 C 0.43488 0.88063 0.06665 0.0
C1098 C 0.4145 0.87417 0.08077 0.0
C1099 C 0.41613 0.87501 0.10635 0.0
C1100 C 0.43816 0.88227 0.11788 0.0
C1101 C 0.51184 0.97569 0.1918 0.0
C1102 C 0.50509 0.9649 0.2139 0.0
C1103 C 0.51076 0.96199 0.16963 0.0
C1104 C 0.50231 0.93761 0.16931 0.0
C1105 C 0.49413 0.92738 0.19114 0.0
C1106 C 0.49585 0.94078 0.21331 0.0
C1107 C 0.50389 0.92179 0.14686 0.0
C1108 C 0.48209 0.91413 0.13504 0.0
C1109 C 0.52662 0.91247 0.13851 0.0
C1110 C 0.55014 0.9199 0.15044 0.0
C1111 C 0.55484 0.91406 0.17488 0.0
C1112 C 0.57706 0.92127 0.18606 0.0
C1113 C 0.59478 0.93412 0.17288 0.0
C1114 C 0.59036 0.93973 0.14847 0.0
C1115 C 0.56814 0.93259 0.13723 0.0
H1116 H 0.61198 0.93967 0.18155 0.0
H1117 H 0.39743 0.86853 0.07188 0.0
H1118 H 0.21044 0.48993 0.06266 0.0
H1119 H 0.18094 0.48293 0.09569 0.0
H1120 H 0.14807 0.55259 0.08315 0.0
H1121 H 0.1772 0.55957 0.04967 0.0
H1122 H 0.16124 0.54151 0.13459 0.0
H1123 H 0.11809 0.50752 0.06304 0.0
H1124 H 0.1145 0.48029 0.02619 0.0
H1125 H 0.124 0.41765 0.07039 0.0
H1126 H 0.12805 0.44454 0.10746 0.0
H1127 H 0.05746 0.54058 0.20725 0.0
H1128 H 0.08467 0.54264 0.17215 0.0
H1129 H 0.09545 0.46472 0.1739 0.0
H1130 H 0.06635 0.46237 0.20836 0.0
H1131 H 0.09578 0.47727 0.12855 0.0
H1132 H 0.13829 0.50823 0.19958 0.0
H1133 H 0.14487 0.53343 0.23743 0.0
H1134 H 0.14093 0.59878 0.19626 0.0
H1135 H 0.13399 0.57399 0.1582 0.0
C1136 C 0.19702 0.50384 0.06699 0.0
C1137 C 0.1962 0.52537 0.05361 0.0
C1138 C 0.18011 0.49971 0.08575 0.0
C1139 C 0.16232 0.51719 0.0917 0.0
C1140 C 0.16167 0.53888 0.07872 0.0
C1141 C 0.17829 0.54282 0.05962 0.0
C1142 C 0.1446 0.51302 0.11178 0.0
C1143 C 0.14671 0.52769 0.13322 0.0
C1144 C 0.12643 0.49425 0.11025 0.0
C1145 C 0.12363 0.47807 0.088 0.0
C1146 C 0.11963 0.48795 0.06488 0.0
C1147 C 0.11747 0.47258 0.04396 0.0
C1148 C 0.11909 0.44726 0.04594 0.0
C1149 C 0.12278 0.43726 0.06887 0.0
C1150 C 0.12499 0.45256 0.08985 0.0
C1151 C 0.0653 0.52379 0.20005 0.0
C1152 C 0.05992 0.50132 0.2107 0.0
C1153 C 0.08111 0.52502 0.18004 0.0
C1154 C 0.09289 0.504 0.17085 0.0
C1155 C 0.08681 0.48127 0.18081 0.0
C1156 C 0.07024 0.47992 0.20049 0.0
C1157 C 0.11196 0.5062 0.1514 0.0
C1158 C 0.11029 0.49108 0.13008 0.0
C1159 C 0.13099 0.52424 0.15323 0.0
C1160 C 0.13545 0.53924 0.17606 0.0
C1161 C 0.1387 0.52798 0.19862 0.0
C1162 C 0.1425 0.54219 0.22011 0.0
C1163 C 0.14327 0.56769 0.21926 0.0
C1164 C 0.14031 0.57903 0.1969 0.0
C1165 C 0.13648 0.5649 0.17535 0.0
H1166 H 0.1462 0.57866 0.23592 0.0
H1167 H 0.11742 0.43539 0.02972 0.0
H1168 H 0.79737 0.95175 0.5532 0.0
H1169 H 0.82964 0.92174 0.55808 0.0
H1170 H 0.85849 0.93843 0.48675 0.0
H1171 H 0.82576 0.96798 0.48146 0.0
H1172 H 0.85583 0.89075 0.49184 0.0
H1173 H 0.8867 0.95904 0.54228 0.0
H1174 H 0.88393 0.99055 0.57557 0.0
H1175 H 0.87288 0.93468 0.6281 0.0
H1176 H 0.8753 0.90287 0.59508 0.0
H1177 H 0.96473 0.82646 0.49504 0.0
H1178 H 0.93567 0.85966 0.49424 0.0
H1179 H 0.9147 0.84576 0.56892 0.0
H1180 H 0.94587 0.81379 0.57043 0.0
H1181 H 0.91222 0.89148 0.56339 0.0
H1182 H 0.88073 0.82323 0.51446 0.0
H1183 H 0.882 0.79086 0.4819 0.0
H1184 H 0.89176 0.84513 0.42752 0.0
H1185 H 0.89084 0.87781 0.45978 0.0
C1186 C 0.81066 0.94911 0.53859 0.0
C1187 C 0.80905 0.96225 0.51694 0.0
C1188 C 0.8292 0.93203 0.54147 0.0
C1189 C 0.84676 0.92805 0.52295 0.0
C1190 C 0.84519 0.94121 0.50133 0.0
C1191 C 0.82649 0.95812 0.49832 0.0
C1192 C 0.86625 0.90956 0.52565 0.0
C1193 C 0.86838 0.89111 0.50732 0.0
C1194 C 0.88205 0.90946 0.5463 0.0
C1195 C 0.88099 0.92859 0.56618 0.0
C1196 C 0.88356 0.95349 0.56091 0.0
C1197 C 0.88207 0.9714 0.57973 0.0
C1198 C 0.87819 0.96462 0.60392 0.0
C1199 C 0.87588 0.93991 0.60935 0.0
C1200 C 0.87734 0.92194 0.5906 0.0
C1201 C 0.95428 0.83073 0.51144 0.0
C1202 C 0.9575 0.81752 0.53278 0.0
C1203 C 0.93736 0.84956 0.51088 0.0
C1204 C 0.92217 0.85469 0.53117 0.0
C1205 C 0.92597 0.84205 0.55289 0.0
C1206 C 0.94374 0.82378 0.55377 0.0
C1207 C 0.90206 0.87278 0.52937 0.0
C1208 C 0.89969 0.89107 0.5479 0.0
C1209 C 0.88577 0.87259 0.50903 0.0
C1210 C 0.88587 0.85295 0.48956 0.0
C1211 C 0.88323 0.82825 0.49557 0.0
C1212 C 0.88389 0.80985 0.47716 0.0
C1213 C 0.887 0.81593 0.45266 0.0
C1214 C 0.88936 0.84044 0.4465 0.0
C1215 C 0.88873 0.85891 0.46483 0.0
H1216 H 0.88755 0.80166 0.43845 0.0
H1217 H 0.87701 0.97851 0.61847 0.0
H1218 H 0.9699 0.19794 0.466 0.0
H1219 H 0.94119 0.16279 0.46698 0.0
H1220 H 0.91808 0.18586 0.53971 0.0
H1221 H 0.94667 0.22041 0.53901 0.0
H1222 H 0.92177 0.13759 0.53716 0.0
H1223 H 0.8853 0.20027 0.48827 0.0
H1224 H 0.88383 0.22811 0.45366 0.0
H1225 H 0.88835 0.16685 0.4026 0.0
H1226 H 0.89013 0.13868 0.43696 0.0
H1227 H 0.7843 0.10659 0.50892 0.0
H1228 H 0.82128 0.13225 0.50833 0.0
H1229 H 0.86617 0.06841 0.51452 0.0
H1230 H 0.82893 0.04251 0.5157 0.0
H1231 H 0.85548 0.13241 0.47466 0.0
H1232 H 0.92201 0.08712 0.54052 0.0
H1233 H 0.92097 0.06215 0.57738 0.0
H1234 H 0.85189 0.09341 0.59853 0.0
H1235 H 0.85266 0.11874 0.56196 0.0
C1236 C 0.95879 0.19535 0.48221 0.0
C1237 C 0.96043 0.21203 0.50234 0.0
C1238 C 0.94242 0.17529 0.48277 0.0
C1239 C 0.92737 0.17175 0.5034 0.0
C1240 C 0.92957 0.18807 0.52367 0.0
C1241 C 0.94585 0.20796 0.52315 0.0
C1242 C 0.90811 0.15218 0.50364 0.0
C1243 C 0.90741 0.13626 0.52334 0.0
C1244 C 0.88925 0.15053 0.48577 0.0
C1245 C 0.88816 0.16743 0.46515 0.0
C1246 C 0.88617 0.19277 0.46966 0.0
C1247 C 0.88525 0.2086 0.4501 0.0
C1248 C 0.88608 0.19926 0.42595 0.0
C1249 C 0.88777 0.17406 0.42131 0.0
C1250 C 0.88873 0.15816 0.44082 0.0
C1251 C 0.80202 0.098 0.51053 0.0
C1252 C 0.80369 0.07251 0.51227 0.0
C1253 C 0.82317 0.11269 0.51005 0.0
C1254 C 0.84654 0.10229 0.51115 0.0
C1255 C 0.84834 0.0769 0.5138 0.0
C1256 C 0.82705 0.06212 0.51455 0.0
C1257 C 0.86873 0.11823 0.50854 0.0
C1258 C 0.87006 0.13337 0.48826 0.0
C1259 C 0.88784 0.11949 0.52617 0.0
C1260 C 0.88727 0.10457 0.54835 0.0
C1261 C 0.90663 0.08868 0.55307 0.0
C1262 C 0.90608 0.07447 0.57391 0.0
C1263 C 0.88632 0.07611 0.59023 0.0
C1264 C 0.86712 0.09206 0.58581 0.0
C1265 C 0.86759 0.10632 0.56502 0.0
H1266 H 0.88593 0.06508 0.60634 0.0
H1267 H 0.88536 0.21154 0.41082 0.0
H1268 H 0.07549 0.80089 0.51258 0.0
H1269 H 0.10991 0.82991 0.51765 0.0
H1270 H 0.06095 0.88969 0.50542 0.0
H1271 H 0.0269 0.8605 0.49869 0.0
H1272 H 0.09994 0.89933 0.48373 0.0
H1273 H 0.08488 0.87359 0.5652 0.0
H1274 H 0.07864 0.84445 0.59825 0.0
H1275 H 0.15121 0.81666 0.58626 0.0
H1276 H 0.15777 0.84541 0.55291 0.0
H1277 H 0.19121 0.98771 0.52208 0.0
H1278 H 0.15373 0.96239 0.52504 0.0
H1279 H 0.19702 0.8972 0.51772 0.0
H1280 H 0.23439 0.92222 0.5147 0.0
H1281 H 0.15905 0.89354 0.5525 0.0
H1282 H 0.17103 0.91874 0.46832 0.0
H1283 H 0.17633 0.94966 0.43678 0.0
H1284 H 0.10712 0.98115 0.45713 0.0
H1285 H 0.10158 0.95058 0.48902 0.0
C1286 C 0.07215 0.82023 0.5109 0.0
C1287 C 0.04857 0.82846 0.50522 0.0
C1288 C 0.09178 0.83688 0.51406 0.0
C1289 C 0.08805 0.86218 0.51256 0.0
C1290 C 0.06443 0.87034 0.50673 0.0
C1291 C 0.04495 0.85364 0.50287 0.0
C1292 C 0.10882 0.88007 0.51639 0.0
C1293 C 0.1125 0.89826 0.49909 0.0
C1294 C 0.12555 0.87877 0.53626 0.0
C1295 C 0.12173 0.86154 0.55642 0.0
C1296 C 0.09945 0.86117 0.56951 0.0
C1297 C 0.09586 0.84473 0.58831 0.0
C1298 C 0.1145 0.82868 0.59431 0.0
C1299 C 0.13679 0.82909 0.58158 0.0
C1300 C 0.14046 0.84547 0.56275 0.0
C1301 C 0.19278 0.96799 0.52159 0.0
C1302 C 0.21576 0.95697 0.51795 0.0
C1303 C 0.17135 0.95356 0.52316 0.0
C1304 C 0.17261 0.92792 0.52133 0.0
C1305 C 0.19564 0.91693 0.51914 0.0
C1306 C 0.21698 0.93129 0.51731 0.0
C1307 C 0.14999 0.91241 0.51983 0.0
C1308 C 0.1461 0.89468 0.53746 0.0
C1309 C 0.13281 0.9144 0.50056 0.0
C1310 C 0.13603 0.93255 0.4812 0.0
C1311 C 0.15703 0.93236 0.46617 0.0
C1312 C 0.16006 0.9498 0.44822 0.0
C1313 C 0.1421 0.9674 0.445 0.0
C1314 C 0.12103 0.96753 0.45967 0.0
C1315 C 0.11793 0.95015 0.47767 0.0
H1316 H 0.14449 0.9809 0.4311 0.0
H1317 H 0.11168 0.81596 0.60887 0.0
H1318 H 0.02906 0.17071 0.53381 0.0
H1319 H 0.06311 0.14237 0.5297 0.0
H1320 H 0.11294 0.20275 0.51662 0.0
H1321 H 0.07849 0.23107 0.51933 0.0
H1322 H 0.12558 0.16728 0.48854 0.0
H1323 H 0.10768 0.17314 0.5745 0.0
H1324 H 0.08162 0.1718 0.61147 0.0
H1325 H 0.06402 0.09619 0.59522 0.0
H1326 H 0.08975 0.09715 0.55799 0.0
H1327 H 0.21808 0.07977 0.55032 0.0
H1328 H 0.18532 0.10978 0.55291 0.0
H1329 H 0.1617 0.08824 0.47969 0.0
H1330 H 0.19485 0.05854 0.47678 0.0
H1331 H 0.13778 0.10598 0.55223 0.0
H1332 H 0.13767 0.13696 0.45138 0.0
H1333 H 0.16694 0.14184 0.41725 0.0
H1334 H 0.22664 0.15006 0.46855 0.0
H1335 H 0.19772 0.14557 0.50298 0.0
C1336 C 0.04729 0.17795 0.53008 0.0
C1337 C 0.05116 0.20315 0.52715 0.0
C1338 C 0.06681 0.16172 0.52785 0.0
C1339 C 0.09083 0.17038 0.52346 0.0
C1340 C 0.09465 0.19555 0.5201 0.0
C1341 C 0.07497 0.21175 0.52173 0.0
C1342 C 0.11189 0.15321 0.52246 0.0
C1343 C 0.12821 0.15391 0.5025 0.0
C1344 C 0.11579 0.13597 0.54086 0.0
C1345 C 0.10049 0.13528 0.56337 0.0
C1346 C 0.09815 0.15626 0.57875 0.0
C1347 C 0.08345 0.15557 0.59976 0.0
C1348 C 0.07113 0.13394 0.60566 0.0
C1349 C 0.07356 0.11293 0.59062 0.0
C1350 C 0.08822 0.11354 0.56958 0.0
C1351 C 0.20594 0.08143 0.53474 0.0
C1352 C 0.20913 0.06682 0.51331 0.0
C1353 C 0.18716 0.09858 0.53627 0.0
C1354 C 0.17114 0.10152 0.51641 0.0
C1355 C 0.17407 0.08667 0.4951 0.0
C1356 C 0.19296 0.06959 0.4935 0.0
C1357 C 0.15125 0.1199 0.51821 0.0
C1358 C 0.13513 0.11938 0.53829 0.0
C1359 C 0.14802 0.13777 0.50033 0.0
C1360 C 0.16554 0.14065 0.47973 0.0
C1361 C 0.15704 0.13987 0.45537 0.0
C1362 C 0.17357 0.14257 0.43597 0.0
C1363 C 0.19864 0.14617 0.44072 0.0
C1364 C 0.20723 0.14716 0.46489 0.0
C1365 C 0.19078 0.14451 0.48435 0.0
H1366 H 0.21141 0.14824 0.42568 0.0
H1367 H 0.05975 0.13344 0.62192 0.0
loop_
_geom_bond_atom_site_label_1
_geom_bond_atom_site_label_2
_geom_bond_distance
_geom_bond_site_symmetry_2
_ccdc_geom_bond_type
Co0 O1 2.216 1_455 S
Co0 O2 2.091 . S
Co0 O4 2.004 . S
Co0 O10 2.021 . S
Co0 O12 2.137 1_455 S
Co0 O13 2.244 1_455 S
O1 Co0 2.216 1_655 S
O1 C8 1.247 . S
O2 Co0 2.091 . S
O2 C8 1.261 1_455 S
C3 O12 1.247 . S
C3 O13 1.272 . S
O4 Co0 2.004 . S
O4 C9 1.259 . S
Co5 O6 2.061 1_655 S
Co5 O11 2.053 . S
Co5 O13 2.135 . S
O6 Co5 2.061 1_455 S
O6 C9 1.235 . S
C7 O10 1.238 . S
C7 O11 1.236 1_455 S
C8 O1 1.247 . S
C8 O2 1.261 1_655 S
C9 O4 1.259 . S
C9 O6 1.235 . S
O10 Co0 2.021 . S
O10 C7 1.238 . S
O11 Co5 2.053 . S
O11 C7 1.236 1_655 S
O12 Co0 2.137 1_655 S
O12 C3 1.247 . S
O13 Co0 2.244 1_655 S
O13 C3 1.272 . S
O13 Co5 2.135 . S
Co14 O15 2.216 1_545 S
Co14 O16 2.091 1_545 S
Co14 O18 2.004 . S
Co14 O24 2.021 . S
Co14 O26 2.137 1_545 S
Co14 O27 2.244 . S
O15 Co14 2.216 1_565 S
O15 C22 1.247 . S
O16 Co14 2.091 1_565 S
O16 C22 1.261 . S
C17 O26 1.247 1_545 S
C17 O27 1.272 . S
O18 Co14 2.004 . S
O18 C23 1.259 . S
Co19 O20 2.061 . S
Co19 O25 2.052 . S
Co19 O27 2.135 . S
O20 Co19 2.061 . S
O20 C23 1.235 . S
C21 O24 1.238 . S
C21 O25 1.241 . S
C22 O15 1.247 . S
C22 O16 1.261 . S
C23 O18 1.259 . S
C23 O20 1.235 . S
O24 Co14 2.021 . S
O24 C21 1.238 . S
O25 Co19 2.052 . S
O25 C21 1.241 . S
O26 Co14 2.137 1_565 S
O26 C17 1.247 1_565 S
O27 Co14 2.244 . S
O27 C17 1.272 . S
O27 Co19 2.135 . S
Co28 O29 2.216 1_455 S
Co28 O30 2.091 . S
Co28 O32 2.004 . S
Co28 O38 2.021 . S
Co28 O40 2.137 1_455 S
Co28 O41 2.244 1_455 S
O29 Co28 2.216 1_655 S
O29 C36 1.247 1_655 S
O30 Co28 2.091 . S
O30 C36 1.261 . S
C31 O40 1.247 . S
C31 O41 1.272 . S
O32 Co28 2.004 . S
O32 C37 1.259 . S
Co33 O34 2.061 . S
Co33 O39 2.052 . S
Co33 O41 2.135 1_455 S
O34 Co33 2.061 . S
O34 C37 1.235 . S
C35 O38 1.238 . S
C35 O39 1.241 . S
C36 O29 1.247 1_455 S
C36 O30 1.261 . S
C37 O32 1.259 . S
C37 O34 1.235 . S
O38 Co28 2.021 . S
O38 C35 1.238 . S
O39 Co33 2.052 . S
O39 C35 1.241 . S
O40 Co28 2.137 1_655 S
O40 C31 1.247 . S
O41 Co28 2.244 1_655 S
O41 C31 1.272 . S
O41 Co33 2.135 1_655 S
Co42 O43 2.216 . S
Co42 O44 2.091 . S
Co42 O46 2.004 . S
Co42 O52 2.055 . S
Co42 O54 2.137 . S
Co42 O55 2.244 . S
O43 Co42 2.216 . S
O43 C50 1.247 . S
O44 Co42 2.091 . S
O44 C50 1.261 . S
C45 O54 1.247 . S
C45 O55 1.272 . S
O46 Co42 2.004 . S
O46 C51 1.259 . S
Co47 O48 2.061 . S
Co47 O53 2.052 . S
Co47 O55 2.135 1_565 S
O48 Co47 2.061 . S
O48 C51 1.235 1_565 S
C49 O52 1.193 1_565 S
C49 O53 1.241 . S
C50 O43 1.247 . S
C50 O44 1.261 . S
C51 O46 1.259 . S
C51 O48 1.235 1_545 S
O52 Co42 2.055 . S
O52 C49 1.193 1_545 S
O53 Co47 2.052 . S
O53 C49 1.241 . S
O54 Co42 2.137 . S
O54 C45 1.247 . S
O55 Co42 2.244 . S
O55 C45 1.272 . S
O55 Co47 2.135 1_545 S
Co56 O57 2.216 . S
Co56 O58 2.091 . S
Co56 O60 2.004 . S
Co56 O66 2.021 1_545 S
Co56 O68 2.137 . S
Co56 O69 2.244 . S
O57 Co56 2.216 . S
O57 C64 1.247 . S
O58 Co56 2.091 . S
O58 C64 1.261 . S
C59 O68 1.247 . S
C59 O69 1.272 . S
O60 Co56 2.004 . S
O60 C65 1.259 . S
Co61 O62 2.061 . S
Co61 O67 2.052 . S
Co61 O69 2.135 1_565 S
O62 Co61 2.061 . S
O62 C65 1.235 1_565 S
C63 O66 1.238 . S
C63 O67 1.241 . S
C64 O57 1.247 . S
C64 O58 1.261 . S
C65 O60 1.259 . S
C65 O62 1.235 1_545 S
O66 Co56 2.021 1_565 S
O66 C63 1.238 . S
O67 Co61 2.052 . S
O67 C63 1.241 . S
O68 Co56 2.137 . S
O68 C59 1.247 . S
O69 Co56 2.244 . S
O69 C59 1.272 . S
O69 Co61 2.135 1_545 S
Co70 O71 2.216 . S
Co70 O72 2.091 1_455 S
Co70 O74 2.004 1_455 S
Co70 O80 2.021 1_455 S
Co70 O82 2.137 . S
Co70 O83 2.244 . S
O71 Co70 2.216 . S
O71 C78 1.247 . S
O72 Co70 2.091 1_655 S
O72 C78 1.261 1_655 S
C73 O82 1.247 . S
C73 O83 1.272 . S
O74 Co70 2.004 1_655 S
O74 C79 1.259 . S
Co75 O76 2.061 1_455 S
Co75 O81 2.052 . S
Co75 O83 2.135 . S
O76 Co75 2.061 1_655 S
O76 C79 1.235 . S
C77 O80 1.238 1_455 S
C77 O81 1.241 . S
C78 O71 1.247 . S
C78 O72 1.261 1_455 S
C79 O74 1.259 . S
C79 O76 1.235 . S
O80 Co70 2.021 1_655 S
O80 C77 1.238 1_655 S
O81 Co75 2.052 . S
O81 C77 1.241 . S
O82 Co70 2.137 . S
O82 C73 1.247 . S
O83 Co70 2.244 . S
O83 C73 1.272 . S
O83 Co75 2.135 . S
Co84 O85 2.216 1_545 S
Co84 O86 2.091 1_545 S
Co84 O88 2.004 . S
Co84 O94 2.021 . S
Co84 O96 2.137 1_545 S
Co84 O97 2.244 . S
O85 Co84 2.216 1_565 S
O85 C92 1.247 . S
O86 Co84 2.091 1_565 S
O86 C92 1.261 . S
C87 O96 1.247 1_545 S
C87 O97 1.272 . S
O88 Co84 2.004 . S
O88 C93 1.259 . S
Co89 O90 2.061 . S
Co89 O95 2.052 . S
Co89 O97 2.135 . S
O90 Co89 2.061 . S
O90 C93 1.235 . S
C91 O94 1.238 . S
C91 O95 1.241 . S
C92 O85 1.247 . S
C92 O86 1.261 . S
C93 O88 1.259 . S
C93 O90 1.235 . S
O94 Co84 2.021 . S
O94 C91 1.238 . S
O95 Co89 2.052 . S
O95 C91 1.241 . S
O96 Co84 2.137 1_565 S
O96 C87 1.247 1_565 S
O97 Co84 2.244 . S
O97 C87 1.272 . S
O97 Co89 2.135 . S
Co98 O99 2.216 . S
Co98 O100 2.078 1_455 S
Co98 O102 2.004 1_455 S
Co98 O108 2.021 1_455 S
Co98 O110 2.137 . S
Co98 O111 2.244 . S
O99 Co98 2.216 . S
O99 C106 1.247 . S
O100 Co98 2.078 1_655 S
O100 C106 1.221 1_655 S
C101 O110 1.247 . S
C101 O111 1.272 . S
O102 Co98 2.004 1_655 S
O102 C107 1.259 . S
Co103 O104 2.061 1_455 S
Co103 O109 2.052 . S
Co103 O111 2.135 . S
O104 Co103 2.061 1_655 S
O104 C107 1.235 . S
C105 O108 1.238 1_455 S
C105 O109 1.241 . S
C106 O99 1.247 . S
C106 O100 1.221 1_455 S
C107 O102 1.259 . S
C107 O104 1.235 . S
O108 Co98 2.021 1_655 S
O108 C105 1.238 1_655 S
O109 Co103 2.052 . S
O109 C105 1.241 . S
O110 Co98 2.137 . S
O110 C101 1.247 . S
O111 Co98 2.244 . S
O111 C101 1.272 . S
O111 Co103 2.135 . S
Co112 O113 2.216 1_554 S
Co112 O114 2.091 . S
Co112 O116 2.004 . S
Co112 O122 2.021 . S
Co112 O124 2.137 1_554 S
Co112 O125 2.244 1_554 S
O113 Co112 2.216 1_556 S
O113 C120 1.247 1_556 S
O114 Co112 2.091 . S
O114 C120 1.261 . S
C115 O124 1.247 . S
C115 O125 1.272 . S
O116 Co112 2.004 . S
O116 C121 1.259 . S
Co117 O118 2.061 . S
Co117 O123 2.052 . S
Co117 O125 2.135 1_554 S
O118 Co117 2.061 . S
O118 C121 1.235 . S
C119 O122 1.238 . S
C119 O123 1.241 . S
C120 O113 1.247 1_554 S
C120 O114 1.261 . S
C121 O116 1.259 . S
C121 O118 1.235 . S
O122 Co112 2.021 . S
O122 C119 1.238 . S
O123 Co117 2.052 . S
O123 C119 1.241 . S
O124 Co112 2.137 1_556 S
O124 C115 1.247 . S
O125 Co112 2.244 1_556 S
O125 C115 1.272 . S
O125 Co117 2.135 1_556 S
Co126 O127 2.216 . S
Co126 O128 2.091 . S
Co126 O130 2.004 . S
Co126 O136 2.021 1_554 S
Co126 O138 2.137 . S
Co126 O139 2.258 . S
O127 Co126 2.216 . S
O127 C134 1.247 . S
O128 Co126 2.091 . S
O128 C134 1.261 . S
C129 O138 1.247 . S
C129 O139 1.293 . S
O130 Co126 2.004 . S
O130 C135 1.259 . S
Co131 O132 2.061 . S
Co131 O137 2.052 . S
Co131 O139 2.112 1_556 S
O132 Co131 2.061 . S
O132 C135 1.235 1_556 S
C133 O136 1.238 . S
C133 O137 1.241 . S
C134 O127 1.247 . S
C134 O128 1.261 . S
C135 O130 1.259 . S
C135 O132 1.235 1_554 S
O136 Co126 2.021 1_556 S
O136 C133 1.238 . S
O137 Co131 2.052 . S
O137 C133 1.241 . S
O138 Co126 2.137 . S
O138 C129 1.247 . S
O139 Co126 2.258 . S
O139 C129 1.293 . S
O139 Co131 2.112 1_554 S
Co140 O141 2.216 1_554 S
Co140 O142 2.091 . S
Co140 O144 2.004 . S
Co140 O150 2.021 . S
Co140 O152 2.137 1_554 S
Co140 O153 2.244 1_554 S
O141 Co140 2.216 1_556 S
O141 C148 1.247 1_556 S
O142 Co140 2.091 . S
O142 C148 1.261 . S
C143 O152 1.247 . S
C143 O153 1.272 . S
O144 Co140 2.004 . S
O144 C149 1.259 . S
Co145 O146 2.061 . S
Co145 O151 2.052 . S
Co145 O153 2.135 1_554 S
O146 Co145 2.061 . S
O146 C149 1.235 . S
C147 O150 1.238 . S
C147 O151 1.241 . S
C148 O141 1.247 1_554 S
C148 O142 1.261 . S
C149 O144 1.259 . S
C149 O146 1.235 . S
O150 Co140 2.021 . S
O150 C147 1.238 . S
O151 Co145 2.052 . S
O151 C147 1.241 . S
O152 Co140 2.137 1_556 S
O152 C143 1.247 . S
O153 Co140 2.244 1_556 S
O153 C143 1.272 . S
O153 Co145 2.135 1_556 S
Co154 O155 2.216 1_554 S
Co154 O156 2.091 1_554 S
Co154 O158 2.004 . S
Co154 O164 2.021 . S
Co154 O166 2.137 1_554 S
Co154 O167 2.244 . S
O155 Co154 2.216 1_556 S
O155 C162 1.247 . S
O156 Co154 2.091 1_556 S
O156 C162 1.261 . S
C157 O166 1.247 1_554 S
C157 O167 1.272 . S
O158 Co154 2.004 . S
O158 C163 1.259 . S
Co159 O160 2.061 . S
Co159 O165 2.052 . S
Co159 O167 2.135 . S
O160 Co159 2.061 . S
O160 C163 1.235 . S
C161 O164 1.238 . S
C161 O165 1.241 . S
C162 O155 1.247 . S
C162 O156 1.261 . S
C163 O158 1.259 . S
C163 O160 1.235 . S
O164 Co154 2.021 . S
O164 C161 1.238 . S
O165 Co159 2.052 . S
O165 C161 1.241 . S
O166 Co154 2.137 1_556 S
O166 C157 1.247 1_556 S
O167 Co154 2.244 . S
O167 C157 1.272 . S
O167 Co159 2.135 . S
H168 C186 0.951 . S
H169 C188 0.951 . S
H170 C190 0.950 . S
H171 C191 0.950 . S
H172 C193 0.950 . S
H173 C196 0.950 . S
H174 C197 0.950 . S
H175 C199 0.950 . S
H176 C200 0.950 . S
H177 C201 0.951 . S
H178 C203 0.951 . S
H179 C205 0.950 1_655 S
H180 C206 0.964 . S
H181 C208 0.950 . S
H182 C211 0.950 . S
H183 C212 0.950 . S
H184 C214 0.950 . S
H185 C215 0.950 . S
C186 H168 0.951 . S
C186 C187 1.366 . S
C186 C188 1.388 . S
C187 C186 1.366 . S
C187 C191 1.385 1_655 S
C188 H169 0.951 . S
C188 C186 1.388 . S
C188 C189 1.364 . S
C189 C188 1.364 . S
C189 C190 1.415 1_655 S
C189 C192 1.499 1_655 S
C190 H170 0.950 . S
C190 C189 1.415 1_455 S
C190 C191 1.374 . S
C191 H171 0.950 . S
C191 C187 1.385 1_455 S
C191 C190 1.374 . S
C192 C189 1.499 1_455 S
C192 C193 1.373 . S
C192 C194 1.389 1_455 S
C193 H172 0.950 . S
C193 C192 1.373 . S
C193 C209 1.377 . S
C194 C192 1.389 1_655 S
C194 C195 1.524 . S
C194 C208 1.377 . S
C195 C194 1.524 . S
C195 C196 1.397 . S
C195 C200 1.363 . S
C196 H173 0.950 . S
C196 C195 1.397 . S
C196 C197 1.334 . S
C197 H174 0.950 . S
C197 C196 1.334 . S
C197 C198 1.287 . S
C198 C197 1.287 . S
C198 C199 1.524 . S
C198 H217 0.913 . S
C199 H175 0.950 . S
C199 C198 1.524 . S
C199 C200 1.415 . S
C200 H176 0.950 . S
C200 C195 1.363 . S
C200 C199 1.415 . S
C201 H177 0.951 . S
C201 C202 1.366 . S
C201 C203 1.388 . S
C202 C201 1.366 . S
C202 C206 1.385 . S
C203 H178 0.951 . S
C203 C201 1.388 . S
C203 C204 1.366 . S
C204 C203 1.366 . S
C204 C205 1.414 . S
C204 C207 1.499 . S
C205 H179 0.950 1_455 S
C205 C204 1.414 . S
C205 C206 1.374 . S
C206 H180 0.964 . S
C206 C202 1.385 . S
C206 C205 1.374 . S
C207 C204 1.499 . S
C207 C208 1.373 1_455 S
C207 C209 1.389 . S
C208 H181 0.950 . S
C208 C194 1.377 . S
C208 C207 1.373 1_655 S
C209 C193 1.377 . S
C209 C207 1.389 . S
C209 C210 1.524 . S
C210 C209 1.524 . S
C210 C211 1.397 . S
C210 C215 1.363 . S
C211 H182 0.950 . S
C211 C210 1.397 . S
C211 C212 1.334 . S
C212 H183 0.950 . S
C212 C211 1.334 . S
C212 C213 1.287 . S
C213 C212 1.287 . S
C213 C214 1.524 . S
C213 H216 0.999 . S
C214 H184 0.950 . S
C214 C213 1.524 . S
C214 C215 1.415 . S
C215 H185 0.950 . S
C215 C210 1.363 . S
C215 C214 1.415 . S
H216 C213 0.999 . S
H217 C198 0.913 . S
H218 C236 0.951 . S
H219 C238 0.951 . S
H220 C240 0.950 . S
H221 C241 0.950 1_565 S
H222 C243 0.950 . S
H223 C246 0.950 . S
H224 C247 0.950 . S
H225 C249 0.950 . S
H226 C250 0.950 . S
H227 C251 0.951 . S
H228 C253 0.951 . S
H229 C255 0.950 . S
H230 C256 0.950 . S
H231 C258 0.950 . S
H232 C261 0.950 . S
H233 C262 0.950 . S
H234 C264 0.950 . S
H235 C265 0.950 . S
C236 H218 0.951 . S
C236 C237 1.366 . S
C236 C238 1.388 . S
C237 C236 1.366 . S
C237 C241 1.385 . S
C238 H219 0.951 . S
C238 C236 1.388 . S
C238 C239 1.366 . S
C239 C238 1.366 . S
C239 C240 1.414 . S
C239 C242 1.499 . S
C240 H220 0.950 . S
C240 C239 1.414 . S
C240 C241 1.374 . S
C241 H221 0.950 1_545 S
C241 C237 1.385 . S
C241 C240 1.374 . S
C242 C239 1.499 . S
C242 C243 1.373 1_545 S
C242 C244 1.389 . S
C243 H222 0.950 . S
C243 C242 1.373 1_565 S
C243 C259 1.377 . S
C244 C242 1.389 . S
C244 C245 1.524 . S
C244 C258 1.377 . S
C245 C244 1.524 . S
C245 C246 1.397 . S
C245 C250 1.363 . S
C246 H223 0.950 . S
C246 C245 1.397 . S
C246 C247 1.334 . S
C247 H224 0.950 . S
C247 C246 1.334 . S
C247 C248 1.287 . S
C248 C247 1.287 . S
C248 C249 1.524 . S
C248 H267 0.913 . S
C249 H225 0.950 . S
C249 C248 1.524 . S
C249 C250 1.415 . S
C250 H226 0.950 . S
C250 C245 1.363 . S
C250 C249 1.415 . S
C251 H227 0.951 . S
C251 C252 1.366 . S
C251 C253 1.388 . S
C252 C251 1.366 . S
C252 C256 1.385 . S
C253 H228 0.951 . S
C253 C251 1.388 . S
C253 C254 1.366 . S
C254 C253 1.366 . S
C254 C255 1.414 . S
C254 C257 1.499 . S
C255 H229 0.950 . S
C255 C254 1.414 . S
C255 C256 1.374 . S
C256 H230 0.950 . S
C256 C252 1.385 . S
C256 C255 1.374 . S
C257 C254 1.499 . S
C257 C258 1.373 . S
C257 C259 1.389 1_545 S
C258 H231 0.950 . S
C258 C244 1.377 . S
C258 C257 1.373 . S
C259 C243 1.377 . S
C259 C257 1.389 1_565 S
C259 C260 1.524 . S
C260 C259 1.524 . S
C260 C261 1.397 . S
C260 C265 1.363 . S
C261 H232 0.950 . S
C261 C260 1.397 . S
C261 C262 1.334 . S
C262 H233 0.950 . S
C262 C261 1.334 . S
C262 C263 1.287 . S
C263 C262 1.287 . S
C263 C264 1.524 . S
C263 H266 0.999 . S
C264 H234 0.950 . S
C264 C263 1.524 . S
C264 C265 1.415 . S
C265 H235 0.950 . S
C265 C260 1.363 . S
C265 C264 1.415 . S
H266 C263 0.999 . S
H267 C248 0.913 . S
H268 C286 0.951 . S
H269 C288 0.951 . S
H270 C290 0.950 . S
H271 C291 0.950 . S
H272 C293 0.950 . S
H273 C296 0.950 . S
H274 C297 0.950 . S
H275 C299 0.950 . S
H276 C300 0.950 . S
H277 C301 0.951 . S
H278 C303 0.951 . S
H279 C305 0.950 . S
H280 C306 0.950 . S
H281 C308 0.950 . S
H282 C311 0.950 1_455 S
H283 C312 0.950 . S
H284 C314 0.950 . S
H285 C315 0.950 . S
C286 H268 0.951 . S
C286 C287 1.366 . S
C286 C288 1.388 . S
C287 C286 1.366 . S
C287 C291 1.385 1_455 S
C288 H269 0.951 . S
C288 C286 1.388 . S
C288 C289 1.366 . S
C289 C288 1.366 . S
C289 C290 1.414 1_455 S
C289 C292 1.499 . S
C290 H270 0.950 . S
C290 C289 1.414 1_655 S
C290 C291 1.374 . S
C291 H271 0.950 . S
C291 C287 1.385 1_655 S
C291 C290 1.374 . S
C292 C289 1.499 . S
C292 C293 1.373 1_455 S
C292 C294 1.389 . S
C293 H272 0.950 . S
C293 C292 1.373 1_655 S
C293 C309 1.377 . S
C294 C292 1.389 . S
C294 C295 1.524 . S
C294 C308 1.377 . S
C295 C294 1.524 . S
C295 C296 1.397 . S
C295 C300 1.363 . S
C296 H273 0.950 . S
C296 C295 1.397 . S
C296 C297 1.334 . S
C297 H274 0.950 . S
C297 C296 1.334 . S
C297 C298 1.287 . S
C298 C297 1.287 . S
C298 C299 1.524 . S
C298 H317 0.913 . S
C299 H275 0.950 . S
C299 C298 1.524 . S
C299 C300 1.415 . S
C300 H276 0.950 . S
C300 C295 1.363 . S
C300 C299 1.415 . S
C301 H277 0.951 . S
C301 C302 1.366 1_655 S
C301 C303 1.388 . S
C302 C301 1.366 1_455 S
C302 C306 1.385 . S
C303 H278 0.951 . S
C303 C301 1.388 . S
C303 C304 1.366 1_655 S
C304 C303 1.366 1_455 S
C304 C305 1.414 . S
C304 C307 1.499 . S
C305 H279 0.950 . S
C305 C304 1.414 . S
C305 C306 1.374 . S
C306 H280 0.950 . S
C306 C302 1.385 . S
C306 C305 1.374 . S
C307 C304 1.499 . S
C307 C308 1.373 . S
C307 C309 1.389 1_455 S
C308 H281 0.950 . S
C308 C294 1.377 . S
C308 C307 1.373 . S
C309 C293 1.377 . S
C309 C307 1.389 1_655 S
C309 C310 1.524 . S
C310 C309 1.524 . S
C310 C311 1.397 . S
C310 C315 1.363 . S
C311 H282 0.950 1_655 S
C311 C310 1.397 . S
C311 C312 1.334 . S
C312 H283 0.950 . S
C312 C311 1.334 . S
C312 C313 1.287 . S
C313 C312 1.287 . S
C313 C314 1.524 . S
C313 H316 0.999 . S
C314 H284 0.950 . S
C314 C313 1.524 . S
C314 C315 1.415 . S
C315 H285 0.950 . S
C315 C310 1.363 . S
C315 C314 1.415 . S
H316 C313 0.999 . S
H317 C298 0.913 . S
H318 C336 0.951 1_565 S
H319 C338 0.982 . S
H320 C340 0.950 . S
H321 C341 0.950 . S
H322 C343 0.950 . S
H323 C346 0.950 . S
H324 C347 0.950 1_545 S
H325 C349 0.950 . S
H326 C350 0.950 . S
H327 C351 0.951 . S
H328 C353 0.951 . S
H329 C355 0.950 . S
H330 C356 0.950 . S
H331 C358 0.981 . S
H332 C361 0.950 . S
H333 C362 0.950 . S
H334 C364 0.950 . S
H335 C365 0.950 . S
C336 H318 0.951 1_545 S
C336 C337 1.366 . S
C336 C338 1.385 1_545 S
C337 C336 1.366 . S
C337 C341 1.385 . S
C338 H319 0.982 . S
C338 C336 1.385 1_565 S
C338 C339 1.338 1_565 S
C339 C338 1.338 1_545 S
C339 C340 1.414 . S
C339 C342 1.499 . S
C340 H320 0.950 . S
C340 C339 1.414 . S
C340 C341 1.374 . S
C341 H321 0.950 . S
C341 C337 1.385 . S
C341 C340 1.374 . S
C342 C339 1.499 . S
C342 C343 1.373 . S
C342 C344 1.389 . S
C343 H322 0.950 . S
C343 C342 1.373 . S
C343 C359 1.377 . S
C344 C342 1.389 . S
C344 C345 1.524 1_545 S
C344 C358 1.372 1_545 S
C345 C344 1.524 1_565 S
C345 C346 1.397 1_565 S
C345 C350 1.363 . S
C346 H323 0.950 . S
C346 C345 1.397 1_545 S
C346 C347 1.334 1_545 S
C347 H324 0.950 1_565 S
C347 C346 1.334 1_565 S
C347 C348 1.287 . S
C348 C347 1.287 . S
C348 C349 1.524 . S
C348 H367 0.913 . S
C349 H325 0.950 . S
C349 C348 1.524 . S
C349 C350 1.415 . S
C350 H326 0.950 . S
C350 C345 1.363 . S
C350 C349 1.415 . S
C351 H327 0.951 . S
C351 C352 1.366 . S
C351 C353 1.388 . S
C352 C351 1.366 . S
C352 C356 1.385 1_545 S
C353 H328 0.951 . S
C353 C351 1.388 . S
C353 C354 1.366 . S
C354 C353 1.366 . S
C354 C355 1.414 1_545 S
C354 C357 1.499 . S
C355 H329 0.950 . S
C355 C354 1.414 1_565 S
C355 C356 1.374 . S
C356 H330 0.950 . S
C356 C352 1.385 1_565 S
C356 C355 1.374 . S
C357 C354 1.499 . S
C357 C358 1.350 1_545 S
C357 C359 1.389 . S
C358 H331 0.981 . S
C358 C344 1.372 1_565 S
C358 C357 1.350 1_565 S
C359 C343 1.377 . S
C359 C357 1.389 . S
C359 C360 1.524 . S
C360 C359 1.524 . S
C360 C361 1.397 . S
C360 C365 1.363 . S
C361 H332 0.950 . S
C361 C360 1.397 . S
C361 C362 1.334 . S
C362 H333 0.950 . S
C362 C361 1.334 . S
C362 C363 1.287 . S
C363 C362 1.287 . S
C363 C364 1.524 . S
C363 H366 0.999 . S
C364 H334 0.950 . S
C364 C363 1.524 . S
C364 C365 1.415 . S
C365 H335 0.950 . S
C365 C360 1.363 . S
C365 C364 1.415 . S
H366 C363 0.999 . S
H367 C348 0.913 . S
H368 C386 0.980 . S
H369 C388 0.951 . S
H370 C390 0.950 . S
H371 C391 0.950 . S
H372 C393 0.950 . S
H373 C396 0.950 . S
H374 C397 0.950 . S
H375 C399 0.950 . S
H376 C400 0.950 . S
H377 C401 0.951 . S
H378 C403 0.951 . S
H379 C405 0.950 . S
H380 C406 0.950 . S
H381 C408 0.950 1_655 S
H382 C411 0.950 1_655 S
H383 C412 0.950 1_655 S
H384 C414 0.950 . S
H385 C415 0.950 . S
C386 H368 0.980 . S
C386 C387 1.334 1_655 S
C386 C388 1.391 . S
C387 C386 1.334 1_455 S
C387 C391 1.385 . S
C388 H369 0.951 . S
C388 C386 1.391 . S
C388 C389 1.366 1_655 S
C389 C388 1.366 1_455 S
C389 C390 1.414 . S
C389 C392 1.499 . S
C390 H370 0.950 . S
C390 C389 1.414 . S
C390 C391 1.374 . S
C391 H371 0.950 . S
C391 C387 1.385 . S
C391 C390 1.374 . S
C392 C389 1.499 . S
C392 C393 1.373 . S
C392 C394 1.389 . S
C393 H372 0.950 . S
C393 C392 1.373 . S
C393 C409 1.377 . S
C394 C392 1.389 . S
C394 C395 1.524 . S
C394 C408 1.377 . S
C395 C394 1.524 . S
C395 C396 1.397 . S
C395 C400 1.363 1_455 S
C396 H373 0.950 . S
C396 C395 1.397 . S
C396 C397 1.334 . S
C397 H374 0.950 . S
C397 C396 1.334 . S
C397 C398 1.269 1_455 S
C398 C397 1.269 1_655 S
C398 C399 1.542 . S
C398 H417 0.915 . S
C399 H375 0.950 . S
C399 C398 1.542 . S
C399 C400 1.415 . S
C400 H376 0.950 . S
C400 C395 1.363 1_655 S
C400 C399 1.415 . S
C401 H377 0.951 . S
C401 C402 1.366 . S
C401 C403 1.388 . S
C402 C401 1.366 . S
C402 C406 1.385 1_455 S
C403 H378 0.951 . S
C403 C401 1.388 . S
C403 C404 1.366 . S
C404 C403 1.366 . S
C404 C405 1.414 1_455 S
C404 C407 1.499 . S
C405 H379 0.950 . S
C405 C404 1.414 1_655 S
C405 C406 1.374 . S
C406 H380 0.950 . S
C406 C402 1.385 1_655 S
C406 C405 1.374 . S
C407 C404 1.499 . S
C407 C408 1.373 . S
C407 C409 1.389 . S
C408 H381 0.950 1_455 S
C408 C394 1.377 . S
C408 C407 1.373 . S
C409 C393 1.377 . S
C409 C407 1.389 . S
C409 C410 1.524 . S
C410 C409 1.524 . S
C410 C411 1.397 . S
C410 C415 1.363 . S
C411 H382 0.950 1_455 S
C411 C410 1.397 . S
C411 C412 1.334 . S
C412 H383 0.950 1_455 S
C412 C411 1.334 . S
C412 C413 1.287 . S
C413 C412 1.287 . S
C413 C414 1.524 . S
C413 H416 0.999 . S
C414 H384 0.950 . S
C414 C413 1.524 . S
C414 C415 1.415 . S
C415 H385 0.950 . S
C415 C410 1.363 . S
C415 C414 1.415 . S
H416 C413 0.999 . S
H417 C398 0.915 . S
H418 C436 0.951 . S
H419 C438 0.951 . S
H420 C440 0.950 . S
H421 C441 0.950 . S
H422 C443 0.950 1_565 S
H423 C446 0.950 . S
H424 C447 0.950 . S
H425 C449 0.950 . S
H426 C450 0.950 . S
H427 C451 0.951 . S
H428 C453 0.951 . S
H429 C455 0.950 . S
H430 C456 0.950 . S
H431 C458 0.950 . S
H432 C461 0.950 . S
H433 C462 0.950 . S
H434 C464 0.950 . S
H435 C465 0.950 . S
C436 H418 0.951 . S
C436 C437 1.366 . S
C436 C438 1.388 . S
C437 C436 1.366 . S
C437 C441 1.385 . S
C438 H419 0.951 . S
C438 C436 1.388 . S
C438 C439 1.366 . S
C439 C438 1.366 . S
C439 C440 1.414 . S
C439 C442 1.499 . S
C440 H420 0.950 . S
C440 C439 1.414 . S
C440 C441 1.374 . S
C441 H421 0.950 . S
C441 C437 1.385 . S
C441 C440 1.374 . S
C442 C439 1.499 . S
C442 C443 1.373 . S
C442 C444 1.389 . S
C443 H422 0.950 1_545 S
C443 C442 1.373 . S
C443 C459 1.377 1_545 S
C444 C442 1.389 . S
C444 C445 1.524 . S
C444 C458 1.377 . S
C445 C444 1.524 . S
C445 C446 1.397 . S
C445 C450 1.363 . S
C446 H423 0.950 . S
C446 C445 1.397 . S
C446 C447 1.334 . S
C447 H424 0.950 . S
C447 C446 1.334 . S
C447 C448 1.287 . S
C448 C447 1.287 . S
C448 C449 1.524 . S
C448 H467 0.913 . S
C449 H425 0.950 . S
C449 C448 1.524 . S
C449 C450 1.415 . S
C450 H426 0.950 . S
C450 C445 1.363 . S
C450 C449 1.415 . S
C451 H427 0.951 . S
C451 C452 1.366 . S
C451 C453 1.388 . S
C452 C451 1.366 . S
C452 C456 1.385 . S
C453 H428 0.951 . S
C453 C451 1.388 . S
C453 C454 1.366 . S
C454 C453 1.366 . S
C454 C455 1.414 . S
C454 C457 1.499 . S
C455 H429 0.950 . S
C455 C454 1.414 . S
C455 C456 1.374 . S
C456 H430 0.950 . S
C456 C452 1.385 . S
C456 C455 1.374 . S
C457 C454 1.499 . S
C457 C458 1.373 . S
C457 C459 1.391 1_545 S
C458 H431 0.950 . S
C458 C444 1.377 . S
C458 C457 1.373 . S
C459 C443 1.377 1_565 S
C459 C457 1.391 1_565 S
C459 C460 1.522 . S
C460 C459 1.522 . S
C460 C461 1.397 . S
C460 C465 1.363 . S
C461 H432 0.950 . S
C461 C460 1.397 . S
C461 C462 1.334 . S
C462 H433 0.950 . S
C462 C461 1.334 . S
C462 C463 1.287 . S
C463 C462 1.287 . S
C463 C464 1.524 . S
C463 H466 0.999 . S
C464 H434 0.950 . S
C464 C463 1.524 . S
C464 C465 1.415 . S
C465 H435 0.950 . S
C465 C460 1.363 . S
C465 C464 1.415 . S
H466 C463 0.999 . S
H467 C448 0.913 . S
H468 C486 0.951 . S
H469 C488 0.951 . S
H470 C490 0.950 . S
H471 C491 0.950 . S
H472 C493 0.950 . S
H473 C496 0.950 . S
H474 C497 0.950 . S
H475 C499 0.950 . S
H476 C500 0.950 . S
H477 C501 0.951 . S
H478 C503 0.951 . S
H479 C505 0.950 . S
H480 C506 0.950 . S
H481 C508 0.950 . S
H482 C511 0.950 . S
H483 C512 0.950 . S
H484 C514 0.950 . S
H485 C515 0.950 . S
C486 H468 0.951 . S
C486 C487 1.366 1_655 S
C486 C488 1.388 . S
C487 C486 1.366 1_455 S
C487 C491 1.385 . S
C488 H469 0.951 . S
C488 C486 1.388 . S
C488 C489 1.366 1_655 S
C489 C488 1.366 1_455 S
C489 C490 1.414 . S
C489 C492 1.499 . S
C490 H470 0.950 . S
C490 C489 1.414 . S
C490 C491 1.374 . S
C491 H471 0.950 . S
C491 C487 1.385 . S
C491 C490 1.374 . S
C492 C489 1.499 . S
C492 C493 1.373 . S
C492 C494 1.389 1_455 S
C493 H472 0.950 . S
C493 C492 1.373 . S
C493 C509 1.377 . S
C494 C492 1.389 1_655 S
C494 C495 1.524 . S
C494 C508 1.377 . S
C495 C494 1.524 . S
C495 C496 1.397 . S
C495 C500 1.363 . S
C496 H473 0.950 . S
C496 C495 1.397 . S
C496 C497 1.334 . S
C497 H474 0.950 . S
C497 C496 1.334 . S
C497 C498 1.287 . S
C498 C497 1.287 . S
C498 C499 1.524 . S
C498 H517 0.913 . S
C499 H475 0.950 . S
C499 C498 1.524 . S
C499 C500 1.415 . S
C500 H476 0.950 . S
C500 C495 1.363 . S
C500 C499 1.415 . S
C501 H477 0.951 . S
C501 C502 1.369 . S
C501 C503 1.388 . S
C502 C501 1.369 . S
C502 C506 1.381 1_455 S
C503 H478 0.951 . S
C503 C501 1.388 . S
C503 C504 1.366 . S
C504 C503 1.366 . S
C504 C505 1.414 1_455 S
C504 C507 1.499 . S
C505 H479 0.950 . S
C505 C504 1.414 1_655 S
C505 C506 1.374 . S
C506 H480 0.950 . S
C506 C502 1.381 1_655 S
C506 C505 1.374 . S
C507 C504 1.499 . S
C507 C508 1.373 1_455 S
C507 C509 1.389 . S
C508 H481 0.950 . S
C508 C494 1.377 . S
C508 C507 1.373 1_655 S
C509 C493 1.377 . S
C509 C507 1.389 . S
C509 C510 1.524 . S
C510 C509 1.524 . S
C510 C511 1.397 . S
C510 C515 1.363 . S
C511 H482 0.950 . S
C511 C510 1.397 . S
C511 C512 1.334 . S
C512 H483 0.950 . S
C512 C511 1.334 . S
C512 C513 1.287 . S
C513 C512 1.287 . S
C513 C514 1.524 . S
C513 H516 0.999 . S
C514 H484 0.950 . S
C514 C513 1.524 . S
C514 C515 1.415 . S
C515 H485 0.950 . S
C515 C510 1.363 . S
C515 C514 1.415 . S
H516 C513 0.999 . S
H517 C498 0.913 . S
H518 C536 0.951 . S
H519 C538 0.951 . S
H520 C540 0.950 . S
H521 C541 0.950 . S
H522 C543 0.950 . S
H523 C546 0.950 . S
H524 C547 0.950 . S
H525 C549 0.950 . S
H526 C550 0.950 . S
H527 C551 0.951 . S
H528 C553 0.951 . S
H529 C555 0.950 . S
H530 C556 0.950 . S
H531 C558 0.950 . S
H532 C561 0.950 . S
H533 C562 0.950 . S
H534 C564 0.950 . S
H535 C565 0.950 . S
C536 H518 0.951 . S
C536 C537 1.366 . S
C536 C538 1.388 . S
C537 C536 1.366 . S
C537 C541 1.385 . S
C538 H519 0.951 . S
C538 C536 1.388 . S
C538 C539 1.366 . S
C539 C538 1.366 . S
C539 C540 1.414 . S
C539 C542 1.499 . S
C540 H520 0.950 . S
C540 C539 1.414 . S
C540 C541 1.374 . S
C541 H521 0.950 . S
C541 C537 1.385 . S
C541 C540 1.374 . S
C542 C539 1.499 . S
C542 C543 1.373 . S
C542 C544 1.389 1_545 S
C543 H522 0.950 . S
C543 C542 1.373 . S
C543 C559 1.377 . S
C544 C542 1.389 1_565 S
C544 C545 1.524 . S
C544 C558 1.377 . S
C545 C544 1.524 . S
C545 C546 1.397 . S
C545 C550 1.363 . S
C546 H523 0.950 . S
C546 C545 1.397 . S
C546 C547 1.334 . S
C547 H524 0.950 . S
C547 C546 1.334 . S
C547 C548 1.287 . S
C548 C547 1.287 . S
C548 C549 1.524 . S
C548 H567 0.913 . S
C549 H525 0.950 . S
C549 C548 1.524 . S
C549 C550 1.415 . S
C550 H526 0.950 . S
C550 C545 1.363 . S
C550 C549 1.415 . S
C551 H527 0.951 . S
C551 C552 1.366 . S
C551 C553 1.388 . S
C552 C551 1.366 . S
C552 C556 1.385 . S
C553 H528 0.951 . S
C553 C551 1.388 . S
C553 C554 1.366 . S
C554 C553 1.366 . S
C554 C555 1.414 . S
C554 C557 1.499 . S
C555 H529 0.950 . S
C555 C554 1.414 . S
C555 C556 1.374 . S
C556 H530 0.950 . S
C556 C552 1.385 . S
C556 C555 1.374 . S
C557 C554 1.499 . S
C557 C558 1.373 1_545 S
C557 C559 1.389 . S
C558 H531 0.950 . S
C558 C544 1.377 . S
C558 C557 1.373 1_565 S
C559 C543 1.377 . S
C559 C557 1.389 . S
C559 C560 1.524 . S
C560 C559 1.524 . S
C560 C561 1.397 . S
C560 C565 1.363 . S
C561 H532 0.950 . S
C561 C560 1.397 . S
C561 C562 1.334 . S
C562 H533 0.950 . S
C562 C561 1.334 . S
C562 C563 1.287 . S
C563 C562 1.287 . S
C563 C564 1.524 . S
C563 H566 0.999 . S
C564 H534 0.950 . S
C564 C563 1.524 . S
C564 C565 1.415 . S
C565 H535 0.950 . S
C565 C560 1.363 . S
C565 C564 1.415 . S
H566 C563 0.999 . S
H567 C548 0.913 . S
H568 C586 0.951 . S
H569 C588 0.951 . S
H570 C590 0.950 . S
H571 C591 0.950 . S
H572 C593 0.950 . S
H573 C596 0.950 . S
H574 C597 0.950 . S
H575 C599 0.950 . S
H576 C600 0.950 . S
H577 C601 0.951 . S
H578 C603 0.951 . S
H579 C605 0.950 . S
H580 C606 0.950 . S
H581 C608 0.950 . S
H582 C611 0.950 . S
H583 C612 0.950 . S
H584 C614 0.950 . S
H585 C615 0.950 . S
C586 H568 0.951 . S
C586 C587 1.366 . S
C586 C588 1.388 . S
C587 C586 1.366 . S
C587 C591 1.385 . S
C588 H569 0.951 . S
C588 C586 1.388 . S
C588 C589 1.366 . S
C589 C588 1.366 . S
C589 C590 1.414 . S
C589 C592 1.499 . S
C590 H570 0.950 . S
C590 C589 1.414 . S
C590 C591 1.374 . S
C591 H571 0.950 . S
C591 C587 1.385 . S
C591 C590 1.374 . S
C592 C589 1.499 . S
C592 C593 1.373 1_554 S
C592 C594 1.389 . S
C593 H572 0.950 . S
C593 C592 1.373 1_556 S
C593 C609 1.377 . S
C594 C592 1.389 . S
C594 C595 1.524 . S
C594 C608 1.377 . S
C595 C594 1.524 . S
C595 C596 1.397 . S
C595 C600 1.363 . S
C596 H573 0.950 . S
C596 C595 1.397 . S
C596 C597 1.334 . S
C597 H574 0.950 . S
C597 C596 1.334 . S
C597 C598 1.287 . S
C598 C597 1.287 . S
C598 C599 1.524 . S
C598 H617 0.913 . S
C599 H575 0.950 . S
C599 C598 1.524 . S
C599 C600 1.415 . S
C600 H576 0.950 . S
C600 C595 1.363 . S
C600 C599 1.415 . S
C601 H577 0.951 . S
C601 C602 1.366 . S
C601 C603 1.388 . S
C602 C601 1.366 . S
C602 C606 1.385 . S
C603 H578 0.951 . S
C603 C601 1.388 . S
C603 C604 1.366 . S
C604 C603 1.366 . S
C604 C605 1.414 . S
C604 C607 1.499 . S
C605 H579 0.950 . S
C605 C604 1.414 . S
C605 C606 1.374 . S
C606 H580 0.950 . S
C606 C602 1.385 . S
C606 C605 1.374 . S
C607 C604 1.499 . S
C607 C608 1.373 . S
C607 C609 1.389 1_554 S
C608 H581 0.950 . S
C608 C594 1.377 . S
C608 C607 1.373 . S
C609 C593 1.377 . S
C609 C607 1.389 1_556 S
C609 C610 1.524 . S
C610 C609 1.524 . S
C610 C611 1.397 . S
C610 C615 1.363 . S
C611 H582 0.950 . S
C611 C610 1.397 . S
C611 C612 1.334 . S
C612 H583 0.950 . S
C612 C611 1.334 . S
C612 C613 1.287 . S
C613 C612 1.287 . S
C613 C614 1.524 . S
C613 H616 0.999 . S
C614 H584 0.950 . S
C614 C613 1.524 . S
C614 C615 1.415 . S
C615 H585 0.950 . S
C615 C610 1.363 . S
C615 C614 1.415 . S
H616 C613 0.999 . S
H617 C598 0.913 . S
H618 C636 0.951 . S
H619 C638 0.951 . S
H620 C640 0.950 . S
H621 C641 0.950 . S
H622 C643 0.950 . S
H623 C646 0.950 . S
H624 C647 0.950 . S
H625 C649 0.950 . S
H626 C650 0.950 . S
H627 C651 0.948 1_556 S
H628 C653 0.951 1_556 S
H629 C655 0.950 . S
H630 C656 0.950 . S
H631 C658 0.950 . S
H632 C661 0.950 . S
H633 C662 0.950 . S
H634 C664 0.950 . S
H635 C665 0.950 . S
C636 H618 0.951 . S
C636 C637 1.366 . S
C636 C638 1.388 . S
C637 C636 1.366 . S
C637 C641 1.385 . S
C638 H619 0.951 . S
C638 C636 1.388 . S
C638 C639 1.366 . S
C639 C638 1.366 . S
C639 C640 1.414 . S
C639 C642 1.499 . S
C640 H620 0.950 . S
C640 C639 1.414 . S
C640 C641 1.374 . S
C641 H621 0.950 . S
C641 C637 1.385 . S
C641 C640 1.374 . S
C642 C639 1.499 . S
C642 C643 1.373 1_554 S
C642 C644 1.389 . S
C643 H622 0.950 . S
C643 C642 1.373 1_556 S
C643 C659 1.377 . S
C644 C642 1.389 . S
C644 C645 1.524 . S
C644 C658 1.377 . S
C645 C644 1.524 . S
C645 C646 1.397 . S
C645 C650 1.363 . S
C646 H623 0.950 . S
C646 C645 1.397 . S
C646 C647 1.334 . S
C647 H624 0.950 . S
C647 C646 1.334 . S
C647 C648 1.287 . S
C648 C647 1.287 . S
C648 C649 1.524 . S
C648 H667 0.913 . S
C649 H625 0.950 . S
C649 C648 1.524 . S
C649 C650 1.415 . S
C650 H626 0.950 . S
C650 C645 1.363 . S
C650 C649 1.415 . S
C651 H627 0.948 1_554 S
C651 C652 1.368 . S
C651 C653 1.389 . S
C652 C651 1.368 . S
C652 C656 1.385 . S
C653 H628 0.951 1_554 S
C653 C651 1.389 . S
C653 C654 1.366 . S
C654 C653 1.366 . S
C654 C655 1.414 . S
C654 C657 1.499 . S
C655 H629 0.950 . S
C655 C654 1.414 . S
C655 C656 1.374 . S
C656 H630 0.950 . S
C656 C652 1.385 . S
C656 C655 1.374 . S
C657 C654 1.499 . S
C657 C658 1.373 . S
C657 C659 1.389 1_554 S
C658 H631 0.950 . S
C658 C644 1.377 . S
C658 C657 1.373 . S
C659 C643 1.377 . S
C659 C657 1.389 1_556 S
C659 C660 1.524 . S
C660 C659 1.524 . S
C660 C661 1.397 . S
C660 C665 1.363 . S
C661 H632 0.950 . S
C661 C660 1.397 . S
C661 C662 1.334 . S
C662 H633 0.950 . S
C662 C661 1.334 . S
C662 C663 1.287 . S
C663 C662 1.287 . S
C663 C664 1.524 . S
C663 H666 0.999 . S
C664 H634 0.950 . S
C664 C663 1.524 . S
C664 C665 1.415 . S
C665 H635 0.950 . S
C665 C660 1.363 . S
C665 C664 1.415 . S
H666 C663 0.999 . S
H667 C648 0.913 . S
H668 C686 0.951 . S
H669 C688 0.951 . S
H670 C690 0.950 . S
H671 C691 0.950 . S
H672 C693 0.950 . S
H673 C696 0.950 . S
H674 C697 0.950 . S
H675 C699 0.950 . S
H676 C700 0.950 . S
H677 C701 0.951 . S
H678 C703 0.951 . S
H679 C705 0.931 1_556 S
H680 C706 0.950 . S
H681 C708 0.950 . S
H682 C711 0.950 . S
H683 C712 0.950 . S
H684 C714 0.950 . S
H685 C715 0.950 . S
C686 H668 0.951 . S
C686 C687 1.366 1_556 S
C686 C688 1.388 . S
C687 C686 1.366 1_554 S
C687 C691 1.385 . S
C688 H669 0.951 . S
C688 C686 1.388 . S
C688 C689 1.366 1_556 S
C689 C688 1.366 1_554 S
C689 C690 1.414 . S
C689 C692 1.499 . S
C690 H670 0.950 . S
C690 C689 1.414 . S
C690 C691 1.374 . S
C691 H671 0.950 . S
C691 C687 1.385 . S
C691 C690 1.374 . S
C692 C689 1.499 . S
C692 C693 1.373 . S
C692 C694 1.389 1_554 S
C693 H672 0.950 . S
C693 C692 1.373 . S
C693 C709 1.377 . S
C694 C692 1.389 1_556 S
C694 C695 1.524 . S
C694 C708 1.377 . S
C695 C694 1.524 . S
C695 C696 1.397 . S
C695 C700 1.363 . S
C696 H673 0.950 . S
C696 C695 1.397 . S
C696 C697 1.334 . S
C697 H674 0.950 . S
C697 C696 1.334 . S
C697 C698 1.287 . S
C698 C697 1.287 . S
C698 C699 1.524 . S
C698 H717 0.913 . S
C699 H675 0.950 . S
C699 C698 1.524 . S
C699 C700 1.415 . S
C700 H676 0.950 . S
C700 C695 1.363 . S
C700 C699 1.415 . S
C701 H677 0.951 . S
C701 C702 1.366 . S
C701 C703 1.388 . S
C702 C701 1.366 . S
C702 C706 1.385 . S
C703 H678 0.951 . S
C703 C701 1.388 . S
C703 C704 1.366 . S
C704 C703 1.366 . S
C704 C705 1.414 . S
C704 C707 1.499 . S
C705 H679 0.931 1_554 S
C705 C704 1.414 . S
C705 C706 1.374 . S
C706 H680 0.950 . S
C706 C702 1.385 . S
C706 C705 1.374 . S
C707 C704 1.499 . S
C707 C708 1.373 1_554 S
C707 C709 1.389 . S
C708 H681 0.950 . S
C708 C694 1.377 . S
C708 C707 1.373 1_556 S
C709 C693 1.377 . S
C709 C707 1.389 . S
C709 C710 1.524 . S
C710 C709 1.524 . S
C710 C711 1.397 . S
C710 C715 1.363 . S
C711 H682 0.950 . S
C711 C710 1.397 . S
C711 C712 1.334 . S
C712 H683 0.950 . S
C712 C711 1.334 . S
C712 C713 1.287 . S
C713 C712 1.287 . S
C713 C714 1.524 . S
C713 H716 0.999 . S
C714 H684 0.950 . S
C714 C713 1.524 . S
C714 C715 1.415 . S
C715 H685 0.950 . S
C715 C710 1.363 . S
C715 C714 1.415 . S
H716 C713 0.999 . S
H717 C698 0.913 . S
H718 C736 0.951 . S
H719 C738 0.951 . S
H720 C740 0.950 . S
H721 C741 0.950 . S
H722 C743 0.950 . S
H723 C746 0.950 . S
H724 C747 0.950 1_554 S
H725 C749 0.950 . S
H726 C750 0.950 . S
H727 C751 0.951 . S
H728 C753 0.951 . S
H729 C755 0.950 . S
H730 C756 0.912 1_556 S
H731 C758 0.950 1_556 S
H732 C761 0.950 . S
H733 C762 0.950 . S
H734 C764 0.950 . S
H735 C765 0.950 . S
C736 H718 0.951 . S
C736 C737 1.366 1_556 S
C736 C738 1.388 . S
C737 C736 1.366 1_554 S
C737 C741 1.385 . S
C738 H719 0.951 . S
C738 C736 1.388 . S
C738 C739 1.366 1_556 S
C739 C738 1.366 1_554 S
C739 C740 1.414 . S
C739 C742 1.499 . S
C740 H720 0.950 . S
C740 C739 1.414 . S
C740 C741 1.374 . S
C741 H721 0.950 . S
C741 C737 1.385 . S
C741 C740 1.374 . S
C742 C739 1.499 . S
C742 C743 1.373 . S
C742 C744 1.389 . S
C743 H722 0.950 . S
C743 C742 1.373 . S
C743 C759 1.377 . S
C744 C742 1.389 . S
C744 C745 1.524 1_554 S
C744 C758 1.377 . S
C745 C744 1.524 1_556 S
C745 C746 1.397 1_556 S
C745 C750 1.363 . S
C746 H723 0.950 . S
C746 C745 1.397 1_554 S
C746 C747 1.334 1_554 S
C747 H724 0.950 1_556 S
C747 C746 1.334 1_556 S
C747 C748 1.287 . S
C748 C747 1.287 . S
C748 C749 1.524 . S
C748 H767 0.913 . S
C749 H725 0.950 . S
C749 C748 1.524 . S
C749 C750 1.415 . S
C750 H726 0.950 . S
C750 C745 1.363 . S
C750 C749 1.415 . S
C751 H727 0.951 . S
C751 C752 1.366 . S
C751 C753 1.388 . S
C752 C751 1.366 . S
C752 C756 1.426 . S
C753 H728 0.951 . S
C753 C751 1.388 . S
C753 C754 1.366 . S
C754 C753 1.366 . S
C754 C755 1.414 1_554 S
C754 C757 1.499 . S
C755 H729 0.950 . S
C755 C754 1.414 1_556 S
C755 C756 1.371 1_556 S
C756 H730 0.912 1_554 S
C756 C752 1.426 . S
C756 C755 1.371 1_554 S
C757 C754 1.499 . S
C757 C758 1.373 . S
C757 C759 1.389 . S
C758 H731 0.950 1_554 S
C758 C744 1.377 . S
C758 C757 1.373 . S
C759 C743 1.377 . S
C759 C757 1.389 . S
C759 C760 1.524 . S
C760 C759 1.524 . S
C760 C761 1.397 . S
C760 C765 1.363 . S
C761 H732 0.950 . S
C761 C760 1.397 . S
C761 C762 1.334 . S
C762 H733 0.950 . S
C762 C761 1.334 . S
C762 C763 1.287 . S
C763 C762 1.287 . S
C763 C764 1.524 . S
C763 H766 0.999 . S
C764 H734 0.950 . S
C764 C763 1.524 . S
C764 C765 1.415 . S
C765 H735 0.950 . S
C765 C760 1.363 . S
C765 C764 1.415 . S
H766 C763 0.999 . S
H767 C748 0.913 . S
H768 C786 0.951 . S
H769 C788 0.951 . S
H770 C790 0.950 . S
H771 C791 0.950 . S
H772 C793 0.950 . S
H773 C796 0.950 . S
H774 C797 0.950 . S
H775 C799 0.950 . S
H776 C800 0.950 . S
H777 C801 0.951 . S
H778 C803 0.951 . S
H779 C805 0.950 . S
H780 C806 0.950 . S
H781 C808 0.950 . S
H782 C811 0.950 . S
H783 C812 0.950 . S
H784 C814 0.950 . S
H785 C815 0.950 . S
C786 H768 0.951 . S
C786 C787 1.366 . S
C786 C788 1.388 . S
C787 C786 1.366 . S
C787 C791 1.385 . S
C788 H769 0.951 . S
C788 C786 1.388 . S
C788 C789 1.366 . S
C789 C788 1.366 . S
C789 C790 1.414 . S
C789 C792 1.499 . S
C790 H770 0.950 . S
C790 C789 1.414 . S
C790 C791 1.374 . S
C791 H771 0.950 . S
C791 C787 1.385 . S
C791 C790 1.374 . S
C792 C789 1.499 . S
C792 C793 1.373 . S
C792 C794 1.389 . S
C793 H772 0.950 . S
C793 C792 1.373 . S
C793 C809 1.377 . S
C794 C792 1.389 . S
C794 C795 1.524 . S
C794 C808 1.377 . S
C795 C794 1.524 . S
C795 C796 1.397 . S
C795 C800 1.363 . S
C796 H773 0.950 . S
C796 C795 1.397 . S
C796 C797 1.334 . S
C797 H774 0.950 . S
C797 C796 1.334 . S
C797 C798 1.287 . S
C798 C797 1.287 . S
C798 C799 1.524 . S
C798 H817 0.913 . S
C799 H775 0.950 . S
C799 C798 1.524 . S
C799 C800 1.415 . S
C800 H776 0.950 . S
C800 C795 1.363 . S
C800 C799 1.415 . S
C801 H777 0.951 . S
C801 C802 1.366 . S
C801 C803 1.388 . S
C802 C801 1.366 . S
C802 C806 1.385 . S
C803 H778 0.951 . S
C803 C801 1.388 . S
C803 C804 1.366 . S
C804 C803 1.366 . S
C804 C805 1.414 . S
C804 C807 1.499 . S
C805 H779 0.950 . S
C805 C804 1.414 . S
C805 C806 1.374 . S
C806 H780 0.950 . S
C806 C802 1.385 . S
C806 C805 1.374 . S
C807 C804 1.499 . S
C807 C808 1.373 . S
C807 C809 1.389 . S
C808 H781 0.950 . S
C808 C794 1.377 . S
C808 C807 1.373 . S
C809 C793 1.377 . S
C809 C807 1.389 . S
C809 C810 1.524 . S
C810 C809 1.524 . S
C810 C811 1.397 . S
C810 C815 1.363 . S
C811 H782 0.950 . S
C811 C810 1.397 . S
C811 C812 1.334 . S
C812 H783 0.950 . S
C812 C811 1.334 . S
C812 C813 1.287 . S
C813 C812 1.287 . S
C813 C814 1.524 . S
C813 H816 0.999 . S
C814 H784 0.950 . S
C814 C813 1.524 . S
C814 C815 1.415 . S
C815 H785 0.950 . S
C815 C810 1.363 . S
C815 C814 1.415 . S
H816 C813 0.999 . S
H817 C798 0.913 . S
H818 C836 0.951 . S
H819 C838 0.951 . S
H820 C840 0.950 . S
H821 C841 0.950 . S
H822 C843 0.950 . S
H823 C846 0.950 . S
H824 C847 0.950 . S
H825 C849 0.950 . S
H826 C850 0.950 . S
H827 C851 0.951 . S
H828 C853 0.951 . S
H829 C855 0.950 . S
H830 C856 0.950 . S
H831 C858 0.950 . S
H832 C861 0.950 . S
H833 C862 0.950 . S
H834 C864 0.950 . S
H835 C865 0.950 . S
C836 H818 0.951 . S
C836 C837 1.366 . S
C836 C838 1.388 . S
C837 C836 1.366 . S
C837 C841 1.385 . S
C838 H819 0.951 . S
C838 C836 1.388 . S
C838 C839 1.366 . S
C839 C838 1.366 . S
C839 C840 1.414 . S
C839 C842 1.499 . S
C840 H820 0.950 . S
C840 C839 1.414 . S
C840 C841 1.374 . S
C841 H821 0.950 . S
C841 C837 1.385 . S
C841 C840 1.374 . S
C842 C839 1.499 . S
C842 C843 1.373 . S
C842 C844 1.389 . S
C843 H822 0.950 . S
C843 C842 1.373 . S
C843 C859 1.377 . S
C844 C842 1.389 . S
C844 C845 1.524 . S
C844 C858 1.377 . S
C845 C844 1.524 . S
C845 C846 1.397 . S
C845 C850 1.363 . S
C846 H823 0.950 . S
C846 C845 1.397 . S
C846 C847 1.334 . S
C847 H824 0.950 . S
C847 C846 1.334 . S
C847 C848 1.287 . S
C848 C847 1.287 . S
C848 C849 1.524 . S
C848 H867 0.913 . S
C849 H825 0.950 . S
C849 C848 1.524 . S
C849 C850 1.415 . S
C850 H826 0.950 . S
C850 C845 1.363 . S
C850 C849 1.415 . S
C851 H827 0.951 . S
C851 C852 1.366 . S
C851 C853 1.388 . S
C852 C851 1.366 . S
C852 C856 1.385 . S
C853 H828 0.951 . S
C853 C851 1.388 . S
C853 C854 1.366 . S
C854 C853 1.366 . S
C854 C855 1.414 . S
C854 C857 1.499 . S
C855 H829 0.950 . S
C855 C854 1.414 . S
C855 C856 1.374 . S
C856 H830 0.950 . S
C856 C852 1.385 . S
C856 C855 1.374 . S
C857 C854 1.499 . S
C857 C858 1.373 . S
C857 C859 1.389 . S
C858 H831 0.950 . S
C858 C844 1.377 . S
C858 C857 1.373 . S
C859 C843 1.377 . S
C859 C857 1.389 . S
C859 C860 1.524 . S
C860 C859 1.524 . S
C860 C861 1.397 . S
C860 C865 1.363 . S
C861 H832 0.950 . S
C861 C860 1.397 . S
C861 C862 1.334 . S
C862 H833 0.950 . S
C862 C861 1.334 . S
C862 C863 1.287 . S
C863 C862 1.287 . S
C863 C864 1.524 . S
C863 H866 0.999 . S
C864 H834 0.950 . S
C864 C863 1.524 . S
C864 C865 1.415 . S
C865 H835 0.950 . S
C865 C860 1.363 . S
C865 C864 1.415 . S
H866 C863 0.999 . S
H867 C848 0.913 . S
H868 C886 0.951 . S
H869 C888 0.951 . S
H870 C890 0.950 . S
H871 C891 0.950 . S
H872 C893 0.950 . S
H873 C896 0.950 . S
H874 C897 0.950 . S
H875 C899 0.950 . S
H876 C900 0.950 . S
H877 C901 0.951 . S
H878 C903 0.951 . S
H879 C905 0.950 . S
H880 C906 0.950 . S
H881 C908 0.950 . S
H882 C911 0.950 . S
H883 C912 0.950 . S
H884 C914 0.950 . S
H885 C915 0.950 . S
C886 H868 0.951 . S
C886 C887 1.366 . S
C886 C888 1.388 . S
C887 C886 1.366 . S
C887 C891 1.385 . S
C888 H869 0.951 . S
C888 C886 1.388 . S
C888 C889 1.366 . S
C889 C888 1.366 . S
C889 C890 1.414 . S
C889 C892 1.499 . S
C890 H870 0.950 . S
C890 C889 1.414 . S
C890 C891 1.374 . S
C891 H871 0.950 . S
C891 C887 1.385 . S
C891 C890 1.374 . S
C892 C889 1.499 . S
C892 C893 1.373 . S
C892 C894 1.389 . S
C893 H872 0.950 . S
C893 C892 1.373 . S
C893 C909 1.377 . S
C894 C892 1.389 . S
C894 C895 1.524 . S
C894 C908 1.377 . S
C895 C894 1.524 . S
C895 C896 1.397 . S
C895 C900 1.363 . S
C896 H873 0.950 . S
C896 C895 1.397 . S
C896 C897 1.334 . S
C897 H874 0.950 . S
C897 C896 1.334 . S
C897 C898 1.287 . S
C898 C897 1.287 . S
C898 C899 1.524 . S
C898 H917 0.913 . S
C899 H875 0.950 . S
C899 C898 1.524 . S
C899 C900 1.415 . S
C900 H876 0.950 . S
C900 C895 1.363 . S
C900 C899 1.415 . S
C901 H877 0.951 . S
C901 C902 1.366 . S
C901 C903 1.388 . S
C902 C901 1.366 . S
C902 C906 1.385 . S
C903 H878 0.951 . S
C903 C901 1.388 . S
C903 C904 1.366 . S
C904 C903 1.366 . S
C904 C905 1.414 . S
C904 C907 1.499 . S
C905 H879 0.950 . S
C905 C904 1.414 . S
C905 C906 1.374 . S
C906 H880 0.950 . S
C906 C902 1.385 . S
C906 C905 1.374 . S
C907 C904 1.499 . S
C907 C908 1.373 . S
C907 C909 1.389 . S
C908 H881 0.950 . S
C908 C894 1.377 . S
C908 C907 1.373 . S
C909 C893 1.377 . S
C909 C907 1.389 . S
C909 C910 1.524 . S
C910 C909 1.524 . S
C910 C911 1.397 . S
C910 C915 1.363 . S
C911 H882 0.950 . S
C911 C910 1.397 . S
C911 C912 1.334 . S
C912 H883 0.950 . S
C912 C911 1.334 . S
C912 C913 1.287 . S
C913 C912 1.287 . S
C913 C914 1.524 . S
C913 H916 0.999 . S
C914 H884 0.950 . S
C914 C913 1.524 . S
C914 C915 1.415 . S
C915 H885 0.950 . S
C915 C910 1.363 . S
C915 C914 1.415 . S
H916 C913 0.999 . S
H917 C898 0.913 . S
H918 C936 0.951 . S
H919 C938 0.951 . S
H920 C940 0.950 . S
H921 C941 0.950 . S
H922 C943 0.950 . S
H923 C946 0.950 . S
H924 C947 0.950 . S
H925 C949 0.950 . S
H926 C950 0.950 . S
H927 C951 0.951 . S
H928 C953 0.951 . S
H929 C955 0.950 . S
H930 C956 0.950 . S
H931 C958 0.950 . S
H932 C961 0.950 . S
H933 C962 0.950 . S
H934 C964 0.950 . S
H935 C965 0.950 . S
C936 H918 0.951 . S
C936 C937 1.366 . S
C936 C938 1.388 . S
C937 C936 1.366 . S
C937 C941 1.385 . S
C938 H919 0.951 . S
C938 C936 1.388 . S
C938 C939 1.366 . S
C939 C938 1.366 . S
C939 C940 1.414 . S
C939 C942 1.499 . S
C940 H920 0.950 . S
C940 C939 1.414 . S
C940 C941 1.374 . S
C941 H921 0.950 . S
C941 C937 1.385 . S
C941 C940 1.374 . S
C942 C939 1.499 . S
C942 C943 1.373 . S
C942 C944 1.389 . S
C943 H922 0.950 . S
C943 C942 1.373 . S
C943 C959 1.377 . S
C944 C942 1.389 . S
C944 C945 1.524 . S
C944 C958 1.377 . S
C945 C944 1.524 . S
C945 C946 1.397 . S
C945 C950 1.363 . S
C946 H923 0.950 . S
C946 C945 1.397 . S
C946 C947 1.334 . S
C947 H924 0.950 . S
C947 C946 1.334 . S
C947 C948 1.287 . S
C948 C947 1.287 . S
C948 C949 1.524 . S
C948 H967 0.913 . S
C949 H925 0.950 . S
C949 C948 1.524 . S
C949 C950 1.415 . S
C950 H926 0.950 . S
C950 C945 1.363 . S
C950 C949 1.415 . S
C951 H927 0.951 . S
C951 C952 1.366 . S
C951 C953 1.388 . S
C952 C951 1.366 . S
C952 C956 1.385 . S
C953 H928 0.951 . S
C953 C951 1.388 . S
C953 C954 1.366 . S
C954 C953 1.366 . S
C954 C955 1.414 . S
C954 C957 1.499 . S
C955 H929 0.950 . S
C955 C954 1.414 . S
C955 C956 1.374 . S
C956 H930 0.950 . S
C956 C952 1.385 . S
C956 C955 1.374 . S
C957 C954 1.499 . S
C957 C958 1.373 . S
C957 C959 1.389 . S
C958 H931 0.950 . S
C958 C944 1.377 . S
C958 C957 1.373 . S
C959 C943 1.377 . S
C959 C957 1.389 . S
C959 C960 1.524 . S
C960 C959 1.524 . S
C960 C961 1.397 . S
C960 C965 1.363 . S
C961 H932 0.950 . S
C961 C960 1.397 . S
C961 C962 1.334 . S
C962 H933 0.950 . S
C962 C961 1.334 . S
C962 C963 1.287 . S
C963 C962 1.287 . S
C963 C964 1.524 . S
C963 H966 0.999 . S
C964 H934 0.950 . S
C964 C963 1.524 . S
C964 C965 1.415 . S
C965 H935 0.950 . S
C965 C960 1.363 . S
C965 C964 1.415 . S
H966 C963 0.999 . S
H967 C948 0.913 . S
H968 C986 0.951 . S
H969 C988 0.951 . S
H970 C990 0.950 . S
H971 C991 0.950 . S
H972 C993 0.950 . S
H973 C996 0.950 . S
H974 C997 0.950 . S
H975 C999 0.950 . S
H976 C1000 0.950 . S
H977 C1001 0.951 . S
H978 C1003 0.951 . S
H979 C1005 0.950 . S
H980 C1006 0.950 . S
H981 C1008 0.950 . S
H982 C1011 0.950 . S
H983 C1012 0.950 . S
H984 C1014 0.950 . S
H985 C1015 0.950 . S
C986 H968 0.951 . S
C986 C987 1.366 . S
C986 C988 1.388 . S
C987 C986 1.366 . S
C987 C991 1.385 . S
C988 H969 0.951 . S
C988 C986 1.388 . S
C988 C989 1.366 . S
C989 C988 1.366 . S
C989 C990 1.414 . S
C989 C992 1.499 . S
C990 H970 0.950 . S
C990 C989 1.414 . S
C990 C991 1.374 . S
C991 H971 0.950 . S
C991 C987 1.385 . S
C991 C990 1.374 . S
C992 C989 1.499 . S
C992 C993 1.373 . S
C992 C994 1.389 . S
C993 H972 0.950 . S
C993 C992 1.373 . S
C993 C1009 1.377 . S
C994 C992 1.389 . S
C994 C995 1.524 . S
C994 C1008 1.377 . S
C995 C994 1.524 . S
C995 C996 1.397 . S
C995 C1000 1.363 . S
C996 H973 0.950 . S
C996 C995 1.397 . S
C996 C997 1.334 . S
C997 H974 0.950 . S
C997 C996 1.334 . S
C997 C998 1.287 . S
C998 C997 1.287 . S
C998 C999 1.524 . S
C998 H1017 0.913 . S
C999 H975 0.950 . S
C999 C998 1.524 . S
C999 C1000 1.415 . S
C1000 H976 0.950 . S
C1000 C995 1.363 . S
C1000 C999 1.415 . S
C1001 H977 0.951 . S
C1001 C1002 1.366 . S
C1001 C1003 1.388 . S
C1002 C1001 1.366 . S
C1002 C1006 1.385 . S
C1003 H978 0.951 . S
C1003 C1001 1.388 . S
C1003 C1004 1.366 . S
C1004 C1003 1.366 . S
C1004 C1005 1.414 . S
C1004 C1007 1.499 . S
C1005 H979 0.950 . S
C1005 C1004 1.414 . S
C1005 C1006 1.374 . S
C1006 H980 0.950 . S
C1006 C1002 1.385 . S
C1006 C1005 1.374 . S
C1007 C1004 1.499 . S
C1007 C1008 1.373 . S
C1007 C1009 1.389 . S
C1008 H981 0.950 . S
C1008 C994 1.377 . S
C1008 C1007 1.373 . S
C1009 C993 1.377 . S
C1009 C1007 1.389 . S
C1009 C1010 1.524 . S
C1010 C1009 1.524 . S
C1010 C1011 1.397 . S
C1010 C1015 1.363 . S
C1011 H982 0.950 . S
C1011 C1010 1.397 . S
C1011 C1012 1.334 . S
C1012 H983 0.950 . S
C1012 C1011 1.334 . S
C1012 C1013 1.287 . S
C1013 C1012 1.287 . S
C1013 C1014 1.524 . S
C1013 H1016 0.999 . S
C1014 H984 0.950 . S
C1014 C1013 1.524 . S
C1014 C1015 1.415 . S
C1015 H985 0.950 . S
C1015 C1010 1.363 . S
C1015 C1014 1.415 . S
H1016 C1013 0.999 . S
H1017 C998 0.913 . S
H1018 C1036 0.951 . S
H1019 C1038 0.951 . S
H1020 C1040 0.950 . S
H1021 C1041 0.950 . S
H1022 C1043 0.950 . S
H1023 C1046 0.950 . S
H1024 C1047 0.950 . S
H1025 C1049 0.950 . S
H1026 C1050 0.950 . S
H1027 C1051 0.951 . S
H1028 C1053 0.951 . S
H1029 C1055 0.950 . S
H1030 C1056 0.950 . S
H1031 C1058 0.950 . S
H1032 C1061 0.950 . S
H1033 C1062 0.950 . S
H1034 C1064 0.950 . S
H1035 C1065 0.950 . S
C1036 H1018 0.951 . S
C1036 C1037 1.366 . S
C1036 C1038 1.388 . S
C1037 C1036 1.366 . S
C1037 C1041 1.385 . S
C1038 H1019 0.951 . S
C1038 C1036 1.388 . S
C1038 C1039 1.366 . S
C1039 C1038 1.366 . S
C1039 C1040 1.414 . S
C1039 C1042 1.499 . S
C1040 H1020 0.950 . S
C1040 C1039 1.414 . S
C1040 C1041 1.374 . S
C1041 H1021 0.950 . S
C1041 C1037 1.385 . S
C1041 C1040 1.374 . S
C1042 C1039 1.499 . S
C1042 C1043 1.373 . S
C1042 C1044 1.389 . S
C1043 H1022 0.950 . S
C1043 C1042 1.373 . S
C1043 C1059 1.377 . S
C1044 C1042 1.389 . S
C1044 C1045 1.524 . S
C1044 C1058 1.377 . S
C1045 C1044 1.524 . S
C1045 C1046 1.397 . S
C1045 C1050 1.363 . S
C1046 H1023 0.950 . S
C1046 C1045 1.397 . S
C1046 C1047 1.334 . S
C1047 H1024 0.950 . S
C1047 C1046 1.334 . S
C1047 C1048 1.287 . S
C1048 C1047 1.287 . S
C1048 C1049 1.524 . S
C1048 H1067 0.913 . S
C1049 H1025 0.950 . S
C1049 C1048 1.524 . S
C1049 C1050 1.415 . S
C1050 H1026 0.950 . S
C1050 C1045 1.363 . S
C1050 C1049 1.415 . S
C1051 H1027 0.951 . S
C1051 C1052 1.366 . S
C1051 C1053 1.388 . S
C1052 C1051 1.366 . S
C1052 C1056 1.385 . S
C1053 H1028 0.951 . S
C1053 C1051 1.388 . S
C1053 C1054 1.366 . S
C1054 C1053 1.366 . S
C1054 C1055 1.414 . S
C1054 C1057 1.499 . S
C1055 H1029 0.950 . S
C1055 C1054 1.414 . S
C1055 C1056 1.374 . S
C1056 H1030 0.950 . S
C1056 C1052 1.385 . S
C1056 C1055 1.374 . S
C1057 C1054 1.499 . S
C1057 C1058 1.373 . S
C1057 C1059 1.389 . S
C1058 H1031 0.950 . S
C1058 C1044 1.377 . S
C1058 C1057 1.373 . S
C1059 C1043 1.377 . S
C1059 C1057 1.389 . S
C1059 C1060 1.524 . S
C1060 C1059 1.524 . S
C1060 C1061 1.397 . S
C1060 C1065 1.363 . S
C1061 H1032 0.950 . S
C1061 C1060 1.397 . S
C1061 C1062 1.334 . S
C1062 H1033 0.950 . S
C1062 C1061 1.334 . S
C1062 C1063 1.287 . S
C1063 C1062 1.287 . S
C1063 C1064 1.524 . S
C1063 H1066 0.999 . S
C1064 H1034 0.950 . S
C1064 C1063 1.524 . S
C1064 C1065 1.415 . S
C1065 H1035 0.950 . S
C1065 C1060 1.363 . S
C1065 C1064 1.415 . S
H1066 C1063 0.999 . S
H1067 C1048 0.913 . S
H1068 C1086 0.951 . S
H1069 C1088 0.951 . S
H1070 C1090 0.950 . S
H1071 C1091 0.950 . S
H1072 C1093 0.950 . S
H1073 C1096 0.950 . S
H1074 C1097 0.950 . S
H1075 C1099 0.950 . S
H1076 C1100 0.950 . S
H1077 C1101 0.951 . S
H1078 C1103 0.951 . S
H1079 C1105 0.950 . S
H1080 C1106 0.950 . S
H1081 C1108 0.950 . S
H1082 C1111 0.950 . S
H1083 C1112 0.950 . S
H1084 C1114 0.950 . S
H1085 C1115 0.950 . S
C1086 H1068 0.951 . S
C1086 C1087 1.366 . S
C1086 C1088 1.388 . S
C1087 C1086 1.366 . S
C1087 C1091 1.385 . S
C1088 H1069 0.951 . S
C1088 C1086 1.388 . S
C1088 C1089 1.366 . S
C1089 C1088 1.366 . S
C1089 C1090 1.414 . S
C1089 C1092 1.499 . S
C1090 H1070 0.950 . S
C1090 C1089 1.414 . S
C1090 C1091 1.374 . S
C1091 H1071 0.950 . S
C1091 C1087 1.385 . S
C1091 C1090 1.374 . S
C1092 C1089 1.499 . S
C1092 C1093 1.373 . S
C1092 C1094 1.389 . S
C1093 H1072 0.950 . S
C1093 C1092 1.373 . S
C1093 C1109 1.377 . S
C1094 C1092 1.389 . S
C1094 C1095 1.524 . S
C1094 C1108 1.377 . S
C1095 C1094 1.524 . S
C1095 C1096 1.397 . S
C1095 C1100 1.363 . S
C1096 H1073 0.950 . S
C1096 C1095 1.397 . S
C1096 C1097 1.334 . S
C1097 H1074 0.950 . S
C1097 C1096 1.334 . S
C1097 C1098 1.287 . S
C1098 C1097 1.287 . S
C1098 C1099 1.524 . S
C1098 H1117 0.913 . S
C1099 H1075 0.950 . S
C1099 C1098 1.524 . S
C1099 C1100 1.415 . S
C1100 H1076 0.950 . S
C1100 C1095 1.363 . S
C1100 C1099 1.415 . S
C1101 H1077 0.951 . S
C1101 C1102 1.366 . S
C1101 C1103 1.388 . S
C1102 C1101 1.366 . S
C1102 C1106 1.385 . S
C1103 H1078 0.951 . S
C1103 C1101 1.388 . S
C1103 C1104 1.366 . S
C1104 C1103 1.366 . S
C1104 C1105 1.414 . S
C1104 C1107 1.499 . S
C1105 H1079 0.950 . S
C1105 C1104 1.414 . S
C1105 C1106 1.374 . S
C1106 H1080 0.950 . S
C1106 C1102 1.385 . S
C1106 C1105 1.374 . S
C1107 C1104 1.499 . S
C1107 C1108 1.373 . S
C1107 C1109 1.389 . S
C1108 H1081 0.950 . S
C1108 C1094 1.377 . S
C1108 C1107 1.373 . S
C1109 C1093 1.377 . S
C1109 C1107 1.389 . S
C1109 C1110 1.524 . S
C1110 C1109 1.524 . S
C1110 C1111 1.397 . S
C1110 C1115 1.363 . S
C1111 H1082 0.950 . S
C1111 C1110 1.397 . S
C1111 C1112 1.334 . S
C1112 H1083 0.950 . S
C1112 C1111 1.334 . S
C1112 C1113 1.287 . S
C1113 C1112 1.287 . S
C1113 C1114 1.524 . S
C1113 H1116 0.999 . S
C1114 H1084 0.950 . S
C1114 C1113 1.524 . S
C1114 C1115 1.415 . S
C1115 H1085 0.950 . S
C1115 C1110 1.363 . S
C1115 C1114 1.415 . S
H1116 C1113 0.999 . S
H1117 C1098 0.913 . S
H1118 C1136 0.951 . S
H1119 C1138 0.951 . S
H1120 C1140 0.950 . S
H1121 C1141 0.950 . S
H1122 C1143 0.950 . S
H1123 C1146 0.950 . S
H1124 C1147 0.950 . S
H1125 C1149 0.950 . S
H1126 C1150 0.950 . S
H1127 C1151 0.951 . S
H1128 C1153 0.951 . S
H1129 C1155 0.950 . S
H1130 C1156 0.950 . S
H1131 C1158 0.950 . S
H1132 C1161 0.950 . S
H1133 C1162 0.950 . S
H1134 C1164 0.950 . S
H1135 C1165 0.950 . S
C1136 H1118 0.951 . S
C1136 C1137 1.366 . S
C1136 C1138 1.388 . S
C1137 C1136 1.366 . S
C1137 C1141 1.385 . S
C1138 H1119 0.951 . S
C1138 C1136 1.388 . S
C1138 C1139 1.366 . S
C1139 C1138 1.366 . S
C1139 C1140 1.414 . S
C1139 C1142 1.499 . S
C1140 H1120 0.950 . S
C1140 C1139 1.414 . S
C1140 C1141 1.374 . S
C1141 H1121 0.950 . S
C1141 C1137 1.385 . S
C1141 C1140 1.374 . S
C1142 C1139 1.499 . S
C1142 C1143 1.373 . S
C1142 C1144 1.389 . S
C1143 H1122 0.950 . S
C1143 C1142 1.373 . S
C1143 C1159 1.377 . S
C1144 C1142 1.389 . S
C1144 C1145 1.524 . S
C1144 C1158 1.377 . S
C1145 C1144 1.524 . S
C1145 C1146 1.397 . S
C1145 C1150 1.363 . S
C1146 H1123 0.950 . S
C1146 C1145 1.397 . S
C1146 C1147 1.334 . S
C1147 H1124 0.950 . S
C1147 C1146 1.334 . S
C1147 C1148 1.287 . S
C1148 C1147 1.287 . S
C1148 C1149 1.524 . S
C1148 H1167 0.913 . S
C1149 H1125 0.950 . S
C1149 C1148 1.524 . S
C1149 C1150 1.415 . S
C1150 H1126 0.950 . S
C1150 C1145 1.363 . S
C1150 C1149 1.415 . S
C1151 H1127 0.951 . S
C1151 C1152 1.366 . S
C1151 C1153 1.388 . S
C1152 C1151 1.366 . S
C1152 C1156 1.385 . S
C1153 H1128 0.951 . S
C1153 C1151 1.388 . S
C1153 C1154 1.366 . S
C1154 C1153 1.366 . S
C1154 C1155 1.414 . S
C1154 C1157 1.499 . S
C1155 H1129 0.950 . S
C1155 C1154 1.414 . S
C1155 C1156 1.374 . S
C1156 H1130 0.950 . S
C1156 C1152 1.385 . S
C1156 C1155 1.374 . S
C1157 C1154 1.499 . S
C1157 C1158 1.373 . S
C1157 C1159 1.389 . S
C1158 H1131 0.950 . S
C1158 C1144 1.377 . S
C1158 C1157 1.373 . S
C1159 C1143 1.377 . S
C1159 C1157 1.389 . S
C1159 C1160 1.524 . S
C1160 C1159 1.524 . S
C1160 C1161 1.397 . S
C1160 C1165 1.363 . S
C1161 H1132 0.950 . S
C1161 C1160 1.397 . S
C1161 C1162 1.334 . S
C1162 H1133 0.950 . S
C1162 C1161 1.334 . S
C1162 C1163 1.287 . S
C1163 C1162 1.287 . S
C1163 C1164 1.524 . S
C1163 H1166 0.999 . S
C1164 H1134 0.950 . S
C1164 C1163 1.524 . S
C1164 C1165 1.415 . S
C1165 H1135 0.950 . S
C1165 C1160 1.363 . S
C1165 C1164 1.415 . S
H1166 C1163 0.999 . S
H1167 C1148 0.913 . S
H1168 C1186 0.951 . S
H1169 C1188 0.951 . S
H1170 C1190 0.950 . S
H1171 C1191 0.950 . S
H1172 C1193 0.950 . S
H1173 C1196 0.950 . S
H1174 C1197 0.950 . S
H1175 C1199 0.950 . S
H1176 C1200 0.950 . S
H1177 C1201 0.951 . S
H1178 C1203 0.951 . S
H1179 C1205 0.950 . S
H1180 C1206 0.950 . S
H1181 C1208 0.950 . S
H1182 C1211 0.950 . S
H1183 C1212 0.950 . S
H1184 C1214 0.950 . S
H1185 C1215 0.950 . S
C1186 H1168 0.951 . S
C1186 C1187 1.366 . S
C1186 C1188 1.388 . S
C1187 C1186 1.366 . S
C1187 C1191 1.385 . S
C1188 H1169 0.951 . S
C1188 C1186 1.388 . S
C1188 C1189 1.366 . S
C1189 C1188 1.366 . S
C1189 C1190 1.414 . S
C1189 C1192 1.499 . S
C1190 H1170 0.950 . S
C1190 C1189 1.414 . S
C1190 C1191 1.374 . S
C1191 H1171 0.950 . S
C1191 C1187 1.385 . S
C1191 C1190 1.374 . S
C1192 C1189 1.499 . S
C1192 C1193 1.373 . S
C1192 C1194 1.389 . S
C1193 H1172 0.950 . S
C1193 C1192 1.373 . S
C1193 C1209 1.377 . S
C1194 C1192 1.389 . S
C1194 C1195 1.524 . S
C1194 C1208 1.377 . S
C1195 C1194 1.524 . S
C1195 C1196 1.397 . S
C1195 C1200 1.363 . S
C1196 H1173 0.950 . S
C1196 C1195 1.397 . S
C1196 C1197 1.334 . S
C1197 H1174 0.950 . S
C1197 C1196 1.334 . S
C1197 C1198 1.287 . S
C1198 C1197 1.287 . S
C1198 C1199 1.524 . S
C1198 H1217 0.913 . S
C1199 H1175 0.950 . S
C1199 C1198 1.524 . S
C1199 C1200 1.415 . S
C1200 H1176 0.950 . S
C1200 C1195 1.363 . S
C1200 C1199 1.415 . S
C1201 H1177 0.951 . S
C1201 C1202 1.366 . S
C1201 C1203 1.388 . S
C1202 C1201 1.366 . S
C1202 C1206 1.385 . S
C1203 H1178 0.951 . S
C1203 C1201 1.388 . S
C1203 C1204 1.366 . S
C1204 C1203 1.366 . S
C1204 C1205 1.414 . S
C1204 C1207 1.499 . S
C1205 H1179 0.950 . S
C1205 C1204 1.414 . S
C1205 C1206 1.374 . S
C1206 H1180 0.950 . S
C1206 C1202 1.385 . S
C1206 C1205 1.374 . S
C1207 C1204 1.499 . S
C1207 C1208 1.373 . S
C1207 C1209 1.389 . S
C1208 H1181 0.950 . S
C1208 C1194 1.377 . S
C1208 C1207 1.373 . S
C1209 C1193 1.377 . S
C1209 C1207 1.389 . S
C1209 C1210 1.524 . S
C1210 C1209 1.524 . S
C1210 C1211 1.397 . S
C1210 C1215 1.363 . S
C1211 H1182 0.950 . S
C1211 C1210 1.397 . S
C1211 C1212 1.334 . S
C1212 H1183 0.950 . S
C1212 C1211 1.334 . S
C1212 C1213 1.287 . S
C1213 C1212 1.287 . S
C1213 C1214 1.524 . S
C1213 H1216 0.999 . S
C1214 H1184 0.950 . S
C1214 C1213 1.524 . S
C1214 C1215 1.415 . S
C1215 H1185 0.950 . S
C1215 C1210 1.363 . S
C1215 C1214 1.415 . S
H1216 C1213 0.999 . S
H1217 C1198 0.913 . S
H1218 C1236 0.951 . S
H1219 C1238 0.951 . S
H1220 C1240 0.950 . S
H1221 C1241 0.950 . S
H1222 C1243 0.950 . S
H1223 C1246 0.950 . S
H1224 C1247 0.950 . S
H1225 C1249 0.950 . S
H1226 C1250 0.950 . S
H1227 C1251 0.951 . S
H1228 C1253 0.951 . S
H1229 C1255 0.950 . S
H1230 C1256 0.950 . S
H1231 C1258 0.950 . S
H1232 C1261 0.950 . S
H1233 C1262 0.950 . S
H1234 C1264 0.950 . S
H1235 C1265 0.950 . S
C1236 H1218 0.951 . S
C1236 C1237 1.366 . S
C1236 C1238 1.388 . S
C1237 C1236 1.366 . S
C1237 C1241 1.385 . S
C1238 H1219 0.951 . S
C1238 C1236 1.388 . S
C1238 C1239 1.366 . S
C1239 C1238 1.366 . S
C1239 C1240 1.414 . S
C1239 C1242 1.499 . S
C1240 H1220 0.950 . S
C1240 C1239 1.414 . S
C1240 C1241 1.374 . S
C1241 H1221 0.950 . S
C1241 C1237 1.385 . S
C1241 C1240 1.374 . S
C1242 C1239 1.499 . S
C1242 C1243 1.373 . S
C1242 C1244 1.389 . S
C1243 H1222 0.950 . S
C1243 C1242 1.373 . S
C1243 C1259 1.377 . S
C1244 C1242 1.389 . S
C1244 C1245 1.524 . S
C1244 C1258 1.377 . S
C1245 C1244 1.524 . S
C1245 C1246 1.397 . S
C1245 C1250 1.363 . S
C1246 H1223 0.950 . S
C1246 C1245 1.397 . S
C1246 C1247 1.334 . S
C1247 H1224 0.950 . S
C1247 C1246 1.334 . S
C1247 C1248 1.287 . S
C1248 C1247 1.287 . S
C1248 C1249 1.524 . S
C1248 H1267 0.913 . S
C1249 H1225 0.950 . S
C1249 C1248 1.524 . S
C1249 C1250 1.415 . S
C1250 H1226 0.950 . S
C1250 C1245 1.363 . S
C1250 C1249 1.415 . S
C1251 H1227 0.951 . S
C1251 C1252 1.366 . S
C1251 C1253 1.388 . S
C1252 C1251 1.366 . S
C1252 C1256 1.385 . S
C1253 H1228 0.951 . S
C1253 C1251 1.388 . S
C1253 C1254 1.366 . S
C1254 C1253 1.366 . S
C1254 C1255 1.414 . S
C1254 C1257 1.499 . S
C1255 H1229 0.950 . S
C1255 C1254 1.414 . S
C1255 C1256 1.374 . S
C1256 H1230 0.950 . S
C1256 C1252 1.385 . S
C1256 C1255 1.374 . S
C1257 C1254 1.499 . S
C1257 C1258 1.373 . S
C1257 C1259 1.389 . S
C1258 H1231 0.950 . S
C1258 C1244 1.377 . S
C1258 C1257 1.373 . S
C1259 C1243 1.377 . S
C1259 C1257 1.389 . S
C1259 C1260 1.524 . S
C1260 C1259 1.524 . S
C1260 C1261 1.397 . S
C1260 C1265 1.363 . S
C1261 H1232 0.950 . S
C1261 C1260 1.397 . S
C1261 C1262 1.334 . S
C1262 H1233 0.950 . S
C1262 C1261 1.334 . S
C1262 C1263 1.287 . S
C1263 C1262 1.287 . S
C1263 C1264 1.524 . S
C1263 H1266 0.999 . S
C1264 H1234 0.950 . S
C1264 C1263 1.524 . S
C1264 C1265 1.415 . S
C1265 H1235 0.950 . S
C1265 C1260 1.363 . S
C1265 C1264 1.415 . S
H1266 C1263 0.999 . S
H1267 C1248 0.913 . S
H1268 C1286 0.951 . S
H1269 C1288 0.951 . S
H1270 C1290 0.950 . S
H1271 C1291 0.950 . S
H1272 C1293 0.950 . S
H1273 C1296 0.950 . S
H1274 C1297 0.950 . S
H1275 C1299 0.950 . S
H1276 C1300 0.950 . S
H1277 C1301 0.951 . S
H1278 C1303 0.951 . S
H1279 C1305 0.950 . S
H1280 C1306 0.950 . S
H1281 C1308 0.950 . S
H1282 C1311 0.950 . S
H1283 C1312 0.950 . S
H1284 C1314 0.950 . S
H1285 C1315 0.950 . S
C1286 H1268 0.951 . S
C1286 C1287 1.366 . S
C1286 C1288 1.388 . S
C1287 C1286 1.366 . S
C1287 C1291 1.385 . S
C1288 H1269 0.951 . S
C1288 C1286 1.388 . S
C1288 C1289 1.366 . S
C1289 C1288 1.366 . S
C1289 C1290 1.414 . S
C1289 C1292 1.499 . S
C1290 H1270 0.950 . S
C1290 C1289 1.414 . S
C1290 C1291 1.374 . S
C1291 H1271 0.950 . S
C1291 C1287 1.385 . S
C1291 C1290 1.374 . S
C1292 C1289 1.499 . S
C1292 C1293 1.373 . S
C1292 C1294 1.389 . S
C1293 H1272 0.950 . S
C1293 C1292 1.373 . S
C1293 C1309 1.377 . S
C1294 C1292 1.389 . S
C1294 C1295 1.524 . S
C1294 C1308 1.377 . S
C1295 C1294 1.524 . S
C1295 C1296 1.397 . S
C1295 C1300 1.363 . S
C1296 H1273 0.950 . S
C1296 C1295 1.397 . S
C1296 C1297 1.334 . S
C1297 H1274 0.950 . S
C1297 C1296 1.334 . S
C1297 C1298 1.287 . S
C1298 C1297 1.287 . S
C1298 C1299 1.524 . S
C1298 H1317 0.913 . S
C1299 H1275 0.950 . S
C1299 C1298 1.524 . S
C1299 C1300 1.415 . S
C1300 H1276 0.950 . S
C1300 C1295 1.363 . S
C1300 C1299 1.415 . S
C1301 H1277 0.951 . S
C1301 C1302 1.366 . S
C1301 C1303 1.388 . S
C1302 C1301 1.366 . S
C1302 C1306 1.385 . S
C1303 H1278 0.951 . S
C1303 C1301 1.388 . S
C1303 C1304 1.366 . S
C1304 C1303 1.366 . S
C1304 C1305 1.414 . S
C1304 C1307 1.499 . S
C1305 H1279 0.950 . S
C1305 C1304 1.414 . S
C1305 C1306 1.374 . S
C1306 H1280 0.950 . S
C1306 C1302 1.385 . S
C1306 C1305 1.374 . S
C1307 C1304 1.499 . S
C1307 C1308 1.373 . S
C1307 C1309 1.389 . S
C1308 H1281 0.950 . S
C1308 C1294 1.377 . S
C1308 C1307 1.373 . S
C1309 C1293 1.377 . S
C1309 C1307 1.389 . S
C1309 C1310 1.524 . S
C1310 C1309 1.524 . S
C1310 C1311 1.397 . S
C1310 C1315 1.363 . S
C1311 H1282 0.950 . S
C1311 C1310 1.397 . S
C1311 C1312 1.334 . S
C1312 H1283 0.950 . S
C1312 C1311 1.334 . S
C1312 C1313 1.287 . S
C1313 C1312 1.287 . S
C1313 C1314 1.524 . S
C1313 H1316 0.999 . S
C1314 H1284 0.950 . S
C1314 C1313 1.524 . S
C1314 C1315 1.415 . S
C1315 H1285 0.950 . S
C1315 C1310 1.363 . S
C1315 C1314 1.415 . S
H1316 C1313 0.999 . S
H1317 C1298 0.913 . S
H1318 C1336 0.951 . S
H1319 C1338 0.951 . S
H1320 C1340 0.950 . S
H1321 C1341 0.950 . S
H1322 C1343 0.950 . S
H1323 C1346 0.950 . S
H1324 C1347 0.950 . S
H1325 C1349 0.950 . S
H1326 C1350 0.950 . S
H1327 C1351 0.951 . S
H1328 C1353 0.951 . S
H1329 C1355 0.950 . S
H1330 C1356 0.950 . S
H1331 C1358 0.950 . S
H1332 C1361 0.950 . S
H1333 C1362 0.950 . S
H1334 C1364 0.950 . S
H1335 C1365 0.950 . S
C1336 H1318 0.951 . S
C1336 C1337 1.366 . S
C1336 C1338 1.388 . S
C1337 C1336 1.366 . S
C1337 C1341 1.385 . S
C1338 H1319 0.951 . S
C1338 C1336 1.388 . S
C1338 C1339 1.366 . S
C1339 C1338 1.366 . S
C1339 C1340 1.414 . S
C1339 C1342 1.499 . S
C1340 H1320 0.950 . S
C1340 C1339 1.414 . S
C1340 C1341 1.374 . S
C1341 H1321 0.950 . S
C1341 C1337 1.385 . S
C1341 C1340 1.374 . S
C1342 C1339 1.499 . S
C1342 C1343 1.373 . S
C1342 C1344 1.389 . S
C1343 H1322 0.950 . S
C1343 C1342 1.373 . S
C1343 C1359 1.377 . S
C1344 C1342 1.389 . S
C1344 C1345 1.524 . S
C1344 C1358 1.377 . S
C1345 C1344 1.524 . S
C1345 C1346 1.397 . S
C1345 C1350 1.363 . S
C1346 H1323 0.950 . S
C1346 C1345 1.397 . S
C1346 C1347 1.334 . S
C1347 H1324 0.950 . S
C1347 C1346 1.334 . S
C1347 C1348 1.287 . S
C1348 C1347 1.287 . S
C1348 C1349 1.524 . S
C1348 H1367 0.913 . S
C1349 H1325 0.950 . S
C1349 C1348 1.524 . S
C1349 C1350 1.415 . S
C1350 H1326 0.950 . S
C1350 C1345 1.363 . S
C1350 C1349 1.415 . S
C1351 H1327 0.951 . S
C1351 C1352 1.366 . S
C1351 C1353 1.388 . S
C1352 C1351 1.366 . S
C1352 C1356 1.385 . S
C1353 H1328 0.951 . S
C1353 C1351 1.388 . S
C1353 C1354 1.366 . S
C1354 C1353 1.366 . S
C1354 C1355 1.414 . S
C1354 C1357 1.499 . S
C1355 H1329 0.950 . S
C1355 C1354 1.414 . S
C1355 C1356 1.374 . S
C1356 H1330 0.950 . S
C1356 C1352 1.385 . S
C1356 C1355 1.374 . S
C1357 C1354 1.499 . S
C1357 C1358 1.373 . S
C1357 C1359 1.389 . S
C1358 H1331 0.950 . S
C1358 C1344 1.377 . S
C1358 C1357 1.373 . S
C1359 C1343 1.377 . S
C1359 C1357 1.389 . S
C1359 C1360 1.524 . S
C1360 C1359 1.524 . S
C1360 C1361 1.397 . S
C1360 C1365 1.363 . S
C1361 H1332 0.950 . S
C1361 C1360 1.397 . S
C1361 C1362 1.334 . S
C1362 H1333 0.950 . S
C1362 C1361 1.334 . S
C1362 C1363 1.287 . S
C1363 C1362 1.287 . S
C1363 C1364 1.524 . S
C1363 H1366 0.999 . S
C1364 H1334 0.950 . S
C1364 C1363 1.524 . S
C1364 C1365 1.415 . S
C1365 H1335 0.950 . S
C1365 C1360 1.363 . S
C1365 C1364 1.415 . S
H1366 C1363 0.999 . S
H1367 C1348 0.913 . S
C187 C8 1.434 . S
C202 C78 1.435 . S
C237 C17 1.504 . S
C252 C59 1.505 . S
C287 C77 1.331 . S
C302 C35 1.330 . S
C337 C45 1.403 . S
C352 C65 1.397 . S
C387 C106 1.474 . S
C402 C36 1.475 . S
C437 C93 1.330 . S
C452 C51 1.330 . S
C487 C7 1.369 . S
C502 C105 1.370 . S
C537 C87 1.442 . S
C552 C23 1.436 . S
C587 C129 1.496 . S
C602 C120 1.486 . S
C637 C119 1.421 . S
C652 C157 1.448 . S
C687 C135 1.339 . S
C702 C147 1.322 . S
C737 C148 1.382 . S
C752 C163 1.385 . S
C787 C162 1.434 . S
C802 C92 1.435 . S
C837 C115 1.503 . S
C852 C101 1.504 . S
C887 C91 1.331 . S
C902 C133 1.330 . S
C937 C107 1.397 . S
C952 C143 1.402 . S
C987 C64 1.474 . S
C1002 C134 1.475 . S
C1037 C79 1.330 . S
C1052 C149 1.330 . S
C1087 C161 1.369 . S
C1102 C63 1.369 . S
C1137 C121 1.436 . S
C1152 C73 1.442 . S
C1187 C22 1.486 . S
C1202 C31 1.497 . S
C1237 C3 1.448 . S
C1252 C21 1.421 . S
C1287 C37 1.339 . S
C1302 C49 1.323 . S
C1337 C9 1.385 . S
C1352 C50 1.382 . S
