# Generated by pormake.
# Topology unn, (4)-cn, num edge types: 1
# Building blocks:
#     Node 0, Type 0, BuildingBlock: CEKHIL_clean_sbu_0, # of connection points: 4
#     Node 1, Type 0, BuildingBlock: CEKHIL_clean_sbu_0, # of connection points: 4
#     Node 2, Type 0, BuildingBlock: CEKHIL_clean_sbu_0, # of connection points: 4
#     Node 3, Type 0, BuildingBlock: CEKHIL_clean_sbu_0, # of connection points: 4
#     Node 4, Type 0, BuildingBlock: CEKHIL_clean_sbu_0, # of connection points: 4
#     Node 5, Type 0, BuildingBlock: CEKHIL_clean_sbu_0, # of connection points: 4
#     Node 6, Type 0, BuildingBlock: CEKHIL_clean_sbu_0, # of connection points: 4
#     Node 7, Type 0, BuildingBlock: CEKHIL_clean_sbu_0, # of connection points: 4
#     Node 8, Type 0, BuildingBlock: CEKHIL_clean_sbu_0, # of connection points: 4
#     Node 9, Type 0, BuildingBlock: CEKHIL_clean_sbu_0, # of connection points: 4
#     Node 10, Type 0, BuildingBlock: CEKHIL_clean_sbu_0, # of connection points: 4
#     Node 11, Type 0, BuildingBlock: CEKHIL_clean_sbu_0, # of connection points: 4
#     Node 12, Type 0, BuildingBlock: CEKHIL_clean_sbu_0, # of connection points: 4
#     Node 13, Type 0, BuildingBlock: CEKHIL_clean_sbu_0, # of connection points: 4
#     Node 14, Type 0, BuildingBlock: CEKHIL_clean_sbu_0, # of connection points: 4
#     Node 15, Type 0, BuildingBlock: CEKHIL_clean_sbu_0, # of connection points: 4
#     Node 16, Type 0, BuildingBlock: CEKHIL_clean_sbu_0, # of connection points: 4
#     Node 17, Type 0, BuildingBlock: CEKHIL_clean_sbu_0, # of connection points: 4
#     Edge 18, Type (0, 0), None
#     Edge 19, Type (0, 0), None
#     Edge 20, Type (0, 0), None
#     Edge 21, Type (0, 0), None
#     Edge 22, Type (0, 0), None
#     Edge 23, Type (0, 0), None
#     Edge 24, Type (0, 0), None
#     Edge 25, Type (0, 0), None
#     Edge 26, Type (0, 0), None
#     Edge 27, Type (0, 0), None
#     Edge 28, Type (0, 0), None
#     Edge 29, Type (0, 0), None
#     Edge 30, Type (0, 0), None
#     Edge 31, Type (0, 0), None
#     Edge 32, Type (0, 0), None
#     Edge 33, Type (0, 0), None
#     Edge 34, Type (0, 0), None
#     Edge 35, Type (0, 0), None
#     Edge 36, Type (0, 0), None
#     Edge 37, Type (0, 0), None
#     Edge 38, Type (0, 0), None
#     Edge 39, Type (0, 0), None
#     Edge 40, Type (0, 0), None
#     Edge 41, Type (0, 0), None
#     Edge 42, Type (0, 0), None
#     Edge 43, Type (0, 0), None
#     Edge 44, Type (0, 0), None
#     Edge 45, Type (0, 0), None
#     Edge 46, Type (0, 0), None
#     Edge 47, Type (0, 0), None
#     Edge 48, Type (0, 0), None
#     Edge 49, Type (0, 0), None
#     Edge 50, Type (0, 0), None
#     Edge 51, Type (0, 0), None
#     Edge 52, Type (0, 0), None
#     Edge 53, Type (0, 0), None
# Relax obj value: 0.118
# Max RMSD: 0.228
# Mean RMSD: 0.213
data_MOF--net-unn--node1-CEKHIL_clean_sbu_0--edge1-none
_symmetry_space_group_name_H-M    P1
_symmetry_Int_Tables_number       1
_symmetry_cell_setting            triclinic
loop_
_symmetry_equiv_pos_as_xyz
'x, y, z'
_cell_length_a     20.782531
_cell_length_b     20.76083
_cell_length_c     16.795699
_cell_angle_alpha  88.698636
_cell_angle_beta   91.337043
_cell_angle_gamma 119.2335
loop_
_atom_site_label
_atom_site_type_symbol
_atom_site_fract_x
_atom_site_fract_y
_atom_site_fract_z
_atom_type_partial_charge
Co0 Co 0.97295 0.74337 0.23948 0.0
O1 O 0.87214 0.67072 0.21289 0.0
O2 O 0.92168 0.79077 0.18978 0.0
C3 C 0.98361 0.70957 0.36132 0.0
O4 O 0.08072 0.82797 0.26384 0.0
Co5 Co 0.06941 0.66797 0.25081 0.0
O6 O 0.13764 0.76234 0.30153 0.0
C7 C 0.03004 0.7025 0.09476 0.0
C8 C 0.86593 0.72407 0.18018 0.0
C9 C 0.13629 0.82301 0.29574 0.0
O10 O 1.00007 0.73412 0.12973 0.0
O11 O 0.05942 0.6687 0.13179 0.0
O12 O 0.95123 0.74885 0.34958 0.0
O13 O 0.99061 0.67743 0.29929 0.0
Co14 Co 0.30729 0.29029 0.2273 0.0
O15 O 0.27553 0.36425 0.2362 0.0
O16 O 0.21529 0.25322 0.28817 0.0
C17 C 0.32774 0.30084 0.09972 0.0
O18 O 0.33568 0.20599 0.2206 0.0
Co19 Co 0.47015 0.35929 0.19769 0.0
O20 O 0.45039 0.26033 0.16834 0.0
C21 C 0.42462 0.35242 0.35865 0.0
C22 C 0.22115 0.31868 0.27845 0.0
C23 C 0.3916 0.20307 0.18908 0.0
O24 O 0.36012 0.32333 0.32934 0.0
O25 O 0.48189 0.37529 0.31606 0.0
O26 O 0.26206 0.25988 0.12643 0.0
O27 O 0.37727 0.34668 0.14971 0.0
Co28 Co 0.86979 0.02828 0.23718 0.0
O29 O 0.75948 0.94951 0.24022 0.0
O30 O 0.8415 0.92607 0.28222 0.0
C31 C 0.8246 1.00137 0.10664 0.0
O32 O 0.89942 0.13445 0.19494 0.0
Co33 Co 0.73553 0.05123 0.19702 0.0
O34 O 0.80407 0.14606 0.14532 0.0
C35 C 0.78079 0.04361 0.36493 0.0
C36 C 0.77283 0.90364 0.27944 0.0
C37 C 0.87282 0.17188 0.15736 0.0
O38 O 0.84267 0.05171 0.3418 0.0
O39 O 0.72978 0.03944 0.31711 0.0
O40 O 0.88617 1.00552 0.12693 0.0
O41 O 0.78462 0.99533 0.16702 0.0
Co42 Co 0.05639 0.30101 0.71606 0.0
O43 O 0.16159 0.36471 0.73017 0.0
O44 O 0.09846 0.25407 0.78549 0.0
C45 C 0.0474 0.31028 0.58628 0.0
O46 O 0.94543 0.2246 0.70771 0.0
Co47 Co 0.96792 0.37713 0.67145 0.0
O48 O 0.89018 0.27922 0.63799 0.0
C49 C 1.00783 0.37495 0.83657 0.0
C50 C 0.16118 0.31536 0.77841 0.0
C51 C 0.89005 0.2222 0.66696 0.0
O52 O 0.04166 0.3423 0.81352 0.0
O53 O 0.97275 0.39608 0.78911 0.0
O54 O 0.06756 0.26524 0.61744 0.0
O55 O 0.04678 0.35899 0.63377 0.0
Co56 Co 0.80175 0.7357 0.72263 0.0
O57 O 0.83315 0.66545 0.68709 0.0
O58 O 0.90114 0.78608 0.6803 0.0
C59 C 0.7595 0.69016 0.84244 0.0
O60 O 0.78139 0.81996 0.75922 0.0
Co61 Co 0.63331 0.67523 0.74792 0.0
O62 O 0.66483 0.76677 0.80735 0.0
C63 C 0.70119 0.73583 0.58998 0.0
C64 C 0.89532 0.7215 0.66768 0.0
C65 C 0.72831 0.82247 0.79758 0.0
O66 O 0.76243 0.74017 0.61249 0.0
O67 O 0.64452 0.71026 0.63446 0.0
O68 O 0.82975 0.72878 0.83163 0.0
O69 O 0.71869 0.66628 0.77865 0.0
Co70 Co 0.31794 0.08618 0.7574 0.0
O71 O 0.42958 0.14366 0.72996 0.0
O72 O 0.36383 0.19137 0.71715 0.0
C73 C 0.37369 0.10019 0.88166 0.0
O74 O 0.26617 0.97633 0.79712 0.0
Co75 Co 0.41884 1.016 0.77594 0.0
O76 O 0.34066 0.92981 0.83174 0.0
C77 C 0.34954 0.01945 0.61833 0.0
C78 C 0.42732 0.20068 0.70355 0.0
C79 C 0.27709 0.92398 0.82711 0.0
O80 O 0.31555 0.04984 0.64866 0.0
O81 O 0.39438 1.00426 0.65753 0.0
O82 O 0.32435 0.11852 0.86783 0.0
O83 O 0.40318 0.09481 0.81717 0.0
Co84 Co 0.67178 0.05116 0.57501 0.0
O85 O 0.577 0.96951 0.54593 0.0
O86 O 0.60962 0.08358 0.51169 0.0
C87 C 0.67665 0.02391 0.70209 0.0
O88 O 0.77208 0.14374 0.60241 0.0
Co89 Co 0.78728 1.00005 0.61457 0.0
O90 O 0.83653 0.09571 0.66776 0.0
C91 C 0.76544 0.03373 0.44977 0.0
C92 C 0.56028 1.0136 0.50755 0.0
C93 C 0.82776 0.15008 0.64635 0.0
O94 O 0.71241 0.04266 0.47259 0.0
O95 O 0.80276 1.01452 0.49645 0.0
O96 O 0.63893 0.05591 0.6799 0.0
O97 O 0.69532 0.99459 0.64596 0.0
Co98 Co 0.02933 0.62099 0.56831 0.0
O99 O 0.08932 0.58018 0.52672 0.0
O100 O 0.96788 0.52276 0.52735 0.0
C101 C 0.0875 0.66116 0.68303 0.0
O102 O 0.95319 0.6534 0.60945 0.0
Co103 Co 0.10556 0.78888 0.58038 0.0
O104 O 1.01906 0.77528 0.63749 0.0
C105 C 1.02231 0.71477 0.43625 0.0
C106 C 1.02832 0.5226 0.50738 0.0
C107 C 0.95876 0.71484 0.63687 0.0
O108 O 1.02521 0.65798 0.45985 0.0
O109 O 0.05064 0.77458 0.47567 0.0
O110 O 0.03924 0.59241 0.67473 0.0
O111 O 0.10965 0.70164 0.61846 0.0
Co112 Co 0.51698 0.40574 0.59055 0.0
O113 O 0.5213 0.49723 0.55188 0.0
O114 O 0.61482 0.47605 0.54892 0.0
C115 C 0.46192 0.38838 0.70418 0.0
O116 O 0.51952 0.31096 0.63374 0.0
Co117 Co 0.35487 0.27399 0.58973 0.0
O118 O 0.41939 0.22923 0.57325 0.0
C119 C 0.42794 0.35084 0.44528 0.0
C120 C 0.58783 0.51981 0.52986 0.0
C121 C 0.46577 0.24332 0.62919 0.0
O122 O 0.48857 0.36671 0.48055 0.0
O123 O 0.36681 0.32239 0.48234 0.0
O124 O 0.53179 0.4361 0.70001 0.0
O125 O 0.42532 0.36839 0.63754 0.0
Co126 Co 0.64383 0.60161 0.05926 0.0
O127 O 0.54428 0.55482 0.01541 0.0
O128 O 0.61513 0.50294 0.02366 0.0
C129 C 0.62753 0.64305 0.17113 0.0
O130 O 0.75213 0.64525 0.10571 0.0
Co131 Co 0.71674 0.7706 0.05675 0.0
O132 O 0.79147 0.7671 0.12583 0.0
C133 C 0.72943 0.6949 0.91848 0.0
C134 C 0.55264 0.49888 0.00058 0.0
C135 C 0.79939 0.71047 0.13395 0.0
O136 O 0.68171 0.63501 0.94992 0.0
O137 O 0.75336 0.75745 0.95156 0.0
O138 O 0.6086 0.57421 0.16548 0.0
O139 O 0.63819 0.68023 0.10425 0.0
Co140 Co 0.4592 0.04396 0.0915 0.0
O141 O 0.48412 0.97084 0.055 0.0
O142 O 0.56003 0.09008 0.04928 0.0
C143 C 0.41422 0.98911 0.20725 0.0
O144 O 0.44022 0.12918 0.13051 0.0
Co145 Co 0.2943 0.98957 0.10805 0.0
O146 O 0.323 0.07532 0.17577 0.0
C147 C 0.37052 0.06183 0.95788 0.0
C148 C 0.54763 0.0232 0.03495 0.0
C149 C 0.38606 0.13157 0.1671 0.0
O150 O 0.42538 0.05435 -0.01899 0.0
O151 O 0.31252 0.03934 -0.00026 0.0
O152 O 0.48426 0.03122 0.19928 0.0
O153 O 0.37391 0.97148 0.1426 0.0
Co154 Co 0.92983 0.39704 0.06226 0.0
O155 O 0.0422 0.47413 0.05634 0.0
O156 O 0.95965 0.50078 0.02793 0.0
C157 C 0.97744 0.41313 0.19027 0.0
O158 O 0.89718 0.28765 0.09528 0.0
Co159 Co 0.06083 0.36678 0.08416 0.0
O160 O 0.99252 0.27176 0.13566 0.0
C161 C 1.0059 0.38059 0.92239 0.0
C162 C 1.02825 0.52327 0.02633 0.0
C163 C 0.92364 0.24785 0.12769 0.0
O164 O 0.94863 0.37752 0.95233 0.0
O165 O 0.05815 0.38005 0.96436 0.0
O166 O 0.91817 0.41523 0.17437 0.0
O167 O 1.01649 0.42238 0.12796 0.0
Co168 Co 0.33156 0.34722 0.89329 0.0
O169 O 0.23121 0.27726 0.86301 0.0
O170 O 0.2865 0.39557 0.83029 0.0
C171 C 0.33025 0.31821 0.01705 0.0
O172 O 0.438 0.43166 0.9243 0.0
Co173 Co 0.43112 0.28026 0.92953 0.0
O174 O 0.4959 0.37336 -0.01835 0.0
C175 C 0.4317 0.34833 0.77768 0.0
C176 C 0.22801 0.33023 0.82525 0.0
C177 C 0.49214 0.43146 0.9659 0.0
O178 O 0.36521 0.3282 0.79225 0.0
O179 O 0.4714 0.3335 0.82531 0.0
O180 O 0.30248 0.35978 -0.00533 0.0
O181 O 0.34174 0.28103 0.96296 0.0
Co182 Co 0.67492 0.98197 0.91432 0.0
O183 O 0.65198 0.05648 0.95164 0.0
O184 O 0.59029 0.93947 -0.01368 0.0
C185 C 0.67994 1.00751 0.78571 0.0
O186 O 0.69175 0.89554 0.8773 0.0
Co187 Co 0.83061 0.04568 0.85552 0.0
O188 O 0.79745 0.94994 0.80653 0.0
C189 C 0.80586 1.01189 0.02423 0.0
C190 C 0.59882 1.00599 -0.00827 0.0
C191 C 0.73961 0.89295 0.82963 0.0
O192 O 0.73992 0.99808 0.01015 0.0
O193 O 0.85455 0.03413 0.97015 0.0
O194 O 0.61764 0.96773 0.8198 0.0
O195 O 0.73708 0.04481 0.83253 0.0
Co196 Co 0.12999 0.69521 0.89584 0.0
O197 O 0.04349 0.60118 0.91537 0.0
O198 O 0.14641 0.63381 0.98031 0.0
C199 C 0.11562 0.6864 0.76244 0.0
O200 O 0.21859 0.79739 0.87856 0.0
Co201 Co 0.0447 0.7701 0.85919 0.0
O202 O 0.14966 0.85107 0.84005 0.0
C203 C 0.04235 0.71728 0.01002 0.0
C204 C 0.07627 0.58608 0.972 0.0
C205 C 0.21226 0.85373 0.85198 0.0
O206 O 0.10682 0.73853 -0.01367 0.0
O207 O 0.99693 0.72438 0.9637 0.0
O208 O 0.14975 0.65712 0.80091 0.0
O209 O 0.08992 0.71944 0.80536 0.0
Co210 Co 0.3546 0.91234 0.41185 0.0
O211 O 0.45506 1.01096 0.43199 0.0
O212 O 0.44661 0.91309 0.45919 0.0
C213 C 0.38609 0.95778 0.28471 0.0
O214 O 0.24789 0.86965 0.36985 0.0
Co215 Co 0.3138 0.02855 0.36593 0.0
O216 O 0.22067 0.95269 0.31406 0.0
C217 C 0.33656 1.00119 0.53434 0.0
C218 C 0.48821 0.98045 0.46305 0.0
C219 C 0.20393 0.88619 0.32939 0.0
O220 O 0.33059 0.93968 0.51437 0.0
O221 O 0.33559 0.04791 0.48388 0.0
O222 O 0.38001 0.89552 0.30559 0.0
O223 O 0.38746 0.99763 0.34285 0.0
Co224 Co 0.09221 0.37132 0.38288 0.0
O225 O 0.10879 0.29343 0.34199 0.0
O226 O 0.18717 0.41052 0.32624 0.0
C227 C 0.06357 0.32718 0.50371 0.0
O228 O 0.07904 0.45841 0.42856 0.0
Co229 Co 0.92605 0.30801 0.42048 0.0
O230 O 0.96306 0.3996 0.4794 0.0
C231 C 0.98483 0.3805 0.26584 0.0
C232 C 0.17129 0.342 0.31551 0.0
C233 C 1.02507 0.45718 0.46952 0.0
O234 O 0.04393 0.37758 0.28045 0.0
O235 O 0.93021 0.35422 0.31312 0.0
O236 O 0.13189 0.36435 0.48428 0.0
O237 O 1.01502 0.30367 0.44617 0.0
Co238 Co 0.62138 0.7281 0.397 0.0
O239 O 0.72976 0.79184 0.36357 0.0
O240 O 0.65122 0.82563 0.33864 0.0
C241 C 0.69341 0.76558 0.51205 0.0
O242 O 0.59568 0.62576 0.45411 0.0
Co243 Co 0.74786 0.69285 0.39297 0.0
O244 O 0.69546 0.61003 0.46759 0.0
C245 C 0.65471 0.67581 0.24856 0.0
C246 C 0.71669 0.83882 0.32624 0.0
C247 C 0.62841 0.58927 0.4816 0.0
O248 O 0.60918 0.68226 0.29199 0.0
O249 O 0.71442 0.67943 0.27648 0.0
O250 O 0.63622 0.77265 0.50223 0.0
O251 O 0.71877 0.75909 0.44452 0.0
loop_
_geom_bond_atom_site_label_1
_geom_bond_atom_site_label_2
_geom_bond_distance
_geom_bond_site_symmetry_2
_ccdc_geom_bond_type
Co0 O1 2.216 1_455 S
Co0 O2 2.091 1_455 S
Co0 O4 2.004 . S
Co0 O10 2.021 . S
Co0 O12 2.137 1_455 S
Co0 O13 2.244 . S
O1 Co0 2.216 1_655 S
O1 C8 1.247 . S
O2 Co0 2.091 1_655 S
O2 C8 1.261 . S
C3 O12 1.247 . S
C3 O13 1.272 1_655 S
O4 Co0 2.004 . S
O4 C9 1.259 . S
Co5 O6 2.061 . S
Co5 O11 2.052 . S
Co5 O13 2.135 . S
O6 Co5 2.061 . S
O6 C9 1.235 . S
C7 O10 1.238 . S
C7 O11 1.241 . S
C8 O1 1.247 . S
C8 O2 1.261 . S
C9 O4 1.259 . S
C9 O6 1.235 . S
O10 Co0 2.021 . S
O10 C7 1.238 . S
O11 Co5 2.052 . S
O11 C7 1.241 . S
O12 Co0 2.137 1_655 S
O12 C3 1.247 . S
O13 Co0 2.244 . S
O13 C3 1.272 1_455 S
O13 Co5 2.135 . S
Co14 O15 2.216 . S
Co14 O16 2.091 . S
Co14 O18 2.004 . S
Co14 O24 2.021 . S
Co14 O26 2.137 . S
Co14 O27 2.244 . S
O15 Co14 2.216 . S
O15 C22 1.247 . S
O16 Co14 2.091 . S
O16 C22 1.261 . S
C17 O26 1.247 . S
C17 O27 1.272 . S
O18 Co14 2.004 . S
O18 C23 1.259 . S
Co19 O20 2.061 . S
Co19 O25 2.052 . S
Co19 O27 2.135 . S
O20 Co19 2.061 . S
O20 C23 1.235 . S
C21 O24 1.238 . S
C21 O25 1.241 . S
C22 O15 1.247 . S
C22 O16 1.261 . S
C23 O18 1.259 . S
C23 O20 1.235 . S
O24 Co14 2.021 . S
O24 C21 1.238 . S
O25 Co19 2.052 . S
O25 C21 1.241 . S
O26 Co14 2.137 . S
O26 C17 1.247 . S
O27 Co14 2.244 . S
O27 C17 1.272 . S
O27 Co19 2.135 . S
Co28 O29 2.216 . S
Co28 O30 2.091 . S
Co28 O32 2.004 1_565 S
Co28 O38 2.021 1_565 S
Co28 O40 2.137 . S
Co28 O41 2.244 1_565 S
O29 Co28 2.216 . S
O29 C36 1.247 . S
O30 Co28 2.091 . S
O30 C36 1.261 . S
C31 O40 1.247 . S
C31 O41 1.272 1_565 S
O32 Co28 2.004 1_545 S
O32 C37 1.259 . S
Co33 O34 2.061 . S
Co33 O39 2.052 . S
Co33 O41 2.135 . S
O34 Co33 2.061 . S
O34 C37 1.235 . S
C35 O38 1.238 . S
C35 O39 1.241 . S
C36 O29 1.247 . S
C36 O30 1.261 . S
C37 O32 1.259 . S
C37 O34 1.235 . S
O38 Co28 2.021 1_545 S
O38 C35 1.238 . S
O39 Co33 2.052 . S
O39 C35 1.241 . S
O40 Co28 2.137 . S
O40 C31 1.247 . S
O41 Co28 2.244 1_545 S
O41 C31 1.272 1_545 S
O41 Co33 2.135 . S
Co42 O43 2.216 . S
Co42 O44 2.091 . S
Co42 O46 2.004 1_455 S
Co42 O52 2.021 1_455 S
Co42 O54 2.137 . S
Co42 O55 2.244 . S
O43 Co42 2.216 . S
O43 C50 1.247 . S
O44 Co42 2.091 . S
O44 C50 1.261 . S
C45 O54 1.247 . S
C45 O55 1.272 . S
O46 Co42 2.004 1_655 S
O46 C51 1.259 . S
Co47 O48 2.061 . S
Co47 O53 2.052 . S
Co47 O55 2.135 1_655 S
O48 Co47 2.061 . S
O48 C51 1.235 . S
C49 O52 1.238 . S
C49 O53 1.241 . S
C50 O43 1.247 . S
C50 O44 1.261 . S
C51 O46 1.259 . S
C51 O48 1.235 . S
O52 Co42 2.021 1_655 S
O52 C49 1.238 . S
O53 Co47 2.052 . S
O53 C49 1.241 . S
O54 Co42 2.137 . S
O54 C45 1.247 . S
O55 Co42 2.244 . S
O55 C45 1.272 . S
O55 Co47 2.135 1_455 S
Co56 O57 2.216 . S
Co56 O58 2.091 . S
Co56 O60 2.004 . S
Co56 O66 2.021 . S
Co56 O68 2.137 . S
Co56 O69 2.244 . S
O57 Co56 2.216 . S
O57 C64 1.247 . S
O58 Co56 2.091 . S
O58 C64 1.261 . S
C59 O68 1.247 . S
C59 O69 1.272 . S
O60 Co56 2.004 . S
O60 C65 1.259 . S
Co61 O62 2.061 . S
Co61 O67 2.052 . S
Co61 O69 2.135 . S
O62 Co61 2.061 . S
O62 C65 1.235 . S
C63 O66 1.238 . S
C63 O67 1.241 . S
C64 O57 1.247 . S
C64 O58 1.261 . S
C65 O60 1.259 . S
C65 O62 1.235 . S
O66 Co56 2.021 . S
O66 C63 1.238 . S
O67 Co61 2.052 . S
O67 C63 1.241 . S
O68 Co56 2.137 . S
O68 C59 1.247 . S
O69 Co56 2.244 . S
O69 C59 1.272 . S
O69 Co61 2.135 . S
Co70 O71 2.216 . S
Co70 O72 2.091 . S
Co70 O74 2.004 1_545 S
Co70 O80 2.021 1_545 S
Co70 O82 2.137 . S
Co70 O83 2.244 . S
O71 Co70 2.216 . S
O71 C78 1.247 . S
O72 Co70 2.091 . S
O72 C78 1.261 . S
C73 O82 1.247 . S
C73 O83 1.272 . S
O74 Co70 2.004 1_565 S
O74 C79 1.259 . S
Co75 O76 2.061 . S
Co75 O81 2.052 . S
Co75 O83 2.135 1_565 S
O76 Co75 2.061 . S
O76 C79 1.235 . S
C77 O80 1.238 . S
C77 O81 1.241 . S
C78 O71 1.247 . S
C78 O72 1.261 . S
C79 O74 1.259 . S
C79 O76 1.235 . S
O80 Co70 2.021 1_565 S
O80 C77 1.238 . S
O81 Co75 2.052 . S
O81 C77 1.241 . S
O82 Co70 2.137 . S
O82 C73 1.247 . S
O83 Co70 2.244 . S
O83 C73 1.272 . S
O83 Co75 2.135 1_545 S
Co84 O85 2.216 . S
Co84 O86 2.091 . S
Co84 O88 2.004 . S
Co84 O94 2.021 . S
Co84 O96 2.137 . S
Co84 O97 2.244 . S
O85 Co84 2.216 . S
O85 C92 1.247 . S
O86 Co84 2.091 . S
O86 C92 1.261 . S
C87 O96 1.247 . S
C87 O97 1.272 . S
O88 Co84 2.004 . S
O88 C93 1.259 . S
Co89 O90 2.061 . S
Co89 O95 2.052 . S
Co89 O97 2.135 . S
O90 Co89 2.061 . S
O90 C93 1.235 . S
C91 O94 1.238 . S
C91 O95 1.241 . S
C92 O85 1.247 . S
C92 O86 1.261 . S
C93 O88 1.259 . S
C93 O90 1.235 . S
O94 Co84 2.021 . S
O94 C91 1.238 . S
O95 Co89 2.052 . S
O95 C91 1.241 . S
O96 Co84 2.137 . S
O96 C87 1.247 . S
O97 Co84 2.244 . S
O97 C87 1.272 . S
O97 Co89 2.135 . S
Co98 O99 2.216 1_655 S
Co98 O100 2.091 . S
Co98 O102 2.004 . S
Co98 O108 2.021 . S
Co98 O110 2.137 . S
Co98 O111 2.244 1_655 S
O99 Co98 2.216 1_455 S
O99 C106 1.247 1_455 S
O100 Co98 2.091 . S
O100 C106 1.261 . S
C101 O110 1.247 1_455 S
C101 O111 1.272 . S
O102 Co98 2.004 . S
O102 C107 1.259 . S
Co103 O104 2.070 . S
Co103 O109 2.050 1_655 S
Co103 O111 2.128 1_655 S
O104 Co103 2.070 . S
O104 C107 1.235 . S
C105 O108 1.238 . S
C105 O109 1.241 1_655 S
C106 O99 1.247 1_655 S
C106 O100 1.261 . S
C107 O102 1.259 . S
C107 O104 1.235 . S
O108 Co98 2.021 . S
O108 C105 1.238 . S
O109 Co103 2.050 1_455 S
O109 C105 1.241 1_455 S
O110 Co98 2.137 . S
O110 C101 1.247 1_655 S
O111 Co98 2.244 1_455 S
O111 C101 1.272 . S
O111 Co103 2.128 1_455 S
Co112 O113 2.216 . S
Co112 O114 2.091 . S
Co112 O116 2.004 . S
Co112 O122 2.021 . S
Co112 O124 2.137 . S
Co112 O125 2.244 . S
O113 Co112 2.216 . S
O113 C120 1.247 . S
O114 Co112 2.091 . S
O114 C120 1.261 . S
C115 O124 1.247 . S
C115 O125 1.272 . S
O116 Co112 2.004 . S
O116 C121 1.259 . S
Co117 O118 2.061 . S
Co117 O123 2.052 . S
Co117 O125 2.135 . S
O118 Co117 2.061 . S
O118 C121 1.235 . S
C119 O122 1.238 . S
C119 O123 1.241 . S
C120 O113 1.247 . S
C120 O114 1.261 . S
C121 O116 1.259 . S
C121 O118 1.235 . S
O122 Co112 2.021 . S
O122 C119 1.238 . S
O123 Co117 2.052 . S
O123 C119 1.241 . S
O124 Co112 2.137 . S
O124 C115 1.247 . S
O125 Co112 2.244 . S
O125 C115 1.272 . S
O125 Co117 2.135 . S
Co126 O127 2.216 . S
Co126 O128 2.091 . S
Co126 O130 2.004 . S
Co126 O136 2.021 1_554 S
Co126 O138 2.137 . S
Co126 O139 2.244 . S
O127 Co126 2.216 . S
O127 C134 1.247 . S
O128 Co126 2.091 . S
O128 C134 1.261 . S
C129 O138 1.247 . S
C129 O139 1.272 . S
O130 Co126 2.004 . S
O130 C135 1.259 . S
Co131 O132 2.061 . S
Co131 O137 2.052 . S
Co131 O139 2.135 . S
O132 Co131 2.061 . S
O132 C135 1.235 . S
C133 O136 1.238 . S
C133 O137 1.241 1_556 S
C134 O127 1.247 . S
C134 O128 1.261 . S
C135 O130 1.259 . S
C135 O132 1.235 . S
O136 Co126 2.021 1_556 S
O136 C133 1.238 . S
O137 Co131 2.052 . S
O137 C133 1.241 1_554 S
O138 Co126 2.137 . S
O138 C129 1.247 . S
O139 Co126 2.244 . S
O139 C129 1.272 . S
O139 Co131 2.135 . S
Co140 O141 2.216 . S
Co140 O142 2.091 . S
Co140 O144 2.004 . S
Co140 O150 2.021 1_554 S
Co140 O152 2.137 . S
Co140 O153 2.244 . S
O141 Co140 2.216 . S
O141 C148 1.247 . S
O142 Co140 2.091 . S
O142 C148 1.261 . S
C143 O152 1.247 . S
C143 O153 1.272 . S
O144 Co140 2.004 . S
O144 C149 1.259 . S
Co145 O146 2.061 . S
Co145 O151 2.052 . S
Co145 O153 2.135 . S
O146 Co145 2.061 . S
O146 C149 1.235 . S
C147 O150 1.238 . S
C147 O151 1.241 1_556 S
C148 O141 1.247 . S
C148 O142 1.261 . S
C149 O144 1.259 . S
C149 O146 1.235 . S
O150 Co140 2.021 1_556 S
O150 C147 1.238 . S
O151 Co145 2.052 . S
O151 C147 1.241 1_554 S
O152 Co140 2.137 . S
O152 C143 1.247 . S
O153 Co140 2.244 . S
O153 C143 1.272 . S
O153 Co145 2.135 . S
Co154 O155 2.216 . S
Co154 O156 2.091 . S
Co154 O158 2.004 . S
Co154 O164 2.021 1_554 S
Co154 O166 2.137 . S
Co154 O167 2.244 1_655 S
O155 Co154 2.216 . S
O155 C162 1.247 . S
O156 Co154 2.091 . S
O156 C162 1.261 . S
C157 O166 1.247 . S
C157 O167 1.272 1_655 S
O158 Co154 2.004 . S
O158 C163 1.259 . S
Co159 O160 2.061 . S
Co159 O165 2.052 . S
Co159 O167 2.135 1_655 S
O160 Co159 2.061 . S
O160 C163 1.235 . S
C161 O164 1.238 . S
C161 O165 1.241 1_556 S
C162 O155 1.247 . S
C162 O156 1.261 . S
C163 O158 1.259 . S
C163 O160 1.235 . S
O164 Co154 2.021 1_556 S
O164 C161 1.238 . S
O165 Co159 2.052 . S
O165 C161 1.241 1_554 S
O166 Co154 2.137 . S
O166 C157 1.247 . S
O167 Co154 2.244 1_455 S
O167 C157 1.272 1_455 S
O167 Co159 2.135 1_455 S
Co168 O169 2.216 . S
Co168 O170 2.091 . S
Co168 O172 2.004 . S
Co168 O178 2.021 . S
Co168 O180 2.137 1_556 S
Co168 O181 2.244 . S
O169 Co168 2.216 . S
O169 C176 1.247 . S
O170 Co168 2.091 . S
O170 C176 1.261 . S
C171 O180 1.247 . S
C171 O181 1.272 1_554 S
O172 Co168 2.004 . S
O172 C177 1.259 . S
Co173 O174 2.061 . S
Co173 O179 2.052 . S
Co173 O181 2.135 . S
O174 Co173 2.061 . S
O174 C177 1.235 . S
C175 O178 1.238 . S
C175 O179 1.241 . S
C176 O169 1.247 . S
C176 O170 1.261 . S
C177 O172 1.259 . S
C177 O174 1.235 . S
O178 Co168 2.021 . S
O178 C175 1.238 . S
O179 Co173 2.052 . S
O179 C175 1.241 . S
O180 Co168 2.137 1_554 S
O180 C171 1.247 . S
O181 Co168 2.244 . S
O181 C171 1.272 1_556 S
O181 Co173 2.135 . S
Co182 O183 2.216 . S
Co182 O184 2.091 . S
Co182 O186 2.004 . S
Co182 O192 2.021 1_556 S
Co182 O194 2.137 . S
Co182 O195 2.244 1_565 S
O183 Co182 2.216 . S
O183 C190 1.247 . S
O184 Co182 2.091 . S
O184 C190 1.261 . S
C185 O194 1.247 . S
C185 O195 1.272 1_565 S
O186 Co182 2.004 . S
O186 C191 1.259 . S
Co187 O188 2.061 . S
Co187 O193 2.052 . S
Co187 O195 2.135 1_565 S
O188 Co187 2.061 . S
O188 C191 1.235 . S
C189 O192 1.238 . S
C189 O193 1.241 1_554 S
C190 O183 1.247 . S
C190 O184 1.261 . S
C191 O186 1.259 . S
C191 O188 1.235 . S
O192 Co182 2.021 1_554 S
O192 C189 1.238 . S
O193 Co187 2.052 . S
O193 C189 1.241 1_556 S
O194 Co182 2.137 . S
O194 C185 1.247 . S
O195 Co182 2.244 1_545 S
O195 C185 1.272 1_545 S
O195 Co187 2.135 1_545 S
Co196 O197 2.216 . S
Co196 O198 2.091 . S
Co196 O200 2.004 . S
Co196 O206 2.021 1_556 S
Co196 O208 2.137 . S
Co196 O209 2.244 . S
O197 Co196 2.216 . S
O197 C204 1.247 . S
O198 Co196 2.091 . S
O198 C204 1.261 . S
C199 O208 1.247 . S
C199 O209 1.272 . S
O200 Co196 2.004 . S
O200 C205 1.259 . S
Co201 O202 2.061 . S
Co201 O207 2.052 . S
Co201 O209 2.135 . S
O202 Co201 2.061 . S
O202 C205 1.235 . S
C203 O206 1.238 . S
C203 O207 1.241 1_554 S
C204 O197 1.247 . S
C204 O198 1.261 . S
C205 O200 1.259 . S
C205 O202 1.235 . S
O206 Co196 2.021 1_554 S
O206 C203 1.238 . S
O207 Co201 2.052 . S
O207 C203 1.241 1_556 S
O208 Co196 2.137 . S
O208 C199 1.247 . S
O209 Co196 2.244 . S
O209 C199 1.272 . S
O209 Co201 2.135 . S
Co210 O211 2.216 . S
Co210 O212 2.091 . S
Co210 O214 2.004 . S
Co210 O220 2.021 . S
Co210 O222 2.137 . S
Co210 O223 2.244 . S
O211 Co210 2.216 . S
O211 C218 1.247 . S
O212 Co210 2.091 . S
O212 C218 1.261 . S
C213 O222 1.247 . S
C213 O223 1.272 . S
O214 Co210 2.004 . S
O214 C219 1.259 . S
Co215 O216 2.061 . S
Co215 O221 2.052 . S
Co215 O223 2.135 . S
O216 Co215 2.061 . S
O216 C219 1.235 . S
C217 O220 1.238 . S
C217 O221 1.241 . S
C218 O211 1.247 . S
C218 O212 1.261 . S
C219 O214 1.259 . S
C219 O216 1.235 . S
O220 Co210 2.021 . S
O220 C217 1.238 . S
O221 Co215 2.052 . S
O221 C217 1.241 . S
O222 Co210 2.137 . S
O222 C213 1.247 . S
O223 Co210 2.244 . S
O223 C213 1.272 . S
O223 Co215 2.135 . S
Co224 O225 2.216 . S
Co224 O226 2.091 . S
Co224 O228 2.004 . S
Co224 O234 2.021 . S
Co224 O236 2.137 . S
Co224 O237 2.244 . S
O225 Co224 2.216 . S
O225 C232 1.247 . S
O226 Co224 2.091 . S
O226 C232 1.261 . S
C227 O236 1.247 . S
C227 O237 1.272 . S
O228 Co224 2.004 . S
O228 C233 1.259 . S
Co229 O230 2.061 1_655 S
Co229 O235 2.052 . S
Co229 O237 2.135 1_655 S
O230 Co229 2.061 1_455 S
O230 C233 1.235 . S
C231 O234 1.238 . S
C231 O235 1.241 1_455 S
C232 O225 1.247 . S
C232 O226 1.261 . S
C233 O228 1.259 . S
C233 O230 1.235 . S
O234 Co224 2.021 . S
O234 C231 1.238 . S
O235 Co229 2.052 . S
O235 C231 1.241 1_655 S
O236 Co224 2.137 . S
O236 C227 1.247 . S
O237 Co224 2.244 . S
O237 C227 1.272 . S
O237 Co229 2.135 1_455 S
Co238 O239 2.216 . S
Co238 O240 2.091 . S
Co238 O242 2.004 . S
Co238 O248 2.021 . S
Co238 O250 2.137 . S
Co238 O251 2.244 . S
O239 Co238 2.216 . S
O239 C246 1.247 . S
O240 Co238 2.091 . S
O240 C246 1.261 . S
C241 O250 1.247 . S
C241 O251 1.272 . S
O242 Co238 2.004 . S
O242 C247 1.259 . S
Co243 O244 2.061 . S
Co243 O249 2.052 . S
Co243 O251 2.135 . S
O244 Co243 2.061 . S
O244 C247 1.235 . S
C245 O248 1.238 . S
C245 O249 1.241 . S
C246 O239 1.247 . S
C246 O240 1.261 . S
C247 O242 1.259 . S
C247 O244 1.235 . S
O248 Co238 2.021 . S
O248 C245 1.238 . S
O249 Co243 2.052 . S
O249 C245 1.241 . S
O250 Co238 2.137 . S
O250 C241 1.247 . S
O251 Co238 2.244 . S
O251 C241 1.272 . S
O251 Co243 2.135 . S
C7 C203 1.346 . S
C171 C17 1.156 . S
C31 C189 1.223 . S
C91 C35 1.350 . S
C105 C3 1.221 . S
C119 C21 1.343 . S
C49 C161 1.346 . S
C133 C59 1.223 . S
C147 C73 1.228 . S
C77 C217 1.347 . S
C45 C227 1.156 . S
C241 C63 1.222 . S
C175 C115 1.220 . S
C87 C185 1.165 1_545 S
C199 C101 1.165 . S
C245 C129 1.220 . S
C143 C213 1.159 1_545 S
C231 C157 1.215 1_455 S
C219 C9 2.368 . S
C22 C232 2.620 . S
C36 C246 2.953 . S
C37 C163 2.439 . S
C135 C8 2.589 . S
C23 C149 2.097 . S
C93 C51 2.251 . S
C107 C64 2.380 . S
C78 C121 2.722 . S
C79 C205 2.431 . S
C50 C176 2.707 . S
C65 C191 2.112 . S
C120 C247 2.677 . S
C92 C218 2.830 1_545 S
C233 C106 2.328 1_455 S
C177 C134 2.483 1_556 S
C190 C148 2.614 1_566 S
C204 C162 2.962 1_456 S
