# Generated by pormake.
# Topology umy, (4)-cn, num edge types: 1
# Building blocks:
#     Node 0, Type 0, BuildingBlock: KUFVIS_clean_sbu_0, # of connection points: 4
#     Node 1, Type 0, BuildingBlock: KUFVIS_clean_sbu_0, # of connection points: 4
#     Node 2, Type 0, BuildingBlock: KUFVIS_clean_sbu_0, # of connection points: 4
#     Node 3, Type 0, BuildingBlock: KUFVIS_clean_sbu_0, # of connection points: 4
#     Node 4, Type 0, BuildingBlock: KUFVIS_clean_sbu_0, # of connection points: 4
#     Node 5, Type 0, BuildingBlock: KUFVIS_clean_sbu_0, # of connection points: 4
#     Node 6, Type 0, BuildingBlock: KUFVIS_clean_sbu_0, # of connection points: 4
#     Node 7, Type 0, BuildingBlock: KUFVIS_clean_sbu_0, # of connection points: 4
#     Node 8, Type 0, BuildingBlock: KUFVIS_clean_sbu_0, # of connection points: 4
#     Node 9, Type 0, BuildingBlock: KUFVIS_clean_sbu_0, # of connection points: 4
#     Node 10, Type 0, BuildingBlock: KUFVIS_clean_sbu_0, # of connection points: 4
#     Node 11, Type 0, BuildingBlock: KUFVIS_clean_sbu_0, # of connection points: 4
#     Edge 12, Type (0, 0), BuildingBlock: TEMPAE_clean_linker_10, # of connection points: 2
#     Edge 13, Type (0, 0), BuildingBlock: TEMPAE_clean_linker_10, # of connection points: 2
#     Edge 14, Type (0, 0), BuildingBlock: TEMPAE_clean_linker_10, # of connection points: 2
#     Edge 15, Type (0, 0), BuildingBlock: TEMPAE_clean_linker_10, # of connection points: 2
#     Edge 16, Type (0, 0), BuildingBlock: TEMPAE_clean_linker_10, # of connection points: 2
#     Edge 17, Type (0, 0), BuildingBlock: TEMPAE_clean_linker_10, # of connection points: 2
#     Edge 18, Type (0, 0), BuildingBlock: TEMPAE_clean_linker_10, # of connection points: 2
#     Edge 19, Type (0, 0), BuildingBlock: TEMPAE_clean_linker_10, # of connection points: 2
#     Edge 20, Type (0, 0), BuildingBlock: TEMPAE_clean_linker_10, # of connection points: 2
#     Edge 21, Type (0, 0), BuildingBlock: TEMPAE_clean_linker_10, # of connection points: 2
#     Edge 22, Type (0, 0), BuildingBlock: TEMPAE_clean_linker_10, # of connection points: 2
#     Edge 23, Type (0, 0), BuildingBlock: TEMPAE_clean_linker_10, # of connection points: 2
#     Edge 24, Type (0, 0), BuildingBlock: TEMPAE_clean_linker_10, # of connection points: 2
#     Edge 25, Type (0, 0), BuildingBlock: TEMPAE_clean_linker_10, # of connection points: 2
#     Edge 26, Type (0, 0), BuildingBlock: TEMPAE_clean_linker_10, # of connection points: 2
#     Edge 27, Type (0, 0), BuildingBlock: TEMPAE_clean_linker_10, # of connection points: 2
#     Edge 28, Type (0, 0), BuildingBlock: TEMPAE_clean_linker_10, # of connection points: 2
#     Edge 29, Type (0, 0), BuildingBlock: TEMPAE_clean_linker_10, # of connection points: 2
#     Edge 30, Type (0, 0), BuildingBlock: TEMPAE_clean_linker_10, # of connection points: 2
#     Edge 31, Type (0, 0), BuildingBlock: TEMPAE_clean_linker_10, # of connection points: 2
#     Edge 32, Type (0, 0), BuildingBlock: TEMPAE_clean_linker_10, # of connection points: 2
#     Edge 33, Type (0, 0), BuildingBlock: TEMPAE_clean_linker_10, # of connection points: 2
#     Edge 34, Type (0, 0), BuildingBlock: TEMPAE_clean_linker_10, # of connection points: 2
#     Edge 35, Type (0, 0), BuildingBlock: TEMPAE_clean_linker_10, # of connection points: 2
# Relax obj value: 0.092
# Max RMSD: 0.078
# Mean RMSD: 0.078
data_MOF--net-umy--node1-KUFVIS_clean_sbu_0--edge1-TEMPAE_clean_linker_10
_symmetry_space_group_name_H-M    P1
_symmetry_Int_Tables_number       1
_symmetry_cell_setting            triclinic
loop_
_symmetry_equiv_pos_as_xyz
'x, y, z'
_cell_length_a     38.913493
_cell_length_b     38.899921
_cell_length_c     51.5194
_cell_angle_alpha  90.012253
_cell_angle_beta   89.998514
_cell_angle_gamma 120.02444
loop_
_atom_site_label
_atom_site_type_symbol
_atom_site_fract_x
_atom_site_fract_y
_atom_site_fract_z
_atom_type_partial_charge
Mn0 Mn 0.06623 0.34728 0.13938 0.0
Mn1 Mn 0.15132 0.43569 0.13787 0.0
C2 C 0.11763 0.35995 0.16753 0.0
C3 C 1.00249 0.30586 0.15614 0.0
C4 C 0.13224 0.37048 0.09875 0.0
O5 O 0.04938 0.38228 0.1199 0.0
O6 O 0.10832 0.43931 0.11973 0.0
C7 C 0.12556 0.48103 0.17088 0.0
N8 N 0.15146 0.46791 0.16592 0.0
C9 C 0.19251 0.50464 0.20212 0.0
C10 C 0.16634 0.51862 0.20759 0.0
C11 C 0.13262 0.5066 0.19197 0.0
C12 C 0.18372 0.47891 0.181 0.0
H13 H 0.09979 0.47214 0.1588 0.0
C14 C 0.07147 0.41883 0.11394 0.0
O15 O 0.01319 0.29831 0.13394 0.0
O16 O 0.02802 0.33824 0.16772 0.0
N17 N 0.19556 0.43699 0.15499 0.0
C18 C 0.21653 0.41901 0.148 0.0
C19 C 0.25066 0.42709 0.16209 0.0
C20 C 0.26323 0.45405 0.18288 0.0
C21 C 0.24116 0.47221 0.1897 0.0
C22 C 0.20723 0.46274 0.17511 0.0
H23 H 0.20732 0.39876 0.13175 0.0
O24 O 0.09114 0.3238 0.16165 0.0
O25 O 0.1134 0.38779 0.15667 0.0
O26 O 0.09798 0.34552 0.10771 0.0
O27 O 0.15438 0.40471 0.10868 0.0
C28 C 0.25147 0.49933 0.2104 0.0
C29 C 0.22693 0.51518 0.2168 0.0
H30 H 0.17178 0.53849 0.22378 0.0
H31 H 0.11225 0.51722 0.19608 0.0
H32 H 0.26748 0.41288 0.15676 0.0
H33 H 0.28981 0.46052 0.19352 0.0
H34 H 0.27801 0.50792 0.22171 0.0
H35 H 0.23478 0.5354 0.23306 0.0
Mn36 Mn 0.72402 0.06575 0.30755 0.0
Mn37 Mn 0.72089 0.15094 0.30619 0.0
C38 C 0.76289 0.1171 0.33572 0.0
C39 C 0.70165 1.00195 0.32423 0.0
C40 C 0.76691 0.13189 0.26699 0.0
O41 O 0.67217 0.049 0.28808 0.0
O42 O 0.67424 0.10801 0.28798 0.0
C43 C 0.64981 0.12508 0.33921 0.0
N44 N 0.68884 0.151 0.33427 0.0
C45 C 0.69327 0.19183 0.37063 0.0
C46 C 0.6531 0.16564 0.37608 0.0
C47 C 0.63133 0.13203 0.36037 0.0
C48 C 0.71016 0.18316 0.34944 0.0
H49 H 0.63287 0.09938 0.32706 0.0
C50 C 0.65782 0.07116 0.28214 0.0
O51 O 0.71985 0.0127 0.30202 0.0
O52 O 0.69485 0.02747 0.33586 0.0
N53 N 0.76388 0.19512 0.32337 0.0
C54 C 0.80284 0.21613 0.31637 0.0
C55 C 0.82895 0.25016 0.33055 0.0
C56 C 0.81461 0.2626 0.35144 0.0
C57 C 0.77438 0.2405 0.35826 0.0
C58 C 0.74985 0.20669 0.34355 0.0
H59 H 0.81385 0.20701 0.30007 0.0
O60 O 0.77245 0.09056 0.32978 0.0
O61 O 0.73081 0.11293 0.32492 0.0
O62 O 0.7575 0.09757 0.27589 0.0
O63 O 0.75493 0.15408 0.27698 0.0
C64 C 0.75763 0.25065 0.37907 0.0
C65 C 0.71723 0.22611 0.38543 0.0
H66 H 0.63871 0.17098 0.39233 0.0
H67 H 0.60034 0.11164 0.36446 0.0
H68 H 0.85999 0.267 0.32522 0.0
H69 H 0.83477 0.2891 0.36214 0.0
H70 H 0.77565 0.27707 0.39048 0.0
H71 H 0.70491 0.23384 0.40177 0.0
Mn72 Mn 0.66421 0.72303 0.47496 0.0
Mn73 Mn 0.5759 0.71985 0.47397 0.0
C74 C 0.65191 0.76171 0.50338 0.0
C75 C 0.70563 0.7005 0.49137 0.0
C76 C 0.64081 0.76618 0.43472 0.0
O77 O 0.62903 0.67133 0.45534 0.0
O78 O 0.57206 0.67331 0.45554 0.0
C79 C 0.53085 0.64855 0.50686 0.0
N80 N 0.54392 0.6876 0.50203 0.0
C81 C 0.50771 0.69178 0.53858 0.0
C82 C 0.49377 0.65158 0.54391 0.0
C83 C 0.50555 0.62993 0.52804 0.0
C84 C 0.53315 0.70882 0.51735 0.0
H85 H 0.53957 0.6317 0.4946 0.0
C86 C 0.59247 0.65697 0.44949 0.0
O87 O 0.71306 0.71888 0.46923 0.0
O88 O 0.67335 0.69361 0.50308 0.0
N89 N 0.5748 0.76273 0.49136 0.0
C90 C 0.59271 0.80173 0.48446 0.0
C91 C 0.58482 0.82775 0.49878 0.0
C92 C 0.55813 0.81325 0.51971 0.0
C93 C 0.54005 0.77297 0.52643 0.0
C94 C 0.54928 0.74855 0.51159 0.0
H95 H 0.61276 0.81286 0.46813 0.0
O96 O 0.68797 0.7713 0.49734 0.0
O97 O 0.62392 0.72969 0.49253 0.0
O98 O 0.66578 0.75676 0.44347 0.0
O99 O 0.60668 0.75409 0.44479 0.0
C100 C 0.51326 0.75609 0.54728 0.0
C101 C 0.49744 0.71564 0.55353 0.0
H102 H 0.47413 0.63709 0.56018 0.0
H103 H 0.49497 0.59891 0.53205 0.0
H104 H 0.59897 0.85881 0.49353 0.0
H105 H 0.55181 0.83333 0.53051 0.0
H106 H 0.50491 0.77403 0.55881 0.0
H107 H 0.47748 0.70321 0.56991 0.0
Mn108 Mn 0.94616 0.66131 0.6418 0.0
Mn109 Mn 0.86067 0.57325 0.64053 0.0
C110 C 0.89511 0.64915 0.67012 0.0
C111 C 0.01013 0.70236 0.65833 0.0
C112 C 0.87991 0.63846 0.6014 0.0
O113 O 0.96246 0.62598 0.62219 0.0
O114 O 0.90329 0.56921 0.62218 0.0
C115 C 0.88625 0.52766 0.6734 0.0
N116 N 0.86051 0.54099 0.66855 0.0
C117 C 0.81972 0.50467 0.70493 0.0
C118 C 0.84573 0.49046 0.71029 0.0
C119 C 0.87924 0.50217 0.69452 0.0
C120 C 0.82845 0.5303 0.68377 0.0
H121 H 0.91188 0.53632 0.66121 0.0
C122 C 0.94011 0.58947 0.61625 0.0
O123 O 0.99936 0.70998 0.63619 0.0
O124 O 0.98451 0.67012 0.67 0.0
N125 N 0.81674 0.57236 0.65783 0.0
C126 C 0.79593 0.59054 0.65093 0.0
C127 C 0.76202 0.58279 0.66517 0.0
C128 C 0.74951 0.55594 0.68602 0.0
C129 C 0.77141 0.53757 0.69275 0.0
C130 C 0.80511 0.5467 0.67799 0.0
H131 H 0.8051 0.61072 0.63465 0.0
O132 O 0.92179 0.6852 0.66418 0.0
O133 O 0.89897 0.62109 0.65924 0.0
O134 O 0.9143 0.66326 0.61026 0.0
O135 O 0.85763 0.60431 0.61139 0.0
C136 C 0.76118 0.51059 0.71351 0.0
C137 C 0.78554 0.49449 0.71978 0.0
H138 H 0.84033 0.47066 0.72651 0.0
H139 H 0.8995 0.49138 0.69855 0.0
H140 H 0.74532 0.59716 0.65992 0.0
H141 H 0.72309 0.54972 0.69677 0.0
H142 H 0.73483 0.5023 0.72497 0.0
H143 H 0.77775 0.47438 0.7361 0.0
Mn144 Mn 0.29064 0.94334 0.8081 0.0
Mn145 Mn 0.29378 0.85815 0.80739 0.0
C146 C 0.25203 0.89254 0.83667 0.0
C147 C 0.31308 0.00749 0.82417 0.0
C148 C 0.24734 0.87641 0.76808 0.0
O149 O 0.34233 0.95976 0.78853 0.0
O150 O 0.34022 0.90074 0.78882 0.0
C151 C 0.36522 0.88471 0.84018 0.0
N152 N 0.32616 0.85866 0.83544 0.0
C153 C 0.32219 0.81848 0.87207 0.0
C154 C 0.36239 0.84482 0.87731 0.0
C155 C 0.38395 0.87818 0.86136 0.0
C156 C 0.30504 0.82675 0.85084 0.0
H157 H 0.38199 0.91022 0.82785 0.0
C158 C 0.35663 0.9375 0.78272 0.0
O159 O 0.29468 0.99621 0.80204 0.0
O160 O 0.32003 0.98227 0.83608 0.0
N161 N 0.25101 0.81426 0.82492 0.0
C162 C 0.21199 0.79305 0.81808 0.0
C163 C 0.18609 0.7592 0.83247 0.0
C164 C 0.2007 0.74715 0.85341 0.0
C165 C 0.24098 0.76946 0.86007 0.0
C166 C 0.2653 0.80306 0.84515 0.0
H167 H 0.20078 0.80186 0.80174 0.0
O168 O 0.24241 0.91895 0.8305 0.0
O169 O 0.28403 0.8965 0.82585 0.0
O170 O 0.2569 0.91091 0.7767 0.0
O171 O 0.2594 0.8544 0.77823 0.0
C172 C 0.25797 0.75971 0.88093 0.0
C173 C 0.29843 0.78442 0.8871 0.0
H174 H 0.37698 0.83978 0.89357 0.0
H175 H 0.41498 0.89868 0.86529 0.0
H176 H 0.15501 0.74219 0.82727 0.0
H177 H 0.1807 0.72076 0.86426 0.0
H178 H 0.2401 0.73347 0.89253 0.0
H179 H 0.31094 0.777 0.90347 0.0
Mn180 Mn 0.34981 0.28804 0.97266 0.0
Mn181 Mn 0.43844 0.29189 0.97157 0.0
C182 C 0.36254 0.24964 1.00106 0.0
C183 C 0.30798 0.31009 0.98905 0.0
C184 C 0.37354 0.24517 0.9324 0.0
O185 O 0.38473 0.33987 0.9531 0.0
O186 O 0.44189 0.33827 0.9532 0.0
C187 C 0.48333 0.36332 0.0044 0.0
N188 N 0.47042 0.32429 0.9996 0.0
C189 C 0.50708 0.32047 0.036 0.0
C190 C 0.52085 0.36065 0.04131 0.0
C191 C 0.50876 0.3821 0.02551 0.0
C192 C 0.48149 0.30326 0.01485 0.0
H193 H 0.47439 0.38003 0.99218 0.0
C194 C 0.42131 0.35446 0.94724 0.0
O195 O 0.30072 0.29172 0.9669 0.0
O196 O 0.34033 0.31723 1.00079 0.0
N197 N 0.43992 0.24919 0.98893 0.0
C198 C 0.42217 0.21018 0.98206 0.0
C199 C 0.43035 0.18435 0.99633 0.0
C200 C 0.45717 0.19903 0.01719 0.0
C201 C 0.47508 0.2393 0.02389 0.0
C202 C 0.46555 0.26354 0.0091 0.0
H203 H 0.40203 0.19892 0.96577 0.0
O204 O 0.3264 0.23977 0.99503 0.0
O205 O 0.39036 0.28175 0.9902 0.0
O206 O 0.34845 0.25441 0.94117 0.0
O207 O 0.40774 0.2575 0.94243 0.0
C208 C 0.50201 0.25637 0.04465 0.0
C209 C 0.51766 0.29681 0.05088 0.0
H210 H 0.54059 0.37527 0.05752 0.0
H211 H 0.51921 0.41311 0.02949 0.0
H212 H 0.41633 0.15327 0.9911 0.0
H213 H 0.46372 0.17908 0.02796 0.0
H214 H 0.51059 0.23858 0.05614 0.0
H215 H 0.53777 0.30939 0.06717 0.0
Mn216 Mn 0.66462 0.94292 0.69957 0.0
Mn217 Mn 0.57658 0.85741 0.7011 0.0
C218 C 0.65235 0.89161 0.67144 0.0
C219 C 0.70563 0.00675 0.68281 0.0
C220 C 0.6419 0.877 0.74021 0.0
O221 O 0.62935 0.9594 0.71907 0.0
O222 O 0.57258 0.90022 0.71925 0.0
C223 C 0.53086 0.88264 0.66808 0.0
N224 N 0.54424 0.85696 0.67305 0.0
C225 C 0.50787 0.81582 0.63679 0.0
C226 C 0.4936 0.84175 0.63131 0.0
C227 C 0.5053 0.87541 0.64695 0.0
C228 C 0.53355 0.82477 0.65794 0.0
H229 H 0.53951 0.90837 0.68017 0.0
C230 C 0.59285 0.93712 0.72505 0.0
O231 O 0.7133 0.99617 0.70501 0.0
O232 O 0.67335 0.98103 0.67123 0.0
N233 N 0.57569 0.81334 0.68399 0.0
C234 C 0.59395 0.79264 0.69098 0.0
C235 C 0.58626 0.75864 0.67684 0.0
C236 C 0.55939 0.74594 0.65599 0.0
C237 C 0.54092 0.76771 0.64919 0.0
C238 C 0.54999 0.80151 0.66384 0.0
H239 H 0.61416 0.80197 0.70724 0.0
O240 O 0.68842 0.91832 0.67731 0.0
O241 O 0.62435 0.89557 0.68229 0.0
O242 O 0.66666 0.91133 0.73123 0.0
O243 O 0.60771 0.85465 0.73029 0.0
C244 C 0.51389 0.75727 0.62843 0.0
C245 C 0.49771 0.78152 0.62206 0.0
H246 H 0.47377 0.83619 0.61509 0.0
H247 H 0.49447 0.8956 0.64283 0.0
H248 H 0.60071 0.74205 0.68216 0.0
H249 H 0.55323 0.71947 0.64532 0.0
H250 H 0.50563 0.73084 0.61706 0.0
H251 H 0.47756 0.77357 0.60575 0.0
Mn252 Mn 0.72667 0.66135 0.86649 0.0
Mn253 Mn 0.72363 0.57309 0.86764 0.0
C254 C 0.76554 0.64909 0.83822 0.0
C255 C 0.7042 0.70278 0.85001 0.0
C256 C 0.7697 0.6381 0.9069 0.0
O257 O 0.67483 0.62608 0.88592 0.0
O258 O 0.67694 0.56918 0.88589 0.0
C259 C 0.65255 0.52785 0.8346 0.0
N260 N 0.69158 0.54102 0.83953 0.0
C261 C 0.69603 0.50476 0.80309 0.0
C262 C 0.65586 0.49071 0.79766 0.0
C263 C 0.63408 0.50247 0.81341 0.0
C264 C 0.71292 0.53027 0.82432 0.0
H265 H 0.6356 0.53655 0.84677 0.0
C266 C 0.66043 0.58951 0.89177 0.0
O267 O 0.72245 0.71016 0.8722 0.0
O268 O 0.69743 0.67054 0.83827 0.0
N269 N 0.76664 0.57206 0.8504 0.0
C270 C 0.80561 0.59008 0.85738 0.0
C271 C 0.83174 0.58228 0.84316 0.0
C272 C 0.8174 0.55553 0.82224 0.0
C273 C 0.77716 0.53732 0.81544 0.0
C274 C 0.75262 0.5465 0.83019 0.0
H275 H 0.81662 0.61018 0.87371 0.0
O276 O 0.77507 0.68516 0.84424 0.0
O277 O 0.73348 0.62107 0.849 0.0
O278 O 0.76022 0.66298 0.89808 0.0
O279 O 0.7577 0.60394 0.89687 0.0
C280 C 0.76042 0.51046 0.79461 0.0
C281 C 0.72001 0.49452 0.78826 0.0
H282 H 0.64148 0.47101 0.78139 0.0
H283 H 0.60308 0.49182 0.80932 0.0
H284 H 0.86279 0.59653 0.84847 0.0
H285 H 0.83758 0.54928 0.8115 0.0
H286 H 0.77846 0.50213 0.78316 0.0
H287 H 0.70769 0.47449 0.7719 0.0
Mn288 Mn 0.07093 0.72451 0.03303 0.0
Mn289 Mn 0.15626 0.72171 0.03444 0.0
C290 C 0.12213 0.76337 0.00478 0.0
C291 C 1.00702 0.70175 0.01648 0.0
C292 C 0.13712 0.76786 0.07349 0.0
O293 O 0.05441 0.67278 0.05259 0.0
O294 O 0.11345 0.675 0.05268 0.0
C295 C 0.13066 0.65052 1.00153 0.0
N296 N 0.15645 0.68961 0.00643 0.0
C297 C 0.19737 0.69406 0.97013 0.0
C298 C 0.17133 0.65383 0.96473 0.0
C299 C 0.13772 0.63202 0.98043 0.0
C300 C 0.1886 0.71097 0.99126 0.0
H301 H 0.10497 0.63356 0.01367 0.0
C302 C 0.07659 0.65845 0.05852 0.0
O303 O 0.01783 0.72013 0.03863 0.0
O304 O 0.03258 0.69506 0.0048 0.0
N305 N 0.20032 0.76476 0.01722 0.0
C306 C 0.22118 0.80377 0.02414 0.0
C307 C 0.25515 0.82993 0.00995 0.0
C308 C 0.26768 0.81558 0.98912 0.0
C309 C 0.24575 0.77529 0.98237 0.0
C310 C 0.21199 0.75072 0.99709 0.0
H311 H 0.21198 0.81479 0.0404 0.0
O312 O 0.09552 0.77283 0.01069 0.0
O313 O 0.11812 0.73138 0.01566 0.0
O314 O 0.10277 0.75829 0.0646 0.0
O315 O 0.15931 0.75584 0.06358 0.0
C316 C 0.25601 0.75854 0.96163 0.0
C317 C 0.23163 0.71806 0.95534 0.0
H318 H 0.17676 0.63942 0.94853 0.0
H319 H 0.11744 0.60098 0.97638 0.0
H320 H 0.27187 0.86101 0.01522 0.0
H321 H 0.29414 0.83578 0.9784 0.0
H322 H 0.2824 0.7766 0.9502 0.0
H323 H 0.23946 0.70572 0.93905 0.0
Mn324 Mn 0.3527 0.07079 0.19792 0.0
Mn325 Mn 0.44059 0.15649 0.19862 0.0
C326 C 0.36439 0.12144 0.16936 0.0
C327 C 0.31159 0.00653 0.18183 0.0
C328 C 0.37575 0.13756 0.23798 0.0
O329 O 0.38835 0.05491 0.21753 0.0
O330 O 0.445 0.11416 0.2171 0.0
C331 C 0.48598 0.13073 0.16569 0.0
N332 N 0.47261 0.15647 0.17051 0.0
C333 C 0.50855 0.19699 0.13394 0.0
C334 C 0.52281 0.171 0.1286 0.0
C335 C 0.5113 0.13762 0.14448 0.0
C336 C 0.48309 0.18838 0.15518 0.0
H337 H 0.47748 0.10522 0.17796 0.0
C338 C 0.42492 0.0774 0.22326 0.0
O339 O 0.30421 0.01762 0.20394 0.0
O340 O 0.34366 0.03203 0.16994 0.0
N341 N 0.44115 0.20016 0.18118 0.0
C342 C 0.42293 0.22096 0.18807 0.0
C343 C 0.43048 0.25473 0.17373 0.0
C344 C 0.45716 0.26713 0.15279 0.0
C345 C 0.47556 0.24524 0.14607 0.0
C346 C 0.46665 0.21169 0.16094 0.0
H347 H 0.40289 0.21188 0.20441 0.0
O348 O 0.32845 0.09474 0.1755 0.0
O349 O 0.39263 0.11784 0.18018 0.0
O350 O 0.35097 0.10302 0.22932 0.0
O351 O 0.40979 0.15978 0.22784 0.0
C352 C 0.50237 0.25536 0.12522 0.0
C353 C 0.51852 0.23103 0.11898 0.0
H354 H 0.54247 0.17631 0.11233 0.0
H355 H 0.52212 0.11738 0.14047 0.0
H356 H 0.41609 0.27141 0.17897 0.0
H357 H 0.46324 0.29345 0.14197 0.0
H358 H 0.51048 0.28159 0.11368 0.0
H359 H 0.53851 0.23874 0.10261 0.0
Mn360 Mn 0.28818 0.3516 0.36396 0.0
Mn361 Mn 0.28955 0.43906 0.3649 0.0
C362 C 0.24865 0.36283 0.33564 0.0
C363 C 0.31168 0.31098 0.34755 0.0
C364 C 0.24446 0.37406 0.40434 0.0
O365 O 0.3398 0.38761 0.38342 0.0
O366 O 0.33666 0.44396 0.38315 0.0
C367 C 0.36026 0.48492 0.33168 0.0
N368 N 0.32115 0.47122 0.33669 0.0
C369 C 0.31579 0.50682 0.30019 0.0
C370 C 0.35603 0.52141 0.29467 0.0
C371 C 0.3783 0.51025 0.31041 0.0
C372 C 0.29933 0.48136 0.32148 0.0
H373 H 0.37757 0.47668 0.34384 0.0
C374 C 0.35366 0.42415 0.38918 0.0
O375 O 0.29343 0.30339 0.36975 0.0
O376 O 0.31788 0.343 0.33578 0.0
N377 N 0.24602 0.43911 0.34769 0.0
C378 C 0.20707 0.42056 0.35474 0.0
C379 C 0.18048 0.42773 0.34055 0.0
C380 C 0.19435 0.45439 0.31958 0.0
C381 C 0.23459 0.47315 0.3127 0.0
C382 C 0.2596 0.46458 0.32742 0.0
H383 H 0.19642 0.40053 0.37111 0.0
O384 O 0.23976 0.32696 0.34172 0.0
O385 O 0.28047 0.39124 0.34639 0.0
O386 O 0.25437 0.34948 0.39554 0.0
O387 O 0.25591 0.40806 0.39423 0.0
C388 C 0.25089 0.49999 0.29183 0.0
C389 C 0.29134 0.51645 0.28539 0.0
H390 H 0.3701 0.54108 0.27834 0.0
H391 H 0.40936 0.52132 0.30625 0.0
H392 H 0.14944 0.41306 0.34592 0.0
H393 H 0.17382 0.46017 0.30887 0.0
H394 H 0.23249 0.50787 0.28041 0.0
H395 H 0.30331 0.53643 0.26898 0.0
Mn396 Mn 0.94422 0.2867 0.53168 0.0
Mn397 Mn 0.8587 0.28909 0.53313 0.0
C398 C 0.89304 0.24765 0.50347 0.0
C399 C 0.0081 0.30971 0.51501 0.0
C400 C 0.87815 0.24322 0.5722 0.0
O401 O 0.96058 0.33837 0.55128 0.0
O402 O 0.90138 0.33583 0.55144 0.0
C403 C 0.88415 0.36026 0.50025 0.0
N404 N 0.85842 0.32115 0.50513 0.0
C405 C 0.81756 0.31657 0.46876 0.0
C406 C 0.84354 0.35682 0.46338 0.0
C407 C 0.87708 0.3787 0.47913 0.0
C408 C 0.82634 0.29972 0.48993 0.0
H409 H 0.9098 0.37727 0.51242 0.0
C410 C 0.93824 0.35249 0.55729 0.0
O411 O 0.99747 0.29134 0.53717 0.0
O412 O 0.9824 0.31625 0.50342 0.0
N413 N 0.81471 0.24599 0.51588 0.0
C414 C 0.79392 0.20698 0.52281 0.0
C415 C 0.75998 0.18076 0.50861 0.0
C416 C 0.74742 0.19504 0.48775 0.0
C417 C 0.7693 0.23533 0.481 0.0
C418 C 0.80302 0.25997 0.49574 0.0
H419 H 0.80313 0.19601 0.53908 0.0
O420 O 0.91978 0.23836 0.50936 0.0
O421 O 0.89693 0.27959 0.51435 0.0
O422 O 0.91254 0.25292 0.56329 0.0
O423 O 0.8558 0.25501 0.56225 0.0
C424 C 0.75903 0.25201 0.46022 0.0
C425 C 0.78336 0.29249 0.45393 0.0
H426 H 0.83811 0.37118 0.44716 0.0
H427 H 0.89732 0.40975 0.47508 0.0
H428 H 0.7433 0.14968 0.51388 0.0
H429 H 0.72099 0.17479 0.47703 0.0
H430 H 0.73268 0.2339 0.44878 0.0
H431 H 0.77555 0.30477 0.43761 0.0
C432 C 0.08063 0.61344 0.09074 0.0
C433 C 0.05941 0.61906 0.07087 0.0
C434 C 0.07188 0.57524 0.09813 0.0
C435 C 0.04167 0.5418 0.08489 0.0
C436 C 0.01795 0.54719 0.06627 0.0
C437 C 0.02701 0.58594 0.05954 0.0
C438 C 0.09746 0.571 0.11849 0.0
C439 C 0.98546 0.51244 0.05177 0.0
C440 C 0.07375 0.46522 0.08033 0.0
C441 C 0.05425 0.44096 0.10165 0.0
C442 C 0.06663 0.49578 0.07295 0.0
C443 C 0.04003 0.50284 0.08771 0.0
C444 C 0.01764 0.47615 0.10786 0.0
C445 C 0.02492 0.44526 0.11456 0.0
C446 C 0.09063 0.52293 0.05098 0.0
C447 C 0.98896 0.48247 0.12402 0.0
H448 H 0.1057 0.63912 0.09947 0.0
H449 H 0.01089 0.5903 0.04393 0.0
H450 H 0.07885 0.54739 0.1326 0.0
H451 H 0.11757 0.56224 0.10904 0.0
H452 H 0.1159 0.59911 0.12928 0.0
H453 H 0.96457 0.52029 0.04243 0.0
H454 H 0.99889 0.50295 0.03638 0.0
H455 H 0.96852 0.48676 0.0649 0.0
H456 H 0.09657 0.46193 0.07047 0.0
H457 H 0.01028 0.42683 0.13132 0.0
H458 H 0.11384 0.55177 0.05903 0.0
H459 H 0.07149 0.529 0.03805 0.0
H460 H 0.10544 0.51016 0.03919 0.0
H461 H 1.00582 0.50621 0.13848 0.0
H462 H 0.96785 0.45507 0.13466 0.0
H463 H 0.9719 0.49216 0.1118 0.0
C464 C 0.58465 0.02581 0.28277 0.0
C465 C 0.61865 0.05407 0.26963 0.0
C466 C 0.5468 0.01892 0.27557 0.0
C467 C 0.54321 0.04063 0.25468 0.0
C468 C 0.57721 0.06609 0.23978 0.0
C469 C 0.61457 0.07287 0.24767 0.0
C470 C 0.51143 0.9915 0.29194 0.0
C471 C 0.5748 0.08931 0.21705 0.0
C472 C 0.44759 0.02764 0.22552 0.0
C473 C 0.44734 0.06076 0.236 0.0
C474 C 0.47703 0.01851 0.23282 0.0
C475 C 0.50636 0.04292 0.25114 0.0
C476 C 0.50369 0.07407 0.26348 0.0
C477 C 0.47449 0.08283 0.25554 0.0
C478 C 0.47871 0.98503 0.21926 0.0
C479 C 0.53378 0.10044 0.28349 0.0
H480 H 0.58793 0.01176 0.30003 0.0
H481 H 0.64099 0.09493 0.23765 0.0
H482 H 0.50481 0.00942 0.30566 0.0
H483 H 0.48471 0.97412 0.27972 0.0
H484 H 0.51713 0.97068 0.30341 0.0
H485 H 0.60246 0.10304 0.20531 0.0
H486 H 0.54948 0.06988 0.20426 0.0
H487 H 0.56978 0.11332 0.22429 0.0
H488 H 0.42686 0.01083 0.21017 0.0
H489 H 0.47422 0.10844 0.26364 0.0
H490 H 0.48689 0.96835 0.23301 0.0
H491 H 0.50183 0.99747 0.20394 0.0
H492 H 0.44992 0.96407 0.20997 0.0
H493 H 0.53832 0.08233 0.29824 0.0
H494 H 0.52462 0.11985 0.29354 0.0
H495 H 0.56276 0.11963 0.27387 0.0
C496 C 0.56445 0.58375 0.4497 0.0
C497 C 0.57038 0.61796 0.43676 0.0
C498 C 0.53354 0.54601 0.44223 0.0
C499 C 0.50849 0.54273 0.42126 0.0
C500 C 0.51721 0.57698 0.40658 0.0
C501 C 0.54773 0.61423 0.41474 0.0
C502 C 0.52536 0.51037 0.45838 0.0
C503 C 0.49185 0.57491 0.38378 0.0
C504 C 0.42622 0.44732 0.3915 0.0
C505 C 0.3927 0.44679 0.40194 0.0
C506 C 0.46469 0.47682 0.39896 0.0
C507 C 0.46938 0.5059 0.41741 0.0
C508 C 0.43541 0.50298 0.42966 0.0
C509 C 0.39754 0.47375 0.42156 0.0
C510 C 0.50003 0.47879 0.38547 0.0
C511 C 0.43887 0.53281 0.4498 0.0
H512 H 0.58161 0.58677 0.46701 0.0
H513 H 0.55225 0.64082 0.40488 0.0
H514 H 0.50058 0.50346 0.47195 0.0
H515 H 0.51625 0.48386 0.44599 0.0
H516 H 0.5517 0.51593 0.47 0.0
H517 H 0.50594 0.60276 0.37222 0.0
H518 H 0.48607 0.54978 0.37084 0.0
H519 H 0.46275 0.56979 0.39092 0.0
H520 H 0.42246 0.42674 0.37609 0.0
H521 H 0.37155 0.47325 0.42964 0.0
H522 H 0.52472 0.48676 0.39932 0.0
H523 H 0.51089 0.50221 0.37034 0.0
H524 H 0.49232 0.45018 0.37597 0.0
H525 H 0.46137 0.5372 0.46464 0.0
H526 H 0.41018 0.52348 0.45973 0.0
H527 H 0.44876 0.56191 0.44033 0.0
C528 C 0.98729 0.56372 0.61566 0.0
C529 C 0.95694 0.56724 0.60357 0.0
C530 C 0.99503 0.53333 0.60841 0.0
C531 C 0.97207 0.50637 0.58851 0.0
C532 C 0.94422 0.51258 0.5746 0.0
C533 C 0.93668 0.54264 0.58253 0.0
C534 C 0.025 0.52786 0.62369 0.0
C535 C 0.91956 0.48513 0.55292 0.0
C536 C 0.98649 0.42528 0.55837 0.0
C537 C 0.95514 0.39159 0.56997 0.0
C538 C 0.99486 0.46363 0.56563 0.0
C539 C 0.97152 0.46803 0.58505 0.0
C540 C 0.94249 0.43405 0.59849 0.0
C541 C 0.93437 0.39626 0.59056 0.0
C542 C 0.02609 0.49898 0.55087 0.0
C543 C 0.91737 0.43724 0.61967 0.0
H544 H 1.00256 0.58244 0.63219 0.0
H545 H 0.91311 0.54537 0.57327 0.0
H546 H 0.00924 0.50386 0.63816 0.0
H547 H 0.04206 0.51891 0.61084 0.0
H548 H 0.04606 0.55539 0.63423 0.0
H549 H 0.90351 0.49721 0.54179 0.0
H550 H 0.93851 0.4798 0.53933 0.0
H551 H 0.89735 0.456 0.56118 0.0
H552 H 1.00221 0.42162 0.5422 0.0
H553 H 0.91007 0.37011 0.59947 0.0
H554 H 0.04315 0.52463 0.564 0.0
H555 H 0.01143 0.50809 0.53611 0.0
H556 H 0.04703 0.49197 0.54072 0.0
H557 H 0.93618 0.46101 0.63363 0.0
H558 H 0.90013 0.40893 0.63049 0.0
H559 H 0.89617 0.44519 0.61097 0.0
C560 C 0.56782 0.98492 0.72548 0.0
C561 C 0.57064 0.95413 0.73752 0.0
C562 C 0.53761 0.99305 0.7325 0.0
C563 C 0.51012 0.97004 0.75213 0.0
C564 C 0.51559 0.94169 0.76602 0.0
C565 C 0.54548 0.93378 0.75832 0.0
C566 C 0.53295 0.02356 0.71726 0.0
C567 C 0.48755 0.91696 0.78743 0.0
C568 C 0.42946 0.98537 0.78194 0.0
C569 C 0.39574 0.95441 0.77009 0.0
C570 C 0.46774 0.99339 0.77485 0.0
C571 C 0.47204 0.97008 0.75536 0.0
C572 C 0.4381 0.94153 0.74165 0.0
C573 C 0.40036 0.93375 0.7494 0.0
C574 C 0.50305 0.02412 0.7899 0.0
C575 C 0.44121 0.91646 0.72039 0.0
H576 H 0.58697 1.00029 0.70914 0.0
H577 H 0.54768 0.90989 0.76756 0.0
H578 H 0.50917 0.00823 0.70258 0.0
H579 H 0.5241 0.04072 0.73008 0.0
H580 H 0.56077 0.04449 0.70696 0.0
H581 H 0.49904 0.90038 0.79858 0.0
H582 H 0.48235 0.93596 0.80106 0.0
H583 H 0.45846 0.89518 0.77891 0.0
H584 H 0.42582 1.00098 0.7982 0.0
H585 H 0.37419 0.90972 0.74032 0.0
H586 H 0.52897 0.04107 0.77697 0.0
H587 H 0.5116 0.00902 0.80468 0.0
H588 H 0.49626 0.04523 0.80006 0.0
H589 H 0.46534 0.93525 0.70664 0.0
H590 H 0.41306 0.89973 0.70934 0.0
H591 H 0.44856 0.8948 0.72905 0.0
C592 C 0.46779 0.39857 0.91365 0.0
C593 C 0.44336 0.39378 0.93487 0.0
C594 C 0.49824 0.43631 0.90624 0.0
C595 C 0.50502 0.47 0.92087 0.0
C596 C 0.47816 0.46565 0.94091 0.0
C597 C 0.44739 0.42741 0.94764 0.0
C598 C 0.52557 0.43951 0.88438 0.0
C599 C 0.48418 0.50068 0.95693 0.0
C600 C 0.61547 0.54058 0.92406 0.0
C601 C 0.62104 0.56725 0.90408 0.0
C602 C 0.57732 0.51101 0.93143 0.0
C603 C 0.54387 0.50747 0.91805 0.0
C604 C 0.54918 0.53642 0.89932 0.0
C605 C 0.58789 0.56624 0.89261 0.0
C606 C 0.57315 0.48136 0.95191 0.0
C607 C 0.51442 0.53384 0.88467 0.0
H608 H 0.46471 0.37246 0.9039 0.0
H609 H 0.42883 0.42362 0.96433 0.0
H610 H 0.53156 0.46461 0.87136 0.0
H611 H 0.55442 0.44537 0.89254 0.0
H612 H 0.51301 0.41185 0.87266 0.0
H613 H 0.4567 0.49428 0.96747 0.0
H614 H 0.50788 0.5078 0.97146 0.0
H615 H 0.4938 0.52736 0.94463 0.0
H616 H 0.64118 0.54141 0.93289 0.0
H617 H 0.59222 0.58659 0.87691 0.0
H618 H 0.56462 0.45247 0.94255 0.0
H619 H 0.54942 0.47629 0.96592 0.0
H620 H 0.60122 0.49127 0.96279 0.0
H621 H 0.50515 0.51083 0.86934 0.0
H622 H 0.52216 0.5625 0.87523 0.0
H623 H 0.48865 0.52501 0.89771 0.0
C624 C 0.14141 0.31964 0.07452 0.0
C625 C 0.14943 0.35886 0.07707 0.0
C626 C 0.16368 0.31016 0.05741 0.0
C627 C 0.19419 0.34052 0.04223 0.0
C628 C 0.20017 0.3795 0.0433 0.0
C629 C 0.17801 0.38825 0.06085 0.0
C630 C 0.15652 0.26829 0.05702 0.0
C631 C 0.23181 0.41264 0.02717 0.0
C632 C 0.28583 0.33293 0.02752 0.0
C633 C 0.27941 0.31955 1.00173 0.0
C634 C 0.25816 0.33944 0.04083 0.0
C635 C 0.22321 0.33294 0.02801 0.0
C636 C 0.21675 0.32005 1.00181 0.0
C637 C 0.24483 0.31325 0.98901 0.0
C638 C 0.26623 0.35297 0.06879 0.0
C639 C 0.18018 0.31338 0.98738 0.0
H640 H 0.11955 0.29685 0.0871 0.0
H641 H 0.1841 0.41858 0.06254 0.0
H642 H 0.15488 0.25787 0.03678 0.0
H643 H 0.18176 0.26765 0.06658 0.0
H644 H 0.12876 0.24723 0.06732 0.0
H645 H 0.22889 0.43963 0.02741 0.0
H646 H 0.26153 0.42067 0.03488 0.0
H647 H 0.23046 0.40295 0.00676 0.0
H648 H 0.3123 0.33767 0.03761 0.0
H649 H 0.2396 0.30283 0.96911 0.0
H650 H 0.2415 0.33161 0.0813 0.0
H651 H 0.26795 0.38219 0.07081 0.0
H652 H 0.29435 0.35576 0.07614 0.0
H653 H 0.15318 0.29026 0.99734 0.0
H654 H 0.17981 0.30399 0.96696 0.0
H655 H 0.17852 0.34104 0.98737 0.0
C656 C 0.82648 0.14057 0.24245 0.0
C657 C 0.79563 0.14902 0.24525 0.0
C658 C 0.85811 0.1626 0.2252 0.0
C659 C 0.85849 0.19331 0.21013 0.0
C660 C 0.82583 0.19978 0.21149 0.0
C661 C 0.79505 0.17785 0.22917 0.0
C662 C 0.89248 0.15494 0.22453 0.0
C663 C 0.82458 0.23166 0.19549 0.0
C664 C 0.95812 0.28421 0.19491 0.0
C665 C 0.96454 0.27759 0.16904 0.0
C666 C 0.92398 0.25684 0.20842 0.0
C667 C 0.89503 0.22201 0.19571 0.0
C668 C 0.90092 0.21535 0.16945 0.0
C669 C 0.93576 0.24311 0.15645 0.0
C670 C 0.91912 0.2651 0.23644 0.0
C671 C 0.87046 0.17889 0.15514 0.0
H672 H 0.82725 0.11852 0.25491 0.0
H673 H 0.77107 0.18428 0.23105 0.0
H674 H 0.90083 0.15308 0.20421 0.0
H675 H 0.91869 0.18004 0.23393 0.0
H676 H 0.88559 0.12711 0.23481 0.0
H677 H 0.79487 0.22917 0.19598 0.0
H678 H 0.8467 0.2613 0.20311 0.0
H679 H 0.83251 0.23015 0.17501 0.0
H680 H 0.98024 0.3106 0.2049 0.0
H681 H 0.94053 0.23774 0.13649 0.0
H682 H 0.91559 0.24027 0.24889 0.0
H683 H 0.89189 0.26723 0.23868 0.0
H684 H 0.94482 0.29309 0.24367 0.0
H685 H 0.86633 0.15178 0.16506 0.0
H686 H 0.87911 0.17834 0.13466 0.0
H687 H 0.84135 0.17766 0.15535 0.0
C688 C 0.62274 0.79442 0.39709 0.0
C689 C 0.65226 0.79501 0.41305 0.0
C690 C 0.63148 0.82527 0.37949 0.0
C691 C 0.67059 0.85798 0.37808 0.0
C692 C 0.70103 0.85762 0.39303 0.0
C693 C 0.69155 0.82594 0.41021 0.0
C694 C 0.59823 0.824 0.36362 0.0
C695 C 0.74305 0.89205 0.39231 0.0
C696 C 0.69769 0.93525 0.32445 0.0
C697 C 0.69204 0.964 0.3371 0.0
C698 C 0.69072 0.90042 0.33741 0.0
C699 C 0.67834 0.89452 0.36371 0.0
C700 C 0.67252 0.92345 0.37648 0.0
C701 C 0.67916 0.95757 0.363 0.0
C702 C 0.69665 0.86999 0.32303 0.0
C703 C 0.65957 0.91858 0.40454 0.0
H704 H 0.59235 0.77039 0.39901 0.0
H705 H 0.71445 0.82671 0.42259 0.0
H706 H 0.59077 0.84611 0.37132 0.0
H707 H 0.60754 0.83194 0.34311 0.0
H708 H 0.57101 0.79427 0.36415 0.0
H709 H 0.76406 0.8852 0.40251 0.0
H710 H 0.75316 0.90044 0.37198 0.0
H711 H 0.74418 0.91824 0.40175 0.0
H712 H 0.70772 0.94003 0.30446 0.0
H713 H 0.67494 0.97968 0.37304 0.0
H714 H 0.66878 0.84085 0.32328 0.0
H715 H 0.7197 0.86589 0.33287 0.0
H716 H 0.70574 0.87865 0.30253 0.0
H717 H 0.63023 0.89132 0.40684 0.0
H718 H 0.65731 0.94426 0.41182 0.0
H719 H 0.68098 0.91509 0.41691 0.0
C720 C 0.7684 0.69662 0.49143 0.0
C721 C 0.73396 0.69077 0.50411 0.0
C722 C 0.79624 0.68953 0.50429 0.0
C723 C 0.78969 0.67682 0.53052 0.0
C724 C 0.75489 0.67078 0.54332 0.0
C725 C 0.72744 0.67755 0.52994 0.0
C726 C 0.83266 0.69571 0.48989 0.0
C727 C 0.74673 0.65746 0.57131 0.0
C728 C 0.83398 0.62085 0.56359 0.0
C729 C 0.8628 0.65019 0.57973 0.0
C730 C 0.81203 0.6298 0.546 0.0
C731 C 0.81845 0.66894 0.5448 0.0
C732 C 0.84916 0.69921 0.55992 0.0
C733 C 0.87122 0.68953 0.57708 0.0
C734 C 0.78015 0.59673 0.52995 0.0
C735 C 0.85678 0.74124 0.55942 0.0
H736 H 0.7737 0.70691 0.4715 0.0
H737 H 0.70108 0.67316 0.54 0.0
H738 H 0.85978 0.71868 0.49982 0.0
H739 H 0.83396 0.66785 0.48996 0.0
H740 H 0.83313 0.70503 0.46945 0.0
H741 H 0.71876 0.65506 0.57863 0.0
H742 H 0.74466 0.6281 0.57342 0.0
H743 H 0.77158 0.67873 0.58378 0.0
H744 H 0.82758 0.59043 0.56536 0.0
H745 H 0.89327 0.71228 0.58959 0.0
H746 H 0.78159 0.60632 0.5095 0.0
H747 H 0.75053 0.58909 0.53764 0.0
H748 H 0.7827 0.56954 0.53029 0.0
H749 H 0.85854 0.75158 0.53915 0.0
H750 H 0.88463 0.76216 0.5697 0.0
H751 H 0.8317 0.74225 0.56893 0.0
C752 C 0.07737 0.76444 0.65827 0.0
C753 C 0.04827 0.73045 0.6711 0.0
C754 C 0.11246 0.79206 0.67111 0.0
C755 C 0.11824 0.78576 0.69747 0.0
C756 C 0.08895 0.75143 0.71042 0.0
C757 C 0.05459 0.72416 0.69706 0.0
C758 C 0.14328 0.82796 0.65654 0.0
C759 C 0.09368 0.74359 0.73856 0.0
C760 C 0.21828 0.82935 0.73083 0.0
C761 C 0.21832 0.85889 0.74652 0.0
C762 C 0.18726 0.80729 0.71332 0.0
C763 C 0.155 0.81436 0.71174 0.0
C764 C 0.15598 0.8457 0.72642 0.0
C765 C 0.18783 0.86783 0.7435 0.0
C766 C 0.18785 0.77472 0.69774 0.0
C767 C 0.12204 0.854 0.72551 0.0
H768 H 0.07268 0.76955 0.63824 0.0
H769 H 0.03221 0.69816 0.70723 0.0
H770 H 0.14793 0.85547 0.66618 0.0
H771 H 0.17213 0.82864 0.65688 0.0
H772 H 0.13467 0.82825 0.63602 0.0
H773 H 0.06773 0.71598 0.74597 0.0
H774 H 0.12062 0.74098 0.74095 0.0
H775 H 0.09767 0.76885 0.75075 0.0
H776 H 0.24196 0.82253 0.73287 0.0
H777 H 0.18753 0.89043 0.75566 0.0
H778 H 0.17998 0.77591 0.67719 0.0
H779 H 0.16541 0.7454 0.70561 0.0
H780 H 0.21733 0.77669 0.69835 0.0
H781 H 0.11376 0.85561 0.70514 0.0
H782 H 0.12936 0.88214 0.73554 0.0
H783 H 0.09564 0.82931 0.73504 0.0
C784 C 0.33594 0.05288 0.86245 0.0
C785 C 0.32274 0.04573 0.83663 0.0
C786 C 0.34256 0.08728 0.87555 0.0
C787 C 0.33637 0.11575 0.86247 0.0
C788 C 0.3237 0.10914 0.83623 0.0
C789 C 0.31677 0.07404 0.82365 0.0
C790 C 0.35584 0.09294 0.90357 0.0
C791 C 0.31737 0.13905 0.82152 0.0
C792 C 0.32288 0.1849 0.90828 0.0
C793 C 0.36209 0.21609 0.91089 0.0
C794 C 0.31349 0.15292 0.89138 0.0
C795 C 0.34395 0.15252 0.87648 0.0
C796 C 0.38295 0.18547 0.8776 0.0
C797 C 0.3916 0.21662 0.89493 0.0
C798 C 0.27159 0.11826 0.89094 0.0
C799 C 0.41619 0.1867 0.86175 0.0
H800 H 0.34042 0.03112 0.87273 0.0
H801 H 0.3065 0.06871 0.80372 0.0
H802 H 0.38508 0.12041 0.9056 0.0
H803 H 0.33444 0.09649 0.91589 0.0
H804 H 0.35845 0.06759 0.91111 0.0
H805 H 0.30822 0.12991 0.8011 0.0
H806 H 0.29422 0.14311 0.83126 0.0
H807 H 0.34509 0.16833 0.82156 0.0
H808 H 0.3 0.18417 0.92066 0.0
H809 H 0.42193 0.24085 0.89667 0.0
H810 H 0.27078 0.0924 0.90067 0.0
H811 H 0.26135 0.10934 0.87069 0.0
H812 H 0.25051 0.12512 0.90104 0.0
H813 H 0.42401 0.16499 0.8697 0.0
H814 H 0.44324 0.21657 0.86198 0.0
H815 H 0.40671 0.17819 0.84133 0.0
C816 C 0.68109 0.72456 0.81151 0.0
C817 C 0.69444 0.73111 0.83731 0.0
C818 C 0.67428 0.75203 0.79818 0.0
C819 C 0.68045 0.78688 0.81099 0.0
C820 C 0.6933 0.79346 0.83719 0.0
C821 C 0.7004 0.76559 0.85001 0.0
C822 C 0.66079 0.74383 0.77022 0.0
C823 C 0.69963 0.82995 0.85161 0.0
C824 C 0.69303 0.86838 0.76445 0.0
C825 C 0.65372 0.86002 0.7619 0.0
C826 C 0.70276 0.84632 0.78158 0.0
C827 C 0.67256 0.81567 0.79676 0.0
C828 C 0.63346 0.80933 0.79567 0.0
C829 C 0.62446 0.83129 0.77812 0.0
C830 C 0.74475 0.85386 0.78197 0.0
C831 C 0.60047 0.77752 0.8118 0.0
H832 H 0.67661 0.69816 0.80144 0.0
H833 H 0.7108 0.77092 0.86992 0.0
H834 H 0.63146 0.74183 0.76819 0.0
H835 H 0.68201 0.76864 0.75771 0.0
H836 H 0.65827 0.7158 0.76289 0.0
H837 H 0.70905 0.83043 0.87202 0.0
H838 H 0.72259 0.85704 0.84164 0.0
H839 H 0.67183 0.83132 0.8516 0.0
H840 H 0.71572 0.89036 0.75187 0.0
H841 H 0.59406 0.82493 0.77642 0.0
H842 H 0.74565 0.82873 0.77243 0.0
H843 H 0.75519 0.85561 0.80222 0.0
H844 H 0.76564 0.88169 0.77167 0.0
H845 H 0.59271 0.74785 0.80411 0.0
H846 H 0.57332 0.78015 0.81154 0.0
H847 H 0.61017 0.77898 0.83221 0.0
C848 C 0.79865 0.62042 0.94434 0.0
C849 C 0.79867 0.6498 0.92851 0.0
C850 C 0.82971 0.62951 0.96183 0.0
C851 C 0.86206 0.66884 0.96324 0.0
C852 C 0.86112 0.6991 0.94844 0.0
C853 C 0.82924 0.68926 0.93138 0.0
C854 C 0.82908 0.59643 0.97754 0.0
C855 C 0.89514 0.74134 0.94919 0.0
C856 C 0.93992 0.69683 0.01657 0.0
C857 C 0.96888 0.69172 0.00374 0.0
C858 C 0.90482 0.68936 0.00377 0.0
C859 C 0.89887 0.67705 0.97746 0.0
C860 C 0.92801 0.67179 0.96451 0.0
C861 C 0.9624 0.67891 0.97782 0.0
C862 C 0.87417 0.69468 0.01835 0.0
C863 C 0.92309 0.65896 0.93642 0.0
H864 H 0.77491 0.58989 0.94241 0.0
H865 H 0.82957 0.71207 0.91911 0.0
H866 H 0.8514 0.5894 0.96969 0.0
H867 H 0.8371 0.60571 0.99805 0.0
H868 H 0.79955 0.56895 0.97705 0.0
H869 H 0.88784 0.76213 0.93912 0.0
H870 H 0.90358 0.75141 0.96952 0.0
H871 H 0.92144 0.74292 0.93961 0.0
H872 H 0.94474 0.70678 0.03658 0.0
H873 H 0.98467 0.67512 0.96765 0.0
H874 H 0.84527 0.66654 0.01814 0.0
H875 H 0.86956 0.7175 0.00863 0.0
H876 H 0.88292 0.70379 0.03883 0.0
H877 H 0.89607 0.62942 0.93414 0.0
H878 H 0.94894 0.65716 0.92899 0.0
H879 H 0.91913 0.68018 0.92416 0.0
C880 C 0.28968 0.96116 0.14353 0.0
C881 C 0.28339 0.96815 0.16935 0.0
C882 C 0.26228 0.92659 0.13041 0.0
C883 C 0.22777 0.89777 0.14346 0.0
C884 C 0.22148 0.90422 0.16969 0.0
C885 C 0.24926 0.9395 0.18229 0.0
C886 C 0.27014 0.92112 0.10242 0.0
C887 C 0.18539 0.87394 0.18437 0.0
C888 C 0.14574 0.82778 0.09758 0.0
C889 C 0.15437 0.797 0.09501 0.0
C890 C 0.16793 0.85987 0.11449 0.0
C891 C 0.19899 0.86081 0.12944 0.0
C892 C 0.20567 0.82826 0.12836 0.0
C893 C 0.18356 0.79699 0.11101 0.0
C894 C 0.16003 0.8941 0.11489 0.0
C895 C 0.23794 0.82761 0.14425 0.0
H896 H 0.3158 0.98319 0.13328 0.0
H897 H 0.24414 0.9447 0.20221 0.0
H898 H 0.27241 0.89393 0.10041 0.0
H899 H 0.24506 0.91715 0.09005 0.0
H900 H 0.29793 0.94674 0.0949 0.0
H901 H 0.18514 0.88302 0.20478 0.0
H902 H 0.15804 0.86942 0.17458 0.0
H903 H 0.18434 0.84491 0.18438 0.0
H904 H 0.12342 0.82813 0.08516 0.0
H905 H 0.19014 0.77309 0.10931 0.0
H906 H 0.18488 0.92016 0.10518 0.0
H907 H 0.15848 0.90292 0.13513 0.0
H908 H 0.13199 0.88681 0.10475 0.0
H909 H 0.26738 0.84965 0.13634 0.0
H910 H 0.23561 0.79795 0.14404 0.0
H911 H 0.23675 0.83602 0.16467 0.0
C912 C 0.32463 0.14593 0.26247 0.0
C913 C 0.36409 0.15489 0.25956 0.0
C914 C 0.31481 0.16799 0.27953 0.0
C915 C 0.34509 0.19928 0.2943 0.0
C916 C 0.38442 0.20635 0.29283 0.0
C917 C 0.39349 0.18435 0.27534 0.0
C918 C 0.27257 0.15969 0.28033 0.0
C919 C 0.41751 0.23888 0.3085 0.0
C920 C 0.33476 0.28941 0.30892 0.0
C921 C 0.32198 0.28304 0.33485 0.0
C922 C 0.34197 0.26221 0.2956 0.0
C923 C 0.33685 0.22784 0.30854 0.0
C924 C 0.32462 0.22148 0.33487 0.0
C925 C 0.31705 0.24904 0.34768 0.0
C926 C 0.35473 0.27013 0.2675 0.0
C927 C 0.31945 0.18554 0.34943 0.0
H928 H 0.30182 0.12339 0.25023 0.0
H929 H 0.42401 0.19119 0.27337 0.0
H930 H 0.26254 0.15803 0.30068 0.0
H931 H 0.27092 0.1844 0.27078 0.0
H932 H 0.25179 0.13157 0.27026 0.0
H933 H 0.44501 0.2369 0.30797 0.0
H934 H 0.42444 0.26822 0.30065 0.0
H935 H 0.4083 0.23763 0.32902 0.0
H936 H 0.33842 0.31542 0.29875 0.0
H937 H 0.30712 0.24387 0.36769 0.0
H938 H 0.33351 0.24492 0.25524 0.0
H939 H 0.38428 0.27271 0.26518 0.0
H940 H 0.35647 0.29777 0.26009 0.0
H941 H 0.29658 0.15806 0.33976 0.0
H942 H 0.31049 0.18523 0.36994 0.0
H943 H 0.34759 0.18481 0.34913 0.0
C944 C 0.18519 0.32271 0.42889 0.0
C945 C 0.21572 0.36219 0.42608 0.0
C946 C 0.15347 0.31275 0.44613 0.0
C947 C 0.15269 0.3429 0.46117 0.0
C948 C 0.18505 0.38224 0.45981 0.0
C949 C 0.21592 0.39145 0.44213 0.0
C950 C 0.11942 0.27052 0.4468 0.0
C951 C 0.18587 0.41519 0.47578 0.0
C952 C 0.05254 0.33288 0.47628 0.0
C953 C 0.04619 0.31984 0.50215 0.0
C954 C 0.08682 0.34006 0.46281 0.0
C955 C 0.116 0.33462 0.47555 0.0
C956 C 0.11019 0.32209 0.50182 0.0
C957 C 0.07519 0.31457 0.51477 0.0
C958 C 0.0916 0.35315 0.43479 0.0
C959 C 0.14089 0.31656 0.51616 0.0
H960 H 0.18472 0.30001 0.41644 0.0
H961 H 0.23966 0.42199 0.44023 0.0
H962 H 0.11111 0.26028 0.46711 0.0
H963 H 0.09308 0.26905 0.43737 0.0
H964 H 0.12663 0.24979 0.43654 0.0
H965 H 0.21543 0.44263 0.47531 0.0
H966 H 0.16354 0.42237 0.46813 0.0
H967 H 0.17797 0.40572 0.49626 0.0
H968 H 0.03024 0.33681 0.46627 0.0
H969 H 0.07047 0.30443 0.53473 0.0
H970 H 0.09546 0.33203 0.42235 0.0
H971 H 0.11862 0.3827 0.43256 0.0
H972 H 0.06573 0.35506 0.42753 0.0
H973 H 0.14535 0.29377 0.50627 0.0
H974 H 0.13227 0.30732 0.53664 0.0
H975 H 0.16983 0.34466 0.51596 0.0
C976 C 0.87009 0.18383 0.5967 0.0
C977 C 0.86118 0.21438 0.59388 0.0
C978 C 0.84827 0.15207 0.6139 0.0
C979 C 0.81729 0.15124 0.6289 0.0
C980 C 0.81032 0.18359 0.62753 0.0
C981 C 0.83207 0.21452 0.60991 0.0
C982 C 0.85647 0.11805 0.6146 0.0
C983 C 0.77812 0.18435 0.64345 0.0
C984 C 0.72707 0.05106 0.64402 0.0
C985 C 0.73368 0.04479 0.66991 0.0
C986 C 0.75425 0.08531 0.63053 0.0
C987 C 0.78886 0.11454 0.64328 0.0
C988 C 0.79551 0.10878 0.66957 0.0
C989 C 0.76795 0.07381 0.68255 0.0
C990 C 0.74601 0.09003 0.60247 0.0
C991 C 0.83172 0.13952 0.68393 0.0
H992 H 0.89236 0.1834 0.58428 0.0
H993 H 0.82528 0.23826 0.60802 0.0
H994 H 0.85834 0.10973 0.63493 0.0
H995 H 0.83161 0.09168 0.60515 0.0
H996 H 0.88444 0.1253 0.60439 0.0
H997 H 0.78019 0.21388 0.64294 0.0
H998 H 0.74864 0.16194 0.63578 0.0
H999 H 0.77968 0.1765 0.66395 0.0
H1000 H 0.70085 0.02874 0.63399 0.0
H1001 H 0.77332 0.06916 0.70253 0.0
H1002 H 0.77102 0.09388 0.59009 0.0
H1003 H 0.74349 0.11704 0.60019 0.0
H1004 H 0.71824 0.06411 0.5952 0.0
H1005 H 0.859 0.14405 0.67404 0.0
H1006 H 0.83235 0.1309 0.70441 0.0
H1007 H 0.83254 0.16844 0.68374 0.0
C1008 C 0.18945 0.34512 0.30818 0.0
C1009 C 0.23026 0.36903 0.31249 0.0
C1010 C 0.17245 0.34644 0.28441 0.0
C1011 C 0.19698 0.37224 0.26452 0.0
C1012 C 0.23816 0.39685 0.26907 0.0
C1013 C 0.25436 0.39449 0.29285 0.0
C1014 C 0.12855 0.31905 0.28021 0.0
C1015 C 0.26524 0.42518 0.2487 0.0
C1016 C 0.16023 0.34384 0.1951 0.0
C1017 C 0.14254 0.367 0.19064 0.0
C1018 C 0.17894 0.34597 0.21885 0.0
C1019 C 0.1798 0.37183 0.23857 0.0
C1020 C 0.16243 0.39567 0.23386 0.0
C1021 C 0.14349 0.3925 0.21011 0.0
C1022 C 0.19633 0.31939 0.22322 0.0
C1023 C 0.1632 0.42402 0.25404 0.0
H1024 H 0.17102 0.32469 0.32321 0.0
H1025 H 0.28619 0.41164 0.29577 0.0
H1026 H 0.12387 0.29821 0.2641 0.0
H1027 H 0.11348 0.30151 0.29784 0.0
H1028 H 0.1142 0.33638 0.2745 0.0
H1029 H 0.29655 0.4426 0.25535 0.0
H1030 H 0.26408 0.40874 0.23084 0.0
H1031 H 0.25477 0.446 0.24365 0.0
H1032 H 0.15856 0.32337 0.1802 0.0
H1033 H 0.12822 0.40905 0.20709 0.0
H1034 H 0.1806 0.29867 0.23947 0.0
H1035 H 0.22802 0.33736 0.22881 0.0
H1036 H 0.19408 0.30171 0.2057 0.0
H1037 H 0.14822 0.40769 0.272 0.0
H1038 H 0.14874 0.44083 0.24728 0.0
H1039 H 0.19441 0.44538 0.25898 0.0
C1040 C 0.8508 0.18861 0.47606 0.0
C1041 C 0.86812 0.22946 0.48041 0.0
C1042 C 0.83215 0.17173 0.45234 0.0
C1043 C 0.83093 0.19643 0.43256 0.0
C1044 C 0.84788 0.23765 0.43716 0.0
C1045 C 0.86682 0.25373 0.46087 0.0
C1046 C 0.81526 0.12777 0.44808 0.0
C1047 C 0.8467 0.26489 0.4169 0.0
C1048 C 0.82186 0.15966 0.3631 0.0
C1049 C 0.78099 0.14206 0.35879 0.0
C1050 C 0.83868 0.17837 0.38681 0.0
C1051 C 0.81392 0.17936 0.40663 0.0
C1052 C 0.77267 0.16213 0.40206 0.0
C1053 C 0.75665 0.14314 0.37835 0.0
C1054 C 0.88267 0.19557 0.39104 0.0
C1055 C 0.74534 0.16307 0.42235 0.0
H1056 H 0.85275 0.17004 0.49101 0.0
H1057 H 0.88182 0.28557 0.46381 0.0
H1058 H 0.78354 0.11363 0.44247 0.0
H1059 H 0.83119 0.12299 0.43187 0.0
H1060 H 0.81773 0.11259 0.46564 0.0
H1061 H 0.86071 0.29618 0.42363 0.0
H1062 H 0.86193 0.2638 0.399 0.0
H1063 H 0.81542 0.25454 0.41186 0.0
H1064 H 0.84049 0.15788 0.34812 0.0
H1065 H 0.7248 0.12793 0.37544 0.0
H1066 H 0.88764 0.17972 0.40722 0.0
H1067 H 0.89661 0.22727 0.39667 0.0
H1068 H 0.89792 0.19326 0.37345 0.0
H1069 H 0.74657 0.14785 0.44023 0.0
H1070 H 0.71405 0.14888 0.41564 0.0
H1071 H 0.7555 0.19431 0.42743 0.0
C1072 C 0.669 0.84932 0.64396 0.0
C1073 C 0.64553 0.86667 0.64837 0.0
C1074 C 0.66713 0.83067 0.62023 0.0
C1075 C 0.64116 0.82947 0.60049 0.0
C1076 C 0.61695 0.84644 0.60515 0.0
C1077 C 0.61991 0.86539 0.62887 0.0
C1078 C 0.69414 0.81376 0.61589 0.0
C1079 C 0.58847 0.84528 0.58494 0.0
C1080 C 0.66854 0.82059 0.53092 0.0
C1081 C 0.64518 0.77972 0.52654 0.0
C1082 C 0.66682 0.83734 0.5547 0.0
C1083 C 0.64112 0.8125 0.57452 0.0
C1084 C 0.61704 0.77126 0.5699 0.0
C1085 C 0.61985 0.75531 0.54613 0.0
C1086 C 0.69369 0.88132 0.55897 0.0
C1087 C 0.58883 0.74386 0.59021 0.0
H1088 H 0.68956 0.85126 0.65888 0.0
H1089 H 0.60312 0.88041 0.63185 0.0
H1090 H 0.67652 0.78205 0.61025 0.0
H1091 H 0.71485 0.82973 0.59968 0.0
H1092 H 0.71181 0.81618 0.63343 0.0
H1093 H 0.57122 0.85927 0.59173 0.0
H1094 H 0.60477 0.86057 0.56704 0.0
H1095 H 0.56752 0.814 0.57988 0.0
H1096 H 0.68889 0.83927 0.51593 0.0
H1097 H 0.60315 0.72346 0.54317 0.0
H1098 H 0.71452 0.88623 0.57513 0.0
H1099 H 0.67598 0.89528 0.56466 0.0
H1100 H 0.71124 0.89661 0.54139 0.0
H1101 H 0.6053 0.74515 0.60808 0.0
H1102 H 0.57177 0.71256 0.58349 0.0
H1103 H 0.5677 0.75393 0.5953 0.0
C1104 C 0.86914 0.61686 0.71276 0.0
C1105 C 0.87032 0.64241 0.69325 0.0
C1106 C 0.85032 0.61398 0.73652 0.0
C1107 C 0.83337 0.63822 0.7412 0.0
C1108 C 0.8345 0.66414 0.72145 0.0
C1109 C 0.85302 0.66593 0.69769 0.0
C1110 C 0.84923 0.58554 0.75674 0.0
C1111 C 0.81761 0.69117 0.7258 0.0
C1112 C 0.75922 0.61694 0.79552 0.0
C1113 C 0.7836 0.64235 0.8151 0.0
C1114 C 0.77519 0.61408 0.77178 0.0
C1115 C 0.81642 0.63818 0.76717 0.0
C1116 C 0.84123 0.66394 0.78699 0.0
C1117 C 0.82446 0.66572 0.81074 0.0
C1118 C 0.74782 0.58581 0.75148 0.0
C1119 C 0.8852 0.69083 0.78272 0.0
H1120 H 0.88412 0.60003 0.70976 0.0
H1121 H 0.85489 0.68644 0.68276 0.0
H1122 H 0.86447 0.60187 0.77465 0.0
H1123 H 0.81797 0.56453 0.76179 0.0
H1124 H 0.86328 0.56835 0.74997 0.0
H1125 H 0.78591 0.67354 0.73144 0.0
H1126 H 0.83357 0.71187 0.74202 0.0
H1127 H 0.82003 0.70886 0.70827 0.0
H1128 H 0.72739 0.60023 0.79847 0.0
H1129 H 0.84312 0.68612 0.82572 0.0
H1130 H 0.75796 0.56474 0.74637 0.0
H1131 H 0.74903 0.60228 0.73362 0.0
H1132 H 0.71654 0.56867 0.75821 0.0
H1133 H 0.89915 0.67312 0.77703 0.0
H1134 H 0.90048 0.70837 0.80031 0.0
H1135 H 0.8901 0.71167 0.76657 0.0
C1136 C 0.25841 0.86697 0.87946 0.0
C1137 C 0.23402 0.86788 0.85986 0.0
C1138 C 0.24245 0.84823 0.90324 0.0
C1139 C 0.20123 0.8311 0.90785 0.0
C1140 C 0.17642 0.83197 0.88802 0.0
C1141 C 0.19317 0.85041 0.86423 0.0
C1142 C 0.26982 0.8474 0.92355 0.0
C1143 C 0.13246 0.8149 0.89229 0.0
C1144 C 0.14826 0.75704 0.96221 0.0
C1145 C 0.14704 0.78143 0.9817 0.0
C1146 C 0.16722 0.77299 0.9385 0.0
C1147 C 0.18426 0.8142 0.93382 0.0
C1148 C 0.18311 0.83902 0.95355 0.0
C1149 C 0.16445 0.82227 0.97728 0.0
C1150 C 0.16832 0.74561 0.9183 0.0
C1151 C 0.20008 0.88296 0.9492 0.0
H1152 H 0.29024 0.8821 0.8765 0.0
H1153 H 0.1745 0.85206 0.84924 0.0
H1154 H 0.26861 0.86269 0.9414 0.0
H1155 H 0.25968 0.81619 0.92869 0.0
H1156 H 0.3011 0.86156 0.91682 0.0
H1157 H 0.11719 0.81718 0.87471 0.0
H1158 H 0.11846 0.78322 0.89797 0.0
H1159 H 0.12759 0.83085 0.90845 0.0
H1160 H 0.13319 0.72521 0.9652 0.0
H1161 H 0.16257 0.84094 0.99219 0.0
H1162 H 0.19958 0.75591 0.91322 0.0
H1163 H 0.15302 0.7466 0.9004 0.0
H1164 H 0.15432 0.71436 0.9251 0.0
H1165 H 0.23177 0.89702 0.94357 0.0
H1166 H 0.19769 0.89827 0.96674 0.0
H1167 H 0.18413 0.88771 0.93299 0.0
C1168 C 0.34708 0.16311 0.14177 0.0
C1169 C 0.3708 0.14603 0.14616 0.0
C1170 C 0.34858 0.18144 0.11798 0.0
C1171 C 0.37442 0.18261 0.09816 0.0
C1172 C 0.39886 0.16588 0.1028 0.0
C1173 C 0.39626 0.14723 0.12658 0.0
C1174 C 0.32132 0.19807 0.11368 0.0
C1175 C 0.42723 0.16703 0.0825 0.0
C1176 C 0.34638 0.19095 0.02866 0.0
C1177 C 0.36952 0.23181 0.02422 0.0
C1178 C 0.34839 0.17437 0.05244 0.0
C1179 C 0.37417 0.19938 0.07218 0.0
C1180 C 0.39803 0.24062 0.06748 0.0
C1181 C 0.39492 0.2564 0.04372 0.0
C1182 C 0.32174 0.13038 0.05681 0.0
C1183 C 0.42632 0.26821 0.08769 0.0
H1184 H 0.32664 0.16122 0.15676 0.0
H1185 H 0.41323 0.13239 0.12955 0.0
H1186 H 0.33875 0.22977 0.10798 0.0
H1187 H 0.30057 0.18194 0.09752 0.0
H1188 H 0.3037 0.19562 0.13126 0.0
H1189 H 0.44461 0.15317 0.08924 0.0
H1190 H 0.41082 0.15162 0.06465 0.0
H1191 H 0.44806 0.19831 0.07736 0.0
H1192 H 0.32597 0.17212 0.01374 0.0
H1193 H 0.41144 0.28823 0.04071 0.0
H1194 H 0.30098 0.12544 0.07302 0.0
H1195 H 0.33962 0.1166 0.06246 0.0
H1196 H 0.30412 0.11494 0.03928 0.0
H1197 H 0.40991 0.26699 0.10558 0.0
H1198 H 0.44325 0.29948 0.08089 0.0
H1199 H 0.44755 0.25828 0.09277 0.0
loop_
_geom_bond_atom_site_label_1
_geom_bond_atom_site_label_2
_geom_bond_distance
_geom_bond_site_symmetry_2
_ccdc_geom_bond_type
Mn0 O5 2.095 . S
Mn0 O15 2.162 . S
Mn0 O16 2.297 . S
Mn0 O24 2.385 . S
Mn0 O25 2.209 . S
Mn0 O26 2.094 . S
Mn1 O6 2.121 . S
Mn1 N8 2.257 . S
Mn1 N17 2.282 . S
Mn1 O25 2.215 . S
Mn1 O27 2.117 . S
C2 O24 1.234 . S
C2 O25 1.283 . S
C3 O15 1.281 . S
C3 O16 1.236 . S
C4 O26 1.240 . S
C4 O27 1.264 . S
O5 Mn0 2.095 . S
O5 C14 1.250 . S
O6 Mn1 2.121 . S
O6 C14 1.258 . S
C7 N8 1.326 . S
C7 C11 1.460 . S
C7 H13 0.929 . S
N8 Mn1 2.257 . S
N8 C7 1.326 . S
N8 C12 1.362 . S
C9 C10 1.258 . S
C9 C12 1.431 . S
C9 C29 1.449 . S
C10 C9 1.258 . S
C10 C11 1.477 . S
C10 H30 0.931 . S
C11 C7 1.460 . S
C11 C10 1.477 . S
C11 H31 0.930 . S
C12 N8 1.362 . S
C12 C9 1.431 . S
C12 C22 1.476 . S
H13 C7 0.929 . S
C14 O5 1.250 . S
C14 O6 1.258 . S
O15 Mn0 2.162 . S
O15 C3 1.281 . S
O16 Mn0 2.297 . S
O16 C3 1.236 . S
N17 Mn1 2.282 . S
N17 C18 1.328 . S
N17 C22 1.318 . S
C18 N17 1.328 . S
C18 C19 1.457 . S
C18 H23 0.929 . S
C19 C18 1.457 . S
C19 C20 1.291 . S
C19 H32 0.931 . S
C20 C19 1.291 . S
C20 C21 1.373 . S
C20 H33 0.929 . S
C21 C20 1.373 . S
C21 C22 1.396 . S
C21 C28 1.403 . S
C22 C12 1.476 . S
C22 N17 1.318 . S
C22 C21 1.396 . S
H23 C18 0.929 . S
O24 Mn0 2.385 . S
O24 C2 1.234 . S
O25 Mn0 2.209 . S
O25 Mn1 2.215 . S
O25 C2 1.283 . S
O26 Mn0 2.094 . S
O26 C4 1.240 . S
O27 Mn1 2.117 . S
O27 C4 1.264 . S
C28 C21 1.403 . S
C28 C29 1.399 . S
C28 H34 0.929 . S
C29 C9 1.449 . S
C29 C28 1.399 . S
C29 H35 0.930 . S
H30 C10 0.931 . S
H31 C11 0.930 . S
H32 C19 0.931 . S
H33 C20 0.929 . S
H34 C28 0.929 . S
H35 C29 0.930 . S
Mn36 O41 2.095 . S
Mn36 O51 2.162 . S
Mn36 O52 2.297 . S
Mn36 O60 2.385 . S
Mn36 O61 2.209 . S
Mn36 O62 2.094 . S
Mn37 O42 2.121 . S
Mn37 N44 2.257 . S
Mn37 N53 2.282 . S
Mn37 O61 2.215 . S
Mn37 O63 2.117 . S
C38 O60 1.234 . S
C38 O61 1.283 . S
C39 O51 1.281 . S
C39 O52 1.236 . S
C40 O62 1.240 . S
C40 O63 1.264 . S
O41 Mn36 2.095 . S
O41 C50 1.250 . S
O42 Mn37 2.121 . S
O42 C50 1.258 . S
C43 N44 1.326 . S
C43 C47 1.460 . S
C43 H49 0.929 . S
N44 Mn37 2.257 . S
N44 C43 1.326 . S
N44 C48 1.362 . S
C45 C46 1.258 . S
C45 C48 1.431 . S
C45 C65 1.449 . S
C46 C45 1.258 . S
C46 C47 1.477 . S
C46 H66 0.931 . S
C47 C43 1.460 . S
C47 C46 1.477 . S
C47 H67 0.930 . S
C48 N44 1.362 . S
C48 C45 1.431 . S
C48 C58 1.476 . S
H49 C43 0.929 . S
C50 O41 1.250 . S
C50 O42 1.258 . S
O51 Mn36 2.162 . S
O51 C39 1.281 . S
O52 Mn36 2.297 . S
O52 C39 1.236 . S
N53 Mn37 2.282 . S
N53 C54 1.328 . S
N53 C58 1.318 . S
C54 N53 1.328 . S
C54 C55 1.457 . S
C54 H59 0.929 . S
C55 C54 1.457 . S
C55 C56 1.291 . S
C55 H68 0.931 . S
C56 C55 1.291 . S
C56 C57 1.373 . S
C56 H69 0.929 . S
C57 C56 1.373 . S
C57 C58 1.396 . S
C57 C64 1.403 . S
C58 C48 1.476 . S
C58 N53 1.318 . S
C58 C57 1.396 . S
H59 C54 0.929 . S
O60 Mn36 2.385 . S
O60 C38 1.234 . S
O61 Mn36 2.209 . S
O61 Mn37 2.215 . S
O61 C38 1.283 . S
O62 Mn36 2.094 . S
O62 C40 1.240 . S
O63 Mn37 2.117 . S
O63 C40 1.264 . S
C64 C57 1.403 . S
C64 C65 1.399 . S
C64 H70 0.929 . S
C65 C45 1.449 . S
C65 C64 1.399 . S
C65 H71 0.930 . S
H66 C46 0.931 . S
H67 C47 0.930 . S
H68 C55 0.931 . S
H69 C56 0.929 . S
H70 C64 0.929 . S
H71 C65 0.930 . S
Mn72 O77 2.095 . S
Mn72 O87 2.162 . S
Mn72 O88 2.297 . S
Mn72 O96 2.385 . S
Mn72 O97 2.209 . S
Mn72 O98 2.094 . S
Mn73 O78 2.121 . S
Mn73 N80 2.257 . S
Mn73 N89 2.282 . S
Mn73 O97 2.215 . S
Mn73 O99 2.117 . S
C74 O96 1.234 . S
C74 O97 1.283 . S
C75 O87 1.281 . S
C75 O88 1.236 . S
C76 O98 1.240 . S
C76 O99 1.264 . S
O77 Mn72 2.095 . S
O77 C86 1.250 . S
O78 Mn73 2.121 . S
O78 C86 1.258 . S
C79 N80 1.326 . S
C79 C83 1.460 . S
C79 H85 0.929 . S
N80 Mn73 2.257 . S
N80 C79 1.326 . S
N80 C84 1.362 . S
C81 C82 1.258 . S
C81 C84 1.431 . S
C81 C101 1.449 . S
C82 C81 1.258 . S
C82 C83 1.477 . S
C82 H102 0.931 . S
C83 C79 1.460 . S
C83 C82 1.477 . S
C83 H103 0.930 . S
C84 N80 1.362 . S
C84 C81 1.431 . S
C84 C94 1.476 . S
H85 C79 0.929 . S
C86 O77 1.250 . S
C86 O78 1.258 . S
O87 Mn72 2.162 . S
O87 C75 1.281 . S
O88 Mn72 2.297 . S
O88 C75 1.236 . S
N89 Mn73 2.282 . S
N89 C90 1.328 . S
N89 C94 1.318 . S
C90 N89 1.328 . S
C90 C91 1.457 . S
C90 H95 0.929 . S
C91 C90 1.457 . S
C91 C92 1.291 . S
C91 H104 0.931 . S
C92 C91 1.291 . S
C92 C93 1.373 . S
C92 H105 0.929 . S
C93 C92 1.373 . S
C93 C94 1.396 . S
C93 C100 1.403 . S
C94 C84 1.476 . S
C94 N89 1.318 . S
C94 C93 1.396 . S
H95 C90 0.929 . S
O96 Mn72 2.385 . S
O96 C74 1.234 . S
O97 Mn72 2.209 . S
O97 Mn73 2.215 . S
O97 C74 1.283 . S
O98 Mn72 2.094 . S
O98 C76 1.240 . S
O99 Mn73 2.117 . S
O99 C76 1.264 . S
C100 C93 1.403 . S
C100 C101 1.399 . S
C100 H106 0.929 . S
C101 C81 1.449 . S
C101 C100 1.399 . S
C101 H107 0.930 . S
H102 C82 0.931 . S
H103 C83 0.930 . S
H104 C91 0.931 . S
H105 C92 0.929 . S
H106 C100 0.929 . S
H107 C101 0.930 . S
Mn108 O113 2.095 . S
Mn108 O123 2.162 . S
Mn108 O124 2.297 . S
Mn108 O132 2.385 . S
Mn108 O133 2.209 . S
Mn108 O134 2.094 . S
Mn109 O114 2.121 . S
Mn109 N116 2.257 . S
Mn109 N125 2.282 . S
Mn109 O133 2.215 . S
Mn109 O135 2.117 . S
C110 O132 1.234 . S
C110 O133 1.283 . S
C111 O123 1.281 . S
C111 O124 1.236 . S
C112 O134 1.240 . S
C112 O135 1.264 . S
O113 Mn108 2.095 . S
O113 C122 1.250 . S
O114 Mn109 2.121 . S
O114 C122 1.258 . S
C115 N116 1.326 . S
C115 C119 1.460 . S
C115 H121 0.929 . S
N116 Mn109 2.257 . S
N116 C115 1.326 . S
N116 C120 1.362 . S
C117 C118 1.258 . S
C117 C120 1.431 . S
C117 C137 1.449 . S
C118 C117 1.258 . S
C118 C119 1.477 . S
C118 H138 0.931 . S
C119 C115 1.460 . S
C119 C118 1.477 . S
C119 H139 0.930 . S
C120 N116 1.362 . S
C120 C117 1.431 . S
C120 C130 1.476 . S
H121 C115 0.929 . S
C122 O113 1.250 . S
C122 O114 1.258 . S
O123 Mn108 2.162 . S
O123 C111 1.281 . S
O124 Mn108 2.297 . S
O124 C111 1.236 . S
N125 Mn109 2.282 . S
N125 C126 1.328 . S
N125 C130 1.318 . S
C126 N125 1.328 . S
C126 C127 1.457 . S
C126 H131 0.929 . S
C127 C126 1.457 . S
C127 C128 1.291 . S
C127 H140 0.931 . S
C128 C127 1.291 . S
C128 C129 1.373 . S
C128 H141 0.929 . S
C129 C128 1.373 . S
C129 C130 1.396 . S
C129 C136 1.403 . S
C130 C120 1.476 . S
C130 N125 1.318 . S
C130 C129 1.396 . S
H131 C126 0.929 . S
O132 Mn108 2.385 . S
O132 C110 1.234 . S
O133 Mn108 2.209 . S
O133 Mn109 2.215 . S
O133 C110 1.283 . S
O134 Mn108 2.094 . S
O134 C112 1.240 . S
O135 Mn109 2.117 . S
O135 C112 1.264 . S
C136 C129 1.403 . S
C136 C137 1.399 . S
C136 H142 0.929 . S
C137 C117 1.449 . S
C137 C136 1.399 . S
C137 H143 0.930 . S
H138 C118 0.931 . S
H139 C119 0.930 . S
H140 C127 0.931 . S
H141 C128 0.929 . S
H142 C136 0.929 . S
H143 C137 0.930 . S
Mn144 O149 2.095 . S
Mn144 O159 2.162 . S
Mn144 O160 2.297 . S
Mn144 O168 2.385 . S
Mn144 O169 2.209 . S
Mn144 O170 2.094 . S
Mn145 O150 2.121 . S
Mn145 N152 2.257 . S
Mn145 N161 2.282 . S
Mn145 O169 2.215 . S
Mn145 O171 2.117 . S
C146 O168 1.234 . S
C146 O169 1.283 . S
C147 O159 1.281 . S
C147 O160 1.236 . S
C148 O170 1.240 . S
C148 O171 1.264 . S
O149 Mn144 2.095 . S
O149 C158 1.250 . S
O150 Mn145 2.121 . S
O150 C158 1.258 . S
C151 N152 1.326 . S
C151 C155 1.460 . S
C151 H157 0.929 . S
N152 Mn145 2.257 . S
N152 C151 1.326 . S
N152 C156 1.362 . S
C153 C154 1.258 . S
C153 C156 1.431 . S
C153 C173 1.449 . S
C154 C153 1.258 . S
C154 C155 1.477 . S
C154 H174 0.931 . S
C155 C151 1.460 . S
C155 C154 1.477 . S
C155 H175 0.930 . S
C156 N152 1.362 . S
C156 C153 1.431 . S
C156 C166 1.476 . S
H157 C151 0.929 . S
C158 O149 1.250 . S
C158 O150 1.258 . S
O159 Mn144 2.162 . S
O159 C147 1.281 . S
O160 Mn144 2.297 . S
O160 C147 1.236 . S
N161 Mn145 2.282 . S
N161 C162 1.328 . S
N161 C166 1.318 . S
C162 N161 1.328 . S
C162 C163 1.457 . S
C162 H167 0.929 . S
C163 C162 1.457 . S
C163 C164 1.291 . S
C163 H176 0.931 . S
C164 C163 1.291 . S
C164 C165 1.373 . S
C164 H177 0.929 . S
C165 C164 1.373 . S
C165 C166 1.396 . S
C165 C172 1.403 . S
C166 C156 1.476 . S
C166 N161 1.318 . S
C166 C165 1.396 . S
H167 C162 0.929 . S
O168 Mn144 2.385 . S
O168 C146 1.234 . S
O169 Mn144 2.209 . S
O169 Mn145 2.215 . S
O169 C146 1.283 . S
O170 Mn144 2.094 . S
O170 C148 1.240 . S
O171 Mn145 2.117 . S
O171 C148 1.264 . S
C172 C165 1.403 . S
C172 C173 1.399 . S
C172 H178 0.929 . S
C173 C153 1.449 . S
C173 C172 1.399 . S
C173 H179 0.930 . S
H174 C154 0.931 . S
H175 C155 0.930 . S
H176 C163 0.931 . S
H177 C164 0.929 . S
H178 C172 0.929 . S
H179 C173 0.930 . S
Mn180 O185 2.095 . S
Mn180 O195 2.162 . S
Mn180 O196 2.297 . S
Mn180 O204 2.368 1_556 S
Mn180 O205 2.209 . S
Mn180 O206 2.094 . S
Mn181 O186 2.121 . S
Mn181 N188 2.257 . S
Mn181 N197 2.282 . S
Mn181 O205 2.215 . S
Mn181 O207 2.117 . S
C182 O204 1.239 . S
C182 O205 1.283 1_554 S
C183 O195 1.281 . S
C183 O196 1.236 . S
C184 O206 1.240 . S
C184 O207 1.264 . S
O185 Mn180 2.095 . S
O185 C194 1.250 . S
O186 Mn181 2.121 . S
O186 C194 1.258 . S
C187 N188 1.326 . S
C187 C191 1.460 1_556 S
C187 H193 0.929 . S
N188 Mn181 2.257 . S
N188 C187 1.326 . S
N188 C192 1.362 1_556 S
C189 C190 1.258 . S
C189 C192 1.431 . S
C189 C209 1.449 . S
C190 C189 1.258 . S
C190 C191 1.477 . S
C190 H210 0.931 . S
C191 C187 1.460 1_554 S
C191 C190 1.477 . S
C191 H211 0.930 . S
C192 N188 1.362 1_554 S
C192 C189 1.431 . S
C192 C202 1.479 . S
H193 C187 0.929 . S
C194 O185 1.250 . S
C194 O186 1.258 . S
O195 Mn180 2.162 . S
O195 C183 1.281 . S
O196 Mn180 2.297 . S
O196 C183 1.236 . S
N197 Mn181 2.282 . S
N197 C198 1.328 . S
N197 C202 1.304 1_556 S
C198 N197 1.328 . S
C198 C199 1.457 . S
C198 H203 0.929 . S
C199 C198 1.457 . S
C199 C200 1.291 1_556 S
C199 H212 0.931 . S
C200 C199 1.291 1_554 S
C200 C201 1.373 . S
C200 H213 0.929 . S
C201 C200 1.373 . S
C201 C202 1.406 . S
C201 C208 1.403 . S
C202 C192 1.479 . S
C202 N197 1.304 1_554 S
C202 C201 1.406 . S
H203 C198 0.929 . S
O204 Mn180 2.368 1_554 S
O204 C182 1.239 . S
O205 Mn180 2.209 . S
O205 Mn181 2.215 . S
O205 C182 1.283 1_556 S
O206 Mn180 2.094 . S
O206 C184 1.240 . S
O207 Mn181 2.117 . S
O207 C184 1.264 . S
C208 C201 1.403 . S
C208 C209 1.399 . S
C208 H214 0.929 . S
C209 C189 1.449 . S
C209 C208 1.399 . S
C209 H215 0.930 . S
H210 C190 0.931 . S
H211 C191 0.930 . S
H212 C199 0.931 . S
H213 C200 0.929 . S
H214 C208 0.929 . S
H215 C209 0.930 . S
Mn216 O221 2.095 . S
Mn216 O231 2.162 . S
Mn216 O232 2.297 . S
Mn216 O240 2.385 . S
Mn216 O241 2.209 . S
Mn216 O242 2.094 . S
Mn217 O222 2.121 . S
Mn217 N224 2.257 . S
Mn217 N233 2.282 . S
Mn217 O241 2.215 . S
Mn217 O243 2.117 . S
C218 O240 1.234 . S
C218 O241 1.283 . S
C219 O231 1.281 . S
C219 O232 1.236 . S
C220 O242 1.240 . S
C220 O243 1.264 . S
O221 Mn216 2.095 . S
O221 C230 1.250 . S
O222 Mn217 2.121 . S
O222 C230 1.258 . S
C223 N224 1.326 . S
C223 C227 1.460 . S
C223 H229 0.929 . S
N224 Mn217 2.257 . S
N224 C223 1.326 . S
N224 C228 1.362 . S
C225 C226 1.258 . S
C225 C228 1.431 . S
C225 C245 1.449 . S
C226 C225 1.258 . S
C226 C227 1.477 . S
C226 H246 0.931 . S
C227 C223 1.460 . S
C227 C226 1.477 . S
C227 H247 0.930 . S
C228 N224 1.362 . S
C228 C225 1.431 . S
C228 C238 1.476 . S
H229 C223 0.929 . S
C230 O221 1.250 . S
C230 O222 1.258 . S
O231 Mn216 2.162 . S
O231 C219 1.281 . S
O232 Mn216 2.297 . S
O232 C219 1.236 . S
N233 Mn217 2.282 . S
N233 C234 1.328 . S
N233 C238 1.318 . S
C234 N233 1.328 . S
C234 C235 1.457 . S
C234 H239 0.929 . S
C235 C234 1.457 . S
C235 C236 1.291 . S
C235 H248 0.931 . S
C236 C235 1.291 . S
C236 C237 1.373 . S
C236 H249 0.929 . S
C237 C236 1.373 . S
C237 C238 1.396 . S
C237 C244 1.403 . S
C238 C228 1.476 . S
C238 N233 1.318 . S
C238 C237 1.396 . S
H239 C234 0.929 . S
O240 Mn216 2.385 . S
O240 C218 1.234 . S
O241 Mn216 2.209 . S
O241 Mn217 2.215 . S
O241 C218 1.283 . S
O242 Mn216 2.094 . S
O242 C220 1.240 . S
O243 Mn217 2.117 . S
O243 C220 1.264 . S
C244 C237 1.403 . S
C244 C245 1.399 . S
C244 H250 0.929 . S
C245 C225 1.449 . S
C245 C244 1.399 . S
C245 H251 0.930 . S
H246 C226 0.931 . S
H247 C227 0.930 . S
H248 C235 0.931 . S
H249 C236 0.929 . S
H250 C244 0.929 . S
H251 C245 0.930 . S
Mn252 O257 2.095 . S
Mn252 O267 2.162 . S
Mn252 O268 2.297 . S
Mn252 O276 2.385 . S
Mn252 O277 2.209 . S
Mn252 O278 2.094 . S
Mn253 O258 2.121 . S
Mn253 N260 2.257 . S
Mn253 N269 2.282 . S
Mn253 O277 2.215 . S
Mn253 O279 2.117 . S
C254 O276 1.234 . S
C254 O277 1.283 . S
C255 O267 1.281 . S
C255 O268 1.236 . S
C256 O278 1.240 . S
C256 O279 1.264 . S
O257 Mn252 2.095 . S
O257 C266 1.250 . S
O258 Mn253 2.121 . S
O258 C266 1.258 . S
C259 N260 1.326 . S
C259 C263 1.460 . S
C259 H265 0.929 . S
N260 Mn253 2.257 . S
N260 C259 1.326 . S
N260 C264 1.362 . S
C261 C262 1.258 . S
C261 C264 1.431 . S
C261 C281 1.449 . S
C262 C261 1.258 . S
C262 C263 1.477 . S
C262 H282 0.931 . S
C263 C259 1.460 . S
C263 C262 1.477 . S
C263 H283 0.930 . S
C264 N260 1.362 . S
C264 C261 1.431 . S
C264 C274 1.476 . S
H265 C259 0.929 . S
C266 O257 1.250 . S
C266 O258 1.258 . S
O267 Mn252 2.162 . S
O267 C255 1.281 . S
O268 Mn252 2.297 . S
O268 C255 1.236 . S
N269 Mn253 2.282 . S
N269 C270 1.328 . S
N269 C274 1.318 . S
C270 N269 1.328 . S
C270 C271 1.457 . S
C270 H275 0.929 . S
C271 C270 1.457 . S
C271 C272 1.291 . S
C271 H284 0.931 . S
C272 C271 1.291 . S
C272 C273 1.373 . S
C272 H285 0.929 . S
C273 C272 1.373 . S
C273 C274 1.396 . S
C273 C280 1.403 . S
C274 C264 1.476 . S
C274 N269 1.318 . S
C274 C273 1.396 . S
H275 C270 0.929 . S
O276 Mn252 2.385 . S
O276 C254 1.234 . S
O277 Mn252 2.209 . S
O277 Mn253 2.215 . S
O277 C254 1.283 . S
O278 Mn252 2.094 . S
O278 C256 1.240 . S
O279 Mn253 2.117 . S
O279 C256 1.264 . S
C280 C273 1.403 . S
C280 C281 1.399 . S
C280 H286 0.929 . S
C281 C261 1.449 . S
C281 C280 1.399 . S
C281 H287 0.930 . S
H282 C262 0.931 . S
H283 C263 0.930 . S
H284 C271 0.931 . S
H285 C272 0.929 . S
H286 C280 0.929 . S
H287 C281 0.930 . S
Mn288 O293 2.095 . S
Mn288 O303 2.162 . S
Mn288 O304 2.297 . S
Mn288 O312 2.368 1_554 S
Mn288 O313 2.209 . S
Mn288 O314 2.094 . S
Mn289 O294 2.121 . S
Mn289 N296 2.257 . S
Mn289 N305 2.282 . S
Mn289 O313 2.215 . S
Mn289 O315 2.117 . S
C290 O312 1.239 . S
C290 O313 1.283 1_556 S
C291 O303 1.281 . S
C291 O304 1.236 . S
C292 O314 1.240 . S
C292 O315 1.264 . S
O293 Mn288 2.095 . S
O293 C302 1.250 . S
O294 Mn289 2.121 . S
O294 C302 1.258 . S
C295 N296 1.326 . S
C295 C299 1.460 1_554 S
C295 H301 0.929 . S
N296 Mn289 2.257 . S
N296 C295 1.326 . S
N296 C300 1.362 1_554 S
C297 C298 1.258 . S
C297 C300 1.431 . S
C297 C317 1.449 . S
C298 C297 1.258 . S
C298 C299 1.477 . S
C298 H318 0.931 . S
C299 C295 1.460 1_556 S
C299 C298 1.477 . S
C299 H319 0.930 . S
C300 N296 1.362 1_556 S
C300 C297 1.431 . S
C300 C310 1.479 . S
H301 C295 0.929 . S
C302 O293 1.250 . S
C302 O294 1.258 . S
O303 Mn288 2.162 . S
O303 C291 1.281 . S
O304 Mn288 2.297 . S
O304 C291 1.236 . S
N305 Mn289 2.282 . S
N305 C306 1.328 . S
N305 C310 1.304 1_554 S
C306 N305 1.328 . S
C306 C307 1.457 . S
C306 H311 0.929 . S
C307 C306 1.457 . S
C307 C308 1.291 1_554 S
C307 H320 0.931 . S
C308 C307 1.291 1_556 S
C308 C309 1.373 . S
C308 H321 0.929 . S
C309 C308 1.373 . S
C309 C310 1.406 . S
C309 C316 1.403 . S
C310 C300 1.479 . S
C310 N305 1.304 1_556 S
C310 C309 1.406 . S
H311 C306 0.929 . S
O312 Mn288 2.368 1_556 S
O312 C290 1.239 . S
O313 Mn288 2.209 . S
O313 Mn289 2.215 . S
O313 C290 1.283 1_554 S
O314 Mn288 2.094 . S
O314 C292 1.240 . S
O315 Mn289 2.117 . S
O315 C292 1.264 . S
C316 C309 1.403 . S
C316 C317 1.399 . S
C316 H322 0.929 . S
C317 C297 1.449 . S
C317 C316 1.399 . S
C317 H323 0.930 . S
H318 C298 0.931 . S
H319 C299 0.930 . S
H320 C307 0.931 . S
H321 C308 0.929 . S
H322 C316 0.929 . S
H323 C317 0.930 . S
Mn324 O329 2.095 . S
Mn324 O339 2.162 . S
Mn324 O340 2.297 . S
Mn324 O348 2.385 . S
Mn324 O349 2.209 . S
Mn324 O350 2.094 . S
Mn325 O330 2.121 . S
Mn325 N332 2.257 . S
Mn325 N341 2.282 . S
Mn325 O349 2.215 . S
Mn325 O351 2.117 . S
C326 O348 1.234 . S
C326 O349 1.283 . S
C327 O339 1.281 . S
C327 O340 1.236 . S
C328 O350 1.240 . S
C328 O351 1.264 . S
O329 Mn324 2.095 . S
O329 C338 1.250 . S
O330 Mn325 2.121 . S
O330 C338 1.258 . S
C331 N332 1.326 . S
C331 C335 1.460 . S
C331 H337 0.929 . S
N332 Mn325 2.257 . S
N332 C331 1.326 . S
N332 C336 1.362 . S
C333 C334 1.258 . S
C333 C336 1.431 . S
C333 C353 1.449 . S
C334 C333 1.258 . S
C334 C335 1.477 . S
C334 H354 0.931 . S
C335 C331 1.460 . S
C335 C334 1.477 . S
C335 H355 0.930 . S
C336 N332 1.362 . S
C336 C333 1.431 . S
C336 C346 1.476 . S
H337 C331 0.929 . S
C338 O329 1.250 . S
C338 O330 1.258 . S
O339 Mn324 2.162 . S
O339 C327 1.281 . S
O340 Mn324 2.297 . S
O340 C327 1.236 . S
N341 Mn325 2.282 . S
N341 C342 1.328 . S
N341 C346 1.318 . S
C342 N341 1.328 . S
C342 C343 1.457 . S
C342 H347 0.929 . S
C343 C342 1.457 . S
C343 C344 1.291 . S
C343 H356 0.931 . S
C344 C343 1.291 . S
C344 C345 1.373 . S
C344 H357 0.929 . S
C345 C344 1.373 . S
C345 C346 1.396 . S
C345 C352 1.403 . S
C346 C336 1.476 . S
C346 N341 1.318 . S
C346 C345 1.396 . S
H347 C342 0.929 . S
O348 Mn324 2.385 . S
O348 C326 1.234 . S
O349 Mn324 2.209 . S
O349 Mn325 2.215 . S
O349 C326 1.283 . S
O350 Mn324 2.094 . S
O350 C328 1.240 . S
O351 Mn325 2.117 . S
O351 C328 1.264 . S
C352 C345 1.403 . S
C352 C353 1.399 . S
C352 H358 0.929 . S
C353 C333 1.449 . S
C353 C352 1.399 . S
C353 H359 0.930 . S
H354 C334 0.931 . S
H355 C335 0.930 . S
H356 C343 0.931 . S
H357 C344 0.929 . S
H358 C352 0.929 . S
H359 C353 0.930 . S
Mn360 O365 2.095 . S
Mn360 O375 2.162 . S
Mn360 O376 2.297 . S
Mn360 O384 2.385 . S
Mn360 O385 2.209 . S
Mn360 O386 2.094 . S
Mn361 O366 2.121 . S
Mn361 N368 2.257 . S
Mn361 N377 2.282 . S
Mn361 O385 2.215 . S
Mn361 O387 2.117 . S
C362 O384 1.234 . S
C362 O385 1.283 . S
C363 O375 1.281 . S
C363 O376 1.236 . S
C364 O386 1.240 . S
C364 O387 1.264 . S
O365 Mn360 2.095 . S
O365 C374 1.250 . S
O366 Mn361 2.121 . S
O366 C374 1.258 . S
C367 N368 1.326 . S
C367 C371 1.460 . S
C367 H373 0.929 . S
N368 Mn361 2.257 . S
N368 C367 1.326 . S
N368 C372 1.362 . S
C369 C370 1.258 . S
C369 C372 1.431 . S
C369 C389 1.449 . S
C370 C369 1.258 . S
C370 C371 1.477 . S
C370 H390 0.931 . S
C371 C367 1.460 . S
C371 C370 1.477 . S
C371 H391 0.930 . S
C372 N368 1.362 . S
C372 C369 1.431 . S
C372 C382 1.476 . S
H373 C367 0.929 . S
C374 O365 1.250 . S
C374 O366 1.258 . S
O375 Mn360 2.162 . S
O375 C363 1.281 . S
O376 Mn360 2.297 . S
O376 C363 1.236 . S
N377 Mn361 2.282 . S
N377 C378 1.328 . S
N377 C382 1.318 . S
C378 N377 1.328 . S
C378 C379 1.457 . S
C378 H383 0.929 . S
C379 C378 1.457 . S
C379 C380 1.291 . S
C379 H392 0.931 . S
C380 C379 1.291 . S
C380 C381 1.373 . S
C380 H393 0.929 . S
C381 C380 1.373 . S
C381 C382 1.396 . S
C381 C388 1.403 . S
C382 C372 1.476 . S
C382 N377 1.318 . S
C382 C381 1.396 . S
H383 C378 0.929 . S
O384 Mn360 2.385 . S
O384 C362 1.234 . S
O385 Mn360 2.209 . S
O385 Mn361 2.215 . S
O385 C362 1.283 . S
O386 Mn360 2.094 . S
O386 C364 1.240 . S
O387 Mn361 2.117 . S
O387 C364 1.264 . S
C388 C381 1.403 . S
C388 C389 1.399 . S
C388 H394 0.929 . S
C389 C369 1.449 . S
C389 C388 1.399 . S
C389 H395 0.930 . S
H390 C370 0.931 . S
H391 C371 0.930 . S
H392 C379 0.931 . S
H393 C380 0.929 . S
H394 C388 0.929 . S
H395 C389 0.930 . S
Mn396 O401 2.095 . S
Mn396 O411 2.162 . S
Mn396 O412 2.297 . S
Mn396 O420 2.385 . S
Mn396 O421 2.209 . S
Mn396 O422 2.094 . S
Mn397 O402 2.121 . S
Mn397 N404 2.257 . S
Mn397 N413 2.282 . S
Mn397 O421 2.215 . S
Mn397 O423 2.117 . S
C398 O420 1.234 . S
C398 O421 1.283 . S
C399 O411 1.281 . S
C399 O412 1.236 . S
C400 O422 1.240 . S
C400 O423 1.264 . S
O401 Mn396 2.095 . S
O401 C410 1.250 . S
O402 Mn397 2.121 . S
O402 C410 1.258 . S
C403 N404 1.326 . S
C403 C407 1.460 . S
C403 H409 0.929 . S
N404 Mn397 2.257 . S
N404 C403 1.326 . S
N404 C408 1.362 . S
C405 C406 1.258 . S
C405 C408 1.431 . S
C405 C425 1.449 . S
C406 C405 1.258 . S
C406 C407 1.477 . S
C406 H426 0.931 . S
C407 C403 1.460 . S
C407 C406 1.477 . S
C407 H427 0.930 . S
C408 N404 1.362 . S
C408 C405 1.431 . S
C408 C418 1.476 . S
H409 C403 0.929 . S
C410 O401 1.250 . S
C410 O402 1.258 . S
O411 Mn396 2.162 . S
O411 C399 1.281 . S
O412 Mn396 2.297 . S
O412 C399 1.236 . S
N413 Mn397 2.282 . S
N413 C414 1.328 . S
N413 C418 1.318 . S
C414 N413 1.328 . S
C414 C415 1.457 . S
C414 H419 0.929 . S
C415 C414 1.457 . S
C415 C416 1.291 . S
C415 H428 0.931 . S
C416 C415 1.291 . S
C416 C417 1.373 . S
C416 H429 0.929 . S
C417 C416 1.373 . S
C417 C418 1.396 . S
C417 C424 1.403 . S
C418 C408 1.476 . S
C418 N413 1.318 . S
C418 C417 1.396 . S
H419 C414 0.929 . S
O420 Mn396 2.385 . S
O420 C398 1.234 . S
O421 Mn396 2.209 . S
O421 Mn397 2.215 . S
O421 C398 1.283 . S
O422 Mn396 2.094 . S
O422 C400 1.240 . S
O423 Mn397 2.117 . S
O423 C400 1.264 . S
C424 C417 1.403 . S
C424 C425 1.399 . S
C424 H430 0.929 . S
C425 C405 1.449 . S
C425 C424 1.399 . S
C425 H431 0.930 . S
H426 C406 0.931 . S
H427 C407 0.930 . S
H428 C415 0.931 . S
H429 C416 0.929 . S
H430 C424 0.929 . S
H431 C425 0.930 . S
C432 C433 1.391 . S
C432 C434 1.394 . S
C432 H448 0.931 . S
C433 C432 1.391 . S
C433 C437 1.376 . S
C434 C432 1.394 . S
C434 C435 1.369 . S
C434 C438 1.531 . S
C435 C434 1.369 . S
C435 C436 1.410 . S
C435 C443 1.503 . S
C436 C435 1.410 . S
C436 C437 1.392 . S
C436 C439 1.511 . S
C437 C433 1.376 . S
C437 C436 1.392 . S
C437 H449 0.929 . S
C438 C434 1.531 . S
C438 H450 0.960 . S
C438 H451 0.962 . S
C438 H452 0.960 . S
C439 C436 1.511 . S
C439 H453 0.946 1_455 S
C439 H454 0.961 . S
C439 H455 0.961 1_455 S
C440 C441 1.370 . S
C440 C442 1.363 . S
C440 H456 0.931 . S
C441 C440 1.370 . S
C441 C445 1.408 . S
C442 C440 1.363 . S
C442 C443 1.370 . S
C442 C446 1.524 . S
C443 C435 1.503 . S
C443 C442 1.370 . S
C443 C444 1.403 . S
C444 C443 1.403 . S
C444 C445 1.404 . S
C444 C447 1.539 . S
C445 C441 1.408 . S
C445 C444 1.404 . S
C445 H457 0.930 . S
C446 C442 1.524 . S
C446 H458 0.956 . S
C446 H459 0.961 . S
C446 H460 0.961 . S
C447 C444 1.539 . S
C447 H461 0.958 . S
C447 H462 0.961 . S
C447 H463 0.960 . S
H448 C432 0.931 . S
H449 C437 0.929 . S
H450 C438 0.960 . S
H451 C438 0.962 . S
H452 C438 0.960 . S
H453 C439 0.946 1_655 S
H454 C439 0.961 . S
H455 C439 0.961 1_655 S
H456 C440 0.931 . S
H457 C445 0.930 . S
H458 C446 0.956 . S
H459 C446 0.961 . S
H460 C446 0.961 . S
H461 C447 0.958 . S
H462 C447 0.961 . S
H463 C447 0.960 . S
C464 C465 1.391 . S
C464 C466 1.394 . S
C464 H480 0.931 . S
C465 C464 1.391 . S
C465 C469 1.376 . S
C466 C464 1.394 . S
C466 C467 1.369 . S
C466 C470 1.531 . S
C467 C466 1.369 . S
C467 C468 1.410 . S
C467 C475 1.503 . S
C468 C467 1.410 . S
C468 C469 1.392 . S
C468 C471 1.511 . S
C469 C465 1.376 . S
C469 C468 1.392 . S
C469 H481 0.929 . S
C470 C466 1.531 . S
C470 H482 0.960 . S
C470 H483 0.962 . S
C470 H484 0.960 . S
C471 C468 1.511 . S
C471 H485 0.961 . S
C471 H486 0.961 . S
C471 H487 0.961 . S
C472 C473 1.370 . S
C472 C474 1.363 . S
C472 H488 0.931 . S
C473 C472 1.370 . S
C473 C477 1.408 . S
C474 C472 1.363 . S
C474 C475 1.370 . S
C474 C478 1.524 . S
C475 C467 1.503 . S
C475 C474 1.370 . S
C475 C476 1.403 . S
C476 C475 1.403 . S
C476 C477 1.404 . S
C476 C479 1.539 . S
C477 C473 1.408 . S
C477 C476 1.404 . S
C477 H489 0.930 . S
C478 C474 1.524 . S
C478 H490 0.956 . S
C478 H491 0.961 . S
C478 H492 0.961 . S
C479 C476 1.539 . S
C479 H493 0.958 . S
C479 H494 0.961 . S
C479 H495 0.960 . S
H480 C464 0.931 . S
H481 C469 0.929 . S
H482 C470 0.960 . S
H483 C470 0.962 . S
H484 C470 0.960 . S
H485 C471 0.961 . S
H486 C471 0.961 . S
H487 C471 0.961 . S
H488 C472 0.931 . S
H489 C477 0.930 . S
H490 C478 0.956 . S
H491 C478 0.961 . S
H492 C478 0.961 . S
H493 C479 0.958 . S
H494 C479 0.961 . S
H495 C479 0.960 . S
C496 C497 1.391 . S
C496 C498 1.394 . S
C496 H512 0.931 . S
C497 C496 1.391 . S
C497 C501 1.376 . S
C498 C496 1.394 . S
C498 C499 1.369 . S
C498 C502 1.531 . S
C499 C498 1.369 . S
C499 C500 1.410 . S
C499 C507 1.503 . S
C500 C499 1.410 . S
C500 C501 1.392 . S
C500 C503 1.511 . S
C501 C497 1.376 . S
C501 C500 1.392 . S
C501 H513 0.929 . S
C502 C498 1.531 . S
C502 H514 0.960 . S
C502 H515 0.962 . S
C502 H516 0.960 . S
C503 C500 1.511 . S
C503 H517 0.961 . S
C503 H518 0.961 . S
C503 H519 0.961 . S
C504 C505 1.370 . S
C504 C506 1.363 . S
C504 H520 0.931 . S
C505 C504 1.370 . S
C505 C509 1.408 . S
C506 C504 1.363 . S
C506 C507 1.370 . S
C506 C510 1.524 . S
C507 C499 1.503 . S
C507 C506 1.370 . S
C507 C508 1.403 . S
C508 C507 1.403 . S
C508 C509 1.404 . S
C508 C511 1.539 . S
C509 C505 1.408 . S
C509 C508 1.404 . S
C509 H521 0.930 . S
C510 C506 1.524 . S
C510 H522 0.956 . S
C510 H523 0.961 . S
C510 H524 0.961 . S
C511 C508 1.539 . S
C511 H525 0.958 . S
C511 H526 0.961 . S
C511 H527 0.960 . S
H512 C496 0.931 . S
H513 C501 0.929 . S
H514 C502 0.960 . S
H515 C502 0.962 . S
H516 C502 0.960 . S
H517 C503 0.961 . S
H518 C503 0.961 . S
H519 C503 0.961 . S
H520 C504 0.931 . S
H521 C509 0.930 . S
H522 C510 0.956 . S
H523 C510 0.961 . S
H524 C510 0.961 . S
H525 C511 0.958 . S
H526 C511 0.961 . S
H527 C511 0.960 . S
C528 C529 1.391 . S
C528 C530 1.394 . S
C528 H544 0.931 . S
C529 C528 1.391 . S
C529 C533 1.376 . S
C530 C528 1.394 . S
C530 C531 1.369 . S
C530 C534 1.531 . S
C531 C530 1.369 . S
C531 C532 1.410 . S
C531 C539 1.503 . S
C532 C531 1.410 . S
C532 C533 1.392 . S
C532 C535 1.511 . S
C533 C529 1.376 . S
C533 C532 1.392 . S
C533 H545 0.929 . S
C534 C530 1.531 . S
C534 H546 0.960 . S
C534 H547 0.962 1_655 S
C534 H548 0.960 . S
C535 C532 1.511 . S
C535 H549 0.961 . S
C535 H550 0.961 . S
C535 H551 0.961 . S
C536 C537 1.370 . S
C536 C538 1.363 . S
C536 H552 0.931 . S
C537 C536 1.370 . S
C537 C541 1.408 . S
C538 C536 1.363 . S
C538 C539 1.370 . S
C538 C542 1.524 . S
C539 C531 1.503 . S
C539 C538 1.370 . S
C539 C540 1.403 . S
C540 C539 1.403 . S
C540 C541 1.404 . S
C540 C543 1.539 . S
C541 C537 1.408 . S
C541 C540 1.404 . S
C541 H553 0.930 . S
C542 C538 1.524 . S
C542 H554 0.956 . S
C542 H555 0.961 . S
C542 H556 0.961 . S
C543 C540 1.539 . S
C543 H557 0.958 . S
C543 H558 0.961 . S
C543 H559 0.960 . S
H544 C528 0.931 . S
H545 C533 0.929 . S
H546 C534 0.960 . S
H547 C534 0.962 1_455 S
H548 C534 0.960 . S
H549 C535 0.961 . S
H550 C535 0.961 . S
H551 C535 0.961 . S
H552 C536 0.931 . S
H553 C541 0.930 . S
H554 C542 0.956 . S
H555 C542 0.961 . S
H556 C542 0.961 . S
H557 C543 0.958 . S
H558 C543 0.961 . S
H559 C543 0.960 . S
C560 C561 1.391 . S
C560 C562 1.394 . S
C560 H576 0.931 . S
C561 C560 1.391 . S
C561 C565 1.376 . S
C562 C560 1.394 . S
C562 C563 1.369 . S
C562 C566 1.531 . S
C563 C562 1.369 . S
C563 C564 1.410 . S
C563 C571 1.503 . S
C564 C563 1.410 . S
C564 C565 1.392 . S
C564 C567 1.511 . S
C565 C561 1.376 . S
C565 C564 1.392 . S
C565 H577 0.929 . S
C566 C562 1.531 . S
C566 H578 0.960 . S
C566 H579 0.962 . S
C566 H580 0.960 . S
C567 C564 1.511 . S
C567 H581 0.961 . S
C567 H582 0.961 . S
C567 H583 0.961 . S
C568 C569 1.370 . S
C568 C570 1.363 . S
C568 H584 0.931 . S
C569 C568 1.370 . S
C569 C573 1.408 . S
C570 C568 1.363 . S
C570 C571 1.370 . S
C570 C574 1.524 . S
C571 C563 1.503 . S
C571 C570 1.370 . S
C571 C572 1.403 . S
C572 C571 1.403 . S
C572 C573 1.404 . S
C572 C575 1.539 . S
C573 C569 1.408 . S
C573 C572 1.404 . S
C573 H585 0.930 . S
C574 C570 1.524 . S
C574 H586 0.956 . S
C574 H587 0.961 . S
C574 H588 0.961 1_565 S
C575 C572 1.539 . S
C575 H589 0.958 . S
C575 H590 0.961 . S
C575 H591 0.960 . S
H576 C560 0.931 . S
H577 C565 0.929 . S
H578 C566 0.960 . S
H579 C566 0.962 . S
H580 C566 0.960 . S
H581 C567 0.961 . S
H582 C567 0.961 . S
H583 C567 0.961 . S
H584 C568 0.931 . S
H585 C573 0.930 . S
H586 C574 0.956 . S
H587 C574 0.961 . S
H588 C574 0.961 1_545 S
H589 C575 0.958 . S
H590 C575 0.961 . S
H591 C575 0.960 . S
C592 C593 1.391 . S
C592 C594 1.394 . S
C592 H608 0.931 . S
C593 C592 1.391 . S
C593 C597 1.376 . S
C594 C592 1.394 . S
C594 C595 1.369 . S
C594 C598 1.531 . S
C595 C594 1.369 . S
C595 C596 1.410 . S
C595 C603 1.503 . S
C596 C595 1.410 . S
C596 C597 1.392 . S
C596 C599 1.511 . S
C597 C593 1.376 . S
C597 C596 1.392 . S
C597 H609 0.929 . S
C598 C594 1.531 . S
C598 H610 0.960 . S
C598 H611 0.962 . S
C598 H612 0.960 . S
C599 C596 1.511 . S
C599 H613 0.961 . S
C599 H614 0.961 . S
C599 H615 0.961 . S
C600 C601 1.370 . S
C600 C602 1.363 . S
C600 H616 0.931 . S
C601 C600 1.370 . S
C601 C605 1.408 . S
C602 C600 1.363 . S
C602 C603 1.370 . S
C602 C606 1.524 . S
C603 C595 1.503 . S
C603 C602 1.370 . S
C603 C604 1.403 . S
C604 C603 1.403 . S
C604 C605 1.404 . S
C604 C607 1.539 . S
C605 C601 1.408 . S
C605 C604 1.404 . S
C605 H617 0.930 . S
C606 C602 1.524 . S
C606 H618 0.956 . S
C606 H619 0.961 . S
C606 H620 0.961 . S
C607 C604 1.539 . S
C607 H621 0.958 . S
C607 H622 0.961 . S
C607 H623 0.960 . S
H608 C592 0.931 . S
H609 C597 0.929 . S
H610 C598 0.960 . S
H611 C598 0.962 . S
H612 C598 0.960 . S
H613 C599 0.961 . S
H614 C599 0.961 . S
H615 C599 0.961 . S
H616 C600 0.931 . S
H617 C605 0.930 . S
H618 C606 0.956 . S
H619 C606 0.961 . S
H620 C606 0.961 . S
H621 C607 0.958 . S
H622 C607 0.961 . S
H623 C607 0.960 . S
C624 C625 1.391 . S
C624 C626 1.394 . S
C624 H640 0.931 . S
C625 C624 1.391 . S
C625 C629 1.376 . S
C626 C624 1.394 . S
C626 C627 1.369 . S
C626 C630 1.531 . S
C627 C626 1.369 . S
C627 C628 1.410 . S
C627 C635 1.503 . S
C628 C627 1.410 . S
C628 C629 1.392 . S
C628 C631 1.511 . S
C629 C625 1.376 . S
C629 C628 1.392 . S
C629 H641 0.929 . S
C630 C626 1.531 . S
C630 H642 0.960 . S
C630 H643 0.962 . S
C630 H644 0.960 . S
C631 C628 1.511 . S
C631 H645 0.961 . S
C631 H646 0.949 1_554 S
C631 H647 0.961 1_554 S
C632 C633 1.373 1_554 S
C632 C634 1.363 . S
C632 H648 0.931 . S
C633 C632 1.373 1_556 S
C633 C637 1.408 1_556 S
C634 C632 1.363 . S
C634 C635 1.370 . S
C634 C638 1.524 . S
C635 C627 1.503 . S
C635 C634 1.370 . S
C635 C636 1.403 . S
C636 C635 1.403 . S
C636 C637 1.427 . S
C636 C639 1.539 . S
C637 C633 1.408 1_554 S
C637 C636 1.427 . S
C637 H649 0.909 1_554 S
C638 C634 1.524 . S
C638 H650 0.956 . S
C638 H651 0.961 . S
C638 H652 0.961 . S
C639 C636 1.539 . S
C639 H653 0.958 . S
C639 H654 0.924 1_554 S
C639 H655 0.960 . S
H640 C624 0.931 . S
H641 C629 0.929 . S
H642 C630 0.960 . S
H643 C630 0.962 . S
H644 C630 0.960 . S
H645 C631 0.961 . S
H646 C631 0.949 1_556 S
H647 C631 0.961 1_556 S
H648 C632 0.931 . S
H649 C637 0.909 1_556 S
H650 C638 0.956 . S
H651 C638 0.961 . S
H652 C638 0.961 . S
H653 C639 0.958 . S
H654 C639 0.924 1_556 S
H655 C639 0.960 . S
C656 C657 1.391 . S
C656 C658 1.394 . S
C656 H672 0.931 . S
C657 C656 1.391 . S
C657 C661 1.376 . S
C658 C656 1.394 . S
C658 C659 1.369 . S
C658 C662 1.531 . S
C659 C658 1.369 . S
C659 C660 1.410 . S
C659 C667 1.503 . S
C660 C659 1.410 . S
C660 C661 1.392 . S
C660 C663 1.511 . S
C661 C657 1.376 . S
C661 C660 1.392 . S
C661 H673 0.929 . S
C662 C658 1.531 . S
C662 H674 0.960 . S
C662 H675 0.962 . S
C662 H676 0.960 . S
C663 C660 1.511 . S
C663 H677 0.961 . S
C663 H678 0.961 . S
C663 H679 0.961 . S
C664 C665 1.370 . S
C664 C666 1.363 . S
C664 H680 0.931 . S
C665 C664 1.370 . S
C665 C669 1.408 . S
C666 C664 1.363 . S
C666 C667 1.370 . S
C666 C670 1.524 . S
C667 C659 1.503 . S
C667 C666 1.370 . S
C667 C668 1.403 . S
C668 C667 1.403 . S
C668 C669 1.404 . S
C668 C671 1.539 . S
C669 C665 1.408 . S
C669 C668 1.404 . S
C669 H681 0.930 . S
C670 C666 1.524 . S
C670 H682 0.956 . S
C670 H683 0.961 . S
C670 H684 0.961 . S
C671 C668 1.539 . S
C671 H685 0.958 . S
C671 H686 0.961 . S
C671 H687 0.960 . S
H672 C656 0.931 . S
H673 C661 0.929 . S
H674 C662 0.960 . S
H675 C662 0.962 . S
H676 C662 0.960 . S
H677 C663 0.961 . S
H678 C663 0.961 . S
H679 C663 0.961 . S
H680 C664 0.931 . S
H681 C669 0.930 . S
H682 C670 0.956 . S
H683 C670 0.961 . S
H684 C670 0.961 . S
H685 C671 0.958 . S
H686 C671 0.961 . S
H687 C671 0.960 . S
C688 C689 1.391 . S
C688 C690 1.394 . S
C688 H704 0.931 . S
C689 C688 1.391 . S
C689 C693 1.376 . S
C690 C688 1.394 . S
C690 C691 1.369 . S
C690 C694 1.531 . S
C691 C690 1.369 . S
C691 C692 1.410 . S
C691 C699 1.503 . S
C692 C691 1.410 . S
C692 C693 1.392 . S
C692 C695 1.511 . S
C693 C689 1.376 . S
C693 C692 1.392 . S
C693 H705 0.929 . S
C694 C690 1.531 . S
C694 H706 0.960 . S
C694 H707 0.962 . S
C694 H708 0.960 . S
C695 C692 1.511 . S
C695 H709 0.961 . S
C695 H710 0.961 . S
C695 H711 0.961 . S
C696 C697 1.370 . S
C696 C698 1.363 . S
C696 H712 0.931 . S
C697 C696 1.370 . S
C697 C701 1.408 . S
C698 C696 1.363 . S
C698 C699 1.370 . S
C698 C702 1.524 . S
C699 C691 1.503 . S
C699 C698 1.370 . S
C699 C700 1.403 . S
C700 C699 1.403 . S
C700 C701 1.404 . S
C700 C703 1.539 . S
C701 C697 1.408 . S
C701 C700 1.404 . S
C701 H713 0.930 . S
C702 C698 1.524 . S
C702 H714 0.956 . S
C702 H715 0.961 . S
C702 H716 0.961 . S
C703 C700 1.539 . S
C703 H717 0.958 . S
C703 H718 0.961 . S
C703 H719 0.960 . S
H704 C688 0.931 . S
H705 C693 0.929 . S
H706 C694 0.960 . S
H707 C694 0.962 . S
H708 C694 0.960 . S
H709 C695 0.961 . S
H710 C695 0.961 . S
H711 C695 0.961 . S
H712 C696 0.931 . S
H713 C701 0.930 . S
H714 C702 0.956 . S
H715 C702 0.961 . S
H716 C702 0.961 . S
H717 C703 0.958 . S
H718 C703 0.961 . S
H719 C703 0.960 . S
C720 C721 1.391 . S
C720 C722 1.394 . S
C720 H736 0.931 . S
C721 C720 1.391 . S
C721 C725 1.376 . S
C722 C720 1.394 . S
C722 C723 1.369 . S
C722 C726 1.531 . S
C723 C722 1.369 . S
C723 C724 1.410 . S
C723 C731 1.503 . S
C724 C723 1.410 . S
C724 C725 1.392 . S
C724 C727 1.511 . S
C725 C721 1.376 . S
C725 C724 1.392 . S
C725 H737 0.929 . S
C726 C722 1.531 . S
C726 H738 0.960 . S
C726 H739 0.962 . S
C726 H740 0.960 . S
C727 C724 1.511 . S
C727 H741 0.961 . S
C727 H742 0.961 . S
C727 H743 0.961 . S
C728 C729 1.370 . S
C728 C730 1.363 . S
C728 H744 0.931 . S
C729 C728 1.370 . S
C729 C733 1.408 . S
C730 C728 1.363 . S
C730 C731 1.370 . S
C730 C734 1.524 . S
C731 C723 1.503 . S
C731 C730 1.370 . S
C731 C732 1.403 . S
C732 C731 1.403 . S
C732 C733 1.404 . S
C732 C735 1.539 . S
C733 C729 1.408 . S
C733 C732 1.404 . S
C733 H745 0.930 . S
C734 C730 1.524 . S
C734 H746 0.956 . S
C734 H747 0.961 . S
C734 H748 0.961 . S
C735 C732 1.539 . S
C735 H749 0.958 . S
C735 H750 0.961 . S
C735 H751 0.960 . S
H736 C720 0.931 . S
H737 C725 0.929 . S
H738 C726 0.960 . S
H739 C726 0.962 . S
H740 C726 0.960 . S
H741 C727 0.961 . S
H742 C727 0.961 . S
H743 C727 0.961 . S
H744 C728 0.931 . S
H745 C733 0.930 . S
H746 C734 0.956 . S
H747 C734 0.961 . S
H748 C734 0.961 . S
H749 C735 0.958 . S
H750 C735 0.961 . S
H751 C735 0.960 . S
C752 C753 1.391 . S
C752 C754 1.394 . S
C752 H768 0.931 . S
C753 C752 1.391 . S
C753 C757 1.376 . S
C754 C752 1.394 . S
C754 C755 1.369 . S
C754 C758 1.531 . S
C755 C754 1.369 . S
C755 C756 1.410 . S
C755 C763 1.503 . S
C756 C755 1.410 . S
C756 C757 1.392 . S
C756 C759 1.511 . S
C757 C753 1.376 . S
C757 C756 1.392 . S
C757 H769 0.929 . S
C758 C754 1.531 . S
C758 H770 0.960 . S
C758 H771 0.962 . S
C758 H772 0.960 . S
C759 C756 1.511 . S
C759 H773 0.961 . S
C759 H774 0.961 . S
C759 H775 0.961 . S
C760 C761 1.370 . S
C760 C762 1.363 . S
C760 H776 0.931 . S
C761 C760 1.370 . S
C761 C765 1.408 . S
C762 C760 1.363 . S
C762 C763 1.370 . S
C762 C766 1.524 . S
C763 C755 1.503 . S
C763 C762 1.370 . S
C763 C764 1.403 . S
C764 C763 1.403 . S
C764 C765 1.404 . S
C764 C767 1.539 . S
C765 C761 1.408 . S
C765 C764 1.404 . S
C765 H777 0.930 . S
C766 C762 1.524 . S
C766 H778 0.956 . S
C766 H779 0.961 . S
C766 H780 0.961 . S
C767 C764 1.539 . S
C767 H781 0.958 . S
C767 H782 0.961 . S
C767 H783 0.960 . S
H768 C752 0.931 . S
H769 C757 0.929 . S
H770 C758 0.960 . S
H771 C758 0.962 . S
H772 C758 0.960 . S
H773 C759 0.961 . S
H774 C759 0.961 . S
H775 C759 0.961 . S
H776 C760 0.931 . S
H777 C765 0.930 . S
H778 C766 0.956 . S
H779 C766 0.961 . S
H780 C766 0.961 . S
H781 C767 0.958 . S
H782 C767 0.961 . S
H783 C767 0.960 . S
C784 C785 1.391 . S
C784 C786 1.394 . S
C784 H800 0.931 . S
C785 C784 1.391 . S
C785 C789 1.376 . S
C786 C784 1.394 . S
C786 C787 1.369 . S
C786 C790 1.531 . S
C787 C786 1.369 . S
C787 C788 1.410 . S
C787 C795 1.503 . S
C788 C787 1.410 . S
C788 C789 1.392 . S
C788 C791 1.511 . S
C789 C785 1.376 . S
C789 C788 1.392 . S
C789 H801 0.929 . S
C790 C786 1.531 . S
C790 H802 0.960 . S
C790 H803 0.962 . S
C790 H804 0.960 . S
C791 C788 1.511 . S
C791 H805 0.961 . S
C791 H806 0.961 . S
C791 H807 0.961 . S
C792 C793 1.370 . S
C792 C794 1.363 . S
C792 H808 0.931 . S
C793 C792 1.370 . S
C793 C797 1.408 . S
C794 C792 1.363 . S
C794 C795 1.370 . S
C794 C798 1.524 . S
C795 C787 1.503 . S
C795 C794 1.370 . S
C795 C796 1.403 . S
C796 C795 1.403 . S
C796 C797 1.404 . S
C796 C799 1.539 . S
C797 C793 1.408 . S
C797 C796 1.404 . S
C797 H809 0.930 . S
C798 C794 1.524 . S
C798 H810 0.956 . S
C798 H811 0.961 . S
C798 H812 0.961 . S
C799 C796 1.539 . S
C799 H813 0.958 . S
C799 H814 0.961 . S
C799 H815 0.960 . S
H800 C784 0.931 . S
H801 C789 0.929 . S
H802 C790 0.960 . S
H803 C790 0.962 . S
H804 C790 0.960 . S
H805 C791 0.961 . S
H806 C791 0.961 . S
H807 C791 0.961 . S
H808 C792 0.931 . S
H809 C797 0.930 . S
H810 C798 0.956 . S
H811 C798 0.961 . S
H812 C798 0.961 . S
H813 C799 0.958 . S
H814 C799 0.961 . S
H815 C799 0.960 . S
C816 C817 1.391 . S
C816 C818 1.394 . S
C816 H832 0.931 . S
C817 C816 1.391 . S
C817 C821 1.376 . S
C818 C816 1.394 . S
C818 C819 1.369 . S
C818 C822 1.531 . S
C819 C818 1.369 . S
C819 C820 1.410 . S
C819 C827 1.503 . S
C820 C819 1.410 . S
C820 C821 1.392 . S
C820 C823 1.511 . S
C821 C817 1.376 . S
C821 C820 1.392 . S
C821 H833 0.929 . S
C822 C818 1.531 . S
C822 H834 0.960 . S
C822 H835 0.962 . S
C822 H836 0.960 . S
C823 C820 1.511 . S
C823 H837 0.961 . S
C823 H838 0.961 . S
C823 H839 0.961 . S
C824 C825 1.370 . S
C824 C826 1.363 . S
C824 H840 0.931 . S
C825 C824 1.370 . S
C825 C829 1.408 . S
C826 C824 1.363 . S
C826 C827 1.370 . S
C826 C830 1.524 . S
C827 C819 1.503 . S
C827 C826 1.370 . S
C827 C828 1.403 . S
C828 C827 1.403 . S
C828 C829 1.404 . S
C828 C831 1.539 . S
C829 C825 1.408 . S
C829 C828 1.404 . S
C829 H841 0.930 . S
C830 C826 1.524 . S
C830 H842 0.956 . S
C830 H843 0.961 . S
C830 H844 0.961 . S
C831 C828 1.539 . S
C831 H845 0.958 . S
C831 H846 0.961 . S
C831 H847 0.960 . S
H832 C816 0.931 . S
H833 C821 0.929 . S
H834 C822 0.960 . S
H835 C822 0.962 . S
H836 C822 0.960 . S
H837 C823 0.961 . S
H838 C823 0.961 . S
H839 C823 0.961 . S
H840 C824 0.931 . S
H841 C829 0.930 . S
H842 C830 0.956 . S
H843 C830 0.961 . S
H844 C830 0.961 . S
H845 C831 0.958 . S
H846 C831 0.961 . S
H847 C831 0.960 . S
C848 C849 1.391 . S
C848 C850 1.394 . S
C848 H864 0.931 . S
C849 C848 1.391 . S
C849 C853 1.376 . S
C850 C848 1.394 . S
C850 C851 1.369 . S
C850 C854 1.531 . S
C851 C850 1.369 . S
C851 C852 1.410 . S
C851 C859 1.503 . S
C852 C851 1.410 . S
C852 C853 1.392 . S
C852 C855 1.511 . S
C853 C849 1.376 . S
C853 C852 1.392 . S
C853 H865 0.929 . S
C854 C850 1.531 . S
C854 H866 0.960 . S
C854 H867 0.962 . S
C854 H868 0.960 . S
C855 C852 1.511 . S
C855 H869 0.961 . S
C855 H870 0.961 . S
C855 H871 0.961 . S
C856 C857 1.370 1_554 S
C856 C858 1.363 1_554 S
C856 H872 0.931 . S
C857 C856 1.370 1_556 S
C857 C861 1.427 . S
C858 C856 1.363 1_556 S
C858 C859 1.370 . S
C858 C862 1.524 . S
C859 C851 1.503 . S
C859 C858 1.370 . S
C859 C860 1.403 . S
C860 C859 1.403 . S
C860 C861 1.404 . S
C860 C863 1.539 . S
C861 C857 1.427 . S
C861 C860 1.404 . S
C861 H873 0.930 1_655 S
C862 C858 1.524 . S
C862 H874 0.956 . S
C862 H875 0.961 . S
C862 H876 0.961 1_556 S
C863 C860 1.539 . S
C863 H877 0.958 . S
C863 H878 0.961 . S
C863 H879 0.960 . S
H864 C848 0.931 . S
H865 C853 0.929 . S
H866 C854 0.960 . S
H867 C854 0.962 . S
H868 C854 0.960 . S
H869 C855 0.961 . S
H870 C855 0.961 . S
H871 C855 0.961 . S
H872 C856 0.931 . S
H873 C861 0.930 1_455 S
H874 C862 0.956 . S
H875 C862 0.961 . S
H876 C862 0.961 1_554 S
H877 C863 0.958 . S
H878 C863 0.961 . S
H879 C863 0.960 . S
C880 C881 1.391 . S
C880 C882 1.394 . S
C880 H896 0.931 1_565 S
C881 C880 1.391 . S
C881 C885 1.376 . S
C882 C880 1.394 . S
C882 C883 1.369 . S
C882 C886 1.531 . S
C883 C882 1.369 . S
C883 C884 1.410 . S
C883 C891 1.503 . S
C884 C883 1.410 . S
C884 C885 1.392 . S
C884 C887 1.511 . S
C885 C881 1.376 . S
C885 C884 1.392 . S
C885 H897 0.929 . S
C886 C882 1.531 . S
C886 H898 0.960 . S
C886 H899 0.962 . S
C886 H900 0.960 . S
C887 C884 1.511 . S
C887 H901 0.961 . S
C887 H902 0.961 . S
C887 H903 0.961 . S
C888 C889 1.370 . S
C888 C890 1.363 . S
C888 H904 0.931 . S
C889 C888 1.370 . S
C889 C893 1.408 . S
C890 C888 1.363 . S
C890 C891 1.370 . S
C890 C894 1.524 . S
C891 C883 1.503 . S
C891 C890 1.370 . S
C891 C892 1.403 . S
C892 C891 1.403 . S
C892 C893 1.404 . S
C892 C895 1.539 . S
C893 C889 1.408 . S
C893 C892 1.404 . S
C893 H905 0.930 . S
C894 C890 1.524 . S
C894 H906 0.956 . S
C894 H907 0.961 . S
C894 H908 0.961 . S
C895 C892 1.539 . S
C895 H909 0.958 . S
C895 H910 0.961 . S
C895 H911 0.960 . S
H896 C880 0.931 1_545 S
H897 C885 0.929 . S
H898 C886 0.960 . S
H899 C886 0.962 . S
H900 C886 0.960 . S
H901 C887 0.961 . S
H902 C887 0.961 . S
H903 C887 0.961 . S
H904 C888 0.931 . S
H905 C893 0.930 . S
H906 C894 0.956 . S
H907 C894 0.961 . S
H908 C894 0.961 . S
H909 C895 0.958 . S
H910 C895 0.961 . S
H911 C895 0.960 . S
C912 C913 1.391 . S
C912 C914 1.394 . S
C912 H928 0.931 . S
C913 C912 1.391 . S
C913 C917 1.376 . S
C914 C912 1.394 . S
C914 C915 1.369 . S
C914 C918 1.531 . S
C915 C914 1.369 . S
C915 C916 1.410 . S
C915 C923 1.503 . S
C916 C915 1.410 . S
C916 C917 1.392 . S
C916 C919 1.511 . S
C917 C913 1.376 . S
C917 C916 1.392 . S
C917 H929 0.929 . S
C918 C914 1.531 . S
C918 H930 0.960 . S
C918 H931 0.962 . S
C918 H932 0.960 . S
C919 C916 1.511 . S
C919 H933 0.961 . S
C919 H934 0.961 . S
C919 H935 0.961 . S
C920 C921 1.370 . S
C920 C922 1.363 . S
C920 H936 0.931 . S
C921 C920 1.370 . S
C921 C925 1.408 . S
C922 C920 1.363 . S
C922 C923 1.370 . S
C922 C926 1.524 . S
C923 C915 1.503 . S
C923 C922 1.370 . S
C923 C924 1.403 . S
C924 C923 1.403 . S
C924 C925 1.404 . S
C924 C927 1.539 . S
C925 C921 1.408 . S
C925 C924 1.404 . S
C925 H937 0.930 . S
C926 C922 1.524 . S
C926 H938 0.956 . S
C926 H939 0.961 . S
C926 H940 0.961 . S
C927 C924 1.539 . S
C927 H941 0.958 . S
C927 H942 0.961 . S
C927 H943 0.960 . S
H928 C912 0.931 . S
H929 C917 0.929 . S
H930 C918 0.960 . S
H931 C918 0.962 . S
H932 C918 0.960 . S
H933 C919 0.961 . S
H934 C919 0.961 . S
H935 C919 0.961 . S
H936 C920 0.931 . S
H937 C925 0.930 . S
H938 C926 0.956 . S
H939 C926 0.961 . S
H940 C926 0.961 . S
H941 C927 0.958 . S
H942 C927 0.961 . S
H943 C927 0.960 . S
C944 C945 1.391 . S
C944 C946 1.394 . S
C944 H960 0.931 . S
C945 C944 1.391 . S
C945 C949 1.376 . S
C946 C944 1.394 . S
C946 C947 1.369 . S
C946 C950 1.531 . S
C947 C946 1.369 . S
C947 C948 1.410 . S
C947 C955 1.503 . S
C948 C947 1.410 . S
C948 C949 1.392 . S
C948 C951 1.511 . S
C949 C945 1.376 . S
C949 C948 1.392 . S
C949 H961 0.929 . S
C950 C946 1.531 . S
C950 H962 0.960 . S
C950 H963 0.962 . S
C950 H964 0.960 . S
C951 C948 1.511 . S
C951 H965 0.961 . S
C951 H966 0.961 . S
C951 H967 0.961 . S
C952 C953 1.370 . S
C952 C954 1.363 . S
C952 H968 0.931 . S
C953 C952 1.370 . S
C953 C957 1.408 . S
C954 C952 1.363 . S
C954 C955 1.370 . S
C954 C958 1.524 . S
C955 C947 1.503 . S
C955 C954 1.370 . S
C955 C956 1.403 . S
C956 C955 1.403 . S
C956 C957 1.404 . S
C956 C959 1.539 . S
C957 C953 1.408 . S
C957 C956 1.404 . S
C957 H969 0.930 . S
C958 C954 1.524 . S
C958 H970 0.956 . S
C958 H971 0.961 . S
C958 H972 0.961 . S
C959 C956 1.539 . S
C959 H973 0.958 . S
C959 H974 0.961 . S
C959 H975 0.960 . S
H960 C944 0.931 . S
H961 C949 0.929 . S
H962 C950 0.960 . S
H963 C950 0.962 . S
H964 C950 0.960 . S
H965 C951 0.961 . S
H966 C951 0.961 . S
H967 C951 0.961 . S
H968 C952 0.931 . S
H969 C957 0.930 . S
H970 C958 0.956 . S
H971 C958 0.961 . S
H972 C958 0.961 . S
H973 C959 0.958 . S
H974 C959 0.961 . S
H975 C959 0.960 . S
C976 C977 1.391 . S
C976 C978 1.394 . S
C976 H992 0.931 . S
C977 C976 1.391 . S
C977 C981 1.376 . S
C978 C976 1.394 . S
C978 C979 1.369 . S
C978 C982 1.531 . S
C979 C978 1.369 . S
C979 C980 1.410 . S
C979 C987 1.503 . S
C980 C979 1.410 . S
C980 C981 1.392 . S
C980 C983 1.511 . S
C981 C977 1.376 . S
C981 C980 1.392 . S
C981 H993 0.929 . S
C982 C978 1.531 . S
C982 H994 0.960 . S
C982 H995 0.962 . S
C982 H996 0.960 . S
C983 C980 1.511 . S
C983 H997 0.961 . S
C983 H998 0.961 . S
C983 H999 0.961 . S
C984 C985 1.370 . S
C984 C986 1.363 . S
C984 H1000 0.931 . S
C985 C984 1.370 . S
C985 C989 1.408 . S
C986 C984 1.363 . S
C986 C987 1.370 . S
C986 C990 1.524 . S
C987 C979 1.503 . S
C987 C986 1.370 . S
C987 C988 1.403 . S
C988 C987 1.403 . S
C988 C989 1.404 . S
C988 C991 1.539 . S
C989 C985 1.408 . S
C989 C988 1.404 . S
C989 H1001 0.930 . S
C990 C986 1.524 . S
C990 H1002 0.956 . S
C990 H1003 0.961 . S
C990 H1004 0.961 . S
C991 C988 1.539 . S
C991 H1005 0.958 . S
C991 H1006 0.961 . S
C991 H1007 0.960 . S
H992 C976 0.931 . S
H993 C981 0.929 . S
H994 C982 0.960 . S
H995 C982 0.962 . S
H996 C982 0.960 . S
H997 C983 0.961 . S
H998 C983 0.961 . S
H999 C983 0.961 . S
H1000 C984 0.931 . S
H1001 C989 0.930 . S
H1002 C990 0.956 . S
H1003 C990 0.961 . S
H1004 C990 0.961 . S
H1005 C991 0.958 . S
H1006 C991 0.961 . S
H1007 C991 0.960 . S
C1008 C1009 1.391 . S
C1008 C1010 1.394 . S
C1008 H1024 0.931 . S
C1009 C1008 1.391 . S
C1009 C1013 1.376 . S
C1010 C1008 1.394 . S
C1010 C1011 1.369 . S
C1010 C1014 1.531 . S
C1011 C1010 1.369 . S
C1011 C1012 1.410 . S
C1011 C1019 1.503 . S
C1012 C1011 1.410 . S
C1012 C1013 1.392 . S
C1012 C1015 1.511 . S
C1013 C1009 1.376 . S
C1013 C1012 1.392 . S
C1013 H1025 0.929 . S
C1014 C1010 1.531 . S
C1014 H1026 0.960 . S
C1014 H1027 0.962 . S
C1014 H1028 0.960 . S
C1015 C1012 1.511 . S
C1015 H1029 0.961 . S
C1015 H1030 0.961 . S
C1015 H1031 0.961 . S
C1016 C1017 1.370 . S
C1016 C1018 1.363 . S
C1016 H1032 0.931 . S
C1017 C1016 1.370 . S
C1017 C1021 1.408 . S
C1018 C1016 1.363 . S
C1018 C1019 1.370 . S
C1018 C1022 1.524 . S
C1019 C1011 1.503 . S
C1019 C1018 1.370 . S
C1019 C1020 1.403 . S
C1020 C1019 1.403 . S
C1020 C1021 1.404 . S
C1020 C1023 1.539 . S
C1021 C1017 1.408 . S
C1021 C1020 1.404 . S
C1021 H1033 0.930 . S
C1022 C1018 1.524 . S
C1022 H1034 0.956 . S
C1022 H1035 0.961 . S
C1022 H1036 0.961 . S
C1023 C1020 1.539 . S
C1023 H1037 0.958 . S
C1023 H1038 0.961 . S
C1023 H1039 0.960 . S
H1024 C1008 0.931 . S
H1025 C1013 0.929 . S
H1026 C1014 0.960 . S
H1027 C1014 0.962 . S
H1028 C1014 0.960 . S
H1029 C1015 0.961 . S
H1030 C1015 0.961 . S
H1031 C1015 0.961 . S
H1032 C1016 0.931 . S
H1033 C1021 0.930 . S
H1034 C1022 0.956 . S
H1035 C1022 0.961 . S
H1036 C1022 0.961 . S
H1037 C1023 0.958 . S
H1038 C1023 0.961 . S
H1039 C1023 0.960 . S
C1040 C1041 1.391 . S
C1040 C1042 1.394 . S
C1040 H1056 0.931 . S
C1041 C1040 1.391 . S
C1041 C1045 1.376 . S
C1042 C1040 1.394 . S
C1042 C1043 1.369 . S
C1042 C1046 1.531 . S
C1043 C1042 1.369 . S
C1043 C1044 1.410 . S
C1043 C1051 1.503 . S
C1044 C1043 1.410 . S
C1044 C1045 1.392 . S
C1044 C1047 1.511 . S
C1045 C1041 1.376 . S
C1045 C1044 1.392 . S
C1045 H1057 0.929 . S
C1046 C1042 1.531 . S
C1046 H1058 0.960 . S
C1046 H1059 0.962 . S
C1046 H1060 0.960 . S
C1047 C1044 1.511 . S
C1047 H1061 0.961 . S
C1047 H1062 0.961 . S
C1047 H1063 0.961 . S
C1048 C1049 1.370 . S
C1048 C1050 1.363 . S
C1048 H1064 0.931 . S
C1049 C1048 1.370 . S
C1049 C1053 1.408 . S
C1050 C1048 1.363 . S
C1050 C1051 1.370 . S
C1050 C1054 1.524 . S
C1051 C1043 1.503 . S
C1051 C1050 1.370 . S
C1051 C1052 1.403 . S
C1052 C1051 1.403 . S
C1052 C1053 1.404 . S
C1052 C1055 1.539 . S
C1053 C1049 1.408 . S
C1053 C1052 1.404 . S
C1053 H1065 0.930 . S
C1054 C1050 1.524 . S
C1054 H1066 0.956 . S
C1054 H1067 0.961 . S
C1054 H1068 0.961 . S
C1055 C1052 1.539 . S
C1055 H1069 0.958 . S
C1055 H1070 0.961 . S
C1055 H1071 0.960 . S
H1056 C1040 0.931 . S
H1057 C1045 0.929 . S
H1058 C1046 0.960 . S
H1059 C1046 0.962 . S
H1060 C1046 0.960 . S
H1061 C1047 0.961 . S
H1062 C1047 0.961 . S
H1063 C1047 0.961 . S
H1064 C1048 0.931 . S
H1065 C1053 0.930 . S
H1066 C1054 0.956 . S
H1067 C1054 0.961 . S
H1068 C1054 0.961 . S
H1069 C1055 0.958 . S
H1070 C1055 0.961 . S
H1071 C1055 0.960 . S
C1072 C1073 1.391 . S
C1072 C1074 1.394 . S
C1072 H1088 0.931 . S
C1073 C1072 1.391 . S
C1073 C1077 1.376 . S
C1074 C1072 1.394 . S
C1074 C1075 1.369 . S
C1074 C1078 1.531 . S
C1075 C1074 1.369 . S
C1075 C1076 1.410 . S
C1075 C1083 1.503 . S
C1076 C1075 1.410 . S
C1076 C1077 1.392 . S
C1076 C1079 1.511 . S
C1077 C1073 1.376 . S
C1077 C1076 1.392 . S
C1077 H1089 0.929 . S
C1078 C1074 1.531 . S
C1078 H1090 0.960 . S
C1078 H1091 0.962 . S
C1078 H1092 0.960 . S
C1079 C1076 1.511 . S
C1079 H1093 0.961 . S
C1079 H1094 0.961 . S
C1079 H1095 0.961 . S
C1080 C1081 1.370 . S
C1080 C1082 1.363 . S
C1080 H1096 0.931 . S
C1081 C1080 1.370 . S
C1081 C1085 1.408 . S
C1082 C1080 1.363 . S
C1082 C1083 1.370 . S
C1082 C1086 1.524 . S
C1083 C1075 1.503 . S
C1083 C1082 1.370 . S
C1083 C1084 1.403 . S
C1084 C1083 1.403 . S
C1084 C1085 1.404 . S
C1084 C1087 1.539 . S
C1085 C1081 1.408 . S
C1085 C1084 1.404 . S
C1085 H1097 0.930 . S
C1086 C1082 1.524 . S
C1086 H1098 0.956 . S
C1086 H1099 0.961 . S
C1086 H1100 0.961 . S
C1087 C1084 1.539 . S
C1087 H1101 0.958 . S
C1087 H1102 0.961 . S
C1087 H1103 0.960 . S
H1088 C1072 0.931 . S
H1089 C1077 0.929 . S
H1090 C1078 0.960 . S
H1091 C1078 0.962 . S
H1092 C1078 0.960 . S
H1093 C1079 0.961 . S
H1094 C1079 0.961 . S
H1095 C1079 0.961 . S
H1096 C1080 0.931 . S
H1097 C1085 0.930 . S
H1098 C1086 0.956 . S
H1099 C1086 0.961 . S
H1100 C1086 0.961 . S
H1101 C1087 0.958 . S
H1102 C1087 0.961 . S
H1103 C1087 0.960 . S
C1104 C1105 1.391 . S
C1104 C1106 1.394 . S
C1104 H1120 0.931 . S
C1105 C1104 1.391 . S
C1105 C1109 1.376 . S
C1106 C1104 1.394 . S
C1106 C1107 1.369 . S
C1106 C1110 1.531 . S
C1107 C1106 1.369 . S
C1107 C1108 1.410 . S
C1107 C1115 1.503 . S
C1108 C1107 1.410 . S
C1108 C1109 1.392 . S
C1108 C1111 1.511 . S
C1109 C1105 1.376 . S
C1109 C1108 1.392 . S
C1109 H1121 0.929 . S
C1110 C1106 1.531 . S
C1110 H1122 0.960 . S
C1110 H1123 0.962 . S
C1110 H1124 0.960 . S
C1111 C1108 1.511 . S
C1111 H1125 0.961 . S
C1111 H1126 0.961 . S
C1111 H1127 0.961 . S
C1112 C1113 1.370 . S
C1112 C1114 1.363 . S
C1112 H1128 0.931 . S
C1113 C1112 1.370 . S
C1113 C1117 1.408 . S
C1114 C1112 1.363 . S
C1114 C1115 1.370 . S
C1114 C1118 1.524 . S
C1115 C1107 1.503 . S
C1115 C1114 1.370 . S
C1115 C1116 1.403 . S
C1116 C1115 1.403 . S
C1116 C1117 1.404 . S
C1116 C1119 1.539 . S
C1117 C1113 1.408 . S
C1117 C1116 1.404 . S
C1117 H1129 0.930 . S
C1118 C1114 1.524 . S
C1118 H1130 0.956 . S
C1118 H1131 0.961 . S
C1118 H1132 0.961 . S
C1119 C1116 1.539 . S
C1119 H1133 0.958 . S
C1119 H1134 0.961 . S
C1119 H1135 0.960 . S
H1120 C1104 0.931 . S
H1121 C1109 0.929 . S
H1122 C1110 0.960 . S
H1123 C1110 0.962 . S
H1124 C1110 0.960 . S
H1125 C1111 0.961 . S
H1126 C1111 0.961 . S
H1127 C1111 0.961 . S
H1128 C1112 0.931 . S
H1129 C1117 0.930 . S
H1130 C1118 0.956 . S
H1131 C1118 0.961 . S
H1132 C1118 0.961 . S
H1133 C1119 0.958 . S
H1134 C1119 0.961 . S
H1135 C1119 0.960 . S
C1136 C1137 1.391 . S
C1136 C1138 1.394 . S
C1136 H1152 0.931 . S
C1137 C1136 1.391 . S
C1137 C1141 1.376 . S
C1138 C1136 1.394 . S
C1138 C1139 1.369 . S
C1138 C1142 1.531 . S
C1139 C1138 1.369 . S
C1139 C1140 1.410 . S
C1139 C1147 1.503 . S
C1140 C1139 1.410 . S
C1140 C1141 1.392 . S
C1140 C1143 1.511 . S
C1141 C1137 1.376 . S
C1141 C1140 1.392 . S
C1141 H1153 0.929 . S
C1142 C1138 1.531 . S
C1142 H1154 0.960 . S
C1142 H1155 0.962 . S
C1142 H1156 0.960 . S
C1143 C1140 1.511 . S
C1143 H1157 0.961 . S
C1143 H1158 0.961 . S
C1143 H1159 0.961 . S
C1144 C1145 1.370 . S
C1144 C1146 1.363 . S
C1144 H1160 0.931 . S
C1145 C1144 1.370 . S
C1145 C1149 1.408 . S
C1146 C1144 1.363 . S
C1146 C1147 1.370 . S
C1146 C1150 1.524 . S
C1147 C1139 1.503 . S
C1147 C1146 1.370 . S
C1147 C1148 1.403 . S
C1148 C1147 1.403 . S
C1148 C1149 1.404 . S
C1148 C1151 1.539 . S
C1149 C1145 1.408 . S
C1149 C1148 1.404 . S
C1149 H1161 0.930 . S
C1150 C1146 1.524 . S
C1150 H1162 0.956 . S
C1150 H1163 0.961 . S
C1150 H1164 0.961 . S
C1151 C1148 1.539 . S
C1151 H1165 0.958 . S
C1151 H1166 0.961 . S
C1151 H1167 0.960 . S
H1152 C1136 0.931 . S
H1153 C1141 0.929 . S
H1154 C1142 0.960 . S
H1155 C1142 0.962 . S
H1156 C1142 0.960 . S
H1157 C1143 0.961 . S
H1158 C1143 0.961 . S
H1159 C1143 0.961 . S
H1160 C1144 0.931 . S
H1161 C1149 0.930 . S
H1162 C1150 0.956 . S
H1163 C1150 0.961 . S
H1164 C1150 0.961 . S
H1165 C1151 0.958 . S
H1166 C1151 0.961 . S
H1167 C1151 0.960 . S
C1168 C1169 1.391 . S
C1168 C1170 1.394 . S
C1168 H1184 0.931 . S
C1169 C1168 1.391 . S
C1169 C1173 1.376 . S
C1170 C1168 1.394 . S
C1170 C1171 1.369 . S
C1170 C1174 1.531 . S
C1171 C1170 1.369 . S
C1171 C1172 1.410 . S
C1171 C1179 1.503 . S
C1172 C1171 1.410 . S
C1172 C1173 1.392 . S
C1172 C1175 1.511 . S
C1173 C1169 1.376 . S
C1173 C1172 1.392 . S
C1173 H1185 0.929 . S
C1174 C1170 1.531 . S
C1174 H1186 0.960 . S
C1174 H1187 0.962 . S
C1174 H1188 0.960 . S
C1175 C1172 1.511 . S
C1175 H1189 0.961 . S
C1175 H1190 0.961 . S
C1175 H1191 0.961 . S
C1176 C1177 1.370 . S
C1176 C1178 1.363 . S
C1176 H1192 0.931 . S
C1177 C1176 1.370 . S
C1177 C1181 1.408 . S
C1178 C1176 1.363 . S
C1178 C1179 1.370 . S
C1178 C1182 1.524 . S
C1179 C1171 1.503 . S
C1179 C1178 1.370 . S
C1179 C1180 1.403 . S
C1180 C1179 1.403 . S
C1180 C1181 1.404 . S
C1180 C1183 1.539 . S
C1181 C1177 1.408 . S
C1181 C1180 1.404 . S
C1181 H1193 0.930 . S
C1182 C1178 1.524 . S
C1182 H1194 0.956 . S
C1182 H1195 0.961 . S
C1182 H1196 0.961 . S
C1183 C1180 1.539 . S
C1183 H1197 0.958 . S
C1183 H1198 0.961 . S
C1183 H1199 0.960 . S
H1184 C1168 0.931 . S
H1185 C1173 0.929 . S
H1186 C1174 0.960 . S
H1187 C1174 0.962 . S
H1188 C1174 0.960 . S
H1189 C1175 0.961 . S
H1190 C1175 0.961 . S
H1191 C1175 0.961 . S
H1192 C1176 0.931 . S
H1193 C1181 0.930 . S
H1194 C1182 0.956 . S
H1195 C1182 0.961 . S
H1196 C1182 0.961 . S
H1197 C1183 0.958 . S
H1198 C1183 0.961 . S
H1199 C1183 0.960 . S
C433 C302 1.244 . S
C441 C14 1.236 . S
C465 C50 1.192 . S
C473 C338 1.214 . S
C497 C86 1.190 . S
C505 C374 1.213 . S
C529 C122 1.207 . S
C537 C410 1.218 . S
C561 C230 1.184 . S
C569 C158 1.210 . S
C593 C194 1.258 . S
C601 C266 1.240 . S
C625 C4 1.527 . S
C633 C183 1.525 . S
C657 C40 1.530 . S
C665 C3 1.529 1_655 S
C689 C76 1.489 . S
C697 C39 1.528 1_565 S
C721 C75 1.516 . S
C729 C112 1.518 . S
C753 C111 1.529 1_455 S
C761 C148 1.522 . S
C785 C147 1.521 1_545 S
C793 C184 1.505 . S
C817 C255 1.534 . S
C825 C220 1.521 . S
C849 C256 1.512 . S
C857 C291 1.510 1_656 S
C881 C327 1.525 1_565 S
C889 C292 1.505 . S
C913 C328 1.520 . S
C921 C363 1.534 . S
C945 C364 1.526 . S
C953 C399 1.527 1_455 S
C977 C400 1.508 . S
C985 C219 1.534 1_545 S
C1009 C362 1.260 . S
C1017 C2 1.249 . S
C1041 C398 1.235 . S
C1049 C38 1.243 . S
C1073 C218 1.228 . S
C1081 C74 1.240 . S
C1105 C110 1.217 . S
C1113 C254 1.235 . S
C1137 C146 1.215 . S
C1145 C290 1.232 . S
C1169 C326 1.258 . S
C1177 C182 1.250 . S
