# Generated by pormake.
# Topology rac, (4)-cn, num edge types: 1
# Building blocks:
#     Node 0, Type 0, BuildingBlock: UXUYUI_clean_sbu_0, # of connection points: 4
#     Node 1, Type 0, BuildingBlock: UXUYUI_clean_sbu_0, # of connection points: 4
#     Node 2, Type 0, BuildingBlock: UXUYUI_clean_sbu_0, # of connection points: 4
#     Node 3, Type 0, BuildingBlock: UXUYUI_clean_sbu_0, # of connection points: 4
#     Node 4, Type 0, BuildingBlock: UXUYUI_clean_sbu_0, # of connection points: 4
#     Node 5, Type 0, BuildingBlock: UXUYUI_clean_sbu_0, # of connection points: 4
#     Node 6, Type 0, BuildingBlock: UXUYUI_clean_sbu_0, # of connection points: 4
#     Node 7, Type 0, BuildingBlock: UXUYUI_clean_sbu_0, # of connection points: 4
#     Edge 8, Type (0, 0), BuildingBlock: AJUNOK_clean_linker_0, # of connection points: 2
#     Edge 9, Type (0, 0), BuildingBlock: AJUNOK_clean_linker_0, # of connection points: 2
#     Edge 10, Type (0, 0), BuildingBlock: AJUNOK_clean_linker_0, # of connection points: 2
#     Edge 11, Type (0, 0), BuildingBlock: AJUNOK_clean_linker_0, # of connection points: 2
#     Edge 12, Type (0, 0), BuildingBlock: AJUNOK_clean_linker_0, # of connection points: 2
#     Edge 13, Type (0, 0), BuildingBlock: AJUNOK_clean_linker_0, # of connection points: 2
#     Edge 14, Type (0, 0), BuildingBlock: AJUNOK_clean_linker_0, # of connection points: 2
#     Edge 15, Type (0, 0), BuildingBlock: AJUNOK_clean_linker_0, # of connection points: 2
#     Edge 16, Type (0, 0), BuildingBlock: AJUNOK_clean_linker_0, # of connection points: 2
#     Edge 17, Type (0, 0), BuildingBlock: AJUNOK_clean_linker_0, # of connection points: 2
#     Edge 18, Type (0, 0), BuildingBlock: AJUNOK_clean_linker_0, # of connection points: 2
#     Edge 19, Type (0, 0), BuildingBlock: AJUNOK_clean_linker_0, # of connection points: 2
#     Edge 20, Type (0, 0), BuildingBlock: AJUNOK_clean_linker_0, # of connection points: 2
#     Edge 21, Type (0, 0), BuildingBlock: AJUNOK_clean_linker_0, # of connection points: 2
#     Edge 22, Type (0, 0), BuildingBlock: AJUNOK_clean_linker_0, # of connection points: 2
#     Edge 23, Type (0, 0), BuildingBlock: AJUNOK_clean_linker_0, # of connection points: 2
# Relax obj value: 0.361
# Max RMSD: 0.174
# Mean RMSD: 0.174
data_MOF--net-rac--node1-UXUYUI_clean_sbu_0--edge1-AJUNOK_clean_linker_0
_symmetry_space_group_name_H-M    P1
_symmetry_Int_Tables_number       1
_symmetry_cell_setting            triclinic
loop_
_symmetry_equiv_pos_as_xyz
'x, y, z'
_cell_length_a     47.178173
_cell_length_b     24.241326
_cell_length_c     50.770427
_cell_angle_alpha  90.031431
_cell_angle_beta   89.975919
_cell_angle_gamma 90.018221
loop_
_atom_site_label
_atom_site_type_symbol
_atom_site_fract_x
_atom_site_fract_y
_atom_site_fract_z
_atom_type_partial_charge
Li0 Li 0.41244 0.27684 0.06145 0.0
Li1 Li 0.40107 0.24691 0.10695 0.0
Li2 Li 0.376 0.20006 0.06764 0.0
Li3 Li 0.36576 0.29379 0.08041 0.0
C4 C 0.44549 0.18323 0.07633 0.0
N5 N 0.50115 0.14828 0.07397 0.0
C6 C 0.46607 0.20847 0.092 0.0
C7 C 0.45313 0.13989 0.05962 0.0
C8 C 0.49412 0.1903 0.09049 0.0
C9 C 0.4814 0.12293 0.05864 0.0
C10 C 0.41177 0.36184 0.109 0.0
C11 C 0.40578 0.41715 0.14814 0.0
N12 N 0.43137 0.44119 0.14364 0.0
C13 C 0.43796 0.3873 0.10473 0.0
C14 C 0.39549 0.37708 0.13083 0.0
C15 C 0.44751 0.42726 0.12246 0.0
C16 C 0.4267 0.35819 0.02518 0.0
N17 N 0.43931 0.31872 0.04025 0.0
C18 C 0.4845 0.36252 0.03414 0.0
C19 C 0.46787 0.31935 0.04426 0.0
C20 C 0.47168 0.40499 0.01953 0.0
C21 C 0.44257 0.40133 0.01431 0.0
H22 H 0.40392 0.35845 0.02304 0.0
H23 H 0.47755 0.28898 0.05687 0.0
C24 C 0.39781 0.20508 0.15859 0.0
N25 N 0.41336 0.239 0.1429 0.0
C26 C 0.40123 0.2064 0.18592 0.0
C27 C 0.43778 0.27519 0.18045 0.0
C28 C 0.43381 0.27221 0.15323 0.0
C29 C 0.42091 0.24291 0.19724 0.0
H30 H 0.38165 0.17906 0.14998 0.0
H31 H 0.44609 0.29874 0.14055 0.0
C32 C 0.37726 0.25339 0.01872 0.0
N33 N 0.38358 0.22697 0.96615 0.0
C34 C 0.36029 0.27892 0.99977 0.0
C35 C 0.39747 0.21454 0.01098 0.0
C36 C 0.36379 0.26496 0.97328 0.0
C37 C 0.40034 0.20172 0.98429 0.0
C38 C 0.33559 0.23213 0.11476 0.0
C39 C 0.31103 0.2074 0.10482 0.0
C40 C 0.33414 0.26212 0.13824 0.0
C41 C 0.28535 0.21436 0.1181 0.0
C42 C 0.30808 0.26811 0.15098 0.0
N43 N 0.28441 0.2444 0.14071 0.0
C44 C 0.35172 0.09177 0.07272 0.0
C45 C 0.33276 0.14678 0.03848 0.0
C46 C 0.32859 0.05538 0.07095 0.0
N47 N 0.35308 0.13723 0.057 0.0
C48 C 0.30931 0.11176 0.03618 0.0
C49 C 0.30643 0.06652 0.05321 0.0
H50 H 0.36737 0.08609 0.08806 0.0
H51 H 0.33328 0.18418 0.02701 0.0
C52 C 0.33877 0.39582 0.08705 0.0
N53 N 0.33562 0.34234 0.07974 0.0
C54 C 0.31568 0.43121 0.08622 0.0
C55 C 0.28701 0.35617 0.06928 0.0
C56 C 0.31075 0.32241 0.07021 0.0
C57 C 0.28948 0.41096 0.07759 0.0
H58 H 0.35917 0.4112 0.09314 0.0
H59 H 0.3095 0.28038 0.06319 0.0
O60 O 0.41787 0.19992 0.07772 0.0
O61 O 0.40227 0.32213 0.09194 0.0
O62 O 0.37411 0.26695 0.04469 0.0
O63 O 0.36092 0.22641 0.1018 0.0
H64 H 0.46054 0.24236 0.10479 0.0
H65 H 0.43735 0.11946 0.04758 0.0
H66 H 0.51031 0.20975 0.10238 0.0
H67 H 0.48764 0.08953 0.04575 0.0
H68 H 0.39338 0.42921 0.16512 0.0
H69 H 0.45089 0.37624 0.08801 0.0
H70 H 0.37504 0.35856 0.13427 0.0
H71 H 0.46778 0.44715 0.11939 0.0
H72 H 0.50695 0.36385 0.03855 0.0
H73 H 0.43184 0.43346 0.00335 0.0
H74 H 0.38795 0.18045 0.19814 0.0
H75 H 0.45285 0.30466 0.18826 0.0
H76 H 0.34457 0.30917 0.00552 0.0
H77 H 0.4108 0.19459 0.02538 0.0
H78 H 0.35078 0.28434 0.95838 0.0
H79 H 0.4159 0.17171 0.97801 0.0
H80 H 0.31158 0.18377 0.08682 0.0
H81 H 0.35294 0.28029 0.14668 0.0
H82 H 0.26618 0.19592 0.11042 0.0
H83 H 0.30669 0.29147 0.1691 0.0
H84 H 0.3271 0.02106 0.08453 0.0
H85 H 0.29284 0.12161 0.0221 0.0
H86 H 0.31815 0.47375 0.09238 0.0
H87 H 0.26712 0.34005 0.06188 0.0
Li88 Li 0.0916 0.73186 0.06075 0.0
Li89 Li 0.10259 0.76274 0.10751 0.0
Li90 Li 0.13029 0.80291 0.06822 0.0
Li91 Li 0.13414 0.70914 0.08082 0.0
C92 C 0.06073 0.82721 0.07538 0.0
N93 N 0.00505 0.86137 0.07154 0.0
C94 C 0.03979 0.80201 0.09065 0.0
C95 C 0.05344 0.87016 0.05834 0.0
C96 C 0.01174 0.81974 0.08838 0.0
C97 C 0.02514 0.88675 0.05662 0.0
C98 C 0.10006 0.63577 0.10074 0.0
C99 C 0.11264 0.56857 0.13374 0.0
N100 N 0.1099 0.52778 0.11551 0.0
C101 C 0.09731 0.59317 0.08235 0.0
C102 C 0.10776 0.62342 0.12666 0.0
C103 C 0.1024 0.53885 0.0902 0.0
C104 C 0.0706 0.66795 0.01706 0.0
N105 N 0.06301 0.69229 0.04023 0.0
C106 C 0.02257 0.63226 0.04333 0.0
C107 C 0.03919 0.67565 0.05317 0.0
C108 C 0.03056 0.60508 0.02 0.0
C109 C 0.05461 0.6245 0.00655 0.0
H110 H 0.09032 0.67866 0.00767 0.0
H111 H 0.03424 0.69289 0.07224 0.0
C112 C 0.10447 0.80988 0.1583 0.0
N113 N 0.09022 0.7733 0.14293 0.0
C114 C 0.1007 0.80955 0.18561 0.0
C115 C 0.0666 0.73588 0.1806 0.0
C116 C 0.07101 0.73764 0.15339 0.0
C117 C 0.08207 0.77126 0.19714 0.0
H118 H 0.11994 0.83718 0.14949 0.0
H119 H 0.06048 0.70805 0.1408 0.0
C120 C 0.12825 0.75511 0.01922 0.0
N121 N 0.12421 0.79186 0.96784 0.0
C122 C 0.14682 0.73506 0.99999 0.0
C123 C 0.10761 0.79375 0.01228 0.0
C124 C 0.14445 0.7542 0.97414 0.0
C125 C 0.10589 0.81181 0.98621 0.0
C126 C 0.17126 0.77012 0.10965 0.0
C127 C 0.19248 0.76773 0.09046 0.0
C128 C 0.17861 0.76859 0.1363 0.0
C129 C 0.2208 0.76434 0.09828 0.0
C130 C 0.20718 0.76511 0.14332 0.0
N131 N 0.22751 0.76313 0.12433 0.0
C132 C 0.1586 0.9051 0.07748 0.0
C133 C 0.17346 0.86017 0.03849 0.0
C134 C 0.18162 0.94172 0.07591 0.0
N135 N 0.15511 0.86467 0.05912 0.0
C136 C 0.19677 0.89566 0.03625 0.0
C137 C 0.20149 0.93647 0.05538 0.0
H138 H 0.14458 0.90667 0.09433 0.0
H139 H 0.17138 0.82669 0.02468 0.0
C140 C 0.16492 0.62623 0.05843 0.0
N141 N 0.15987 0.65114 0.08192 0.0
C142 C 0.18419 0.58321 0.05685 0.0
C143 C 0.19166 0.59079 0.10396 0.0
C144 C 0.17245 0.63419 0.10457 0.0
C145 C 0.19776 0.56558 0.0798 0.0
H146 H 0.154 0.6399 0.04094 0.0
H147 H 0.1676 0.65441 0.123 0.0
O148 O 0.08828 0.81012 0.07712 0.0
O149 O 0.09579 0.68935 0.09328 0.0
O150 O 0.13046 0.73654 0.04459 0.0
O151 O 0.14341 0.77341 0.10239 0.0
H152 H 0.0451 0.76873 0.1039 0.0
H153 H 0.06946 0.89048 0.04655 0.0
H154 H 0.99528 0.80034 0.09997 0.0
H155 H 0.01917 0.91981 0.04345 0.0
H156 H 0.11882 0.55848 0.15368 0.0
H157 H 0.0917 0.60194 0.06214 0.0
H158 H 0.1106 0.65589 0.14103 0.0
H159 H 0.10048 0.50552 0.07614 0.0
H160 H 0.00431 0.61858 0.05448 0.0
H161 H 0.06219 0.6039 0.98898 0.0
H162 H 0.113 0.83755 0.19769 0.0
H163 H 0.05252 0.70491 0.18867 0.0
H164 H 0.16303 0.70531 0.00502 0.0
H165 H 0.09291 0.80926 0.02672 0.0
H166 H 0.15874 0.73915 0.9591 0.0
H167 H 0.08996 0.84163 0.98058 0.0
H168 H 0.18711 0.76751 0.06976 0.0
H169 H 0.16244 0.76977 0.1514 0.0
H170 H 0.23744 0.76239 0.08364 0.0
H171 H 0.2132 0.7639 0.16387 0.0
H172 H 0.18469 0.9718 0.09143 0.0
H173 H 0.21155 0.89 0.02014 0.0
H174 H 0.1886 0.56413 0.03799 0.0
H175 H 0.20216 0.57797 0.12192 0.0
Li176 Li 0.36757 0.21224 0.42674 0.0
Li177 Li 0.37408 0.3072 0.44016 0.0
Li178 Li 0.40169 0.26554 0.40123 0.0
Li179 Li 0.41266 0.23497 0.44696 0.0
C180 C 0.3366 0.27468 0.39104 0.0
N181 N 0.28791 0.26696 0.36093 0.0
C182 C 0.31115 0.29742 0.4001 0.0
C183 C 0.33731 0.24883 0.36643 0.0
C184 C 0.28676 0.29283 0.38468 0.0
C185 C 0.31248 0.24513 0.35157 0.0
C186 C 0.37576 0.25436 0.48875 0.0
C187 C 0.39634 0.3098 0.52322 0.0
N188 N 0.37987 0.28332 0.54121 0.0
C189 C 0.35907 0.22763 0.50756 0.0
C190 C 0.39458 0.29573 0.49659 0.0
C191 C 0.36144 0.2429 0.534 0.0
C192 C 0.34734 0.10403 0.4236 0.0
N193 N 0.3401 0.15786 0.42668 0.0
C194 C 0.29192 0.13436 0.43449 0.0
C195 C 0.31326 0.17356 0.4327 0.0
C196 C 0.29869 0.07871 0.43066 0.0
C197 C 0.32667 0.06339 0.42516 0.0
H198 H 0.36916 0.09241 0.42064 0.0
H199 H 0.30862 0.21635 0.4367 0.0
C200 C 0.34691 0.41268 0.43488 0.0
N201 N 0.3492 0.36744 0.45064 0.0
C202 C 0.32353 0.44827 0.43723 0.0
C203 C 0.30573 0.39137 0.47249 0.0
C204 C 0.32929 0.35685 0.46942 0.0
C205 C 0.30222 0.43728 0.45593 0.0
H206 H 0.36221 0.41914 0.41931 0.0
H207 H 0.33034 0.3193 0.48074 0.0
C208 C 0.41373 0.14935 0.39894 0.0
N209 N 0.43084 0.06659 0.36502 0.0
C210 C 0.43946 0.12214 0.40305 0.0
C211 C 0.39664 0.1342 0.37766 0.0
C212 C 0.44776 0.08047 0.38568 0.0
C213 C 0.40567 0.09235 0.36071 0.0
C214 C 0.4438 0.3306 0.43238 0.0
C215 C 0.46438 0.30558 0.41663 0.0
C216 C 0.45134 0.37421 0.44895 0.0
C217 C 0.49233 0.32445 0.41782 0.0
C218 C 0.47952 0.39187 0.44962 0.0
N219 N 0.49927 0.36683 0.43416 0.0
C220 C 0.39961 0.3124 0.35045 0.0
C221 C 0.43413 0.24209 0.35478 0.0
C222 C 0.40301 0.3125 0.32309 0.0
N223 N 0.41439 0.2762 0.36559 0.0
C224 C 0.43803 0.24047 0.32753 0.0
C225 C 0.42184 0.27502 0.31123 0.0
H226 H 0.38392 0.33891 0.35946 0.0
H227 H 0.44583 0.21385 0.36707 0.0
C228 C 0.42747 0.15498 0.48364 0.0
N229 N 0.43982 0.19427 0.46827 0.0
C230 C 0.44347 0.11188 0.4943 0.0
C231 C 0.48504 0.15023 0.47359 0.0
C232 C 0.46827 0.19334 0.46364 0.0
C233 C 0.47245 0.10794 0.48854 0.0
H234 H 0.40473 0.15456 0.4861 0.0
H235 H 0.4777 0.22335 0.45066 0.0
O236 O 0.36082 0.27941 0.40576 0.0
O237 O 0.37363 0.23963 0.46282 0.0
O238 O 0.40543 0.19061 0.41568 0.0
O239 O 0.41629 0.31312 0.43137 0.0
H240 H 0.31008 0.31784 0.41897 0.0
H241 H 0.35684 0.2323 0.35868 0.0
H242 H 0.26692 0.30987 0.39159 0.0
H243 H 0.31277 0.22513 0.33252 0.0
H244 H 0.41081 0.34177 0.52958 0.0
H245 H 0.34442 0.19545 0.50174 0.0
H246 H 0.40767 0.31675 0.48233 0.0
H247 H 0.34863 0.2226 0.54878 0.0
H248 H 0.27043 0.14726 0.43884 0.0
H249 H 0.33251 0.02049 0.42263 0.0
H250 H 0.32165 0.48299 0.42394 0.0
H251 H 0.28952 0.3801 0.4866 0.0
H252 H 0.45297 0.13317 0.41939 0.0
H253 H 0.37643 0.15391 0.3745 0.0
H254 H 0.46766 0.05918 0.38862 0.0
H255 H 0.39261 0.08022 0.34418 0.0
H256 H 0.45895 0.27132 0.40401 0.0
H257 H 0.43558 0.39427 0.46114 0.0
H258 H 0.50853 0.30523 0.40584 0.0
H259 H 0.48569 0.42553 0.46239 0.0
H260 H 0.39025 0.34012 0.31126 0.0
H261 H 0.45241 0.21021 0.3193 0.0
H262 H 0.43288 0.07989 0.50548 0.0
H263 H 0.50739 0.14875 0.46875 0.0
Li264 Li 0.12614 0.69802 0.44117 0.0
Li265 Li 0.13505 0.79436 0.42813 0.0
Li266 Li 0.08928 0.7729 0.44701 0.0
Li267 Li 0.10078 0.74269 0.40106 0.0
C268 C 0.12801 0.75691 0.48989 0.0
N269 N 0.12919 0.73873 0.54353 0.0
C270 C 0.14354 0.792 0.50627 0.0
C271 C 0.11327 0.71238 0.50069 0.0
C272 C 0.14382 0.78218 0.53338 0.0
C273 C 0.11408 0.70393 0.52788 0.0
C274 C 0.16258 0.7247 0.38941 0.0
C275 C 0.1854 0.75965 0.35031 0.0
N276 N 0.2062 0.72125 0.35307 0.0
C277 C 0.1842 0.68558 0.39186 0.0
C278 C 0.16322 0.76208 0.3685 0.0
C279 C 0.20606 0.68452 0.37331 0.0
C280 C 0.14982 0.5873 0.43964 0.0
N281 N 0.15043 0.63734 0.45185 0.0
C282 C 0.19608 0.61684 0.47027 0.0
C283 C 0.17286 0.65209 0.46719 0.0
C284 C 0.19666 0.56583 0.45716 0.0
C285 C 0.17285 0.55079 0.44203 0.0
H286 H 0.13245 0.57729 0.42658 0.0
H287 H 0.17379 0.69301 0.47556 0.0
C288 C 0.15939 0.89797 0.43581 0.0
N289 N 0.16473 0.84502 0.42868 0.0
C290 C 0.18138 0.93587 0.43731 0.0
C291 C 0.21423 0.86296 0.42591 0.0
C292 C 0.19156 0.82659 0.42456 0.0
C293 C 0.2091 0.91825 0.43222 0.0
H294 H 0.13826 0.91058 0.44095 0.0
H295 H 0.19552 0.78351 0.42088 0.0
C296 C 0.05655 0.68351 0.43537 0.0
N297 N 1.0002 0.66053 0.44527 0.0
C298 C 0.03546 0.70511 0.41907 0.0
C299 C 0.04904 0.64967 0.45653 0.0
C300 C 0.00708 0.69321 0.42446 0.0
C301 C 0.02042 0.63866 0.46125 0.0
C302 C 0.09587 0.87069 0.40659 0.0
C303 C 0.08645 0.91275 0.42333 0.0
C304 C 0.10327 0.88351 0.38063 0.0
C305 C 0.08479 0.96675 0.4139 0.0
C306 C 0.10133 0.93803 0.37193 0.0
N307 N 0.0922 0.97819 0.3886 0.0
C308 C 0.0649 0.83092 0.49175 0.0
C309 C 0.0376 0.83175 0.4527 0.0
C310 C 0.04839 0.87346 0.50247 0.0
N311 N 0.05982 0.81179 0.46695 0.0
C312 C 0.02067 0.87456 0.46262 0.0
C313 C 0.02646 0.89713 0.48755 0.0
H314 H 0.08295 0.81641 0.50268 0.0
H315 H 0.03454 0.81811 0.43264 0.0
C316 C 0.10334 0.69813 0.3496 0.0
N317 N 0.08907 0.73414 0.36526 0.0
C318 C 0.09995 0.69995 0.32227 0.0
C319 C 0.06594 0.77356 0.32781 0.0
C320 C 0.06999 0.77032 0.35504 0.0
C321 C 0.08158 0.73898 0.31102 0.0
H322 H 0.11852 0.67 0.3582 0.0
H323 H 0.05919 0.79903 0.3679 0.0
O324 O 0.12769 0.76579 0.46334 0.0
O325 O 0.14115 0.72667 0.40759 0.0
O326 O 0.0844 0.69517 0.43051 0.0
O327 O 0.09713 0.81723 0.41536 0.0
H328 H 0.15518 0.8265 0.4981 0.0
H329 H 0.10147 0.68464 0.48816 0.0
H330 H 0.15567 0.80907 0.54634 0.0
H331 H 0.10273 0.66966 0.53654 0.0
H332 H 0.1861 0.78835 0.33401 0.0
H333 H 0.1843 0.65659 0.40799 0.0
H334 H 0.14683 0.79267 0.36636 0.0
H335 H 0.22294 0.65454 0.37503 0.0
H336 H 0.2142 0.63101 0.48148 0.0
H337 H 0.1725 0.51206 0.43139 0.0
H338 H 0.17677 0.97838 0.44231 0.0
H339 H 0.23555 0.848 0.42245 0.0
H340 H 0.04094 0.73123 0.40259 0.0
H341 H 0.06512 0.63178 0.46907 0.0
H342 H 0.99051 0.70999 0.41211 0.0
H343 H 0.01429 0.61262 0.47759 0.0
H344 H 0.08124 0.90427 0.44363 0.0
H345 H 0.11021 0.85183 0.36719 0.0
H346 H 0.07773 0.99962 0.42675 0.0
H347 H 0.10699 0.94837 0.35189 0.0
H348 H 0.05401 0.89009 0.52157 0.0
H349 H 0.00402 0.89156 0.45039 0.0
H350 H 0.1123 0.67239 0.31 0.0
H351 H 0.05195 0.80491 0.31996 0.0
Li352 Li 0.59343 0.73285 0.94598 0.0
Li353 Li 0.63777 0.71902 0.92525 0.0
Li354 Li 0.62922 0.80935 0.93863 0.0
Li355 Li 0.60378 0.76827 0.89915 0.0
C356 C 0.62802 0.75859 0.98751 0.0
N357 N 0.62014 0.78966 0.03939 0.0
C358 C 0.64587 0.73811 0.0072 0.0
C359 C 0.60604 0.79456 0.99429 0.0
C360 C 0.64157 0.75439 0.03329 0.0
C361 C 0.60245 0.80987 0.02059 0.0
C362 C 0.60167 0.63803 0.90739 0.0
C363 C 0.59876 0.56281 0.87641 0.0
N364 N 0.60369 0.52652 0.89631 0.0
C365 C 0.60681 0.60003 0.92752 0.0
C366 C 0.59767 0.61935 0.88161 0.0
C367 C 0.60772 0.54382 0.92152 0.0
C368 C 0.53944 0.6819 0.95686 0.0
N369 N 0.56616 0.69001 0.96621 0.0
C370 C 0.56045 0.61475 0.99646 0.0
C371 C 0.57656 0.65795 0.98599 0.0
C372 C 0.53307 0.60419 0.98678 0.0
C373 C 0.52241 0.63934 0.96703 0.0
H374 H 0.53191 0.70636 0.94048 0.0
H375 H 0.59827 0.66273 0.99225 0.0
C376 C 0.68696 0.67334 0.94341 0.0
N377 N 0.66779 0.66889 0.92356 0.0
C378 C 0.71022 0.63837 0.94424 0.0
C379 C 0.69365 0.59544 0.90397 0.0
C380 C 0.67094 0.63185 0.9037 0.0
C381 C 0.71337 0.59868 0.9245 0.0
H382 H 0.68425 0.70442 0.95844 0.0
H383 H 0.65605 0.63082 0.88759 0.0
C384 C 0.57747 0.86253 0.92713 0.0
N385 N 0.55994 0.97041 0.92095 0.0
C386 C 0.58744 0.89386 0.906 0.0
C387 C 0.55849 0.88589 0.94508 0.0
C388 C 0.57837 0.94838 0.90323 0.0
C389 C 0.54989 0.94055 0.94162 0.0
C390 C 0.66941 0.77399 0.89303 0.0
C391 C 0.69453 0.7878 0.90607 0.0
C392 C 0.67065 0.74595 0.86898 0.0
C393 C 0.7205 0.77331 0.89481 0.0
C394 C 0.69705 0.73224 0.85837 0.0
N395 N 0.72121 0.74606 0.8714 0.0
C396 C 0.6661 0.87604 0.97211 0.0
C397 C 0.65916 0.9077 0.92854 0.0
C398 C 0.68923 0.91182 0.97531 0.0
N399 N 0.65185 0.87364 0.94878 0.0
C400 C 0.68222 0.94381 0.93086 0.0
C401 C 0.69811 0.94525 0.95425 0.0
H402 H 0.66107 0.84768 0.98774 0.0
H403 H 0.64859 0.90374 0.90976 0.0
C404 C 0.56666 0.74834 0.85614 0.0
N405 N 0.58986 0.77716 0.86409 0.0
C406 C 0.56009 0.74428 0.82934 0.0
C407 C 0.60036 0.80246 0.81964 0.0
C408 C 0.60615 0.80536 0.84657 0.0
C409 C 0.57765 0.77005 0.81066 0.0
H410 H 0.55422 0.7259 0.87048 0.0
H411 H 0.62465 0.82755 0.85337 0.0
O412 O 0.63197 0.74243 0.96194 0.0
O413 O 0.60069 0.69325 0.91282 0.0
O414 O 0.58627 0.80925 0.93033 0.0
O415 O 0.64375 0.78645 0.90409 0.0
H416 H 0.66283 0.70981 1.00239 0.0
H417 H 0.59184 0.81044 0.97952 0.0
H418 H 0.65525 0.7389 0.0487 0.0
H419 H 0.58555 0.83777 0.02607 0.0
H420 H 0.59576 0.54779 0.85653 0.0
H421 H 0.61068 0.61382 0.94742 0.0
H422 H 0.59408 0.64815 0.86571 0.0
H423 H 0.61178 0.51397 0.93689 0.0
H424 H 0.57015 0.58786 0.01088 0.0
H425 H 0.50147 0.63288 0.95887 0.0
H426 H 0.72529 0.64158 0.96027 0.0
H427 H 0.69593 0.56534 0.88833 0.0
H428 H 0.6022 0.87644 0.89202 0.0
H429 H 0.55045 0.86204 0.96148 0.0
H430 H 0.58602 0.9732 0.88701 0.0
H431 H 0.53522 0.95922 0.95537 0.0
H432 H 0.69402 0.80861 0.92491 0.0
H433 H 0.65145 0.73377 0.85891 0.0
H434 H 0.74009 0.78346 0.90477 0.0
H435 H 0.69831 0.71022 0.83987 0.0
H436 H 0.70114 0.91066 0.99353 0.0
H437 H 0.68829 0.96878 0.91409 0.0
H438 H 0.54207 0.71973 0.82323 0.0
H439 H 0.61447 0.82282 0.8059 0.0
Li440 Li 0.91336 0.2743 0.94637 0.0
Li441 Li 0.86932 0.29954 0.92451 0.0
Li442 Li 0.87501 0.2036 0.93729 0.0
Li443 Li 0.90135 0.24135 0.8993 0.0
C444 C 0.87142 0.25483 0.98598 0.0
N445 N 0.86528 0.2213 0.03761 0.0
C446 C 0.84848 0.27348 1.00091 0.0
C447 C 0.89123 0.21911 0.99722 0.0
C448 C 0.84574 0.25605 0.02701 0.0
C449 C 0.88777 0.20265 0.02339 0.0
C450 C 0.90654 0.37002 0.90481 0.0
C451 C 0.89491 0.43692 0.87137 0.0
N452 N 0.90281 0.47819 0.88797 0.0
C453 C 0.91461 0.41313 0.92152 0.0
C454 C 0.8967 0.382 0.8795 0.0
C455 C 0.91256 0.46751 0.91265 0.0
C456 C 0.9663 0.32653 0.95515 0.0
N457 N 0.94135 0.31355 0.96713 0.0
C458 C 0.94897 0.38438 0.99943 0.0
C459 C 0.93284 0.34074 0.98926 0.0
C460 C 0.9738 0.40116 0.98644 0.0
C461 C 0.98296 0.37026 0.96457 0.0
H462 H 0.97213 0.30597 0.93703 0.0
H463 H 0.91241 0.33192 0.99785 0.0
C464 C 0.81993 0.35191 0.9081 0.0
N465 N 0.84308 0.35621 0.92377 0.0
C466 C 0.79956 0.39308 0.9083 0.0
C467 C 0.82678 0.44128 0.9416 0.0
C468 C 0.84677 0.39918 0.9406 0.0
C469 C 0.80292 0.43826 0.92523 0.0
H470 H 0.81689 0.31605 0.89593 0.0
H471 H 0.86496 0.40005 0.95355 0.0
C472 C 0.92451 0.1431 0.93008 0.0
N473 N 0.93864 0.03256 0.93012 0.0
C474 C 0.91659 0.10939 0.90903 0.0
C475 C 0.93972 0.12075 0.95113 0.0
C476 C 0.92394 0.05358 0.90939 0.0
C477 C 0.9466 0.0647 0.95082 0.0
C478 C 0.84651 0.2161 0.88206 0.0
C479 C 0.83615 0.16216 0.88051 0.0
C480 C 0.84298 0.25171 0.86064 0.0
C481 C 0.82239 0.1448 0.85761 0.0
C482 C 0.82912 0.2328 0.83808 0.0
N483 N 0.81919 0.18017 0.83704 0.0
C484 C 0.82353 0.1676 0.95521 0.0
C485 C 0.85285 0.09017 0.94724 0.0
C486 C 0.79998 0.13363 0.95916 0.0
N487 N 0.84929 0.14583 0.94905 0.0
C488 C 0.8296 0.05452 0.95068 0.0
C489 C 0.80262 0.07629 0.95641 0.0
H490 H 0.82089 0.21191 0.95565 0.0
H491 H 0.87321 0.07337 0.94185 0.0
C492 C 0.93474 0.27056 0.85545 0.0
N493 N 0.91556 0.23253 0.86386 0.0
C494 C 0.94083 0.27602 0.82862 0.0
C495 C 0.90889 0.20052 0.8197 0.0
C496 C 0.9037 0.19607 0.8467 0.0
C497 C 0.92681 0.24233 0.81023 0.0
H498 H 0.94417 0.29878 0.86943 0.0
H499 H 0.88881 0.16559 0.8536 0.0
O500 O 0.87414 0.2708 0.9603 0.0
O501 O 0.90833 0.31642 0.91315 0.0
O502 O 0.91776 0.19789 0.92994 0.0
O503 O 0.85997 0.23384 0.9044 0.0
H504 H 0.83292 0.301 0.99237 0.0
H505 H 0.90908 0.20444 0.98587 0.0
H506 H 0.82807 0.2701 0.03882 0.0
H507 H 0.90295 0.17505 0.03237 0.0
H508 H 0.88728 0.44672 0.85183 0.0
H509 H 0.92207 0.40494 0.94123 0.0
H510 H 0.89056 0.34928 0.86623 0.0
H511 H 0.91866 0.50122 0.92542 0.0
H512 H 0.941 0.40727 0.0162 0.0
H513 H 1.00214 0.38137 0.95412 0.0
H514 H 0.78123 0.38939 0.89557 0.0
H515 H 0.82956 0.47492 0.95542 0.0
H516 H 0.90455 0.12595 0.8928 0.0
H517 H 0.94628 0.14644 0.96747 0.0
H518 H 0.91782 0.02694 0.89326 0.0
H519 H 0.95833 0.04678 0.96699 0.0
H520 H 0.83882 0.1338 0.89671 0.0
H521 H 0.85088 0.29351 0.8614 0.0
H522 H 0.81431 0.10315 0.85616 0.0
H523 H 0.82629 0.25994 0.82138 0.0
H524 H 0.77953 0.15237 0.96293 0.0
H525 H 0.83252 0.0105 0.94824 0.0
H526 H 0.95559 0.30756 0.8223 0.0
H527 H 0.89771 0.17341 0.80629 0.0
Li528 Li 0.60208 0.74048 0.60892 0.0
Li529 Li 0.62897 0.70499 0.57063 0.0
Li530 Li 0.63539 0.79585 0.58492 0.0
Li531 Li 0.5924 0.77891 0.56222 0.0
C532 C 0.67153 0.72105 0.60849 0.0
N533 N 0.72912 0.7049 0.61479 0.0
C534 C 0.69006 0.72996 0.5874 0.0
C535 C 0.68237 0.7046 0.63286 0.0
C536 C 0.71907 0.72126 0.59094 0.0
C537 C 0.71153 0.69658 0.63564 0.0
C538 C 0.57752 0.64742 0.57749 0.0
C539 C 0.55182 0.57126 0.55843 0.0
N540 N 0.56023 0.53859 0.57875 0.0
C541 C 0.58569 0.61327 0.59828 0.0
C542 C 0.56028 0.62645 0.55747 0.0
C543 C 0.57684 0.5583 0.59852 0.0
C544 C 0.5666 0.76332 0.65253 0.0
N545 N 0.58769 0.72986 0.64366 0.0
C546 C 0.597 0.69834 0.68741 0.0
C547 C 0.60247 0.6969 0.66038 0.0
C548 C 0.57622 0.73431 0.69733 0.0
C549 C 0.56052 0.76629 0.67946 0.0
H550 H 0.55572 0.79024 0.63888 0.0
H551 H 0.61959 0.67175 0.65293 0.0
C552 C 0.66887 0.64382 0.53794 0.0
N553 N 0.65236 0.64123 0.55997 0.0
C554 C 0.69222 0.60872 0.53485 0.0
C555 C 0.68047 0.56574 0.5762 0.0
C556 C 0.65747 0.6021 0.57867 0.0
C557 C 0.69882 0.57021 0.55452 0.0
H558 H 0.66554 0.67568 0.52356 0.0
H559 H 0.64522 0.60195 0.59664 0.0
C560 C 0.60182 0.86808 0.60626 0.0
N561 N 0.61362 0.97187 0.62589 0.0
C562 C 0.59881 0.9145 0.5902 0.0
C563 C 0.6107 0.87443 0.63235 0.0
C564 C 0.60493 0.96662 0.60047 0.0
C565 C 0.61658 0.92726 0.6419 0.0
C566 C 0.63009 0.75852 0.52204 0.0
C567 C 0.64953 0.78021 0.50403 0.0
C568 C 0.60887 0.72276 0.51326 0.0
C569 C 0.64755 0.76529 0.47751 0.0
C570 C 0.60759 0.70884 0.4866 0.0
N571 N 0.6268 0.73019 0.46942 0.0
C572 C 0.67679 0.85808 0.61136 0.0
C573 C 0.66577 0.88491 0.5675 0.0
C574 C 0.69718 0.89925 0.61315 0.0
N575 N 0.66195 0.85158 0.58866 0.0
C576 C 0.68575 0.92686 0.5685 0.0
C577 C 0.70174 0.93385 0.59149 0.0
H578 H 0.67285 0.83117 0.62793 0.0
H579 H 0.65336 0.87857 0.54985 0.0
C580 C 0.53851 0.82813 0.54946 0.0
N581 N 0.56583 0.82172 0.54139 0.0
C582 C 0.52175 0.87097 0.53922 0.0
C583 C 0.56124 0.89902 0.51219 0.0
C584 C 0.57716 0.8558 0.52285 0.0
C585 C 0.53326 0.9079 0.52066 0.0
H586 H 0.53025 0.80218 0.565 0.0
H587 H 0.5993 0.85249 0.51777 0.0
O588 O 0.64302 0.72982 0.60562 0.0
O589 O 0.58598 0.70134 0.57691 0.0
O590 O 0.59678 0.81656 0.59634 0.0
O591 O 0.6318 0.77319 0.548 0.0
H592 H 0.68218 0.7437 0.56851 0.0
H593 H 0.66845 0.6984 0.64953 0.0
H594 H 0.73361 0.72775 0.57475 0.0
H595 H 0.72019 0.68384 0.6544 0.0
H596 H 0.53852 0.55443 0.54304 0.0
H597 H 0.59891 0.62895 0.61394 0.0
H598 H 0.55339 0.65255 0.54141 0.0
H599 H 0.58317 0.53132 0.61443 0.0
H600 H 0.61008 0.67401 0.70052 0.0
H601 H 0.54446 0.79475 0.68636 0.0
H602 H 0.70571 0.61324 0.51771 0.0
H603 H 0.68495 0.53688 0.59193 0.0
H604 H 0.59214 0.91037 0.56994 0.0
H605 H 0.61356 0.83889 0.64495 0.0
H606 H 0.60286 1.00287 0.58821 0.0
H607 H 0.62365 0.93277 0.66199 0.0
H608 H 0.66602 0.80813 0.51052 0.0
H609 H 0.5935 0.70612 0.5268 0.0
H610 H 0.6625 0.78163 0.46337 0.0
H611 H 0.59129 0.68113 0.47955 0.0
H612 H 0.70929 0.90401 0.63114 0.0
H613 H 0.68915 0.9527 0.55138 0.0
H614 H 0.50032 0.8763 0.54644 0.0
H615 H 0.57145 0.9273 0.49868 0.0
Li616 Li 0.87352 0.30615 0.56809 0.0
Li617 Li 0.8999 0.26723 0.60756 0.0
Li618 Li 0.91023 0.23164 0.56117 0.0
Li619 Li 0.86622 0.21528 0.58198 0.0
C620 C 0.92608 0.36124 0.57745 0.0
N621 N 0.94537 0.46869 0.57986 0.0
C622 C 0.91913 0.39453 0.59896 0.0
C623 C 0.94311 0.38231 0.5573 0.0
C624 C 0.92901 0.44882 0.59978 0.0
C625 C 0.95258 0.43682 0.55884 0.0
C626 C 0.83431 0.27046 0.61444 0.0
C627 C 0.80783 0.2301 0.65024 0.0
N628 N 0.78327 0.24155 0.63735 0.0
C629 C 0.80878 0.28197 0.6016 0.0
C630 C 0.83385 0.24435 0.63899 0.0
C631 C 0.78321 0.26696 0.61348 0.0
C632 C 0.82929 0.35819 0.53889 0.0
N633 N 0.84977 0.36826 0.55722 0.0
C634 C 0.82564 0.45114 0.5704 0.0
C635 C 0.84843 0.4142 0.57265 0.0
C636 C 0.80363 0.44028 0.55246 0.0
C637 C 0.80605 0.3937 0.53619 0.0
H638 H 0.82955 0.32023 0.5278 0.0
H639 H 0.86381 0.42022 0.58811 0.0
C640 C 0.93558 0.2474 0.65171 0.0
N641 N 0.91333 0.27757 0.64267 0.0
C642 C 0.9417 0.24598 0.67868 0.0
C643 C 0.90239 0.3078 0.68632 0.0
C644 C 0.89722 0.30845 0.65926 0.0
C645 C 0.92464 0.27563 0.69645 0.0
H646 H 0.94775 0.22246 0.63812 0.0
H647 H 0.87924 0.33106 0.65165 0.0
C648 C 0.87439 0.25356 0.51948 0.0
N649 N 0.88004 0.28349 0.46725 0.0
C650 C 0.8607 0.22321 0.49983 0.0
C651 C 0.89077 0.29936 0.51259 0.0
C652 C 0.86389 0.23891 0.47352 0.0
C653 C 0.8934 0.31379 0.48607 0.0
C654 C 0.90594 0.13521 0.59381 0.0
C655 C 0.89832 0.10589 0.57116 0.0
C656 C 0.91653 0.10695 0.61565 0.0
C657 C 0.90187 0.04872 0.57063 0.0
C658 C 0.91967 0.04971 0.61437 0.0
N659 N 0.91239 0.02204 0.59206 0.0
C660 C 0.96078 0.16988 0.55656 0.0
C661 C 0.9339 0.16947 0.51724 0.0
C662 C 0.97702 0.12522 0.54757 0.0
N663 N 0.93902 0.18998 0.54179 0.0
C664 C 0.94974 0.12503 0.50745 0.0
C665 C 0.97088 0.10078 0.5231 0.0
H666 H 0.96413 0.18565 0.57626 0.0
H667 H 0.91628 0.18452 0.50588 0.0
C668 C 0.81823 0.16183 0.56535 0.0
N669 N 0.8377 0.1631 0.58499 0.0
C670 C 0.79554 0.12556 0.56678 0.0
C671 C 0.81351 0.09294 0.60869 0.0
C672 C 0.83604 0.1295 0.60631 0.0
C673 C 0.79288 0.09122 0.58884 0.0
H674 H 0.82022 0.18947 0.54875 0.0
H675 H 0.85188 0.132 0.62164 0.0
O676 O 0.91666 0.30796 0.57626 0.0
O677 O 0.8596 0.28347 0.60277 0.0
O678 O 0.8713 0.2385 0.54528 0.0
O679 O 0.90296 0.19131 0.59467 0.0
H680 H 0.90594 0.37888 0.61466 0.0
H681 H 0.94896 0.3568 0.54065 0.0
H682 H 0.92362 0.4752 0.61623 0.0
H683 H 0.96568 0.45376 0.54333 0.0
H684 H 0.80719 0.20951 0.66913 0.0
H685 H 0.80867 0.30156 0.58251 0.0
H686 H 0.85336 0.23397 0.64898 0.0
H687 H 0.76332 0.27534 0.60367 0.0
H688 H 0.82434 0.48586 0.58378 0.0
H689 H 0.78948 0.38351 0.52225 0.0
H690 H 0.95904 0.2206 0.68564 0.0
H691 H 0.88808 0.32991 0.69924 0.0
H692 H 0.8479 0.18767 0.50485 0.0
H693 H 0.90108 0.32382 0.52749 0.0
H694 H 0.85352 0.21564 0.4581 0.0
H695 H 0.90601 0.34917 0.48047 0.0
H696 H 0.88971 0.12707 0.5542 0.0
H697 H 0.92228 0.12899 0.6334 0.0
H698 H 0.89623 0.02554 0.55318 0.0
H699 H 0.92792 0.02728 0.63111 0.0
H700 H 0.99351 0.10865 0.56011 0.0
H701 H 0.94424 0.1076 0.48848 0.0
H702 H 0.78034 0.12423 0.55081 0.0
H703 H 0.812 0.06688 0.62596 0.0
C704 C 0.27991 0.97614 0.05131 0.0
C705 C 0.27951 0.03395 0.05378 0.0
C706 C 0.25463 0.94518 0.05156 0.0
C707 C 0.22794 0.97064 0.05475 0.0
H708 H 0.29989 0.95474 0.04888 0.0
H709 H 0.25604 0.90076 0.0496 0.0
S710 S 0.21543 0.12076 0.06294 0.0
N711 N 0.25019 0.11531 0.06015 0.0
N712 N 0.2029 0.05731 0.06065 0.0
C713 C 0.22734 0.02836 0.05756 0.0
C714 C 0.25301 0.0599 0.05703 0.0
C715 C 0.23491 0.51211 0.43379 0.0
C716 C 0.22296 0.53118 0.45754 0.0
C717 C 0.26065 0.48271 0.43343 0.0
C718 C 0.27548 0.47067 0.45684 0.0
H719 H 0.22457 0.52089 0.41521 0.0
H720 H 0.26882 0.46869 0.41464 0.0
S721 S 0.25313 0.51057 0.52434 0.0
N722 N 0.22782 0.535 0.50516 0.0
N723 N 0.27615 0.48049 0.50448 0.0
C724 C 0.26365 0.48919 0.48074 0.0
C725 C 0.23751 0.51929 0.48109 0.0
C726 C 0.74521 0.9744 0.93542 0.0
C727 C 0.72496 0.97808 0.95579 0.0
C728 C 0.77065 0.00469 0.93625 0.0
C729 C 0.77682 0.04045 0.95734 0.0
H730 H 0.74142 0.94765 0.91869 0.0
H731 H 0.78526 1.00118 0.91987 0.0
S732 S 0.7314 0.06415 0.01596 0.0
N733 N 0.71324 0.01972 0.99795 0.0
N734 N 0.76091 0.07653 0.99948 0.0
C735 C 0.75696 0.044 0.97799 0.0
C736 C 0.73116 0.01281 0.97726 0.0
C737 C 0.72524 0.47983 0.5554 0.0
C738 C 0.7257 0.5377 0.55336 0.0
C739 C 0.75044 0.44876 0.55461 0.0
C740 C 0.77719 0.47436 0.55226 0.0
H741 H 0.70522 0.45838 0.55747 0.0
H742 H 0.74902 0.40431 0.55636 0.0
S743 S 0.79001 0.62491 0.54697 0.0
N744 N 0.7552 0.61943 0.54923 0.0
N745 N 0.80242 0.56124 0.54802 0.0
C746 C 0.77791 0.53223 0.55042 0.0
C747 C 0.75225 0.56378 0.55086 0.0
C748 C 0.39672 0.25637 0.24067 0.0
C749 C 0.42208 0.25047 0.22633 0.0
C750 C 0.39696 0.26516 0.26794 0.0
C751 C 0.42257 0.2685 0.28207 0.0
H752 H 0.37644 0.25477 0.2307 0.0
H753 H 0.37683 0.26849 0.2781 0.0
S754 S 0.49488 0.25616 0.25387 0.0
N755 N 0.47356 0.24807 0.22837 0.0
N756 N 0.47403 0.26623 0.27956 0.0
C757 C 0.44812 0.26298 0.26799 0.0
C758 C 0.44787 0.25377 0.24017 0.0
C759 C 0.10632 0.75136 0.26784 0.0
C760 C 0.08075 0.74676 0.28196 0.0
C761 C 0.10644 0.7602 0.24057 0.0
C762 C 0.081 0.76458 0.22625 0.0
H763 H 0.12647 0.74871 0.27799 0.0
H764 H 0.12668 0.76276 0.23055 0.0
S765 S 0.00833 0.75567 0.25386 0.0
N766 N 0.0293 0.74704 0.27958 0.0
N767 N 0.02952 0.76434 0.22829 0.0
C768 C 0.05527 0.76017 0.24011 0.0
C769 C 0.05514 0.75129 0.26795 0.0
C770 C 0.57486 0.80479 0.76418 0.0
C771 C 0.57391 0.76027 0.78193 0.0
C772 C 0.57435 0.79608 0.73686 0.0
C773 C 0.57313 0.74248 0.72622 0.0
H774 H 0.57656 0.84667 0.77147 0.0
H775 H 0.57606 0.83153 0.72397 0.0
S776 S 0.56916 0.612 0.76414 0.0
N777 N 0.57099 0.66062 0.78687 0.0
N778 N 0.56959 0.64444 0.73556 0.0
C779 C 0.57133 0.69772 0.74374 0.0
C780 C 0.57176 0.70656 0.77156 0.0
C781 C 0.93158 0.21614 0.73639 0.0
C782 C 0.92827 0.26915 0.72547 0.0
C783 C 0.93201 0.20804 0.76375 0.0
C784 C 0.92918 0.25258 0.78135 0.0
H785 H 0.93283 0.18025 0.72372 0.0
H786 H 0.93411 0.16635 0.77117 0.0
S787 S 0.92127 0.40003 0.76286 0.0
N788 N 0.92376 0.36727 0.73444 0.0
N789 N 0.92337 0.35193 0.78577 0.0
C790 C 0.92659 0.306 0.7707 0.0
C791 C 0.92636 0.31427 0.74282 0.0
C792 C 0.48811 0.47258 0.98505 0.0
C793 C 0.48786 0.45517 0.01148 0.0
C794 C 0.50244 0.52091 0.97733 0.0
C795 C 0.51679 0.55437 0.99578 0.0
H796 H 0.47737 0.4483 0.97017 0.0
H797 H 0.50264 0.53156 0.95662 0.0
S798 S 0.51963 0.52984 0.06799 0.0
N799 N 0.50164 0.47672 0.05637 0.0
N800 N 0.5278 0.56806 0.04216 0.0
C801 C 0.51599 0.53795 0.02243 0.0
C802 C 0.50173 0.48837 0.03018 0.0
C803 C 0.00852 0.51215 0.02919 0.0
C804 C 0.01546 0.554 0.011 0.0
C805 C 0.99531 0.46286 0.02115 0.0
C806 C 0.98866 0.45303 0.99452 0.0
H807 H 0.01375 0.51708 0.04983 0.0
H808 H 0.99053 0.4319 0.03587 0.0
S809 S 0.9999 0.55105 0.93933 0.0
N810 N 0.01295 0.58333 0.96528 0.0
N811 N 0.98838 0.49091 0.95021 0.0
C812 C 0.99508 0.49479 0.97618 0.0
C813 C 0.00841 0.54507 0.98438 0.0
C814 C 0.50245 0.99063 0.53027 0.0
C815 C 0.51719 0.95793 0.5118 0.0
C816 C 0.48835 0.03927 0.52271 0.0
C817 C 0.48864 0.05765 0.49642 0.0
H818 H 0.50217 0.97908 0.55087 0.0
H819 H 0.47731 0.06298 0.53762 0.0
S820 S 0.52168 0.98496 0.43991 0.0
N821 N 0.52937 0.94596 0.46559 0.0
N822 N 0.50334 0.03757 0.45159 0.0
C823 C 0.5029 0.0251 0.47769 0.0
C824 C 0.51705 0.97533 0.48531 0.0
C825 C 0.99568 0.04305 0.48869 0.0
C826 C 0.98514 0.04856 0.51452 0.0
C827 C 0.00861 0.9939 0.4801 0.0
C828 C 0.01148 0.94797 0.49693 0.0
H829 H 0.99422 0.07729 0.47506 0.0
H830 H 0.01689 0.99222 0.46021 0.0
S831 S 0.98494 0.93896 0.5656 0.0
N832 N 0.9768 1.00224 0.55628 0.0
N833 N 1.00114 0.91032 0.5402 0.0
C834 C 1.0006 0.95259 0.52265 0.0
C835 C 0.98743 1.00263 0.5314 0.0
C836 C 0.24418 0.53454 0.06317 0.0
C837 C 0.21984 0.52366 0.07816 0.0
C838 C 0.26657 0.4971 0.06271 0.0
C839 C 0.26495 0.44763 0.07696 0.0
H840 H 0.2462 0.57286 0.05235 0.0
H841 H 0.28537 0.50705 0.05139 0.0
S842 S 0.20502 0.39927 0.11805 0.0
N843 N 0.19472 0.45994 0.10675 0.0
N844 N 0.23698 0.38868 0.10571 0.0
C845 C 0.24036 0.43556 0.09138 0.0
C846 C 0.2177 0.474 0.09208 0.0
C847 C 0.27278 1.00019 0.41096 0.0
C848 C 0.27655 0.03662 0.43215 0.0
C849 C 0.25106 0.96125 0.41135 0.0
C850 C 0.2326 0.95767 0.43298 0.0
H851 H 0.28629 1.00271 0.39374 0.0
H852 H 0.24827 0.93464 0.39439 0.0
S853 S 0.23564 0.04003 0.49442 0.0
N854 N 0.2616 0.06458 0.476 0.0
N855 N 0.22062 0.99071 0.47684 0.0
C856 C 0.23668 0.99278 0.45463 0.0
C857 C 0.25875 0.03252 0.45419 0.0
C858 C 0.73051 0.50296 0.92806 0.0
C859 C 0.73668 0.55927 0.92572 0.0
C860 C 0.75225 0.46415 0.92853 0.0
C861 C 0.78074 0.48059 0.9264 0.0
H862 H 0.70875 0.48895 0.92951 0.0
H863 H 0.74674 0.42093 0.93043 0.0
S864 S 0.80748 0.62362 0.9194 0.0
N865 N 0.77269 0.63025 0.92136 0.0
N866 N 0.81393 0.5568 0.92162 0.0
C867 C 0.78714 0.53699 0.92432 0.0
C868 C 0.76495 0.57656 0.92409 0.0
C869 C 0.75211 0.95892 0.59765 0.0
C870 C 0.7242 0.97537 0.5923 0.0
C871 C 0.77424 0.99701 0.59685 0.0
C872 C 0.769 0.05263 0.59081 0.0
H873 H 0.75694 0.91607 0.60176 0.0
H874 H 0.79565 0.9826 0.60034 0.0
S875 S 0.69906 0.11675 0.57776 0.0
N876 N 0.69203 0.05067 0.58225 0.0
N877 N 0.73372 0.12305 0.58122 0.0
C878 C 0.74101 0.06982 0.5862 0.0
C879 C 0.71854 0.03092 0.58682 0.0
loop_
_geom_bond_atom_site_label_1
_geom_bond_atom_site_label_2
_geom_bond_distance
_geom_bond_site_symmetry_2
_ccdc_geom_bond_type
Li0 N17 1.990 . S
Li0 O60 1.956 . S
Li0 O61 1.970 . S
Li0 O62 1.961 . S
Li1 N25 1.990 . S
Li1 O60 1.970 . S
Li1 O61 1.956 . S
Li1 O63 1.961 . S
Li2 N47 1.990 . S
Li2 O60 1.961 . S
Li2 O62 1.956 . S
Li2 O63 1.970 . S
Li3 N53 1.990 . S
Li3 O61 1.961 . S
Li3 O62 1.970 . S
Li3 O63 1.956 . S
C4 C6 1.348 . S
C4 C7 1.356 . S
C4 O60 1.325 . S
N5 C8 1.314 . S
N5 C9 1.279 . S
C6 C4 1.348 . S
C6 C8 1.353 . S
C6 H64 0.929 . S
C7 C4 1.356 . S
C7 C9 1.358 . S
C7 H65 0.930 . S
C8 N5 1.314 . S
C8 C6 1.353 . S
C8 H66 0.930 . S
C9 N5 1.279 . S
C9 C7 1.358 . S
C9 H67 0.930 . S
C10 C13 1.348 . S
C10 C14 1.356 . S
C10 O61 1.325 . S
C11 N12 1.279 . S
C11 C14 1.358 . S
C11 H68 0.930 . S
N12 C11 1.279 . S
N12 C15 1.314 . S
C13 C10 1.348 . S
C13 C15 1.353 . S
C13 H69 0.929 . S
C14 C10 1.356 . S
C14 C11 1.358 . S
C14 H70 0.930 . S
C15 N12 1.314 . S
C15 C13 1.353 . S
C15 H71 0.930 . S
C16 N17 1.314 . S
C16 C21 1.353 1_554 S
C16 H22 0.930 . S
N17 Li0 1.990 . S
N17 C16 1.314 . S
N17 C19 1.279 . S
C18 C19 1.358 . S
C18 C20 1.356 . S
C18 H72 0.930 . S
C19 N17 1.279 . S
C19 C18 1.358 . S
C19 H23 0.930 . S
C20 C18 1.356 . S
C20 C21 1.348 1_554 S
C21 C16 1.353 1_556 S
C21 C20 1.348 1_556 S
C21 H73 0.929 . S
H22 C16 0.930 . S
H23 C19 0.930 . S
C24 N25 1.314 . S
C24 C26 1.353 . S
C24 H30 0.930 . S
N25 Li1 1.990 . S
N25 C24 1.314 . S
N25 C28 1.279 . S
C26 C24 1.353 . S
C26 C29 1.348 . S
C26 H74 0.929 . S
C27 C28 1.358 . S
C27 C29 1.356 . S
C27 H75 0.930 . S
C28 N25 1.279 . S
C28 C27 1.358 . S
C28 H31 0.930 . S
C29 C26 1.348 . S
C29 C27 1.356 . S
H30 C24 0.930 . S
H31 C28 0.930 . S
C32 C34 1.349 . S
C32 C35 1.356 1_554 S
C32 O62 1.325 . S
N33 C36 1.314 . S
N33 C37 1.279 . S
C34 C32 1.349 . S
C34 C36 1.348 1_554 S
C34 H76 0.933 . S
C35 C32 1.356 1_556 S
C35 C37 1.358 . S
C35 H77 0.930 . S
C36 N33 1.314 . S
C36 C34 1.348 1_556 S
C36 H78 0.930 . S
C37 N33 1.279 . S
C37 C35 1.358 . S
C37 H79 0.930 . S
C38 C39 1.348 . S
C38 C40 1.356 . S
C38 O63 1.325 . S
C39 C38 1.348 . S
C39 C41 1.353 . S
C39 H80 0.929 . S
C40 C38 1.356 . S
C40 C42 1.358 . S
C40 H81 0.930 . S
C41 C39 1.353 . S
C41 N43 1.314 . S
C41 H82 0.930 . S
C42 C40 1.358 . S
C42 N43 1.279 . S
C42 H83 0.930 . S
N43 C41 1.314 . S
N43 C42 1.279 . S
C44 C46 1.353 . S
C44 N47 1.314 . S
C44 H50 0.930 . S
C45 N47 1.279 . S
C45 C48 1.358 . S
C45 H51 0.930 . S
C46 C44 1.353 . S
C46 C49 1.348 . S
C46 H84 0.929 . S
N47 Li2 1.990 . S
N47 C44 1.314 . S
N47 C45 1.279 . S
C48 C45 1.358 . S
C48 C49 1.356 . S
C48 H85 0.930 1_554 S
C49 C46 1.348 . S
C49 C48 1.356 . S
H50 C44 0.930 . S
H51 C45 0.930 . S
C52 N53 1.314 . S
C52 C54 1.353 . S
C52 H58 0.930 . S
N53 Li3 1.990 . S
N53 C52 1.314 . S
N53 C56 1.279 . S
C54 C52 1.353 . S
C54 C57 1.348 . S
C54 H86 0.929 . S
C55 C56 1.358 . S
C55 C57 1.356 . S
C55 H87 0.930 . S
C56 N53 1.279 . S
C56 C55 1.358 . S
C56 H59 0.930 . S
C57 C54 1.348 . S
C57 C55 1.356 . S
H58 C52 0.930 . S
H59 C56 0.930 . S
O60 Li0 1.956 . S
O60 Li1 1.970 . S
O60 Li2 1.961 . S
O60 C4 1.325 . S
O61 Li0 1.970 . S
O61 Li1 1.956 . S
O61 Li3 1.961 . S
O61 C10 1.325 . S
O62 Li0 1.961 . S
O62 Li2 1.956 . S
O62 Li3 1.970 . S
O62 C32 1.325 . S
O63 Li1 1.961 . S
O63 Li2 1.970 . S
O63 Li3 1.956 . S
O63 C38 1.325 . S
H64 C6 0.929 . S
H65 C7 0.930 . S
H66 C8 0.930 . S
H67 C9 0.930 . S
H68 C11 0.930 . S
H69 C13 0.929 . S
H70 C14 0.930 . S
H71 C15 0.930 . S
H72 C18 0.930 . S
H73 C21 0.929 . S
H74 C26 0.929 . S
H75 C27 0.930 . S
H76 C34 0.933 . S
H77 C35 0.930 . S
H78 C36 0.930 . S
H79 C37 0.930 . S
H80 C39 0.929 . S
H81 C40 0.930 . S
H82 C41 0.930 . S
H83 C42 0.930 . S
H84 C46 0.929 . S
H85 C48 0.930 1_556 S
H86 C54 0.929 . S
H87 C55 0.930 . S
Li88 N105 1.990 . S
Li88 O148 1.956 . S
Li88 O149 1.970 . S
Li88 O150 1.961 . S
Li89 N113 1.990 . S
Li89 O148 1.970 . S
Li89 O149 1.956 . S
Li89 O151 1.961 . S
Li90 N135 1.990 . S
Li90 O148 1.961 . S
Li90 O150 1.956 . S
Li90 O151 1.970 . S
Li91 N141 1.990 . S
Li91 O149 1.961 . S
Li91 O150 1.970 . S
Li91 O151 1.956 . S
C92 C94 1.348 . S
C92 C95 1.356 . S
C92 O148 1.325 . S
N93 C96 1.314 . S
N93 C97 1.279 . S
C94 C92 1.348 . S
C94 C96 1.353 . S
C94 H152 0.929 . S
C95 C92 1.356 . S
C95 C97 1.358 . S
C95 H153 0.930 . S
C96 N93 1.314 . S
C96 C94 1.353 . S
C96 H154 0.930 . S
C97 N93 1.279 . S
C97 C95 1.358 . S
C97 H155 0.930 . S
C98 C101 1.348 . S
C98 C102 1.356 . S
C98 O149 1.325 . S
C99 N100 1.279 . S
C99 C102 1.358 . S
C99 H156 0.930 . S
N100 C99 1.279 . S
N100 C103 1.314 . S
C101 C98 1.348 . S
C101 C103 1.353 . S
C101 H157 0.929 . S
C102 C98 1.356 . S
C102 C99 1.358 . S
C102 H158 0.930 . S
C103 N100 1.314 . S
C103 C101 1.353 . S
C103 H159 0.930 . S
C104 N105 1.314 . S
C104 C109 1.353 1_554 S
C104 H110 0.930 . S
N105 Li88 1.990 . S
N105 C104 1.314 . S
N105 C107 1.279 . S
C106 C107 1.358 . S
C106 C108 1.356 . S
C106 H160 0.915 1_455 S
C107 N105 1.279 . S
C107 C106 1.358 . S
C107 H111 0.930 . S
C108 C106 1.356 . S
C108 C109 1.348 1_554 S
C109 C104 1.353 1_556 S
C109 C108 1.348 1_556 S
C109 H161 0.929 . S
H110 C104 0.930 . S
H111 C107 0.930 . S
C112 N113 1.314 . S
C112 C114 1.353 . S
C112 H118 0.930 . S
N113 Li89 1.990 . S
N113 C112 1.314 . S
N113 C116 1.279 . S
C114 C112 1.353 . S
C114 C117 1.348 . S
C114 H162 0.929 . S
C115 C116 1.358 . S
C115 C117 1.356 . S
C115 H163 0.930 . S
C116 N113 1.279 . S
C116 C115 1.358 . S
C116 H119 0.930 . S
C117 C114 1.348 . S
C117 C115 1.356 . S
H118 C112 0.930 . S
H119 C116 0.930 . S
C120 C122 1.349 . S
C120 C123 1.356 1_554 S
C120 O150 1.325 . S
N121 C124 1.314 . S
N121 C125 1.279 . S
C122 C120 1.349 . S
C122 C124 1.348 1_554 S
C122 H164 0.933 . S
C123 C120 1.356 1_556 S
C123 C125 1.358 . S
C123 H165 0.930 . S
C124 N121 1.314 . S
C124 C122 1.348 1_556 S
C124 H166 0.930 . S
C125 N121 1.279 . S
C125 C123 1.358 . S
C125 H167 0.930 . S
C126 C127 1.348 . S
C126 C128 1.356 . S
C126 O151 1.325 . S
C127 C126 1.348 . S
C127 C129 1.353 . S
C127 H168 0.929 . S
C128 C126 1.356 . S
C128 C130 1.358 . S
C128 H169 0.930 . S
C129 C127 1.353 . S
C129 N131 1.314 . S
C129 H170 0.930 . S
C130 C128 1.358 . S
C130 N131 1.279 . S
C130 H171 0.930 . S
N131 C129 1.314 . S
N131 C130 1.279 . S
C132 C134 1.353 . S
C132 N135 1.314 . S
C132 H138 0.930 . S
C133 N135 1.279 . S
C133 C136 1.358 . S
C133 H139 0.930 . S
C134 C132 1.353 . S
C134 C137 1.348 . S
C134 H172 0.929 . S
N135 Li90 1.990 . S
N135 C132 1.314 . S
N135 C133 1.279 . S
C136 C133 1.358 . S
C136 C137 1.356 . S
C136 H173 0.930 1_554 S
C137 C134 1.348 . S
C137 C136 1.356 . S
H138 C132 0.930 . S
H139 C133 0.930 . S
C140 N141 1.314 . S
C140 C142 1.353 . S
C140 H146 0.930 . S
N141 Li91 1.990 . S
N141 C140 1.314 . S
N141 C144 1.279 . S
C142 C140 1.353 . S
C142 C145 1.348 . S
C142 H174 0.929 . S
C143 C144 1.358 . S
C143 C145 1.356 . S
C143 H175 0.930 . S
C144 N141 1.279 . S
C144 C143 1.358 . S
C144 H147 0.930 . S
C145 C142 1.348 . S
C145 C143 1.356 . S
H146 C140 0.930 . S
H147 C144 0.930 . S
O148 Li88 1.956 . S
O148 Li89 1.970 . S
O148 Li90 1.961 . S
O148 C92 1.325 . S
O149 Li88 1.970 . S
O149 Li89 1.956 . S
O149 Li91 1.961 . S
O149 C98 1.325 . S
O150 Li88 1.961 . S
O150 Li90 1.956 . S
O150 Li91 1.970 . S
O150 C120 1.325 . S
O151 Li89 1.961 . S
O151 Li90 1.970 . S
O151 Li91 1.956 . S
O151 C126 1.325 . S
H152 C94 0.929 . S
H153 C95 0.930 . S
H154 C96 0.930 . S
H155 C97 0.930 . S
H156 C99 0.930 . S
H157 C101 0.929 . S
H158 C102 0.930 . S
H159 C103 0.930 . S
H160 C106 0.915 1_655 S
H161 C109 0.929 . S
H162 C114 0.929 . S
H163 C115 0.930 . S
H164 C122 0.933 . S
H165 C123 0.930 . S
H166 C124 0.930 . S
H167 C125 0.930 . S
H168 C127 0.929 . S
H169 C128 0.930 . S
H170 C129 0.930 . S
H171 C130 0.930 . S
H172 C134 0.929 . S
H173 C136 0.930 1_556 S
H174 C142 0.929 . S
H175 C143 0.930 . S
Li176 N193 1.990 . S
Li176 O236 1.956 . S
Li176 O237 1.970 . S
Li176 O238 1.961 . S
Li177 N201 1.990 . S
Li177 O236 1.970 . S
Li177 O237 1.956 . S
Li177 O239 1.961 . S
Li178 N223 1.990 . S
Li178 O236 1.961 . S
Li178 O238 1.956 . S
Li178 O239 1.970 . S
Li179 N229 1.990 . S
Li179 O237 1.961 . S
Li179 O238 1.970 . S
Li179 O239 1.956 . S
C180 C182 1.348 . S
C180 C183 1.356 . S
C180 O236 1.325 . S
N181 C184 1.314 . S
N181 C185 1.279 . S
C182 C180 1.348 . S
C182 C184 1.353 . S
C182 H240 0.929 . S
C183 C180 1.356 . S
C183 C185 1.358 . S
C183 H241 0.930 . S
C184 N181 1.314 . S
C184 C182 1.353 . S
C184 H242 0.930 . S
C185 N181 1.279 . S
C185 C183 1.358 . S
C185 H243 0.930 . S
C186 C189 1.348 . S
C186 C190 1.356 . S
C186 O237 1.325 . S
C187 N188 1.279 . S
C187 C190 1.358 . S
C187 H244 0.930 . S
N188 C187 1.279 . S
N188 C191 1.314 . S
C189 C186 1.348 . S
C189 C191 1.353 . S
C189 H245 0.929 . S
C190 C186 1.356 . S
C190 C187 1.358 . S
C190 H246 0.930 . S
C191 N188 1.314 . S
C191 C189 1.353 . S
C191 H247 0.930 . S
C192 N193 1.314 . S
C192 C197 1.353 . S
C192 H198 0.930 . S
N193 Li176 1.990 . S
N193 C192 1.314 . S
N193 C195 1.279 . S
C194 C195 1.358 . S
C194 C196 1.356 . S
C194 H248 0.930 . S
C195 N193 1.279 . S
C195 C194 1.358 . S
C195 H199 0.930 . S
C196 C194 1.356 . S
C196 C197 1.348 . S
C197 C192 1.353 . S
C197 C196 1.348 . S
C197 H249 0.929 . S
H198 C192 0.930 . S
H199 C195 0.930 . S
C200 N201 1.314 . S
C200 C202 1.353 . S
C200 H206 0.930 . S
N201 Li177 1.990 . S
N201 C200 1.314 . S
N201 C204 1.279 . S
C202 C200 1.353 . S
C202 C205 1.348 . S
C202 H250 0.929 . S
C203 C204 1.358 . S
C203 C205 1.356 . S
C203 H251 0.930 . S
C204 N201 1.279 . S
C204 C203 1.358 . S
C204 H207 0.930 . S
C205 C202 1.348 . S
C205 C203 1.356 . S
H206 C200 0.930 . S
H207 C204 0.930 . S
C208 C210 1.348 . S
C208 C211 1.356 . S
C208 O238 1.325 . S
N209 C212 1.314 . S
N209 C213 1.279 . S
C210 C208 1.348 . S
C210 C212 1.353 . S
C210 H252 0.929 . S
C211 C208 1.356 . S
C211 C213 1.358 . S
C211 H253 0.930 . S
C212 N209 1.314 . S
C212 C210 1.353 . S
C212 H254 0.930 . S
C213 N209 1.279 . S
C213 C211 1.358 . S
C213 H255 0.930 . S
C214 C215 1.348 . S
C214 C216 1.356 . S
C214 O239 1.325 . S
C215 C214 1.348 . S
C215 C217 1.353 . S
C215 H256 0.929 . S
C216 C214 1.356 . S
C216 C218 1.358 . S
C216 H257 0.930 . S
C217 C215 1.353 . S
C217 N219 1.314 . S
C217 H258 0.930 . S
C218 C216 1.358 . S
C218 N219 1.279 . S
C218 H259 0.930 . S
N219 C217 1.314 . S
N219 C218 1.279 . S
C220 C222 1.353 . S
C220 N223 1.314 . S
C220 H226 0.930 . S
C221 N223 1.279 . S
C221 C224 1.358 . S
C221 H227 0.930 . S
C222 C220 1.353 . S
C222 C225 1.348 . S
C222 H260 0.929 . S
N223 Li178 1.990 . S
N223 C220 1.314 . S
N223 C221 1.279 . S
C224 C221 1.358 . S
C224 C225 1.356 . S
C224 H261 0.930 . S
C225 C222 1.348 . S
C225 C224 1.356 . S
H226 C220 0.930 . S
H227 C221 0.930 . S
C228 N229 1.314 . S
C228 C230 1.353 . S
C228 H234 0.930 . S
N229 Li179 1.990 . S
N229 C228 1.314 . S
N229 C232 1.279 . S
C230 C228 1.353 . S
C230 C233 1.348 . S
C230 H262 0.929 . S
C231 C232 1.358 . S
C231 C233 1.356 . S
C231 H263 0.930 . S
C232 N229 1.279 . S
C232 C231 1.358 . S
C232 H235 0.930 . S
C233 C230 1.348 . S
C233 C231 1.356 . S
H234 C228 0.930 . S
H235 C232 0.930 . S
O236 Li176 1.956 . S
O236 Li177 1.970 . S
O236 Li178 1.961 . S
O236 C180 1.325 . S
O237 Li176 1.970 . S
O237 Li177 1.956 . S
O237 Li179 1.961 . S
O237 C186 1.325 . S
O238 Li176 1.961 . S
O238 Li178 1.956 . S
O238 Li179 1.970 . S
O238 C208 1.325 . S
O239 Li177 1.961 . S
O239 Li178 1.970 . S
O239 Li179 1.956 . S
O239 C214 1.325 . S
H240 C182 0.929 . S
H241 C183 0.930 . S
H242 C184 0.930 . S
H243 C185 0.930 . S
H244 C187 0.930 . S
H245 C189 0.929 . S
H246 C190 0.930 . S
H247 C191 0.930 . S
H248 C194 0.930 . S
H249 C197 0.929 . S
H250 C202 0.929 . S
H251 C203 0.930 . S
H252 C210 0.929 . S
H253 C211 0.930 . S
H254 C212 0.930 . S
H255 C213 0.930 . S
H256 C215 0.929 . S
H257 C216 0.930 . S
H258 C217 0.930 . S
H259 C218 0.930 . S
H260 C222 0.929 . S
H261 C224 0.930 . S
H262 C230 0.929 . S
H263 C231 0.930 . S
Li264 N281 1.990 . S
Li264 O324 1.956 . S
Li264 O325 1.970 . S
Li264 O326 1.961 . S
Li265 N289 1.990 . S
Li265 O324 1.970 . S
Li265 O325 1.956 . S
Li265 O327 1.961 . S
Li266 N311 1.990 . S
Li266 O324 1.961 . S
Li266 O326 1.956 . S
Li266 O327 1.970 . S
Li267 N317 1.990 . S
Li267 O325 1.961 . S
Li267 O326 1.970 . S
Li267 O327 1.956 . S
C268 C270 1.348 . S
C268 C271 1.356 . S
C268 O324 1.325 . S
N269 C272 1.314 . S
N269 C273 1.279 . S
C270 C268 1.348 . S
C270 C272 1.353 . S
C270 H328 0.929 . S
C271 C268 1.356 . S
C271 C273 1.358 . S
C271 H329 0.930 . S
C272 N269 1.314 . S
C272 C270 1.353 . S
C272 H330 0.930 . S
C273 N269 1.279 . S
C273 C271 1.358 . S
C273 H331 0.930 . S
C274 C277 1.348 . S
C274 C278 1.356 . S
C274 O325 1.325 . S
C275 N276 1.279 . S
C275 C278 1.358 . S
C275 H332 0.930 . S
N276 C275 1.279 . S
N276 C279 1.314 . S
C277 C274 1.348 . S
C277 C279 1.353 . S
C277 H333 0.929 . S
C278 C274 1.356 . S
C278 C275 1.358 . S
C278 H334 0.930 . S
C279 N276 1.314 . S
C279 C277 1.353 . S
C279 H335 0.930 . S
C280 N281 1.314 . S
C280 C285 1.353 . S
C280 H286 0.930 . S
N281 Li264 1.990 . S
N281 C280 1.314 . S
N281 C283 1.279 . S
C282 C283 1.358 . S
C282 C284 1.356 . S
C282 H336 0.930 . S
C283 N281 1.279 . S
C283 C282 1.358 . S
C283 H287 0.930 . S
C284 C282 1.356 . S
C284 C285 1.348 . S
C285 C280 1.353 . S
C285 C284 1.348 . S
C285 H337 0.929 . S
H286 C280 0.930 . S
H287 C283 0.930 . S
C288 N289 1.314 . S
C288 C290 1.353 . S
C288 H294 0.930 . S
N289 Li265 1.990 . S
N289 C288 1.314 . S
N289 C292 1.279 . S
C290 C288 1.353 . S
C290 C293 1.348 . S
C290 H338 0.929 . S
C291 C292 1.358 . S
C291 C293 1.356 . S
C291 H339 0.930 . S
C292 N289 1.279 . S
C292 C291 1.358 . S
C292 H295 0.930 . S
C293 C290 1.348 . S
C293 C291 1.356 . S
H294 C288 0.930 . S
H295 C292 0.930 . S
C296 C298 1.348 . S
C296 C299 1.356 . S
C296 O326 1.325 . S
N297 C300 1.314 . S
N297 C301 1.279 . S
C298 C296 1.348 . S
C298 C300 1.353 . S
C298 H340 0.929 . S
C299 C296 1.356 . S
C299 C301 1.358 . S
C299 H341 0.930 . S
C300 N297 1.314 . S
C300 C298 1.353 . S
C300 H342 0.930 . S
C301 N297 1.279 . S
C301 C299 1.358 . S
C301 H343 0.930 . S
C302 C303 1.348 . S
C302 C304 1.356 . S
C302 O327 1.325 . S
C303 C302 1.348 . S
C303 C305 1.353 . S
C303 H344 0.929 . S
C304 C302 1.356 . S
C304 C306 1.358 . S
C304 H345 0.930 . S
C305 C303 1.353 . S
C305 N307 1.314 . S
C305 H346 0.930 . S
C306 C304 1.358 . S
C306 N307 1.279 . S
C306 H347 0.930 . S
N307 C305 1.314 . S
N307 C306 1.279 . S
C308 C310 1.353 . S
C308 N311 1.314 . S
C308 H314 0.930 . S
C309 N311 1.279 . S
C309 C312 1.358 . S
C309 H315 0.930 . S
C310 C308 1.353 . S
C310 C313 1.348 . S
C310 H348 0.929 . S
N311 Li266 1.990 . S
N311 C308 1.314 . S
N311 C309 1.279 . S
C312 C309 1.358 . S
C312 C313 1.356 . S
C312 H349 0.915 1_455 S
C313 C310 1.348 . S
C313 C312 1.356 . S
H314 C308 0.930 . S
H315 C309 0.930 . S
C316 N317 1.314 . S
C316 C318 1.353 . S
C316 H322 0.930 . S
N317 Li267 1.990 . S
N317 C316 1.314 . S
N317 C320 1.279 . S
C318 C316 1.353 . S
C318 C321 1.348 . S
C318 H350 0.929 . S
C319 C320 1.358 . S
C319 C321 1.356 . S
C319 H351 0.930 . S
C320 N317 1.279 . S
C320 C319 1.358 . S
C320 H323 0.930 . S
C321 C318 1.348 . S
C321 C319 1.356 . S
H322 C316 0.930 . S
H323 C320 0.930 . S
O324 Li264 1.956 . S
O324 Li265 1.970 . S
O324 Li266 1.961 . S
O324 C268 1.325 . S
O325 Li264 1.970 . S
O325 Li265 1.956 . S
O325 Li267 1.961 . S
O325 C274 1.325 . S
O326 Li264 1.961 . S
O326 Li266 1.956 . S
O326 Li267 1.970 . S
O326 C296 1.325 . S
O327 Li265 1.961 . S
O327 Li266 1.970 . S
O327 Li267 1.956 . S
O327 C302 1.325 . S
H328 C270 0.929 . S
H329 C271 0.930 . S
H330 C272 0.930 . S
H331 C273 0.930 . S
H332 C275 0.930 . S
H333 C277 0.929 . S
H334 C278 0.930 . S
H335 C279 0.930 . S
H336 C282 0.930 . S
H337 C285 0.929 . S
H338 C290 0.929 . S
H339 C291 0.930 . S
H340 C298 0.929 . S
H341 C299 0.930 . S
H342 C300 0.930 . S
H343 C301 0.930 . S
H344 C303 0.929 . S
H345 C304 0.930 . S
H346 C305 0.930 . S
H347 C306 0.930 . S
H348 C310 0.929 . S
H349 C312 0.915 1_655 S
H350 C318 0.929 . S
H351 C319 0.930 . S
Li352 N369 1.990 . S
Li352 O412 1.956 . S
Li352 O413 1.970 . S
Li352 O414 1.961 . S
Li353 N377 1.990 . S
Li353 O412 1.970 . S
Li353 O413 1.956 . S
Li353 O415 1.961 . S
Li354 N399 1.990 . S
Li354 O412 1.961 . S
Li354 O414 1.956 . S
Li354 O415 1.970 . S
Li355 N405 1.990 . S
Li355 O413 1.961 . S
Li355 O414 1.970 . S
Li355 O415 1.956 . S
C356 C358 1.348 1_556 S
C356 C359 1.356 1_556 S
C356 O412 1.325 . S
N357 C360 1.314 . S
N357 C361 1.279 . S
C358 C356 1.348 1_554 S
C358 C360 1.353 . S
C358 H416 0.929 1_554 S
C359 C356 1.356 1_554 S
C359 C361 1.358 . S
C359 H417 0.930 . S
C360 N357 1.314 . S
C360 C358 1.353 . S
C360 H418 0.930 . S
C361 N357 1.279 . S
C361 C359 1.358 . S
C361 H419 0.930 . S
C362 C365 1.348 . S
C362 C366 1.356 . S
C362 O413 1.325 . S
C363 N364 1.279 . S
C363 C366 1.358 . S
C363 H420 0.930 . S
N364 C363 1.279 . S
N364 C367 1.314 . S
C365 C362 1.348 . S
C365 C367 1.353 . S
C365 H421 0.929 . S
C366 C362 1.356 . S
C366 C363 1.358 . S
C366 H422 0.930 . S
C367 N364 1.314 . S
C367 C365 1.353 . S
C367 H423 0.930 . S
C368 N369 1.314 . S
C368 C373 1.353 . S
C368 H374 0.930 . S
N369 Li352 1.990 . S
N369 C368 1.314 . S
N369 C371 1.279 . S
C370 C371 1.358 1_554 S
C370 C372 1.356 1_554 S
C370 H424 0.930 . S
C371 N369 1.279 . S
C371 C370 1.358 1_556 S
C371 H375 0.930 1_556 S
C372 C370 1.356 1_556 S
C372 C373 1.348 . S
C373 C368 1.353 . S
C373 C372 1.348 . S
C373 H425 0.929 . S
H374 C368 0.930 . S
H375 C371 0.930 1_554 S
C376 N377 1.314 . S
C376 C378 1.353 . S
C376 H382 0.930 . S
N377 Li353 1.990 . S
N377 C376 1.314 . S
N377 C380 1.279 . S
C378 C376 1.353 . S
C378 C381 1.348 . S
C378 H426 0.929 . S
C379 C380 1.358 . S
C379 C381 1.356 . S
C379 H427 0.930 . S
C380 N377 1.279 . S
C380 C379 1.358 . S
C380 H383 0.930 . S
C381 C378 1.348 . S
C381 C379 1.356 . S
H382 C376 0.930 . S
H383 C380 0.930 . S
C384 C386 1.348 . S
C384 C387 1.356 . S
C384 O414 1.325 . S
N385 C388 1.314 . S
N385 C389 1.279 . S
C386 C384 1.348 . S
C386 C388 1.353 . S
C386 H428 0.929 . S
C387 C384 1.356 . S
C387 C389 1.358 . S
C387 H429 0.930 . S
C388 N385 1.314 . S
C388 C386 1.353 . S
C388 H430 0.930 . S
C389 N385 1.279 . S
C389 C387 1.358 . S
C389 H431 0.930 . S
C390 C391 1.348 . S
C390 C392 1.356 . S
C390 O415 1.325 . S
C391 C390 1.348 . S
C391 C393 1.353 . S
C391 H432 0.929 . S
C392 C390 1.356 . S
C392 C394 1.358 . S
C392 H433 0.930 . S
C393 C391 1.353 . S
C393 N395 1.314 . S
C393 H434 0.930 . S
C394 C392 1.358 . S
C394 N395 1.279 . S
C394 H435 0.930 . S
N395 C393 1.314 . S
N395 C394 1.279 . S
C396 C398 1.353 . S
C396 N399 1.314 . S
C396 H402 0.930 . S
C397 N399 1.279 . S
C397 C400 1.358 . S
C397 H403 0.930 . S
C398 C396 1.353 . S
C398 C401 1.348 . S
C398 H436 0.929 . S
N399 Li354 1.990 . S
N399 C396 1.314 . S
N399 C397 1.279 . S
C400 C397 1.358 . S
C400 C401 1.356 . S
C400 H437 0.930 . S
C401 C398 1.348 . S
C401 C400 1.356 . S
H402 C396 0.930 . S
H403 C397 0.930 . S
C404 N405 1.314 . S
C404 C406 1.353 . S
C404 H410 0.930 . S
N405 Li355 1.990 . S
N405 C404 1.314 . S
N405 C408 1.279 . S
C406 C404 1.353 . S
C406 C409 1.348 . S
C406 H438 0.929 . S
C407 C408 1.358 . S
C407 C409 1.356 . S
C407 H439 0.930 . S
C408 N405 1.279 . S
C408 C407 1.358 . S
C408 H411 0.930 . S
C409 C406 1.348 . S
C409 C407 1.356 . S
H410 C404 0.930 . S
H411 C408 0.930 . S
O412 Li352 1.956 . S
O412 Li353 1.970 . S
O412 Li354 1.961 . S
O412 C356 1.325 . S
O413 Li352 1.970 . S
O413 Li353 1.956 . S
O413 Li355 1.961 . S
O413 C362 1.325 . S
O414 Li352 1.961 . S
O414 Li354 1.956 . S
O414 Li355 1.970 . S
O414 C384 1.325 . S
O415 Li353 1.961 . S
O415 Li354 1.970 . S
O415 Li355 1.956 . S
O415 C390 1.325 . S
H416 C358 0.929 1_556 S
H417 C359 0.930 . S
H418 C360 0.930 . S
H419 C361 0.930 . S
H420 C363 0.930 . S
H421 C365 0.929 . S
H422 C366 0.930 . S
H423 C367 0.930 . S
H424 C370 0.930 . S
H425 C373 0.929 . S
H426 C378 0.929 . S
H427 C379 0.930 . S
H428 C386 0.929 . S
H429 C387 0.930 . S
H430 C388 0.930 . S
H431 C389 0.930 . S
H432 C391 0.929 . S
H433 C392 0.930 . S
H434 C393 0.930 . S
H435 C394 0.930 . S
H436 C398 0.929 . S
H437 C400 0.930 . S
H438 C406 0.929 . S
H439 C407 0.930 . S
Li440 N457 1.990 . S
Li440 O500 1.956 . S
Li440 O501 1.970 . S
Li440 O502 1.961 . S
Li441 N465 1.990 . S
Li441 O500 1.970 . S
Li441 O501 1.956 . S
Li441 O503 1.961 . S
Li442 N487 1.990 . S
Li442 O500 1.961 . S
Li442 O502 1.956 . S
Li442 O503 1.970 . S
Li443 N493 1.990 . S
Li443 O501 1.961 . S
Li443 O502 1.970 . S
Li443 O503 1.956 . S
C444 C446 1.348 1_556 S
C444 C447 1.356 1_556 S
C444 O500 1.325 . S
N445 C448 1.314 . S
N445 C449 1.279 . S
C446 C444 1.348 1_554 S
C446 C448 1.353 . S
C446 H504 0.929 1_554 S
C447 C444 1.356 1_554 S
C447 C449 1.358 . S
C447 H505 0.930 . S
C448 N445 1.314 . S
C448 C446 1.353 . S
C448 H506 0.930 . S
C449 N445 1.279 . S
C449 C447 1.358 . S
C449 H507 0.930 . S
C450 C453 1.348 . S
C450 C454 1.356 . S
C450 O501 1.325 . S
C451 N452 1.279 . S
C451 C454 1.358 . S
C451 H508 0.930 . S
N452 C451 1.279 . S
N452 C455 1.314 . S
C453 C450 1.348 . S
C453 C455 1.353 . S
C453 H509 0.929 . S
C454 C450 1.356 . S
C454 C451 1.358 . S
C454 H510 0.930 . S
C455 N452 1.314 . S
C455 C453 1.353 . S
C455 H511 0.930 . S
C456 N457 1.314 . S
C456 C461 1.353 . S
C456 H462 0.930 . S
N457 Li440 1.990 . S
N457 C456 1.314 . S
N457 C459 1.279 . S
C458 C459 1.358 1_554 S
C458 C460 1.356 1_554 S
C458 H512 0.930 . S
C459 N457 1.279 . S
C459 C458 1.358 1_556 S
C459 H463 0.930 1_556 S
C460 C458 1.356 1_556 S
C460 C461 1.348 . S
C461 C456 1.353 . S
C461 C460 1.348 . S
C461 H513 0.929 1_655 S
H462 C456 0.930 . S
H463 C459 0.930 1_554 S
C464 N465 1.314 . S
C464 C466 1.353 . S
C464 H470 0.930 . S
N465 Li441 1.990 . S
N465 C464 1.314 . S
N465 C468 1.279 . S
C466 C464 1.353 . S
C466 C469 1.348 . S
C466 H514 0.929 . S
C467 C468 1.358 . S
C467 C469 1.356 . S
C467 H515 0.930 . S
C468 N465 1.279 . S
C468 C467 1.358 . S
C468 H471 0.930 . S
C469 C466 1.348 . S
C469 C467 1.356 . S
H470 C464 0.930 . S
H471 C468 0.930 . S
C472 C474 1.348 . S
C472 C475 1.356 . S
C472 O502 1.325 . S
N473 C476 1.314 . S
N473 C477 1.279 . S
C474 C472 1.348 . S
C474 C476 1.353 . S
C474 H516 0.929 . S
C475 C472 1.356 . S
C475 C477 1.358 . S
C475 H517 0.930 . S
C476 N473 1.314 . S
C476 C474 1.353 . S
C476 H518 0.930 . S
C477 N473 1.279 . S
C477 C475 1.358 . S
C477 H519 0.930 . S
C478 C479 1.348 . S
C478 C480 1.356 . S
C478 O503 1.325 . S
C479 C478 1.348 . S
C479 C481 1.353 . S
C479 H520 0.929 . S
C480 C478 1.356 . S
C480 C482 1.358 . S
C480 H521 0.930 . S
C481 C479 1.353 . S
C481 N483 1.314 . S
C481 H522 0.930 . S
C482 C480 1.358 . S
C482 N483 1.279 . S
C482 H523 0.930 . S
N483 C481 1.314 . S
N483 C482 1.279 . S
C484 C486 1.353 . S
C484 N487 1.314 . S
C484 H490 0.930 . S
C485 N487 1.279 . S
C485 C488 1.358 . S
C485 H491 0.930 . S
C486 C484 1.353 . S
C486 C489 1.348 . S
C486 H524 0.929 . S
N487 Li442 1.990 . S
N487 C484 1.314 . S
N487 C485 1.279 . S
C488 C485 1.358 . S
C488 C489 1.356 . S
C488 H525 0.930 . S
C489 C486 1.348 . S
C489 C488 1.356 . S
H490 C484 0.930 . S
H491 C485 0.930 . S
C492 N493 1.314 . S
C492 C494 1.353 . S
C492 H498 0.930 . S
N493 Li443 1.990 . S
N493 C492 1.314 . S
N493 C496 1.279 . S
C494 C492 1.353 . S
C494 C497 1.348 . S
C494 H526 0.929 . S
C495 C496 1.358 . S
C495 C497 1.356 . S
C495 H527 0.930 . S
C496 N493 1.279 . S
C496 C495 1.358 . S
C496 H499 0.930 . S
C497 C494 1.348 . S
C497 C495 1.356 . S
H498 C492 0.930 . S
H499 C496 0.930 . S
O500 Li440 1.956 . S
O500 Li441 1.970 . S
O500 Li442 1.961 . S
O500 C444 1.325 . S
O501 Li440 1.970 . S
O501 Li441 1.956 . S
O501 Li443 1.961 . S
O501 C450 1.325 . S
O502 Li440 1.961 . S
O502 Li442 1.956 . S
O502 Li443 1.970 . S
O502 C472 1.325 . S
O503 Li441 1.961 . S
O503 Li442 1.970 . S
O503 Li443 1.956 . S
O503 C478 1.325 . S
H504 C446 0.929 1_556 S
H505 C447 0.930 . S
H506 C448 0.930 . S
H507 C449 0.930 . S
H508 C451 0.930 . S
H509 C453 0.929 . S
H510 C454 0.930 . S
H511 C455 0.930 . S
H512 C458 0.930 . S
H513 C461 0.929 1_455 S
H514 C466 0.929 . S
H515 C467 0.930 . S
H516 C474 0.929 . S
H517 C475 0.930 . S
H518 C476 0.930 . S
H519 C477 0.930 . S
H520 C479 0.929 . S
H521 C480 0.930 . S
H522 C481 0.930 . S
H523 C482 0.930 . S
H524 C486 0.929 . S
H525 C488 0.930 . S
H526 C494 0.929 . S
H527 C495 0.930 . S
Li528 N545 1.990 . S
Li528 O588 1.956 . S
Li528 O589 1.970 . S
Li528 O590 1.961 . S
Li529 N553 1.990 . S
Li529 O588 1.970 . S
Li529 O589 1.956 . S
Li529 O591 1.961 . S
Li530 N575 1.990 . S
Li530 O588 1.961 . S
Li530 O590 1.956 . S
Li530 O591 1.970 . S
Li531 N581 1.990 . S
Li531 O589 1.961 . S
Li531 O590 1.970 . S
Li531 O591 1.956 . S
C532 C534 1.348 . S
C532 C535 1.356 . S
C532 O588 1.325 . S
N533 C536 1.314 . S
N533 C537 1.279 . S
C534 C532 1.348 . S
C534 C536 1.353 . S
C534 H592 0.929 . S
C535 C532 1.356 . S
C535 C537 1.358 . S
C535 H593 0.930 . S
C536 N533 1.314 . S
C536 C534 1.353 . S
C536 H594 0.930 . S
C537 N533 1.279 . S
C537 C535 1.358 . S
C537 H595 0.930 . S
C538 C541 1.348 . S
C538 C542 1.356 . S
C538 O589 1.325 . S
C539 N540 1.279 . S
C539 C542 1.358 . S
C539 H596 0.930 . S
N540 C539 1.279 . S
N540 C543 1.314 . S
C541 C538 1.348 . S
C541 C543 1.353 . S
C541 H597 0.929 . S
C542 C538 1.356 . S
C542 C539 1.358 . S
C542 H598 0.930 . S
C543 N540 1.314 . S
C543 C541 1.353 . S
C543 H599 0.930 . S
C544 N545 1.314 . S
C544 C549 1.353 . S
C544 H550 0.930 . S
N545 Li528 1.990 . S
N545 C544 1.314 . S
N545 C547 1.279 . S
C546 C547 1.358 . S
C546 C548 1.356 . S
C546 H600 0.930 . S
C547 N545 1.279 . S
C547 C546 1.358 . S
C547 H551 0.930 . S
C548 C546 1.356 . S
C548 C549 1.348 . S
C549 C544 1.353 . S
C549 C548 1.348 . S
C549 H601 0.929 . S
H550 C544 0.930 . S
H551 C547 0.930 . S
C552 N553 1.314 . S
C552 C554 1.353 . S
C552 H558 0.930 . S
N553 Li529 1.990 . S
N553 C552 1.314 . S
N553 C556 1.279 . S
C554 C552 1.353 . S
C554 C557 1.348 . S
C554 H602 0.929 . S
C555 C556 1.358 . S
C555 C557 1.356 . S
C555 H603 0.930 . S
C556 N553 1.279 . S
C556 C555 1.358 . S
C556 H559 0.930 . S
C557 C554 1.348 . S
C557 C555 1.356 . S
H558 C552 0.930 . S
H559 C556 0.930 . S
C560 C562 1.348 . S
C560 C563 1.356 . S
C560 O590 1.325 . S
N561 C564 1.314 . S
N561 C565 1.279 . S
C562 C560 1.348 . S
C562 C564 1.353 . S
C562 H604 0.929 . S
C563 C560 1.356 . S
C563 C565 1.358 . S
C563 H605 0.930 . S
C564 N561 1.314 . S
C564 C562 1.353 . S
C564 H606 0.930 . S
C565 N561 1.279 . S
C565 C563 1.358 . S
C565 H607 0.930 . S
C566 C567 1.348 . S
C566 C568 1.356 . S
C566 O591 1.325 . S
C567 C566 1.348 . S
C567 C569 1.353 . S
C567 H608 0.929 . S
C568 C566 1.356 . S
C568 C570 1.358 . S
C568 H609 0.930 . S
C569 C567 1.353 . S
C569 N571 1.314 . S
C569 H610 0.930 . S
C570 C568 1.358 . S
C570 N571 1.279 . S
C570 H611 0.930 . S
N571 C569 1.314 . S
N571 C570 1.279 . S
C572 C574 1.353 . S
C572 N575 1.314 . S
C572 H578 0.930 . S
C573 N575 1.279 . S
C573 C576 1.358 . S
C573 H579 0.930 . S
C574 C572 1.353 . S
C574 C577 1.348 . S
C574 H612 0.929 . S
N575 Li530 1.990 . S
N575 C572 1.314 . S
N575 C573 1.279 . S
C576 C573 1.358 . S
C576 C577 1.356 . S
C576 H613 0.930 1_565 S
C577 C574 1.348 . S
C577 C576 1.356 . S
H578 C572 0.930 . S
H579 C573 0.930 . S
C580 N581 1.314 . S
C580 C582 1.353 . S
C580 H586 0.930 . S
N581 Li531 1.990 . S
N581 C580 1.314 . S
N581 C584 1.279 . S
C582 C580 1.353 . S
C582 C585 1.348 . S
C582 H614 0.929 . S
C583 C584 1.358 . S
C583 C585 1.356 . S
C583 H615 0.930 . S
C584 N581 1.279 . S
C584 C583 1.358 . S
C584 H587 0.930 . S
C585 C582 1.348 . S
C585 C583 1.356 . S
H586 C580 0.930 . S
H587 C584 0.930 . S
O588 Li528 1.956 . S
O588 Li529 1.970 . S
O588 Li530 1.961 . S
O588 C532 1.325 . S
O589 Li528 1.970 . S
O589 Li529 1.956 . S
O589 Li531 1.961 . S
O589 C538 1.325 . S
O590 Li528 1.961 . S
O590 Li530 1.956 . S
O590 Li531 1.970 . S
O590 C560 1.325 . S
O591 Li529 1.961 . S
O591 Li530 1.970 . S
O591 Li531 1.956 . S
O591 C566 1.325 . S
H592 C534 0.929 . S
H593 C535 0.930 . S
H594 C536 0.930 . S
H595 C537 0.930 . S
H596 C539 0.930 . S
H597 C541 0.929 . S
H598 C542 0.930 . S
H599 C543 0.930 . S
H600 C546 0.930 . S
H601 C549 0.929 . S
H602 C554 0.929 . S
H603 C555 0.930 . S
H604 C562 0.929 . S
H605 C563 0.930 . S
H606 C564 0.930 . S
H607 C565 0.930 . S
H608 C567 0.929 . S
H609 C568 0.930 . S
H610 C569 0.930 . S
H611 C570 0.930 . S
H612 C574 0.929 . S
H613 C576 0.930 1_545 S
H614 C582 0.929 . S
H615 C583 0.930 . S
Li616 N633 1.990 . S
Li616 O676 1.956 . S
Li616 O677 1.970 . S
Li616 O678 1.961 . S
Li617 N641 1.990 . S
Li617 O676 1.970 . S
Li617 O677 1.956 . S
Li617 O679 1.961 . S
Li618 N663 1.990 . S
Li618 O676 1.961 . S
Li618 O678 1.956 . S
Li618 O679 1.970 . S
Li619 N669 1.990 . S
Li619 O677 1.961 . S
Li619 O678 1.970 . S
Li619 O679 1.956 . S
C620 C622 1.348 . S
C620 C623 1.356 . S
C620 O676 1.325 . S
N621 C624 1.314 . S
N621 C625 1.279 . S
C622 C620 1.348 . S
C622 C624 1.353 . S
C622 H680 0.929 . S
C623 C620 1.356 . S
C623 C625 1.358 . S
C623 H681 0.930 . S
C624 N621 1.314 . S
C624 C622 1.353 . S
C624 H682 0.930 . S
C625 N621 1.279 . S
C625 C623 1.358 . S
C625 H683 0.930 . S
C626 C629 1.348 . S
C626 C630 1.356 . S
C626 O677 1.325 . S
C627 N628 1.279 . S
C627 C630 1.358 . S
C627 H684 0.930 . S
N628 C627 1.279 . S
N628 C631 1.314 . S
C629 C626 1.348 . S
C629 C631 1.353 . S
C629 H685 0.929 . S
C630 C626 1.356 . S
C630 C627 1.358 . S
C630 H686 0.930 . S
C631 N628 1.314 . S
C631 C629 1.353 . S
C631 H687 0.930 . S
C632 N633 1.314 . S
C632 C637 1.353 . S
C632 H638 0.930 . S
N633 Li616 1.990 . S
N633 C632 1.314 . S
N633 C635 1.279 . S
C634 C635 1.358 . S
C634 C636 1.356 . S
C634 H688 0.930 . S
C635 N633 1.279 . S
C635 C634 1.358 . S
C635 H639 0.930 . S
C636 C634 1.356 . S
C636 C637 1.348 . S
C637 C632 1.353 . S
C637 C636 1.348 . S
C637 H689 0.929 . S
H638 C632 0.930 . S
H639 C635 0.930 . S
C640 N641 1.314 . S
C640 C642 1.353 . S
C640 H646 0.930 . S
N641 Li617 1.990 . S
N641 C640 1.314 . S
N641 C644 1.279 . S
C642 C640 1.353 . S
C642 C645 1.348 . S
C642 H690 0.929 . S
C643 C644 1.358 . S
C643 C645 1.356 . S
C643 H691 0.930 . S
C644 N641 1.279 . S
C644 C643 1.358 . S
C644 H647 0.930 . S
C645 C642 1.348 . S
C645 C643 1.356 . S
H646 C640 0.930 . S
H647 C644 0.930 . S
C648 C650 1.348 . S
C648 C651 1.356 . S
C648 O678 1.325 . S
N649 C652 1.314 . S
N649 C653 1.279 . S
C650 C648 1.348 . S
C650 C652 1.353 . S
C650 H692 0.929 . S
C651 C648 1.356 . S
C651 C653 1.358 . S
C651 H693 0.930 . S
C652 N649 1.314 . S
C652 C650 1.353 . S
C652 H694 0.930 . S
C653 N649 1.279 . S
C653 C651 1.358 . S
C653 H695 0.930 . S
C654 C655 1.348 . S
C654 C656 1.356 . S
C654 O679 1.325 . S
C655 C654 1.348 . S
C655 C657 1.353 . S
C655 H696 0.929 . S
C656 C654 1.356 . S
C656 C658 1.358 . S
C656 H697 0.930 . S
C657 C655 1.353 . S
C657 N659 1.314 . S
C657 H698 0.930 . S
C658 C656 1.358 . S
C658 N659 1.279 . S
C658 H699 0.930 . S
N659 C657 1.314 . S
N659 C658 1.279 . S
C660 C662 1.353 . S
C660 N663 1.314 . S
C660 H666 0.930 . S
C661 N663 1.279 . S
C661 C664 1.358 . S
C661 H667 0.930 . S
C662 C660 1.353 . S
C662 C665 1.348 . S
C662 H700 0.929 1_655 S
N663 Li618 1.990 . S
N663 C660 1.314 . S
N663 C661 1.279 . S
C664 C661 1.358 . S
C664 C665 1.356 . S
C664 H701 0.930 . S
C665 C662 1.348 . S
C665 C664 1.356 . S
H666 C660 0.930 . S
H667 C661 0.930 . S
C668 N669 1.314 . S
C668 C670 1.353 . S
C668 H674 0.930 . S
N669 Li619 1.990 . S
N669 C668 1.314 . S
N669 C672 1.279 . S
C670 C668 1.353 . S
C670 C673 1.348 . S
C670 H702 0.929 . S
C671 C672 1.358 . S
C671 C673 1.356 . S
C671 H703 0.930 1_545 S
C672 N669 1.279 . S
C672 C671 1.358 . S
C672 H675 0.930 . S
C673 C670 1.348 . S
C673 C671 1.356 . S
H674 C668 0.930 . S
H675 C672 0.930 . S
O676 Li616 1.956 . S
O676 Li617 1.970 . S
O676 Li618 1.961 . S
O676 C620 1.325 . S
O677 Li616 1.970 . S
O677 Li617 1.956 . S
O677 Li619 1.961 . S
O677 C626 1.325 . S
O678 Li616 1.961 . S
O678 Li618 1.956 . S
O678 Li619 1.970 . S
O678 C648 1.325 . S
O679 Li617 1.961 . S
O679 Li618 1.970 . S
O679 Li619 1.956 . S
O679 C654 1.325 . S
H680 C622 0.929 . S
H681 C623 0.930 . S
H682 C624 0.930 . S
H683 C625 0.930 . S
H684 C627 0.930 . S
H685 C629 0.929 . S
H686 C630 0.930 . S
H687 C631 0.930 . S
H688 C634 0.930 . S
H689 C637 0.929 . S
H690 C642 0.929 . S
H691 C643 0.930 . S
H692 C650 0.929 . S
H693 C651 0.930 . S
H694 C652 0.930 . S
H695 C653 0.930 . S
H696 C655 0.929 . S
H697 C656 0.930 . S
H698 C657 0.930 . S
H699 C658 0.930 . S
H700 C662 0.929 1_455 S
H701 C664 0.930 . S
H702 C670 0.929 . S
H703 C671 0.930 1_565 S
C704 C705 1.369 1_565 S
C704 C706 1.419 . S
C704 H708 0.930 1_554 S
C705 C704 1.369 1_545 S
C705 C714 1.429 . S
C706 C704 1.419 . S
C706 C707 1.363 . S
C706 H709 0.929 1_554 S
C707 C706 1.363 . S
C707 C713 1.428 1_565 S
H708 C704 0.930 1_556 S
H709 C706 0.929 1_556 S
S710 N711 1.613 . S
S710 N712 1.610 . S
N711 S710 1.613 . S
N711 C714 1.350 . S
N712 S710 1.610 . S
N712 C713 1.351 . S
C713 C707 1.428 1_545 S
C713 N712 1.351 . S
C713 C714 1.434 . S
C714 C705 1.429 . S
C714 N711 1.350 . S
C714 C713 1.434 . S
C715 C716 1.369 . S
C715 C717 1.419 . S
C715 H719 0.930 . S
C716 C715 1.369 . S
C716 C725 1.429 . S
C717 C715 1.419 . S
C717 C718 1.363 . S
C717 H720 0.929 . S
C718 C717 1.363 . S
C718 C724 1.428 . S
H719 C715 0.930 . S
H720 C717 0.929 . S
S721 N722 1.613 . S
S721 N723 1.610 . S
N722 S721 1.613 . S
N722 C725 1.350 . S
N723 S721 1.610 . S
N723 C724 1.351 . S
C724 C718 1.428 . S
C724 N723 1.351 . S
C724 C725 1.434 . S
C725 C716 1.429 . S
C725 N722 1.350 . S
C725 C724 1.434 . S
C726 C727 1.369 . S
C726 C728 1.419 . S
C726 H730 0.930 . S
C727 C726 1.369 . S
C727 C736 1.429 1_565 S
C728 C726 1.419 . S
C728 C729 1.363 1_565 S
C728 H731 0.929 . S
C729 C728 1.363 1_545 S
C729 C735 1.428 . S
H730 C726 0.930 . S
H731 C728 0.929 . S
S732 N733 1.613 . S
S732 N734 1.610 . S
N733 S732 1.613 . S
N733 C736 1.350 1_554 S
N734 S732 1.610 . S
N734 C735 1.351 1_554 S
C735 C729 1.428 . S
C735 N734 1.351 1_556 S
C735 C736 1.434 . S
C736 C727 1.429 1_545 S
C736 N733 1.350 1_556 S
C736 C735 1.434 . S
C737 C738 1.369 . S
C737 C739 1.419 . S
C737 H741 0.930 . S
C738 C737 1.369 . S
C738 C747 1.429 . S
C739 C737 1.419 . S
C739 C740 1.363 . S
C739 H742 0.929 . S
C740 C739 1.363 . S
C740 C746 1.428 . S
H741 C737 0.930 . S
H742 C739 0.929 . S
S743 N744 1.613 . S
S743 N745 1.610 . S
N744 S743 1.613 . S
N744 C747 1.350 . S
N745 S743 1.610 . S
N745 C746 1.351 . S
C746 C740 1.428 . S
C746 N745 1.351 . S
C746 C747 1.434 . S
C747 C738 1.429 . S
C747 N744 1.350 . S
C747 C746 1.434 . S
C748 C749 1.369 . S
C748 C750 1.419 . S
C748 H752 0.930 . S
C749 C748 1.369 . S
C749 C758 1.429 . S
C750 C748 1.419 . S
C750 C751 1.363 . S
C750 H753 0.929 . S
C751 C750 1.363 . S
C751 C757 1.428 . S
H752 C748 0.930 . S
H753 C750 0.929 . S
S754 N755 1.613 . S
S754 N756 1.610 . S
N755 S754 1.613 . S
N755 C758 1.350 . S
N756 S754 1.610 . S
N756 C757 1.351 . S
C757 C751 1.428 . S
C757 N756 1.351 . S
C757 C758 1.434 . S
C758 C749 1.429 . S
C758 N755 1.350 . S
C758 C757 1.434 . S
C759 C760 1.369 . S
C759 C761 1.419 . S
C759 H763 0.930 . S
C760 C759 1.369 . S
C760 C769 1.429 . S
C761 C759 1.419 . S
C761 C762 1.363 . S
C761 H764 0.929 . S
C762 C761 1.363 . S
C762 C768 1.428 . S
H763 C759 0.930 . S
H764 C761 0.929 . S
S765 N766 1.613 . S
S765 N767 1.610 . S
N766 S765 1.613 . S
N766 C769 1.350 . S
N767 S765 1.610 . S
N767 C768 1.351 . S
C768 C762 1.428 . S
C768 N767 1.351 . S
C768 C769 1.434 . S
C769 C760 1.429 . S
C769 N766 1.350 . S
C769 C768 1.434 . S
C770 C771 1.369 . S
C770 C772 1.419 . S
C770 H774 0.930 . S
C771 C770 1.369 . S
C771 C780 1.429 . S
C772 C770 1.419 . S
C772 C773 1.363 . S
C772 H775 0.929 . S
C773 C772 1.363 . S
C773 C779 1.428 . S
H774 C770 0.930 . S
H775 C772 0.929 . S
S776 N777 1.613 . S
S776 N778 1.610 . S
N777 S776 1.613 . S
N777 C780 1.350 . S
N778 S776 1.610 . S
N778 C779 1.351 . S
C779 C773 1.428 . S
C779 N778 1.351 . S
C779 C780 1.434 . S
C780 C771 1.429 . S
C780 N777 1.350 . S
C780 C779 1.434 . S
C781 C782 1.369 . S
C781 C783 1.419 . S
C781 H785 0.930 . S
C782 C781 1.369 . S
C782 C791 1.429 . S
C783 C781 1.419 . S
C783 C784 1.363 . S
C783 H786 0.929 . S
C784 C783 1.363 . S
C784 C790 1.428 . S
H785 C781 0.930 . S
H786 C783 0.929 . S
S787 N788 1.613 . S
S787 N789 1.610 . S
N788 S787 1.613 . S
N788 C791 1.350 . S
N789 S787 1.610 . S
N789 C790 1.351 . S
C790 C784 1.428 . S
C790 N789 1.351 . S
C790 C791 1.434 . S
C791 C782 1.429 . S
C791 N788 1.350 . S
C791 C790 1.434 . S
C792 C793 1.369 . S
C792 C794 1.419 . S
C792 H796 0.930 . S
C793 C792 1.369 . S
C793 C802 1.429 1_556 S
C794 C792 1.419 . S
C794 C795 1.363 1_556 S
C794 H797 0.929 . S
C795 C794 1.363 1_554 S
C795 C801 1.428 . S
H796 C792 0.930 . S
H797 C794 0.929 . S
S798 N799 1.613 . S
S798 N800 1.610 . S
N799 S798 1.613 . S
N799 C802 1.350 . S
N800 S798 1.610 . S
N800 C801 1.351 . S
C801 C795 1.428 . S
C801 N800 1.351 . S
C801 C802 1.434 . S
C802 C793 1.429 1_554 S
C802 N799 1.350 . S
C802 C801 1.434 . S
C803 C804 1.369 1_554 S
C803 C805 1.419 . S
C803 H807 0.930 . S
C804 C803 1.369 1_556 S
C804 C813 1.429 1_455 S
C805 C803 1.419 . S
C805 C806 1.363 1_455 S
C805 H808 0.929 . S
C806 C805 1.363 1_655 S
C806 C812 1.428 1_554 S
H807 C803 0.930 . S
H808 C805 0.929 . S
S809 N810 1.613 . S
S809 N811 1.610 . S
N810 S809 1.613 . S
N810 C813 1.350 . S
N811 S809 1.610 . S
N811 C812 1.351 . S
C812 C806 1.428 1_556 S
C812 N811 1.351 . S
C812 C813 1.434 . S
C813 C804 1.429 1_655 S
C813 N810 1.350 . S
C813 C812 1.434 . S
C814 C815 1.369 . S
C814 C816 1.419 1_565 S
C814 H818 0.930 . S
C815 C814 1.369 . S
C815 C824 1.429 . S
C816 C814 1.419 1_545 S
C816 C817 1.363 . S
C816 H819 0.929 . S
C817 C816 1.363 . S
C817 C823 1.428 . S
H818 C814 0.930 . S
H819 C816 0.929 . S
S820 N821 1.613 1_545 S
S820 N822 1.610 . S
N821 S820 1.613 1_565 S
N821 C824 1.350 . S
N822 S820 1.610 . S
N822 C823 1.351 . S
C823 C817 1.428 . S
C823 N822 1.351 . S
C823 C824 1.434 1_545 S
C824 C815 1.429 . S
C824 N821 1.350 . S
C824 C823 1.434 1_565 S
C825 C826 1.369 1_455 S
C825 C827 1.419 1_545 S
C825 H829 0.930 . S
C826 C825 1.369 1_655 S
C826 C835 1.429 . S
C827 C825 1.419 1_565 S
C827 C828 1.363 . S
C827 H830 0.929 . S
C828 C827 1.363 . S
C828 C834 1.428 1_455 S
H829 C825 0.930 . S
H830 C827 0.929 . S
S831 N832 1.613 . S
S831 N833 1.610 1_545 S
N832 S831 1.613 . S
N832 C835 1.350 . S
N833 S831 1.610 1_565 S
N833 C834 1.351 . S
C834 C828 1.428 1_655 S
C834 N833 1.351 . S
C834 C835 1.434 1_565 S
C835 C826 1.429 . S
C835 N832 1.350 . S
C835 C834 1.434 1_545 S
C836 C837 1.369 . S
C836 C838 1.419 . S
C836 H840 0.930 . S
C837 C836 1.369 . S
C837 C846 1.429 . S
C838 C836 1.419 . S
C838 C839 1.363 . S
C838 H841 0.929 . S
C839 C838 1.363 . S
C839 C845 1.428 . S
H840 C836 0.930 . S
H841 C838 0.929 . S
S842 N843 1.613 . S
S842 N844 1.610 . S
N843 S842 1.613 . S
N843 C846 1.350 . S
N844 S842 1.610 . S
N844 C845 1.351 . S
C845 C839 1.428 . S
C845 N844 1.351 . S
C845 C846 1.434 . S
C846 C837 1.429 . S
C846 N843 1.350 . S
C846 C845 1.434 . S
C847 C848 1.369 . S
C847 C849 1.419 1_545 S
C847 H851 0.930 . S
C848 C847 1.369 . S
C848 C857 1.429 . S
C849 C847 1.419 1_565 S
C849 C850 1.363 . S
C849 H852 0.929 . S
C850 C849 1.363 . S
C850 C856 1.428 . S
H851 C847 0.930 . S
H852 C849 0.929 . S
S853 N854 1.613 . S
S853 N855 1.610 1_545 S
N854 S853 1.613 . S
N854 C857 1.350 . S
N855 S853 1.610 1_565 S
N855 C856 1.351 . S
C856 C850 1.428 . S
C856 N855 1.351 . S
C856 C857 1.434 1_565 S
C857 C848 1.429 . S
C857 N854 1.350 . S
C857 C856 1.434 1_545 S
C858 C859 1.369 . S
C858 C860 1.419 . S
C858 H862 0.930 . S
C859 C858 1.369 . S
C859 C868 1.429 . S
C860 C858 1.419 . S
C860 C861 1.363 . S
C860 H863 0.929 . S
C861 C860 1.363 . S
C861 C867 1.428 . S
H862 C858 0.930 . S
H863 C860 0.929 . S
S864 N865 1.613 . S
S864 N866 1.610 . S
N865 S864 1.613 . S
N865 C868 1.350 . S
N866 S864 1.610 . S
N866 C867 1.351 . S
C867 C861 1.428 . S
C867 N866 1.351 . S
C867 C868 1.434 . S
C868 C859 1.429 . S
C868 N865 1.350 . S
C868 C867 1.434 . S
C869 C870 1.369 . S
C869 C871 1.419 . S
C869 H873 0.930 . S
C870 C869 1.369 . S
C870 C879 1.429 1_565 S
C871 C869 1.419 . S
C871 C872 1.363 1_565 S
C871 H874 0.929 . S
C872 C871 1.363 1_545 S
C872 C878 1.428 . S
H873 C869 0.930 . S
H874 C871 0.929 . S
S875 N876 1.613 . S
S875 N877 1.610 . S
N876 S875 1.613 . S
N876 C879 1.350 . S
N877 S875 1.610 . S
N877 C878 1.351 . S
C878 C872 1.428 . S
C878 N877 1.351 . S
C878 C879 1.434 . S
C879 C870 1.429 1_545 S
C879 N876 1.350 . S
C879 C878 1.434 . S
C705 C49 2.279 . S
C707 C137 2.284 . S
C716 C284 2.285 . S
C718 C205 2.283 . S
C727 C401 2.300 . S
C729 C489 2.292 . S
C738 C557 2.291 . S
C740 C636 2.299 . S
C749 C29 1.637 . S
C751 C225 1.635 . S
C760 C321 1.636 . S
C762 C117 1.637 . S
C771 C409 1.631 . S
C773 C548 1.633 . S
C782 C645 1.634 . S
C784 C497 1.632 . S
C793 C20 2.662 1_556 S
C795 C372 2.656 1_554 S
C804 C108 2.668 1_556 S
C806 C460 2.652 1_554 S
C815 C585 2.658 . S
C817 C233 2.660 . S
C826 C665 2.652 . S
C828 C313 2.665 . S
C837 C145 0.282 . S
C839 C57 0.282 . S
C848 C196 0.297 . S
C850 C293 0.293 . S
C859 C381 0.284 . S
C861 C469 0.291 . S
C870 C577 0.295 . S
C872 C673 0.287 . S
