# Generated by pormake.
# Topology wgs, (5)-cn, num edge types: 1
# Building blocks:
#     Node 0, Type 0, BuildingBlock: XOMCOT_clean_sbu_1, # of connection points: 5
#     Node 1, Type 0, BuildingBlock: XOMCOT_clean_sbu_1, # of connection points: 5
#     Node 2, Type 0, BuildingBlock: XOMCOT_clean_sbu_1, # of connection points: 5
#     Node 3, Type 0, BuildingBlock: XOMCOT_clean_sbu_1, # of connection points: 5
#     Node 4, Type 0, BuildingBlock: XOMCOT_clean_sbu_1, # of connection points: 5
#     Node 5, Type 0, BuildingBlock: XOMCOT_clean_sbu_1, # of connection points: 5
#     Node 6, Type 0, BuildingBlock: XOMCOT_clean_sbu_1, # of connection points: 5
#     Node 7, Type 0, BuildingBlock: XOMCOT_clean_sbu_1, # of connection points: 5
#     Node 8, Type 0, BuildingBlock: XOMCOT_clean_sbu_1, # of connection points: 5
#     Node 9, Type 0, BuildingBlock: XOMCOT_clean_sbu_1, # of connection points: 5
#     Node 10, Type 0, BuildingBlock: XOMCOT_clean_sbu_1, # of connection points: 5
#     Node 11, Type 0, BuildingBlock: XOMCOT_clean_sbu_1, # of connection points: 5
#     Node 12, Type 0, BuildingBlock: XOMCOT_clean_sbu_1, # of connection points: 5
#     Node 13, Type 0, BuildingBlock: XOMCOT_clean_sbu_1, # of connection points: 5
#     Node 14, Type 0, BuildingBlock: XOMCOT_clean_sbu_1, # of connection points: 5
#     Node 15, Type 0, BuildingBlock: XOMCOT_clean_sbu_1, # of connection points: 5
#     Node 16, Type 0, BuildingBlock: XOMCOT_clean_sbu_1, # of connection points: 5
#     Node 17, Type 0, BuildingBlock: XOMCOT_clean_sbu_1, # of connection points: 5
#     Node 18, Type 0, BuildingBlock: XOMCOT_clean_sbu_1, # of connection points: 5
#     Node 19, Type 0, BuildingBlock: XOMCOT_clean_sbu_1, # of connection points: 5
#     Node 20, Type 0, BuildingBlock: XOMCOT_clean_sbu_1, # of connection points: 5
#     Node 21, Type 0, BuildingBlock: XOMCOT_clean_sbu_1, # of connection points: 5
#     Node 22, Type 0, BuildingBlock: XOMCOT_clean_sbu_1, # of connection points: 5
#     Node 23, Type 0, BuildingBlock: XOMCOT_clean_sbu_1, # of connection points: 5
#     Node 24, Type 0, BuildingBlock: XOMCOT_clean_sbu_1, # of connection points: 5
#     Node 25, Type 0, BuildingBlock: XOMCOT_clean_sbu_1, # of connection points: 5
#     Node 26, Type 0, BuildingBlock: XOMCOT_clean_sbu_1, # of connection points: 5
#     Node 27, Type 0, BuildingBlock: XOMCOT_clean_sbu_1, # of connection points: 5
#     Node 28, Type 0, BuildingBlock: XOMCOT_clean_sbu_1, # of connection points: 5
#     Node 29, Type 0, BuildingBlock: XOMCOT_clean_sbu_1, # of connection points: 5
#     Node 30, Type 0, BuildingBlock: XOMCOT_clean_sbu_1, # of connection points: 5
#     Node 31, Type 0, BuildingBlock: XOMCOT_clean_sbu_1, # of connection points: 5
#     Edge 32, Type (0, 0), BuildingBlock: UVAHIK_clean_linker_0, # of connection points: 2
#     Edge 33, Type (0, 0), BuildingBlock: UVAHIK_clean_linker_0, # of connection points: 2
#     Edge 34, Type (0, 0), BuildingBlock: UVAHIK_clean_linker_0, # of connection points: 2
#     Edge 35, Type (0, 0), BuildingBlock: UVAHIK_clean_linker_0, # of connection points: 2
#     Edge 36, Type (0, 0), BuildingBlock: UVAHIK_clean_linker_0, # of connection points: 2
#     Edge 37, Type (0, 0), BuildingBlock: UVAHIK_clean_linker_0, # of connection points: 2
#     Edge 38, Type (0, 0), BuildingBlock: UVAHIK_clean_linker_0, # of connection points: 2
#     Edge 39, Type (0, 0), BuildingBlock: UVAHIK_clean_linker_0, # of connection points: 2
#     Edge 40, Type (0, 0), BuildingBlock: UVAHIK_clean_linker_0, # of connection points: 2
#     Edge 41, Type (0, 0), BuildingBlock: UVAHIK_clean_linker_0, # of connection points: 2
#     Edge 42, Type (0, 0), BuildingBlock: UVAHIK_clean_linker_0, # of connection points: 2
#     Edge 43, Type (0, 0), BuildingBlock: UVAHIK_clean_linker_0, # of connection points: 2
#     Edge 44, Type (0, 0), BuildingBlock: UVAHIK_clean_linker_0, # of connection points: 2
#     Edge 45, Type (0, 0), BuildingBlock: UVAHIK_clean_linker_0, # of connection points: 2
#     Edge 46, Type (0, 0), BuildingBlock: UVAHIK_clean_linker_0, # of connection points: 2
#     Edge 47, Type (0, 0), BuildingBlock: UVAHIK_clean_linker_0, # of connection points: 2
#     Edge 48, Type (0, 0), BuildingBlock: UVAHIK_clean_linker_0, # of connection points: 2
#     Edge 49, Type (0, 0), BuildingBlock: UVAHIK_clean_linker_0, # of connection points: 2
#     Edge 50, Type (0, 0), BuildingBlock: UVAHIK_clean_linker_0, # of connection points: 2
#     Edge 51, Type (0, 0), BuildingBlock: UVAHIK_clean_linker_0, # of connection points: 2
#     Edge 52, Type (0, 0), BuildingBlock: UVAHIK_clean_linker_0, # of connection points: 2
#     Edge 53, Type (0, 0), BuildingBlock: UVAHIK_clean_linker_0, # of connection points: 2
#     Edge 54, Type (0, 0), BuildingBlock: UVAHIK_clean_linker_0, # of connection points: 2
#     Edge 55, Type (0, 0), BuildingBlock: UVAHIK_clean_linker_0, # of connection points: 2
#     Edge 56, Type (0, 0), BuildingBlock: UVAHIK_clean_linker_0, # of connection points: 2
#     Edge 57, Type (0, 0), BuildingBlock: UVAHIK_clean_linker_0, # of connection points: 2
#     Edge 58, Type (0, 0), BuildingBlock: UVAHIK_clean_linker_0, # of connection points: 2
#     Edge 59, Type (0, 0), BuildingBlock: UVAHIK_clean_linker_0, # of connection points: 2
#     Edge 60, Type (0, 0), BuildingBlock: UVAHIK_clean_linker_0, # of connection points: 2
#     Edge 61, Type (0, 0), BuildingBlock: UVAHIK_clean_linker_0, # of connection points: 2
#     Edge 62, Type (0, 0), BuildingBlock: UVAHIK_clean_linker_0, # of connection points: 2
#     Edge 63, Type (0, 0), BuildingBlock: UVAHIK_clean_linker_0, # of connection points: 2
#     Edge 64, Type (0, 0), BuildingBlock: UVAHIK_clean_linker_0, # of connection points: 2
#     Edge 65, Type (0, 0), BuildingBlock: UVAHIK_clean_linker_0, # of connection points: 2
#     Edge 66, Type (0, 0), BuildingBlock: UVAHIK_clean_linker_0, # of connection points: 2
#     Edge 67, Type (0, 0), BuildingBlock: UVAHIK_clean_linker_0, # of connection points: 2
#     Edge 68, Type (0, 0), BuildingBlock: UVAHIK_clean_linker_0, # of connection points: 2
#     Edge 69, Type (0, 0), BuildingBlock: UVAHIK_clean_linker_0, # of connection points: 2
#     Edge 70, Type (0, 0), BuildingBlock: UVAHIK_clean_linker_0, # of connection points: 2
#     Edge 71, Type (0, 0), BuildingBlock: UVAHIK_clean_linker_0, # of connection points: 2
#     Edge 72, Type (0, 0), BuildingBlock: UVAHIK_clean_linker_0, # of connection points: 2
#     Edge 73, Type (0, 0), BuildingBlock: UVAHIK_clean_linker_0, # of connection points: 2
#     Edge 74, Type (0, 0), BuildingBlock: UVAHIK_clean_linker_0, # of connection points: 2
#     Edge 75, Type (0, 0), BuildingBlock: UVAHIK_clean_linker_0, # of connection points: 2
#     Edge 76, Type (0, 0), BuildingBlock: UVAHIK_clean_linker_0, # of connection points: 2
#     Edge 77, Type (0, 0), BuildingBlock: UVAHIK_clean_linker_0, # of connection points: 2
#     Edge 78, Type (0, 0), BuildingBlock: UVAHIK_clean_linker_0, # of connection points: 2
#     Edge 79, Type (0, 0), BuildingBlock: UVAHIK_clean_linker_0, # of connection points: 2
#     Edge 80, Type (0, 0), BuildingBlock: UVAHIK_clean_linker_0, # of connection points: 2
#     Edge 81, Type (0, 0), BuildingBlock: UVAHIK_clean_linker_0, # of connection points: 2
#     Edge 82, Type (0, 0), BuildingBlock: UVAHIK_clean_linker_0, # of connection points: 2
#     Edge 83, Type (0, 0), BuildingBlock: UVAHIK_clean_linker_0, # of connection points: 2
#     Edge 84, Type (0, 0), BuildingBlock: UVAHIK_clean_linker_0, # of connection points: 2
#     Edge 85, Type (0, 0), BuildingBlock: UVAHIK_clean_linker_0, # of connection points: 2
#     Edge 86, Type (0, 0), BuildingBlock: UVAHIK_clean_linker_0, # of connection points: 2
#     Edge 87, Type (0, 0), BuildingBlock: UVAHIK_clean_linker_0, # of connection points: 2
#     Edge 88, Type (0, 0), BuildingBlock: UVAHIK_clean_linker_0, # of connection points: 2
#     Edge 89, Type (0, 0), BuildingBlock: UVAHIK_clean_linker_0, # of connection points: 2
#     Edge 90, Type (0, 0), BuildingBlock: UVAHIK_clean_linker_0, # of connection points: 2
#     Edge 91, Type (0, 0), BuildingBlock: UVAHIK_clean_linker_0, # of connection points: 2
#     Edge 92, Type (0, 0), BuildingBlock: UVAHIK_clean_linker_0, # of connection points: 2
#     Edge 93, Type (0, 0), BuildingBlock: UVAHIK_clean_linker_0, # of connection points: 2
#     Edge 94, Type (0, 0), BuildingBlock: UVAHIK_clean_linker_0, # of connection points: 2
#     Edge 95, Type (0, 0), BuildingBlock: UVAHIK_clean_linker_0, # of connection points: 2
#     Edge 96, Type (0, 0), BuildingBlock: UVAHIK_clean_linker_0, # of connection points: 2
#     Edge 97, Type (0, 0), BuildingBlock: UVAHIK_clean_linker_0, # of connection points: 2
#     Edge 98, Type (0, 0), BuildingBlock: UVAHIK_clean_linker_0, # of connection points: 2
#     Edge 99, Type (0, 0), BuildingBlock: UVAHIK_clean_linker_0, # of connection points: 2
#     Edge 100, Type (0, 0), BuildingBlock: UVAHIK_clean_linker_0, # of connection points: 2
#     Edge 101, Type (0, 0), BuildingBlock: UVAHIK_clean_linker_0, # of connection points: 2
#     Edge 102, Type (0, 0), BuildingBlock: UVAHIK_clean_linker_0, # of connection points: 2
#     Edge 103, Type (0, 0), BuildingBlock: UVAHIK_clean_linker_0, # of connection points: 2
#     Edge 104, Type (0, 0), BuildingBlock: UVAHIK_clean_linker_0, # of connection points: 2
#     Edge 105, Type (0, 0), BuildingBlock: UVAHIK_clean_linker_0, # of connection points: 2
#     Edge 106, Type (0, 0), BuildingBlock: UVAHIK_clean_linker_0, # of connection points: 2
#     Edge 107, Type (0, 0), BuildingBlock: UVAHIK_clean_linker_0, # of connection points: 2
#     Edge 108, Type (0, 0), BuildingBlock: UVAHIK_clean_linker_0, # of connection points: 2
#     Edge 109, Type (0, 0), BuildingBlock: UVAHIK_clean_linker_0, # of connection points: 2
#     Edge 110, Type (0, 0), BuildingBlock: UVAHIK_clean_linker_0, # of connection points: 2
#     Edge 111, Type (0, 0), BuildingBlock: UVAHIK_clean_linker_0, # of connection points: 2
# Relax obj value: 0.242
# Max RMSD: 0.263
# Mean RMSD: 0.263
data_MOF--net-wgs--node1-XOMCOT_clean_sbu_1--edge1-UVAHIK_clean_linker_0
_symmetry_space_group_name_H-M    P1
_symmetry_Int_Tables_number       1
_symmetry_cell_setting            triclinic
loop_
_symmetry_equiv_pos_as_xyz
'x, y, z'
_cell_length_a     37.810966
_cell_length_b     37.826891
_cell_length_c     173.39829
_cell_angle_alpha  90.020316
_cell_angle_beta   89.998994
_cell_angle_gamma 89.988617
loop_
_atom_site_label
_atom_site_type_symbol
_atom_site_fract_x
_atom_site_fract_y
_atom_site_fract_z
_atom_type_partial_charge
C0 C 0.26037 0.05227 0.33341 0.0
C1 C 0.2576 0.05076 0.3413 0.0
N2 N 0.29007 0.05538 0.34432 0.0
N3 N 0.29435 0.05825 0.33145 0.0
C4 C 0.312 0.05956 0.33824 0.0
H5 H 0.2388 0.05039 0.32933 0.0
Co6 Co 0.30879 0.06687 0.32136 0.0
C7 C 0.382 0.09011 0.32376 0.0
O8 O 0.39323 0.06285 0.31975 0.0
N9 N 0.32274 0.07537 0.31113 0.0
C10 C 0.34211 0.10132 0.30044 0.0
C11 C 0.33678 0.10535 0.30823 0.0
C12 C 0.31941 0.0537 0.30497 0.0
N13 N 0.33115 0.06875 0.29837 0.0
O14 O 0.33524 0.02425 0.32144 0.0
H15 H 0.34244 0.12886 0.31157 0.0
H16 H 0.30766 0.02771 0.30526 0.0
O17 O 0.34897 0.09407 0.32498 0.0
C18 C 0.31559 -0.00186 0.31976 0.0
O19 O 0.28169 0.00388 0.31862 0.0
N20 N 0.28061 0.10716 0.32119 0.0
C21 C 0.23029 0.16063 0.32146 0.0
C22 C 0.25811 0.16044 0.3268 0.0
C23 C 0.28315 0.13341 0.32656 0.0
C24 C 0.25364 0.10682 0.31598 0.0
C25 C 0.22839 0.13368 0.31594 0.0
H26 H 0.3037 0.13281 0.33089 0.0
H27 H 0.25128 0.08512 0.31195 0.0
H28 H 0.34001 0.06498 0.33873 0.0
H29 H 0.23354 0.04695 0.34458 0.0
H30 H 0.35337 0.1209 0.29661 0.0
H31 H 0.26041 0.18098 0.33113 0.0
H32 H 0.20708 0.13289 0.31176 0.0
C33 C 0.17997 0.00756 0.58454 0.0
C34 C 0.17943 0.00606 0.59244 0.0
N35 N 0.17619 0.03923 0.59518 0.0
N36 N 0.17683 0.04148 0.58225 0.0
C37 C 0.17495 0.0603 0.58888 0.0
H38 H 0.18223 0.98526 0.58066 0.0
Co39 Co 0.17439 0.05432 0.57186 0.0
C40 C 0.14855 0.12635 0.57612 0.0
O41 O 0.18068 0.13877 0.57707 0.0
N42 N 0.17185 0.06645 0.56148 0.0
C43 C 0.15051 0.08033 0.54994 0.0
C44 C 0.1429 0.07792 0.55767 0.0
C45 C 0.19684 0.0624 0.55598 0.0
N46 N 0.18441 0.07056 0.54889 0.0
O47 O 0.21573 0.08265 0.57289 0.0
H48 H 0.11748 0.083 0.56031 0.0
H49 H 0.22311 0.05226 0.5571 0.0
O50 O 0.14382 0.09407 0.57426 0.0
C51 C 0.24451 0.06688 0.57445 0.0
O52 O 0.24446 0.03246 0.57543 0.0
N53 N 0.13538 0.02471 0.57069 0.0
C54 C 0.08247 0.97392 0.56938 0.0
C55 C 0.07773 0.00382 0.57408 0.0
C56 C 0.10466 0.02879 0.57471 0.0
C57 C 0.1405 0.99602 0.56607 0.0
C58 C 0.11425 0.97033 0.56529 0.0
H59 H 0.10113 0.05077 0.57861 0.0
H60 H 0.16545 0.99273 0.5631 0.0
H61 H 0.17208 0.08871 0.58911 0.0
H62 H 0.18161 0.98239 0.59592 0.0
H63 H 0.13242 0.08823 0.54542 0.0
H64 H 0.05347 0.00787 0.57728 0.0
H65 H 0.1192 0.94747 0.56168 0.0
C66 C 0.23081 0.93126 0.83348 0.0
C67 C 0.23421 0.93089 0.84137 0.0
N68 N 0.2021 0.92494 0.84446 0.0
N69 N 0.19682 0.92492 0.83159 0.0
C70 C 0.17975 0.92171 0.83841 0.0
H71 H 0.25187 0.93535 0.82936 0.0
Co72 Co 0.18076 0.9213 0.82147 0.0
C73 C 0.13496 0.85894 0.82117 0.0
O74 O 0.15303 0.84875 0.81508 0.0
N75 N 0.16401 0.91966 0.81105 0.0
C76 C 0.12581 0.92073 0.80121 0.0
C77 C 0.12959 0.91606 0.80901 0.0
C78 C 0.18006 0.92906 0.80435 0.0
N79 N 0.15758 0.92906 0.79829 0.0
O80 O 0.14999 0.96023 0.82324 0.0
H81 H 0.10794 0.91232 0.81299 0.0
H82 H 0.20698 0.93821 0.80392 0.0
O83 O 0.1432 0.88778 0.82462 0.0
C84 C 0.16158 0.98833 0.82012 0.0
O85 O 0.19154 0.98714 0.81629 0.0
N86 N 0.21359 0.88406 0.81988 0.0
C87 C 0.26746 0.83402 0.81871 0.0
C88 C 0.24102 0.83041 0.82428 0.0
C89 C 0.21455 0.85587 0.82483 0.0
C90 C 0.24066 0.88904 0.81479 0.0
C91 C 0.26728 0.86371 0.81392 0.0
H92 H 0.19534 0.85338 0.82941 0.0
H93 H 0.24297 0.91346 0.81168 0.0
H94 H 0.15171 0.91646 0.83894 0.0
H95 H 0.25835 0.93504 0.84461 0.0
H96 H 0.1012 0.92049 0.79802 0.0
H97 H 0.24082 0.80806 0.82819 0.0
H98 H 0.28818 0.86788 0.80974 0.0
C99 C 0.29726 0.97852 0.08245 0.0
C100 C 0.29181 0.98266 0.09022 0.0
N101 N 0.30169 0.95266 0.09381 0.0
N102 N 0.31052 0.94608 0.08109 0.0
C103 C 0.31302 0.93084 0.08813 0.0
H104 H 0.29226 -0.00191 0.07804 0.0
Co105 Co 0.32158 0.93161 0.0711 0.0
C106 C 0.34831 0.86289 0.07725 0.0
O107 O 0.3164 0.84974 0.07811 0.0
N108 N 0.33189 0.91791 0.06099 0.0
C109 C 0.35823 0.89839 0.05036 0.0
C110 C 0.36188 0.9035 0.05818 0.0
C111 C 0.31057 0.92151 0.05479 0.0
N112 N 0.32586 0.90972 0.04822 0.0
O113 O 0.28187 0.90094 0.07108 0.0
H114 H 0.38507 0.89739 0.06158 0.0
H115 H 0.28457 0.93333 0.05506 0.0
O116 O 0.35239 0.89441 0.07481 0.0
C117 C 0.25276 0.91642 0.06973 0.0
O118 O 0.25244 0.95069 0.06855 0.0
N119 N 0.35928 0.96332 0.07101 0.0
C120 C 0.41059 0.01594 0.07112 0.0
C121 C 0.411 0.98903 0.07667 0.0
C122 C 0.38508 0.96285 0.07651 0.0
C123 C 0.3581 0.9896 0.06564 0.0
C124 C 0.38389 0.01599 0.06552 0.0
H125 H 0.38526 0.94275 0.08094 0.0
H126 H 0.33679 0.99029 0.06148 0.0
H127 H 0.32271 0.90435 0.0891 0.0
H128 H 0.28201 0.0063 0.09301 0.0
H129 H 0.37786 0.88691 0.04657 0.0
H130 H 0.43137 0.98804 0.08106 0.0
H131 H 0.38265 0.03654 0.06118 0.0
C132 C 0.26643 0.95522 0.18775 0.0
C133 C 0.26109 0.95914 0.17997 0.0
N134 N 0.29025 0.94781 0.17623 0.0
N135 N 0.29874 0.94142 0.18897 0.0
C136 C 0.31278 0.93722 0.18184 0.0
H137 H 0.24765 0.96127 0.19227 0.0
Co138 Co 0.31487 0.93047 0.19879 0.0
C139 C 0.38665 0.90516 0.19585 0.0
O140 O 0.3986 0.93025 0.20039 0.0
N141 N 0.33024 0.91986 0.20884 0.0
C142 C 0.3493 0.89183 0.21933 0.0
C143 C 0.34385 0.88918 0.21149 0.0
C144 C 0.32726 0.94046 0.21518 0.0
N145 N 0.33882 0.92419 0.22164 0.0
O146 O 0.34304 0.97202 0.19866 0.0
H147 H 0.34883 0.86606 0.20798 0.0
H148 H 0.31551 0.96645 0.21513 0.0
O149 O 0.35351 0.90266 0.19457 0.0
C150 C 0.32703 -0.00046 0.20098 0.0
O151 O 0.29384 0.99704 0.20315 0.0
N152 N 0.28528 0.89123 0.19891 0.0
C153 C 0.23382 0.83881 0.19882 0.0
C154 C 0.26094 0.83877 0.1933 0.0
C155 C 0.28654 0.86528 0.19345 0.0
C156 C 0.25893 0.89189 0.20427 0.0
C157 C 0.23312 0.86557 0.2044 0.0
H158 H 0.30665 0.86554 0.18903 0.0
H159 H 0.25763 0.91335 0.20839 0.0
H160 H 0.33883 0.92642 0.1808 0.0
H161 H 0.23703 0.96858 0.1773 0.0
H162 H 0.36003 0.87139 0.22301 0.0
H163 H 0.26237 0.81838 0.18892 0.0
H164 H 0.21239 0.86655 0.2087 0.0
C165 C 0.31004 0.00754 0.43733 0.0
C166 C 0.3112 0.00271 0.42948 0.0
N167 N 0.31769 0.03419 0.42616 0.0
N168 N 0.31641 0.0418 0.43896 0.0
C169 C 0.32045 0.05759 0.43202 0.0
H170 H 0.30552 0.98725 0.44161 0.0
Co171 Co 0.31991 0.0596 0.44893 0.0
C172 C 0.38095 0.10723 0.44888 0.0
O173 O 0.39123 0.09144 0.45525 0.0
N174 N 0.32175 0.07812 0.45919 0.0
C175 C 0.31965 0.11813 0.46866 0.0
C176 C 0.32242 0.11312 0.46085 0.0
C177 C 0.31647 0.06265 0.46615 0.0
N178 N 0.31576 0.08634 0.47199 0.0
O179 O 0.28057 0.08958 0.44693 0.0
H180 H 0.32339 0.13402 0.4566 0.0
H181 H 0.31127 0.03494 0.467 0.0
O182 O 0.35276 0.09696 0.44544 0.0
C183 C 0.25257 0.07949 0.45033 0.0
O184 O 0.25383 0.05123 0.45473 0.0
N185 N 0.35739 0.02753 0.45074 0.0
C186 C 0.4068 0.9733 0.45212 0.0
C187 C 0.41175 0.00028 0.44673 0.0
C188 C 0.38652 0.02689 0.44605 0.0
C189 C 0.3511 -9e-05 0.45561 0.0
C190 C 0.3761 0.97307 0.4566 0.0
H191 H 0.38982 0.04612 0.44151 0.0
H192 H 0.32577 0.99731 0.45838 0.0
H193 H 0.32616 0.08542 0.43127 0.0
H194 H 0.30742 0.97801 0.42643 0.0
H195 H 0.31845 0.14329 0.47163 0.0
H196 H 0.43482 0.00058 0.44302 0.0
H197 H 0.37087 0.95165 0.46059 0.0
C198 C 0.2463 0.06771 0.68749 0.0
C199 C 0.24983 0.06567 0.67963 0.0
N200 N 0.21771 0.0703 0.6764 0.0
N201 N 0.21219 0.07384 0.68928 0.0
C202 C 0.1953 0.07513 0.6824 0.0
H203 H 0.26739 0.06544 0.69168 0.0
Co204 Co 0.19674 0.07954 0.69943 0.0
C205 C 0.12609 0.10484 0.69408 0.0
O206 O 0.11353 0.07257 0.69355 0.0
N207 N 0.18199 0.08486 0.70961 0.0
C208 C 0.16497 0.10813 0.72077 0.0
C209 C 0.16915 0.1143 0.713 0.0
C210 C 0.18515 0.06111 0.71539 0.0
N211 N 0.17505 0.07465 0.72225 0.0
O212 O 0.16857 0.03826 0.69852 0.0
H213 H 0.16426 0.13904 0.71007 0.0
H214 H 0.19607 0.03489 0.71463 0.0
O215 O 0.15807 0.10993 0.69615 0.0
C216 C 0.18668 0.00999 0.69858 0.0
O217 O 0.22115 0.01213 0.69943 0.0
N218 N 0.22651 0.11848 0.70043 0.0
C219 C 0.27925 0.16934 0.70095 0.0
C220 C 0.25189 0.17188 0.69554 0.0
C221 C 0.22554 0.14617 0.69539 0.0
C222 C 0.2529 0.11572 0.70576 0.0
C223 C 0.27938 0.14135 0.70621 0.0
H224 H 0.20538 0.14763 0.69099 0.0
H225 H 0.25393 0.093 0.70954 0.0
H226 H 0.16717 0.07935 0.68182 0.0
H227 H 0.27444 0.06189 0.67656 0.0
H228 H 0.15558 0.12689 0.72502 0.0
H229 H 0.25113 0.19338 0.69142 0.0
H230 H 0.30028 0.13877 0.71044 0.0
C231 C 0.18549 0.98064 0.93759 0.0
C232 C 0.18573 0.98516 0.92973 0.0
N233 N 0.18062 0.95342 0.9264 0.0
N234 N 0.17973 0.94629 0.93922 0.0
C235 C 0.17734 0.93018 0.93227 0.0
H236 H 0.18828 0.00124 0.94188 0.0
Co237 Co 0.1733 0.92926 0.9492 0.0
C238 C 0.14685 0.85754 0.94628 0.0
O239 O 0.17291 0.84457 0.95042 0.0
N240 N 0.16686 0.91288 0.95934 0.0
C241 C 0.14209 0.89293 0.97012 0.0
C242 C 0.13722 0.89864 0.96236 0.0
C243 C 0.18917 0.91598 0.9654 0.0
N244 N 0.17482 0.90394 0.97205 0.0
O245 O 0.2149 0.90159 0.94815 0.0
H246 H 0.11317 0.89356 0.95917 0.0
H247 H 0.2149 0.92822 0.96504 0.0
O248 O 0.14441 0.89086 0.9453 0.0
C249 C 0.24253 0.9185 0.95007 0.0
O250 O 0.23949 0.95152 0.95234 0.0
N251 N 0.13397 0.95836 0.95027 0.0
C252 C 0.08121 0.00932 0.95163 0.0
C253 C 0.07747 0.98089 0.94648 0.0
C254 C 0.10433 0.95582 0.94583 0.0
C255 C 0.1381 0.98558 0.95534 0.0
C256 C 0.11194 0.01133 0.95614 0.0
H257 H 0.10163 0.93508 0.94159 0.0
H258 H 0.16228 0.98771 0.95864 0.0
H259 H 0.17199 0.90228 0.93152 0.0
H260 H 0.18914 0.0099 0.92668 0.0
H261 H 0.12281 0.88179 0.97404 0.0
H262 H 0.05404 0.97804 0.94294 0.0
H263 H 0.11617 0.03305 0.9601 0.0
C264 C 0.72713 0.93699 0.68689 0.0
C265 C 0.73274 0.93838 0.67908 0.0
N266 N 0.70298 0.92787 0.67545 0.0
N267 N 0.6941 0.92537 0.68825 0.0
C268 C 0.67985 0.92003 0.68118 0.0
H269 H 0.74595 0.94396 0.69133 0.0
Co270 Co 0.677 0.9212 0.69825 0.0
C271 C 0.62741 0.86182 0.6982 0.0
O272 O 0.64366 0.85058 0.70444 0.0
N273 N 0.65966 0.91913 0.70859 0.0
C274 C 0.62126 0.92284 0.71835 0.0
C275 C 0.62495 0.91889 0.71052 0.0
C276 C 0.67631 0.92538 0.71539 0.0
N277 N 0.65359 0.92713 0.7214 0.0
O278 O 0.64807 0.96162 0.69657 0.0
H279 H 0.60332 0.91794 0.70645 0.0
H280 H 0.70413 0.93099 0.71595 0.0
O281 O 0.63817 0.8899 0.6948 0.0
C282 C 0.65978 0.9891 0.69993 0.0
O283 O 0.68876 0.98665 0.70408 0.0
N284 N 0.70814 0.88263 0.69972 0.0
C285 C 0.76141 0.83146 0.70045 0.0
C286 C 0.73274 0.82755 0.6954 0.0
C287 C 0.70701 0.85376 0.69497 0.0
C288 C 0.73677 0.88769 0.70438 0.0
C289 C 0.76329 0.86204 0.70499 0.0
H290 H 0.68693 0.85129 0.69059 0.0
H291 H 0.74044 0.91262 0.70727 0.0
H292 H 0.65297 0.9112 0.68025 0.0
H293 H 0.75716 0.94619 0.67631 0.0
H294 H 0.59658 0.92497 0.72148 0.0
H295 H 0.73041 0.80463 0.69169 0.0
H296 H 0.7858 0.86685 0.70871 0.0
C297 C 0.79743 0.98043 0.43556 0.0
C298 C 0.79574 0.98393 0.42768 0.0
N299 N 0.80419 0.95262 0.42448 0.0
N300 N 0.80723 0.94717 0.43733 0.0
C301 C 0.81078 0.9306 0.43045 0.0
H302 H 0.7932 0.00119 0.43975 0.0
Co303 Co 0.81782 0.93382 0.4474 0.0
C304 C 0.84012 0.86016 0.44557 0.0
O305 O 0.81481 0.85056 0.45032 0.0
N306 N 0.8283 0.92129 0.45767 0.0
C307 C 0.85619 0.90339 0.46827 0.0
C308 C 0.85884 0.90773 0.4604 0.0
C309 C 0.80778 0.92545 0.46399 0.0
N310 N 0.82396 0.91455 0.47054 0.0
O311 O 0.77501 0.90761 0.44783 0.0
H312 H 0.88174 0.90161 0.45691 0.0
H313 H 0.78176 0.93715 0.46386 0.0
O314 O 0.84359 0.89267 0.44377 0.0
C315 C 0.74846 0.92569 0.44997 0.0
O316 O 0.75266 0.95952 0.45143 0.0
N317 N 0.8585 0.96147 0.44697 0.0
C318 C 0.913 0.01055 0.44576 0.0
C319 C 0.91188 0.98098 0.44088 0.0
C320 C 0.88431 0.95672 0.44156 0.0
C321 C 0.85906 0.99002 0.45175 0.0
C322 C 0.88634 0.01478 0.4513 0.0
H323 H 0.88312 0.93488 0.43757 0.0
H324 H 0.83775 0.99398 0.45583 0.0
H325 H 0.81977 0.9036 0.4298 0.0
H326 H 0.78945 0.00783 0.42453 0.0
H327 H 0.87646 0.89261 0.47199 0.0
H328 H 0.93211 0.97665 0.43656 0.0
H329 H 0.88608 0.03746 0.45512 0.0
C330 C 0.7616 0.07997 0.18569 0.0
C331 C 0.75898 0.08002 0.17779 0.0
N332 N 0.79187 0.07927 0.17483 0.0
N333 N 0.79602 0.07964 0.18773 0.0
C334 C 0.81393 0.07878 0.18097 0.0
H335 H 0.73976 0.08057 0.18972 0.0
Co336 Co 0.81174 0.08199 0.19795 0.0
C337 C 0.88539 0.10471 0.19572 0.0
O338 O 0.89653 0.07706 0.19961 0.0
N339 N 0.82671 0.08441 0.20821 0.0
C340 C 0.84933 0.10313 0.21932 0.0
C341 C 0.84373 0.11143 0.2117 0.0
C342 C 0.82139 0.06039 0.21387 0.0
N343 N 0.83515 0.07111 0.22068 0.0
O344 O 0.83767 0.03928 0.19663 0.0
H345 H 0.85117 0.13589 0.20891 0.0
H346 H 0.80774 0.03555 0.21301 0.0
O347 O 0.85234 0.10944 0.19468 0.0
C348 C 0.82054 0.01118 0.19519 0.0
O349 O 0.78595 0.01248 0.19454 0.0
N350 N 0.78479 0.12266 0.19936 0.0
C351 C 0.73494 0.17657 0.20034 0.0
C352 C 0.76511 0.18032 0.19568 0.0
C353 C 0.78963 0.15293 0.19522 0.0
C354 C 0.75632 0.11891 0.20411 0.0
C355 C 0.73106 0.14568 0.20472 0.0
H356 H 0.81148 0.15551 0.19126 0.0
H357 H 0.75247 0.09435 0.20719 0.0
H358 H 0.84249 0.0786 0.18055 0.0
H359 H 0.73474 0.08032 0.17447 0.0
H360 H 0.862 0.11974 0.22359 0.0
H361 H 0.7694 0.20396 0.19229 0.0
H362 H 0.70803 0.14159 0.20832 0.0
C363 C 0.69997 0.0225 0.93606 0.0
C364 C 0.70198 0.01956 0.92818 0.0
N365 N 0.68814 0.04903 0.92501 0.0
N366 N 0.68511 0.05372 0.9379 0.0
C367 C 0.67833 0.06949 0.93105 0.0
H368 H 0.70804 0.00275 0.94021 0.0
Co369 Co 0.67476 0.0661 0.94804 0.0
C370 C 0.64714 0.13789 0.94646 0.0
O371 O 0.6716 0.14881 0.95128 0.0
N372 N 0.66478 0.07763 0.95831 0.0
C373 C 0.63723 0.0923 0.96917 0.0
C374 C 0.63362 0.0882 0.96132 0.0
C375 C 0.68677 0.07515 0.96443 0.0
N376 N 0.67074 0.08405 0.97113 0.0
O377 O 0.71542 0.09564 0.94827 0.0
H378 H 0.60966 0.0923 0.95803 0.0
H379 H 0.71379 0.066 0.96401 0.0
O380 O 0.64567 0.10531 0.94458 0.0
C381 C 0.74444 0.07959 0.94935 0.0
O382 O 0.74449 0.04514 0.95025 0.0
N383 N 0.63623 0.03548 0.94781 0.0
C384 C 0.58405 0.98379 0.94725 0.0
C385 C 0.5832 0.01254 0.94216 0.0
C386 C 0.60957 0.03824 0.94254 0.0
C387 C 0.6378 0.00743 0.95273 0.0
C388 C 0.61161 0.98145 0.95262 0.0
H389 H 0.609 0.05981 0.93846 0.0
H390 H 0.65973 0.00507 0.9567 0.0
H391 H 0.66522 0.09478 0.9305 0.0
H392 H 0.71269 0.99726 0.92505 0.0
H393 H 0.61673 0.10086 0.9731 0.0
H394 H 0.56217 0.01529 0.93795 0.0
H395 H 0.61321 0.95945 0.95661 0.0
C396 C 0.74181 0.06143 0.83278 0.0
C397 C 0.74402 0.06133 0.84068 0.0
N398 N 0.71259 0.07171 0.84357 0.0
N399 N 0.70915 0.07171 0.83066 0.0
C400 C 0.69174 0.0776 0.83735 0.0
H401 H 0.76291 0.05504 0.82881 0.0
Co402 Co 0.69677 0.07786 0.82034 0.0
C403 C 0.62507 0.10631 0.82125 0.0
O404 O 0.6145 0.08031 0.81678 0.0
N405 N 0.68531 0.08365 0.80993 0.0
C406 C 0.6738 0.10761 0.7985 0.0
C407 C 0.67707 0.11407 0.80627 0.0
C408 C 0.68675 0.05907 0.80427 0.0
N409 N 0.67988 0.073 0.79726 0.0
O410 O 0.66734 0.03717 0.82089 0.0
H411 H 0.67452 0.13952 0.80907 0.0
H412 H 0.69401 0.03176 0.80524 0.0
O413 O 0.65751 0.10831 0.82323 0.0
C414 C 0.68442 0.00828 0.82095 0.0
O415 O 0.71909 0.00916 0.82045 0.0
N416 N 0.72748 0.11627 0.81984 0.0
C417 C 0.78018 0.16732 0.81987 0.0
C418 C 0.75143 0.16994 0.82493 0.0
C419 C 0.72517 0.14415 0.82481 0.0
C420 C 0.75542 0.11315 0.81491 0.0
C421 C 0.78188 0.13887 0.81473 0.0
H422 H 0.7037 0.14593 0.8289 0.0
H423 H 0.75743 0.09028 0.81119 0.0
H424 H 0.66479 0.0871 0.83766 0.0
H425 H 0.76709 0.05415 0.84402 0.0
H426 H 0.66763 0.12691 0.79409 0.0
H427 H 0.74929 0.19181 0.82894 0.0
H428 H 0.80383 0.13616 0.81075 0.0
C429 C 0.69119 0.97408 0.58248 0.0
C430 C 0.69519 0.97589 0.59033 0.0
N431 N 0.68856 0.94371 0.59333 0.0
N432 N 0.68218 0.94089 0.58047 0.0
C433 C 0.68056 0.92288 0.58721 0.0
H434 H 0.69463 0.99563 0.57845 0.0
Co435 Co 0.67482 0.9281 0.5702 0.0
C436 C 0.64893 0.85546 0.57158 0.0
O437 O 0.6744 0.84503 0.56695 0.0
N438 N 0.66769 0.91629 0.55985 0.0
C439 C 0.64279 0.90108 0.54874 0.0
C440 C 0.63761 0.90454 0.55655 0.0
C441 C 0.69067 0.92009 0.55393 0.0
N442 N 0.67619 0.91099 0.54706 0.0
O443 O 0.71636 0.89974 0.57041 0.0
H444 H 0.61325 0.89933 0.55962 0.0
H445 H 0.71717 0.93038 0.55463 0.0
O446 O 0.64637 0.88803 0.5734 0.0
C447 C 0.74558 0.91619 0.57064 0.0
O448 O 0.7457 0.95089 0.57078 0.0
N449 N 0.63541 0.95755 0.56993 0.0
C450 C 0.58214 0.00841 0.5699 0.0
C451 C 0.57905 0.97769 0.57441 0.0
C452 C 0.60615 0.95273 0.57441 0.0
C453 C 0.63892 0.987 0.56548 0.0
C454 C 0.61249 0.01277 0.56535 0.0
H455 H 0.60392 0.93012 0.57817 0.0
H456 H 0.66278 0.99081 0.56214 0.0
H457 H 0.67421 0.89505 0.58763 0.0
H458 H 0.70205 -0.00071 0.5936 0.0
H459 H 0.6233 0.89195 0.54463 0.0
H460 H 0.55592 0.97295 0.57794 0.0
H461 H 0.61624 0.03624 0.56187 0.0
C462 C 0.75941 0.9142 0.33144 0.0
C463 C 0.75541 0.91391 0.33931 0.0
N464 N 0.78773 0.91545 0.34254 0.0
N465 N 0.79415 0.91538 0.32968 0.0
C466 C 0.8108 0.91663 0.33659 0.0
H467 H 0.73829 0.91317 0.32724 0.0
Co468 Co 0.81169 0.91371 0.31956 0.0
C469 C 0.88264 0.89068 0.32533 0.0
O470 O 0.89415 0.9232 0.32618 0.0
N471 N 0.82874 0.91207 0.30944 0.0
C472 C 0.85758 0.89696 0.29877 0.0
C473 C 0.85153 0.88846 0.30636 0.0
C474 C 0.82079 0.93426 0.30357 0.0
N475 N 0.83818 0.92567 0.29702 0.0
O476 O 0.83781 0.95602 0.32117 0.0
H477 H 0.86285 0.86617 0.30938 0.0
H478 H 0.80285 0.95642 0.30412 0.0
O479 O 0.85125 0.88492 0.32294 0.0
C480 C 0.82172 0.98448 0.32284 0.0
O481 O 0.78723 0.98412 0.32375 0.0
N482 N 0.78453 0.87346 0.31774 0.0
C483 C 0.7353 0.81941 0.31585 0.0
C484 C 0.76387 0.81554 0.32096 0.0
C485 C 0.78801 0.84302 0.32188 0.0
C486 C 0.75749 0.87749 0.31261 0.0
C487 C 0.73259 0.85068 0.31155 0.0
H488 H 0.80846 0.84031 0.32618 0.0
H489 H 0.75448 0.90222 0.30956 0.0
H490 H 0.8392 0.91773 0.33726 0.0
H491 H 0.73063 0.91295 0.34243 0.0
H492 H 0.8744 0.88269 0.29479 0.0
H493 H 0.76729 0.79168 0.32433 0.0
H494 H 0.71075 0.85496 0.30762 0.0
C495 C 0.81004 0.01439 0.08177 0.0
C496 C 0.80972 0.00956 0.08963 0.0
N497 N 0.81498 0.04114 0.09303 0.0
N498 N 0.8159 0.04878 0.08021 0.0
C499 C 0.81835 0.06459 0.08719 0.0
H500 H 0.8071 0.994 0.07745 0.0
Co501 Co 0.82195 0.06621 0.07025 0.0
C502 C 0.84575 0.13774 0.07522 0.0
O503 O 0.81439 0.15162 0.07403 0.0
N504 N 0.82791 0.0832 0.06016 0.0
C505 C 0.85066 0.10705 0.04955 0.0
C506 C 0.85561 0.10152 0.05732 0.0
C507 C 0.8067 0.07763 0.054 0.0
N508 N 0.81984 0.09196 0.04746 0.0
O509 O 0.77991 0.09306 0.0713 0.0
H510 H 0.87844 0.10971 0.06062 0.0
H511 H 0.78268 0.06223 0.05424 0.0
O512 O 0.85087 0.10481 0.07408 0.0
C513 C 0.7526 0.07591 0.06928 0.0
O514 O 0.75611 0.04291 0.06703 0.0
N515 N 0.86165 0.03767 0.0691 0.0
C516 C 0.91508 0.98743 0.06766 0.0
C517 C 0.91804 0.01523 0.073 0.0
C518 C 0.89084 0.0399 0.07369 0.0
C519 C 0.85823 0.01101 0.06387 0.0
C520 C 0.88474 0.98564 0.06303 0.0
H521 H 0.89282 0.06001 0.07809 0.0
H522 H 0.83433 0.00894 0.06047 0.0
H523 H 0.82367 0.09244 0.088 0.0
H524 H 0.80605 0.98472 0.09262 0.0
H525 H 0.86852 0.12108 0.04575 0.0
H526 H 0.94111 0.01788 0.07666 0.0
H527 H 0.88105 0.96436 0.05893 0.0
C528 C 0.7437 0.57154 0.82822 0.0
C529 C 0.73969 0.57059 0.8361 0.0
N530 N 0.77198 0.57253 0.83935 0.0
N531 N 0.77833 0.57453 0.8265 0.0
C532 C 0.795 0.57459 0.8334 0.0
H533 H 0.72266 0.57091 0.82399 0.0
Co534 Co 0.79631 0.57987 0.81652 0.0
C535 C 0.86829 0.60338 0.82068 0.0
O536 O 0.8818 0.5743 0.81777 0.0
N537 N 0.81395 0.585 0.80648 0.0
C538 C 0.83686 0.60783 0.7958 0.0
C539 C 0.83093 0.61327 0.80353 0.0
C540 C 0.80969 0.5628 0.80043 0.0
N541 N 0.82335 0.57611 0.79382 0.0
O542 O 0.82273 0.53772 0.81777 0.0
H543 H 0.83772 0.63684 0.80674 0.0
H544 H 0.79558 0.53799 0.80083 0.0
O545 O 0.83494 0.60837 0.82051 0.0
C546 C 0.80389 0.51005 0.8173 0.0
O547 O 0.76995 0.51336 0.81583 0.0
N548 N 0.76827 0.61993 0.81522 0.0
C549 C 0.7173 0.67243 0.81416 0.0
C550 C 0.74332 0.67399 0.81989 0.0
C551 C 0.76878 0.64745 0.82031 0.0
C552 C 0.74322 0.61819 0.80957 0.0
C553 C 0.71765 0.64462 0.80886 0.0
H554 H 0.78767 0.64804 0.82498 0.0
H555 H 0.74239 0.59559 0.80575 0.0
H556 H 0.82334 0.57713 0.83407 0.0
H557 H 0.71493 0.5686 0.83921 0.0
H558 H 0.84995 0.62609 0.79194 0.0
H559 H 0.74356 0.69526 0.82408 0.0
H560 H 0.69769 0.64275 0.80439 0.0
C561 C 0.68853 0.51426 0.0784 0.0
C562 C 0.6888 0.50949 0.08626 0.0
N563 N 0.68192 0.54079 0.08964 0.0
N564 N 0.68111 0.54833 0.07681 0.0
C565 C 0.67765 0.56403 0.08379 0.0
H566 H 0.69237 0.49397 0.07408 0.0
Co567 Co 0.6737 0.56515 0.06684 0.0
C568 C 0.64886 0.63734 0.07014 0.0
O569 O 0.67569 0.65034 0.06625 0.0
N570 N 0.66627 0.58139 0.0567 0.0
C571 C 0.64041 0.6019 0.04609 0.0
C572 C 0.63663 0.59652 0.05389 0.0
C573 C 0.68749 0.57749 0.05047 0.0
N574 N 0.67245 0.58983 0.04392 0.0
O575 O 0.71561 0.59248 0.06763 0.0
H576 H 0.61327 0.60243 0.05725 0.0
H577 H 0.71291 0.5645 0.05066 0.0
O578 O 0.64543 0.60393 0.07082 0.0
C579 C 0.74302 0.57563 0.06553 0.0
O580 O 0.73973 0.54264 0.06326 0.0
N581 N 0.6341 0.53624 0.06601 0.0
C582 C 0.58121 0.48514 0.06523 0.0
C583 C 0.57851 0.51367 0.07038 0.0
C584 C 0.60544 0.53874 0.07075 0.0
C585 C 0.63715 0.50902 0.06091 0.0
C586 C 0.6109 0.48319 0.06039 0.0
H587 H 0.60377 0.55932 0.07504 0.0
H588 H 0.66063 0.50684 0.05738 0.0
H589 H 0.67072 0.59156 0.08458 0.0
H590 H 0.69337 0.48482 0.08926 0.0
H591 H 0.62087 0.61358 0.04231 0.0
H592 H 0.55591 0.51651 0.07417 0.0
H593 H 0.61436 0.4614 0.05641 0.0
C594 C 0.73313 0.42036 0.32891 0.0
C595 C 0.73536 0.42122 0.33681 0.0
N596 N 0.7024 0.41922 0.3397 0.0
N597 N 0.69893 0.41743 0.32679 0.0
C598 C 0.6807 0.41725 0.33351 0.0
H599 H 0.75514 0.42117 0.32493 0.0
Co600 Co 0.68517 0.41206 0.31646 0.0
C601 C 0.61304 0.38884 0.32144 0.0
O602 O 0.60087 0.42129 0.32191 0.0
N603 N 0.67217 0.4067 0.30615 0.0
C604 C 0.65296 0.38416 0.2951 0.0
C605 C 0.65653 0.37838 0.30289 0.0
C606 C 0.67796 0.42932 0.30025 0.0
N607 N 0.66654 0.41621 0.29342 0.0
O608 O 0.65766 0.45406 0.31699 0.0
H609 H 0.64872 0.35472 0.30595 0.0
H610 H 0.69112 0.45452 0.30095 0.0
O611 O 0.64508 0.38324 0.31949 0.0
C612 C 0.67404 0.48295 0.31804 0.0
O613 O 0.70855 0.48267 0.31888 0.0
N614 N 0.71389 0.37215 0.31579 0.0
C615 C 0.76511 0.31926 0.31583 0.0
C616 C 0.73449 0.31618 0.32037 0.0
C617 C 0.70939 0.34309 0.32034 0.0
C618 C 0.74292 0.37533 0.31118 0.0
C619 C 0.76889 0.34907 0.31109 0.0
H620 H 0.68723 0.34115 0.32424 0.0
H621 H 0.74654 0.39903 0.30779 0.0
H622 H 0.65227 0.41476 0.33391 0.0
H623 H 0.75939 0.42322 0.34018 0.0
H624 H 0.64111 0.36607 0.29102 0.0
H625 H 0.73015 0.29339 0.32402 0.0
H626 H 0.79223 0.35272 0.30756 0.0
C627 C 0.81332 0.48329 0.57776 0.0
C628 C 0.81327 0.48808 0.58562 0.0
N629 N 0.82088 0.45693 0.58899 0.0
N630 N 0.82134 0.44937 0.57616 0.0
C631 C 0.8254 0.43374 0.58313 0.0
H632 H 0.80893 0.5035 0.57346 0.0
Co633 Co 0.82868 0.43318 0.56613 0.0
C634 C 0.85311 0.36068 0.56905 0.0
O635 O 0.82612 0.3485 0.56509 0.0
N636 N 0.83601 0.41773 0.55593 0.0
C637 C 0.86159 0.39802 0.54521 0.0
C638 C 0.86554 0.40273 0.55303 0.0
C639 C 0.81471 0.42227 0.54974 0.0
N640 N 0.82956 0.41041 0.54312 0.0
O641 O 0.78681 0.40585 0.56684 0.0
H642 H 0.88893 0.39644 0.55635 0.0
H643 H 0.78938 0.43538 0.55 0.0
O644 O 0.85688 0.39396 0.56995 0.0
C645 C 0.7591 0.42237 0.56483 0.0
O646 O 0.76177 0.4555 0.56263 0.0
N647 N 0.86826 0.4621 0.5654 0.0
C648 C 0.92051 0.51389 0.565 0.0
C649 C 0.92362 0.48454 0.56992 0.0
C650 C 0.897 0.45911 0.5701 0.0
C651 C 0.86493 0.49 0.56049 0.0
C652 C 0.89087 0.5162 0.56016 0.0
H653 H 0.89892 0.43792 0.57423 0.0
H654 H 0.84138 0.49248 0.55698 0.0
H655 H 0.83293 0.40637 0.58391 0.0
H656 H 0.80837 0.51266 0.58864 0.0
H657 H 0.881 0.38655 0.54137 0.0
H658 H 0.94624 0.4814 0.57369 0.0
H659 H 0.88715 0.53857 0.55636 0.0
C660 C 0.76911 0.43453 0.68152 0.0
C661 C 0.76776 0.43492 0.67361 0.0
N662 N 0.80092 0.43157 0.67089 0.0
N663 N 0.80295 0.43057 0.68382 0.0
C664 C 0.82193 0.42926 0.67719 0.0
H665 H 0.7467 0.43592 0.68538 0.0
Co666 Co 0.81484 0.42408 0.6942 0.0
C667 C 0.88868 0.40043 0.69303 0.0
O668 O 0.89862 0.42784 0.69715 0.0
N669 N 0.82587 0.41764 0.70465 0.0
C670 C 0.84087 0.39291 0.71579 0.0
C671 C 0.83827 0.38787 0.70796 0.0
C672 C 0.82098 0.44039 0.71058 0.0
N673 N 0.82986 0.42595 0.71746 0.0
O674 O 0.84174 0.4667 0.69414 0.0
H675 H 0.84443 0.36373 0.70489 0.0
H676 H 0.81009 0.46665 0.70986 0.0
O677 O 0.8561 0.39642 0.69132 0.0
C678 C 0.82492 0.4955 0.69328 0.0
O679 O 0.79052 0.49474 0.69225 0.0
N680 N 0.78674 0.38352 0.69435 0.0
C681 C 0.73755 0.32888 0.69387 0.0
C682 C 0.76707 0.3286 0.68898 0.0
C683 C 0.79142 0.35622 0.6893 0.0
C684 C 0.75819 0.38431 0.69915 0.0
C685 C 0.73342 0.35697 0.69907 0.0
H686 H 0.81321 0.35635 0.68528 0.0
H687 H 0.75423 0.40671 0.70293 0.0
H688 H 0.85025 0.42521 0.67698 0.0
H689 H 0.74416 0.43712 0.6701 0.0
H690 H 0.85018 0.37361 0.71992 0.0
H691 H 0.77125 0.30725 0.68491 0.0
H692 H 0.71077 0.35827 0.70288 0.0
C693 C 0.8106 0.51639 0.93229 0.0
C694 C 0.8094 0.51259 0.92442 0.0
N695 N 0.8109 0.54496 0.92122 0.0
N696 N 0.81329 0.55098 0.93407 0.0
C697 C 0.81295 0.56791 0.92719 0.0
H698 H 0.81059 0.49521 0.93648 0.0
Co699 Co 0.81962 0.56685 0.94418 0.0
C700 C 0.84 0.64095 0.94197 0.0
O701 O 0.81326 0.65088 0.9463 0.0
N702 N 0.82579 0.58191 0.9544 0.0
C703 C 0.84995 0.6016 0.96526 0.0
C704 C 0.85492 0.59693 0.95748 0.0
C705 C 0.80358 0.57747 0.96045 0.0
N706 N 0.81765 0.58924 0.96715 0.0
O707 O 0.77562 0.59084 0.94366 0.0
H708 H 0.87863 0.6034 0.95429 0.0
H709 H 0.77809 0.56468 0.95997 0.0
O710 O 0.84468 0.60824 0.94053 0.0
C711 C 0.74975 0.5696 0.94423 0.0
O712 O 0.75628 0.53583 0.94531 0.0
N713 N 0.8617 0.54136 0.94468 0.0
C714 C 0.91838 0.49429 0.94452 0.0
C715 C 0.91633 0.52201 0.93915 0.0
C716 C 0.8879 0.54537 0.93935 0.0
C717 C 0.86303 0.5147 0.94995 0.0
C718 C 0.89142 0.49114 0.95005 0.0
H719 H 0.88603 0.56549 0.93495 0.0
H720 H 0.84152 0.51123 0.95399 0.0
H721 H 0.81551 0.59626 0.92654 0.0
H722 H 0.80782 0.48791 0.92127 0.0
H723 H 0.86884 0.61313 0.96922 0.0
H724 H 0.93585 0.52505 0.93463 0.0
H725 H 0.89198 0.47053 0.95438 0.0
C726 C 0.73172 0.57232 0.18214 0.0
C727 C 0.73333 0.57222 0.17423 0.0
N728 N 0.70014 0.57431 0.17147 0.0
N729 N 0.69768 0.57489 0.1844 0.0
C730 C 0.67887 0.57563 0.17775 0.0
H731 H 0.75405 0.57125 0.18603 0.0
Co732 Co 0.68465 0.5795 0.19476 0.0
C733 C 0.61153 0.6046 0.19358 0.0
O734 O 0.60133 0.5781 0.19794 0.0
N735 N 0.67254 0.5843 0.20518 0.0
C736 C 0.65711 0.60776 0.21642 0.0
C737 C 0.66038 0.61381 0.20865 0.0
C738 C 0.67673 0.56071 0.21097 0.0
N739 N 0.66757 0.57438 0.21792 0.0
O740 O 0.6569 0.53761 0.19415 0.0
H741 H 0.65487 0.63846 0.20573 0.0
H742 H 0.68741 0.53445 0.21013 0.0
O743 O 0.64412 0.60794 0.19182 0.0
C744 C 0.67241 0.50851 0.19278 0.0
O745 O 0.7067 0.50819 0.19157 0.0
N746 N 0.71341 0.61929 0.1955 0.0
C747 C 0.76386 0.67282 0.19606 0.0
C748 C 0.73287 0.67682 0.19167 0.0
C749 C 0.70811 0.64958 0.1914 0.0
C750 C 0.74298 0.61501 0.19988 0.0
C751 C 0.76858 0.64151 0.20026 0.0
H752 H 0.68533 0.65254 0.1877 0.0
H753 H 0.74711 0.59041 0.20293 0.0
H754 H 0.65038 0.57817 0.17749 0.0
H755 H 0.75708 0.57072 0.17076 0.0
H756 H 0.6478 0.62668 0.22064 0.0
H757 H 0.72781 0.70073 0.18842 0.0
H758 H 0.79225 0.63706 0.20365 0.0
C759 C 0.67406 0.48845 0.43214 0.0
C760 C 0.67314 0.49143 0.42425 0.0
N761 N 0.67071 0.45875 0.42123 0.0
N762 N 0.67182 0.45404 0.43411 0.0
C763 C 0.67023 0.43644 0.42732 0.0
H764 H 0.6755 0.51006 0.43622 0.0
Co765 Co 0.66852 0.43841 0.44431 0.0
C766 C 0.6433 0.36574 0.44149 0.0
O767 O 0.67239 0.35286 0.44453 0.0
N768 N 0.66509 0.42336 0.45455 0.0
C769 C 0.64345 0.40385 0.46566 0.0
C770 C 0.6366 0.40865 0.45795 0.0
C771 C 0.68891 0.42739 0.46031 0.0
N772 N 0.67632 0.4158 0.46717 0.0
O773 O 0.71013 0.41066 0.44308 0.0
H774 H 0.61199 0.40262 0.45506 0.0
H775 H 0.71444 0.43979 0.45951 0.0
O776 O 0.63895 0.39913 0.44106 0.0
C777 C 0.73929 0.42584 0.44159 0.0
O778 O 0.74005 0.46026 0.44062 0.0
N779 N 0.62905 0.46726 0.44569 0.0
C780 C 0.57537 0.51715 0.44732 0.0
C781 C 0.57164 0.48856 0.44221 0.0
C782 C 0.59895 0.46412 0.44141 0.0
C783 C 0.6332 0.49462 0.45072 0.0
C784 C 0.60659 0.51985 0.45166 0.0
H785 H 0.59633 0.44347 0.43716 0.0
H786 H 0.65771 0.49731 0.45388 0.0
H787 H 0.66765 0.40803 0.42685 0.0
H788 H 0.67412 0.51578 0.42098 0.0
H789 H 0.62538 0.3926 0.46983 0.0
H790 H 0.54788 0.48512 0.43881 0.0
H791 H 0.61085 0.54171 0.45558 0.0
C792 C 0.22983 0.45568 0.18752 0.0
C793 C 0.23505 0.45938 0.17973 0.0
N794 N 0.20614 0.44726 0.17601 0.0
N795 N 0.19783 0.44125 0.18877 0.0
C796 C 0.18387 0.43642 0.18166 0.0
H797 H 0.24851 0.4623 0.19201 0.0
Co798 Co 0.18213 0.43036 0.19863 0.0
C799 C 0.11017 0.40524 0.19587 0.0
O800 O 0.09856 0.43053 0.20041 0.0
N801 N 0.1672 0.41976 0.20872 0.0
C802 C 0.14843 0.39167 0.21922 0.0
C803 C 0.15362 0.3891 0.21138 0.0
C804 C 0.17048 0.44028 0.21507 0.0
N805 N 0.15909 0.42397 0.22154 0.0
O806 O 0.15404 0.47199 0.19856 0.0
H807 H 0.14844 0.36603 0.20787 0.0
H808 H 0.18228 0.46623 0.21501 0.0
O809 O 0.14323 0.4026 0.19451 0.0
C810 C 0.17018 0.49943 0.20088 0.0
O811 O 0.20343 0.49681 0.203 0.0
N812 N 0.21167 0.39109 0.19869 0.0
C813 C 0.26311 0.33864 0.19852 0.0
C814 C 0.23567 0.33847 0.19308 0.0
C815 C 0.21008 0.365 0.19327 0.0
C816 C 0.23833 0.39189 0.20397 0.0
C817 C 0.26414 0.36556 0.20406 0.0
H818 H 0.18969 0.36513 0.18891 0.0
H819 H 0.23988 0.41346 0.20806 0.0
H820 H 0.15808 0.42496 0.18064 0.0
H821 H 0.25888 0.46922 0.17702 0.0
H822 H 0.13775 0.37122 0.22291 0.0
H823 H 0.23397 0.31794 0.18874 0.0
H824 H 0.28513 0.36667 0.20831 0.0
C825 C 0.3 0.47926 0.93697 0.0
C826 C 0.29917 0.48393 0.92911 0.0
N827 N 0.30726 0.45292 0.92574 0.0
N828 N 0.30907 0.44559 0.93856 0.0
C829 C 0.31287 0.42994 0.93158 0.0
H830 H 0.29579 0.49949 0.94128 0.0
Co831 Co 0.31866 0.4301 0.94855 0.0
C832 C 0.34463 0.35833 0.94588 0.0
O833 O 0.31907 0.34636 0.9503 0.0
N834 N 0.32805 0.41529 0.95871 0.0
C835 C 0.35532 0.39662 0.96933 0.0
C836 C 0.35856 0.40188 0.9615 0.0
C837 C 0.30691 0.41838 0.96497 0.0
N838 N 0.32275 0.40707 0.97152 0.0
O839 O 0.2774 0.4017 0.94824 0.0
H840 H 0.38198 0.39686 0.9581 0.0
H841 H 0.28084 0.42996 0.9648 0.0
O842 O 0.3472 0.39144 0.9446 0.0
C843 C 0.24969 0.41786 0.95038 0.0
O844 O 0.25207 0.45126 0.95241 0.0
N845 N 0.35778 0.45992 0.94886 0.0
C846 C 0.4085 0.51289 0.94849 0.0
C847 C 0.40924 0.48543 0.94307 0.0
C848 C 0.38366 0.45897 0.94338 0.0
C849 C 0.35677 0.48637 0.9542 0.0
C850 C 0.38237 0.51295 0.9542 0.0
H851 H 0.38374 0.43871 0.93899 0.0
H852 H 0.3354 0.48738 0.95834 0.0
H853 H 0.32136 0.40286 0.93078 0.0
H854 H 0.29374 0.5084 0.92609 0.0
H855 H 0.37553 0.38601 0.97309 0.0
H856 H 0.42927 0.48463 0.93861 0.0
H857 H 0.38112 0.53391 0.95845 0.0
C858 C 0.24403 0.56872 0.68681 0.0
C859 C 0.24082 0.568 0.67892 0.0
N860 N 0.27344 0.57015 0.67583 0.0
N861 N 0.27848 0.57175 0.68871 0.0
C862 C 0.29585 0.5721 0.68189 0.0
H863 H 0.22258 0.56786 0.69094 0.0
Co864 Co 0.29542 0.57672 0.69877 0.0
C865 C 0.36743 0.60182 0.69524 0.0
O866 O 0.38097 0.57326 0.69837 0.0
N867 N 0.31201 0.5814 0.70888 0.0
C868 C 0.33353 0.6035 0.71977 0.0
C869 C 0.32752 0.60994 0.71208 0.0
C870 C 0.30871 0.558 0.71474 0.0
N871 N 0.32156 0.57082 0.72147 0.0
O872 O 0.32276 0.53512 0.69753 0.0
H873 H 0.33337 0.63426 0.70906 0.0
H874 H 0.29596 0.53255 0.71411 0.0
O875 O 0.33397 0.60601 0.69506 0.0
C876 C 0.30488 0.50674 0.69748 0.0
O877 O 0.27039 0.50851 0.69834 0.0
N878 N 0.26669 0.61639 0.70006 0.0
C879 C 0.21571 0.66894 0.7011 0.0
C880 C 0.24182 0.67048 0.69539 0.0
C881 C 0.26729 0.64396 0.69498 0.0
C882 C 0.2415 0.61457 0.70567 0.0
C883 C 0.21596 0.64105 0.70639 0.0
H884 H 0.28636 0.64467 0.69035 0.0
H885 H 0.24065 0.59198 0.70949 0.0
H886 H 0.32425 0.57471 0.68136 0.0
H887 H 0.2164 0.56599 0.67569 0.0
H888 H 0.34566 0.62167 0.7238 0.0
H889 H 0.24227 0.69184 0.69123 0.0
H890 H 0.19599 0.6392 0.71085 0.0
C891 C 0.17379 0.51194 0.43687 0.0
C892 C 0.17397 0.50933 0.42897 0.0
N893 N 0.17132 0.54211 0.42603 0.0
N894 N 0.17055 0.54619 0.43891 0.0
C895 C 0.16954 0.56413 0.43216 0.0
H896 H 0.17495 0.49013 0.44089 0.0
Co897 Co 0.16482 0.56048 0.44916 0.0
C898 C 0.13991 0.63349 0.44732 0.0
O899 O 0.16606 0.64457 0.45169 0.0
N900 N 0.15897 0.57385 0.45946 0.0
C901 C 0.13479 0.59097 0.47051 0.0
C902 C 0.1294 0.58702 0.46272 0.0
C903 C 0.18189 0.56971 0.46538 0.0
N904 N 0.16779 0.5799 0.47221 0.0
O905 O 0.20692 0.58795 0.44857 0.0
H906 H 0.10514 0.59272 0.45966 0.0
H907 H 0.20794 0.55829 0.4647 0.0
O908 O 0.13679 0.60062 0.44584 0.0
C909 C 0.23578 0.57127 0.44771 0.0
O910 O 0.23538 0.53665 0.44717 0.0
N911 N 0.12482 0.53193 0.44983 0.0
C912 C 0.07191 0.48079 0.44987 0.0
C913 C 0.06866 0.5114 0.44534 0.0
C914 C 0.09557 0.53651 0.44534 0.0
C915 C 0.12815 0.5029 0.45442 0.0
C916 C 0.10188 0.47697 0.45456 0.0
H917 H 0.09342 0.55878 0.44148 0.0
H918 H 0.15198 0.49928 0.45778 0.0
H919 H 0.16619 0.59248 0.43173 0.0
H920 H 0.17557 0.4852 0.42563 0.0
H921 H 0.11566 0.60111 0.47459 0.0
H922 H 0.04573 0.51571 0.44171 0.0
H923 H 0.10563 0.45364 0.45808 0.0
C924 C 0.23708 0.55265 0.33343 0.0
C925 C 0.23994 0.55225 0.34133 0.0
N926 N 0.20813 0.56036 0.34434 0.0
N927 N 0.20373 0.56134 0.33145 0.0
C928 C 0.18651 0.56548 0.33823 0.0
H929 H 0.25818 0.54775 0.32935 0.0
Co930 Co 0.18939 0.56859 0.32131 0.0
C931 C 0.11733 0.59525 0.3235 0.0
O932 O 0.10549 0.5685 0.31942 0.0
N933 N 0.17566 0.57596 0.31102 0.0
C934 C 0.15777 0.60196 0.3002 0.0
C935 C 0.163 0.60629 0.30799 0.0
C936 C 0.17836 0.55376 0.30492 0.0
N937 N 0.16751 0.56886 0.29825 0.0
O938 O 0.16057 0.52774 0.32193 0.0
H939 H 0.15833 0.63031 0.31122 0.0
H940 H 0.18917 0.5274 0.3053 0.0
O941 O 0.15045 0.59825 0.32478 0.0
C942 C 0.17657 0.49956 0.32005 0.0
O943 O 0.21008 0.50121 0.31807 0.0
N944 N 0.21985 0.60695 0.32068 0.0
C945 C 0.27312 0.65775 0.32004 0.0
C946 C 0.24236 0.66345 0.32443 0.0
C947 C 0.21626 0.63749 0.32477 0.0
C948 C 0.24925 0.60087 0.31634 0.0
C949 C 0.27629 0.62588 0.31595 0.0
H950 H 0.19373 0.64172 0.32847 0.0
H951 H 0.25203 0.57598 0.31333 0.0
H952 H 0.15903 0.5732 0.3387 0.0
H953 H 0.2636 0.54652 0.34462 0.0
H954 H 0.14756 0.62178 0.29629 0.0
H955 H 0.2383 0.6878 0.3276 0.0
H956 H 0.29967 0.61993 0.31259 0.0
C957 C 0.19557 0.48138 0.08258 0.0
C958 C 0.20048 0.48484 0.09038 0.0
N959 N 0.19385 0.4534 0.09373 0.0
N960 N 0.18591 0.44792 0.08097 0.0
C961 C 0.18497 0.43138 0.08789 0.0
H962 H 0.19862 0.50201 0.07831 0.0
Co963 Co 0.17671 0.43281 0.07094 0.0
C964 C 0.14873 0.36153 0.07383 0.0
O965 O 0.17524 0.34784 0.06994 0.0
N966 N 0.16803 0.41842 0.06081 0.0
C967 C 0.14232 0.40021 0.05001 0.0
C968 C 0.13779 0.40552 0.0578 0.0
C969 C 0.19043 0.42096 0.05476 0.0
N970 N 0.17547 0.41003 0.04808 0.0
O971 O 0.21738 0.40322 0.07125 0.0
H972 H 0.11376 0.40087 0.06103 0.0
H973 H 0.21685 0.4317 0.05524 0.0
O974 O 0.14681 0.39494 0.07474 0.0
C975 C 0.24691 0.41911 0.07101 0.0
O976 O 0.24764 0.45377 0.07068 0.0
N977 N 0.13813 0.46347 0.07055 0.0
C978 C 0.08555 0.51483 0.07019 0.0
C979 C 0.08514 0.48832 0.07583 0.0
C980 C 0.11173 0.46279 0.07591 0.0
C981 C 0.13931 0.4894 0.0651 0.0
C982 C 0.11291 0.51513 0.06474 0.0
H983 H 0.11164 0.44313 0.08043 0.0
H984 H 0.16109 0.49033 0.06106 0.0
H985 H 0.17826 0.40377 0.08861 0.0
H986 H 0.20776 0.5089 0.09336 0.0
H987 H 0.12258 0.38994 0.04609 0.0
H988 H 0.06432 0.48718 0.08012 0.0
H989 H 0.11421 0.53542 0.06034 0.0
C990 C 0.26714 0.43772 0.8326 0.0
C991 C 0.2639 0.43916 0.84049 0.0
N992 N 0.29584 0.43278 0.84361 0.0
N993 N 0.30088 0.43004 0.83075 0.0
C994 C 0.31799 0.42759 0.83759 0.0
H995 H 0.24596 0.44073 0.82846 0.0
Co996 Co 0.31426 0.42071 0.82061 0.0
C997 C 0.38841 0.39968 0.82219 0.0
O998 O 0.39714 0.42539 0.81746 0.0
N999 N 0.32669 0.41154 0.81027 0.0
C1000 C 0.34399 0.38489 0.79947 0.0
C1001 C 0.34052 0.3815 0.80734 0.0
C1002 C 0.32158 0.43254 0.80405 0.0
N1003 N 0.33204 0.4171 0.79739 0.0
O1004 O 0.33961 0.46404 0.82036 0.0
H1005 H 0.34724 0.35837 0.8107 0.0
H1006 H 0.30935 0.45828 0.80435 0.0
O1007 O 0.35607 0.39539 0.82408 0.0
C1008 C 0.32091 0.49045 0.81841 0.0
O1009 O 0.28713 0.48572 0.81695 0.0
N1010 N 0.2874 0.37949 0.82087 0.0
C1011 C 0.23826 0.32512 0.82219 0.0
C1012 C 0.26818 0.32603 0.82696 0.0
C1013 C 0.2925 0.35351 0.82622 0.0
C1014 C 0.25866 0.37893 0.81614 0.0
C1015 C 0.23388 0.3517 0.81664 0.0
H1016 H 0.31452 0.35469 0.83018 0.0
H1017 H 0.25442 0.40036 0.81211 0.0
H1018 H 0.3456 0.42053 0.83817 0.0
H1019 H 0.23981 0.44402 0.8437 0.0
H1020 H 0.35459 0.36512 0.79559 0.0
H1021 H 0.27259 0.30583 0.83128 0.0
H1022 H 0.21094 0.35207 0.8129 0.0
C1023 C 0.31269 0.50796 0.58342 0.0
C1024 C 0.31172 0.50531 0.59131 0.0
N1025 N 0.31467 0.53803 0.59429 0.0
N1026 N 0.31667 0.54216 0.58141 0.0
C1027 C 0.31737 0.56004 0.58818 0.0
H1028 H 0.31156 0.48622 0.57938 0.0
Co1029 Co 0.32331 0.55638 0.5712 0.0
C1030 C 0.34903 0.62885 0.57305 0.0
O1031 O 0.32269 0.6399 0.56874 0.0
N1032 N 0.3299 0.56979 0.56091 0.0
C1033 C 0.35463 0.58668 0.54991 0.0
C1034 C 0.35982 0.58236 0.55769 0.0
C1035 C 0.30697 0.56642 0.55498 0.0
N1036 N 0.32139 0.57649 0.54817 0.0
O1037 O 0.28166 0.58461 0.57166 0.0
H1038 H 0.38415 0.58741 0.56078 0.0
H1039 H 0.28062 0.55567 0.55562 0.0
O1040 O 0.35205 0.596 0.57458 0.0
C1041 C 0.25209 0.56946 0.57271 0.0
O1042 O 0.25096 0.53503 0.57365 0.0
N1043 N 0.36298 0.52723 0.57064 0.0
C1044 C 0.41671 0.47718 0.57019 0.0
C1045 C 0.41778 0.50489 0.57555 0.0
C1046 C 0.39062 0.52981 0.57567 0.0
C1047 C 0.36131 0.50023 0.56545 0.0
C1048 C 0.38826 0.47513 0.56504 0.0
H1049 H 0.39122 0.55042 0.57998 0.0
H1050 H 0.33865 0.49792 0.56167 0.0
H1051 H 0.3211 0.58834 0.58863 0.0
H1052 H 0.3093 0.48118 0.59463 0.0
H1053 H 0.37404 0.59651 0.54586 0.0
H1054 H 0.43949 0.50733 0.57959 0.0
H1055 H 0.38653 0.45391 0.56086 0.0
C1056 C 0.36416 0.95301 0.32103 0.0
C1057 C 0.33025 0.96256 0.31844 0.0
C1058 C 0.37652 0.91837 0.32 0.0
C1059 C 0.35637 0.83522 0.30935 0.0
H1060 H 0.38151 0.7882 0.32841 0.0
C1061 C 0.30785 0.70724 0.32601 0.0
C1062 C 0.30109 0.68535 0.31963 0.0
C1063 C 0.32948 0.73687 0.32528 0.0
C1064 C 0.37467 0.80085 0.32301 0.0
H1065 H 0.28348 0.94407 0.31241 0.0
H1066 H 0.30459 0.88439 0.31068 0.0
H1067 H 0.38436 0.85241 0.32765 0.0
H1068 H 0.31531 0.67533 0.30769 0.0
H1069 H 0.35461 0.72577 0.30655 0.0
H1070 H 0.34258 0.78469 0.30495 0.0
C1071 C 0.32198 0.9033 0.31344 0.0
C1072 C 0.37686 0.83769 0.32255 0.0
C1073 C 0.30959 0.93749 0.31454 0.0
C1074 C 0.31956 0.69171 0.31272 0.0
C1075 C 0.34187 0.72099 0.31204 0.0
C1076 C 0.35351 0.79859 0.30986 0.0
C1077 C 0.35535 0.89313 0.31623 0.0
C1078 C 0.36531 0.85528 0.31588 0.0
C1079 C 0.34559 0.74506 0.31818 0.0
C1080 C 0.36024 0.78116 0.31688 0.0
H1081 H 0.38067 0.97197 0.32403 0.0
H1082 H 0.4023 0.91119 0.32223 0.0
H1083 H 0.34828 0.8481 0.30405 0.0
H1084 H 0.29518 0.70243 0.33151 0.0
H1085 H 0.33136 0.75456 0.33017 0.0
C1086 C 0.30361 0.07707 0.58011 0.0
C1087 C 0.2783 0.08585 0.57454 0.0
C1088 C 0.33822 0.08926 0.57942 0.0
C1089 C 0.4101 0.12384 0.57708 0.0
H1090 H 0.44424 0.07719 0.55863 0.0
C1091 C 0.54304 0.05263 0.5632 0.0
C1092 C 0.55373 0.03554 0.57001 0.0
C1093 C 0.51369 0.07516 0.56321 0.0
C1094 C 0.43559 0.09147 0.5637 0.0
H1095 H 0.2682 0.11558 0.5641 0.0
H1096 H 0.32966 0.13579 0.56267 0.0
H1097 H 0.38184 0.09067 0.55988 0.0
H1098 H 0.54396 0.03127 0.5823 0.0
H1099 H 0.49207 0.06865 0.58227 0.0
H1100 H 0.46361 0.12333 0.58107 0.0
C1101 C 0.3224 0.12028 0.56768 0.0
C1102 C 0.39965 0.09919 0.56441 0.0
C1103 C 0.2874 0.1088 0.5685 0.0
C1104 C 0.53586 0.04323 0.57691 0.0
C1105 C 0.50641 0.06538 0.57691 0.0
C1106 C 0.44618 0.11668 0.57633 0.0
C1107 C 0.34828 0.10968 0.57302 0.0
C1108 C 0.38635 0.11345 0.57129 0.0
C1109 C 0.49426 0.08084 0.57002 0.0
C1110 C 0.45897 0.09827 0.56984 0.0
H1111 H 0.29703 0.05936 0.58481 0.0
H1112 H 0.35773 0.08028 0.58355 0.0
H1113 H 0.40042 0.13517 0.58242 0.0
H1114 H 0.55629 0.04738 0.55778 0.0
H1115 H 0.50546 0.08705 0.55782 0.0
C1116 C 0.14479 0.04673 0.81494 0.0
C1117 C 0.14365 0.02247 0.82103 0.0
C1118 C 0.13556 0.08192 0.81614 0.0
C1119 C 0.11282 0.15645 0.81987 0.0
H1120 H 0.17797 0.18751 0.83574 0.0
C1121 C 0.19914 0.27856 0.81652 0.0
C1122 C 0.2118 0.29656 0.82304 0.0
C1123 C 0.1768 0.24945 0.81736 0.0
C1124 C 0.1588 0.17972 0.83142 0.0
H1125 H 0.12943 0.01479 0.83301 0.0
H1126 H 0.1141 0.0771 0.83522 0.0
H1127 H 0.1596 0.12621 0.83534 0.0
H1128 H 0.20893 0.3001 0.83549 0.0
H1129 H 0.16949 0.24945 0.83698 0.0
H1130 H 0.11363 0.20969 0.8157 0.0
C1131 C 0.12173 0.06871 0.82948 0.0
C1132 C 0.14818 0.14442 0.83121 0.0
C1133 C 0.13037 0.03316 0.82822 0.0
C1134 C 0.20011 0.28617 0.83038 0.0
C1135 C 0.17748 0.25725 0.83123 0.0
C1136 C 0.12324 0.19187 0.82012 0.0
C1137 C 0.12566 0.09365 0.82352 0.0
C1138 C 0.1267 0.13204 0.82518 0.0
C1139 C 0.16635 0.2379 0.82474 0.0
C1140 C 0.14794 0.20343 0.82564 0.0
H1141 H 0.1548 0.03891 0.80933 0.0
H1142 H 0.13924 0.10047 0.81145 0.0
H1143 H 0.09585 0.14765 0.81522 0.0
H1144 H 0.20787 0.28592 0.81079 0.0
H1145 H 0.16933 0.23489 0.81224 0.0
C1146 C 0.20804 0.88456 0.06201 0.0
C1147 C 0.21961 0.89684 0.0692 0.0
C1148 C 0.17264 0.87514 0.06096 0.0
C1149 C 0.09693 0.89941 0.05943 0.0
H1150 H 0.03237 0.86484 0.07507 0.0
C1151 C 0.96145 0.94868 0.07359 0.0
C1152 C 0.94355 0.96058 0.06699 0.0
C1153 C 0.99076 0.92652 0.07293 0.0
C1154 C 0.05002 0.87445 0.07062 0.0
H1155 H 0.20495 0.90691 0.08104 0.0
H1156 H 0.14308 0.89053 0.07927 0.0
H1157 H 0.09495 0.84897 0.07571 0.0
H1158 H 0.94092 0.9564 0.05452 0.0
H1159 H 0.99156 0.91688 0.05338 0.0
H1160 H 0.05308 0.9272 0.05467 0.0
C1161 C 0.16107 0.88745 0.07445 0.0
C1162 C 0.08578 0.86519 0.07097 0.0
C1163 C 0.1964 0.89697 0.07548 0.0
C1164 C 0.95416 0.94782 0.05973 0.0
C1165 C 0.98337 0.92537 0.05907 0.0
C1166 C 0.06133 0.90886 0.05911 0.0
C1167 C 0.14844 0.87818 0.06709 0.0
C1168 C 0.10985 0.87899 0.06559 0.0
C1169 C 0.00273 0.91541 0.06565 0.0
C1170 C 0.03779 0.89793 0.06492 0.0
H1171 H 0.22571 0.88471 0.05709 0.0
H1172 H 0.16368 0.86787 0.05524 0.0
H1173 H 0.11479 0.91083 0.05523 0.0
H1174 H 0.95342 0.95728 0.07929 0.0
H1175 H 0.00513 0.91977 0.07813 0.0
C1176 C 0.29755 0.29181 0.2053 0.0
C1177 C 0.28999 0.31031 0.1985 0.0
C1178 C 0.31966 0.2623 0.20514 0.0
C1179 C 0.37134 0.20229 0.20414 0.0
H1180 H 0.34619 0.14022 0.18722 0.0
C1181 C 0.36626 0.04491 0.19497 0.0
C1182 C 0.34448 0.03416 0.20109 0.0
C1183 C 0.37683 0.08028 0.19439 0.0
C1184 C 0.35448 0.15742 0.19188 0.0
H1185 H 0.30171 0.31455 0.18631 0.0
H1186 H 0.34123 0.26348 0.18602 0.0
H1187 H 0.33156 0.20244 0.18647 0.0
H1188 H 0.31947 0.0503 0.21175 0.0
H1189 H 0.33852 0.11164 0.21086 0.0
H1190 H 0.39096 0.15598 0.20984 0.0
C1191 C 0.32929 0.27101 0.19146 0.0
C1192 C 0.34608 0.19326 0.19146 0.0
C1193 C 0.3067 0.30024 0.19161 0.0
C1194 C 0.33605 0.0582 0.20695 0.0
C1195 C 0.34728 0.09317 0.20648 0.0
C1196 C 0.37925 0.16628 0.2046 0.0
C1197 C 0.33507 0.25092 0.19817 0.0
C1198 C 0.35265 0.21577 0.19777 0.0
C1199 C 0.36647 0.10489 0.20003 0.0
C1200 C 0.36922 0.1433 0.19863 0.0
H1201 H 0.28484 0.299 0.21068 0.0
H1202 H 0.32284 0.24727 0.2104 0.0
H1203 H 0.37778 0.21907 0.209 0.0
H1204 H 0.37296 0.02667 0.19038 0.0
H1205 H 0.39148 0.08879 0.18935 0.0
C1206 C 0.19313 0.09648 0.45499 0.0
C1207 C 0.2184 0.09704 0.44908 0.0
C1208 C 0.15825 0.10606 0.4535 0.0
C1209 C 0.09748 0.09474 0.438 0.0
H1210 H 0.03105 0.13192 0.45299 0.0
C1211 C 0.95381 0.04803 0.43783 0.0
C1212 C 0.94217 0.03649 0.4451 0.0
C1213 C 0.98355 0.06973 0.43718 0.0
C1214 C 0.04921 0.1216 0.44872 0.0
H1215 H 0.22809 0.11054 0.43713 0.0
H1216 H 0.16636 0.12652 0.43442 0.0
H1217 H 0.0936 0.14749 0.45392 0.0
H1218 H 0.95148 0.03981 0.4574 0.0
H1219 H 0.00376 0.07683 0.4563 0.0
H1220 H 0.05402 0.06649 0.43317 0.0
C1221 C 0.17373 0.119 0.44023 0.0
C1222 C 0.08494 0.13073 0.44922 0.0
C1223 C 0.20895 0.10997 0.44178 0.0
C1224 C 0.95974 0.04847 0.45173 0.0
C1225 C 0.98961 0.06993 0.45108 0.0
C1226 C 0.06184 0.08543 0.43753 0.0
C1227 C 0.14783 0.11584 0.44602 0.0
C1228 C 0.10966 0.11589 0.44411 0.0
C1229 C 0.00242 0.0801 0.44379 0.0
C1230 C 0.03764 0.09727 0.44312 0.0
H1231 H 0.19994 0.08682 0.46068 0.0
H1232 H 0.13893 0.10296 0.45806 0.0
H1233 H 0.11591 0.08262 0.43402 0.0
H1234 H 0.94028 0.03973 0.43262 0.0
H1235 H 0.99237 0.07753 0.43149 0.0
C1236 C 0.18989 0.94804 0.69413 0.0
C1237 C 0.17012 0.9752 0.69753 0.0
C1238 C 0.1762 0.91404 0.69364 0.0
C1239 C 0.12269 0.85384 0.70423 0.0
H1240 H 0.14676 0.79418 0.68683 0.0
C1241 C 0.18816 0.72063 0.70761 0.0
C1242 C 0.18857 0.69675 0.70144 0.0
C1243 C 0.16786 0.7514 0.70715 0.0
C1244 C 0.13869 0.81007 0.69172 0.0
H1245 H 0.12019 0.98872 0.70291 0.0
H1246 H 0.0964 0.92814 0.70228 0.0
H1247 H 0.14355 0.85755 0.68513 0.0
H1248 H 0.16572 0.68367 0.69037 0.0
H1249 H 0.12894 0.73669 0.68967 0.0
H1250 H 0.11951 0.8064 0.71092 0.0
C1251 C 0.12229 0.9336 0.69989 0.0
C1252 C 0.13714 0.84657 0.69073 0.0
C1253 C 0.13582 0.96807 0.70024 0.0
C1254 C 0.16596 0.70215 0.69515 0.0
C1255 C 0.1451 0.73254 0.69475 0.0
C1256 C 0.12398 0.81716 0.70522 0.0
C1257 C 0.1426 0.90626 0.69664 0.0
C1258 C 0.13152 0.86884 0.69708 0.0
C1259 C 0.14732 0.75852 0.70054 0.0
C1260 C 0.13435 0.79507 0.69909 0.0
H1261 H 0.21631 0.95294 0.69195 0.0
H1262 H 0.19273 0.89341 0.69122 0.0
H1263 H 0.11809 0.87046 0.70922 0.0
H1264 H 0.20555 0.71683 0.7125 0.0
H1265 H 0.17067 0.7708 0.7117 0.0
C1266 C 0.54463 0.94207 0.94007 0.0
C1267 C 0.55556 0.95708 0.94708 0.0
C1268 C 0.515 0.92006 0.9398 0.0
C1269 C 0.437 0.90435 0.93991 0.0
H1270 H 0.40035 0.8558 0.9579 0.0
C1271 C 0.30186 0.90994 0.95574 0.0
C1272 C 0.27762 0.90204 0.94988 0.0
C1273 C 0.33707 0.89964 0.95506 0.0
C1274 C 0.41046 0.8686 0.95277 0.0
H1275 H 0.54536 0.95971 0.95935 0.0
H1276 H 0.49293 0.9227 0.95889 0.0
H1277 H 0.46349 0.86884 0.95705 0.0
H1278 H 0.27011 0.8756 0.93892 0.0
H1279 H 0.33266 0.85875 0.93755 0.0
H1280 H 0.38372 0.90529 0.93579 0.0
C1281 C 0.50758 0.92679 0.9536 0.0
C1282 C 0.44651 0.87642 0.9523 0.0
C1283 C 0.53752 0.9483 0.95387 0.0
C1284 C 0.28851 0.88182 0.94352 0.0
C1285 C 0.32411 0.87223 0.94274 0.0
C1286 C 0.40111 0.89602 0.94033 0.0
C1287 C 0.49531 0.91317 0.94652 0.0
C1288 C 0.45982 0.89626 0.94608 0.0
C1289 C 0.34882 0.88194 0.94842 0.0
C1290 C 0.38725 0.87985 0.94695 0.0
H1291 H 0.55856 0.94804 0.93476 0.0
H1292 H 0.50682 0.90946 0.93428 0.0
H1293 H 0.44602 0.91981 0.93504 0.0
H1294 H 0.29386 0.92536 0.96071 0.0
H1295 H 0.3556 0.90788 0.95948 0.0
C1296 C 0.69905 0.28715 0.68644 0.0
C1297 C 0.71143 0.29979 0.69356 0.0
C1298 C 0.67698 0.25758 0.68612 0.0
C1299 C 0.6257 0.19423 0.69839 0.0
H1300 H 0.66025 0.12556 0.6836 0.0
C1301 C 0.64629 0.04927 0.7047 0.0
C1302 C 0.64353 0.024 0.69881 0.0
C1303 C 0.63808 0.08453 0.70325 0.0
C1304 C 0.64939 0.14458 0.68763 0.0
H1305 H 0.70935 0.29248 0.70594 0.0
H1306 H 0.67184 0.24032 0.7054 0.0
H1307 H 0.67809 0.18684 0.68245 0.0
H1308 H 0.62754 0.01486 0.68698 0.0
H1309 H 0.61397 0.0772 0.68437 0.0
H1310 H 0.59938 0.15093 0.70392 0.0
C1311 C 0.67828 0.25359 0.70005 0.0
C1312 C 0.65968 0.17986 0.68698 0.0
C1313 C 0.70004 0.28336 0.70037 0.0
C1314 C 0.6298 0.03398 0.69161 0.0
C1315 C 0.62215 0.06955 0.69012 0.0
C1316 C 0.61565 0.15882 0.69908 0.0
C1317 C 0.66717 0.2398 0.69291 0.0
C1318 C 0.64936 0.20478 0.69257 0.0
C1319 C 0.62752 0.09531 0.69585 0.0
C1320 C 0.6288 0.13341 0.69391 0.0
H1321 H 0.70693 0.2998 0.68111 0.0
H1322 H 0.66841 0.24807 0.68053 0.0
H1323 H 0.61652 0.21294 0.70268 0.0
H1324 H 0.65662 0.04207 0.71031 0.0
H1325 H 0.64285 0.10374 0.70777 0.0
C1326 C 0.7014 0.8823 0.44632 0.0
C1327 C 0.71377 0.90919 0.4512 0.0
C1328 C 0.66642 0.87047 0.44693 0.0
C1329 C 0.58628 0.8725 0.45917 0.0
H1330 H 0.5375 0.89982 0.44046 0.0
C1331 C 0.45475 0.94431 0.45958 0.0
C1332 C 0.43383 0.9456 0.45293 0.0
C1333 C 0.48523 0.92348 0.45972 0.0
C1334 C 0.55024 0.89085 0.44569 0.0
H1335 H 0.7009 0.94263 0.46095 0.0
H1336 H 0.64029 0.92158 0.46213 0.0
H1337 H 0.60083 0.89089 0.4402 0.0
H1338 H 0.42578 0.9241 0.44151 0.0
H1339 H 0.4781 0.88621 0.44185 0.0
H1340 H 0.53587 0.87375 0.46476 0.0
C1341 C 0.65723 0.90979 0.45779 0.0
C1342 C 0.58676 0.88577 0.44552 0.0
C1343 C 0.69174 0.92216 0.45706 0.0
C1344 C 0.4419 0.92356 0.44667 0.0
C1345 C 0.47197 0.90213 0.44687 0.0
C1346 C 0.5496 0.87698 0.45932 0.0
C1347 C 0.64386 0.88472 0.45258 0.0
C1348 C 0.6053 0.87854 0.45234 0.0
C1349 C 0.49502 0.90319 0.45324 0.0
C1350 C 0.53142 0.88833 0.45269 0.0
H1351 H 0.71807 0.87192 0.44177 0.0
H1352 H 0.65658 0.85124 0.44283 0.0
H1353 H 0.60005 0.86654 0.46449 0.0
H1354 H 0.44895 0.96135 0.46444 0.0
H1355 H 0.50235 0.9255 0.46471 0.0
C1356 C 0.86371 0.96693 0.20018 0.0
C1357 C 0.83854 0.97696 0.19465 0.0
C1358 C 0.87545 0.93186 0.20051 0.0
C1359 C 0.85487 0.85359 0.20325 0.0
H1360 H 0.87726 0.79416 0.1857 0.0
C1361 C 0.80877 0.71022 0.20301 0.0
C1362 C 0.79098 0.7012 0.19616 0.0
C1363 C 0.8314 0.73945 0.20323 0.0
C1364 C 0.87111 0.8103 0.19069 0.0
H1365 H 0.80814 0.95988 0.18475 0.0
H1366 H 0.82954 0.89906 0.18515 0.0
H1367 H 0.8879 0.85775 0.185 0.0
H1368 H 0.78563 0.71384 0.18402 0.0
H1369 H 0.823 0.76558 0.18447 0.0
H1370 H 0.83426 0.80743 0.20865 0.0
C1371 C 0.83998 0.91791 0.18926 0.0
C1372 C 0.87763 0.8466 0.1903 0.0
C1373 C 0.82751 0.95254 0.18907 0.0
C1374 C 0.79809 0.72064 0.18944 0.0
C1375 C 0.82028 0.75001 0.18968 0.0
C1376 C 0.84769 0.81745 0.20359 0.0
C1377 C 0.86295 0.90694 0.19516 0.0
C1378 C 0.86782 0.8687 0.19643 0.0
C1379 C 0.83643 0.76048 0.19662 0.0
C1380 C 0.85377 0.79573 0.19713 0.0
H1381 H 0.87232 0.98547 0.20456 0.0
H1382 H 0.89289 0.92381 0.20515 0.0
H1383 H 0.84685 0.87019 0.20804 0.0
H1384 H 0.80402 0.69572 0.20829 0.0
H1385 H 0.84384 0.74634 0.20864 0.0
C1386 C 0.03498 0.04795 0.94563 0.0
C1387 C 0.0531 0.03656 0.95225 0.0
C1388 C 0.0059 0.07043 0.94626 0.0
C1389 C 0.94706 0.12291 0.94844 0.0
H1390 H 0.8826 0.08792 0.96404 0.0
C1391 C 0.78893 0.11277 0.95692 0.0
C1392 C 0.77786 0.09874 0.94984 0.0
C1393 C 0.82427 0.12251 0.95797 0.0
C1394 C 0.9004 0.09895 0.95978 0.0
H1395 H 0.05646 0.04195 0.96469 0.0
H1396 H 0.00616 0.08198 0.96577 0.0
H1397 H 0.94446 0.07196 0.96467 0.0
H1398 H 0.79333 0.08588 0.93818 0.0
H1399 H 0.85497 0.10309 0.93994 0.0
H1400 H 0.90189 0.14737 0.94321 0.0
C1401 C 0.01401 0.07289 0.9601 0.0
C1402 C 0.93606 0.08976 0.96014 0.0
C1403 C 0.04301 0.05014 0.95947 0.0
C1404 C 0.8015 0.0971 0.94365 0.0
C1405 C 0.83668 0.10713 0.94466 0.0
C1406 C 0.91124 0.13186 0.94805 0.0
C1407 C 0.99439 0.08236 0.95352 0.0
C1408 C 0.95945 0.10007 0.95425 0.0
C1409 C 0.84879 0.11832 0.95194 0.0
C1410 C 0.8873 0.11845 0.95351 0.0
H1411 H 0.04262 0.03869 0.93996 0.0
H1412 H 0.99132 0.07676 0.94107 0.0
H1413 H 0.96459 0.13208 0.94393 0.0
H1414 H 0.77092 0.11379 0.96178 0.0
H1415 H 0.83289 0.13113 0.96362 0.0
C1416 C 0.69106 0.72601 0.8082 0.0
C1417 C 0.6898 0.69983 0.81388 0.0
C1418 C 0.66974 0.75601 0.80884 0.0
C1419 C 0.63279 0.80802 0.82462 0.0
H1420 H 0.61793 0.87394 0.80782 0.0
C1421 C 0.6839 0.94605 0.82522 0.0
C1422 C 0.66641 0.97403 0.82157 0.0
C1423 C 0.66949 0.91228 0.82515 0.0
C1424 C 0.62082 0.85575 0.8126 0.0
H1425 H 0.66346 0.68203 0.82424 0.0
H1426 H 0.62498 0.73378 0.82523 0.0
H1427 H 0.62123 0.81075 0.80512 0.0
H1428 H 0.61952 0.98938 0.81521 0.0
H1429 H 0.59451 0.92929 0.81485 0.0
H1430 H 0.63402 0.85313 0.83203 0.0
C1431 C 0.64306 0.73195 0.82041 0.0
C1432 C 0.62322 0.81956 0.81105 0.0
C1433 C 0.66488 0.70229 0.81984 0.0
C1434 C 0.63338 0.96807 0.81809 0.0
C1435 C 0.61916 0.93385 0.81788 0.0
C1436 C 0.63005 0.84405 0.82617 0.0
C1437 C 0.64656 0.76007 0.81515 0.0
C1438 C 0.6318 0.79559 0.81697 0.0
C1439 C 0.63745 0.90557 0.82132 0.0
C1440 C 0.62666 0.86839 0.82011 0.0
H1441 H 0.71029 0.72446 0.80357 0.0
H1442 H 0.67364 0.77712 0.80471 0.0
H1443 H 0.63928 0.7906 0.82936 0.0
H1444 H 0.70931 0.95008 0.82798 0.0
H1445 H 0.68457 0.89098 0.82773 0.0
C1446 C 0.03493 0.93728 0.57543 0.0
C1447 C 0.05432 0.94672 0.56884 0.0
C1448 C 0.00573 0.91501 0.57484 0.0
C1449 C 0.94624 0.86361 0.57296 0.0
H1450 H 0.88482 0.89548 0.55647 0.0
C1451 C 0.78881 0.87617 0.56426 0.0
C1452 C 0.77926 0.89724 0.57059 0.0
C1453 C 0.82378 0.86455 0.56346 0.0
C1454 C 0.90182 0.88532 0.56099 0.0
H1455 H 0.05989 0.93798 0.55654 0.0
H1456 H 0.00923 0.89826 0.55552 0.0
H1457 H 0.94754 0.90856 0.5559 0.0
H1458 H 0.79701 0.92067 0.58128 0.0
H1459 H 0.85769 0.89944 0.58005 0.0
H1460 H 0.89939 0.84382 0.57842 0.0
C1461 C 0.01621 0.90875 0.56113 0.0
C1462 C 0.93793 0.89282 0.56067 0.0
C1463 C 0.04539 0.93132 0.56172 0.0
C1464 C 0.80401 0.90426 0.57638 0.0
C1465 C 0.83856 0.89191 0.5757 0.0
C1466 C 0.91002 0.85664 0.57333 0.0
C1467 C 0.99531 0.90127 0.56765 0.0
C1468 C 0.96019 0.88393 0.56688 0.0
C1469 C 0.84911 0.87318 0.56909 0.0
C1470 C 0.88731 0.86918 0.56755 0.0
H1471 H 0.04166 0.94799 0.58103 0.0
H1472 H 0.99018 0.91034 0.57998 0.0
H1473 H 0.96284 0.85541 0.57772 0.0
H1474 H 0.76997 0.87089 0.55969 0.0
H1475 H 0.83145 0.85045 0.55829 0.0
C1476 C 0.82995 0.04488 0.32806 0.0
C1477 C 0.84051 0.0184 0.3229 0.0
C1478 C 0.84279 0.07921 0.32725 0.0
C1479 C 0.88056 0.14986 0.32479 0.0
H1480 H 0.83688 0.18132 0.30578 0.0
C1481 C 0.80087 0.27538 0.32328 0.0
C1482 C 0.79295 0.29164 0.31621 0.0
C1483 C 0.82346 0.24635 0.32359 0.0
C1484 C 0.85042 0.17344 0.311 0.0
H1485 H 0.87403 0.00601 0.31313 0.0
H1486 H 0.89525 0.06693 0.31148 0.0
H1487 H 0.84932 0.11908 0.30763 0.0
H1488 H 0.80521 0.29215 0.30399 0.0
H1489 H 0.84579 0.24209 0.30455 0.0
H1490 H 0.88055 0.204 0.32831 0.0
C1491 C 0.87787 0.06079 0.31626 0.0
C1492 C 0.85751 0.13757 0.31205 0.0
C1493 C 0.86575 0.02612 0.31721 0.0
C1494 C 0.81053 0.28004 0.30953 0.0
C1495 C 0.83359 0.25113 0.30984 0.0
C1496 C 0.8742 0.18587 0.32368 0.0
C1497 C 0.86567 0.08775 0.32115 0.0
C1498 C 0.87053 0.12532 0.31914 0.0
C1499 C 0.83926 0.23305 0.31683 0.0
C1500 C 0.85672 0.19776 0.31699 0.0
H1501 H 0.81055 0.03939 0.3325 0.0
H1502 H 0.83259 0.09964 0.33103 0.0
H1503 H 0.89092 0.14094 0.33029 0.0
H1504 H 0.78862 0.28433 0.32858 0.0
H1505 H 0.82668 0.23315 0.32908 0.0
C1506 C 0.69363 0.08324 0.06334 0.0
C1507 C 0.71744 0.09231 0.06921 0.0
C1508 C 0.65856 0.09429 0.06372 0.0
C1509 C 0.59281 0.10367 0.07799 0.0
H1510 H 0.53338 0.1273 0.06052 0.0
C1511 C 0.44869 0.06022 0.0779 0.0
C1512 C 0.43879 0.04297 0.07106 0.0
C1513 C 0.47842 0.08212 0.07805 0.0
C1514 C 0.54953 0.12078 0.06547 0.0
H1515 H 0.72433 0.12151 0.07984 0.0
H1516 H 0.66195 0.13971 0.0807 0.0
H1517 H 0.59691 0.13865 0.05991 0.0
H1518 H 0.45083 0.03639 0.05894 0.0
H1519 H 0.50337 0.07328 0.05922 0.0
H1520 H 0.54663 0.08252 0.08329 0.0
C1521 C 0.67076 0.12467 0.07574 0.0
C1522 C 0.58581 0.12762 0.06514 0.0
C1523 C 0.70625 0.11429 0.07526 0.0
C1524 C 0.45786 0.04955 0.06428 0.0
C1525 C 0.48788 0.07098 0.06445 0.0
C1526 C 0.55668 0.09634 0.07828 0.0
C1527 C 0.64648 0.11399 0.07006 0.0
C1528 C 0.60795 0.1175 0.07126 0.0
C1529 C 0.4992 0.08668 0.07139 0.0
C1530 C 0.53491 0.10309 0.07186 0.0
H1531 H 0.70186 0.06654 0.05859 0.0
H1532 H 0.64034 0.08527 0.05931 0.0
H1533 H 0.60935 0.09532 0.08276 0.0
H1534 H 0.43397 0.05597 0.08318 0.0
H1535 H 0.48587 0.09437 0.08345 0.0
C1536 C 0.85501 0.46771 0.81783 0.0
C1537 C 0.81882 0.47487 0.81886 0.0
C1538 C 0.86812 0.4335 0.81905 0.0
C1539 C 0.84689 0.35006 0.82882 0.0
H1540 H 0.88222 0.30174 0.81067 0.0
C1541 C 0.82499 0.20386 0.82674 0.0
C1542 C 0.80745 0.19509 0.81988 0.0
C1543 C 0.84517 0.23468 0.82719 0.0
C1544 C 0.87283 0.31485 0.81583 0.0
H1545 H 0.7683 0.45262 0.82224 0.0
H1546 H 0.7911 0.39356 0.82448 0.0
H1547 H 0.88065 0.36635 0.81095 0.0
H1548 H 0.79937 0.20942 0.80794 0.0
H1549 H 0.83298 0.26411 0.80877 0.0
H1550 H 0.83555 0.29936 0.83345 0.0
C1551 C 0.80938 0.41408 0.82271 0.0
C1552 C 0.87233 0.35182 0.81602 0.0
C1553 C 0.79625 0.4478 0.82135 0.0
C1554 C 0.81273 0.21582 0.81329 0.0
C1555 C 0.8323 0.24703 0.81377 0.0
C1556 C 0.8472 0.31328 0.82863 0.0
C1557 C 0.84531 0.40649 0.82152 0.0
C1558 C 0.85727 0.36954 0.82233 0.0
C1559 C 0.84726 0.25775 0.82084 0.0
C1560 C 0.85807 0.29522 0.82194 0.0
H1561 H 0.87289 0.48825 0.81589 0.0
H1562 H 0.89587 0.42809 0.81804 0.0
H1563 H 0.83553 0.36326 0.83379 0.0
H1564 H 0.8216 0.18779 0.83186 0.0
H1565 H 0.85709 0.24161 0.83267 0.0
C1566 C 0.04556 0.55862 0.0766 0.0
C1567 C 0.0568 0.54126 0.06988 0.0
C1568 C 0.01564 0.58029 0.07648 0.0
C1569 C 0.94696 0.61863 0.06324 0.0
H1570 H 0.88392 0.59411 0.08004 0.0
C1571 C 0.8028 0.58271 0.05996 0.0
C1572 C 0.77819 0.592 0.06566 0.0
C1573 C 0.83791 0.59342 0.0606 0.0
C1574 C 0.90135 0.60219 0.0754 0.0
H1575 H 0.04684 0.53413 0.05768 0.0
H1576 H 0.994 0.57062 0.05748 0.0
H1577 H 0.94641 0.58084 0.08112 0.0
H1578 H 0.76997 0.62128 0.07624 0.0
H1579 H 0.8323 0.63891 0.07754 0.0
H1580 H 0.90076 0.63677 0.05726 0.0
C1581 C 0.0086 0.56859 0.06283 0.0
C1582 C 0.93735 0.59458 0.07601 0.0
C1583 C 0.03878 0.54738 0.06294 0.0
C1584 C 0.78865 0.61391 0.07178 0.0
C1585 C 0.82413 0.62396 0.07252 0.0
C1586 C 0.91083 0.62576 0.0626 0.0
C1587 C 0.99602 0.58452 0.06964 0.0
C1588 C 0.9603 0.60102 0.06977 0.0
C1589 C 0.84919 0.61297 0.06703 0.0
C1590 C 0.88753 0.61601 0.06853 0.0
H1591 H 0.05945 0.55475 0.082 0.0
H1592 H 0.00718 0.59269 0.08179 0.0
H1593 H 0.96404 0.62491 0.05842 0.0
H1594 H 0.79517 0.56603 0.05516 0.0
H1595 H 0.85672 0.58417 0.05633 0.0
C1596 C 0.6941 0.78135 0.30803 0.0
C1597 C 0.70821 0.79117 0.31522 0.0
C1598 C 0.67133 0.75231 0.30743 0.0
C1599 C 0.62346 0.68441 0.31936 0.0
H1600 H 0.65637 0.62077 0.30338 0.0
C1601 C 0.63414 0.52599 0.31155 0.0
C1602 C 0.65544 0.51687 0.31787 0.0
C1603 C 0.62301 0.56101 0.31057 0.0
C1604 C 0.64595 0.63841 0.30775 0.0
H1605 H 0.70694 0.78025 0.32749 0.0
H1606 H 0.66917 0.72896 0.32644 0.0
H1607 H 0.67044 0.68319 0.30255 0.0
H1608 H 0.67949 0.53556 0.32843 0.0
H1609 H 0.659 0.59633 0.32691 0.0
H1610 H 0.60252 0.63842 0.32496 0.0
C1611 C 0.67493 0.7437 0.32124 0.0
C1612 C 0.654 0.67435 0.30728 0.0
C1613 C 0.69733 0.77279 0.32184 0.0
C1614 C 0.66299 0.54219 0.32352 0.0
C1615 C 0.65105 0.5768 0.32267 0.0
C1616 C 0.61601 0.64833 0.31989 0.0
C1617 C 0.66241 0.73241 0.31401 0.0
C1618 C 0.64469 0.69741 0.31332 0.0
C1619 C 0.63224 0.58684 0.31604 0.0
C1620 C 0.62886 0.62486 0.31429 0.0
H1621 H 0.70183 0.7951 0.30282 0.0
H1622 H 0.66178 0.74471 0.30178 0.0
H1623 H 0.61486 0.70162 0.32399 0.0
H1624 H 0.62841 0.50674 0.30709 0.0
H1625 H 0.60884 0.56829 0.30538 0.0
C1626 C 0.45775 0.43455 0.57662 0.0
C1627 C 0.44577 0.45117 0.56987 0.0
C1628 C 0.48782 0.41312 0.57645 0.0
C1629 C 0.55607 0.37487 0.56306 0.0
H1630 H 0.61974 0.40094 0.57963 0.0
C1631 C 0.69902 0.41461 0.55944 0.0
C1632 C 0.72423 0.40541 0.56501 0.0
C1633 C 0.66423 0.40303 0.56014 0.0
C1634 C 0.60214 0.39244 0.57506 0.0
H1635 H 0.45447 0.45728 0.55761 0.0
H1636 H 0.50773 0.42141 0.55732 0.0
H1637 H 0.55714 0.41319 0.58089 0.0
H1638 H 0.73385 0.37542 0.57544 0.0
H1639 H 0.67204 0.35632 0.57688 0.0
H1640 H 0.60223 0.35754 0.55695 0.0
C1641 C 0.49358 0.42372 0.56273 0.0
C1642 C 0.56608 0.39945 0.57577 0.0
C1643 C 0.46319 0.44461 0.56288 0.0
C1644 C 0.71471 0.38275 0.57108 0.0
C1645 C 0.67953 0.37184 0.57189 0.0
C1646 C 0.59229 0.36843 0.5623 0.0
C1647 C 0.50691 0.4085 0.56955 0.0
C1648 C 0.54285 0.39246 0.56961 0.0
C1649 C 0.65387 0.38268 0.56652 0.0
C1650 C 0.61575 0.37876 0.56816 0.0
H1651 H 0.44429 0.43882 0.58206 0.0
H1652 H 0.49681 0.40124 0.58178 0.0
H1653 H 0.53881 0.36813 0.5583 0.0
H1654 H 0.70595 0.43185 0.55468 0.0
H1655 H 0.6449 0.41216 0.55598 0.0
C1656 C 0.80324 0.79211 0.70777 0.0
C1657 C 0.78949 0.80408 0.70071 0.0
C1658 C 0.82584 0.76278 0.70799 0.0
C1659 C 0.87353 0.69795 0.6952 0.0
H1660 H 0.83862 0.62992 0.71007 0.0
C1661 C 0.86304 0.53734 0.70063 0.0
C1662 C 0.84264 0.52976 0.69407 0.0
C1663 C 0.87324 0.57221 0.70219 0.0
C1664 C 0.84954 0.64875 0.70601 0.0
H1665 H 0.79151 0.79711 0.6883 0.0
H1666 H 0.82919 0.74554 0.68867 0.0
H1667 H 0.82524 0.69218 0.71178 0.0
H1668 H 0.81909 0.55129 0.68373 0.0
H1669 H 0.83808 0.61186 0.68626 0.0
H1670 H 0.89439 0.65352 0.689 0.0
C1671 C 0.82318 0.75863 0.69407 0.0
C1672 C 0.84192 0.68459 0.70699 0.0
C1673 C 0.8009 0.78793 0.69385 0.0
C1674 C 0.83496 0.55669 0.6888 0.0
C1675 C 0.846 0.59121 0.69023 0.0
C1676 C 0.88056 0.66201 0.69415 0.0
C1677 C 0.83501 0.74487 0.70115 0.0
C1678 C 0.85207 0.70938 0.70135 0.0
C1679 C 0.86402 0.59951 0.69708 0.0
C1680 C 0.86706 0.63702 0.69935 0.0
H1681 H 0.7951 0.8042 0.71314 0.0
H1682 H 0.83491 0.75329 0.71354 0.0
H1683 H 0.88275 0.71644 0.69088 0.0
H1684 H 0.86881 0.51686 0.70482 0.0
H1685 H 0.88681 0.57813 0.70754 0.0
C1686 C 0.70254 0.61605 0.9453 0.0
C1687 C 0.71303 0.58158 0.94331 0.0
C1688 C 0.66678 0.6257 0.9449 0.0
C1689 C 0.58173 0.59841 0.93634 0.0
H1690 H 0.53934 0.62171 0.95605 0.0
C1691 C 0.43948 0.5608 0.94134 0.0
C1692 C 0.43524 0.54111 0.94812 0.0
C1693 C 0.46848 0.58326 0.94047 0.0
C1694 C 0.5507 0.61557 0.95048 0.0
H1695 H 0.69514 0.53084 0.939 0.0
H1696 H 0.6334 0.54767 0.93819 0.0
H1697 H 0.60317 0.62789 0.95432 0.0
H1698 H 0.45596 0.53103 0.95953 0.0
H1699 H 0.50765 0.56866 0.95793 0.0
H1700 H 0.53052 0.58258 0.93268 0.0
C1701 C 0.65241 0.56728 0.94007 0.0
C1702 C 0.58718 0.61957 0.94946 0.0
C1703 C 0.68772 0.5575 0.94062 0.0
C1704 C 0.45887 0.54603 0.95424 0.0
C1705 C 0.4883 0.56792 0.95333 0.0
C1706 C 0.54546 0.59417 0.93736 0.0
C1707 C 0.64146 0.60125 0.9423 0.0
C1708 C 0.60316 0.60889 0.94254 0.0
C1709 C 0.49428 0.58564 0.9463 0.0
C1710 C 0.52982 0.60062 0.94459 0.0
H1711 H 0.72171 0.63501 0.94741 0.0
H1712 H 0.65885 0.65196 0.94669 0.0
H1713 H 0.59346 0.59046 0.93091 0.0
H1714 H 0.42111 0.55769 0.93659 0.0
H1715 H 0.47172 0.59717 0.93506 0.0
C1716 C 0.69087 0.21522 0.20722 0.0
C1717 C 0.70725 0.20434 0.20034 0.0
C1718 C 0.66733 0.24378 0.20721 0.0
C1719 C 0.62112 0.30755 0.19399 0.0
H1720 H 0.64994 0.37609 0.20937 0.0
C1721 C 0.6309 0.46794 0.19957 0.0
C1722 C 0.65334 0.47488 0.1933 0.0
C1723 C 0.61915 0.43344 0.20096 0.0
C1724 C 0.64059 0.3571 0.20516 0.0
H1725 H 0.70939 0.21271 0.18798 0.0
H1726 H 0.67004 0.26308 0.18799 0.0
H1727 H 0.66426 0.31418 0.21122 0.0
H1728 H 0.67866 0.45271 0.18321 0.0
H1729 H 0.65722 0.39282 0.18545 0.0
H1730 H 0.60107 0.35154 0.18754 0.0
C1731 C 0.67467 0.24958 0.1934 0.0
C1732 C 0.64881 0.32146 0.20621 0.0
C1733 C 0.69793 0.22106 0.19341 0.0
C1734 C 0.66136 0.44781 0.18807 0.0
C1735 C 0.64885 0.41367 0.18933 0.0
C1736 C 0.61346 0.3433 0.19288 0.0
C1737 C 0.6598 0.262 0.20033 0.0
C1738 C 0.64117 0.29663 0.2004 0.0
C1739 C 0.62892 0.40588 0.19596 0.0
C1740 C 0.62498 0.36852 0.19825 0.0
H1741 H 0.69739 0.20269 0.21265 0.0
H1742 H 0.65604 0.25237 0.21264 0.0
H1743 H 0.61383 0.28892 0.18952 0.0
H1744 H 0.62471 0.48854 0.2037 0.0
H1745 H 0.60409 0.42792 0.20613 0.0
C1746 C 0.03265 0.43564 0.45622 0.0
C1747 C 0.04434 0.45292 0.44951 0.0
C1748 C 0.00385 0.41245 0.45592 0.0
C1749 C 0.93958 0.37036 0.4421 0.0
H1750 H 0.87145 0.39722 0.45774 0.0
C1751 C 0.7793 0.38188 0.44779 0.0
C1752 C 0.77267 0.40614 0.44183 0.0
C1753 C 0.81363 0.3692 0.449 0.0
C1754 C 0.89029 0.38844 0.45344 0.0
H1755 H 0.03729 0.45673 0.43713 0.0
H1756 H 0.98638 0.41824 0.43665 0.0
H1757 H 0.9336 0.40965 0.45979 0.0
H1758 H 0.7952 0.43377 0.43208 0.0
H1759 H 0.85479 0.41075 0.43402 0.0
H1760 H 0.89519 0.35298 0.43541 0.0
C1761 C -0.00058 0.42184 0.44215 0.0
C1762 C 0.9261 0.39554 0.4546 0.0
C1763 C 0.02829 0.44464 0.44244 0.0
C1764 C 0.79985 0.4151 0.43671 0.0
C1765 C 0.8338 0.40169 0.43778 0.0
C1766 C 0.90364 0.36391 0.44088 0.0
C1767 C 0.98606 0.40629 0.44892 0.0
C1768 C 0.9509 0.38861 0.44874 0.0
C1769 C 0.84131 0.37987 0.44413 0.0
C1770 C 0.87861 0.37472 0.44637 0.0
H1771 H 0.04463 0.44129 0.46176 0.0
H1772 H 0.99467 0.4005 0.46123 0.0
H1773 H 0.9581 0.36356 0.43758 0.0
H1774 H 0.75865 0.3749 0.45184 0.0
H1775 H 0.81894 0.35266 0.45397 0.0
C1776 C 0.19977 0.79174 0.20562 0.0
C1777 C 0.20693 0.81049 0.19882 0.0
C1778 C 0.1777 0.7622 0.20546 0.0
C1779 C 0.15072 0.69361 0.19173 0.0
H1780 H 0.1068 0.65558 0.21015 0.0
C1781 C 0.13081 0.54509 0.19501 0.0
C1782 C 0.15278 0.53407 0.20107 0.0
C1783 C 0.12025 0.58049 0.19451 0.0
C1784 C 0.11825 0.66609 0.2049 0.0
H1785 H 0.19452 0.81515 0.18667 0.0
H1786 H 0.15508 0.76404 0.1864 0.0
H1787 H 0.11987 0.71871 0.20939 0.0
H1788 H 0.17816 0.54978 0.21173 0.0
H1789 H 0.15914 0.61118 0.21097 0.0
H1790 H 0.15047 0.64074 0.18739 0.0
C1791 C 0.16731 0.7714 0.19182 0.0
C1792 C 0.12609 0.70212 0.20449 0.0
C1793 C 0.18984 0.80065 0.19196 0.0
C1794 C 0.16143 0.55789 0.20697 0.0
C1795 C 0.15022 0.59289 0.20657 0.0
C1796 C 0.14239 0.65774 0.1921 0.0
C1797 C 0.16193 0.75104 0.19851 0.0
C1798 C 0.14442 0.71587 0.19809 0.0
C1799 C 0.13081 0.60487 0.20018 0.0
C1800 C 0.128 0.64335 0.19886 0.0
H1801 H 0.21277 0.79875 0.21097 0.0
H1802 H 0.17483 0.74698 0.2107 0.0
H1803 H 0.16497 0.703 0.18672 0.0
H1804 H 0.12393 0.52703 0.1904 0.0
H1805 H 0.10542 0.58921 0.18952 0.0
C1806 C 0.98217 0.48028 0.94207 0.0
C1807 C 0.9483 0.46879 0.94427 0.0
C1808 C 0.01037 0.45669 0.9418 0.0
C1809 C 0.04635 0.38303 0.95148 0.0
H1810 H 0.11497 0.38898 0.93491 0.0
C1811 C 0.206 0.37548 0.94476 0.0
C1812 C 0.21505 0.40037 0.95044 0.0
C1813 C 0.17083 0.36453 0.94397 0.0
C1814 C 0.09587 0.3858 0.93951 0.0
H1815 H 0.91769 0.42293 0.94783 0.0
H1816 H 0.96795 0.3821 0.94778 0.0
H1817 H 0.05445 0.40841 0.9327 0.0
H1818 H 0.19601 0.43029 0.96024 0.0
H1819 H 0.13505 0.41111 0.95893 0.0
H1820 H 0.08868 0.36358 0.95851 0.0
C1821 C 0.97205 0.40939 0.94611 0.0
C1822 C 0.0613 0.39722 0.93826 0.0
C1823 C 0.94349 0.43292 0.94623 0.0
C1824 C 0.18946 0.41143 0.95576 0.0
C1825 C 0.15463 0.40002 0.95506 0.0
C1826 C 0.08106 0.37183 0.95276 0.0
C1827 C 0.00566 0.42115 0.94386 0.0
C1828 C 0.037 0.39805 0.94437 0.0
C1829 C 0.14461 0.37781 0.94894 0.0
C1830 C 0.10666 0.37544 0.94693 0.0
H1831 H 0.98725 0.50775 0.94071 0.0
H1832 H 0.03631 0.46661 0.94025 0.0
H1833 H 0.02798 0.38336 0.95628 0.0
H1834 H 0.22548 0.36653 0.94062 0.0
H1835 H 0.16375 0.34741 0.9392 0.0
C1836 C 0.30919 0.22043 0.70713 0.0
C1837 C 0.30723 0.19629 0.70103 0.0
C1838 C 0.33005 0.25071 0.70643 0.0
C1839 C 0.35652 0.30786 0.69057 0.0
H1840 H 0.37933 0.36959 0.7077 0.0
C1841 C 0.30233 0.44443 0.69319 0.0
C1842 C 0.32196 0.47222 0.69638 0.0
C1843 C 0.31689 0.4108 0.69262 0.0
C1844 C 0.37412 0.35261 0.7028 0.0
H1845 H 0.32799 0.18205 0.68983 0.0
H1846 H 0.36575 0.23422 0.68871 0.0
H1847 H 0.37939 0.30564 0.70959 0.0
H1848 H 0.37254 0.48726 0.70126 0.0
H1849 H 0.39788 0.42741 0.70049 0.0
H1850 H 0.3495 0.35486 0.6839 0.0
C1851 C 0.3504 0.23066 0.69392 0.0
C1852 C 0.37371 0.31599 0.7039 0.0
C1853 C 0.32897 0.20077 0.69456 0.0
C1854 C 0.35695 0.46612 0.69877 0.0
C1855 C 0.37139 0.43205 0.69834 0.0
C1856 C 0.35722 0.34431 0.68947 0.0
C1857 C 0.34956 0.25705 0.69964 0.0
C1858 C 0.36239 0.2934 0.69794 0.0
C1859 C 0.35128 0.40408 0.69531 0.0
C1860 C 0.36351 0.36702 0.69571 0.0
H1861 H 0.2925 0.2173 0.71217 0.0
H1862 H 0.32832 0.27043 0.71094 0.0
H1863 H 0.34774 0.29157 0.6858 0.0
H1864 H 0.27538 0.44851 0.69126 0.0
H1865 H 0.3005 0.38963 0.69039 0.0
C1866 C 0.53734 0.55785 0.45528 0.0
C1867 C 0.54675 0.54385 0.44805 0.0
C1868 C 0.50774 0.57978 0.45601 0.0
C1869 C 0.42946 0.59478 0.45669 0.0
H1870 H 0.38886 0.64392 0.43918 0.0
C1871 C 0.29414 0.58174 0.44175 0.0
C1872 C 0.26973 0.58983 0.44756 0.0
C1873 C 0.32877 0.59407 0.44225 0.0
C1874 C 0.40008 0.63107 0.4442 0.0
H1875 H 0.53445 0.54468 0.43583 0.0
H1876 H 0.48212 0.58083 0.43714 0.0
H1877 H 0.45256 0.63354 0.43965 0.0
H1878 H 0.2612 0.61805 0.45826 0.0
H1879 H 0.32288 0.6383 0.45935 0.0
H1880 H 0.37669 0.59124 0.46107 0.0
C1881 C 0.49763 0.57564 0.44226 0.0
C1882 C 0.43645 0.62471 0.44444 0.0
C1883 C 0.52735 0.55415 0.44152 0.0
C1884 C 0.27975 0.61189 0.45369 0.0
C1885 C 0.31482 0.62342 0.45431 0.0
C1886 C 0.39324 0.60179 0.45651 0.0
C1887 C 0.48674 0.58789 0.44955 0.0
C1888 C 0.45119 0.60436 0.45044 0.0
C1889 C 0.33976 0.61382 0.44867 0.0
C1890 C 0.37803 0.61806 0.45005 0.0
H1891 H 0.5518 0.55057 0.46043 0.0
H1892 H 0.50055 0.58923 0.4617 0.0
H1893 H 0.4396 0.57895 0.4614 0.0
H1894 H 0.28679 0.56465 0.437 0.0
H1895 H 0.34763 0.58583 0.4379 0.0
C1896 C 0.18719 0.19892 0.32852 0.0
C1897 C 0.20374 0.18922 0.32159 0.0
C1898 C 0.16491 0.22835 0.32878 0.0
C1899 C 0.14955 0.3063 0.3291 0.0
H1900 H 0.10653 0.34637 0.31078 0.0
C1901 C 0.16645 0.44113 0.31407 0.0
C1902 C 0.15827 0.46542 0.3199 0.0
C1903 C 0.15363 0.40669 0.31444 0.0
C1904 C 0.11765 0.33529 0.31601 0.0
H1905 H 0.20887 0.20129 0.30944 0.0
H1906 H 0.17153 0.25346 0.30992 0.0
H1907 H 0.11744 0.28281 0.31143 0.0
H1908 H 0.12875 0.47402 0.33044 0.0
H1909 H 0.10752 0.41267 0.3313 0.0
H1910 H 0.15114 0.35902 0.33351 0.0
C1911 C 0.17454 0.23799 0.31513 0.0
C1912 C 0.12429 0.29901 0.31636 0.0
C1913 C 0.1963 0.20825 0.31485 0.0
C1914 C 0.13531 0.45553 0.32588 0.0
C1915 C 0.12316 0.42065 0.32636 0.0
C1916 C 0.14235 0.34242 0.32879 0.0
C1917 C 0.15934 0.24905 0.32215 0.0
C1918 C 0.14247 0.2845 0.3227 0.0
C1919 C 0.13306 0.39575 0.32074 0.0
C1920 C 0.12839 0.35749 0.32206 0.0
H1921 H 0.1921 0.18416 0.33376 0.0
H1922 H 0.1531 0.2356 0.33425 0.0
H1923 H 0.16367 0.29633 0.33407 0.0
H1924 H 0.18389 0.44841 0.30937 0.0
H1925 H 0.16208 0.38793 0.31009 0.0
C1926 C 0.54173 0.44319 0.05796 0.0
C1927 C 0.55327 0.45757 0.065 0.0
C1928 C 0.51288 0.42006 0.05775 0.0
C1929 C 0.4353 0.4018 0.05853 0.0
H1930 H 0.40444 0.34932 0.07652 0.0
C1931 C 0.30602 0.40562 0.07622 0.0
C1932 C 0.2802 0.3996 0.0706 0.0
C1933 C 0.34062 0.39417 0.07504 0.0
C1934 C 0.41291 0.36317 0.07138 0.0
H1935 H 0.54561 0.4564 0.0774 0.0
H1936 H 0.49453 0.418 0.07702 0.0
H1937 H 0.46706 0.36331 0.07492 0.0
H1938 H 0.26903 0.37576 0.05952 0.0
H1939 H 0.33037 0.35674 0.05727 0.0
H1940 H 0.38095 0.40295 0.05518 0.0
C1941 C 0.50783 0.42385 0.07164 0.0
C1942 C 0.44866 0.37153 0.07049 0.0
C1943 C 0.53679 0.4466 0.07185 0.0
C1944 C 0.28869 0.38014 0.06397 0.0
C1945 C 0.32362 0.36939 0.06268 0.0
C1946 C 0.3997 0.39293 0.05937 0.0
C1947 C 0.4948 0.41107 0.06457 0.0
C1948 C 0.45989 0.39295 0.06431 0.0
C1949 C 0.35008 0.37742 0.0681 0.0
C1950 C 0.38793 0.37543 0.06602 0.0
H1951 H 0.55392 0.45099 0.05257 0.0
H1952 H 0.50395 0.4103 0.05221 0.0
H1953 H 0.44274 0.4184 0.05372 0.0
H1954 H 0.29986 0.42092 0.08134 0.0
H1955 H 0.36056 0.40122 0.07926 0.0
C1956 C 0.36266 0.53805 0.82257 0.0
C1957 C 0.33651 0.52574 0.81749 0.0
C1958 C 0.37337 0.57346 0.82231 0.0
C1959 C 0.35502 0.65223 0.82434 0.0
H1960 H 0.36841 0.70699 0.80567 0.0
C1961 C 0.29708 0.78679 0.81111 0.0
C1962 C 0.29472 0.80644 0.81794 0.0
C1963 C 0.31781 0.75626 0.81085 0.0
C1964 C 0.36472 0.69217 0.81095 0.0
H1965 H 0.30329 0.53928 0.80776 0.0
H1966 H 0.32247 0.6007 0.80717 0.0
H1967 H 0.37698 0.643 0.8054 0.0
H1968 H 0.31438 0.81215 0.82958 0.0
H1969 H 0.3521 0.75979 0.82905 0.0
H1970 H 0.3392 0.70014 0.82976 0.0
C1971 C 0.33451 0.58336 0.8114 0.0
C1972 C 0.37 0.65561 0.8108 0.0
C1973 C 0.32322 0.54837 0.81179 0.0
C1974 C 0.31562 0.79698 0.82429 0.0
C1975 C 0.33698 0.7669 0.82398 0.0
C1976 C 0.34911 0.68861 0.82447 0.0
C1977 C 0.35875 0.59655 0.81681 0.0
C1978 C 0.36363 0.6352 0.81741 0.0
C1979 C 0.33702 0.74516 0.81739 0.0
C1980 C 0.35218 0.70882 0.81768 0.0
H1981 H 0.37325 0.52092 0.82702 0.0
H1982 H 0.39196 0.58316 0.82656 0.0
H1983 H 0.3496 0.63704 0.82951 0.0
H1984 H 0.28099 0.79365 0.80616 0.0
H1985 H 0.31663 0.74018 0.8057 0.0
C1986 C 0.9596 0.55768 0.55817 0.0
C1987 C 0.94792 0.54197 0.56506 0.0
C1988 C 0.98826 0.58107 0.55821 0.0
C1989 C 0.0659 0.59848 0.55933 0.0
H1990 H 0.09693 0.64513 0.57806 0.0
C1991 C 0.19155 0.58155 0.5774 0.0
C1992 C 0.21892 0.58935 0.57224 0.0
C1993 C 0.15777 0.59513 0.57618 0.0
C1994 C 0.08844 0.63306 0.5727 0.0
H1995 H 0.95485 0.54123 0.57747 0.0
H1996 H 0.0056 0.57999 0.57753 0.0
H1997 H 0.03399 0.63425 0.576 0.0
H1998 H 0.23355 0.61862 0.56199 0.0
H1999 H 0.1735 0.64108 0.55961 0.0
H2000 H 0.12054 0.59599 0.55621 0.0
C2001 C 0.99262 0.57502 0.57207 0.0
C2002 C 0.05249 0.62643 0.57155 0.0
C2003 C 0.96386 0.55204 0.57203 0.0
C2004 C 0.2127 0.61258 0.56607 0.0
C2005 C 0.17854 0.62539 0.56471 0.0
C2006 C 0.10172 0.60577 0.56041 0.0
C2007 C 0.00599 0.58897 0.56514 0.0
C2008 C 0.04113 0.60671 0.56512 0.0
C2009 C 0.15064 0.61591 0.56965 0.0
C2010 C 0.11343 0.62096 0.56734 0.0
H2011 H 0.94776 0.55064 0.55269 0.0
H2012 H 0.99743 0.59177 0.55278 0.0
H2013 H 0.05838 0.58325 0.5543 0.0
H2014 H 0.19592 0.56365 0.58219 0.0
H2015 H 0.13661 0.58696 0.58 0.0
C2016 C 0.60123 0.32371 0.32165 0.0
C2017 C 0.58956 0.35841 0.32307 0.0
C2018 C 0.57891 0.29493 0.32297 0.0
C2019 C 0.48446 0.27185 0.32456 0.0
H2020 H 0.52126 0.18285 0.33224 0.0
C2021 C 0.39405 0.151 0.32885 0.0
C2022 C 0.40674 0.11917 0.32569 0.0
C2023 C 0.41652 0.18004 0.32974 0.0
C2024 C 0.51064 0.2075 0.33007 0.0
H2025 H 0.54544 0.38997 0.32713 0.0
H2026 H 0.50656 0.33965 0.32951 0.0
H2027 H 0.56002 0.23435 0.33152 0.0
H2028 H 0.45347 0.09241 0.32137 0.0
H2029 H 0.4926 0.14308 0.32291 0.0
H2030 H 0.43524 0.24492 0.32302 0.0
C2031 C 0.53285 0.33476 0.32727 0.0
C2032 C 0.53284 0.237 0.32964 0.0
C2033 C 0.55519 0.36361 0.32594 0.0
C2034 C 0.44279 0.11653 0.32381 0.0
C2035 C 0.46529 0.14555 0.32472 0.0
C2036 C 0.46226 0.24241 0.32502 0.0
C2037 C 0.54437 0.30007 0.32575 0.0
C2038 C 0.52016 0.26941 0.32678 0.0
C2039 C 0.45223 0.17789 0.32753 0.0
C2040 C 0.4752 0.20977 0.32768 0.0
H2041 H 0.62745 0.3187 0.31939 0.0
H2042 H 0.58848 0.26867 0.32161 0.0
H2043 H 0.47392 0.29621 0.32222 0.0
H2044 H 0.36648 0.15394 0.33041 0.0
H2045 H 0.40579 0.20443 0.33203 0.0
C2046 C 0.12181 0.18522 0.57938 0.0
C2047 C 0.1176 0.15011 0.57689 0.0
C2048 C 0.09276 0.20806 0.57973 0.0
C2049 C 0.99436 0.20985 0.57971 0.0
H2050 H 0.00757 0.30495 0.5719 0.0
C2051 C 0.87901 0.29984 0.57006 0.0
C2052 C 0.88142 0.33625 0.57161 0.0
C2053 C 0.90716 0.27723 0.57179 0.0
C2054 C 0.00351 0.27868 0.57421 0.0
H2055 H 0.07937 0.11133 0.57293 0.0
H2056 H 0.02898 0.1512 0.57343 0.0
H2057 H 0.05814 0.26541 0.57289 0.0
H2058 H 0.91476 0.37708 0.57655 0.0
H2059 H 0.96376 0.33765 0.57958 0.0
H2060 H 0.93947 0.223 0.58084 0.0
C2061 C 0.05458 0.16101 0.57524 0.0
C2062 C 0.03254 0.25598 0.57479 0.0
C2063 C 0.08358 0.13816 0.57491 0.0
C2064 C 0.91209 0.34928 0.5752 0.0
C2065 C 0.94028 0.3267 0.57691 0.0
C2066 C 0.96528 0.23254 0.57911 0.0
C2067 C 0.05884 0.19634 0.57758 0.0
C2068 C 0.02828 0.22115 0.57747 0.0
C2069 C 0.93838 0.29053 0.57511 0.0
C2070 C 0.96948 0.2671 0.57627 0.0
H2071 H 0.14761 0.19521 0.58099 0.0
H2072 H 0.09691 0.23495 0.58167 0.0
H2073 H 0.99022 0.18339 0.58192 0.0
H2074 H 0.85576 0.28887 0.5673 0.0
H2075 H 0.90495 0.24955 0.57027 0.0
C2076 C 0.92863 0.62632 0.82398 0.0
C2077 C 0.89193 0.63181 0.82351 0.0
C2078 C 0.95128 0.6541 0.82596 0.0
C2079 C 0.99323 0.71553 0.83281 0.0
H2080 H 0.97708 0.79942 0.82045 0.0
C2081 C 0.09189 0.83446 0.83087 0.0
C2082 C 0.10268 0.83921 0.82318 0.0
C2083 C 0.06257 0.81301 0.83255 0.0
C2084 C 0.98161 0.77642 0.82404 0.0
H2085 H 0.85013 0.67046 0.82511 0.0
H2086 H 0.8897 0.7189 0.82851 0.0
H2087 H 0.93261 0.75279 0.82071 0.0
H2088 H 0.09065 0.827 0.81125 0.0
H2089 H 0.03932 0.7907 0.81416 0.0
H2090 H 0.04319 0.73876 0.83582 0.0
C2091 C 0.90093 0.69314 0.82731 0.0
C2092 C 0.95611 0.74977 0.82423 0.0
C2093 C 0.87827 0.66532 0.82538 0.0
C2094 C 0.08305 0.82352 0.81723 0.0
C2095 C 0.05351 0.80297 0.81889 0.0
C2096 C 0.01865 0.74245 0.83269 0.0
C2097 C 0.93774 0.68802 0.82747 0.0
C2098 C 0.96214 0.7185 0.8284 0.0
C2099 C 0.04322 0.79707 0.82655 0.0
C2100 C 0.01355 0.77254 0.82809 0.0
H2101 H 0.94003 0.6008 0.82261 0.0
H2102 H 0.97953 0.64938 0.82594 0.0
H2103 H -0.00157 0.69187 0.83614 0.0
H2104 H 0.10676 0.84627 0.83554 0.0
H2105 H 0.0551 0.80872 0.83851 0.0
C2106 C 0.37636 0.80533 0.08107 0.0
C2107 C 0.37987 0.84046 0.07855 0.0
C2108 C 0.40604 0.78339 0.08164 0.0
C2109 C 0.5047 0.78395 0.08181 0.0
H2110 H 0.49377 0.68909 0.07368 0.0
C2111 C 0.62173 0.69758 0.07145 0.0
C2112 C 0.62031 0.66104 0.0729 0.0
C2113 C 0.59322 0.71942 0.07339 0.0
C2114 C 0.4972 0.7153 0.07609 0.0
H2115 H 0.41756 0.88043 0.07492 0.0
H2116 H 0.46895 0.84211 0.07577 0.0
H2117 H 0.44224 0.72719 0.07487 0.0
H2118 H 0.58845 0.61919 0.07789 0.0
H2119 H 0.53883 0.65722 0.08124 0.0
H2120 H 0.55999 0.77222 0.08279 0.0
C2121 C 0.44344 0.83154 0.07741 0.0
C2122 C 0.4676 0.73717 0.07678 0.0
C2123 C 0.41384 0.85349 0.07688 0.0
C2124 C 0.59033 0.6471 0.07661 0.0
C2125 C 0.56179 0.66888 0.07851 0.0
C2126 C 0.53436 0.7621 0.08107 0.0
C2127 C 0.43987 0.79604 0.07969 0.0
C2128 C 0.47101 0.77193 0.07956 0.0
C2129 C 0.56264 0.70517 0.07679 0.0
C2130 C 0.53099 0.72766 0.07812 0.0
H2131 H 0.35062 0.79453 0.08246 0.0
H2132 H 0.4024 0.75636 0.08354 0.0
H2133 H 0.50821 0.81037 0.08409 0.0
H2134 H 0.64444 0.70924 0.06862 0.0
H2135 H 0.59459 0.74723 0.07194 0.0
C2136 C 0.59575 0.65989 0.18638 0.0
C2137 C 0.5863 0.63312 0.19161 0.0
C2138 C 0.57324 0.68864 0.1851 0.0
C2139 C 0.53418 0.7574 0.18791 0.0
H2140 H 0.43223 0.7491 0.18938 0.0
C2141 C 0.44543 0.87485 0.19613 0.0
C2142 C 0.41075 0.87667 0.19325 0.0
C2143 C 0.46698 0.84587 0.19445 0.0
C2144 C 0.46061 0.75198 0.18882 0.0
H2145 H 0.54529 0.61501 0.19941 0.0
H2146 H 0.50657 0.66537 0.19734 0.0
H2147 H 0.46835 0.69596 0.18884 0.0
H2148 H 0.37216 0.85034 0.18599 0.0
H2149 H 0.41009 0.80009 0.18291 0.0
H2150 H 0.52643 0.81339 0.18779 0.0
C2151 C 0.53099 0.66397 0.19409 0.0
C2152 C 0.4814 0.72142 0.18862 0.0
C2153 C 0.55334 0.6351 0.19532 0.0
C2154 C 0.39866 0.8496 0.18836 0.0
C2155 C 0.42034 0.82067 0.18663 0.0
C2156 C 0.51338 0.78794 0.18804 0.0
C2157 C 0.54088 0.69143 0.18906 0.0
C2158 C 0.51851 0.72373 0.18835 0.0
C2159 C 0.45453 0.81808 0.18979 0.0
C2160 C 0.47637 0.78566 0.18869 0.0
H2161 H 0.6208 0.65893 0.18335 0.0
H2162 H 0.58144 0.70891 0.18107 0.0
H2163 H 0.56266 0.76032 0.18776 0.0
H2164 H 0.45559 0.89517 0.19993 0.0
H2165 H 0.49292 0.84465 0.19708 0.0
C2166 C 0.5803 0.35522 0.43758 0.0
C2167 C 0.61392 0.34167 0.43939 0.0
C2168 C 0.55162 0.3325 0.43645 0.0
C2169 C 0.49483 0.2805 0.44143 0.0
H2170 H 0.50071 0.18874 0.4315 0.0
C2171 C 0.41849 0.15942 0.45156 0.0
C2172 C 0.4012 0.13802 0.44613 0.0
C2173 C 0.43965 0.18746 0.44918 0.0
C2174 C 0.49845 0.21454 0.43417 0.0
H2175 H 0.64416 0.29349 0.441 0.0
H2176 H 0.59409 0.25388 0.43906 0.0
H2177 H 0.54857 0.23172 0.42975 0.0
H2178 H 0.39197 0.12923 0.43396 0.0
H2179 H 0.43044 0.17818 0.42973 0.0
H2180 H 0.44567 0.2627 0.44617 0.0
C2181 C 0.58994 0.28209 0.43848 0.0
C2182 C 0.52593 0.23897 0.43323 0.0
C2183 C 0.61859 0.30482 0.43965 0.0
C2184 C 0.40498 0.14552 0.43824 0.0
C2185 C 0.42698 0.1733 0.43583 0.0
C2186 C 0.46765 0.25599 0.44243 0.0
C2187 C 0.55597 0.29572 0.43705 0.0
C2188 C 0.5248 0.27184 0.43702 0.0
C2189 C 0.44454 0.19441 0.44131 0.0
C2190 C 0.46967 0.22245 0.43899 0.0
H2191 H 0.57573 0.38341 0.4373 0.0
H2192 H 0.52581 0.34375 0.43529 0.0
H2193 H 0.49329 0.30546 0.44447 0.0
H2194 H 0.41584 0.15434 0.45769 0.0
H2195 H 0.45317 0.20307 0.45352 0.0
C2196 C 0.11441 0.17012 0.69414 0.0
C2197 C 0.10275 0.13556 0.69258 0.0
C2198 C 0.09174 0.19896 0.69314 0.0
C2199 C 0.99655 0.22094 0.69213 0.0
H2200 H 0.03098 0.31191 0.68507 0.0
C2201 C 0.90279 0.33964 0.68811 0.0
C2202 C 0.91427 0.37174 0.69135 0.0
C2203 C 0.92615 0.31122 0.68729 0.0
C2204 C 0.02103 0.2867 0.68708 0.0
H2205 H 0.05842 0.10437 0.68849 0.0
H2206 H 0.01912 0.1547 0.68661 0.0
H2207 H 0.07103 0.26128 0.68539 0.0
H2208 H 0.95978 0.39957 0.69596 0.0
H2209 H 0.00048 0.35 0.69453 0.0
H2210 H 0.94665 0.24639 0.69387 0.0
C2211 C 0.04556 0.15947 0.68877 0.0
C2212 C 0.04398 0.25769 0.68728 0.0
C2213 C 0.06818 0.13061 0.6898 0.0
C2214 C 0.95001 0.37522 0.69345 0.0
C2215 C 0.97342 0.34684 0.6926 0.0
C2216 C 0.9736 0.24988 0.6919 0.0
C2217 C 0.0569 0.19399 0.69051 0.0
C2218 C 0.03212 0.2245 0.68988 0.0
C2219 C 0.96159 0.3143 0.68965 0.0
C2220 C 0.98563 0.28318 0.68944 0.0
H2221 H 0.14085 0.1749 0.69631 0.0
H2222 H 0.10127 0.22507 0.69464 0.0
H2223 H 0.98661 0.19601 0.6943 0.0
H2224 H 0.87551 0.33603 0.6864 0.0
H2225 H 0.91635 0.28666 0.6849 0.0
C2226 C 0.87019 0.69927 0.9438 0.0
C2227 C 0.86844 0.66638 0.94005 0.0
C2228 C 0.89976 0.72106 0.94289 0.0
C2229 C 0.96021 0.76906 0.93823 0.0
H2230 H 0.05074 0.72092 0.93827 0.0
C2231 C 0.09128 0.84713 0.93873 0.0
C2232 C 0.11753 0.83435 0.94374 0.0
C2233 C 0.06169 0.82648 0.93696 0.0
C2234 C 0.0257 0.73483 0.93829 0.0
H2235 H 0.89526 0.63165 0.932 0.0
H2236 H 0.94637 0.67004 0.93025 0.0
H2237 H 0.99651 0.68657 0.93765 0.0
H2238 H 0.13382 0.78941 0.95065 0.0
H2239 H 0.08205 0.75378 0.94771 0.0
H2240 H 0.98938 0.81721 0.93932 0.0
C2241 C 0.92542 0.67858 0.93408 0.0
C2242 C 0.99451 0.71512 0.93781 0.0
C2243 C 0.89598 0.65666 0.93504 0.0
C2244 C 0.11417 0.80002 0.94674 0.0
C2245 C 0.08447 0.77948 0.94501 0.0
C2246 C 0.9914 0.78877 0.93876 0.0
C2247 C 0.92814 0.71064 0.93815 0.0
C2248 C 0.96131 0.73193 0.9379 0.0
C2249 C 0.05755 0.79264 0.9402 0.0
C2250 C 0.02456 0.77187 0.93893 0.0
H2251 H 0.84952 0.70752 0.94773 0.0
H2252 H 0.90101 0.74532 0.94619 0.0
H2253 H 0.93517 0.78297 0.9382 0.0
H2254 H 0.09328 0.87333 0.93625 0.0
H2255 H 0.04186 0.83723 0.93311 0.0
C2256 C 0.58806 0.83705 0.68784 0.0
C2257 C 0.59539 0.84302 0.69567 0.0
C2258 C 0.55949 0.81545 0.6857 0.0
C2259 C 0.47562 0.77834 0.69284 0.0
H2260 H 0.4995 0.69327 0.68149 0.0
C2261 C 0.42788 0.6265 0.69274 0.0
C2262 C 0.39096 0.63075 0.69262 0.0
C2263 C 0.45016 0.65488 0.69099 0.0
C2264 C 0.49234 0.71705 0.6846 0.0
H2265 H 0.57797 0.83303 0.70737 0.0
H2266 H 0.5279 0.79644 0.70367 0.0
H2267 H 0.54254 0.7415 0.68239 0.0
H2268 H 0.34851 0.66775 0.69018 0.0
H2269 H 0.38744 0.71723 0.68717 0.0
H2270 H 0.42628 0.75346 0.69541 0.0
C2271 C 0.54415 0.80792 0.69917 0.0
C2272 C 0.5168 0.74475 0.68505 0.0
C2273 C 0.57294 0.82865 0.7013 0.0
C2274 C 0.37682 0.66358 0.69038 0.0
C2275 C 0.39911 0.69199 0.68867 0.0
C2276 C 0.45109 0.75086 0.69234 0.0
C2277 C 0.53747 0.80053 0.69138 0.0
C2278 C 0.50911 0.77508 0.68941 0.0
C2279 C 0.43603 0.68817 0.68912 0.0
C2280 C 0.45964 0.7194 0.68844 0.0
H2281 H 0.6052 0.84779 0.68342 0.0
H2282 H 0.55485 0.81002 0.67965 0.0
H2283 H 0.46904 0.80151 0.69622 0.0
H2284 H 0.43965 0.60153 0.6944 0.0
H2285 H 0.47848 0.65115 0.69147 0.0
C2286 C 0.86956 0.80123 0.44695 0.0
C2287 C 0.86813 0.83462 0.44342 0.0
C2288 C 0.89843 0.77886 0.44574 0.0
C2289 C 0.99262 0.7827 0.44027 0.0
H2290 H 0.98418 0.68062 0.44085 0.0
C2291 C 0.08487 0.64744 0.43985 0.0
C2292 C 0.11142 0.65819 0.44502 0.0
C2293 C 0.05607 0.66948 0.43827 0.0
C2294 C 0.98711 0.70906 0.44055 0.0
H2295 H 0.89492 0.86978 0.43545 0.0
H2296 H 0.94497 0.83044 0.43321 0.0
H2297 H 0.93108 0.71682 0.44021 0.0
H2298 H 0.12915 0.70105 0.45237 0.0
H2299 H 0.07875 0.73912 0.44975 0.0
H2300 H 0.04865 0.77493 0.44055 0.0
C2301 C 0.92419 0.82191 0.43708 0.0
C2302 C 0.95657 0.72987 0.44029 0.0
C2303 C 0.89538 0.84439 0.43833 0.0
C2304 C 0.10921 0.69197 0.44835 0.0
C2305 C 0.08033 0.71392 0.44681 0.0
C2306 C 0.02316 0.76189 0.44049 0.0
C2307 C 0.92649 0.7892 0.44091 0.0
C2308 C 0.9589 0.76697 0.44031 0.0
C2309 C 0.05307 0.70272 0.44185 0.0
C2310 C 0.0208 0.72481 0.4408 0.0
H2311 H 0.84908 0.79287 0.45092 0.0
H2312 H 0.89941 0.75409 0.44886 0.0
H2313 H 0.99551 0.81117 0.44036 0.0
H2314 H 0.08601 0.62174 0.43711 0.0
H2315 H 0.03594 0.66026 0.43431 0.0
C2316 C 0.09756 0.34924 0.18859 0.0
C2317 C 0.08589 0.37659 0.19345 0.0
C2318 C 0.07579 0.32015 0.18705 0.0
C2319 C 0.98296 0.28736 0.18907 0.0
H2320 H 0.02823 0.19548 0.18978 0.0
C2321 C 0.94416 0.13467 0.19688 0.0
C2322 C 0.91049 0.1329 0.19349 0.0
C2323 C 0.96641 0.16342 0.19544 0.0
C2324 C 0.0151 0.22091 0.1896 0.0
H2325 H 0.04167 0.39541 0.20029 0.0
H2326 H 0.00425 0.34465 0.19779 0.0
H2327 H 0.06431 0.24867 0.18998 0.0
H2328 H 0.87456 0.15878 0.18555 0.0
H2329 H 0.91374 0.20841 0.18284 0.0
H2330 H 0.93372 0.25975 0.18919 0.0
C2331 C 0.02989 0.34575 0.19502 0.0
C2332 C 0.03587 0.2515 0.18959 0.0
C2333 C 0.05151 0.37488 0.1965 0.0
C2334 C 0.90019 0.15964 0.18833 0.0
C2335 C 0.9226 0.1882 0.18681 0.0
C2336 C 0.9622 0.25681 0.18915 0.0
C2337 C 0.04193 0.31768 0.19039 0.0
C2338 C 0.02004 0.28516 0.18948 0.0
C2339 C 0.9557 0.1909 0.19048 0.0
C2340 C 0.97796 0.22316 0.18957 0.0
H2341 H 0.12382 0.34989 0.18609 0.0
H2342 H 0.08571 0.29936 0.18334 0.0
H2343 H 0.96983 0.31278 0.18884 0.0
H2344 H 0.95283 0.11458 0.20091 0.0
H2345 H 0.99142 0.16472 0.19846 0.0
C2346 C 0.40056 0.3463 0.93854 0.0
C2347 C 0.37338 0.33429 0.94341 0.0
C2348 C 0.42971 0.32475 0.93693 0.0
C2349 C 0.46352 0.23224 0.93879 0.0
H2350 H 0.55477 0.27866 0.93986 0.0
C2351 C 0.61538 0.19569 0.9475 0.0
C2352 C 0.6186 0.16227 0.94404 0.0
C2353 C 0.58648 0.21738 0.94585 0.0
C2354 C 0.52952 0.26523 0.93956 0.0
H2355 H 0.35486 0.2897 0.95016 0.0
H2356 H 0.40581 0.25263 0.94753 0.0
H2357 H 0.50111 0.31403 0.93992 0.0
H2358 H 0.59493 0.12619 0.9358 0.0
H2359 H 0.54482 0.16441 0.93278 0.0
H2360 H 0.49185 0.18337 0.93894 0.0
C2361 C 0.4045 0.27838 0.94481 0.0
C2362 C 0.49867 0.28558 0.93949 0.0
C2363 C 0.37528 0.29979 0.94637 0.0
C2364 C 0.59304 0.15165 0.93863 0.0
C2365 C 0.56421 0.1735 0.93693 0.0
C2366 C 0.49436 0.21188 0.93894 0.0
C2367 C 0.43244 0.29079 0.94019 0.0
C2368 C 0.46522 0.26932 0.93928 0.0
C2369 C 0.56019 0.20635 0.94064 0.0
C2370 C 0.52774 0.22809 0.93951 0.0
H2371 H 0.39973 0.37265 0.9361 0.0
H2372 H 0.4504 0.33495 0.93323 0.0
H2373 H 0.43826 0.21882 0.93849 0.0
H2374 H 0.63453 0.20467 0.95172 0.0
H2375 H 0.5841 0.2422 0.94892 0.0
C2376 C 0.56627 0.13616 0.81999 0.0
C2377 C 0.60022 0.13517 0.82327 0.0
C2378 C 0.54368 0.16469 0.82137 0.0
C2379 C 0.5454 0.2587 0.82717 0.0
H2380 H 0.44369 0.24614 0.8277 0.0
C2381 C 0.40631 0.34498 0.8294 0.0
C2382 C 0.41491 0.37245 0.82428 0.0
C2383 C 0.42997 0.31712 0.83067 0.0
C2384 C 0.47203 0.25023 0.82769 0.0
H2385 H 0.63655 0.16282 0.83085 0.0
H2386 H 0.59683 0.21234 0.83339 0.0
H2387 H 0.48207 0.19459 0.82764 0.0
H2388 H 0.45572 0.39281 0.81669 0.0
H2389 H 0.49646 0.34411 0.81876 0.0
H2390 H 0.53535 0.31436 0.82731 0.0
C2391 C 0.58794 0.19138 0.8296 0.0
C2392 C 0.49408 0.22057 0.82755 0.0
C2393 C 0.61065 0.16288 0.82818 0.0
C2394 C 0.44824 0.37215 0.82069 0.0
C2395 C 0.47176 0.34421 0.82192 0.0
C2396 C 0.52335 0.28837 0.82737 0.0
C2397 C 0.55432 0.19289 0.82612 0.0
C2398 C 0.53104 0.22439 0.82711 0.0
C2399 C 0.4627 0.31597 0.82681 0.0
C2400 C 0.48634 0.28455 0.82747 0.0
H2401 H 0.55739 0.11535 0.81616 0.0
H2402 H 0.51827 0.16512 0.81849 0.0
H2403 H 0.5737 0.26275 0.82678 0.0
H2404 H 0.38099 0.34457 0.83232 0.0
H2405 H 0.42235 0.2962 0.8346 0.0
C2406 C 0.37893 0.68763 0.57196 0.0
C2407 C 0.37789 0.65351 0.57514 0.0
C2408 C 0.40802 0.70964 0.57321 0.0
C2409 C 0.50286 0.70483 0.57814 0.0
H2410 H 0.49396 0.80689 0.57861 0.0
C2411 C 0.59466 0.84035 0.57921 0.0
C2412 C 0.62063 0.83048 0.57383 0.0
C2413 C 0.5661 0.81798 0.58079 0.0
C2414 C 0.49704 0.77843 0.57862 0.0
H2415 H 0.40576 0.61643 0.5825 0.0
H2416 H 0.45622 0.65515 0.58483 0.0
H2417 H 0.44112 0.77036 0.57918 0.0
H2418 H 0.63757 0.78886 0.56605 0.0
H2419 H 0.5876 0.75032 0.56864 0.0
H2420 H 0.5588 0.71288 0.57766 0.0
C2421 C 0.43493 0.66459 0.5812 0.0
C2422 C 0.46663 0.75745 0.57884 0.0
C2423 C 0.4059 0.64246 0.5799 0.0
C2424 C 0.61809 0.79726 0.57025 0.0
C2425 C 0.58945 0.77501 0.57178 0.0
C2426 C 0.53328 0.7258 0.57797 0.0
C2427 C 0.4367 0.6982 0.57774 0.0
C2428 C 0.46909 0.7204 0.57842 0.0
C2429 C 0.56278 0.78529 0.57697 0.0
C2430 C 0.53074 0.76289 0.57803 0.0
H2431 H 0.35787 0.69697 0.56825 0.0
H2432 H 0.40859 0.7351 0.57036 0.0
H2433 H 0.50586 0.67642 0.57774 0.0
H2434 H 0.59606 0.86562 0.58214 0.0
H2435 H 0.54643 0.82649 0.58493 0.0
C2436 C 0.10563 0.65491 0.32933 0.0
C2437 C 0.09288 0.62411 0.32574 0.0
C2438 C 0.08311 0.68354 0.33071 0.0
C2439 C 0.98877 0.70969 0.33182 0.0
H2440 H 0.02344 0.80136 0.32526 0.0
C2441 C 0.89574 0.82583 0.32494 0.0
C2442 C 0.90651 0.86037 0.3268 0.0
C2443 C 0.91867 0.79729 0.32596 0.0
C2444 C 0.01349 0.77612 0.32726 0.0
H2445 H 0.04602 0.59871 0.3211 0.0
H2446 H 0.00686 0.64859 0.32348 0.0
H2447 H 0.0631 0.75063 0.32517 0.0
H2448 H 0.94967 0.89187 0.33135 0.0
H2449 H 0.98966 0.8419 0.3332 0.0
H2450 H 0.93899 0.73507 0.33378 0.0
C2451 C 0.03424 0.65059 0.32526 0.0
C2452 C 0.03625 0.74701 0.3272 0.0
C2453 C 0.05678 0.62204 0.32385 0.0
C2454 C 0.94059 0.86562 0.32983 0.0
C2455 C 0.96356 0.837 0.33086 0.0
C2456 C 0.96603 0.73882 0.3319 0.0
C2457 C 0.04728 0.68191 0.32857 0.0
C2458 C 0.02399 0.71334 0.32935 0.0
C2459 C 0.95297 0.80253 0.32888 0.0
C2460 C 0.97794 0.77227 0.32949 0.0
H2461 H 0.13319 0.65731 0.33092 0.0
H2462 H 0.09382 0.70714 0.33336 0.0
H2463 H 0.97869 0.6842 0.33362 0.0
H2464 H 0.86981 0.82079 0.32254 0.0
H2465 H 0.90982 0.77122 0.32425 0.0
C2466 C 0.08704 0.35398 0.07889 0.0
C2467 C 0.11867 0.33884 0.07618 0.0
C2468 C 0.05737 0.3329 0.08029 0.0
C2469 C 0.02766 0.24067 0.08327 0.0
H2470 H 0.94044 0.2736 0.07395 0.0
C2471 C 0.9109 0.14763 0.07667 0.0
C2472 C 0.87619 0.16079 0.07712 0.0
C2473 C 0.93985 0.16995 0.0778 0.0
C2474 C 0.96431 0.26422 0.07673 0.0
H2475 H 0.14435 0.28944 0.07316 0.0
H2476 H 0.0926 0.25271 0.07562 0.0
H2477 H 0.99242 0.31148 0.07384 0.0
H2478 H 0.8447 0.20752 0.07944 0.0
H2479 H 0.89526 0.24639 0.08157 0.0
H2480 H -0.00034 0.19323 0.08609 0.0
C2481 C 0.09078 0.28088 0.07668 0.0
C2482 C 0.99418 0.28597 0.07665 0.0
C2483 C 0.1204 0.30198 0.07523 0.0
C2484 C 0.87109 0.19658 0.07899 0.0
C2485 C 0.9001 0.21891 0.08017 0.0
C2486 C 0.99771 0.21898 0.08339 0.0
C2487 C 0.05873 0.2962 0.07907 0.0
C2488 C 0.02633 0.27423 0.07981 0.0
C2489 C 0.93486 0.206 0.07946 0.0
C2490 C 0.96581 0.23024 0.08001 0.0
H2491 H 0.08478 0.38226 0.0797 0.0
H2492 H 0.03317 0.34542 0.08222 0.0
H2493 H 0.05194 0.23109 0.08584 0.0
H2494 H 0.91586 0.12029 0.07517 0.0
H2495 H 0.96617 0.15914 0.07709 0.0
C2496 C 0.27571 0.07519 0.3575 0.0
C2497 C 0.29859 0.05755 0.3524 0.0
C2498 C 0.28268 0.07581 0.36541 0.0
C2499 C 0.32149 0.02343 0.38052 0.0
H2500 H 0.31986 0.10925 0.39274 0.0
C2501 C 0.34055 0.01694 0.41341 0.0
C2502 C 0.32138 0.04064 0.41802 0.0
C2503 C 0.34212 0.02139 0.40542 0.0
C2504 C 0.31991 0.08493 0.38946 0.0
H2505 H 0.34684 0.02712 0.35153 0.0
H2506 H 0.35858 0.02716 0.36549 0.0
H2507 H 0.31431 0.11278 0.37874 0.0
H2508 H 0.28919 0.0878 0.41797 0.0
H2509 H 0.29021 0.09488 0.40396 0.0
H2510 H 0.32489 0.99517 0.39113 0.0
C2511 C 0.33551 0.04089 0.36331 0.0
C2512 C 0.31704 0.08706 0.38142 0.0
C2513 C 0.32894 0.04098 0.35535 0.0
C2514 C 0.30436 0.06938 0.41451 0.0
C2515 C 0.30517 0.07342 0.40648 0.0
C2516 C 0.32362 0.02119 0.38855 0.0
C2517 C 0.31232 0.05818 0.36841 0.0
C2518 C 0.3177 0.05631 0.37688 0.0
C2519 C 0.32372 0.04918 0.40179 0.0
C2520 C 0.32275 0.0519 0.39317 0.0
H2521 H 0.25231 0.08841 0.35535 0.0
H2522 H 0.26428 0.08913 0.36922 0.0
H2523 H 0.32153 -0.00072 0.37716 0.0
H2524 H 0.35431 0.99485 0.41602 0.0
H2525 H 0.35762 0.00275 0.4021 0.0
C2526 C 0.15879 0.02643 0.6086 0.0
C2527 C 0.17444 0.04926 0.60319 0.0
C2528 C 0.15947 0.0344 0.61646 0.0
C2529 C 0.21278 0.08166 0.63063 0.0
H2530 H 0.13482 0.06018 0.64441 0.0
C2531 C 0.23333 0.05532 0.66292 0.0
C2532 C 0.20981 0.07078 0.66823 0.0
C2533 C 0.22683 0.05698 0.655 0.0
C2534 C 0.1567 0.06668 0.64063 0.0
H2535 H 0.20214 0.0989 0.60176 0.0
H2536 H 0.20359 0.11288 0.61557 0.0
H2537 H 0.12606 0.05703 0.63044 0.0
H2538 H 0.16047 0.09978 0.66926 0.0
H2539 H 0.14878 0.10194 0.6554 0.0
H2540 H 0.24364 0.09056 0.6408 0.0
C2541 C 0.19083 0.08873 0.6137 0.0
C2542 C 0.15177 0.06463 0.63264 0.0
C2543 C 0.1898 0.08089 0.6058 0.0
C2544 C 0.17907 0.0873 0.66538 0.0
C2545 C 0.1724 0.08868 0.65743 0.0
C2546 C 0.21778 0.08341 0.63861 0.0
C2547 C 0.17606 0.0653 0.61912 0.0
C2548 C 0.17994 0.0715 0.62755 0.0
C2549 C 0.19645 0.07386 0.65216 0.0
C2550 C 0.19 0.07529 0.6437 0.0
H2551 H 0.14634 0.0021 0.60675 0.0
H2552 H 0.14813 0.01563 0.62047 0.0
H2553 H 0.23508 0.08685 0.62688 0.0
H2554 H 0.25681 0.04161 0.66484 0.0
H2555 H 0.24546 0.04459 0.6511 0.0
C2556 C 0.16422 0.9397 0.85563 0.0
C2557 C 0.1941 0.92272 0.85256 0.0
C2558 C 0.15864 0.94048 0.86363 0.0
C2559 C 0.17937 0.89628 0.88186 0.0
H2560 H 0.17313 0.98938 0.89108 0.0
C2561 C 0.19427 0.91757 0.91485 0.0
C2562 C 0.17742 0.94668 0.91825 0.0
C2563 C 0.19332 0.91281 0.90683 0.0
C2564 C 0.17399 0.96304 0.88865 0.0
H2565 H 0.24055 0.89184 0.85535 0.0
H2566 H 0.23028 0.89225 0.86929 0.0
H2567 H 0.17483 0.98353 0.87713 0.0
H2568 H 0.14471 0.99246 0.91607 0.0
H2569 H 0.14123 0.98338 0.9022 0.0
H2570 H 0.17772 0.87551 0.89333 0.0
C2571 C 0.21146 0.90534 0.86555 0.0
C2572 C 0.17515 0.9598 0.88062 0.0
C2573 C 0.21744 0.90527 0.85759 0.0
C2574 C 0.15841 0.97013 0.91355 0.0
C2575 C 0.15672 0.96498 0.90558 0.0
C2576 C 0.17745 0.89943 0.88991 0.0
C2577 C 0.1824 0.92352 0.86866 0.0
C2578 C 0.17826 0.92645 0.87715 0.0
C2579 C 0.17477 0.93668 0.90205 0.0
C2580 C 0.17515 0.93292 0.89344 0.0
H2581 H 0.146 0.9535 0.85187 0.0
H2582 H 0.13599 0.95462 0.86589 0.0
H2583 H 0.18162 0.87022 0.87932 0.0
H2584 H 0.20928 0.89928 0.91837 0.0
H2585 H 0.20803 0.89098 0.90439 0.0
C2586 C 0.27605 0.96425 0.10666 0.0
C2587 C 0.30061 0.94621 0.10202 0.0
C2588 C 0.27595 0.95988 0.11465 0.0
C2589 C 0.33252 0.93324 0.131 0.0
H2590 H 0.2432 0.93499 0.14198 0.0
C2591 C 0.31863 0.92183 0.16457 0.0
C2592 C 0.29489 0.94601 0.16795 0.0
C2593 C 0.32103 0.91873 0.15652 0.0
C2594 C 0.26839 0.93461 0.139 0.0
H2595 H 0.3441 0.90888 0.10218 0.0
H2596 H 0.34361 0.90076 0.1162 0.0
H2597 H 0.2434 0.93343 0.12795 0.0
H2598 H 0.25663 0.98721 0.16543 0.0
H2599 H 0.26045 0.98139 0.15152 0.0
H2600 H 0.35735 0.93456 0.14214 0.0
C2601 C 0.32464 0.91865 0.11362 0.0
C2602 C 0.26852 0.93376 0.13095 0.0
C2603 C 0.32469 0.92301 0.10558 0.0
C2604 C 0.2745 0.96764 0.16308 0.0
C2605 C 0.27671 0.96436 0.15508 0.0
C2606 C 0.33236 0.93387 0.13909 0.0
C2607 C 0.30033 0.9372 0.11826 0.0
C2608 C 0.30055 0.93396 0.12683 0.0
C2609 C 0.29958 0.93955 0.1517 0.0
C2610 C 0.30026 0.93542 0.14317 0.0
H2611 H 0.25682 0.98194 0.10413 0.0
H2612 H 0.25715 0.97499 0.11802 0.0
H2613 H 0.35768 0.93363 0.12801 0.0
H2614 H 0.3346 0.90458 0.16813 0.0
H2615 H 0.33889 0.89934 0.15408 0.0
C2616 C 0.71879 0.94676 0.66225 0.0
C2617 C 0.69789 0.92593 0.66719 0.0
C2618 C 0.71612 0.94348 0.65426 0.0
C2619 C 0.65902 0.91474 0.63832 0.0
H2620 H 0.74767 0.91436 0.62706 0.0
C2621 C 0.66676 0.9097 0.60464 0.0
C2622 C 0.69017 0.9345 0.6014 0.0
C2623 C 0.66684 0.90328 0.61262 0.0
C2624 C 0.72264 0.91454 0.6301 0.0
H2625 H 0.65671 0.88608 0.66749 0.0
H2626 H 0.6517 0.88067 0.65342 0.0
H2627 H 0.74827 0.91397 0.64109 0.0
H2628 H 0.73292 0.97078 0.60395 0.0
H2629 H 0.73305 0.95985 0.61774 0.0
H2630 H 0.63348 0.91625 0.62726 0.0
C2631 C 0.67034 0.89943 0.65582 0.0
C2632 C 0.72299 0.91433 0.63816 0.0
C2633 C 0.67316 0.90259 0.66387 0.0
C2634 C 0.71429 0.95183 0.60627 0.0
C2635 C 0.71459 0.94525 0.61418 0.0
C2636 C 0.65867 0.91504 0.63022 0.0
C2637 C 0.69233 0.9194 0.65093 0.0
C2638 C 0.69125 0.9154 0.64237 0.0
C2639 C 0.69071 0.92115 0.61749 0.0
C2640 C 0.69054 0.91592 0.62602 0.0
H2641 H 0.73738 0.96578 0.66454 0.0
H2642 H 0.73277 0.95997 0.65067 0.0
H2643 H 0.63413 0.91561 0.6414 0.0
H2644 H 0.64775 0.8961 0.60103 0.0
H2645 H 0.64824 0.8844 0.61498 0.0
C2646 C 0.77518 0.89458 0.35574 0.0
C2647 C 0.79533 0.91551 0.35069 0.0
C2648 C 0.78069 0.89619 0.3637 0.0
C2649 C 0.80789 0.95681 0.3787 0.0
H2650 H 0.81703 0.87363 0.39161 0.0
C2651 C 0.82402 0.97102 0.41156 0.0
C2652 C 0.80817 0.9457 0.41636 0.0
C2653 C 0.82619 0.96563 0.4036 0.0
C2654 C 0.81399 0.89717 0.38813 0.0
H2655 H 0.83734 0.95418 0.34998 0.0
H2656 H 0.84646 0.95779 0.364 0.0
H2657 H 0.81402 0.86715 0.37761 0.0
H2658 H 0.78259 0.89467 0.41665 0.0
H2659 H 0.7847 0.88566 0.40268 0.0
H2660 H 0.80587 0.9869 0.38909 0.0
C2661 C 0.82665 0.93985 0.36175 0.0
C2662 C 0.81256 0.89339 0.38009 0.0
C2663 C 0.82162 0.93766 0.35375 0.0
C2664 C 0.7951 0.91446 0.41306 0.0
C2665 C 0.79653 0.90934 0.40505 0.0
C2666 C 0.80862 0.96058 0.38672 0.0
C2667 C 0.80604 0.91929 0.3668 0.0
C2668 C 0.80948 0.92319 0.3753 0.0
C2669 C 0.81177 0.93508 0.40018 0.0
C2670 C 0.81169 0.93083 0.39158 0.0
H2671 H 0.75494 0.87709 0.35351 0.0
H2672 H 0.7643 0.88021 0.36746 0.0
H2673 H 0.80491 0.98019 0.37515 0.0
H2674 H 0.83487 0.99505 0.41399 0.0
H2675 H 0.83914 0.98562 0.40015 0.0
C2676 C 0.80339 0.07827 0.10451 0.0
C2677 C 0.81791 0.04768 0.10119 0.0
C2678 C 0.80445 0.08335 0.11251 0.0
C2679 C 0.81826 0.03303 0.13087 0.0
H2680 H 0.8208 0.12691 0.13982 0.0
C2681 C 0.82767 0.05739 0.16387 0.0
C2682 C 0.80074 0.07931 0.16675 0.0
C2683 C 0.83365 0.05497 0.1559 0.0
C2684 C 0.82015 0.10053 0.13739 0.0
H2685 H 0.84653 -0.00061 0.10357 0.0
H2686 H 0.84987 0.00874 0.11744 0.0
H2687 H 0.82438 0.12 0.12585 0.0
H2688 H 0.76021 0.11711 0.16364 0.0
H2689 H 0.77117 0.11359 0.14976 0.0
H2690 H 0.81464 0.01374 0.14247 0.0
C2691 C 0.83626 0.02824 0.11397 0.0
C2692 C 0.8219 0.09651 0.12937 0.0
C2693 C 0.83456 0.02289 0.106 0.0
C2694 C 0.78095 0.09984 0.16156 0.0
C2695 C 0.78738 0.09799 0.15363 0.0
C2696 C 0.81714 0.03706 0.13889 0.0
C2697 C 0.82068 0.05824 0.11738 0.0
C2698 C 0.82054 0.06269 0.12597 0.0
C2699 C 0.81333 0.07506 0.1507 0.0
C2700 C 0.81762 0.07085 0.14223 0.0
H2701 H 0.79019 0.09765 0.10093 0.0
H2702 H 0.79166 0.10653 0.11488 0.0
H2703 H 0.81635 0.00657 0.12853 0.0
H2704 H 0.84312 0.04118 0.16776 0.0
H2705 H 0.85391 0.03718 0.1538 0.0
C2706 C 0.73111 0.08404 0.85697 0.0
C2707 C 0.70416 0.07644 0.85163 0.0
C2708 C 0.72378 0.08647 0.86483 0.0
C2709 C 0.66004 0.05585 0.87939 0.0
H2710 H 0.7133 0.11918 0.89261 0.0
C2711 C 0.68136 0.02775 0.9116 0.0
C2712 C 0.68346 0.05593 0.91688 0.0
C2713 C 0.67842 0.03406 0.9037 0.0
C2714 C 0.69774 0.10166 0.88902 0.0
H2715 H 0.64801 0.06654 0.8504 0.0
H2716 H 0.63499 0.07124 0.8642 0.0
H2717 H 0.71754 0.12516 0.87866 0.0
H2718 H 0.6832 0.11303 0.91792 0.0
H2719 H 0.67749 0.12414 0.90409 0.0
H2720 H 0.64022 0.03236 0.88975 0.0
C2721 C 0.66198 0.07487 0.86226 0.0
C2722 C 0.70051 0.10481 0.881 0.0
C2723 C 0.66935 0.07247 0.85435 0.0
C2724 C 0.68156 0.09071 0.91404 0.0
C2725 C 0.6786 0.09706 0.90609 0.0
C2726 C 0.65717 0.05278 0.88741 0.0
C2727 C 0.68922 0.08152 0.86761 0.0
C2728 C 0.68245 0.08133 0.87609 0.0
C2729 C 0.67731 0.06877 0.90082 0.0
C2730 C 0.67672 0.07503 0.89233 0.0
H2731 H 0.7581 0.0879 0.85508 0.0
H2732 H 0.74555 0.09118 0.86876 0.0
H2733 H 0.64586 0.0372 0.8758 0.0
H2734 H 0.68207 0.00062 0.91356 0.0
H2735 H 0.67798 0.01159 0.89983 0.0
C2736 C 0.80987 0.55637 0.85045 0.0
C2737 C 0.77974 0.57337 0.84749 0.0
C2738 C 0.81617 0.55561 0.85841 0.0
C2739 C 0.79624 0.60065 0.87669 0.0
H2740 H 0.81161 0.50894 0.88605 0.0
C2741 C 0.79155 0.57975 0.90989 0.0
C2742 C 0.81195 0.55243 0.91308 0.0
C2743 C 0.78997 0.58437 0.90187 0.0
C2744 C 0.80813 0.53495 0.88357 0.0
H2745 H 0.73344 0.60411 0.85051 0.0
H2746 H 0.74477 0.60336 0.8644 0.0
H2747 H 0.80593 0.5136 0.87213 0.0
H2748 H 0.84838 0.51002 0.91048 0.0
H2749 H 0.84724 0.51896 0.89659 0.0
H2750 H 0.79912 0.62226 0.88809 0.0
C2751 C 0.7633 0.59033 0.86057 0.0
C2752 C 0.80469 0.53751 0.87556 0.0
C2753 C 0.75666 0.5905 0.85264 0.0
C2754 C 0.83199 0.53091 0.90814 0.0
C2755 C 0.83104 0.53592 0.90016 0.0
C2756 C 0.8003 0.59822 0.88471 0.0
C2757 C 0.79286 0.57249 0.86356 0.0
C2758 C 0.79843 0.57031 0.87204 0.0
C2759 C 0.80933 0.56214 0.89687 0.0
C2760 C 0.80607 0.56526 0.88829 0.0
H2761 H 0.82798 0.54284 0.84662 0.0
H2762 H 0.83925 0.54179 0.86056 0.0
H2763 H 0.79165 0.62634 0.87412 0.0
H2764 H 0.77571 0.59651 0.9136 0.0
H2765 H 0.77263 0.60462 0.8996 0.0
C2766 C 0.69132 0.57792 0.10122 0.0
C2767 C 0.67793 0.54709 0.0978 0.0
C2768 C 0.68934 0.58273 0.10923 0.0
C2769 C 0.67455 0.53144 0.12747 0.0
H2770 H 0.67056 0.62496 0.13657 0.0
C2771 C 0.66332 0.5544 0.16051 0.0
C2772 C 0.69056 0.57572 0.16344 0.0
C2773 C 0.6573 0.5526 0.15253 0.0
C2774 C 0.67155 0.59868 0.13409 0.0
H2775 H 0.65029 0.49805 0.09998 0.0
H2776 H 0.64521 0.50694 0.11383 0.0
H2777 H 0.66811 0.61854 0.12257 0.0
H2778 H 0.73155 0.61318 0.16046 0.0
H2779 H 0.7204 0.61094 0.14657 0.0
H2780 H 0.67736 0.51177 0.13905 0.0
C2781 C 0.65873 0.52686 0.11046 0.0
C2782 C 0.67049 0.59493 0.12606 0.0
C2783 C 0.6614 0.52177 0.10249 0.0
C2784 C 0.71049 0.59646 0.15832 0.0
C2785 C 0.70399 0.59529 0.15039 0.0
C2786 C 0.67493 0.5352 0.13549 0.0
C2787 C 0.67324 0.55711 0.114 0.0
C2788 C 0.67247 0.56125 0.1226 0.0
C2789 C 0.67787 0.57278 0.14738 0.0
C2790 C 0.67392 0.56886 0.13889 0.0
H2791 H 0.70439 0.59771 0.09773 0.0
H2792 H 0.70135 0.60614 0.11169 0.0
H2793 H 0.67695 0.50508 0.1251 0.0
H2794 H 0.64782 0.53802 0.16435 0.0
H2795 H 0.63692 0.5351 0.15036 0.0
C2796 C 0.64785 0.47187 0.40824 0.0
C2797 C 0.66796 0.45029 0.41315 0.0
C2798 C 0.64699 0.46555 0.4003 0.0
C2799 C 0.67188 0.39938 0.38511 0.0
H2800 H 0.6686 0.48201 0.37189 0.0
C2801 C 0.71491 0.40052 0.35305 0.0
C2802 C 0.69316 0.41843 0.34776 0.0
C2803 C 0.70773 0.40167 0.36095 0.0
C2804 C 0.66906 0.45865 0.3755 0.0
H2805 H 0.70247 0.40482 0.41366 0.0
H2806 H 0.70235 0.39437 0.39974 0.0
H2807 H 0.66484 0.48925 0.3858 0.0
H2808 H 0.6465 0.45106 0.34657 0.0
H2809 H 0.63423 0.45383 0.36048 0.0
H2810 H 0.67796 0.36913 0.37472 0.0
C2811 C 0.68633 0.41569 0.40201 0.0
C2812 C 0.66677 0.46271 0.3835 0.0
C2813 C 0.68659 0.42167 0.40999 0.0
C2814 C 0.66355 0.43692 0.35053 0.0
C2815 C 0.65671 0.43865 0.35847 0.0
C2816 C 0.67477 0.39542 0.3771 0.0
C2817 C 0.66686 0.43787 0.39702 0.0
C2818 C 0.66824 0.43316 0.38845 0.0
C2819 C 0.67894 0.42126 0.36376 0.0
C2820 C 0.67351 0.42503 0.37222 0.0
H2821 H 0.63277 0.49376 0.41056 0.0
H2822 H 0.63081 0.4826 0.39674 0.0
H2823 H 0.67247 0.3759 0.38867 0.0
H2824 H 0.73772 0.38581 0.35106 0.0
H2825 H 0.72544 0.38822 0.36489 0.0
C2826 C 0.83859 0.44925 0.65988 0.0
C2827 C 0.8106 0.42912 0.66288 0.0
C2828 C 0.84488 0.45003 0.6519 0.0
C2829 C 0.82985 0.40252 0.63367 0.0
H2830 H 0.82715 0.49526 0.62423 0.0
C2831 C 0.8114 0.42053 0.60067 0.0
C2832 C 0.82528 0.45087 0.59714 0.0
C2833 C 0.8133 0.4163 0.6087 0.0
C2834 C 0.82881 0.46909 0.62672 0.0
H2835 H 0.76852 0.39268 0.66002 0.0
H2836 H 0.78012 0.39313 0.64613 0.0
H2837 H 0.82619 0.49004 0.6382 0.0
H2838 H 0.85379 0.49955 0.59914 0.0
H2839 H 0.85887 0.49161 0.61302 0.0
H2840 H 0.83311 0.38137 0.62225 0.0
C2841 C 0.79691 0.40864 0.6499 0.0
C2842 C 0.82811 0.46619 0.63476 0.0
C2843 C 0.79015 0.40851 0.65782 0.0
C2844 C 0.84234 0.47619 0.60174 0.0
C2845 C 0.84497 0.47167 0.60972 0.0
C2846 C 0.83126 0.40539 0.62562 0.0
C2847 C 0.82383 0.42998 0.64683 0.0
C2848 C 0.82813 0.43289 0.63833 0.0
C2849 C 0.82982 0.44204 0.61337 0.0
C2850 C 0.83027 0.43874 0.622 0.0
H2851 H 0.85452 0.4655 0.66367 0.0
H2852 H 0.86588 0.46665 0.64968 0.0
H2853 H 0.83006 0.37649 0.63628 0.0
H2854 H 0.79791 0.40076 0.59724 0.0
H2855 H 0.80082 0.39334 0.61123 0.0
C2856 C 0.22118 0.46717 0.16283 0.0
C2857 C 0.20154 0.44501 0.16774 0.0
C2858 C 0.21913 0.46351 0.15484 0.0
C2859 C 0.16475 0.43032 0.13888 0.0
H2860 H 0.25369 0.43381 0.12776 0.0
C2861 C 0.17319 0.42093 0.10534 0.0
C2862 C 0.19571 0.44593 0.10189 0.0
C2863 C 0.17354 0.41592 0.11337 0.0
C2864 C 0.22858 0.43297 0.13076 0.0
H2865 H 0.16332 0.40225 0.16799 0.0
H2866 H 0.15933 0.39629 0.15394 0.0
H2867 H 0.25378 0.43528 0.14179 0.0
H2868 H 0.2372 0.4841 0.10411 0.0
H2869 H 0.23755 0.47584 0.11798 0.0
H2870 H 0.13954 0.42899 0.1278 0.0
C2871 C 0.17646 0.41639 0.15636 0.0
C2872 C 0.22864 0.4338 0.13881 0.0
C2873 C 0.17869 0.4199 0.1644 0.0
C2874 C 0.2192 0.46498 0.10659 0.0
C2875 C 0.21968 0.45991 0.11456 0.0
C2876 C 0.16467 0.42967 0.13079 0.0
C2877 C 0.1972 0.43776 0.1515 0.0
C2878 C 0.19674 0.43332 0.14297 0.0
C2879 C 0.19671 0.43555 0.11807 0.0
C2880 C 0.19659 0.43184 0.12663 0.0
H2881 H 0.23833 0.48742 0.16516 0.0
H2882 H 0.23479 0.48099 0.15126 0.0
H2883 H 0.13974 0.42998 0.14193 0.0
H2884 H 0.15465 0.406 0.10188 0.0
H2885 H 0.15568 0.39677 0.11589 0.0
C2886 C 0.27987 0.41164 0.85659 0.0
C2887 C 0.30337 0.42983 0.85173 0.0
C2888 C 0.28528 0.41097 0.86456 0.0
C2889 C 0.31895 0.46433 0.88004 0.0
H2890 H 0.31756 0.37864 0.8923 0.0
C2891 C 0.33053 0.47185 0.91313 0.0
C2892 C 0.31201 0.44708 0.9176 0.0
C2893 C 0.33358 0.46761 0.90515 0.0
C2894 C 0.31747 0.40293 0.88901 0.0
H2895 H 0.35114 0.46114 0.85133 0.0
H2896 H 0.36008 0.46109 0.8654 0.0
H2897 H 0.31538 0.37479 0.87825 0.0
H2898 H 0.28247 0.39827 0.91728 0.0
H2899 H 0.28593 0.3915 0.90328 0.0
H2900 H 0.31874 0.49282 0.89065 0.0
C2901 C 0.33779 0.4469 0.86299 0.0
C2902 C 0.31657 0.40062 0.88094 0.0
C2903 C 0.33283 0.44682 0.85497 0.0
C2904 C 0.29705 0.41757 0.91395 0.0
C2905 C 0.2993 0.41371 0.90591 0.0
C2906 C 0.31904 0.46673 0.8881 0.0
C2907 C 0.31388 0.42917 0.86786 0.0
C2908 C 0.31725 0.4313 0.87639 0.0
C2909 C 0.31733 0.43891 0.90137 0.0
C2910 C 0.31824 0.43608 0.89273 0.0
H2911 H 0.25708 0.39821 0.8542 0.0
H2912 H 0.26634 0.3973 0.86818 0.0
H2913 H 0.31891 0.48843 0.87667 0.0
H2914 H 0.34276 0.49455 0.91585 0.0
H2915 H 0.34867 0.48705 0.90197 0.0
C2916 C 0.29623 0.57431 0.60545 0.0
C2917 C 0.31635 0.54654 0.60237 0.0
C2918 C 0.29489 0.57969 0.61345 0.0
C2919 C 0.31257 0.53136 0.63187 0.0
H2920 H 0.29635 0.62336 0.64107 0.0
C2921 C 0.3124 0.55402 0.66492 0.0
C2922 C 0.28203 0.57108 0.66773 0.0
C2923 C 0.31939 0.55316 0.65698 0.0
C2924 C 0.30089 0.59751 0.63857 0.0
H2925 H 0.35259 0.50417 0.60509 0.0
H2926 H 0.35194 0.51446 0.61894 0.0
H2927 H 0.30434 0.61849 0.62713 0.0
H2928 H 0.23607 0.60191 0.66452 0.0
H2929 H 0.2486 0.60095 0.65068 0.0
H2930 H 0.30971 0.51062 0.64335 0.0
C2931 C 0.33576 0.53119 0.61531 0.0
C2932 C 0.30525 0.59463 0.63056 0.0
C2933 C 0.33646 0.52541 0.60736 0.0
C2934 C 0.25946 0.58825 0.66249 0.0
C2935 C 0.26678 0.58796 0.65459 0.0
C2936 C 0.30883 0.53436 0.63987 0.0
C2937 C 0.31421 0.55778 0.61852 0.0
C2938 C 0.31088 0.56143 0.62708 0.0
C2939 C 0.29653 0.56998 0.65174 0.0
C2940 C 0.30264 0.56739 0.64329 0.0
H2941 H 0.28034 0.59076 0.60169 0.0
H2942 H 0.27768 0.60021 0.61565 0.0
H2943 H 0.31592 0.50519 0.62946 0.0
H2944 H 0.33012 0.54047 0.66883 0.0
H2945 H 0.3426 0.53921 0.65494 0.0
C2946 C 0.14587 0.53141 0.4132 0.0
C2947 C 0.16887 0.55061 0.41796 0.0
C2948 C 0.14589 0.53656 0.40523 0.0
C2949 C 0.18163 0.59476 0.38948 0.0
H2950 H 0.16558 0.51074 0.37713 0.0
C2951 C 0.22476 0.57828 0.35754 0.0
C2952 C 0.19981 0.56388 0.35242 0.0
C2953 C 0.21767 0.58011 0.36545 0.0
C2954 C 0.16971 0.53453 0.3805 0.0
H2955 H 0.20943 0.59074 0.41822 0.0
H2956 H 0.21097 0.59886 0.40422 0.0
H2957 H 0.1601 0.50746 0.39107 0.0
H2958 H 0.14774 0.54054 0.35152 0.0
H2959 H 0.1356 0.54284 0.36543 0.0
H2960 H 0.19318 0.62107 0.3788 0.0
C2961 C 0.19196 0.58052 0.40661 0.0
C2962 C 0.16639 0.5328 0.38852 0.0
C2963 C 0.19128 0.57588 0.41464 0.0
C2964 C 0.16733 0.55187 0.35534 0.0
C2965 C 0.1605 0.55304 0.36329 0.0
C2966 C 0.18561 0.59627 0.38145 0.0
C2967 C 0.16969 0.56041 0.40177 0.0
C2968 C 0.1723 0.56287 0.39316 0.0
C2969 C 0.18573 0.56699 0.36842 0.0
C2970 C 0.17972 0.56614 0.37689 0.0
H2971 H 0.12808 0.51205 0.41568 0.0
H2972 H 0.12748 0.52137 0.40178 0.0
H2973 H 0.18583 0.61867 0.39279 0.0
H2974 H 0.24986 0.58804 0.35542 0.0
H2975 H 0.23767 0.59078 0.36927 0.0
C2976 C 0.33781 0.91541 0.23583 0.0
C2977 C 0.33864 0.93816 0.22941 0.0
C2978 C 0.337 0.92901 0.24334 0.0
C2979 C 0.31439 0.00986 0.25431 0.0
H2980 H 0.37043 0.96671 0.2705 0.0
C2981 C 0.33157 0.07539 0.28415 0.0
C2982 C 0.33144 0.05355 0.29072 0.0
C2983 C 0.33215 0.06081 0.27674 0.0
C2984 C 0.35426 0.97882 0.26607 0.0
H2985 H 0.34021 0.99324 0.22594 0.0
H2986 H 0.33869 0.01687 0.23899 0.0
H2987 H 0.37229 0.94232 0.25747 0.0
H2988 H 0.33208 -0.00102 0.29456 0.0
H2989 H 0.33236 0.97356 0.28164 0.0
H2990 H 0.29629 0.0463 0.26289 0.0
C2991 C 0.33806 0.98847 0.23822 0.0
C2992 C 0.35536 0.96484 0.2586 0.0
C2993 C 0.33892 0.97488 0.23071 0.0
C2994 C 0.33181 0.01666 0.28966 0.0
C2995 C 0.3324 0.00206 0.28224 0.0
C2996 C 0.31324 0.02379 0.26178 0.0
C2997 C 0.33695 0.96572 0.24463 0.0
C2998 C 0.33555 0.98028 0.25261 0.0
C2999 C 0.33257 0.02396 0.27568 0.0
C3000 C 0.33328 0.00857 0.26775 0.0
H3001 H 0.33708 0.88704 0.23507 0.0
H3002 H 0.33571 0.91072 0.24813 0.0
H3003 H 0.2983 0.02204 0.24988 0.0
H3004 H 0.33092 0.10386 0.28471 0.0
H3005 H 0.3327 0.07852 0.27184 0.0
C3006 C 0.23769 0.07866 0.54081 0.0
C3007 C 0.20244 0.06755 0.54161 0.0
C3008 C 0.25418 0.07794 0.53357 0.0
C3009 C 0.25188 0.03596 0.51457 0.0
H3010 H 0.28811 0.12467 0.50667 0.0
C3011 C 0.28197 0.05571 0.48218 0.0
C3012 C 0.30818 0.07997 0.48 0.0
C3013 C 0.27253 0.05193 0.48995 0.0
C3014 C 0.27892 0.0994 0.5088 0.0
H3015 H 0.1573 0.0456 0.53561 0.0
H3016 H 0.18634 0.04346 0.52301 0.0
H3017 H 0.26671 0.12136 0.5199 0.0
H3018 H 0.3462 0.11807 0.48419 0.0
H3019 H 0.33116 0.11042 0.49776 0.0
H3020 H 0.2645 0.01362 0.50358 0.0
C3021 C 0.20107 0.05313 0.52794 0.0
C3022 C 0.2665 0.09763 0.51639 0.0
C3023 C 0.1844 0.05458 0.53512 0.0
C3024 C 0.32564 0.09947 0.48574 0.0
C3025 C 0.31675 0.09521 0.49351 0.0
C3026 C 0.26492 0.0375 0.50702 0.0
C3027 C 0.23593 0.06526 0.52707 0.0
C3028 C 0.25232 0.06607 0.5193 0.0
C3029 C 0.28956 0.07188 0.49573 0.0
C3030 C 0.27807 0.06942 0.50397 0.0
H3031 H 0.25202 0.08889 0.54574 0.0
H3032 H 0.28111 0.08739 0.53304 0.0
H3033 H 0.2413 0.01122 0.5167 0.0
H3034 H 0.26779 0.04073 0.47785 0.0
H3035 H 0.25104 0.03418 0.49135 0.0
C3036 C 0.18516 0.96994 0.78894 0.0
C3037 C 0.16436 0.94006 0.79048 0.0
C3038 C 0.18878 0.98245 0.78138 0.0
C3039 C 0.14541 0.97592 0.76204 0.0
H3040 H 0.22945 0.02587 0.75532 0.0
C3041 C 0.1681 0.02168 0.73046 0.0
C3042 C 0.17644 0.05769 0.72968 0.0
C3043 C 0.16831 0.0056 0.73774 0.0
C3044 C 0.20582 0.01198 0.75713 0.0
H3045 H 0.13244 0.89886 0.78538 0.0
H3046 H 0.14003 0.91936 0.77216 0.0
H3047 H 0.22765 -1e-05 0.7682 0.0
H3048 H 0.19265 0.10481 0.73583 0.0
H3049 H 0.19374 0.07656 0.74853 0.0
H3050 H 0.12409 0.98735 0.75086 0.0
C3051 C 0.15248 0.9342 0.77675 0.0
C3052 C 0.20463 0.99732 0.76454 0.0
C3053 C 0.14833 0.92217 0.78432 0.0
C3054 C 0.18577 0.07711 0.73629 0.0
C3055 C 0.18668 0.0609 0.74353 0.0
C3056 C 0.1469 0.99001 0.75459 0.0
C3057 C 0.17216 0.96497 0.77517 0.0
C3058 C 0.17425 0.97935 0.76714 0.0
C3059 C 0.17763 0.02508 0.74434 0.0
C3060 C 0.17696 0.00849 0.75209 0.0
H3061 H 0.19739 0.98445 0.79361 0.0
H3062 H 0.20367 0.00651 0.78046 0.0
H3063 H 0.1212 0.96307 0.76383 0.0
H3064 H 0.16067 0.0062 0.72546 0.0
H3065 H 0.16133 0.97792 0.73821 0.0
C3066 C 0.274 0.90916 0.03945 0.0
C3067 C 0.31087 0.90941 0.04054 0.0
C3068 C 0.25954 0.90852 0.03202 0.0
C3069 C 0.28114 0.92736 0.01155 0.0
H3070 H 0.19919 0.86874 1.00744 0.0
C3071 C 0.2274 0.90449 0.98062 0.0
C3072 C 0.19044 0.90438 0.97966 0.0
C3073 C 0.24242 0.90494 0.98801 0.0
C3074 C 0.22185 0.88556 1.0085 0.0
H3075 H 0.36134 0.90969 0.03459 0.0
H3076 H 0.3362 0.90792 0.02167 0.0
H3077 H 0.2245 0.87005 0.02036 0.0
H3078 H 0.14044 0.90538 0.9858 0.0
H3079 H 0.16653 0.90612 0.99862 0.0
H3080 H 0.27846 0.94286 0.99968 0.0
C3081 C 0.31841 0.90854 0.02657 0.0
C3082 C 0.23637 0.88632 0.01592 0.0
C3083 C 0.33287 0.90914 0.034 0.0
C3084 C 0.16895 0.9048 0.98629 0.0
C3085 C 0.18395 0.90523 0.99366 0.0
C3086 C 0.26662 0.92658 1.00413 0.0
C3087 C 0.28156 0.90816 0.02548 0.0
C3088 C 0.26616 0.90729 0.01755 0.0
C3089 C 0.22088 0.90527 0.99462 0.0
C3090 C 0.23673 0.90573 1.0025 0.0
H3091 H 0.2562 0.90901 0.04433 0.0
H3092 H 0.23104 0.90863 0.0314 0.0
H3093 H 0.30377 0.94421 0.01262 0.0
H3094 H 0.24479 0.90368 0.97567 0.0
H3095 H 0.27096 0.90447 0.98853 0.0
C3096 C 0.6931 0.07255 0.78331 0.0
C3097 C 0.68039 0.05515 0.78992 0.0
C3098 C 0.69298 0.05565 0.77614 0.0
C3099 C 0.64605 0.98924 0.76505 0.0
H3100 H 0.72892 0.98874 0.75188 0.0
C3101 C 0.64237 0.9211 0.73533 0.0
C3102 C 0.66105 0.93695 0.72925 0.0
C3103 C 0.64721 0.93251 0.74293 0.0
C3104 C 0.70534 0.98902 0.75542 0.0
H3105 H 0.65757 0.0065 0.7942 0.0
H3106 H 0.65651 0.97709 0.78157 0.0
H3107 H 0.73238 0.01484 0.76473 0.0
H3108 H 0.69951 0.97706 0.72633 0.0
H3109 H 0.70716 -0.00192 0.73952 0.0
H3110 H 0.61833 0.96512 0.75571 0.0
C3111 C 0.6669 0.00371 0.78199 0.0
C3112 C 0.70746 0.00379 0.76281 0.0
C3113 C 0.66768 0.0204 0.78921 0.0
C3114 C 0.68518 0.96406 0.73093 0.0
C3115 C 0.68956 0.97599 0.73852 0.0
C3116 C 0.64371 0.97503 0.75762 0.0
C3117 C 0.67955 0.0212 0.77539 0.0
C3118 C 0.67781 0.00414 0.76769 0.0
C3119 C 0.67033 0.96066 0.74463 0.0
C3120 C 0.67329 0.97477 0.75267 0.0
H3121 H 0.70335 0.09921 0.78371 0.0
H3122 H 0.70268 0.06982 0.77114 0.0
H3123 H 0.62266 0.98957 0.76866 0.0
H3124 H 0.62385 0.89992 0.73417 0.0
H3125 H 0.63257 0.91931 0.74745 0.0
C3126 C 0.77314 0.91569 0.47961 0.0
C3127 C 0.80988 0.91502 0.4783 0.0
C3128 C 0.75955 0.91606 0.48712 0.0
C3129 C 0.78259 0.89468 0.50735 0.0
H3130 H 0.70255 0.95485 0.51214 0.0
C3131 C 0.72921 0.91131 0.53858 0.0
C3132 C 0.69224 0.9126 0.53949 0.0
C3133 C 0.74448 0.91243 0.53121 0.0
C3134 C 0.72467 0.93757 0.51089 0.0
H3135 H 0.861 0.91467 0.484 0.0
H3136 H 0.8373 0.91509 0.49705 0.0
H3137 H 0.72702 0.95483 0.49914 0.0
H3138 H 0.64257 0.91677 0.53328 0.0
H3139 H 0.66896 0.91779 0.52054 0.0
H3140 H 0.78002 0.87716 0.51908 0.0
C3141 C 0.81899 0.91491 0.49225 0.0
C3142 C 0.73871 0.93759 0.50343 0.0
C3143 C 0.8326 0.91465 0.48474 0.0
C3144 C 0.67106 0.91524 0.53284 0.0
C3145 C 0.68628 0.91633 0.5255 0.0
C3146 C 0.76846 0.89458 0.51482 0.0
C3147 C 0.78229 0.91566 0.49354 0.0
C3148 C 0.76775 0.91602 0.50154 0.0
C3149 C 0.72319 0.91494 0.52457 0.0
C3150 C 0.73915 0.91588 0.51668 0.0
H3151 H 0.75473 0.91536 0.47483 0.0
H3152 H 0.73112 0.91607 0.48789 0.0
H3153 H 0.8047 0.87742 0.50608 0.0
H3154 H 0.74638 0.90898 0.54354 0.0
H3155 H 0.77303 0.91163 0.53073 0.0
C3156 C 0.80389 0.9528 0.28641 0.0
C3157 C 0.83643 0.94257 0.28959 0.0
C3158 C 0.80214 0.96591 0.27885 0.0
C3159 C 0.85612 0.97 0.26068 0.0
H3160 H 0.78552 0.03863 0.25445 0.0
C3161 C 0.86414 0.05376 0.23282 0.0
C3162 C 0.8343 0.0532 0.228 0.0
C3163 C 0.86302 0.03828 0.24014 0.0
C3164 C 0.80516 0.01922 0.25611 0.0
H3165 H 0.89276 0.9397 0.28759 0.0
H3166 H 0.89031 0.96428 0.27464 0.0
H3167 H 0.78665 0.01754 0.26777 0.0
H3168 H 0.77986 0.03621 0.22703 0.0
H3169 H 0.77749 0.00985 0.24001 0.0
H3170 H 0.87554 0.97321 0.24908 0.0
C3171 C 0.86573 0.96075 0.27775 0.0
C3172 C 0.8058 0.00696 0.26374 0.0
C3173 C 0.8673 0.94698 0.28521 0.0
C3174 C 0.80327 0.03667 0.23062 0.0
C3175 C 0.80186 0.0219 0.23804 0.0
C3176 C 0.85589 0.98282 0.25312 0.0
C3177 C 0.83306 0.9697 0.27436 0.0
C3178 C 0.83149 0.98233 0.26617 0.0
C3179 C 0.83176 0.02261 0.24286 0.0
C3180 C 0.83054 0.00764 0.25077 0.0
H3181 H 0.77969 0.94931 0.28966 0.0
H3182 H 0.77641 0.97205 0.27647 0.0
H3183 H 0.87567 0.95029 0.26219 0.0
H3184 H 0.88837 0.06626 0.23091 0.0
H3185 H 0.88638 0.03929 0.24375 0.0
C3186 C 0.72259 0.08806 0.97987 0.0
C3187 C 0.68591 0.08414 0.97879 0.0
C3188 C 0.73713 0.08853 0.98729 0.0
C3189 C 0.71334 0.10377 1.00778 0.0
H3190 H 0.80163 0.0552 0.01189 0.0
C3191 C 0.76809 0.08619 0.03874 0.0
C3192 C 0.80473 0.09054 0.0398 0.0
C3193 C 0.75352 0.08506 0.03132 0.0
C3194 C 0.77714 0.06923 0.01083 0.0
H3195 H 0.63599 0.07683 0.98475 0.0
H3196 H 0.66126 0.07765 0.99765 0.0
H3197 H 0.77667 0.05406 0.99893 0.0
H3198 H 0.85472 0.09658 0.0338 0.0
H3199 H 0.82932 0.0953 0.02091 0.0
H3200 H 0.71383 0.119 0.01967 0.0
C3201 C 0.67875 0.081 0.99275 0.0
C3202 C 0.76283 0.06859 1.00339 0.0
C3203 C 0.66423 0.08053 0.98534 0.0
C3204 C 0.82638 0.0936 0.03323 0.0
C3205 C 0.81184 0.09243 0.02582 0.0
C3206 C 0.72766 0.10443 0.01522 0.0
C3207 C 0.71538 0.08509 0.99384 0.0
C3208 C 0.73073 0.08585 1.00176 0.0
C3209 C 0.77521 0.08818 0.02476 0.0
C3210 C 0.75977 0.08719 0.01685 0.0
H3211 H 0.74006 0.09141 0.97498 0.0
H3212 H 0.76539 0.09222 0.98791 0.0
H3213 H 0.68886 0.11783 1.00672 0.0
H3214 H 0.75054 0.08408 0.04365 0.0
H3215 H 0.72525 0.08141 0.03073 0.0
C3216 C 0.81964 0.52402 0.78511 0.0
C3217 C 0.82238 0.56079 0.78617 0.0
C3218 C 0.8194 0.50937 0.77767 0.0
C3219 C 0.8041 0.5324 0.75705 0.0
H3220 H 0.85693 0.44646 0.75313 0.0
C3221 C 0.82885 0.47847 0.72609 0.0
C3222 C 0.82727 0.44161 0.72506 0.0
C3223 C 0.82747 0.49327 0.73351 0.0
C3224 C 0.84169 0.47026 0.75413 0.0
H3225 H 0.82611 0.61092 0.78013 0.0
H3226 H 0.82641 0.58549 0.76727 0.0
H3227 H 0.85552 0.47111 0.7661 0.0
H3228 H 0.82157 0.39164 0.73108 0.0
H3229 H 0.81916 0.41726 0.74391 0.0
H3230 H 0.79038 0.53157 0.74506 0.0
C3231 C 0.82417 0.56789 0.77217 0.0
C3232 C 0.84085 0.4844 0.76159 0.0
C3233 C 0.82448 0.58249 0.77958 0.0
C3234 C 0.82368 0.42005 0.73163 0.0
C3235 C 0.82229 0.43478 0.73902 0.0
C3236 C 0.80495 0.51826 0.74959 0.0
C3237 C 0.82174 0.53113 0.7711 0.0
C3238 C 0.82207 0.51568 0.76316 0.0
C3239 C 0.82444 0.47156 0.74008 0.0
C3240 C 0.82374 0.48697 0.74802 0.0
H3241 H 0.8182 0.50646 0.79002 0.0
H3242 H 0.81711 0.48096 0.77708 0.0
H3243 H 0.78892 0.55624 0.75806 0.0
H3244 H 0.83195 0.49587 0.72118 0.0
H3245 H 0.82954 0.52169 0.73411 0.0
C3246 C 0.82414 0.5872 0.98137 0.0
C3247 C 0.80232 0.58778 0.9748 0.0
C3248 C 0.80956 0.58643 0.98878 0.0
C3249 C 0.72765 0.60676 0.99959 0.0
H3250 H 0.77126 0.54939 0.0155 0.0
C3251 C 0.66427 0.58895 0.02973 0.0
C3252 C 0.68682 0.5889 0.03619 0.0
C3253 C 0.67805 0.58823 0.02224 0.0
C3254 C 0.75898 0.56589 0.01116 0.0
H3255 H 0.74781 0.58797 0.97093 0.0
H3256 H 0.72229 0.58614 0.98387 0.0
H3257 H 0.7953 0.54868 1.00246 0.0
H3258 H 0.74177 0.58839 0.03976 0.0
H3259 H 0.76582 0.5872 0.02671 0.0
H3260 H 0.69141 0.62409 1.0083 0.0
C3261 C 0.7508 0.58662 0.98327 0.0
C3262 C 0.77275 0.56545 1.00366 0.0
C3263 C 0.76543 0.58729 0.97584 0.0
C3264 C 0.72358 0.58797 0.03494 0.0
C3265 C 0.73738 0.58728 0.02744 0.0
C3266 C 0.71387 0.60721 1.00709 0.0
C3267 C 0.7727 0.58623 0.98984 0.0
C3268 C 0.75736 0.58598 0.99778 0.0
C3269 C 0.71479 0.58745 0.02099 0.0
C3270 C 0.7294 0.58685 0.01298 0.0
H3271 H 0.85263 0.58707 0.98082 0.0
H3272 H 0.82727 0.58653 0.99369 0.0
H3273 H 0.71543 0.62332 0.99525 0.0
H3274 H 0.63585 0.589 0.03044 0.0
H3275 H 0.65981 0.58775 0.01743 0.0
C3276 C 0.67272 0.57861 0.23213 0.0
C3277 C 0.66961 0.55782 0.22543 0.0
C3278 C 0.6735 0.56304 0.23943 0.0
C3279 C 0.69044 0.47881 0.24963 0.0
H3280 H 0.63703 0.52334 0.26608 0.0
C3281 C 0.66847 0.41123 0.27917 0.0
C3282 C 0.66883 0.4323 0.28586 0.0
C3283 C 0.66966 0.42657 0.27184 0.0
C3284 C 0.65251 0.5108 0.26159 0.0
H3285 H 0.66527 0.50402 0.22123 0.0
H3286 H 0.66675 0.47672 0.23401 0.0
H3287 H 0.63679 0.54932 0.25322 0.0
H3288 H 0.67101 0.48632 0.29001 0.0
H3289 H 0.6738 0.51312 0.27722 0.0
H3290 H 0.70623 0.44031 0.258 0.0
C3291 C 0.66882 0.5052 0.23358 0.0
C3292 C 0.65231 0.52568 0.2542 0.0
C3293 C 0.66798 0.52085 0.22624 0.0
C3294 C 0.67091 0.46923 0.28501 0.0
C3295 C 0.6721 0.48462 0.27766 0.0
C3296 C 0.69071 0.46396 0.25703 0.0
C3297 C 0.67128 0.52616 0.24027 0.0
C3298 C 0.67128 0.50991 0.24812 0.0
C3299 C 0.67134 0.46348 0.27097 0.0
C3300 C 0.67171 0.47972 0.26311 0.0
H3301 H 0.6749 0.60707 0.23176 0.0
H3302 H 0.6762 0.57997 0.24444 0.0
H3303 H 0.70576 0.46624 0.24512 0.0
H3304 H 0.66741 0.38272 0.27956 0.0
H3305 H 0.66863 0.40942 0.26684 0.0
C3306 C 0.73026 0.41704 0.47537 0.0
C3307 C 0.6932 0.41734 0.47465 0.0
C3308 C 0.74628 0.41762 0.48267 0.0
C3309 C 0.72811 0.43973 0.50321 0.0
H3310 H 0.80821 0.37873 0.50739 0.0
C3311 C 0.77822 0.41371 0.53423 0.0
C3312 C 0.81499 0.41202 0.53541 0.0
C3313 C 0.7642 0.41525 0.52676 0.0
C3314 C 0.78611 0.39625 0.5063 0.0
H3315 H 0.64409 0.41952 0.48111 0.0
H3316 H 0.67177 0.41985 0.49373 0.0
H3317 H 0.78291 0.38051 0.49445 0.0
H3318 H 0.86576 0.41126 0.52957 0.0
H3319 H 0.84136 0.41386 0.5166 0.0
H3320 H 0.73112 0.45531 0.51506 0.0
C3321 C 0.68859 0.4194 0.48868 0.0
C3322 C 0.77163 0.39731 0.49887 0.0
C3323 C 0.67266 0.41873 0.48141 0.0
C3324 C 0.83732 0.41193 0.52891 0.0
C3325 C 0.8233 0.41344 0.52145 0.0
C3326 C 0.74256 0.43866 0.51064 0.0
C3327 C 0.72561 0.41877 0.48942 0.0
C3328 C 0.74224 0.41886 0.49724 0.0
C3329 C 0.78655 0.41512 0.52026 0.0
C3330 C 0.77161 0.41673 0.5123 0.0
H3331 H 0.74689 0.41577 0.47029 0.0
H3332 H 0.77487 0.41742 0.48302 0.0
H3333 H 0.7059 0.45714 0.50214 0.0
H3334 H 0.76016 0.4133 0.53907 0.0
H3335 H 0.73574 0.41596 0.52607 0.0
C3336 C 0.1598 0.47455 0.23065 0.0
C3337 C 0.15952 0.43785 0.22932 0.0
C3338 C 0.16086 0.48801 0.23816 0.0
C3339 C 0.14285 0.46458 0.25851 0.0
H3340 H 0.2036 0.54467 0.26288 0.0
C3341 C 0.16594 0.51648 0.28961 0.0
C3342 C 0.16727 0.55338 0.29062 0.0
C3343 C 0.16542 0.50168 0.2822 0.0
C3344 C 0.18617 0.52255 0.26175 0.0
H3345 H 0.16027 0.38663 0.23495 0.0
H3346 H 0.16191 0.41012 0.24803 0.0
H3347 H 0.20139 0.52048 0.24987 0.0
H3348 H 0.16959 0.60346 0.28454 0.0
H3349 H 0.16782 0.57782 0.27171 0.0
H3350 H 0.12744 0.46682 0.27039 0.0
C3351 C 0.16094 0.42848 0.24325 0.0
C3352 C 0.18492 0.50866 0.25428 0.0
C3353 C 0.15998 0.415 0.23573 0.0
C3354 C 0.16816 0.57501 0.28402 0.0
C3355 C 0.16761 0.56023 0.27663 0.0
C3356 C 0.14403 0.47854 0.26599 0.0
C3357 C 0.16156 0.46516 0.24456 0.0
C3358 C 0.16314 0.47959 0.25255 0.0
C3359 C 0.16625 0.52338 0.27561 0.0
C3360 C 0.16559 0.50783 0.2677 0.0
H3361 H 0.15879 0.49301 0.22589 0.0
H3362 H 0.16068 0.51641 0.23896 0.0
H3363 H 0.12547 0.44244 0.25736 0.0
H3364 H 0.16488 0.49897 0.29454 0.0
H3365 H 0.1647 0.47317 0.28165 0.0
C3366 C 0.33076 0.40756 0.98573 0.0
C3367 C 0.30832 0.40729 0.97925 0.0
C3368 C 0.31683 0.40793 0.99321 0.0
C3369 C 0.23578 0.43005 1.00416 0.0
H3370 H 0.27807 0.37206 0.02013 0.0
C3371 C 0.16935 0.41101 0.03385 0.0
C3372 C 0.19097 0.41003 0.04045 0.0
C3373 C 0.18415 0.41093 0.02646 0.0
C3374 C 0.2662 0.38878 0.01577 0.0
H3375 H 0.25336 0.40655 0.97566 0.0
H3376 H 0.22914 0.40739 0.98867 0.0
H3377 H 0.30273 0.37127 1.00713 0.0
H3378 H 0.2454 0.4079 0.04438 0.0
H3379 H 0.27125 0.40851 0.03148 0.0
H3380 H 0.19934 0.44768 0.01278 0.0
C3381 C 0.25759 0.40781 0.98796 0.0
C3382 C 0.28033 0.38829 1.0083 0.0
C3383 C 0.27152 0.40735 0.98048 0.0
C3384 C 0.22789 0.40902 0.03945 0.0
C3385 C 0.24273 0.40895 0.03204 0.0
C3386 C 0.22171 0.43062 0.01162 0.0
C3387 C 0.28006 0.40814 0.99442 0.0
C3388 C 0.26522 0.40882 1.00239 0.0
C3389 C 0.22103 0.40994 0.02544 0.0
C3390 C 0.23662 0.40988 0.01753 0.0
H3391 H 0.35919 0.40809 0.98505 0.0
H3392 H 0.33493 0.4087 0.99805 0.0
H3393 H 0.22384 0.44667 0.99979 0.0
H3394 H 0.14087 0.41222 0.03436 0.0
H3395 H 0.16655 0.41124 0.02153 0.0
C3396 C 0.32067 0.51711 0.72973 0.0
C3397 C 0.32124 0.55415 0.72898 0.0
C3398 C 0.32088 0.5012 0.73704 0.0
C3399 C 0.30227 0.52009 0.75769 0.0
H3400 H 0.36077 0.43773 0.76147 0.0
C3401 C 0.32964 0.46853 0.78852 0.0
C3402 C 0.33021 0.43172 0.78969 0.0
C3403 C 0.32786 0.48266 0.78107 0.0
C3404 C 0.34394 0.46047 0.7605 0.0
H3405 H 0.32172 0.60335 0.73542 0.0
H3406 H 0.32276 0.57581 0.74806 0.0
H3407 H 0.35843 0.46336 0.74856 0.0
H3408 H 0.32888 0.38103 0.78384 0.0
H3409 H 0.32581 0.40563 0.77088 0.0
H3410 H 0.28789 0.51735 0.76962 0.0
C3411 C 0.32186 0.55895 0.74302 0.0
C3412 C 0.34258 0.47516 0.75309 0.0
C3413 C 0.32174 0.57479 0.73573 0.0
C3414 C 0.32902 0.40947 0.78318 0.0
C3415 C 0.32726 0.42361 0.77573 0.0
C3416 C 0.30363 0.50542 0.7651 0.0
C3417 C 0.32147 0.52195 0.74378 0.0
C3418 C 0.32192 0.50533 0.7516 0.0
C3419 C 0.32662 0.4604 0.77457 0.0
C3420 C 0.32466 0.47554 0.76662 0.0
H3421 H 0.32054 0.50037 0.72467 0.0
H3422 H 0.32026 0.47263 0.7374 0.0
H3423 H 0.28554 0.54291 0.75674 0.0
H3424 H 0.33112 0.48654 0.79336 0.0
H3425 H 0.32804 0.51112 0.7804 0.0
C3426 C 0.22061 0.57805 0.48074 0.0
C3427 C 0.18364 0.57815 0.4798 0.0
C3428 C 0.23568 0.57708 0.48813 0.0
C3429 C 0.21504 0.59632 0.5086 0.0
H3430 H 0.29638 0.53708 0.51284 0.0
C3431 C 0.26858 0.5762 0.53963 0.0
C3432 C 0.30553 0.57541 0.54057 0.0
C3433 C 0.25349 0.57577 0.53224 0.0
C3434 C 0.2739 0.5541 0.51175 0.0
H3435 H 0.13372 0.57606 0.48598 0.0
H3436 H 0.15986 0.57466 0.49875 0.0
H3437 H 0.27128 0.53831 0.49989 0.0
H3438 H 0.35539 0.57268 0.53439 0.0
H3439 H 0.3293 0.57291 0.52162 0.0
H3440 H 0.21777 0.61238 0.52043 0.0
C3441 C 0.17725 0.57599 0.4938 0.0
C3442 C 0.25952 0.55479 0.50431 0.0
C3443 C 0.16223 0.57684 0.48644 0.0
C3444 C 0.3269 0.57385 0.53393 0.0
C3445 C 0.31186 0.57347 0.52657 0.0
C3446 C 0.22949 0.59574 0.51603 0.0
C3447 C 0.21414 0.57628 0.49475 0.0
C3448 C 0.22987 0.57587 0.50264 0.0
C3449 C 0.27496 0.5745 0.52561 0.0
C3450 C 0.25913 0.57463 0.51772 0.0
H3451 H 0.23794 0.57939 0.47579 0.0
H3452 H 0.26421 0.57767 0.48866 0.0
H3453 H 0.19252 0.61327 0.5075 0.0
H3454 H 0.25127 0.57765 0.54459 0.0
H3455 H 0.22495 0.57619 0.53174 0.0
loop_
_geom_bond_atom_site_label_1
_geom_bond_atom_site_label_2
_geom_bond_distance
_geom_bond_site_symmetry_2
_ccdc_geom_bond_type
C0 C1 1.351 . S
C0 N3 1.368 . S
C0 H5 0.931 . S
C1 C0 1.351 . S
C1 N2 1.373 . S
C1 H29 0.930 . S
N2 C1 1.373 . S
N2 C4 1.340 . S
N3 C0 1.368 . S
N3 C4 1.321 . S
N3 Co6 2.135 . S
C4 N2 1.340 . S
C4 N3 1.321 . S
C4 H28 0.930 . S
H5 C0 0.931 . S
Co6 N3 2.135 . S
Co6 N9 2.121 . S
Co6 O14 2.055 . S
Co6 O17 2.039 . S
Co6 N20 2.140 . S
C7 O8 1.227 . S
C7 O17 1.265 . S
O8 C7 1.227 . S
N9 Co6 2.121 . S
N9 C11 1.375 . S
N9 C12 1.313 . S
C10 C11 1.338 . S
C10 N13 1.377 . S
C10 H30 0.930 . S
C11 N9 1.375 . S
C11 C10 1.338 . S
C11 H15 0.931 . S
C12 N9 1.313 . S
C12 N13 1.344 . S
C12 H16 0.930 . S
N13 C10 1.377 . S
N13 C12 1.344 . S
O14 Co6 2.055 . S
O14 C18 1.253 . S
H15 C11 0.931 . S
H16 C12 0.930 . S
O17 Co6 2.039 . S
O17 C7 1.265 . S
C18 O14 1.253 . S
C18 O19 1.227 . S
O19 C18 1.227 . S
N20 Co6 2.140 . S
N20 C23 1.346 . S
N20 C24 1.345 . S
C21 C22 1.387 . S
C21 C25 1.391 . S
C22 C21 1.387 . S
C22 C23 1.369 . S
C22 H31 0.929 . S
C23 N20 1.346 . S
C23 C22 1.369 . S
C23 H26 0.928 . S
C24 N20 1.345 . S
C24 C25 1.371 . S
C24 H27 0.931 . S
C25 C21 1.391 . S
C25 C24 1.371 . S
C25 H32 0.930 . S
H26 C23 0.928 . S
H27 C24 0.931 . S
H28 C4 0.930 . S
H29 C1 0.930 . S
H30 C10 0.930 . S
H31 C22 0.929 . S
H32 C25 0.930 . S
C33 C34 1.351 . S
C33 N36 1.368 . S
C33 H38 0.931 . S
C34 C33 1.351 . S
C34 N35 1.373 . S
C34 H62 0.930 . S
N35 C34 1.373 . S
N35 C37 1.340 . S
N36 C33 1.368 . S
N36 C37 1.321 . S
N36 Co39 2.135 . S
C37 N35 1.340 . S
C37 N36 1.321 . S
C37 H61 0.930 . S
H38 C33 0.931 . S
Co39 N36 2.135 . S
Co39 N42 2.121 . S
Co39 O47 2.055 . S
Co39 O50 2.039 . S
Co39 N53 2.140 . S
C40 O41 1.227 . S
C40 O50 1.265 . S
O41 C40 1.227 . S
N42 Co39 2.121 . S
N42 C44 1.375 . S
N42 C45 1.313 . S
C43 C44 1.338 . S
C43 N46 1.377 . S
C43 H63 0.930 . S
C44 N42 1.375 . S
C44 C43 1.338 . S
C44 H48 0.931 . S
C45 N42 1.313 . S
C45 N46 1.344 . S
C45 H49 0.930 . S
N46 C43 1.377 . S
N46 C45 1.344 . S
O47 Co39 2.055 . S
O47 C51 1.253 . S
H48 C44 0.931 . S
H49 C45 0.930 . S
O50 Co39 2.039 . S
O50 C40 1.265 . S
C51 O47 1.253 . S
C51 O52 1.227 . S
O52 C51 1.227 . S
N53 Co39 2.140 . S
N53 C56 1.346 . S
N53 C57 1.345 . S
C54 C55 1.387 . S
C54 C58 1.391 . S
C55 C54 1.387 . S
C55 C56 1.369 . S
C55 H64 0.929 . S
C56 N53 1.346 . S
C56 C55 1.369 . S
C56 H59 0.928 . S
C57 N53 1.345 . S
C57 C58 1.371 . S
C57 H60 0.931 . S
C58 C54 1.391 . S
C58 C57 1.371 . S
C58 H65 0.930 1_545 S
H59 C56 0.928 . S
H60 C57 0.931 . S
H61 C37 0.930 . S
H62 C34 0.930 . S
H63 C43 0.930 . S
H64 C55 0.929 . S
H65 C58 0.930 1_565 S
C66 C67 1.351 . S
C66 N69 1.368 . S
C66 H71 0.931 . S
C67 C66 1.351 . S
C67 N68 1.373 . S
C67 H95 0.930 . S
N68 C67 1.373 . S
N68 C70 1.340 . S
N69 C66 1.368 . S
N69 C70 1.321 . S
N69 Co72 2.135 . S
C70 N68 1.340 . S
C70 N69 1.321 . S
C70 H94 0.930 . S
H71 C66 0.931 . S
Co72 N69 2.135 . S
Co72 N75 2.121 . S
Co72 O80 2.055 . S
Co72 O83 2.039 . S
Co72 N86 2.140 . S
C73 O74 1.227 . S
C73 O83 1.265 . S
O74 C73 1.227 . S
N75 Co72 2.121 . S
N75 C77 1.375 . S
N75 C78 1.313 . S
C76 C77 1.338 . S
C76 N79 1.377 . S
C76 H96 0.930 . S
C77 N75 1.375 . S
C77 C76 1.338 . S
C77 H81 0.931 . S
C78 N75 1.313 . S
C78 N79 1.344 . S
C78 H82 0.930 . S
N79 C76 1.377 . S
N79 C78 1.344 . S
O80 Co72 2.055 . S
O80 C84 1.253 . S
H81 C77 0.931 . S
H82 C78 0.930 . S
O83 Co72 2.039 . S
O83 C73 1.265 . S
C84 O80 1.253 . S
C84 O85 1.227 . S
O85 C84 1.227 . S
N86 Co72 2.140 . S
N86 C89 1.346 . S
N86 C90 1.345 . S
C87 C88 1.387 . S
C87 C91 1.391 . S
C88 C87 1.387 . S
C88 C89 1.369 . S
C88 H97 0.929 . S
C89 N86 1.346 . S
C89 C88 1.369 . S
C89 H92 0.928 . S
C90 N86 1.345 . S
C90 C91 1.371 . S
C90 H93 0.931 . S
C91 C87 1.391 . S
C91 C90 1.371 . S
C91 H98 0.930 . S
H92 C89 0.928 . S
H93 C90 0.931 . S
H94 C70 0.930 . S
H95 C67 0.930 . S
H96 C76 0.930 . S
H97 C88 0.929 . S
H98 C91 0.930 . S
C99 C100 1.351 . S
C99 N102 1.368 . S
C99 H104 0.931 . S
C100 C99 1.351 . S
C100 N101 1.373 . S
C100 H128 0.930 . S
N101 C100 1.373 . S
N101 C103 1.340 . S
N102 C99 1.368 . S
N102 C103 1.321 . S
N102 Co105 2.135 . S
C103 N101 1.340 . S
C103 N102 1.321 . S
C103 H127 0.930 . S
H104 C99 0.931 . S
Co105 N102 2.135 . S
Co105 N108 2.121 . S
Co105 O113 2.055 . S
Co105 O116 2.039 . S
Co105 N119 2.140 . S
C106 O107 1.227 . S
C106 O116 1.265 . S
O107 C106 1.227 . S
N108 Co105 2.121 . S
N108 C110 1.375 . S
N108 C111 1.313 . S
C109 C110 1.338 . S
C109 N112 1.377 . S
C109 H129 0.930 . S
C110 N108 1.375 . S
C110 C109 1.338 . S
C110 H114 0.931 . S
C111 N108 1.313 . S
C111 N112 1.344 . S
C111 H115 0.930 . S
N112 C109 1.377 . S
N112 C111 1.344 . S
O113 Co105 2.055 . S
O113 C117 1.253 . S
H114 C110 0.931 . S
H115 C111 0.930 . S
O116 Co105 2.039 . S
O116 C106 1.265 . S
C117 O113 1.253 . S
C117 O118 1.227 . S
O118 C117 1.227 . S
N119 Co105 2.140 . S
N119 C122 1.346 . S
N119 C123 1.345 . S
C120 C121 1.387 . S
C120 C124 1.391 . S
C121 C120 1.387 . S
C121 C122 1.369 . S
C121 H130 0.929 . S
C122 N119 1.346 . S
C122 C121 1.369 . S
C122 H125 0.928 . S
C123 N119 1.345 . S
C123 C124 1.371 . S
C123 H126 0.931 . S
C124 C120 1.391 . S
C124 C123 1.371 . S
C124 H131 0.930 1_565 S
H125 C122 0.928 . S
H126 C123 0.931 . S
H127 C103 0.930 . S
H128 C100 0.930 . S
H129 C109 0.930 . S
H130 C121 0.929 . S
H131 C124 0.930 1_545 S
C132 C133 1.351 . S
C132 N135 1.368 . S
C132 H137 0.931 . S
C133 C132 1.351 . S
C133 N134 1.373 . S
C133 H161 0.930 . S
N134 C133 1.373 . S
N134 C136 1.340 . S
N135 C132 1.368 . S
N135 C136 1.321 . S
N135 Co138 2.135 . S
C136 N134 1.340 . S
C136 N135 1.321 . S
C136 H160 0.930 . S
H137 C132 0.931 . S
Co138 N135 2.135 . S
Co138 N141 2.121 . S
Co138 O146 2.055 . S
Co138 O149 2.039 . S
Co138 N152 2.140 . S
C139 O140 1.227 . S
C139 O149 1.265 . S
O140 C139 1.227 . S
N141 Co138 2.121 . S
N141 C143 1.375 . S
N141 C144 1.313 . S
C142 C143 1.338 . S
C142 N145 1.377 . S
C142 H162 0.930 . S
C143 N141 1.375 . S
C143 C142 1.338 . S
C143 H147 0.931 . S
C144 N141 1.313 . S
C144 N145 1.344 . S
C144 H148 0.930 . S
N145 C142 1.377 . S
N145 C144 1.344 . S
O146 Co138 2.055 . S
O146 C150 1.253 . S
H147 C143 0.931 . S
H148 C144 0.930 . S
O149 Co138 2.039 . S
O149 C139 1.265 . S
C150 O146 1.253 . S
C150 O151 1.227 . S
O151 C150 1.227 . S
N152 Co138 2.140 . S
N152 C155 1.346 . S
N152 C156 1.345 . S
C153 C154 1.387 . S
C153 C157 1.391 . S
C154 C153 1.387 . S
C154 C155 1.369 . S
C154 H163 0.929 . S
C155 N152 1.346 . S
C155 C154 1.369 . S
C155 H158 0.928 . S
C156 N152 1.345 . S
C156 C157 1.371 . S
C156 H159 0.931 . S
C157 C153 1.391 . S
C157 C156 1.371 . S
C157 H164 0.930 . S
H158 C155 0.928 . S
H159 C156 0.931 . S
H160 C136 0.930 . S
H161 C133 0.930 . S
H162 C142 0.930 . S
H163 C154 0.929 . S
H164 C157 0.930 . S
C165 C166 1.351 . S
C165 N168 1.368 . S
C165 H170 0.931 . S
C166 C165 1.351 . S
C166 N167 1.373 . S
C166 H194 0.930 . S
N167 C166 1.373 . S
N167 C169 1.340 . S
N168 C165 1.368 . S
N168 C169 1.321 . S
N168 Co171 2.135 . S
C169 N167 1.340 . S
C169 N168 1.321 . S
C169 H193 0.930 . S
H170 C165 0.931 . S
Co171 N168 2.135 . S
Co171 N174 2.121 . S
Co171 O179 2.055 . S
Co171 O182 2.039 . S
Co171 N185 2.140 . S
C172 O173 1.227 . S
C172 O182 1.265 . S
O173 C172 1.227 . S
N174 Co171 2.121 . S
N174 C176 1.375 . S
N174 C177 1.313 . S
C175 C176 1.338 . S
C175 N178 1.377 . S
C175 H195 0.930 . S
C176 N174 1.375 . S
C176 C175 1.338 . S
C176 H180 0.931 . S
C177 N174 1.313 . S
C177 N178 1.344 . S
C177 H181 0.930 . S
N178 C175 1.377 . S
N178 C177 1.344 . S
O179 Co171 2.055 . S
O179 C183 1.253 . S
H180 C176 0.931 . S
H181 C177 0.930 . S
O182 Co171 2.039 . S
O182 C172 1.265 . S
C183 O179 1.253 . S
C183 O184 1.227 . S
O184 C183 1.227 . S
N185 Co171 2.140 . S
N185 C188 1.346 . S
N185 C189 1.345 . S
C186 C187 1.387 . S
C186 C190 1.391 . S
C187 C186 1.387 . S
C187 C188 1.369 . S
C187 H196 0.929 . S
C188 N185 1.346 . S
C188 C187 1.369 . S
C188 H191 0.928 . S
C189 N185 1.345 . S
C189 C190 1.371 . S
C189 H192 0.931 . S
C190 C186 1.391 . S
C190 C189 1.371 . S
C190 H197 0.930 1_545 S
H191 C188 0.928 . S
H192 C189 0.931 . S
H193 C169 0.930 . S
H194 C166 0.930 . S
H195 C175 0.930 . S
H196 C187 0.929 . S
H197 C190 0.930 1_565 S
C198 C199 1.351 . S
C198 N201 1.368 . S
C198 H203 0.931 . S
C199 C198 1.351 . S
C199 N200 1.373 . S
C199 H227 0.930 . S
N200 C199 1.373 . S
N200 C202 1.340 . S
N201 C198 1.368 . S
N201 C202 1.321 . S
N201 Co204 2.135 . S
C202 N200 1.340 . S
C202 N201 1.321 . S
C202 H226 0.930 . S
H203 C198 0.931 . S
Co204 N201 2.135 . S
Co204 N207 2.121 . S
Co204 O212 2.055 . S
Co204 O215 2.039 . S
Co204 N218 2.140 . S
C205 O206 1.227 . S
C205 O215 1.265 . S
O206 C205 1.227 . S
N207 Co204 2.121 . S
N207 C209 1.375 . S
N207 C210 1.313 . S
C208 C209 1.338 . S
C208 N211 1.377 . S
C208 H228 0.930 . S
C209 N207 1.375 . S
C209 C208 1.338 . S
C209 H213 0.931 . S
C210 N207 1.313 . S
C210 N211 1.344 . S
C210 H214 0.930 . S
N211 C208 1.377 . S
N211 C210 1.344 . S
O212 Co204 2.055 . S
O212 C216 1.253 . S
H213 C209 0.931 . S
H214 C210 0.930 . S
O215 Co204 2.039 . S
O215 C205 1.265 . S
C216 O212 1.253 . S
C216 O217 1.227 . S
O217 C216 1.227 . S
N218 Co204 2.140 . S
N218 C221 1.346 . S
N218 C222 1.345 . S
C219 C220 1.387 . S
C219 C223 1.391 . S
C220 C219 1.387 . S
C220 C221 1.369 . S
C220 H229 0.929 . S
C221 N218 1.346 . S
C221 C220 1.369 . S
C221 H224 0.928 . S
C222 N218 1.345 . S
C222 C223 1.371 . S
C222 H225 0.931 . S
C223 C219 1.391 . S
C223 C222 1.371 . S
C223 H230 0.930 . S
H224 C221 0.928 . S
H225 C222 0.931 . S
H226 C202 0.930 . S
H227 C199 0.930 . S
H228 C208 0.930 . S
H229 C220 0.929 . S
H230 C223 0.930 . S
C231 C232 1.351 . S
C231 N234 1.368 . S
C231 H236 0.931 . S
C232 C231 1.351 . S
C232 N233 1.373 . S
C232 H260 0.930 . S
N233 C232 1.373 . S
N233 C235 1.340 . S
N234 C231 1.368 . S
N234 C235 1.321 . S
N234 Co237 2.135 . S
C235 N233 1.340 . S
C235 N234 1.321 . S
C235 H259 0.930 . S
H236 C231 0.931 . S
Co237 N234 2.135 . S
Co237 N240 2.121 . S
Co237 O245 2.055 . S
Co237 O248 2.039 . S
Co237 N251 2.140 . S
C238 O239 1.227 . S
C238 O248 1.265 . S
O239 C238 1.227 . S
N240 Co237 2.121 . S
N240 C242 1.375 . S
N240 C243 1.313 . S
C241 C242 1.338 . S
C241 N244 1.377 . S
C241 H261 0.930 . S
C242 N240 1.375 . S
C242 C241 1.338 . S
C242 H246 0.931 . S
C243 N240 1.313 . S
C243 N244 1.344 . S
C243 H247 0.930 . S
N244 C241 1.377 . S
N244 C243 1.344 . S
O245 Co237 2.055 . S
O245 C249 1.253 . S
H246 C242 0.931 . S
H247 C243 0.930 . S
O248 Co237 2.039 . S
O248 C238 1.265 . S
C249 O245 1.253 . S
C249 O250 1.227 . S
O250 C249 1.227 . S
N251 Co237 2.140 . S
N251 C254 1.346 . S
N251 C255 1.345 . S
C252 C253 1.387 . S
C252 C256 1.391 . S
C253 C252 1.387 . S
C253 C254 1.369 . S
C253 H262 0.929 . S
C254 N251 1.346 . S
C254 C253 1.369 . S
C254 H257 0.928 . S
C255 N251 1.345 . S
C255 C256 1.371 . S
C255 H258 0.931 . S
C256 C252 1.391 . S
C256 C255 1.371 . S
C256 H263 0.930 1_565 S
H257 C254 0.928 . S
H258 C255 0.931 . S
H259 C235 0.930 . S
H260 C232 0.930 . S
H261 C241 0.930 . S
H262 C253 0.929 . S
H263 C256 0.930 1_545 S
C264 C265 1.351 . S
C264 N267 1.368 . S
C264 H269 0.931 . S
C265 C264 1.351 . S
C265 N266 1.373 . S
C265 H293 0.930 . S
N266 C265 1.373 . S
N266 C268 1.340 . S
N267 C264 1.368 . S
N267 C268 1.321 . S
N267 Co270 2.135 . S
C268 N266 1.340 . S
C268 N267 1.321 . S
C268 H292 0.930 . S
H269 C264 0.931 . S
Co270 N267 2.135 . S
Co270 N273 2.121 . S
Co270 O278 2.055 . S
Co270 O281 2.039 . S
Co270 N284 2.140 . S
C271 O272 1.227 . S
C271 O281 1.265 . S
O272 C271 1.227 . S
N273 Co270 2.121 . S
N273 C275 1.375 . S
N273 C276 1.313 . S
C274 C275 1.338 . S
C274 N277 1.377 . S
C274 H294 0.930 . S
C275 N273 1.375 . S
C275 C274 1.338 . S
C275 H279 0.931 . S
C276 N273 1.313 . S
C276 N277 1.344 . S
C276 H280 0.930 . S
N277 C274 1.377 . S
N277 C276 1.344 . S
O278 Co270 2.055 . S
O278 C282 1.253 . S
H279 C275 0.931 . S
H280 C276 0.930 . S
O281 Co270 2.039 . S
O281 C271 1.265 . S
C282 O278 1.253 . S
C282 O283 1.227 . S
O283 C282 1.227 . S
N284 Co270 2.140 . S
N284 C287 1.346 . S
N284 C288 1.345 . S
C285 C286 1.387 . S
C285 C289 1.391 . S
C286 C285 1.387 . S
C286 C287 1.369 . S
C286 H295 0.929 . S
C287 N284 1.346 . S
C287 C286 1.369 . S
C287 H290 0.928 . S
C288 N284 1.345 . S
C288 C289 1.371 . S
C288 H291 0.931 . S
C289 C285 1.391 . S
C289 C288 1.371 . S
C289 H296 0.930 . S
H290 C287 0.928 . S
H291 C288 0.931 . S
H292 C268 0.930 . S
H293 C265 0.930 . S
H294 C274 0.930 . S
H295 C286 0.929 . S
H296 C289 0.930 . S
C297 C298 1.351 . S
C297 N300 1.368 . S
C297 H302 0.931 . S
C298 C297 1.351 . S
C298 N299 1.373 . S
C298 H326 0.930 . S
N299 C298 1.373 . S
N299 C301 1.340 . S
N300 C297 1.368 . S
N300 C301 1.321 . S
N300 Co303 2.135 . S
C301 N299 1.340 . S
C301 N300 1.321 . S
C301 H325 0.930 . S
H302 C297 0.931 . S
Co303 N300 2.135 . S
Co303 N306 2.121 . S
Co303 O311 2.055 . S
Co303 O314 2.039 . S
Co303 N317 2.140 . S
C304 O305 1.227 . S
C304 O314 1.265 . S
O305 C304 1.227 . S
N306 Co303 2.121 . S
N306 C308 1.375 . S
N306 C309 1.313 . S
C307 C308 1.338 . S
C307 N310 1.377 . S
C307 H327 0.930 . S
C308 N306 1.375 . S
C308 C307 1.338 . S
C308 H312 0.931 . S
C309 N306 1.313 . S
C309 N310 1.344 . S
C309 H313 0.930 . S
N310 C307 1.377 . S
N310 C309 1.344 . S
O311 Co303 2.055 . S
O311 C315 1.253 . S
H312 C308 0.931 . S
H313 C309 0.930 . S
O314 Co303 2.039 . S
O314 C304 1.265 . S
C315 O311 1.253 . S
C315 O316 1.227 . S
O316 C315 1.227 . S
N317 Co303 2.140 . S
N317 C320 1.346 . S
N317 C321 1.345 . S
C318 C319 1.387 . S
C318 C322 1.391 . S
C319 C318 1.387 . S
C319 C320 1.369 . S
C319 H328 0.929 . S
C320 N317 1.346 . S
C320 C319 1.369 . S
C320 H323 0.928 . S
C321 N317 1.345 . S
C321 C322 1.371 . S
C321 H324 0.931 . S
C322 C318 1.391 . S
C322 C321 1.371 . S
C322 H329 0.930 1_565 S
H323 C320 0.928 . S
H324 C321 0.931 . S
H325 C301 0.930 . S
H326 C298 0.930 . S
H327 C307 0.930 . S
H328 C319 0.929 . S
H329 C322 0.930 1_545 S
C330 C331 1.351 . S
C330 N333 1.368 . S
C330 H335 0.931 . S
C331 C330 1.351 . S
C331 N332 1.373 . S
C331 H359 0.930 . S
N332 C331 1.373 . S
N332 C334 1.340 . S
N333 C330 1.368 . S
N333 C334 1.321 . S
N333 Co336 2.135 . S
C334 N332 1.340 . S
C334 N333 1.321 . S
C334 H358 0.930 . S
H335 C330 0.931 . S
Co336 N333 2.135 . S
Co336 N339 2.121 . S
Co336 O344 2.055 . S
Co336 O347 2.039 . S
Co336 N350 2.140 . S
C337 O338 1.227 . S
C337 O347 1.265 . S
O338 C337 1.227 . S
N339 Co336 2.121 . S
N339 C341 1.375 . S
N339 C342 1.313 . S
C340 C341 1.338 . S
C340 N343 1.377 . S
C340 H360 0.930 . S
C341 N339 1.375 . S
C341 C340 1.338 . S
C341 H345 0.931 . S
C342 N339 1.313 . S
C342 N343 1.344 . S
C342 H346 0.930 . S
N343 C340 1.377 . S
N343 C342 1.344 . S
O344 Co336 2.055 . S
O344 C348 1.253 . S
H345 C341 0.931 . S
H346 C342 0.930 . S
O347 Co336 2.039 . S
O347 C337 1.265 . S
C348 O344 1.253 . S
C348 O349 1.227 . S
O349 C348 1.227 . S
N350 Co336 2.140 . S
N350 C353 1.346 . S
N350 C354 1.345 . S
C351 C352 1.387 . S
C351 C355 1.391 . S
C352 C351 1.387 . S
C352 C353 1.369 . S
C352 H361 0.929 . S
C353 N350 1.346 . S
C353 C352 1.369 . S
C353 H356 0.928 . S
C354 N350 1.345 . S
C354 C355 1.371 . S
C354 H357 0.931 . S
C355 C351 1.391 . S
C355 C354 1.371 . S
C355 H362 0.930 . S
H356 C353 0.928 . S
H357 C354 0.931 . S
H358 C334 0.930 . S
H359 C331 0.930 . S
H360 C340 0.930 . S
H361 C352 0.929 . S
H362 C355 0.930 . S
C363 C364 1.351 . S
C363 N366 1.368 . S
C363 H368 0.931 . S
C364 C363 1.351 . S
C364 N365 1.373 . S
C364 H392 0.930 . S
N365 C364 1.373 . S
N365 C367 1.340 . S
N366 C363 1.368 . S
N366 C367 1.321 . S
N366 Co369 2.135 . S
C367 N365 1.340 . S
C367 N366 1.321 . S
C367 H391 0.930 . S
H368 C363 0.931 . S
Co369 N366 2.135 . S
Co369 N372 2.121 . S
Co369 O377 2.055 . S
Co369 O380 2.039 . S
Co369 N383 2.140 . S
C370 O371 1.227 . S
C370 O380 1.265 . S
O371 C370 1.227 . S
N372 Co369 2.121 . S
N372 C374 1.375 . S
N372 C375 1.313 . S
C373 C374 1.338 . S
C373 N376 1.377 . S
C373 H393 0.930 . S
C374 N372 1.375 . S
C374 C373 1.338 . S
C374 H378 0.931 . S
C375 N372 1.313 . S
C375 N376 1.344 . S
C375 H379 0.930 . S
N376 C373 1.377 . S
N376 C375 1.344 . S
O377 Co369 2.055 . S
O377 C381 1.253 . S
H378 C374 0.931 . S
H379 C375 0.930 . S
O380 Co369 2.039 . S
O380 C370 1.265 . S
C381 O377 1.253 . S
C381 O382 1.227 . S
O382 C381 1.227 . S
N383 Co369 2.140 . S
N383 C386 1.346 . S
N383 C387 1.345 . S
C384 C385 1.387 . S
C384 C388 1.391 . S
C385 C384 1.387 . S
C385 C386 1.369 . S
C385 H394 0.929 . S
C386 N383 1.346 . S
C386 C385 1.369 . S
C386 H389 0.928 . S
C387 N383 1.345 . S
C387 C388 1.371 . S
C387 H390 0.931 . S
C388 C384 1.391 . S
C388 C387 1.371 . S
C388 H395 0.930 1_545 S
H389 C386 0.928 . S
H390 C387 0.931 . S
H391 C367 0.930 . S
H392 C364 0.930 . S
H393 C373 0.930 . S
H394 C385 0.929 . S
H395 C388 0.930 1_565 S
C396 C397 1.351 . S
C396 N399 1.368 . S
C396 H401 0.931 . S
C397 C396 1.351 . S
C397 N398 1.373 . S
C397 H425 0.930 . S
N398 C397 1.373 . S
N398 C400 1.340 . S
N399 C396 1.368 . S
N399 C400 1.321 . S
N399 Co402 2.135 . S
C400 N398 1.340 . S
C400 N399 1.321 . S
C400 H424 0.930 . S
H401 C396 0.931 . S
Co402 N399 2.135 . S
Co402 N405 2.121 . S
Co402 O410 2.055 . S
Co402 O413 2.039 . S
Co402 N416 2.140 . S
C403 O404 1.227 . S
C403 O413 1.265 . S
O404 C403 1.227 . S
N405 Co402 2.121 . S
N405 C407 1.375 . S
N405 C408 1.313 . S
C406 C407 1.338 . S
C406 N409 1.377 . S
C406 H426 0.930 . S
C407 N405 1.375 . S
C407 C406 1.338 . S
C407 H411 0.931 . S
C408 N405 1.313 . S
C408 N409 1.344 . S
C408 H412 0.930 . S
N409 C406 1.377 . S
N409 C408 1.344 . S
O410 Co402 2.055 . S
O410 C414 1.253 . S
H411 C407 0.931 . S
H412 C408 0.930 . S
O413 Co402 2.039 . S
O413 C403 1.265 . S
C414 O410 1.253 . S
C414 O415 1.227 . S
O415 C414 1.227 . S
N416 Co402 2.140 . S
N416 C419 1.346 . S
N416 C420 1.345 . S
C417 C418 1.387 . S
C417 C421 1.391 . S
C418 C417 1.387 . S
C418 C419 1.369 . S
C418 H427 0.929 . S
C419 N416 1.346 . S
C419 C418 1.369 . S
C419 H422 0.928 . S
C420 N416 1.345 . S
C420 C421 1.371 . S
C420 H423 0.931 . S
C421 C417 1.391 . S
C421 C420 1.371 . S
C421 H428 0.930 . S
H422 C419 0.928 . S
H423 C420 0.931 . S
H424 C400 0.930 . S
H425 C397 0.930 . S
H426 C406 0.930 . S
H427 C418 0.929 . S
H428 C421 0.930 . S
C429 C430 1.351 . S
C429 N432 1.368 . S
C429 H434 0.931 . S
C430 C429 1.351 . S
C430 N431 1.373 . S
C430 H458 0.930 . S
N431 C430 1.373 . S
N431 C433 1.340 . S
N432 C429 1.368 . S
N432 C433 1.321 . S
N432 Co435 2.135 . S
C433 N431 1.340 . S
C433 N432 1.321 . S
C433 H457 0.930 . S
H434 C429 0.931 . S
Co435 N432 2.135 . S
Co435 N438 2.121 . S
Co435 O443 2.055 . S
Co435 O446 2.039 . S
Co435 N449 2.140 . S
C436 O437 1.227 . S
C436 O446 1.265 . S
O437 C436 1.227 . S
N438 Co435 2.121 . S
N438 C440 1.375 . S
N438 C441 1.313 . S
C439 C440 1.338 . S
C439 N442 1.377 . S
C439 H459 0.930 . S
C440 N438 1.375 . S
C440 C439 1.338 . S
C440 H444 0.931 . S
C441 N438 1.313 . S
C441 N442 1.344 . S
C441 H445 0.930 . S
N442 C439 1.377 . S
N442 C441 1.344 . S
O443 Co435 2.055 . S
O443 C447 1.253 . S
H444 C440 0.931 . S
H445 C441 0.930 . S
O446 Co435 2.039 . S
O446 C436 1.265 . S
C447 O443 1.253 . S
C447 O448 1.227 . S
O448 C447 1.227 . S
N449 Co435 2.140 . S
N449 C452 1.346 . S
N449 C453 1.345 . S
C450 C451 1.387 . S
C450 C454 1.391 . S
C451 C450 1.387 . S
C451 C452 1.369 . S
C451 H460 0.929 . S
C452 N449 1.346 . S
C452 C451 1.369 . S
C452 H455 0.928 . S
C453 N449 1.345 . S
C453 C454 1.371 . S
C453 H456 0.931 . S
C454 C450 1.391 . S
C454 C453 1.371 . S
C454 H461 0.930 1_565 S
H455 C452 0.928 . S
H456 C453 0.931 . S
H457 C433 0.930 . S
H458 C430 0.930 . S
H459 C439 0.930 . S
H460 C451 0.929 . S
H461 C454 0.930 1_545 S
C462 C463 1.351 . S
C462 N465 1.368 . S
C462 H467 0.931 . S
C463 C462 1.351 . S
C463 N464 1.373 . S
C463 H491 0.930 . S
N464 C463 1.373 . S
N464 C466 1.340 . S
N465 C462 1.368 . S
N465 C466 1.321 . S
N465 Co468 2.135 . S
C466 N464 1.340 . S
C466 N465 1.321 . S
C466 H490 0.930 . S
H467 C462 0.931 . S
Co468 N465 2.135 . S
Co468 N471 2.121 . S
Co468 O476 2.055 . S
Co468 O479 2.039 . S
Co468 N482 2.140 . S
C469 O470 1.227 . S
C469 O479 1.265 . S
O470 C469 1.227 . S
N471 Co468 2.121 . S
N471 C473 1.375 . S
N471 C474 1.313 . S
C472 C473 1.338 . S
C472 N475 1.377 . S
C472 H492 0.930 . S
C473 N471 1.375 . S
C473 C472 1.338 . S
C473 H477 0.931 . S
C474 N471 1.313 . S
C474 N475 1.344 . S
C474 H478 0.930 . S
N475 C472 1.377 . S
N475 C474 1.344 . S
O476 Co468 2.055 . S
O476 C480 1.253 . S
H477 C473 0.931 . S
H478 C474 0.930 . S
O479 Co468 2.039 . S
O479 C469 1.265 . S
C480 O476 1.253 . S
C480 O481 1.227 . S
O481 C480 1.227 . S
N482 Co468 2.140 . S
N482 C485 1.346 . S
N482 C486 1.345 . S
C483 C484 1.387 . S
C483 C487 1.391 . S
C484 C483 1.387 . S
C484 C485 1.369 . S
C484 H493 0.929 . S
C485 N482 1.346 . S
C485 C484 1.369 . S
C485 H488 0.928 . S
C486 N482 1.345 . S
C486 C487 1.371 . S
C486 H489 0.931 . S
C487 C483 1.391 . S
C487 C486 1.371 . S
C487 H494 0.930 . S
H488 C485 0.928 . S
H489 C486 0.931 . S
H490 C466 0.930 . S
H491 C463 0.930 . S
H492 C472 0.930 . S
H493 C484 0.929 . S
H494 C487 0.930 . S
C495 C496 1.351 . S
C495 N498 1.368 . S
C495 H500 0.931 . S
C496 C495 1.351 . S
C496 N497 1.373 . S
C496 H524 0.930 . S
N497 C496 1.373 . S
N497 C499 1.340 . S
N498 C495 1.368 . S
N498 C499 1.321 . S
N498 Co501 2.135 . S
C499 N497 1.340 . S
C499 N498 1.321 . S
C499 H523 0.930 . S
H500 C495 0.931 . S
Co501 N498 2.135 . S
Co501 N504 2.121 . S
Co501 O509 2.055 . S
Co501 O512 2.039 . S
Co501 N515 2.140 . S
C502 O503 1.227 . S
C502 O512 1.265 . S
O503 C502 1.227 . S
N504 Co501 2.121 . S
N504 C506 1.375 . S
N504 C507 1.313 . S
C505 C506 1.338 . S
C505 N508 1.377 . S
C505 H525 0.930 . S
C506 N504 1.375 . S
C506 C505 1.338 . S
C506 H510 0.931 . S
C507 N504 1.313 . S
C507 N508 1.344 . S
C507 H511 0.930 . S
N508 C505 1.377 . S
N508 C507 1.344 . S
O509 Co501 2.055 . S
O509 C513 1.253 . S
H510 C506 0.931 . S
H511 C507 0.930 . S
O512 Co501 2.039 . S
O512 C502 1.265 . S
C513 O509 1.253 . S
C513 O514 1.227 . S
O514 C513 1.227 . S
N515 Co501 2.140 . S
N515 C518 1.346 . S
N515 C519 1.345 . S
C516 C517 1.387 . S
C516 C520 1.391 . S
C517 C516 1.387 . S
C517 C518 1.369 . S
C517 H526 0.929 . S
C518 N515 1.346 . S
C518 C517 1.369 . S
C518 H521 0.928 . S
C519 N515 1.345 . S
C519 C520 1.371 . S
C519 H522 0.931 . S
C520 C516 1.391 . S
C520 C519 1.371 . S
C520 H527 0.930 1_545 S
H521 C518 0.928 . S
H522 C519 0.931 . S
H523 C499 0.930 . S
H524 C496 0.930 . S
H525 C505 0.930 . S
H526 C517 0.929 . S
H527 C520 0.930 1_565 S
C528 C529 1.351 . S
C528 N531 1.368 . S
C528 H533 0.931 . S
C529 C528 1.351 . S
C529 N530 1.373 . S
C529 H557 0.930 . S
N530 C529 1.373 . S
N530 C532 1.340 . S
N531 C528 1.368 . S
N531 C532 1.321 . S
N531 Co534 2.135 . S
C532 N530 1.340 . S
C532 N531 1.321 . S
C532 H556 0.930 . S
H533 C528 0.931 . S
Co534 N531 2.135 . S
Co534 N537 2.121 . S
Co534 O542 2.055 . S
Co534 O545 2.039 . S
Co534 N548 2.140 . S
C535 O536 1.227 . S
C535 O545 1.265 . S
O536 C535 1.227 . S
N537 Co534 2.121 . S
N537 C539 1.375 . S
N537 C540 1.313 . S
C538 C539 1.338 . S
C538 N541 1.377 . S
C538 H558 0.930 . S
C539 N537 1.375 . S
C539 C538 1.338 . S
C539 H543 0.931 . S
C540 N537 1.313 . S
C540 N541 1.344 . S
C540 H544 0.930 . S
N541 C538 1.377 . S
N541 C540 1.344 . S
O542 Co534 2.055 . S
O542 C546 1.253 . S
H543 C539 0.931 . S
H544 C540 0.930 . S
O545 Co534 2.039 . S
O545 C535 1.265 . S
C546 O542 1.253 . S
C546 O547 1.227 . S
O547 C546 1.227 . S
N548 Co534 2.140 . S
N548 C551 1.346 . S
N548 C552 1.345 . S
C549 C550 1.387 . S
C549 C553 1.391 . S
C550 C549 1.387 . S
C550 C551 1.369 . S
C550 H559 0.929 . S
C551 N548 1.346 . S
C551 C550 1.369 . S
C551 H554 0.928 . S
C552 N548 1.345 . S
C552 C553 1.371 . S
C552 H555 0.931 . S
C553 C549 1.391 . S
C553 C552 1.371 . S
C553 H560 0.930 . S
H554 C551 0.928 . S
H555 C552 0.931 . S
H556 C532 0.930 . S
H557 C529 0.930 . S
H558 C538 0.930 . S
H559 C550 0.929 . S
H560 C553 0.930 . S
C561 C562 1.351 . S
C561 N564 1.368 . S
C561 H566 0.931 . S
C562 C561 1.351 . S
C562 N563 1.373 . S
C562 H590 0.930 . S
N563 C562 1.373 . S
N563 C565 1.340 . S
N564 C561 1.368 . S
N564 C565 1.321 . S
N564 Co567 2.135 . S
C565 N563 1.340 . S
C565 N564 1.321 . S
C565 H589 0.930 . S
H566 C561 0.931 . S
Co567 N564 2.135 . S
Co567 N570 2.121 . S
Co567 O575 2.055 . S
Co567 O578 2.039 . S
Co567 N581 2.140 . S
C568 O569 1.227 . S
C568 O578 1.265 . S
O569 C568 1.227 . S
N570 Co567 2.121 . S
N570 C572 1.375 . S
N570 C573 1.313 . S
C571 C572 1.338 . S
C571 N574 1.377 . S
C571 H591 0.930 . S
C572 N570 1.375 . S
C572 C571 1.338 . S
C572 H576 0.931 . S
C573 N570 1.313 . S
C573 N574 1.344 . S
C573 H577 0.930 . S
N574 C571 1.377 . S
N574 C573 1.344 . S
O575 Co567 2.055 . S
O575 C579 1.253 . S
H576 C572 0.931 . S
H577 C573 0.930 . S
O578 Co567 2.039 . S
O578 C568 1.265 . S
C579 O575 1.253 . S
C579 O580 1.227 . S
O580 C579 1.227 . S
N581 Co567 2.140 . S
N581 C584 1.346 . S
N581 C585 1.345 . S
C582 C583 1.387 . S
C582 C586 1.391 . S
C583 C582 1.387 . S
C583 C584 1.369 . S
C583 H592 0.929 . S
C584 N581 1.346 . S
C584 C583 1.369 . S
C584 H587 0.928 . S
C585 N581 1.345 . S
C585 C586 1.371 . S
C585 H588 0.931 . S
C586 C582 1.391 . S
C586 C585 1.371 . S
C586 H593 0.930 . S
H587 C584 0.928 . S
H588 C585 0.931 . S
H589 C565 0.930 . S
H590 C562 0.930 . S
H591 C571 0.930 . S
H592 C583 0.929 . S
H593 C586 0.930 . S
C594 C595 1.351 . S
C594 N597 1.368 . S
C594 H599 0.931 . S
C595 C594 1.351 . S
C595 N596 1.373 . S
C595 H623 0.930 . S
N596 C595 1.373 . S
N596 C598 1.340 . S
N597 C594 1.368 . S
N597 C598 1.321 . S
N597 Co600 2.135 . S
C598 N596 1.340 . S
C598 N597 1.321 . S
C598 H622 0.930 . S
H599 C594 0.931 . S
Co600 N597 2.135 . S
Co600 N603 2.121 . S
Co600 O608 2.055 . S
Co600 O611 2.039 . S
Co600 N614 2.140 . S
C601 O602 1.227 . S
C601 O611 1.265 . S
O602 C601 1.227 . S
N603 Co600 2.121 . S
N603 C605 1.375 . S
N603 C606 1.313 . S
C604 C605 1.338 . S
C604 N607 1.377 . S
C604 H624 0.930 . S
C605 N603 1.375 . S
C605 C604 1.338 . S
C605 H609 0.931 . S
C606 N603 1.313 . S
C606 N607 1.344 . S
C606 H610 0.930 . S
N607 C604 1.377 . S
N607 C606 1.344 . S
O608 Co600 2.055 . S
O608 C612 1.253 . S
H609 C605 0.931 . S
H610 C606 0.930 . S
O611 Co600 2.039 . S
O611 C601 1.265 . S
C612 O608 1.253 . S
C612 O613 1.227 . S
O613 C612 1.227 . S
N614 Co600 2.140 . S
N614 C617 1.346 . S
N614 C618 1.345 . S
C615 C616 1.387 . S
C615 C619 1.391 . S
C616 C615 1.387 . S
C616 C617 1.369 . S
C616 H625 0.929 . S
C617 N614 1.346 . S
C617 C616 1.369 . S
C617 H620 0.928 . S
C618 N614 1.345 . S
C618 C619 1.371 . S
C618 H621 0.931 . S
C619 C615 1.391 . S
C619 C618 1.371 . S
C619 H626 0.930 . S
H620 C617 0.928 . S
H621 C618 0.931 . S
H622 C598 0.930 . S
H623 C595 0.930 . S
H624 C604 0.930 . S
H625 C616 0.929 . S
H626 C619 0.930 . S
C627 C628 1.351 . S
C627 N630 1.368 . S
C627 H632 0.931 . S
C628 C627 1.351 . S
C628 N629 1.373 . S
C628 H656 0.930 . S
N629 C628 1.373 . S
N629 C631 1.340 . S
N630 C627 1.368 . S
N630 C631 1.321 . S
N630 Co633 2.135 . S
C631 N629 1.340 . S
C631 N630 1.321 . S
C631 H655 0.930 . S
H632 C627 0.931 . S
Co633 N630 2.135 . S
Co633 N636 2.121 . S
Co633 O641 2.055 . S
Co633 O644 2.039 . S
Co633 N647 2.140 . S
C634 O635 1.227 . S
C634 O644 1.265 . S
O635 C634 1.227 . S
N636 Co633 2.121 . S
N636 C638 1.375 . S
N636 C639 1.313 . S
C637 C638 1.338 . S
C637 N640 1.377 . S
C637 H657 0.930 . S
C638 N636 1.375 . S
C638 C637 1.338 . S
C638 H642 0.931 . S
C639 N636 1.313 . S
C639 N640 1.344 . S
C639 H643 0.930 . S
N640 C637 1.377 . S
N640 C639 1.344 . S
O641 Co633 2.055 . S
O641 C645 1.253 . S
H642 C638 0.931 . S
H643 C639 0.930 . S
O644 Co633 2.039 . S
O644 C634 1.265 . S
C645 O641 1.253 . S
C645 O646 1.227 . S
O646 C645 1.227 . S
N647 Co633 2.140 . S
N647 C650 1.346 . S
N647 C651 1.345 . S
C648 C649 1.387 . S
C648 C652 1.391 . S
C649 C648 1.387 . S
C649 C650 1.369 . S
C649 H658 0.929 . S
C650 N647 1.346 . S
C650 C649 1.369 . S
C650 H653 0.928 . S
C651 N647 1.345 . S
C651 C652 1.371 . S
C651 H654 0.931 . S
C652 C648 1.391 . S
C652 C651 1.371 . S
C652 H659 0.930 . S
H653 C650 0.928 . S
H654 C651 0.931 . S
H655 C631 0.930 . S
H656 C628 0.930 . S
H657 C637 0.930 . S
H658 C649 0.929 . S
H659 C652 0.930 . S
C660 C661 1.351 . S
C660 N663 1.368 . S
C660 H665 0.931 . S
C661 C660 1.351 . S
C661 N662 1.373 . S
C661 H689 0.930 . S
N662 C661 1.373 . S
N662 C664 1.340 . S
N663 C660 1.368 . S
N663 C664 1.321 . S
N663 Co666 2.135 . S
C664 N662 1.340 . S
C664 N663 1.321 . S
C664 H688 0.930 . S
H665 C660 0.931 . S
Co666 N663 2.135 . S
Co666 N669 2.121 . S
Co666 O674 2.055 . S
Co666 O677 2.039 . S
Co666 N680 2.140 . S
C667 O668 1.227 . S
C667 O677 1.265 . S
O668 C667 1.227 . S
N669 Co666 2.121 . S
N669 C671 1.375 . S
N669 C672 1.313 . S
C670 C671 1.338 . S
C670 N673 1.377 . S
C670 H690 0.930 . S
C671 N669 1.375 . S
C671 C670 1.338 . S
C671 H675 0.931 . S
C672 N669 1.313 . S
C672 N673 1.344 . S
C672 H676 0.930 . S
N673 C670 1.377 . S
N673 C672 1.344 . S
O674 Co666 2.055 . S
O674 C678 1.253 . S
H675 C671 0.931 . S
H676 C672 0.930 . S
O677 Co666 2.039 . S
O677 C667 1.265 . S
C678 O674 1.253 . S
C678 O679 1.227 . S
O679 C678 1.227 . S
N680 Co666 2.140 . S
N680 C683 1.346 . S
N680 C684 1.345 . S
C681 C682 1.387 . S
C681 C685 1.391 . S
C682 C681 1.387 . S
C682 C683 1.369 . S
C682 H691 0.929 . S
C683 N680 1.346 . S
C683 C682 1.369 . S
C683 H686 0.928 . S
C684 N680 1.345 . S
C684 C685 1.371 . S
C684 H687 0.931 . S
C685 C681 1.391 . S
C685 C684 1.371 . S
C685 H692 0.930 . S
H686 C683 0.928 . S
H687 C684 0.931 . S
H688 C664 0.930 . S
H689 C661 0.930 . S
H690 C670 0.930 . S
H691 C682 0.929 . S
H692 C685 0.930 . S
C693 C694 1.351 . S
C693 N696 1.368 . S
C693 H698 0.931 . S
C694 C693 1.351 . S
C694 N695 1.373 . S
C694 H722 0.930 . S
N695 C694 1.373 . S
N695 C697 1.340 . S
N696 C693 1.368 . S
N696 C697 1.321 . S
N696 Co699 2.135 . S
C697 N695 1.340 . S
C697 N696 1.321 . S
C697 H721 0.930 . S
H698 C693 0.931 . S
Co699 N696 2.135 . S
Co699 N702 2.121 . S
Co699 O707 2.055 . S
Co699 O710 2.039 . S
Co699 N713 2.140 . S
C700 O701 1.227 . S
C700 O710 1.265 . S
O701 C700 1.227 . S
N702 Co699 2.121 . S
N702 C704 1.375 . S
N702 C705 1.313 . S
C703 C704 1.338 . S
C703 N706 1.377 . S
C703 H723 0.930 . S
C704 N702 1.375 . S
C704 C703 1.338 . S
C704 H708 0.931 . S
C705 N702 1.313 . S
C705 N706 1.344 . S
C705 H709 0.930 . S
N706 C703 1.377 . S
N706 C705 1.344 . S
O707 Co699 2.055 . S
O707 C711 1.253 . S
H708 C704 0.931 . S
H709 C705 0.930 . S
O710 Co699 2.039 . S
O710 C700 1.265 . S
C711 O707 1.253 . S
C711 O712 1.227 . S
O712 C711 1.227 . S
N713 Co699 2.140 . S
N713 C716 1.346 . S
N713 C717 1.345 . S
C714 C715 1.387 . S
C714 C718 1.391 . S
C715 C714 1.387 . S
C715 C716 1.369 . S
C715 H724 0.929 . S
C716 N713 1.346 . S
C716 C715 1.369 . S
C716 H719 0.928 . S
C717 N713 1.345 . S
C717 C718 1.371 . S
C717 H720 0.931 . S
C718 C714 1.391 . S
C718 C717 1.371 . S
C718 H725 0.930 . S
H719 C716 0.928 . S
H720 C717 0.931 . S
H721 C697 0.930 . S
H722 C694 0.930 . S
H723 C703 0.930 . S
H724 C715 0.929 . S
H725 C718 0.930 . S
C726 C727 1.351 . S
C726 N729 1.368 . S
C726 H731 0.931 . S
C727 C726 1.351 . S
C727 N728 1.373 . S
C727 H755 0.930 . S
N728 C727 1.373 . S
N728 C730 1.340 . S
N729 C726 1.368 . S
N729 C730 1.321 . S
N729 Co732 2.135 . S
C730 N728 1.340 . S
C730 N729 1.321 . S
C730 H754 0.930 . S
H731 C726 0.931 . S
Co732 N729 2.135 . S
Co732 N735 2.121 . S
Co732 O740 2.055 . S
Co732 O743 2.039 . S
Co732 N746 2.140 . S
C733 O734 1.227 . S
C733 O743 1.265 . S
O734 C733 1.227 . S
N735 Co732 2.121 . S
N735 C737 1.375 . S
N735 C738 1.313 . S
C736 C737 1.338 . S
C736 N739 1.377 . S
C736 H756 0.930 . S
C737 N735 1.375 . S
C737 C736 1.338 . S
C737 H741 0.931 . S
C738 N735 1.313 . S
C738 N739 1.344 . S
C738 H742 0.930 . S
N739 C736 1.377 . S
N739 C738 1.344 . S
O740 Co732 2.055 . S
O740 C744 1.253 . S
H741 C737 0.931 . S
H742 C738 0.930 . S
O743 Co732 2.039 . S
O743 C733 1.265 . S
C744 O740 1.253 . S
C744 O745 1.227 . S
O745 C744 1.227 . S
N746 Co732 2.140 . S
N746 C749 1.346 . S
N746 C750 1.345 . S
C747 C748 1.387 . S
C747 C751 1.391 . S
C748 C747 1.387 . S
C748 C749 1.369 . S
C748 H757 0.929 . S
C749 N746 1.346 . S
C749 C748 1.369 . S
C749 H752 0.928 . S
C750 N746 1.345 . S
C750 C751 1.371 . S
C750 H753 0.931 . S
C751 C747 1.391 . S
C751 C750 1.371 . S
C751 H758 0.930 . S
H752 C749 0.928 . S
H753 C750 0.931 . S
H754 C730 0.930 . S
H755 C727 0.930 . S
H756 C736 0.930 . S
H757 C748 0.929 . S
H758 C751 0.930 . S
C759 C760 1.351 . S
C759 N762 1.368 . S
C759 H764 0.931 . S
C760 C759 1.351 . S
C760 N761 1.373 . S
C760 H788 0.930 . S
N761 C760 1.373 . S
N761 C763 1.340 . S
N762 C759 1.368 . S
N762 C763 1.321 . S
N762 Co765 2.135 . S
C763 N761 1.340 . S
C763 N762 1.321 . S
C763 H787 0.930 . S
H764 C759 0.931 . S
Co765 N762 2.135 . S
Co765 N768 2.121 . S
Co765 O773 2.055 . S
Co765 O776 2.039 . S
Co765 N779 2.140 . S
C766 O767 1.227 . S
C766 O776 1.265 . S
O767 C766 1.227 . S
N768 Co765 2.121 . S
N768 C770 1.375 . S
N768 C771 1.313 . S
C769 C770 1.338 . S
C769 N772 1.377 . S
C769 H789 0.930 . S
C770 N768 1.375 . S
C770 C769 1.338 . S
C770 H774 0.931 . S
C771 N768 1.313 . S
C771 N772 1.344 . S
C771 H775 0.930 . S
N772 C769 1.377 . S
N772 C771 1.344 . S
O773 Co765 2.055 . S
O773 C777 1.253 . S
H774 C770 0.931 . S
H775 C771 0.930 . S
O776 Co765 2.039 . S
O776 C766 1.265 . S
C777 O773 1.253 . S
C777 O778 1.227 . S
O778 C777 1.227 . S
N779 Co765 2.140 . S
N779 C782 1.346 . S
N779 C783 1.345 . S
C780 C781 1.387 . S
C780 C784 1.391 . S
C781 C780 1.387 . S
C781 C782 1.369 . S
C781 H790 0.929 . S
C782 N779 1.346 . S
C782 C781 1.369 . S
C782 H785 0.928 . S
C783 N779 1.345 . S
C783 C784 1.371 . S
C783 H786 0.931 . S
C784 C780 1.391 . S
C784 C783 1.371 . S
C784 H791 0.930 . S
H785 C782 0.928 . S
H786 C783 0.931 . S
H787 C763 0.930 . S
H788 C760 0.930 . S
H789 C769 0.930 . S
H790 C781 0.929 . S
H791 C784 0.930 . S
C792 C793 1.351 . S
C792 N795 1.368 . S
C792 H797 0.931 . S
C793 C792 1.351 . S
C793 N794 1.373 . S
C793 H821 0.930 . S
N794 C793 1.373 . S
N794 C796 1.340 . S
N795 C792 1.368 . S
N795 C796 1.321 . S
N795 Co798 2.135 . S
C796 N794 1.340 . S
C796 N795 1.321 . S
C796 H820 0.930 . S
H797 C792 0.931 . S
Co798 N795 2.135 . S
Co798 N801 2.121 . S
Co798 O806 2.055 . S
Co798 O809 2.039 . S
Co798 N812 2.140 . S
C799 O800 1.227 . S
C799 O809 1.265 . S
O800 C799 1.227 . S
N801 Co798 2.121 . S
N801 C803 1.375 . S
N801 C804 1.313 . S
C802 C803 1.338 . S
C802 N805 1.377 . S
C802 H822 0.930 . S
C803 N801 1.375 . S
C803 C802 1.338 . S
C803 H807 0.931 . S
C804 N801 1.313 . S
C804 N805 1.344 . S
C804 H808 0.930 . S
N805 C802 1.377 . S
N805 C804 1.344 . S
O806 Co798 2.055 . S
O806 C810 1.253 . S
H807 C803 0.931 . S
H808 C804 0.930 . S
O809 Co798 2.039 . S
O809 C799 1.265 . S
C810 O806 1.253 . S
C810 O811 1.227 . S
O811 C810 1.227 . S
N812 Co798 2.140 . S
N812 C815 1.346 . S
N812 C816 1.345 . S
C813 C814 1.387 . S
C813 C817 1.391 . S
C814 C813 1.387 . S
C814 C815 1.369 . S
C814 H823 0.929 . S
C815 N812 1.346 . S
C815 C814 1.369 . S
C815 H818 0.928 . S
C816 N812 1.345 . S
C816 C817 1.371 . S
C816 H819 0.931 . S
C817 C813 1.391 . S
C817 C816 1.371 . S
C817 H824 0.930 . S
H818 C815 0.928 . S
H819 C816 0.931 . S
H820 C796 0.930 . S
H821 C793 0.930 . S
H822 C802 0.930 . S
H823 C814 0.929 . S
H824 C817 0.930 . S
C825 C826 1.351 . S
C825 N828 1.368 . S
C825 H830 0.931 . S
C826 C825 1.351 . S
C826 N827 1.373 . S
C826 H854 0.930 . S
N827 C826 1.373 . S
N827 C829 1.340 . S
N828 C825 1.368 . S
N828 C829 1.321 . S
N828 Co831 2.135 . S
C829 N827 1.340 . S
C829 N828 1.321 . S
C829 H853 0.930 . S
H830 C825 0.931 . S
Co831 N828 2.135 . S
Co831 N834 2.121 . S
Co831 O839 2.055 . S
Co831 O842 2.039 . S
Co831 N845 2.140 . S
C832 O833 1.227 . S
C832 O842 1.265 . S
O833 C832 1.227 . S
N834 Co831 2.121 . S
N834 C836 1.375 . S
N834 C837 1.313 . S
C835 C836 1.338 . S
C835 N838 1.377 . S
C835 H855 0.930 . S
C836 N834 1.375 . S
C836 C835 1.338 . S
C836 H840 0.931 . S
C837 N834 1.313 . S
C837 N838 1.344 . S
C837 H841 0.930 . S
N838 C835 1.377 . S
N838 C837 1.344 . S
O839 Co831 2.055 . S
O839 C843 1.253 . S
H840 C836 0.931 . S
H841 C837 0.930 . S
O842 Co831 2.039 . S
O842 C832 1.265 . S
C843 O839 1.253 . S
C843 O844 1.227 . S
O844 C843 1.227 . S
N845 Co831 2.140 . S
N845 C848 1.346 . S
N845 C849 1.345 . S
C846 C847 1.387 . S
C846 C850 1.391 . S
C847 C846 1.387 . S
C847 C848 1.369 . S
C847 H856 0.929 . S
C848 N845 1.346 . S
C848 C847 1.369 . S
C848 H851 0.928 . S
C849 N845 1.345 . S
C849 C850 1.371 . S
C849 H852 0.931 . S
C850 C846 1.391 . S
C850 C849 1.371 . S
C850 H857 0.930 . S
H851 C848 0.928 . S
H852 C849 0.931 . S
H853 C829 0.930 . S
H854 C826 0.930 . S
H855 C835 0.930 . S
H856 C847 0.929 . S
H857 C850 0.930 . S
C858 C859 1.351 . S
C858 N861 1.368 . S
C858 H863 0.931 . S
C859 C858 1.351 . S
C859 N860 1.373 . S
C859 H887 0.930 . S
N860 C859 1.373 . S
N860 C862 1.340 . S
N861 C858 1.368 . S
N861 C862 1.321 . S
N861 Co864 2.135 . S
C862 N860 1.340 . S
C862 N861 1.321 . S
C862 H886 0.930 . S
H863 C858 0.931 . S
Co864 N861 2.135 . S
Co864 N867 2.121 . S
Co864 O872 2.055 . S
Co864 O875 2.039 . S
Co864 N878 2.140 . S
C865 O866 1.227 . S
C865 O875 1.265 . S
O866 C865 1.227 . S
N867 Co864 2.121 . S
N867 C869 1.375 . S
N867 C870 1.313 . S
C868 C869 1.338 . S
C868 N871 1.377 . S
C868 H888 0.930 . S
C869 N867 1.375 . S
C869 C868 1.338 . S
C869 H873 0.931 . S
C870 N867 1.313 . S
C870 N871 1.344 . S
C870 H874 0.930 . S
N871 C868 1.377 . S
N871 C870 1.344 . S
O872 Co864 2.055 . S
O872 C876 1.253 . S
H873 C869 0.931 . S
H874 C870 0.930 . S
O875 Co864 2.039 . S
O875 C865 1.265 . S
C876 O872 1.253 . S
C876 O877 1.227 . S
O877 C876 1.227 . S
N878 Co864 2.140 . S
N878 C881 1.346 . S
N878 C882 1.345 . S
C879 C880 1.387 . S
C879 C883 1.391 . S
C880 C879 1.387 . S
C880 C881 1.369 . S
C880 H889 0.929 . S
C881 N878 1.346 . S
C881 C880 1.369 . S
C881 H884 0.928 . S
C882 N878 1.345 . S
C882 C883 1.371 . S
C882 H885 0.931 . S
C883 C879 1.391 . S
C883 C882 1.371 . S
C883 H890 0.930 . S
H884 C881 0.928 . S
H885 C882 0.931 . S
H886 C862 0.930 . S
H887 C859 0.930 . S
H888 C868 0.930 . S
H889 C880 0.929 . S
H890 C883 0.930 . S
C891 C892 1.351 . S
C891 N894 1.368 . S
C891 H896 0.931 . S
C892 C891 1.351 . S
C892 N893 1.373 . S
C892 H920 0.930 . S
N893 C892 1.373 . S
N893 C895 1.340 . S
N894 C891 1.368 . S
N894 C895 1.321 . S
N894 Co897 2.135 . S
C895 N893 1.340 . S
C895 N894 1.321 . S
C895 H919 0.930 . S
H896 C891 0.931 . S
Co897 N894 2.135 . S
Co897 N900 2.121 . S
Co897 O905 2.055 . S
Co897 O908 2.039 . S
Co897 N911 2.140 . S
C898 O899 1.227 . S
C898 O908 1.265 . S
O899 C898 1.227 . S
N900 Co897 2.121 . S
N900 C902 1.375 . S
N900 C903 1.313 . S
C901 C902 1.338 . S
C901 N904 1.377 . S
C901 H921 0.930 . S
C902 N900 1.375 . S
C902 C901 1.338 . S
C902 H906 0.931 . S
C903 N900 1.313 . S
C903 N904 1.344 . S
C903 H907 0.930 . S
N904 C901 1.377 . S
N904 C903 1.344 . S
O905 Co897 2.055 . S
O905 C909 1.253 . S
H906 C902 0.931 . S
H907 C903 0.930 . S
O908 Co897 2.039 . S
O908 C898 1.265 . S
C909 O905 1.253 . S
C909 O910 1.227 . S
O910 C909 1.227 . S
N911 Co897 2.140 . S
N911 C914 1.346 . S
N911 C915 1.345 . S
C912 C913 1.387 . S
C912 C916 1.391 . S
C913 C912 1.387 . S
C913 C914 1.369 . S
C913 H922 0.929 . S
C914 N911 1.346 . S
C914 C913 1.369 . S
C914 H917 0.928 . S
C915 N911 1.345 . S
C915 C916 1.371 . S
C915 H918 0.931 . S
C916 C912 1.391 . S
C916 C915 1.371 . S
C916 H923 0.930 . S
H917 C914 0.928 . S
H918 C915 0.931 . S
H919 C895 0.930 . S
H920 C892 0.930 . S
H921 C901 0.930 . S
H922 C913 0.929 . S
H923 C916 0.930 . S
C924 C925 1.351 . S
C924 N927 1.368 . S
C924 H929 0.931 . S
C925 C924 1.351 . S
C925 N926 1.373 . S
C925 H953 0.930 . S
N926 C925 1.373 . S
N926 C928 1.340 . S
N927 C924 1.368 . S
N927 C928 1.321 . S
N927 Co930 2.135 . S
C928 N926 1.340 . S
C928 N927 1.321 . S
C928 H952 0.930 . S
H929 C924 0.931 . S
Co930 N927 2.135 . S
Co930 N933 2.121 . S
Co930 O938 2.055 . S
Co930 O941 2.039 . S
Co930 N944 2.140 . S
C931 O932 1.227 . S
C931 O941 1.265 . S
O932 C931 1.227 . S
N933 Co930 2.121 . S
N933 C935 1.375 . S
N933 C936 1.313 . S
C934 C935 1.338 . S
C934 N937 1.377 . S
C934 H954 0.930 . S
C935 N933 1.375 . S
C935 C934 1.338 . S
C935 H939 0.931 . S
C936 N933 1.313 . S
C936 N937 1.344 . S
C936 H940 0.930 . S
N937 C934 1.377 . S
N937 C936 1.344 . S
O938 Co930 2.055 . S
O938 C942 1.253 . S
H939 C935 0.931 . S
H940 C936 0.930 . S
O941 Co930 2.039 . S
O941 C931 1.265 . S
C942 O938 1.253 . S
C942 O943 1.227 . S
O943 C942 1.227 . S
N944 Co930 2.140 . S
N944 C947 1.346 . S
N944 C948 1.345 . S
C945 C946 1.387 . S
C945 C949 1.391 . S
C946 C945 1.387 . S
C946 C947 1.369 . S
C946 H955 0.929 . S
C947 N944 1.346 . S
C947 C946 1.369 . S
C947 H950 0.928 . S
C948 N944 1.345 . S
C948 C949 1.371 . S
C948 H951 0.931 . S
C949 C945 1.391 . S
C949 C948 1.371 . S
C949 H956 0.930 . S
H950 C947 0.928 . S
H951 C948 0.931 . S
H952 C928 0.930 . S
H953 C925 0.930 . S
H954 C934 0.930 . S
H955 C946 0.929 . S
H956 C949 0.930 . S
C957 C958 1.351 . S
C957 N960 1.368 . S
C957 H962 0.931 . S
C958 C957 1.351 . S
C958 N959 1.373 . S
C958 H986 0.930 . S
N959 C958 1.373 . S
N959 C961 1.340 . S
N960 C957 1.368 . S
N960 C961 1.321 . S
N960 Co963 2.135 . S
C961 N959 1.340 . S
C961 N960 1.321 . S
C961 H985 0.930 . S
H962 C957 0.931 . S
Co963 N960 2.135 . S
Co963 N966 2.121 . S
Co963 O971 2.055 . S
Co963 O974 2.039 . S
Co963 N977 2.140 . S
C964 O965 1.227 . S
C964 O974 1.265 . S
O965 C964 1.227 . S
N966 Co963 2.121 . S
N966 C968 1.375 . S
N966 C969 1.313 . S
C967 C968 1.338 . S
C967 N970 1.377 . S
C967 H987 0.930 . S
C968 N966 1.375 . S
C968 C967 1.338 . S
C968 H972 0.931 . S
C969 N966 1.313 . S
C969 N970 1.344 . S
C969 H973 0.930 . S
N970 C967 1.377 . S
N970 C969 1.344 . S
O971 Co963 2.055 . S
O971 C975 1.253 . S
H972 C968 0.931 . S
H973 C969 0.930 . S
O974 Co963 2.039 . S
O974 C964 1.265 . S
C975 O971 1.253 . S
C975 O976 1.227 . S
O976 C975 1.227 . S
N977 Co963 2.140 . S
N977 C980 1.346 . S
N977 C981 1.345 . S
C978 C979 1.387 . S
C978 C982 1.391 . S
C979 C978 1.387 . S
C979 C980 1.369 . S
C979 H988 0.929 . S
C980 N977 1.346 . S
C980 C979 1.369 . S
C980 H983 0.928 . S
C981 N977 1.345 . S
C981 C982 1.371 . S
C981 H984 0.931 . S
C982 C978 1.391 . S
C982 C981 1.371 . S
C982 H989 0.930 . S
H983 C980 0.928 . S
H984 C981 0.931 . S
H985 C961 0.930 . S
H986 C958 0.930 . S
H987 C967 0.930 . S
H988 C979 0.929 . S
H989 C982 0.930 . S
C990 C991 1.351 . S
C990 N993 1.368 . S
C990 H995 0.931 . S
C991 C990 1.351 . S
C991 N992 1.373 . S
C991 H1019 0.930 . S
N992 C991 1.373 . S
N992 C994 1.340 . S
N993 C990 1.368 . S
N993 C994 1.321 . S
N993 Co996 2.135 . S
C994 N992 1.340 . S
C994 N993 1.321 . S
C994 H1018 0.930 . S
H995 C990 0.931 . S
Co996 N993 2.135 . S
Co996 N999 2.121 . S
Co996 O1004 2.055 . S
Co996 O1007 2.039 . S
Co996 N1010 2.140 . S
C997 O998 1.227 . S
C997 O1007 1.265 . S
O998 C997 1.227 . S
N999 Co996 2.121 . S
N999 C1001 1.375 . S
N999 C1002 1.313 . S
C1000 C1001 1.338 . S
C1000 N1003 1.377 . S
C1000 H1020 0.930 . S
C1001 N999 1.375 . S
C1001 C1000 1.338 . S
C1001 H1005 0.931 . S
C1002 N999 1.313 . S
C1002 N1003 1.344 . S
C1002 H1006 0.930 . S
N1003 C1000 1.377 . S
N1003 C1002 1.344 . S
O1004 Co996 2.055 . S
O1004 C1008 1.253 . S
H1005 C1001 0.931 . S
H1006 C1002 0.930 . S
O1007 Co996 2.039 . S
O1007 C997 1.265 . S
C1008 O1004 1.253 . S
C1008 O1009 1.227 . S
O1009 C1008 1.227 . S
N1010 Co996 2.140 . S
N1010 C1013 1.346 . S
N1010 C1014 1.345 . S
C1011 C1012 1.387 . S
C1011 C1015 1.391 . S
C1012 C1011 1.387 . S
C1012 C1013 1.369 . S
C1012 H1021 0.929 . S
C1013 N1010 1.346 . S
C1013 C1012 1.369 . S
C1013 H1016 0.928 . S
C1014 N1010 1.345 . S
C1014 C1015 1.371 . S
C1014 H1017 0.931 . S
C1015 C1011 1.391 . S
C1015 C1014 1.371 . S
C1015 H1022 0.930 . S
H1016 C1013 0.928 . S
H1017 C1014 0.931 . S
H1018 C994 0.930 . S
H1019 C991 0.930 . S
H1020 C1000 0.930 . S
H1021 C1012 0.929 . S
H1022 C1015 0.930 . S
C1023 C1024 1.351 . S
C1023 N1026 1.368 . S
C1023 H1028 0.931 . S
C1024 C1023 1.351 . S
C1024 N1025 1.373 . S
C1024 H1052 0.930 . S
N1025 C1024 1.373 . S
N1025 C1027 1.340 . S
N1026 C1023 1.368 . S
N1026 C1027 1.321 . S
N1026 Co1029 2.135 . S
C1027 N1025 1.340 . S
C1027 N1026 1.321 . S
C1027 H1051 0.930 . S
H1028 C1023 0.931 . S
Co1029 N1026 2.135 . S
Co1029 N1032 2.121 . S
Co1029 O1037 2.055 . S
Co1029 O1040 2.039 . S
Co1029 N1043 2.140 . S
C1030 O1031 1.227 . S
C1030 O1040 1.265 . S
O1031 C1030 1.227 . S
N1032 Co1029 2.121 . S
N1032 C1034 1.375 . S
N1032 C1035 1.313 . S
C1033 C1034 1.338 . S
C1033 N1036 1.377 . S
C1033 H1053 0.930 . S
C1034 N1032 1.375 . S
C1034 C1033 1.338 . S
C1034 H1038 0.931 . S
C1035 N1032 1.313 . S
C1035 N1036 1.344 . S
C1035 H1039 0.930 . S
N1036 C1033 1.377 . S
N1036 C1035 1.344 . S
O1037 Co1029 2.055 . S
O1037 C1041 1.253 . S
H1038 C1034 0.931 . S
H1039 C1035 0.930 . S
O1040 Co1029 2.039 . S
O1040 C1030 1.265 . S
C1041 O1037 1.253 . S
C1041 O1042 1.227 . S
O1042 C1041 1.227 . S
N1043 Co1029 2.140 . S
N1043 C1046 1.346 . S
N1043 C1047 1.345 . S
C1044 C1045 1.387 . S
C1044 C1048 1.391 . S
C1045 C1044 1.387 . S
C1045 C1046 1.369 . S
C1045 H1054 0.929 . S
C1046 N1043 1.346 . S
C1046 C1045 1.369 . S
C1046 H1049 0.928 . S
C1047 N1043 1.345 . S
C1047 C1048 1.371 . S
C1047 H1050 0.931 . S
C1048 C1044 1.391 . S
C1048 C1047 1.371 . S
C1048 H1055 0.930 . S
H1049 C1046 0.928 . S
H1050 C1047 0.931 . S
H1051 C1027 0.930 . S
H1052 C1024 0.930 . S
H1053 C1033 0.930 . S
H1054 C1045 0.929 . S
H1055 C1048 0.930 . S
C1056 C1057 1.349 1_565 S
C1056 C1058 1.327 . S
C1056 H1081 0.950 1_565 S
C1057 C1056 1.349 1_545 S
C1057 C1073 1.349 . S
C1058 C1056 1.327 . S
C1058 C1077 1.429 . S
C1058 H1082 0.950 . S
C1059 C1076 1.574 . S
C1059 C1078 1.368 . S
C1059 H1083 0.949 . S
H1060 C1064 0.949 . S
C1061 C1062 1.349 . S
C1061 C1063 1.327 . S
C1061 H1084 0.950 . S
C1062 C1061 1.349 . S
C1062 C1074 1.349 . S
C1063 C1061 1.327 . S
C1063 C1079 1.429 . S
C1063 H1085 0.950 . S
C1064 H1060 0.949 . S
C1064 C1072 1.574 . S
C1064 C1080 1.368 . S
H1065 C1073 0.950 . S
H1066 C1071 0.950 . S
H1067 C1072 0.949 . S
H1068 C1074 0.950 . S
H1069 C1075 0.950 . S
H1070 C1076 0.949 . S
C1071 H1066 0.950 . S
C1071 C1073 1.327 1_565 S
C1071 C1077 1.429 . S
C1072 C1064 1.574 . S
C1072 H1067 0.949 . S
C1072 C1078 1.368 . S
C1073 C1057 1.349 . S
C1073 H1065 0.950 . S
C1073 C1071 1.327 1_545 S
C1074 C1062 1.349 . S
C1074 H1068 0.950 . S
C1074 C1075 1.327 . S
C1075 H1069 0.950 . S
C1075 C1074 1.327 . S
C1075 C1079 1.429 . S
C1076 C1059 1.574 . S
C1076 H1070 0.949 . S
C1076 C1080 1.368 . S
C1077 C1058 1.429 . S
C1077 C1071 1.429 . S
C1077 C1078 1.523 . S
C1078 C1059 1.368 . S
C1078 C1072 1.368 . S
C1078 C1077 1.523 . S
C1079 C1063 1.429 . S
C1079 C1075 1.429 . S
C1079 C1080 1.523 . S
C1080 C1064 1.368 . S
C1080 C1076 1.368 . S
C1080 C1079 1.523 . S
H1081 C1056 0.950 1_545 S
H1082 C1058 0.950 . S
H1083 C1059 0.949 . S
H1084 C1061 0.950 . S
H1085 C1063 0.950 . S
C1086 C1087 1.349 . S
C1086 C1088 1.327 . S
C1086 H1111 0.950 . S
C1087 C1086 1.349 . S
C1087 C1103 1.349 . S
C1088 C1086 1.327 . S
C1088 C1107 1.429 . S
C1088 H1112 0.950 . S
C1089 C1106 1.574 . S
C1089 C1108 1.368 . S
C1089 H1113 0.949 . S
H1090 C1094 0.949 1_565 S
C1091 C1092 1.349 1_545 S
C1091 C1093 1.327 . S
C1091 H1114 0.950 . S
C1092 C1091 1.349 1_565 S
C1092 C1104 1.349 . S
C1093 C1091 1.327 . S
C1093 C1109 1.429 . S
C1093 H1115 0.950 . S
C1094 H1090 0.949 1_545 S
C1094 C1102 1.574 . S
C1094 C1110 1.368 . S
H1095 C1103 0.950 . S
H1096 C1101 0.950 . S
H1097 C1102 0.949 . S
H1098 C1104 0.950 . S
H1099 C1105 0.950 . S
H1100 C1106 0.949 . S
C1101 H1096 0.950 . S
C1101 C1103 1.327 . S
C1101 C1107 1.429 . S
C1102 C1094 1.574 . S
C1102 H1097 0.949 . S
C1102 C1108 1.368 . S
C1103 C1087 1.349 . S
C1103 H1095 0.950 . S
C1103 C1101 1.327 . S
C1104 C1092 1.349 . S
C1104 H1098 0.950 . S
C1104 C1105 1.327 . S
C1105 H1099 0.950 . S
C1105 C1104 1.327 . S
C1105 C1109 1.429 1_565 S
C1106 C1089 1.574 . S
C1106 H1100 0.949 . S
C1106 C1110 1.368 . S
C1107 C1088 1.429 . S
C1107 C1101 1.429 . S
C1107 C1108 1.523 . S
C1108 C1089 1.368 . S
C1108 C1102 1.368 . S
C1108 C1107 1.523 . S
C1109 C1093 1.429 . S
C1109 C1105 1.429 1_545 S
C1109 C1110 1.523 . S
C1110 C1094 1.368 . S
C1110 C1106 1.368 . S
C1110 C1109 1.523 . S
H1111 C1086 0.950 . S
H1112 C1088 0.950 . S
H1113 C1089 0.949 . S
H1114 C1091 0.950 . S
H1115 C1093 0.950 . S
C1116 C1117 1.349 . S
C1116 C1118 1.327 1_565 S
C1116 H1141 0.950 . S
C1117 C1116 1.349 . S
C1117 C1133 1.349 1_565 S
C1118 C1116 1.327 1_545 S
C1118 C1137 1.429 . S
C1118 H1142 0.950 . S
C1119 C1136 1.574 . S
C1119 C1138 1.368 . S
C1119 H1143 0.949 . S
H1120 C1124 0.949 . S
C1121 C1122 1.349 . S
C1121 C1123 1.327 . S
C1121 H1144 0.950 . S
C1122 C1121 1.349 . S
C1122 C1134 1.349 . S
C1123 C1121 1.327 . S
C1123 C1139 1.429 . S
C1123 H1145 0.950 . S
C1124 H1120 0.949 . S
C1124 C1132 1.574 . S
C1124 C1140 1.368 . S
H1125 C1133 0.950 1_565 S
H1126 C1131 0.950 . S
H1127 C1132 0.949 . S
H1128 C1134 0.950 . S
H1129 C1135 0.950 . S
H1130 C1136 0.949 . S
C1131 H1126 0.950 . S
C1131 C1133 1.327 . S
C1131 C1137 1.429 . S
C1132 C1124 1.574 . S
C1132 H1127 0.949 . S
C1132 C1138 1.368 . S
C1133 C1117 1.349 1_545 S
C1133 H1125 0.950 1_545 S
C1133 C1131 1.327 . S
C1134 C1122 1.349 . S
C1134 H1128 0.950 . S
C1134 C1135 1.327 . S
C1135 H1129 0.950 . S
C1135 C1134 1.327 . S
C1135 C1139 1.429 . S
C1136 C1119 1.574 . S
C1136 H1130 0.949 . S
C1136 C1140 1.368 . S
C1137 C1118 1.429 . S
C1137 C1131 1.429 . S
C1137 C1138 1.523 . S
C1138 C1119 1.368 . S
C1138 C1132 1.368 . S
C1138 C1137 1.523 . S
C1139 C1123 1.429 . S
C1139 C1135 1.429 . S
C1139 C1140 1.523 . S
C1140 C1124 1.368 . S
C1140 C1136 1.368 . S
C1140 C1139 1.523 . S
H1141 C1116 0.950 . S
H1142 C1118 0.950 . S
H1143 C1119 0.949 . S
H1144 C1121 0.950 . S
H1145 C1123 0.950 . S
C1146 C1147 1.349 . S
C1146 C1148 1.327 . S
C1146 H1171 0.950 . S
C1147 C1146 1.349 . S
C1147 C1163 1.349 . S
C1148 C1146 1.327 . S
C1148 C1167 1.429 . S
C1148 H1172 0.950 . S
C1149 C1166 1.574 . S
C1149 C1168 1.368 . S
C1149 H1173 0.956 . S
H1150 C1154 0.949 . S
C1151 C1152 1.349 . S
C1151 C1153 1.327 1_655 S
C1151 H1174 0.950 . S
C1152 C1151 1.349 . S
C1152 C1164 1.349 1_545 S
C1153 C1151 1.327 1_455 S
C1153 C1169 1.429 1_545 S
C1153 H1175 0.950 . S
C1154 H1150 0.949 . S
C1154 C1162 1.574 . S
C1154 C1170 1.368 . S
H1155 C1163 0.950 . S
H1156 C1161 0.950 . S
H1157 C1162 0.949 . S
H1158 C1164 0.950 . S
H1159 C1165 0.950 . S
H1160 C1166 0.949 1_545 S
C1161 H1156 0.950 . S
C1161 C1163 1.327 . S
C1161 C1167 1.429 . S
C1162 C1154 1.574 . S
C1162 H1157 0.949 . S
C1162 C1168 1.368 . S
C1163 C1147 1.349 . S
C1163 H1155 0.950 . S
C1163 C1161 1.327 . S
C1164 C1152 1.349 1_565 S
C1164 H1158 0.950 . S
C1164 C1165 1.327 1_655 S
C1165 H1159 0.950 . S
C1165 C1164 1.327 1_455 S
C1165 C1169 1.429 . S
C1166 C1149 1.574 . S
C1166 H1160 0.949 1_565 S
C1166 C1170 1.368 . S
C1167 C1148 1.429 . S
C1167 C1161 1.429 . S
C1167 C1168 1.523 . S
C1168 C1149 1.368 . S
C1168 C1162 1.368 . S
C1168 C1167 1.523 . S
C1169 C1153 1.429 1_565 S
C1169 C1165 1.429 . S
C1169 C1170 1.523 . S
C1170 C1154 1.368 . S
C1170 C1166 1.368 . S
C1170 C1169 1.523 . S
H1171 C1146 0.950 . S
H1172 C1148 0.950 . S
H1173 C1149 0.956 . S
H1174 C1151 0.950 . S
H1175 C1153 0.950 . S
C1176 C1177 1.349 . S
C1176 C1178 1.327 . S
C1176 H1201 0.950 . S
C1177 C1176 1.349 . S
C1177 C1193 1.349 . S
C1178 C1176 1.327 . S
C1178 C1197 1.429 . S
C1178 H1202 0.950 . S
C1179 C1196 1.574 . S
C1179 C1198 1.368 . S
C1179 H1203 0.949 . S
H1180 C1184 0.949 . S
C1181 C1182 1.349 1_545 S
C1181 C1183 1.327 . S
C1181 H1204 0.950 1_545 S
C1182 C1181 1.349 1_565 S
C1182 C1194 1.349 . S
C1183 C1181 1.327 . S
C1183 C1199 1.429 . S
C1183 H1205 0.950 . S
C1184 H1180 0.949 . S
C1184 C1192 1.574 . S
C1184 C1200 1.368 . S
H1185 C1193 0.950 . S
H1186 C1191 0.950 . S
H1187 C1192 0.949 . S
H1188 C1194 0.950 . S
H1189 C1195 0.950 . S
H1190 C1196 0.949 . S
C1191 H1186 0.950 . S
C1191 C1193 1.327 . S
C1191 C1197 1.429 . S
C1192 C1184 1.574 . S
C1192 H1187 0.949 . S
C1192 C1198 1.368 . S
C1193 C1177 1.349 . S
C1193 H1185 0.950 . S
C1193 C1191 1.327 . S
C1194 C1182 1.349 . S
C1194 H1188 0.950 . S
C1194 C1195 1.327 1_565 S
C1195 H1189 0.950 . S
C1195 C1194 1.327 1_545 S
C1195 C1199 1.429 . S
C1196 C1179 1.574 . S
C1196 H1190 0.949 . S
C1196 C1200 1.368 . S
C1197 C1178 1.429 . S
C1197 C1191 1.429 . S
C1197 C1198 1.523 . S
C1198 C1179 1.368 . S
C1198 C1192 1.368 . S
C1198 C1197 1.523 . S
C1199 C1183 1.429 . S
C1199 C1195 1.429 . S
C1199 C1200 1.523 . S
C1200 C1184 1.368 . S
C1200 C1196 1.368 . S
C1200 C1199 1.523 . S
H1201 C1176 0.950 . S
H1202 C1178 0.950 . S
H1203 C1179 0.949 . S
H1204 C1181 0.950 1_565 S
H1205 C1183 0.950 . S
C1206 C1207 1.349 . S
C1206 C1208 1.327 . S
C1206 H1231 0.950 . S
C1207 C1206 1.349 . S
C1207 C1223 1.349 . S
C1208 C1206 1.327 . S
C1208 C1227 1.429 . S
C1208 H1232 0.950 . S
C1209 C1226 1.574 . S
C1209 C1228 1.368 . S
C1209 H1233 0.950 . S
H1210 C1214 0.949 . S
C1211 C1212 1.349 . S
C1211 C1213 1.327 1_655 S
C1211 H1234 0.950 . S
C1212 C1211 1.349 . S
C1212 C1224 1.349 1_565 S
C1213 C1211 1.327 1_455 S
C1213 C1229 1.429 1_565 S
C1213 H1235 0.950 . S
C1214 H1210 0.949 . S
C1214 C1222 1.574 . S
C1214 C1230 1.368 . S
H1215 C1223 0.950 . S
H1216 C1221 0.950 . S
H1217 C1222 0.949 . S
H1218 C1224 0.950 . S
H1219 C1225 0.950 . S
H1220 C1226 0.949 1_565 S
C1221 H1216 0.950 . S
C1221 C1223 1.327 . S
C1221 C1227 1.429 . S
C1222 C1214 1.574 . S
C1222 H1217 0.949 . S
C1222 C1228 1.368 . S
C1223 C1207 1.349 . S
C1223 H1215 0.950 . S
C1223 C1221 1.327 . S
C1224 C1212 1.349 1_545 S
C1224 H1218 0.950 . S
C1224 C1225 1.327 1_655 S
C1225 H1219 0.950 . S
C1225 C1224 1.327 1_455 S
C1225 C1229 1.429 . S
C1226 C1209 1.574 . S
C1226 H1220 0.949 1_545 S
C1226 C1230 1.368 . S
C1227 C1208 1.429 . S
C1227 C1221 1.429 . S
C1227 C1228 1.523 . S
C1228 C1209 1.368 . S
C1228 C1222 1.368 . S
C1228 C1227 1.523 . S
C1229 C1213 1.429 1_545 S
C1229 C1225 1.429 . S
C1229 C1230 1.523 . S
C1230 C1214 1.368 . S
C1230 C1226 1.368 . S
C1230 C1229 1.523 . S
H1231 C1206 0.950 . S
H1232 C1208 0.950 . S
H1233 C1209 0.950 . S
H1234 C1211 0.950 . S
H1235 C1213 0.950 . S
C1236 C1237 1.349 . S
C1236 C1238 1.327 1_545 S
C1236 H1261 0.950 . S
C1237 C1236 1.349 . S
C1237 C1253 1.349 1_545 S
C1238 C1236 1.327 1_565 S
C1238 C1257 1.429 . S
C1238 H1262 0.950 . S
C1239 C1256 1.574 . S
C1239 C1258 1.368 . S
C1239 H1263 0.949 . S
H1240 C1244 0.949 . S
C1241 C1242 1.349 . S
C1241 C1243 1.327 . S
C1241 H1264 0.950 . S
C1242 C1241 1.349 . S
C1242 C1254 1.349 . S
C1243 C1241 1.327 . S
C1243 C1259 1.429 . S
C1243 H1265 0.950 . S
C1244 H1240 0.949 . S
C1244 C1252 1.574 . S
C1244 C1260 1.368 . S
H1245 C1253 0.950 1_545 S
H1246 C1251 0.950 . S
H1247 C1252 0.949 . S
H1248 C1254 0.950 . S
H1249 C1255 0.950 . S
H1250 C1256 0.949 . S
C1251 H1246 0.950 . S
C1251 C1253 1.327 . S
C1251 C1257 1.429 . S
C1252 C1244 1.574 . S
C1252 H1247 0.949 . S
C1252 C1258 1.368 . S
C1253 C1237 1.349 1_565 S
C1253 H1245 0.950 1_565 S
C1253 C1251 1.327 . S
C1254 C1242 1.349 . S
C1254 H1248 0.950 . S
C1254 C1255 1.327 . S
C1255 H1249 0.950 . S
C1255 C1254 1.327 . S
C1255 C1259 1.429 . S
C1256 C1239 1.574 . S
C1256 H1250 0.949 . S
C1256 C1260 1.368 . S
C1257 C1238 1.429 . S
C1257 C1251 1.429 . S
C1257 C1258 1.523 . S
C1258 C1239 1.368 . S
C1258 C1252 1.368 . S
C1258 C1257 1.523 . S
C1259 C1243 1.429 . S
C1259 C1255 1.429 . S
C1259 C1260 1.523 . S
C1260 C1244 1.368 . S
C1260 C1256 1.368 . S
C1260 C1259 1.523 . S
H1261 C1236 0.950 . S
H1262 C1238 0.950 . S
H1263 C1239 0.949 . S
H1264 C1241 0.950 . S
H1265 C1243 0.950 . S
C1266 C1267 1.349 1_565 S
C1266 C1268 1.327 . S
C1266 H1291 0.950 . S
C1267 C1266 1.349 1_545 S
C1267 C1283 1.349 . S
C1268 C1266 1.327 . S
C1268 C1287 1.429 . S
C1268 H1292 0.950 . S
C1269 C1286 1.574 . S
C1269 C1288 1.368 . S
C1269 H1293 0.949 1_565 S
H1270 C1274 0.949 . S
C1271 C1272 1.349 . S
C1271 C1273 1.327 . S
C1271 H1294 0.950 . S
C1272 C1271 1.349 . S
C1272 C1284 1.349 . S
C1273 C1271 1.327 . S
C1273 C1289 1.429 . S
C1273 H1295 0.950 . S
C1274 H1270 0.949 . S
C1274 C1282 1.574 . S
C1274 C1290 1.368 . S
H1275 C1283 0.950 . S
H1276 C1281 0.950 . S
H1277 C1282 0.949 . S
H1278 C1284 0.950 . S
H1279 C1285 0.950 . S
H1280 C1286 0.949 . S
C1281 H1276 0.950 . S
C1281 C1283 1.327 . S
C1281 C1287 1.429 1_545 S
C1282 C1274 1.574 . S
C1282 H1277 0.949 . S
C1282 C1288 1.368 . S
C1283 C1267 1.349 . S
C1283 H1275 0.950 . S
C1283 C1281 1.327 . S
C1284 C1272 1.349 . S
C1284 H1278 0.950 . S
C1284 C1285 1.327 . S
C1285 H1279 0.950 . S
C1285 C1284 1.327 . S
C1285 C1289 1.429 . S
C1286 C1269 1.574 . S
C1286 H1280 0.949 . S
C1286 C1290 1.368 . S
C1287 C1268 1.429 . S
C1287 C1281 1.429 1_565 S
C1287 C1288 1.523 . S
C1288 C1269 1.368 . S
C1288 C1282 1.368 . S
C1288 C1287 1.523 . S
C1289 C1273 1.429 . S
C1289 C1285 1.429 . S
C1289 C1290 1.523 . S
C1290 C1274 1.368 . S
C1290 C1286 1.368 . S
C1290 C1289 1.523 . S
H1291 C1266 0.950 . S
H1292 C1268 0.950 . S
H1293 C1269 0.949 1_545 S
H1294 C1271 0.950 . S
H1295 C1273 0.950 . S
C1296 C1297 1.349 . S
C1296 C1298 1.327 . S
C1296 H1321 0.950 . S
C1297 C1296 1.349 . S
C1297 C1313 1.349 . S
C1298 C1296 1.327 . S
C1298 C1317 1.429 . S
C1298 H1322 0.950 . S
C1299 C1316 1.574 . S
C1299 C1318 1.368 . S
C1299 H1323 0.949 . S
H1300 C1304 0.949 . S
C1301 C1302 1.349 1_545 S
C1301 C1303 1.327 . S
C1301 H1324 0.950 1_545 S
C1302 C1301 1.349 1_565 S
C1302 C1314 1.349 . S
C1303 C1301 1.327 . S
C1303 C1319 1.429 . S
C1303 H1325 0.950 . S
C1304 H1300 0.949 . S
C1304 C1312 1.574 . S
C1304 C1320 1.368 . S
H1305 C1313 0.950 . S
H1306 C1311 0.950 . S
H1307 C1312 0.949 . S
H1308 C1314 0.950 . S
H1309 C1315 0.950 . S
H1310 C1316 0.949 . S
C1311 H1306 0.950 . S
C1311 C1313 1.327 . S
C1311 C1317 1.429 . S
C1312 C1304 1.574 . S
C1312 H1307 0.949 . S
C1312 C1318 1.368 . S
C1313 C1297 1.349 . S
C1313 H1305 0.950 . S
C1313 C1311 1.327 . S
C1314 C1302 1.349 . S
C1314 H1308 0.950 . S
C1314 C1315 1.327 1_565 S
C1315 H1309 0.950 . S
C1315 C1314 1.327 1_545 S
C1315 C1319 1.429 . S
C1316 C1299 1.574 . S
C1316 H1310 0.949 . S
C1316 C1320 1.368 . S
C1317 C1298 1.429 . S
C1317 C1311 1.429 . S
C1317 C1318 1.523 . S
C1318 C1299 1.368 . S
C1318 C1312 1.368 . S
C1318 C1317 1.523 . S
C1319 C1303 1.429 . S
C1319 C1315 1.429 . S
C1319 C1320 1.523 . S
C1320 C1304 1.368 . S
C1320 C1316 1.368 . S
C1320 C1319 1.523 . S
H1321 C1296 0.950 . S
H1322 C1298 0.950 . S
H1323 C1299 0.949 . S
H1324 C1301 0.950 1_565 S
H1325 C1303 0.950 . S
C1326 C1327 1.349 . S
C1326 C1328 1.327 . S
C1326 H1351 0.950 . S
C1327 C1326 1.349 . S
C1327 C1343 1.349 . S
C1328 C1326 1.327 . S
C1328 C1347 1.429 . S
C1328 H1352 0.950 . S
C1329 C1346 1.574 . S
C1329 C1348 1.368 . S
C1329 H1353 0.949 . S
H1330 C1334 0.949 . S
C1331 C1332 1.349 . S
C1331 C1333 1.327 . S
C1331 H1354 0.950 . S
C1332 C1331 1.349 . S
C1332 C1344 1.349 1_545 S
C1333 C1331 1.327 . S
C1333 C1349 1.429 1_545 S
C1333 H1355 0.950 . S
C1334 H1330 0.949 . S
C1334 C1342 1.574 . S
C1334 C1350 1.368 . S
H1335 C1343 0.950 . S
H1336 C1341 0.950 . S
H1337 C1342 0.949 . S
H1338 C1344 0.950 . S
H1339 C1345 0.950 . S
H1340 C1346 0.949 1_545 S
C1341 H1336 0.950 . S
C1341 C1343 1.327 . S
C1341 C1347 1.429 . S
C1342 C1334 1.574 . S
C1342 H1337 0.949 . S
C1342 C1348 1.368 . S
C1343 C1327 1.349 . S
C1343 H1335 0.950 . S
C1343 C1341 1.327 . S
C1344 C1332 1.349 1_565 S
C1344 H1338 0.950 . S
C1344 C1345 1.327 . S
C1345 H1339 0.950 . S
C1345 C1344 1.327 . S
C1345 C1349 1.429 . S
C1346 C1329 1.574 . S
C1346 H1340 0.949 1_565 S
C1346 C1350 1.368 . S
C1347 C1328 1.429 . S
C1347 C1341 1.429 . S
C1347 C1348 1.523 . S
C1348 C1329 1.368 . S
C1348 C1342 1.368 . S
C1348 C1347 1.523 . S
C1349 C1333 1.429 1_565 S
C1349 C1345 1.429 . S
C1349 C1350 1.523 . S
C1350 C1334 1.368 . S
C1350 C1346 1.368 . S
C1350 C1349 1.523 . S
H1351 C1326 0.950 . S
H1352 C1328 0.950 . S
H1353 C1329 0.949 . S
H1354 C1331 0.950 . S
H1355 C1333 0.950 . S
C1356 C1357 1.349 1_565 S
C1356 C1358 1.327 . S
C1356 H1381 0.950 1_565 S
C1357 C1356 1.349 1_545 S
C1357 C1373 1.349 . S
C1358 C1356 1.327 . S
C1358 C1377 1.429 . S
C1358 H1382 0.950 . S
C1359 C1376 1.574 . S
C1359 C1378 1.368 . S
C1359 H1383 0.949 . S
H1360 C1364 0.949 . S
C1361 C1362 1.349 . S
C1361 C1363 1.327 . S
C1361 H1384 0.950 . S
C1362 C1361 1.349 . S
C1362 C1374 1.349 . S
C1363 C1361 1.327 . S
C1363 C1379 1.429 . S
C1363 H1385 0.950 . S
C1364 H1360 0.949 . S
C1364 C1372 1.574 . S
C1364 C1380 1.368 . S
H1365 C1373 0.950 . S
H1366 C1371 0.950 . S
H1367 C1372 0.949 . S
H1368 C1374 0.950 . S
H1369 C1375 0.950 . S
H1370 C1376 0.949 . S
C1371 H1366 0.950 . S
C1371 C1373 1.327 1_565 S
C1371 C1377 1.429 . S
C1372 C1364 1.574 . S
C1372 H1367 0.949 . S
C1372 C1378 1.368 . S
C1373 C1357 1.349 . S
C1373 H1365 0.950 . S
C1373 C1371 1.327 1_545 S
C1374 C1362 1.349 . S
C1374 H1368 0.950 . S
C1374 C1375 1.327 . S
C1375 H1369 0.950 . S
C1375 C1374 1.327 . S
C1375 C1379 1.429 . S
C1376 C1359 1.574 . S
C1376 H1370 0.949 . S
C1376 C1380 1.368 . S
C1377 C1358 1.429 . S
C1377 C1371 1.429 . S
C1377 C1378 1.523 . S
C1378 C1359 1.368 . S
C1378 C1372 1.368 . S
C1378 C1377 1.523 . S
C1379 C1363 1.429 . S
C1379 C1375 1.429 . S
C1379 C1380 1.523 . S
C1380 C1364 1.368 . S
C1380 C1376 1.368 . S
C1380 C1379 1.523 . S
H1381 C1356 0.950 1_545 S
H1382 C1358 0.950 . S
H1383 C1359 0.949 . S
H1384 C1361 0.950 . S
H1385 C1363 0.950 . S
C1386 C1387 1.349 . S
C1386 C1388 1.327 1_455 S
C1386 H1411 0.950 . S
C1387 C1386 1.349 . S
C1387 C1403 1.349 1_565 S
C1388 C1386 1.327 1_655 S
C1388 C1407 1.429 1_565 S
C1388 H1412 0.950 . S
C1389 C1406 1.574 . S
C1389 C1408 1.368 . S
C1389 H1413 0.949 . S
H1390 C1394 0.949 . S
C1391 C1392 1.349 . S
C1391 C1393 1.327 . S
C1391 H1414 0.950 . S
C1392 C1391 1.349 . S
C1392 C1404 1.349 . S
C1393 C1391 1.327 . S
C1393 C1409 1.429 . S
C1393 H1415 0.950 . S
C1394 H1390 0.949 . S
C1394 C1402 1.574 . S
C1394 C1410 1.368 . S
H1395 C1403 0.950 . S
H1396 C1401 0.950 . S
H1397 C1402 0.949 1_565 S
H1398 C1404 0.950 . S
H1399 C1405 0.950 . S
H1400 C1406 0.949 . S
C1401 H1396 0.950 . S
C1401 C1403 1.327 1_655 S
C1401 C1407 1.429 . S
C1402 C1394 1.574 . S
C1402 H1397 0.949 1_545 S
C1402 C1408 1.368 . S
C1403 C1387 1.349 1_545 S
C1403 H1395 0.950 . S
C1403 C1401 1.327 1_455 S
C1404 C1392 1.349 . S
C1404 H1398 0.950 . S
C1404 C1405 1.327 . S
C1405 H1399 0.950 . S
C1405 C1404 1.327 . S
C1405 C1409 1.429 . S
C1406 C1389 1.574 . S
C1406 H1400 0.949 . S
C1406 C1410 1.368 . S
C1407 C1388 1.429 1_545 S
C1407 C1401 1.429 . S
C1407 C1408 1.523 . S
C1408 C1389 1.368 . S
C1408 C1402 1.368 . S
C1408 C1407 1.523 . S
C1409 C1393 1.429 . S
C1409 C1405 1.429 . S
C1409 C1410 1.523 . S
C1410 C1394 1.368 . S
C1410 C1406 1.368 . S
C1410 C1409 1.523 . S
H1411 C1386 0.950 . S
H1412 C1388 0.950 . S
H1413 C1389 0.949 . S
H1414 C1391 0.950 . S
H1415 C1393 0.950 . S
C1416 C1417 1.349 . S
C1416 C1418 1.327 . S
C1416 H1441 0.950 . S
C1417 C1416 1.349 . S
C1417 C1433 1.349 . S
C1418 C1416 1.327 . S
C1418 C1437 1.429 . S
C1418 H1442 0.950 . S
C1419 C1436 1.574 . S
C1419 C1438 1.368 . S
C1419 H1443 0.949 . S
H1420 C1424 0.949 . S
C1421 C1422 1.349 . S
C1421 C1423 1.327 1_545 S
C1421 H1444 0.950 . S
C1422 C1421 1.349 . S
C1422 C1434 1.349 1_545 S
C1423 C1421 1.327 1_565 S
C1423 C1439 1.429 . S
C1423 H1445 0.950 . S
C1424 H1420 0.949 . S
C1424 C1432 1.574 . S
C1424 C1440 1.368 . S
H1425 C1433 0.950 . S
H1426 C1431 0.950 . S
H1427 C1432 0.949 . S
H1428 C1434 0.950 1_545 S
H1429 C1435 0.950 . S
H1430 C1436 0.949 . S
C1431 H1426 0.950 . S
C1431 C1433 1.327 . S
C1431 C1437 1.429 . S
C1432 C1424 1.574 . S
C1432 H1427 0.949 . S
C1432 C1438 1.368 . S
C1433 C1417 1.349 . S
C1433 H1425 0.950 . S
C1433 C1431 1.327 . S
C1434 C1422 1.349 1_565 S
C1434 H1428 0.950 1_565 S
C1434 C1435 1.327 . S
C1435 H1429 0.950 . S
C1435 C1434 1.327 . S
C1435 C1439 1.429 . S
C1436 C1419 1.574 . S
C1436 H1430 0.949 . S
C1436 C1440 1.368 . S
C1437 C1418 1.429 . S
C1437 C1431 1.429 . S
C1437 C1438 1.523 . S
C1438 C1419 1.368 . S
C1438 C1432 1.368 . S
C1438 C1437 1.523 . S
C1439 C1423 1.429 . S
C1439 C1435 1.429 . S
C1439 C1440 1.523 . S
C1440 C1424 1.368 . S
C1440 C1436 1.368 . S
C1440 C1439 1.523 . S
H1441 C1416 0.950 . S
H1442 C1418 0.950 . S
H1443 C1419 0.949 . S
H1444 C1421 0.950 . S
H1445 C1423 0.950 . S
C1446 C1447 1.349 . S
C1446 C1448 1.327 1_455 S
C1446 H1471 0.950 . S
C1447 C1446 1.349 . S
C1447 C1463 1.349 1_545 S
C1448 C1446 1.327 1_655 S
C1448 C1467 1.429 1_545 S
C1448 H1472 0.950 . S
C1449 C1466 1.574 . S
C1449 C1468 1.368 . S
C1449 H1473 0.949 . S
H1450 C1454 0.955 . S
C1451 C1452 1.349 . S
C1451 C1453 1.327 . S
C1451 H1474 0.950 . S
C1452 C1451 1.349 . S
C1452 C1464 1.349 . S
C1453 C1451 1.327 . S
C1453 C1469 1.429 . S
C1453 H1475 0.950 . S
C1454 H1450 0.955 . S
C1454 C1462 1.574 . S
C1454 C1470 1.368 . S
H1455 C1463 0.950 . S
H1456 C1461 0.950 . S
H1457 C1462 0.949 1_545 S
H1458 C1464 0.950 . S
H1459 C1465 0.950 . S
H1460 C1466 0.949 . S
C1461 H1456 0.950 . S
C1461 C1463 1.327 1_655 S
C1461 C1467 1.429 . S
C1462 C1454 1.574 . S
C1462 H1457 0.949 1_565 S
C1462 C1468 1.368 . S
C1463 C1447 1.349 1_565 S
C1463 H1455 0.950 . S
C1463 C1461 1.327 1_455 S
C1464 C1452 1.349 . S
C1464 H1458 0.950 . S
C1464 C1465 1.327 . S
C1465 H1459 0.950 . S
C1465 C1464 1.327 . S
C1465 C1469 1.429 . S
C1466 C1449 1.574 . S
C1466 H1460 0.949 . S
C1466 C1470 1.368 . S
C1467 C1448 1.429 1_565 S
C1467 C1461 1.429 . S
C1467 C1468 1.523 . S
C1468 C1449 1.368 . S
C1468 C1462 1.368 . S
C1468 C1467 1.523 . S
C1469 C1453 1.429 . S
C1469 C1465 1.429 . S
C1469 C1470 1.523 . S
C1470 C1454 1.368 . S
C1470 C1466 1.368 . S
C1470 C1469 1.523 . S
H1471 C1446 0.950 . S
H1472 C1448 0.950 . S
H1473 C1449 0.949 . S
H1474 C1451 0.950 . S
H1475 C1453 0.950 . S
C1476 C1477 1.349 . S
C1476 C1478 1.327 1_565 S
C1476 H1501 0.950 . S
C1477 C1476 1.349 . S
C1477 C1493 1.349 1_565 S
C1478 C1476 1.327 1_545 S
C1478 C1497 1.429 . S
C1478 H1502 0.950 . S
C1479 C1496 1.574 . S
C1479 C1498 1.368 . S
C1479 H1503 0.949 . S
H1480 C1484 0.949 . S
C1481 C1482 1.349 . S
C1481 C1483 1.327 . S
C1481 H1504 0.950 . S
C1482 C1481 1.349 . S
C1482 C1494 1.349 . S
C1483 C1481 1.327 . S
C1483 C1499 1.429 . S
C1483 H1505 0.950 . S
C1484 H1480 0.949 . S
C1484 C1492 1.574 . S
C1484 C1500 1.368 . S
H1485 C1493 0.950 1_565 S
H1486 C1491 0.950 . S
H1487 C1492 0.949 . S
H1488 C1494 0.950 . S
H1489 C1495 0.950 . S
H1490 C1496 0.949 . S
C1491 H1486 0.950 . S
C1491 C1493 1.327 . S
C1491 C1497 1.429 . S
C1492 C1484 1.574 . S
C1492 H1487 0.949 . S
C1492 C1498 1.368 . S
C1493 C1477 1.349 1_545 S
C1493 H1485 0.950 1_545 S
C1493 C1491 1.327 . S
C1494 C1482 1.349 . S
C1494 H1488 0.950 . S
C1494 C1495 1.327 . S
C1495 H1489 0.950 . S
C1495 C1494 1.327 . S
C1495 C1499 1.429 . S
C1496 C1479 1.574 . S
C1496 H1490 0.949 . S
C1496 C1500 1.368 . S
C1497 C1478 1.429 . S
C1497 C1491 1.429 . S
C1497 C1498 1.523 . S
C1498 C1479 1.368 . S
C1498 C1492 1.368 . S
C1498 C1497 1.523 . S
C1499 C1483 1.429 . S
C1499 C1495 1.429 . S
C1499 C1500 1.523 . S
C1500 C1484 1.368 . S
C1500 C1496 1.368 . S
C1500 C1499 1.523 . S
H1501 C1476 0.950 . S
H1502 C1478 0.950 . S
H1503 C1479 0.949 . S
H1504 C1481 0.950 . S
H1505 C1483 0.950 . S
C1506 C1507 1.349 . S
C1506 C1508 1.327 . S
C1506 H1531 0.950 . S
C1507 C1506 1.349 . S
C1507 C1523 1.349 . S
C1508 C1506 1.327 . S
C1508 C1527 1.429 . S
C1508 H1532 0.950 . S
C1509 C1526 1.574 . S
C1509 C1528 1.368 . S
C1509 H1533 0.949 . S
H1510 C1514 0.949 . S
C1511 C1512 1.349 . S
C1511 C1513 1.327 1_565 S
C1511 H1534 0.950 . S
C1512 C1511 1.349 . S
C1512 C1524 1.349 1_565 S
C1513 C1511 1.327 1_545 S
C1513 C1529 1.429 . S
C1513 H1535 0.949 1_545 S
C1514 H1510 0.949 . S
C1514 C1522 1.574 . S
C1514 C1530 1.368 . S
H1515 C1523 0.950 . S
H1516 C1521 0.950 . S
H1517 C1522 0.949 . S
H1518 C1524 0.950 . S
H1519 C1525 0.950 . S
H1520 C1526 0.949 . S
C1521 H1516 0.950 . S
C1521 C1523 1.327 . S
C1521 C1527 1.429 . S
C1522 C1514 1.574 . S
C1522 H1517 0.949 . S
C1522 C1528 1.368 . S
C1523 C1507 1.349 . S
C1523 H1515 0.950 . S
C1523 C1521 1.327 . S
C1524 C1512 1.349 1_545 S
C1524 H1518 0.950 . S
C1524 C1525 1.327 . S
C1525 H1519 0.950 . S
C1525 C1524 1.327 . S
C1525 C1529 1.429 . S
C1526 C1509 1.574 . S
C1526 H1520 0.949 . S
C1526 C1530 1.368 . S
C1527 C1508 1.429 . S
C1527 C1521 1.429 . S
C1527 C1528 1.523 . S
C1528 C1509 1.368 . S
C1528 C1522 1.368 . S
C1528 C1527 1.523 . S
C1529 C1513 1.429 . S
C1529 C1525 1.429 . S
C1529 C1530 1.523 . S
C1530 C1514 1.368 . S
C1530 C1526 1.368 . S
C1530 C1529 1.523 . S
H1531 C1506 0.950 . S
H1532 C1508 0.950 . S
H1533 C1509 0.949 . S
H1534 C1511 0.950 . S
H1535 C1513 0.949 1_565 S
C1536 C1537 1.349 . S
C1536 C1538 1.327 . S
C1536 H1561 0.950 . S
C1537 C1536 1.349 . S
C1537 C1553 1.349 . S
C1538 C1536 1.327 . S
C1538 C1557 1.429 . S
C1538 H1562 0.950 . S
C1539 C1556 1.574 . S
C1539 C1558 1.368 . S
C1539 H1563 0.949 . S
H1540 C1544 0.949 . S
C1541 C1542 1.349 . S
C1541 C1543 1.327 . S
C1541 H1564 0.950 . S
C1542 C1541 1.349 . S
C1542 C1554 1.349 . S
C1543 C1541 1.327 . S
C1543 C1559 1.429 . S
C1543 H1565 0.950 . S
C1544 H1540 0.949 . S
C1544 C1552 1.574 . S
C1544 C1560 1.368 . S
H1545 C1553 0.950 . S
H1546 C1551 0.950 . S
H1547 C1552 0.949 . S
H1548 C1554 0.950 . S
H1549 C1555 0.950 . S
H1550 C1556 0.949 . S
C1551 H1546 0.950 . S
C1551 C1553 1.327 . S
C1551 C1557 1.429 . S
C1552 C1544 1.574 . S
C1552 H1547 0.949 . S
C1552 C1558 1.368 . S
C1553 C1537 1.349 . S
C1553 H1545 0.950 . S
C1553 C1551 1.327 . S
C1554 C1542 1.349 . S
C1554 H1548 0.950 . S
C1554 C1555 1.327 . S
C1555 H1549 0.950 . S
C1555 C1554 1.327 . S
C1555 C1559 1.429 . S
C1556 C1539 1.574 . S
C1556 H1550 0.949 . S
C1556 C1560 1.368 . S
C1557 C1538 1.429 . S
C1557 C1551 1.429 . S
C1557 C1558 1.523 . S
C1558 C1539 1.368 . S
C1558 C1552 1.368 . S
C1558 C1557 1.523 . S
C1559 C1543 1.429 . S
C1559 C1555 1.429 . S
C1559 C1560 1.523 . S
C1560 C1544 1.368 . S
C1560 C1556 1.368 . S
C1560 C1559 1.523 . S
H1561 C1536 0.950 . S
H1562 C1538 0.950 . S
H1563 C1539 0.949 . S
H1564 C1541 0.950 . S
H1565 C1543 0.950 . S
C1566 C1567 1.349 . S
C1566 C1568 1.327 1_455 S
C1566 H1591 0.950 . S
C1567 C1566 1.349 . S
C1567 C1583 1.349 . S
C1568 C1566 1.327 1_655 S
C1568 C1587 1.429 . S
C1568 H1592 0.950 . S
C1569 C1586 1.574 . S
C1569 C1588 1.368 . S
C1569 H1593 0.949 . S
H1570 C1574 0.949 . S
C1571 C1572 1.349 . S
C1571 C1573 1.327 . S
C1571 H1594 0.950 . S
C1572 C1571 1.349 . S
C1572 C1584 1.349 . S
C1573 C1571 1.327 . S
C1573 C1589 1.429 . S
C1573 H1595 0.950 . S
C1574 H1570 0.949 . S
C1574 C1582 1.574 . S
C1574 C1590 1.368 . S
H1575 C1583 0.950 . S
H1576 C1581 0.950 . S
H1577 C1582 0.949 . S
H1578 C1584 0.950 . S
H1579 C1585 0.950 . S
H1580 C1586 0.949 . S
C1581 H1576 0.950 . S
C1581 C1583 1.327 1_655 S
C1581 C1587 1.429 . S
C1582 C1574 1.574 . S
C1582 H1577 0.949 . S
C1582 C1588 1.368 . S
C1583 C1567 1.349 . S
C1583 H1575 0.950 . S
C1583 C1581 1.327 1_455 S
C1584 C1572 1.349 . S
C1584 H1578 0.950 . S
C1584 C1585 1.327 . S
C1585 H1579 0.950 . S
C1585 C1584 1.327 . S
C1585 C1589 1.429 . S
C1586 C1569 1.574 . S
C1586 H1580 0.949 . S
C1586 C1590 1.368 . S
C1587 C1568 1.429 . S
C1587 C1581 1.429 . S
C1587 C1588 1.523 . S
C1588 C1569 1.368 . S
C1588 C1582 1.368 . S
C1588 C1587 1.523 . S
C1589 C1573 1.429 . S
C1589 C1585 1.429 . S
C1589 C1590 1.523 . S
C1590 C1574 1.368 . S
C1590 C1586 1.368 . S
C1590 C1589 1.523 . S
H1591 C1566 0.950 . S
H1592 C1568 0.950 . S
H1593 C1569 0.949 . S
H1594 C1571 0.950 . S
H1595 C1573 0.950 . S
C1596 C1597 1.349 . S
C1596 C1598 1.327 . S
C1596 H1621 0.950 . S
C1597 C1596 1.349 . S
C1597 C1613 1.349 . S
C1598 C1596 1.327 . S
C1598 C1617 1.429 . S
C1598 H1622 0.950 . S
C1599 C1616 1.574 . S
C1599 C1618 1.368 . S
C1599 H1623 0.949 . S
H1600 C1604 0.949 . S
C1601 C1602 1.349 . S
C1601 C1603 1.327 . S
C1601 H1624 0.950 . S
C1602 C1601 1.349 . S
C1602 C1614 1.349 . S
C1603 C1601 1.327 . S
C1603 C1619 1.429 . S
C1603 H1625 0.950 . S
C1604 H1600 0.949 . S
C1604 C1612 1.574 . S
C1604 C1620 1.368 . S
H1605 C1613 0.950 . S
H1606 C1611 0.950 . S
H1607 C1612 0.949 . S
H1608 C1614 0.950 . S
H1609 C1615 0.950 . S
H1610 C1616 0.949 . S
C1611 H1606 0.950 . S
C1611 C1613 1.327 . S
C1611 C1617 1.429 . S
C1612 C1604 1.574 . S
C1612 H1607 0.949 . S
C1612 C1618 1.368 . S
C1613 C1597 1.349 . S
C1613 H1605 0.950 . S
C1613 C1611 1.327 . S
C1614 C1602 1.349 . S
C1614 H1608 0.950 . S
C1614 C1615 1.327 . S
C1615 H1609 0.950 . S
C1615 C1614 1.327 . S
C1615 C1619 1.429 . S
C1616 C1599 1.574 . S
C1616 H1610 0.949 . S
C1616 C1620 1.368 . S
C1617 C1598 1.429 . S
C1617 C1611 1.429 . S
C1617 C1618 1.523 . S
C1618 C1599 1.368 . S
C1618 C1612 1.368 . S
C1618 C1617 1.523 . S
C1619 C1603 1.429 . S
C1619 C1615 1.429 . S
C1619 C1620 1.523 . S
C1620 C1604 1.368 . S
C1620 C1616 1.368 . S
C1620 C1619 1.523 . S
H1621 C1596 0.950 . S
H1622 C1598 0.950 . S
H1623 C1599 0.949 . S
H1624 C1601 0.950 . S
H1625 C1603 0.950 . S
C1626 C1627 1.349 . S
C1626 C1628 1.327 . S
C1626 H1651 0.950 . S
C1627 C1626 1.349 . S
C1627 C1643 1.349 . S
C1628 C1626 1.327 . S
C1628 C1647 1.429 . S
C1628 H1652 0.950 . S
C1629 C1646 1.574 . S
C1629 C1648 1.368 . S
C1629 H1653 0.949 . S
H1630 C1634 0.949 . S
C1631 C1632 1.349 . S
C1631 C1633 1.327 . S
C1631 H1654 0.950 . S
C1632 C1631 1.349 . S
C1632 C1644 1.349 . S
C1633 C1631 1.327 . S
C1633 C1649 1.429 . S
C1633 H1655 0.950 . S
C1634 H1630 0.949 . S
C1634 C1642 1.574 . S
C1634 C1650 1.368 . S
H1635 C1643 0.950 . S
H1636 C1641 0.950 . S
H1637 C1642 0.949 . S
H1638 C1644 0.950 . S
H1639 C1645 0.950 . S
H1640 C1646 0.949 . S
C1641 H1636 0.950 . S
C1641 C1643 1.327 . S
C1641 C1647 1.429 . S
C1642 C1634 1.574 . S
C1642 H1637 0.949 . S
C1642 C1648 1.368 . S
C1643 C1627 1.349 . S
C1643 H1635 0.950 . S
C1643 C1641 1.327 . S
C1644 C1632 1.349 . S
C1644 H1638 0.950 . S
C1644 C1645 1.327 . S
C1645 H1639 0.950 . S
C1645 C1644 1.327 . S
C1645 C1649 1.429 . S
C1646 C1629 1.574 . S
C1646 H1640 0.949 . S
C1646 C1650 1.368 . S
C1647 C1628 1.429 . S
C1647 C1641 1.429 . S
C1647 C1648 1.523 . S
C1648 C1629 1.368 . S
C1648 C1642 1.368 . S
C1648 C1647 1.523 . S
C1649 C1633 1.429 . S
C1649 C1645 1.429 . S
C1649 C1650 1.523 . S
C1650 C1634 1.368 . S
C1650 C1646 1.368 . S
C1650 C1649 1.523 . S
H1651 C1626 0.950 . S
H1652 C1628 0.950 . S
H1653 C1629 0.949 . S
H1654 C1631 0.950 . S
H1655 C1633 0.950 . S
C1656 C1657 1.349 . S
C1656 C1658 1.327 . S
C1656 H1681 0.950 . S
C1657 C1656 1.349 . S
C1657 C1673 1.349 . S
C1658 C1656 1.327 . S
C1658 C1677 1.429 . S
C1658 H1682 0.950 . S
C1659 C1676 1.574 . S
C1659 C1678 1.368 . S
C1659 H1683 0.949 . S
H1660 C1664 0.949 . S
C1661 C1662 1.349 . S
C1661 C1663 1.327 . S
C1661 H1684 0.950 . S
C1662 C1661 1.349 . S
C1662 C1674 1.349 . S
C1663 C1661 1.327 . S
C1663 C1679 1.429 . S
C1663 H1685 0.950 . S
C1664 H1660 0.949 . S
C1664 C1672 1.574 . S
C1664 C1680 1.368 . S
H1665 C1673 0.950 . S
H1666 C1671 0.950 . S
H1667 C1672 0.949 . S
H1668 C1674 0.950 . S
H1669 C1675 0.950 . S
H1670 C1676 0.949 . S
C1671 H1666 0.950 . S
C1671 C1673 1.327 . S
C1671 C1677 1.429 . S
C1672 C1664 1.574 . S
C1672 H1667 0.949 . S
C1672 C1678 1.368 . S
C1673 C1657 1.349 . S
C1673 H1665 0.950 . S
C1673 C1671 1.327 . S
C1674 C1662 1.349 . S
C1674 H1668 0.950 . S
C1674 C1675 1.327 . S
C1675 H1669 0.950 . S
C1675 C1674 1.327 . S
C1675 C1679 1.429 . S
C1676 C1659 1.574 . S
C1676 H1670 0.949 . S
C1676 C1680 1.368 . S
C1677 C1658 1.429 . S
C1677 C1671 1.429 . S
C1677 C1678 1.523 . S
C1678 C1659 1.368 . S
C1678 C1672 1.368 . S
C1678 C1677 1.523 . S
C1679 C1663 1.429 . S
C1679 C1675 1.429 . S
C1679 C1680 1.523 . S
C1680 C1664 1.368 . S
C1680 C1676 1.368 . S
C1680 C1679 1.523 . S
H1681 C1656 0.950 . S
H1682 C1658 0.950 . S
H1683 C1659 0.949 . S
H1684 C1661 0.950 . S
H1685 C1663 0.950 . S
C1686 C1687 1.349 . S
C1686 C1688 1.327 . S
C1686 H1711 0.950 . S
C1687 C1686 1.349 . S
C1687 C1703 1.349 . S
C1688 C1686 1.327 . S
C1688 C1707 1.429 . S
C1688 H1712 0.950 . S
C1689 C1706 1.574 . S
C1689 C1708 1.368 . S
C1689 H1713 0.949 . S
H1690 C1694 0.949 . S
C1691 C1692 1.349 . S
C1691 C1693 1.327 . S
C1691 H1714 0.950 . S
C1692 C1691 1.349 . S
C1692 C1704 1.349 . S
C1693 C1691 1.327 . S
C1693 C1709 1.429 . S
C1693 H1715 0.950 . S
C1694 H1690 0.949 . S
C1694 C1702 1.574 . S
C1694 C1710 1.368 . S
H1695 C1703 0.950 . S
H1696 C1701 0.950 . S
H1697 C1702 0.949 . S
H1698 C1704 0.950 . S
H1699 C1705 0.950 . S
H1700 C1706 0.949 . S
C1701 H1696 0.950 . S
C1701 C1703 1.327 . S
C1701 C1707 1.429 . S
C1702 C1694 1.574 . S
C1702 H1697 0.949 . S
C1702 C1708 1.368 . S
C1703 C1687 1.349 . S
C1703 H1695 0.950 . S
C1703 C1701 1.327 . S
C1704 C1692 1.349 . S
C1704 H1698 0.950 . S
C1704 C1705 1.327 . S
C1705 H1699 0.950 . S
C1705 C1704 1.327 . S
C1705 C1709 1.429 . S
C1706 C1689 1.574 . S
C1706 H1700 0.949 . S
C1706 C1710 1.368 . S
C1707 C1688 1.429 . S
C1707 C1701 1.429 . S
C1707 C1708 1.523 . S
C1708 C1689 1.368 . S
C1708 C1702 1.368 . S
C1708 C1707 1.523 . S
C1709 C1693 1.429 . S
C1709 C1705 1.429 . S
C1709 C1710 1.523 . S
C1710 C1694 1.368 . S
C1710 C1706 1.368 . S
C1710 C1709 1.523 . S
H1711 C1686 0.950 . S
H1712 C1688 0.950 . S
H1713 C1689 0.949 . S
H1714 C1691 0.950 . S
H1715 C1693 0.950 . S
C1716 C1717 1.349 . S
C1716 C1718 1.327 . S
C1716 H1741 0.950 . S
C1717 C1716 1.349 . S
C1717 C1733 1.349 . S
C1718 C1716 1.327 . S
C1718 C1737 1.429 . S
C1718 H1742 0.950 . S
C1719 C1736 1.574 . S
C1719 C1738 1.368 . S
C1719 H1743 0.949 . S
H1720 C1724 0.949 . S
C1721 C1722 1.349 . S
C1721 C1723 1.327 . S
C1721 H1744 0.950 . S
C1722 C1721 1.349 . S
C1722 C1734 1.349 . S
C1723 C1721 1.327 . S
C1723 C1739 1.429 . S
C1723 H1745 0.950 . S
C1724 H1720 0.949 . S
C1724 C1732 1.574 . S
C1724 C1740 1.368 . S
H1725 C1733 0.950 . S
H1726 C1731 0.950 . S
H1727 C1732 0.949 . S
H1728 C1734 0.950 . S
H1729 C1735 0.950 . S
H1730 C1736 0.949 . S
C1731 H1726 0.950 . S
C1731 C1733 1.327 . S
C1731 C1737 1.429 . S
C1732 C1724 1.574 . S
C1732 H1727 0.949 . S
C1732 C1738 1.368 . S
C1733 C1717 1.349 . S
C1733 H1725 0.950 . S
C1733 C1731 1.327 . S
C1734 C1722 1.349 . S
C1734 H1728 0.950 . S
C1734 C1735 1.327 . S
C1735 H1729 0.950 . S
C1735 C1734 1.327 . S
C1735 C1739 1.429 . S
C1736 C1719 1.574 . S
C1736 H1730 0.949 . S
C1736 C1740 1.368 . S
C1737 C1718 1.429 . S
C1737 C1731 1.429 . S
C1737 C1738 1.523 . S
C1738 C1719 1.368 . S
C1738 C1732 1.368 . S
C1738 C1737 1.523 . S
C1739 C1723 1.429 . S
C1739 C1735 1.429 . S
C1739 C1740 1.523 . S
C1740 C1724 1.368 . S
C1740 C1736 1.368 . S
C1740 C1739 1.523 . S
H1741 C1716 0.950 . S
H1742 C1718 0.950 . S
H1743 C1719 0.949 . S
H1744 C1721 0.950 . S
H1745 C1723 0.950 . S
C1746 C1747 1.349 . S
C1746 C1748 1.327 1_455 S
C1746 H1771 0.950 . S
C1747 C1746 1.349 . S
C1747 C1763 1.349 . S
C1748 C1746 1.327 1_655 S
C1748 C1767 1.429 . S
C1748 H1772 0.950 . S
C1749 C1766 1.574 . S
C1749 C1768 1.368 . S
C1749 H1773 0.949 . S
H1750 C1754 0.949 . S
C1751 C1752 1.349 . S
C1751 C1753 1.327 . S
C1751 H1774 0.950 . S
C1752 C1751 1.349 . S
C1752 C1764 1.349 . S
C1753 C1751 1.327 . S
C1753 C1769 1.429 . S
C1753 H1775 0.950 . S
C1754 H1750 0.949 . S
C1754 C1762 1.574 . S
C1754 C1770 1.368 . S
H1755 C1763 0.950 . S
H1756 C1761 0.950 . S
H1757 C1762 0.949 . S
H1758 C1764 0.950 . S
H1759 C1765 0.950 . S
H1760 C1766 0.949 . S
C1761 H1756 0.950 . S
C1761 C1763 1.327 1_655 S
C1761 C1767 1.429 . S
C1762 C1754 1.574 . S
C1762 H1757 0.949 . S
C1762 C1768 1.368 . S
C1763 C1747 1.349 . S
C1763 H1755 0.950 . S
C1763 C1761 1.327 1_455 S
C1764 C1752 1.349 . S
C1764 H1758 0.950 . S
C1764 C1765 1.327 . S
C1765 H1759 0.950 . S
C1765 C1764 1.327 . S
C1765 C1769 1.429 . S
C1766 C1749 1.574 . S
C1766 H1760 0.949 . S
C1766 C1770 1.368 . S
C1767 C1748 1.429 . S
C1767 C1761 1.429 . S
C1767 C1768 1.523 . S
C1768 C1749 1.368 . S
C1768 C1762 1.368 . S
C1768 C1767 1.523 . S
C1769 C1753 1.429 . S
C1769 C1765 1.429 . S
C1769 C1770 1.523 . S
C1770 C1754 1.368 . S
C1770 C1766 1.368 . S
C1770 C1769 1.523 . S
H1771 C1746 0.950 . S
H1772 C1748 0.950 . S
H1773 C1749 0.949 . S
H1774 C1751 0.950 . S
H1775 C1753 0.950 . S
C1776 C1777 1.349 . S
C1776 C1778 1.327 . S
C1776 H1801 0.950 . S
C1777 C1776 1.349 . S
C1777 C1793 1.349 . S
C1778 C1776 1.327 . S
C1778 C1797 1.429 . S
C1778 H1802 0.950 . S
C1779 C1796 1.574 . S
C1779 C1798 1.368 . S
C1779 H1803 0.949 . S
H1780 C1784 0.949 . S
C1781 C1782 1.349 . S
C1781 C1783 1.327 . S
C1781 H1804 0.950 . S
C1782 C1781 1.349 . S
C1782 C1794 1.349 . S
C1783 C1781 1.327 . S
C1783 C1799 1.429 . S
C1783 H1805 0.950 . S
C1784 H1780 0.949 . S
C1784 C1792 1.574 . S
C1784 C1800 1.368 . S
H1785 C1793 0.950 . S
H1786 C1791 0.950 . S
H1787 C1792 0.949 . S
H1788 C1794 0.950 . S
H1789 C1795 0.950 . S
H1790 C1796 0.949 . S
C1791 H1786 0.950 . S
C1791 C1793 1.327 . S
C1791 C1797 1.429 . S
C1792 C1784 1.574 . S
C1792 H1787 0.949 . S
C1792 C1798 1.368 . S
C1793 C1777 1.349 . S
C1793 H1785 0.950 . S
C1793 C1791 1.327 . S
C1794 C1782 1.349 . S
C1794 H1788 0.950 . S
C1794 C1795 1.327 . S
C1795 H1789 0.950 . S
C1795 C1794 1.327 . S
C1795 C1799 1.429 . S
C1796 C1779 1.574 . S
C1796 H1790 0.949 . S
C1796 C1800 1.368 . S
C1797 C1778 1.429 . S
C1797 C1791 1.429 . S
C1797 C1798 1.523 . S
C1798 C1779 1.368 . S
C1798 C1792 1.368 . S
C1798 C1797 1.523 . S
C1799 C1783 1.429 . S
C1799 C1795 1.429 . S
C1799 C1800 1.523 . S
C1800 C1784 1.368 . S
C1800 C1796 1.368 . S
C1800 C1799 1.523 . S
H1801 C1776 0.950 . S
H1802 C1778 0.950 . S
H1803 C1779 0.949 . S
H1804 C1781 0.950 . S
H1805 C1783 0.950 . S
C1806 C1807 1.349 . S
C1806 C1808 1.327 1_655 S
C1806 H1831 0.950 . S
C1807 C1806 1.349 . S
C1807 C1823 1.349 . S
C1808 C1806 1.327 1_455 S
C1808 C1827 1.429 . S
C1808 H1832 0.950 . S
C1809 C1826 1.574 . S
C1809 C1828 1.368 . S
C1809 H1833 0.949 . S
H1810 C1814 0.949 . S
C1811 C1812 1.349 . S
C1811 C1813 1.327 . S
C1811 H1834 0.950 . S
C1812 C1811 1.349 . S
C1812 C1824 1.349 . S
C1813 C1811 1.327 . S
C1813 C1829 1.429 . S
C1813 H1835 0.950 . S
C1814 H1810 0.949 . S
C1814 C1822 1.574 . S
C1814 C1830 1.368 . S
H1815 C1823 0.950 . S
H1816 C1821 0.950 . S
H1817 C1822 0.949 . S
H1818 C1824 0.950 . S
H1819 C1825 0.950 . S
H1820 C1826 0.949 . S
C1821 H1816 0.950 . S
C1821 C1823 1.327 1_455 S
C1821 C1827 1.429 . S
C1822 C1814 1.574 . S
C1822 H1817 0.949 . S
C1822 C1828 1.368 . S
C1823 C1807 1.349 . S
C1823 H1815 0.950 . S
C1823 C1821 1.327 1_655 S
C1824 C1812 1.349 . S
C1824 H1818 0.950 . S
C1824 C1825 1.327 . S
C1825 H1819 0.950 . S
C1825 C1824 1.327 . S
C1825 C1829 1.429 . S
C1826 C1809 1.574 . S
C1826 H1820 0.949 . S
C1826 C1830 1.368 . S
C1827 C1808 1.429 . S
C1827 C1821 1.429 . S
C1827 C1828 1.523 . S
C1828 C1809 1.368 . S
C1828 C1822 1.368 . S
C1828 C1827 1.523 . S
C1829 C1813 1.429 . S
C1829 C1825 1.429 . S
C1829 C1830 1.523 . S
C1830 C1814 1.368 . S
C1830 C1826 1.368 . S
C1830 C1829 1.523 . S
H1831 C1806 0.950 . S
H1832 C1808 0.950 . S
H1833 C1809 0.949 . S
H1834 C1811 0.950 . S
H1835 C1813 0.950 . S
C1836 C1837 1.349 . S
C1836 C1838 1.327 . S
C1836 H1861 0.950 . S
C1837 C1836 1.349 . S
C1837 C1853 1.349 . S
C1838 C1836 1.327 . S
C1838 C1857 1.429 . S
C1838 H1862 0.950 . S
C1839 C1856 1.574 . S
C1839 C1858 1.368 . S
C1839 H1863 0.949 . S
H1840 C1844 0.949 . S
C1841 C1842 1.349 . S
C1841 C1843 1.327 . S
C1841 H1864 0.950 . S
C1842 C1841 1.349 . S
C1842 C1854 1.349 . S
C1843 C1841 1.327 . S
C1843 C1859 1.429 . S
C1843 H1865 0.950 . S
C1844 H1840 0.949 . S
C1844 C1852 1.574 . S
C1844 C1860 1.368 . S
H1845 C1853 0.950 . S
H1846 C1851 0.950 . S
H1847 C1852 0.949 . S
H1848 C1854 0.950 . S
H1849 C1855 0.950 . S
H1850 C1856 0.949 . S
C1851 H1846 0.950 . S
C1851 C1853 1.327 . S
C1851 C1857 1.429 . S
C1852 C1844 1.574 . S
C1852 H1847 0.949 . S
C1852 C1858 1.368 . S
C1853 C1837 1.349 . S
C1853 H1845 0.950 . S
C1853 C1851 1.327 . S
C1854 C1842 1.349 . S
C1854 H1848 0.950 . S
C1854 C1855 1.327 . S
C1855 H1849 0.950 . S
C1855 C1854 1.327 . S
C1855 C1859 1.429 . S
C1856 C1839 1.574 . S
C1856 H1850 0.949 . S
C1856 C1860 1.368 . S
C1857 C1838 1.429 . S
C1857 C1851 1.429 . S
C1857 C1858 1.523 . S
C1858 C1839 1.368 . S
C1858 C1852 1.368 . S
C1858 C1857 1.523 . S
C1859 C1843 1.429 . S
C1859 C1855 1.429 . S
C1859 C1860 1.523 . S
C1860 C1844 1.368 . S
C1860 C1856 1.368 . S
C1860 C1859 1.523 . S
H1861 C1836 0.950 . S
H1862 C1838 0.950 . S
H1863 C1839 0.949 . S
H1864 C1841 0.950 . S
H1865 C1843 0.950 . S
C1866 C1867 1.349 . S
C1866 C1868 1.327 . S
C1866 H1891 0.950 . S
C1867 C1866 1.349 . S
C1867 C1883 1.349 . S
C1868 C1866 1.327 . S
C1868 C1887 1.429 . S
C1868 H1892 0.950 . S
C1869 C1886 1.574 . S
C1869 C1888 1.368 . S
C1869 H1893 0.949 . S
H1870 C1874 0.949 . S
C1871 C1872 1.349 . S
C1871 C1873 1.327 . S
C1871 H1894 0.950 . S
C1872 C1871 1.349 . S
C1872 C1884 1.349 . S
C1873 C1871 1.327 . S
C1873 C1889 1.429 . S
C1873 H1895 0.950 . S
C1874 H1870 0.949 . S
C1874 C1882 1.574 . S
C1874 C1890 1.368 . S
H1875 C1883 0.950 . S
H1876 C1881 0.950 . S
H1877 C1882 0.949 . S
H1878 C1884 0.950 . S
H1879 C1885 0.950 . S
H1880 C1886 0.949 . S
C1881 H1876 0.950 . S
C1881 C1883 1.327 . S
C1881 C1887 1.429 . S
C1882 C1874 1.574 . S
C1882 H1877 0.949 . S
C1882 C1888 1.368 . S
C1883 C1867 1.349 . S
C1883 H1875 0.950 . S
C1883 C1881 1.327 . S
C1884 C1872 1.349 . S
C1884 H1878 0.950 . S
C1884 C1885 1.327 . S
C1885 H1879 0.950 . S
C1885 C1884 1.327 . S
C1885 C1889 1.429 . S
C1886 C1869 1.574 . S
C1886 H1880 0.949 . S
C1886 C1890 1.368 . S
C1887 C1868 1.429 . S
C1887 C1881 1.429 . S
C1887 C1888 1.523 . S
C1888 C1869 1.368 . S
C1888 C1882 1.368 . S
C1888 C1887 1.523 . S
C1889 C1873 1.429 . S
C1889 C1885 1.429 . S
C1889 C1890 1.523 . S
C1890 C1874 1.368 . S
C1890 C1886 1.368 . S
C1890 C1889 1.523 . S
H1891 C1866 0.950 . S
H1892 C1868 0.950 . S
H1893 C1869 0.949 . S
H1894 C1871 0.950 . S
H1895 C1873 0.950 . S
C1896 C1897 1.349 . S
C1896 C1898 1.327 . S
C1896 H1921 0.950 . S
C1897 C1896 1.349 . S
C1897 C1913 1.349 . S
C1898 C1896 1.327 . S
C1898 C1917 1.429 . S
C1898 H1922 0.950 . S
C1899 C1916 1.574 . S
C1899 C1918 1.368 . S
C1899 H1923 0.949 . S
H1900 C1904 0.949 . S
C1901 C1902 1.349 . S
C1901 C1903 1.327 . S
C1901 H1924 0.950 . S
C1902 C1901 1.349 . S
C1902 C1914 1.349 . S
C1903 C1901 1.327 . S
C1903 C1919 1.429 . S
C1903 H1925 0.950 . S
C1904 H1900 0.949 . S
C1904 C1912 1.574 . S
C1904 C1920 1.368 . S
H1905 C1913 0.950 . S
H1906 C1911 0.950 . S
H1907 C1912 0.949 . S
H1908 C1914 0.950 . S
H1909 C1915 0.950 . S
H1910 C1916 0.949 . S
C1911 H1906 0.950 . S
C1911 C1913 1.327 . S
C1911 C1917 1.429 . S
C1912 C1904 1.574 . S
C1912 H1907 0.949 . S
C1912 C1918 1.368 . S
C1913 C1897 1.349 . S
C1913 H1905 0.950 . S
C1913 C1911 1.327 . S
C1914 C1902 1.349 . S
C1914 H1908 0.950 . S
C1914 C1915 1.327 . S
C1915 H1909 0.950 . S
C1915 C1914 1.327 . S
C1915 C1919 1.429 . S
C1916 C1899 1.574 . S
C1916 H1910 0.949 . S
C1916 C1920 1.368 . S
C1917 C1898 1.429 . S
C1917 C1911 1.429 . S
C1917 C1918 1.523 . S
C1918 C1899 1.368 . S
C1918 C1912 1.368 . S
C1918 C1917 1.523 . S
C1919 C1903 1.429 . S
C1919 C1915 1.429 . S
C1919 C1920 1.523 . S
C1920 C1904 1.368 . S
C1920 C1916 1.368 . S
C1920 C1919 1.523 . S
H1921 C1896 0.950 . S
H1922 C1898 0.950 . S
H1923 C1899 0.949 . S
H1924 C1901 0.950 . S
H1925 C1903 0.950 . S
C1926 C1927 1.349 . S
C1926 C1928 1.327 . S
C1926 H1951 0.950 . S
C1927 C1926 1.349 . S
C1927 C1943 1.349 . S
C1928 C1926 1.327 . S
C1928 C1947 1.429 . S
C1928 H1952 0.950 . S
C1929 C1946 1.574 . S
C1929 C1948 1.368 . S
C1929 H1953 0.949 . S
H1930 C1934 0.949 . S
C1931 C1932 1.349 . S
C1931 C1933 1.327 . S
C1931 H1954 0.950 . S
C1932 C1931 1.349 . S
C1932 C1944 1.349 . S
C1933 C1931 1.327 . S
C1933 C1949 1.429 . S
C1933 H1955 0.950 . S
C1934 H1930 0.949 . S
C1934 C1942 1.574 . S
C1934 C1950 1.368 . S
H1935 C1943 0.950 . S
H1936 C1941 0.950 . S
H1937 C1942 0.949 . S
H1938 C1944 0.950 . S
H1939 C1945 0.950 . S
H1940 C1946 0.949 . S
C1941 H1936 0.950 . S
C1941 C1943 1.327 . S
C1941 C1947 1.429 . S
C1942 C1934 1.574 . S
C1942 H1937 0.949 . S
C1942 C1948 1.368 . S
C1943 C1927 1.349 . S
C1943 H1935 0.950 . S
C1943 C1941 1.327 . S
C1944 C1932 1.349 . S
C1944 H1938 0.950 . S
C1944 C1945 1.327 . S
C1945 H1939 0.950 . S
C1945 C1944 1.327 . S
C1945 C1949 1.429 . S
C1946 C1929 1.574 . S
C1946 H1940 0.949 . S
C1946 C1950 1.368 . S
C1947 C1928 1.429 . S
C1947 C1941 1.429 . S
C1947 C1948 1.523 . S
C1948 C1929 1.368 . S
C1948 C1942 1.368 . S
C1948 C1947 1.523 . S
C1949 C1933 1.429 . S
C1949 C1945 1.429 . S
C1949 C1950 1.523 . S
C1950 C1934 1.368 . S
C1950 C1946 1.368 . S
C1950 C1949 1.523 . S
H1951 C1926 0.950 . S
H1952 C1928 0.950 . S
H1953 C1929 0.949 . S
H1954 C1931 0.950 . S
H1955 C1933 0.950 . S
C1956 C1957 1.349 . S
C1956 C1958 1.327 . S
C1956 H1981 0.950 . S
C1957 C1956 1.349 . S
C1957 C1973 1.349 . S
C1958 C1956 1.327 . S
C1958 C1977 1.429 . S
C1958 H1982 0.950 . S
C1959 C1976 1.574 . S
C1959 C1978 1.368 . S
C1959 H1983 0.949 . S
H1960 C1964 0.949 . S
C1961 C1962 1.349 . S
C1961 C1963 1.327 . S
C1961 H1984 0.950 . S
C1962 C1961 1.349 . S
C1962 C1974 1.349 . S
C1963 C1961 1.327 . S
C1963 C1979 1.429 . S
C1963 H1985 0.950 . S
C1964 H1960 0.949 . S
C1964 C1972 1.574 . S
C1964 C1980 1.368 . S
H1965 C1973 0.950 . S
H1966 C1971 0.950 . S
H1967 C1972 0.949 . S
H1968 C1974 0.950 . S
H1969 C1975 0.950 . S
H1970 C1976 0.949 . S
C1971 H1966 0.950 . S
C1971 C1973 1.327 . S
C1971 C1977 1.429 . S
C1972 C1964 1.574 . S
C1972 H1967 0.949 . S
C1972 C1978 1.368 . S
C1973 C1957 1.349 . S
C1973 H1965 0.950 . S
C1973 C1971 1.327 . S
C1974 C1962 1.349 . S
C1974 H1968 0.950 . S
C1974 C1975 1.327 . S
C1975 H1969 0.950 . S
C1975 C1974 1.327 . S
C1975 C1979 1.429 . S
C1976 C1959 1.574 . S
C1976 H1970 0.949 . S
C1976 C1980 1.368 . S
C1977 C1958 1.429 . S
C1977 C1971 1.429 . S
C1977 C1978 1.523 . S
C1978 C1959 1.368 . S
C1978 C1972 1.368 . S
C1978 C1977 1.523 . S
C1979 C1963 1.429 . S
C1979 C1975 1.429 . S
C1979 C1980 1.523 . S
C1980 C1964 1.368 . S
C1980 C1976 1.368 . S
C1980 C1979 1.523 . S
H1981 C1956 0.950 . S
H1982 C1958 0.950 . S
H1983 C1959 0.949 . S
H1984 C1961 0.950 . S
H1985 C1963 0.950 . S
C1986 C1987 1.349 . S
C1986 C1988 1.327 1_655 S
C1986 H2011 0.950 . S
C1987 C1986 1.349 . S
C1987 C2003 1.349 . S
C1988 C1986 1.327 1_455 S
C1988 C2007 1.429 . S
C1988 H2012 0.950 . S
C1989 C2006 1.574 . S
C1989 C2008 1.368 . S
C1989 H2013 0.949 . S
H1990 C1994 0.949 . S
C1991 C1992 1.349 . S
C1991 C1993 1.327 . S
C1991 H2014 0.950 . S
C1992 C1991 1.349 . S
C1992 C2004 1.349 . S
C1993 C1991 1.327 . S
C1993 C2009 1.429 . S
C1993 H2015 0.950 . S
C1994 H1990 0.949 . S
C1994 C2002 1.574 . S
C1994 C2010 1.368 . S
H1995 C2003 0.950 . S
H1996 C2001 0.950 . S
H1997 C2002 0.949 . S
H1998 C2004 0.950 . S
H1999 C2005 0.950 . S
H2000 C2006 0.949 . S
C2001 H1996 0.950 . S
C2001 C2003 1.327 1_455 S
C2001 C2007 1.429 . S
C2002 C1994 1.574 . S
C2002 H1997 0.949 . S
C2002 C2008 1.368 . S
C2003 C1987 1.349 . S
C2003 H1995 0.950 . S
C2003 C2001 1.327 1_655 S
C2004 C1992 1.349 . S
C2004 H1998 0.950 . S
C2004 C2005 1.327 . S
C2005 H1999 0.950 . S
C2005 C2004 1.327 . S
C2005 C2009 1.429 . S
C2006 C1989 1.574 . S
C2006 H2000 0.949 . S
C2006 C2010 1.368 . S
C2007 C1988 1.429 . S
C2007 C2001 1.429 . S
C2007 C2008 1.523 . S
C2008 C1989 1.368 . S
C2008 C2002 1.368 . S
C2008 C2007 1.523 . S
C2009 C1993 1.429 . S
C2009 C2005 1.429 . S
C2009 C2010 1.523 . S
C2010 C1994 1.368 . S
C2010 C2006 1.368 . S
C2010 C2009 1.523 . S
H2011 C1986 0.950 . S
H2012 C1988 0.950 . S
H2013 C1989 0.949 . S
H2014 C1991 0.950 . S
H2015 C1993 0.950 . S
C2016 C2017 1.349 . S
C2016 C2018 1.327 . S
C2016 H2041 0.950 . S
C2017 C2016 1.349 . S
C2017 C2033 1.349 . S
C2018 C2016 1.327 . S
C2018 C2037 1.429 . S
C2018 H2042 0.950 . S
C2019 C2036 1.574 . S
C2019 C2038 1.368 . S
C2019 H2043 0.949 . S
H2020 C2024 0.949 . S
C2021 C2022 1.349 . S
C2021 C2023 1.327 . S
C2021 H2044 0.950 . S
C2022 C2021 1.349 . S
C2022 C2034 1.349 . S
C2023 C2021 1.327 . S
C2023 C2039 1.429 . S
C2023 H2045 0.950 . S
C2024 H2020 0.949 . S
C2024 C2032 1.574 . S
C2024 C2040 1.368 . S
H2025 C2033 0.950 . S
H2026 C2031 0.950 . S
H2027 C2032 0.949 . S
H2028 C2034 0.950 . S
H2029 C2035 0.950 . S
H2030 C2036 0.949 . S
C2031 H2026 0.950 . S
C2031 C2033 1.327 . S
C2031 C2037 1.429 . S
C2032 C2024 1.574 . S
C2032 H2027 0.949 . S
C2032 C2038 1.368 . S
C2033 C2017 1.349 . S
C2033 H2025 0.950 . S
C2033 C2031 1.327 . S
C2034 C2022 1.349 . S
C2034 H2028 0.950 . S
C2034 C2035 1.327 . S
C2035 H2029 0.950 . S
C2035 C2034 1.327 . S
C2035 C2039 1.429 . S
C2036 C2019 1.574 . S
C2036 H2030 0.949 . S
C2036 C2040 1.368 . S
C2037 C2018 1.429 . S
C2037 C2031 1.429 . S
C2037 C2038 1.523 . S
C2038 C2019 1.368 . S
C2038 C2032 1.368 . S
C2038 C2037 1.523 . S
C2039 C2023 1.429 . S
C2039 C2035 1.429 . S
C2039 C2040 1.523 . S
C2040 C2024 1.368 . S
C2040 C2036 1.368 . S
C2040 C2039 1.523 . S
H2041 C2016 0.950 . S
H2042 C2018 0.950 . S
H2043 C2019 0.949 . S
H2044 C2021 0.950 . S
H2045 C2023 0.950 . S
C2046 C2047 1.349 . S
C2046 C2048 1.327 . S
C2046 H2071 0.950 . S
C2047 C2046 1.349 . S
C2047 C2063 1.349 . S
C2048 C2046 1.327 . S
C2048 C2067 1.429 . S
C2048 H2072 0.950 . S
C2049 C2066 1.574 1_455 S
C2049 C2068 1.368 . S
C2049 H2073 0.949 . S
H2050 C2054 0.949 . S
C2051 C2052 1.349 . S
C2051 C2053 1.327 . S
C2051 H2074 0.950 . S
C2052 C2051 1.349 . S
C2052 C2064 1.349 . S
C2053 C2051 1.327 . S
C2053 C2069 1.429 . S
C2053 H2075 0.950 . S
C2054 H2050 0.949 . S
C2054 C2062 1.574 1_655 S
C2054 C2070 1.368 . S
H2055 C2063 0.950 . S
H2056 C2061 0.950 . S
H2057 C2062 0.949 . S
H2058 C2064 0.950 . S
H2059 C2065 0.950 . S
H2060 C2066 0.949 . S
C2061 H2056 0.950 . S
C2061 C2063 1.327 . S
C2061 C2067 1.429 . S
C2062 C2054 1.574 1_455 S
C2062 H2057 0.949 . S
C2062 C2068 1.368 . S
C2063 C2047 1.349 . S
C2063 H2055 0.950 . S
C2063 C2061 1.327 . S
C2064 C2052 1.349 . S
C2064 H2058 0.950 . S
C2064 C2065 1.327 . S
C2065 H2059 0.950 . S
C2065 C2064 1.327 . S
C2065 C2069 1.429 . S
C2066 C2049 1.574 1_655 S
C2066 H2060 0.949 . S
C2066 C2070 1.368 . S
C2067 C2048 1.429 . S
C2067 C2061 1.429 . S
C2067 C2068 1.523 . S
C2068 C2049 1.368 . S
C2068 C2062 1.368 . S
C2068 C2067 1.523 . S
C2069 C2053 1.429 . S
C2069 C2065 1.429 . S
C2069 C2070 1.523 . S
C2070 C2054 1.368 . S
C2070 C2066 1.368 . S
C2070 C2069 1.523 . S
H2071 C2046 0.950 . S
H2072 C2048 0.950 . S
H2073 C2049 0.949 . S
H2074 C2051 0.950 . S
H2075 C2053 0.950 . S
C2076 C2077 1.349 . S
C2076 C2078 1.327 . S
C2076 H2101 0.950 . S
C2077 C2076 1.349 . S
C2077 C2093 1.349 . S
C2078 C2076 1.327 . S
C2078 C2097 1.429 . S
C2078 H2102 0.950 . S
C2079 C2096 1.574 . S
C2079 C2098 1.368 1_455 S
C2079 H2103 0.949 . S
H2080 C2084 0.949 . S
C2081 C2082 1.349 . S
C2081 C2083 1.327 . S
C2081 H2104 0.950 . S
C2082 C2081 1.349 . S
C2082 C2094 1.349 . S
C2083 C2081 1.327 . S
C2083 C2099 1.429 . S
C2083 H2105 0.950 . S
C2084 H2080 0.949 . S
C2084 C2092 1.574 . S
C2084 C2100 1.368 1_655 S
H2085 C2093 0.950 . S
H2086 C2091 0.950 . S
H2087 C2092 0.949 . S
H2088 C2094 0.950 . S
H2089 C2095 0.950 . S
H2090 C2096 0.949 . S
C2091 H2086 0.950 . S
C2091 C2093 1.327 . S
C2091 C2097 1.429 . S
C2092 C2084 1.574 . S
C2092 H2087 0.949 . S
C2092 C2098 1.368 . S
C2093 C2077 1.349 . S
C2093 H2085 0.950 . S
C2093 C2091 1.327 . S
C2094 C2082 1.349 . S
C2094 H2088 0.950 . S
C2094 C2095 1.327 . S
C2095 H2089 0.950 . S
C2095 C2094 1.327 . S
C2095 C2099 1.429 . S
C2096 C2079 1.574 . S
C2096 H2090 0.949 . S
C2096 C2100 1.368 . S
C2097 C2078 1.429 . S
C2097 C2091 1.429 . S
C2097 C2098 1.523 . S
C2098 C2079 1.368 1_655 S
C2098 C2092 1.368 . S
C2098 C2097 1.523 . S
C2099 C2083 1.429 . S
C2099 C2095 1.429 . S
C2099 C2100 1.523 . S
C2100 C2084 1.368 1_455 S
C2100 C2096 1.368 . S
C2100 C2099 1.523 . S
H2101 C2076 0.950 . S
H2102 C2078 0.950 . S
H2103 C2079 0.949 . S
H2104 C2081 0.950 . S
H2105 C2083 0.950 . S
C2106 C2107 1.349 . S
C2106 C2108 1.327 . S
C2106 H2131 0.950 . S
C2107 C2106 1.349 . S
C2107 C2123 1.349 . S
C2108 C2106 1.327 . S
C2108 C2127 1.429 . S
C2108 H2132 0.950 . S
C2109 C2126 1.574 . S
C2109 C2128 1.368 . S
C2109 H2133 0.949 . S
H2110 C2114 0.949 . S
C2111 C2112 1.349 . S
C2111 C2113 1.327 . S
C2111 H2134 0.950 . S
C2112 C2111 1.349 . S
C2112 C2124 1.349 . S
C2113 C2111 1.327 . S
C2113 C2129 1.429 . S
C2113 H2135 0.950 . S
C2114 H2110 0.949 . S
C2114 C2122 1.574 . S
C2114 C2130 1.368 . S
H2115 C2123 0.950 . S
H2116 C2121 0.950 . S
H2117 C2122 0.949 . S
H2118 C2124 0.950 . S
H2119 C2125 0.950 . S
H2120 C2126 0.949 . S
C2121 H2116 0.950 . S
C2121 C2123 1.327 . S
C2121 C2127 1.429 . S
C2122 C2114 1.574 . S
C2122 H2117 0.949 . S
C2122 C2128 1.368 . S
C2123 C2107 1.349 . S
C2123 H2115 0.950 . S
C2123 C2121 1.327 . S
C2124 C2112 1.349 . S
C2124 H2118 0.950 . S
C2124 C2125 1.327 . S
C2125 H2119 0.950 . S
C2125 C2124 1.327 . S
C2125 C2129 1.429 . S
C2126 C2109 1.574 . S
C2126 H2120 0.949 . S
C2126 C2130 1.368 . S
C2127 C2108 1.429 . S
C2127 C2121 1.429 . S
C2127 C2128 1.523 . S
C2128 C2109 1.368 . S
C2128 C2122 1.368 . S
C2128 C2127 1.523 . S
C2129 C2113 1.429 . S
C2129 C2125 1.429 . S
C2129 C2130 1.523 . S
C2130 C2114 1.368 . S
C2130 C2126 1.368 . S
C2130 C2129 1.523 . S
H2131 C2106 0.950 . S
H2132 C2108 0.950 . S
H2133 C2109 0.949 . S
H2134 C2111 0.950 . S
H2135 C2113 0.950 . S
C2136 C2137 1.349 . S
C2136 C2138 1.327 . S
C2136 H2161 0.950 . S
C2137 C2136 1.349 . S
C2137 C2153 1.349 . S
C2138 C2136 1.327 . S
C2138 C2157 1.429 . S
C2138 H2162 0.950 . S
C2139 C2156 1.574 . S
C2139 C2158 1.368 . S
C2139 H2163 0.949 . S
H2140 C2144 0.949 . S
C2141 C2142 1.349 . S
C2141 C2143 1.327 . S
C2141 H2164 0.950 . S
C2142 C2141 1.349 . S
C2142 C2154 1.349 . S
C2143 C2141 1.327 . S
C2143 C2159 1.429 . S
C2143 H2165 0.950 . S
C2144 H2140 0.949 . S
C2144 C2152 1.574 . S
C2144 C2160 1.368 . S
H2145 C2153 0.950 . S
H2146 C2151 0.950 . S
H2147 C2152 0.949 . S
H2148 C2154 0.950 . S
H2149 C2155 0.950 . S
H2150 C2156 0.949 . S
C2151 H2146 0.950 . S
C2151 C2153 1.327 . S
C2151 C2157 1.429 . S
C2152 C2144 1.574 . S
C2152 H2147 0.949 . S
C2152 C2158 1.368 . S
C2153 C2137 1.349 . S
C2153 H2145 0.950 . S
C2153 C2151 1.327 . S
C2154 C2142 1.349 . S
C2154 H2148 0.950 . S
C2154 C2155 1.327 . S
C2155 H2149 0.950 . S
C2155 C2154 1.327 . S
C2155 C2159 1.429 . S
C2156 C2139 1.574 . S
C2156 H2150 0.949 . S
C2156 C2160 1.368 . S
C2157 C2138 1.429 . S
C2157 C2151 1.429 . S
C2157 C2158 1.523 . S
C2158 C2139 1.368 . S
C2158 C2152 1.368 . S
C2158 C2157 1.523 . S
C2159 C2143 1.429 . S
C2159 C2155 1.429 . S
C2159 C2160 1.523 . S
C2160 C2144 1.368 . S
C2160 C2156 1.368 . S
C2160 C2159 1.523 . S
H2161 C2136 0.950 . S
H2162 C2138 0.950 . S
H2163 C2139 0.949 . S
H2164 C2141 0.950 . S
H2165 C2143 0.950 . S
C2166 C2167 1.349 . S
C2166 C2168 1.327 . S
C2166 H2191 0.950 . S
C2167 C2166 1.349 . S
C2167 C2183 1.349 . S
C2168 C2166 1.327 . S
C2168 C2187 1.429 . S
C2168 H2192 0.950 . S
C2169 C2186 1.574 . S
C2169 C2188 1.368 . S
C2169 H2193 0.949 . S
H2170 C2174 0.949 . S
C2171 C2172 1.349 . S
C2171 C2173 1.327 . S
C2171 H2194 0.950 . S
C2172 C2171 1.349 . S
C2172 C2184 1.349 . S
C2173 C2171 1.327 . S
C2173 C2189 1.429 . S
C2173 H2195 0.950 . S
C2174 H2170 0.949 . S
C2174 C2182 1.574 . S
C2174 C2190 1.368 . S
H2175 C2183 0.950 . S
H2176 C2181 0.950 . S
H2177 C2182 0.949 . S
H2178 C2184 0.950 . S
H2179 C2185 0.950 . S
H2180 C2186 0.949 . S
C2181 H2176 0.950 . S
C2181 C2183 1.327 . S
C2181 C2187 1.429 . S
C2182 C2174 1.574 . S
C2182 H2177 0.949 . S
C2182 C2188 1.368 . S
C2183 C2167 1.349 . S
C2183 H2175 0.950 . S
C2183 C2181 1.327 . S
C2184 C2172 1.349 . S
C2184 H2178 0.950 . S
C2184 C2185 1.327 . S
C2185 H2179 0.950 . S
C2185 C2184 1.327 . S
C2185 C2189 1.429 . S
C2186 C2169 1.574 . S
C2186 H2180 0.949 . S
C2186 C2190 1.368 . S
C2187 C2168 1.429 . S
C2187 C2181 1.429 . S
C2187 C2188 1.523 . S
C2188 C2169 1.368 . S
C2188 C2182 1.368 . S
C2188 C2187 1.523 . S
C2189 C2173 1.429 . S
C2189 C2185 1.429 . S
C2189 C2190 1.523 . S
C2190 C2174 1.368 . S
C2190 C2186 1.368 . S
C2190 C2189 1.523 . S
H2191 C2166 0.950 . S
H2192 C2168 0.950 . S
H2193 C2169 0.949 . S
H2194 C2171 0.950 . S
H2195 C2173 0.950 . S
C2196 C2197 1.349 . S
C2196 C2198 1.327 . S
C2196 H2221 0.950 . S
C2197 C2196 1.349 . S
C2197 C2213 1.349 . S
C2198 C2196 1.327 . S
C2198 C2217 1.429 . S
C2198 H2222 0.950 . S
C2199 C2216 1.574 . S
C2199 C2218 1.368 1_655 S
C2199 H2223 0.949 . S
H2200 C2204 0.949 . S
C2201 C2202 1.349 . S
C2201 C2203 1.327 . S
C2201 H2224 0.950 . S
C2202 C2201 1.349 . S
C2202 C2214 1.349 . S
C2203 C2201 1.327 . S
C2203 C2219 1.429 . S
C2203 H2225 0.950 . S
C2204 H2200 0.949 . S
C2204 C2212 1.574 . S
C2204 C2220 1.368 1_455 S
H2205 C2213 0.950 . S
H2206 C2211 0.950 . S
H2207 C2212 0.949 . S
H2208 C2214 0.950 . S
H2209 C2215 0.950 . S
H2210 C2216 0.949 . S
C2211 H2206 0.950 . S
C2211 C2213 1.327 . S
C2211 C2217 1.429 . S
C2212 C2204 1.574 . S
C2212 H2207 0.949 . S
C2212 C2218 1.368 . S
C2213 C2197 1.349 . S
C2213 H2205 0.950 . S
C2213 C2211 1.327 . S
C2214 C2202 1.349 . S
C2214 H2208 0.950 . S
C2214 C2215 1.327 . S
C2215 H2209 0.950 . S
C2215 C2214 1.327 . S
C2215 C2219 1.429 . S
C2216 C2199 1.574 . S
C2216 H2210 0.949 . S
C2216 C2220 1.368 . S
C2217 C2198 1.429 . S
C2217 C2211 1.429 . S
C2217 C2218 1.523 . S
C2218 C2199 1.368 1_455 S
C2218 C2212 1.368 . S
C2218 C2217 1.523 . S
C2219 C2203 1.429 . S
C2219 C2215 1.429 . S
C2219 C2220 1.523 . S
C2220 C2204 1.368 1_655 S
C2220 C2216 1.368 . S
C2220 C2219 1.523 . S
H2221 C2196 0.950 . S
H2222 C2198 0.950 . S
H2223 C2199 0.949 . S
H2224 C2201 0.950 . S
H2225 C2203 0.950 . S
C2226 C2227 1.349 . S
C2226 C2228 1.327 . S
C2226 H2251 0.950 . S
C2227 C2226 1.349 . S
C2227 C2243 1.349 . S
C2228 C2226 1.327 . S
C2228 C2247 1.429 . S
C2228 H2252 0.950 . S
C2229 C2246 1.574 1_655 S
C2229 C2248 1.368 . S
C2229 H2253 0.949 . S
H2230 C2234 0.949 . S
C2231 C2232 1.349 . S
C2231 C2233 1.327 . S
C2231 H2254 0.950 . S
C2232 C2231 1.349 . S
C2232 C2244 1.349 . S
C2233 C2231 1.327 . S
C2233 C2249 1.429 . S
C2233 H2255 0.950 . S
C2234 H2230 0.949 . S
C2234 C2242 1.574 1_455 S
C2234 C2250 1.368 . S
H2235 C2243 0.950 . S
H2236 C2241 0.950 . S
H2237 C2242 0.949 . S
H2238 C2244 0.950 . S
H2239 C2245 0.950 . S
H2240 C2246 0.949 . S
C2241 H2236 0.950 . S
C2241 C2243 1.327 . S
C2241 C2247 1.429 . S
C2242 C2234 1.574 1_655 S
C2242 H2237 0.949 . S
C2242 C2248 1.368 . S
C2243 C2227 1.349 . S
C2243 H2235 0.950 . S
C2243 C2241 1.327 . S
C2244 C2232 1.349 . S
C2244 H2238 0.950 . S
C2244 C2245 1.327 . S
C2245 H2239 0.950 . S
C2245 C2244 1.327 . S
C2245 C2249 1.429 . S
C2246 C2229 1.574 1_455 S
C2246 H2240 0.949 . S
C2246 C2250 1.368 . S
C2247 C2228 1.429 . S
C2247 C2241 1.429 . S
C2247 C2248 1.523 . S
C2248 C2229 1.368 . S
C2248 C2242 1.368 . S
C2248 C2247 1.523 . S
C2249 C2233 1.429 . S
C2249 C2245 1.429 . S
C2249 C2250 1.523 . S
C2250 C2234 1.368 . S
C2250 C2246 1.368 . S
C2250 C2249 1.523 . S
H2251 C2226 0.950 . S
H2252 C2228 0.950 . S
H2253 C2229 0.949 . S
H2254 C2231 0.950 . S
H2255 C2233 0.950 . S
C2256 C2257 1.349 . S
C2256 C2258 1.327 . S
C2256 H2281 0.950 . S
C2257 C2256 1.349 . S
C2257 C2273 1.349 . S
C2258 C2256 1.327 . S
C2258 C2277 1.429 . S
C2258 H2282 0.950 . S
C2259 C2276 1.574 . S
C2259 C2278 1.368 . S
C2259 H2283 0.949 . S
H2260 C2264 0.949 . S
C2261 C2262 1.349 . S
C2261 C2263 1.327 . S
C2261 H2284 0.950 . S
C2262 C2261 1.349 . S
C2262 C2274 1.349 . S
C2263 C2261 1.327 . S
C2263 C2279 1.429 . S
C2263 H2285 0.950 . S
C2264 H2260 0.949 . S
C2264 C2272 1.574 . S
C2264 C2280 1.368 . S
H2265 C2273 0.950 . S
H2266 C2271 0.950 . S
H2267 C2272 0.949 . S
H2268 C2274 0.950 . S
H2269 C2275 0.950 . S
H2270 C2276 0.949 . S
C2271 H2266 0.950 . S
C2271 C2273 1.327 . S
C2271 C2277 1.429 . S
C2272 C2264 1.574 . S
C2272 H2267 0.949 . S
C2272 C2278 1.368 . S
C2273 C2257 1.349 . S
C2273 H2265 0.950 . S
C2273 C2271 1.327 . S
C2274 C2262 1.349 . S
C2274 H2268 0.950 . S
C2274 C2275 1.327 . S
C2275 H2269 0.950 . S
C2275 C2274 1.327 . S
C2275 C2279 1.429 . S
C2276 C2259 1.574 . S
C2276 H2270 0.949 . S
C2276 C2280 1.368 . S
C2277 C2258 1.429 . S
C2277 C2271 1.429 . S
C2277 C2278 1.523 . S
C2278 C2259 1.368 . S
C2278 C2272 1.368 . S
C2278 C2277 1.523 . S
C2279 C2263 1.429 . S
C2279 C2275 1.429 . S
C2279 C2280 1.523 . S
C2280 C2264 1.368 . S
C2280 C2276 1.368 . S
C2280 C2279 1.523 . S
H2281 C2256 0.950 . S
H2282 C2258 0.950 . S
H2283 C2259 0.949 . S
H2284 C2261 0.950 . S
H2285 C2263 0.950 . S
C2286 C2287 1.349 . S
C2286 C2288 1.327 . S
C2286 H2311 0.950 . S
C2287 C2286 1.349 . S
C2287 C2303 1.349 . S
C2288 C2286 1.327 . S
C2288 C2307 1.429 . S
C2288 H2312 0.950 . S
C2289 C2306 1.574 1_655 S
C2289 C2308 1.368 . S
C2289 H2313 0.949 . S
H2290 C2294 0.949 . S
C2291 C2292 1.349 . S
C2291 C2293 1.327 . S
C2291 H2314 0.950 . S
C2292 C2291 1.349 . S
C2292 C2304 1.349 . S
C2293 C2291 1.327 . S
C2293 C2309 1.429 . S
C2293 H2315 0.950 . S
C2294 H2290 0.949 . S
C2294 C2302 1.574 1_455 S
C2294 C2310 1.368 . S
H2295 C2303 0.950 . S
H2296 C2301 0.950 . S
H2297 C2302 0.949 . S
H2298 C2304 0.950 . S
H2299 C2305 0.950 . S
H2300 C2306 0.949 . S
C2301 H2296 0.950 . S
C2301 C2303 1.327 . S
C2301 C2307 1.429 . S
C2302 C2294 1.574 1_655 S
C2302 H2297 0.949 . S
C2302 C2308 1.368 . S
C2303 C2287 1.349 . S
C2303 H2295 0.950 . S
C2303 C2301 1.327 . S
C2304 C2292 1.349 . S
C2304 H2298 0.950 . S
C2304 C2305 1.327 . S
C2305 H2299 0.950 . S
C2305 C2304 1.327 . S
C2305 C2309 1.429 . S
C2306 C2289 1.574 1_455 S
C2306 H2300 0.949 . S
C2306 C2310 1.368 . S
C2307 C2288 1.429 . S
C2307 C2301 1.429 . S
C2307 C2308 1.523 . S
C2308 C2289 1.368 . S
C2308 C2302 1.368 . S
C2308 C2307 1.523 . S
C2309 C2293 1.429 . S
C2309 C2305 1.429 . S
C2309 C2310 1.523 . S
C2310 C2294 1.368 . S
C2310 C2306 1.368 . S
C2310 C2309 1.523 . S
H2311 C2286 0.950 . S
H2312 C2288 0.950 . S
H2313 C2289 0.949 . S
H2314 C2291 0.950 . S
H2315 C2293 0.950 . S
C2316 C2317 1.349 . S
C2316 C2318 1.327 . S
C2316 H2341 0.950 . S
C2317 C2316 1.349 . S
C2317 C2333 1.349 . S
C2318 C2316 1.327 . S
C2318 C2337 1.429 . S
C2318 H2342 0.950 . S
C2319 C2336 1.574 . S
C2319 C2338 1.368 1_655 S
C2319 H2343 0.949 . S
H2320 C2324 0.949 . S
C2321 C2322 1.349 . S
C2321 C2323 1.327 . S
C2321 H2344 0.950 . S
C2322 C2321 1.349 . S
C2322 C2334 1.349 . S
C2323 C2321 1.327 . S
C2323 C2339 1.429 . S
C2323 H2345 0.950 . S
C2324 H2320 0.949 . S
C2324 C2332 1.574 . S
C2324 C2340 1.368 1_455 S
H2325 C2333 0.950 . S
H2326 C2331 0.950 . S
H2327 C2332 0.949 . S
H2328 C2334 0.950 . S
H2329 C2335 0.950 . S
H2330 C2336 0.949 . S
C2331 H2326 0.950 . S
C2331 C2333 1.327 . S
C2331 C2337 1.429 . S
C2332 C2324 1.574 . S
C2332 H2327 0.949 . S
C2332 C2338 1.368 . S
C2333 C2317 1.349 . S
C2333 H2325 0.950 . S
C2333 C2331 1.327 . S
C2334 C2322 1.349 . S
C2334 H2328 0.950 . S
C2334 C2335 1.327 . S
C2335 H2329 0.950 . S
C2335 C2334 1.327 . S
C2335 C2339 1.429 . S
C2336 C2319 1.574 . S
C2336 H2330 0.949 . S
C2336 C2340 1.368 . S
C2337 C2318 1.429 . S
C2337 C2331 1.429 . S
C2337 C2338 1.523 . S
C2338 C2319 1.368 1_455 S
C2338 C2332 1.368 . S
C2338 C2337 1.523 . S
C2339 C2323 1.429 . S
C2339 C2335 1.429 . S
C2339 C2340 1.523 . S
C2340 C2324 1.368 1_655 S
C2340 C2336 1.368 . S
C2340 C2339 1.523 . S
H2341 C2316 0.950 . S
H2342 C2318 0.950 . S
H2343 C2319 0.949 . S
H2344 C2321 0.950 . S
H2345 C2323 0.950 . S
C2346 C2347 1.349 . S
C2346 C2348 1.327 . S
C2346 H2371 0.950 . S
C2347 C2346 1.349 . S
C2347 C2363 1.349 . S
C2348 C2346 1.327 . S
C2348 C2367 1.429 . S
C2348 H2372 0.950 . S
C2349 C2366 1.574 . S
C2349 C2368 1.368 . S
C2349 H2373 0.949 . S
H2350 C2354 0.949 . S
C2351 C2352 1.349 . S
C2351 C2353 1.327 . S
C2351 H2374 0.950 . S
C2352 C2351 1.349 . S
C2352 C2364 1.349 . S
C2353 C2351 1.327 . S
C2353 C2369 1.429 . S
C2353 H2375 0.950 . S
C2354 H2350 0.949 . S
C2354 C2362 1.574 . S
C2354 C2370 1.368 . S
H2355 C2363 0.950 . S
H2356 C2361 0.950 . S
H2357 C2362 0.949 . S
H2358 C2364 0.950 . S
H2359 C2365 0.950 . S
H2360 C2366 0.949 . S
C2361 H2356 0.950 . S
C2361 C2363 1.327 . S
C2361 C2367 1.429 . S
C2362 C2354 1.574 . S
C2362 H2357 0.949 . S
C2362 C2368 1.368 . S
C2363 C2347 1.349 . S
C2363 H2355 0.950 . S
C2363 C2361 1.327 . S
C2364 C2352 1.349 . S
C2364 H2358 0.950 . S
C2364 C2365 1.327 . S
C2365 H2359 0.950 . S
C2365 C2364 1.327 . S
C2365 C2369 1.429 . S
C2366 C2349 1.574 . S
C2366 H2360 0.949 . S
C2366 C2370 1.368 . S
C2367 C2348 1.429 . S
C2367 C2361 1.429 . S
C2367 C2368 1.523 . S
C2368 C2349 1.368 . S
C2368 C2362 1.368 . S
C2368 C2367 1.523 . S
C2369 C2353 1.429 . S
C2369 C2365 1.429 . S
C2369 C2370 1.523 . S
C2370 C2354 1.368 . S
C2370 C2366 1.368 . S
C2370 C2369 1.523 . S
H2371 C2346 0.950 . S
H2372 C2348 0.950 . S
H2373 C2349 0.949 . S
H2374 C2351 0.950 . S
H2375 C2353 0.950 . S
C2376 C2377 1.349 . S
C2376 C2378 1.327 . S
C2376 H2401 0.950 . S
C2377 C2376 1.349 . S
C2377 C2393 1.349 . S
C2378 C2376 1.327 . S
C2378 C2397 1.429 . S
C2378 H2402 0.950 . S
C2379 C2396 1.574 . S
C2379 C2398 1.368 . S
C2379 H2403 0.949 . S
H2380 C2384 0.949 . S
C2381 C2382 1.349 . S
C2381 C2383 1.327 . S
C2381 H2404 0.950 . S
C2382 C2381 1.349 . S
C2382 C2394 1.349 . S
C2383 C2381 1.327 . S
C2383 C2399 1.429 . S
C2383 H2405 0.950 . S
C2384 H2380 0.949 . S
C2384 C2392 1.574 . S
C2384 C2400 1.368 . S
H2385 C2393 0.950 . S
H2386 C2391 0.950 . S
H2387 C2392 0.949 . S
H2388 C2394 0.950 . S
H2389 C2395 0.950 . S
H2390 C2396 0.949 . S
C2391 H2386 0.950 . S
C2391 C2393 1.327 . S
C2391 C2397 1.429 . S
C2392 C2384 1.574 . S
C2392 H2387 0.949 . S
C2392 C2398 1.368 . S
C2393 C2377 1.349 . S
C2393 H2385 0.950 . S
C2393 C2391 1.327 . S
C2394 C2382 1.349 . S
C2394 H2388 0.950 . S
C2394 C2395 1.327 . S
C2395 H2389 0.950 . S
C2395 C2394 1.327 . S
C2395 C2399 1.429 . S
C2396 C2379 1.574 . S
C2396 H2390 0.949 . S
C2396 C2400 1.368 . S
C2397 C2378 1.429 . S
C2397 C2391 1.429 . S
C2397 C2398 1.523 . S
C2398 C2379 1.368 . S
C2398 C2392 1.368 . S
C2398 C2397 1.523 . S
C2399 C2383 1.429 . S
C2399 C2395 1.429 . S
C2399 C2400 1.523 . S
C2400 C2384 1.368 . S
C2400 C2396 1.368 . S
C2400 C2399 1.523 . S
H2401 C2376 0.950 . S
H2402 C2378 0.950 . S
H2403 C2379 0.949 . S
H2404 C2381 0.950 . S
H2405 C2383 0.950 . S
C2406 C2407 1.349 . S
C2406 C2408 1.327 . S
C2406 H2431 0.950 . S
C2407 C2406 1.349 . S
C2407 C2423 1.349 . S
C2408 C2406 1.327 . S
C2408 C2427 1.429 . S
C2408 H2432 0.950 . S
C2409 C2426 1.574 . S
C2409 C2428 1.368 . S
C2409 H2433 0.949 . S
H2410 C2414 0.949 . S
C2411 C2412 1.349 . S
C2411 C2413 1.327 . S
C2411 H2434 0.950 . S
C2412 C2411 1.349 . S
C2412 C2424 1.349 . S
C2413 C2411 1.327 . S
C2413 C2429 1.429 . S
C2413 H2435 0.950 . S
C2414 H2410 0.949 . S
C2414 C2422 1.574 . S
C2414 C2430 1.368 . S
H2415 C2423 0.950 . S
H2416 C2421 0.950 . S
H2417 C2422 0.949 . S
H2418 C2424 0.950 . S
H2419 C2425 0.950 . S
H2420 C2426 0.949 . S
C2421 H2416 0.950 . S
C2421 C2423 1.327 . S
C2421 C2427 1.429 . S
C2422 C2414 1.574 . S
C2422 H2417 0.949 . S
C2422 C2428 1.368 . S
C2423 C2407 1.349 . S
C2423 H2415 0.950 . S
C2423 C2421 1.327 . S
C2424 C2412 1.349 . S
C2424 H2418 0.950 . S
C2424 C2425 1.327 . S
C2425 H2419 0.950 . S
C2425 C2424 1.327 . S
C2425 C2429 1.429 . S
C2426 C2409 1.574 . S
C2426 H2420 0.949 . S
C2426 C2430 1.368 . S
C2427 C2408 1.429 . S
C2427 C2421 1.429 . S
C2427 C2428 1.523 . S
C2428 C2409 1.368 . S
C2428 C2422 1.368 . S
C2428 C2427 1.523 . S
C2429 C2413 1.429 . S
C2429 C2425 1.429 . S
C2429 C2430 1.523 . S
C2430 C2414 1.368 . S
C2430 C2426 1.368 . S
C2430 C2429 1.523 . S
H2431 C2406 0.950 . S
H2432 C2408 0.950 . S
H2433 C2409 0.949 . S
H2434 C2411 0.950 . S
H2435 C2413 0.950 . S
C2436 C2437 1.349 . S
C2436 C2438 1.327 . S
C2436 H2461 0.950 . S
C2437 C2436 1.349 . S
C2437 C2453 1.349 . S
C2438 C2436 1.327 . S
C2438 C2457 1.429 . S
C2438 H2462 0.950 . S
C2439 C2456 1.574 . S
C2439 C2458 1.368 1_655 S
C2439 H2463 0.949 . S
H2440 C2444 0.949 . S
C2441 C2442 1.349 . S
C2441 C2443 1.327 . S
C2441 H2464 0.950 . S
C2442 C2441 1.349 . S
C2442 C2454 1.349 . S
C2443 C2441 1.327 . S
C2443 C2459 1.429 . S
C2443 H2465 0.950 . S
C2444 H2440 0.949 . S
C2444 C2452 1.574 . S
C2444 C2460 1.368 1_455 S
H2445 C2453 0.950 . S
H2446 C2451 0.950 . S
H2447 C2452 0.949 . S
H2448 C2454 0.950 . S
H2449 C2455 0.950 . S
H2450 C2456 0.949 . S
C2451 H2446 0.950 . S
C2451 C2453 1.327 . S
C2451 C2457 1.429 . S
C2452 C2444 1.574 . S
C2452 H2447 0.949 . S
C2452 C2458 1.368 . S
C2453 C2437 1.349 . S
C2453 H2445 0.950 . S
C2453 C2451 1.327 . S
C2454 C2442 1.349 . S
C2454 H2448 0.950 . S
C2454 C2455 1.327 . S
C2455 H2449 0.950 . S
C2455 C2454 1.327 . S
C2455 C2459 1.429 . S
C2456 C2439 1.574 . S
C2456 H2450 0.949 . S
C2456 C2460 1.368 . S
C2457 C2438 1.429 . S
C2457 C2451 1.429 . S
C2457 C2458 1.523 . S
C2458 C2439 1.368 1_455 S
C2458 C2452 1.368 . S
C2458 C2457 1.523 . S
C2459 C2443 1.429 . S
C2459 C2455 1.429 . S
C2459 C2460 1.523 . S
C2460 C2444 1.368 1_655 S
C2460 C2456 1.368 . S
C2460 C2459 1.523 . S
H2461 C2436 0.950 . S
H2462 C2438 0.950 . S
H2463 C2439 0.949 . S
H2464 C2441 0.950 . S
H2465 C2443 0.950 . S
C2466 C2467 1.349 . S
C2466 C2468 1.327 . S
C2466 H2491 0.950 . S
C2467 C2466 1.349 . S
C2467 C2483 1.349 . S
C2468 C2466 1.327 . S
C2468 C2487 1.429 . S
C2468 H2492 0.950 . S
C2469 C2486 1.574 1_455 S
C2469 C2488 1.368 . S
C2469 H2493 0.949 . S
H2470 C2474 0.949 . S
C2471 C2472 1.349 . S
C2471 C2473 1.327 . S
C2471 H2494 0.950 . S
C2472 C2471 1.349 . S
C2472 C2484 1.349 . S
C2473 C2471 1.327 . S
C2473 C2489 1.429 . S
C2473 H2495 0.950 . S
C2474 H2470 0.949 . S
C2474 C2482 1.574 1_655 S
C2474 C2490 1.368 . S
H2475 C2483 0.950 . S
H2476 C2481 0.950 . S
H2477 C2482 0.949 . S
H2478 C2484 0.950 . S
H2479 C2485 0.950 . S
H2480 C2486 0.949 . S
C2481 H2476 0.950 . S
C2481 C2483 1.327 . S
C2481 C2487 1.429 . S
C2482 C2474 1.574 1_455 S
C2482 H2477 0.949 . S
C2482 C2488 1.368 . S
C2483 C2467 1.349 . S
C2483 H2475 0.950 . S
C2483 C2481 1.327 . S
C2484 C2472 1.349 . S
C2484 H2478 0.950 . S
C2484 C2485 1.327 . S
C2485 H2479 0.950 . S
C2485 C2484 1.327 . S
C2485 C2489 1.429 . S
C2486 C2469 1.574 1_655 S
C2486 H2480 0.949 . S
C2486 C2490 1.368 . S
C2487 C2468 1.429 . S
C2487 C2481 1.429 . S
C2487 C2488 1.523 . S
C2488 C2469 1.368 . S
C2488 C2482 1.368 . S
C2488 C2487 1.523 . S
C2489 C2473 1.429 . S
C2489 C2485 1.429 . S
C2489 C2490 1.523 . S
C2490 C2474 1.368 . S
C2490 C2486 1.368 . S
C2490 C2489 1.523 . S
H2491 C2466 0.950 . S
H2492 C2468 0.950 . S
H2493 C2469 0.949 . S
H2494 C2471 0.950 . S
H2495 C2473 0.950 . S
C2496 C2497 1.349 . S
C2496 C2498 1.327 . S
C2496 H2521 0.950 . S
C2497 C2496 1.349 . S
C2497 C2513 1.349 . S
C2498 C2496 1.327 . S
C2498 C2517 1.429 . S
C2498 H2522 0.950 . S
C2499 C2516 1.574 . S
C2499 C2518 1.368 . S
C2499 H2523 0.949 . S
H2500 C2504 0.949 . S
C2501 C2502 1.349 . S
C2501 C2503 1.327 . S
C2501 H2524 0.950 . S
C2502 C2501 1.349 . S
C2502 C2514 1.349 . S
C2503 C2501 1.327 . S
C2503 C2519 1.429 . S
C2503 H2525 0.950 . S
C2504 H2500 0.949 . S
C2504 C2512 1.574 . S
C2504 C2520 1.368 . S
H2505 C2513 0.950 . S
H2506 C2511 0.950 . S
H2507 C2512 0.949 . S
H2508 C2514 0.950 . S
H2509 C2515 0.950 . S
H2510 C2516 0.949 . S
C2511 H2506 0.950 . S
C2511 C2513 1.327 . S
C2511 C2517 1.429 . S
C2512 C2504 1.574 . S
C2512 H2507 0.949 . S
C2512 C2518 1.368 . S
C2513 C2497 1.349 . S
C2513 H2505 0.950 . S
C2513 C2511 1.327 . S
C2514 C2502 1.349 . S
C2514 H2508 0.950 . S
C2514 C2515 1.327 . S
C2515 H2509 0.950 . S
C2515 C2514 1.327 . S
C2515 C2519 1.429 . S
C2516 C2499 1.574 . S
C2516 H2510 0.949 . S
C2516 C2520 1.368 . S
C2517 C2498 1.429 . S
C2517 C2511 1.429 . S
C2517 C2518 1.523 . S
C2518 C2499 1.368 . S
C2518 C2512 1.368 . S
C2518 C2517 1.523 . S
C2519 C2503 1.429 . S
C2519 C2515 1.429 . S
C2519 C2520 1.523 . S
C2520 C2504 1.368 . S
C2520 C2516 1.368 . S
C2520 C2519 1.523 . S
H2521 C2496 0.950 . S
H2522 C2498 0.950 . S
H2523 C2499 0.949 . S
H2524 C2501 0.950 . S
H2525 C2503 0.950 . S
C2526 C2527 1.349 . S
C2526 C2528 1.327 . S
C2526 H2551 0.950 . S
C2527 C2526 1.349 . S
C2527 C2543 1.349 . S
C2528 C2526 1.327 . S
C2528 C2547 1.429 . S
C2528 H2552 0.950 . S
C2529 C2546 1.574 . S
C2529 C2548 1.368 . S
C2529 H2553 0.949 . S
H2530 C2534 0.949 . S
C2531 C2532 1.349 . S
C2531 C2533 1.327 . S
C2531 H2554 0.950 . S
C2532 C2531 1.349 . S
C2532 C2544 1.349 . S
C2533 C2531 1.327 . S
C2533 C2549 1.429 . S
C2533 H2555 0.950 . S
C2534 H2530 0.949 . S
C2534 C2542 1.574 . S
C2534 C2550 1.368 . S
H2535 C2543 0.950 . S
H2536 C2541 0.950 . S
H2537 C2542 0.949 . S
H2538 C2544 0.950 . S
H2539 C2545 0.950 . S
H2540 C2546 0.949 . S
C2541 H2536 0.950 . S
C2541 C2543 1.327 . S
C2541 C2547 1.429 . S
C2542 C2534 1.574 . S
C2542 H2537 0.949 . S
C2542 C2548 1.368 . S
C2543 C2527 1.349 . S
C2543 H2535 0.950 . S
C2543 C2541 1.327 . S
C2544 C2532 1.349 . S
C2544 H2538 0.950 . S
C2544 C2545 1.327 . S
C2545 H2539 0.950 . S
C2545 C2544 1.327 . S
C2545 C2549 1.429 . S
C2546 C2529 1.574 . S
C2546 H2540 0.949 . S
C2546 C2550 1.368 . S
C2547 C2528 1.429 . S
C2547 C2541 1.429 . S
C2547 C2548 1.523 . S
C2548 C2529 1.368 . S
C2548 C2542 1.368 . S
C2548 C2547 1.523 . S
C2549 C2533 1.429 . S
C2549 C2545 1.429 . S
C2549 C2550 1.523 . S
C2550 C2534 1.368 . S
C2550 C2546 1.368 . S
C2550 C2549 1.523 . S
H2551 C2526 0.950 . S
H2552 C2528 0.950 . S
H2553 C2529 0.949 . S
H2554 C2531 0.950 . S
H2555 C2533 0.950 . S
C2556 C2557 1.349 . S
C2556 C2558 1.327 . S
C2556 H2581 0.950 . S
C2557 C2556 1.349 . S
C2557 C2573 1.349 . S
C2558 C2556 1.327 . S
C2558 C2577 1.429 . S
C2558 H2582 0.950 . S
C2559 C2576 1.574 . S
C2559 C2578 1.368 . S
C2559 H2583 0.949 . S
H2560 C2564 0.949 . S
C2561 C2562 1.349 . S
C2561 C2563 1.327 . S
C2561 H2584 0.950 . S
C2562 C2561 1.349 . S
C2562 C2574 1.349 . S
C2563 C2561 1.327 . S
C2563 C2579 1.429 . S
C2563 H2585 0.950 . S
C2564 H2560 0.949 . S
C2564 C2572 1.574 . S
C2564 C2580 1.368 . S
H2565 C2573 0.950 . S
H2566 C2571 0.950 . S
H2567 C2572 0.949 . S
H2568 C2574 0.950 . S
H2569 C2575 0.950 . S
H2570 C2576 0.949 . S
C2571 H2566 0.950 . S
C2571 C2573 1.327 . S
C2571 C2577 1.429 . S
C2572 C2564 1.574 . S
C2572 H2567 0.949 . S
C2572 C2578 1.368 . S
C2573 C2557 1.349 . S
C2573 H2565 0.950 . S
C2573 C2571 1.327 . S
C2574 C2562 1.349 . S
C2574 H2568 0.950 . S
C2574 C2575 1.327 . S
C2575 H2569 0.950 . S
C2575 C2574 1.327 . S
C2575 C2579 1.429 . S
C2576 C2559 1.574 . S
C2576 H2570 0.949 . S
C2576 C2580 1.368 . S
C2577 C2558 1.429 . S
C2577 C2571 1.429 . S
C2577 C2578 1.523 . S
C2578 C2559 1.368 . S
C2578 C2572 1.368 . S
C2578 C2577 1.523 . S
C2579 C2563 1.429 . S
C2579 C2575 1.429 . S
C2579 C2580 1.523 . S
C2580 C2564 1.368 . S
C2580 C2576 1.368 . S
C2580 C2579 1.523 . S
H2581 C2556 0.950 . S
H2582 C2558 0.950 . S
H2583 C2559 0.949 . S
H2584 C2561 0.950 . S
H2585 C2563 0.950 . S
C2586 C2587 1.349 . S
C2586 C2588 1.327 . S
C2586 H2611 0.950 . S
C2587 C2586 1.349 . S
C2587 C2603 1.349 . S
C2588 C2586 1.327 . S
C2588 C2607 1.429 . S
C2588 H2612 0.950 . S
C2589 C2606 1.574 . S
C2589 C2608 1.368 . S
C2589 H2613 0.949 . S
H2590 C2594 0.949 . S
C2591 C2592 1.349 . S
C2591 C2593 1.327 . S
C2591 H2614 0.950 . S
C2592 C2591 1.349 . S
C2592 C2604 1.349 . S
C2593 C2591 1.327 . S
C2593 C2609 1.429 . S
C2593 H2615 0.950 . S
C2594 H2590 0.949 . S
C2594 C2602 1.574 . S
C2594 C2610 1.368 . S
H2595 C2603 0.950 . S
H2596 C2601 0.950 . S
H2597 C2602 0.949 . S
H2598 C2604 0.950 . S
H2599 C2605 0.950 . S
H2600 C2606 0.949 . S
C2601 H2596 0.950 . S
C2601 C2603 1.327 . S
C2601 C2607 1.429 . S
C2602 C2594 1.574 . S
C2602 H2597 0.949 . S
C2602 C2608 1.368 . S
C2603 C2587 1.349 . S
C2603 H2595 0.950 . S
C2603 C2601 1.327 . S
C2604 C2592 1.349 . S
C2604 H2598 0.950 . S
C2604 C2605 1.327 . S
C2605 H2599 0.950 . S
C2605 C2604 1.327 . S
C2605 C2609 1.429 . S
C2606 C2589 1.574 . S
C2606 H2600 0.949 . S
C2606 C2610 1.368 . S
C2607 C2588 1.429 . S
C2607 C2601 1.429 . S
C2607 C2608 1.523 . S
C2608 C2589 1.368 . S
C2608 C2602 1.368 . S
C2608 C2607 1.523 . S
C2609 C2593 1.429 . S
C2609 C2605 1.429 . S
C2609 C2610 1.523 . S
C2610 C2594 1.368 . S
C2610 C2606 1.368 . S
C2610 C2609 1.523 . S
H2611 C2586 0.950 . S
H2612 C2588 0.950 . S
H2613 C2589 0.949 . S
H2614 C2591 0.950 . S
H2615 C2593 0.950 . S
C2616 C2617 1.349 . S
C2616 C2618 1.327 . S
C2616 H2641 0.950 . S
C2617 C2616 1.349 . S
C2617 C2633 1.349 . S
C2618 C2616 1.327 . S
C2618 C2637 1.429 . S
C2618 H2642 0.950 . S
C2619 C2636 1.574 . S
C2619 C2638 1.368 . S
C2619 H2643 0.949 . S
H2620 C2624 0.949 . S
C2621 C2622 1.349 . S
C2621 C2623 1.327 . S
C2621 H2644 0.950 . S
C2622 C2621 1.349 . S
C2622 C2634 1.349 . S
C2623 C2621 1.327 . S
C2623 C2639 1.429 . S
C2623 H2645 0.950 . S
C2624 H2620 0.949 . S
C2624 C2632 1.574 . S
C2624 C2640 1.368 . S
H2625 C2633 0.950 . S
H2626 C2631 0.950 . S
H2627 C2632 0.949 . S
H2628 C2634 0.950 . S
H2629 C2635 0.950 . S
H2630 C2636 0.949 . S
C2631 H2626 0.950 . S
C2631 C2633 1.327 . S
C2631 C2637 1.429 . S
C2632 C2624 1.574 . S
C2632 H2627 0.949 . S
C2632 C2638 1.368 . S
C2633 C2617 1.349 . S
C2633 H2625 0.950 . S
C2633 C2631 1.327 . S
C2634 C2622 1.349 . S
C2634 H2628 0.950 . S
C2634 C2635 1.327 . S
C2635 H2629 0.950 . S
C2635 C2634 1.327 . S
C2635 C2639 1.429 . S
C2636 C2619 1.574 . S
C2636 H2630 0.949 . S
C2636 C2640 1.368 . S
C2637 C2618 1.429 . S
C2637 C2631 1.429 . S
C2637 C2638 1.523 . S
C2638 C2619 1.368 . S
C2638 C2632 1.368 . S
C2638 C2637 1.523 . S
C2639 C2623 1.429 . S
C2639 C2635 1.429 . S
C2639 C2640 1.523 . S
C2640 C2624 1.368 . S
C2640 C2636 1.368 . S
C2640 C2639 1.523 . S
H2641 C2616 0.950 . S
H2642 C2618 0.950 . S
H2643 C2619 0.949 . S
H2644 C2621 0.950 . S
H2645 C2623 0.950 . S
C2646 C2647 1.349 . S
C2646 C2648 1.327 . S
C2646 H2671 0.950 . S
C2647 C2646 1.349 . S
C2647 C2663 1.349 . S
C2648 C2646 1.327 . S
C2648 C2667 1.429 . S
C2648 H2672 0.950 . S
C2649 C2666 1.574 . S
C2649 C2668 1.368 . S
C2649 H2673 0.949 . S
H2650 C2654 0.949 . S
C2651 C2652 1.349 . S
C2651 C2653 1.327 . S
C2651 H2674 0.950 . S
C2652 C2651 1.349 . S
C2652 C2664 1.349 . S
C2653 C2651 1.327 . S
C2653 C2669 1.429 . S
C2653 H2675 0.950 . S
C2654 H2650 0.949 . S
C2654 C2662 1.574 . S
C2654 C2670 1.368 . S
H2655 C2663 0.950 . S
H2656 C2661 0.950 . S
H2657 C2662 0.949 . S
H2658 C2664 0.950 . S
H2659 C2665 0.950 . S
H2660 C2666 0.949 . S
C2661 H2656 0.950 . S
C2661 C2663 1.327 . S
C2661 C2667 1.429 . S
C2662 C2654 1.574 . S
C2662 H2657 0.949 . S
C2662 C2668 1.368 . S
C2663 C2647 1.349 . S
C2663 H2655 0.950 . S
C2663 C2661 1.327 . S
C2664 C2652 1.349 . S
C2664 H2658 0.950 . S
C2664 C2665 1.327 . S
C2665 H2659 0.950 . S
C2665 C2664 1.327 . S
C2665 C2669 1.429 . S
C2666 C2649 1.574 . S
C2666 H2660 0.949 . S
C2666 C2670 1.368 . S
C2667 C2648 1.429 . S
C2667 C2661 1.429 . S
C2667 C2668 1.523 . S
C2668 C2649 1.368 . S
C2668 C2662 1.368 . S
C2668 C2667 1.523 . S
C2669 C2653 1.429 . S
C2669 C2665 1.429 . S
C2669 C2670 1.523 . S
C2670 C2654 1.368 . S
C2670 C2666 1.368 . S
C2670 C2669 1.523 . S
H2671 C2646 0.950 . S
H2672 C2648 0.950 . S
H2673 C2649 0.949 . S
H2674 C2651 0.950 . S
H2675 C2653 0.950 . S
C2676 C2677 1.349 . S
C2676 C2678 1.327 . S
C2676 H2701 0.950 . S
C2677 C2676 1.349 . S
C2677 C2693 1.349 . S
C2678 C2676 1.327 . S
C2678 C2697 1.429 . S
C2678 H2702 0.950 . S
C2679 C2696 1.574 . S
C2679 C2698 1.368 . S
C2679 H2703 0.949 . S
H2680 C2684 0.949 . S
C2681 C2682 1.349 . S
C2681 C2683 1.327 . S
C2681 H2704 0.950 . S
C2682 C2681 1.349 . S
C2682 C2694 1.349 . S
C2683 C2681 1.327 . S
C2683 C2699 1.429 . S
C2683 H2705 0.950 . S
C2684 H2680 0.949 . S
C2684 C2692 1.574 . S
C2684 C2700 1.368 . S
H2685 C2693 0.950 . S
H2686 C2691 0.950 . S
H2687 C2692 0.949 . S
H2688 C2694 0.950 . S
H2689 C2695 0.950 . S
H2690 C2696 0.949 . S
C2691 H2686 0.950 . S
C2691 C2693 1.327 . S
C2691 C2697 1.429 . S
C2692 C2684 1.574 . S
C2692 H2687 0.949 . S
C2692 C2698 1.368 . S
C2693 C2677 1.349 . S
C2693 H2685 0.950 . S
C2693 C2691 1.327 . S
C2694 C2682 1.349 . S
C2694 H2688 0.950 . S
C2694 C2695 1.327 . S
C2695 H2689 0.950 . S
C2695 C2694 1.327 . S
C2695 C2699 1.429 . S
C2696 C2679 1.574 . S
C2696 H2690 0.949 . S
C2696 C2700 1.368 . S
C2697 C2678 1.429 . S
C2697 C2691 1.429 . S
C2697 C2698 1.523 . S
C2698 C2679 1.368 . S
C2698 C2692 1.368 . S
C2698 C2697 1.523 . S
C2699 C2683 1.429 . S
C2699 C2695 1.429 . S
C2699 C2700 1.523 . S
C2700 C2684 1.368 . S
C2700 C2696 1.368 . S
C2700 C2699 1.523 . S
H2701 C2676 0.950 . S
H2702 C2678 0.950 . S
H2703 C2679 0.949 . S
H2704 C2681 0.950 . S
H2705 C2683 0.950 . S
C2706 C2707 1.349 . S
C2706 C2708 1.327 . S
C2706 H2731 0.950 . S
C2707 C2706 1.349 . S
C2707 C2723 1.349 . S
C2708 C2706 1.327 . S
C2708 C2727 1.429 . S
C2708 H2732 0.950 . S
C2709 C2726 1.574 . S
C2709 C2728 1.368 . S
C2709 H2733 0.949 . S
H2710 C2714 0.949 . S
C2711 C2712 1.349 . S
C2711 C2713 1.327 . S
C2711 H2734 0.950 . S
C2712 C2711 1.349 . S
C2712 C2724 1.349 . S
C2713 C2711 1.327 . S
C2713 C2729 1.429 . S
C2713 H2735 0.950 . S
C2714 H2710 0.949 . S
C2714 C2722 1.574 . S
C2714 C2730 1.368 . S
H2715 C2723 0.950 . S
H2716 C2721 0.950 . S
H2717 C2722 0.949 . S
H2718 C2724 0.950 . S
H2719 C2725 0.950 . S
H2720 C2726 0.949 . S
C2721 H2716 0.950 . S
C2721 C2723 1.327 . S
C2721 C2727 1.429 . S
C2722 C2714 1.574 . S
C2722 H2717 0.949 . S
C2722 C2728 1.368 . S
C2723 C2707 1.349 . S
C2723 H2715 0.950 . S
C2723 C2721 1.327 . S
C2724 C2712 1.349 . S
C2724 H2718 0.950 . S
C2724 C2725 1.327 . S
C2725 H2719 0.950 . S
C2725 C2724 1.327 . S
C2725 C2729 1.429 . S
C2726 C2709 1.574 . S
C2726 H2720 0.949 . S
C2726 C2730 1.368 . S
C2727 C2708 1.429 . S
C2727 C2721 1.429 . S
C2727 C2728 1.523 . S
C2728 C2709 1.368 . S
C2728 C2722 1.368 . S
C2728 C2727 1.523 . S
C2729 C2713 1.429 . S
C2729 C2725 1.429 . S
C2729 C2730 1.523 . S
C2730 C2714 1.368 . S
C2730 C2726 1.368 . S
C2730 C2729 1.523 . S
H2731 C2706 0.950 . S
H2732 C2708 0.950 . S
H2733 C2709 0.949 . S
H2734 C2711 0.950 . S
H2735 C2713 0.950 . S
C2736 C2737 1.349 . S
C2736 C2738 1.327 . S
C2736 H2761 0.950 . S
C2737 C2736 1.349 . S
C2737 C2753 1.349 . S
C2738 C2736 1.327 . S
C2738 C2757 1.429 . S
C2738 H2762 0.950 . S
C2739 C2756 1.574 . S
C2739 C2758 1.368 . S
C2739 H2763 0.949 . S
H2740 C2744 0.949 . S
C2741 C2742 1.349 . S
C2741 C2743 1.327 . S
C2741 H2764 0.950 . S
C2742 C2741 1.349 . S
C2742 C2754 1.349 . S
C2743 C2741 1.327 . S
C2743 C2759 1.429 . S
C2743 H2765 0.950 . S
C2744 H2740 0.949 . S
C2744 C2752 1.574 . S
C2744 C2760 1.368 . S
H2745 C2753 0.950 . S
H2746 C2751 0.950 . S
H2747 C2752 0.949 . S
H2748 C2754 0.950 . S
H2749 C2755 0.950 . S
H2750 C2756 0.949 . S
C2751 H2746 0.950 . S
C2751 C2753 1.327 . S
C2751 C2757 1.429 . S
C2752 C2744 1.574 . S
C2752 H2747 0.949 . S
C2752 C2758 1.368 . S
C2753 C2737 1.349 . S
C2753 H2745 0.950 . S
C2753 C2751 1.327 . S
C2754 C2742 1.349 . S
C2754 H2748 0.950 . S
C2754 C2755 1.327 . S
C2755 H2749 0.950 . S
C2755 C2754 1.327 . S
C2755 C2759 1.429 . S
C2756 C2739 1.574 . S
C2756 H2750 0.949 . S
C2756 C2760 1.368 . S
C2757 C2738 1.429 . S
C2757 C2751 1.429 . S
C2757 C2758 1.523 . S
C2758 C2739 1.368 . S
C2758 C2752 1.368 . S
C2758 C2757 1.523 . S
C2759 C2743 1.429 . S
C2759 C2755 1.429 . S
C2759 C2760 1.523 . S
C2760 C2744 1.368 . S
C2760 C2756 1.368 . S
C2760 C2759 1.523 . S
H2761 C2736 0.950 . S
H2762 C2738 0.950 . S
H2763 C2739 0.949 . S
H2764 C2741 0.950 . S
H2765 C2743 0.950 . S
C2766 C2767 1.349 . S
C2766 C2768 1.327 . S
C2766 H2791 0.950 . S
C2767 C2766 1.349 . S
C2767 C2783 1.349 . S
C2768 C2766 1.327 . S
C2768 C2787 1.429 . S
C2768 H2792 0.950 . S
C2769 C2786 1.574 . S
C2769 C2788 1.368 . S
C2769 H2793 0.949 . S
H2770 C2774 0.949 . S
C2771 C2772 1.349 . S
C2771 C2773 1.327 . S
C2771 H2794 0.950 . S
C2772 C2771 1.349 . S
C2772 C2784 1.349 . S
C2773 C2771 1.327 . S
C2773 C2789 1.429 . S
C2773 H2795 0.950 . S
C2774 H2770 0.949 . S
C2774 C2782 1.574 . S
C2774 C2790 1.368 . S
H2775 C2783 0.950 . S
H2776 C2781 0.950 . S
H2777 C2782 0.949 . S
H2778 C2784 0.950 . S
H2779 C2785 0.950 . S
H2780 C2786 0.949 . S
C2781 H2776 0.950 . S
C2781 C2783 1.327 . S
C2781 C2787 1.429 . S
C2782 C2774 1.574 . S
C2782 H2777 0.949 . S
C2782 C2788 1.368 . S
C2783 C2767 1.349 . S
C2783 H2775 0.950 . S
C2783 C2781 1.327 . S
C2784 C2772 1.349 . S
C2784 H2778 0.950 . S
C2784 C2785 1.327 . S
C2785 H2779 0.950 . S
C2785 C2784 1.327 . S
C2785 C2789 1.429 . S
C2786 C2769 1.574 . S
C2786 H2780 0.949 . S
C2786 C2790 1.368 . S
C2787 C2768 1.429 . S
C2787 C2781 1.429 . S
C2787 C2788 1.523 . S
C2788 C2769 1.368 . S
C2788 C2782 1.368 . S
C2788 C2787 1.523 . S
C2789 C2773 1.429 . S
C2789 C2785 1.429 . S
C2789 C2790 1.523 . S
C2790 C2774 1.368 . S
C2790 C2786 1.368 . S
C2790 C2789 1.523 . S
H2791 C2766 0.950 . S
H2792 C2768 0.950 . S
H2793 C2769 0.949 . S
H2794 C2771 0.950 . S
H2795 C2773 0.950 . S
C2796 C2797 1.349 . S
C2796 C2798 1.327 . S
C2796 H2821 0.950 . S
C2797 C2796 1.349 . S
C2797 C2813 1.349 . S
C2798 C2796 1.327 . S
C2798 C2817 1.429 . S
C2798 H2822 0.950 . S
C2799 C2816 1.574 . S
C2799 C2818 1.368 . S
C2799 H2823 0.949 . S
H2800 C2804 0.949 . S
C2801 C2802 1.349 . S
C2801 C2803 1.327 . S
C2801 H2824 0.950 . S
C2802 C2801 1.349 . S
C2802 C2814 1.349 . S
C2803 C2801 1.327 . S
C2803 C2819 1.429 . S
C2803 H2825 0.950 . S
C2804 H2800 0.949 . S
C2804 C2812 1.574 . S
C2804 C2820 1.368 . S
H2805 C2813 0.950 . S
H2806 C2811 0.950 . S
H2807 C2812 0.949 . S
H2808 C2814 0.950 . S
H2809 C2815 0.950 . S
H2810 C2816 0.949 . S
C2811 H2806 0.950 . S
C2811 C2813 1.327 . S
C2811 C2817 1.429 . S
C2812 C2804 1.574 . S
C2812 H2807 0.949 . S
C2812 C2818 1.368 . S
C2813 C2797 1.349 . S
C2813 H2805 0.950 . S
C2813 C2811 1.327 . S
C2814 C2802 1.349 . S
C2814 H2808 0.950 . S
C2814 C2815 1.327 . S
C2815 H2809 0.950 . S
C2815 C2814 1.327 . S
C2815 C2819 1.429 . S
C2816 C2799 1.574 . S
C2816 H2810 0.949 . S
C2816 C2820 1.368 . S
C2817 C2798 1.429 . S
C2817 C2811 1.429 . S
C2817 C2818 1.523 . S
C2818 C2799 1.368 . S
C2818 C2812 1.368 . S
C2818 C2817 1.523 . S
C2819 C2803 1.429 . S
C2819 C2815 1.429 . S
C2819 C2820 1.523 . S
C2820 C2804 1.368 . S
C2820 C2816 1.368 . S
C2820 C2819 1.523 . S
H2821 C2796 0.950 . S
H2822 C2798 0.950 . S
H2823 C2799 0.949 . S
H2824 C2801 0.950 . S
H2825 C2803 0.950 . S
C2826 C2827 1.349 . S
C2826 C2828 1.327 . S
C2826 H2851 0.950 . S
C2827 C2826 1.349 . S
C2827 C2843 1.349 . S
C2828 C2826 1.327 . S
C2828 C2847 1.429 . S
C2828 H2852 0.950 . S
C2829 C2846 1.574 . S
C2829 C2848 1.368 . S
C2829 H2853 0.949 . S
H2830 C2834 0.949 . S
C2831 C2832 1.349 . S
C2831 C2833 1.327 . S
C2831 H2854 0.950 . S
C2832 C2831 1.349 . S
C2832 C2844 1.349 . S
C2833 C2831 1.327 . S
C2833 C2849 1.429 . S
C2833 H2855 0.950 . S
C2834 H2830 0.949 . S
C2834 C2842 1.574 . S
C2834 C2850 1.368 . S
H2835 C2843 0.950 . S
H2836 C2841 0.950 . S
H2837 C2842 0.949 . S
H2838 C2844 0.950 . S
H2839 C2845 0.950 . S
H2840 C2846 0.949 . S
C2841 H2836 0.950 . S
C2841 C2843 1.327 . S
C2841 C2847 1.429 . S
C2842 C2834 1.574 . S
C2842 H2837 0.949 . S
C2842 C2848 1.368 . S
C2843 C2827 1.349 . S
C2843 H2835 0.950 . S
C2843 C2841 1.327 . S
C2844 C2832 1.349 . S
C2844 H2838 0.950 . S
C2844 C2845 1.327 . S
C2845 H2839 0.950 . S
C2845 C2844 1.327 . S
C2845 C2849 1.429 . S
C2846 C2829 1.574 . S
C2846 H2840 0.949 . S
C2846 C2850 1.368 . S
C2847 C2828 1.429 . S
C2847 C2841 1.429 . S
C2847 C2848 1.523 . S
C2848 C2829 1.368 . S
C2848 C2842 1.368 . S
C2848 C2847 1.523 . S
C2849 C2833 1.429 . S
C2849 C2845 1.429 . S
C2849 C2850 1.523 . S
C2850 C2834 1.368 . S
C2850 C2846 1.368 . S
C2850 C2849 1.523 . S
H2851 C2826 0.950 . S
H2852 C2828 0.950 . S
H2853 C2829 0.949 . S
H2854 C2831 0.950 . S
H2855 C2833 0.950 . S
C2856 C2857 1.349 . S
C2856 C2858 1.327 . S
C2856 H2881 0.950 . S
C2857 C2856 1.349 . S
C2857 C2873 1.349 . S
C2858 C2856 1.327 . S
C2858 C2877 1.429 . S
C2858 H2882 0.950 . S
C2859 C2876 1.574 . S
C2859 C2878 1.368 . S
C2859 H2883 0.949 . S
H2860 C2864 0.949 . S
C2861 C2862 1.349 . S
C2861 C2863 1.327 . S
C2861 H2884 0.950 . S
C2862 C2861 1.349 . S
C2862 C2874 1.349 . S
C2863 C2861 1.327 . S
C2863 C2879 1.429 . S
C2863 H2885 0.950 . S
C2864 H2860 0.949 . S
C2864 C2872 1.574 . S
C2864 C2880 1.368 . S
H2865 C2873 0.950 . S
H2866 C2871 0.950 . S
H2867 C2872 0.949 . S
H2868 C2874 0.950 . S
H2869 C2875 0.950 . S
H2870 C2876 0.949 . S
C2871 H2866 0.950 . S
C2871 C2873 1.327 . S
C2871 C2877 1.429 . S
C2872 C2864 1.574 . S
C2872 H2867 0.949 . S
C2872 C2878 1.368 . S
C2873 C2857 1.349 . S
C2873 H2865 0.950 . S
C2873 C2871 1.327 . S
C2874 C2862 1.349 . S
C2874 H2868 0.950 . S
C2874 C2875 1.327 . S
C2875 H2869 0.950 . S
C2875 C2874 1.327 . S
C2875 C2879 1.429 . S
C2876 C2859 1.574 . S
C2876 H2870 0.949 . S
C2876 C2880 1.368 . S
C2877 C2858 1.429 . S
C2877 C2871 1.429 . S
C2877 C2878 1.523 . S
C2878 C2859 1.368 . S
C2878 C2872 1.368 . S
C2878 C2877 1.523 . S
C2879 C2863 1.429 . S
C2879 C2875 1.429 . S
C2879 C2880 1.523 . S
C2880 C2864 1.368 . S
C2880 C2876 1.368 . S
C2880 C2879 1.523 . S
H2881 C2856 0.950 . S
H2882 C2858 0.950 . S
H2883 C2859 0.949 . S
H2884 C2861 0.950 . S
H2885 C2863 0.950 . S
C2886 C2887 1.349 . S
C2886 C2888 1.327 . S
C2886 H2911 0.950 . S
C2887 C2886 1.349 . S
C2887 C2903 1.349 . S
C2888 C2886 1.327 . S
C2888 C2907 1.429 . S
C2888 H2912 0.950 . S
C2889 C2906 1.574 . S
C2889 C2908 1.368 . S
C2889 H2913 0.949 . S
H2890 C2894 0.949 . S
C2891 C2892 1.349 . S
C2891 C2893 1.327 . S
C2891 H2914 0.950 . S
C2892 C2891 1.349 . S
C2892 C2904 1.349 . S
C2893 C2891 1.327 . S
C2893 C2909 1.429 . S
C2893 H2915 0.950 . S
C2894 H2890 0.949 . S
C2894 C2902 1.574 . S
C2894 C2910 1.368 . S
H2895 C2903 0.950 . S
H2896 C2901 0.950 . S
H2897 C2902 0.949 . S
H2898 C2904 0.950 . S
H2899 C2905 0.950 . S
H2900 C2906 0.949 . S
C2901 H2896 0.950 . S
C2901 C2903 1.327 . S
C2901 C2907 1.429 . S
C2902 C2894 1.574 . S
C2902 H2897 0.949 . S
C2902 C2908 1.368 . S
C2903 C2887 1.349 . S
C2903 H2895 0.950 . S
C2903 C2901 1.327 . S
C2904 C2892 1.349 . S
C2904 H2898 0.950 . S
C2904 C2905 1.327 . S
C2905 H2899 0.950 . S
C2905 C2904 1.327 . S
C2905 C2909 1.429 . S
C2906 C2889 1.574 . S
C2906 H2900 0.949 . S
C2906 C2910 1.368 . S
C2907 C2888 1.429 . S
C2907 C2901 1.429 . S
C2907 C2908 1.523 . S
C2908 C2889 1.368 . S
C2908 C2902 1.368 . S
C2908 C2907 1.523 . S
C2909 C2893 1.429 . S
C2909 C2905 1.429 . S
C2909 C2910 1.523 . S
C2910 C2894 1.368 . S
C2910 C2906 1.368 . S
C2910 C2909 1.523 . S
H2911 C2886 0.950 . S
H2912 C2888 0.950 . S
H2913 C2889 0.949 . S
H2914 C2891 0.950 . S
H2915 C2893 0.950 . S
C2916 C2917 1.349 . S
C2916 C2918 1.327 . S
C2916 H2941 0.950 . S
C2917 C2916 1.349 . S
C2917 C2933 1.349 . S
C2918 C2916 1.327 . S
C2918 C2937 1.429 . S
C2918 H2942 0.950 . S
C2919 C2936 1.574 . S
C2919 C2938 1.368 . S
C2919 H2943 0.949 . S
H2920 C2924 0.949 . S
C2921 C2922 1.349 . S
C2921 C2923 1.327 . S
C2921 H2944 0.950 . S
C2922 C2921 1.349 . S
C2922 C2934 1.349 . S
C2923 C2921 1.327 . S
C2923 C2939 1.429 . S
C2923 H2945 0.950 . S
C2924 H2920 0.949 . S
C2924 C2932 1.574 . S
C2924 C2940 1.368 . S
H2925 C2933 0.950 . S
H2926 C2931 0.950 . S
H2927 C2932 0.949 . S
H2928 C2934 0.950 . S
H2929 C2935 0.950 . S
H2930 C2936 0.949 . S
C2931 H2926 0.950 . S
C2931 C2933 1.327 . S
C2931 C2937 1.429 . S
C2932 C2924 1.574 . S
C2932 H2927 0.949 . S
C2932 C2938 1.368 . S
C2933 C2917 1.349 . S
C2933 H2925 0.950 . S
C2933 C2931 1.327 . S
C2934 C2922 1.349 . S
C2934 H2928 0.950 . S
C2934 C2935 1.327 . S
C2935 H2929 0.950 . S
C2935 C2934 1.327 . S
C2935 C2939 1.429 . S
C2936 C2919 1.574 . S
C2936 H2930 0.949 . S
C2936 C2940 1.368 . S
C2937 C2918 1.429 . S
C2937 C2931 1.429 . S
C2937 C2938 1.523 . S
C2938 C2919 1.368 . S
C2938 C2932 1.368 . S
C2938 C2937 1.523 . S
C2939 C2923 1.429 . S
C2939 C2935 1.429 . S
C2939 C2940 1.523 . S
C2940 C2924 1.368 . S
C2940 C2936 1.368 . S
C2940 C2939 1.523 . S
H2941 C2916 0.950 . S
H2942 C2918 0.950 . S
H2943 C2919 0.949 . S
H2944 C2921 0.950 . S
H2945 C2923 0.950 . S
C2946 C2947 1.349 . S
C2946 C2948 1.327 . S
C2946 H2971 0.950 . S
C2947 C2946 1.349 . S
C2947 C2963 1.349 . S
C2948 C2946 1.327 . S
C2948 C2967 1.429 . S
C2948 H2972 0.950 . S
C2949 C2966 1.574 . S
C2949 C2968 1.368 . S
C2949 H2973 0.949 . S
H2950 C2954 0.949 . S
C2951 C2952 1.349 . S
C2951 C2953 1.327 . S
C2951 H2974 0.950 . S
C2952 C2951 1.349 . S
C2952 C2964 1.349 . S
C2953 C2951 1.327 . S
C2953 C2969 1.429 . S
C2953 H2975 0.950 . S
C2954 H2950 0.949 . S
C2954 C2962 1.574 . S
C2954 C2970 1.368 . S
H2955 C2963 0.950 . S
H2956 C2961 0.950 . S
H2957 C2962 0.949 . S
H2958 C2964 0.950 . S
H2959 C2965 0.950 . S
H2960 C2966 0.949 . S
C2961 H2956 0.950 . S
C2961 C2963 1.327 . S
C2961 C2967 1.429 . S
C2962 C2954 1.574 . S
C2962 H2957 0.949 . S
C2962 C2968 1.368 . S
C2963 C2947 1.349 . S
C2963 H2955 0.950 . S
C2963 C2961 1.327 . S
C2964 C2952 1.349 . S
C2964 H2958 0.950 . S
C2964 C2965 1.327 . S
C2965 H2959 0.950 . S
C2965 C2964 1.327 . S
C2965 C2969 1.429 . S
C2966 C2949 1.574 . S
C2966 H2960 0.949 . S
C2966 C2970 1.368 . S
C2967 C2948 1.429 . S
C2967 C2961 1.429 . S
C2967 C2968 1.523 . S
C2968 C2949 1.368 . S
C2968 C2962 1.368 . S
C2968 C2967 1.523 . S
C2969 C2953 1.429 . S
C2969 C2965 1.429 . S
C2969 C2970 1.523 . S
C2970 C2954 1.368 . S
C2970 C2966 1.368 . S
C2970 C2969 1.523 . S
H2971 C2946 0.950 . S
H2972 C2948 0.950 . S
H2973 C2949 0.949 . S
H2974 C2951 0.950 . S
H2975 C2953 0.950 . S
C2976 C2977 1.349 . S
C2976 C2978 1.327 . S
C2976 H3001 0.950 . S
C2977 C2976 1.349 . S
C2977 C2993 1.349 . S
C2978 C2976 1.327 . S
C2978 C2997 1.429 . S
C2978 H3002 0.950 . S
C2979 C2996 1.574 . S
C2979 C2998 1.368 1_545 S
C2979 H3003 0.949 . S
H2980 C2984 0.949 . S
C2981 C2982 1.349 . S
C2981 C2983 1.327 . S
C2981 H3004 0.950 . S
C2982 C2981 1.349 . S
C2982 C2994 1.349 . S
C2983 C2981 1.327 . S
C2983 C2999 1.429 . S
C2983 H3005 0.950 . S
C2984 H2980 0.949 . S
C2984 C2992 1.574 . S
C2984 C3000 1.368 1_565 S
H2985 C2993 0.950 . S
H2986 C2991 0.950 . S
H2987 C2992 0.949 . S
H2988 C2994 0.950 . S
H2989 C2995 0.950 . S
H2990 C2996 0.949 . S
C2991 H2986 0.950 . S
C2991 C2993 1.327 . S
C2991 C2997 1.429 . S
C2992 C2984 1.574 . S
C2992 H2987 0.949 . S
C2992 C2998 1.368 . S
C2993 C2977 1.349 . S
C2993 H2985 0.950 . S
C2993 C2991 1.327 . S
C2994 C2982 1.349 . S
C2994 H2988 0.950 . S
C2994 C2995 1.327 . S
C2995 H2989 0.950 . S
C2995 C2994 1.327 . S
C2995 C2999 1.429 . S
C2996 C2979 1.574 . S
C2996 H2990 0.949 . S
C2996 C3000 1.368 . S
C2997 C2978 1.429 . S
C2997 C2991 1.429 . S
C2997 C2998 1.523 . S
C2998 C2979 1.368 1_565 S
C2998 C2992 1.368 . S
C2998 C2997 1.523 . S
C2999 C2983 1.429 . S
C2999 C2995 1.429 . S
C2999 C3000 1.523 . S
C3000 C2984 1.368 1_545 S
C3000 C2996 1.368 . S
C3000 C2999 1.523 . S
H3001 C2976 0.950 . S
H3002 C2978 0.950 . S
H3003 C2979 0.949 . S
H3004 C2981 0.950 . S
H3005 C2983 0.950 . S
C3006 C3007 1.349 . S
C3006 C3008 1.327 . S
C3006 H3031 0.950 . S
C3007 C3006 1.349 . S
C3007 C3023 1.349 . S
C3008 C3006 1.327 . S
C3008 C3027 1.429 . S
C3008 H3032 0.950 . S
C3009 C3026 1.574 . S
C3009 C3028 1.368 . S
C3009 H3033 0.949 . S
H3010 C3014 0.949 . S
C3011 C3012 1.349 . S
C3011 C3013 1.327 . S
C3011 H3034 0.950 . S
C3012 C3011 1.349 . S
C3012 C3024 1.349 . S
C3013 C3011 1.327 . S
C3013 C3029 1.429 . S
C3013 H3035 0.950 . S
C3014 H3010 0.949 . S
C3014 C3022 1.574 . S
C3014 C3030 1.368 . S
H3015 C3023 0.950 . S
H3016 C3021 0.950 . S
H3017 C3022 0.949 . S
H3018 C3024 0.950 . S
H3019 C3025 0.950 . S
H3020 C3026 0.949 . S
C3021 H3016 0.950 . S
C3021 C3023 1.327 . S
C3021 C3027 1.429 . S
C3022 C3014 1.574 . S
C3022 H3017 0.949 . S
C3022 C3028 1.368 . S
C3023 C3007 1.349 . S
C3023 H3015 0.950 . S
C3023 C3021 1.327 . S
C3024 C3012 1.349 . S
C3024 H3018 0.950 . S
C3024 C3025 1.327 . S
C3025 H3019 0.950 . S
C3025 C3024 1.327 . S
C3025 C3029 1.429 . S
C3026 C3009 1.574 . S
C3026 H3020 0.949 . S
C3026 C3030 1.368 . S
C3027 C3008 1.429 . S
C3027 C3021 1.429 . S
C3027 C3028 1.523 . S
C3028 C3009 1.368 . S
C3028 C3022 1.368 . S
C3028 C3027 1.523 . S
C3029 C3013 1.429 . S
C3029 C3025 1.429 . S
C3029 C3030 1.523 . S
C3030 C3014 1.368 . S
C3030 C3026 1.368 . S
C3030 C3029 1.523 . S
H3031 C3006 0.950 . S
H3032 C3008 0.950 . S
H3033 C3009 0.949 . S
H3034 C3011 0.950 . S
H3035 C3013 0.950 . S
C3036 C3037 1.349 . S
C3036 C3038 1.327 . S
C3036 H3061 0.950 . S
C3037 C3036 1.349 . S
C3037 C3053 1.349 . S
C3038 C3036 1.327 . S
C3038 C3057 1.429 . S
C3038 H3062 0.950 . S
C3039 C3056 1.574 . S
C3039 C3058 1.368 . S
C3039 H3063 0.949 . S
H3040 C3044 0.949 . S
C3041 C3042 1.349 . S
C3041 C3043 1.327 . S
C3041 H3064 0.950 . S
C3042 C3041 1.349 . S
C3042 C3054 1.349 . S
C3043 C3041 1.327 . S
C3043 C3059 1.429 . S
C3043 H3065 0.950 . S
C3044 H3040 0.949 . S
C3044 C3052 1.574 . S
C3044 C3060 1.368 . S
H3045 C3053 0.950 . S
H3046 C3051 0.950 . S
H3047 C3052 0.949 . S
H3048 C3054 0.950 . S
H3049 C3055 0.950 . S
H3050 C3056 0.949 . S
C3051 H3046 0.950 . S
C3051 C3053 1.327 . S
C3051 C3057 1.429 . S
C3052 C3044 1.574 . S
C3052 H3047 0.949 . S
C3052 C3058 1.368 1_545 S
C3053 C3037 1.349 . S
C3053 H3045 0.950 . S
C3053 C3051 1.327 . S
C3054 C3042 1.349 . S
C3054 H3048 0.950 . S
C3054 C3055 1.327 . S
C3055 H3049 0.950 . S
C3055 C3054 1.327 . S
C3055 C3059 1.429 . S
C3056 C3039 1.574 . S
C3056 H3050 0.949 . S
C3056 C3060 1.368 1_565 S
C3057 C3038 1.429 . S
C3057 C3051 1.429 . S
C3057 C3058 1.523 . S
C3058 C3039 1.368 . S
C3058 C3052 1.368 1_565 S
C3058 C3057 1.523 . S
C3059 C3043 1.429 . S
C3059 C3055 1.429 . S
C3059 C3060 1.523 . S
C3060 C3044 1.368 . S
C3060 C3056 1.368 1_545 S
C3060 C3059 1.523 . S
H3061 C3036 0.950 . S
H3062 C3038 0.950 . S
H3063 C3039 0.949 . S
H3064 C3041 0.950 . S
H3065 C3043 0.950 . S
C3066 C3067 1.349 . S
C3066 C3068 1.327 . S
C3066 H3091 0.950 . S
C3067 C3066 1.349 . S
C3067 C3083 1.349 . S
C3068 C3066 1.327 . S
C3068 C3087 1.429 . S
C3068 H3092 0.950 . S
C3069 C3086 1.574 1_554 S
C3069 C3088 1.368 . S
C3069 H3093 0.949 . S
H3070 C3074 0.949 . S
C3071 C3072 1.349 . S
C3071 C3073 1.327 . S
C3071 H3094 0.950 . S
C3072 C3071 1.349 . S
C3072 C3084 1.349 . S
C3073 C3071 1.327 . S
C3073 C3089 1.429 . S
C3073 H3095 0.950 . S
C3074 H3070 0.949 . S
C3074 C3082 1.574 1_556 S
C3074 C3090 1.368 . S
H3075 C3083 0.950 . S
H3076 C3081 0.950 . S
H3077 C3082 0.949 . S
H3078 C3084 0.950 . S
H3079 C3085 0.950 . S
H3080 C3086 0.949 . S
C3081 H3076 0.950 . S
C3081 C3083 1.327 . S
C3081 C3087 1.429 . S
C3082 C3074 1.574 1_554 S
C3082 H3077 0.949 . S
C3082 C3088 1.368 . S
C3083 C3067 1.349 . S
C3083 H3075 0.950 . S
C3083 C3081 1.327 . S
C3084 C3072 1.349 . S
C3084 H3078 0.950 . S
C3084 C3085 1.327 . S
C3085 H3079 0.950 . S
C3085 C3084 1.327 . S
C3085 C3089 1.429 . S
C3086 C3069 1.574 1_556 S
C3086 H3080 0.949 . S
C3086 C3090 1.368 . S
C3087 C3068 1.429 . S
C3087 C3081 1.429 . S
C3087 C3088 1.523 . S
C3088 C3069 1.368 . S
C3088 C3082 1.368 . S
C3088 C3087 1.523 . S
C3089 C3073 1.429 . S
C3089 C3085 1.429 . S
C3089 C3090 1.523 . S
C3090 C3074 1.368 . S
C3090 C3086 1.368 . S
C3090 C3089 1.523 . S
H3091 C3066 0.950 . S
H3092 C3068 0.950 . S
H3093 C3069 0.949 . S
H3094 C3071 0.950 . S
H3095 C3073 0.950 . S
C3096 C3097 1.349 . S
C3096 C3098 1.327 . S
C3096 H3121 0.950 . S
C3097 C3096 1.349 . S
C3097 C3113 1.349 . S
C3098 C3096 1.327 . S
C3098 C3117 1.429 . S
C3098 H3122 0.950 . S
C3099 C3116 1.574 . S
C3099 C3118 1.368 1_565 S
C3099 H3123 0.949 . S
H3100 C3104 0.949 . S
C3101 C3102 1.349 . S
C3101 C3103 1.327 . S
C3101 H3124 0.950 . S
C3102 C3101 1.349 . S
C3102 C3114 1.349 . S
C3103 C3101 1.327 . S
C3103 C3119 1.429 . S
C3103 H3125 0.950 . S
C3104 H3100 0.949 . S
C3104 C3112 1.574 . S
C3104 C3120 1.368 1_545 S
H3105 C3113 0.950 . S
H3106 C3111 0.950 . S
H3107 C3112 0.949 . S
H3108 C3114 0.950 . S
H3109 C3115 0.950 . S
H3110 C3116 0.949 . S
C3111 H3106 0.950 . S
C3111 C3113 1.327 . S
C3111 C3117 1.429 . S
C3112 C3104 1.574 . S
C3112 H3107 0.949 . S
C3112 C3118 1.368 . S
C3113 C3097 1.349 . S
C3113 H3105 0.950 . S
C3113 C3111 1.327 . S
C3114 C3102 1.349 . S
C3114 H3108 0.950 . S
C3114 C3115 1.327 . S
C3115 H3109 0.950 . S
C3115 C3114 1.327 . S
C3115 C3119 1.429 . S
C3116 C3099 1.574 . S
C3116 H3110 0.949 . S
C3116 C3120 1.368 . S
C3117 C3098 1.429 . S
C3117 C3111 1.429 . S
C3117 C3118 1.523 . S
C3118 C3099 1.368 1_545 S
C3118 C3112 1.368 . S
C3118 C3117 1.523 . S
C3119 C3103 1.429 . S
C3119 C3115 1.429 . S
C3119 C3120 1.523 . S
C3120 C3104 1.368 1_565 S
C3120 C3116 1.368 . S
C3120 C3119 1.523 . S
H3121 C3096 0.950 . S
H3122 C3098 0.950 . S
H3123 C3099 0.949 . S
H3124 C3101 0.950 . S
H3125 C3103 0.950 . S
C3126 C3127 1.349 . S
C3126 C3128 1.327 . S
C3126 H3151 0.950 . S
C3127 C3126 1.349 . S
C3127 C3143 1.349 . S
C3128 C3126 1.327 . S
C3128 C3147 1.429 . S
C3128 H3152 0.950 . S
C3129 C3146 1.574 . S
C3129 C3148 1.368 . S
C3129 H3153 0.949 . S
H3130 C3134 0.949 . S
C3131 C3132 1.349 . S
C3131 C3133 1.327 . S
C3131 H3154 0.950 . S
C3132 C3131 1.349 . S
C3132 C3144 1.349 . S
C3133 C3131 1.327 . S
C3133 C3149 1.429 . S
C3133 H3155 0.950 . S
C3134 H3130 0.949 . S
C3134 C3142 1.574 . S
C3134 C3150 1.368 . S
H3135 C3143 0.950 . S
H3136 C3141 0.950 . S
H3137 C3142 0.949 . S
H3138 C3144 0.950 . S
H3139 C3145 0.950 . S
H3140 C3146 0.949 . S
C3141 H3136 0.950 . S
C3141 C3143 1.327 . S
C3141 C3147 1.429 . S
C3142 C3134 1.574 . S
C3142 H3137 0.949 . S
C3142 C3148 1.368 . S
C3143 C3127 1.349 . S
C3143 H3135 0.950 . S
C3143 C3141 1.327 . S
C3144 C3132 1.349 . S
C3144 H3138 0.950 . S
C3144 C3145 1.327 . S
C3145 H3139 0.950 . S
C3145 C3144 1.327 . S
C3145 C3149 1.429 . S
C3146 C3129 1.574 . S
C3146 H3140 0.949 . S
C3146 C3150 1.368 . S
C3147 C3128 1.429 . S
C3147 C3141 1.429 . S
C3147 C3148 1.523 . S
C3148 C3129 1.368 . S
C3148 C3142 1.368 . S
C3148 C3147 1.523 . S
C3149 C3133 1.429 . S
C3149 C3145 1.429 . S
C3149 C3150 1.523 . S
C3150 C3134 1.368 . S
C3150 C3146 1.368 . S
C3150 C3149 1.523 . S
H3151 C3126 0.950 . S
H3152 C3128 0.950 . S
H3153 C3129 0.949 . S
H3154 C3131 0.950 . S
H3155 C3133 0.950 . S
C3156 C3157 1.349 . S
C3156 C3158 1.327 . S
C3156 H3181 0.950 . S
C3157 C3156 1.349 . S
C3157 C3173 1.349 . S
C3158 C3156 1.327 . S
C3158 C3177 1.429 . S
C3158 H3182 0.950 . S
C3159 C3176 1.574 . S
C3159 C3178 1.368 1_545 S
C3159 H3183 0.949 . S
H3160 C3164 0.949 . S
C3161 C3162 1.349 . S
C3161 C3163 1.327 . S
C3161 H3184 0.950 . S
C3162 C3161 1.349 . S
C3162 C3174 1.349 . S
C3163 C3161 1.327 . S
C3163 C3179 1.429 . S
C3163 H3185 0.950 . S
C3164 H3160 0.949 . S
C3164 C3172 1.574 . S
C3164 C3180 1.368 1_565 S
H3165 C3173 0.950 . S
H3166 C3171 0.950 . S
H3167 C3172 0.949 . S
H3168 C3174 0.950 . S
H3169 C3175 0.950 . S
H3170 C3176 0.949 . S
C3171 H3166 0.950 . S
C3171 C3173 1.327 . S
C3171 C3177 1.429 . S
C3172 C3164 1.574 . S
C3172 H3167 0.949 . S
C3172 C3178 1.368 . S
C3173 C3157 1.349 . S
C3173 H3165 0.950 . S
C3173 C3171 1.327 . S
C3174 C3162 1.349 . S
C3174 H3168 0.950 . S
C3174 C3175 1.327 . S
C3175 H3169 0.950 . S
C3175 C3174 1.327 . S
C3175 C3179 1.429 . S
C3176 C3159 1.574 . S
C3176 H3170 0.949 . S
C3176 C3180 1.368 . S
C3177 C3158 1.429 . S
C3177 C3171 1.429 . S
C3177 C3178 1.523 . S
C3178 C3159 1.368 1_565 S
C3178 C3172 1.368 . S
C3178 C3177 1.523 . S
C3179 C3163 1.429 . S
C3179 C3175 1.429 . S
C3179 C3180 1.523 . S
C3180 C3164 1.368 1_545 S
C3180 C3176 1.368 . S
C3180 C3179 1.523 . S
H3181 C3156 0.950 . S
H3182 C3158 0.950 . S
H3183 C3159 0.949 . S
H3184 C3161 0.950 . S
H3185 C3163 0.950 . S
C3186 C3187 1.349 . S
C3186 C3188 1.327 . S
C3186 H3211 0.950 . S
C3187 C3186 1.349 . S
C3187 C3203 1.349 . S
C3188 C3186 1.327 . S
C3188 C3207 1.429 . S
C3188 H3212 0.950 . S
C3189 C3206 1.574 1_556 S
C3189 C3208 1.368 . S
C3189 H3213 0.949 . S
H3190 C3194 0.949 . S
C3191 C3192 1.349 . S
C3191 C3193 1.327 . S
C3191 H3214 0.950 . S
C3192 C3191 1.349 . S
C3192 C3204 1.349 . S
C3193 C3191 1.327 . S
C3193 C3209 1.429 . S
C3193 H3215 0.950 . S
C3194 H3190 0.949 . S
C3194 C3202 1.574 1_554 S
C3194 C3210 1.368 . S
H3195 C3203 0.950 . S
H3196 C3201 0.950 . S
H3197 C3202 0.949 . S
H3198 C3204 0.950 . S
H3199 C3205 0.950 . S
H3200 C3206 0.949 . S
C3201 H3196 0.950 . S
C3201 C3203 1.327 . S
C3201 C3207 1.429 . S
C3202 C3194 1.574 1_556 S
C3202 H3197 0.949 . S
C3202 C3208 1.368 . S
C3203 C3187 1.349 . S
C3203 H3195 0.950 . S
C3203 C3201 1.327 . S
C3204 C3192 1.349 . S
C3204 H3198 0.950 . S
C3204 C3205 1.327 . S
C3205 H3199 0.950 . S
C3205 C3204 1.327 . S
C3205 C3209 1.429 . S
C3206 C3189 1.574 1_554 S
C3206 H3200 0.949 . S
C3206 C3210 1.368 . S
C3207 C3188 1.429 . S
C3207 C3201 1.429 . S
C3207 C3208 1.523 . S
C3208 C3189 1.368 . S
C3208 C3202 1.368 . S
C3208 C3207 1.523 . S
C3209 C3193 1.429 . S
C3209 C3205 1.429 . S
C3209 C3210 1.523 . S
C3210 C3194 1.368 . S
C3210 C3206 1.368 . S
C3210 C3209 1.523 . S
H3211 C3186 0.950 . S
H3212 C3188 0.950 . S
H3213 C3189 0.949 . S
H3214 C3191 0.950 . S
H3215 C3193 0.950 . S
C3216 C3217 1.349 . S
C3216 C3218 1.327 . S
C3216 H3241 0.950 . S
C3217 C3216 1.349 . S
C3217 C3233 1.349 . S
C3218 C3216 1.327 . S
C3218 C3237 1.429 . S
C3218 H3242 0.950 . S
C3219 C3236 1.574 . S
C3219 C3238 1.368 . S
C3219 H3243 0.949 . S
H3220 C3224 0.949 . S
C3221 C3222 1.349 . S
C3221 C3223 1.327 . S
C3221 H3244 0.950 . S
C3222 C3221 1.349 . S
C3222 C3234 1.349 . S
C3223 C3221 1.327 . S
C3223 C3239 1.429 . S
C3223 H3245 0.950 . S
C3224 H3220 0.949 . S
C3224 C3232 1.574 . S
C3224 C3240 1.368 . S
H3225 C3233 0.950 . S
H3226 C3231 0.950 . S
H3227 C3232 0.949 . S
H3228 C3234 0.950 . S
H3229 C3235 0.950 . S
H3230 C3236 0.949 . S
C3231 H3226 0.950 . S
C3231 C3233 1.327 . S
C3231 C3237 1.429 . S
C3232 C3224 1.574 . S
C3232 H3227 0.949 . S
C3232 C3238 1.368 . S
C3233 C3217 1.349 . S
C3233 H3225 0.950 . S
C3233 C3231 1.327 . S
C3234 C3222 1.349 . S
C3234 H3228 0.950 . S
C3234 C3235 1.327 . S
C3235 H3229 0.950 . S
C3235 C3234 1.327 . S
C3235 C3239 1.429 . S
C3236 C3219 1.574 . S
C3236 H3230 0.949 . S
C3236 C3240 1.368 . S
C3237 C3218 1.429 . S
C3237 C3231 1.429 . S
C3237 C3238 1.523 . S
C3238 C3219 1.368 . S
C3238 C3232 1.368 . S
C3238 C3237 1.523 . S
C3239 C3223 1.429 . S
C3239 C3235 1.429 . S
C3239 C3240 1.523 . S
C3240 C3224 1.368 . S
C3240 C3236 1.368 . S
C3240 C3239 1.523 . S
H3241 C3216 0.950 . S
H3242 C3218 0.950 . S
H3243 C3219 0.949 . S
H3244 C3221 0.950 . S
H3245 C3223 0.950 . S
C3246 C3247 1.349 . S
C3246 C3248 1.327 . S
C3246 H3271 0.950 . S
C3247 C3246 1.349 . S
C3247 C3263 1.349 . S
C3248 C3246 1.327 . S
C3248 C3267 1.429 . S
C3248 H3272 0.950 . S
C3249 C3266 1.574 1_556 S
C3249 C3268 1.368 . S
C3249 H3273 0.949 . S
H3250 C3254 0.949 . S
C3251 C3252 1.349 . S
C3251 C3253 1.327 . S
C3251 H3274 0.950 . S
C3252 C3251 1.349 . S
C3252 C3264 1.349 . S
C3253 C3251 1.327 . S
C3253 C3269 1.429 . S
C3253 H3275 0.950 . S
C3254 H3250 0.949 . S
C3254 C3262 1.574 1_554 S
C3254 C3270 1.368 . S
H3255 C3263 0.950 . S
H3256 C3261 0.950 . S
H3257 C3262 0.949 . S
H3258 C3264 0.950 . S
H3259 C3265 0.950 . S
H3260 C3266 0.949 . S
C3261 H3256 0.950 . S
C3261 C3263 1.327 . S
C3261 C3267 1.429 . S
C3262 C3254 1.574 1_556 S
C3262 H3257 0.949 . S
C3262 C3268 1.368 . S
C3263 C3247 1.349 . S
C3263 H3255 0.950 . S
C3263 C3261 1.327 . S
C3264 C3252 1.349 . S
C3264 H3258 0.950 . S
C3264 C3265 1.327 . S
C3265 H3259 0.950 . S
C3265 C3264 1.327 . S
C3265 C3269 1.429 . S
C3266 C3249 1.574 1_554 S
C3266 H3260 0.949 . S
C3266 C3270 1.368 . S
C3267 C3248 1.429 . S
C3267 C3261 1.429 . S
C3267 C3268 1.523 . S
C3268 C3249 1.368 . S
C3268 C3262 1.368 . S
C3268 C3267 1.523 . S
C3269 C3253 1.429 . S
C3269 C3265 1.429 . S
C3269 C3270 1.523 . S
C3270 C3254 1.368 . S
C3270 C3266 1.368 . S
C3270 C3269 1.523 . S
H3271 C3246 0.950 . S
H3272 C3248 0.950 . S
H3273 C3249 0.949 . S
H3274 C3251 0.950 . S
H3275 C3253 0.950 . S
C3276 C3277 1.349 . S
C3276 C3278 1.327 . S
C3276 H3301 0.950 . S
C3277 C3276 1.349 . S
C3277 C3293 1.349 . S
C3278 C3276 1.327 . S
C3278 C3297 1.429 . S
C3278 H3302 0.950 . S
C3279 C3296 1.574 . S
C3279 C3298 1.368 . S
C3279 H3303 0.949 . S
H3280 C3284 0.949 . S
C3281 C3282 1.349 . S
C3281 C3283 1.327 . S
C3281 H3304 0.950 . S
C3282 C3281 1.349 . S
C3282 C3294 1.349 . S
C3283 C3281 1.327 . S
C3283 C3299 1.429 . S
C3283 H3305 0.950 . S
C3284 H3280 0.949 . S
C3284 C3292 1.574 . S
C3284 C3300 1.368 . S
H3285 C3293 0.950 . S
H3286 C3291 0.950 . S
H3287 C3292 0.949 . S
H3288 C3294 0.950 . S
H3289 C3295 0.950 . S
H3290 C3296 0.949 . S
C3291 H3286 0.950 . S
C3291 C3293 1.327 . S
C3291 C3297 1.429 . S
C3292 C3284 1.574 . S
C3292 H3287 0.949 . S
C3292 C3298 1.368 . S
C3293 C3277 1.349 . S
C3293 H3285 0.950 . S
C3293 C3291 1.327 . S
C3294 C3282 1.349 . S
C3294 H3288 0.950 . S
C3294 C3295 1.327 . S
C3295 H3289 0.950 . S
C3295 C3294 1.327 . S
C3295 C3299 1.429 . S
C3296 C3279 1.574 . S
C3296 H3290 0.949 . S
C3296 C3300 1.368 . S
C3297 C3278 1.429 . S
C3297 C3291 1.429 . S
C3297 C3298 1.523 . S
C3298 C3279 1.368 . S
C3298 C3292 1.368 . S
C3298 C3297 1.523 . S
C3299 C3283 1.429 . S
C3299 C3295 1.429 . S
C3299 C3300 1.523 . S
C3300 C3284 1.368 . S
C3300 C3296 1.368 . S
C3300 C3299 1.523 . S
H3301 C3276 0.950 . S
H3302 C3278 0.950 . S
H3303 C3279 0.949 . S
H3304 C3281 0.950 . S
H3305 C3283 0.950 . S
C3306 C3307 1.349 . S
C3306 C3308 1.327 . S
C3306 H3331 0.950 . S
C3307 C3306 1.349 . S
C3307 C3323 1.349 . S
C3308 C3306 1.327 . S
C3308 C3327 1.429 . S
C3308 H3332 0.950 . S
C3309 C3326 1.574 . S
C3309 C3328 1.368 . S
C3309 H3333 0.949 . S
H3310 C3314 0.949 . S
C3311 C3312 1.349 . S
C3311 C3313 1.327 . S
C3311 H3334 0.950 . S
C3312 C3311 1.349 . S
C3312 C3324 1.349 . S
C3313 C3311 1.327 . S
C3313 C3329 1.429 . S
C3313 H3335 0.950 . S
C3314 H3310 0.949 . S
C3314 C3322 1.574 . S
C3314 C3330 1.368 . S
H3315 C3323 0.950 . S
H3316 C3321 0.950 . S
H3317 C3322 0.949 . S
H3318 C3324 0.950 . S
H3319 C3325 0.950 . S
H3320 C3326 0.949 . S
C3321 H3316 0.950 . S
C3321 C3323 1.327 . S
C3321 C3327 1.429 . S
C3322 C3314 1.574 . S
C3322 H3317 0.949 . S
C3322 C3328 1.368 . S
C3323 C3307 1.349 . S
C3323 H3315 0.950 . S
C3323 C3321 1.327 . S
C3324 C3312 1.349 . S
C3324 H3318 0.950 . S
C3324 C3325 1.327 . S
C3325 H3319 0.950 . S
C3325 C3324 1.327 . S
C3325 C3329 1.429 . S
C3326 C3309 1.574 . S
C3326 H3320 0.949 . S
C3326 C3330 1.368 . S
C3327 C3308 1.429 . S
C3327 C3321 1.429 . S
C3327 C3328 1.523 . S
C3328 C3309 1.368 . S
C3328 C3322 1.368 . S
C3328 C3327 1.523 . S
C3329 C3313 1.429 . S
C3329 C3325 1.429 . S
C3329 C3330 1.523 . S
C3330 C3314 1.368 . S
C3330 C3326 1.368 . S
C3330 C3329 1.523 . S
H3331 C3306 0.950 . S
H3332 C3308 0.950 . S
H3333 C3309 0.949 . S
H3334 C3311 0.950 . S
H3335 C3313 0.950 . S
C3336 C3337 1.349 . S
C3336 C3338 1.327 . S
C3336 H3361 0.950 . S
C3337 C3336 1.349 . S
C3337 C3353 1.349 . S
C3338 C3336 1.327 . S
C3338 C3357 1.429 . S
C3338 H3362 0.950 . S
C3339 C3356 1.574 . S
C3339 C3358 1.368 . S
C3339 H3363 0.949 . S
H3340 C3344 0.949 . S
C3341 C3342 1.349 . S
C3341 C3343 1.327 . S
C3341 H3364 0.950 . S
C3342 C3341 1.349 . S
C3342 C3354 1.349 . S
C3343 C3341 1.327 . S
C3343 C3359 1.429 . S
C3343 H3365 0.950 . S
C3344 H3340 0.949 . S
C3344 C3352 1.574 . S
C3344 C3360 1.368 . S
H3345 C3353 0.950 . S
H3346 C3351 0.950 . S
H3347 C3352 0.949 . S
H3348 C3354 0.950 . S
H3349 C3355 0.950 . S
H3350 C3356 0.949 . S
C3351 H3346 0.950 . S
C3351 C3353 1.327 . S
C3351 C3357 1.429 . S
C3352 C3344 1.574 . S
C3352 H3347 0.949 . S
C3352 C3358 1.368 . S
C3353 C3337 1.349 . S
C3353 H3345 0.950 . S
C3353 C3351 1.327 . S
C3354 C3342 1.349 . S
C3354 H3348 0.950 . S
C3354 C3355 1.327 . S
C3355 H3349 0.950 . S
C3355 C3354 1.327 . S
C3355 C3359 1.429 . S
C3356 C3339 1.574 . S
C3356 H3350 0.949 . S
C3356 C3360 1.368 . S
C3357 C3338 1.429 . S
C3357 C3351 1.429 . S
C3357 C3358 1.523 . S
C3358 C3339 1.368 . S
C3358 C3352 1.368 . S
C3358 C3357 1.523 . S
C3359 C3343 1.429 . S
C3359 C3355 1.429 . S
C3359 C3360 1.523 . S
C3360 C3344 1.368 . S
C3360 C3356 1.368 . S
C3360 C3359 1.523 . S
H3361 C3336 0.950 . S
H3362 C3338 0.950 . S
H3363 C3339 0.949 . S
H3364 C3341 0.950 . S
H3365 C3343 0.950 . S
C3366 C3367 1.349 . S
C3366 C3368 1.327 . S
C3366 H3391 0.950 . S
C3367 C3366 1.349 . S
C3367 C3383 1.349 . S
C3368 C3366 1.327 . S
C3368 C3387 1.429 . S
C3368 H3392 0.950 . S
C3369 C3386 1.574 1_556 S
C3369 C3388 1.368 . S
C3369 H3393 0.949 . S
H3370 C3374 0.949 . S
C3371 C3372 1.349 . S
C3371 C3373 1.327 . S
C3371 H3394 0.950 . S
C3372 C3371 1.349 . S
C3372 C3384 1.349 . S
C3373 C3371 1.327 . S
C3373 C3389 1.429 . S
C3373 H3395 0.950 . S
C3374 H3370 0.949 . S
C3374 C3382 1.574 1_554 S
C3374 C3390 1.368 . S
H3375 C3383 0.950 . S
H3376 C3381 0.950 . S
H3377 C3382 0.949 . S
H3378 C3384 0.950 . S
H3379 C3385 0.950 . S
H3380 C3386 0.949 . S
C3381 H3376 0.950 . S
C3381 C3383 1.327 . S
C3381 C3387 1.429 . S
C3382 C3374 1.574 1_556 S
C3382 H3377 0.949 . S
C3382 C3388 1.368 . S
C3383 C3367 1.349 . S
C3383 H3375 0.950 . S
C3383 C3381 1.327 . S
C3384 C3372 1.349 . S
C3384 H3378 0.950 . S
C3384 C3385 1.327 . S
C3385 H3379 0.950 . S
C3385 C3384 1.327 . S
C3385 C3389 1.429 . S
C3386 C3369 1.574 1_554 S
C3386 H3380 0.949 . S
C3386 C3390 1.368 . S
C3387 C3368 1.429 . S
C3387 C3381 1.429 . S
C3387 C3388 1.523 . S
C3388 C3369 1.368 . S
C3388 C3382 1.368 . S
C3388 C3387 1.523 . S
C3389 C3373 1.429 . S
C3389 C3385 1.429 . S
C3389 C3390 1.523 . S
C3390 C3374 1.368 . S
C3390 C3386 1.368 . S
C3390 C3389 1.523 . S
H3391 C3366 0.950 . S
H3392 C3368 0.950 . S
H3393 C3369 0.949 . S
H3394 C3371 0.950 . S
H3395 C3373 0.950 . S
C3396 C3397 1.349 . S
C3396 C3398 1.327 . S
C3396 H3421 0.950 . S
C3397 C3396 1.349 . S
C3397 C3413 1.349 . S
C3398 C3396 1.327 . S
C3398 C3417 1.429 . S
C3398 H3422 0.950 . S
C3399 C3416 1.574 . S
C3399 C3418 1.368 . S
C3399 H3423 0.949 . S
H3400 C3404 0.949 . S
C3401 C3402 1.349 . S
C3401 C3403 1.327 . S
C3401 H3424 0.950 . S
C3402 C3401 1.349 . S
C3402 C3414 1.349 . S
C3403 C3401 1.327 . S
C3403 C3419 1.429 . S
C3403 H3425 0.950 . S
C3404 H3400 0.949 . S
C3404 C3412 1.574 . S
C3404 C3420 1.368 . S
H3405 C3413 0.950 . S
H3406 C3411 0.950 . S
H3407 C3412 0.949 . S
H3408 C3414 0.950 . S
H3409 C3415 0.950 . S
H3410 C3416 0.949 . S
C3411 H3406 0.950 . S
C3411 C3413 1.327 . S
C3411 C3417 1.429 . S
C3412 C3404 1.574 . S
C3412 H3407 0.949 . S
C3412 C3418 1.368 . S
C3413 C3397 1.349 . S
C3413 H3405 0.950 . S
C3413 C3411 1.327 . S
C3414 C3402 1.349 . S
C3414 H3408 0.950 . S
C3414 C3415 1.327 . S
C3415 H3409 0.950 . S
C3415 C3414 1.327 . S
C3415 C3419 1.429 . S
C3416 C3399 1.574 . S
C3416 H3410 0.949 . S
C3416 C3420 1.368 . S
C3417 C3398 1.429 . S
C3417 C3411 1.429 . S
C3417 C3418 1.523 . S
C3418 C3399 1.368 . S
C3418 C3412 1.368 . S
C3418 C3417 1.523 . S
C3419 C3403 1.429 . S
C3419 C3415 1.429 . S
C3419 C3420 1.523 . S
C3420 C3404 1.368 . S
C3420 C3416 1.368 . S
C3420 C3419 1.523 . S
H3421 C3396 0.950 . S
H3422 C3398 0.950 . S
H3423 C3399 0.949 . S
H3424 C3401 0.950 . S
H3425 C3403 0.950 . S
C3426 C3427 1.349 . S
C3426 C3428 1.327 . S
C3426 H3451 0.950 . S
C3427 C3426 1.349 . S
C3427 C3443 1.349 . S
C3428 C3426 1.327 . S
C3428 C3447 1.429 . S
C3428 H3452 0.950 . S
C3429 C3446 1.574 . S
C3429 C3448 1.368 . S
C3429 H3453 0.949 . S
H3430 C3434 0.949 . S
C3431 C3432 1.349 . S
C3431 C3433 1.327 . S
C3431 H3454 0.950 . S
C3432 C3431 1.349 . S
C3432 C3444 1.349 . S
C3433 C3431 1.327 . S
C3433 C3449 1.429 . S
C3433 H3455 0.950 . S
C3434 H3430 0.949 . S
C3434 C3442 1.574 . S
C3434 C3450 1.368 . S
H3435 C3443 0.950 . S
H3436 C3441 0.950 . S
H3437 C3442 0.949 . S
H3438 C3444 0.950 . S
H3439 C3445 0.950 . S
H3440 C3446 0.949 . S
C3441 H3436 0.950 . S
C3441 C3443 1.327 . S
C3441 C3447 1.429 . S
C3442 C3434 1.574 . S
C3442 H3437 0.949 . S
C3442 C3448 1.368 . S
C3443 C3427 1.349 . S
C3443 H3435 0.950 . S
C3443 C3441 1.327 . S
C3444 C3432 1.349 . S
C3444 H3438 0.950 . S
C3444 C3445 1.327 . S
C3445 H3439 0.950 . S
C3445 C3444 1.327 . S
C3445 C3449 1.429 . S
C3446 C3429 1.574 . S
C3446 H3440 0.949 . S
C3446 C3450 1.368 . S
C3447 C3428 1.429 . S
C3447 C3441 1.429 . S
C3447 C3448 1.523 . S
C3448 C3429 1.368 . S
C3448 C3442 1.368 . S
C3448 C3447 1.523 . S
C3449 C3433 1.429 . S
C3449 C3445 1.429 . S
C3449 C3450 1.523 . S
C3450 C3434 1.368 . S
C3450 C3446 1.368 . S
C3450 C3449 1.523 . S
H3451 C3426 0.950 . S
H3452 C3428 0.950 . S
H3453 C3429 0.949 . S
H3454 C3431 0.950 . S
H3455 C3433 0.950 . S
C1057 C18 0.996 . S
C1062 C945 0.974 . S
C1087 C51 0.996 . S
C1092 C450 0.974 . S
C1117 C84 0.996 . S
C1122 C1011 0.974 . S
C1147 C117 0.996 . S
C1152 C516 0.974 . S
C1177 C813 0.974 . S
C1182 C150 0.996 . S
C1207 C183 0.996 . S
C1212 C318 0.974 . S
C1237 C216 0.996 . S
C1242 C879 0.974 . S
C1267 C384 0.974 . S
C1272 C249 0.996 . S
C1297 C681 0.974 . S
C1302 C282 0.996 . S
C1327 C315 0.996 . S
C1332 C186 0.974 . S
C1357 C348 0.996 . S
C1362 C747 0.974 . S
C1387 C252 0.974 . S
C1392 C381 0.996 . S
C1417 C549 0.974 . S
C1422 C414 0.996 . S
C1447 C54 0.974 . S
C1452 C447 0.996 . S
C1477 C480 0.996 . S
C1482 C615 0.974 . S
C1507 C513 0.996 . S
C1512 C120 0.974 . S
C1537 C546 0.996 . S
C1542 C417 0.974 . S
C1567 C978 0.974 . S
C1572 C579 0.996 . S
C1597 C483 0.974 . S
C1602 C612 0.996 . S
C1627 C1044 0.974 . S
C1632 C645 0.996 . S
C1657 C285 0.974 . S
C1662 C678 0.996 . S
C1687 C711 0.996 . S
C1692 C846 0.974 . S
C1717 C351 0.974 . S
C1722 C744 0.996 . S
C1747 C912 0.974 . S
C1752 C777 0.996 . S
C1777 C153 0.974 . S
C1782 C810 0.996 . S
C1807 C714 0.974 . S
C1812 C843 0.996 . S
C1837 C219 0.974 . S
C1842 C876 0.996 . S
C1867 C780 0.974 . S
C1872 C909 0.996 . S
C1897 C21 0.974 . S
C1902 C942 0.996 . S
C1927 C582 0.974 . S
C1932 C975 0.996 . S
C1957 C1008 0.996 . S
C1962 C87 0.974 . S
C1987 C648 0.974 . S
C1992 C1041 0.996 . S
C2017 C601 0.743 . S
C2022 C7 0.743 . S
C2047 C40 0.744 . S
C2052 C634 0.744 . S
C2077 C535 0.744 . S
C2082 C73 0.744 . S
C2107 C106 0.744 . S
C2112 C568 0.744 . S
C2137 C733 0.743 . S
C2142 C139 0.743 . S
C2167 C766 0.744 . S
C2172 C172 0.744 . S
C2197 C205 0.744 . S
C2202 C667 0.744 . S
C2227 C700 0.744 . S
C2232 C238 0.744 . S
C2257 C271 0.743 . S
C2262 C865 0.743 . S
C2287 C304 0.744 . S
C2292 C898 0.744 . S
C2317 C799 0.744 . S
C2322 C337 0.744 . S
C2347 C832 0.744 . S
C2352 C370 0.744 . S
C2377 C403 0.743 . S
C2382 C997 0.743 . S
C2407 C1030 0.744 . S
C2412 C436 0.744 . S
C2437 C931 0.744 . S
C2442 C469 0.744 . S
C2467 C964 0.744 . S
C2472 C502 0.744 . S
C2497 N2 1.581 . S
C2502 N167 1.581 . S
C2527 N35 1.581 . S
C2532 N200 1.581 . S
C2557 N68 1.581 . S
C2562 N233 1.581 . S
C2587 N101 1.581 . S
C2592 N134 1.581 . S
C2617 N266 1.581 . S
C2622 N431 1.581 . S
C2647 N464 1.581 . S
C2652 N299 1.581 . S
C2677 N497 1.581 . S
C2682 N332 1.581 . S
C2707 N398 1.581 . S
C2712 N365 1.581 . S
C2737 N530 1.581 . S
C2742 N695 1.581 . S
C2767 N563 1.581 . S
C2772 N728 1.581 . S
C2797 N761 1.581 . S
C2802 N596 1.581 . S
C2827 N662 1.581 . S
C2832 N629 1.581 . S
C2857 N794 1.581 . S
C2862 N959 1.581 . S
C2887 N992 1.581 . S
C2892 N827 1.581 . S
C2917 N1025 1.581 . S
C2922 N860 1.581 . S
C2947 N893 1.581 . S
C2952 N926 1.581 . S
C2977 N145 1.690 . S
C2982 N13 1.690 . S
C3007 N46 1.690 . S
C3012 N178 1.690 . S
C3037 N79 1.690 . S
C3042 N211 1.690 . S
C3067 N112 1.690 . S
C3072 N244 1.690 . S
C3097 N409 1.690 . S
C3102 N277 1.690 . S
C3127 N310 1.690 . S
C3132 N442 1.690 . S
C3157 N475 1.690 . S
C3162 N343 1.690 . S
C3187 N376 1.690 . S
C3192 N508 1.690 . S
C3217 N541 1.690 . S
C3222 N673 1.690 . S
C3247 N706 1.690 . S
C3252 N574 1.690 . S
C3277 N739 1.690 . S
C3282 N607 1.690 . S
C3307 N772 1.690 . S
C3312 N640 1.690 . S
C3337 N805 1.690 . S
C3342 N937 1.690 . S
C3367 N838 1.690 . S
C3372 N970 1.690 . S
C3397 N871 1.690 . S
C3402 N1003 1.690 . S
C3427 N904 1.690 . S
C3432 N1036 1.690 . S
