# Generated by pormake.
# Topology smm, (6)-cn, num edge types: 1
# Building blocks:
#     Node 0, Type 0, BuildingBlock: KUMBUR_clean_sbu_0, # of connection points: 6
#     Node 1, Type 0, BuildingBlock: KUMBUR_clean_sbu_0, # of connection points: 6
#     Node 2, Type 0, BuildingBlock: KUMBUR_clean_sbu_0, # of connection points: 6
#     Node 3, Type 0, BuildingBlock: KUMBUR_clean_sbu_0, # of connection points: 6
#     Node 4, Type 0, BuildingBlock: KUMBUR_clean_sbu_0, # of connection points: 6
#     Node 5, Type 0, BuildingBlock: KUMBUR_clean_sbu_0, # of connection points: 6
#     Node 6, Type 0, BuildingBlock: KUMBUR_clean_sbu_0, # of connection points: 6
#     Node 7, Type 0, BuildingBlock: KUMBUR_clean_sbu_0, # of connection points: 6
#     Node 8, Type 0, BuildingBlock: KUMBUR_clean_sbu_0, # of connection points: 6
#     Edge 9, Type (0, 0), BuildingBlock: XUDNAN_clean_linker_2, # of connection points: 2
#     Edge 10, Type (0, 0), BuildingBlock: XUDNAN_clean_linker_2, # of connection points: 2
#     Edge 11, Type (0, 0), BuildingBlock: XUDNAN_clean_linker_2, # of connection points: 2
#     Edge 12, Type (0, 0), BuildingBlock: XUDNAN_clean_linker_2, # of connection points: 2
#     Edge 13, Type (0, 0), BuildingBlock: XUDNAN_clean_linker_2, # of connection points: 2
#     Edge 14, Type (0, 0), BuildingBlock: XUDNAN_clean_linker_2, # of connection points: 2
#     Edge 15, Type (0, 0), BuildingBlock: XUDNAN_clean_linker_2, # of connection points: 2
#     Edge 16, Type (0, 0), BuildingBlock: XUDNAN_clean_linker_2, # of connection points: 2
#     Edge 17, Type (0, 0), BuildingBlock: XUDNAN_clean_linker_2, # of connection points: 2
#     Edge 18, Type (0, 0), BuildingBlock: XUDNAN_clean_linker_2, # of connection points: 2
#     Edge 19, Type (0, 0), BuildingBlock: XUDNAN_clean_linker_2, # of connection points: 2
#     Edge 20, Type (0, 0), BuildingBlock: XUDNAN_clean_linker_2, # of connection points: 2
#     Edge 21, Type (0, 0), BuildingBlock: XUDNAN_clean_linker_2, # of connection points: 2
#     Edge 22, Type (0, 0), BuildingBlock: XUDNAN_clean_linker_2, # of connection points: 2
#     Edge 23, Type (0, 0), BuildingBlock: XUDNAN_clean_linker_2, # of connection points: 2
#     Edge 24, Type (0, 0), BuildingBlock: XUDNAN_clean_linker_2, # of connection points: 2
#     Edge 25, Type (0, 0), BuildingBlock: XUDNAN_clean_linker_2, # of connection points: 2
#     Edge 26, Type (0, 0), BuildingBlock: XUDNAN_clean_linker_2, # of connection points: 2
#     Edge 27, Type (0, 0), BuildingBlock: XUDNAN_clean_linker_2, # of connection points: 2
#     Edge 28, Type (0, 0), BuildingBlock: XUDNAN_clean_linker_2, # of connection points: 2
#     Edge 29, Type (0, 0), BuildingBlock: XUDNAN_clean_linker_2, # of connection points: 2
#     Edge 30, Type (0, 0), BuildingBlock: XUDNAN_clean_linker_2, # of connection points: 2
#     Edge 31, Type (0, 0), BuildingBlock: XUDNAN_clean_linker_2, # of connection points: 2
#     Edge 32, Type (0, 0), BuildingBlock: XUDNAN_clean_linker_2, # of connection points: 2
#     Edge 33, Type (0, 0), BuildingBlock: XUDNAN_clean_linker_2, # of connection points: 2
#     Edge 34, Type (0, 0), BuildingBlock: XUDNAN_clean_linker_2, # of connection points: 2
#     Edge 35, Type (0, 0), BuildingBlock: XUDNAN_clean_linker_2, # of connection points: 2
# Relax obj value: 0.115
# Max RMSD: 0.258
# Mean RMSD: 0.195
data_MOF--net-smm--node1-KUMBUR_clean_sbu_0--edge1-XUDNAN_clean_linker_2
_symmetry_space_group_name_H-M    P1
_symmetry_Int_Tables_number       1
_symmetry_cell_setting            triclinic
loop_
_symmetry_equiv_pos_as_xyz
'x, y, z'
_cell_length_a     58.49917
_cell_length_b     73.000662
_cell_length_c     14.914045
_cell_angle_alpha  98.545135
_cell_angle_beta   99.246835
_cell_angle_gamma 121.59022
loop_
_atom_site_label
_atom_site_type_symbol
_atom_site_fract_x
_atom_site_fract_y
_atom_site_fract_z
_atom_type_partial_charge
Tb0 Tb 0.09461 0.24537 0.16538 0.0
C1 C 0.98014 0.19415 0.04001 0.0
C2 C 0.96361 0.19969 0.1733 0.0
C3 C 0.9424 0.19987 0.01992 0.0
C4 C 0.98213 0.19642 0.13451 0.0
C5 C 0.95928 0.19471 0.98051 0.0
C6 C 0.94463 0.20243 0.11648 0.0
C7 C 0.96913 0.18031 0.84689 0.0
N8 N 0.9965 0.1888 0.00485 0.0
C9 C 0.98913 0.17965 0.90912 0.0
C10 C 0.95478 0.18863 0.88282 0.0
Tb11 Tb 1.03237 0.19219 0.11517 0.0
N12 N 1.00069 0.19358 0.18656 0.0
C13 C 0.99873 0.19058 0.27438 0.0
C14 C 0.96405 0.19928 0.26689 0.0
C15 C 0.98118 0.1941 0.31678 0.0
H16 H 0.9989 0.17207 0.87947 0.0
H17 H 0.98057 0.19244 0.38745 0.0
H18 H 0.93073 0.2055 0.14551 0.0
H19 H 0.96451 0.17407 0.77131 0.0
H20 H 1.01028 0.18515 0.31256 0.0
H21 H 0.13312 0.223 0.8886 0.0
H22 H 0.95028 0.20181 0.29949 0.0
H23 H 0.1247 0.26494 0.40389 0.0
H24 H 0.10545 0.23438 0.95231 0.0
H25 H 0.15859 0.264 0.51816 0.0
H26 H 0.92663 0.20078 0.97561 0.0
H27 H 0.1671 0.21983 -0.00518 0.0
H28 H 0.19056 0.22404 0.15907 0.0
H29 H 0.939 0.18885 0.83464 0.0
H30 H 0.19694 0.23462 0.3298 0.0
N31 N 0.12062 0.23562 0.0953 0.0
C32 C 0.11877 0.23208 0.0007 0.0
C33 C 0.15445 0.2245 0.02382 0.0
C34 C 0.15771 0.22952 0.12096 0.0
C35 C 0.13517 0.22611 0.96367 0.0
C36 C 0.14063 0.23545 0.1553 0.0
H37 H 0.18479 0.24901 0.46389 0.0
N38 N 0.12756 0.24716 0.28251 0.0
C39 C 0.15424 0.25699 0.44342 0.0
C40 C 0.14388 0.24104 0.25154 0.0
C41 C 0.13425 0.25685 0.37737 0.0
C42 C 0.16908 0.24866 0.41255 0.0
C43 C 0.16468 0.24124 0.31568 0.0
O44 O 0.11629 0.27841 0.25297 0.0
O45 O 0.05047 0.22798 0.16416 0.0
O46 O 0.04296 0.20002 0.98397 0.0
O47 O 0.07448 0.23853 0.02026 0.0
O48 O 0.066 0.25502 0.11334 0.0
O49 O 0.12409 0.27192 0.12023 0.0
O50 O 1.02526 0.16369 0.02376 0.0
O51 O 0.07641 0.20924 0.11667 0.0
O52 O 0.08117 0.24193 0.29462 0.0
O53 O 0.0511 0.20352 0.26829 0.0
O54 O 0.06177 0.1869 0.19613 0.0
O55 O 1.00493 0.16034 0.13409 0.0
C56 C 0.04363 0.24011 0.13056 0.0
C57 C 0.12976 0.30663 0.17091 0.0
C58 C 0.15256 0.34092 0.11891 0.0
C59 C 0.15241 0.32286 0.14344 0.0
C60 C 0.12975 0.34246 0.12289 0.0
C61 C 0.1075 0.30886 0.17533 0.0
C62 C 0.10753 0.32663 0.1512 0.0
C63 C 0.05488 0.21907 0.96052 0.0
C64 C 0.12943 0.2873 0.19252 0.0
C65 C 0.18108 0.23473 0.2815 0.0
C66 C 0.17755 0.22882 0.18437 0.0
C67 C 0.08268 0.19838 0.16423 0.0
C68 C 0.988 0.12681 0.01423 0.0
C69 C 0.99078 0.10982 0.03615 0.0
C70 C 0.97207 0.08739 0.9813 0.0
C71 C 0.95028 0.08219 0.90445 0.0
C72 C 0.96599 0.12126 0.93803 0.0
C73 C 0.94718 0.099 0.8836 0.0
C74 C 0.06768 0.22403 0.32525 0.0
C75 C 1.00977 0.15017 0.06822 0.0
H76 H 0.16963 0.32123 0.13974 0.0
H77 H 0.12929 0.35618 0.10558 0.0
H78 H 0.09005 0.29691 0.19736 0.0
H79 H 0.09023 0.32816 0.15461 0.0
H80 H 1.00806 0.1142 0.09445 0.0
H81 H 0.93543 0.06509 0.86122 0.0
H82 H 0.96355 0.13408 0.92007 0.0
H83 H 0.93024 0.09477 0.82454 0.0
Tb84 Tb 0.93009 0.81263 0.03144 0.0
C85 C 0.8896 0.87054 0.14056 0.0
C86 C 0.85013 0.85637 0.0046 0.0
C87 C 0.85109 0.87374 0.15848 0.0
C88 C 0.87621 0.85999 0.04485 0.0
C89 C 0.87737 0.87788 0.19792 0.0
C90 C 0.83753 0.86306 0.06203 0.0
C91 C 0.91925 0.89503 0.32691 0.0
N92 N 0.91498 0.87427 0.17677 0.0
C93 C 0.9306 0.88761 0.26717 0.0
C94 C 0.89231 0.88981 0.29262 0.0
Tb95 Tb 0.93252 0.86343 0.06941 0.0
N96 N 0.88863 0.85323 -0.00862 0.0
C97 C 0.87597 0.84294 0.89652 0.0
C98 C 0.83744 0.84617 0.9077 0.0
C99 C 0.85035 0.83934 0.85355 0.0
H100 H 0.95174 0.89211 0.29363 0.0
H101 H 0.84051 0.83119 0.7786 0.0
H102 H 0.81738 0.86018 0.03238 0.0
H103 H 0.93143 0.905 0.39899 0.0
H104 H 0.88504 0.8371 0.85295 0.0
H105 H 0.04054 0.84982 0.18247 0.0
H106 H 0.8177 0.8435 0.87412 0.0
H107 H 0.88494 0.77211 0.83578 0.0
H108 H 0.99393 0.84076 0.18442 0.0
H109 H 0.88642 0.75142 0.6924 0.0
H110 H 0.84129 0.8791 0.20162 0.0
H111 H 0.04744 0.83419 0.03837 0.0
H112 H 1.02621 0.80872 0.87279 0.0
H113 H 0.88363 0.89573 0.33887 0.0
H114 H 0.98418 0.78167 0.73965 0.0
N115 N 0.97429 0.8211 0.04045 0.0
C116 C 0.9964 0.83398 0.12023 0.0
C117 C 1.02685 0.83032 0.03828 0.0
C118 C 1.00384 0.81599 0.95878 0.0
C119 C 1.02302 0.83913 0.11975 0.0
C120 C 0.97755 0.81163 0.96232 0.0
H121 H 0.93186 0.75997 0.67216 0.0
N122 N 0.92923 0.79274 0.89484 0.0
C123 C 0.90565 0.76424 0.74637 0.0
C124 C 0.95411 0.79661 0.88739 0.0
C125 C 0.90489 0.77598 0.82772 0.0
C126 C 0.93134 0.7691 0.73521 0.0
C127 C 0.95597 0.78524 0.80681 0.0
O128 O 0.89783 0.77934 0.02876 0.0
O129 O 0.90724 0.82808 0.05912 0.0
O130 O 0.92756 0.85118 0.19417 0.0
O131 O 0.94786 0.83127 0.18013 0.0
O132 O 0.88422 0.79689 0.9718 0.0
O133 O 0.93813 0.79466 0.11915 0.0
O134 O 0.96144 0.89833 0.12813 0.0
O135 O 0.95813 0.85046 0.0439 0.0
O136 O 0.92919 0.81979 0.89581 0.0
O137 O 0.93311 0.85393 0.92311 0.0
O138 O 0.97614 0.87928 0.14906 0.0
O139 O 0.93124 0.8847 -0.00876 0.0
C140 C 0.88215 0.81259 0.01184 0.0
C141 C 0.9104 0.75338 0.06307 0.0
C142 C 0.89114 0.7126 0.06305 0.0
C143 C 0.89252 0.73334 0.09251 0.0
C144 C 0.90842 0.71327 0.00609 0.0
C145 C 0.92674 0.75193 0.00718 0.0
C146 C 0.92569 0.73237 0.97914 0.0
C147 C 0.94063 0.84266 0.23118 0.0
C148 C 0.91317 0.77605 0.0884 0.0
C149 C 0.98223 0.79005 0.80134 0.0
C150 C 1.00615 0.80546 0.87712 0.0
C151 C 0.9825 0.86746 0.09957 0.0
C152 C 0.97068 0.92188 0.02503 0.0
C153 C 0.97011 0.94112 0.04108 0.0
C154 C 0.98672 0.95914 0.00567 0.0
C155 C 1.00427 0.95768 0.95489 0.0
C156 C 0.98836 0.92078 0.97466 0.0
C157 C 1.00521 0.9387 0.94027 0.0
C158 C 0.93099 0.83673 0.86835 0.0
C159 C 0.95123 0.90283 0.05679 0.0
H160 H 0.87979 0.73385 0.13675 0.0
H161 H 0.90933 0.69893 0.98344 0.0
H162 H 0.94089 0.76623 0.98542 0.0
H163 H 0.9388 0.73206 0.93612 0.0
H164 H 0.95609 0.94178 0.07898 0.0
H165 H 1.01746 0.97131 0.92736 0.0
H166 H 0.98882 0.90601 0.96095 0.0
H167 H 1.01887 0.9378 0.9014 0.0
Tb168 Tb 0.23305 1.01007 0.08883 0.0
C169 C 0.25813 0.09078 0.05566 0.0
C170 C 0.29188 0.11487 0.2081 0.0
C171 C 0.29959 0.12718 0.06703 0.0
C172 C 0.26672 0.09457 0.1528 0.0
C173 C 0.27434 0.10732 0.01231 0.0
C174 C 0.3084 0.13089 0.16455 0.0
C175 C 0.23905 0.08396 0.8638 0.0
N176 N 0.23387 0.07118 0.00386 0.0
C177 C 0.22351 0.0683 0.90981 0.0
C178 C 0.26477 0.10343 0.91499 0.0
Tb179 Tb 0.21021 0.04693 0.08872 0.0
N180 N 0.25031 0.07867 0.19333 0.0
C181 C 0.25685 0.08345 0.29012 0.0
C182 C 0.29961 0.11867 0.30593 0.0
C183 C 0.28177 0.10306 0.34712 0.0
H184 H 0.20276 0.05434 0.86946 0.0
H185 H 0.28688 0.10637 0.42328 0.0
H186 H 0.32788 0.14638 0.20595 0.0
H187 H 0.23086 0.08119 0.7891 0.0
H188 H 0.24282 0.07299 0.32608 0.0
H189 H 0.15524 0.94226 0.77915 0.0
H190 H 0.31881 0.13394 0.35052 0.0
H191 H 0.25455 1.00492 0.30253 0.0
H192 H 0.19697 0.97914 0.86392 0.0
H193 H 0.2344 0.97952 0.40041 0.0
H194 H 0.31241 0.13984 0.03459 0.0
H195 H 0.12914 0.91569 0.86694 0.0
H196 H 0.12519 0.90714 0.02244 0.0
H197 H 0.27671 0.11563 0.87922 0.0
H198 H 0.14623 0.91787 0.19373 0.0
N199 N 0.19362 0.97557 0.00185 0.0
C200 C 0.18522 0.96874 0.905 0.0
C201 C 0.14727 0.9323 0.90532 0.0
C202 C 0.1569 0.93868 0.00388 0.0
C203 C 0.1618 0.9473 0.85566 0.0
C204 C 0.18076 0.96053 0.05048 0.0
H205 H 0.18689 0.94488 0.33571 0.0
N206 N 0.21743 0.98653 0.18581 0.0
C207 C 0.22211 0.97582 0.32973 0.0
C208 C 0.19263 0.96649 0.14633 0.0
C209 C 0.23329 0.99031 0.27388 0.0
C210 C 0.19533 0.95632 0.29297 0.0
C211 C 0.18076 0.95093 0.19887 0.0
O212 O 0.24835 0.9996 0.98636 0.0
O213 O 0.24675 0.04423 0.07964 0.0
O214 O 0.19565 1.02659 0.94444 0.0
O215 O 0.22835 1.01738 0.95167 0.0
O216 O 0.27442 0.04078 0.16583 0.0
O217 O 0.26082 1.00056 0.12931 0.0
O218 O 0.18653 0.05843 0.02417 0.0
O219 O 0.19606 1.01162 0.07754 0.0
O220 O 0.2381 1.02534 0.23552 0.0
O221 O 0.20933 0.03836 0.22089 0.0
O222 O 0.16623 1.01781 0.06604 0.0
O223 O 0.19535 0.062 0.1722 0.0
C224 C 0.27268 0.0553 0.13073 0.0
C225 C 0.29213 1.00351 0.03929 0.0
C226 C 0.32719 0.99533 0.01457 0.0
C227 C 0.29917 0.98788 0.01269 0.0
C228 C 0.34766 1.01848 0.04233 0.0
C229 C 0.31322 1.02644 0.0645 0.0
C230 C 0.34068 0.03381 0.06614 0.0
C231 C 0.20929 1.01969 0.90393 0.0
C232 C 0.26335 0.99596 0.04565 0.0
C233 C 0.15575 0.92991 0.15429 0.0
C234 C 0.14388 0.92375 0.05675 0.0
C235 C 0.16932 1.0016 0.06904 0.0
C236 C 0.19036 0.09002 0.12465 0.0
C237 C 0.16935 0.0946 0.10136 0.0
C238 C 0.17589 0.11684 0.13273 0.0
C239 C 0.20356 0.13403 0.18426 0.0
C240 C 0.21742 0.10806 0.17758 0.0
C241 C 0.22398 0.1297 0.20588 0.0
C242 C 0.22233 0.03102 0.26806 0.0
C243 C 0.18428 0.06664 0.10355 0.0
H244 H 0.28312 0.9701 -0.00738 0.0
H245 H 0.36917 1.02477 0.04424 0.0
H246 H 0.30858 0.03873 0.08389 0.0
H247 H 0.35673 0.05158 0.08643 0.0
H248 H 0.14812 0.081 0.06216 0.0
H249 H 0.20951 0.1511 0.20817 0.0
H250 H 0.23361 0.10546 0.20013 0.0
H251 H 0.24509 0.14323 0.24658 0.0
Tb252 Tb 0.73868 0.51744 0.12468 0.0
C253 C 0.84883 0.55628 0.12795 0.0
C254 C 0.85809 0.54699 0.98134 0.0
C255 C 0.88689 0.58531 0.08162 0.0
C256 C 0.84185 0.54082 0.04528 0.0
C257 C 0.87189 0.57861 0.14834 0.0
C258 C 0.88006 0.56949 -0.00169 0.0
C259 C 0.86516 0.58538 0.30238 0.0
N260 N 0.83408 0.54904 0.19104 0.0
C261 C 0.8423 0.56307 0.27858 0.0
C262 C 0.8797 0.5933 0.23636 0.0
Tb263 Tb 0.79604 0.51269 0.14187 0.0
N264 N 0.82062 0.51927 0.03186 0.0
C265 C 0.81721 0.50255 0.96347 0.0
C266 C 0.85262 0.53017 0.90505 0.0
C267 C 0.83253 0.50779 0.89739 0.0
H268 H 0.831 0.55734 0.32975 0.0
H269 H 0.82891 0.49458 0.84094 0.0
H270 H 0.89251 0.57467 0.94926 0.0
H271 H 0.87129 0.59652 0.37119 0.0
H272 H 0.8018 0.48524 0.95798 0.0
H273 H 0.67242 0.45452 0.28323 0.0
H274 H 0.86463 0.53419 0.85428 0.0
H275 H 0.71942 0.53033 0.93491 0.0
H276 H 0.71468 0.48908 0.28023 0.0
H277 H 0.68046 0.51171 0.7885 0.0
H278 H 0.90442 0.60248 0.09532 0.0
H279 H 0.63297 0.43078 0.13816 0.0
H280 H 0.61183 0.42521 0.96725 0.0
H281 H 0.89729 0.61061 0.25482 0.0
H282 H 0.61452 0.44045 0.82991 0.0
N283 N 0.70017 0.48499 0.13331 0.0
C284 C 0.69789 0.47898 0.21578 0.0
C285 C 0.6517 0.44585 0.13579 0.0
C286 C 0.65356 0.45253 0.05262 0.0
C287 C 0.67383 0.4593 0.218 0.0
C288 C 0.67832 0.47246 0.05397 0.0
H289 H 0.63999 0.47297 0.76275 0.0
N290 N 0.70263 0.50164 0.9876 0.0
C291 C 0.6801 0.50278 0.8406 0.0
C292 C 0.6797 0.48102 0.97747 0.0
C293 C 0.7022 0.51324 0.92354 0.0
C294 C 0.65736 0.48087 0.82611 0.0
C295 C 0.65649 0.47001 0.89658 0.0
O296 O 0.73612 0.54542 0.13079 0.0
O297 O 0.78489 0.53779 0.15814 0.0
O298 O 0.7927 0.51769 0.28479 0.0
O299 O 0.75626 0.52263 0.27589 0.0
O300 O 0.76284 0.54395 0.06074 0.0
O301 O 0.71969 0.52456 0.22059 0.0
O302 O 0.82871 0.51555 0.24214 0.0
O303 O 0.7529 0.496 0.15056 0.0
O304 O 0.73567 0.50106 0.9828 0.0
O305 O 0.78161 0.51211 -0.00247 0.0
O306 O 0.76165 0.47721 0.06913 0.0
O307 O 0.79949 0.48507 0.13463 0.0
C308 C 0.7879 0.55135 0.10616 0.0
C309 C 0.69645 0.5411 0.1698 0.0
C310 C 0.67169 0.55881 0.19847 0.0
C311 C 0.69629 0.55912 0.21734 0.0
C312 C 0.64766 0.54072 0.12881 0.0
C313 C 0.67188 0.52287 0.10329 0.0
C314 C 0.64782 0.52285 0.08172 0.0
C315 C 0.77614 0.5212 0.32368 0.0
C316 C 0.722 0.54121 0.19214 0.0
C317 C 0.6325 0.4493 0.89177 0.0
C318 C 0.63097 0.44064 0.97002 0.0
C319 C 0.74191 0.47587 0.10205 0.0
C320 C 0.84483 0.49267 0.18969 0.0
C321 C 0.84528 0.47406 0.20591 0.0
C322 C 0.86659 0.47116 0.18804 0.0
C323 C 0.88726 0.48733 0.15445 0.0
C324 C 0.86614 0.5084 0.1573 0.0
C325 C 0.88702 0.50567 0.13955 0.0
C326 C 0.75621 0.50424 0.94663 0.0
C327 C 0.82201 0.49548 0.20467 0.0
H328 H 0.71491 0.57288 0.27132 0.0
H329 H 0.62858 0.54021 0.11202 0.0
H330 H 0.67101 0.50848 0.06894 0.0
H331 H 0.62908 0.50875 0.0296 0.0
H332 H 0.82898 0.46183 0.23122 0.0
H333 H 0.90419 0.48613 0.14154 0.0
H334 H 0.86675 0.5229 0.14578 0.0
H335 H 0.9033 0.51799 0.11451 0.0
Tb336 Tb 0.52116 0.16977 0.14478 0.0
C337 C 0.46512 0.2119 0.1222 0.0
C338 C 0.45318 0.21693 0.96864 0.0
C339 C 0.41895 0.2041 0.05732 0.0
C340 C 0.472 0.21687 0.04065 0.0
C341 C 0.43859 0.20582 0.132 0.0
C342 C 0.42629 0.20976 0.97592 0.0
C343 C 0.45335 0.20508 0.29095 0.0
N344 N 0.4849 0.21421 0.1937 0.0
C345 C 0.4794 0.21127 0.27841 0.0
C346 C 0.43273 0.20207 0.21716 0.0
Tb347 Tb 0.52528 0.22153 0.15725 0.0
N348 N 0.49813 0.22375 0.03595 0.0
C349 C 0.50832 0.23461 0.96992 0.0
C350 C 0.46252 0.2254 0.8942 0.0
C351 C 0.49049 0.2349 0.89637 0.0
H352 H 0.49444 0.21327 0.33755 0.0
H353 H 0.49844 0.24272 0.84232 0.0
H354 H 0.41138 0.20932 0.9206 0.0
H355 H 0.44915 0.20247 0.35764 0.0
H356 H 0.53015 0.24282 0.97372 0.0
H357 H 0.6212 0.18026 0.18677 0.0
H358 H 0.44877 0.22584 0.83777 0.0
H359 H 0.46359 0.14174 0.96007 0.0
H360 H 0.58657 0.18596 0.23558 0.0
H361 H 0.44632 0.11531 0.80405 0.0
H362 H 0.39838 0.19915 0.06319 0.0
H363 H 0.60835 0.15531 0.02933 0.0
H364 H 0.57157 0.1289 0.87598 0.0
H365 H 0.41258 0.19723 0.22722 0.0
H366 H 0.52368 0.11055 0.77346 0.0
N367 N 0.5552 0.1662 0.10433 0.0
C368 C 0.58106 0.17578 0.16531 0.0
C369 C 0.59322 0.15808 0.04982 0.0
C370 C 0.56622 0.14731 0.98941 0.0
C371 C 0.60058 0.17223 0.13854 0.0
C372 C 0.5474 0.15157 0.01958 0.0
H373 H 0.47676 0.1053 0.74624 0.0
N374 N 0.50325 0.14602 -0.00551 0.0
C375 C 0.46712 0.12224 0.84844 0.0
C376 C 0.52031 0.14083 0.963 0.0
C377 C 0.47696 0.13711 0.93793 0.0
C378 C 0.48436 0.11663 0.81599 0.0
C379 C 0.51145 0.12614 0.87303 0.0
O380 O 0.49705 0.13844 0.17056 0.0
O381 O 0.49712 0.18498 0.14687 0.0
O382 O 0.53439 0.22038 0.30439 0.0
O383 O 0.5383 0.1898 0.29279 0.0
O384 O 0.47641 0.15144 0.12993 0.0
O385 O 0.53951 0.16246 0.25587 0.0
O386 O 0.53461 0.25303 0.23491 0.0
O387 O 0.54875 0.20608 0.18378 0.0
O388 O 0.53057 0.18122 0.0179 0.0
O389 O 0.51135 0.20207 0.0103 0.0
O390 O 0.56501 0.23171 0.12384 0.0
O391 O 0.56032 0.25218 0.15216 0.0
C392 C 0.47236 0.16712 0.13764 0.0
C393 C 0.52165 0.12402 0.23826 0.0
C394 C 0.52772 0.09948 0.32119 0.0
C395 C 0.52473 0.11752 0.32165 0.0
C396 C 0.52786 0.08832 0.23588 0.0
C397 C 0.52144 0.11229 0.15439 0.0
C398 C 0.52479 0.09473 0.15355 0.0
C399 C 0.53792 0.2063 0.34178 0.0
C400 C 0.51737 0.1423 0.23874 0.0
C401 C 0.53009 0.12184 0.8423 0.0
C402 C 0.55741 0.13237 0.9005 0.0
C403 C 0.56979 0.21824 0.15498 0.0
C404 C 0.56074 0.28548 0.17248 0.0
C405 C 0.58805 0.30553 0.18399 0.0
C406 C 0.59119 0.32345 0.14463 0.0
C407 C 0.5664 0.32052 0.09514 0.0
C408 C 0.53722 0.28431 0.12412 0.0
C409 C 0.54006 0.30147 0.08577 0.0
C410 C 0.52217 0.19192 0.97293 0.0
C411 C 0.55643 0.26531 0.20562 0.0
H412 H 0.52464 0.12644 0.3864 0.0
H413 H 0.52951 0.07414 0.2318 0.0
H414 H 0.51811 0.11634 0.08902 0.0
H415 H 0.5245 0.08575 0.08823 0.0
H416 H 0.6066 0.30699 0.22178 0.0
H417 H 0.56727 0.33342 0.06507 0.0
H418 H 0.51638 0.26989 0.11486 0.0
H419 H 0.52148 0.3 0.04813 0.0
Tb420 Tb 0.96614 0.3634 0.29685 0.0
C421 C 0.88815 0.26945 0.1417 0.0
C422 C 0.86394 0.25602 0.97481 0.0
C423 C 0.87957 0.23522 0.04661 0.0
C424 C 0.87574 0.27213 0.06287 0.0
C425 C 0.88939 0.25055 0.13534 0.0
C426 C 0.86679 0.23793 0.96635 0.0
C427 C 0.90644 0.26187 0.30557 0.0
N428 N 0.89698 0.2845 0.22592 0.0
C429 C 0.90513 0.28055 0.30796 0.0
C430 C 0.89924 0.24712 0.21874 0.0
Tb431 Tb 0.89506 0.31498 0.2217 0.0
N432 N 0.87331 0.28974 0.07452 0.0
C433 C 0.85623 0.2907 0.00348 0.0
C434 C 0.84861 0.25807 0.89937 0.0
C435 C 0.84421 0.27521 0.91441 0.0
H436 H 0.91117 0.29188 0.37566 0.0
H437 H 0.83153 0.27648 0.85755 0.0
H438 H 0.85827 0.22552 0.89898 0.0
H439 H 0.91344 0.25909 0.37073 0.0
H440 H 0.85286 0.30397 0.01478 0.0
H441 H 0.94888 0.41422 0.54388 0.0
H442 H 0.83916 0.24604 0.83047 0.0
H443 H 1.00388 0.37815 0.14443 0.0
H444 H 0.95084 0.38223 0.48365 0.0
H445 H 1.01998 0.40699 0.05765 0.0
H446 H 0.88076 0.22077 0.03995 0.0
H447 H 0.95929 0.44261 0.45647 0.0
H448 H 0.97512 0.45724 0.32144 0.0
H449 H 0.90049 0.23278 0.21708 0.0
H450 H 0.99323 0.45471 0.1857 0.0
N451 N 0.96177 0.39162 0.36001 0.0
C452 C 0.95543 0.39419 0.44349 0.0
C453 C 0.96019 0.42847 0.42899 0.0
C454 C 0.96793 0.42638 0.34608 0.0
C455 C 0.95437 0.41251 0.47865 0.0
C456 C 0.96877 0.40764 0.31314 0.0
H457 H 1.01009 0.43606 0.08666 0.0
N458 N 0.98203 0.38908 0.21198 0.0
C459 C 1.00799 0.40672 0.10626 0.0
C460 C 0.97879 0.40613 0.23582 0.0
C461 C 0.99864 0.39032 0.15466 0.0
C462 C 1.00232 0.42307 0.12276 0.0
C463 C 0.98859 0.42346 0.19098 0.0
O464 O 0.99905 0.36202 0.37166 0.0
O465 O 0.93981 0.32683 0.2697 0.0
O466 O 0.9092 0.32403 0.37527 0.0
O467 O 0.95647 0.35372 0.42228 0.0
O468 O 0.97347 0.34094 0.21321 0.0
O469 O 1.00595 0.39334 0.3704 0.0
O470 O 0.86324 0.29323 0.2788 0.0
O471 O 0.92226 0.35172 0.2797 0.0
O472 O 0.95085 0.35476 0.14315 0.0
O473 O 0.90963 0.31858 0.09614 0.0
O474 O 0.88885 0.3379 0.16112 0.0
O475 O 0.85771 0.31423 0.20846 0.0
C476 C 0.95382 0.32224 0.22295 0.0
C477 C 0.04528 0.39109 0.37399 0.0
C478 C 0.09694 0.4178 0.41111 0.0
C479 C 0.07105 0.41099 0.43205 0.0
C480 C 0.09613 0.40398 0.3321 0.0
C481 C 0.04588 0.37828 0.29551 0.0
C482 C 0.071 0.38465 0.27515 0.0
C483 C 0.93359 0.33835 0.43911 0.0
C484 C 1.01779 0.38339 0.39456 0.0
C485 C 0.98615 0.4414 0.2201 0.0
C486 C 0.97592 0.44287 0.29762 0.0
C487 C 0.90896 0.35645 0.22096 0.0
C488 C 0.81559 0.27957 0.2006 0.0
C489 C 0.79226 0.27922 0.2222 0.0
C490 C 0.76387 0.26105 0.17254 0.0
C491 C 0.75986 0.24356 0.10274 0.0
C492 C 0.80986 0.26133 0.13143 0.0
C493 C 0.78244 0.2437 0.08293 0.0
C494 C 0.9303 0.33606 0.07888 0.0
C495 C 0.84586 0.29848 0.24909 0.0
H496 H 0.07083 0.4211 0.49245 0.0
H497 H 0.11513 0.40777 0.31462 0.0
H498 H 1.0269 0.36311 0.24977 0.0
H499 H 0.07104 0.37437 0.21491 0.0
H500 H 0.79617 0.29298 0.27634 0.0
H501 H 0.73897 0.22922 0.0644 0.0
H502 H 0.82669 0.26052 0.11506 0.0
H503 H 0.77862 0.22983 0.02975 0.0
Tb504 Tb 0.48865 0.93627 0.9352 0.0
C505 C 0.36798 0.86653 0.70049 0.0
C506 C 0.33949 0.87664 0.765 0.0
C507 C 0.32453 0.85736 0.59812 0.0
C508 C 0.36398 0.87677 0.77582 0.0
C509 C 0.34813 0.85636 0.61095 0.0
C510 C 0.32015 0.86742 0.67519 0.0
C511 C 0.37491 0.843 0.55658 0.0
N512 N 0.39069 0.86551 0.7165 0.0
C513 C 0.39371 0.85301 0.6472 0.0
C514 C 0.35218 0.84491 0.53801 0.0
Tb515 Tb 0.42107 0.88328 0.86612 0.0
N516 N 0.38309 0.88535 0.86138 0.0
C517 C 0.37759 0.89227 0.94079 0.0
C518 C 0.33466 0.88497 0.84533 0.0
C519 C 0.35359 0.89249 0.93382 0.0
H520 H 0.41129 0.85152 0.66089 0.0
H521 H 0.3498 0.89855 -0.00329 0.0
H522 H 0.30139 0.86741 0.66517 0.0
H523 H 0.37792 0.83377 0.50124 0.0
H524 H 0.39191 0.89813 0.00989 0.0
H525 H 0.56042 0.91924 0.81964 0.0
H526 H 0.3161 0.88516 0.84012 0.0
H527 H 0.49717 0.96887 0.13852 0.0
H528 H 0.51881 0.92022 0.80023 0.0
H529 H 0.53089 0.98897 0.29537 0.0
H530 H 0.30912 0.84981 0.52971 0.0
H531 H 0.59507 0.93575 0.97656 0.0
H532 H 0.61079 0.9571 0.14731 0.0
H533 H 0.3375 0.83697 0.468 0.0
H534 H 0.60292 0.97637 0.27663 0.0
N535 N 0.52835 0.93626 0.94518 0.0
C536 C 0.5333 0.92737 0.86925 0.0
C537 C 0.5766 0.93614 0.96843 0.0
C538 C 0.57232 0.94635 0.04488 0.0
C539 C 0.55714 0.92685 0.87987 0.0
C540 C 0.5478 0.94624 0.03041 0.0
H541 H 0.57335 0.98858 0.33214 0.0
N542 N 0.51989 0.95681 0.08353 0.0
C543 C 0.53469 0.98 0.24173 0.0
C544 C 0.54347 0.95701 0.10232 0.0
C545 C 0.51559 0.96857 0.15165 0.0
C546 C 0.5586 0.97972 0.26231 0.0
C547 C 0.56337 0.96827 0.19201 0.0
O548 O 0.49766 0.96837 0.93584 0.0
O549 O 0.44324 0.91922 0.89148 0.0
O550 O 0.42755 0.89622 0.7427 0.0
O551 O 0.47606 0.91702 0.78857 0.0
O552 O 0.46595 0.94985 0.98687 0.0
O553 O 0.50446 0.95026 0.82792 0.0
O554 O 0.40694 0.84945 0.84808 0.0
O555 O 0.46619 0.90029 0.91255 0.0
O556 O 0.48375 0.92297 0.05717 0.0
O557 O 0.43499 0.90026 0.01858 0.0
O558 O 0.44459 0.86896 0.82589 0.0
O559 O 0.4018 0.86714 0.96364 0.0
C560 C 0.44096 0.93382 0.93946 0.0
C561 C 0.52928 0.98955 0.85298 0.0
C562 C 0.54625 1.02183 0.78795 0.0
C563 C 0.52403 1.0022 0.80075 0.0
C564 C 0.57385 0.02871 0.82942 0.0
C565 C 0.55692 0.9968 0.89426 0.0
C566 C 0.57908 1.01635 0.88259 0.0
C567 C 0.45175 0.90564 0.72278 0.0
C568 C 0.50542 0.96835 0.8589 0.0
C569 C 0.58746 0.96795 0.2081 0.0
C570 C 0.59193 0.95697 0.13456 0.0
C571 C 0.46945 0.88541 0.87361 0.0
C572 C 0.36683 0.82837 0.89892 0.0
C573 C 0.36176 0.80736 0.90017 0.0
C574 C 0.33422 0.78852 0.88127 0.0
C575 C 0.3118 0.79095 0.86108 0.0
C576 C 0.34408 0.8304 0.87961 0.0
C577 C 0.31678 0.8118 0.86051 0.0
C578 C 0.46014 0.91148 0.0802 0.0
C579 C 0.39585 0.84783 0.918 0.0
H580 H 0.5026 0.99641 0.76793 0.0
H581 H 0.59141 0.04378 0.82147 0.0
H582 H 0.56131 0.98725 0.9345 0.0
H583 H 0.60043 1.02188 0.91438 0.0
H584 H 0.37922 0.80566 0.9148 0.0
H585 H 0.29043 0.77679 0.84718 0.0
H586 H 0.34719 0.84628 0.8798 0.0
H587 H 0.29942 0.81358 0.8457 0.0
Tb588 Tb 0.35304 0.54551 0.76193 0.0
C589 C 0.27311 0.56722 0.65859 0.0
C590 C 0.27158 0.57538 0.50707 0.0
C591 C 0.22847 0.55417 0.55027 0.0
C592 C 0.28663 0.57636 0.59354 0.0
C593 C 0.244 0.55707 0.63967 0.0
C594 C 0.24226 0.56328 0.48383 0.0
C595 C 0.24891 0.55805 0.80421 0.0
N596 N 0.28902 0.57089 0.74478 0.0
C597 C 0.27774 0.56832 0.81928 0.0
C598 C 0.23179 0.55163 0.71319 0.0
Tb599 Tb 0.3352 0.58459 0.75612 0.0
N600 N 0.31499 0.58819 0.61956 0.0
C601 C 0.32972 0.60216 0.56829 0.0
C602 C 0.28654 0.58759 0.44923 0.0
C603 C 0.31574 0.60151 0.48119 0.0
H604 H 0.29071 0.57441 0.89093 0.0
H605 H 0.32748 0.61171 0.43874 0.0
H606 H 0.23021 0.56192 0.41689 0.0
H607 H 0.23999 0.55534 0.86303 0.0
H608 H 0.3523 0.61281 0.59198 0.0
H609 H 0.45474 0.58966 0.0209 0.0
H610 H 0.27577 0.58724 0.38207 0.0
H611 H 0.33077 0.50692 0.55498 0.0
H612 H 0.40378 0.56971 0.97032 0.0
H613 H 0.35191 0.4995 0.43675 0.0
H614 H 0.206 0.54599 0.53372 0.0
H615 H 0.48068 0.59169 0.90303 0.0
H616 H 0.47898 0.57834 0.73531 0.0
H617 H 0.20951 0.54384 0.70178 0.0
H618 H 0.45067 0.55303 0.57542 0.0
N619 N 0.40025 0.5619 0.82254 0.0
C620 C 0.41444 0.57084 0.91678 0.0
C621 C 0.45814 0.5831 0.8798 0.0
C622 C 0.44319 0.57169 0.78481 0.0
C623 C 0.44357 0.58196 0.94649 0.0
C624 C 0.41385 0.56074 0.75848 0.0
H625 H 0.4032 0.52295 0.46445 0.0
N626 N 0.36972 0.53453 0.64989 0.0
C627 C 0.36512 0.51279 0.50169 0.0
C628 C 0.39801 0.5464 0.66904 0.0
C629 C 0.35324 0.51682 0.56987 0.0
C630 C 0.39406 0.52616 0.5173 0.0
C631 C 0.41096 0.54281 0.60284 0.0
O632 O 0.32792 0.5248 0.8386 0.0
O633 O 0.31865 0.54992 0.74741 0.0
O634 O 0.32562 0.56904 0.87127 0.0
O635 O 0.3629 0.56632 0.90314 0.0
O636 O 0.3117 0.52257 0.65634 0.0
O637 O 0.35693 0.51962 0.79209 0.0
O638 O 0.36049 0.60995 0.88498 0.0
O639 O 0.37053 0.58139 0.7948 0.0
O640 O 0.3539 0.55238 0.62307 0.0
O641 O 0.32903 0.56877 0.61116 0.0
O642 O 0.37398 0.60256 0.71487 0.0
O643 O 0.33542 0.61377 0.77877 0.0
C644 C 0.30012 0.53275 0.67988 0.0
C645 C 0.31455 0.48754 0.79832 0.0
C646 C 0.27946 0.45275 0.82904 0.0
C647 C 0.30205 0.4756 0.86224 0.0
C648 C 0.26995 0.44213 0.73153 0.0
C649 C 0.3045 0.47632 0.70169 0.0
C650 C 0.28244 0.45381 0.66872 0.0
C651 C 0.34368 0.56792 0.93155 0.0
C652 C 0.33674 0.5119 0.83155 0.0
C653 C 0.4403 0.55524 0.6259 0.0
C654 C 0.45642 0.56968 0.71687 0.0
C655 C 0.3875 0.59555 0.75762 0.0
C656 C 0.3432 0.63165 0.93555 0.0
C657 C 0.33658 0.64679 0.91614 0.0
C658 C 0.32984 0.65731 0.98327 0.0
C659 C 0.32987 0.65266 0.07123 0.0
C660 C 0.34272 0.6268 0.02323 0.0
C661 C 0.33605 0.6373 0.09062 0.0
C662 C 0.34029 0.55911 0.57418 0.0
C663 C 0.35172 0.62222 0.86414 0.0
H664 H 0.30945 0.48417 0.93697 0.0
H665 H 0.253 0.4246 0.70375 0.0
H666 H 0.31356 0.48498 0.65139 0.0
H667 H 0.2749 0.44538 0.59391 0.0
H668 H 0.33724 0.6508 0.84898 0.0
H669 H 0.32485 0.66072 0.12421 0.0
H670 H 0.34769 0.61513 0.04004 0.0
H671 H 0.33583 0.63361 0.15827 0.0
Tb672 Tb 0.63015 0.71553 0.90676 0.0
C673 C 0.69284 0.81242 0.07385 0.0
C674 C 0.68871 0.82458 0.22675 0.0
C675 C 0.73273 0.84627 0.18918 0.0
C676 C 0.67733 0.80905 0.13721 0.0
C677 C 0.72059 0.83137 0.09807 0.0
C678 C 0.71678 0.84291 0.25343 0.0
C679 C 0.72109 0.82068 0.93773 0.0
N680 N 0.68005 0.79791 0.98617 0.0
C681 C 0.69342 0.80224 0.91705 0.0
C682 C 0.73489 0.83515 0.02904 0.0
Tb683 Tb 0.63482 0.76808 0.95917 0.0
N684 N 0.65033 0.79128 0.10822 0.0
C685 C 0.63263 0.7893 0.16194 0.0
C686 C 0.67119 0.82174 0.28481 0.0
C687 C 0.64288 0.80424 0.25142 0.0
H688 H 0.68326 0.79134 0.84605 0.0
H689 H 0.62894 0.80225 0.29453 0.0
H690 H 0.72605 0.85492 0.32233 0.0
H691 H 0.73176 0.82367 0.8832 0.0
H692 H 0.61074 0.77571 0.1366 0.0
H693 H 0.52764 0.63787 0.80749 0.0
H694 H 0.67908 0.83333 0.35405 0.0
H695 H 0.68551 0.73757 0.09633 0.0
H696 H 0.5645 0.67401 0.79043 0.0
H697 H 0.69903 0.72648 0.23126 0.0
H698 H 0.75411 0.8608 0.20953 0.0
H699 H 0.53652 0.62481 0.94368 0.0
H700 H 0.5703 0.63101 0.09104 0.0
H701 H 0.75627 0.84945 0.04478 0.0
H702 H 0.61735 0.65459 0.20397 0.0
N703 N 0.59397 0.682 0.91861 0.0
C704 C 0.5686 0.66879 0.85165 0.0
C705 C 0.5528 0.64077 0.93723 0.0
C706 C 0.57911 0.65381 0.00355 0.0
C707 C 0.54768 0.64817 0.86032 0.0
C708 C 0.59955 0.67441 -0.00853 0.0
H709 H 0.66554 0.69011 0.25633 0.0
N710 N 0.64484 0.70711 0.03885 0.0
C711 C 0.67852 0.71516 0.18107 0.0
C712 C 0.62613 0.68724 0.05298 0.0
C713 C 0.6708 0.72122 0.10278 0.0
C714 C 0.65956 0.69464 0.19511 0.0
C715 C 0.63288 0.68048 0.13124 0.0
O716 O 0.65538 0.70776 0.84793 0.0
O717 O 0.65784 0.75218 0.94237 0.0
O718 O 0.63731 0.75922 0.8151 0.0
O719 O 0.61029 0.72091 0.78592 0.0
O720 O 0.67534 0.7345 0.93159 0.0
O721 O 0.61185 0.69092 0.77581 0.0
O722 O 0.63255 0.78744 0.8698 0.0
O723 O 0.60783 0.73155 0.90459 0.0
O724 O 0.62112 0.72119 0.0396 0.0
O725 O 0.64361 0.76001 0.09211 0.0
O726 O 0.59128 0.74621 0.96843 0.0
O727 O 0.60464 0.77616 0.95468 0.0
C728 C 0.68165 0.75452 0.9494 0.0
C729 C 0.63257 0.67067 0.75757 0.0
C730 C 0.63702 0.64359 0.65897 0.0
C731 C 0.63779 0.66342 0.67546 0.0
C732 C 0.63065 0.63101 0.72497 0.0
C733 C 0.62709 0.6582 0.82359 0.0
C734 C 0.62576 0.63834 0.80684 0.0
C735 C 0.6229 0.73897 0.7558 0.0
C736 C 0.63474 0.69195 0.77646 0.0
C737 C 0.61257 0.6601 0.14438 0.0
C738 C 0.58574 0.64675 0.08044 0.0
C739 C 0.58533 0.72713 0.92363 0.0
C740 C 0.61761 0.81124 0.92408 0.0
C741 C 0.59497 0.81415 0.91895 0.0
C742 C 0.60031 0.83606 0.94341 0.0
C743 C 0.62832 0.85454 0.97107 0.0
C744 C 0.64508 0.83045 0.95354 0.0
C745 C 0.65028 0.85176 0.97605 0.0
C746 C 0.63156 0.73984 0.10639 0.0
C747 C 0.61322 0.78859 0.89794 0.0
H748 H 0.64266 0.67326 0.62509 0.0
H749 H 0.6303 0.61585 0.71471 0.0
H750 H 0.62448 0.66398 0.88897 0.0
H751 H 0.62149 0.62885 0.85839 0.0
H752 H 0.57362 0.79959 0.89791 0.0
H753 H 0.63332 0.87141 -0.00967 0.0
H754 H 0.66277 0.82907 0.95893 0.0
H755 H 0.67164 0.86632 -0.00171 0.0
H756 H 0.14978 0.35837 0.96943 0.0
H757 H 0.20908 0.36305 0.20285 0.0
H758 H 0.24816 0.39357 0.16015 0.0
H759 H 0.19121 0.36764 0.80602 0.0
H760 H 0.18024 0.38346 0.75325 0.0
H761 H 0.15736 0.36239 0.8039 0.0
H762 H 0.15423 0.39189 0.91116 0.0
H763 H 0.17731 0.4131 0.8614 0.0
H764 H 0.1859 0.41718 0.98746 0.0
H765 H 0.281 0.42478 0.09239 0.0
H766 H 0.30426 0.45046 -0.00344 0.0
H767 H 0.22315 0.42448 0.80664 0.0
C768 C 0.17099 0.36585 0.01181 0.0
C769 C 0.17632 0.35834 0.08989 0.0
C770 C 0.20445 0.36837 0.14241 0.0
C771 C 0.22677 0.38586 0.11907 0.0
C772 C 0.22072 0.39305 0.0424 0.0
C773 C 0.19347 0.38312 0.98894 0.0
C774 C 0.19246 0.39332 0.90814 0.0
C775 C 0.17956 0.37565 0.81216 0.0
C776 C 0.17653 0.40454 0.91766 0.0
C777 C 0.22338 0.41055 0.92413 0.0
C778 C 0.23941 0.41038 0.00249 0.0
C779 C 0.26857 0.42496 0.03081 0.0
C780 C 0.28163 0.43963 0.97641 0.0
C781 C 0.2656 0.43948 0.8939 0.0
C782 C 0.23605 0.42492 0.86889 0.0
H783 H 0.83015 0.78827 0.87637 0.0
H784 H 0.86931 0.82636 0.17054 0.0
H785 H 0.82409 0.82005 0.18427 0.0
H786 H 0.78106 0.805 0.8157 0.0
H787 H 0.75432 0.77734 0.74139 0.0
H788 H 0.79066 0.78745 0.75909 0.0
H789 H 0.7791 0.75175 0.81323 0.0
H790 H 0.74345 0.74319 0.79962 0.0
H791 H 0.76452 0.74683 0.91169 0.0
H792 H 0.77084 0.8073 0.16459 0.0
H793 H 0.71907 0.78788 0.11782 0.0
H794 H 0.71523 0.75941 0.83603 0.0
C795 C 0.82937 0.79554 0.94363 0.0
C796 C 0.85422 0.80877 0.02136 0.0
C797 C 0.85137 0.81699 0.1086 0.0
C798 C 0.82545 0.81335 0.11705 0.0
C799 C 0.8017 0.80102 0.03805 0.0
C800 C 0.80356 0.79208 0.95303 0.0
C801 C 0.7748 0.77822 0.87989 0.0
C802 C 0.7753 0.78758 0.79396 0.0
C803 C 0.76488 0.75354 0.84932 0.0
C804 C 0.75649 0.78108 0.93544 0.0
C805 C 0.77216 0.79417 0.02693 0.0
C806 C 0.75884 0.79751 0.09219 0.0
C807 C 0.72918 0.78677 0.06445 0.0
C808 C 0.71252 0.77316 0.9709 0.0
C809 C 0.72705 0.77075 0.90638 0.0
H810 H 0.36531 0.99059 0.12455 0.0
H811 H 0.3109 0.96627 0.84066 0.0
H812 H 0.33231 0.94633 0.78826 0.0
H813 H 0.42563 1.00067 0.06607 0.0
H814 H 0.43668 0.99122 0.15827 0.0
H815 H 0.41568 1.00203 0.17395 0.0
H816 H 0.37881 0.96533 0.20601 0.0
H817 H 0.39988 0.9545 0.19131 0.0
H818 H 0.36393 0.93889 0.12091 0.0
H819 H 0.36521 0.93287 0.76406 0.0
H820 H 0.40083 0.92368 0.77644 0.0
H821 H 0.43069 0.95447 0.07827 0.0
C822 C 0.35738 0.98058 0.05185 0.0
C823 C 0.33608 0.9798 0.98697 0.0
C824 C 0.32674 0.96681 0.8921 0.0
C825 C 0.33902 0.95557 0.86161 0.0
C826 C 0.36044 0.9571 0.92699 0.0
C827 C 0.36903 0.96891 0.02083 0.0
C828 C 0.39249 0.96822 0.07744 0.0
C829 C 0.41919 0.99194 0.1215 0.0
C830 C 0.38322 0.95601 0.15342 0.0
C831 C 0.39639 0.95473 0.00092 0.0
C832 C 0.3779 0.9485 0.91419 0.0
C833 C 0.37917 0.93721 0.83235 0.0
C834 C 0.39934 0.93185 0.83989 0.0
C835 C 0.41769 0.93733 0.92891 0.0
C836 C 0.41627 0.94926 0.00967 0.0
H837 H 0.44198 0.1523 0.2672 0.0
H838 H 0.43123 0.15952 0.98432 0.0
H839 H 0.37981 0.13302 0.95054 0.0
H840 H 0.39098 0.09502 0.2118 0.0
H841 H 0.37838 0.09562 0.31408 0.0
H842 H 0.41365 0.11715 0.3196 0.0
H843 H 0.40465 0.14766 0.37102 0.0
H844 H 0.36944 0.12624 0.36734 0.0
H845 H 0.37533 0.14609 0.30004 0.0
H846 H 0.32677 0.09919 0.94151 0.0
H847 H 0.28276 0.06921 0.9659 0.0
H848 H 0.32678 0.08511 0.25768 0.0
C849 C 0.42882 0.14945 0.19964 0.0
C850 C 0.44184 0.15985 0.13086 0.0
C851 C 0.42286 0.15353 0.04129 0.0
C852 C 0.39317 0.13783 0.02074 0.0
C853 C 0.38141 0.12771 0.0896 0.0
C854 C 0.39892 0.13388 0.17849 0.0
C855 C 0.3815 0.12027 0.24011 0.0
C856 C 0.39175 0.10619 0.27339 0.0
C857 C 0.38282 0.136 0.32469 0.0
C858 C 0.35158 0.1051 0.17256 0.0
C859 C 0.35185 0.10948 0.08546 0.0
C860 C 0.32679 0.09643 0.0108 0.0
C861 C 0.30138 0.07926 0.02549 0.0
C862 C 0.2999 0.07492 0.11518 0.0
C863 C 0.32611 0.0881 0.18869 0.0
H864 H 0.96004 0.29933 0.07588 0.0
H865 H 0.96575 0.30767 0.37336 0.0
H866 H 0.98455 0.28413 0.37903 0.0
H867 H 0.94327 0.24188 0.01548 0.0
H868 H 0.96519 0.24715 0.93717 0.0
H869 H 0.94896 0.26226 0.95151 0.0
H870 H 0.99667 0.30014 0.00073 0.0
H871 H 1.01353 0.28569 0.98385 0.0
H872 H 1.02459 0.30549 0.09573 0.0
H873 H 1.00666 0.26117 0.35294 0.0
H874 H 1.03129 0.24413 0.30129 0.0
H875 H 1.01438 0.25294 0.02351 0.0
C876 C 0.96414 0.2954 0.14135 0.0
C877 C 0.95937 0.30418 0.2228 0.0
C878 C 0.96724 0.3 0.30851 0.0
C879 C 0.97836 0.28682 0.31251 0.0
C880 C 0.98256 0.27828 0.23072 0.0
C881 C 0.97576 0.28258 0.14673 0.0
C882 C 0.9847 0.27339 0.07095 0.0
C883 C 0.95902 0.25508 0.98885 0.0
C884 C 1.00614 0.29231 0.03577 0.0
C885 C 0.99804 0.26358 0.1252 0.0
C886 C 0.99626 0.26623 0.21704 0.0
C887 C 1.00786 0.25896 0.28086 0.0
C888 C 1.02183 0.24916 0.25088 0.0
C889 C 1.0244 0.24659 0.15763 0.0
C890 C 1.01224 0.25404 0.09456 0.0
H891 H 0.86341 0.6678 0.95182 0.0
H892 H 0.87929 0.70473 0.23555 0.0
H893 H 0.85797 0.66909 0.28157 0.0
H894 H 0.79665 0.61713 0.93845 0.0
H895 H 0.80343 0.59874 0.87128 0.0
H896 H 0.81893 0.62693 0.86206 0.0
H897 H 0.86793 0.63383 0.90813 0.0
H898 H 0.85246 0.60572 0.91868 0.0
H899 H 0.87939 0.62916 0.01694 0.0
H900 H 0.83459 0.62639 0.29695 0.0
H901 H 0.81015 0.58537 0.27451 0.0
H902 H 0.81022 0.57645 0.98163 0.0
C903 C 0.86249 0.66869 0.0241 0.0
C904 C 0.87364 0.69006 0.08951 0.0
C905 C 0.87103 0.68929 0.18246 0.0
C906 C 0.85905 0.66882 0.20967 0.0
C907 C 0.84918 0.64841 0.14397 0.0
C908 C 0.85058 0.64835 0.05231 0.0
C909 C 0.83845 0.6244 -0.00627 0.0
C910 C 0.81285 0.61632 0.9115 0.0
C911 C 0.86089 0.62322 0.95717 0.0
C912 C 0.8299 0.61076 0.06567 0.0
C913 C 0.83639 0.62485 0.15252 0.0
C914 C 0.82991 0.61565 0.22885 0.0
C915 C 0.81624 0.59204 0.21593 0.0
C916 C 0.80907 0.57702 0.12748 0.0
C917 C 0.81619 0.58705 0.0517 0.0
H918 H 0.26078 0.51158 0.50709 0.0
H919 H 0.26914 0.52361 0.80691 0.0
H920 H 0.2176 0.49805 0.77294 0.0
H921 H 0.19291 0.50658 0.43345 0.0
H922 H 0.18127 0.48522 0.32645 0.0
H923 H 0.2181 0.50649 0.3782 0.0
H924 H 0.22658 0.47493 0.38003 0.0
H925 H 0.18966 0.45388 0.3319 0.0
H926 H 0.20854 0.45457 0.4419 0.0
H927 H 0.16412 0.46769 0.70262 0.0
H928 H 0.11614 0.43676 0.60609 0.0
H929 H 0.14286 0.44607 0.35191 0.0
C930 C 0.25164 0.50942 0.56548 0.0
C931 C 0.269 0.52039 0.65983 0.0
C932 C 0.25627 0.51619 0.73421 0.0
C933 C 0.22694 0.50149 0.71533 0.0
C934 C 0.21035 0.49096 0.62132 0.0
C935 C 0.22237 0.49498 0.54765 0.0
C936 C 0.20031 0.48076 0.45298 0.0
C937 C 0.19803 0.49566 0.3943 0.0
C938 C 0.20666 0.46511 0.39854 0.0
C939 C 0.17407 0.46764 0.4844 0.0
C940 C 0.18013 0.47377 0.58169 0.0
C941 C 0.15924 0.46304 0.62632 0.0
C942 C 0.13182 0.44548 0.57059 0.0
C943 C 0.12516 0.43852 0.47054 0.0
C944 C 0.14682 0.4504 0.4279 0.0
H945 H 0.60884 0.60157 0.54045 0.0
H946 H 0.68163 0.66899 0.59297 0.0
H947 H 0.69696 0.6553 0.46917 0.0
H948 H 0.64261 0.57488 0.51739 0.0
H949 H 0.61418 0.55051 0.42562 0.0
H950 H 0.60701 0.56616 0.5077 0.0
H951 H 0.58031 0.5715 0.36867 0.0
H952 H 0.5872 0.55566 0.28587 0.0
H953 H 0.59746 0.58348 0.28253 0.0
H954 H 0.70729 0.63302 0.35462 0.0
H955 H 0.70989 0.60453 0.25189 0.0
H956 H 0.6303 0.55223 0.27796 0.0
C957 C 0.62772 0.61352 0.52455 0.0
C958 C 0.64406 0.63629 0.57587 0.0
C959 C 0.66865 0.65148 0.55339 0.0
C960 C 0.67756 0.64384 0.48359 0.0
C961 C 0.66142 0.62106 0.43655 0.0
C962 C 0.63681 0.6062 0.45535 0.0
C963 C 0.62415 0.58238 0.40015 0.0
C964 C 0.62187 0.56763 0.4667 0.0
C965 C 0.59559 0.57269 0.33013 0.0
C966 C 0.64588 0.58601 0.34928 0.0
C967 C 0.66718 0.6084 0.37047 0.0
C968 C 0.69047 0.61549 0.33624 0.0
C969 C 0.69189 0.59923 0.27865 0.0
C970 C 0.67012 0.57625 0.25611 0.0
C971 C 0.64688 0.56972 0.29187 0.0
H972 H 0.56032 0.08445 0.38252 0.0
H973 H 0.49873 0.09564 0.4539 0.0
H974 H 0.49802 0.07844 0.58527 0.0
H975 H 0.53062 0.03092 0.42041 0.0
H976 H 0.56366 0.03488 0.46907 0.0
H977 H 0.56101 0.04973 0.38618 0.0
H978 H 0.60096 0.08748 0.50674 0.0
H979 H 0.60385 0.07273 0.58993 0.0
H980 H 0.59802 0.09438 0.62367 0.0
H981 H 0.50102 0.05662 0.70064 0.0
H982 H 0.5101 0.03488 0.79617 0.0
H983 H 0.56972 0.0382 0.64872 0.0
C984 C 0.54671 0.0834 0.42582 0.0
C985 C 0.52948 0.09139 0.4071 0.0
C986 C 0.51237 0.08992 0.46694 0.0
C987 C 0.51167 0.07999 0.54146 0.0
C988 C 0.52831 0.0717 0.55588 0.0
C989 C 0.54575 0.07355 0.50022 0.0
C990 C 0.56109 0.06286 0.5285 0.0
C991 C 0.55364 0.04345 0.44615 0.0
C992 C 0.59287 0.08041 0.56436 0.0
C993 C 0.54931 0.05439 0.60799 0.0
C994 C 0.53039 0.0596 0.62276 0.0
C995 C 0.516 0.05266 0.69007 0.0
C996 C 0.52116 0.04021 0.74366 0.0
C997 C 0.54074 0.03494 0.73043 0.0
C998 C 0.55497 0.04224 0.66163 0.0
H999 H 0.16265 0.13782 0.26386 0.0
H1000 H 0.14483 0.11328 0.9618 0.0
H1001 H 0.12053 0.13239 0.93494 0.0
H1002 H 0.09604 0.13297 0.25752 0.0
H1003 H 0.11284 0.15789 0.35434 0.0
H1004 H 0.12678 0.14097 0.34694 0.0
H1005 H 0.17468 0.17586 0.35598 0.0
H1006 H 0.16087 0.19288 0.35942 0.0
H1007 H 0.1773 0.19104 0.26906 0.0
H1008 H 0.1009 0.15772 0.94379 0.0
H1009 H 0.0833 0.18134 0.9863 0.0
H1010 H 0.11309 0.18839 0.28244 0.0
C1011 C 0.15293 0.1359 0.19182 0.0
C1012 C 0.15537 0.12356 0.11482 0.0
C1013 C 0.1428 0.12205 0.02199 0.0
C1014 C 0.12923 0.13317 0.00624 0.0
C1015 C 0.12803 0.14577 0.08395 0.0
C1016 C 0.13908 0.1467 0.17501 0.0
C1017 C 0.13526 0.16131 0.24694 0.0
C1018 C 0.11662 0.14746 0.30485 0.0
C1019 C 0.16372 0.18147 0.31168 0.0
C1020 C 0.12062 0.16875 0.18288 0.0
C1021 C 0.11677 0.15981 0.08891 0.0
C1022 C 0.10387 0.16465 0.01733 0.0
C1023 C 0.09415 0.17835 0.0421 0.0
C1024 C 0.09732 0.18729 0.1379 0.0
C1025 C 0.11077 0.18225 0.20864 0.0
H1026 H 0.9811 0.98056 0.87491 0.0
H1027 H 0.98944 0.98311 0.17148 0.0
H1028 H 0.98729 1.01638 0.19817 0.0
H1029 H 1.02209 0.04034 0.90502 0.0
H1030 H 0.99964 0.03868 0.80149 0.0
H1031 H 1.00267 1.01551 0.80651 0.0
H1032 H 0.94888 0.98906 0.77213 0.0
H1033 H 0.9457 1.01216 0.76718 0.0
H1034 H 0.93155 0.99578 0.84733 0.0
H1035 H 0.9852 0.05004 0.19299 0.0
H1036 H 0.98037 0.07989 0.15442 0.0
H1037 H 0.97126 0.05452 0.85989 0.0
C1038 C 0.98269 0.98825 0.9456 0.0
C1039 C 0.98558 0.97929 0.02131 0.0
C1040 C 0.98711 0.98961 0.11242 0.0
C1041 C 0.98602 1.00858 0.12829 0.0
C1042 C 0.98311 1.01696 0.05215 0.0
C1043 C 0.98124 1.00702 0.96241 0.0
C1044 C 0.97727 1.01889 0.89217 0.0
C1045 C 1.00189 0.02895 0.84875 0.0
C1046 C 0.94918 1.00303 0.81516 0.0
C1047 C 0.97724 0.03708 0.95633 0.0
C1048 C 0.98092 0.03581 0.04854 0.0
C1049 C 0.9822 0.05111 0.12092 0.0
C1050 C 0.97955 0.06807 0.09845 0.0
C1051 C 0.97531 0.0695 0.00418 0.0
C1052 C 0.97414 0.05371 0.93242 0.0
H1053 H 1.03505 0.90418 0.2189 0.0
H1054 H 0.99559 0.86713 0.92405 0.0
H1055 H 0.03803 0.89519 0.88517 0.0
H1056 H 0.07061 0.95964 0.18668 0.0
H1057 H 0.1018 0.97128 0.28189 0.0
H1058 H 0.06881 0.94795 0.28567 0.0
H1059 H 0.09094 0.92592 0.30695 0.0
H1060 H 0.124 0.94853 0.29953 0.0
H1061 H 0.10653 0.92095 0.21983 0.0
H1062 H 0.08615 0.93245 0.87801 0.0
H1063 H 0.13167 0.96829 0.90443 0.0
H1064 H 0.14337 0.98036 0.20566 0.0
C1065 C 1.03539 0.90148 0.14593 0.0
C1066 C 1.01091 0.88229 0.07498 0.0
C1067 C 1.01325 0.88062 0.98097 0.0
C1068 C 0.03767 0.897 0.95817 0.0
C1069 C 0.06096 0.91567 0.02954 0.0
C1070 C 0.06002 0.91766 0.12226 0.0
C1071 C 0.08775 0.93921 0.18664 0.0
C1072 C 0.08189 0.95548 0.23832 0.0
C1073 C 0.10325 0.93332 0.25752 0.0
C1074 C 0.10465 0.94923 0.11685 0.0
C1075 C 0.08857 0.93555 0.02607 0.0
C1076 C 0.0988 0.94248 0.94962 0.0
C1077 C 0.12537 0.96311 0.96547 0.0
C1078 C 0.14349 0.97722 0.05752 0.0
C1079 C 0.13189 0.96988 0.134 0.0
H1080 H 0.88038 0.44619 0.07882 0.0
H1081 H 0.85837 0.45316 0.34 0.0
H1082 H 0.86775 0.42545 0.37931 0.0
H1083 H 0.85059 0.38564 0.03157 0.0
H1084 H 0.87791 0.38814 0.98196 0.0
H1085 H 0.86728 0.40708 0.97292 0.0
H1086 H 0.91824 0.43963 0.04762 0.0
H1087 H 0.93002 0.42183 0.06802 0.0
H1088 H 0.93614 0.44331 0.1653 0.0
H1089 H 0.88071 0.39678 0.39088 0.0
H1090 H 0.89435 0.36978 0.37101 0.0
H1091 H 0.90988 0.3828 0.10605 0.0
C1092 C 0.8773 0.44183 0.14416 0.0
C1093 C 0.86861 0.45212 0.20638 0.0
C1094 C 0.86465 0.44552 0.29043 0.0
C1095 C 0.87017 0.42985 0.3137 0.0
C1096 C 0.87946 0.42058 0.252 0.0
C1097 C 0.88255 0.42612 0.16812 0.0
C1098 C 0.89289 0.41393 0.11383 0.0
C1099 C 0.87085 0.39774 0.01949 0.0
C1100 C 0.92101 0.43064 0.09778 0.0
C1101 C 0.89605 0.40116 0.18143 0.0
C1102 C 0.88784 0.40497 0.26027 0.0
C1103 C 0.88758 0.39406 0.33008 0.0
C1104 C 0.8957 0.37891 0.31889 0.0
C1105 C 0.90475 0.37508 0.23981 0.0
C1106 C 0.90437 0.38615 0.16955 0.0
H1107 H 0.69492 0.43445 0.98288 0.0
H1108 H 0.74347 0.46729 0.27607 0.0
H1109 H 0.7131 0.43234 0.31815 0.0
H1110 H 0.62554 0.39945 0.02119 0.0
H1111 H 0.61487 0.37627 0.92407 0.0
H1112 H 0.64037 0.40437 0.92302 0.0
H1113 H 0.67328 0.39136 0.89832 0.0
H1114 H 0.6479 0.36385 0.90603 0.0
H1115 H 0.68289 0.37994 0.98475 0.0
H1116 H 0.67581 0.39185 0.32836 0.0
H1117 H 0.6355 0.35303 0.30644 0.0
H1118 H 0.60991 0.34599 0.00747 0.0
C1119 C 0.69903 0.43437 0.05617 0.0
C1120 C 0.72163 0.45432 0.12654 0.0
C1121 C 0.72627 0.45282 0.22089 0.0
C1122 C 0.709 0.43278 0.24539 0.0
C1123 C 0.68674 0.41362 0.175 0.0
C1124 C 0.68168 0.41433 0.08203 0.0
C1125 C 0.65654 0.3913 0.0196 0.0
C1126 C 0.63296 0.39299 0.96898 0.0
C1127 C 0.6657 0.38101 0.94791 0.0
C1128 C 0.64762 0.3778 0.09176 0.0
C1129 C 0.66565 0.39082 0.18095 0.0
C1130 C 0.6617 0.38174 0.2584 0.0
C1131 C 0.63868 0.35937 0.24522 0.0
C1132 C 0.61901 0.34579 0.15529 0.0
C1133 C 0.62421 0.35548 0.07766 0.0
H1134 H 0.60077 0.21909 0.03292 0.0
H1135 H 0.60581 0.23081 0.33057 0.0
H1136 H 0.65616 0.24468 0.36966 0.0
H1137 H 0.64835 0.2 0.04465 0.0
H1138 H 0.66244 0.21275 0.95519 0.0
H1139 H 0.62708 0.20317 0.95494 0.0
H1140 H 0.63941 0.24302 0.95715 0.0
H1141 H 0.675 0.25266 0.96113 0.0
H1142 H 0.66792 0.2667 0.05146 0.0
H1143 H 0.70843 0.25939 0.37489 0.0
H1144 H 0.75352 0.26899 0.34517 0.0
H1145 H 0.71381 0.24687 0.04368 0.0
C1146 C 0.61235 0.22415 0.10632 0.0
C1147 C 0.59887 0.22314 0.17854 0.0
C1148 C 0.61521 0.23068 0.27376 0.0
C1149 C 0.64401 0.23879 0.29654 0.0
C1150 C 0.65665 0.23952 0.22359 0.0
C1151 C 0.64106 0.23203 0.13015 0.0
C1152 C 0.65931 0.2343 0.06448 0.0
C1153 C 0.64865 0.21118 0.00104 0.0
C1154 C 0.66047 0.25011 0.00504 0.0
C1155 C 0.68773 0.24449 0.13491 0.0
C1156 C 0.68594 0.24754 0.22657 0.0
C1157 C 0.70977 0.25689 0.30307 0.0
C1158 C 0.73558 0.26257 0.28559 0.0
C1159 C 0.73779 0.25883 0.19213 0.0
C1160 C 0.71327 0.24996 0.11634 0.0
H1161 H 0.55718 0.83002 0.79925 0.0
H1162 H 0.59571 0.85584 0.10194 0.0
H1163 H 0.56855 0.87246 0.11662 0.0
H1164 H 0.55558 0.87699 0.76665 0.0
H1165 H 0.52191 0.861 0.67958 0.0
H1166 H 0.54322 0.85 0.69149 0.0
H1167 H 0.5028 0.81419 0.71771 0.0
H1168 H 0.48126 0.82495 0.70415 0.0
H1169 H 0.48705 0.81672 0.80915 0.0
H1170 H 0.5396 0.88926 0.09794 0.0
H1171 H 0.50641 0.89967 0.04944 0.0
H1172 H 0.4842 0.86215 0.76054 0.0
C1173 C 0.5592 0.83854 0.86891 0.0
C1174 C 0.57844 0.84113 0.94991 0.0
C1175 C 0.58092 0.85317 0.03908 0.0
C1176 C 0.56571 0.86292 0.04804 0.0
C1177 C 0.54761 0.86064 0.96717 0.0
C1178 C 0.54381 0.84835 0.87936 0.0
C1179 C 0.5229 0.84855 0.80401 0.0
C1180 C 0.53674 0.8598 0.7311 0.0
C1181 C 0.49696 0.82468 0.75591 0.0
C1182 C 0.5156 0.86274 0.86301 0.0
C1183 C 0.53046 0.86985 0.95687 0.0
C1184 C 0.52777 0.88358 0.02453 0.0
C1185 C 0.50898 0.88968 -0.00371 0.0
C1186 C 0.49283 0.88215 0.90105 0.0
C1187 C 0.49641 0.86847 0.83386 0.0
H1188 H 0.35637 0.70131 0.07969 0.0
H1189 H 0.29003 0.64973 0.83265 0.0
H1190 H 0.2828 0.67756 0.78246 0.0
H1191 H 0.32564 0.7337 0.12233 0.0
H1192 H 0.35905 0.7602 0.15618 0.0
H1193 H 0.35701 0.73578 0.1773 0.0
H1194 H 0.39292 0.74184 0.0836 0.0
H1195 H 0.39481 0.76609 0.06119 0.0
H1196 H 0.38582 0.74344 0.96384 0.0
H1197 H 0.28454 0.7111 0.75466 0.0
H1198 H 0.29484 0.74837 0.7513 0.0
H1199 H 0.36101 0.77855 0.01422 0.0
C1200 C 0.33988 0.69587 0.0164 0.0
C1201 C 0.32346 0.67343 0.9604 0.0
C1202 C 0.30261 0.66688 0.87653 0.0
C1203 C 0.29839 0.68254 0.84759 0.0
C1204 C 0.31534 0.70467 0.90312 0.0
C1205 C 0.33563 0.71137 0.98588 0.0
C1206 C 0.35211 0.73643 0.02932 0.0
C1207 C 0.34821 0.74184 0.12708 0.0
C1208 C 0.38326 0.7476 0.03476 0.0
C1209 C 0.33809 0.74278 0.95761 0.0
C1210 C 0.31681 0.72417 0.88581 0.0
C1211 C 0.30101 0.72579 0.81084 0.0
C1212 C 0.30698 0.74699 0.80961 0.0
C1213 C 0.32866 0.7663 0.88253 0.0
C1214 C 0.34446 0.7641 0.95716 0.0
H1215 H 0.54089 0.69765 0.76085 0.0
H1216 H 0.56592 0.70908 0.06311 0.0
H1217 H 0.52041 0.67509 0.05294 0.0
H1218 H 0.47017 0.68027 0.75265 0.0
H1219 H 0.45415 0.66001 0.63861 0.0
H1220 H 0.48973 0.68389 0.66732 0.0
H1221 H 0.50715 0.65777 0.63246 0.0
H1222 H 0.47087 0.63471 0.59727 0.0
H1223 H 0.49583 0.63482 0.6849 0.0
H1224 H 0.46982 0.64111 0.01151 0.0
H1225 H 0.41951 0.61096 0.94298 0.0
H1226 H 0.42586 0.61983 0.66563 0.0
C1227 C 0.53704 0.69253 0.82434 0.0
C1228 C 0.55824 0.70518 0.91255 0.0
C1229 C 0.55128 0.69878 -0.0056 0.0
C1230 C 0.52511 0.6796 0.98917 0.0
C1231 C 0.5051 0.66703 0.90129 0.0
C1232 C 0.51064 0.67331 0.8201 0.0
C1233 C 0.48449 0.6579 0.73583 0.0
C1234 C 0.47402 0.67132 0.69628 0.0
C1235 C 0.48998 0.64561 0.65818 0.0
C1236 C 0.46383 0.64162 0.78164 0.0
C1237 C 0.47606 0.64739 0.87746 0.0
C1238 C 0.46043 0.63606 0.93603 0.0
C1239 C 0.43182 0.61854 0.89617 0.0
C1240 C 0.41887 0.61166 0.79773 0.0
C1241 C 0.43533 0.62373 0.74038 0.0
H1242 H 0.04777 0.18978 0.80288 0.0
H1243 H 0.04996 0.24988 0.89944 0.0
H1244 H 0.05205 0.25701 0.7439 0.0
H1245 H 0.09598 0.21106 0.68054 0.0
H1246 H 0.07942 0.18668 0.58122 0.0
H1247 H 0.07309 0.18356 0.6939 0.0
H1248 H 1.01957 0.1621 0.61844 0.0
H1249 H 1.02564 0.16445 0.50468 0.0
H1250 H 1.00606 0.17438 0.54919 0.0
H1251 H 0.06285 0.26163 0.59315 0.0
H1252 H 0.07207 0.25932 0.43761 0.0
H1253 H 0.06061 0.19539 0.43278 0.0
C1254 C 0.04745 0.20383 0.78938 0.0
C1255 C 0.04875 0.21933 0.86208 0.0
C1256 C 0.04907 0.23792 0.84384 0.0
C1257 C 0.05029 0.24213 0.75607 0.0
C1258 C 0.05079 0.22738 0.68729 0.0
C1259 C 0.04858 0.20826 0.70149 0.0
C1260 C 0.05132 0.19602 0.61706 0.0
C1261 C 0.07645 0.19424 0.64489 0.0
C1262 C 1.02402 0.17287 0.56952 0.0
C1263 C 0.05638 0.2117 0.55535 0.0
C1264 C 0.05613 0.22972 0.59759 0.0
C1265 C 0.06235 0.24731 0.55781 0.0
C1266 C 0.06786 0.24598 0.47018 0.0
C1267 C 0.06658 0.22703 0.42327 0.0
C1268 C 0.06129 0.2099 0.46708 0.0
H1269 H 0.9098 0.84906 0.72968 0.0
H1270 H 0.96772 0.83027 0.80827 0.0
H1271 H 0.9802 0.83406 0.66006 0.0
H1272 H 0.88364 0.81817 0.49073 0.0
H1273 H 0.88007 0.8383 0.44474 0.0
H1274 H 0.87793 0.83672 0.56263 0.0
H1275 H 0.91806 0.87894 0.62936 0.0
H1276 H 0.91985 0.8804 0.51094 0.0
H1277 H 0.95078 0.88914 0.60131 0.0
H1278 H 0.98462 0.83748 0.50384 0.0
H1279 H 0.9779 0.83733 0.33684 0.0
H1280 H 0.9156 0.85227 0.35269 0.0
C1281 C 0.9252 0.84593 0.71539 0.0
C1282 C 0.93747 0.83897 0.77885 0.0
C1283 C 0.95745 0.83487 0.75866 0.0
C1284 C 0.96511 0.83744 0.67565 0.0
C1285 C 0.95248 0.84405 0.61366 0.0
C1286 C 0.93276 0.84804 0.63149 0.0
C1287 C 0.92048 0.85276 0.54801 0.0
C1288 C 0.88865 0.83545 0.50924 0.0
C1289 C 0.92775 0.87675 0.574 0.0
C1290 C 0.93582 0.85007 0.48007 0.0
C1291 C 0.95463 0.84559 0.52062 0.0
C1292 C 0.97021 0.84121 0.47108 0.0
C1293 C 0.96611 0.84102 0.3763 0.0
C1294 C 0.94638 0.84494 0.3325 0.0
C1295 C 0.93133 0.84981 0.38526 0.0
H1296 H 0.24732 1.02644 0.80528 0.0
H1297 H 0.1617 1.00658 0.77357 0.0
H1298 H 0.1556 1.00535 0.60478 0.0
H1299 H 0.26276 0.06293 0.66241 0.0
H1300 H 0.28428 0.05639 0.61038 0.0
H1301 H 0.28131 0.05329 0.72631 0.0
H1302 H 0.26494 1.01197 0.67106 0.0
H1303 H 0.26768 1.01465 0.55438 0.0
H1304 H 0.23511 0.99316 0.56949 0.0
H1305 H 0.16 1.01011 0.44832 0.0
H1306 H 0.1735 1.01846 0.30481 0.0
H1307 H 0.25626 0.0345 0.43206 0.0
C1308 C 0.2271 1.02127 0.76197 0.0
C1309 C 0.20487 1.01648 0.80163 0.0
C1310 C 0.17891 1.0103 0.74398 0.0
C1311 C 0.17525 1.00952 0.64829 0.0
C1312 C 0.19777 1.01492 0.61177 0.0
C1313 C 0.22314 1.02052 0.66622 0.0
C1314 C 0.2444 1.02699 0.61027 0.0
C1315 C 0.26968 0.05134 0.65501 0.0
C1316 C 0.25357 1.01072 0.6007 0.0
C1317 C 0.22705 1.0244 0.51619 0.0
C1318 C 0.20025 1.01742 0.51933 0.0
C1319 C 0.18074 1.01521 0.44425 0.0
C1320 C 0.18871 1.02012 0.36326 0.0
C1321 C 0.21582 1.02686 0.35711 0.0
C1322 C 0.23528 0.02901 0.43454 0.0
H1323 H 0.75946 0.53747 0.4617 0.0
H1324 H 0.79035 0.49576 0.39795 0.0
H1325 H 0.78174 0.48329 0.53964 0.0
H1326 H 0.79364 0.55548 0.71655 0.0
H1327 H 0.76604 0.55674 0.7492 0.0
H1328 H 0.77311 0.56158 0.63886 0.0
H1329 H 0.72117 0.53018 0.55092 0.0
H1330 H 0.71429 0.52484 0.66107 0.0
H1331 H 0.70668 0.50246 0.56528 0.0
H1332 H 0.76751 0.47322 0.68022 0.0
H1333 H 0.76007 0.47366 0.83848 0.0
H1334 H 0.7447 0.52536 0.82765 0.0
C1335 C 0.76465 0.52592 0.47843 0.0
C1336 C 0.7753 0.51745 0.41804 0.0
C1337 C 0.78221 0.50257 0.44284 0.0
C1338 C 0.77706 0.49509 0.5227 0.0
C1339 C 0.76577 0.50314 0.57904 0.0
C1340 C 0.76067 0.51887 0.56063 0.0
C1341 C 0.7513 0.52638 0.63931 0.0
C1342 C 0.77228 0.55153 0.68891 0.0
C1343 C 0.72159 0.52062 0.60186 0.0
C1344 C 0.75181 0.51223 0.70368 0.0
C1345 C 0.75947 0.49851 0.66567 0.0
C1346 C 0.76169 0.48398 0.71129 0.0
C1347 C 0.75738 0.48429 0.80077 0.0
C1348 C 0.75164 0.49937 0.84422 0.0
C1349 C 0.74809 0.51312 0.79436 0.0
H1350 H 0.51669 0.1729 0.42651 0.0
H1351 H 0.56713 0.24521 0.48552 0.0
H1352 H 0.57228 0.24867 0.65661 0.0
H1353 H 0.47839 0.17125 0.5883 0.0
H1354 H 0.47574 0.14768 0.62248 0.0
H1355 H 0.47905 0.15076 0.50683 0.0
H1356 H 0.52259 0.14898 0.5386 0.0
H1357 H 0.51951 0.146 0.65472 0.0
H1358 H 0.55179 0.16829 0.64146 0.0
H1359 H 0.57173 0.24424 0.8183 0.0
H1360 H 0.56025 0.233 0.96001 0.0
H1361 H 0.50564 0.16344 0.79622 0.0
C1362 C 0.5293 0.18946 0.47591 0.0
C1363 C 0.54206 0.20887 0.44384 0.0
C1364 C 0.55751 0.23024 0.50937 0.0
C1365 C 0.56064 0.2323 0.60632 0.0
C1366 C 0.54776 0.21282 0.63568 0.0
C1367 C 0.53204 0.19179 0.57244 0.0
C1368 C 0.51794 0.17363 0.6215 0.0
C1369 C 0.48588 0.16004 0.58245 0.0
C1370 C 0.5286 0.15832 0.61358 0.0
C1371 C 0.52785 0.18779 0.72229 0.0
C1372 C 0.54556 0.21028 0.7287 0.0
C1373 C 0.55757 0.22674 0.81381 0.0
C1374 C 0.55061 0.22016 0.89395 0.0
C1375 C 0.53117 0.19746 0.88842 0.0
C1376 C 0.52027 0.18094 0.80204 0.0
H1377 H 0.89378 0.32447 0.53323 0.0
H1378 H 0.97981 0.34623 0.55707 0.0
H1379 H 0.98549 0.34229 0.71854 0.0
H1380 H 0.90699 0.35498 0.75662 0.0
H1381 H 0.87525 0.3345 0.77966 0.0
H1382 H 0.876 0.33504 0.66005 0.0
H1383 H 0.8595 0.29335 0.61615 0.0
H1384 H 0.85855 0.29278 0.73596 0.0
H1385 H 0.8789 0.28483 0.68382 0.0
H1386 H 0.98404 0.34024 0.87823 0.0
H1387 H 0.97621 0.34218 0.03551 0.0
H1388 H 0.89185 0.32319 0.91309 0.0
C1389 C 0.91357 0.32797 0.57224 0.0
C1390 C 0.9364 0.33571 0.53403 0.0
C1391 C 0.96222 0.34053 0.58644 0.0
C1392 C 0.96553 0.33804 0.67735 0.0
C1393 C 0.94279 0.33071 0.71399 0.0
C1394 C 0.91734 0.32582 0.66369 0.0
C1395 C 0.89753 0.32097 0.72416 0.0
C1396 C 0.88843 0.33736 0.7305 0.0
C1397 C 0.87212 0.29652 0.68784 0.0
C1398 C 0.91641 0.32504 0.81729 0.0
C1399 C 0.94214 0.33005 0.80884 0.0
C1400 C 0.96393 0.33612 0.88593 0.0
C1401 C 0.95947 0.33754 0.97477 0.0
C1402 C 0.93364 0.33318 0.98496 0.0
C1403 C 0.91161 0.32632 0.90569 0.0
H1404 H 0.41735 0.90278 0.5629 0.0
H1405 H 0.48752 0.898 0.66037 0.0
H1406 H 0.49635 0.89826 0.50533 0.0
H1407 H 0.39459 0.86593 0.31647 0.0
H1408 H 0.38389 0.88189 0.26356 0.0
H1409 H 0.38152 0.87957 0.38092 0.0
H1410 H 0.4116 0.92283 0.44357 0.0
H1411 H 0.41454 0.92529 0.327 0.0
H1412 H 0.44566 0.93872 0.42462 0.0
H1413 H 0.50307 0.90583 0.35439 0.0
H1414 H 0.50122 0.91196 0.19642 0.0
H1415 H 0.42344 0.90708 0.18289 0.0
C1416 C 0.43411 0.90128 0.5504 0.0
C1417 C 0.45255 0.90133 0.62437 0.0
C1418 C 0.47409 0.89913 0.6059 0.0
C1419 C 0.47907 0.89898 0.51771 0.0
C1420 C 0.46173 0.90034 0.44778 0.0
C1421 C 0.43911 0.9007 0.46139 0.0
C1422 C 0.42411 0.90232 0.37309 0.0
C1423 C 0.39425 0.88117 0.331 0.0
C1424 C 0.42398 0.92356 0.39334 0.0
C1425 C 0.44262 0.90375 0.31007 0.0
C1426 C 0.4643 0.90277 0.35543 0.0
C1427 C 0.48573 0.9059 0.31645 0.0
C1428 C 0.48461 0.90954 0.22707 0.0
C1429 C 0.46191 0.90949 0.17707 0.0
C1430 C 0.44069 0.90666 0.21916 0.0
H1431 H 0.38 0.57301 0.09146 0.0
H1432 H 0.29391 0.55074 0.97169 0.0
H1433 H 0.28327 0.54246 0.11858 0.0
H1434 H 0.36355 0.53118 0.22797 0.0
H1435 H 0.39388 0.5506 0.3273 0.0
H1436 H 0.39492 0.55343 0.20966 0.0
H1437 H 0.40931 0.59434 0.26479 0.0
H1438 H 0.40854 0.59168 0.38251 0.0
H1439 H 0.38785 0.60005 0.32159 0.0
H1440 H 0.28227 0.53969 0.27849 0.0
H1441 H 0.29134 0.54308 0.44873 0.0
H1442 H 0.37732 0.5653 0.46991 0.0
C1443 C 0.35888 0.56618 0.09612 0.0
C1444 C 0.3379 0.56288 0.02057 0.0
C1445 C 0.31054 0.55401 0.02924 0.0
C1446 C 0.30414 0.54891 0.11205 0.0
C1447 C 0.32524 0.55254 0.18545 0.0
C1448 C 0.35206 0.56091 0.17885 0.0
C1449 C 0.37105 0.56437 0.27126 0.0
C1450 C 0.38147 0.54897 0.25823 0.0
C1451 C 0.39563 0.58908 0.31245 0.0
C1452 C 0.35083 0.55733 0.33122 0.0
C1453 C 0.32446 0.55033 0.2793 0.0
C1454 C 0.30263 0.54469 0.31961 0.0
C1455 C 0.30798 0.54668 0.41623 0.0
C1456 C 0.33487 0.55416 0.47134 0.0
C1457 C 0.35644 0.55905 0.42826 0.0
H1458 H 0.65139 0.77076 0.66532 0.0
H1459 H 0.58628 0.70039 0.61662 0.0
H1460 H 0.582 0.69406 0.44713 0.0
H1461 H 0.62123 0.77749 0.44553 0.0
H1462 H 0.65538 0.79606 0.43152 0.0
H1463 H 0.65131 0.79475 0.54782 0.0
H1464 H 0.68962 0.7863 0.57535 0.0
H1465 H 0.69198 0.78644 0.45644 0.0
H1466 H 0.68417 0.76221 0.49656 0.0
H1467 H 0.58635 0.69411 0.28986 0.0
H1468 H 0.59585 0.70073 0.14162 0.0
H1469 H 0.65775 0.77151 0.28236 0.0
C1470 C 0.63598 0.75413 0.6186 0.0
C1471 C 0.61917 0.73606 0.65397 0.0
C1472 C 0.59946 0.71446 0.59118 0.0
C1473 C 0.59683 0.71067 0.49473 0.0
C1474 C 0.61399 0.72865 0.46233 0.0
C1475 C 0.63303 0.74999 0.52142 0.0
C1476 C 0.64917 0.76605 0.46665 0.0
C1477 C 0.64391 0.78467 0.47322 0.0
C1478 C 0.6806 0.77582 0.50081 0.0
C1479 C 0.63603 0.75026 0.36759 0.0
C1480 C 0.61602 0.72881 0.36813 0.0
C1481 C 0.60166 0.71087 0.28787 0.0
C1482 C 0.60745 0.71492 0.20368 0.0
C1483 C 0.62726 0.7368 0.19928 0.0
C1484 C 0.64199 0.75474 0.28285 0.0
loop_
_geom_bond_atom_site_label_1
_geom_bond_atom_site_label_2
_geom_bond_distance
_geom_bond_site_symmetry_2
_ccdc_geom_bond_type
Tb0 N31 2.660 . S
Tb0 N38 2.600 . S
Tb0 O44 2.546 . S
Tb0 O45 2.610 . S
Tb0 O47 2.320 . S
Tb0 O48 2.552 . S
Tb0 O49 2.413 . S
Tb0 O51 2.362 . S
Tb0 O52 2.421 . S
Tb0 C64 2.833 . S
C1 C4 1.432 . S
C1 C5 1.414 1_554 S
C1 N8 1.359 . S
C2 C4 1.417 . S
C2 C6 1.432 . S
C2 C14 1.410 . S
C3 C5 1.444 1_554 S
C3 C6 1.317 . S
C3 H26 0.929 1_554 S
C4 C1 1.432 . S
C4 C2 1.417 . S
C4 N12 1.360 . S
C5 C1 1.414 1_556 S
C5 C3 1.444 1_556 S
C5 C10 1.385 . S
C6 C2 1.432 . S
C6 C3 1.317 . S
C6 H18 0.930 . S
C7 C9 1.392 . S
C7 C10 1.370 . S
C7 H19 0.931 . S
N8 C1 1.359 . S
N8 C9 1.327 1_554 S
N8 Tb11 2.600 1_655 S
C9 C7 1.392 . S
C9 N8 1.327 1_556 S
C9 H16 0.930 . S
C10 C5 1.385 . S
C10 C7 1.370 . S
C10 H29 0.930 . S
Tb11 N8 2.600 1_455 S
Tb11 N12 2.660 1_455 S
Tb11 O45 2.362 . S
Tb11 O46 2.421 . S
Tb11 O50 2.546 1_455 S
Tb11 O51 2.610 . S
Tb11 O53 2.320 . S
Tb11 O54 2.552 . S
Tb11 O55 2.413 1_455 S
Tb11 C75 2.833 1_455 S
N12 C4 1.360 . S
N12 Tb11 2.660 1_655 S
N12 C13 1.305 . S
C13 N12 1.305 . S
C13 C15 1.407 . S
C13 H20 0.930 . S
C14 C2 1.410 . S
C14 C15 1.345 . S
C14 H22 0.930 . S
C15 C13 1.407 . S
C15 C14 1.345 . S
C15 H17 0.930 . S
H16 C9 0.930 . S
H17 C15 0.930 . S
H18 C6 0.930 . S
H19 C7 0.931 . S
H20 C13 0.930 . S
H21 C35 0.930 . S
H22 C14 0.930 . S
H23 C41 0.930 . S
H24 C32 0.930 . S
H25 C39 0.931 . S
H26 C3 0.929 1_556 S
H27 C33 0.930 . S
H28 C66 0.930 . S
H29 C10 0.930 . S
H30 C65 0.929 . S
N31 Tb0 2.660 . S
N31 C32 1.305 . S
N31 C36 1.360 . S
C32 H24 0.930 . S
C32 N31 1.305 . S
C32 C35 1.407 . S
C33 H27 0.930 . S
C33 C34 1.410 . S
C33 C35 1.345 . S
C34 C33 1.410 . S
C34 C36 1.417 . S
C34 C66 1.432 . S
C35 H21 0.930 . S
C35 C32 1.407 . S
C35 C33 1.345 . S
C36 N31 1.360 . S
C36 C34 1.417 . S
C36 C40 1.432 . S
H37 C42 0.930 . S
N38 Tb0 2.600 . S
N38 C40 1.359 . S
N38 C41 1.327 . S
C39 H25 0.931 . S
C39 C41 1.392 . S
C39 C42 1.370 . S
C40 C36 1.432 . S
C40 N38 1.359 . S
C40 C43 1.414 . S
C41 H23 0.930 . S
C41 N38 1.327 . S
C41 C39 1.392 . S
C42 H37 0.930 . S
C42 C39 1.370 . S
C42 C43 1.385 . S
C43 C40 1.414 . S
C43 C42 1.385 . S
C43 C65 1.444 . S
O44 Tb0 2.546 . S
O44 C64 1.251 . S
O45 Tb0 2.610 . S
O45 Tb11 2.362 . S
O45 C56 1.283 . S
O46 Tb11 2.421 . S
O46 C63 1.262 . S
O47 Tb0 2.320 . S
O47 C63 1.260 . S
O48 Tb0 2.552 . S
O48 C56 1.243 . S
O49 Tb0 2.413 . S
O49 C64 1.256 . S
O50 Tb11 2.546 1_655 S
O50 C75 1.251 . S
O51 Tb0 2.362 . S
O51 Tb11 2.610 . S
O51 C67 1.283 . S
O52 Tb0 2.421 . S
O52 C74 1.262 . S
O53 Tb11 2.320 . S
O53 C74 1.260 . S
O54 Tb11 2.552 . S
O54 C67 1.243 . S
O55 Tb11 2.413 1_655 S
O55 C75 1.256 . S
C56 O45 1.283 . S
C56 O48 1.243 . S
C57 C59 1.382 . S
C57 C61 1.393 . S
C57 C64 1.500 . S
C58 C59 1.400 . S
C58 C60 1.384 . S
C59 C57 1.382 . S
C59 C58 1.400 . S
C59 H76 0.930 . S
C60 C58 1.384 . S
C60 C62 1.392 . S
C60 H77 0.931 . S
C61 C57 1.393 . S
C61 C62 1.401 . S
C61 H78 0.930 . S
C62 C60 1.392 . S
C62 C61 1.401 . S
C62 H79 0.930 . S
C63 O46 1.262 . S
C63 O47 1.260 . S
C64 Tb0 2.833 . S
C64 O44 1.251 . S
C64 O49 1.256 . S
C64 C57 1.500 . S
C65 H30 0.929 . S
C65 C43 1.444 . S
C65 C66 1.317 . S
C66 H28 0.930 . S
C66 C34 1.432 . S
C66 C65 1.317 . S
C67 O51 1.283 . S
C67 O54 1.243 . S
C68 C69 1.382 . S
C68 C72 1.393 . S
C68 C75 1.500 . S
C69 C68 1.382 . S
C69 C70 1.400 . S
C69 H80 0.930 . S
C70 C69 1.400 . S
C70 C71 1.384 . S
C71 C70 1.384 . S
C71 C73 1.392 . S
C71 H81 0.931 . S
C72 C68 1.393 . S
C72 C73 1.401 . S
C72 H82 0.930 1_554 S
C73 C71 1.392 . S
C73 C72 1.401 . S
C73 H83 0.930 1_554 S
C74 O52 1.262 . S
C74 O53 1.260 . S
C75 Tb11 2.833 1_655 S
C75 O50 1.251 . S
C75 O55 1.256 . S
C75 C68 1.500 . S
H76 C59 0.930 . S
H77 C60 0.931 . S
H78 C61 0.930 . S
H79 C62 0.930 . S
H80 C69 0.930 . S
H81 C71 0.931 . S
H82 C72 0.930 1_556 S
H83 C73 0.930 1_556 S
Tb84 N115 2.660 . S
Tb84 N122 2.600 . S
Tb84 O128 2.546 . S
Tb84 O129 2.610 . S
Tb84 O131 2.320 . S
Tb84 O132 2.552 . S
Tb84 O133 2.413 . S
Tb84 O135 2.362 . S
Tb84 O136 2.421 . S
Tb84 C148 2.833 . S
C85 C88 1.432 . S
C85 C89 1.414 . S
C85 N92 1.359 . S
C86 C88 1.417 . S
C86 C90 1.432 . S
C86 C98 1.410 . S
C87 C89 1.444 . S
C87 C90 1.317 . S
C87 H110 0.929 . S
C88 C85 1.432 . S
C88 C86 1.417 . S
C88 N96 1.360 . S
C89 C85 1.414 . S
C89 C87 1.444 . S
C89 C94 1.385 . S
C90 C86 1.432 . S
C90 C87 1.317 . S
C90 H102 0.930 . S
C91 C93 1.392 . S
C91 C94 1.370 . S
C91 H103 0.931 . S
N92 C85 1.359 . S
N92 C93 1.327 . S
N92 Tb95 2.600 . S
C93 C91 1.392 . S
C93 N92 1.327 . S
C93 H100 0.930 . S
C94 C89 1.385 . S
C94 C91 1.370 . S
C94 H113 0.930 . S
Tb95 N92 2.600 . S
Tb95 N96 2.660 . S
Tb95 O129 2.362 . S
Tb95 O130 2.421 . S
Tb95 O134 2.546 . S
Tb95 O135 2.610 . S
Tb95 O137 2.320 . S
Tb95 O138 2.552 . S
Tb95 O139 2.413 . S
Tb95 C159 2.833 . S
N96 C88 1.360 . S
N96 Tb95 2.660 . S
N96 C97 1.305 . S
C97 N96 1.305 . S
C97 C99 1.407 1_554 S
C97 H104 0.930 . S
C98 C86 1.410 . S
C98 C99 1.345 1_554 S
C98 H106 0.930 . S
C99 C97 1.407 1_556 S
C99 C98 1.345 1_556 S
C99 H101 0.930 . S
H100 C93 0.930 . S
H101 C99 0.930 . S
H102 C90 0.930 . S
H103 C91 0.931 . S
H104 C97 0.930 . S
H105 C119 0.930 . S
H106 C98 0.930 . S
H107 C125 0.930 . S
H108 C116 0.930 . S
H109 C123 0.931 . S
H110 C87 0.929 . S
H111 C117 0.930 1_455 S
H112 C150 0.930 1_455 S
H113 C94 0.930 . S
H114 C149 0.929 . S
N115 Tb84 2.660 . S
N115 C116 1.305 . S
N115 C120 1.360 . S
C116 H108 0.930 . S
C116 N115 1.305 . S
C116 C119 1.407 . S
C117 H111 0.930 1_655 S
C117 C118 1.410 . S
C117 C119 1.345 . S
C118 C117 1.410 . S
C118 C120 1.417 . S
C118 C150 1.432 . S
C119 H105 0.930 . S
C119 C116 1.407 . S
C119 C117 1.345 . S
C120 N115 1.360 . S
C120 C118 1.417 . S
C120 C124 1.432 . S
H121 C126 0.930 . S
N122 Tb84 2.600 . S
N122 C124 1.359 . S
N122 C125 1.327 1_554 S
C123 H109 0.931 . S
C123 C125 1.392 . S
C123 C126 1.370 . S
C124 C120 1.432 . S
C124 N122 1.359 . S
C124 C127 1.414 . S
C125 H107 0.930 . S
C125 N122 1.327 1_556 S
C125 C123 1.392 . S
C126 H121 0.930 . S
C126 C123 1.370 . S
C126 C127 1.385 1_556 S
C127 C124 1.414 . S
C127 C126 1.385 1_554 S
C127 C149 1.444 . S
O128 Tb84 2.546 . S
O128 C148 1.251 . S
O129 Tb84 2.610 . S
O129 Tb95 2.362 . S
O129 C140 1.283 . S
O130 Tb95 2.421 . S
O130 C147 1.262 . S
O131 Tb84 2.320 . S
O131 C147 1.260 . S
O132 Tb84 2.552 . S
O132 C140 1.243 . S
O133 Tb84 2.413 . S
O133 C148 1.256 . S
O134 Tb95 2.546 . S
O134 C159 1.251 . S
O135 Tb84 2.362 . S
O135 Tb95 2.610 . S
O135 C151 1.283 . S
O136 Tb84 2.421 . S
O136 C158 1.262 . S
O137 Tb95 2.320 . S
O137 C158 1.260 . S
O138 Tb95 2.552 . S
O138 C151 1.243 . S
O139 Tb95 2.413 . S
O139 C159 1.256 . S
C140 O129 1.283 . S
C140 O132 1.243 . S
C141 C143 1.382 . S
C141 C145 1.393 . S
C141 C148 1.500 . S
C142 C143 1.400 . S
C142 C144 1.384 . S
C143 C141 1.382 . S
C143 C142 1.400 . S
C143 H160 0.930 . S
C144 C142 1.384 . S
C144 C146 1.392 . S
C144 H161 0.931 . S
C145 C141 1.393 . S
C145 C146 1.401 . S
C145 H162 0.921 1_554 S
C146 C144 1.392 . S
C146 C145 1.401 . S
C146 H163 0.930 1_554 S
C147 O130 1.262 . S
C147 O131 1.260 . S
C148 Tb84 2.833 . S
C148 O128 1.251 . S
C148 O133 1.256 . S
C148 C141 1.500 . S
C149 H114 0.929 . S
C149 C127 1.444 . S
C149 C150 1.317 . S
C150 H112 0.930 1_655 S
C150 C118 1.432 . S
C150 C149 1.317 . S
C151 O135 1.283 . S
C151 O138 1.243 . S
C152 C153 1.382 . S
C152 C156 1.393 . S
C152 C159 1.500 . S
C153 C152 1.382 . S
C153 C154 1.400 . S
C153 H164 0.930 . S
C154 C153 1.400 . S
C154 C155 1.384 . S
C155 C154 1.384 . S
C155 C157 1.392 . S
C155 H165 0.931 . S
C156 C152 1.393 . S
C156 C157 1.401 . S
C156 H166 0.930 . S
C157 C155 1.392 . S
C157 C156 1.401 . S
C157 H167 0.930 . S
C158 O136 1.262 . S
C158 O137 1.260 . S
C159 Tb95 2.833 . S
C159 O134 1.251 . S
C159 O139 1.256 . S
C159 C152 1.500 . S
H160 C143 0.930 . S
H161 C144 0.931 . S
H162 C145 0.921 1_556 S
H163 C146 0.930 1_556 S
H164 C153 0.930 . S
H165 C155 0.931 . S
H166 C156 0.930 . S
H167 C157 0.930 . S
Tb168 N199 2.660 1_554 S
Tb168 N206 2.600 . S
Tb168 O212 2.546 . S
Tb168 O213 2.610 1_565 S
Tb168 O215 2.320 1_554 S
Tb168 O216 2.552 1_565 S
Tb168 O217 2.413 1_554 S
Tb168 O219 2.362 . S
Tb168 O220 2.421 1_565 S
Tb168 C232 2.833 . S
C169 C172 1.432 1_556 S
C169 C173 1.414 . S
C169 N176 1.359 . S
C170 C172 1.417 . S
C170 C174 1.432 . S
C170 C182 1.410 . S
C171 C173 1.444 . S
C171 C174 1.317 1_556 S
C171 H194 0.929 . S
C172 C169 1.432 1_554 S
C172 C170 1.417 . S
C172 N180 1.360 . S
C173 C169 1.414 . S
C173 C171 1.444 . S
C173 C178 1.385 . S
C174 C170 1.432 . S
C174 C171 1.317 1_554 S
C174 H186 0.930 . S
C175 C177 1.392 . S
C175 C178 1.370 . S
C175 H187 0.931 . S
N176 C169 1.359 . S
N176 C177 1.327 . S
N176 Tb179 2.600 1_556 S
C177 C175 1.392 . S
C177 N176 1.327 . S
C177 H184 0.930 . S
C178 C173 1.385 . S
C178 C175 1.370 . S
C178 H197 0.930 . S
Tb179 N176 2.600 1_554 S
Tb179 N180 2.660 . S
Tb179 O213 2.362 . S
Tb179 O214 2.421 1_554 S
Tb179 O218 2.546 1_554 S
Tb179 O219 2.610 1_545 S
Tb179 O221 2.320 . S
Tb179 O222 2.536 1_545 S
Tb179 O223 2.413 . S
Tb179 C243 2.833 . S
N180 C172 1.360 . S
N180 Tb179 2.660 . S
N180 C181 1.305 . S
C181 N180 1.305 . S
C181 C183 1.407 . S
C181 H188 0.930 . S
C182 C170 1.410 . S
C182 C183 1.345 . S
C182 H190 0.930 . S
C183 C181 1.407 . S
C183 C182 1.345 . S
C183 H185 0.930 . S
H184 C177 0.930 . S
H185 C183 0.930 . S
H186 C174 0.930 . S
H187 C175 0.931 . S
H188 C181 0.930 . S
H189 C203 0.930 . S
H190 C182 0.930 . S
H191 C209 0.930 . S
H192 C200 0.930 . S
H193 C207 0.931 . S
H194 C171 0.929 . S
H195 C201 0.930 . S
H196 C234 0.930 . S
H197 C178 0.930 . S
H198 C233 0.929 . S
N199 Tb168 2.660 1_556 S
N199 C200 1.305 . S
N199 C204 1.360 . S
C200 H192 0.930 . S
C200 N199 1.305 . S
C200 C203 1.407 . S
C201 H195 0.930 . S
C201 C202 1.410 . S
C201 C203 1.345 . S
C202 C201 1.410 . S
C202 C204 1.417 . S
C202 C234 1.432 . S
C203 H189 0.930 . S
C203 C200 1.407 . S
C203 C201 1.345 . S
C204 N199 1.360 . S
C204 C202 1.417 . S
C204 C208 1.432 1_556 S
H205 C210 0.930 . S
N206 Tb168 2.600 . S
N206 C208 1.359 . S
N206 C209 1.327 . S
C207 H193 0.931 . S
C207 C209 1.392 . S
C207 C210 1.370 . S
C208 C204 1.432 1_554 S
C208 N206 1.359 . S
C208 C211 1.414 . S
C209 H191 0.930 . S
C209 N206 1.327 . S
C209 C207 1.392 . S
C210 H205 0.930 . S
C210 C207 1.370 . S
C210 C211 1.385 . S
C211 C208 1.414 . S
C211 C210 1.385 . S
C211 C233 1.444 . S
O212 Tb168 2.546 . S
O212 C232 1.251 . S
O213 Tb168 2.610 1_545 S
O213 Tb179 2.362 . S
O213 C224 1.283 . S
O214 Tb179 2.421 1_556 S
O214 C231 1.262 1_545 S
O215 Tb168 2.320 1_556 S
O215 C231 1.260 . S
O216 Tb168 2.552 1_545 S
O216 C224 1.243 . S
O217 Tb168 2.413 1_556 S
O217 C232 1.256 1_556 S
O218 Tb179 2.546 1_556 S
O218 C243 1.251 1_556 S
O219 Tb168 2.362 . S
O219 Tb179 2.610 1_565 S
O219 C235 1.283 . S
O220 Tb168 2.421 1_545 S
O220 C242 1.262 . S
O221 Tb179 2.320 . S
O221 C242 1.260 . S
O222 Tb179 2.536 1_565 S
O222 C235 1.297 . S
O223 Tb179 2.413 . S
O223 C243 1.256 . S
C224 O213 1.283 . S
C224 O216 1.243 . S
C225 C227 1.382 . S
C225 C229 1.393 1_556 S
C225 C232 1.500 1_556 S
C226 C227 1.400 . S
C226 C228 1.384 . S
C227 C225 1.382 . S
C227 C226 1.400 . S
C227 H244 0.930 . S
C228 C226 1.384 . S
C228 C230 1.392 1_556 S
C228 H245 0.931 . S
C229 C225 1.393 1_554 S
C229 C230 1.401 . S
C229 H246 0.930 . S
C230 C228 1.392 1_554 S
C230 C229 1.401 . S
C230 H247 0.930 . S
C231 O214 1.262 1_565 S
C231 O215 1.260 . S
C232 Tb168 2.833 . S
C232 O212 1.251 . S
C232 O217 1.256 1_554 S
C232 C225 1.500 1_554 S
C233 H198 0.929 . S
C233 C211 1.444 . S
C233 C234 1.317 1_554 S
C234 H196 0.930 . S
C234 C202 1.432 . S
C234 C233 1.317 1_556 S
C235 O219 1.283 . S
C235 O222 1.297 . S
C236 C237 1.382 . S
C236 C240 1.393 1_554 S
C236 C243 1.500 . S
C237 C236 1.382 . S
C237 C238 1.400 . S
C237 H248 0.930 . S
C238 C237 1.400 . S
C238 C239 1.384 . S
C239 C238 1.384 . S
C239 C241 1.392 . S
C239 H249 0.931 . S
C240 C236 1.393 1_556 S
C240 C241 1.401 1_556 S
C240 H250 0.930 . S
C241 C239 1.392 . S
C241 C240 1.401 1_554 S
C241 H251 0.930 1_554 S
C242 O220 1.262 . S
C242 O221 1.260 . S
C243 Tb179 2.833 . S
C243 O218 1.251 1_554 S
C243 O223 1.256 . S
C243 C236 1.500 . S
H244 C227 0.930 . S
H245 C228 0.931 . S
H246 C229 0.930 . S
H247 C230 0.930 . S
H248 C237 0.930 . S
H249 C239 0.931 . S
H250 C240 0.930 . S
H251 C241 0.930 1_556 S
Tb252 N283 2.660 . S
Tb252 N290 2.600 1_554 S
Tb252 O296 2.546 . S
Tb252 O297 2.610 . S
Tb252 O299 2.320 . S
Tb252 O300 2.552 . S
Tb252 O301 2.413 . S
Tb252 O303 2.362 . S
Tb252 O304 2.421 1_554 S
Tb252 C316 2.833 . S
C253 C256 1.432 . S
C253 C257 1.414 . S
C253 N260 1.359 . S
C254 C256 1.417 . S
C254 C258 1.432 . S
C254 C266 1.410 . S
C255 C257 1.444 . S
C255 C258 1.317 . S
C255 H278 0.929 . S
C256 C253 1.432 . S
C256 C254 1.417 . S
C256 N264 1.360 . S
C257 C253 1.414 . S
C257 C255 1.444 . S
C257 C262 1.385 . S
C258 C254 1.432 . S
C258 C255 1.317 . S
C258 H270 0.930 . S
C259 C261 1.392 . S
C259 C262 1.370 . S
C259 H271 0.931 . S
N260 C253 1.359 . S
N260 C261 1.327 . S
N260 Tb263 2.600 . S
C261 C259 1.392 . S
C261 N260 1.327 . S
C261 H268 0.930 . S
C262 C257 1.385 . S
C262 C259 1.370 . S
C262 H281 0.930 . S
Tb263 N260 2.600 . S
Tb263 N264 2.660 . S
Tb263 O297 2.362 . S
Tb263 O298 2.421 . S
Tb263 O302 2.546 . S
Tb263 O303 2.610 . S
Tb263 O305 2.320 1_554 S
Tb263 O306 2.552 . S
Tb263 O307 2.413 . S
Tb263 C327 2.833 . S
N264 C256 1.360 . S
N264 Tb263 2.660 . S
N264 C265 1.305 . S
C265 N264 1.305 . S
C265 C267 1.407 . S
C265 H272 0.930 1_554 S
C266 C254 1.410 . S
C266 C267 1.345 . S
C266 H274 0.930 . S
C267 C265 1.407 . S
C267 C266 1.345 . S
C267 H269 0.930 1_554 S
H268 C261 0.930 . S
H269 C267 0.930 1_556 S
H270 C258 0.930 . S
H271 C259 0.931 . S
H272 C265 0.930 1_556 S
H273 C287 0.930 . S
H274 C266 0.930 . S
H275 C293 0.930 . S
H276 C284 0.930 . S
H277 C291 0.931 . S
H278 C255 0.929 . S
H279 C285 0.930 . S
H280 C318 0.930 . S
H281 C262 0.930 . S
H282 C317 0.929 . S
N283 Tb252 2.660 . S
N283 C284 1.305 . S
N283 C288 1.360 . S
C284 H276 0.930 . S
C284 N283 1.305 . S
C284 C287 1.407 . S
C285 H279 0.930 . S
C285 C286 1.410 . S
C285 C287 1.345 . S
C286 C285 1.410 . S
C286 C288 1.417 . S
C286 C318 1.432 1_554 S
C287 H273 0.930 . S
C287 C284 1.407 . S
C287 C285 1.345 . S
C288 N283 1.360 . S
C288 C286 1.417 . S
C288 C292 1.432 1_554 S
H289 C294 0.930 . S
N290 Tb252 2.600 1_556 S
N290 C292 1.359 . S
N290 C293 1.327 . S
C291 H277 0.931 . S
C291 C293 1.392 . S
C291 C294 1.370 . S
C292 C288 1.432 1_556 S
C292 N290 1.359 . S
C292 C295 1.414 . S
C293 H275 0.930 . S
C293 N290 1.327 . S
C293 C291 1.392 . S
C294 H289 0.930 . S
C294 C291 1.370 . S
C294 C295 1.385 . S
C295 C292 1.414 . S
C295 C294 1.385 . S
C295 C317 1.444 . S
O296 Tb252 2.546 . S
O296 C316 1.251 . S
O297 Tb252 2.610 . S
O297 Tb263 2.362 . S
O297 C308 1.283 . S
O298 Tb263 2.421 . S
O298 C315 1.262 . S
O299 Tb252 2.320 . S
O299 C315 1.260 . S
O300 Tb252 2.552 . S
O300 C308 1.243 . S
O301 Tb252 2.413 . S
O301 C316 1.256 . S
O302 Tb263 2.546 . S
O302 C327 1.251 . S
O303 Tb252 2.362 . S
O303 Tb263 2.610 . S
O303 C319 1.283 . S
O304 Tb252 2.421 1_556 S
O304 C326 1.262 . S
O305 Tb263 2.320 1_556 S
O305 C326 1.260 . S
O306 Tb263 2.552 . S
O306 C319 1.243 . S
O307 Tb263 2.413 . S
O307 C327 1.256 . S
C308 O297 1.283 . S
C308 O300 1.243 . S
C309 C311 1.382 . S
C309 C313 1.393 . S
C309 C316 1.500 . S
C310 C311 1.400 . S
C310 C312 1.384 . S
C311 C309 1.382 . S
C311 C310 1.400 . S
C311 H328 0.930 . S
C312 C310 1.384 . S
C312 C314 1.392 . S
C312 H329 0.931 . S
C313 C309 1.393 . S
C313 C314 1.401 . S
C313 H330 0.930 1_554 S
C314 C312 1.392 . S
C314 C313 1.401 . S
C314 H331 0.930 . S
C315 O298 1.262 . S
C315 O299 1.260 . S
C316 Tb252 2.833 . S
C316 O296 1.251 . S
C316 O301 1.256 . S
C316 C309 1.500 . S
C317 H282 0.929 . S
C317 C295 1.444 . S
C317 C318 1.317 . S
C318 H280 0.930 . S
C318 C286 1.432 1_556 S
C318 C317 1.317 . S
C319 O303 1.283 . S
C319 O306 1.243 . S
C320 C321 1.382 . S
C320 C324 1.393 . S
C320 C327 1.500 . S
C321 C320 1.382 . S
C321 C322 1.400 . S
C321 H332 0.930 1_554 S
C322 C321 1.400 . S
C322 C323 1.384 . S
C323 C322 1.384 . S
C323 C325 1.392 . S
C323 H333 0.931 . S
C324 C320 1.393 . S
C324 C325 1.401 . S
C324 H334 0.930 . S
C325 C323 1.392 . S
C325 C324 1.401 . S
C325 H335 0.930 . S
C326 O304 1.262 . S
C326 O305 1.260 . S
C327 Tb263 2.833 . S
C327 O302 1.251 . S
C327 O307 1.256 . S
C327 C320 1.500 . S
H328 C311 0.930 . S
H329 C312 0.931 . S
H330 C313 0.930 1_556 S
H331 C314 0.930 . S
H332 C321 0.930 1_556 S
H333 C323 0.931 . S
H334 C324 0.930 . S
H335 C325 0.930 . S
Tb336 N367 2.660 1_556 S
Tb336 N374 2.600 . S
Tb336 O380 2.546 . S
Tb336 O381 2.610 . S
Tb336 O383 2.320 1_556 S
Tb336 O384 2.552 . S
Tb336 O385 2.413 1_556 S
Tb336 O387 2.362 1_556 S
Tb336 O388 2.421 . S
Tb336 C400 2.833 . S
C337 C340 1.432 1_554 S
C337 C341 1.414 . S
C337 N344 1.359 . S
C338 C340 1.417 . S
C338 C342 1.432 . S
C338 C350 1.410 . S
C339 C341 1.444 . S
C339 C342 1.317 1_554 S
C339 H362 0.929 . S
C340 C337 1.432 1_556 S
C340 C338 1.417 . S
C340 N348 1.360 . S
C341 C337 1.414 . S
C341 C339 1.444 . S
C341 C346 1.385 . S
C342 C338 1.432 . S
C342 C339 1.317 1_556 S
C342 H354 0.930 . S
C343 C345 1.392 . S
C343 C346 1.370 . S
C343 H355 0.931 . S
N344 C337 1.359 . S
N344 C345 1.327 . S
N344 Tb347 2.600 . S
C345 C343 1.392 . S
C345 N344 1.327 . S
C345 H352 0.930 . S
C346 C341 1.385 . S
C346 C343 1.370 . S
C346 H365 0.930 . S
Tb347 N344 2.600 . S
Tb347 N348 2.660 1_554 S
Tb347 O381 2.362 1_554 S
Tb347 O382 2.421 . S
Tb347 O386 2.546 . S
Tb347 O387 2.610 . S
Tb347 O389 2.320 1_554 S
Tb347 O390 2.552 . S
Tb347 O391 2.413 1_554 S
Tb347 C411 2.833 . S
N348 C340 1.360 . S
N348 Tb347 2.660 1_556 S
N348 C349 1.305 . S
C349 N348 1.305 . S
C349 C351 1.407 . S
C349 H356 0.930 . S
C350 C338 1.410 . S
C350 C351 1.345 . S
C350 H358 0.930 . S
C351 C349 1.407 . S
C351 C350 1.345 . S
C351 H353 0.930 . S
H352 C345 0.930 . S
H353 C351 0.930 . S
H354 C342 0.930 . S
H355 C343 0.931 . S
H356 C349 0.930 . S
H357 C371 0.930 . S
H358 C350 0.930 . S
H359 C377 0.930 . S
H360 C368 0.930 . S
H361 C375 0.931 . S
H362 C339 0.929 . S
H363 C369 0.930 . S
H364 C402 0.930 . S
H365 C346 0.930 . S
H366 C401 0.929 . S
N367 Tb336 2.660 1_554 S
N367 C368 1.305 . S
N367 C372 1.360 . S
C368 H360 0.930 . S
C368 N367 1.305 . S
C368 C371 1.407 . S
C369 H363 0.930 . S
C369 C370 1.410 . S
C369 C371 1.345 . S
C370 C369 1.410 . S
C370 C372 1.417 . S
C370 C402 1.432 . S
C371 H357 0.930 . S
C371 C368 1.407 . S
C371 C369 1.345 . S
C372 N367 1.360 . S
C372 C370 1.417 . S
C372 C376 1.432 1_554 S
H373 C378 0.930 . S
N374 Tb336 2.600 . S
N374 C376 1.359 . S
N374 C377 1.327 . S
C375 H361 0.931 . S
C375 C377 1.392 . S
C375 C378 1.370 . S
C376 C372 1.432 1_556 S
C376 N374 1.359 . S
C376 C379 1.414 . S
C377 H359 0.930 . S
C377 N374 1.327 . S
C377 C375 1.392 . S
C378 H373 0.930 . S
C378 C375 1.370 . S
C378 C379 1.385 . S
C379 C376 1.414 . S
C379 C378 1.385 . S
C379 C401 1.444 . S
O380 Tb336 2.546 . S
O380 C400 1.251 . S
O381 Tb336 2.610 . S
O381 Tb347 2.362 1_556 S
O381 C392 1.283 . S
O382 Tb347 2.421 . S
O382 C399 1.262 . S
O383 Tb336 2.320 1_554 S
O383 C399 1.260 . S
O384 Tb336 2.552 . S
O384 C392 1.243 . S
O385 Tb336 2.413 1_554 S
O385 C400 1.256 1_554 S
O386 Tb347 2.546 . S
O386 C411 1.251 . S
O387 Tb336 2.362 1_554 S
O387 Tb347 2.610 . S
O387 C403 1.283 . S
O388 Tb336 2.421 . S
O388 C410 1.262 . S
O389 Tb347 2.320 1_556 S
O389 C410 1.260 . S
O390 Tb347 2.552 . S
O390 C403 1.243 . S
O391 Tb347 2.413 1_556 S
O391 C411 1.256 1_556 S
C392 O381 1.283 . S
C392 O384 1.243 . S
C393 C395 1.382 1_556 S
C393 C397 1.393 . S
C393 C400 1.500 . S
C394 C395 1.400 . S
C394 C396 1.384 . S
C395 C393 1.382 1_554 S
C395 C394 1.400 . S
C395 H412 0.930 . S
C396 C394 1.384 . S
C396 C398 1.392 1_554 S
C396 H413 0.931 . S
C397 C393 1.393 . S
C397 C398 1.401 . S
C397 H414 0.930 . S
C398 C396 1.392 1_556 S
C398 C397 1.401 . S
C398 H415 0.930 . S
C399 O382 1.262 . S
C399 O383 1.260 . S
C400 Tb336 2.833 . S
C400 O380 1.251 . S
C400 O385 1.256 1_556 S
C400 C393 1.500 . S
C401 H366 0.929 . S
C401 C379 1.444 . S
C401 C402 1.317 1_556 S
C402 H364 0.930 . S
C402 C370 1.432 . S
C402 C401 1.317 1_554 S
C403 O387 1.283 . S
C403 O390 1.243 . S
C404 C405 1.382 1_554 S
C404 C408 1.393 . S
C404 C411 1.500 . S
C405 C404 1.382 1_556 S
C405 C406 1.400 . S
C405 H416 0.930 . S
C406 C405 1.400 . S
C406 C407 1.384 . S
C407 C406 1.384 . S
C407 C409 1.392 1_556 S
C407 H417 0.931 . S
C408 C404 1.393 . S
C408 C409 1.401 . S
C408 H418 0.930 . S
C409 C407 1.392 1_554 S
C409 C408 1.401 . S
C409 H419 0.930 . S
C410 O388 1.262 . S
C410 O389 1.260 . S
C411 Tb347 2.833 . S
C411 O386 1.251 . S
C411 O391 1.256 1_554 S
C411 C404 1.500 . S
H412 C395 0.930 . S
H413 C396 0.931 . S
H414 C397 0.930 . S
H415 C398 0.930 . S
H416 C405 0.930 . S
H417 C407 0.931 . S
H418 C408 0.930 . S
H419 C409 0.930 . S
Tb420 N451 2.660 . S
Tb420 N458 2.600 . S
Tb420 O464 2.546 . S
Tb420 O465 2.610 . S
Tb420 O467 2.320 . S
Tb420 O468 2.552 . S
Tb420 O469 2.413 . S
Tb420 O471 2.362 . S
Tb420 O472 2.421 . S
Tb420 C484 2.833 . S
C421 C424 1.432 . S
C421 C425 1.414 . S
C421 N428 1.359 . S
C422 C424 1.417 . S
C422 C426 1.432 . S
C422 C434 1.410 1_554 S
C423 C425 1.444 . S
C423 C426 1.317 . S
C423 H446 0.929 . S
C424 C421 1.432 . S
C424 C422 1.417 . S
C424 N432 1.360 . S
C425 C421 1.414 . S
C425 C423 1.444 . S
C425 C430 1.385 . S
C426 C422 1.432 . S
C426 C423 1.317 . S
C426 H438 0.930 . S
C427 C429 1.392 . S
C427 C430 1.370 . S
C427 H439 0.931 . S
N428 C421 1.359 . S
N428 C429 1.327 . S
N428 Tb431 2.600 . S
C429 C427 1.392 . S
C429 N428 1.327 . S
C429 H436 0.930 . S
C430 C425 1.385 . S
C430 C427 1.370 . S
C430 H449 0.930 . S
Tb431 N428 2.600 . S
Tb431 N432 2.660 . S
Tb431 O465 2.362 . S
Tb431 O466 2.421 . S
Tb431 O470 2.546 . S
Tb431 O471 2.610 . S
Tb431 O473 2.320 . S
Tb431 O474 2.552 . S
Tb431 O475 2.413 . S
Tb431 C495 2.833 . S
N432 C424 1.360 . S
N432 Tb431 2.660 . S
N432 C433 1.305 1_554 S
C433 N432 1.305 1_556 S
C433 C435 1.407 . S
C433 H440 0.930 . S
C434 C422 1.410 1_556 S
C434 C435 1.345 . S
C434 H442 0.930 . S
C435 C433 1.407 . S
C435 C434 1.345 . S
C435 H437 0.930 . S
H436 C429 0.930 . S
H437 C435 0.930 . S
H438 C426 0.930 . S
H439 C427 0.931 . S
H440 C433 0.930 . S
H441 C455 0.930 . S
H442 C434 0.930 . S
H443 C461 0.930 . S
H444 C452 0.930 . S
H445 C459 0.931 1_556 S
H446 C423 0.929 . S
H447 C453 0.930 . S
H448 C486 0.930 . S
H449 C430 0.930 . S
H450 C485 0.929 . S
N451 Tb420 2.660 . S
N451 C452 1.305 . S
N451 C456 1.360 . S
C452 H444 0.930 . S
C452 N451 1.305 . S
C452 C455 1.407 . S
C453 H447 0.930 . S
C453 C454 1.410 . S
C453 C455 1.345 . S
C454 C453 1.410 . S
C454 C456 1.417 . S
C454 C486 1.432 . S
C455 H441 0.930 . S
C455 C452 1.407 . S
C455 C453 1.345 . S
C456 N451 1.360 . S
C456 C454 1.417 . S
C456 C460 1.432 . S
H457 C462 0.930 . S
N458 Tb420 2.600 . S
N458 C460 1.359 . S
N458 C461 1.327 . S
C459 H445 0.931 1_554 S
C459 C461 1.392 . S
C459 C462 1.370 . S
C460 C456 1.432 . S
C460 N458 1.359 . S
C460 C463 1.414 . S
C461 H443 0.930 . S
C461 N458 1.327 . S
C461 C459 1.392 . S
C462 H457 0.930 . S
C462 C459 1.370 . S
C462 C463 1.385 . S
C463 C460 1.414 . S
C463 C462 1.385 . S
C463 C485 1.444 . S
O464 Tb420 2.546 . S
O464 C484 1.251 . S
O465 Tb420 2.610 . S
O465 Tb431 2.362 . S
O465 C476 1.283 . S
O466 Tb431 2.421 . S
O466 C483 1.262 . S
O467 Tb420 2.320 . S
O467 C483 1.260 . S
O468 Tb420 2.552 . S
O468 C476 1.243 . S
O469 Tb420 2.413 . S
O469 C484 1.256 . S
O470 Tb431 2.546 . S
O470 C495 1.251 . S
O471 Tb420 2.362 . S
O471 Tb431 2.610 . S
O471 C487 1.283 . S
O472 Tb420 2.421 . S
O472 C494 1.262 1_554 S
O473 Tb431 2.320 . S
O473 C494 1.260 1_554 S
O474 Tb431 2.552 . S
O474 C487 1.243 . S
O475 Tb431 2.413 . S
O475 C495 1.256 . S
C476 O465 1.283 . S
C476 O468 1.243 . S
C477 C479 1.382 . S
C477 C481 1.393 . S
C477 C484 1.500 1_455 S
C478 C479 1.400 . S
C478 C480 1.384 . S
C479 C477 1.382 . S
C479 C478 1.400 . S
C479 H496 0.930 . S
C480 C478 1.384 . S
C480 C482 1.392 . S
C480 H497 0.931 . S
C481 C477 1.393 . S
C481 C482 1.401 . S
C481 H498 0.930 . S
C482 C480 1.392 . S
C482 C481 1.401 . S
C482 H499 0.930 . S
C483 O466 1.262 . S
C483 O467 1.260 . S
C484 Tb420 2.833 . S
C484 O464 1.251 . S
C484 O469 1.256 . S
C484 C477 1.500 1_655 S
C485 H450 0.929 . S
C485 C463 1.444 . S
C485 C486 1.317 . S
C486 H448 0.930 . S
C486 C454 1.432 . S
C486 C485 1.317 . S
C487 O471 1.283 . S
C487 O474 1.243 . S
C488 C489 1.382 1_554 S
C488 C492 1.393 . S
C488 C495 1.500 . S
C489 C488 1.382 1_556 S
C489 C490 1.400 . S
C489 H500 0.930 . S
C490 C489 1.400 . S
C490 C491 1.384 . S
C491 C490 1.384 . S
C491 C493 1.392 1_556 S
C491 H501 0.931 . S
C492 C488 1.393 . S
C492 C493 1.401 . S
C492 H502 0.930 . S
C493 C491 1.392 1_554 S
C493 C492 1.401 . S
C493 H503 0.930 . S
C494 O472 1.262 1_556 S
C494 O473 1.260 1_556 S
C495 Tb431 2.833 . S
C495 O470 1.251 . S
C495 O475 1.256 . S
C495 C488 1.500 . S
H496 C479 0.930 . S
H497 C480 0.931 . S
H498 C481 0.930 . S
H499 C482 0.930 . S
H500 C489 0.930 . S
H501 C491 0.931 . S
H502 C492 0.930 . S
H503 C493 0.930 . S
Tb504 N535 2.660 . S
Tb504 N542 2.600 . S
Tb504 O548 2.546 . S
Tb504 O549 2.610 . S
Tb504 O551 2.320 . S
Tb504 O552 2.552 . S
Tb504 O553 2.413 . S
Tb504 O555 2.362 . S
Tb504 O556 2.421 . S
Tb504 C568 2.833 . S
C505 C508 1.432 . S
C505 C509 1.414 . S
C505 N512 1.359 . S
C506 C508 1.417 . S
C506 C510 1.432 . S
C506 C518 1.410 . S
C507 C509 1.444 . S
C507 C510 1.317 . S
C507 H530 0.929 . S
C508 C505 1.432 . S
C508 C506 1.417 . S
C508 N516 1.360 . S
C509 C505 1.414 . S
C509 C507 1.444 . S
C509 C514 1.385 . S
C510 C506 1.432 . S
C510 C507 1.317 . S
C510 H522 0.930 . S
C511 C513 1.392 . S
C511 C514 1.370 . S
C511 H523 0.931 . S
N512 C505 1.359 . S
N512 C513 1.327 . S
N512 Tb515 2.600 . S
C513 C511 1.392 . S
C513 N512 1.327 . S
C513 H520 0.930 . S
C514 C509 1.385 . S
C514 C511 1.370 . S
C514 H533 0.930 . S
Tb515 N512 2.600 . S
Tb515 N516 2.660 . S
Tb515 O549 2.362 . S
Tb515 O550 2.421 . S
Tb515 O554 2.546 . S
Tb515 O555 2.610 . S
Tb515 O557 2.320 . S
Tb515 O558 2.552 . S
Tb515 O559 2.413 . S
Tb515 C579 2.833 . S
N516 C508 1.360 . S
N516 Tb515 2.660 . S
N516 C517 1.305 . S
C517 N516 1.305 . S
C517 C519 1.407 . S
C517 H524 0.930 . S
C518 C506 1.410 . S
C518 C519 1.345 . S
C518 H526 0.930 . S
C519 C517 1.407 . S
C519 C518 1.345 . S
C519 H521 0.930 1_556 S
H520 C513 0.930 . S
H521 C519 0.930 1_554 S
H522 C510 0.930 . S
H523 C511 0.931 . S
H524 C517 0.930 . S
H525 C539 0.930 . S
H526 C518 0.930 . S
H527 C545 0.930 . S
H528 C536 0.930 . S
H529 C543 0.931 . S
H530 C507 0.929 . S
H531 C537 0.930 . S
H532 C570 0.930 . S
H533 C514 0.930 . S
H534 C569 0.929 1_554 S
N535 Tb504 2.660 . S
N535 C536 1.305 . S
N535 C540 1.360 . S
C536 H528 0.930 . S
C536 N535 1.305 . S
C536 C539 1.407 . S
C537 H531 0.930 . S
C537 C538 1.410 . S
C537 C539 1.345 . S
C538 C537 1.410 . S
C538 C540 1.417 . S
C538 C570 1.432 . S
C539 H525 0.930 . S
C539 C536 1.407 . S
C539 C537 1.345 . S
C540 N535 1.360 . S
C540 C538 1.417 . S
C540 C544 1.432 . S
H541 C546 0.930 . S
N542 Tb504 2.600 . S
N542 C544 1.359 . S
N542 C545 1.327 1_556 S
C543 H529 0.931 . S
C543 C545 1.392 . S
C543 C546 1.370 . S
C544 C540 1.432 . S
C544 N542 1.359 . S
C544 C547 1.414 1_556 S
C545 H527 0.930 . S
C545 N542 1.327 1_554 S
C545 C543 1.392 . S
C546 H541 0.930 . S
C546 C543 1.370 . S
C546 C547 1.385 . S
C547 C544 1.414 1_554 S
C547 C546 1.385 . S
C547 C569 1.444 1_554 S
O548 Tb504 2.546 . S
O548 C568 1.251 . S
O549 Tb504 2.610 . S
O549 Tb515 2.362 . S
O549 C560 1.283 . S
O550 Tb515 2.421 . S
O550 C567 1.262 . S
O551 Tb504 2.320 . S
O551 C567 1.260 . S
O552 Tb504 2.552 . S
O552 C560 1.243 . S
O553 Tb504 2.413 . S
O553 C568 1.256 . S
O554 Tb515 2.546 . S
O554 C579 1.251 . S
O555 Tb504 2.362 . S
O555 Tb515 2.610 . S
O555 C571 1.283 . S
O556 Tb504 2.421 . S
O556 C578 1.262 . S
O557 Tb515 2.320 . S
O557 C578 1.260 . S
O558 Tb515 2.552 . S
O558 C571 1.243 . S
O559 Tb515 2.413 . S
O559 C579 1.256 . S
C560 O549 1.283 . S
C560 O552 1.243 . S
C561 C563 1.382 . S
C561 C565 1.393 . S
C561 C568 1.500 . S
C562 C563 1.400 . S
C562 C564 1.384 1_565 S
C563 C561 1.382 . S
C563 C562 1.400 . S
C563 H580 0.930 . S
C564 C562 1.384 1_545 S
C564 C566 1.392 . S
C564 H581 0.931 . S
C565 C561 1.393 . S
C565 C566 1.401 1_565 S
C565 H582 0.930 . S
C566 C564 1.392 . S
C566 C565 1.401 1_545 S
C566 H583 0.930 . S
C567 O550 1.262 . S
C567 O551 1.260 . S
C568 Tb504 2.833 . S
C568 O548 1.251 . S
C568 O553 1.256 . S
C568 C561 1.500 . S
C569 H534 0.929 1_556 S
C569 C547 1.444 1_556 S
C569 C570 1.317 . S
C570 H532 0.930 . S
C570 C538 1.432 . S
C570 C569 1.317 . S
C571 O555 1.283 . S
C571 O558 1.243 . S
C572 C573 1.382 . S
C572 C576 1.393 . S
C572 C579 1.500 . S
C573 C572 1.382 . S
C573 C574 1.400 . S
C573 H584 0.930 . S
C574 C573 1.400 . S
C574 C575 1.384 . S
C575 C574 1.384 . S
C575 C577 1.392 . S
C575 H585 0.931 . S
C576 C572 1.393 . S
C576 C577 1.401 . S
C576 H586 0.930 . S
C577 C575 1.392 . S
C577 C576 1.401 . S
C577 H587 0.930 . S
C578 O556 1.262 . S
C578 O557 1.260 . S
C579 Tb515 2.833 . S
C579 O554 1.251 . S
C579 O559 1.256 . S
C579 C572 1.500 . S
H580 C563 0.930 . S
H581 C564 0.931 . S
H582 C565 0.930 . S
H583 C566 0.930 . S
H584 C573 0.930 . S
H585 C575 0.931 . S
H586 C576 0.930 . S
H587 C577 0.930 . S
Tb588 N619 2.660 1_556 S
Tb588 N626 2.600 . S
Tb588 O632 2.546 . S
Tb588 O633 2.610 . S
Tb588 O635 2.320 1_556 S
Tb588 O636 2.552 . S
Tb588 O637 2.419 . S
Tb588 O639 2.362 . S
Tb588 O640 2.421 . S
Tb588 C652 2.833 . S
C589 C592 1.432 . S
C589 C593 1.414 1_556 S
C589 N596 1.359 1_556 S
C590 C592 1.417 . S
C590 C594 1.432 . S
C590 C602 1.410 . S
C591 C593 1.444 1_556 S
C591 C594 1.317 . S
C591 H614 0.929 . S
C592 C589 1.432 . S
C592 C590 1.417 . S
C592 N600 1.360 . S
C593 C589 1.414 1_554 S
C593 C591 1.444 1_554 S
C593 C598 1.385 . S
C594 C590 1.432 . S
C594 C591 1.317 . S
C594 H606 0.930 . S
C595 C597 1.392 . S
C595 C598 1.370 . S
C595 H607 0.931 . S
N596 C589 1.359 1_554 S
N596 C597 1.327 . S
N596 Tb599 2.600 1_554 S
C597 C595 1.392 . S
C597 N596 1.327 . S
C597 H604 0.930 . S
C598 C593 1.385 . S
C598 C595 1.370 . S
C598 H617 0.930 . S
Tb599 N596 2.600 1_556 S
Tb599 N600 2.660 . S
Tb599 O633 2.362 . S
Tb599 O634 2.421 1_556 S
Tb599 O638 2.546 1_556 S
Tb599 O639 2.610 . S
Tb599 O641 2.320 . S
Tb599 O642 2.552 1_556 S
Tb599 O643 2.413 . S
Tb599 C663 2.833 . S
N600 C592 1.360 . S
N600 Tb599 2.660 . S
N600 C601 1.305 . S
C601 N600 1.305 . S
C601 C603 1.407 . S
C601 H608 0.930 . S
C602 C590 1.410 . S
C602 C603 1.345 . S
C602 H610 0.930 . S
C603 C601 1.407 . S
C603 C602 1.345 . S
C603 H605 0.930 . S
H604 C597 0.930 . S
H605 C603 0.930 . S
H606 C594 0.930 . S
H607 C595 0.931 . S
H608 C601 0.930 . S
H609 C623 0.930 . S
H610 C602 0.930 . S
H611 C629 0.930 . S
H612 C620 0.930 . S
H613 C627 0.931 . S
H614 C591 0.929 . S
H615 C621 0.930 . S
H616 C654 0.930 . S
H617 C598 0.930 . S
H618 C653 0.929 . S
N619 Tb588 2.660 1_554 S
N619 C620 1.305 . S
N619 C624 1.360 . S
C620 H612 0.930 . S
C620 N619 1.305 . S
C620 C623 1.407 . S
C621 H615 0.930 . S
C621 C622 1.410 . S
C621 C623 1.345 . S
C622 C621 1.410 . S
C622 C624 1.417 . S
C622 C654 1.432 . S
C623 H609 0.930 . S
C623 C620 1.407 . S
C623 C621 1.345 . S
C624 N619 1.360 . S
C624 C622 1.417 . S
C624 C628 1.432 1_554 S
H625 C630 0.930 . S
N626 Tb588 2.600 . S
N626 C628 1.359 . S
N626 C629 1.327 . S
C627 H613 0.931 . S
C627 C629 1.392 . S
C627 C630 1.370 . S
C628 C624 1.432 1_556 S
C628 N626 1.359 . S
C628 C631 1.414 . S
C629 H611 0.930 . S
C629 N626 1.327 . S
C629 C627 1.392 . S
C630 H625 0.930 . S
C630 C627 1.370 . S
C630 C631 1.385 . S
C631 C628 1.414 . S
C631 C630 1.385 . S
C631 C653 1.444 . S
O632 Tb588 2.546 . S
O632 C652 1.251 . S
O633 Tb588 2.610 . S
O633 Tb599 2.362 . S
O633 C644 1.283 . S
O634 Tb599 2.421 1_554 S
O634 C651 1.262 . S
O635 Tb588 2.320 1_554 S
O635 C651 1.260 . S
O636 Tb588 2.552 . S
O636 C644 1.243 . S
O637 Tb588 2.419 . S
O637 C652 1.263 . S
O638 Tb599 2.546 1_554 S
O638 C663 1.251 1_554 S
O639 Tb588 2.362 . S
O639 Tb599 2.610 . S
O639 C655 1.283 . S
O640 Tb588 2.421 . S
O640 C662 1.262 . S
O641 Tb599 2.320 . S
O641 C662 1.260 . S
O642 Tb599 2.552 1_554 S
O642 C655 1.243 1_554 S
O643 Tb599 2.413 . S
O643 C663 1.256 . S
C644 O633 1.283 . S
C644 O636 1.243 . S
C645 C647 1.382 . S
C645 C649 1.393 . S
C645 C652 1.500 . S
C646 C647 1.400 . S
C646 C648 1.384 . S
C647 C645 1.382 . S
C647 C646 1.400 . S
C647 H664 0.930 1_556 S
C648 C646 1.384 . S
C648 C650 1.392 . S
C648 H665 0.931 . S
C649 C645 1.393 . S
C649 C650 1.401 . S
C649 H666 0.930 . S
C650 C648 1.392 . S
C650 C649 1.401 . S
C650 H667 0.930 . S
C651 O634 1.262 . S
C651 O635 1.260 . S
C652 Tb588 2.833 . S
C652 O632 1.251 . S
C652 O637 1.263 . S
C652 C645 1.500 . S
C653 H618 0.929 . S
C653 C631 1.444 . S
C653 C654 1.317 1_556 S
C654 H616 0.930 . S
C654 C622 1.432 . S
C654 C653 1.317 1_554 S
C655 O639 1.283 . S
C655 O642 1.243 1_556 S
C656 C657 1.382 . S
C656 C660 1.393 1_556 S
C656 C663 1.500 . S
C657 C656 1.382 . S
C657 C658 1.400 . S
C657 H668 0.930 . S
C658 C657 1.400 . S
C658 C659 1.384 . S
C659 C658 1.384 . S
C659 C661 1.392 1_556 S
C659 H669 0.931 . S
C660 C656 1.393 1_554 S
C660 C661 1.401 . S
C660 H670 0.930 . S
C661 C659 1.392 1_554 S
C661 C660 1.401 . S
C661 H671 0.930 . S
C662 O640 1.262 . S
C662 O641 1.260 . S
C663 Tb599 2.833 . S
C663 O638 1.251 1_556 S
C663 O643 1.256 . S
C663 C656 1.500 . S
H664 C647 0.930 1_554 S
H665 C648 0.931 . S
H666 C649 0.930 . S
H667 C650 0.930 . S
H668 C657 0.930 . S
H669 C659 0.931 . S
H670 C660 0.930 . S
H671 C661 0.930 . S
Tb672 N703 2.660 . S
Tb672 N710 2.600 . S
Tb672 O716 2.546 . S
Tb672 O717 2.610 . S
Tb672 O719 2.320 . S
Tb672 O720 2.552 . S
Tb672 O721 2.413 . S
Tb672 O723 2.362 . S
Tb672 O724 2.421 1_556 S
Tb672 C736 2.833 . S
C673 C676 1.432 1_556 S
C673 C677 1.414 . S
C673 N680 1.359 . S
C674 C676 1.417 . S
C674 C678 1.432 . S
C674 C686 1.410 . S
C675 C677 1.444 . S
C675 C678 1.317 1_556 S
C675 H698 0.929 . S
C676 C673 1.432 1_554 S
C676 C674 1.417 . S
C676 N684 1.360 . S
C677 C673 1.414 . S
C677 C675 1.444 . S
C677 C682 1.385 . S
C678 C674 1.432 . S
C678 C675 1.317 1_554 S
C678 H690 0.930 . S
C679 C681 1.392 . S
C679 C682 1.370 . S
C679 H691 0.931 . S
N680 C673 1.359 . S
N680 C681 1.327 . S
N680 Tb683 2.600 . S
C681 C679 1.392 . S
C681 N680 1.327 . S
C681 H688 0.930 . S
C682 C677 1.385 . S
C682 C679 1.370 . S
C682 H701 0.930 . S
Tb683 N680 2.600 . S
Tb683 N684 2.660 1_556 S
Tb683 O717 2.362 . S
Tb683 O718 2.421 . S
Tb683 O722 2.546 . S
Tb683 O723 2.610 . S
Tb683 O725 2.320 1_556 S
Tb683 O726 2.552 . S
Tb683 O727 2.413 1_556 S
Tb683 C747 2.833 . S
N684 C676 1.360 . S
N684 Tb683 2.660 1_554 S
N684 C685 1.305 . S
C685 N684 1.305 . S
C685 C687 1.407 . S
C685 H692 0.930 . S
C686 C674 1.410 . S
C686 C687 1.345 . S
C686 H694 0.930 . S
C687 C685 1.407 . S
C687 C686 1.345 . S
C687 H689 0.930 . S
H688 C681 0.930 . S
H689 C687 0.930 . S
H690 C678 0.930 . S
H691 C679 0.931 . S
H692 C685 0.930 . S
H693 C707 0.930 . S
H694 C686 0.930 . S
H695 C713 0.930 . S
H696 C704 0.930 . S
H697 C711 0.931 . S
H698 C675 0.929 . S
H699 C705 0.930 . S
H700 C738 0.930 . S
H701 C682 0.930 . S
H702 C737 0.929 . S
N703 Tb672 2.660 . S
N703 C704 1.305 . S
N703 C708 1.360 . S
C704 H696 0.930 . S
C704 N703 1.305 . S
C704 C707 1.407 . S
C705 H699 0.930 . S
C705 C706 1.410 . S
C705 C707 1.345 . S
C706 C705 1.410 . S
C706 C708 1.417 . S
C706 C738 1.432 . S
C707 H693 0.930 . S
C707 C704 1.407 . S
C707 C705 1.345 . S
C708 N703 1.360 . S
C708 C706 1.417 . S
C708 C712 1.432 . S
H709 C714 0.930 . S
N710 Tb672 2.600 . S
N710 C712 1.359 . S
N710 C713 1.327 1_556 S
C711 H697 0.931 . S
C711 C713 1.392 . S
C711 C714 1.370 . S
C712 C708 1.432 . S
C712 N710 1.359 . S
C712 C715 1.414 . S
C713 H695 0.930 . S
C713 N710 1.327 1_554 S
C713 C711 1.392 . S
C714 H709 0.930 . S
C714 C711 1.370 . S
C714 C715 1.385 1_554 S
C715 C712 1.414 . S
C715 C714 1.385 1_556 S
C715 C737 1.444 . S
O716 Tb672 2.546 . S
O716 C736 1.251 . S
O717 Tb672 2.610 . S
O717 Tb683 2.362 . S
O717 C728 1.283 . S
O718 Tb683 2.421 . S
O718 C735 1.262 . S
O719 Tb672 2.320 . S
O719 C735 1.260 . S
O720 Tb672 2.552 . S
O720 C728 1.243 . S
O721 Tb672 2.413 . S
O721 C736 1.256 . S
O722 Tb683 2.546 . S
O722 C747 1.251 . S
O723 Tb672 2.362 . S
O723 Tb683 2.610 . S
O723 C739 1.283 . S
O724 Tb672 2.421 1_554 S
O724 C746 1.262 . S
O725 Tb683 2.320 1_554 S
O725 C746 1.260 . S
O726 Tb683 2.552 . S
O726 C739 1.243 . S
O727 Tb683 2.413 1_554 S
O727 C747 1.256 1_554 S
C728 O717 1.283 . S
C728 O720 1.243 . S
C729 C731 1.382 . S
C729 C733 1.393 . S
C729 C736 1.500 . S
C730 C731 1.400 . S
C730 C732 1.384 . S
C731 C729 1.382 . S
C731 C730 1.400 . S
C731 H748 0.930 . S
C732 C730 1.384 . S
C732 C734 1.392 . S
C732 H749 0.931 . S
C733 C729 1.393 . S
C733 C734 1.401 . S
C733 H750 0.930 . S
C734 C732 1.392 . S
C734 C733 1.401 . S
C734 H751 0.930 . S
C735 O718 1.262 . S
C735 O719 1.260 . S
C736 Tb672 2.833 . S
C736 O716 1.251 . S
C736 O721 1.256 . S
C736 C729 1.500 . S
C737 H702 0.929 . S
C737 C715 1.444 . S
C737 C738 1.317 . S
C738 H700 0.930 . S
C738 C706 1.432 . S
C738 C737 1.317 . S
C739 O723 1.283 . S
C739 O726 1.243 . S
C740 C741 1.382 1_556 S
C740 C744 1.393 . S
C740 C747 1.500 . S
C741 C740 1.382 1_554 S
C741 C742 1.400 . S
C741 H752 0.930 . S
C742 C741 1.400 . S
C742 C743 1.384 . S
C743 C742 1.384 . S
C743 C745 1.392 1_554 S
C743 H753 0.931 . S
C744 C740 1.393 . S
C744 C745 1.401 . S
C744 H754 0.930 . S
C745 C743 1.392 1_556 S
C745 C744 1.401 . S
C745 H755 0.930 . S
C746 O724 1.262 . S
C746 O725 1.260 . S
C747 Tb683 2.833 . S
C747 O722 1.251 . S
C747 O727 1.256 1_556 S
C747 C740 1.500 . S
H748 C731 0.930 . S
H749 C732 0.931 . S
H750 C733 0.930 . S
H751 C734 0.930 . S
H752 C741 0.930 . S
H753 C743 0.931 . S
H754 C744 0.930 . S
H755 C745 0.930 . S
H756 C768 0.930 . S
H757 C770 0.930 . S
H758 C771 0.930 . S
H759 C775 0.959 . S
H760 C775 0.959 . S
H761 C775 0.961 . S
H762 C776 0.960 1_556 S
H763 C776 0.961 1_556 S
H764 C776 0.959 . S
H765 C779 0.929 . S
H766 C780 0.931 . S
H767 C782 0.940 . S
C768 H756 0.930 . S
C768 C769 1.399 . S
C768 C773 1.399 . S
C769 C768 1.399 . S
C769 C770 1.376 . S
C770 H757 0.930 . S
C770 C769 1.376 . S
C770 C771 1.388 . S
C771 H758 0.930 . S
C771 C770 1.388 . S
C771 C772 1.390 . S
C772 C771 1.390 . S
C772 C773 1.394 . S
C772 C778 1.465 . S
C773 C768 1.399 . S
C773 C772 1.394 . S
C773 C774 1.516 . S
C774 C773 1.516 . S
C774 C775 1.502 1_554 S
C774 C776 1.561 . S
C774 C777 1.526 . S
C775 H759 0.959 . S
C775 H760 0.959 . S
C775 H761 0.961 . S
C775 C774 1.502 1_556 S
C776 H762 0.960 1_554 S
C776 H763 0.961 1_554 S
C776 H764 0.959 . S
C776 C774 1.561 . S
C777 C774 1.526 . S
C777 C778 1.396 . S
C777 C782 1.381 1_554 S
C778 C772 1.465 . S
C778 C777 1.396 . S
C778 C779 1.399 . S
C779 H765 0.929 . S
C779 C778 1.399 . S
C779 C780 1.385 . S
C780 H766 0.931 . S
C780 C779 1.385 . S
C780 C781 1.389 . S
C781 C780 1.389 . S
C781 C782 1.385 1_554 S
C782 H767 0.940 . S
C782 C777 1.381 1_556 S
C782 C781 1.385 1_556 S
H783 C795 0.930 . S
H784 C797 0.930 . S
H785 C798 0.930 . S
H786 C802 0.959 1_556 S
H787 C802 0.959 . S
H788 C802 0.961 . S
H789 C803 0.960 . S
H790 C803 0.961 . S
H791 C803 0.959 . S
H792 C806 0.929 . S
H793 C807 0.931 . S
H794 C809 0.930 . S
C795 H783 0.930 . S
C795 C796 1.399 . S
C795 C800 1.399 . S
C796 C795 1.399 . S
C796 C797 1.376 . S
C797 H784 0.930 . S
C797 C796 1.376 . S
C797 C798 1.388 . S
C798 H785 0.930 . S
C798 C797 1.388 . S
C798 C799 1.390 . S
C799 C798 1.390 . S
C799 C800 1.394 . S
C799 C805 1.465 . S
C800 C795 1.399 . S
C800 C799 1.394 . S
C800 C801 1.516 . S
C801 C800 1.516 . S
C801 C802 1.502 . S
C801 C803 1.561 . S
C801 C804 1.526 . S
C802 H786 0.959 1_554 S
C802 H787 0.959 . S
C802 H788 0.961 . S
C802 C801 1.502 . S
C803 H789 0.960 . S
C803 H790 0.961 . S
C803 H791 0.959 . S
C803 C801 1.561 . S
C804 C801 1.526 . S
C804 C805 1.396 . S
C804 C809 1.390 . S
C805 C799 1.465 . S
C805 C804 1.396 . S
C805 C806 1.399 . S
C806 H792 0.929 . S
C806 C805 1.399 . S
C806 C807 1.385 1_554 S
C807 H793 0.931 . S
C807 C806 1.385 1_556 S
C807 C808 1.389 . S
C808 C807 1.389 . S
C808 C809 1.387 1_556 S
C809 H794 0.930 . S
C809 C804 1.390 . S
C809 C808 1.387 1_554 S
H810 C822 0.930 . S
H811 C824 0.930 . S
H812 C825 0.930 . S
H813 C829 0.959 1_554 S
H814 C829 0.959 1_554 S
H815 C829 0.961 1_554 S
H816 C830 0.960 . S
H817 C830 0.961 . S
H818 C830 0.959 . S
H819 C833 0.929 . S
H820 C834 0.931 . S
H821 C836 0.930 . S
C822 H810 0.930 . S
C822 C823 1.399 . S
C822 C827 1.399 . S
C823 C822 1.399 . S
C823 C824 1.376 . S
C824 H811 0.930 . S
C824 C823 1.376 . S
C824 C825 1.388 . S
C825 H812 0.930 . S
C825 C824 1.388 . S
C825 C826 1.390 . S
C826 C825 1.390 . S
C826 C827 1.394 . S
C826 C832 1.465 . S
C827 C822 1.399 . S
C827 C826 1.394 . S
C827 C828 1.516 . S
C828 C827 1.516 . S
C828 C829 1.502 . S
C828 C830 1.561 . S
C828 C831 1.526 . S
C829 H813 0.959 1_556 S
C829 H814 0.959 1_556 S
C829 H815 0.961 1_556 S
C829 C828 1.502 . S
C830 H816 0.960 . S
C830 H817 0.961 . S
C830 H818 0.959 . S
C830 C828 1.561 . S
C831 C828 1.526 . S
C831 C832 1.396 . S
C831 C836 1.390 . S
C832 C826 1.465 . S
C832 C831 1.396 . S
C832 C833 1.399 . S
C833 H819 0.929 . S
C833 C832 1.399 . S
C833 C834 1.385 . S
C834 H820 0.931 . S
C834 C833 1.385 . S
C834 C835 1.389 . S
C835 C834 1.389 . S
C835 C836 1.387 . S
C836 H821 0.930 . S
C836 C831 1.390 . S
C836 C835 1.387 . S
H837 C849 0.930 . S
H838 C851 0.930 . S
H839 C852 0.930 . S
H840 C856 0.959 . S
H841 C856 0.959 . S
H842 C856 0.961 . S
H843 C857 0.960 . S
H844 C857 0.961 . S
H845 C857 0.959 . S
H846 C860 0.929 . S
H847 C861 0.931 . S
H848 C863 0.930 . S
C849 H837 0.930 . S
C849 C850 1.399 1_554 S
C849 C854 1.399 . S
C850 C849 1.399 1_556 S
C850 C851 1.376 . S
C851 H838 0.930 . S
C851 C850 1.376 . S
C851 C852 1.388 . S
C852 H839 0.930 . S
C852 C851 1.388 . S
C852 C853 1.390 . S
C853 C852 1.390 . S
C853 C854 1.394 1_556 S
C853 C859 1.465 . S
C854 C849 1.399 . S
C854 C853 1.394 1_554 S
C854 C855 1.516 . S
C855 C854 1.516 . S
C855 C856 1.502 . S
C855 C857 1.561 . S
C855 C858 1.526 . S
C856 H840 0.959 . S
C856 H841 0.959 . S
C856 H842 0.961 . S
C856 C855 1.502 . S
C857 H843 0.960 . S
C857 H844 0.961 . S
C857 H845 0.959 . S
C857 C855 1.561 . S
C858 C855 1.526 . S
C858 C859 1.396 1_554 S
C858 C863 1.390 . S
C859 C853 1.465 . S
C859 C858 1.396 1_556 S
C859 C860 1.399 . S
C860 H846 0.929 . S
C860 C859 1.399 . S
C860 C861 1.385 . S
C861 H847 0.931 . S
C861 C860 1.385 . S
C861 C862 1.389 1_556 S
C862 C861 1.389 1_554 S
C862 C863 1.387 . S
C863 H848 0.930 . S
C863 C858 1.390 . S
C863 C862 1.387 . S
H864 C876 0.930 . S
H865 C878 0.930 . S
H866 C879 0.930 . S
H867 C883 0.959 . S
H868 C883 0.959 1_556 S
H869 C883 0.961 1_556 S
H870 C884 0.960 1_556 S
H871 C884 0.961 1_556 S
H872 C884 0.959 . S
H873 C887 0.929 . S
H874 C888 0.931 . S
H875 C890 0.930 . S
C876 H864 0.930 . S
C876 C877 1.399 . S
C876 C881 1.399 . S
C877 C876 1.399 . S
C877 C878 1.376 . S
C878 H865 0.930 . S
C878 C877 1.376 . S
C878 C879 1.388 . S
C879 H866 0.930 . S
C879 C878 1.388 . S
C879 C880 1.390 . S
C880 C879 1.390 . S
C880 C881 1.394 . S
C880 C886 1.465 . S
C881 C876 1.399 . S
C881 C880 1.394 . S
C881 C882 1.516 . S
C882 C881 1.516 . S
C882 C883 1.502 . S
C882 C884 1.561 . S
C882 C885 1.526 . S
C883 H867 0.959 . S
C883 H868 0.959 1_554 S
C883 H869 0.961 1_554 S
C883 C882 1.502 . S
C884 H870 0.960 1_554 S
C884 H871 0.961 1_554 S
C884 H872 0.959 . S
C884 C882 1.561 . S
C885 C882 1.526 . S
C885 C886 1.396 . S
C885 C890 1.390 . S
C886 C880 1.465 . S
C886 C885 1.396 . S
C886 C887 1.399 1_655 S
C887 H873 0.929 . S
C887 C886 1.399 1_455 S
C887 C888 1.385 . S
C888 H874 0.931 . S
C888 C887 1.385 . S
C888 C889 1.389 . S
C889 C888 1.389 . S
C889 C890 1.387 1_455 S
C890 H875 0.930 . S
C890 C885 1.390 . S
C890 C889 1.387 1_655 S
H891 C903 0.930 . S
H892 C905 0.930 . S
H893 C906 0.930 . S
H894 C910 0.959 . S
H895 C910 0.959 . S
H896 C910 0.961 . S
H897 C911 0.960 1_556 S
H898 C911 0.961 1_556 S
H899 C911 0.959 . S
H900 C914 0.929 . S
H901 C915 0.931 . S
H902 C917 0.930 . S
C903 H891 0.930 . S
C903 C904 1.399 . S
C903 C908 1.399 . S
C904 C903 1.399 . S
C904 C905 1.376 . S
C905 H892 0.930 . S
C905 C904 1.376 . S
C905 C906 1.388 . S
C906 H893 0.930 . S
C906 C905 1.388 . S
C906 C907 1.390 . S
C907 C906 1.390 . S
C907 C908 1.394 . S
C907 C913 1.465 . S
C908 C903 1.399 . S
C908 C907 1.394 . S
C908 C909 1.516 . S
C909 C908 1.516 . S
C909 C910 1.502 . S
C909 C911 1.561 . S
C909 C912 1.526 . S
C910 H894 0.959 . S
C910 H895 0.959 . S
C910 H896 0.961 . S
C910 C909 1.502 . S
C911 H897 0.960 1_554 S
C911 H898 0.961 1_554 S
C911 H899 0.959 . S
C911 C909 1.561 . S
C912 C909 1.526 . S
C912 C913 1.396 . S
C912 C917 1.390 . S
C913 C907 1.465 . S
C913 C912 1.396 . S
C913 C914 1.399 . S
C914 H900 0.929 . S
C914 C913 1.399 . S
C914 C915 1.385 . S
C915 H901 0.931 . S
C915 C914 1.385 . S
C915 C916 1.389 . S
C916 C915 1.389 . S
C916 C917 1.387 . S
C917 H902 0.930 . S
C917 C912 1.390 . S
C917 C916 1.387 . S
H918 C930 0.930 . S
H919 C932 0.930 . S
H920 C933 0.930 . S
H921 C937 0.959 . S
H922 C937 0.959 . S
H923 C937 0.961 . S
H924 C938 0.960 . S
H925 C938 0.961 . S
H926 C938 0.959 . S
H927 C941 0.929 . S
H928 C942 0.931 . S
H929 C944 0.930 . S
C930 H918 0.930 . S
C930 C931 1.399 . S
C930 C935 1.399 . S
C931 C930 1.399 . S
C931 C932 1.376 . S
C932 H919 0.930 . S
C932 C931 1.376 . S
C932 C933 1.388 . S
C933 H920 0.930 . S
C933 C932 1.388 . S
C933 C934 1.390 . S
C934 C933 1.390 . S
C934 C935 1.394 . S
C934 C940 1.465 . S
C935 C930 1.399 . S
C935 C934 1.394 . S
C935 C936 1.516 . S
C936 C935 1.516 . S
C936 C937 1.502 . S
C936 C938 1.561 . S
C936 C939 1.526 . S
C937 H921 0.959 . S
C937 H922 0.959 . S
C937 H923 0.961 . S
C937 C936 1.502 . S
C938 H924 0.960 . S
C938 H925 0.961 . S
C938 H926 0.959 . S
C938 C936 1.561 . S
C939 C936 1.526 . S
C939 C940 1.396 . S
C939 C944 1.390 . S
C940 C934 1.465 . S
C940 C939 1.396 . S
C940 C941 1.399 . S
C941 H927 0.929 . S
C941 C940 1.399 . S
C941 C942 1.385 . S
C942 H928 0.931 . S
C942 C941 1.385 . S
C942 C943 1.389 . S
C943 C942 1.389 . S
C943 C944 1.387 . S
C944 H929 0.930 . S
C944 C939 1.390 . S
C944 C943 1.387 . S
H945 C957 0.930 . S
H946 C959 0.930 . S
H947 C960 0.930 . S
H948 C964 0.959 . S
H949 C964 0.959 . S
H950 C964 0.961 . S
H951 C965 0.960 . S
H952 C965 0.961 . S
H953 C965 0.959 . S
H954 C968 0.929 . S
H955 C969 0.931 . S
H956 C971 0.930 . S
C957 H945 0.930 . S
C957 C958 1.399 . S
C957 C962 1.399 . S
C958 C957 1.399 . S
C958 C959 1.376 . S
C959 H946 0.930 . S
C959 C958 1.376 . S
C959 C960 1.388 . S
C960 H947 0.930 . S
C960 C959 1.388 . S
C960 C961 1.390 . S
C961 C960 1.390 . S
C961 C962 1.394 . S
C961 C967 1.465 . S
C962 C957 1.399 . S
C962 C961 1.394 . S
C962 C963 1.516 . S
C963 C962 1.516 . S
C963 C964 1.502 . S
C963 C965 1.561 . S
C963 C966 1.526 . S
C964 H948 0.959 . S
C964 H949 0.959 . S
C964 H950 0.961 . S
C964 C963 1.502 . S
C965 H951 0.960 . S
C965 H952 0.961 . S
C965 H953 0.959 . S
C965 C963 1.561 . S
C966 C963 1.526 . S
C966 C967 1.396 . S
C966 C971 1.390 . S
C967 C961 1.465 . S
C967 C966 1.396 . S
C967 C968 1.399 . S
C968 H954 0.929 . S
C968 C967 1.399 . S
C968 C969 1.385 . S
C969 H955 0.931 . S
C969 C968 1.385 . S
C969 C970 1.389 . S
C970 C969 1.389 . S
C970 C971 1.387 . S
C971 H956 0.930 . S
C971 C966 1.390 . S
C971 C970 1.387 . S
H972 C984 0.930 . S
H973 C986 0.930 . S
H974 C987 0.930 . S
H975 C991 0.959 1_565 S
H976 C991 0.959 . S
H977 C991 0.961 . S
H978 C992 0.960 . S
H979 C992 0.961 . S
H980 C992 0.959 . S
H981 C995 0.929 . S
H982 C996 0.931 . S
H983 C998 0.930 . S
C984 H972 0.930 . S
C984 C985 1.399 . S
C984 C989 1.399 . S
C985 C984 1.399 . S
C985 C986 1.376 . S
C986 H973 0.930 . S
C986 C985 1.376 . S
C986 C987 1.388 . S
C987 H974 0.930 . S
C987 C986 1.388 . S
C987 C988 1.390 . S
C988 C987 1.390 . S
C988 C989 1.394 . S
C988 C994 1.465 . S
C989 C984 1.399 . S
C989 C988 1.394 . S
C989 C990 1.516 . S
C990 C989 1.516 . S
C990 C991 1.502 . S
C990 C992 1.561 . S
C990 C993 1.526 . S
C991 H975 0.959 1_545 S
C991 H976 0.959 . S
C991 H977 0.961 . S
C991 C990 1.502 . S
C992 H978 0.960 . S
C992 H979 0.961 . S
C992 H980 0.959 . S
C992 C990 1.561 . S
C993 C990 1.526 . S
C993 C994 1.396 . S
C993 C998 1.390 . S
C994 C988 1.465 . S
C994 C993 1.396 . S
C994 C995 1.399 . S
C995 H981 0.929 . S
C995 C994 1.399 . S
C995 C996 1.385 . S
C996 H982 0.931 . S
C996 C995 1.385 . S
C996 C997 1.389 . S
C997 C996 1.389 . S
C997 C998 1.387 . S
C998 H983 0.930 . S
C998 C993 1.390 . S
C998 C997 1.387 . S
H999 C1011 0.930 . S
H1000 C1013 0.930 . S
H1001 C1014 0.930 . S
H1002 C1018 0.959 . S
H1003 C1018 0.959 . S
H1004 C1018 0.961 . S
H1005 C1019 0.960 . S
H1006 C1019 0.961 . S
H1007 C1019 0.959 . S
H1008 C1022 0.929 . S
H1009 C1023 0.931 . S
H1010 C1025 0.930 . S
C1011 H999 0.930 . S
C1011 C1012 1.399 . S
C1011 C1016 1.399 . S
C1012 C1011 1.399 . S
C1012 C1013 1.376 . S
C1013 H1000 0.930 . S
C1013 C1012 1.376 . S
C1013 C1014 1.388 . S
C1014 H1001 0.930 . S
C1014 C1013 1.388 . S
C1014 C1015 1.390 . S
C1015 C1014 1.390 . S
C1015 C1016 1.394 . S
C1015 C1021 1.465 . S
C1016 C1011 1.399 . S
C1016 C1015 1.394 . S
C1016 C1017 1.516 . S
C1017 C1016 1.516 . S
C1017 C1018 1.502 . S
C1017 C1019 1.561 . S
C1017 C1020 1.526 . S
C1018 H1002 0.959 . S
C1018 H1003 0.959 . S
C1018 H1004 0.961 . S
C1018 C1017 1.502 . S
C1019 H1005 0.960 . S
C1019 H1006 0.961 . S
C1019 H1007 0.959 . S
C1019 C1017 1.561 . S
C1020 C1017 1.526 . S
C1020 C1021 1.396 . S
C1020 C1025 1.390 . S
C1021 C1015 1.465 . S
C1021 C1020 1.396 . S
C1021 C1022 1.399 . S
C1022 H1008 0.929 . S
C1022 C1021 1.399 . S
C1022 C1023 1.385 . S
C1023 H1009 0.931 . S
C1023 C1022 1.385 . S
C1023 C1024 1.389 . S
C1024 C1023 1.389 . S
C1024 C1025 1.387 . S
C1025 H1010 0.930 . S
C1025 C1020 1.390 . S
C1025 C1024 1.387 . S
H1026 C1038 0.930 . S
H1027 C1040 0.930 . S
H1028 C1041 0.930 . S
H1029 C1045 0.959 1_455 S
H1030 C1045 0.959 . S
H1031 C1045 0.961 . S
H1032 C1046 0.960 . S
H1033 C1046 0.961 1_545 S
H1034 C1046 0.959 1_554 S
H1035 C1049 0.929 . S
H1036 C1050 0.931 . S
H1037 C1052 0.930 . S
C1038 H1026 0.930 . S
C1038 C1039 1.399 . S
C1038 C1043 1.399 . S
C1039 C1038 1.399 . S
C1039 C1040 1.376 . S
C1040 H1027 0.930 . S
C1040 C1039 1.376 . S
C1040 C1041 1.388 . S
C1041 H1028 0.930 . S
C1041 C1040 1.388 . S
C1041 C1042 1.390 . S
C1042 C1041 1.390 . S
C1042 C1043 1.394 . S
C1042 C1048 1.465 1_565 S
C1043 C1038 1.399 . S
C1043 C1042 1.394 . S
C1043 C1044 1.516 1_565 S
C1044 C1043 1.516 1_545 S
C1044 C1045 1.502 . S
C1044 C1046 1.561 1_544 S
C1044 C1047 1.526 . S
C1045 H1029 0.959 1_655 S
C1045 H1030 0.959 . S
C1045 H1031 0.961 . S
C1045 C1044 1.502 . S
C1046 H1032 0.960 . S
C1046 H1033 0.961 1_565 S
C1046 H1034 0.959 1_556 S
C1046 C1044 1.561 1_566 S
C1047 C1044 1.526 . S
C1047 C1048 1.396 . S
C1047 C1052 1.390 . S
C1048 C1042 1.465 1_545 S
C1048 C1047 1.396 . S
C1048 C1049 1.399 . S
C1049 H1035 0.929 . S
C1049 C1048 1.399 . S
C1049 C1050 1.385 . S
C1050 H1036 0.931 . S
C1050 C1049 1.385 . S
C1050 C1051 1.389 . S
C1051 C1050 1.389 . S
C1051 C1052 1.387 . S
C1052 H1037 0.930 . S
C1052 C1047 1.390 . S
C1052 C1051 1.387 . S
H1053 C1065 0.930 . S
H1054 C1067 0.930 . S
H1055 C1068 0.930 1_556 S
H1056 C1072 0.959 . S
H1057 C1072 0.959 . S
H1058 C1072 0.961 . S
H1059 C1073 0.960 . S
H1060 C1073 0.961 . S
H1061 C1073 0.959 . S
H1062 C1076 0.929 . S
H1063 C1077 0.931 . S
H1064 C1079 0.930 . S
C1065 H1053 0.930 . S
C1065 C1066 1.399 1_455 S
C1065 C1070 1.399 . S
C1066 C1065 1.399 1_655 S
C1066 C1067 1.376 . S
C1067 H1054 0.930 . S
C1067 C1066 1.376 . S
C1067 C1068 1.388 1_655 S
C1068 H1055 0.930 1_554 S
C1068 C1067 1.388 1_455 S
C1068 C1069 1.390 . S
C1069 C1068 1.390 . S
C1069 C1070 1.394 . S
C1069 C1075 1.465 . S
C1070 C1065 1.399 . S
C1070 C1069 1.394 . S
C1070 C1071 1.516 . S
C1071 C1070 1.516 . S
C1071 C1072 1.502 . S
C1071 C1073 1.561 . S
C1071 C1074 1.526 . S
C1072 H1056 0.959 . S
C1072 H1057 0.959 . S
C1072 H1058 0.961 . S
C1072 C1071 1.502 . S
C1073 H1059 0.960 . S
C1073 H1060 0.961 . S
C1073 H1061 0.959 . S
C1073 C1071 1.561 . S
C1074 C1071 1.526 . S
C1074 C1075 1.396 . S
C1074 C1079 1.390 . S
C1075 C1069 1.465 . S
C1075 C1074 1.396 . S
C1075 C1076 1.399 1_554 S
C1076 H1062 0.929 . S
C1076 C1075 1.399 1_556 S
C1076 C1077 1.385 . S
C1077 H1063 0.931 . S
C1077 C1076 1.385 . S
C1077 C1078 1.389 1_556 S
C1078 C1077 1.389 1_554 S
C1078 C1079 1.387 . S
C1079 H1064 0.930 . S
C1079 C1074 1.390 . S
C1079 C1078 1.387 . S
H1080 C1092 0.930 . S
H1081 C1094 0.930 . S
H1082 C1095 0.930 . S
H1083 C1099 0.959 . S
H1084 C1099 0.959 . S
H1085 C1099 0.961 . S
H1086 C1100 0.960 . S
H1087 C1100 0.961 . S
H1088 C1100 0.959 . S
H1089 C1103 0.929 . S
H1090 C1104 0.931 . S
H1091 C1106 0.930 . S
C1092 H1080 0.930 . S
C1092 C1093 1.399 . S
C1092 C1097 1.399 1_556 S
C1093 C1092 1.399 . S
C1093 C1094 1.376 1_556 S
C1094 H1081 0.930 . S
C1094 C1093 1.376 1_554 S
C1094 C1095 1.388 . S
C1095 H1082 0.930 . S
C1095 C1094 1.388 . S
C1095 C1096 1.390 . S
C1096 C1095 1.390 . S
C1096 C1097 1.394 . S
C1096 C1102 1.465 . S
C1097 C1092 1.399 1_554 S
C1097 C1096 1.394 . S
C1097 C1098 1.516 . S
C1098 C1097 1.516 . S
C1098 C1099 1.502 1_554 S
C1098 C1100 1.561 . S
C1098 C1101 1.526 . S
C1099 H1083 0.959 . S
C1099 H1084 0.959 . S
C1099 H1085 0.961 . S
C1099 C1098 1.502 1_556 S
C1100 H1086 0.960 . S
C1100 H1087 0.961 . S
C1100 H1088 0.959 . S
C1100 C1098 1.561 . S
C1101 C1098 1.526 . S
C1101 C1102 1.396 . S
C1101 C1106 1.390 . S
C1102 C1096 1.465 . S
C1102 C1101 1.396 . S
C1102 C1103 1.399 . S
C1103 H1089 0.929 . S
C1103 C1102 1.399 . S
C1103 C1104 1.385 . S
C1104 H1090 0.931 . S
C1104 C1103 1.385 . S
C1104 C1105 1.389 . S
C1105 C1104 1.389 . S
C1105 C1106 1.387 . S
C1106 H1091 0.930 . S
C1106 C1101 1.390 . S
C1106 C1105 1.387 . S
H1107 C1119 0.930 . S
H1108 C1121 0.930 . S
H1109 C1122 0.930 . S
H1110 C1126 0.959 . S
H1111 C1126 0.959 . S
H1112 C1126 0.961 . S
H1113 C1127 0.960 . S
H1114 C1127 0.961 . S
H1115 C1127 0.959 . S
H1116 C1130 0.929 . S
H1117 C1131 0.931 . S
H1118 C1133 0.930 . S
C1119 H1107 0.930 . S
C1119 C1120 1.399 1_556 S
C1119 C1124 1.399 . S
C1120 C1119 1.399 1_554 S
C1120 C1121 1.376 . S
C1121 H1108 0.930 . S
C1121 C1120 1.376 . S
C1121 C1122 1.388 . S
C1122 H1109 0.930 . S
C1122 C1121 1.388 . S
C1122 C1123 1.390 . S
C1123 C1122 1.390 . S
C1123 C1124 1.394 1_554 S
C1123 C1129 1.465 1_554 S
C1124 C1119 1.399 . S
C1124 C1123 1.394 1_556 S
C1124 C1125 1.516 . S
C1125 C1124 1.516 . S
C1125 C1126 1.502 . S
C1125 C1127 1.561 . S
C1125 C1128 1.526 . S
C1126 H1110 0.959 . S
C1126 H1111 0.959 . S
C1126 H1112 0.961 . S
C1126 C1125 1.502 . S
C1127 H1113 0.960 . S
C1127 H1114 0.961 . S
C1127 H1115 0.959 . S
C1127 C1125 1.561 . S
C1128 C1125 1.526 . S
C1128 C1129 1.396 . S
C1128 C1133 1.390 . S
C1129 C1123 1.465 1_556 S
C1129 C1128 1.396 . S
C1129 C1130 1.399 1_556 S
C1130 H1116 0.929 . S
C1130 C1129 1.399 1_554 S
C1130 C1131 1.385 . S
C1131 H1117 0.931 . S
C1131 C1130 1.385 . S
C1131 C1132 1.389 1_554 S
C1132 C1131 1.389 1_556 S
C1132 C1133 1.387 . S
C1133 H1118 0.930 . S
C1133 C1128 1.390 . S
C1133 C1132 1.387 . S
H1134 C1146 0.930 . S
H1135 C1148 0.930 . S
H1136 C1149 0.930 . S
H1137 C1153 0.959 . S
H1138 C1153 0.959 . S
H1139 C1153 0.961 . S
H1140 C1154 0.960 . S
H1141 C1154 0.961 . S
H1142 C1154 0.959 . S
H1143 C1157 0.929 . S
H1144 C1158 0.931 1_554 S
H1145 C1160 0.930 . S
C1146 H1134 0.930 . S
C1146 C1147 1.399 . S
C1146 C1151 1.399 . S
C1147 C1146 1.399 . S
C1147 C1148 1.376 1_556 S
C1148 H1135 0.930 . S
C1148 C1147 1.376 1_554 S
C1148 C1149 1.388 . S
C1149 H1136 0.930 . S
C1149 C1148 1.388 . S
C1149 C1150 1.390 1_554 S
C1150 C1149 1.390 1_556 S
C1150 C1151 1.394 . S
C1150 C1156 1.465 . S
C1151 C1146 1.399 . S
C1151 C1150 1.394 . S
C1151 C1152 1.516 . S
C1152 C1151 1.516 . S
C1152 C1153 1.502 . S
C1152 C1154 1.561 . S
C1152 C1155 1.526 . S
C1153 H1137 0.959 . S
C1153 H1138 0.959 . S
C1153 H1139 0.961 . S
C1153 C1152 1.502 . S
C1154 H1140 0.960 . S
C1154 H1141 0.961 . S
C1154 H1142 0.959 . S
C1154 C1152 1.561 . S
C1155 C1152 1.526 . S
C1155 C1156 1.396 . S
C1155 C1160 1.390 . S
C1156 C1150 1.465 . S
C1156 C1155 1.396 . S
C1156 C1157 1.399 1_556 S
C1157 H1143 0.929 . S
C1157 C1156 1.399 1_554 S
C1157 C1158 1.385 1_554 S
C1158 H1144 0.931 1_556 S
C1158 C1157 1.385 1_556 S
C1158 C1159 1.389 . S
C1159 C1158 1.389 . S
C1159 C1160 1.387 . S
C1160 H1145 0.930 . S
C1160 C1155 1.390 . S
C1160 C1159 1.387 . S
H1161 C1173 0.930 . S
H1162 C1175 0.930 . S
H1163 C1176 0.930 . S
H1164 C1180 0.952 1_554 S
H1165 C1180 0.966 . S
H1166 C1180 0.960 1_554 S
H1167 C1181 0.960 . S
H1168 C1181 0.961 . S
H1169 C1181 0.959 . S
H1170 C1184 0.929 . S
H1171 C1185 0.931 . S
H1172 C1187 0.930 . S
C1173 H1161 0.930 . S
C1173 C1174 1.399 . S
C1173 C1178 1.399 1_554 S
C1174 C1173 1.399 . S
C1174 C1175 1.376 . S
C1175 H1162 0.930 . S
C1175 C1174 1.376 . S
C1175 C1176 1.388 . S
C1176 H1163 0.930 . S
C1176 C1175 1.388 . S
C1176 C1177 1.390 . S
C1177 C1176 1.390 . S
C1177 C1178 1.394 1_554 S
C1177 C1183 1.465 1_554 S
C1178 C1173 1.399 1_556 S
C1178 C1177 1.394 1_556 S
C1178 C1179 1.516 . S
C1179 C1178 1.516 . S
C1179 C1180 1.503 . S
C1179 C1181 1.561 . S
C1179 C1182 1.526 . S
C1180 H1164 0.952 1_556 S
C1180 H1165 0.966 . S
C1180 H1166 0.960 1_556 S
C1180 C1179 1.503 . S
C1181 H1167 0.960 . S
C1181 H1168 0.961 . S
C1181 H1169 0.959 . S
C1181 C1179 1.561 . S
C1182 C1179 1.526 . S
C1182 C1183 1.396 . S
C1182 C1187 1.390 . S
C1183 C1177 1.465 1_556 S
C1183 C1182 1.396 . S
C1183 C1184 1.399 . S
C1184 H1170 0.929 . S
C1184 C1183 1.399 . S
C1184 C1185 1.385 . S
C1185 H1171 0.931 . S
C1185 C1184 1.385 . S
C1185 C1186 1.389 . S
C1186 C1185 1.389 . S
C1186 C1187 1.387 . S
C1187 H1172 0.930 . S
C1187 C1182 1.390 . S
C1187 C1186 1.387 . S
H1188 C1200 0.930 . S
H1189 C1202 0.930 . S
H1190 C1203 0.930 . S
H1191 C1207 0.959 1_556 S
H1192 C1207 0.959 . S
H1193 C1207 0.961 . S
H1194 C1208 0.960 . S
H1195 C1208 0.961 . S
H1196 C1208 0.959 . S
H1197 C1211 0.929 . S
H1198 C1212 0.931 . S
H1199 C1214 0.930 1_554 S
C1200 H1188 0.930 . S
C1200 C1201 1.399 . S
C1200 C1205 1.399 . S
C1201 C1200 1.399 . S
C1201 C1202 1.376 . S
C1202 H1189 0.930 . S
C1202 C1201 1.376 . S
C1202 C1203 1.388 . S
C1203 H1190 0.930 . S
C1203 C1202 1.388 . S
C1203 C1204 1.390 . S
C1204 C1203 1.390 . S
C1204 C1205 1.394 . S
C1204 C1210 1.465 . S
C1205 C1200 1.399 . S
C1205 C1204 1.394 . S
C1205 C1206 1.516 . S
C1206 C1205 1.516 . S
C1206 C1207 1.502 1_556 S
C1206 C1208 1.561 1_556 S
C1206 C1209 1.526 . S
C1207 H1191 0.959 1_554 S
C1207 H1192 0.959 . S
C1207 H1193 0.961 . S
C1207 C1206 1.502 1_554 S
C1208 H1194 0.960 . S
C1208 H1195 0.961 . S
C1208 H1196 0.959 . S
C1208 C1206 1.561 1_554 S
C1209 C1206 1.526 . S
C1209 C1210 1.396 . S
C1209 C1214 1.390 . S
C1210 C1204 1.465 . S
C1210 C1209 1.396 . S
C1210 C1211 1.399 . S
C1211 H1197 0.929 . S
C1211 C1210 1.399 . S
C1211 C1212 1.385 . S
C1212 H1198 0.931 . S
C1212 C1211 1.385 . S
C1212 C1213 1.389 . S
C1213 C1212 1.389 . S
C1213 C1214 1.387 . S
C1214 H1199 0.930 1_556 S
C1214 C1209 1.390 . S
C1214 C1213 1.387 . S
H1215 C1227 0.930 . S
H1216 C1229 0.930 . S
H1217 C1230 0.930 . S
H1218 C1234 0.959 . S
H1219 C1234 0.959 . S
H1220 C1234 0.961 . S
H1221 C1235 0.960 . S
H1222 C1235 0.961 . S
H1223 C1235 0.959 . S
H1224 C1238 0.929 . S
H1225 C1239 0.931 . S
H1226 C1241 0.930 . S
C1227 H1215 0.930 . S
C1227 C1228 1.399 . S
C1227 C1232 1.399 . S
C1228 C1227 1.399 . S
C1228 C1229 1.376 1_556 S
C1229 H1216 0.930 . S
C1229 C1228 1.376 1_554 S
C1229 C1230 1.388 . S
C1230 H1217 0.930 . S
C1230 C1229 1.388 . S
C1230 C1231 1.390 1_554 S
C1231 C1230 1.390 1_556 S
C1231 C1232 1.394 . S
C1231 C1237 1.465 1_556 S
C1232 C1227 1.399 . S
C1232 C1231 1.394 . S
C1232 C1233 1.516 . S
C1233 C1232 1.516 . S
C1233 C1234 1.502 . S
C1233 C1235 1.561 . S
C1233 C1236 1.526 . S
C1234 H1218 0.959 . S
C1234 H1219 0.959 . S
C1234 H1220 0.961 . S
C1234 C1233 1.502 . S
C1235 H1221 0.960 . S
C1235 H1222 0.961 . S
C1235 H1223 0.959 . S
C1235 C1233 1.561 . S
C1236 C1233 1.526 . S
C1236 C1237 1.396 1_556 S
C1236 C1241 1.390 . S
C1237 C1231 1.465 1_554 S
C1237 C1236 1.396 1_554 S
C1237 C1238 1.399 . S
C1238 H1224 0.929 . S
C1238 C1237 1.399 . S
C1238 C1239 1.385 . S
C1239 H1225 0.931 . S
C1239 C1238 1.385 . S
C1239 C1240 1.389 1_554 S
C1240 C1239 1.389 1_556 S
C1240 C1241 1.387 . S
C1241 H1226 0.930 . S
C1241 C1236 1.390 . S
C1241 C1240 1.387 . S
H1242 C1254 0.930 . S
H1243 C1256 0.930 . S
H1244 C1257 0.930 . S
H1245 C1261 0.959 . S
H1246 C1261 0.959 . S
H1247 C1261 0.961 . S
H1248 C1262 0.960 . S
H1249 C1262 0.961 . S
H1250 C1262 0.959 . S
H1251 C1265 0.929 . S
H1252 C1266 0.931 . S
H1253 C1268 0.930 . S
C1254 H1242 0.930 . S
C1254 C1255 1.399 . S
C1254 C1259 1.399 . S
C1255 C1254 1.399 . S
C1255 C1256 1.376 . S
C1256 H1243 0.930 . S
C1256 C1255 1.376 . S
C1256 C1257 1.388 . S
C1257 H1244 0.930 . S
C1257 C1256 1.388 . S
C1257 C1258 1.390 . S
C1258 C1257 1.390 . S
C1258 C1259 1.394 . S
C1258 C1264 1.465 . S
C1259 C1254 1.399 . S
C1259 C1258 1.394 . S
C1259 C1260 1.516 . S
C1260 C1259 1.516 . S
C1260 C1261 1.502 . S
C1260 C1262 1.561 . S
C1260 C1263 1.526 . S
C1261 H1245 0.959 . S
C1261 H1246 0.959 . S
C1261 H1247 0.961 . S
C1261 C1260 1.502 . S
C1262 H1248 0.960 . S
C1262 H1249 0.961 . S
C1262 H1250 0.959 . S
C1262 C1260 1.561 . S
C1263 C1260 1.526 . S
C1263 C1264 1.396 . S
C1263 C1268 1.390 . S
C1264 C1258 1.465 . S
C1264 C1263 1.396 . S
C1264 C1265 1.399 . S
C1265 H1251 0.929 . S
C1265 C1264 1.399 . S
C1265 C1266 1.385 . S
C1266 H1252 0.931 . S
C1266 C1265 1.385 . S
C1266 C1267 1.389 . S
C1267 C1266 1.389 . S
C1267 C1268 1.387 . S
C1268 H1253 0.930 . S
C1268 C1263 1.390 . S
C1268 C1267 1.387 . S
H1269 C1281 0.930 . S
H1270 C1283 0.930 . S
H1271 C1284 0.930 . S
H1272 C1288 0.959 . S
H1273 C1288 0.959 . S
H1274 C1288 0.961 . S
H1275 C1289 0.960 . S
H1276 C1289 0.961 . S
H1277 C1289 0.959 . S
H1278 C1292 0.929 . S
H1279 C1293 0.931 . S
H1280 C1295 0.930 . S
C1281 H1269 0.930 . S
C1281 C1282 1.399 . S
C1281 C1286 1.399 . S
C1282 C1281 1.399 . S
C1282 C1283 1.376 . S
C1283 H1270 0.930 . S
C1283 C1282 1.376 . S
C1283 C1284 1.388 . S
C1284 H1271 0.930 . S
C1284 C1283 1.388 . S
C1284 C1285 1.390 . S
C1285 C1284 1.390 . S
C1285 C1286 1.394 . S
C1285 C1291 1.465 . S
C1286 C1281 1.399 . S
C1286 C1285 1.394 . S
C1286 C1287 1.516 . S
C1287 C1286 1.516 . S
C1287 C1288 1.502 . S
C1287 C1289 1.561 . S
C1287 C1290 1.526 . S
C1288 H1272 0.959 . S
C1288 H1273 0.959 . S
C1288 H1274 0.961 . S
C1288 C1287 1.502 . S
C1289 H1275 0.960 . S
C1289 H1276 0.961 . S
C1289 H1277 0.959 . S
C1289 C1287 1.561 . S
C1290 C1287 1.526 . S
C1290 C1291 1.396 . S
C1290 C1295 1.390 . S
C1291 C1285 1.465 . S
C1291 C1290 1.396 . S
C1291 C1292 1.399 . S
C1292 H1278 0.929 . S
C1292 C1291 1.399 . S
C1292 C1293 1.385 . S
C1293 H1279 0.931 . S
C1293 C1292 1.385 . S
C1293 C1294 1.389 . S
C1294 C1293 1.389 . S
C1294 C1295 1.387 . S
C1295 H1280 0.930 . S
C1295 C1290 1.390 . S
C1295 C1294 1.387 . S
H1296 C1308 0.930 . S
H1297 C1310 0.930 . S
H1298 C1311 0.930 . S
H1299 C1315 0.959 . S
H1300 C1315 0.959 . S
H1301 C1315 0.961 . S
H1302 C1316 0.960 . S
H1303 C1316 0.961 . S
H1304 C1316 0.959 . S
H1305 C1319 0.929 . S
H1306 C1320 0.931 . S
H1307 C1322 0.930 . S
C1308 H1296 0.930 . S
C1308 C1309 1.345 1_545 S
C1308 C1313 1.399 . S
C1309 C1308 1.345 1_565 S
C1309 C1310 1.425 . S
C1310 H1297 0.930 . S
C1310 C1309 1.425 . S
C1310 C1311 1.388 . S
C1311 H1298 0.930 . S
C1311 C1310 1.388 . S
C1311 C1312 1.390 . S
C1312 C1311 1.390 . S
C1312 C1313 1.394 1_565 S
C1312 C1318 1.469 . S
C1313 C1308 1.399 . S
C1313 C1312 1.394 1_545 S
C1313 C1314 1.516 . S
C1314 C1313 1.516 . S
C1314 C1315 1.502 . S
C1314 C1316 1.561 . S
C1314 C1317 1.526 . S
C1315 H1299 0.959 . S
C1315 H1300 0.959 . S
C1315 H1301 0.961 . S
C1315 C1314 1.502 . S
C1316 H1302 0.960 . S
C1316 H1303 0.961 . S
C1316 H1304 0.959 . S
C1316 C1314 1.561 . S
C1317 C1314 1.526 . S
C1317 C1318 1.382 1_545 S
C1317 C1322 1.390 . S
C1318 C1312 1.469 . S
C1318 C1317 1.382 1_565 S
C1318 C1319 1.407 . S
C1319 H1305 0.929 . S
C1319 C1318 1.407 . S
C1319 C1320 1.385 . S
C1320 H1306 0.931 . S
C1320 C1319 1.385 . S
C1320 C1321 1.389 1_565 S
C1321 C1320 1.389 1_545 S
C1321 C1322 1.387 . S
C1322 H1307 0.930 . S
C1322 C1317 1.390 . S
C1322 C1321 1.387 . S
H1323 C1335 0.930 . S
H1324 C1337 0.930 . S
H1325 C1338 0.930 . S
H1326 C1342 0.959 . S
H1327 C1342 0.959 . S
H1328 C1342 0.961 . S
H1329 C1343 0.960 . S
H1330 C1343 0.961 . S
H1331 C1343 0.959 . S
H1332 C1346 0.929 . S
H1333 C1347 0.931 . S
H1334 C1349 0.930 . S
C1335 H1323 0.930 . S
C1335 C1336 1.399 . S
C1335 C1340 1.399 . S
C1336 C1335 1.399 . S
C1336 C1337 1.376 . S
C1337 H1324 0.930 . S
C1337 C1336 1.376 . S
C1337 C1338 1.388 . S
C1338 H1325 0.930 . S
C1338 C1337 1.388 . S
C1338 C1339 1.390 . S
C1339 C1338 1.390 . S
C1339 C1340 1.394 . S
C1339 C1345 1.465 . S
C1340 C1335 1.399 . S
C1340 C1339 1.394 . S
C1340 C1341 1.516 . S
C1341 C1340 1.516 . S
C1341 C1342 1.502 . S
C1341 C1343 1.561 . S
C1341 C1344 1.526 . S
C1342 H1326 0.959 . S
C1342 H1327 0.959 . S
C1342 H1328 0.961 . S
C1342 C1341 1.502 . S
C1343 H1329 0.960 . S
C1343 H1330 0.961 . S
C1343 H1331 0.959 . S
C1343 C1341 1.561 . S
C1344 C1341 1.526 . S
C1344 C1345 1.396 . S
C1344 C1349 1.390 . S
C1345 C1339 1.465 . S
C1345 C1344 1.396 . S
C1345 C1346 1.399 . S
C1346 H1332 0.929 . S
C1346 C1345 1.399 . S
C1346 C1347 1.385 . S
C1347 H1333 0.931 . S
C1347 C1346 1.385 . S
C1347 C1348 1.389 . S
C1348 C1347 1.389 . S
C1348 C1349 1.387 . S
C1349 H1334 0.930 . S
C1349 C1344 1.390 . S
C1349 C1348 1.387 . S
H1350 C1362 0.930 . S
H1351 C1364 0.930 . S
H1352 C1365 0.930 . S
H1353 C1369 0.959 . S
H1354 C1369 0.959 . S
H1355 C1369 0.961 . S
H1356 C1370 0.960 . S
H1357 C1370 0.961 . S
H1358 C1370 0.959 . S
H1359 C1373 0.929 . S
H1360 C1374 0.931 . S
H1361 C1376 0.930 . S
C1362 H1350 0.930 . S
C1362 C1363 1.399 . S
C1362 C1367 1.399 . S
C1363 C1362 1.399 . S
C1363 C1364 1.376 . S
C1364 H1351 0.930 . S
C1364 C1363 1.376 . S
C1364 C1365 1.388 . S
C1365 H1352 0.930 . S
C1365 C1364 1.388 . S
C1365 C1366 1.390 . S
C1366 C1365 1.390 . S
C1366 C1367 1.394 . S
C1366 C1372 1.465 . S
C1367 C1362 1.399 . S
C1367 C1366 1.394 . S
C1367 C1368 1.516 . S
C1368 C1367 1.516 . S
C1368 C1369 1.502 . S
C1368 C1370 1.561 . S
C1368 C1371 1.526 . S
C1369 H1353 0.959 . S
C1369 H1354 0.959 . S
C1369 H1355 0.961 . S
C1369 C1368 1.502 . S
C1370 H1356 0.960 . S
C1370 H1357 0.961 . S
C1370 H1358 0.959 . S
C1370 C1368 1.561 . S
C1371 C1368 1.526 . S
C1371 C1372 1.396 . S
C1371 C1376 1.390 . S
C1372 C1366 1.465 . S
C1372 C1371 1.396 . S
C1372 C1373 1.399 . S
C1373 H1359 0.929 . S
C1373 C1372 1.399 . S
C1373 C1374 1.385 . S
C1374 H1360 0.931 . S
C1374 C1373 1.385 . S
C1374 C1375 1.389 . S
C1375 C1374 1.389 . S
C1375 C1376 1.387 . S
C1376 H1361 0.930 . S
C1376 C1371 1.390 . S
C1376 C1375 1.387 . S
H1377 C1389 0.930 . S
H1378 C1391 0.930 . S
H1379 C1392 0.930 . S
H1380 C1396 0.959 . S
H1381 C1396 0.959 . S
H1382 C1396 0.961 . S
H1383 C1397 0.960 . S
H1384 C1397 0.961 . S
H1385 C1397 0.959 . S
H1386 C1400 0.929 . S
H1387 C1401 0.931 . S
H1388 C1403 0.930 . S
C1389 H1377 0.930 . S
C1389 C1390 1.399 . S
C1389 C1394 1.399 . S
C1390 C1389 1.399 . S
C1390 C1391 1.376 . S
C1391 H1378 0.930 . S
C1391 C1390 1.376 . S
C1391 C1392 1.388 . S
C1392 H1379 0.930 . S
C1392 C1391 1.388 . S
C1392 C1393 1.390 . S
C1393 C1392 1.390 . S
C1393 C1394 1.394 . S
C1393 C1399 1.465 . S
C1394 C1389 1.399 . S
C1394 C1393 1.394 . S
C1394 C1395 1.516 . S
C1395 C1394 1.516 . S
C1395 C1396 1.502 . S
C1395 C1397 1.561 . S
C1395 C1398 1.526 . S
C1396 H1380 0.959 . S
C1396 H1381 0.959 . S
C1396 H1382 0.961 . S
C1396 C1395 1.502 . S
C1397 H1383 0.960 . S
C1397 H1384 0.961 . S
C1397 H1385 0.959 . S
C1397 C1395 1.561 . S
C1398 C1395 1.526 . S
C1398 C1399 1.396 . S
C1398 C1403 1.390 . S
C1399 C1393 1.465 . S
C1399 C1398 1.396 . S
C1399 C1400 1.399 . S
C1400 H1386 0.929 . S
C1400 C1399 1.399 . S
C1400 C1401 1.385 . S
C1401 H1387 0.931 . S
C1401 C1400 1.385 . S
C1401 C1402 1.389 . S
C1402 C1401 1.389 . S
C1402 C1403 1.387 . S
C1403 H1388 0.930 . S
C1403 C1398 1.390 . S
C1403 C1402 1.387 . S
H1404 C1416 0.930 . S
H1405 C1418 0.930 . S
H1406 C1419 0.930 . S
H1407 C1423 0.959 . S
H1408 C1423 0.959 . S
H1409 C1423 0.961 . S
H1410 C1424 0.960 . S
H1411 C1424 0.961 . S
H1412 C1424 0.959 . S
H1413 C1427 0.929 . S
H1414 C1428 0.931 . S
H1415 C1430 0.930 . S
C1416 H1404 0.930 . S
C1416 C1417 1.399 . S
C1416 C1421 1.399 . S
C1417 C1416 1.399 . S
C1417 C1418 1.376 . S
C1418 H1405 0.930 . S
C1418 C1417 1.376 . S
C1418 C1419 1.388 . S
C1419 H1406 0.930 . S
C1419 C1418 1.388 . S
C1419 C1420 1.390 . S
C1420 C1419 1.390 . S
C1420 C1421 1.394 . S
C1420 C1426 1.465 . S
C1421 C1416 1.399 . S
C1421 C1420 1.394 . S
C1421 C1422 1.516 . S
C1422 C1421 1.516 . S
C1422 C1423 1.502 . S
C1422 C1424 1.561 . S
C1422 C1425 1.526 . S
C1423 H1407 0.959 . S
C1423 H1408 0.959 . S
C1423 H1409 0.961 . S
C1423 C1422 1.502 . S
C1424 H1410 0.960 . S
C1424 H1411 0.961 . S
C1424 H1412 0.959 . S
C1424 C1422 1.561 . S
C1425 C1422 1.526 . S
C1425 C1426 1.396 . S
C1425 C1430 1.390 . S
C1426 C1420 1.465 . S
C1426 C1425 1.396 . S
C1426 C1427 1.399 . S
C1427 H1413 0.929 . S
C1427 C1426 1.399 . S
C1427 C1428 1.385 . S
C1428 H1414 0.931 . S
C1428 C1427 1.385 . S
C1428 C1429 1.389 . S
C1429 C1428 1.389 . S
C1429 C1430 1.387 . S
C1430 H1415 0.930 . S
C1430 C1425 1.390 . S
C1430 C1429 1.387 . S
H1431 C1443 0.930 . S
H1432 C1445 0.930 . S
H1433 C1446 0.930 . S
H1434 C1450 0.959 . S
H1435 C1450 0.959 . S
H1436 C1450 0.961 . S
H1437 C1451 0.960 . S
H1438 C1451 0.961 . S
H1439 C1451 0.959 . S
H1440 C1454 0.929 . S
H1441 C1455 0.931 . S
H1442 C1457 0.930 . S
C1443 H1431 0.930 . S
C1443 C1444 1.399 . S
C1443 C1448 1.399 . S
C1444 C1443 1.399 . S
C1444 C1445 1.376 . S
C1445 H1432 0.930 . S
C1445 C1444 1.376 . S
C1445 C1446 1.388 . S
C1446 H1433 0.930 . S
C1446 C1445 1.388 . S
C1446 C1447 1.390 . S
C1447 C1446 1.390 . S
C1447 C1448 1.394 . S
C1447 C1453 1.465 . S
C1448 C1443 1.399 . S
C1448 C1447 1.394 . S
C1448 C1449 1.516 . S
C1449 C1448 1.516 . S
C1449 C1450 1.502 . S
C1449 C1451 1.561 . S
C1449 C1452 1.526 . S
C1450 H1434 0.959 . S
C1450 H1435 0.959 . S
C1450 H1436 0.961 . S
C1450 C1449 1.502 . S
C1451 H1437 0.960 . S
C1451 H1438 0.961 . S
C1451 H1439 0.959 . S
C1451 C1449 1.561 . S
C1452 C1449 1.526 . S
C1452 C1453 1.396 . S
C1452 C1457 1.390 . S
C1453 C1447 1.465 . S
C1453 C1452 1.396 . S
C1453 C1454 1.399 . S
C1454 H1440 0.929 . S
C1454 C1453 1.399 . S
C1454 C1455 1.385 . S
C1455 H1441 0.931 . S
C1455 C1454 1.385 . S
C1455 C1456 1.389 . S
C1456 C1455 1.389 . S
C1456 C1457 1.387 . S
C1457 H1442 0.930 . S
C1457 C1452 1.390 . S
C1457 C1456 1.387 . S
H1458 C1470 0.930 . S
H1459 C1472 0.930 . S
H1460 C1473 0.930 . S
H1461 C1477 0.959 . S
H1462 C1477 0.959 . S
H1463 C1477 0.961 . S
H1464 C1478 0.960 . S
H1465 C1478 0.961 . S
H1466 C1478 0.959 . S
H1467 C1481 0.929 . S
H1468 C1482 0.931 . S
H1469 C1484 0.930 . S
C1470 H1458 0.930 . S
C1470 C1471 1.399 . S
C1470 C1475 1.399 . S
C1471 C1470 1.399 . S
C1471 C1472 1.376 . S
C1472 H1459 0.930 . S
C1472 C1471 1.376 . S
C1472 C1473 1.388 . S
C1473 H1460 0.930 . S
C1473 C1472 1.388 . S
C1473 C1474 1.390 . S
C1474 C1473 1.390 . S
C1474 C1475 1.394 . S
C1474 C1480 1.465 . S
C1475 C1470 1.399 . S
C1475 C1474 1.394 . S
C1475 C1476 1.516 . S
C1476 C1475 1.516 . S
C1476 C1477 1.502 . S
C1476 C1478 1.561 . S
C1476 C1479 1.526 . S
C1477 H1461 0.959 . S
C1477 H1462 0.959 . S
C1477 H1463 0.961 . S
C1477 C1476 1.502 . S
C1478 H1464 0.960 . S
C1478 H1465 0.961 . S
C1478 H1466 0.959 . S
C1478 C1476 1.561 . S
C1479 C1476 1.526 . S
C1479 C1480 1.396 . S
C1479 C1484 1.390 . S
C1480 C1474 1.465 . S
C1480 C1479 1.396 . S
C1480 C1481 1.399 . S
C1481 H1467 0.929 . S
C1481 C1480 1.399 . S
C1481 C1482 1.385 . S
C1482 H1468 0.931 . S
C1482 C1481 1.385 . S
C1482 C1483 1.389 . S
C1483 C1482 1.389 . S
C1483 C1484 1.387 . S
C1484 H1469 0.930 . S
C1484 C1479 1.390 . S
C1484 C1483 1.387 . S
C769 C58 1.157 . S
C781 C646 1.333 1_554 S
C796 C140 2.207 . S
C808 C728 2.124 . S
C823 C226 1.399 . S
C835 C560 1.486 . S
C850 C392 2.280 . S
C862 C224 2.326 . S
C877 C476 2.225 . S
C889 C56 2.161 . S
C904 C142 2.015 . S
C916 C308 2.183 . S
C931 C644 1.519 . S
C943 C478 1.610 . S
C958 C730 1.588 . S
C970 C310 1.631 . S
C985 C394 2.233 . S
C997 C562 2.334 1_545 S
C1012 C238 1.330 . S
C1024 C67 1.608 . S
C1039 C154 1.008 . S
C1051 C70 1.298 . S
C1066 C151 2.952 . S
C1078 C235 3.089 . S
C1093 C322 1.615 1_556 S
C1105 C487 2.088 . S
C1120 C319 2.044 . S
C1132 C406 1.738 . S
C1147 C403 2.022 1_556 S
C1159 C490 1.494 . S
C1174 C742 1.816 . S
C1186 C571 2.273 . S
C1201 C658 0.901 . S
C1213 C574 0.702 . S
C1228 C739 2.048 . S
C1240 C655 1.960 . S
C1255 C63 1.335 1_556 S
C1267 C74 1.223 . S
C1282 C158 1.263 1_556 S
C1294 C147 1.253 . S
C1309 C231 1.329 . S
C1321 C242 1.266 . S
C1336 C315 1.305 . S
C1348 C326 1.407 . S
C1363 C399 1.198 . S
C1375 C410 1.270 . S
C1390 C483 1.366 . S
C1402 C494 1.267 . S
C1417 C567 1.233 . S
C1429 C578 1.333 1_554 S
C1444 C651 1.307 . S
C1456 C662 1.205 . S
C1471 C735 1.236 . S
C1483 C746 1.290 . S
