# Generated by pormake.
# Topology una, (4)-cn, num edge types: 1
# Building blocks:
#     Node 0, Type 0, BuildingBlock: NAHDIM_clean_sbu_0, # of connection points: 4
#     Node 1, Type 0, BuildingBlock: NAHDIM_clean_sbu_0, # of connection points: 4
#     Node 2, Type 0, BuildingBlock: NAHDIM_clean_sbu_0, # of connection points: 4
#     Node 3, Type 0, BuildingBlock: NAHDIM_clean_sbu_0, # of connection points: 4
#     Node 4, Type 0, BuildingBlock: NAHDIM_clean_sbu_0, # of connection points: 4
#     Node 5, Type 0, BuildingBlock: NAHDIM_clean_sbu_0, # of connection points: 4
#     Node 6, Type 0, BuildingBlock: NAHDIM_clean_sbu_0, # of connection points: 4
#     Node 7, Type 0, BuildingBlock: NAHDIM_clean_sbu_0, # of connection points: 4
#     Node 8, Type 0, BuildingBlock: NAHDIM_clean_sbu_0, # of connection points: 4
#     Node 9, Type 0, BuildingBlock: NAHDIM_clean_sbu_0, # of connection points: 4
#     Node 10, Type 0, BuildingBlock: NAHDIM_clean_sbu_0, # of connection points: 4
#     Node 11, Type 0, BuildingBlock: NAHDIM_clean_sbu_0, # of connection points: 4
#     Edge 12, Type (0, 0), BuildingBlock: KIFKEQ_clean_linker_1, # of connection points: 2
#     Edge 13, Type (0, 0), BuildingBlock: KIFKEQ_clean_linker_1, # of connection points: 2
#     Edge 14, Type (0, 0), BuildingBlock: KIFKEQ_clean_linker_1, # of connection points: 2
#     Edge 15, Type (0, 0), BuildingBlock: KIFKEQ_clean_linker_1, # of connection points: 2
#     Edge 16, Type (0, 0), BuildingBlock: KIFKEQ_clean_linker_1, # of connection points: 2
#     Edge 17, Type (0, 0), BuildingBlock: KIFKEQ_clean_linker_1, # of connection points: 2
#     Edge 18, Type (0, 0), BuildingBlock: KIFKEQ_clean_linker_1, # of connection points: 2
#     Edge 19, Type (0, 0), BuildingBlock: KIFKEQ_clean_linker_1, # of connection points: 2
#     Edge 20, Type (0, 0), BuildingBlock: KIFKEQ_clean_linker_1, # of connection points: 2
#     Edge 21, Type (0, 0), BuildingBlock: KIFKEQ_clean_linker_1, # of connection points: 2
#     Edge 22, Type (0, 0), BuildingBlock: KIFKEQ_clean_linker_1, # of connection points: 2
#     Edge 23, Type (0, 0), BuildingBlock: KIFKEQ_clean_linker_1, # of connection points: 2
#     Edge 24, Type (0, 0), BuildingBlock: KIFKEQ_clean_linker_1, # of connection points: 2
#     Edge 25, Type (0, 0), BuildingBlock: KIFKEQ_clean_linker_1, # of connection points: 2
#     Edge 26, Type (0, 0), BuildingBlock: KIFKEQ_clean_linker_1, # of connection points: 2
#     Edge 27, Type (0, 0), BuildingBlock: KIFKEQ_clean_linker_1, # of connection points: 2
#     Edge 28, Type (0, 0), BuildingBlock: KIFKEQ_clean_linker_1, # of connection points: 2
#     Edge 29, Type (0, 0), BuildingBlock: KIFKEQ_clean_linker_1, # of connection points: 2
#     Edge 30, Type (0, 0), BuildingBlock: KIFKEQ_clean_linker_1, # of connection points: 2
#     Edge 31, Type (0, 0), BuildingBlock: KIFKEQ_clean_linker_1, # of connection points: 2
#     Edge 32, Type (0, 0), BuildingBlock: KIFKEQ_clean_linker_1, # of connection points: 2
#     Edge 33, Type (0, 0), BuildingBlock: KIFKEQ_clean_linker_1, # of connection points: 2
#     Edge 34, Type (0, 0), BuildingBlock: KIFKEQ_clean_linker_1, # of connection points: 2
#     Edge 35, Type (0, 0), BuildingBlock: KIFKEQ_clean_linker_1, # of connection points: 2
# Relax obj value: 0.122
# Max RMSD: 0.175
# Mean RMSD: 0.173
data_MOF--net-una--node1-NAHDIM_clean_sbu_0--edge1-KIFKEQ_clean_linker_1
_symmetry_space_group_name_H-M    P1
_symmetry_Int_Tables_number       1
_symmetry_cell_setting            triclinic
loop_
_symmetry_equiv_pos_as_xyz
'x, y, z'
_cell_length_a     59.554595
_cell_length_b     58.640602
_cell_length_c     21.918884
_cell_angle_alpha  90.075945
_cell_angle_beta   89.917336
_cell_angle_gamma 120.42739
loop_
_atom_site_label
_atom_site_type_symbol
_atom_site_fract_x
_atom_site_fract_y
_atom_site_fract_z
_atom_type_partial_charge
C0 C 0.08974 0.39763 0.96674 0.0
O1 O 0.10963 0.398 0.93976 0.0
O2 O 0.15251 0.44979 0.95368 0.0
Zn3 Zn 0.13039 0.44307 0.02838 0.0
O4 O 0.12977 0.47591 0.05278 0.0
C5 C 0.16898 0.43918 0.09734 0.0
O6 O 0.18405 0.45601 0.05549 0.0
O7 O 0.0939 0.41467 0.00778 0.0
C8 C 0.14642 0.49354 0.08819 0.0
O9 O 0.16527 0.49066 0.11057 0.0
C10 C 0.17022 0.47205 0.93368 0.0
O11 O 0.17497 0.49382 0.96195 0.0
O12 O 0.14465 0.43069 0.09601 0.0
C13 C 0.72364 0.16171 0.31011 0.0
O14 O 0.71365 0.17449 0.2828 0.0
O15 O 0.659 0.12716 0.25034 0.0
Zn16 Zn 0.69096 0.12644 0.22354 0.0
O17 O 0.70811 0.15299 0.15635 0.0
C18 C 0.66057 0.06983 0.20609 0.0
O19 O 0.6461 0.07119 0.2496 0.0
O20 O 0.71636 0.13825 0.29308 0.0
C21 C 0.70421 0.1469 0.10017 0.0
O22 O 0.68812 0.12222 0.08443 0.0
C23 C 0.6413 0.12311 0.21221 0.0
O24 O 0.64377 0.11771 0.15527 0.0
O25 O 0.68138 0.09067 0.19053 0.0
C26 C 0.59636 0.6879 0.28882 0.0
O27 O 0.5933 0.70348 0.25104 0.0
O28 O 0.55239 0.71013 0.28571 0.0
Zn29 Zn 0.55696 0.69168 0.35758 0.0
O30 O 0.52278 0.65852 0.37485 0.0
C31 C 0.58652 0.73945 0.42981 0.0
O32 O 0.60355 0.74697 0.38516 0.0
O33 O 0.58377 0.6813 0.33882 0.0
C34 C 0.5063 0.6582 0.41231 0.0
O35 O 0.51169 0.68005 0.44113 0.0
C36 C 0.5377 0.71993 0.28969 0.0
O37 O 0.52499 0.71718 0.34072 0.0
O38 O 0.56657 0.71639 0.42877 0.0
C39 C 0.89909 0.60157 0.47991 0.0
O40 O 0.87834 0.59878 0.45203 0.0
O41 O 0.83432 0.55208 0.49122 0.0
Zn42 Zn 0.86088 0.55962 0.55633 0.0
O43 O 0.86155 0.52621 0.57285 0.0
C44 C 0.84023 0.58613 0.6256 0.0
O45 O 0.83811 0.59393 0.57083 0.0
O46 O 0.89631 0.58749 0.52654 0.0
C47 C 0.85557 0.51415 0.62368 0.0
O48 O 0.8487 0.52377 0.6695 0.0
C49 C 0.82884 0.53513 0.44917 0.0
O50 O 0.8406 0.52129 0.44794 0.0
O51 O 0.85044 0.57176 0.63137 0.0
C52 C 0.26942 0.82723 0.80918 0.0
O53 O 0.27819 0.81298 0.78347 0.0
O54 O 0.33341 0.85751 0.74237 0.0
Zn55 Zn 0.30189 0.85964 0.71843 0.0
O56 O 0.2819 0.8318 0.65555 0.0
C57 C 0.33352 0.91581 0.69669 0.0
O58 O 0.34784 0.91445 0.74049 0.0
O59 O 0.27785 0.85064 0.7901 0.0
C60 C 0.2848 0.83601 0.5985 0.0
O61 O 0.30212 0.8596 0.57846 0.0
C62 C 0.35125 0.86268 0.70359 0.0
O63 O 0.34907 0.86991 0.64826 0.0
O64 O 0.31241 0.89512 0.68199 0.0
C65 C 0.40703 0.3188 0.7806 0.0
O66 O 0.42738 0.32221 0.74945 0.0
O67 O 0.43435 0.2782 0.79518 0.0
Zn68 Zn 0.42887 0.29849 0.8618 0.0
O69 O 0.46285 0.33192 0.87918 0.0
C70 C 0.40291 0.25087 0.93426 0.0
O71 O 0.39451 0.23952 0.88085 0.0
O72 O 0.40285 0.30826 0.83312 0.0
C73 C 0.47874 0.33239 0.91854 0.0
O74 O 0.47275 0.31071 0.94876 0.0
C75 C 0.44831 0.26775 0.80328 0.0
O76 O 0.4598 0.2706 0.85614 0.0
O77 O 0.41673 0.27593 0.93724 0.0
C78 C 0.57387 0.86344 0.7222 0.0
O79 O 0.55666 0.87058 0.71059 0.0
O80 O 0.53048 0.86962 0.81676 0.0
Zn81 Zn 0.56327 0.87109 0.84659 0.0
O82 O 0.55403 0.8425 0.90865 0.0
C83 C 0.57611 0.91882 0.90924 0.0
O84 O 0.55136 0.90992 0.8982 0.0
O85 O 0.58099 0.86384 0.77702 0.0
C86 C 0.54627 0.84387 0.96182 0.0
O87 O 0.54361 0.86413 0.97616 0.0
C88 C 0.50785 0.84954 0.82294 0.0
O89 O 0.50516 0.82809 0.84875 0.0
O90 O 0.58653 0.90606 0.88861 0.0
C91 C 0.66259 0.5728 0.12565 0.0
O92 O 0.65287 0.54892 0.14847 0.0
O93 O 0.70158 0.54207 0.11345 0.0
Zn94 Zn 0.68446 0.5514 0.0466 0.0
O95 O 0.65048 0.51913 0.02347 0.0
C96 C 0.73217 0.58191 0.97941 0.0
O97 O 0.74137 0.59157 0.03378 0.0
O98 O 0.67736 0.57914 0.07923 0.0
C99 C 0.64999 0.49877 0.00184 0.0
O100 O 0.67202 0.49913 0.99382 0.0
C101 C 0.71746 0.53401 0.10366 0.0
O102 O 0.72293 0.53092 0.04726 0.0
O103 O 0.70812 0.56492 0.97358 0.0
C104 C 0.07639 0.69124 0.28861 0.0
O105 O 0.09728 0.70955 0.31663 0.0
O106 O 0.14183 0.71039 0.2731 0.0
Zn107 Zn 0.11433 0.68847 0.21164 0.0
O108 O 0.11481 0.6549 0.19658 0.0
C109 C 0.13628 0.73456 0.13629 0.0
O110 O 0.13871 0.74618 0.18915 0.0
O111 O 0.07895 0.68001 0.24162 0.0
C112 C 0.13606 0.65668 0.17967 0.0
O113 O 0.15677 0.68024 0.17279 0.0
C114 C 0.15007 0.70164 0.31514 0.0
O115 O 0.13992 0.676 0.32164 0.0
O116 O 0.12458 0.70945 0.13406 0.0
C117 C 0.43125 0.15526 0.27559 0.0
O118 O 0.45379 0.16909 0.3033 0.0
O119 O 0.46485 0.12248 0.32687 0.0
Zn120 Zn 0.43218 0.12071 0.35876 0.0
O121 O 0.44082 0.14723 0.426 0.0
C122 C 0.41752 0.07026 0.40898 0.0
O123 O 0.44214 0.0789 0.39691 0.0
O124 O 0.41646 0.13125 0.29103 0.0
C125 C 0.44363 0.14296 0.48148 0.0
O126 O 0.44146 0.12029 0.4969 0.0
C127 C 0.48761 0.1391 0.34546 0.0
O128 O 0.49063 0.15692 0.38611 0.0
O129 O 0.4078 0.08438 0.39375 0.0
C130 C 0.31291 0.40761 0.61961 0.0
O131 O 0.30969 0.42335 0.65666 0.0
O132 O 0.28198 0.44476 0.58912 0.0
Zn133 Zn 0.30246 0.43647 0.52919 0.0
O134 O 0.33624 0.46954 0.51046 0.0
C135 C 0.2567 0.41215 0.45521 0.0
O136 O 0.24539 0.40637 0.50899 0.0
O137 O 0.3101 0.40914 0.56255 0.0
C138 C 0.3362 0.48991 0.49094 0.0
O139 O 0.31385 0.48894 0.48328 0.0
C140 C 0.2914 0.46374 0.62714 0.0
O141 O 0.31676 0.47933 0.631 0.0
O142 O 0.2814 0.42394 0.45218 0.0
C143 C 0.90874 0.30453 0.79888 0.0
O144 O 0.88825 0.28747 0.83024 0.0
O145 O 0.84398 0.28694 0.79041 0.0
Zn146 Zn 0.87 0.30701 0.7247 0.0
O147 O 0.87054 0.34125 0.71148 0.0
C148 C 0.84801 0.26011 0.65014 0.0
O149 O 0.84644 0.24859 0.70264 0.0
O150 O 0.90559 0.31489 0.75113 0.0
C151 C 0.85786 0.3441 0.66849 0.0
O152 O 0.84441 0.32436 0.63076 0.0
C153 C 0.81963 0.27608 0.78137 0.0
O154 O 0.81115 0.27857 0.72791 0.0
O155 O 0.85858 0.28513 0.64823 0.0
H156 H 0.14373 0.39995 0.18222 0.0
H157 H 0.22039 0.46032 0.12325 0.0
H158 H 0.16324 0.38785 0.26466 0.0
H159 H 0.23975 0.44906 0.20647 0.0
H160 H 0.27205 0.41566 0.33643 0.0
H161 H 0.24915 0.41739 0.24614 0.0
H162 H 0.18445 0.40527 0.35927 0.0
H163 H 0.20686 0.40238 0.44887 0.0
C164 C 0.16473 0.41064 0.18692 0.0
C165 C 0.18052 0.43115 0.14641 0.0
C166 C 0.17591 0.40378 0.23425 0.0
C167 C 0.2031 0.41744 0.2423 0.0
C168 C 0.21881 0.43769 0.20106 0.0
C169 C 0.20767 0.44435 0.15355 0.0
C170 C 0.25273 0.41288 0.34176 0.0
C171 C 0.24138 0.40918 0.39979 0.0
C172 C 0.23966 0.41406 0.2901 0.0
C173 C 0.21513 0.41196 0.29547 0.0
C174 C 0.2032 0.40677 0.3532 0.0
C175 C 0.21613 0.40523 0.40475 0.0
H176 H 0.84949 0.27757 0.53414 0.0
H177 H 0.81446 0.20665 0.64409 0.0
H178 H 0.82158 0.25264 0.44902 0.0
H179 H 0.78607 0.18181 0.55915 0.0
H180 H 0.74935 0.14196 0.37569 0.0
H181 H 0.78254 0.16484 0.45436 0.0
H182 H 0.77526 0.23402 0.43225 0.0
H183 H 0.74272 0.21156 0.35366 0.0
C184 C 0.83603 0.25659 0.53995 0.0
C185 C 0.83397 0.24416 0.5961 0.0
C186 C 0.81993 0.24234 0.49128 0.0
C187 C 0.80129 0.21536 0.49772 0.0
C188 C 0.80028 0.20255 0.55268 0.0
C189 C 0.8165 0.21682 0.60142 0.0
C190 C 0.75492 0.16207 0.38765 0.0
C191 C 0.74343 0.17496 0.35837 0.0
C192 C 0.77387 0.17513 0.43274 0.0
C193 C 0.78172 0.20133 0.44907 0.0
C194 C 0.77009 0.21406 0.41983 0.0
C195 C 0.75123 0.20106 0.37507 0.0
H196 H 0.54756 0.73496 0.50288 0.0
H197 H 0.62867 0.78784 0.45891 0.0
H198 H 0.54821 0.76838 0.57006 0.0
H199 H 0.62928 0.82123 0.52797 0.0
H200 H 0.61192 0.8502 0.72614 0.0
H201 H 0.61822 0.82195 0.65384 0.0
H202 H 0.55736 0.81792 0.53978 0.0
H203 H 0.55128 0.84641 0.61075 0.0
C204 C 0.56565 0.75356 0.50821 0.0
C205 C 0.58808 0.75879 0.47543 0.0
C206 C 0.56593 0.77272 0.54635 0.0
C207 C 0.58871 0.79734 0.55345 0.0
C208 C 0.61149 0.80234 0.52287 0.0
C209 C 0.6111 0.78328 0.48355 0.0
C210 C 0.60028 0.84375 0.68496 0.0
C211 C 0.58093 0.85033 0.67443 0.0
C212 C 0.60395 0.82768 0.6437 0.0
C213 C 0.58806 0.81767 0.5919 0.0
C214 C 0.56969 0.82533 0.57978 0.0
C215 C 0.56631 0.8417 0.62034 0.0
H216 H 0.80905 0.60783 0.62555 0.0
H217 H 0.84376 0.57585 0.74573 0.0
H218 H 0.78499 0.61154 0.7115 0.0
H219 H 0.81965 0.57956 0.8315 0.0
H220 H 0.78532 0.60644 0.98128 0.0
H221 H 0.81421 0.61221 0.89597 0.0
H222 H 0.74814 0.57677 0.7743 0.0
H223 H 0.71927 0.57099 0.85925 0.0
C224 C 0.81184 0.60194 0.6704 0.0
C225 C 0.82814 0.59133 0.67874 0.0
C226 C 0.79797 0.60397 0.71951 0.0
C227 C 0.80034 0.5957 0.77804 0.0
C228 C 0.81759 0.58628 0.78696 0.0
C229 C 0.83128 0.58402 0.73776 0.0
C230 C 0.77701 0.60024 0.93616 0.0
C231 C 0.74999 0.58812 0.92701 0.0
C232 C 0.79355 0.60343 0.88746 0.0
C233 C 0.78341 0.59487 0.82862 0.0
C234 C 0.75654 0.58378 0.81906 0.0
C235 C 0.73999 0.58033 0.86779 0.0
H236 H 0.24472 0.8497 0.86872 0.0
H237 H 0.2475 0.77759 0.85591 0.0
H238 H 0.20936 0.82857 0.94337 0.0
H239 H 0.21272 0.75684 0.93044 0.0
H240 H 0.13569 0.71681 0.02077 0.0
H241 H 0.16615 0.74077 0.93858 0.0
H242 H 0.20223 0.81147 0.04928 0.0
H243 H 0.1714 0.78767 0.13124 0.0
C244 C 0.23789 0.82943 0.88197 0.0
C245 C 0.24887 0.8153 0.85631 0.0
C246 C 0.21767 0.81736 0.92467 0.0
C247 C 0.20803 0.79094 0.94214 0.0
C248 C 0.21928 0.77702 0.91688 0.0
C249 C 0.23942 0.78903 0.87453 0.0
C250 C 0.14978 0.7376 0.02722 0.0
C251 C 0.15136 0.75023 0.08287 0.0
C252 C 0.16734 0.75128 0.98026 0.0
C253 C 0.18692 0.77785 0.98798 0.0
C254 C 0.18735 0.79102 0.04195 0.0
C255 C 0.16971 0.77733 0.08897 0.0
H256 H 0.3864 0.13314 0.20695 0.0
H257 H 0.45891 0.20616 0.23691 0.0
H258 H 0.37465 0.15497 0.12838 0.0
H259 H 0.44748 0.22756 0.15855 0.0
H260 H 0.4148 0.26763 0.05215 0.0
H261 H 0.41751 0.24304 0.13841 0.0
H262 H 0.38899 0.17343 0.02521 0.0
H263 H 0.38563 0.19786 0.93914 0.0
C264 C 0.39978 0.15379 0.19686 0.0
C265 C 0.42358 0.16791 0.22816 0.0
C266 C 0.39309 0.16625 0.15184 0.0
C267 C 0.41002 0.19306 0.13765 0.0
C268 C 0.43372 0.20707 0.16924 0.0
C269 C 0.44039 0.19468 0.21388 0.0
C270 C 0.40865 0.24695 0.0459 0.0
C271 C 0.40035 0.2348 0.9886 0.0
C272 C 0.41034 0.23289 0.09525 0.0
C273 C 0.40394 0.20643 0.08832 0.0
C274 C 0.39399 0.19376 0.0321 0.0
C275 C 0.39216 0.20781 0.9827 0.0
H276 H 0.18021 0.53623 0.15689 0.0
H277 H 0.10884 0.50451 0.05333 0.0
H278 H 0.17753 0.57543 0.18086 0.0
H279 H 0.1064 0.54384 0.0767 0.0
H280 H 0.0965 0.60514 0.18442 0.0
H281 H 0.09899 0.56556 0.16425 0.0
H282 H 0.18134 0.61422 0.12762 0.0
H283 H 0.17898 0.65379 0.14852 0.0
C284 C 0.16397 0.53761 0.1392 0.0
C285 C 0.14474 0.51724 0.10318 0.0
C286 C 0.16252 0.56013 0.15268 0.0
C287 C 0.14176 0.56272 0.13065 0.0
C288 C 0.12246 0.54228 0.09495 0.0
C289 C 0.12396 0.51982 0.08127 0.0
C290 C 0.11515 0.6074 0.17217 0.0
C291 C 0.13753 0.63262 0.16797 0.0
C292 C 0.11654 0.58472 0.16032 0.0
C293 C 0.14035 0.58677 0.14426 0.0
C294 C 0.16277 0.61198 0.14055 0.0
C295 C 0.16136 0.63466 0.15217 0.0
H296 H 0.60076 0.11681 0.14163 0.0
H297 H 0.63048 0.1342 0.326 0.0
H298 H 0.56391 0.12139 0.17251 0.0
H299 H 0.59335 0.13825 0.35707 0.0
H300 H 0.53881 0.17129 0.37574 0.0
H301 H 0.57593 0.16758 0.34259 0.0
H302 H 0.52466 0.099 0.2345 0.0
H303 H 0.48763 0.10298 0.2666 0.0
C304 C 0.59937 0.12146 0.18882 0.0
C305 C 0.61857 0.12517 0.23134 0.0
C306 C 0.57818 0.12397 0.20656 0.0
C307 C 0.57573 0.13023 0.26721 0.0
C308 C 0.59487 0.1338 0.30979 0.0
C309 C 0.61606 0.13129 0.29206 0.0
C310 C 0.53547 0.15549 0.34469 0.0
C311 C 0.51027 0.13744 0.32382 0.0
C312 C 0.55672 0.15326 0.32602 0.0
C313 C 0.55323 0.13294 0.28609 0.0
C314 C 0.52806 0.11506 0.26473 0.0
C315 C 0.50681 0.11729 0.28336 0.0
H316 H 0.34331 0.53834 0.46067 0.0
H317 H 0.38528 0.49718 0.49271 0.0
H318 H 0.38438 0.57904 0.4407 0.0
H319 H 0.42629 0.53793 0.47318 0.0
H320 H 0.49089 0.60874 0.36851 0.0
H321 H 0.44957 0.56808 0.38643 0.0
H322 H 0.42386 0.61112 0.49865 0.0
H323 H 0.46507 0.65186 0.48046 0.0
C324 C 0.36127 0.53796 0.46343 0.0
C325 C 0.36104 0.51453 0.47827 0.0
C326 C 0.38479 0.56131 0.45232 0.0
C327 C 0.40853 0.56165 0.45541 0.0
C328 C 0.40828 0.53819 0.46985 0.0
C329 C 0.38479 0.5149 0.48135 0.0
C330 C 0.47643 0.60955 0.39697 0.0
C331 C 0.48127 0.63353 0.42311 0.0
C332 C 0.45282 0.58623 0.40746 0.0
C333 C 0.43351 0.58643 0.44396 0.0
C334 C 0.43829 0.61042 0.46981 0.0
C335 C 0.46196 0.63371 0.45966 0.0
H336 H 0.86611 0.48769 0.53609 0.0
H337 H 0.84621 0.48442 0.7269 0.0
H338 H 0.86693 0.44679 0.5472 0.0
H339 H 0.84677 0.44328 0.73768 0.0
H340 H 0.879 0.38661 0.74568 0.0
H341 H 0.87856 0.42779 0.73498 0.0
H342 H 0.83595 0.39937 0.56605 0.0
H343 H 0.83656 0.35828 0.57632 0.0
C344 C 0.86188 0.47824 0.5804 0.0
C345 C 0.85611 0.48934 0.63065 0.0
C346 C 0.86221 0.45472 0.58663 0.0
C347 C 0.85689 0.44181 0.64327 0.0
C348 C 0.85122 0.45294 0.6936 0.0
C349 C 0.85077 0.47643 0.68733 0.0
C350 C 0.86958 0.38916 0.70617 0.0
C351 C 0.85784 0.36918 0.66179 0.0
C352 C 0.86919 0.41268 0.70028 0.0
C353 C 0.85721 0.4168 0.64971 0.0
C354 C 0.84557 0.39687 0.60521 0.0
C355 C 0.84581 0.37329 0.61127 0.0
H356 H 0.36017 0.84507 0.81124 0.0
H357 H 0.39403 0.8752 0.63388 0.0
H358 H 0.39792 0.84144 0.83871 0.0
H359 H 0.43161 0.87128 0.66125 0.0
H360 H 0.50692 0.88952 0.76134 0.0
H361 H 0.46895 0.89234 0.73208 0.0
H362 H 0.41851 0.81526 0.81046 0.0
H363 H 0.45652 0.81249 0.84038 0.0
C364 C 0.37563 0.85087 0.77807 0.0
C365 C 0.37412 0.86047 0.7204 0.0
C366 C 0.39717 0.84863 0.79369 0.0
C367 C 0.41771 0.85605 0.7521 0.0
C368 C 0.4162 0.86566 0.69448 0.0
C369 C 0.39462 0.86779 0.67873 0.0
C370 C 0.48774 0.87312 0.7722 0.0
C371 C 0.48474 0.85078 0.80327 0.0
C372 C 0.46599 0.8747 0.75515 0.0
C373 C 0.44076 0.85404 0.76904 0.0
C374 C 0.43773 0.83162 0.79974 0.0
C375 C 0.4595 0.82997 0.81652 0.0
H376 H 0.49472 0.38203 0.87491 0.0
H377 H 0.51945 0.33837 0.98772 0.0
H378 H 0.53623 0.4225 0.89353 0.0
H379 H 0.56082 0.37883 0.00638 0.0
H380 H 0.64188 0.45028 0.96857 0.0
H381 H 0.60046 0.41027 0.94717 0.0
H382 H 0.5599 0.45265 0.98142 0.0
H383 H 0.60134 0.49278 0.00263 0.0
C384 C 0.50898 0.38106 0.90367 0.0
C385 C 0.50379 0.35699 0.92985 0.0
C386 C 0.53268 0.40425 0.91455 0.0
C387 C 0.55176 0.40379 0.95132 0.0
C388 C 0.54659 0.37972 0.97731 0.0
C389 C 0.52283 0.35659 0.96689 0.0
C390 C 0.62416 0.45112 0.97138 0.0
C391 C 0.6249 0.4747 0.98742 0.0
C392 C 0.60043 0.42815 0.95944 0.0
C393 C 0.57696 0.42833 0.96281 0.0
C394 C 0.57771 0.45199 0.978 0.0
C395 C 0.60143 0.47492 0.99043 0.0
H396 H 0.23864 0.43985 0.61857 0.0
H397 H 0.30407 0.49653 0.7262 0.0
H398 H 0.20899 0.44435 0.68707 0.0
H399 H 0.2742 0.50048 0.79599 0.0
H400 H 0.21357 0.51525 0.88631 0.0
H401 H 0.24277 0.51545 0.80746 0.0
H402 H 0.19422 0.43064 0.78974 0.0
H403 H 0.16493 0.43049 0.86679 0.0
C404 C 0.24671 0.45327 0.65695 0.0
C405 C 0.2737 0.46762 0.66739 0.0
C406 C 0.22969 0.45579 0.6963 0.0
C407 C 0.23921 0.47256 0.74732 0.0
C408 C 0.26627 0.48757 0.75677 0.0
C409 C 0.28336 0.48516 0.71706 0.0
C410 C 0.20901 0.49672 0.86498 0.0
C411 C 0.18697 0.47286 0.88291 0.0
C412 C 0.22583 0.49682 0.82017 0.0
C413 C 0.22084 0.47306 0.79239 0.0
C414 C 0.19846 0.44935 0.8095 0.0
C415 C 0.18172 0.44925 0.85407 0.0
H416 H 0.73941 0.19924 0.118 0.0
H417 H 0.70187 0.14053 0.97628 0.0
H418 H 0.76551 0.23213 0.04128 0.0
H419 H 0.72834 0.17343 0.89963 0.0
H420 H 0.76661 0.24503 0.77333 0.0
H421 H 0.73674 0.21513 0.85094 0.0
H422 H 0.80139 0.23886 0.97432 0.0
H423 H 0.83109 0.26889 0.89752 0.0
C424 C 0.73663 0.19337 0.07047 0.0
C425 C 0.71873 0.16721 0.05325 0.0
C426 C 0.75166 0.2122 0.02657 0.0
C427 C 0.74909 0.20531 0.96453 0.0
C428 C 0.73058 0.17938 0.94708 0.0
C429 C 0.71555 0.1605 0.99103 0.0
C430 C 0.77438 0.24404 0.81724 0.0
C431 C 0.80121 0.25926 0.82923 0.0
C432 C 0.7573 0.22682 0.8615 0.0
C433 C 0.76674 0.22465 0.91863 0.0
C434 C 0.79348 0.24035 0.93101 0.0
C435 C 0.81053 0.25744 0.88681 0.0
H436 H 0.50623 0.74115 0.28062 0.0
H437 H 0.5659 0.73434 0.18406 0.0
H438 H 0.50541 0.76897 0.19913 0.0
H439 H 0.56562 0.76272 0.10362 0.0
H440 H 0.54527 0.79724 0.94431 0.0
H441 H 0.54033 0.76512 0.02136 0.0
H442 H 0.53294 0.81308 0.16089 0.0
H443 H 0.5371 0.84478 0.08363 0.0
C444 C 0.51914 0.74556 0.24197 0.0
C445 C 0.53619 0.73562 0.23888 0.0
C446 C 0.51877 0.76162 0.19544 0.0
C447 C 0.53552 0.76817 0.14496 0.0
C448 C 0.5522 0.75777 0.14139 0.0
C449 C 0.55248 0.74162 0.18774 0.0
C450 C 0.54239 0.80082 0.99138 0.0
C451 C 0.54172 0.82362 0.00795 0.0
C452 C 0.5397 0.78247 0.03558 0.0
C453 C 0.53642 0.7866 0.09735 0.0
C454 C 0.53511 0.80911 0.11364 0.0
C455 C 0.53765 0.82738 0.06938 0.0
H456 H 0.81151 0.50013 0.35371 0.0
H457 H 0.80438 0.56344 0.43467 0.0
H458 H 0.78218 0.49656 0.2717 0.0
H459 H 0.77574 0.56032 0.35229 0.0
H460 H 0.70832 0.53535 0.22534 0.0
H461 H 0.73298 0.53244 0.31042 0.0
H462 H 0.78278 0.52198 0.18387 0.0
H463 H 0.75766 0.52418 0.09877 0.0
C464 C 0.80367 0.51325 0.35407 0.0
C465 C 0.81031 0.5321 0.40063 0.0
C466 C 0.78697 0.51128 0.30695 0.0
C467 C 0.77661 0.52815 0.30544 0.0
C468 C 0.78301 0.54672 0.35255 0.0
C469 C 0.79961 0.54863 0.39962 0.0
C470 C 0.72438 0.53219 0.21566 0.0
C471 C 0.73117 0.53021 0.15528 0.0
C472 C 0.7386 0.53065 0.26443 0.0
C473 C 0.76001 0.52724 0.25393 0.0
C474 C 0.76625 0.52437 0.19359 0.0
C475 C 0.75194 0.52578 0.14477 0.0
H476 H 0.17394 0.75538 0.31375 0.0
H477 H 0.17393 0.69064 0.40799 0.0
H478 H 0.20815 0.78672 0.38071 0.0
H479 H 0.20874 0.72226 0.47454 0.0
H480 H 0.24539 0.78624 0.62608 0.0
H481 H 0.21425 0.75302 0.55621 0.0
H482 H 0.25394 0.80473 0.40389 0.0
H483 H 0.2848 0.83829 0.47394 0.0
C484 C 0.18136 0.74782 0.34854 0.0
C485 C 0.17114 0.72049 0.35569 0.0
C486 C 0.20115 0.76584 0.38661 0.0
C487 C 0.21126 0.75699 0.43271 0.0
C488 C 0.20119 0.72966 0.43972 0.0
C489 C 0.18131 0.71157 0.40153 0.0
C490 C 0.24762 0.79047 0.57763 0.0
C491 C 0.26742 0.81502 0.55556 0.0
C492 C 0.22985 0.77133 0.53757 0.0
C493 C 0.23153 0.77631 0.47458 0.0
C494 C 0.25189 0.8005 0.45233 0.0
C495 C 0.26965 0.81967 0.49241 0.0
H496 H 0.47542 0.24156 0.80637 0.0
H497 H 0.42552 0.25654 0.69086 0.0
H498 H 0.47713 0.21292 0.72786 0.0
H499 H 0.42679 0.22756 0.61321 0.0
H500 H 0.4519 0.19267 0.46352 0.0
H501 H 0.45577 0.22439 0.54056 0.0
H502 H 0.44792 0.16978 0.68259 0.0
H503 H 0.44462 0.13821 0.60546 0.0
C504 C 0.46487 0.2388 0.76422 0.0
C505 C 0.4503 0.25128 0.75489 0.0
C506 C 0.46574 0.22228 0.71941 0.0
C507 C 0.45208 0.21795 0.66435 0.0
C508 C 0.43784 0.23077 0.65475 0.0
C509 C 0.43698 0.24727 0.69946 0.0
C510 C 0.45119 0.18748 0.51118 0.0
C511 C 0.44776 0.16284 0.5284 0.0
C512 C 0.45328 0.20563 0.55532 0.0
C513 C 0.45193 0.19952 0.61767 0.0
C514 C 0.44928 0.17518 0.63493 0.0
C515 C 0.44725 0.15703 0.59072 0.0
H516 H 0.07471 0.36719 0.86373 0.0
H517 H 0.04419 0.3872 0.02094 0.0
H518 H 0.03065 0.34077 0.82306 0.0
H519 H 0.00022 0.36077 0.98019 0.0
H520 H 0.92231 0.29492 0.9108 0.0
H521 H 0.96609 0.31371 0.953 0.0
H522 H -0.00126 0.35361 0.78232 0.0
H523 H 0.95504 0.33491 0.73998 0.0
C524 C 0.05859 0.36567 0.89 0.0
C525 C 0.06293 0.37943 0.94534 0.0
C526 C 0.03341 0.35065 0.86655 0.0
C527 C 0.01209 0.34883 0.89838 0.0
C528 C 0.0163 0.36166 0.95495 0.0
C529 C 0.04148 0.37691 0.97807 0.0
C530 C 0.93883 0.30743 0.88199 0.0
C531 C 0.93522 0.31361 0.82219 0.0
C532 C 0.96386 0.31825 0.90628 0.0
C533 C 0.98575 0.33517 0.871 0.0
C534 C 0.9822 0.34044 0.81038 0.0
C535 C 0.95718 0.32986 0.78628 0.0
H536 H 0.55783 0.94763 0.96522 0.0
H537 H 0.62659 0.94086 0.94932 0.0
H538 H 0.57974 0.98255 0.04035 0.0
H539 H 0.64854 0.97593 0.02541 0.0
H540 H 0.68442 0.06142 0.10896 0.0
H541 H 0.66524 0.02431 0.03781 0.0
H542 H 0.59513 0.98649 0.14668 0.0
H543 H 0.6141 0.02366 0.2175 0.0
C544 C 0.57767 0.95364 0.97759 0.0
C545 C 0.59044 0.9414 0.95134 0.0
C546 C 0.59014 0.9735 0.02114 0.0
C547 C 0.61572 0.9817 0.03942 0.0
C548 C 0.62881 0.96999 0.01215 0.0
C549 C 0.61625 0.94994 0.96861 0.0
C550 C 0.66506 0.045 0.11827 0.0
C551 C 0.65066 0.04563 0.16857 0.0
C552 C 0.65412 0.02372 0.07755 0.0
C553 C 0.62856 0.00271 0.08622 0.0
C554 C 0.61471 0.00268 0.13824 0.0
C555 C 0.62565 0.02389 0.17903 0.0
H556 H 0.62698 0.56309 0.21503 0.0
H557 H 0.68327 0.62528 0.09856 0.0
H558 H 0.61459 0.59341 0.25759 0.0
H559 H 0.67146 0.656 0.14273 0.0
H560 H 0.61727 0.68994 0.17666 0.0
H561 H 0.63592 0.66392 0.1404 0.0
H562 H 0.62818 0.63121 0.32104 0.0
H563 H 0.60862 0.6566 0.35682 0.0
C564 C 0.63694 0.58334 0.19899 0.0
C565 C 0.65599 0.59172 0.15312 0.0
C566 C 0.62999 0.60084 0.22383 0.0
C567 C 0.64206 0.62722 0.20375 0.0
C568 C 0.66152 0.63574 0.15868 0.0
C569 C 0.66835 0.61816 0.1335 0.0
C570 C 0.61984 0.67746 0.2089 0.0
C571 C 0.61117 0.6751 0.26947 0.0
C572 C 0.63069 0.66261 0.18813 0.0
C573 C 0.63331 0.64521 0.2276 0.0
C574 C 0.62591 0.64396 0.28906 0.0
C575 C 0.61487 0.65867 0.30971 0.0
H576 H 0.0646 0.7043 0.39897 0.0
H577 H 0.02913 0.65723 0.23756 0.0
H578 H 0.02169 0.68602 0.44589 0.0
H579 H 0.9863 0.63897 0.28468 0.0
H580 H 0.91124 0.62652 0.36938 0.0
H581 H 0.95423 0.65165 0.32242 0.0
H582 H 0.98905 0.64069 0.48408 0.0
H583 H 0.94615 0.61563 0.53122 0.0
C584 C 0.04765 0.69029 0.37322 0.0
C585 C 0.05027 0.68208 0.31468 0.0
C586 C 0.02311 0.67975 0.40025 0.0
C587 C 0.0007 0.66101 0.36903 0.0
C588 C 0.00322 0.65356 0.30961 0.0
C589 C 0.02777 0.6639 0.28279 0.0
C590 C 0.92809 0.62974 0.39522 0.0
C591 C 0.92528 0.61894 0.45388 0.0
C592 C 0.95266 0.64401 0.36817 0.0
C593 C 0.97493 0.64801 0.3995 0.0
C594 C 0.97224 0.6381 0.45906 0.0
C595 C 0.94766 0.62362 0.48589 0.0
H596 H 0.36811 0.04952 0.45573 0.0
H597 H 0.43373 0.03714 0.44931 0.0
H598 H 0.34621 0.01279 0.52792 0.0
H599 H 0.4119 0.00069 0.52078 0.0
H600 H 0.38164 0.9602 0.70199 0.0
H601 H 0.40022 -0.0026 0.63142 0.0
H602 H 0.32725 0.96304 0.53411 0.0
H603 H 0.30847 0.92573 0.60493 0.0
C604 C 0.37772 0.03881 0.46911 0.0
C605 C 0.40274 0.04638 0.44713 0.0
C606 C 0.36519 0.01783 0.51041 0.0
C607 C 0.37757 0.00421 0.53067 0.0
C608 C 0.40215 0.01122 0.50701 0.0
C609 C 0.41456 0.032 0.46567 0.0
C610 C 0.36941 0.9607 0.66611 0.0
C611 C 0.34364 0.9399 0.6588 0.0
C612 C 0.38012 0.98192 0.62543 0.0
C613 C 0.36527 0.9829 0.57682 0.0
C614 C 0.33912 0.96279 0.57121 0.0
C615 C 0.32843 0.94142 0.61168 0.0
H616 H 0.32354 0.37414 0.55533 0.0
H617 H 0.32354 0.40204 0.73797 0.0
H618 H 0.34298 0.34904 0.5937 0.0
H619 H 0.34346 0.37744 0.77598 0.0
H620 H 0.36404 0.3161 0.83367 0.0
H621 H 0.33759 0.33375 0.794 0.0
H622 H 0.38572 0.36085 0.63231 0.0
H623 H 0.41172 0.34283 0.67116 0.0
C624 C 0.3275 0.37477 0.60371 0.0
C625 C 0.32222 0.39029 0.64351 0.0
C626 C 0.33876 0.36049 0.62563 0.0
C627 C 0.34499 0.36144 0.68779 0.0
C628 C 0.3387 0.37608 0.72794 0.0
C629 C 0.32742 0.39034 0.70605 0.0
C630 C 0.36882 0.32564 0.78943 0.0
C631 C 0.39006 0.32819 0.7557 0.0
C632 C 0.35374 0.33584 0.76684 0.0
C633 C 0.35957 0.34873 0.71004 0.0
C634 C 0.38045 0.3507 0.6758 0.0
C635 C 0.3955 0.34053 0.69834 0.0
loop_
_geom_bond_atom_site_label_1
_geom_bond_atom_site_label_2
_geom_bond_distance
_geom_bond_site_symmetry_2
_ccdc_geom_bond_type
C0 O1 1.160 . S
C0 O7 1.185 1_556 S
O1 C0 1.160 . S
O2 Zn3 1.899 1_556 S
O2 C10 1.284 . S
Zn3 O2 1.899 1_554 S
Zn3 O4 2.032 . S
Zn3 O7 2.086 . S
Zn3 O12 1.977 . S
O4 Zn3 2.032 . S
O4 C8 1.278 . S
C5 O6 1.203 . S
C5 O12 1.267 . S
O6 C5 1.203 . S
O7 C0 1.185 1_554 S
O7 Zn3 2.086 . S
C8 O4 1.278 . S
C8 O9 1.211 . S
O9 C8 1.211 . S
C10 O2 1.284 . S
C10 O11 1.273 . S
O11 C10 1.273 . S
O12 Zn3 1.977 . S
O12 C5 1.267 . S
C13 O14 1.160 . S
C13 O20 1.185 . S
O14 C13 1.160 . S
O15 Zn16 1.899 . S
O15 C23 1.284 . S
Zn16 O15 1.899 . S
Zn16 O17 2.032 . S
Zn16 O20 2.086 . S
Zn16 O25 1.977 . S
O17 Zn16 2.032 . S
O17 C21 1.278 . S
C18 O19 1.203 . S
C18 O25 1.267 . S
O19 C18 1.203 . S
O20 C13 1.185 . S
O20 Zn16 2.086 . S
C21 O17 1.278 . S
C21 O22 1.211 . S
O22 C21 1.211 . S
C23 O15 1.284 . S
C23 O24 1.273 . S
O24 C23 1.273 . S
O25 Zn16 1.977 . S
O25 C18 1.267 . S
C26 O27 1.160 . S
C26 O33 1.185 . S
O27 C26 1.160 . S
O28 Zn29 1.899 . S
O28 C36 1.284 . S
Zn29 O28 1.899 . S
Zn29 O30 2.032 . S
Zn29 O33 2.086 . S
Zn29 O38 1.977 . S
O30 Zn29 2.032 . S
O30 C34 1.278 . S
C31 O32 1.203 . S
C31 O38 1.267 . S
O32 C31 1.203 . S
O33 C26 1.185 . S
O33 Zn29 2.086 . S
C34 O30 1.278 . S
C34 O35 1.211 . S
O35 C34 1.211 . S
C36 O28 1.284 . S
C36 O37 1.273 . S
O37 C36 1.273 . S
O38 Zn29 1.977 . S
O38 C31 1.267 . S
C39 O40 1.160 . S
C39 O46 1.185 . S
O40 C39 1.160 . S
O41 Zn42 1.899 . S
O41 C49 1.284 . S
Zn42 O41 1.899 . S
Zn42 O43 2.032 . S
Zn42 O46 2.086 . S
Zn42 O51 1.977 . S
O43 Zn42 2.032 . S
O43 C47 1.278 . S
C44 O45 1.203 . S
C44 O51 1.267 . S
O45 C44 1.203 . S
O46 C39 1.185 . S
O46 Zn42 2.086 . S
C47 O43 1.278 . S
C47 O48 1.211 . S
O48 C47 1.211 . S
C49 O41 1.284 . S
C49 O50 1.273 . S
O50 C49 1.273 . S
O51 Zn42 1.977 . S
O51 C44 1.267 . S
C52 O53 1.160 . S
C52 O59 1.185 . S
O53 C52 1.160 . S
O54 Zn55 1.899 . S
O54 C62 1.284 . S
Zn55 O54 1.899 . S
Zn55 O56 2.032 . S
Zn55 O59 2.086 . S
Zn55 O64 1.977 . S
O56 Zn55 2.032 . S
O56 C60 1.278 . S
C57 O58 1.203 . S
C57 O64 1.267 . S
O58 C57 1.203 . S
O59 C52 1.185 . S
O59 Zn55 2.086 . S
C60 O56 1.278 . S
C60 O61 1.211 . S
O61 C60 1.211 . S
C62 O54 1.284 . S
C62 O63 1.273 . S
O63 C62 1.273 . S
O64 Zn55 1.977 . S
O64 C57 1.267 . S
C65 O66 1.160 . S
C65 O72 1.185 . S
O66 C65 1.160 . S
O67 Zn68 1.899 . S
O67 C75 1.284 . S
Zn68 O67 1.899 . S
Zn68 O69 2.032 . S
Zn68 O72 2.086 . S
Zn68 O77 1.977 . S
O69 Zn68 2.032 . S
O69 C73 1.278 . S
C70 O71 1.203 . S
C70 O77 1.267 . S
O71 C70 1.203 . S
O72 C65 1.185 . S
O72 Zn68 2.086 . S
C73 O69 1.278 . S
C73 O74 1.211 . S
O74 C73 1.211 . S
C75 O67 1.284 . S
C75 O76 1.273 . S
O76 C75 1.273 . S
O77 Zn68 1.977 . S
O77 C70 1.267 . S
C78 O79 1.160 . S
C78 O85 1.185 . S
O79 C78 1.160 . S
O80 Zn81 1.899 . S
O80 C88 1.284 . S
Zn81 O80 1.899 . S
Zn81 O82 2.032 . S
Zn81 O85 2.086 . S
Zn81 O90 1.977 . S
O82 Zn81 2.032 . S
O82 C86 1.278 . S
C83 O84 1.203 . S
C83 O90 1.267 . S
O84 C83 1.203 . S
O85 C78 1.185 . S
O85 Zn81 2.086 . S
C86 O82 1.278 . S
C86 O87 1.211 1_556 S
O87 C86 1.211 1_554 S
C88 O80 1.284 . S
C88 O89 1.273 . S
O89 C88 1.273 . S
O90 Zn81 1.977 . S
O90 C83 1.267 . S
C91 O92 1.160 . S
C91 O98 1.185 . S
O92 C91 1.160 . S
O93 Zn94 1.899 . S
O93 C101 1.284 . S
Zn94 O93 1.899 . S
Zn94 O95 2.032 . S
Zn94 O98 2.086 . S
Zn94 O103 1.977 1_554 S
O95 Zn94 2.032 . S
O95 C99 1.278 . S
C96 O97 1.203 . S
C96 O103 1.267 . S
O97 C96 1.203 . S
O98 C91 1.185 . S
O98 Zn94 2.086 . S
C99 O95 1.278 . S
C99 O100 1.211 1_554 S
O100 C99 1.211 1_556 S
C101 O93 1.284 . S
C101 O102 1.273 . S
O102 C101 1.273 . S
O103 Zn94 1.977 1_556 S
O103 C96 1.267 . S
C104 O105 1.160 . S
C104 O111 1.185 . S
O105 C104 1.160 . S
O106 Zn107 1.899 . S
O106 C114 1.284 . S
Zn107 O106 1.899 . S
Zn107 O108 2.032 . S
Zn107 O111 2.086 . S
Zn107 O116 1.977 . S
O108 Zn107 2.032 . S
O108 C112 1.278 . S
C109 O110 1.203 . S
C109 O116 1.267 . S
O110 C109 1.203 . S
O111 C104 1.185 . S
O111 Zn107 2.086 . S
C112 O108 1.278 . S
C112 O113 1.211 . S
O113 C112 1.211 . S
C114 O106 1.284 . S
C114 O115 1.273 . S
O115 C114 1.273 . S
O116 Zn107 1.977 . S
O116 C109 1.267 . S
C117 O118 1.160 . S
C117 O124 1.185 . S
O118 C117 1.160 . S
O119 Zn120 1.899 . S
O119 C127 1.284 . S
Zn120 O119 1.899 . S
Zn120 O121 2.032 . S
Zn120 O124 2.086 . S
Zn120 O129 1.977 . S
O121 Zn120 2.032 . S
O121 C125 1.278 . S
C122 O123 1.203 . S
C122 O129 1.267 . S
O123 C122 1.203 . S
O124 C117 1.185 . S
O124 Zn120 2.086 . S
C125 O121 1.278 . S
C125 O126 1.211 . S
O126 C125 1.211 . S
C127 O119 1.284 . S
C127 O128 1.273 . S
O128 C127 1.273 . S
O129 Zn120 1.977 . S
O129 C122 1.267 . S
C130 O131 1.160 . S
C130 O137 1.185 . S
O131 C130 1.160 . S
O132 Zn133 1.899 . S
O132 C140 1.284 . S
Zn133 O132 1.899 . S
Zn133 O134 2.032 . S
Zn133 O137 2.086 . S
Zn133 O142 1.977 . S
O134 Zn133 2.032 . S
O134 C138 1.278 . S
C135 O136 1.203 . S
C135 O142 1.267 . S
O136 C135 1.203 . S
O137 C130 1.185 . S
O137 Zn133 2.086 . S
C138 O134 1.278 . S
C138 O139 1.211 . S
O139 C138 1.211 . S
C140 O132 1.284 . S
C140 O141 1.273 . S
O141 C140 1.273 . S
O142 Zn133 1.977 . S
O142 C135 1.267 . S
C143 O144 1.160 . S
C143 O150 1.185 . S
O144 C143 1.160 . S
O145 Zn146 1.899 . S
O145 C153 1.284 . S
Zn146 O145 1.899 . S
Zn146 O147 2.032 . S
Zn146 O150 2.086 . S
Zn146 O155 1.977 . S
O147 Zn146 2.032 . S
O147 C151 1.278 . S
C148 O149 1.203 . S
C148 O155 1.267 . S
O149 C148 1.203 . S
O150 C143 1.185 . S
O150 Zn146 2.086 . S
C151 O147 1.278 . S
C151 O152 1.211 . S
O152 C151 1.211 . S
C153 O145 1.284 . S
C153 O154 1.273 . S
O154 C153 1.273 . S
O155 Zn146 1.977 . S
O155 C148 1.267 . S
H156 C164 0.950 . S
H157 C169 0.950 . S
H158 C166 0.950 . S
H159 C168 0.950 . S
H160 C170 0.950 . S
H161 C172 0.950 . S
H162 C174 0.950 . S
H163 C175 0.950 . S
C164 H156 0.950 . S
C164 C165 1.386 . S
C164 C166 1.391 . S
C165 C164 1.386 . S
C165 C169 1.393 . S
C166 H158 0.950 . S
C166 C164 1.391 . S
C166 C167 1.400 . S
C167 C166 1.400 . S
C167 C168 1.398 . S
C167 C173 1.491 . S
C168 H159 0.950 . S
C168 C167 1.398 . S
C168 C169 1.391 . S
C169 H157 0.950 . S
C169 C165 1.393 . S
C169 C168 1.391 . S
C170 H160 0.950 . S
C170 C171 1.386 . S
C170 C172 1.391 . S
C171 C170 1.386 . S
C171 C175 1.393 . S
C172 H161 0.950 . S
C172 C170 1.391 . S
C172 C173 1.400 . S
C173 C167 1.491 . S
C173 C172 1.400 . S
C173 C174 1.398 . S
C174 H162 0.950 . S
C174 C173 1.398 . S
C174 C175 1.391 . S
C175 H163 0.950 . S
C175 C171 1.393 . S
C175 C174 1.391 . S
H176 C184 0.950 . S
H177 C189 0.950 . S
H178 C186 0.950 . S
H179 C188 0.950 . S
H180 C190 0.950 . S
H181 C192 0.950 . S
H182 C194 0.950 . S
H183 C195 0.950 . S
C184 H176 0.950 . S
C184 C185 1.386 . S
C184 C186 1.391 . S
C185 C184 1.386 . S
C185 C189 1.393 . S
C186 H178 0.950 . S
C186 C184 1.391 . S
C186 C187 1.400 . S
C187 C186 1.400 . S
C187 C188 1.398 . S
C187 C193 1.491 . S
C188 H179 0.950 . S
C188 C187 1.398 . S
C188 C189 1.391 . S
C189 H177 0.950 . S
C189 C185 1.393 . S
C189 C188 1.391 . S
C190 H180 0.950 . S
C190 C191 1.386 . S
C190 C192 1.391 . S
C191 C190 1.386 . S
C191 C195 1.393 . S
C192 H181 0.950 . S
C192 C190 1.391 . S
C192 C193 1.400 . S
C193 C187 1.491 . S
C193 C192 1.400 . S
C193 C194 1.398 . S
C194 H182 0.950 . S
C194 C193 1.398 . S
C194 C195 1.391 . S
C195 H183 0.950 . S
C195 C191 1.393 . S
C195 C194 1.391 . S
H196 C204 0.950 . S
H197 C209 0.950 . S
H198 C206 0.950 . S
H199 C208 0.950 . S
H200 C210 0.950 . S
H201 C212 0.950 . S
H202 C214 0.950 . S
H203 C215 0.950 . S
C204 H196 0.950 . S
C204 C205 1.386 . S
C204 C206 1.391 . S
C205 C204 1.386 . S
C205 C209 1.393 . S
C206 H198 0.950 . S
C206 C204 1.391 . S
C206 C207 1.400 . S
C207 C206 1.400 . S
C207 C208 1.398 . S
C207 C213 1.491 . S
C208 H199 0.950 . S
C208 C207 1.398 . S
C208 C209 1.391 . S
C209 H197 0.950 . S
C209 C205 1.393 . S
C209 C208 1.391 . S
C210 H200 0.950 . S
C210 C211 1.386 . S
C210 C212 1.391 . S
C211 C210 1.386 . S
C211 C215 1.393 . S
C212 H201 0.950 . S
C212 C210 1.391 . S
C212 C213 1.400 . S
C213 C207 1.491 . S
C213 C212 1.400 . S
C213 C214 1.398 . S
C214 H202 0.950 . S
C214 C213 1.398 . S
C214 C215 1.391 . S
C215 H203 0.950 . S
C215 C211 1.393 . S
C215 C214 1.391 . S
H216 C224 0.950 . S
H217 C229 0.950 . S
H218 C226 0.950 . S
H219 C228 0.950 . S
H220 C230 0.950 . S
H221 C232 0.950 . S
H222 C234 0.950 . S
H223 C235 0.950 . S
C224 H216 0.950 . S
C224 C225 1.386 . S
C224 C226 1.391 . S
C225 C224 1.386 . S
C225 C229 1.393 . S
C226 H218 0.950 . S
C226 C224 1.391 . S
C226 C227 1.400 . S
C227 C226 1.400 . S
C227 C228 1.398 . S
C227 C233 1.491 . S
C228 H219 0.950 . S
C228 C227 1.398 . S
C228 C229 1.391 . S
C229 H217 0.950 . S
C229 C225 1.393 . S
C229 C228 1.391 . S
C230 H220 0.950 . S
C230 C231 1.386 . S
C230 C232 1.391 . S
C231 C230 1.386 . S
C231 C235 1.393 . S
C232 H221 0.950 . S
C232 C230 1.391 . S
C232 C233 1.400 . S
C233 C227 1.491 . S
C233 C232 1.400 . S
C233 C234 1.398 . S
C234 H222 0.950 . S
C234 C233 1.398 . S
C234 C235 1.391 . S
C235 H223 0.950 . S
C235 C231 1.393 . S
C235 C234 1.391 . S
H236 C244 0.950 . S
H237 C249 0.950 . S
H238 C246 0.950 . S
H239 C248 0.950 . S
H240 C250 0.950 . S
H241 C252 0.950 . S
H242 C254 0.946 1_556 S
H243 C255 0.950 . S
C244 H236 0.950 . S
C244 C245 1.386 . S
C244 C246 1.391 . S
C245 C244 1.386 . S
C245 C249 1.393 . S
C246 H238 0.950 . S
C246 C244 1.391 . S
C246 C247 1.400 . S
C247 C246 1.400 . S
C247 C248 1.398 . S
C247 C253 1.491 . S
C248 H239 0.950 . S
C248 C247 1.398 . S
C248 C249 1.391 . S
C249 H237 0.950 . S
C249 C245 1.393 . S
C249 C248 1.391 . S
C250 H240 0.950 . S
C250 C251 1.386 . S
C250 C252 1.391 . S
C251 C250 1.386 . S
C251 C255 1.393 . S
C252 H241 0.950 . S
C252 C250 1.391 . S
C252 C253 1.400 1_554 S
C253 C247 1.491 . S
C253 C252 1.400 1_556 S
C253 C254 1.398 1_556 S
C254 H242 0.946 1_554 S
C254 C253 1.398 1_554 S
C254 C255 1.391 . S
C255 H243 0.950 . S
C255 C251 1.393 . S
C255 C254 1.391 . S
H256 C264 0.950 . S
H257 C269 0.950 . S
H258 C266 0.950 . S
H259 C268 0.950 . S
H260 C270 0.950 . S
H261 C272 0.950 . S
H262 C274 0.950 . S
H263 C275 0.950 . S
C264 H256 0.950 . S
C264 C265 1.386 . S
C264 C266 1.391 . S
C265 C264 1.386 . S
C265 C269 1.393 . S
C266 H258 0.950 . S
C266 C264 1.391 . S
C266 C267 1.400 . S
C267 C266 1.400 . S
C267 C268 1.398 . S
C267 C273 1.491 . S
C268 H259 0.950 . S
C268 C267 1.398 . S
C268 C269 1.391 . S
C269 H257 0.950 . S
C269 C265 1.393 . S
C269 C268 1.391 . S
C270 H260 0.950 . S
C270 C271 1.386 . S
C270 C272 1.391 . S
C271 C270 1.386 . S
C271 C275 1.393 1_554 S
C272 H261 0.950 . S
C272 C270 1.391 . S
C272 C273 1.400 . S
C273 C267 1.491 . S
C273 C272 1.400 . S
C273 C274 1.398 . S
C274 H262 0.950 . S
C274 C273 1.398 . S
C274 C275 1.391 1_554 S
C275 H263 0.950 . S
C275 C271 1.393 1_556 S
C275 C274 1.391 1_556 S
H276 C284 0.950 . S
H277 C289 0.950 . S
H278 C286 0.950 . S
H279 C288 0.950 . S
H280 C290 0.950 . S
H281 C292 0.950 . S
H282 C294 0.950 . S
H283 C295 0.950 . S
C284 H276 0.950 . S
C284 C285 1.386 . S
C284 C286 1.391 . S
C285 C284 1.386 . S
C285 C289 1.393 . S
C286 H278 0.950 . S
C286 C284 1.391 . S
C286 C287 1.400 . S
C287 C286 1.400 . S
C287 C288 1.398 . S
C287 C293 1.491 . S
C288 H279 0.950 . S
C288 C287 1.398 . S
C288 C289 1.391 . S
C289 H277 0.950 . S
C289 C285 1.393 . S
C289 C288 1.391 . S
C290 H280 0.950 . S
C290 C291 1.386 . S
C290 C292 1.391 . S
C291 C290 1.386 . S
C291 C295 1.393 . S
C292 H281 0.950 . S
C292 C290 1.391 . S
C292 C293 1.400 . S
C293 C287 1.491 . S
C293 C292 1.400 . S
C293 C294 1.398 . S
C294 H282 0.950 . S
C294 C293 1.398 . S
C294 C295 1.391 . S
C295 H283 0.950 . S
C295 C291 1.393 . S
C295 C294 1.391 . S
H296 C304 0.950 . S
H297 C309 0.950 . S
H298 C306 0.950 . S
H299 C308 0.950 . S
H300 C310 0.950 . S
H301 C312 0.950 . S
H302 C314 0.950 . S
H303 C315 0.950 . S
C304 H296 0.950 . S
C304 C305 1.386 . S
C304 C306 1.391 . S
C305 C304 1.386 . S
C305 C309 1.393 . S
C306 H298 0.950 . S
C306 C304 1.391 . S
C306 C307 1.400 . S
C307 C306 1.400 . S
C307 C308 1.398 . S
C307 C313 1.491 . S
C308 H299 0.950 . S
C308 C307 1.398 . S
C308 C309 1.391 . S
C309 H297 0.950 . S
C309 C305 1.393 . S
C309 C308 1.391 . S
C310 H300 0.950 . S
C310 C311 1.386 . S
C310 C312 1.391 . S
C311 C310 1.386 . S
C311 C315 1.393 . S
C312 H301 0.950 . S
C312 C310 1.391 . S
C312 C313 1.400 . S
C313 C307 1.491 . S
C313 C312 1.400 . S
C313 C314 1.398 . S
C314 H302 0.950 . S
C314 C313 1.398 . S
C314 C315 1.391 . S
C315 H303 0.950 . S
C315 C311 1.393 . S
C315 C314 1.391 . S
H316 C324 0.950 . S
H317 C329 0.950 . S
H318 C326 0.950 . S
H319 C328 0.950 . S
H320 C330 0.950 . S
H321 C332 0.950 . S
H322 C334 0.950 . S
H323 C335 0.950 . S
C324 H316 0.950 . S
C324 C325 1.386 . S
C324 C326 1.391 . S
C325 C324 1.386 . S
C325 C329 1.393 . S
C326 H318 0.950 . S
C326 C324 1.391 . S
C326 C327 1.400 . S
C327 C326 1.400 . S
C327 C328 1.398 . S
C327 C333 1.491 . S
C328 H319 0.950 . S
C328 C327 1.398 . S
C328 C329 1.391 . S
C329 H317 0.950 . S
C329 C325 1.393 . S
C329 C328 1.391 . S
C330 H320 0.950 . S
C330 C331 1.386 . S
C330 C332 1.391 . S
C331 C330 1.386 . S
C331 C335 1.393 . S
C332 H321 0.950 . S
C332 C330 1.391 . S
C332 C333 1.400 . S
C333 C327 1.491 . S
C333 C332 1.400 . S
C333 C334 1.398 . S
C334 H322 0.950 . S
C334 C333 1.398 . S
C334 C335 1.391 . S
C335 H323 0.950 . S
C335 C331 1.393 . S
C335 C334 1.391 . S
H336 C344 0.950 . S
H337 C349 0.950 . S
H338 C346 0.950 . S
H339 C348 0.950 . S
H340 C350 0.950 . S
H341 C352 0.950 . S
H342 C354 0.950 . S
H343 C355 0.950 . S
C344 H336 0.950 . S
C344 C345 1.386 . S
C344 C346 1.391 . S
C345 C344 1.386 . S
C345 C349 1.393 . S
C346 H338 0.950 . S
C346 C344 1.391 . S
C346 C347 1.400 . S
C347 C346 1.400 . S
C347 C348 1.398 . S
C347 C353 1.491 . S
C348 H339 0.950 . S
C348 C347 1.398 . S
C348 C349 1.391 . S
C349 H337 0.950 . S
C349 C345 1.393 . S
C349 C348 1.391 . S
C350 H340 0.950 . S
C350 C351 1.386 . S
C350 C352 1.391 . S
C351 C350 1.386 . S
C351 C355 1.393 . S
C352 H341 0.950 . S
C352 C350 1.391 . S
C352 C353 1.400 . S
C353 C347 1.491 . S
C353 C352 1.400 . S
C353 C354 1.398 . S
C354 H342 0.950 . S
C354 C353 1.398 . S
C354 C355 1.391 . S
C355 H343 0.950 . S
C355 C351 1.393 . S
C355 C354 1.391 . S
H356 C364 0.950 . S
H357 C369 0.950 . S
H358 C366 0.950 . S
H359 C368 0.950 . S
H360 C370 0.950 . S
H361 C372 0.950 . S
H362 C374 0.950 . S
H363 C375 0.950 . S
C364 H356 0.950 . S
C364 C365 1.386 . S
C364 C366 1.391 . S
C365 C364 1.386 . S
C365 C369 1.393 . S
C366 H358 0.950 . S
C366 C364 1.391 . S
C366 C367 1.400 . S
C367 C366 1.400 . S
C367 C368 1.398 . S
C367 C373 1.491 . S
C368 H359 0.950 . S
C368 C367 1.398 . S
C368 C369 1.391 . S
C369 H357 0.950 . S
C369 C365 1.393 . S
C369 C368 1.391 . S
C370 H360 0.950 . S
C370 C371 1.386 . S
C370 C372 1.391 . S
C371 C370 1.386 . S
C371 C375 1.393 . S
C372 H361 0.950 . S
C372 C370 1.391 . S
C372 C373 1.400 . S
C373 C367 1.491 . S
C373 C372 1.400 . S
C373 C374 1.398 . S
C374 H362 0.950 . S
C374 C373 1.398 . S
C374 C375 1.391 . S
C375 H363 0.950 . S
C375 C371 1.393 . S
C375 C374 1.391 . S
H376 C384 0.950 . S
H377 C389 0.950 . S
H378 C386 0.950 . S
H379 C388 0.950 . S
H380 C390 0.950 . S
H381 C392 0.950 . S
H382 C394 0.950 . S
H383 C395 0.950 . S
C384 H376 0.950 . S
C384 C385 1.386 . S
C384 C386 1.391 . S
C385 C384 1.386 . S
C385 C389 1.393 . S
C386 H378 0.950 . S
C386 C384 1.391 . S
C386 C387 1.400 . S
C387 C386 1.400 . S
C387 C388 1.398 . S
C387 C393 1.491 . S
C388 H379 0.950 . S
C388 C387 1.398 . S
C388 C389 1.391 . S
C389 H377 0.950 . S
C389 C385 1.393 . S
C389 C388 1.391 . S
C390 H380 0.950 . S
C390 C391 1.386 1_556 S
C390 C392 1.391 . S
C391 C390 1.386 1_554 S
C391 C395 1.393 . S
C392 H381 0.950 . S
C392 C390 1.391 . S
C392 C393 1.400 . S
C393 C387 1.491 . S
C393 C392 1.400 . S
C393 C394 1.398 1_556 S
C394 H382 0.950 . S
C394 C393 1.398 1_554 S
C394 C395 1.391 . S
C395 H383 0.950 . S
C395 C391 1.393 . S
C395 C394 1.391 . S
H396 C404 0.950 . S
H397 C409 0.950 . S
H398 C406 0.950 . S
H399 C408 0.950 . S
H400 C410 0.950 . S
H401 C412 0.950 . S
H402 C414 0.950 . S
H403 C415 0.950 . S
C404 H396 0.950 . S
C404 C405 1.386 . S
C404 C406 1.391 . S
C405 C404 1.386 . S
C405 C409 1.393 . S
C406 H398 0.950 . S
C406 C404 1.391 . S
C406 C407 1.400 . S
C407 C406 1.400 . S
C407 C408 1.398 . S
C407 C413 1.491 . S
C408 H399 0.950 . S
C408 C407 1.398 . S
C408 C409 1.391 . S
C409 H397 0.950 . S
C409 C405 1.393 . S
C409 C408 1.391 . S
C410 H400 0.950 . S
C410 C411 1.386 . S
C410 C412 1.391 . S
C411 C410 1.386 . S
C411 C415 1.393 . S
C412 H401 0.950 . S
C412 C410 1.391 . S
C412 C413 1.400 . S
C413 C407 1.491 . S
C413 C412 1.400 . S
C413 C414 1.398 . S
C414 H402 0.950 . S
C414 C413 1.398 . S
C414 C415 1.391 . S
C415 H403 0.950 . S
C415 C411 1.393 . S
C415 C414 1.391 . S
H416 C424 0.950 . S
H417 C429 0.950 . S
H418 C426 0.950 . S
H419 C428 0.950 . S
H420 C430 0.950 . S
H421 C432 0.950 . S
H422 C434 0.950 . S
H423 C435 0.950 . S
C424 H416 0.950 . S
C424 C425 1.386 . S
C424 C426 1.391 . S
C425 C424 1.386 . S
C425 C429 1.393 . S
C426 H418 0.950 . S
C426 C424 1.391 . S
C426 C427 1.400 1_554 S
C427 C426 1.400 1_556 S
C427 C428 1.398 . S
C427 C433 1.491 . S
C428 H419 0.950 . S
C428 C427 1.398 . S
C428 C429 1.391 1_556 S
C429 H417 0.950 . S
C429 C425 1.393 . S
C429 C428 1.391 1_554 S
C430 H420 0.950 . S
C430 C431 1.386 . S
C430 C432 1.391 . S
C431 C430 1.386 . S
C431 C435 1.393 . S
C432 H421 0.950 . S
C432 C430 1.391 . S
C432 C433 1.400 . S
C433 C427 1.491 . S
C433 C432 1.400 . S
C433 C434 1.398 . S
C434 H422 0.950 . S
C434 C433 1.398 . S
C434 C435 1.391 . S
C435 H423 0.950 . S
C435 C431 1.393 . S
C435 C434 1.391 . S
H436 C444 0.950 . S
H437 C449 0.950 . S
H438 C446 0.950 . S
H439 C448 0.950 . S
H440 C450 0.950 . S
H441 C452 0.950 . S
H442 C454 0.950 . S
H443 C455 0.950 . S
C444 H436 0.950 . S
C444 C445 1.386 . S
C444 C446 1.391 . S
C445 C444 1.386 . S
C445 C449 1.393 . S
C446 H438 0.950 . S
C446 C444 1.391 . S
C446 C447 1.400 . S
C447 C446 1.400 . S
C447 C448 1.398 . S
C447 C453 1.491 . S
C448 H439 0.950 . S
C448 C447 1.398 . S
C448 C449 1.391 . S
C449 H437 0.950 . S
C449 C445 1.393 . S
C449 C448 1.391 . S
C450 H440 0.950 . S
C450 C451 1.386 . S
C450 C452 1.391 1_556 S
C451 C450 1.386 . S
C451 C455 1.393 1_556 S
C452 H441 0.950 . S
C452 C450 1.391 1_554 S
C452 C453 1.400 . S
C453 C447 1.491 . S
C453 C452 1.400 . S
C453 C454 1.398 . S
C454 H442 0.950 . S
C454 C453 1.398 . S
C454 C455 1.391 . S
C455 H443 0.950 . S
C455 C451 1.393 1_554 S
C455 C454 1.391 . S
H456 C464 0.950 . S
H457 C469 0.950 . S
H458 C466 0.950 . S
H459 C468 0.950 . S
H460 C470 0.950 . S
H461 C472 0.950 . S
H462 C474 0.950 . S
H463 C475 0.950 . S
C464 H456 0.950 . S
C464 C465 1.386 . S
C464 C466 1.391 . S
C465 C464 1.386 . S
C465 C469 1.393 . S
C466 H458 0.950 . S
C466 C464 1.391 . S
C466 C467 1.400 . S
C467 C466 1.400 . S
C467 C468 1.398 . S
C467 C473 1.491 . S
C468 H459 0.950 . S
C468 C467 1.398 . S
C468 C469 1.391 . S
C469 H457 0.950 . S
C469 C465 1.393 . S
C469 C468 1.391 . S
C470 H460 0.950 . S
C470 C471 1.386 . S
C470 C472 1.391 . S
C471 C470 1.386 . S
C471 C475 1.393 . S
C472 H461 0.950 . S
C472 C470 1.391 . S
C472 C473 1.400 . S
C473 C467 1.491 . S
C473 C472 1.400 . S
C473 C474 1.398 . S
C474 H462 0.950 . S
C474 C473 1.398 . S
C474 C475 1.391 . S
C475 H463 0.950 . S
C475 C471 1.393 . S
C475 C474 1.391 . S
H476 C484 0.950 . S
H477 C489 0.950 . S
H478 C486 0.950 . S
H479 C488 0.950 . S
H480 C490 0.950 . S
H481 C492 0.950 . S
H482 C494 0.950 . S
H483 C495 0.950 . S
C484 H476 0.950 . S
C484 C485 1.386 . S
C484 C486 1.391 . S
C485 C484 1.386 . S
C485 C489 1.393 . S
C486 H478 0.950 . S
C486 C484 1.391 . S
C486 C487 1.400 . S
C487 C486 1.400 . S
C487 C488 1.398 . S
C487 C493 1.491 . S
C488 H479 0.950 . S
C488 C487 1.398 . S
C488 C489 1.391 . S
C489 H477 0.950 . S
C489 C485 1.393 . S
C489 C488 1.391 . S
C490 H480 0.950 . S
C490 C491 1.386 . S
C490 C492 1.391 . S
C491 C490 1.386 . S
C491 C495 1.393 . S
C492 H481 0.950 . S
C492 C490 1.391 . S
C492 C493 1.400 . S
C493 C487 1.491 . S
C493 C492 1.400 . S
C493 C494 1.398 . S
C494 H482 0.950 . S
C494 C493 1.398 . S
C494 C495 1.391 . S
C495 H483 0.950 . S
C495 C491 1.393 . S
C495 C494 1.391 . S
H496 C504 0.950 . S
H497 C509 0.950 . S
H498 C506 0.950 . S
H499 C508 0.950 . S
H500 C510 0.950 . S
H501 C512 0.950 . S
H502 C514 0.950 . S
H503 C515 0.950 . S
C504 H496 0.950 . S
C504 C505 1.386 . S
C504 C506 1.391 . S
C505 C504 1.386 . S
C505 C509 1.393 . S
C506 H498 0.950 . S
C506 C504 1.391 . S
C506 C507 1.400 . S
C507 C506 1.400 . S
C507 C508 1.398 . S
C507 C513 1.491 . S
C508 H499 0.950 . S
C508 C507 1.398 . S
C508 C509 1.391 . S
C509 H497 0.950 . S
C509 C505 1.393 . S
C509 C508 1.391 . S
C510 H500 0.950 . S
C510 C511 1.386 . S
C510 C512 1.391 . S
C511 C510 1.386 . S
C511 C515 1.393 . S
C512 H501 0.950 . S
C512 C510 1.391 . S
C512 C513 1.400 . S
C513 C507 1.491 . S
C513 C512 1.400 . S
C513 C514 1.398 . S
C514 H502 0.950 . S
C514 C513 1.398 . S
C514 C515 1.391 . S
C515 H503 0.950 . S
C515 C511 1.393 . S
C515 C514 1.391 . S
H516 C524 0.950 . S
H517 C529 0.950 . S
H518 C526 0.950 . S
H519 C528 0.950 1_655 S
H520 C530 0.950 . S
H521 C532 0.950 . S
H522 C534 0.950 1_455 S
H523 C535 0.950 . S
C524 H516 0.950 . S
C524 C525 1.386 . S
C524 C526 1.391 . S
C525 C524 1.386 . S
C525 C529 1.393 1_556 S
C526 H518 0.950 . S
C526 C524 1.391 . S
C526 C527 1.400 . S
C527 C526 1.400 . S
C527 C528 1.398 . S
C527 C533 1.491 1_455 S
C528 H519 0.950 1_455 S
C528 C527 1.398 . S
C528 C529 1.391 1_556 S
C529 H517 0.950 . S
C529 C525 1.393 1_554 S
C529 C528 1.391 1_554 S
C530 H520 0.950 . S
C530 C531 1.386 . S
C530 C532 1.391 . S
C531 C530 1.386 . S
C531 C535 1.393 . S
C532 H521 0.950 . S
C532 C530 1.391 . S
C532 C533 1.400 . S
C533 C527 1.491 1_655 S
C533 C532 1.400 . S
C533 C534 1.398 . S
C534 H522 0.950 1_655 S
C534 C533 1.398 . S
C534 C535 1.391 . S
C535 H523 0.950 . S
C535 C531 1.393 . S
C535 C534 1.391 . S
H536 C544 0.950 . S
H537 C549 0.950 . S
H538 C546 0.950 . S
H539 C548 0.947 1_554 S
H540 C550 0.950 . S
H541 C552 0.950 . S
H542 C554 0.950 . S
H543 C555 0.950 . S
C544 H536 0.950 . S
C544 C545 1.386 . S
C544 C546 1.391 1_556 S
C545 C544 1.386 . S
C545 C549 1.393 . S
C546 H538 0.950 . S
C546 C544 1.391 1_554 S
C546 C547 1.400 . S
C547 C546 1.400 . S
C547 C548 1.393 1_554 S
C547 C553 1.491 1_565 S
C548 H539 0.947 1_556 S
C548 C547 1.393 1_556 S
C548 C549 1.400 . S
C549 H537 0.950 . S
C549 C545 1.393 . S
C549 C548 1.400 . S
C550 H540 0.950 . S
C550 C551 1.386 . S
C550 C552 1.391 . S
C551 C550 1.386 . S
C551 C555 1.393 . S
C552 H541 0.950 . S
C552 C550 1.391 . S
C552 C553 1.400 . S
C553 C547 1.491 1_545 S
C553 C552 1.400 . S
C553 C554 1.398 . S
C554 H542 0.950 . S
C554 C553 1.398 . S
C554 C555 1.391 . S
C555 H543 0.950 . S
C555 C551 1.393 . S
C555 C554 1.391 . S
H556 C564 0.950 . S
H557 C569 0.950 . S
H558 C566 0.950 . S
H559 C568 0.950 . S
H560 C570 0.950 . S
H561 C572 0.950 . S
H562 C574 0.950 . S
H563 C575 0.950 . S
C564 H556 0.950 . S
C564 C565 1.386 . S
C564 C566 1.391 . S
C565 C564 1.386 . S
C565 C569 1.393 . S
C566 H558 0.950 . S
C566 C564 1.391 . S
C566 C567 1.400 . S
C567 C566 1.400 . S
C567 C568 1.398 . S
C567 C573 1.491 . S
C568 H559 0.950 . S
C568 C567 1.398 . S
C568 C569 1.391 . S
C569 H557 0.950 . S
C569 C565 1.393 . S
C569 C568 1.391 . S
C570 H560 0.950 . S
C570 C571 1.386 . S
C570 C572 1.391 . S
C571 C570 1.386 . S
C571 C575 1.393 . S
C572 H561 0.950 . S
C572 C570 1.391 . S
C572 C573 1.400 . S
C573 C567 1.491 . S
C573 C572 1.400 . S
C573 C574 1.398 . S
C574 H562 0.950 . S
C574 C573 1.398 . S
C574 C575 1.391 . S
C575 H563 0.950 . S
C575 C571 1.393 . S
C575 C574 1.391 . S
H576 C584 0.950 . S
H577 C589 0.950 . S
H578 C586 0.950 . S
H579 C588 0.950 1_655 S
H580 C590 0.950 . S
H581 C592 0.950 . S
H582 C594 0.950 1_455 S
H583 C595 0.950 . S
C584 H576 0.950 . S
C584 C585 1.386 . S
C584 C586 1.391 . S
C585 C584 1.386 . S
C585 C589 1.393 . S
C586 H578 0.950 . S
C586 C584 1.391 . S
C586 C587 1.400 . S
C587 C586 1.400 . S
C587 C588 1.398 . S
C587 C593 1.491 1_455 S
C588 H579 0.950 1_455 S
C588 C587 1.398 . S
C588 C589 1.391 . S
C589 H577 0.950 . S
C589 C585 1.393 . S
C589 C588 1.391 . S
C590 H580 0.950 . S
C590 C591 1.386 . S
C590 C592 1.391 . S
C591 C590 1.386 . S
C591 C595 1.393 . S
C592 H581 0.950 . S
C592 C590 1.391 . S
C592 C593 1.400 . S
C593 C587 1.491 1_655 S
C593 C592 1.400 . S
C593 C594 1.398 . S
C594 H582 0.950 1_655 S
C594 C593 1.398 . S
C594 C595 1.391 . S
C595 H583 0.950 . S
C595 C591 1.393 . S
C595 C594 1.391 . S
H596 C604 0.950 . S
H597 C609 0.950 . S
H598 C606 0.950 . S
H599 C608 0.950 . S
H600 C610 0.950 . S
H601 C612 0.950 . S
H602 C614 0.950 . S
H603 C615 0.950 . S
C604 H596 0.950 . S
C604 C605 1.386 . S
C604 C606 1.391 . S
C605 C604 1.386 . S
C605 C609 1.393 . S
C606 H598 0.950 . S
C606 C604 1.391 . S
C606 C607 1.400 . S
C607 C606 1.400 . S
C607 C608 1.398 . S
C607 C613 1.491 1_545 S
C608 H599 0.950 . S
C608 C607 1.398 . S
C608 C609 1.391 . S
C609 H597 0.950 . S
C609 C605 1.393 . S
C609 C608 1.391 . S
C610 H600 0.950 . S
C610 C611 1.386 . S
C610 C612 1.391 . S
C611 C610 1.386 . S
C611 C615 1.393 . S
C612 H601 0.950 . S
C612 C610 1.391 . S
C612 C613 1.400 . S
C613 C607 1.491 1_565 S
C613 C612 1.400 . S
C613 C614 1.398 . S
C614 H602 0.950 . S
C614 C613 1.398 . S
C614 C615 1.391 . S
C615 H603 0.950 . S
C615 C611 1.393 . S
C615 C614 1.391 . S
H616 C624 0.950 . S
H617 C629 0.950 . S
H618 C626 0.950 . S
H619 C628 0.950 . S
H620 C630 0.950 . S
H621 C632 0.950 . S
H622 C634 0.950 . S
H623 C635 0.950 . S
C624 H616 0.950 . S
C624 C625 1.386 . S
C624 C626 1.391 . S
C625 C624 1.386 . S
C625 C629 1.393 . S
C626 H618 0.950 . S
C626 C624 1.391 . S
C626 C627 1.400 . S
C627 C626 1.400 . S
C627 C628 1.398 . S
C627 C633 1.491 . S
C628 H619 0.950 . S
C628 C627 1.398 . S
C628 C629 1.391 . S
C629 H617 0.950 . S
C629 C625 1.393 . S
C629 C628 1.391 . S
C630 H620 0.950 . S
C630 C631 1.386 . S
C630 C632 1.391 . S
C631 C630 1.386 . S
C631 C635 1.393 . S
C632 H621 0.950 . S
C632 C630 1.391 . S
C632 C633 1.400 . S
C633 C627 1.491 . S
C633 C632 1.400 . S
C633 C634 1.398 . S
C634 H622 0.950 . S
C634 C633 1.398 . S
C634 C635 1.391 . S
C635 H623 0.950 . S
C635 C631 1.393 . S
C635 C634 1.391 . S
C165 C5 1.136 . S
C171 C135 1.130 . S
C185 C148 1.122 . S
C191 C13 1.121 . S
C205 C31 1.114 . S
C211 C78 1.129 . S
C225 C44 1.133 . S
C231 C96 1.159 . S
C245 C52 1.116 . S
C251 C109 1.096 . S
C265 C117 1.139 . S
C271 C70 1.096 1_554 S
C285 C8 1.545 . S
C291 C112 1.542 . S
C305 C23 1.566 . S
C311 C127 1.562 . S
C325 C138 1.545 . S
C331 C34 1.539 . S
C345 C47 1.533 . S
C351 C151 1.525 . S
C365 C62 1.560 . S
C371 C88 1.564 . S
C385 C73 1.523 . S
C391 C99 1.530 . S
C405 C140 1.116 . S
C411 C10 1.111 . S
C425 C21 1.066 . S
C431 C153 1.089 . S
C445 C36 1.098 . S
C451 C86 1.090 . S
C465 C49 1.112 . S
C471 C101 1.116 . S
C485 C114 1.098 . S
C491 C60 1.087 . S
C505 C75 1.097 . S
C511 C125 1.092 . S
C525 C0 1.392 . S
C531 C143 1.391 . S
C545 C83 1.362 . S
C551 C18 1.355 . S
C565 C91 1.384 . S
C571 C26 1.383 . S
C585 C104 1.395 . S
C591 C39 1.394 . S
C605 C122 1.384 . S
C611 C57 1.378 . S
C625 C130 1.381 . S
C631 C65 1.382 . S
