# Generated by pormake.
# Topology npo, (4)-cn, num edge types: 1
# Building blocks:
#     Node 0, Type 0, BuildingBlock: NAHDIM_clean_sbu_0, # of connection points: 4
#     Node 1, Type 0, BuildingBlock: NAHDIM_clean_sbu_0, # of connection points: 4
#     Node 2, Type 0, BuildingBlock: NAHDIM_clean_sbu_0, # of connection points: 4
#     Node 3, Type 0, BuildingBlock: NAHDIM_clean_sbu_0, # of connection points: 4
#     Node 4, Type 0, BuildingBlock: NAHDIM_clean_sbu_0, # of connection points: 4
#     Node 5, Type 0, BuildingBlock: NAHDIM_clean_sbu_0, # of connection points: 4
#     Edge 6, Type (0, 0), BuildingBlock: TEMPAE_clean_linker_10, # of connection points: 2
#     Edge 7, Type (0, 0), BuildingBlock: TEMPAE_clean_linker_10, # of connection points: 2
#     Edge 8, Type (0, 0), BuildingBlock: TEMPAE_clean_linker_10, # of connection points: 2
#     Edge 9, Type (0, 0), BuildingBlock: TEMPAE_clean_linker_10, # of connection points: 2
#     Edge 10, Type (0, 0), BuildingBlock: TEMPAE_clean_linker_10, # of connection points: 2
#     Edge 11, Type (0, 0), BuildingBlock: TEMPAE_clean_linker_10, # of connection points: 2
#     Edge 12, Type (0, 0), BuildingBlock: TEMPAE_clean_linker_10, # of connection points: 2
#     Edge 13, Type (0, 0), BuildingBlock: TEMPAE_clean_linker_10, # of connection points: 2
#     Edge 14, Type (0, 0), BuildingBlock: TEMPAE_clean_linker_10, # of connection points: 2
#     Edge 15, Type (0, 0), BuildingBlock: TEMPAE_clean_linker_10, # of connection points: 2
#     Edge 16, Type (0, 0), BuildingBlock: TEMPAE_clean_linker_10, # of connection points: 2
#     Edge 17, Type (0, 0), BuildingBlock: TEMPAE_clean_linker_10, # of connection points: 2
# Relax obj value: 0.248
# Max RMSD: 0.225
# Mean RMSD: 0.223
data_MOF--net-npo--node1-NAHDIM_clean_sbu_0--edge1-TEMPAE_clean_linker_10
_symmetry_space_group_name_H-M    P1
_symmetry_Int_Tables_number       1
_symmetry_cell_setting            triclinic
loop_
_symmetry_equiv_pos_as_xyz
'x, y, z'
_cell_length_a     41.505446
_cell_length_b     43.622732
_cell_length_c     25.326542
_cell_angle_alpha  92.453199
_cell_angle_beta   90.023508
_cell_angle_gamma 118.10086
loop_
_atom_site_label
_atom_site_type_symbol
_atom_site_fract_x
_atom_site_fract_y
_atom_site_fract_z
_atom_type_partial_charge
C0 C 0.47883 0.06596 0.39827 0.0
O1 O 0.50219 0.06076 0.36921 0.0
O2 O 0.53826 0.12627 0.3099 0.0
Zn3 Zn 0.48341 0.10443 0.31021 0.0
O4 O 0.46228 0.06635 0.25341 0.0
C5 C 0.48448 0.15716 0.25079 0.0
O6 O 0.49875 0.14265 0.21856 0.0
O7 O 0.46575 0.08483 0.38103 0.0
C8 C 0.43043 0.05489 0.23334 0.0
O9 O 0.40943 0.068 0.25064 0.0
C10 C 0.55607 0.11791 0.27667 0.0
O11 O 0.53826 0.09187 0.24213 0.0
O12 O 0.47244 0.14346 0.29467 0.0
C13 C 0.52634 0.58654 0.61482 0.0
O14 O 0.5208 0.56743 0.65594 0.0
O15 O 0.4532 0.5966 0.69521 0.0
Zn16 Zn 0.50741 0.62641 0.68914 0.0
O17 O 0.53232 0.6178 0.75068 0.0
C18 C 0.53459 0.70009 0.72443 0.0
O19 O 0.55465 0.69495 0.75951 0.0
O20 O 0.52302 0.61403 0.61983 0.0
C21 C 0.52025 0.61795 0.79677 0.0
O22 O 0.49325 0.62544 0.80285 0.0
C23 C 0.43729 0.56637 0.71325 0.0
O24 O 0.45683 0.5516 0.728 0.0
O25 O 0.51509 0.67564 0.69105 0.0
C26 C 0.93826 0.40241 0.30751 0.0
O27 O 0.95074 0.42305 0.26785 0.0
O28 O 0.85399 0.39995 0.24009 0.0
Zn29 Zn 0.87576 0.36734 0.23789 0.0
O30 O 0.90639 0.37408 0.17345 0.0
C31 C 0.80402 0.31274 0.21424 0.0
O32 O 0.80275 0.33794 0.18931 0.0
O33 O 0.90657 0.37636 0.30346 0.0
C34 C 0.89502 0.3761 0.1278 0.0
O35 O 0.86224 0.37325 0.12235 0.0
C36 C 0.8665 0.42959 0.22037 0.0
O37 O 0.89806 0.44265 0.19675 0.0
O38 O 0.83367 0.3186 0.23753 0.0
C39 C 0.40619 0.94156 0.73838 0.0
O40 O 0.42269 0.95646 0.78373 0.0
O41 O 0.40919 0.85878 0.79866 0.0
Zn42 Zn 0.375 0.87964 0.79844 0.0
O43 O 0.38123 0.90816 0.86554 0.0
C44 C 0.31534 0.82107 0.74939 0.0
O45 O 0.33853 0.83062 0.71053 0.0
O46 O 0.38441 0.90908 0.73562 0.0
C47 C 0.36874 0.8942 0.90903 0.0
O48 O 0.35125 0.8601 0.91019 0.0
C49 C 0.44052 0.87181 0.77804 0.0
O50 O 0.4533 0.90205 0.75639 0.0
O51 O 0.32432 0.83943 0.79246 0.0
C52 C 0.59924 0.52731 0.10387 0.0
O53 O 0.62666 0.54771 0.13585 0.0
O54 O 0.64731 0.4844 0.16703 0.0
Zn55 Zn 0.59599 0.47721 0.17504 0.0
O56 O 0.59202 0.50135 0.24213 0.0
C57 C 0.5736 0.41183 0.2158 0.0
O58 O 0.60223 0.4319 0.24606 0.0
O59 O 0.58138 0.49515 0.11266 0.0
C60 C 0.56062 0.49466 0.25873 0.0
O61 O 0.53156 0.47271 0.23076 0.0
C62 C 0.67404 0.50449 0.19738 0.0
O63 O 0.66915 0.52374 0.23456 0.0
O64 O 0.56378 0.42562 0.18026 0.0
C65 C 0.06356 0.44768 0.81872 0.0
O66 O 0.06544 0.42533 0.78403 0.0
O67 O 0.15343 0.48422 0.7473 0.0
Zn68 Zn 0.1138 0.49822 0.74912 0.0
O69 O 0.08344 0.4824 0.68194 0.0
C70 C 0.12705 0.57014 0.74108 0.0
O71 O 0.09356 0.55638 0.72149 0.0
O72 O 0.08213 0.48003 0.81183 0.0
C73 C 0.08497 0.46048 0.64871 0.0
O74 O 0.10664 0.44706 0.65871 0.0
C75 C 0.17625 0.49461 0.78586 0.0
O76 O 0.17059 0.51067 0.82705 0.0
O77 O 0.13981 0.55034 0.75527 0.0
C78 C 0.50914 0.20987 0.19725 0.0
C79 C 0.48853 0.19193 0.24017 0.0
C80 C 0.51863 0.24488 0.19118 0.0
C81 C 0.50682 0.2623 0.22855 0.0
C82 C 0.48383 0.24367 0.26981 0.0
C83 C 0.47511 0.20871 0.27534 0.0
C84 C 0.54338 0.26382 0.14679 0.0
C85 C 0.47017 0.2612 0.30989 0.0
C86 C 0.57101 0.35862 0.25255 0.0
C87 C 0.55494 0.37367 0.22114 0.0
C88 C 0.55517 0.32246 0.25598 0.0
C89 C 0.52211 0.30072 0.22787 0.0
C90 C 0.5051 0.31574 0.19732 0.0
C91 C 0.52187 0.35209 0.19399 0.0
C92 C 0.57444 0.30749 0.28854 0.0
C93 C 0.46961 0.29338 0.16739 0.0
H94 H 0.51951 0.19712 0.16968 0.0
H95 H 0.4589 0.19495 0.30835 0.0
H96 H 0.53219 0.27841 0.12514 0.0
H97 H 0.57055 0.28304 0.16345 0.0
H98 H 0.54721 0.24583 0.1182 0.0
H99 H 0.44857 0.24215 0.33475 0.0
H100 H 0.49321 0.27955 0.33616 0.0
H101 H 0.45917 0.27655 0.28989 0.0
H102 H 0.59659 0.37507 0.27358 0.0
H103 H 0.50919 0.36357 0.16989 0.0
H104 H 0.58222 0.29096 0.26269 0.0
H105 H 0.55585 0.29066 0.31865 0.0
H106 H 0.59949 0.328 0.30902 0.0
H107 H 0.47388 0.27725 0.13595 0.0
H108 H 0.45847 0.30913 0.14881 0.0
H109 H 0.44895 0.27529 0.1943 0.0
C110 C 0.37741 0.56666 0.7081 0.0
C111 C 0.39741 0.54958 0.72172 0.0
C112 C 0.34027 0.55273 0.71933 0.0
C113 C 0.3225 0.52079 0.7446 0.0
C114 C 0.34214 0.5028 0.75701 0.0
C115 C 0.37947 0.51746 0.74552 0.0
C116 C 0.32029 0.57278 0.70542 0.0
C117 C 0.32398 0.46856 0.78361 0.0
C118 C 0.23978 0.51253 0.8182 0.0
C119 C 0.21189 0.49492 0.77994 0.0
C120 C 0.27568 0.51906 0.80867 0.0
C121 C 0.28379 0.50748 0.75986 0.0
C122 C 0.25522 0.48719 0.72295 0.0
C123 C 0.21957 0.48119 0.73338 0.0
C124 C 0.30536 0.54069 0.84917 0.0
C125 C 0.2627 0.47398 0.67077 0.0
H126 H 0.39096 0.59141 0.68954 0.0
H127 H 0.3947 0.50406 0.75607 0.0
H128 H 0.29597 0.55617 0.67996 0.0
H129 H 0.31047 0.58033 0.74194 0.0
H130 H 0.33783 0.59672 0.68445 0.0
H131 H 0.34219 0.45647 0.78662 0.0
H132 H 0.31596 0.47267 0.82401 0.0
H133 H 0.29864 0.4501 0.76152 0.0
H134 H 0.23406 0.52296 0.85451 0.0
H135 H 0.19809 0.46721 0.70382 0.0
H136 H 0.32273 0.56687 0.83409 0.0
H137 H 0.32324 0.52868 0.85612 0.0
H138 H 0.29406 0.54391 0.88752 0.0
H139 H 0.27664 0.49605 0.64459 0.0
H140 H 0.23717 0.45421 0.65035 0.0
H141 H 0.28113 0.46242 0.67652 0.0
C142 C 0.61401 0.17013 0.30644 0.0
C143 C 0.59581 0.14077 0.27191 0.0
C144 C 0.65012 0.19506 0.29775 0.0
C145 C 0.66854 0.19045 0.25358 0.0
C146 C 0.65122 0.15977 0.2206 0.0
C147 C 0.61497 0.13526 0.23013 0.0
C148 C 0.66768 0.2274 0.33395 0.0
C149 C 0.67015 0.15381 0.17344 0.0
C150 C 0.73734 0.27484 0.19706 0.0
C151 C 0.77026 0.27948 0.21972 0.0
C152 C 0.70425 0.2453 0.20629 0.0
C153 C 0.70405 0.21959 0.23874 0.0
C154 C 0.73735 0.22325 0.25975 0.0
C155 C 0.77013 0.25326 0.2501 0.0
C156 C 0.66928 0.24238 0.18314 0.0
C157 C 0.73817 0.19618 0.29411 0.0
H158 H 0.59955 0.17447 0.33913 0.0
H159 H 0.60122 0.11252 0.20346 0.0
H160 H 0.69527 0.23241 0.34723 0.0
H161 H 0.67105 0.25022 0.31212 0.0
H162 H 0.65113 0.22543 0.36934 0.0
H163 H 0.65513 0.12672 0.15637 0.0
H164 H 0.67228 0.17182 0.14238 0.0
H165 H 0.69833 0.15943 0.18449 0.0
H166 H 0.73716 0.29484 0.17329 0.0
H167 H 0.79549 0.25658 0.26755 0.0
H168 H 0.65167 0.2433 0.21548 0.0
H169 H 0.65381 0.21708 0.16074 0.0
H170 H 0.67437 0.26362 0.15632 0.0
H171 H 0.72509 0.19635 0.33224 0.0
H172 H 0.76647 0.20094 0.30249 0.0
H173 H 0.72235 0.16982 0.2749 0.0
C174 C 0.44563 0.81822 0.79482 0.0
C175 C 0.46065 0.85137 0.7742 0.0
C176 C 0.46237 0.79702 0.78733 0.0
C177 C 0.49506 0.80926 0.75866 0.0
C178 C 0.51123 0.84323 0.73961 0.0
C179 C 0.49379 0.86389 0.74753 0.0
C180 C 0.44423 0.76094 0.80837 0.0
C181 C 0.5462 0.85724 0.70921 0.0
C182 C 0.54431 0.7554 0.77242 0.0
C183 C 0.52973 0.73166 0.72881 0.0
C184 C 0.53495 0.78221 0.7812 0.0
C185 C 0.51045 0.78527 0.74555 0.0
C186 C 0.49754 0.76278 0.69973 0.0
C187 C 0.50737 0.7363 0.69189 0.0
C188 C 0.54956 0.80593 0.83022 0.0
C189 C 0.47152 0.76528 0.66055 0.0
H190 H 0.42016 0.80835 0.81573 0.0
H191 H 0.50569 0.88953 0.73165 0.0
H192 H 0.43529 0.74123 0.77492 0.0
H193 H 0.46392 0.757 0.83308 0.0
H194 H 0.42005 0.75612 0.83239 0.0
H195 H 0.55725 0.88531 0.70192 0.0
H196 H 0.56724 0.85355 0.73094 0.0
H197 H 0.54112 0.84262 0.67053 0.0
H198 H 0.56177 0.75215 0.80102 0.0
H199 H 0.49626 0.71832 0.65778 0.0
H200 H 0.52721 0.79948 0.85868 0.0
H201 H 0.55972 0.83347 0.82043 0.0
H202 H 0.57203 0.80336 0.84993 0.0
H203 H 0.44486 0.75777 0.67939 0.0
H204 H 0.46677 0.74807 0.62457 0.0
H205 H 0.48222 0.79244 0.64846 0.0
C206 C 0.71255 0.4799 0.15766 0.0
C207 C 0.70843 0.50203 0.19577 0.0
C208 C 0.74222 0.47297 0.16028 0.0
C209 C 0.76846 0.48859 0.20197 0.0
C210 C 0.76582 0.51275 0.23847 0.0
C211 C 0.73578 0.51919 0.23496 0.0
C212 C 0.74414 0.44716 0.12039 0.0
C213 C 0.79342 0.53013 0.28321 0.0
C214 C 0.81007 0.43281 0.24569 0.0
C215 C 0.84352 0.44724 0.21977 0.0
C216 C 0.78606 0.44686 0.24162 0.0
C217 C 0.7957 0.47618 0.21093 0.0
C218 C 0.83004 0.4918 0.18638 0.0
C219 C 0.8536 0.47711 0.19106 0.0
C220 C 0.74972 0.42945 0.26859 0.0
C221 C 0.84129 0.52319 0.15359 0.0
H222 H 0.69177 0.46679 0.12689 0.0
H223 H 0.73297 0.53653 0.26436 0.0
H224 H 0.77187 0.45778 0.10385 0.0
H225 H 0.73865 0.42301 0.14018 0.0
H226 H 0.72396 0.44022 0.08729 0.0
H227 H 0.79057 0.55182 0.30337 0.0
H228 H 0.78965 0.51073 0.31277 0.0
H229 H 0.82164 0.54037 0.26854 0.0
H230 H 0.80211 0.40987 0.26827 0.0
H231 H 0.87943 0.48847 0.171 0.0
H232 H 0.72722 0.41856 0.23843 0.0
H233 H 0.74587 0.44875 0.29405 0.0
H234 H 0.74725 0.40804 0.29329 0.0
H235 H 0.82379 0.51569 0.11727 0.0
H236 H 0.87028 0.53443 0.14181 0.0
H237 H 0.8373 0.54359 0.17577 0.0
C238 C 0.27415 0.76528 0.69983 0.0
C239 C 0.28176 0.78707 0.74555 0.0
C240 C 0.24548 0.73107 0.69816 0.0
C241 C 0.22383 0.71841 0.74324 0.0
C242 C 0.22987 0.74095 0.7883 0.0
C243 C 0.25883 0.77504 0.78896 0.0
C244 C 0.23985 0.70786 0.64929 0.0
C245 C 0.20715 0.72848 0.83696 0.0
C246 C 0.13802 0.63093 0.72711 0.0
C247 C 0.1508 0.60832 0.74414 0.0
C248 C 0.16121 0.66703 0.72761 0.0
C249 C 0.19796 0.68067 0.74534 0.0
C250 C 0.21075 0.65803 0.76351 0.0
C251 C 0.18703 0.6222 0.7628 0.0
C252 C 0.14663 0.69048 0.70825 0.0
C253 C 0.2498 0.67154 0.78268 0.0
H254 H 0.29152 0.77443 0.66594 0.0
H255 H 0.26433 0.7918 0.82432 0.0
H256 H 0.24779 0.68761 0.6583 0.0
H257 H 0.21063 0.69428 0.63674 0.0
H258 H 0.25632 0.7226 0.61578 0.0
H259 H 0.2121 0.75025 0.8658 0.0
H260 H 0.17763 0.71444 0.82604 0.0
H261 H 0.21389 0.7099 0.85664 0.0
H262 H 0.11005 0.62043 0.71276 0.0
H263 H 0.19718 0.60499 0.77618 0.0
H264 H 0.16118 0.70316 0.67226 0.0
H265 H 0.15172 0.71148 0.73858 0.0
H266 H 0.11687 0.67606 0.69873 0.0
H267 H 0.26872 0.68434 0.75022 0.0
H268 H 0.25515 0.65055 0.79678 0.0
H269 H 0.25632 0.69141 0.81545 0.0
C270 C 0.36216 0.90119 0.00653 0.0
C271 C 0.37463 0.91626 0.95786 0.0
C272 C 0.36869 0.92197 0.05324 0.0
C273 C 0.38811 0.95864 0.05112 0.0
C274 C 0.40018 0.97399 0.00201 0.0
C275 C 0.3933 0.95263 0.956 0.0
C276 C 0.35543 0.90473 0.10497 0.0
C277 C 0.42099 0.01301 -0.00183 0.0
C278 C 0.38453 0.01781 0.16283 0.0
C279 C 0.41818 0.0284 0.18898 0.0
C280 C 0.37384 -0.00571 0.11868 0.0
C281 C 0.39736 0.98111 0.1004 0.0
C282 C 0.43084 0.99092 0.12757 0.0
C283 C 0.44085 0.01445 0.17149 0.0
C284 C 0.33789 0.98433 0.09069 0.0
C285 C 0.45662 0.97733 0.10938 0.0
H286 H 0.34764 0.87311 0.00829 0.0
H287 H 0.40293 0.96452 0.91856 0.0
H288 H 0.37912 0.91105 0.13175 0.0
H289 H 0.33831 0.91483 0.12494 0.0
H290 H 0.33925 0.87598 0.09955 0.0
H291 H 0.42727 0.02084 0.95671 0.0
H292 H 0.40498 0.02522 0.01549 0.0
H293 H 0.44706 0.02359 0.02123 0.0
H294 H 0.36682 0.02839 0.17619 0.0
H295 H 0.46682 0.02233 0.19161 0.0
H296 H 0.32136 0.9556 0.08666 0.0
H297 H 0.34297 -0.00591 0.05018 0.0
H298 H 0.3217 -0.00491 0.11183 0.0
H299 H 0.44214 0.94848 0.1063 0.0
H300 H 0.48068 0.98604 0.13653 0.0
H301 H 0.46648 0.98645 0.06942 0.0
C302 C 0.52205 0.50191 0.32893 0.0
C303 C 0.5568 0.51021 0.30993 0.0
C304 C 0.51793 0.51542 0.37824 0.0
C305 C 0.54933 0.53778 0.40929 0.0
C306 C 0.58451 0.54665 0.39007 0.0
C307 C 0.58783 0.53275 0.3406 0.0
C308 C 0.47995 0.5054 0.39742 0.0
C309 C 0.61861 0.57045 0.42206 0.0
C310 C 0.53802 0.59444 0.51805 0.0
C311 C 0.53415 0.5751 0.56269 0.0
C312 C 0.54354 0.58287 0.46795 0.0
C313 C 0.54523 0.55125 0.4624 0.0
C314 C 0.54204 0.53195 0.50742 0.0
C315 C 0.53654 0.5441 0.55702 0.0
C316 C 0.54689 0.60417 0.42083 0.0
C317 C 0.54378 0.49812 0.50305 0.0
H318 H 0.49793 0.48454 0.30549 0.0
H319 H 0.6148 0.53933 0.32621 0.0
H320 H 0.47531 0.49153 0.43464 0.0
H321 H 0.47703 0.52908 0.40631 0.0
H322 H 0.4584 0.48837 0.36798 0.0
H323 H 0.64394 0.5755 0.40089 0.0
H324 H 0.61903 0.59568 0.43172 0.0
H325 H 0.6187 0.55874 0.46005 0.0
H326 H 0.53626 0.61843 0.52206 0.0
H327 H 0.53364 0.52902 0.59127 0.0
H328 H 0.52419 0.5888 0.39204 0.0
H329 H 0.57278 0.61061 0.40037 0.0
H330 H 0.54624 0.62877 0.43209 0.0
H331 H 0.52105 0.47893 0.47709 0.0
H332 H 0.54195 0.4868 0.54209 0.0
H333 H 0.56967 0.50226 0.4846 0.0
C334 C 0.0181 0.39988 0.87221 0.0
C335 C 0.03938 0.43554 0.86462 0.0
C336 C -0.00558 0.38822 0.91493 0.0
C337 C 0.99199 0.41283 0.95075 0.0
C338 C 0.01366 0.44883 0.94359 0.0
C339 C 0.03709 0.45974 0.90066 0.0
C340 C 0.97175 0.34962 0.92146 0.0
C341 C 0.01181 0.47585 0.981 0.0
C342 C 0.90716 0.38738 0.03202 0.0
C343 C 0.91916 0.3835 0.08186 0.0
C344 C 0.93034 0.39614 0.98868 0.0
C345 C 0.96636 0.4011 -0.00465 0.0
C346 C 0.9784 0.39645 0.04522 0.0
C347 C 0.95465 0.38772 0.08792 0.0
C348 C 0.91656 0.4009 0.93606 0.0
C349 C 0.01663 0.40148 0.05378 0.0
H350 H 0.01974 0.38102 0.84459 0.0
H351 H 0.05346 0.48735 0.89518 0.0
H352 H 0.97721 0.34285 0.96102 0.0
H353 H 0.94228 0.34224 0.91911 0.0
H354 H 0.97742 0.33389 0.89085 0.0
H355 H 0.0309 0.50283 0.97035 0.0
H356 H 0.98365 0.47261 0.98084 0.0
H357 H 0.01847 0.4723 0.02197 0.0
H358 H 0.87976 0.3841 0.02694 0.0
H359 H 0.96412 0.38469 0.12627 0.0
H360 H 0.92001 0.38417 0.90476 0.0
H361 H 0.93286 0.42826 0.92486 0.0
H362 H 0.88731 0.39453 0.93683 0.0
H363 H 0.02216 0.38488 0.0247 0.0
H364 H 0.02113 0.39515 0.09424 0.0
H365 H 0.03679 0.4289 0.04735 0.0
C366 C 0.48426 0.0307 0.46943 0.0
C367 C 0.46783 0.04971 0.44981 0.0
C368 C 0.47381 0.01447 0.51762 0.0
C369 C 0.44615 0.01721 0.54685 0.0
C370 C 0.42969 0.03665 0.52764 0.0
C371 C 0.44078 0.05275 0.47931 0.0
C372 C 0.4921 -0.00594 0.53695 0.0
C373 C 0.40006 0.04005 0.55777 0.0
C374 C 0.39663 0.94575 0.64206 0.0
C375 C 0.41465 0.96176 0.6902 0.0
C376 C 0.40588 0.96387 0.59536 0.0
C377 C 0.4339 -0.00118 0.59681 0.0
C378 C 0.45152 0.01545 0.64548 0.0
C379 C 0.44165 -0.00328 0.69165 0.0
C380 C 0.38637 0.9453 0.54421 0.0
C381 C 0.48157 0.05268 0.64849 0.0
H382 H 0.50529 0.02834 0.44702 0.0
H383 H 0.42798 0.06741 0.46442 0.0
H384 H 0.50438 0.00419 0.57696 0.0
H385 H 0.47152 0.96639 0.54022 0.0
H386 H 0.51384 -0.00472 0.51021 0.0
H387 H 0.39076 0.0569 0.53819 0.0
H388 H 0.37623 0.01396 0.56152 0.0
H389 H 0.41003 0.05106 0.5984 0.0
H390 H 0.3756 0.9188 0.64061 0.0
H391 H 0.45565 0.00931 0.7287 0.0
H392 H 0.40603 0.94302 0.51675 0.0
H393 H 0.375 0.96051 0.52466 0.0
H394 H 0.36377 0.9188 0.55033 0.0
H395 H 0.50524 0.05476 0.62559 0.0
H396 H 0.49099 0.06247 0.68981 0.0
H397 H 0.47204 0.06982 0.63051 0.0
C398 C 0.52046 0.60695 0.89278 0.0
C399 C 0.53458 0.60751 0.84232 0.0
C400 C 0.53207 0.59509 0.93577 0.0
C401 C 0.55843 0.58351 0.92811 0.0
C402 C 0.57339 0.5847 0.87755 0.0
C403 C 0.5613 0.59671 0.83523 0.0
C404 C 0.51556 0.59429 0.98916 0.0
C405 C 0.6016 0.5726 0.86792 0.0
C406 C 0.60869 0.57722 0.04915 0.0
C407 C 0.58914 0.54164 0.0585 0.0
C408 C 0.59918 0.5912 0.00663 0.0
C409 C 0.56942 0.56906 0.97267 0.0
C410 C 0.54971 0.5331 0.98167 0.0
C411 C 0.55981 0.51982 0.02448 0.0
C412 C 0.62081 0.62969 -0.00177 0.0
C413 C 0.5178 0.50867 0.94626 0.0
H414 H 0.49986 0.61531 0.89866 0.0
H415 H 0.57237 0.59707 0.79638 0.0
H416 H 0.50052 0.56706 0.00146 0.0
H417 H 0.53742 0.60905 0.01937 0.0
H418 H 0.4964 0.60546 0.98898 0.0
H419 H 0.61159 0.57652 0.8268 0.0
H420 H 0.62527 0.58681 0.89563 0.0
H421 H 0.58972 0.54454 0.87557 0.0
H422 H 0.63142 0.59427 0.0752 0.0
H423 H 0.54457 0.49229 0.03135 0.0
H424 H 0.60257 0.64181 0.00081 0.0
H425 H 0.63236 0.63389 0.95809 0.0
H426 H 0.64353 0.64327 0.02774 0.0
H427 H 0.49629 0.51694 0.94713 0.0
H428 H 0.50564 0.48132 0.95822 0.0
H429 H 0.52669 0.50967 0.90478 0.0
C430 C 0.0663 0.42824 0.56057 0.0
C431 C 0.06323 0.45095 0.59872 0.0
C432 C 0.04637 0.41958 0.51258 0.0
C433 C 0.02277 0.4339 0.50263 0.0
C434 C 0.01938 0.45666 0.54108 0.0
C435 C 0.03968 0.46494 0.58864 0.0
C436 C 0.05069 0.39524 0.47242 0.0
C437 C -0.00562 0.47235 0.53192 0.0
C438 C -0.00443 0.43828 0.36115 0.0
C439 C 0.96034 0.40987 0.35686 0.0
C440 C 0.0164 0.44615 0.40819 0.0
C441 C 0.00158 0.42514 0.45197 0.0
C442 C 0.96621 0.39623 0.44774 0.0
C443 C 0.94603 0.3889 0.40021 0.0
C444 C 0.0541 0.47716 0.41125 0.0
C445 C 0.94949 0.37328 0.49365 0.0
H446 H 0.08447 0.41735 0.568 0.0
H447 H 0.03711 0.48249 0.6179 0.0
H448 H 0.02383 0.37214 0.46353 0.0
H449 H 0.06065 0.40845 0.43486 0.0
H450 H 0.07008 0.38625 0.48629 0.0
H451 H -0.00532 0.48941 0.56597 0.0
H452 H 0.00267 0.48789 0.49617 0.0
H453 H 0.96594 0.45141 0.52469 0.0
H454 H 0.00687 0.45456 0.32783 0.0
H455 H 0.91883 0.36689 0.39725 0.0
H456 H 0.0746 0.46889 0.42236 0.0
H457 H 0.05519 0.49629 0.44244 0.0
H458 H 0.06201 0.49032 0.37324 0.0
H459 H 0.96744 0.36248 0.50673 0.0
H460 H 0.92198 0.35135 0.48355 0.0
H461 H 0.94707 0.3889 0.52767 0.0
loop_
_geom_bond_atom_site_label_1
_geom_bond_atom_site_label_2
_geom_bond_distance
_geom_bond_site_symmetry_2
_ccdc_geom_bond_type
C0 O1 1.160 . S
C0 O7 1.185 . S
O1 C0 1.160 . S
O2 Zn3 1.899 . S
O2 C10 1.284 . S
Zn3 O2 1.899 . S
Zn3 O4 2.032 . S
Zn3 O7 2.086 . S
Zn3 O12 1.977 . S
O4 Zn3 2.032 . S
O4 C8 1.278 . S
C5 O6 1.203 . S
C5 O12 1.267 . S
O6 C5 1.203 . S
O7 C0 1.185 . S
O7 Zn3 2.086 . S
C8 O4 1.278 . S
C8 O9 1.211 . S
O9 C8 1.211 . S
C10 O2 1.284 . S
C10 O11 1.273 . S
O11 C10 1.273 . S
O12 Zn3 1.977 . S
O12 C5 1.267 . S
C13 O14 1.160 . S
C13 O20 1.185 . S
O14 C13 1.160 . S
O15 Zn16 1.899 . S
O15 C23 1.284 . S
Zn16 O15 1.899 . S
Zn16 O17 2.032 . S
Zn16 O20 2.086 . S
Zn16 O25 1.977 . S
O17 Zn16 2.032 . S
O17 C21 1.278 . S
C18 O19 1.203 . S
C18 O25 1.267 . S
O19 C18 1.203 . S
O20 C13 1.185 . S
O20 Zn16 2.086 . S
C21 O17 1.278 . S
C21 O22 1.211 . S
O22 C21 1.211 . S
C23 O15 1.284 . S
C23 O24 1.273 . S
O24 C23 1.273 . S
O25 Zn16 1.977 . S
O25 C18 1.267 . S
C26 O27 1.160 . S
C26 O33 1.185 . S
O27 C26 1.160 . S
O28 Zn29 1.899 . S
O28 C36 1.284 . S
Zn29 O28 1.899 . S
Zn29 O30 2.032 . S
Zn29 O33 2.086 . S
Zn29 O38 1.977 . S
O30 Zn29 2.032 . S
O30 C34 1.278 . S
C31 O32 1.203 . S
C31 O38 1.267 . S
O32 C31 1.203 . S
O33 C26 1.185 . S
O33 Zn29 2.086 . S
C34 O30 1.278 . S
C34 O35 1.211 . S
O35 C34 1.211 . S
C36 O28 1.284 . S
C36 O37 1.273 . S
O37 C36 1.273 . S
O38 Zn29 1.977 . S
O38 C31 1.267 . S
C39 O40 1.160 . S
C39 O46 1.185 . S
O40 C39 1.160 . S
O41 Zn42 1.899 . S
O41 C49 1.284 . S
Zn42 O41 1.899 . S
Zn42 O43 2.032 . S
Zn42 O46 2.086 . S
Zn42 O51 1.977 . S
O43 Zn42 2.032 . S
O43 C47 1.278 . S
C44 O45 1.203 . S
C44 O51 1.267 . S
O45 C44 1.203 . S
O46 C39 1.185 . S
O46 Zn42 2.086 . S
C47 O43 1.278 . S
C47 O48 1.211 . S
O48 C47 1.211 . S
C49 O41 1.284 . S
C49 O50 1.273 . S
O50 C49 1.273 . S
O51 Zn42 1.977 . S
O51 C44 1.267 . S
C52 O53 1.160 . S
C52 O59 1.185 . S
O53 C52 1.160 . S
O54 Zn55 1.899 . S
O54 C62 1.284 . S
Zn55 O54 1.899 . S
Zn55 O56 2.032 . S
Zn55 O59 2.086 . S
Zn55 O64 1.977 . S
O56 Zn55 2.032 . S
O56 C60 1.278 . S
C57 O58 1.203 . S
C57 O64 1.267 . S
O58 C57 1.203 . S
O59 C52 1.185 . S
O59 Zn55 2.086 . S
C60 O56 1.278 . S
C60 O61 1.211 . S
O61 C60 1.211 . S
C62 O54 1.284 . S
C62 O63 1.273 . S
O63 C62 1.273 . S
O64 Zn55 1.977 . S
O64 C57 1.267 . S
C65 O66 1.160 . S
C65 O72 1.185 . S
O66 C65 1.160 . S
O67 Zn68 1.899 . S
O67 C75 1.284 . S
Zn68 O67 1.899 . S
Zn68 O69 2.032 . S
Zn68 O72 2.086 . S
Zn68 O77 1.977 . S
O69 Zn68 2.032 . S
O69 C73 1.278 . S
C70 O71 1.203 . S
C70 O77 1.267 . S
O71 C70 1.203 . S
O72 C65 1.185 . S
O72 Zn68 2.086 . S
C73 O69 1.278 . S
C73 O74 1.211 . S
O74 C73 1.211 . S
C75 O67 1.284 . S
C75 O76 1.273 . S
O76 C75 1.273 . S
O77 Zn68 1.977 . S
O77 C70 1.267 . S
C78 C79 1.391 . S
C78 C80 1.394 . S
C78 H94 0.931 . S
C79 C78 1.391 . S
C79 C83 1.376 . S
C80 C78 1.394 . S
C80 C81 1.369 . S
C80 C84 1.531 . S
C81 C80 1.369 . S
C81 C82 1.410 . S
C81 C89 1.503 . S
C82 C81 1.410 . S
C82 C83 1.392 . S
C82 C85 1.511 . S
C83 C79 1.376 . S
C83 C82 1.392 . S
C83 H95 0.929 . S
C84 C80 1.531 . S
C84 H96 0.960 . S
C84 H97 0.962 . S
C84 H98 0.960 . S
C85 C82 1.511 . S
C85 H99 0.961 . S
C85 H100 0.961 . S
C85 H101 0.961 . S
C86 C87 1.370 . S
C86 C88 1.363 . S
C86 H102 0.931 . S
C87 C86 1.370 . S
C87 C91 1.408 . S
C88 C86 1.363 . S
C88 C89 1.370 . S
C88 C92 1.524 . S
C89 C81 1.503 . S
C89 C88 1.370 . S
C89 C90 1.403 . S
C90 C89 1.403 . S
C90 C91 1.404 . S
C90 C93 1.539 . S
C91 C87 1.408 . S
C91 C90 1.404 . S
C91 H103 0.930 . S
C92 C88 1.524 . S
C92 H104 0.956 . S
C92 H105 0.961 . S
C92 H106 0.961 . S
C93 C90 1.539 . S
C93 H107 0.958 . S
C93 H108 0.961 . S
C93 H109 0.960 . S
H94 C78 0.931 . S
H95 C83 0.929 . S
H96 C84 0.960 . S
H97 C84 0.962 . S
H98 C84 0.960 . S
H99 C85 0.961 . S
H100 C85 0.961 . S
H101 C85 0.961 . S
H102 C86 0.931 . S
H103 C91 0.930 . S
H104 C92 0.956 . S
H105 C92 0.961 . S
H106 C92 0.961 . S
H107 C93 0.958 . S
H108 C93 0.961 . S
H109 C93 0.960 . S
C110 C111 1.391 . S
C110 C112 1.394 . S
C110 H126 0.931 . S
C111 C110 1.391 . S
C111 C115 1.376 . S
C112 C110 1.394 . S
C112 C113 1.369 . S
C112 C116 1.531 . S
C113 C112 1.369 . S
C113 C114 1.410 . S
C113 C121 1.503 . S
C114 C113 1.410 . S
C114 C115 1.392 . S
C114 C117 1.511 . S
C115 C111 1.376 . S
C115 C114 1.392 . S
C115 H127 0.929 . S
C116 C112 1.531 . S
C116 H128 0.960 . S
C116 H129 0.962 . S
C116 H130 0.960 . S
C117 C114 1.511 . S
C117 H131 0.961 . S
C117 H132 0.961 . S
C117 H133 0.961 . S
C118 C119 1.370 . S
C118 C120 1.363 . S
C118 H134 0.931 . S
C119 C118 1.370 . S
C119 C123 1.408 . S
C120 C118 1.363 . S
C120 C121 1.370 . S
C120 C124 1.524 . S
C121 C113 1.503 . S
C121 C120 1.370 . S
C121 C122 1.403 . S
C122 C121 1.403 . S
C122 C123 1.404 . S
C122 C125 1.539 . S
C123 C119 1.408 . S
C123 C122 1.404 . S
C123 H135 0.930 . S
C124 C120 1.524 . S
C124 H136 0.956 . S
C124 H137 0.961 . S
C124 H138 0.961 . S
C125 C122 1.539 . S
C125 H139 0.958 . S
C125 H140 0.961 . S
C125 H141 0.960 . S
H126 C110 0.931 . S
H127 C115 0.929 . S
H128 C116 0.960 . S
H129 C116 0.962 . S
H130 C116 0.960 . S
H131 C117 0.961 . S
H132 C117 0.961 . S
H133 C117 0.961 . S
H134 C118 0.931 . S
H135 C123 0.930 . S
H136 C124 0.956 . S
H137 C124 0.961 . S
H138 C124 0.961 . S
H139 C125 0.958 . S
H140 C125 0.961 . S
H141 C125 0.960 . S
C142 C143 1.391 . S
C142 C144 1.394 . S
C142 H158 0.931 . S
C143 C142 1.391 . S
C143 C147 1.376 . S
C144 C142 1.394 . S
C144 C145 1.369 . S
C144 C148 1.531 . S
C145 C144 1.369 . S
C145 C146 1.410 . S
C145 C153 1.503 . S
C146 C145 1.410 . S
C146 C147 1.392 . S
C146 C149 1.511 . S
C147 C143 1.376 . S
C147 C146 1.392 . S
C147 H159 0.929 . S
C148 C144 1.531 . S
C148 H160 0.960 . S
C148 H161 0.962 . S
C148 H162 0.960 . S
C149 C146 1.511 . S
C149 H163 0.961 . S
C149 H164 0.961 . S
C149 H165 0.961 . S
C150 C151 1.370 . S
C150 C152 1.363 . S
C150 H166 0.931 . S
C151 C150 1.370 . S
C151 C155 1.408 . S
C152 C150 1.363 . S
C152 C153 1.370 . S
C152 C156 1.524 . S
C153 C145 1.503 . S
C153 C152 1.370 . S
C153 C154 1.403 . S
C154 C153 1.403 . S
C154 C155 1.404 . S
C154 C157 1.539 . S
C155 C151 1.408 . S
C155 C154 1.404 . S
C155 H167 0.930 . S
C156 C152 1.524 . S
C156 H168 0.956 . S
C156 H169 0.961 . S
C156 H170 0.961 . S
C157 C154 1.539 . S
C157 H171 0.958 . S
C157 H172 0.961 . S
C157 H173 0.960 . S
H158 C142 0.931 . S
H159 C147 0.929 . S
H160 C148 0.960 . S
H161 C148 0.962 . S
H162 C148 0.960 . S
H163 C149 0.961 . S
H164 C149 0.961 . S
H165 C149 0.961 . S
H166 C150 0.931 . S
H167 C155 0.930 . S
H168 C156 0.956 . S
H169 C156 0.961 . S
H170 C156 0.961 . S
H171 C157 0.958 . S
H172 C157 0.961 . S
H173 C157 0.960 . S
C174 C175 1.391 . S
C174 C176 1.394 . S
C174 H190 0.931 . S
C175 C174 1.391 . S
C175 C179 1.376 . S
C176 C174 1.394 . S
C176 C177 1.369 . S
C176 C180 1.531 . S
C177 C176 1.369 . S
C177 C178 1.410 . S
C177 C185 1.503 . S
C178 C177 1.410 . S
C178 C179 1.392 . S
C178 C181 1.511 . S
C179 C175 1.376 . S
C179 C178 1.392 . S
C179 H191 0.929 . S
C180 C176 1.531 . S
C180 H192 0.960 . S
C180 H193 0.962 . S
C180 H194 0.960 . S
C181 C178 1.511 . S
C181 H195 0.961 . S
C181 H196 0.961 . S
C181 H197 0.961 . S
C182 C183 1.370 . S
C182 C184 1.363 . S
C182 H198 0.931 . S
C183 C182 1.370 . S
C183 C187 1.408 . S
C184 C182 1.363 . S
C184 C185 1.370 . S
C184 C188 1.524 . S
C185 C177 1.503 . S
C185 C184 1.370 . S
C185 C186 1.403 . S
C186 C185 1.403 . S
C186 C187 1.404 . S
C186 C189 1.539 . S
C187 C183 1.408 . S
C187 C186 1.404 . S
C187 H199 0.930 . S
C188 C184 1.524 . S
C188 H200 0.956 . S
C188 H201 0.961 . S
C188 H202 0.961 . S
C189 C186 1.539 . S
C189 H203 0.958 . S
C189 H204 0.961 . S
C189 H205 0.960 . S
H190 C174 0.931 . S
H191 C179 0.929 . S
H192 C180 0.960 . S
H193 C180 0.962 . S
H194 C180 0.960 . S
H195 C181 0.961 . S
H196 C181 0.961 . S
H197 C181 0.961 . S
H198 C182 0.931 . S
H199 C187 0.930 . S
H200 C188 0.956 . S
H201 C188 0.961 . S
H202 C188 0.961 . S
H203 C189 0.958 . S
H204 C189 0.961 . S
H205 C189 0.960 . S
C206 C207 1.391 . S
C206 C208 1.394 . S
C206 H222 0.931 . S
C207 C206 1.391 . S
C207 C211 1.376 . S
C208 C206 1.394 . S
C208 C209 1.369 . S
C208 C212 1.531 . S
C209 C208 1.369 . S
C209 C210 1.410 . S
C209 C217 1.503 . S
C210 C209 1.410 . S
C210 C211 1.392 . S
C210 C213 1.511 . S
C211 C207 1.376 . S
C211 C210 1.392 . S
C211 H223 0.929 . S
C212 C208 1.531 . S
C212 H224 0.960 . S
C212 H225 0.962 . S
C212 H226 0.960 . S
C213 C210 1.511 . S
C213 H227 0.961 . S
C213 H228 0.961 . S
C213 H229 0.961 . S
C214 C215 1.370 . S
C214 C216 1.363 . S
C214 H230 0.931 . S
C215 C214 1.370 . S
C215 C219 1.408 . S
C216 C214 1.363 . S
C216 C217 1.370 . S
C216 C220 1.524 . S
C217 C209 1.503 . S
C217 C216 1.370 . S
C217 C218 1.403 . S
C218 C217 1.403 . S
C218 C219 1.404 . S
C218 C221 1.539 . S
C219 C215 1.408 . S
C219 C218 1.404 . S
C219 H231 0.930 . S
C220 C216 1.524 . S
C220 H232 0.956 . S
C220 H233 0.961 . S
C220 H234 0.961 . S
C221 C218 1.539 . S
C221 H235 0.958 . S
C221 H236 0.961 . S
C221 H237 0.960 . S
H222 C206 0.931 . S
H223 C211 0.929 . S
H224 C212 0.960 . S
H225 C212 0.962 . S
H226 C212 0.960 . S
H227 C213 0.961 . S
H228 C213 0.961 . S
H229 C213 0.961 . S
H230 C214 0.931 . S
H231 C219 0.930 . S
H232 C220 0.956 . S
H233 C220 0.961 . S
H234 C220 0.961 . S
H235 C221 0.958 . S
H236 C221 0.961 . S
H237 C221 0.960 . S
C238 C239 1.391 . S
C238 C240 1.394 . S
C238 H254 0.931 . S
C239 C238 1.391 . S
C239 C243 1.376 . S
C240 C238 1.394 . S
C240 C241 1.369 . S
C240 C244 1.531 . S
C241 C240 1.369 . S
C241 C242 1.410 . S
C241 C249 1.503 . S
C242 C241 1.410 . S
C242 C243 1.392 . S
C242 C245 1.511 . S
C243 C239 1.376 . S
C243 C242 1.392 . S
C243 H255 0.929 . S
C244 C240 1.531 . S
C244 H256 0.960 . S
C244 H257 0.962 . S
C244 H258 0.960 . S
C245 C242 1.511 . S
C245 H259 0.961 . S
C245 H260 0.961 . S
C245 H261 0.961 . S
C246 C247 1.370 . S
C246 C248 1.363 . S
C246 H262 0.931 . S
C247 C246 1.370 . S
C247 C251 1.408 . S
C248 C246 1.363 . S
C248 C249 1.370 . S
C248 C252 1.524 . S
C249 C241 1.503 . S
C249 C248 1.370 . S
C249 C250 1.403 . S
C250 C249 1.403 . S
C250 C251 1.404 . S
C250 C253 1.539 . S
C251 C247 1.408 . S
C251 C250 1.404 . S
C251 H263 0.930 . S
C252 C248 1.524 . S
C252 H264 0.956 . S
C252 H265 0.961 . S
C252 H266 0.961 . S
C253 C250 1.539 . S
C253 H267 0.958 . S
C253 H268 0.961 . S
C253 H269 0.960 . S
H254 C238 0.931 . S
H255 C243 0.929 . S
H256 C244 0.960 . S
H257 C244 0.962 . S
H258 C244 0.960 . S
H259 C245 0.961 . S
H260 C245 0.961 . S
H261 C245 0.961 . S
H262 C246 0.931 . S
H263 C251 0.930 . S
H264 C252 0.956 . S
H265 C252 0.961 . S
H266 C252 0.961 . S
H267 C253 0.958 . S
H268 C253 0.961 . S
H269 C253 0.960 . S
C270 C271 1.391 . S
C270 C272 1.394 . S
C270 H286 0.931 . S
C271 C270 1.391 . S
C271 C275 1.376 . S
C272 C270 1.394 . S
C272 C273 1.369 . S
C272 C276 1.520 1_556 S
C273 C272 1.369 . S
C273 C274 1.410 . S
C273 C281 1.503 1_566 S
C274 C273 1.410 . S
C274 C275 1.392 . S
C274 C277 1.511 . S
C275 C271 1.376 . S
C275 C274 1.392 . S
C275 H287 0.929 . S
C276 C272 1.520 1_554 S
C276 H288 0.978 . S
C276 H289 0.957 1_554 S
C276 H290 0.959 1_554 S
C277 C274 1.511 . S
C277 H291 0.961 1_565 S
C277 H292 0.946 1_565 S
C277 H293 0.976 . S
C278 C279 1.370 . S
C278 C280 1.363 . S
C278 H294 0.931 . S
C279 C278 1.370 . S
C279 C283 1.408 . S
C280 C278 1.363 . S
C280 C281 1.370 . S
C280 C284 1.524 1_554 S
C281 C273 1.503 1_544 S
C281 C280 1.370 . S
C281 C282 1.403 1_545 S
C282 C281 1.403 1_565 S
C282 C283 1.404 1_565 S
C282 C285 1.539 . S
C283 C279 1.408 . S
C283 C282 1.404 1_545 S
C283 H295 0.930 . S
C284 C280 1.524 1_556 S
C284 H296 0.956 . S
C284 H297 0.961 . S
C284 H298 0.961 . S
C285 C282 1.539 . S
C285 H299 0.958 . S
C285 H300 0.961 . S
C285 H301 0.960 . S
H286 C270 0.931 . S
H287 C275 0.929 . S
H288 C276 0.978 . S
H289 C276 0.957 1_556 S
H290 C276 0.959 1_556 S
H291 C277 0.961 1_545 S
H292 C277 0.946 1_545 S
H293 C277 0.976 . S
H294 C278 0.931 . S
H295 C283 0.930 . S
H296 C284 0.956 . S
H297 C284 0.961 . S
H298 C284 0.961 . S
H299 C285 0.958 . S
H300 C285 0.961 . S
H301 C285 0.960 . S
C302 C303 1.391 . S
C302 C304 1.394 . S
C302 H318 0.931 . S
C303 C302 1.391 . S
C303 C307 1.376 . S
C304 C302 1.394 . S
C304 C305 1.369 . S
C304 C308 1.531 . S
C305 C304 1.369 . S
C305 C306 1.410 . S
C305 C313 1.503 . S
C306 C305 1.410 . S
C306 C307 1.392 . S
C306 C309 1.511 . S
C307 C303 1.376 . S
C307 C306 1.392 . S
C307 H319 0.929 . S
C308 C304 1.531 . S
C308 H320 0.960 . S
C308 H321 0.962 . S
C308 H322 0.960 . S
C309 C306 1.511 . S
C309 H323 0.961 . S
C309 H324 0.961 . S
C309 H325 0.961 . S
C310 C311 1.370 . S
C310 C312 1.363 . S
C310 H326 0.931 . S
C311 C310 1.370 . S
C311 C315 1.408 . S
C312 C310 1.363 . S
C312 C313 1.370 . S
C312 C316 1.524 . S
C313 C305 1.503 . S
C313 C312 1.370 . S
C313 C314 1.403 . S
C314 C313 1.403 . S
C314 C315 1.404 . S
C314 C317 1.539 . S
C315 C311 1.408 . S
C315 C314 1.404 . S
C315 H327 0.930 . S
C316 C312 1.524 . S
C316 H328 0.956 . S
C316 H329 0.961 . S
C316 H330 0.961 . S
C317 C314 1.539 . S
C317 H331 0.958 . S
C317 H332 0.961 . S
C317 H333 0.960 . S
H318 C302 0.931 . S
H319 C307 0.929 . S
H320 C308 0.960 . S
H321 C308 0.962 . S
H322 C308 0.960 . S
H323 C309 0.961 . S
H324 C309 0.961 . S
H325 C309 0.961 . S
H326 C310 0.931 . S
H327 C315 0.930 . S
H328 C316 0.956 . S
H329 C316 0.961 . S
H330 C316 0.961 . S
H331 C317 0.958 . S
H332 C317 0.961 . S
H333 C317 0.960 . S
C334 C335 1.391 . S
C334 C336 1.394 . S
C334 H350 0.931 . S
C335 C334 1.391 . S
C335 C339 1.376 . S
C336 C334 1.394 . S
C336 C337 1.369 1_556 S
C336 C340 1.531 . S
C337 C336 1.369 1_554 S
C337 C338 1.410 1_554 S
C337 C345 1.503 1_455 S
C338 C337 1.410 1_556 S
C338 C339 1.392 . S
C338 C341 1.511 1_556 S
C339 C335 1.376 . S
C339 C338 1.392 . S
C339 H351 0.929 . S
C340 C336 1.531 . S
C340 H352 0.960 1_556 S
C340 H353 0.962 1_455 S
C340 H354 0.960 . S
C341 C338 1.511 1_554 S
C341 H355 0.961 1_554 S
C341 H356 0.961 1_455 S
C341 H357 0.961 . S
C342 C343 1.370 . S
C342 C344 1.363 . S
C342 H358 0.931 . S
C343 C342 1.370 . S
C343 C347 1.408 . S
C344 C342 1.363 . S
C344 C345 1.370 . S
C344 C348 1.524 1_554 S
C345 C337 1.503 1_655 S
C345 C344 1.370 . S
C345 C346 1.403 1_655 S
C346 C345 1.403 1_455 S
C346 C347 1.404 1_455 S
C346 C349 1.539 . S
C347 C343 1.408 . S
C347 C346 1.404 1_655 S
C347 H359 0.930 . S
C348 C344 1.524 1_556 S
C348 H360 0.956 . S
C348 H361 0.961 . S
C348 H362 0.961 . S
C349 C346 1.539 . S
C349 H363 0.958 . S
C349 H364 0.961 . S
C349 H365 0.960 . S
H350 C334 0.931 . S
H351 C339 0.929 . S
H352 C340 0.960 1_554 S
H353 C340 0.962 1_655 S
H354 C340 0.960 . S
H355 C341 0.961 1_556 S
H356 C341 0.961 1_655 S
H357 C341 0.961 . S
H358 C342 0.931 . S
H359 C347 0.930 . S
H360 C348 0.956 . S
H361 C348 0.961 . S
H362 C348 0.961 . S
H363 C349 0.958 . S
H364 C349 0.961 . S
H365 C349 0.960 . S
C366 C367 1.391 . S
C366 C368 1.394 . S
C366 H382 0.931 . S
C367 C366 1.391 . S
C367 C371 1.376 . S
C368 C366 1.394 . S
C368 C369 1.369 . S
C368 C372 1.531 . S
C369 C368 1.369 . S
C369 C370 1.410 . S
C369 C377 1.503 1_545 S
C370 C369 1.410 . S
C370 C371 1.392 . S
C370 C373 1.511 . S
C371 C367 1.376 . S
C371 C370 1.392 . S
C371 H383 0.929 . S
C372 C368 1.531 . S
C372 H384 0.960 . S
C372 H385 0.962 1_545 S
C372 H386 0.960 . S
C373 C370 1.511 . S
C373 H387 0.961 . S
C373 H388 0.961 . S
C373 H389 0.961 . S
C374 C375 1.370 . S
C374 C376 1.363 . S
C374 H390 0.931 . S
C375 C374 1.370 . S
C375 C379 1.408 . S
C376 C374 1.363 . S
C376 C377 1.370 . S
C376 C380 1.524 . S
C377 C369 1.503 1_565 S
C377 C376 1.370 . S
C377 C378 1.403 1_565 S
C378 C377 1.403 1_545 S
C378 C379 1.404 1_545 S
C378 C381 1.539 . S
C379 C375 1.408 . S
C379 C378 1.404 1_565 S
C379 H391 0.930 1_565 S
C380 C376 1.524 . S
C380 H392 0.956 . S
C380 H393 0.961 . S
C380 H394 0.961 . S
C381 C378 1.539 . S
C381 H395 0.958 . S
C381 H396 0.961 . S
C381 H397 0.960 . S
H382 C366 0.931 . S
H383 C371 0.929 . S
H384 C372 0.960 . S
H385 C372 0.962 1_565 S
H386 C372 0.960 . S
H387 C373 0.961 . S
H388 C373 0.961 . S
H389 C373 0.961 . S
H390 C374 0.931 . S
H391 C379 0.930 1_545 S
H392 C380 0.956 . S
H393 C380 0.961 . S
H394 C380 0.961 . S
H395 C381 0.958 . S
H396 C381 0.961 . S
H397 C381 0.960 . S
C398 C399 1.391 . S
C398 C400 1.394 . S
C398 H414 0.931 . S
C399 C398 1.391 . S
C399 C403 1.376 . S
C400 C398 1.394 . S
C400 C401 1.369 . S
C400 C404 1.531 . S
C401 C400 1.369 . S
C401 C402 1.410 . S
C401 C409 1.503 . S
C402 C401 1.410 . S
C402 C403 1.392 . S
C402 C405 1.511 . S
C403 C399 1.376 . S
C403 C402 1.392 . S
C403 H415 0.929 . S
C404 C400 1.531 . S
C404 H416 0.960 . S
C404 H417 0.962 1_556 S
C404 H418 0.960 . S
C405 C402 1.511 . S
C405 H419 0.961 . S
C405 H420 0.961 . S
C405 H421 0.961 . S
C406 C407 1.370 . S
C406 C408 1.363 . S
C406 H422 0.931 . S
C407 C406 1.370 . S
C407 C411 1.408 . S
C408 C406 1.363 . S
C408 C409 1.370 1_554 S
C408 C412 1.524 . S
C409 C401 1.503 . S
C409 C408 1.370 1_556 S
C409 C410 1.403 . S
C410 C409 1.403 . S
C410 C411 1.402 1_556 S
C410 C413 1.540 . S
C411 C407 1.408 . S
C411 C410 1.402 1_554 S
C411 H423 0.930 . S
C412 C408 1.524 . S
C412 H424 0.956 . S
C412 H425 0.961 . S
C412 H426 0.961 . S
C413 C410 1.540 . S
C413 H427 0.958 . S
C413 H428 0.961 . S
C413 H429 0.960 . S
H414 C398 0.931 . S
H415 C403 0.929 . S
H416 C404 0.960 . S
H417 C404 0.962 1_554 S
H418 C404 0.960 . S
H419 C405 0.961 . S
H420 C405 0.961 . S
H421 C405 0.961 . S
H422 C406 0.931 . S
H423 C411 0.930 . S
H424 C412 0.956 . S
H425 C412 0.961 . S
H426 C412 0.961 . S
H427 C413 0.958 . S
H428 C413 0.961 . S
H429 C413 0.960 . S
C430 C431 1.391 . S
C430 C432 1.394 . S
C430 H446 0.931 . S
C431 C430 1.391 . S
C431 C435 1.376 . S
C432 C430 1.394 . S
C432 C433 1.369 . S
C432 C436 1.531 . S
C433 C432 1.369 . S
C433 C434 1.410 . S
C433 C441 1.503 1_455 S
C434 C433 1.410 . S
C434 C435 1.392 . S
C434 C437 1.511 1_455 S
C435 C431 1.376 . S
C435 C434 1.392 . S
C435 H447 0.929 . S
C436 C432 1.531 . S
C436 H448 0.960 . S
C436 H449 0.962 . S
C436 H450 0.960 . S
C437 C434 1.511 1_655 S
C437 H451 0.961 . S
C437 H452 0.961 . S
C437 H453 0.961 . S
C438 C439 1.370 . S
C438 C440 1.363 1_655 S
C438 H454 0.931 . S
C439 C438 1.370 . S
C439 C443 1.408 . S
C440 C438 1.363 1_455 S
C440 C441 1.370 1_455 S
C440 C444 1.524 . S
C441 C433 1.503 1_655 S
C441 C440 1.370 1_655 S
C441 C442 1.403 . S
C442 C441 1.403 . S
C442 C443 1.404 . S
C442 C445 1.539 . S
C443 C439 1.408 . S
C443 C442 1.404 . S
C443 H455 0.930 . S
C444 C440 1.524 . S
C444 H456 0.956 . S
C444 H457 0.961 . S
C444 H458 0.961 . S
C445 C442 1.539 . S
C445 H459 0.958 . S
C445 H460 0.961 . S
C445 H461 0.960 . S
H446 C430 0.931 . S
H447 C435 0.929 . S
H448 C436 0.960 . S
H449 C436 0.962 . S
H450 C436 0.960 . S
H451 C437 0.961 . S
H452 C437 0.961 . S
H453 C437 0.961 . S
H454 C438 0.931 . S
H455 C443 0.930 . S
H456 C444 0.956 . S
H457 C444 0.961 . S
H458 C444 0.961 . S
H459 C445 0.958 . S
H460 C445 0.961 . S
H461 C445 0.960 . S
C79 C5 0.939 . S
C87 C57 0.938 . S
C111 C23 0.985 . S
C119 C75 0.969 . S
C143 C10 0.995 . S
C151 C31 0.964 . S
C175 C49 1.009 . S
C183 C18 0.961 . S
C207 C62 1.010 . S
C215 C36 0.977 . S
C239 C44 0.899 . S
C247 C70 0.924 . S
C271 C47 1.284 . S
C279 C8 1.313 . S
C303 C60 1.315 . S
C311 C13 1.345 . S
C335 C65 1.301 . S
C343 C34 1.345 . S
C367 C0 1.307 . S
C375 C39 1.343 . S
C399 C21 1.355 . S
C407 C52 1.323 . S
C431 C73 1.364 . S
C439 C26 1.330 . S
