# Generated by pormake.
# Topology ukj, (4)-cn, num edge types: 1
# Building blocks:
#     Node 0, Type 0, BuildingBlock: KOZSID_clean_sbu_0, # of connection points: 4
#     Node 1, Type 0, BuildingBlock: KOZSID_clean_sbu_0, # of connection points: 4
#     Node 2, Type 0, BuildingBlock: KOZSID_clean_sbu_0, # of connection points: 4
#     Node 3, Type 0, BuildingBlock: KOZSID_clean_sbu_0, # of connection points: 4
#     Node 4, Type 0, BuildingBlock: KOZSID_clean_sbu_0, # of connection points: 4
#     Node 5, Type 0, BuildingBlock: KOZSID_clean_sbu_0, # of connection points: 4
#     Node 6, Type 0, BuildingBlock: KOZSID_clean_sbu_0, # of connection points: 4
#     Node 7, Type 0, BuildingBlock: KOZSID_clean_sbu_0, # of connection points: 4
#     Node 8, Type 0, BuildingBlock: KOZSID_clean_sbu_0, # of connection points: 4
#     Node 9, Type 0, BuildingBlock: KOZSID_clean_sbu_0, # of connection points: 4
#     Node 10, Type 0, BuildingBlock: KOZSID_clean_sbu_0, # of connection points: 4
#     Node 11, Type 0, BuildingBlock: KOZSID_clean_sbu_0, # of connection points: 4
#     Node 12, Type 0, BuildingBlock: KOZSID_clean_sbu_0, # of connection points: 4
#     Node 13, Type 0, BuildingBlock: KOZSID_clean_sbu_0, # of connection points: 4
#     Node 14, Type 0, BuildingBlock: KOZSID_clean_sbu_0, # of connection points: 4
#     Node 15, Type 0, BuildingBlock: KOZSID_clean_sbu_0, # of connection points: 4
#     Node 16, Type 0, BuildingBlock: KOZSID_clean_sbu_0, # of connection points: 4
#     Node 17, Type 0, BuildingBlock: KOZSID_clean_sbu_0, # of connection points: 4
#     Node 18, Type 0, BuildingBlock: KOZSID_clean_sbu_0, # of connection points: 4
#     Node 19, Type 0, BuildingBlock: KOZSID_clean_sbu_0, # of connection points: 4
#     Node 20, Type 0, BuildingBlock: KOZSID_clean_sbu_0, # of connection points: 4
#     Node 21, Type 0, BuildingBlock: KOZSID_clean_sbu_0, # of connection points: 4
#     Node 22, Type 0, BuildingBlock: KOZSID_clean_sbu_0, # of connection points: 4
#     Node 23, Type 0, BuildingBlock: KOZSID_clean_sbu_0, # of connection points: 4
#     Node 24, Type 0, BuildingBlock: KOZSID_clean_sbu_0, # of connection points: 4
#     Node 25, Type 0, BuildingBlock: KOZSID_clean_sbu_0, # of connection points: 4
#     Node 26, Type 0, BuildingBlock: KOZSID_clean_sbu_0, # of connection points: 4
#     Node 27, Type 0, BuildingBlock: KOZSID_clean_sbu_0, # of connection points: 4
#     Node 28, Type 0, BuildingBlock: KOZSID_clean_sbu_0, # of connection points: 4
#     Node 29, Type 0, BuildingBlock: KOZSID_clean_sbu_0, # of connection points: 4
#     Node 30, Type 0, BuildingBlock: KOZSID_clean_sbu_0, # of connection points: 4
#     Node 31, Type 0, BuildingBlock: KOZSID_clean_sbu_0, # of connection points: 4
#     Edge 32, Type (0, 0), BuildingBlock: OJICUG_clean_linker_0, # of connection points: 2
#     Edge 33, Type (0, 0), BuildingBlock: OJICUG_clean_linker_0, # of connection points: 2
#     Edge 34, Type (0, 0), BuildingBlock: OJICUG_clean_linker_0, # of connection points: 2
#     Edge 35, Type (0, 0), BuildingBlock: OJICUG_clean_linker_0, # of connection points: 2
#     Edge 36, Type (0, 0), BuildingBlock: OJICUG_clean_linker_0, # of connection points: 2
#     Edge 37, Type (0, 0), BuildingBlock: OJICUG_clean_linker_0, # of connection points: 2
#     Edge 38, Type (0, 0), BuildingBlock: OJICUG_clean_linker_0, # of connection points: 2
#     Edge 39, Type (0, 0), BuildingBlock: OJICUG_clean_linker_0, # of connection points: 2
#     Edge 40, Type (0, 0), BuildingBlock: OJICUG_clean_linker_0, # of connection points: 2
#     Edge 41, Type (0, 0), BuildingBlock: OJICUG_clean_linker_0, # of connection points: 2
#     Edge 42, Type (0, 0), BuildingBlock: OJICUG_clean_linker_0, # of connection points: 2
#     Edge 43, Type (0, 0), BuildingBlock: OJICUG_clean_linker_0, # of connection points: 2
#     Edge 44, Type (0, 0), BuildingBlock: OJICUG_clean_linker_0, # of connection points: 2
#     Edge 45, Type (0, 0), BuildingBlock: OJICUG_clean_linker_0, # of connection points: 2
#     Edge 46, Type (0, 0), BuildingBlock: OJICUG_clean_linker_0, # of connection points: 2
#     Edge 47, Type (0, 0), BuildingBlock: OJICUG_clean_linker_0, # of connection points: 2
#     Edge 48, Type (0, 0), BuildingBlock: OJICUG_clean_linker_0, # of connection points: 2
#     Edge 49, Type (0, 0), BuildingBlock: OJICUG_clean_linker_0, # of connection points: 2
#     Edge 50, Type (0, 0), BuildingBlock: OJICUG_clean_linker_0, # of connection points: 2
#     Edge 51, Type (0, 0), BuildingBlock: OJICUG_clean_linker_0, # of connection points: 2
#     Edge 52, Type (0, 0), BuildingBlock: OJICUG_clean_linker_0, # of connection points: 2
#     Edge 53, Type (0, 0), BuildingBlock: OJICUG_clean_linker_0, # of connection points: 2
#     Edge 54, Type (0, 0), BuildingBlock: OJICUG_clean_linker_0, # of connection points: 2
#     Edge 55, Type (0, 0), BuildingBlock: OJICUG_clean_linker_0, # of connection points: 2
#     Edge 56, Type (0, 0), BuildingBlock: OJICUG_clean_linker_0, # of connection points: 2
#     Edge 57, Type (0, 0), BuildingBlock: OJICUG_clean_linker_0, # of connection points: 2
#     Edge 58, Type (0, 0), BuildingBlock: OJICUG_clean_linker_0, # of connection points: 2
#     Edge 59, Type (0, 0), BuildingBlock: OJICUG_clean_linker_0, # of connection points: 2
#     Edge 60, Type (0, 0), BuildingBlock: OJICUG_clean_linker_0, # of connection points: 2
#     Edge 61, Type (0, 0), BuildingBlock: OJICUG_clean_linker_0, # of connection points: 2
#     Edge 62, Type (0, 0), BuildingBlock: OJICUG_clean_linker_0, # of connection points: 2
#     Edge 63, Type (0, 0), BuildingBlock: OJICUG_clean_linker_0, # of connection points: 2
#     Edge 64, Type (0, 0), BuildingBlock: OJICUG_clean_linker_0, # of connection points: 2
#     Edge 65, Type (0, 0), BuildingBlock: OJICUG_clean_linker_0, # of connection points: 2
#     Edge 66, Type (0, 0), BuildingBlock: OJICUG_clean_linker_0, # of connection points: 2
#     Edge 67, Type (0, 0), BuildingBlock: OJICUG_clean_linker_0, # of connection points: 2
#     Edge 68, Type (0, 0), BuildingBlock: OJICUG_clean_linker_0, # of connection points: 2
#     Edge 69, Type (0, 0), BuildingBlock: OJICUG_clean_linker_0, # of connection points: 2
#     Edge 70, Type (0, 0), BuildingBlock: OJICUG_clean_linker_0, # of connection points: 2
#     Edge 71, Type (0, 0), BuildingBlock: OJICUG_clean_linker_0, # of connection points: 2
#     Edge 72, Type (0, 0), BuildingBlock: OJICUG_clean_linker_0, # of connection points: 2
#     Edge 73, Type (0, 0), BuildingBlock: OJICUG_clean_linker_0, # of connection points: 2
#     Edge 74, Type (0, 0), BuildingBlock: OJICUG_clean_linker_0, # of connection points: 2
#     Edge 75, Type (0, 0), BuildingBlock: OJICUG_clean_linker_0, # of connection points: 2
#     Edge 76, Type (0, 0), BuildingBlock: OJICUG_clean_linker_0, # of connection points: 2
#     Edge 77, Type (0, 0), BuildingBlock: OJICUG_clean_linker_0, # of connection points: 2
#     Edge 78, Type (0, 0), BuildingBlock: OJICUG_clean_linker_0, # of connection points: 2
#     Edge 79, Type (0, 0), BuildingBlock: OJICUG_clean_linker_0, # of connection points: 2
#     Edge 80, Type (0, 0), BuildingBlock: OJICUG_clean_linker_0, # of connection points: 2
#     Edge 81, Type (0, 0), BuildingBlock: OJICUG_clean_linker_0, # of connection points: 2
#     Edge 82, Type (0, 0), BuildingBlock: OJICUG_clean_linker_0, # of connection points: 2
#     Edge 83, Type (0, 0), BuildingBlock: OJICUG_clean_linker_0, # of connection points: 2
#     Edge 84, Type (0, 0), BuildingBlock: OJICUG_clean_linker_0, # of connection points: 2
#     Edge 85, Type (0, 0), BuildingBlock: OJICUG_clean_linker_0, # of connection points: 2
#     Edge 86, Type (0, 0), BuildingBlock: OJICUG_clean_linker_0, # of connection points: 2
#     Edge 87, Type (0, 0), BuildingBlock: OJICUG_clean_linker_0, # of connection points: 2
#     Edge 88, Type (0, 0), BuildingBlock: OJICUG_clean_linker_0, # of connection points: 2
#     Edge 89, Type (0, 0), BuildingBlock: OJICUG_clean_linker_0, # of connection points: 2
#     Edge 90, Type (0, 0), BuildingBlock: OJICUG_clean_linker_0, # of connection points: 2
#     Edge 91, Type (0, 0), BuildingBlock: OJICUG_clean_linker_0, # of connection points: 2
#     Edge 92, Type (0, 0), BuildingBlock: OJICUG_clean_linker_0, # of connection points: 2
#     Edge 93, Type (0, 0), BuildingBlock: OJICUG_clean_linker_0, # of connection points: 2
#     Edge 94, Type (0, 0), BuildingBlock: OJICUG_clean_linker_0, # of connection points: 2
#     Edge 95, Type (0, 0), BuildingBlock: OJICUG_clean_linker_0, # of connection points: 2
# Relax obj value: 0.006
# Max RMSD: 0.181
# Mean RMSD: 0.181
data_MOF--net-ukj--node1-KOZSID_clean_sbu_0--edge1-OJICUG_clean_linker_0
_symmetry_space_group_name_H-M    P1
_symmetry_Int_Tables_number       1
_symmetry_cell_setting            triclinic
loop_
_symmetry_equiv_pos_as_xyz
'x, y, z'
_cell_length_a     34.857458
_cell_length_b     60.219777
_cell_length_c     47.429852
_cell_angle_alpha  89.984488
_cell_angle_beta   89.999469
_cell_angle_gamma 90.000106
loop_
_atom_site_label
_atom_site_type_symbol
_atom_site_fract_x
_atom_site_fract_y
_atom_site_fract_z
_atom_type_partial_charge
C0 C 0.18079 0.3734 0.29392 0.0
C1 C 0.16894 0.39524 0.29847 0.0
C2 C 0.1572 0.40342 0.27321 0.0
C3 C 0.16316 0.38651 0.25456 0.0
N4 N 0.17749 0.36786 0.26634 0.0
Co5 Co 0.19732 0.34176 0.24491 0.0
N6 N 0.16878 0.35087 0.21074 0.0
C7 C 0.14899 0.36988 0.20695 0.0
C8 C 0.11849 0.36746 0.18891 0.0
C9 C 0.11933 0.34575 0.1807 0.0
C10 C 0.15195 0.33648 0.19282 0.0
N11 N 0.21673 0.31616 0.2224 0.0
C12 C 0.20536 0.30856 0.1966 0.0
C13 C 0.22898 0.29141 0.1877 0.0
C14 C 0.25543 0.28801 0.20883 0.0
C15 C 0.24687 0.30339 0.22932 0.0
N16 N 0.22497 0.33249 0.27966 0.0
C17 C 0.25304 0.31714 0.28063 0.0
C18 C 0.26751 0.31424 0.30731 0.0
C19 C 0.24784 0.32898 0.32404 0.0
C20 C 0.22264 0.34036 0.30657 0.0
N21 N 0.1523 0.32307 0.25582 0.0
C22 C 0.09133 0.29151 0.25448 0.0
C23 C 0.12896 0.28534 0.26158 0.0
C24 C 0.15853 0.30119 0.26238 0.0
C25 C 0.08457 0.31444 0.25067 0.0
C26 C 0.11515 0.3299 0.25193 0.0
N27 N 0.24438 0.35917 0.23403 0.0
C28 C 0.30289 0.36143 0.20584 0.0
C29 C 0.32281 0.37283 0.22739 0.0
C30 C 0.30067 0.37905 0.2509 0.0
C31 C 0.26244 0.37201 0.2539 0.0
C32 C 0.26385 0.35515 0.20935 0.0
H33 H 0.24869 0.37602 0.27343 0.0
H34 H 0.25027 0.3459 0.19263 0.0
H35 H 0.18706 0.29525 0.26649 0.0
H36 H 0.10899 0.34717 0.24793 0.0
C37 C 0.15064 0.38666 0.22685 0.0
C38 C 0.19962 0.3598 0.31559 0.0
C39 C 0.17283 0.31772 0.18023 0.0
C40 C 0.26281 0.30474 0.2565 0.0
H41 H 0.17 0.40485 0.31769 0.0
H42 H 0.1455 0.41974 0.26898 0.0
H43 H 0.09649 0.37955 0.18401 0.0
H44 H 0.10025 0.33814 0.1655 0.0
H45 H 0.22712 0.28217 0.16821 0.0
H46 H 0.27755 0.27541 0.20947 0.0
H47 H 0.28949 0.30266 0.31391 0.0
H48 H 0.25222 0.33136 0.34641 0.0
H49 H 0.13632 0.26809 0.265 0.0
H50 H 0.05596 0.32044 0.24612 0.0
H51 H 0.31761 0.35641 0.1868 0.0
H52 H 0.31292 0.38887 0.26773 0.0
C53 C 0.13315 0.89083 0.29404 0.0
C54 C 0.14504 0.86901 0.29865 0.0
C55 C 0.15678 0.86079 0.27342 0.0
C56 C 0.1508 0.87767 0.25472 0.0
N57 N 0.13644 0.89633 0.26644 0.0
Co58 Co 0.11658 0.92239 0.24493 0.0
N59 N 0.14516 0.91325 0.2108 0.0
C60 C 0.16498 0.89425 0.20707 0.0
C61 C 0.19552 0.89668 0.18906 0.0
C62 C 0.19467 0.91837 0.18081 0.0
C63 C 0.16201 0.92764 0.19287 0.0
N64 N 0.09715 0.94795 0.22235 0.0
C65 C 0.10855 0.95554 0.19655 0.0
C66 C 0.08491 0.97266 0.18758 0.0
C67 C 0.05841 0.97606 0.20869 0.0
C68 C 0.06697 0.96071 0.22922 0.0
N69 N 0.08889 0.93169 0.27964 0.0
C70 C 0.06078 0.94702 0.28056 0.0
C71 C 0.04628 0.94994 0.30722 0.0
C72 C 0.06597 0.93523 0.324 0.0
C73 C 0.09121 0.92386 0.30658 0.0
N74 N 0.16156 0.94112 0.25581 0.0
C75 C 0.22252 0.97269 0.2545 0.0
C76 C 0.18486 0.97886 0.26152 0.0
C77 C 0.1553 0.963 0.26231 0.0
C78 C 0.2293 0.94976 0.25073 0.0
C79 C 0.19873 0.93429 0.25198 0.0
N80 N 0.06955 0.90494 0.23409 0.0
C81 C 1.01105 0.90259 0.2059 0.0
C82 C 0.99117 0.89117 0.22746 0.0
C83 C 1.01333 0.885 0.251 0.0
C84 C 0.05153 0.89209 0.25398 0.0
C85 C 0.05007 0.90891 0.2094 0.0
H86 H 0.06529 0.88812 0.27353 0.0
H87 H 0.06362 0.91817 0.19266 0.0
H88 H 0.12675 0.96894 0.26637 0.0
H89 H 0.20491 0.91702 0.24804 0.0
C90 C 0.16333 0.87749 0.22701 0.0
C91 C 0.11427 0.90445 0.31565 0.0
C92 C 0.14114 0.94639 0.18023 0.0
C93 C 0.05101 0.95938 0.25639 0.0
H94 H 0.14399 0.85942 0.3179 0.0
H95 H 0.16851 0.84447 0.26923 0.0
H96 H 0.21755 0.88459 0.18422 0.0
H97 H 0.21379 0.92599 0.16563 0.0
H98 H 0.08677 0.98188 0.16808 0.0
H99 H 0.03626 0.98865 0.20927 0.0
H100 H 1.02427 0.96151 0.31378 0.0
H101 H 0.06158 0.93288 0.34637 0.0
H102 H 0.17749 0.99611 0.2649 0.0
H103 H 0.25792 0.94376 0.24624 0.0
H104 H 0.99632 0.90756 0.18684 0.0
H105 H 1.00111 0.87518 0.26785 0.0
C106 C 0.18093 0.89075 0.94594 0.0
C107 C 0.16913 0.86892 0.94124 0.0
C108 C 0.15738 0.86062 0.96644 0.0
C109 C 0.16326 0.87747 0.9852 0.0
N110 N 0.17757 0.89617 0.97355 0.0
Co111 Co 0.19728 0.92221 -0.00484 0.0
N112 N 0.16863 0.91297 0.02922 0.0
C113 C 0.14887 0.89393 0.03287 0.0
C114 C 0.11822 0.89629 0.05078 0.0
C115 C 0.11892 0.91798 0.05906 0.0
C116 C 0.15163 0.9273 0.04714 0.0
N117 N 0.21654 0.94775 0.01783 0.0
C118 C 0.20498 0.9553 0.04361 0.0
C119 C 0.22856 0.97242 0.05266 0.0
C120 C 0.25517 0.97586 0.03164 0.0
C121 C 0.24673 0.96054 0.01106 0.0
N122 N 0.22505 0.93161 0.96052 0.0
C123 C 0.25316 0.94694 0.9597 0.0
C124 C 0.26775 0.94992 0.93307 0.0
C125 C 0.24813 0.93525 0.91622 0.0
C126 C 0.22283 0.92383 0.93356 0.0
N127 N 0.15229 0.94092 0.98424 0.0
C128 C 0.0913 0.97247 0.98554 0.0
C129 C 0.12896 0.97866 0.97856 0.0
C130 C 0.15854 0.96281 0.97777 0.0
C131 C 0.08453 0.94953 0.98927 0.0
C132 C 0.11512 0.93408 0.98803 0.0
N133 N 0.24432 0.90479 0.00603 0.0
C134 C 0.30281 0.90251 0.03425 0.0
C135 C 0.32276 0.89114 0.01269 0.0
C136 C 0.30065 0.88495 0.98915 0.0
C137 C 0.26242 0.89199 0.98614 0.0
C138 C 0.26376 0.90877 0.03073 0.0
H139 H 0.24871 0.88801 0.96658 0.0
H140 H 0.25015 0.918 0.04747 0.0
H141 H 0.18708 0.96877 0.97375 0.0
H142 H 0.10895 0.91679 0.99194 0.0
C143 C 0.15067 0.87722 0.01289 0.0
C144 C 0.1998 0.90444 0.92439 0.0
C145 C 0.17231 0.94611 0.05982 0.0
C146 C 0.26281 0.95926 0.98392 0.0
H147 H 0.17024 0.85938 0.92197 0.0
H148 H 0.1457 0.84428 0.97057 0.0
H149 H 0.09619 0.88418 0.05552 0.0
H150 H 0.09964 0.92556 0.07416 0.0
H151 H 0.22661 0.98161 0.07218 0.0
H152 H 0.27729 0.98846 0.03113 0.0
H153 H 0.28978 0.96151 0.92659 0.0
H154 H 0.2526 0.93294 0.89385 0.0
H155 H 0.13633 0.99592 0.9752 0.0
H156 H 0.0559 0.94352 0.99374 0.0
H157 H 0.3175 0.90749 0.05332 0.0
H158 H 0.31293 0.87516 0.97229 0.0
C159 C 0.13347 0.37337 0.94581 0.0
C160 C 0.14535 0.39518 0.94108 0.0
C161 C 0.15713 0.40347 0.96627 0.0
C162 C 0.15119 0.38664 0.98505 0.0
N163 N 0.13682 0.36795 0.97343 0.0
Co164 Co 0.11701 0.34194 -0.00492 0.0
N165 N 0.14569 0.35117 0.02913 0.0
C166 C 0.16552 0.37018 0.03275 0.0
C167 C 0.19615 0.3678 0.05067 0.0
C168 C 0.19537 0.34612 0.05899 0.0
C169 C 0.16263 0.33683 0.04708 0.0
N170 N 0.09766 0.31644 0.01778 0.0
C171 C 0.10918 0.30889 0.04358 0.0
C172 C 0.08554 0.29181 0.05266 0.0
C173 C 0.05893 0.28838 0.03163 0.0
C174 C 0.06743 0.30368 0.01103 0.0
N175 N 0.08922 0.33257 0.96045 0.0
C176 C 0.06106 0.31726 0.95965 0.0
C177 C 0.04646 0.31428 0.93302 0.0
C178 C 0.06613 0.32893 0.91615 0.0
C179 C 0.09146 0.34033 0.93348 0.0
N180 N 0.16195 0.32318 0.98419 0.0
C181 C 0.22285 0.29157 0.98549 0.0
C182 C 0.18516 0.28541 0.97853 0.0
C183 C 0.15563 0.30129 0.97775 0.0
C184 C 0.22968 0.3145 0.9892 0.0
C185 C 0.19914 0.32999 0.98795 0.0
N186 N 0.07003 0.35943 0.00592 0.0
C187 C 1.01157 0.36182 0.03416 0.0
C188 C 0.99165 0.3732 0.01258 0.0
C189 C 1.01377 0.37933 0.98901 0.0
C190 C 0.05197 0.37224 0.98601 0.0
C191 C 0.05059 0.35549 0.03064 0.0
H192 H 0.06569 0.37618 0.96644 0.0
H193 H 0.06417 0.34626 0.04739 0.0
H194 H 0.12706 0.29536 0.97375 0.0
H195 H 0.20536 0.34726 0.99185 0.0
C196 C 0.16379 0.38689 0.01274 0.0
C197 C 0.11455 0.35969 0.92428 0.0
C198 C 0.14188 0.31805 0.05978 0.0
C199 C 0.05136 0.30497 0.98389 0.0
H200 H 0.14426 0.40471 0.9218 0.0
H201 H 0.16887 0.4198 0.97037 0.0
H202 H 0.21823 0.37989 0.05539 0.0
H203 H 0.21461 0.33853 0.0741 0.0
H204 H 0.08744 0.28262 0.07219 0.0
H205 H 0.03676 0.27581 0.03114 0.0
H206 H 1.02439 0.30272 0.92655 0.0
H207 H 0.06166 0.33124 0.89377 0.0
H208 H 0.17774 0.26816 0.9752 0.0
H209 H 0.25833 0.32049 0.99364 0.0
H210 H 0.99687 0.35687 0.05324 0.0
H211 H 1.00152 0.38912 0.97215 0.0
C212 C 0.84148 0.67393 0.68365 0.0
C213 C 0.81622 0.68534 0.66626 0.0
C214 C 0.7966 0.70004 0.68308 0.0
C215 C 0.81114 0.69708 0.70972 0.0
N216 N 0.83923 0.68173 0.71059 0.0
Co217 Co 0.86691 0.67236 0.74528 0.0
N218 N 0.84762 0.69792 0.7679 0.0
C219 C 0.81745 0.71071 0.76107 0.0
C220 C 0.80897 0.72604 0.78163 0.0
C221 C 0.83551 0.7226 0.8027 0.0
C222 C 0.8591 0.70547 0.79369 0.0
N223 N 0.89549 0.66313 0.77938 0.0
C224 C 0.91245 0.67748 0.7973 0.0
C225 C 0.94512 0.66817 0.80928 0.0
C226 C 0.94586 0.64648 0.80102 0.0
C227 C 0.91526 0.6441 0.78308 0.0
N228 N 0.88664 0.64629 0.72372 0.0
C229 C 0.90098 0.62761 0.7354 0.0
C230 C 0.90693 0.61075 0.71667 0.0
C231 C 0.8952 0.61902 0.69144 0.0
C232 C 0.88335 0.64085 0.69611 0.0
N233 N 0.91195 0.69104 0.73439 0.0
C234 C 0.97298 0.72256 0.73567 0.0
C235 C 0.97971 0.69963 0.73944 0.0
C236 C 0.9491 0.68419 0.7382 0.0
C237 C 0.93534 0.72877 0.72867 0.0
C238 C 0.90574 0.71294 0.72789 0.0
N239 N 0.81983 0.65495 0.75612 0.0
C240 C 0.76353 0.6351 0.73922 0.0
C241 C 0.74141 0.64128 0.76276 0.0
C242 C 0.76134 0.65266 0.78433 0.0
C243 C 0.80039 0.65893 0.78082 0.0
C244 C 0.80175 0.64214 0.73623 0.0
H245 H 0.81398 0.66816 0.79755 0.0
H246 H 0.81549 0.63817 0.71667 0.0
H247 H 0.95524 0.66691 0.74214 0.0
H248 H 0.8772 0.7189 0.72384 0.0
C249 C 0.80144 0.70942 0.73392 0.0
C250 C 0.86449 0.65451 0.67452 0.0
C251 C 0.89171 0.69627 0.80995 0.0
C252 C 0.91353 0.62738 0.7631 0.0
H253 H 0.81179 0.68301 0.64389 0.0
H254 H 0.77459 0.71163 0.67655 0.0
H255 H 0.78685 0.73865 0.78108 0.0
H256 H 0.83742 0.7318 0.82221 0.0
H257 H 0.96434 0.67577 0.8244 0.0
H258 H 0.96789 0.63438 0.8058 0.0
H259 H 0.91863 0.59442 0.72081 0.0
H260 H 0.89413 0.60947 0.67218 0.0
H261 H 1.00833 0.69361 0.74392 0.0
H262 H 0.928 0.74603 0.72529 0.0
H263 H 0.75126 0.62531 0.72237 0.0
H264 H 0.74664 0.65764 0.80339 0.0
C265 C 0.97297 0.09054 0.68354 0.0
C266 C 0.99825 0.07912 0.66619 0.0
C267 C 1.01789 0.06445 0.68305 0.0
C268 C 1.00333 0.06744 0.70968 0.0
N269 N 0.97522 0.08277 0.7105 0.0
Co270 Co 0.94751 0.09219 0.74515 0.0
N271 N 0.96677 0.06665 0.76783 0.0
C272 C 0.99696 0.05386 0.76107 0.0
C273 C 1.0054 0.03854 0.78165 0.0
C274 C 0.9788 0.04198 0.80268 0.0
C275 C 0.95522 0.0591 0.79362 0.0
N276 N 0.91891 0.10145 0.77922 0.0
C277 C 0.9019 0.08713 0.79715 0.0
C278 C 0.86921 0.09646 0.80907 0.0
C279 C 0.86853 0.11815 0.80079 0.0
C280 C 0.89918 0.1205 0.78287 0.0
N281 N 0.92779 0.11823 0.72352 0.0
C282 C 0.91349 0.13693 0.73516 0.0
C283 C 0.90754 0.15376 0.71637 0.0
C284 C 0.91924 0.14545 0.69117 0.0
C285 C 0.93108 0.12363 0.6959 0.0
N286 N 0.90248 0.07349 0.73428 0.0
C287 C 0.84147 0.04195 0.73559 0.0
C288 C 0.83472 0.06489 0.73933 0.0
C289 C 0.86532 0.08034 0.73808 0.0
C290 C 0.87912 0.03575 0.72861 0.0
C291 C 0.90871 0.05159 0.72781 0.0
N292 N 0.99458 0.1096 0.75596 0.0
C293 C 0.05088 0.12945 0.73903 0.0
C294 C 0.07299 0.12329 0.76259 0.0
C295 C 0.05306 0.11193 0.78417 0.0
C296 C 1.01402 0.10564 0.78067 0.0
C297 C 1.01265 0.1224 0.73605 0.0
H298 H 1.00043 0.09642 0.79742 0.0
H299 H 0.99893 0.12635 0.71648 0.0
H300 H 0.85917 0.09762 0.74199 0.0
H301 H 0.93725 0.04563 0.72379 0.0
C302 C 1.01302 0.05513 0.73392 0.0
C303 C 0.94993 0.10993 0.67436 0.0
C304 C 0.92255 0.0683 0.80982 0.0
C305 C 0.90094 0.1372 0.76286 0.0
H306 H 1.0027 0.08142 0.64382 0.0
H307 H 0.03992 0.05287 0.67657 0.0
H308 H 1.02752 0.02593 0.78115 0.0
H309 H 0.97686 0.03279 0.8222 0.0
H310 H 0.84992 0.08888 0.82416 0.0
H311 H 0.8465 0.13026 0.80552 0.0
H312 H 0.89585 0.1701 0.72047 0.0
H313 H 0.9203 0.15497 0.67188 0.0
H314 H 0.8061 0.07091 0.74379 0.0
H315 H 0.88648 0.0185 0.72525 0.0
H316 H 0.06314 0.13923 0.72216 0.0
H317 H 0.06777 0.10697 0.80324 0.0
C318 C 0.8413 0.0903 0.05653 0.0
C319 C 0.81602 0.07893 0.07394 0.0
C320 C 0.79637 0.06422 0.05717 0.0
C321 C 0.81091 0.06713 0.03052 0.0
N322 N 0.83903 0.08246 0.0296 0.0
Co323 Co 0.86675 0.09175 0.9949 0.0
N324 N 0.84734 0.06619 0.97233 0.0
C325 C 0.81715 0.05343 0.97919 0.0
C326 C 0.80859 0.0381 0.95865 0.0
C327 C 0.83509 0.04151 0.93755 0.0
C328 C 0.85873 0.05862 0.94652 0.0
N329 N 0.89537 0.1009 0.96078 0.0
C330 C 0.91224 0.08649 0.94289 0.0
C331 C 0.94494 0.09572 0.93085 0.0
C332 C 0.94582 0.11742 0.93908 0.0
C333 C 0.91525 0.11988 0.95705 0.0
N334 N 0.88658 0.11782 0.0164 0.0
C335 C 0.90103 0.13646 0.00468 0.0
C336 C 0.90704 0.15334 0.02338 0.0
C337 C 0.89524 0.14513 0.04861 0.0
C338 C 0.88329 0.12331 0.044 0.0
N339 N 0.91171 0.07303 0.00582 0.0
C340 C 0.97266 0.04146 0.00452 0.0
C341 C 0.97946 0.06439 0.00077 0.0
C342 C 0.94889 0.07985 0.00202 0.0
C343 C 0.935 0.03528 0.01153 0.0
C344 C 0.90544 0.05114 0.01232 0.0
N345 N 0.81974 0.10921 0.98402 0.0
C346 C 0.76348 0.12912 0.00088 0.0
C347 C 0.74134 0.12293 0.97736 0.0
C348 C 0.76125 0.11152 0.95581 0.0
C349 C 0.80028 0.10522 0.95933 0.0
C350 C 0.80169 0.12205 0.00389 0.0
H351 H 0.81385 0.09597 0.9426 0.0
H352 H 0.81544 0.12604 0.02343 0.0
H353 H 0.95508 0.09713 -0.00192 0.0
H354 H 0.87689 0.0452 0.01637 0.0
C355 C 0.80116 0.05477 0.00635 0.0
C356 C 0.86435 0.10971 0.06561 0.0
C357 C 0.89131 0.06778 0.93021 0.0
C358 C 0.91362 0.13663 0.97699 0.0
H359 H 0.81159 0.08129 0.09631 0.0
H360 H 0.77433 0.05266 0.06372 0.0
H361 H 0.78643 0.02551 0.95923 0.0
H362 H 0.83695 0.0323 0.91804 0.0
H363 H 0.96405 0.08809 0.91569 0.0
H364 H 0.9679 0.12948 0.93425 0.0
H365 H 0.91883 0.16964 0.0192 0.0
H366 H 0.8942 0.15471 0.06785 0.0
H367 H 1.00808 0.07039 -0.00371 0.0
H368 H 0.92762 0.01803 0.0149 0.0
H369 H 0.75124 0.13894 0.01772 0.0
H370 H 0.74653 0.10653 0.93676 0.0
C371 C 0.9727 0.67395 0.05673 0.0
C372 C 0.99797 0.68533 0.07414 0.0
C373 C 1.01765 0.70003 0.05736 0.0
C374 C 1.00312 0.69711 0.0307 0.0
N375 N 0.975 0.68179 0.0298 0.0
Co376 Co 0.9473 0.67249 -0.00491 0.0
N377 N 0.96672 0.69805 0.9725 0.0
C378 C 0.99692 0.7108 0.97936 0.0
C379 C 1.00548 0.72614 0.95882 0.0
C380 C 0.97898 0.72273 0.93772 0.0
C381 C 0.95532 0.70562 0.9467 0.0
N382 N 0.91871 0.66333 0.96097 0.0
C383 C 0.90184 0.67773 0.94305 0.0
C384 C 0.86915 0.66848 0.93102 0.0
C385 C 0.86829 0.64679 0.93927 0.0
C386 C 0.89884 0.64435 0.95725 0.0
N387 N 0.92746 0.64642 0.01661 0.0
C388 C 0.91304 0.62777 0.0049 0.0
C389 C 0.90703 0.6109 0.02361 0.0
C390 C 0.9188 0.61912 0.04884 0.0
C391 C 0.93074 0.64094 0.04422 0.0
N392 N 0.90233 0.69121 0.00598 0.0
C393 C 0.8414 0.7228 0.00465 0.0
C394 C 0.8346 0.69988 0.00089 0.0
C395 C 0.86516 0.6844 0.00215 0.0
C396 C 0.87906 0.72896 0.01168 0.0
C397 C 0.90861 0.7131 0.01248 0.0
N398 N 0.99432 0.65503 0.98424 0.0
C399 C 0.05057 0.63511 0.00113 0.0
C400 C 0.0727 0.64128 0.97759 0.0
C401 C 0.0528 0.65269 0.95602 0.0
C402 C 1.01377 0.659 0.95955 0.0
C403 C 1.01236 0.64219 0.00413 0.0
H404 H 1.0002 0.66825 0.94281 0.0
H405 H 0.99862 0.63822 0.02368 0.0
H406 H 0.85896 0.66713 -0.00179 0.0
H407 H 0.93716 0.71903 0.01655 0.0
C408 C 1.01289 0.70946 0.00653 0.0
C409 C 0.94964 0.65455 0.06582 0.0
C410 C 0.92274 0.69646 0.93039 0.0
C411 C 0.90048 0.6276 0.9772 0.0
H412 H 1.00237 0.68297 0.09652 0.0
H413 H 0.03968 0.71159 0.06391 0.0
H414 H 1.02764 0.73872 0.95939 0.0
H415 H 0.97712 0.73194 0.9182 0.0
H416 H 0.85003 0.67612 0.91586 0.0
H417 H 0.84622 0.63472 0.93445 0.0
H418 H 0.89526 0.59459 0.01944 0.0
H419 H 0.91984 0.60954 0.06809 0.0
H420 H 0.80597 0.69389 -0.0036 0.0
H421 H 0.88645 0.74621 0.01506 0.0
H422 H 0.06281 0.6253 0.01798 0.0
H423 H 0.06751 0.65767 0.93696 0.0
C424 C 0.18117 0.87333 0.79407 0.0
C425 C 0.16931 0.89516 0.79868 0.0
C426 C 0.15758 0.90339 0.77343 0.0
C427 C 0.16355 0.8865 0.75474 0.0
N428 N 0.17788 0.86784 0.76647 0.0
Co429 Co 0.19773 0.84177 0.74498 0.0
N430 N 0.16916 0.85093 0.71085 0.0
C431 C 0.14936 0.86993 0.7071 0.0
C432 C 0.11883 0.86752 0.68909 0.0
C433 C 0.11966 0.84582 0.68085 0.0
C434 C 0.15231 0.83655 0.69292 0.0
N435 N 0.21715 0.81621 0.72242 0.0
C436 C 0.20576 0.80864 0.69661 0.0
C437 C 0.22938 0.79151 0.68766 0.0
C438 C 0.25587 0.7881 0.70877 0.0
C439 C 0.24732 0.80344 0.72929 0.0
N440 N 0.2254 0.83246 0.7797 0.0
C441 C 0.2535 0.81712 0.78063 0.0
C442 C 0.26797 0.81419 0.8073 0.0
C443 C 0.24829 0.8289 0.82407 0.0
C444 C 0.22306 0.84028 0.80663 0.0
N445 N 0.15273 0.82306 0.75587 0.0
C446 C 0.09174 0.79151 0.75456 0.0
C447 C 0.12939 0.78532 0.76158 0.0
C448 C 0.15897 0.80117 0.76237 0.0
C449 C 0.08498 0.81444 0.75079 0.0
C450 C 0.11557 0.82989 0.75203 0.0
N451 N 0.24477 0.85922 0.73414 0.0
C452 C 0.30326 0.86158 0.70593 0.0
C453 C 0.32315 0.87298 0.72749 0.0
C454 C 0.30101 0.87913 0.75104 0.0
C455 C 0.2628 0.87204 0.75403 0.0
C456 C 0.26424 0.85526 0.70945 0.0
H457 H 0.24906 0.87601 0.77359 0.0
H458 H 0.25067 0.84601 0.69271 0.0
H459 H 0.18751 0.79522 0.76643 0.0
H460 H 0.10941 0.84717 0.74808 0.0
C461 C 0.15102 0.88669 0.72703 0.0
C462 C 0.2 0.85969 0.8157 0.0
C463 C 0.17318 0.8178 0.68029 0.0
C464 C 0.26327 0.80477 0.75647 0.0
H465 H 0.17035 0.90474 0.81792 0.0
H466 H 0.14587 0.91971 0.76924 0.0
H467 H 0.09681 0.87961 0.68424 0.0
H468 H 0.10055 0.83822 0.66566 0.0
H469 H 0.22751 0.78229 0.66815 0.0
H470 H 0.278 0.7755 0.70936 0.0
H471 H 0.28998 0.80261 0.81387 0.0
H472 H 0.25266 0.83124 0.84644 0.0
H473 H 0.13675 0.76807 0.76497 0.0
H474 H 0.05636 0.82045 0.7463 0.0
H475 H 0.31798 0.85661 0.68687 0.0
H476 H 0.31324 0.88894 0.76789 0.0
C477 C 0.13327 0.39097 0.79393 0.0
C478 C 0.14515 0.36913 0.79846 0.0
C479 C 0.1569 0.36097 0.7732 0.0
C480 C 0.15092 0.3779 0.75456 0.0
N481 N 0.13656 0.39653 0.76635 0.0
Co482 Co 0.11669 0.42264 0.74494 0.0
N483 N 0.14524 0.41357 0.71076 0.0
C484 C 0.16506 0.39457 0.70695 0.0
C485 C 0.19552 0.39702 0.68889 0.0
C486 C 0.19464 0.41873 0.68068 0.0
C487 C 0.16203 0.42798 0.69283 0.0
N488 N 0.09725 0.44825 0.72245 0.0
C489 C 0.10857 0.45586 0.69664 0.0
C490 C 0.08494 0.47301 0.68775 0.0
C491 C 0.05851 0.4764 0.70891 0.0
C492 C 0.0671 0.46102 0.72939 0.0
N493 N 0.08906 0.43188 0.7797 0.0
C494 C 0.06098 0.44723 0.78069 0.0
C495 C 0.04653 0.4501 0.80738 0.0
C496 C 0.0662 0.43535 0.82409 0.0
C497 C 0.09139 0.42399 0.80661 0.0
N498 N 0.1617 0.44133 0.75585 0.0
C499 C 0.22268 0.47289 0.75454 0.0
C500 C 0.18504 0.47906 0.76162 0.0
C501 C 0.15547 0.46321 0.76241 0.0
C502 C 0.22944 0.44996 0.75072 0.0
C503 C 0.19886 0.4345 0.75197 0.0
N504 N 0.06965 0.40523 0.73407 0.0
C505 C 1.01113 0.40296 0.70587 0.0
C506 C 0.99123 0.39154 0.72742 0.0
C507 C 1.01338 0.38531 0.75093 0.0
C508 C 0.05161 0.39237 0.75393 0.0
C509 C 0.05017 0.40925 0.70939 0.0
H510 H 0.06536 0.38835 0.77346 0.0
H511 H 0.06375 0.41852 0.69267 0.0
H512 H 0.12694 0.46915 0.76652 0.0
H513 H 0.20502 0.41724 0.74797 0.0
C514 C 0.16345 0.37778 0.72685 0.0
C515 C 0.11443 0.40454 0.81561 0.0
C516 C 0.14107 0.44671 0.68024 0.0
C517 C 0.0512 0.45964 0.75657 0.0
H518 H 0.1441 0.3595 0.81768 0.0
H519 H 0.16862 0.34466 0.76895 0.0
H520 H 0.21753 0.38495 0.68397 0.0
H521 H 0.21365 0.42636 0.66545 0.0
H522 H 0.08677 0.48226 0.66826 0.0
H523 H 0.03638 0.489 0.70955 0.0
H524 H 1.02455 0.46167 0.814 0.0
H525 H 0.06184 0.43295 0.84646 0.0
H526 H 0.17768 0.49631 0.76505 0.0
H527 H 0.25805 0.44396 0.74619 0.0
H528 H 0.99641 0.40798 0.68683 0.0
H529 H 1.00114 0.37548 0.76776 0.0
C530 C 0.18059 0.39085 0.44581 0.0
C531 C 0.16873 0.36904 0.44106 0.0
C532 C 0.15696 0.36072 0.46624 0.0
C533 C 0.16289 0.37753 0.48504 0.0
N534 N 0.17723 0.39624 0.47343 0.0
Co535 Co 0.19702 0.42223 0.49511 0.0
N536 N 0.16834 0.41296 0.52915 0.0
C537 C 0.14854 0.39393 0.53275 0.0
C538 C 0.11788 0.39628 0.55065 0.0
C539 C 0.11861 0.41796 0.55898 0.0
C540 C 0.15136 0.42727 0.54711 0.0
N541 N 0.21634 0.44772 0.51784 0.0
C542 C 0.20477 0.45525 0.54363 0.0
C543 C 0.22841 0.47232 0.55272 0.0
C544 C 0.25505 0.47576 0.53172 0.0
C545 C 0.24658 0.46047 0.51111 0.0
N546 N 0.22482 0.43164 0.46049 0.0
C547 C 0.25298 0.44695 0.45972 0.0
C548 C 0.2676 0.44995 0.4331 0.0
C549 C 0.24794 0.43532 0.41621 0.0
C550 C 0.22259 0.42391 0.43352 0.0
N551 N 0.15208 0.44099 0.48423 0.0
C552 C 0.0912 0.47262 0.48556 0.0
C553 C 0.12888 0.47877 0.47859 0.0
C554 C 0.15841 0.46289 0.47779 0.0
C555 C 0.08435 0.44969 0.48927 0.0
C556 C 0.11489 0.4342 0.488 0.0
N557 N 0.24401 0.40474 0.50595 0.0
C558 C 0.30247 0.40234 0.53419 0.0
C559 C 0.32239 0.39098 0.5126 0.0
C560 C 0.30028 0.38486 0.48903 0.0
C561 C 0.26208 0.39195 0.48603 0.0
C562 C 0.26344 0.40866 0.53067 0.0
H563 H 0.24836 0.38802 0.46646 0.0
H564 H 0.24985 0.41788 0.54742 0.0
H565 H 0.18697 0.46881 0.47378 0.0
H566 H 0.10866 0.41692 0.4919 0.0
C567 C 0.15029 0.37724 0.51272 0.0
C568 C 0.1995 0.40455 0.42429 0.0
C569 C 0.17203 0.44608 0.5598 0.0
C570 C 0.26267 0.45921 0.48397 0.0
H571 H 0.16983 0.35953 0.42176 0.0
H572 H 0.14525 0.34438 0.47032 0.0
H573 H 0.09581 0.38418 0.55534 0.0
H574 H 0.09931 0.42553 0.57406 0.0
H575 H 0.22649 0.4815 0.57226 0.0
H576 H 0.27722 0.48833 0.53125 0.0
H577 H 0.28968 0.46152 0.42665 0.0
H578 H 0.25242 0.43303 0.39383 0.0
H579 H 0.13631 0.49602 0.47526 0.0
H580 H 0.0557 0.44371 0.49372 0.0
H581 H 0.31716 0.40728 0.55327 0.0
H582 H 0.31253 0.37509 0.47216 0.0
C583 C 0.13314 0.87346 0.44592 0.0
C584 C 0.1449 0.8953 0.44117 0.0
C585 C 0.15663 0.90363 0.46636 0.0
C586 C 0.15077 0.88679 0.48515 0.0
N587 N 0.13651 0.86807 0.47354 0.0
Co588 Co 0.11683 0.84204 0.4952 0.0
N589 N 0.14548 0.85132 0.52924 0.0
C590 C 0.1652 0.87037 0.53285 0.0
C591 C 0.19588 0.86804 0.55074 0.0
C592 C 0.19523 0.84636 0.55905 0.0
C593 C 0.16252 0.83702 0.54718 0.0
N594 N 0.0976 0.81652 0.51793 0.0
C595 C 0.10919 0.80899 0.54372 0.0
C596 C 0.08563 0.79187 0.55281 0.0
C597 C 0.059 0.78841 0.53181 0.0
C598 C 0.06741 0.80372 0.5112 0.0
N599 N 0.08906 0.83261 0.46059 0.0
C600 C 0.06095 0.81727 0.45981 0.0
C601 C 0.04637 0.81426 0.43319 0.0
C602 C 0.06598 0.82892 0.4163 0.0
C603 C 0.09128 0.84036 0.43361 0.0
N604 N 0.16183 0.82334 0.48431 0.0
C605 C 0.22284 0.79181 0.48562 0.0
C606 C 0.18518 0.7856 0.47867 0.0
C607 C 0.15559 0.80144 0.47787 0.0
C608 C 0.2296 0.81475 0.48932 0.0
C609 C 0.199 0.8302 0.48807 0.0
N610 N 0.06977 0.85946 0.50605 0.0
C611 C 1.01129 0.86176 0.53428 0.0
C612 C 0.99133 0.8731 0.51269 0.0
C613 C 1.01343 0.87927 0.48913 0.0
C614 C 0.05166 0.87224 0.48613 0.0
C615 C 0.05034 0.8555 0.53076 0.0
H616 H 0.06536 0.8762 0.46656 0.0
H617 H 0.06396 0.84629 0.54752 0.0
H618 H 0.12704 0.79548 0.47388 0.0
H619 H 0.20516 0.84748 0.49197 0.0
C620 C 0.16337 0.88708 0.51284 0.0
C621 C 0.11432 0.85974 0.42439 0.0
C622 C 0.14189 0.81819 0.55989 0.0
C623 C 0.05131 0.80498 0.48406 0.0
H624 H 0.14378 0.90481 0.42187 0.0
H625 H 0.16827 0.91998 0.47044 0.0
H626 H 0.2179 0.88017 0.55544 0.0
H627 H 0.21455 0.8388 0.57414 0.0
H628 H 0.08759 0.78269 0.57234 0.0
H629 H 0.03688 0.77581 0.53133 0.0
H630 H 1.02434 0.80267 0.42673 0.0
H631 H 0.06152 0.8312 0.39392 0.0
H632 H 0.17782 0.76834 0.47534 0.0
H633 H 0.25822 0.82077 0.49377 0.0
H634 H 0.99661 0.85679 0.55335 0.0
H635 H 1.00114 0.88904 0.47226 0.0
C636 C 0.84124 0.17386 0.18344 0.0
C637 C 0.81597 0.18527 0.16607 0.0
C638 C 0.79632 0.19995 0.1829 0.0
C639 C 0.81088 0.19698 0.20954 0.0
N640 N 0.83898 0.18165 0.21039 0.0
Co641 Co 0.8667 0.17227 0.24506 0.0
N642 N 0.8474 0.19782 0.26769 0.0
C643 C 0.81721 0.2106 0.26089 0.0
C644 C 0.80873 0.22593 0.28146 0.0
C645 C 0.8353 0.22249 0.30251 0.0
C646 C 0.8589 0.20537 0.29348 0.0
N647 N 0.89531 0.16305 0.27915 0.0
C648 C 0.91228 0.1774 0.29705 0.0
C649 C 0.94498 0.1681 0.309 0.0
C650 C 0.94572 0.14641 0.30075 0.0
C651 C 0.91509 0.14402 0.28283 0.0
N652 N 0.88644 0.14622 0.22349 0.0
C653 C 0.90078 0.12754 0.23516 0.0
C654 C 0.90673 0.11069 0.21641 0.0
C655 C 0.89499 0.11897 0.1912 0.0
C656 C 0.88314 0.14079 0.19587 0.0
N657 N 0.91171 0.19097 0.23416 0.0
C658 C 0.9727 0.22252 0.23547 0.0
C659 C 0.97946 0.19959 0.23922 0.0
C660 C 0.94887 0.18413 0.23797 0.0
C661 C 0.93505 0.22871 0.22846 0.0
C662 C 0.90547 0.21287 0.22767 0.0
N663 N 0.81965 0.15485 0.25591 0.0
C664 C 0.76335 0.13499 0.23902 0.0
C665 C 0.74124 0.14115 0.26257 0.0
C666 C 0.76117 0.15253 0.28414 0.0
C667 C 0.80021 0.15882 0.28061 0.0
C668 C 0.80157 0.14204 0.23601 0.0
H669 H 0.81381 0.16805 0.29735 0.0
H670 H 0.81529 0.13808 0.21645 0.0
H671 H 0.95503 0.16685 0.24189 0.0
H672 H 0.87693 0.21882 0.22363 0.0
C673 C 0.80117 0.20931 0.23374 0.0
C674 C 0.86428 0.15446 0.1743 0.0
C675 C 0.89154 0.19618 0.30972 0.0
C676 C 0.91336 0.1273 0.26285 0.0
H677 H 0.81153 0.18295 0.14369 0.0
H678 H 0.7743 0.21153 0.17638 0.0
H679 H 0.7866 0.23852 0.28092 0.0
H680 H 0.83722 0.23169 0.32203 0.0
H681 H 0.96422 0.1757 0.32411 0.0
H682 H 0.96777 0.13431 0.30551 0.0
H683 H 0.91844 0.09436 0.22055 0.0
H684 H 0.89393 0.10942 0.17192 0.0
H685 H 1.00808 0.19358 0.24371 0.0
H686 H 0.92769 0.24597 0.2251 0.0
H687 H 0.75108 0.1252 0.22217 0.0
H688 H 0.74648 0.1575 0.30321 0.0
C689 C 0.97257 0.59026 0.18356 0.0
C690 C 0.99785 0.57891 0.16614 0.0
C691 C 1.01752 0.56419 0.18291 0.0
C692 C 1.00298 0.56708 0.20956 0.0
N693 N 0.97485 0.5824 0.21048 0.0
Co694 Co 0.94713 0.59167 0.24519 0.0
N695 N 0.96658 0.5661 0.26776 0.0
C696 C 0.99679 0.55336 0.26089 0.0
C697 C 1.00538 0.53802 0.28142 0.0
C698 C 0.97889 0.54141 0.30253 0.0
C699 C 0.95522 0.55852 0.29357 0.0
N700 N 0.91851 0.60078 0.27932 0.0
C701 C 0.90169 0.58637 0.29723 0.0
C702 C 0.86899 0.59558 0.30929 0.0
C703 C 0.86806 0.61728 0.30105 0.0
C704 C 0.8986 0.61975 0.28306 0.0
N705 N 0.92725 0.61774 0.2237 0.0
C706 C 0.91277 0.63636 0.23542 0.0
C707 C 0.90673 0.65325 0.21673 0.0
C708 C 0.91856 0.64506 0.19149 0.0
C709 C 0.93055 0.62325 0.1961 0.0
N710 N 0.90219 0.57293 0.23428 0.0
C711 C 0.84128 0.54132 0.23559 0.0
C712 C 0.83446 0.56424 0.23935 0.0
C713 C 0.86501 0.57973 0.2381 0.0
C714 C 0.87895 0.53517 0.22857 0.0
C715 C 0.90849 0.55104 0.22777 0.0
N716 N 0.99412 0.60913 0.25606 0.0
C717 C 0.05036 0.62908 0.2392 0.0
C718 C 0.0725 0.62288 0.26272 0.0
C719 C 0.05261 0.61146 0.28428 0.0
C720 C 1.01359 0.60515 0.28076 0.0
C721 C 1.01215 0.622 0.23619 0.0
H722 H 1.00002 0.59589 0.29749 0.0
H723 H 0.9984 0.62599 0.21665 0.0
H724 H 0.85879 0.597 0.24205 0.0
H725 H 0.93704 0.54512 0.22371 0.0
C726 C 1.01275 0.55471 0.23372 0.0
C727 C 0.94951 0.60968 0.17448 0.0
C728 C 0.92265 0.56767 0.3099 0.0
C729 C 0.90019 0.63651 0.26311 0.0
H730 H 1.00228 0.58128 0.14377 0.0
H731 H 0.03957 0.55264 0.17635 0.0
H732 H 1.02755 0.52544 0.28083 0.0
H733 H 0.97705 0.53219 0.32205 0.0
H734 H 0.84992 0.58794 0.32448 0.0
H735 H 0.84597 0.62933 0.3059 0.0
H736 H 0.89492 0.66954 0.22091 0.0
H737 H 0.91959 0.65466 0.17226 0.0
H738 H 0.80583 0.57023 0.24384 0.0
H739 H 0.88636 0.51792 0.22519 0.0
H740 H 0.06259 0.63891 0.22236 0.0
H741 H 0.06733 0.60647 0.30333 0.0
C742 C 0.84136 0.59046 0.55662 0.0
C743 C 0.81606 0.57906 0.57399 0.0
C744 C 0.7964 0.56439 0.55715 0.0
C745 C 0.81096 0.56735 0.53052 0.0
N746 N 0.8391 0.58267 0.52967 0.0
Co747 Co 0.86683 0.59204 0.495 0.0
N748 N 0.84749 0.56651 0.47236 0.0
C749 C 0.81728 0.55375 0.47915 0.0
C750 C 0.80879 0.53842 0.45859 0.0
C751 C 0.83537 0.54184 0.43754 0.0
C752 C 0.859 0.55895 0.44657 0.0
N753 N 0.89543 0.60127 0.46091 0.0
C754 C 0.91238 0.58693 0.44298 0.0
C755 C 0.94507 0.59623 0.43101 0.0
C756 C 0.94583 0.61792 0.43929 0.0
C757 C 0.91522 0.6203 0.45724 0.0
N758 N 0.88661 0.61808 0.51659 0.0
C759 C 0.90097 0.63676 0.50493 0.0
C760 C 0.90696 0.6536 0.52368 0.0
C761 C 0.89521 0.64532 0.5489 0.0
C762 C 0.88332 0.6235 0.54421 0.0
N763 N 0.91181 0.57331 0.50588 0.0
C764 C 0.97273 0.54171 0.50456 0.0
C765 C 0.97954 0.56464 0.5008 0.0
C766 C 0.94899 0.58012 0.50205 0.0
C767 C 0.93507 0.53555 0.51158 0.0
C768 C 0.90552 0.55142 0.51238 0.0
N769 N 0.81979 0.60949 0.48417 0.0
C770 C 0.76352 0.62937 0.50107 0.0
C771 C 0.74139 0.62321 0.47752 0.0
C772 C 0.76131 0.61183 0.45595 0.0
C773 C 0.80034 0.60553 0.45947 0.0
C774 C 0.80173 0.6223 0.50407 0.0
H775 H 0.81393 0.5963 0.44272 0.0
H776 H 0.81547 0.62626 0.52362 0.0
H777 H 0.95519 0.5974 0.49811 0.0
H778 H 0.87697 0.54549 0.51643 0.0
C779 C 0.80124 0.55504 0.5063 0.0
C780 C 0.86443 0.60984 0.56577 0.0
C781 C 0.89165 0.56812 0.43033 0.0
C782 C 0.91352 0.63701 0.47723 0.0
H783 H 0.81161 0.58138 0.59636 0.0
H784 H 0.77435 0.55282 0.56366 0.0
H785 H 0.78664 0.52583 0.45912 0.0
H786 H 0.83728 0.53264 0.41803 0.0
H787 H 0.9643 0.58863 0.4159 0.0
H788 H 0.96788 0.63001 0.43453 0.0
H789 H 0.91869 0.66993 0.51955 0.0
H790 H 0.89416 0.65486 0.56817 0.0
H791 H 1.00817 0.57063 0.4963 0.0
H792 H 0.92766 0.51831 0.51495 0.0
H793 H 0.75127 0.63916 0.51793 0.0
H794 H 0.74661 0.60687 0.43688 0.0
C795 C 0.97295 0.17399 0.55645 0.0
C796 C 0.99818 0.1854 0.57384 0.0
C797 C 1.01782 0.20011 0.55703 0.0
C798 C 1.00331 0.19715 0.53038 0.0
N799 N 0.97523 0.18179 0.52951 0.0
Co800 Co 0.94757 0.17242 0.49482 0.0
N801 N 0.96687 0.19798 0.47219 0.0
C802 C 0.99703 0.21077 0.47902 0.0
C803 C 1.00552 0.22611 0.45845 0.0
C804 C 0.979 0.22266 0.43738 0.0
C805 C 0.95542 0.20552 0.44639 0.0
N806 N 0.91901 0.16319 0.46072 0.0
C807 C 0.90205 0.17755 0.4428 0.0
C808 C 0.86938 0.16825 0.43081 0.0
C809 C 0.86864 0.14655 0.43907 0.0
C810 C 0.89923 0.14417 0.45703 0.0
N811 N 0.92783 0.14635 0.51638 0.0
C812 C 0.9135 0.12766 0.50471 0.0
C813 C 0.90753 0.11081 0.52345 0.0
C814 C 0.91924 0.11908 0.54867 0.0
C815 C 0.9311 0.14091 0.544 0.0
N816 N 0.90252 0.19109 0.50569 0.0
C817 C 0.84142 0.22257 0.50442 0.0
C818 C 0.83473 0.19963 0.50068 0.0
C819 C 0.86537 0.18421 0.50191 0.0
C820 C 0.87907 0.2288 0.51139 0.0
C821 C 0.9087 0.21299 0.51216 0.0
N822 N 0.99465 0.15501 0.48401 0.0
C823 C 0.05093 0.13514 0.50093 0.0
C824 C 0.07307 0.14131 0.47739 0.0
C825 C 0.05316 0.15269 0.45581 0.0
C826 C 1.01412 0.15898 0.45931 0.0
C827 C 1.01271 0.1422 0.50391 0.0
H828 H 1.00054 0.16822 0.44256 0.0
H829 H 0.99897 0.13823 0.52347 0.0
H830 H 0.85926 0.16693 0.49799 0.0
H831 H 0.93723 0.21897 0.51618 0.0
C832 C 1.01302 0.20949 0.50618 0.0
C833 C 0.94994 0.15457 0.56558 0.0
C834 C 0.92283 0.19632 0.43012 0.0
C835 C 0.90095 0.12744 0.477 0.0
H836 H 1.0026 0.18308 0.59622 0.0
H837 H 0.03982 0.2117 0.56356 0.0
H838 H 1.02763 0.23871 0.459 0.0
H839 H 0.9771 0.23186 0.41785 0.0
H840 H 0.85019 0.17585 0.41567 0.0
H841 H 0.84661 0.13445 0.43428 0.0
H842 H 0.89583 0.09448 0.51931 0.0
H843 H 0.92029 0.10953 0.56795 0.0
H844 H 0.80612 0.19359 0.49623 0.0
H845 H 0.88638 0.24607 0.51474 0.0
H846 H 0.06318 0.12534 0.51779 0.0
H847 H 0.06787 0.15767 0.43675 0.0
C848 C 0.6809 0.37371 0.79425 0.0
C849 C 0.66912 0.39554 0.79899 0.0
C850 C 0.65739 0.40387 0.7738 0.0
C851 C 0.66328 0.38705 0.75501 0.0
N852 N 0.67755 0.36833 0.76662 0.0
Co853 Co 0.69725 0.34231 0.74496 0.0
N854 N 0.6686 0.3516 0.71092 0.0
C855 C 0.64887 0.37065 0.70731 0.0
C856 C 0.61818 0.36832 0.68943 0.0
C857 C 0.61882 0.34664 0.68113 0.0
C858 C 0.65155 0.3373 0.69298 0.0
N859 N 0.71649 0.3168 0.72224 0.0
C860 C 0.70487 0.30926 0.69648 0.0
C861 C 0.72845 0.29215 0.68738 0.0
C862 C 0.7551 0.28871 0.70837 0.0
C863 C 0.74671 0.30402 0.72897 0.0
N864 N 0.72503 0.33288 0.77958 0.0
C865 C 0.75316 0.31756 0.78035 0.0
C866 C 0.76776 0.31455 0.80697 0.0
C867 C 0.74813 0.32919 0.82386 0.0
C868 C 0.72281 0.34062 0.80655 0.0
N869 N 0.65226 0.32359 0.75586 0.0
C870 C 0.59131 0.29202 0.75452 0.0
C871 C 0.62897 0.28584 0.76151 0.0
C872 C 0.65853 0.3017 0.76231 0.0
C873 C 0.58452 0.31496 0.75081 0.0
C874 C 0.61509 0.33043 0.75207 0.0
N875 N 0.74429 0.35975 0.73411 0.0
C876 C 0.80276 0.36209 0.70587 0.0
C877 C 0.8227 0.37343 0.72745 0.0
C878 C 0.80061 0.37958 0.75102 0.0
C879 C 0.76239 0.37253 0.75402 0.0
C880 C 0.76372 0.3558 0.7094 0.0
H881 H 0.74868 0.37648 0.7736 0.0
H882 H 0.7501 0.34659 0.69265 0.0
H883 H 0.68708 0.29575 0.76633 0.0
H884 H 0.60891 0.34771 0.74817 0.0
C885 C 0.65069 0.38735 0.72732 0.0
C886 C 0.69976 0.35999 0.81577 0.0
C887 C 0.67213 0.31844 0.68032 0.0
C888 C 0.76281 0.30527 0.7561 0.0
H889 H 0.67022 0.40505 0.81829 0.0
H890 H 0.64573 0.42022 0.76971 0.0
H891 H 0.59615 0.38045 0.68474 0.0
H892 H 0.59947 0.33908 0.66607 0.0
H893 H 0.72648 0.28296 0.66786 0.0
H894 H 0.77724 0.27611 0.70885 0.0
H895 H 0.78981 0.30296 0.81343 0.0
H896 H 0.75261 0.33147 0.84624 0.0
H897 H 0.63635 0.26858 0.76485 0.0
H898 H 0.55589 0.32096 0.74634 0.0
H899 H 0.81744 0.35713 0.6868 0.0
H900 H 0.81289 0.38935 0.76789 0.0
C901 C 0.63355 0.89104 0.79408 0.0
C902 C 0.64551 0.86922 0.7987 0.0
C903 C 0.65732 0.86102 0.77347 0.0
C904 C 0.65131 0.87791 0.75477 0.0
N905 N 0.63687 0.89654 0.76649 0.0
Co906 Co 0.61696 0.9226 0.74497 0.0
N907 N 0.64558 0.91348 0.71085 0.0
C908 C 0.66547 0.8945 0.70712 0.0
C909 C 0.696 0.89695 0.68912 0.0
C910 C 0.69508 0.91864 0.68085 0.0
C911 C 0.66239 0.92787 0.69291 0.0
N912 N 0.59749 0.94815 0.72238 0.0
C913 C 0.60885 0.95572 0.69657 0.0
C914 C 0.58518 0.97282 0.6876 0.0
C915 C 0.55868 0.97622 0.70871 0.0
C916 C 0.56729 0.96089 0.72925 0.0
N917 N 0.58924 0.93188 0.77968 0.0
C918 C 0.56111 0.9472 0.78059 0.0
C919 C 0.54659 0.9501 0.80725 0.0
C920 C 0.56627 0.9354 0.82402 0.0
C921 C 0.59154 0.92403 0.80661 0.0
N922 N 0.6619 0.94135 0.75586 0.0
C923 C 0.72282 0.97295 0.75454 0.0
C924 C 0.68515 0.97911 0.76154 0.0
C925 C 0.6556 0.96324 0.76234 0.0
C926 C 0.72963 0.95002 0.7508 0.0
C927 C 0.69908 0.93454 0.75205 0.0
N928 N 0.56998 0.90511 0.73412 0.0
C929 C 0.51148 0.90274 0.70591 0.0
C930 C 0.49161 0.89132 0.72748 0.0
C931 C 0.51377 0.88516 0.75101 0.0
C932 C 0.55196 0.89226 0.754 0.0
C933 C 0.5505 0.90908 0.70942 0.0
H934 H 0.56572 0.88828 0.77355 0.0
H935 H 0.56405 0.91834 0.69269 0.0
H936 H 0.62705 0.96916 0.76639 0.0
H937 H 0.70529 0.91727 0.74812 0.0
C938 C 0.66387 0.87774 0.72707 0.0
C939 C 0.6146 0.90463 0.81569 0.0
C940 C 0.64144 0.94659 0.68024 0.0
C941 C 0.55133 0.95955 0.75642 0.0
H942 H 0.64447 0.85963 0.81794 0.0
H943 H 0.6691 0.84472 0.76929 0.0
H944 H 0.71807 0.88489 0.68428 0.0
H945 H 0.71415 0.92628 0.66565 0.0
H946 H 0.58701 0.98204 0.66808 0.0
H947 H 0.53651 0.9888 0.70929 0.0
H948 H 0.52455 0.96166 0.8138 0.0
H949 H 0.56186 0.93303 0.8464 0.0
H950 H 0.67774 0.99636 0.76491 0.0
H951 H 0.75827 0.94404 0.74632 0.0
H952 H 0.49675 0.90771 0.68686 0.0
H953 H 0.50155 0.87533 0.76786 0.0
C954 C 0.68087 0.89067 0.44599 0.0
C955 C 0.66907 0.86883 0.44133 0.0
C956 C 0.65735 0.86056 0.46655 0.0
C957 C 0.66325 0.87743 0.48528 0.0
N958 N 0.67753 0.89612 0.4736 0.0
Co959 Co 0.69728 0.92218 0.49515 0.0
N960 N 0.66867 0.91296 0.52925 0.0
C961 C 0.64893 0.89392 0.53294 0.0
C962 C 0.61833 0.89629 0.55089 0.0
C963 C 0.61903 0.91798 0.55915 0.0
C964 C 0.65171 0.9273 0.54718 0.0
N965 N 0.71657 0.94773 0.51778 0.0
C966 C 0.70505 0.9553 0.54355 0.0
C967 C 0.72863 0.97243 0.55256 0.0
C968 C 0.75522 0.97585 0.53151 0.0
C969 C 0.74676 0.96051 0.51097 0.0
N970 N 0.72501 0.93154 0.46048 0.0
C971 C 0.75312 0.94687 0.45962 0.0
C972 C 0.76767 0.94983 0.43298 0.0
C973 C 0.74802 0.93514 0.41616 0.0
C974 C 0.72274 0.92374 0.43353 0.0
N975 N 0.65227 0.94088 0.48424 0.0
C976 C 0.59132 0.97245 0.48556 0.0
C977 C 0.62897 0.97862 0.47852 0.0
C978 C 0.65853 0.96276 0.47772 0.0
C979 C 0.58454 0.94952 0.48934 0.0
C980 C 0.61511 0.93405 0.48809 0.0
N981 N 0.74433 0.90476 0.50602 0.0
C982 C 0.80282 0.90248 0.53424 0.0
C983 C 0.82276 0.89111 0.51268 0.0
C984 C 0.80065 0.88491 0.48914 0.0
C985 C 0.76242 0.89195 0.48614 0.0
C986 C 0.76377 0.90875 0.53072 0.0
H987 H 0.7487 0.88797 0.46659 0.0
H988 H 0.75017 0.91798 0.54745 0.0
H989 H 0.68708 0.9687 0.47366 0.0
H990 H 0.60893 0.91678 0.49205 0.0
C991 C 0.65069 0.87719 0.51298 0.0
C992 C 0.6997 0.90434 0.4244 0.0
C993 C 0.67239 0.94613 0.5598 0.0
C994 C 0.7628 0.95921 0.48382 0.0
H995 H 0.67017 0.85928 0.42207 0.0
H996 H 0.64569 0.84422 0.47071 0.0
H997 H 0.59631 0.88417 0.55567 0.0
H998 H 0.59979 0.92556 0.57427 0.0
H999 H 0.72671 0.98165 0.57206 0.0
H1000 H 0.77734 0.98845 0.53097 0.0
H1001 H 0.78969 0.96141 0.42646 0.0
H1002 H 0.75246 0.93282 0.39378 0.0
H1003 H 0.63636 0.99587 0.47513 0.0
H1004 H 0.55592 0.94353 0.49385 0.0
H1005 H 0.81751 0.90748 0.5533 0.0
H1006 H 0.81292 0.87512 0.4723 0.0
C1007 C 0.63289 0.37319 0.44612 0.0
C1008 C 0.64474 0.39503 0.44152 0.0
C1009 C 0.65646 0.40325 0.46676 0.0
C1010 C 0.65051 0.38635 0.48545 0.0
N1011 N 0.63619 0.36769 0.47371 0.0
Co1012 Co 0.61636 0.3416 0.4952 0.0
N1013 N 0.64492 0.35075 0.52934 0.0
C1014 C 0.66472 0.36975 0.53309 0.0
C1015 C 0.69524 0.36733 0.5511 0.0
C1016 C 0.69441 0.34563 0.55935 0.0
C1017 C 0.66178 0.33636 0.54726 0.0
N1018 N 0.59697 0.31602 0.51776 0.0
C1019 C 0.60833 0.30846 0.54358 0.0
C1020 C 0.58472 0.29132 0.55253 0.0
C1021 C 0.55827 0.28789 0.5314 0.0
C1022 C 0.56682 0.30324 0.51087 0.0
N1023 N 0.58872 0.3323 0.46047 0.0
C1024 C 0.56065 0.31694 0.45953 0.0
C1025 C 0.54619 0.31401 0.43286 0.0
C1026 C 0.56585 0.32874 0.4161 0.0
C1027 C 0.59105 0.34014 0.43354 0.0
N1028 N 0.66139 0.32292 0.48431 0.0
C1029 C 0.72246 0.29141 0.48559 0.0
C1030 C 0.68482 0.2852 0.4786 0.0
C1031 C 0.65519 0.30102 0.47782 0.0
C1032 C 0.72917 0.31435 0.48935 0.0
C1033 C 0.69854 0.32978 0.48812 0.0
N1034 N 0.5693 0.35902 0.50603 0.0
C1035 C 0.51078 0.36133 0.53422 0.0
C1036 C 0.49089 0.37274 0.51265 0.0
C1037 C 0.51304 0.37892 0.48913 0.0
C1038 C 0.55126 0.37186 0.48614 0.0
C1039 C 0.54982 0.35503 0.53072 0.0
H1040 H 0.56501 0.37584 0.4666 0.0
H1041 H 0.56339 0.34578 0.54746 0.0
H1042 H 0.62667 0.29505 0.47378 0.0
H1043 H 0.70467 0.34706 0.49207 0.0
C1044 C 0.66305 0.38652 0.51315 0.0
C1045 C 0.61408 0.35957 0.42449 0.0
C1046 C 0.64086 0.31764 0.55992 0.0
C1047 C 0.55089 0.30456 0.48369 0.0
H1048 H 0.64369 0.40462 0.42227 0.0
H1049 H 0.66816 0.41957 0.47095 0.0
H1050 H 0.71725 0.37942 0.55597 0.0
H1051 H 0.71348 0.33802 0.57456 0.0
H1052 H 0.58659 0.2821 0.57205 0.0
H1053 H 0.53615 0.27528 0.5308 0.0
H1054 H 0.52421 0.30242 0.42628 0.0
H1055 H 0.56148 0.3311 0.39373 0.0
H1056 H 0.67749 0.26794 0.47523 0.0
H1057 H 0.75778 0.32038 0.49383 0.0
H1058 H 0.49606 0.35635 0.55327 0.0
H1059 H 0.50081 0.38874 0.47228 0.0
C1060 C 0.34111 0.67383 0.18365 0.0
C1061 C 0.31585 0.68526 0.16629 0.0
C1062 C 0.29621 0.69993 0.18313 0.0
C1063 C 0.31075 0.69694 0.20977 0.0
N1064 N 0.33884 0.68159 0.21061 0.0
Co1065 Co 0.36652 0.67217 0.24527 0.0
N1066 N 0.34726 0.69772 0.26793 0.0
C1067 C 0.31709 0.71051 0.26115 0.0
C1068 C 0.30866 0.72584 0.28172 0.0
C1069 C 0.33524 0.72239 0.30275 0.0
C1070 C 0.35881 0.70526 0.29371 0.0
N1071 N 0.39508 0.6629 0.27936 0.0
C1072 C 0.4121 0.67722 0.29728 0.0
C1073 C 0.44478 0.66788 0.30922 0.0
C1074 C 0.44544 0.64619 0.30095 0.0
C1075 C 0.4148 0.64385 0.28303 0.0
N1076 N 0.38622 0.64612 0.22368 0.0
C1077 C 0.40049 0.62741 0.23533 0.0
C1078 C 0.40643 0.61058 0.21656 0.0
C1079 C 0.39476 0.6189 0.19135 0.0
C1080 C 0.38295 0.64073 0.19605 0.0
N1081 N 0.41157 0.69085 0.23441 0.0
C1082 C 0.47263 0.72236 0.2357 0.0
C1083 C 0.47934 0.69942 0.23945 0.0
C1084 C 0.44872 0.68399 0.23821 0.0
C1085 C 0.43498 0.72858 0.22871 0.0
C1086 C 0.40537 0.71275 0.22793 0.0
N1087 N 0.31943 0.65477 0.25609 0.0
C1088 C 0.26313 0.63493 0.23916 0.0
C1089 C 0.24101 0.64108 0.26272 0.0
C1090 C 0.26094 0.65244 0.2843 0.0
C1091 C 0.29998 0.65873 0.28079 0.0
C1092 C 0.30135 0.64198 0.23617 0.0
H1093 H 0.31358 0.66795 0.29754 0.0
H1094 H 0.31507 0.63803 0.21661 0.0
H1095 H 0.45485 0.6667 0.24214 0.0
H1096 H 0.37684 0.71873 0.2239 0.0
C1097 C 0.30105 0.70925 0.23399 0.0
C1098 C 0.36415 0.65443 0.17449 0.0
C1099 C 0.39146 0.69605 0.30993 0.0
C1100 C 0.41303 0.62714 0.26303 0.0
H1101 H 0.31142 0.68296 0.14391 0.0
H1102 H 0.2742 0.71152 0.17663 0.0
H1103 H 0.28655 0.73845 0.2812 0.0
H1104 H 0.33719 0.73158 0.32227 0.0
H1105 H 0.46406 0.67546 0.32431 0.0
H1106 H 0.46745 0.63407 0.3057 0.0
H1107 H 0.41809 0.59424 0.22068 0.0
H1108 H 0.3937 0.60938 0.17206 0.0
H1109 H 0.50796 0.69339 0.24392 0.0
H1110 H 0.42765 0.74584 0.22535 0.0
H1111 H 0.25086 0.62515 0.2223 0.0
H1112 H 0.24624 0.6574 0.30337 0.0
C1113 C 0.47266 0.09039 0.18351 0.0
C1114 C 0.49791 0.079 0.16612 0.0
C1115 C 0.51755 0.06429 0.18292 0.0
C1116 C 0.50301 0.06723 0.20957 0.0
N1117 N 0.47491 0.08257 0.21045 0.0
Co1118 Co 0.44723 0.09191 0.24515 0.0
N1119 N 0.46657 0.06634 0.26775 0.0
C1120 C 0.49674 0.05357 0.26092 0.0
C1121 C 0.50525 0.03822 0.28147 0.0
C1122 C 0.47872 0.04165 0.30255 0.0
C1123 C 0.45512 0.05878 0.29355 0.0
N1124 N 0.41866 0.10111 0.27926 0.0
C1125 C 0.40174 0.08674 0.29719 0.0
C1126 C 0.36908 0.09603 0.3092 0.0
C1127 C 0.36829 0.11773 0.30094 0.0
C1128 C 0.39886 0.12012 0.28297 0.0
N1129 N 0.42746 0.11798 0.2236 0.0
C1130 C 0.41309 0.13665 0.23529 0.0
C1131 C 0.4071 0.15351 0.21656 0.0
C1132 C 0.41885 0.14527 0.19134 0.0
C1133 C 0.43075 0.12345 0.19599 0.0
N1134 N 0.40221 0.07322 0.23426 0.0
C1135 C 0.34121 0.04167 0.23557 0.0
C1136 C 0.33446 0.06461 0.23934 0.0
C1137 C 0.36505 0.08006 0.23809 0.0
C1138 C 0.37885 0.03549 0.22855 0.0
C1139 C 0.40844 0.05133 0.22776 0.0
N1140 N 0.49429 0.10933 0.25598 0.0
C1141 C 0.55058 0.12921 0.23908 0.0
C1142 C 0.57271 0.12302 0.26261 0.0
C1143 C 0.5528 0.11163 0.28418 0.0
C1144 C 0.51376 0.10534 0.28067 0.0
C1145 C 0.51235 0.12216 0.23609 0.0
H1146 H 0.50018 0.0961 0.29741 0.0
H1147 H 0.49861 0.12614 0.21654 0.0
H1148 H 0.3589 0.09734 0.24204 0.0
H1149 H 0.43698 0.04537 0.22371 0.0
C1150 C 0.51273 0.05487 0.23375 0.0
C1151 C 0.44964 0.10982 0.1744 0.0
C1152 C 0.42253 0.06796 0.30984 0.0
C1153 C 0.40054 0.13686 0.26299 0.0
H1154 H 0.50234 0.08134 0.14375 0.0
H1155 H 0.53956 0.05271 0.17638 0.0
H1156 H 0.52737 0.02562 0.2809 0.0
H1157 H 0.47684 0.03244 0.32206 0.0
H1158 H 0.3499 0.08842 0.32435 0.0
H1159 H 0.34626 0.12982 0.30574 0.0
H1160 H 0.39537 0.16983 0.22071 0.0
H1161 H 0.4199 0.15484 0.17208 0.0
H1162 H 0.30584 0.07062 0.24383 0.0
H1163 H 0.38621 0.01823 0.22516 0.0
H1164 H 0.56282 0.13902 0.22223 0.0
H1165 H 0.56751 0.10664 0.30323 0.0
C1166 C 0.3415 0.09038 0.5566 0.0
C1167 C 0.31621 0.07901 0.574 0.0
C1168 C 0.29654 0.06431 0.55721 0.0
C1169 C 0.31109 0.06724 0.53056 0.0
N1170 N 0.33923 0.08255 0.52966 0.0
Co1171 Co 0.36695 0.09186 0.49497 0.0
N1172 N 0.34754 0.06632 0.47237 0.0
C1173 C 0.31733 0.05357 0.47922 0.0
C1174 C 0.30877 0.03824 0.45867 0.0
C1175 C 0.33529 0.04165 0.43759 0.0
C1176 C 0.35895 0.05875 0.44657 0.0
N1177 N 0.39557 0.10103 0.46085 0.0
C1178 C 0.41244 0.08664 0.44294 0.0
C1179 C 0.44515 0.09588 0.43093 0.0
C1180 C 0.44601 0.11758 0.43917 0.0
C1181 C 0.41544 0.12002 0.45714 0.0
N1182 N 0.38679 0.11792 0.51649 0.0
C1183 C 0.40123 0.13657 0.50479 0.0
C1184 C 0.40724 0.15343 0.5235 0.0
C1185 C 0.39545 0.14521 0.54873 0.0
C1186 C 0.3835 0.12339 0.5441 0.0
N1187 N 0.41191 0.07312 0.50587 0.0
C1188 C 0.47281 0.04152 0.50455 0.0
C1189 C 0.47963 0.06444 0.50079 0.0
C1190 C 0.44909 0.07993 0.50205 0.0
C1191 C 0.43515 0.03536 0.51158 0.0
C1192 C 0.40561 0.05124 0.51238 0.0
N1193 N 0.31995 0.10933 0.48411 0.0
C1194 C 0.2637 0.12925 0.50098 0.0
C1195 C 0.24157 0.12308 0.47743 0.0
C1196 C 0.26147 0.11168 0.45588 0.0
C1197 C 0.30049 0.10537 0.45941 0.0
C1198 C 0.3019 0.12217 0.50398 0.0
H1199 H 0.31407 0.09612 0.44267 0.0
H1200 H 0.31564 0.12614 0.52354 0.0
H1201 H 0.4553 0.0972 0.4981 0.0
H1202 H 0.37706 0.04531 0.51644 0.0
C1203 C 0.30133 0.05489 0.50638 0.0
C1204 C 0.36457 0.10978 0.5657 0.0
C1205 C 0.39157 0.0679 0.43028 0.0
C1206 C 0.4138 0.13675 0.4771 0.0
H1207 H 0.31178 0.08136 0.59637 0.0
H1208 H 0.27449 0.05276 0.56375 0.0
H1209 H 0.2866 0.02566 0.45924 0.0
H1210 H 0.33715 0.03244 0.41807 0.0
H1211 H 0.46429 0.08825 0.41578 0.0
H1212 H 0.4681 0.12964 0.43437 0.0
H1213 H 0.41902 0.16974 0.51934 0.0
H1214 H 0.39441 0.15478 0.56798 0.0
H1215 H 0.50826 0.07043 0.49629 0.0
H1216 H 0.42774 0.01812 0.51496 0.0
H1217 H 0.25146 0.13906 0.51782 0.0
H1218 H 0.24676 0.10671 0.43682 0.0
C1219 C 0.47293 0.67407 0.55664 0.0
C1220 C 0.49822 0.68546 0.57402 0.0
C1221 C 0.51787 0.70015 0.55721 0.0
C1222 C 0.50332 0.69722 0.53057 0.0
N1223 N 0.4752 0.68189 0.5297 0.0
Co1224 Co 0.44747 0.67256 0.49502 0.0
N1225 N 0.46685 0.69811 0.47239 0.0
C1226 C 0.49704 0.71087 0.47921 0.0
C1227 C 0.50558 0.7262 0.45865 0.0
C1228 C 0.47904 0.72277 0.43757 0.0
C1229 C 0.45542 0.70566 0.44658 0.0
N1230 N 0.41883 0.66339 0.46093 0.0
C1231 C 0.40193 0.67777 0.44302 0.0
C1232 C 0.36922 0.66852 0.43103 0.0
C1233 C 0.36837 0.64683 0.43929 0.0
C1234 C 0.39897 0.64439 0.45724 0.0
N1235 N 0.42766 0.6465 0.51657 0.0
C1236 C 0.41324 0.62785 0.50489 0.0
C1237 C 0.40725 0.61099 0.52363 0.0
C1238 C 0.41904 0.61923 0.54884 0.0
C1239 C 0.43096 0.64104 0.54418 0.0
N1240 N 0.4025 0.69128 0.50592 0.0
C1241 C 0.34153 0.72285 0.50461 0.0
C1242 C 0.33475 0.69991 0.5009 0.0
C1243 C 0.36533 0.68445 0.50215 0.0
C1244 C 0.3792 0.72903 0.51159 0.0
C1245 C 0.40877 0.71318 0.51239 0.0
N1246 N 0.49448 0.65511 0.48416 0.0
C1247 C 0.55075 0.63521 0.50105 0.0
C1248 C 0.57288 0.64139 0.47751 0.0
C1249 C 0.55297 0.65278 0.45595 0.0
C1250 C 0.51394 0.65908 0.45946 0.0
C1251 C 0.51254 0.64228 0.50405 0.0
H1252 H 0.50036 0.66833 0.44272 0.0
H1253 H 0.4988 0.6383 0.52361 0.0
H1254 H 0.35914 0.66717 0.49824 0.0
H1255 H 0.43732 0.71912 0.51641 0.0
C1256 C 0.51305 0.70956 0.50637 0.0
C1257 C 0.44988 0.65467 0.56576 0.0
C1258 C 0.42281 0.69649 0.43031 0.0
C1259 C 0.40064 0.62765 0.4772 0.0
H1260 H 0.50265 0.68312 0.59639 0.0
H1261 H 0.53991 0.71172 0.56374 0.0
H1262 H 0.52773 0.73878 0.45919 0.0
H1263 H 0.47716 0.73197 0.41805 0.0
H1264 H 0.35007 0.67615 0.41588 0.0
H1265 H 0.3463 0.63476 0.4345 0.0
H1266 H 0.39548 0.59468 0.51948 0.0
H1267 H 0.42009 0.60966 0.56811 0.0
H1268 H 0.30612 0.69391 0.49645 0.0
H1269 H 0.38657 0.74629 0.51494 0.0
H1270 H 0.563 0.6254 0.5179 0.0
H1271 H 0.56768 0.65776 0.43688 0.0
C1272 C 0.68076 0.87315 0.29412 0.0
C1273 C 0.66885 0.89498 0.29873 0.0
C1274 C 0.65707 0.90319 0.27349 0.0
C1275 C 0.66306 0.88631 0.25479 0.0
N1276 N 0.67745 0.86766 0.26652 0.0
Co1277 Co 0.69732 0.8416 0.24502 0.0
N1278 N 0.66872 0.85074 0.21089 0.0
C1279 C 0.64887 0.86974 0.20715 0.0
C1280 C 0.61834 0.8673 0.18915 0.0
C1281 C 0.61923 0.84561 0.18089 0.0
C1282 C 0.6519 0.83636 0.19295 0.0
N1283 N 0.71677 0.81605 0.22244 0.0
C1284 C 0.7054 0.80849 0.19662 0.0
C1285 C 0.72906 0.79138 0.18766 0.0
C1286 C 0.75554 0.78796 0.20878 0.0
C1287 C 0.74695 0.80329 0.22931 0.0
N1288 N 0.72502 0.8323 0.27973 0.0
C1289 C 0.75313 0.81697 0.28065 0.0
C1290 C 0.76763 0.81405 0.30732 0.0
C1291 C 0.74796 0.82875 0.32409 0.0
C1292 C 0.72271 0.84013 0.30666 0.0
N1293 N 0.65235 0.82287 0.25591 0.0
C1294 C 0.59139 0.7913 0.2546 0.0
C1295 C 0.62905 0.78512 0.26161 0.0
C1296 C 0.65862 0.80098 0.2624 0.0
C1297 C 0.58461 0.81423 0.25085 0.0
C1298 C 0.61518 0.8297 0.25209 0.0
N1299 N 0.74433 0.85907 0.23416 0.0
C1300 C 0.80281 0.86144 0.20594 0.0
C1301 C 0.82271 0.87284 0.2275 0.0
C1302 C 0.80057 0.87899 0.25105 0.0
C1303 C 0.76237 0.8719 0.25405 0.0
C1304 C 0.7638 0.85511 0.20946 0.0
H1305 H 0.74863 0.87586 0.2736 0.0
H1306 H 0.75023 0.84586 0.19273 0.0
H1307 H 0.68716 0.79504 0.26645 0.0
H1308 H 0.609 0.84697 0.24816 0.0
C1309 C 0.6505 0.88649 0.2271 0.0
C1310 C 0.69965 0.85954 0.31574 0.0
C1311 C 0.67283 0.81764 0.1803 0.0
C1312 C 0.7629 0.80462 0.25649 0.0
H1313 H 0.66989 0.90456 0.31797 0.0
H1314 H 0.64532 0.9195 0.2693 0.0
H1315 H 0.59629 0.87938 0.1843 0.0
H1316 H 0.60014 0.83799 0.16569 0.0
H1317 H 0.72721 0.78217 0.16815 0.0
H1318 H 0.77769 0.77538 0.20937 0.0
H1319 H 0.78965 0.80248 0.31388 0.0
H1320 H 0.75236 0.83111 0.34646 0.0
H1321 H 0.63642 0.76787 0.26498 0.0
H1322 H 0.55598 0.82024 0.24637 0.0
H1323 H 0.81753 0.85648 0.18688 0.0
H1324 H 0.8128 0.8888 0.2679 0.0
C1325 C 0.63312 0.39057 0.29424 0.0
C1326 C 0.6449 0.36874 0.299 0.0
C1327 C 0.65665 0.36041 0.27381 0.0
C1328 C 0.65078 0.37724 0.25502 0.0
N1329 N 0.6365 0.39596 0.26662 0.0
Co1330 Co 0.6168 0.42198 0.24495 0.0
N1331 N 0.64549 0.41271 0.21092 0.0
C1332 C 0.66523 0.39366 0.20732 0.0
C1333 C 0.69594 0.396 0.18946 0.0
C1334 C 0.69529 0.41769 0.18116 0.0
C1335 C 0.66254 0.42702 0.19299 0.0
N1336 N 0.59758 0.4475 0.22222 0.0
C1337 C 0.6092 0.45504 0.19645 0.0
C1338 C 0.58562 0.47215 0.18734 0.0
C1339 C 0.55896 0.47559 0.20832 0.0
C1340 C 0.56735 0.46028 0.22893 0.0
N1341 N 0.58899 0.4314 0.27955 0.0
C1342 C 0.56086 0.44672 0.28031 0.0
C1343 C 0.54623 0.44972 0.30693 0.0
C1344 C 0.56586 0.43507 0.32383 0.0
C1345 C 0.5912 0.42365 0.30653 0.0
N1346 N 0.66178 0.4407 0.25586 0.0
C1347 C 0.72274 0.47227 0.25457 0.0
C1348 C 0.68506 0.47845 0.26152 0.0
C1349 C 0.6555 0.46259 0.26231 0.0
C1350 C 0.72953 0.44934 0.25086 0.0
C1351 C 0.69896 0.43387 0.2521 0.0
N1352 N 0.56978 0.40455 0.23409 0.0
C1353 C 0.51132 0.40223 0.20584 0.0
C1354 C 0.49135 0.39088 0.22742 0.0
C1355 C 0.51344 0.38471 0.25098 0.0
C1356 C 0.55167 0.39176 0.25399 0.0
C1357 C 0.55036 0.40851 0.20937 0.0
H1358 H 0.56536 0.3878 0.27356 0.0
H1359 H 0.56398 0.41773 0.19262 0.0
H1360 H 0.62694 0.46854 0.2663 0.0
H1361 H 0.70514 0.41659 0.24821 0.0
C1362 C 0.66339 0.37696 0.22733 0.0
C1363 C 0.61424 0.40428 0.31576 0.0
C1364 C 0.64195 0.44587 0.1803 0.0
C1365 C 0.55122 0.45901 0.25606 0.0
H1366 H 0.64377 0.35922 0.3183 0.0
H1367 H 0.66831 0.34406 0.26973 0.0
H1368 H 0.71798 0.38389 0.18478 0.0
H1369 H 0.71465 0.42526 0.1661 0.0
H1370 H 0.5876 0.48134 0.16782 0.0
H1371 H 0.53682 0.48818 0.20879 0.0
H1372 H 0.52418 0.4613 0.31337 0.0
H1373 H 0.56136 0.43279 0.3462 0.0
H1374 H 0.67767 0.4957 0.26486 0.0
H1375 H 0.75817 0.44333 0.24642 0.0
H1376 H 0.49664 0.4072 0.18676 0.0
H1377 H 0.50115 0.37494 0.26785 0.0
C1378 C 0.68113 0.39106 0.94612 0.0
C1379 C 0.66928 0.36923 0.94153 0.0
C1380 C 0.65757 0.361 0.96678 0.0
C1381 C 0.66354 0.37789 0.98546 0.0
N1382 N 0.67786 0.39656 0.97372 0.0
Co1383 Co 0.6977 0.42263 -0.00481 0.0
N1384 N 0.66916 0.41348 0.02934 0.0
C1385 C 0.64937 0.39447 0.0331 0.0
C1386 C 0.61887 0.39688 0.05114 0.0
C1387 C 0.6197 0.41858 0.05938 0.0
C1388 C 0.65232 0.42786 0.04727 0.0
N1389 N 0.71712 0.44821 0.01774 0.0
C1390 C 0.70576 0.45577 0.04356 0.0
C1391 C 0.72937 0.47291 0.05249 0.0
C1392 C 0.75582 0.47634 0.03136 0.0
C1393 C 0.74726 0.46099 0.01084 0.0
N1394 N 0.72533 0.43195 0.96046 0.0
C1395 C 0.7534 0.4473 0.9595 0.0
C1396 C 0.76785 0.45023 0.93283 0.0
C1397 C 0.74818 0.43551 0.91608 0.0
C1398 C 0.72299 0.42411 0.93353 0.0
N1399 N 0.65267 0.44133 0.98432 0.0
C1400 C 0.59163 0.47285 0.98565 0.0
C1401 C 0.62927 0.47906 0.97862 0.0
C1402 C 0.65888 0.46322 0.97782 0.0
C1403 C 0.58491 0.44991 0.98941 0.0
C1404 C 0.61552 0.43447 0.98816 0.0
N1405 N 0.74476 0.40521 0.00602 0.0
C1406 C 0.80328 0.40287 0.0342 0.0
C1407 C 0.82316 0.39147 0.01263 0.0
C1408 C 0.80101 0.3853 0.98911 0.0
C1409 C 0.76279 0.39238 0.98612 0.0
C1410 C 0.76425 0.40918 0.0307 0.0
H1411 H 0.74904 0.3884 0.96658 0.0
H1412 H 0.75069 0.41843 0.04744 0.0
H1413 H 0.68741 0.46919 0.97375 0.0
H1414 H 0.60939 0.41719 0.99211 0.0
C1415 C 0.65102 0.37771 0.01317 0.0
C1416 C 0.69994 0.40469 0.92448 0.0
C1417 C 0.67323 0.44659 0.05991 0.0
C1418 C 0.76318 0.45967 0.98366 0.0
H1419 H 0.67032 0.35964 0.92229 0.0
H1420 H 0.64587 0.34468 0.97098 0.0
H1421 H 0.59686 0.38479 0.05602 0.0
H1422 H 0.60063 0.42619 0.0746 0.0
H1423 H 0.72751 0.48212 0.072 0.0
H1424 H 0.77794 0.48894 0.03075 0.0
H1425 H 0.78983 0.46182 0.92624 0.0
H1426 H 0.75254 0.43316 0.8937 0.0
H1427 H 0.6366 0.49631 0.97523 0.0
H1428 H 0.5563 0.44389 0.99391 0.0
H1429 H 0.81801 0.40785 0.05325 0.0
H1430 H 0.81323 0.37549 0.97226 0.0
C1431 C 0.63321 0.87356 0.94597 0.0
C1432 C 0.64496 0.8954 0.94127 0.0
C1433 C 0.65666 0.9037 0.96648 0.0
C1434 C 0.65079 0.88684 0.98524 0.0
N1435 N 0.63654 0.86813 0.97359 0.0
Co1436 Co 0.61683 0.84208 -0.00481 0.0
N1437 N 0.64543 0.85133 0.02927 0.0
C1438 C 0.66514 0.87038 0.03292 0.0
C1439 C 0.69577 0.86804 0.05086 0.0
C1440 C 0.6951 0.84635 0.05915 0.0
C1441 C 0.66242 0.83701 0.04722 0.0
N1442 N 0.59757 0.81653 0.01786 0.0
C1443 C 0.60912 0.80898 0.04364 0.0
C1444 C 0.58554 0.79185 0.05268 0.0
C1445 C 0.55895 0.78841 0.03165 0.0
C1446 C 0.56738 0.80375 0.01108 0.0
N1447 N 0.58911 0.83269 0.96054 0.0
C1448 C 0.561 0.81735 0.95971 0.0
C1449 C 0.54646 0.81437 0.93307 0.0
C1450 C 0.56611 0.82904 0.91622 0.0
C1451 C 0.59138 0.84046 0.93357 0.0
N1452 N 0.66185 0.82339 0.9843 0.0
C1453 C 0.72283 0.79183 0.98563 0.0
C1454 C 0.68518 0.78565 0.97862 0.0
C1455 C 0.6556 0.8015 0.97781 0.0
C1456 C 0.72959 0.81476 0.98939 0.0
C1457 C 0.69901 0.83023 0.98813 0.0
N1458 N 0.56976 0.85949 0.00603 0.0
C1459 C 0.51128 0.86178 0.03426 0.0
C1460 C 0.49133 0.87313 0.01268 0.0
C1461 C 0.51343 0.87931 0.98912 0.0
C1462 C 0.55166 0.87228 0.98612 0.0
C1463 C 0.55033 0.85552 0.03074 0.0
H1464 H 0.56537 0.87625 0.96656 0.0
H1465 H 0.56395 0.8463 0.04749 0.0
H1466 H 0.62706 0.79555 0.97377 0.0
H1467 H 0.70517 0.8475 0.99207 0.0
C1468 C 0.66335 0.8871 0.01294 0.0
C1469 C 0.61442 0.85985 0.9244 0.0
C1470 C 0.64178 0.81817 0.05986 0.0
C1471 C 0.55133 0.80503 0.98393 0.0
H1472 H 0.64385 0.90494 0.92199 0.0
H1473 H 0.66829 0.92005 0.9706 0.0
H1474 H 0.71777 0.88016 0.05561 0.0
H1475 H 0.71437 0.83878 0.07426 0.0
H1476 H 0.58748 0.78265 0.0722 0.0
H1477 H 0.53683 0.77581 0.03113 0.0
H1478 H 0.52445 0.80278 0.92657 0.0
H1479 H 0.56167 0.83134 0.89384 0.0
H1480 H 0.67781 0.7684 0.97525 0.0
H1481 H 0.75821 0.82077 0.99388 0.0
H1482 H 0.4966 0.8568 0.05333 0.0
H1483 H 0.50114 0.88909 0.97226 0.0
C1484 C 0.34151 0.17406 0.68338 0.0
C1485 C 0.31625 0.18542 0.66594 0.0
C1486 C 0.29658 0.20014 0.68269 0.0
C1487 C 0.31109 0.19725 0.70935 0.0
N1488 N 0.33921 0.18193 0.7103 0.0
Co1489 Co 0.3669 0.17266 0.74503 0.0
N1490 N 0.34745 0.19823 0.76757 0.0
C1491 C 0.31726 0.21098 0.76067 0.0
C1492 C 0.30867 0.22633 0.78119 0.0
C1493 C 0.33514 0.22293 0.80231 0.0
C1494 C 0.3588 0.20581 0.79338 0.0
N1495 N 0.3955 0.16354 0.77918 0.0
C1496 C 0.41232 0.17795 0.79708 0.0
C1497 C 0.44499 0.16873 0.80917 0.0
C1498 C 0.44591 0.14703 0.80094 0.0
C1499 C 0.41539 0.14457 0.78294 0.0
N1500 N 0.38677 0.14658 0.72357 0.0
C1501 C 0.40123 0.12795 0.73531 0.0
C1502 C 0.40726 0.11106 0.71664 0.0
C1503 C 0.39546 0.11925 0.69139 0.0
C1504 C 0.38349 0.14106 0.69597 0.0
N1505 N 0.41187 0.19139 0.73412 0.0
C1506 C 0.47278 0.22299 0.73546 0.0
C1507 C 0.47959 0.20006 0.73923 0.0
C1508 C 0.44904 0.18458 0.73797 0.0
C1509 C 0.43512 0.22914 0.7284 0.0
C1510 C 0.40558 0.21327 0.72759 0.0
N1511 N 0.31989 0.1552 0.7559 0.0
C1512 C 0.26364 0.13527 0.73904 0.0
C1513 C 0.2415 0.14147 0.76257 0.0
C1514 C 0.2614 0.15288 0.78412 0.0
C1515 C 0.30043 0.15919 0.78059 0.0
C1516 C 0.30186 0.14235 0.73604 0.0
H1517 H 0.314 0.16845 0.79732 0.0
H1518 H 0.31561 0.13836 0.7165 0.0
H1519 H 0.45524 0.16731 0.74192 0.0
H1520 H 0.37704 0.21919 0.72351 0.0
C1521 C 0.30131 0.20963 0.7335 0.0
C1522 C 0.36456 0.15464 0.67434 0.0
C1523 C 0.39135 0.19666 0.80973 0.0
C1524 C 0.4138 0.1278 0.76301 0.0
H1525 H 0.31185 0.18304 0.64358 0.0
H1526 H 0.27455 0.2117 0.67611 0.0
H1527 H 0.28651 0.23891 0.78058 0.0
H1528 H 0.33697 0.23215 0.82182 0.0
H1529 H 0.46405 0.17638 0.82435 0.0
H1530 H 0.46798 0.13498 0.80581 0.0
H1531 H 0.41906 0.09476 0.72084 0.0
H1532 H 0.39443 0.10964 0.67217 0.0
H1533 H 0.50821 0.19407 0.74374 0.0
H1534 H 0.42773 0.24639 0.72501 0.0
H1535 H 0.25141 0.12545 0.72221 0.0
H1536 H 0.24669 0.15787 0.80317 0.0
C1537 C 0.47287 0.59054 0.68363 0.0
C1538 C 0.49814 0.57914 0.66626 0.0
C1539 C 0.51778 0.56444 0.68308 0.0
C1540 C 0.50322 0.56739 0.70972 0.0
N1541 N 0.47512 0.58273 0.71058 0.0
Co1542 Co 0.4474 0.59209 0.74525 0.0
N1543 N 0.46669 0.56653 0.76788 0.0
C1544 C 0.49688 0.55375 0.76107 0.0
C1545 C 0.50535 0.53841 0.78164 0.0
C1546 C 0.47879 0.54184 0.80269 0.0
C1547 C 0.4552 0.55897 0.79367 0.0
N1548 N 0.41879 0.6013 0.77934 0.0
C1549 C 0.40182 0.58694 0.79724 0.0
C1550 C 0.36911 0.59622 0.80919 0.0
C1551 C 0.36836 0.61792 0.80094 0.0
C1552 C 0.39899 0.62032 0.78302 0.0
N1553 N 0.42767 0.61816 0.72368 0.0
C1554 C 0.41331 0.63683 0.73535 0.0
C1555 C 0.40737 0.65369 0.71661 0.0
C1556 C 0.41912 0.64543 0.69139 0.0
C1557 C 0.43097 0.6236 0.69607 0.0
N1558 N 0.40239 0.5734 0.73434 0.0
C1559 C 0.34138 0.54186 0.73562 0.0
C1560 C 0.33463 0.5648 0.73937 0.0
C1561 C 0.36523 0.58025 0.73813 0.0
C1562 C 0.37903 0.53567 0.72863 0.0
C1563 C 0.40862 0.55151 0.72785 0.0
N1564 N 0.49445 0.6095 0.7561 0.0
C1565 C 0.55076 0.62938 0.73922 0.0
C1566 C 0.57287 0.62319 0.76276 0.0
C1567 C 0.55294 0.6118 0.78432 0.0
C1568 C 0.5139 0.60552 0.7808 0.0
C1569 C 0.51253 0.62233 0.73621 0.0
H1570 H 0.5003 0.59628 0.79754 0.0
H1571 H 0.49881 0.62631 0.71666 0.0
H1572 H 0.35907 0.59753 0.74206 0.0
H1573 H 0.43716 0.54555 0.72382 0.0
C1574 C 0.51292 0.55505 0.73392 0.0
C1575 C 0.44985 0.60995 0.67449 0.0
C1576 C 0.42257 0.56815 0.80991 0.0
C1577 C 0.40073 0.63705 0.76304 0.0
H1578 H 0.50259 0.58147 0.64388 0.0
H1579 H 0.5398 0.55286 0.67657 0.0
H1580 H 0.52748 0.52582 0.7811 0.0
H1581 H 0.47688 0.53264 0.82221 0.0
H1582 H 0.34988 0.58861 0.8243 0.0
H1583 H 0.34631 0.63001 0.8057 0.0
H1584 H 0.39565 0.67002 0.72075 0.0
H1585 H 0.42019 0.65499 0.67212 0.0
H1586 H 0.30601 0.57081 0.74384 0.0
H1587 H 0.38638 0.51841 0.72525 0.0
H1588 H 0.56302 0.63918 0.72237 0.0
H1589 H 0.56764 0.60681 0.80339 0.0
C1590 C 0.34128 0.59036 0.05665 0.0
C1591 C 0.31604 0.57896 0.07405 0.0
C1592 C 0.2964 0.56425 0.05725 0.0
C1593 C 0.31092 0.5672 0.0306 0.0
N1594 N 0.33901 0.58255 0.02971 0.0
Co1595 Co 0.36668 0.59192 0.99501 0.0
N1596 N 0.34734 0.56636 0.9724 0.0
C1597 C 0.31718 0.55357 0.97924 0.0
C1598 C 0.30867 0.53824 0.95869 0.0
C1599 C 0.33518 0.54168 0.93761 0.0
C1600 C 0.35878 0.55881 0.9466 0.0
N1601 N 0.39524 0.60113 0.96089 0.0
C1602 C 0.41217 0.58677 0.94298 0.0
C1603 C 0.44484 0.59606 0.93097 0.0
C1604 C 0.44561 0.61776 0.93922 0.0
C1605 C 0.41503 0.62015 0.95719 0.0
N1606 N 0.38644 0.61798 0.01655 0.0
C1607 C 0.4008 0.63666 0.00486 0.0
C1608 C 0.40679 0.65351 0.02359 0.0
C1609 C 0.39507 0.64525 0.04882 0.0
C1610 C 0.38317 0.62343 0.04416 0.0
N1611 N 0.41171 0.57323 0.00588 0.0
C1612 C 0.47277 0.54172 0.00458 0.0
C1613 C 0.47948 0.56466 0.00084 0.0
C1614 C 0.44886 0.5801 0.00208 0.0
C1615 C 0.43513 0.53551 0.01157 0.0
C1616 C 0.40551 0.55133 0.01236 0.0
N1617 N 0.3196 0.60934 0.98419 0.0
C1618 C 0.26333 0.62922 0.0011 0.0
C1619 C 0.2412 0.62305 0.97756 0.0
C1620 C 0.2611 0.61167 0.95599 0.0
C1621 C 0.30014 0.60537 0.9595 0.0
C1622 C 0.30155 0.62215 0.00409 0.0
H1623 H 0.31371 0.59613 0.94275 0.0
H1624 H 0.3153 0.62612 0.02363 0.0
H1625 H 0.45499 0.59738 -0.00184 0.0
H1626 H 0.37698 0.54536 0.0164 0.0
C1627 C 0.30119 0.55486 0.00641 0.0
C1628 C 0.3643 0.60978 0.06575 0.0
C1629 C 0.39137 0.56801 0.93032 0.0
C1630 C 0.41334 0.63688 0.97716 0.0
H1631 H 0.31162 0.58129 0.09642 0.0
H1632 H 0.27439 0.55267 0.06379 0.0
H1633 H 0.28655 0.52564 0.95925 0.0
H1634 H 0.33707 0.53248 0.91809 0.0
H1635 H 0.46401 0.58846 0.91582 0.0
H1636 H 0.46765 0.62985 0.93442 0.0
H1637 H 0.41852 0.66983 0.01944 0.0
H1638 H 0.39403 0.6548 0.06808 0.0
H1639 H 0.50809 0.5707 -0.00364 0.0
H1640 H 0.4278 0.51824 0.01494 0.0
H1641 H 0.25109 0.63901 0.01795 0.0
H1642 H 0.24638 0.60669 0.93693 0.0
C1643 C 0.47285 0.17386 0.05644 0.0
C1644 C 0.49816 0.18528 0.07377 0.0
C1645 C 0.51781 0.19993 0.05691 0.0
C1646 C 0.50324 0.19695 0.03028 0.0
N1647 N 0.47511 0.18163 0.02947 0.0
Co1648 Co 0.44737 0.17223 0.99482 0.0
N1649 N 0.46666 0.19776 0.97214 0.0
C1650 C 0.49687 0.21053 0.9789 0.0
C1651 C 0.50533 0.22585 0.95831 0.0
C1652 C 0.47872 0.22241 0.93728 0.0
C1653 C 0.45512 0.2053 0.94635 0.0
N1654 N 0.41876 0.16297 0.96076 0.0
C1655 C 0.40177 0.1773 0.94282 0.0
C1656 C 0.36906 0.16798 0.93091 0.0
C1657 C 0.36835 0.1463 0.9392 0.0
C1658 C 0.39899 0.14394 0.95712 0.0
N1659 N 0.42764 0.14619 0.01645 0.0
C1660 C 0.41331 0.1275 0.00483 0.0
C1661 C 0.40736 0.11067 0.02361 0.0
C1662 C 0.41908 0.11897 0.04881 0.0
C1663 C 0.43093 0.14079 0.04408 0.0
N1664 N 0.40238 0.19094 0.0057 0.0
C1665 C 0.34142 0.22252 0.0044 0.0
C1666 C 0.33463 0.19959 0.00067 0.0
C1667 C 0.36521 0.18412 0.00191 0.0
C1668 C 0.37908 0.22869 0.01138 0.0
C1669 C 0.40865 0.21284 0.01217 0.0
N1670 N 0.49442 0.15479 0.984 0.0
C1671 C 0.55071 0.13494 0.00092 0.0
C1672 C 0.57283 0.14109 0.97736 0.0
C1673 C 0.5529 0.15245 0.95578 0.0
C1674 C 0.51386 0.15875 0.95929 0.0
C1675 C 0.5125 0.142 0.00391 0.0
H1676 H 0.50026 0.16797 0.94254 0.0
H1677 H 0.49877 0.13804 0.02348 0.0
H1678 H 0.35902 0.16684 -0.00201 0.0
H1679 H 0.4372 0.21878 0.01619 0.0
C1680 C 0.51293 0.20925 0.00604 0.0
C1681 C 0.44979 0.15448 0.06562 0.0
C1682 C 0.42244 0.19612 0.93015 0.0
C1683 C 0.40074 0.12723 0.97713 0.0
H1684 H 0.50261 0.18297 0.09615 0.0
H1685 H 0.53986 0.21151 0.06339 0.0
H1686 H 0.52747 0.23844 0.95881 0.0
H1687 H 0.4768 0.2316 0.91775 0.0
H1688 H 0.34978 0.17557 0.91582 0.0
H1689 H 0.3463 0.13419 0.93448 0.0
H1690 H 0.39565 0.09433 0.01951 0.0
H1691 H 0.42015 0.10945 0.0681 0.0
H1692 H 0.306 0.19358 -0.0038 0.0
H1693 H 0.38647 0.24595 0.01474 0.0
H1694 H 0.56298 0.12516 0.01779 0.0
H1695 H 0.56759 0.15742 0.9367 0.0
C1696 C 0.16227 0.29535 0.13446 0.0
C1697 C 0.16942 0.31554 0.14868 0.0
H1698 H 0.15039 0.27986 0.09414 0.0
C1699 C 0.16639 0.33529 0.13315 0.0
H1700 H 0.1641 0.27971 0.14564 0.0
C1701 C 0.14931 0.3354 0.10694 0.0
C1702 C 0.14577 0.31574 0.09131 0.0
H1703 H 0.17346 0.3512 0.14247 0.0
H1704 H 0.14243 0.3514 0.09779 0.0
C1705 C 0.15258 0.29544 0.10539 0.0
C1706 C 0.16496 0.92875 0.10699 0.0
C1707 C 0.16842 0.94842 0.09134 0.0
H1708 H 0.14078 0.91291 0.14248 0.0
C1709 C 0.16149 0.96871 0.10541 0.0
H1710 H 0.17194 0.91277 0.09784 0.0
C1711 C 0.15174 0.96878 0.13447 0.0
C1712 C 0.14465 0.94858 0.14868 0.0
H1713 H 0.16361 0.98429 0.09414 0.0
H1714 H 0.14981 0.98441 0.14563 0.0
C1715 C 0.14781 0.92883 0.13317 0.0
C1716 C 0.90244 0.71884 0.85557 0.0
C1717 C 0.89548 0.69857 0.84148 0.0
H1718 H 0.91414 0.73452 0.89581 0.0
C1719 C 0.89883 0.67889 0.85712 0.0
H1720 H 0.9004 0.73443 0.84432 0.0
C1721 C 0.91593 0.67894 0.88332 0.0
C1722 C 0.91918 0.69867 0.89884 0.0
H1723 H 0.89183 0.66292 0.84794 0.0
H1724 H 0.9229 0.663 0.89261 0.0
C1725 C 0.91216 0.71889 0.88464 0.0
C1726 C 0.89798 0.08542 0.8832 0.0
C1727 C 0.89479 0.06565 0.89866 0.0
H1728 H 0.92213 0.10156 0.84793 0.0
C1729 C 0.90189 0.04547 0.88439 0.0
H1730 H 0.89096 0.10133 0.89256 0.0
C1731 C 0.91166 0.04561 0.85534 0.0
C1732 C 0.9186 0.06592 0.84133 0.0
H1733 H 0.89995 0.02982 0.89552 0.0
H1734 H 0.91379 0.03005 0.84404 0.0
C1735 C 0.91514 0.08556 0.85702 0.0
C1736 C 0.16658 0.83539 0.63323 0.0
C1737 C 0.1697 0.81563 0.64873 0.0
H1738 H 0.14243 0.85151 0.59794 0.0
C1739 C 0.16254 0.79545 0.63451 0.0
H1740 H 0.17365 0.8513 0.64255 0.0
C1741 C 0.15277 0.79555 0.60545 0.0
C1742 C 0.14588 0.81586 0.5914 0.0
H1743 H 0.16444 0.7798 0.64566 0.0
H1744 H 0.1506 0.77998 0.59418 0.0
C1745 C 0.1494 0.83551 0.60706 0.0
C1746 C 0.16126 0.4688 0.6053 0.0
C1747 C 0.16799 0.44846 0.59131 0.0
H1748 H 0.14981 0.48464 0.64548 0.0
C1749 C 0.16434 0.42884 0.60703 0.0
H1750 H 0.16353 0.48435 0.59399 0.0
C1751 C 0.14725 0.42904 0.63323 0.0
C1752 C 0.14433 0.44882 0.64867 0.0
H1753 H 0.1712 0.41281 0.59796 0.0
H1754 H 0.14016 0.41315 0.64264 0.0
C1755 C 0.15156 0.46897 0.63437 0.0
C1756 C 0.89873 0.17878 0.35686 0.0
C1757 C 0.89533 0.19847 0.34125 0.0
H1758 H 0.92294 0.16288 0.39229 0.0
C1759 C 0.90231 0.21874 0.35535 0.0
H1760 H 0.89173 0.16281 0.34768 0.0
C1761 C 0.91209 0.21877 0.3844 0.0
C1762 C 0.91916 0.19855 0.39858 0.0
H1763 H 0.90023 0.23433 0.34411 0.0
H1764 H 0.91408 0.23439 0.39559 0.0
C1765 C 0.91591 0.17883 0.38304 0.0
C1766 C 0.91604 0.58529 0.35692 0.0
C1767 C 0.91921 0.56552 0.34146 0.0
H1768 H 0.89201 0.60141 0.39224 0.0
C1769 C 0.91215 0.54534 0.35573 0.0
H1770 H 0.92303 0.6012 0.34755 0.0
C1771 C 0.90243 0.54546 0.3848 0.0
C1772 C 0.89552 0.56577 0.39882 0.0
H1773 H 0.91407 0.52969 0.34461 0.0
H1774 H 0.90032 0.52989 0.3961 0.0
C1775 C 0.89895 0.58541 0.38312 0.0
C1776 C 0.65142 0.29544 0.60583 0.0
C1777 C 0.6442 0.31557 0.59149 0.0
H1778 H 0.66344 0.28011 0.64625 0.0
C1779 C 0.64719 0.33538 0.60689 0.0
H1780 H 0.64961 0.27976 0.59477 0.0
C1781 C 0.66437 0.3356 0.63306 0.0
C1782 C 0.66801 0.316 0.64882 0.0
H1783 H 0.64008 0.35125 0.59746 0.0
H1784 H 0.6713 0.35164 0.64207 0.0
C1785 C 0.66119 0.29565 0.63489 0.0
C1786 C 0.65191 0.96891 0.63441 0.0
C1787 C 0.64489 0.94872 0.64868 0.0
H1788 H 0.66368 0.98436 0.59403 0.0
C1789 C 0.64807 0.92895 0.63322 0.0
H1790 H 0.64996 0.98456 0.64553 0.0
C1791 C 0.66516 0.92884 0.60702 0.0
C1792 C 0.66855 0.94849 0.59132 0.0
H1793 H 0.64109 0.91304 0.64258 0.0
H1794 H 0.67213 0.91284 0.5979 0.0
C1795 C 0.6616 0.96879 0.60534 0.0
C1796 C 0.40237 0.71872 0.35545 0.0
C1797 C 0.39538 0.69842 0.34144 0.0
H1798 H 0.41415 0.73448 0.39563 0.0
C1799 C 0.39879 0.67877 0.35714 0.0
H1800 H 0.40027 0.73429 0.34415 0.0
C1801 C 0.41599 0.67888 0.3833 0.0
C1802 C 0.41924 0.69864 0.39876 0.0
H1803 H 0.39176 0.66278 0.34804 0.0
H1804 H 0.423 0.66296 0.39264 0.0
C1805 C 0.41217 0.71883 0.3845 0.0
C1806 C 0.40214 0.04543 0.38458 0.0
C1807 C 0.3952 0.06567 0.39874 0.0
H1808 H 0.41383 0.02984 0.34428 0.0
C1809 C 0.39852 0.08538 0.38318 0.0
H1810 H 0.4001 0.02981 0.39578 0.0
C1811 C 0.4156 0.08539 0.35697 0.0
C1812 C 0.41887 0.06569 0.34138 0.0
H1813 H 0.39157 0.10134 0.39243 0.0
H1814 H 0.4226 0.10135 0.34774 0.0
C1815 C 0.41184 0.04544 0.35551 0.0
C1816 C 0.66233 0.79535 0.13446 0.0
C1817 C 0.66939 0.81552 0.14873 0.0
H1818 H 0.65051 0.77992 0.09409 0.0
C1819 C 0.66624 0.8353 0.13327 0.0
H1820 H 0.66425 0.77969 0.14558 0.0
C1821 C 0.64913 0.83543 0.10708 0.0
C1822 C 0.64569 0.81579 0.09137 0.0
H1823 H 0.67324 0.8512 0.14263 0.0
H1824 H 0.64215 0.85144 0.09798 0.0
C1825 C 0.65262 0.79548 0.10539 0.0
C1826 C 0.66265 0.46882 0.10578 0.0
C1827 C 0.66988 0.44868 0.09147 0.0
H1828 H 0.65061 0.48417 0.14616 0.0
C1829 C 0.6669 0.42888 0.1069 0.0
H1830 H 0.66445 0.48449 0.09468 0.0
C1831 C 0.64972 0.42867 0.13307 0.0
C1832 C 0.64606 0.44828 0.1488 0.0
H1833 H 0.67402 0.41301 0.0975 0.0
H1834 H 0.6428 0.41264 0.14211 0.0
C1835 C 0.65287 0.46863 0.13484 0.0
C1836 C 0.39786 0.17901 0.85674 0.0
C1837 C 0.39474 0.19879 0.84129 0.0
H1838 H 0.42192 0.16285 0.89203 0.0
C1839 C 0.40187 0.21896 0.85556 0.0
H1840 H 0.39083 0.16311 0.84737 0.0
C1841 C 0.41161 0.21882 0.88462 0.0
C1842 C 0.41848 0.19849 0.89864 0.0
H1843 H 0.39998 0.23461 0.84444 0.0
H1844 H 0.41377 0.23437 0.89592 0.0
C1845 C 0.41498 0.17886 0.88294 0.0
C1846 C 0.4154 0.58555 0.85704 0.0
C1847 C 0.41879 0.56586 0.84144 0.0
H1848 H 0.39123 0.60145 0.89248 0.0
C1849 C 0.41182 0.5456 0.85555 0.0
H1850 H 0.42239 0.60152 0.84785 0.0
C1851 C 0.40206 0.54556 0.88461 0.0
C1852 C 0.39501 0.56578 0.89878 0.0
H1853 H 0.41389 0.53 0.84432 0.0
H1854 H 0.40008 0.52994 0.89581 0.0
C1855 C 0.39825 0.58551 0.88322 0.0
C1856 C 1.00417 0.25995 0.22419 0.0
C1857 C 1.00372 0.23997 0.23986 0.0
H1858 H 1.0313 0.29137 0.21617 0.0
C1859 C 0.03221 0.23741 0.26074 0.0
H1860 H 0.98336 0.26269 0.20762 0.0
C1861 C 0.05987 0.25408 0.26576 0.0
C1862 C 0.06033 0.27405 0.25009 0.0
H1863 H 0.03274 0.22265 0.27378 0.0
H1864 H 0.08068 0.25133 0.28233 0.0
C1865 C 1.03184 0.27661 0.22921 0.0
C1866 C 0.28206 0.98759 0.22927 0.0
C1867 C 0.25353 0.99015 0.25012 0.0
H1868 H 0.33058 1.0015 0.20772 0.0
C1869 C 0.25396 0.01012 0.26578 0.0
H1870 H 0.28261 0.97283 0.21624 0.0
C1871 C 0.28164 0.02679 0.26078 0.0
C1872 C 0.31017 0.02423 0.23993 0.0
H1873 H 0.23312 0.01287 0.28233 0.0
H1874 H 0.28109 0.04154 0.27381 0.0
C1875 C 0.30974 1.00425 0.22427 0.0
C1876 C 1.03174 0.98734 0.01076 0.0
C1877 C 0.06028 0.98992 0.98992 0.0
H1878 H 0.98323 1.00125 0.03232 0.0
C1879 C 0.05986 0.00991 0.97427 0.0
H1880 H 1.03118 0.97257 0.02378 0.0
C1881 C 0.0322 0.02657 0.97929 0.0
C1882 C 1.00367 0.024 0.00014 0.0
H1883 H 0.08071 0.01266 0.95773 0.0
H1884 H 0.03277 0.04134 0.96627 0.0
C1885 C 1.00408 1.00401 0.01578 0.0
C1886 C 0.31004 0.25997 0.01568 0.0
C1887 C 0.31041 0.23998 5e-05 0.0
H1888 H 0.28301 0.29142 0.02369 0.0
C1889 C 0.28184 0.23742 0.97923 0.0
H1890 H 0.33092 0.26272 0.0322 0.0
C1891 C 0.25419 0.2541 0.97423 0.0
C1892 C 0.25383 0.27409 0.98986 0.0
H1893 H 0.28123 0.22266 0.96622 0.0
H1894 H 0.23331 0.25136 0.95771 0.0
C1895 C 0.2824 0.27665 0.01068 0.0
C1896 C 1.00448 0.75998 0.72436 0.0
C1897 C 1.00403 0.74 0.74002 0.0
H1898 H 1.03163 0.79139 0.71632 0.0
C1899 C 0.03257 0.73742 0.76087 0.0
H1900 H 0.98364 0.76274 0.70782 0.0
C1901 C 0.06027 0.75408 0.76586 0.0
C1902 C 0.06071 0.77406 0.7502 0.0
H1903 H 0.03312 0.72267 0.7739 0.0
H1904 H 0.08111 0.75132 0.7824 0.0
C1905 C 0.03218 0.77664 0.72935 0.0
C1906 C 0.78235 0.98785 0.72931 0.0
C1907 C 0.75381 0.99042 0.75015 0.0
H1908 H 0.83087 1.00177 0.70777 0.0
C1909 C 0.75421 0.01041 0.76579 0.0
H1910 H 0.78293 0.97309 0.7163 0.0
C1911 C 0.78188 0.02708 0.76078 0.0
C1912 C 0.81043 0.02451 0.73995 0.0
H1913 H 0.73335 0.01316 0.78232 0.0
H1914 H 0.78131 0.04184 0.7738 0.0
C1915 C 0.81002 1.00452 0.72431 0.0
C1916 C 0.75426 0.7544 0.97437 0.0
C1917 C 0.75384 0.77438 0.99002 0.0
H1918 H 0.78134 0.72296 0.96636 0.0
C1919 C 0.78235 0.77693 0.01088 0.0
H1920 H 0.73343 0.75166 0.95781 0.0
C1921 C 0.81 0.76025 0.01591 0.0
C1922 C 0.81042 0.74027 0.00026 0.0
H1923 H 0.78291 0.79169 0.02391 0.0
H1924 H 0.83083 0.76299 0.03246 0.0
C1925 C 0.7819 0.73772 0.97939 0.0
C1926 C 0.30988 0.50446 0.7243 0.0
C1927 C 0.31034 0.52442 0.73998 0.0
H1928 H 0.28274 0.47305 0.71625 0.0
C1929 C 0.28183 0.52698 0.76085 0.0
H1930 H 0.33072 0.50172 0.70774 0.0
C1931 C 0.25415 0.51031 0.76585 0.0
C1932 C 0.2537 0.49035 0.75017 0.0
H1933 H 0.28129 0.54173 0.77389 0.0
H1934 H 0.23333 0.51305 0.78241 0.0
C1935 C 0.28221 0.48779 0.7293 0.0
C1936 C 1.00407 0.50424 0.51581 0.0
C1937 C 1.00371 0.52423 0.50018 0.0
H1938 H 1.03108 0.47277 0.5238 0.0
C1939 C 0.03226 0.52679 0.47933 0.0
H1940 H 0.98321 0.50149 0.53235 0.0
C1941 C 0.05988 0.5101 0.47432 0.0
C1942 C 0.06023 0.4901 0.48995 0.0
H1943 H 0.03286 0.54156 0.46632 0.0
H1944 H 0.08074 0.51284 0.45778 0.0
C1945 C 1.03169 0.48754 0.51079 0.0
C1946 C 0.31011 0.76029 0.51585 0.0
C1947 C 0.31052 0.7403 0.50023 0.0
H1948 H 0.283 0.79173 0.52383 0.0
C1949 C 0.28196 0.73771 0.4794 0.0
H1950 H 0.33097 0.76306 0.53237 0.0
C1951 C 0.25429 0.75437 0.47438 0.0
C1952 C 0.25388 0.77437 0.49 0.0
H1953 H 0.28139 0.72294 0.4664 0.0
H1954 H 0.23342 0.75161 0.45785 0.0
C1955 C 0.28243 0.77696 0.51083 0.0
C1956 C 0.80993 0.50385 0.22435 0.0
C1957 C 0.81031 0.52384 0.23998 0.0
H1958 H 0.78288 0.47241 0.21635 0.0
C1959 C 0.78177 0.5264 0.26082 0.0
H1960 H 0.83078 0.50111 0.20781 0.0
C1961 C 0.75412 0.50972 0.26584 0.0
C1962 C 0.75374 0.48973 0.2502 0.0
H1963 H 0.78117 0.54116 0.27384 0.0
H1964 H 0.73326 0.51246 0.28237 0.0
C1965 C 0.78229 0.48717 0.22936 0.0
C1966 C 0.75401 0.25402 0.47429 0.0
C1967 C 0.75354 0.27399 0.48994 0.0
H1968 H 0.78123 0.22263 0.46624 0.0
C1969 C 0.78211 0.27659 0.51076 0.0
H1970 H 0.73314 0.25124 0.45777 0.0
C1971 C 0.80985 0.25996 0.51574 0.0
C1972 C 0.81033 0.23999 0.50008 0.0
H1973 H 0.78263 0.29135 0.52379 0.0
H1974 H 0.83072 0.26274 0.53226 0.0
C1975 C 0.78176 0.23738 0.47927 0.0
C1976 C 0.53226 0.2379 0.76073 0.0
C1977 C 0.50375 0.24046 0.73987 0.0
H1978 H 0.58073 0.25182 0.78232 0.0
C1979 C 0.50416 0.26045 0.72423 0.0
H1980 H 0.53283 0.22313 0.77375 0.0
C1981 C 0.5318 0.27713 0.72926 0.0
C1982 C 0.56031 0.27456 0.75013 0.0
H1983 H 0.48333 0.2632 0.70767 0.0
H1984 H 0.53123 0.2919 0.71625 0.0
C1985 C 0.5599 0.25457 0.76577 0.0
C1986 C 0.50419 1.00406 0.51582 0.0
C1987 C 0.50378 0.02404 0.50017 0.0
H1988 H 0.53125 0.97261 0.52384 0.0
C1989 C 0.53229 0.02659 0.47929 0.0
H1990 H 0.48335 1.00132 0.53238 0.0
C1991 C 0.55992 0.0099 0.47428 0.0
C1992 C 0.56033 0.98992 0.48994 0.0
H1993 H 0.53286 0.04134 0.46626 0.0
H1994 H 0.58075 0.01264 0.45771 0.0
C1995 C 0.53182 0.98737 0.51081 0.0
C1996 C 0.53182 0.77643 0.22939 0.0
C1997 C 0.56037 0.77385 0.25023 0.0
H1998 H 0.48327 0.76254 0.20786 0.0
C1999 C 0.55994 0.75386 0.26588 0.0
H2000 H 0.53127 0.7912 0.21637 0.0
C2001 C 0.53224 0.73721 0.26089 0.0
C2002 C 0.50369 0.73979 0.24005 0.0
H2003 H 0.58079 0.7511 0.28241 0.0
H2004 H 0.53279 0.72244 0.27391 0.0
C2005 C 0.50413 0.75978 0.2244 0.0
C2006 C 0.53204 0.48768 0.01086 0.0
C2007 C 0.56057 0.49028 0.99002 0.0
H2008 H 0.48347 0.50154 0.0324 0.0
C2009 C 0.5601 0.51026 0.97437 0.0
H2010 H 0.53151 0.47292 0.02389 0.0
C2011 C 0.53238 0.5269 0.97937 0.0
C2012 C 0.50384 0.5243 0.00021 0.0
H2013 H 0.58094 0.51304 0.95783 0.0
H2014 H 0.5329 0.54167 0.96635 0.0
C2015 C 0.50432 0.50432 0.01586 0.0
C2016 C 0.16638 0.3891 0.38178 0.0
C2017 C 0.20094 0.39522 0.39495 0.0
H2018 H 0.13914 0.37084 0.34864 0.0
C2019 C 0.23569 0.38833 0.38258 0.0
H2020 H 0.13913 0.39381 0.39101 0.0
C2021 C 0.23571 0.37608 0.35731 0.0
C2022 C 0.20096 0.36927 0.34487 0.0
H2023 H 0.26281 0.39209 0.39263 0.0
H2024 H 0.26285 0.37224 0.34735 0.0
C2025 C 0.16639 0.3755 0.35792 0.0
C2026 C 0.14747 0.88883 0.35805 0.0
C2027 C 0.1129 0.89501 0.34495 0.0
H2028 H 0.17473 0.87055 0.39118 0.0
C2029 C 0.07815 0.88815 0.35736 0.0
H2030 H 0.17472 0.89352 0.34878 0.0
C2031 C 0.07816 0.87591 0.38264 0.0
C2032 C 0.11292 0.86907 0.39505 0.0
H2033 H 0.05102 0.89197 0.34736 0.0
H2034 H 0.05104 0.87212 0.39266 0.0
C2035 C 0.14748 0.87523 0.38192 0.0
C2036 C 0.23605 0.87597 0.85743 0.0
C2037 C 0.20133 0.86911 0.845 0.0
H2038 H 0.26312 0.89201 0.89274 0.0
C2039 C 0.16673 0.8753 0.85807 0.0
H2040 H 0.2632 0.87215 0.84746 0.0
C2041 C 0.16669 0.88891 0.88192 0.0
C2042 C 0.20124 0.89507 0.89507 0.0
H2043 H 0.13951 0.87061 0.84878 0.0
H2044 H 0.13943 0.89359 0.89115 0.0
C2045 C 0.23601 0.88821 0.8827 0.0
C2046 C 0.07835 0.38822 0.85732 0.0
C2047 C 0.11309 0.39505 0.84488 0.0
H2048 H 0.05125 0.37218 0.89263 0.0
C2049 C 0.14767 0.38881 0.85793 0.0
H2050 H 0.05121 0.39207 0.84736 0.0
C2051 C 0.14768 0.37519 0.88178 0.0
C2052 C 0.11312 0.36906 0.89494 0.0
H2053 H 0.17491 0.39348 0.84865 0.0
H2054 H 0.17493 0.37047 0.89101 0.0
C2055 C 0.07836 0.37596 0.88258 0.0
C2056 C 0.82833 0.6383 0.63279 0.0
C2057 C 0.86309 0.64513 0.64521 0.0
H2058 H 0.80118 0.62229 0.5975 0.0
C2059 C 0.89765 0.63894 0.63209 0.0
H2060 H 0.80121 0.64211 0.6428 0.0
C2061 C 0.89763 0.62535 0.60822 0.0
C2062 C 0.86305 0.61921 0.5951 0.0
H2063 H 0.9249 0.64361 0.64135 0.0
H2064 H 0.92487 0.62066 0.59896 0.0
C2065 C 0.82831 0.62607 0.60751 0.0
C2066 C 0.91675 0.12542 0.63189 0.0
C2067 C 0.95132 0.11927 0.64502 0.0
H2068 H 0.8895 0.14368 0.59874 0.0
C2069 C 0.98606 0.12613 0.63261 0.0
H2070 H 0.8895 0.12074 0.64115 0.0
C2071 C 0.98606 0.13836 0.60732 0.0
C2072 C 0.95131 0.14519 0.5949 0.0
H2073 H 1.01319 0.12234 0.64263 0.0
H2074 H 1.01319 0.14217 0.59731 0.0
C2075 C 0.91674 0.13901 0.60801 0.0
C2076 C 0.82817 0.13825 0.13255 0.0
C2077 C 0.86292 0.1451 0.14497 0.0
H2078 H 0.80107 0.1222 0.09727 0.0
C2079 C 0.89749 0.13893 0.13187 0.0
H2080 H 0.80104 0.14205 0.14255 0.0
C2081 C 0.89751 0.12532 0.10802 0.0
C2082 C 0.86295 0.11914 0.0949 0.0
H2083 H 0.92473 0.14361 0.14114 0.0
H2084 H 0.92476 0.12062 0.09878 0.0
C2085 C 0.82819 0.12601 0.10728 0.0
C2086 C 0.98572 0.63826 0.10756 0.0
C2087 C 0.95098 0.64513 0.09513 0.0
H2088 H 1.01281 0.62219 0.14284 0.0
C2089 C 0.9164 0.63894 0.10822 0.0
H2090 H 1.01286 0.64208 0.09757 0.0
C2091 C 0.91638 0.62531 0.13207 0.0
C2092 C 0.95093 0.61913 0.1452 0.0
H2093 H 0.88917 0.64364 0.09895 0.0
H2094 H 0.88912 0.62061 0.1413 0.0
C2095 C 0.98569 0.626 0.13282 0.0
C2096 C 0.66668 0.38906 0.88213 0.0
C2097 C 0.70128 0.39526 0.89519 0.0
H2098 H 0.63939 0.37077 0.84903 0.0
C2099 C 0.73601 0.38842 0.88274 0.0
H2100 H 0.63945 0.39373 0.89142 0.0
C2101 C 0.73597 0.37619 0.85747 0.0
C2102 C 0.7012 0.36932 0.84511 0.0
H2103 H 0.76315 0.39225 0.89271 0.0
H2104 H 0.76308 0.3724 0.84742 0.0
C2105 C 0.66665 0.37546 0.85827 0.0
C2106 C 0.64768 0.87539 0.88199 0.0
C2107 C 0.61308 0.86921 0.89506 0.0
H2108 H 0.67498 0.8937 0.84891 0.0
C2109 C 0.57835 0.87605 0.88261 0.0
H2110 H 0.6749 0.87072 0.89129 0.0
C2111 C 0.5784 0.8883 0.85734 0.0
C2112 C 0.61317 0.89517 0.84498 0.0
H2113 H 0.55121 0.87224 0.89259 0.0
H2114 H 0.55129 0.8921 0.8473 0.0
C2115 C 0.64772 0.889 0.85813 0.0
C2116 C 0.6665 0.88877 0.38199 0.0
C2117 C 0.70108 0.89496 0.39509 0.0
H2118 H 0.63924 0.87047 0.3489 0.0
C2119 C 0.73582 0.8881 0.38267 0.0
H2120 H 0.63926 0.89346 0.39126 0.0
C2121 C 0.7358 0.87585 0.35741 0.0
C2122 C 0.70105 0.86898 0.34502 0.0
H2123 H 0.76295 0.89191 0.39267 0.0
H2124 H 0.76293 0.87203 0.3474 0.0
C2125 C 0.66649 0.87516 0.35814 0.0
C2126 C 0.57801 0.37583 0.38274 0.0
C2127 C 0.61275 0.369 0.39519 0.0
H2128 H 0.55093 0.39185 0.34742 0.0
C2129 C 0.64733 0.3752 0.38213 0.0
H2130 H 0.55087 0.372 0.39272 0.0
C2131 C 0.64736 0.38881 0.35826 0.0
C2132 C 0.61281 0.39495 0.3451 0.0
H2133 H 0.67457 0.37053 0.39141 0.0
H2134 H 0.67462 0.3935 0.34902 0.0
C2135 C 0.57804 0.38807 0.35747 0.0
C2136 C 0.32808 0.63825 0.13272 0.0
C2137 C 0.36281 0.6451 0.14515 0.0
H2138 H 0.301 0.62222 0.09741 0.0
C2139 C 0.3974 0.63894 0.13206 0.0
H2140 H 0.30093 0.64205 0.14271 0.0
C2141 C 0.39743 0.62535 0.10819 0.0
C2142 C 0.36288 0.61918 0.09506 0.0
H2143 H 0.42463 0.64362 0.14135 0.0
H2144 H 0.42469 0.62067 0.09895 0.0
C2145 C 0.32811 0.62602 0.10744 0.0
C2146 C 0.41651 0.12541 0.13196 0.0
C2147 C 0.45106 0.11923 0.14509 0.0
H2148 H 0.38932 0.14369 0.0988 0.0
C2149 C 0.48583 0.12606 0.1327 0.0
H2150 H 0.38925 0.12074 0.14121 0.0
C2151 C 0.48587 0.13829 0.10741 0.0
C2152 C 0.45114 0.14515 0.09497 0.0
H2153 H 0.51295 0.12225 0.14272 0.0
H2154 H 0.51301 0.14207 0.0974 0.0
C2155 C 0.41655 0.139 0.10808 0.0
C2156 C 0.32843 0.13833 0.63265 0.0
C2157 C 0.36318 0.14518 0.64505 0.0
H2158 H 0.3013 0.12226 0.59739 0.0
C2159 C 0.39775 0.13899 0.63195 0.0
H2160 H 0.30131 0.14215 0.64265 0.0
C2161 C 0.39775 0.12536 0.60812 0.0
C2162 C 0.36318 0.11919 0.595 0.0
H2163 H 0.425 0.14369 0.6412 0.0
H2164 H 0.42499 0.12066 0.59887 0.0
C2165 C 0.32843 0.12607 0.60739 0.0
C2166 C 0.41667 0.62551 0.63206 0.0
C2167 C 0.45124 0.61933 0.64517 0.0
H2168 H 0.38944 0.64381 0.59894 0.0
C2169 C 0.48599 0.62618 0.63276 0.0
H2170 H 0.38942 0.62083 0.64132 0.0
C2171 C 0.486 0.63841 0.60748 0.0
C2172 C 0.45125 0.64528 0.59508 0.0
H2173 H 0.51312 0.62237 0.64277 0.0
H2174 H 0.51313 0.64221 0.59747 0.0
C2175 C 0.41668 0.63912 0.60819 0.0
C2176 C 0.38704 0.3797 0.20108 0.0
C2177 C 0.36605 0.37751 0.22651 0.0
H2178 H 0.44172 0.38524 0.18101 0.0
C2179 C 0.38725 0.37965 0.25176 0.0
H2180 H 0.37252 0.37835 0.181 0.0
C2181 C 0.42686 0.38415 0.25177 0.0
C2182 C 0.44811 0.38621 0.22652 0.0
H2183 H 0.3735 0.3776 0.27203 0.0
H2184 H 0.44058 0.38626 0.27204 0.0
C2185 C 0.42717 0.38395 0.20109 0.0
C2186 C 0.88687 0.87986 0.20118 0.0
C2187 C 0.86593 0.87759 0.22661 0.0
H2188 H 0.9415 0.88553 0.18108 0.0
C2189 C 0.88716 0.87971 0.25185 0.0
H2190 H 0.87234 0.87852 0.1811 0.0
C2191 C 0.92675 0.88428 0.25184 0.0
C2192 C 0.94795 0.88643 0.22659 0.0
H2193 H 0.87344 0.87761 0.27212 0.0
H2194 H 0.94048 0.88638 0.27211 0.0
C2195 C 0.92698 0.88418 0.20117 0.0
C2196 C 0.38723 0.88438 0.98832 0.0
C2197 C 0.36601 0.88648 0.01357 0.0
H2198 H 0.44057 0.8778 0.96805 0.0
C2199 C 0.38698 0.88427 0.039 0.0
H2200 H 0.3735 0.88645 0.96805 0.0
C2201 C 0.42712 0.88002 0.039 0.0
C2202 C 0.44808 0.8778 0.01357 0.0
H2203 H 0.37245 0.88559 0.05908 0.0
H2204 H 0.44166 0.87871 0.05908 0.0
C2205 C 0.42685 0.87989 0.98832 0.0
C2206 C 0.92719 0.38004 0.98824 0.0
C2207 C 0.94843 0.37793 0.01348 0.0
H2208 H 0.87385 0.38668 0.96799 0.0
C2209 C 0.92749 0.3802 0.03891 0.0
H2210 H 0.94089 0.37793 0.96797 0.0
C2211 C 0.88737 0.38451 0.03893 0.0
C2212 C 0.86639 0.38674 0.01351 0.0
H2213 H 0.94203 0.37887 0.05899 0.0
H2214 H 0.87286 0.38586 0.05901 0.0
C2215 C 0.88759 0.3846 0.98825 0.0
C2216 C 0.6772 0.63436 0.78908 0.0
C2217 C 0.69817 0.6366 0.76365 0.0
H2218 H 0.62254 0.62877 0.80916 0.0
C2219 C 0.67695 0.6345 0.7384 0.0
H2220 H 0.69173 0.63568 0.80916 0.0
C2221 C 0.63734 0.62998 0.7384 0.0
C2222 C 0.61611 0.62787 0.76365 0.0
H2223 H 0.69068 0.63659 0.71813 0.0
H2224 H 0.62361 0.6279 0.71813 0.0
C2225 C 0.63708 0.6301 0.78908 0.0
C2226 C 0.13746 0.13007 0.73822 0.0
C2227 C 0.11623 0.12799 0.76347 0.0
H2228 H 0.19079 0.13667 0.71794 0.0
C2229 C 0.13718 0.13026 0.78889 0.0
H2230 H 0.12374 0.12796 0.71795 0.0
C2231 C 0.1773 0.13455 0.78889 0.0
C2232 C 0.19827 0.13676 0.76346 0.0
H2233 H 0.12264 0.12896 0.80898 0.0
H2234 H 0.19183 0.1359 0.80897 0.0
C2235 C 0.17706 0.1346 0.73821 0.0
C2236 C 0.6373 0.13431 0.00172 0.0
C2237 C 0.61606 0.13639 0.97647 0.0
H2238 H 0.69063 0.12772 0.02199 0.0
C2239 C 0.63701 0.13413 0.95104 0.0
H2240 H 0.62358 0.13642 0.02199 0.0
C2241 C 0.67713 0.12985 0.95104 0.0
C2242 C 0.69811 0.12764 0.97647 0.0
H2243 H 0.62247 0.13543 0.93096 0.0
H2244 H 0.69166 0.12849 0.93096 0.0
C2245 C 0.6769 0.12978 0.00172 0.0
C2246 C 0.17675 0.62988 0.00193 0.0
C2247 C 0.19796 0.62777 0.97668 0.0
H2248 H 0.12343 0.63651 0.02221 0.0
C2249 C 0.177 0.63002 0.95126 0.0
H2250 H 0.19048 0.62777 0.0222 0.0
C2251 C 0.13688 0.63432 0.95126 0.0
C2252 C 0.11593 0.63656 0.97669 0.0
H2253 H 0.19153 0.6287 0.93117 0.0
H2254 H 0.12235 0.63567 0.93118 0.0
C2255 C 0.13715 0.63442 0.00194 0.0
C2256 C 0.42718 0.88442 0.75185 0.0
C2257 C 0.44839 0.88657 0.72659 0.0
H2258 H 0.37388 0.87773 0.77212 0.0
C2259 C 0.42743 0.88432 0.70117 0.0
H2260 H 0.44091 0.88651 0.77211 0.0
C2261 C 0.38732 0.88 0.70117 0.0
C2262 C 0.36637 0.87772 0.7266 0.0
H2263 H 0.44195 0.88568 0.68109 0.0
H2264 H 0.37278 0.87867 0.68109 0.0
C2265 C 0.38759 0.87985 0.75185 0.0
C2266 C 0.88719 0.38017 0.7518 0.0
C2267 C 0.86594 0.37811 0.72656 0.0
H2268 H 0.94055 0.38673 0.77206 0.0
C2269 C 0.88688 0.3804 0.70113 0.0
H2270 H 0.87348 0.37805 0.77207 0.0
C2271 C 0.92701 0.38467 0.70112 0.0
C2272 C 0.948 0.38685 0.72654 0.0
H2273 H 0.87233 0.37911 0.68105 0.0
H2274 H 0.94152 0.38603 0.68103 0.0
C2275 C 0.9268 0.38469 0.7518 0.0
C2276 C 0.38656 0.38398 0.53894 0.0
C2277 C 0.36562 0.38626 0.5135 0.0
H2278 H 0.44119 0.37832 0.55904 0.0
C2279 C 0.38686 0.38416 0.48826 0.0
H2280 H 0.37201 0.38529 0.55901 0.0
C2281 C 0.42646 0.37961 0.48827 0.0
C2282 C 0.44766 0.37746 0.51353 0.0
H2283 H 0.37316 0.38628 0.46799 0.0
H2284 H 0.4402 0.37754 0.46801 0.0
C2285 C 0.42667 0.37968 0.53895 0.0
C2286 C 0.92685 0.87983 0.48833 0.0
C2287 C 0.94808 0.87776 0.51358 0.0
H2288 H 0.8735 0.88638 0.46805 0.0
C2289 C 0.92712 0.88 0.539 0.0
H2290 H 0.94057 0.87774 0.46806 0.0
C2291 C 0.88698 0.88424 0.539 0.0
C2292 C 0.86601 0.88644 0.51357 0.0
H2293 H 0.94166 0.8787 0.55908 0.0
H2294 H 0.87246 0.88558 0.55908 0.0
C2295 C 0.88723 0.88432 0.48832 0.0
C2296 C 0.63693 0.12994 0.28891 0.0
C2297 C 0.61595 0.12771 0.26349 0.0
H2298 H 0.69159 0.13553 0.30898 0.0
C2299 C 0.63716 0.12984 0.23823 0.0
H2300 H 0.6224 0.1286 0.309 0.0
C2301 C 0.67676 0.13436 0.23822 0.0
C2302 C 0.698 0.13646 0.26347 0.0
H2303 H 0.62342 0.12776 0.21797 0.0
H2304 H 0.69048 0.13646 0.21795 0.0
C2305 C 0.67705 0.13421 0.2889 0.0
C2306 C 0.13694 0.62976 0.23836 0.0
C2307 C 0.11573 0.6276 0.26361 0.0
H2308 H 0.19026 0.63643 0.21809 0.0
C2309 C 0.13671 0.62981 0.28904 0.0
H2310 H 0.12321 0.6277 0.21809 0.0
C2311 C 0.17683 0.6341 0.28904 0.0
C2312 C 0.19778 0.63638 0.26361 0.0
H2313 H 0.12219 0.62844 0.30912 0.0
H2314 H 0.19137 0.6354 0.30912 0.0
C2315 C 0.17654 0.6343 0.23836 0.0
C2316 C 0.6772 0.63017 0.4512 0.0
C2317 C 0.69816 0.62791 0.47663 0.0
H2318 H 0.62256 0.63579 0.43112 0.0
C2319 C 0.67693 0.63002 0.50188 0.0
H2320 H 0.69174 0.62884 0.43112 0.0
C2321 C 0.63733 0.63455 0.50188 0.0
C2322 C 0.61612 0.63668 0.47663 0.0
H2323 H 0.69066 0.62792 0.52215 0.0
H2324 H 0.6236 0.63664 0.52215 0.0
C2325 C 0.63708 0.63445 0.4512 0.0
C2326 C 0.13727 0.13434 0.45109 0.0
C2327 C 0.1163 0.1366 0.47651 0.0
H2328 H 0.19192 0.1287 0.43102 0.0
C2329 C 0.13751 0.13449 0.50177 0.0
H2330 H 0.12274 0.13567 0.43101 0.0
C2331 C 0.17711 0.12995 0.50178 0.0
C2332 C 0.19834 0.12781 0.47654 0.0
H2333 H 0.12378 0.1366 0.52203 0.0
H2334 H 0.19083 0.12786 0.52205 0.0
C2335 C 0.17739 0.13004 0.4511 0.0
loop_
_geom_bond_atom_site_label_1
_geom_bond_atom_site_label_2
_geom_bond_distance
_geom_bond_site_symmetry_2
_ccdc_geom_bond_type
C0 C1 1.443 . S
C0 N4 1.376 . S
C0 C38 1.389 . S
C1 C0 1.443 . S
C1 C2 1.340 . S
C1 H41 0.951 . S
C2 C1 1.340 . S
C2 C3 1.439 . S
C2 H42 0.950 . S
C3 C2 1.439 . S
C3 N4 1.374 . S
C3 C37 1.395 . S
N4 C0 1.376 . S
N4 C3 1.374 . S
N4 Co5 2.008 . S
Co5 N4 2.008 . S
Co5 N6 1.995 . S
Co5 N11 2.008 . S
Co5 N16 1.995 . S
Co5 N21 2.282 . S
Co5 N27 2.282 . S
N6 Co5 1.995 . S
N6 C7 1.376 . S
N6 C10 1.383 . S
C7 N6 1.376 . S
C7 C8 1.446 . S
C7 C37 1.391 . S
C8 C7 1.446 . S
C8 C9 1.339 . S
C8 H43 0.949 . S
C9 C8 1.339 . S
C9 C10 1.439 . S
C9 H44 0.950 . S
C10 N6 1.383 . S
C10 C9 1.439 . S
C10 C39 1.392 . S
N11 Co5 2.008 . S
N11 C12 1.376 . S
N11 C15 1.374 . S
C12 N11 1.376 . S
C12 C13 1.443 . S
C12 C39 1.389 . S
C13 C12 1.443 . S
C13 C14 1.340 . S
C13 H45 0.951 . S
C14 C13 1.340 . S
C14 C15 1.439 . S
C14 H46 0.950 . S
C15 N11 1.374 . S
C15 C14 1.439 . S
C15 C40 1.395 . S
N16 Co5 1.995 . S
N16 C17 1.376 . S
N16 C20 1.383 . S
C17 N16 1.376 . S
C17 C18 1.446 . S
C17 C40 1.391 . S
C18 C17 1.446 . S
C18 C19 1.339 . S
C18 H47 0.949 . S
C19 C18 1.339 . S
C19 C20 1.439 . S
C19 H48 0.950 . S
C20 N16 1.383 . S
C20 C19 1.439 . S
C20 C38 1.392 . S
N21 Co5 2.282 . S
N21 C24 1.332 . S
N21 C26 1.332 . S
C22 C23 1.386 . S
C22 C25 1.388 . S
C23 C22 1.386 . S
C23 C24 1.382 . S
C23 H49 0.950 . S
C24 N21 1.332 . S
C24 C23 1.382 . S
C24 H35 0.952 . S
C25 C22 1.388 . S
C25 C26 1.382 . S
C25 H50 0.950 . S
C26 N21 1.332 . S
C26 C25 1.382 . S
C26 H36 0.948 . S
N27 Co5 2.282 . S
N27 C31 1.332 . S
N27 C32 1.332 . S
C28 C29 1.388 . S
C28 C32 1.382 . S
C28 H51 0.950 . S
C29 C28 1.388 . S
C29 C30 1.386 . S
C30 C29 1.386 . S
C30 C31 1.382 . S
C30 H52 0.950 . S
C31 N27 1.332 . S
C31 C30 1.382 . S
C31 H33 0.952 . S
C32 N27 1.332 . S
C32 C28 1.382 . S
C32 H34 0.948 . S
H33 C31 0.952 . S
H34 C32 0.948 . S
H35 C24 0.952 . S
H36 C26 0.948 . S
C37 C3 1.395 . S
C37 C7 1.391 . S
C38 C0 1.389 . S
C38 C20 1.392 . S
C39 C10 1.392 . S
C39 C12 1.389 . S
C40 C15 1.395 . S
C40 C17 1.391 . S
H41 C1 0.951 . S
H42 C2 0.950 . S
H43 C8 0.949 . S
H44 C9 0.950 . S
H45 C13 0.951 . S
H46 C14 0.950 . S
H47 C18 0.949 . S
H48 C19 0.950 . S
H49 C23 0.950 . S
H50 C25 0.950 . S
H51 C28 0.950 . S
H52 C30 0.950 . S
C53 C54 1.443 . S
C53 N57 1.376 . S
C53 C91 1.389 . S
C54 C53 1.443 . S
C54 C55 1.340 . S
C54 H94 0.951 . S
C55 C54 1.340 . S
C55 C56 1.439 . S
C55 H95 0.950 . S
C56 C55 1.439 . S
C56 N57 1.374 . S
C56 C90 1.395 . S
N57 C53 1.376 . S
N57 C56 1.374 . S
N57 Co58 2.008 . S
Co58 N57 2.008 . S
Co58 N59 1.995 . S
Co58 N64 2.008 . S
Co58 N69 1.995 . S
Co58 N74 2.282 . S
Co58 N80 2.282 . S
N59 Co58 1.995 . S
N59 C60 1.376 . S
N59 C63 1.383 . S
C60 N59 1.376 . S
C60 C61 1.446 . S
C60 C90 1.391 . S
C61 C60 1.446 . S
C61 C62 1.339 . S
C61 H96 0.949 . S
C62 C61 1.339 . S
C62 C63 1.439 . S
C62 H97 0.950 . S
C63 N59 1.383 . S
C63 C62 1.439 . S
C63 C92 1.392 . S
N64 Co58 2.008 . S
N64 C65 1.376 . S
N64 C68 1.374 . S
C65 N64 1.376 . S
C65 C66 1.443 . S
C65 C92 1.389 . S
C66 C65 1.443 . S
C66 C67 1.340 . S
C66 H98 0.951 . S
C67 C66 1.340 . S
C67 C68 1.439 . S
C67 H99 0.950 1_565 S
C68 N64 1.374 . S
C68 C67 1.439 . S
C68 C93 1.395 . S
N69 Co58 1.995 . S
N69 C70 1.376 . S
N69 C73 1.383 . S
C70 N69 1.376 . S
C70 C71 1.446 . S
C70 C93 1.391 . S
C71 C70 1.446 . S
C71 C72 1.339 . S
C71 H100 0.949 . S
C72 C71 1.339 . S
C72 C73 1.439 . S
C72 H101 0.950 . S
C73 N69 1.383 . S
C73 C72 1.439 . S
C73 C91 1.392 . S
N74 Co58 2.282 . S
N74 C77 1.332 . S
N74 C79 1.332 . S
C75 C76 1.386 . S
C75 C78 1.388 . S
C76 C75 1.386 . S
C76 C77 1.382 . S
C76 H102 0.950 . S
C77 N74 1.332 . S
C77 C76 1.382 . S
C77 H88 0.952 . S
C78 C75 1.388 . S
C78 C79 1.382 . S
C78 H103 0.950 . S
C79 N74 1.332 . S
C79 C78 1.382 . S
C79 H89 0.948 . S
N80 Co58 2.282 . S
N80 C84 1.332 . S
N80 C85 1.332 1_455 S
C81 C82 1.388 . S
C81 C85 1.382 . S
C81 H104 0.950 . S
C82 C81 1.388 . S
C82 C83 1.386 . S
C83 C82 1.386 . S
C83 C84 1.382 1_655 S
C83 H105 0.950 . S
C84 N80 1.332 . S
C84 C83 1.382 1_455 S
C84 H86 0.952 . S
C85 N80 1.332 1_655 S
C85 C81 1.382 . S
C85 H87 0.948 . S
H86 C84 0.952 . S
H87 C85 0.948 . S
H88 C77 0.952 . S
H89 C79 0.948 . S
C90 C56 1.395 . S
C90 C60 1.391 . S
C91 C53 1.389 . S
C91 C73 1.392 . S
C92 C63 1.392 . S
C92 C65 1.389 . S
C93 C68 1.395 . S
C93 C70 1.391 . S
H94 C54 0.951 . S
H95 C55 0.950 . S
H96 C61 0.949 . S
H97 C62 0.950 . S
H98 C66 0.951 . S
H99 C67 0.950 1_545 S
H100 C71 0.949 . S
H101 C72 0.950 . S
H102 C76 0.950 . S
H103 C78 0.950 . S
H104 C81 0.950 . S
H105 C83 0.950 . S
C106 C107 1.443 . S
C106 N110 1.376 . S
C106 C144 1.389 . S
C107 C106 1.443 . S
C107 C108 1.340 . S
C107 H147 0.951 . S
C108 C107 1.340 . S
C108 C109 1.439 . S
C108 H148 0.950 . S
C109 C108 1.439 . S
C109 N110 1.374 . S
C109 C143 1.395 1_556 S
N110 C106 1.376 . S
N110 C109 1.374 . S
N110 Co111 2.008 . S
Co111 N110 2.008 . S
Co111 N112 1.995 1_556 S
Co111 N117 2.008 1_556 S
Co111 N122 1.995 . S
Co111 N127 2.282 . S
Co111 N133 2.282 . S
N112 Co111 1.995 1_554 S
N112 C113 1.376 . S
N112 C116 1.383 . S
C113 N112 1.376 . S
C113 C114 1.446 . S
C113 C143 1.391 . S
C114 C113 1.446 . S
C114 C115 1.339 . S
C114 H149 0.949 . S
C115 C114 1.339 . S
C115 C116 1.439 . S
C115 H150 0.950 . S
C116 N112 1.383 . S
C116 C115 1.439 . S
C116 C145 1.392 . S
N117 Co111 2.008 1_554 S
N117 C118 1.376 . S
N117 C121 1.374 . S
C118 N117 1.376 . S
C118 C119 1.443 . S
C118 C145 1.389 . S
C119 C118 1.443 . S
C119 C120 1.340 . S
C119 H151 0.951 . S
C120 C119 1.340 . S
C120 C121 1.439 . S
C120 H152 0.950 1_565 S
C121 N117 1.374 . S
C121 C120 1.439 . S
C121 C146 1.395 1_554 S
N122 Co111 1.995 . S
N122 C123 1.376 . S
N122 C126 1.383 . S
C123 N122 1.376 . S
C123 C124 1.446 . S
C123 C146 1.391 . S
C124 C123 1.446 . S
C124 C125 1.339 . S
C124 H153 0.949 . S
C125 C124 1.339 . S
C125 C126 1.439 . S
C125 H154 0.950 . S
C126 N122 1.383 . S
C126 C125 1.439 . S
C126 C144 1.392 . S
N127 Co111 2.282 . S
N127 C130 1.332 . S
N127 C132 1.332 1_556 S
C128 C129 1.386 . S
C128 C131 1.388 1_556 S
C129 C128 1.386 . S
C129 C130 1.382 . S
C129 H155 0.950 . S
C130 N127 1.332 . S
C130 C129 1.382 . S
C130 H141 0.952 . S
C131 C128 1.388 1_554 S
C131 C132 1.382 . S
C131 H156 0.950 . S
C132 N127 1.332 1_554 S
C132 C131 1.382 . S
C132 H142 0.948 . S
N133 Co111 2.282 . S
N133 C137 1.332 1_556 S
N133 C138 1.332 . S
C134 C135 1.388 . S
C134 C138 1.382 . S
C134 H157 0.950 . S
C135 C134 1.388 . S
C135 C136 1.386 1_556 S
C136 C135 1.386 1_554 S
C136 C137 1.382 . S
C136 H158 0.950 . S
C137 N133 1.332 1_554 S
C137 C136 1.382 . S
C137 H139 0.952 . S
C138 N133 1.332 . S
C138 C134 1.382 . S
C138 H140 0.948 . S
H139 C137 0.952 . S
H140 C138 0.948 . S
H141 C130 0.952 . S
H142 C132 0.948 . S
C143 C109 1.395 1_554 S
C143 C113 1.391 . S
C144 C106 1.389 . S
C144 C126 1.392 . S
C145 C116 1.392 . S
C145 C118 1.389 . S
C146 C121 1.395 1_556 S
C146 C123 1.391 . S
H147 C107 0.951 . S
H148 C108 0.950 . S
H149 C114 0.949 . S
H150 C115 0.950 . S
H151 C119 0.951 . S
H152 C120 0.950 1_545 S
H153 C124 0.949 . S
H154 C125 0.950 . S
H155 C129 0.950 . S
H156 C131 0.950 . S
H157 C134 0.950 . S
H158 C136 0.950 . S
C159 C160 1.443 . S
C159 N163 1.376 . S
C159 C197 1.389 . S
C160 C159 1.443 . S
C160 C161 1.340 . S
C160 H200 0.951 . S
C161 C160 1.340 . S
C161 C162 1.439 . S
C161 H201 0.950 . S
C162 C161 1.439 . S
C162 N163 1.374 . S
C162 C196 1.395 1_556 S
N163 C159 1.376 . S
N163 C162 1.374 . S
N163 Co164 2.008 . S
Co164 N163 2.008 . S
Co164 N165 1.995 1_556 S
Co164 N170 2.008 1_556 S
Co164 N175 1.995 . S
Co164 N180 2.282 . S
Co164 N186 2.282 . S
N165 Co164 1.995 1_554 S
N165 C166 1.376 . S
N165 C169 1.383 . S
C166 N165 1.376 . S
C166 C167 1.446 . S
C166 C196 1.391 . S
C167 C166 1.446 . S
C167 C168 1.339 . S
C167 H202 0.949 . S
C168 C167 1.339 . S
C168 C169 1.439 . S
C168 H203 0.950 . S
C169 N165 1.383 . S
C169 C168 1.439 . S
C169 C198 1.392 . S
N170 Co164 2.008 1_554 S
N170 C171 1.376 . S
N170 C174 1.374 . S
C171 N170 1.376 . S
C171 C172 1.443 . S
C171 C198 1.389 . S
C172 C171 1.443 . S
C172 C173 1.340 . S
C172 H204 0.951 . S
C173 C172 1.340 . S
C173 C174 1.439 . S
C173 H205 0.950 . S
C174 N170 1.374 . S
C174 C173 1.439 . S
C174 C199 1.395 1_554 S
N175 Co164 1.995 . S
N175 C176 1.376 . S
N175 C179 1.383 . S
C176 N175 1.376 . S
C176 C177 1.446 . S
C176 C199 1.391 . S
C177 C176 1.446 . S
C177 C178 1.339 . S
C177 H206 0.949 . S
C178 C177 1.339 . S
C178 C179 1.439 . S
C178 H207 0.950 . S
C179 N175 1.383 . S
C179 C178 1.439 . S
C179 C197 1.392 . S
N180 Co164 2.282 . S
N180 C183 1.332 . S
N180 C185 1.332 1_556 S
C181 C182 1.386 . S
C181 C184 1.388 1_556 S
C182 C181 1.386 . S
C182 C183 1.382 . S
C182 H208 0.950 . S
C183 N180 1.332 . S
C183 C182 1.382 . S
C183 H194 0.952 . S
C184 C181 1.388 1_554 S
C184 C185 1.382 . S
C184 H209 0.950 . S
C185 N180 1.332 1_554 S
C185 C184 1.382 . S
C185 H195 0.948 . S
N186 Co164 2.282 . S
N186 C190 1.332 1_556 S
N186 C191 1.332 1_455 S
C187 C188 1.388 . S
C187 C191 1.382 . S
C187 H210 0.950 . S
C188 C187 1.388 . S
C188 C189 1.386 1_556 S
C189 C188 1.386 1_554 S
C189 C190 1.382 1_655 S
C189 H211 0.950 . S
C190 N186 1.332 1_554 S
C190 C189 1.382 1_455 S
C190 H192 0.952 . S
C191 N186 1.332 1_655 S
C191 C187 1.382 . S
C191 H193 0.948 . S
H192 C190 0.952 . S
H193 C191 0.948 . S
H194 C183 0.952 . S
H195 C185 0.948 . S
C196 C162 1.395 1_554 S
C196 C166 1.391 . S
C197 C159 1.389 . S
C197 C179 1.392 . S
C198 C169 1.392 . S
C198 C171 1.389 . S
C199 C174 1.395 1_556 S
C199 C176 1.391 . S
H200 C160 0.951 . S
H201 C161 0.950 . S
H202 C167 0.949 . S
H203 C168 0.950 . S
H204 C172 0.951 . S
H205 C173 0.950 . S
H206 C177 0.949 . S
H207 C178 0.950 . S
H208 C182 0.950 . S
H209 C184 0.950 . S
H210 C187 0.950 . S
H211 C189 0.950 . S
C212 C213 1.443 . S
C212 N216 1.376 . S
C212 C250 1.389 . S
C213 C212 1.443 . S
C213 C214 1.340 . S
C213 H253 0.951 . S
C214 C213 1.340 . S
C214 C215 1.439 . S
C214 H254 0.950 . S
C215 C214 1.439 . S
C215 N216 1.374 . S
C215 C249 1.395 . S
N216 C212 1.376 . S
N216 C215 1.374 . S
N216 Co217 2.008 . S
Co217 N216 2.008 . S
Co217 N218 1.995 . S
Co217 N223 2.008 . S
Co217 N228 1.995 . S
Co217 N233 2.282 . S
Co217 N239 2.282 . S
N218 Co217 1.995 . S
N218 C219 1.376 . S
N218 C222 1.383 . S
C219 N218 1.376 . S
C219 C220 1.446 . S
C219 C249 1.391 . S
C220 C219 1.446 . S
C220 C221 1.339 . S
C220 H255 0.949 . S
C221 C220 1.339 . S
C221 C222 1.439 . S
C221 H256 0.950 . S
C222 N218 1.383 . S
C222 C221 1.439 . S
C222 C251 1.392 . S
N223 Co217 2.008 . S
N223 C224 1.376 . S
N223 C227 1.374 . S
C224 N223 1.376 . S
C224 C225 1.443 . S
C224 C251 1.389 . S
C225 C224 1.443 . S
C225 C226 1.340 . S
C225 H257 0.951 . S
C226 C225 1.340 . S
C226 C227 1.439 . S
C226 H258 0.950 . S
C227 N223 1.374 . S
C227 C226 1.439 . S
C227 C252 1.395 . S
N228 Co217 1.995 . S
N228 C229 1.376 . S
N228 C232 1.383 . S
C229 N228 1.376 . S
C229 C230 1.446 . S
C229 C252 1.391 . S
C230 C229 1.446 . S
C230 C231 1.339 . S
C230 H259 0.949 . S
C231 C230 1.339 . S
C231 C232 1.439 . S
C231 H260 0.950 . S
C232 N228 1.383 . S
C232 C231 1.439 . S
C232 C250 1.392 . S
N233 Co217 2.282 . S
N233 C236 1.332 . S
N233 C238 1.332 . S
C234 C235 1.386 . S
C234 C237 1.388 . S
C235 C234 1.386 . S
C235 C236 1.382 . S
C235 H261 0.950 . S
C236 N233 1.332 . S
C236 C235 1.382 . S
C236 H247 0.952 . S
C237 C234 1.388 . S
C237 C238 1.382 . S
C237 H262 0.950 . S
C238 N233 1.332 . S
C238 C237 1.382 . S
C238 H248 0.948 . S
N239 Co217 2.282 . S
N239 C243 1.332 . S
N239 C244 1.332 . S
C240 C241 1.388 . S
C240 C244 1.382 . S
C240 H263 0.950 . S
C241 C240 1.388 . S
C241 C242 1.386 . S
C242 C241 1.386 . S
C242 C243 1.382 . S
C242 H264 0.950 . S
C243 N239 1.332 . S
C243 C242 1.382 . S
C243 H245 0.952 . S
C244 N239 1.332 . S
C244 C240 1.382 . S
C244 H246 0.948 . S
H245 C243 0.952 . S
H246 C244 0.948 . S
H247 C236 0.952 . S
H248 C238 0.948 . S
C249 C215 1.395 . S
C249 C219 1.391 . S
C250 C212 1.389 . S
C250 C232 1.392 . S
C251 C222 1.392 . S
C251 C224 1.389 . S
C252 C227 1.395 . S
C252 C229 1.391 . S
H253 C213 0.951 . S
H254 C214 0.950 . S
H255 C220 0.949 . S
H256 C221 0.950 . S
H257 C225 0.951 . S
H258 C226 0.950 . S
H259 C230 0.949 . S
H260 C231 0.950 . S
H261 C235 0.950 . S
H262 C237 0.950 . S
H263 C240 0.950 . S
H264 C242 0.950 . S
C265 C266 1.443 . S
C265 N269 1.376 . S
C265 C303 1.389 . S
C266 C265 1.443 . S
C266 C267 1.340 . S
C266 H306 0.951 . S
C267 C266 1.340 . S
C267 C268 1.439 . S
C267 H307 0.950 1_655 S
C268 C267 1.439 . S
C268 N269 1.374 . S
C268 C302 1.395 . S
N269 C265 1.376 . S
N269 C268 1.374 . S
N269 Co270 2.008 . S
Co270 N269 2.008 . S
Co270 N271 1.995 . S
Co270 N276 2.008 . S
Co270 N281 1.995 . S
Co270 N286 2.282 . S
Co270 N292 2.282 . S
N271 Co270 1.995 . S
N271 C272 1.376 . S
N271 C275 1.383 . S
C272 N271 1.376 . S
C272 C273 1.446 . S
C272 C302 1.391 . S
C273 C272 1.446 . S
C273 C274 1.339 . S
C273 H308 0.959 . S
C274 C273 1.339 . S
C274 C275 1.439 . S
C274 H309 0.950 . S
C275 N271 1.383 . S
C275 C274 1.439 . S
C275 C304 1.392 . S
N276 Co270 2.008 . S
N276 C277 1.376 . S
N276 C280 1.374 . S
C277 N276 1.376 . S
C277 C278 1.443 . S
C277 C304 1.389 . S
C278 C277 1.443 . S
C278 C279 1.340 . S
C278 H310 0.951 . S
C279 C278 1.340 . S
C279 C280 1.439 . S
C279 H311 0.950 . S
C280 N276 1.374 . S
C280 C279 1.439 . S
C280 C305 1.395 . S
N281 Co270 1.995 . S
N281 C282 1.376 . S
N281 C285 1.383 . S
C282 N281 1.376 . S
C282 C283 1.446 . S
C282 C305 1.391 . S
C283 C282 1.446 . S
C283 C284 1.339 . S
C283 H312 0.949 . S
C284 C283 1.339 . S
C284 C285 1.439 . S
C284 H313 0.950 . S
C285 N281 1.383 . S
C285 C284 1.439 . S
C285 C303 1.392 . S
N286 Co270 2.282 . S
N286 C289 1.332 . S
N286 C291 1.332 . S
C287 C288 1.386 . S
C287 C290 1.388 . S
C288 C287 1.386 . S
C288 C289 1.382 . S
C288 H314 0.950 . S
C289 N286 1.332 . S
C289 C288 1.382 . S
C289 H300 0.952 . S
C290 C287 1.388 . S
C290 C291 1.382 . S
C290 H315 0.950 . S
C291 N286 1.332 . S
C291 C290 1.382 . S
C291 H301 0.948 . S
N292 Co270 2.282 . S
N292 C296 1.332 1_655 S
N292 C297 1.332 . S
C293 C294 1.388 . S
C293 C297 1.382 1_455 S
C293 H316 0.950 . S
C294 C293 1.388 . S
C294 C295 1.386 . S
C295 C294 1.386 . S
C295 C296 1.382 . S
C295 H317 0.950 . S
C296 N292 1.332 1_455 S
C296 C295 1.382 . S
C296 H298 0.952 . S
C297 N292 1.332 . S
C297 C293 1.382 1_655 S
C297 H299 0.948 . S
H298 C296 0.952 . S
H299 C297 0.948 . S
H300 C289 0.952 . S
H301 C291 0.948 . S
C302 C268 1.395 . S
C302 C272 1.391 . S
C303 C265 1.389 . S
C303 C285 1.392 . S
C304 C275 1.392 . S
C304 C277 1.389 . S
C305 C280 1.395 . S
C305 C282 1.391 . S
H306 C266 0.951 . S
H307 C267 0.950 1_455 S
H308 C273 0.959 . S
H309 C274 0.950 . S
H310 C278 0.951 . S
H311 C279 0.950 . S
H312 C283 0.949 . S
H313 C284 0.950 . S
H314 C288 0.950 . S
H315 C290 0.950 . S
H316 C293 0.950 . S
H317 C295 0.950 . S
C318 C319 1.443 . S
C318 N322 1.376 . S
C318 C356 1.389 . S
C319 C318 1.443 . S
C319 C320 1.340 . S
C319 H359 0.951 . S
C320 C319 1.340 . S
C320 C321 1.439 . S
C320 H360 0.950 . S
C321 C320 1.439 . S
C321 N322 1.374 . S
C321 C355 1.395 . S
N322 C318 1.376 . S
N322 C321 1.374 . S
N322 Co323 2.008 . S
Co323 N322 2.008 . S
Co323 N324 1.995 1_554 S
Co323 N329 2.008 1_554 S
Co323 N334 1.995 . S
Co323 N339 2.282 . S
Co323 N345 2.282 . S
N324 Co323 1.995 1_556 S
N324 C325 1.376 . S
N324 C328 1.383 . S
C325 N324 1.376 . S
C325 C326 1.446 . S
C325 C355 1.391 1_556 S
C326 C325 1.446 . S
C326 C327 1.339 . S
C326 H361 0.959 . S
C327 C326 1.339 . S
C327 C328 1.439 . S
C327 H362 0.950 . S
C328 N324 1.383 . S
C328 C327 1.439 . S
C328 C357 1.392 . S
N329 Co323 2.008 1_556 S
N329 C330 1.376 . S
N329 C333 1.374 . S
C330 N329 1.376 . S
C330 C331 1.443 . S
C330 C357 1.389 . S
C331 C330 1.443 . S
C331 C332 1.340 . S
C331 H363 0.951 . S
C332 C331 1.340 . S
C332 C333 1.439 . S
C332 H364 0.950 . S
C333 N329 1.374 . S
C333 C332 1.439 . S
C333 C358 1.395 . S
N334 Co323 1.995 . S
N334 C335 1.376 . S
N334 C338 1.383 . S
C335 N334 1.376 . S
C335 C336 1.446 . S
C335 C358 1.391 1_554 S
C336 C335 1.446 . S
C336 C337 1.339 . S
C336 H365 0.949 . S
C337 C336 1.339 . S
C337 C338 1.439 . S
C337 H366 0.950 . S
C338 N334 1.383 . S
C338 C337 1.439 . S
C338 C356 1.392 . S
N339 Co323 2.282 . S
N339 C342 1.332 . S
N339 C344 1.332 . S
C340 C341 1.386 . S
C340 C343 1.388 . S
C341 C340 1.386 . S
C341 C342 1.382 . S
C341 H367 0.950 . S
C342 N339 1.332 . S
C342 C341 1.382 . S
C342 H353 0.952 . S
C343 C340 1.388 . S
C343 C344 1.382 . S
C343 H368 0.949 1_554 S
C344 N339 1.332 . S
C344 C343 1.382 . S
C344 H354 0.948 . S
N345 Co323 2.282 . S
N345 C349 1.332 1_554 S
N345 C350 1.332 . S
C346 C347 1.388 . S
C346 C350 1.382 . S
C346 H369 0.950 . S
C347 C346 1.388 . S
C347 C348 1.386 . S
C348 C347 1.386 . S
C348 C349 1.382 1_554 S
C348 H370 0.950 . S
C349 N345 1.332 1_556 S
C349 C348 1.382 1_556 S
C349 H351 0.952 . S
C350 N345 1.332 . S
C350 C346 1.382 . S
C350 H352 0.948 . S
H351 C349 0.952 . S
H352 C350 0.948 . S
H353 C342 0.952 . S
H354 C344 0.948 . S
C355 C321 1.395 . S
C355 C325 1.391 1_554 S
C356 C318 1.389 . S
C356 C338 1.392 . S
C357 C328 1.392 . S
C357 C330 1.389 . S
C358 C333 1.395 . S
C358 C335 1.391 1_556 S
H359 C319 0.951 . S
H360 C320 0.950 . S
H361 C326 0.959 . S
H362 C327 0.950 . S
H363 C331 0.951 . S
H364 C332 0.950 . S
H365 C336 0.949 . S
H366 C337 0.950 . S
H367 C341 0.950 . S
H368 C343 0.949 1_556 S
H369 C346 0.950 . S
H370 C348 0.950 . S
C371 C372 1.443 . S
C371 N375 1.376 . S
C371 C409 1.389 . S
C372 C371 1.443 . S
C372 C373 1.340 . S
C372 H412 0.951 . S
C373 C372 1.340 . S
C373 C374 1.439 . S
C373 H413 0.950 1_655 S
C374 C373 1.439 . S
C374 N375 1.374 . S
C374 C408 1.395 . S
N375 C371 1.376 . S
N375 C374 1.374 . S
N375 Co376 2.008 . S
Co376 N375 2.008 . S
Co376 N377 1.995 1_554 S
Co376 N382 2.008 1_554 S
Co376 N387 1.995 . S
Co376 N392 2.282 . S
Co376 N398 2.282 . S
N377 Co376 1.995 1_556 S
N377 C378 1.376 . S
N377 C381 1.383 . S
C378 N377 1.376 . S
C378 C379 1.446 . S
C378 C408 1.391 1_556 S
C379 C378 1.446 . S
C379 C380 1.339 . S
C379 H414 0.949 . S
C380 C379 1.339 . S
C380 C381 1.439 . S
C380 H415 0.950 . S
C381 N377 1.383 . S
C381 C380 1.439 . S
C381 C410 1.392 . S
N382 Co376 2.008 1_556 S
N382 C383 1.376 . S
N382 C386 1.374 . S
C383 N382 1.376 . S
C383 C384 1.443 . S
C383 C410 1.389 . S
C384 C383 1.443 . S
C384 C385 1.340 . S
C384 H416 0.951 . S
C385 C384 1.340 . S
C385 C386 1.439 . S
C385 H417 0.950 . S
C386 N382 1.374 . S
C386 C385 1.439 . S
C386 C411 1.395 . S
N387 Co376 1.995 . S
N387 C388 1.376 . S
N387 C391 1.383 . S
C388 N387 1.376 . S
C388 C389 1.446 . S
C388 C411 1.391 1_554 S
C389 C388 1.446 . S
C389 C390 1.339 . S
C389 H418 0.949 . S
C390 C389 1.339 . S
C390 C391 1.439 . S
C390 H419 0.950 . S
C391 N387 1.383 . S
C391 C390 1.439 . S
C391 C409 1.392 . S
N392 Co376 2.282 . S
N392 C395 1.332 . S
N392 C397 1.332 . S
C393 C394 1.386 . S
C393 C396 1.388 . S
C394 C393 1.386 . S
C394 C395 1.382 . S
C394 H420 0.950 . S
C395 N392 1.332 . S
C395 C394 1.382 . S
C395 H406 0.952 . S
C396 C393 1.388 . S
C396 C397 1.382 . S
C396 H421 0.949 1_554 S
C397 N392 1.332 . S
C397 C396 1.382 . S
C397 H407 0.948 . S
N398 Co376 2.282 . S
N398 C402 1.332 1_654 S
N398 C403 1.332 . S
C399 C400 1.388 . S
C399 C403 1.382 1_455 S
C399 H422 0.950 . S
C400 C399 1.388 . S
C400 C401 1.386 . S
C401 C400 1.386 . S
C401 C402 1.382 1_554 S
C401 H423 0.950 . S
C402 N398 1.332 1_456 S
C402 C401 1.382 1_556 S
C402 H404 0.952 . S
C403 N398 1.332 . S
C403 C399 1.382 1_655 S
C403 H405 0.948 . S
H404 C402 0.952 . S
H405 C403 0.948 . S
H406 C395 0.952 . S
H407 C397 0.948 . S
C408 C374 1.395 . S
C408 C378 1.391 1_554 S
C409 C371 1.389 . S
C409 C391 1.392 . S
C410 C381 1.392 . S
C410 C383 1.389 . S
C411 C386 1.395 . S
C411 C388 1.391 1_556 S
H412 C372 0.951 . S
H413 C373 0.950 1_455 S
H414 C379 0.949 . S
H415 C380 0.950 . S
H416 C384 0.951 . S
H417 C385 0.950 . S
H418 C389 0.949 . S
H419 C390 0.950 . S
H420 C394 0.950 . S
H421 C396 0.949 1_556 S
H422 C399 0.950 . S
H423 C401 0.950 . S
C424 C425 1.443 . S
C424 N428 1.376 . S
C424 C462 1.389 . S
C425 C424 1.443 . S
C425 C426 1.340 . S
C425 H465 0.951 . S
C426 C425 1.340 . S
C426 C427 1.439 . S
C426 H466 0.950 . S
C427 C426 1.439 . S
C427 N428 1.374 . S
C427 C461 1.395 . S
N428 C424 1.376 . S
N428 C427 1.374 . S
N428 Co429 2.008 . S
Co429 N428 2.008 . S
Co429 N430 1.995 . S
Co429 N435 2.008 . S
Co429 N440 1.995 . S
Co429 N445 2.282 . S
Co429 N451 2.282 . S
N430 Co429 1.995 . S
N430 C431 1.376 . S
N430 C434 1.383 . S
C431 N430 1.376 . S
C431 C432 1.446 . S
C431 C461 1.391 . S
C432 C431 1.446 . S
C432 C433 1.339 . S
C432 H467 0.949 . S
C433 C432 1.339 . S
C433 C434 1.439 . S
C433 H468 0.950 . S
C434 N430 1.383 . S
C434 C433 1.439 . S
C434 C463 1.392 . S
N435 Co429 2.008 . S
N435 C436 1.376 . S
N435 C439 1.374 . S
C436 N435 1.376 . S
C436 C437 1.443 . S
C436 C463 1.389 . S
C437 C436 1.443 . S
C437 C438 1.340 . S
C437 H469 0.951 . S
C438 C437 1.340 . S
C438 C439 1.439 . S
C438 H470 0.950 . S
C439 N435 1.374 . S
C439 C438 1.439 . S
C439 C464 1.395 . S
N440 Co429 1.995 . S
N440 C441 1.376 . S
N440 C444 1.383 . S
C441 N440 1.376 . S
C441 C442 1.446 . S
C441 C464 1.391 . S
C442 C441 1.446 . S
C442 C443 1.339 . S
C442 H471 0.949 . S
C443 C442 1.339 . S
C443 C444 1.439 . S
C443 H472 0.950 . S
C444 N440 1.383 . S
C444 C443 1.439 . S
C444 C462 1.392 . S
N445 Co429 2.282 . S
N445 C448 1.332 . S
N445 C450 1.332 . S
C446 C447 1.386 . S
C446 C449 1.388 . S
C447 C446 1.386 . S
C447 C448 1.382 . S
C447 H473 0.950 . S
C448 N445 1.332 . S
C448 C447 1.382 . S
C448 H459 0.952 . S
C449 C446 1.388 . S
C449 C450 1.382 . S
C449 H474 0.950 . S
C450 N445 1.332 . S
C450 C449 1.382 . S
C450 H460 0.948 . S
N451 Co429 2.282 . S
N451 C455 1.332 . S
N451 C456 1.332 . S
C452 C453 1.388 . S
C452 C456 1.382 . S
C452 H475 0.950 . S
C453 C452 1.388 . S
C453 C454 1.386 . S
C454 C453 1.386 . S
C454 C455 1.382 . S
C454 H476 0.950 . S
C455 N451 1.332 . S
C455 C454 1.382 . S
C455 H457 0.952 . S
C456 N451 1.332 . S
C456 C452 1.382 . S
C456 H458 0.948 . S
H457 C455 0.952 . S
H458 C456 0.948 . S
H459 C448 0.952 . S
H460 C450 0.948 . S
C461 C427 1.395 . S
C461 C431 1.391 . S
C462 C424 1.389 . S
C462 C444 1.392 . S
C463 C434 1.392 . S
C463 C436 1.389 . S
C464 C439 1.395 . S
C464 C441 1.391 . S
H465 C425 0.951 . S
H466 C426 0.950 . S
H467 C432 0.949 . S
H468 C433 0.950 . S
H469 C437 0.951 . S
H470 C438 0.950 . S
H471 C442 0.949 . S
H472 C443 0.950 . S
H473 C447 0.950 . S
H474 C449 0.950 . S
H475 C452 0.950 . S
H476 C454 0.950 . S
C477 C478 1.443 . S
C477 N481 1.376 . S
C477 C515 1.389 . S
C478 C477 1.443 . S
C478 C479 1.340 . S
C478 H518 0.951 . S
C479 C478 1.340 . S
C479 C480 1.439 . S
C479 H519 0.950 . S
C480 C479 1.439 . S
C480 N481 1.374 . S
C480 C514 1.395 . S
N481 C477 1.376 . S
N481 C480 1.374 . S
N481 Co482 2.008 . S
Co482 N481 2.008 . S
Co482 N483 1.995 . S
Co482 N488 2.008 . S
Co482 N493 1.995 . S
Co482 N498 2.282 . S
Co482 N504 2.282 . S
N483 Co482 1.995 . S
N483 C484 1.376 . S
N483 C487 1.383 . S
C484 N483 1.376 . S
C484 C485 1.446 . S
C484 C514 1.391 . S
C485 C484 1.446 . S
C485 C486 1.339 . S
C485 H520 0.949 . S
C486 C485 1.339 . S
C486 C487 1.439 . S
C486 H521 0.950 . S
C487 N483 1.383 . S
C487 C486 1.439 . S
C487 C516 1.392 . S
N488 Co482 2.008 . S
N488 C489 1.376 . S
N488 C492 1.374 . S
C489 N488 1.376 . S
C489 C490 1.443 . S
C489 C516 1.389 . S
C490 C489 1.443 . S
C490 C491 1.340 . S
C490 H522 0.951 . S
C491 C490 1.340 . S
C491 C492 1.439 . S
C491 H523 0.950 . S
C492 N488 1.374 . S
C492 C491 1.439 . S
C492 C517 1.395 . S
N493 Co482 1.995 . S
N493 C494 1.376 . S
N493 C497 1.383 . S
C494 N493 1.376 . S
C494 C495 1.446 . S
C494 C517 1.391 . S
C495 C494 1.446 . S
C495 C496 1.339 . S
C495 H524 0.949 . S
C496 C495 1.339 . S
C496 C497 1.439 . S
C496 H525 0.950 . S
C497 N493 1.383 . S
C497 C496 1.439 . S
C497 C515 1.392 . S
N498 Co482 2.282 . S
N498 C501 1.332 . S
N498 C503 1.332 . S
C499 C500 1.386 . S
C499 C502 1.388 . S
C500 C499 1.386 . S
C500 C501 1.382 . S
C500 H526 0.950 . S
C501 N498 1.332 . S
C501 C500 1.382 . S
C501 H512 0.952 . S
C502 C499 1.388 . S
C502 C503 1.382 . S
C502 H527 0.950 . S
C503 N498 1.332 . S
C503 C502 1.382 . S
C503 H513 0.948 . S
N504 Co482 2.282 . S
N504 C508 1.332 . S
N504 C509 1.332 1_455 S
C505 C506 1.388 . S
C505 C509 1.382 . S
C505 H528 0.950 . S
C506 C505 1.388 . S
C506 C507 1.386 . S
C507 C506 1.386 . S
C507 C508 1.382 1_655 S
C507 H529 0.950 . S
C508 N504 1.332 . S
C508 C507 1.382 1_455 S
C508 H510 0.952 . S
C509 N504 1.332 1_655 S
C509 C505 1.382 . S
C509 H511 0.948 . S
H510 C508 0.952 . S
H511 C509 0.948 . S
H512 C501 0.952 . S
H513 C503 0.948 . S
C514 C480 1.395 . S
C514 C484 1.391 . S
C515 C477 1.389 . S
C515 C497 1.392 . S
C516 C487 1.392 . S
C516 C489 1.389 . S
C517 C492 1.395 . S
C517 C494 1.391 . S
H518 C478 0.951 . S
H519 C479 0.950 . S
H520 C485 0.949 . S
H521 C486 0.950 . S
H522 C490 0.951 . S
H523 C491 0.950 . S
H524 C495 0.949 . S
H525 C496 0.950 . S
H526 C500 0.950 . S
H527 C502 0.950 . S
H528 C505 0.950 . S
H529 C507 0.950 . S
C530 C531 1.443 . S
C530 N534 1.376 . S
C530 C568 1.389 . S
C531 C530 1.443 . S
C531 C532 1.340 . S
C531 H571 0.951 . S
C532 C531 1.340 . S
C532 C533 1.439 . S
C532 H572 0.950 . S
C533 C532 1.439 . S
C533 N534 1.374 . S
C533 C567 1.395 . S
N534 C530 1.376 . S
N534 C533 1.374 . S
N534 Co535 2.008 . S
Co535 N534 2.008 . S
Co535 N536 1.995 . S
Co535 N541 2.008 . S
Co535 N546 1.995 . S
Co535 N551 2.282 . S
Co535 N557 2.282 . S
N536 Co535 1.995 . S
N536 C537 1.376 . S
N536 C540 1.383 . S
C537 N536 1.376 . S
C537 C538 1.446 . S
C537 C567 1.391 . S
C538 C537 1.446 . S
C538 C539 1.339 . S
C538 H573 0.949 . S
C539 C538 1.339 . S
C539 C540 1.439 . S
C539 H574 0.950 . S
C540 N536 1.383 . S
C540 C539 1.439 . S
C540 C569 1.392 . S
N541 Co535 2.008 . S
N541 C542 1.376 . S
N541 C545 1.374 . S
C542 N541 1.376 . S
C542 C543 1.443 . S
C542 C569 1.389 . S
C543 C542 1.443 . S
C543 C544 1.340 . S
C543 H575 0.951 . S
C544 C543 1.340 . S
C544 C545 1.439 . S
C544 H576 0.950 . S
C545 N541 1.374 . S
C545 C544 1.439 . S
C545 C570 1.395 . S
N546 Co535 1.995 . S
N546 C547 1.376 . S
N546 C550 1.383 . S
C547 N546 1.376 . S
C547 C548 1.446 . S
C547 C570 1.391 . S
C548 C547 1.446 . S
C548 C549 1.339 . S
C548 H577 0.949 . S
C549 C548 1.339 . S
C549 C550 1.439 . S
C549 H578 0.950 . S
C550 N546 1.383 . S
C550 C549 1.439 . S
C550 C568 1.392 . S
N551 Co535 2.282 . S
N551 C554 1.332 . S
N551 C556 1.332 . S
C552 C553 1.386 . S
C552 C555 1.388 . S
C553 C552 1.386 . S
C553 C554 1.382 . S
C553 H579 0.950 . S
C554 N551 1.332 . S
C554 C553 1.382 . S
C554 H565 0.952 . S
C555 C552 1.388 . S
C555 C556 1.382 . S
C555 H580 0.950 . S
C556 N551 1.332 . S
C556 C555 1.382 . S
C556 H566 0.948 . S
N557 Co535 2.282 . S
N557 C561 1.332 . S
N557 C562 1.332 . S
C558 C559 1.388 . S
C558 C562 1.382 . S
C558 H581 0.950 . S
C559 C558 1.388 . S
C559 C560 1.386 . S
C560 C559 1.386 . S
C560 C561 1.382 . S
C560 H582 0.950 . S
C561 N557 1.332 . S
C561 C560 1.382 . S
C561 H563 0.952 . S
C562 N557 1.332 . S
C562 C558 1.382 . S
C562 H564 0.948 . S
H563 C561 0.952 . S
H564 C562 0.948 . S
H565 C554 0.952 . S
H566 C556 0.948 . S
C567 C533 1.395 . S
C567 C537 1.391 . S
C568 C530 1.389 . S
C568 C550 1.392 . S
C569 C540 1.392 . S
C569 C542 1.389 . S
C570 C545 1.395 . S
C570 C547 1.391 . S
H571 C531 0.951 . S
H572 C532 0.950 . S
H573 C538 0.949 . S
H574 C539 0.950 . S
H575 C543 0.951 . S
H576 C544 0.950 . S
H577 C548 0.949 . S
H578 C549 0.950 . S
H579 C553 0.950 . S
H580 C555 0.950 . S
H581 C558 0.950 . S
H582 C560 0.950 . S
C583 C584 1.443 . S
C583 N587 1.376 . S
C583 C621 1.389 . S
C584 C583 1.443 . S
C584 C585 1.340 . S
C584 H624 0.951 . S
C585 C584 1.340 . S
C585 C586 1.439 . S
C585 H625 0.950 . S
C586 C585 1.439 . S
C586 N587 1.374 . S
C586 C620 1.395 . S
N587 C583 1.376 . S
N587 C586 1.374 . S
N587 Co588 2.008 . S
Co588 N587 2.008 . S
Co588 N589 1.995 . S
Co588 N594 2.008 . S
Co588 N599 1.995 . S
Co588 N604 2.282 . S
Co588 N610 2.282 . S
N589 Co588 1.995 . S
N589 C590 1.376 . S
N589 C593 1.383 . S
C590 N589 1.376 . S
C590 C591 1.446 . S
C590 C620 1.391 . S
C591 C590 1.446 . S
C591 C592 1.339 . S
C591 H626 0.949 . S
C592 C591 1.339 . S
C592 C593 1.439 . S
C592 H627 0.950 . S
C593 N589 1.383 . S
C593 C592 1.439 . S
C593 C622 1.392 . S
N594 Co588 2.008 . S
N594 C595 1.376 . S
N594 C598 1.374 . S
C595 N594 1.376 . S
C595 C596 1.443 . S
C595 C622 1.389 . S
C596 C595 1.443 . S
C596 C597 1.340 . S
C596 H628 0.951 . S
C597 C596 1.340 . S
C597 C598 1.439 . S
C597 H629 0.950 . S
C598 N594 1.374 . S
C598 C597 1.439 . S
C598 C623 1.395 . S
N599 Co588 1.995 . S
N599 C600 1.376 . S
N599 C603 1.383 . S
C600 N599 1.376 . S
C600 C601 1.446 . S
C600 C623 1.391 . S
C601 C600 1.446 . S
C601 C602 1.339 . S
C601 H630 0.949 . S
C602 C601 1.339 . S
C602 C603 1.439 . S
C602 H631 0.950 . S
C603 N599 1.383 . S
C603 C602 1.439 . S
C603 C621 1.392 . S
N604 Co588 2.282 . S
N604 C607 1.332 . S
N604 C609 1.332 . S
C605 C606 1.386 . S
C605 C608 1.388 . S
C606 C605 1.386 . S
C606 C607 1.382 . S
C606 H632 0.950 . S
C607 N604 1.332 . S
C607 C606 1.382 . S
C607 H618 0.952 . S
C608 C605 1.388 . S
C608 C609 1.382 . S
C608 H633 0.950 . S
C609 N604 1.332 . S
C609 C608 1.382 . S
C609 H619 0.948 . S
N610 Co588 2.282 . S
N610 C614 1.332 . S
N610 C615 1.332 1_455 S
C611 C612 1.388 . S
C611 C615 1.382 . S
C611 H634 0.950 . S
C612 C611 1.388 . S
C612 C613 1.386 . S
C613 C612 1.386 . S
C613 C614 1.382 1_655 S
C613 H635 0.950 . S
C614 N610 1.332 . S
C614 C613 1.382 1_455 S
C614 H616 0.952 . S
C615 N610 1.332 1_655 S
C615 C611 1.382 . S
C615 H617 0.948 . S
H616 C614 0.952 . S
H617 C615 0.948 . S
H618 C607 0.952 . S
H619 C609 0.948 . S
C620 C586 1.395 . S
C620 C590 1.391 . S
C621 C583 1.389 . S
C621 C603 1.392 . S
C622 C593 1.392 . S
C622 C595 1.389 . S
C623 C598 1.395 . S
C623 C600 1.391 . S
H624 C584 0.951 . S
H625 C585 0.950 . S
H626 C591 0.949 . S
H627 C592 0.950 . S
H628 C596 0.951 . S
H629 C597 0.950 . S
H630 C601 0.949 . S
H631 C602 0.950 . S
H632 C606 0.950 . S
H633 C608 0.950 . S
H634 C611 0.950 . S
H635 C613 0.950 . S
C636 C637 1.443 . S
C636 N640 1.376 . S
C636 C674 1.389 . S
C637 C636 1.443 . S
C637 C638 1.340 . S
C637 H677 0.951 . S
C638 C637 1.340 . S
C638 C639 1.439 . S
C638 H678 0.950 . S
C639 C638 1.439 . S
C639 N640 1.374 . S
C639 C673 1.395 . S
N640 C636 1.376 . S
N640 C639 1.374 . S
N640 Co641 2.008 . S
Co641 N640 2.008 . S
Co641 N642 1.995 . S
Co641 N647 2.008 . S
Co641 N652 1.995 . S
Co641 N657 2.282 . S
Co641 N663 2.282 . S
N642 Co641 1.995 . S
N642 C643 1.376 . S
N642 C646 1.383 . S
C643 N642 1.376 . S
C643 C644 1.446 . S
C643 C673 1.391 . S
C644 C643 1.446 . S
C644 C645 1.339 . S
C644 H679 0.949 . S
C645 C644 1.339 . S
C645 C646 1.439 . S
C645 H680 0.950 . S
C646 N642 1.383 . S
C646 C645 1.439 . S
C646 C675 1.392 . S
N647 Co641 2.008 . S
N647 C648 1.376 . S
N647 C651 1.374 . S
C648 N647 1.376 . S
C648 C649 1.443 . S
C648 C675 1.389 . S
C649 C648 1.443 . S
C649 C650 1.340 . S
C649 H681 0.951 . S
C650 C649 1.340 . S
C650 C651 1.439 . S
C650 H682 0.950 . S
C651 N647 1.374 . S
C651 C650 1.439 . S
C651 C676 1.395 . S
N652 Co641 1.995 . S
N652 C653 1.376 . S
N652 C656 1.383 . S
C653 N652 1.376 . S
C653 C654 1.446 . S
C653 C676 1.391 . S
C654 C653 1.446 . S
C654 C655 1.339 . S
C654 H683 0.949 . S
C655 C654 1.339 . S
C655 C656 1.439 . S
C655 H684 0.950 . S
C656 N652 1.383 . S
C656 C655 1.439 . S
C656 C674 1.392 . S
N657 Co641 2.282 . S
N657 C660 1.332 . S
N657 C662 1.332 . S
C658 C659 1.386 . S
C658 C661 1.388 . S
C659 C658 1.386 . S
C659 C660 1.382 . S
C659 H685 0.950 . S
C660 N657 1.332 . S
C660 C659 1.382 . S
C660 H671 0.952 . S
C661 C658 1.388 . S
C661 C662 1.382 . S
C661 H686 0.950 . S
C662 N657 1.332 . S
C662 C661 1.382 . S
C662 H672 0.948 . S
N663 Co641 2.282 . S
N663 C667 1.332 . S
N663 C668 1.332 . S
C664 C665 1.388 . S
C664 C668 1.382 . S
C664 H687 0.950 . S
C665 C664 1.388 . S
C665 C666 1.386 . S
C666 C665 1.386 . S
C666 C667 1.382 . S
C666 H688 0.950 . S
C667 N663 1.332 . S
C667 C666 1.382 . S
C667 H669 0.952 . S
C668 N663 1.332 . S
C668 C664 1.382 . S
C668 H670 0.948 . S
H669 C667 0.952 . S
H670 C668 0.948 . S
H671 C660 0.952 . S
H672 C662 0.948 . S
C673 C639 1.395 . S
C673 C643 1.391 . S
C674 C636 1.389 . S
C674 C656 1.392 . S
C675 C646 1.392 . S
C675 C648 1.389 . S
C676 C651 1.395 . S
C676 C653 1.391 . S
H677 C637 0.951 . S
H678 C638 0.950 . S
H679 C644 0.949 . S
H680 C645 0.950 . S
H681 C649 0.951 . S
H682 C650 0.950 . S
H683 C654 0.949 . S
H684 C655 0.950 . S
H685 C659 0.950 . S
H686 C661 0.950 . S
H687 C664 0.950 . S
H688 C666 0.950 . S
C689 C690 1.443 . S
C689 N693 1.376 . S
C689 C727 1.389 . S
C690 C689 1.443 . S
C690 C691 1.340 . S
C690 H730 0.951 . S
C691 C690 1.340 . S
C691 C692 1.439 . S
C691 H731 0.950 1_655 S
C692 C691 1.439 . S
C692 N693 1.374 . S
C692 C726 1.395 . S
N693 C689 1.376 . S
N693 C692 1.374 . S
N693 Co694 2.008 . S
Co694 N693 2.008 . S
Co694 N695 1.995 . S
Co694 N700 2.008 . S
Co694 N705 1.995 . S
Co694 N710 2.282 . S
Co694 N716 2.282 . S
N695 Co694 1.995 . S
N695 C696 1.376 . S
N695 C699 1.383 . S
C696 N695 1.376 . S
C696 C697 1.446 . S
C696 C726 1.391 . S
C697 C696 1.446 . S
C697 C698 1.339 . S
C697 H732 0.949 . S
C698 C697 1.339 . S
C698 C699 1.439 . S
C698 H733 0.950 . S
C699 N695 1.383 . S
C699 C698 1.439 . S
C699 C728 1.392 . S
N700 Co694 2.008 . S
N700 C701 1.376 . S
N700 C704 1.374 . S
C701 N700 1.376 . S
C701 C702 1.443 . S
C701 C728 1.389 . S
C702 C701 1.443 . S
C702 C703 1.340 . S
C702 H734 0.951 . S
C703 C702 1.340 . S
C703 C704 1.439 . S
C703 H735 0.950 . S
C704 N700 1.374 . S
C704 C703 1.439 . S
C704 C729 1.395 . S
N705 Co694 1.995 . S
N705 C706 1.376 . S
N705 C709 1.383 . S
C706 N705 1.376 . S
C706 C707 1.446 . S
C706 C729 1.391 . S
C707 C706 1.446 . S
C707 C708 1.339 . S
C707 H736 0.949 . S
C708 C707 1.339 . S
C708 C709 1.439 . S
C708 H737 0.950 . S
C709 N705 1.383 . S
C709 C708 1.439 . S
C709 C727 1.392 . S
N710 Co694 2.282 . S
N710 C713 1.332 . S
N710 C715 1.332 . S
C711 C712 1.386 . S
C711 C714 1.388 . S
C712 C711 1.386 . S
C712 C713 1.382 . S
C712 H738 0.950 . S
C713 N710 1.332 . S
C713 C712 1.382 . S
C713 H724 0.952 . S
C714 C711 1.388 . S
C714 C715 1.382 . S
C714 H739 0.950 . S
C715 N710 1.332 . S
C715 C714 1.382 . S
C715 H725 0.948 . S
N716 Co694 2.282 . S
N716 C720 1.332 1_655 S
N716 C721 1.332 . S
C717 C718 1.388 . S
C717 C721 1.382 1_455 S
C717 H740 0.950 . S
C718 C717 1.388 . S
C718 C719 1.386 . S
C719 C718 1.386 . S
C719 C720 1.382 . S
C719 H741 0.950 . S
C720 N716 1.332 1_455 S
C720 C719 1.382 . S
C720 H722 0.952 . S
C721 N716 1.332 . S
C721 C717 1.382 1_655 S
C721 H723 0.948 . S
H722 C720 0.952 . S
H723 C721 0.948 . S
H724 C713 0.952 . S
H725 C715 0.948 . S
C726 C692 1.395 . S
C726 C696 1.391 . S
C727 C689 1.389 . S
C727 C709 1.392 . S
C728 C699 1.392 . S
C728 C701 1.389 . S
C729 C704 1.395 . S
C729 C706 1.391 . S
H730 C690 0.951 . S
H731 C691 0.950 1_455 S
H732 C697 0.949 . S
H733 C698 0.950 . S
H734 C702 0.951 . S
H735 C703 0.950 . S
H736 C707 0.949 . S
H737 C708 0.950 . S
H738 C712 0.950 . S
H739 C714 0.950 . S
H740 C717 0.950 . S
H741 C719 0.950 . S
C742 C743 1.443 . S
C742 N746 1.376 . S
C742 C780 1.389 . S
C743 C742 1.443 . S
C743 C744 1.340 . S
C743 H783 0.951 . S
C744 C743 1.340 . S
C744 C745 1.439 . S
C744 H784 0.950 . S
C745 C744 1.439 . S
C745 N746 1.374 . S
C745 C779 1.395 . S
N746 C742 1.376 . S
N746 C745 1.374 . S
N746 Co747 2.008 . S
Co747 N746 2.008 . S
Co747 N748 1.995 . S
Co747 N753 2.008 . S
Co747 N758 1.995 . S
Co747 N763 2.282 . S
Co747 N769 2.282 . S
N748 Co747 1.995 . S
N748 C749 1.376 . S
N748 C752 1.383 . S
C749 N748 1.376 . S
C749 C750 1.446 . S
C749 C779 1.391 . S
C750 C749 1.446 . S
C750 C751 1.339 . S
C750 H785 0.949 . S
C751 C750 1.339 . S
C751 C752 1.439 . S
C751 H786 0.950 . S
C752 N748 1.383 . S
C752 C751 1.439 . S
C752 C781 1.392 . S
N753 Co747 2.008 . S
N753 C754 1.376 . S
N753 C757 1.374 . S
C754 N753 1.376 . S
C754 C755 1.443 . S
C754 C781 1.389 . S
C755 C754 1.443 . S
C755 C756 1.340 . S
C755 H787 0.951 . S
C756 C755 1.340 . S
C756 C757 1.439 . S
C756 H788 0.950 . S
C757 N753 1.374 . S
C757 C756 1.439 . S
C757 C782 1.395 . S
N758 Co747 1.995 . S
N758 C759 1.376 . S
N758 C762 1.383 . S
C759 N758 1.376 . S
C759 C760 1.446 . S
C759 C782 1.391 . S
C760 C759 1.446 . S
C760 C761 1.339 . S
C760 H789 0.949 . S
C761 C760 1.339 . S
C761 C762 1.439 . S
C761 H790 0.950 . S
C762 N758 1.383 . S
C762 C761 1.439 . S
C762 C780 1.392 . S
N763 Co747 2.282 . S
N763 C766 1.332 . S
N763 C768 1.332 . S
C764 C765 1.386 . S
C764 C767 1.388 . S
C765 C764 1.386 . S
C765 C766 1.382 . S
C765 H791 0.950 . S
C766 N763 1.332 . S
C766 C765 1.382 . S
C766 H777 0.952 . S
C767 C764 1.388 . S
C767 C768 1.382 . S
C767 H792 0.950 . S
C768 N763 1.332 . S
C768 C767 1.382 . S
C768 H778 0.948 . S
N769 Co747 2.282 . S
N769 C773 1.332 . S
N769 C774 1.332 . S
C770 C771 1.388 . S
C770 C774 1.382 . S
C770 H793 0.950 . S
C771 C770 1.388 . S
C771 C772 1.386 . S
C772 C771 1.386 . S
C772 C773 1.382 . S
C772 H794 0.950 . S
C773 N769 1.332 . S
C773 C772 1.382 . S
C773 H775 0.952 . S
C774 N769 1.332 . S
C774 C770 1.382 . S
C774 H776 0.948 . S
H775 C773 0.952 . S
H776 C774 0.948 . S
H777 C766 0.952 . S
H778 C768 0.948 . S
C779 C745 1.395 . S
C779 C749 1.391 . S
C780 C742 1.389 . S
C780 C762 1.392 . S
C781 C752 1.392 . S
C781 C754 1.389 . S
C782 C757 1.395 . S
C782 C759 1.391 . S
H783 C743 0.951 . S
H784 C744 0.950 . S
H785 C750 0.949 . S
H786 C751 0.950 . S
H787 C755 0.951 . S
H788 C756 0.950 . S
H789 C760 0.949 . S
H790 C761 0.950 . S
H791 C765 0.950 . S
H792 C767 0.950 . S
H793 C770 0.950 . S
H794 C772 0.950 . S
C795 C796 1.443 . S
C795 N799 1.376 . S
C795 C833 1.389 . S
C796 C795 1.443 . S
C796 C797 1.340 . S
C796 H836 0.951 . S
C797 C796 1.340 . S
C797 C798 1.439 . S
C797 H837 0.950 1_655 S
C798 C797 1.439 . S
C798 N799 1.374 . S
C798 C832 1.395 . S
N799 C795 1.376 . S
N799 C798 1.374 . S
N799 Co800 2.008 . S
Co800 N799 2.008 . S
Co800 N801 1.995 . S
Co800 N806 2.008 . S
Co800 N811 1.995 . S
Co800 N816 2.282 . S
Co800 N822 2.282 . S
N801 Co800 1.995 . S
N801 C802 1.376 . S
N801 C805 1.383 . S
C802 N801 1.376 . S
C802 C803 1.446 . S
C802 C832 1.391 . S
C803 C802 1.446 . S
C803 C804 1.339 . S
C803 H838 0.949 . S
C804 C803 1.339 . S
C804 C805 1.439 . S
C804 H839 0.950 . S
C805 N801 1.383 . S
C805 C804 1.439 . S
C805 C834 1.392 . S
N806 Co800 2.008 . S
N806 C807 1.376 . S
N806 C810 1.374 . S
C807 N806 1.376 . S
C807 C808 1.443 . S
C807 C834 1.389 . S
C808 C807 1.443 . S
C808 C809 1.340 . S
C808 H840 0.951 . S
C809 C808 1.340 . S
C809 C810 1.439 . S
C809 H841 0.950 . S
C810 N806 1.374 . S
C810 C809 1.439 . S
C810 C835 1.395 . S
N811 Co800 1.995 . S
N811 C812 1.376 . S
N811 C815 1.383 . S
C812 N811 1.376 . S
C812 C813 1.446 . S
C812 C835 1.391 . S
C813 C812 1.446 . S
C813 C814 1.339 . S
C813 H842 0.949 . S
C814 C813 1.339 . S
C814 C815 1.439 . S
C814 H843 0.950 . S
C815 N811 1.383 . S
C815 C814 1.439 . S
C815 C833 1.392 . S
N816 Co800 2.282 . S
N816 C819 1.332 . S
N816 C821 1.332 . S
C817 C818 1.386 . S
C817 C820 1.388 . S
C818 C817 1.386 . S
C818 C819 1.382 . S
C818 H844 0.950 . S
C819 N816 1.332 . S
C819 C818 1.382 . S
C819 H830 0.952 . S
C820 C817 1.388 . S
C820 C821 1.382 . S
C820 H845 0.950 . S
C821 N816 1.332 . S
C821 C820 1.382 . S
C821 H831 0.948 . S
N822 Co800 2.282 . S
N822 C826 1.332 1_655 S
N822 C827 1.332 . S
C823 C824 1.388 . S
C823 C827 1.382 1_455 S
C823 H846 0.950 . S
C824 C823 1.388 . S
C824 C825 1.386 . S
C825 C824 1.386 . S
C825 C826 1.382 . S
C825 H847 0.950 . S
C826 N822 1.332 1_455 S
C826 C825 1.382 . S
C826 H828 0.952 . S
C827 N822 1.332 . S
C827 C823 1.382 1_655 S
C827 H829 0.948 . S
H828 C826 0.952 . S
H829 C827 0.948 . S
H830 C819 0.952 . S
H831 C821 0.948 . S
C832 C798 1.395 . S
C832 C802 1.391 . S
C833 C795 1.389 . S
C833 C815 1.392 . S
C834 C805 1.392 . S
C834 C807 1.389 . S
C835 C810 1.395 . S
C835 C812 1.391 . S
H836 C796 0.951 . S
H837 C797 0.950 1_455 S
H838 C803 0.949 . S
H839 C804 0.950 . S
H840 C808 0.951 . S
H841 C809 0.950 . S
H842 C813 0.949 . S
H843 C814 0.950 . S
H844 C818 0.950 . S
H845 C820 0.950 . S
H846 C823 0.950 . S
H847 C825 0.950 . S
C848 C849 1.443 . S
C848 N852 1.376 . S
C848 C886 1.389 . S
C849 C848 1.443 . S
C849 C850 1.340 . S
C849 H889 0.951 . S
C850 C849 1.340 . S
C850 C851 1.439 . S
C850 H890 0.950 . S
C851 C850 1.439 . S
C851 N852 1.374 . S
C851 C885 1.395 . S
N852 C848 1.376 . S
N852 C851 1.374 . S
N852 Co853 2.008 . S
Co853 N852 2.008 . S
Co853 N854 1.995 . S
Co853 N859 2.008 . S
Co853 N864 1.995 . S
Co853 N869 2.282 . S
Co853 N875 2.282 . S
N854 Co853 1.995 . S
N854 C855 1.376 . S
N854 C858 1.383 . S
C855 N854 1.376 . S
C855 C856 1.446 . S
C855 C885 1.391 . S
C856 C855 1.446 . S
C856 C857 1.339 . S
C856 H891 0.949 . S
C857 C856 1.339 . S
C857 C858 1.439 . S
C857 H892 0.950 . S
C858 N854 1.383 . S
C858 C857 1.439 . S
C858 C887 1.392 . S
N859 Co853 2.008 . S
N859 C860 1.376 . S
N859 C863 1.374 . S
C860 N859 1.376 . S
C860 C861 1.443 . S
C860 C887 1.389 . S
C861 C860 1.443 . S
C861 C862 1.340 . S
C861 H893 0.951 . S
C862 C861 1.340 . S
C862 C863 1.439 . S
C862 H894 0.950 . S
C863 N859 1.374 . S
C863 C862 1.439 . S
C863 C888 1.395 . S
N864 Co853 1.995 . S
N864 C865 1.376 . S
N864 C868 1.383 . S
C865 N864 1.376 . S
C865 C866 1.446 . S
C865 C888 1.391 . S
C866 C865 1.446 . S
C866 C867 1.339 . S
C866 H895 0.949 . S
C867 C866 1.339 . S
C867 C868 1.439 . S
C867 H896 0.950 . S
C868 N864 1.383 . S
C868 C867 1.439 . S
C868 C886 1.392 . S
N869 Co853 2.282 . S
N869 C872 1.332 . S
N869 C874 1.332 . S
C870 C871 1.386 . S
C870 C873 1.388 . S
C871 C870 1.386 . S
C871 C872 1.382 . S
C871 H897 0.950 . S
C872 N869 1.332 . S
C872 C871 1.382 . S
C872 H883 0.952 . S
C873 C870 1.388 . S
C873 C874 1.382 . S
C873 H898 0.950 . S
C874 N869 1.332 . S
C874 C873 1.382 . S
C874 H884 0.948 . S
N875 Co853 2.282 . S
N875 C879 1.332 . S
N875 C880 1.332 . S
C876 C877 1.388 . S
C876 C880 1.382 . S
C876 H899 0.950 . S
C877 C876 1.388 . S
C877 C878 1.386 . S
C878 C877 1.386 . S
C878 C879 1.382 . S
C878 H900 0.950 . S
C879 N875 1.332 . S
C879 C878 1.382 . S
C879 H881 0.952 . S
C880 N875 1.332 . S
C880 C876 1.382 . S
C880 H882 0.948 . S
H881 C879 0.952 . S
H882 C880 0.948 . S
H883 C872 0.952 . S
H884 C874 0.948 . S
C885 C851 1.395 . S
C885 C855 1.391 . S
C886 C848 1.389 . S
C886 C868 1.392 . S
C887 C858 1.392 . S
C887 C860 1.389 . S
C888 C863 1.395 . S
C888 C865 1.391 . S
H889 C849 0.951 . S
H890 C850 0.950 . S
H891 C856 0.949 . S
H892 C857 0.950 . S
H893 C861 0.951 . S
H894 C862 0.950 . S
H895 C866 0.949 . S
H896 C867 0.950 . S
H897 C871 0.950 . S
H898 C873 0.950 . S
H899 C876 0.950 . S
H900 C878 0.950 . S
C901 C902 1.443 . S
C901 N905 1.376 . S
C901 C939 1.389 . S
C902 C901 1.443 . S
C902 C903 1.340 . S
C902 H942 0.951 . S
C903 C902 1.340 . S
C903 C904 1.439 . S
C903 H943 0.950 . S
C904 C903 1.439 . S
C904 N905 1.374 . S
C904 C938 1.395 . S
N905 C901 1.376 . S
N905 C904 1.374 . S
N905 Co906 2.008 . S
Co906 N905 2.008 . S
Co906 N907 1.995 . S
Co906 N912 2.008 . S
Co906 N917 1.995 . S
Co906 N922 2.282 . S
Co906 N928 2.282 . S
N907 Co906 1.995 . S
N907 C908 1.376 . S
N907 C911 1.383 . S
C908 N907 1.376 . S
C908 C909 1.446 . S
C908 C938 1.391 . S
C909 C908 1.446 . S
C909 C910 1.339 . S
C909 H944 0.949 . S
C910 C909 1.339 . S
C910 C911 1.439 . S
C910 H945 0.950 . S
C911 N907 1.383 . S
C911 C910 1.439 . S
C911 C940 1.392 . S
N912 Co906 2.008 . S
N912 C913 1.376 . S
N912 C916 1.374 . S
C913 N912 1.376 . S
C913 C914 1.443 . S
C913 C940 1.389 . S
C914 C913 1.443 . S
C914 C915 1.340 . S
C914 H946 0.951 . S
C915 C914 1.340 . S
C915 C916 1.439 . S
C915 H947 0.950 1_565 S
C916 N912 1.374 . S
C916 C915 1.439 . S
C916 C941 1.395 . S
N917 Co906 1.995 . S
N917 C918 1.376 . S
N917 C921 1.383 . S
C918 N917 1.376 . S
C918 C919 1.446 . S
C918 C941 1.391 . S
C919 C918 1.446 . S
C919 C920 1.339 . S
C919 H948 0.949 . S
C920 C919 1.339 . S
C920 C921 1.439 . S
C920 H949 0.950 . S
C921 N917 1.383 . S
C921 C920 1.439 . S
C921 C939 1.392 . S
N922 Co906 2.282 . S
N922 C925 1.332 . S
N922 C927 1.332 . S
C923 C924 1.386 . S
C923 C926 1.388 . S
C924 C923 1.386 . S
C924 C925 1.382 . S
C924 H950 0.950 . S
C925 N922 1.332 . S
C925 C924 1.382 . S
C925 H936 0.952 . S
C926 C923 1.388 . S
C926 C927 1.382 . S
C926 H951 0.950 . S
C927 N922 1.332 . S
C927 C926 1.382 . S
C927 H937 0.948 . S
N928 Co906 2.282 . S
N928 C932 1.332 . S
N928 C933 1.332 . S
C929 C930 1.388 . S
C929 C933 1.382 . S
C929 H952 0.950 . S
C930 C929 1.388 . S
C930 C931 1.386 . S
C931 C930 1.386 . S
C931 C932 1.382 . S
C931 H953 0.950 . S
C932 N928 1.332 . S
C932 C931 1.382 . S
C932 H934 0.952 . S
C933 N928 1.332 . S
C933 C929 1.382 . S
C933 H935 0.948 . S
H934 C932 0.952 . S
H935 C933 0.948 . S
H936 C925 0.952 . S
H937 C927 0.948 . S
C938 C904 1.395 . S
C938 C908 1.391 . S
C939 C901 1.389 . S
C939 C921 1.392 . S
C940 C911 1.392 . S
C940 C913 1.389 . S
C941 C916 1.395 . S
C941 C918 1.391 . S
H942 C902 0.951 . S
H943 C903 0.950 . S
H944 C909 0.949 . S
H945 C910 0.950 . S
H946 C914 0.951 . S
H947 C915 0.950 1_545 S
H948 C919 0.949 . S
H949 C920 0.950 . S
H950 C924 0.950 . S
H951 C926 0.950 . S
H952 C929 0.950 . S
H953 C931 0.950 . S
C954 C955 1.443 . S
C954 N958 1.376 . S
C954 C992 1.389 . S
C955 C954 1.443 . S
C955 C956 1.340 . S
C955 H995 0.951 . S
C956 C955 1.340 . S
C956 C957 1.439 . S
C956 H996 0.950 . S
C957 C956 1.439 . S
C957 N958 1.374 . S
C957 C991 1.395 . S
N958 C954 1.376 . S
N958 C957 1.374 . S
N958 Co959 2.008 . S
Co959 N958 2.008 . S
Co959 N960 1.995 . S
Co959 N965 2.008 . S
Co959 N970 1.995 . S
Co959 N975 2.282 . S
Co959 N981 2.282 . S
N960 Co959 1.995 . S
N960 C961 1.376 . S
N960 C964 1.383 . S
C961 N960 1.376 . S
C961 C962 1.446 . S
C961 C991 1.391 . S
C962 C961 1.446 . S
C962 C963 1.339 . S
C962 H997 0.949 . S
C963 C962 1.339 . S
C963 C964 1.439 . S
C963 H998 0.950 . S
C964 N960 1.383 . S
C964 C963 1.439 . S
C964 C993 1.392 . S
N965 Co959 2.008 . S
N965 C966 1.376 . S
N965 C969 1.374 . S
C966 N965 1.376 . S
C966 C967 1.443 . S
C966 C993 1.389 . S
C967 C966 1.443 . S
C967 C968 1.340 . S
C967 H999 0.951 . S
C968 C967 1.340 . S
C968 C969 1.439 . S
C968 H1000 0.950 1_565 S
C969 N965 1.374 . S
C969 C968 1.439 . S
C969 C994 1.395 . S
N970 Co959 1.995 . S
N970 C971 1.376 . S
N970 C974 1.383 . S
C971 N970 1.376 . S
C971 C972 1.446 . S
C971 C994 1.391 . S
C972 C971 1.446 . S
C972 C973 1.339 . S
C972 H1001 0.949 . S
C973 C972 1.339 . S
C973 C974 1.439 . S
C973 H1002 0.950 . S
C974 N970 1.383 . S
C974 C973 1.439 . S
C974 C992 1.392 . S
N975 Co959 2.282 . S
N975 C978 1.332 . S
N975 C980 1.332 . S
C976 C977 1.386 . S
C976 C979 1.388 . S
C977 C976 1.386 . S
C977 C978 1.382 . S
C977 H1003 0.950 . S
C978 N975 1.332 . S
C978 C977 1.382 . S
C978 H989 0.952 . S
C979 C976 1.388 . S
C979 C980 1.382 . S
C979 H1004 0.950 . S
C980 N975 1.332 . S
C980 C979 1.382 . S
C980 H990 0.948 . S
N981 Co959 2.282 . S
N981 C985 1.332 . S
N981 C986 1.332 . S
C982 C983 1.388 . S
C982 C986 1.382 . S
C982 H1005 0.950 . S
C983 C982 1.388 . S
C983 C984 1.386 . S
C984 C983 1.386 . S
C984 C985 1.382 . S
C984 H1006 0.950 . S
C985 N981 1.332 . S
C985 C984 1.382 . S
C985 H987 0.952 . S
C986 N981 1.332 . S
C986 C982 1.382 . S
C986 H988 0.948 . S
H987 C985 0.952 . S
H988 C986 0.948 . S
H989 C978 0.952 . S
H990 C980 0.948 . S
C991 C957 1.395 . S
C991 C961 1.391 . S
C992 C954 1.389 . S
C992 C974 1.392 . S
C993 C964 1.392 . S
C993 C966 1.389 . S
C994 C969 1.395 . S
C994 C971 1.391 . S
H995 C955 0.951 . S
H996 C956 0.950 . S
H997 C962 0.949 . S
H998 C963 0.950 . S
H999 C967 0.951 . S
H1000 C968 0.950 1_545 S
H1001 C972 0.949 . S
H1002 C973 0.950 . S
H1003 C977 0.950 . S
H1004 C979 0.950 . S
H1005 C982 0.950 . S
H1006 C984 0.950 . S
C1007 C1008 1.443 . S
C1007 N1011 1.376 . S
C1007 C1045 1.389 . S
C1008 C1007 1.443 . S
C1008 C1009 1.340 . S
C1008 H1048 0.951 . S
C1009 C1008 1.340 . S
C1009 C1010 1.439 . S
C1009 H1049 0.950 . S
C1010 C1009 1.439 . S
C1010 N1011 1.374 . S
C1010 C1044 1.395 . S
N1011 C1007 1.376 . S
N1011 C1010 1.374 . S
N1011 Co1012 2.008 . S
Co1012 N1011 2.008 . S
Co1012 N1013 1.995 . S
Co1012 N1018 2.008 . S
Co1012 N1023 1.995 . S
Co1012 N1028 2.282 . S
Co1012 N1034 2.282 . S
N1013 Co1012 1.995 . S
N1013 C1014 1.376 . S
N1013 C1017 1.383 . S
C1014 N1013 1.376 . S
C1014 C1015 1.446 . S
C1014 C1044 1.391 . S
C1015 C1014 1.446 . S
C1015 C1016 1.339 . S
C1015 H1050 0.949 . S
C1016 C1015 1.339 . S
C1016 C1017 1.439 . S
C1016 H1051 0.950 . S
C1017 N1013 1.383 . S
C1017 C1016 1.439 . S
C1017 C1046 1.392 . S
N1018 Co1012 2.008 . S
N1018 C1019 1.376 . S
N1018 C1022 1.374 . S
C1019 N1018 1.376 . S
C1019 C1020 1.443 . S
C1019 C1046 1.389 . S
C1020 C1019 1.443 . S
C1020 C1021 1.340 . S
C1020 H1052 0.951 . S
C1021 C1020 1.340 . S
C1021 C1022 1.439 . S
C1021 H1053 0.950 . S
C1022 N1018 1.374 . S
C1022 C1021 1.439 . S
C1022 C1047 1.395 . S
N1023 Co1012 1.995 . S
N1023 C1024 1.376 . S
N1023 C1027 1.383 . S
C1024 N1023 1.376 . S
C1024 C1025 1.446 . S
C1024 C1047 1.391 . S
C1025 C1024 1.446 . S
C1025 C1026 1.339 . S
C1025 H1054 0.949 . S
C1026 C1025 1.339 . S
C1026 C1027 1.439 . S
C1026 H1055 0.950 . S
C1027 N1023 1.383 . S
C1027 C1026 1.439 . S
C1027 C1045 1.392 . S
N1028 Co1012 2.282 . S
N1028 C1031 1.332 . S
N1028 C1033 1.332 . S
C1029 C1030 1.386 . S
C1029 C1032 1.388 . S
C1030 C1029 1.386 . S
C1030 C1031 1.382 . S
C1030 H1056 0.950 . S
C1031 N1028 1.332 . S
C1031 C1030 1.382 . S
C1031 H1042 0.952 . S
C1032 C1029 1.388 . S
C1032 C1033 1.382 . S
C1032 H1057 0.950 . S
C1033 N1028 1.332 . S
C1033 C1032 1.382 . S
C1033 H1043 0.948 . S
N1034 Co1012 2.282 . S
N1034 C1038 1.332 . S
N1034 C1039 1.332 . S
C1035 C1036 1.388 . S
C1035 C1039 1.382 . S
C1035 H1058 0.950 . S
C1036 C1035 1.388 . S
C1036 C1037 1.386 . S
C1037 C1036 1.386 . S
C1037 C1038 1.382 . S
C1037 H1059 0.950 . S
C1038 N1034 1.332 . S
C1038 C1037 1.382 . S
C1038 H1040 0.952 . S
C1039 N1034 1.332 . S
C1039 C1035 1.382 . S
C1039 H1041 0.948 . S
H1040 C1038 0.952 . S
H1041 C1039 0.948 . S
H1042 C1031 0.952 . S
H1043 C1033 0.948 . S
C1044 C1010 1.395 . S
C1044 C1014 1.391 . S
C1045 C1007 1.389 . S
C1045 C1027 1.392 . S
C1046 C1017 1.392 . S
C1046 C1019 1.389 . S
C1047 C1022 1.395 . S
C1047 C1024 1.391 . S
H1048 C1008 0.951 . S
H1049 C1009 0.950 . S
H1050 C1015 0.949 . S
H1051 C1016 0.950 . S
H1052 C1020 0.951 . S
H1053 C1021 0.950 . S
H1054 C1025 0.949 . S
H1055 C1026 0.950 . S
H1056 C1030 0.950 . S
H1057 C1032 0.950 . S
H1058 C1035 0.950 . S
H1059 C1037 0.950 . S
C1060 C1061 1.443 . S
C1060 N1064 1.376 . S
C1060 C1098 1.389 . S
C1061 C1060 1.443 . S
C1061 C1062 1.340 . S
C1061 H1101 0.951 . S
C1062 C1061 1.340 . S
C1062 C1063 1.439 . S
C1062 H1102 0.950 . S
C1063 C1062 1.439 . S
C1063 N1064 1.374 . S
C1063 C1097 1.395 . S
N1064 C1060 1.376 . S
N1064 C1063 1.374 . S
N1064 Co1065 2.008 . S
Co1065 N1064 2.008 . S
Co1065 N1066 1.995 . S
Co1065 N1071 2.008 . S
Co1065 N1076 1.995 . S
Co1065 N1081 2.282 . S
Co1065 N1087 2.282 . S
N1066 Co1065 1.995 . S
N1066 C1067 1.376 . S
N1066 C1070 1.383 . S
C1067 N1066 1.376 . S
C1067 C1068 1.446 . S
C1067 C1097 1.391 . S
C1068 C1067 1.446 . S
C1068 C1069 1.339 . S
C1068 H1103 0.949 . S
C1069 C1068 1.339 . S
C1069 C1070 1.439 . S
C1069 H1104 0.950 . S
C1070 N1066 1.383 . S
C1070 C1069 1.439 . S
C1070 C1099 1.392 . S
N1071 Co1065 2.008 . S
N1071 C1072 1.376 . S
N1071 C1075 1.374 . S
C1072 N1071 1.376 . S
C1072 C1073 1.443 . S
C1072 C1099 1.389 . S
C1073 C1072 1.443 . S
C1073 C1074 1.340 . S
C1073 H1105 0.951 . S
C1074 C1073 1.340 . S
C1074 C1075 1.439 . S
C1074 H1106 0.950 . S
C1075 N1071 1.374 . S
C1075 C1074 1.439 . S
C1075 C1100 1.395 . S
N1076 Co1065 1.995 . S
N1076 C1077 1.376 . S
N1076 C1080 1.383 . S
C1077 N1076 1.376 . S
C1077 C1078 1.446 . S
C1077 C1100 1.391 . S
C1078 C1077 1.446 . S
C1078 C1079 1.339 . S
C1078 H1107 0.949 . S
C1079 C1078 1.339 . S
C1079 C1080 1.439 . S
C1079 H1108 0.950 . S
C1080 N1076 1.383 . S
C1080 C1079 1.439 . S
C1080 C1098 1.392 . S
N1081 Co1065 2.282 . S
N1081 C1084 1.332 . S
N1081 C1086 1.332 . S
C1082 C1083 1.386 . S
C1082 C1085 1.388 . S
C1083 C1082 1.386 . S
C1083 C1084 1.382 . S
C1083 H1109 0.950 . S
C1084 N1081 1.332 . S
C1084 C1083 1.382 . S
C1084 H1095 0.952 . S
C1085 C1082 1.388 . S
C1085 C1086 1.382 . S
C1085 H1110 0.950 . S
C1086 N1081 1.332 . S
C1086 C1085 1.382 . S
C1086 H1096 0.948 . S
N1087 Co1065 2.282 . S
N1087 C1091 1.332 . S
N1087 C1092 1.332 . S
C1088 C1089 1.388 . S
C1088 C1092 1.382 . S
C1088 H1111 0.950 . S
C1089 C1088 1.388 . S
C1089 C1090 1.386 . S
C1090 C1089 1.386 . S
C1090 C1091 1.382 . S
C1090 H1112 0.950 . S
C1091 N1087 1.332 . S
C1091 C1090 1.382 . S
C1091 H1093 0.952 . S
C1092 N1087 1.332 . S
C1092 C1088 1.382 . S
C1092 H1094 0.948 . S
H1093 C1091 0.952 . S
H1094 C1092 0.948 . S
H1095 C1084 0.952 . S
H1096 C1086 0.948 . S
C1097 C1063 1.395 . S
C1097 C1067 1.391 . S
C1098 C1060 1.389 . S
C1098 C1080 1.392 . S
C1099 C1070 1.392 . S
C1099 C1072 1.389 . S
C1100 C1075 1.395 . S
C1100 C1077 1.391 . S
H1101 C1061 0.951 . S
H1102 C1062 0.950 . S
H1103 C1068 0.949 . S
H1104 C1069 0.950 . S
H1105 C1073 0.951 . S
H1106 C1074 0.950 . S
H1107 C1078 0.949 . S
H1108 C1079 0.950 . S
H1109 C1083 0.950 . S
H1110 C1085 0.950 . S
H1111 C1088 0.950 . S
H1112 C1090 0.950 . S
C1113 C1114 1.443 . S
C1113 N1117 1.376 . S
C1113 C1151 1.389 . S
C1114 C1113 1.443 . S
C1114 C1115 1.340 . S
C1114 H1154 0.951 . S
C1115 C1114 1.340 . S
C1115 C1116 1.439 . S
C1115 H1155 0.950 . S
C1116 C1115 1.439 . S
C1116 N1117 1.374 . S
C1116 C1150 1.395 . S
N1117 C1113 1.376 . S
N1117 C1116 1.374 . S
N1117 Co1118 2.008 . S
Co1118 N1117 2.008 . S
Co1118 N1119 1.995 . S
Co1118 N1124 2.008 . S
Co1118 N1129 1.995 . S
Co1118 N1134 2.282 . S
Co1118 N1140 2.282 . S
N1119 Co1118 1.995 . S
N1119 C1120 1.376 . S
N1119 C1123 1.383 . S
C1120 N1119 1.376 . S
C1120 C1121 1.446 . S
C1120 C1150 1.391 . S
C1121 C1120 1.446 . S
C1121 C1122 1.339 . S
C1121 H1156 0.960 . S
C1122 C1121 1.339 . S
C1122 C1123 1.439 . S
C1122 H1157 0.950 . S
C1123 N1119 1.383 . S
C1123 C1122 1.439 . S
C1123 C1152 1.392 . S
N1124 Co1118 2.008 . S
N1124 C1125 1.376 . S
N1124 C1128 1.374 . S
C1125 N1124 1.376 . S
C1125 C1126 1.443 . S
C1125 C1152 1.389 . S
C1126 C1125 1.443 . S
C1126 C1127 1.340 . S
C1126 H1158 0.951 . S
C1127 C1126 1.340 . S
C1127 C1128 1.439 . S
C1127 H1159 0.950 . S
C1128 N1124 1.374 . S
C1128 C1127 1.439 . S
C1128 C1153 1.395 . S
N1129 Co1118 1.995 . S
N1129 C1130 1.376 . S
N1129 C1133 1.383 . S
C1130 N1129 1.376 . S
C1130 C1131 1.446 . S
C1130 C1153 1.391 . S
C1131 C1130 1.446 . S
C1131 C1132 1.339 . S
C1131 H1160 0.949 . S
C1132 C1131 1.339 . S
C1132 C1133 1.439 . S
C1132 H1161 0.950 . S
C1133 N1129 1.383 . S
C1133 C1132 1.439 . S
C1133 C1151 1.392 . S
N1134 Co1118 2.282 . S
N1134 C1137 1.332 . S
N1134 C1139 1.332 . S
C1135 C1136 1.386 . S
C1135 C1138 1.388 . S
C1136 C1135 1.386 . S
C1136 C1137 1.382 . S
C1136 H1162 0.950 . S
C1137 N1134 1.332 . S
C1137 C1136 1.382 . S
C1137 H1148 0.952 . S
C1138 C1135 1.388 . S
C1138 C1139 1.382 . S
C1138 H1163 0.950 . S
C1139 N1134 1.332 . S
C1139 C1138 1.382 . S
C1139 H1149 0.948 . S
N1140 Co1118 2.282 . S
N1140 C1144 1.332 . S
N1140 C1145 1.332 . S
C1141 C1142 1.388 . S
C1141 C1145 1.382 . S
C1141 H1164 0.950 . S
C1142 C1141 1.388 . S
C1142 C1143 1.386 . S
C1143 C1142 1.386 . S
C1143 C1144 1.382 . S
C1143 H1165 0.950 . S
C1144 N1140 1.332 . S
C1144 C1143 1.382 . S
C1144 H1146 0.952 . S
C1145 N1140 1.332 . S
C1145 C1141 1.382 . S
C1145 H1147 0.948 . S
H1146 C1144 0.952 . S
H1147 C1145 0.948 . S
H1148 C1137 0.952 . S
H1149 C1139 0.948 . S
C1150 C1116 1.395 . S
C1150 C1120 1.391 . S
C1151 C1113 1.389 . S
C1151 C1133 1.392 . S
C1152 C1123 1.392 . S
C1152 C1125 1.389 . S
C1153 C1128 1.395 . S
C1153 C1130 1.391 . S
H1154 C1114 0.951 . S
H1155 C1115 0.950 . S
H1156 C1121 0.960 . S
H1157 C1122 0.950 . S
H1158 C1126 0.951 . S
H1159 C1127 0.950 . S
H1160 C1131 0.949 . S
H1161 C1132 0.950 . S
H1162 C1136 0.950 . S
H1163 C1138 0.950 . S
H1164 C1141 0.950 . S
H1165 C1143 0.950 . S
C1166 C1167 1.443 . S
C1166 N1170 1.376 . S
C1166 C1204 1.389 . S
C1167 C1166 1.443 . S
C1167 C1168 1.340 . S
C1167 H1207 0.951 . S
C1168 C1167 1.340 . S
C1168 C1169 1.439 . S
C1168 H1208 0.950 . S
C1169 C1168 1.439 . S
C1169 N1170 1.374 . S
C1169 C1203 1.395 . S
N1170 C1166 1.376 . S
N1170 C1169 1.374 . S
N1170 Co1171 2.008 . S
Co1171 N1170 2.008 . S
Co1171 N1172 1.995 . S
Co1171 N1177 2.008 . S
Co1171 N1182 1.995 . S
Co1171 N1187 2.282 . S
Co1171 N1193 2.282 . S
N1172 Co1171 1.995 . S
N1172 C1173 1.376 . S
N1172 C1176 1.383 . S
C1173 N1172 1.376 . S
C1173 C1174 1.446 . S
C1173 C1203 1.391 . S
C1174 C1173 1.446 . S
C1174 C1175 1.339 . S
C1174 H1209 0.959 . S
C1175 C1174 1.339 . S
C1175 C1176 1.439 . S
C1175 H1210 0.950 . S
C1176 N1172 1.383 . S
C1176 C1175 1.439 . S
C1176 C1205 1.392 . S
N1177 Co1171 2.008 . S
N1177 C1178 1.376 . S
N1177 C1181 1.374 . S
C1178 N1177 1.376 . S
C1178 C1179 1.443 . S
C1178 C1205 1.389 . S
C1179 C1178 1.443 . S
C1179 C1180 1.340 . S
C1179 H1211 0.951 . S
C1180 C1179 1.340 . S
C1180 C1181 1.439 . S
C1180 H1212 0.950 . S
C1181 N1177 1.374 . S
C1181 C1180 1.439 . S
C1181 C1206 1.395 . S
N1182 Co1171 1.995 . S
N1182 C1183 1.376 . S
N1182 C1186 1.383 . S
C1183 N1182 1.376 . S
C1183 C1184 1.446 . S
C1183 C1206 1.391 . S
C1184 C1183 1.446 . S
C1184 C1185 1.339 . S
C1184 H1213 0.949 . S
C1185 C1184 1.339 . S
C1185 C1186 1.439 . S
C1185 H1214 0.950 . S
C1186 N1182 1.383 . S
C1186 C1185 1.439 . S
C1186 C1204 1.392 . S
N1187 Co1171 2.282 . S
N1187 C1190 1.332 . S
N1187 C1192 1.332 . S
C1188 C1189 1.386 . S
C1188 C1191 1.388 . S
C1189 C1188 1.386 . S
C1189 C1190 1.382 . S
C1189 H1215 0.950 . S
C1190 N1187 1.332 . S
C1190 C1189 1.382 . S
C1190 H1201 0.952 . S
C1191 C1188 1.388 . S
C1191 C1192 1.382 . S
C1191 H1216 0.950 . S
C1192 N1187 1.332 . S
C1192 C1191 1.382 . S
C1192 H1202 0.948 . S
N1193 Co1171 2.282 . S
N1193 C1197 1.332 . S
N1193 C1198 1.332 . S
C1194 C1195 1.388 . S
C1194 C1198 1.382 . S
C1194 H1217 0.950 . S
C1195 C1194 1.388 . S
C1195 C1196 1.386 . S
C1196 C1195 1.386 . S
C1196 C1197 1.382 . S
C1196 H1218 0.950 . S
C1197 N1193 1.332 . S
C1197 C1196 1.382 . S
C1197 H1199 0.952 . S
C1198 N1193 1.332 . S
C1198 C1194 1.382 . S
C1198 H1200 0.948 . S
H1199 C1197 0.952 . S
H1200 C1198 0.948 . S
H1201 C1190 0.952 . S
H1202 C1192 0.948 . S
C1203 C1169 1.395 . S
C1203 C1173 1.391 . S
C1204 C1166 1.389 . S
C1204 C1186 1.392 . S
C1205 C1176 1.392 . S
C1205 C1178 1.389 . S
C1206 C1181 1.395 . S
C1206 C1183 1.391 . S
H1207 C1167 0.951 . S
H1208 C1168 0.950 . S
H1209 C1174 0.959 . S
H1210 C1175 0.950 . S
H1211 C1179 0.951 . S
H1212 C1180 0.950 . S
H1213 C1184 0.949 . S
H1214 C1185 0.950 . S
H1215 C1189 0.950 . S
H1216 C1191 0.950 . S
H1217 C1194 0.950 . S
H1218 C1196 0.950 . S
C1219 C1220 1.443 . S
C1219 N1223 1.376 . S
C1219 C1257 1.389 . S
C1220 C1219 1.443 . S
C1220 C1221 1.340 . S
C1220 H1260 0.951 . S
C1221 C1220 1.340 . S
C1221 C1222 1.439 . S
C1221 H1261 0.950 . S
C1222 C1221 1.439 . S
C1222 N1223 1.374 . S
C1222 C1256 1.395 . S
N1223 C1219 1.376 . S
N1223 C1222 1.374 . S
N1223 Co1224 2.008 . S
Co1224 N1223 2.008 . S
Co1224 N1225 1.995 . S
Co1224 N1230 2.008 . S
Co1224 N1235 1.995 . S
Co1224 N1240 2.282 . S
Co1224 N1246 2.282 . S
N1225 Co1224 1.995 . S
N1225 C1226 1.376 . S
N1225 C1229 1.383 . S
C1226 N1225 1.376 . S
C1226 C1227 1.446 . S
C1226 C1256 1.391 . S
C1227 C1226 1.446 . S
C1227 C1228 1.339 . S
C1227 H1262 0.949 . S
C1228 C1227 1.339 . S
C1228 C1229 1.439 . S
C1228 H1263 0.950 . S
C1229 N1225 1.383 . S
C1229 C1228 1.439 . S
C1229 C1258 1.392 . S
N1230 Co1224 2.008 . S
N1230 C1231 1.376 . S
N1230 C1234 1.374 . S
C1231 N1230 1.376 . S
C1231 C1232 1.443 . S
C1231 C1258 1.389 . S
C1232 C1231 1.443 . S
C1232 C1233 1.340 . S
C1232 H1264 0.951 . S
C1233 C1232 1.340 . S
C1233 C1234 1.439 . S
C1233 H1265 0.950 . S
C1234 N1230 1.374 . S
C1234 C1233 1.439 . S
C1234 C1259 1.395 . S
N1235 Co1224 1.995 . S
N1235 C1236 1.376 . S
N1235 C1239 1.383 . S
C1236 N1235 1.376 . S
C1236 C1237 1.446 . S
C1236 C1259 1.391 . S
C1237 C1236 1.446 . S
C1237 C1238 1.339 . S
C1237 H1266 0.949 . S
C1238 C1237 1.339 . S
C1238 C1239 1.439 . S
C1238 H1267 0.950 . S
C1239 N1235 1.383 . S
C1239 C1238 1.439 . S
C1239 C1257 1.392 . S
N1240 Co1224 2.282 . S
N1240 C1243 1.332 . S
N1240 C1245 1.332 . S
C1241 C1242 1.386 . S
C1241 C1244 1.388 . S
C1242 C1241 1.386 . S
C1242 C1243 1.382 . S
C1242 H1268 0.950 . S
C1243 N1240 1.332 . S
C1243 C1242 1.382 . S
C1243 H1254 0.952 . S
C1244 C1241 1.388 . S
C1244 C1245 1.382 . S
C1244 H1269 0.950 . S
C1245 N1240 1.332 . S
C1245 C1244 1.382 . S
C1245 H1255 0.948 . S
N1246 Co1224 2.282 . S
N1246 C1250 1.332 . S
N1246 C1251 1.332 . S
C1247 C1248 1.388 . S
C1247 C1251 1.382 . S
C1247 H1270 0.950 . S
C1248 C1247 1.388 . S
C1248 C1249 1.386 . S
C1249 C1248 1.386 . S
C1249 C1250 1.382 . S
C1249 H1271 0.950 . S
C1250 N1246 1.332 . S
C1250 C1249 1.382 . S
C1250 H1252 0.952 . S
C1251 N1246 1.332 . S
C1251 C1247 1.382 . S
C1251 H1253 0.948 . S
H1252 C1250 0.952 . S
H1253 C1251 0.948 . S
H1254 C1243 0.952 . S
H1255 C1245 0.948 . S
C1256 C1222 1.395 . S
C1256 C1226 1.391 . S
C1257 C1219 1.389 . S
C1257 C1239 1.392 . S
C1258 C1229 1.392 . S
C1258 C1231 1.389 . S
C1259 C1234 1.395 . S
C1259 C1236 1.391 . S
H1260 C1220 0.951 . S
H1261 C1221 0.950 . S
H1262 C1227 0.949 . S
H1263 C1228 0.950 . S
H1264 C1232 0.951 . S
H1265 C1233 0.950 . S
H1266 C1237 0.949 . S
H1267 C1238 0.950 . S
H1268 C1242 0.950 . S
H1269 C1244 0.950 . S
H1270 C1247 0.950 . S
H1271 C1249 0.950 . S
C1272 C1273 1.443 . S
C1272 N1276 1.376 . S
C1272 C1310 1.389 . S
C1273 C1272 1.443 . S
C1273 C1274 1.340 . S
C1273 H1313 0.951 . S
C1274 C1273 1.340 . S
C1274 C1275 1.439 . S
C1274 H1314 0.950 . S
C1275 C1274 1.439 . S
C1275 N1276 1.374 . S
C1275 C1309 1.395 . S
N1276 C1272 1.376 . S
N1276 C1275 1.374 . S
N1276 Co1277 2.008 . S
Co1277 N1276 2.008 . S
Co1277 N1278 1.995 . S
Co1277 N1283 2.008 . S
Co1277 N1288 1.995 . S
Co1277 N1293 2.282 . S
Co1277 N1299 2.282 . S
N1278 Co1277 1.995 . S
N1278 C1279 1.376 . S
N1278 C1282 1.383 . S
C1279 N1278 1.376 . S
C1279 C1280 1.446 . S
C1279 C1309 1.391 . S
C1280 C1279 1.446 . S
C1280 C1281 1.339 . S
C1280 H1315 0.949 . S
C1281 C1280 1.339 . S
C1281 C1282 1.439 . S
C1281 H1316 0.950 . S
C1282 N1278 1.383 . S
C1282 C1281 1.439 . S
C1282 C1311 1.392 . S
N1283 Co1277 2.008 . S
N1283 C1284 1.376 . S
N1283 C1287 1.374 . S
C1284 N1283 1.376 . S
C1284 C1285 1.443 . S
C1284 C1311 1.389 . S
C1285 C1284 1.443 . S
C1285 C1286 1.340 . S
C1285 H1317 0.951 . S
C1286 C1285 1.340 . S
C1286 C1287 1.439 . S
C1286 H1318 0.950 . S
C1287 N1283 1.374 . S
C1287 C1286 1.439 . S
C1287 C1312 1.395 . S
N1288 Co1277 1.995 . S
N1288 C1289 1.376 . S
N1288 C1292 1.383 . S
C1289 N1288 1.376 . S
C1289 C1290 1.446 . S
C1289 C1312 1.391 . S
C1290 C1289 1.446 . S
C1290 C1291 1.339 . S
C1290 H1319 0.949 . S
C1291 C1290 1.339 . S
C1291 C1292 1.439 . S
C1291 H1320 0.950 . S
C1292 N1288 1.383 . S
C1292 C1291 1.439 . S
C1292 C1310 1.392 . S
N1293 Co1277 2.282 . S
N1293 C1296 1.332 . S
N1293 C1298 1.332 . S
C1294 C1295 1.386 . S
C1294 C1297 1.388 . S
C1295 C1294 1.386 . S
C1295 C1296 1.382 . S
C1295 H1321 0.950 . S
C1296 N1293 1.332 . S
C1296 C1295 1.382 . S
C1296 H1307 0.952 . S
C1297 C1294 1.388 . S
C1297 C1298 1.382 . S
C1297 H1322 0.950 . S
C1298 N1293 1.332 . S
C1298 C1297 1.382 . S
C1298 H1308 0.948 . S
N1299 Co1277 2.282 . S
N1299 C1303 1.332 . S
N1299 C1304 1.332 . S
C1300 C1301 1.388 . S
C1300 C1304 1.382 . S
C1300 H1323 0.950 . S
C1301 C1300 1.388 . S
C1301 C1302 1.386 . S
C1302 C1301 1.386 . S
C1302 C1303 1.382 . S
C1302 H1324 0.950 . S
C1303 N1299 1.332 . S
C1303 C1302 1.382 . S
C1303 H1305 0.952 . S
C1304 N1299 1.332 . S
C1304 C1300 1.382 . S
C1304 H1306 0.948 . S
H1305 C1303 0.952 . S
H1306 C1304 0.948 . S
H1307 C1296 0.952 . S
H1308 C1298 0.948 . S
C1309 C1275 1.395 . S
C1309 C1279 1.391 . S
C1310 C1272 1.389 . S
C1310 C1292 1.392 . S
C1311 C1282 1.392 . S
C1311 C1284 1.389 . S
C1312 C1287 1.395 . S
C1312 C1289 1.391 . S
H1313 C1273 0.951 . S
H1314 C1274 0.950 . S
H1315 C1280 0.949 . S
H1316 C1281 0.950 . S
H1317 C1285 0.951 . S
H1318 C1286 0.950 . S
H1319 C1290 0.949 . S
H1320 C1291 0.950 . S
H1321 C1295 0.950 . S
H1322 C1297 0.950 . S
H1323 C1300 0.950 . S
H1324 C1302 0.950 . S
C1325 C1326 1.443 . S
C1325 N1329 1.376 . S
C1325 C1363 1.389 . S
C1326 C1325 1.443 . S
C1326 C1327 1.340 . S
C1326 H1366 0.951 . S
C1327 C1326 1.340 . S
C1327 C1328 1.439 . S
C1327 H1367 0.950 . S
C1328 C1327 1.439 . S
C1328 N1329 1.374 . S
C1328 C1362 1.395 . S
N1329 C1325 1.376 . S
N1329 C1328 1.374 . S
N1329 Co1330 2.008 . S
Co1330 N1329 2.008 . S
Co1330 N1331 1.995 . S
Co1330 N1336 2.008 . S
Co1330 N1341 1.995 . S
Co1330 N1346 2.282 . S
Co1330 N1352 2.282 . S
N1331 Co1330 1.995 . S
N1331 C1332 1.376 . S
N1331 C1335 1.383 . S
C1332 N1331 1.376 . S
C1332 C1333 1.446 . S
C1332 C1362 1.391 . S
C1333 C1332 1.446 . S
C1333 C1334 1.339 . S
C1333 H1368 0.949 . S
C1334 C1333 1.339 . S
C1334 C1335 1.439 . S
C1334 H1369 0.950 . S
C1335 N1331 1.383 . S
C1335 C1334 1.439 . S
C1335 C1364 1.392 . S
N1336 Co1330 2.008 . S
N1336 C1337 1.376 . S
N1336 C1340 1.374 . S
C1337 N1336 1.376 . S
C1337 C1338 1.443 . S
C1337 C1364 1.389 . S
C1338 C1337 1.443 . S
C1338 C1339 1.340 . S
C1338 H1370 0.951 . S
C1339 C1338 1.340 . S
C1339 C1340 1.439 . S
C1339 H1371 0.950 . S
C1340 N1336 1.374 . S
C1340 C1339 1.439 . S
C1340 C1365 1.395 . S
N1341 Co1330 1.995 . S
N1341 C1342 1.376 . S
N1341 C1345 1.383 . S
C1342 N1341 1.376 . S
C1342 C1343 1.446 . S
C1342 C1365 1.391 . S
C1343 C1342 1.446 . S
C1343 C1344 1.339 . S
C1343 H1372 0.949 . S
C1344 C1343 1.339 . S
C1344 C1345 1.439 . S
C1344 H1373 0.950 . S
C1345 N1341 1.383 . S
C1345 C1344 1.439 . S
C1345 C1363 1.392 . S
N1346 Co1330 2.282 . S
N1346 C1349 1.332 . S
N1346 C1351 1.332 . S
C1347 C1348 1.386 . S
C1347 C1350 1.388 . S
C1348 C1347 1.386 . S
C1348 C1349 1.382 . S
C1348 H1374 0.950 . S
C1349 N1346 1.332 . S
C1349 C1348 1.382 . S
C1349 H1360 0.952 . S
C1350 C1347 1.388 . S
C1350 C1351 1.382 . S
C1350 H1375 0.950 . S
C1351 N1346 1.332 . S
C1351 C1350 1.382 . S
C1351 H1361 0.948 . S
N1352 Co1330 2.282 . S
N1352 C1356 1.332 . S
N1352 C1357 1.332 . S
C1353 C1354 1.388 . S
C1353 C1357 1.382 . S
C1353 H1376 0.950 . S
C1354 C1353 1.388 . S
C1354 C1355 1.386 . S
C1355 C1354 1.386 . S
C1355 C1356 1.382 . S
C1355 H1377 0.950 . S
C1356 N1352 1.332 . S
C1356 C1355 1.382 . S
C1356 H1358 0.952 . S
C1357 N1352 1.332 . S
C1357 C1353 1.382 . S
C1357 H1359 0.948 . S
H1358 C1356 0.952 . S
H1359 C1357 0.948 . S
H1360 C1349 0.952 . S
H1361 C1351 0.948 . S
C1362 C1328 1.395 . S
C1362 C1332 1.391 . S
C1363 C1325 1.389 . S
C1363 C1345 1.392 . S
C1364 C1335 1.392 . S
C1364 C1337 1.389 . S
C1365 C1340 1.395 . S
C1365 C1342 1.391 . S
H1366 C1326 0.951 . S
H1367 C1327 0.950 . S
H1368 C1333 0.949 . S
H1369 C1334 0.950 . S
H1370 C1338 0.951 . S
H1371 C1339 0.950 . S
H1372 C1343 0.949 . S
H1373 C1344 0.950 . S
H1374 C1348 0.950 . S
H1375 C1350 0.950 . S
H1376 C1353 0.950 . S
H1377 C1355 0.950 . S
C1378 C1379 1.443 . S
C1378 N1382 1.376 . S
C1378 C1416 1.389 . S
C1379 C1378 1.443 . S
C1379 C1380 1.340 . S
C1379 H1419 0.951 . S
C1380 C1379 1.340 . S
C1380 C1381 1.439 . S
C1380 H1420 0.950 . S
C1381 C1380 1.439 . S
C1381 N1382 1.374 . S
C1381 C1415 1.395 1_556 S
N1382 C1378 1.376 . S
N1382 C1381 1.374 . S
N1382 Co1383 2.008 . S
Co1383 N1382 2.008 . S
Co1383 N1384 1.995 1_556 S
Co1383 N1389 2.008 1_556 S
Co1383 N1394 1.995 . S
Co1383 N1399 2.282 . S
Co1383 N1405 2.282 . S
N1384 Co1383 1.995 1_554 S
N1384 C1385 1.376 . S
N1384 C1388 1.383 . S
C1385 N1384 1.376 . S
C1385 C1386 1.446 . S
C1385 C1415 1.391 . S
C1386 C1385 1.446 . S
C1386 C1387 1.339 . S
C1386 H1421 0.949 . S
C1387 C1386 1.339 . S
C1387 C1388 1.439 . S
C1387 H1422 0.950 . S
C1388 N1384 1.383 . S
C1388 C1387 1.439 . S
C1388 C1417 1.392 . S
N1389 Co1383 2.008 1_554 S
N1389 C1390 1.376 . S
N1389 C1393 1.374 . S
C1390 N1389 1.376 . S
C1390 C1391 1.443 . S
C1390 C1417 1.389 . S
C1391 C1390 1.443 . S
C1391 C1392 1.340 . S
C1391 H1423 0.951 . S
C1392 C1391 1.340 . S
C1392 C1393 1.439 . S
C1392 H1424 0.950 . S
C1393 N1389 1.374 . S
C1393 C1392 1.439 . S
C1393 C1418 1.395 1_554 S
N1394 Co1383 1.995 . S
N1394 C1395 1.376 . S
N1394 C1398 1.383 . S
C1395 N1394 1.376 . S
C1395 C1396 1.446 . S
C1395 C1418 1.391 . S
C1396 C1395 1.446 . S
C1396 C1397 1.339 . S
C1396 H1425 0.949 . S
C1397 C1396 1.339 . S
C1397 C1398 1.439 . S
C1397 H1426 0.950 . S
C1398 N1394 1.383 . S
C1398 C1397 1.439 . S
C1398 C1416 1.392 . S
N1399 Co1383 2.282 . S
N1399 C1402 1.332 . S
N1399 C1404 1.332 1_556 S
C1400 C1401 1.386 . S
C1400 C1403 1.388 1_556 S
C1401 C1400 1.386 . S
C1401 C1402 1.382 . S
C1401 H1427 0.950 . S
C1402 N1399 1.332 . S
C1402 C1401 1.382 . S
C1402 H1413 0.952 . S
C1403 C1400 1.388 1_554 S
C1403 C1404 1.382 . S
C1403 H1428 0.950 . S
C1404 N1399 1.332 1_554 S
C1404 C1403 1.382 . S
C1404 H1414 0.948 . S
N1405 Co1383 2.282 . S
N1405 C1409 1.332 1_556 S
N1405 C1410 1.332 . S
C1406 C1407 1.388 . S
C1406 C1410 1.382 . S
C1406 H1429 0.950 . S
C1407 C1406 1.388 . S
C1407 C1408 1.386 1_556 S
C1408 C1407 1.386 1_554 S
C1408 C1409 1.382 . S
C1408 H1430 0.950 . S
C1409 N1405 1.332 1_554 S
C1409 C1408 1.382 . S
C1409 H1411 0.952 . S
C1410 N1405 1.332 . S
C1410 C1406 1.382 . S
C1410 H1412 0.948 . S
H1411 C1409 0.952 . S
H1412 C1410 0.948 . S
H1413 C1402 0.952 . S
H1414 C1404 0.948 . S
C1415 C1381 1.395 1_554 S
C1415 C1385 1.391 . S
C1416 C1378 1.389 . S
C1416 C1398 1.392 . S
C1417 C1388 1.392 . S
C1417 C1390 1.389 . S
C1418 C1393 1.395 1_556 S
C1418 C1395 1.391 . S
H1419 C1379 0.951 . S
H1420 C1380 0.950 . S
H1421 C1386 0.949 . S
H1422 C1387 0.950 . S
H1423 C1391 0.951 . S
H1424 C1392 0.950 . S
H1425 C1396 0.949 . S
H1426 C1397 0.950 . S
H1427 C1401 0.950 . S
H1428 C1403 0.950 . S
H1429 C1406 0.950 . S
H1430 C1408 0.950 . S
C1431 C1432 1.443 . S
C1431 N1435 1.376 . S
C1431 C1469 1.389 . S
C1432 C1431 1.443 . S
C1432 C1433 1.340 . S
C1432 H1472 0.951 . S
C1433 C1432 1.340 . S
C1433 C1434 1.439 . S
C1433 H1473 0.950 . S
C1434 C1433 1.439 . S
C1434 N1435 1.374 . S
C1434 C1468 1.395 1_556 S
N1435 C1431 1.376 . S
N1435 C1434 1.374 . S
N1435 Co1436 2.008 . S
Co1436 N1435 2.008 . S
Co1436 N1437 1.995 1_556 S
Co1436 N1442 2.008 1_556 S
Co1436 N1447 1.995 . S
Co1436 N1452 2.282 . S
Co1436 N1458 2.282 . S
N1437 Co1436 1.995 1_554 S
N1437 C1438 1.376 . S
N1437 C1441 1.383 . S
C1438 N1437 1.376 . S
C1438 C1439 1.446 . S
C1438 C1468 1.391 . S
C1439 C1438 1.446 . S
C1439 C1440 1.339 . S
C1439 H1474 0.949 . S
C1440 C1439 1.339 . S
C1440 C1441 1.439 . S
C1440 H1475 0.950 . S
C1441 N1437 1.383 . S
C1441 C1440 1.439 . S
C1441 C1470 1.392 . S
N1442 Co1436 2.008 1_554 S
N1442 C1443 1.376 . S
N1442 C1446 1.374 . S
C1443 N1442 1.376 . S
C1443 C1444 1.443 . S
C1443 C1470 1.389 . S
C1444 C1443 1.443 . S
C1444 C1445 1.340 . S
C1444 H1476 0.951 . S
C1445 C1444 1.340 . S
C1445 C1446 1.439 . S
C1445 H1477 0.950 . S
C1446 N1442 1.374 . S
C1446 C1445 1.439 . S
C1446 C1471 1.395 1_554 S
N1447 Co1436 1.995 . S
N1447 C1448 1.376 . S
N1447 C1451 1.383 . S
C1448 N1447 1.376 . S
C1448 C1449 1.446 . S
C1448 C1471 1.391 . S
C1449 C1448 1.446 . S
C1449 C1450 1.339 . S
C1449 H1478 0.949 . S
C1450 C1449 1.339 . S
C1450 C1451 1.439 . S
C1450 H1479 0.950 . S
C1451 N1447 1.383 . S
C1451 C1450 1.439 . S
C1451 C1469 1.392 . S
N1452 Co1436 2.282 . S
N1452 C1455 1.332 . S
N1452 C1457 1.332 1_556 S
C1453 C1454 1.386 . S
C1453 C1456 1.388 1_556 S
C1454 C1453 1.386 . S
C1454 C1455 1.382 . S
C1454 H1480 0.950 . S
C1455 N1452 1.332 . S
C1455 C1454 1.382 . S
C1455 H1466 0.952 . S
C1456 C1453 1.388 1_554 S
C1456 C1457 1.382 . S
C1456 H1481 0.950 . S
C1457 N1452 1.332 1_554 S
C1457 C1456 1.382 . S
C1457 H1467 0.948 . S
N1458 Co1436 2.282 . S
N1458 C1462 1.332 1_556 S
N1458 C1463 1.332 . S
C1459 C1460 1.388 . S
C1459 C1463 1.382 . S
C1459 H1482 0.950 . S
C1460 C1459 1.388 . S
C1460 C1461 1.386 1_556 S
C1461 C1460 1.386 1_554 S
C1461 C1462 1.382 . S
C1461 H1483 0.950 . S
C1462 N1458 1.332 1_554 S
C1462 C1461 1.382 . S
C1462 H1464 0.952 . S
C1463 N1458 1.332 . S
C1463 C1459 1.382 . S
C1463 H1465 0.948 . S
H1464 C1462 0.952 . S
H1465 C1463 0.948 . S
H1466 C1455 0.952 . S
H1467 C1457 0.948 . S
C1468 C1434 1.395 1_554 S
C1468 C1438 1.391 . S
C1469 C1431 1.389 . S
C1469 C1451 1.392 . S
C1470 C1441 1.392 . S
C1470 C1443 1.389 . S
C1471 C1446 1.395 1_556 S
C1471 C1448 1.391 . S
H1472 C1432 0.951 . S
H1473 C1433 0.950 . S
H1474 C1439 0.949 . S
H1475 C1440 0.950 . S
H1476 C1444 0.951 . S
H1477 C1445 0.950 . S
H1478 C1449 0.949 . S
H1479 C1450 0.950 . S
H1480 C1454 0.950 . S
H1481 C1456 0.950 . S
H1482 C1459 0.950 . S
H1483 C1461 0.950 . S
C1484 C1485 1.443 . S
C1484 N1488 1.376 . S
C1484 C1522 1.389 . S
C1485 C1484 1.443 . S
C1485 C1486 1.340 . S
C1485 H1525 0.951 . S
C1486 C1485 1.340 . S
C1486 C1487 1.439 . S
C1486 H1526 0.950 . S
C1487 C1486 1.439 . S
C1487 N1488 1.374 . S
C1487 C1521 1.395 . S
N1488 C1484 1.376 . S
N1488 C1487 1.374 . S
N1488 Co1489 2.008 . S
Co1489 N1488 2.008 . S
Co1489 N1490 1.995 . S
Co1489 N1495 2.008 . S
Co1489 N1500 1.995 . S
Co1489 N1505 2.282 . S
Co1489 N1511 2.282 . S
N1490 Co1489 1.995 . S
N1490 C1491 1.376 . S
N1490 C1494 1.383 . S
C1491 N1490 1.376 . S
C1491 C1492 1.446 . S
C1491 C1521 1.391 . S
C1492 C1491 1.446 . S
C1492 C1493 1.339 . S
C1492 H1527 0.949 . S
C1493 C1492 1.339 . S
C1493 C1494 1.439 . S
C1493 H1528 0.950 . S
C1494 N1490 1.383 . S
C1494 C1493 1.439 . S
C1494 C1523 1.392 . S
N1495 Co1489 2.008 . S
N1495 C1496 1.376 . S
N1495 C1499 1.374 . S
C1496 N1495 1.376 . S
C1496 C1497 1.443 . S
C1496 C1523 1.389 . S
C1497 C1496 1.443 . S
C1497 C1498 1.340 . S
C1497 H1529 0.951 . S
C1498 C1497 1.340 . S
C1498 C1499 1.439 . S
C1498 H1530 0.950 . S
C1499 N1495 1.374 . S
C1499 C1498 1.439 . S
C1499 C1524 1.395 . S
N1500 Co1489 1.995 . S
N1500 C1501 1.376 . S
N1500 C1504 1.383 . S
C1501 N1500 1.376 . S
C1501 C1502 1.446 . S
C1501 C1524 1.391 . S
C1502 C1501 1.446 . S
C1502 C1503 1.339 . S
C1502 H1531 0.949 . S
C1503 C1502 1.339 . S
C1503 C1504 1.439 . S
C1503 H1532 0.950 . S
C1504 N1500 1.383 . S
C1504 C1503 1.439 . S
C1504 C1522 1.392 . S
N1505 Co1489 2.282 . S
N1505 C1508 1.332 . S
N1505 C1510 1.332 . S
C1506 C1507 1.386 . S
C1506 C1509 1.388 . S
C1507 C1506 1.386 . S
C1507 C1508 1.382 . S
C1507 H1533 0.950 . S
C1508 N1505 1.332 . S
C1508 C1507 1.382 . S
C1508 H1519 0.952 . S
C1509 C1506 1.388 . S
C1509 C1510 1.382 . S
C1509 H1534 0.950 . S
C1510 N1505 1.332 . S
C1510 C1509 1.382 . S
C1510 H1520 0.948 . S
N1511 Co1489 2.282 . S
N1511 C1515 1.332 . S
N1511 C1516 1.332 . S
C1512 C1513 1.388 . S
C1512 C1516 1.382 . S
C1512 H1535 0.950 . S
C1513 C1512 1.388 . S
C1513 C1514 1.386 . S
C1514 C1513 1.386 . S
C1514 C1515 1.382 . S
C1514 H1536 0.950 . S
C1515 N1511 1.332 . S
C1515 C1514 1.382 . S
C1515 H1517 0.952 . S
C1516 N1511 1.332 . S
C1516 C1512 1.382 . S
C1516 H1518 0.948 . S
H1517 C1515 0.952 . S
H1518 C1516 0.948 . S
H1519 C1508 0.952 . S
H1520 C1510 0.948 . S
C1521 C1487 1.395 . S
C1521 C1491 1.391 . S
C1522 C1484 1.389 . S
C1522 C1504 1.392 . S
C1523 C1494 1.392 . S
C1523 C1496 1.389 . S
C1524 C1499 1.395 . S
C1524 C1501 1.391 . S
H1525 C1485 0.951 . S
H1526 C1486 0.950 . S
H1527 C1492 0.949 . S
H1528 C1493 0.950 . S
H1529 C1497 0.951 . S
H1530 C1498 0.950 . S
H1531 C1502 0.949 . S
H1532 C1503 0.950 . S
H1533 C1507 0.950 . S
H1534 C1509 0.950 . S
H1535 C1512 0.950 . S
H1536 C1514 0.950 . S
C1537 C1538 1.443 . S
C1537 N1541 1.376 . S
C1537 C1575 1.389 . S
C1538 C1537 1.443 . S
C1538 C1539 1.340 . S
C1538 H1578 0.951 . S
C1539 C1538 1.340 . S
C1539 C1540 1.439 . S
C1539 H1579 0.950 . S
C1540 C1539 1.439 . S
C1540 N1541 1.374 . S
C1540 C1574 1.395 . S
N1541 C1537 1.376 . S
N1541 C1540 1.374 . S
N1541 Co1542 2.008 . S
Co1542 N1541 2.008 . S
Co1542 N1543 1.995 . S
Co1542 N1548 2.008 . S
Co1542 N1553 1.995 . S
Co1542 N1558 2.282 . S
Co1542 N1564 2.282 . S
N1543 Co1542 1.995 . S
N1543 C1544 1.376 . S
N1543 C1547 1.383 . S
C1544 N1543 1.376 . S
C1544 C1545 1.446 . S
C1544 C1574 1.391 . S
C1545 C1544 1.446 . S
C1545 C1546 1.339 . S
C1545 H1580 0.949 . S
C1546 C1545 1.339 . S
C1546 C1547 1.439 . S
C1546 H1581 0.950 . S
C1547 N1543 1.383 . S
C1547 C1546 1.439 . S
C1547 C1576 1.392 . S
N1548 Co1542 2.008 . S
N1548 C1549 1.376 . S
N1548 C1552 1.374 . S
C1549 N1548 1.376 . S
C1549 C1550 1.443 . S
C1549 C1576 1.389 . S
C1550 C1549 1.443 . S
C1550 C1551 1.340 . S
C1550 H1582 0.951 . S
C1551 C1550 1.340 . S
C1551 C1552 1.439 . S
C1551 H1583 0.950 . S
C1552 N1548 1.374 . S
C1552 C1551 1.439 . S
C1552 C1577 1.395 . S
N1553 Co1542 1.995 . S
N1553 C1554 1.376 . S
N1553 C1557 1.383 . S
C1554 N1553 1.376 . S
C1554 C1555 1.446 . S
C1554 C1577 1.391 . S
C1555 C1554 1.446 . S
C1555 C1556 1.339 . S
C1555 H1584 0.949 . S
C1556 C1555 1.339 . S
C1556 C1557 1.439 . S
C1556 H1585 0.950 . S
C1557 N1553 1.383 . S
C1557 C1556 1.439 . S
C1557 C1575 1.392 . S
N1558 Co1542 2.282 . S
N1558 C1561 1.332 . S
N1558 C1563 1.332 . S
C1559 C1560 1.386 . S
C1559 C1562 1.388 . S
C1560 C1559 1.386 . S
C1560 C1561 1.382 . S
C1560 H1586 0.950 . S
C1561 N1558 1.332 . S
C1561 C1560 1.382 . S
C1561 H1572 0.952 . S
C1562 C1559 1.388 . S
C1562 C1563 1.382 . S
C1562 H1587 0.950 . S
C1563 N1558 1.332 . S
C1563 C1562 1.382 . S
C1563 H1573 0.948 . S
N1564 Co1542 2.282 . S
N1564 C1568 1.332 . S
N1564 C1569 1.332 . S
C1565 C1566 1.388 . S
C1565 C1569 1.382 . S
C1565 H1588 0.950 . S
C1566 C1565 1.388 . S
C1566 C1567 1.386 . S
C1567 C1566 1.386 . S
C1567 C1568 1.382 . S
C1567 H1589 0.950 . S
C1568 N1564 1.332 . S
C1568 C1567 1.382 . S
C1568 H1570 0.952 . S
C1569 N1564 1.332 . S
C1569 C1565 1.382 . S
C1569 H1571 0.948 . S
H1570 C1568 0.952 . S
H1571 C1569 0.948 . S
H1572 C1561 0.952 . S
H1573 C1563 0.948 . S
C1574 C1540 1.395 . S
C1574 C1544 1.391 . S
C1575 C1537 1.389 . S
C1575 C1557 1.392 . S
C1576 C1547 1.392 . S
C1576 C1549 1.389 . S
C1577 C1552 1.395 . S
C1577 C1554 1.391 . S
H1578 C1538 0.951 . S
H1579 C1539 0.950 . S
H1580 C1545 0.949 . S
H1581 C1546 0.950 . S
H1582 C1550 0.951 . S
H1583 C1551 0.950 . S
H1584 C1555 0.949 . S
H1585 C1556 0.950 . S
H1586 C1560 0.950 . S
H1587 C1562 0.950 . S
H1588 C1565 0.950 . S
H1589 C1567 0.950 . S
C1590 C1591 1.443 . S
C1590 N1594 1.376 . S
C1590 C1628 1.389 . S
C1591 C1590 1.443 . S
C1591 C1592 1.340 . S
C1591 H1631 0.951 . S
C1592 C1591 1.340 . S
C1592 C1593 1.439 . S
C1592 H1632 0.950 . S
C1593 C1592 1.439 . S
C1593 N1594 1.374 . S
C1593 C1627 1.395 . S
N1594 C1590 1.376 . S
N1594 C1593 1.374 . S
N1594 Co1595 2.008 . S
Co1595 N1594 2.008 . S
Co1595 N1596 1.995 1_554 S
Co1595 N1601 2.008 1_554 S
Co1595 N1606 1.995 . S
Co1595 N1611 2.282 . S
Co1595 N1617 2.282 . S
N1596 Co1595 1.995 1_556 S
N1596 C1597 1.376 . S
N1596 C1600 1.383 . S
C1597 N1596 1.376 . S
C1597 C1598 1.446 . S
C1597 C1627 1.391 1_556 S
C1598 C1597 1.446 . S
C1598 C1599 1.339 . S
C1598 H1633 0.949 . S
C1599 C1598 1.339 . S
C1599 C1600 1.439 . S
C1599 H1634 0.950 . S
C1600 N1596 1.383 . S
C1600 C1599 1.439 . S
C1600 C1629 1.392 . S
N1601 Co1595 2.008 1_556 S
N1601 C1602 1.376 . S
N1601 C1605 1.374 . S
C1602 N1601 1.376 . S
C1602 C1603 1.443 . S
C1602 C1629 1.389 . S
C1603 C1602 1.443 . S
C1603 C1604 1.340 . S
C1603 H1635 0.951 . S
C1604 C1603 1.340 . S
C1604 C1605 1.439 . S
C1604 H1636 0.950 . S
C1605 N1601 1.374 . S
C1605 C1604 1.439 . S
C1605 C1630 1.395 . S
N1606 Co1595 1.995 . S
N1606 C1607 1.376 . S
N1606 C1610 1.383 . S
C1607 N1606 1.376 . S
C1607 C1608 1.446 . S
C1607 C1630 1.391 1_554 S
C1608 C1607 1.446 . S
C1608 C1609 1.339 . S
C1608 H1637 0.949 . S
C1609 C1608 1.339 . S
C1609 C1610 1.439 . S
C1609 H1638 0.950 . S
C1610 N1606 1.383 . S
C1610 C1609 1.439 . S
C1610 C1628 1.392 . S
N1611 Co1595 2.282 . S
N1611 C1614 1.332 . S
N1611 C1616 1.332 . S
C1612 C1613 1.386 . S
C1612 C1615 1.388 . S
C1613 C1612 1.386 . S
C1613 C1614 1.382 . S
C1613 H1639 0.950 . S
C1614 N1611 1.332 . S
C1614 C1613 1.382 . S
C1614 H1625 0.952 . S
C1615 C1612 1.388 . S
C1615 C1616 1.382 . S
C1615 H1640 0.949 1_554 S
C1616 N1611 1.332 . S
C1616 C1615 1.382 . S
C1616 H1626 0.948 . S
N1617 Co1595 2.282 . S
N1617 C1621 1.332 1_554 S
N1617 C1622 1.332 . S
C1618 C1619 1.388 . S
C1618 C1622 1.382 . S
C1618 H1641 0.950 . S
C1619 C1618 1.388 . S
C1619 C1620 1.386 . S
C1620 C1619 1.386 . S
C1620 C1621 1.382 1_554 S
C1620 H1642 0.950 . S
C1621 N1617 1.332 1_556 S
C1621 C1620 1.382 1_556 S
C1621 H1623 0.952 . S
C1622 N1617 1.332 . S
C1622 C1618 1.382 . S
C1622 H1624 0.948 . S
H1623 C1621 0.952 . S
H1624 C1622 0.948 . S
H1625 C1614 0.952 . S
H1626 C1616 0.948 . S
C1627 C1593 1.395 . S
C1627 C1597 1.391 1_554 S
C1628 C1590 1.389 . S
C1628 C1610 1.392 . S
C1629 C1600 1.392 . S
C1629 C1602 1.389 . S
C1630 C1605 1.395 . S
C1630 C1607 1.391 1_556 S
H1631 C1591 0.951 . S
H1632 C1592 0.950 . S
H1633 C1598 0.949 . S
H1634 C1599 0.950 . S
H1635 C1603 0.951 . S
H1636 C1604 0.950 . S
H1637 C1608 0.949 . S
H1638 C1609 0.950 . S
H1639 C1613 0.950 . S
H1640 C1615 0.949 1_556 S
H1641 C1618 0.950 . S
H1642 C1620 0.950 . S
C1643 C1644 1.443 . S
C1643 N1647 1.376 . S
C1643 C1681 1.389 . S
C1644 C1643 1.443 . S
C1644 C1645 1.340 . S
C1644 H1684 0.951 . S
C1645 C1644 1.340 . S
C1645 C1646 1.439 . S
C1645 H1685 0.950 . S
C1646 C1645 1.439 . S
C1646 N1647 1.374 . S
C1646 C1680 1.395 . S
N1647 C1643 1.376 . S
N1647 C1646 1.374 . S
N1647 Co1648 2.008 . S
Co1648 N1647 2.008 . S
Co1648 N1649 1.995 1_554 S
Co1648 N1654 2.008 1_554 S
Co1648 N1659 1.995 . S
Co1648 N1664 2.282 . S
Co1648 N1670 2.282 . S
N1649 Co1648 1.995 1_556 S
N1649 C1650 1.376 . S
N1649 C1653 1.383 . S
C1650 N1649 1.376 . S
C1650 C1651 1.446 . S
C1650 C1680 1.391 1_556 S
C1651 C1650 1.446 . S
C1651 C1652 1.339 . S
C1651 H1686 0.949 . S
C1652 C1651 1.339 . S
C1652 C1653 1.439 . S
C1652 H1687 0.950 . S
C1653 N1649 1.383 . S
C1653 C1652 1.439 . S
C1653 C1682 1.392 . S
N1654 Co1648 2.008 1_556 S
N1654 C1655 1.376 . S
N1654 C1658 1.374 . S
C1655 N1654 1.376 . S
C1655 C1656 1.443 . S
C1655 C1682 1.389 . S
C1656 C1655 1.443 . S
C1656 C1657 1.340 . S
C1656 H1688 0.951 . S
C1657 C1656 1.340 . S
C1657 C1658 1.439 . S
C1657 H1689 0.950 . S
C1658 N1654 1.374 . S
C1658 C1657 1.439 . S
C1658 C1683 1.395 . S
N1659 Co1648 1.995 . S
N1659 C1660 1.376 . S
N1659 C1663 1.383 . S
C1660 N1659 1.376 . S
C1660 C1661 1.446 . S
C1660 C1683 1.391 1_554 S
C1661 C1660 1.446 . S
C1661 C1662 1.339 . S
C1661 H1690 0.949 . S
C1662 C1661 1.339 . S
C1662 C1663 1.439 . S
C1662 H1691 0.950 . S
C1663 N1659 1.383 . S
C1663 C1662 1.439 . S
C1663 C1681 1.392 . S
N1664 Co1648 2.282 . S
N1664 C1667 1.332 . S
N1664 C1669 1.332 . S
C1665 C1666 1.386 . S
C1665 C1668 1.388 . S
C1666 C1665 1.386 . S
C1666 C1667 1.382 . S
C1666 H1692 0.950 . S
C1667 N1664 1.332 . S
C1667 C1666 1.382 . S
C1667 H1678 0.952 . S
C1668 C1665 1.388 . S
C1668 C1669 1.382 . S
C1668 H1693 0.949 1_554 S
C1669 N1664 1.332 . S
C1669 C1668 1.382 . S
C1669 H1679 0.948 . S
N1670 Co1648 2.282 . S
N1670 C1674 1.332 1_554 S
N1670 C1675 1.332 . S
C1671 C1672 1.388 . S
C1671 C1675 1.382 . S
C1671 H1694 0.950 . S
C1672 C1671 1.388 . S
C1672 C1673 1.386 . S
C1673 C1672 1.386 . S
C1673 C1674 1.382 1_554 S
C1673 H1695 0.950 . S
C1674 N1670 1.332 1_556 S
C1674 C1673 1.382 1_556 S
C1674 H1676 0.952 . S
C1675 N1670 1.332 . S
C1675 C1671 1.382 . S
C1675 H1677 0.948 . S
H1676 C1674 0.952 . S
H1677 C1675 0.948 . S
H1678 C1667 0.952 . S
H1679 C1669 0.948 . S
C1680 C1646 1.395 . S
C1680 C1650 1.391 1_554 S
C1681 C1643 1.389 . S
C1681 C1663 1.392 . S
C1682 C1653 1.392 . S
C1682 C1655 1.389 . S
C1683 C1658 1.395 . S
C1683 C1660 1.391 1_556 S
H1684 C1644 0.951 . S
H1685 C1645 0.950 . S
H1686 C1651 0.949 . S
H1687 C1652 0.950 . S
H1688 C1656 0.951 . S
H1689 C1657 0.950 . S
H1690 C1661 0.949 . S
H1691 C1662 0.950 . S
H1692 C1666 0.950 . S
H1693 C1668 0.949 1_556 S
H1694 C1671 0.950 . S
H1695 C1673 0.950 . S
C1696 C1697 1.387 . S
C1696 H1700 0.950 . S
C1696 C1705 1.390 . S
C1697 C1696 1.387 . S
C1697 C1699 1.387 . S
H1698 C1705 0.950 . S
C1699 C1697 1.387 . S
C1699 C1701 1.390 . S
C1699 H1703 0.950 . S
H1700 C1696 0.950 . S
C1701 C1699 1.390 . S
C1701 C1702 1.387 . S
C1701 H1704 0.950 . S
C1702 C1701 1.387 . S
C1702 C1705 1.387 . S
H1703 C1699 0.950 . S
H1704 C1701 0.950 . S
C1705 C1696 1.390 . S
C1705 H1698 0.950 . S
C1705 C1702 1.387 . S
C1706 C1707 1.387 . S
C1706 H1710 0.950 . S
C1706 C1715 1.390 . S
C1707 C1706 1.387 . S
C1707 C1709 1.387 . S
H1708 C1715 0.950 . S
C1709 C1707 1.387 . S
C1709 C1711 1.390 . S
C1709 H1713 0.950 . S
H1710 C1706 0.950 . S
C1711 C1709 1.390 . S
C1711 C1712 1.387 . S
C1711 H1714 0.950 . S
C1712 C1711 1.387 . S
C1712 C1715 1.387 . S
H1713 C1709 0.950 . S
H1714 C1711 0.950 . S
C1715 C1706 1.390 . S
C1715 H1708 0.950 . S
C1715 C1712 1.387 . S
C1716 C1717 1.387 . S
C1716 H1720 0.950 . S
C1716 C1725 1.390 . S
C1717 C1716 1.387 . S
C1717 C1719 1.387 . S
H1718 C1725 0.950 . S
C1719 C1717 1.387 . S
C1719 C1721 1.390 . S
C1719 H1723 0.950 . S
H1720 C1716 0.950 . S
C1721 C1719 1.390 . S
C1721 C1722 1.387 . S
C1721 H1724 0.950 . S
C1722 C1721 1.387 . S
C1722 C1725 1.387 . S
H1723 C1719 0.950 . S
H1724 C1721 0.950 . S
C1725 C1716 1.390 . S
C1725 H1718 0.950 . S
C1725 C1722 1.387 . S
C1726 C1727 1.387 . S
C1726 H1730 0.950 . S
C1726 C1735 1.390 . S
C1727 C1726 1.387 . S
C1727 C1729 1.387 . S
H1728 C1735 0.950 . S
C1729 C1727 1.387 . S
C1729 C1731 1.390 . S
C1729 H1733 0.950 . S
H1730 C1726 0.950 . S
C1731 C1729 1.390 . S
C1731 C1732 1.387 . S
C1731 H1734 0.950 . S
C1732 C1731 1.387 . S
C1732 C1735 1.387 . S
H1733 C1729 0.950 . S
H1734 C1731 0.950 . S
C1735 C1726 1.390 . S
C1735 H1728 0.950 . S
C1735 C1732 1.387 . S
C1736 C1737 1.387 . S
C1736 H1740 0.950 . S
C1736 C1745 1.390 . S
C1737 C1736 1.387 . S
C1737 C1739 1.387 . S
H1738 C1745 0.950 . S
C1739 C1737 1.387 . S
C1739 C1741 1.390 . S
C1739 H1743 0.950 . S
H1740 C1736 0.950 . S
C1741 C1739 1.390 . S
C1741 C1742 1.387 . S
C1741 H1744 0.950 . S
C1742 C1741 1.387 . S
C1742 C1745 1.387 . S
H1743 C1739 0.950 . S
H1744 C1741 0.950 . S
C1745 C1736 1.390 . S
C1745 H1738 0.950 . S
C1745 C1742 1.387 . S
C1746 C1747 1.387 . S
C1746 H1750 0.950 . S
C1746 C1755 1.390 . S
C1747 C1746 1.387 . S
C1747 C1749 1.387 . S
H1748 C1755 0.950 . S
C1749 C1747 1.387 . S
C1749 C1751 1.390 . S
C1749 H1753 0.950 . S
H1750 C1746 0.950 . S
C1751 C1749 1.390 . S
C1751 C1752 1.387 . S
C1751 H1754 0.950 . S
C1752 C1751 1.387 . S
C1752 C1755 1.387 . S
H1753 C1749 0.950 . S
H1754 C1751 0.950 . S
C1755 C1746 1.390 . S
C1755 H1748 0.950 . S
C1755 C1752 1.387 . S
C1756 C1757 1.387 . S
C1756 H1760 0.950 . S
C1756 C1765 1.390 . S
C1757 C1756 1.387 . S
C1757 C1759 1.387 . S
H1758 C1765 0.950 . S
C1759 C1757 1.387 . S
C1759 C1761 1.390 . S
C1759 H1763 0.950 . S
H1760 C1756 0.950 . S
C1761 C1759 1.390 . S
C1761 C1762 1.387 . S
C1761 H1764 0.950 . S
C1762 C1761 1.387 . S
C1762 C1765 1.387 . S
H1763 C1759 0.950 . S
H1764 C1761 0.950 . S
C1765 C1756 1.390 . S
C1765 H1758 0.950 . S
C1765 C1762 1.387 . S
C1766 C1767 1.387 . S
C1766 H1770 0.950 . S
C1766 C1775 1.390 . S
C1767 C1766 1.387 . S
C1767 C1769 1.387 . S
H1768 C1775 0.950 . S
C1769 C1767 1.387 . S
C1769 C1771 1.390 . S
C1769 H1773 0.950 . S
H1770 C1766 0.950 . S
C1771 C1769 1.390 . S
C1771 C1772 1.387 . S
C1771 H1774 0.950 . S
C1772 C1771 1.387 . S
C1772 C1775 1.387 . S
H1773 C1769 0.950 . S
H1774 C1771 0.950 . S
C1775 C1766 1.390 . S
C1775 H1768 0.950 . S
C1775 C1772 1.387 . S
C1776 C1777 1.387 . S
C1776 H1780 0.950 . S
C1776 C1785 1.390 . S
C1777 C1776 1.387 . S
C1777 C1779 1.387 . S
H1778 C1785 0.950 . S
C1779 C1777 1.387 . S
C1779 C1781 1.390 . S
C1779 H1783 0.950 . S
H1780 C1776 0.950 . S
C1781 C1779 1.390 . S
C1781 C1782 1.387 . S
C1781 H1784 0.950 . S
C1782 C1781 1.387 . S
C1782 C1785 1.387 . S
H1783 C1779 0.950 . S
H1784 C1781 0.950 . S
C1785 C1776 1.390 . S
C1785 H1778 0.950 . S
C1785 C1782 1.387 . S
C1786 C1787 1.387 . S
C1786 H1790 0.950 . S
C1786 C1795 1.390 . S
C1787 C1786 1.387 . S
C1787 C1789 1.387 . S
H1788 C1795 0.950 . S
C1789 C1787 1.387 . S
C1789 C1791 1.390 . S
C1789 H1793 0.950 . S
H1790 C1786 0.950 . S
C1791 C1789 1.390 . S
C1791 C1792 1.387 . S
C1791 H1794 0.950 . S
C1792 C1791 1.387 . S
C1792 C1795 1.387 . S
H1793 C1789 0.950 . S
H1794 C1791 0.950 . S
C1795 C1786 1.390 . S
C1795 H1788 0.950 . S
C1795 C1792 1.387 . S
C1796 C1797 1.387 . S
C1796 H1800 0.950 . S
C1796 C1805 1.390 . S
C1797 C1796 1.387 . S
C1797 C1799 1.387 . S
H1798 C1805 0.950 . S
C1799 C1797 1.387 . S
C1799 C1801 1.390 . S
C1799 H1803 0.950 . S
H1800 C1796 0.950 . S
C1801 C1799 1.390 . S
C1801 C1802 1.387 . S
C1801 H1804 0.950 . S
C1802 C1801 1.387 . S
C1802 C1805 1.387 . S
H1803 C1799 0.950 . S
H1804 C1801 0.950 . S
C1805 C1796 1.390 . S
C1805 H1798 0.950 . S
C1805 C1802 1.387 . S
C1806 C1807 1.387 . S
C1806 H1810 0.950 . S
C1806 C1815 1.390 . S
C1807 C1806 1.387 . S
C1807 C1809 1.387 . S
H1808 C1815 0.950 . S
C1809 C1807 1.387 . S
C1809 C1811 1.390 . S
C1809 H1813 0.950 . S
H1810 C1806 0.950 . S
C1811 C1809 1.390 . S
C1811 C1812 1.387 . S
C1811 H1814 0.950 . S
C1812 C1811 1.387 . S
C1812 C1815 1.387 . S
H1813 C1809 0.950 . S
H1814 C1811 0.950 . S
C1815 C1806 1.390 . S
C1815 H1808 0.950 . S
C1815 C1812 1.387 . S
C1816 C1817 1.387 . S
C1816 H1820 0.950 . S
C1816 C1825 1.390 . S
C1817 C1816 1.387 . S
C1817 C1819 1.387 . S
H1818 C1825 0.950 . S
C1819 C1817 1.387 . S
C1819 C1821 1.390 . S
C1819 H1823 0.950 . S
H1820 C1816 0.950 . S
C1821 C1819 1.390 . S
C1821 C1822 1.387 . S
C1821 H1824 0.950 . S
C1822 C1821 1.387 . S
C1822 C1825 1.387 . S
H1823 C1819 0.950 . S
H1824 C1821 0.950 . S
C1825 C1816 1.390 . S
C1825 H1818 0.950 . S
C1825 C1822 1.387 . S
C1826 C1827 1.387 . S
C1826 H1830 0.950 . S
C1826 C1835 1.390 . S
C1827 C1826 1.387 . S
C1827 C1829 1.387 . S
H1828 C1835 0.950 . S
C1829 C1827 1.387 . S
C1829 C1831 1.390 . S
C1829 H1833 0.950 . S
H1830 C1826 0.950 . S
C1831 C1829 1.390 . S
C1831 C1832 1.387 . S
C1831 H1834 0.950 . S
C1832 C1831 1.387 . S
C1832 C1835 1.387 . S
H1833 C1829 0.950 . S
H1834 C1831 0.950 . S
C1835 C1826 1.390 . S
C1835 H1828 0.950 . S
C1835 C1832 1.387 . S
C1836 C1837 1.387 . S
C1836 H1840 0.950 . S
C1836 C1845 1.390 . S
C1837 C1836 1.387 . S
C1837 C1839 1.387 . S
H1838 C1845 0.950 . S
C1839 C1837 1.387 . S
C1839 C1841 1.390 . S
C1839 H1843 0.950 . S
H1840 C1836 0.950 . S
C1841 C1839 1.390 . S
C1841 C1842 1.387 . S
C1841 H1844 0.950 . S
C1842 C1841 1.387 . S
C1842 C1845 1.387 . S
H1843 C1839 0.950 . S
H1844 C1841 0.950 . S
C1845 C1836 1.390 . S
C1845 H1838 0.950 . S
C1845 C1842 1.387 . S
C1846 C1847 1.387 . S
C1846 H1850 0.950 . S
C1846 C1855 1.390 . S
C1847 C1846 1.387 . S
C1847 C1849 1.387 . S
H1848 C1855 0.950 . S
C1849 C1847 1.387 . S
C1849 C1851 1.390 . S
C1849 H1853 0.950 . S
H1850 C1846 0.950 . S
C1851 C1849 1.390 . S
C1851 C1852 1.387 . S
C1851 H1854 0.950 . S
C1852 C1851 1.387 . S
C1852 C1855 1.387 . S
H1853 C1849 0.950 . S
H1854 C1851 0.950 . S
C1855 C1846 1.390 . S
C1855 H1848 0.950 . S
C1855 C1852 1.387 . S
C1856 C1857 1.387 . S
C1856 H1860 0.950 . S
C1856 C1865 1.390 1_655 S
C1857 C1856 1.387 . S
C1857 C1859 1.387 . S
H1858 C1865 0.950 . S
C1859 C1857 1.387 . S
C1859 C1861 1.390 1_655 S
C1859 H1863 0.950 . S
H1860 C1856 0.950 . S
C1861 C1859 1.390 1_455 S
C1861 C1862 1.387 . S
C1861 H1864 0.950 . S
C1862 C1861 1.387 . S
C1862 C1865 1.387 . S
H1863 C1859 0.950 . S
H1864 C1861 0.950 . S
C1865 C1856 1.390 1_455 S
C1865 H1858 0.950 . S
C1865 C1862 1.387 . S
C1866 C1867 1.387 . S
C1866 H1870 0.950 . S
C1866 C1875 1.390 1_565 S
C1867 C1866 1.387 . S
C1867 C1869 1.387 . S
H1868 C1875 0.950 . S
C1869 C1867 1.387 . S
C1869 C1871 1.390 1_565 S
C1869 H1873 0.950 . S
H1870 C1866 0.950 . S
C1871 C1869 1.390 1_545 S
C1871 C1872 1.387 . S
C1871 H1874 0.950 . S
C1872 C1871 1.387 . S
C1872 C1875 1.387 . S
H1873 C1869 0.950 . S
H1874 C1871 0.950 . S
C1875 C1866 1.390 1_545 S
C1875 H1868 0.950 . S
C1875 C1872 1.387 . S
C1876 C1877 1.387 1_554 S
C1876 H1880 0.950 . S
C1876 C1885 1.390 1_465 S
C1877 C1876 1.387 1_556 S
C1877 C1879 1.387 . S
H1878 C1885 0.950 . S
C1879 C1877 1.387 . S
C1879 C1881 1.390 1_465 S
C1879 H1883 0.950 . S
H1880 C1876 0.950 . S
C1881 C1879 1.390 1_645 S
C1881 C1882 1.387 1_556 S
C1881 H1884 0.950 . S
C1882 C1881 1.387 1_554 S
C1882 C1885 1.387 . S
H1883 C1879 0.950 . S
H1884 C1881 0.950 . S
C1885 C1876 1.390 1_645 S
C1885 H1878 0.950 . S
C1885 C1882 1.387 . S
C1886 C1887 1.387 . S
C1886 H1890 0.950 . S
C1886 C1895 1.390 . S
C1887 C1886 1.387 . S
C1887 C1889 1.387 1_554 S
H1888 C1895 0.950 . S
C1889 C1887 1.387 1_556 S
C1889 C1891 1.390 . S
C1889 H1893 0.950 . S
H1890 C1886 0.950 . S
C1891 C1889 1.390 . S
C1891 C1892 1.387 . S
C1891 H1894 0.950 . S
C1892 C1891 1.387 . S
C1892 C1895 1.387 1_556 S
H1893 C1889 0.950 . S
H1894 C1891 0.950 . S
C1895 C1886 1.390 . S
C1895 H1888 0.950 . S
C1895 C1892 1.387 1_554 S
C1896 C1897 1.387 . S
C1896 H1900 0.950 . S
C1896 C1905 1.390 1_655 S
C1897 C1896 1.387 . S
C1897 C1899 1.387 . S
H1898 C1905 0.950 . S
C1899 C1897 1.387 . S
C1899 C1901 1.390 1_655 S
C1899 H1903 0.950 . S
H1900 C1896 0.950 . S
C1901 C1899 1.390 1_455 S
C1901 C1902 1.387 . S
C1901 H1904 0.950 . S
C1902 C1901 1.387 . S
C1902 C1905 1.387 . S
H1903 C1899 0.950 . S
H1904 C1901 0.950 . S
C1905 C1896 1.390 1_455 S
C1905 H1898 0.950 . S
C1905 C1902 1.387 . S
C1906 C1907 1.387 . S
C1906 H1910 0.950 . S
C1906 C1915 1.390 1_565 S
C1907 C1906 1.387 . S
C1907 C1909 1.387 . S
H1908 C1915 0.950 . S
C1909 C1907 1.387 . S
C1909 C1911 1.390 1_565 S
C1909 H1913 0.950 . S
H1910 C1906 0.950 . S
C1911 C1909 1.390 1_545 S
C1911 C1912 1.387 . S
C1911 H1914 0.950 . S
C1912 C1911 1.387 . S
C1912 C1915 1.387 . S
H1913 C1909 0.950 . S
H1914 C1911 0.950 . S
C1915 C1906 1.390 1_545 S
C1915 H1908 0.950 . S
C1915 C1912 1.387 . S
C1916 C1917 1.387 . S
C1916 H1920 0.950 . S
C1916 C1925 1.390 . S
C1917 C1916 1.387 . S
C1917 C1919 1.387 1_556 S
H1918 C1925 0.950 . S
C1919 C1917 1.387 1_554 S
C1919 C1921 1.390 . S
C1919 H1923 0.950 . S
H1920 C1916 0.950 . S
C1921 C1919 1.390 . S
C1921 C1922 1.387 . S
C1921 H1924 0.950 . S
C1922 C1921 1.387 . S
C1922 C1925 1.387 1_554 S
H1923 C1919 0.950 . S
H1924 C1921 0.950 . S
C1925 C1916 1.390 . S
C1925 H1918 0.950 . S
C1925 C1922 1.387 1_556 S
C1926 C1927 1.387 . S
C1926 H1930 0.950 . S
C1926 C1935 1.390 . S
C1927 C1926 1.387 . S
C1927 C1929 1.387 . S
H1928 C1935 0.950 . S
C1929 C1927 1.387 . S
C1929 C1931 1.390 . S
C1929 H1933 0.950 . S
H1930 C1926 0.950 . S
C1931 C1929 1.390 . S
C1931 C1932 1.387 . S
C1931 H1934 0.950 . S
C1932 C1931 1.387 . S
C1932 C1935 1.387 . S
H1933 C1929 0.950 . S
H1934 C1931 0.950 . S
C1935 C1926 1.390 . S
C1935 H1928 0.950 . S
C1935 C1932 1.387 . S
C1936 C1937 1.387 . S
C1936 H1940 0.950 . S
C1936 C1945 1.390 1_655 S
C1937 C1936 1.387 . S
C1937 C1939 1.387 . S
H1938 C1945 0.950 . S
C1939 C1937 1.387 . S
C1939 C1941 1.390 1_655 S
C1939 H1943 0.950 . S
H1940 C1936 0.950 . S
C1941 C1939 1.390 1_455 S
C1941 C1942 1.387 . S
C1941 H1944 0.950 . S
C1942 C1941 1.387 . S
C1942 C1945 1.387 . S
H1943 C1939 0.950 . S
H1944 C1941 0.950 . S
C1945 C1936 1.390 1_455 S
C1945 H1938 0.950 . S
C1945 C1942 1.387 . S
C1946 C1947 1.387 . S
C1946 H1950 0.950 . S
C1946 C1955 1.390 . S
C1947 C1946 1.387 . S
C1947 C1949 1.387 . S
H1948 C1955 0.950 . S
C1949 C1947 1.387 . S
C1949 C1951 1.390 . S
C1949 H1953 0.950 . S
H1950 C1946 0.950 . S
C1951 C1949 1.390 . S
C1951 C1952 1.387 . S
C1951 H1954 0.950 . S
C1952 C1951 1.387 . S
C1952 C1955 1.387 . S
H1953 C1949 0.950 . S
H1954 C1951 0.950 . S
C1955 C1946 1.390 . S
C1955 H1948 0.950 . S
C1955 C1952 1.387 . S
C1956 C1957 1.387 . S
C1956 H1960 0.950 . S
C1956 C1965 1.390 . S
C1957 C1956 1.387 . S
C1957 C1959 1.387 . S
H1958 C1965 0.950 . S
C1959 C1957 1.387 . S
C1959 C1961 1.390 . S
C1959 H1963 0.950 . S
H1960 C1956 0.950 . S
C1961 C1959 1.390 . S
C1961 C1962 1.387 . S
C1961 H1964 0.950 . S
C1962 C1961 1.387 . S
C1962 C1965 1.387 . S
H1963 C1959 0.950 . S
H1964 C1961 0.950 . S
C1965 C1956 1.390 . S
C1965 H1958 0.950 . S
C1965 C1962 1.387 . S
C1966 C1967 1.387 . S
C1966 H1970 0.950 . S
C1966 C1975 1.390 . S
C1967 C1966 1.387 . S
C1967 C1969 1.387 . S
H1968 C1975 0.950 . S
C1969 C1967 1.387 . S
C1969 C1971 1.390 . S
C1969 H1973 0.950 . S
H1970 C1966 0.950 . S
C1971 C1969 1.390 . S
C1971 C1972 1.387 . S
C1971 H1974 0.950 . S
C1972 C1971 1.387 . S
C1972 C1975 1.387 . S
H1973 C1969 0.950 . S
H1974 C1971 0.950 . S
C1975 C1966 1.390 . S
C1975 H1968 0.950 . S
C1975 C1972 1.387 . S
C1976 C1977 1.387 . S
C1976 H1980 0.950 . S
C1976 C1985 1.390 . S
C1977 C1976 1.387 . S
C1977 C1979 1.387 . S
H1978 C1985 0.950 . S
C1979 C1977 1.387 . S
C1979 C1981 1.390 . S
C1979 H1983 0.950 . S
H1980 C1976 0.950 . S
C1981 C1979 1.390 . S
C1981 C1982 1.387 . S
C1981 H1984 0.950 . S
C1982 C1981 1.387 . S
C1982 C1985 1.387 . S
H1983 C1979 0.950 . S
H1984 C1981 0.950 . S
C1985 C1976 1.390 . S
C1985 H1978 0.950 . S
C1985 C1982 1.387 . S
C1986 C1987 1.387 . S
C1986 H1990 0.950 . S
C1986 C1995 1.390 1_545 S
C1987 C1986 1.387 . S
C1987 C1989 1.387 . S
H1988 C1995 0.950 . S
C1989 C1987 1.387 . S
C1989 C1991 1.390 1_545 S
C1989 H1993 0.950 . S
H1990 C1986 0.950 . S
C1991 C1989 1.390 1_565 S
C1991 C1992 1.387 . S
C1991 H1994 0.950 . S
C1992 C1991 1.387 . S
C1992 C1995 1.387 . S
H1993 C1989 0.950 . S
H1994 C1991 0.950 . S
C1995 C1986 1.390 1_565 S
C1995 H1988 0.950 . S
C1995 C1992 1.387 . S
C1996 C1997 1.387 . S
C1996 H2000 0.950 . S
C1996 C2005 1.390 . S
C1997 C1996 1.387 . S
C1997 C1999 1.387 . S
H1998 C2005 0.950 . S
C1999 C1997 1.387 . S
C1999 C2001 1.390 . S
C1999 H2003 0.950 . S
H2000 C1996 0.950 . S
C2001 C1999 1.390 . S
C2001 C2002 1.387 . S
C2001 H2004 0.950 . S
C2002 C2001 1.387 . S
C2002 C2005 1.387 . S
H2003 C1999 0.950 . S
H2004 C2001 0.950 . S
C2005 C1996 1.390 . S
C2005 H1998 0.950 . S
C2005 C2002 1.387 . S
C2006 C2007 1.387 1_554 S
C2006 H2010 0.950 . S
C2006 C2015 1.390 . S
C2007 C2006 1.387 1_556 S
C2007 C2009 1.387 . S
H2008 C2015 0.950 . S
C2009 C2007 1.387 . S
C2009 C2011 1.390 . S
C2009 H2013 0.950 . S
H2010 C2006 0.950 . S
C2011 C2009 1.390 . S
C2011 C2012 1.387 1_556 S
C2011 H2014 0.950 . S
C2012 C2011 1.387 1_554 S
C2012 C2015 1.387 . S
H2013 C2009 0.950 . S
H2014 C2011 0.950 . S
C2015 C2006 1.390 . S
C2015 H2008 0.950 . S
C2015 C2012 1.387 . S
C2016 C2017 1.387 . S
C2016 H2020 0.950 . S
C2016 C2025 1.390 . S
C2017 C2016 1.387 . S
C2017 C2019 1.387 . S
H2018 C2025 0.950 . S
C2019 C2017 1.387 . S
C2019 C2021 1.390 . S
C2019 H2023 0.950 . S
H2020 C2016 0.950 . S
C2021 C2019 1.390 . S
C2021 C2022 1.387 . S
C2021 H2024 0.950 . S
C2022 C2021 1.387 . S
C2022 C2025 1.387 . S
H2023 C2019 0.950 . S
H2024 C2021 0.950 . S
C2025 C2016 1.390 . S
C2025 H2018 0.950 . S
C2025 C2022 1.387 . S
C2026 C2027 1.387 . S
C2026 H2030 0.950 . S
C2026 C2035 1.390 . S
C2027 C2026 1.387 . S
C2027 C2029 1.387 . S
H2028 C2035 0.950 . S
C2029 C2027 1.387 . S
C2029 C2031 1.390 . S
C2029 H2033 0.950 1_455 S
H2030 C2026 0.950 . S
C2031 C2029 1.390 . S
C2031 C2032 1.387 . S
C2031 H2034 0.950 1_455 S
C2032 C2031 1.387 . S
C2032 C2035 1.387 . S
H2033 C2029 0.950 1_655 S
H2034 C2031 0.950 1_655 S
C2035 C2026 1.390 . S
C2035 H2028 0.950 . S
C2035 C2032 1.387 . S
C2036 C2037 1.387 . S
C2036 H2040 0.950 . S
C2036 C2045 1.390 . S
C2037 C2036 1.387 . S
C2037 C2039 1.387 . S
H2038 C2045 0.950 . S
C2039 C2037 1.387 . S
C2039 C2041 1.390 . S
C2039 H2043 0.950 . S
H2040 C2036 0.950 . S
C2041 C2039 1.390 . S
C2041 C2042 1.387 . S
C2041 H2044 0.950 . S
C2042 C2041 1.387 . S
C2042 C2045 1.387 . S
H2043 C2039 0.950 . S
H2044 C2041 0.950 . S
C2045 C2036 1.390 . S
C2045 H2038 0.950 . S
C2045 C2042 1.387 . S
C2046 C2047 1.387 . S
C2046 H2050 0.950 1_455 S
C2046 C2055 1.390 . S
C2047 C2046 1.387 . S
C2047 C2049 1.387 . S
H2048 C2055 0.950 1_655 S
C2049 C2047 1.387 . S
C2049 C2051 1.390 . S
C2049 H2053 0.950 . S
H2050 C2046 0.950 1_655 S
C2051 C2049 1.390 . S
C2051 C2052 1.387 . S
C2051 H2054 0.950 . S
C2052 C2051 1.387 . S
C2052 C2055 1.387 . S
H2053 C2049 0.950 . S
H2054 C2051 0.950 . S
C2055 C2046 1.390 . S
C2055 H2048 0.950 1_455 S
C2055 C2052 1.387 . S
C2056 C2057 1.387 . S
C2056 H2060 0.950 . S
C2056 C2065 1.390 . S
C2057 C2056 1.387 . S
C2057 C2059 1.387 . S
H2058 C2065 0.950 . S
C2059 C2057 1.387 . S
C2059 C2061 1.390 . S
C2059 H2063 0.950 . S
H2060 C2056 0.950 . S
C2061 C2059 1.390 . S
C2061 C2062 1.387 . S
C2061 H2064 0.950 . S
C2062 C2061 1.387 . S
C2062 C2065 1.387 . S
H2063 C2059 0.950 . S
H2064 C2061 0.950 . S
C2065 C2056 1.390 . S
C2065 H2058 0.950 . S
C2065 C2062 1.387 . S
C2066 C2067 1.387 . S
C2066 H2070 0.950 . S
C2066 C2075 1.390 . S
C2067 C2066 1.387 . S
C2067 C2069 1.387 . S
H2068 C2075 0.950 . S
C2069 C2067 1.387 . S
C2069 C2071 1.390 . S
C2069 H2073 0.950 1_655 S
H2070 C2066 0.950 . S
C2071 C2069 1.390 . S
C2071 C2072 1.387 . S
C2071 H2074 0.950 1_655 S
C2072 C2071 1.387 . S
C2072 C2075 1.387 . S
H2073 C2069 0.950 1_455 S
H2074 C2071 0.950 1_455 S
C2075 C2066 1.390 . S
C2075 H2068 0.950 . S
C2075 C2072 1.387 . S
C2076 C2077 1.387 . S
C2076 H2080 0.950 . S
C2076 C2085 1.390 . S
C2077 C2076 1.387 . S
C2077 C2079 1.387 . S
H2078 C2085 0.950 . S
C2079 C2077 1.387 . S
C2079 C2081 1.390 . S
C2079 H2083 0.950 . S
H2080 C2076 0.950 . S
C2081 C2079 1.390 . S
C2081 C2082 1.387 . S
C2081 H2084 0.950 . S
C2082 C2081 1.387 . S
C2082 C2085 1.387 . S
H2083 C2079 0.950 . S
H2084 C2081 0.950 . S
C2085 C2076 1.390 . S
C2085 H2078 0.950 . S
C2085 C2082 1.387 . S
C2086 C2087 1.387 . S
C2086 H2090 0.950 1_655 S
C2086 C2095 1.390 . S
C2087 C2086 1.387 . S
C2087 C2089 1.387 . S
H2088 C2095 0.950 1_455 S
C2089 C2087 1.387 . S
C2089 C2091 1.390 . S
C2089 H2093 0.950 . S
H2090 C2086 0.950 1_455 S
C2091 C2089 1.390 . S
C2091 C2092 1.387 . S
C2091 H2094 0.950 . S
C2092 C2091 1.387 . S
C2092 C2095 1.387 . S
H2093 C2089 0.950 . S
H2094 C2091 0.950 . S
C2095 C2086 1.390 . S
C2095 H2088 0.950 1_655 S
C2095 C2092 1.387 . S
C2096 C2097 1.387 . S
C2096 H2100 0.950 . S
C2096 C2105 1.390 . S
C2097 C2096 1.387 . S
C2097 C2099 1.387 . S
H2098 C2105 0.950 . S
C2099 C2097 1.387 . S
C2099 C2101 1.390 . S
C2099 H2103 0.950 . S
H2100 C2096 0.950 . S
C2101 C2099 1.390 . S
C2101 C2102 1.387 . S
C2101 H2104 0.950 . S
C2102 C2101 1.387 . S
C2102 C2105 1.387 . S
H2103 C2099 0.950 . S
H2104 C2101 0.950 . S
C2105 C2096 1.390 . S
C2105 H2098 0.950 . S
C2105 C2102 1.387 . S
C2106 C2107 1.387 . S
C2106 H2110 0.950 . S
C2106 C2115 1.390 . S
C2107 C2106 1.387 . S
C2107 C2109 1.387 . S
H2108 C2115 0.950 . S
C2109 C2107 1.387 . S
C2109 C2111 1.390 . S
C2109 H2113 0.950 . S
H2110 C2106 0.950 . S
C2111 C2109 1.390 . S
C2111 C2112 1.387 . S
C2111 H2114 0.950 . S
C2112 C2111 1.387 . S
C2112 C2115 1.387 . S
H2113 C2109 0.950 . S
H2114 C2111 0.950 . S
C2115 C2106 1.390 . S
C2115 H2108 0.950 . S
C2115 C2112 1.387 . S
C2116 C2117 1.387 . S
C2116 H2120 0.950 . S
C2116 C2125 1.390 . S
C2117 C2116 1.387 . S
C2117 C2119 1.387 . S
H2118 C2125 0.950 . S
C2119 C2117 1.387 . S
C2119 C2121 1.390 . S
C2119 H2123 0.950 . S
H2120 C2116 0.950 . S
C2121 C2119 1.390 . S
C2121 C2122 1.387 . S
C2121 H2124 0.950 . S
C2122 C2121 1.387 . S
C2122 C2125 1.387 . S
H2123 C2119 0.950 . S
H2124 C2121 0.950 . S
C2125 C2116 1.390 . S
C2125 H2118 0.950 . S
C2125 C2122 1.387 . S
C2126 C2127 1.387 . S
C2126 H2130 0.950 . S
C2126 C2135 1.390 . S
C2127 C2126 1.387 . S
C2127 C2129 1.387 . S
H2128 C2135 0.950 . S
C2129 C2127 1.387 . S
C2129 C2131 1.390 . S
C2129 H2133 0.950 . S
H2130 C2126 0.950 . S
C2131 C2129 1.390 . S
C2131 C2132 1.387 . S
C2131 H2134 0.950 . S
C2132 C2131 1.387 . S
C2132 C2135 1.387 . S
H2133 C2129 0.950 . S
H2134 C2131 0.950 . S
C2135 C2126 1.390 . S
C2135 H2128 0.950 . S
C2135 C2132 1.387 . S
C2136 C2137 1.387 . S
C2136 H2140 0.950 . S
C2136 C2145 1.390 . S
C2137 C2136 1.387 . S
C2137 C2139 1.387 . S
H2138 C2145 0.950 . S
C2139 C2137 1.387 . S
C2139 C2141 1.390 . S
C2139 H2143 0.950 . S
H2140 C2136 0.950 . S
C2141 C2139 1.390 . S
C2141 C2142 1.387 . S
C2141 H2144 0.950 . S
C2142 C2141 1.387 . S
C2142 C2145 1.387 . S
H2143 C2139 0.950 . S
H2144 C2141 0.950 . S
C2145 C2136 1.390 . S
C2145 H2138 0.950 . S
C2145 C2142 1.387 . S
C2146 C2147 1.387 . S
C2146 H2150 0.950 . S
C2146 C2155 1.390 . S
C2147 C2146 1.387 . S
C2147 C2149 1.387 . S
H2148 C2155 0.950 . S
C2149 C2147 1.387 . S
C2149 C2151 1.390 . S
C2149 H2153 0.950 . S
H2150 C2146 0.950 . S
C2151 C2149 1.390 . S
C2151 C2152 1.387 . S
C2151 H2154 0.950 . S
C2152 C2151 1.387 . S
C2152 C2155 1.387 . S
H2153 C2149 0.950 . S
H2154 C2151 0.950 . S
C2155 C2146 1.390 . S
C2155 H2148 0.950 . S
C2155 C2152 1.387 . S
C2156 C2157 1.387 . S
C2156 H2160 0.950 . S
C2156 C2165 1.390 . S
C2157 C2156 1.387 . S
C2157 C2159 1.387 . S
H2158 C2165 0.950 . S
C2159 C2157 1.387 . S
C2159 C2161 1.390 . S
C2159 H2163 0.950 . S
H2160 C2156 0.950 . S
C2161 C2159 1.390 . S
C2161 C2162 1.387 . S
C2161 H2164 0.950 . S
C2162 C2161 1.387 . S
C2162 C2165 1.387 . S
H2163 C2159 0.950 . S
H2164 C2161 0.950 . S
C2165 C2156 1.390 . S
C2165 H2158 0.950 . S
C2165 C2162 1.387 . S
C2166 C2167 1.387 . S
C2166 H2170 0.950 . S
C2166 C2175 1.390 . S
C2167 C2166 1.387 . S
C2167 C2169 1.387 . S
H2168 C2175 0.950 . S
C2169 C2167 1.387 . S
C2169 C2171 1.390 . S
C2169 H2173 0.950 . S
H2170 C2166 0.950 . S
C2171 C2169 1.390 . S
C2171 C2172 1.387 . S
C2171 H2174 0.950 . S
C2172 C2171 1.387 . S
C2172 C2175 1.387 . S
H2173 C2169 0.950 . S
H2174 C2171 0.950 . S
C2175 C2166 1.390 . S
C2175 H2168 0.950 . S
C2175 C2172 1.387 . S
C2176 C2177 1.387 . S
C2176 H2180 0.950 . S
C2176 C2185 1.390 . S
C2177 C2176 1.387 . S
C2177 C2179 1.387 . S
H2178 C2185 0.950 . S
C2179 C2177 1.387 . S
C2179 C2181 1.390 . S
C2179 H2183 0.950 . S
H2180 C2176 0.950 . S
C2181 C2179 1.390 . S
C2181 C2182 1.387 . S
C2181 H2184 0.950 . S
C2182 C2181 1.387 . S
C2182 C2185 1.387 . S
H2183 C2179 0.950 . S
H2184 C2181 0.950 . S
C2185 C2176 1.390 . S
C2185 H2178 0.950 . S
C2185 C2182 1.387 . S
C2186 C2187 1.387 . S
C2186 H2190 0.950 . S
C2186 C2195 1.390 . S
C2187 C2186 1.387 . S
C2187 C2189 1.387 . S
H2188 C2195 0.950 . S
C2189 C2187 1.387 . S
C2189 C2191 1.390 . S
C2189 H2193 0.950 . S
H2190 C2186 0.950 . S
C2191 C2189 1.390 . S
C2191 C2192 1.387 . S
C2191 H2194 0.950 . S
C2192 C2191 1.387 . S
C2192 C2195 1.387 . S
H2193 C2189 0.950 . S
H2194 C2191 0.950 . S
C2195 C2186 1.390 . S
C2195 H2188 0.950 . S
C2195 C2192 1.387 . S
C2196 C2197 1.387 . S
C2196 H2200 0.950 . S
C2196 C2205 1.390 . S
C2197 C2196 1.387 . S
C2197 C2199 1.387 1_556 S
H2198 C2205 0.950 . S
C2199 C2197 1.387 1_554 S
C2199 C2201 1.390 . S
C2199 H2203 0.950 . S
H2200 C2196 0.950 . S
C2201 C2199 1.390 . S
C2201 C2202 1.387 1_554 S
C2201 H2204 0.950 . S
C2202 C2201 1.387 1_556 S
C2202 C2205 1.387 . S
H2203 C2199 0.950 . S
H2204 C2201 0.950 . S
C2205 C2196 1.390 . S
C2205 H2198 0.950 . S
C2205 C2202 1.387 . S
C2206 C2207 1.387 . S
C2206 H2210 0.950 . S
C2206 C2215 1.390 . S
C2207 C2206 1.387 . S
C2207 C2209 1.387 1_556 S
H2208 C2215 0.950 . S
C2209 C2207 1.387 1_554 S
C2209 C2211 1.390 . S
C2209 H2213 0.950 . S
H2210 C2206 0.950 . S
C2211 C2209 1.390 . S
C2211 C2212 1.387 1_554 S
C2211 H2214 0.950 . S
C2212 C2211 1.387 1_556 S
C2212 C2215 1.387 . S
H2213 C2209 0.950 . S
H2214 C2211 0.950 . S
C2215 C2206 1.390 . S
C2215 H2208 0.950 . S
C2215 C2212 1.387 . S
C2216 C2217 1.387 . S
C2216 H2220 0.950 . S
C2216 C2225 1.390 . S
C2217 C2216 1.387 . S
C2217 C2219 1.387 . S
H2218 C2225 0.950 . S
C2219 C2217 1.387 . S
C2219 C2221 1.390 . S
C2219 H2223 0.950 . S
H2220 C2216 0.950 . S
C2221 C2219 1.390 . S
C2221 C2222 1.387 . S
C2221 H2224 0.950 . S
C2222 C2221 1.387 . S
C2222 C2225 1.387 . S
H2223 C2219 0.950 . S
H2224 C2221 0.950 . S
C2225 C2216 1.390 . S
C2225 H2218 0.950 . S
C2225 C2222 1.387 . S
C2226 C2227 1.387 . S
C2226 H2230 0.950 . S
C2226 C2235 1.390 . S
C2227 C2226 1.387 . S
C2227 C2229 1.387 . S
H2228 C2235 0.950 . S
C2229 C2227 1.387 . S
C2229 C2231 1.390 . S
C2229 H2233 0.950 . S
H2230 C2226 0.950 . S
C2231 C2229 1.390 . S
C2231 C2232 1.387 . S
C2231 H2234 0.950 . S
C2232 C2231 1.387 . S
C2232 C2235 1.387 . S
H2233 C2229 0.950 . S
H2234 C2231 0.950 . S
C2235 C2226 1.390 . S
C2235 H2228 0.950 . S
C2235 C2232 1.387 . S
C2236 C2237 1.387 . S
C2236 H2240 0.950 . S
C2236 C2245 1.390 . S
C2237 C2236 1.387 . S
C2237 C2239 1.387 1_554 S
H2238 C2245 0.950 . S
C2239 C2237 1.387 1_556 S
C2239 C2241 1.390 . S
C2239 H2243 0.950 . S
H2240 C2236 0.950 . S
C2241 C2239 1.390 . S
C2241 C2242 1.387 1_556 S
C2241 H2244 0.950 . S
C2242 C2241 1.387 1_554 S
C2242 C2245 1.387 . S
H2243 C2239 0.950 . S
H2244 C2241 0.950 . S
C2245 C2236 1.390 . S
C2245 H2238 0.950 . S
C2245 C2242 1.387 . S
C2246 C2247 1.387 . S
C2246 H2250 0.950 . S
C2246 C2255 1.390 . S
C2247 C2246 1.387 . S
C2247 C2249 1.387 1_554 S
H2248 C2255 0.950 . S
C2249 C2247 1.387 1_556 S
C2249 C2251 1.390 . S
C2249 H2253 0.950 . S
H2250 C2246 0.950 . S
C2251 C2249 1.390 . S
C2251 C2252 1.387 1_556 S
C2251 H2254 0.950 . S
C2252 C2251 1.387 1_554 S
C2252 C2255 1.387 . S
H2253 C2249 0.950 . S
H2254 C2251 0.950 . S
C2255 C2246 1.390 . S
C2255 H2248 0.950 . S
C2255 C2252 1.387 . S
C2256 C2257 1.387 . S
C2256 H2260 0.950 . S
C2256 C2265 1.390 . S
C2257 C2256 1.387 . S
C2257 C2259 1.387 . S
H2258 C2265 0.950 . S
C2259 C2257 1.387 . S
C2259 C2261 1.390 . S
C2259 H2263 0.950 . S
H2260 C2256 0.950 . S
C2261 C2259 1.390 . S
C2261 C2262 1.387 . S
C2261 H2264 0.950 . S
C2262 C2261 1.387 . S
C2262 C2265 1.387 . S
H2263 C2259 0.950 . S
H2264 C2261 0.950 . S
C2265 C2256 1.390 . S
C2265 H2258 0.950 . S
C2265 C2262 1.387 . S
C2266 C2267 1.387 . S
C2266 H2270 0.950 . S
C2266 C2275 1.390 . S
C2267 C2266 1.387 . S
C2267 C2269 1.387 . S
H2268 C2275 0.950 . S
C2269 C2267 1.387 . S
C2269 C2271 1.390 . S
C2269 H2273 0.950 . S
H2270 C2266 0.950 . S
C2271 C2269 1.390 . S
C2271 C2272 1.387 . S
C2271 H2274 0.950 . S
C2272 C2271 1.387 . S
C2272 C2275 1.387 . S
H2273 C2269 0.950 . S
H2274 C2271 0.950 . S
C2275 C2266 1.390 . S
C2275 H2268 0.950 . S
C2275 C2272 1.387 . S
C2276 C2277 1.387 . S
C2276 H2280 0.950 . S
C2276 C2285 1.390 . S
C2277 C2276 1.387 . S
C2277 C2279 1.387 . S
H2278 C2285 0.950 . S
C2279 C2277 1.387 . S
C2279 C2281 1.390 . S
C2279 H2283 0.950 . S
H2280 C2276 0.950 . S
C2281 C2279 1.390 . S
C2281 C2282 1.387 . S
C2281 H2284 0.950 . S
C2282 C2281 1.387 . S
C2282 C2285 1.387 . S
H2283 C2279 0.950 . S
H2284 C2281 0.950 . S
C2285 C2276 1.390 . S
C2285 H2278 0.950 . S
C2285 C2282 1.387 . S
C2286 C2287 1.387 . S
C2286 H2290 0.950 . S
C2286 C2295 1.390 . S
C2287 C2286 1.387 . S
C2287 C2289 1.387 . S
H2288 C2295 0.950 . S
C2289 C2287 1.387 . S
C2289 C2291 1.390 . S
C2289 H2293 0.950 . S
H2290 C2286 0.950 . S
C2291 C2289 1.390 . S
C2291 C2292 1.387 . S
C2291 H2294 0.950 . S
C2292 C2291 1.387 . S
C2292 C2295 1.387 . S
H2293 C2289 0.950 . S
H2294 C2291 0.950 . S
C2295 C2286 1.390 . S
C2295 H2288 0.950 . S
C2295 C2292 1.387 . S
C2296 C2297 1.387 . S
C2296 H2300 0.950 . S
C2296 C2305 1.390 . S
C2297 C2296 1.387 . S
C2297 C2299 1.387 . S
H2298 C2305 0.950 . S
C2299 C2297 1.387 . S
C2299 C2301 1.390 . S
C2299 H2303 0.950 . S
H2300 C2296 0.950 . S
C2301 C2299 1.390 . S
C2301 C2302 1.387 . S
C2301 H2304 0.950 . S
C2302 C2301 1.387 . S
C2302 C2305 1.387 . S
H2303 C2299 0.950 . S
H2304 C2301 0.950 . S
C2305 C2296 1.390 . S
C2305 H2298 0.950 . S
C2305 C2302 1.387 . S
C2306 C2307 1.387 . S
C2306 H2310 0.950 . S
C2306 C2315 1.390 . S
C2307 C2306 1.387 . S
C2307 C2309 1.387 . S
H2308 C2315 0.950 . S
C2309 C2307 1.387 . S
C2309 C2311 1.390 . S
C2309 H2313 0.950 . S
H2310 C2306 0.950 . S
C2311 C2309 1.390 . S
C2311 C2312 1.387 . S
C2311 H2314 0.950 . S
C2312 C2311 1.387 . S
C2312 C2315 1.387 . S
H2313 C2309 0.950 . S
H2314 C2311 0.950 . S
C2315 C2306 1.390 . S
C2315 H2308 0.950 . S
C2315 C2312 1.387 . S
C2316 C2317 1.387 . S
C2316 H2320 0.950 . S
C2316 C2325 1.390 . S
C2317 C2316 1.387 . S
C2317 C2319 1.387 . S
H2318 C2325 0.950 . S
C2319 C2317 1.387 . S
C2319 C2321 1.390 . S
C2319 H2323 0.950 . S
H2320 C2316 0.950 . S
C2321 C2319 1.390 . S
C2321 C2322 1.387 . S
C2321 H2324 0.950 . S
C2322 C2321 1.387 . S
C2322 C2325 1.387 . S
H2323 C2319 0.950 . S
H2324 C2321 0.950 . S
C2325 C2316 1.390 . S
C2325 H2318 0.950 . S
C2325 C2322 1.387 . S
C2326 C2327 1.387 . S
C2326 H2330 0.950 . S
C2326 C2335 1.390 . S
C2327 C2326 1.387 . S
C2327 C2329 1.387 . S
H2328 C2335 0.950 . S
C2329 C2327 1.387 . S
C2329 C2331 1.390 . S
C2329 H2333 0.950 . S
H2330 C2326 0.950 . S
C2331 C2329 1.390 . S
C2331 C2332 1.387 . S
C2331 H2334 0.950 . S
C2332 C2331 1.387 . S
C2332 C2335 1.387 . S
H2333 C2329 0.950 . S
H2334 C2331 0.950 . S
C2335 C2326 1.390 . S
C2335 H2328 0.950 . S
C2335 C2332 1.387 . S
C1697 C39 1.879 . S
C1702 C198 1.879 . S
C1707 C145 1.878 . S
C1712 C92 1.878 . S
C1717 C251 1.870 . S
C1722 C410 1.870 . S
C1727 C357 1.871 . S
C1732 C304 1.871 . S
C1737 C463 1.878 . S
C1742 C622 1.878 . S
C1747 C569 1.879 . S
C1752 C516 1.879 . S
C1757 C675 1.871 . S
C1762 C834 1.871 . S
C1767 C728 1.871 . S
C1772 C781 1.871 . S
C1777 C1046 1.879 . S
C1782 C887 1.879 . S
C1787 C940 1.879 . S
C1792 C993 1.879 . S
C1797 C1099 1.870 . S
C1802 C1258 1.870 . S
C1807 C1205 1.870 . S
C1812 C1152 1.870 . S
C1817 C1311 1.879 . S
C1822 C1470 1.879 . S
C1827 C1417 1.879 . S
C1832 C1364 1.879 . S
C1837 C1523 1.871 . S
C1842 C1682 1.871 . S
C1847 C1576 1.871 . S
C1852 C1629 1.871 . S
C1857 C658 1.533 . S
C1862 C22 1.537 . S
C1867 C75 1.537 . S
C1872 C1135 1.533 . S
C1877 C128 1.537 . S
C1882 C340 1.533 . S
C1887 C1665 1.533 . S
C1892 C181 1.537 . S
C1897 C234 1.533 . S
C1902 C446 1.537 . S
C1907 C923 1.537 . S
C1912 C287 1.533 . S
C1917 C1453 1.535 . S
C1922 C393 1.532 . S
C1927 C1559 1.533 . S
C1932 C499 1.537 . S
C1937 C764 1.533 . S
C1942 C552 1.537 . S
C1947 C1241 1.533 . S
C1952 C605 1.537 . S
C1957 C711 1.533 . S
C1962 C1347 1.537 . S
C1967 C1029 1.536 . S
C1972 C817 1.532 . S
C1977 C1506 1.532 . S
C1982 C870 1.535 . S
C1987 C1188 1.533 . S
C1992 C976 1.537 . S
C1997 C1294 1.537 . S
C2002 C1082 1.533 . S
C2007 C1400 1.537 . S
C2012 C1612 1.533 . S
C2017 C568 2.029 . S
C2022 C38 2.029 . S
C2027 C91 2.029 . S
C2032 C621 2.029 . S
C2037 C462 2.031 . S
C2042 C144 2.031 . S
C2047 C515 2.031 . S
C2052 C197 2.031 . S
C2057 C250 2.042 . S
C2062 C780 2.042 . S
C2067 C303 2.044 . S
C2072 C833 2.044 . S
C2077 C674 2.042 . S
C2082 C356 2.042 . S
C2087 C409 2.042 . S
C2092 C727 2.042 . S
C2097 C1416 2.029 . S
C2102 C886 2.029 . S
C2107 C1469 2.029 . S
C2112 C939 2.029 . S
C2117 C992 2.029 . S
C2122 C1310 2.029 . S
C2127 C1045 2.031 . S
C2132 C1363 2.031 . S
C2137 C1098 2.042 . S
C2142 C1628 2.042 . S
C2147 C1151 2.044 . S
C2152 C1681 2.044 . S
C2157 C1522 2.042 . S
C2162 C1204 2.042 . S
C2167 C1575 2.044 . S
C2172 C1257 2.044 . S
C2177 C29 1.572 . S
C2182 C1354 1.572 . S
C2187 C1301 1.572 . S
C2192 C82 1.572 . S
C2197 C135 1.574 . S
C2202 C1460 1.574 . S
C2207 C188 1.574 . S
C2212 C1407 1.574 . S
C2217 C241 1.577 . S
C2222 C1566 1.577 . S
C2227 C294 1.576 . S
C2232 C1513 1.576 . S
C2237 C1672 1.576 . S
C2242 C347 1.576 . S
C2247 C1619 1.576 . S
C2252 C400 1.576 . S
C2257 C930 1.574 . S
C2262 C453 1.574 . S
C2267 C877 1.574 . S
C2272 C506 1.574 . S
C2277 C559 1.572 . S
C2282 C1036 1.572 . S
C2287 C612 1.573 . S
C2292 C983 1.573 . S
C2297 C1142 1.577 . S
C2302 C665 1.577 . S
C2307 C718 1.576 . S
C2312 C1089 1.576 . S
C2317 C771 1.577 . S
C2322 C1248 1.577 . S
C2327 C824 1.577 . S
C2332 C1195 1.577 . S
