# Generated by pormake.
# Topology wjg, (4)-cn, num edge types: 1
# Building blocks:
#     Node 0, Type 0, BuildingBlock: UXUYUI_clean_sbu_0, # of connection points: 4
#     Node 1, Type 0, BuildingBlock: UXUYUI_clean_sbu_0, # of connection points: 4
#     Node 2, Type 0, BuildingBlock: UXUYUI_clean_sbu_0, # of connection points: 4
#     Node 3, Type 0, BuildingBlock: UXUYUI_clean_sbu_0, # of connection points: 4
#     Node 4, Type 0, BuildingBlock: UXUYUI_clean_sbu_0, # of connection points: 4
#     Node 5, Type 0, BuildingBlock: UXUYUI_clean_sbu_0, # of connection points: 4
#     Node 6, Type 0, BuildingBlock: UXUYUI_clean_sbu_0, # of connection points: 4
#     Node 7, Type 0, BuildingBlock: UXUYUI_clean_sbu_0, # of connection points: 4
#     Node 8, Type 0, BuildingBlock: UXUYUI_clean_sbu_0, # of connection points: 4
#     Node 9, Type 0, BuildingBlock: UXUYUI_clean_sbu_0, # of connection points: 4
#     Node 10, Type 0, BuildingBlock: UXUYUI_clean_sbu_0, # of connection points: 4
#     Node 11, Type 0, BuildingBlock: UXUYUI_clean_sbu_0, # of connection points: 4
#     Edge 12, Type (0, 0), BuildingBlock: OJICUG_clean_linker_0, # of connection points: 2
#     Edge 13, Type (0, 0), BuildingBlock: OJICUG_clean_linker_0, # of connection points: 2
#     Edge 14, Type (0, 0), BuildingBlock: OJICUG_clean_linker_0, # of connection points: 2
#     Edge 15, Type (0, 0), BuildingBlock: OJICUG_clean_linker_0, # of connection points: 2
#     Edge 16, Type (0, 0), BuildingBlock: OJICUG_clean_linker_0, # of connection points: 2
#     Edge 17, Type (0, 0), BuildingBlock: OJICUG_clean_linker_0, # of connection points: 2
#     Edge 18, Type (0, 0), BuildingBlock: OJICUG_clean_linker_0, # of connection points: 2
#     Edge 19, Type (0, 0), BuildingBlock: OJICUG_clean_linker_0, # of connection points: 2
#     Edge 20, Type (0, 0), BuildingBlock: OJICUG_clean_linker_0, # of connection points: 2
#     Edge 21, Type (0, 0), BuildingBlock: OJICUG_clean_linker_0, # of connection points: 2
#     Edge 22, Type (0, 0), BuildingBlock: OJICUG_clean_linker_0, # of connection points: 2
#     Edge 23, Type (0, 0), BuildingBlock: OJICUG_clean_linker_0, # of connection points: 2
#     Edge 24, Type (0, 0), BuildingBlock: OJICUG_clean_linker_0, # of connection points: 2
#     Edge 25, Type (0, 0), BuildingBlock: OJICUG_clean_linker_0, # of connection points: 2
#     Edge 26, Type (0, 0), BuildingBlock: OJICUG_clean_linker_0, # of connection points: 2
#     Edge 27, Type (0, 0), BuildingBlock: OJICUG_clean_linker_0, # of connection points: 2
#     Edge 28, Type (0, 0), BuildingBlock: OJICUG_clean_linker_0, # of connection points: 2
#     Edge 29, Type (0, 0), BuildingBlock: OJICUG_clean_linker_0, # of connection points: 2
#     Edge 30, Type (0, 0), BuildingBlock: OJICUG_clean_linker_0, # of connection points: 2
#     Edge 31, Type (0, 0), BuildingBlock: OJICUG_clean_linker_0, # of connection points: 2
#     Edge 32, Type (0, 0), BuildingBlock: OJICUG_clean_linker_0, # of connection points: 2
#     Edge 33, Type (0, 0), BuildingBlock: OJICUG_clean_linker_0, # of connection points: 2
#     Edge 34, Type (0, 0), BuildingBlock: OJICUG_clean_linker_0, # of connection points: 2
#     Edge 35, Type (0, 0), BuildingBlock: OJICUG_clean_linker_0, # of connection points: 2
# Relax obj value: 0.406
# Max RMSD: 0.171
# Mean RMSD: 0.170
data_MOF--net-wjg--node1-UXUYUI_clean_sbu_0--edge1-OJICUG_clean_linker_0
_symmetry_space_group_name_H-M    P1
_symmetry_Int_Tables_number       1
_symmetry_cell_setting            triclinic
loop_
_symmetry_equiv_pos_as_xyz
'x, y, z'
_cell_length_a     42.520425
_cell_length_b     42.466836
_cell_length_c     43.432203
_cell_angle_alpha  90.001032
_cell_angle_beta   90.018586
_cell_angle_gamma 120.02535
loop_
_atom_site_label
_atom_site_type_symbol
_atom_site_fract_x
_atom_site_fract_y
_atom_site_fract_z
_atom_type_partial_charge
Li0 Li 0.20367 0.45799 0.30536 0.0
Li1 Li 0.15476 0.40831 0.3367 0.0
Li2 Li 0.19306 0.39527 0.30376 0.0
Li3 Li 0.14714 0.40555 0.28183 0.0
C4 C 0.23575 0.42952 0.35325 0.0
N5 N 0.29273 0.42786 0.38227 0.0
C6 C 0.22977 0.40976 0.38048 0.0
C7 C 0.27075 0.44868 0.34092 0.0
C8 C 0.25891 0.40919 0.39477 0.0
C9 C 0.29919 0.44743 0.3559 0.0
C10 C 0.13076 0.45396 0.32792 0.0
C11 C 0.0735 0.43811 0.35173 0.0
N12 N 0.08915 0.47148 0.36522 0.0
C13 C 0.14623 0.4882 0.34178 0.0
C14 C 0.09406 0.42879 0.33269 0.0
C15 C 0.12476 0.4965 0.36065 0.0
C16 C 0.25594 0.52991 0.28387 0.0
N17 N 0.23906 0.5078 0.30828 0.0
C18 C 0.27709 0.55444 0.34366 0.0
C19 C 0.24844 0.5196 0.33772 0.0
C20 C 0.29646 0.57739 0.31903 0.0
C21 C 0.28503 0.56511 0.28877 0.0
H22 H 0.24777 0.51978 0.26069 0.0
H23 H 0.23418 0.50145 0.35665 0.0
C24 C 0.12295 0.36343 0.387 0.0
N25 N 0.13752 0.39837 0.37724 0.0
C26 C 0.12511 0.35613 0.41802 0.0
C27 C 0.15403 0.42066 0.42843 0.0
C28 C 0.15172 0.42674 0.39723 0.0
C29 C 0.14261 0.3852 0.43882 0.0
H30 H 0.11342 0.34163 0.37034 0.0
H31 H 0.16478 0.4543 0.38862 0.0
C32 C 0.22354 0.42675 0.24822 0.0
N33 N 0.27239 0.42478 0.20736 0.0
C34 C 0.21163 0.39927 0.22605 0.0
C35 C 0.26032 0.4533 0.24953 0.0
C36 C 0.23673 0.39871 0.20563 0.0
C37 C 0.28458 0.45182 0.22869 0.0
C38 C 0.11317 0.33411 0.2995 0.0
C39 C 0.12107 0.31084 0.28269 0.0
C40 C 0.07703 0.32407 0.30533 0.0
C41 C 0.09255 0.27812 0.27149 0.0
C42 C 0.04928 0.29114 0.29369 0.0
N43 N 0.05755 0.26905 0.27714 0.0
C44 C 0.20135 0.34226 0.33073 0.0
C45 C 0.24313 0.36845 0.2895 0.0
C46 C 0.2158 0.32029 0.3386 0.0
N47 N 0.21527 0.36596 0.30675 0.0
C48 C 0.25784 0.34625 0.29611 0.0
C49 C 0.2443 0.32221 0.32113 0.0
H50 H 0.17943 0.34111 0.34424 0.0
H51 H 0.25447 0.38789 0.27105 0.0
C52 C 0.09248 0.40919 0.247 0.0
N53 N 0.11198 0.39191 0.24996 0.0
C54 C 0.06512 0.39774 0.22475 0.0
C55 C 0.07873 0.35123 0.20904 0.0
C56 C 0.10608 0.36392 0.23113 0.0
C57 C 0.05767 0.36798 0.20586 0.0
H58 H 0.09785 0.43153 0.26215 0.0
H59 H 0.12215 0.35092 0.2336 0.0
O60 O 0.20743 0.42982 0.33856 0.0
O61 O 0.15139 0.44519 0.30959 0.0
O62 O 0.19924 0.42821 0.26797 0.0
O63 O 0.14071 0.36631 0.31059 0.0
H64 H 0.20286 0.39469 0.3903 0.0
H65 H 0.27587 0.4642 0.31995 0.0
H66 H 0.25462 0.39385 0.41576 0.0
H67 H 0.32639 0.46201 0.34654 0.0
H68 H 0.0451 0.41883 0.35575 0.0
H69 H 0.17453 0.5081 0.33811 0.0
H70 H 0.08165 0.40234 0.32185 0.0
H71 H 0.1364 0.52283 0.37167 0.0
H72 H 0.28447 0.56304 0.36732 0.0
H73 H 0.29935 0.58186 0.26911 0.0
H74 H 0.11628 0.32845 0.42496 0.0
H75 H 0.16716 0.44377 0.44382 0.0
H76 H 0.18338 0.37848 0.22467 0.0
H77 H 0.27013 0.47474 0.26648 0.0
H78 H 0.22787 0.37752 0.18843 0.0
H79 H 0.31311 0.47215 0.22951 0.0
H80 H 0.1489 0.3182 0.27794 0.0
H81 H 0.07048 0.34152 0.31866 0.0
H82 H 0.09824 0.25998 0.25823 0.0
H83 H 0.02117 0.28311 0.29786 0.0
H84 H 0.20481 0.30195 0.35804 0.0
H85 H 0.28009 0.34842 0.28236 0.0
H86 H 0.04934 0.41128 0.22288 0.0
H87 H 0.07405 0.3285 0.19457 0.0
Li88 Li 0.72476 0.18927 0.64429 0.0
Li89 Li 0.7277 0.14013 0.67433 0.0
Li90 Li 0.7781 0.1806 0.64153 0.0
Li91 Li 0.72391 0.13536 0.61991 0.0
C92 C 0.78542 0.21798 0.69464 0.0
N93 N 0.84309 0.26804 0.72981 0.0
C94 C 0.80403 0.20656 0.71405 0.0
C95 C 0.79633 0.25494 0.693 0.0
C96 C 0.83305 0.23225 0.73167 0.0
C97 C 0.82549 0.2798 0.711 0.0
C98 C 0.65845 0.11833 0.66789 0.0
C99 C 0.61956 0.06554 0.69849 0.0
N100 N 0.60158 0.08246 0.70878 0.0
C101 C 0.63937 0.13506 0.67853 0.0
C102 C 0.64827 0.08316 0.67771 0.0
C103 C 0.61078 0.11653 0.69928 0.0
C104 C 0.70244 0.23908 0.62304 0.0
N105 N 0.70883 0.22348 0.64776 0.0
C106 C 0.70224 0.26359 0.6822 0.0
C107 C 0.70737 0.23412 0.67698 0.0
C108 C 0.69845 0.28222 0.65706 0.0
C109 C 0.69727 0.26882 0.62719 0.0
H110 H 0.70329 0.22968 0.60007 0.0
H111 H 0.71218 0.22087 0.69619 0.0
C112 C 0.74051 0.10833 0.72575 0.0
N113 N 0.72109 0.12363 0.7153 0.0
C114 C 0.75305 0.11429 0.75612 0.0
C115 C 0.72192 0.14806 0.76481 0.0
C116 C 0.71006 0.14151 0.7344 0.0
C117 C 0.74566 0.1364 0.7754 0.0
H118 H 0.75039 0.09582 0.7097 0.0
H119 H 0.69633 0.15501 0.72505 0.0
C120 C 0.78072 0.2143 0.59088 0.0
N121 N 0.83983 0.26767 0.5592 0.0
C122 C 0.80373 0.20559 0.57461 0.0
C123 C 0.78783 0.2502 0.59098 0.0
C124 C 0.83348 0.23294 0.55879 0.0
C125 C 0.8178 0.27677 0.57481 0.0
C126 C 0.75481 0.09791 0.63416 0.0
C127 C 0.77677 0.10161 0.60891 0.0
C128 C 0.73022 0.06322 0.64524 0.0
C129 C 0.77319 0.07046 0.59471 0.0
C130 C 0.7275 0.03274 0.63044 0.0
N131 N 0.7488 0.03696 0.60565 0.0
C132 C 0.84539 0.18688 0.65342 0.0
C133 C 0.84929 0.24356 0.64329 0.0
C134 C 0.88119 0.20435 0.66393 0.0
N135 N 0.82996 0.20659 0.64401 0.0
C136 C 0.88519 0.26215 0.65357 0.0
C137 C 0.90123 0.2425 0.66493 0.0
H138 H 0.82918 0.1576 0.6548 0.0
H139 H 0.83617 0.25874 0.63691 0.0
C140 C 0.71803 0.11265 0.55806 0.0
N141 N 0.70357 0.10192 0.58664 0.0
C142 C 0.70578 0.08793 0.5337 0.0
C143 C 0.66307 0.04183 0.56839 0.0
C144 C 0.6761 0.06751 0.59207 0.0
C145 C 0.67827 0.05184 0.53881 0.0
H146 H 0.73954 0.14023 0.55428 0.0
H147 H 0.6649 0.05978 0.61495 0.0
O148 O 0.75724 0.19326 0.67681 0.0
O149 O 0.68672 0.13618 0.64776 0.0
O150 O 0.75135 0.18783 0.60645 0.0
O151 O 0.75725 0.12808 0.64784 0.0
H152 H 0.79672 0.17831 0.71501 0.0
H153 H 0.7829 0.26447 0.67759 0.0
H154 H 0.84776 0.22377 0.74667 0.0
H155 H 0.83429 0.30848 0.70986 0.0
H156 H 0.61159 0.03843 0.70647 0.0
H157 H 0.64646 0.16201 0.67082 0.0
H158 H 0.66266 0.06978 0.66969 0.0
H159 H 0.59588 0.12921 0.7078 0.0
H160 H 0.70364 0.27308 0.70558 0.0
H161 H 0.69387 0.28208 0.60721 0.0
H162 H 0.77103 0.10458 0.7635 0.0
H163 H 0.71594 0.16566 0.77861 0.0
H164 H 0.79889 0.17809 0.57438 0.0
H165 H 0.77081 0.25771 0.60377 0.0
H166 H 0.85154 0.22656 0.54622 0.0
H167 H 0.82367 0.30467 0.57482 0.0
H168 H 0.79626 0.12824 0.6003 0.0
H169 H 0.71318 0.05983 0.66487 0.0
H170 H 0.78981 0.07293 0.57499 0.0
H171 H 0.70837 0.00572 0.63861 0.0
H172 H 0.89228 0.18811 0.67282 0.0
H173 H 0.89979 0.2916 0.65364 0.0
H174 H 0.71848 0.09674 0.51134 0.0
H175 H 0.64146 0.01443 0.57323 0.0
Li176 Li 0.59068 0.74504 -0.00072 0.0
Li177 Li 0.53585 0.7395 0.9721 0.0
Li178 Li 0.58711 0.73739 0.94365 0.0
Li179 Li 0.59618 0.79256 0.96614 0.0
C180 C 0.54355 0.67046 0.98892 0.0
N181 N 0.52468 0.60466 0.01652 0.0
C182 C 0.51413 0.65437 0.00921 0.0
C183 C 0.56286 0.65264 0.98216 0.0
C184 C 0.50517 0.62124 0.02309 0.0
C185 C 0.55304 0.61952 -0.00352 0.0
C186 C 0.56771 0.80306 0.0171 0.0
C187 C 0.54537 0.84494 0.02268 0.0
N188 N 0.57157 0.86383 0.04404 0.0
C189 C 0.59435 0.82282 0.03916 0.0
C190 C 0.54295 0.81413 0.00879 0.0
C191 C 0.59588 0.85348 0.0525 0.0
C192 C 0.63921 0.76387 0.04866 0.0
N193 N 0.60453 0.74067 0.03949 0.0
C194 C 0.58244 0.7372 0.09048 0.0
C195 C 0.5766 0.72607 0.05985 0.0
C196 C 0.6173 0.76398 0.10003 0.0
C197 C 0.64631 0.77572 0.07919 0.0
H198 H 0.66061 0.77672 0.03179 0.0
H199 H 0.5491 0.70967 0.05162 0.0
C200 C 0.46222 0.71728 0.95564 0.0
N201 N 0.48614 0.723 0.97865 0.0
C202 C 0.42731 0.71059 0.96269 0.0
C203 C 0.44202 0.7139 0.01683 0.0
C204 C 0.47653 0.72067 0.00875 0.0
C205 C 0.41721 0.70979 0.99368 0.0
H206 H 0.4707 0.71936 0.93189 0.0
H207 H 0.49626 0.72544 0.02653 0.0
C208 C 0.65747 0.76638 0.96642 0.0
N209 N 0.71475 0.75342 0.96086 0.0
C210 C 0.68953 0.79177 0.95179 0.0
C211 C 0.65477 0.73469 0.97862 0.0
C212 C 0.71812 0.78464 0.94908 0.0
C213 C 0.68396 0.72855 0.97549 0.0
C214 C 0.565 0.79072 0.91283 0.0
C215 C 0.59743 0.81006 0.89641 0.0
C216 C 0.53728 0.79893 0.90872 0.0
C217 C 0.6017 0.83752 0.8762 0.0
C218 C 0.54256 0.82652 0.88823 0.0
N219 N 0.5744 0.84511 0.87255 0.0
C220 C 0.57649 0.68093 0.90224 0.0
C221 C 0.62923 0.73816 0.89391 0.0
C222 C 0.58622 0.66554 0.87824 0.0
N223 N 0.59833 0.71648 0.90985 0.0
C224 C 0.6401 0.72396 0.86998 0.0
C225 C 0.61866 0.6871 0.86194 0.0
H226 H 0.55173 0.66444 0.91503 0.0
H227 H 0.64581 0.76644 0.90008 0.0
C228 C 0.65572 0.85872 0.97952 0.0
N229 N 0.62246 0.84448 0.9662 0.0
C230 C 0.67608 0.89576 0.98585 0.0
C231 C 0.628 0.90331 0.964 0.0
C232 C 0.60828 0.86588 0.95846 0.0
C233 C 0.66228 0.91868 0.97825 0.0
H234 H 0.66577 0.84098 0.98664 0.0
H235 H 0.58116 0.85387 0.94918 0.0
O236 O 0.55241 0.70271 0.97484 0.0
O237 O 0.5662 0.77335 0.00335 0.0
O238 O 0.62911 0.77286 0.96888 0.0
O239 O 0.56028 0.76367 0.93263 0.0
H240 H 0.49843 0.66736 0.01429 0.0
H241 H 0.58503 0.66404 0.96585 0.0
H242 H 0.48264 0.60866 0.03903 0.0
H243 H 0.56787 0.60555 0.99154 0.0
H244 H 0.52652 0.85394 0.01636 0.0
H245 H 0.61391 0.81486 0.04566 0.0
H246 H 0.52243 0.7994 0.99148 0.0
H247 H 0.61645 0.86911 0.06951 0.0
H248 H 0.55913 0.7279 0.10549 0.0
H249 H 0.6736 0.79623 0.08569 0.0
H250 H 0.40914 0.70789 0.94411 0.0
H251 H 0.4352 0.71291 0.04097 0.0
H252 H 0.69211 0.81654 0.94233 0.0
H253 H 0.63065 0.71537 0.9908 0.0
H254 H 0.74297 0.80391 0.9376 0.0
H255 H 0.68219 0.70409 0.98481 0.0
H256 H 0.61924 0.80426 0.89954 0.0
H257 H 0.51211 0.78441 0.9214 0.0
H258 H 0.62674 0.85285 0.86346 0.0
H259 H 0.5214 0.83326 0.88488 0.0
H260 H 0.56859 0.63714 0.87256 0.0
H261 H 0.66558 0.74156 0.85848 0.0
H262 H 0.70182 0.90599 -0.00237 0.0
H263 H 0.61627 0.91986 0.95758 0.0
Li264 Li 0.84273 0.59312 0.33724 0.0
Li265 Li 0.80135 0.53719 0.30949 0.0
Li266 Li 0.85057 0.59122 0.2816 0.0
Li267 Li 0.79679 0.59118 0.30108 0.0
C268 C 0.88279 0.55704 0.32677 0.0
N269 N 0.93876 0.54998 0.35179 0.0
C270 C 0.87524 0.52849 0.34697 0.0
C271 C 0.91883 0.58155 0.31881 0.0
C272 C 0.9039 0.52551 0.35952 0.0
C273 C 0.94674 0.57766 0.33183 0.0
C274 C 0.76308 0.53972 0.35893 0.0
C275 C 0.70197 0.49051 0.36779 0.0
N276 N 0.71043 0.48925 0.39779 0.0
C277 C 0.77105 0.53798 0.3899 0.0
C278 C 0.72814 0.51588 0.34783 0.0
C279 C 0.74411 0.51229 0.40916 0.0
C280 C 0.85174 0.63768 0.38452 0.0
N281 N 0.86134 0.61276 0.3764 0.0
C282 C 0.87361 0.60567 0.4287 0.0
C283 C 0.87379 0.59794 0.39745 0.0
C284 C 0.86016 0.62846 0.43799 0.0
C285 C 0.85112 0.64616 0.41535 0.0
H286 H 0.84107 0.64822 0.36728 0.0
H287 H 0.88055 0.57766 0.39052 0.0
C288 C 0.75255 0.46686 0.28822 0.0
N289 N 0.77309 0.4857 0.31281 0.0
C290 C 0.72387 0.43139 0.29201 0.0
C291 C 0.74008 0.43438 0.34571 0.0
C292 C 0.76878 0.4696 0.34076 0.0
C293 C 0.71601 0.41552 0.32149 0.0
H294 H 0.75681 0.48022 0.26618 0.0
H295 H 0.78529 0.48526 0.36 0.0
C296 C 0.88007 0.66224 0.30582 0.0
N297 N 0.94418 0.72823 0.3058 0.0
C298 C 0.88113 0.69307 0.29328 0.0
C299 C 0.91146 0.66515 0.31883 0.0
C300 C 0.91385 0.72614 0.29333 0.0
C301 C 0.94364 0.69868 0.31848 0.0
C302 C 0.77585 0.56091 0.24824 0.0
C303 C 0.78993 0.58572 0.22394 0.0
C304 C 0.73823 0.53923 0.25164 0.0
C305 C 0.76611 0.5887 0.20357 0.0
C306 C 0.71531 0.54303 0.23082 0.0
N307 N 0.7296 0.5675 0.20742 0.0
C308 C 0.8984 0.58498 0.24036 0.0
C309 C 0.89429 0.63828 0.23436 0.0
C310 C 0.92359 0.59574 0.21638 0.0
N311 N 0.88464 0.60644 0.24898 0.0
C312 C 0.91935 0.6501 0.21035 0.0
C313 C 0.93441 0.62876 0.20106 0.0
H314 H 0.88979 0.55951 0.25214 0.0
H315 H 0.88228 0.65439 0.24115 0.0
C316 C 0.73767 0.6004 0.31652 0.0
N317 N 0.76576 0.6112 0.29649 0.0
C318 C 0.71881 0.6193 0.31847 0.0
C319 C 0.7574 0.65967 0.27844 0.0
C320 C 0.77535 0.63969 0.27708 0.0
C321 C 0.72934 0.65004 0.29996 0.0
H322 H 0.73118 0.5785 0.33234 0.0
H323 H 0.7981 0.648 0.26164 0.0
O324 O 0.85496 0.55998 0.31389 0.0
O325 O 0.7893 0.56454 0.33963 0.0
O326 O 0.84822 0.62963 0.30586 0.0
O327 O 0.79875 0.55822 0.26884 0.0
H328 H 0.84759 0.50895 0.35308 0.0
H329 H 0.92528 0.60325 0.30258 0.0
H330 H 0.89841 0.5037 0.37538 0.0
H331 H 0.97473 0.59656 0.32596 0.0
H332 H 0.67497 0.47173 0.35939 0.0
H333 H 0.79772 0.55616 0.39907 0.0
H334 H 0.72142 0.51666 0.32396 0.0
H335 H 0.75001 0.51066 0.43315 0.0
H336 H 0.88118 0.59179 0.4455 0.0
H337 H 0.84018 0.66352 0.42141 0.0
H338 H 0.70666 0.41746 0.27246 0.0
H339 H 0.73506 0.4235 0.36886 0.0
H340 H 0.85702 0.69147 0.28341 0.0
H341 H 0.91088 0.64193 0.32947 0.0
H342 H 0.91511 0.75015 0.28349 0.0
H343 H 0.96815 0.70125 0.32843 0.0
H344 H 0.81893 0.60269 0.22094 0.0
H345 H 0.72684 0.51978 0.27021 0.0
H346 H 0.77666 0.60793 0.18474 0.0
H347 H 0.68615 0.52655 0.23327 0.0
H348 H 0.93414 0.57822 0.2097 0.0
H349 H 0.92714 0.6759 0.19942 0.0
H350 H 0.69777 0.6113 0.33571 0.0
H351 H 0.76617 0.6831 0.26361 0.0
Li352 Li 0.26584 0.85331 0.67189 0.0
Li353 Li 0.26198 0.80302 0.63935 0.0
Li354 Li 0.26501 0.85793 0.61684 0.0
Li355 Li 0.21031 0.81437 0.64243 0.0
C356 C 0.33563 0.87899 0.65384 0.0
N357 N 0.40262 0.92836 0.67806 0.0
C358 C 0.35451 0.86698 0.67225 0.0
C359 C 0.35113 0.91603 0.64727 0.0
C360 C 0.38824 0.89238 0.68443 0.0
C361 C 0.38494 0.94058 0.65985 0.0
C362 C 0.20661 0.77207 0.69058 0.0
C363 C 0.16191 0.70832 0.69382 0.0
N364 N 0.15046 0.71437 0.72128 0.0
C365 C 0.1944 0.77767 0.71881 0.0
C366 C 0.19027 0.73714 0.67793 0.0
C367 C 0.16599 0.74815 0.73399 0.0
C368 C 0.25895 0.88649 0.72456 0.0
N369 N 0.27715 0.87068 0.71246 0.0
C370 C 0.28015 0.84717 0.7615 0.0
C371 C 0.28943 0.85291 0.73042 0.0
C372 C 0.25764 0.85944 0.77385 0.0
C373 C 0.24911 0.88144 0.75557 0.0
H374 H 0.24797 0.89891 0.70958 0.0
H375 H 0.30183 0.83875 0.71988 0.0
C376 C 0.26651 0.74275 0.61583 0.0
N377 N 0.2736 0.7657 0.63995 0.0
C378 C 0.26895 0.71135 0.61959 0.0
C379 C 0.28732 0.72886 0.67246 0.0
C380 C 0.28447 0.75978 0.66769 0.0
C381 C 0.27852 0.70363 0.64848 0.0
H382 H 0.25728 0.74789 0.59421 0.0
H383 H 0.2889 0.77807 0.68665 0.0
C384 C 0.23722 0.89976 0.64425 0.0
N385 N 0.23999 0.96575 0.63712 0.0
C386 C 0.20633 0.90085 0.63486 0.0
C387 C 0.2693 0.93217 0.65057 0.0
C388 C 0.20834 0.9345 0.63123 0.0
C389 C 0.27022 0.96527 0.64668 0.0
C390 C 0.21441 0.80416 0.57813 0.0
C391 C 0.19214 0.8196 0.57655 0.0
C392 C 0.21952 0.78817 0.55192 0.0
C393 C 0.17523 0.81871 0.54873 0.0
C394 C 0.2021 0.78779 0.52451 0.0
N395 N 0.18051 0.80294 0.5235 0.0
C396 C 0.31539 0.89653 0.56994 0.0
C397 C 0.26433 0.90488 0.57055 0.0
C398 C 0.32987 0.91975 0.54464 0.0
N399 N 0.28339 0.88991 0.58251 0.0
C400 C 0.27786 0.9284 0.54548 0.0
C401 C 0.31112 0.93623 0.53217 0.0
H402 H 0.32967 0.88372 0.57959 0.0
H403 H 0.23854 0.89855 0.58034 0.0
C404 C 0.14925 0.80381 0.67279 0.0
N405 N 0.1595 0.79099 0.64845 0.0
C406 C 0.1133 0.78576 0.68274 0.0
C407 C 0.09866 0.74255 0.64131 0.0
C408 C 0.1352 0.76108 0.63256 0.0
C409 C 0.08733 0.75448 0.66709 0.0
H410 H 0.16948 0.82725 0.68535 0.0
H411 H 0.14431 0.75112 0.61362 0.0
O412 O 0.30257 0.85448 0.6417 0.0
O413 O 0.23385 0.80079 0.67504 0.0
O414 O 0.23569 0.86702 0.6478 0.0
O415 O 0.23166 0.80516 0.60501 0.0
H416 H 0.3432 0.83836 0.67714 0.0
H417 H 0.3374 0.92573 0.63241 0.0
H418 H 0.40302 0.88348 0.6989 0.0
H419 H 0.39719 0.96935 0.65503 0.0
H420 H 0.14891 0.68116 0.68426 0.0
H421 H 0.20635 0.80459 0.72869 0.0
H422 H 0.19909 0.73242 0.65592 0.0
H423 H 0.1562 0.75213 0.7558 0.0
H424 H 0.28686 0.82961 0.77458 0.0
H425 H 0.23204 0.89162 0.76433 0.0
H426 H 0.26214 0.69267 0.60046 0.0
H427 H 0.2941 0.72369 0.69523 0.0
H428 H 0.18111 0.87597 0.63029 0.0
H429 H 0.29305 0.93174 0.65879 0.0
H430 H 0.18473 0.93577 0.62376 0.0
H431 H 0.29491 0.99058 0.6514 0.0
H432 H 0.18818 0.83242 0.5965 0.0
H433 H 0.23684 0.77628 0.55271 0.0
H434 H 0.15799 0.83064 0.54718 0.0
H435 H 0.2058 0.7755 0.50404 0.0
H436 H 0.35528 0.92448 0.53484 0.0
H437 H 0.26259 0.94073 0.53695 0.0
H438 H 0.10635 0.79566 0.70311 0.0
H439 H 0.07966 0.719 0.62814 0.0
Li440 Li 0.46327 0.2598 0.96678 0.0
Li441 Li 0.41437 0.26031 -0.00112 0.0
Li442 Li 0.40031 0.20779 0.9669 0.0
Li443 Li 0.40971 0.26229 0.94461 0.0
C444 C 0.43327 0.20058 0.01736 0.0
N445 N 0.42729 0.14234 0.05056 0.0
C446 C 0.40701 0.18458 0.04042 0.0
C447 C 0.45647 0.18694 0.01114 0.0
C448 C 0.40443 0.15518 0.05697 0.0
C449 C 0.45302 0.15747 0.0282 0.0
C450 C 0.46249 0.32922 0.98912 0.0
C451 C 0.45147 0.37144 0.01772 0.0
N452 N 0.48682 0.38942 0.02682 0.0
C453 C 0.49881 0.34836 -0.00154 0.0
C454 C 0.43871 0.34106 -0.00145 0.0
C455 C 0.51055 0.37863 0.01763 0.0
C456 C 0.53599 0.27981 0.94625 0.0
N457 N 0.51312 0.27446 0.97007 0.0
C458 C 0.55885 0.28387 0.00669 0.0
C459 C 0.52419 0.27737 -0.00021 0.0
C460 C 0.58244 0.28719 0.98274 0.0
C461 C 0.57106 0.28611 0.95212 0.0
H462 H 0.52665 0.27792 0.92279 0.0
H463 H 0.50559 0.27364 0.01825 0.0
C464 C 0.37506 0.25331 0.05296 0.0
N465 N 0.40864 0.26998 0.04002 0.0
C466 C 0.37115 0.24447 0.08426 0.0
C467 C 0.43652 0.27309 0.08832 0.0
C468 C 0.43916 0.28147 0.05715 0.0
C469 C 0.40208 0.25245 0.10187 0.0
H470 H 0.35125 0.24316 0.03847 0.0
H471 H 0.46527 0.293 0.04591 0.0
C472 C 0.42783 0.20338 0.9137 0.0
N473 N 0.41893 0.14424 0.87994 0.0
C474 C 0.39445 0.17995 0.89979 0.0
C475 C 0.45665 0.19665 0.91045 0.0
C476 C 0.39049 0.1502 0.88285 0.0
C477 C 0.45164 0.16666 0.89326 0.0
C478 C 0.34143 0.23088 0.96168 0.0
C479 C 0.31869 0.2033 0.94132 0.0
C480 C 0.33403 0.25859 0.96888 0.0
C481 C 0.28932 0.20435 0.92799 0.0
C482 C 0.30444 0.25873 0.95502 0.0
N483 N 0.28291 0.23186 0.93501 0.0
C484 C 0.34023 0.14235 0.98449 0.0
C485 C 0.38737 0.13419 0.96423 0.0
C486 C 0.32021 0.1057 0.99249 0.0
N487 N 0.37308 0.15587 0.97053 0.0
C488 C 0.36806 0.09721 0.97151 0.0
C489 C 0.33409 0.08253 0.9861 0.0
H490 H 0.33018 0.16038 0.99061 0.0
H491 H 0.41428 0.14571 0.95463 0.0
C492 C 0.40517 0.31876 0.9138 0.0
N493 N 0.39533 0.28301 0.91244 0.0
C494 C 0.39279 0.33377 0.89155 0.0
C495 C 0.36076 0.27499 0.86681 0.0
C496 C 0.37411 0.2613 0.88927 0.0
C497 C 0.36984 0.31168 0.86781 0.0
H498 H 0.4223 0.33554 0.93233 0.0
H499 H 0.36663 0.23304 0.88867 0.0
O500 O 0.43586 0.22904 0.00056 0.0
O501 O 0.45042 0.29933 0.97054 0.0
O502 O 0.4324 0.23292 0.93013 0.0
O503 O 0.37069 0.23068 0.97455 0.0
H504 H 0.38847 0.19439 0.04523 0.0
H505 H 0.47661 0.19866 0.99307 0.0
H506 H 0.38417 0.14249 0.07483 0.0
H507 H 0.47069 0.14654 0.02356 0.0
H508 H 0.43327 0.38073 0.02536 0.0
H509 H 0.51779 0.34005 0.99094 0.0
H510 H 0.41065 0.32682 0.99129 0.0
H511 H 0.53855 0.39359 0.02515 0.0
H512 H 0.56677 0.2854 0.03059 0.0
H513 H 0.58839 0.28848 0.93295 0.0
H514 H 0.34412 0.22898 0.0939 0.0
H515 H 0.4611 0.27936 0.10067 0.0
H516 H 0.37162 0.18418 0.90251 0.0
H517 H 0.4825 0.21406 0.92132 0.0
H518 H 0.36474 0.13176 0.87214 0.0
H519 H 0.47371 0.16111 0.89064 0.0
H520 H 0.32386 0.18151 0.93563 0.0
H521 H 0.35096 0.27978 0.98497 0.0
H522 H 0.27169 0.18335 0.91201 0.0
H523 H 0.29857 0.28017 0.96021 0.0
H524 H 0.29466 0.09597 0.00445 0.0
H525 H 0.37985 0.08046 0.96599 0.0
H526 H 0.40105 0.36233 0.89303 0.0
H527 H 0.34266 0.25665 0.84938 0.0
Li528 Li 0.60557 0.8592 0.36245 0.0
Li529 Li 0.61505 0.81213 0.34498 0.0
Li530 Li 0.6015 0.84919 0.30955 0.0
Li531 Li 0.55181 0.80491 0.3439 0.0
C532 C 0.67593 0.89118 0.34705 0.0
N533 N 0.73886 0.94668 0.37257 0.0
C534 C 0.69786 0.88312 0.36559 0.0
C535 C 0.68626 0.92742 0.3411 0.0
C536 C 0.72952 0.91158 0.37836 0.0
C537 C 0.71808 0.9551 0.35435 0.0
C538 C 0.58438 0.81301 0.41031 0.0
C539 C 0.5634 0.82913 0.45598 0.0
N540 N 0.58828 0.82547 0.47296 0.0
C541 C 0.60955 0.80912 0.4282 0.0
C542 C 0.56088 0.82278 0.42427 0.0
C543 C 0.61115 0.81563 0.45986 0.0
C544 C 0.6047 0.91704 0.39388 0.0
N545 N 0.62051 0.89604 0.39344 0.0
C546 C 0.65458 0.92524 0.43874 0.0
C547 C 0.6452 0.89982 0.41517 0.0
C548 C 0.63837 0.94701 0.44006 0.0
C549 C 0.61332 0.94289 0.41707 0.0
H550 H 0.58491 0.91331 0.37652 0.0
H551 H 0.65719 0.88267 0.41457 0.0
C552 C 0.66681 0.7972 0.3231 0.0
N553 N 0.63938 0.78527 0.34392 0.0
C554 C 0.68253 0.77614 0.31611 0.0
C555 C 0.64205 0.73121 0.35277 0.0
C556 C 0.62701 0.75321 0.35903 0.0
C557 C 0.66983 0.74239 0.33066 0.0
H558 H 0.67525 0.82235 0.31082 0.0
H559 H 0.60454 0.74411 0.37494 0.0
C560 C 0.55721 0.87467 0.31493 0.0
N561 N 0.53876 0.91113 0.27245 0.0
C562 C 0.5216 0.85891 0.30399 0.0
C563 C 0.58329 0.90921 0.30468 0.0
C564 C 0.51284 0.87772 0.2824 0.0
C565 C 0.57348 0.92714 0.28308 0.0
C566 C 0.57586 0.76567 0.29908 0.0
C567 C 0.59716 0.76825 0.27364 0.0
C568 C 0.55317 0.73173 0.31243 0.0
C569 C 0.59539 0.73676 0.26196 0.0
C570 C 0.55215 0.70087 0.30006 0.0
N571 N 0.57312 0.704 0.2753 0.0
C572 C 0.64264 0.87396 0.25581 0.0
C573 C 0.57849 0.84117 0.25004 0.0
C574 C 0.64712 0.86464 0.2259 0.0
N575 N 0.60866 0.86065 0.26751 0.0
C576 C 0.58171 0.83111 0.22025 0.0
C577 C 0.61625 0.84106 0.20868 0.0
H578 H 0.66599 0.88781 0.27079 0.0
H579 H 0.55192 0.82937 0.2605 0.0
C580 C 0.48327 0.75293 0.36947 0.0
N581 N 0.50195 0.76979 0.34352 0.0
C582 C 0.44767 0.72388 0.36731 0.0
C583 C 0.45122 0.73086 0.31193 0.0
C584 C 0.48663 0.75969 0.31516 0.0
C585 C 0.43145 0.71209 0.33818 0.0
H586 H 0.49637 0.76122 0.39168 0.0
H587 H 0.50249 0.77329 0.29494 0.0
O588 O 0.64491 0.86368 0.33428 0.0
O589 O 0.5827 0.80712 0.37928 0.0
O590 O 0.56641 0.85664 0.33593 0.0
O591 O 0.57808 0.79634 0.31145 0.0
H592 H 0.69028 0.85521 0.37041 0.0
H593 H 0.66987 0.93411 0.32646 0.0
H594 H 0.74661 0.90577 0.39296 0.0
H595 H 0.72629 0.98329 0.35011 0.0
H596 H 0.54565 0.83705 0.46708 0.0
H597 H 0.62787 0.80152 0.41767 0.0
H598 H 0.54132 0.82596 0.41067 0.0
H599 H 0.63065 0.81297 0.47399 0.0
H600 H 0.67438 0.92782 0.45574 0.0
H601 H 0.59991 0.95886 0.4174 0.0
H602 H 0.70336 0.78555 0.29854 0.0
H603 H 0.63169 0.70554 0.36473 0.0
H604 H 0.50092 0.8325 0.31208 0.0
H605 H 0.61084 0.92192 0.31321 0.0
H606 H 0.48543 0.86577 0.27361 0.0
H607 H 0.59347 0.95378 0.27479 0.0
H608 H 0.61526 0.79434 0.26331 0.0
H609 H 0.5369 0.7293 0.3324 0.0
H610 H 0.61185 0.73839 0.24237 0.0
H611 H 0.53483 0.67444 0.31023 0.0
H612 H 0.67411 0.87244 0.21771 0.0
H613 H 0.55739 0.81289 0.20749 0.0
H614 H 0.43328 0.71031 0.38815 0.0
H615 H 0.44012 0.72234 0.28902 0.0
Li616 Li 0.8104 0.61063 0.70205 0.0
Li617 Li 0.75039 0.6003 0.71197 0.0
Li618 Li 0.75857 0.54779 0.6946 0.0
Li619 Li 0.77016 0.59845 0.66043 0.0
C620 C 0.79829 0.58257 0.75727 0.0
N621 N 0.84719 0.59505 0.80402 0.0
C622 C 0.81375 0.61522 0.7737 0.0
C623 C 0.80742 0.55613 0.76471 0.0
C624 C 0.83852 0.62106 0.79722 0.0
C625 C 0.83226 0.56299 0.78842 0.0
C626 C 0.77799 0.66442 0.68017 0.0
C627 C 0.73385 0.67596 0.65557 0.0
N628 N 0.75342 0.71145 0.66421 0.0
C629 C 0.79771 0.70106 0.68872 0.0
C630 C 0.74584 0.65181 0.66342 0.0
C631 C 0.78482 0.72438 0.68047 0.0
C632 C 0.87762 0.67337 0.70278 0.0
N633 N 0.86084 0.63756 0.71029 0.0
C634 C 0.91796 0.63991 0.71471 0.0
C635 C 0.88008 0.62069 0.71669 0.0
C636 C 0.93603 0.67651 0.70515 0.0
C637 C 0.91528 0.69341 0.7 0.0
H638 H 0.86161 0.6857 0.69669 0.0
H639 H 0.86598 0.59184 0.72146 0.0
C640 C 0.68666 0.58893 0.74272 0.0
N641 N 0.7224 0.61286 0.73746 0.0
C642 C 0.66636 0.5988 0.76158 0.0
C643 C 0.7201 0.65765 0.76896 0.0
C644 C 0.7394 0.64647 0.75042 0.0
C645 C 0.68312 0.6337 0.77468 0.0
H646 H 0.67401 0.56221 0.73231 0.0
H647 H 0.76805 0.66457 0.74643 0.0
C648 C 0.81572 0.57469 0.64156 0.0
N649 N 0.84525 0.57171 0.5857 0.0
C650 C 0.79664 0.54485 0.62203 0.0
C651 C 0.85001 0.60283 0.63281 0.0
C652 C 0.81198 0.5439 0.59385 0.0
C653 C 0.86442 0.60086 0.60444 0.0
C654 C 0.69385 0.54444 0.66093 0.0
C655 C 0.68922 0.51468 0.64358 0.0
C656 C 0.66738 0.55476 0.65975 0.0
C657 C 0.65854 0.49618 0.6249 0.0
C658 C 0.63709 0.53558 0.64077 0.0
N659 N 0.63334 0.50694 0.62387 0.0
C660 C 0.70837 0.47134 0.69946 0.0
C661 C 0.76987 0.48963 0.68872 0.0
C662 C 0.69802 0.4349 0.69427 0.0
N663 N 0.74363 0.49777 0.69571 0.0
C664 C 0.76079 0.45377 0.68328 0.0
C665 C 0.72432 0.42599 0.68513 0.0
H666 H 0.68807 0.47873 0.70492 0.0
H667 H 0.79771 0.51126 0.68611 0.0
C668 C 0.80551 0.64267 0.61111 0.0
N669 N 0.7743 0.61142 0.61803 0.0
C670 C 0.81891 0.64928 0.5811 0.0
C671 C 0.76594 0.59319 0.56538 0.0
C672 C 0.75364 0.5876 0.59572 0.0
C673 C 0.79991 0.62338 0.55815 0.0
H674 H 0.82191 0.66066 0.62943 0.0
H675 H 0.7293 0.56279 0.60164 0.0
O676 O 0.77439 0.57655 0.73393 0.0
O677 O 0.7901 0.64119 0.68856 0.0
O678 O 0.80086 0.57641 0.66903 0.0
O679 O 0.72321 0.56235 0.68006 0.0
H680 H 0.80694 0.63594 0.76813 0.0
H681 H 0.79562 0.5307 0.75217 0.0
H682 H 0.85088 0.64629 0.81004 0.0
H683 H 0.83973 0.54286 0.79437 0.0
H684 H 0.709 0.66648 0.64259 0.0
H685 H 0.82252 0.71134 0.70191 0.0
H686 H 0.7304 0.62378 0.65635 0.0
H687 H 0.79975 0.75274 0.68706 0.0
H688 H 0.93273 0.62578 0.71936 0.0
H689 H 0.92758 0.72119 0.69191 0.0
H690 H 0.63789 0.57962 0.76561 0.0
H691 H 0.73409 0.68453 0.77917 0.0
H692 H 0.77011 0.52281 0.62841 0.0
H693 H 0.86515 0.6262 0.64753 0.0
H694 H 0.79738 0.52112 0.57841 0.0
H695 H 0.89078 0.6226 0.59727 0.0
H696 H 0.70937 0.5063 0.64409 0.0
H697 H 0.67011 0.5773 0.67344 0.0
H698 H 0.65481 0.4733 0.61117 0.0
H699 H 0.61649 0.54339 0.63956 0.0
H700 H 0.66964 0.41422 0.69597 0.0
H701 H 0.782 0.44793 0.677 0.0
H702 H 0.8453 0.67277 0.57658 0.0
H703 H 0.75011 0.57294 0.54815 0.0
Li704 Li 0.19065 0.80267 0.02188 0.0
Li705 Li 0.14036 0.74495 0.03629 0.0
Li706 Li 0.19791 0.74863 0.02051 0.0
Li707 Li 0.15798 0.75623 0.98276 0.0
C708 C 0.18603 0.78561 0.08482 0.0
N709 N 0.17816 0.81211 0.14064 0.0
C710 C 0.17056 0.80788 0.08603 0.0
C711 C 0.19754 0.77684 0.11198 0.0
C712 C 0.16679 0.821 0.11447 0.0
C713 C 0.19333 0.79051 0.13999 0.0
C714 C 0.10739 0.78026 0.00523 0.0
C715 C 0.04556 0.74983 0.98693 0.0
N716 N 0.04109 0.77685 -0.00092 0.0
C717 C 0.10238 0.80803 0.01712 0.0
C718 C 0.07894 0.75117 0.98966 0.0
C719 C 0.06858 0.80569 0.01395 0.0
C720 C 0.20527 0.86901 0.00129 0.0
N721 N 0.21563 0.85402 0.02386 0.0
C722 C 0.26273 0.91268 0.03979 0.0
C723 C 0.24363 0.87481 0.04316 0.0
C724 C 0.25295 0.92893 0.01621 0.0
C725 C 0.22363 0.90645 -0.00304 0.0
H726 H 0.18348 0.8516 0.98583 0.0
H727 H 0.25163 0.86199 0.06058 0.0
C728 C 0.0908 0.68703 0.07376 0.0
N729 N 0.10094 0.72133 0.06429 0.0
C730 C 0.0626 0.66931 0.09502 0.0
C731 C 0.05612 0.72269 0.09644 0.0
C732 C 0.08448 0.73937 0.07538 0.0
C733 C 0.04484 0.68721 0.10652 0.0
H734 H 0.10472 0.67351 0.06487 0.0
H735 H 0.09373 0.76699 0.06837 0.0
C736 C 0.24263 0.8145 0.98056 0.0
N737 N 0.30769 0.87464 0.96396 0.0
C738 C 0.24465 0.83427 0.95418 0.0
C739 C 0.27367 0.82524 -0.00152 0.0
C740 C 0.27781 0.8646 0.94616 0.0
C741 C 0.30631 0.85576 0.98971 0.0
C742 C 0.12429 0.6819 0.99145 0.0
C743 C 0.13808 0.66442 0.97328 0.0
C744 C 0.08675 0.66757 0.99332 0.0
C745 C 0.11411 0.63344 0.9566 0.0
C746 C 0.06365 0.63651 0.97633 0.0
N747 N 0.07769 0.62026 0.95843 0.0
C748 C 0.24724 0.72892 0.04794 0.0
C749 C 0.24136 0.72639 0.99356 0.0
C750 C 0.27487 0.72022 0.04606 0.0
N751 N 0.23152 0.73215 0.0218 0.0
C752 C 0.26862 0.71756 0.9906 0.0
C753 C 0.28618 0.71491 0.01701 0.0
H754 H 0.23905 0.73409 0.07008 0.0
H755 H 0.2288 0.72992 0.9732 0.0
C756 C 0.14178 0.77823 0.92717 0.0
N757 N 0.15135 0.755 0.93996 0.0
C758 C 0.15395 0.79215 0.89769 0.0
C759 C 0.18339 0.75607 0.89461 0.0
C760 C 0.17045 0.74265 0.92396 0.0
C761 C 0.17675 0.78258 0.88192 0.0
H762 H 0.12854 0.78935 0.94099 0.0
H763 H 0.17946 0.72595 0.93532 0.0
O764 O 0.18975 0.77215 0.0573 0.0
O765 O 0.14034 0.78219 0.00823 0.0
O766 O 0.21027 0.78517 0.98913 0.0
O767 O 0.14741 0.71216 0.00807 0.0
H768 H 0.16133 0.81481 0.06529 0.0
H769 H 0.20953 0.75958 0.11142 0.0
H770 H 0.15477 0.83818 0.11573 0.0
H771 H 0.20208 0.78392 0.1612 0.0
H772 H 0.02327 0.72741 0.97499 0.0
H773 H 0.1243 0.83099 0.02891 0.0
H774 H 0.0828 0.73023 0.97932 0.0
H775 H 0.06422 0.82682 0.02328 0.0
H776 H 0.28502 0.92898 0.05527 0.0
H777 H 0.21565 0.91748 0.978 0.0
H778 H 0.05466 0.64191 0.10222 0.0
H779 H 0.04371 0.73775 0.10529 0.0
H780 H 0.22083 0.82649 0.9402 0.0
H781 H 0.27246 0.81039 0.01912 0.0
H782 H 0.27975 0.88021 0.92584 0.0
H783 H 0.33053 0.86449 0.00342 0.0
H784 H 0.167 0.67467 0.97201 0.0
H785 H 0.07547 0.6801 0.00788 0.0
H786 H 0.12445 0.61981 0.94228 0.0
H787 H 0.03455 0.62525 0.97747 0.0
H788 H 0.28768 0.71833 0.06698 0.0
H789 H 0.27695 0.71451 0.96776 0.0
H790 H 0.14868 0.81288 0.88875 0.0
H791 H 0.2008 0.74799 0.88301 0.0
Li792 Li 0.38932 0.18894 0.35562 0.0
Li793 Li 0.40307 0.1419 0.36809 0.0
Li794 Li 0.45365 0.20475 0.35562 0.0
Li795 Li 0.41131 0.16579 0.31672 0.0
C796 C 0.41511 0.20846 0.41394 0.0
N797 N 0.40687 0.24903 0.45967 0.0
C798 C 0.3997 0.19245 0.44222 0.0
C799 C 0.42611 0.24502 0.40889 0.0
C800 C 0.39582 0.21343 0.46506 0.0
C801 C 0.42177 0.2651 0.43229 0.0
C802 C 0.33181 0.11802 0.35274 0.0
C803 C 0.26893 0.07099 0.34912 0.0
N804 N 0.2643 0.07598 0.37936 0.0
C805 C 0.32641 0.12269 0.38376 0.0
C806 C 0.30286 0.09198 0.33524 0.0
C807 C 0.2921 0.10118 0.3968 0.0
C808 C 0.35063 0.21459 0.3287 0.0
N809 N 0.35703 0.20742 0.35773 0.0
C810 C 0.3196 0.22946 0.37848 0.0
C811 C 0.34142 0.21366 0.38256 0.0
C812 C 0.31389 0.23866 0.34862 0.0
C813 C 0.32961 0.23067 0.3236 0.0
H814 H 0.36253 0.20828 0.30938 0.0
H815 H 0.34598 0.20667 0.4054 0.0
C816 C 0.40611 0.10787 0.4219 0.0
N817 N 0.39033 0.1012 0.39367 0.0
C818 C 0.39537 0.07974 0.44317 0.0
C819 C 0.35358 0.03802 0.40532 0.0
C820 C 0.36492 0.06707 0.38486 0.0
C821 C 0.36836 0.04427 0.43517 0.0
H822 H 0.42634 0.13532 0.42818 0.0
H823 H 0.35281 0.06251 0.36224 0.0
C824 C 0.44889 0.23997 0.3025 0.0
N825 N 0.49197 0.28608 0.25617 0.0
C826 C 0.48005 0.23953 0.29286 0.0
C827 C 0.43981 0.26407 0.28862 0.0
C828 C 0.50146 0.26303 0.26944 0.0
C829 C 0.46185 0.28705 0.26519 0.0
C830 C 0.45209 0.13549 0.32071 0.0
C831 C 0.48671 0.1475 0.30858 0.0
C832 C 0.42323 0.10161 0.31198 0.0
C833 C 0.49186 0.12533 0.28785 0.0
C834 C 0.42949 0.08025 0.29118 0.0
N835 N 0.46339 0.09245 0.27965 0.0
C836 C 0.52953 0.23329 0.36267 0.0
C837 C 0.51023 0.27682 0.36008 0.0
C838 C 0.56576 0.26057 0.35883 0.0
N839 N 0.50265 0.24179 0.3621 0.0
C840 C 0.5459 0.30483 0.35651 0.0
C841 C 0.57405 0.2967 0.35443 0.0
H842 H 0.52264 0.20513 0.36408 0.0
H843 H 0.48846 0.28286 0.35876 0.0
C844 C 0.37271 0.15479 0.26392 0.0
N845 N 0.40494 0.1588 0.27357 0.0
C846 C 0.36901 0.16425 0.23397 0.0
C847 C 0.43092 0.17926 0.22385 0.0
C848 C 0.43319 0.1688 0.25384 0.0
C849 C 0.39907 0.17858 0.21424 0.0
H850 H 0.3511 0.14785 0.28033 0.0
H851 H 0.45878 0.1726 0.26216 0.0
O852 O 0.41909 0.18833 0.39127 0.0
O853 O 0.36519 0.13851 0.33939 0.0
O854 O 0.42752 0.21719 0.3255 0.0
O855 O 0.44632 0.15687 0.34081 0.0
H856 H 0.3907 0.16409 0.44649 0.0
H857 H 0.43691 0.25748 0.38685 0.0
H858 H 0.38397 0.20139 0.48706 0.0
H859 H 0.42999 0.29338 0.42859 0.0
H860 H 0.24629 0.05071 0.33586 0.0
H861 H 0.34843 0.14256 0.39767 0.0
H862 H 0.30661 0.08796 0.31121 0.0
H863 H 0.28759 0.1045 0.4208 0.0
H864 H 0.30744 0.23442 0.39843 0.0
H865 H 0.32666 0.23762 0.30021 0.0
H866 H 0.4072 0.08606 0.466 0.0
H867 H 0.33313 0.01108 0.39793 0.0
H868 H 0.48742 0.22093 0.30309 0.0
H869 H 0.4161 0.26522 0.29592 0.0
H870 H 0.52555 0.26282 0.26175 0.0
H871 H 0.45505 0.30573 0.25421 0.0
H872 H 0.50931 0.17378 0.31485 0.0
H873 H 0.39621 0.09216 0.32084 0.0
H874 H 0.51848 0.1343 0.27821 0.0
H875 H 0.40736 0.05403 0.28412 0.0
H876 H 0.58665 0.25314 0.35734 0.0
H877 H 0.55116 0.3324 0.35382 0.0
H878 H 0.34416 0.16365 0.22732 0.0
H879 H 0.45458 0.19015 0.20905 0.0
Li880 Li 0.23086 0.3899 0.71652 0.0
Li881 Li 0.17024 0.38248 0.70928 0.0
Li882 Li 0.20728 0.39009 0.66629 0.0
Li883 Li 0.22224 0.44187 0.69859 0.0
C884 C 0.17744 0.32011 0.67753 0.0
N885 N 0.15672 0.2619 0.63799 0.0
C886 C 0.14163 0.30034 0.6669 0.0
C887 C 0.20259 0.30997 0.66818 0.0
C888 C 0.13172 0.2711 0.64689 0.0
C889 C 0.19163 0.28055 0.64816 0.0
C890 C 0.18685 0.4074 0.76392 0.0
C891 C 0.1466 0.41766 0.79601 0.0
N892 N 0.13964 0.38804 0.81312 0.0
C893 C 0.17939 0.3771 0.78183 0.0
C894 C 0.17043 0.42792 0.77103 0.0
C895 C 0.15542 0.36775 0.80662 0.0
C896 C 0.28805 0.40461 0.75727 0.0
N897 N 0.2592 0.37771 0.74199 0.0
C898 C 0.26962 0.33253 0.76462 0.0
C899 C 0.24957 0.3422 0.74537 0.0
C900 C 0.2994 0.35965 0.78091 0.0
C901 C 0.30858 0.39611 0.77714 0.0
H902 H 0.29483 0.43259 0.75421 0.0
H903 H 0.22604 0.32135 0.73341 0.0
C904 C 0.10289 0.37704 0.71479 0.0
N905 N 0.12095 0.35903 0.72133 0.0
C906 C 0.06516 0.35797 0.71217 0.0
C907 C 0.0653 0.30293 0.72627 0.0
C908 C 0.10309 0.32316 0.72876 0.0
C909 C 0.04612 0.32008 0.71626 0.0
H910 H 0.118 0.40562 0.70899 0.0
H911 H 0.11832 0.30959 0.73367 0.0
C912 C 0.28398 0.42808 0.66519 0.0
N913 N 0.34043 0.4325 0.63024 0.0
C914 C 0.30297 0.45716 0.64486 0.0
C915 C 0.29425 0.40169 0.66811 0.0
C916 C 0.33127 0.45878 0.62729 0.0
C917 C 0.3227 0.40427 0.65015 0.0
C918 C 0.17744 0.43343 0.64941 0.0
C919 C 0.20902 0.45525 0.63259 0.0
C920 C 0.14479 0.43119 0.64046 0.0
C921 C 0.20758 0.47476 0.60728 0.0
C922 C 0.14442 0.4511 0.61499 0.0
N923 N 0.17556 0.47231 0.59907 0.0
C924 C 0.16545 0.36256 0.61536 0.0
C925 C 0.22685 0.38263 0.60287 0.0
C926 C 0.15577 0.3579 0.58448 0.0
N927 N 0.20061 0.37592 0.62396 0.0
C928 C 0.21832 0.37826 0.57147 0.0
C929 C 0.18255 0.36701 0.56196 0.0
H930 H 0.14517 0.3579 0.63252 0.0
H931 H 0.25458 0.39301 0.61006 0.0
C932 C 0.27366 0.51723 0.6913 0.0
N933 N 0.23865 0.49223 0.69807 0.0
C934 C 0.28296 0.55298 0.68418 0.0
C935 C 0.22036 0.53661 0.69263 0.0
C936 C 0.21234 0.50138 0.69967 0.0
C937 C 0.25581 0.56264 0.68386 0.0
H938 H 0.29391 0.509 0.68995 0.0
H939 H 0.18465 0.48072 0.7047 0.0
O940 O 0.18777 0.34913 0.69696 0.0
O941 O 0.20933 0.41627 0.73902 0.0
O942 O 0.25634 0.42615 0.68281 0.0
O943 O 0.17814 0.41367 0.6741 0.0
H944 H 0.12181 0.30794 0.67338 0.0
H945 H 0.23028 0.32454 0.67625 0.0
H946 H 0.10418 0.25584 0.63831 0.0
H947 H 0.21089 0.27254 0.64071 0.0
H948 H 0.13357 0.4332 0.80173 0.0
H949 H 0.19172 0.3608 0.77643 0.0
H950 H 0.17581 0.45133 0.75727 0.0
H951 H 0.14926 0.34429 0.82062 0.0
H952 H 0.26138 0.30407 0.76734 0.0
H953 H 0.33142 0.41774 0.7893 0.0
H954 H 0.05152 0.37227 0.70435 0.0
H955 H 0.05151 0.27384 0.7301 0.0
H956 H 0.29607 0.47833 0.64259 0.0
H957 H 0.28066 0.37958 0.6842 0.0
H958 H 0.346 0.481 0.61136 0.0
H959 H 0.33076 0.3839 0.65212 0.0
H960 H 0.23431 0.45694 0.63896 0.0
H961 H 0.11992 0.41407 0.65291 0.0
H962 H 0.23188 0.49176 0.59411 0.0
H963 H 0.11934 0.44961 0.60783 0.0
H964 H 0.12802 0.34973 0.57841 0.0
H965 H 0.23972 0.38506 0.55481 0.0
H966 H 0.31059 0.57226 0.67747 0.0
H967 H 0.19879 0.54314 0.69317 0.0
Li968 Li 0.81025 0.19833 0.01661 0.0
Li969 Li 0.85965 0.25507 0.03396 0.0
Li970 Li 0.80421 0.25278 0.01392 0.0
Li971 Li 0.8469 0.24528 0.9794 0.0
C972 C 0.80949 0.21281 0.07916 0.0
N973 N 0.81175 0.18292 0.13505 0.0
C974 C 0.82563 0.19118 0.08136 0.0
C975 C 0.79446 0.21919 0.10538 0.0
C976 C 0.82652 0.17634 0.10982 0.0
C977 C 0.79587 0.20384 0.13343 0.0
C978 C 0.89536 0.22167 0.00431 0.0
C979 C 0.95809 0.25545 0.98859 0.0
N980 N 0.96322 0.22835 -0.00044 0.0
C981 C 0.90109 0.19391 0.01506 0.0
C982 C 0.92393 0.25249 0.99067 0.0
C983 C 0.93566 0.19789 0.0126 0.0
C984 C 0.79522 0.13208 0.99556 0.0
N985 N 0.78417 0.147 0.01764 0.0
C986 C 0.73481 0.08858 0.03126 0.0
C987 C 0.75473 0.12628 0.03558 0.0
C988 C 0.74519 0.07243 0.00804 0.0
C989 C 0.77599 0.09482 0.99021 0.0
H990 H 0.81822 0.1495 0.98117 0.0
H991 H 0.74623 0.13909 0.05261 0.0
C992 C 0.90383 0.31024 0.07612 0.0
N993 N 0.89614 0.27735 0.06467 0.0
C994 C 0.92928 0.32646 0.09979 0.0
C995 C 0.93838 0.27466 0.0992 0.0
C996 C 0.91263 0.2594 0.07584 0.0
C997 C 0.94685 0.30851 0.11174 0.0
H998 H 0.88983 0.32365 0.06711 0.0
H999 H 0.90544 0.2329 0.06705 0.0
C1000 C 0.7619 0.18834 0.97249 0.0
N1001 N 0.69718 0.12931 0.95355 0.0
C1002 C 0.76093 0.16862 0.9464 0.0
C1003 C 0.72997 0.17808 0.98896 0.0
C1004 C 0.72794 0.13886 0.93718 0.0
C1005 C 0.69751 0.14813 0.97901 0.0
C1006 C 0.87972 0.3203 0.98991 0.0
C1007 C 0.86686 0.33752 0.97038 0.0
C1008 C 0.91704 0.33621 0.9952 0.0
C1009 C 0.89163 0.36985 0.95575 0.0
C1010 C 0.94095 0.36858 0.98017 0.0
N1011 N 0.92786 0.38456 0.96087 0.0
C1012 C 0.75446 0.27298 0.03855 0.0
C1013 C 0.76165 0.27488 0.9843 0.0
C1014 C 0.72639 0.2809 0.03563 0.0
N1015 N 0.77094 0.26967 0.01298 0.0
C1016 C 0.73387 0.28283 0.98031 0.0
C1017 C 0.71532 0.2852 0.00613 0.0
H1018 H 0.76224 0.26826 0.06104 0.0
H1019 H 0.77488 0.27133 0.96441 0.0
C1020 C 0.86614 0.22281 0.92564 0.0
N1021 N 0.85713 0.24708 0.9371 0.0
C1022 C 0.85433 0.20804 0.89632 0.0
C1023 C 0.82693 0.24574 0.89051 0.0
C1024 C 0.83951 0.26001 0.91972 0.0
C1025 C 0.83248 0.21788 0.87938 0.0
H1026 H 0.87816 0.2113 0.94049 0.0
H1027 H 0.83079 0.2775 0.93002 0.0
O1028 O 0.80848 0.22793 0.05163 0.0
O1029 O 0.86167 0.21814 0.00673 0.0
O1030 O 0.79409 0.21708 0.98226 0.0
O1031 O 0.85578 0.28885 0.00472 0.0
H1032 H 0.83746 0.18597 0.06137 0.0
H1033 H 0.78189 0.2359 0.10406 0.0
H1034 H 0.839 0.15962 0.11185 0.0
H1035 H 0.78437 0.20858 0.15392 0.0
H1036 H 0.98047 0.27921 0.97811 0.0
H1037 H 0.8791 0.1697 0.02543 0.0
H1038 H 0.9196 0.27355 0.98128 0.0
H1039 H 0.94057 0.17677 0.02104 0.0
H1040 H 0.71144 0.07237 0.04572 0.0
H1041 H 0.78457 0.08395 0.97155 0.0
H1042 H 0.93455 0.35235 0.10899 0.0
H1043 H 0.95153 0.25999 0.10727 0.0
H1044 H 0.78544 0.17594 0.93361 0.0
H1045 H 0.73033 0.1928 0.00942 0.0
H1046 H 0.72682 0.1233 0.91707 0.0
H1047 H 0.67261 0.13978 0.99159 0.0
H1048 H 0.83804 0.32606 0.96655 0.0
H1049 H 0.92748 0.32386 0.01089 0.0
H1050 H 0.88205 0.38331 0.94041 0.0
H1051 H 0.9699 0.38107 0.98394 0.0
H1052 H 0.71292 0.28273 0.05614 0.0
H1053 H 0.72583 0.28523 0.95716 0.0
H1054 H 0.85868 0.18627 0.88856 0.0
H1055 H 0.81011 0.25388 0.878 0.0
C1056 C 0.33795 0.64382 0.30762 0.0
C1057 C 0.32982 0.61277 0.32503 0.0
H1058 H 0.37604 0.69992 0.29865 0.0
C1059 C 0.35452 0.61526 0.34776 0.0
H1060 H 0.31926 0.64287 0.2902 0.0
C1061 C 0.38689 0.64779 0.35261 0.0
C1062 C 0.39543 0.67868 0.33483 0.0
H1063 H 0.34945 0.59168 0.36118 0.0
H1064 H 0.40585 0.64829 0.36954 0.0
C1065 C 0.37041 0.67647 0.3125 0.0
C1066 C 0.7228 0.34738 0.64294 0.0
C1067 C 0.70045 0.31777 0.66198 0.0
H1068 H 0.7475 0.4046 0.63524 0.0
C1069 C 0.68355 0.32355 0.68749 0.0
H1070 H 0.73658 0.34403 0.62333 0.0
C1071 C 0.69021 0.35853 0.69455 0.0
C1072 C 0.7141 0.38833 0.67635 0.0
H1073 H 0.66592 0.30119 0.70244 0.0
H1074 H 0.67786 0.36244 0.71491 0.0
C1075 C 0.72953 0.38222 0.65004 0.0
C1076 C 0.38144 0.7304 0.02507 0.0
C1077 C 0.38236 0.70783 0.00181 0.0
H1078 H 0.35045 0.75034 0.04805 0.0
C1079 C 0.35038 0.6852 0.98538 0.0
H1080 H 0.40573 0.74863 0.03784 0.0
C1081 C 0.31857 0.68618 0.9913 0.0
C1082 C 0.31812 0.70987 0.01372 0.0
H1083 H 0.35007 0.66712 0.96764 0.0
H1084 H 0.29449 0.66891 0.97789 0.0
C1085 C 0.34969 0.73137 0.03099 0.0
C1086 C 0.64234 0.32852 0.35867 0.0
C1087 C 0.61094 0.32541 0.345 0.0
H1088 H 0.70047 0.35905 0.36154 0.0
C1089 C 0.61475 0.35023 0.3219 0.0
H1090 H 0.64026 0.30968 0.37644 0.0
C1091 C 0.64891 0.3785 0.31362 0.0
C1092 C 0.68038 0.38254 0.32791 0.0
H1093 H 0.59117 0.34809 0.31033 0.0
H1094 H 0.65038 0.39798 0.29677 0.0
C1095 C 0.67677 0.35689 0.35024 0.0
C1096 C 0.24502 0.63585 0.64397 0.0
C1097 C 0.27534 0.6678 0.6548 0.0
H1098 H 0.21536 0.57774 0.64448 0.0
C1099 C 0.3005 0.66491 0.67393 0.0
H1100 H 0.22488 0.63706 0.62952 0.0
C1101 C 0.29477 0.63077 0.68284 0.0
C1102 C 0.26363 0.59893 0.67298 0.0
H1103 H 0.32428 0.68907 0.68245 0.0
H1104 H 0.31406 0.62932 0.69823 0.0
C1105 C 0.23925 0.60184 0.65295 0.0
C1106 C 0.68129 0.31137 0.97894 0.0
C1107 C 0.68255 0.28867 0.00192 0.0
H1108 H 0.64878 0.32911 0.95503 0.0
C1109 C 0.65118 0.26686 0.01929 0.0
H1110 H 0.70515 0.32875 0.96536 0.0
C1111 C 0.61904 0.267 0.01333 0.0
C1112 C 0.61746 0.28903 0.9899 0.0
H1113 H 0.65098 0.24849 0.03669 0.0
H1114 H 0.59505 0.24879 0.02643 0.0
C1115 C 0.64903 0.31152 0.97297 0.0
C1116 C 0.27878 0.30478 0.35705 0.0
C1117 C 0.26009 0.29939 0.32918 0.0
H1118 H 0.31115 0.29034 0.38487 0.0
C1119 C 0.2568 0.27236 0.30884 0.0
H1120 H 0.28148 0.32559 0.37303 0.0
C1121 C 0.27267 0.2514 0.31594 0.0
C1122 C 0.29305 0.25775 0.34317 0.0
H1123 H 0.24195 0.26751 0.28744 0.0
H1124 H 0.26932 0.2305 0.29981 0.0
C1125 C 0.29541 0.28434 0.3639 0.0
C1126 C 0.9482 0.29185 0.69843 0.0
C1127 C 0.93787 0.26156 0.67919 0.0
H1128 H 0.99025 0.33365 0.72589 0.0
C1129 C 0.96263 0.24935 0.67403 0.0
H1130 H 0.92944 0.30142 0.70345 0.0
C1131 C 0.99721 0.26752 0.68719 0.0
C1132 C 0.00788 0.29835 0.70579 0.0
H1133 H 0.95564 0.22632 0.65914 0.0
H1134 H 0.01611 0.25824 0.68176 0.0
C1135 C 0.98287 0.31012 0.71151 0.0
C1136 C 0.74134 0.01378 0.99216 0.0
C1137 C 0.72375 0.03274 0.00155 0.0
H1138 H 0.73599 0.9638 0.97635 0.0
C1139 C 0.68561 0.01378 0.00339 0.0
H1140 H 0.77068 0.02726 0.99091 0.0
C1141 C 0.66561 0.97684 -0.00417 0.0
C1142 C 0.68327 0.95808 0.98596 0.0
H1143 H 0.67108 0.02756 0.01016 0.0
H1144 H 0.63632 0.96296 -0.002 0.0
C1145 C 0.72139 0.97711 0.98419 0.0
C1146 C 0.72218 0.73377 0.31617 0.0
C1147 C 0.68485 0.71867 0.32203 0.0
H1148 H 0.76538 0.72393 0.30452 0.0
C1149 C 0.66193 0.68088 0.31901 0.0
H1150 H 0.74066 0.76271 0.31863 0.0
C1151 C 0.67615 0.65864 0.31092 0.0
C1152 C 0.71355 0.67374 0.3055 0.0
H1153 H 0.63294 0.66848 0.3227 0.0
H1154 H 0.6579 0.62959 0.30899 0.0
C1155 C 0.73635 0.71157 0.30793 0.0
C1156 C 0.02808 0.69621 0.67506 0.0
C1157 C 0.04893 0.73426 0.67798 0.0
H1158 H 0.97636 0.64836 0.68066 0.0
C1159 C 0.03281 0.75281 0.69158 0.0
H1160 H 0.03964 0.68076 0.66537 0.0
C1161 C 0.99681 0.73394 0.70164 0.0
C1162 C 0.97557 0.69606 0.69775 0.0
H1163 H 0.04768 0.7821 0.694 0.0
H1164 H 0.98555 0.74926 0.71214 0.0
C1165 C 0.99183 0.67742 0.68454 0.0
C1166 C 0.33138 0.02535 0.00563 0.0
C1167 C 0.31338 0.04347 0.995 0.0
H1168 H 0.3266 0.97505 0.0204 0.0
C1169 C 0.27528 0.02396 0.99291 0.0
H1170 H 0.36064 0.03966 0.00811 0.0
C1171 C 0.25573 0.98722 0.00082 0.0
C1172 C 0.27374 0.96881 0.0106 0.0
H1173 H 0.26044 0.03682 0.98458 0.0
H1174 H 0.2264 0.97317 -0.00102 0.0
C1175 C 0.3118 0.98841 0.01323 0.0
C1176 C -0.0016 0.36221 0.13853 0.0
C1177 C 0.97369 0.32456 0.1372 0.0
H1178 H 0.04441 0.40558 0.16155 0.0
C1179 C 0.97555 0.30196 0.15994 0.0
H1180 H 0.99793 0.38039 0.12128 0.0
C1181 C 0.00242 0.31631 0.18253 0.0
C1182 C 0.02771 0.35367 0.18324 0.0
H1183 H 0.95637 0.27302 0.16022 0.0
H1184 H 0.00357 0.29813 0.19942 0.0
C1185 C 0.02506 0.37666 0.16148 0.0
C1186 C 0.66222 0.0337 0.48346 0.0
C1187 C 0.6665 0.02457 0.51368 0.0
H1188 H 0.65022 0.01648 0.43648 0.0
C1189 C 0.66059 0.98948 0.5196 0.0
H1190 H 0.66625 0.0604 0.47822 0.0
C1191 C 0.65112 0.96426 0.49576 0.0
C1192 C 0.64736 0.97354 0.46546 0.0
H1193 H 0.66405 0.98171 0.54256 0.0
H1194 H 0.6467 0.93743 0.5011 0.0
C1195 C 0.6527 0.00843 0.45961 0.0
C1196 C 0.64968 0.69205 0.81155 0.0
C1197 C 0.63117 0.67132 0.83757 0.0
H1198 H 0.68048 0.69623 0.77122 0.0
C1199 C 0.62704 0.6365 0.84111 0.0
H1200 H 0.65259 0.71857 0.80766 0.0
C1201 C 0.64255 0.62349 0.81988 0.0
C1202 C 0.66275 0.6452 0.79492 0.0
H1203 H 0.61326 0.61993 0.861 0.0
H1204 H 0.64023 0.59721 0.82377 0.0
C1205 C 0.66551 0.67924 0.79059 0.0
C1206 C 0.01891 0.65121 0.15495 0.0
C1207 C 0.01532 0.66964 0.12953 0.0
H1208 H 0.99644 0.62433 0.19776 0.0
C1209 C 0.98403 0.6727 0.12696 0.0
H1210 H 0.04292 0.64875 0.15768 0.0
C1211 C 0.95738 0.6586 0.14977 0.0
C1212 C 0.96149 0.64127 0.17577 0.0
H1213 H 0.98025 0.68621 0.10733 0.0
H1214 H 0.9336 0.66146 0.14709 0.0
C1215 C 0.99228 0.63722 0.17788 0.0
C1216 C 0.31699 0.98895 0.45981 0.0
C1217 C 0.35429 0.01461 0.45843 0.0
H1218 H 0.27431 0.94365 0.48352 0.0
C1219 C 0.37759 0.01283 0.48048 0.0
H1220 H 0.29812 0.98967 0.44346 0.0
C1221 C 0.36374 0.98692 0.50399 0.0
C1222 C 0.32629 0.96198 0.50588 0.0
H1223 H 0.40655 0.03178 0.47984 0.0
H1224 H 0.38232 0.98722 0.52121 0.0
C1225 C 0.3032 0.96287 0.48314 0.0
C1226 C 0.34841 0.3137 0.81424 0.0
C1227 C 0.35434 0.32621 0.84486 0.0
H1228 H 0.32645 0.31455 0.77004 0.0
C1229 C 0.34378 0.35148 0.85369 0.0
H1230 H 0.35689 0.29489 0.80638 0.0
C1231 C 0.32695 0.36321 0.83264 0.0
C1232 C 0.31991 0.3496 0.80244 0.0
H1233 H 0.34736 0.36132 0.87715 0.0
H1234 H 0.31823 0.38191 0.8403 0.0
C1235 C 0.33115 0.32506 0.79334 0.0
C1236 C 0.18764 0.40372 0.48178 0.0
C1237 C 0.15302 0.37926 0.46996 0.0
H1238 H 0.22403 0.41909 0.51992 0.0
C1239 C 0.12937 0.34877 0.48761 0.0
H1240 H 0.207 0.42689 0.4684 0.0
C1241 C 0.13965 0.34367 0.51692 0.0
C1242 C 0.17371 0.36903 0.52923 0.0
H1243 H 0.10265 0.32928 0.47906 0.0
H1244 H 0.12061 0.32021 0.53018 0.0
C1245 C 0.19779 0.39878 0.51109 0.0
C1246 C 0.77257 0.18045 0.85386 0.0
C1247 C 0.81041 0.19511 0.8534 0.0
H1248 H 0.72215 0.14899 0.83019 0.0
C1249 C 0.82635 0.18703 0.82866 0.0
H1250 H 0.75952 0.18547 0.87315 0.0
C1251 C 0.80494 0.16624 0.80394 0.0
C1252 C 0.76717 0.15273 0.80379 0.0
H1253 H 0.85543 0.19781 0.82799 0.0
H1254 H 0.81828 0.16222 0.78433 0.0
C1255 C 0.75116 0.15936 0.8294 0.0
C1256 C 0.60014 0.7836 0.18118 0.0
C1257 C 0.61941 0.8218 0.18163 0.0
H1258 H 0.58567 0.73525 0.15558 0.0
C1259 C 0.64134 0.84083 0.15647 0.0
H1260 H 0.58369 0.76833 0.20068 0.0
C1261 C 0.6422 0.82188 0.13043 0.0
C1262 C 0.62162 0.78358 0.12942 0.0
H1263 H 0.6566 0.87028 0.15648 0.0
H1264 H 0.65757 0.83735 0.11058 0.0
C1265 C 0.6014 0.76469 0.15544 0.0
C1266 C 0.8305 0.59567 0.48652 0.0
C1267 C 0.84916 0.62866 0.47034 0.0
H1268 H 0.80051 0.56828 0.52677 0.0
C1269 C 0.85269 0.66041 0.48379 0.0
H1270 H 0.82665 0.57057 0.47663 0.0
C1271 C 0.83689 0.65892 0.51238 0.0
C1272 C 0.81713 0.62562 0.52796 0.0
H1273 H 0.86697 0.68624 0.47187 0.0
H1274 H 0.83936 0.68363 0.52191 0.0
C1275 C 0.81476 0.5942 0.51498 0.0
C1276 C 0.23527 0.81773 0.85347 0.0
C1277 C 0.1975 0.8036 0.8547 0.0
H1278 H 0.28421 0.8476 0.82738 0.0
C1279 C 0.18023 0.81064 0.83037 0.0
H1280 H 0.24941 0.81352 0.87236 0.0
C1281 C 0.20016 0.83023 0.80467 0.0
C1282 C 0.23784 0.84353 0.803 0.0
H1283 H 0.15118 0.80012 0.83084 0.0
H1284 H 0.18573 0.83362 0.78557 0.0
C1285 C 0.25524 0.83751 0.8279 0.0
C1286 C 0.3716 0.17984 0.16361 0.0
C1287 C 0.39886 0.19744 0.1858 0.0
H1288 H 0.3515 0.18326 0.11938 0.0
C1289 C 0.42529 0.23409 0.18158 0.0
H1290 H 0.35079 0.15163 0.1666 0.0
C1291 C 0.42507 0.25265 0.15517 0.0
C1292 C 0.39876 0.23475 0.13215 0.0
H1293 H 0.44603 0.24846 0.19886 0.0
H1294 H 0.44592 0.28089 0.15256 0.0
C1295 C 0.37174 0.1982 0.13686 0.0
loop_
_geom_bond_atom_site_label_1
_geom_bond_atom_site_label_2
_geom_bond_distance
_geom_bond_site_symmetry_2
_ccdc_geom_bond_type
Li0 N17 1.990 . S
Li0 O60 1.956 . S
Li0 O61 1.970 . S
Li0 O62 1.961 . S
Li1 N25 1.990 . S
Li1 O60 1.970 . S
Li1 O61 1.956 . S
Li1 O63 1.961 . S
Li2 N47 1.990 . S
Li2 O60 1.961 . S
Li2 O62 1.956 . S
Li2 O63 1.970 . S
Li3 N53 1.990 . S
Li3 O61 1.961 . S
Li3 O62 1.970 . S
Li3 O63 1.956 . S
C4 C6 1.348 . S
C4 C7 1.356 . S
C4 O60 1.325 . S
N5 C8 1.314 . S
N5 C9 1.279 . S
C6 C4 1.348 . S
C6 C8 1.353 . S
C6 H64 0.929 . S
C7 C4 1.356 . S
C7 C9 1.358 . S
C7 H65 0.930 . S
C8 N5 1.314 . S
C8 C6 1.353 . S
C8 H66 0.930 . S
C9 N5 1.279 . S
C9 C7 1.358 . S
C9 H67 0.930 . S
C10 C13 1.348 . S
C10 C14 1.356 . S
C10 O61 1.325 . S
C11 N12 1.279 . S
C11 C14 1.358 . S
C11 H68 0.930 . S
N12 C11 1.279 . S
N12 C15 1.314 . S
C13 C10 1.348 . S
C13 C15 1.353 . S
C13 H69 0.929 . S
C14 C10 1.356 . S
C14 C11 1.358 . S
C14 H70 0.930 . S
C15 N12 1.314 . S
C15 C13 1.353 . S
C15 H71 0.930 . S
C16 N17 1.314 . S
C16 C21 1.353 . S
C16 H22 0.930 . S
N17 Li0 1.990 . S
N17 C16 1.314 . S
N17 C19 1.279 . S
C18 C19 1.358 . S
C18 C20 1.356 . S
C18 H72 0.930 . S
C19 N17 1.279 . S
C19 C18 1.358 . S
C19 H23 0.930 . S
C20 C18 1.356 . S
C20 C21 1.348 . S
C21 C16 1.353 . S
C21 C20 1.348 . S
C21 H73 0.929 . S
H22 C16 0.930 . S
H23 C19 0.930 . S
C24 N25 1.314 . S
C24 C26 1.353 . S
C24 H30 0.930 . S
N25 Li1 1.990 . S
N25 C24 1.314 . S
N25 C28 1.279 . S
C26 C24 1.353 . S
C26 C29 1.348 . S
C26 H74 0.929 . S
C27 C28 1.358 . S
C27 C29 1.356 . S
C27 H75 0.930 . S
C28 N25 1.279 . S
C28 C27 1.358 . S
C28 H31 0.930 . S
C29 C26 1.348 . S
C29 C27 1.356 . S
H30 C24 0.930 . S
H31 C28 0.930 . S
C32 C34 1.348 . S
C32 C35 1.356 . S
C32 O62 1.325 . S
N33 C36 1.314 . S
N33 C37 1.279 . S
C34 C32 1.348 . S
C34 C36 1.353 . S
C34 H76 0.929 . S
C35 C32 1.356 . S
C35 C37 1.358 . S
C35 H77 0.930 . S
C36 N33 1.314 . S
C36 C34 1.353 . S
C36 H78 0.930 . S
C37 N33 1.279 . S
C37 C35 1.358 . S
C37 H79 0.930 . S
C38 C39 1.348 . S
C38 C40 1.356 . S
C38 O63 1.325 . S
C39 C38 1.348 . S
C39 C41 1.353 . S
C39 H80 0.929 . S
C40 C38 1.356 . S
C40 C42 1.358 . S
C40 H81 0.930 . S
C41 C39 1.353 . S
C41 N43 1.314 . S
C41 H82 0.930 . S
C42 C40 1.358 . S
C42 N43 1.279 . S
C42 H83 0.930 . S
N43 C41 1.314 . S
N43 C42 1.279 . S
C44 C46 1.353 . S
C44 N47 1.314 . S
C44 H50 0.930 . S
C45 N47 1.279 . S
C45 C48 1.358 . S
C45 H51 0.930 . S
C46 C44 1.353 . S
C46 C49 1.348 . S
C46 H84 0.929 . S
N47 Li2 1.990 . S
N47 C44 1.314 . S
N47 C45 1.279 . S
C48 C45 1.358 . S
C48 C49 1.356 . S
C48 H85 0.930 . S
C49 C46 1.348 . S
C49 C48 1.356 . S
H50 C44 0.930 . S
H51 C45 0.930 . S
C52 N53 1.314 . S
C52 C54 1.353 . S
C52 H58 0.930 . S
N53 Li3 1.990 . S
N53 C52 1.314 . S
N53 C56 1.279 . S
C54 C52 1.353 . S
C54 C57 1.348 . S
C54 H86 0.929 . S
C55 C56 1.358 . S
C55 C57 1.356 . S
C55 H87 0.930 . S
C56 N53 1.279 . S
C56 C55 1.358 . S
C56 H59 0.930 . S
C57 C54 1.348 . S
C57 C55 1.356 . S
H58 C52 0.930 . S
H59 C56 0.930 . S
O60 Li0 1.956 . S
O60 Li1 1.970 . S
O60 Li2 1.961 . S
O60 C4 1.325 . S
O61 Li0 1.970 . S
O61 Li1 1.956 . S
O61 Li3 1.961 . S
O61 C10 1.325 . S
O62 Li0 1.961 . S
O62 Li2 1.956 . S
O62 Li3 1.970 . S
O62 C32 1.325 . S
O63 Li1 1.961 . S
O63 Li2 1.970 . S
O63 Li3 1.956 . S
O63 C38 1.325 . S
H64 C6 0.929 . S
H65 C7 0.930 . S
H66 C8 0.930 . S
H67 C9 0.930 . S
H68 C11 0.930 . S
H69 C13 0.929 . S
H70 C14 0.930 . S
H71 C15 0.930 . S
H72 C18 0.930 . S
H73 C21 0.929 . S
H74 C26 0.929 . S
H75 C27 0.930 . S
H76 C34 0.929 . S
H77 C35 0.930 . S
H78 C36 0.930 . S
H79 C37 0.930 . S
H80 C39 0.929 . S
H81 C40 0.930 . S
H82 C41 0.930 . S
H83 C42 0.930 . S
H84 C46 0.929 . S
H85 C48 0.930 . S
H86 C54 0.929 . S
H87 C55 0.930 . S
Li88 N105 1.990 . S
Li88 O148 1.956 . S
Li88 O149 1.970 . S
Li88 O150 1.961 . S
Li89 N113 1.990 . S
Li89 O148 1.970 . S
Li89 O149 1.956 . S
Li89 O151 1.961 . S
Li90 N135 1.990 . S
Li90 O148 1.961 . S
Li90 O150 1.956 . S
Li90 O151 1.970 . S
Li91 N141 1.990 . S
Li91 O149 1.961 . S
Li91 O150 1.970 . S
Li91 O151 1.956 . S
C92 C94 1.348 . S
C92 C95 1.356 . S
C92 O148 1.325 . S
N93 C96 1.314 . S
N93 C97 1.279 . S
C94 C92 1.348 . S
C94 C96 1.353 . S
C94 H152 0.929 . S
C95 C92 1.356 . S
C95 C97 1.358 . S
C95 H153 0.930 . S
C96 N93 1.314 . S
C96 C94 1.353 . S
C96 H154 0.930 . S
C97 N93 1.279 . S
C97 C95 1.358 . S
C97 H155 0.930 . S
C98 C101 1.348 . S
C98 C102 1.356 . S
C98 O149 1.325 . S
C99 N100 1.279 . S
C99 C102 1.358 . S
C99 H156 0.930 . S
N100 C99 1.279 . S
N100 C103 1.314 . S
C101 C98 1.348 . S
C101 C103 1.353 . S
C101 H157 0.929 . S
C102 C98 1.356 . S
C102 C99 1.358 . S
C102 H158 0.930 . S
C103 N100 1.314 . S
C103 C101 1.353 . S
C103 H159 0.930 . S
C104 N105 1.314 . S
C104 C109 1.353 . S
C104 H110 0.930 . S
N105 Li88 1.990 . S
N105 C104 1.314 . S
N105 C107 1.279 . S
C106 C107 1.358 . S
C106 C108 1.356 . S
C106 H160 0.930 . S
C107 N105 1.279 . S
C107 C106 1.358 . S
C107 H111 0.930 . S
C108 C106 1.356 . S
C108 C109 1.348 . S
C109 C104 1.353 . S
C109 C108 1.348 . S
C109 H161 0.929 . S
H110 C104 0.930 . S
H111 C107 0.930 . S
C112 N113 1.314 . S
C112 C114 1.353 . S
C112 H118 0.930 . S
N113 Li89 1.990 . S
N113 C112 1.314 . S
N113 C116 1.279 . S
C114 C112 1.353 . S
C114 C117 1.348 . S
C114 H162 0.929 . S
C115 C116 1.358 . S
C115 C117 1.356 . S
C115 H163 0.930 . S
C116 N113 1.279 . S
C116 C115 1.358 . S
C116 H119 0.930 . S
C117 C114 1.348 . S
C117 C115 1.356 . S
H118 C112 0.930 . S
H119 C116 0.930 . S
C120 C122 1.348 . S
C120 C123 1.356 . S
C120 O150 1.325 . S
N121 C124 1.314 . S
N121 C125 1.279 . S
C122 C120 1.348 . S
C122 C124 1.353 . S
C122 H164 0.929 . S
C123 C120 1.356 . S
C123 C125 1.358 . S
C123 H165 0.930 . S
C124 N121 1.314 . S
C124 C122 1.353 . S
C124 H166 0.930 . S
C125 N121 1.279 . S
C125 C123 1.358 . S
C125 H167 0.930 . S
C126 C127 1.348 . S
C126 C128 1.356 . S
C126 O151 1.325 . S
C127 C126 1.348 . S
C127 C129 1.353 . S
C127 H168 0.929 . S
C128 C126 1.356 . S
C128 C130 1.358 . S
C128 H169 0.930 . S
C129 C127 1.353 . S
C129 N131 1.314 . S
C129 H170 0.930 . S
C130 C128 1.358 . S
C130 N131 1.279 . S
C130 H171 0.930 . S
N131 C129 1.314 . S
N131 C130 1.279 . S
C132 C134 1.353 . S
C132 N135 1.314 . S
C132 H138 0.930 . S
C133 N135 1.279 . S
C133 C136 1.358 . S
C133 H139 0.930 . S
C134 C132 1.353 . S
C134 C137 1.348 . S
C134 H172 0.929 . S
N135 Li90 1.990 . S
N135 C132 1.314 . S
N135 C133 1.279 . S
C136 C133 1.358 . S
C136 C137 1.356 . S
C136 H173 0.930 . S
C137 C134 1.348 . S
C137 C136 1.356 . S
H138 C132 0.930 . S
H139 C133 0.930 . S
C140 N141 1.314 . S
C140 C142 1.353 . S
C140 H146 0.930 . S
N141 Li91 1.990 . S
N141 C140 1.314 . S
N141 C144 1.279 . S
C142 C140 1.353 . S
C142 C145 1.348 . S
C142 H174 0.929 . S
C143 C144 1.358 . S
C143 C145 1.356 . S
C143 H175 0.930 . S
C144 N141 1.279 . S
C144 C143 1.358 . S
C144 H147 0.930 . S
C145 C142 1.348 . S
C145 C143 1.356 . S
H146 C140 0.930 . S
H147 C144 0.930 . S
O148 Li88 1.956 . S
O148 Li89 1.970 . S
O148 Li90 1.961 . S
O148 C92 1.325 . S
O149 Li88 1.970 . S
O149 Li89 1.956 . S
O149 Li91 1.961 . S
O149 C98 1.325 . S
O150 Li88 1.961 . S
O150 Li90 1.956 . S
O150 Li91 1.970 . S
O150 C120 1.325 . S
O151 Li89 1.961 . S
O151 Li90 1.970 . S
O151 Li91 1.956 . S
O151 C126 1.325 . S
H152 C94 0.929 . S
H153 C95 0.930 . S
H154 C96 0.930 . S
H155 C97 0.930 . S
H156 C99 0.930 . S
H157 C101 0.929 . S
H158 C102 0.930 . S
H159 C103 0.930 . S
H160 C106 0.930 . S
H161 C109 0.929 . S
H162 C114 0.929 . S
H163 C115 0.930 . S
H164 C122 0.929 . S
H165 C123 0.930 . S
H166 C124 0.930 . S
H167 C125 0.930 . S
H168 C127 0.929 . S
H169 C128 0.930 . S
H170 C129 0.930 . S
H171 C130 0.930 . S
H172 C134 0.929 . S
H173 C136 0.930 . S
H174 C142 0.929 . S
H175 C143 0.930 . S
Li176 N193 1.990 . S
Li176 O236 1.956 . S
Li176 O237 1.970 . S
Li176 O238 1.961 . S
Li177 N201 1.990 . S
Li177 O236 1.970 1_556 S
Li177 O237 1.956 1_556 S
Li177 O239 1.961 . S
Li178 N223 1.990 . S
Li178 O236 1.961 1_556 S
Li178 O238 1.956 1_556 S
Li178 O239 1.970 . S
Li179 N229 1.990 . S
Li179 O237 1.961 1_556 S
Li179 O238 1.970 1_556 S
Li179 O239 1.956 . S
C180 C182 1.348 . S
C180 C183 1.356 . S
C180 O236 1.325 . S
N181 C184 1.314 . S
N181 C185 1.279 . S
C182 C180 1.348 . S
C182 C184 1.353 . S
C182 H240 0.929 . S
C183 C180 1.356 . S
C183 C185 1.358 . S
C183 H241 0.930 . S
C184 N181 1.314 . S
C184 C182 1.353 . S
C184 H242 0.930 . S
C185 N181 1.279 . S
C185 C183 1.358 . S
C185 H243 0.930 . S
C186 C189 1.348 . S
C186 C190 1.356 . S
C186 O237 1.325 . S
C187 N188 1.279 . S
C187 C190 1.358 . S
C187 H244 0.930 . S
N188 C187 1.279 . S
N188 C191 1.314 . S
C189 C186 1.348 . S
C189 C191 1.353 . S
C189 H245 0.929 . S
C190 C186 1.356 . S
C190 C187 1.358 . S
C190 H246 0.930 . S
C191 N188 1.314 . S
C191 C189 1.353 . S
C191 H247 0.930 . S
C192 N193 1.314 . S
C192 C197 1.353 . S
C192 H198 0.930 . S
N193 Li176 1.990 . S
N193 C192 1.314 . S
N193 C195 1.279 . S
C194 C195 1.358 . S
C194 C196 1.356 . S
C194 H248 0.930 . S
C195 N193 1.279 . S
C195 C194 1.358 . S
C195 H199 0.930 . S
C196 C194 1.356 . S
C196 C197 1.348 . S
C197 C192 1.353 . S
C197 C196 1.348 . S
C197 H249 0.929 . S
H198 C192 0.930 . S
H199 C195 0.930 . S
C200 N201 1.314 . S
C200 C202 1.353 . S
C200 H206 0.930 . S
N201 Li177 1.990 . S
N201 C200 1.314 . S
N201 C204 1.279 1_556 S
C202 C200 1.353 . S
C202 C205 1.348 . S
C202 H250 0.929 . S
C203 C204 1.358 1_556 S
C203 C205 1.356 . S
C203 H251 0.930 1_556 S
C204 N201 1.279 1_554 S
C204 C203 1.358 1_554 S
C204 H207 0.930 . S
C205 C202 1.348 . S
C205 C203 1.356 . S
H206 C200 0.930 . S
H207 C204 0.930 . S
C208 C210 1.348 . S
C208 C211 1.356 . S
C208 O238 1.325 . S
N209 C212 1.314 . S
N209 C213 1.279 . S
C210 C208 1.348 . S
C210 C212 1.353 . S
C210 H252 0.929 1_554 S
C211 C208 1.356 . S
C211 C213 1.358 . S
C211 H253 0.930 . S
C212 N209 1.314 . S
C212 C210 1.353 . S
C212 H254 0.930 . S
C213 N209 1.279 . S
C213 C211 1.358 . S
C213 H255 0.930 . S
C214 C215 1.348 . S
C214 C216 1.356 . S
C214 O239 1.325 . S
C215 C214 1.348 . S
C215 C217 1.353 . S
C215 H256 0.929 . S
C216 C214 1.356 . S
C216 C218 1.358 . S
C216 H257 0.930 . S
C217 C215 1.353 . S
C217 N219 1.314 . S
C217 H258 0.930 . S
C218 C216 1.358 . S
C218 N219 1.279 . S
C218 H259 0.930 . S
N219 C217 1.314 . S
N219 C218 1.279 . S
C220 C222 1.353 . S
C220 N223 1.314 . S
C220 H226 0.930 . S
C221 N223 1.279 . S
C221 C224 1.358 . S
C221 H227 0.930 . S
C222 C220 1.353 . S
C222 C225 1.348 . S
C222 H260 0.929 . S
N223 Li178 1.990 . S
N223 C220 1.314 . S
N223 C221 1.279 . S
C224 C221 1.358 . S
C224 C225 1.356 . S
C224 H261 0.930 . S
C225 C222 1.348 . S
C225 C224 1.356 . S
H226 C220 0.930 . S
H227 C221 0.930 . S
C228 N229 1.314 1_554 S
C228 C230 1.353 . S
C228 H234 0.930 . S
N229 Li179 1.990 . S
N229 C228 1.314 1_556 S
N229 C232 1.279 . S
C230 C228 1.353 . S
C230 C233 1.348 1_554 S
C230 H262 0.929 . S
C231 C232 1.358 . S
C231 C233 1.356 . S
C231 H263 0.930 . S
C232 N229 1.279 . S
C232 C231 1.358 . S
C232 H235 0.930 . S
C233 C230 1.348 1_556 S
C233 C231 1.356 . S
H234 C228 0.930 . S
H235 C232 0.930 . S
O236 Li176 1.956 . S
O236 Li177 1.970 1_554 S
O236 Li178 1.961 1_554 S
O236 C180 1.325 . S
O237 Li176 1.970 . S
O237 Li177 1.956 1_554 S
O237 Li179 1.961 1_554 S
O237 C186 1.325 . S
O238 Li176 1.961 . S
O238 Li178 1.956 1_554 S
O238 Li179 1.970 1_554 S
O238 C208 1.325 . S
O239 Li177 1.961 . S
O239 Li178 1.970 . S
O239 Li179 1.956 . S
O239 C214 1.325 . S
H240 C182 0.929 . S
H241 C183 0.930 . S
H242 C184 0.930 . S
H243 C185 0.930 . S
H244 C187 0.930 . S
H245 C189 0.929 . S
H246 C190 0.930 . S
H247 C191 0.930 . S
H248 C194 0.930 . S
H249 C197 0.929 . S
H250 C202 0.929 . S
H251 C203 0.930 1_554 S
H252 C210 0.929 1_556 S
H253 C211 0.930 . S
H254 C212 0.930 . S
H255 C213 0.930 . S
H256 C215 0.929 . S
H257 C216 0.930 . S
H258 C217 0.930 . S
H259 C218 0.930 . S
H260 C222 0.929 . S
H261 C224 0.930 . S
H262 C230 0.929 . S
H263 C231 0.930 . S
Li264 N281 1.990 . S
Li264 O324 1.956 . S
Li264 O325 1.970 . S
Li264 O326 1.961 . S
Li265 N289 1.990 . S
Li265 O324 1.970 . S
Li265 O325 1.956 . S
Li265 O327 1.961 . S
Li266 N311 1.990 . S
Li266 O324 1.961 . S
Li266 O326 1.956 . S
Li266 O327 1.970 . S
Li267 N317 1.990 . S
Li267 O325 1.961 . S
Li267 O326 1.970 . S
Li267 O327 1.956 . S
C268 C270 1.348 . S
C268 C271 1.356 . S
C268 O324 1.325 . S
N269 C272 1.314 . S
N269 C273 1.279 . S
C270 C268 1.348 . S
C270 C272 1.353 . S
C270 H328 0.929 . S
C271 C268 1.356 . S
C271 C273 1.358 . S
C271 H329 0.930 . S
C272 N269 1.314 . S
C272 C270 1.353 . S
C272 H330 0.930 . S
C273 N269 1.279 . S
C273 C271 1.358 . S
C273 H331 0.930 . S
C274 C277 1.348 . S
C274 C278 1.356 . S
C274 O325 1.325 . S
C275 N276 1.279 . S
C275 C278 1.358 . S
C275 H332 0.930 . S
N276 C275 1.279 . S
N276 C279 1.314 . S
C277 C274 1.348 . S
C277 C279 1.353 . S
C277 H333 0.929 . S
C278 C274 1.356 . S
C278 C275 1.358 . S
C278 H334 0.930 . S
C279 N276 1.314 . S
C279 C277 1.353 . S
C279 H335 0.930 . S
C280 N281 1.314 . S
C280 C285 1.353 . S
C280 H286 0.930 . S
N281 Li264 1.990 . S
N281 C280 1.314 . S
N281 C283 1.279 . S
C282 C283 1.358 . S
C282 C284 1.356 . S
C282 H336 0.930 . S
C283 N281 1.279 . S
C283 C282 1.358 . S
C283 H287 0.930 . S
C284 C282 1.356 . S
C284 C285 1.348 . S
C285 C280 1.353 . S
C285 C284 1.348 . S
C285 H337 0.929 . S
H286 C280 0.930 . S
H287 C283 0.930 . S
C288 N289 1.314 . S
C288 C290 1.353 . S
C288 H294 0.930 . S
N289 Li265 1.990 . S
N289 C288 1.314 . S
N289 C292 1.279 . S
C290 C288 1.353 . S
C290 C293 1.348 . S
C290 H338 0.929 . S
C291 C292 1.358 . S
C291 C293 1.356 . S
C291 H339 0.930 . S
C292 N289 1.279 . S
C292 C291 1.358 . S
C292 H295 0.930 . S
C293 C290 1.348 . S
C293 C291 1.356 . S
H294 C288 0.930 . S
H295 C292 0.930 . S
C296 C298 1.348 . S
C296 C299 1.356 . S
C296 O326 1.325 . S
N297 C300 1.314 . S
N297 C301 1.279 . S
C298 C296 1.348 . S
C298 C300 1.353 . S
C298 H340 0.929 . S
C299 C296 1.356 . S
C299 C301 1.358 . S
C299 H341 0.930 . S
C300 N297 1.314 . S
C300 C298 1.353 . S
C300 H342 0.930 . S
C301 N297 1.279 . S
C301 C299 1.358 . S
C301 H343 0.930 . S
C302 C303 1.348 . S
C302 C304 1.356 . S
C302 O327 1.325 . S
C303 C302 1.348 . S
C303 C305 1.353 . S
C303 H344 0.929 . S
C304 C302 1.356 . S
C304 C306 1.358 . S
C304 H345 0.930 . S
C305 C303 1.353 . S
C305 N307 1.314 . S
C305 H346 0.930 . S
C306 C304 1.358 . S
C306 N307 1.279 . S
C306 H347 0.930 . S
N307 C305 1.314 . S
N307 C306 1.279 . S
C308 C310 1.353 . S
C308 N311 1.314 . S
C308 H314 0.930 . S
C309 N311 1.279 . S
C309 C312 1.358 . S
C309 H315 0.930 . S
C310 C308 1.353 . S
C310 C313 1.348 . S
C310 H348 0.929 . S
N311 Li266 1.990 . S
N311 C308 1.314 . S
N311 C309 1.279 . S
C312 C309 1.358 . S
C312 C313 1.356 . S
C312 H349 0.930 . S
C313 C310 1.348 . S
C313 C312 1.356 . S
H314 C308 0.930 . S
H315 C309 0.930 . S
C316 N317 1.314 . S
C316 C318 1.353 . S
C316 H322 0.930 . S
N317 Li267 1.990 . S
N317 C316 1.314 . S
N317 C320 1.279 . S
C318 C316 1.353 . S
C318 C321 1.348 . S
C318 H350 0.929 . S
C319 C320 1.358 . S
C319 C321 1.356 . S
C319 H351 0.930 . S
C320 N317 1.279 . S
C320 C319 1.358 . S
C320 H323 0.930 . S
C321 C318 1.348 . S
C321 C319 1.356 . S
H322 C316 0.930 . S
H323 C320 0.930 . S
O324 Li264 1.956 . S
O324 Li265 1.970 . S
O324 Li266 1.961 . S
O324 C268 1.325 . S
O325 Li264 1.970 . S
O325 Li265 1.956 . S
O325 Li267 1.961 . S
O325 C274 1.325 . S
O326 Li264 1.961 . S
O326 Li266 1.956 . S
O326 Li267 1.970 . S
O326 C296 1.325 . S
O327 Li265 1.961 . S
O327 Li266 1.970 . S
O327 Li267 1.956 . S
O327 C302 1.325 . S
H328 C270 0.929 . S
H329 C271 0.930 . S
H330 C272 0.930 . S
H331 C273 0.930 . S
H332 C275 0.930 . S
H333 C277 0.929 . S
H334 C278 0.930 . S
H335 C279 0.930 . S
H336 C282 0.930 . S
H337 C285 0.929 . S
H338 C290 0.929 . S
H339 C291 0.930 . S
H340 C298 0.929 . S
H341 C299 0.930 . S
H342 C300 0.930 . S
H343 C301 0.930 . S
H344 C303 0.929 . S
H345 C304 0.930 . S
H346 C305 0.930 . S
H347 C306 0.930 . S
H348 C310 0.929 . S
H349 C312 0.930 . S
H350 C318 0.929 . S
H351 C319 0.930 . S
Li352 N369 1.990 . S
Li352 O412 1.956 . S
Li352 O413 1.970 . S
Li352 O414 1.961 . S
Li353 N377 1.990 . S
Li353 O412 1.970 . S
Li353 O413 1.956 . S
Li353 O415 1.961 . S
Li354 N399 1.990 . S
Li354 O412 1.961 . S
Li354 O414 1.956 . S
Li354 O415 1.970 . S
Li355 N405 1.990 . S
Li355 O413 1.961 . S
Li355 O414 1.970 . S
Li355 O415 1.956 . S
C356 C358 1.348 . S
C356 C359 1.356 . S
C356 O412 1.325 . S
N357 C360 1.314 . S
N357 C361 1.279 . S
C358 C356 1.348 . S
C358 C360 1.353 . S
C358 H416 0.929 . S
C359 C356 1.356 . S
C359 C361 1.358 . S
C359 H417 0.930 . S
C360 N357 1.314 . S
C360 C358 1.353 . S
C360 H418 0.930 . S
C361 N357 1.279 . S
C361 C359 1.358 . S
C361 H419 0.930 . S
C362 C365 1.348 . S
C362 C366 1.356 . S
C362 O413 1.325 . S
C363 N364 1.279 . S
C363 C366 1.358 . S
C363 H420 0.930 . S
N364 C363 1.279 . S
N364 C367 1.314 . S
C365 C362 1.348 . S
C365 C367 1.353 . S
C365 H421 0.929 . S
C366 C362 1.356 . S
C366 C363 1.358 . S
C366 H422 0.930 . S
C367 N364 1.314 . S
C367 C365 1.353 . S
C367 H423 0.930 . S
C368 N369 1.314 . S
C368 C373 1.353 . S
C368 H374 0.930 . S
N369 Li352 1.990 . S
N369 C368 1.314 . S
N369 C371 1.279 . S
C370 C371 1.358 . S
C370 C372 1.356 . S
C370 H424 0.930 . S
C371 N369 1.279 . S
C371 C370 1.358 . S
C371 H375 0.930 . S
C372 C370 1.356 . S
C372 C373 1.348 . S
C373 C368 1.353 . S
C373 C372 1.348 . S
C373 H425 0.929 . S
H374 C368 0.930 . S
H375 C371 0.930 . S
C376 N377 1.314 . S
C376 C378 1.353 . S
C376 H382 0.930 . S
N377 Li353 1.990 . S
N377 C376 1.314 . S
N377 C380 1.279 . S
C378 C376 1.353 . S
C378 C381 1.348 . S
C378 H426 0.929 . S
C379 C380 1.358 . S
C379 C381 1.356 . S
C379 H427 0.930 . S
C380 N377 1.279 . S
C380 C379 1.358 . S
C380 H383 0.930 . S
C381 C378 1.348 . S
C381 C379 1.356 . S
H382 C376 0.930 . S
H383 C380 0.930 . S
C384 C386 1.348 . S
C384 C387 1.356 . S
C384 O414 1.325 . S
N385 C388 1.314 . S
N385 C389 1.279 . S
C386 C384 1.348 . S
C386 C388 1.353 . S
C386 H428 0.929 . S
C387 C384 1.356 . S
C387 C389 1.358 . S
C387 H429 0.930 . S
C388 N385 1.314 . S
C388 C386 1.353 . S
C388 H430 0.930 . S
C389 N385 1.279 . S
C389 C387 1.358 . S
C389 H431 0.930 . S
C390 C391 1.348 . S
C390 C392 1.356 . S
C390 O415 1.325 . S
C391 C390 1.348 . S
C391 C393 1.353 . S
C391 H432 0.929 . S
C392 C390 1.356 . S
C392 C394 1.358 . S
C392 H433 0.930 . S
C393 C391 1.353 . S
C393 N395 1.314 . S
C393 H434 0.930 . S
C394 C392 1.358 . S
C394 N395 1.279 . S
C394 H435 0.930 . S
N395 C393 1.314 . S
N395 C394 1.279 . S
C396 C398 1.353 . S
C396 N399 1.314 . S
C396 H402 0.930 . S
C397 N399 1.279 . S
C397 C400 1.358 . S
C397 H403 0.930 . S
C398 C396 1.353 . S
C398 C401 1.348 . S
C398 H436 0.929 . S
N399 Li354 1.990 . S
N399 C396 1.314 . S
N399 C397 1.279 . S
C400 C397 1.358 . S
C400 C401 1.356 . S
C400 H437 0.930 . S
C401 C398 1.348 . S
C401 C400 1.356 . S
H402 C396 0.930 . S
H403 C397 0.930 . S
C404 N405 1.314 . S
C404 C406 1.353 . S
C404 H410 0.930 . S
N405 Li355 1.990 . S
N405 C404 1.314 . S
N405 C408 1.279 . S
C406 C404 1.353 . S
C406 C409 1.348 . S
C406 H438 0.929 . S
C407 C408 1.358 . S
C407 C409 1.356 . S
C407 H439 0.930 . S
C408 N405 1.279 . S
C408 C407 1.358 . S
C408 H411 0.930 . S
C409 C406 1.348 . S
C409 C407 1.356 . S
H410 C404 0.930 . S
H411 C408 0.930 . S
O412 Li352 1.956 . S
O412 Li353 1.970 . S
O412 Li354 1.961 . S
O412 C356 1.325 . S
O413 Li352 1.970 . S
O413 Li353 1.956 . S
O413 Li355 1.961 . S
O413 C362 1.325 . S
O414 Li352 1.961 . S
O414 Li354 1.956 . S
O414 Li355 1.970 . S
O414 C384 1.325 . S
O415 Li353 1.961 . S
O415 Li354 1.970 . S
O415 Li355 1.956 . S
O415 C390 1.325 . S
H416 C358 0.929 . S
H417 C359 0.930 . S
H418 C360 0.930 . S
H419 C361 0.930 . S
H420 C363 0.930 . S
H421 C365 0.929 . S
H422 C366 0.930 . S
H423 C367 0.930 . S
H424 C370 0.930 . S
H425 C373 0.929 . S
H426 C378 0.929 . S
H427 C379 0.930 . S
H428 C386 0.929 . S
H429 C387 0.930 . S
H430 C388 0.930 . S
H431 C389 0.930 . S
H432 C391 0.929 . S
H433 C392 0.930 . S
H434 C393 0.930 . S
H435 C394 0.930 . S
H436 C398 0.929 . S
H437 C400 0.930 . S
H438 C406 0.929 . S
H439 C407 0.930 . S
Li440 N457 1.990 . S
Li440 O500 1.956 1_556 S
Li440 O501 1.970 1_556 S
Li440 O502 1.961 . S
Li441 N465 1.990 . S
Li441 O500 1.970 . S
Li441 O501 1.956 . S
Li441 O503 1.961 . S
Li442 N487 1.990 . S
Li442 O500 1.961 1_556 S
Li442 O502 1.956 . S
Li442 O503 1.970 1_556 S
Li443 N493 1.990 . S
Li443 O501 1.961 1_556 S
Li443 O502 1.970 . S
Li443 O503 1.956 1_556 S
C444 C446 1.348 . S
C444 C447 1.356 . S
C444 O500 1.325 . S
N445 C448 1.314 . S
N445 C449 1.279 . S
C446 C444 1.348 . S
C446 C448 1.353 . S
C446 H504 0.929 . S
C447 C444 1.356 . S
C447 C449 1.358 . S
C447 H505 0.930 . S
C448 N445 1.314 . S
C448 C446 1.353 . S
C448 H506 0.930 . S
C449 N445 1.279 . S
C449 C447 1.358 . S
C449 H507 0.930 . S
C450 C453 1.348 . S
C450 C454 1.356 . S
C450 O501 1.325 . S
C451 N452 1.279 . S
C451 C454 1.358 . S
C451 H508 0.930 . S
N452 C451 1.279 . S
N452 C455 1.314 . S
C453 C450 1.348 . S
C453 C455 1.353 . S
C453 H509 0.929 . S
C454 C450 1.356 . S
C454 C451 1.358 . S
C454 H510 0.930 . S
C455 N452 1.314 . S
C455 C453 1.353 . S
C455 H511 0.930 . S
C456 N457 1.314 . S
C456 C461 1.353 . S
C456 H462 0.930 . S
N457 Li440 1.990 . S
N457 C456 1.314 . S
N457 C459 1.279 1_556 S
C458 C459 1.358 1_556 S
C458 C460 1.356 . S
C458 H512 0.930 1_556 S
C459 N457 1.279 1_554 S
C459 C458 1.358 1_554 S
C459 H463 0.930 . S
C460 C458 1.356 . S
C460 C461 1.348 . S
C461 C456 1.353 . S
C461 C460 1.348 . S
C461 H513 0.929 . S
H462 C456 0.930 . S
H463 C459 0.930 . S
C464 N465 1.314 . S
C464 C466 1.353 . S
C464 H470 0.930 . S
N465 Li441 1.990 . S
N465 C464 1.314 . S
N465 C468 1.279 . S
C466 C464 1.353 . S
C466 C469 1.348 . S
C466 H514 0.929 . S
C467 C468 1.358 . S
C467 C469 1.356 . S
C467 H515 0.930 . S
C468 N465 1.279 . S
C468 C467 1.358 . S
C468 H471 0.930 . S
C469 C466 1.348 . S
C469 C467 1.356 . S
H470 C464 0.930 . S
H471 C468 0.930 . S
C472 C474 1.348 . S
C472 C475 1.356 . S
C472 O502 1.325 . S
N473 C476 1.314 . S
N473 C477 1.279 . S
C474 C472 1.348 . S
C474 C476 1.353 . S
C474 H516 0.929 . S
C475 C472 1.356 . S
C475 C477 1.358 . S
C475 H517 0.930 . S
C476 N473 1.314 . S
C476 C474 1.353 . S
C476 H518 0.930 . S
C477 N473 1.279 . S
C477 C475 1.358 . S
C477 H519 0.930 . S
C478 C479 1.348 . S
C478 C480 1.356 . S
C478 O503 1.325 . S
C479 C478 1.348 . S
C479 C481 1.353 . S
C479 H520 0.929 1_554 S
C480 C478 1.356 . S
C480 C482 1.358 . S
C480 H521 0.930 . S
C481 C479 1.353 . S
C481 N483 1.314 . S
C481 H522 0.930 . S
C482 C480 1.358 . S
C482 N483 1.279 . S
C482 H523 0.930 . S
N483 C481 1.314 . S
N483 C482 1.279 . S
C484 C486 1.353 . S
C484 N487 1.314 1_554 S
C484 H490 0.930 . S
C485 N487 1.279 . S
C485 C488 1.358 . S
C485 H491 0.930 . S
C486 C484 1.353 . S
C486 C489 1.348 1_554 S
C486 H524 0.929 . S
N487 Li442 1.990 . S
N487 C484 1.314 1_556 S
N487 C485 1.279 . S
C488 C485 1.358 . S
C488 C489 1.356 . S
C488 H525 0.930 . S
C489 C486 1.348 1_556 S
C489 C488 1.356 . S
H490 C484 0.930 . S
H491 C485 0.930 . S
C492 N493 1.314 . S
C492 C494 1.353 . S
C492 H498 0.930 . S
N493 Li443 1.990 . S
N493 C492 1.314 . S
N493 C496 1.279 . S
C494 C492 1.353 . S
C494 C497 1.348 . S
C494 H526 0.929 . S
C495 C496 1.358 . S
C495 C497 1.356 . S
C495 H527 0.930 . S
C496 N493 1.279 . S
C496 C495 1.358 . S
C496 H499 0.930 . S
C497 C494 1.348 . S
C497 C495 1.356 . S
H498 C492 0.930 . S
H499 C496 0.930 . S
O500 Li440 1.956 1_554 S
O500 Li441 1.970 . S
O500 Li442 1.961 1_554 S
O500 C444 1.325 . S
O501 Li440 1.970 1_554 S
O501 Li441 1.956 . S
O501 Li443 1.961 1_554 S
O501 C450 1.325 . S
O502 Li440 1.961 . S
O502 Li442 1.956 . S
O502 Li443 1.970 . S
O502 C472 1.325 . S
O503 Li441 1.961 . S
O503 Li442 1.970 1_554 S
O503 Li443 1.956 1_554 S
O503 C478 1.325 . S
H504 C446 0.929 . S
H505 C447 0.930 . S
H506 C448 0.930 . S
H507 C449 0.930 . S
H508 C451 0.930 . S
H509 C453 0.929 . S
H510 C454 0.930 . S
H511 C455 0.930 . S
H512 C458 0.930 1_554 S
H513 C461 0.929 . S
H514 C466 0.929 . S
H515 C467 0.930 . S
H516 C474 0.929 . S
H517 C475 0.930 . S
H518 C476 0.930 . S
H519 C477 0.930 . S
H520 C479 0.929 1_556 S
H521 C480 0.930 . S
H522 C481 0.930 . S
H523 C482 0.930 . S
H524 C486 0.929 . S
H525 C488 0.930 . S
H526 C494 0.929 . S
H527 C495 0.930 . S
Li528 N545 1.990 . S
Li528 O588 1.956 . S
Li528 O589 1.970 . S
Li528 O590 1.961 . S
Li529 N553 1.990 . S
Li529 O588 1.970 . S
Li529 O589 1.956 . S
Li529 O591 1.961 . S
Li530 N575 1.990 . S
Li530 O588 1.961 . S
Li530 O590 1.956 . S
Li530 O591 1.970 . S
Li531 N581 1.990 . S
Li531 O589 1.961 . S
Li531 O590 1.970 . S
Li531 O591 1.956 . S
C532 C534 1.348 . S
C532 C535 1.356 . S
C532 O588 1.325 . S
N533 C536 1.314 . S
N533 C537 1.279 . S
C534 C532 1.348 . S
C534 C536 1.353 . S
C534 H592 0.929 . S
C535 C532 1.356 . S
C535 C537 1.358 . S
C535 H593 0.930 . S
C536 N533 1.314 . S
C536 C534 1.353 . S
C536 H594 0.930 . S
C537 N533 1.279 . S
C537 C535 1.358 . S
C537 H595 0.930 . S
C538 C541 1.348 . S
C538 C542 1.356 . S
C538 O589 1.325 . S
C539 N540 1.279 . S
C539 C542 1.358 . S
C539 H596 0.930 . S
N540 C539 1.279 . S
N540 C543 1.314 . S
C541 C538 1.348 . S
C541 C543 1.353 . S
C541 H597 0.929 . S
C542 C538 1.356 . S
C542 C539 1.358 . S
C542 H598 0.930 . S
C543 N540 1.314 . S
C543 C541 1.353 . S
C543 H599 0.930 . S
C544 N545 1.314 . S
C544 C549 1.353 . S
C544 H550 0.930 . S
N545 Li528 1.990 . S
N545 C544 1.314 . S
N545 C547 1.279 . S
C546 C547 1.358 . S
C546 C548 1.356 . S
C546 H600 0.930 . S
C547 N545 1.279 . S
C547 C546 1.358 . S
C547 H551 0.930 . S
C548 C546 1.356 . S
C548 C549 1.348 . S
C549 C544 1.353 . S
C549 C548 1.348 . S
C549 H601 0.929 . S
H550 C544 0.930 . S
H551 C547 0.930 . S
C552 N553 1.314 . S
C552 C554 1.353 . S
C552 H558 0.930 . S
N553 Li529 1.990 . S
N553 C552 1.314 . S
N553 C556 1.279 . S
C554 C552 1.353 . S
C554 C557 1.348 . S
C554 H602 0.929 . S
C555 C556 1.358 . S
C555 C557 1.356 . S
C555 H603 0.930 . S
C556 N553 1.279 . S
C556 C555 1.358 . S
C556 H559 0.930 . S
C557 C554 1.348 . S
C557 C555 1.356 . S
H558 C552 0.930 . S
H559 C556 0.930 . S
C560 C562 1.348 . S
C560 C563 1.356 . S
C560 O590 1.325 . S
N561 C564 1.314 . S
N561 C565 1.279 . S
C562 C560 1.348 . S
C562 C564 1.353 . S
C562 H604 0.929 . S
C563 C560 1.356 . S
C563 C565 1.358 . S
C563 H605 0.930 . S
C564 N561 1.314 . S
C564 C562 1.353 . S
C564 H606 0.930 . S
C565 N561 1.279 . S
C565 C563 1.358 . S
C565 H607 0.930 . S
C566 C567 1.348 . S
C566 C568 1.356 . S
C566 O591 1.325 . S
C567 C566 1.348 . S
C567 C569 1.353 . S
C567 H608 0.929 . S
C568 C566 1.356 . S
C568 C570 1.358 . S
C568 H609 0.930 . S
C569 C567 1.353 . S
C569 N571 1.314 . S
C569 H610 0.930 . S
C570 C568 1.358 . S
C570 N571 1.279 . S
C570 H611 0.930 . S
N571 C569 1.314 . S
N571 C570 1.279 . S
C572 C574 1.353 . S
C572 N575 1.314 . S
C572 H578 0.930 . S
C573 N575 1.279 . S
C573 C576 1.358 . S
C573 H579 0.930 . S
C574 C572 1.353 . S
C574 C577 1.348 . S
C574 H612 0.929 . S
N575 Li530 1.990 . S
N575 C572 1.314 . S
N575 C573 1.279 . S
C576 C573 1.358 . S
C576 C577 1.356 . S
C576 H613 0.930 . S
C577 C574 1.348 . S
C577 C576 1.356 . S
H578 C572 0.930 . S
H579 C573 0.930 . S
C580 N581 1.314 . S
C580 C582 1.353 . S
C580 H586 0.930 . S
N581 Li531 1.990 . S
N581 C580 1.314 . S
N581 C584 1.279 . S
C582 C580 1.353 . S
C582 C585 1.348 . S
C582 H614 0.929 . S
C583 C584 1.358 . S
C583 C585 1.356 . S
C583 H615 0.930 . S
C584 N581 1.279 . S
C584 C583 1.358 . S
C584 H587 0.930 . S
C585 C582 1.348 . S
C585 C583 1.356 . S
H586 C580 0.930 . S
H587 C584 0.930 . S
O588 Li528 1.956 . S
O588 Li529 1.970 . S
O588 Li530 1.961 . S
O588 C532 1.325 . S
O589 Li528 1.970 . S
O589 Li529 1.956 . S
O589 Li531 1.961 . S
O589 C538 1.325 . S
O590 Li528 1.961 . S
O590 Li530 1.956 . S
O590 Li531 1.970 . S
O590 C560 1.325 . S
O591 Li529 1.961 . S
O591 Li530 1.970 . S
O591 Li531 1.956 . S
O591 C566 1.325 . S
H592 C534 0.929 . S
H593 C535 0.930 . S
H594 C536 0.930 . S
H595 C537 0.930 . S
H596 C539 0.930 . S
H597 C541 0.929 . S
H598 C542 0.930 . S
H599 C543 0.930 . S
H600 C546 0.930 . S
H601 C549 0.929 . S
H602 C554 0.929 . S
H603 C555 0.930 . S
H604 C562 0.929 . S
H605 C563 0.930 . S
H606 C564 0.930 . S
H607 C565 0.930 . S
H608 C567 0.929 . S
H609 C568 0.930 . S
H610 C569 0.930 . S
H611 C570 0.930 . S
H612 C574 0.929 . S
H613 C576 0.930 . S
H614 C582 0.929 . S
H615 C583 0.930 . S
Li616 N633 1.990 . S
Li616 O676 1.956 . S
Li616 O677 1.970 . S
Li616 O678 1.961 . S
Li617 N641 1.990 . S
Li617 O676 1.970 . S
Li617 O677 1.956 . S
Li617 O679 1.961 . S
Li618 N663 1.990 . S
Li618 O676 1.961 . S
Li618 O678 1.956 . S
Li618 O679 1.970 . S
Li619 N669 1.990 . S
Li619 O677 1.961 . S
Li619 O678 1.970 . S
Li619 O679 1.956 . S
C620 C622 1.348 . S
C620 C623 1.356 . S
C620 O676 1.325 . S
N621 C624 1.314 . S
N621 C625 1.279 . S
C622 C620 1.348 . S
C622 C624 1.353 . S
C622 H680 0.929 . S
C623 C620 1.356 . S
C623 C625 1.358 . S
C623 H681 0.930 . S
C624 N621 1.314 . S
C624 C622 1.353 . S
C624 H682 0.930 . S
C625 N621 1.279 . S
C625 C623 1.358 . S
C625 H683 0.930 . S
C626 C629 1.348 . S
C626 C630 1.356 . S
C626 O677 1.325 . S
C627 N628 1.279 . S
C627 C630 1.358 . S
C627 H684 0.930 . S
N628 C627 1.279 . S
N628 C631 1.314 . S
C629 C626 1.348 . S
C629 C631 1.353 . S
C629 H685 0.929 . S
C630 C626 1.356 . S
C630 C627 1.358 . S
C630 H686 0.930 . S
C631 N628 1.314 . S
C631 C629 1.353 . S
C631 H687 0.930 . S
C632 N633 1.314 . S
C632 C637 1.353 . S
C632 H638 0.930 . S
N633 Li616 1.990 . S
N633 C632 1.314 . S
N633 C635 1.279 . S
C634 C635 1.358 . S
C634 C636 1.356 . S
C634 H688 0.930 . S
C635 N633 1.279 . S
C635 C634 1.358 . S
C635 H639 0.930 . S
C636 C634 1.356 . S
C636 C637 1.348 . S
C637 C632 1.353 . S
C637 C636 1.348 . S
C637 H689 0.929 . S
H638 C632 0.930 . S
H639 C635 0.930 . S
C640 N641 1.314 . S
C640 C642 1.353 . S
C640 H646 0.930 . S
N641 Li617 1.990 . S
N641 C640 1.314 . S
N641 C644 1.279 . S
C642 C640 1.353 . S
C642 C645 1.348 . S
C642 H690 0.929 . S
C643 C644 1.358 . S
C643 C645 1.356 . S
C643 H691 0.930 . S
C644 N641 1.279 . S
C644 C643 1.358 . S
C644 H647 0.930 . S
C645 C642 1.348 . S
C645 C643 1.356 . S
H646 C640 0.930 . S
H647 C644 0.930 . S
C648 C650 1.348 . S
C648 C651 1.356 . S
C648 O678 1.325 . S
N649 C652 1.314 . S
N649 C653 1.279 . S
C650 C648 1.348 . S
C650 C652 1.353 . S
C650 H692 0.929 . S
C651 C648 1.356 . S
C651 C653 1.358 . S
C651 H693 0.930 . S
C652 N649 1.314 . S
C652 C650 1.353 . S
C652 H694 0.930 . S
C653 N649 1.279 . S
C653 C651 1.358 . S
C653 H695 0.930 . S
C654 C655 1.348 . S
C654 C656 1.356 . S
C654 O679 1.325 . S
C655 C654 1.348 . S
C655 C657 1.353 . S
C655 H696 0.929 . S
C656 C654 1.356 . S
C656 C658 1.358 . S
C656 H697 0.930 . S
C657 C655 1.353 . S
C657 N659 1.314 . S
C657 H698 0.930 . S
C658 C656 1.358 . S
C658 N659 1.279 . S
C658 H699 0.930 . S
N659 C657 1.314 . S
N659 C658 1.279 . S
C660 C662 1.353 . S
C660 N663 1.314 . S
C660 H666 0.930 . S
C661 N663 1.279 . S
C661 C664 1.358 . S
C661 H667 0.930 . S
C662 C660 1.353 . S
C662 C665 1.348 . S
C662 H700 0.929 . S
N663 Li618 1.990 . S
N663 C660 1.314 . S
N663 C661 1.279 . S
C664 C661 1.358 . S
C664 C665 1.356 . S
C664 H701 0.930 . S
C665 C662 1.348 . S
C665 C664 1.356 . S
H666 C660 0.930 . S
H667 C661 0.930 . S
C668 N669 1.314 . S
C668 C670 1.353 . S
C668 H674 0.930 . S
N669 Li619 1.990 . S
N669 C668 1.314 . S
N669 C672 1.279 . S
C670 C668 1.353 . S
C670 C673 1.348 . S
C670 H702 0.929 . S
C671 C672 1.358 . S
C671 C673 1.356 . S
C671 H703 0.930 . S
C672 N669 1.279 . S
C672 C671 1.358 . S
C672 H675 0.930 . S
C673 C670 1.348 . S
C673 C671 1.356 . S
H674 C668 0.930 . S
H675 C672 0.930 . S
O676 Li616 1.956 . S
O676 Li617 1.970 . S
O676 Li618 1.961 . S
O676 C620 1.325 . S
O677 Li616 1.970 . S
O677 Li617 1.956 . S
O677 Li619 1.961 . S
O677 C626 1.325 . S
O678 Li616 1.961 . S
O678 Li618 1.956 . S
O678 Li619 1.970 . S
O678 C648 1.325 . S
O679 Li617 1.961 . S
O679 Li618 1.970 . S
O679 Li619 1.956 . S
O679 C654 1.325 . S
H680 C622 0.929 . S
H681 C623 0.930 . S
H682 C624 0.930 . S
H683 C625 0.930 . S
H684 C627 0.930 . S
H685 C629 0.929 . S
H686 C630 0.930 . S
H687 C631 0.930 . S
H688 C634 0.930 . S
H689 C637 0.929 . S
H690 C642 0.929 . S
H691 C643 0.930 . S
H692 C650 0.929 . S
H693 C651 0.930 . S
H694 C652 0.930 . S
H695 C653 0.930 . S
H696 C655 0.929 . S
H697 C656 0.930 . S
H698 C657 0.930 . S
H699 C658 0.930 . S
H700 C662 0.929 . S
H701 C664 0.930 . S
H702 C670 0.929 . S
H703 C671 0.930 . S
Li704 N721 1.990 . S
Li704 O764 1.956 . S
Li704 O765 1.970 1_554 S
Li704 O766 1.961 1_554 S
Li705 N729 1.990 . S
Li705 O764 1.970 . S
Li705 O765 1.956 1_554 S
Li705 O767 1.961 1_554 S
Li706 N751 1.990 . S
Li706 O764 1.961 . S
Li706 O766 1.956 1_554 S
Li706 O767 1.970 1_554 S
Li707 N757 1.990 . S
Li707 O765 1.961 . S
Li707 O766 1.970 . S
Li707 O767 1.956 . S
C708 C710 1.348 . S
C708 C711 1.356 . S
C708 O764 1.325 . S
N709 C712 1.314 . S
N709 C713 1.279 . S
C710 C708 1.348 . S
C710 C712 1.353 . S
C710 H768 0.929 . S
C711 C708 1.356 . S
C711 C713 1.358 . S
C711 H769 0.930 . S
C712 N709 1.314 . S
C712 C710 1.353 . S
C712 H770 0.930 . S
C713 N709 1.279 . S
C713 C711 1.358 . S
C713 H771 0.930 . S
C714 C717 1.348 . S
C714 C718 1.356 . S
C714 O765 1.325 . S
C715 N716 1.279 . S
C715 C718 1.358 . S
C715 H772 0.930 . S
N716 C715 1.279 . S
N716 C719 1.314 . S
C717 C714 1.348 . S
C717 C719 1.353 . S
C717 H773 0.929 1_556 S
C718 C714 1.356 . S
C718 C715 1.358 . S
C718 H774 0.930 . S
C719 N716 1.314 . S
C719 C717 1.353 . S
C719 H775 0.930 . S
C720 N721 1.314 1_556 S
C720 C725 1.353 . S
C720 H726 0.930 . S
N721 Li704 1.990 . S
N721 C720 1.314 1_554 S
N721 C723 1.279 . S
C722 C723 1.358 . S
C722 C724 1.356 . S
C722 H776 0.930 . S
C723 N721 1.279 . S
C723 C722 1.358 . S
C723 H727 0.930 . S
C724 C722 1.356 . S
C724 C725 1.348 1_554 S
C725 C720 1.353 . S
C725 C724 1.348 1_556 S
C725 H777 0.929 . S
H726 C720 0.930 . S
H727 C723 0.930 . S
C728 N729 1.314 . S
C728 C730 1.353 . S
C728 H734 0.930 . S
N729 Li705 1.990 . S
N729 C728 1.314 . S
N729 C732 1.279 . S
C730 C728 1.353 . S
C730 C733 1.348 . S
C730 H778 0.929 . S
C731 C732 1.358 . S
C731 C733 1.356 . S
C731 H779 0.930 . S
C732 N729 1.279 . S
C732 C731 1.358 . S
C732 H735 0.930 . S
C733 C730 1.348 . S
C733 C731 1.356 . S
H734 C728 0.930 . S
H735 C732 0.930 . S
C736 C738 1.348 . S
C736 C739 1.356 . S
C736 O766 1.325 . S
N737 C740 1.314 . S
N737 C741 1.279 . S
C738 C736 1.348 . S
C738 C740 1.353 . S
C738 H780 0.929 . S
C739 C736 1.356 . S
C739 C741 1.358 . S
C739 H781 0.930 . S
C740 N737 1.314 . S
C740 C738 1.353 . S
C740 H782 0.930 . S
C741 N737 1.279 . S
C741 C739 1.358 . S
C741 H783 0.930 . S
C742 C743 1.348 . S
C742 C744 1.356 . S
C742 O767 1.325 . S
C743 C742 1.348 . S
C743 C745 1.353 . S
C743 H784 0.929 . S
C744 C742 1.356 . S
C744 C746 1.358 . S
C744 H785 0.930 . S
C745 C743 1.353 . S
C745 N747 1.314 . S
C745 H786 0.930 . S
C746 C744 1.358 . S
C746 N747 1.279 . S
C746 H787 0.930 . S
N747 C745 1.314 . S
N747 C746 1.279 . S
C748 C750 1.353 . S
C748 N751 1.314 . S
C748 H754 0.930 . S
C749 N751 1.279 1_556 S
C749 C752 1.358 1_556 S
C749 H755 0.930 . S
C750 C748 1.353 . S
C750 C753 1.348 . S
C750 H788 0.929 . S
N751 Li706 1.990 . S
N751 C748 1.314 . S
N751 C749 1.279 1_554 S
C752 C749 1.358 1_554 S
C752 C753 1.356 . S
C752 H789 0.930 1_554 S
C753 C750 1.348 . S
C753 C752 1.356 . S
H754 C748 0.930 . S
H755 C749 0.930 . S
C756 N757 1.314 . S
C756 C758 1.353 . S
C756 H762 0.930 . S
N757 Li707 1.990 . S
N757 C756 1.314 . S
N757 C760 1.279 . S
C758 C756 1.353 . S
C758 C761 1.348 . S
C758 H790 0.929 . S
C759 C760 1.358 . S
C759 C761 1.356 . S
C759 H791 0.930 . S
C760 N757 1.279 . S
C760 C759 1.358 . S
C760 H763 0.930 . S
C761 C758 1.348 . S
C761 C759 1.356 . S
H762 C756 0.930 . S
H763 C760 0.930 . S
O764 Li704 1.956 . S
O764 Li705 1.970 . S
O764 Li706 1.961 . S
O764 C708 1.325 . S
O765 Li704 1.970 1_556 S
O765 Li705 1.956 1_556 S
O765 Li707 1.961 . S
O765 C714 1.325 . S
O766 Li704 1.961 1_556 S
O766 Li706 1.956 1_556 S
O766 Li707 1.970 . S
O766 C736 1.325 . S
O767 Li705 1.961 1_556 S
O767 Li706 1.970 1_556 S
O767 Li707 1.956 . S
O767 C742 1.325 . S
H768 C710 0.929 . S
H769 C711 0.930 . S
H770 C712 0.930 . S
H771 C713 0.930 . S
H772 C715 0.930 . S
H773 C717 0.929 1_554 S
H774 C718 0.930 . S
H775 C719 0.930 . S
H776 C722 0.930 . S
H777 C725 0.929 . S
H778 C730 0.929 . S
H779 C731 0.930 . S
H780 C738 0.929 . S
H781 C739 0.930 . S
H782 C740 0.930 . S
H783 C741 0.930 . S
H784 C743 0.929 . S
H785 C744 0.930 . S
H786 C745 0.930 . S
H787 C746 0.930 . S
H788 C750 0.929 . S
H789 C752 0.930 1_556 S
H790 C758 0.929 . S
H791 C759 0.930 . S
Li792 N809 1.990 . S
Li792 O852 1.956 . S
Li792 O853 1.970 . S
Li792 O854 1.961 . S
Li793 N817 1.990 . S
Li793 O852 1.970 . S
Li793 O853 1.956 . S
Li793 O855 1.961 . S
Li794 N839 1.990 . S
Li794 O852 1.961 . S
Li794 O854 1.956 . S
Li794 O855 1.970 . S
Li795 N845 1.990 . S
Li795 O853 1.961 . S
Li795 O854 1.970 . S
Li795 O855 1.956 . S
C796 C798 1.348 . S
C796 C799 1.356 . S
C796 O852 1.325 . S
N797 C800 1.314 . S
N797 C801 1.279 . S
C798 C796 1.348 . S
C798 C800 1.353 . S
C798 H856 0.929 . S
C799 C796 1.356 . S
C799 C801 1.358 . S
C799 H857 0.930 . S
C800 N797 1.314 . S
C800 C798 1.353 . S
C800 H858 0.930 . S
C801 N797 1.279 . S
C801 C799 1.358 . S
C801 H859 0.930 . S
C802 C805 1.348 . S
C802 C806 1.356 . S
C802 O853 1.325 . S
C803 N804 1.279 . S
C803 C806 1.358 . S
C803 H860 0.930 . S
N804 C803 1.279 . S
N804 C807 1.314 . S
C805 C802 1.348 . S
C805 C807 1.353 . S
C805 H861 0.929 . S
C806 C802 1.356 . S
C806 C803 1.358 . S
C806 H862 0.930 . S
C807 N804 1.314 . S
C807 C805 1.353 . S
C807 H863 0.930 . S
C808 N809 1.314 . S
C808 C813 1.353 . S
C808 H814 0.930 . S
N809 Li792 1.990 . S
N809 C808 1.314 . S
N809 C811 1.279 . S
C810 C811 1.358 . S
C810 C812 1.356 . S
C810 H864 0.930 . S
C811 N809 1.279 . S
C811 C810 1.358 . S
C811 H815 0.930 . S
C812 C810 1.356 . S
C812 C813 1.348 . S
C813 C808 1.353 . S
C813 C812 1.348 . S
C813 H865 0.929 . S
H814 C808 0.930 . S
H815 C811 0.930 . S
C816 N817 1.314 . S
C816 C818 1.353 . S
C816 H822 0.930 . S
N817 Li793 1.990 . S
N817 C816 1.314 . S
N817 C820 1.279 . S
C818 C816 1.353 . S
C818 C821 1.348 . S
C818 H866 0.929 . S
C819 C820 1.358 . S
C819 C821 1.356 . S
C819 H867 0.930 . S
C820 N817 1.279 . S
C820 C819 1.358 . S
C820 H823 0.930 . S
C821 C818 1.348 . S
C821 C819 1.356 . S
H822 C816 0.930 . S
H823 C820 0.930 . S
C824 C826 1.348 . S
C824 C827 1.356 . S
C824 O854 1.325 . S
N825 C828 1.314 . S
N825 C829 1.279 . S
C826 C824 1.348 . S
C826 C828 1.353 . S
C826 H868 0.929 . S
C827 C824 1.356 . S
C827 C829 1.358 . S
C827 H869 0.930 . S
C828 N825 1.314 . S
C828 C826 1.353 . S
C828 H870 0.930 . S
C829 N825 1.279 . S
C829 C827 1.358 . S
C829 H871 0.930 . S
C830 C831 1.348 . S
C830 C832 1.356 . S
C830 O855 1.325 . S
C831 C830 1.348 . S
C831 C833 1.353 . S
C831 H872 0.929 . S
C832 C830 1.356 . S
C832 C834 1.358 . S
C832 H873 0.930 . S
C833 C831 1.353 . S
C833 N835 1.314 . S
C833 H874 0.930 . S
C834 C832 1.358 . S
C834 N835 1.279 . S
C834 H875 0.930 . S
N835 C833 1.314 . S
N835 C834 1.279 . S
C836 C838 1.353 . S
C836 N839 1.314 . S
C836 H842 0.930 . S
C837 N839 1.279 . S
C837 C840 1.358 . S
C837 H843 0.930 . S
C838 C836 1.353 . S
C838 C841 1.348 . S
C838 H876 0.929 . S
N839 Li794 1.990 . S
N839 C836 1.314 . S
N839 C837 1.279 . S
C840 C837 1.358 . S
C840 C841 1.356 . S
C840 H877 0.930 . S
C841 C838 1.348 . S
C841 C840 1.356 . S
H842 C836 0.930 . S
H843 C837 0.930 . S
C844 N845 1.314 . S
C844 C846 1.353 . S
C844 H850 0.930 . S
N845 Li795 1.990 . S
N845 C844 1.314 . S
N845 C848 1.279 . S
C846 C844 1.353 . S
C846 C849 1.348 . S
C846 H878 0.929 . S
C847 C848 1.358 . S
C847 C849 1.356 . S
C847 H879 0.930 . S
C848 N845 1.279 . S
C848 C847 1.358 . S
C848 H851 0.930 . S
C849 C846 1.348 . S
C849 C847 1.356 . S
H850 C844 0.930 . S
H851 C848 0.930 . S
O852 Li792 1.956 . S
O852 Li793 1.970 . S
O852 Li794 1.961 . S
O852 C796 1.325 . S
O853 Li792 1.970 . S
O853 Li793 1.956 . S
O853 Li795 1.961 . S
O853 C802 1.325 . S
O854 Li792 1.961 . S
O854 Li794 1.956 . S
O854 Li795 1.970 . S
O854 C824 1.325 . S
O855 Li793 1.961 . S
O855 Li794 1.970 . S
O855 Li795 1.956 . S
O855 C830 1.325 . S
H856 C798 0.929 . S
H857 C799 0.930 . S
H858 C800 0.930 . S
H859 C801 0.930 . S
H860 C803 0.930 . S
H861 C805 0.929 . S
H862 C806 0.930 . S
H863 C807 0.930 . S
H864 C810 0.930 . S
H865 C813 0.929 . S
H866 C818 0.929 . S
H867 C819 0.930 . S
H868 C826 0.929 . S
H869 C827 0.930 . S
H870 C828 0.930 . S
H871 C829 0.930 . S
H872 C831 0.929 . S
H873 C832 0.930 . S
H874 C833 0.930 . S
H875 C834 0.930 . S
H876 C838 0.929 . S
H877 C840 0.930 . S
H878 C846 0.929 . S
H879 C847 0.930 . S
Li880 N897 1.990 . S
Li880 O940 1.956 . S
Li880 O941 1.970 . S
Li880 O942 1.961 . S
Li881 N905 1.990 . S
Li881 O940 1.970 . S
Li881 O941 1.956 . S
Li881 O943 1.961 . S
Li882 N927 1.990 . S
Li882 O940 1.961 . S
Li882 O942 1.956 . S
Li882 O943 1.970 . S
Li883 N933 1.990 . S
Li883 O941 1.961 . S
Li883 O942 1.970 . S
Li883 O943 1.956 . S
C884 C886 1.348 . S
C884 C887 1.356 . S
C884 O940 1.325 . S
N885 C888 1.314 . S
N885 C889 1.279 . S
C886 C884 1.348 . S
C886 C888 1.353 . S
C886 H944 0.929 . S
C887 C884 1.356 . S
C887 C889 1.358 . S
C887 H945 0.930 . S
C888 N885 1.314 . S
C888 C886 1.353 . S
C888 H946 0.930 . S
C889 N885 1.279 . S
C889 C887 1.358 . S
C889 H947 0.930 . S
C890 C893 1.348 . S
C890 C894 1.356 . S
C890 O941 1.325 . S
C891 N892 1.279 . S
C891 C894 1.358 . S
C891 H948 0.930 . S
N892 C891 1.279 . S
N892 C895 1.314 . S
C893 C890 1.348 . S
C893 C895 1.353 . S
C893 H949 0.929 . S
C894 C890 1.356 . S
C894 C891 1.358 . S
C894 H950 0.930 . S
C895 N892 1.314 . S
C895 C893 1.353 . S
C895 H951 0.930 . S
C896 N897 1.314 . S
C896 C901 1.353 . S
C896 H902 0.930 . S
N897 Li880 1.990 . S
N897 C896 1.314 . S
N897 C899 1.279 . S
C898 C899 1.358 . S
C898 C900 1.356 . S
C898 H952 0.930 . S
C899 N897 1.279 . S
C899 C898 1.358 . S
C899 H903 0.930 . S
C900 C898 1.356 . S
C900 C901 1.348 . S
C901 C896 1.353 . S
C901 C900 1.348 . S
C901 H953 0.929 . S
H902 C896 0.930 . S
H903 C899 0.930 . S
C904 N905 1.314 . S
C904 C906 1.353 . S
C904 H910 0.930 . S
N905 Li881 1.990 . S
N905 C904 1.314 . S
N905 C908 1.279 . S
C906 C904 1.353 . S
C906 C909 1.348 . S
C906 H954 0.929 . S
C907 C908 1.358 . S
C907 C909 1.356 . S
C907 H955 0.930 . S
C908 N905 1.279 . S
C908 C907 1.358 . S
C908 H911 0.930 . S
C909 C906 1.348 . S
C909 C907 1.356 . S
H910 C904 0.930 . S
H911 C908 0.930 . S
C912 C914 1.348 . S
C912 C915 1.356 . S
C912 O942 1.325 . S
N913 C916 1.314 . S
N913 C917 1.279 . S
C914 C912 1.348 . S
C914 C916 1.353 . S
C914 H956 0.929 . S
C915 C912 1.356 . S
C915 C917 1.358 . S
C915 H957 0.930 . S
C916 N913 1.314 . S
C916 C914 1.353 . S
C916 H958 0.930 . S
C917 N913 1.279 . S
C917 C915 1.358 . S
C917 H959 0.930 . S
C918 C919 1.348 . S
C918 C920 1.356 . S
C918 O943 1.325 . S
C919 C918 1.348 . S
C919 C921 1.353 . S
C919 H960 0.929 . S
C920 C918 1.356 . S
C920 C922 1.358 . S
C920 H961 0.930 . S
C921 C919 1.353 . S
C921 N923 1.314 . S
C921 H962 0.930 . S
C922 C920 1.358 . S
C922 N923 1.279 . S
C922 H963 0.930 . S
N923 C921 1.314 . S
N923 C922 1.279 . S
C924 C926 1.353 . S
C924 N927 1.314 . S
C924 H930 0.930 . S
C925 N927 1.279 . S
C925 C928 1.358 . S
C925 H931 0.930 . S
C926 C924 1.353 . S
C926 C929 1.348 . S
C926 H964 0.929 . S
N927 Li882 1.990 . S
N927 C924 1.314 . S
N927 C925 1.279 . S
C928 C925 1.358 . S
C928 C929 1.356 . S
C928 H965 0.930 . S
C929 C926 1.348 . S
C929 C928 1.356 . S
H930 C924 0.930 . S
H931 C925 0.930 . S
C932 N933 1.314 . S
C932 C934 1.353 . S
C932 H938 0.930 . S
N933 Li883 1.990 . S
N933 C932 1.314 . S
N933 C936 1.279 . S
C934 C932 1.353 . S
C934 C937 1.348 . S
C934 H966 0.929 . S
C935 C936 1.358 . S
C935 C937 1.356 . S
C935 H967 0.930 . S
C936 N933 1.279 . S
C936 C935 1.358 . S
C936 H939 0.930 . S
C937 C934 1.348 . S
C937 C935 1.356 . S
H938 C932 0.930 . S
H939 C936 0.930 . S
O940 Li880 1.956 . S
O940 Li881 1.970 . S
O940 Li882 1.961 . S
O940 C884 1.325 . S
O941 Li880 1.970 . S
O941 Li881 1.956 . S
O941 Li883 1.961 . S
O941 C890 1.325 . S
O942 Li880 1.961 . S
O942 Li882 1.956 . S
O942 Li883 1.970 . S
O942 C912 1.325 . S
O943 Li881 1.961 . S
O943 Li882 1.970 . S
O943 Li883 1.956 . S
O943 C918 1.325 . S
H944 C886 0.929 . S
H945 C887 0.930 . S
H946 C888 0.930 . S
H947 C889 0.930 . S
H948 C891 0.930 . S
H949 C893 0.929 . S
H950 C894 0.930 . S
H951 C895 0.930 . S
H952 C898 0.930 . S
H953 C901 0.929 . S
H954 C906 0.929 . S
H955 C907 0.930 . S
H956 C914 0.929 . S
H957 C915 0.930 . S
H958 C916 0.930 . S
H959 C917 0.930 . S
H960 C919 0.929 . S
H961 C920 0.930 . S
H962 C921 0.930 . S
H963 C922 0.930 . S
H964 C926 0.929 . S
H965 C928 0.930 . S
H966 C934 0.929 . S
H967 C935 0.930 . S
Li968 N985 1.990 . S
Li968 O1028 1.956 . S
Li968 O1029 1.970 1_554 S
Li968 O1030 1.961 1_554 S
Li969 N993 1.990 . S
Li969 O1028 1.970 . S
Li969 O1029 1.956 1_554 S
Li969 O1031 1.961 1_554 S
Li970 N1015 1.990 . S
Li970 O1028 1.961 . S
Li970 O1030 1.956 1_554 S
Li970 O1031 1.970 1_554 S
Li971 N1021 1.990 . S
Li971 O1029 1.961 . S
Li971 O1030 1.970 . S
Li971 O1031 1.956 . S
C972 C974 1.348 . S
C972 C975 1.356 . S
C972 O1028 1.325 . S
N973 C976 1.314 . S
N973 C977 1.279 . S
C974 C972 1.348 . S
C974 C976 1.353 . S
C974 H1032 0.929 . S
C975 C972 1.356 . S
C975 C977 1.358 . S
C975 H1033 0.930 . S
C976 N973 1.314 . S
C976 C974 1.353 . S
C976 H1034 0.930 . S
C977 N973 1.279 . S
C977 C975 1.358 . S
C977 H1035 0.930 . S
C978 C981 1.348 . S
C978 C982 1.356 . S
C978 O1029 1.325 . S
C979 N980 1.279 . S
C979 C982 1.358 . S
C979 H1036 0.930 . S
N980 C979 1.279 . S
N980 C983 1.314 . S
C981 C978 1.348 . S
C981 C983 1.353 . S
C981 H1037 0.929 1_556 S
C982 C978 1.356 . S
C982 C979 1.358 . S
C982 H1038 0.930 . S
C983 N980 1.314 . S
C983 C981 1.353 . S
C983 H1039 0.930 . S
C984 N985 1.314 1_556 S
C984 C989 1.353 . S
C984 H990 0.930 . S
N985 Li968 1.990 . S
N985 C984 1.314 1_554 S
N985 C987 1.279 . S
C986 C987 1.358 . S
C986 C988 1.356 . S
C986 H1040 0.930 . S
C987 N985 1.279 . S
C987 C986 1.358 . S
C987 H991 0.930 . S
C988 C986 1.356 . S
C988 C989 1.348 1_554 S
C989 C984 1.353 . S
C989 C988 1.348 1_556 S
C989 H1041 0.929 . S
H990 C984 0.930 . S
H991 C987 0.930 . S
C992 N993 1.314 . S
C992 C994 1.353 . S
C992 H998 0.930 . S
N993 Li969 1.990 . S
N993 C992 1.314 . S
N993 C996 1.279 . S
C994 C992 1.353 . S
C994 C997 1.348 . S
C994 H1042 0.929 . S
C995 C996 1.358 . S
C995 C997 1.356 . S
C995 H1043 0.930 . S
C996 N993 1.279 . S
C996 C995 1.358 . S
C996 H999 0.930 . S
C997 C994 1.348 . S
C997 C995 1.356 . S
H998 C992 0.930 . S
H999 C996 0.930 . S
C1000 C1002 1.348 . S
C1000 C1003 1.356 . S
C1000 O1030 1.325 . S
N1001 C1004 1.314 . S
N1001 C1005 1.279 . S
C1002 C1000 1.348 . S
C1002 C1004 1.353 . S
C1002 H1044 0.929 . S
C1003 C1000 1.356 . S
C1003 C1005 1.358 . S
C1003 H1045 0.930 . S
C1004 N1001 1.314 . S
C1004 C1002 1.353 . S
C1004 H1046 0.930 . S
C1005 N1001 1.279 . S
C1005 C1003 1.358 . S
C1005 H1047 0.930 . S
C1006 C1007 1.348 . S
C1006 C1008 1.356 . S
C1006 O1031 1.325 . S
C1007 C1006 1.348 . S
C1007 C1009 1.353 . S
C1007 H1048 0.929 . S
C1008 C1006 1.356 . S
C1008 C1010 1.358 . S
C1008 H1049 0.930 . S
C1009 C1007 1.353 . S
C1009 N1011 1.314 . S
C1009 H1050 0.930 . S
C1010 C1008 1.358 . S
C1010 N1011 1.279 . S
C1010 H1051 0.930 . S
N1011 C1009 1.314 . S
N1011 C1010 1.279 . S
C1012 C1014 1.353 . S
C1012 N1015 1.314 . S
C1012 H1018 0.930 . S
C1013 N1015 1.279 1_556 S
C1013 C1016 1.358 1_556 S
C1013 H1019 0.930 . S
C1014 C1012 1.353 . S
C1014 C1017 1.348 . S
C1014 H1052 0.929 . S
N1015 Li970 1.990 . S
N1015 C1012 1.314 . S
N1015 C1013 1.279 1_554 S
C1016 C1013 1.358 1_554 S
C1016 C1017 1.356 . S
C1016 H1053 0.930 1_554 S
C1017 C1014 1.348 . S
C1017 C1016 1.356 . S
H1018 C1012 0.930 . S
H1019 C1013 0.930 . S
C1020 N1021 1.314 . S
C1020 C1022 1.353 . S
C1020 H1026 0.930 . S
N1021 Li971 1.990 . S
N1021 C1020 1.314 . S
N1021 C1024 1.279 . S
C1022 C1020 1.353 . S
C1022 C1025 1.348 . S
C1022 H1054 0.929 . S
C1023 C1024 1.358 . S
C1023 C1025 1.356 . S
C1023 H1055 0.930 . S
C1024 N1021 1.279 . S
C1024 C1023 1.358 . S
C1024 H1027 0.930 . S
C1025 C1022 1.348 . S
C1025 C1023 1.356 . S
H1026 C1020 0.930 . S
H1027 C1024 0.930 . S
O1028 Li968 1.956 . S
O1028 Li969 1.970 . S
O1028 Li970 1.961 . S
O1028 C972 1.325 . S
O1029 Li968 1.970 1_556 S
O1029 Li969 1.956 1_556 S
O1029 Li971 1.961 . S
O1029 C978 1.325 . S
O1030 Li968 1.961 1_556 S
O1030 Li970 1.956 1_556 S
O1030 Li971 1.970 . S
O1030 C1000 1.325 . S
O1031 Li969 1.961 1_556 S
O1031 Li970 1.970 1_556 S
O1031 Li971 1.956 . S
O1031 C1006 1.325 . S
H1032 C974 0.929 . S
H1033 C975 0.930 . S
H1034 C976 0.930 . S
H1035 C977 0.930 . S
H1036 C979 0.930 . S
H1037 C981 0.929 1_554 S
H1038 C982 0.930 . S
H1039 C983 0.930 . S
H1040 C986 0.930 . S
H1041 C989 0.929 . S
H1042 C994 0.929 . S
H1043 C995 0.930 . S
H1044 C1002 0.929 . S
H1045 C1003 0.930 . S
H1046 C1004 0.930 . S
H1047 C1005 0.930 . S
H1048 C1007 0.929 . S
H1049 C1008 0.930 . S
H1050 C1009 0.930 . S
H1051 C1010 0.930 . S
H1052 C1014 0.929 . S
H1053 C1016 0.930 1_556 S
H1054 C1022 0.929 . S
H1055 C1023 0.930 . S
C1056 C1057 1.387 . S
C1056 H1060 0.950 . S
C1056 C1065 1.390 . S
C1057 C1056 1.387 . S
C1057 C1059 1.387 . S
H1058 C1065 0.950 . S
C1059 C1057 1.387 . S
C1059 C1061 1.390 . S
C1059 H1063 0.950 . S
H1060 C1056 0.950 . S
C1061 C1059 1.390 . S
C1061 C1062 1.387 . S
C1061 H1064 0.950 . S
C1062 C1061 1.387 . S
C1062 C1065 1.387 . S
H1063 C1059 0.950 . S
H1064 C1061 0.950 . S
C1065 C1056 1.390 . S
C1065 H1058 0.950 . S
C1065 C1062 1.387 . S
C1066 C1067 1.387 . S
C1066 H1070 0.950 . S
C1066 C1075 1.390 . S
C1067 C1066 1.387 . S
C1067 C1069 1.387 . S
H1068 C1075 0.950 . S
C1069 C1067 1.387 . S
C1069 C1071 1.390 . S
C1069 H1073 0.950 . S
H1070 C1066 0.950 . S
C1071 C1069 1.390 . S
C1071 C1072 1.387 . S
C1071 H1074 0.950 . S
C1072 C1071 1.387 . S
C1072 C1075 1.387 . S
H1073 C1069 0.950 . S
H1074 C1071 0.950 . S
C1075 C1066 1.390 . S
C1075 H1068 0.950 . S
C1075 C1072 1.387 . S
C1076 C1077 1.387 . S
C1076 H1080 0.950 . S
C1076 C1085 1.390 1_556 S
C1077 C1076 1.387 . S
C1077 C1079 1.387 . S
H1078 C1085 0.950 . S
C1079 C1077 1.387 . S
C1079 C1081 1.390 1_556 S
C1079 H1083 0.950 . S
H1080 C1076 0.950 . S
C1081 C1079 1.390 1_554 S
C1081 C1082 1.387 . S
C1081 H1084 0.950 . S
C1082 C1081 1.387 . S
C1082 C1085 1.387 . S
H1083 C1079 0.950 . S
H1084 C1081 0.950 . S
C1085 C1076 1.390 1_554 S
C1085 H1078 0.950 . S
C1085 C1082 1.387 . S
C1086 C1087 1.387 . S
C1086 H1090 0.950 . S
C1086 C1095 1.390 . S
C1087 C1086 1.387 . S
C1087 C1089 1.387 . S
H1088 C1095 0.950 . S
C1089 C1087 1.387 . S
C1089 C1091 1.390 . S
C1089 H1093 0.950 . S
H1090 C1086 0.950 . S
C1091 C1089 1.390 . S
C1091 C1092 1.387 . S
C1091 H1094 0.950 . S
C1092 C1091 1.387 . S
C1092 C1095 1.387 . S
H1093 C1089 0.950 . S
H1094 C1091 0.950 . S
C1095 C1086 1.390 . S
C1095 H1088 0.950 . S
C1095 C1092 1.387 . S
C1096 C1097 1.387 . S
C1096 H1100 0.950 . S
C1096 C1105 1.390 . S
C1097 C1096 1.387 . S
C1097 C1099 1.387 . S
H1098 C1105 0.950 . S
C1099 C1097 1.387 . S
C1099 C1101 1.390 . S
C1099 H1103 0.950 . S
H1100 C1096 0.950 . S
C1101 C1099 1.390 . S
C1101 C1102 1.387 . S
C1101 H1104 0.950 . S
C1102 C1101 1.387 . S
C1102 C1105 1.387 . S
H1103 C1099 0.950 . S
H1104 C1101 0.950 . S
C1105 C1096 1.390 . S
C1105 H1098 0.950 . S
C1105 C1102 1.387 . S
C1106 C1107 1.387 . S
C1106 H1110 0.950 . S
C1106 C1115 1.390 1_554 S
C1107 C1106 1.387 . S
C1107 C1109 1.387 . S
H1108 C1115 0.950 . S
C1109 C1107 1.387 . S
C1109 C1111 1.390 1_554 S
C1109 H1113 0.950 . S
H1110 C1106 0.950 . S
C1111 C1109 1.390 1_556 S
C1111 C1112 1.387 . S
C1111 H1114 0.950 . S
C1112 C1111 1.387 . S
C1112 C1115 1.387 . S
H1113 C1109 0.950 . S
H1114 C1111 0.950 . S
C1115 C1106 1.390 1_556 S
C1115 H1108 0.950 . S
C1115 C1112 1.387 . S
C1116 C1117 1.387 . S
C1116 H1120 0.950 . S
C1116 C1125 1.390 . S
C1117 C1116 1.387 . S
C1117 C1119 1.387 . S
H1118 C1125 0.950 . S
C1119 C1117 1.387 . S
C1119 C1121 1.390 . S
C1119 H1123 0.950 . S
H1120 C1116 0.950 . S
C1121 C1119 1.390 . S
C1121 C1122 1.387 . S
C1121 H1124 0.950 . S
C1122 C1121 1.387 . S
C1122 C1125 1.387 . S
H1123 C1119 0.950 . S
H1124 C1121 0.950 . S
C1125 C1116 1.390 . S
C1125 H1118 0.950 . S
C1125 C1122 1.387 . S
C1126 C1127 1.387 . S
C1126 H1130 0.950 . S
C1126 C1135 1.390 1_655 S
C1127 C1126 1.387 . S
C1127 C1129 1.387 . S
H1128 C1135 0.950 . S
C1129 C1127 1.387 . S
C1129 C1131 1.390 1_655 S
C1129 H1133 0.950 . S
H1130 C1126 0.950 . S
C1131 C1129 1.390 1_455 S
C1131 C1132 1.387 . S
C1131 H1134 0.950 . S
C1132 C1131 1.387 . S
C1132 C1135 1.387 . S
H1133 C1129 0.950 . S
H1134 C1131 0.950 . S
C1135 C1126 1.390 1_455 S
C1135 H1128 0.950 . S
C1135 C1132 1.387 . S
C1136 C1137 1.387 . S
C1136 H1140 0.950 . S
C1136 C1145 1.390 1_544 S
C1137 C1136 1.387 . S
C1137 C1139 1.387 . S
H1138 C1145 0.950 . S
C1139 C1137 1.387 . S
C1139 C1141 1.390 1_544 S
C1139 H1143 0.950 . S
H1140 C1136 0.950 . S
C1141 C1139 1.390 1_566 S
C1141 C1142 1.387 . S
C1141 H1144 0.950 . S
C1142 C1141 1.387 . S
C1142 C1145 1.387 . S
H1143 C1139 0.950 . S
H1144 C1141 0.950 . S
C1145 C1136 1.390 1_566 S
C1145 H1138 0.950 . S
C1145 C1142 1.387 . S
C1146 C1147 1.387 . S
C1146 H1150 0.950 . S
C1146 C1155 1.390 . S
C1147 C1146 1.387 . S
C1147 C1149 1.387 . S
H1148 C1155 0.950 . S
C1149 C1147 1.387 . S
C1149 C1151 1.390 . S
C1149 H1153 0.950 . S
H1150 C1146 0.950 . S
C1151 C1149 1.390 . S
C1151 C1152 1.387 . S
C1151 H1154 0.950 . S
C1152 C1151 1.387 . S
C1152 C1155 1.387 . S
H1153 C1149 0.950 . S
H1154 C1151 0.950 . S
C1155 C1146 1.390 . S
C1155 H1148 0.950 . S
C1155 C1152 1.387 . S
C1156 C1157 1.387 . S
C1156 H1160 0.950 . S
C1156 C1165 1.390 1_455 S
C1157 C1156 1.387 . S
C1157 C1159 1.387 . S
H1158 C1165 0.950 . S
C1159 C1157 1.387 . S
C1159 C1161 1.390 1_455 S
C1159 H1163 0.950 . S
H1160 C1156 0.950 . S
C1161 C1159 1.390 1_655 S
C1161 C1162 1.387 . S
C1161 H1164 0.950 . S
C1162 C1161 1.387 . S
C1162 C1165 1.387 . S
H1163 C1159 0.950 . S
H1164 C1161 0.950 . S
C1165 C1156 1.390 1_655 S
C1165 H1158 0.950 . S
C1165 C1162 1.387 . S
C1166 C1167 1.387 . S
C1166 H1170 0.950 . S
C1166 C1175 1.390 1_546 S
C1167 C1166 1.387 . S
C1167 C1169 1.387 . S
H1168 C1175 0.950 . S
C1169 C1167 1.387 . S
C1169 C1171 1.390 1_546 S
C1169 H1173 0.950 . S
H1170 C1166 0.950 . S
C1171 C1169 1.390 1_564 S
C1171 C1172 1.387 . S
C1171 H1174 0.950 . S
C1172 C1171 1.387 . S
C1172 C1175 1.387 . S
H1173 C1169 0.950 . S
H1174 C1171 0.950 . S
C1175 C1166 1.390 1_564 S
C1175 H1168 0.950 . S
C1175 C1172 1.387 . S
C1176 C1177 1.387 1_455 S
C1176 H1180 0.950 . S
C1176 C1185 1.390 . S
C1177 C1176 1.387 1_655 S
C1177 C1179 1.387 . S
H1178 C1185 0.950 . S
C1179 C1177 1.387 . S
C1179 C1181 1.390 . S
C1179 H1183 0.950 . S
H1180 C1176 0.950 . S
C1181 C1179 1.390 . S
C1181 C1182 1.387 1_655 S
C1181 H1184 0.950 . S
C1182 C1181 1.387 1_455 S
C1182 C1185 1.387 . S
H1183 C1179 0.950 . S
H1184 C1181 0.950 . S
C1185 C1176 1.390 . S
C1185 H1178 0.950 . S
C1185 C1182 1.387 . S
C1186 C1187 1.387 . S
C1186 H1190 0.950 . S
C1186 C1195 1.390 1_545 S
C1187 C1186 1.387 . S
C1187 C1189 1.387 . S
H1188 C1195 0.950 . S
C1189 C1187 1.387 . S
C1189 C1191 1.390 1_545 S
C1189 H1193 0.950 . S
H1190 C1186 0.950 . S
C1191 C1189 1.390 1_565 S
C1191 C1192 1.387 . S
C1191 H1194 0.950 . S
C1192 C1191 1.387 . S
C1192 C1195 1.387 . S
H1193 C1189 0.950 . S
H1194 C1191 0.950 . S
C1195 C1186 1.390 1_565 S
C1195 H1188 0.950 . S
C1195 C1192 1.387 . S
C1196 C1197 1.387 . S
C1196 H1200 0.950 . S
C1196 C1205 1.390 . S
C1197 C1196 1.387 . S
C1197 C1199 1.387 . S
H1198 C1205 0.950 . S
C1199 C1197 1.387 . S
C1199 C1201 1.390 . S
C1199 H1203 0.950 . S
H1200 C1196 0.950 . S
C1201 C1199 1.390 . S
C1201 C1202 1.387 . S
C1201 H1204 0.950 . S
C1202 C1201 1.387 . S
C1202 C1205 1.387 . S
H1203 C1199 0.950 . S
H1204 C1201 0.950 . S
C1205 C1196 1.390 . S
C1205 H1198 0.950 . S
C1205 C1202 1.387 . S
C1206 C1207 1.387 . S
C1206 H1210 0.950 . S
C1206 C1215 1.390 . S
C1207 C1206 1.387 . S
C1207 C1209 1.387 1_455 S
H1208 C1215 0.950 . S
C1209 C1207 1.387 1_655 S
C1209 C1211 1.390 . S
C1209 H1213 0.950 . S
H1210 C1206 0.950 . S
C1211 C1209 1.390 . S
C1211 C1212 1.387 . S
C1211 H1214 0.950 . S
C1212 C1211 1.387 . S
C1212 C1215 1.387 1_655 S
H1213 C1209 0.950 . S
H1214 C1211 0.950 . S
C1215 C1206 1.390 . S
C1215 H1208 0.950 . S
C1215 C1212 1.387 1_455 S
C1216 C1217 1.387 . S
C1216 H1220 0.950 . S
C1216 C1225 1.390 1_545 S
C1217 C1216 1.387 . S
C1217 C1219 1.387 . S
H1218 C1225 0.950 . S
C1219 C1217 1.387 . S
C1219 C1221 1.390 1_545 S
C1219 H1223 0.950 . S
H1220 C1216 0.950 . S
C1221 C1219 1.390 1_565 S
C1221 C1222 1.387 . S
C1221 H1224 0.950 . S
C1222 C1221 1.387 . S
C1222 C1225 1.387 . S
H1223 C1219 0.950 . S
H1224 C1221 0.950 . S
C1225 C1216 1.390 1_565 S
C1225 H1218 0.950 . S
C1225 C1222 1.387 . S
C1226 C1227 1.387 . S
C1226 H1230 0.950 . S
C1226 C1235 1.390 . S
C1227 C1226 1.387 . S
C1227 C1229 1.387 . S
H1228 C1235 0.950 . S
C1229 C1227 1.387 . S
C1229 C1231 1.390 . S
C1229 H1233 0.950 . S
H1230 C1226 0.950 . S
C1231 C1229 1.390 . S
C1231 C1232 1.387 . S
C1231 H1234 0.950 . S
C1232 C1231 1.387 . S
C1232 C1235 1.387 . S
H1233 C1229 0.950 . S
H1234 C1231 0.950 . S
C1235 C1226 1.390 . S
C1235 H1228 0.950 . S
C1235 C1232 1.387 . S
C1236 C1237 1.387 . S
C1236 H1240 0.950 . S
C1236 C1245 1.390 . S
C1237 C1236 1.387 . S
C1237 C1239 1.387 . S
H1238 C1245 0.950 . S
C1239 C1237 1.387 . S
C1239 C1241 1.390 . S
C1239 H1243 0.950 . S
H1240 C1236 0.950 . S
C1241 C1239 1.390 . S
C1241 C1242 1.387 . S
C1241 H1244 0.950 . S
C1242 C1241 1.387 . S
C1242 C1245 1.387 . S
H1243 C1239 0.950 . S
H1244 C1241 0.950 . S
C1245 C1236 1.390 . S
C1245 H1238 0.950 . S
C1245 C1242 1.387 . S
C1246 C1247 1.387 . S
C1246 H1250 0.950 . S
C1246 C1255 1.390 . S
C1247 C1246 1.387 . S
C1247 C1249 1.387 . S
H1248 C1255 0.950 . S
C1249 C1247 1.387 . S
C1249 C1251 1.390 . S
C1249 H1253 0.950 . S
H1250 C1246 0.950 . S
C1251 C1249 1.390 . S
C1251 C1252 1.387 . S
C1251 H1254 0.950 . S
C1252 C1251 1.387 . S
C1252 C1255 1.387 . S
H1253 C1249 0.950 . S
H1254 C1251 0.950 . S
C1255 C1246 1.390 . S
C1255 H1248 0.950 . S
C1255 C1252 1.387 . S
C1256 C1257 1.387 . S
C1256 H1260 0.950 . S
C1256 C1265 1.390 . S
C1257 C1256 1.387 . S
C1257 C1259 1.387 . S
H1258 C1265 0.950 . S
C1259 C1257 1.387 . S
C1259 C1261 1.390 . S
C1259 H1263 0.950 . S
H1260 C1256 0.950 . S
C1261 C1259 1.390 . S
C1261 C1262 1.387 . S
C1261 H1264 0.950 . S
C1262 C1261 1.387 . S
C1262 C1265 1.387 . S
H1263 C1259 0.950 . S
H1264 C1261 0.950 . S
C1265 C1256 1.390 . S
C1265 H1258 0.950 . S
C1265 C1262 1.387 . S
C1266 C1267 1.387 . S
C1266 H1270 0.950 . S
C1266 C1275 1.390 . S
C1267 C1266 1.387 . S
C1267 C1269 1.387 . S
H1268 C1275 0.950 . S
C1269 C1267 1.387 . S
C1269 C1271 1.390 . S
C1269 H1273 0.950 . S
H1270 C1266 0.950 . S
C1271 C1269 1.390 . S
C1271 C1272 1.387 . S
C1271 H1274 0.950 . S
C1272 C1271 1.387 . S
C1272 C1275 1.387 . S
H1273 C1269 0.950 . S
H1274 C1271 0.950 . S
C1275 C1266 1.390 . S
C1275 H1268 0.950 . S
C1275 C1272 1.387 . S
C1276 C1277 1.387 . S
C1276 H1280 0.950 . S
C1276 C1285 1.390 . S
C1277 C1276 1.387 . S
C1277 C1279 1.387 . S
H1278 C1285 0.950 . S
C1279 C1277 1.387 . S
C1279 C1281 1.390 . S
C1279 H1283 0.950 . S
H1280 C1276 0.950 . S
C1281 C1279 1.390 . S
C1281 C1282 1.387 . S
C1281 H1284 0.950 . S
C1282 C1281 1.387 . S
C1282 C1285 1.387 . S
H1283 C1279 0.950 . S
H1284 C1281 0.950 . S
C1285 C1276 1.390 . S
C1285 H1278 0.950 . S
C1285 C1282 1.387 . S
C1286 C1287 1.387 . S
C1286 H1290 0.950 . S
C1286 C1295 1.390 . S
C1287 C1286 1.387 . S
C1287 C1289 1.387 . S
H1288 C1295 0.950 . S
C1289 C1287 1.387 . S
C1289 C1291 1.390 . S
C1289 H1293 0.950 . S
H1290 C1286 0.950 . S
C1291 C1289 1.390 . S
C1291 C1292 1.387 . S
C1291 H1294 0.950 . S
C1292 C1291 1.387 . S
C1292 C1295 1.387 . S
H1293 C1289 0.950 . S
H1294 C1291 0.950 . S
C1295 C1286 1.390 . S
C1295 H1288 0.950 . S
C1295 C1292 1.387 . S
C1057 C20 1.619 . S
C1062 C585 1.622 . S
C1067 C108 1.618 . S
C1072 C665 1.618 . S
C1077 C205 1.628 . S
C1082 C753 1.630 . S
C1087 C841 1.619 . S
C1092 C293 1.619 . S
C1097 C381 1.618 . S
C1102 C937 1.618 . S
C1107 C1017 1.631 . S
C1112 C460 1.634 . S
C1117 C49 0.850 . S
C1122 C812 0.852 . S
C1127 C137 0.852 . S
C1132 C909 0.851 . S
C1137 C988 0.868 . S
C1142 C233 0.869 . S
C1147 C557 0.845 . S
C1152 C321 0.846 . S
C1157 C409 0.852 . S
C1162 C636 0.851 . S
C1167 C489 0.875 . S
C1172 C724 0.875 . S
C1177 C997 2.183 . S
C1182 C57 2.179 . S
C1187 C145 2.219 . S
C1192 C548 2.219 . S
C1197 C225 2.182 . S
C1202 C645 2.177 . S
C1207 C733 2.183 . S
C1212 C313 2.178 . S
C1217 C821 2.218 . S
C1222 C401 2.218 . S
C1227 C497 2.183 . S
C1232 C900 2.177 . S
C1237 C29 1.940 . S
C1242 C929 1.940 . S
C1247 C1025 1.954 . S
C1252 C117 1.957 . S
C1257 C577 1.955 . S
C1262 C196 1.956 . S
C1267 C284 1.940 . S
C1272 C673 1.940 . S
C1277 C761 1.953 . S
C1282 C372 1.956 . S
C1287 C849 1.956 . S
C1292 C469 1.957 . S
