# Generated by pormake.
# Topology rob, (6)-cn, num edge types: 1
# Building blocks:
#     Node 0, Type 0, BuildingBlock: KUMBUR_clean_sbu_0, # of connection points: 6
#     Node 1, Type 0, BuildingBlock: KUMBUR_clean_sbu_0, # of connection points: 6
#     Node 2, Type 0, BuildingBlock: KUMBUR_clean_sbu_0, # of connection points: 6
#     Node 3, Type 0, BuildingBlock: KUMBUR_clean_sbu_0, # of connection points: 6
#     Edge 4, Type (0, 0), BuildingBlock: XUDNAN_clean_linker_2, # of connection points: 2
#     Edge 5, Type (0, 0), BuildingBlock: XUDNAN_clean_linker_2, # of connection points: 2
#     Edge 6, Type (0, 0), BuildingBlock: XUDNAN_clean_linker_2, # of connection points: 2
#     Edge 7, Type (0, 0), BuildingBlock: XUDNAN_clean_linker_2, # of connection points: 2
#     Edge 8, Type (0, 0), BuildingBlock: XUDNAN_clean_linker_2, # of connection points: 2
#     Edge 9, Type (0, 0), BuildingBlock: XUDNAN_clean_linker_2, # of connection points: 2
#     Edge 10, Type (0, 0), BuildingBlock: XUDNAN_clean_linker_2, # of connection points: 2
#     Edge 11, Type (0, 0), BuildingBlock: XUDNAN_clean_linker_2, # of connection points: 2
#     Edge 12, Type (0, 0), BuildingBlock: XUDNAN_clean_linker_2, # of connection points: 2
#     Edge 13, Type (0, 0), BuildingBlock: XUDNAN_clean_linker_2, # of connection points: 2
#     Edge 14, Type (0, 0), BuildingBlock: XUDNAN_clean_linker_2, # of connection points: 2
#     Edge 15, Type (0, 0), BuildingBlock: XUDNAN_clean_linker_2, # of connection points: 2
# Relax obj value: 0.035
# Max RMSD: 0.159
# Mean RMSD: 0.159
data_MOF--net-rob--node1-KUMBUR_clean_sbu_0--edge1-XUDNAN_clean_linker_2
_symmetry_space_group_name_H-M    P1
_symmetry_Int_Tables_number       1
_symmetry_cell_setting            triclinic
loop_
_symmetry_equiv_pos_as_xyz
'x, y, z'
_cell_length_a     16.117819
_cell_length_b     25.438298
_cell_length_c     33.891885
_cell_angle_alpha  117.61125
_cell_angle_beta   89.535201
_cell_angle_gamma 90.191781
loop_
_atom_site_label
_atom_site_type_symbol
_atom_site_fract_x
_atom_site_fract_y
_atom_site_fract_z
_atom_type_partial_charge
Tb0 Tb 0.16727 0.30586 0.05733 0.0
C1 C 0.4237 0.11097 0.97437 0.0
C2 C 0.53858 0.15711 0.02407 0.0
C3 C 0.5276 0.04957 0.98483 0.0
C4 C 0.4644 0.16135 1.00398 0.0
C5 C 0.45527 0.05434 0.96387 0.0
C6 C 0.56972 0.10088 0.01449 0.0
C7 C 0.34879 0.01192 0.90812 0.0
N8 N 0.35601 0.11763 0.95369 0.0
C9 C 0.32131 0.06918 0.91896 0.0
C10 C 0.41511 1.00441 0.93131 0.0
Tb11 Tb 0.3154 0.21315 0.97378 0.0
N12 N 0.43317 0.21457 1.01151 0.0
C13 C 0.47517 0.26567 0.03766 0.0
C14 C 0.57988 0.20945 0.05245 0.0
C15 C 0.54823 0.26398 0.05904 0.0
H16 H 0.27029 0.0749 0.90076 0.0
H17 H 0.58023 0.30472 0.08042 0.0
H18 H 0.62663 0.0966 0.02957 0.0
H19 H 0.31915 0.97367 0.88176 0.0
H20 H 0.45189 0.30804 0.04283 0.0
H21 H 0.8736 0.19837 0.9805 0.0
H22 H 0.63674 0.20819 0.06882 0.0
H23 H 0.20712 0.45312 0.10534 0.0
H24 H 0.9929 0.21401 0.02741 0.0
H25 H 0.16654 0.53737 0.09436 0.0
H26 H 0.55272 1.00652 0.97743 0.0
H27 H 0.83637 0.27194 0.95531 0.0
H28 H 0.85982 0.37249 0.96127 0.0
H29 H 0.43636 0.96007 0.92288 0.0
H30 H 0.93619 0.46666 0.99498 0.0
N31 N 0.03755 0.29136 0.02318 0.0
C32 C 0.98409 0.24489 0.01431 0.0
C33 C 0.89204 0.27814 0.9747 0.0
C34 C 0.93953 0.32956 0.98896 0.0
C35 C 0.91312 0.23646 0.98863 0.0
C36 C 0.01207 0.33522 0.01387 0.0
H37 H 0.04881 0.52812 0.04506 0.0
N38 N 0.12382 0.3918 0.05638 0.0
C39 C 0.1345 0.49557 0.07649 0.0
C40 C 0.05592 0.38751 0.03173 0.0
C41 C 0.15851 0.44666 0.08174 0.0
C42 C 0.06914 0.49011 0.04832 0.0
C43 C 0.02776 0.43616 0.02624 0.0
O44 O 0.19025 0.36948 0.12377 0.0
O45 O 0.29149 0.26729 0.04486 0.0
O46 O 0.23878 0.15149 0.98662 0.0
O47 O 0.13105 0.21274 0.03083 0.0
O48 O 0.21529 0.2544 0.08806 0.0
O49 O 0.07814 0.31477 0.10617 0.0
O50 O 0.32252 0.1793 0.90396 0.0
O51 O 0.20741 0.26863 0.98943 0.0
O52 O 0.27013 0.36332 0.055 0.0
O53 O 0.33901 0.30375 0.98862 0.0
O54 O 0.20367 0.19086 0.93241 0.0
O55 O 0.41433 0.23984 0.94645 0.0
C56 C 0.28943 0.24636 0.07228 0.0
C57 C 0.09557 0.38497 0.18455 0.0
C58 C 0.04429 0.3797 0.25084 0.0
C59 C 0.06602 0.35153 0.2052 0.0
C60 C 0.05091 0.4419 0.27497 0.0
C61 C 0.10235 0.44671 0.20944 0.0
C62 C 0.07941 0.47498 0.25431 0.0
C63 C 0.16565 0.16029 1.00654 0.0
C64 C 0.12203 0.35566 0.13755 0.0
C65 C 0.95821 0.42989 0.99981 0.0
C66 C 0.91465 0.37636 0.98074 0.0
C67 C 0.1646 0.24013 0.95507 0.0
C68 C 0.45402 0.17854 0.87207 0.0
C69 C 0.46683 0.19471 0.83795 0.0
C70 C 0.52775 0.16588 0.80502 0.0
C71 C 0.57666 0.12161 0.8072 0.0
C72 C 0.50351 0.13447 0.87376 0.0
C73 C 0.56476 0.10628 0.84145 0.0
C74 C 0.32217 0.3557 0.02223 0.0
C75 C 0.38945 0.20893 0.90573 0.0
H76 H 0.06117 0.30374 0.1859 0.0
H77 H 0.03617 0.46502 0.3102 0.0
H78 H 0.12519 0.47308 0.1941 0.0
H79 H 0.08488 0.5227 0.27334 0.0
H80 H 0.42812 0.22849 0.83641 0.0
H81 H 0.62394 0.09866 0.7822 0.0
H82 H 0.49487 0.12194 0.89997 0.0
H83 H 0.60276 0.07211 0.84273 0.0
Tb84 Tb 0.66344 0.79671 0.05249 0.0
C85 C 0.93108 0.60734 0.96578 0.0
C86 C 0.04858 0.64948 0.01447 0.0
C87 C 0.03832 0.54265 0.9691 0.0
C88 C 0.97292 0.65623 0.99673 0.0
C89 C 0.96321 0.54986 0.95147 0.0
C90 C 0.08105 0.5924 1.00047 0.0
C91 C 0.85034 0.51176 0.89927 0.0
N92 N 0.86115 0.61645 0.94786 0.0
C93 C 0.82372 0.56992 0.9128 0.0
C94 C 0.92005 0.50163 0.91897 0.0
Tb95 Tb 0.82272 0.71329 0.97221 0.0
N96 N 0.94112 0.71063 1.00806 0.0
C97 C 0.98343 0.76057 0.03634 0.0
C98 C 0.09026 0.70035 0.04488 0.0
C99 C 0.05759 0.75617 0.05574 0.0
H100 H 0.77083 0.57773 0.8968 0.0
H101 H 0.08968 0.79589 0.07886 0.0
H102 H 0.1393 0.58625 0.01356 0.0
H103 H 0.81726 0.47484 0.87361 0.0
H104 H 0.95942 0.80413 0.04516 0.0
H105 H 0.39543 0.68272 0.94774 0.0
H106 H 0.14813 0.69704 0.05962 0.0
H107 H 0.6954 0.94271 0.11607 0.0
H108 H 0.51777 0.68767 0.98862 0.0
H109 H 0.64435 0.03486 0.11993 0.0
H110 H 0.06436 0.49889 0.95834 0.0
H111 H 0.33812 0.77234 0.94781 0.0
H112 H 0.34579 0.88121 0.97464 0.0
H113 H 0.94079 0.4566 0.90832 0.0
H114 H 0.41372 0.97661 0.02056 0.0
N115 N 0.53831 0.78206 0.01425 0.0
C116 C 0.4974 0.72889 0.99065 0.0
C117 C 0.39346 0.77568 0.96679 0.0
C118 C 0.43215 0.8301 0.99192 0.0
C119 C 0.4257 0.7251 0.96663 0.0
C120 C 0.50443 0.8322 0.01612 0.0
H121 H 0.52568 0.03306 0.07273 0.0
N122 N 0.61197 0.88724 0.06462 0.0
C123 C 0.61437 0.99368 0.09796 0.0
C124 C 0.5425 0.88612 0.04193 0.0
C125 C 0.64364 0.94077 0.09531 0.0
C126 C 0.548 0.99253 0.07155 0.0
C127 C 0.50949 0.93882 0.04424 0.0
O128 O 0.68274 0.84881 0.12111 0.0
O129 O 0.79249 0.76648 0.0422 0.0
O130 O 0.75448 0.64914 0.98647 0.0
O131 O 0.63589 0.70259 0.02462 0.0
O132 O 0.72039 0.74968 0.08468 0.0
O133 O 0.56995 0.79592 0.0961 0.0
O134 O 0.82225 0.69213 0.90435 0.0
O135 O 0.71034 0.76433 0.98614 0.0
O136 O 0.74839 0.86138 0.04643 0.0
O137 O 0.85363 0.80647 0.99659 0.0
O138 O 0.71465 0.68781 0.92818 0.0
O139 O 0.92779 0.73437 0.94487 0.0
C140 C 0.79416 0.74538 0.06941 0.0
C141 C 0.57354 0.86542 0.17419 0.0
C142 C 0.52248 0.86932 0.24368 0.0
C143 C 0.55334 0.83702 0.19995 0.0
C144 C 0.50982 0.93081 0.26067 0.0
C145 C 0.56037 0.92653 0.19159 0.0
C146 C 0.52804 0.95893 0.23461 0.0
C147 C 0.67899 0.65302 1.00327 0.0
C148 C 0.61407 0.8299 0.13093 0.0
C149 C 0.43922 0.93654 0.01941 0.0
C150 C 0.40054 0.88229 0.99336 0.0
C151 C 0.6712 0.73497 0.95057 0.0
C152 C 0.95008 0.67776 0.86722 0.0
C153 C 0.95785 0.69502 0.83366 0.0
C154 C 0.00546 0.6614 0.79511 0.0
C155 C 0.04626 0.61029 0.79118 0.0
C156 C 0.99136 0.62698 0.86288 0.0
C157 C 0.03941 0.59349 0.82496 0.0
C158 C 0.81776 0.85701 0.02379 0.0
C159 C 0.89603 0.71299 0.90536 0.0
H160 H 0.56296 0.78954 0.18584 0.0
H161 H 0.4877 0.95758 0.29442 0.0
H162 H 0.5758 0.94929 0.17239 0.0
H163 H 0.51853 1.00626 0.24815 0.0
H164 H 0.92682 0.73509 0.83793 0.0
H165 H 0.0825 0.58271 0.76177 0.0
H166 H 0.98631 0.61314 0.88851 0.0
H167 H 0.07096 0.55409 0.82155 0.0
Tb168 Tb 0.18119 0.71257 0.47497 0.0
C169 C 0.43181 0.91445 0.55482 0.0
C170 C 0.54861 0.87367 0.50488 0.0
C171 C 0.5243 0.98001 0.54122 0.0
C172 C 0.47686 0.86617 0.52585 0.0
C173 C 0.45583 0.97224 0.56389 0.0
C174 C 0.57039 0.93067 0.51144 0.0
C175 C 0.35142 1.01002 0.62192 0.0
N176 N 0.36858 0.90484 0.57717 0.0
C177 C 0.33153 0.9517 0.6123 0.0
C178 C 0.41262 0.02032 0.59688 0.0
Tb179 Tb 0.33211 0.80812 0.55575 0.0
N180 N 0.45489 0.81251 0.52185 0.0
C181 C 0.50757 0.76524 0.5007 0.0
C182 C 0.59885 0.82433 0.48023 0.0
C183 C 0.57938 0.77025 0.47918 0.0
H184 H 0.28415 0.94392 0.63173 0.0
H185 H 0.61929 0.73215 0.4615 0.0
H186 H 0.62476 0.93734 0.49528 0.0
H187 H 0.31959 0.04693 0.6486 0.0
H188 H 0.49427 0.72272 0.49894 0.0
H189 H 0.87675 0.79704 0.54669 0.0
H190 H 0.65456 0.8281 0.46362 0.0
H191 H 0.23776 0.57334 0.41251 0.0
H192 H 0.01213 0.80168 0.51657 0.0
H193 H 0.19681 0.47423 0.40245 0.0
H194 H 0.544 0.02403 0.54773 0.0
H195 H 0.83205 0.70624 0.55011 0.0
H196 H 0.86011 0.59966 0.53 0.0
H197 H 0.42794 0.06545 0.6043 0.0
H198 H 0.94677 0.51117 0.48994 0.0
N199 N 0.0496 0.71399 0.50324 0.0
C200 C 0.99621 0.76134 0.51769 0.0
C201 C 0.89276 0.70783 0.53674 0.0
C202 C 0.94475 0.65825 0.5192 0.0
C203 C 0.91771 0.75903 0.53476 0.0
C204 C 0.02283 0.66257 0.50176 0.0
H205 H 0.07526 0.46376 0.44275 0.0
N206 N 0.14053 0.6184 0.45881 0.0
C207 C 0.1607 0.51289 0.42403 0.0
C208 C 0.07051 0.61282 0.47878 0.0
C209 C 0.18335 0.56897 0.42961 0.0
C210 C 0.0916 0.50714 0.4468 0.0
C211 C 0.04362 0.55715 0.47334 0.0
O212 O 0.18052 0.66795 0.40492 0.0
O213 O 0.29397 0.76296 0.48699 0.0
O214 O 0.26236 0.86698 0.5374 0.0
O215 O 0.1485 0.80687 0.50091 0.0
O216 O 0.29286 0.68015 0.43407 0.0
O217 O 0.11079 0.74852 0.44139 0.0
O218 O 0.3328 0.8402 0.62533 0.0
O219 O 0.21968 0.75764 0.54265 0.0
O220 O 0.24463 0.65923 0.50151 0.0
O221 O 0.36622 0.71407 0.52798 0.0
O222 O 0.22144 0.83525 0.599 0.0
O223 O 0.42269 0.77621 0.58361 0.0
C224 C 0.33631 0.72762 0.45383 0.0
C225 C 0.06385 0.68321 0.36977 0.0
C226 C 0.99145 0.6859 0.308 0.0
C227 C 0.05208 0.70844 0.34118 0.0
C228 C 0.94172 0.63823 0.30416 0.0
C229 C 0.01328 0.6362 0.36606 0.0
C230 C 0.95227 0.61391 0.33329 0.0
C231 C 0.18731 0.85868 0.51982 0.0
C232 C 0.1307 0.70632 0.40231 0.0
C233 C 0.96864 0.55322 0.49326 0.0
C234 C 0.91925 0.60373 0.51621 0.0
C235 C 0.17637 0.78933 0.57628 0.0
C236 C 0.46176 0.84024 0.65727 0.0
C237 C 0.46959 0.82958 0.69426 0.0
C238 C 0.52964 0.86003 0.72692 0.0
C239 C 0.58254 0.90042 0.72151 0.0
C240 C 0.51488 0.88073 0.65254 0.0
C241 C 0.57516 0.91054 0.68456 0.0
C242 C 0.32281 0.66464 0.51463 0.0
C243 C 0.39735 0.80915 0.62423 0.0
H244 H 0.09168 0.74459 0.34398 0.0
H245 H 0.89445 0.62007 0.27878 0.0
H246 H 0.02145 0.61658 0.38812 0.0
H247 H 0.91355 0.57735 0.33018 0.0
H248 H 0.42783 0.79868 0.69806 0.0
H249 H 0.62998 0.92406 0.74583 0.0
H250 H 0.50972 0.88923 0.62418 0.0
H251 H 0.61617 0.94175 0.68082 0.0
Tb252 Tb 0.6853 0.21691 0.47917 0.0
C253 C 0.9364 0.41901 0.55567 0.0
C254 C 0.05718 0.37805 0.5079 0.0
C255 C 0.03794 0.4847 0.54782 0.0
C256 C 0.98252 0.36986 0.52656 0.0
C257 C 0.96478 0.47691 0.56718 0.0
C258 C 0.08349 0.43547 0.51794 0.0
C259 C 0.85215 0.51582 0.62035 0.0
N260 N 0.86783 0.41031 0.57559 0.0
C261 C 0.82718 0.45783 0.60868 0.0
C262 C 0.92094 0.52545 0.59932 0.0
Tb263 Tb 0.83822 0.31314 0.55618 0.0
N264 N 0.95852 0.31483 0.51971 0.0
C265 C 0.01042 0.26732 0.49722 0.0
C266 C 0.10604 0.32863 0.48171 0.0
C267 C 0.0832 0.27325 0.47697 0.0
H268 H 0.77307 0.45099 0.6247 0.0
H269 H 0.12211 0.23498 0.458 0.0
H270 H 0.14079 0.4424 0.50404 0.0
H271 H 0.81859 0.55307 0.64575 0.0
H272 H 0.99639 0.22374 0.49307 0.0
H273 H 0.40573 0.30285 0.57988 0.0
H274 H 0.16334 0.33314 0.4666 0.0
H275 H 0.74474 0.07991 0.41287 0.0
H276 H 0.53769 0.31026 0.54789 0.0
H277 H 0.69761 0.97809 0.39208 0.0
H278 H 0.06062 0.52874 0.55627 0.0
H279 H 0.34851 0.20488 0.56399 0.0
H280 H 0.36386 0.09419 0.52526 0.0
H281 H 0.94092 0.57049 0.60894 0.0
H282 H 0.44419 1.00645 0.47587 0.0
N283 N 0.55902 0.21632 0.5121 0.0
C284 C 0.51492 0.2665 0.53916 0.0
C285 C 0.40699 0.20757 0.54903 0.0
C286 C 0.45076 0.15642 0.52076 0.0
C287 C 0.4391 0.26283 0.55806 0.0
C288 C 0.52674 0.16237 0.5022 0.0
H289 H 0.56898 0.96193 0.42508 0.0
N290 N 0.64421 0.12124 0.45779 0.0
C291 C 0.66161 0.01567 0.41542 0.0
C292 C 0.57149 0.11301 0.47433 0.0
C293 C 0.68806 0.07347 0.4273 0.0
C294 C 0.58873 1.00673 0.43402 0.0
C295 C 0.54199 0.05574 0.46347 0.0
O296 O 0.68291 0.17952 0.40932 0.0
O297 O 0.79794 0.26771 0.48784 0.0
O298 O 0.76082 0.37044 0.53922 0.0
O299 O 0.64736 0.30964 0.50441 0.0
O300 O 0.79394 0.18425 0.43574 0.0
O301 O 0.60232 0.25219 0.45 0.0
O302 O 0.85328 0.28275 0.60393 0.0
O303 O 0.72715 0.26331 0.54682 0.0
O304 O 0.75731 0.1622 0.50155 0.0
O305 O 0.87756 0.21997 0.52805 0.0
O306 O 0.73164 0.34239 0.6026 0.0
O307 O 0.93068 0.3513 0.60527 0.0
C308 C 0.83816 0.23153 0.45402 0.0
C309 C 0.56048 0.19053 0.37635 0.0
C310 C 0.48829 0.19123 0.31379 0.0
C311 C 0.54628 0.2162 0.34823 0.0
C312 C 0.44358 0.1407 0.30829 0.0
C313 C 0.51504 0.14053 0.37083 0.0
C314 C 0.45659 0.11584 0.33687 0.0
C315 C 0.68516 0.36157 0.52267 0.0
C316 C 0.6257 0.21563 0.40971 0.0
C317 C 0.4671 0.04955 0.48238 0.0
C318 C 0.42146 0.09972 0.51089 0.0
C319 C 0.68827 0.29439 0.5826 0.0
C320 C 0.89793 0.35414 0.67407 0.0
C321 C 0.94173 0.33805 0.70255 0.0
C322 C 0.9328 0.37171 0.74897 0.0
C323 C 0.87878 0.42064 0.76641 0.0
C324 C 0.84327 0.40254 0.69228 0.0
C325 C 0.83383 0.4356 0.73819 0.0
C326 C 0.83514 0.17 0.51582 0.0
C327 C 0.91025 0.32079 0.62562 0.0
H328 H 0.58236 0.25445 0.35226 0.0
H329 H 0.39847 0.12053 0.28192 0.0
H330 H 0.52541 0.12032 0.39231 0.0
H331 H 0.42191 0.07695 0.33236 0.0
H332 H 0.98414 0.30069 0.68876 0.0
H333 H 0.87141 0.44735 0.80197 0.0
H334 H 0.8082 0.41517 0.6712 0.0
H335 H 0.79197 0.47315 0.75196 0.0
H336 H 0.64518 0.61729 0.06616 0.0
H337 H 0.61047 0.57174 0.92735 0.0
H338 H 0.50645 0.49633 0.92046 0.0
H339 H 0.62317 0.46103 0.04828 0.0
H340 H 0.57289 0.48439 0.10149 0.0
H341 H 0.64778 0.53209 0.09429 0.0
H342 H 0.53817 0.61614 0.12227 0.0
H343 H 0.46208 0.56817 0.12817 0.0
H344 H 0.44021 0.60353 0.09399 0.0
H345 H 0.40028 0.43423 0.92992 0.0
H346 H 0.31565 0.36964 0.94907 0.0
H347 H 0.41817 0.45011 0.0823 0.0
C348 C 0.61738 0.58982 0.03406 0.0
C349 C 0.63612 0.59901 0.99692 0.0
C350 C 0.5979 0.56386 0.95563 0.0
C351 C 0.53813 0.52172 0.95169 0.0
C352 C 0.51859 0.51506 0.9893 0.0
C353 C 0.55879 0.54646 0.0293 0.0
C354 C 0.52711 0.52889 0.06395 0.0
C355 C 0.59687 0.49987 0.07782 0.0
C356 C 0.48966 0.58239 0.10449 0.0
C357 C 0.46077 0.484 0.03747 0.0
C358 C 0.45704 0.47763 0.99467 0.0
C359 C 0.40255 0.43871 0.96324 0.0
C360 C 0.35348 0.40284 0.97484 0.0
C361 C 0.35829 0.40594 0.01763 0.0
C362 C 0.41132 0.44813 0.04988 0.0
H363 H 0.3506 0.61825 0.57199 0.0
H364 H 0.40767 0.59541 0.43994 0.0
H365 H 0.51048 0.51795 0.42941 0.0
H366 H 0.55225 0.60107 0.60235 0.0
H367 H 0.52422 0.55879 0.63089 0.0
H368 H 0.45079 0.60969 0.62741 0.0
H369 H 0.34282 0.52547 0.59123 0.0
H370 H 0.41499 0.47439 0.59545 0.0
H371 H 0.37114 0.45826 0.54227 0.0
H372 H 0.61305 0.44919 0.43506 0.0
H373 H 0.69766 0.38206 0.45233 0.0
H374 H 0.57337 0.44467 0.57978 0.0
C375 C 0.38285 0.59524 0.54042 0.0
C376 C 0.37021 0.61125 0.50623 0.0
C377 C 0.41548 0.58238 0.46593 0.0
C378 C 0.47437 0.53885 0.45988 0.0
C379 C 0.48685 0.52466 0.49448 0.0
C380 C 0.44126 0.5509 0.53361 0.0
C381 C 0.46729 0.52712 0.56534 0.0
C382 C 0.50063 0.57716 0.60908 0.0
C383 C 0.39476 0.49435 0.57408 0.0
C384 C 0.53586 0.48437 0.53826 0.0
C385 C 0.54615 0.4842 0.49764 0.0
C386 C 0.60548 0.44886 0.4667 0.0
C387 C 0.65401 0.41136 0.47691 0.0
C388 C 0.64338 0.40937 0.51755 0.0
C389 C 0.58381 0.44652 0.54884 0.0
H390 H 0.16096 0.10171 0.05691 0.0
H391 H 0.05179 0.10798 0.94279 0.0
H392 H 0.94461 0.03591 0.93888 0.0
H393 H 0.12474 0.94204 0.01823 0.0
H394 H 0.10251 0.95213 0.07352 0.0
H395 H 0.17208 1.00225 0.0658 0.0
H396 H 0.08131 0.09074 0.11973 0.0
H397 H 0.01018 0.04082 0.12671 0.0
H398 H 0.97266 0.09221 0.10809 0.0
H399 H 0.84586 0.96908 0.94981 0.0
H400 H 0.77224 0.89734 0.96688 0.0
H401 H 0.94505 0.92993 0.07297 0.0
C402 C 0.11568 0.08634 0.03045 0.0
C403 C 0.11476 0.10899 0.99952 0.0
C404 C 0.05384 0.08975 0.96602 0.0
C405 C 0.99244 0.0495 0.96392 0.0
C406 C 0.99332 0.02899 0.99557 0.0
C407 C 0.05423 0.04553 0.0276 0.0
C408 C 0.04072 0.01613 0.05723 0.0
C409 C 0.11438 0.97572 0.05345 0.0
C410 C 0.0253 0.06276 0.10582 0.0
C411 C 0.96278 0.9804 0.03673 0.0
C412 C 0.93604 0.98956 1.00172 0.0
C413 C 0.86591 0.9617 0.97724 0.0
C414 C 0.82359 0.92162 0.98763 0.0
C415 C 0.85122 0.9097 0.02212 0.0
C416 C 0.92133 0.9398 0.04733 0.0
H417 H 0.87975 0.0549 0.45511 0.0
H418 H 0.88454 0.18268 0.59517 0.0
H419 H 0.97454 0.11693 0.61051 0.0
H420 H 0.88028 0.92094 0.47403 0.0
H421 H 0.94597 0.87893 0.4264 0.0
H422 H 0.87638 0.93413 0.4262 0.0
H423 H 1.00059 0.98533 0.40904 0.0
H424 H 0.07057 0.93088 0.41001 0.0
H425 H 0.08847 1.00867 0.44586 0.0
H426 H 0.07446 0.04435 0.61057 0.0
H427 H 0.16512 0.95981 0.59685 0.0
H428 H 0.09519 0.87368 0.45777 0.0
C429 C 0.89832 0.06802 0.48904 0.0
C430 C 0.87601 0.12422 0.52401 0.0
C431 C 0.90205 0.14045 0.56788 0.0
C432 C 0.95305 0.10323 0.57698 0.0
C433 C 0.97704 0.04934 0.54185 0.0
C434 C 0.94943 0.03078 0.49886 0.0
C435 C 0.98651 0.97057 0.46752 0.0
C436 C 0.9182 0.92335 0.44736 0.0
C437 C 0.03968 0.97412 0.43095 0.0
C438 C 0.04012 0.95938 0.49963 0.0
C439 C 0.03388 1.00581 0.5422 0.0
C440 C 0.07965 1.00746 0.57743 0.0
C441 C 0.13224 0.95976 0.56921 0.0
C442 C 0.13864 0.91106 0.5262 0.0
C443 C 0.09167 0.91073 0.49096 0.0
H444 H 0.49099 0.13044 0.22366 0.0
H445 H 0.46132 0.30754 0.33292 0.0
H446 H 0.43311 0.34593 0.27898 0.0
H447 H 0.58684 0.19166 0.14976 0.0
H448 H 0.54706 0.13018 0.10119 0.0
H449 H 0.57715 0.12103 0.14902 0.0
H450 H 0.42988 0.07839 0.15033 0.0
H451 H 0.39735 0.08885 0.10395 0.0
H452 H 0.34029 0.12363 0.15569 0.0
H453 H 0.39648 0.36159 0.21129 0.0
H454 H 0.33738 0.35082 0.14087 0.0
H455 H 0.37993 0.16155 0.07924 0.0
C456 C 0.47868 0.17734 0.23621 0.0
C457 C 0.47703 0.2159 0.28225 0.0
C458 C 0.46286 0.2773 0.29757 0.0
C459 C 0.44713 0.29945 0.26721 0.0
C460 C 0.44771 0.25972 0.22179 0.0
C461 C 0.46351 0.2001 0.20662 0.0
C462 C 0.45929 0.1663 0.15664 0.0
C463 C 0.54777 0.15108 0.13789 0.0
C464 C 0.40338 0.11108 0.14075 0.0
C465 C 0.42407 0.21324 0.14635 0.0
C466 C 0.42441 0.26814 0.18371 0.0
C467 C 0.39639 0.31875 0.18198 0.0
C468 C 0.36315 0.31221 0.14179 0.0
C469 C 0.35464 0.25526 0.10476 0.0
C470 C 0.3878 0.20558 0.10671 0.0
H471 H 0.39919 0.89324 0.30684 0.0
H472 H 0.61073 0.7776 0.24515 0.0
H473 H 0.58636 0.72928 0.29247 0.0
H474 H 0.44029 0.91523 0.41717 0.0
H475 H 0.33205 0.91868 0.43179 0.0
H476 H 0.36521 0.94103 0.39081 0.0
H477 H 0.26175 0.86329 0.33449 0.0
H478 H 0.2318 0.84088 0.3758 0.0
H479 H 0.27073 0.78662 0.32238 0.0
H480 H 0.53732 0.69189 0.34557 0.0
H481 H 0.46956 0.67147 0.40294 0.0
H482 H 0.30301 0.81967 0.43647 0.0
C483 C 0.44084 0.85801 0.3033 0.0
C484 C 0.50664 0.83927 0.27183 0.0
C485 C 0.55871 0.79224 0.26815 0.0
C486 C 0.54584 0.76467 0.29517 0.0
C487 C 0.48116 0.78483 0.3261 0.0
C488 C 0.4295 0.8304 0.33034 0.0
C489 C 0.36623 0.84498 0.36727 0.0
C490 C 0.37634 0.90895 0.40394 0.0
C491 C 0.27738 0.83322 0.34887 0.0
C492 C 0.3915 0.80133 0.38368 0.0
C493 C 0.45693 0.76625 0.35893 0.0
C494 C 0.4874 0.72 0.36585 0.0
C495 C 0.44931 0.70908 0.39866 0.0
C496 C 0.38449 0.74598 0.42542 0.0
C497 C 0.35549 0.79283 0.41795 0.0
H498 H 0.60807 0.68162 0.8658 0.0
H499 H 0.655 0.8531 0.97792 0.0
H500 H 0.60546 0.90262 0.93549 0.0
H501 H 0.69468 0.72373 0.78919 0.0
H502 H 0.62616 0.67975 0.74398 0.0
H503 H 0.64864 0.65712 0.78581 0.0
H504 H 0.4916 0.65574 0.80207 0.0
H505 H 0.46847 0.67814 0.76008 0.0
H506 H 0.42991 0.72113 0.81615 0.0
H507 H 0.56742 0.93404 0.87957 0.0
H508 H 0.54316 0.94621 0.81265 0.0
H509 H 0.53301 0.75483 0.7324 0.0
C510 C 0.60473 0.72959 0.88183 0.0
C511 C 0.63033 0.76372 0.92649 0.0
C512 C 0.63038 0.82622 0.94516 0.0
C513 C 0.60333 0.85477 0.92095 0.0
C514 C 0.57924 0.82008 0.87708 0.0
C515 C 0.58047 0.75883 0.85734 0.0
C516 C 0.56274 0.7324 0.80784 0.0
C517 C 0.63749 0.69613 0.78008 0.0
C518 C 0.48342 0.69463 0.79584 0.0
C519 C 0.5509 0.78849 0.80313 0.0
C520 C 0.56053 0.83841 0.84367 0.0
C521 C 0.558 0.89541 0.84777 0.0
C522 C 0.54513 0.90184 0.80948 0.0
C523 C 0.53632 0.85156 0.76733 0.0
C524 C 0.53814 0.7941 0.76429 0.0
H525 H 0.64746 0.3491 0.67231 0.0
H526 H 0.65321 0.17737 0.55561 0.0
H527 H 0.59595 0.1309 0.59821 0.0
H528 H 0.72852 0.28713 0.73996 0.0
H529 H 0.67406 0.33706 0.79004 0.0
H530 H 0.70101 0.36043 0.74892 0.0
H531 H 0.5478 0.38536 0.74362 0.0
H532 H 0.51956 0.36248 0.78492 0.0
H533 H 0.46926 0.3294 0.73146 0.0
H534 H 0.54846 0.10028 0.65269 0.0
H535 H 0.51998 0.08536 0.71825 0.0
H536 H 0.55883 0.2732 0.80469 0.0
C537 C 0.6339 0.30206 0.65549 0.0
C538 C 0.64839 0.26775 0.60905 0.0
C539 C 0.63617 0.20569 0.58953 0.0
C540 C 0.60484 0.17847 0.61396 0.0
C541 C 0.5902 0.21333 0.65912 0.0
C542 C 0.60609 0.27351 0.68021 0.0
C543 C 0.59637 0.29845 0.73041 0.0
C544 C 0.67994 0.32214 0.75371 0.0
C545 C 0.52919 0.34678 0.74867 0.0
C546 C 0.5698 0.24302 0.73369 0.0
C547 C 0.56703 0.19465 0.69189 0.0
C548 C 0.54889 0.13779 0.68561 0.0
C549 C 0.53347 0.12968 0.72303 0.0
C550 C 0.53715 0.17798 0.76638 0.0
C551 C 0.55442 0.23568 0.77181 0.0
H552 H 0.8849 0.6595 0.07414 0.0
H553 H 0.84357 0.84896 0.13801 0.0
H554 H 0.90652 0.85804 0.20717 0.0
H555 H 0.84087 0.62265 0.14813 0.0
H556 H 0.92628 0.57516 0.14494 0.0
H557 H 0.90102 0.58509 0.09744 0.0
H558 H 0.05033 0.62429 0.09465 0.0
H559 H 0.07616 0.60958 0.14065 0.0
H560 H 0.0943 0.68149 0.14441 0.0
H561 H 0.94552 0.84156 0.27338 0.0
H562 H 0.9705 0.80247 0.32715 0.0
H563 H 0.99184 0.62466 0.21778 0.0
C564 C 0.89438 0.70323 0.10174 0.0
C565 C 0.86097 0.75357 0.1008 0.0
C566 C 0.87063 0.81007 0.13804 0.0
C567 C 0.90601 0.8156 0.17748 0.0
C568 C 0.93436 0.76442 0.1783 0.0
C569 C 0.93264 0.70977 0.14065 0.0
C570 C 0.96379 0.66144 0.15073 0.0
C571 C 0.90433 0.60802 0.13438 0.0
C572 C 0.05135 0.64286 0.13133 0.0
C573 C 0.96847 0.69495 0.20077 0.0
C574 C 0.95619 0.75503 0.2161 0.0
C575 C 0.95697 0.79473 0.26153 0.0
C576 C 0.97089 0.77221 0.29179 0.0
C577 C 0.9819 0.71051 0.27638 0.0
C578 C 0.98207 0.67184 0.23032 0.0
H579 H 0.81651 0.32826 0.44051 0.0
H580 H 0.96134 0.16796 0.39756 0.0
H581 H 0.02745 0.18595 0.33863 0.0
H582 H 0.77825 0.30153 0.32483 0.0
H583 H 0.77699 0.37977 0.34098 0.0
H584 H 0.7433 0.35376 0.37961 0.0
H585 H 0.84651 0.42528 0.43569 0.0
H586 H 0.89089 0.4489 0.39752 0.0
H587 H 0.95548 0.41576 0.42329 0.0
H588 H 0.07609 0.22142 0.28402 0.0
H589 H 0.10885 0.27388 0.2401 0.0
H590 H 0.92279 0.40681 0.31495 0.0
C591 C 0.86296 0.29768 0.41905 0.0
C592 C 0.88617 0.24791 0.42425 0.0
C593 C 0.94493 0.2073 0.39467 0.0
C594 C 0.98187 0.2168 0.3609 0.0
C595 C 0.95649 0.26576 0.35602 0.0
C596 C 0.8973 0.30494 0.38381 0.0
C597 C 0.87821 0.3525 0.37021 0.0
C598 C 0.78893 0.34652 0.35291 0.0
C599 C 0.89364 0.41443 0.40891 0.0
C600 C 0.94035 0.33656 0.33258 0.0
C601 C 0.98323 0.28544 0.32408 0.0
C602 C 0.04286 0.26149 0.29033 0.0
C603 C 0.06055 0.29138 0.26529 0.0
C604 C 0.01895 0.34482 0.2742 0.0
C605 C 0.9569 0.36675 0.30781 0.0
H606 H 0.94149 0.26671 0.75403 0.0
H607 H 0.03231 0.44786 0.81435 0.0
H608 H 0.10024 0.43261 0.87309 0.0
H609 H 0.89254 0.26131 0.85353 0.0
H610 H 0.92747 0.18641 0.8358 0.0
H611 H 0.89194 0.20819 0.79524 0.0
H612 H 0.03158 0.1744 0.75221 0.0
H613 H 0.06672 0.15149 0.79224 0.0
H614 H 0.12747 0.2031 0.78145 0.0
H615 H 0.14688 0.40254 0.92802 0.0
H616 H 0.18669 0.3547 0.97302 0.0
H617 H 0.06702 0.19177 0.87993 0.0
C618 C 0.97709 0.30256 0.77923 0.0
C619 C 0.98171 0.35859 0.78 0.0
C620 C 0.028 0.40483 0.81349 0.0
C621 C 0.06665 0.39658 0.84692 0.0
C622 C 0.05777 0.34197 0.84658 0.0
C623 C 0.0157 0.29522 0.81334 0.0
C624 C 0.01547 0.24147 0.82177 0.0
C625 C 0.92654 0.22331 0.82688 0.0
C626 C 0.06315 0.18954 0.78471 0.0
C627 C 0.06176 0.26621 0.86557 0.0
C628 C 0.0854 0.32424 0.87891 0.0
C629 C 0.1289 0.35708 0.91788 0.0
C630 C 0.1509 0.32948 0.94345 0.0
C631 C 0.12869 0.26995 0.93068 0.0
C632 C 0.08324 0.23783 0.89109 0.0
H633 H 0.2322 0.71419 0.60581 0.0
H634 H 0.01939 0.81906 0.60905 0.0
H635 H 0.94513 0.78688 0.65834 0.0
H636 H 0.13402 0.59468 0.62291 0.0
H637 H 0.21233 0.59941 0.66202 0.0
H638 H 0.23775 0.61769 0.61802 0.0
H639 H 0.29097 0.72041 0.67781 0.0
H640 H 0.26221 0.70258 0.72164 0.0
H641 H 0.22139 0.76838 0.72154 0.0
H642 H 0.89736 0.74629 0.70972 0.0
H643 H 0.88463 0.71215 0.76663 0.0
H644 H 0.14091 0.65209 0.74198 0.0
C645 C 0.16842 0.72785 0.61529 0.0
C646 C 0.12791 0.76457 0.60054 0.0
C647 C 0.04801 0.78676 0.61699 0.0
C648 C 0.00618 0.76945 0.64553 0.0
C649 C 0.0477 0.73308 0.65953 0.0
C650 C 0.12798 0.71387 0.64587 0.0
C651 C 0.16458 0.68534 0.67237 0.0
C652 C 0.18858 0.62041 0.64199 0.0
C653 C 0.23916 0.72132 0.69997 0.0
C654 C 0.09138 0.68968 0.70198 0.0
C655 C 0.02434 0.71667 0.69366 0.0
C656 C 0.94966 0.72548 0.71677 0.0
C657 C 0.94338 0.70637 0.74939 0.0
C658 C 0.01197 0.67969 0.75929 0.0
C659 C 0.08679 0.67137 0.73499 0.0
loop_
_geom_bond_atom_site_label_1
_geom_bond_atom_site_label_2
_geom_bond_distance
_geom_bond_site_symmetry_2
_ccdc_geom_bond_type
Tb0 N31 2.660 . S
Tb0 N38 2.600 . S
Tb0 O44 2.546 . S
Tb0 O45 2.610 . S
Tb0 O47 2.320 . S
Tb0 O48 2.552 . S
Tb0 O49 2.413 . S
Tb0 O51 2.362 1_554 S
Tb0 O52 2.421 . S
Tb0 C64 2.833 . S
C1 C4 1.432 . S
C1 C5 1.414 . S
C1 N8 1.359 . S
C2 C4 1.417 1_554 S
C2 C6 1.432 . S
C2 C14 1.410 . S
C3 C5 1.444 . S
C3 C6 1.317 1_556 S
C3 H26 0.929 . S
C4 C1 1.432 . S
C4 C2 1.417 1_556 S
C4 N12 1.360 . S
C5 C1 1.414 . S
C5 C3 1.444 . S
C5 C10 1.385 1_545 S
C6 C2 1.432 . S
C6 C3 1.317 1_554 S
C6 H18 0.930 . S
C7 C9 1.392 1_565 S
C7 C10 1.370 . S
C7 H19 0.931 . S
N8 C1 1.359 . S
N8 C9 1.327 . S
N8 Tb11 2.600 . S
C9 C7 1.392 1_545 S
C9 N8 1.327 . S
C9 H16 0.930 . S
C10 C5 1.385 1_565 S
C10 C7 1.370 . S
C10 H29 0.930 . S
Tb11 N8 2.600 . S
Tb11 N12 2.660 . S
Tb11 O45 2.362 1_556 S
Tb11 O46 2.421 . S
Tb11 O50 2.546 . S
Tb11 O51 2.610 . S
Tb11 O53 2.320 . S
Tb11 O54 2.552 . S
Tb11 O55 2.413 . S
Tb11 C75 2.833 . S
N12 C4 1.360 . S
N12 Tb11 2.660 . S
N12 C13 1.305 1_556 S
C13 N12 1.305 1_554 S
C13 C15 1.407 . S
C13 H20 0.930 . S
C14 C2 1.410 . S
C14 C15 1.345 . S
C14 H22 0.930 . S
C15 C13 1.407 . S
C15 C14 1.345 . S
C15 H17 0.930 . S
H16 C9 0.930 . S
H17 C15 0.930 . S
H18 C6 0.930 . S
H19 C7 0.931 . S
H20 C13 0.930 . S
H21 C35 0.930 . S
H22 C14 0.930 . S
H23 C41 0.930 . S
H24 C32 0.930 1_455 S
H25 C39 0.931 . S
H26 C3 0.929 . S
H27 C33 0.930 . S
H28 C66 0.930 1_556 S
H29 C10 0.930 . S
H30 C65 0.929 . S
N31 Tb0 2.660 . S
N31 C32 1.305 1_454 S
N31 C36 1.360 1_455 S
C32 H24 0.930 1_655 S
C32 N31 1.305 1_656 S
C32 C35 1.407 . S
C33 H27 0.930 . S
C33 C34 1.410 . S
C33 C35 1.345 . S
C34 C33 1.410 . S
C34 C36 1.417 1_556 S
C34 C66 1.432 1_556 S
C35 H21 0.930 . S
C35 C32 1.407 . S
C35 C33 1.345 . S
C36 N31 1.360 1_655 S
C36 C34 1.417 1_554 S
C36 C40 1.432 1_655 S
H37 C42 0.930 1_655 S
N38 Tb0 2.600 . S
N38 C40 1.359 . S
N38 C41 1.327 . S
C39 H25 0.931 . S
C39 C41 1.392 . S
C39 C42 1.370 . S
C40 C36 1.432 1_455 S
C40 N38 1.359 . S
C40 C43 1.414 1_455 S
C41 H23 0.930 . S
C41 N38 1.327 . S
C41 C39 1.392 . S
C42 H37 0.930 1_455 S
C42 C39 1.370 . S
C42 C43 1.385 1_455 S
C43 C40 1.414 1_655 S
C43 C42 1.385 1_655 S
C43 C65 1.444 . S
O44 Tb0 2.546 . S
O44 C64 1.251 . S
O45 Tb0 2.610 . S
O45 Tb11 2.362 1_554 S
O45 C56 1.283 . S
O46 Tb11 2.421 . S
O46 C63 1.262 . S
O47 Tb0 2.320 . S
O47 C63 1.260 1_554 S
O48 Tb0 2.552 . S
O48 C56 1.243 . S
O49 Tb0 2.413 . S
O49 C64 1.256 . S
O50 Tb11 2.546 . S
O50 C75 1.251 . S
O51 Tb0 2.362 1_556 S
O51 Tb11 2.610 . S
O51 C67 1.283 . S
O52 Tb0 2.421 . S
O52 C74 1.262 . S
O53 Tb11 2.320 . S
O53 C74 1.260 1_556 S
O54 Tb11 2.552 . S
O54 C67 1.243 . S
O55 Tb11 2.413 . S
O55 C75 1.256 . S
C56 O45 1.283 . S
C56 O48 1.243 . S
C57 C59 1.382 . S
C57 C61 1.393 . S
C57 C64 1.500 . S
C58 C59 1.400 1_655 S
C58 C60 1.384 . S
C59 C57 1.382 . S
C59 C58 1.400 1_455 S
C59 H76 0.930 . S
C60 C58 1.384 . S
C60 C62 1.392 . S
C60 H77 0.931 . S
C61 C57 1.393 . S
C61 C62 1.401 1_455 S
C61 H78 0.930 . S
C62 C60 1.392 . S
C62 C61 1.401 1_655 S
C62 H79 0.930 . S
C63 O46 1.262 . S
C63 O47 1.260 1_556 S
C64 Tb0 2.833 . S
C64 O44 1.251 . S
C64 O49 1.256 . S
C64 C57 1.500 . S
C65 H30 0.929 . S
C65 C43 1.444 . S
C65 C66 1.317 . S
C66 H28 0.930 1_554 S
C66 C34 1.432 1_554 S
C66 C65 1.317 . S
C67 O51 1.283 . S
C67 O54 1.243 . S
C68 C69 1.382 . S
C68 C72 1.393 . S
C68 C75 1.500 . S
C69 C68 1.382 . S
C69 C70 1.400 . S
C69 H80 0.930 . S
C70 C69 1.400 . S
C70 C71 1.384 . S
C71 C70 1.384 . S
C71 C73 1.392 . S
C71 H81 0.931 . S
C72 C68 1.393 . S
C72 C73 1.401 . S
C72 H82 0.930 . S
C73 C71 1.392 . S
C73 C72 1.401 . S
C73 H83 0.930 . S
C74 O52 1.262 . S
C74 O53 1.260 1_554 S
C75 Tb11 2.833 . S
C75 O50 1.251 . S
C75 O55 1.256 . S
C75 C68 1.500 . S
H76 C59 0.930 . S
H77 C60 0.931 . S
H78 C61 0.930 . S
H79 C62 0.930 . S
H80 C69 0.930 . S
H81 C71 0.931 . S
H82 C72 0.930 . S
H83 C73 0.930 . S
Tb84 N115 2.660 . S
Tb84 N122 2.600 . S
Tb84 O128 2.546 . S
Tb84 O129 2.610 . S
Tb84 O131 2.320 . S
Tb84 O132 2.552 . S
Tb84 O133 2.413 . S
Tb84 O135 2.362 1_554 S
Tb84 O136 2.421 . S
Tb84 C148 2.833 . S
C85 C88 1.432 1_655 S
C85 C89 1.414 1_655 S
C85 N92 1.359 . S
C86 C88 1.417 1_554 S
C86 C90 1.432 . S
C86 C98 1.410 . S
C87 C89 1.444 . S
C87 C90 1.317 1_556 S
C87 H110 0.929 . S
C88 C85 1.432 1_455 S
C88 C86 1.417 1_556 S
C88 N96 1.360 1_455 S
C89 C85 1.414 1_455 S
C89 C87 1.444 . S
C89 C94 1.385 1_455 S
C90 C86 1.432 . S
C90 C87 1.317 1_554 S
C90 H102 0.930 . S
C91 C93 1.392 . S
C91 C94 1.370 . S
C91 H103 0.931 . S
N92 C85 1.359 . S
N92 C93 1.327 . S
N92 Tb95 2.600 . S
C93 C91 1.392 . S
C93 N92 1.327 . S
C93 H100 0.930 . S
C94 C89 1.385 1_655 S
C94 C91 1.370 . S
C94 H113 0.930 1_655 S
Tb95 N92 2.600 . S
Tb95 N96 2.660 . S
Tb95 O129 2.362 1_556 S
Tb95 O130 2.421 . S
Tb95 O134 2.546 . S
Tb95 O135 2.610 . S
Tb95 O137 2.320 . S
Tb95 O138 2.552 . S
Tb95 O139 2.413 . S
Tb95 C159 2.833 . S
N96 C88 1.360 1_655 S
N96 Tb95 2.660 . S
N96 C97 1.305 1_656 S
C97 N96 1.305 1_454 S
C97 C99 1.407 . S
C97 H104 0.930 1_455 S
C98 C86 1.410 . S
C98 C99 1.345 . S
C98 H106 0.930 . S
C99 C97 1.407 . S
C99 C98 1.345 . S
C99 H101 0.930 . S
H100 C93 0.930 . S
H101 C99 0.930 . S
H102 C90 0.930 . S
H103 C91 0.931 . S
H104 C97 0.930 1_655 S
H105 C119 0.930 . S
H106 C98 0.930 . S
H107 C125 0.930 . S
H108 C116 0.930 . S
H109 C123 0.931 . S
H110 C87 0.929 . S
H111 C117 0.930 . S
H112 C150 0.930 1_556 S
H113 C94 0.930 1_455 S
H114 C149 0.929 . S
N115 Tb84 2.660 . S
N115 C116 1.305 1_554 S
N115 C120 1.360 . S
C116 H108 0.930 . S
C116 N115 1.305 1_556 S
C116 C119 1.407 . S
C117 H111 0.930 . S
C117 C118 1.410 . S
C117 C119 1.345 . S
C118 C117 1.410 . S
C118 C120 1.417 1_556 S
C118 C150 1.432 1_556 S
C119 H105 0.930 . S
C119 C116 1.407 . S
C119 C117 1.345 . S
C120 N115 1.360 . S
C120 C118 1.417 1_554 S
C120 C124 1.432 . S
H121 C126 0.930 . S
N122 Tb84 2.600 . S
N122 C124 1.359 . S
N122 C125 1.327 . S
C123 H109 0.931 . S
C123 C125 1.392 1_545 S
C123 C126 1.370 . S
C124 C120 1.432 . S
C124 N122 1.359 . S
C124 C127 1.414 . S
C125 H107 0.930 . S
C125 N122 1.327 . S
C125 C123 1.392 1_565 S
C126 H121 0.930 . S
C126 C123 1.370 . S
C126 C127 1.385 1_545 S
C127 C124 1.414 . S
C127 C126 1.385 1_565 S
C127 C149 1.444 . S
O128 Tb84 2.546 . S
O128 C148 1.251 . S
O129 Tb84 2.610 . S
O129 Tb95 2.362 1_554 S
O129 C140 1.283 . S
O130 Tb95 2.421 . S
O130 C147 1.262 . S
O131 Tb84 2.320 . S
O131 C147 1.260 1_554 S
O132 Tb84 2.552 . S
O132 C140 1.243 . S
O133 Tb84 2.413 . S
O133 C148 1.256 . S
O134 Tb95 2.546 . S
O134 C159 1.251 . S
O135 Tb84 2.362 1_556 S
O135 Tb95 2.610 . S
O135 C151 1.283 . S
O136 Tb84 2.421 . S
O136 C158 1.262 . S
O137 Tb95 2.320 . S
O137 C158 1.260 1_556 S
O138 Tb95 2.552 . S
O138 C151 1.243 . S
O139 Tb95 2.413 . S
O139 C159 1.256 . S
C140 O129 1.283 . S
C140 O132 1.243 . S
C141 C143 1.382 . S
C141 C145 1.393 . S
C141 C148 1.500 . S
C142 C143 1.400 . S
C142 C144 1.384 . S
C143 C141 1.382 . S
C143 C142 1.400 . S
C143 H160 0.930 . S
C144 C142 1.384 . S
C144 C146 1.392 . S
C144 H161 0.931 . S
C145 C141 1.393 . S
C145 C146 1.401 . S
C145 H162 0.930 . S
C146 C144 1.392 . S
C146 C145 1.401 . S
C146 H163 0.930 . S
C147 O130 1.262 . S
C147 O131 1.260 1_556 S
C148 Tb84 2.833 . S
C148 O128 1.251 . S
C148 O133 1.256 . S
C148 C141 1.500 . S
C149 H114 0.929 . S
C149 C127 1.444 . S
C149 C150 1.317 . S
C150 H112 0.930 1_554 S
C150 C118 1.432 1_554 S
C150 C149 1.317 . S
C151 O135 1.283 . S
C151 O138 1.243 . S
C152 C153 1.382 . S
C152 C156 1.393 . S
C152 C159 1.500 . S
C153 C152 1.382 . S
C153 C154 1.400 1_655 S
C153 H164 0.930 . S
C154 C153 1.400 1_455 S
C154 C155 1.384 . S
C155 C154 1.384 . S
C155 C157 1.392 . S
C155 H165 0.931 . S
C156 C152 1.393 . S
C156 C157 1.401 1_655 S
C156 H166 0.930 . S
C157 C155 1.392 . S
C157 C156 1.401 1_455 S
C157 H167 0.930 . S
C158 O136 1.262 . S
C158 O137 1.260 1_554 S
C159 Tb95 2.833 . S
C159 O134 1.251 . S
C159 O139 1.256 . S
C159 C152 1.500 . S
H160 C143 0.930 . S
H161 C144 0.931 . S
H162 C145 0.930 . S
H163 C146 0.930 . S
H164 C153 0.930 . S
H165 C155 0.931 . S
H166 C156 0.930 . S
H167 C157 0.930 . S
Tb168 N199 2.660 . S
Tb168 N206 2.600 . S
Tb168 O212 2.546 . S
Tb168 O213 2.610 . S
Tb168 O215 2.320 . S
Tb168 O216 2.552 . S
Tb168 O217 2.413 . S
Tb168 O219 2.362 . S
Tb168 O220 2.421 . S
Tb168 C232 2.833 . S
C169 C172 1.432 . S
C169 C173 1.414 . S
C169 N176 1.359 . S
C170 C172 1.417 . S
C170 C174 1.432 . S
C170 C182 1.410 . S
C171 C173 1.444 . S
C171 C174 1.317 . S
C171 H194 0.929 . S
C172 C169 1.432 . S
C172 C170 1.417 . S
C172 N180 1.360 . S
C173 C169 1.414 . S
C173 C171 1.444 . S
C173 C178 1.385 1_565 S
C174 C170 1.432 . S
C174 C171 1.317 . S
C174 H186 0.930 . S
C175 C177 1.392 1_545 S
C175 C178 1.370 . S
C175 H187 0.931 . S
N176 C169 1.359 . S
N176 C177 1.327 . S
N176 Tb179 2.600 . S
C177 C175 1.392 1_565 S
C177 N176 1.327 . S
C177 H184 0.930 . S
C178 C173 1.385 1_545 S
C178 C175 1.370 . S
C178 H197 0.930 . S
Tb179 N176 2.600 . S
Tb179 N180 2.660 . S
Tb179 O213 2.362 . S
Tb179 O214 2.421 . S
Tb179 O218 2.546 . S
Tb179 O219 2.610 . S
Tb179 O221 2.320 . S
Tb179 O222 2.552 . S
Tb179 O223 2.413 . S
Tb179 C243 2.833 . S
N180 C172 1.360 . S
N180 Tb179 2.660 . S
N180 C181 1.305 . S
C181 N180 1.305 . S
C181 C183 1.407 . S
C181 H188 0.930 . S
C182 C170 1.410 . S
C182 C183 1.345 . S
C182 H190 0.930 . S
C183 C181 1.407 . S
C183 C182 1.345 . S
C183 H185 0.930 . S
H184 C177 0.930 . S
H185 C183 0.930 . S
H186 C174 0.930 . S
H187 C175 0.931 . S
H188 C181 0.930 . S
H189 C203 0.930 . S
H190 C182 0.930 . S
H191 C209 0.930 . S
H192 C200 0.930 1_455 S
H193 C207 0.931 . S
H194 C171 0.929 . S
H195 C201 0.930 . S
H196 C234 0.930 . S
H197 C178 0.930 . S
H198 C233 0.929 . S
N199 Tb168 2.660 . S
N199 C200 1.305 1_455 S
N199 C204 1.360 1_455 S
C200 H192 0.930 1_655 S
C200 N199 1.305 1_655 S
C200 C203 1.407 . S
C201 H195 0.930 . S
C201 C202 1.410 . S
C201 C203 1.345 . S
C202 C201 1.410 . S
C202 C204 1.417 . S
C202 C234 1.432 . S
C203 H189 0.930 . S
C203 C200 1.407 . S
C203 C201 1.345 . S
C204 N199 1.360 1_655 S
C204 C202 1.417 . S
C204 C208 1.432 1_655 S
H205 C210 0.930 1_655 S
N206 Tb168 2.600 . S
N206 C208 1.359 . S
N206 C209 1.327 . S
C207 H193 0.931 . S
C207 C209 1.392 . S
C207 C210 1.370 . S
C208 C204 1.432 1_455 S
C208 N206 1.359 . S
C208 C211 1.414 1_455 S
C209 H191 0.930 . S
C209 N206 1.327 . S
C209 C207 1.392 . S
C210 H205 0.930 1_455 S
C210 C207 1.370 . S
C210 C211 1.385 1_455 S
C211 C208 1.414 1_655 S
C211 C210 1.385 1_655 S
C211 C233 1.444 . S
O212 Tb168 2.546 . S
O212 C232 1.251 . S
O213 Tb168 2.610 . S
O213 Tb179 2.362 . S
O213 C224 1.283 . S
O214 Tb179 2.421 . S
O214 C231 1.262 . S
O215 Tb168 2.320 . S
O215 C231 1.260 . S
O216 Tb168 2.552 . S
O216 C224 1.243 . S
O217 Tb168 2.413 . S
O217 C232 1.256 . S
O218 Tb179 2.546 . S
O218 C243 1.251 . S
O219 Tb168 2.362 . S
O219 Tb179 2.610 . S
O219 C235 1.283 . S
O220 Tb168 2.421 . S
O220 C242 1.262 . S
O221 Tb179 2.320 . S
O221 C242 1.260 . S
O222 Tb179 2.552 . S
O222 C235 1.243 . S
O223 Tb179 2.413 . S
O223 C243 1.256 . S
C224 O213 1.283 . S
C224 O216 1.243 . S
C225 C227 1.382 . S
C225 C229 1.393 . S
C225 C232 1.500 . S
C226 C227 1.400 1_655 S
C226 C228 1.384 . S
C227 C225 1.382 . S
C227 C226 1.400 1_455 S
C227 H244 0.930 . S
C228 C226 1.384 . S
C228 C230 1.392 . S
C228 H245 0.931 . S
C229 C225 1.393 . S
C229 C230 1.401 1_455 S
C229 H246 0.930 . S
C230 C228 1.392 . S
C230 C229 1.401 1_655 S
C230 H247 0.930 . S
C231 O214 1.262 . S
C231 O215 1.260 . S
C232 Tb168 2.833 . S
C232 O212 1.251 . S
C232 O217 1.256 . S
C232 C225 1.500 . S
C233 H198 0.929 . S
C233 C211 1.444 . S
C233 C234 1.317 . S
C234 H196 0.930 . S
C234 C202 1.432 . S
C234 C233 1.317 . S
C235 O219 1.283 . S
C235 O222 1.243 . S
C236 C237 1.382 . S
C236 C240 1.393 . S
C236 C243 1.500 . S
C237 C236 1.382 . S
C237 C238 1.400 . S
C237 H248 0.930 . S
C238 C237 1.400 . S
C238 C239 1.384 . S
C239 C238 1.384 . S
C239 C241 1.392 . S
C239 H249 0.931 . S
C240 C236 1.393 . S
C240 C241 1.401 . S
C240 H250 0.930 . S
C241 C239 1.392 . S
C241 C240 1.401 . S
C241 H251 0.930 . S
C242 O220 1.262 . S
C242 O221 1.260 . S
C243 Tb179 2.833 . S
C243 O218 1.251 . S
C243 O223 1.256 . S
C243 C236 1.500 . S
H244 C227 0.930 . S
H245 C228 0.931 . S
H246 C229 0.930 . S
H247 C230 0.930 . S
H248 C237 0.930 . S
H249 C239 0.931 . S
H250 C240 0.930 . S
H251 C241 0.930 . S
Tb252 N283 2.660 . S
Tb252 N290 2.600 . S
Tb252 O296 2.546 . S
Tb252 O297 2.610 . S
Tb252 O299 2.320 . S
Tb252 O300 2.552 . S
Tb252 O301 2.413 . S
Tb252 O303 2.362 . S
Tb252 O304 2.421 . S
Tb252 C316 2.833 . S
C253 C256 1.432 1_655 S
C253 C257 1.414 1_655 S
C253 N260 1.359 . S
C254 C256 1.417 . S
C254 C258 1.432 . S
C254 C266 1.410 . S
C255 C257 1.444 . S
C255 C258 1.317 . S
C255 H278 0.929 . S
C256 C253 1.432 1_455 S
C256 C254 1.417 . S
C256 N264 1.360 1_455 S
C257 C253 1.414 1_455 S
C257 C255 1.444 . S
C257 C262 1.385 1_455 S
C258 C254 1.432 . S
C258 C255 1.317 . S
C258 H270 0.930 . S
C259 C261 1.392 . S
C259 C262 1.370 . S
C259 H271 0.931 . S
N260 C253 1.359 . S
N260 C261 1.327 . S
N260 Tb263 2.600 . S
C261 C259 1.392 . S
C261 N260 1.327 . S
C261 H268 0.930 . S
C262 C257 1.385 1_655 S
C262 C259 1.370 . S
C262 H281 0.930 1_655 S
Tb263 N260 2.600 . S
Tb263 N264 2.660 . S
Tb263 O297 2.362 . S
Tb263 O298 2.421 . S
Tb263 O302 2.546 . S
Tb263 O303 2.610 . S
Tb263 O305 2.320 . S
Tb263 O306 2.552 . S
Tb263 O307 2.413 . S
Tb263 C327 2.833 . S
N264 C256 1.360 1_655 S
N264 Tb263 2.660 . S
N264 C265 1.305 1_655 S
C265 N264 1.305 1_455 S
C265 C267 1.407 . S
C265 H272 0.930 1_455 S
C266 C254 1.410 . S
C266 C267 1.345 . S
C266 H274 0.930 . S
C267 C265 1.407 . S
C267 C266 1.345 . S
C267 H269 0.930 . S
H268 C261 0.930 . S
H269 C267 0.930 . S
H270 C258 0.930 . S
H271 C259 0.931 . S
H272 C265 0.930 1_655 S
H273 C287 0.930 . S
H274 C266 0.930 . S
H275 C293 0.930 . S
H276 C284 0.930 . S
H277 C291 0.931 . S
H278 C255 0.929 . S
H279 C285 0.930 . S
H280 C318 0.930 . S
H281 C262 0.930 1_455 S
H282 C317 0.929 . S
N283 Tb252 2.660 . S
N283 C284 1.305 . S
N283 C288 1.360 . S
C284 H276 0.930 . S
C284 N283 1.305 . S
C284 C287 1.407 . S
C285 H279 0.930 . S
C285 C286 1.410 . S
C285 C287 1.345 . S
C286 C285 1.410 . S
C286 C288 1.417 . S
C286 C318 1.432 . S
C287 H273 0.930 . S
C287 C284 1.407 . S
C287 C285 1.345 . S
C288 N283 1.360 . S
C288 C286 1.417 . S
C288 C292 1.432 . S
H289 C294 0.930 . S
N290 Tb252 2.600 . S
N290 C292 1.359 . S
N290 C293 1.327 . S
C291 H277 0.931 . S
C291 C293 1.392 1_565 S
C291 C294 1.370 . S
C292 C288 1.432 . S
C292 N290 1.359 . S
C292 C295 1.414 . S
C293 H275 0.930 . S
C293 N290 1.327 . S
C293 C291 1.392 1_545 S
C294 H289 0.930 . S
C294 C291 1.370 . S
C294 C295 1.385 1_565 S
C295 C292 1.414 . S
C295 C294 1.385 1_545 S
C295 C317 1.444 . S
O296 Tb252 2.546 . S
O296 C316 1.251 . S
O297 Tb252 2.610 . S
O297 Tb263 2.362 . S
O297 C308 1.283 . S
O298 Tb263 2.421 . S
O298 C315 1.262 . S
O299 Tb252 2.320 . S
O299 C315 1.260 . S
O300 Tb252 2.552 . S
O300 C308 1.243 . S
O301 Tb252 2.413 . S
O301 C316 1.256 . S
O302 Tb263 2.546 . S
O302 C327 1.251 . S
O303 Tb252 2.362 . S
O303 Tb263 2.610 . S
O303 C319 1.283 . S
O304 Tb252 2.421 . S
O304 C326 1.262 . S
O305 Tb263 2.320 . S
O305 C326 1.260 . S
O306 Tb263 2.552 . S
O306 C319 1.243 . S
O307 Tb263 2.413 . S
O307 C327 1.256 . S
C308 O297 1.283 . S
C308 O300 1.243 . S
C309 C311 1.382 . S
C309 C313 1.393 . S
C309 C316 1.500 . S
C310 C311 1.400 . S
C310 C312 1.384 . S
C311 C309 1.382 . S
C311 C310 1.400 . S
C311 H328 0.930 . S
C312 C310 1.384 . S
C312 C314 1.392 . S
C312 H329 0.931 . S
C313 C309 1.393 . S
C313 C314 1.401 . S
C313 H330 0.930 . S
C314 C312 1.392 . S
C314 C313 1.401 . S
C314 H331 0.930 . S
C315 O298 1.262 . S
C315 O299 1.260 . S
C316 Tb252 2.833 . S
C316 O296 1.251 . S
C316 O301 1.256 . S
C316 C309 1.500 . S
C317 H282 0.929 . S
C317 C295 1.444 . S
C317 C318 1.317 . S
C318 H280 0.930 . S
C318 C286 1.432 . S
C318 C317 1.317 . S
C319 O303 1.283 . S
C319 O306 1.243 . S
C320 C321 1.382 . S
C320 C324 1.393 . S
C320 C327 1.500 . S
C321 C320 1.382 . S
C321 C322 1.400 1_655 S
C321 H332 0.930 . S
C322 C321 1.400 1_455 S
C322 C323 1.384 . S
C323 C322 1.384 . S
C323 C325 1.392 . S
C323 H333 0.931 . S
C324 C320 1.393 . S
C324 C325 1.401 1_655 S
C324 H334 0.930 . S
C325 C323 1.392 . S
C325 C324 1.401 1_455 S
C325 H335 0.930 . S
C326 O304 1.262 . S
C326 O305 1.260 . S
C327 Tb263 2.833 . S
C327 O302 1.251 . S
C327 O307 1.256 . S
C327 C320 1.500 . S
H328 C311 0.930 . S
H329 C312 0.931 . S
H330 C313 0.930 . S
H331 C314 0.930 . S
H332 C321 0.930 . S
H333 C323 0.931 . S
H334 C324 0.930 . S
H335 C325 0.930 . S
H336 C348 0.930 . S
H337 C350 0.930 . S
H338 C351 0.930 . S
H339 C355 0.959 . S
H340 C355 0.959 . S
H341 C355 0.961 . S
H342 C356 0.960 . S
H343 C356 0.961 . S
H344 C356 0.959 . S
H345 C359 0.929 . S
H346 C360 0.931 . S
H347 C362 0.930 . S
C348 H336 0.930 . S
C348 C349 1.381 1_554 S
C348 C353 1.399 . S
C349 C348 1.381 1_556 S
C349 C350 1.390 . S
C350 H337 0.930 . S
C350 C349 1.390 . S
C350 C351 1.388 . S
C351 H338 0.930 . S
C351 C350 1.388 . S
C351 C352 1.390 . S
C352 C351 1.390 . S
C352 C353 1.394 1_556 S
C352 C358 1.465 . S
C353 C348 1.399 . S
C353 C352 1.394 1_554 S
C353 C354 1.516 . S
C354 C353 1.516 . S
C354 C355 1.502 . S
C354 C356 1.561 . S
C354 C357 1.526 . S
C355 H339 0.959 . S
C355 H340 0.959 . S
C355 H341 0.961 . S
C355 C354 1.502 . S
C356 H342 0.960 . S
C356 H343 0.961 . S
C356 H344 0.959 . S
C356 C354 1.561 . S
C357 C354 1.526 . S
C357 C358 1.396 1_554 S
C357 C362 1.390 . S
C358 C352 1.465 . S
C358 C357 1.396 1_556 S
C358 C359 1.399 . S
C359 H345 0.929 . S
C359 C358 1.399 . S
C359 C360 1.385 . S
C360 H346 0.931 . S
C360 C359 1.385 . S
C360 C361 1.389 1_556 S
C361 C360 1.389 1_554 S
C361 C362 1.387 . S
C362 H347 0.930 . S
C362 C357 1.390 . S
C362 C361 1.387 . S
H363 C375 0.930 . S
H364 C377 0.930 . S
H365 C378 0.930 . S
H366 C382 0.959 . S
H367 C382 0.959 . S
H368 C382 0.961 . S
H369 C383 0.960 . S
H370 C383 0.961 . S
H371 C383 0.959 . S
H372 C386 0.929 . S
H373 C387 0.931 . S
H374 C389 0.930 . S
C375 H363 0.930 . S
C375 C376 1.399 . S
C375 C380 1.399 . S
C376 C375 1.399 . S
C376 C377 1.376 . S
C377 H364 0.930 . S
C377 C376 1.376 . S
C377 C378 1.388 . S
C378 H365 0.930 . S
C378 C377 1.388 . S
C378 C379 1.390 . S
C379 C378 1.390 . S
C379 C380 1.394 . S
C379 C385 1.465 . S
C380 C375 1.399 . S
C380 C379 1.394 . S
C380 C381 1.516 . S
C381 C380 1.516 . S
C381 C382 1.502 . S
C381 C383 1.561 . S
C381 C384 1.526 . S
C382 H366 0.959 . S
C382 H367 0.959 . S
C382 H368 0.961 . S
C382 C381 1.502 . S
C383 H369 0.960 . S
C383 H370 0.961 . S
C383 H371 0.959 . S
C383 C381 1.561 . S
C384 C381 1.526 . S
C384 C385 1.396 . S
C384 C389 1.390 . S
C385 C379 1.465 . S
C385 C384 1.396 . S
C385 C386 1.399 . S
C386 H372 0.929 . S
C386 C385 1.399 . S
C386 C387 1.385 . S
C387 H373 0.931 . S
C387 C386 1.385 . S
C387 C388 1.389 . S
C388 C387 1.389 . S
C388 C389 1.387 . S
C389 H374 0.930 . S
C389 C384 1.390 . S
C389 C388 1.387 . S
H390 C402 0.930 . S
H391 C404 0.930 . S
H392 C405 0.930 . S
H393 C409 0.959 . S
H394 C409 0.959 . S
H395 C409 0.961 . S
H396 C410 0.960 . S
H397 C410 0.961 . S
H398 C410 0.959 1_655 S
H399 C413 0.929 . S
H400 C414 0.931 . S
H401 C416 0.930 . S
C402 H390 0.930 . S
C402 C403 1.399 1_554 S
C402 C407 1.399 . S
C403 C402 1.399 1_556 S
C403 C404 1.377 . S
C404 H391 0.930 . S
C404 C403 1.377 . S
C404 C405 1.388 1_455 S
C405 H392 0.930 . S
C405 C404 1.388 1_655 S
C405 C406 1.390 . S
C406 C405 1.390 . S
C406 C407 1.394 1_656 S
C406 C412 1.465 1_545 S
C407 C402 1.399 . S
C407 C406 1.394 1_454 S
C407 C408 1.516 . S
C408 C407 1.516 . S
C408 C409 1.502 1_545 S
C408 C410 1.561 . S
C408 C411 1.526 1_445 S
C409 H393 0.959 . S
C409 H394 0.959 . S
C409 H395 0.961 . S
C409 C408 1.502 1_565 S
C410 H396 0.960 . S
C410 H397 0.961 . S
C410 H398 0.959 1_455 S
C410 C408 1.561 . S
C411 C408 1.526 1_665 S
C411 C412 1.396 1_554 S
C411 C416 1.390 . S
C412 C406 1.465 1_565 S
C412 C411 1.396 1_556 S
C412 C413 1.399 . S
C413 H399 0.929 . S
C413 C412 1.399 . S
C413 C414 1.385 . S
C414 H400 0.931 . S
C414 C413 1.385 . S
C414 C415 1.389 1_556 S
C415 C414 1.389 1_554 S
C415 C416 1.387 . S
C416 H401 0.930 . S
C416 C411 1.390 . S
C416 C415 1.387 . S
H417 C429 0.930 . S
H418 C431 0.930 . S
H419 C432 0.930 . S
H420 C436 0.959 . S
H421 C436 0.959 . S
H422 C436 0.961 . S
H423 C437 0.960 . S
H424 C437 0.961 . S
H425 C437 0.959 . S
H426 C440 0.929 . S
H427 C441 0.931 . S
H428 C443 0.930 . S
C429 H417 0.930 . S
C429 C430 1.399 . S
C429 C434 1.399 . S
C430 C429 1.399 . S
C430 C431 1.376 . S
C431 H418 0.930 . S
C431 C430 1.376 . S
C431 C432 1.388 . S
C432 H419 0.930 . S
C432 C431 1.388 . S
C432 C433 1.390 . S
C433 C432 1.390 . S
C433 C434 1.394 . S
C433 C439 1.456 1_645 S
C434 C429 1.399 . S
C434 C433 1.394 . S
C434 C435 1.516 1_545 S
C435 C434 1.516 1_565 S
C435 C436 1.502 . S
C435 C437 1.561 1_655 S
C435 C438 1.526 1_655 S
C436 H420 0.959 . S
C436 H421 0.959 . S
C436 H422 0.961 . S
C436 C435 1.502 . S
C437 H423 0.960 . S
C437 H424 0.961 . S
C437 H425 0.959 . S
C437 C435 1.561 1_455 S
C438 C435 1.526 1_455 S
C438 C439 1.401 . S
C438 C443 1.390 . S
C439 C433 1.456 1_465 S
C439 C438 1.401 . S
C439 C440 1.403 1_565 S
C440 H426 0.929 . S
C440 C439 1.403 1_545 S
C440 C441 1.385 1_545 S
C441 H427 0.931 . S
C441 C440 1.385 1_565 S
C441 C442 1.389 . S
C442 C441 1.389 . S
C442 C443 1.387 . S
C443 H428 0.930 . S
C443 C438 1.390 . S
C443 C442 1.387 . S
H444 C456 0.930 . S
H445 C458 0.930 . S
H446 C459 0.930 . S
H447 C463 0.959 . S
H448 C463 0.959 . S
H449 C463 0.961 . S
H450 C464 0.960 . S
H451 C464 0.961 . S
H452 C464 0.959 . S
H453 C467 0.929 . S
H454 C468 0.931 . S
H455 C470 0.930 . S
C456 H444 0.930 . S
C456 C457 1.399 . S
C456 C461 1.399 . S
C457 C456 1.399 . S
C457 C458 1.376 . S
C458 H445 0.930 . S
C458 C457 1.376 . S
C458 C459 1.388 . S
C459 H446 0.930 . S
C459 C458 1.388 . S
C459 C460 1.390 . S
C460 C459 1.390 . S
C460 C461 1.394 . S
C460 C466 1.465 . S
C461 C456 1.399 . S
C461 C460 1.394 . S
C461 C462 1.516 . S
C462 C461 1.516 . S
C462 C463 1.502 . S
C462 C464 1.561 . S
C462 C465 1.526 . S
C463 H447 0.959 . S
C463 H448 0.959 . S
C463 H449 0.961 . S
C463 C462 1.502 . S
C464 H450 0.960 . S
C464 H451 0.961 . S
C464 H452 0.959 . S
C464 C462 1.561 . S
C465 C462 1.526 . S
C465 C466 1.396 . S
C465 C470 1.390 . S
C466 C460 1.465 . S
C466 C465 1.396 . S
C466 C467 1.399 . S
C467 H453 0.929 . S
C467 C466 1.399 . S
C467 C468 1.385 . S
C468 H454 0.931 . S
C468 C467 1.385 . S
C468 C469 1.389 . S
C469 C468 1.389 . S
C469 C470 1.387 . S
C470 H455 0.930 . S
C470 C465 1.390 . S
C470 C469 1.387 . S
H471 C483 0.930 . S
H472 C485 0.930 . S
H473 C486 0.930 . S
H474 C490 0.959 . S
H475 C490 0.959 . S
H476 C490 0.961 . S
H477 C491 0.960 . S
H478 C491 0.961 . S
H479 C491 0.959 . S
H480 C494 0.929 . S
H481 C495 0.931 . S
H482 C497 0.930 . S
C483 H471 0.930 . S
C483 C484 1.399 . S
C483 C488 1.399 . S
C484 C483 1.399 . S
C484 C485 1.376 . S
C485 H472 0.930 . S
C485 C484 1.376 . S
C485 C486 1.388 . S
C486 H473 0.930 . S
C486 C485 1.388 . S
C486 C487 1.390 . S
C487 C486 1.390 . S
C487 C488 1.394 . S
C487 C493 1.465 . S
C488 C483 1.399 . S
C488 C487 1.394 . S
C488 C489 1.516 . S
C489 C488 1.516 . S
C489 C490 1.502 . S
C489 C491 1.561 . S
C489 C492 1.526 . S
C490 H474 0.959 . S
C490 H475 0.959 . S
C490 H476 0.961 . S
C490 C489 1.502 . S
C491 H477 0.960 . S
C491 H478 0.961 . S
C491 H479 0.959 . S
C491 C489 1.561 . S
C492 C489 1.526 . S
C492 C493 1.396 . S
C492 C497 1.390 . S
C493 C487 1.465 . S
C493 C492 1.396 . S
C493 C494 1.399 . S
C494 H480 0.929 . S
C494 C493 1.399 . S
C494 C495 1.385 . S
C495 H481 0.931 . S
C495 C494 1.385 . S
C495 C496 1.389 . S
C496 C495 1.389 . S
C496 C497 1.387 . S
C497 H482 0.930 . S
C497 C492 1.390 . S
C497 C496 1.387 . S
H498 C510 0.930 . S
H499 C512 0.930 . S
H500 C513 0.930 . S
H501 C517 0.959 . S
H502 C517 0.959 . S
H503 C517 0.961 . S
H504 C518 0.960 . S
H505 C518 0.961 . S
H506 C518 0.959 . S
H507 C521 0.929 . S
H508 C522 0.931 . S
H509 C524 0.930 . S
C510 H498 0.930 . S
C510 C511 1.399 . S
C510 C515 1.399 . S
C511 C510 1.399 . S
C511 C512 1.376 . S
C512 H499 0.930 . S
C512 C511 1.376 . S
C512 C513 1.388 . S
C513 H500 0.930 . S
C513 C512 1.388 . S
C513 C514 1.390 . S
C514 C513 1.390 . S
C514 C515 1.394 . S
C514 C520 1.465 . S
C515 C510 1.399 . S
C515 C514 1.394 . S
C515 C516 1.516 . S
C516 C515 1.516 . S
C516 C517 1.502 . S
C516 C518 1.561 . S
C516 C519 1.526 . S
C517 H501 0.959 . S
C517 H502 0.959 . S
C517 H503 0.961 . S
C517 C516 1.502 . S
C518 H504 0.960 . S
C518 H505 0.961 . S
C518 H506 0.959 . S
C518 C516 1.561 . S
C519 C516 1.526 . S
C519 C520 1.396 . S
C519 C524 1.390 . S
C520 C514 1.465 . S
C520 C519 1.396 . S
C520 C521 1.399 . S
C521 H507 0.929 . S
C521 C520 1.399 . S
C521 C522 1.385 . S
C522 H508 0.931 . S
C522 C521 1.385 . S
C522 C523 1.389 . S
C523 C522 1.389 . S
C523 C524 1.387 . S
C524 H509 0.930 . S
C524 C519 1.390 . S
C524 C523 1.387 . S
H525 C537 0.930 . S
H526 C539 0.930 . S
H527 C540 0.930 . S
H528 C544 0.959 . S
H529 C544 0.959 . S
H530 C544 0.961 . S
H531 C545 0.960 . S
H532 C545 0.961 . S
H533 C545 0.959 . S
H534 C548 0.929 . S
H535 C549 0.931 . S
H536 C551 0.930 . S
C537 H525 0.930 . S
C537 C538 1.399 . S
C537 C542 1.399 . S
C538 C537 1.399 . S
C538 C539 1.376 . S
C539 H526 0.930 . S
C539 C538 1.376 . S
C539 C540 1.388 . S
C540 H527 0.930 . S
C540 C539 1.388 . S
C540 C541 1.390 . S
C541 C540 1.390 . S
C541 C542 1.394 . S
C541 C547 1.465 . S
C542 C537 1.399 . S
C542 C541 1.394 . S
C542 C543 1.516 . S
C543 C542 1.516 . S
C543 C544 1.502 . S
C543 C545 1.561 . S
C543 C546 1.526 . S
C544 H528 0.959 . S
C544 H529 0.959 . S
C544 H530 0.961 . S
C544 C543 1.502 . S
C545 H531 0.960 . S
C545 H532 0.961 . S
C545 H533 0.959 . S
C545 C543 1.561 . S
C546 C543 1.526 . S
C546 C547 1.396 . S
C546 C551 1.390 . S
C547 C541 1.465 . S
C547 C546 1.396 . S
C547 C548 1.399 . S
C548 H534 0.929 . S
C548 C547 1.399 . S
C548 C549 1.385 . S
C549 H535 0.931 . S
C549 C548 1.385 . S
C549 C550 1.389 . S
C550 C549 1.389 . S
C550 C551 1.387 . S
C551 H536 0.930 . S
C551 C546 1.390 . S
C551 C550 1.387 . S
H552 C564 0.930 . S
H553 C566 0.930 . S
H554 C567 0.930 . S
H555 C571 0.959 . S
H556 C571 0.959 . S
H557 C571 0.961 . S
H558 C572 0.962 . S
H559 C572 0.961 . S
H560 C572 0.959 . S
H561 C575 0.929 . S
H562 C576 0.931 . S
H563 C578 0.930 . S
C564 H552 0.930 . S
C564 C565 1.399 . S
C564 C569 1.399 . S
C565 C564 1.399 . S
C565 C566 1.376 . S
C566 H553 0.930 . S
C566 C565 1.376 . S
C566 C567 1.388 . S
C567 H554 0.930 . S
C567 C566 1.388 . S
C567 C568 1.390 . S
C568 C567 1.390 . S
C568 C569 1.394 . S
C568 C574 1.465 . S
C569 C564 1.399 . S
C569 C568 1.394 . S
C569 C570 1.516 . S
C570 C569 1.516 . S
C570 C571 1.502 . S
C570 C572 1.561 1_655 S
C570 C573 1.526 . S
C571 H555 0.959 . S
C571 H556 0.959 . S
C571 H557 0.961 . S
C571 C570 1.502 . S
C572 H558 0.962 . S
C572 H559 0.961 . S
C572 H560 0.959 . S
C572 C570 1.561 1_455 S
C573 C570 1.526 . S
C573 C574 1.396 . S
C573 C578 1.390 . S
C574 C568 1.465 . S
C574 C573 1.396 . S
C574 C575 1.399 . S
C575 H561 0.929 . S
C575 C574 1.399 . S
C575 C576 1.385 . S
C576 H562 0.931 . S
C576 C575 1.385 . S
C576 C577 1.389 . S
C577 C576 1.389 . S
C577 C578 1.387 . S
C578 H563 0.930 . S
C578 C573 1.390 . S
C578 C577 1.387 . S
H579 C591 0.930 . S
H580 C593 0.930 . S
H581 C594 0.930 . S
H582 C598 0.959 . S
H583 C598 0.959 . S
H584 C598 0.961 . S
H585 C599 0.960 . S
H586 C599 0.961 . S
H587 C599 0.959 1_455 S
H588 C602 0.929 . S
H589 C603 0.931 1_455 S
H590 C605 0.930 . S
C591 H579 0.930 . S
C591 C592 1.399 . S
C591 C596 1.399 . S
C592 C591 1.399 . S
C592 C593 1.376 . S
C593 H580 0.930 . S
C593 C592 1.376 . S
C593 C594 1.388 . S
C594 H581 0.930 . S
C594 C593 1.388 . S
C594 C595 1.390 . S
C595 C594 1.390 . S
C595 C596 1.394 . S
C595 C601 1.465 . S
C596 C591 1.399 . S
C596 C595 1.394 . S
C596 C597 1.516 . S
C597 C596 1.516 . S
C597 C598 1.502 . S
C597 C599 1.561 . S
C597 C600 1.526 . S
C598 H582 0.959 . S
C598 H583 0.959 . S
C598 H584 0.961 . S
C598 C597 1.502 . S
C599 H585 0.960 . S
C599 H586 0.961 . S
C599 H587 0.959 1_655 S
C599 C597 1.561 . S
C600 C597 1.526 . S
C600 C601 1.396 . S
C600 C605 1.390 . S
C601 C595 1.465 . S
C601 C600 1.396 . S
C601 C602 1.399 . S
C602 H588 0.929 . S
C602 C601 1.399 . S
C602 C603 1.385 . S
C603 H589 0.931 1_655 S
C603 C602 1.385 . S
C603 C604 1.389 . S
C604 C603 1.389 . S
C604 C605 1.387 . S
C605 H590 0.930 . S
C605 C600 1.390 . S
C605 C604 1.387 . S
H606 C618 0.930 . S
H607 C620 0.930 . S
H608 C621 0.930 . S
H609 C625 0.959 . S
H610 C625 0.959 1_455 S
H611 C625 0.961 . S
H612 C626 0.960 . S
H613 C626 0.961 . S
H614 C626 0.959 . S
H615 C629 0.929 . S
H616 C630 0.931 . S
H617 C632 0.930 . S
C618 H606 0.930 . S
C618 C619 1.399 . S
C618 C623 1.399 . S
C619 C618 1.399 . S
C619 C620 1.376 . S
C620 H607 0.930 . S
C620 C619 1.376 . S
C620 C621 1.388 . S
C621 H608 0.930 . S
C621 C620 1.388 . S
C621 C622 1.390 . S
C622 C621 1.390 . S
C622 C623 1.394 . S
C622 C628 1.465 . S
C623 C618 1.399 . S
C623 C622 1.394 . S
C623 C624 1.516 . S
C624 C623 1.516 . S
C624 C625 1.502 1_455 S
C624 C626 1.561 . S
C624 C627 1.526 . S
C625 H609 0.959 . S
C625 H610 0.959 1_655 S
C625 H611 0.961 . S
C625 C624 1.502 1_655 S
C626 H612 0.960 . S
C626 H613 0.961 . S
C626 H614 0.959 . S
C626 C624 1.561 . S
C627 C624 1.526 . S
C627 C628 1.396 . S
C627 C632 1.390 . S
C628 C622 1.465 . S
C628 C627 1.396 . S
C628 C629 1.399 . S
C629 H615 0.929 . S
C629 C628 1.399 . S
C629 C630 1.385 . S
C630 H616 0.931 . S
C630 C629 1.385 . S
C630 C631 1.389 . S
C631 C630 1.389 . S
C631 C632 1.387 . S
C632 H617 0.930 . S
C632 C627 1.390 . S
C632 C631 1.387 . S
H633 C645 0.930 . S
H634 C647 0.930 . S
H635 C648 0.930 1_655 S
H636 C652 0.959 . S
H637 C652 0.959 . S
H638 C652 0.961 . S
H639 C653 0.960 . S
H640 C653 0.961 . S
H641 C653 0.959 . S
H642 C656 0.929 . S
H643 C657 0.931 . S
H644 C659 0.930 . S
C645 H633 0.930 . S
C645 C646 1.399 . S
C645 C650 1.399 . S
C646 C645 1.399 . S
C646 C647 1.376 . S
C647 H634 0.930 . S
C647 C646 1.376 . S
C647 C648 1.388 . S
C648 H635 0.930 1_455 S
C648 C647 1.388 . S
C648 C649 1.390 . S
C649 C648 1.390 . S
C649 C650 1.394 . S
C649 C655 1.465 . S
C650 C645 1.399 . S
C650 C649 1.394 . S
C650 C651 1.516 . S
C651 C650 1.516 . S
C651 C652 1.502 . S
C651 C653 1.561 . S
C651 C654 1.526 . S
C652 H636 0.959 . S
C652 H637 0.959 . S
C652 H638 0.961 . S
C652 C651 1.502 . S
C653 H639 0.960 . S
C653 H640 0.961 . S
C653 H641 0.959 . S
C653 C651 1.561 . S
C654 C651 1.526 . S
C654 C655 1.396 . S
C654 C659 1.390 . S
C655 C649 1.465 . S
C655 C654 1.396 . S
C655 C656 1.399 1_455 S
C656 H642 0.929 . S
C656 C655 1.399 1_655 S
C656 C657 1.385 . S
C657 H643 0.931 . S
C657 C656 1.385 . S
C657 C658 1.389 1_655 S
C658 C657 1.389 1_455 S
C658 C659 1.387 . S
C659 H644 0.930 . S
C659 C654 1.390 . S
C659 C658 1.387 . S
C349 C147 1.471 . S
C361 C74 1.533 . S
C376 C242 1.475 . S
C388 C315 1.527 . S
C403 C63 1.461 . S
C415 C158 1.533 . S
C430 C326 1.493 . S
C442 C231 1.491 . S
C457 C310 1.249 . S
C469 C56 1.145 . S
C484 C142 1.267 . S
C496 C224 1.169 . S
C511 C151 1.261 . S
C523 C238 1.168 . S
C538 C319 1.259 . S
C550 C70 1.182 . S
C565 C140 1.183 . S
C577 C226 1.269 . S
C592 C308 1.199 . S
C604 C58 1.267 . S
C619 C322 1.167 . S
C631 C67 1.221 . S
C646 C235 1.230 . S
C658 C154 1.224 . S
