# Generated by pormake.
# Topology smk, (6)-cn, num edge types: 1
# Building blocks:
#     Node 0, Type 0, BuildingBlock: MIDCAF_clean_sbu_0, # of connection points: 6
#     Node 1, Type 0, BuildingBlock: MIDCAF_clean_sbu_0, # of connection points: 6
#     Node 2, Type 0, BuildingBlock: MIDCAF_clean_sbu_0, # of connection points: 6
#     Node 3, Type 0, BuildingBlock: MIDCAF_clean_sbu_0, # of connection points: 6
#     Node 4, Type 0, BuildingBlock: MIDCAF_clean_sbu_0, # of connection points: 6
#     Node 5, Type 0, BuildingBlock: MIDCAF_clean_sbu_0, # of connection points: 6
#     Edge 6, Type (0, 0), BuildingBlock: XIVTED_clean_linker_0, # of connection points: 2
#     Edge 7, Type (0, 0), BuildingBlock: XIVTED_clean_linker_0, # of connection points: 2
#     Edge 8, Type (0, 0), BuildingBlock: XIVTED_clean_linker_0, # of connection points: 2
#     Edge 9, Type (0, 0), BuildingBlock: XIVTED_clean_linker_0, # of connection points: 2
#     Edge 10, Type (0, 0), BuildingBlock: XIVTED_clean_linker_0, # of connection points: 2
#     Edge 11, Type (0, 0), BuildingBlock: XIVTED_clean_linker_0, # of connection points: 2
#     Edge 12, Type (0, 0), BuildingBlock: XIVTED_clean_linker_0, # of connection points: 2
#     Edge 13, Type (0, 0), BuildingBlock: XIVTED_clean_linker_0, # of connection points: 2
#     Edge 14, Type (0, 0), BuildingBlock: XIVTED_clean_linker_0, # of connection points: 2
#     Edge 15, Type (0, 0), BuildingBlock: XIVTED_clean_linker_0, # of connection points: 2
#     Edge 16, Type (0, 0), BuildingBlock: XIVTED_clean_linker_0, # of connection points: 2
#     Edge 17, Type (0, 0), BuildingBlock: XIVTED_clean_linker_0, # of connection points: 2
#     Edge 18, Type (0, 0), BuildingBlock: XIVTED_clean_linker_0, # of connection points: 2
#     Edge 19, Type (0, 0), BuildingBlock: XIVTED_clean_linker_0, # of connection points: 2
#     Edge 20, Type (0, 0), BuildingBlock: XIVTED_clean_linker_0, # of connection points: 2
#     Edge 21, Type (0, 0), BuildingBlock: XIVTED_clean_linker_0, # of connection points: 2
#     Edge 22, Type (0, 0), BuildingBlock: XIVTED_clean_linker_0, # of connection points: 2
#     Edge 23, Type (0, 0), BuildingBlock: XIVTED_clean_linker_0, # of connection points: 2
# Relax obj value: 0.124
# Max RMSD: 0.126
# Mean RMSD: 0.126
data_MOF--net-smk--node1-MIDCAF_clean_sbu_0--edge1-XIVTED_clean_linker_0
_symmetry_space_group_name_H-M    P1
_symmetry_Int_Tables_number       1
_symmetry_cell_setting            triclinic
loop_
_symmetry_equiv_pos_as_xyz
'x, y, z'
_cell_length_a     41.952357
_cell_length_b     42.069355
_cell_length_c     14.801207
_cell_angle_alpha  89.997318
_cell_angle_beta   89.707378
_cell_angle_gamma 120.005
loop_
_atom_site_label
_atom_site_type_symbol
_atom_site_fract_x
_atom_site_fract_y
_atom_site_fract_z
_atom_type_partial_charge
Zn0 Zn 0.43586 0.25252 0.46698 0.0
Zn1 Zn 0.42572 0.16548 0.66961 0.0
Zn2 Zn 0.4273 0.20689 0.56935 0.0
C3 C 0.37385 0.17653 0.73571 0.0
C4 C 0.49316 0.21825 0.69765 0.0
O5 O 0.40277 0.17798 0.44088 0.0
O6 O 0.43473 0.22688 0.35567 0.0
C7 C 0.38063 0.24668 0.57208 0.0
O8 O 0.39433 0.20553 0.68835 0.0
O9 O 0.3757 0.148 0.72077 0.0
O10 O 0.46837 0.19531 0.74947 0.0
O11 O 0.48405 0.22407 0.61883 0.0
O12 O 0.39111 0.25508 0.49135 0.0
O13 O 0.39458 0.23148 0.62111 0.0
O14 O 0.48735 0.24852 0.54821 0.0
O15 O 0.484 0.29563 0.49385 0.0
C16 C 0.50317 0.28233 0.52193 0.0
O17 O 0.39986 0.15056 0.50885 0.0
O18 O 0.43019 0.13058 0.58908 0.0
C19 C 0.41312 0.19281 0.36233 0.0
C20 C 0.40793 0.12539 0.5263 0.0
Zn21 Zn 0.17976 0.43813 0.66339 0.0
Zn22 Zn 0.26175 0.43024 0.85128 0.0
Zn23 Zn 0.21954 0.43087 0.75505 0.0
C24 C 0.19896 0.37912 0.92416 0.0
C25 C 0.27691 0.49837 0.87453 0.0
O26 O 0.22207 0.4065 0.62547 0.0
O27 O 0.20486 0.44018 0.54936 0.0
C28 C 0.13294 0.38278 0.76642 0.0
O29 O 0.18947 0.39843 0.87556 0.0
O30 O 0.23008 0.38221 0.91096 0.0
O31 O 0.27748 0.47477 0.92591 0.0
O32 O 0.25952 0.48789 0.79904 0.0
O33 O 0.13353 0.39193 0.68521 0.0
O34 O 0.16289 0.39821 0.81253 0.0
O35 O 0.23647 0.49029 0.73097 0.0
O36 O 0.18267 0.48482 0.6987 0.0
C37 C 0.21654 0.50506 0.71387 0.0
O38 O 0.24691 0.4026 0.69042 0.0
O39 O 0.29837 0.43078 0.76702 0.0
C40 C 0.21708 0.41824 0.54976 0.0
C41 C 0.27968 0.40854 0.70565 0.0
Zn42 Zn 0.71164 0.14321 0.78416 0.0
Zn43 Zn 0.82375 0.26824 0.05152 0.0
Zn44 Zn 0.78698 0.21837 0.96149 0.0
C45 C 0.81303 0.2091 0.15278 0.0
C46 C 0.76292 0.27404 0.02975 0.0
O47 O 0.8199 0.2176 0.84678 0.0
O48 O 0.76365 0.17654 0.82686 0.0
C49 C 0.74037 0.14258 0.97871 0.0
O50 O 0.78755 0.19313 0.09331 0.0
O51 O 0.83609 0.24279 0.14441 0.0
O52 O 0.78843 0.28398 0.08651 0.0
O53 O 0.75921 0.2511 0.96758 0.0
O54 O 0.73849 0.15622 0.90427 0.0
O55 O 0.76374 0.16534 0.03409 0.0
O56 O 0.73889 0.22266 0.89632 0.0
O57 O 0.69793 0.18275 0.79295 0.0
C58 C 0.71093 0.21178 0.84159 0.0
O59 O 0.84422 0.24678 0.90467 0.0
O60 O 0.86562 0.30007 0.97269 0.0
C61 C 0.79607 0.19281 0.79594 0.0
C62 C 0.87064 0.27983 0.91842 0.0
Zn63 Zn 0.56885 0.71373 0.92504 0.0
Zn64 Zn 0.56383 0.82864 0.19839 0.0
Zn65 Zn 0.5746 0.79062 0.10652 0.0
C66 C 0.61309 0.81682 0.29302 0.0
C67 C 0.49624 0.7695 0.18449 0.0
O68 O 0.60802 0.82276 0.99023 0.0
O69 O 0.58964 0.76611 0.96638 0.0
C70 C 0.60201 0.74244 0.11556 0.0
O71 O 0.60141 0.79056 0.23509 0.0
O72 O 0.6043 0.84128 0.28437 0.0
O73 O 0.5135 0.79433 0.24191 0.0
O74 O 0.51404 0.76517 0.11907 0.0
O75 O 0.58499 0.7411 0.04427 0.0
O76 O 0.6047 0.76614 0.17314 0.0
O77 O 0.5204 0.74335 0.04742 0.0
O78 O 0.51623 0.70149 0.94217 0.0
C79 C 0.50174 0.71531 0.994 0.0
O80 O 0.60294 0.84709 0.04692 0.0
O81 O 0.57076 0.86845 0.11534 0.0
C82 C 0.60736 0.79863 0.93723 0.0
C83 C 0.59495 0.8727 0.05812 0.0
Zn84 Zn 0.82026 0.56244 0.13712 0.0
Zn85 Zn 0.73561 0.57257 0.30594 0.0
Zn86 Zn 0.78044 0.57127 0.222 0.0
C87 C 0.79605 0.6212 0.39242 0.0
C88 C 0.71937 0.50455 0.34002 0.0
O89 O 0.78646 0.60009 0.09067 0.0
O90 O 0.84094 0.60712 0.06164 0.0
C91 C 0.85934 0.58905 0.28308 0.0
O92 O 0.80714 0.60236 0.34709 0.0
O93 O 0.7662 0.61942 0.37024 0.0
O94 O 0.71664 0.5287 0.3839 0.0
O95 O 0.73914 0.51383 0.26717 0.0
O96 O 0.85292 0.5623 0.23283 0.0
O97 O 0.83549 0.59975 0.28713 0.0
O98 O 0.75774 0.511 0.19399 0.0
O99 O 0.7897 0.51621 0.07103 0.0
C100 C 0.76379 0.49627 0.12419 0.0
O101 O 0.75738 0.60096 0.14648 0.0
O102 O 0.70273 0.57248 0.2107 0.0
C103 C 0.81588 0.61405 0.04154 0.0
C104 C 0.724 0.59452 0.15153 0.0
Zn105 Zn 0.25579 0.8198 0.29509 0.0
Zn106 Zn 0.16346 0.73485 0.46588 0.0
Zn107 Zn 0.20801 0.77902 0.38163 0.0
C108 C 0.17194 0.79307 0.55262 0.0
C109 C 0.21651 0.72059 0.49962 0.0
O110 O 0.18381 0.78406 0.25173 0.0
O111 O 0.23015 0.83884 0.22068 0.0
C112 C 0.2678 0.85725 0.44637 0.0
O113 O 0.20235 0.8046 0.50846 0.0
O114 O 0.14419 0.76346 0.52826 0.0
O115 O 0.19029 0.71881 0.54536 0.0
O116 O 0.22566 0.73876 0.42455 0.0
O117 O 0.2881 0.85299 0.39038 0.0
O118 O 0.23346 0.83283 0.45146 0.0
O119 O 0.24721 0.75808 0.35172 0.0
O120 O 0.2732 0.79048 0.22901 0.0
C121 C 0.26835 0.76499 0.28192 0.0
O122 O 0.15431 0.75461 0.30893 0.0
O123 O 0.13214 0.70029 0.3715 0.0
C124 C 0.19827 0.81321 0.20208 0.0
C125 C 0.12882 0.7207 0.31455 0.0
H126 H 0.45013 0.19173 0.21534 0.0
H127 H 0.31722 0.12132 0.83102 0.0
H128 H 0.34042 0.15444 0.31592 0.0
H129 H 0.39989 0.23588 0.84616 0.0
H130 H 0.31782 0.11734 0.99641 0.0
H131 H 0.42778 0.1872 0.06115 0.0
C132 C 0.42095 0.18084 0.20455 0.0
C133 C 0.39701 0.17332 0.2779 0.0
C134 C 0.33459 0.14361 0.9634 0.0
C135 C 0.37174 0.16944 0.10288 0.0
C136 C 0.33405 0.1461 0.8693 0.0
C137 C 0.35931 0.1788 0.82483 0.0
C138 C 0.36073 0.17392 0.01186 0.0
C139 C 0.3804 0.21003 0.87747 0.0
C140 C 0.40844 0.17907 0.11705 0.0
C141 C 0.35952 0.16001 0.26062 0.0
N142 N 0.38179 0.20647 0.96829 0.0
N143 N 0.34791 0.15898 0.17416 0.0
H144 H 0.19245 0.34621 0.50539 0.0
H145 H 0.15655 0.39779 0.0255 0.0
H146 H 0.24257 0.4557 0.39473 0.0
H147 H 0.20252 0.32617 0.02357 0.0
H148 H 0.15709 0.39715 0.19017 0.0
H149 H 0.17429 0.32132 0.35083 0.0
C150 C 0.20092 0.3649 0.44843 0.0
C151 C 0.21903 0.40303 0.46217 0.0
C152 C 0.16558 0.38032 0.15337 0.0
C153 C 0.19641 0.37509 0.28949 0.0
C154 C 0.16479 0.38024 0.05936 0.0
C155 C 0.18076 0.36309 0.0111 0.0
C156 C 0.182 0.36283 0.19834 0.0
C157 C 0.19098 0.34066 0.05896 0.0
C158 C 0.18986 0.35072 0.36115 0.0
C159 C 0.22856 0.42616 0.38675 0.0
N160 N 0.19273 0.34217 0.15064 0.0
N161 N 0.21643 0.41184 0.3039 0.0
H162 H 0.87324 0.22503 0.25165 0.0
H163 H 0.75234 0.13376 0.69164 0.0
H164 H 0.75546 0.15355 0.2471 0.0
H165 H 0.85698 0.23446 0.68929 0.0
H166 H 0.75956 0.12613 0.53089 0.0
H167 H 0.8734 0.21174 0.41193 0.0
C168 C 0.84749 0.20562 0.28395 0.0
C169 C 0.81411 0.19104 0.23695 0.0
C170 C 0.78116 0.14958 0.5659 0.0
C171 C 0.81418 0.17619 0.42018 0.0
C172 C 0.77701 0.15419 0.65749 0.0
C173 C 0.80366 0.18543 0.70325 0.0
C174 C 0.81236 0.17621 0.51987 0.0
C175 C 0.83563 0.21022 0.65637 0.0
C176 C 0.84765 0.19826 0.37546 0.0
C177 C 0.7817 0.16563 0.28132 0.0
N178 N 0.8389 0.20531 0.56668 0.0
N179 N 0.7824 0.15959 0.37145 0.0
H180 H 0.60947 0.75794 0.38286 0.0
H181 H 0.63352 0.86228 0.83814 0.0
H182 H 0.65708 0.87546 0.3974 0.0
H183 H 0.61727 0.75265 0.82672 0.0
H184 H 0.65051 0.87009 0.67759 0.0
H185 H 0.62156 0.75702 0.54427 0.0
C186 C 0.62363 0.78365 0.41925 0.0
C187 C 0.63139 0.81667 0.37761 0.0
C188 C 0.64372 0.84449 0.71065 0.0
C189 C 0.6443 0.81583 0.56192 0.0
C190 C 0.63394 0.84006 0.80216 0.0
C191 C 0.62283 0.80639 0.84488 0.0
C192 C 0.64198 0.8149 0.66188 0.0
C193 C 0.62436 0.77863 0.7956 0.0
C194 C 0.63026 0.78315 0.51161 0.0
C195 C 0.64981 0.84926 0.42778 0.0
N196 N 0.63305 0.78324 0.70641 0.0
N197 N 0.65479 0.84794 0.51781 0.0
H198 H 0.85133 0.61895 0.48799 0.0
H199 H 0.76242 0.61971 0.94572 0.0
H200 H 0.77463 0.65899 0.50314 0.0
H201 H 0.87649 0.64794 0.93316 0.0
H202 H 0.76556 0.63445 0.78409 0.0
H203 H 0.86208 0.6299 0.65079 0.0
C204 C 0.83755 0.63096 0.5247 0.0
C205 C 0.81156 0.6374 0.48185 0.0
C206 C 0.79008 0.63814 0.81759 0.0
C207 C 0.82277 0.64879 0.66807 0.0
C208 C 0.78831 0.6299 0.9099 0.0
C209 C 0.81898 0.63191 0.95289 0.0
C210 C 0.82244 0.64771 0.76817 0.0
C211 C 0.85187 0.64525 0.90263 0.0
C212 C 0.84352 0.63701 0.61772 0.0
C213 C 0.79446 0.65296 0.53336 0.0
N214 N 0.85247 0.65171 0.81264 0.0
N215 N 0.79958 0.65716 0.62402 0.0
H216 H 0.14033 0.75822 0.10668 0.0
H217 H 0.22814 0.84905 0.6495 0.0
H218 H 0.22196 0.87345 0.09472 0.0
H219 H 0.11219 0.76895 0.66392 0.0
H220 H 0.22713 0.85928 0.81249 0.0
H221 H 0.12833 0.76059 0.94512 0.0
C222 C 0.15496 0.78416 0.07103 0.0
C223 C 0.18266 0.81545 0.1141 0.0
C224 C 0.20177 0.84005 0.77924 0.0
C225 C 0.16994 0.81808 0.9295 0.0
C226 C 0.20232 0.83437 0.68611 0.0
C227 C 0.17041 0.8077 0.64289 0.0
C228 C 0.16934 0.81833 0.82938 0.0
C229 C 0.13769 0.78941 0.69434 0.0
C230 C 0.14828 0.78549 0.97875 0.0
C231 C 0.20084 0.84839 0.06407 0.0
N232 N 0.13821 0.79432 0.78511 0.0
N233 N 0.19488 0.84862 0.97412 0.0
H234 H 0.33467 0.0874 0.48163 0.0
H235 H 0.33491 0.89777 0.52087 0.0
H236 H 0.43156 0.07694 0.5 0.0
H237 H 0.23656 0.90076 0.45462 0.0
H238 H 0.36842 0.96439 0.53274 0.0
H239 H 0.2966 0.02003 0.47566 0.0
C240 C 0.34799 0.071 0.48114 0.0
C241 C 0.3863 0.08767 0.49135 0.0
C242 C 0.33937 0.95063 0.5169 0.0
C243 C 0.3431 0.01109 0.48855 0.0
C244 C 0.3201 0.91252 0.51194 0.0
C245 C 0.28299 0.89386 0.48703 0.0
C246 C 0.32155 0.97042 0.49577 0.0
C247 C 0.26512 0.91423 0.475 0.0
C248 C 0.32624 0.03261 0.4795 0.0
C249 C 0.40212 0.06519 0.4923 0.0
N250 N 0.28475 0.95163 0.47801 0.0
N251 N 0.38048 0.02816 0.49213 0.0
H252 H 0.3877 0.2831 0.72975 0.0
H253 H 0.24176 0.34496 0.60578 0.0
H254 H 0.32005 0.24105 0.49267 0.0
H255 H 0.34703 0.4155 0.72991 0.0
H256 H 0.26039 0.29852 0.58282 0.0
H257 H 0.35987 0.32137 0.7603 0.0
C258 C 0.36598 0.28089 0.6863 0.0
C259 C 0.35616 0.25919 0.60858 0.0
C260 C 0.2793 0.32436 0.61455 0.0
C261 C 0.325 0.30308 0.64148 0.0
C262 C 0.26896 0.35103 0.62641 0.0
C263 C 0.29277 0.38415 0.67013 0.0
C264 C 0.31325 0.33074 0.6484 0.0
C265 C 0.32757 0.39032 0.69648 0.0
C266 C 0.35058 0.30311 0.7027 0.0
C267 C 0.32831 0.25766 0.55324 0.0
N268 N 0.33649 0.36371 0.68646 0.0
N269 N 0.31386 0.27964 0.5702 0.0
H270 H 0.89709 0.24143 0.82236 0.0
H271 H 0.10583 0.39166 0.92607 0.0
H272 H 0.93136 0.34642 0.94734 0.0
H273 H 0.07743 0.32054 0.6947 0.0
H274 H 0.04029 0.36259 0.96564 0.0
H275 H 0.96221 0.2605 0.79662 0.0
C276 C 0.91811 0.26862 0.84287 0.0
C277 C 0.90863 0.2924 0.88658 0.0
C278 C 0.04856 0.3528 0.90738 0.0
C279 C 0.98271 0.31338 0.86167 0.0
C280 C 0.08592 0.36891 0.8859 0.0
C281 C 0.09678 0.35837 0.80726 0.0
C282 C 0.02223 0.32589 0.8501 0.0
C283 C 0.06988 0.32935 0.7559 0.0
C284 C 0.95518 0.27922 0.82933 0.0
C285 C 0.93718 0.32708 0.91332 0.0
N286 N 0.03368 0.31427 0.77767 0.0
N287 N 0.97283 0.33632 0.90132 0.0
H288 H 0.571 0.91565 0.98322 0.0
H289 H 0.75749 0.09911 0.08332 0.0
H290 H 0.66968 0.91378 0.05254 0.0
H291 H 0.67517 0.09527 0.90309 0.0
H292 H 0.72386 0.03141 0.08727 0.0
H293 H 0.60767 0.98203 0.96036 0.0
C294 C 0.60062 0.9292 0.99085 0.0
C295 C 0.61752 0.9094 0.01863 0.0
C296 C 0.71333 0.04556 0.04691 0.0
C297 C 0.65933 0.98535 -0.00258 0.0
C298 C 0.73215 0.08402 0.04571 0.0
C299 C 0.71896 0.1026 0.99293 0.0
C300 C 0.68092 0.02594 0.99627 0.0
C301 C 0.68631 0.08194 0.94439 0.0
C302 C 0.62148 0.96706 0.97879 0.0
C303 C 0.65584 0.92817 0.02959 0.0
N304 N 0.66834 0.04477 0.94754 0.0
N305 N 0.67549 0.96536 0.02069 0.0
H306 H 0.76162 0.66915 0.14658 0.0
H307 H 0.57795 0.67547 0.04388 0.0
H308 H 0.65864 0.57464 0.07214 0.0
H309 H 0.6675 0.75929 0.198 0.0
H310 H 0.61122 0.64203 0.03112 0.0
H311 H 0.73265 0.70736 0.13539 0.0
C312 C 0.7334 0.6568 0.12378 0.0
C313 C 0.71244 0.61879 0.10962 0.0
C314 C 0.62363 0.66761 0.06819 0.0
C315 C 0.679 0.66182 0.09967 0.0
C316 C 0.60457 0.68663 0.07598 0.0
C317 C 0.61995 0.72006 0.12255 0.0
C318 C 0.65869 0.68222 0.1064 0.0
C319 C 0.65453 0.73332 0.16262 0.0
C320 C 0.7167 0.67843 0.1194 0.0
C321 C 0.67574 0.6039 0.08285 0.0
N322 N 0.67295 0.71443 0.15315 0.0
N323 N 0.6601 0.62536 0.07956 0.0
H324 H 0.89972 0.66432 0.29428 0.0
H325 H 0.08328 0.65305 0.24827 0.0
H326 H 0.90697 0.56648 0.33156 0.0
H327 H 0.08909 0.75612 0.30704 0.0
H328 H 0.01634 0.62296 0.24948 0.0
H329 H 0.96744 0.70064 0.28694 0.0
C330 C 0.91554 0.65068 0.30437 0.0
C331 C 0.89774 0.61229 0.31315 0.0
C332 C 0.03214 0.65229 0.2607 0.0
C333 C 0.97457 0.65318 0.30046 0.0
C334 C 0.07037 0.66959 0.258 0.0
C335 C 0.09168 0.70706 0.27759 0.0
C336 C 0.01492 0.67252 0.2836 0.0
C337 C 0.07355 0.72719 0.29081 0.0
C338 C 0.95409 0.67131 0.29843 0.0
C339 C 0.91954 0.59596 0.32426 0.0
N340 N 0.03604 0.70954 0.29512 0.0
N341 N 0.95666 0.61635 0.31606 0.0
H342 H 0.54565 0.28051 0.38688 0.0
H343 H 0.70918 0.4804 0.51297 0.0
H344 H 0.55013 0.33729 0.63263 0.0
H345 H 0.67855 0.44238 0.23971 0.0
H346 H 0.66372 0.41942 0.56871 0.0
H347 H 0.60732 0.33069 0.34592 0.0
C348 C 0.56039 0.30288 0.43387 0.0
C349 C 0.54325 0.30493 0.51339 0.0
C350 C 0.6676 0.42414 0.49652 0.0
C351 C 0.61292 0.36237 0.46655 0.0
C352 C 0.69353 0.45884 0.46467 0.0
C353 C 0.69782 0.4662 0.37158 0.0
C354 C 0.6456 0.39663 0.43485 0.0
C355 C 0.67667 0.43751 0.31184 0.0
C356 C 0.59526 0.33161 0.41007 0.0
C357 C 0.56278 0.33475 0.57116 0.0
N358 N 0.65117 0.40397 0.34452 0.0
N359 N 0.59654 0.36256 0.54623 0.0
H360 H 0.27096 0.54845 0.59587 0.0
H361 H 0.23961 0.68063 0.39999 0.0
H362 H 0.19695 0.55054 0.7954 0.0
H363 H 0.22912 0.7101 0.6729 0.0
H364 H 0.25412 0.63494 0.45964 0.0
H365 H 0.28486 0.60959 0.54312 0.0
C366 C 0.25864 0.56241 0.6304 0.0
C367 C 0.23289 0.54477 0.70005 0.0
C368 C 0.25006 0.65238 0.50648 0.0
C369 C 0.24774 0.61364 0.63916 0.0
C370 C 0.24192 0.67855 0.47231 0.0
C371 C 0.23356 0.69935 0.53163 0.0
C372 C 0.24895 0.64663 0.60043 0.0
C373 C 0.23539 0.69453 0.62491 0.0
C374 C 0.26612 0.59692 0.59947 0.0
C375 C 0.21704 0.56344 0.74169 0.0
N376 N 0.24211 0.66818 0.65638 0.0
N377 N 0.22462 0.59685 0.71037 0.0
H378 H 0.70735 0.24711 0.693 0.0
H379 H 0.51955 0.2266 0.86898 0.0
H380 H 0.66873 0.22098 0.96783 0.0
H381 H 0.55521 0.24651 0.59056 0.0
H382 H 0.58124 0.24099 0.91348 0.0
H383 H 0.66047 0.26407 0.66305 0.0
C384 C 0.68974 0.24627 0.74789 0.0
C385 C 0.69184 0.23288 0.83302 0.0
C386 C 0.57587 0.24294 0.84281 0.0
C387 C 0.63722 0.2507 0.79862 0.0
C388 C 0.54061 0.23471 0.81727 0.0
C389 C 0.53206 0.23477 0.72568 0.0
C390 C 0.60276 0.25082 0.77621 0.0
C391 C 0.56053 0.246 0.66184 0.0
C392 C 0.6628 0.25564 0.73066 0.0
C393 C 0.66809 0.23154 0.90155 0.0
N394 N 0.59445 0.25288 0.68814 0.0
N395 N 0.6413 0.23973 0.88247 0.0
H396 H 0.45323 0.67765 0.12974 0.0
H397 H 0.30605 0.55839 0.76227 0.0
H398 H 0.45956 0.70872 0.85021 0.0
H399 H 0.29929 0.52738 0.04238 0.0
H400 H 0.35269 0.62107 0.80155 0.0
H401 H 0.3883 0.63134 0.10891 0.0
C402 C 0.44045 0.67558 0.06494 0.0
C403 C 0.46142 0.69685 0.99156 0.0
C404 C 0.34043 0.60078 0.85487 0.0
C405 C 0.38804 0.64315 0.96579 0.0
C406 C 0.31351 0.56503 0.8324 0.0
C407 C 0.29908 0.53758 0.89888 0.0
C408 C 0.3533 0.60891 0.94426 0.0
C409 C 0.31024 0.5476 0.98866 0.0
C410 C 0.40353 0.64896 0.05263 0.0
C411 C 0.44403 0.69274 0.90834 0.0
N412 N 0.33713 0.58227 0.00848 0.0
N413 N 0.4085 0.66593 0.89721 0.0
H414 H 0.74275 0.44229 0.25119 0.0
H415 H 0.74842 0.30826 0.89203 0.0
H416 H 0.74416 0.45995 0.96416 0.0
H417 H 0.73083 0.28428 0.17681 0.0
H418 H 0.7318 0.35601 0.91208 0.0
H419 H 0.72383 0.37802 0.22325 0.0
C420 C 0.73761 0.43221 0.18245 0.0
C421 C 0.74452 0.45623 0.11003 0.0
C422 C 0.73045 0.33957 0.96983 0.0
C423 C 0.72495 0.38328 0.07672 0.0
C424 C 0.73951 0.31202 0.958 0.0
C425 C 0.74107 0.29256 0.03299 0.0
C426 C 0.72373 0.348 0.05751 0.0
C427 C 0.73012 0.29897 0.11746 0.0
C428 C 0.72726 0.3956 0.16621 0.0
C429 C 0.73906 0.44219 0.02189 0.0
N430 N 0.72264 0.32662 0.12783 0.0
N431 N 0.73021 0.4068 0.0076 0.0
H432 H 0.44671 0.75555 0.04914 0.0
H433 H 0.3024 0.74535 0.40912 0.0
H434 H 0.45438 0.74117 0.33482 0.0
H435 H 0.28813 0.74808 0.12173 0.0
H436 H 0.35081 0.73022 0.38148 0.0
H437 H 0.38226 0.73914 0.07039 0.0
C438 C 0.43437 0.74756 0.11573 0.0
C439 C 0.45572 0.74957 0.19031 0.0
C440 C 0.33649 0.73316 0.32429 0.0
C441 C 0.38271 0.73244 0.21613 0.0
C442 C 0.30846 0.7413 0.34029 0.0
C443 C 0.29098 0.74752 0.26771 0.0
C444 C 0.3477 0.73217 0.23496 0.0
C445 C 0.301 0.74348 0.17961 0.0
C446 C 0.3977 0.73859 0.12819 0.0
C447 C 0.43874 0.73995 0.27563 0.0
N448 N 0.32905 0.73663 0.16566 0.0
N449 N 0.40348 0.73241 0.28648 0.0
loop_
_geom_bond_atom_site_label_1
_geom_bond_atom_site_label_2
_geom_bond_distance
_geom_bond_site_symmetry_2
_ccdc_geom_bond_type
Zn0 O6 1.920 . S
Zn0 O12 1.898 . S
Zn0 O15 1.905 . S
Zn1 O9 1.905 . S
Zn1 O10 1.898 . S
Zn1 O18 1.920 . S
Zn2 O5 2.080 . S
Zn2 O8 2.114 . S
Zn2 O11 2.120 . S
Zn2 O13 2.120 . S
Zn2 O14 2.114 . S
Zn2 O17 2.080 . S
C3 O8 1.166 . S
C3 O9 1.182 . S
C4 O10 1.167 . S
C4 O11 1.299 . S
O5 Zn2 2.080 . S
O5 C19 1.305 . S
O6 Zn0 1.920 . S
O6 C19 1.234 . S
C7 O12 1.167 . S
C7 O13 1.299 . S
O8 Zn2 2.114 . S
O8 C3 1.166 . S
O9 Zn1 1.905 . S
O9 C3 1.182 . S
O10 Zn1 1.898 . S
O10 C4 1.167 . S
O11 Zn2 2.120 . S
O11 C4 1.299 . S
O12 Zn0 1.898 . S
O12 C7 1.167 . S
O13 Zn2 2.120 . S
O13 C7 1.299 . S
O14 Zn2 2.114 . S
O14 C16 1.166 . S
O15 Zn0 1.905 . S
O15 C16 1.182 . S
C16 O14 1.166 . S
C16 O15 1.182 . S
O17 Zn2 2.080 . S
O17 C20 1.305 . S
O18 Zn1 1.920 . S
O18 C20 1.234 . S
C19 O5 1.305 . S
C19 O6 1.234 . S
C20 O17 1.305 . S
C20 O18 1.234 . S
Zn21 O27 1.920 . S
Zn21 O33 1.898 . S
Zn21 O36 1.905 . S
Zn22 O30 1.905 . S
Zn22 O31 1.898 . S
Zn22 O39 1.920 . S
Zn23 O26 2.080 . S
Zn23 O29 2.114 . S
Zn23 O32 2.120 . S
Zn23 O34 2.120 . S
Zn23 O35 2.114 . S
Zn23 O38 2.080 . S
C24 O29 1.166 . S
C24 O30 1.182 . S
C25 O31 1.167 . S
C25 O32 1.299 . S
O26 Zn23 2.080 . S
O26 C40 1.305 . S
O27 Zn21 1.920 . S
O27 C40 1.234 . S
C28 O33 1.167 . S
C28 O34 1.299 . S
O29 Zn23 2.114 . S
O29 C24 1.166 . S
O30 Zn22 1.905 . S
O30 C24 1.182 . S
O31 Zn22 1.898 . S
O31 C25 1.167 . S
O32 Zn23 2.120 . S
O32 C25 1.299 . S
O33 Zn21 1.898 . S
O33 C28 1.167 . S
O34 Zn23 2.120 . S
O34 C28 1.299 . S
O35 Zn23 2.114 . S
O35 C37 1.166 . S
O36 Zn21 1.905 . S
O36 C37 1.182 . S
C37 O35 1.166 . S
C37 O36 1.182 . S
O38 Zn23 2.080 . S
O38 C41 1.305 . S
O39 Zn22 1.920 . S
O39 C41 1.234 . S
C40 O26 1.305 . S
C40 O27 1.234 . S
C41 O38 1.305 . S
C41 O39 1.234 . S
Zn42 O48 1.920 . S
Zn42 O54 1.898 . S
Zn42 O57 1.905 . S
Zn43 O51 1.905 . S
Zn43 O52 1.898 . S
Zn43 O60 1.920 1_554 S
Zn44 O47 2.080 . S
Zn44 O50 2.114 1_556 S
Zn44 O53 2.120 . S
Zn44 O55 2.120 . S
Zn44 O56 2.114 . S
Zn44 O59 2.080 . S
C45 O50 1.166 . S
C45 O51 1.182 . S
C46 O52 1.167 1_556 S
C46 O53 1.299 . S
O47 Zn44 2.080 . S
O47 C61 1.305 . S
O48 Zn42 1.920 . S
O48 C61 1.234 . S
C49 O54 1.167 . S
C49 O55 1.299 . S
O50 Zn44 2.114 1_554 S
O50 C45 1.166 . S
O51 Zn43 1.905 . S
O51 C45 1.182 . S
O52 Zn43 1.898 . S
O52 C46 1.167 1_554 S
O53 Zn44 2.120 . S
O53 C46 1.299 . S
O54 Zn42 1.898 . S
O54 C49 1.167 . S
O55 Zn44 2.120 . S
O55 C49 1.299 . S
O56 Zn44 2.114 . S
O56 C58 1.166 . S
O57 Zn42 1.905 . S
O57 C58 1.182 . S
C58 O56 1.166 . S
C58 O57 1.182 . S
O59 Zn44 2.080 . S
O59 C62 1.305 . S
O60 Zn43 1.920 1_556 S
O60 C62 1.234 . S
C61 O47 1.305 . S
C61 O48 1.234 . S
C62 O59 1.305 . S
C62 O60 1.234 . S
Zn63 O69 1.920 . S
Zn63 O75 1.898 1_556 S
Zn63 O78 1.905 . S
Zn64 O72 1.905 . S
Zn64 O73 1.898 . S
Zn64 O81 1.920 . S
Zn65 O68 2.080 1_554 S
Zn65 O71 2.114 . S
Zn65 O74 2.120 . S
Zn65 O76 2.120 . S
Zn65 O77 2.114 . S
Zn65 O80 2.080 . S
C66 O71 1.166 . S
C66 O72 1.182 . S
C67 O73 1.167 . S
C67 O74 1.299 . S
O68 Zn65 2.080 1_556 S
O68 C82 1.305 . S
O69 Zn63 1.920 . S
O69 C82 1.234 . S
C70 O75 1.167 . S
C70 O76 1.299 . S
O71 Zn65 2.114 . S
O71 C66 1.166 . S
O72 Zn64 1.905 . S
O72 C66 1.182 . S
O73 Zn64 1.898 . S
O73 C67 1.167 . S
O74 Zn65 2.120 . S
O74 C67 1.299 . S
O75 Zn63 1.898 1_554 S
O75 C70 1.167 . S
O76 Zn65 2.120 . S
O76 C70 1.299 . S
O77 Zn65 2.114 . S
O77 C79 1.166 . S
O78 Zn63 1.905 . S
O78 C79 1.182 1_556 S
C79 O77 1.166 . S
C79 O78 1.182 1_554 S
O80 Zn65 2.080 . S
O80 C83 1.305 . S
O81 Zn64 1.920 . S
O81 C83 1.234 . S
C82 O68 1.305 . S
C82 O69 1.234 . S
C83 O80 1.305 . S
C83 O81 1.234 . S
Zn84 O90 1.920 . S
Zn84 O96 1.898 . S
Zn84 O99 1.905 . S
Zn85 O93 1.905 . S
Zn85 O94 1.898 . S
Zn85 O102 1.920 . S
Zn86 O89 2.080 . S
Zn86 O92 2.114 . S
Zn86 O95 2.120 . S
Zn86 O97 2.120 . S
Zn86 O98 2.114 . S
Zn86 O101 2.080 . S
C87 O92 1.166 . S
C87 O93 1.182 . S
C88 O94 1.167 . S
C88 O95 1.299 . S
O89 Zn86 2.080 . S
O89 C103 1.305 . S
O90 Zn84 1.920 . S
O90 C103 1.234 . S
C91 O96 1.167 . S
C91 O97 1.299 . S
O92 Zn86 2.114 . S
O92 C87 1.166 . S
O93 Zn85 1.905 . S
O93 C87 1.182 . S
O94 Zn85 1.898 . S
O94 C88 1.167 . S
O95 Zn86 2.120 . S
O95 C88 1.299 . S
O96 Zn84 1.898 . S
O96 C91 1.167 . S
O97 Zn86 2.120 . S
O97 C91 1.299 . S
O98 Zn86 2.114 . S
O98 C100 1.166 . S
O99 Zn84 1.905 . S
O99 C100 1.182 . S
C100 O98 1.166 . S
C100 O99 1.182 . S
O101 Zn86 2.080 . S
O101 C104 1.305 . S
O102 Zn85 1.920 . S
O102 C104 1.234 . S
C103 O89 1.305 . S
C103 O90 1.234 . S
C104 O101 1.305 . S
C104 O102 1.234 . S
Zn105 O111 1.920 . S
Zn105 O117 1.898 . S
Zn105 O120 1.905 . S
Zn106 O114 1.905 . S
Zn106 O115 1.898 . S
Zn106 O123 1.920 . S
Zn107 O110 2.080 . S
Zn107 O113 2.114 . S
Zn107 O116 2.120 . S
Zn107 O118 2.120 . S
Zn107 O119 2.114 . S
Zn107 O122 2.080 . S
C108 O113 1.166 . S
C108 O114 1.182 . S
C109 O115 1.167 . S
C109 O116 1.299 . S
O110 Zn107 2.080 . S
O110 C124 1.305 . S
O111 Zn105 1.920 . S
O111 C124 1.234 . S
C112 O117 1.167 . S
C112 O118 1.299 . S
O113 Zn107 2.114 . S
O113 C108 1.166 . S
O114 Zn106 1.905 . S
O114 C108 1.182 . S
O115 Zn106 1.898 . S
O115 C109 1.167 . S
O116 Zn107 2.120 . S
O116 C109 1.299 . S
O117 Zn105 1.898 . S
O117 C112 1.167 . S
O118 Zn107 2.120 . S
O118 C112 1.299 . S
O119 Zn107 2.114 . S
O119 C121 1.166 . S
O120 Zn105 1.905 . S
O120 C121 1.182 . S
C121 O119 1.166 . S
C121 O120 1.182 . S
O122 Zn107 2.080 . S
O122 C125 1.305 . S
O123 Zn106 1.920 . S
O123 C125 1.234 . S
C124 O110 1.305 . S
C124 O111 1.234 . S
C125 O122 1.305 . S
C125 O123 1.234 . S
H126 C132 0.930 . S
H127 C136 0.930 . S
H128 C141 0.929 . S
H129 C139 0.929 . S
H130 C134 0.929 1_554 S
H131 C140 0.929 . S
C132 H126 0.930 . S
C132 C133 1.367 . S
C132 C140 1.378 . S
C133 C132 1.367 . S
C133 C141 1.433 . S
C134 H130 0.929 1_556 S
C134 C136 1.378 . S
C134 C138 1.350 1_556 S
C135 C138 1.463 . S
C135 C140 1.350 . S
C135 N143 1.427 . S
C136 H127 0.930 . S
C136 C134 1.378 . S
C136 C137 1.367 . S
C137 C136 1.367 . S
C137 C139 1.433 . S
C138 C134 1.350 1_554 S
C138 C135 1.463 . S
C138 N142 1.427 1_554 S
C139 H129 0.929 . S
C139 C137 1.433 . S
C139 N142 1.384 . S
C140 H131 0.929 . S
C140 C132 1.378 . S
C140 C135 1.350 . S
C141 H128 0.929 . S
C141 C133 1.433 . S
C141 N143 1.384 . S
N142 C138 1.427 1_556 S
N142 C139 1.384 . S
N143 C135 1.427 . S
N143 C141 1.384 . S
H144 C150 0.930 . S
H145 C154 0.930 . S
H146 C159 0.929 . S
H147 C157 0.929 . S
H148 C152 0.929 . S
H149 C158 0.929 . S
C150 H144 0.930 . S
C150 C151 1.367 . S
C150 C158 1.378 . S
C151 C150 1.367 . S
C151 C159 1.433 . S
C152 H148 0.929 . S
C152 C154 1.378 . S
C152 C156 1.350 . S
C153 C156 1.463 . S
C153 C158 1.350 . S
C153 N161 1.427 . S
C154 H145 0.930 . S
C154 C152 1.378 . S
C154 C155 1.367 . S
C155 C154 1.367 . S
C155 C157 1.433 . S
C156 C152 1.350 . S
C156 C153 1.463 . S
C156 N160 1.427 . S
C157 H147 0.929 . S
C157 C155 1.433 . S
C157 N160 1.384 . S
C158 H149 0.929 . S
C158 C150 1.378 . S
C158 C153 1.350 . S
C159 H146 0.929 . S
C159 C151 1.433 . S
C159 N161 1.384 . S
N160 C156 1.427 . S
N160 C157 1.384 . S
N161 C153 1.427 . S
N161 C159 1.384 . S
H162 C168 0.930 . S
H163 C172 0.930 . S
H164 C177 0.929 . S
H165 C175 0.929 . S
H166 C170 0.929 . S
H167 C176 0.929 . S
C168 H162 0.930 . S
C168 C169 1.367 . S
C168 C176 1.378 . S
C169 C168 1.367 . S
C169 C177 1.433 . S
C170 H166 0.929 . S
C170 C172 1.378 . S
C170 C174 1.350 . S
C171 C174 1.463 . S
C171 C176 1.350 . S
C171 N179 1.427 . S
C172 H163 0.930 . S
C172 C170 1.378 . S
C172 C173 1.367 . S
C173 C172 1.367 . S
C173 C175 1.433 . S
C174 C170 1.350 . S
C174 C171 1.463 . S
C174 N178 1.427 . S
C175 H165 0.929 . S
C175 C173 1.433 . S
C175 N178 1.384 . S
C176 H167 0.929 . S
C176 C168 1.378 . S
C176 C171 1.350 . S
C177 H164 0.929 . S
C177 C169 1.433 . S
C177 N179 1.384 . S
N178 C174 1.427 . S
N178 C175 1.384 . S
N179 C171 1.427 . S
N179 C177 1.384 . S
H180 C186 0.930 . S
H181 C190 0.930 . S
H182 C195 0.929 . S
H183 C193 0.929 . S
H184 C188 0.929 . S
H185 C194 0.929 . S
C186 H180 0.930 . S
C186 C187 1.367 . S
C186 C194 1.378 . S
C187 C186 1.367 . S
C187 C195 1.433 . S
C188 H184 0.929 . S
C188 C190 1.378 . S
C188 C192 1.350 . S
C189 C192 1.463 . S
C189 C194 1.350 . S
C189 N197 1.427 . S
C190 H181 0.930 . S
C190 C188 1.378 . S
C190 C191 1.367 . S
C191 C190 1.367 . S
C191 C193 1.433 . S
C192 C188 1.350 . S
C192 C189 1.463 . S
C192 N196 1.427 . S
C193 H183 0.929 . S
C193 C191 1.433 . S
C193 N196 1.384 . S
C194 H185 0.929 . S
C194 C186 1.378 . S
C194 C189 1.350 . S
C195 H182 0.929 . S
C195 C187 1.433 . S
C195 N197 1.384 . S
N196 C192 1.427 . S
N196 C193 1.384 . S
N197 C189 1.427 . S
N197 C195 1.384 . S
H198 C204 0.930 . S
H199 C208 0.930 . S
H200 C213 0.929 . S
H201 C211 0.929 . S
H202 C206 0.929 . S
H203 C212 0.929 . S
C204 H198 0.930 . S
C204 C205 1.367 . S
C204 C212 1.378 . S
C205 C204 1.367 . S
C205 C213 1.433 . S
C206 H202 0.929 . S
C206 C208 1.378 . S
C206 C210 1.350 . S
C207 C210 1.463 . S
C207 C212 1.350 . S
C207 N215 1.427 . S
C208 H199 0.930 . S
C208 C206 1.378 . S
C208 C209 1.367 . S
C209 C208 1.367 . S
C209 C211 1.433 . S
C210 C206 1.350 . S
C210 C207 1.463 . S
C210 N214 1.427 . S
C211 H201 0.929 . S
C211 C209 1.433 . S
C211 N214 1.384 . S
C212 H203 0.929 . S
C212 C204 1.378 . S
C212 C207 1.350 . S
C213 H200 0.929 . S
C213 C205 1.433 . S
C213 N215 1.384 . S
N214 C210 1.427 . S
N214 C211 1.384 . S
N215 C207 1.427 . S
N215 C213 1.384 . S
H216 C222 0.930 . S
H217 C226 0.930 . S
H218 C231 0.929 . S
H219 C229 0.929 . S
H220 C224 0.929 . S
H221 C230 0.929 1_556 S
C222 H216 0.930 . S
C222 C223 1.367 . S
C222 C230 1.378 . S
C223 C222 1.367 . S
C223 C231 1.433 . S
C224 H220 0.929 . S
C224 C226 1.378 . S
C224 C228 1.350 . S
C225 C228 1.463 . S
C225 C230 1.350 1_556 S
C225 N233 1.427 1_556 S
C226 H217 0.930 . S
C226 C224 1.378 . S
C226 C227 1.367 . S
C227 C226 1.367 . S
C227 C229 1.433 . S
C228 C224 1.350 . S
C228 C225 1.463 . S
C228 N232 1.427 . S
C229 H219 0.929 . S
C229 C227 1.433 . S
C229 N232 1.384 . S
C230 H221 0.929 1_554 S
C230 C222 1.378 . S
C230 C225 1.350 1_554 S
C231 H218 0.929 . S
C231 C223 1.433 . S
C231 N233 1.384 . S
N232 C228 1.427 . S
N232 C229 1.384 . S
N233 C225 1.427 1_554 S
N233 C231 1.384 . S
H234 C240 0.930 . S
H235 C244 0.930 . S
H236 C249 0.929 . S
H237 C247 0.929 . S
H238 C242 0.929 . S
H239 C248 0.929 . S
C240 H234 0.930 . S
C240 C241 1.367 . S
C240 C248 1.378 . S
C241 C240 1.367 . S
C241 C249 1.433 . S
C242 H238 0.929 . S
C242 C244 1.378 . S
C242 C246 1.350 . S
C243 C246 1.463 1_545 S
C243 C248 1.350 . S
C243 N251 1.427 . S
C244 H235 0.930 . S
C244 C242 1.378 . S
C244 C245 1.367 . S
C245 C244 1.367 . S
C245 C247 1.433 . S
C246 C242 1.350 . S
C246 C243 1.463 1_565 S
C246 N250 1.427 . S
C247 H237 0.929 . S
C247 C245 1.433 . S
C247 N250 1.384 . S
C248 H239 0.929 . S
C248 C240 1.378 . S
C248 C243 1.350 . S
C249 H236 0.929 . S
C249 C241 1.433 . S
C249 N251 1.384 . S
N250 C246 1.427 . S
N250 C247 1.384 . S
N251 C243 1.427 . S
N251 C249 1.384 . S
H252 C258 0.930 . S
H253 C262 0.930 . S
H254 C267 0.929 . S
H255 C265 0.929 . S
H256 C260 0.929 . S
H257 C266 0.929 . S
C258 H252 0.930 . S
C258 C259 1.367 . S
C258 C266 1.378 . S
C259 C258 1.367 . S
C259 C267 1.433 . S
C260 H256 0.929 . S
C260 C262 1.378 . S
C260 C264 1.350 . S
C261 C264 1.463 . S
C261 C266 1.350 . S
C261 N269 1.427 . S
C262 H253 0.930 . S
C262 C260 1.378 . S
C262 C263 1.367 . S
C263 C262 1.367 . S
C263 C265 1.433 . S
C264 C260 1.350 . S
C264 C261 1.463 . S
C264 N268 1.427 . S
C265 H255 0.929 . S
C265 C263 1.433 . S
C265 N268 1.384 . S
C266 H257 0.929 . S
C266 C258 1.378 . S
C266 C261 1.350 . S
C267 H254 0.929 . S
C267 C259 1.433 . S
C267 N269 1.384 . S
N268 C264 1.427 . S
N268 C265 1.384 . S
N269 C261 1.427 . S
N269 C267 1.384 . S
H270 C276 0.930 . S
H271 C280 0.930 . S
H272 C285 0.929 . S
H273 C283 0.929 . S
H274 C278 0.929 . S
H275 C284 0.929 . S
C276 H270 0.930 . S
C276 C277 1.367 . S
C276 C284 1.378 . S
C277 C276 1.367 . S
C277 C285 1.433 . S
C278 H274 0.929 . S
C278 C280 1.378 . S
C278 C282 1.350 . S
C279 C282 1.463 1_655 S
C279 C284 1.350 . S
C279 N287 1.427 . S
C280 H271 0.930 . S
C280 C278 1.378 . S
C280 C281 1.367 . S
C281 C280 1.367 . S
C281 C283 1.433 . S
C282 C278 1.350 . S
C282 C279 1.463 1_455 S
C282 N286 1.427 . S
C283 H273 0.929 . S
C283 C281 1.433 . S
C283 N286 1.384 . S
C284 H275 0.929 . S
C284 C276 1.378 . S
C284 C279 1.350 . S
C285 H272 0.929 . S
C285 C277 1.433 . S
C285 N287 1.384 . S
N286 C282 1.427 . S
N286 C283 1.384 . S
N287 C279 1.427 . S
N287 C285 1.384 . S
H288 C294 0.930 . S
H289 C298 0.930 . S
H290 C303 0.929 . S
H291 C301 0.929 . S
H292 C296 0.929 . S
H293 C302 0.929 . S
C294 H288 0.930 . S
C294 C295 1.367 1_556 S
C294 C302 1.378 . S
C295 C294 1.367 1_554 S
C295 C303 1.433 . S
C296 H292 0.929 . S
C296 C298 1.378 . S
C296 C300 1.350 1_554 S
C297 C300 1.463 1_564 S
C297 C302 1.350 1_554 S
C297 N305 1.427 . S
C298 H289 0.930 . S
C298 C296 1.378 . S
C298 C299 1.367 1_554 S
C299 C298 1.367 1_556 S
C299 C301 1.433 . S
C300 C296 1.350 1_556 S
C300 C297 1.463 1_546 S
C300 N304 1.427 . S
C301 H291 0.929 . S
C301 C299 1.433 . S
C301 N304 1.384 . S
C302 H293 0.929 . S
C302 C294 1.378 . S
C302 C297 1.350 1_556 S
C303 H290 0.929 . S
C303 C295 1.433 . S
C303 N305 1.384 . S
N304 C300 1.427 . S
N304 C301 1.384 . S
N305 C297 1.427 . S
N305 C303 1.384 . S
H306 C312 0.930 . S
H307 C316 0.930 . S
H308 C321 0.929 . S
H309 C319 0.929 . S
H310 C314 0.929 . S
H311 C320 0.929 . S
C312 H306 0.930 . S
C312 C313 1.367 . S
C312 C320 1.378 . S
C313 C312 1.367 . S
C313 C321 1.433 . S
C314 H310 0.929 . S
C314 C316 1.378 . S
C314 C318 1.350 . S
C315 C318 1.463 . S
C315 C320 1.350 . S
C315 N323 1.427 . S
C316 H307 0.930 . S
C316 C314 1.378 . S
C316 C317 1.367 . S
C317 C316 1.367 . S
C317 C319 1.433 . S
C318 C314 1.350 . S
C318 C315 1.463 . S
C318 N322 1.427 . S
C319 H309 0.929 . S
C319 C317 1.433 . S
C319 N322 1.384 . S
C320 H311 0.929 . S
C320 C312 1.378 . S
C320 C315 1.350 . S
C321 H308 0.929 . S
C321 C313 1.433 . S
C321 N323 1.384 . S
N322 C318 1.427 . S
N322 C319 1.384 . S
N323 C315 1.427 . S
N323 C321 1.384 . S
H324 C330 0.930 . S
H325 C334 0.930 . S
H326 C339 0.929 . S
H327 C337 0.929 . S
H328 C332 0.929 . S
H329 C338 0.929 . S
C330 H324 0.930 . S
C330 C331 1.367 . S
C330 C338 1.378 . S
C331 C330 1.367 . S
C331 C339 1.433 . S
C332 H328 0.929 . S
C332 C334 1.378 . S
C332 C336 1.350 . S
C333 C336 1.463 1_655 S
C333 C338 1.350 . S
C333 N341 1.427 . S
C334 H325 0.930 . S
C334 C332 1.378 . S
C334 C335 1.367 . S
C335 C334 1.367 . S
C335 C337 1.433 . S
C336 C332 1.350 . S
C336 C333 1.463 1_455 S
C336 N340 1.427 . S
C337 H327 0.929 . S
C337 C335 1.433 . S
C337 N340 1.384 . S
C338 H329 0.929 . S
C338 C330 1.378 . S
C338 C333 1.350 . S
C339 H326 0.929 . S
C339 C331 1.433 . S
C339 N341 1.384 . S
N340 C336 1.427 . S
N340 C337 1.384 . S
N341 C333 1.427 . S
N341 C339 1.384 . S
H342 C348 0.930 . S
H343 C352 0.930 . S
H344 C357 0.929 . S
H345 C355 0.929 . S
H346 C350 0.929 . S
H347 C356 0.929 . S
C348 H342 0.930 . S
C348 C349 1.367 . S
C348 C356 1.378 . S
C349 C348 1.367 . S
C349 C357 1.433 . S
C350 H346 0.929 . S
C350 C352 1.378 . S
C350 C354 1.350 . S
C351 C354 1.463 . S
C351 C356 1.350 . S
C351 N359 1.427 . S
C352 H343 0.930 . S
C352 C350 1.378 . S
C352 C353 1.367 . S
C353 C352 1.367 . S
C353 C355 1.433 . S
C354 C350 1.350 . S
C354 C351 1.463 . S
C354 N358 1.427 . S
C355 H345 0.929 . S
C355 C353 1.433 . S
C355 N358 1.384 . S
C356 H347 0.929 . S
C356 C348 1.378 . S
C356 C351 1.350 . S
C357 H344 0.929 . S
C357 C349 1.433 . S
C357 N359 1.384 . S
N358 C354 1.427 . S
N358 C355 1.384 . S
N359 C351 1.427 . S
N359 C357 1.384 . S
H360 C366 0.930 . S
H361 C370 0.930 . S
H362 C375 0.929 . S
H363 C373 0.929 . S
H364 C368 0.929 . S
H365 C374 0.929 . S
C366 H360 0.930 . S
C366 C367 1.367 . S
C366 C374 1.378 . S
C367 C366 1.367 . S
C367 C375 1.433 . S
C368 H364 0.929 . S
C368 C370 1.378 . S
C368 C372 1.350 . S
C369 C372 1.463 . S
C369 C374 1.350 . S
C369 N377 1.427 . S
C370 H361 0.930 . S
C370 C368 1.378 . S
C370 C371 1.367 . S
C371 C370 1.367 . S
C371 C373 1.433 . S
C372 C368 1.350 . S
C372 C369 1.463 . S
C372 N376 1.427 . S
C373 H363 0.929 . S
C373 C371 1.433 . S
C373 N376 1.384 . S
C374 H365 0.929 . S
C374 C366 1.378 . S
C374 C369 1.350 . S
C375 H362 0.929 . S
C375 C367 1.433 . S
C375 N377 1.384 . S
N376 C372 1.427 . S
N376 C373 1.384 . S
N377 C369 1.427 . S
N377 C375 1.384 . S
H378 C384 0.930 . S
H379 C388 0.930 . S
H380 C393 0.929 . S
H381 C391 0.929 . S
H382 C386 0.929 . S
H383 C392 0.929 . S
C384 H378 0.930 . S
C384 C385 1.367 . S
C384 C392 1.378 . S
C385 C384 1.367 . S
C385 C393 1.433 . S
C386 H382 0.929 . S
C386 C388 1.378 . S
C386 C390 1.350 . S
C387 C390 1.463 . S
C387 C392 1.350 . S
C387 N395 1.427 . S
C388 H379 0.930 . S
C388 C386 1.378 . S
C388 C389 1.367 . S
C389 C388 1.367 . S
C389 C391 1.433 . S
C390 C386 1.350 . S
C390 C387 1.463 . S
C390 N394 1.427 . S
C391 H381 0.929 . S
C391 C389 1.433 . S
C391 N394 1.384 . S
C392 H383 0.929 . S
C392 C384 1.378 . S
C392 C387 1.350 . S
C393 H380 0.929 . S
C393 C385 1.433 . S
C393 N395 1.384 . S
N394 C390 1.427 . S
N394 C391 1.384 . S
N395 C387 1.427 . S
N395 C393 1.384 . S
H396 C402 0.930 . S
H397 C406 0.930 . S
H398 C411 0.929 . S
H399 C409 0.929 . S
H400 C404 0.929 . S
H401 C410 0.929 . S
C402 H396 0.930 . S
C402 C403 1.367 . S
C402 C410 1.378 . S
C403 C402 1.367 . S
C403 C411 1.433 1_554 S
C404 H400 0.929 . S
C404 C406 1.378 . S
C404 C408 1.350 . S
C405 C408 1.463 . S
C405 C410 1.350 1_556 S
C405 N413 1.427 . S
C406 H397 0.930 . S
C406 C404 1.378 . S
C406 C407 1.367 . S
C407 C406 1.367 . S
C407 C409 1.433 . S
C408 C404 1.350 . S
C408 C405 1.463 . S
C408 N412 1.427 . S
C409 H399 0.929 . S
C409 C407 1.433 . S
C409 N412 1.384 . S
C410 H401 0.929 . S
C410 C402 1.378 . S
C410 C405 1.350 1_554 S
C411 H398 0.929 . S
C411 C403 1.433 1_556 S
C411 N413 1.384 . S
N412 C408 1.427 . S
N412 C409 1.384 . S
N413 C405 1.427 . S
N413 C411 1.384 . S
H414 C420 0.930 . S
H415 C424 0.930 . S
H416 C429 0.929 . S
H417 C427 0.929 . S
H418 C422 0.929 . S
H419 C428 0.929 . S
C420 H414 0.930 . S
C420 C421 1.367 . S
C420 C428 1.378 . S
C421 C420 1.367 . S
C421 C429 1.433 . S
C422 H418 0.929 . S
C422 C424 1.378 . S
C422 C426 1.350 1_556 S
C423 C426 1.463 . S
C423 C428 1.350 . S
C423 N431 1.427 . S
C424 H415 0.930 . S
C424 C422 1.378 . S
C424 C425 1.367 . S
C425 C424 1.367 . S
C425 C427 1.433 1_556 S
C426 C422 1.350 1_554 S
C426 C423 1.463 . S
C426 N430 1.427 . S
C427 H417 0.929 . S
C427 C425 1.433 1_554 S
C427 N430 1.384 . S
C428 H419 0.929 . S
C428 C420 1.378 . S
C428 C423 1.350 . S
C429 H416 0.929 . S
C429 C421 1.433 . S
C429 N431 1.384 . S
N430 C426 1.427 . S
N430 C427 1.384 . S
N431 C423 1.427 . S
N431 C429 1.384 . S
H432 C438 0.930 . S
H433 C442 0.930 . S
H434 C447 0.929 . S
H435 C445 0.929 . S
H436 C440 0.929 . S
H437 C446 0.929 . S
C438 H432 0.930 . S
C438 C439 1.367 . S
C438 C446 1.378 . S
C439 C438 1.367 . S
C439 C447 1.433 . S
C440 H436 0.929 . S
C440 C442 1.378 . S
C440 C444 1.350 . S
C441 C444 1.463 . S
C441 C446 1.350 . S
C441 N449 1.427 . S
C442 H433 0.930 . S
C442 C440 1.378 . S
C442 C443 1.367 . S
C443 C442 1.367 . S
C443 C445 1.433 . S
C444 C440 1.350 . S
C444 C441 1.463 . S
C444 N448 1.427 . S
C445 H435 0.929 . S
C445 C443 1.433 . S
C445 N448 1.384 . S
C446 H437 0.929 . S
C446 C438 1.378 . S
C446 C441 1.350 . S
C447 H434 0.929 . S
C447 C439 1.433 . S
C447 N449 1.384 . S
N448 C444 1.427 . S
N448 C445 1.384 . S
N449 C441 1.427 . S
N449 C447 1.384 . S
C133 C19 1.035 . S
C137 C3 1.043 . S
C151 C40 1.026 . S
C155 C24 1.018 1_554 S
C169 C45 1.008 . S
C173 C61 1.006 . S
C187 C66 1.043 . S
C191 C82 1.037 . S
C205 C87 1.039 . S
C209 C103 1.039 1_556 S
C223 C124 1.039 . S
C227 C108 1.040 . S
C241 C20 1.401 . S
C245 C112 1.387 . S
C259 C7 1.403 . S
C263 C41 1.416 . S
C277 C62 1.410 . S
C281 C28 1.390 . S
C295 C83 1.411 . S
C299 C49 1.409 . S
C313 C104 1.406 . S
C317 C70 1.388 . S
C331 C91 1.391 . S
C335 C125 1.395 . S
C349 C16 1.546 . S
C353 C88 1.537 . S
C367 C37 1.561 . S
C371 C109 1.540 . S
C385 C58 1.557 . S
C389 C4 1.536 . S
C403 C79 1.561 . S
C407 C25 1.555 . S
C421 C100 1.565 . S
C425 C46 1.548 . S
C439 C67 1.543 . S
C443 C121 1.563 . S
