# Generated by pormake.
# Topology atn, (4)-cn, num edge types: 1
# Building blocks:
#     Node 0, Type 0, BuildingBlock: CEKHIL_clean_sbu_0, # of connection points: 4
#     Node 1, Type 0, BuildingBlock: CEKHIL_clean_sbu_0, # of connection points: 4
#     Node 2, Type 0, BuildingBlock: CEKHIL_clean_sbu_0, # of connection points: 4
#     Node 3, Type 0, BuildingBlock: CEKHIL_clean_sbu_0, # of connection points: 4
#     Node 4, Type 0, BuildingBlock: CEKHIL_clean_sbu_0, # of connection points: 4
#     Node 5, Type 0, BuildingBlock: CEKHIL_clean_sbu_0, # of connection points: 4
#     Node 6, Type 0, BuildingBlock: CEKHIL_clean_sbu_0, # of connection points: 4
#     Node 7, Type 0, BuildingBlock: CEKHIL_clean_sbu_0, # of connection points: 4
#     Node 8, Type 0, BuildingBlock: CEKHIL_clean_sbu_0, # of connection points: 4
#     Node 9, Type 0, BuildingBlock: CEKHIL_clean_sbu_0, # of connection points: 4
#     Node 10, Type 0, BuildingBlock: CEKHIL_clean_sbu_0, # of connection points: 4
#     Node 11, Type 0, BuildingBlock: CEKHIL_clean_sbu_0, # of connection points: 4
#     Node 12, Type 0, BuildingBlock: CEKHIL_clean_sbu_0, # of connection points: 4
#     Node 13, Type 0, BuildingBlock: CEKHIL_clean_sbu_0, # of connection points: 4
#     Node 14, Type 0, BuildingBlock: CEKHIL_clean_sbu_0, # of connection points: 4
#     Node 15, Type 0, BuildingBlock: CEKHIL_clean_sbu_0, # of connection points: 4
#     Edge 16, Type (0, 0), BuildingBlock: KIFKEQ_clean_linker_1, # of connection points: 2
#     Edge 17, Type (0, 0), BuildingBlock: KIFKEQ_clean_linker_1, # of connection points: 2
#     Edge 18, Type (0, 0), BuildingBlock: KIFKEQ_clean_linker_1, # of connection points: 2
#     Edge 19, Type (0, 0), BuildingBlock: KIFKEQ_clean_linker_1, # of connection points: 2
#     Edge 20, Type (0, 0), BuildingBlock: KIFKEQ_clean_linker_1, # of connection points: 2
#     Edge 21, Type (0, 0), BuildingBlock: KIFKEQ_clean_linker_1, # of connection points: 2
#     Edge 22, Type (0, 0), BuildingBlock: KIFKEQ_clean_linker_1, # of connection points: 2
#     Edge 23, Type (0, 0), BuildingBlock: KIFKEQ_clean_linker_1, # of connection points: 2
#     Edge 24, Type (0, 0), BuildingBlock: KIFKEQ_clean_linker_1, # of connection points: 2
#     Edge 25, Type (0, 0), BuildingBlock: KIFKEQ_clean_linker_1, # of connection points: 2
#     Edge 26, Type (0, 0), BuildingBlock: KIFKEQ_clean_linker_1, # of connection points: 2
#     Edge 27, Type (0, 0), BuildingBlock: KIFKEQ_clean_linker_1, # of connection points: 2
#     Edge 28, Type (0, 0), BuildingBlock: KIFKEQ_clean_linker_1, # of connection points: 2
#     Edge 29, Type (0, 0), BuildingBlock: KIFKEQ_clean_linker_1, # of connection points: 2
#     Edge 30, Type (0, 0), BuildingBlock: KIFKEQ_clean_linker_1, # of connection points: 2
#     Edge 31, Type (0, 0), BuildingBlock: KIFKEQ_clean_linker_1, # of connection points: 2
#     Edge 32, Type (0, 0), BuildingBlock: KIFKEQ_clean_linker_1, # of connection points: 2
#     Edge 33, Type (0, 0), BuildingBlock: KIFKEQ_clean_linker_1, # of connection points: 2
#     Edge 34, Type (0, 0), BuildingBlock: KIFKEQ_clean_linker_1, # of connection points: 2
#     Edge 35, Type (0, 0), BuildingBlock: KIFKEQ_clean_linker_1, # of connection points: 2
#     Edge 36, Type (0, 0), BuildingBlock: KIFKEQ_clean_linker_1, # of connection points: 2
#     Edge 37, Type (0, 0), BuildingBlock: KIFKEQ_clean_linker_1, # of connection points: 2
#     Edge 38, Type (0, 0), BuildingBlock: KIFKEQ_clean_linker_1, # of connection points: 2
#     Edge 39, Type (0, 0), BuildingBlock: KIFKEQ_clean_linker_1, # of connection points: 2
#     Edge 40, Type (0, 0), BuildingBlock: KIFKEQ_clean_linker_1, # of connection points: 2
#     Edge 41, Type (0, 0), BuildingBlock: KIFKEQ_clean_linker_1, # of connection points: 2
#     Edge 42, Type (0, 0), BuildingBlock: KIFKEQ_clean_linker_1, # of connection points: 2
#     Edge 43, Type (0, 0), BuildingBlock: KIFKEQ_clean_linker_1, # of connection points: 2
#     Edge 44, Type (0, 0), BuildingBlock: KIFKEQ_clean_linker_1, # of connection points: 2
#     Edge 45, Type (0, 0), BuildingBlock: KIFKEQ_clean_linker_1, # of connection points: 2
#     Edge 46, Type (0, 0), BuildingBlock: KIFKEQ_clean_linker_1, # of connection points: 2
#     Edge 47, Type (0, 0), BuildingBlock: KIFKEQ_clean_linker_1, # of connection points: 2
# Relax obj value: 0.034
# Max RMSD: 0.063
# Mean RMSD: 0.063
data_MOF--net-atn--node1-CEKHIL_clean_sbu_0--edge1-KIFKEQ_clean_linker_1
_symmetry_space_group_name_H-M    P1
_symmetry_Int_Tables_number       1
_symmetry_cell_setting            triclinic
loop_
_symmetry_equiv_pos_as_xyz
'x, y, z'
_cell_length_a     60.211482
_cell_length_b     60.227643
_cell_length_c     27.540859
_cell_angle_alpha  89.9961
_cell_angle_beta   89.985935
_cell_angle_gamma 90.016184
loop_
_atom_site_label
_atom_site_type_symbol
_atom_site_fract_x
_atom_site_fract_y
_atom_site_fract_z
_atom_type_partial_charge
Co0 Co 0.19929 0.38413 0.99019 0.0
O1 O 0.18171 0.41081 0.9876 0.0
O2 O 0.21617 0.40923 0.01491 0.0
C3 C 0.19082 0.37308 0.91417 0.0
O4 O 0.22311 0.35996 0.99602 0.0
Co5 Co 0.17835 0.33724 0.97767 0.0
O6 O 0.20944 0.32867 0.96301 0.0
C7 C 0.1743 0.36089 0.07188 0.0
C8 C 0.19891 0.4213 0.00426 0.0
C9 C 0.22562 0.34014 0.9791 0.0
O10 O 0.18707 0.37672 0.05688 0.0
O11 O 0.16806 0.34474 0.04488 0.0
O12 O 0.20654 0.38751 0.92126 0.0
O13 O 0.18002 0.36702 0.95233 0.0
Co14 Co 0.62693 0.19842 0.99003 0.0
O15 O 0.60025 0.18086 0.98605 0.0
O16 O 0.60163 0.21519 0.01419 0.0
C17 C 0.63863 0.19028 0.9143 0.0
O18 O 0.6511 0.22217 0.99732 0.0
Co19 Co 0.67385 0.17734 0.97906 0.0
O20 O 0.68273 0.20849 0.96583 0.0
C21 C 0.64916 0.17268 0.07184 0.0
C22 C 0.58964 0.19797 0.00278 0.0
C23 C 0.67112 0.22465 0.98155 0.0
O24 O 0.63378 0.18593 0.05672 0.0
O25 O 0.66538 0.16629 0.04516 0.0
O26 O 0.62415 0.20597 0.92113 0.0
O27 O 0.64432 0.17931 0.95246 0.0
Co28 Co 0.81228 0.62712 0.99019 0.0
O29 O 0.82957 0.60027 0.98709 0.0
O30 O 0.795 0.60198 0.01364 0.0
C31 C 0.82134 0.63857 0.91474 0.0
O32 O 0.78879 0.65162 0.99625 0.0
Co33 Co 0.83418 0.67371 0.97973 0.0
O34 O 0.80327 0.68301 0.96528 0.0
C35 C 0.83772 0.64906 0.0728 0.0
C36 C 0.8122 0.58982 0.00296 0.0
C37 C 0.78679 0.67167 0.98034 0.0
O38 O 0.82422 0.63393 0.05741 0.0
O39 O 0.84469 0.66503 0.0461 0.0
O40 O 0.80537 0.62434 0.92094 0.0
O41 O 0.832 0.64418 0.95337 0.0
Co42 Co 0.384 0.81286 0.98762 0.0
O43 O 0.41078 0.83033 0.98494 0.0
O44 O 0.40904 0.79589 0.01224 0.0
C45 C 0.3729 0.82146 0.91162 0.0
O46 O 0.35976 0.7891 0.99361 0.0
Co47 Co 0.33711 0.83382 0.97527 0.0
O48 O 0.32839 0.80275 0.96095 0.0
C49 C 0.36089 0.83791 0.06936 0.0
C50 C 0.4212 0.81309 0.0016 0.0
C51 C 0.33989 0.78659 0.97699 0.0
O52 O 0.37667 0.82508 0.05438 0.0
O53 O 0.34476 0.84419 0.04234 0.0
O54 O 0.38726 0.80568 0.91858 0.0
O55 O 0.36689 0.8322 0.94988 0.0
Co56 Co 0.1994 0.62686 0.01151 0.0
O57 O 0.18194 0.60014 0.01525 0.0
O58 O 0.21631 0.60165 0.98736 0.0
C59 C 0.19108 0.63839 0.08721 0.0
O60 O 0.22304 0.65116 0.00457 0.0
Co61 Co 0.17801 0.67363 0.02265 0.0
O62 O 0.20909 0.68262 0.03631 0.0
C63 C 0.17364 0.64905 0.92971 0.0
C64 C 0.19911 0.5896 0.99865 0.0
C65 C 0.22536 0.67115 0.02061 0.0
O66 O 0.18696 0.63373 0.9448 0.0
O67 O 0.16711 0.6652 0.95644 0.0
O68 O 0.20686 0.62401 0.08042 0.0
O69 O 0.18013 0.64408 0.04901 0.0
Co70 Co 0.3841 0.19847 0.01212 0.0
O71 O 0.4107 0.18073 0.01453 0.0
O72 O 0.40929 0.21523 0.98746 0.0
C73 C 0.37305 0.18985 0.08812 0.0
O74 O 0.36009 0.22246 0.00638 0.0
Co75 Co 0.33702 0.17794 0.02476 0.0
O76 O 0.3286 0.20909 0.0391 0.0
C77 C 0.36065 0.17374 0.93049 0.0
C78 C 0.42127 0.19789 0.99794 0.0
C79 C 0.34025 0.22514 0.023 0.0
O80 O 0.37657 0.18641 0.94539 0.0
O81 O 0.34449 0.16758 0.9576 0.0
O82 O 0.38754 0.20552 0.08118 0.0
O83 O 0.36686 0.17925 0.04982 0.0
Co84 Co 0.81178 0.38426 0.01204 0.0
O85 O 0.82934 0.41099 0.01387 0.0
O86 O 0.79473 0.40931 0.98755 0.0
C87 C 0.82077 0.37345 0.08797 0.0
O88 O 0.78796 0.36001 0.0071 0.0
Co89 Co 0.83277 0.3374 0.02475 0.0
O90 O 0.80177 0.32883 0.04028 0.0
C91 C 0.8362 0.36073 0.92997 0.0
C92 C 0.81203 0.42143 0.99764 0.0
C93 C 0.78553 0.34024 0.02432 0.0
O94 O 0.82364 0.3767 0.9451 0.0
O95 O 0.84252 0.34462 0.95702 0.0
O96 O 0.80496 0.38778 0.08116 0.0
O97 O 0.83131 0.36728 0.04955 0.0
Co98 Co 0.62698 0.81252 0.01055 0.0
O99 O 0.60012 0.82977 0.0141 0.0
O100 O 0.60175 0.79515 0.98787 0.0
C101 C 0.63894 0.82159 0.0857 0.0
O102 O 0.65153 0.78917 0.00413 0.0
Co103 Co 0.67331 0.83513 0.01841 0.0
O104 O 0.68326 0.80429 0.03191 0.0
C105 C 0.64765 0.83843 0.92703 0.0
C106 C 0.58963 0.81239 0.99848 0.0
C107 C 0.67187 0.78756 0.01838 0.0
O108 O 0.63335 0.82418 0.94289 0.0
O109 O 0.66347 0.84619 0.9531 0.0
O110 O 0.62461 0.80569 0.07987 0.0
O111 O 0.6442 0.83236 0.04691 0.0
Co112 Co 0.70074 0.885 0.4888 0.0
O113 O 0.68375 0.91199 0.48507 0.0
O114 O 0.71833 0.91003 0.51158 0.0
C115 C 0.69167 0.8731 0.4136 0.0
O116 O 0.72387 0.86031 0.49549 0.0
Co117 Co 0.67782 0.83885 0.4808 0.0
O118 O 0.70862 0.82865 0.46769 0.0
C119 C 0.67455 0.86456 0.57215 0.0
C120 C 0.70123 0.92231 0.5008 0.0
C121 C 0.72539 0.83995 0.48139 0.0
O122 O 0.68891 0.87876 0.55638 0.0
O123 O 0.66674 0.84878 0.54605 0.0
O124 O 0.7077 0.88728 0.41952 0.0
O125 O 0.68081 0.86794 0.45234 0.0
Co126 Co 0.12803 0.69775 0.49107 0.0
O127 O 0.10054 0.68177 0.48604 0.0
O128 O 0.10341 0.71586 0.51482 0.0
C129 C 0.13975 0.68938 0.41539 0.0
O130 O 0.15394 0.71964 0.49918 0.0
Co131 Co 0.17252 0.67126 0.48146 0.0
O132 O 0.18555 0.70141 0.48044 0.0
C133 C 0.14708 0.66943 0.57312 0.0
C134 C 0.09066 0.69924 0.50287 0.0
C135 C 0.17514 0.71909 0.49195 0.0
O136 O 0.13366 0.68466 0.55796 0.0
O137 O 0.16206 0.66066 0.54626 0.0
O138 O 0.12619 0.70586 0.42219 0.0
O139 O 0.14406 0.67766 0.45329 0.0
Co140 Co 0.3122 0.12647 0.49171 0.0
O141 O 0.32612 0.09769 0.49046 0.0
O142 O 0.29174 0.10395 0.51548 0.0
C143 C 0.32241 0.13658 0.41599 0.0
O144 O 0.29209 0.15386 0.49644 0.0
Co145 Co 0.34153 0.16902 0.48143 0.0
O146 O 0.3124 0.18419 0.4783 0.0
C147 C 0.34078 0.1445 0.57428 0.0
C148 C 0.30755 0.08977 0.50671 0.0
C149 C 0.29396 0.17492 0.48875 0.0
O150 O 0.32464 0.13217 0.55912 0.0
O151 O 0.35093 0.15842 0.54705 0.0
O152 O 0.30502 0.12418 0.4225 0.0
O153 O 0.33396 0.14057 0.45436 0.0
Co154 Co 0.88499 0.31315 0.49108 0.0
O155 O 0.91294 0.32832 0.48651 0.0
O156 O 0.90908 0.29412 0.51411 0.0
C157 C 0.87347 0.32235 0.41568 0.0
O158 O 0.85844 0.29202 0.49846 0.0
Co159 Co 0.84138 0.34108 0.48274 0.0
O160 O 0.82755 0.31131 0.47947 0.0
C161 C 0.86699 0.34159 0.57414 0.0
C162 C 0.92231 0.31044 0.50265 0.0
C163 C 0.83733 0.29321 0.4906 0.0
O164 O 0.87976 0.32589 0.55848 0.0
O165 O 0.85237 0.35111 0.54758 0.0
O166 O 0.88657 0.30546 0.42196 0.0
O167 O 0.86956 0.33397 0.45394 0.0
Co168 Co 0.69897 0.12794 0.51036 0.0
O169 O 0.68278 0.10055 0.51602 0.0
O170 O 0.71684 0.10323 0.48679 0.0
C171 C 0.69078 0.14008 0.58587 0.0
O172 O 0.72123 0.15339 0.50135 0.0
Co173 Co 0.67358 0.17303 0.51914 0.0
O174 O 0.70385 0.18579 0.51715 0.0
C175 C 0.67075 0.14706 0.42831 0.0
C176 C 0.7002 0.09059 0.49902 0.0
C177 C 0.72122 0.17467 0.50662 0.0
O178 O 0.68581 0.13345 0.44349 0.0
O179 O 0.6624 0.16234 0.45498 0.0
O180 O 0.70711 0.12632 0.57923 0.0
O181 O 0.67912 0.14447 0.54791 0.0
Co182 Co 0.88504 0.6992 0.51152 0.0
O183 O 0.91195 0.68197 0.51392 0.0
O184 O 0.91 0.71655 0.48748 0.0
C185 C 0.874 0.69012 0.58726 0.0
O186 O 0.86057 0.72268 0.50604 0.0
Co187 Co 0.83838 0.67757 0.52357 0.0
O188 O 0.82934 0.70851 0.53839 0.0
C189 C 0.86224 0.67423 0.42932 0.0
C190 C 0.92227 0.69941 0.49794 0.0
C191 C 0.84067 0.72487 0.52267 0.0
O192 O 0.87782 0.68728 0.44445 0.0
O193 O 0.84629 0.66752 0.45642 0.0
O194 O 0.8882 0.70609 0.5807 0.0
O195 O 0.86815 0.67949 0.54877 0.0
Co196 Co 0.3122 0.88502 0.50811 0.0
O197 O 0.32747 0.91302 0.51244 0.0
O198 O 0.29322 0.90898 0.48504 0.0
C199 C 0.32129 0.87335 0.58353 0.0
O200 O 0.29075 0.85878 0.50042 0.0
Co201 Co 0.33927 0.84093 0.51645 0.0
O202 O 0.30945 0.8271 0.51573 0.0
C203 C 0.34066 0.86682 0.42543 0.0
C204 C 0.30954 0.92225 0.49605 0.0
C205 C 0.29159 0.83751 0.50577 0.0
O206 O 0.325 0.87972 0.44079 0.0
O207 O 0.34987 0.85206 0.45212 0.0
O208 O 0.30451 0.88659 0.57724 0.0
O209 O 0.33288 0.8693 0.54527 0.0
Co210 Co 0.12805 0.31234 0.51069 0.0
O211 O 0.10024 0.32762 0.5173 0.0
O212 O 0.10362 0.29366 0.48803 0.0
C213 C 0.14039 0.32089 0.58586 0.0
O214 O 0.15431 0.29108 0.501 0.0
Co215 Co 0.17203 0.33978 0.51791 0.0
O216 O 0.18592 0.31002 0.51615 0.0
C217 C 0.14542 0.34133 0.42793 0.0
C218 C 0.09061 0.30993 0.50083 0.0
C219 C 0.17561 0.29212 0.50586 0.0
O220 O 0.13268 0.32561 0.44357 0.0
O221 O 0.16037 0.35052 0.45417 0.0
O222 O 0.12714 0.30411 0.57957 0.0
O223 O 0.14405 0.33276 0.54783 0.0
H224 H 0.16578 0.56156 0.02466 0.0
H225 H 0.23308 0.56179 0.97045 0.0
H226 H 0.16639 0.52134 0.02857 0.0
H227 H 0.23351 0.52111 0.97304 0.0
H228 H 0.23323 0.44895 0.03106 0.0
H229 H 0.23377 0.48963 0.02887 0.0
H230 H 0.16598 0.48971 0.97746 0.0
H231 H 0.16528 0.44947 0.98096 0.0
C232 C 0.18066 0.553 0.01292 0.0
C233 C 0.19935 0.56495 0.99697 0.0
C234 C 0.18098 0.52984 0.01503 0.0
C235 C 0.19997 0.51785 0.00099 0.0
C236 C 0.21868 0.52977 0.98468 0.0
C237 C 0.21837 0.55308 0.98269 0.0
C238 C 0.21839 0.45772 0.01985 0.0
C239 C 0.19917 0.44594 0.00653 0.0
C240 C 0.21877 0.48103 0.01808 0.0
C241 C 0.19991 0.49304 0.00297 0.0
C242 C 0.1807 0.48114 0.99003 0.0
C243 C 0.18032 0.45797 0.9919 0.0
H244 H 0.44902 0.232 0.97042 0.0
H245 H 0.44938 0.16423 0.02164 0.0
H246 H 0.4897 0.23243 0.97239 0.0
H247 H 0.48964 0.16482 0.0249 0.0
H248 H 0.56162 0.16448 0.97748 0.0
H249 H 0.52136 0.16503 0.97381 0.0
H250 H 0.52112 0.23232 0.02821 0.0
H251 H 0.5618 0.23194 0.03061 0.0
C252 C 0.45776 0.21718 0.98184 0.0
C253 C 0.44592 0.19804 0.99555 0.0
C254 C 0.48107 0.21749 0.98348 0.0
C255 C 0.49305 0.19866 0.99885 0.0
C256 C 0.4811 0.17953 0.01214 0.0
C257 C 0.45791 0.17921 0.0104 0.0
C258 C 0.55304 0.17938 0.98902 0.0
C259 C 0.56498 0.19814 0.00458 0.0
C260 C 0.52986 0.17967 0.98705 0.0
C261 C 0.51786 0.1987 0.0008 0.0
C262 C 0.52979 0.21746 0.01677 0.0
C263 C 0.5531 0.21718 0.01865 0.0
H264 H 0.84571 0.44967 0.02025 0.0
H265 H 0.77757 0.44905 0.9714 0.0
H266 H 0.84501 0.48989 0.02363 0.0
H267 H 0.77703 0.48974 0.97341 0.0
H268 H 0.84531 0.56163 0.97661 0.0
H269 H 0.84453 0.52144 0.97266 0.0
H270 H 0.77747 0.52142 0.02854 0.0
H271 H 0.77805 0.56211 0.03108 0.0
C272 C 0.83062 0.45814 0.00954 0.0
C273 C 0.81173 0.44608 0.99529 0.0
C274 C 0.83024 0.48131 0.01134 0.0
C275 C 0.81099 0.49321 0.99866 0.0
C276 C 0.79208 0.48116 0.98397 0.0
C277 C 0.79245 0.45784 0.9823 0.0
C278 C 0.8304 0.55313 0.98842 0.0
C279 C 0.81179 0.56515 0.00448 0.0
C280 C 0.82998 0.52997 0.98628 0.0
C281 C 0.81097 0.51803 0.00047 0.0
C282 C 0.79231 0.53003 0.01681 0.0
C283 C 0.79272 0.55335 0.01877 0.0
H284 H 0.56154 0.8459 0.02293 0.0
H285 H 0.56181 0.77814 0.97163 0.0
H286 H 0.5213 0.8454 0.02613 0.0
H287 H 0.5211 0.77782 0.97349 0.0
H288 H 0.44862 0.77886 0.02992 0.0
H289 H 0.48931 0.77814 0.02844 0.0
H290 H 0.4899 0.84549 0.97441 0.0
H291 H 0.44963 0.84638 0.97721 0.0
C292 C 0.55299 0.83092 0.01171 0.0
C293 C 0.56496 0.81209 0.99676 0.0
C294 C 0.52981 0.83067 0.01339 0.0
C295 C 0.51782 0.8116 0.9999 0.0
C296 C 0.52977 0.79272 0.98467 0.0
C297 C 0.5531 0.79296 0.98312 0.0
C298 C 0.4575 0.79356 0.01825 0.0
C299 C 0.44585 0.81272 0.00403 0.0
C300 C 0.48082 0.79308 0.0169 0.0
C301 C 0.49299 0.81176 0.00131 0.0
C302 C 0.48121 0.8309 0.98739 0.0
C303 C 0.45802 0.83139 0.98886 0.0
H304 H 0.66756 0.06179 0.52467 0.0
H305 H 0.73487 0.06357 0.47058 0.0
H306 H 0.66881 0.02161 0.52702 0.0
H307 H 0.73595 0.02283 0.4717 0.0
H308 H 0.66807 0.95065 0.4758 0.0
H309 H 0.66884 0.99086 0.47306 0.0
H310 H 0.73627 0.99054 0.52665 0.0
H311 H 0.73568 0.94981 0.52811 0.0
C312 C 0.68261 0.05359 0.51271 0.0
C313 C 0.70108 0.06596 0.49714 0.0
C314 C 0.68329 0.03044 0.5139 0.0
C315 C 0.70243 0.01886 0.49929 0.0
C316 C 0.72099 0.03119 0.48363 0.0
C317 C 0.72032 0.05452 0.48253 0.0
C318 C 0.68307 0.95906 0.48732 0.0
C319 C 0.70177 0.94695 0.50252 0.0
C320 C 0.68349 0.98222 0.48588 0.0
C321 C 0.70257 0.99405 0.4999 0.0
C322 C 0.72136 0.98198 0.51516 0.0
C323 C 0.72095 0.95865 0.51647 0.0
H324 H 0.95072 0.66639 0.5233 0.0
H325 H 0.9497 0.73394 0.47074 0.0
H326 H 0.99091 0.66748 0.52719 0.0
H327 H 0.99042 0.73484 0.47325 0.0
H328 H 0.06338 0.73401 0.53032 0.0
H329 H 0.02259 0.73488 0.52845 0.0
H330 H 0.02192 0.66753 0.47449 0.0
H331 H 0.06204 0.66646 0.47771 0.0
C332 C 0.9591 0.68144 0.5119 0.0
C333 C 0.94693 0.70002 0.49632 0.0
C334 C 0.98225 0.68204 0.51403 0.0
C335 C 0.99404 0.70121 0.50029 0.0
C336 C 0.98191 0.71987 0.48457 0.0
C337 C 0.95858 0.71928 0.4826 0.0
C338 C 0.05442 0.71936 0.51857 0.0
C339 C 0.066 0.70012 0.50458 0.0
C340 C 0.03107 0.71992 0.51702 0.0
C341 C 0.01887 0.70123 0.50151 0.0
C342 C 0.03061 0.6821 0.48753 0.0
C343 C 0.05375 0.68153 0.48922 0.0
H344 H 0.3341 0.06116 0.55509 0.0
H345 H 0.27503 0.06397 0.46713 0.0
H346 H 0.33283 0.02076 0.55376 0.0
H347 H 0.27446 0.02339 0.46229 0.0
H348 H 0.27178 0.9479 0.49059 0.0
H349 H 0.2693 0.98834 0.49726 0.0
H350 H 0.34101 0.99224 0.50156 0.0
H351 H 0.34325 0.95214 0.4975 0.0
C352 C 0.32075 0.05299 0.53566 0.0
C353 C 0.30459 0.06556 0.51156 0.0
C354 C 0.32016 0.0298 0.53414 0.0
C355 C 0.30385 0.01854 0.50686 0.0
C356 C 0.28719 0.03127 0.48403 0.0
C357 C 0.28746 0.05456 0.48675 0.0
C358 C 0.28696 0.95751 0.49266 0.0
C359 C 0.3077 0.94681 0.49384 0.0
C360 C 0.28558 0.98074 0.49645 0.0
C361 C 0.30493 0.9938 0.50095 0.0
C362 C 0.32565 0.98294 0.49993 0.0
C363 C 0.32699 0.95983 0.49692 0.0
H364 H 0.06158 0.34135 0.5311 0.0
H365 H 0.06375 0.27521 0.47062 0.0
H366 H 0.02149 0.33973 0.53394 0.0
H367 H 0.0229 0.27381 0.47228 0.0
H368 H 0.94876 0.2747 0.52858 0.0
H369 H 0.98961 0.27304 0.52759 0.0
H370 H 0.99179 0.34084 0.47666 0.0
H371 H 0.95172 0.34265 0.47883 0.0
C372 C 0.05349 0.32646 0.51789 0.0
C373 C 0.06596 0.30849 0.50012 0.0
C374 C 0.03037 0.32557 0.51942 0.0
C375 C 0.01886 0.30674 0.50285 0.0
C376 C 0.03125 0.28853 0.48555 0.0
C377 C 0.05462 0.28941 0.48417 0.0
C378 C 0.95807 0.28925 0.51763 0.0
C379 C 0.94694 0.30888 0.50435 0.0
C380 C 0.98143 0.28824 0.5166 0.0
C381 C 0.99404 0.30688 0.50242 0.0
C382 C 0.98274 0.3263 0.48874 0.0
C383 C 0.95963 0.32731 0.48986 0.0
H384 H 0.25695 0.34399 0.05065 0.0
H385 H 0.24326 0.3108 0.91501 0.0
H386 H 0.28965 0.32021 0.06241 0.0
H387 H 0.2761 0.28755 0.92615 0.0
H388 H 0.34359 0.25565 0.94974 0.0
H389 H 0.3199 0.28838 0.93744 0.0
H390 H 0.28859 0.27655 0.076 0.0
H391 H 0.31172 0.24366 0.08765 0.0
C392 C 0.26131 0.3321 0.02273 0.0
C393 C 0.24751 0.3291 0.98211 0.0
C394 C 0.27993 0.31847 0.02953 0.0
C395 C 0.28537 0.30206 0.99518 0.0
C396 C 0.27243 0.30019 0.95297 0.0
C397 C 0.25357 0.3134 0.94675 0.0
C398 C 0.33203 0.26041 0.97802 0.0
C399 C 0.32936 0.24709 0.01951 0.0
C400 C 0.31845 0.27905 0.97092 0.0
C401 C 0.30244 0.28497 0.0058 0.0
C402 C 0.30092 0.2725 0.04876 0.0
C403 C 0.31406 0.25362 0.05529 0.0
H404 H 0.75411 0.3437 0.95286 0.0
H405 H 0.76807 0.31099 0.08892 0.0
H406 H 0.72158 0.31964 0.94146 0.0
H407 H 0.73539 0.28746 0.07814 0.0
H408 H 0.66778 0.25527 0.05463 0.0
H409 H 0.69146 0.28804 0.06672 0.0
H410 H 0.72303 0.27586 0.92859 0.0
H411 H 0.69993 0.24292 0.91719 0.0
C412 C 0.74984 0.33186 0.98096 0.0
C413 C 0.76366 0.32908 0.0216 0.0
C414 C 0.73131 0.31807 0.97436 0.0
C415 C 0.726 0.30171 0.00893 0.0
C416 C 0.73896 0.30006 0.05115 0.0
C417 C 0.75772 0.31343 0.05717 0.0
C418 C 0.67942 0.25995 0.02642 0.0
C419 C 0.68214 0.24653 0.98511 0.0
C420 C 0.69299 0.27861 0.0334 0.0
C421 C 0.70904 0.28447 0.99854 0.0
C422 C 0.71066 0.27187 0.9558 0.0
C423 C 0.69753 0.25296 0.94941 0.0
H424 H 0.75573 0.66927 0.05272 0.0
H425 H 0.76939 0.70045 0.91482 0.0
H426 H 0.72339 0.69368 0.06354 0.0
H427 H 0.73683 0.72425 0.92493 0.0
H428 H 0.66829 0.75552 0.94833 0.0
H429 H 0.69234 0.72289 0.93793 0.0
H430 H 0.72542 0.73834 0.07271 0.0
H431 H 0.70198 0.77118 0.08234 0.0
C432 C 0.75141 0.68084 0.02413 0.0
C433 C 0.76507 0.68307 0.98305 0.0
C434 C 0.73301 0.69483 0.03039 0.0
C435 C 0.72764 0.7108 0.99502 0.0
C436 C 0.74047 0.71195 0.95251 0.0
C437 C 0.75914 0.69841 0.94685 0.0
C438 C 0.68037 0.75161 0.97619 0.0
C439 C 0.68338 0.76589 0.016 0.0
C440 C 0.69414 0.73303 0.97017 0.0
C441 C 0.71067 0.72811 0.0046 0.0
C442 C 0.71267 0.74162 0.04591 0.0
C443 C 0.69935 0.76046 0.05126 0.0
H444 H 0.25643 0.66775 0.94839 0.0
H445 H 0.24303 0.70043 0.08474 0.0
H446 H 0.28899 0.69176 0.93645 0.0
H447 H 0.27573 0.72388 0.07347 0.0
H448 H 0.34335 0.75571 0.04951 0.0
H449 H 0.31962 0.72297 0.06145 0.0
H450 H 0.28775 0.73563 0.9239 0.0
H451 H 0.31092 0.76854 0.91262 0.0
C452 C 0.26083 0.67958 0.97642 0.0
C453 C 0.24717 0.68236 0.01733 0.0
C454 C 0.27937 0.69333 0.96952 0.0
C455 C 0.28485 0.70964 0.00407 0.0
C456 C 0.27203 0.71132 0.0465 0.0
C457 C 0.25325 0.69799 0.0528 0.0
C458 C 0.33164 0.75115 0.02137 0.0
C459 C 0.32885 0.7647 0.9803 0.0
C460 C 0.31805 0.7325 0.02827 0.0
C461 C 0.30188 0.7268 0.99357 0.0
C462 C 0.3002 0.73951 0.95099 0.0
C463 C 0.31337 0.7584 0.94468 0.0
H464 H 0.84345 0.75571 0.45005 0.0
H465 H 0.81177 0.74255 0.58768 0.0
H466 H 0.81925 0.78812 0.43849 0.0
H467 H 0.78816 0.7752 0.5768 0.0
H468 H 0.75729 0.84381 0.55158 0.0
H469 H 0.78984 0.81974 0.56286 0.0
H470 H 0.77451 0.78595 0.42886 0.0
H471 H 0.74174 0.80941 0.41836 0.0
C472 C 0.83181 0.76015 0.47843 0.0
C473 C 0.82936 0.7466 0.51962 0.0
C474 C 0.81795 0.7786 0.47174 0.0
C475 C 0.80189 0.78411 0.5068 0.0
C476 C 0.80054 0.77143 0.54946 0.0
C477 C 0.81395 0.75271 0.55554 0.0
C478 C 0.7612 0.83156 0.52408 0.0
C479 C 0.74697 0.82835 0.48426 0.0
C480 C 0.77974 0.81779 0.5306 0.0
C481 C 0.78466 0.80106 0.49665 0.0
C482 C 0.77121 0.79885 0.45529 0.0
C483 C 0.75241 0.81218 0.44945 0.0
H484 H 0.24818 0.84601 0.53323 0.0
H485 H 0.28976 0.79788 0.46102 0.0
H486 H 0.21695 0.81944 0.53108 0.0
H487 H 0.25895 0.77199 0.45774 0.0
H488 H 0.21707 0.72047 0.52558 0.0
H489 H 0.2424 0.75165 0.52741 0.0
H490 H 0.19052 0.79495 0.47513 0.0
H491 H 0.16453 0.7632 0.47406 0.0
C492 C 0.25048 0.83001 0.51602 0.0
C493 C 0.27148 0.82379 0.49818 0.0
C494 C 0.23266 0.81485 0.51474 0.0
C495 C 0.23568 0.79343 0.49531 0.0
C496 C 0.25625 0.7881 0.47421 0.0
C497 C 0.27391 0.80297 0.47598 0.0
C498 C 0.21089 0.73663 0.51476 0.0
C499 C 0.1889 0.73927 0.49878 0.0
C500 C 0.22546 0.75452 0.51569 0.0
C501 C 0.21864 0.77565 0.50017 0.0
C502 C 0.19626 0.7788 0.48699 0.0
C503 C 0.18142 0.76068 0.48639 0.0
H504 H 0.24939 0.1651 0.47569 0.0
H505 H 0.29426 0.21825 0.51397 0.0
H506 H 0.21816 0.19155 0.47706 0.0
H507 H 0.26354 0.24406 0.5166 0.0
H508 H 0.21475 0.29104 0.459 0.0
H509 H 0.24105 0.26069 0.45383 0.0
H510 H 0.19513 0.21786 0.52974 0.0
H511 H 0.16811 0.24859 0.53346 0.0
C512 C 0.25254 0.18229 0.48491 0.0
C513 C 0.27436 0.18968 0.4937 0.0
C514 C 0.23469 0.1974 0.48579 0.0
C515 C 0.23844 0.22003 0.49573 0.0
C516 C 0.26011 0.22694 0.50716 0.0
C517 C 0.27777 0.21207 0.50582 0.0
C518 C 0.21009 0.27509 0.4741 0.0
C519 C 0.18954 0.27227 0.49729 0.0
C520 C 0.22523 0.25769 0.47138 0.0
C521 C 0.22048 0.23701 0.49261 0.0
C522 C 0.19932 0.23364 0.51325 0.0
C523 C 0.18388 0.25118 0.5154 0.0
H524 H 0.84877 0.24862 0.48396 0.0
H525 H 0.79326 0.29263 0.50915 0.0
H526 H 0.82308 0.21668 0.48453 0.0
H527 H 0.76824 0.26131 0.51032 0.0
H528 H 0.72462 0.21066 0.44982 0.0
H529 H 0.75536 0.23668 0.44447 0.0
H530 H 0.79444 0.19498 0.53915 0.0
H531 H 0.76341 0.16823 0.54319 0.0
C532 C 0.83123 0.25147 0.4901 0.0
C533 C 0.82302 0.27323 0.49549 0.0
C534 C 0.81657 0.23322 0.49046 0.0
C535 C 0.79357 0.23656 0.49623 0.0
C536 C 0.78574 0.2582 0.50424 0.0
C537 C 0.80018 0.27621 0.50369 0.0
C538 C 0.73993 0.2068 0.46873 0.0
C539 C 0.74159 0.18763 0.49735 0.0
C540 C 0.75751 0.22174 0.46587 0.0
C541 C 0.77712 0.21818 0.4924 0.0
C542 C 0.77949 0.19818 0.51843 0.0
C543 C 0.7618 0.18292 0.52076 0.0
H544 H 0.1706 0.37293 0.38295 0.0
H545 H 0.11897 0.32472 0.35462 0.0
H546 H 0.17463 0.37952 0.29701 0.0
H547 H 0.12227 0.33223 0.2678 0.0
H548 H 0.15841 0.32539 0.12214 0.0
H549 H 0.14783 0.32338 0.20668 0.0
H550 H 0.16178 0.39342 0.22304 0.0
H551 H 0.17344 0.39516 0.1381 0.0
C552 C 0.1597 0.36403 0.35846 0.0
C553 C 0.14469 0.34795 0.37594 0.0
C554 C 0.16191 0.36802 0.30882 0.0
C555 C 0.149 0.35626 0.27505 0.0
C556 C 0.13291 0.34124 0.29264 0.0
C557 C 0.13084 0.33705 0.34251 0.0
C558 C 0.1591 0.34046 0.14354 0.0
C559 C 0.16691 0.36045 0.12328 0.0
C560 C 0.15278 0.33934 0.19218 0.0
C561 C 0.15379 0.35823 0.22203 0.0
C562 C 0.16106 0.37842 0.20144 0.0
C563 C 0.16771 0.37947 0.1527 0.0
H564 H 0.6814 0.11664 0.35703 0.0
H565 H 0.64433 0.17706 0.3819 0.0
H566 H 0.67268 0.11904 0.27053 0.0
H567 H 0.63662 0.17998 0.29629 0.0
H568 H 0.61651 0.17793 0.14105 0.0
H569 H 0.61827 0.16751 0.22663 0.0
H570 H 0.68413 0.14077 0.20436 0.0
H571 H 0.68198 0.1502 0.11926 0.0
C572 C 0.6713 0.13032 0.34423 0.0
C573 C 0.66376 0.14671 0.37657 0.0
C574 C 0.6664 0.1318 0.29456 0.0
C575 C 0.65406 0.14984 0.27608 0.0
C576 C 0.64582 0.16566 0.30889 0.0
C577 C 0.65047 0.16405 0.35832 0.0
C578 C 0.63123 0.16958 0.15438 0.0
C579 C 0.64915 0.16511 0.12319 0.0
C580 C 0.63231 0.16367 0.20354 0.0
C581 C 0.65144 0.1534 0.22276 0.0
C582 C 0.66898 0.1483 0.19105 0.0
C583 C 0.6678 0.15396 0.14202 0.0
H584 H 0.89438 0.67947 0.3588 0.0
H585 H 0.82841 0.65321 0.38228 0.0
H586 H 0.89165 0.66964 0.27288 0.0
H587 H 0.82538 0.64431 0.29709 0.0
H588 H 0.82728 0.61916 0.14516 0.0
H589 H 0.8365 0.62188 0.23129 0.0
H590 H 0.87269 0.68257 0.20346 0.0
H591 H 0.86434 0.6794 0.11797 0.0
C592 C 0.87936 0.67158 0.34578 0.0
C593 C 0.86162 0.66727 0.37758 0.0
C594 C 0.87772 0.666 0.29647 0.0
C595 C 0.85824 0.65619 0.2778 0.0
C596 C 0.84081 0.65141 0.31001 0.0
C597 C 0.84251 0.65676 0.35911 0.0
C598 C 0.83746 0.63289 0.15737 0.0
C599 C 0.84481 0.64915 0.1245 0.0
C600 C 0.84267 0.63455 0.20685 0.0
C601 C 0.85519 0.65259 0.22462 0.0
C602 C 0.86327 0.66829 0.19132 0.0
C603 C 0.85824 0.66655 0.14204 0.0
H604 H 0.32499 0.89373 0.35192 0.0
H605 H 0.37139 0.84054 0.38065 0.0
H606 H 0.33279 0.8904 0.26521 0.0
H607 H 0.37825 0.83652 0.29482 0.0
H608 H 0.39488 0.83774 0.13641 0.0
H609 H 0.39301 0.84924 0.22144 0.0
H610 H 0.32351 0.86533 0.20343 0.0
H611 H 0.32566 0.85489 0.11888 0.0
C612 C 0.33696 0.88148 0.33992 0.0
C613 C 0.34729 0.86725 0.37343 0.0
C614 C 0.34132 0.87942 0.29011 0.0
C615 C 0.35594 0.86293 0.27266 0.0
C616 C 0.36709 0.84955 0.30653 0.0
C617 C 0.36294 0.85177 0.3561 0.0
C618 C 0.37929 0.84391 0.15066 0.0
C619 C 0.36044 0.84532 0.12077 0.0
C620 C 0.37816 0.85046 0.19946 0.0
C621 C 0.35808 0.85826 0.21962 0.0
C622 C 0.3394 0.85994 0.18929 0.0
C623 C 0.3406 0.8537 0.14062 0.0
H624 H 0.11713 0.68082 0.6448 0.0
H625 H 0.17703 0.64294 0.6195 0.0
H626 H 0.11983 0.67252 0.73146 0.0
H627 H 0.18026 0.63565 0.70524 0.0
H628 H 0.17845 0.61617 0.86097 0.0
H629 H 0.16783 0.61775 0.7755 0.0
H630 H 0.14201 0.68402 0.79689 0.0
H631 H 0.15162 0.68206 0.88192 0.0
C632 C 0.13076 0.67064 0.65755 0.0
C633 C 0.1469 0.66273 0.62504 0.0
C634 C 0.13242 0.66598 0.7073 0.0
C635 C 0.1504 0.65353 0.72567 0.0
C636 C 0.16598 0.64495 0.69273 0.0
C637 C 0.16419 0.64935 0.64322 0.0
C638 C 0.17027 0.63095 0.84746 0.0
C639 C 0.16608 0.64902 0.87839 0.0
C640 C 0.16425 0.63192 0.79837 0.0
C641 C 0.15415 0.65109 0.77895 0.0
C642 C 0.14938 0.66882 0.81038 0.0
C643 C 0.15514 0.66776 0.85936 0.0
H644 H 0.37155 0.17066 0.61925 0.0
H645 H 0.3242 0.11829 0.64801 0.0
H646 H 0.3782 0.17481 0.70514 0.0
H647 H 0.33174 0.12176 0.73478 0.0
H648 H 0.32509 0.15754 0.88087 0.0
H649 H 0.32282 0.14713 0.7963 0.0
H650 H 0.39267 0.16177 0.77859 0.0
H651 H 0.39468 0.17324 0.86361 0.0
C652 C 0.36283 0.15965 0.64382 0.0
C653 C 0.34701 0.14434 0.62649 0.0
C654 C 0.36685 0.16193 0.69342 0.0
C655 C 0.35539 0.1488 0.72729 0.0
C656 C 0.34052 0.13254 0.70986 0.0
C657 C 0.3363 0.13041 0.66003 0.0
C658 C 0.34008 0.15842 0.85918 0.0
C659 C 0.36008 0.16638 0.87909 0.0
C660 C 0.3388 0.1522 0.81051 0.0
C661 C 0.35755 0.15348 0.78029 0.0
C662 C 0.37777 0.16087 0.80051 0.0
C663 C 0.37898 0.1674 0.84929 0.0
H664 H 0.84992 0.32463 0.87897 0.0
H665 H 0.83871 0.39516 0.86435 0.0
H666 H 0.8608 0.32246 0.79459 0.0
H667 H 0.85066 0.39321 0.77958 0.0
H668 H 0.84272 0.37405 0.61855 0.0
H669 H 0.83791 0.38031 0.70447 0.0
H670 H 0.88759 0.33045 0.73528 0.0
H671 H 0.89166 0.32333 0.64848 0.0
C672 C 0.85012 0.33981 0.85787 0.0
C673 C 0.84336 0.36009 0.87846 0.0
C674 C 0.85661 0.33858 0.80935 0.0
C675 C 0.85683 0.35766 0.77999 0.0
C676 C 0.85045 0.37809 0.80082 0.0
C677 C 0.84362 0.37926 0.84944 0.0
C678 C 0.85286 0.3645 0.64342 0.0
C679 C 0.86734 0.34785 0.62635 0.0
C680 C 0.8502 0.36829 0.69304 0.0
C681 C 0.86212 0.35573 0.72719 0.0
C682 C 0.87771 0.34009 0.7101 0.0
C683 C 0.88023 0.33613 0.66025 0.0
H684 H 0.66317 0.87699 0.88793 0.0
H685 H 0.63139 0.81522 0.84929 0.0
H686 H 0.66675 0.88652 0.80246 0.0
H687 H 0.6359 0.82414 0.76359 0.0
H688 H 0.63591 0.84907 0.61102 0.0
H689 H 0.62619 0.84567 0.69642 0.0
H690 H 0.68846 0.87665 0.73565 0.0
H691 H 0.69759 0.88098 0.65 0.0
C692 C 0.65684 0.86547 0.86106 0.0
C693 C 0.64709 0.84528 0.87536 0.0
C694 C 0.65908 0.87085 0.81194 0.0
C695 C 0.65194 0.85602 0.77572 0.0
C696 C 0.64138 0.83618 0.7902 0.0
C697 C 0.63882 0.83097 0.83945 0.0
C698 C 0.64737 0.85546 0.63794 0.0
C699 C 0.66759 0.8652 0.62375 0.0
C700 C 0.64188 0.85333 0.68702 0.0
C701 C 0.65662 0.86056 0.72333 0.0
C702 C 0.67649 0.87111 0.70896 0.0
C703 C 0.68182 0.87356 0.65974 0.0
H704 H 0.8491 0.65408 0.60997 0.0
H705 H 0.87733 0.71354 0.6722 0.0
H706 H 0.83484 0.64333 0.68893 0.0
H707 H 0.86216 0.7033 0.75139 0.0
H708 H 0.85766 0.66317 0.89247 0.0
H709 H 0.86879 0.67721 0.81355 0.0
H710 H 0.80863 0.65057 0.75053 0.0
H711 H 0.798 0.63561 0.82966 0.0
C712 C 0.85199 0.66503 0.64053 0.0
C713 C 0.86447 0.68457 0.63506 0.0
C714 C 0.84362 0.65896 0.68582 0.0
C715 C 0.8473 0.67242 0.72671 0.0
C716 C 0.85931 0.69233 0.72088 0.0
C717 C 0.86793 0.69828 0.67553 0.0
C718 C 0.84675 0.6604 0.8618 0.0
C719 C 0.82705 0.64814 0.86708 0.0
C720 C 0.85305 0.66863 0.81653 0.0
C721 C 0.83965 0.66504 0.77549 0.0
C722 C 0.81956 0.65332 0.78116 0.0
C723 C 0.81339 0.64483 0.82648 0.0
H724 H 0.35837 0.8499 0.60639 0.0
H725 H 0.29703 0.87436 0.66752 0.0
H726 H 0.36927 0.83556 0.6853 0.0
H727 H 0.30747 0.85916 0.74647 0.0
H728 H 0.3468 0.85661 0.88862 0.0
H729 H 0.33288 0.86722 0.80931 0.0
H730 H 0.363 0.80868 0.7466 0.0
H731 H 0.37775 0.79855 0.82627 0.0
C732 C 0.34706 0.85193 0.63665 0.0
C733 C 0.32694 0.86343 0.63094 0.0
C734 C 0.35323 0.84352 0.68189 0.0
C735 C 0.33931 0.84622 0.72245 0.0
C736 C 0.3188 0.85713 0.71626 0.0
C737 C 0.31274 0.86575 0.67101 0.0
C738 C 0.35037 0.84592 0.85795 0.0
C739 C 0.3635 0.82682 0.86355 0.0
C740 C 0.34221 0.85192 0.81244 0.0
C741 C 0.34677 0.83883 0.77138 0.0
C742 C 0.35945 0.81935 0.77727 0.0
C743 C 0.36782 0.81346 0.8229 0.0
H744 H 0.13943 0.29658 0.6697 0.0
H745 H 0.16377 0.35801 0.60873 0.0
H746 H 0.15431 0.30718 0.74885 0.0
H747 H 0.17779 0.36905 0.6878 0.0
H748 H 0.21415 0.37785 0.82941 0.0
H749 H 0.20449 0.36289 0.74966 0.0
H750 H 0.14564 0.33279 0.81116 0.0
H751 H 0.15578 0.34692 0.8906 0.0
C752 C 0.14798 0.31232 0.67326 0.0
C753 C 0.15034 0.32651 0.6332 0.0
C754 C 0.1564 0.31848 0.7186 0.0
C755 C 0.16715 0.33906 0.72487 0.0
C756 C 0.16994 0.35295 0.68431 0.0
C757 C 0.16172 0.3467 0.63898 0.0
C758 C 0.19927 0.36788 0.82576 0.0
C759 C 0.18568 0.36362 0.86609 0.0
C760 C 0.19365 0.35939 0.7801 0.0
C761 C 0.17423 0.34665 0.77387 0.0
C762 C 0.16091 0.34216 0.8146 0.0
C763 C 0.16663 0.35044 0.86017 0.0
H764 H 0.66461 0.15509 0.8909 0.0
H765 H 0.6348 0.21404 0.82993 0.0
H766 H 0.67897 0.14498 0.81162 0.0
H767 H 0.65003 0.20444 0.75041 0.0
H768 H 0.65425 0.1642 0.60915 0.0
H769 H 0.64348 0.17818 0.68835 0.0
H770 H 0.70469 0.15299 0.74928 0.0
H771 H 0.715 0.13811 0.66989 0.0
C772 C 0.6614 0.16608 0.86057 0.0
C773 C 0.64842 0.18526 0.86646 0.0
C774 C 0.66982 0.16038 0.81509 0.0
C775 C 0.66567 0.17386 0.77444 0.0
C776 C 0.65323 0.19346 0.78073 0.0
C777 C 0.64459 0.19904 0.82628 0.0
C778 C 0.66549 0.16176 0.63939 0.0
C779 C 0.68538 0.14991 0.63347 0.0
C780 C 0.65939 0.16996 0.68482 0.0
C781 C 0.67317 0.16672 0.72539 0.0
C782 C 0.69348 0.15547 0.71903 0.0
C783 C 0.69947 0.14703 0.67355 0.0
H784 H 0.85019 0.35954 0.3929 0.0
H785 H 0.87432 0.29806 0.33183 0.0
H786 H 0.83574 0.37041 0.31405 0.0
H787 H 0.85903 0.3085 0.25297 0.0
H788 H 0.85617 0.34765 0.11069 0.0
H789 H 0.86709 0.33395 0.18999 0.0
H790 H 0.80858 0.36393 0.25325 0.0
H791 H 0.79814 0.37846 0.17358 0.0
C792 C 0.85213 0.3482 0.36267 0.0
C793 C 0.86354 0.32803 0.36835 0.0
C794 C 0.84366 0.35435 0.31748 0.0
C795 C 0.84623 0.34038 0.27699 0.0
C796 C 0.85709 0.31985 0.28315 0.0
C797 C 0.86577 0.3138 0.32834 0.0
C798 C 0.84556 0.35123 0.14148 0.0
C799 C 0.82637 0.36424 0.13604 0.0
C800 C 0.85173 0.3432 0.18698 0.0
C801 C 0.83873 0.34778 0.22816 0.0
C802 C 0.81918 0.36037 0.22245 0.0
C803 C 0.81312 0.36861 0.17684 0.0
H804 H 0.66392 0.85774 0.10819 0.0
H805 H 0.63606 0.79813 0.17053 0.0
H806 H 0.67812 0.86857 0.18728 0.0
H807 H 0.65113 0.80843 0.24967 0.0
H808 H 0.65546 0.84819 0.39126 0.0
H809 H 0.64434 0.83431 0.31211 0.0
H810 H 0.70426 0.86155 0.24916 0.0
H811 H 0.71486 0.87629 0.32843 0.0
C812 C 0.66111 0.84677 0.13877 0.0
C813 C 0.64873 0.82717 0.1333 0.0
C814 C 0.66943 0.8529 0.18415 0.0
C815 C 0.66578 0.83943 0.2251 0.0
C816 C 0.65392 0.81944 0.21919 0.0
C817 C 0.64538 0.81344 0.17381 0.0
C818 C 0.66632 0.85112 0.36055 0.0
C819 C 0.68595 0.86347 0.36592 0.0
C820 C 0.66003 0.84299 0.31513 0.0
C821 C 0.67335 0.84681 0.27401 0.0
C822 C 0.69337 0.85863 0.27979 0.0
C823 C 0.69954 0.86698 0.32524 0.0
H824 H 0.16402 0.65297 0.39199 0.0
H825 H 0.13787 0.71379 0.3317 0.0
H826 H 0.17832 0.64252 0.31283 0.0
H827 H 0.15304 0.70379 0.25239 0.0
H828 H 0.15559 0.66396 0.11048 0.0
H829 H 0.1452 0.67806 0.18981 0.0
H830 H 0.20484 0.64959 0.25126 0.0
H831 H 0.21475 0.63463 0.17168 0.0
C832 C 0.16162 0.66428 0.36185 0.0
C833 C 0.14967 0.68411 0.36785 0.0
C834 C 0.17001 0.65838 0.31648 0.0
C835 C 0.16683 0.67228 0.27609 0.0
C836 C 0.15546 0.6925 0.28253 0.0
C837 C 0.14686 0.69831 0.32795 0.0
C838 C 0.16656 0.66081 0.14088 0.0
C839 C 0.18589 0.64804 0.13504 0.0
C840 C 0.1607 0.66908 0.18637 0.0
C841 C 0.17415 0.66497 0.22707 0.0
C842 C 0.19389 0.65275 0.22086 0.0
C843 C 0.19964 0.64426 0.17529 0.0
H844 H 0.29764 0.13693 0.33283 0.0
H845 H 0.36041 0.15843 0.39239 0.0
H846 H 0.30799 0.15248 0.25416 0.0
H847 H 0.37117 0.17314 0.31362 0.0
H848 H 0.3793 0.21173 0.17434 0.0
H849 H 0.36505 0.20109 0.25417 0.0
H850 H 0.33262 0.14417 0.18984 0.0
H851 H 0.34606 0.15528 0.11048 0.0
C852 C 0.31367 0.14492 0.32902 0.0
C853 C 0.32827 0.14635 0.36858 0.0
C854 C 0.31966 0.15376 0.28394 0.0
C855 C 0.34049 0.16399 0.27739 0.0
C856 C 0.35488 0.16571 0.31739 0.0
C857 C 0.34879 0.15709 0.36251 0.0
C858 C 0.36896 0.19708 0.1774 0.0
C859 C 0.36386 0.1843 0.13628 0.0
C860 C 0.36088 0.19089 0.2231 0.0
C861 C 0.34772 0.17171 0.22856 0.0
C862 C 0.34236 0.15924 0.18706 0.0
C863 C 0.35024 0.16552 0.1415 0.0
loop_
_geom_bond_atom_site_label_1
_geom_bond_atom_site_label_2
_geom_bond_distance
_geom_bond_site_symmetry_2
_ccdc_geom_bond_type
Co0 O1 2.216 . S
Co0 O2 2.089 1_556 S
Co0 O4 2.004 . S
Co0 O10 2.021 1_556 S
Co0 O12 2.137 . S
Co0 O13 2.244 . S
O1 Co0 2.216 . S
O1 C8 1.246 1_556 S
O2 Co0 2.089 1_554 S
O2 C8 1.261 . S
C3 O12 1.247 . S
C3 O13 1.272 . S
O4 Co0 2.004 . S
O4 C9 1.259 . S
Co5 O6 2.061 1_556 S
Co5 O11 2.039 1_556 S
Co5 O13 2.144 . S
O6 Co5 2.061 1_554 S
O6 C9 1.235 1_554 S
C7 O10 1.238 . S
C7 O11 1.241 . S
C8 O1 1.246 1_554 S
C8 O2 1.261 . S
C9 O4 1.259 . S
C9 O6 1.235 1_556 S
O10 Co0 2.021 1_554 S
O10 C7 1.238 . S
O11 Co5 2.039 1_554 S
O11 C7 1.241 . S
O12 Co0 2.137 . S
O12 C3 1.247 . S
O13 Co0 2.244 . S
O13 C3 1.272 . S
O13 Co5 2.144 . S
Co14 O15 2.216 . S
Co14 O16 2.089 1_556 S
Co14 O18 2.004 . S
Co14 O24 2.021 1_556 S
Co14 O26 2.137 . S
Co14 O27 2.244 . S
O15 Co14 2.216 . S
O15 C22 1.246 1_556 S
O16 Co14 2.089 1_554 S
O16 C22 1.261 . S
C17 O26 1.247 . S
C17 O27 1.272 . S
O18 Co14 2.004 . S
O18 C23 1.259 . S
Co19 O20 2.061 1_556 S
Co19 O25 2.039 1_556 S
Co19 O27 2.144 . S
O20 Co19 2.061 1_554 S
O20 C23 1.235 1_554 S
C21 O24 1.238 . S
C21 O25 1.241 . S
C22 O15 1.246 1_554 S
C22 O16 1.261 . S
C23 O18 1.259 . S
C23 O20 1.235 1_556 S
O24 Co14 2.021 1_554 S
O24 C21 1.238 . S
O25 Co19 2.039 1_554 S
O25 C21 1.241 . S
O26 Co14 2.137 . S
O26 C17 1.247 . S
O27 Co14 2.244 . S
O27 C17 1.272 . S
O27 Co19 2.144 . S
Co28 O29 2.216 . S
Co28 O30 2.089 1_556 S
Co28 O32 2.004 . S
Co28 O38 2.021 1_556 S
Co28 O40 2.137 . S
Co28 O41 2.244 . S
O29 Co28 2.216 . S
O29 C36 1.246 1_556 S
O30 Co28 2.089 1_554 S
O30 C36 1.261 . S
C31 O40 1.247 . S
C31 O41 1.272 . S
O32 Co28 2.004 . S
O32 C37 1.259 . S
Co33 O34 2.061 1_556 S
Co33 O39 2.039 1_556 S
Co33 O41 2.144 . S
O34 Co33 2.061 1_554 S
O34 C37 1.235 1_554 S
C35 O38 1.238 . S
C35 O39 1.241 . S
C36 O29 1.246 1_554 S
C36 O30 1.261 . S
C37 O32 1.259 . S
C37 O34 1.235 1_556 S
O38 Co28 2.021 1_554 S
O38 C35 1.238 . S
O39 Co33 2.039 1_554 S
O39 C35 1.241 . S
O40 Co28 2.137 . S
O40 C31 1.247 . S
O41 Co28 2.244 . S
O41 C31 1.272 . S
O41 Co33 2.144 . S
Co42 O43 2.216 . S
Co42 O44 2.089 1_556 S
Co42 O46 2.004 . S
Co42 O52 2.021 1_556 S
Co42 O54 2.137 . S
Co42 O55 2.244 . S
O43 Co42 2.216 . S
O43 C50 1.246 1_556 S
O44 Co42 2.089 1_554 S
O44 C50 1.261 . S
C45 O54 1.247 . S
C45 O55 1.272 . S
O46 Co42 2.004 . S
O46 C51 1.259 . S
Co47 O48 2.061 1_556 S
Co47 O53 2.039 1_556 S
Co47 O55 2.144 . S
O48 Co47 2.061 1_554 S
O48 C51 1.235 1_554 S
C49 O52 1.238 . S
C49 O53 1.241 . S
C50 O43 1.246 1_554 S
C50 O44 1.261 . S
C51 O46 1.259 . S
C51 O48 1.235 1_556 S
O52 Co42 2.021 1_554 S
O52 C49 1.238 . S
O53 Co47 2.039 1_554 S
O53 C49 1.241 . S
O54 Co42 2.137 . S
O54 C45 1.247 . S
O55 Co42 2.244 . S
O55 C45 1.272 . S
O55 Co47 2.144 . S
Co56 O57 2.216 . S
Co56 O58 2.091 1_554 S
Co56 O60 2.004 . S
Co56 O66 2.021 1_554 S
Co56 O68 2.137 . S
Co56 O69 2.244 . S
O57 Co56 2.216 . S
O57 C64 1.248 . S
O58 Co56 2.091 1_556 S
O58 C64 1.261 1_556 S
C59 O68 1.247 . S
C59 O69 1.272 . S
O60 Co56 2.004 . S
O60 C65 1.259 . S
Co61 O62 2.061 1_554 S
Co61 O67 2.052 1_554 S
Co61 O69 2.135 . S
O62 Co61 2.061 1_556 S
O62 C65 1.235 1_556 S
C63 O66 1.238 . S
C63 O67 1.241 . S
C64 O57 1.248 . S
C64 O58 1.261 1_554 S
C65 O60 1.259 . S
C65 O62 1.235 1_554 S
O66 Co56 2.021 1_556 S
O66 C63 1.238 . S
O67 Co61 2.052 1_556 S
O67 C63 1.241 . S
O68 Co56 2.137 . S
O68 C59 1.247 . S
O69 Co56 2.244 . S
O69 C59 1.272 . S
O69 Co61 2.135 . S
Co70 O71 2.216 . S
Co70 O72 2.091 1_554 S
Co70 O74 2.004 . S
Co70 O80 2.021 1_554 S
Co70 O82 2.137 . S
Co70 O83 2.244 . S
O71 Co70 2.216 . S
O71 C78 1.248 . S
O72 Co70 2.091 1_556 S
O72 C78 1.261 1_556 S
C73 O82 1.247 . S
C73 O83 1.272 . S
O74 Co70 2.004 . S
O74 C79 1.259 . S
Co75 O76 2.061 1_554 S
Co75 O81 2.052 1_554 S
Co75 O83 2.135 . S
O76 Co75 2.061 1_556 S
O76 C79 1.235 1_556 S
C77 O80 1.238 . S
C77 O81 1.241 . S
C78 O71 1.248 . S
C78 O72 1.261 1_554 S
C79 O74 1.259 . S
C79 O76 1.235 1_554 S
O80 Co70 2.021 1_556 S
O80 C77 1.238 . S
O81 Co75 2.052 1_556 S
O81 C77 1.241 . S
O82 Co70 2.137 . S
O82 C73 1.247 . S
O83 Co70 2.244 . S
O83 C73 1.272 . S
O83 Co75 2.135 . S
Co84 O85 2.216 . S
Co84 O86 2.091 1_554 S
Co84 O88 2.004 . S
Co84 O94 2.021 1_554 S
Co84 O96 2.137 . S
Co84 O97 2.244 . S
O85 Co84 2.216 . S
O85 C92 1.248 . S
O86 Co84 2.091 1_556 S
O86 C92 1.261 1_556 S
C87 O96 1.247 . S
C87 O97 1.272 . S
O88 Co84 2.004 . S
O88 C93 1.259 . S
Co89 O90 2.061 1_554 S
Co89 O95 2.052 1_554 S
Co89 O97 2.135 . S
O90 Co89 2.061 1_556 S
O90 C93 1.235 1_556 S
C91 O94 1.238 . S
C91 O95 1.241 . S
C92 O85 1.248 . S
C92 O86 1.261 1_554 S
C93 O88 1.259 . S
C93 O90 1.235 1_554 S
O94 Co84 2.021 1_556 S
O94 C91 1.238 . S
O95 Co89 2.052 1_556 S
O95 C91 1.241 . S
O96 Co84 2.137 . S
O96 C87 1.247 . S
O97 Co84 2.244 . S
O97 C87 1.272 . S
O97 Co89 2.135 . S
Co98 O99 2.216 . S
Co98 O100 2.091 1_554 S
Co98 O102 2.004 . S
Co98 O108 2.021 1_554 S
Co98 O110 2.137 . S
Co98 O111 2.244 . S
O99 Co98 2.216 . S
O99 C106 1.248 . S
O100 Co98 2.091 1_556 S
O100 C106 1.261 1_556 S
C101 O110 1.247 . S
C101 O111 1.272 . S
O102 Co98 2.004 . S
O102 C107 1.259 . S
Co103 O104 2.061 1_554 S
Co103 O109 2.052 1_554 S
Co103 O111 2.135 . S
O104 Co103 2.061 1_556 S
O104 C107 1.235 1_556 S
C105 O108 1.238 . S
C105 O109 1.241 . S
C106 O99 1.248 . S
C106 O100 1.261 1_554 S
C107 O102 1.259 . S
C107 O104 1.235 1_554 S
O108 Co98 2.021 1_556 S
O108 C105 1.238 . S
O109 Co103 2.052 1_556 S
O109 C105 1.241 . S
O110 Co98 2.137 . S
O110 C101 1.247 . S
O111 Co98 2.244 . S
O111 C101 1.272 . S
O111 Co103 2.135 . S
Co112 O113 2.216 . S
Co112 O114 2.091 . S
Co112 O116 2.004 . S
Co112 O122 2.021 . S
Co112 O124 2.137 . S
Co112 O125 2.244 . S
O113 Co112 2.216 . S
O113 C120 1.247 . S
O114 Co112 2.091 . S
O114 C120 1.261 . S
C115 O124 1.247 . S
C115 O125 1.272 . S
O116 Co112 2.004 . S
O116 C121 1.259 . S
Co117 O118 2.061 . S
Co117 O123 2.052 . S
Co117 O125 2.135 . S
O118 Co117 2.061 . S
O118 C121 1.235 . S
C119 O122 1.238 . S
C119 O123 1.241 . S
C120 O113 1.247 . S
C120 O114 1.261 . S
C121 O116 1.259 . S
C121 O118 1.235 . S
O122 Co112 2.021 . S
O122 C119 1.238 . S
O123 Co117 2.052 . S
O123 C119 1.241 . S
O124 Co112 2.137 . S
O124 C115 1.247 . S
O125 Co112 2.244 . S
O125 C115 1.272 . S
O125 Co117 2.135 . S
Co126 O127 2.216 . S
Co126 O128 2.091 . S
Co126 O130 2.004 . S
Co126 O136 2.021 . S
Co126 O138 2.137 . S
Co126 O139 2.244 . S
O127 Co126 2.216 . S
O127 C134 1.247 . S
O128 Co126 2.091 . S
O128 C134 1.261 . S
C129 O138 1.247 . S
C129 O139 1.272 . S
O130 Co126 2.004 . S
O130 C135 1.259 . S
Co131 O132 2.061 . S
Co131 O137 2.052 . S
Co131 O139 2.135 . S
O132 Co131 2.061 . S
O132 C135 1.235 . S
C133 O136 1.238 . S
C133 O137 1.241 . S
C134 O127 1.247 . S
C134 O128 1.261 . S
C135 O130 1.259 . S
C135 O132 1.235 . S
O136 Co126 2.021 . S
O136 C133 1.238 . S
O137 Co131 2.052 . S
O137 C133 1.241 . S
O138 Co126 2.137 . S
O138 C129 1.247 . S
O139 Co126 2.244 . S
O139 C129 1.272 . S
O139 Co131 2.135 . S
Co140 O141 2.216 . S
Co140 O142 2.091 . S
Co140 O144 2.004 . S
Co140 O150 2.021 . S
Co140 O152 2.137 . S
Co140 O153 2.244 . S
O141 Co140 2.216 . S
O141 C148 1.247 . S
O142 Co140 2.091 . S
O142 C148 1.261 . S
C143 O152 1.247 . S
C143 O153 1.272 . S
O144 Co140 2.004 . S
O144 C149 1.259 . S
Co145 O146 2.061 . S
Co145 O151 2.052 . S
Co145 O153 2.135 . S
O146 Co145 2.061 . S
O146 C149 1.235 . S
C147 O150 1.238 . S
C147 O151 1.241 . S
C148 O141 1.247 . S
C148 O142 1.261 . S
C149 O144 1.259 . S
C149 O146 1.235 . S
O150 Co140 2.021 . S
O150 C147 1.238 . S
O151 Co145 2.052 . S
O151 C147 1.241 . S
O152 Co140 2.137 . S
O152 C143 1.247 . S
O153 Co140 2.244 . S
O153 C143 1.272 . S
O153 Co145 2.135 . S
Co154 O155 2.216 . S
Co154 O156 2.091 . S
Co154 O158 2.004 . S
Co154 O164 2.021 . S
Co154 O166 2.137 . S
Co154 O167 2.244 . S
O155 Co154 2.216 . S
O155 C162 1.247 . S
O156 Co154 2.091 . S
O156 C162 1.261 . S
C157 O166 1.247 . S
C157 O167 1.272 . S
O158 Co154 2.004 . S
O158 C163 1.259 . S
Co159 O160 2.061 . S
Co159 O165 2.052 . S
Co159 O167 2.135 . S
O160 Co159 2.061 . S
O160 C163 1.235 . S
C161 O164 1.238 . S
C161 O165 1.241 . S
C162 O155 1.247 . S
C162 O156 1.261 . S
C163 O158 1.259 . S
C163 O160 1.235 . S
O164 Co154 2.021 . S
O164 C161 1.238 . S
O165 Co159 2.052 . S
O165 C161 1.241 . S
O166 Co154 2.137 . S
O166 C157 1.247 . S
O167 Co154 2.244 . S
O167 C157 1.272 . S
O167 Co159 2.135 . S
Co168 O169 2.216 . S
Co168 O170 2.091 . S
Co168 O172 2.004 . S
Co168 O178 2.021 . S
Co168 O180 2.137 . S
Co168 O181 2.244 . S
O169 Co168 2.216 . S
O169 C176 1.247 . S
O170 Co168 2.091 . S
O170 C176 1.261 . S
C171 O180 1.247 . S
C171 O181 1.272 . S
O172 Co168 2.004 . S
O172 C177 1.259 . S
Co173 O174 2.061 . S
Co173 O179 2.052 . S
Co173 O181 2.135 . S
O174 Co173 2.061 . S
O174 C177 1.235 . S
C175 O178 1.238 . S
C175 O179 1.241 . S
C176 O169 1.247 . S
C176 O170 1.261 . S
C177 O172 1.259 . S
C177 O174 1.235 . S
O178 Co168 2.021 . S
O178 C175 1.238 . S
O179 Co173 2.052 . S
O179 C175 1.241 . S
O180 Co168 2.137 . S
O180 C171 1.247 . S
O181 Co168 2.244 . S
O181 C171 1.272 . S
O181 Co173 2.135 . S
Co182 O183 2.216 . S
Co182 O184 2.091 . S
Co182 O186 2.004 . S
Co182 O192 2.021 . S
Co182 O194 2.137 . S
Co182 O195 2.244 . S
O183 Co182 2.216 . S
O183 C190 1.247 . S
O184 Co182 2.091 . S
O184 C190 1.261 . S
C185 O194 1.247 . S
C185 O195 1.272 . S
O186 Co182 2.004 . S
O186 C191 1.259 . S
Co187 O188 2.061 . S
Co187 O193 2.052 . S
Co187 O195 2.135 . S
O188 Co187 2.061 . S
O188 C191 1.235 . S
C189 O192 1.238 . S
C189 O193 1.241 . S
C190 O183 1.247 . S
C190 O184 1.261 . S
C191 O186 1.259 . S
C191 O188 1.235 . S
O192 Co182 2.021 . S
O192 C189 1.238 . S
O193 Co187 2.052 . S
O193 C189 1.241 . S
O194 Co182 2.137 . S
O194 C185 1.247 . S
O195 Co182 2.244 . S
O195 C185 1.272 . S
O195 Co187 2.135 . S
Co196 O197 2.216 . S
Co196 O198 2.091 . S
Co196 O200 2.004 . S
Co196 O206 2.021 . S
Co196 O208 2.137 . S
Co196 O209 2.244 . S
O197 Co196 2.216 . S
O197 C204 1.247 . S
O198 Co196 2.091 . S
O198 C204 1.261 . S
C199 O208 1.247 . S
C199 O209 1.272 . S
O200 Co196 2.004 . S
O200 C205 1.259 . S
Co201 O202 2.061 . S
Co201 O207 2.052 . S
Co201 O209 2.135 . S
O202 Co201 2.061 . S
O202 C205 1.235 . S
C203 O206 1.238 . S
C203 O207 1.241 . S
C204 O197 1.247 . S
C204 O198 1.261 . S
C205 O200 1.259 . S
C205 O202 1.235 . S
O206 Co196 2.021 . S
O206 C203 1.238 . S
O207 Co201 2.052 . S
O207 C203 1.241 . S
O208 Co196 2.137 . S
O208 C199 1.247 . S
O209 Co196 2.244 . S
O209 C199 1.272 . S
O209 Co201 2.135 . S
Co210 O211 2.216 . S
Co210 O212 2.091 . S
Co210 O214 2.004 . S
Co210 O220 2.021 . S
Co210 O222 2.137 . S
Co210 O223 2.244 . S
O211 Co210 2.216 . S
O211 C218 1.247 . S
O212 Co210 2.091 . S
O212 C218 1.261 . S
C213 O222 1.247 . S
C213 O223 1.272 . S
O214 Co210 2.004 . S
O214 C219 1.259 . S
Co215 O216 2.061 . S
Co215 O221 2.052 . S
Co215 O223 2.135 . S
O216 Co215 2.061 . S
O216 C219 1.235 . S
C217 O220 1.238 . S
C217 O221 1.241 . S
C218 O211 1.247 . S
C218 O212 1.261 . S
C219 O214 1.259 . S
C219 O216 1.235 . S
O220 Co210 2.021 . S
O220 C217 1.238 . S
O221 Co215 2.052 . S
O221 C217 1.241 . S
O222 Co210 2.137 . S
O222 C213 1.247 . S
O223 Co210 2.244 . S
O223 C213 1.272 . S
O223 Co215 2.135 . S
H224 C232 0.950 . S
H225 C237 0.950 . S
H226 C234 0.950 . S
H227 C236 0.950 . S
H228 C238 0.950 . S
H229 C240 0.950 . S
H230 C242 0.950 . S
H231 C243 0.950 . S
C232 H224 0.950 . S
C232 C233 1.386 1_554 S
C232 C234 1.391 . S
C233 C232 1.386 1_556 S
C233 C237 1.393 . S
C234 H226 0.950 . S
C234 C232 1.391 . S
C234 C235 1.390 1_554 S
C235 C234 1.390 1_556 S
C235 C236 1.409 . S
C235 C241 1.490 1_556 S
C236 H227 0.950 . S
C236 C235 1.409 . S
C236 C237 1.391 . S
C237 H225 0.950 . S
C237 C233 1.393 . S
C237 C236 1.391 . S
C238 H228 0.950 . S
C238 C239 1.386 1_556 S
C238 C240 1.391 . S
C239 C238 1.386 1_554 S
C239 C243 1.393 . S
C240 H229 0.950 . S
C240 C238 1.391 . S
C240 C241 1.400 1_556 S
C241 C235 1.490 1_554 S
C241 C240 1.400 1_554 S
C241 C242 1.398 . S
C242 H230 0.950 . S
C242 C241 1.398 . S
C242 C243 1.391 . S
C243 H231 0.950 . S
C243 C239 1.393 . S
C243 C242 1.391 . S
H244 C252 0.950 . S
H245 C257 0.950 . S
H246 C254 0.950 . S
H247 C256 0.950 . S
H248 C258 0.950 . S
H249 C260 0.950 . S
H250 C262 0.950 . S
H251 C263 0.950 . S
C252 H244 0.950 . S
C252 C253 1.384 1_556 S
C252 C254 1.391 . S
C253 C252 1.384 1_554 S
C253 C257 1.394 . S
C254 H246 0.950 . S
C254 C252 1.391 . S
C254 C255 1.390 1_556 S
C255 C254 1.390 1_554 S
C255 C256 1.409 . S
C255 C261 1.490 1_554 S
C256 H247 0.950 . S
C256 C255 1.409 . S
C256 C257 1.391 . S
C257 H245 0.950 . S
C257 C253 1.394 . S
C257 C256 1.391 . S
C258 H248 0.950 . S
C258 C259 1.392 . S
C258 C260 1.391 . S
C259 C258 1.392 . S
C259 C263 1.386 1_554 S
C260 H249 0.950 . S
C260 C258 1.391 . S
C260 C261 1.401 1_554 S
C261 C255 1.490 1_556 S
C261 C260 1.401 1_556 S
C261 C262 1.398 . S
C262 H250 0.950 . S
C262 C261 1.398 . S
C262 C263 1.391 . S
C263 H251 0.950 . S
C263 C259 1.386 1_556 S
C263 C262 1.391 . S
H264 C272 0.950 . S
H265 C277 0.950 . S
H266 C274 0.950 . S
H267 C276 0.950 . S
H268 C278 0.950 . S
H269 C280 0.950 . S
H270 C282 0.950 . S
H271 C283 0.950 . S
C272 H264 0.950 . S
C272 C273 1.386 1_554 S
C272 C274 1.391 . S
C273 C272 1.386 1_556 S
C273 C277 1.393 . S
C274 H266 0.950 . S
C274 C272 1.391 . S
C274 C275 1.395 1_554 S
C275 C274 1.395 1_556 S
C275 C276 1.403 . S
C275 C281 1.490 1_556 S
C276 H267 0.950 . S
C276 C275 1.403 . S
C276 C277 1.391 . S
C277 H265 0.950 . S
C277 C273 1.393 . S
C277 C276 1.391 . S
C278 H268 0.950 . S
C278 C279 1.386 1_556 S
C278 C280 1.391 . S
C279 C278 1.386 1_554 S
C279 C283 1.393 . S
C280 H269 0.950 . S
C280 C278 1.391 . S
C280 C281 1.400 1_556 S
C281 C275 1.490 1_554 S
C281 C280 1.400 1_554 S
C281 C282 1.398 . S
C282 H270 0.950 . S
C282 C281 1.398 . S
C282 C283 1.391 . S
C283 H271 0.950 . S
C283 C279 1.393 . S
C283 C282 1.391 . S
H284 C292 0.950 . S
H285 C297 0.950 . S
H286 C294 0.950 . S
H287 C296 0.950 . S
H288 C298 0.950 . S
H289 C300 0.950 . S
H290 C302 0.950 . S
H291 C303 0.950 . S
C292 H284 0.950 . S
C292 C293 1.386 . S
C292 C294 1.391 . S
C293 C292 1.386 . S
C293 C297 1.393 1_556 S
C294 H286 0.950 . S
C294 C292 1.391 . S
C294 C295 1.405 . S
C295 C294 1.405 . S
C295 C296 1.394 1_556 S
C295 C301 1.490 1_556 S
C296 H287 0.950 . S
C296 C295 1.394 1_554 S
C296 C297 1.391 . S
C297 H285 0.950 . S
C297 C293 1.393 1_554 S
C297 C296 1.391 . S
C298 H288 0.950 . S
C298 C299 1.386 . S
C298 C300 1.391 . S
C299 C298 1.386 . S
C299 C303 1.393 1_554 S
C300 H289 0.950 . S
C300 C298 1.391 . S
C300 C301 1.400 . S
C301 C295 1.490 1_554 S
C301 C300 1.400 . S
C301 C302 1.398 1_554 S
C302 H290 0.950 . S
C302 C301 1.398 1_556 S
C302 C303 1.391 . S
C303 H291 0.950 . S
C303 C299 1.393 1_556 S
C303 C302 1.391 . S
H304 C312 0.950 . S
H305 C317 0.950 . S
H306 C314 0.950 . S
H307 C316 0.950 . S
H308 C318 0.950 . S
H309 C320 0.950 . S
H310 C322 0.950 . S
H311 C323 0.950 . S
C312 H304 0.950 . S
C312 C313 1.386 . S
C312 C314 1.391 . S
C313 C312 1.386 . S
C313 C317 1.393 . S
C314 H306 0.950 . S
C314 C312 1.391 . S
C314 C315 1.400 . S
C315 C314 1.400 . S
C315 C316 1.398 . S
C315 C321 1.491 1_545 S
C316 H307 0.950 . S
C316 C315 1.398 . S
C316 C317 1.391 . S
C317 H305 0.950 . S
C317 C313 1.393 . S
C317 C316 1.391 . S
C318 H308 0.950 . S
C318 C319 1.386 . S
C318 C320 1.391 . S
C319 C318 1.386 . S
C319 C323 1.393 . S
C320 H309 0.950 . S
C320 C318 1.391 . S
C320 C321 1.400 . S
C321 C315 1.491 1_565 S
C321 C320 1.400 . S
C321 C322 1.398 . S
C322 H310 0.950 . S
C322 C321 1.398 . S
C322 C323 1.391 . S
C323 H311 0.950 . S
C323 C319 1.393 . S
C323 C322 1.391 . S
H324 C332 0.950 . S
H325 C337 0.950 . S
H326 C334 0.950 . S
H327 C336 0.950 . S
H328 C338 0.950 . S
H329 C340 0.950 . S
H330 C342 0.950 . S
H331 C343 0.950 . S
C332 H324 0.950 . S
C332 C333 1.386 . S
C332 C334 1.391 . S
C333 C332 1.386 . S
C333 C337 1.393 . S
C334 H326 0.950 . S
C334 C332 1.391 . S
C334 C335 1.400 . S
C335 C334 1.400 . S
C335 C336 1.398 . S
C335 C341 1.491 1_655 S
C336 H327 0.950 . S
C336 C335 1.398 . S
C336 C337 1.391 . S
C337 H325 0.950 . S
C337 C333 1.393 . S
C337 C336 1.391 . S
C338 H328 0.950 . S
C338 C339 1.386 . S
C338 C340 1.391 . S
C339 C338 1.386 . S
C339 C343 1.393 . S
C340 H329 0.950 . S
C340 C338 1.391 . S
C340 C341 1.400 . S
C341 C335 1.491 1_455 S
C341 C340 1.400 . S
C341 C342 1.398 . S
C342 H330 0.950 . S
C342 C341 1.398 . S
C342 C343 1.391 . S
C343 H331 0.950 . S
C343 C339 1.393 . S
C343 C342 1.391 . S
H344 C352 0.950 . S
H345 C357 0.950 . S
H346 C354 0.950 . S
H347 C356 0.950 . S
H348 C358 0.950 . S
H349 C360 0.950 . S
H350 C362 0.950 . S
H351 C363 0.950 . S
C352 H344 0.950 . S
C352 C353 1.386 . S
C352 C354 1.391 . S
C353 C352 1.386 . S
C353 C357 1.393 . S
C354 H346 0.950 . S
C354 C352 1.391 . S
C354 C355 1.400 . S
C355 C354 1.400 . S
C355 C356 1.398 . S
C355 C361 1.491 1_545 S
C356 H347 0.950 . S
C356 C355 1.398 . S
C356 C357 1.391 . S
C357 H345 0.950 . S
C357 C353 1.393 . S
C357 C356 1.391 . S
C358 H348 0.950 . S
C358 C359 1.386 . S
C358 C360 1.391 . S
C359 C358 1.386 . S
C359 C363 1.393 . S
C360 H349 0.950 . S
C360 C358 1.391 . S
C360 C361 1.400 . S
C361 C355 1.491 1_565 S
C361 C360 1.400 . S
C361 C362 1.398 . S
C362 H350 0.950 . S
C362 C361 1.398 . S
C362 C363 1.391 . S
C363 H351 0.950 . S
C363 C359 1.393 . S
C363 C362 1.391 . S
H364 C372 0.950 . S
H365 C377 0.950 . S
H366 C374 0.950 . S
H367 C376 0.950 . S
H368 C378 0.950 . S
H369 C380 0.950 . S
H370 C382 0.950 . S
H371 C383 0.950 . S
C372 H364 0.950 . S
C372 C373 1.386 . S
C372 C374 1.391 . S
C373 C372 1.386 . S
C373 C377 1.393 . S
C374 H366 0.950 . S
C374 C372 1.391 . S
C374 C375 1.400 . S
C375 C374 1.400 . S
C375 C376 1.398 . S
C375 C381 1.491 1_455 S
C376 H367 0.950 . S
C376 C375 1.398 . S
C376 C377 1.391 . S
C377 H365 0.950 . S
C377 C373 1.393 . S
C377 C376 1.391 . S
C378 H368 0.950 . S
C378 C379 1.386 . S
C378 C380 1.391 . S
C379 C378 1.386 . S
C379 C383 1.393 . S
C380 H369 0.950 . S
C380 C378 1.391 . S
C380 C381 1.400 . S
C381 C375 1.491 1_655 S
C381 C380 1.400 . S
C381 C382 1.398 . S
C382 H370 0.950 . S
C382 C381 1.398 . S
C382 C383 1.391 . S
C383 H371 0.950 . S
C383 C379 1.393 . S
C383 C382 1.391 . S
H384 C392 0.950 . S
H385 C397 0.950 . S
H386 C394 0.950 . S
H387 C396 0.950 . S
H388 C398 0.950 . S
H389 C400 0.950 . S
H390 C402 0.950 . S
H391 C403 0.950 . S
C392 H384 0.950 . S
C392 C393 1.392 . S
C392 C394 1.391 . S
C393 C392 1.392 . S
C393 C397 1.387 1_554 S
C394 H386 0.950 . S
C394 C392 1.391 . S
C394 C395 1.408 . S
C395 C394 1.408 . S
C395 C396 1.391 1_554 S
C395 C401 1.490 1_554 S
C396 H387 0.950 . S
C396 C395 1.391 1_556 S
C396 C397 1.391 . S
C397 H385 0.950 . S
C397 C393 1.387 1_556 S
C397 C396 1.391 . S
C398 H388 0.950 . S
C398 C399 1.385 . S
C398 C400 1.391 . S
C399 C398 1.385 . S
C399 C403 1.393 1_556 S
C400 H389 0.950 . S
C400 C398 1.391 . S
C400 C401 1.401 . S
C401 C395 1.490 1_556 S
C401 C400 1.401 . S
C401 C402 1.397 1_556 S
C402 H390 0.950 . S
C402 C401 1.397 1_554 S
C402 C403 1.391 . S
C403 H391 0.950 . S
C403 C399 1.393 1_554 S
C403 C402 1.391 . S
H404 C412 0.950 . S
H405 C417 0.950 . S
H406 C414 0.950 . S
H407 C416 0.950 . S
H408 C418 0.950 . S
H409 C420 0.950 . S
H410 C422 0.950 . S
H411 C423 0.950 . S
C412 H404 0.950 . S
C412 C413 1.385 1_556 S
C412 C414 1.391 . S
C413 C412 1.385 1_554 S
C413 C417 1.393 . S
C414 H406 0.950 . S
C414 C412 1.391 . S
C414 C415 1.401 . S
C415 C414 1.401 . S
C415 C416 1.398 1_556 S
C415 C421 1.490 1_556 S
C416 H407 0.950 . S
C416 C415 1.398 1_554 S
C416 C417 1.391 . S
C417 H405 0.950 . S
C417 C413 1.393 . S
C417 C416 1.391 . S
C418 H408 0.950 . S
C418 C419 1.392 . S
C418 C420 1.391 . S
C419 C418 1.392 . S
C419 C423 1.387 1_554 S
C420 H409 0.950 . S
C420 C418 1.391 . S
C420 C421 1.410 . S
C421 C415 1.490 1_554 S
C421 C420 1.410 . S
C421 C422 1.389 1_554 S
C422 H410 0.950 . S
C422 C421 1.389 1_556 S
C422 C423 1.391 . S
C423 H411 0.950 . S
C423 C419 1.387 1_556 S
C423 C422 1.391 . S
H424 C432 0.950 . S
H425 C437 0.950 . S
H426 C434 0.950 . S
H427 C436 0.950 . S
H428 C438 0.950 . S
H429 C440 0.950 . S
H430 C442 0.950 . S
H431 C443 0.950 . S
C432 H424 0.950 . S
C432 C433 1.378 1_554 S
C432 C434 1.391 . S
C433 C432 1.378 1_556 S
C433 C437 1.400 . S
C434 H426 0.950 . S
C434 C432 1.391 . S
C434 C435 1.405 . S
C435 C434 1.405 . S
C435 C436 1.393 1_554 S
C435 C441 1.491 . S
C436 H427 0.950 . S
C436 C435 1.393 1_556 S
C436 C437 1.391 . S
C437 H425 0.950 . S
C437 C433 1.400 . S
C437 C436 1.391 . S
C438 H428 0.950 . S
C438 C439 1.386 1_556 S
C438 C440 1.391 . S
C439 C438 1.386 1_554 S
C439 C443 1.393 . S
C440 H429 0.950 . S
C440 C438 1.391 . S
C440 C441 1.394 1_556 S
C441 C435 1.491 . S
C441 C440 1.394 1_554 S
C441 C442 1.405 . S
C442 H430 0.950 . S
C442 C441 1.405 . S
C442 C443 1.391 . S
C443 H431 0.950 . S
C443 C439 1.393 . S
C443 C442 1.391 . S
H444 C452 0.950 . S
H445 C457 0.950 . S
H446 C454 0.950 . S
H447 C456 0.950 . S
H448 C458 0.950 . S
H449 C460 0.950 . S
H450 C462 0.950 . S
H451 C463 0.950 . S
C452 H444 0.950 . S
C452 C453 1.386 1_556 S
C452 C454 1.391 . S
C453 C452 1.386 1_554 S
C453 C457 1.393 . S
C454 H446 0.950 . S
C454 C452 1.391 . S
C454 C455 1.395 1_556 S
C455 C454 1.395 1_554 S
C455 C456 1.403 . S
C455 C461 1.491 . S
C456 H447 0.950 . S
C456 C455 1.403 . S
C456 C457 1.391 . S
C457 H445 0.950 . S
C457 C453 1.393 . S
C457 C456 1.391 . S
C458 H448 0.950 . S
C458 C459 1.380 1_554 S
C458 C460 1.391 . S
C459 C458 1.380 1_556 S
C459 C463 1.398 . S
C460 H449 0.950 . S
C460 C458 1.391 . S
C460 C461 1.406 . S
C461 C455 1.491 . S
C461 C460 1.406 . S
C461 C462 1.393 1_554 S
C462 H450 0.950 . S
C462 C461 1.393 1_556 S
C462 C463 1.391 . S
C463 H451 0.950 . S
C463 C459 1.398 . S
C463 C462 1.391 . S
H464 C472 0.950 . S
H465 C477 0.950 . S
H466 C474 0.950 . S
H467 C476 0.950 . S
H468 C478 0.950 . S
H469 C480 0.950 . S
H470 C482 0.950 . S
H471 C483 0.950 . S
C472 H464 0.950 . S
C472 C473 1.386 . S
C472 C474 1.391 . S
C473 C472 1.386 . S
C473 C477 1.393 . S
C474 H466 0.950 . S
C474 C472 1.391 . S
C474 C475 1.400 . S
C475 C474 1.400 . S
C475 C476 1.398 . S
C475 C481 1.491 . S
C476 H467 0.950 . S
C476 C475 1.398 . S
C476 C477 1.391 . S
C477 H465 0.950 . S
C477 C473 1.393 . S
C477 C476 1.391 . S
C478 H468 0.950 . S
C478 C479 1.386 . S
C478 C480 1.391 . S
C479 C478 1.386 . S
C479 C483 1.393 . S
C480 H469 0.950 . S
C480 C478 1.391 . S
C480 C481 1.400 . S
C481 C475 1.491 . S
C481 C480 1.400 . S
C481 C482 1.398 . S
C482 H470 0.950 . S
C482 C481 1.398 . S
C482 C483 1.391 . S
C483 H471 0.950 . S
C483 C479 1.393 . S
C483 C482 1.391 . S
H484 C492 0.950 . S
H485 C497 0.950 . S
H486 C494 0.950 . S
H487 C496 0.950 . S
H488 C498 0.950 . S
H489 C500 0.950 . S
H490 C502 0.950 . S
H491 C503 0.950 . S
C492 H484 0.950 . S
C492 C493 1.386 . S
C492 C494 1.391 . S
C493 C492 1.386 . S
C493 C497 1.393 . S
C494 H486 0.950 . S
C494 C492 1.391 . S
C494 C495 1.400 . S
C495 C494 1.400 . S
C495 C496 1.398 . S
C495 C501 1.491 . S
C496 H487 0.950 . S
C496 C495 1.398 . S
C496 C497 1.391 . S
C497 H485 0.950 . S
C497 C493 1.393 . S
C497 C496 1.391 . S
C498 H488 0.950 . S
C498 C499 1.386 . S
C498 C500 1.391 . S
C499 C498 1.386 . S
C499 C503 1.393 . S
C500 H489 0.950 . S
C500 C498 1.391 . S
C500 C501 1.400 . S
C501 C495 1.491 . S
C501 C500 1.400 . S
C501 C502 1.398 . S
C502 H490 0.950 . S
C502 C501 1.398 . S
C502 C503 1.391 . S
C503 H491 0.950 . S
C503 C499 1.393 . S
C503 C502 1.391 . S
H504 C512 0.950 . S
H505 C517 0.950 . S
H506 C514 0.950 . S
H507 C516 0.950 . S
H508 C518 0.950 . S
H509 C520 0.950 . S
H510 C522 0.950 . S
H511 C523 0.950 . S
C512 H504 0.950 . S
C512 C513 1.386 . S
C512 C514 1.391 . S
C513 C512 1.386 . S
C513 C517 1.393 . S
C514 H506 0.950 . S
C514 C512 1.391 . S
C514 C515 1.400 . S
C515 C514 1.400 . S
C515 C516 1.398 . S
C515 C521 1.491 . S
C516 H507 0.950 . S
C516 C515 1.398 . S
C516 C517 1.391 . S
C517 H505 0.950 . S
C517 C513 1.393 . S
C517 C516 1.391 . S
C518 H508 0.950 . S
C518 C519 1.386 . S
C518 C520 1.391 . S
C519 C518 1.386 . S
C519 C523 1.393 . S
C520 H509 0.950 . S
C520 C518 1.391 . S
C520 C521 1.400 . S
C521 C515 1.491 . S
C521 C520 1.400 . S
C521 C522 1.398 . S
C522 H510 0.950 . S
C522 C521 1.398 . S
C522 C523 1.391 . S
C523 H511 0.950 . S
C523 C519 1.393 . S
C523 C522 1.391 . S
H524 C532 0.950 . S
H525 C537 0.950 . S
H526 C534 0.950 . S
H527 C536 0.950 . S
H528 C538 0.950 . S
H529 C540 0.950 . S
H530 C542 0.950 . S
H531 C543 0.950 . S
C532 H524 0.950 . S
C532 C533 1.386 . S
C532 C534 1.391 . S
C533 C532 1.386 . S
C533 C537 1.393 . S
C534 H526 0.950 . S
C534 C532 1.391 . S
C534 C535 1.400 . S
C535 C534 1.400 . S
C535 C536 1.398 . S
C535 C541 1.491 . S
C536 H527 0.950 . S
C536 C535 1.398 . S
C536 C537 1.391 . S
C537 H525 0.950 . S
C537 C533 1.393 . S
C537 C536 1.391 . S
C538 H528 0.950 . S
C538 C539 1.386 . S
C538 C540 1.391 . S
C539 C538 1.386 . S
C539 C543 1.393 . S
C540 H529 0.950 . S
C540 C538 1.391 . S
C540 C541 1.400 . S
C541 C535 1.491 . S
C541 C540 1.400 . S
C541 C542 1.398 . S
C542 H530 0.950 . S
C542 C541 1.398 . S
C542 C543 1.391 . S
C543 H531 0.950 . S
C543 C539 1.393 . S
C543 C542 1.391 . S
H544 C552 0.950 . S
H545 C557 0.950 . S
H546 C554 0.950 . S
H547 C556 0.950 . S
H548 C558 0.950 . S
H549 C560 0.950 . S
H550 C562 0.950 . S
H551 C563 0.950 . S
C552 H544 0.950 . S
C552 C553 1.386 . S
C552 C554 1.391 . S
C553 C552 1.386 . S
C553 C557 1.393 . S
C554 H546 0.950 . S
C554 C552 1.391 . S
C554 C555 1.400 . S
C555 C554 1.400 . S
C555 C556 1.398 . S
C555 C561 1.491 . S
C556 H547 0.950 . S
C556 C555 1.398 . S
C556 C557 1.391 . S
C557 H545 0.950 . S
C557 C553 1.393 . S
C557 C556 1.391 . S
C558 H548 0.950 . S
C558 C559 1.386 . S
C558 C560 1.391 . S
C559 C558 1.386 . S
C559 C563 1.393 . S
C560 H549 0.950 . S
C560 C558 1.391 . S
C560 C561 1.400 . S
C561 C555 1.491 . S
C561 C560 1.400 . S
C561 C562 1.398 . S
C562 H550 0.950 . S
C562 C561 1.398 . S
C562 C563 1.391 . S
C563 H551 0.950 . S
C563 C559 1.393 . S
C563 C562 1.391 . S
H564 C572 0.950 . S
H565 C577 0.950 . S
H566 C574 0.950 . S
H567 C576 0.950 . S
H568 C578 0.950 . S
H569 C580 0.950 . S
H570 C582 0.950 . S
H571 C583 0.950 . S
C572 H564 0.950 . S
C572 C573 1.386 . S
C572 C574 1.391 . S
C573 C572 1.386 . S
C573 C577 1.393 . S
C574 H566 0.950 . S
C574 C572 1.391 . S
C574 C575 1.400 . S
C575 C574 1.400 . S
C575 C576 1.398 . S
C575 C581 1.491 . S
C576 H567 0.950 . S
C576 C575 1.398 . S
C576 C577 1.391 . S
C577 H565 0.950 . S
C577 C573 1.393 . S
C577 C576 1.391 . S
C578 H568 0.950 . S
C578 C579 1.386 . S
C578 C580 1.391 . S
C579 C578 1.386 . S
C579 C583 1.393 . S
C580 H569 0.950 . S
C580 C578 1.391 . S
C580 C581 1.400 . S
C581 C575 1.491 . S
C581 C580 1.400 . S
C581 C582 1.398 . S
C582 H570 0.950 . S
C582 C581 1.398 . S
C582 C583 1.391 . S
C583 H571 0.950 . S
C583 C579 1.393 . S
C583 C582 1.391 . S
H584 C592 0.950 . S
H585 C597 0.950 . S
H586 C594 0.950 . S
H587 C596 0.950 . S
H588 C598 0.950 . S
H589 C600 0.950 . S
H590 C602 0.950 . S
H591 C603 0.950 . S
C592 H584 0.950 . S
C592 C593 1.386 . S
C592 C594 1.391 . S
C593 C592 1.386 . S
C593 C597 1.393 . S
C594 H586 0.950 . S
C594 C592 1.391 . S
C594 C595 1.400 . S
C595 C594 1.400 . S
C595 C596 1.398 . S
C595 C601 1.491 . S
C596 H587 0.950 . S
C596 C595 1.398 . S
C596 C597 1.391 . S
C597 H585 0.950 . S
C597 C593 1.393 . S
C597 C596 1.391 . S
C598 H588 0.950 . S
C598 C599 1.386 . S
C598 C600 1.391 . S
C599 C598 1.386 . S
C599 C603 1.393 . S
C600 H589 0.950 . S
C600 C598 1.391 . S
C600 C601 1.400 . S
C601 C595 1.491 . S
C601 C600 1.400 . S
C601 C602 1.398 . S
C602 H590 0.950 . S
C602 C601 1.398 . S
C602 C603 1.391 . S
C603 H591 0.950 . S
C603 C599 1.393 . S
C603 C602 1.391 . S
H604 C612 0.950 . S
H605 C617 0.950 . S
H606 C614 0.950 . S
H607 C616 0.950 . S
H608 C618 0.950 . S
H609 C620 0.950 . S
H610 C622 0.950 . S
H611 C623 0.950 . S
C612 H604 0.950 . S
C612 C613 1.386 . S
C612 C614 1.391 . S
C613 C612 1.386 . S
C613 C617 1.393 . S
C614 H606 0.950 . S
C614 C612 1.391 . S
C614 C615 1.400 . S
C615 C614 1.400 . S
C615 C616 1.398 . S
C615 C621 1.491 . S
C616 H607 0.950 . S
C616 C615 1.398 . S
C616 C617 1.391 . S
C617 H605 0.950 . S
C617 C613 1.393 . S
C617 C616 1.391 . S
C618 H608 0.950 . S
C618 C619 1.386 . S
C618 C620 1.391 . S
C619 C618 1.386 . S
C619 C623 1.393 . S
C620 H609 0.950 . S
C620 C618 1.391 . S
C620 C621 1.400 . S
C621 C615 1.491 . S
C621 C620 1.400 . S
C621 C622 1.398 . S
C622 H610 0.950 . S
C622 C621 1.398 . S
C622 C623 1.391 . S
C623 H611 0.950 . S
C623 C619 1.393 . S
C623 C622 1.391 . S
H624 C632 0.950 . S
H625 C637 0.950 . S
H626 C634 0.950 . S
H627 C636 0.950 . S
H628 C638 0.950 . S
H629 C640 0.950 . S
H630 C642 0.950 . S
H631 C643 0.950 . S
C632 H624 0.950 . S
C632 C633 1.386 . S
C632 C634 1.391 . S
C633 C632 1.386 . S
C633 C637 1.393 . S
C634 H626 0.950 . S
C634 C632 1.391 . S
C634 C635 1.400 . S
C635 C634 1.400 . S
C635 C636 1.398 . S
C635 C641 1.491 . S
C636 H627 0.950 . S
C636 C635 1.398 . S
C636 C637 1.391 . S
C637 H625 0.950 . S
C637 C633 1.393 . S
C637 C636 1.391 . S
C638 H628 0.950 . S
C638 C639 1.386 . S
C638 C640 1.391 . S
C639 C638 1.386 . S
C639 C643 1.393 . S
C640 H629 0.950 . S
C640 C638 1.391 . S
C640 C641 1.400 . S
C641 C635 1.491 . S
C641 C640 1.400 . S
C641 C642 1.398 . S
C642 H630 0.950 . S
C642 C641 1.398 . S
C642 C643 1.391 . S
C643 H631 0.950 . S
C643 C639 1.393 . S
C643 C642 1.391 . S
H644 C652 0.950 . S
H645 C657 0.950 . S
H646 C654 0.950 . S
H647 C656 0.950 . S
H648 C658 0.950 . S
H649 C660 0.950 . S
H650 C662 0.950 . S
H651 C663 0.950 . S
C652 H644 0.950 . S
C652 C653 1.386 . S
C652 C654 1.391 . S
C653 C652 1.386 . S
C653 C657 1.393 . S
C654 H646 0.950 . S
C654 C652 1.391 . S
C654 C655 1.400 . S
C655 C654 1.400 . S
C655 C656 1.398 . S
C655 C661 1.491 . S
C656 H647 0.950 . S
C656 C655 1.398 . S
C656 C657 1.391 . S
C657 H645 0.950 . S
C657 C653 1.393 . S
C657 C656 1.391 . S
C658 H648 0.950 . S
C658 C659 1.386 . S
C658 C660 1.391 . S
C659 C658 1.386 . S
C659 C663 1.393 . S
C660 H649 0.950 . S
C660 C658 1.391 . S
C660 C661 1.400 . S
C661 C655 1.491 . S
C661 C660 1.400 . S
C661 C662 1.398 . S
C662 H650 0.950 . S
C662 C661 1.398 . S
C662 C663 1.391 . S
C663 H651 0.950 . S
C663 C659 1.393 . S
C663 C662 1.391 . S
H664 C672 0.950 . S
H665 C677 0.950 . S
H666 C674 0.950 . S
H667 C676 0.950 . S
H668 C678 0.950 . S
H669 C680 0.950 . S
H670 C682 0.950 . S
H671 C683 0.950 . S
C672 H664 0.950 . S
C672 C673 1.386 . S
C672 C674 1.391 . S
C673 C672 1.386 . S
C673 C677 1.393 . S
C674 H666 0.950 . S
C674 C672 1.391 . S
C674 C675 1.400 . S
C675 C674 1.400 . S
C675 C676 1.398 . S
C675 C681 1.491 . S
C676 H667 0.950 . S
C676 C675 1.398 . S
C676 C677 1.391 . S
C677 H665 0.950 . S
C677 C673 1.393 . S
C677 C676 1.391 . S
C678 H668 0.950 . S
C678 C679 1.386 . S
C678 C680 1.391 . S
C679 C678 1.386 . S
C679 C683 1.393 . S
C680 H669 0.950 . S
C680 C678 1.391 . S
C680 C681 1.400 . S
C681 C675 1.491 . S
C681 C680 1.400 . S
C681 C682 1.398 . S
C682 H670 0.950 . S
C682 C681 1.398 . S
C682 C683 1.391 . S
C683 H671 0.950 . S
C683 C679 1.393 . S
C683 C682 1.391 . S
H684 C692 0.950 . S
H685 C697 0.950 . S
H686 C694 0.950 . S
H687 C696 0.950 . S
H688 C698 0.950 . S
H689 C700 0.950 . S
H690 C702 0.950 . S
H691 C703 0.950 . S
C692 H684 0.950 . S
C692 C693 1.386 . S
C692 C694 1.391 . S
C693 C692 1.386 . S
C693 C697 1.393 . S
C694 H686 0.950 . S
C694 C692 1.391 . S
C694 C695 1.400 . S
C695 C694 1.400 . S
C695 C696 1.398 . S
C695 C701 1.491 . S
C696 H687 0.950 . S
C696 C695 1.398 . S
C696 C697 1.391 . S
C697 H685 0.950 . S
C697 C693 1.393 . S
C697 C696 1.391 . S
C698 H688 0.950 . S
C698 C699 1.386 . S
C698 C700 1.391 . S
C699 C698 1.386 . S
C699 C703 1.393 . S
C700 H689 0.950 . S
C700 C698 1.391 . S
C700 C701 1.400 . S
C701 C695 1.491 . S
C701 C700 1.400 . S
C701 C702 1.398 . S
C702 H690 0.950 . S
C702 C701 1.398 . S
C702 C703 1.391 . S
C703 H691 0.950 . S
C703 C699 1.393 . S
C703 C702 1.391 . S
H704 C712 0.950 . S
H705 C717 0.950 . S
H706 C714 0.950 . S
H707 C716 0.950 . S
H708 C718 0.950 . S
H709 C720 0.950 . S
H710 C722 0.950 . S
H711 C723 0.950 . S
C712 H704 0.950 . S
C712 C713 1.386 . S
C712 C714 1.391 . S
C713 C712 1.386 . S
C713 C717 1.393 . S
C714 H706 0.950 . S
C714 C712 1.391 . S
C714 C715 1.400 . S
C715 C714 1.400 . S
C715 C716 1.398 . S
C715 C721 1.491 . S
C716 H707 0.950 . S
C716 C715 1.398 . S
C716 C717 1.391 . S
C717 H705 0.950 . S
C717 C713 1.393 . S
C717 C716 1.391 . S
C718 H708 0.950 . S
C718 C719 1.386 . S
C718 C720 1.391 . S
C719 C718 1.386 . S
C719 C723 1.393 . S
C720 H709 0.950 . S
C720 C718 1.391 . S
C720 C721 1.400 . S
C721 C715 1.491 . S
C721 C720 1.400 . S
C721 C722 1.398 . S
C722 H710 0.950 . S
C722 C721 1.398 . S
C722 C723 1.391 . S
C723 H711 0.950 . S
C723 C719 1.393 . S
C723 C722 1.391 . S
H724 C732 0.950 . S
H725 C737 0.950 . S
H726 C734 0.950 . S
H727 C736 0.950 . S
H728 C738 0.950 . S
H729 C740 0.950 . S
H730 C742 0.950 . S
H731 C743 0.950 . S
C732 H724 0.950 . S
C732 C733 1.386 . S
C732 C734 1.391 . S
C733 C732 1.386 . S
C733 C737 1.393 . S
C734 H726 0.950 . S
C734 C732 1.391 . S
C734 C735 1.400 . S
C735 C734 1.400 . S
C735 C736 1.398 . S
C735 C741 1.491 . S
C736 H727 0.950 . S
C736 C735 1.398 . S
C736 C737 1.391 . S
C737 H725 0.950 . S
C737 C733 1.393 . S
C737 C736 1.391 . S
C738 H728 0.950 . S
C738 C739 1.386 . S
C738 C740 1.391 . S
C739 C738 1.386 . S
C739 C743 1.393 . S
C740 H729 0.950 . S
C740 C738 1.391 . S
C740 C741 1.400 . S
C741 C735 1.491 . S
C741 C740 1.400 . S
C741 C742 1.398 . S
C742 H730 0.950 . S
C742 C741 1.398 . S
C742 C743 1.391 . S
C743 H731 0.950 . S
C743 C739 1.393 . S
C743 C742 1.391 . S
H744 C752 0.950 . S
H745 C757 0.950 . S
H746 C754 0.950 . S
H747 C756 0.950 . S
H748 C758 0.950 . S
H749 C760 0.950 . S
H750 C762 0.950 . S
H751 C763 0.950 . S
C752 H744 0.950 . S
C752 C753 1.386 . S
C752 C754 1.391 . S
C753 C752 1.386 . S
C753 C757 1.393 . S
C754 H746 0.950 . S
C754 C752 1.391 . S
C754 C755 1.400 . S
C755 C754 1.400 . S
C755 C756 1.398 . S
C755 C761 1.491 . S
C756 H747 0.950 . S
C756 C755 1.398 . S
C756 C757 1.391 . S
C757 H745 0.950 . S
C757 C753 1.393 . S
C757 C756 1.391 . S
C758 H748 0.950 . S
C758 C759 1.386 . S
C758 C760 1.391 . S
C759 C758 1.386 . S
C759 C763 1.393 . S
C760 H749 0.950 . S
C760 C758 1.391 . S
C760 C761 1.400 . S
C761 C755 1.491 . S
C761 C760 1.400 . S
C761 C762 1.398 . S
C762 H750 0.950 . S
C762 C761 1.398 . S
C762 C763 1.391 . S
C763 H751 0.950 . S
C763 C759 1.393 . S
C763 C762 1.391 . S
H764 C772 0.950 . S
H765 C777 0.950 . S
H766 C774 0.950 . S
H767 C776 0.950 . S
H768 C778 0.950 . S
H769 C780 0.950 . S
H770 C782 0.950 . S
H771 C783 0.950 . S
C772 H764 0.950 . S
C772 C773 1.386 . S
C772 C774 1.391 . S
C773 C772 1.386 . S
C773 C777 1.393 . S
C774 H766 0.950 . S
C774 C772 1.391 . S
C774 C775 1.400 . S
C775 C774 1.400 . S
C775 C776 1.398 . S
C775 C781 1.491 . S
C776 H767 0.950 . S
C776 C775 1.398 . S
C776 C777 1.391 . S
C777 H765 0.950 . S
C777 C773 1.393 . S
C777 C776 1.391 . S
C778 H768 0.950 . S
C778 C779 1.386 . S
C778 C780 1.391 . S
C779 C778 1.386 . S
C779 C783 1.393 . S
C780 H769 0.950 . S
C780 C778 1.391 . S
C780 C781 1.400 . S
C781 C775 1.491 . S
C781 C780 1.400 . S
C781 C782 1.398 . S
C782 H770 0.950 . S
C782 C781 1.398 . S
C782 C783 1.391 . S
C783 H771 0.950 . S
C783 C779 1.393 . S
C783 C782 1.391 . S
H784 C792 0.950 . S
H785 C797 0.950 . S
H786 C794 0.950 . S
H787 C796 0.950 . S
H788 C798 0.950 . S
H789 C800 0.950 . S
H790 C802 0.950 . S
H791 C803 0.950 . S
C792 H784 0.950 . S
C792 C793 1.386 . S
C792 C794 1.391 . S
C793 C792 1.386 . S
C793 C797 1.393 . S
C794 H786 0.950 . S
C794 C792 1.391 . S
C794 C795 1.400 . S
C795 C794 1.400 . S
C795 C796 1.398 . S
C795 C801 1.491 . S
C796 H787 0.950 . S
C796 C795 1.398 . S
C796 C797 1.391 . S
C797 H785 0.950 . S
C797 C793 1.393 . S
C797 C796 1.391 . S
C798 H788 0.950 . S
C798 C799 1.386 . S
C798 C800 1.391 . S
C799 C798 1.386 . S
C799 C803 1.393 . S
C800 H789 0.950 . S
C800 C798 1.391 . S
C800 C801 1.400 . S
C801 C795 1.491 . S
C801 C800 1.400 . S
C801 C802 1.398 . S
C802 H790 0.950 . S
C802 C801 1.398 . S
C802 C803 1.391 . S
C803 H791 0.950 . S
C803 C799 1.393 . S
C803 C802 1.391 . S
H804 C812 0.950 . S
H805 C817 0.950 . S
H806 C814 0.950 . S
H807 C816 0.950 . S
H808 C818 0.950 . S
H809 C820 0.950 . S
H810 C822 0.950 . S
H811 C823 0.950 . S
C812 H804 0.950 . S
C812 C813 1.386 . S
C812 C814 1.391 . S
C813 C812 1.386 . S
C813 C817 1.393 . S
C814 H806 0.950 . S
C814 C812 1.391 . S
C814 C815 1.400 . S
C815 C814 1.400 . S
C815 C816 1.398 . S
C815 C821 1.491 . S
C816 H807 0.950 . S
C816 C815 1.398 . S
C816 C817 1.391 . S
C817 H805 0.950 . S
C817 C813 1.393 . S
C817 C816 1.391 . S
C818 H808 0.950 . S
C818 C819 1.386 . S
C818 C820 1.391 . S
C819 C818 1.386 . S
C819 C823 1.393 . S
C820 H809 0.950 . S
C820 C818 1.391 . S
C820 C821 1.400 . S
C821 C815 1.491 . S
C821 C820 1.400 . S
C821 C822 1.398 . S
C822 H810 0.950 . S
C822 C821 1.398 . S
C822 C823 1.391 . S
C823 H811 0.950 . S
C823 C819 1.393 . S
C823 C822 1.391 . S
H824 C832 0.950 . S
H825 C837 0.950 . S
H826 C834 0.950 . S
H827 C836 0.950 . S
H828 C838 0.950 . S
H829 C840 0.950 . S
H830 C842 0.950 . S
H831 C843 0.950 . S
C832 H824 0.950 . S
C832 C833 1.386 . S
C832 C834 1.391 . S
C833 C832 1.386 . S
C833 C837 1.393 . S
C834 H826 0.950 . S
C834 C832 1.391 . S
C834 C835 1.400 . S
C835 C834 1.400 . S
C835 C836 1.398 . S
C835 C841 1.491 . S
C836 H827 0.950 . S
C836 C835 1.398 . S
C836 C837 1.391 . S
C837 H825 0.950 . S
C837 C833 1.393 . S
C837 C836 1.391 . S
C838 H828 0.950 . S
C838 C839 1.386 . S
C838 C840 1.391 . S
C839 C838 1.386 . S
C839 C843 1.393 . S
C840 H829 0.950 . S
C840 C838 1.391 . S
C840 C841 1.400 . S
C841 C835 1.491 . S
C841 C840 1.400 . S
C841 C842 1.398 . S
C842 H830 0.950 . S
C842 C841 1.398 . S
C842 C843 1.391 . S
C843 H831 0.950 . S
C843 C839 1.393 . S
C843 C842 1.391 . S
H844 C852 0.950 . S
H845 C857 0.950 . S
H846 C854 0.950 . S
H847 C856 0.950 . S
H848 C858 0.950 . S
H849 C860 0.950 . S
H850 C862 0.950 . S
H851 C863 0.950 . S
C852 H844 0.950 . S
C852 C853 1.386 . S
C852 C854 1.391 . S
C853 C852 1.386 . S
C853 C857 1.393 . S
C854 H846 0.950 . S
C854 C852 1.391 . S
C854 C855 1.400 . S
C855 C854 1.400 . S
C855 C856 1.398 . S
C855 C861 1.491 . S
C856 H847 0.950 . S
C856 C855 1.398 . S
C856 C857 1.391 . S
C857 H845 0.950 . S
C857 C853 1.393 . S
C857 C856 1.391 . S
C858 H848 0.950 . S
C858 C859 1.386 . S
C858 C860 1.391 . S
C859 C858 1.386 . S
C859 C863 1.393 . S
C860 H849 0.950 . S
C860 C858 1.391 . S
C860 C861 1.400 . S
C861 C855 1.491 . S
C861 C860 1.400 . S
C861 C862 1.398 . S
C862 H850 0.950 . S
C862 C861 1.398 . S
C862 C863 1.391 . S
C863 H851 0.950 . S
C863 C859 1.393 . S
C863 C862 1.391 . S
C233 C64 1.419 1_556 S
C239 C8 1.417 . S
C253 C78 1.413 . S
C259 C22 1.415 . S
C273 C92 1.418 1_556 S
C279 C36 1.415 . S
C293 C106 1.417 1_556 S
C299 C50 1.419 . S
C313 C176 1.419 . S
C319 C120 1.415 . S
C333 C190 1.419 . S
C339 C134 1.418 . S
C353 C148 1.415 . S
C359 C204 1.419 . S
C373 C218 1.419 . S
C379 C162 1.416 . S
C393 C9 1.461 1_554 S
C399 C79 1.471 1_556 S
C413 C93 1.461 . S
C419 C23 1.472 1_554 S
C433 C37 1.458 . S
C439 C107 1.474 . S
C453 C65 1.458 . S
C459 C51 1.474 . S
C473 C191 1.460 . S
C479 C121 1.473 . S
C493 C205 1.467 . S
C499 C135 1.466 . S
C513 C149 1.467 . S
C519 C219 1.467 . S
C533 C163 1.465 . S
C539 C177 1.469 . S
C553 C217 1.368 . S
C559 C7 1.378 . S
C573 C175 1.376 . S
C579 C21 1.369 . S
C593 C189 1.378 . S
C599 C35 1.368 . S
C613 C203 1.389 . S
C619 C49 1.373 . S
C633 C133 1.379 . S
C639 C63 1.367 . S
C653 C147 1.367 . S
C659 C77 1.382 . S
C673 C91 1.385 . S
C679 C161 1.384 . S
C693 C105 1.368 . S
C699 C119 1.386 . S
C713 C185 1.379 . S
C719 C31 1.373 . S
C733 C199 1.371 . S
C739 C45 1.367 . S
C753 C213 1.368 . S
C759 C3 1.374 . S
C773 C17 1.379 . S
C779 C171 1.376 . S
C793 C157 1.379 . S
C799 C87 1.374 . S
C813 C101 1.372 . S
C819 C115 1.367 . S
C833 C129 1.379 . S
C839 C59 1.377 . S
C853 C143 1.378 . S
C859 C73 1.379 . S
