# Generated by pormake.
# Topology upa, (4)-cn, num edge types: 1
# Building blocks:
#     Node 0, Type 0, BuildingBlock: ICAMEG_clean_sbu_1, # of connection points: 4
#     Node 1, Type 0, BuildingBlock: ICAMEG_clean_sbu_1, # of connection points: 4
#     Node 2, Type 0, BuildingBlock: ICAMEG_clean_sbu_1, # of connection points: 4
#     Node 3, Type 0, BuildingBlock: ICAMEG_clean_sbu_1, # of connection points: 4
#     Node 4, Type 0, BuildingBlock: ICAMEG_clean_sbu_1, # of connection points: 4
#     Node 5, Type 0, BuildingBlock: ICAMEG_clean_sbu_1, # of connection points: 4
#     Node 6, Type 0, BuildingBlock: ICAMEG_clean_sbu_1, # of connection points: 4
#     Node 7, Type 0, BuildingBlock: ICAMEG_clean_sbu_1, # of connection points: 4
#     Edge 8, Type (0, 0), BuildingBlock: UVAHIK_clean_linker_0, # of connection points: 2
#     Edge 9, Type (0, 0), BuildingBlock: UVAHIK_clean_linker_0, # of connection points: 2
#     Edge 10, Type (0, 0), BuildingBlock: UVAHIK_clean_linker_0, # of connection points: 2
#     Edge 11, Type (0, 0), BuildingBlock: UVAHIK_clean_linker_0, # of connection points: 2
#     Edge 12, Type (0, 0), BuildingBlock: UVAHIK_clean_linker_0, # of connection points: 2
#     Edge 13, Type (0, 0), BuildingBlock: UVAHIK_clean_linker_0, # of connection points: 2
#     Edge 14, Type (0, 0), BuildingBlock: UVAHIK_clean_linker_0, # of connection points: 2
#     Edge 15, Type (0, 0), BuildingBlock: UVAHIK_clean_linker_0, # of connection points: 2
#     Edge 16, Type (0, 0), BuildingBlock: UVAHIK_clean_linker_0, # of connection points: 2
#     Edge 17, Type (0, 0), BuildingBlock: UVAHIK_clean_linker_0, # of connection points: 2
#     Edge 18, Type (0, 0), BuildingBlock: UVAHIK_clean_linker_0, # of connection points: 2
#     Edge 19, Type (0, 0), BuildingBlock: UVAHIK_clean_linker_0, # of connection points: 2
#     Edge 20, Type (0, 0), BuildingBlock: UVAHIK_clean_linker_0, # of connection points: 2
#     Edge 21, Type (0, 0), BuildingBlock: UVAHIK_clean_linker_0, # of connection points: 2
#     Edge 22, Type (0, 0), BuildingBlock: UVAHIK_clean_linker_0, # of connection points: 2
#     Edge 23, Type (0, 0), BuildingBlock: UVAHIK_clean_linker_0, # of connection points: 2
# Relax obj value: 0.140
# Max RMSD: 0.081
# Mean RMSD: 0.081
data_MOF--net-upa--node1-ICAMEG_clean_sbu_1--edge1-UVAHIK_clean_linker_0
_symmetry_space_group_name_H-M    P1
_symmetry_Int_Tables_number       1
_symmetry_cell_setting            triclinic
loop_
_symmetry_equiv_pos_as_xyz
'x, y, z'
_cell_length_a     33.53792
_cell_length_b     33.574818
_cell_length_c     64.266237
_cell_angle_alpha  89.985486
_cell_angle_beta   90.012791
_cell_angle_gamma 90.022604
loop_
_atom_site_label
_atom_site_type_symbol
_atom_site_fract_x
_atom_site_fract_y
_atom_site_fract_z
_atom_type_partial_charge
Co0 Co 0.15026 0.2443 0.35786 0.0
Co1 Co 0.20781 0.18724 0.325 0.0
O2 O 0.20151 0.2301 0.34536 0.0
C3 C 0.201 0.2291 0.39438 0.0
O4 O 0.21348 0.19723 0.38452 0.0
C5 C 0.25418 0.22572 0.29125 0.0
O6 O 0.226 0.21388 0.27845 0.0
O7 O 0.16518 0.21109 0.30704 0.0
O8 O 0.12222 0.2352 0.33084 0.0
H9 H 0.15953 0.08262 0.27507 0.0
H10 H 0.2188 0.29916 0.36266 0.0
O11 O 0.17666 0.25281 0.38553 0.0
H12 H 0.11559 0.37687 0.32605 0.0
H13 H 0.06009 0.32483 0.40421 0.0
H14 H 0.06809 0.21177 0.35542 0.0
H15 H 0.10297 0.30718 0.3363 0.0
H16 H 0.124 0.30708 0.38765 0.0
O17 O 0.25027 0.21987 0.31076 0.0
H18 H 0.15225 0.1364 0.30091 0.0
H19 H 0.27818 0.14684 0.30557 0.0
H20 H 0.00354 0.22865 0.37152 0.0
H21 H 0.2326 0.36892 0.35286 0.0
H22 H 0.99925 0.28554 0.39612 0.0
H23 H 0.18076 0.40822 0.3344 0.0
O24 O 0.1398 0.18804 0.36564 0.0
H25 H 0.33079 0.19038 0.36973 0.0
H26 H 0.223 0.10574 0.34198 0.0
H27 H 0.27342 0.07638 0.36528 0.0
H28 H 0.32789 0.11875 0.37928 0.0
H29 H 0.27943 0.21871 0.34662 0.0
H30 H 0.28679 0.09323 0.27974 0.0
H31 H 0.22718 0.06072 0.2643 0.0
O32 O 0.16635 0.15383 0.33908 0.0
C33 C 0.13116 0.22491 0.31232 0.0
C34 C 0.18573 0.09656 0.28168 0.0
C35 C 0.25715 0.1025 0.28431 0.0
N36 N 0.21473 0.14481 0.30473 0.0
C37 C 0.18181 0.12705 0.29632 0.0
C38 C 0.25209 0.13284 0.29893 0.0
C39 C 0.2237 0.08428 0.27565 0.0
C40 C 0.19605 0.3162 0.35474 0.0
N41 N 0.16009 0.29925 0.35015 0.0
C42 C 0.20405 0.35562 0.34918 0.0
C43 C 0.17497 0.37764 0.3388 0.0
C44 C 0.1384 0.36006 0.3341 0.0
C45 C 0.13147 0.32057 0.33989 0.0
C46 C 0.06156 0.30003 0.39348 0.0
C47 C 0.06642 0.23674 0.366 0.0
C48 C 0.09767 0.2898 0.38408 0.0
N49 N 0.09971 0.25862 0.37046 0.0
C50 C 0.02981 0.24608 0.37511 0.0
C51 C 0.02743 0.27798 0.38893 0.0
C52 C 0.14469 0.15599 0.35536 0.0
C53 C 0.30729 0.17157 0.36366 0.0
C54 C 0.24646 0.12447 0.34808 0.0
C55 C 0.27502 0.10762 0.36122 0.0
C56 C 0.3056 0.1314 0.36905 0.0
N57 N 0.24834 0.1639 0.34282 0.0
C58 C 0.27823 0.1874 0.35047 0.0
Co59 Co 0.25964 0.66053 0.85414 0.0
Co60 Co 0.32974 0.70628 0.82245 0.0
O61 O 0.28512 0.70792 0.84222 0.0
C62 C 0.28581 0.70417 0.89174 0.0
O63 O 0.31968 0.71117 0.88216 0.0
C64 C 0.26996 0.76155 0.80288 0.0
O65 O 0.24059 0.74038 0.81062 0.0
O66 O 0.30205 0.66582 0.80461 0.0
O67 O 0.26118 0.63338 0.8266 0.0
H68 H 0.43273 0.63908 0.77783 0.0
H69 H 0.22257 0.73949 0.86091 0.0
O70 O 0.2578 0.68598 0.88231 0.0
H71 H 0.12165 0.66073 0.82319 0.0
H72 H 0.16051 0.58823 0.89931 0.0
H73 H 0.27195 0.57345 0.84986 0.0
H74 H 0.18648 0.6311 0.8326 0.0
H75 H 0.19272 0.64741 0.88397 0.0
O76 O 0.306 0.75096 0.80577 0.0
H77 H 0.37659 0.64179 0.80255 0.0
H78 H 0.37827 0.76824 0.80072 0.0
H79 H 0.24034 0.51347 0.86467 0.0
H80 H 0.15792 0.77021 0.85207 0.0
H81 H 0.18421 0.52066 0.8896 0.0
H82 H 0.107 0.73077 0.83299 0.0
O83 O 0.31223 0.63645 0.86144 0.0
H84 H 0.33989 0.83161 0.86489 0.0
H85 H 0.41179 0.71263 0.84017 0.0
H86 H 0.44626 0.76062 0.86296 0.0
H87 H 0.41029 0.82068 0.87545 0.0
H88 H 0.30642 0.78264 0.84227 0.0
H89 H 0.43421 0.76689 0.77585 0.0
H90 H 0.46191 0.70196 0.76429 0.0
O91 O 0.35532 0.66262 0.83851 0.0
C92 C 0.27762 0.6377 0.80885 0.0
C93 C 0.42093 0.66756 0.78275 0.0
C94 C 0.42172 0.73929 0.78162 0.0
N95 N 0.37409 0.70511 0.80306 0.0
C96 C 0.38915 0.66928 0.79676 0.0
C97 C 0.38992 0.73986 0.79564 0.0
C98 C 0.43727 0.70285 0.77515 0.0
C99 C 0.20041 0.72206 0.85277 0.0
N100 N 0.2083 0.68358 0.84723 0.0
C101 C 0.16393 0.73965 0.84773 0.0
C102 C 0.1354 0.71753 0.837 0.0
C103 C 0.14362 0.67825 0.83147 0.0
C104 C 0.18046 0.66168 0.83673 0.0
C105 C 0.1849 0.58471 0.88844 0.0
C106 C 0.24738 0.57682 0.8606 0.0
C107 C 0.20332 0.61811 0.87974 0.0
N108 N 0.23402 0.61388 0.86593 0.0
C109 C 0.22967 0.54275 0.86898 0.0
C110 C 0.19821 0.54681 0.88298 0.0
C111 C 0.34686 0.63894 0.85334 0.0
C112 C 0.35593 0.80562 0.8595 0.0
C113 C 0.39588 0.73861 0.84558 0.0
C114 C 0.4156 0.76574 0.85845 0.0
C115 C 0.39541 0.79944 0.86544 0.0
N116 N 0.35718 0.74491 0.83977 0.0
C117 C 0.33718 0.77787 0.84659 0.0
Co118 Co 0.84509 0.75355 0.35153 0.0
Co119 Co 0.79949 0.82581 0.32114 0.0
O120 O 0.79782 0.78082 0.34059 0.0
C121 C 0.80425 0.78152 0.3895 0.0
O122 O 0.79756 0.81504 0.37958 0.0
C123 C 0.74243 0.76766 0.30177 0.0
O124 O 0.76413 0.73791 0.30865 0.0
O125 O 0.83824 0.7976 0.30256 0.0
O126 O 0.87029 0.75432 0.32344 0.0
H127 H 0.86682 0.92806 0.27609 0.0
H128 H 0.76523 0.7195 0.35992 0.0
O129 O 0.82159 0.7528 0.38024 0.0
H130 H 0.83703 0.61631 0.32024 0.0
H131 H 0.91655 0.65174 0.39534 0.0
H132 H 0.93234 0.76224 0.34544 0.0
H133 H 0.86992 0.67978 0.32915 0.0
H134 H 0.85762 0.68633 0.38117 0.0
O135 O 0.75328 0.80348 0.30502 0.0
H136 H 0.86409 0.87149 0.30051 0.0
H137 H 0.73752 0.87624 0.30064 0.0
H138 H 0.99206 0.72824 0.35908 0.0
H139 H 0.73128 0.65627 0.35155 0.0
H140 H 0.98436 0.67257 0.38423 0.0
H141 H 0.76721 0.60422 0.3315 0.0
O142 O 0.87188 0.80496 0.35832 0.0
H143 H 0.6766 0.83801 0.36543 0.0
H144 H 0.79622 0.90744 0.33946 0.0
H145 H 0.75034 0.94247 0.36317 0.0
H146 H 0.68997 0.90773 0.3763 0.0
H147 H 0.7235 0.80396 0.34187 0.0
H148 H 0.73889 0.93265 0.27608 0.0
H149 H 0.8039 0.95903 0.26369 0.0
O150 O 0.84482 0.84988 0.33665 0.0
C151 C 0.8656 0.7719 0.306 0.0
C152 C 0.83831 0.91686 0.28138 0.0
C153 C 0.76651 0.91939 0.28135 0.0
N154 N 0.8007 0.87053 0.302 0.0
C155 C 0.83657 0.88485 0.29523 0.0
C156 C 0.76593 0.88732 0.2952 0.0
C157 C 0.803 0.93419 0.27442 0.0
C158 C 0.78115 0.69682 0.35136 0.0
N159 N 0.8195 0.70327 0.34505 0.0
C160 C 0.76173 0.66116 0.34659 0.0
C161 C 0.78189 0.63199 0.33531 0.0
C162 C 0.82105 0.63878 0.32896 0.0
C163 C 0.83947 0.67483 0.33398 0.0
C164 C 0.92029 0.67591 0.38436 0.0
C165 C 0.92874 0.73786 0.35627 0.0
C166 C 0.88703 0.69566 0.37631 0.0
N167 N 0.89153 0.72609 0.36238 0.0
C168 C 0.96267 0.71881 0.36399 0.0
C169 C 0.95833 0.6876 0.37811 0.0
C170 C 0.86976 0.83994 0.35067 0.0
C171 C 0.70274 0.85351 0.35976 0.0
C172 C 0.77011 0.89207 0.34515 0.0
C173 C 0.74417 0.9121 0.35854 0.0
C174 C 0.71029 0.8926 0.36589 0.0
N175 N 0.76248 0.85374 0.33919 0.0
C176 C 0.72931 0.83444 0.34633 0.0
Co177 Co 0.7481 0.34601 0.85238 0.0
Co178 Co 0.67808 0.29957 0.82089 0.0
O179 O 0.72315 0.29833 0.84043 0.0
C180 C 0.72358 0.30159 0.89006 0.0
O181 O 0.68962 0.294 0.88069 0.0
C182 C 0.738 0.24465 0.80103 0.0
O183 O 0.76743 0.2651 0.80921 0.0
O184 O 0.70483 0.34064 0.80303 0.0
O185 O 0.74544 0.37353 0.82495 0.0
H186 H 0.57343 0.36596 0.77696 0.0
H187 H 0.7868 0.26773 0.85879 0.0
O188 O 0.75105 0.32028 0.88047 0.0
H189 H 0.88535 0.34863 0.82061 0.0
H190 H 0.847 0.41945 0.89719 0.0
H191 H 0.73411 0.43291 0.84851 0.0
H192 H 0.82017 0.37694 0.83041 0.0
H193 H 0.81552 0.35992 0.88183 0.0
O194 O 0.702 0.25545 0.80386 0.0
H195 H 0.63009 0.36369 0.80138 0.0
H196 H 0.62981 0.23723 0.79929 0.0
H197 H 0.76496 0.49324 0.86336 0.0
H198 H 0.85187 0.23833 0.84957 0.0
H199 H 0.82181 0.48672 0.88791 0.0
H200 H 0.90159 0.27884 0.83025 0.0
O201 O 0.69528 0.36905 0.86009 0.0
H202 H 0.67054 0.17359 0.863 0.0
H203 H 0.5965 0.29187 0.83904 0.0
H204 H 0.56316 0.24311 0.86184 0.0
H205 H 0.60021 0.1834 0.87395 0.0
H206 H 0.70287 0.22331 0.84036 0.0
H207 H 0.57336 0.23816 0.77472 0.0
H208 H 0.54469 0.30287 0.76344 0.0
O209 O 0.65219 0.34266 0.83724 0.0
C210 C 0.72879 0.36916 0.80726 0.0
C211 C 0.58564 0.33758 0.78176 0.0
C212 C 0.58564 0.26585 0.78048 0.0
N213 N 0.6333 0.30039 0.80176 0.0
C214 C 0.61771 0.3361 0.7956 0.0
C215 C 0.61773 0.26553 0.79434 0.0
C216 C 0.56955 0.30217 0.77417 0.0
C217 C 0.80845 0.28563 0.85055 0.0
N218 N 0.79968 0.32396 0.84509 0.0
C219 C 0.84516 0.26878 0.84529 0.0
C220 C 0.87302 0.29151 0.83443 0.0
C221 C 0.8639 0.33064 0.82898 0.0
C222 C 0.82686 0.34646 0.83447 0.0
C223 C 0.82228 0.42268 0.88649 0.0
C224 C 0.75901 0.42983 0.85908 0.0
C225 C 0.80428 0.38908 0.87778 0.0
N226 N 0.77316 0.39295 0.86418 0.0
C227 C 0.77628 0.4641 0.86748 0.0
C228 C 0.80815 0.46042 0.88127 0.0
C229 C 0.66056 0.36618 0.85215 0.0
C230 C 0.65403 0.19942 0.85777 0.0
C231 C 0.61288 0.26604 0.84428 0.0
C232 C 0.5938 0.23848 0.85716 0.0
C233 C 0.61459 0.20497 0.86393 0.0
N234 N 0.65154 0.26034 0.83824 0.0
C235 C 0.67213 0.22759 0.84486 0.0
Co236 Co 0.66138 0.2585 0.14901 0.0
Co237 Co 0.70481 0.32451 0.1833 0.0
O238 O 0.70816 0.28246 0.16222 0.0
C239 C 0.70814 0.2851 0.11259 0.0
O240 O 0.71438 0.31872 0.12249 0.0
C241 C 0.7588 0.26519 0.20393 0.0
O242 O 0.73226 0.23697 0.20097 0.0
O243 O 0.66604 0.29271 0.20037 0.0
O244 O 0.63168 0.25979 0.17581 0.0
H245 H 0.63448 0.41756 0.2323 0.0
H246 H 0.74029 0.22013 0.14443 0.0
O247 O 0.68933 0.25689 0.12148 0.0
H248 H 0.65539 0.11993 0.17888 0.0
H249 H 0.59085 0.16262 0.10129 0.0
H250 H 0.57426 0.27311 0.15108 0.0
H251 H 0.62804 0.18545 0.16903 0.0
H252 H 0.64937 0.19278 0.1184 0.0
O253 O 0.75146 0.30079 0.19833 0.0
H254 H 0.63888 0.36503 0.20559 0.0
H255 H 0.7653 0.37301 0.20614 0.0
H256 H 0.51491 0.24358 0.13447 0.0
H257 H 0.76885 0.15483 0.15387 0.0
H258 H 0.52301 0.18793 0.10937 0.0
H259 H 0.72628 0.10425 0.17126 0.0
O260 O 0.63949 0.31191 0.14178 0.0
H261 H 0.8285 0.34609 0.14059 0.0
H262 H 0.70679 0.40879 0.16843 0.0
H263 H 0.75248 0.44829 0.1466 0.0
H264 H 0.81391 0.41697 0.13254 0.0
H265 H 0.78174 0.30753 0.16228 0.0
H266 H 0.76226 0.42543 0.23296 0.0
H267 H 0.69648 0.44814 0.24617 0.0
O268 O 0.6593 0.35014 0.1685 0.0
C269 C 0.63627 0.27169 0.19449 0.0
C270 C 0.66332 0.40798 0.22664 0.0
C271 C 0.73503 0.41235 0.22703 0.0
N272 N 0.70229 0.36606 0.20424 0.0
C273 C 0.666 0.37829 0.21149 0.0
C274 C 0.73656 0.38256 0.21188 0.0
C275 C 0.69812 0.4251 0.23443 0.0
C276 C 0.72154 0.19813 0.15186 0.0
N277 N 0.68254 0.2065 0.1561 0.0
C278 C 0.73789 0.16128 0.15723 0.0
C279 C 0.71401 0.13293 0.16701 0.0
C280 C 0.67424 0.14172 0.1713 0.0
C281 C 0.65894 0.17891 0.16574 0.0
C282 C 0.58693 0.18681 0.11223 0.0
C283 C 0.57801 0.24875 0.14026 0.0
C284 C 0.61996 0.20406 0.12193 0.0
N285 N 0.61521 0.2345 0.13583 0.0
C286 C 0.5443 0.23222 0.13087 0.0
C287 C 0.54887 0.20102 0.11677 0.0
C288 C 0.63883 0.3444 0.15205 0.0
C289 C 0.80187 0.3601 0.14666 0.0
C290 C 0.73332 0.39486 0.16229 0.0
C291 C 0.75916 0.41743 0.14999 0.0
C292 C 0.79364 0.39985 0.14212 0.0
N293 N 0.74158 0.35589 0.16668 0.0
C294 C 0.77535 0.33846 0.15903 0.0
Co295 Co 0.24637 0.16092 0.65317 0.0
Co296 Co 0.17625 0.20629 0.68489 0.0
O297 O 0.22102 0.20814 0.66528 0.0
C298 C 0.22056 0.20598 0.61603 0.0
O299 O 0.18659 0.21214 0.62565 0.0
C300 C 0.23611 0.26085 0.70483 0.0
O301 O 0.26535 0.23943 0.69717 0.0
O302 O 0.20383 0.16568 0.70262 0.0
O303 O 0.24434 0.133 0.68056 0.0
H304 H 0.0731 0.13857 0.72925 0.0
H305 H 0.28408 0.23983 0.64699 0.0
O306 O 0.24856 0.18729 0.6252 0.0
H307 H 0.38389 0.15959 0.68464 0.0
H308 H 0.34552 0.08951 0.6077 0.0
H309 H 0.23366 0.07377 0.65682 0.0
H310 H 0.31898 0.1306 0.67485 0.0
H311 H 0.31341 0.14838 0.62338 0.0
O312 O 0.19999 0.25071 0.70175 0.0
H313 H 0.12938 0.14156 0.70461 0.0
H314 H 0.12759 0.268 0.70668 0.0
H315 H 0.26514 0.01409 0.64165 0.0
H316 H 0.34884 0.26992 0.65624 0.0
H317 H 0.32149 0.02176 0.61689 0.0
H318 H 0.3992 0.22974 0.67528 0.0
O319 O 0.19376 0.13728 0.64555 0.0
H320 H 0.16652 0.33216 0.64284 0.0
H321 H 0.09435 0.21285 0.66701 0.0
H322 H 0.06011 0.26111 0.64428 0.0
H323 H 0.09622 0.32133 0.63207 0.0
H324 H 0.19975 0.28293 0.66541 0.0
H325 H 0.07151 0.26636 0.73147 0.0
H326 H 0.04379 0.2013 0.74286 0.0
O327 O 0.15067 0.16281 0.66866 0.0
C328 C 0.22791 0.13732 0.69832 0.0
C329 C 0.0849 0.16711 0.72439 0.0
C330 C 0.08404 0.23883 0.72566 0.0
N331 N 0.13178 0.2049 0.7042 0.0
C332 C 0.11674 0.16899 0.71042 0.0
C333 C 0.11591 0.23956 0.71168 0.0
C334 C 0.06849 0.20231 0.73203 0.0
C335 C 0.30601 0.22207 0.65511 0.0
N336 N 0.29776 0.18352 0.6604 0.0
C337 C 0.34255 0.23931 0.66038 0.0
C338 C 0.37076 0.21677 0.67109 0.0
C339 C 0.36217 0.17743 0.67638 0.0
C340 C 0.32528 0.16121 0.67089 0.0
C341 C 0.32104 0.08578 0.61849 0.0
C342 C 0.25833 0.07735 0.64616 0.0
C343 C 0.30268 0.119 0.62738 0.0
N344 N 0.27187 0.1145 0.64111 0.0
C345 C 0.27596 0.04345 0.63757 0.0
C346 C 0.30755 0.04778 0.62366 0.0
C347 C 0.15914 0.13953 0.65366 0.0
C348 C 0.15042 0.30611 0.64812 0.0
C349 C 0.11031 0.2389 0.66172 0.0
C350 C 0.09073 0.26618 0.64889 0.0
C351 C 0.111 0.29998 0.64205 0.0
N352 N 0.14896 0.24515 0.66765 0.0
C353 C 0.16903 0.27821 0.66099 0.0
Co354 Co 0.34455 0.74571 0.15211 0.0
Co355 Co 0.29811 0.67445 0.18283 0.0
O356 O 0.29689 0.71974 0.16352 0.0
C357 C 0.30135 0.71978 0.11442 0.0
O358 O 0.29383 0.68627 0.12419 0.0
C359 C 0.24235 0.73351 0.2026 0.0
O360 O 0.26345 0.76314 0.19511 0.0
O361 O 0.33835 0.70144 0.20107 0.0
O362 O 0.37093 0.74379 0.17991 0.0
H363 H 0.36458 0.57006 0.22685 0.0
H364 H 0.26552 0.78241 0.14479 0.0
O365 O 0.31988 0.74772 0.12371 0.0
H366 H 0.34247 0.88283 0.18383 0.0
H367 H 0.41744 0.84588 0.10789 0.0
H368 H 0.43169 0.73405 0.15709 0.0
H369 H 0.37282 0.81843 0.17438 0.0
H370 H 0.35802 0.81302 0.12262 0.0
O371 O 0.25319 0.69763 0.19955 0.0
H372 H 0.3623 0.62698 0.20262 0.0
H373 H 0.23568 0.62525 0.20381 0.0
H374 H 0.49191 0.76628 0.14288 0.0
H375 H 0.23409 0.84663 0.15369 0.0
H376 H 0.48499 0.82261 0.11807 0.0
H377 H 0.27262 0.8973 0.17342 0.0
O378 O 0.36924 0.69354 0.14474 0.0
H379 H 0.1732 0.66614 0.1398 0.0
H380 H 0.29171 0.5931 0.16436 0.0
H381 H 0.24389 0.5596 0.14107 0.0
H382 H 0.18406 0.59615 0.12866 0.0
H383 H 0.22201 0.69864 0.16291 0.0
H384 H 0.2366 0.56854 0.22818 0.0
H385 H 0.3014 0.54047 0.23981 0.0
O386 O 0.34197 0.64933 0.16671 0.0
C387 C 0.36631 0.72638 0.19739 0.0
C388 C 0.33616 0.58201 0.22189 0.0
C389 C 0.26433 0.5812 0.22266 0.0
N390 N 0.29892 0.62947 0.2018 0.0
C391 C 0.33468 0.61422 0.20815 0.0
C392 C 0.26401 0.61343 0.20891 0.0
C393 C 0.3007 0.56544 0.22916 0.0
C394 C 0.28256 0.80447 0.15322 0.0
N395 N 0.32093 0.7967 0.15908 0.0
C396 C 0.26457 0.84071 0.15828 0.0
C397 C 0.28618 0.8691 0.16939 0.0
C398 C 0.32535 0.86098 0.17526 0.0
C399 C 0.34233 0.82439 0.16995 0.0
C400 C 0.42085 0.82141 0.11871 0.0
C401 C 0.42843 0.75872 0.14642 0.0
C402 C 0.38731 0.80264 0.12707 0.0
N403 N 0.39139 0.77183 0.14082 0.0
C404 C 0.46264 0.77677 0.13837 0.0
C405 C 0.45873 0.80835 0.12444 0.0
C406 C 0.3663 0.65854 0.15228 0.0
C407 C 0.19908 0.64985 0.14515 0.0
C408 C 0.26585 0.60926 0.15898 0.0
C409 C 0.2388 0.59009 0.14583 0.0
C410 C 0.20523 0.61061 0.13888 0.0
N411 N 0.25959 0.64775 0.1651 0.0
C412 C 0.22674 0.66805 0.15834 0.0
Co413 Co 0.75792 0.84571 0.6495 0.0
Co414 Co 0.82676 0.79953 0.68178 0.0
O415 O 0.78249 0.79816 0.66177 0.0
C416 C 0.78452 0.80124 0.61226 0.0
O417 O 0.81798 0.7939 0.62215 0.0
C418 C 0.76601 0.74471 0.70108 0.0
O419 O 0.73693 0.76512 0.69256 0.0
O420 O 0.7993 0.84068 0.69927 0.0
O421 O 0.75919 0.87324 0.67696 0.0
H422 H 0.92966 0.86621 0.72672 0.0
H423 H 0.71984 0.76724 0.64259 0.0
O424 O 0.75648 0.81992 0.62138 0.0
H425 H 0.61928 0.84758 0.67959 0.0
H426 H 0.66083 0.91856 0.60339 0.0
H427 H 0.77124 0.9327 0.65354 0.0
H428 H 0.68478 0.87623 0.6706 0.0
H429 H 0.69191 0.85921 0.61916 0.0
O430 O 0.80212 0.7555 0.69862 0.0
H431 H 0.874 0.86378 0.70169 0.0
H432 H 0.8741 0.73734 0.70403 0.0
H433 H 0.74077 0.99284 0.63829 0.0
H434 H 0.6545 0.73751 0.65101 0.0
H435 H 0.68516 0.98597 0.613 0.0
H436 H 0.60376 0.77774 0.66972 0.0
O437 O 0.81095 0.86907 0.64246 0.0
H438 H 0.83593 0.67332 0.63999 0.0
H439 H 0.90905 0.79175 0.66455 0.0
H440 H 0.94328 0.74288 0.6422 0.0
H441 H 0.90669 0.68309 0.6298 0.0
H442 H 0.80273 0.72315 0.66218 0.0
H443 H 0.92954 0.73843 0.72922 0.0
H444 H 0.95779 0.80321 0.74068 0.0
O445 O 0.8533 0.84255 0.66565 0.0
C446 C 0.77531 0.86903 0.6948 0.0
C447 C 0.91762 0.8378 0.72184 0.0
C448 C 0.91751 0.76608 0.72327 0.0
N449 N 0.87076 0.80048 0.7014 0.0
C450 C 0.88612 0.83623 0.70765 0.0
C451 C 0.886 0.76567 0.70906 0.0
C452 C 0.93337 0.80244 0.72968 0.0
C453 C 0.69776 0.78502 0.65057 0.0
N454 N 0.70612 0.82339 0.65614 0.0
C455 C 0.66089 0.76798 0.65537 0.0
C456 C 0.63246 0.79055 0.6659 0.0
C457 C 0.64117 0.82972 0.67147 0.0
C458 C 0.67838 0.84573 0.66644 0.0
C459 C 0.685 0.92194 0.61441 0.0
C460 C 0.74688 0.92947 0.64265 0.0
C461 C 0.70277 0.88844 0.62336 0.0
N462 N 0.73319 0.8925 0.63736 0.0
C463 C 0.72982 0.96363 0.63402 0.0
C464 C 0.69865 0.95976 0.61982 0.0
C465 C 0.8454 0.8662 0.65072 0.0
C466 C 0.85224 0.69918 0.64536 0.0
C467 C 0.89288 0.76589 0.65918 0.0
C468 C 0.91245 0.73826 0.64656 0.0
C469 C 0.89192 0.70471 0.63962 0.0
N470 N 0.85397 0.76021 0.6648 0.0
C471 C 0.83364 0.72741 0.65802 0.0
C472 C 0.0957 0.1212 0.37871 0.0
C473 C 0.12222 0.12 0.36177 0.0
C474 C 0.07153 0.08842 0.38332 0.0
C475 C 0.00364 0.02978 0.37768 0.0
H476 H 0.03582 0.92061 0.36738 0.0
C477 C 0.89394 0.91036 0.35103 0.0
C478 C 0.8982 0.87081 0.35789 0.0
C479 C 0.92178 0.93929 0.35653 0.0
C480 C 0.02645 0.95081 0.3707 0.0
H481 H 0.14535 0.08252 0.337 0.0
H482 H 0.10286 0.02599 0.34479 0.0
H483 H 0.08616 0.97308 0.36861 0.0
H484 H 0.93491 0.83095 0.37633 0.0
H485 H 0.98386 0.88186 0.38592 0.0
H486 H 0.94392 0.00767 0.37946 0.0
C487 C 0.10105 0.05197 0.35473 0.0
C488 C 0.05523 0.98095 0.37116 0.0
C489 C 0.12524 0.08464 0.35014 0.0
C490 C 0.93068 0.86113 0.3708 0.0
C491 C 0.9588 0.8902 0.37622 0.0
C492 C 0.97493 0.99969 0.37726 0.0
C493 C 0.07329 0.05374 0.37109 0.0
C494 C 0.044 0.02095 0.374 0.0
C495 C 0.95477 0.92954 0.36899 0.0
C496 C 0.98584 0.96008 0.37307 0.0
H497 H 0.09275 0.14783 0.38809 0.0
H498 H 0.05084 0.09055 0.39621 0.0
H499 H 0.99383 0.06024 0.37979 0.0
H500 H 0.86948 0.91904 0.34102 0.0
H501 H 0.91813 0.9691 0.35036 0.0
C502 C 0.41787 0.61644 0.85274 0.0
C503 C 0.37925 0.61275 0.86107 0.0
C504 C 0.44822 0.59066 0.8588 0.0
C505 C 0.51292 0.54219 0.87885 0.0
H506 H 0.48574 0.43003 0.87797 0.0
C507 C 0.6349 0.42087 0.87548 0.0
C508 C 0.62795 0.39179 0.86014 0.0
C509 C 0.60416 0.44644 0.88179 0.0
C510 C 0.49384 0.46126 0.87836 0.0
H511 H 0.34275 0.57949 0.88288 0.0
H512 H 0.39619 0.5342 0.89354 0.0
H513 H 0.43281 0.47962 0.8776 0.0
H514 H 0.58271 0.36621 0.83991 0.0
H515 H 0.53004 0.41071 0.85058 0.0
H516 H 0.57394 0.52388 0.87806 0.0
C517 C 0.40267 0.55712 0.88218 0.0
C518 C 0.46344 0.48971 0.87841 0.0
C519 C 0.3721 0.58313 0.87611 0.0
C520 C 0.58935 0.38813 0.85178 0.0
C521 C 0.55883 0.41351 0.85807 0.0
C522 C 0.54331 0.51374 0.87867 0.0
C523 C 0.44099 0.56036 0.87339 0.0
C524 C 0.47266 0.53052 0.87779 0.0
C525 C 0.56588 0.44334 0.87294 0.0
C526 C 0.53411 0.47296 0.87756 0.0
H527 H 0.42467 0.63874 0.8411 0.0
H528 H 0.47704 0.59357 0.85136 0.0
H529 H 0.52102 0.57342 0.87884 0.0
H530 H 0.66421 0.42445 0.8823 0.0
H531 H 0.61051 0.46896 0.89339 0.0
C532 C 0.5868 0.37291 0.12793 0.0
C533 C 0.61299 0.3775 0.14488 0.0
C534 C 0.56153 0.40416 0.12198 0.0
C535 C 0.49281 0.46404 0.12505 0.0
H536 H 0.52685 0.57391 0.13096 0.0
C537 C 0.38793 0.58733 0.15152 0.0
C538 C 0.39275 0.62661 0.14433 0.0
C539 C 0.41403 0.55736 0.14531 0.0
C540 C 0.51688 0.54351 0.12878 0.0
H541 H 0.63341 0.41897 0.16859 0.0
H542 H 0.58967 0.47264 0.15835 0.0
H543 H 0.57635 0.52085 0.13095 0.0
H544 H 0.42832 0.66478 0.12436 0.0
H545 H 0.47425 0.61208 0.11355 0.0
H546 H 0.43324 0.48667 0.12338 0.0
C547 C 0.58894 0.4453 0.1494 0.0
C548 C 0.54522 0.51305 0.12901 0.0
C549 C 0.61388 0.41422 0.1554 0.0
C550 C 0.42378 0.63489 0.13024 0.0
C551 C 0.45014 0.60474 0.12408 0.0
C552 C 0.46446 0.49453 0.12476 0.0
C553 C 0.56224 0.44063 0.13276 0.0
C554 C 0.53335 0.47291 0.12803 0.0
C555 C 0.4458 0.56573 0.13177 0.0
C556 C 0.47605 0.53447 0.12751 0.0
H557 H 0.58534 0.34505 0.11947 0.0
H558 H 0.54128 0.39971 0.10906 0.0
H559 H 0.48266 0.43345 0.12426 0.0
H560 H 0.36451 0.57968 0.1624 0.0
H561 H 0.41021 0.52788 0.15188 0.0
C562 C 0.08818 0.11677 0.65409 0.0
C563 C 0.12678 0.11355 0.64569 0.0
C564 C 0.05787 0.09116 0.64773 0.0
C565 C 0.99328 0.0435 0.62697 0.0
H566 H 0.02062 0.93139 0.6264 0.0
C567 C 0.87151 0.92176 0.62809 0.0
C568 C 0.87819 0.89206 0.64313 0.0
C569 C 0.90232 0.94767 0.62225 0.0
C570 C 0.01248 0.96261 0.6264 0.0
H571 H 0.16331 0.08137 0.62348 0.0
H572 H 0.10997 0.03644 0.6123 0.0
H573 H 0.07347 0.98107 0.6276 0.0
H574 H 0.92304 0.86568 0.66331 0.0
H575 H 0.97588 0.91072 0.65344 0.0
H576 H 0.93228 0.02501 0.62731 0.0
C577 C 0.10346 0.05882 0.62394 0.0
C578 C 0.04283 0.99112 0.62684 0.0
C579 C 0.13398 0.08462 0.63031 0.0
C580 C 0.91662 0.88808 0.65166 0.0
C581 C 0.94722 0.9138 0.64583 0.0
C582 C 0.96293 0.01498 0.62666 0.0
C583 C 0.06515 0.06156 0.63277 0.0
C584 C 0.03354 0.03187 0.62797 0.0
C585 C 0.94042 0.94427 0.63128 0.0
C586 C 0.97219 0.97418 0.62722 0.0
H587 H 0.08136 0.13854 0.66599 0.0
H588 H 0.02903 0.09366 0.6552 0.0
H589 H 0.98514 0.0747 0.62739 0.0
H590 H 0.84232 0.9256 0.62116 0.0
H591 H 0.89618 0.9707 0.61089 0.0
C592 C 0.18804 0.26017 0.42916 0.0
C593 C 0.21101 0.23468 0.41663 0.0
C594 C 0.19417 0.26175 0.45067 0.0
C595 C 0.23657 0.20081 0.49342 0.0
H596 H 0.21592 0.29545 0.52629 0.0
C597 C 0.25765 0.20224 0.58227 0.0
C598 C 0.22497 0.21658 0.59376 0.0
C599 C 0.25986 0.20841 0.5608 0.0
C600 C 0.22169 0.2688 0.51729 0.0
H601 H 0.26006 0.19267 0.41666 0.0
H602 H 0.27179 0.19645 0.45403 0.0
H603 H 0.21435 0.29947 0.48833 0.0
H604 H 0.16996 0.25032 0.59182 0.0
H605 H 0.1741 0.26142 0.55426 0.0
H606 H 0.24409 0.17028 0.52239 0.0
C607 C 0.24807 0.21426 0.4474 0.0
C608 C 0.22067 0.27101 0.49553 0.0
C609 C 0.24157 0.21229 0.42593 0.0
C610 C 0.19545 0.23877 0.58342 0.0
C611 C 0.1979 0.24529 0.56193 0.0
C612 C 0.23804 0.19876 0.51511 0.0
C613 C 0.22378 0.23823 0.46016 0.0
C614 C 0.22766 0.2369 0.48329 0.0
C615 C 0.2297 0.22942 0.55034 0.0
C616 C 0.23023 0.23259 0.52729 0.0
H617 H 0.1641 0.27769 0.42251 0.0
H618 H 0.17452 0.2802 0.45991 0.0
H619 H 0.24124 0.17369 0.48465 0.0
H620 H 0.281 0.18511 0.58972 0.0
H621 H 0.28496 0.19624 0.55231 0.0
C622 C 0.30999 0.73601 0.92482 0.0
C623 C 0.2816 0.71276 0.91425 0.0
C624 C 0.30775 0.74079 0.94645 0.0
C625 C 0.2734 0.68835 0.99259 0.0
H626 H 0.28441 0.78965 0.02092 0.0
C627 C 0.26636 0.69695 0.08206 0.0
C628 C 0.29255 0.72354 0.09194 0.0
C629 C 0.26081 0.6985 0.06049 0.0
C630 C 0.28179 0.76102 0.0133 0.0
H631 H 0.22796 0.67723 0.91807 0.0
H632 H 0.22458 0.68511 0.9557 0.0
H633 H 0.28385 0.78757 0.98292 0.0
H634 H 0.33297 0.77309 0.08697 0.0
H635 H 0.32456 0.77488 0.04947 0.0
H636 H 0.27308 0.66133 0.02265 0.0
C637 C 0.24847 0.69965 0.94727 0.0
C638 C 0.2813 0.75994 0.99153 0.0
C639 C 0.25035 0.69535 0.92568 0.0
C640 C 0.31233 0.75232 0.07987 0.0
C641 C 0.3073 0.75348 0.05829 0.0
C642 C 0.27453 0.68931 0.01432 0.0
C643 C 0.27744 0.72192 0.95791 0.0
C644 C 0.27713 0.72358 0.98098 0.0
C645 C 0.28186 0.72625 0.04822 0.0
C646 C 0.27883 0.72564 0.02503 0.0
H647 H 0.33436 0.74988 0.91646 0.0
H648 H 0.33056 0.758 0.9543 0.0
H649 H 0.27069 0.65982 0.98484 0.0
H650 H 0.25042 0.67464 0.09097 0.0
H651 H 0.24024 0.67764 0.05343 0.0
C652 C 0.80927 0.76854 0.57952 0.0
C653 C 0.78095 0.79244 0.58973 0.0
C654 C 0.80773 0.76352 0.55789 0.0
C655 C 0.77593 0.81587 0.51118 0.0
H656 H 0.78588 0.71393 0.48338 0.0
C657 C 0.76993 0.80579 0.42174 0.0
C658 C 0.79556 0.77848 0.41203 0.0
C659 C 0.76432 0.8048 0.44331 0.0
C660 C 0.78359 0.74274 0.49085 0.0
H661 H 0.72817 0.82892 0.58524 0.0
H662 H 0.72602 0.8206 0.5476 0.0
H663 H 0.78435 0.71664 0.52136 0.0
H664 H 0.83499 0.72828 0.41728 0.0
H665 H 0.82649 0.72744 0.45482 0.0
H666 H 0.77685 0.8424 0.48101 0.0
C667 C 0.74931 0.80574 0.55633 0.0
C668 C 0.78254 0.74418 0.51262 0.0
C669 C 0.75048 0.81029 0.57792 0.0
C670 C 0.81479 0.7496 0.42427 0.0
C671 C 0.8097 0.749 0.44586 0.0
C672 C 0.77761 0.81453 0.48947 0.0
C673 C 0.77821 0.78279 0.54606 0.0
C674 C 0.77868 0.78077 0.52299 0.0
C675 C 0.78476 0.7769 0.45576 0.0
C676 C 0.7815 0.77796 0.47895 0.0
H677 H 0.83306 0.75433 0.58818 0.0
H678 H 0.83048 0.74577 0.55034 0.0
H679 H 0.7735 0.84456 0.51879 0.0
H680 H 0.75442 0.82819 0.4127 0.0
H681 H 0.74412 0.82617 0.45022 0.0
C682 C 0.75932 0.31155 0.92385 0.0
C683 C 0.72843 0.29316 0.91256 0.0
C684 C 0.76169 0.30736 0.94543 0.0
C685 C 0.73172 0.24597 0.98981 0.0
H686 H 0.73652 0.34471 0.021 0.0
C687 C 0.6997 0.25208 0.07797 0.0
C688 C 0.718 0.28162 0.09019 0.0
C689 C 0.70525 0.25117 0.05644 0.0
C690 C 0.73607 0.31672 0.01265 0.0
H691 H 0.67687 0.25446 0.91503 0.0
H692 H 0.68159 0.24648 0.95285 0.0
H693 H 0.73862 0.34642 0.98318 0.0
H694 H 0.75813 0.33218 0.08949 0.0
H695 H 0.76928 0.32966 0.052 0.0
H696 H 0.7299 0.21606 0.01917 0.0
C697 C 0.70371 0.26439 0.94489 0.0
C698 C 0.73701 0.31779 0.99092 0.0
C699 C 0.70094 0.26908 0.92327 0.0
C700 C 0.74336 0.30924 0.08048 0.0
C701 C 0.74944 0.30795 0.05893 0.0
C702 C 0.73143 0.24481 0.01159 0.0
C703 C 0.73363 0.28419 0.95621 0.0
C704 C 0.73441 0.28249 0.97928 0.0
C705 C 0.72978 0.27941 0.04653 0.0
C706 C 0.73308 0.28023 0.02334 0.0
H707 H 0.781 0.33036 0.91613 0.0
H708 H 0.78525 0.32265 0.95376 0.0
H709 H 0.73009 0.21829 0.9812 0.0
H710 H 0.67971 0.23049 0.08491 0.0
H711 H 0.68901 0.22914 0.04753 0.0
C712 C 0.59858 0.28365 0.22812 0.0
C713 C 0.60285 0.26324 0.20912 0.0
C714 C 0.56357 0.27951 0.24 0.0
C715 C 0.47129 0.21655 0.24457 0.0
H716 H 0.42452 0.3113 0.26892 0.0
C717 C 0.304 0.22808 0.26224 0.0
C718 C 0.29388 0.23722 0.28292 0.0
C719 C 0.34312 0.23297 0.25514 0.0
C720 C 0.43743 0.28459 0.2623 0.0
H721 H 0.57387 0.22124 0.18828 0.0
H722 H 0.51376 0.21481 0.20839 0.0
H723 H 0.49173 0.31439 0.25401 0.0
H724 H 0.31665 0.26061 0.31206 0.0
H725 H 0.38494 0.27037 0.29933 0.0
H726 H 0.41627 0.18735 0.25196 0.0
C727 C 0.5373 0.23351 0.21452 0.0
C728 C 0.47605 0.2862 0.25389 0.0
C729 C 0.57202 0.23747 0.20281 0.0
C730 C 0.32344 0.25333 0.29603 0.0
C731 C 0.36251 0.25893 0.28878 0.0
C732 C 0.43261 0.21518 0.2526 0.0
C733 C 0.53215 0.25482 0.23315 0.0
C734 C 0.49322 0.25235 0.2445 0.0
C735 C 0.37292 0.24777 0.26843 0.0
C736 C 0.415 0.24929 0.26122 0.0
H737 H 0.62157 0.30388 0.23345 0.0
H738 H 0.56094 0.29607 0.25439 0.0
H739 H 0.48372 0.18952 0.23807 0.0
H740 H 0.28215 0.21543 0.25173 0.0
H741 H 0.35029 0.22447 0.23932 0.0
C742 C 0.22616 0.82078 0.79519 0.0
C743 C 0.26226 0.8002 0.79239 0.0
C744 C 0.22109 0.85919 0.78694 0.0
C745 C 0.2809 0.94508 0.76713 0.0
H746 H 0.18029 0.98081 0.74407 0.0
C747 C 0.2669 0.07892 0.71152 0.0
C748 C 0.23434 0.10498 0.71377 0.0
C749 C 0.26998 0.04462 0.72373 0.0
C750 C 0.20843 0.97145 0.75074 0.0
H751 H 0.3206 0.80307 0.77791 0.0
H752 H 0.3114 0.86887 0.76307 0.0
H753 H 0.18521 0.91424 0.75926 0.0
H754 H 0.18011 0.11583 0.73126 0.0
H755 H 0.1853 0.05538 0.75246 0.0
H756 H 0.30441 1.00176 0.75795 0.0
C757 C 0.28738 0.85626 0.7722 0.0
C758 C 0.21129 0.93325 0.75946 0.0
C759 C 0.29255 0.81823 0.78057 0.0
C760 C 0.20567 0.09657 0.72916 0.0
C761 C 0.20843 0.06177 0.74118 0.0
C762 C 0.27813 0.983 0.75826 0.0
C763 C 0.25194 0.87771 0.7756 0.0
C764 C 0.24779 0.91926 0.76746 0.0
C765 C 0.24033 0.03511 0.73835 0.0
C766 C 0.24204 0.99644 0.74968 0.0
H767 H 0.20233 0.80782 0.80434 0.0
H768 H 0.19345 0.87478 0.78999 0.0
H769 H 0.30924 0.93595 0.77365 0.0
H770 H 0.28949 0.08428 0.69983 0.0
H771 H 0.29477 0.0246 0.72105 0.0
C772 C 0.6833 0.72384 0.29374 0.0
C773 C 0.70325 0.76047 0.29167 0.0
C774 C 0.6447 0.71885 0.28568 0.0
C775 C 0.55717 0.77846 0.26762 0.0
H776 H 0.52335 0.67929 0.24229 0.0
C777 C 0.42326 0.76605 0.21178 0.0
C778 C 0.39809 0.73262 0.21319 0.0
C779 C 0.45742 0.76903 0.22413 0.0
C780 C 0.53217 0.70699 0.2496 0.0
H781 H 0.69891 0.81998 0.27873 0.0
H782 H 0.63275 0.81097 0.2642 0.0
H783 H 0.58998 0.68436 0.25745 0.0
H784 H 0.38859 0.67674 0.2294 0.0
H785 H 0.44878 0.68179 0.25084 0.0
H786 H 0.49986 0.80145 0.25908 0.0
C787 C 0.64604 0.78641 0.27263 0.0
C788 C 0.57041 0.70994 0.2583 0.0
C789 C 0.68428 0.79149 0.28082 0.0
C790 C 0.40715 0.70298 0.22795 0.0
C791 C 0.44182 0.70567 0.2401 0.0
C792 C 0.51919 0.77562 0.25875 0.0
C793 C 0.62533 0.75029 0.27523 0.0
C794 C 0.58371 0.74596 0.26713 0.0
C795 C 0.46769 0.73843 0.23805 0.0
C796 C 0.50642 0.74006 0.24937 0.0
H797 H 0.69698 0.69942 0.30214 0.0
H798 H 0.6297 0.69068 0.28813 0.0
H799 H 0.56578 0.80637 0.27476 0.0
H800 H 0.41735 0.78941 0.20059 0.0
H801 H 0.47682 0.79453 0.22206 0.0
C802 C 0.71548 0.19003 0.77732 0.0
C803 C 0.7456 0.20677 0.78978 0.0
C804 C 0.7209 0.15307 0.76777 0.0
C805 C 0.77584 0.05893 0.772 0.0
H806 H 0.74178 0.04486 0.71484 0.0
C807 C 0.79802 0.9113 0.725 0.0
C808 C 0.769 0.90188 0.70997 0.0
C809 C 0.79594 0.94725 0.73613 0.0
C810 C 0.75088 0.04797 0.73093 0.0
H811 H 0.80523 0.19768 0.80191 0.0
H812 H 0.81461 0.13256 0.78524 0.0
H813 H 0.73836 0.11046 0.73071 0.0
H814 H 0.71331 0.92145 0.69618 0.0
H815 H 0.70884 0.98271 0.716 0.0
H816 H 0.7877 0.99612 0.7723 0.0
C817 C 0.78679 0.14831 0.78291 0.0
C818 C 0.74914 0.08575 0.73998 0.0
C819 C 0.78155 0.18572 0.79229 0.0
C820 C 0.73645 0.92782 0.70745 0.0
C821 C 0.73414 0.96334 0.71868 0.0
C822 C 0.77732 0.02088 0.76297 0.0
C823 C 0.75643 0.13155 0.77057 0.0
C824 C 0.76114 0.09167 0.76069 0.0
C825 C 0.76459 0.97436 0.73259 0.0
C826 C 0.76432 0.0148 0.74237 0.0
H827 H 0.6874 0.20537 0.77504 0.0
H828 H 0.69677 0.14088 0.75854 0.0
H829 H 0.78504 0.06249 0.78805 0.0
H830 H 0.82357 0.89211 0.72732 0.0
H831 H 0.81995 0.95463 0.74671 0.0
C832 C 0.06766 0.19488 0.3008 0.0
C833 C 0.09786 0.22303 0.29744 0.0
C834 C 0.03277 0.19556 0.28894 0.0
C835 C 0.98584 0.2398 0.24149 0.0
H836 H 0.88797 0.21695 0.27139 0.0
C837 C 0.82963 0.28404 0.21123 0.0
C838 C 0.79836 0.25631 0.21325 0.0
C839 C 0.86691 0.27678 0.22016 0.0
C840 C 0.91504 0.22289 0.26273 0.0
H841 H 0.11589 0.27385 0.27908 0.0
H842 H 0.05435 0.27587 0.25842 0.0
H843 H 0.95175 0.21099 0.28917 0.0
H844 H 0.78204 0.19895 0.22614 0.0
H845 H 0.8473 0.18653 0.24217 0.0
H846 H 0.94858 0.25306 0.21525 0.0
C847 C 0.05788 0.2525 0.26988 0.0
C848 C 0.95177 0.21939 0.2729 0.0
C849 C 0.09315 0.25147 0.28167 0.0
C850 C 0.80545 0.2209 0.22432 0.0
C851 C 0.84275 0.21388 0.23355 0.0
C852 C 0.94901 0.24368 0.23138 0.0
C853 C 0.02684 0.22499 0.27365 0.0
C854 C 0.98777 0.22787 0.26247 0.0
C855 C 0.87389 0.24181 0.23158 0.0
C856 C 0.91316 0.23544 0.24191 0.0
H857 H 0.07073 0.17278 0.313 0.0
H858 H 0.01017 0.1733 0.29203 0.0
H859 H 0.0128 0.24598 0.2328 0.0
H860 H 0.82537 0.31156 0.20271 0.0
H861 H 0.89006 0.29907 0.21853 0.0
C862 C 0.28075 0.319 0.7135 0.0
C863 C 0.24418 0.29892 0.71578 0.0
C864 C 0.28653 0.35658 0.72261 0.0
C865 C 0.24863 0.4213 0.76454 0.0
H866 H 0.2906 0.50908 0.73198 0.0
C867 C 0.2377 0.58017 0.79561 0.0
C868 C 0.27112 0.60515 0.79356 0.0
C869 C 0.23509 0.54456 0.7845 0.0
C870 C 0.27925 0.48482 0.74137 0.0
H871 H 0.18541 0.30222 0.72979 0.0
H872 H 0.1957 0.36702 0.74581 0.0
H873 H 0.28715 0.44228 0.71674 0.0
H874 H 0.32693 0.61324 0.77707 0.0
H875 H 0.32275 0.55052 0.75787 0.0
H876 H 0.24104 0.46311 0.78923 0.0
C877 C 0.2199 0.35393 0.73698 0.0
C878 C 0.27733 0.44654 0.73264 0.0
C879 C 0.21396 0.3168 0.72772 0.0
C880 C 0.30072 0.59479 0.77902 0.0
C881 C 0.29833 0.55873 0.76801 0.0
C882 C 0.2508 0.4593 0.77329 0.0
C883 C 0.25609 0.37446 0.73443 0.0
C884 C 0.26138 0.41449 0.74404 0.0
C885 C 0.26608 0.5325 0.77118 0.0
C886 C 0.26544 0.49181 0.76174 0.0
H887 H 0.30451 0.30615 0.70428 0.0
H888 H 0.31484 0.37157 0.72048 0.0
H889 H 0.2369 0.39711 0.77388 0.0
H890 H 0.2141 0.58733 0.80647 0.0
H891 H 0.20915 0.52588 0.78684 0.0
C892 C 0.18273 0.77681 0.21029 0.0
C893 C 0.20337 0.74071 0.21288 0.0
C894 C 0.14403 0.78143 0.21826 0.0
C895 C 0.05758 0.72075 0.23659 0.0
H896 H 0.02129 0.81998 0.26086 0.0
C897 C 0.92237 0.73209 0.29158 0.0
C898 C 0.897 0.76534 0.29005 0.0
C899 C 0.95663 0.72927 0.2793 0.0
C900 C 0.03078 0.79224 0.25384 0.0
H901 H 0.20024 0.68186 0.22672 0.0
H902 H 0.13387 0.69025 0.24107 0.0
H903 H 0.08828 0.81585 0.24609 0.0
H904 H 0.88707 0.82086 0.27357 0.0
H905 H 0.94731 0.81603 0.25222 0.0
H906 H 1.00057 0.69683 0.24498 0.0
C907 C 0.14671 0.71464 0.23231 0.0
C908 C 0.06924 0.78984 0.24537 0.0
C909 C 0.18506 0.70994 0.22423 0.0
C910 C 0.90581 0.79479 0.27514 0.0
C911 C 0.94052 0.79223 0.26304 0.0
C912 C 0.01937 0.72307 0.2452 0.0
C913 C 0.12525 0.75011 0.22911 0.0
C914 C 0.08343 0.75383 0.23695 0.0
C915 C 0.96673 0.75982 0.26531 0.0
C916 C 0.0057 0.75865 0.2542 0.0
H917 H 0.19589 0.80101 0.2015 0.0
H918 H 0.12843 0.80911 0.21539 0.0
H919 H 0.06693 0.69281 0.22975 0.0
H920 H 0.91665 0.70886 0.30288 0.0
H921 H 0.97627 0.70402 0.28153 0.0
C922 C 0.70509 0.41132 0.77719 0.0
C923 C 0.73456 0.40198 0.792 0.0
C924 C 0.70679 0.44729 0.76604 0.0
C925 C 0.75134 0.54813 0.77115 0.0
H926 H 0.71764 0.56272 0.71395 0.0
C927 C 0.78769 0.69009 0.72499 0.0
C928 C 0.75796 0.70688 0.7123 0.0
C929 C 0.78191 0.65316 0.73452 0.0
C930 C 0.72669 0.55915 0.73003 0.0
H931 H 0.7906 0.42172 0.80534 0.0
H932 H 0.79432 0.48303 0.78553 0.0
H933 H 0.71487 0.49629 0.7297 0.0
H934 H 0.69863 0.69791 0.69975 0.0
H935 H 0.68859 0.63285 0.71642 0.0
H936 H 0.76377 0.61063 0.77143 0.0
C937 C 0.76902 0.46355 0.78304 0.0
C938 C 0.72515 0.52107 0.73905 0.0
C939 C 0.76713 0.42802 0.79427 0.0
C940 C 0.72201 0.68592 0.70955 0.0
C941 C 0.7164 0.64854 0.71893 0.0
C942 C 0.75309 0.58593 0.76213 0.0
C943 C 0.73816 0.47449 0.76937 0.0
C944 C 0.73809 0.51497 0.75966 0.0
C945 C 0.74637 0.63173 0.7315 0.0
C946 C 0.74133 0.59188 0.74138 0.0
H947 H 0.67952 0.39205 0.77508 0.0
H948 H 0.6825 0.45462 0.75562 0.0
H949 H 0.76038 0.54497 0.78724 0.0
H950 H 0.81576 0.70536 0.72746 0.0
H951 H 0.80577 0.64093 0.74391 0.0
loop_
_geom_bond_atom_site_label_1
_geom_bond_atom_site_label_2
_geom_bond_distance
_geom_bond_site_symmetry_2
_ccdc_geom_bond_type
Co0 O2 2.143 . S
Co0 O8 2.074 . S
Co0 O11 2.093 . S
Co0 O24 2.097 . S
Co0 N41 2.151 . S
Co0 N49 2.214 . S
Co1 O2 2.160 . S
Co1 O7 2.058 . S
Co1 O17 2.057 . S
Co1 O32 2.037 . S
Co1 N36 2.145 . S
Co1 N57 2.257 . S
O2 Co0 2.143 . S
O2 Co1 2.160 . S
C3 O4 1.278 . S
C3 O11 1.224 . S
O4 C3 1.278 . S
C5 O6 1.245 . S
C5 O17 1.232 . S
O6 C5 1.245 . S
O7 Co1 2.058 . S
O7 C33 1.269 . S
O8 Co0 2.074 . S
O8 C33 1.257 . S
H9 C34 0.930 . S
H10 C40 0.930 . S
O11 Co0 2.093 . S
O11 C3 1.224 . S
H12 C44 0.929 . S
H13 C46 0.930 . S
H14 C47 0.930 . S
H15 C45 0.929 . S
H16 C48 0.928 . S
O17 Co1 2.057 . S
O17 C5 1.232 . S
H18 C37 0.929 . S
H19 C38 0.929 . S
H20 C50 0.931 . S
H21 C42 0.929 . S
H22 C51 0.930 . S
H23 C43 0.931 . S
O24 Co0 2.097 . S
O24 C52 1.214 . S
H25 C53 0.929 . S
H26 C54 0.929 . S
H27 C55 0.930 . S
H28 C56 0.929 . S
H29 C58 0.930 . S
H30 C35 0.930 . S
H31 C39 0.930 . S
O32 Co1 2.037 . S
O32 C52 1.234 . S
C33 O7 1.269 . S
C33 O8 1.257 . S
C34 H9 0.930 . S
C34 C37 1.388 . S
C34 C39 1.418 . S
C35 H30 0.930 . S
C35 C38 1.404 . S
C35 C39 1.353 . S
N36 Co1 2.145 . S
N36 C37 1.397 . S
N36 C38 1.334 . S
C37 H18 0.929 . S
C37 C34 1.388 . S
C37 N36 1.397 . S
C38 H19 0.929 . S
C38 C35 1.404 . S
C38 N36 1.334 . S
C39 H31 0.930 . S
C39 C34 1.418 . S
C39 C35 1.353 . S
C40 H10 0.930 . S
C40 N41 1.330 . S
C40 C42 1.446 . S
N41 Co0 2.151 . S
N41 C40 1.330 . S
N41 C45 1.418 . S
C42 H21 0.929 . S
C42 C40 1.446 . S
C42 C43 1.332 . S
C43 H23 0.931 . S
C43 C42 1.332 . S
C43 C44 1.267 . S
C44 H12 0.929 . S
C44 C43 1.267 . S
C44 C45 1.251 . S
C45 H15 0.929 . S
C45 N41 1.418 . S
C45 C44 1.251 . S
C46 H13 0.930 . S
C46 C48 1.406 . S
C46 C51 1.261 1_455 S
C47 H14 0.930 . S
C47 N49 1.325 . S
C47 C50 1.357 1_455 S
C48 H16 0.928 . S
C48 C46 1.406 . S
C48 N49 1.261 . S
N49 Co0 2.214 . S
N49 C47 1.325 . S
N49 C48 1.261 . S
C50 H20 0.931 . S
C50 C47 1.357 1_655 S
C50 C51 1.312 . S
C51 H22 0.930 . S
C51 C46 1.261 1_655 S
C51 C50 1.312 . S
C52 O24 1.214 . S
C52 O32 1.234 . S
C53 H25 0.929 . S
C53 C56 1.391 . S
C53 C58 1.391 . S
C54 H26 0.929 . S
C54 C55 1.390 . S
C54 N57 1.391 . S
C55 H27 0.930 . S
C55 C54 1.390 . S
C55 C56 1.392 . S
C56 H28 0.929 . S
C56 C53 1.391 . S
C56 C55 1.392 . S
N57 Co1 2.257 . S
N57 C54 1.391 . S
N57 C58 1.388 . S
C58 H29 0.930 . S
C58 C53 1.391 . S
C58 N57 1.388 . S
Co59 O61 2.143 . S
Co59 O67 2.074 . S
Co59 O70 2.093 . S
Co59 O83 2.097 . S
Co59 N100 2.151 . S
Co59 N108 2.214 . S
Co60 O61 2.160 . S
Co60 O66 2.058 . S
Co60 O76 2.057 . S
Co60 O91 2.037 . S
Co60 N95 2.145 . S
Co60 N116 2.257 . S
O61 Co59 2.143 . S
O61 Co60 2.160 . S
C62 O63 1.278 . S
C62 O70 1.224 . S
O63 C62 1.278 . S
C64 O65 1.245 . S
C64 O76 1.232 . S
O65 C64 1.245 . S
O66 Co60 2.058 . S
O66 C92 1.269 . S
O67 Co59 2.074 . S
O67 C92 1.257 . S
H68 C93 0.930 . S
H69 C99 0.930 . S
O70 Co59 2.093 . S
O70 C62 1.224 . S
H71 C103 0.929 . S
H72 C105 0.930 . S
H73 C106 0.930 . S
H74 C104 0.929 . S
H75 C107 0.928 . S
O76 Co60 2.057 . S
O76 C64 1.232 . S
H77 C96 0.929 . S
H78 C97 0.929 . S
H79 C109 0.931 . S
H80 C101 0.929 . S
H81 C110 0.930 . S
H82 C102 0.931 . S
O83 Co59 2.097 . S
O83 C111 1.214 . S
H84 C112 0.929 . S
H85 C113 0.929 . S
H86 C114 0.930 . S
H87 C115 0.929 . S
H88 C117 0.930 . S
H89 C94 0.930 . S
H90 C98 0.930 . S
O91 Co60 2.037 . S
O91 C111 1.234 . S
C92 O66 1.269 . S
C92 O67 1.257 . S
C93 H68 0.930 . S
C93 C96 1.388 . S
C93 C98 1.418 . S
C94 H89 0.930 . S
C94 C97 1.404 . S
C94 C98 1.353 . S
N95 Co60 2.145 . S
N95 C96 1.397 . S
N95 C97 1.334 . S
C96 H77 0.929 . S
C96 C93 1.388 . S
C96 N95 1.397 . S
C97 H78 0.929 . S
C97 C94 1.404 . S
C97 N95 1.334 . S
C98 H90 0.930 . S
C98 C93 1.418 . S
C98 C94 1.353 . S
C99 H69 0.930 . S
C99 N100 1.330 . S
C99 C101 1.446 . S
N100 Co59 2.151 . S
N100 C99 1.330 . S
N100 C104 1.418 . S
C101 H80 0.929 . S
C101 C99 1.446 . S
C101 C102 1.332 . S
C102 H82 0.931 . S
C102 C101 1.332 . S
C102 C103 1.267 . S
C103 H71 0.929 . S
C103 C102 1.267 . S
C103 C104 1.251 . S
C104 H74 0.929 . S
C104 N100 1.418 . S
C104 C103 1.251 . S
C105 H72 0.930 . S
C105 C107 1.406 . S
C105 C110 1.261 . S
C106 H73 0.930 . S
C106 N108 1.325 . S
C106 C109 1.357 . S
C107 H75 0.928 . S
C107 C105 1.406 . S
C107 N108 1.261 . S
N108 Co59 2.214 . S
N108 C106 1.325 . S
N108 C107 1.261 . S
C109 H79 0.931 . S
C109 C106 1.357 . S
C109 C110 1.312 . S
C110 H81 0.930 . S
C110 C105 1.261 . S
C110 C109 1.312 . S
C111 O83 1.214 . S
C111 O91 1.234 . S
C112 H84 0.929 . S
C112 C115 1.391 . S
C112 C117 1.391 . S
C113 H85 0.929 . S
C113 C114 1.390 . S
C113 N116 1.391 . S
C114 H86 0.930 . S
C114 C113 1.390 . S
C114 C115 1.392 . S
C115 H87 0.929 . S
C115 C112 1.391 . S
C115 C114 1.392 . S
N116 Co60 2.257 . S
N116 C113 1.391 . S
N116 C117 1.388 . S
C117 H88 0.930 . S
C117 C112 1.391 . S
C117 N116 1.388 . S
Co118 O120 2.143 . S
Co118 O126 2.074 . S
Co118 O129 2.093 . S
Co118 O142 2.097 . S
Co118 N159 2.151 . S
Co118 N167 2.214 . S
Co119 O120 2.160 . S
Co119 O125 2.058 . S
Co119 O135 2.057 . S
Co119 O150 2.037 . S
Co119 N154 2.145 . S
Co119 N175 2.257 . S
O120 Co118 2.143 . S
O120 Co119 2.160 . S
C121 O122 1.278 . S
C121 O129 1.224 . S
O122 C121 1.278 . S
C123 O124 1.245 . S
C123 O135 1.232 . S
O124 C123 1.245 . S
O125 Co119 2.058 . S
O125 C151 1.269 . S
O126 Co118 2.074 . S
O126 C151 1.257 . S
H127 C152 0.930 . S
H128 C158 0.930 . S
O129 Co118 2.093 . S
O129 C121 1.224 . S
H130 C162 0.929 . S
H131 C164 0.930 . S
H132 C165 0.930 . S
H133 C163 0.929 . S
H134 C166 0.928 . S
O135 Co119 2.057 . S
O135 C123 1.232 . S
H136 C155 0.929 . S
H137 C156 0.929 . S
H138 C168 0.931 . S
H139 C160 0.929 . S
H140 C169 0.930 . S
H141 C161 0.931 . S
O142 Co118 2.097 . S
O142 C170 1.214 . S
H143 C171 0.929 . S
H144 C172 0.929 . S
H145 C173 0.930 . S
H146 C174 0.929 . S
H147 C176 0.930 . S
H148 C153 0.930 . S
H149 C157 0.930 . S
O150 Co119 2.037 . S
O150 C170 1.234 . S
C151 O125 1.269 . S
C151 O126 1.257 . S
C152 H127 0.930 . S
C152 C155 1.388 . S
C152 C157 1.418 . S
C153 H148 0.930 . S
C153 C156 1.404 . S
C153 C157 1.353 . S
N154 Co119 2.145 . S
N154 C155 1.397 . S
N154 C156 1.334 . S
C155 H136 0.929 . S
C155 C152 1.388 . S
C155 N154 1.397 . S
C156 H137 0.929 . S
C156 C153 1.404 . S
C156 N154 1.334 . S
C157 H149 0.930 . S
C157 C152 1.418 . S
C157 C153 1.353 . S
C158 H128 0.930 . S
C158 N159 1.330 . S
C158 C160 1.446 . S
N159 Co118 2.151 . S
N159 C158 1.330 . S
N159 C163 1.418 . S
C160 H139 0.929 . S
C160 C158 1.446 . S
C160 C161 1.332 . S
C161 H141 0.931 . S
C161 C160 1.332 . S
C161 C162 1.267 . S
C162 H130 0.929 . S
C162 C161 1.267 . S
C162 C163 1.251 . S
C163 H133 0.929 . S
C163 N159 1.418 . S
C163 C162 1.251 . S
C164 H131 0.930 . S
C164 C166 1.406 . S
C164 C169 1.261 1_655 S
C165 H132 0.930 . S
C165 N167 1.325 . S
C165 C168 1.357 1_655 S
C166 H134 0.928 . S
C166 C164 1.406 . S
C166 N167 1.261 . S
N167 Co118 2.214 . S
N167 C165 1.325 . S
N167 C166 1.261 . S
C168 H138 0.931 . S
C168 C165 1.357 1_455 S
C168 C169 1.312 . S
C169 H140 0.930 . S
C169 C164 1.261 1_455 S
C169 C168 1.312 . S
C170 O142 1.214 . S
C170 O150 1.234 . S
C171 H143 0.929 . S
C171 C174 1.391 . S
C171 C176 1.391 . S
C172 H144 0.929 . S
C172 C173 1.390 . S
C172 N175 1.391 . S
C173 H145 0.930 . S
C173 C172 1.390 . S
C173 C174 1.392 . S
C174 H146 0.929 . S
C174 C171 1.391 . S
C174 C173 1.392 . S
N175 Co119 2.257 . S
N175 C172 1.391 . S
N175 C176 1.388 . S
C176 H147 0.930 . S
C176 C171 1.391 . S
C176 N175 1.388 . S
Co177 O179 2.143 . S
Co177 O185 2.074 . S
Co177 O188 2.093 . S
Co177 O201 2.097 . S
Co177 N218 2.151 . S
Co177 N226 2.214 . S
Co178 O179 2.160 . S
Co178 O184 2.058 . S
Co178 O194 2.057 . S
Co178 O209 2.037 . S
Co178 N213 2.145 . S
Co178 N234 2.257 . S
O179 Co177 2.143 . S
O179 Co178 2.160 . S
C180 O181 1.278 . S
C180 O188 1.224 . S
O181 C180 1.278 . S
C182 O183 1.245 . S
C182 O194 1.232 . S
O183 C182 1.245 . S
O184 Co178 2.058 . S
O184 C210 1.269 . S
O185 Co177 2.074 . S
O185 C210 1.257 . S
H186 C211 0.930 . S
H187 C217 0.930 . S
O188 Co177 2.093 . S
O188 C180 1.224 . S
H189 C221 0.929 . S
H190 C223 0.930 . S
H191 C224 0.930 . S
H192 C222 0.929 . S
H193 C225 0.928 . S
O194 Co178 2.057 . S
O194 C182 1.232 . S
H195 C214 0.929 . S
H196 C215 0.929 . S
H197 C227 0.931 . S
H198 C219 0.929 . S
H199 C228 0.930 . S
H200 C220 0.931 . S
O201 Co177 2.097 . S
O201 C229 1.214 . S
H202 C230 0.929 . S
H203 C231 0.929 . S
H204 C232 0.930 . S
H205 C233 0.929 . S
H206 C235 0.930 . S
H207 C212 0.930 . S
H208 C216 0.930 . S
O209 Co178 2.037 . S
O209 C229 1.234 . S
C210 O184 1.269 . S
C210 O185 1.257 . S
C211 H186 0.930 . S
C211 C214 1.388 . S
C211 C216 1.418 . S
C212 H207 0.930 . S
C212 C215 1.404 . S
C212 C216 1.353 . S
N213 Co178 2.145 . S
N213 C214 1.397 . S
N213 C215 1.334 . S
C214 H195 0.929 . S
C214 C211 1.388 . S
C214 N213 1.397 . S
C215 H196 0.929 . S
C215 C212 1.404 . S
C215 N213 1.334 . S
C216 H208 0.930 . S
C216 C211 1.418 . S
C216 C212 1.353 . S
C217 H187 0.930 . S
C217 N218 1.330 . S
C217 C219 1.446 . S
N218 Co177 2.151 . S
N218 C217 1.330 . S
N218 C222 1.418 . S
C219 H198 0.929 . S
C219 C217 1.446 . S
C219 C220 1.332 . S
C220 H200 0.931 . S
C220 C219 1.332 . S
C220 C221 1.267 . S
C221 H189 0.929 . S
C221 C220 1.267 . S
C221 C222 1.251 . S
C222 H192 0.929 . S
C222 N218 1.418 . S
C222 C221 1.251 . S
C223 H190 0.930 . S
C223 C225 1.406 . S
C223 C228 1.261 . S
C224 H191 0.930 . S
C224 N226 1.325 . S
C224 C227 1.357 . S
C225 H193 0.928 . S
C225 C223 1.406 . S
C225 N226 1.261 . S
N226 Co177 2.214 . S
N226 C224 1.325 . S
N226 C225 1.261 . S
C227 H197 0.931 . S
C227 C224 1.357 . S
C227 C228 1.312 . S
C228 H199 0.930 . S
C228 C223 1.261 . S
C228 C227 1.312 . S
C229 O201 1.214 . S
C229 O209 1.234 . S
C230 H202 0.929 . S
C230 C233 1.391 . S
C230 C235 1.391 . S
C231 H203 0.929 . S
C231 C232 1.390 . S
C231 N234 1.391 . S
C232 H204 0.930 . S
C232 C231 1.390 . S
C232 C233 1.392 . S
C233 H205 0.929 . S
C233 C230 1.391 . S
C233 C232 1.392 . S
N234 Co178 2.257 . S
N234 C231 1.391 . S
N234 C235 1.388 . S
C235 H206 0.930 . S
C235 C230 1.391 . S
C235 N234 1.388 . S
Co236 O238 2.143 . S
Co236 O244 2.074 . S
Co236 O247 2.093 . S
Co236 O260 2.097 . S
Co236 N277 2.151 . S
Co236 N285 2.214 . S
Co237 O238 2.160 . S
Co237 O243 2.058 . S
Co237 O253 2.057 . S
Co237 O268 2.037 . S
Co237 N272 2.145 . S
Co237 N293 2.257 . S
O238 Co236 2.143 . S
O238 Co237 2.160 . S
C239 O240 1.278 . S
C239 O247 1.224 . S
O240 C239 1.278 . S
C241 O242 1.245 . S
C241 O253 1.232 . S
O242 C241 1.245 . S
O243 Co237 2.058 . S
O243 C269 1.269 . S
O244 Co236 2.074 . S
O244 C269 1.257 . S
H245 C270 0.930 . S
H246 C276 0.930 . S
O247 Co236 2.093 . S
O247 C239 1.224 . S
H248 C280 0.929 . S
H249 C282 0.930 . S
H250 C283 0.930 . S
H251 C281 0.929 . S
H252 C284 0.928 . S
O253 Co237 2.057 . S
O253 C241 1.232 . S
H254 C273 0.929 . S
H255 C274 0.929 . S
H256 C286 0.931 . S
H257 C278 0.929 . S
H258 C287 0.930 . S
H259 C279 0.931 . S
O260 Co236 2.097 . S
O260 C288 1.214 . S
H261 C289 0.929 . S
H262 C290 0.929 . S
H263 C291 0.930 . S
H264 C292 0.929 . S
H265 C294 0.930 . S
H266 C271 0.930 . S
H267 C275 0.930 . S
O268 Co237 2.037 . S
O268 C288 1.234 . S
C269 O243 1.269 . S
C269 O244 1.257 . S
C270 H245 0.930 . S
C270 C273 1.388 . S
C270 C275 1.418 . S
C271 H266 0.930 . S
C271 C274 1.404 . S
C271 C275 1.353 . S
N272 Co237 2.145 . S
N272 C273 1.397 . S
N272 C274 1.334 . S
C273 H254 0.929 . S
C273 C270 1.388 . S
C273 N272 1.397 . S
C274 H255 0.929 . S
C274 C271 1.404 . S
C274 N272 1.334 . S
C275 H267 0.930 . S
C275 C270 1.418 . S
C275 C271 1.353 . S
C276 H246 0.930 . S
C276 N277 1.330 . S
C276 C278 1.446 . S
N277 Co236 2.151 . S
N277 C276 1.330 . S
N277 C281 1.418 . S
C278 H257 0.929 . S
C278 C276 1.446 . S
C278 C279 1.332 . S
C279 H259 0.931 . S
C279 C278 1.332 . S
C279 C280 1.267 . S
C280 H248 0.929 . S
C280 C279 1.267 . S
C280 C281 1.251 . S
C281 H251 0.929 . S
C281 N277 1.418 . S
C281 C280 1.251 . S
C282 H249 0.930 . S
C282 C284 1.406 . S
C282 C287 1.261 . S
C283 H250 0.930 . S
C283 N285 1.325 . S
C283 C286 1.357 . S
C284 H252 0.928 . S
C284 C282 1.406 . S
C284 N285 1.261 . S
N285 Co236 2.214 . S
N285 C283 1.325 . S
N285 C284 1.261 . S
C286 H256 0.931 . S
C286 C283 1.357 . S
C286 C287 1.312 . S
C287 H258 0.930 . S
C287 C282 1.261 . S
C287 C286 1.312 . S
C288 O260 1.214 . S
C288 O268 1.234 . S
C289 H261 0.929 . S
C289 C292 1.391 . S
C289 C294 1.391 . S
C290 H262 0.929 . S
C290 C291 1.390 . S
C290 N293 1.391 . S
C291 H263 0.930 . S
C291 C290 1.390 . S
C291 C292 1.392 . S
C292 H264 0.929 . S
C292 C289 1.391 . S
C292 C291 1.392 . S
N293 Co237 2.257 . S
N293 C290 1.391 . S
N293 C294 1.388 . S
C294 H265 0.930 . S
C294 C289 1.391 . S
C294 N293 1.388 . S
Co295 O297 2.143 . S
Co295 O303 2.074 . S
Co295 O306 2.093 . S
Co295 O319 2.097 . S
Co295 N336 2.151 . S
Co295 N344 2.214 . S
Co296 O297 2.160 . S
Co296 O302 2.058 . S
Co296 O312 2.057 . S
Co296 O327 2.037 . S
Co296 N331 2.145 . S
Co296 N352 2.257 . S
O297 Co295 2.143 . S
O297 Co296 2.160 . S
C298 O299 1.278 . S
C298 O306 1.224 . S
O299 C298 1.278 . S
C300 O301 1.245 . S
C300 O312 1.232 . S
O301 C300 1.245 . S
O302 Co296 2.058 . S
O302 C328 1.269 . S
O303 Co295 2.074 . S
O303 C328 1.257 . S
H304 C329 0.930 . S
H305 C335 0.930 . S
O306 Co295 2.093 . S
O306 C298 1.224 . S
H307 C339 0.929 . S
H308 C341 0.930 . S
H309 C342 0.930 . S
H310 C340 0.929 . S
H311 C343 0.928 . S
O312 Co296 2.057 . S
O312 C300 1.232 . S
H313 C332 0.929 . S
H314 C333 0.929 . S
H315 C345 0.931 . S
H316 C337 0.929 . S
H317 C346 0.930 . S
H318 C338 0.931 . S
O319 Co295 2.097 . S
O319 C347 1.214 . S
H320 C348 0.929 . S
H321 C349 0.929 . S
H322 C350 0.930 . S
H323 C351 0.929 . S
H324 C353 0.930 . S
H325 C330 0.930 . S
H326 C334 0.930 . S
O327 Co296 2.037 . S
O327 C347 1.234 . S
C328 O302 1.269 . S
C328 O303 1.257 . S
C329 H304 0.930 . S
C329 C332 1.388 . S
C329 C334 1.418 . S
C330 H325 0.930 . S
C330 C333 1.404 . S
C330 C334 1.353 . S
N331 Co296 2.145 . S
N331 C332 1.397 . S
N331 C333 1.334 . S
C332 H313 0.929 . S
C332 C329 1.388 . S
C332 N331 1.397 . S
C333 H314 0.929 . S
C333 C330 1.404 . S
C333 N331 1.334 . S
C334 H326 0.930 . S
C334 C329 1.418 . S
C334 C330 1.353 . S
C335 H305 0.930 . S
C335 N336 1.330 . S
C335 C337 1.446 . S
N336 Co295 2.151 . S
N336 C335 1.330 . S
N336 C340 1.418 . S
C337 H316 0.929 . S
C337 C335 1.446 . S
C337 C338 1.332 . S
C338 H318 0.931 . S
C338 C337 1.332 . S
C338 C339 1.267 . S
C339 H307 0.929 . S
C339 C338 1.267 . S
C339 C340 1.251 . S
C340 H310 0.929 . S
C340 N336 1.418 . S
C340 C339 1.251 . S
C341 H308 0.930 . S
C341 C343 1.406 . S
C341 C346 1.261 1_545 S
C342 H309 0.930 . S
C342 N344 1.325 . S
C342 C345 1.357 1_545 S
C343 H311 0.928 . S
C343 C341 1.406 . S
C343 N344 1.261 . S
N344 Co295 2.214 . S
N344 C342 1.325 . S
N344 C343 1.261 . S
C345 H315 0.931 . S
C345 C342 1.357 1_565 S
C345 C346 1.312 . S
C346 H317 0.930 . S
C346 C341 1.261 1_565 S
C346 C345 1.312 . S
C347 O319 1.214 . S
C347 O327 1.234 . S
C348 H320 0.929 . S
C348 C351 1.391 . S
C348 C353 1.391 . S
C349 H321 0.929 . S
C349 C350 1.390 . S
C349 N352 1.391 . S
C350 H322 0.930 . S
C350 C349 1.390 . S
C350 C351 1.392 . S
C351 H323 0.929 . S
C351 C348 1.391 . S
C351 C350 1.392 . S
N352 Co296 2.257 . S
N352 C349 1.391 . S
N352 C353 1.388 . S
C353 H324 0.930 . S
C353 C348 1.391 . S
C353 N352 1.388 . S
Co354 O356 2.143 . S
Co354 O362 2.074 . S
Co354 O365 2.093 . S
Co354 O378 2.097 . S
Co354 N395 2.151 . S
Co354 N403 2.214 . S
Co355 O356 2.160 . S
Co355 O361 2.058 . S
Co355 O371 2.057 . S
Co355 O386 2.037 . S
Co355 N390 2.145 . S
Co355 N411 2.257 . S
O356 Co354 2.143 . S
O356 Co355 2.160 . S
C357 O358 1.278 . S
C357 O365 1.224 . S
O358 C357 1.278 . S
C359 O360 1.245 . S
C359 O371 1.232 . S
O360 C359 1.245 . S
O361 Co355 2.058 . S
O361 C387 1.269 . S
O362 Co354 2.074 . S
O362 C387 1.257 . S
H363 C388 0.930 . S
H364 C394 0.930 . S
O365 Co354 2.093 . S
O365 C357 1.224 . S
H366 C398 0.929 . S
H367 C400 0.930 . S
H368 C401 0.930 . S
H369 C399 0.929 . S
H370 C402 0.928 . S
O371 Co355 2.057 . S
O371 C359 1.232 . S
H372 C391 0.929 . S
H373 C392 0.929 . S
H374 C404 0.931 . S
H375 C396 0.929 . S
H376 C405 0.930 . S
H377 C397 0.931 . S
O378 Co354 2.097 . S
O378 C406 1.214 . S
H379 C407 0.929 . S
H380 C408 0.929 . S
H381 C409 0.930 . S
H382 C410 0.929 . S
H383 C412 0.930 . S
H384 C389 0.930 . S
H385 C393 0.930 . S
O386 Co355 2.037 . S
O386 C406 1.234 . S
C387 O361 1.269 . S
C387 O362 1.257 . S
C388 H363 0.930 . S
C388 C391 1.388 . S
C388 C393 1.418 . S
C389 H384 0.930 . S
C389 C392 1.404 . S
C389 C393 1.353 . S
N390 Co355 2.145 . S
N390 C391 1.397 . S
N390 C392 1.334 . S
C391 H372 0.929 . S
C391 C388 1.388 . S
C391 N390 1.397 . S
C392 H373 0.929 . S
C392 C389 1.404 . S
C392 N390 1.334 . S
C393 H385 0.930 . S
C393 C388 1.418 . S
C393 C389 1.353 . S
C394 H364 0.930 . S
C394 N395 1.330 . S
C394 C396 1.446 . S
N395 Co354 2.151 . S
N395 C394 1.330 . S
N395 C399 1.418 . S
C396 H375 0.929 . S
C396 C394 1.446 . S
C396 C397 1.332 . S
C397 H377 0.931 . S
C397 C396 1.332 . S
C397 C398 1.267 . S
C398 H366 0.929 . S
C398 C397 1.267 . S
C398 C399 1.251 . S
C399 H369 0.929 . S
C399 N395 1.418 . S
C399 C398 1.251 . S
C400 H367 0.930 . S
C400 C402 1.406 . S
C400 C405 1.261 . S
C401 H368 0.930 . S
C401 N403 1.325 . S
C401 C404 1.357 . S
C402 H370 0.928 . S
C402 C400 1.406 . S
C402 N403 1.261 . S
N403 Co354 2.214 . S
N403 C401 1.325 . S
N403 C402 1.261 . S
C404 H374 0.931 . S
C404 C401 1.357 . S
C404 C405 1.312 . S
C405 H376 0.930 . S
C405 C400 1.261 . S
C405 C404 1.312 . S
C406 O378 1.214 . S
C406 O386 1.234 . S
C407 H379 0.929 . S
C407 C410 1.391 . S
C407 C412 1.391 . S
C408 H380 0.929 . S
C408 C409 1.390 . S
C408 N411 1.391 . S
C409 H381 0.930 . S
C409 C408 1.390 . S
C409 C410 1.392 . S
C410 H382 0.929 . S
C410 C407 1.391 . S
C410 C409 1.392 . S
N411 Co355 2.257 . S
N411 C408 1.391 . S
N411 C412 1.388 . S
C412 H383 0.930 . S
C412 C407 1.391 . S
C412 N411 1.388 . S
Co413 O415 2.143 . S
Co413 O421 2.074 . S
Co413 O424 2.093 . S
Co413 O437 2.097 . S
Co413 N454 2.151 . S
Co413 N462 2.214 . S
Co414 O415 2.160 . S
Co414 O420 2.058 . S
Co414 O430 2.057 . S
Co414 O445 2.037 . S
Co414 N449 2.145 . S
Co414 N470 2.257 . S
O415 Co413 2.143 . S
O415 Co414 2.160 . S
C416 O417 1.278 . S
C416 O424 1.224 . S
O417 C416 1.278 . S
C418 O419 1.245 . S
C418 O430 1.232 . S
O419 C418 1.245 . S
O420 Co414 2.058 . S
O420 C446 1.269 . S
O421 Co413 2.074 . S
O421 C446 1.257 . S
H422 C447 0.930 . S
H423 C453 0.930 . S
O424 Co413 2.093 . S
O424 C416 1.224 . S
H425 C457 0.929 . S
H426 C459 0.930 . S
H427 C460 0.930 . S
H428 C458 0.929 . S
H429 C461 0.928 . S
O430 Co414 2.057 . S
O430 C418 1.232 . S
H431 C450 0.929 . S
H432 C451 0.929 . S
H433 C463 0.931 . S
H434 C455 0.929 . S
H435 C464 0.930 . S
H436 C456 0.931 . S
O437 Co413 2.097 . S
O437 C465 1.214 . S
H438 C466 0.929 . S
H439 C467 0.929 . S
H440 C468 0.930 . S
H441 C469 0.929 . S
H442 C471 0.930 . S
H443 C448 0.930 . S
H444 C452 0.930 . S
O445 Co414 2.037 . S
O445 C465 1.234 . S
C446 O420 1.269 . S
C446 O421 1.257 . S
C447 H422 0.930 . S
C447 C450 1.388 . S
C447 C452 1.418 . S
C448 H443 0.930 . S
C448 C451 1.404 . S
C448 C452 1.353 . S
N449 Co414 2.145 . S
N449 C450 1.397 . S
N449 C451 1.334 . S
C450 H431 0.929 . S
C450 C447 1.388 . S
C450 N449 1.397 . S
C451 H432 0.929 . S
C451 C448 1.404 . S
C451 N449 1.334 . S
C452 H444 0.930 . S
C452 C447 1.418 . S
C452 C448 1.353 . S
C453 H423 0.930 . S
C453 N454 1.330 . S
C453 C455 1.446 . S
N454 Co413 2.151 . S
N454 C453 1.330 . S
N454 C458 1.418 . S
C455 H434 0.929 . S
C455 C453 1.446 . S
C455 C456 1.332 . S
C456 H436 0.931 . S
C456 C455 1.332 . S
C456 C457 1.267 . S
C457 H425 0.929 . S
C457 C456 1.267 . S
C457 C458 1.251 . S
C458 H428 0.929 . S
C458 N454 1.418 . S
C458 C457 1.251 . S
C459 H426 0.930 . S
C459 C461 1.406 . S
C459 C464 1.261 1_565 S
C460 H427 0.930 . S
C460 N462 1.325 . S
C460 C463 1.357 1_565 S
C461 H429 0.928 . S
C461 C459 1.406 . S
C461 N462 1.261 . S
N462 Co413 2.214 . S
N462 C460 1.325 . S
N462 C461 1.261 . S
C463 H433 0.931 . S
C463 C460 1.357 1_545 S
C463 C464 1.312 . S
C464 H435 0.930 . S
C464 C459 1.261 1_545 S
C464 C463 1.312 . S
C465 O437 1.214 . S
C465 O445 1.234 . S
C466 H438 0.929 . S
C466 C469 1.391 . S
C466 C471 1.391 . S
C467 H439 0.929 . S
C467 C468 1.390 . S
C467 N470 1.391 . S
C468 H440 0.930 . S
C468 C467 1.390 . S
C468 C469 1.392 . S
C469 H441 0.929 . S
C469 C466 1.391 . S
C469 C468 1.392 . S
N470 Co414 2.257 . S
N470 C467 1.391 . S
N470 C471 1.388 . S
C471 H442 0.930 . S
C471 C466 1.391 . S
C471 N470 1.388 . S
C472 C473 1.349 . S
C472 C474 1.327 . S
C472 H497 0.950 . S
C473 C472 1.349 . S
C473 C489 1.349 . S
C474 C472 1.327 . S
C474 C493 1.429 . S
C474 H498 0.950 . S
C475 C492 1.574 1_545 S
C475 C494 1.368 . S
C475 H499 0.949 . S
H476 C480 0.949 . S
C477 C478 1.349 . S
C477 C479 1.327 . S
C477 H500 0.950 . S
C478 C477 1.349 . S
C478 C490 1.349 . S
C479 C477 1.327 . S
C479 C495 1.429 . S
C479 H501 0.950 . S
C480 H476 0.949 . S
C480 C488 1.574 1_565 S
C480 C496 1.368 . S
H481 C489 0.950 . S
H482 C487 0.950 . S
H483 C488 0.949 . S
H484 C490 0.950 . S
H485 C491 0.950 . S
H486 C492 0.949 . S
C487 H482 0.950 . S
C487 C489 1.327 . S
C487 C493 1.429 . S
C488 C480 1.574 1_545 S
C488 H483 0.949 . S
C488 C494 1.368 1_655 S
C489 C473 1.349 . S
C489 H481 0.950 . S
C489 C487 1.327 . S
C490 C478 1.349 . S
C490 H484 0.950 . S
C490 C491 1.327 . S
C491 H485 0.950 . S
C491 C490 1.327 . S
C491 C495 1.429 . S
C492 C475 1.574 1_565 S
C492 H486 0.949 . S
C492 C496 1.368 1_455 S
C493 C474 1.429 . S
C493 C487 1.429 . S
C493 C494 1.523 . S
C494 C475 1.368 . S
C494 C488 1.368 1_455 S
C494 C493 1.523 . S
C495 C479 1.429 . S
C495 C491 1.429 . S
C495 C496 1.523 . S
C496 C480 1.368 . S
C496 C492 1.368 1_655 S
C496 C495 1.523 . S
H497 C472 0.950 . S
H498 C474 0.950 . S
H499 C475 0.949 . S
H500 C477 0.950 . S
H501 C479 0.950 . S
C502 C503 1.349 . S
C502 C504 1.327 . S
C502 H527 0.950 . S
C503 C502 1.349 . S
C503 C519 1.349 . S
C504 C502 1.327 . S
C504 C523 1.429 . S
C504 H528 0.950 . S
C505 C522 1.574 . S
C505 C524 1.368 . S
C505 H529 0.949 . S
H506 C510 0.949 . S
C507 C508 1.349 . S
C507 C509 1.327 . S
C507 H530 0.950 . S
C508 C507 1.349 . S
C508 C520 1.349 . S
C509 C507 1.327 . S
C509 C525 1.429 . S
C509 H531 0.950 . S
C510 H506 0.949 . S
C510 C518 1.574 . S
C510 C526 1.368 . S
H511 C519 0.950 . S
H512 C517 0.950 . S
H513 C518 0.949 . S
H514 C520 0.950 . S
H515 C521 0.950 . S
H516 C522 0.949 . S
C517 H512 0.950 . S
C517 C519 1.327 . S
C517 C523 1.429 . S
C518 C510 1.574 . S
C518 H513 0.949 . S
C518 C524 1.368 . S
C519 C503 1.349 . S
C519 H511 0.950 . S
C519 C517 1.327 . S
C520 C508 1.349 . S
C520 H514 0.950 . S
C520 C521 1.327 . S
C521 H515 0.950 . S
C521 C520 1.327 . S
C521 C525 1.429 . S
C522 C505 1.574 . S
C522 H516 0.949 . S
C522 C526 1.368 . S
C523 C504 1.429 . S
C523 C517 1.429 . S
C523 C524 1.523 . S
C524 C505 1.368 . S
C524 C518 1.368 . S
C524 C523 1.523 . S
C525 C509 1.429 . S
C525 C521 1.429 . S
C525 C526 1.523 . S
C526 C510 1.368 . S
C526 C522 1.368 . S
C526 C525 1.523 . S
H527 C502 0.950 . S
H528 C504 0.950 . S
H529 C505 0.949 . S
H530 C507 0.950 . S
H531 C509 0.950 . S
C532 C533 1.349 . S
C532 C534 1.327 . S
C532 H557 0.950 . S
C533 C532 1.349 . S
C533 C549 1.349 . S
C534 C532 1.327 . S
C534 C553 1.429 . S
C534 H558 0.950 . S
C535 C552 1.574 . S
C535 C554 1.368 . S
C535 H559 0.949 . S
H536 C540 0.949 . S
C537 C538 1.349 . S
C537 C539 1.327 . S
C537 H560 0.950 . S
C538 C537 1.349 . S
C538 C550 1.349 . S
C539 C537 1.327 . S
C539 C555 1.429 . S
C539 H561 0.950 . S
C540 H536 0.949 . S
C540 C548 1.574 . S
C540 C556 1.368 . S
H541 C549 0.950 . S
H542 C547 0.950 . S
H543 C548 0.949 . S
H544 C550 0.950 . S
H545 C551 0.950 . S
H546 C552 0.949 . S
C547 H542 0.950 . S
C547 C549 1.327 . S
C547 C553 1.429 . S
C548 C540 1.574 . S
C548 H543 0.949 . S
C548 C554 1.368 . S
C549 C533 1.349 . S
C549 H541 0.950 . S
C549 C547 1.327 . S
C550 C538 1.349 . S
C550 H544 0.950 . S
C550 C551 1.327 . S
C551 H545 0.950 . S
C551 C550 1.327 . S
C551 C555 1.429 . S
C552 C535 1.574 . S
C552 H546 0.949 . S
C552 C556 1.368 . S
C553 C534 1.429 . S
C553 C547 1.429 . S
C553 C554 1.523 . S
C554 C535 1.368 . S
C554 C548 1.368 . S
C554 C553 1.523 . S
C555 C539 1.429 . S
C555 C551 1.429 . S
C555 C556 1.523 . S
C556 C540 1.368 . S
C556 C552 1.368 . S
C556 C555 1.523 . S
H557 C532 0.950 . S
H558 C534 0.950 . S
H559 C535 0.949 . S
H560 C537 0.950 . S
H561 C539 0.950 . S
C562 C563 1.349 . S
C562 C564 1.327 . S
C562 H587 0.950 . S
C563 C562 1.349 . S
C563 C579 1.349 . S
C564 C562 1.327 . S
C564 C583 1.429 . S
C564 H588 0.950 . S
C565 C582 1.574 1_455 S
C565 C584 1.368 1_565 S
C565 H589 0.949 . S
H566 C570 0.949 . S
C567 C568 1.349 . S
C567 C569 1.327 . S
C567 H590 0.950 . S
C568 C567 1.349 . S
C568 C580 1.349 . S
C569 C567 1.327 . S
C569 C585 1.429 . S
C569 H591 0.950 . S
C570 H566 0.949 . S
C570 C578 1.574 1_655 S
C570 C586 1.368 1_545 S
H571 C579 0.950 . S
H572 C577 0.950 . S
H573 C578 0.949 . S
H574 C580 0.950 . S
H575 C581 0.950 . S
H576 C582 0.949 . S
C577 H572 0.950 . S
C577 C579 1.327 . S
C577 C583 1.429 . S
C578 C570 1.574 1_455 S
C578 H573 0.949 . S
C578 C584 1.368 . S
C579 C563 1.349 . S
C579 H571 0.950 . S
C579 C577 1.327 . S
C580 C568 1.349 . S
C580 H574 0.950 . S
C580 C581 1.327 . S
C581 H575 0.950 . S
C581 C580 1.327 . S
C581 C585 1.429 . S
C582 C565 1.574 1_655 S
C582 H576 0.949 . S
C582 C586 1.368 . S
C583 C564 1.429 . S
C583 C577 1.429 . S
C583 C584 1.523 . S
C584 C565 1.368 1_545 S
C584 C578 1.368 . S
C584 C583 1.523 . S
C585 C569 1.429 . S
C585 C581 1.429 . S
C585 C586 1.523 . S
C586 C570 1.368 1_565 S
C586 C582 1.368 . S
C586 C585 1.523 . S
H587 C562 0.950 . S
H588 C564 0.950 . S
H589 C565 0.949 . S
H590 C567 0.950 . S
H591 C569 0.950 . S
C592 C593 1.349 . S
C592 C594 1.327 . S
C592 H617 0.950 . S
C593 C592 1.349 . S
C593 C609 1.349 . S
C594 C592 1.327 . S
C594 C613 1.429 . S
C594 H618 0.950 . S
C595 C612 1.574 . S
C595 C614 1.368 . S
C595 H619 0.949 . S
H596 C600 0.949 . S
C597 C598 1.349 . S
C597 C599 1.327 . S
C597 H620 0.950 . S
C598 C597 1.349 . S
C598 C610 1.349 . S
C599 C597 1.327 . S
C599 C615 1.429 . S
C599 H621 0.950 . S
C600 H596 0.949 . S
C600 C608 1.574 . S
C600 C616 1.368 . S
H601 C609 0.950 . S
H602 C607 0.950 . S
H603 C608 0.949 . S
H604 C610 0.950 . S
H605 C611 0.950 . S
H606 C612 0.949 . S
C607 H602 0.950 . S
C607 C609 1.327 . S
C607 C613 1.429 . S
C608 C600 1.574 . S
C608 H603 0.949 . S
C608 C614 1.368 . S
C609 C593 1.349 . S
C609 H601 0.950 . S
C609 C607 1.327 . S
C610 C598 1.349 . S
C610 H604 0.950 . S
C610 C611 1.327 . S
C611 H605 0.950 . S
C611 C610 1.327 . S
C611 C615 1.429 . S
C612 C595 1.574 . S
C612 H606 0.949 . S
C612 C616 1.368 . S
C613 C594 1.429 . S
C613 C607 1.429 . S
C613 C614 1.523 . S
C614 C595 1.368 . S
C614 C608 1.368 . S
C614 C613 1.523 . S
C615 C599 1.429 . S
C615 C611 1.429 . S
C615 C616 1.523 . S
C616 C600 1.368 . S
C616 C612 1.368 . S
C616 C615 1.523 . S
H617 C592 0.950 . S
H618 C594 0.950 . S
H619 C595 0.949 . S
H620 C597 0.950 . S
H621 C599 0.950 . S
C622 C623 1.349 . S
C622 C624 1.327 . S
C622 H647 0.950 . S
C623 C622 1.349 . S
C623 C639 1.349 . S
C624 C622 1.327 . S
C624 C643 1.429 . S
C624 H648 0.950 . S
C625 C642 1.574 1_556 S
C625 C644 1.368 . S
C625 H649 0.949 . S
H626 C630 0.949 . S
C627 C628 1.349 . S
C627 C629 1.327 . S
C627 H650 0.950 . S
C628 C627 1.349 . S
C628 C640 1.349 . S
C629 C627 1.327 . S
C629 C645 1.429 . S
C629 H651 0.950 . S
C630 H626 0.949 . S
C630 C638 1.574 1_554 S
C630 C646 1.368 . S
H631 C639 0.950 . S
H632 C637 0.950 . S
H633 C638 0.949 . S
H634 C640 0.950 . S
H635 C641 0.950 . S
H636 C642 0.949 . S
C637 H632 0.950 . S
C637 C639 1.327 . S
C637 C643 1.429 . S
C638 C630 1.574 1_556 S
C638 H633 0.949 . S
C638 C644 1.368 . S
C639 C623 1.349 . S
C639 H631 0.950 . S
C639 C637 1.327 . S
C640 C628 1.349 . S
C640 H634 0.950 . S
C640 C641 1.327 . S
C641 H635 0.950 . S
C641 C640 1.327 . S
C641 C645 1.429 . S
C642 C625 1.574 1_554 S
C642 H636 0.949 . S
C642 C646 1.368 . S
C643 C624 1.429 . S
C643 C637 1.429 . S
C643 C644 1.523 . S
C644 C625 1.368 . S
C644 C638 1.368 . S
C644 C643 1.523 . S
C645 C629 1.429 . S
C645 C641 1.429 . S
C645 C646 1.523 . S
C646 C630 1.368 . S
C646 C642 1.368 . S
C646 C645 1.523 . S
H647 C622 0.950 . S
H648 C624 0.950 . S
H649 C625 0.949 . S
H650 C627 0.950 . S
H651 C629 0.950 . S
C652 C653 1.349 . S
C652 C654 1.327 . S
C652 H677 0.950 . S
C653 C652 1.349 . S
C653 C669 1.349 . S
C654 C652 1.327 . S
C654 C673 1.429 . S
C654 H678 0.950 . S
C655 C672 1.574 . S
C655 C674 1.368 . S
C655 H679 0.949 . S
H656 C660 0.949 . S
C657 C658 1.349 . S
C657 C659 1.327 . S
C657 H680 0.950 . S
C658 C657 1.349 . S
C658 C670 1.349 . S
C659 C657 1.327 . S
C659 C675 1.429 . S
C659 H681 0.950 . S
C660 H656 0.949 . S
C660 C668 1.574 . S
C660 C676 1.368 . S
H661 C669 0.950 . S
H662 C667 0.950 . S
H663 C668 0.949 . S
H664 C670 0.950 . S
H665 C671 0.950 . S
H666 C672 0.949 . S
C667 H662 0.950 . S
C667 C669 1.327 . S
C667 C673 1.429 . S
C668 C660 1.574 . S
C668 H663 0.949 . S
C668 C674 1.368 . S
C669 C653 1.349 . S
C669 H661 0.950 . S
C669 C667 1.327 . S
C670 C658 1.349 . S
C670 H664 0.950 . S
C670 C671 1.327 . S
C671 H665 0.950 . S
C671 C670 1.327 . S
C671 C675 1.429 . S
C672 C655 1.574 . S
C672 H666 0.949 . S
C672 C676 1.368 . S
C673 C654 1.429 . S
C673 C667 1.429 . S
C673 C674 1.523 . S
C674 C655 1.368 . S
C674 C668 1.368 . S
C674 C673 1.523 . S
C675 C659 1.429 . S
C675 C671 1.429 . S
C675 C676 1.523 . S
C676 C660 1.368 . S
C676 C672 1.368 . S
C676 C675 1.523 . S
H677 C652 0.950 . S
H678 C654 0.950 . S
H679 C655 0.949 . S
H680 C657 0.950 . S
H681 C659 0.950 . S
C682 C683 1.349 . S
C682 C684 1.327 . S
C682 H707 0.950 . S
C683 C682 1.349 . S
C683 C699 1.349 . S
C684 C682 1.327 . S
C684 C703 1.429 . S
C684 H708 0.950 . S
C685 C702 1.574 1_556 S
C685 C704 1.368 . S
C685 H709 0.949 . S
H686 C690 0.949 . S
C687 C688 1.349 . S
C687 C689 1.327 . S
C687 H710 0.950 . S
C688 C687 1.349 . S
C688 C700 1.349 . S
C689 C687 1.327 . S
C689 C705 1.429 . S
C689 H711 0.950 . S
C690 H686 0.949 . S
C690 C698 1.574 1_554 S
C690 C706 1.368 . S
H691 C699 0.950 . S
H692 C697 0.950 . S
H693 C698 0.949 . S
H694 C700 0.950 . S
H695 C701 0.950 . S
H696 C702 0.949 . S
C697 H692 0.950 . S
C697 C699 1.327 . S
C697 C703 1.429 . S
C698 C690 1.574 1_556 S
C698 H693 0.949 . S
C698 C704 1.368 . S
C699 C683 1.349 . S
C699 H691 0.950 . S
C699 C697 1.327 . S
C700 C688 1.349 . S
C700 H694 0.950 . S
C700 C701 1.327 . S
C701 H695 0.950 . S
C701 C700 1.327 . S
C701 C705 1.429 . S
C702 C685 1.574 1_554 S
C702 H696 0.949 . S
C702 C706 1.368 . S
C703 C684 1.429 . S
C703 C697 1.429 . S
C703 C704 1.523 . S
C704 C685 1.368 . S
C704 C698 1.368 . S
C704 C703 1.523 . S
C705 C689 1.429 . S
C705 C701 1.429 . S
C705 C706 1.523 . S
C706 C690 1.368 . S
C706 C702 1.368 . S
C706 C705 1.523 . S
H707 C682 0.950 . S
H708 C684 0.950 . S
H709 C685 0.949 . S
H710 C687 0.950 . S
H711 C689 0.950 . S
C712 C713 1.349 . S
C712 C714 1.327 . S
C712 H737 0.950 . S
C713 C712 1.349 . S
C713 C729 1.349 . S
C714 C712 1.327 . S
C714 C733 1.429 . S
C714 H738 0.950 . S
C715 C732 1.574 . S
C715 C734 1.368 . S
C715 H739 0.949 . S
H716 C720 0.949 . S
C717 C718 1.349 . S
C717 C719 1.327 . S
C717 H740 0.950 . S
C718 C717 1.349 . S
C718 C730 1.349 . S
C719 C717 1.327 . S
C719 C735 1.429 . S
C719 H741 0.950 . S
C720 H716 0.949 . S
C720 C728 1.574 . S
C720 C736 1.368 . S
H721 C729 0.950 . S
H722 C727 0.950 . S
H723 C728 0.949 . S
H724 C730 0.950 . S
H725 C731 0.950 . S
H726 C732 0.949 . S
C727 H722 0.950 . S
C727 C729 1.327 . S
C727 C733 1.429 . S
C728 C720 1.574 . S
C728 H723 0.949 . S
C728 C734 1.368 . S
C729 C713 1.349 . S
C729 H721 0.950 . S
C729 C727 1.327 . S
C730 C718 1.349 . S
C730 H724 0.950 . S
C730 C731 1.327 . S
C731 H725 0.950 . S
C731 C730 1.327 . S
C731 C735 1.429 . S
C732 C715 1.574 . S
C732 H726 0.949 . S
C732 C736 1.368 . S
C733 C714 1.429 . S
C733 C727 1.429 . S
C733 C734 1.523 . S
C734 C715 1.368 . S
C734 C728 1.368 . S
C734 C733 1.523 . S
C735 C719 1.429 . S
C735 C731 1.429 . S
C735 C736 1.523 . S
C736 C720 1.368 . S
C736 C732 1.368 . S
C736 C735 1.523 . S
H737 C712 0.950 . S
H738 C714 0.950 . S
H739 C715 0.949 . S
H740 C717 0.950 . S
H741 C719 0.950 . S
C742 C743 1.349 . S
C742 C744 1.327 . S
C742 H767 0.950 . S
C743 C742 1.349 . S
C743 C759 1.349 . S
C744 C742 1.327 . S
C744 C763 1.429 . S
C744 H768 0.950 . S
C745 C762 1.574 . S
C745 C764 1.368 . S
C745 H769 0.949 . S
H746 C750 0.949 . S
C747 C748 1.349 . S
C747 C749 1.327 1_545 S
C747 H770 0.950 . S
C748 C747 1.349 . S
C748 C760 1.349 . S
C749 C747 1.327 1_565 S
C749 C765 1.429 . S
C749 H771 0.950 . S
C750 H746 0.949 . S
C750 C758 1.574 . S
C750 C766 1.368 . S
H751 C759 0.950 . S
H752 C757 0.950 . S
H753 C758 0.949 . S
H754 C760 0.950 . S
H755 C761 0.950 . S
H756 C762 0.949 . S
C757 H752 0.950 . S
C757 C759 1.327 . S
C757 C763 1.429 . S
C758 C750 1.574 . S
C758 H753 0.949 . S
C758 C764 1.368 . S
C759 C743 1.349 . S
C759 H751 0.950 . S
C759 C757 1.327 . S
C760 C748 1.349 . S
C760 H754 0.950 . S
C760 C761 1.327 . S
C761 H755 0.950 . S
C761 C760 1.327 . S
C761 C765 1.429 1_545 S
C762 C745 1.574 . S
C762 H756 0.949 . S
C762 C766 1.368 . S
C763 C744 1.429 . S
C763 C757 1.429 . S
C763 C764 1.523 . S
C764 C745 1.368 . S
C764 C758 1.368 . S
C764 C763 1.523 . S
C765 C749 1.429 . S
C765 C761 1.429 1_565 S
C765 C766 1.523 . S
C766 C750 1.368 . S
C766 C762 1.368 . S
C766 C765 1.523 . S
H767 C742 0.950 . S
H768 C744 0.950 . S
H769 C745 0.949 . S
H770 C747 0.950 . S
H771 C749 0.950 . S
C772 C773 1.349 . S
C772 C774 1.327 . S
C772 H797 0.950 . S
C773 C772 1.349 . S
C773 C789 1.349 . S
C774 C772 1.327 . S
C774 C793 1.429 . S
C774 H798 0.950 . S
C775 C792 1.574 . S
C775 C794 1.368 . S
C775 H799 0.949 . S
H776 C780 0.949 . S
C777 C778 1.349 . S
C777 C779 1.327 . S
C777 H800 0.950 . S
C778 C777 1.349 . S
C778 C790 1.349 . S
C779 C777 1.327 . S
C779 C795 1.429 . S
C779 H801 0.950 . S
C780 H776 0.949 . S
C780 C788 1.574 . S
C780 C796 1.368 . S
H781 C789 0.950 . S
H782 C787 0.950 . S
H783 C788 0.949 . S
H784 C790 0.950 . S
H785 C791 0.950 . S
H786 C792 0.949 . S
C787 H782 0.950 . S
C787 C789 1.327 . S
C787 C793 1.429 . S
C788 C780 1.574 . S
C788 H783 0.949 . S
C788 C794 1.368 . S
C789 C773 1.349 . S
C789 H781 0.950 . S
C789 C787 1.327 . S
C790 C778 1.349 . S
C790 H784 0.950 . S
C790 C791 1.327 . S
C791 H785 0.950 . S
C791 C790 1.327 . S
C791 C795 1.429 . S
C792 C775 1.574 . S
C792 H786 0.949 . S
C792 C796 1.368 . S
C793 C774 1.429 . S
C793 C787 1.429 . S
C793 C794 1.523 . S
C794 C775 1.368 . S
C794 C788 1.368 . S
C794 C793 1.523 . S
C795 C779 1.429 . S
C795 C791 1.429 . S
C795 C796 1.523 . S
C796 C780 1.368 . S
C796 C792 1.368 . S
C796 C795 1.523 . S
H797 C772 0.950 . S
H798 C774 0.950 . S
H799 C775 0.949 . S
H800 C777 0.950 . S
H801 C779 0.950 . S
C802 C803 1.349 . S
C802 C804 1.327 . S
C802 H827 0.950 . S
C803 C802 1.349 . S
C803 C819 1.349 . S
C804 C802 1.327 . S
C804 C823 1.429 . S
C804 H828 0.950 . S
C805 C822 1.574 . S
C805 C824 1.368 . S
C805 H829 0.949 . S
H806 C810 0.949 . S
C807 C808 1.349 . S
C807 C809 1.327 . S
C807 H830 0.950 . S
C808 C807 1.349 . S
C808 C820 1.349 . S
C809 C807 1.327 . S
C809 C825 1.429 1_565 S
C809 H831 0.950 . S
C810 H806 0.949 . S
C810 C818 1.574 . S
C810 C826 1.368 . S
H811 C819 0.950 . S
H812 C817 0.950 . S
H813 C818 0.949 . S
H814 C820 0.950 . S
H815 C821 0.950 . S
H816 C822 0.949 . S
C817 H812 0.950 . S
C817 C819 1.327 . S
C817 C823 1.429 . S
C818 C810 1.574 . S
C818 H813 0.949 . S
C818 C824 1.368 . S
C819 C803 1.349 . S
C819 H811 0.950 . S
C819 C817 1.327 . S
C820 C808 1.349 . S
C820 H814 0.950 . S
C820 C821 1.327 1_565 S
C821 H815 0.950 . S
C821 C820 1.327 1_545 S
C821 C825 1.429 . S
C822 C805 1.574 . S
C822 H816 0.949 . S
C822 C826 1.368 . S
C823 C804 1.429 . S
C823 C817 1.429 . S
C823 C824 1.523 . S
C824 C805 1.368 . S
C824 C818 1.368 . S
C824 C823 1.523 . S
C825 C809 1.429 1_545 S
C825 C821 1.429 . S
C825 C826 1.523 . S
C826 C810 1.368 . S
C826 C822 1.368 . S
C826 C825 1.523 . S
H827 C802 0.950 . S
H828 C804 0.950 . S
H829 C805 0.949 . S
H830 C807 0.950 . S
H831 C809 0.950 . S
C832 C833 1.349 . S
C832 C834 1.306 1_455 S
C832 H857 0.950 . S
C833 C832 1.349 . S
C833 C849 1.349 . S
C834 C832 1.306 1_655 S
C834 C853 1.434 . S
C834 H858 0.967 . S
C835 C852 1.574 . S
C835 C854 1.368 . S
C835 H859 0.949 . S
H836 C840 0.949 . S
C837 C838 1.349 . S
C837 C839 1.327 . S
C837 H860 0.950 . S
C838 C837 1.349 . S
C838 C850 1.349 . S
C839 C837 1.327 . S
C839 C855 1.429 . S
C839 H861 0.950 . S
C840 H836 0.949 . S
C840 C848 1.574 . S
C840 C856 1.368 . S
H841 C849 0.950 . S
H842 C847 0.950 . S
H843 C848 0.949 . S
H844 C850 0.950 . S
H845 C851 0.950 . S
H846 C852 0.949 . S
C847 H842 0.950 . S
C847 C849 1.327 . S
C847 C853 1.429 1_455 S
C848 C840 1.574 . S
C848 H843 0.949 . S
C848 C854 1.368 . S
C849 C833 1.349 . S
C849 H841 0.950 . S
C849 C847 1.327 . S
C850 C838 1.349 . S
C850 H844 0.950 . S
C850 C851 1.327 . S
C851 H845 0.950 . S
C851 C850 1.327 . S
C851 C855 1.429 . S
C852 C835 1.574 . S
C852 H846 0.949 . S
C852 C856 1.368 . S
C853 C834 1.434 . S
C853 C847 1.429 1_655 S
C853 C854 1.523 . S
C854 C835 1.368 . S
C854 C848 1.368 . S
C854 C853 1.523 . S
C855 C839 1.429 . S
C855 C851 1.429 . S
C855 C856 1.523 . S
C856 C840 1.368 . S
C856 C852 1.368 . S
C856 C855 1.523 . S
H857 C832 0.950 . S
H858 C834 0.967 . S
H859 C835 0.949 . S
H860 C837 0.950 . S
H861 C839 0.950 . S
C862 C863 1.349 . S
C862 C864 1.327 . S
C862 H887 0.950 . S
C863 C862 1.349 . S
C863 C879 1.349 . S
C864 C862 1.327 . S
C864 C883 1.429 . S
C864 H888 0.950 . S
C865 C882 1.574 . S
C865 C884 1.368 . S
C865 H889 0.949 . S
H866 C870 0.949 . S
C867 C868 1.349 . S
C867 C869 1.327 . S
C867 H890 0.950 . S
C868 C867 1.349 . S
C868 C880 1.349 . S
C869 C867 1.327 . S
C869 C885 1.429 . S
C869 H891 0.950 . S
C870 H866 0.949 . S
C870 C878 1.574 . S
C870 C886 1.368 . S
H871 C879 0.950 . S
H872 C877 0.950 . S
H873 C878 0.949 . S
H874 C880 0.950 . S
H875 C881 0.950 . S
H876 C882 0.949 . S
C877 H872 0.950 . S
C877 C879 1.327 . S
C877 C883 1.429 . S
C878 C870 1.574 . S
C878 H873 0.949 . S
C878 C884 1.368 . S
C879 C863 1.349 . S
C879 H871 0.950 . S
C879 C877 1.327 . S
C880 C868 1.349 . S
C880 H874 0.950 . S
C880 C881 1.327 . S
C881 H875 0.950 . S
C881 C880 1.327 . S
C881 C885 1.429 . S
C882 C865 1.574 . S
C882 H876 0.949 . S
C882 C886 1.368 . S
C883 C864 1.429 . S
C883 C877 1.429 . S
C883 C884 1.523 . S
C884 C865 1.368 . S
C884 C878 1.368 . S
C884 C883 1.523 . S
C885 C869 1.429 . S
C885 C881 1.429 . S
C885 C886 1.523 . S
C886 C870 1.368 . S
C886 C882 1.368 . S
C886 C885 1.523 . S
H887 C862 0.950 . S
H888 C864 0.950 . S
H889 C865 0.949 . S
H890 C867 0.950 . S
H891 C869 0.950 . S
C892 C893 1.349 . S
C892 C894 1.327 . S
C892 H917 0.950 . S
C893 C892 1.349 . S
C893 C909 1.349 . S
C894 C892 1.327 . S
C894 C913 1.429 . S
C894 H918 0.950 . S
C895 C912 1.574 . S
C895 C914 1.368 . S
C895 H919 0.949 . S
H896 C900 0.949 . S
C897 C898 1.349 . S
C897 C899 1.327 1_655 S
C897 H920 0.950 . S
C898 C897 1.349 . S
C898 C910 1.349 . S
C899 C897 1.327 1_455 S
C899 C915 1.429 . S
C899 H921 0.950 . S
C900 H896 0.949 . S
C900 C908 1.574 . S
C900 C916 1.368 . S
H901 C909 0.950 . S
H902 C907 0.950 . S
H903 C908 0.949 . S
H904 C910 0.950 . S
H905 C911 0.950 . S
H906 C912 0.949 . S
C907 H902 0.950 . S
C907 C909 1.327 . S
C907 C913 1.429 . S
C908 C900 1.574 . S
C908 H903 0.949 . S
C908 C914 1.368 . S
C909 C893 1.349 . S
C909 H901 0.950 . S
C909 C907 1.327 . S
C910 C898 1.349 . S
C910 H904 0.950 . S
C910 C911 1.327 . S
C911 H905 0.950 . S
C911 C910 1.327 . S
C911 C915 1.429 1_655 S
C912 C895 1.574 . S
C912 H906 0.949 . S
C912 C916 1.368 . S
C913 C894 1.429 . S
C913 C907 1.429 . S
C913 C914 1.523 . S
C914 C895 1.368 . S
C914 C908 1.368 . S
C914 C913 1.523 . S
C915 C899 1.429 . S
C915 C911 1.429 1_455 S
C915 C916 1.523 . S
C916 C900 1.368 . S
C916 C912 1.368 . S
C916 C915 1.523 . S
H917 C892 0.950 . S
H918 C894 0.950 . S
H919 C895 0.949 . S
H920 C897 0.950 . S
H921 C899 0.950 . S
C922 C923 1.349 . S
C922 C924 1.327 . S
C922 H947 0.950 . S
C923 C922 1.349 . S
C923 C939 1.349 . S
C924 C922 1.327 . S
C924 C943 1.429 . S
C924 H948 0.950 . S
C925 C942 1.574 . S
C925 C944 1.368 . S
C925 H949 0.949 . S
H926 C930 0.949 . S
C927 C928 1.349 . S
C927 C929 1.327 . S
C927 H950 0.950 . S
C928 C927 1.349 . S
C928 C940 1.349 . S
C929 C927 1.327 . S
C929 C945 1.429 . S
C929 H951 0.950 . S
C930 H926 0.949 . S
C930 C938 1.574 . S
C930 C946 1.368 . S
H931 C939 0.950 . S
H932 C937 0.950 . S
H933 C938 0.949 . S
H934 C940 0.950 . S
H935 C941 0.950 . S
H936 C942 0.949 . S
C937 H932 0.950 . S
C937 C939 1.327 . S
C937 C943 1.429 . S
C938 C930 1.574 . S
C938 H933 0.949 . S
C938 C944 1.368 . S
C939 C923 1.349 . S
C939 H931 0.950 . S
C939 C937 1.327 . S
C940 C928 1.349 . S
C940 H934 0.950 . S
C940 C941 1.327 . S
C941 H935 0.950 . S
C941 C940 1.327 . S
C941 C945 1.429 . S
C942 C925 1.574 . S
C942 H936 0.949 . S
C942 C946 1.368 . S
C943 C924 1.429 . S
C943 C937 1.429 . S
C943 C944 1.523 . S
C944 C925 1.368 . S
C944 C938 1.368 . S
C944 C943 1.523 . S
C945 C929 1.429 . S
C945 C941 1.429 . S
C945 C946 1.523 . S
C946 C930 1.368 . S
C946 C942 1.368 . S
C946 C945 1.523 . S
H947 C922 0.950 . S
H948 C924 0.950 . S
H949 C925 0.949 . S
H950 C927 0.950 . S
H951 C929 0.950 . S
C473 C52 0.733 . S
C478 C170 0.733 . S
C503 C111 0.733 . S
C508 C229 0.733 . S
C533 C288 0.733 . S
C538 C406 0.733 . S
C563 C347 0.733 . S
C568 C465 0.733 . S
C593 C3 1.367 . S
C598 C298 1.367 . S
C623 C62 1.367 . S
C628 C357 1.367 . S
C653 C416 1.367 . S
C658 C121 1.367 . S
C683 C180 1.367 . S
C688 C239 1.367 . S
C713 C269 1.778 . S
C718 C5 1.802 . S
C743 C64 1.802 . S
C748 C328 1.778 . S
C773 C123 1.802 . S
C778 C387 1.778 . S
C803 C182 1.802 . S
C808 C446 1.778 . S
C833 C33 1.778 . S
C838 C241 1.802 . S
C863 C300 1.802 . S
C868 C92 1.778 . S
C893 C359 1.802 . S
C898 C151 1.778 . S
C923 C210 1.778 . S
C928 C418 1.802 . S
