# Generated by pormake.
# Topology snk, (6)-cn, num edge types: 1
# Building blocks:
#     Node 0, Type 0, BuildingBlock: KUMBUR_clean_sbu_1, # of connection points: 6
#     Node 1, Type 0, BuildingBlock: KUMBUR_clean_sbu_1, # of connection points: 6
#     Node 2, Type 0, BuildingBlock: KUMBUR_clean_sbu_1, # of connection points: 6
#     Node 3, Type 0, BuildingBlock: KUMBUR_clean_sbu_1, # of connection points: 6
#     Node 4, Type 0, BuildingBlock: KUMBUR_clean_sbu_1, # of connection points: 6
#     Node 5, Type 0, BuildingBlock: KUMBUR_clean_sbu_1, # of connection points: 6
#     Node 6, Type 0, BuildingBlock: KUMBUR_clean_sbu_1, # of connection points: 6
#     Node 7, Type 0, BuildingBlock: KUMBUR_clean_sbu_1, # of connection points: 6
#     Edge 8, Type (0, 0), BuildingBlock: MIFKUJ_clean_linker_0, # of connection points: 2
#     Edge 9, Type (0, 0), BuildingBlock: MIFKUJ_clean_linker_0, # of connection points: 2
#     Edge 10, Type (0, 0), BuildingBlock: MIFKUJ_clean_linker_0, # of connection points: 2
#     Edge 11, Type (0, 0), BuildingBlock: MIFKUJ_clean_linker_0, # of connection points: 2
#     Edge 12, Type (0, 0), BuildingBlock: MIFKUJ_clean_linker_0, # of connection points: 2
#     Edge 13, Type (0, 0), BuildingBlock: MIFKUJ_clean_linker_0, # of connection points: 2
#     Edge 14, Type (0, 0), BuildingBlock: MIFKUJ_clean_linker_0, # of connection points: 2
#     Edge 15, Type (0, 0), BuildingBlock: MIFKUJ_clean_linker_0, # of connection points: 2
#     Edge 16, Type (0, 0), BuildingBlock: MIFKUJ_clean_linker_0, # of connection points: 2
#     Edge 17, Type (0, 0), BuildingBlock: MIFKUJ_clean_linker_0, # of connection points: 2
#     Edge 18, Type (0, 0), BuildingBlock: MIFKUJ_clean_linker_0, # of connection points: 2
#     Edge 19, Type (0, 0), BuildingBlock: MIFKUJ_clean_linker_0, # of connection points: 2
#     Edge 20, Type (0, 0), BuildingBlock: MIFKUJ_clean_linker_0, # of connection points: 2
#     Edge 21, Type (0, 0), BuildingBlock: MIFKUJ_clean_linker_0, # of connection points: 2
#     Edge 22, Type (0, 0), BuildingBlock: MIFKUJ_clean_linker_0, # of connection points: 2
#     Edge 23, Type (0, 0), BuildingBlock: MIFKUJ_clean_linker_0, # of connection points: 2
#     Edge 24, Type (0, 0), BuildingBlock: MIFKUJ_clean_linker_0, # of connection points: 2
#     Edge 25, Type (0, 0), BuildingBlock: MIFKUJ_clean_linker_0, # of connection points: 2
#     Edge 26, Type (0, 0), BuildingBlock: MIFKUJ_clean_linker_0, # of connection points: 2
#     Edge 27, Type (0, 0), BuildingBlock: MIFKUJ_clean_linker_0, # of connection points: 2
#     Edge 28, Type (0, 0), BuildingBlock: MIFKUJ_clean_linker_0, # of connection points: 2
#     Edge 29, Type (0, 0), BuildingBlock: MIFKUJ_clean_linker_0, # of connection points: 2
#     Edge 30, Type (0, 0), BuildingBlock: MIFKUJ_clean_linker_0, # of connection points: 2
#     Edge 31, Type (0, 0), BuildingBlock: MIFKUJ_clean_linker_0, # of connection points: 2
# Relax obj value: 0.010
# Max RMSD: 0.073
# Mean RMSD: 0.072
data_MOF--net-snk--node1-KUMBUR_clean_sbu_1--edge1-MIFKUJ_clean_linker_0
_symmetry_space_group_name_H-M    P1
_symmetry_Int_Tables_number       1
_symmetry_cell_setting            triclinic
loop_
_symmetry_equiv_pos_as_xyz
'x, y, z'
_cell_length_a     50.86224
_cell_length_b     50.854916
_cell_length_c     29.540836
_cell_angle_alpha  90.498067
_cell_angle_beta   90.026775
_cell_angle_gamma 89.826814
loop_
_atom_site_label
_atom_site_type_symbol
_atom_site_fract_x
_atom_site_fract_y
_atom_site_fract_z
_atom_type_partial_charge
Tb0 Tb 1.00054 0.02114 0.57774 0.0
C1 C 0.9781 0.92765 0.45304 0.0
N2 N 1.00096 0.94119 0.458 0.0
C3 C 0.02483 0.9004 0.46164 0.0
C4 C 0.97762 0.89993 0.45369 0.0
C5 C 0.02435 0.92786 0.45954 0.0
C6 C 1.00133 0.88636 0.45937 0.0
C7 C 0.93149 0.92845 0.43542 0.0
C8 C 0.95535 0.94159 0.44396 0.0
C9 C 0.93068 0.90091 0.43782 0.0
C10 C 0.95371 0.88668 0.44677 0.0
Tb11 Tb 0.99724 0.98618 0.4547 0.0
N12 N 0.95683 0.96821 0.44237 0.0
C13 C 0.90938 0.94337 0.42362 0.0
C14 C 0.93578 0.98278 0.42822 0.0
C15 C 0.91164 0.97064 0.41942 0.0
H16 H 0.04282 0.93815 0.45796 0.0
H17 H 0.89484 0.98228 0.40922 0.0
H18 H 0.97292 0.0786 0.55829 0.0
H19 H 0.09518 0.99621 0.64986 0.0
H20 H 0.93759 0.00379 0.42428 0.0
H21 H 0.89068 0.93401 0.41672 0.0
H22 H 0.04908 0.98848 0.63025 0.0
H23 H 0.04341 0.89005 0.46388 0.0
H24 H 0.9125 0.8904 0.43168 0.0
H25 H 0.95294 0.86539 0.44691 0.0
H26 H 0.98671 0.12517 0.5546 0.0
H27 H 1.00183 0.86507 0.46012 0.0
H28 H 0.11515 0.03995 0.63725 0.0
N29 N 0.01127 0.06455 0.57372 0.0
C30 C 0.0364 0.07093 0.58462 0.0
C31 C 1.00092 0.11006 0.56271 0.0
C32 C 0.04518 0.09713 0.58294 0.0
C33 C 0.9932 0.08369 0.56455 0.0
C34 C 0.02709 0.11679 0.5714 0.0
N35 N 0.04332 0.02621 0.60095 0.0
C36 C 0.05778 0.00708 0.62168 0.0
C37 C 0.07932 0.05668 0.61009 0.0
C38 C 0.05317 0.05094 0.59767 0.0
C39 C 0.09497 0.03639 0.6272 0.0
C40 C 0.0839 0.01165 0.63403 0.0
H41 H 0.03303 0.1372 0.56976 0.0
H42 H 0.07879 0.12279 0.59169 0.0
H43 H 0.10863 0.08741 0.61596 0.0
O44 O 0.00422 0.02416 0.64934 0.0
O45 O 0.01599 0.04108 0.51697 0.0
O46 O 0.03303 0.00846 0.47143 0.0
O47 O 0.96678 0.03089 0.61585 0.0
O48 O 0.01836 0.98167 0.57022 0.0
O49 O 0.03285 0.97813 0.49599 0.0
O50 O 0.99115 0.00733 0.39466 0.0
O51 O 0.96538 0.98095 0.50531 0.0
O52 O 0.98611 0.98063 0.57396 0.0
O53 O 0.01055 0.97009 0.39249 0.0
O54 O 0.98005 0.02568 0.46145 0.0
O55 O 0.96548 0.03009 0.53579 0.0
C56 C 0.03385 0.03256 0.48806 0.0
C57 C 0.9668 0.03543 0.69843 0.0
C58 C 0.96716 0.03659 0.78164 0.0
C59 C 0.94198 0.04798 0.78096 0.0
C60 C 0.94151 0.04662 0.69913 0.0
C61 C 0.92925 0.0528 0.74006 0.0
C62 C 0.97955 0.03015 0.74009 0.0
C63 C 0.03457 0.97194 0.53934 0.0
C64 C 0.97954 0.03003 0.65402 0.0
C65 C 0.07153 0.10281 0.59324 0.0
C66 C 0.08857 0.08262 0.60682 0.0
C67 C 0.96759 0.97194 0.54677 0.0
C68 C 0.02076 1.00042 0.33449 0.0
C69 C 0.03001 0.01186 0.25555 0.0
C70 C 0.05355 0.02375 0.26992 0.0
C71 C 0.04445 0.01216 0.34773 0.0
C72 C 0.01371 1.0 0.28821 0.0
C73 C 0.06075 0.02373 0.31559 0.0
C74 C 0.96389 0.03567 0.4921 0.0
C75 C 0.00257 0.98998 0.36884 0.0
H76 H 0.93202 0.05299 0.81231 0.0
H77 H 0.93122 0.05088 0.6679 0.0
H78 H 0.9098 0.0615 0.74009 0.0
H79 H 0.99905 0.02151 0.74026 0.0
H80 H 0.06653 0.03291 0.24567 0.0
H81 H 0.05014 0.01258 0.38297 0.0
H82 H 0.99528 0.99114 0.27784 0.0
H83 H 0.07896 0.03289 0.32616 0.0
Tb84 Tb 0.23791 0.75865 0.81458 0.0
C85 C 0.32137 0.71177 0.6915 0.0
N86 N 0.31591 0.73762 0.69868 0.0
C87 C 0.36172 0.74666 0.70938 0.0
C88 C 0.34724 0.70206 0.6951 0.0
C89 C 0.33565 0.7553 0.70589 0.0
C90 C 0.36752 0.71988 0.70448 0.0
C91 C 0.30552 0.66814 0.67321 0.0
C92 C 0.30075 0.69512 0.68097 0.0
C93 C 0.33113 0.65809 0.67829 0.0
C94 C 0.35196 0.67503 0.68913 0.0
Tb95 Tb 0.27296 0.74985 0.69251 0.0
N96 N 0.27628 0.70566 0.67623 0.0
C97 C 0.28459 0.65225 0.65924 0.0
C98 C 0.25647 0.69063 0.65842 0.0
C99 C 0.26009 0.66366 0.65095 0.0
H100 H 0.33124 0.776 0.70938 0.0
H101 H 0.2441 0.6518 0.63795 0.0
H102 H 0.19151 0.71214 0.8188 0.0
H103 H 0.23071 0.86209 0.85255 0.0
H104 H 0.23797 0.6993 0.64869 0.0
H105 H 0.28741 0.63141 0.65294 0.0
H106 H 0.25356 0.81933 0.84182 0.0
H107 H 0.3773 0.76063 0.71592 0.0
H108 H 0.33513 0.63736 0.6729 0.0
H109 H 0.37166 0.66709 0.69224 0.0
H110 H 0.1436 0.70989 0.81169 0.0
H111 H 0.38769 0.71322 0.7075 0.0
H112 H 0.18253 0.8651 0.84104 0.0
N113 N 0.19312 0.75382 0.8119 0.0
C114 C 0.17891 0.77647 0.81279 0.0
C115 C 0.15319 0.7288 0.81097 0.0
C116 C 0.15123 0.77623 0.81075 0.0
C117 C 0.18056 0.73014 0.81408 0.0
C118 C 0.13842 0.75194 0.80829 0.0
N119 N 0.21871 0.79894 0.82317 0.0
C120 C 0.23254 0.82064 0.83669 0.0
C121 C 0.17827 0.82365 0.82524 0.0
C122 C 0.19213 0.79983 0.81977 0.0
C123 C 0.19245 0.84639 0.83637 0.0
C124 C 0.21966 0.84478 0.84287 0.0
H125 H 0.11717 0.75084 0.80659 0.0
H126 H 0.11599 0.80036 0.81162 0.0
H127 H 0.13972 0.84194 0.82417 0.0
O128 O 0.26026 0.76626 0.87319 0.0
O129 O 0.23348 0.78936 0.76183 0.0
O130 O 0.23342 0.76695 0.69414 0.0
O131 O 0.22263 0.74812 0.87845 0.0
O132 O 0.27744 0.77472 0.80658 0.0
O133 O 0.28282 0.78615 0.73091 0.0
O134 O 0.2758 0.74262 0.62214 0.0
O135 O 0.29229 0.73644 0.75535 0.0
O136 O 0.25898 0.72161 0.80057 0.0
O137 O 0.28525 0.78041 0.64992 0.0
O138 O 0.23252 0.73491 0.70028 0.0
O139 O 0.22967 0.72239 0.77522 0.0
C140 C 0.22521 0.78654 0.71977 0.0
C141 C 0.25394 0.73843 0.9354 0.0
C142 C 0.26547 0.73006 0.01464 0.0
C143 C 0.27686 0.70601 1.00102 0.0
C144 C 0.26513 0.71425 0.92295 0.0
C145 C 0.27654 0.69816 0.95558 0.0
C146 C 0.25394 0.74623 0.98135 0.0
C147 C 0.28818 0.78905 0.77459 0.0
C148 C 0.24321 0.7561 0.90056 0.0
C149 C 0.13727 0.8001 0.81347 0.0
C150 C 0.15077 0.82378 0.82076 0.0
C151 C 0.28323 0.71975 0.78529 0.0
C152 C 0.26545 0.77935 0.57702 0.0
C153 C 0.25249 0.78287 0.49703 0.0
C154 C 0.23472 0.80297 0.50946 0.0
C155 C 0.24741 0.79935 0.58809 0.0
C156 C 0.26795 0.77117 0.53135 0.0
C157 C 0.2322 0.81102 0.55452 0.0
C158 C 0.22191 0.72071 0.73267 0.0
C159 C 0.28145 0.76684 0.61293 0.0
H160 H 0.28563 0.693 0.02568 0.0
H161 H 0.26507 0.70794 0.88797 0.0
H162 H 0.28511 0.67948 0.94562 0.0
H163 H 0.2454 0.765 0.99103 0.0
H164 H 0.22295 0.81287 0.48422 0.0
H165 H 0.24512 0.80607 0.62273 0.0
H166 H 0.28163 0.75554 0.52277 0.0
H167 H 0.21845 0.8265 0.56346 0.0
Tb168 Tb 0.50053 0.98471 0.07122 0.0
C169 C 0.52118 0.08077 0.95294 0.0
N170 N 0.49868 0.06657 0.95711 0.0
C171 C 0.47374 0.10664 0.96367 0.0
C172 C 0.5209 0.10847 0.9556 0.0
C173 C 0.47495 0.07927 0.95929 0.0
C174 C 0.49687 0.12131 0.96262 0.0
C175 C 0.56757 0.08158 0.93359 0.0
C176 C 0.54425 0.06759 0.94212 0.0
C177 C 0.56762 0.10909 0.93806 0.0
C178 C 0.54432 0.1225 0.94892 0.0
Tb179 Tb 0.50376 0.02185 0.95003 0.0
N180 N 0.54357 0.04095 0.93858 0.0
C181 C 0.58993 0.0675 0.91976 0.0
C182 C 0.56482 0.02723 0.92263 0.0
C183 C 0.58845 0.04023 0.91375 0.0
H184 H 0.45677 0.06856 0.95634 0.0
H185 H 0.60544 0.02926 0.90206 0.0
H186 H 0.53112 0.92883 0.05043 0.0
H187 H 0.40324 0.0053 0.13822 0.0
H188 H 0.56353 0.00623 0.9172 0.0
H189 H 0.60823 0.07753 0.91278 0.0
H190 H 0.44936 0.01537 0.12129 0.0
H191 H 0.45489 0.11643 0.9665 0.0
H192 H 0.58539 0.12023 0.93199 0.0
H193 H 0.5444 0.14378 0.95039 0.0
H194 H 0.51982 0.88164 0.04506 0.0
H195 H 0.49585 0.14255 0.96496 0.0
H196 H 0.38625 0.9603 0.12553 0.0
N197 N 0.49205 0.94089 0.06572 0.0
C198 C 0.46722 0.93325 0.07591 0.0
C199 C 0.50478 0.89599 0.05341 0.0
C200 C 0.45984 0.90661 0.07342 0.0
C201 C 0.51109 0.92272 0.05611 0.0
C202 C 0.47898 0.8879 0.06164 0.0
N203 N 0.45779 0.97763 0.09281 0.0
C204 C 0.44192 0.99619 0.11255 0.0
C205 C 0.42337 0.94532 0.10018 0.0
C206 C 0.44932 0.95237 0.08892 0.0
C207 C 0.40636 0.96487 0.11651 0.0
C208 C 0.41584 0.99032 0.12351 0.0
H209 H 0.47412 0.8672 0.05937 0.0
H210 H 0.42756 0.87924 0.0807 0.0
H211 H 0.39559 0.91316 0.10427 0.0
O212 O 0.49703 0.98223 0.14298 0.0
O213 O 0.48575 0.96517 1.0091 0.0
O214 O 0.46868 0.99859 0.96595 0.0
O215 O 0.53452 0.97619 0.10903 0.0
O216 O 0.48215 0.02387 0.06553 0.0
O217 O 0.46789 0.02838 0.99133 0.0
O218 O 0.50671 1.00031 0.88855 0.0
O219 O 0.53586 0.02712 1.00065 0.0
O220 O 0.51356 0.02537 0.06749 0.0
O221 O 0.49311 0.04002 0.8889 0.0
O222 O 0.52219 0.983 0.95424 0.0
O223 O 0.53573 0.97711 0.02903 0.0
C224 C 0.46862 0.97394 0.97927 0.0
C225 C 0.53524 0.97257 0.19145 0.0
C226 C 0.53778 0.97652 0.27444 0.0
C227 C 0.56312 0.96546 0.2727 0.0
C228 C 0.5606 0.96157 0.19124 0.0
C229 C 0.57432 0.95794 0.23154 0.0
C230 C 0.52363 0.97972 0.23348 0.0
C231 C 0.46598 0.03384 0.03508 0.0
C232 C 0.52195 0.97727 0.14737 0.0
C233 C 0.43374 0.89958 0.0829 0.0
C234 C 0.41552 0.91892 0.09617 0.0
C235 C 0.53379 0.03323 0.04396 0.0
C236 C 0.47855 0.01319 0.82836 0.0
C237 C 0.46764 0.0068 0.74768 0.0
C238 C 0.44091 0.00531 0.76015 0.0
C239 C 0.45189 0.01111 0.83941 0.0
C240 C 0.48641 0.01078 0.78257 0.0
C241 C 0.43324 0.00709 0.80548 0.0
C242 C 0.53763 0.97243 0.98499 0.0
C243 C 0.49807 0.01951 0.86391 0.0
H244 H 0.57429 0.96241 0.30347 0.0
H245 H 0.56998 0.95578 0.15975 0.0
H246 H 0.59384 0.9494 0.23084 0.0
H247 H 0.50415 0.9884 0.23425 0.0
H248 H 0.42566 0.00311 0.73487 0.0
H249 H 0.44548 0.01321 0.87419 0.0
H250 H 0.50712 0.01206 0.77439 0.0
H251 H 0.41263 0.00579 0.81427 0.0
Tb252 Tb 0.23314 0.25216 0.20691 0.0
C253 C 0.32935 0.2655 0.34118 0.0
N254 N 0.31497 0.24353 0.33268 0.0
C255 C 0.35404 0.21707 0.33619 0.0
C256 C 0.35684 0.26415 0.34688 0.0
C257 C 0.32678 0.2194 0.33131 0.0
C258 C 0.36918 0.23956 0.34373 0.0
C259 C 0.33046 0.31265 0.35425 0.0
C260 C 0.31639 0.28948 0.34443 0.0
C261 C 0.35786 0.31143 0.35992 0.0
C262 C 0.37103 0.28726 0.35597 0.0
Tb263 Tb 0.2707 0.24998 0.32622 0.0
N264 N 0.28997 0.29005 0.33711 0.0
C265 C 0.3165 0.33628 0.35846 0.0
C266 C 0.27621 0.31297 0.34222 0.0
C267 C 0.28928 0.33644 0.35242 0.0
H268 H 0.31513 0.20184 0.32812 0.0
H269 H 0.27829 0.35457 0.35637 0.0
H270 H 0.19076 0.30188 0.20076 0.0
H271 H 0.22165 0.1468 0.19047 0.0
H272 H 0.25517 0.31327 0.33952 0.0
H273 H 0.32644 0.35436 0.36734 0.0
H274 H 0.24631 0.18769 0.20273 0.0
H275 H 0.36331 0.19789 0.33487 0.0
H276 H 0.36903 0.32902 0.36748 0.0
H277 H 0.39217 0.28663 0.36047 0.0
H278 H 0.14329 0.3074 0.18754 0.0
H279 H 0.39026 0.23768 0.34787 0.0
H280 H 0.17371 0.14853 0.17662 0.0
N281 N 0.18941 0.26009 0.19805 0.0
C282 C 0.1744 0.23843 0.1904 0.0
C283 C 0.15166 0.28787 0.18901 0.0
C284 C 0.14722 0.24069 0.18195 0.0
C285 C 0.17855 0.28467 0.19704 0.0
C286 C 0.13587 0.26581 0.1817 0.0
N287 N 0.21264 0.21244 0.19967 0.0
C288 C 0.22542 0.1888 0.19837 0.0
C289 C 0.17162 0.19098 0.18219 0.0
C290 C 0.18642 0.21385 0.19064 0.0
C291 C 0.18443 0.16659 0.18281 0.0
C292 C 0.21147 0.16552 0.19079 0.0
H293 H 0.11506 0.26841 0.17518 0.0
H294 H 0.11154 0.21927 0.1662 0.0
H295 H 0.13314 0.17583 0.16519 0.0
O296 O 0.24825 0.237 0.14584 0.0
O297 O 0.21309 0.23249 0.26404 0.0
O298 O 0.24601 0.21583 0.30953 0.0
O299 O 0.22359 0.27129 0.14588 0.0
O300 O 0.27282 0.23562 0.21312 0.0
O301 O 0.27702 0.21549 0.28211 0.0
O302 O 0.25442 0.26211 0.38838 0.0
O303 O 0.28973 0.27215 0.2706 0.0
O304 O 0.25727 0.28693 0.22165 0.0
O305 O 0.28198 0.23018 0.38578 0.0
O306 O 0.23174 0.26879 0.32167 0.0
O307 O 0.22697 0.28673 0.25033 0.0
C308 C 0.22138 0.21652 0.29601 0.0
C309 C 0.25492 0.26706 0.08693 0.0
C310 C 0.2677 0.27212 1.00744 0.0
C311 C 0.28916 0.28753 0.02176 0.0
C312 C 0.27662 0.28214 0.10021 0.0
C313 C 0.2935 0.29251 0.06776 0.0
C314 C 0.25044 0.26213 0.04052 0.0
C315 C 0.28184 0.21645 0.23828 0.0
C316 C 0.23761 0.25527 0.12119 0.0
C317 C 0.13241 0.21793 0.17318 0.0
C318 C 0.14465 0.19318 0.17289 0.0
C319 C 0.28123 0.2882 0.23871 0.0
C320 C 0.25104 0.2306 0.44587 0.0
C321 C 0.23832 0.225 0.52524 0.0
C322 C 0.21888 0.20707 0.51113 0.0
C323 C 0.23167 0.21255 0.43276 0.0
C324 C 0.25447 0.23662 0.49217 0.0
C325 C 0.21571 0.20084 0.46526 0.0
C326 C 0.22126 0.28604 0.29382 0.0
C327 C 0.26683 0.24439 0.41169 0.0
H328 H 0.30257 0.29588 0.99734 0.0
H329 H 0.28062 0.28562 0.13567 0.0
H330 H 0.31015 0.30429 0.07831 0.0
H331 H 0.23396 0.24996 0.03034 0.0
H332 H 0.2063 0.19763 0.53565 0.0
H333 H 0.22878 0.20772 0.39743 0.0
H334 H 0.26926 0.25082 0.5023 0.0
H335 H 0.20074 0.18696 0.45483 0.0
Tb336 Tb 0.73294 0.25739 0.32486 0.0
C337 C 0.82414 0.22501 0.19835 0.0
N338 N 0.8133 0.24919 0.20493 0.0
C339 C 0.85621 0.26828 0.21013 0.0
C340 C 0.85161 0.22138 0.19925 0.0
C341 C 0.82886 0.27084 0.20956 0.0
C342 C 0.86768 0.24342 0.2055 0.0
C343 C 0.81795 0.17827 0.18592 0.0
C344 C 0.80746 0.20377 0.19182 0.0
C345 C 0.84531 0.17445 0.18753 0.0
C346 C 0.8621 0.19595 0.19409 0.0
Tb347 Tb 0.7686 0.25112 0.20284 0.0
N348 N 0.78103 0.20818 0.19111 0.0
C349 C 0.80065 0.15742 0.17804 0.0
C350 C 0.76425 0.18805 0.18088 0.0
C351 C 0.77371 0.16239 0.17504 0.0
H352 H 0.82038 0.29027 0.21137 0.0
H353 H 0.76023 0.14651 0.16745 0.0
H354 H 0.68211 0.21517 0.32324 0.0
H355 H 0.73521 0.35992 0.37181 0.0
H356 H 0.74368 0.19154 0.17561 0.0
H357 H 0.80792 0.13757 0.17301 0.0
H358 H 0.75414 0.31579 0.35725 0.0
H359 H 0.86835 0.28556 0.21358 0.0
H360 H 0.85369 0.15496 0.18337 0.0
H361 H 0.88316 0.19273 0.19498 0.0
H362 H 0.63413 0.21778 0.31461 0.0
H363 H 0.8889 0.24151 0.2062 0.0
H364 H 0.68737 0.36733 0.36258 0.0
N365 N 0.68786 0.25659 0.321 0.0
C366 C 0.67581 0.28041 0.32533 0.0
C367 C 0.64565 0.23562 0.31656 0.0
C368 C 0.64821 0.28287 0.32313 0.0
C369 C 0.67305 0.2342 0.31995 0.0
C370 C 0.63319 0.26011 0.31718 0.0
N371 N 0.71759 0.29892 0.33782 0.0
C372 C 0.73333 0.31898 0.35246 0.0
C373 C 0.6794 0.32692 0.34342 0.0
C374 C 0.6911 0.30217 0.33535 0.0
C375 C 0.69559 0.34799 0.35599 0.0
C376 C 0.72263 0.34391 0.36109 0.0
H377 H 0.61193 0.26113 0.3153 0.0
H378 H 0.61533 0.31004 0.32682 0.0
H379 H 0.64268 0.34864 0.3446 0.0
O380 O 0.75604 0.25763 0.38451 0.0
O381 O 0.72842 0.28882 0.27393 0.0
O382 O 0.72831 0.2663 0.20686 0.0
O383 O 0.71492 0.24943 0.38722 0.0
O384 O 0.77245 0.27413 0.31746 0.0
O385 O 0.77623 0.28739 0.24257 0.0
O386 O 0.76729 0.24137 0.13331 0.0
O387 O 0.7878 0.23567 0.26442 0.0
O388 O 0.75377 0.22071 0.30807 0.0
O389 O 0.77574 0.28089 0.15519 0.0
O390 O 0.72982 0.23242 0.20906 0.0
O391 O 0.72239 0.22184 0.28464 0.0
C392 C 0.72018 0.28604 0.23198 0.0
C393 C 0.74105 0.23025 0.44381 0.0
C394 C 0.74838 0.21717 0.52294 0.0
C395 C 0.74423 0.1908 0.50928 0.0
C396 C 0.7376 0.20385 0.43146 0.0
C397 C 0.73931 0.18428 0.46404 0.0
C398 C 0.74686 0.23681 0.48924 0.0
C399 C 0.78275 0.28919 0.28592 0.0
C400 C 0.7365 0.25119 0.4104 0.0
C401 C 0.63648 0.30774 0.32887 0.0
C402 C 0.65204 0.3297 0.33916 0.0
C403 C 0.77845 0.21939 0.29487 0.0
C404 C 0.79097 0.26782 0.0816 0.0
C405 C 0.79774 0.26706 0.99937 0.0
C406 C 0.82334 0.27656 1.00611 0.0
C407 C 0.81668 0.27722 0.08734 0.0
C408 C 0.7817 0.26242 0.03737 0.0
C409 C 0.83278 0.28137 0.0498 0.0
C410 C 0.71771 0.21878 0.24073 0.0
C411 C 0.77289 0.26507 0.12054 0.0
H412 H 0.74412 0.17499 0.5335 0.0
H413 H 0.7329 0.19847 0.39684 0.0
H414 H 0.7362 0.16394 0.45436 0.0
H415 H 0.74994 0.25728 0.49797 0.0
H416 H 0.83608 0.28019 0.97745 0.0
H417 H 0.82423 0.28181 0.12062 0.0
H418 H 0.76178 0.2554 0.03246 0.0
H419 H 0.85255 0.2887 0.05457 0.0
Tb420 Tb 0.73482 0.74872 0.70101 0.0
C421 C 0.82263 0.78199 0.83356 0.0
N422 N 0.81341 0.75773 0.82242 0.0
C423 C 0.85754 0.74163 0.81426 0.0
C424 C 0.84983 0.7872 0.83429 0.0
C425 C 0.83038 0.73745 0.81376 0.0
C426 C 0.86732 0.76663 0.82441 0.0
C427 C 0.81335 0.82755 0.85239 0.0
C428 C 0.80457 0.80187 0.84236 0.0
C429 C 0.84044 0.83292 0.85283 0.0
C430 C 0.85863 0.81279 0.84393 0.0
Tb431 Tb 0.76893 0.75286 0.82497 0.0
N432 N 0.77847 0.79597 0.84132 0.0
C433 C 0.79466 0.84699 0.86224 0.0
C434 C 0.76036 0.81452 0.85401 0.0
C435 C 0.76809 0.84034 0.86363 0.0
H436 H 0.82315 0.71782 0.80787 0.0
H437 H 0.75355 0.85499 0.87301 0.0
H438 H 0.68574 0.79309 0.70183 0.0
H439 H 0.73461 0.6465 0.65218 0.0
H440 H 0.74004 0.80953 0.85857 0.0
H441 H 0.80059 0.86697 0.87003 0.0
H442 H 0.75466 0.68987 0.66848 0.0
H443 H 0.87091 0.72551 0.80728 0.0
H444 H 0.84752 0.85256 0.86031 0.0
H445 H 0.87945 0.81723 0.84441 0.0
H446 H 0.6376 0.79246 0.70453 0.0
H447 H 0.88838 0.76983 0.82463 0.0
H448 H 0.6864 0.64093 0.6586 0.0
N449 N 0.68981 0.75134 0.70265 0.0
C450 C 0.67704 0.72807 0.69682 0.0
C451 C 0.6484 0.77414 0.70355 0.0
C452 C 0.64934 0.72685 0.6961 0.0
C453 C 0.67587 0.77438 0.70318 0.0
C454 C 0.63504 0.75025 0.70089 0.0
N455 N 0.7184 0.70786 0.68688 0.0
C456 C 0.73371 0.68735 0.67228 0.0
C457 C 0.67943 0.68151 0.67815 0.0
C458 C 0.69178 0.70568 0.68769 0.0
C459 C 0.69514 0.65986 0.66622 0.0
C460 C 0.72238 0.66291 0.66265 0.0
H461 H 0.61374 0.75021 0.70033 0.0
H462 H 0.61564 0.70123 0.68763 0.0
H463 H 0.642 0.66149 0.67276 0.0
O464 O 0.75855 0.74769 0.64214 0.0
O465 O 0.72934 0.71655 0.75021 0.0
O466 O 0.72915 0.73652 0.81997 0.0
O467 O 0.71784 0.75784 0.63822 0.0
O468 O 0.77416 0.73189 0.71018 0.0
O469 O 0.7766 0.71699 0.78441 0.0
O470 O 0.76465 0.76028 0.8947 0.0
O471 O 0.78885 0.76959 0.76503 0.0
O472 O 0.75567 0.78505 0.71946 0.0
O473 O 0.78015 0.72335 0.87129 0.0
O474 O 0.72954 0.7701 0.81745 0.0
O475 O 0.72469 0.78361 0.74292 0.0
C476 C 0.72035 0.71848 0.79182 0.0
C477 C 0.74509 0.77499 0.58147 0.0
C478 C 0.75341 0.78645 0.50211 0.0
C479 C 0.75147 0.81323 0.5146 0.0
C480 C 0.74323 0.80173 0.59269 0.0
C481 C 0.74666 0.82071 0.55946 0.0
C482 C 0.75035 0.7674 0.53633 0.0
C483 C 0.78314 0.71563 0.74109 0.0
C484 C 0.73947 0.7548 0.61562 0.0
C485 C 0.63689 0.70257 0.68839 0.0
C486 C 0.6519 0.67993 0.67963 0.0
C487 C 0.7801 0.78609 0.73423 0.0
C488 C 0.79321 0.73872 0.94494 0.0
C489 C 0.80107 0.74414 0.02638 0.0
C490 C 0.82825 0.74395 0.01807 0.0
C491 C 0.82046 0.73819 0.93771 0.0
C492 C 0.78358 0.74135 0.98961 0.0
C493 C 0.83783 0.74079 0.97407 0.0
C494 C 0.71819 0.78469 0.78625 0.0
C495 C 0.77444 0.73781 0.90664 0.0
H496 H 0.75297 0.82857 0.48957 0.0
H497 H 0.73848 0.80784 0.6269 0.0
H498 H 0.74499 0.84135 0.56832 0.0
H499 H 0.75179 0.74666 0.52802 0.0
H500 H 0.84207 0.74605 0.04578 0.0
H501 H 0.82842 0.73593 0.90411 0.0
H502 H 0.76256 0.74186 0.99564 0.0
H503 H 0.85882 0.74049 0.96809 0.0
Tb504 Tb 0.49785 0.52178 0.06691 0.0
C505 C 0.47257 0.4265 0.94363 0.0
N506 N 0.49666 0.43673 0.95278 0.0
C507 C 0.51436 0.39331 0.96173 0.0
C508 C 0.46843 0.3991 0.94331 0.0
C509 C 0.51756 0.4206 0.96112 0.0
C510 C 0.48968 0.38249 0.95286 0.0
C511 C 0.42693 0.43378 0.92393 0.0
C512 C 0.45205 0.44372 0.93467 0.0
C513 C 0.42276 0.40649 0.92323 0.0
C514 C 0.44337 0.3892 0.93327 0.0
Tb515 Tb 0.49996 0.48136 0.94909 0.0
N516 N 0.45698 0.47007 0.93499 0.0
C517 C 0.40696 0.45152 0.91282 0.0
C518 C 0.43805 0.48711 0.92023 0.0
C519 C 0.41264 0.47827 0.91058 0.0
H520 H 0.53683 0.4287 0.9661 0.0
H521 H 0.39765 0.49204 0.9001 0.0
H522 H 0.44851 0.56474 0.06341 0.0
H523 H 0.60245 0.53395 0.09237 0.0
H524 H 0.44243 0.50731 0.91348 0.0
H525 H 0.3874 0.44471 0.90428 0.0
H526 H 0.56156 0.50886 0.08309 0.0
H527 H 0.53102 0.38064 0.96848 0.0
H528 H 0.40382 0.39849 0.91401 0.0
H529 H 0.43981 0.3682 0.93257 0.0
H530 H 0.4432 0.61299 0.06389 0.0
H531 H 0.48729 0.36133 0.95304 0.0
H532 H 0.60121 0.58258 0.09357 0.0
N533 N 0.49019 0.56605 0.06899 0.0
C534 C 0.51175 0.58149 0.07444 0.0
C535 C 0.46262 0.60438 0.06666 0.0
C536 C 0.50961 0.60911 0.07584 0.0
C537 C 0.46573 0.57704 0.0658 0.0
C538 C 0.48465 0.6205 0.07154 0.0
N539 N 0.53731 0.5427 0.0761 0.0
C540 C 0.56066 0.52994 0.08226 0.0
C541 C 0.55898 0.58462 0.0848 0.0
C542 C 0.53612 0.56942 0.07886 0.0
C543 C 0.58314 0.57163 0.08908 0.0
C544 C 0.58393 0.54417 0.08818 0.0
H545 H 0.48216 0.64166 0.07236 0.0
H546 H 0.53115 0.64566 0.08257 0.0
H547 H 0.57436 0.62422 0.09038 0.0
O548 O 0.50611 0.50412 0.12981 0.0
O549 O 0.51877 0.54007 1.00947 0.0
O550 O 0.53393 0.50672 0.96262 0.0
O551 O 0.47753 0.53496 0.12503 0.0
O552 O 0.51988 0.48431 0.06469 0.0
O553 O 0.53509 0.47588 0.99166 0.0
O554 O 0.4954 0.49431 0.88179 0.0
O555 O 0.48274 0.46236 1.00962 0.0
O556 O 0.46436 0.4967 0.04923 0.0
O557 O 0.5221 0.4631 0.89724 0.0
O558 O 0.48212 0.52118 0.95101 0.0
O559 O 0.4637 0.52468 0.02202 0.0
C560 C 0.53411 0.53136 0.97656 0.0
C561 C 0.50145 0.53223 0.1937 0.0
C562 C 0.51045 0.5315 0.27523 0.0
C563 C 0.52323 0.55586 0.27139 0.0
C564 C 0.51382 0.55679 0.19136 0.0
C565 C 0.52478 0.5684 0.22978 0.0
C566 C 0.49951 0.5197 0.23604 0.0
C567 C 0.53636 0.47279 0.03606 0.0
C568 C 0.49048 0.51976 0.15232 0.0
C569 C 0.53237 0.62439 0.08151 0.0
C570 C 0.55699 0.61217 0.08601 0.0
C571 C 0.46562 0.47149 0.03933 0.0
C572 C 0.5011 0.46151 0.82534 0.0
C573 C 0.49074 0.4593 0.74432 0.0
C574 C 0.48077 0.43384 0.7504 0.0
C575 C 0.49182 0.4357 0.82993 0.0
C576 C 0.50086 0.47314 0.78212 0.0
C577 C 0.48147 0.42212 0.79285 0.0
C578 C 0.46539 0.53222 0.97964 0.0
C579 C 0.51101 0.47643 0.86512 0.0
H580 H 0.53152 0.56555 0.30089 0.0
H581 H 0.51479 0.56725 0.16006 0.0
H582 H 0.53431 0.58734 0.22737 0.0
H583 H 0.48973 0.50086 0.23843 0.0
H584 H 0.47308 0.42267 0.72196 0.0
H585 H 0.49279 0.4258 0.86193 0.0
H586 H 0.50837 0.4929 0.77797 0.0
H587 H 0.47424 0.40228 0.79696 0.0
Tb588 Tb 1.00246 0.48387 0.57139 0.0
C589 C 0.01695 0.5823 0.44306 0.0
N590 N 0.99545 0.5666 0.44595 0.0
C591 C 0.9672 0.60409 0.43792 0.0
C592 C 0.01439 0.60974 0.43845 0.0
C593 C 0.97074 0.577 0.44289 0.0
C594 C 0.98909 0.62058 0.43604 0.0
C595 C 0.0645 0.58633 0.44318 0.0
C596 C 0.04168 0.57077 0.44521 0.0
C597 C 0.06207 0.61372 0.43883 0.0
C598 C 0.03709 0.62539 0.43642 0.0
Tb599 Tb 0.00388 0.52284 0.45353 0.0
N600 N 0.04323 0.54432 0.45134 0.0
C601 C 0.08903 0.57388 0.446 0.0
C602 C 0.06706 0.53193 0.45187 0.0
C603 C 0.0903 0.54654 0.44993 0.0
H604 H 0.95373 0.56435 0.44312 0.0
H605 H 0.10916 0.53667 0.45128 0.0
H606 H 0.05239 0.4413 0.57432 0.0
H607 H 0.89707 0.47129 0.57724 0.0
H608 H 0.06827 0.51087 0.45391 0.0
H609 H 0.10707 0.58513 0.44477 0.0
H610 H 0.9382 0.49666 0.5732 0.0
H611 H 0.94758 0.61217 0.43514 0.0
H612 H 0.07938 0.62605 0.43736 0.0
H613 H 0.03553 0.64654 0.43303 0.0
H614 H 0.0578 0.39315 0.5778 0.0
H615 H 0.98626 0.64158 0.43231 0.0
H616 H 0.89871 0.42279 0.58286 0.0
N617 N 0.01054 0.43987 0.57567 0.0
C618 C 0.98887 0.42446 0.57961 0.0
C619 C 0.03831 0.40172 0.57819 0.0
C620 C 0.9911 0.3969 0.5824 0.0
C621 C 0.03514 0.429 0.57564 0.0
C622 C 0.01622 0.38559 0.58151 0.0
N623 N 0.9629 0.4629 0.57424 0.0
C624 C 0.93921 0.47557 0.57486 0.0
C625 C 0.94127 0.42108 0.58236 0.0
C626 C 0.96425 0.43637 0.57961 0.0
C627 C 0.91686 0.43385 0.58106 0.0
C628 C 0.91585 0.46122 0.57762 0.0
H629 H 0.01879 0.36447 0.58345 0.0
H630 H 0.96957 0.36033 0.58764 0.0
H631 H 0.92597 0.38149 0.58754 0.0
O632 O 0.98638 0.49809 0.63228 0.0
O633 O 0.98393 0.46517 0.51121 0.0
O634 O 0.96919 0.49842 0.46465 0.0
O635 O 0.02024 0.47287 0.6331 0.0
O636 O 0.98402 0.52275 0.56656 0.0
O637 O 0.96797 0.52829 0.49395 0.0
O638 O 0.02071 0.50798 0.39368 0.0
O639 O 0.02193 0.54202 0.51347 0.0
O640 O 0.03673 0.5092 0.56097 0.0
O641 O 0.98638 0.5325 0.39093 0.0
O642 O 0.0222 0.48373 0.45919 0.0
O643 O 0.0386 0.4802 0.53175 0.0
C644 C 0.96862 0.47391 0.47846 0.0
C645 C 0.01605 0.50451 0.69204 0.0
C646 C 0.02144 0.51773 0.77142 0.0
C647 C 0.03604 0.53962 0.75714 0.0
C648 C 0.03012 0.52678 0.67884 0.0
C649 C 0.04033 0.54405 0.71119 0.0
C650 C 0.01176 0.49996 0.73843 0.0
C651 C 0.96739 0.53336 0.53784 0.0
C652 C 0.00424 0.48713 0.65745 0.0
C653 C 0.96825 0.38155 0.58551 0.0
C654 C 0.94341 0.3936 0.5855 0.0
C655 C 0.03707 0.53366 0.54667 0.0
C656 C 0.99172 0.50036 0.33322 0.0
C657 C 0.98603 0.48728 0.25382 0.0
C658 C 0.97258 0.46469 0.26828 0.0
C659 C 0.97895 0.47736 0.34658 0.0
C660 C 0.99525 0.50532 0.28677 0.0
C661 C 0.9691 0.45982 0.31431 0.0
C662 C 0.03907 0.47405 0.48844 0.0
C663 C 0.00289 0.51829 0.36758 0.0
H664 H 0.04417 0.55338 0.78156 0.0
H665 H 0.03272 0.531 0.64348 0.0
H666 H 0.05132 0.56112 0.70057 0.0
H667 H 1.00021 0.48315 0.74864 0.0
H668 H 0.96476 0.4507 0.24395 0.0
H669 H 0.97705 0.47281 0.382 0.0
H670 H 0.00588 0.52271 0.27647 0.0
H671 H 0.95904 0.44221 0.32503 0.0
H672 H 0.08148 0.02163 0.448 0.0
H673 H 0.11307 0.05269 0.41628 0.0
H674 H 0.06303 0.11737 0.45689 0.0
H675 H 0.03062 0.08628 0.48518 0.0
H676 H 0.08009 0.12725 0.37833 0.0
H677 H 0.12348 0.09796 0.51339 0.0
H678 H 0.14243 0.06547 0.56584 0.0
H679 H 0.19628 0.03948 0.46288 0.0
H680 H 0.17744 0.07147 0.40953 0.0
H681 H 0.17274 0.22771 0.32924 0.0
H682 H 0.14153 0.19786 0.36459 0.0
H683 H 0.19439 0.13279 0.33888 0.0
H684 H 0.22668 0.16339 0.30766 0.0
H685 H 0.17539 0.12365 0.41259 0.0
H686 H 0.12321 0.14511 0.27381 0.0
H687 H 0.1001 0.17435 0.22042 0.0
H688 H 0.06352 0.21525 0.33132 0.0
H689 H 0.08506 0.18523 0.38525 0.0
C690 C 0.07716 0.04248 0.44998 0.0
C691 C 0.05358 0.05142 0.46979 0.0
C692 C 0.09545 0.06033 0.43229 0.0
C693 C 0.09094 0.08766 0.43484 0.0
C694 C 0.0673 0.09652 0.45455 0.0
C695 C 0.04884 0.07867 0.47142 0.0
C696 C 0.11022 0.10701 0.41568 0.0
C697 C 0.10091 0.12654 0.38633 0.0
C698 C 0.13756 0.10615 0.42509 0.0
C699 C 0.14892 0.087 0.45734 0.0
C700 C 0.13924 0.08521 0.50182 0.0
C701 C 0.14996 0.06689 0.53172 0.0
C702 C 0.17049 0.05045 0.51765 0.0
C703 C 0.18036 0.05224 0.47369 0.0
C704 C 0.16969 0.07046 0.44362 0.0
C705 C 0.17759 0.20698 0.33111 0.0
C706 C 0.20211 0.19786 0.31565 0.0
C707 C 0.15948 0.1897 0.35076 0.0
C708 C 0.16479 0.16251 0.35346 0.0
C709 C 0.18942 0.15349 0.33753 0.0
C710 C 0.20795 0.17097 0.31946 0.0
C711 C 0.14539 0.14364 0.37426 0.0
C712 C 0.15464 0.12428 0.40427 0.0
C713 C 0.11793 0.1446 0.36555 0.0
C714 C 0.10606 0.16331 0.33343 0.0
C715 C 0.11042 0.1605 0.28673 0.0
C716 C 0.09754 0.17712 0.2564 0.0
C717 C 0.08088 0.19701 0.27244 0.0
C718 C 0.07659 0.19998 0.31891 0.0
C719 C 0.08886 0.18299 0.34933 0.0
H720 H 0.0711 0.20993 0.24883 0.0
H721 H 0.17885 0.03638 0.54084 0.0
H722 H 0.03187 0.93932 0.61197 0.0
H723 H 0.06518 0.909 0.64027 0.0
H724 H 0.11631 0.92943 0.52967 0.0
H725 H 0.08303 0.96047 0.50173 0.0
H726 H 0.08593 0.86618 0.60862 0.0
H727 H 0.178 0.92192 0.55671 0.0
H728 H 0.19543 0.96697 0.5493 0.0
H729 H 0.14229 0.99434 0.65226 0.0
H730 H 0.12394 0.94958 0.65933 0.0
H731 H 0.19383 0.77989 0.6453 0.0
H732 H 0.16338 0.81128 0.61149 0.0
H733 H 0.18289 0.86826 0.71511 0.0
H734 H 0.21497 0.83749 0.74679 0.0
H735 H 0.17805 0.8927 0.63897 0.0
H736 H 0.12415 0.82841 0.71504 0.0
H737 H 0.10935 0.78312 0.73025 0.0
H738 H 0.08622 0.77373 0.5914 0.0
H739 H 0.10112 0.81879 0.57508 0.0
C740 C 0.05024 0.93748 0.59366 0.0
C741 C 0.05476 0.95249 0.55462 0.0
C742 C 0.06932 0.91999 0.60986 0.0
C743 C 0.09359 0.91695 0.58765 0.0
C744 C 0.09804 0.93164 0.54813 0.0
C745 C 0.07886 0.94921 0.53182 0.0
C746 C 0.11372 0.89802 0.60567 0.0
C747 C 0.10607 0.87206 0.61514 0.0
C748 C 0.1401 0.90534 0.61459 0.0
C749 C 0.14949 0.93255 0.60821 0.0
C750 C 0.16982 0.93765 0.57735 0.0
C751 C 0.17977 0.96311 0.57311 0.0
C752 C 0.16978 0.9835 0.60009 0.0
C753 C 0.14964 0.97856 0.63096 0.0
C754 C 0.13935 0.95321 0.63487 0.0
C755 C 0.19171 0.79912 0.66095 0.0
C756 C 0.2064 0.80585 0.69976 0.0
C757 C 0.17405 0.81707 0.64168 0.0
C758 C 0.1701 0.8421 0.66123 0.0
C759 C 0.1852 0.84906 0.69943 0.0
C760 C 0.20326 0.83124 0.71817 0.0
C761 C 0.15023 0.86092 0.64211 0.0
C762 C 0.15793 0.88679 0.63232 0.0
C763 C 0.12379 0.85359 0.63344 0.0
C764 C 0.11392 0.8269 0.64376 0.0
C765 C 0.11594 0.81667 0.68774 0.0
C766 C 0.10758 0.79105 0.69655 0.0
C767 C 0.09698 0.7756 0.66181 0.0
C768 C 0.09448 0.78575 0.61824 0.0
C769 C 0.10284 0.81132 0.60919 0.0
H770 H 0.09071 0.75575 0.66864 0.0
H771 H 0.17782 0.00309 0.59748 0.0
H772 H 0.32489 0.78094 0.83927 0.0
H773 H 0.35614 0.81239 0.87088 0.0
H774 H 0.3289 0.87111 0.77713 0.0
H775 H 0.29818 0.83896 0.74384 0.0
H776 H 0.37998 0.87606 0.78852 0.0
H777 H 0.3073 0.86847 0.89034 0.0
H778 H 0.27543 0.84393 0.9364 0.0
H779 H 0.33834 0.81361 0.0179 0.0
H780 H 0.37065 0.83762 0.9718 0.0
H781 H 0.42479 0.98503 0.92841 0.0
H782 H 0.39489 0.95386 0.89122 0.0
H783 H 0.43907 0.88912 0.9461 0.0
H784 H 0.47026 0.92004 0.97999 0.0
H785 H 0.37829 0.88879 0.9553 0.0
H786 H 0.45071 0.8962 0.85088 0.0
H787 H 0.48193 0.91971 0.80209 0.0
H788 H 0.41759 0.95059 0.72448 0.0
H789 H 0.38608 0.92811 0.77378 0.0
C790 C 0.32573 0.8005 0.82507 0.0
C791 C 0.30892 0.80762 0.78941 0.0
C792 C 0.34352 0.81855 0.84339 0.0
C793 C 0.3444 0.8445 0.82751 0.0
C794 C 0.32847 0.85132 0.79035 0.0
C795 C 0.31095 0.83297 0.77127 0.0
C796 C 0.36141 0.86446 0.85069 0.0
C797 C 0.37926 0.87909 0.82489 0.0
C798 C 0.36089 0.86829 0.89839 0.0
C799 C 0.34142 0.85473 0.92742 0.0
C800 C 0.31435 0.85654 0.91804 0.0
C801 C 0.29621 0.84269 0.94412 0.0
C802 C 0.30486 0.82719 0.98003 0.0
C803 C 0.33167 0.82562 0.99007 0.0
C804 C 0.34991 0.83937 0.96401 0.0
C805 C 0.42836 0.96417 0.93217 0.0
C806 C 0.44988 0.95511 0.95773 0.0
C807 C 0.41109 0.94638 0.91121 0.0
C808 C 0.41462 0.91916 0.91619 0.0
C809 C 0.43578 0.91004 0.94223 0.0
C810 C 0.45348 0.92779 0.96202 0.0
C811 C 0.39675 0.90019 0.89301 0.0
C812 C 0.37878 0.88581 0.9189 0.0
C813 C 0.39698 0.89674 0.84545 0.0
C814 C 0.416 0.91079 0.81646 0.0
C815 C 0.44322 0.90842 0.82394 0.0
C816 C 0.46101 0.92154 0.79611 0.0
C817 C 0.45182 0.93674 0.76026 0.0
C818 C 0.42481 0.93896 0.75231 0.0
C819 C 0.40695 0.9261 0.78029 0.0
H820 H 0.46566 0.94666 0.73855 0.0
H821 H 0.2908 0.81641 1.00009 0.0
H822 H 0.41772 0.04592 0.99815 0.0
H823 H 0.38469 0.07691 0.0286 0.0
H824 H 0.43639 0.09582 0.1397 0.0
H825 H 0.46946 0.06557 0.10933 0.0
H826 H 0.36598 0.07544 0.13532 0.0
H827 H 0.44138 0.1447 0.12031 0.0
H828 H 0.47436 0.16478 0.06994 0.0
H829 H 0.4168 0.17035 0.96412 0.0
H830 H 0.38356 0.15021 0.01386 0.0
H831 H 0.30418 0.17162 0.27467 0.0
H832 H 0.33495 0.14122 0.23822 0.0
H833 H 0.32741 0.184 0.11327 0.0
H834 H 0.29909 0.21586 0.15071 0.0
H835 H 0.37413 0.17204 0.11832 0.0
H836 H 0.29648 0.12089 0.13844 0.0
H837 H 0.25965 0.10125 0.18045 0.0
H838 H 0.31418 0.05818 0.26267 0.0
H839 H 0.35136 0.07789 0.22162 0.0
C840 C 0.42211 0.05695 0.02875 0.0
C841 C 0.44619 0.05329 0.05131 0.0
C842 C 0.40321 0.07449 0.0462 0.0
C843 C 0.40818 0.08865 0.08633 0.0
C844 C 0.43224 0.08519 0.10858 0.0
C845 C 0.45108 0.0678 0.09121 0.0
C846 C 0.38825 0.10683 0.10591 0.0
C847 C 0.36766 0.09659 0.13186 0.0
C848 C 0.3901 0.13424 0.10034 0.0
C849 C 0.41016 0.14586 0.07053 0.0
C850 C 0.43588 0.15007 0.08619 0.0
C851 C 0.45458 0.16146 0.05781 0.0
C852 C 0.4477 0.16881 0.01388 0.0
C853 C 0.42211 0.16467 0.99815 0.0
C854 C 0.40335 0.15326 0.02637 0.0
C855 C 0.30963 0.17501 0.23985 0.0
C856 C 0.2996 0.19674 0.21627 0.0
C857 C 0.32683 0.15717 0.21856 0.0
C858 C 0.33344 0.15992 0.17252 0.0
C859 C 0.32294 0.18133 0.14879 0.0
C860 C 0.30647 0.19955 0.17037 0.0
C861 C 0.35157 0.14094 0.14904 0.0
C862 C 0.37201 0.15096 0.1221 0.0
C863 C 0.34903 0.11323 0.15289 0.0
C864 C 0.32671 0.10103 0.17718 0.0
C865 C 0.30062 0.10733 0.16563 0.0
C866 C 0.27968 0.09619 0.18927 0.0
C867 C 0.28457 0.07852 0.22426 0.0
C868 C 0.31042 0.07189 0.23559 0.0
C869 C 0.33144 0.08302 0.21212 0.0
H870 H 0.26833 0.06992 0.24254 0.0
H871 H 0.46218 0.17771 0.99205 0.0
H872 H 0.97385 0.93817 0.61761 0.0
H873 H 0.94212 0.90689 0.64805 0.0
H874 H 0.88565 0.93037 0.54714 0.0
H875 H 0.91702 0.96253 0.51791 0.0
H876 H 0.86276 0.92625 0.62958 0.0
H877 H 0.92288 0.87065 0.54069 0.0
H878 H 0.96672 0.85251 0.52198 0.0
H879 H 0.97555 0.82496 0.65787 0.0
H880 H 0.93194 0.84294 0.67768 0.0
H881 H 0.7696 0.82667 0.67552 0.0
H882 H 0.80065 0.85657 0.64008 0.0
H883 H 0.86419 0.8205 0.71436 0.0
H884 H 0.83377 0.78815 0.74368 0.0
H885 H 0.88386 0.83147 0.64368 0.0
H886 H 0.83094 0.88594 0.73938 0.0
H887 H 0.79002 0.905 0.77032 0.0
H888 H 0.77145 0.93736 0.64032 0.0
H889 H 0.8121 0.91816 0.60843 0.0
C890 C 0.95468 0.93669 0.60183 0.0
C891 C 0.94821 0.95259 0.56462 0.0
C892 C 0.93656 0.91859 0.61911 0.0
C893 C 0.91149 0.91574 0.5995 0.0
C894 C 0.90487 0.93189 0.56275 0.0
C895 C 0.92297 0.9501 0.5456 0.0
C896 C 0.89205 0.89636 0.61781 0.0
C897 C 0.86724 0.90544 0.63211 0.0
C898 C 0.89812 0.86934 0.62318 0.0
C899 C 0.92419 0.85829 0.61073 0.0
C900 C 0.93421 0.86083 0.56663 0.0
C901 C 0.95901 0.85059 0.55582 0.0
C902 C 0.9739 0.83773 0.58867 0.0
C903 C 0.964 0.83495 0.63244 0.0
C904 C 0.93924 0.8451 0.64347 0.0
C905 C 0.79023 0.8248 0.6837 0.0
C906 C 0.79891 0.80513 0.71347 0.0
C907 C 0.80808 0.8424 0.66407 0.0
C908 C 0.83504 0.84177 0.67535 0.0
C909 C 0.84367 0.82194 0.70489 0.0
C910 C 0.82601 0.80364 0.72279 0.0
C911 C 0.85434 0.86124 0.65608 0.0
C912 C 0.87916 0.85223 0.64138 0.0
C913 C 0.84871 0.88854 0.65225 0.0
C914 C 0.82444 0.90041 0.67142 0.0
C915 C 0.81807 0.89702 0.71734 0.0
C916 C 0.79492 0.90785 0.73505 0.0
C917 C 0.77812 0.92234 0.70728 0.0
C918 C 0.78447 0.9261 0.66177 0.0
C919 C 0.80757 0.91527 0.64387 0.0
H920 H 0.7602 0.93069 0.72103 0.0
H921 H 0.99309 0.82988 0.58017 0.0
H922 H 0.9676 0.06812 0.41941 0.0
H923 H 0.93489 0.09921 0.39079 0.0
H924 H 0.88206 0.07814 0.49838 0.0
H925 H 0.91519 0.04732 0.52822 0.0
H926 H 0.86246 0.07903 0.39511 0.0
H927 H 0.90222 0.13088 0.51621 0.0
H928 H 0.94045 0.14904 0.55706 0.0
H929 H 0.96586 0.18782 0.43623 0.0
H930 H 0.92788 0.16964 0.39454 0.0
H931 H 0.76613 0.17694 0.34788 0.0
H932 H 0.79624 0.14629 0.38491 0.0
H933 H 0.86236 0.18729 0.32779 0.0
H934 H 0.83241 0.21884 0.29315 0.0
H935 H 0.87464 0.17552 0.40901 0.0
H936 H 0.83989 0.1261 0.28623 0.0
H937 H 0.80685 0.10575 0.23604 0.0
H938 H 0.77684 0.06108 0.34714 0.0
H939 H 0.80959 0.08132 0.39826 0.0
C940 C 0.94906 0.0701 0.43719 0.0
C941 C 0.94403 0.05518 0.47618 0.0
C942 C 0.93037 0.08792 0.42072 0.0
C943 C 0.90596 0.09097 0.44226 0.0
C944 C 0.90074 0.07606 0.48112 0.0
C945 C 0.91974 0.05858 0.49829 0.0
C946 C 0.88616 0.10985 0.42387 0.0
C947 C 0.86472 0.10014 0.39895 0.0
C948 C 0.88981 0.13737 0.42699 0.0
C949 C 0.91235 0.14872 0.45219 0.0
C950 C 0.91606 0.14313 0.49828 0.0
C951 C 0.93766 0.15346 0.5216 0.0
C952 C 0.95563 0.1695 0.49922 0.0
C953 C 0.95195 0.17536 0.45352 0.0
C954 C 0.93036 0.1651 0.43005 0.0
C955 C 0.78708 0.17957 0.34345 0.0
C956 C 0.79672 0.20032 0.31701 0.0
C957 C 0.80436 0.16179 0.36432 0.0
C958 C 0.83178 0.16403 0.35882 0.0
C959 C 0.8414 0.1849 0.33271 0.0
C960 C 0.82415 0.20282 0.31228 0.0
C961 C 0.85042 0.14484 0.3804 0.0
C962 C 0.87191 0.15445 0.40559 0.0
C963 C 0.84718 0.11718 0.37645 0.0
C964 C 0.82703 0.10542 0.34619 0.0
C965 C 0.82607 0.11215 0.30011 0.0
C966 C 0.80744 0.10061 0.27147 0.0
C967 C 0.78975 0.0822 0.2884 0.0
C968 C 0.79056 0.07536 0.3341 0.0
C969 C 0.80918 0.08684 0.36292 0.0
H970 H 0.77556 0.0731 0.26599 0.0
H971 H 0.97238 0.17742 0.51731 0.0
H972 H 0.69596 0.17684 0.28702 0.0
H973 H 0.66363 0.14513 0.25885 0.0
H974 H 0.66524 0.18218 0.12798 0.0
H975 H 0.69517 0.21527 0.15716 0.0
H976 H 0.61892 0.17018 0.14095 0.0
H977 H 0.69948 0.1203 0.1616 0.0
H978 H 0.73664 0.10269 0.20591 0.0
H979 H 0.68271 0.06318 0.29383 0.0
H980 H 0.64525 0.08085 0.25052 0.0
H981 H 0.58109 0.05141 1.011 0.0
H982 H 0.61145 0.08242 0.04748 0.0
H983 H 0.56384 0.08195 0.16798 0.0
H984 H 0.5324 0.05272 0.13061 0.0
H985 H 0.63163 0.07436 0.16242 0.0
H986 H 0.55166 0.12844 0.14428 0.0
H987 H 0.51511 0.14548 0.09833 0.0
H988 H 0.57014 0.17704 1.00303 0.0
H989 H 0.60704 0.15915 0.04766 0.0
C990 C 0.68889 0.17866 0.25263 0.0
C991 C 0.69801 0.19899 0.22475 0.0
C992 C 0.67075 0.16009 0.23612 0.0
C993 C 0.66213 0.16071 0.19075 0.0
C994 C 0.67131 0.18104 0.16306 0.0
C995 C 0.68872 0.19997 0.17986 0.0
C996 C 0.64355 0.14057 0.17157 0.0
C997 C 0.62204 0.14927 0.14557 0.0
C998 C 0.64696 0.11307 0.17768 0.0
C999 C 0.66956 0.10208 0.20306 0.0
C1000 C 0.69556 0.10794 0.19049 0.0
C1001 C 0.71667 0.09796 0.21544 0.0
C1002 C 0.71201 0.08189 0.25272 0.0
C1003 C 0.68627 0.07566 0.265 0.0
C1004 C 0.66511 0.08564 0.24026 0.0
C1005 C 0.57666 0.05847 0.04466 0.0
C1006 C 0.55367 0.05032 0.06689 0.0
C1007 C 0.59428 0.07586 0.06583 0.0
C1008 C 0.58971 0.08476 0.11027 0.0
C1009 C 0.56759 0.07557 0.13349 0.0
C1010 C 0.54962 0.05881 0.11193 0.0
C1011 C 0.6076 0.10423 0.13204 0.0
C1012 C 0.62883 0.09535 0.15815 0.0
C1013 C 0.60414 0.13152 0.1259 0.0
C1014 C 0.58204 0.14204 0.09883 0.0
C1015 C 0.55594 0.13856 0.11307 0.0
C1016 C 0.53516 0.14845 0.08732 0.0
C1017 C 0.54026 0.16231 0.04768 0.0
C1018 C 0.5662 0.16624 0.03369 0.0
C1019 C 0.58705 0.15612 0.05907 0.0
H1020 H 0.52414 0.17004 0.02785 0.0
H1021 H 0.7283 0.0742 0.27211 0.0
H1022 H 0.68792 0.78023 0.86142 0.0
H1023 H 0.65726 0.81216 0.89355 0.0
H1024 H 0.67104 0.86376 0.78099 0.0
H1025 H 0.70223 0.83169 0.74859 0.0
H1026 H 0.66614 0.86044 0.92384 0.0
H1027 H 0.61566 0.89881 0.76208 0.0
H1028 H 0.60087 0.88243 0.68736 0.0
H1029 H 0.59355 0.80451 0.74072 0.0
H1030 H 0.60858 0.82037 0.81545 0.0
H1031 H 0.5912 0.97357 0.99007 0.0
H1032 H 0.62218 0.9426 0.95434 0.0
H1033 H 0.55696 0.89524 0.908 0.0
H1034 H 0.52623 0.92711 0.94122 0.0
H1035 H 0.58867 0.89694 0.84387 0.0
H1036 H 0.60043 0.87908 1.00204 0.0
H1037 H 0.60989 0.8898 0.08199 0.0
H1038 H 0.6868 0.9169 0.04526 0.0
H1039 H 0.67765 0.90666 0.96499 0.0
C1040 C 0.68439 0.7983 0.84323 0.0
C1041 C 0.69759 0.8034 0.80237 0.0
C1042 C 0.66684 0.8166 0.86179 0.0
C1043 C 0.66183 0.84047 0.83993 0.0
C1044 C 0.67441 0.8454 0.7984 0.0
C1045 C 0.69216 0.82703 0.77979 0.0
C1046 C 0.64403 0.86028 0.86163 0.0
C1047 C 0.64925 0.86852 0.90628 0.0
C1048 C 0.6217 0.8705 0.83929 0.0
C1049 C 0.61352 0.86073 0.7941 0.0
C1050 C 0.61102 0.87817 0.75772 0.0
C1051 C 0.60264 0.86896 0.71537 0.0
C1052 C 0.59643 0.84241 0.70922 0.0
C1053 C 0.59857 0.82502 0.7454 0.0
C1054 C 0.60718 0.83407 0.78766 0.0
C1055 C 0.58366 0.95631 0.97271 0.0
C1056 C 0.55648 0.95244 0.96867 0.0
C1057 C 0.60132 0.93858 0.95229 0.0
C1058 C 0.59208 0.91621 0.9287 0.0
C1059 C 0.56476 0.91228 0.92562 0.0
C1060 C 0.54718 0.93034 0.94493 0.0
C1061 C 0.61058 0.89712 0.90646 0.0
C1062 C 0.60563 0.8891 0.86152 0.0
C1063 C 0.63264 0.88636 0.92921 0.0
C1064 C 0.63825 0.89234 0.97748 0.0
C1065 C 0.6193 0.88747 1.01099 0.0
C1066 C 0.62461 0.89345 0.05636 0.0
C1067 C 0.64891 0.90409 0.06868 0.0
C1068 C 0.66797 0.9087 0.03566 0.0
C1069 C 0.66274 0.90279 0.99024 0.0
H1070 H 0.65298 0.90871 0.10382 0.0
H1071 H 0.58986 0.83534 0.67647 0.0
H1072 H 0.57301 0.52118 0.91369 0.0
H1073 H 0.60359 0.55229 0.87971 0.0
H1074 H 0.56943 0.61523 0.95929 0.0
H1075 H 0.53729 0.58485 0.98937 0.0
H1076 H 0.57923 0.63474 0.88587 0.0
H1077 H 0.6326 0.58252 0.9821 0.0
H1078 H 0.65156 0.54197 0.01374 0.0
H1079 H 0.68596 0.52289 0.88479 0.0
H1080 H 0.66684 0.56316 0.85216 0.0
H1081 H 0.68578 0.72481 0.86188 0.0
H1082 H 0.65422 0.69305 0.89132 0.0
H1083 H 0.67892 0.63653 0.79018 0.0
H1084 H 0.71132 0.66797 0.76187 0.0
H1085 H 0.67422 0.61392 0.87285 0.0
H1086 H 0.61926 0.67263 0.78232 0.0
H1087 H 0.60105 0.71608 0.76211 0.0
H1088 H 0.57204 0.72664 0.89728 0.0
H1089 H 0.59003 0.68339 0.91855 0.0
C1090 C 0.57196 0.54166 0.92393 0.0
C1091 C 0.55306 0.55018 0.95567 0.0
C1092 C 0.58973 0.5595 0.90473 0.0
C1093 C 0.58961 0.58627 0.91764 0.0
C1094 C 0.57038 0.5948 0.9487 0.0
C1095 C 0.55218 0.57715 0.9668 0.0
C1096 C 0.60907 0.60548 0.89852 0.0
C1097 C 0.60003 0.63014 0.88364 0.0
C1098 C 0.63637 0.59986 0.89503 0.0
C1099 C 0.64805 0.57572 0.91456 0.0
C1100 C 0.64406 0.56959 0.9604 0.0
C1101 C 0.65485 0.54667 0.97852 0.0
C1102 C 0.6699 0.52983 0.95126 0.0
C1103 C 0.67426 0.53593 0.90585 0.0
C1104 C 0.66346 0.55881 0.88752 0.0
C1105 C 0.6845 0.70562 0.84585 0.0
C1106 C 0.70081 0.69913 0.80889 0.0
C1107 C 0.66626 0.68749 0.86254 0.0
C1108 C 0.66371 0.66241 0.84259 0.0
C1109 C 0.68024 0.65577 0.80602 0.0
C1110 C 0.69857 0.6739 0.78942 0.0
C1111 C 0.64428 0.64296 0.86045 0.0
C1112 C 0.65337 0.61831 0.87504 0.0
C1113 C 0.61719 0.64898 0.86534 0.0
C1114 C 0.60614 0.67483 0.8521 0.0
C1115 C 0.6091 0.68426 0.80779 0.0
C1116 C 0.59884 0.70884 0.79614 0.0
C1117 C 0.58556 0.72412 0.82836 0.0
C1118 C 0.58236 0.7148 0.87234 0.0
C1119 C 0.59251 0.69024 0.88419 0.0
H1120 H 0.5777 0.74315 0.81921 0.0
H1121 H 0.67824 0.51209 0.96535 0.0
H1122 H 0.69065 0.28105 0.15466 0.0
H1123 H 0.66057 0.3133 0.12124 0.0
H1124 H 0.67737 0.36762 0.23003 0.0
H1125 H 0.70878 0.33617 0.26198 0.0
H1126 H 0.61504 0.34784 0.18968 0.0
H1127 H 0.70083 0.39375 0.16622 0.0
H1128 H 0.74662 0.39231 0.1387 0.0
H1129 H 0.71985 0.36608 1.00805 0.0
H1130 H 0.67392 0.367 0.03514 0.0
H1131 H 0.54418 0.46021 0.12525 0.0
H1132 H 0.5762 0.43017 0.15747 0.0
H1133 H 0.60678 0.41343 0.02409 0.0
H1134 H 0.57633 0.44555 0.99205 0.0
H1135 H 0.64534 0.41191 0.07535 0.0
H1136 H 0.56193 0.37074 0.08787 0.0
H1137 H 0.51509 0.36658 0.10803 0.0
H1138 H 0.53429 0.37599 0.24881 0.0
H1139 H 0.58122 0.3806 0.22944 0.0
C1140 C 0.68809 0.2999 0.17147 0.0
C1141 C 0.7018 0.30573 0.2118 0.0
C1142 C 0.67078 0.31828 0.15234 0.0
C1143 C 0.6666 0.34284 0.17319 0.0
C1144 C 0.68016 0.34874 0.21343 0.0
C1145 C 0.69787 0.33057 0.23207 0.0
C1146 C 0.64824 0.36237 0.15271 0.0
C1147 C 0.62164 0.36216 0.16518 0.0
C1148 C 0.65658 0.38018 0.11923 0.0
C1149 C 0.68406 0.38016 0.10283 0.0
C1150 C 0.70476 0.38745 0.13178 0.0
C1151 C 0.73072 0.38678 0.11623 0.0
C1152 C 0.73615 0.37903 0.0717 0.0
C1153 C 0.71562 0.37204 0.04256 0.0
C1154 C 0.68964 0.37264 0.05798 0.0
C1155 C 0.55772 0.45028 0.10253 0.0
C1156 C 0.55686 0.45485 0.05555 0.0
C1157 C 0.57599 0.43273 0.12113 0.0
C1158 C 0.59348 0.41844 0.09333 0.0
C1159 C 0.59336 0.42371 0.04658 0.0
C1160 C 0.57557 0.44191 0.02806 0.0
C1161 C 0.61178 0.39818 0.11308 0.0
C1162 C 0.63844 0.39791 0.1001 0.0
C1163 C 0.60325 0.37938 0.14528 0.0
C1164 C 0.57508 0.37625 0.15715 0.0
C1165 C 0.55615 0.37206 0.12311 0.0
C1166 C 0.52958 0.36962 0.1344 0.0
C1167 C 0.52172 0.37107 0.17967 0.0
C1168 C 0.54041 0.37489 0.21376 0.0
C1169 C 0.567 0.3774 0.20265 0.0
H1170 H 0.50114 0.3692 0.18834 0.0
H1171 H 0.75626 0.37851 0.05973 0.0
H1172 H 0.92822 0.48526 0.41991 0.0
H1173 H 0.89787 0.45468 0.38335 0.0
H1174 H 0.9341 0.39012 0.45418 0.0
H1175 H 0.96598 0.42027 0.48735 0.0
H1176 H 0.92454 0.37358 0.37657 0.0
H1177 H 0.8714 0.41957 0.48312 0.0
H1178 H 0.85207 0.45804 0.52217 0.0
H1179 H 0.81472 0.48179 0.39863 0.0
H1180 H 0.8342 0.44367 0.3586 0.0
H1181 H 0.81622 0.28462 0.35723 0.0
H1182 H 0.8485 0.31639 0.38495 0.0
H1183 H 0.82765 0.36918 0.27729 0.0
H1184 H 0.79535 0.33705 0.2487 0.0
H1185 H 0.82877 0.39194 0.37049 0.0
H1186 H 0.88859 0.34425 0.26609 0.0
H1187 H 0.90953 0.30422 0.2345 0.0
H1188 H 0.93105 0.27977 0.36826 0.0
H1189 H 0.91111 0.32014 0.40042 0.0
C1190 C 0.92976 0.46455 0.42774 0.0
C1191 C 0.94936 0.4554 0.4574 0.0
C1192 C 0.91216 0.44702 0.40703 0.0
C1193 C 0.91308 0.41996 0.41659 0.0
C1194 C 0.93271 0.41082 0.44615 0.0
C1195 C 0.95077 0.42824 0.46581 0.0
C1196 C 0.89398 0.40111 0.39531 0.0
C1197 C 0.9036 0.37765 0.37584 0.0
C1198 C 0.8665 0.40612 0.3937 0.0
C1199 C 0.85447 0.4289 0.41774 0.0
C1200 C 0.85919 0.43308 0.46419 0.0
C1201 C 0.84821 0.45482 0.48651 0.0
C1202 C 0.83222 0.47238 0.46287 0.0
C1203 C 0.82713 0.46819 0.41688 0.0
C1204 C 0.83814 0.44651 0.39435 0.0
C1205 C 0.81855 0.30293 0.33921 0.0
C1206 C 0.80315 0.30833 0.30076 0.0
C1207 C 0.83713 0.32104 0.35503 0.0
C1208 C 0.8406 0.34516 0.33317 0.0
C1209 C 0.82535 0.35066 0.29464 0.0
C1210 C 0.80698 0.33228 0.27825 0.0
C1211 C 0.85951 0.3648 0.35191 0.0
C1212 C 0.84978 0.38824 0.37111 0.0
C1213 C 0.88674 0.35943 0.35473 0.0
C1214 C 0.89823 0.33502 0.33559 0.0
C1215 C 0.8977 0.33025 0.2887 0.0
C1216 C 0.90945 0.30757 0.27071 0.0
C1217 C 0.9213 0.2893 0.29938 0.0
C1218 C 0.92178 0.29387 0.34609 0.0
C1219 C 0.91047 0.31675 0.36417 0.0
H1220 H 0.93024 0.27169 0.28538 0.0
H1221 H 0.82373 0.48921 0.48021 0.0
H1222 H 0.78038 0.66214 0.74575 0.0
H1223 H 0.81047 0.63023 0.71029 0.0
H1224 H 0.86036 0.69394 0.66733 0.0
H1225 H 0.82931 0.72562 0.69998 0.0
H1226 H 0.85782 0.66306 0.60234 0.0
H1227 H 0.87475 0.64912 0.75988 0.0
H1228 H 0.86373 0.63951 0.83933 0.0
H1229 H 0.83346 0.56406 0.79942 0.0
H1230 H 0.844 0.57336 0.71962 0.0
H1231 H 0.97002 0.55872 0.61913 0.0
H1232 H 0.93838 0.58894 0.65286 0.0
H1233 H 0.88896 0.58159 0.53472 0.0
H1234 H 0.92092 0.55114 0.50031 0.0
H1235 H 0.89049 0.58318 0.67946 0.0
H1236 H 0.85525 0.63883 0.51975 0.0
H1237 H 0.87277 0.65397 0.44655 0.0
H1238 H 0.95099 0.65406 0.50133 0.0
H1239 H 0.93395 0.63898 0.57473 0.0
C1240 C 0.79802 0.66913 0.72927 0.0
C1241 C 0.8028 0.69617 0.72585 0.0
C1242 C 0.81525 0.65094 0.709 0.0
C1243 C 0.83802 0.6595 0.68632 0.0
C1244 C 0.84296 0.68667 0.68417 0.0
C1245 C 0.82537 0.70478 0.70319 0.0
C1246 C 0.85643 0.64048 0.66379 0.0
C1247 C 0.86486 0.64558 0.61935 0.0
C1248 C 0.86614 0.61776 0.68579 0.0
C1249 C 0.85992 0.61205 0.73375 0.0
C1250 C 0.8656 0.63054 0.76803 0.0
C1251 C 0.85945 0.62515 0.81312 0.0
C1252 C 0.84784 0.60122 0.8244 0.0
C1253 C 0.84242 0.5826 0.79062 0.0
C1254 C 0.84849 0.58792 0.74547 0.0
C1255 C 0.95246 0.56348 0.60008 0.0
C1256 C 0.94811 0.55254 0.55677 0.0
C1257 C 0.9343 0.58078 0.6196 0.0
C1258 C 0.91123 0.58767 0.59648 0.0
C1259 C 0.90677 0.57688 0.55309 0.0
C1260 C 0.92508 0.55951 0.53336 0.0
C1261 C 0.89197 0.60598 0.61837 0.0
C1262 C 0.88327 0.60061 0.6625 0.0
C1263 C 0.88291 0.62905 0.59688 0.0
C1264 C 0.89334 0.63748 0.5525 0.0
C1265 C 0.87619 0.64203 0.51608 0.0
C1266 C 0.88604 0.6506 0.47457 0.0
C1267 C 0.91298 0.65491 0.46925 0.0
C1268 C 0.93014 0.65062 0.50541 0.0
C1269 C 0.92042 0.64194 0.5469 0.0
H1270 H 0.92057 0.66158 0.43713 0.0
H1271 H 0.84309 0.59708 0.85932 0.0
H1272 H 0.33476 0.29212 0.25143 0.0
H1273 H 0.36485 0.32475 0.22067 0.0
H1274 H 0.29997 0.36313 0.1541 0.0
H1275 H 0.26967 0.33078 0.18539 0.0
H1276 H 0.33848 0.35843 0.0968 0.0
H1277 H 0.3322 0.39489 0.24623 0.0
H1278 H 0.33376 0.3979 0.32953 0.0
H1279 H 0.41335 0.36946 0.32857 0.0
H1280 H 0.4124 0.36683 0.24506 0.0
H1281 H 0.42391 0.48394 0.09467 0.0
H1282 H 0.39192 0.45417 0.12877 0.0
H1283 H 0.43027 0.38796 0.06497 0.0
H1284 H 0.46347 0.41735 0.03351 0.0
H1285 H 0.40367 0.40868 0.18728 0.0
H1286 H 0.37022 0.34991 0.02702 0.0
H1287 H 0.36055 0.35692 0.94615 0.0
H1288 H 0.35131 0.43974 0.97101 0.0
H1289 H 0.36044 0.43319 0.05201 0.0
C1290 C 0.32672 0.30775 0.23099 0.0
C1291 C 0.2996 0.30875 0.22129 0.0
C1292 C 0.34406 0.32649 0.21328 0.0
C1293 C 0.33483 0.3467 0.18513 0.0
C1294 C 0.30774 0.34782 0.17562 0.0
C1295 C 0.29036 0.32924 0.19364 0.0
C1296 C 0.35347 0.36584 0.16389 0.0
C1297 C 0.35283 0.36925 0.11669 0.0
C1298 C 0.37194 0.38058 0.18951 0.0
C1299 C 0.37211 0.38038 0.23957 0.0
C1300 C 0.34993 0.38902 0.26385 0.0
C1301 C 0.35079 0.39089 0.31103 0.0
C1302 C 0.37362 0.38381 0.33435 0.0
C1303 C 0.39568 0.37493 0.31047 0.0
C1304 C 0.39504 0.37338 0.26321 0.0
C1305 C 0.42568 0.46305 0.08785 0.0
C1306 C 0.44607 0.45323 0.06012 0.0
C1307 C 0.40727 0.44604 0.10738 0.0
C1308 C 0.40839 0.41884 0.09893 0.0
C1309 C 0.42868 0.40891 0.07139 0.0
C1310 C 0.44753 0.42584 0.05288 0.0
C1311 C 0.38897 0.40077 0.1203 0.0
C1312 C 0.38958 0.39751 0.16741 0.0
C1313 C 0.37001 0.38674 0.09471 0.0
C1314 C 0.36643 0.39108 0.04552 0.0
C1315 C 0.36627 0.36964 0.01517 0.0
C1316 C 0.36071 0.3735 0.96936 0.0
C1317 C 0.35515 0.39873 0.95353 0.0
C1318 C 0.35556 0.4202 0.98333 0.0
C1319 C 0.36107 0.41643 0.02917 0.0
H1320 H 0.35075 0.40168 0.91808 0.0
H1321 H 0.37421 0.38518 0.37092 0.0
H1322 H 0.41394 0.54014 1.00363 0.0
H1323 H 0.38274 0.57216 0.97203 0.0
H1324 H 0.44371 0.60233 0.88579 0.0
H1325 H 0.47474 0.56979 0.91618 0.0
H1326 H 0.4076 0.64171 0.94201 0.0
H1327 H 0.40843 0.56914 0.83277 0.0
H1328 H 0.40421 0.52248 0.81062 0.0
H1329 H 0.32582 0.52102 0.86442 0.0
H1330 H 0.32975 0.5676 0.88756 0.0
H1331 H 0.33676 0.7227 0.7923 0.0
H1332 H 0.367 0.69082 0.82528 0.0
H1333 H 0.30143 0.64158 0.86118 0.0
H1334 H 0.27122 0.67277 0.82528 0.0
H1335 H 0.33917 0.61134 0.83392 0.0
H1336 H 0.33482 0.68112 0.94121 0.0
H1337 H 0.33569 0.72728 0.96745 0.0
H1338 H 0.41645 0.73352 0.9266 0.0
H1339 H 0.41589 0.68747 0.89948 0.0
C1340 C 0.42071 0.55372 0.97813 0.0
C1341 C 0.44679 0.55246 0.96237 0.0
C1342 C 0.40287 0.57196 0.96006 0.0
C1343 C 0.41088 0.58968 0.92657 0.0
C1344 C 0.4371 0.58891 0.91165 0.0
C1345 C 0.45477 0.57024 0.92889 0.0
C1346 C 0.39171 0.6084 0.90606 0.0
C1347 C 0.39283 0.63517 0.91795 0.0
C1348 C 0.37179 0.59976 0.87601 0.0
C1349 C 0.3695 0.57175 0.86234 0.0
C1350 C 0.3904 0.55879 0.84032 0.0
C1351 C 0.38802 0.5324 0.8274 0.0
C1352 C 0.36474 0.51881 0.83604 0.0
C1353 C 0.34382 0.53158 0.85769 0.0
C1354 C 0.34612 0.55797 0.8707 0.0
C1355 C 0.32879 0.70488 0.80649 0.0
C1356 C 0.30154 0.70028 0.8059 0.0
C1357 C 0.34611 0.68677 0.82607 0.0
C1358 C 0.33663 0.66384 0.84672 0.0
C1359 C 0.30939 0.65906 0.84571 0.0
C1360 C 0.29207 0.67703 0.82545 0.0
C1361 C 0.35514 0.64496 0.86924 0.0
C1362 C 0.35386 0.61806 0.85796 0.0
C1363 C 0.37452 0.65343 0.90072 0.0
C1364 C 0.37522 0.68093 0.91793 0.0
C1365 C 0.35271 0.69239 0.93759 0.0
C1366 C 0.35315 0.71853 0.95264 0.0
C1367 C 0.3761 0.73335 0.94857 0.0
C1368 C 0.39868 0.72201 0.92967 0.0
C1369 C 0.39832 0.69588 0.9145 0.0
H1370 H 0.3764 0.7536 0.96016 0.0
H1371 H 0.36295 0.49836 0.82606 0.0
H1372 H 0.18295 0.72799 0.67091 0.0
H1373 H 0.15 0.69615 0.64492 0.0
H1374 H 0.18104 0.63879 0.73748 0.0
H1375 H 0.2137 0.67094 0.76447 0.0
H1376 H 0.17606 0.62137 0.64361 0.0
H1377 H 0.12265 0.66113 0.76205 0.0
H1378 H 0.099 0.69592 0.8045 0.0
H1379 H 0.05882 0.71891 0.68335 0.0
H1380 H 0.08198 0.68417 0.64024 0.0
H1381 H 0.07997 0.52288 0.60012 0.0
H1382 H 0.11035 0.55418 0.63514 0.0
H1383 H 0.06859 0.61836 0.57275 0.0
H1384 H 0.03728 0.58735 0.54008 0.0
H1385 H 0.07929 0.63187 0.65418 0.0
H1386 H 0.13028 0.5949 0.5343 0.0
H1387 H 0.15045 0.55963 0.48815 0.0
H1388 H 0.1948 0.53375 0.60326 0.0
H1389 H 0.17468 0.56873 0.65031 0.0
C1390 C 0.18254 0.70868 0.68608 0.0
C1391 C 0.20088 0.70191 0.7197 0.0
C1392 C 0.16364 0.69054 0.67134 0.0
C1393 C 0.16297 0.66508 0.68931 0.0
C1394 C 0.18112 0.65835 0.72326 0.0
C1395 C 0.19969 0.67672 0.73875 0.0
C1396 C 0.14448 0.64509 0.6704 0.0
C1397 C 0.15488 0.62341 0.64654 0.0
C1398 C 0.11686 0.64827 0.67258 0.0
C1399 C 0.10435 0.6703 0.6978 0.0
C1400 C 0.10911 0.6739 0.74431 0.0
C1401 C 0.09572 0.69354 0.76851 0.0
C1402 C 0.0778 0.7099 0.74648 0.0
C1403 C 0.07293 0.70642 0.70029 0.0
C1404 C 0.08611 0.68672 0.67599 0.0
C1405 C 0.07724 0.54367 0.59386 0.0
C1406 C 0.05623 0.55251 0.56691 0.0
C1407 C 0.09479 0.56159 0.61367 0.0
C1408 C 0.09214 0.58876 0.60618 0.0
C1409 C 0.0712 0.59757 0.57916 0.0
C1410 C 0.05341 0.57972 0.56 0.0
C1411 C 0.11077 0.60807 0.62717 0.0
C1412 C 0.10045 0.62969 0.65125 0.0
C1413 C 0.13846 0.60519 0.62421 0.0
C1414 C 0.15078 0.58428 0.59595 0.0
C1415 C 0.14421 0.58158 0.54987 0.0
C1416 C 0.15563 0.56165 0.52354 0.0
C1417 C 0.17381 0.54439 0.5428 0.0
C1418 C 0.18068 0.54711 0.58841 0.0
C1419 C 0.1693 0.56701 0.61492 0.0
H1420 H 0.18262 0.52896 0.52236 0.0
H1421 H 0.06752 0.72512 0.76529 0.0
H1422 H 0.19347 0.2814 0.37224 0.0
H1423 H 0.16211 0.31239 0.40533 0.0
H1424 H 0.17374 0.36473 0.29297 0.0
H1425 H 0.2051 0.33354 0.25937 0.0
H1426 H 0.16655 0.35921 0.43712 0.0
H1427 H 0.11905 0.39976 0.27266 0.0
H1428 H 0.10548 0.38413 0.19684 0.0
H1429 H 0.10018 0.30516 0.24625 0.0
H1430 H 0.11378 0.3203 0.32221 0.0
H1431 H 0.09218 0.47239 0.5008 0.0
H1432 H 0.12326 0.44069 0.4678 0.0
H1433 H 0.05836 0.39754 0.40917 0.0
H1434 H 0.02775 0.43059 0.43883 0.0
H1435 H 0.09217 0.39739 0.35115 0.0
H1436 H 0.09826 0.37757 0.50941 0.0
H1437 H 0.10545 0.38646 0.59076 0.0
H1438 H 0.18383 0.4128 0.5629 0.0
H1439 H 0.17713 0.40417 0.48139 0.0
C1440 C 0.18935 0.29947 0.35441 0.0
C1441 C 0.20169 0.30487 0.3129 0.0
C1442 C 0.17139 0.31724 0.37349 0.0
C1443 C 0.16531 0.34091 0.35166 0.0
C1444 C 0.17766 0.34641 0.31018 0.0
C1445 C 0.1956 0.32854 0.29093 0.0
C1446 C 0.14649 0.35996 0.3729 0.0
C1447 C 0.15026 0.36755 0.41831 0.0
C1448 C 0.12485 0.3705 0.34896 0.0
C1449 C 0.11771 0.36114 0.30293 0.0
C1450 C 0.11509 0.37905 0.26724 0.0
C1451 C 0.10739 0.37028 0.22426 0.0
C1452 C 0.10201 0.34367 0.21672 0.0
C1453 C 0.10443 0.32575 0.25209 0.0
C1454 C 0.11229 0.33439 0.29503 0.0
C1455 C 0.08471 0.45601 0.48097 0.0
C1456 C 0.05771 0.45384 0.47217 0.0
C1457 C 0.10243 0.43773 0.46236 0.0
C1458 C 0.09335 0.41624 0.43633 0.0
C1459 C 0.06612 0.4139 0.42868 0.0
C1460 C 0.04857 0.43269 0.44584 0.0
C1461 C 0.112 0.39666 0.41573 0.0
C1462 C 0.10838 0.3891 0.3702 0.0
C1463 C 0.13307 0.38525 0.44027 0.0
C1464 C 0.13711 0.39044 0.48927 0.0
C1465 C 0.11698 0.3854 0.52061 0.0
C1466 C 0.12096 0.39037 0.56673 0.0
C1467 C 0.14502 0.40029 0.58193 0.0
C1468 C 0.1652 0.40515 0.55107 0.0
C1469 C 0.16134 0.40017 0.50493 0.0
H1470 H 0.14804 0.40414 0.61764 0.0
H1471 H 0.09598 0.33692 0.18347 0.0
H1472 H 0.98235 0.98968 0.81897 0.0
H1473 H 0.99577 0.98203 0.89796 0.0
H1474 H 0.99279 0.06551 0.92438 0.0
H1475 H 0.97914 0.07308 0.84602 0.0
H1476 H 0.03621 0.04122 0.96491 0.0
H1477 H 0.94196 0.02814 0.95181 0.0
H1478 H 0.9024 0.00693 0.92017 0.0
H1479 H 0.93012 0.93168 0.96506 0.0
H1480 H 0.97007 0.95243 0.99638 0.0
H1481 H 0.02779 0.05457 0.20053 0.0
H1482 H 0.01901 0.05576 0.11928 0.0
H1483 H 0.00807 0.97164 0.11779 0.0
H1484 H 0.01572 0.97067 0.19995 0.0
H1485 H 0.97473 0.99155 0.06229 0.0
H1486 H 0.06695 0.00295 0.07995 0.0
H1487 H 0.1077 0.02229 0.11067 0.0
H1488 H 0.08655 0.09732 0.05569 0.0
H1489 H 0.04547 0.07853 0.02519 0.0
C1490 C 0.98517 0.00637 0.84147 0.0
C1491 C 0.97983 0.03198 0.82637 0.0
C1492 C 0.99261 1.00199 0.88666 0.0
C1493 C 0.99506 0.02319 0.91738 0.0
C1494 C 0.99105 0.04884 0.9015 0.0
C1495 C 0.98328 0.05316 0.85669 0.0
C1496 C 1.00041 0.01888 0.96656 0.0
C1497 C 0.0227 0.03049 0.98627 0.0
C1498 C 0.98326 0.00419 0.99436 0.0
C1499 C 0.95913 0.99179 0.97597 0.0
C1500 C 0.93972 0.00705 0.95462 0.0
C1501 C 0.91721 0.99511 0.93679 0.0
C1502 C 0.91378 0.96796 0.94048 0.0
C1503 C 0.93282 0.9527 0.96214 0.0
C1504 C 0.95539 0.96454 0.97995 0.0
C1505 C 0.02338 0.03634 0.18291 0.0
C1506 C 0.02267 0.0125 0.20661 0.0
C1507 C 0.01854 0.03698 0.13626 0.0
C1508 C 0.01363 0.01368 0.11165 0.0
C1509 C 0.01201 0.98991 0.13561 0.0
C1510 C 0.01636 0.98934 0.18262 0.0
C1511 C 0.0104 0.01431 0.06111 0.0
C1512 C 0.98849 1.00203 0.04106 0.0
C1513 C 0.02817 0.02804 0.0328 0.0
C1514 C 0.05303 0.03936 0.05057 0.0
C1515 C 0.07092 0.02361 0.07461 0.0
C1516 C 0.09408 0.03447 0.09198 0.0
C1517 C 0.09968 0.06103 0.08521 0.0
C1518 C 0.08217 0.07676 0.06093 0.0
C1519 C 0.05896 0.06601 0.04355 0.0
H1520 H 0.11762 0.06941 0.09871 0.0
H1521 H 0.89634 0.95876 0.92666 0.0
H1522 H 0.29706 0.76933 0.44865 0.0
H1523 H 0.30052 0.75926 0.36765 0.0
H1524 H 0.21667 0.76905 0.35343 0.0
H1525 H 0.21292 0.7777 0.4344 0.0
H1526 H 0.23098 0.73 0.3031 0.0
H1527 H 0.26291 0.81803 0.32368 0.0
H1528 H 0.29105 0.85282 0.3561 0.0
H1529 H 0.35971 0.81377 0.30377 0.0
H1530 H 0.33198 0.77853 0.27154 0.0
H1531 H 0.22443 0.74963 0.06508 0.0
H1532 H 0.22343 0.7584 0.14687 0.0
H1533 H 0.30509 0.73624 0.15681 0.0
H1534 H 0.30623 0.72753 0.07511 0.0
H1535 H 0.29315 0.78075 0.20874 0.0
H1536 H 0.25961 0.6933 0.18604 0.0
H1537 H 0.23033 0.65989 0.15236 0.0
H1538 H 0.16307 0.69992 0.20787 0.0
H1539 H 0.19195 0.73382 0.24131 0.0
C1540 C 0.2793 0.76891 0.42847 0.0
C1541 C 0.25475 0.77471 0.44827 0.0
C1542 C 0.28134 0.76347 0.38189 0.0
C1543 C 0.25893 0.76395 0.35387 0.0
C1544 C 0.23433 0.76874 0.37393 0.0
C1545 C 0.23226 0.77397 0.42039 0.0
C1546 C 0.26092 0.7599 0.30367 0.0
C1547 C 0.2444 0.74136 0.28256 0.0
C1548 C 0.27869 0.77431 0.27646 0.0
C1549 C 0.29539 0.7955 0.29563 0.0
C1550 C 0.28402 0.81676 0.31937 0.0
C1551 C 0.2999 0.83657 0.33767 0.0
C1552 C 0.32716 0.83546 0.33211 0.0
C1553 C 0.3386 0.81457 0.30812 0.0
C1554 C 0.32281 0.79468 0.28981 0.0
C1555 C 0.24226 0.74697 0.08459 0.0
C1556 C 0.26536 0.73771 0.06358 0.0
C1557 C 0.24162 0.75182 0.13141 0.0
C1558 C 0.26411 0.74769 0.15821 0.0
C1559 C 0.28747 0.73947 0.137 0.0
C1560 C 0.28804 0.73436 0.0903 0.0
C1561 C 0.26307 0.75109 0.20846 0.0
C1562 C 0.27978 0.76943 0.22946 0.0
C1563 C 0.2453 0.73671 0.23554 0.0
C1564 C 0.22792 0.71623 0.2158 0.0
C1565 C 0.23856 0.69509 0.19077 0.0
C1566 C 0.22204 0.67605 0.17177 0.0
C1567 C 0.19485 0.67782 0.17787 0.0
C1568 C 0.18413 0.69859 0.20311 0.0
C1569 C 0.20057 0.71772 0.22212 0.0
H1570 H 0.18209 0.66305 0.16314 0.0
H1571 H 0.33942 0.85082 0.3463 0.0
H1572 H 0.50899 0.03059 0.70233 0.0
H1573 H 0.52029 0.02708 0.62204 0.0
H1574 H 0.45456 0.97518 0.60019 0.0
H1575 H 0.44403 0.97742 0.68 0.0
H1576 H 0.4935 0.9573 0.55399 0.0
H1577 H 0.45431 0.04287 0.57061 0.0
H1578 H 0.44926 0.08751 0.60277 0.0
H1579 H 0.52711 0.10719 0.55854 0.0
H1580 H 0.53276 0.06252 0.52663 0.0
H1581 H 0.49056 0.96296 0.3132 0.0
H1582 H 0.47696 0.97033 0.39227 0.0
H1583 H 0.54767 0.01479 0.41688 0.0
H1584 H 0.56116 0.00757 0.33827 0.0
H1585 H 0.50587 0.03699 0.46086 0.0
H1586 H 0.54463 0.95086 0.44503 0.0
H1587 H 0.54907 0.90626 0.41245 0.0
H1588 H 0.4706 0.88784 0.45509 0.0
H1589 H 0.46556 0.9325 0.48733 0.0
C1590 C 0.49712 0.01807 0.68076 0.0
C1591 C 0.47541 0.00438 0.69851 0.0
C1592 C 0.50343 0.01638 0.63444 0.0
C1593 C 0.48805 1.00119 0.60444 0.0
C1594 C 0.46676 0.98715 0.6222 0.0
C1595 C 0.46058 0.9887 0.6683 0.0
C1596 C 0.4939 0.99968 0.55466 0.0
C1597 C 0.49582 0.9748 0.53367 0.0
C1598 C 0.49745 0.02237 0.52774 0.0
C1599 C 0.49405 0.04927 0.54664 0.0
C1600 C 0.47042 0.05666 0.56802 0.0
C1601 C 0.46744 0.08197 0.58617 0.0
C1602 C 0.48788 0.10015 0.58281 0.0
C1603 C 0.51131 0.09307 0.56118 0.0
C1604 C 0.51441 0.06777 0.54303 0.0
C1605 C 0.50286 0.97479 0.33526 0.0
C1606 C 0.527 0.98456 0.31954 0.0
C1607 C 0.49522 0.97882 0.38057 0.0
C1608 C 0.51148 0.99281 0.41094 0.0
C1609 C 0.5348 0.00387 0.3944 0.0
C1610 C 0.54252 0.99967 0.34941 0.0
C1611 C 0.50521 0.99467 0.46041 0.0
C1612 C 0.50336 0.01955 0.48129 0.0
C1613 C 0.50156 0.97201 0.48723 0.0
C1614 C 0.50462 0.94511 0.46814 0.0
C1615 C 0.52825 0.93737 0.44714 0.0
C1616 C 0.53089 0.91207 0.42878 0.0
C1617 C 0.51011 0.89425 0.43158 0.0
C1618 C 0.48667 0.90168 0.45287 0.0
C1619 C 0.48391 0.92698 0.4712 0.0
H1620 H 0.51218 0.87467 0.41736 0.0
H1621 H 0.48554 0.11974 0.59689 0.0
H1622 H 0.22167 0.27265 0.95844 0.0
H1623 H 0.21604 0.265 0.87699 0.0
H1624 H 0.29932 0.25062 0.86363 0.0
H1625 H 0.30505 0.25852 0.94469 0.0
H1626 H 0.28378 0.28147 0.79838 0.0
H1627 H 0.25183 0.20015 0.86 0.0
H1628 H 0.22383 0.17244 0.90814 0.0
H1629 H 0.15475 0.20301 0.84333 0.0
H1630 H 0.18233 0.23115 0.79518 0.0
H1631 H 0.28381 0.22736 0.57504 0.0
H1632 H 0.28844 0.23569 0.65642 0.0
H1633 H 0.20446 0.24624 0.6676 0.0
H1634 H 0.19976 0.23711 0.58659 0.0
H1635 H 0.21973 0.21802 0.73414 0.0
H1636 H 0.2511 0.29907 0.67219 0.0
H1637 H 0.27866 0.32731 0.62423 0.0
H1638 H 0.34815 0.29818 0.68969 0.0
H1639 H 0.32102 0.26953 0.73766 0.0
C1640 C 0.23873 0.26758 0.93821 0.0
C1641 C 0.26382 0.2663 0.95819 0.0
C1642 C 0.2355 0.26319 0.89156 0.0
C1643 C 0.25723 0.25701 0.86391 0.0
C1644 C 0.28223 0.25548 0.88396 0.0
C1645 C 0.28549 0.26004 0.93043 0.0
C1646 C 0.25419 0.25274 0.81399 0.0
C1647 C 0.26999 0.26733 0.78439 0.0
C1648 C 0.23572 0.23486 0.79538 0.0
C1649 C 0.21913 0.21795 0.82432 0.0
C1650 C 0.23066 0.20111 0.85626 0.0
C1651 C 0.21487 0.1853 0.8835 0.0
C1652 C 0.18753 0.18602 0.87888 0.0
C1653 C 0.17593 0.2025 0.84692 0.0
C1654 C 0.19163 0.21837 0.81963 0.0
C1655 C 0.26638 0.23171 0.59482 0.0
C1656 C 0.24142 0.23155 0.57431 0.0
C1657 C 0.26903 0.23656 0.64142 0.0
C1658 C 0.24683 0.24196 0.66847 0.0
C1659 C 0.22193 0.24207 0.6478 0.0
C1660 C 0.21925 0.23686 0.60139 0.0
C1661 C 0.24937 0.24671 0.71841 0.0
C1662 C 0.23349 0.23221 0.74805 0.0
C1663 C 0.26769 0.26477 0.73707 0.0
C1664 C 0.28404 0.28197 0.70821 0.0
C1665 C 0.27227 0.29855 0.67611 0.0
C1666 C 0.28781 0.31465 0.64897 0.0
C1667 C 0.31514 0.31449 0.65383 0.0
C1668 C 0.32698 0.29827 0.68592 0.0
C1669 C 0.31153 0.28211 0.71312 0.0
H1670 H 0.32714 0.32698 0.63279 0.0
H1671 H 0.17534 0.17376 0.89999 0.0
H1672 H 0.78364 0.22058 0.95902 0.0
H1673 H 0.7731 0.21294 0.87859 0.0
H1674 H 0.77965 0.29606 0.85369 0.0
H1675 H 0.79093 0.3036 0.93364 0.0
H1676 H 0.73388 0.26769 0.8098 0.0
H1677 H 0.82899 0.26448 0.82801 0.0
H1678 H 0.86956 0.24773 0.86342 0.0
H1679 H 0.85007 0.16919 0.82102 0.0
H1680 H 0.80913 0.18544 0.78603 0.0
H1681 H 0.73784 0.26371 0.57016 0.0
H1682 H 0.74568 0.27363 0.64951 0.0
H1683 H 0.77532 0.19498 0.66921 0.0
H1684 H 0.77113 0.18612 0.58909 0.0
H1685 H 0.802 0.22196 0.71813 0.0
H1686 H 0.70806 0.22123 0.70134 0.0
H1687 H 0.66512 0.23426 0.66961 0.0
H1688 H 0.67825 0.3141 0.71216 0.0
H1689 H 0.72141 0.3016 0.74368 0.0
C1690 C 0.78241 0.2372 0.93643 0.0
C1691 C 0.78806 0.26266 0.95241 0.0
C1692 C 0.77646 0.23284 0.89056 0.0
C1693 C 0.77562 0.25394 0.8601 0.0
C1694 C 0.78009 0.27952 0.87655 0.0
C1695 C 0.78658 0.2838 0.92213 0.0
C1696 C 0.77192 0.2492 0.81063 0.0
C1697 C 0.7488 0.25787 0.78951 0.0
C1698 C 0.79107 0.23581 0.78445 0.0
C1699 C 0.81588 0.22614 0.80483 0.0
C1700 C 0.83325 0.24361 0.82658 0.0
C1701 C 0.85633 0.23421 0.84652 0.0
C1702 C 0.86236 0.2074 0.84458 0.0
C1703 C 0.84536 0.18994 0.82256 0.0
C1704 C 0.82222 0.19924 0.80265 0.0
C1705 C 0.74663 0.24858 0.59078 0.0
C1706 C 0.75342 0.22383 0.57213 0.0
C1707 C 0.75054 0.25416 0.63695 0.0
C1708 C 0.76031 0.23485 0.66648 0.0
C1709 C 0.76751 0.21034 0.64784 0.0
C1710 C 0.76456 0.20508 0.60152 0.0
C1711 C 0.76352 0.24003 0.71643 0.0
C1712 C 0.78676 0.23159 0.73792 0.0
C1713 C 0.74406 0.253 0.74313 0.0
C1714 C 0.71807 0.26052 0.72446 0.0
C1715 C 0.70184 0.24159 0.7037 0.0
C1716 C 0.67747 0.24888 0.68578 0.0
C1717 C 0.669 0.275 0.68876 0.0
C1718 C 0.68485 0.29388 0.70981 0.0
C1719 C 0.70926 0.2867 0.72775 0.0
H1720 H 0.65013 0.2806 0.67485 0.0
H1721 H 0.88024 0.20015 0.86004 0.0
H1722 H 0.7823 0.81233 0.4374 0.0
H1723 H 0.78584 0.80226 0.35685 0.0
H1724 H 0.7396 0.73234 0.37483 0.0
H1725 H 0.73441 0.74301 0.45534 0.0
H1726 H 0.78951 0.72779 0.3179 0.0
H1727 H 0.70809 0.7743 0.33057 0.0
H1728 H 0.67866 0.81 0.35628 0.0
H1729 H 0.72575 0.86639 0.28583 0.0
H1730 H 0.75575 0.83103 0.26032 0.0
H1731 H 0.77239 0.70984 0.07727 0.0
H1732 H 0.76102 0.71413 0.15807 0.0
H1733 H 0.79699 0.79079 0.16217 0.0
H1734 H 0.80887 0.78624 0.08198 0.0
H1735 H 0.74787 0.78853 0.20825 0.0
H1736 H 0.83059 0.74253 0.1999 0.0
H1737 H 0.86069 0.70717 0.17509 0.0
H1738 H 0.81127 0.64973 0.23792 0.0
H1739 H 0.7806 0.68476 0.26245 0.0
C1740 C 0.77249 0.79496 0.4245 0.0
C1741 C 0.7577 0.77876 0.45341 0.0
C1742 C 0.7748 0.78911 0.3783 0.0
C1743 C 0.76287 0.76665 0.35976 0.0
C1744 C 0.74902 0.74977 0.38848 0.0
C1745 C 0.74624 0.75587 0.4347 0.0
C1746 C 0.76436 0.76155 0.31011 0.0
C1747 C 0.77997 0.74071 0.29388 0.0
C1748 C 0.7523 0.77869 0.27878 0.0
C1749 C 0.73434 0.80005 0.29396 0.0
C1750 C 0.71234 0.79435 0.32096 0.0
C1751 C 0.69552 0.81451 0.33542 0.0
C1752 C 0.70038 0.84046 0.32281 0.0
C1753 C 0.72204 0.84628 0.29563 0.0
C1754 C 0.73895 0.82618 0.28114 0.0
C1755 C 0.77751 0.72771 0.09542 0.0
C1756 C 0.79145 0.74774 0.07353 0.0
C1757 C 0.77114 0.7301 0.14153 0.0
C1758 C 0.77826 0.75275 0.16627 0.0
C1759 C 0.79127 0.77317 0.14384 0.0
C1760 C 0.79807 0.77056 0.0981 0.0
C1761 C 0.77323 0.75489 0.2159 0.0
C1762 C 0.75706 0.7753 0.23217 0.0
C1763 C 0.78476 0.73731 0.24722 0.0
C1764 C 0.80311 0.71622 0.23243 0.0
C1765 C 0.82598 0.72233 0.20798 0.0
C1766 C 0.84317 0.70235 0.19406 0.0
C1767 C 0.83784 0.6762 0.20477 0.0
C1768 C 0.81533 0.66999 0.22953 0.0
C1769 C 0.79803 0.68989 0.24345 0.0
H1770 H 0.8512 0.66077 0.19401 0.0
H1771 H 0.68732 0.85605 0.33401 0.0
H1772 H 0.53264 0.48036 0.69964 0.0
H1773 H 0.53494 0.49261 0.61974 0.0
H1774 H 0.45229 0.47562 0.60453 0.0
H1775 H 0.45027 0.46246 0.68394 0.0
H1776 H 0.47662 0.45455 0.53767 0.0
H1777 H 0.47905 0.54062 0.60459 0.0
H1778 H 0.49478 0.57602 0.65525 0.0
H1779 H 0.57113 0.57195 0.5936 0.0
H1780 H 0.55596 0.53629 0.54293 0.0
H1781 H 0.46622 0.51258 0.31663 0.0
H1782 H 0.46161 0.4997 0.3961 0.0
H1783 H 0.54491 0.51083 0.41604 0.0
H1784 H 0.54942 0.52408 0.33712 0.0
H1785 H 0.51856 0.53552 0.48016 0.0
H1786 H 0.51511 0.44853 0.41348 0.0
H1787 H 0.49801 0.41422 0.36192 0.0
H1788 H 0.4216 0.42146 0.42258 0.0
H1789 H 0.43819 0.45606 0.47419 0.0
C1790 C 0.51489 0.47975 0.67939 0.0
C1791 C 0.49128 0.4705 0.69799 0.0
C1792 C 0.51618 0.48676 0.63366 0.0
C1793 C 0.49373 0.48525 0.60583 0.0
C1794 C 0.46993 0.47685 0.62498 0.0
C1795 C 0.46875 0.46946 0.67044 0.0
C1796 C 0.49528 0.4911 0.55639 0.0
C1797 C 0.48545 0.47248 0.52521 0.0
C1798 C 0.50722 0.51421 0.5397 0.0
C1799 C 0.51642 0.5356 0.57025 0.0
C1800 C 0.49925 0.54713 0.60208 0.0
C1801 C 0.50806 0.56727 0.63075 0.0
C1802 C 0.53395 0.57618 0.62773 0.0
C1803 C 0.55109 0.56501 0.59594 0.0
C1804 C 0.54239 0.54485 0.56721 0.0
C1805 C 0.4836 0.51168 0.33778 0.0
C1806 C 0.50816 0.51942 0.32073 0.0
C1807 C 0.48097 0.50437 0.38325 0.0
C1808 C 0.50293 0.50429 0.41227 0.0
C1809 C 0.52763 0.51092 0.39457 0.0
C1810 C 0.53021 0.5184 0.3494 0.0
C1811 C 0.50015 0.49888 0.46161 0.0
C1812 C 0.5097 0.51762 0.49272 0.0
C1813 C 0.48776 0.47601 0.47819 0.0
C1814 C 0.47784 0.45507 0.44741 0.0
C1815 C 0.49462 0.44294 0.41562 0.0
C1816 C 0.48503 0.42341 0.38643 0.0
C1817 C 0.45872 0.41572 0.3889 0.0
C1818 C 0.44197 0.42747 0.42068 0.0
C1819 C 0.45146 0.44701 0.44995 0.0
H1820 H 0.45132 0.40062 0.36624 0.0
H1821 H 0.54073 0.59179 0.64994 0.0
H1822 H 0.00654 0.55508 0.83343 0.0
H1823 H 1.0002 0.55002 0.91478 0.0
H1824 H 0.01762 0.4672 0.90255 0.0
H1825 H 0.02385 0.47215 0.82071 0.0
H1826 H 0.97725 0.47536 0.95947 0.0
H1827 H 0.06378 0.51125 0.94209 0.0
H1828 H 0.09656 0.54289 0.91434 0.0
H1829 H 0.05725 0.60548 0.98584 0.0
H1830 H 0.024 0.57426 0.01351 0.0
H1831 H 1.00114 0.45065 0.19064 0.0
H1832 H 0.00675 0.45638 0.10931 0.0
H1833 H 0.98785 0.53876 0.12351 0.0
H1834 H 0.98215 0.53314 0.20534 0.0
H1835 H 0.02861 0.53124 0.06573 0.0
H1836 H 0.94229 0.49526 0.0836 0.0
H1837 H 0.90957 0.46359 0.11141 0.0
H1838 H 0.94855 0.40114 0.03902 0.0
H1839 H 0.98175 0.4324 1.01128 0.0
C1840 C 0.00914 0.53578 0.84802 0.0
C1841 C 0.01605 0.51407 0.82059 0.0
C1842 C 0.0055 0.53292 0.89462 0.0
C1843 C 0.00894 0.50833 0.91509 0.0
C1844 C 0.01497 0.48641 0.88762 0.0
C1845 C 0.01848 0.48924 0.84082 0.0
C1846 C 0.00658 0.50565 0.96517 0.0
C1847 C 0.98875 0.48733 0.98266 0.0
C1848 C 0.0211 0.5217 0.99563 0.0
C1849 C 0.04127 0.54045 0.97954 0.0
C1850 C 0.06203 0.53179 0.95167 0.0
C1851 C 0.0807 0.54964 0.93598 0.0
C1852 C 0.07895 0.57619 0.94823 0.0
C1853 C 0.05857 0.58492 0.97633 0.0
C1854 C 0.03982 0.56715 0.99207 0.0
C1855 C 0.99799 0.46999 0.17652 0.0
C1856 C 0.99082 0.49137 0.20453 0.0
C1857 C 1.00126 0.47324 0.12993 0.0
C1858 C 0.99725 0.4979 0.11003 0.0
C1859 C 0.99094 0.51951 0.13802 0.0
C1860 C 0.98774 0.51628 0.18482 0.0
C1861 C 0.99934 0.50091 0.05999 0.0
C1862 C 0.0171 0.51929 0.04252 0.0
C1863 C 0.98476 0.48492 0.02955 0.0
C1864 C 0.96463 0.46614 0.04568 0.0
C1865 C 0.94398 0.47475 0.07384 0.0
C1866 C 0.92534 0.45687 0.08957 0.0
C1867 C 0.92701 0.43036 0.07707 0.0
C1868 C 0.94729 0.42168 0.0487 0.0
C1869 C 0.96602 0.43947 0.03293 0.0
H1870 H 0.91257 0.41655 0.0893 0.0
H1871 H 0.09342 0.58999 0.93603 0.0
loop_
_geom_bond_atom_site_label_1
_geom_bond_atom_site_label_2
_geom_bond_distance
_geom_bond_site_symmetry_2
_ccdc_geom_bond_type
Tb0 N29 2.619 . S
Tb0 N35 2.551 1_655 S
Tb0 O44 2.461 1_655 S
Tb0 O45 2.373 1_655 S
Tb0 O47 2.441 . S
Tb0 O48 2.292 1_645 S
Tb0 O52 2.365 1_545 S
Tb0 O55 2.412 . S
Tb0 C64 2.807 . S
C1 N2 1.379 1_655 S
C1 C4 1.416 . S
C1 C8 1.424 . S
N2 C1 1.379 1_455 S
N2 C5 1.334 . S
N2 Tb11 2.619 . S
C3 C5 1.390 . S
C3 C6 1.339 . S
C3 H23 0.930 . S
C4 C1 1.416 . S
C4 C6 1.416 1_655 S
C4 C10 1.448 . S
C5 N2 1.334 . S
C5 C3 1.390 . S
C5 H16 0.930 . S
C6 C3 1.339 . S
C6 C4 1.416 1_455 S
C6 H27 0.930 . S
C7 C8 1.413 . S
C7 C9 1.427 . S
C7 C13 1.416 . S
C8 C1 1.424 . S
C8 C7 1.413 . S
C8 N12 1.361 . S
C9 C7 1.427 . S
C9 C10 1.328 . S
C9 H24 0.929 . S
C10 C4 1.448 . S
C10 C9 1.328 . S
C10 H25 0.930 . S
Tb11 N2 2.619 . S
Tb11 N12 2.542 1_455 S
Tb11 O46 2.371 1_565 S
Tb11 O49 2.420 . S
Tb11 O50 2.460 1_455 S
Tb11 O51 2.368 1_455 S
Tb11 O53 2.446 . S
Tb11 O54 2.285 1_465 S
Tb11 C75 2.810 . S
N12 C8 1.361 . S
N12 Tb11 2.542 1_655 S
N12 C14 1.340 . S
C13 C7 1.416 . S
C13 C15 1.332 . S
C13 H21 0.931 . S
C14 N12 1.340 . S
C14 C15 1.407 . S
C14 H20 0.930 . S
C15 C13 1.332 . S
C15 C14 1.407 . S
C15 H17 0.929 . S
H16 C5 0.930 . S
H17 C15 0.929 . S
H18 C33 0.930 . S
H19 C40 0.929 . S
H20 C14 0.930 . S
H21 C13 0.931 . S
H22 C36 0.930 . S
H23 C3 0.930 . S
H24 C9 0.929 . S
H25 C10 0.930 . S
H26 C31 0.930 . S
H27 C6 0.930 . S
H28 C39 0.931 . S
N29 Tb0 2.619 . S
N29 C30 1.379 1_655 S
N29 C33 1.334 . S
C30 N29 1.379 1_455 S
C30 C32 1.416 . S
C30 C38 1.424 . S
C31 H26 0.930 . S
C31 C33 1.390 . S
C31 C34 1.339 . S
C32 C30 1.416 . S
C32 C34 1.416 1_455 S
C32 C65 1.448 . S
C33 H18 0.930 . S
C33 N29 1.334 . S
C33 C31 1.390 . S
C34 C31 1.339 . S
C34 C32 1.416 1_655 S
C34 H41 0.930 . S
N35 Tb0 2.551 1_455 S
N35 C36 1.340 . S
N35 C38 1.361 . S
C36 H22 0.930 . S
C36 N35 1.340 . S
C36 C40 1.407 . S
C37 C38 1.413 . S
C37 C39 1.416 . S
C37 C66 1.427 . S
C38 C30 1.424 . S
C38 N35 1.361 . S
C38 C37 1.413 . S
C39 H28 0.931 . S
C39 C37 1.416 . S
C39 C40 1.332 . S
C40 H19 0.929 . S
C40 C36 1.407 . S
C40 C39 1.332 . S
H41 C34 0.930 . S
H42 C65 0.930 . S
H43 C66 0.929 . S
O44 Tb0 2.461 1_455 S
O44 C64 1.264 1_455 S
O45 Tb0 2.373 1_455 S
O45 C56 1.264 . S
O46 Tb11 2.371 1_545 S
O46 C56 1.243 . S
O47 Tb0 2.441 . S
O47 C64 1.256 . S
O48 Tb0 2.292 1_465 S
O48 C63 1.266 . S
O49 Tb11 2.420 . S
O49 C63 1.248 . S
O50 Tb11 2.460 1_655 S
O50 C75 1.264 1_655 S
O51 Tb11 2.368 1_655 S
O51 C67 1.264 . S
O52 Tb0 2.365 1_565 S
O52 C67 1.243 . S
O53 Tb11 2.446 . S
O53 C75 1.256 . S
O54 Tb11 2.285 1_645 S
O54 C74 1.266 . S
O55 Tb0 2.412 . S
O55 C74 1.248 . S
C56 O45 1.264 . S
C56 O46 1.243 . S
C57 C60 1.399 . S
C57 C62 1.393 . S
C57 C64 1.496 . S
C58 C59 1.392 1_565 S
C58 C62 1.389 1_565 S
C59 C58 1.392 1_545 S
C59 C61 1.380 . S
C59 H76 0.929 . S
C60 C57 1.399 . S
C60 C61 1.392 . S
C60 H77 0.929 . S
C61 C59 1.380 . S
C61 C60 1.392 . S
C61 H78 0.929 . S
C62 C57 1.393 . S
C62 C58 1.389 1_545 S
C62 H79 0.921 1_645 S
C63 O48 1.266 . S
C63 O49 1.248 . S
C64 Tb0 2.807 . S
C64 O44 1.264 1_655 S
C64 O47 1.256 . S
C64 C57 1.496 . S
C65 C32 1.448 . S
C65 H42 0.930 . S
C65 C66 1.328 . S
C66 C37 1.427 . S
C66 H43 0.929 . S
C66 C65 1.328 . S
C67 O51 1.264 . S
C67 O52 1.243 . S
C68 C71 1.399 . S
C68 C72 1.387 . S
C68 C75 1.496 . S
C69 C70 1.386 1_545 S
C69 C72 1.389 1_545 S
C70 C69 1.386 1_565 S
C70 C73 1.380 . S
C70 H80 0.929 . S
C71 C68 1.399 . S
C71 C73 1.392 . S
C71 H81 0.929 . S
C72 C68 1.387 . S
C72 C69 1.389 1_565 S
C72 H82 0.927 1_465 S
C73 C70 1.380 . S
C73 C71 1.392 . S
C73 H83 0.929 . S
C74 O54 1.266 . S
C74 O55 1.248 . S
C75 Tb11 2.810 . S
C75 O50 1.264 1_455 S
C75 O53 1.256 . S
C75 C68 1.496 . S
H76 C59 0.929 . S
H77 C60 0.929 . S
H78 C61 0.929 . S
H79 C62 0.921 1_465 S
H80 C70 0.929 . S
H81 C71 0.929 . S
H82 C72 0.927 1_645 S
H83 C73 0.929 . S
Tb84 N113 2.617 . S
Tb84 N119 2.572 . S
Tb84 O128 2.465 . S
Tb84 O129 2.387 . S
Tb84 O131 2.428 . S
Tb84 O132 2.308 . S
Tb84 O136 2.349 . S
Tb84 O139 2.393 . S
Tb84 C148 2.802 . S
C85 N86 1.379 . S
C85 C88 1.416 . S
C85 C92 1.424 . S
N86 C85 1.379 . S
N86 C89 1.334 . S
N86 Tb95 2.617 . S
C87 C89 1.390 . S
C87 C90 1.339 . S
C87 H107 0.930 . S
C88 C85 1.416 . S
C88 C90 1.416 . S
C88 C94 1.448 . S
C89 N86 1.334 . S
C89 C87 1.390 . S
C89 H100 0.930 . S
C90 C87 1.339 . S
C90 C88 1.416 . S
C90 H111 0.930 . S
C91 C92 1.413 . S
C91 C93 1.427 . S
C91 C97 1.416 . S
C92 C85 1.424 . S
C92 C91 1.413 . S
C92 N96 1.361 . S
C93 C91 1.427 . S
C93 C94 1.328 . S
C93 H108 0.929 . S
C94 C88 1.448 . S
C94 C93 1.328 . S
C94 H109 0.930 . S
Tb95 N86 2.617 . S
Tb95 N96 2.572 . S
Tb95 O130 2.349 . S
Tb95 O133 2.393 . S
Tb95 O134 2.465 . S
Tb95 O135 2.387 . S
Tb95 O137 2.428 . S
Tb95 O138 2.308 . S
Tb95 C159 2.802 . S
N96 C92 1.361 . S
N96 Tb95 2.572 . S
N96 C98 1.340 . S
C97 C91 1.416 . S
C97 C99 1.332 . S
C97 H105 0.931 . S
C98 N96 1.340 . S
C98 C99 1.407 . S
C98 H104 0.930 . S
C99 C97 1.332 . S
C99 C98 1.407 . S
C99 H101 0.929 . S
H100 C89 0.930 . S
H101 C99 0.929 . S
H102 C117 0.930 . S
H103 C124 0.929 . S
H104 C98 0.930 . S
H105 C97 0.931 . S
H106 C120 0.930 . S
H107 C87 0.930 . S
H108 C93 0.929 . S
H109 C94 0.930 . S
H110 C115 0.930 . S
H111 C90 0.930 . S
H112 C123 0.931 . S
N113 Tb84 2.617 . S
N113 C114 1.379 . S
N113 C117 1.334 . S
C114 N113 1.379 . S
C114 C116 1.416 . S
C114 C122 1.424 . S
C115 H110 0.930 . S
C115 C117 1.390 . S
C115 C118 1.339 . S
C116 C114 1.416 . S
C116 C118 1.416 . S
C116 C149 1.448 . S
C117 H102 0.930 . S
C117 N113 1.334 . S
C117 C115 1.390 . S
C118 C115 1.339 . S
C118 C116 1.416 . S
C118 H125 0.930 . S
N119 Tb84 2.572 . S
N119 C120 1.340 . S
N119 C122 1.361 . S
C120 H106 0.930 . S
C120 N119 1.340 . S
C120 C124 1.407 . S
C121 C122 1.413 . S
C121 C123 1.416 . S
C121 C150 1.427 . S
C122 C114 1.424 . S
C122 N119 1.361 . S
C122 C121 1.413 . S
C123 H112 0.931 . S
C123 C121 1.416 . S
C123 C124 1.332 . S
C124 H103 0.929 . S
C124 C120 1.407 . S
C124 C123 1.332 . S
H125 C118 0.930 . S
H126 C149 0.930 . S
H127 C150 0.929 . S
O128 Tb84 2.465 . S
O128 C148 1.264 . S
O129 Tb84 2.387 . S
O129 C140 1.264 . S
O130 Tb95 2.349 . S
O130 C140 1.243 . S
O131 Tb84 2.428 . S
O131 C148 1.256 . S
O132 Tb84 2.308 . S
O132 C147 1.266 . S
O133 Tb95 2.393 . S
O133 C147 1.248 . S
O134 Tb95 2.465 . S
O134 C159 1.264 . S
O135 Tb95 2.387 . S
O135 C151 1.264 . S
O136 Tb84 2.349 . S
O136 C151 1.243 . S
O137 Tb95 2.428 . S
O137 C159 1.256 . S
O138 Tb95 2.308 . S
O138 C158 1.266 . S
O139 Tb84 2.393 . S
O139 C158 1.248 . S
C140 O129 1.264 . S
C140 O130 1.243 . S
C141 C144 1.399 . S
C141 C146 1.383 . S
C141 C148 1.496 . S
C142 C143 1.399 . S
C142 C146 1.389 1_554 S
C143 C142 1.399 . S
C143 C145 1.380 . S
C143 H160 0.929 . S
C144 C141 1.399 . S
C144 C145 1.392 1_556 S
C144 H161 0.929 . S
C145 C143 1.380 . S
C145 C144 1.392 1_554 S
C145 H162 0.929 . S
C146 C141 1.383 . S
C146 C142 1.389 1_556 S
C146 H163 0.931 . S
C147 O132 1.266 . S
C147 O133 1.248 . S
C148 Tb84 2.802 . S
C148 O128 1.264 . S
C148 O131 1.256 . S
C148 C141 1.496 . S
C149 C116 1.448 . S
C149 H126 0.930 . S
C149 C150 1.328 . S
C150 C121 1.427 . S
C150 H127 0.929 . S
C150 C149 1.328 . S
C151 O135 1.264 . S
C151 O136 1.243 . S
C152 C155 1.399 . S
C152 C156 1.383 . S
C152 C159 1.496 . S
C153 C154 1.399 . S
C153 C156 1.389 . S
C154 C153 1.399 . S
C154 C157 1.380 . S
C154 H164 0.929 . S
C155 C152 1.399 . S
C155 C157 1.392 . S
C155 H165 0.929 . S
C156 C152 1.383 . S
C156 C153 1.389 . S
C156 H166 0.931 . S
C157 C154 1.380 . S
C157 C155 1.392 . S
C157 H167 0.929 . S
C158 O138 1.266 . S
C158 O139 1.248 . S
C159 Tb95 2.802 . S
C159 O134 1.264 . S
C159 O137 1.256 . S
C159 C152 1.496 . S
H160 C143 0.929 . S
H161 C144 0.929 . S
H162 C145 0.929 . S
H163 C146 0.931 . S
H164 C154 0.929 . S
H165 C155 0.929 . S
H166 C156 0.931 . S
H167 C157 0.929 . S
Tb168 N197 2.617 . S
Tb168 N203 2.572 . S
Tb168 O212 2.465 . S
Tb168 O213 2.387 1_554 S
Tb168 O215 2.428 . S
Tb168 O216 2.308 1_565 S
Tb168 O220 2.349 1_565 S
Tb168 O223 2.393 . S
Tb168 C232 2.802 . S
C169 N170 1.379 . S
C169 C172 1.416 . S
C169 C176 1.424 . S
N170 C169 1.379 . S
N170 C173 1.334 . S
N170 Tb179 2.617 . S
C171 C173 1.390 . S
C171 C174 1.339 . S
C171 H191 0.930 . S
C172 C169 1.416 . S
C172 C174 1.416 . S
C172 C178 1.448 . S
C173 N170 1.334 . S
C173 C171 1.390 . S
C173 H184 0.930 . S
C174 C171 1.339 . S
C174 C172 1.416 . S
C174 H195 0.930 . S
C175 C176 1.413 . S
C175 C177 1.427 . S
C175 C181 1.416 . S
C176 C169 1.424 . S
C176 C175 1.413 . S
C176 N180 1.361 . S
C177 C175 1.427 . S
C177 C178 1.328 . S
C177 H192 0.929 . S
C178 C172 1.448 . S
C178 C177 1.328 . S
C178 H193 0.930 . S
Tb179 N170 2.617 . S
Tb179 N180 2.572 . S
Tb179 O214 2.349 1_545 S
Tb179 O217 2.393 . S
Tb179 O218 2.465 . S
Tb179 O219 2.387 1_556 S
Tb179 O221 2.428 . S
Tb179 O222 2.308 1_545 S
Tb179 C243 2.802 . S
N180 C176 1.361 . S
N180 Tb179 2.572 . S
N180 C182 1.340 . S
C181 C175 1.416 . S
C181 C183 1.332 . S
C181 H189 0.931 . S
C182 N180 1.340 . S
C182 C183 1.407 . S
C182 H188 0.930 . S
C183 C181 1.332 . S
C183 C182 1.407 . S
C183 H185 0.929 . S
H184 C173 0.930 . S
H185 C183 0.929 . S
H186 C201 0.930 . S
H187 C208 0.929 . S
H188 C182 0.930 . S
H189 C181 0.931 . S
H190 C204 0.930 . S
H191 C171 0.930 . S
H192 C177 0.929 . S
H193 C178 0.930 . S
H194 C199 0.930 . S
H195 C174 0.930 . S
H196 C207 0.931 . S
N197 Tb168 2.617 . S
N197 C198 1.379 . S
N197 C201 1.334 . S
C198 N197 1.379 . S
C198 C200 1.416 . S
C198 C206 1.424 . S
C199 H194 0.930 . S
C199 C201 1.390 . S
C199 C202 1.339 . S
C200 C198 1.416 . S
C200 C202 1.416 . S
C200 C233 1.448 . S
C201 H186 0.930 . S
C201 N197 1.334 . S
C201 C199 1.390 . S
C202 C199 1.339 . S
C202 C200 1.416 . S
C202 H209 0.930 . S
N203 Tb168 2.572 . S
N203 C204 1.340 . S
N203 C206 1.361 . S
C204 H190 0.930 . S
C204 N203 1.340 . S
C204 C208 1.407 . S
C205 C206 1.413 . S
C205 C207 1.416 . S
C205 C234 1.427 . S
C206 C198 1.424 . S
C206 N203 1.361 . S
C206 C205 1.413 . S
C207 H196 0.931 . S
C207 C205 1.416 . S
C207 C208 1.332 . S
C208 H187 0.929 . S
C208 C204 1.407 . S
C208 C207 1.332 . S
H209 C202 0.930 . S
H210 C233 0.930 . S
H211 C234 0.929 . S
O212 Tb168 2.465 . S
O212 C232 1.264 . S
O213 Tb168 2.387 1_556 S
O213 C224 1.264 . S
O214 Tb179 2.349 1_565 S
O214 C224 1.243 . S
O215 Tb168 2.428 . S
O215 C232 1.256 . S
O216 Tb168 2.308 1_545 S
O216 C231 1.266 . S
O217 Tb179 2.393 . S
O217 C231 1.248 1_556 S
O218 Tb179 2.465 . S
O218 C243 1.264 . S
O219 Tb179 2.387 1_554 S
O219 C235 1.264 . S
O220 Tb168 2.349 1_545 S
O220 C235 1.243 . S
O221 Tb179 2.428 . S
O221 C243 1.256 . S
O222 Tb179 2.308 1_565 S
O222 C242 1.266 . S
O223 Tb168 2.393 . S
O223 C242 1.248 1_554 S
C224 O213 1.264 . S
C224 O214 1.243 . S
C225 C228 1.399 . S
C225 C230 1.358 1_565 S
C225 C232 1.496 . S
C226 C227 1.399 1_545 S
C226 C230 1.391 . S
C227 C226 1.399 1_565 S
C227 C229 1.380 . S
C227 H244 0.929 . S
C228 C225 1.399 . S
C228 C229 1.392 . S
C228 H245 0.929 . S
C229 C227 1.380 . S
C229 C228 1.392 . S
C229 H246 0.929 . S
C230 C225 1.358 1_545 S
C230 C226 1.391 . S
C230 H247 0.956 . S
C231 O216 1.266 . S
C231 O217 1.248 1_554 S
C232 Tb168 2.802 . S
C232 O212 1.264 . S
C232 O215 1.256 . S
C232 C225 1.496 . S
C233 C200 1.448 . S
C233 H210 0.930 . S
C233 C234 1.328 . S
C234 C205 1.427 . S
C234 H211 0.929 . S
C234 C233 1.328 . S
C235 O219 1.264 . S
C235 O220 1.243 . S
C236 C239 1.399 . S
C236 C240 1.364 1_545 S
C236 C243 1.496 . S
C237 C238 1.399 1_565 S
C237 C240 1.391 . S
C238 C237 1.399 1_545 S
C238 C241 1.380 . S
C238 H248 0.929 . S
C239 C236 1.399 . S
C239 C241 1.392 . S
C239 H249 0.929 . S
C240 C236 1.364 1_565 S
C240 C237 1.391 . S
C240 H250 0.950 . S
C241 C238 1.380 . S
C241 C239 1.392 . S
C241 H251 0.929 . S
C242 O222 1.266 . S
C242 O223 1.248 1_556 S
C243 Tb179 2.802 . S
C243 O218 1.264 . S
C243 O221 1.256 . S
C243 C236 1.496 . S
H244 C227 0.929 . S
H245 C228 0.929 . S
H246 C229 0.929 . S
H247 C230 0.956 . S
H248 C238 0.929 . S
H249 C239 0.929 . S
H250 C240 0.950 . S
H251 C241 0.929 . S
Tb252 N281 2.617 . S
Tb252 N287 2.572 . S
Tb252 O296 2.465 . S
Tb252 O297 2.387 . S
Tb252 O299 2.428 . S
Tb252 O300 2.308 . S
Tb252 O304 2.349 . S
Tb252 O307 2.393 . S
Tb252 C316 2.802 . S
C253 N254 1.379 . S
C253 C256 1.416 . S
C253 C260 1.424 . S
N254 C253 1.379 . S
N254 C257 1.334 . S
N254 Tb263 2.617 . S
C255 C257 1.390 . S
C255 C258 1.339 . S
C255 H275 0.930 . S
C256 C253 1.416 . S
C256 C258 1.416 . S
C256 C262 1.448 . S
C257 N254 1.334 . S
C257 C255 1.390 . S
C257 H268 0.930 . S
C258 C255 1.339 . S
C258 C256 1.416 . S
C258 H279 0.930 . S
C259 C260 1.413 . S
C259 C261 1.427 . S
C259 C265 1.416 . S
C260 C253 1.424 . S
C260 C259 1.413 . S
C260 N264 1.361 . S
C261 C259 1.427 . S
C261 C262 1.328 . S
C261 H276 0.929 . S
C262 C256 1.448 . S
C262 C261 1.328 . S
C262 H277 0.930 . S
Tb263 N254 2.617 . S
Tb263 N264 2.572 . S
Tb263 O298 2.349 . S
Tb263 O301 2.393 . S
Tb263 O302 2.465 . S
Tb263 O303 2.387 . S
Tb263 O305 2.428 . S
Tb263 O306 2.308 . S
Tb263 C327 2.802 . S
N264 C260 1.361 . S
N264 Tb263 2.572 . S
N264 C266 1.340 . S
C265 C259 1.416 . S
C265 C267 1.332 . S
C265 H273 0.931 . S
C266 N264 1.340 . S
C266 C267 1.407 . S
C266 H272 0.930 . S
C267 C265 1.332 . S
C267 C266 1.407 . S
C267 H269 0.929 . S
H268 C257 0.930 . S
H269 C267 0.929 . S
H270 C285 0.930 . S
H271 C292 0.929 . S
H272 C266 0.930 . S
H273 C265 0.931 . S
H274 C288 0.930 . S
H275 C255 0.930 . S
H276 C261 0.929 . S
H277 C262 0.930 . S
H278 C283 0.930 . S
H279 C258 0.930 . S
H280 C291 0.931 . S
N281 Tb252 2.617 . S
N281 C282 1.379 . S
N281 C285 1.334 . S
C282 N281 1.379 . S
C282 C284 1.416 . S
C282 C290 1.424 . S
C283 H278 0.930 . S
C283 C285 1.390 . S
C283 C286 1.339 . S
C284 C282 1.416 . S
C284 C286 1.416 . S
C284 C317 1.448 . S
C285 H270 0.930 . S
C285 N281 1.334 . S
C285 C283 1.390 . S
C286 C283 1.339 . S
C286 C284 1.416 . S
C286 H293 0.930 . S
N287 Tb252 2.572 . S
N287 C288 1.340 . S
N287 C290 1.361 . S
C288 H274 0.930 . S
C288 N287 1.340 . S
C288 C292 1.407 . S
C289 C290 1.413 . S
C289 C291 1.416 . S
C289 C318 1.427 . S
C290 C282 1.424 . S
C290 N287 1.361 . S
C290 C289 1.413 . S
C291 H280 0.931 . S
C291 C289 1.416 . S
C291 C292 1.332 . S
C292 H271 0.929 . S
C292 C288 1.407 . S
C292 C291 1.332 . S
H293 C286 0.930 . S
H294 C317 0.930 . S
H295 C318 0.929 . S
O296 Tb252 2.465 . S
O296 C316 1.264 . S
O297 Tb252 2.387 . S
O297 C308 1.264 . S
O298 Tb263 2.349 . S
O298 C308 1.243 . S
O299 Tb252 2.428 . S
O299 C316 1.256 . S
O300 Tb252 2.308 . S
O300 C315 1.266 . S
O301 Tb263 2.393 . S
O301 C315 1.248 . S
O302 Tb263 2.465 . S
O302 C327 1.264 . S
O303 Tb263 2.387 . S
O303 C319 1.264 . S
O304 Tb252 2.349 . S
O304 C319 1.243 . S
O305 Tb263 2.428 . S
O305 C327 1.256 . S
O306 Tb263 2.308 . S
O306 C326 1.266 . S
O307 Tb252 2.393 . S
O307 C326 1.248 . S
C308 O297 1.264 . S
C308 O298 1.243 . S
C309 C312 1.399 . S
C309 C314 1.383 . S
C309 C316 1.496 . S
C310 C311 1.399 . S
C310 C314 1.389 1_556 S
C311 C310 1.399 . S
C311 C313 1.380 . S
C311 H328 0.929 . S
C312 C309 1.399 . S
C312 C313 1.392 1_554 S
C312 H329 0.929 . S
C313 C311 1.380 . S
C313 C312 1.392 1_556 S
C313 H330 0.929 . S
C314 C309 1.383 . S
C314 C310 1.389 1_554 S
C314 H331 0.931 . S
C315 O300 1.266 . S
C315 O301 1.248 . S
C316 Tb252 2.802 . S
C316 O296 1.264 . S
C316 O299 1.256 . S
C316 C309 1.496 . S
C317 C284 1.448 . S
C317 H294 0.930 . S
C317 C318 1.328 . S
C318 C289 1.427 . S
C318 H295 0.929 . S
C318 C317 1.328 . S
C319 O303 1.264 . S
C319 O304 1.243 . S
C320 C323 1.399 . S
C320 C324 1.383 . S
C320 C327 1.496 . S
C321 C322 1.399 . S
C321 C324 1.389 . S
C322 C321 1.399 . S
C322 C325 1.380 . S
C322 H332 0.929 . S
C323 C320 1.399 . S
C323 C325 1.392 . S
C323 H333 0.929 . S
C324 C320 1.383 . S
C324 C321 1.389 . S
C324 H334 0.931 . S
C325 C322 1.380 . S
C325 C323 1.392 . S
C325 H335 0.929 . S
C326 O306 1.266 . S
C326 O307 1.248 . S
C327 Tb263 2.802 . S
C327 O302 1.264 . S
C327 O305 1.256 . S
C327 C320 1.496 . S
H328 C311 0.929 . S
H329 C312 0.929 . S
H330 C313 0.929 . S
H331 C314 0.931 . S
H332 C322 0.929 . S
H333 C323 0.929 . S
H334 C324 0.931 . S
H335 C325 0.929 . S
Tb336 N365 2.617 . S
Tb336 N371 2.572 . S
Tb336 O380 2.465 . S
Tb336 O381 2.387 . S
Tb336 O383 2.428 . S
Tb336 O384 2.308 . S
Tb336 O388 2.349 . S
Tb336 O391 2.393 . S
Tb336 C400 2.802 . S
C337 N338 1.379 . S
C337 C340 1.416 . S
C337 C344 1.424 . S
N338 C337 1.379 . S
N338 C341 1.334 . S
N338 Tb347 2.617 . S
C339 C341 1.390 . S
C339 C342 1.339 . S
C339 H359 0.930 . S
C340 C337 1.416 . S
C340 C342 1.416 . S
C340 C346 1.448 . S
C341 N338 1.334 . S
C341 C339 1.390 . S
C341 H352 0.930 . S
C342 C339 1.339 . S
C342 C340 1.416 . S
C342 H363 0.930 . S
C343 C344 1.413 . S
C343 C345 1.427 . S
C343 C349 1.416 . S
C344 C337 1.424 . S
C344 C343 1.413 . S
C344 N348 1.361 . S
C345 C343 1.427 . S
C345 C346 1.328 . S
C345 H360 0.929 . S
C346 C340 1.448 . S
C346 C345 1.328 . S
C346 H361 0.930 . S
Tb347 N338 2.617 . S
Tb347 N348 2.572 . S
Tb347 O382 2.349 . S
Tb347 O385 2.393 . S
Tb347 O386 2.465 . S
Tb347 O387 2.387 . S
Tb347 O389 2.428 . S
Tb347 O390 2.308 . S
Tb347 C411 2.802 . S
N348 C344 1.361 . S
N348 Tb347 2.572 . S
N348 C350 1.340 . S
C349 C343 1.416 . S
C349 C351 1.332 . S
C349 H357 0.931 . S
C350 N348 1.340 . S
C350 C351 1.407 . S
C350 H356 0.930 . S
C351 C349 1.332 . S
C351 C350 1.407 . S
C351 H353 0.929 . S
H352 C341 0.930 . S
H353 C351 0.929 . S
H354 C369 0.930 . S
H355 C376 0.929 . S
H356 C350 0.930 . S
H357 C349 0.931 . S
H358 C372 0.930 . S
H359 C339 0.930 . S
H360 C345 0.929 . S
H361 C346 0.930 . S
H362 C367 0.930 . S
H363 C342 0.930 . S
H364 C375 0.931 . S
N365 Tb336 2.617 . S
N365 C366 1.379 . S
N365 C369 1.334 . S
C366 N365 1.379 . S
C366 C368 1.416 . S
C366 C374 1.424 . S
C367 H362 0.930 . S
C367 C369 1.390 . S
C367 C370 1.339 . S
C368 C366 1.416 . S
C368 C370 1.416 . S
C368 C401 1.448 . S
C369 H354 0.930 . S
C369 N365 1.334 . S
C369 C367 1.390 . S
C370 C367 1.339 . S
C370 C368 1.416 . S
C370 H377 0.930 . S
N371 Tb336 2.572 . S
N371 C372 1.340 . S
N371 C374 1.361 . S
C372 H358 0.930 . S
C372 N371 1.340 . S
C372 C376 1.407 . S
C373 C374 1.413 . S
C373 C375 1.416 . S
C373 C402 1.427 . S
C374 C366 1.424 . S
C374 N371 1.361 . S
C374 C373 1.413 . S
C375 H364 0.931 . S
C375 C373 1.416 . S
C375 C376 1.332 . S
C376 H355 0.929 . S
C376 C372 1.407 . S
C376 C375 1.332 . S
H377 C370 0.930 . S
H378 C401 0.930 . S
H379 C402 0.929 . S
O380 Tb336 2.465 . S
O380 C400 1.264 . S
O381 Tb336 2.387 . S
O381 C392 1.264 . S
O382 Tb347 2.349 . S
O382 C392 1.243 . S
O383 Tb336 2.428 . S
O383 C400 1.256 . S
O384 Tb336 2.308 . S
O384 C399 1.266 . S
O385 Tb347 2.393 . S
O385 C399 1.248 . S
O386 Tb347 2.465 . S
O386 C411 1.264 . S
O387 Tb347 2.387 . S
O387 C403 1.264 . S
O388 Tb336 2.349 . S
O388 C403 1.243 . S
O389 Tb347 2.428 . S
O389 C411 1.256 . S
O390 Tb347 2.308 . S
O390 C410 1.266 . S
O391 Tb336 2.393 . S
O391 C410 1.248 . S
C392 O381 1.264 . S
C392 O382 1.243 . S
C393 C396 1.399 . S
C393 C398 1.383 . S
C393 C400 1.496 . S
C394 C395 1.399 . S
C394 C398 1.389 . S
C395 C394 1.399 . S
C395 C397 1.380 . S
C395 H412 0.929 . S
C396 C393 1.399 . S
C396 C397 1.392 . S
C396 H413 0.929 . S
C397 C395 1.380 . S
C397 C396 1.392 . S
C397 H414 0.929 . S
C398 C393 1.383 . S
C398 C394 1.389 . S
C398 H415 0.931 . S
C399 O384 1.266 . S
C399 O385 1.248 . S
C400 Tb336 2.802 . S
C400 O380 1.264 . S
C400 O383 1.256 . S
C400 C393 1.496 . S
C401 C368 1.448 . S
C401 H378 0.930 . S
C401 C402 1.328 . S
C402 C373 1.427 . S
C402 H379 0.929 . S
C402 C401 1.328 . S
C403 O387 1.264 . S
C403 O388 1.243 . S
C404 C407 1.399 . S
C404 C408 1.383 . S
C404 C411 1.496 . S
C405 C406 1.399 . S
C405 C408 1.389 1_556 S
C406 C405 1.399 . S
C406 C409 1.380 . S
C406 H416 0.929 . S
C407 C404 1.399 . S
C407 C409 1.392 1_554 S
C407 H417 0.929 . S
C408 C404 1.383 . S
C408 C405 1.389 1_554 S
C408 H418 0.931 . S
C409 C406 1.380 . S
C409 C407 1.392 1_556 S
C409 H419 0.929 . S
C410 O390 1.266 . S
C410 O391 1.248 . S
C411 Tb347 2.802 . S
C411 O386 1.264 . S
C411 O389 1.256 . S
C411 C404 1.496 . S
H412 C395 0.929 . S
H413 C396 0.929 . S
H414 C397 0.929 . S
H415 C398 0.931 . S
H416 C406 0.929 . S
H417 C407 0.929 . S
H418 C408 0.931 . S
H419 C409 0.929 . S
Tb420 N449 2.617 . S
Tb420 N455 2.572 . S
Tb420 O464 2.465 . S
Tb420 O465 2.387 . S
Tb420 O467 2.428 . S
Tb420 O468 2.308 . S
Tb420 O472 2.349 . S
Tb420 O475 2.393 . S
Tb420 C484 2.802 . S
C421 N422 1.379 . S
C421 C424 1.416 . S
C421 C428 1.424 . S
N422 C421 1.379 . S
N422 C425 1.334 . S
N422 Tb431 2.617 . S
C423 C425 1.390 . S
C423 C426 1.339 . S
C423 H443 0.930 . S
C424 C421 1.416 . S
C424 C426 1.416 . S
C424 C430 1.448 . S
C425 N422 1.334 . S
C425 C423 1.390 . S
C425 H436 0.930 . S
C426 C423 1.339 . S
C426 C424 1.416 . S
C426 H447 0.930 . S
C427 C428 1.413 . S
C427 C429 1.427 . S
C427 C433 1.416 . S
C428 C421 1.424 . S
C428 C427 1.413 . S
C428 N432 1.361 . S
C429 C427 1.427 . S
C429 C430 1.328 . S
C429 H444 0.929 . S
C430 C424 1.448 . S
C430 C429 1.328 . S
C430 H445 0.930 . S
Tb431 N422 2.617 . S
Tb431 N432 2.572 . S
Tb431 O466 2.349 . S
Tb431 O469 2.393 . S
Tb431 O470 2.465 . S
Tb431 O471 2.387 . S
Tb431 O473 2.428 . S
Tb431 O474 2.308 . S
Tb431 C495 2.802 . S
N432 C428 1.361 . S
N432 Tb431 2.572 . S
N432 C434 1.340 . S
C433 C427 1.416 . S
C433 C435 1.332 . S
C433 H441 0.931 . S
C434 N432 1.340 . S
C434 C435 1.407 . S
C434 H440 0.930 . S
C435 C433 1.332 . S
C435 C434 1.407 . S
C435 H437 0.929 . S
H436 C425 0.930 . S
H437 C435 0.929 . S
H438 C453 0.930 . S
H439 C460 0.929 . S
H440 C434 0.930 . S
H441 C433 0.931 . S
H442 C456 0.930 . S
H443 C423 0.930 . S
H444 C429 0.929 . S
H445 C430 0.930 . S
H446 C451 0.930 . S
H447 C426 0.930 . S
H448 C459 0.931 . S
N449 Tb420 2.617 . S
N449 C450 1.379 . S
N449 C453 1.334 . S
C450 N449 1.379 . S
C450 C452 1.416 . S
C450 C458 1.424 . S
C451 H446 0.930 . S
C451 C453 1.390 . S
C451 C454 1.339 . S
C452 C450 1.416 . S
C452 C454 1.416 . S
C452 C485 1.448 . S
C453 H438 0.930 . S
C453 N449 1.334 . S
C453 C451 1.390 . S
C454 C451 1.339 . S
C454 C452 1.416 . S
C454 H461 0.930 . S
N455 Tb420 2.572 . S
N455 C456 1.340 . S
N455 C458 1.361 . S
C456 H442 0.930 . S
C456 N455 1.340 . S
C456 C460 1.407 . S
C457 C458 1.413 . S
C457 C459 1.416 . S
C457 C486 1.427 . S
C458 C450 1.424 . S
C458 N455 1.361 . S
C458 C457 1.413 . S
C459 H448 0.931 . S
C459 C457 1.416 . S
C459 C460 1.332 . S
C460 H439 0.929 . S
C460 C456 1.407 . S
C460 C459 1.332 . S
H461 C454 0.930 . S
H462 C485 0.930 . S
H463 C486 0.929 . S
O464 Tb420 2.465 . S
O464 C484 1.264 . S
O465 Tb420 2.387 . S
O465 C476 1.264 . S
O466 Tb431 2.349 . S
O466 C476 1.243 . S
O467 Tb420 2.428 . S
O467 C484 1.256 . S
O468 Tb420 2.308 . S
O468 C483 1.266 . S
O469 Tb431 2.393 . S
O469 C483 1.248 . S
O470 Tb431 2.465 . S
O470 C495 1.264 . S
O471 Tb431 2.387 . S
O471 C487 1.264 . S
O472 Tb420 2.349 . S
O472 C487 1.243 . S
O473 Tb431 2.428 . S
O473 C495 1.256 . S
O474 Tb431 2.308 . S
O474 C494 1.266 . S
O475 Tb420 2.393 . S
O475 C494 1.248 . S
C476 O465 1.264 . S
C476 O466 1.243 . S
C477 C480 1.399 . S
C477 C482 1.383 . S
C477 C484 1.496 . S
C478 C479 1.399 . S
C478 C482 1.389 . S
C479 C478 1.399 . S
C479 C481 1.380 . S
C479 H496 0.929 . S
C480 C477 1.399 . S
C480 C481 1.392 . S
C480 H497 0.929 . S
C481 C479 1.380 . S
C481 C480 1.392 . S
C481 H498 0.929 . S
C482 C477 1.383 . S
C482 C478 1.389 . S
C482 H499 0.931 . S
C483 O468 1.266 . S
C483 O469 1.248 . S
C484 Tb420 2.802 . S
C484 O464 1.264 . S
C484 O467 1.256 . S
C484 C477 1.496 . S
C485 C452 1.448 . S
C485 H462 0.930 . S
C485 C486 1.328 . S
C486 C457 1.427 . S
C486 H463 0.929 . S
C486 C485 1.328 . S
C487 O471 1.264 . S
C487 O472 1.243 . S
C488 C491 1.399 . S
C488 C492 1.383 . S
C488 C495 1.496 . S
C489 C490 1.399 . S
C489 C492 1.389 1_554 S
C490 C489 1.399 . S
C490 C493 1.380 . S
C490 H500 0.929 . S
C491 C488 1.399 . S
C491 C493 1.392 1_556 S
C491 H501 0.929 . S
C492 C488 1.383 . S
C492 C489 1.389 1_556 S
C492 H502 0.931 . S
C493 C490 1.380 . S
C493 C491 1.392 1_554 S
C493 H503 0.929 . S
C494 O474 1.266 . S
C494 O475 1.248 . S
C495 Tb431 2.802 . S
C495 O470 1.264 . S
C495 O473 1.256 . S
C495 C488 1.496 . S
H496 C479 0.929 . S
H497 C480 0.929 . S
H498 C481 0.929 . S
H499 C482 0.931 . S
H500 C490 0.929 . S
H501 C491 0.929 . S
H502 C492 0.931 . S
H503 C493 0.929 . S
Tb504 N533 2.617 . S
Tb504 N539 2.572 . S
Tb504 O548 2.465 . S
Tb504 O549 2.387 1_554 S
Tb504 O551 2.428 . S
Tb504 O552 2.308 . S
Tb504 O556 2.349 . S
Tb504 O559 2.393 . S
Tb504 C568 2.802 . S
C505 N506 1.379 . S
C505 C508 1.416 . S
C505 C512 1.424 . S
N506 C505 1.379 . S
N506 C509 1.334 . S
N506 Tb515 2.617 . S
C507 C509 1.390 . S
C507 C510 1.339 . S
C507 H527 0.930 . S
C508 C505 1.416 . S
C508 C510 1.416 . S
C508 C514 1.448 . S
C509 N506 1.334 . S
C509 C507 1.390 . S
C509 H520 0.930 . S
C510 C507 1.339 . S
C510 C508 1.416 . S
C510 H531 0.930 . S
C511 C512 1.413 . S
C511 C513 1.427 . S
C511 C517 1.416 . S
C512 C505 1.424 . S
C512 C511 1.413 . S
C512 N516 1.361 . S
C513 C511 1.427 . S
C513 C514 1.328 . S
C513 H528 0.929 . S
C514 C508 1.448 . S
C514 C513 1.328 . S
C514 H529 0.930 . S
Tb515 N506 2.617 . S
Tb515 N516 2.572 . S
Tb515 O550 2.349 . S
Tb515 O553 2.393 . S
Tb515 O554 2.465 . S
Tb515 O555 2.387 1_556 S
Tb515 O557 2.428 . S
Tb515 O558 2.308 . S
Tb515 C579 2.802 . S
N516 C512 1.361 . S
N516 Tb515 2.572 . S
N516 C518 1.340 . S
C517 C511 1.416 . S
C517 C519 1.332 . S
C517 H525 0.931 . S
C518 N516 1.340 . S
C518 C519 1.407 . S
C518 H524 0.930 . S
C519 C517 1.332 . S
C519 C518 1.407 . S
C519 H521 0.929 . S
H520 C509 0.930 . S
H521 C519 0.929 . S
H522 C537 0.930 . S
H523 C544 0.929 . S
H524 C518 0.930 . S
H525 C517 0.931 . S
H526 C540 0.930 . S
H527 C507 0.930 . S
H528 C513 0.929 . S
H529 C514 0.930 . S
H530 C535 0.930 . S
H531 C510 0.930 . S
H532 C543 0.931 . S
N533 Tb504 2.617 . S
N533 C534 1.379 . S
N533 C537 1.334 . S
C534 N533 1.379 . S
C534 C536 1.416 . S
C534 C542 1.424 . S
C535 H530 0.930 . S
C535 C537 1.390 . S
C535 C538 1.339 . S
C536 C534 1.416 . S
C536 C538 1.416 . S
C536 C569 1.448 . S
C537 H522 0.930 . S
C537 N533 1.334 . S
C537 C535 1.390 . S
C538 C535 1.339 . S
C538 C536 1.416 . S
C538 H545 0.930 . S
N539 Tb504 2.572 . S
N539 C540 1.340 . S
N539 C542 1.361 . S
C540 H526 0.930 . S
C540 N539 1.340 . S
C540 C544 1.407 . S
C541 C542 1.413 . S
C541 C543 1.416 . S
C541 C570 1.427 . S
C542 C534 1.424 . S
C542 N539 1.361 . S
C542 C541 1.413 . S
C543 H532 0.931 . S
C543 C541 1.416 . S
C543 C544 1.332 . S
C544 H523 0.929 . S
C544 C540 1.407 . S
C544 C543 1.332 . S
H545 C538 0.930 . S
H546 C569 0.930 . S
H547 C570 0.929 . S
O548 Tb504 2.465 . S
O548 C568 1.264 . S
O549 Tb504 2.387 1_556 S
O549 C560 1.264 . S
O550 Tb515 2.349 . S
O550 C560 1.243 . S
O551 Tb504 2.428 . S
O551 C568 1.256 . S
O552 Tb504 2.308 . S
O552 C567 1.266 . S
O553 Tb515 2.393 . S
O553 C567 1.248 1_556 S
O554 Tb515 2.465 . S
O554 C579 1.264 . S
O555 Tb515 2.387 1_554 S
O555 C571 1.264 . S
O556 Tb504 2.349 . S
O556 C571 1.243 . S
O557 Tb515 2.428 . S
O557 C579 1.256 . S
O558 Tb515 2.308 . S
O558 C578 1.266 . S
O559 Tb504 2.393 . S
O559 C578 1.248 1_554 S
C560 O549 1.264 . S
C560 O550 1.243 . S
C561 C564 1.399 . S
C561 C566 1.383 . S
C561 C568 1.496 . S
C562 C563 1.399 . S
C562 C566 1.389 . S
C563 C562 1.399 . S
C563 C565 1.380 . S
C563 H580 0.929 . S
C564 C561 1.399 . S
C564 C565 1.392 . S
C564 H581 0.929 . S
C565 C563 1.380 . S
C565 C564 1.392 . S
C565 H582 0.929 . S
C566 C561 1.383 . S
C566 C562 1.389 . S
C566 H583 0.931 . S
C567 O552 1.266 . S
C567 O553 1.248 1_554 S
C568 Tb504 2.802 . S
C568 O548 1.264 . S
C568 O551 1.256 . S
C568 C561 1.496 . S
C569 C536 1.448 . S
C569 H546 0.930 . S
C569 C570 1.328 . S
C570 C541 1.427 . S
C570 H547 0.929 . S
C570 C569 1.328 . S
C571 O555 1.264 . S
C571 O556 1.243 . S
C572 C575 1.399 . S
C572 C576 1.383 . S
C572 C579 1.496 . S
C573 C574 1.399 . S
C573 C576 1.389 . S
C574 C573 1.399 . S
C574 C577 1.380 . S
C574 H584 0.929 . S
C575 C572 1.399 . S
C575 C577 1.392 . S
C575 H585 0.929 . S
C576 C572 1.383 . S
C576 C573 1.389 . S
C576 H586 0.931 . S
C577 C574 1.380 . S
C577 C575 1.392 . S
C577 H587 0.929 . S
C578 O558 1.266 . S
C578 O559 1.248 1_556 S
C579 Tb515 2.802 . S
C579 O554 1.264 . S
C579 O557 1.256 . S
C579 C572 1.496 . S
H580 C563 0.929 . S
H581 C564 0.929 . S
H582 C565 0.929 . S
H583 C566 0.931 . S
H584 C574 0.929 . S
H585 C575 0.929 . S
H586 C576 0.931 . S
H587 C577 0.929 . S
Tb588 N617 2.619 . S
Tb588 N623 2.542 1_455 S
Tb588 O632 2.460 1_455 S
Tb588 O633 2.368 1_455 S
Tb588 O635 2.446 . S
Tb588 O636 2.285 1_455 S
Tb588 O640 2.371 . S
Tb588 O643 2.420 . S
Tb588 C652 2.810 . S
C589 N590 1.379 1_455 S
C589 C592 1.416 . S
C589 C596 1.424 . S
N590 C589 1.379 1_655 S
N590 C593 1.334 . S
N590 Tb599 2.619 . S
C591 C593 1.390 . S
C591 C594 1.339 . S
C591 H611 0.930 . S
C592 C589 1.416 . S
C592 C594 1.416 1_455 S
C592 C598 1.448 . S
C593 N590 1.334 . S
C593 C591 1.390 . S
C593 H604 0.930 . S
C594 C591 1.339 . S
C594 C592 1.416 1_655 S
C594 H615 0.930 . S
C595 C596 1.413 . S
C595 C597 1.427 . S
C595 C601 1.416 . S
C596 C589 1.424 . S
C596 C595 1.413 . S
C596 N600 1.361 . S
C597 C595 1.427 . S
C597 C598 1.328 . S
C597 H612 0.929 . S
C598 C592 1.448 . S
C598 C597 1.328 . S
C598 H613 0.930 . S
Tb599 N590 2.619 . S
Tb599 N600 2.551 1_655 S
Tb599 O634 2.365 . S
Tb599 O637 2.412 . S
Tb599 O638 2.461 1_655 S
Tb599 O639 2.373 1_655 S
Tb599 O641 2.441 . S
Tb599 O642 2.292 1_655 S
Tb599 C663 2.807 . S
N600 C596 1.361 . S
N600 Tb599 2.551 1_455 S
N600 C602 1.340 . S
C601 C595 1.416 . S
C601 C603 1.332 . S
C601 H609 0.931 . S
C602 N600 1.340 . S
C602 C603 1.407 . S
C602 H608 0.930 . S
C603 C601 1.332 . S
C603 C602 1.407 . S
C603 H605 0.929 . S
H604 C593 0.930 . S
H605 C603 0.929 . S
H606 C621 0.930 . S
H607 C628 0.929 . S
H608 C602 0.930 . S
H609 C601 0.931 . S
H610 C624 0.930 . S
H611 C591 0.930 . S
H612 C597 0.929 . S
H613 C598 0.930 . S
H614 C619 0.930 . S
H615 C594 0.930 . S
H616 C627 0.931 . S
N617 Tb588 2.619 . S
N617 C618 1.379 1_455 S
N617 C621 1.334 . S
C618 N617 1.379 1_655 S
C618 C620 1.416 . S
C618 C626 1.424 . S
C619 H614 0.930 . S
C619 C621 1.390 . S
C619 C622 1.339 . S
C620 C618 1.416 . S
C620 C622 1.416 1_655 S
C620 C653 1.448 . S
C621 H606 0.930 . S
C621 N617 1.334 . S
C621 C619 1.390 . S
C622 C619 1.339 . S
C622 C620 1.416 1_455 S
C622 H629 0.930 . S
N623 Tb588 2.542 1_655 S
N623 C624 1.340 . S
N623 C626 1.361 . S
C624 H610 0.930 . S
C624 N623 1.340 . S
C624 C628 1.407 . S
C625 C626 1.413 . S
C625 C627 1.416 . S
C625 C654 1.427 . S
C626 C618 1.424 . S
C626 N623 1.361 . S
C626 C625 1.413 . S
C627 H616 0.931 . S
C627 C625 1.416 . S
C627 C628 1.332 . S
C628 H607 0.929 . S
C628 C624 1.407 . S
C628 C627 1.332 . S
H629 C622 0.930 . S
H630 C653 0.930 . S
H631 C654 0.929 . S
O632 Tb588 2.460 1_655 S
O632 C652 1.264 1_655 S
O633 Tb588 2.368 1_655 S
O633 C644 1.264 . S
O634 Tb599 2.365 . S
O634 C644 1.243 . S
O635 Tb588 2.446 . S
O635 C652 1.256 . S
O636 Tb588 2.285 1_655 S
O636 C651 1.266 . S
O637 Tb599 2.412 . S
O637 C651 1.248 . S
O638 Tb599 2.461 1_455 S
O638 C663 1.264 1_455 S
O639 Tb599 2.373 1_455 S
O639 C655 1.264 . S
O640 Tb588 2.371 . S
O640 C655 1.243 . S
O641 Tb599 2.441 . S
O641 C663 1.256 . S
O642 Tb599 2.292 1_455 S
O642 C662 1.266 . S
O643 Tb588 2.420 . S
O643 C662 1.248 . S
C644 O633 1.264 . S
C644 O634 1.243 . S
C645 C648 1.399 . S
C645 C650 1.383 . S
C645 C652 1.496 . S
C646 C647 1.399 . S
C646 C650 1.389 . S
C647 C646 1.399 . S
C647 C649 1.380 . S
C647 H664 0.929 . S
C648 C645 1.399 . S
C648 C649 1.392 . S
C648 H665 0.929 . S
C649 C647 1.380 . S
C649 C648 1.392 . S
C649 H666 0.929 . S
C650 C645 1.383 . S
C650 C646 1.389 . S
C650 H667 0.931 1_455 S
C651 O636 1.266 . S
C651 O637 1.248 . S
C652 Tb588 2.810 . S
C652 O632 1.264 1_455 S
C652 O635 1.256 . S
C652 C645 1.496 . S
C653 C620 1.448 . S
C653 H630 0.930 . S
C653 C654 1.328 . S
C654 C625 1.427 . S
C654 H631 0.929 . S
C654 C653 1.328 . S
C655 O639 1.264 . S
C655 O640 1.243 . S
C656 C659 1.399 . S
C656 C660 1.383 . S
C656 C663 1.496 . S
C657 C658 1.399 . S
C657 C660 1.389 . S
C658 C657 1.399 . S
C658 C661 1.380 . S
C658 H668 0.929 . S
C659 C656 1.399 . S
C659 C661 1.392 . S
C659 H669 0.929 . S
C660 C656 1.383 . S
C660 C657 1.389 . S
C660 H670 0.931 1_655 S
C661 C658 1.380 . S
C661 C659 1.392 . S
C661 H671 0.929 . S
C662 O642 1.266 . S
C662 O643 1.248 . S
C663 Tb599 2.807 . S
C663 O638 1.264 1_655 S
C663 O641 1.256 . S
C663 C656 1.496 . S
H664 C647 0.929 . S
H665 C648 0.929 . S
H666 C649 0.929 . S
H667 C650 0.931 1_655 S
H668 C658 0.929 . S
H669 C659 0.929 . S
H670 C660 0.931 1_455 S
H671 C661 0.929 . S
H672 C690 0.951 . S
H673 C692 0.951 . S
H674 C694 0.950 . S
H675 C695 0.950 . S
H676 C697 0.950 . S
H677 C700 0.950 . S
H678 C701 0.950 . S
H679 C703 0.950 . S
H680 C704 0.950 . S
H681 C705 0.951 . S
H682 C707 0.951 . S
H683 C709 0.950 . S
H684 C710 0.950 . S
H685 C712 0.950 . S
H686 C715 0.950 . S
H687 C716 0.950 . S
H688 C718 0.950 . S
H689 C719 0.950 . S
C690 H672 0.951 . S
C690 C691 1.366 . S
C690 C692 1.388 . S
C691 C690 1.366 . S
C691 C695 1.385 . S
C692 H673 0.951 . S
C692 C690 1.388 . S
C692 C693 1.366 . S
C693 C692 1.366 . S
C693 C694 1.414 . S
C693 C696 1.499 . S
C694 H674 0.950 . S
C694 C693 1.414 . S
C694 C695 1.374 . S
C695 H675 0.950 . S
C695 C691 1.385 . S
C695 C694 1.374 . S
C696 C693 1.499 . S
C696 C697 1.373 . S
C696 C698 1.389 . S
C697 H676 0.950 . S
C697 C696 1.373 . S
C697 C713 1.377 . S
C698 C696 1.389 . S
C698 C699 1.524 . S
C698 C712 1.377 . S
C699 C698 1.524 . S
C699 C700 1.397 . S
C699 C704 1.363 . S
C700 H677 0.950 . S
C700 C699 1.397 . S
C700 C701 1.334 . S
C701 H678 0.950 . S
C701 C700 1.334 . S
C701 C702 1.287 . S
C702 C701 1.287 . S
C702 C703 1.524 . S
C702 H721 0.913 . S
C703 H679 0.950 . S
C703 C702 1.524 . S
C703 C704 1.415 . S
C704 H680 0.950 . S
C704 C699 1.363 . S
C704 C703 1.415 . S
C705 H681 0.951 . S
C705 C706 1.366 . S
C705 C707 1.388 . S
C706 C705 1.366 . S
C706 C710 1.385 . S
C707 H682 0.951 . S
C707 C705 1.388 . S
C707 C708 1.366 . S
C708 C707 1.366 . S
C708 C709 1.414 . S
C708 C711 1.499 . S
C709 H683 0.950 . S
C709 C708 1.414 . S
C709 C710 1.374 . S
C710 H684 0.950 . S
C710 C706 1.385 . S
C710 C709 1.374 . S
C711 C708 1.499 . S
C711 C712 1.373 . S
C711 C713 1.389 . S
C712 H685 0.950 . S
C712 C698 1.377 . S
C712 C711 1.373 . S
C713 C697 1.377 . S
C713 C711 1.389 . S
C713 C714 1.524 . S
C714 C713 1.524 . S
C714 C715 1.397 . S
C714 C719 1.363 . S
C715 H686 0.950 . S
C715 C714 1.397 . S
C715 C716 1.334 . S
C716 H687 0.950 . S
C716 C715 1.334 . S
C716 C717 1.287 . S
C717 C716 1.287 . S
C717 C718 1.524 . S
C717 H720 0.999 . S
C718 H688 0.950 . S
C718 C717 1.524 . S
C718 C719 1.415 . S
C719 H689 0.950 . S
C719 C714 1.363 . S
C719 C718 1.415 . S
H720 C717 0.999 . S
H721 C702 0.913 . S
H722 C740 0.951 . S
H723 C742 0.951 . S
H724 C744 0.950 . S
H725 C745 0.950 . S
H726 C747 0.950 . S
H727 C750 0.950 . S
H728 C751 0.950 . S
H729 C753 0.950 . S
H730 C754 0.950 . S
H731 C755 0.951 . S
H732 C757 0.951 . S
H733 C759 0.950 . S
H734 C760 0.950 . S
H735 C762 0.950 . S
H736 C765 0.950 . S
H737 C766 0.950 . S
H738 C768 0.950 . S
H739 C769 0.950 . S
C740 H722 0.951 . S
C740 C741 1.366 . S
C740 C742 1.388 . S
C741 C740 1.366 . S
C741 C745 1.385 . S
C742 H723 0.951 . S
C742 C740 1.388 . S
C742 C743 1.366 . S
C743 C742 1.366 . S
C743 C744 1.414 . S
C743 C746 1.499 . S
C744 H724 0.950 . S
C744 C743 1.414 . S
C744 C745 1.374 . S
C745 H725 0.950 . S
C745 C741 1.385 . S
C745 C744 1.374 . S
C746 C743 1.499 . S
C746 C747 1.373 . S
C746 C748 1.389 . S
C747 H726 0.950 . S
C747 C746 1.373 . S
C747 C763 1.377 . S
C748 C746 1.389 . S
C748 C749 1.524 . S
C748 C762 1.377 . S
C749 C748 1.524 . S
C749 C750 1.397 . S
C749 C754 1.363 . S
C750 H727 0.950 . S
C750 C749 1.397 . S
C750 C751 1.334 . S
C751 H728 0.950 . S
C751 C750 1.334 . S
C751 C752 1.287 . S
C752 C751 1.287 . S
C752 C753 1.524 . S
C752 H771 0.913 . S
C753 H729 0.950 . S
C753 C752 1.524 . S
C753 C754 1.415 . S
C754 H730 0.950 . S
C754 C749 1.363 . S
C754 C753 1.415 . S
C755 H731 0.951 . S
C755 C756 1.366 . S
C755 C757 1.388 . S
C756 C755 1.366 . S
C756 C760 1.385 . S
C757 H732 0.951 . S
C757 C755 1.388 . S
C757 C758 1.366 . S
C758 C757 1.366 . S
C758 C759 1.414 . S
C758 C761 1.499 . S
C759 H733 0.950 . S
C759 C758 1.414 . S
C759 C760 1.374 . S
C760 H734 0.950 . S
C760 C756 1.385 . S
C760 C759 1.374 . S
C761 C758 1.499 . S
C761 C762 1.373 . S
C761 C763 1.389 . S
C762 H735 0.950 . S
C762 C748 1.377 . S
C762 C761 1.373 . S
C763 C747 1.377 . S
C763 C761 1.389 . S
C763 C764 1.524 . S
C764 C763 1.524 . S
C764 C765 1.397 . S
C764 C769 1.363 . S
C765 H736 0.950 . S
C765 C764 1.397 . S
C765 C766 1.334 . S
C766 H737 0.950 . S
C766 C765 1.334 . S
C766 C767 1.287 . S
C767 C766 1.287 . S
C767 C768 1.524 . S
C767 H770 0.999 . S
C768 H738 0.950 . S
C768 C767 1.524 . S
C768 C769 1.415 . S
C769 H739 0.950 . S
C769 C764 1.363 . S
C769 C768 1.415 . S
H770 C767 0.999 . S
H771 C752 0.913 . S
H772 C790 0.951 . S
H773 C792 0.951 . S
H774 C794 0.950 . S
H775 C795 0.950 . S
H776 C797 0.950 . S
H777 C800 0.950 . S
H778 C801 0.950 . S
H779 C803 0.950 1_554 S
H780 C804 0.950 . S
H781 C805 0.951 . S
H782 C807 0.951 . S
H783 C809 0.950 . S
H784 C810 0.950 . S
H785 C812 0.950 . S
H786 C815 0.950 . S
H787 C816 0.950 . S
H788 C818 0.950 . S
H789 C819 0.950 . S
C790 H772 0.951 . S
C790 C791 1.366 . S
C790 C792 1.388 . S
C791 C790 1.366 . S
C791 C795 1.385 . S
C792 H773 0.951 . S
C792 C790 1.388 . S
C792 C793 1.366 . S
C793 C792 1.366 . S
C793 C794 1.414 . S
C793 C796 1.499 . S
C794 H774 0.950 . S
C794 C793 1.414 . S
C794 C795 1.374 . S
C795 H775 0.950 . S
C795 C791 1.385 . S
C795 C794 1.374 . S
C796 C793 1.499 . S
C796 C797 1.373 . S
C796 C798 1.389 . S
C797 H776 0.950 . S
C797 C796 1.373 . S
C797 C813 1.377 . S
C798 C796 1.389 . S
C798 C799 1.524 . S
C798 C812 1.377 . S
C799 C798 1.524 . S
C799 C800 1.397 . S
C799 C804 1.363 . S
C800 H777 0.950 . S
C800 C799 1.397 . S
C800 C801 1.334 . S
C801 H778 0.950 . S
C801 C800 1.334 . S
C801 C802 1.287 . S
C802 C801 1.287 . S
C802 C803 1.524 . S
C802 H821 0.913 1_556 S
C803 H779 0.950 1_556 S
C803 C802 1.524 . S
C803 C804 1.415 . S
C804 H780 0.950 . S
C804 C799 1.363 . S
C804 C803 1.415 . S
C805 H781 0.951 . S
C805 C806 1.366 . S
C805 C807 1.388 . S
C806 C805 1.366 . S
C806 C810 1.385 . S
C807 H782 0.951 . S
C807 C805 1.388 . S
C807 C808 1.366 . S
C808 C807 1.366 . S
C808 C809 1.414 . S
C808 C811 1.499 . S
C809 H783 0.950 . S
C809 C808 1.414 . S
C809 C810 1.374 . S
C810 H784 0.950 . S
C810 C806 1.385 . S
C810 C809 1.374 . S
C811 C808 1.499 . S
C811 C812 1.373 . S
C811 C813 1.389 . S
C812 H785 0.950 . S
C812 C798 1.377 . S
C812 C811 1.373 . S
C813 C797 1.377 . S
C813 C811 1.389 . S
C813 C814 1.524 . S
C814 C813 1.524 . S
C814 C815 1.397 . S
C814 C819 1.363 . S
C815 H786 0.950 . S
C815 C814 1.397 . S
C815 C816 1.334 . S
C816 H787 0.950 . S
C816 C815 1.334 . S
C816 C817 1.287 . S
C817 C816 1.287 . S
C817 C818 1.524 . S
C817 H820 0.999 . S
C818 H788 0.950 . S
C818 C817 1.524 . S
C818 C819 1.415 . S
C819 H789 0.950 . S
C819 C814 1.363 . S
C819 C818 1.415 . S
H820 C817 0.999 . S
H821 C802 0.913 1_554 S
H822 C840 0.951 . S
H823 C842 0.951 . S
H824 C844 0.950 . S
H825 C845 0.950 . S
H826 C847 0.950 . S
H827 C850 0.950 . S
H828 C851 0.950 . S
H829 C853 0.950 . S
H830 C854 0.950 . S
H831 C855 0.951 . S
H832 C857 0.951 . S
H833 C859 0.950 . S
H834 C860 0.950 . S
H835 C862 0.950 . S
H836 C865 0.950 . S
H837 C866 0.950 . S
H838 C868 0.950 . S
H839 C869 0.950 . S
C840 H822 0.951 . S
C840 C841 1.366 . S
C840 C842 1.388 . S
C841 C840 1.366 . S
C841 C845 1.385 . S
C842 H823 0.951 . S
C842 C840 1.388 . S
C842 C843 1.366 . S
C843 C842 1.366 . S
C843 C844 1.414 . S
C843 C846 1.499 . S
C844 H824 0.950 . S
C844 C843 1.414 . S
C844 C845 1.374 . S
C845 H825 0.950 . S
C845 C841 1.385 . S
C845 C844 1.374 . S
C846 C843 1.499 . S
C846 C847 1.373 . S
C846 C848 1.389 . S
C847 H826 0.950 . S
C847 C846 1.373 . S
C847 C863 1.377 . S
C848 C846 1.389 . S
C848 C849 1.524 . S
C848 C862 1.377 . S
C849 C848 1.524 . S
C849 C850 1.397 . S
C849 C854 1.363 . S
C850 H827 0.950 . S
C850 C849 1.397 . S
C850 C851 1.334 1_554 S
C851 H828 0.950 . S
C851 C850 1.334 1_556 S
C851 C852 1.287 . S
C852 C851 1.287 . S
C852 C853 1.524 . S
C852 H871 0.913 . S
C853 H829 0.950 . S
C853 C852 1.524 . S
C853 C854 1.415 1_556 S
C854 H830 0.950 . S
C854 C849 1.363 . S
C854 C853 1.415 1_554 S
C855 H831 0.951 . S
C855 C856 1.366 . S
C855 C857 1.388 . S
C856 C855 1.366 . S
C856 C860 1.385 . S
C857 H832 0.951 . S
C857 C855 1.388 . S
C857 C858 1.366 . S
C858 C857 1.366 . S
C858 C859 1.414 . S
C858 C861 1.499 . S
C859 H833 0.950 . S
C859 C858 1.414 . S
C859 C860 1.374 . S
C860 H834 0.950 . S
C860 C856 1.385 . S
C860 C859 1.374 . S
C861 C858 1.499 . S
C861 C862 1.373 . S
C861 C863 1.389 . S
C862 H835 0.950 . S
C862 C848 1.377 . S
C862 C861 1.373 . S
C863 C847 1.377 . S
C863 C861 1.389 . S
C863 C864 1.524 . S
C864 C863 1.524 . S
C864 C865 1.397 . S
C864 C869 1.363 . S
C865 H836 0.950 . S
C865 C864 1.397 . S
C865 C866 1.334 . S
C866 H837 0.950 . S
C866 C865 1.334 . S
C866 C867 1.287 . S
C867 C866 1.287 . S
C867 C868 1.524 . S
C867 H870 0.999 . S
C868 H838 0.950 . S
C868 C867 1.524 . S
C868 C869 1.415 . S
C869 H839 0.950 . S
C869 C864 1.363 . S
C869 C868 1.415 . S
H870 C867 0.999 . S
H871 C852 0.913 . S
H872 C890 0.951 . S
H873 C892 0.951 . S
H874 C894 0.950 . S
H875 C895 0.950 . S
H876 C897 0.950 . S
H877 C900 0.950 . S
H878 C901 0.950 . S
H879 C903 0.950 . S
H880 C904 0.950 . S
H881 C905 0.951 . S
H882 C907 0.951 . S
H883 C909 0.950 . S
H884 C910 0.950 . S
H885 C912 0.950 . S
H886 C915 0.950 . S
H887 C916 0.950 . S
H888 C918 0.950 . S
H889 C919 0.950 . S
C890 H872 0.951 . S
C890 C891 1.366 . S
C890 C892 1.388 . S
C891 C890 1.366 . S
C891 C895 1.385 . S
C892 H873 0.951 . S
C892 C890 1.388 . S
C892 C893 1.366 . S
C893 C892 1.366 . S
C893 C894 1.414 . S
C893 C896 1.499 . S
C894 H874 0.950 . S
C894 C893 1.414 . S
C894 C895 1.374 . S
C895 H875 0.950 . S
C895 C891 1.385 . S
C895 C894 1.374 . S
C896 C893 1.499 . S
C896 C897 1.373 . S
C896 C898 1.389 . S
C897 H876 0.950 . S
C897 C896 1.373 . S
C897 C913 1.377 . S
C898 C896 1.389 . S
C898 C899 1.524 . S
C898 C912 1.377 . S
C899 C898 1.524 . S
C899 C900 1.397 . S
C899 C904 1.363 . S
C900 H877 0.950 . S
C900 C899 1.397 . S
C900 C901 1.334 . S
C901 H878 0.950 . S
C901 C900 1.334 . S
C901 C902 1.287 . S
C902 C901 1.287 . S
C902 C903 1.524 . S
C902 H921 0.913 . S
C903 H879 0.950 . S
C903 C902 1.524 . S
C903 C904 1.415 . S
C904 H880 0.950 . S
C904 C899 1.363 . S
C904 C903 1.415 . S
C905 H881 0.951 . S
C905 C906 1.366 . S
C905 C907 1.388 . S
C906 C905 1.366 . S
C906 C910 1.385 . S
C907 H882 0.951 . S
C907 C905 1.388 . S
C907 C908 1.366 . S
C908 C907 1.366 . S
C908 C909 1.414 . S
C908 C911 1.499 . S
C909 H883 0.950 . S
C909 C908 1.414 . S
C909 C910 1.374 . S
C910 H884 0.950 . S
C910 C906 1.385 . S
C910 C909 1.374 . S
C911 C908 1.499 . S
C911 C912 1.373 . S
C911 C913 1.389 . S
C912 H885 0.950 . S
C912 C898 1.377 . S
C912 C911 1.373 . S
C913 C897 1.377 . S
C913 C911 1.389 . S
C913 C914 1.524 . S
C914 C913 1.524 . S
C914 C915 1.397 . S
C914 C919 1.363 . S
C915 H886 0.950 . S
C915 C914 1.397 . S
C915 C916 1.334 . S
C916 H887 0.950 . S
C916 C915 1.334 . S
C916 C917 1.287 . S
C917 C916 1.287 . S
C917 C918 1.524 . S
C917 H920 0.999 . S
C918 H888 0.950 . S
C918 C917 1.524 . S
C918 C919 1.415 . S
C919 H889 0.950 . S
C919 C914 1.363 . S
C919 C918 1.415 . S
H920 C917 0.999 . S
H921 C902 0.913 . S
H922 C940 0.951 . S
H923 C942 0.951 . S
H924 C944 0.950 . S
H925 C945 0.950 . S
H926 C947 0.950 . S
H927 C950 0.950 . S
H928 C951 0.950 . S
H929 C953 0.950 . S
H930 C954 0.950 . S
H931 C955 0.951 . S
H932 C957 0.951 . S
H933 C959 0.950 . S
H934 C960 0.950 . S
H935 C962 0.950 . S
H936 C965 0.950 . S
H937 C966 0.950 . S
H938 C968 0.950 . S
H939 C969 0.950 . S
C940 H922 0.951 . S
C940 C941 1.366 . S
C940 C942 1.388 . S
C941 C940 1.366 . S
C941 C945 1.385 . S
C942 H923 0.951 . S
C942 C940 1.388 . S
C942 C943 1.366 . S
C943 C942 1.366 . S
C943 C944 1.414 . S
C943 C946 1.499 . S
C944 H924 0.950 . S
C944 C943 1.414 . S
C944 C945 1.374 . S
C945 H925 0.950 . S
C945 C941 1.385 . S
C945 C944 1.374 . S
C946 C943 1.499 . S
C946 C947 1.373 . S
C946 C948 1.389 . S
C947 H926 0.950 . S
C947 C946 1.373 . S
C947 C963 1.377 . S
C948 C946 1.389 . S
C948 C949 1.524 . S
C948 C962 1.377 . S
C949 C948 1.524 . S
C949 C950 1.397 . S
C949 C954 1.363 . S
C950 H927 0.950 . S
C950 C949 1.397 . S
C950 C951 1.334 . S
C951 H928 0.950 . S
C951 C950 1.334 . S
C951 C952 1.287 . S
C952 C951 1.287 . S
C952 C953 1.524 . S
C952 H971 0.913 . S
C953 H929 0.950 . S
C953 C952 1.524 . S
C953 C954 1.415 . S
C954 H930 0.950 . S
C954 C949 1.363 . S
C954 C953 1.415 . S
C955 H931 0.951 . S
C955 C956 1.366 . S
C955 C957 1.388 . S
C956 C955 1.366 . S
C956 C960 1.385 . S
C957 H932 0.951 . S
C957 C955 1.388 . S
C957 C958 1.366 . S
C958 C957 1.366 . S
C958 C959 1.414 . S
C958 C961 1.499 . S
C959 H933 0.950 . S
C959 C958 1.414 . S
C959 C960 1.374 . S
C960 H934 0.950 . S
C960 C956 1.385 . S
C960 C959 1.374 . S
C961 C958 1.499 . S
C961 C962 1.373 . S
C961 C963 1.389 . S
C962 H935 0.950 . S
C962 C948 1.377 . S
C962 C961 1.373 . S
C963 C947 1.377 . S
C963 C961 1.389 . S
C963 C964 1.524 . S
C964 C963 1.524 . S
C964 C965 1.397 . S
C964 C969 1.363 . S
C965 H936 0.950 . S
C965 C964 1.397 . S
C965 C966 1.334 . S
C966 H937 0.950 . S
C966 C965 1.334 . S
C966 C967 1.287 . S
C967 C966 1.287 . S
C967 C968 1.524 . S
C967 H970 0.999 . S
C968 H938 0.950 . S
C968 C967 1.524 . S
C968 C969 1.415 . S
C969 H939 0.950 . S
C969 C964 1.363 . S
C969 C968 1.415 . S
H970 C967 0.999 . S
H971 C952 0.913 . S
H972 C990 0.951 . S
H973 C992 0.951 . S
H974 C994 0.950 . S
H975 C995 0.950 . S
H976 C997 0.950 . S
H977 C1000 0.950 . S
H978 C1001 0.950 . S
H979 C1003 0.950 . S
H980 C1004 0.950 . S
H981 C1005 0.951 1_556 S
H982 C1007 0.951 . S
H983 C1009 0.950 . S
H984 C1010 0.950 . S
H985 C1012 0.950 . S
H986 C1015 0.950 . S
H987 C1016 0.950 . S
H988 C1018 0.950 . S
H989 C1019 0.950 . S
C990 H972 0.951 . S
C990 C991 1.366 . S
C990 C992 1.388 . S
C991 C990 1.366 . S
C991 C995 1.385 . S
C992 H973 0.951 . S
C992 C990 1.388 . S
C992 C993 1.366 . S
C993 C992 1.366 . S
C993 C994 1.414 . S
C993 C996 1.499 . S
C994 H974 0.950 . S
C994 C993 1.414 . S
C994 C995 1.374 . S
C995 H975 0.950 . S
C995 C991 1.385 . S
C995 C994 1.374 . S
C996 C993 1.499 . S
C996 C997 1.373 . S
C996 C998 1.389 . S
C997 H976 0.950 . S
C997 C996 1.373 . S
C997 C1013 1.377 . S
C998 C996 1.389 . S
C998 C999 1.524 . S
C998 C1012 1.377 . S
C999 C998 1.524 . S
C999 C1000 1.397 . S
C999 C1004 1.363 . S
C1000 H977 0.950 . S
C1000 C999 1.397 . S
C1000 C1001 1.334 . S
C1001 H978 0.950 . S
C1001 C1000 1.334 . S
C1001 C1002 1.287 . S
C1002 C1001 1.287 . S
C1002 C1003 1.524 . S
C1002 H1021 0.913 . S
C1003 H979 0.950 . S
C1003 C1002 1.524 . S
C1003 C1004 1.415 . S
C1004 H980 0.950 . S
C1004 C999 1.363 . S
C1004 C1003 1.415 . S
C1005 H981 0.951 1_554 S
C1005 C1006 1.366 . S
C1005 C1007 1.388 . S
C1006 C1005 1.366 . S
C1006 C1010 1.385 . S
C1007 H982 0.951 . S
C1007 C1005 1.388 . S
C1007 C1008 1.366 . S
C1008 C1007 1.366 . S
C1008 C1009 1.414 . S
C1008 C1011 1.499 . S
C1009 H983 0.950 . S
C1009 C1008 1.414 . S
C1009 C1010 1.374 . S
C1010 H984 0.950 . S
C1010 C1006 1.385 . S
C1010 C1009 1.374 . S
C1011 C1008 1.499 . S
C1011 C1012 1.373 . S
C1011 C1013 1.389 . S
C1012 H985 0.950 . S
C1012 C998 1.377 . S
C1012 C1011 1.373 . S
C1013 C997 1.377 . S
C1013 C1011 1.389 . S
C1013 C1014 1.524 . S
C1014 C1013 1.524 . S
C1014 C1015 1.397 . S
C1014 C1019 1.363 . S
C1015 H986 0.950 . S
C1015 C1014 1.397 . S
C1015 C1016 1.334 . S
C1016 H987 0.950 . S
C1016 C1015 1.334 . S
C1016 C1017 1.287 1_554 S
C1017 C1016 1.287 1_556 S
C1017 C1018 1.524 . S
C1017 H1020 0.999 . S
C1018 H988 0.950 . S
C1018 C1017 1.524 . S
C1018 C1019 1.415 1_556 S
C1019 H989 0.950 . S
C1019 C1014 1.363 . S
C1019 C1018 1.415 1_554 S
H1020 C1017 0.999 . S
H1021 C1002 0.913 . S
H1022 C1040 0.951 . S
H1023 C1042 0.951 . S
H1024 C1044 0.950 . S
H1025 C1045 0.950 . S
H1026 C1047 0.950 . S
H1027 C1050 0.950 . S
H1028 C1051 0.950 . S
H1029 C1053 0.950 . S
H1030 C1054 0.950 . S
H1031 C1055 0.951 . S
H1032 C1057 0.951 . S
H1033 C1059 0.950 . S
H1034 C1060 0.950 . S
H1035 C1062 0.950 . S
H1036 C1065 0.950 . S
H1037 C1066 0.950 . S
H1038 C1068 0.950 . S
H1039 C1069 0.950 . S
C1040 H1022 0.951 . S
C1040 C1041 1.366 . S
C1040 C1042 1.388 . S
C1041 C1040 1.366 . S
C1041 C1045 1.385 . S
C1042 H1023 0.951 . S
C1042 C1040 1.388 . S
C1042 C1043 1.366 . S
C1043 C1042 1.366 . S
C1043 C1044 1.414 . S
C1043 C1046 1.499 . S
C1044 H1024 0.950 . S
C1044 C1043 1.414 . S
C1044 C1045 1.374 . S
C1045 H1025 0.950 . S
C1045 C1041 1.385 . S
C1045 C1044 1.374 . S
C1046 C1043 1.499 . S
C1046 C1047 1.373 . S
C1046 C1048 1.389 . S
C1047 H1026 0.950 . S
C1047 C1046 1.373 . S
C1047 C1063 1.377 . S
C1048 C1046 1.389 . S
C1048 C1049 1.524 . S
C1048 C1062 1.377 . S
C1049 C1048 1.524 . S
C1049 C1050 1.397 . S
C1049 C1054 1.363 . S
C1050 H1027 0.950 . S
C1050 C1049 1.397 . S
C1050 C1051 1.334 . S
C1051 H1028 0.950 . S
C1051 C1050 1.334 . S
C1051 C1052 1.287 . S
C1052 C1051 1.287 . S
C1052 C1053 1.524 . S
C1052 H1071 0.913 . S
C1053 H1029 0.950 . S
C1053 C1052 1.524 . S
C1053 C1054 1.415 . S
C1054 H1030 0.950 . S
C1054 C1049 1.363 . S
C1054 C1053 1.415 . S
C1055 H1031 0.951 . S
C1055 C1056 1.366 . S
C1055 C1057 1.388 . S
C1056 C1055 1.366 . S
C1056 C1060 1.385 . S
C1057 H1032 0.951 . S
C1057 C1055 1.388 . S
C1057 C1058 1.366 . S
C1058 C1057 1.366 . S
C1058 C1059 1.414 . S
C1058 C1061 1.499 . S
C1059 H1033 0.950 . S
C1059 C1058 1.414 . S
C1059 C1060 1.374 . S
C1060 H1034 0.950 . S
C1060 C1056 1.385 . S
C1060 C1059 1.374 . S
C1061 C1058 1.499 . S
C1061 C1062 1.373 . S
C1061 C1063 1.389 . S
C1062 H1035 0.950 . S
C1062 C1048 1.377 . S
C1062 C1061 1.373 . S
C1063 C1047 1.377 . S
C1063 C1061 1.389 . S
C1063 C1064 1.524 . S
C1064 C1063 1.524 . S
C1064 C1065 1.397 . S
C1064 C1069 1.363 . S
C1065 H1036 0.950 . S
C1065 C1064 1.397 . S
C1065 C1066 1.334 1_556 S
C1066 H1037 0.950 . S
C1066 C1065 1.334 1_554 S
C1066 C1067 1.287 . S
C1067 C1066 1.287 . S
C1067 C1068 1.524 1_554 S
C1067 H1070 0.999 . S
C1068 H1038 0.950 . S
C1068 C1067 1.524 1_556 S
C1068 C1069 1.415 . S
C1069 H1039 0.950 . S
C1069 C1064 1.363 . S
C1069 C1068 1.415 . S
H1070 C1067 0.999 . S
H1071 C1052 0.913 . S
H1072 C1090 0.951 . S
H1073 C1092 0.951 . S
H1074 C1094 0.950 . S
H1075 C1095 0.950 1_554 S
H1076 C1097 0.950 . S
H1077 C1100 0.950 . S
H1078 C1101 0.950 . S
H1079 C1103 0.950 . S
H1080 C1104 0.950 . S
H1081 C1105 0.951 . S
H1082 C1107 0.951 . S
H1083 C1109 0.950 . S
H1084 C1110 0.950 . S
H1085 C1112 0.950 . S
H1086 C1115 0.950 . S
H1087 C1116 0.950 . S
H1088 C1118 0.950 . S
H1089 C1119 0.950 . S
C1090 H1072 0.951 . S
C1090 C1091 1.366 . S
C1090 C1092 1.388 . S
C1091 C1090 1.366 . S
C1091 C1095 1.385 . S
C1092 H1073 0.951 . S
C1092 C1090 1.388 . S
C1092 C1093 1.366 . S
C1093 C1092 1.366 . S
C1093 C1094 1.414 . S
C1093 C1096 1.499 . S
C1094 H1074 0.950 . S
C1094 C1093 1.414 . S
C1094 C1095 1.374 . S
C1095 H1075 0.950 1_556 S
C1095 C1091 1.385 . S
C1095 C1094 1.374 . S
C1096 C1093 1.499 . S
C1096 C1097 1.373 . S
C1096 C1098 1.389 . S
C1097 H1076 0.950 . S
C1097 C1096 1.373 . S
C1097 C1113 1.377 . S
C1098 C1096 1.389 . S
C1098 C1099 1.524 . S
C1098 C1112 1.377 . S
C1099 C1098 1.524 . S
C1099 C1100 1.397 . S
C1099 C1104 1.363 . S
C1100 H1077 0.950 . S
C1100 C1099 1.397 . S
C1100 C1101 1.334 . S
C1101 H1078 0.950 . S
C1101 C1100 1.334 . S
C1101 C1102 1.287 . S
C1102 C1101 1.287 . S
C1102 C1103 1.524 . S
C1102 H1121 0.913 . S
C1103 H1079 0.950 . S
C1103 C1102 1.524 . S
C1103 C1104 1.415 . S
C1104 H1080 0.950 . S
C1104 C1099 1.363 . S
C1104 C1103 1.415 . S
C1105 H1081 0.951 . S
C1105 C1106 1.366 . S
C1105 C1107 1.388 . S
C1106 C1105 1.366 . S
C1106 C1110 1.385 . S
C1107 H1082 0.951 . S
C1107 C1105 1.388 . S
C1107 C1108 1.366 . S
C1108 C1107 1.366 . S
C1108 C1109 1.414 . S
C1108 C1111 1.499 . S
C1109 H1083 0.950 . S
C1109 C1108 1.414 . S
C1109 C1110 1.374 . S
C1110 H1084 0.950 . S
C1110 C1106 1.385 . S
C1110 C1109 1.374 . S
C1111 C1108 1.499 . S
C1111 C1112 1.373 . S
C1111 C1113 1.389 . S
C1112 H1085 0.950 . S
C1112 C1098 1.377 . S
C1112 C1111 1.373 . S
C1113 C1097 1.377 . S
C1113 C1111 1.389 . S
C1113 C1114 1.524 . S
C1114 C1113 1.524 . S
C1114 C1115 1.397 . S
C1114 C1119 1.363 . S
C1115 H1086 0.950 . S
C1115 C1114 1.397 . S
C1115 C1116 1.334 . S
C1116 H1087 0.950 . S
C1116 C1115 1.334 . S
C1116 C1117 1.287 . S
C1117 C1116 1.287 . S
C1117 C1118 1.524 . S
C1117 H1120 0.999 . S
C1118 H1088 0.950 . S
C1118 C1117 1.524 . S
C1118 C1119 1.415 . S
C1119 H1089 0.950 . S
C1119 C1114 1.363 . S
C1119 C1118 1.415 . S
H1120 C1117 0.999 . S
H1121 C1102 0.913 . S
H1122 C1140 0.951 . S
H1123 C1142 0.951 . S
H1124 C1144 0.950 . S
H1125 C1145 0.950 . S
H1126 C1147 0.950 . S
H1127 C1150 0.950 . S
H1128 C1151 0.950 . S
H1129 C1153 0.950 1_556 S
H1130 C1154 0.950 . S
H1131 C1155 0.951 . S
H1132 C1157 0.951 . S
H1133 C1159 0.950 . S
H1134 C1160 0.950 1_556 S
H1135 C1162 0.950 . S
H1136 C1165 0.950 . S
H1137 C1166 0.950 . S
H1138 C1168 0.950 . S
H1139 C1169 0.950 . S
C1140 H1122 0.951 . S
C1140 C1141 1.366 . S
C1140 C1142 1.388 . S
C1141 C1140 1.366 . S
C1141 C1145 1.385 . S
C1142 H1123 0.951 . S
C1142 C1140 1.388 . S
C1142 C1143 1.366 . S
C1143 C1142 1.366 . S
C1143 C1144 1.414 . S
C1143 C1146 1.499 . S
C1144 H1124 0.950 . S
C1144 C1143 1.414 . S
C1144 C1145 1.374 . S
C1145 H1125 0.950 . S
C1145 C1141 1.385 . S
C1145 C1144 1.374 . S
C1146 C1143 1.499 . S
C1146 C1147 1.373 . S
C1146 C1148 1.389 . S
C1147 H1126 0.950 . S
C1147 C1146 1.373 . S
C1147 C1163 1.377 . S
C1148 C1146 1.389 . S
C1148 C1149 1.524 . S
C1148 C1162 1.377 . S
C1149 C1148 1.524 . S
C1149 C1150 1.397 . S
C1149 C1154 1.363 . S
C1150 H1127 0.950 . S
C1150 C1149 1.397 . S
C1150 C1151 1.334 . S
C1151 H1128 0.950 . S
C1151 C1150 1.334 . S
C1151 C1152 1.287 . S
C1152 C1151 1.287 . S
C1152 C1153 1.524 . S
C1152 H1171 0.913 . S
C1153 H1129 0.950 1_554 S
C1153 C1152 1.524 . S
C1153 C1154 1.415 . S
C1154 H1130 0.950 . S
C1154 C1149 1.363 . S
C1154 C1153 1.415 . S
C1155 H1131 0.951 . S
C1155 C1156 1.366 . S
C1155 C1157 1.388 . S
C1156 C1155 1.366 . S
C1156 C1160 1.385 . S
C1157 H1132 0.951 . S
C1157 C1155 1.388 . S
C1157 C1158 1.366 . S
C1158 C1157 1.366 . S
C1158 C1159 1.414 . S
C1158 C1161 1.499 . S
C1159 H1133 0.950 . S
C1159 C1158 1.414 . S
C1159 C1160 1.374 . S
C1160 H1134 0.950 1_554 S
C1160 C1156 1.385 . S
C1160 C1159 1.374 . S
C1161 C1158 1.499 . S
C1161 C1162 1.373 . S
C1161 C1163 1.389 . S
C1162 H1135 0.950 . S
C1162 C1148 1.377 . S
C1162 C1161 1.373 . S
C1163 C1147 1.377 . S
C1163 C1161 1.389 . S
C1163 C1164 1.524 . S
C1164 C1163 1.524 . S
C1164 C1165 1.397 . S
C1164 C1169 1.363 . S
C1165 H1136 0.950 . S
C1165 C1164 1.397 . S
C1165 C1166 1.334 . S
C1166 H1137 0.950 . S
C1166 C1165 1.334 . S
C1166 C1167 1.287 . S
C1167 C1166 1.287 . S
C1167 C1168 1.524 . S
C1167 H1170 0.999 . S
C1168 H1138 0.950 . S
C1168 C1167 1.524 . S
C1168 C1169 1.415 . S
C1169 H1139 0.950 . S
C1169 C1164 1.363 . S
C1169 C1168 1.415 . S
H1170 C1167 0.999 . S
H1171 C1152 0.913 . S
H1172 C1190 0.951 . S
H1173 C1192 0.951 . S
H1174 C1194 0.950 . S
H1175 C1195 0.950 . S
H1176 C1197 0.950 . S
H1177 C1200 0.950 . S
H1178 C1201 0.950 . S
H1179 C1203 0.950 . S
H1180 C1204 0.950 . S
H1181 C1205 0.951 . S
H1182 C1207 0.951 . S
H1183 C1209 0.950 . S
H1184 C1210 0.950 . S
H1185 C1212 0.950 . S
H1186 C1215 0.950 . S
H1187 C1216 0.950 . S
H1188 C1218 0.950 . S
H1189 C1219 0.950 . S
C1190 H1172 0.951 . S
C1190 C1191 1.366 . S
C1190 C1192 1.388 . S
C1191 C1190 1.366 . S
C1191 C1195 1.385 . S
C1192 H1173 0.951 . S
C1192 C1190 1.388 . S
C1192 C1193 1.366 . S
C1193 C1192 1.366 . S
C1193 C1194 1.414 . S
C1193 C1196 1.499 . S
C1194 H1174 0.950 . S
C1194 C1193 1.414 . S
C1194 C1195 1.374 . S
C1195 H1175 0.950 . S
C1195 C1191 1.385 . S
C1195 C1194 1.374 . S
C1196 C1193 1.499 . S
C1196 C1197 1.373 . S
C1196 C1198 1.389 . S
C1197 H1176 0.950 . S
C1197 C1196 1.373 . S
C1197 C1213 1.377 . S
C1198 C1196 1.389 . S
C1198 C1199 1.524 . S
C1198 C1212 1.377 . S
C1199 C1198 1.524 . S
C1199 C1200 1.397 . S
C1199 C1204 1.363 . S
C1200 H1177 0.950 . S
C1200 C1199 1.397 . S
C1200 C1201 1.334 . S
C1201 H1178 0.950 . S
C1201 C1200 1.334 . S
C1201 C1202 1.287 . S
C1202 C1201 1.287 . S
C1202 C1203 1.524 . S
C1202 H1221 0.913 . S
C1203 H1179 0.950 . S
C1203 C1202 1.524 . S
C1203 C1204 1.415 . S
C1204 H1180 0.950 . S
C1204 C1199 1.363 . S
C1204 C1203 1.415 . S
C1205 H1181 0.951 . S
C1205 C1206 1.366 . S
C1205 C1207 1.388 . S
C1206 C1205 1.366 . S
C1206 C1210 1.385 . S
C1207 H1182 0.951 . S
C1207 C1205 1.388 . S
C1207 C1208 1.366 . S
C1208 C1207 1.366 . S
C1208 C1209 1.414 . S
C1208 C1211 1.499 . S
C1209 H1183 0.950 . S
C1209 C1208 1.414 . S
C1209 C1210 1.374 . S
C1210 H1184 0.950 . S
C1210 C1206 1.385 . S
C1210 C1209 1.374 . S
C1211 C1208 1.499 . S
C1211 C1212 1.373 . S
C1211 C1213 1.389 . S
C1212 H1185 0.950 . S
C1212 C1198 1.377 . S
C1212 C1211 1.373 . S
C1213 C1197 1.377 . S
C1213 C1211 1.389 . S
C1213 C1214 1.524 . S
C1214 C1213 1.524 . S
C1214 C1215 1.397 . S
C1214 C1219 1.363 . S
C1215 H1186 0.950 . S
C1215 C1214 1.397 . S
C1215 C1216 1.334 . S
C1216 H1187 0.950 . S
C1216 C1215 1.334 . S
C1216 C1217 1.287 . S
C1217 C1216 1.287 . S
C1217 C1218 1.524 . S
C1217 H1220 0.999 . S
C1218 H1188 0.950 . S
C1218 C1217 1.524 . S
C1218 C1219 1.415 . S
C1219 H1189 0.950 . S
C1219 C1214 1.363 . S
C1219 C1218 1.415 . S
H1220 C1217 0.999 . S
H1221 C1202 0.913 . S
H1222 C1240 0.951 . S
H1223 C1242 0.951 . S
H1224 C1244 0.950 . S
H1225 C1245 0.950 . S
H1226 C1247 0.950 . S
H1227 C1250 0.950 . S
H1228 C1251 0.950 . S
H1229 C1253 0.950 . S
H1230 C1254 0.950 . S
H1231 C1255 0.951 . S
H1232 C1257 0.951 . S
H1233 C1259 0.950 . S
H1234 C1260 0.950 . S
H1235 C1262 0.950 . S
H1236 C1265 0.950 . S
H1237 C1266 0.950 . S
H1238 C1268 0.950 . S
H1239 C1269 0.950 . S
C1240 H1222 0.951 . S
C1240 C1241 1.366 . S
C1240 C1242 1.388 . S
C1241 C1240 1.366 . S
C1241 C1245 1.385 . S
C1242 H1223 0.951 . S
C1242 C1240 1.388 . S
C1242 C1243 1.366 . S
C1243 C1242 1.366 . S
C1243 C1244 1.414 . S
C1243 C1246 1.499 . S
C1244 H1224 0.950 . S
C1244 C1243 1.414 . S
C1244 C1245 1.374 . S
C1245 H1225 0.950 . S
C1245 C1241 1.385 . S
C1245 C1244 1.374 . S
C1246 C1243 1.499 . S
C1246 C1247 1.373 . S
C1246 C1248 1.389 . S
C1247 H1226 0.950 . S
C1247 C1246 1.373 . S
C1247 C1263 1.377 . S
C1248 C1246 1.389 . S
C1248 C1249 1.524 . S
C1248 C1262 1.377 . S
C1249 C1248 1.524 . S
C1249 C1250 1.397 . S
C1249 C1254 1.363 . S
C1250 H1227 0.950 . S
C1250 C1249 1.397 . S
C1250 C1251 1.334 . S
C1251 H1228 0.950 . S
C1251 C1250 1.334 . S
C1251 C1252 1.287 . S
C1252 C1251 1.287 . S
C1252 C1253 1.524 . S
C1252 H1271 0.913 . S
C1253 H1229 0.950 . S
C1253 C1252 1.524 . S
C1253 C1254 1.415 . S
C1254 H1230 0.950 . S
C1254 C1249 1.363 . S
C1254 C1253 1.415 . S
C1255 H1231 0.951 . S
C1255 C1256 1.366 . S
C1255 C1257 1.388 . S
C1256 C1255 1.366 . S
C1256 C1260 1.385 . S
C1257 H1232 0.951 . S
C1257 C1255 1.388 . S
C1257 C1258 1.366 . S
C1258 C1257 1.366 . S
C1258 C1259 1.414 . S
C1258 C1261 1.499 . S
C1259 H1233 0.950 . S
C1259 C1258 1.414 . S
C1259 C1260 1.374 . S
C1260 H1234 0.950 . S
C1260 C1256 1.385 . S
C1260 C1259 1.374 . S
C1261 C1258 1.499 . S
C1261 C1262 1.373 . S
C1261 C1263 1.389 . S
C1262 H1235 0.950 . S
C1262 C1248 1.377 . S
C1262 C1261 1.373 . S
C1263 C1247 1.377 . S
C1263 C1261 1.389 . S
C1263 C1264 1.524 . S
C1264 C1263 1.524 . S
C1264 C1265 1.397 . S
C1264 C1269 1.363 . S
C1265 H1236 0.950 . S
C1265 C1264 1.397 . S
C1265 C1266 1.334 . S
C1266 H1237 0.950 . S
C1266 C1265 1.334 . S
C1266 C1267 1.287 . S
C1267 C1266 1.287 . S
C1267 C1268 1.524 . S
C1267 H1270 0.999 . S
C1268 H1238 0.950 . S
C1268 C1267 1.524 . S
C1268 C1269 1.415 . S
C1269 H1239 0.950 . S
C1269 C1264 1.363 . S
C1269 C1268 1.415 . S
H1270 C1267 0.999 . S
H1271 C1252 0.913 . S
H1272 C1290 0.951 . S
H1273 C1292 0.951 . S
H1274 C1294 0.950 . S
H1275 C1295 0.950 . S
H1276 C1297 0.950 . S
H1277 C1300 0.950 . S
H1278 C1301 0.950 . S
H1279 C1303 0.950 . S
H1280 C1304 0.950 . S
H1281 C1305 0.951 . S
H1282 C1307 0.951 . S
H1283 C1309 0.950 . S
H1284 C1310 0.950 . S
H1285 C1312 0.950 . S
H1286 C1315 0.950 . S
H1287 C1316 0.950 . S
H1288 C1318 0.950 . S
H1289 C1319 0.950 . S
C1290 H1272 0.951 . S
C1290 C1291 1.366 . S
C1290 C1292 1.388 . S
C1291 C1290 1.366 . S
C1291 C1295 1.385 . S
C1292 H1273 0.951 . S
C1292 C1290 1.388 . S
C1292 C1293 1.366 . S
C1293 C1292 1.366 . S
C1293 C1294 1.414 . S
C1293 C1296 1.499 . S
C1294 H1274 0.950 . S
C1294 C1293 1.414 . S
C1294 C1295 1.374 . S
C1295 H1275 0.950 . S
C1295 C1291 1.385 . S
C1295 C1294 1.374 . S
C1296 C1293 1.499 . S
C1296 C1297 1.373 . S
C1296 C1298 1.389 . S
C1297 H1276 0.950 . S
C1297 C1296 1.373 . S
C1297 C1313 1.377 . S
C1298 C1296 1.389 . S
C1298 C1299 1.524 . S
C1298 C1312 1.377 . S
C1299 C1298 1.524 . S
C1299 C1300 1.397 . S
C1299 C1304 1.363 . S
C1300 H1277 0.950 . S
C1300 C1299 1.397 . S
C1300 C1301 1.334 . S
C1301 H1278 0.950 . S
C1301 C1300 1.334 . S
C1301 C1302 1.287 . S
C1302 C1301 1.287 . S
C1302 C1303 1.524 . S
C1302 H1321 0.913 . S
C1303 H1279 0.950 . S
C1303 C1302 1.524 . S
C1303 C1304 1.415 . S
C1304 H1280 0.950 . S
C1304 C1299 1.363 . S
C1304 C1303 1.415 . S
C1305 H1281 0.951 . S
C1305 C1306 1.366 . S
C1305 C1307 1.388 . S
C1306 C1305 1.366 . S
C1306 C1310 1.385 . S
C1307 H1282 0.951 . S
C1307 C1305 1.388 . S
C1307 C1308 1.366 . S
C1308 C1307 1.366 . S
C1308 C1309 1.414 . S
C1308 C1311 1.499 . S
C1309 H1283 0.950 . S
C1309 C1308 1.414 . S
C1309 C1310 1.374 . S
C1310 H1284 0.950 . S
C1310 C1306 1.385 . S
C1310 C1309 1.374 . S
C1311 C1308 1.499 . S
C1311 C1312 1.373 . S
C1311 C1313 1.389 . S
C1312 H1285 0.950 . S
C1312 C1298 1.377 . S
C1312 C1311 1.373 . S
C1313 C1297 1.377 . S
C1313 C1311 1.389 . S
C1313 C1314 1.524 . S
C1314 C1313 1.524 . S
C1314 C1315 1.397 . S
C1314 C1319 1.363 . S
C1315 H1286 0.950 . S
C1315 C1314 1.397 . S
C1315 C1316 1.334 1_554 S
C1316 H1287 0.950 . S
C1316 C1315 1.334 1_556 S
C1316 C1317 1.287 . S
C1317 C1316 1.287 . S
C1317 C1318 1.524 . S
C1317 H1320 0.999 . S
C1318 H1288 0.950 . S
C1318 C1317 1.524 . S
C1318 C1319 1.415 1_556 S
C1319 H1289 0.950 . S
C1319 C1314 1.363 . S
C1319 C1318 1.415 1_554 S
H1320 C1317 0.999 . S
H1321 C1302 0.913 . S
H1322 C1340 0.951 . S
H1323 C1342 0.951 . S
H1324 C1344 0.950 . S
H1325 C1345 0.950 . S
H1326 C1347 0.950 . S
H1327 C1350 0.950 . S
H1328 C1351 0.950 . S
H1329 C1353 0.950 . S
H1330 C1354 0.950 . S
H1331 C1355 0.951 . S
H1332 C1357 0.951 . S
H1333 C1359 0.950 . S
H1334 C1360 0.950 . S
H1335 C1362 0.950 . S
H1336 C1365 0.950 . S
H1337 C1366 0.950 . S
H1338 C1368 0.950 . S
H1339 C1369 0.950 . S
C1340 H1322 0.951 . S
C1340 C1341 1.366 . S
C1340 C1342 1.388 . S
C1341 C1340 1.366 . S
C1341 C1345 1.385 . S
C1342 H1323 0.951 . S
C1342 C1340 1.388 . S
C1342 C1343 1.366 . S
C1343 C1342 1.366 . S
C1343 C1344 1.414 . S
C1343 C1346 1.499 . S
C1344 H1324 0.950 . S
C1344 C1343 1.414 . S
C1344 C1345 1.374 . S
C1345 H1325 0.950 . S
C1345 C1341 1.385 . S
C1345 C1344 1.374 . S
C1346 C1343 1.499 . S
C1346 C1347 1.373 . S
C1346 C1348 1.389 . S
C1347 H1326 0.950 . S
C1347 C1346 1.373 . S
C1347 C1363 1.377 . S
C1348 C1346 1.389 . S
C1348 C1349 1.524 . S
C1348 C1362 1.377 . S
C1349 C1348 1.524 . S
C1349 C1350 1.397 . S
C1349 C1354 1.363 . S
C1350 H1327 0.950 . S
C1350 C1349 1.397 . S
C1350 C1351 1.334 . S
C1351 H1328 0.950 . S
C1351 C1350 1.334 . S
C1351 C1352 1.287 . S
C1352 C1351 1.287 . S
C1352 C1353 1.524 . S
C1352 H1371 0.913 . S
C1353 H1329 0.950 . S
C1353 C1352 1.524 . S
C1353 C1354 1.415 . S
C1354 H1330 0.950 . S
C1354 C1349 1.363 . S
C1354 C1353 1.415 . S
C1355 H1331 0.951 . S
C1355 C1356 1.366 . S
C1355 C1357 1.388 . S
C1356 C1355 1.366 . S
C1356 C1360 1.385 . S
C1357 H1332 0.951 . S
C1357 C1355 1.388 . S
C1357 C1358 1.366 . S
C1358 C1357 1.366 . S
C1358 C1359 1.414 . S
C1358 C1361 1.499 . S
C1359 H1333 0.950 . S
C1359 C1358 1.414 . S
C1359 C1360 1.374 . S
C1360 H1334 0.950 . S
C1360 C1356 1.385 . S
C1360 C1359 1.374 . S
C1361 C1358 1.499 . S
C1361 C1362 1.373 . S
C1361 C1363 1.389 . S
C1362 H1335 0.950 . S
C1362 C1348 1.377 . S
C1362 C1361 1.373 . S
C1363 C1347 1.377 . S
C1363 C1361 1.389 . S
C1363 C1364 1.524 . S
C1364 C1363 1.524 . S
C1364 C1365 1.397 . S
C1364 C1369 1.363 . S
C1365 H1336 0.950 . S
C1365 C1364 1.397 . S
C1365 C1366 1.334 . S
C1366 H1337 0.950 . S
C1366 C1365 1.334 . S
C1366 C1367 1.287 . S
C1367 C1366 1.287 . S
C1367 C1368 1.524 . S
C1367 H1370 0.999 . S
C1368 H1338 0.950 . S
C1368 C1367 1.524 . S
C1368 C1369 1.415 . S
C1369 H1339 0.950 . S
C1369 C1364 1.363 . S
C1369 C1368 1.415 . S
H1370 C1367 0.999 . S
H1371 C1352 0.913 . S
H1372 C1390 0.951 . S
H1373 C1392 0.951 . S
H1374 C1394 0.950 . S
H1375 C1395 0.950 . S
H1376 C1397 0.950 . S
H1377 C1400 0.950 . S
H1378 C1401 0.950 . S
H1379 C1403 0.950 . S
H1380 C1404 0.950 . S
H1381 C1405 0.951 . S
H1382 C1407 0.951 . S
H1383 C1409 0.950 . S
H1384 C1410 0.950 . S
H1385 C1412 0.950 . S
H1386 C1415 0.950 . S
H1387 C1416 0.950 . S
H1388 C1418 0.950 . S
H1389 C1419 0.950 . S
C1390 H1372 0.951 . S
C1390 C1391 1.366 . S
C1390 C1392 1.388 . S
C1391 C1390 1.366 . S
C1391 C1395 1.385 . S
C1392 H1373 0.951 . S
C1392 C1390 1.388 . S
C1392 C1393 1.366 . S
C1393 C1392 1.366 . S
C1393 C1394 1.414 . S
C1393 C1396 1.499 . S
C1394 H1374 0.950 . S
C1394 C1393 1.414 . S
C1394 C1395 1.374 . S
C1395 H1375 0.950 . S
C1395 C1391 1.385 . S
C1395 C1394 1.374 . S
C1396 C1393 1.499 . S
C1396 C1397 1.373 . S
C1396 C1398 1.389 . S
C1397 H1376 0.950 . S
C1397 C1396 1.373 . S
C1397 C1413 1.377 . S
C1398 C1396 1.389 . S
C1398 C1399 1.524 . S
C1398 C1412 1.377 . S
C1399 C1398 1.524 . S
C1399 C1400 1.397 . S
C1399 C1404 1.363 . S
C1400 H1377 0.950 . S
C1400 C1399 1.397 . S
C1400 C1401 1.334 . S
C1401 H1378 0.950 . S
C1401 C1400 1.334 . S
C1401 C1402 1.287 . S
C1402 C1401 1.287 . S
C1402 C1403 1.524 . S
C1402 H1421 0.913 . S
C1403 H1379 0.950 . S
C1403 C1402 1.524 . S
C1403 C1404 1.415 . S
C1404 H1380 0.950 . S
C1404 C1399 1.363 . S
C1404 C1403 1.415 . S
C1405 H1381 0.951 . S
C1405 C1406 1.366 . S
C1405 C1407 1.388 . S
C1406 C1405 1.366 . S
C1406 C1410 1.385 . S
C1407 H1382 0.951 . S
C1407 C1405 1.388 . S
C1407 C1408 1.366 . S
C1408 C1407 1.366 . S
C1408 C1409 1.414 . S
C1408 C1411 1.499 . S
C1409 H1383 0.950 . S
C1409 C1408 1.414 . S
C1409 C1410 1.374 . S
C1410 H1384 0.950 . S
C1410 C1406 1.385 . S
C1410 C1409 1.374 . S
C1411 C1408 1.499 . S
C1411 C1412 1.373 . S
C1411 C1413 1.389 . S
C1412 H1385 0.950 . S
C1412 C1398 1.377 . S
C1412 C1411 1.373 . S
C1413 C1397 1.377 . S
C1413 C1411 1.389 . S
C1413 C1414 1.524 . S
C1414 C1413 1.524 . S
C1414 C1415 1.397 . S
C1414 C1419 1.363 . S
C1415 H1386 0.950 . S
C1415 C1414 1.397 . S
C1415 C1416 1.334 . S
C1416 H1387 0.950 . S
C1416 C1415 1.334 . S
C1416 C1417 1.287 . S
C1417 C1416 1.287 . S
C1417 C1418 1.524 . S
C1417 H1420 0.999 . S
C1418 H1388 0.950 . S
C1418 C1417 1.524 . S
C1418 C1419 1.415 . S
C1419 H1389 0.950 . S
C1419 C1414 1.363 . S
C1419 C1418 1.415 . S
H1420 C1417 0.999 . S
H1421 C1402 0.913 . S
H1422 C1440 0.951 . S
H1423 C1442 0.951 . S
H1424 C1444 0.950 . S
H1425 C1445 0.950 . S
H1426 C1447 0.950 . S
H1427 C1450 0.950 . S
H1428 C1451 0.950 . S
H1429 C1453 0.950 . S
H1430 C1454 0.950 . S
H1431 C1455 0.951 . S
H1432 C1457 0.951 . S
H1433 C1459 0.950 . S
H1434 C1460 0.950 . S
H1435 C1462 0.950 . S
H1436 C1465 0.950 . S
H1437 C1466 0.950 . S
H1438 C1468 0.950 . S
H1439 C1469 0.950 . S
C1440 H1422 0.951 . S
C1440 C1441 1.366 . S
C1440 C1442 1.388 . S
C1441 C1440 1.366 . S
C1441 C1445 1.385 . S
C1442 H1423 0.951 . S
C1442 C1440 1.388 . S
C1442 C1443 1.366 . S
C1443 C1442 1.366 . S
C1443 C1444 1.414 . S
C1443 C1446 1.499 . S
C1444 H1424 0.950 . S
C1444 C1443 1.414 . S
C1444 C1445 1.374 . S
C1445 H1425 0.950 . S
C1445 C1441 1.385 . S
C1445 C1444 1.374 . S
C1446 C1443 1.499 . S
C1446 C1447 1.373 . S
C1446 C1448 1.389 . S
C1447 H1426 0.950 . S
C1447 C1446 1.373 . S
C1447 C1463 1.377 . S
C1448 C1446 1.389 . S
C1448 C1449 1.524 . S
C1448 C1462 1.377 . S
C1449 C1448 1.524 . S
C1449 C1450 1.397 . S
C1449 C1454 1.363 . S
C1450 H1427 0.950 . S
C1450 C1449 1.397 . S
C1450 C1451 1.334 . S
C1451 H1428 0.950 . S
C1451 C1450 1.334 . S
C1451 C1452 1.287 . S
C1452 C1451 1.287 . S
C1452 C1453 1.524 . S
C1452 H1471 0.913 . S
C1453 H1429 0.950 . S
C1453 C1452 1.524 . S
C1453 C1454 1.415 . S
C1454 H1430 0.950 . S
C1454 C1449 1.363 . S
C1454 C1453 1.415 . S
C1455 H1431 0.951 . S
C1455 C1456 1.366 . S
C1455 C1457 1.388 . S
C1456 C1455 1.366 . S
C1456 C1460 1.385 . S
C1457 H1432 0.951 . S
C1457 C1455 1.388 . S
C1457 C1458 1.366 . S
C1458 C1457 1.366 . S
C1458 C1459 1.414 . S
C1458 C1461 1.499 . S
C1459 H1433 0.950 . S
C1459 C1458 1.414 . S
C1459 C1460 1.374 . S
C1460 H1434 0.950 . S
C1460 C1456 1.385 . S
C1460 C1459 1.374 . S
C1461 C1458 1.499 . S
C1461 C1462 1.373 . S
C1461 C1463 1.389 . S
C1462 H1435 0.950 . S
C1462 C1448 1.377 . S
C1462 C1461 1.373 . S
C1463 C1447 1.377 . S
C1463 C1461 1.389 . S
C1463 C1464 1.524 . S
C1464 C1463 1.524 . S
C1464 C1465 1.397 . S
C1464 C1469 1.363 . S
C1465 H1436 0.950 . S
C1465 C1464 1.397 . S
C1465 C1466 1.334 . S
C1466 H1437 0.950 . S
C1466 C1465 1.334 . S
C1466 C1467 1.287 . S
C1467 C1466 1.287 . S
C1467 C1468 1.524 . S
C1467 H1470 0.999 . S
C1468 H1438 0.950 . S
C1468 C1467 1.524 . S
C1468 C1469 1.415 . S
C1469 H1439 0.950 . S
C1469 C1464 1.363 . S
C1469 C1468 1.415 . S
H1470 C1467 0.999 . S
H1471 C1452 0.913 . S
H1472 C1490 0.956 . S
H1473 C1492 0.954 . S
H1474 C1494 0.950 . S
H1475 C1495 0.950 . S
H1476 C1497 0.950 . S
H1477 C1500 0.950 . S
H1478 C1501 0.950 . S
H1479 C1503 0.950 . S
H1480 C1504 0.950 . S
H1481 C1505 0.955 . S
H1482 C1507 0.953 . S
H1483 C1509 0.950 . S
H1484 C1510 0.950 . S
H1485 C1512 0.950 . S
H1486 C1515 0.950 . S
H1487 C1516 0.950 . S
H1488 C1518 0.950 . S
H1489 C1519 0.950 . S
C1490 H1472 0.956 . S
C1490 C1491 1.363 1_455 S
C1490 C1492 1.388 . S
C1491 C1490 1.363 1_655 S
C1491 C1495 1.385 1_565 S
C1492 H1473 0.954 . S
C1492 C1490 1.388 . S
C1492 C1493 1.363 1_455 S
C1493 C1492 1.363 1_655 S
C1493 C1494 1.414 1_565 S
C1493 C1496 1.499 . S
C1494 H1474 0.950 . S
C1494 C1493 1.414 1_545 S
C1494 C1495 1.374 . S
C1495 H1475 0.950 . S
C1495 C1491 1.385 1_545 S
C1495 C1494 1.374 . S
C1496 C1493 1.499 . S
C1496 C1497 1.373 1_665 S
C1496 C1498 1.389 . S
C1497 H1476 0.950 . S
C1497 C1496 1.373 1_445 S
C1497 C1513 1.377 1_556 S
C1498 C1496 1.389 . S
C1498 C1499 1.524 . S
C1498 C1512 1.377 1_556 S
C1499 C1498 1.524 . S
C1499 C1500 1.397 . S
C1499 C1504 1.363 . S
C1500 H1477 0.950 . S
C1500 C1499 1.397 . S
C1500 C1501 1.334 . S
C1501 H1478 0.950 . S
C1501 C1500 1.334 . S
C1501 C1502 1.287 . S
C1502 C1501 1.287 . S
C1502 C1503 1.524 . S
C1502 H1521 0.913 . S
C1503 H1479 0.950 . S
C1503 C1502 1.524 . S
C1503 C1504 1.415 . S
C1504 H1480 0.950 . S
C1504 C1499 1.363 . S
C1504 C1503 1.415 . S
C1505 H1481 0.955 . S
C1505 C1506 1.363 1_655 S
C1505 C1507 1.388 . S
C1506 C1505 1.363 1_455 S
C1506 C1510 1.385 1_545 S
C1507 H1482 0.953 . S
C1507 C1505 1.388 . S
C1507 C1508 1.364 1_655 S
C1508 C1507 1.364 1_455 S
C1508 C1509 1.414 1_545 S
C1508 C1511 1.499 . S
C1509 H1483 0.950 . S
C1509 C1508 1.414 1_565 S
C1509 C1510 1.374 . S
C1510 H1484 0.950 . S
C1510 C1506 1.385 1_565 S
C1510 C1509 1.374 . S
C1511 C1508 1.499 . S
C1511 C1512 1.373 1_445 S
C1511 C1513 1.389 . S
C1512 H1485 0.950 . S
C1512 C1498 1.377 1_554 S
C1512 C1511 1.373 1_665 S
C1513 C1497 1.377 1_554 S
C1513 C1511 1.389 . S
C1513 C1514 1.524 . S
C1514 C1513 1.524 . S
C1514 C1515 1.397 . S
C1514 C1519 1.363 . S
C1515 H1486 0.950 . S
C1515 C1514 1.397 . S
C1515 C1516 1.334 . S
C1516 H1487 0.950 . S
C1516 C1515 1.334 . S
C1516 C1517 1.287 . S
C1517 C1516 1.287 . S
C1517 C1518 1.524 . S
C1517 H1520 0.999 . S
C1518 H1488 0.950 . S
C1518 C1517 1.524 . S
C1518 C1519 1.415 . S
C1519 H1489 0.950 . S
C1519 C1514 1.363 . S
C1519 C1518 1.415 . S
H1520 C1517 0.999 . S
H1521 C1502 0.913 . S
H1522 C1540 0.951 . S
H1523 C1542 0.951 . S
H1524 C1544 0.950 . S
H1525 C1545 0.950 . S
H1526 C1547 0.950 . S
H1527 C1550 0.950 . S
H1528 C1551 0.950 . S
H1529 C1553 0.950 . S
H1530 C1554 0.950 . S
H1531 C1555 0.951 . S
H1532 C1557 0.951 . S
H1533 C1559 0.950 . S
H1534 C1560 0.950 . S
H1535 C1562 0.950 . S
H1536 C1565 0.950 . S
H1537 C1566 0.950 . S
H1538 C1568 0.950 . S
H1539 C1569 0.950 . S
C1540 H1522 0.951 . S
C1540 C1541 1.366 . S
C1540 C1542 1.388 . S
C1541 C1540 1.366 . S
C1541 C1545 1.385 . S
C1542 H1523 0.951 . S
C1542 C1540 1.388 . S
C1542 C1543 1.366 . S
C1543 C1542 1.366 . S
C1543 C1544 1.414 . S
C1543 C1546 1.499 . S
C1544 H1524 0.950 . S
C1544 C1543 1.414 . S
C1544 C1545 1.374 . S
C1545 H1525 0.950 . S
C1545 C1541 1.385 . S
C1545 C1544 1.374 . S
C1546 C1543 1.499 . S
C1546 C1547 1.373 . S
C1546 C1548 1.389 . S
C1547 H1526 0.950 . S
C1547 C1546 1.373 . S
C1547 C1563 1.377 . S
C1548 C1546 1.389 . S
C1548 C1549 1.524 . S
C1548 C1562 1.377 . S
C1549 C1548 1.524 . S
C1549 C1550 1.397 . S
C1549 C1554 1.363 . S
C1550 H1527 0.950 . S
C1550 C1549 1.397 . S
C1550 C1551 1.334 . S
C1551 H1528 0.950 . S
C1551 C1550 1.334 . S
C1551 C1552 1.287 . S
C1552 C1551 1.287 . S
C1552 C1553 1.524 . S
C1552 H1571 0.913 . S
C1553 H1529 0.950 . S
C1553 C1552 1.524 . S
C1553 C1554 1.415 . S
C1554 H1530 0.950 . S
C1554 C1549 1.363 . S
C1554 C1553 1.415 . S
C1555 H1531 0.951 . S
C1555 C1556 1.366 . S
C1555 C1557 1.388 . S
C1556 C1555 1.366 . S
C1556 C1560 1.385 . S
C1557 H1532 0.951 . S
C1557 C1555 1.388 . S
C1557 C1558 1.366 . S
C1558 C1557 1.366 . S
C1558 C1559 1.414 . S
C1558 C1561 1.499 . S
C1559 H1533 0.950 . S
C1559 C1558 1.414 . S
C1559 C1560 1.374 . S
C1560 H1534 0.950 . S
C1560 C1556 1.385 . S
C1560 C1559 1.374 . S
C1561 C1558 1.499 . S
C1561 C1562 1.373 . S
C1561 C1563 1.389 . S
C1562 H1535 0.950 . S
C1562 C1548 1.377 . S
C1562 C1561 1.373 . S
C1563 C1547 1.377 . S
C1563 C1561 1.389 . S
C1563 C1564 1.524 . S
C1564 C1563 1.524 . S
C1564 C1565 1.397 . S
C1564 C1569 1.363 . S
C1565 H1536 0.950 . S
C1565 C1564 1.397 . S
C1565 C1566 1.334 . S
C1566 H1537 0.950 . S
C1566 C1565 1.334 . S
C1566 C1567 1.287 . S
C1567 C1566 1.287 . S
C1567 C1568 1.524 . S
C1567 H1570 0.999 . S
C1568 H1538 0.950 . S
C1568 C1567 1.524 . S
C1568 C1569 1.415 . S
C1569 H1539 0.950 . S
C1569 C1564 1.363 . S
C1569 C1568 1.415 . S
H1570 C1567 0.999 . S
H1571 C1552 0.913 . S
H1572 C1590 0.951 . S
H1573 C1592 0.951 . S
H1574 C1594 0.950 . S
H1575 C1595 0.950 . S
H1576 C1597 0.950 . S
H1577 C1600 0.950 . S
H1578 C1601 0.950 . S
H1579 C1603 0.950 . S
H1580 C1604 0.950 . S
H1581 C1605 0.951 . S
H1582 C1607 0.951 . S
H1583 C1609 0.950 . S
H1584 C1610 0.950 . S
H1585 C1612 0.950 . S
H1586 C1615 0.950 . S
H1587 C1616 0.950 . S
H1588 C1618 0.950 . S
H1589 C1619 0.950 . S
C1590 H1572 0.951 . S
C1590 C1591 1.366 1_545 S
C1590 C1592 1.388 . S
C1591 C1590 1.366 1_565 S
C1591 C1595 1.385 . S
C1592 H1573 0.951 . S
C1592 C1590 1.388 . S
C1592 C1593 1.366 1_545 S
C1593 C1592 1.366 1_565 S
C1593 C1594 1.414 . S
C1593 C1596 1.499 . S
C1594 H1574 0.950 . S
C1594 C1593 1.414 . S
C1594 C1595 1.374 . S
C1595 H1575 0.950 . S
C1595 C1591 1.385 . S
C1595 C1594 1.374 . S
C1596 C1593 1.499 . S
C1596 C1597 1.373 . S
C1596 C1598 1.389 1_565 S
C1597 H1576 0.950 . S
C1597 C1596 1.373 . S
C1597 C1613 1.377 . S
C1598 C1596 1.389 1_545 S
C1598 C1599 1.524 . S
C1598 C1612 1.377 . S
C1599 C1598 1.524 . S
C1599 C1600 1.397 . S
C1599 C1604 1.363 . S
C1600 H1577 0.950 . S
C1600 C1599 1.397 . S
C1600 C1601 1.334 . S
C1601 H1578 0.950 . S
C1601 C1600 1.334 . S
C1601 C1602 1.287 . S
C1602 C1601 1.287 . S
C1602 C1603 1.524 . S
C1602 H1621 0.913 . S
C1603 H1579 0.950 . S
C1603 C1602 1.524 . S
C1603 C1604 1.415 . S
C1604 H1580 0.950 . S
C1604 C1599 1.363 . S
C1604 C1603 1.415 . S
C1605 H1581 0.951 . S
C1605 C1606 1.366 1_565 S
C1605 C1607 1.388 . S
C1606 C1605 1.366 1_545 S
C1606 C1610 1.385 . S
C1607 H1582 0.951 . S
C1607 C1605 1.388 . S
C1607 C1608 1.366 1_565 S
C1608 C1607 1.366 1_545 S
C1608 C1609 1.414 . S
C1608 C1611 1.499 . S
C1609 H1583 0.950 . S
C1609 C1608 1.414 . S
C1609 C1610 1.374 . S
C1610 H1584 0.950 . S
C1610 C1606 1.385 . S
C1610 C1609 1.374 . S
C1611 C1608 1.499 . S
C1611 C1612 1.373 . S
C1611 C1613 1.389 1_545 S
C1612 H1585 0.950 . S
C1612 C1598 1.377 . S
C1612 C1611 1.373 . S
C1613 C1597 1.377 . S
C1613 C1611 1.389 1_565 S
C1613 C1614 1.524 . S
C1614 C1613 1.524 . S
C1614 C1615 1.397 . S
C1614 C1619 1.363 . S
C1615 H1586 0.950 . S
C1615 C1614 1.397 . S
C1615 C1616 1.334 . S
C1616 H1587 0.950 . S
C1616 C1615 1.334 . S
C1616 C1617 1.287 . S
C1617 C1616 1.287 . S
C1617 C1618 1.524 . S
C1617 H1620 0.999 . S
C1618 H1588 0.950 . S
C1618 C1617 1.524 . S
C1618 C1619 1.415 . S
C1619 H1589 0.950 . S
C1619 C1614 1.363 . S
C1619 C1618 1.415 . S
H1620 C1617 0.999 . S
H1621 C1602 0.913 . S
H1622 C1640 0.951 . S
H1623 C1642 0.951 . S
H1624 C1644 0.950 . S
H1625 C1645 0.950 . S
H1626 C1647 0.950 . S
H1627 C1650 0.950 . S
H1628 C1651 0.950 . S
H1629 C1653 0.950 . S
H1630 C1654 0.950 . S
H1631 C1655 0.951 . S
H1632 C1657 0.951 . S
H1633 C1659 0.950 . S
H1634 C1660 0.950 . S
H1635 C1662 0.950 . S
H1636 C1665 0.950 . S
H1637 C1666 0.950 . S
H1638 C1668 0.950 . S
H1639 C1669 0.950 . S
C1640 H1622 0.951 . S
C1640 C1641 1.366 . S
C1640 C1642 1.388 . S
C1641 C1640 1.366 . S
C1641 C1645 1.385 . S
C1642 H1623 0.951 . S
C1642 C1640 1.388 . S
C1642 C1643 1.366 . S
C1643 C1642 1.366 . S
C1643 C1644 1.414 . S
C1643 C1646 1.499 . S
C1644 H1624 0.950 . S
C1644 C1643 1.414 . S
C1644 C1645 1.374 . S
C1645 H1625 0.950 . S
C1645 C1641 1.385 . S
C1645 C1644 1.374 . S
C1646 C1643 1.499 . S
C1646 C1647 1.373 . S
C1646 C1648 1.389 . S
C1647 H1626 0.950 . S
C1647 C1646 1.373 . S
C1647 C1663 1.377 . S
C1648 C1646 1.389 . S
C1648 C1649 1.524 . S
C1648 C1662 1.377 . S
C1649 C1648 1.524 . S
C1649 C1650 1.397 . S
C1649 C1654 1.363 . S
C1650 H1627 0.950 . S
C1650 C1649 1.397 . S
C1650 C1651 1.334 . S
C1651 H1628 0.950 . S
C1651 C1650 1.334 . S
C1651 C1652 1.287 . S
C1652 C1651 1.287 . S
C1652 C1653 1.524 . S
C1652 H1671 0.913 . S
C1653 H1629 0.950 . S
C1653 C1652 1.524 . S
C1653 C1654 1.415 . S
C1654 H1630 0.950 . S
C1654 C1649 1.363 . S
C1654 C1653 1.415 . S
C1655 H1631 0.951 . S
C1655 C1656 1.366 . S
C1655 C1657 1.388 . S
C1656 C1655 1.366 . S
C1656 C1660 1.385 . S
C1657 H1632 0.951 . S
C1657 C1655 1.388 . S
C1657 C1658 1.366 . S
C1658 C1657 1.366 . S
C1658 C1659 1.414 . S
C1658 C1661 1.499 . S
C1659 H1633 0.950 . S
C1659 C1658 1.414 . S
C1659 C1660 1.374 . S
C1660 H1634 0.950 . S
C1660 C1656 1.385 . S
C1660 C1659 1.374 . S
C1661 C1658 1.499 . S
C1661 C1662 1.373 . S
C1661 C1663 1.389 . S
C1662 H1635 0.950 . S
C1662 C1648 1.377 . S
C1662 C1661 1.373 . S
C1663 C1647 1.377 . S
C1663 C1661 1.389 . S
C1663 C1664 1.524 . S
C1664 C1663 1.524 . S
C1664 C1665 1.397 . S
C1664 C1669 1.363 . S
C1665 H1636 0.950 . S
C1665 C1664 1.397 . S
C1665 C1666 1.334 . S
C1666 H1637 0.950 . S
C1666 C1665 1.334 . S
C1666 C1667 1.287 . S
C1667 C1666 1.287 . S
C1667 C1668 1.524 . S
C1667 H1670 0.999 . S
C1668 H1638 0.950 . S
C1668 C1667 1.524 . S
C1668 C1669 1.415 . S
C1669 H1639 0.950 . S
C1669 C1664 1.363 . S
C1669 C1668 1.415 . S
H1670 C1667 0.999 . S
H1671 C1652 0.913 . S
H1672 C1690 0.951 . S
H1673 C1692 0.951 . S
H1674 C1694 0.950 . S
H1675 C1695 0.950 . S
H1676 C1697 0.950 . S
H1677 C1700 0.950 . S
H1678 C1701 0.950 . S
H1679 C1703 0.950 . S
H1680 C1704 0.950 . S
H1681 C1705 0.951 . S
H1682 C1707 0.951 . S
H1683 C1709 0.950 . S
H1684 C1710 0.950 . S
H1685 C1712 0.950 . S
H1686 C1715 0.950 . S
H1687 C1716 0.950 . S
H1688 C1718 0.950 . S
H1689 C1719 0.950 . S
C1690 H1672 0.951 . S
C1690 C1691 1.366 . S
C1690 C1692 1.388 . S
C1691 C1690 1.366 . S
C1691 C1695 1.385 . S
C1692 H1673 0.951 . S
C1692 C1690 1.388 . S
C1692 C1693 1.366 . S
C1693 C1692 1.366 . S
C1693 C1694 1.414 . S
C1693 C1696 1.499 . S
C1694 H1674 0.950 . S
C1694 C1693 1.414 . S
C1694 C1695 1.374 . S
C1695 H1675 0.950 . S
C1695 C1691 1.385 . S
C1695 C1694 1.374 . S
C1696 C1693 1.499 . S
C1696 C1697 1.373 . S
C1696 C1698 1.389 . S
C1697 H1676 0.950 . S
C1697 C1696 1.373 . S
C1697 C1713 1.377 . S
C1698 C1696 1.389 . S
C1698 C1699 1.524 . S
C1698 C1712 1.377 . S
C1699 C1698 1.524 . S
C1699 C1700 1.397 . S
C1699 C1704 1.363 . S
C1700 H1677 0.950 . S
C1700 C1699 1.397 . S
C1700 C1701 1.334 . S
C1701 H1678 0.950 . S
C1701 C1700 1.334 . S
C1701 C1702 1.287 . S
C1702 C1701 1.287 . S
C1702 C1703 1.524 . S
C1702 H1721 0.913 . S
C1703 H1679 0.950 . S
C1703 C1702 1.524 . S
C1703 C1704 1.415 . S
C1704 H1680 0.950 . S
C1704 C1699 1.363 . S
C1704 C1703 1.415 . S
C1705 H1681 0.951 . S
C1705 C1706 1.366 . S
C1705 C1707 1.388 . S
C1706 C1705 1.366 . S
C1706 C1710 1.385 . S
C1707 H1682 0.951 . S
C1707 C1705 1.388 . S
C1707 C1708 1.366 . S
C1708 C1707 1.366 . S
C1708 C1709 1.414 . S
C1708 C1711 1.499 . S
C1709 H1683 0.950 . S
C1709 C1708 1.414 . S
C1709 C1710 1.374 . S
C1710 H1684 0.950 . S
C1710 C1706 1.385 . S
C1710 C1709 1.374 . S
C1711 C1708 1.499 . S
C1711 C1712 1.373 . S
C1711 C1713 1.389 . S
C1712 H1685 0.950 . S
C1712 C1698 1.377 . S
C1712 C1711 1.373 . S
C1713 C1697 1.377 . S
C1713 C1711 1.389 . S
C1713 C1714 1.524 . S
C1714 C1713 1.524 . S
C1714 C1715 1.397 . S
C1714 C1719 1.363 . S
C1715 H1686 0.950 . S
C1715 C1714 1.397 . S
C1715 C1716 1.334 . S
C1716 H1687 0.950 . S
C1716 C1715 1.334 . S
C1716 C1717 1.287 . S
C1717 C1716 1.287 . S
C1717 C1718 1.524 . S
C1717 H1720 0.999 . S
C1718 H1688 0.950 . S
C1718 C1717 1.524 . S
C1718 C1719 1.415 . S
C1719 H1689 0.950 . S
C1719 C1714 1.363 . S
C1719 C1718 1.415 . S
H1720 C1717 0.999 . S
H1721 C1702 0.913 . S
H1722 C1740 0.951 . S
H1723 C1742 0.951 . S
H1724 C1744 0.950 . S
H1725 C1745 0.950 . S
H1726 C1747 0.950 . S
H1727 C1750 0.950 . S
H1728 C1751 0.950 . S
H1729 C1753 0.950 . S
H1730 C1754 0.950 . S
H1731 C1755 0.951 . S
H1732 C1757 0.951 . S
H1733 C1759 0.950 . S
H1734 C1760 0.950 . S
H1735 C1762 0.950 . S
H1736 C1765 0.950 . S
H1737 C1766 0.950 . S
H1738 C1768 0.950 . S
H1739 C1769 0.950 . S
C1740 H1722 0.951 . S
C1740 C1741 1.366 . S
C1740 C1742 1.388 . S
C1741 C1740 1.366 . S
C1741 C1745 1.385 . S
C1742 H1723 0.951 . S
C1742 C1740 1.388 . S
C1742 C1743 1.366 . S
C1743 C1742 1.366 . S
C1743 C1744 1.414 . S
C1743 C1746 1.499 . S
C1744 H1724 0.950 . S
C1744 C1743 1.414 . S
C1744 C1745 1.374 . S
C1745 H1725 0.950 . S
C1745 C1741 1.385 . S
C1745 C1744 1.374 . S
C1746 C1743 1.499 . S
C1746 C1747 1.373 . S
C1746 C1748 1.389 . S
C1747 H1726 0.950 . S
C1747 C1746 1.373 . S
C1747 C1763 1.377 . S
C1748 C1746 1.389 . S
C1748 C1749 1.524 . S
C1748 C1762 1.377 . S
C1749 C1748 1.524 . S
C1749 C1750 1.397 . S
C1749 C1754 1.363 . S
C1750 H1727 0.950 . S
C1750 C1749 1.397 . S
C1750 C1751 1.334 . S
C1751 H1728 0.950 . S
C1751 C1750 1.334 . S
C1751 C1752 1.287 . S
C1752 C1751 1.287 . S
C1752 C1753 1.524 . S
C1752 H1771 0.913 . S
C1753 H1729 0.950 . S
C1753 C1752 1.524 . S
C1753 C1754 1.415 . S
C1754 H1730 0.950 . S
C1754 C1749 1.363 . S
C1754 C1753 1.415 . S
C1755 H1731 0.951 . S
C1755 C1756 1.366 . S
C1755 C1757 1.388 . S
C1756 C1755 1.366 . S
C1756 C1760 1.385 . S
C1757 H1732 0.951 . S
C1757 C1755 1.388 . S
C1757 C1758 1.366 . S
C1758 C1757 1.366 . S
C1758 C1759 1.414 . S
C1758 C1761 1.499 . S
C1759 H1733 0.950 . S
C1759 C1758 1.414 . S
C1759 C1760 1.374 . S
C1760 H1734 0.950 . S
C1760 C1756 1.385 . S
C1760 C1759 1.374 . S
C1761 C1758 1.499 . S
C1761 C1762 1.373 . S
C1761 C1763 1.389 . S
C1762 H1735 0.950 . S
C1762 C1748 1.377 . S
C1762 C1761 1.373 . S
C1763 C1747 1.377 . S
C1763 C1761 1.389 . S
C1763 C1764 1.524 . S
C1764 C1763 1.524 . S
C1764 C1765 1.397 . S
C1764 C1769 1.363 . S
C1765 H1736 0.950 . S
C1765 C1764 1.397 . S
C1765 C1766 1.334 . S
C1766 H1737 0.950 . S
C1766 C1765 1.334 . S
C1766 C1767 1.287 . S
C1767 C1766 1.287 . S
C1767 C1768 1.524 . S
C1767 H1770 0.999 . S
C1768 H1738 0.950 . S
C1768 C1767 1.524 . S
C1768 C1769 1.415 . S
C1769 H1739 0.950 . S
C1769 C1764 1.363 . S
C1769 C1768 1.415 . S
H1770 C1767 0.999 . S
H1771 C1752 0.913 . S
H1772 C1790 0.951 . S
H1773 C1792 0.951 . S
H1774 C1794 0.950 . S
H1775 C1795 0.950 . S
H1776 C1797 0.950 . S
H1777 C1800 0.950 . S
H1778 C1801 0.950 . S
H1779 C1803 0.950 . S
H1780 C1804 0.950 . S
H1781 C1805 0.951 . S
H1782 C1807 0.951 . S
H1783 C1809 0.950 . S
H1784 C1810 0.950 . S
H1785 C1812 0.950 . S
H1786 C1815 0.950 . S
H1787 C1816 0.950 . S
H1788 C1818 0.950 . S
H1789 C1819 0.950 . S
C1790 H1772 0.951 . S
C1790 C1791 1.366 . S
C1790 C1792 1.388 . S
C1791 C1790 1.366 . S
C1791 C1795 1.385 . S
C1792 H1773 0.951 . S
C1792 C1790 1.388 . S
C1792 C1793 1.366 . S
C1793 C1792 1.366 . S
C1793 C1794 1.414 . S
C1793 C1796 1.499 . S
C1794 H1774 0.950 . S
C1794 C1793 1.414 . S
C1794 C1795 1.374 . S
C1795 H1775 0.950 . S
C1795 C1791 1.385 . S
C1795 C1794 1.374 . S
C1796 C1793 1.499 . S
C1796 C1797 1.373 . S
C1796 C1798 1.389 . S
C1797 H1776 0.950 . S
C1797 C1796 1.373 . S
C1797 C1813 1.377 . S
C1798 C1796 1.389 . S
C1798 C1799 1.524 . S
C1798 C1812 1.377 . S
C1799 C1798 1.524 . S
C1799 C1800 1.397 . S
C1799 C1804 1.363 . S
C1800 H1777 0.950 . S
C1800 C1799 1.397 . S
C1800 C1801 1.334 . S
C1801 H1778 0.950 . S
C1801 C1800 1.334 . S
C1801 C1802 1.287 . S
C1802 C1801 1.287 . S
C1802 C1803 1.524 . S
C1802 H1821 0.913 . S
C1803 H1779 0.950 . S
C1803 C1802 1.524 . S
C1803 C1804 1.415 . S
C1804 H1780 0.950 . S
C1804 C1799 1.363 . S
C1804 C1803 1.415 . S
C1805 H1781 0.951 . S
C1805 C1806 1.366 . S
C1805 C1807 1.388 . S
C1806 C1805 1.366 . S
C1806 C1810 1.385 . S
C1807 H1782 0.951 . S
C1807 C1805 1.388 . S
C1807 C1808 1.366 . S
C1808 C1807 1.366 . S
C1808 C1809 1.414 . S
C1808 C1811 1.499 . S
C1809 H1783 0.950 . S
C1809 C1808 1.414 . S
C1809 C1810 1.374 . S
C1810 H1784 0.950 . S
C1810 C1806 1.385 . S
C1810 C1809 1.374 . S
C1811 C1808 1.499 . S
C1811 C1812 1.373 . S
C1811 C1813 1.389 . S
C1812 H1785 0.950 . S
C1812 C1798 1.377 . S
C1812 C1811 1.373 . S
C1813 C1797 1.377 . S
C1813 C1811 1.389 . S
C1813 C1814 1.524 . S
C1814 C1813 1.524 . S
C1814 C1815 1.397 . S
C1814 C1819 1.363 . S
C1815 H1786 0.950 . S
C1815 C1814 1.397 . S
C1815 C1816 1.334 . S
C1816 H1787 0.950 . S
C1816 C1815 1.334 . S
C1816 C1817 1.287 . S
C1817 C1816 1.287 . S
C1817 C1818 1.524 . S
C1817 H1820 0.999 . S
C1818 H1788 0.950 . S
C1818 C1817 1.524 . S
C1818 C1819 1.415 . S
C1819 H1789 0.950 . S
C1819 C1814 1.363 . S
C1819 C1818 1.415 . S
H1820 C1817 0.999 . S
H1821 C1802 0.913 . S
H1822 C1840 0.951 . S
H1823 C1842 0.951 . S
H1824 C1844 0.950 . S
H1825 C1845 0.950 . S
H1826 C1847 0.950 . S
H1827 C1850 0.950 . S
H1828 C1851 0.950 . S
H1829 C1853 0.950 . S
H1830 C1854 0.945 1_554 S
H1831 C1855 0.951 . S
H1832 C1857 0.951 . S
H1833 C1859 0.950 . S
H1834 C1860 0.950 . S
H1835 C1862 0.950 . S
H1836 C1865 0.950 . S
H1837 C1866 0.950 . S
H1838 C1868 0.950 . S
H1839 C1869 0.945 1_556 S
C1840 H1822 0.951 . S
C1840 C1841 1.366 1_655 S
C1840 C1842 1.388 . S
C1841 C1840 1.366 1_455 S
C1841 C1845 1.385 . S
C1842 H1823 0.951 . S
C1842 C1840 1.388 . S
C1842 C1843 1.366 1_655 S
C1843 C1842 1.366 1_455 S
C1843 C1844 1.414 . S
C1843 C1846 1.499 . S
C1844 H1824 0.950 . S
C1844 C1843 1.414 . S
C1844 C1845 1.374 . S
C1845 H1825 0.950 . S
C1845 C1841 1.385 . S
C1845 C1844 1.374 . S
C1846 C1843 1.499 . S
C1846 C1847 1.373 1_455 S
C1846 C1848 1.389 . S
C1847 H1826 0.950 . S
C1847 C1846 1.373 1_655 S
C1847 C1863 1.377 1_556 S
C1848 C1846 1.389 . S
C1848 C1849 1.524 . S
C1848 C1862 1.377 1_556 S
C1849 C1848 1.524 . S
C1849 C1850 1.397 . S
C1849 C1854 1.363 . S
C1850 H1827 0.950 . S
C1850 C1849 1.397 . S
C1850 C1851 1.334 . S
C1851 H1828 0.950 . S
C1851 C1850 1.334 . S
C1851 C1852 1.287 . S
C1852 C1851 1.287 . S
C1852 C1853 1.524 . S
C1852 H1871 0.913 . S
C1853 H1829 0.950 . S
C1853 C1852 1.524 . S
C1853 C1854 1.415 . S
C1854 H1830 0.945 1_556 S
C1854 C1849 1.363 . S
C1854 C1853 1.415 . S
C1855 H1831 0.951 . S
C1855 C1856 1.366 1_455 S
C1855 C1857 1.388 . S
C1856 C1855 1.366 1_655 S
C1856 C1860 1.385 . S
C1857 H1832 0.951 . S
C1857 C1855 1.388 . S
C1857 C1858 1.366 1_455 S
C1858 C1857 1.366 1_655 S
C1858 C1859 1.414 . S
C1858 C1861 1.499 . S
C1859 H1833 0.950 . S
C1859 C1858 1.414 . S
C1859 C1860 1.374 . S
C1860 H1834 0.950 . S
C1860 C1856 1.385 . S
C1860 C1859 1.374 . S
C1861 C1858 1.499 . S
C1861 C1862 1.373 1_655 S
C1861 C1863 1.389 . S
C1862 H1835 0.950 . S
C1862 C1848 1.377 1_554 S
C1862 C1861 1.373 1_455 S
C1863 C1847 1.377 1_554 S
C1863 C1861 1.389 . S
C1863 C1864 1.524 . S
C1864 C1863 1.524 . S
C1864 C1865 1.397 . S
C1864 C1869 1.363 . S
C1865 H1836 0.950 . S
C1865 C1864 1.397 . S
C1865 C1866 1.334 . S
C1866 H1837 0.950 . S
C1866 C1865 1.334 . S
C1866 C1867 1.287 . S
C1867 C1866 1.287 . S
C1867 C1868 1.524 . S
C1867 H1870 0.999 . S
C1868 H1838 0.950 . S
C1868 C1867 1.524 . S
C1868 C1869 1.415 . S
C1869 H1839 0.945 1_554 S
C1869 C1864 1.363 . S
C1869 C1868 1.415 . S
H1870 C1867 0.999 . S
H1871 C1852 0.913 . S
C691 C56 1.505 . S
C706 C308 1.499 . S
C741 C63 1.495 . S
C756 C140 1.505 . S
C791 C147 1.486 . S
C806 C224 1.501 . S
C841 C231 1.486 . S
C856 C315 1.482 . S
C891 C67 1.506 . S
C906 C487 1.511 . S
C941 C74 1.495 . S
C956 C403 1.503 . S
C991 C410 1.487 . S
C1006 C235 1.494 . S
C1041 C494 1.486 . S
C1056 C242 1.491 . S
C1091 C560 1.505 . S
C1106 C476 1.507 . S
C1141 C392 1.504 . S
C1156 C567 1.493 . S
C1191 C644 1.497 . S
C1206 C399 1.490 . S
C1241 C483 1.486 . S
C1256 C651 1.489 . S
C1291 C319 1.505 . S
C1306 C571 1.504 . S
C1341 C578 1.494 . S
C1356 C151 1.505 . S
C1391 C158 1.487 . S
C1406 C655 1.494 . S
C1441 C326 1.486 . S
C1456 C662 1.483 . S
C1491 C58 1.459 . S
C1506 C69 1.461 . S
C1541 C153 1.453 . S
C1556 C142 1.453 . S
C1591 C237 1.459 . S
C1606 C226 1.459 . S
C1641 C310 1.454 . S
C1656 C321 1.454 . S
C1691 C405 1.453 . S
C1706 C394 1.453 . S
C1741 C478 1.454 . S
C1756 C489 1.454 . S
C1791 C573 1.455 . S
C1806 C562 1.455 . S
C1841 C646 1.458 . S
C1856 C657 1.458 . S
