# Generated by pormake.
# Topology som, (6)-cn, num edge types: 1
# Building blocks:
#     Node 0, Type 0, BuildingBlock: BETGAK_clean_sbu_0, # of connection points: 6
#     Node 1, Type 0, BuildingBlock: BETGAK_clean_sbu_0, # of connection points: 6
#     Node 2, Type 0, BuildingBlock: BETGAK_clean_sbu_0, # of connection points: 6
#     Node 3, Type 0, BuildingBlock: BETGAK_clean_sbu_0, # of connection points: 6
#     Node 4, Type 0, BuildingBlock: BETGAK_clean_sbu_0, # of connection points: 6
#     Node 5, Type 0, BuildingBlock: BETGAK_clean_sbu_0, # of connection points: 6
#     Node 6, Type 0, BuildingBlock: BETGAK_clean_sbu_0, # of connection points: 6
#     Node 7, Type 0, BuildingBlock: BETGAK_clean_sbu_0, # of connection points: 6
#     Node 8, Type 0, BuildingBlock: BETGAK_clean_sbu_0, # of connection points: 6
#     Node 9, Type 0, BuildingBlock: BETGAK_clean_sbu_0, # of connection points: 6
#     Node 10, Type 0, BuildingBlock: BETGAK_clean_sbu_0, # of connection points: 6
#     Node 11, Type 0, BuildingBlock: BETGAK_clean_sbu_0, # of connection points: 6
#     Node 12, Type 0, BuildingBlock: BETGAK_clean_sbu_0, # of connection points: 6
#     Node 13, Type 0, BuildingBlock: BETGAK_clean_sbu_0, # of connection points: 6
#     Node 14, Type 0, BuildingBlock: BETGAK_clean_sbu_0, # of connection points: 6
#     Node 15, Type 0, BuildingBlock: BETGAK_clean_sbu_0, # of connection points: 6
#     Node 16, Type 0, BuildingBlock: BETGAK_clean_sbu_0, # of connection points: 6
#     Node 17, Type 0, BuildingBlock: BETGAK_clean_sbu_0, # of connection points: 6
#     Node 18, Type 0, BuildingBlock: BETGAK_clean_sbu_0, # of connection points: 6
#     Node 19, Type 0, BuildingBlock: BETGAK_clean_sbu_0, # of connection points: 6
#     Node 20, Type 0, BuildingBlock: BETGAK_clean_sbu_0, # of connection points: 6
#     Node 21, Type 0, BuildingBlock: BETGAK_clean_sbu_0, # of connection points: 6
#     Node 22, Type 0, BuildingBlock: BETGAK_clean_sbu_0, # of connection points: 6
#     Node 23, Type 0, BuildingBlock: BETGAK_clean_sbu_0, # of connection points: 6
#     Node 24, Type 0, BuildingBlock: BETGAK_clean_sbu_0, # of connection points: 6
#     Node 25, Type 0, BuildingBlock: BETGAK_clean_sbu_0, # of connection points: 6
#     Node 26, Type 0, BuildingBlock: BETGAK_clean_sbu_0, # of connection points: 6
#     Node 27, Type 0, BuildingBlock: BETGAK_clean_sbu_0, # of connection points: 6
#     Node 28, Type 0, BuildingBlock: BETGAK_clean_sbu_0, # of connection points: 6
#     Node 29, Type 0, BuildingBlock: BETGAK_clean_sbu_0, # of connection points: 6
#     Node 30, Type 0, BuildingBlock: BETGAK_clean_sbu_0, # of connection points: 6
#     Node 31, Type 0, BuildingBlock: BETGAK_clean_sbu_0, # of connection points: 6
#     Edge 32, Type (0, 0), BuildingBlock: UVAHIK_clean_linker_0, # of connection points: 2
#     Edge 33, Type (0, 0), BuildingBlock: UVAHIK_clean_linker_0, # of connection points: 2
#     Edge 34, Type (0, 0), BuildingBlock: UVAHIK_clean_linker_0, # of connection points: 2
#     Edge 35, Type (0, 0), BuildingBlock: UVAHIK_clean_linker_0, # of connection points: 2
#     Edge 36, Type (0, 0), BuildingBlock: UVAHIK_clean_linker_0, # of connection points: 2
#     Edge 37, Type (0, 0), BuildingBlock: UVAHIK_clean_linker_0, # of connection points: 2
#     Edge 38, Type (0, 0), BuildingBlock: UVAHIK_clean_linker_0, # of connection points: 2
#     Edge 39, Type (0, 0), BuildingBlock: UVAHIK_clean_linker_0, # of connection points: 2
#     Edge 40, Type (0, 0), BuildingBlock: UVAHIK_clean_linker_0, # of connection points: 2
#     Edge 41, Type (0, 0), BuildingBlock: UVAHIK_clean_linker_0, # of connection points: 2
#     Edge 42, Type (0, 0), BuildingBlock: UVAHIK_clean_linker_0, # of connection points: 2
#     Edge 43, Type (0, 0), BuildingBlock: UVAHIK_clean_linker_0, # of connection points: 2
#     Edge 44, Type (0, 0), BuildingBlock: UVAHIK_clean_linker_0, # of connection points: 2
#     Edge 45, Type (0, 0), BuildingBlock: UVAHIK_clean_linker_0, # of connection points: 2
#     Edge 46, Type (0, 0), BuildingBlock: UVAHIK_clean_linker_0, # of connection points: 2
#     Edge 47, Type (0, 0), BuildingBlock: UVAHIK_clean_linker_0, # of connection points: 2
#     Edge 48, Type (0, 0), BuildingBlock: UVAHIK_clean_linker_0, # of connection points: 2
#     Edge 49, Type (0, 0), BuildingBlock: UVAHIK_clean_linker_0, # of connection points: 2
#     Edge 50, Type (0, 0), BuildingBlock: UVAHIK_clean_linker_0, # of connection points: 2
#     Edge 51, Type (0, 0), BuildingBlock: UVAHIK_clean_linker_0, # of connection points: 2
#     Edge 52, Type (0, 0), BuildingBlock: UVAHIK_clean_linker_0, # of connection points: 2
#     Edge 53, Type (0, 0), BuildingBlock: UVAHIK_clean_linker_0, # of connection points: 2
#     Edge 54, Type (0, 0), BuildingBlock: UVAHIK_clean_linker_0, # of connection points: 2
#     Edge 55, Type (0, 0), BuildingBlock: UVAHIK_clean_linker_0, # of connection points: 2
#     Edge 56, Type (0, 0), BuildingBlock: UVAHIK_clean_linker_0, # of connection points: 2
#     Edge 57, Type (0, 0), BuildingBlock: UVAHIK_clean_linker_0, # of connection points: 2
#     Edge 58, Type (0, 0), BuildingBlock: UVAHIK_clean_linker_0, # of connection points: 2
#     Edge 59, Type (0, 0), BuildingBlock: UVAHIK_clean_linker_0, # of connection points: 2
#     Edge 60, Type (0, 0), BuildingBlock: UVAHIK_clean_linker_0, # of connection points: 2
#     Edge 61, Type (0, 0), BuildingBlock: UVAHIK_clean_linker_0, # of connection points: 2
#     Edge 62, Type (0, 0), BuildingBlock: UVAHIK_clean_linker_0, # of connection points: 2
#     Edge 63, Type (0, 0), BuildingBlock: UVAHIK_clean_linker_0, # of connection points: 2
#     Edge 64, Type (0, 0), BuildingBlock: UVAHIK_clean_linker_0, # of connection points: 2
#     Edge 65, Type (0, 0), BuildingBlock: UVAHIK_clean_linker_0, # of connection points: 2
#     Edge 66, Type (0, 0), BuildingBlock: UVAHIK_clean_linker_0, # of connection points: 2
#     Edge 67, Type (0, 0), BuildingBlock: UVAHIK_clean_linker_0, # of connection points: 2
#     Edge 68, Type (0, 0), BuildingBlock: UVAHIK_clean_linker_0, # of connection points: 2
#     Edge 69, Type (0, 0), BuildingBlock: UVAHIK_clean_linker_0, # of connection points: 2
#     Edge 70, Type (0, 0), BuildingBlock: UVAHIK_clean_linker_0, # of connection points: 2
#     Edge 71, Type (0, 0), BuildingBlock: UVAHIK_clean_linker_0, # of connection points: 2
#     Edge 72, Type (0, 0), BuildingBlock: UVAHIK_clean_linker_0, # of connection points: 2
#     Edge 73, Type (0, 0), BuildingBlock: UVAHIK_clean_linker_0, # of connection points: 2
#     Edge 74, Type (0, 0), BuildingBlock: UVAHIK_clean_linker_0, # of connection points: 2
#     Edge 75, Type (0, 0), BuildingBlock: UVAHIK_clean_linker_0, # of connection points: 2
#     Edge 76, Type (0, 0), BuildingBlock: UVAHIK_clean_linker_0, # of connection points: 2
#     Edge 77, Type (0, 0), BuildingBlock: UVAHIK_clean_linker_0, # of connection points: 2
#     Edge 78, Type (0, 0), BuildingBlock: UVAHIK_clean_linker_0, # of connection points: 2
#     Edge 79, Type (0, 0), BuildingBlock: UVAHIK_clean_linker_0, # of connection points: 2
#     Edge 80, Type (0, 0), BuildingBlock: UVAHIK_clean_linker_0, # of connection points: 2
#     Edge 81, Type (0, 0), BuildingBlock: UVAHIK_clean_linker_0, # of connection points: 2
#     Edge 82, Type (0, 0), BuildingBlock: UVAHIK_clean_linker_0, # of connection points: 2
#     Edge 83, Type (0, 0), BuildingBlock: UVAHIK_clean_linker_0, # of connection points: 2
#     Edge 84, Type (0, 0), BuildingBlock: UVAHIK_clean_linker_0, # of connection points: 2
#     Edge 85, Type (0, 0), BuildingBlock: UVAHIK_clean_linker_0, # of connection points: 2
#     Edge 86, Type (0, 0), BuildingBlock: UVAHIK_clean_linker_0, # of connection points: 2
#     Edge 87, Type (0, 0), BuildingBlock: UVAHIK_clean_linker_0, # of connection points: 2
#     Edge 88, Type (0, 0), BuildingBlock: UVAHIK_clean_linker_0, # of connection points: 2
#     Edge 89, Type (0, 0), BuildingBlock: UVAHIK_clean_linker_0, # of connection points: 2
#     Edge 90, Type (0, 0), BuildingBlock: UVAHIK_clean_linker_0, # of connection points: 2
#     Edge 91, Type (0, 0), BuildingBlock: UVAHIK_clean_linker_0, # of connection points: 2
#     Edge 92, Type (0, 0), BuildingBlock: UVAHIK_clean_linker_0, # of connection points: 2
#     Edge 93, Type (0, 0), BuildingBlock: UVAHIK_clean_linker_0, # of connection points: 2
#     Edge 94, Type (0, 0), BuildingBlock: UVAHIK_clean_linker_0, # of connection points: 2
#     Edge 95, Type (0, 0), BuildingBlock: UVAHIK_clean_linker_0, # of connection points: 2
#     Edge 96, Type (0, 0), BuildingBlock: UVAHIK_clean_linker_0, # of connection points: 2
#     Edge 97, Type (0, 0), BuildingBlock: UVAHIK_clean_linker_0, # of connection points: 2
#     Edge 98, Type (0, 0), BuildingBlock: UVAHIK_clean_linker_0, # of connection points: 2
#     Edge 99, Type (0, 0), BuildingBlock: UVAHIK_clean_linker_0, # of connection points: 2
#     Edge 100, Type (0, 0), BuildingBlock: UVAHIK_clean_linker_0, # of connection points: 2
#     Edge 101, Type (0, 0), BuildingBlock: UVAHIK_clean_linker_0, # of connection points: 2
#     Edge 102, Type (0, 0), BuildingBlock: UVAHIK_clean_linker_0, # of connection points: 2
#     Edge 103, Type (0, 0), BuildingBlock: UVAHIK_clean_linker_0, # of connection points: 2
#     Edge 104, Type (0, 0), BuildingBlock: UVAHIK_clean_linker_0, # of connection points: 2
#     Edge 105, Type (0, 0), BuildingBlock: UVAHIK_clean_linker_0, # of connection points: 2
#     Edge 106, Type (0, 0), BuildingBlock: UVAHIK_clean_linker_0, # of connection points: 2
#     Edge 107, Type (0, 0), BuildingBlock: UVAHIK_clean_linker_0, # of connection points: 2
#     Edge 108, Type (0, 0), BuildingBlock: UVAHIK_clean_linker_0, # of connection points: 2
#     Edge 109, Type (0, 0), BuildingBlock: UVAHIK_clean_linker_0, # of connection points: 2
#     Edge 110, Type (0, 0), BuildingBlock: UVAHIK_clean_linker_0, # of connection points: 2
#     Edge 111, Type (0, 0), BuildingBlock: UVAHIK_clean_linker_0, # of connection points: 2
#     Edge 112, Type (0, 0), BuildingBlock: UVAHIK_clean_linker_0, # of connection points: 2
#     Edge 113, Type (0, 0), BuildingBlock: UVAHIK_clean_linker_0, # of connection points: 2
#     Edge 114, Type (0, 0), BuildingBlock: UVAHIK_clean_linker_0, # of connection points: 2
#     Edge 115, Type (0, 0), BuildingBlock: UVAHIK_clean_linker_0, # of connection points: 2
#     Edge 116, Type (0, 0), BuildingBlock: UVAHIK_clean_linker_0, # of connection points: 2
#     Edge 117, Type (0, 0), BuildingBlock: UVAHIK_clean_linker_0, # of connection points: 2
#     Edge 118, Type (0, 0), BuildingBlock: UVAHIK_clean_linker_0, # of connection points: 2
#     Edge 119, Type (0, 0), BuildingBlock: UVAHIK_clean_linker_0, # of connection points: 2
#     Edge 120, Type (0, 0), BuildingBlock: UVAHIK_clean_linker_0, # of connection points: 2
#     Edge 121, Type (0, 0), BuildingBlock: UVAHIK_clean_linker_0, # of connection points: 2
#     Edge 122, Type (0, 0), BuildingBlock: UVAHIK_clean_linker_0, # of connection points: 2
#     Edge 123, Type (0, 0), BuildingBlock: UVAHIK_clean_linker_0, # of connection points: 2
#     Edge 124, Type (0, 0), BuildingBlock: UVAHIK_clean_linker_0, # of connection points: 2
#     Edge 125, Type (0, 0), BuildingBlock: UVAHIK_clean_linker_0, # of connection points: 2
#     Edge 126, Type (0, 0), BuildingBlock: UVAHIK_clean_linker_0, # of connection points: 2
#     Edge 127, Type (0, 0), BuildingBlock: UVAHIK_clean_linker_0, # of connection points: 2
# Relax obj value: 0.064
# Max RMSD: 0.126
# Mean RMSD: 0.126
data_MOF--net-som--node1-BETGAK_clean_sbu_0--edge1-UVAHIK_clean_linker_0
_symmetry_space_group_name_H-M    P1
_symmetry_Int_Tables_number       1
_symmetry_cell_setting            triclinic
loop_
_symmetry_equiv_pos_as_xyz
'x, y, z'
_cell_length_a     30.25861
_cell_length_b     73.014922
_cell_length_c     145.29566
_cell_angle_alpha  89.981352
_cell_angle_beta   90.005415
_cell_angle_gamma 89.987476
loop_
_atom_site_label
_atom_site_type_symbol
_atom_site_fract_x
_atom_site_fract_y
_atom_site_fract_z
_atom_type_partial_charge
La0 La 1.00262 0.50009 0.085 0.0
La1 La 0.09185 0.4825 0.08596 0.0
C2 C 0.92447 0.50946 0.08105 0.0
C3 C 0.87783 0.50362 0.08222 0.0
C4 C 0.85467 0.50722 0.09042 0.0
C5 C 0.80924 0.50381 0.09103 0.0
C6 C 0.78579 0.49681 0.08344 0.0
C7 C 0.80927 0.4927 0.07534 0.0
C8 C 0.85468 0.49613 0.07473 0.0
C9 C 0.0406 0.50016 0.10141 0.0
C10 C 1.00973 0.45712 0.08827 0.0
C11 C 0.16976 0.4734 0.09031 0.0
C12 C 0.21654 0.47901 0.08916 0.0
C13 C 0.23959 0.47553 0.08094 0.0
C14 C 0.28513 0.47869 0.08036 0.0
C15 C 0.3088 0.48533 0.088 0.0
C16 C 0.28542 0.48934 0.09613 0.0
C17 C 0.23991 0.48615 0.09671 0.0
C18 C 0.0558 0.48254 0.06934 0.0
C19 C 0.08241 0.52573 0.0825 0.0
O20 O 0.94576 0.51509 0.08836 0.0
O21 O 0.94961 0.49962 0.07563 0.0
O22 O 1.01599 0.51329 0.09832 0.0
O23 O 0.0409 0.48734 0.09565 0.0
O24 O 0.98542 0.4711 0.08548 0.0
O25 O 0.05226 0.459 0.09017 0.0
O26 O 0.14888 0.46723 0.08306 0.0
O27 O 0.1444 0.48372 0.09544 0.0
O28 O 0.08139 0.46981 0.07251 0.0
O29 O 0.05402 0.49525 0.07519 0.0
O30 O 0.10785 0.5121 0.08545 0.0
O31 O 0.04076 0.523 0.08025 0.0
H32 H 0.87128 0.51321 0.09629 0.0
H33 H 0.7922 0.50735 0.09733 0.0
H34 H 0.79244 0.48706 0.0694 0.0
H35 H 0.87145 0.49337 0.06829 0.0
H36 H 0.22279 0.46981 0.07502 0.0
H37 H 0.30205 0.47523 0.07403 0.0
H38 H 0.30242 0.49472 0.1021 0.0
H39 H 0.22318 0.48881 0.10316 0.0
La40 La 0.30297 0.73976 0.08394 0.0
La41 La 0.21244 0.75638 0.08528 0.0
C42 C 0.3808 0.73095 0.07947 0.0
C43 C 0.42733 0.73688 0.08038 0.0
C44 C 0.44607 0.74121 0.08896 0.0
C45 C 0.49152 0.74459 0.08972 0.0
C46 C 0.51907 0.7438 0.08192 0.0
C47 C 0.49981 0.74012 0.0733 0.0
C48 C 0.45449 0.73666 0.07256 0.0
C49 C 0.26723 0.73988 0.10057 0.0
C50 C 0.29336 0.78268 0.08705 0.0
C51 C 0.13483 0.76499 0.09007 0.0
C52 C 0.0881 0.75945 0.08903 0.0
C53 C 0.06935 0.75574 0.08038 0.0
C54 C 1.02381 0.75264 0.07955 0.0
C55 C 0.99616 0.75314 0.08734 0.0
C56 C 1.01542 0.75627 0.09601 0.0
C57 C 0.06083 0.75941 0.09684 0.0
C58 C 0.24627 0.75605 0.06846 0.0
C59 C 0.22441 0.71315 0.08231 0.0
O60 O 0.36083 0.72514 0.08691 0.0
O61 O 0.35482 0.74089 0.07427 0.0
O62 O 0.29277 0.72703 0.09751 0.0
O63 O 0.2651 0.75241 0.09467 0.0
O64 O 0.31829 0.76897 0.08415 0.0
O65 O 0.2513 0.78026 0.08924 0.0
O66 O 0.15485 0.77155 0.0828 0.0
O67 O 0.16058 0.75429 0.09492 0.0
O68 O 0.21996 0.76854 0.07161 0.0
O69 O 0.24979 0.74363 0.07444 0.0
O70 O 0.19829 0.72663 0.08515 0.0
O71 O 0.26557 0.71618 0.07977 0.0
H72 H 0.42588 0.74154 0.09511 0.0
H73 H 0.50517 0.74764 0.09644 0.0
H74 H 0.52001 0.7392 0.06717 0.0
H75 H 0.44084 0.73324 0.06588 0.0
H76 H 0.08965 0.75564 0.07424 0.0
H77 H 1.01019 0.75002 0.07278 0.0
H78 H 0.99517 0.75696 0.10215 0.0
H79 H 0.07451 0.76237 0.10357 0.0
La80 La 1.00693 0.73943 0.20519 0.0
La81 La 0.09735 0.75614 0.20391 0.0
C82 C 0.92909 0.73052 0.20961 0.0
C83 C 0.88257 0.73651 0.20878 0.0
C84 C 0.86373 0.74115 0.20025 0.0
C85 C 0.81828 0.74457 0.19954 0.0
C86 C 0.79079 0.7435 0.20734 0.0
C87 C 0.81015 0.73951 0.21592 0.0
C88 C 0.85548 0.73602 0.21661 0.0
C89 C 0.04284 0.73968 0.18858 0.0
C90 C 1.01628 0.78238 0.20217 0.0
C91 C 0.17497 0.76486 0.19917 0.0
C92 C 0.22171 0.75933 0.2002 0.0
C93 C 0.24033 0.75538 0.20884 0.0
C94 C 0.28587 0.75228 0.20969 0.0
C95 C 0.31366 0.75301 0.20192 0.0
C96 C 0.29453 0.75637 0.19326 0.0
C97 C 0.24911 0.75952 0.19242 0.0
C98 C 0.06336 0.7557 0.2207 0.0
C99 C 0.08561 0.71286 0.20679 0.0
O100 O 0.94897 0.72497 0.20212 0.0
O101 O 0.95516 0.74025 0.21489 0.0
O102 O 1.01742 0.72677 0.19162 0.0
O103 O 0.0448 0.75219 0.19449 0.0
O104 O 0.99144 0.76862 0.20504 0.0
O105 O 0.05836 0.78002 0.19998 0.0
O106 O 0.15487 0.7713 0.20645 0.0
O107 O 0.14929 0.75422 0.19428 0.0
O108 O 0.08955 0.76824 0.21757 0.0
O109 O 0.06 0.74329 0.21472 0.0
O110 O 0.11174 0.72641 0.20403 0.0
O111 O 0.04436 0.71581 0.20928 0.0
H112 H 0.88385 0.74169 0.19409 0.0
H113 H 0.80456 0.74786 0.19285 0.0
H114 H 0.79001 0.73837 0.22205 0.0
H115 H 0.8692 0.73236 0.22325 0.0
H116 H 0.21992 0.7551 0.21497 0.0
H117 H 0.29938 0.74947 0.21645 0.0
H118 H 0.31487 0.75725 0.18714 0.0
H119 H 0.23554 0.76266 0.1857 0.0
La120 La 0.30555 0.4996 0.2056 0.0
La121 La 0.21635 0.48201 0.2046 0.0
C122 C 0.38366 0.50896 0.20956 0.0
C123 C 0.43033 0.50319 0.20836 0.0
C124 C 0.45348 0.50699 0.20019 0.0
C125 C 0.49893 0.50365 0.19957 0.0
C126 C 0.52242 0.49652 0.20712 0.0
C127 C 0.49896 0.49221 0.2152 0.0
C128 C 0.45353 0.49556 0.21582 0.0
C129 C 0.26767 0.49973 0.18917 0.0
C130 C 0.29849 0.45664 0.20229 0.0
C131 C 0.13845 0.47295 0.20024 0.0
C132 C 0.09167 0.4786 0.20138 0.0
C133 C 0.06851 0.47498 0.20957 0.0
C134 C 1.02298 0.47819 0.21014 0.0
C135 C 0.99945 0.48501 0.20252 0.0
C136 C 1.02294 0.48914 0.19443 0.0
C137 C 0.06844 0.48591 0.19385 0.0
C138 C 0.25231 0.48201 0.22123 0.0
C139 C 0.22574 0.52522 0.20809 0.0
O140 O 0.36231 0.5147 0.20227 0.0
O141 O 0.3586 0.49901 0.21495 0.0
O142 O 0.29223 0.51286 0.19228 0.0
O143 O 0.26736 0.48689 0.19492 0.0
O144 O 0.32277 0.4706 0.20509 0.0
O145 O 0.25596 0.45852 0.20038 0.0
O146 O 0.15928 0.46677 0.20749 0.0
O147 O 0.16386 0.48325 0.1951 0.0
O148 O 0.22675 0.46928 0.21805 0.0
O149 O 0.25409 0.49473 0.21538 0.0
O150 O 0.20039 0.51163 0.20508 0.0
O151 O 0.26732 0.52245 0.21039 0.0
H152 H 0.43683 0.5131 0.19434 0.0
H153 H 0.51596 0.50735 0.19328 0.0
H154 H 0.51584 0.48646 0.2211 0.0
H155 H 0.43677 0.49264 0.22224 0.0
H156 H 0.08519 0.46913 0.21548 0.0
H157 H 1.00596 0.47463 0.21645 0.0
H158 H 1.00604 0.49466 0.18847 0.0
H159 H 0.08526 0.48868 0.18742 0.0
La160 La 0.96331 0.50585 0.95442 0.0
La161 La 0.05373 0.48916 0.95583 0.0
C162 C 0.88576 0.5144 0.94955 0.0
C163 C 0.83902 0.50891 0.95063 0.0
C164 C 0.82028 0.50546 0.95931 0.0
C165 C 0.77475 0.50236 0.96017 0.0
C166 C 0.74709 0.5026 0.95237 0.0
C167 C 0.76634 0.50547 0.94367 0.0
C168 C 0.81175 0.50862 0.94283 0.0
C169 C 0.99679 0.50571 0.97126 0.0
C170 C 0.97501 0.46266 0.9576 0.0
C171 C 0.13158 0.4803 0.96028 0.0
C172 C 0.17815 0.48616 0.95934 0.0
C173 C 0.19704 0.49015 0.95073 0.0
C174 C 0.24251 0.49349 0.94996 0.0
C175 C 0.26996 0.49297 0.95779 0.0
C176 C 0.25057 0.48962 0.96643 0.0
C177 C 0.20522 0.48621 0.96718 0.0
C178 C 1.01783 0.48919 0.9392 0.0
C179 C 0.04438 0.53205 0.95263 0.0
O180 O 0.90581 0.52117 0.95677 0.0
O181 O 0.91148 0.50355 0.94479 0.0
O182 O 0.97048 0.51814 0.96805 0.0
O183 O 1.00059 0.4932 0.96534 0.0
O184 O 0.94905 0.47612 0.95466 0.0
O185 O 1.01616 0.46571 0.96014 0.0
O186 O 0.11146 0.47445 0.95287 0.0
O187 O 0.10573 0.4903 0.96547 0.0
O188 O 0.04318 0.4763 0.94229 0.0
O189 O 1.01603 0.50176 0.94508 0.0
O190 O 0.06917 0.51835 0.95559 0.0
O191 O 1.00235 0.52964 0.9504 0.0
H192 H 0.84058 0.50555 0.96545 0.0
H193 H 0.76114 0.49993 0.96695 0.0
H194 H 0.74609 0.50597 0.93753 0.0
H195 H 0.82542 0.51137 0.93607 0.0
H196 H 0.17694 0.49026 0.94456 0.0
H197 H 0.25625 0.49628 0.94323 0.0
H198 H 0.27069 0.48892 0.97258 0.0
H199 H 0.19148 0.48305 0.97388 0.0
La200 La 0.8453 0.23183 0.9542 0.0
La201 La 0.7551 0.24872 0.95557 0.0
C202 C 0.92266 0.22311 0.94932 0.0
C203 C 0.96957 0.22841 0.95037 0.0
C204 C 0.98984 0.22972 0.95905 0.0
C205 C 0.03554 0.23248 0.95976 0.0
C206 C 0.06191 0.23396 0.95181 0.0
C207 C 0.04115 0.23333 0.94315 0.0
C208 C 0.99556 0.23054 0.94245 0.0
C209 C 0.81161 0.23201 0.97102 0.0
C210 C 0.83419 0.27505 0.95744 0.0
C211 C 0.6773 0.25775 0.95995 0.0
C212 C 0.63071 0.25174 0.9592 0.0
C213 C 0.60946 0.24995 0.95064 0.0
C214 C 0.56391 0.24661 0.9502 0.0
C215 C 0.53863 0.24502 0.95829 0.0
C216 C 0.56039 0.24611 0.96683 0.0
C217 C 0.60583 0.24948 0.96728 0.0
C218 C 0.79136 0.24874 0.93897 0.0
C219 C 0.76394 0.20582 0.95241 0.0
O220 O 0.90252 0.21632 0.95652 0.0
O221 O 0.89711 0.23407 0.94457 0.0
O222 O 0.83794 0.21956 0.96784 0.0
O223 O 0.80802 0.24451 0.96509 0.0
O224 O 0.86008 0.26153 0.95454 0.0
O225 O 0.79285 0.2721 0.95988 0.0
O226 O 0.69716 0.26316 0.95242 0.0
O227 O 0.70348 0.24818 0.96528 0.0
O228 O 0.76632 0.26172 0.94208 0.0
O229 O 0.79279 0.2361 0.94482 0.0
O230 O 0.73929 0.21957 0.95535 0.0
O231 O 0.80598 0.20813 0.95019 0.0
H232 H 0.97067 0.22809 0.96529 0.0
H233 H 0.05039 0.23276 0.96654 0.0
H234 H 0.06023 0.23476 0.93689 0.0
H235 H 0.98072 0.22956 0.93568 0.0
H236 H 0.62766 0.25169 0.94429 0.0
H237 H 0.54827 0.24601 0.9435 0.0
H238 H 0.54218 0.24461 0.97321 0.0
H239 H 0.62136 0.25085 0.97396 0.0
La240 La 0.96291 0.23286 0.83572 0.0
La241 La 0.05295 0.24966 0.83445 0.0
C242 C 0.88533 0.22417 0.84046 0.0
C243 C 0.8385 0.22961 0.83933 0.0
C244 C 0.81711 0.22866 0.83075 0.0
C245 C 0.77146 0.23153 0.83009 0.0
C246 C 0.74617 0.23538 0.83798 0.0
C247 C 0.768 0.23697 0.8465 0.0
C248 C 0.81357 0.23406 0.84716 0.0
C249 C 0.99655 0.23326 0.8189 0.0
C250 C 0.97429 0.27614 0.83277 0.0
C251 C 0.13094 0.25861 0.83018 0.0
C252 C 0.17745 0.25253 0.83111 0.0
C253 C 0.19955 0.25304 0.83962 0.0
C254 C 0.24499 0.24957 0.84013 0.0
C255 C 0.26943 0.24556 0.83213 0.0
C256 C 0.2469 0.24442 0.82368 0.0
C257 C 0.20151 0.24793 0.82317 0.0
C258 C 1.01678 0.24938 0.85106 0.0
C259 C 0.04405 0.20672 0.83747 0.0
O260 O 0.90576 0.21738 0.8333 0.0
O261 O 0.91083 0.23501 0.84529 0.0
O262 O 0.97046 0.22073 0.82208 0.0
O263 O 1.00012 0.24573 0.82486 0.0
O264 O 0.94829 0.26258 0.83558 0.0
O265 O 1.0155 0.27319 0.83026 0.0
O266 O 0.11064 0.26423 0.83762 0.0
O267 O 0.10499 0.24897 0.82484 0.0
O268 O 0.04183 0.2624 0.848 0.0
O269 O 1.01531 0.23686 0.84515 0.0
O270 O 0.06871 0.22048 0.83455 0.0
O271 O 1.00204 0.20907 0.83971 0.0
H272 H 0.83532 0.22515 0.82458 0.0
H273 H 0.75577 0.23003 0.82343 0.0
H274 H 0.74975 0.24023 0.8527 0.0
H275 H 0.82918 0.23479 0.85386 0.0
H276 H 0.18211 0.25667 0.84587 0.0
H277 H 0.26125 0.25076 0.84674 0.0
H278 H 0.26447 0.24108 0.81741 0.0
H279 H 0.18543 0.24755 0.81651 0.0
La280 La 0.84364 0.50698 0.83579 0.0
La281 La 0.75446 0.4894 0.83485 0.0
C282 C 0.92155 0.51602 0.84016 0.0
C283 C 0.96835 0.51046 0.83894 0.0
C284 C 0.99179 0.51504 0.8309 0.0
C285 C 0.03732 0.51188 0.83029 0.0
C286 C 0.0606 0.50415 0.83773 0.0
C287 C 0.03686 0.49909 0.84566 0.0
C288 C 0.99134 0.50227 0.84627 0.0
C289 C 0.80773 0.50703 0.81917 0.0
C290 C 0.83419 0.46378 0.83225 0.0
C291 C 0.67622 0.47997 0.83102 0.0
C292 C 0.62961 0.48583 0.83224 0.0
C293 C 0.60584 0.48104 0.84021 0.0
C294 C 0.56044 0.4845 0.84082 0.0
C295 C 0.53761 0.49272 0.83346 0.0
C296 C 0.56166 0.49798 0.82561 0.0
C297 C 0.60705 0.49452 0.82499 0.0
C298 C 0.79286 0.48925 0.85123 0.0
C299 C 0.76153 0.53235 0.83811 0.0
O300 O 0.90055 0.52237 0.83296 0.0
O301 O 0.89628 0.50554 0.84524 0.0
O302 O 0.83345 0.5197 0.82235 0.0
O303 O 0.80569 0.49428 0.82501 0.0
O304 O 0.85963 0.47736 0.83523 0.0
O305 O 0.79255 0.46655 0.83001 0.0
O306 O 0.6977 0.47442 0.83833 0.0
O307 O 0.70123 0.48974 0.82554 0.0
O308 O 0.76845 0.47607 0.84813 0.0
O309 O 0.79274 0.5021 0.84548 0.0
O310 O 0.73724 0.51839 0.83531 0.0
O311 O 0.80404 0.53046 0.84003 0.0
H312 H 0.97531 0.52161 0.82516 0.0
H313 H 0.05453 0.51618 0.82413 0.0
H314 H 0.05357 0.49287 0.85146 0.0
H315 H 0.97434 0.49875 0.85259 0.0
H316 H 0.62195 0.47408 0.84587 0.0
H317 H 0.54294 0.48005 0.84693 0.0
H318 H 0.54527 0.50455 0.81986 0.0
H319 H 0.62425 0.4982 0.81872 0.0
La320 La 1.00445 -0.00024 0.58515 0.0
La321 La 0.0942 0.98243 0.58629 0.0
C322 C 0.92666 0.00905 0.58088 0.0
C323 C 0.87999 0.00314 0.5817 0.0
C324 C 0.85873 0.0018 0.59028 0.0
C325 C 0.81317 -0.00146 0.59077 0.0
C326 C 0.78784 -0.00343 0.5827 0.0
C327 C 0.80958 -0.00277 0.57415 0.0
C328 C 0.85505 0.00054 0.57366 0.0
C329 C 0.04127 -0.00042 0.60167 0.0
C330 C 1.01226 0.95677 0.58824 0.0
C331 C 0.17179 0.97335 0.59087 0.0
C332 C 0.21863 0.97893 0.58995 0.0
C333 C 0.23958 0.98001 0.58133 0.0
C334 C 0.28523 0.98298 0.58074 0.0
C335 C 0.31095 0.98492 0.58877 0.0
C336 C 0.28953 0.9845 0.59736 0.0
C337 C 0.24396 0.98149 0.59794 0.0
C338 C 0.05928 0.98284 0.56958 0.0
C339 C 0.08396 0.02576 0.58328 0.0
O340 O 0.94688 0.01438 0.58838 0.0
O341 O 0.95251 -0.00056 0.5755 0.0
O342 O 1.01634 0.01265 0.59861 0.0
O343 O 0.04237 0.98692 0.59582 0.0
O344 O 0.98783 0.97072 0.58546 0.0
O345 O 0.05465 0.95873 0.59026 0.0
O346 O 0.1516 0.96734 0.58351 0.0
O347 O 0.1461 0.98364 0.59595 0.0
O348 O 0.08502 0.97013 0.57271 0.0
O349 O 0.05681 -0.00462 0.57551 0.0
O350 O 0.10966 0.01208 0.58606 0.0
O351 O 0.04252 0.02304 0.58087 0.0
H352 H 0.87695 0.00383 0.59661 0.0
H353 H 0.79755 -0.00173 0.59748 0.0
H354 H 0.79135 -0.00455 0.5678 0.0
H355 H 0.87056 0.00157 0.56695 0.0
H356 H 0.22101 0.97801 0.57503 0.0
H357 H 0.3006 0.98307 0.57401 0.0
H358 H 0.30808 0.98626 0.60367 0.0
H359 H 0.22866 0.98066 0.60467 0.0
La360 La 0.30518 0.23909 0.58447 0.0
La361 La 0.21535 0.25637 0.58566 0.0
C362 C 0.3831 0.22993 0.58023 0.0
C363 C 0.42976 0.23565 0.58127 0.0
C364 C 0.44874 0.23894 0.58995 0.0
C365 C 0.49421 0.24225 0.59077 0.0
C366 C 0.5216 0.24238 0.58293 0.0
C367 C 0.50214 0.23968 0.57424 0.0
C368 C 0.45679 0.23631 0.57344 0.0
C369 C 0.26816 0.23898 0.60099 0.0
C370 C 0.29724 0.28202 0.58778 0.0
C371 C 0.13763 0.26524 0.59027 0.0
C372 C 0.0909 0.25958 0.5893 0.0
C373 C 0.07147 0.25655 0.58064 0.0
C374 C 1.02592 0.25337 0.5799 0.0
C375 C 0.99889 0.25312 0.58779 0.0
C376 C 1.01881 0.25557 0.59645 0.0
C377 C 0.06424 0.2588 0.59719 0.0
C378 C 0.25048 0.2564 0.56896 0.0
C379 C 0.22572 0.21317 0.58223 0.0
O380 O 0.36241 0.22411 0.58758 0.0
O381 O 0.35775 0.24004 0.57497 0.0
O382 O 0.29312 0.22597 0.59789 0.0
O383 O 0.26714 0.25172 0.59518 0.0
O384 O 0.32173 0.26813 0.58496 0.0
O385 O 0.25479 0.28002 0.58975 0.0
O386 O 0.15778 0.2714 0.58293 0.0
O387 O 0.16338 0.25488 0.5953 0.0
O388 O 0.22461 0.26901 0.57216 0.0
O389 O 0.25295 0.24374 0.57483 0.0
O390 O 0.20014 0.2267 0.58523 0.0
O391 O 0.26712 0.21606 0.57984 0.0
H392 H 0.42871 0.23857 0.59613 0.0
H393 H 0.508 0.24453 0.59755 0.0
H394 H 0.52219 0.23947 0.56807 0.0
H395 H 0.44301 0.23367 0.56668 0.0
H396 H 0.09121 0.25703 0.57443 0.0
H397 H 1.01181 0.25127 0.57313 0.0
H398 H 0.99904 0.25568 0.60267 0.0
H399 H 0.07839 0.26124 0.60393 0.0
La400 La 1.00324 0.23939 0.70517 0.0
La401 La 0.09244 0.25696 0.70419 0.0
C402 C 0.92513 0.23003 0.70914 0.0
C403 C 0.8785 0.23591 0.708 0.0
C404 C 0.8554 0.23261 0.69977 0.0
C405 C 0.80997 0.23605 0.69918 0.0
C406 C 0.78646 0.24278 0.70682 0.0
C407 C 0.80989 0.24659 0.71496 0.0
C408 C 0.85529 0.24313 0.71555 0.0
C409 C 0.04103 0.23938 0.68874 0.0
C410 C 1.01031 0.28236 0.70194 0.0
C411 C 0.17035 0.26609 0.69987 0.0
C412 C 0.21715 0.26047 0.70101 0.0
C413 C 0.24009 0.26376 0.70927 0.0
C414 C 0.28565 0.26062 0.70984 0.0
C415 C 0.30943 0.25419 0.70217 0.0
C416 C 0.28616 0.25038 0.69401 0.0
C417 C 0.24063 0.25355 0.69343 0.0
C418 C 0.0566 0.2568 0.72083 0.0
C419 C 0.08292 0.21368 0.70747 0.0
O420 O 0.94631 0.22445 0.7018 0.0
O421 O 0.95037 0.23981 0.71457 0.0
O422 O 1.01643 0.22625 0.69183 0.0
O423 O 0.04141 0.25218 0.69452 0.0
O424 O 0.98606 0.26838 0.70473 0.0
O425 O 0.05282 0.28048 0.70001 0.0
O426 O 0.14946 0.27219 0.70713 0.0
O427 O 0.14501 0.25581 0.69471 0.0
O428 O 0.08204 0.26957 0.71766 0.0
O429 O 0.05478 0.24411 0.71497 0.0
O430 O 0.10837 0.22734 0.70457 0.0
O431 O 0.04139 0.2164 0.70981 0.0
H432 H 0.87205 0.22683 0.69384 0.0
H433 H 0.79298 0.23274 0.69283 0.0
H434 H 0.79302 0.25202 0.72094 0.0
H435 H 0.87203 0.24566 0.72202 0.0
H436 H 0.2232 0.2693 0.71522 0.0
H437 H 0.30248 0.26392 0.71621 0.0
H438 H 0.30324 0.24517 0.68801 0.0
H439 H 0.22397 0.25104 0.68695 0.0
La440 La 0.30361 -0.00028 0.70612 0.0
La441 La 0.21351 0.98296 0.70479 0.0
C442 C 0.3815 0.00861 0.7105 0.0
C443 C 0.42808 0.00263 0.7096 0.0
C444 C 0.44996 0.0027 0.70106 0.0
C445 C 0.49547 -0.00064 0.70057 0.0
C446 C 0.52014 -0.00408 0.7086 0.0
C447 C 0.4978 -0.00481 0.71709 0.0
C448 C 0.45237 -0.00143 0.71758 0.0
C449 C 0.2676 -0.00027 0.68951 0.0
C450 C 0.29463 0.95683 0.70293 0.0
C451 C 0.13591 0.97434 0.70004 0.0
C452 C 0.08912 0.97981 0.70116 0.0
C453 C 0.06809 0.97945 0.70979 0.0
C454 C 1.02246 0.98235 0.71048 0.0
C455 C 0.99686 0.98563 0.70256 0.0
C456 C 1.01834 0.98666 0.69398 0.0
C457 C 0.06389 0.98372 0.6933 0.0
C458 C 0.24749 0.98309 0.7216 0.0
C459 C 0.2249 0.02616 0.70798 0.0
O460 O 0.36132 0.01438 0.70308 0.0
O461 O 0.35553 -0.00121 0.71576 0.0
O462 O 0.29271 0.01267 0.69262 0.0
O463 O 0.26588 0.9871 0.69536 0.0
O464 O 0.31935 0.97054 0.70588 0.0
O465 O 0.25258 0.95922 0.70072 0.0
O466 O 0.15628 0.96753 0.7072 0.0
O467 O 0.16146 0.98517 0.69522 0.0
O468 O 0.22134 0.9706 0.7184 0.0
O469 O 0.25075 -0.00439 0.71567 0.0
O470 O 0.19897 0.01269 0.70505 0.0
O471 O 0.26609 0.02311 0.71048 0.0
H472 H 0.43229 0.0059 0.69478 0.0
H473 H 0.51159 0.00021 0.69393 0.0
H474 H 0.51555 0.99227 0.72339 0.0
H475 H 0.4364 -0.00149 0.72425 0.0
H476 H 0.08657 0.97638 0.71599 0.0
H477 H 1.00702 0.9813 0.71718 0.0
H478 H 0.99985 0.98948 0.68776 0.0
H479 H 0.07925 0.98401 0.68656 0.0
La480 La 0.96256 0.00666 0.45476 0.0
La481 La 0.05273 0.98973 0.45616 0.0
C482 C 0.88526 0.01552 0.44987 0.0
C483 C 0.83832 0.01021 0.45082 0.0
C484 C 0.81847 0.00758 0.45947 0.0
C485 C 0.77275 0.00482 0.46017 0.0
C486 C 0.74596 0.00467 0.45224 0.0
C487 C 0.76632 0.00662 0.44359 0.0
C488 C 0.81192 0.0094 0.4429 0.0
C489 C 0.99594 0.00626 0.4716 0.0
C490 C 0.97364 0.96338 0.45775 0.0
C491 C 0.1304 0.98059 0.46061 0.0
C492 C 0.17705 0.98654 0.45996 0.0
C493 C 0.19771 0.98973 0.45144 0.0
C494 C 0.2433 0.99299 0.45099 0.0
C495 C 0.26921 0.99309 0.45905 0.0
C496 C 0.24801 0.99062 0.46758 0.0
C497 C 0.20253 0.98732 0.46801 0.0
C498 C 1.01685 0.98992 0.43953 0.0
C499 C 0.04402 0.03267 0.45309 0.0
O500 O 0.90522 0.02204 0.45715 0.0
O501 O 0.91092 0.00471 0.44507 0.0
O502 O 0.96985 0.0188 0.46842 0.0
O503 O 0.99957 0.9938 0.46565 0.0
O504 O 0.94781 0.97697 0.45491 0.0
O505 O 1.01486 0.96625 0.46029 0.0
O506 O 0.11077 0.97537 0.45302 0.0
O507 O 0.10412 0.99008 0.46595 0.0
O508 O 0.04184 0.97691 0.44263 0.0
O509 O 1.01528 0.00249 0.44542 0.0
O510 O 0.06858 0.01889 0.45603 0.0
O511 O 1.00201 0.03038 0.45082 0.0
H512 H 0.83801 0.00817 0.46571 0.0
H513 H 0.75821 0.00349 0.46695 0.0
H514 H 0.74692 0.00622 0.43733 0.0
H515 H 0.82646 0.0114 0.43616 0.0
H516 H 0.17896 0.98917 0.44509 0.0
H517 H 0.25848 -0.0053 0.4443 0.0
H518 H 0.26669 0.99096 0.47393 0.0
H519 H 0.18742 0.98487 0.47466 0.0
La520 La 0.84502 0.7325 0.45402 0.0
La521 La 0.75477 0.74925 0.4554 0.0
C522 C 0.92246 0.72393 0.44913 0.0
C523 C 0.96931 0.72933 0.45019 0.0
C524 C 0.99025 0.7295 0.45884 0.0
C525 C 0.03592 0.73234 0.45949 0.0
C526 C 0.06163 0.73504 0.45153 0.0
C527 C 0.04022 0.73554 0.44294 0.0
C528 C 0.99464 0.73267 0.44228 0.0
C529 C 0.81143 0.73256 0.47084 0.0
C530 C 0.8336 0.77567 0.45733 0.0
C531 C 0.67689 0.75813 0.45979 0.0
C532 C 0.63032 0.75216 0.45888 0.0
C533 C 0.6089 0.75161 0.45029 0.0
C534 C 0.5634 0.74826 0.44976 0.0
C535 C 0.5383 0.74543 0.45779 0.0
C536 C 0.5602 0.74532 0.46634 0.0
C537 C 0.60561 0.74871 0.46687 0.0
C538 C 0.79084 0.74929 0.43879 0.0
C539 C 0.76391 0.70636 0.45221 0.0
O540 O 0.90234 0.71705 0.45631 0.0
O541 O 0.89679 0.73486 0.44439 0.0
O542 O 0.83782 0.72016 0.46764 0.0
O543 O 0.80772 0.74509 0.46493 0.0
O544 O 0.85952 0.76223 0.45435 0.0
O545 O 0.79238 0.7726 0.45981 0.0
O546 O 0.69706 0.76394 0.45238 0.0
O547 O 0.70284 0.74826 0.46504 0.0
O548 O 0.76568 0.76223 0.4419 0.0
O549 O 0.79243 0.73668 0.44464 0.0
O550 O 0.73914 0.72007 0.45516 0.0
O551 O 0.80593 0.70875 0.44999 0.0
H552 H 0.97165 0.7269 0.46507 0.0
H553 H 0.05129 0.73171 0.46622 0.0
H554 H 0.0588 0.73792 0.43668 0.0
H555 H 0.97933 0.73256 0.43554 0.0
H556 H 0.62694 0.75431 0.444 0.0
H557 H 0.54764 0.74861 0.44307 0.0
H558 H 0.54211 0.74287 0.47265 0.0
H559 H 0.62124 0.74913 0.47358 0.0
La560 La 0.9655 0.73161 0.33523 0.0
La561 La 0.05442 0.74934 0.33446 0.0
C562 C 0.88743 0.72235 0.33937 0.0
C563 C 0.8406 0.72781 0.33803 0.0
C564 C 0.81572 0.72027 0.33079 0.0
C565 C 0.77026 0.7235 0.33014 0.0
C566 C 0.74839 0.73424 0.33676 0.0
C567 C 0.77347 0.74215 0.34388 0.0
C568 C 0.81899 0.73893 0.34453 0.0
C569 C 1.0021 0.73164 0.31868 0.0
C570 C 0.97456 0.77482 0.33172 0.0
C571 C 0.13277 0.75897 0.33086 0.0
C572 C 0.1794 0.75324 0.33222 0.0
C573 C 0.20468 0.76108 0.33932 0.0
C574 C 0.24999 0.75755 0.34001 0.0
C575 C 0.27131 0.74622 0.33356 0.0
C576 C 0.24583 0.73803 0.32658 0.0
C577 C 0.20043 0.74152 0.32591 0.0
C578 C 1.01534 0.74941 0.35077 0.0
C579 C 0.04772 0.70637 0.33768 0.0
O580 O 0.90886 0.71617 0.3322 0.0
O581 O 0.91236 0.73276 0.34456 0.0
O582 O 0.97659 0.71888 0.32183 0.0
O583 O 1.00371 0.7444 0.3245 0.0
O584 O 0.94922 0.76119 0.33469 0.0
O585 O 1.01629 0.77212 0.32953 0.0
O586 O 0.11083 0.76439 0.33812 0.0
O587 O 0.10816 0.74922 0.32529 0.0
O588 O 0.03963 0.76265 0.34769 0.0
O589 O 1.01587 0.73654 0.34504 0.0
O590 O 0.07194 0.72037 0.3349 0.0
O591 O 1.00515 0.7082 0.33956 0.0
H592 H 0.83109 0.71137 0.32575 0.0
H593 H 0.75198 0.71696 0.32464 0.0
H594 H 0.75782 0.75067 0.34904 0.0
H595 H 0.83702 0.74478 0.35026 0.0
H596 H 0.18972 0.77042 0.3442 0.0
H597 H 0.26864 0.7643 0.34539 0.0
H598 H 0.26109 0.72907 0.32156 0.0
H599 H 0.18211 0.7354 0.32029 0.0
La600 La 0.84686 0.00573 0.33619 0.0
La601 La 0.75636 0.98911 0.33489 0.0
C602 C 0.92442 0.01433 0.34101 0.0
C603 C 0.97116 0.00883 0.33994 0.0
C604 C 0.98976 0.00511 0.33128 0.0
C605 C 0.0353 0.00202 0.33041 0.0
C606 C 0.06309 0.00254 0.33819 0.0
C607 C 0.04397 0.00569 0.34687 0.0
C608 C 0.99856 0.00882 0.34773 0.0
C609 C 0.81325 0.00536 0.31937 0.0
C610 C 0.83488 0.96247 0.33327 0.0
C611 C 0.67845 0.98024 0.3305 0.0
C612 C 0.63195 0.98625 0.33135 0.0
C613 C 0.61304 0.99066 0.33991 0.0
C614 C 0.56759 0.99407 0.34062 0.0
C615 C 0.54017 0.99321 0.3328 0.0
C616 C 0.5596 0.98946 0.32421 0.0
C617 C 0.60493 0.98597 0.32351 0.0
C618 C 0.79241 0.98937 0.35151 0.0
C619 C 0.7659 0.03205 0.33788 0.0
O620 O 0.90434 0.02099 0.33377 0.0
O621 O 0.89874 0.00354 0.34582 0.0
O622 O 0.83963 0.01781 0.32252 0.0
O623 O 0.80942 0.99293 0.32534 0.0
O624 O 0.8611 0.97598 0.33603 0.0
O625 O 0.79363 0.96547 0.33079 0.0
O626 O 0.6984 0.97468 0.33799 0.0
O627 O 0.70449 0.98996 0.32521 0.0
O628 O 0.76698 0.97645 0.34848 0.0
O629 O 0.79421 0.00184 0.34558 0.0
O630 O 0.74102 0.01832 0.335 0.0
O631 O 0.80793 0.02964 0.3401 0.0
H632 H 0.96935 0.00498 0.32515 0.0
H633 H 0.0488 -0.00062 0.32364 0.0
H634 H 0.06432 0.00641 0.35299 0.0
H635 H 0.98499 0.01179 0.35447 0.0
H636 H 0.6331 0.99103 0.34608 0.0
H637 H 0.55381 -0.00282 0.34732 0.0
H638 H 0.53951 0.98848 0.31806 0.0
H639 H 0.6187 0.98248 0.31685 0.0
La640 La 0.50601 0.49907 0.58451 0.0
La641 La 0.59624 0.48219 0.58593 0.0
C642 C 0.42836 0.50808 0.58 0.0
C643 C 0.38173 0.50211 0.5807 0.0
C644 C 0.36074 0.49974 0.58926 0.0
C645 C 0.31517 0.49644 0.5897 0.0
C646 C 0.28961 0.49547 0.58162 0.0
C647 C 0.31113 0.49713 0.57307 0.0
C648 C 0.35659 0.50047 0.57263 0.0
C649 C 0.54158 0.49891 0.60116 0.0
C650 C 0.51486 0.45614 0.58763 0.0
C651 C 0.67362 0.47336 0.59077 0.0
C652 C 0.72053 0.4787 0.58976 0.0
C653 C 0.74061 0.48055 0.58109 0.0
C654 C 0.78631 0.48332 0.58038 0.0
C655 C 0.81287 0.48427 0.58833 0.0
C656 C 0.79229 0.4831 0.59699 0.0
C657 C 0.7467 0.4803 0.59769 0.0
C658 C 0.56266 0.48261 0.56909 0.0
C659 C 0.58505 0.52546 0.58295 0.0
O660 O 0.448 0.51355 0.58754 0.0
O661 O 0.45466 0.49845 0.57472 0.0
O662 O 0.5164 0.51186 0.59806 0.0
O663 O 0.54351 0.48634 0.59528 0.0
O664 O 0.49025 0.4699 0.58469 0.0
O665 O 0.55688 0.45845 0.58989 0.0
O666 O 0.6535 0.46676 0.58353 0.0
O667 O 0.64802 0.48419 0.59559 0.0
O668 O 0.58876 0.47006 0.57226 0.0
O669 O 0.55927 0.49503 0.57506 0.0
O670 O 0.61091 0.51189 0.58579 0.0
O671 O 0.54384 0.52257 0.5804 0.0
H672 H 0.37919 0.50098 0.59561 0.0
H673 H 0.29974 0.49538 0.59641 0.0
H674 H 0.29272 0.49612 0.5667 0.0
H675 H 0.37195 0.50228 0.56595 0.0
H676 H 0.72129 0.47934 0.57484 0.0
H677 H 0.80102 0.48403 0.5736 0.0
H678 H 0.81151 0.48411 0.60326 0.0
H679 H 0.732 0.47889 0.60446 0.0
La680 La 0.80442 0.73948 0.58421 0.0
La681 La 0.71418 0.75635 0.58561 0.0
C682 C 0.88209 0.73046 0.57974 0.0
C683 C 0.92876 0.73632 0.58048 0.0
C684 C 0.94953 0.73883 0.58904 0.0
C685 C 0.99513 0.74204 0.58953 0.0
C686 C 1.02092 0.74279 0.58147 0.0
C687 C 0.99962 0.74099 0.57291 0.0
C688 C 0.95414 0.73774 0.57243 0.0
C689 C 0.76853 0.73948 0.60083 0.0
C690 C 0.79555 0.78239 0.5874 0.0
C691 C 0.63681 0.76512 0.59046 0.0
C692 C 0.58992 0.75974 0.5895 0.0
C693 C 0.5698 0.75763 0.58084 0.0
C694 C 0.5241 0.75481 0.58017 0.0
C695 C 0.4976 0.75407 0.58813 0.0
C696 C 0.51824 0.7555 0.59678 0.0
C697 C 0.56382 0.75834 0.59745 0.0
C698 C 0.74806 0.75618 0.56879 0.0
C699 C 0.72534 0.71315 0.58239 0.0
O700 O 0.8623 0.72491 0.58725 0.0
O701 O 0.85597 0.74022 0.57448 0.0
O702 O 0.79366 0.72653 0.59772 0.0
O703 O 0.76676 0.75211 0.59498 0.0
O704 O 0.82024 0.76865 0.58447 0.0
O705 O 0.75348 0.78007 0.58961 0.0
O706 O 0.65677 0.77168 0.58319 0.0
O707 O 0.66252 0.75436 0.59529 0.0
O708 O 0.72186 0.76868 0.57198 0.0
O709 O 0.75137 0.74368 0.57473 0.0
O710 O 0.69952 0.72664 0.58534 0.0
O711 O 0.76658 0.71614 0.57989 0.0
H712 H 0.93088 0.73777 0.59538 0.0
H713 H 1.01041 0.74323 0.59624 0.0
H714 H 1.01821 0.74183 0.56655 0.0
H715 H 0.93894 0.73582 0.56574 0.0
H716 H 0.58908 0.75868 0.57459 0.0
H717 H 0.50934 0.7539 0.5734 0.0
H718 H 0.49906 0.75465 0.60306 0.0
H719 H 0.57857 0.75994 0.6042 0.0
La720 La 0.50416 0.73958 0.70505 0.0
La721 La 0.59374 0.75701 0.70391 0.0
C722 C 0.4263 0.73028 0.70924 0.0
C723 C 0.3796 0.73611 0.70831 0.0
C724 C 0.35817 0.73649 0.69972 0.0
C725 C 0.31261 0.73974 0.69917 0.0
C726 C 0.28744 0.74262 0.70719 0.0
C727 C 0.30933 0.74288 0.71574 0.0
C728 C 0.3548 0.7396 0.71628 0.0
C729 C 0.54142 0.7395 0.68857 0.0
C730 C 0.51166 0.78254 0.7018 0.0
C731 C 0.67137 0.76603 0.69934 0.0
C732 C 0.71819 0.76042 0.70028 0.0
C733 C 0.7396 0.76015 0.70887 0.0
C734 C 0.78524 0.75712 0.70943 0.0
C735 C 0.81051 0.75434 0.70141 0.0
C736 C 0.78865 0.75397 0.69286 0.0
C737 C 0.74309 0.75703 0.69231 0.0
C738 C 0.55846 0.75691 0.7206 0.0
C739 C 0.5839 0.71377 0.70732 0.0
O740 O 0.44689 0.72475 0.70182 0.0
O741 O 0.45185 0.74008 0.7146 0.0
O742 O 0.51671 0.72641 0.69168 0.0
O743 O 0.54216 0.75228 0.69436 0.0
O744 O 0.48728 0.7686 0.7046 0.0
O745 O 0.55412 0.78062 0.69984 0.0
O746 O 0.65113 0.77212 0.70668 0.0
O747 O 0.64566 0.75573 0.69427 0.0
O748 O 0.58422 0.76958 0.71743 0.0
O749 O 0.55621 0.74427 0.71472 0.0
O750 O 0.60941 0.72736 0.70436 0.0
O751 O 0.54239 0.71657 0.70966 0.0
H752 H 0.37625 0.73375 0.69344 0.0
H753 H 0.29686 0.73927 0.69248 0.0
H754 H 0.29121 0.74537 0.72204 0.0
H755 H 0.37041 0.7393 0.72299 0.0
H756 H 0.72141 0.76281 0.71515 0.0
H757 H 0.80095 0.75766 0.71612 0.0
H758 H 0.80686 0.75155 0.68656 0.0
H759 H 0.72746 0.75724 0.6856 0.0
La760 La 0.80223 0.49941 0.70574 0.0
La761 La 0.71171 0.48281 0.7044 0.0
C762 C 0.88006 0.50823 0.71021 0.0
C763 C 0.92659 0.5023 0.70932 0.0
C764 C 0.94541 0.49799 0.70074 0.0
C765 C 0.99086 0.49461 0.69999 0.0
C766 C 1.01836 0.4954 0.70781 0.0
C767 C 0.99902 0.49907 0.71642 0.0
C768 C 0.95369 0.50252 0.71715 0.0
C769 C 0.76652 0.49923 0.68911 0.0
C770 C 0.79263 0.45649 0.70267 0.0
C771 C 0.63408 0.47421 0.69963 0.0
C772 C 0.58737 0.47976 0.70068 0.0
C773 C 0.56869 0.48345 0.70934 0.0
C774 C 0.52316 0.48656 0.71019 0.0
C775 C 0.49544 0.48609 0.7024 0.0
C776 C 0.51463 0.48298 0.69372 0.0
C777 C 0.56004 0.47983 0.69288 0.0
C778 C 0.74551 0.48319 0.72122 0.0
C779 C 0.72373 0.52605 0.70732 0.0
O780 O 0.8601 0.51401 0.70276 0.0
O781 O 0.85407 0.49832 0.71542 0.0
O782 O 0.79203 0.5121 0.69215 0.0
O783 O 0.7644 0.48672 0.69502 0.0
O784 O 0.81754 0.4702 0.70557 0.0
O785 O 0.75059 0.45892 0.70046 0.0
O786 O 0.65415 0.46763 0.70689 0.0
O787 O 0.6598 0.4849 0.69477 0.0
O788 O 0.71921 0.4707 0.71808 0.0
O789 O 0.74903 0.49559 0.71524 0.0
O790 O 0.6976 0.51257 0.70449 0.0
O791 O 0.76484 0.523 0.70989 0.0
H792 H 0.92527 0.49766 0.69458 0.0
H793 H 1.00457 0.49157 0.69328 0.0
H794 H 1.01918 0.49999 0.72256 0.0
H795 H 0.93999 0.50593 0.72382 0.0
H796 H 0.58903 0.48353 0.71547 0.0
H797 H 0.50959 0.48918 0.71696 0.0
H798 H 0.49434 0.48231 0.68759 0.0
H799 H 0.57366 0.47688 0.68614 0.0
La800 La 0.46591 0.50636 0.45441 0.0
La801 La 0.55558 0.48897 0.4556 0.0
C802 C 0.38836 0.5153 0.44974 0.0
C803 C 0.34151 0.50976 0.45072 0.0
C804 C 0.32022 0.50958 0.45932 0.0
C805 C 0.27457 0.50659 0.45991 0.0
C806 C 0.2492 0.50375 0.45191 0.0
C807 C 0.27095 0.5033 0.44335 0.0
C808 C 0.31651 0.50632 0.44277 0.0
C809 C 0.50074 0.50629 0.47112 0.0
C810 C 0.47593 0.46313 0.45783 0.0
C811 C 0.63348 0.47969 0.45978 0.0
C812 C 0.68016 0.48554 0.45885 0.0
C813 C 0.70165 0.48586 0.45027 0.0
C814 C 0.7472 0.48912 0.44973 0.0
C815 C 0.7723 0.49209 0.45775 0.0
C816 C 0.75035 0.49241 0.46629 0.0
C817 C 0.70489 0.48911 0.46683 0.0
C818 C 0.5183 0.48893 0.43911 0.0
C819 C 0.54795 0.53192 0.45234 0.0
O820 O 0.40858 0.52162 0.45703 0.0
O821 O 0.41404 0.5048 0.44477 0.0
O822 O 0.47483 0.51889 0.46794 0.0
O823 O 0.50345 0.49364 0.46525 0.0
O824 O 0.45038 0.47672 0.45487 0.0
O825 O 0.51743 0.46593 0.46018 0.0
O826 O 0.61291 0.47419 0.45235 0.0
O827 O 0.6079 0.48945 0.46515 0.0
O828 O 0.54301 0.47582 0.44221 0.0
O829 O 0.51769 0.50167 0.4449 0.0
O830 O 0.57233 0.51801 0.45518 0.0
O831 O 0.50554 0.52995 0.45033 0.0
H832 H 0.3385 0.51227 0.46559 0.0
H833 H 0.25894 0.5072 0.46661 0.0
H834 H 0.25267 0.50084 0.43707 0.0
H835 H 0.33207 0.50646 0.43605 0.0
H836 H 0.68363 0.48304 0.44399 0.0
H837 H 0.76299 0.4886 0.44305 0.0
H838 H 0.76842 0.49497 0.47259 0.0
H839 H 0.68924 0.48886 0.47353 0.0
La840 La 0.3436 0.23258 0.45414 0.0
La841 La 0.25364 0.24977 0.45531 0.0
C842 C 0.42123 0.22369 0.44947 0.0
C843 C 0.46799 0.22928 0.45043 0.0
C844 C 0.48706 0.23298 0.45905 0.0
C845 C 0.53262 0.23612 0.45982 0.0
C846 C 0.56 0.23569 0.45198 0.0
C847 C 0.54042 0.23258 0.44333 0.0
C848 C 0.49498 0.22938 0.44258 0.0
C849 C 0.30913 0.23288 0.47088 0.0
C850 C 0.33291 0.27587 0.45723 0.0
C851 C 0.17572 0.25896 0.45954 0.0
C852 C 0.12913 0.25307 0.45864 0.0
C853 C 0.11023 0.24885 0.45006 0.0
C854 C 0.06478 0.24544 0.44932 0.0
C855 C 0.03733 0.24611 0.45714 0.0
C856 C 0.05674 0.24972 0.46575 0.0
C857 C 0.10206 0.2532 0.46648 0.0
C858 C 0.29055 0.24958 0.43878 0.0
C859 C 0.26183 0.20679 0.45224 0.0
O860 O 0.40116 0.21751 0.45681 0.0
O861 O 0.39547 0.23411 0.44447 0.0
O862 O 0.33506 0.22027 0.46772 0.0
O863 O 0.3061 0.24543 0.46495 0.0
O864 O 0.3587 0.26226 0.4544 0.0
O865 O 0.29152 0.27306 0.45965 0.0
O866 O 0.19607 0.26439 0.45208 0.0
O867 O 0.20141 0.24923 0.46491 0.0
O868 O 0.26557 0.26265 0.44183 0.0
O869 O 0.29155 0.23697 0.44465 0.0
O870 O 0.23732 0.2207 0.45503 0.0
O871 O 0.30419 0.20882 0.45019 0.0
H872 H 0.46701 0.23303 0.46523 0.0
H873 H 0.54646 0.23874 0.46656 0.0
H874 H 0.56044 0.23193 0.43716 0.0
H875 H 0.48109 0.22644 0.43587 0.0
H876 H 0.13032 0.2486 0.44389 0.0
H877 H 0.05105 0.24244 0.4426 0.0
H878 H 0.03663 0.25055 0.47191 0.0
H879 H 0.11579 0.25655 0.47316 0.0
La880 La 0.4661 0.23178 0.33584 0.0
La881 La 0.55587 0.2492 0.33465 0.0
C882 C 0.38853 0.22282 0.34051 0.0
C883 C 0.34171 0.22838 0.3396 0.0
C884 C 0.3225 0.23221 0.331 0.0
C885 C 0.27692 0.23535 0.33027 0.0
C886 C 0.24963 0.23477 0.33812 0.0
C887 C 0.26934 0.23151 0.34674 0.0
C888 C 0.3148 0.22833 0.34746 0.0
C889 C 0.50111 0.23176 0.31914 0.0
C890 C 0.47608 0.275 0.33235 0.0
C891 C 0.63378 0.25848 0.33046 0.0
C892 C 0.68042 0.25267 0.3314 0.0
C893 C 0.69917 0.24839 0.34 0.0
C894 C 0.74462 0.24497 0.34077 0.0
C895 C 0.77222 0.2457 0.33297 0.0
C896 C 0.75297 0.24941 0.32435 0.0
C897 C 0.70766 0.25289 0.32359 0.0
C898 C 0.51845 0.24932 0.35113 0.0
C899 C 0.54827 0.20625 0.33796 0.0
O900 O 0.40854 0.21673 0.33314 0.0
O901 O 0.41429 0.23321 0.34552 0.0
O902 O 0.47522 0.21916 0.32234 0.0
O903 O 0.50375 0.24444 0.325 0.0
O904 O 0.45058 0.26143 0.33534 0.0
O905 O 0.51763 0.27221 0.33003 0.0
O906 O 0.61324 0.26395 0.3379 0.0
O907 O 0.60829 0.24865 0.32511 0.0
O908 O 0.54322 0.2624 0.34803 0.0
O909 O 0.51787 0.23656 0.34534 0.0
O910 O 0.57263 0.22018 0.33513 0.0
O911 O 0.50579 0.20819 0.33992 0.0
H912 H 0.34247 0.23239 0.32481 0.0
H913 H 0.26298 0.23807 0.32354 0.0
H914 H 0.24941 0.23075 0.35292 0.0
H915 H 0.3288 0.22528 0.35415 0.0
H916 H 0.67895 0.24807 0.34615 0.0
H917 H 0.75822 0.24191 0.34749 0.0
H918 H 0.77318 0.25029 0.31822 0.0
H919 H 0.69404 0.25628 0.31691 0.0
La920 La 0.34595 0.50577 0.3361 0.0
La921 La 0.2556 0.48903 0.33471 0.0
C922 C 0.42327 0.51452 0.34101 0.0
C923 C 0.47017 0.50921 0.34001 0.0
C924 C 0.48984 0.5066 0.33135 0.0
C925 C 0.53555 0.50385 0.33061 0.0
C926 C 0.56249 0.50367 0.33852 0.0
C927 C 0.54229 0.50558 0.34719 0.0
C928 C 0.4967 0.50835 0.34792 0.0
C929 C 0.3127 0.50534 0.31925 0.0
C930 C 0.33445 0.46249 0.33319 0.0
C931 C 0.17793 0.47999 0.33025 0.0
C932 C 0.1313 0.486 0.33084 0.0
C933 C 0.11045 0.48922 0.33934 0.0
C934 C 0.06485 0.49249 0.33973 0.0
C935 C 0.03915 0.4926 0.33165 0.0
C936 C 0.06055 0.49011 0.32314 0.0
C937 C 0.10604 0.4868 0.32276 0.0
C938 C 0.29141 0.48926 0.35135 0.0
C939 C 0.26476 0.53198 0.3377 0.0
O940 O 0.40328 0.52118 0.33376 0.0
O941 O 0.39763 0.50364 0.34578 0.0
O942 O 0.33895 0.51783 0.32242 0.0
O943 O 0.30885 0.49293 0.32523 0.0
O944 O 0.3605 0.47606 0.33595 0.0
O945 O 0.29317 0.4654 0.3307 0.0
O946 O 0.19737 0.47484 0.33787 0.0
O947 O 0.20437 0.48936 0.32489 0.0
O948 O 0.26625 0.47629 0.34828 0.0
O949 O 0.29316 0.50179 0.34544 0.0
O950 O 0.24004 0.51823 0.33479 0.0
O951 O 0.30673 0.5296 0.33998 0.0
H952 H 0.47018 0.50722 0.32512 0.0
H953 H 0.54996 0.50256 0.32382 0.0
H954 H 0.56182 0.50516 0.35343 0.0
H955 H 0.48229 0.51032 0.35467 0.0
H956 H 0.12902 0.48865 0.3457 0.0
H957 H 0.04951 0.49421 0.34641 0.0
H958 H 0.04203 0.49045 0.31677 0.0
H959 H 0.12131 0.48433 0.31613 0.0
La960 La 0.50373 -0.0001 0.08521 0.0
La961 La 0.59275 0.98225 0.08608 0.0
C962 C 0.42551 0.00941 0.08139 0.0
C963 C 0.37886 0.00361 0.08262 0.0
C964 C 0.3545 0.00941 0.09033 0.0
C965 C 0.30912 0.00594 0.09094 0.0
C966 C 0.28685 -0.0033 0.08382 0.0
C967 C 0.31145 0.99048 0.07622 0.0
C968 C 0.35686 0.99394 0.07562 0.0
C969 C 0.54183 -0.00021 0.10161 0.0
C970 C 0.51061 0.95691 0.08836 0.0
C971 C 0.6708 0.97301 0.09027 0.0
C972 C 0.71758 0.97859 0.089 0.0
C973 C 0.74151 0.973 0.08119 0.0
C974 C 0.78699 0.97622 0.08056 0.0
C975 C 0.80978 0.98502 0.08775 0.0
C976 C 0.78559 0.99105 0.09545 0.0
C977 C 0.74009 0.98781 0.09608 0.0
C978 C 0.55659 0.98251 0.06947 0.0
C979 C 0.58344 0.02554 0.08286 0.0
O980 O 0.44702 0.01491 0.08869 0.0
O981 O 0.45051 -0.00035 0.0759 0.0
O982 O 0.51735 0.01298 0.09854 0.0
O983 O 0.54199 0.987 0.09583 0.0
O984 O 0.4864 0.97092 0.08558 0.0
O985 O 0.55312 0.95875 0.09029 0.0
O986 O 0.64954 0.96692 0.08305 0.0
O987 O 0.64569 0.9833 0.09547 0.0
O988 O 0.58192 0.96968 0.07263 0.0
O989 O 0.55499 -0.00481 0.07534 0.0
O990 O 0.60883 0.01185 0.08574 0.0
O991 O 0.54187 0.02286 0.08054 0.0
H992 H 0.37016 0.01716 0.09578 0.0
H993 H 0.29118 0.01115 0.09683 0.0
H994 H 0.29549 0.98312 0.07067 0.0
H995 H 0.37449 0.98945 0.06953 0.0
H996 H 0.72544 0.96559 0.07567 0.0
H997 H 0.80457 0.97116 0.07459 0.0
H998 H 0.80193 -0.00192 0.10106 0.0
H999 H 0.72276 0.99211 0.10224 0.0
La1000 La 0.80364 0.23974 0.08437 0.0
La1001 La 0.71296 0.25628 0.08571 0.0
C1002 C 0.88148 0.23095 0.0799 0.0
C1003 C 0.92799 0.23688 0.08075 0.0
C1004 C 0.94634 0.24211 0.08924 0.0
C1005 C 0.99177 0.24555 0.09 0.0
C1006 C 1.01968 0.2439 0.08229 0.0
C1007 C 1.00079 0.23929 0.07375 0.0
C1008 C 0.95549 0.2358 0.07301 0.0
C1009 C 0.76773 0.23977 0.10099 0.0
C1010 C 0.79377 0.28265 0.08749 0.0
C1011 C 0.63538 0.26486 0.09053 0.0
C1012 C 0.58866 0.25931 0.08957 0.0
C1013 C 0.57015 0.25471 0.08101 0.0
C1014 C 0.52461 0.25158 0.0802 0.0
C1015 C 0.49672 0.25295 0.08793 0.0
C1016 C 0.51576 0.25697 0.09653 0.0
C1017 C 0.56117 0.26014 0.09733 0.0
C1018 C 0.74697 0.25609 0.06891 0.0
C1019 C 0.72514 0.21309 0.08262 0.0
O1020 O 0.86163 0.22523 0.08737 0.0
O1021 O 0.85543 0.24084 0.07469 0.0
O1022 O 0.7933 0.22693 0.09792 0.0
O1023 O 0.76562 0.25232 0.0951 0.0
O1024 O 0.81882 0.26897 0.08461 0.0
O1025 O 0.7517 0.28019 0.08967 0.0
O1026 O 0.65518 0.27131 0.08321 0.0
O1027 O 0.66127 0.25425 0.09539 0.0
O1028 O 0.72049 0.26852 0.07206 0.0
O1029 O 0.75051 0.24365 0.07487 0.0
O1030 O 0.69896 0.22652 0.08551 0.0
O1031 O 0.76631 0.2162 0.08012 0.0
H1032 H 0.92584 0.24312 0.09533 0.0
H1033 H 1.00513 0.24932 0.09665 0.0
H1034 H 1.02125 0.23769 0.06769 0.0
H1035 H 0.94212 0.23168 0.0664 0.0
H1036 H 0.59066 0.25393 0.07491 0.0
H1037 H 0.51116 0.24825 0.0735 0.0
H1038 H 0.49535 0.25836 0.10262 0.0
H1039 H 0.57468 0.26378 0.10399 0.0
La1040 La 0.50682 0.23934 0.20556 0.0
La1041 La 0.5968 0.25617 0.20437 0.0
C1042 C 0.4288 0.23039 0.20981 0.0
C1043 C 0.38229 0.23646 0.20882 0.0
C1044 C 0.35974 0.23495 0.20039 0.0
C1045 C 0.31432 0.23845 0.19988 0.0
C1046 C 0.29034 0.24348 0.20778 0.0
C1047 C 0.3133 0.24558 0.21614 0.0
C1048 C 0.35867 0.24205 0.21666 0.0
C1049 C 0.54309 0.23958 0.18898 0.0
C1050 C 0.51569 0.28229 0.20254 0.0
C1051 C 0.67454 0.26493 0.19978 0.0
C1052 C 0.72132 0.25942 0.20096 0.0
C1053 C 0.74313 0.26129 0.20945 0.0
C1054 C 0.78874 0.25834 0.21011 0.0
C1055 C 0.8136 0.2535 0.2023 0.0
C1056 C 0.79137 0.25101 0.19388 0.0
C1057 C 0.74583 0.254 0.19322 0.0
C1058 C 0.56251 0.25571 0.22116 0.0
C1059 C 0.58556 0.21289 0.20729 0.0
O1060 O 0.44924 0.22469 0.2024 0.0
O1061 O 0.45467 0.24009 0.21514 0.0
O1062 O 0.51793 0.2266 0.19203 0.0
O1063 O 0.54468 0.25214 0.19487 0.0
O1064 O 0.49096 0.26851 0.20541 0.0
O1065 O 0.55778 0.27997 0.20035 0.0
O1066 O 0.65389 0.2716 0.20694 0.0
O1067 O 0.64912 0.25421 0.19486 0.0
O1068 O 0.58853 0.26831 0.21802 0.0
O1069 O 0.55946 0.24327 0.21518 0.0
O1070 O 0.61154 0.22647 0.20451 0.0
O1071 O 0.54429 0.21582 0.20977 0.0
H1072 H 0.37679 0.23051 0.19423 0.0
H1073 H 0.29771 0.23649 0.19335 0.0
H1074 H 0.29606 0.24971 0.22233 0.0
H1075 H 0.37508 0.2432 0.22326 0.0
H1076 H 0.72531 0.26559 0.21555 0.0
H1077 H 0.80476 0.26056 0.21669 0.0
H1078 H 0.8093 0.247 0.18775 0.0
H1079 H 0.72993 0.25257 0.18657 0.0
La1080 La 0.80612 -0.00054 0.20586 0.0
La1081 La 0.71632 0.98208 0.20466 0.0
C1082 C 0.88399 0.00867 0.21011 0.0
C1083 C 0.93066 0.00293 0.20911 0.0
C1084 C 0.9493 -0.00116 0.20049 0.0
C1085 C 0.99477 -0.00452 0.19968 0.0
C1086 C 1.02247 -0.00391 0.20747 0.0
C1087 C 1.00333 -0.00038 0.21611 0.0
C1088 C 0.958 0.00303 0.21691 0.0
C1089 C 0.76898 -0.00039 0.18936 0.0
C1090 C 0.79841 0.95652 0.20251 0.0
C1091 C 0.63866 0.97313 0.20005 0.0
C1092 C 0.59188 0.97876 0.20095 0.0
C1093 C 0.57259 0.9825 0.20955 0.0
C1094 C 0.52702 0.98567 0.21026 0.0
C1095 C 0.49982 0.98521 0.20239 0.0
C1096 C 0.5196 0.98204 0.19377 0.0
C1097 C 0.56506 0.97883 0.19307 0.0
C1098 C 0.7516 0.98201 0.22135 0.0
C1099 C 0.72642 0.02529 0.20813 0.0
O1100 O 0.86339 0.01436 0.20272 0.0
O1101 O 0.85859 -0.00137 0.21539 0.0
O1102 O 0.79389 0.01263 0.19247 0.0
O1103 O 0.76806 0.98684 0.19515 0.0
O1104 O 0.82283 0.97043 0.20534 0.0
O1105 O 0.75592 0.95848 0.20056 0.0
O1106 O 0.65868 0.96713 0.20744 0.0
O1107 O 0.66446 0.9834 0.19499 0.0
O1108 O 0.72578 0.96939 0.21815 0.0
O1109 O 0.75394 -0.0053 0.21549 0.0
O1110 O 0.7009 0.01174 0.20513 0.0
O1111 O 0.7679 0.02245 0.21049 0.0
H1112 H 0.929 -0.00139 0.19435 0.0
H1113 H 1.0083 0.99257 0.19294 0.0
H1114 H 1.02362 0.00041 0.22224 0.0
H1115 H 0.94446 0.00628 0.22362 0.0
H1116 H 0.59249 0.98258 0.21574 0.0
H1117 H 0.51302 0.98833 0.21698 0.0
H1118 H 0.49973 0.98137 0.18758 0.0
H1119 H 0.57911 0.97584 0.18638 0.0
La1120 La 0.4653 0.00574 0.95459 0.0
La1121 La 0.55531 0.98855 0.95583 0.0
C1122 C 0.38772 0.01462 0.94988 0.0
C1123 C 0.34096 0.00899 0.95078 0.0
C1124 C 0.32211 0.00456 0.95933 0.0
C1125 C 0.27655 0.00136 0.96008 0.0
C1126 C 0.24896 0.00248 0.95229 0.0
C1127 C 0.26833 0.00634 0.9437 0.0
C1128 C 0.31376 0.00958 0.94296 0.0
C1129 C 0.49973 0.00556 0.97134 0.0
C1130 C 0.47599 0.96247 0.95779 0.0
C1131 C 0.63317 0.97934 0.96011 0.0
C1132 C 0.67982 0.98514 0.95922 0.0
C1133 C 0.69836 0.99 0.95069 0.0
C1134 C 0.74384 0.99336 0.94992 0.0
C1135 C 0.77165 0.992 0.95767 0.0
C1136 C 0.75259 0.98773 0.96624 0.0
C1137 C 0.70725 0.98431 0.96699 0.0
C1138 C 0.51849 0.98867 0.93929 0.0
C1139 C 0.54711 0.03151 0.95267 0.0
O1140 O 0.40758 0.0207 0.95727 0.0
O1141 O 0.41361 0.00427 0.94488 0.0
O1142 O 0.47384 0.01816 0.96814 0.0
O1143 O 0.50276 0.99296 0.96544 0.0
O1144 O 0.45028 0.97605 0.95489 0.0
O1145 O 0.51735 0.96531 0.96023 0.0
O1146 O 0.61287 0.97388 0.95265 0.0
O1147 O 0.60752 0.98916 0.96543 0.0
O1148 O 0.54346 0.97562 0.94236 0.0
O1149 O 0.51746 0.00129 0.94515 0.0
O1150 O 0.57161 0.01762 0.9555 0.0
O1151 O 0.50475 0.02947 0.95062 0.0
H1152 H 0.34234 0.00395 0.96548 0.0
H1153 H 0.26288 -0.00184 0.96678 0.0
H1154 H 0.24817 0.00753 0.93757 0.0
H1155 H 0.3275 0.01309 0.93631 0.0
H1156 H 0.67796 0.9908 0.94457 0.0
H1157 H 0.7573 -0.00314 0.94324 0.0
H1158 H 0.77296 0.98636 0.97233 0.0
H1159 H 0.69377 0.98047 0.97362 0.0
La1160 La 0.34301 0.732 0.95379 0.0
La1161 La 0.25303 0.74926 0.95495 0.0
C1162 C 0.42061 0.72311 0.94912 0.0
C1163 C 0.4674 0.72867 0.95005 0.0
C1164 C 0.48648 0.73255 0.95866 0.0
C1165 C 0.53205 0.73567 0.95941 0.0
C1166 C 0.55944 0.73503 0.95157 0.0
C1167 C 0.53986 0.73173 0.94295 0.0
C1168 C 0.49441 0.72856 0.94221 0.0
C1169 C 0.30805 0.73203 0.97049 0.0
C1170 C 0.33251 0.77523 0.95717 0.0
C1171 C 0.17508 0.75845 0.95915 0.0
C1172 C 0.12851 0.75256 0.95825 0.0
C1173 C 0.10976 0.74813 0.94968 0.0
C1174 C 0.06433 0.74467 0.94893 0.0
C1175 C 0.03676 0.7455 0.95673 0.0
C1176 C 0.05602 0.74934 0.96533 0.0
C1177 C 0.10132 0.75286 0.96606 0.0
C1178 C 0.29043 0.74936 0.93847 0.0
C1179 C 0.26112 0.70632 0.95172 0.0
O1180 O 0.4006 0.71695 0.95647 0.0
O1181 O 0.39486 0.73354 0.94413 0.0
O1182 O 0.33412 0.71947 0.96732 0.0
O1183 O 0.30523 0.74467 0.96461 0.0
O1184 O 0.35827 0.76167 0.95427 0.0
O1185 O 0.29097 0.7724 0.95948 0.0
O1186 O 0.19548 0.76388 0.95169 0.0
O1187 O 0.20073 0.74872 0.96452 0.0
O1188 O 0.26546 0.7624 0.94155 0.0
O1189 O 0.29119 0.73663 0.94428 0.0
O1190 O 0.23659 0.72021 0.95452 0.0
O1191 O 0.30357 0.70832 0.94975 0.0
H1192 H 0.46641 0.73277 0.96483 0.0
H1193 H 0.5459 0.73844 0.96614 0.0
H1194 H 0.55988 0.73092 0.93678 0.0
H1195 H 0.48051 0.72547 0.93551 0.0
H1196 H 0.12995 0.74773 0.94352 0.0
H1197 H 0.05071 0.74151 0.94222 0.0
H1198 H 0.03582 0.7503 0.97146 0.0
H1199 H 0.11494 0.75637 0.97273 0.0
La1200 La 0.46303 0.73268 0.83538 0.0
La1201 La 0.55313 0.74949 0.83406 0.0
C1202 C 0.38549 0.72406 0.84018 0.0
C1203 C 0.33867 0.72951 0.83909 0.0
C1204 C 0.31754 0.72925 0.83047 0.0
C1205 C 0.27189 0.73214 0.82981 0.0
C1206 C 0.24637 0.73531 0.83776 0.0
C1207 C 0.26795 0.73623 0.84632 0.0
C1208 C 0.31352 0.73331 0.84698 0.0
C1209 C 0.49681 0.73285 0.81857 0.0
C1210 C 0.47427 0.77588 0.83214 0.0
C1211 C 0.63105 0.75844 0.82975 0.0
C1212 C 0.67762 0.75246 0.83066 0.0
C1213 C 0.69931 0.75232 0.83922 0.0
C1214 C 0.74481 0.74895 0.83974 0.0
C1215 C 0.76965 0.74568 0.83171 0.0
C1216 C 0.7475 0.74517 0.8232 0.0
C1217 C 0.70209 0.74858 0.82268 0.0
C1218 C 0.51681 0.74947 0.85065 0.0
C1219 C 0.54421 0.70658 0.83723 0.0
O1220 O 0.40575 0.71725 0.83301 0.0
O1221 O 0.4111 0.7349 0.84498 0.0
O1222 O 0.47058 0.72038 0.82176 0.0
O1223 O 0.50034 0.74536 0.8245 0.0
O1224 O 0.44841 0.7624 0.83509 0.0
O1225 O 0.51551 0.77285 0.82966 0.0
O1226 O 0.61078 0.76415 0.83717 0.0
O1227 O 0.60516 0.74867 0.82445 0.0
O1228 O 0.54184 0.76246 0.84755 0.0
O1229 O 0.51542 0.73686 0.8448 0.0
O1230 O 0.56892 0.72032 0.83429 0.0
O1231 O 0.50215 0.70894 0.83943 0.0
H1232 H 0.33596 0.72627 0.82426 0.0
H1233 H 0.25637 0.73118 0.82312 0.0
H1234 H 0.24952 0.73897 0.85256 0.0
H1235 H 0.32896 0.73352 0.85371 0.0
H1236 H 0.6815 0.75537 0.8455 0.0
H1237 H 0.76077 0.74963 0.8464 0.0
H1238 H 0.76539 0.74239 0.8169 0.0
H1239 H 0.68628 0.74869 0.81599 0.0
La1240 La 0.34327 0.0067 0.83635 0.0
La1241 La 0.25328 0.98946 0.83516 0.0
C1242 C 0.42085 0.01564 0.84103 0.0
C1243 C 0.46764 0.01005 0.84014 0.0
C1244 C 0.48648 0.00552 0.8316 0.0
C1245 C 0.53206 0.00236 0.83086 0.0
C1246 C 0.55967 0.0036 0.83864 0.0
C1247 C 0.54031 0.00756 0.84722 0.0
C1248 C 0.49487 0.01077 0.84795 0.0
C1249 C 0.3086 0.00651 0.81963 0.0
C1250 C 0.33274 0.96342 0.83318 0.0
C1251 C 0.17541 0.98023 0.83091 0.0
C1252 C 0.12879 0.98611 0.83177 0.0
C1253 C 0.11028 0.99119 0.84027 0.0
C1254 C 0.06482 -0.00539 0.84101 0.0
C1255 C 0.037 0.99309 0.83328 0.0
C1256 C 0.05603 0.9886 0.82473 0.0
C1257 C 0.10135 0.98512 0.824 0.0
C1258 C 0.29035 0.98951 0.85167 0.0
C1259 C 0.26137 0.03243 0.83831 0.0
O1260 O 0.40094 0.02167 0.83364 0.0
O1261 O 0.39502 0.00531 0.84605 0.0
O1262 O 0.33454 0.01911 0.8228 0.0
O1263 O 0.30569 0.99391 0.82553 0.0
O1264 O 0.35848 0.97703 0.83603 0.0
O1265 O 0.29129 0.96622 0.83079 0.0
O1266 O 0.19566 0.9749 0.83841 0.0
O1267 O 0.20113 0.98993 0.82554 0.0
O1268 O 0.26539 0.97646 0.84861 0.0
O1269 O 0.29126 0.00218 0.84583 0.0
O1270 O 0.23687 0.01852 0.83551 0.0
O1271 O 0.30378 0.03043 0.84032 0.0
H1272 H 0.46623 0.00482 0.82546 0.0
H1273 H 0.54572 -0.00092 0.82417 0.0
H1274 H 0.56049 0.00885 0.85334 0.0
H1275 H 0.48113 0.01436 0.8546 0.0
H1276 H 0.13069 0.99212 0.84637 0.0
H1277 H 0.05138 -0.00172 0.84767 0.0
H1278 H 0.03564 0.9871 0.81865 0.0
H1279 H 0.11481 0.98111 0.81739 0.0
C1280 C 1.01196 0.42304 0.09033 0.0
C1281 C 0.98758 0.43934 0.08967 0.0
C1282 C 0.99021 0.40619 0.09108 0.0
C1283 C 0.88174 0.38495 0.08622 0.0
H1284 H 0.92803 0.3449 0.10086 0.0
C1285 C 0.78881 0.31642 0.09041 0.0
C1286 C 0.81458 0.30073 0.08884 0.0
C1287 C 0.80893 0.33355 0.09137 0.0
C1288 C 0.91483 0.35598 0.09673 0.0
H1289 H 0.92145 0.45091 0.0897 0.0
H1290 H 0.88383 0.42175 0.09126 0.0
H1291 H 0.96557 0.37451 0.10104 0.0
H1292 H 0.88171 0.29062 0.08726 0.0
H1293 H 0.91653 0.32043 0.08895 0.0
H1294 H 0.83104 0.36641 0.08192 0.0
C1295 C 0.91959 0.42181 0.09092 0.0
C1296 C 0.93639 0.3729 0.0968 0.0
C1297 C 0.94123 0.43856 0.09007 0.0
C1298 C 0.86083 0.30244 0.08843 0.0
C1299 C 0.88088 0.3195 0.08947 0.0
C1300 C 0.86004 0.3681 0.08621 0.0
C1301 C 0.94373 0.4054 0.09127 0.0
C1302 C 0.92026 0.38754 0.09149 0.0
C1303 C 0.85514 0.33524 0.09087 0.0
C1304 C 0.87658 0.35341 0.0914 0.0
H1305 H 0.04772 0.42323 0.09002 0.0
H1306 H 1.0098 0.39379 0.09125 0.0
H1307 H 0.86886 0.39581 0.08191 0.0
H1308 H 0.75312 0.31553 0.09077 0.0
H1309 H 0.78836 0.34549 0.0925 0.0
C1310 C 0.51267 0.92279 0.09031 0.0
C1311 C 0.48838 0.93913 0.0897 0.0
C1312 C 0.49083 0.90596 0.09099 0.0
C1313 C 0.38224 0.88489 0.08601 0.0
H1314 H 0.42817 0.84458 0.10051 0.0
C1315 C 0.28869 0.81645 0.09001 0.0
C1316 C 0.31432 0.80073 0.0884 0.0
C1317 C 0.30897 0.83354 0.091 0.0
C1318 C 0.41507 0.85573 0.09642 0.0
H1319 H 0.42231 0.95075 0.08975 0.0
H1320 H 0.38453 0.9216 0.09118 0.0
H1321 H 0.46594 0.87414 0.1008 0.0
H1322 H 0.38135 0.79053 0.08678 0.0
H1323 H 0.41644 0.82028 0.08852 0.0
H1324 H 0.3314 0.86648 0.08164 0.0
C1325 C 0.42029 0.92164 0.09086 0.0
C1326 C 0.43677 0.87262 0.09655 0.0
C1327 C 0.44202 0.93838 0.09008 0.0
C1328 C 0.36057 0.80238 0.08797 0.0
C1329 C 0.38079 0.8194 0.08905 0.0
C1330 C 0.36041 0.86808 0.08594 0.0
C1331 C 0.44433 0.9052 0.09115 0.0
C1332 C 0.42077 0.88736 0.09129 0.0
C1333 C 0.3552 0.83516 0.09049 0.0
C1334 C 0.37681 0.85329 0.09108 0.0
H1335 H 0.54843 0.92296 0.09001 0.0
H1336 H 0.51035 0.89353 0.09111 0.0
H1337 H 0.36946 0.89583 0.08173 0.0
H1338 H 0.253 0.8156 0.09038 0.0
H1339 H 0.28852 0.8455 0.09217 0.0
C1340 C 0.79623 0.92244 0.20036 0.0
C1341 C 0.82054 0.93875 0.20105 0.0
C1342 C 0.81805 0.90562 0.19951 0.0
C1343 C 0.92689 0.88441 0.2041 0.0
H1344 H 0.88062 0.84464 0.18928 0.0
C1345 C 1.02069 0.81622 0.19938 0.0
C1346 C 0.99519 0.80043 0.2009 0.0
C1347 C 1.00029 0.83332 0.19853 0.0
C1348 C 0.89382 0.85564 0.19346 0.0
H1349 H 0.88663 0.95037 0.20094 0.0
H1350 H 0.92433 0.92127 0.19923 0.0
H1351 H 0.84264 0.87417 0.18936 0.0
H1352 H 0.92824 0.79013 0.20248 0.0
H1353 H 0.89295 0.81988 0.20098 0.0
H1354 H 0.97803 0.86588 0.20819 0.0
C1355 C 0.88859 0.9213 0.19963 0.0
C1356 C 0.872 0.8725 0.19354 0.0
C1357 C 0.86689 0.93801 0.20057 0.0
C1358 C 0.94893 0.80203 0.20135 0.0
C1359 C 0.92859 0.81905 0.20042 0.0
C1360 C 0.94884 0.86761 0.20396 0.0
C1361 C 0.86454 0.90487 0.19925 0.0
C1362 C 0.88813 0.88705 0.19891 0.0
C1363 C 0.95406 0.83489 0.19909 0.0
C1364 C 0.93233 0.85302 0.19871 0.0
H1365 H 0.76048 0.92261 0.20072 0.0
H1366 H 0.79853 0.8932 0.19932 0.0
H1367 H 0.93979 0.89518 0.20845 0.0
H1368 H 0.05639 0.81542 0.19899 0.0
H1369 H 1.02066 0.84533 0.19745 0.0
C1370 C 0.367 0.43807 0.20049 0.0
C1371 C 0.32064 0.43885 0.20089 0.0
C1372 C 0.38864 0.42132 0.19962 0.0
C1373 C 0.37183 0.37244 0.19367 0.0
H1374 H 0.47753 0.36588 0.20843 0.0
C1375 C 0.44834 0.30196 0.20174 0.0
C1376 C 0.49459 0.30035 0.20126 0.0
C1377 C 0.42804 0.31899 0.20078 0.0
C1378 C 0.44842 0.36759 0.20418 0.0
H1379 H 0.26051 0.42275 0.20053 0.0
H1380 H 0.29843 0.3933 0.19927 0.0
H1381 H 0.43952 0.39524 0.20856 0.0
H1382 H 0.5558 0.3153 0.1993 0.0
H1383 H 0.52014 0.34521 0.19771 0.0
H1384 H 0.38028 0.3445 0.18953 0.0
C1385 C 0.31803 0.40571 0.19945 0.0
C1386 C 0.42662 0.38442 0.20423 0.0
C1387 C 0.29628 0.42255 0.20021 0.0
C1388 C 0.52011 0.31611 0.1997 0.0
C1389 C 0.49976 0.33322 0.19883 0.0
C1390 C 0.39349 0.35554 0.19368 0.0
C1391 C 0.36451 0.4049 0.19926 0.0
C1392 C 0.38799 0.38705 0.199 0.0
C1393 C 0.45354 0.3348 0.1994 0.0
C1394 C 0.43188 0.35295 0.19896 0.0
H1395 H 0.38677 0.45041 0.20086 0.0
H1396 H 0.42439 0.42125 0.19928 0.0
H1397 H 0.34257 0.37408 0.18946 0.0
H1398 H 0.42765 0.29008 0.2029 0.0
H1399 H 0.3924 0.31985 0.20135 0.0
C1400 C 0.03994 0.56579 0.94957 0.0
C1401 C 0.06545 0.55008 0.95126 0.0
C1402 C 0.0603 0.58287 0.94859 0.0
C1403 C 0.16675 0.60504 0.94342 0.0
H1404 H 0.12021 0.64511 0.95798 0.0
C1405 C 0.26366 0.6722 0.94979 0.0
C1406 C 0.23919 0.6885 0.95033 0.0
C1407 C 0.242 0.65534 0.94905 0.0
C1408 C 0.13326 0.63418 0.95374 0.0
H1409 H 0.13238 0.53985 0.95303 0.0
H1410 H 0.16762 0.56957 0.95131 0.0
H1411 H 0.0822 0.61576 0.95798 0.0
H1412 H 0.17304 0.70004 0.95004 0.0
H1413 H 0.13561 0.67084 0.94851 0.0
H1414 H 0.21786 0.62346 0.93918 0.0
C1415 C 0.13199 0.5687 0.95071 0.0
C1416 C 0.11145 0.61737 0.95376 0.0
C1417 C 0.11169 0.5517 0.95177 0.0
C1418 C 0.19287 0.68769 0.94979 0.0
C1419 C 0.17134 0.67093 0.94895 0.0
C1420 C 0.18844 0.62193 0.94335 0.0
C1421 C 0.10651 0.58447 0.94919 0.0
C1422 C 0.12816 0.6026 0.94866 0.0
C1423 C 0.19553 0.65452 0.94875 0.0
C1424 C 0.17208 0.63667 0.94856 0.0
H1425 H 1.00426 0.56496 0.94913 0.0
H1426 H 0.03993 0.59482 0.94736 0.0
H1427 H 0.1801 0.59389 0.93937 0.0
H1428 H 0.2994 0.67243 0.95021 0.0
H1429 H 0.26162 0.64293 0.94899 0.0
C1430 C 0.6965 0.18623 0.9516 0.0
C1431 C 0.74277 0.18779 0.95112 0.0
C1432 C 0.67614 0.16921 0.95067 0.0
C1433 C 0.69645 0.12069 0.95427 0.0
H1434 H 0.59042 0.11398 0.93963 0.0
C1435 C 0.61538 0.05017 0.95084 0.0
C1436 C 0.56903 0.04933 0.95127 0.0
C1437 C 0.63686 0.06693 0.94993 0.0
C1438 C 0.61973 0.11569 0.94382 0.0
H1439 H 0.80392 0.17279 0.94917 0.0
H1440 H 0.76814 0.1429 0.94765 0.0
H1441 H 0.62817 0.14356 0.93954 0.0
H1442 H 0.50875 0.06534 0.95091 0.0
H1443 H 0.54643 0.09484 0.94956 0.0
H1444 H 0.68757 0.09312 0.95879 0.0
C1445 C 0.7478 0.15492 0.94874 0.0
C1446 C 0.64141 0.13258 0.94374 0.0
C1447 C 0.76823 0.17201 0.94958 0.0
C1448 C 0.54451 0.06559 0.95058 0.0
C1449 C 0.56611 0.08246 0.94976 0.0
C1450 C 0.67463 0.10388 0.95441 0.0
C1451 C 0.70158 0.15337 0.94933 0.0
C1452 C 0.67988 0.13524 0.94899 0.0
C1453 C 0.61259 0.08331 0.94954 0.0
C1454 C 0.63596 0.10117 0.94921 0.0
H1455 H 0.67586 0.19814 0.95274 0.0
H1456 H 0.6405 0.16838 0.95126 0.0
H1457 H 0.7256 0.12247 0.9585 0.0
H1458 H 0.63527 0.03785 0.95122 0.0
H1459 H 0.67261 0.06704 0.94956 0.0
C1460 C 0.03985 0.17295 0.84045 0.0
C1461 C 0.06524 0.1887 0.83877 0.0
C1462 C 0.06032 0.15588 0.84138 0.0
C1463 C 0.16692 0.13376 0.84647 0.0
H1464 H 0.12044 0.09369 0.83191 0.0
C1465 C 0.2639 0.06657 0.84018 0.0
C1466 C 0.23943 0.05027 0.83965 0.0
C1467 C 0.24224 0.08344 0.84088 0.0
C1468 C 0.13349 0.10462 0.83615 0.0
H1469 H 0.13208 0.19898 0.83696 0.0
H1470 H 0.16752 0.16927 0.8386 0.0
H1471 H 0.08234 0.12303 0.83192 0.0
H1472 H 0.17326 0.03875 0.8399 0.0
H1473 H 0.13583 0.06797 0.84138 0.0
H1474 H 0.21809 0.11535 0.85071 0.0
C1475 C 0.1319 0.17011 0.83923 0.0
C1476 C 0.11162 0.12143 0.83614 0.0
C1477 C 0.11149 0.1871 0.83822 0.0
C1478 C 0.1931 0.0511 0.84015 0.0
C1479 C 0.17156 0.06787 0.84095 0.0
C1480 C 0.18865 0.11688 0.84654 0.0
C1481 C 0.10653 0.15431 0.84074 0.0
C1482 C 0.1283 0.1362 0.84124 0.0
C1483 C 0.19576 0.08428 0.84116 0.0
C1484 C 0.17232 0.10214 0.84133 0.0
H1485 H 1.00418 0.17375 0.84092 0.0
H1486 H 0.04004 0.14389 0.84259 0.0
H1487 H 0.18025 0.14491 0.85053 0.0
H1488 H 0.29964 0.06633 0.83979 0.0
H1489 H 0.26187 0.09584 0.84094 0.0
C1490 C 0.61158 0.68694 0.83809 0.0
C1491 C 0.56533 0.68856 0.83858 0.0
C1492 C 0.6319 0.66993 0.83913 0.0
C1493 C 0.61152 0.62127 0.836 0.0
H1494 H 0.71749 0.61509 0.85071 0.0
C1495 C 0.69304 0.55091 0.83995 0.0
C1496 C 0.73939 0.55013 0.8395 0.0
C1497 C 0.6714 0.56766 0.84078 0.0
C1498 C 0.68819 0.61664 0.8465 0.0
H1499 H 0.50415 0.67364 0.84064 0.0
H1500 H 0.53985 0.64377 0.84237 0.0
H1501 H 0.67975 0.64467 0.8505 0.0
H1502 H 0.79951 0.56625 0.83977 0.0
H1503 H 0.76156 0.5957 0.84096 0.0
H1504 H 0.62041 0.59354 0.83175 0.0
C1505 C 0.56021 0.65574 0.84118 0.0
C1506 C 0.66652 0.63354 0.84642 0.0
C1507 C 0.53983 0.67282 0.84023 0.0
C1508 C 0.76375 0.56644 0.84012 0.0
C1509 C 0.74199 0.58329 0.84084 0.0
C1510 C 0.63334 0.60445 0.83602 0.0
C1511 C 0.60643 0.65415 0.8406 0.0
C1512 C 0.62809 0.63602 0.84113 0.0
C1513 C 0.69551 0.58408 0.84106 0.0
C1514 C 0.672 0.60193 0.84125 0.0
H1515 H 0.63225 0.6988 0.83686 0.0
H1516 H 0.66754 0.66907 0.83855 0.0
H1517 H 0.58239 0.6229 0.83174 0.0
H1518 H 0.67329 0.53855 0.83963 0.0
H1519 H 0.63565 0.56772 0.84115 0.0
C1520 C 1.01482 0.92265 0.59015 0.0
C1521 C 0.9903 0.93892 0.58955 0.0
C1522 C 0.99322 0.90576 0.59085 0.0
C1523 C 0.88478 0.88446 0.58599 0.0
H1524 H 0.93122 0.84435 0.60057 0.0
C1525 C 0.79124 0.81616 0.59035 0.0
C1526 C 0.81671 0.80041 0.58873 0.0
C1527 C 0.81165 0.83324 0.59128 0.0
C1528 C 0.91799 0.85545 0.59646 0.0
H1529 H 0.92407 0.9504 0.58965 0.0
H1530 H 0.88672 0.92117 0.59111 0.0
H1531 H 0.96889 0.87394 0.60073 0.0
H1532 H 0.88362 0.79011 0.58706 0.0
H1533 H 0.91896 0.81984 0.58869 0.0
H1534 H 0.83389 0.86597 0.58174 0.0
C1535 C 0.92247 0.92128 0.59076 0.0
C1536 C 0.93962 0.87235 0.59651 0.0
C1537 C 0.94396 0.93807 0.58996 0.0
C1538 C 0.86297 0.80199 0.58826 0.0
C1539 C 0.88333 0.819 0.58927 0.0
C1540 C 0.86301 0.86763 0.586 0.0
C1541 C 0.94674 0.9049 0.59104 0.0
C1542 C 0.9234 0.88702 0.59123 0.0
C1543 C 0.85787 0.8348 0.5907 0.0
C1544 C 0.87957 0.85293 0.59117 0.0
H1545 H 0.05058 0.9229 0.58983 0.0
H1546 H 1.01291 0.89338 0.59097 0.0
H1547 H 0.87184 0.89533 0.5817 0.0
H1548 H 0.75555 0.81537 0.59076 0.0
H1549 H 0.79131 0.84523 0.59244 0.0
C1550 C 0.36556 0.30059 0.58974 0.0
C1551 C 0.31923 0.29981 0.58922 0.0
C1552 C 0.38714 0.31734 0.59064 0.0
C1553 C 0.37017 0.36624 0.59646 0.0
H1554 H 0.47648 0.37261 0.58187 0.0
C1555 C 0.44738 0.43656 0.58839 0.0
C1556 C 0.49364 0.43813 0.58892 0.0
C1557 C 0.42695 0.41957 0.58937 0.0
C1558 C 0.44721 0.37095 0.58608 0.0
H1559 H 0.25907 0.31591 0.58942 0.0
H1560 H 0.29692 0.34537 0.59073 0.0
H1561 H 0.43833 0.34329 0.58172 0.0
H1562 H 0.5547 0.42313 0.59101 0.0
H1563 H 0.51881 0.39328 0.59263 0.0
H1564 H 0.37862 0.3942 0.60058 0.0
C1565 C 0.31651 0.33296 0.59062 0.0
C1566 C 0.42532 0.35415 0.58601 0.0
C1567 C 0.29481 0.31611 0.58982 0.0
C1568 C 0.51902 0.42235 0.59056 0.0
C1569 C 0.49853 0.40528 0.59145 0.0
C1570 C 0.39193 0.38312 0.59647 0.0
C1571 C 0.36299 0.33375 0.59092 0.0
C1572 C 0.38648 0.35159 0.59118 0.0
C1573 C 0.45232 0.40374 0.59082 0.0
C1574 C 0.43055 0.38563 0.59125 0.0
H1575 H 0.38536 0.28824 0.58944 0.0
H1576 H 0.42287 0.3174 0.59107 0.0
H1577 H 0.34073 0.36465 0.60062 0.0
H1578 H 0.4268 0.44846 0.58717 0.0
H1579 H 0.39133 0.41875 0.58875 0.0
C1580 C 1.01232 0.31646 0.69991 0.0
C1581 C 0.98808 0.30012 0.70054 0.0
C1582 C 0.99044 0.33328 0.69915 0.0
C1583 C 0.88165 0.35433 0.70395 0.0
H1584 H 0.92775 0.39451 0.68938 0.0
C1585 C 0.78803 0.42271 0.69973 0.0
C1586 C 0.81362 0.43844 0.70134 0.0
C1587 C 0.80834 0.40562 0.69877 0.0
C1588 C 0.91461 0.38339 0.69349 0.0
H1589 H 0.92204 0.28846 0.70042 0.0
H1590 H 0.8842 0.31758 0.69886 0.0
H1591 H 0.96565 0.36497 0.68921 0.0
H1592 H 0.88062 0.44865 0.70299 0.0
H1593 H 0.91576 0.4189 0.7013 0.0
H1594 H 0.83065 0.37276 0.70821 0.0
C1595 C 0.91995 0.31756 0.69924 0.0
C1596 C 0.93637 0.36652 0.69343 0.0
C1597 C 0.94172 0.30084 0.70009 0.0
C1598 C 0.85987 0.43679 0.70179 0.0
C1599 C 0.88012 0.41978 0.70075 0.0
C1600 C 0.85975 0.37114 0.70395 0.0
C1601 C 0.94395 0.33401 0.69893 0.0
C1602 C 0.92031 0.35183 0.69871 0.0
C1603 C 0.85457 0.40401 0.69931 0.0
C1604 C 0.87622 0.38587 0.69879 0.0
H1605 H 0.04808 0.31631 0.70026 0.0
H1606 H 1.00992 0.34571 0.69902 0.0
H1607 H 0.86882 0.34344 0.70824 0.0
H1608 H 0.75234 0.42356 0.69934 0.0
H1609 H 0.78793 0.39365 0.69761 0.0
C1610 C 0.44327 0.80116 0.69997 0.0
C1611 C 0.48961 0.80035 0.70044 0.0
C1612 C 0.42167 0.81792 0.69917 0.0
C1613 C 0.43863 0.86695 0.69356 0.0
H1614 H 0.33266 0.87309 0.70828 0.0
C1615 C 0.36198 0.93718 0.70206 0.0
C1616 C 0.31573 0.93881 0.70156 0.0
C1617 C 0.38229 0.92018 0.701 0.0
C1618 C 0.36184 0.8715 0.70403 0.0
H1619 H 0.54977 0.81644 0.70025 0.0
H1620 H 0.51191 0.84593 0.6991 0.0
H1621 H 0.37066 0.84373 0.70823 0.0
H1622 H 0.25455 0.92393 0.69944 0.0
H1623 H 0.29024 0.89406 0.69767 0.0
H1624 H 0.43025 0.89501 0.68961 0.0
C1625 C 0.49231 0.83353 0.69918 0.0
C1626 C 0.38364 0.85467 0.70399 0.0
C1627 C 0.51402 0.81666 0.69988 0.0
C1628 C 0.29023 0.9231 0.69987 0.0
C1629 C 0.3106 0.90602 0.69889 0.0
C1630 C 0.41696 0.88385 0.69367 0.0
C1631 C 0.44583 0.83434 0.69893 0.0
C1632 C 0.42236 0.8522 0.69877 0.0
C1633 C 0.35681 0.90441 0.69949 0.0
C1634 C 0.37847 0.88628 0.69894 0.0
H1635 H 0.42347 0.7888 0.70025 0.0
H1636 H 0.38593 0.81801 0.69877 0.0
H1637 H 0.46797 0.86543 0.68936 0.0
H1638 H 0.38265 0.94903 0.70332 0.0
H1639 H 0.41792 0.9193 0.70159 0.0
C1640 C 0.1116 0.05218 0.45232 0.0
C1641 C 0.06534 0.05066 0.45179 0.0
C1642 C 0.13212 0.06915 0.45132 0.0
C1643 C 0.11216 0.11783 0.45447 0.0
H1644 H 0.21846 0.12388 0.43985 0.0
C1645 C 0.19358 0.18813 0.45043 0.0
C1646 C 0.23991 0.18895 0.45091 0.0
C1647 C 0.17206 0.17135 0.44964 0.0
C1648 C 0.18908 0.12236 0.44404 0.0
H1649 H 1.00436 0.0657 0.44967 0.0
H1650 H 0.04042 0.0955 0.448 0.0
H1651 H 0.18053 0.09435 0.44003 0.0
H1652 H 0.30015 0.1729 0.45075 0.0
H1653 H 0.26239 0.14338 0.44962 0.0
H1654 H 0.12112 0.14555 0.45872 0.0
C1655 C 0.06063 0.08349 0.44921 0.0
C1656 C 0.1673 0.10549 0.4441 0.0
C1657 C 0.04004 0.06645 0.45013 0.0
C1658 C 0.2644 0.17266 0.45038 0.0
C1659 C 0.24275 0.15578 0.44968 0.0
C1660 C 0.13408 0.13462 0.45447 0.0
C1661 C 0.10685 0.08498 0.44984 0.0
C1662 C 0.12872 0.10307 0.44935 0.0
C1663 C 0.19627 0.15495 0.44943 0.0
C1664 C 0.17284 0.13709 0.44927 0.0
H1665 H 0.13212 0.04027 0.45356 0.0
H1666 H 0.16775 0.06994 0.45194 0.0
H1667 H 0.08292 0.11624 0.4587 0.0
H1668 H 0.17372 0.20047 0.45068 0.0
H1669 H 0.13632 0.17126 0.44923 0.0
C1670 C 0.76856 0.67258 0.44934 0.0
C1671 C 0.74292 0.68831 0.4509 0.0
C1672 C 0.74832 0.65546 0.44847 0.0
C1673 C 0.64223 0.63297 0.44339 0.0
H1674 H 0.68849 0.59353 0.45843 0.0
C1675 C 0.54547 0.56598 0.4502 0.0
C1676 C 0.56996 0.54972 0.45092 0.0
C1677 C 0.56709 0.58284 0.44937 0.0
C1678 C 0.67552 0.60427 0.45406 0.0
H1679 H 0.67592 0.69853 0.45252 0.0
H1680 H 0.64086 0.66872 0.45098 0.0
H1681 H 0.72632 0.62292 0.45819 0.0
H1682 H 0.63617 0.53822 0.45092 0.0
H1683 H 0.67357 0.5674 0.44923 0.0
H1684 H 0.59142 0.61433 0.43924 0.0
C1685 C 0.67649 0.66961 0.45041 0.0
C1686 C 0.69723 0.62111 0.45393 0.0
C1687 C 0.69668 0.68666 0.45136 0.0
C1688 C 0.61631 0.55054 0.45051 0.0
C1689 C 0.63782 0.5673 0.44959 0.0
C1690 C 0.62067 0.61605 0.44345 0.0
C1691 C 0.70211 0.65383 0.44905 0.0
C1692 C 0.6806 0.63566 0.44866 0.0
C1693 C 0.61357 0.58368 0.44917 0.0
C1694 C 0.63692 0.60154 0.44884 0.0
H1695 H 0.80424 0.67342 0.44894 0.0
H1696 H 0.76877 0.64348 0.44736 0.0
H1697 H 0.62896 0.64395 0.4392 0.0
H1698 H 0.5097 0.56575 0.45051 0.0
H1699 H 0.54742 0.59522 0.44915 0.0
C1700 C 0.26931 0.56581 0.34047 0.0
C1701 C 0.24373 0.55005 0.33893 0.0
C1702 C 0.24902 0.58293 0.3413 0.0
C1703 C 0.14286 0.60534 0.34643 0.0
H1704 H 0.18885 0.64494 0.33146 0.0
C1705 C 0.04561 0.6723 0.33981 0.0
C1706 C 0.06994 0.6886 0.33909 0.0
C1707 C 0.06739 0.65546 0.34059 0.0
C1708 C 0.17596 0.63415 0.33581 0.0
H1709 H 0.17676 0.53982 0.3373 0.0
H1710 H 0.14162 0.56963 0.33879 0.0
H1711 H 0.22682 0.61557 0.33163 0.0
H1712 H 0.13606 0.70018 0.33905 0.0
H1713 H 0.17374 0.67103 0.34067 0.0
H1714 H 0.09201 0.62392 0.35063 0.0
C1715 C 0.17725 0.56875 0.33936 0.0
C1716 C 0.19774 0.61732 0.33589 0.0
C1717 C 0.19749 0.5517 0.33844 0.0
C1718 C 0.11631 0.68783 0.33946 0.0
C1719 C 0.13799 0.67109 0.34034 0.0
C1720 C 0.12123 0.62225 0.34641 0.0
C1721 C 0.2028 0.58455 0.34072 0.0
C1722 C 0.1812 0.60271 0.34113 0.0
C1723 C 0.11388 0.65467 0.34076 0.0
C1724 C 0.13737 0.63682 0.34105 0.0
H1725 H 0.30499 0.56497 0.34088 0.0
H1726 H 0.26944 0.59492 0.3424 0.0
H1727 H 0.12966 0.59432 0.35059 0.0
H1728 H 1.00985 0.67248 0.33951 0.0
H1729 H 0.04782 0.64306 0.3408 0.0
C1730 C 0.69863 0.05174 0.3387 0.0
C1731 C 0.74489 0.05012 0.33916 0.0
C1732 C 0.67836 0.06877 0.33967 0.0
C1733 C 0.69873 0.11737 0.33628 0.0
H1734 H 0.59257 0.12376 0.35091 0.0
C1735 C 0.61678 0.18774 0.33986 0.0
C1736 C 0.57043 0.18848 0.33939 0.0
C1737 C 0.63849 0.17102 0.34076 0.0
C1738 C 0.62192 0.12215 0.34673 0.0
H1739 H 0.80613 0.06504 0.34112 0.0
H1740 H 0.7705 0.09496 0.34273 0.0
H1741 H 0.6305 0.09422 0.35089 0.0
H1742 H 0.51038 0.17232 0.33969 0.0
H1743 H 0.54846 0.14291 0.34102 0.0
H1744 H 0.68971 0.14501 0.33188 0.0
C1745 C 0.7501 0.08298 0.34161 0.0
C1746 C 0.64371 0.10527 0.34675 0.0
C1747 C 0.77044 0.06587 0.34073 0.0
C1748 C 0.54613 0.17216 0.34005 0.0
C1749 C 0.56797 0.15533 0.34086 0.0
C1750 C 0.67681 0.13418 0.3362 0.0
C1751 C 0.70387 0.08457 0.34105 0.0
C1752 C 0.68219 0.10272 0.34149 0.0
C1753 C 0.61446 0.15458 0.34111 0.0
C1754 C 0.63806 0.13676 0.3414 0.0
H1755 H 0.67791 0.03987 0.33754 0.0
H1756 H 0.64272 0.06963 0.3391 0.0
H1757 H 0.7279 0.11569 0.33204 0.0
H1758 H 0.6365 0.2001 0.33951 0.0
H1759 H 0.67424 0.17099 0.34116 0.0
C1760 C 0.08089 0.4837 0.11404 0.0
C1761 C 0.06404 0.50006 0.11037 0.0
C1762 C 0.10261 0.48359 0.12256 0.0
C1763 C 0.12025 0.51231 0.14372 0.0
H1764 H 0.21416 0.47734 0.14829 0.0
C1765 C 0.23813 0.51609 0.1753 0.0
C1766 C 0.24419 0.49971 0.18022 0.0
C1767 C 0.21564 0.51611 0.16686 0.0
C1768 C 0.1878 0.48712 0.14713 0.0
H1769 H 0.0575 0.52922 0.11264 0.0
H1770 H 0.09685 0.52928 0.12728 0.0
H1771 H 0.17727 0.47769 0.13337 0.0
H1772 H 0.23171 0.4705 0.18015 0.0
H1773 H 0.19339 0.47047 0.16528 0.0
H1774 H 0.1322 0.52208 0.15743 0.0
C1775 C 0.09215 0.51633 0.12379 0.0
C1776 C 0.16635 0.48728 0.13857 0.0
C1777 C 0.0698 0.51636 0.11534 0.0
C1778 C 0.22756 0.48333 0.1765 0.0
C1779 C 0.20578 0.4833 0.16798 0.0
C1780 C 0.14226 0.51235 0.15221 0.0
C1781 C 0.10872 0.49992 0.12759 0.0
C1782 C 0.13205 0.49984 0.13672 0.0
C1783 C 0.19945 0.4997 0.16308 0.0
C1784 C 0.17617 0.49971 0.15403 0.0
H1785 H 0.07675 0.4709 0.11037 0.0
H1786 H 0.11397 0.47059 0.12525 0.0
H1787 H 0.0935 0.52195 0.14272 0.0
H1788 H 0.25048 0.52892 0.17801 0.0
H1789 H 0.2115 0.52895 0.16322 0.0
C1790 C 0.22673 0.75617 0.1132 0.0
C1791 C 0.24428 0.7399 0.10958 0.0
C1792 C 0.20531 0.75622 0.12175 0.0
C1793 C 0.18922 0.72751 0.14301 0.0
H1794 H 0.09457 0.76211 0.14762 0.0
C1795 C 0.07109 0.72346 0.17456 0.0
C1796 C 0.06591 0.73976 0.17959 0.0
C1797 C 0.09337 0.72347 0.1661 0.0
C1798 C 0.12112 0.75244 0.14644 0.0
H1799 H 0.25236 0.71085 0.11194 0.0
H1800 H 0.21342 0.71064 0.12663 0.0
H1801 H 0.13107 0.76185 0.13267 0.0
H1802 H 0.07967 0.76887 0.17968 0.0
H1803 H 0.11747 0.76899 0.16475 0.0
H1804 H 0.17768 0.71771 0.15673 0.0
C1805 C 0.2174 0.72359 0.1231 0.0
C1806 C 0.14238 0.75233 0.13787 0.0
C1807 C 0.23952 0.72363 0.11462 0.0
C1808 C 0.08314 0.7561 0.17595 0.0
C1809 C 0.10463 0.75619 0.1674 0.0
C1810 C 0.16734 0.7274 0.15151 0.0
C1811 C 0.20012 0.73991 0.12685 0.0
C1812 C 0.17697 0.73991 0.13601 0.0
C1813 C 0.11013 0.73986 0.1624 0.0
C1814 C 0.13319 0.73991 0.15334 0.0
H1815 H 0.23009 0.76895 0.10947 0.0
H1816 H 0.19344 0.76916 0.12441 0.0
H1817 H 0.2162 0.71799 0.142 0.0
H1818 H 0.05829 0.71065 0.17722 0.0
H1819 H 0.09693 0.7107 0.16238 0.0
C1820 C 0.83254 0.50578 0.86391 0.0
C1821 C 0.81646 0.48933 0.86017 0.0
C1822 C 0.85429 0.50586 0.87244 0.0
C1823 C 0.91891 0.47717 0.88815 0.0
H1824 H 0.8814 0.51104 0.90713 0.0
C1825 C 0.99055 0.47304 0.92508 0.0
C1826 C 0.99499 0.48926 0.93018 0.0
C1827 C 0.96857 0.47305 0.91659 0.0
C1828 C 0.89304 0.50168 0.90189 0.0
H1829 H 0.81121 0.46006 0.8623 0.0
H1830 H 0.85021 0.46013 0.87709 0.0
H1831 H 0.84489 0.51135 0.89218 0.0
H1832 H 0.98037 0.51828 0.93035 0.0
H1833 H 0.94386 0.51857 0.9154 0.0
H1834 H 0.968 0.46785 0.89763 0.0
C1835 C 0.84561 0.47297 0.87348 0.0
C1836 C 0.87179 0.50182 0.89332 0.0
C1837 C 0.82312 0.47294 0.86504 0.0
C1838 C 0.97726 0.50553 0.92658 0.0
C1839 C 0.95593 0.50563 0.91802 0.0
C1840 C 0.94072 0.47724 0.89666 0.0
C1841 C 0.86118 0.48944 0.8773 0.0
C1842 C 0.88432 0.4895 0.88636 0.0
C1843 C 0.95108 0.48937 0.91287 0.0
C1844 C 0.92802 0.48943 0.90371 0.0
H1845 H 0.82792 0.51861 0.8603 0.0
H1846 H 0.8662 0.51874 0.87518 0.0
H1847 H 0.92963 0.46764 0.88289 0.0
H1848 H 1.00356 0.46026 0.92773 0.0
H1849 H 0.96486 0.46014 0.91301 0.0
C1850 C 0.97647 0.23285 0.86365 0.0
C1851 C 0.99359 0.24923 0.86004 0.0
C1852 C 0.95488 0.2327 0.87219 0.0
C1853 C 0.89202 0.26147 0.88812 0.0
H1854 H 0.92757 0.2267 0.90687 0.0
C1855 C 0.81974 0.26506 0.925 0.0
C1856 C 0.81451 0.24874 0.92998 0.0
C1857 C 0.84196 0.26513 0.91653 0.0
C1858 C 0.91647 0.23632 0.90169 0.0
H1859 H 1.00092 0.27834 0.86243 0.0
H1860 H 0.96215 0.27818 0.87725 0.0
H1861 H 0.96423 0.22652 0.89194 0.0
H1862 H 0.82796 0.21963 0.92999 0.0
H1863 H 0.86483 0.21947 0.91508 0.0
H1864 H 0.84325 0.27091 0.89764 0.0
C1865 C 0.96584 0.26543 0.87352 0.0
C1866 C 0.93781 0.23625 0.89313 0.0
C1867 C 0.9882 0.26551 0.86507 0.0
C1868 C 0.83169 0.23245 0.92631 0.0
C1869 C 0.85323 0.23243 0.91777 0.0
C1870 C 0.87008 0.26132 0.89661 0.0
C1871 C 0.94917 0.24901 0.87721 0.0
C1872 C 0.926 0.24889 0.88626 0.0
C1873 C 0.85887 0.24879 0.91273 0.0
C1874 C 0.88207 0.24881 0.90358 0.0
H1875 H 0.9801 0.2201 0.85991 0.0
H1876 H 0.94211 0.21987 0.87482 0.0
H1877 H 0.88185 0.27124 0.88292 0.0
H1878 H 0.80718 0.27787 0.92771 0.0
H1879 H 0.84629 0.2781 0.91305 0.0
C1880 C 0.07044 0.01589 0.61557 0.0
C1881 C 0.06474 -0.00045 0.61063 0.0
C1882 C 0.09289 0.01594 0.62401 0.0
C1883 C 0.1672 0.987 0.63884 0.0
H1884 H 0.13349 0.02212 0.65758 0.0
C1885 C 0.22733 0.98337 0.67686 0.0
C1886 C 0.2446 -0.0003 0.6805 0.0
C1887 C 0.20582 0.98331 0.66831 0.0
C1888 C 0.14342 0.01229 0.65239 0.0
H1889 H 0.07764 0.9704 0.61066 0.0
H1890 H 0.11496 0.97023 0.62553 0.0
H1891 H 0.09467 0.02184 0.64289 0.0
H1892 H 0.25233 0.0288 0.67814 0.0
H1893 H 0.21371 0.0288 0.6633 0.0
H1894 H 0.21491 0.9771 0.64859 0.0
C1895 C 0.10352 0.9832 0.62283 0.0
C1896 C 0.12135 0.01218 0.64391 0.0
C1897 C 0.08173 0.98323 0.61431 0.0
C1898 C 0.23948 0.01601 0.67548 0.0
C1899 C 0.21722 0.01602 0.66701 0.0
C1900 C 0.18867 0.98691 0.64739 0.0
C1901 C 0.10959 -0.00043 0.62783 0.0
C1902 C 0.13299 -0.00042 0.63696 0.0
C1903 C 0.20036 -0.00035 0.66331 0.0
C1904 C 0.17719 -0.00038 0.65425 0.0
H1905 H 0.05804 0.02871 0.61285 0.0
H1906 H 0.09756 0.02892 0.62746 0.0
H1907 H 0.17802 0.97732 0.63367 0.0
H1908 H 0.23074 0.97059 0.68059 0.0
H1909 H 0.19291 0.97052 0.66567 0.0
C1910 C 0.23967 0.22277 0.61499 0.0
C1911 C 0.24501 0.23905 0.60998 0.0
C1912 C 0.21742 0.22279 0.62346 0.0
C1913 C 0.14271 0.25175 0.63818 0.0
H1914 H 0.17723 0.21714 0.6571 0.0
C1915 C 0.08131 0.2558 0.67609 0.0
C1916 C 0.06467 0.23942 0.6798 0.0
C1917 C 0.10321 0.25582 0.66758 0.0
C1918 C 0.16708 0.22683 0.65186 0.0
H1919 H 0.23173 0.26817 0.60992 0.0
H1920 H 0.19474 0.26847 0.62482 0.0
H1921 H 0.21599 0.21726 0.6424 0.0
H1922 H 0.05852 0.21019 0.67762 0.0
H1923 H 0.09773 0.21016 0.66286 0.0
H1924 H 0.09475 0.26165 0.64786 0.0
C1925 C 0.2063 0.25549 0.62215 0.0
C1926 C 0.18912 0.22685 0.64338 0.0
C1927 C 0.22791 0.25539 0.61362 0.0
C1928 C 0.07087 0.22303 0.67491 0.0
C1929 C 0.09349 0.223 0.66648 0.0
C1930 C 0.12124 0.25192 0.64673 0.0
C1931 C 0.20054 0.23918 0.62722 0.0
C1932 C 0.17719 0.23926 0.63636 0.0
C1933 C 0.10967 0.23941 0.66269 0.0
C1934 C 0.13301 0.23941 0.65365 0.0
H1935 H 0.25219 0.20994 0.61231 0.0
H1936 H 0.21302 0.20985 0.62698 0.0
H1937 H 0.13166 0.26128 0.63295 0.0
H1938 H 0.07706 0.26863 0.67973 0.0
H1939 H 0.11558 0.26866 0.66488 0.0
C1940 C 0.98811 0.97363 0.42559 0.0
C1941 C 0.99371 0.98998 0.43055 0.0
C1942 C 0.96582 0.97362 0.41713 0.0
C1943 C 0.93846 0.00245 0.39737 0.0
H1944 H 0.84321 0.96806 0.39302 0.0
C1945 C 0.83294 0.00583 0.36408 0.0
C1946 C 0.81541 0.98951 0.36051 0.0
C1947 C 0.85435 0.00598 0.37264 0.0
C1948 C 0.87024 0.97756 0.394 0.0
H1949 H 0.98065 0.01915 0.43054 0.0
H1950 H 0.94276 0.01921 0.41561 0.0
H1951 H 0.88166 0.96792 0.40775 0.0
H1952 H 0.80734 0.96048 0.36297 0.0
H1953 H 0.84623 0.96047 0.37766 0.0
H1954 H 0.92859 0.01171 0.38356 0.0
C1955 C 0.95532 0.00639 0.41831 0.0
C1956 C 0.89208 0.97753 0.4025 0.0
C1957 C 0.97685 0.00634 0.42685 0.0
C1958 C 0.82017 0.9733 0.36561 0.0
C1959 C 0.84226 0.97337 0.37409 0.0
C1960 C 0.91723 0.00226 0.38879 0.0
C1961 C 0.94941 0.99001 0.41336 0.0
C1962 C 0.92631 0.99002 0.4043 0.0
C1963 C 0.85951 0.98974 0.37779 0.0
C1964 C 0.88258 0.98986 0.38696 0.0
H1965 H 1.00063 0.96081 0.42829 0.0
H1966 H 0.96196 0.96081 0.41346 0.0
H1967 H 0.96507 0.01211 0.39852 0.0
H1968 H 0.82959 0.01856 0.36031 0.0
H1969 H 0.86622 0.01896 0.37525 0.0
C1970 C 0.98488 0.76564 0.36457 0.0
C1971 C 0.99165 0.74927 0.3597 0.0
C1972 C 0.96241 0.76557 0.37301 0.0
C1973 C 0.93639 0.73663 0.39284 0.0
H1974 H 0.8404 0.77068 0.39722 0.0
C1975 C 0.83121 0.73294 0.42615 0.0
C1976 C 0.81364 0.74922 0.42976 0.0
C1977 C 0.85247 0.73284 0.41758 0.0
C1978 C 0.86762 0.76126 0.39623 0.0
H1979 H 0.98037 0.71998 0.35982 0.0
H1980 H 0.94211 0.71978 0.3747 0.0
H1981 H 0.8786 0.77089 0.38245 0.0
H1982 H 0.80529 0.77825 0.42733 0.0
H1983 H 0.84386 0.77836 0.4126 0.0
H1984 H 0.92688 0.72738 0.40666 0.0
C1985 C 0.95393 0.73268 0.37196 0.0
C1986 C 0.88933 0.76134 0.3877 0.0
C1987 C 0.97567 0.7328 0.36344 0.0
C1988 C 0.81818 0.76546 0.42467 0.0
C1989 C 0.84008 0.76544 0.41617 0.0
C1990 C 0.91524 0.73676 0.40143 0.0
C1991 C 0.94695 0.74907 0.37684 0.0
C1992 C 0.92386 0.74898 0.3859 0.0
C1993 C 0.8574 0.74911 0.41244 0.0
C1994 C 0.88034 0.74904 0.40327 0.0
H1995 H 0.99672 0.77854 0.36184 0.0
H1996 H 0.95775 0.7784 0.37662 0.0
H1997 H 0.96324 0.72708 0.3917 0.0
H1998 H 0.82802 0.72019 0.42991 0.0
H1999 H 0.86442 0.71989 0.41495 0.0
C2000 C 0.58194 0.48264 0.61382 0.0
C2001 C 0.56465 0.49892 0.61015 0.0
C2002 C 0.60349 0.48262 0.62236 0.0
C2003 C 0.62034 0.51151 0.64351 0.0
H2004 H 0.71448 0.47669 0.64818 0.0
C2005 C 0.73857 0.51546 0.67506 0.0
C2006 C 0.74353 0.49917 0.6801 0.0
C2007 C 0.71631 0.51546 0.6666 0.0
C2008 C 0.68808 0.48643 0.64698 0.0
H2009 H 0.55715 0.52803 0.61242 0.0
H2010 H 0.5963 0.52829 0.62708 0.0
H2011 H 0.67784 0.47692 0.63324 0.0
H2012 H 0.7294 0.47009 0.68024 0.0
H2013 H 0.69163 0.46999 0.6653 0.0
H2014 H 0.63215 0.52139 0.6572 0.0
C2015 C 0.59203 0.51531 0.6236 0.0
C2016 C 0.66674 0.48652 0.63842 0.0
C2017 C 0.56979 0.51524 0.61513 0.0
C2018 C 0.72611 0.48285 0.67649 0.0
C2019 C 0.70463 0.48277 0.66794 0.0
C2020 C 0.6423 0.51164 0.652 0.0
C2021 C 0.60905 0.49898 0.6274 0.0
C2022 C 0.63232 0.49901 0.63654 0.0
C2023 C 0.69934 0.49909 0.66291 0.0
C2024 C 0.67626 0.49905 0.65385 0.0
H2025 H 0.57829 0.46983 0.61013 0.0
H2026 H 0.61516 0.46967 0.62505 0.0
H2027 H 0.5935 0.52109 0.64249 0.0
H2028 H 0.75153 0.52825 0.6777 0.0
H2029 H 0.71291 0.52822 0.66286 0.0
C2030 C 0.74051 0.72318 0.61486 0.0
C2031 C 0.74545 0.73947 0.60983 0.0
C2032 C 0.71819 0.72313 0.62332 0.0
C2033 C 0.64262 0.75182 0.63797 0.0
H2034 H 0.67771 0.71741 0.65694 0.0
C2035 C 0.58143 0.7559 0.67589 0.0
C2036 C 0.5649 0.73951 0.67962 0.0
C2037 C 0.60325 0.75592 0.66738 0.0
C2038 C 0.6674 0.72703 0.65169 0.0
H2039 H 0.73142 0.76853 0.60975 0.0
H2040 H 0.69435 0.76872 0.62463 0.0
H2041 H 0.71661 0.71762 0.64226 0.0
H2042 H 0.55884 0.71028 0.67746 0.0
H2043 H 0.59796 0.71024 0.66268 0.0
H2044 H 0.5944 0.76159 0.64764 0.0
C2045 C 0.70626 0.75578 0.62198 0.0
C2046 C 0.68952 0.72711 0.64321 0.0
C2047 C 0.72792 0.75574 0.61346 0.0
C2048 C 0.5711 0.72312 0.67473 0.0
C2049 C 0.59367 0.72308 0.6663 0.0
C2050 C 0.62108 0.75195 0.64652 0.0
C2051 C 0.70085 0.73945 0.62706 0.0
C2052 C 0.67739 0.73946 0.63618 0.0
C2053 C 0.60975 0.7395 0.6625 0.0
C2054 C 0.63308 0.7395 0.65346 0.0
H2055 H 0.75336 0.7104 0.61219 0.0
H2056 H 0.71409 0.71018 0.62684 0.0
H2057 H 0.63141 0.76129 0.63274 0.0
H2058 H 0.57716 0.76874 0.67952 0.0
H2059 H 0.61555 0.76876 0.66466 0.0
C2060 C 0.31975 0.473 0.36535 0.0
C2061 C 0.31464 0.48931 0.36033 0.0
C2062 C 0.34217 0.47298 0.37379 0.0
C2063 C 0.37124 0.50205 0.39338 0.0
H2064 H 0.46468 0.46686 0.39787 0.0
C2065 C 0.47828 0.50539 0.42645 0.0
C2066 C 0.4949 0.48901 0.43014 0.0
C2067 C 0.45653 0.50549 0.41793 0.0
C2068 C 0.43817 0.4766 0.39685 0.0
H2069 H 0.32867 0.5184 0.36022 0.0
H2070 H 0.36682 0.51845 0.37511 0.0
H2071 H 0.42585 0.46671 0.38318 0.0
H2072 H 0.50098 0.45982 0.42794 0.0
H2073 H 0.46152 0.45974 0.41331 0.0
H2074 H 0.38206 0.51159 0.40711 0.0
C2075 C 0.35377 0.50567 0.37248 0.0
C2076 C 0.41609 0.47656 0.38837 0.0
C2077 C 0.33208 0.50563 0.36395 0.0
C2078 C 0.48887 0.47269 0.42521 0.0
C2079 C 0.46645 0.47271 0.41676 0.0
C2080 C 0.39273 0.50189 0.40193 0.0
C2081 C 0.35922 0.48933 0.37748 0.0
C2082 C 0.38251 0.48933 0.38652 0.0
C2083 C 0.45012 0.48913 0.41294 0.0
C2084 C 0.42673 0.48921 0.40381 0.0
H2085 H 0.30677 0.46022 0.36271 0.0
H2086 H 0.34565 0.4602 0.37751 0.0
H2087 H 0.34514 0.51193 0.3922 0.0
H2088 H 0.48264 0.51821 0.4301 0.0
H2089 H 0.44538 0.5185 0.41522 0.0
C2090 C 0.31968 0.26577 0.42483 0.0
C2091 C 0.31401 0.24947 0.42983 0.0
C2092 C 0.34223 0.26573 0.4164 0.0
C2093 C 0.37095 0.23653 0.39681 0.0
H2094 H 0.46485 0.27151 0.39236 0.0
C2095 C 0.47827 0.23294 0.36379 0.0
C2096 C 0.495 0.24929 0.36009 0.0
C2097 C 0.45647 0.23288 0.3723 0.0
C2098 C 0.43821 0.26183 0.39337 0.0
H2099 H 0.32719 0.22031 0.42991 0.0
H2100 H 0.36562 0.22014 0.41505 0.0
H2101 H 0.42589 0.27176 0.40703 0.0
H2102 H 0.50127 0.27847 0.36228 0.0
H2103 H 0.46177 0.27864 0.3769 0.0
H2104 H 0.38181 0.22695 0.38309 0.0
C2105 C 0.35289 0.23298 0.41769 0.0
C2106 C 0.41606 0.26193 0.40184 0.0
C2107 C 0.33105 0.23308 0.4262 0.0
C2108 C 0.48906 0.26563 0.36501 0.0
C2109 C 0.46662 0.26566 0.37346 0.0
C2110 C 0.39253 0.23663 0.38827 0.0
C2111 C 0.35887 0.24931 0.4127 0.0
C2112 C 0.38229 0.24924 0.40367 0.0
C2113 C 0.45015 0.24926 0.37728 0.0
C2114 C 0.42669 0.24924 0.3864 0.0
H2115 H 0.307 0.27861 0.42748 0.0
H2116 H 0.34611 0.27851 0.4127 0.0
H2117 H 0.3447 0.22672 0.39798 0.0
H2118 H 0.48256 0.2201 0.36015 0.0
H2119 H 0.44521 0.2199 0.37502 0.0
C2120 C 0.74033 0.01589 0.17539 0.0
C2121 C 0.74579 -0.00042 0.18037 0.0
C2122 C 0.71807 0.01591 0.16692 0.0
C2123 C 0.64356 0.98701 0.15215 0.0
H2124 H 0.67803 0.02177 0.13329 0.0
C2125 C 0.58213 0.98326 0.11422 0.0
C2126 C 0.56551 -0.00032 0.11054 0.0
C2127 C 0.60402 0.98316 0.12273 0.0
C2128 C 0.66789 0.01204 0.13851 0.0
H2129 H 0.73272 0.97044 0.18038 0.0
H2130 H 0.6957 0.97022 0.16548 0.0
H2131 H 0.71676 0.02155 0.14799 0.0
H2132 H 0.55941 0.02889 0.11278 0.0
H2133 H 0.59861 0.02879 0.12754 0.0
H2134 H 0.59564 0.97717 0.14244 0.0
C2135 C 0.70718 0.98319 0.16817 0.0
C2136 C 0.68991 0.01196 0.147 0.0
C2137 C 0.7288 0.98325 0.1767 0.0
C2138 C 0.57175 0.01602 0.11547 0.0
C2139 C 0.59435 0.01598 0.12389 0.0
C2140 C 0.6221 0.98689 0.14359 0.0
C2141 C 0.70131 -0.00046 0.16313 0.0
C2142 C 0.678 -0.00049 0.15399 0.0
C2143 C 0.6105 -0.00047 0.12765 0.0
C2144 C 0.63385 -0.00053 0.13669 0.0
H2145 H 0.75276 0.02872 0.17809 0.0
H2146 H 0.71358 0.02887 0.16343 0.0
H2147 H 0.63253 0.97744 0.15735 0.0
H2148 H 0.57785 0.97045 0.11056 0.0
H2149 H 0.61637 0.9703 0.12542 0.0
C2150 C 0.74012 0.22351 0.11505 0.0
C2151 C 0.74482 0.23978 0.11 0.0
C2152 C 0.71803 0.22347 0.12353 0.0
C2153 C 0.64295 0.2522 0.1383 0.0
H2154 H 0.67838 0.21766 0.15718 0.0
C2155 C 0.5834 0.25602 0.17636 0.0
C2156 C 0.56631 0.23966 0.18 0.0
C2157 C 0.60498 0.25611 0.16782 0.0
C2158 C 0.668 0.22733 0.15195 0.0
H2159 H 0.73059 0.26883 0.10989 0.0
H2160 H 0.69399 0.26904 0.12483 0.0
H2161 H 0.71688 0.21792 0.14245 0.0
H2162 H 0.55904 0.21053 0.17767 0.0
H2163 H 0.59782 0.21059 0.16285 0.0
H2164 H 0.5951 0.26198 0.14804 0.0
C2165 C 0.70587 0.2561 0.12218 0.0
C2166 C 0.68987 0.22743 0.14345 0.0
C2167 C 0.72727 0.25605 0.11363 0.0
C2168 C 0.57174 0.22335 0.175 0.0
C2169 C 0.59409 0.22337 0.16655 0.0
C2170 C 0.62169 0.25232 0.14687 0.0
C2171 C 0.70073 0.23979 0.12728 0.0
C2172 C 0.67759 0.2398 0.13644 0.0
C2173 C 0.61071 0.23977 0.16283 0.0
C2174 C 0.6338 0.23982 0.15377 0.0
H2175 H 0.75298 0.21073 0.11238 0.0
H2176 H 0.71409 0.21053 0.12707 0.0
H2177 H 0.63161 0.2617 0.13309 0.0
H2178 H 0.57975 0.2688 0.18007 0.0
H2179 H 0.61771 0.26892 0.16516 0.0
C2180 C 0.33082 0.00587 0.8643 0.0
C2181 C 0.31394 0.98952 0.86061 0.0
C2182 C 0.35276 0.00587 0.8728 0.0
C2183 C 0.41651 0.9768 0.88849 0.0
H2184 H 0.38166 0.01127 0.90743 0.0
C2185 C 0.48963 0.97256 0.9253 0.0
C2186 C 0.4952 0.98881 0.93032 0.0
C2187 C 0.46723 0.97264 0.91685 0.0
C2188 C 0.39255 0.00174 0.9022 0.0
H2189 H 0.30735 0.96032 0.86283 0.0
H2190 H 0.34665 0.96024 0.87759 0.0
H2191 H 0.3445 0.01171 0.89254 0.0
H2192 H 0.48218 0.01796 0.9304 0.0
H2193 H 0.44493 0.01836 0.91553 0.0
H2194 H 0.46552 0.96717 0.89792 0.0
C2195 C 0.34256 0.97308 0.87395 0.0
C2196 C 0.37094 0.00195 0.89366 0.0
C2197 C 0.3199 0.97314 0.86553 0.0
C2198 C 0.47818 0.00519 0.9267 0.0
C2199 C 0.45643 0.00535 0.91818 0.0
C2200 C 0.4387 0.97679 0.89696 0.0
C2201 C 0.35902 0.98946 0.87771 0.0
C2202 C 0.3825 0.98942 0.88673 0.0
C2203 C 0.45044 0.98906 0.91311 0.0
C2204 C 0.42696 0.98919 0.90399 0.0
H2205 H 0.32674 0.0187 0.86065 0.0
H2206 H 0.36535 0.01869 0.87549 0.0
H2207 H 0.4265 0.96711 0.88325 0.0
H2208 H 0.50208 0.9597 0.92797 0.0
H2209 H 0.46265 0.95971 0.91334 0.0
C2210 C 0.47647 0.73307 0.86329 0.0
C2211 C 0.49365 0.74942 0.85964 0.0
C2212 C 0.45486 0.733 0.87182 0.0
C2213 C 0.39227 0.76199 0.88772 0.0
H2214 H 0.42689 0.72703 0.90646 0.0
C2215 C 0.3196 0.76567 0.92457 0.0
C2216 C 0.31384 0.74933 0.92951 0.0
C2217 C 0.34198 0.7657 0.91612 0.0
C2218 C 0.41607 0.73671 0.90128 0.0
H2219 H 0.50111 0.77854 0.86198 0.0
H2220 H 0.46236 0.77851 0.8768 0.0
H2221 H 0.46374 0.72679 0.89154 0.0
H2222 H 0.32655 0.72016 0.92947 0.0
H2223 H 0.36375 0.71996 0.91459 0.0
H2224 H 0.34359 0.77157 0.89722 0.0
C2225 C 0.46599 0.76573 0.8731 0.0
C2226 C 0.43751 0.73661 0.89273 0.0
C2227 C 0.48833 0.76573 0.86464 0.0
C2228 C 0.33069 0.73299 0.92582 0.0
C2229 C 0.35242 0.73295 0.9173 0.0
C2230 C 0.37024 0.76189 0.8962 0.0
C2231 C 0.44923 0.74934 0.87681 0.0
C2232 C 0.42602 0.7493 0.88587 0.0
C2233 C 0.35855 0.74932 0.9123 0.0
C2234 C 0.38189 0.74931 0.90316 0.0
H2235 H 0.48003 0.7203 0.85957 0.0
H2236 H 0.44202 0.7202 0.87447 0.0
H2237 H 0.38234 0.77181 0.88252 0.0
H2238 H 0.30729 0.7785 0.92729 0.0
H2239 H 0.34669 0.77868 0.91266 0.0
C2240 C 0.16325 0.68983 0.08227 0.0
C2241 C 0.20848 0.69409 0.08201 0.0
C2242 C 0.1495 0.67152 0.08208 0.0
C2243 C 0.18645 0.62534 0.08781 0.0
H2244 H 0.10149 0.60885 0.06965 0.0
C2245 C 0.14447 0.54864 0.08317 0.0
C2246 C 0.09969 0.54456 0.0817 0.0
C2247 C 0.15918 0.56682 0.0828 0.0
C2248 C 0.12487 0.61325 0.07484 0.0
H2249 H 0.27473 0.68257 0.08153 0.0
H2250 H 0.25066 0.6509 0.08133 0.0
H2251 H 0.12153 0.64118 0.07034 0.0
H2252 H 0.03525 0.55636 0.0787 0.0
H2253 H 0.06045 0.58765 0.07832 0.0
H2254 H 0.18916 0.5976 0.09249 0.0
C2255 C 0.22592 0.66161 0.08162 0.0
C2256 C 0.13623 0.63175 0.07522 0.0
C2257 C 0.23957 0.67978 0.08166 0.0
C2258 C 0.07012 0.55892 0.07978 0.0
C2259 C 0.08463 0.57696 0.0795 0.0
C2260 C 0.17466 0.60687 0.08751 0.0
C2261 C 0.18086 0.6573 0.08182 0.0
C2262 C 0.16715 0.63792 0.0817 0.0
C2263 C 0.12925 0.58118 0.08102 0.0
C2264 C 0.14366 0.60061 0.08104 0.0
H2265 H 0.13863 0.70059 0.08256 0.0
H2266 H 0.11449 0.66844 0.08227 0.0
H2267 H 0.21029 0.62984 0.09289 0.0
H2268 H 0.16801 0.53786 0.08465 0.0
H2269 H 0.19392 0.5696 0.08391 0.0
C2270 C 0.07056 0.6795 0.20701 0.0
C2271 C 0.10163 0.69382 0.20706 0.0
C2272 C 0.08427 0.66133 0.20714 0.0
C2273 C 0.17194 0.63152 0.21463 0.0
H2274 H 0.12351 0.59724 0.19688 0.0
C2275 C 0.23771 0.55832 0.21117 0.0
C2276 C 0.2085 0.54408 0.20885 0.0
C2277 C 0.2235 0.57642 0.21127 0.0
C2278 C 0.13671 0.60655 0.20199 0.0
H2279 H 0.17146 0.70037 0.20728 0.0
H2280 H 0.19568 0.66822 0.20774 0.0
H2281 H 0.10305 0.62953 0.19608 0.0
H2282 H 0.14099 0.53763 0.20506 0.0
H2283 H 0.11555 0.56946 0.2055 0.0
H2284 H 0.2046 0.60861 0.22073 0.0
C2285 C 0.16066 0.67128 0.20754 0.0
C2286 C 0.12535 0.62504 0.20147 0.0
C2287 C 0.14688 0.68959 0.20725 0.0
C2288 C 0.16427 0.54832 0.20686 0.0
C2289 C 0.14985 0.56655 0.20705 0.0
C2290 C 0.18285 0.61299 0.21523 0.0
C2291 C 0.12934 0.65705 0.20744 0.0
C2292 C 0.14302 0.63767 0.20776 0.0
C2293 C 0.17952 0.58081 0.20917 0.0
C2294 C 0.16562 0.6003 0.20888 0.0
H2295 H 0.03541 0.68228 0.20678 0.0
H2296 H 0.05953 0.6506 0.20714 0.0
H2297 H 0.18532 0.64098 0.21965 0.0
H2298 H 0.27215 0.55563 0.21269 0.0
H2299 H 0.24752 0.58701 0.21275 0.0
C2300 C 0.89575 0.29819 0.95708 0.0
C2301 C 0.8507 0.29401 0.95801 0.0
C2302 C 0.90996 0.31643 0.95739 0.0
C2303 C 0.87244 0.36297 0.96443 0.0
H2304 H 0.96416 0.37923 0.9477 0.0
C2305 C 0.91377 0.43939 0.95721 0.0
C2306 C 0.95888 0.44363 0.95801 0.0
C2307 C 0.89987 0.4211 0.95737 0.0
C2308 C 0.93854 0.37482 0.95241 0.0
H2309 H 0.78517 0.30568 0.95986 0.0
H2310 H 0.80961 0.33711 0.96013 0.0
H2311 H 0.94288 0.347 0.94792 0.0
H2312 H 1.02475 0.43207 0.95952 0.0
H2313 H 1.00044 0.40044 0.95969 0.0
H2314 H 0.86759 0.39097 0.96874 0.0
C2315 C 0.8343 0.32646 0.95945 0.0
C2316 C 0.92663 0.35637 0.9526 0.0
C2317 C 0.82026 0.30835 0.95924 0.0
C2318 C 0.98968 0.42932 0.95895 0.0
C2319 C 0.97591 0.41116 0.95897 0.0
C2320 C 0.88398 0.38146 0.96415 0.0
C2321 C 0.87926 0.33077 0.95855 0.0
C2322 C 0.8934 0.35022 0.95861 0.0
C2323 C 0.931 0.40687 0.95816 0.0
C2324 C 0.91718 0.38751 0.95816 0.0
H2325 H 0.91994 0.28741 0.95613 0.0
H2326 H 0.94495 0.31929 0.95677 0.0
H2327 H 0.84726 0.35866 0.96926 0.0
H2328 H 0.88936 0.45014 0.95647 0.0
H2329 H 0.86498 0.41804 0.95671 0.0
C2330 C 0.89577 0.44069 0.83329 0.0
C2331 C 0.85141 0.44493 0.83142 0.0
C2332 C 0.9102 0.42246 0.83301 0.0
C2333 C 0.87672 0.37612 0.82477 0.0
H2334 H 0.95772 0.35932 0.84364 0.0
C2335 C 0.91302 0.29942 0.83248 0.0
C2336 C 0.95828 0.29518 0.83252 0.0
C2337 C 0.89927 0.31774 0.83226 0.0
C2338 C 0.93508 0.36389 0.83833 0.0
H2339 H 0.78753 0.43339 0.82774 0.0
H2340 H 0.8122 0.40203 0.82753 0.0
H2341 H 0.93726 0.39163 0.843 0.0
H2342 H 1.02454 0.30671 0.83259 0.0
H2343 H 1.00045 0.33838 0.83234 0.0
H2344 H 0.87391 0.34819 0.82027 0.0
C2345 C 0.83629 0.41261 0.82897 0.0
C2346 C 0.92371 0.38239 0.8379 0.0
C2347 C 0.82207 0.4307 0.82916 0.0
C2348 C 0.98938 0.30949 0.83247 0.0
C2349 C 0.9757 0.32766 0.8324 0.0
C2350 C 0.88763 0.35758 0.82528 0.0
C2351 C 0.88042 0.40821 0.83093 0.0
C2352 C 0.89436 0.38873 0.83112 0.0
C2353 C 0.93063 0.33196 0.83228 0.0
C2354 C 0.91697 0.35134 0.83205 0.0
H2355 H 0.91914 0.45136 0.83504 0.0
H2356 H 0.9446 0.41954 0.83445 0.0
H2357 H 0.85463 0.38058 0.81935 0.0
H2358 H 0.88842 0.28865 0.83253 0.0
H2359 H 0.86424 0.32082 0.83218 0.0
C2360 C 0.14597 0.04871 0.58305 0.0
C2361 C 0.10058 0.04471 0.58295 0.0
C2362 C 0.16028 0.06696 0.58281 0.0
C2363 C 0.125 0.11331 0.58864 0.0
H2364 H 0.20752 0.12957 0.56995 0.0
C2365 C 0.16445 0.18997 0.58327 0.0
C2366 C 0.2089 0.19425 0.58155 0.0
C2367 C 0.15028 0.17171 0.58309 0.0
C2368 C 0.18485 0.12523 0.57529 0.0
H2369 H 0.03468 0.0566 0.58271 0.0
H2370 H 0.05972 0.08812 0.58242 0.0
H2371 H 0.18778 0.09723 0.5709 0.0
H2372 H 0.27329 0.18273 0.57825 0.0
H2373 H 0.24903 0.1513 0.5782 0.0
H2374 H 0.12259 0.14113 0.59319 0.0
C2375 C 0.08415 0.07727 0.58262 0.0
C2376 C 0.17368 0.10672 0.57582 0.0
C2377 C 0.06993 0.05918 0.58271 0.0
C2378 C 0.23865 0.18 0.57954 0.0
C2379 C 0.22468 0.16188 0.57944 0.0
C2380 C 0.13659 0.13178 0.58819 0.0
C2381 C 0.12935 0.08134 0.58267 0.0
C2382 C 0.14353 0.10065 0.58247 0.0
C2383 C 0.18042 0.15746 0.58125 0.0
C2384 C 0.16661 0.13797 0.5815 0.0
H2385 H 0.17024 0.03782 0.58325 0.0
H2386 H 0.19539 0.06985 0.58287 0.0
H2387 H 0.10176 0.10888 0.59385 0.0
H2388 H 0.14076 0.20066 0.58483 0.0
H2389 H 0.11577 0.16877 0.5844 0.0
C2390 C 0.06968 0.18029 0.70911 0.0
C2391 C 0.09989 0.19477 0.70799 0.0
C2392 C 0.08406 0.16223 0.70916 0.0
C2393 C 0.1768 0.13291 0.7141 0.0
H2394 H 0.11731 0.09822 0.69809 0.0
C2395 C 0.23944 0.05946 0.7096 0.0
C2396 C 0.20872 0.04519 0.70846 0.0
C2397 C 0.22577 0.07762 0.7097 0.0
C2398 C 0.13375 0.10765 0.70271 0.0
H2399 H 0.16904 0.20164 0.70617 0.0
H2400 H 0.19453 0.16966 0.70647 0.0
H2401 H 0.09601 0.13043 0.69779 0.0
H2402 H 0.13938 0.03879 0.70661 0.0
H2403 H 0.11498 0.07077 0.70707 0.0
H2404 H 0.21365 0.11018 0.71926 0.0
C2405 C 0.15961 0.17255 0.70724 0.0
C2406 C 0.12184 0.12609 0.70247 0.0
C2407 C 0.14508 0.19077 0.70706 0.0
C2408 C 0.16376 0.04951 0.7075 0.0
C2409 C 0.14992 0.06781 0.7077 0.0
C2410 C 0.18835 0.11442 0.71443 0.0
C2411 C 0.12901 0.15817 0.70818 0.0
C2412 C 0.14331 0.13886 0.70815 0.0
C2413 C 0.18089 0.08207 0.70877 0.0
C2414 C 0.1671 0.10157 0.70871 0.0
H2415 H 0.03457 0.18283 0.70981 0.0
H2416 H 0.05995 0.15138 0.71001 0.0
H2417 H 0.19329 0.14249 0.71864 0.0
H2418 H 0.27448 0.05667 0.71023 0.0
H2419 H 0.25068 0.0882 0.71031 0.0
C2420 C 0.81957 0.80888 0.45954 0.0
C2421 C 0.84994 0.79466 0.45794 0.0
C2422 C 0.83335 0.82703 0.45973 0.0
C2423 C 0.92358 0.8573 0.45212 0.0
H2424 H 0.86788 0.89149 0.46899 0.0
C2425 C 0.98813 0.92997 0.45854 0.0
C2426 C 0.95734 0.94437 0.45801 0.0
C2427 C 0.97419 0.91185 0.45847 0.0
C2428 C 0.88328 0.8821 0.46418 0.0
H2429 H 0.91883 0.78832 0.45539 0.0
H2430 H 0.94342 0.82025 0.45598 0.0
H2431 H 0.84792 0.85915 0.46953 0.0
H2432 H 0.88769 0.95106 0.45705 0.0
H2433 H 0.86301 0.91898 0.45713 0.0
H2434 H 0.95985 0.88032 0.44699 0.0
C2435 C 0.90865 0.81727 0.45692 0.0
C2436 C 0.87196 0.86359 0.46448 0.0
C2437 C 0.89469 0.79899 0.45663 0.0
C2438 C 0.91209 0.94023 0.45748 0.0
C2439 C 0.89802 0.92196 0.45755 0.0
C2440 C 0.93529 0.87578 0.45192 0.0
C2441 C 0.87799 0.83149 0.45842 0.0
C2442 C 0.89179 0.85099 0.45842 0.0
C2443 C 0.92912 0.90766 0.45796 0.0
C2444 C 0.91515 0.88831 0.45793 0.0
H2445 H 0.78469 0.8061 0.46047 0.0
H2446 H 0.80865 0.83759 0.46069 0.0
H2447 H 0.93888 0.84806 0.44725 0.0
H2448 H 1.02331 0.93265 0.45888 0.0
H2449 H 0.99871 0.90106 0.45889 0.0
C2450 C 0.98621 0.80789 0.32849 0.0
C2451 C 0.95717 0.79364 0.3309 0.0
C2452 C 0.97194 0.82598 0.32838 0.0
C2453 C 0.88564 0.85608 0.33786 0.0
H2454 H 0.93351 0.89059 0.32014 0.0
C2455 C 0.81963 0.92912 0.33307 0.0
C2456 C 0.85078 0.94341 0.33297 0.0
C2457 C 0.83323 0.91095 0.33289 0.0
C2458 C 0.92033 0.8811 0.32518 0.0
H2459 H 0.88984 0.78719 0.33482 0.0
H2460 H 0.86429 0.81899 0.33437 0.0
H2461 H 0.95258 0.85821 0.31898 0.0
H2462 H 0.92064 0.94991 0.33263 0.0
H2463 H 0.94465 0.91773 0.33209 0.0
H2464 H 0.85238 0.87904 0.34387 0.0
C2465 C 0.89852 0.81609 0.33276 0.0
C2466 C 0.93113 0.86257 0.32453 0.0
C2467 C 0.913 0.79787 0.33295 0.0
C2468 C 0.896 0.93915 0.33269 0.0
C2469 C 0.90966 0.92082 0.33236 0.0
C2470 C 0.87439 0.87457 0.33843 0.0
C2471 C 0.92806 0.83036 0.33057 0.0
C2472 C 0.91417 0.84985 0.3309 0.0
C2473 C 0.87826 0.90662 0.3325 0.0
C2474 C 0.89181 0.88723 0.33212 0.0
H2475 H 1.02059 0.80521 0.32691 0.0
H2476 H 0.99587 0.83657 0.32684 0.0
H2477 H 0.87266 0.84675 0.34299 0.0
H2478 H 0.78451 0.93194 0.33338 0.0
H2479 H 0.80843 0.90024 0.33293 0.0
C2480 C 0.64661 0.54861 0.58307 0.0
C2481 C 0.60133 0.54447 0.58266 0.0
C2482 C 0.66068 0.56688 0.58292 0.0
C2483 C 0.62373 0.61319 0.58843 0.0
H2484 H 0.71018 0.62944 0.57054 0.0
C2485 C 0.66419 0.68987 0.58326 0.0
C2486 C 0.70889 0.69416 0.58185 0.0
C2487 C 0.65017 0.67159 0.58308 0.0
C2488 C 0.6864 0.62511 0.57566 0.0
H2489 H 0.53532 0.55618 0.58192 0.0
H2490 H 0.55992 0.58777 0.58177 0.0
H2491 H 0.69024 0.59711 0.5713 0.0
H2492 H 0.77398 0.68265 0.57922 0.0
H2493 H 0.74993 0.65117 0.57918 0.0
H2494 H 0.62038 0.641 0.59296 0.0
C2495 C 0.58447 0.57699 0.58217 0.0
C2496 C 0.6751 0.6066 0.57608 0.0
C2497 C 0.57051 0.55886 0.58218 0.0
C2498 C 0.73914 0.6799 0.58023 0.0
C2499 C 0.72531 0.66176 0.58015 0.0
C2500 C 0.63543 0.63166 0.5881 0.0
C2501 C 0.62957 0.58118 0.58254 0.0
C2502 C 0.64356 0.60052 0.58245 0.0
C2503 C 0.68072 0.65733 0.58157 0.0
C2504 C 0.66689 0.63784 0.5817 0.0
H2505 H 0.67102 0.53778 0.58346 0.0
H2506 H 0.69571 0.56986 0.58323 0.0
H2507 H 0.59943 0.60875 0.59344 0.0
H2508 H 0.64014 0.70057 0.58451 0.0
H2509 H 0.61544 0.66864 0.5841 0.0
C2510 C 0.7391 0.55939 0.70787 0.0
C2511 C 0.7079 0.54513 0.70757 0.0
C2512 C 0.72557 0.57758 0.70789 0.0
C2513 C 0.63633 0.60758 0.71435 0.0
H2514 H 0.68928 0.64164 0.69705 0.0
C2515 C 0.57119 0.68059 0.70995 0.0
C2516 C 0.60094 0.69489 0.70805 0.0
C2517 C 0.58543 0.66251 0.71017 0.0
C2518 C 0.67477 0.63239 0.70203 0.0
H2519 H 0.63801 0.53871 0.70709 0.0
H2520 H 0.61408 0.5709 0.70733 0.0
H2521 H 0.70995 0.60935 0.6966 0.0
H2522 H 0.66928 0.70143 0.70503 0.0
H2523 H 0.69472 0.6696 0.70568 0.0
H2524 H 0.60207 0.63055 0.71997 0.0
C2525 C 0.64907 0.56778 0.7075 0.0
C2526 C 0.68629 0.6139 0.70171 0.0
C2527 C 0.6627 0.54944 0.70733 0.0
C2528 C 0.64561 0.6907 0.70651 0.0
C2529 C 0.66004 0.67247 0.70682 0.0
C2530 C 0.62524 0.6261 0.71475 0.0
C2531 C 0.68054 0.58195 0.70771 0.0
C2532 C 0.66699 0.60135 0.70784 0.0
C2533 C 0.62994 0.65818 0.7086 0.0
C2534 C 0.64405 0.63871 0.70855 0.0
H2535 H 0.77424 0.55656 0.70798 0.0
H2536 H 0.75039 0.58826 0.70814 0.0
H2537 H 0.62165 0.59818 0.71924 0.0
H2538 H 0.53639 0.68324 0.71108 0.0
H2539 H 0.56111 0.65188 0.71135 0.0
C2540 C 0.48883 0.42989 0.46024 0.0
C2541 C 0.45896 0.44424 0.45851 0.0
C2542 C 0.47457 0.41181 0.46041 0.0
C2543 C 0.38437 0.38198 0.45241 0.0
H2544 H 0.43846 0.34729 0.46926 0.0
C2545 C 0.31874 0.30927 0.45817 0.0
C2546 C 0.34943 0.29484 0.45763 0.0
C2547 C 0.33286 0.32737 0.45826 0.0
C2548 C 0.42351 0.35682 0.46447 0.0
H2549 H 0.39039 0.45088 0.45578 0.0
H2550 H 0.36494 0.41906 0.45634 0.0
H2551 H 0.45865 0.37959 0.47006 0.0
H2552 H 0.41906 0.28805 0.45684 0.0
H2553 H 0.44405 0.32009 0.45721 0.0
H2554 H 0.34832 0.35915 0.44702 0.0
C2555 C 0.39971 0.42189 0.45738 0.0
C2556 C 0.43495 0.37531 0.46491 0.0
C2557 C 0.41416 0.44011 0.45711 0.0
C2558 C 0.39475 0.2989 0.45727 0.0
C2559 C 0.40898 0.31715 0.4575 0.0
C2560 C 0.37253 0.36353 0.45206 0.0
C2561 C 0.42993 0.40754 0.45897 0.0
C2562 C 0.41573 0.38809 0.45885 0.0
C2563 C 0.378 0.33149 0.45792 0.0
C2564 C 0.39212 0.35082 0.45806 0.0
H2565 H 0.52373 0.43251 0.46126 0.0
H2566 H 0.49895 0.40114 0.46144 0.0
H2567 H 0.36955 0.39136 0.44753 0.0
H2568 H 0.28352 0.30665 0.45839 0.0
H2569 H 0.30841 0.33819 0.45868 0.0
C2570 C 0.48841 0.30817 0.32952 0.0
C2571 C 0.45894 0.29387 0.33161 0.0
C2572 C 0.47412 0.32626 0.32938 0.0
C2573 C 0.38583 0.35625 0.33813 0.0
H2574 H 0.4364 0.39075 0.32074 0.0
C2575 C 0.31966 0.4291 0.33279 0.0
C2576 C 0.35061 0.44347 0.33291 0.0
C2577 C 0.33353 0.41096 0.33269 0.0
C2578 C 0.42245 0.38127 0.32569 0.0
H2579 H 0.39098 0.28733 0.33499 0.0
H2580 H 0.36545 0.31914 0.33448 0.0
H2581 H 0.4562 0.35842 0.3198 0.0
H2582 H 0.42041 0.45011 0.33301 0.0
H2583 H 0.44492 0.418 0.33263 0.0
H2584 H 0.35113 0.37917 0.34382 0.0
C2585 C 0.39997 0.31628 0.33314 0.0
C2586 C 0.43367 0.36277 0.32516 0.0
C2587 C 0.41445 0.29806 0.33337 0.0
C2588 C 0.39591 0.4393 0.33291 0.0
C2589 C 0.40986 0.42101 0.33266 0.0
C2590 C 0.37418 0.37472 0.33857 0.0
C2591 C 0.42983 0.33059 0.33122 0.0
C2592 C 0.41573 0.35005 0.33142 0.0
C2593 C 0.37865 0.40673 0.33261 0.0
C2594 C 0.39254 0.38737 0.33238 0.0
H2595 H 0.52305 0.30552 0.32821 0.0
H2596 H 0.49826 0.33689 0.32807 0.0
H2597 H 0.37203 0.34692 0.34316 0.0
H2598 H 0.28447 0.43183 0.33287 0.0
H2599 H 0.30888 0.40019 0.33257 0.0
C2600 C 0.64564 0.04841 0.08338 0.0
C2601 C 0.6005 0.04444 0.08234 0.0
C2602 C 0.66024 0.06662 0.08324 0.0
C2603 C 0.62222 0.11308 0.08793 0.0
H2604 H 0.71531 0.12902 0.07147 0.0
C2605 C 0.66421 0.18967 0.08301 0.0
C2606 C 0.7092 0.19402 0.08217 0.0
C2607 C 0.65051 0.17135 0.08279 0.0
C2608 C 0.68964 0.12477 0.0762 0.0
H2609 H 0.53535 0.05642 0.08032 0.0
H2610 H 0.56084 0.08785 0.08018 0.0
H2611 H 0.69487 0.09671 0.07199 0.0
H2612 H 0.77516 0.18261 0.08063 0.0
H2613 H 0.75158 0.15105 0.08053 0.0
H2614 H 0.61737 0.14094 0.09232 0.0
C2615 C 0.58486 0.07699 0.0811 0.0
C2616 C 0.67805 0.10628 0.07649 0.0
C2617 C 0.57042 0.05893 0.08111 0.0
C2618 C 0.7401 0.17979 0.08116 0.0
C2619 C 0.72656 0.16161 0.08105 0.0
C2620 C 0.63417 0.13152 0.08775 0.0
C2621 C 0.62975 0.08102 0.08221 0.0
C2622 C 0.64409 0.10032 0.08231 0.0
C2623 C 0.68166 0.15712 0.08184 0.0
C2624 C 0.66796 0.1376 0.08186 0.0
H2625 H 0.66952 0.03752 0.08435 0.0
H2626 H 0.69511 0.06948 0.08412 0.0
H2627 H 0.59603 0.10873 0.09253 0.0
H2628 H 0.63968 0.20036 0.0838 0.0
H2629 H 0.61555 0.16836 0.08332 0.0
C2630 C 0.57076 0.17951 0.20775 0.0
C2631 C 0.60172 0.19387 0.20759 0.0
C2632 C 0.5846 0.16136 0.20784 0.0
C2633 C 0.67353 0.13163 0.21476 0.0
H2634 H 0.62274 0.09735 0.1973 0.0
C2635 C 0.73897 0.05845 0.21093 0.0
C2636 C 0.7094 0.04419 0.20885 0.0
C2637 C 0.72482 0.07655 0.21106 0.0
C2638 C 0.63664 0.10666 0.20232 0.0
H2639 H 0.67153 0.20049 0.2074 0.0
H2640 H 0.696 0.16837 0.20777 0.0
H2641 H 0.60198 0.12962 0.19666 0.0
H2642 H 0.64139 0.03772 0.20548 0.0
H2643 H 0.61608 0.06957 0.20598 0.0
H2644 H 0.70722 0.10873 0.22063 0.0
C2645 C 0.66095 0.17139 0.20778 0.0
C2646 C 0.62509 0.12514 0.20189 0.0
C2647 C 0.64702 0.18969 0.20755 0.0
C2648 C 0.66494 0.04842 0.20709 0.0
C2649 C 0.65058 0.06666 0.20731 0.0
C2650 C 0.68466 0.11311 0.21527 0.0
C2651 C 0.62972 0.15713 0.20787 0.0
C2652 C 0.64357 0.13776 0.20808 0.0
C2653 C 0.68056 0.08093 0.20922 0.0
C2654 C 0.66658 0.10042 0.20902 0.0
H2655 H 0.53557 0.18224 0.20771 0.0
H2656 H 0.55994 0.1506 0.20799 0.0
H2657 H 0.68758 0.14108 0.2197 0.0
H2658 H 0.77361 0.05576 0.21224 0.0
H2659 H 0.74904 0.08716 0.21236 0.0
C2660 C 0.31912 0.80853 0.95917 0.0
C2661 C 0.34934 0.79414 0.95786 0.0
C2662 C 0.33342 0.82659 0.95947 0.0
C2663 C 0.426 0.85638 0.95268 0.0
H2664 H 0.36745 0.89094 0.96893 0.0
C2665 C 0.48999 0.92909 0.95917 0.0
C2666 C 0.45945 0.9435 0.95822 0.0
C2667 C 0.47591 0.91098 0.95918 0.0
C2668 C 0.38369 0.88144 0.9643 0.0
H2669 H 0.41848 0.7874 0.95594 0.0
H2670 H 0.44394 0.81921 0.95673 0.0
H2671 H 0.34685 0.85865 0.96938 0.0
H2672 H 0.39005 0.95022 0.95667 0.0
H2673 H 0.36512 0.91817 0.9569 0.0
H2674 H 0.46366 0.87923 0.94781 0.0
C2675 C 0.40892 0.81642 0.95735 0.0
C2676 C 0.37201 0.86297 0.96455 0.0
C2677 C 0.39446 0.79822 0.95695 0.0
C2678 C 0.41427 0.93939 0.95742 0.0
C2679 C 0.40006 0.92113 0.95757 0.0
C2680 C 0.43806 0.87482 0.95252 0.0
C2681 C 0.37843 0.83081 0.95858 0.0
C2682 C 0.39279 0.85023 0.95869 0.0
C2683 C 0.43095 0.90682 0.95835 0.0
C2684 C 0.41688 0.88749 0.95831 0.0
H2685 H 0.28399 0.80594 0.95978 0.0
H2686 H 0.30887 0.83729 0.9602 0.0
H2687 H 0.44211 0.84704 0.94796 0.0
H2688 H 0.52511 0.93172 0.95975 0.0
H2689 H 0.50026 0.90018 0.9599 0.0
C2690 C 0.41313 0.79918 0.83289 0.0
C2691 C 0.45792 0.79489 0.83161 0.0
C2692 C 0.39918 0.81747 0.83273 0.0
C2693 C 0.43605 0.86408 0.82562 0.0
H2694 H 0.34747 0.88009 0.84313 0.0
C2695 C 0.39473 0.94044 0.83327 0.0
C2696 C 0.34941 0.94447 0.83273 0.0
C2697 C 0.4091 0.9222 0.83303 0.0
C2698 C 0.37224 0.87575 0.83821 0.0
H2699 H 0.52322 0.80639 0.82922 0.0
H2700 H 0.49926 0.83789 0.82921 0.0
H2701 H 0.36863 0.84787 0.84262 0.0
H2702 H 0.28368 0.9326 0.83164 0.0
H2703 H 0.3088 0.9011 0.83134 0.0
H2704 H 0.44012 0.89215 0.82138 0.0
C2705 C 0.47454 0.8273 0.83006 0.0
C2706 C 0.38405 0.8573 0.83785 0.0
C2707 C 0.48831 0.80915 0.83013 0.0
C2708 C 0.31889 0.93002 0.832 0.0
C2709 C 0.33314 0.91193 0.8319 0.0
C2710 C 0.42462 0.88257 0.82607 0.0
C2711 C 0.42987 0.83173 0.83137 0.0
C2712 C 0.41606 0.85123 0.83154 0.0
C2713 C 0.37825 0.90784 0.83244 0.0
C2714 C 0.39248 0.88852 0.83234 0.0
H2715 H 0.38898 0.78848 0.83404 0.0
H2716 H 0.36439 0.82042 0.83365 0.0
H2717 H 0.46028 0.85984 0.82057 0.0
H2718 H 0.41893 0.9513 0.83384 0.0
H2719 H 0.44414 0.91929 0.83347 0.0
C2720 C 0.71044 0.49963 0.07624 0.0
C2721 C 0.73679 0.49468 0.08382 0.0
C2722 C 0.66436 0.49839 0.07669 0.0
C2723 C 0.57185 0.49665 0.09333 0.0
H2724 H 0.50465 0.47983 0.07224 0.0
C2725 C 0.38408 0.48205 0.09519 0.0
C2726 C 0.35786 0.48723 0.08762 0.0
C2727 C 0.43019 0.48313 0.09475 0.0
C2728 C 0.52286 0.48477 0.07816 0.0
H2729 H 0.73505 0.48412 0.09777 0.0
H2730 H 0.65466 0.48192 0.09855 0.0
H2731 H 0.5851 0.48086 0.07143 0.0
H2732 H 0.35992 0.498 0.07372 0.0
H2733 H 0.44035 0.49986 0.07295 0.0
H2734 H 0.5096 0.50055 0.10006 0.0
C2735 C 0.66968 0.48704 0.09229 0.0
C2736 C 0.56904 0.48534 0.0777 0.0
C2737 C 0.71581 0.48828 0.09184 0.0
C2738 C 0.37903 0.49366 0.07963 0.0
C2739 C 0.42519 0.49471 0.07919 0.0
C2740 C 0.52567 0.49607 0.0938 0.0
C2741 C 0.64334 0.49217 0.08474 0.0
C2742 C 0.59415 0.49131 0.08527 0.0
C2743 C 0.45137 0.48938 0.08673 0.0
C2744 C 0.50056 0.49013 0.08621 0.0
H2745 H 0.72535 0.50494 0.07001 0.0
H2746 H 0.64516 0.50273 0.07079 0.0
H2747 H 0.59004 0.50161 0.09925 0.0
H2748 H 0.36904 0.47671 0.1014 0.0
H2749 H 0.44929 0.47864 0.10064 0.0
C2750 C 0.59089 0.73742 0.09006 0.0
C2751 C 0.56794 0.74587 0.08278 0.0
C2752 C 0.63702 0.73835 0.09057 0.0
C2753 C 0.73405 0.76436 0.08206 0.0
H2754 H 0.79856 0.72044 0.08877 0.0
C2755 C 0.9245 0.75995 0.0792 0.0
C2756 C 0.94725 0.75125 0.08643 0.0
C2757 C 0.87836 0.75909 0.07864 0.0
C2758 C 0.78109 0.73289 0.08698 0.0
H2759 H 0.57568 0.76237 0.07048 0.0
H2760 H 0.65615 0.76385 0.07132 0.0
H2761 H 0.71805 0.7198 0.08821 0.0
H2762 H 0.9391 0.73437 0.0986 0.0
H2763 H 0.8587 0.73308 0.0977 0.0
H2764 H 0.79708 0.77747 0.08085 0.0
C2765 C 0.63844 0.75656 0.07666 0.0
C2766 C 0.73486 0.73253 0.08667 0.0
C2767 C 0.5923 0.75557 0.07613 0.0
C2768 C 0.92267 0.74139 0.09299 0.0
C2769 C 0.87654 0.74049 0.09242 0.0
C2770 C 0.78029 0.76473 0.08238 0.0
C2771 C 0.66145 0.7478 0.08384 0.0
C2772 C 0.71072 0.74826 0.08422 0.0
C2773 C 0.85372 0.74946 0.08528 0.0
C2774 C 0.80444 0.749 0.08485 0.0
H2775 H 0.57328 0.72966 0.09525 0.0
H2776 H 0.65358 0.73164 0.09626 0.0
H2777 H 0.71655 0.7768 0.08027 0.0
H2778 H 0.94226 0.76783 0.07409 0.0
H2779 H 0.86198 0.76596 0.07299 0.0
C2780 C 0.71892 0.73739 0.19917 0.0
C2781 C 0.74191 0.74558 0.20651 0.0
C2782 C 0.67278 0.73833 0.19869 0.0
C2783 C 0.57574 0.76402 0.20743 0.0
H2784 H 0.5113 0.72034 0.20035 0.0
C2785 C 0.38521 0.75955 0.21016 0.0
C2786 C 0.36256 0.75108 0.20285 0.0
C2787 C 0.43135 0.75866 0.21074 0.0
C2788 C 0.52875 0.73273 0.20224 0.0
H2789 H 0.73422 0.76164 0.21896 0.0
H2790 H 0.65373 0.76313 0.21816 0.0
H2791 H 0.59181 0.71968 0.20091 0.0
H2792 H 0.37091 0.73458 0.19057 0.0
H2793 H 0.45128 0.73326 0.1915 0.0
H2794 H 0.51269 0.77708 0.20875 0.0
C2795 C 0.67142 0.75604 0.21275 0.0
C2796 C 0.57498 0.73235 0.20256 0.0
C2797 C 0.71757 0.75504 0.21326 0.0
C2798 C 0.38724 0.74142 0.19624 0.0
C2799 C 0.43337 0.7405 0.19683 0.0
C2800 C 0.5295 0.7644 0.20711 0.0
C2801 C 0.64838 0.74753 0.20551 0.0
C2802 C 0.5991 0.748 0.20514 0.0
C2803 C 0.45609 0.74924 0.20405 0.0
C2804 C 0.50537 0.74876 0.2045 0.0
H2805 H 0.7365 0.72983 0.19391 0.0
H2806 H 0.6562 0.73182 0.19295 0.0
H2807 H 0.59322 0.77639 0.20934 0.0
H2808 H 0.36737 0.76727 0.21532 0.0
H2809 H 0.44764 0.76536 0.21646 0.0
C2810 C 0.9242 0.48192 0.1953 0.0
C2811 C 0.95039 0.48697 0.20289 0.0
C2812 C 0.8781 0.48301 0.19573 0.0
C2813 C 0.78628 0.50466 0.20867 0.0
H2814 H 0.71655 0.46555 0.19795 0.0
C2815 C 0.59771 0.49935 0.21434 0.0
C2816 C 0.57144 0.49448 0.20673 0.0
C2817 C 0.64381 0.49822 0.21389 0.0
C2818 C 0.73548 0.47669 0.20089 0.0
H2819 H 0.94829 0.49747 0.21684 0.0
H2820 H 0.86787 0.49907 0.21765 0.0
H2821 H 0.79696 0.46429 0.1971 0.0
H2822 H 0.57335 0.48422 0.19273 0.0
H2823 H 0.65379 0.4825 0.19189 0.0
H2824 H 0.7248 0.51704 0.21247 0.0
C2825 C 0.88305 0.49441 0.21132 0.0
C2826 C 0.78165 0.47598 0.2004 0.0
C2827 C 0.9292 0.49331 0.21089 0.0
C2828 C 0.59252 0.48823 0.19869 0.0
C2829 C 0.63867 0.48707 0.19825 0.0
C2830 C 0.74013 0.50536 0.20916 0.0
C2831 C 0.85687 0.48917 0.20376 0.0
C2832 C 0.80767 0.48996 0.20428 0.0
C2833 C 0.66492 0.49217 0.20582 0.0
C2834 C 0.71411 0.49138 0.20529 0.0
H2835 H 0.93927 0.47674 0.18906 0.0
H2836 H 0.85907 0.47907 0.18973 0.0
H2837 H 0.80519 0.51581 0.21161 0.0
H2838 H 0.58272 0.50444 0.2206 0.0
H2839 H 0.66291 0.50204 0.21989 0.0
C2840 C 0.67367 0.4906 0.94682 0.0
C2841 C 0.69819 0.50068 0.95329 0.0
C2842 C 0.62754 0.48966 0.94739 0.0
C2843 C 0.53111 0.51408 0.95724 0.0
H2844 H 0.4692 0.4689 0.95176 0.0
C2845 C 0.34312 0.50495 0.96351 0.0
C2846 C 0.31885 0.49501 0.95693 0.0
C2847 C 0.38927 0.50595 0.96299 0.0
C2848 C 0.48591 0.4817 0.95321 0.0
H2849 H 0.69309 0.51763 0.9655 0.0
H2850 H 0.61282 0.5157 0.96662 0.0
H2851 H 0.5497 0.46962 0.95121 0.0
H2852 H 0.32436 0.4784 0.94462 0.0
H2853 H 0.40466 0.48039 0.94363 0.0
H2854 H 0.46729 0.52614 0.95925 0.0
C2855 C 0.62924 0.50867 0.96102 0.0
C2856 C 0.53214 0.48211 0.9529 0.0
C2857 C 0.67538 0.50958 0.96045 0.0
C2858 C 0.34189 0.48633 0.94975 0.0
C2859 C 0.38804 0.48727 0.94925 0.0
C2860 C 0.48488 0.51366 0.95755 0.0
C2861 C 0.60466 0.49882 0.95446 0.0
C2862 C 0.55538 0.49831 0.9549 0.0
C2863 C 0.41238 0.49697 0.9559 0.0
C2864 C 0.46165 0.49747 0.95553 0.0
H2865 H 0.69013 0.48343 0.94126 0.0
H2866 H 0.60975 0.48206 0.94218 0.0
H2867 H 0.54782 0.52688 0.95867 0.0
H2868 H 0.32644 0.51194 0.96909 0.0
H2869 H 0.40691 0.51343 0.96827 0.0
C2870 C 0.46249 0.25277 0.96407 0.0
C2871 C 0.48956 0.24314 0.95785 0.0
C2872 C 0.41644 0.25158 0.96352 0.0
C2873 C 0.32558 0.22315 0.9541 0.0
H2874 H 0.25605 0.26722 0.95762 0.0
C2875 C 0.13826 0.22559 0.94639 0.0
C2876 C 0.111 0.23535 0.95251 0.0
C2877 C 0.1843 0.22652 0.94711 0.0
C2878 C 0.2749 0.25473 0.95672 0.0
H2879 H 0.48904 0.22445 0.94626 0.0
H2880 H 0.40866 0.22261 0.94519 0.0
H2881 H 0.33634 0.26869 0.95873 0.0
H2882 H 0.11114 0.2539 0.96417 0.0
H2883 H 0.19148 0.25528 0.96552 0.0
H2884 H 0.26412 0.20919 0.95207 0.0
C2885 C 0.42314 0.23097 0.95056 0.0
C2886 C 0.321 0.25558 0.95736 0.0
C2887 C 0.46927 0.23217 0.95111 0.0
C2888 C 0.13106 0.2461 0.95937 0.0
C2889 C 0.17717 0.24704 0.96009 0.0
C2890 C 0.27947 0.2223 0.95346 0.0
C2891 C 0.39612 0.24074 0.95673 0.0
C2892 C 0.34697 0.2398 0.95605 0.0
C2893 C 0.20439 0.23722 0.95398 0.0
C2894 C 0.25351 0.23809 0.95475 0.0
H2895 H 0.47684 0.26156 0.96927 0.0
H2896 H 0.39675 0.25911 0.96846 0.0
H2897 H 0.34444 0.21067 0.95319 0.0
H2898 H 0.12405 0.21697 0.9411 0.0
H2899 H 0.20416 0.21894 0.94222 0.0
C2900 C 0.67029 0.22905 0.8443 0.0
C2901 C 0.69708 0.23686 0.83743 0.0
C2902 C 0.62421 0.22992 0.8437 0.0
C2903 C 0.53312 0.23657 0.82703 0.0
H2904 H 0.46342 0.2458 0.84894 0.0
C2905 C 0.3453 0.25116 0.82563 0.0
C2906 C 0.31844 0.24352 0.83254 0.0
C2907 C 0.39136 0.24995 0.82615 0.0
C2908 C 0.48233 0.24298 0.84277 0.0
H2909 H 0.69606 0.25199 0.82458 0.0
H2910 H 0.61563 0.25351 0.82353 0.0
H2911 H 0.54379 0.24491 0.85001 0.0
H2912 H 0.3193 0.22822 0.84533 0.0
H2913 H 0.39968 0.22612 0.84626 0.0
H2914 H 0.47164 0.23467 0.81979 0.0
C2915 C 0.63036 0.24648 0.82933 0.0
C2916 C 0.52846 0.24249 0.84339 0.0
C2917 C 0.6765 0.24563 0.82994 0.0
C2918 C 0.33892 0.23448 0.83995 0.0
C2919 C 0.38503 0.23329 0.84049 0.0
C2920 C 0.48698 0.23706 0.82642 0.0
C2921 C 0.60362 0.2386 0.8362 0.0
C2922 C 0.55447 0.23928 0.83552 0.0
C2923 C 0.41185 0.2411 0.83361 0.0
C2924 C 0.46098 0.24028 0.83428 0.0
H2925 H 0.68489 0.22187 0.85007 0.0
H2926 H 0.60471 0.22344 0.84903 0.0
H2927 H 0.55205 0.23376 0.82087 0.0
H2928 H 0.33081 0.25853 0.8199 0.0
H2929 H 0.41095 0.25636 0.82081 0.0
C2930 C 0.13565 0.50637 0.84512 0.0
C2931 C 0.10965 0.50221 0.83736 0.0
C2932 C 0.18177 0.50533 0.8447 0.0
C2933 C 0.27389 0.48523 0.83123 0.0
H2934 H 0.34335 0.523 0.84318 0.0
C2935 C 0.46266 0.49105 0.82601 0.0
C2936 C 0.48863 0.49491 0.8338 0.0
C2937 C 0.41656 0.49223 0.82641 0.0
C2938 C 0.32449 0.51223 0.83989 0.0
H2939 H 0.11208 0.49335 0.82313 0.0
H2940 H 0.19252 0.49185 0.82235 0.0
H2941 H 0.26291 0.52417 0.84397 0.0
H2942 H 0.48622 0.50343 0.84809 0.0
H2943 H 0.40576 0.50524 0.84883 0.0
H2944 H 0.33547 0.47331 0.82714 0.0
C2945 C 0.17719 0.49576 0.82879 0.0
C2946 C 0.27831 0.51289 0.84035 0.0
C2947 C 0.13103 0.49681 0.82921 0.0
C2948 C 0.46726 0.50021 0.84198 0.0
C2949 C 0.42112 0.50142 0.84237 0.0
C2950 C 0.32005 0.48458 0.83077 0.0
C2951 C 0.20318 0.50011 0.83652 0.0
C2952 C 0.25239 0.49939 0.83603 0.0
C2953 C 0.39516 0.49731 0.83461 0.0
C2954 C 0.34597 0.49808 0.83509 0.0
H2955 H 0.12043 0.51081 0.85148 0.0
H2956 H 0.20066 0.50856 0.85082 0.0
H2957 H 0.25505 0.47445 0.82795 0.0
H2958 H 0.47789 0.48671 0.81963 0.0
H2959 H 0.39768 0.48919 0.82026 0.0
C2960 C 0.3803 -0.00296 0.58127 0.0
C2961 C 0.36005 0.98653 0.5882 0.0
C2962 C 0.42642 -0.0019 0.58065 0.0
C2963 C 0.52874 0.97392 0.58778 0.0
H2964 H 0.5853 0.0201 0.58192 0.0
C2965 C 0.71849 0.9841 0.59006 0.0
C2966 C 0.73876 -0.00528 0.58317 0.0
C2967 C 0.67236 0.9829 0.59062 0.0
C2968 C 0.57006 0.00704 0.58346 0.0
H2969 H 0.37284 0.96874 0.59987 0.0
H2970 H 0.45296 0.97094 0.59892 0.0
H2971 H 0.505 0.01856 0.58298 0.0
H2972 H 0.72599 0.01255 0.57151 0.0
H2973 H 0.6459 0.01011 0.57236 0.0
H2974 H 0.5938 0.9624 0.58826 0.0
C2975 C 0.43323 0.97823 0.5939 0.0
C2976 C 0.52394 0.00615 0.58407 0.0
C2977 C 0.38717 0.97717 0.59452 0.0
C2978 C 0.71166 0.00403 0.57684 0.0
C2979 C 0.66561 0.00284 0.5774 0.0
C2980 C 0.57486 0.9748 0.58717 0.0
C2981 C 0.4535 0.98865 0.58694 0.0
C2982 C 0.50265 0.98959 0.58624 0.0
C2983 C 0.64531 0.99234 0.58432 0.0
C2984 C 0.59615 0.99137 0.585 0.0
H2985 H 0.3605 0.00454 0.57633 0.0
H2986 H 0.44087 0.00613 0.57515 0.0
H2987 H 0.51348 0.96086 0.58932 0.0
H2988 H 0.73827 0.97663 0.59501 0.0
H2989 H 0.6579 0.97481 0.5961 0.0
C2990 C 0.59451 0.25496 0.57739 0.0
C2991 C 0.57049 0.24449 0.5838 0.0
C2992 C 0.64065 0.25607 0.57791 0.0
C2993 C 0.73795 0.23153 0.58727 0.0
H2994 H 0.79879 0.27724 0.5824 0.0
C2995 C 0.92597 0.24067 0.5934 0.0
C2996 C 0.94993 0.25116 0.587 0.0
C2997 C 0.87981 0.23964 0.59294 0.0
C2998 C 0.78238 0.2643 0.58367 0.0
H2999 H 0.57645 0.22703 0.59581 0.0
H3000 H 0.65672 0.22922 0.59681 0.0
H3001 H 0.71827 0.27625 0.58192 0.0
H3002 H 0.94378 0.26878 0.57504 0.0
H3003 H 0.86349 0.2667 0.57412 0.0
H3004 H 0.80206 0.21957 0.58901 0.0
C3005 C 0.63991 0.23644 0.59132 0.0
C3006 C 0.73615 0.26374 0.5834 0.0
C3007 C 0.59378 0.23538 0.59082 0.0
C3008 C 0.92652 0.2604 0.58003 0.0
C3009 C 0.88036 0.25941 0.57958 0.0
C3010 C 0.78419 0.23208 0.58753 0.0
C3011 C 0.66401 0.24669 0.58484 0.0
C3012 C 0.71329 0.24735 0.5852 0.0
C3013 C 0.85635 0.24912 0.58606 0.0
C3014 C 0.80705 0.24848 0.58573 0.0
H3015 H 0.57765 0.2623 0.57195 0.0
H3016 H 0.65807 0.26398 0.57276 0.0
H3017 H 0.72154 0.21859 0.58853 0.0
H3018 H 0.94291 0.23324 0.59881 0.0
H3019 H 0.86246 0.2317 0.59809 0.0
C3020 C 0.71106 0.23973 0.71397 0.0
C3021 C 0.73746 0.24492 0.70644 0.0
C3022 C 0.66498 0.24098 0.71352 0.0
C3023 C 0.57259 0.2432 0.69686 0.0
H3024 H 0.50518 0.25936 0.71805 0.0
C3025 C 0.38476 0.25773 0.69504 0.0
C3026 C 0.35851 0.25233 0.70256 0.0
C3027 C 0.43087 0.25668 0.69548 0.0
C3028 C 0.52344 0.25461 0.7121 0.0
H3029 H 0.73578 0.25594 0.69258 0.0
H3030 H 0.65539 0.25814 0.69179 0.0
H3031 H 0.58562 0.25834 0.71889 0.0
H3032 H 0.36051 0.24119 0.71639 0.0
H3033 H 0.44094 0.23936 0.71717 0.0
H3034 H 0.51041 0.23948 0.69008 0.0
C3035 C 0.67038 0.25282 0.69801 0.0
C3036 C 0.56962 0.25404 0.71258 0.0
C3037 C 0.71651 0.25158 0.69846 0.0
C3038 C 0.37965 0.2457 0.71051 0.0
C3039 C 0.42581 0.24467 0.71097 0.0
C3040 C 0.52641 0.24378 0.69638 0.0
C3041 C 0.644 0.24745 0.70551 0.0
C3042 C 0.59481 0.24832 0.70497 0.0
C3043 C 0.45203 0.25022 0.70347 0.0
C3044 C 0.50122 0.24948 0.704 0.0
H3045 H 0.72593 0.23422 0.72016 0.0
H3046 H 0.64575 0.23645 0.71938 0.0
H3047 H 0.59084 0.23843 0.69091 0.0
H3048 H 0.36974 0.26323 0.68886 0.0
H3049 H 0.44999 0.26134 0.68963 0.0
C3050 C 0.92745 -0.00357 0.7105 0.0
C3051 C 0.94778 0.98712 0.70316 0.0
C3052 C 0.88132 -0.00268 0.71116 0.0
C3053 C 0.77938 0.97417 0.70308 0.0
H3054 H 0.72222 0.01918 0.71071 0.0
C3055 C 0.58977 0.98456 0.70094 0.0
C3056 C 0.56919 0.99403 0.70819 0.0
C3057 C 0.6359 0.98344 0.70042 0.0
C3058 C 0.73764 0.00643 0.70868 0.0
H3059 H 0.9352 0.97129 0.6908 0.0
H3060 H 0.85506 0.9732 0.69183 0.0
H3061 H 0.80255 0.01796 0.70963 0.0
H3062 H 0.58136 0.00985 0.72058 0.0
H3063 H 0.6615 0.00753 0.7198 0.0
H3064 H 0.71447 0.96265 0.70211 0.0
C3065 C 0.87473 0.97967 0.69714 0.0
C3066 C 0.78376 0.00573 0.70806 0.0
C3067 C 0.92078 0.97879 0.69648 0.0
C3068 C 0.59595 0.00223 0.71496 0.0
C3069 C 0.64202 0.00112 0.71444 0.0
C3070 C 0.73326 0.97487 0.7037 0.0
C3071 C 0.85436 0.98888 0.7045 0.0
C3072 C 0.80524 0.9896 0.70524 0.0
C3073 C 0.66263 0.99181 0.70714 0.0
C3074 C 0.71178 0.99101 0.7065 0.0
H3075 H 0.94717 0.00312 0.71574 0.0
H3076 H 0.86679 0.00439 0.71697 0.0
H3077 H 0.79482 0.96142 0.70103 0.0
H3078 H 0.57022 0.97795 0.69565 0.0
H3079 H 0.65063 0.97629 0.69466 0.0
C3080 C 0.67696 0.99146 0.45941 0.0
C3081 C 0.69687 0.00326 0.45298 0.0
C3082 C 0.63085 0.99044 0.46015 0.0
C3083 C 0.5284 0.0162 0.45466 0.0
H3084 H 0.47154 0.96913 0.45808 0.0
C3085 C 0.33839 0.00693 0.45224 0.0
C3086 C 0.3183 -0.0051 0.45854 0.0
C3087 C 0.38451 0.00815 0.45165 0.0
C3088 C 0.48687 0.98242 0.45724 0.0
H3089 H 0.68355 0.02344 0.44237 0.0
H3090 H 0.60347 0.02137 0.44352 0.0
H3091 H 0.5518 0.97076 0.45695 0.0
H3092 H 0.3314 0.97459 0.46911 0.0
H3093 H 0.41146 0.97704 0.46823 0.0
H3094 H 0.46346 0.02787 0.45495 0.0
C3095 C 0.62344 0.01301 0.44806 0.0
C3096 C 0.53297 0.98335 0.45659 0.0
C3097 C 0.66945 0.01401 0.44731 0.0
C3098 C 0.34559 0.98419 0.46426 0.0
C3099 C 0.39162 0.98541 0.46366 0.0
C3100 C 0.4823 0.01527 0.45532 0.0
C3101 C 0.60348 0.00123 0.45449 0.0
C3102 C 0.55436 0.00025 0.45528 0.0
C3103 C 0.41175 -0.00266 0.45733 0.0
C3104 C 0.4609 -0.00163 0.45661 0.0
H3105 H 0.69699 0.98289 0.46384 0.0
H3106 H 0.61666 0.98135 0.46524 0.0
H3107 H 0.54375 0.02949 0.4538 0.0
H3108 H 0.31847 0.01548 0.44778 0.0
H3109 H 0.39882 0.01737 0.44662 0.0
C3110 C 0.46216 0.75213 0.46389 0.0
C3111 C 0.48926 0.74351 0.45732 0.0
C3112 C 0.41612 0.75091 0.46331 0.0
C3113 C 0.32565 0.74169 0.44685 0.0
H3114 H 0.25531 0.73555 0.46895 0.0
C3115 C 0.13769 0.72771 0.44558 0.0
C3116 C 0.11073 0.73648 0.45213 0.0
C3117 C 0.18374 0.72861 0.44622 0.0
C3118 C 0.27441 0.73749 0.46272 0.0
H3119 H 0.48885 0.72653 0.44507 0.0
H3120 H 0.40848 0.72442 0.44407 0.0
H3121 H 0.33568 0.73658 0.47008 0.0
H3122 H 0.11143 0.75332 0.46442 0.0
H3123 H 0.19185 0.75489 0.46552 0.0
H3124 H 0.2644 0.74262 0.43949 0.0
C3125 C 0.42293 0.73234 0.4496 0.0
C3126 C 0.32054 0.73806 0.46337 0.0
C3127 C 0.46904 0.73354 0.45018 0.0
C3128 C 0.13112 0.74622 0.45932 0.0
C3129 C 0.17726 0.7471 0.45996 0.0
C3130 C 0.27953 0.74112 0.4462 0.0
C3131 C 0.39588 0.74108 0.45614 0.0
C3132 C 0.34676 0.74018 0.45544 0.0
C3133 C 0.20416 0.73828 0.45342 0.0
C3134 C 0.2533 0.73902 0.45413 0.0
H3135 H 0.47646 0.76023 0.46937 0.0
H3136 H 0.39636 0.75806 0.46838 0.0
H3137 H 0.34474 0.74364 0.44062 0.0
H3138 H 0.12322 0.71977 0.44005 0.0
H3139 H 0.20337 0.72139 0.44115 0.0
C3140 C 0.34244 0.74169 0.3423 0.0
C3141 C 0.32022 0.74377 0.33386 0.0
C3142 C 0.38858 0.74039 0.34259 0.0
C3143 C 0.4885 0.75195 0.32911 0.0
H3144 H 0.54664 0.71815 0.34576 0.0
C3145 C 0.67719 0.7387 0.32802 0.0
C3146 C 0.69939 0.73642 0.33645 0.0
C3147 C 0.63103 0.7398 0.32771 0.0
C3148 C 0.53097 0.72783 0.34115 0.0
H3149 H 0.32936 0.74607 0.3191 0.0
H3150 H 0.40965 0.74348 0.31959 0.0
H3151 H 0.46614 0.7192 0.34517 0.0
H3152 H 0.69008 0.73356 0.35119 0.0
H3153 H 0.6098 0.73591 0.35067 0.0
H3154 H 0.55329 0.76063 0.3251 0.0
C3155 C 0.39142 0.74302 0.326 0.0
C3156 C 0.48477 0.72841 0.34081 0.0
C3157 C 0.34529 0.74427 0.32571 0.0
C3158 C 0.67421 0.73552 0.34458 0.0
C3159 C 0.62806 0.73662 0.34427 0.0
C3160 C 0.5347 0.75138 0.32946 0.0
C3161 C 0.4137 0.74121 0.33445 0.0
C3162 C 0.46292 0.74047 0.33478 0.0
C3163 C 0.60582 0.73864 0.33583 0.0
C3164 C 0.55657 0.73932 0.33548 0.0
H3165 H 0.32416 0.74109 0.3487 0.0
H3166 H 0.40463 0.73914 0.34922 0.0
H3167 H 0.47281 0.76162 0.3245 0.0
H3168 H 0.69551 0.73961 0.32163 0.0
H3169 H 0.61506 0.74121 0.32108 0.0
C3170 C 0.13462 0.00931 0.33 0.0
C3171 C 0.11198 0.00063 0.33725 0.0
C3172 C 0.18076 0.00843 0.32941 0.0
C3173 C 0.27814 0.98226 0.33773 0.0
H3174 H 0.34262 0.02614 0.33098 0.0
C3175 C 0.46826 0.98686 0.34089 0.0
C3176 C 0.49129 -0.00473 0.33362 0.0
C3177 C 0.42212 0.98778 0.34137 0.0
C3178 C 0.32513 0.01371 0.33278 0.0
H3179 H 0.1203 0.98379 0.34942 0.0
H3180 H 0.20068 0.98248 0.34848 0.0
H3181 H 0.26208 0.0268 0.33155 0.0
H3182 H 0.48367 0.01168 0.32128 0.0
H3183 H 0.40318 0.01313 0.32206 0.0
H3184 H 0.3412 0.96918 0.33899 0.0
C3185 C 0.18277 0.98988 0.3432 0.0
C3186 C 0.27889 0.01408 0.3331 0.0
C3187 C 0.13665 0.99079 0.3438 0.0
C3188 C 0.467 0.00491 0.32693 0.0
C3189 C 0.42084 0.00588 0.32743 0.0
C3190 C 0.32437 0.98189 0.33743 0.0
C3191 C 0.20549 -0.00117 0.33604 0.0
C3192 C 0.25476 -0.00164 0.33559 0.0
C3193 C 0.39776 -0.00283 0.33461 0.0
C3194 C 0.34849 -0.00238 0.33496 0.0
H3195 H 0.11679 0.01718 0.32488 0.0
H3196 H 0.19706 0.01529 0.32374 0.0
H3197 H 0.26069 0.96981 0.33953 0.0
H3198 H 0.48581 0.97915 0.34611 0.0
H3199 H 0.4055 0.9811 0.34706 0.0
C3200 C 0.22034 0.48223 0.58867 0.0
C3201 C 0.24053 0.49363 0.58209 0.0
C3202 C 0.17421 0.48103 0.58924 0.0
C3203 C 0.07196 0.50613 0.58292 0.0
H3204 H 1.01507 0.45945 0.58752 0.0
C3205 C 0.88193 0.49684 0.5809 0.0
C3206 C 0.86196 0.48568 0.58761 0.0
C3207 C 0.92804 0.49781 0.58017 0.0
C3208 C 0.03043 0.47264 0.58634 0.0
H3209 H 0.22762 0.51282 0.571 0.0
H3210 H 0.14754 0.51039 0.57185 0.0
H3211 H 0.09537 0.46097 0.58637 0.0
H3212 H 0.87519 0.46657 0.59872 0.0
H3213 H 0.95528 0.46858 0.59757 0.0
H3214 H 1.00703 0.5178 0.5829 0.0
C3215 C 0.16731 0.50251 0.57664 0.0
C3216 C 0.07653 0.47351 0.58568 0.0
C3217 C 0.21335 0.5037 0.57607 0.0
C3218 C 0.88932 0.47552 0.59355 0.0
C3219 C 0.93534 0.47647 0.59281 0.0
C3220 C 1.02586 0.50526 0.58358 0.0
C3221 C 0.14708 0.49123 0.58326 0.0
C3222 C 0.09793 0.49026 0.58396 0.0
C3223 C 0.95535 0.4876 0.5861 0.0
C3224 C 1.00447 0.48851 0.58531 0.0
H3225 H 0.24018 0.47416 0.59336 0.0
H3226 H 0.15982 0.47233 0.59448 0.0
H3227 H 0.0873 0.51932 0.58175 0.0
H3228 H 0.86194 0.50495 0.57625 0.0
H3229 H 0.94227 0.50639 0.57486 0.0
C3230 C 0.42852 0.74125 0.58083 0.0
C3231 C 0.44852 0.75263 0.58744 0.0
C3232 C 0.38241 0.74024 0.58012 0.0
C3233 C 0.28007 0.7656 0.58611 0.0
H3234 H 0.22318 0.71877 0.58193 0.0
C3235 C 0.09015 0.75611 0.58849 0.0
C3236 C 0.07 0.74456 0.58198 0.0
C3237 C 0.13627 0.7573 0.58908 0.0
C3238 C 0.23853 0.732 0.58299 0.0
H3239 H 0.43537 0.77208 0.59839 0.0
H3240 H 0.35528 0.77002 0.59729 0.0
H3241 H 0.30346 0.72033 0.58305 0.0
H3242 H 0.08295 0.72504 0.57104 0.0
H3243 H 0.16303 0.72743 0.57193 0.0
H3244 H 0.21512 0.77726 0.58605 0.0
C3245 C 0.37518 0.76198 0.59259 0.0
C3246 C 0.28463 0.73289 0.58363 0.0
C3247 C 0.4212 0.76297 0.59331 0.0
C3248 C 0.0972 0.73428 0.57606 0.0
C3249 C 0.14324 0.73546 0.57665 0.0
C3250 C 0.23396 0.76471 0.58546 0.0
C3251 C 0.35514 0.75064 0.58598 0.0
C3252 C 0.30602 0.7497 0.58521 0.0
C3253 C 0.16342 0.74691 0.58319 0.0
C3254 C 0.21256 0.7479 0.5839 0.0
H3255 H 0.44848 0.733 0.57624 0.0
H3256 H 0.36814 0.7315 0.57489 0.0
H3257 H 0.29542 0.77882 0.58718 0.0
H3258 H 0.07028 0.76433 0.59311 0.0
H3259 H 0.15065 0.76614 0.59426 0.0
C3260 C 0.88654 0.76133 0.69533 0.0
C3261 C 0.85961 0.75266 0.70191 0.0
C3262 C 0.93262 0.76025 0.69589 0.0
C3263 C 1.0235 0.73319 0.70628 0.0
H3264 H 0.0935 0.77638 0.70091 0.0
C3265 C 0.21134 0.73586 0.7133 0.0
C3266 C 0.23837 0.74446 0.70671 0.0
C3267 C 0.16529 0.73704 0.71274 0.0
C3268 C 0.07451 0.76413 0.70233 0.0
H3269 H 0.8604 0.73584 0.71422 0.0
H3270 H 0.94078 0.73422 0.7153 0.0
H3271 H 1.01316 0.77792 0.69989 0.0
H3272 H 0.23776 0.76129 0.69441 0.0
H3273 H 0.15737 0.76308 0.69333 0.0
H3274 H 0.08484 0.7194 0.70871 0.0
C3275 C 0.92619 0.74171 0.70963 0.0
C3276 C 1.02838 0.76501 0.70175 0.0
C3277 C 0.88005 0.7428 0.70906 0.0
C3278 C 0.21803 0.75437 0.69956 0.0
C3279 C 0.1719 0.75556 0.699 0.0
C3280 C 0.06962 0.73232 0.70686 0.0
C3281 C 0.95309 0.75049 0.70307 0.0
C3282 C 1.00225 0.74955 0.70371 0.0
C3283 C 0.14492 0.74682 0.70556 0.0
C3284 C 0.09576 0.74778 0.7049 0.0
H3285 H 0.87206 0.76925 0.68979 0.0
H3286 H 0.95221 0.76699 0.69066 0.0
H3287 H 1.00452 0.72094 0.7077 0.0
H3288 H 0.22573 0.7279 0.71883 0.0
H3289 H 0.14563 0.73033 0.71798 0.0
C3290 C 0.0902 0.50182 0.69969 0.0
C3291 C 0.06724 0.49335 0.70696 0.0
C3292 C 0.13634 0.5009 0.6992 0.0
C3293 C 0.23338 0.47489 0.70771 0.0
H3294 H 0.29782 0.51883 0.70104 0.0
C3295 C 0.42384 0.47929 0.71055 0.0
C3296 C 0.44654 0.488 0.70333 0.0
C3297 C 0.3777 0.48016 0.71112 0.0
C3298 C 0.28037 0.50638 0.70282 0.0
H3299 H 0.07495 0.47682 0.71926 0.0
H3300 H 0.15543 0.47537 0.71844 0.0
H3301 H 0.21731 0.51947 0.70159 0.0
H3302 H 0.43832 0.50491 0.69117 0.0
H3303 H 0.35793 0.50622 0.69209 0.0
H3304 H 0.29643 0.46179 0.70892 0.0
C3305 C 0.13773 0.48267 0.7131 0.0
C3306 C 0.23414 0.50674 0.70312 0.0
C3307 C 0.09158 0.48364 0.71361 0.0
C3308 C 0.42193 0.49789 0.69678 0.0
C3309 C 0.3758 0.49879 0.69736 0.0
C3310 C 0.27962 0.47452 0.70739 0.0
C3311 C 0.16075 0.49144 0.70593 0.0
C3312 C 0.21002 0.49099 0.70556 0.0
C3313 C 0.35302 0.4898 0.7045 0.0
C3314 C 0.30375 0.49026 0.70494 0.0
H3315 H 0.07261 0.50957 0.6945 0.0
H3316 H 0.15292 0.50762 0.69352 0.0
H3317 H 0.21589 0.46244 0.70949 0.0
H3318 H 0.44163 0.47139 0.71566 0.0
H3319 H 0.36135 0.47326 0.71678 0.0
C3320 C 0.84171 0.50379 0.45011 0.0
C3321 C 0.82137 0.49395 0.45727 0.0
C3322 C 0.88784 0.50499 0.44956 0.0
C3323 C 0.99013 0.48183 0.45748 0.0
H3324 H 0.04652 0.52737 0.4504 0.0
C3325 C 0.17972 0.49232 0.45962 0.0
C3326 C 0.2001 0.5021 0.45244 0.0
C3327 C 0.13358 0.49125 0.4602 0.0
C3328 C 0.03132 0.51448 0.45229 0.0
H3329 H 0.834 0.47751 0.46944 0.0
H3330 H 0.9141 0.47994 0.4686 0.0
H3331 H 0.96619 0.52584 0.45143 0.0
H3332 H 0.18755 0.51859 0.44028 0.0
H3333 H 0.10741 0.51636 0.44118 0.0
H3334 H 0.05524 0.47047 0.45834 0.0
C3335 C 0.89444 0.4866 0.46334 0.0
C3336 C 0.98519 0.51361 0.45288 0.0
C3337 C 0.84839 0.48542 0.46389 0.0
C3338 C 0.17311 0.51072 0.44584 0.0
C3339 C 0.12705 0.50966 0.44642 0.0
C3340 C 0.03625 0.48271 0.45689 0.0
C3341 C 0.91482 0.49632 0.45614 0.0
C3342 C 0.96397 0.49728 0.45549 0.0
C3343 C 0.10663 0.49996 0.45363 0.0
C3344 C 0.05747 0.49904 0.45429 0.0
H3345 H 0.82198 0.51066 0.44493 0.0
H3346 H 0.90236 0.51246 0.44387 0.0
H3347 H 0.97493 0.46894 0.45937 0.0
H3348 H 0.19942 0.4854 0.46478 0.0
H3349 H 0.11903 0.48381 0.46589 0.0
C3350 C 0.96435 0.23414 0.46298 0.0
C3351 C 0.98846 0.24392 0.45631 0.0
C3352 C 0.91822 0.233 0.46247 0.0
C3353 C 0.82337 0.23906 0.44648 0.0
H3354 H 0.7557 0.24346 0.46903 0.0
C3355 C 0.63326 0.2475 0.44621 0.0
C3356 C 0.60895 0.23764 0.45281 0.0
C3357 C 0.67941 0.24847 0.44672 0.0
C3358 C 0.77406 0.24202 0.46268 0.0
H3359 H 0.98262 0.26018 0.44388 0.0
H3360 H 0.90233 0.25823 0.44301 0.0
H3361 H 0.83618 0.24425 0.46964 0.0
H3362 H 0.6145 0.22105 0.46515 0.0
H3363 H 0.69483 0.22276 0.46604 0.0
H3364 H 0.76123 0.23686 0.43951 0.0
C3365 C 0.91911 0.25118 0.44856 0.0
C3366 C 0.82029 0.24244 0.46302 0.0
C3367 C 0.96524 0.25229 0.44905 0.0
C3368 C 0.63201 0.22902 0.46002 0.0
C3369 C 0.67817 0.22997 0.46053 0.0
C3370 C 0.77714 0.23865 0.44613 0.0
C3371 C 0.89492 0.24164 0.4553 0.0
C3372 C 0.84561 0.24097 0.45493 0.0
C3373 C 0.70253 0.23959 0.45384 0.0
C3374 C 0.75183 0.24014 0.45422 0.0
H3375 H 0.98118 0.22731 0.46859 0.0
H3376 H 0.90083 0.22525 0.46769 0.0
H3377 H 0.8417 0.2376 0.44012 0.0
H3378 H 0.61658 0.25455 0.44064 0.0
H3379 H 0.69697 0.25628 0.44154 0.0
C3380 C 0.17751 0.22827 0.33008 0.0
C3381 C 0.20065 0.23674 0.33732 0.0
C3382 C 0.13135 0.22926 0.32959 0.0
C3383 C 0.0324 0.23779 0.34404 0.0
H3384 H 0.97342 0.24385 0.32055 0.0
C3385 C 0.84427 0.25166 0.34113 0.0
C3386 C 0.82109 0.24344 0.33382 0.0
C3387 C 0.8904 0.25049 0.34164 0.0
C3388 C 0.98929 0.24191 0.32716 0.0
H3389 H 0.19313 0.25338 0.34958 0.0
H3390 H 0.11274 0.25517 0.34871 0.0
H3391 H 0.05389 0.24297 0.32116 0.0
H3392 H 0.82843 0.227 0.32149 0.0
H3393 H 0.90875 0.22486 0.32241 0.0
H3394 H 0.9678 0.23672 0.35004 0.0
C3395 C 0.13024 0.24746 0.3435 0.0
C3396 C 0.03552 0.24143 0.32751 0.0
C3397 C 0.1764 0.24646 0.34399 0.0
C3398 C 0.84522 0.23373 0.32714 0.0
C3399 C 0.89134 0.23254 0.32766 0.0
C3400 C 0.98616 0.23826 0.34369 0.0
C3401 C 0.10704 0.23876 0.33633 0.0
C3402 C 0.05773 0.23938 0.33596 0.0
C3403 C 0.91463 0.24105 0.33487 0.0
C3404 C 0.96394 0.24033 0.33525 0.0
H3405 H 0.19496 0.22041 0.32491 0.0
H3406 H 0.11464 0.22218 0.32405 0.0
H3407 H 0.04828 0.23587 0.35065 0.0
H3408 H 0.82689 0.25949 0.34632 0.0
H3409 H 0.90717 0.25743 0.34723 0.0
C3410 C 0.96982 0.50641 0.33838 0.0
C3411 C 0.99006 0.49439 0.3321 0.0
C3412 C 0.92369 0.5076 0.33895 0.0
C3413 C 0.82162 0.48175 0.33334 0.0
H3414 H 0.76436 0.52875 0.33676 0.0
C3415 C 0.63142 0.49055 0.33128 0.0
C3416 C 0.61155 0.50231 0.33774 0.0
C3417 C 0.67752 0.48959 0.3305 0.0
C3418 C 0.77982 0.51548 0.3359 0.0
H3419 H 0.97724 0.47406 0.32154 0.0
H3420 H 0.89714 0.47645 0.32237 0.0
H3421 H 0.84465 0.52723 0.33559 0.0
H3422 H 0.62492 0.5225 0.34834 0.0
H3423 H 0.70498 0.52052 0.34712 0.0
H3424 H 0.75679 0.47 0.33366 0.0
C3425 C 0.91688 0.48484 0.32694 0.0
C3426 C 0.82592 0.51461 0.33524 0.0
C3427 C 0.96293 0.48366 0.32637 0.0
C3428 C 0.63899 0.51309 0.34338 0.0
C3429 C 0.68499 0.51214 0.34259 0.0
C3430 C 0.77552 0.48262 0.33401 0.0
C3431 C 0.8966 0.49676 0.33326 0.0
C3432 C 0.84745 0.49773 0.33396 0.0
C3433 C 0.7049 0.50041 0.33614 0.0
C3434 C 0.754 0.49949 0.33531 0.0
H3435 H 0.98963 0.51499 0.34285 0.0
H3436 H 0.90926 0.51681 0.34396 0.0
H3437 H 0.83706 0.46847 0.33251 0.0
H3438 H 0.61137 0.48197 0.32687 0.0
H3439 H 0.69168 0.48052 0.3254 0.0
C3440 C 0.88039 0.99145 0.07911 0.0
C3441 C 0.85881 0.98708 0.0874 0.0
C3442 C 0.92654 0.99253 0.07872 0.0
C3443 C 1.02745 0.97705 0.09093 0.0
H3444 H 0.08479 0.01484 0.07649 0.0
C3445 C 0.21621 0.99014 0.09242 0.0
C3446 C 0.23788 -0.00558 0.08413 0.0
C3447 C 0.17007 0.9889 0.09277 0.0
C3448 C 0.06933 0.00406 0.08047 0.0
H3449 H 0.86924 0.98039 0.10179 0.0
H3450 H 0.94948 0.98269 0.10115 0.0
H3451 H 1.00435 0.01375 0.07724 0.0
H3452 H 0.2277 0.00072 0.06969 0.0
H3453 H 0.14745 -0.00181 0.07026 0.0
H3454 H 0.09245 0.96738 0.09417 0.0
C3455 C 0.93074 0.98508 0.09492 0.0
C3456 C 1.02315 0.00344 0.08091 0.0
C3457 C 0.88461 0.98401 0.09531 0.0
C3458 C 0.21223 -0.00281 0.07617 0.0
C3459 C 0.16611 -0.00401 0.07653 0.0
C3460 C 0.07363 0.97767 0.0905 0.0
C3461 C 0.95235 0.98923 0.0866 0.0
C3462 C 1.00158 0.98993 0.08615 0.0
C3463 C 0.1444 0.99195 0.08484 0.0
C3464 C 0.09518 0.99119 0.08526 0.0
H3465 H 0.86159 0.99406 0.0729 0.0
H3466 H 0.94203 -0.00439 0.07218 0.0
H3467 H 1.012 0.96626 0.09491 0.0
H3468 H 0.23493 0.98776 0.09866 0.0
H3469 H 0.15448 0.98591 0.09931 0.0
C3470 C 0.09116 0.23841 0.09072 0.0
C3471 C 0.06852 0.24604 0.08318 0.0
C3472 C 0.13729 0.23933 0.09126 0.0
C3473 C 0.23489 0.26411 0.08212 0.0
H3474 H 0.29863 0.22087 0.09013 0.0
C3475 C 0.42532 0.25894 0.07954 0.0
C3476 C 0.44782 0.25102 0.08702 0.0
C3477 C 0.37917 0.2581 0.07896 0.0
C3478 C 0.28138 0.23314 0.08797 0.0
H3479 H 0.0768 0.26113 0.07044 0.0
H3480 H 0.15724 0.26257 0.07134 0.0
H3481 H 0.21813 0.22037 0.08954 0.0
H3482 H 0.43921 0.23554 0.09964 0.0
H3483 H 0.35883 0.23433 0.09871 0.0
H3484 H 0.29814 0.27689 0.08056 0.0
C3485 C 0.1393 0.25593 0.07686 0.0
C3486 C 0.23515 0.23286 0.08764 0.0
C3487 C 0.09317 0.25496 0.0763 0.0
C3488 C 0.42299 0.24195 0.09382 0.0
C3489 C 0.37686 0.2411 0.09324 0.0
C3490 C 0.28113 0.2644 0.08245 0.0
C3491 C 0.16201 0.24796 0.0843 0.0
C3492 C 0.21128 0.24835 0.08472 0.0
C3493 C 0.35429 0.2493 0.08584 0.0
C3494 C 0.30501 0.24892 0.08539 0.0
H3495 H 0.07333 0.23128 0.09609 0.0
H3496 H 0.15362 0.23324 0.09715 0.0
H3497 H 0.21761 0.27637 0.07995 0.0
H3498 H 0.44327 0.26619 0.07422 0.0
H3499 H 0.36299 0.26437 0.0731 0.0
C3500 C 0.88931 0.2589 0.19568 0.0
C3501 C 0.86268 0.25194 0.20281 0.0
C3502 C 0.93539 0.25803 0.19625 0.0
C3503 C 1.02686 0.25328 0.21298 0.0
H3504 H 0.09597 0.24143 0.19131 0.0
C3505 C 0.21471 0.23879 0.21458 0.0
C3506 C 0.24135 0.24557 0.20741 0.0
C3507 C 0.16864 0.23998 0.21409 0.0
C3508 C 0.07722 0.24499 0.1974 0.0
H3509 H 0.86397 0.23831 0.21607 0.0
H3510 H 0.94442 0.2368 0.21706 0.0
H3511 H 1.01558 0.24223 0.1903 0.0
H3512 H 0.24012 0.25935 0.19419 0.0
H3513 H 0.15972 0.2614 0.19332 0.0
H3514 H 0.08853 0.25601 0.22008 0.0
C3515 C 0.92956 0.24316 0.21108 0.0
C3516 C 0.03108 0.24543 0.19683 0.0
C3517 C 0.88341 0.24401 0.21051 0.0
C3518 C 0.22066 0.25375 0.19977 0.0
C3519 C 0.17454 0.25492 0.19928 0.0
C3520 C 0.07301 0.25284 0.21355 0.0
C3521 C 0.95614 0.25021 0.20397 0.0
C3522 C 1.00529 0.24958 0.20461 0.0
C3523 C 0.14793 0.24795 0.2064 0.0
C3524 C 0.09879 0.24869 0.20577 0.0
H3525 H 0.87459 0.26544 0.18973 0.0
H3526 H 0.95479 0.26387 0.19071 0.0
H3527 H 1.00809 0.25682 0.21907 0.0
H3528 H 0.22938 0.2321 0.22049 0.0
H3529 H 0.1492 0.23422 0.21964 0.0
C3530 C 0.42761 0.97859 0.21037 0.0
C3531 C 0.45084 0.98719 0.20317 0.0
C3532 C 0.38144 0.97958 0.21083 0.0
C3533 C 0.28491 0.00603 0.20229 0.0
H3534 H 0.21938 0.96243 0.20906 0.0
C3535 C 0.09438 0.00232 0.1993 0.0
C3536 C 0.07134 0.9939 0.20657 0.0
C3537 C 0.14051 0.00122 0.19876 0.0
C3538 C 0.23714 0.97479 0.20725 0.0
H3539 H 0.44347 0.00398 0.19096 0.0
H3540 H 0.36303 0.0055 0.19169 0.0
H3541 H 0.29989 0.96146 0.20854 0.0
H3542 H 0.07895 0.97727 0.21884 0.0
H3543 H 0.15934 0.97553 0.21796 0.0
H3544 H 0.22216 0.01935 0.201 0.0
C3545 C 0.38052 -0.00193 0.19702 0.0
C3546 C 0.28339 0.97424 0.20696 0.0
C3547 C 0.42668 -0.00295 0.19654 0.0
C3548 C 0.09561 0.98407 0.21319 0.0
C3549 C 0.14173 0.98292 0.21264 0.0
C3550 C 0.23867 0.00657 0.20257 0.0
C3551 C 0.35723 0.98922 0.20413 0.0
C3552 C 0.30792 0.98986 0.20448 0.0
C3553 C 0.16485 0.99163 0.20547 0.0
C3554 C 0.21415 0.99096 0.20506 0.0
H3555 H 0.44501 0.97071 0.21554 0.0
H3556 H 0.36472 0.97279 0.21647 0.0
H3557 H 0.30266 0.01839 0.20048 0.0
H3558 H 0.07686 0.01016 0.19413 0.0
H3559 H 0.15712 0.0079 0.19308 0.0
C3560 C 0.84337 0.98636 0.94933 0.0
C3561 C 0.82053 0.99417 0.9568 0.0
C3562 C 0.88951 0.9874 0.94879 0.0
C3563 C 0.98659 0.01283 0.95778 0.0
H3564 H 0.05145 0.96972 0.95 0.0
C3565 C 0.17713 0.00846 0.96054 0.0
C3566 C 0.20002 0.00046 0.95313 0.0
C3567 C 0.13098 0.00748 0.96106 0.0
C3568 C 0.03388 0.98196 0.95209 0.0
H3569 H 0.82852 0.00966 0.96942 0.0
H3570 H 0.90892 0.01129 0.96853 0.0
H3571 H 0.97095 0.96889 0.95057 0.0
H3572 H 0.19205 0.98471 0.94058 0.0
H3573 H 0.11165 0.98323 0.94142 0.0
H3574 H 0.04951 0.0259 0.9593 0.0
C3575 C 0.89114 0.00443 0.96306 0.0
C3576 C 0.98764 0.98148 0.95241 0.0
C3577 C 0.84502 0.00334 0.96361 0.0
C3578 C 0.17554 0.99118 0.94634 0.0
C3579 C 0.12939 0.99018 0.94687 0.0
C3580 C 0.03283 0.0133 0.95746 0.0
C3581 C 0.91406 -0.00368 0.95568 0.0
C3582 C 0.96335 -0.00309 0.95526 0.0
C3583 C 0.10644 -0.00155 0.9542 0.0
C3584 C 0.05713 -0.00213 0.95461 0.0
H3585 H 0.82569 0.97903 0.944 0.0
H3586 H 0.90596 0.9812 0.94295 0.0
H3587 H 0.969 0.02505 0.95988 0.0
H3588 H 0.19479 0.01588 0.96584 0.0
H3589 H 0.11452 0.01381 0.96686 0.0
C3590 C 0.96378 0.73362 0.9626 0.0
C3591 C 0.98791 0.74325 0.95589 0.0
C3592 C 0.91765 0.73246 0.96209 0.0
C3593 C 0.82284 0.73811 0.94605 0.0
H3594 H 0.75516 0.74313 0.96857 0.0
C3595 C 0.63275 0.74665 0.94573 0.0
C3596 C 0.6084 0.73698 0.9524 0.0
C3597 C 0.6789 0.74759 0.94623 0.0
C3598 C 0.77352 0.74151 0.96223 0.0
H3599 H 0.98212 0.75919 0.94335 0.0
H3600 H 0.90184 0.75718 0.94246 0.0
H3601 H 0.83564 0.74391 0.96918 0.0
H3602 H 0.61389 0.7207 0.96484 0.0
H3603 H 0.69423 0.72237 0.96572 0.0
H3604 H 0.76069 0.73575 0.9391 0.0
C3605 C 0.9186 0.75028 0.94806 0.0
C3606 C 0.81975 0.74193 0.96257 0.0
C3607 C 0.96473 0.75142 0.94856 0.0
C3608 C 0.63143 0.72852 0.95966 0.0
C3609 C 0.67759 0.72946 0.96016 0.0
C3610 C 0.7766 0.7377 0.94571 0.0
C3611 C 0.89438 0.74091 0.95486 0.0
C3612 C 0.84507 0.74024 0.95449 0.0
C3613 C 0.70199 0.73888 0.95341 0.0
C3614 C 0.7513 0.73941 0.95379 0.0
H3615 H 0.98058 0.72694 0.96826 0.0
H3616 H 0.90024 0.72484 0.96736 0.0
H3617 H 0.84117 0.73648 0.93971 0.0
H3618 H 0.6161 0.75356 0.94012 0.0
H3619 H 0.69649 0.75526 0.941 0.0
C3620 C 0.17682 0.74617 0.82987 0.0
C3621 C 0.19727 0.7368 0.83718 0.0
C3622 C 0.13068 0.74707 0.82925 0.0
C3623 C 1.02858 0.74189 0.84314 0.0
H3624 H 0.97208 0.73611 0.81937 0.0
C3625 C 0.83905 0.73412 0.8394 0.0
C3626 C 0.81869 0.74374 0.83216 0.0
C3627 C 0.88517 0.73294 0.83996 0.0
C3628 C 0.98732 0.73793 0.82605 0.0
H3629 H 0.18489 0.72074 0.84949 0.0
H3630 H 0.10473 0.72238 0.84842 0.0
H3631 H 0.05247 0.73511 0.82047 0.0
H3632 H 0.83125 0.75983 0.81987 0.0
H3633 H 0.91138 0.75768 0.82082 0.0
H3634 H 0.96345 0.74472 0.84873 0.0
C3635 C 0.12431 0.72931 0.84325 0.0
C3636 C 0.03346 0.73739 0.82668 0.0
C3637 C 0.17038 0.7284 0.84386 0.0
C3638 C 0.84567 0.75201 0.82545 0.0
C3639 C 0.89171 0.7508 0.826 0.0
C3640 C 0.98245 0.74243 0.84252 0.0
C3641 C 0.10383 0.73862 0.83592 0.0
C3642 C 0.0547 0.73936 0.83523 0.0
C3643 C 0.91209 0.74133 0.83328 0.0
C3644 C 0.96121 0.74047 0.83396 0.0
H3645 H 0.19646 0.75298 0.82467 0.0
H3646 H 0.11604 0.75458 0.82359 0.0
H3647 H 0.0438 0.74373 0.84982 0.0
H3648 H 0.81934 0.72738 0.84462 0.0
H3649 H 0.89973 0.7253 0.84558 0.0
C3650 C 0.63146 0.00949 0.83036 0.0
C3651 C 0.60862 0.0016 0.8378 0.0
C3652 C 0.67762 0.00853 0.82983 0.0
C3653 C 0.77481 0.98318 0.8389 0.0
H3654 H 0.83959 0.02614 0.83089 0.0
C3655 C 0.96529 0.98767 0.84165 0.0
C3656 C 0.98813 -0.0047 0.83414 0.0
C3657 C 0.91915 0.98873 0.84219 0.0
C3658 C 0.82203 0.01395 0.83305 0.0
H3659 H 0.6167 0.98605 0.85041 0.0
H3660 H 0.69709 0.9846 0.84957 0.0
H3661 H 0.75908 0.02698 0.83148 0.0
H3662 H 0.98014 0.01052 0.82143 0.0
H3663 H 0.89973 0.01219 0.82231 0.0
H3664 H 0.83778 0.97016 0.84049 0.0
C3665 C 0.67931 0.99145 0.84409 0.0
C3666 C 0.77579 0.01442 0.83338 0.0
C3667 C 0.63316 0.99244 0.84462 0.0
C3668 C 0.96364 0.00434 0.82727 0.0
C3669 C 0.91751 0.00545 0.82782 0.0
C3670 C 0.82105 0.98271 0.83858 0.0
C3671 C 0.70222 -0.00039 0.83672 0.0
C3672 C 0.75153 -0.00096 0.83631 0.0
C3673 C 0.8946 -0.0025 0.83524 0.0
C3674 C 0.8453 -0.00191 0.83566 0.0
H3675 H 0.61376 0.01682 0.82502 0.0
H3676 H 0.69403 0.01477 0.824 0.0
H3677 H 0.75728 0.97098 0.84106 0.0
H3678 H 0.98297 0.98045 0.84702 0.0
H3679 H 0.9027 0.98265 0.84806 0.0
C3680 C 1.0278 0.50096 0.05591 0.0
C3681 C 0.04555 0.48461 0.05941 0.0
C3682 C 1.02173 0.50323 0.0464 0.0
C3683 C 1.0149 0.47732 0.0243 0.0
H3684 H 0.04571 0.52407 1.0134 0.0
C3685 C 1.02487 0.4874 0.98473 0.0
C3686 C 1.00658 0.50364 0.98121 0.0
C3687 C 0.03065 0.48513 0.99424 0.0
C3688 C 0.03656 0.51096 1.01633 0.0
H3689 H 0.06975 0.45765 0.05575 0.0
H3690 H 0.05958 0.4616 0.03924 0.0
H3691 H 0.05119 0.52001 0.03002 0.0
H3692 H 0.98109 0.5304 0.98486 0.0
H3693 H 0.99094 0.52646 1.00139 0.0
H3694 H 1.00037 0.46827 1.0106 0.0
C3695 C 0.0499 0.47266 0.04377 0.0
C3696 C 0.03958 0.50865 0.02588 0.0
C3697 C 0.05596 0.47042 0.05326 0.0
C3698 C 0.9953 0.51772 0.98736 0.0
C3699 C 1.00116 0.51549 0.99685 0.0
C3700 C 1.01193 0.47963 1.01474 0.0
C3701 C 0.03317 0.48917 0.04019 0.0
C3702 C 1.02881 0.49179 0.03001 0.0
C3703 C 1.01845 0.49909 1.00044 0.0
C3704 C 1.0227 0.49649 1.01062 0.0
H3705 H 1.01934 0.51212 0.06049 0.0
H3706 H 1.00812 0.51602 0.04391 0.0
H3707 H 1.0057 0.46422 0.02722 0.0
H3708 H 0.03398 0.47632 0.98015 0.0
H3709 H 0.04466 0.47242 0.99675 0.0
C3710 C 0.27939 0.7503 0.98391 0.0
C3711 C 0.29785 0.73407 0.98042 0.0
C3712 C 0.27326 0.75257 0.99342 0.0
C3713 C 0.31371 0.73482 1.01589 0.0
H3714 H 0.21047 0.75943 0.02568 0.0
C3715 C 0.27474 0.73759 0.05508 0.0
C3716 C 0.25617 0.75384 0.05853 0.0
C3717 C 0.28067 0.7352 0.04558 0.0
C3718 C 0.23981 0.75272 0.02307 0.0
H3719 H 0.32299 0.70727 0.98412 0.0
H3720 H 0.31185 0.71109 1.00062 0.0
H3721 H 0.21772 0.75518 1.00911 0.0
H3722 H 0.23065 0.78054 0.05476 0.0
H3723 H 0.24152 0.77652 0.03827 0.0
H3724 H 0.33583 0.73237 0.02985 0.0
C3725 C 0.30287 0.72224 0.99608 0.0
C3726 C 0.24394 0.75027 1.01354 0.0
C3727 C 0.30894 0.71999 0.9866 0.0
C3728 C 0.24477 0.7678 0.05231 0.0
C3729 C 0.25068 0.76543 0.04284 0.0
C3730 C 0.30959 0.73727 0.02542 0.0
C3731 C 0.28549 0.73865 0.99965 0.0
C3732 C 0.28094 0.74128 1.00981 0.0
C3733 C 0.26817 0.74901 0.03931 0.0
C3734 C 0.27261 0.74628 0.02915 0.0
H3735 H 0.27059 0.76141 0.97932 0.0
H3736 H 0.26008 0.76544 0.9959 0.0
H3737 H 0.34304 0.7281 1.01328 0.0
H3738 H 0.28378 0.72658 0.05971 0.0
H3739 H 0.29394 0.72232 0.04313 0.0
C3740 C 0.03006 0.75006 0.30524 0.0
C3741 C 1.01245 0.73368 0.30875 0.0
C3742 C 0.03616 0.75232 0.29573 0.0
C3743 C 0.99674 0.73413 0.27329 0.0
H3744 H 0.09882 0.7595 0.26347 0.0
C3745 C 0.03547 0.7371 0.23409 0.0
C3746 C 0.05344 0.75345 0.23063 0.0
C3747 C 0.02963 0.73469 0.2436 0.0
C3748 C 0.06979 0.75257 0.26609 0.0
H3749 H 0.98888 0.70662 0.3051 0.0
H3750 H 0.99998 0.71044 0.28859 0.0
H3751 H 0.09176 0.75527 0.28005 0.0
H3752 H 0.07793 0.78032 0.23438 0.0
H3753 H 0.06716 0.77628 0.25087 0.0
H3754 H 0.97472 0.73146 0.25934 0.0
C3755 C 1.0083 0.72171 0.29312 0.0
C3756 C 0.06578 0.75013 0.27562 0.0
C3757 C 1.00226 0.71946 0.3026 0.0
C3758 C 0.06428 0.7675 0.23684 0.0
C3759 C 0.05844 0.76512 0.24631 0.0
C3760 C 1.00074 0.73658 0.26376 0.0
C3761 C 1.02477 0.73825 0.28953 0.0
C3762 C 1.02921 0.74087 0.27936 0.0
C3763 C 0.0416 0.7486 0.24985 0.0
C3764 C 0.03729 0.74586 0.26002 0.0
H3765 H 0.03816 0.76128 0.30982 0.0
H3766 H 0.04865 0.7653 0.29323 0.0
H3767 H 0.96773 0.72719 0.27592 0.0
H3768 H 1.02687 0.72602 0.22947 0.0
H3769 H 1.01685 0.72173 0.24606 0.0
C3770 C 0.25216 0.46985 0.23731 0.0
C3771 C 0.26258 0.48404 0.23115 0.0
C3772 C 0.25828 0.47207 0.24679 0.0
C3773 C 0.26875 0.50804 0.26468 0.0
H3774 H 0.30829 0.46768 0.27995 0.0
C3775 C 0.31386 0.51724 0.30313 0.0
C3776 C 0.30277 0.50319 0.30932 0.0
C3777 C 0.30779 0.51495 0.29365 0.0
C3778 C 0.29663 0.47903 0.27581 0.0
H3779 H 0.28884 0.51155 0.23007 0.0
H3780 H 0.30014 0.51542 0.24665 0.0
H3781 H 0.30266 0.46361 0.26334 0.0
H3782 H 0.27551 0.47586 0.31045 0.0
H3783 H 0.26445 0.47187 0.29387 0.0
H3784 H 0.26281 0.52347 0.27715 0.0
C3785 C 0.2865 0.50263 0.24417 0.0
C3786 C 0.29349 0.47671 0.26626 0.0
C3787 C 0.28038 0.50038 0.23466 0.0
C3788 C 0.28447 0.48691 0.30584 0.0
C3789 C 0.27848 0.48459 0.29634 0.0
C3790 C 0.27193 0.51036 0.27423 0.0
C3791 C 0.27506 0.48857 0.25038 0.0
C3792 C 0.27949 0.49118 0.26055 0.0
C3793 C 0.29046 0.49853 0.2901 0.0
C3794 C 0.28594 0.4959 0.27993 0.0
H3795 H 0.23834 0.45709 0.23482 0.0
H3796 H 0.24862 0.46101 0.25133 0.0
H3797 H 0.25706 0.51939 0.26054 0.0
H3798 H 0.32807 0.52994 0.3056 0.0
H3799 H 0.31786 0.52591 0.28909 0.0
C3800 C 0.7823 0.25022 0.98439 0.0
C3801 C 0.80148 0.2341 0.98095 0.0
C3802 C 0.77599 0.25253 0.99389 0.0
C3803 C 0.81669 0.23521 1.01643 0.0
H3804 H 0.71223 0.25917 0.02608 0.0
C3805 C 0.77634 0.23778 0.05557 0.0
C3806 C 0.75717 0.25393 0.05899 0.0
C3807 C 0.78265 0.23542 0.04607 0.0
C3808 C 0.7419 0.25264 0.02351 0.0
H3809 H 0.82778 0.20753 0.98471 0.0
H3810 H 0.81631 0.21141 1.00121 0.0
H3811 H 0.72009 0.25489 1.00952 0.0
H3812 H 0.73091 0.28049 0.05518 0.0
H3813 H 0.74239 0.27652 0.0387 0.0
H3814 H 0.8385 0.23297 0.03042 0.0
C3815 C 0.8069 0.22246 0.99663 0.0
C3816 C 0.74639 0.25018 1.01399 0.0
C3817 C 0.81317 0.22017 0.98716 0.0
C3818 C 0.74551 0.26783 0.05275 0.0
C3819 C 0.75178 0.26549 0.04328 0.0
C3820 C 0.81221 0.23768 0.02595 0.0
C3821 C 0.78874 0.23876 1.00015 0.0
C3822 C 0.78383 0.24142 1.01031 0.0
C3823 C 0.76991 0.24916 0.03979 0.0
C3824 C 0.77477 0.24645 0.02963 0.0
H3825 H 0.77303 0.26121 0.97977 0.0
H3826 H 0.76221 0.26532 0.99634 0.0
H3827 H 0.84636 0.22869 1.01386 0.0
H3828 H 0.78559 0.22682 0.06021 0.0
H3829 H 0.79641 0.22262 0.04364 0.0
C3830 C 0.99532 0.22133 0.80279 0.0
C3831 C 1.00629 0.23543 0.80896 0.0
C3832 C 1.00106 0.22362 0.7933 0.0
C3833 C 0.05866 0.252 0.77576 0.0
H3834 H 0.96759 0.23314 0.75954 0.0
C3835 C 0.05671 0.26895 0.73691 0.0
C3836 C 0.04646 0.25472 0.73077 0.0
C3837 C 0.0508 0.26671 0.7464 0.0
C3838 C 0.99359 0.23832 0.76395 0.0
H3839 H 0.03294 0.26286 0.81004 0.0
H3840 H 0.04275 0.26699 0.79344 0.0
H3841 H 0.96064 0.22904 0.77613 0.0
H3842 H 1.02079 0.22711 0.72972 0.0
H3843 H 1.01053 0.22311 0.74632 0.0
H3844 H 0.09156 0.26131 0.76358 0.0
C3845 C 0.02998 0.25406 0.79593 0.0
C3846 C 0.98964 0.23596 0.77349 0.0
C3847 C 1.02425 0.25174 0.80545 0.0
C3848 C 1.02894 0.23834 0.73429 0.0
C3849 C 1.02296 0.23609 0.74381 0.0
C3850 C 0.06258 0.25438 0.76622 0.0
C3851 C 1.01791 0.24011 0.78971 0.0
C3852 C 1.02215 0.24274 0.77954 0.0
C3853 C 0.03441 0.25017 0.75 0.0
C3854 C 0.03009 0.24758 0.76018 0.0
H3855 H 0.98168 0.20854 0.80528 0.0
H3856 H 0.99226 0.21243 0.78877 0.0
H3857 H 0.08469 0.25717 0.78016 0.0
H3858 H 0.07001 0.28179 0.7344 0.0
H3859 H 0.05915 0.27799 0.75091 0.0
C3860 C 0.77931 0.48874 0.80574 0.0
C3861 C 0.79739 0.50503 0.80925 0.0
C3862 C 0.7731 0.48651 0.79624 0.0
C3863 C 0.81287 0.50452 0.77379 0.0
H3864 H 0.71005 0.47961 0.764 0.0
C3865 C 0.7738 0.50169 0.7346 0.0
C3866 C 0.75545 0.48541 0.73115 0.0
C3867 C 0.77974 0.50409 0.7441 0.0
C3868 C 0.73928 0.48641 0.76661 0.0
H3869 H 0.82172 0.53197 0.80559 0.0
H3870 H 0.81045 0.52821 0.78908 0.0
H3871 H 0.71734 0.48382 0.78057 0.0
H3872 H 0.73034 0.45865 0.73491 0.0
H3873 H 0.74125 0.46266 0.75141 0.0
H3874 H 0.83486 0.50708 0.75982 0.0
C3875 C 0.80184 0.51698 0.79361 0.0
C3876 C 0.74343 0.48884 0.77614 0.0
C3877 C 0.80798 0.5192 0.80309 0.0
C3878 C 0.74429 0.47141 0.73736 0.0
C3879 C 0.75022 0.47378 0.74684 0.0
C3880 C 0.80874 0.50208 0.76426 0.0
C3881 C 0.78487 0.50052 0.79003 0.0
C3882 C 0.78027 0.49793 0.77986 0.0
C3883 C 0.76747 0.49024 0.75037 0.0
C3884 C 0.77192 0.49296 0.76053 0.0
H3885 H 0.77089 0.47756 0.81032 0.0
H3886 H 0.76024 0.4736 0.79374 0.0
H3887 H 0.84209 0.51132 0.7764 0.0
H3888 H 0.78265 0.51273 0.72997 0.0
H3889 H 0.79283 0.51699 0.74655 0.0
C3890 C 0.05942 0.97089 0.55346 0.0
C3891 C 0.04887 0.98499 0.55966 0.0
C3892 C 0.05296 0.97317 0.54399 0.0
C3893 C 0.04102 0.00916 0.52615 0.0
H3894 H 1.0017 0.96869 0.51094 0.0
C3895 C 0.99492 0.01821 0.48772 0.0
C3896 C 1.00602 0.00415 0.48153 0.0
C3897 C 1.00121 0.01596 0.4972 0.0
C3898 C 1.01329 0.98008 0.51506 0.0
H3899 H 1.0221 0.0124 0.56082 0.0
H3900 H 1.01022 0.01637 0.54426 0.0
H3901 H 1.00797 0.96463 0.52754 0.0
H3902 H 0.0335 0.97686 0.48041 0.0
H3903 H 0.04496 0.97294 0.49698 0.0
H3904 H 0.04627 0.02461 0.51367 0.0
C3905 C 1.02421 0.00361 0.54671 0.0
C3906 C 1.0168 0.97776 0.5246 0.0
C3907 C 0.03066 0.0013 0.55621 0.0
C3908 C 1.02452 0.98792 0.48501 0.0
C3909 C 0.03075 0.98564 0.49452 0.0
C3910 C 0.03748 0.01148 0.5166 0.0
C3911 C 0.03569 0.98963 0.54046 0.0
C3912 C 0.03076 0.99226 0.53029 0.0
C3913 C 1.01878 -0.00042 0.50075 0.0
C3914 C 1.02356 -0.00303 0.51092 0.0
H3915 H 0.07356 0.95816 0.55591 0.0
H3916 H 0.0627 0.96217 0.53942 0.0
H3917 H 0.05265 0.02054 0.53027 0.0
H3918 H 0.98055 0.03088 0.48525 0.0
H3919 H 0.99113 0.02692 0.50176 0.0
C3920 C 0.28148 0.25136 0.48433 0.0
C3921 C 0.29928 0.23502 0.48082 0.0
C3922 C 0.27579 0.25368 0.49384 0.0
C3923 C 0.31639 0.2356 0.51626 0.0
H3924 H 0.21452 0.26089 0.52624 0.0
C3925 C 0.27817 0.23803 0.55548 0.0
C3926 C 0.26041 0.25436 0.55902 0.0
C3927 C 0.28392 0.23578 0.54596 0.0
C3928 C 0.24349 0.25398 0.52357 0.0
H3929 H 0.3236 0.20807 0.48449 0.0
H3930 H 0.31315 0.21197 0.501 0.0
H3931 H 0.22109 0.25673 0.50965 0.0
H3932 H 0.2362 0.28134 0.55539 0.0
H3933 H 0.24674 0.27756 0.53887 0.0
H3934 H 0.33878 0.23284 0.53018 0.0
C3935 C 0.30442 0.22318 0.49647 0.0
C3936 C 0.24723 0.25159 0.51403 0.0
C3937 C 0.31008 0.22088 0.48698 0.0
C3938 C 0.2497 0.26855 0.55288 0.0
C3939 C 0.25541 0.26632 0.54339 0.0
C3940 C 0.31264 0.23799 0.52579 0.0
C3941 C 0.28777 0.23969 0.50006 0.0
C3942 C 0.28371 0.24234 0.51024 0.0
C3943 C 0.27203 0.24982 0.53977 0.0
C3944 C 0.27616 0.24723 0.52959 0.0
H3945 H 0.27291 0.26251 0.47974 0.0
H3946 H 0.26315 0.26663 0.49634 0.0
H3947 H 0.34536 0.22869 0.51359 0.0
H3948 H 0.28667 0.22684 0.56005 0.0
H3949 H 0.29653 0.22284 0.54344 0.0
C3950 C 0.28026 0.98818 0.80619 0.0
C3951 C 0.29849 0.00445 0.8097 0.0
C3952 C 0.27423 0.98593 0.79668 0.0
C3953 C 0.31458 0.00386 0.77424 0.0
H3954 H 0.21171 0.97911 0.76437 0.0
C3955 C 0.27569 0.00143 0.73504 0.0
C3956 C 0.25734 0.98519 0.73154 0.0
C3957 C 0.28158 0.00372 0.74455 0.0
C3958 C 0.24095 0.98586 0.767 0.0
H3959 H 0.32326 0.03131 0.80602 0.0
H3960 H 0.31227 0.02751 0.78951 0.0
H3961 H 0.21885 0.98323 0.78096 0.0
H3962 H 0.23217 0.9584 0.73522 0.0
H3963 H 0.24297 0.96224 0.75173 0.0
H3964 H 0.3367 0.00648 0.76029 0.0
C3965 C 0.30342 0.01632 0.79405 0.0
C3966 C 0.24502 0.98824 0.77654 0.0
C3967 C 0.30941 0.01856 0.80353 0.0
C3968 C 0.24612 0.97113 0.73771 0.0
C3969 C 0.25199 0.9734 0.7472 0.0
C3970 C 0.31052 0.00148 0.7647 0.0
C3971 C 0.28631 -0.00011 0.79047 0.0
C3972 C 0.28187 -0.00271 0.78029 0.0
C3973 C 0.26926 0.98981 0.75077 0.0
C3974 C 0.27367 0.99243 0.76095 0.0
H3975 H 0.27159 0.97705 0.81078 0.0
H3976 H 0.26124 0.97303 0.79419 0.0
H3977 H 0.34381 0.01062 0.77687 0.0
H3978 H 0.28459 0.01253 0.73045 0.0
H3979 H 0.29468 0.0166 0.74704 0.0
C3980 C 0.81312 0.72063 0.48697 0.0
C3981 C 0.80139 0.7346 0.48078 0.0
C3982 C 0.80696 0.72287 0.49645 0.0
C3983 C 0.74676 0.75056 0.51387 0.0
H3984 H 0.83894 0.73314 0.53023 0.0
C3985 C 0.74658 0.76803 0.55266 0.0
C3986 C 0.75812 0.75407 0.55886 0.0
C3987 C 0.75271 0.76572 0.54318 0.0
C3988 C 0.81263 0.73791 0.52578 0.0
H3989 H 0.77296 0.76173 0.47965 0.0
H3990 H 0.76235 0.76575 0.49623 0.0
H3991 H 0.84658 0.72894 0.51367 0.0
H3992 H 0.78619 0.72688 0.56003 0.0
H3993 H 0.79679 0.72275 0.54345 0.0
H3994 H 0.71283 0.75954 0.52599 0.0
C3995 C 0.77607 0.75297 0.49376 0.0
C3996 C 0.81698 0.73549 0.51626 0.0
C3997 C 0.78226 0.75071 0.48425 0.0
C3998 C 0.77704 0.73789 0.55541 0.0
C3999 C 0.78322 0.73557 0.54591 0.0
C4000 C 0.74242 0.75298 0.52339 0.0
C4001 C 0.78887 0.73916 0.5 0.0
C4002 C 0.7841 0.74177 0.51016 0.0
C4003 C 0.77059 0.74938 0.53965 0.0
C4004 C 0.77531 0.74671 0.52949 0.0
H4005 H 0.82768 0.708 0.48449 0.0
H4006 H 0.81639 0.71179 0.501 0.0
H4007 H 0.72045 0.75533 0.50942 0.0
H4008 H 0.73218 0.7807 0.55511 0.0
H4009 H 0.74341 0.7768 0.53862 0.0
C4010 C 0.751 0.96984 0.23743 0.0
C4011 C 0.76181 0.984 0.23128 0.0
C4012 C 0.75706 0.97203 0.24691 0.0
C4013 C 0.81557 2e-05 0.26444 0.0
H4014 H 0.72393 0.9818 0.2807 0.0
C4015 C 0.81468 0.01721 0.30324 0.0
C4016 C 0.80335 0.0032 0.30943 0.0
C4017 C 0.80878 0.0149 0.29376 0.0
C4018 C 0.7501 0.98679 0.27628 0.0
H4019 H 0.78857 0.01143 0.23023 0.0
H4020 H 0.79908 0.01534 0.24683 0.0
H4021 H 0.71674 0.97767 0.26412 0.0
H4022 H 0.7759 0.9759 0.31057 0.0
H4023 H 0.76577 0.97175 0.29397 0.0
H4024 H 0.84896 0.00913 0.27659 0.0
C4025 C 0.78611 0.00246 0.24432 0.0
C4026 C 0.746 0.98442 0.26675 0.0
C4027 C 0.77999 0.00026 0.2348 0.0
C4028 C 0.78487 0.98696 0.30596 0.0
C4029 C 0.77897 0.98463 0.29645 0.0
C4030 C 0.81969 0.00239 0.27397 0.0
C4031 C 0.77415 0.98845 0.25051 0.0
C4032 C 0.77868 0.991 0.26069 0.0
C4033 C 0.7914 -0.00151 0.2902 0.0
C4034 C 0.78698 -0.00416 0.28003 0.0
H4035 H 0.73718 0.9571 0.23492 0.0
H4036 H 0.74829 0.9608 0.25143 0.0
H4037 H 0.84172 0.00503 0.26001 0.0
H4038 H 0.82872 0.02994 0.30571 0.0
H4039 H 0.81788 0.02603 0.28921 0.0
C4040 C 0.53409 0.50106 0.55572 0.0
C4041 C 0.55261 0.4848 0.55917 0.0
C4042 C 0.52791 0.50341 0.54622 0.0
C4043 C 0.52145 0.47773 0.52408 0.0
H4044 H 0.55086 0.52467 0.51323 0.0
C4045 C 0.52941 0.488 0.48453 0.0
C4046 C 0.51101 0.50425 0.48105 0.0
C4047 C 0.53564 0.48572 0.49404 0.0
C4048 C 0.54207 0.51152 0.51615 0.0
H4049 H 0.57816 0.45811 0.5554 0.0
H4050 H 0.56768 0.46221 0.5389 0.0
H4051 H 0.55691 0.52052 0.52984 0.0
H4052 H 0.48577 0.53102 0.48475 0.0
H4053 H 0.49628 0.52706 0.50126 0.0
H4054 H 0.50659 0.46873 0.5104 0.0
C4055 C 0.55754 0.47312 0.54348 0.0
C4056 C 0.54544 0.50915 0.52569 0.0
C4057 C 0.56377 0.4708 0.55295 0.0
C4058 C 0.50006 0.51833 0.48723 0.0
C4059 C 0.50631 0.51608 0.49671 0.0
C4060 C 0.51807 0.4801 0.51454 0.0
C4061 C 0.53995 0.48953 0.53996 0.0
C4062 C 0.53522 0.49221 0.5298 0.0
C4063 C 0.52372 0.49967 0.50026 0.0
C4064 C 0.52833 0.49703 0.51043 0.0
H4065 H 0.52507 0.51207 0.56035 0.0
H4066 H 0.51368 0.51613 0.54378 0.0
H4067 H 0.51267 0.46457 0.527 0.0
H4068 H 0.53829 0.47691 0.47993 0.0
H4069 H 0.54976 0.473 0.4965 0.0
C4070 C 0.52522 0.7512 0.80516 0.0
C4071 C 0.5067 0.73497 0.80863 0.0
C4072 C 0.53116 0.75354 0.79565 0.0
C4073 C 0.49052 0.73586 0.77316 0.0
H4074 H 0.59343 0.7607 0.76337 0.0
C4075 C 0.53015 0.73849 0.734 0.0
C4076 C 0.54828 0.7548 0.73053 0.0
C4077 C 0.52405 0.73616 0.74351 0.0
C4078 C 0.56419 0.75392 0.76598 0.0
H4079 H 0.48129 0.70824 0.80492 0.0
H4080 H 0.4922 0.71215 0.78841 0.0
H4081 H 0.58628 0.7564 0.77994 0.0
H4082 H 0.57284 0.78167 0.73424 0.0
H4083 H 0.56176 0.77774 0.75074 0.0
H4084 H 0.46847 0.73337 0.7592 0.0
C4085 C 0.50131 0.72327 0.79296 0.0
C4086 C 0.5601 0.75145 0.77551 0.0
C4087 C 0.49537 0.72096 0.80244 0.0
C4088 C 0.55905 0.76889 0.73671 0.0
C4089 C 0.55302 0.76658 0.74619 0.0
C4090 C 0.49462 0.73833 0.76364 0.0
C4091 C 0.51875 0.73968 0.78941 0.0
C4092 C 0.52322 0.74237 0.77924 0.0
C4093 C 0.53599 0.7501 0.74974 0.0
C4094 C 0.53149 0.74741 0.75991 0.0
H4095 H 0.53421 0.76225 0.80976 0.0
H4096 H 0.54438 0.76641 0.79318 0.0
H4097 H 0.46125 0.72909 0.77577 0.0
H4098 H 0.52159 0.72737 0.7294 0.0
H4099 H 0.51113 0.72324 0.74598 0.0
C4100 C 0.50048 0.2196 0.30306 0.0
C4101 C 0.51129 0.23375 0.30921 0.0
C4102 C 0.50653 0.22181 0.29358 0.0
C4103 C 0.5649 0.24996 0.27607 0.0
H4104 H 0.47348 0.23163 0.25978 0.0
C4105 C 0.56355 0.26747 0.2373 0.0
C4106 C 0.5526 0.25345 0.23108 0.0
C4107 C 0.55768 0.26507 0.24677 0.0
C4108 C 0.49959 0.23665 0.26421 0.0
H4109 H 0.53803 0.26118 0.31027 0.0
H4110 H 0.54847 0.26514 0.29368 0.0
H4111 H 0.46635 0.22739 0.27636 0.0
H4112 H 0.52581 0.22605 0.22991 0.0
H4113 H 0.51571 0.22175 0.24649 0.0
H4114 H 0.59814 0.25922 0.26392 0.0
C4115 C 0.53554 0.25224 0.29618 0.0
C4116 C 0.49552 0.23421 0.27374 0.0
C4117 C 0.52946 0.25002 0.30569 0.0
C4118 C 0.5345 0.23711 0.23453 0.0
C4119 C 0.52861 0.23469 0.24404 0.0
C4120 C 0.56897 0.25239 0.26654 0.0
C4121 C 0.52359 0.23825 0.28998 0.0
C4122 C 0.52812 0.24083 0.27981 0.0
C4123 C 0.54069 0.24856 0.2503 0.0
C4124 C 0.53633 0.24581 0.26047 0.0
H4125 H 0.48666 0.20685 0.30557 0.0
H4126 H 0.49777 0.2106 0.28905 0.0
H4127 H 0.591 0.25499 0.28049 0.0
H4128 H 0.57729 0.28027 0.23485 0.0
H4129 H 0.5665 0.2762 0.25134 0.0
C4130 C 0.52955 0.00111 0.05601 0.0
C4131 C 0.54651 0.98463 0.05954 0.0
C4132 C 0.52374 0.00339 0.04649 0.0
C4133 C 0.51602 0.97744 0.02442 0.0
H4134 H 0.5495 0.02382 1.01347 0.0
C4135 C 0.52698 0.98713 0.98484 0.0
C4136 C 0.50959 0.00351 0.98128 0.0
C4137 C 0.53261 0.98488 0.99436 0.0
C4138 C 0.5396 0.01083 1.01641 0.0
H4139 H 0.56955 0.95748 0.05591 0.0
H4140 H 0.55979 0.96145 0.0394 0.0
H4141 H 0.5544 0.01983 0.0301 0.0
H4142 H 0.48562 0.03054 0.98488 0.0
H4143 H 0.4952 0.02665 1.00141 0.0
H4144 H 0.5013 0.96843 1.01072 0.0
C4145 C 0.55055 0.9726 0.04392 0.0
C4146 C 0.54229 0.00855 0.02598 0.0
C4147 C 0.55637 0.97034 0.0534 0.0
C4148 C 0.49912 0.01775 0.98741 0.0
C4149 C 0.50484 0.01554 0.9969 0.0
C4150 C 0.51337 0.97971 1.01486 0.0
C4151 C 0.53463 0.98922 0.0403 0.0
C4152 C 0.53056 0.99182 0.03012 0.0
C4153 C 0.52117 -0.00099 1.00053 0.0
C4154 C 0.52511 -0.00356 1.01071 0.0
H4155 H 0.52154 0.01235 0.06058 0.0
H4156 H 0.51077 0.01628 0.04398 0.0
H4157 H 0.50609 0.96444 0.02735 0.0
H4158 H 0.53545 0.97592 0.98028 0.0
H4159 H 0.54589 0.97206 0.99689 0.0
loop_
_geom_bond_atom_site_label_1
_geom_bond_atom_site_label_2
_geom_bond_distance
_geom_bond_site_symmetry_2
_ccdc_geom_bond_type
La0 C2 2.928 . S
La0 O20 2.521 . S
La0 O21 2.628 . S
La0 O22 2.554 . S
La0 O23 2.757 1_655 S
La0 O24 2.470 . S
La0 O29 2.482 1_655 S
La0 O31 2.503 1_655 S
La1 C11 2.928 . S
La1 O23 2.482 . S
La1 O25 2.503 . S
La1 O26 2.521 . S
La1 O27 2.628 . S
La1 O28 2.554 . S
La1 O29 2.757 . S
La1 O30 2.470 . S
C2 La0 2.928 . S
C2 C3 1.503 . S
C2 O20 1.261 . S
C2 O21 1.243 . S
C3 C2 1.503 . S
C3 C4 1.394 . S
C3 C8 1.373 . S
C4 C3 1.394 . S
C4 C5 1.380 . S
C4 H32 0.930 . S
C5 C4 1.380 . S
C5 C6 1.376 . S
C5 H33 0.930 . S
C6 C5 1.376 . S
C6 C7 1.370 . S
C7 C6 1.370 . S
C7 C8 1.396 . S
C7 H34 0.929 . S
C8 C3 1.373 . S
C8 C7 1.396 . S
C8 H35 0.929 . S
C9 O22 1.240 1_455 S
C9 O23 1.289 . S
C10 O24 1.258 . S
C10 O25 1.256 1_655 S
C11 La1 2.928 . S
C11 C12 1.503 . S
C11 O26 1.261 . S
C11 O27 1.243 . S
C12 C11 1.503 . S
C12 C13 1.394 . S
C12 C17 1.373 . S
C13 C12 1.394 . S
C13 C14 1.380 . S
C13 H36 0.930 . S
C14 C13 1.380 . S
C14 C15 1.376 . S
C14 H37 0.930 . S
C15 C14 1.376 . S
C15 C16 1.370 . S
C16 C15 1.370 . S
C16 C17 1.396 . S
C16 H38 0.929 . S
C17 C12 1.373 . S
C17 C16 1.396 . S
C17 H39 0.929 . S
C18 O28 1.240 . S
C18 O29 1.289 . S
C19 O30 1.258 . S
C19 O31 1.256 . S
O20 La0 2.521 . S
O20 C2 1.261 . S
O21 La0 2.628 . S
O21 C2 1.243 . S
O22 La0 2.554 . S
O22 C9 1.240 1_655 S
O23 La0 2.757 1_455 S
O23 La1 2.482 . S
O23 C9 1.289 . S
O24 La0 2.470 . S
O24 C10 1.258 . S
O25 La1 2.503 . S
O25 C10 1.256 1_455 S
O26 La1 2.521 . S
O26 C11 1.261 . S
O27 La1 2.628 . S
O27 C11 1.243 . S
O28 La1 2.554 . S
O28 C18 1.240 . S
O29 La0 2.482 1_455 S
O29 La1 2.757 . S
O29 C18 1.289 . S
O30 La1 2.470 . S
O30 C19 1.258 . S
O31 La0 2.503 1_455 S
O31 C19 1.256 . S
H32 C4 0.930 . S
H33 C5 0.930 . S
H34 C7 0.929 . S
H35 C8 0.929 . S
H36 C13 0.930 . S
H37 C14 0.930 . S
H38 C16 0.929 . S
H39 C17 0.929 . S
La40 C42 2.928 . S
La40 O60 2.521 . S
La40 O61 2.628 . S
La40 O62 2.554 . S
La40 O63 2.757 . S
La40 O64 2.470 . S
La40 O69 2.482 . S
La40 O71 2.503 . S
La41 C51 2.928 . S
La41 O63 2.482 . S
La41 O65 2.503 . S
La41 O66 2.521 . S
La41 O67 2.628 . S
La41 O68 2.554 . S
La41 O69 2.757 . S
La41 O70 2.470 . S
C42 La40 2.928 . S
C42 C43 1.503 . S
C42 O60 1.261 . S
C42 O61 1.243 . S
C43 C42 1.503 . S
C43 C44 1.394 . S
C43 C48 1.373 . S
C44 C43 1.394 . S
C44 C45 1.380 . S
C44 H72 0.930 . S
C45 C44 1.380 . S
C45 C46 1.376 . S
C45 H73 0.930 . S
C46 C45 1.376 . S
C46 C47 1.370 . S
C47 C46 1.370 . S
C47 C48 1.396 . S
C47 H74 0.929 . S
C48 C43 1.373 . S
C48 C47 1.396 . S
C48 H75 0.929 . S
C49 O62 1.240 . S
C49 O63 1.289 . S
C50 O64 1.258 . S
C50 O65 1.256 . S
C51 La41 2.928 . S
C51 C52 1.503 . S
C51 O66 1.261 . S
C51 O67 1.243 . S
C52 C51 1.503 . S
C52 C53 1.394 . S
C52 C57 1.373 . S
C53 C52 1.394 . S
C53 C54 1.380 1_455 S
C53 H76 0.930 . S
C54 C53 1.380 1_655 S
C54 C55 1.376 . S
C54 H77 0.930 . S
C55 C54 1.376 . S
C55 C56 1.370 . S
C56 C55 1.370 . S
C56 C57 1.396 1_655 S
C56 H78 0.929 . S
C57 C52 1.373 . S
C57 C56 1.396 1_455 S
C57 H79 0.929 . S
C58 O68 1.240 . S
C58 O69 1.289 . S
C59 O70 1.258 . S
C59 O71 1.256 . S
O60 La40 2.521 . S
O60 C42 1.261 . S
O61 La40 2.628 . S
O61 C42 1.243 . S
O62 La40 2.554 . S
O62 C49 1.240 . S
O63 La40 2.757 . S
O63 La41 2.482 . S
O63 C49 1.289 . S
O64 La40 2.470 . S
O64 C50 1.258 . S
O65 La41 2.503 . S
O65 C50 1.256 . S
O66 La41 2.521 . S
O66 C51 1.261 . S
O67 La41 2.628 . S
O67 C51 1.243 . S
O68 La41 2.554 . S
O68 C58 1.240 . S
O69 La40 2.482 . S
O69 La41 2.757 . S
O69 C58 1.289 . S
O70 La41 2.470 . S
O70 C59 1.258 . S
O71 La40 2.503 . S
O71 C59 1.256 . S
H72 C44 0.930 . S
H73 C45 0.930 . S
H74 C47 0.929 . S
H75 C48 0.929 . S
H76 C53 0.930 . S
H77 C54 0.930 . S
H78 C56 0.929 . S
H79 C57 0.929 . S
La80 C82 2.928 . S
La80 O100 2.521 . S
La80 O101 2.628 . S
La80 O102 2.554 . S
La80 O103 2.757 1_655 S
La80 O104 2.470 . S
La80 O109 2.482 1_655 S
La80 O111 2.503 1_655 S
La81 C91 2.928 . S
La81 O103 2.482 . S
La81 O105 2.503 . S
La81 O106 2.521 . S
La81 O107 2.628 . S
La81 O108 2.554 . S
La81 O109 2.757 . S
La81 O110 2.470 . S
C82 La80 2.928 . S
C82 C83 1.503 . S
C82 O100 1.261 . S
C82 O101 1.243 . S
C83 C82 1.503 . S
C83 C84 1.394 . S
C83 C88 1.373 . S
C84 C83 1.394 . S
C84 C85 1.380 . S
C84 H112 0.930 . S
C85 C84 1.380 . S
C85 C86 1.376 . S
C85 H113 0.930 . S
C86 C85 1.376 . S
C86 C87 1.370 . S
C87 C86 1.370 . S
C87 C88 1.396 . S
C87 H114 0.929 . S
C88 C83 1.373 . S
C88 C87 1.396 . S
C88 H115 0.929 . S
C89 O102 1.240 1_455 S
C89 O103 1.289 . S
C90 O104 1.258 . S
C90 O105 1.256 1_655 S
C91 La81 2.928 . S
C91 C92 1.503 . S
C91 O106 1.261 . S
C91 O107 1.243 . S
C92 C91 1.503 . S
C92 C93 1.394 . S
C92 C97 1.373 . S
C93 C92 1.394 . S
C93 C94 1.380 . S
C93 H116 0.930 . S
C94 C93 1.380 . S
C94 C95 1.376 . S
C94 H117 0.930 . S
C95 C94 1.376 . S
C95 C96 1.370 . S
C96 C95 1.370 . S
C96 C97 1.396 . S
C96 H118 0.929 . S
C97 C92 1.373 . S
C97 C96 1.396 . S
C97 H119 0.929 . S
C98 O108 1.240 . S
C98 O109 1.289 . S
C99 O110 1.258 . S
C99 O111 1.256 . S
O100 La80 2.521 . S
O100 C82 1.261 . S
O101 La80 2.628 . S
O101 C82 1.243 . S
O102 La80 2.554 . S
O102 C89 1.240 1_655 S
O103 La80 2.757 1_455 S
O103 La81 2.482 . S
O103 C89 1.289 . S
O104 La80 2.470 . S
O104 C90 1.258 . S
O105 La81 2.503 . S
O105 C90 1.256 1_455 S
O106 La81 2.521 . S
O106 C91 1.261 . S
O107 La81 2.628 . S
O107 C91 1.243 . S
O108 La81 2.554 . S
O108 C98 1.240 . S
O109 La80 2.482 1_455 S
O109 La81 2.757 . S
O109 C98 1.289 . S
O110 La81 2.470 . S
O110 C99 1.258 . S
O111 La80 2.503 1_455 S
O111 C99 1.256 . S
H112 C84 0.930 . S
H113 C85 0.930 . S
H114 C87 0.929 . S
H115 C88 0.929 . S
H116 C93 0.930 . S
H117 C94 0.930 . S
H118 C96 0.929 . S
H119 C97 0.929 . S
La120 C122 2.928 . S
La120 O140 2.521 . S
La120 O141 2.628 . S
La120 O142 2.554 . S
La120 O143 2.757 . S
La120 O144 2.470 . S
La120 O149 2.482 . S
La120 O151 2.503 . S
La121 C131 2.928 . S
La121 O143 2.482 . S
La121 O145 2.503 . S
La121 O146 2.521 . S
La121 O147 2.628 . S
La121 O148 2.554 . S
La121 O149 2.757 . S
La121 O150 2.470 . S
C122 La120 2.928 . S
C122 C123 1.503 . S
C122 O140 1.261 . S
C122 O141 1.243 . S
C123 C122 1.503 . S
C123 C124 1.394 . S
C123 C128 1.373 . S
C124 C123 1.394 . S
C124 C125 1.380 . S
C124 H152 0.930 . S
C125 C124 1.380 . S
C125 C126 1.376 . S
C125 H153 0.930 . S
C126 C125 1.376 . S
C126 C127 1.370 . S
C127 C126 1.370 . S
C127 C128 1.396 . S
C127 H154 0.929 . S
C128 C123 1.373 . S
C128 C127 1.396 . S
C128 H155 0.929 . S
C129 O142 1.240 . S
C129 O143 1.289 . S
C130 O144 1.258 . S
C130 O145 1.256 . S
C131 La121 2.928 . S
C131 C132 1.503 . S
C131 O146 1.261 . S
C131 O147 1.243 . S
C132 C131 1.503 . S
C132 C133 1.394 . S
C132 C137 1.373 . S
C133 C132 1.394 . S
C133 C134 1.380 1_455 S
C133 H156 0.930 . S
C134 C133 1.380 1_655 S
C134 C135 1.376 . S
C134 H157 0.930 . S
C135 C134 1.376 . S
C135 C136 1.370 . S
C136 C135 1.370 . S
C136 C137 1.396 1_655 S
C136 H158 0.929 . S
C137 C132 1.373 . S
C137 C136 1.396 1_455 S
C137 H159 0.929 . S
C138 O148 1.240 . S
C138 O149 1.289 . S
C139 O150 1.258 . S
C139 O151 1.256 . S
O140 La120 2.521 . S
O140 C122 1.261 . S
O141 La120 2.628 . S
O141 C122 1.243 . S
O142 La120 2.554 . S
O142 C129 1.240 . S
O143 La120 2.757 . S
O143 La121 2.482 . S
O143 C129 1.289 . S
O144 La120 2.470 . S
O144 C130 1.258 . S
O145 La121 2.503 . S
O145 C130 1.256 . S
O146 La121 2.521 . S
O146 C131 1.261 . S
O147 La121 2.628 . S
O147 C131 1.243 . S
O148 La121 2.554 . S
O148 C138 1.240 . S
O149 La120 2.482 . S
O149 La121 2.757 . S
O149 C138 1.289 . S
O150 La121 2.470 . S
O150 C139 1.258 . S
O151 La120 2.503 . S
O151 C139 1.256 . S
H152 C124 0.930 . S
H153 C125 0.930 . S
H154 C127 0.929 . S
H155 C128 0.929 . S
H156 C133 0.930 . S
H157 C134 0.930 . S
H158 C136 0.929 . S
H159 C137 0.929 . S
La160 C162 2.928 . S
La160 O180 2.521 . S
La160 O181 2.628 . S
La160 O182 2.554 . S
La160 O183 2.757 . S
La160 O184 2.470 . S
La160 O189 2.482 . S
La160 O191 2.503 . S
La161 C171 2.928 . S
La161 O183 2.482 1_455 S
La161 O185 2.503 1_455 S
La161 O186 2.521 . S
La161 O187 2.628 . S
La161 O188 2.554 . S
La161 O189 2.757 1_455 S
La161 O190 2.470 . S
C162 La160 2.928 . S
C162 C163 1.503 . S
C162 O180 1.261 . S
C162 O181 1.243 . S
C163 C162 1.503 . S
C163 C164 1.394 . S
C163 C168 1.373 . S
C164 C163 1.394 . S
C164 C165 1.380 . S
C164 H192 0.930 . S
C165 C164 1.380 . S
C165 C166 1.376 . S
C165 H193 0.930 . S
C166 C165 1.376 . S
C166 C167 1.370 . S
C167 C166 1.370 . S
C167 C168 1.396 . S
C167 H194 0.929 . S
C168 C163 1.373 . S
C168 C167 1.396 . S
C168 H195 0.929 . S
C169 O182 1.240 . S
C169 O183 1.289 . S
C170 O184 1.258 . S
C170 O185 1.256 . S
C171 La161 2.928 . S
C171 C172 1.503 . S
C171 O186 1.261 . S
C171 O187 1.243 . S
C172 C171 1.503 . S
C172 C173 1.394 . S
C172 C177 1.373 . S
C173 C172 1.394 . S
C173 C174 1.380 . S
C173 H196 0.930 . S
C174 C173 1.380 . S
C174 C175 1.376 . S
C174 H197 0.930 . S
C175 C174 1.376 . S
C175 C176 1.370 . S
C176 C175 1.370 . S
C176 C177 1.396 . S
C176 H198 0.929 . S
C177 C172 1.373 . S
C177 C176 1.396 . S
C177 H199 0.929 . S
C178 O188 1.240 1_655 S
C178 O189 1.289 . S
C179 O190 1.258 . S
C179 O191 1.256 1_455 S
O180 La160 2.521 . S
O180 C162 1.261 . S
O181 La160 2.628 . S
O181 C162 1.243 . S
O182 La160 2.554 . S
O182 C169 1.240 . S
O183 La160 2.757 . S
O183 La161 2.482 1_655 S
O183 C169 1.289 . S
O184 La160 2.470 . S
O184 C170 1.258 . S
O185 La161 2.503 1_655 S
O185 C170 1.256 . S
O186 La161 2.521 . S
O186 C171 1.261 . S
O187 La161 2.628 . S
O187 C171 1.243 . S
O188 La161 2.554 . S
O188 C178 1.240 1_455 S
O189 La160 2.482 . S
O189 La161 2.757 1_655 S
O189 C178 1.289 . S
O190 La161 2.470 . S
O190 C179 1.258 . S
O191 La160 2.503 . S
O191 C179 1.256 1_655 S
H192 C164 0.930 . S
H193 C165 0.930 . S
H194 C167 0.929 . S
H195 C168 0.929 . S
H196 C173 0.930 . S
H197 C174 0.930 . S
H198 C176 0.929 . S
H199 C177 0.929 . S
La200 C202 2.928 . S
La200 O220 2.521 . S
La200 O221 2.628 . S
La200 O222 2.554 . S
La200 O223 2.757 . S
La200 O224 2.470 . S
La200 O229 2.482 . S
La200 O231 2.503 . S
La201 C211 2.928 . S
La201 O223 2.482 . S
La201 O225 2.503 . S
La201 O226 2.521 . S
La201 O227 2.628 . S
La201 O228 2.554 . S
La201 O229 2.757 . S
La201 O230 2.470 . S
C202 La200 2.928 . S
C202 C203 1.503 . S
C202 O220 1.261 . S
C202 O221 1.243 . S
C203 C202 1.503 . S
C203 C204 1.394 . S
C203 C208 1.373 . S
C204 C203 1.394 . S
C204 C205 1.380 1_655 S
C204 H232 0.930 . S
C205 C204 1.380 1_455 S
C205 C206 1.376 . S
C205 H233 0.930 . S
C206 C205 1.376 . S
C206 C207 1.370 . S
C207 C206 1.370 . S
C207 C208 1.396 1_455 S
C207 H234 0.929 . S
C208 C203 1.373 . S
C208 C207 1.396 1_655 S
C208 H235 0.929 . S
C209 O222 1.240 . S
C209 O223 1.289 . S
C210 O224 1.258 . S
C210 O225 1.256 . S
C211 La201 2.928 . S
C211 C212 1.503 . S
C211 O226 1.261 . S
C211 O227 1.243 . S
C212 C211 1.503 . S
C212 C213 1.394 . S
C212 C217 1.373 . S
C213 C212 1.394 . S
C213 C214 1.380 . S
C213 H236 0.930 . S
C214 C213 1.380 . S
C214 C215 1.376 . S
C214 H237 0.930 . S
C215 C214 1.376 . S
C215 C216 1.370 . S
C216 C215 1.370 . S
C216 C217 1.396 . S
C216 H238 0.929 . S
C217 C212 1.373 . S
C217 C216 1.396 . S
C217 H239 0.929 . S
C218 O228 1.240 . S
C218 O229 1.289 . S
C219 O230 1.258 . S
C219 O231 1.256 . S
O220 La200 2.521 . S
O220 C202 1.261 . S
O221 La200 2.628 . S
O221 C202 1.243 . S
O222 La200 2.554 . S
O222 C209 1.240 . S
O223 La200 2.757 . S
O223 La201 2.482 . S
O223 C209 1.289 . S
O224 La200 2.470 . S
O224 C210 1.258 . S
O225 La201 2.503 . S
O225 C210 1.256 . S
O226 La201 2.521 . S
O226 C211 1.261 . S
O227 La201 2.628 . S
O227 C211 1.243 . S
O228 La201 2.554 . S
O228 C218 1.240 . S
O229 La200 2.482 . S
O229 La201 2.757 . S
O229 C218 1.289 . S
O230 La201 2.470 . S
O230 C219 1.258 . S
O231 La200 2.503 . S
O231 C219 1.256 . S
H232 C204 0.930 . S
H233 C205 0.930 . S
H234 C207 0.929 . S
H235 C208 0.929 . S
H236 C213 0.930 . S
H237 C214 0.930 . S
H238 C216 0.929 . S
H239 C217 0.929 . S
La240 C242 2.928 . S
La240 O260 2.521 . S
La240 O261 2.628 . S
La240 O262 2.554 . S
La240 O263 2.757 . S
La240 O264 2.470 . S
La240 O269 2.482 . S
La240 O271 2.503 . S
La241 C251 2.928 . S
La241 O263 2.482 1_455 S
La241 O265 2.503 1_455 S
La241 O266 2.521 . S
La241 O267 2.628 . S
La241 O268 2.554 . S
La241 O269 2.757 1_455 S
La241 O270 2.470 . S
C242 La240 2.928 . S
C242 C243 1.503 . S
C242 O260 1.261 . S
C242 O261 1.243 . S
C243 C242 1.503 . S
C243 C244 1.394 . S
C243 C248 1.373 . S
C244 C243 1.394 . S
C244 C245 1.380 . S
C244 H272 0.930 . S
C245 C244 1.380 . S
C245 C246 1.376 . S
C245 H273 0.930 . S
C246 C245 1.376 . S
C246 C247 1.370 . S
C247 C246 1.370 . S
C247 C248 1.396 . S
C247 H274 0.929 . S
C248 C243 1.373 . S
C248 C247 1.396 . S
C248 H275 0.929 . S
C249 O262 1.240 . S
C249 O263 1.289 . S
C250 O264 1.258 . S
C250 O265 1.256 . S
C251 La241 2.928 . S
C251 C252 1.503 . S
C251 O266 1.261 . S
C251 O267 1.243 . S
C252 C251 1.503 . S
C252 C253 1.394 . S
C252 C257 1.373 . S
C253 C252 1.394 . S
C253 C254 1.380 . S
C253 H276 0.930 . S
C254 C253 1.380 . S
C254 C255 1.376 . S
C254 H277 0.930 . S
C255 C254 1.376 . S
C255 C256 1.370 . S
C256 C255 1.370 . S
C256 C257 1.396 . S
C256 H278 0.929 . S
C257 C252 1.373 . S
C257 C256 1.396 . S
C257 H279 0.929 . S
C258 O268 1.240 1_655 S
C258 O269 1.289 . S
C259 O270 1.258 . S
C259 O271 1.256 1_455 S
O260 La240 2.521 . S
O260 C242 1.261 . S
O261 La240 2.628 . S
O261 C242 1.243 . S
O262 La240 2.554 . S
O262 C249 1.240 . S
O263 La240 2.757 . S
O263 La241 2.482 1_655 S
O263 C249 1.289 . S
O264 La240 2.470 . S
O264 C250 1.258 . S
O265 La241 2.503 1_655 S
O265 C250 1.256 . S
O266 La241 2.521 . S
O266 C251 1.261 . S
O267 La241 2.628 . S
O267 C251 1.243 . S
O268 La241 2.554 . S
O268 C258 1.240 1_455 S
O269 La240 2.482 . S
O269 La241 2.757 1_655 S
O269 C258 1.289 . S
O270 La241 2.470 . S
O270 C259 1.258 . S
O271 La240 2.503 . S
O271 C259 1.256 1_655 S
H272 C244 0.930 . S
H273 C245 0.930 . S
H274 C247 0.929 . S
H275 C248 0.929 . S
H276 C253 0.930 . S
H277 C254 0.930 . S
H278 C256 0.929 . S
H279 C257 0.929 . S
La280 C282 2.928 . S
La280 O300 2.521 . S
La280 O301 2.628 . S
La280 O302 2.554 . S
La280 O303 2.757 . S
La280 O304 2.470 . S
La280 O309 2.482 . S
La280 O311 2.503 . S
La281 C291 2.928 . S
La281 O303 2.482 . S
La281 O305 2.503 . S
La281 O306 2.521 . S
La281 O307 2.628 . S
La281 O308 2.554 . S
La281 O309 2.757 . S
La281 O310 2.470 . S
C282 La280 2.928 . S
C282 C283 1.503 . S
C282 O300 1.261 . S
C282 O301 1.243 . S
C283 C282 1.503 . S
C283 C284 1.394 . S
C283 C288 1.373 . S
C284 C283 1.394 . S
C284 C285 1.380 1_655 S
C284 H312 0.930 . S
C285 C284 1.380 1_455 S
C285 C286 1.376 . S
C285 H313 0.930 . S
C286 C285 1.376 . S
C286 C287 1.370 . S
C287 C286 1.370 . S
C287 C288 1.396 1_455 S
C287 H314 0.929 . S
C288 C283 1.373 . S
C288 C287 1.396 1_655 S
C288 H315 0.929 . S
C289 O302 1.240 . S
C289 O303 1.289 . S
C290 O304 1.258 . S
C290 O305 1.256 . S
C291 La281 2.928 . S
C291 C292 1.503 . S
C291 O306 1.261 . S
C291 O307 1.243 . S
C292 C291 1.503 . S
C292 C293 1.394 . S
C292 C297 1.373 . S
C293 C292 1.394 . S
C293 C294 1.380 . S
C293 H316 0.930 . S
C294 C293 1.380 . S
C294 C295 1.376 . S
C294 H317 0.930 . S
C295 C294 1.376 . S
C295 C296 1.370 . S
C296 C295 1.370 . S
C296 C297 1.396 . S
C296 H318 0.929 . S
C297 C292 1.373 . S
C297 C296 1.396 . S
C297 H319 0.929 . S
C298 O308 1.240 . S
C298 O309 1.289 . S
C299 O310 1.258 . S
C299 O311 1.256 . S
O300 La280 2.521 . S
O300 C282 1.261 . S
O301 La280 2.628 . S
O301 C282 1.243 . S
O302 La280 2.554 . S
O302 C289 1.240 . S
O303 La280 2.757 . S
O303 La281 2.482 . S
O303 C289 1.289 . S
O304 La280 2.470 . S
O304 C290 1.258 . S
O305 La281 2.503 . S
O305 C290 1.256 . S
O306 La281 2.521 . S
O306 C291 1.261 . S
O307 La281 2.628 . S
O307 C291 1.243 . S
O308 La281 2.554 . S
O308 C298 1.240 . S
O309 La280 2.482 . S
O309 La281 2.757 . S
O309 C298 1.289 . S
O310 La281 2.470 . S
O310 C299 1.258 . S
O311 La280 2.503 . S
O311 C299 1.256 . S
H312 C284 0.930 . S
H313 C285 0.930 . S
H314 C287 0.929 . S
H315 C288 0.929 . S
H316 C293 0.930 . S
H317 C294 0.930 . S
H318 C296 0.929 . S
H319 C297 0.929 . S
La320 C322 2.928 1_545 S
La320 O340 2.521 . S
La320 O341 2.628 1_545 S
La320 O342 2.554 . S
La320 O343 2.757 1_645 S
La320 O344 2.470 1_545 S
La320 O349 2.482 1_645 S
La320 O351 2.503 1_655 S
La321 C331 2.928 . S
La321 O343 2.482 . S
La321 O345 2.503 . S
La321 O346 2.521 . S
La321 O347 2.628 . S
La321 O348 2.554 . S
La321 O349 2.757 . S
La321 O350 2.470 1_565 S
C322 La320 2.928 1_565 S
C322 C323 1.503 . S
C322 O340 1.261 1_565 S
C322 O341 1.243 . S
C323 C322 1.503 . S
C323 C324 1.394 . S
C323 C328 1.373 . S
C324 C323 1.394 . S
C324 C325 1.380 . S
C324 H352 0.930 1_565 S
C325 C324 1.380 . S
C325 C326 1.376 . S
C325 H353 0.930 . S
C326 C325 1.376 . S
C326 C327 1.370 . S
C327 C326 1.370 . S
C327 C328 1.396 . S
C327 H354 0.929 . S
C328 C323 1.373 . S
C328 C327 1.396 . S
C328 H355 0.929 . S
C329 O342 1.240 1_465 S
C329 O343 1.289 . S
C330 O344 1.258 . S
C330 O345 1.256 1_655 S
C331 La321 2.928 . S
C331 C332 1.503 . S
C331 O346 1.261 . S
C331 O347 1.243 . S
C332 C331 1.503 . S
C332 C333 1.394 . S
C332 C337 1.373 1_565 S
C333 C332 1.394 . S
C333 C334 1.393 . S
C333 H356 0.930 . S
C334 C333 1.393 . S
C334 C335 1.358 1_565 S
C334 H357 0.939 . S
C335 C334 1.358 1_545 S
C335 C336 1.370 . S
C336 C335 1.370 . S
C336 C337 1.396 . S
C336 H358 0.929 . S
C337 C332 1.373 1_545 S
C337 C336 1.396 . S
C337 H359 0.929 . S
C338 O348 1.240 . S
C338 O349 1.289 . S
C339 O350 1.258 . S
C339 O351 1.256 . S
O340 La320 2.521 . S
O340 C322 1.261 1_545 S
O341 La320 2.628 1_565 S
O341 C322 1.243 . S
O342 La320 2.554 . S
O342 C329 1.240 1_645 S
O343 La320 2.757 1_465 S
O343 La321 2.482 . S
O343 C329 1.289 . S
O344 La320 2.470 1_565 S
O344 C330 1.258 . S
O345 La321 2.503 . S
O345 C330 1.256 1_455 S
O346 La321 2.521 . S
O346 C331 1.261 . S
O347 La321 2.628 . S
O347 C331 1.243 . S
O348 La321 2.554 . S
O348 C338 1.240 . S
O349 La320 2.482 1_465 S
O349 La321 2.757 . S
O349 C338 1.289 . S
O350 La321 2.470 1_545 S
O350 C339 1.258 . S
O351 La320 2.503 1_455 S
O351 C339 1.256 . S
H352 C324 0.930 1_545 S
H353 C325 0.930 . S
H354 C327 0.929 . S
H355 C328 0.929 . S
H356 C333 0.930 . S
H357 C334 0.939 . S
H358 C336 0.929 . S
H359 C337 0.929 . S
La360 C362 2.928 . S
La360 O380 2.521 . S
La360 O381 2.628 . S
La360 O382 2.554 . S
La360 O383 2.757 . S
La360 O384 2.470 . S
La360 O389 2.482 . S
La360 O391 2.503 . S
La361 C371 2.928 . S
La361 O383 2.482 . S
La361 O385 2.503 . S
La361 O386 2.521 . S
La361 O387 2.628 . S
La361 O388 2.554 . S
La361 O389 2.757 . S
La361 O390 2.470 . S
C362 La360 2.928 . S
C362 C363 1.503 . S
C362 O380 1.261 . S
C362 O381 1.243 . S
C363 C362 1.503 . S
C363 C364 1.394 . S
C363 C368 1.373 . S
C364 C363 1.394 . S
C364 C365 1.380 . S
C364 H392 0.930 . S
C365 C364 1.380 . S
C365 C366 1.376 . S
C365 H393 0.930 . S
C366 C365 1.376 . S
C366 C367 1.370 . S
C367 C366 1.370 . S
C367 C368 1.396 . S
C367 H394 0.929 . S
C368 C363 1.373 . S
C368 C367 1.396 . S
C368 H395 0.929 . S
C369 O382 1.240 . S
C369 O383 1.289 . S
C370 O384 1.258 . S
C370 O385 1.256 . S
C371 La361 2.928 . S
C371 C372 1.503 . S
C371 O386 1.261 . S
C371 O387 1.243 . S
C372 C371 1.503 . S
C372 C373 1.394 . S
C372 C377 1.373 . S
C373 C372 1.394 . S
C373 C374 1.380 1_455 S
C373 H396 0.930 . S
C374 C373 1.380 1_655 S
C374 C375 1.376 . S
C374 H397 0.930 . S
C375 C374 1.376 . S
C375 C376 1.370 . S
C376 C375 1.370 . S
C376 C377 1.396 1_655 S
C376 H398 0.929 . S
C377 C372 1.373 . S
C377 C376 1.396 1_455 S
C377 H399 0.929 . S
C378 O388 1.240 . S
C378 O389 1.289 . S
C379 O390 1.258 . S
C379 O391 1.256 . S
O380 La360 2.521 . S
O380 C362 1.261 . S
O381 La360 2.628 . S
O381 C362 1.243 . S
O382 La360 2.554 . S
O382 C369 1.240 . S
O383 La360 2.757 . S
O383 La361 2.482 . S
O383 C369 1.289 . S
O384 La360 2.470 . S
O384 C370 1.258 . S
O385 La361 2.503 . S
O385 C370 1.256 . S
O386 La361 2.521 . S
O386 C371 1.261 . S
O387 La361 2.628 . S
O387 C371 1.243 . S
O388 La361 2.554 . S
O388 C378 1.240 . S
O389 La360 2.482 . S
O389 La361 2.757 . S
O389 C378 1.289 . S
O390 La361 2.470 . S
O390 C379 1.258 . S
O391 La360 2.503 . S
O391 C379 1.256 . S
H392 C364 0.930 . S
H393 C365 0.930 . S
H394 C367 0.929 . S
H395 C368 0.929 . S
H396 C373 0.930 . S
H397 C374 0.930 . S
H398 C376 0.929 . S
H399 C377 0.929 . S
La400 C402 2.928 . S
La400 O420 2.521 . S
La400 O421 2.628 . S
La400 O422 2.554 . S
La400 O423 2.757 1_655 S
La400 O424 2.470 . S
La400 O429 2.482 1_655 S
La400 O431 2.503 1_655 S
La401 C411 2.928 . S
La401 O423 2.482 . S
La401 O425 2.503 . S
La401 O426 2.521 . S
La401 O427 2.628 . S
La401 O428 2.554 . S
La401 O429 2.757 . S
La401 O430 2.470 . S
C402 La400 2.928 . S
C402 C403 1.503 . S
C402 O420 1.261 . S
C402 O421 1.243 . S
C403 C402 1.503 . S
C403 C404 1.394 . S
C403 C408 1.373 . S
C404 C403 1.394 . S
C404 C405 1.380 . S
C404 H432 0.930 . S
C405 C404 1.380 . S
C405 C406 1.376 . S
C405 H433 0.930 . S
C406 C405 1.376 . S
C406 C407 1.370 . S
C407 C406 1.370 . S
C407 C408 1.396 . S
C407 H434 0.929 . S
C408 C403 1.373 . S
C408 C407 1.396 . S
C408 H435 0.929 . S
C409 O422 1.240 1_455 S
C409 O423 1.289 . S
C410 O424 1.258 . S
C410 O425 1.256 1_655 S
C411 La401 2.928 . S
C411 C412 1.503 . S
C411 O426 1.261 . S
C411 O427 1.243 . S
C412 C411 1.503 . S
C412 C413 1.394 . S
C412 C417 1.373 . S
C413 C412 1.394 . S
C413 C414 1.380 . S
C413 H436 0.930 . S
C414 C413 1.380 . S
C414 C415 1.376 . S
C414 H437 0.930 . S
C415 C414 1.376 . S
C415 C416 1.370 . S
C416 C415 1.370 . S
C416 C417 1.396 . S
C416 H438 0.929 . S
C417 C412 1.373 . S
C417 C416 1.396 . S
C417 H439 0.929 . S
C418 O428 1.240 . S
C418 O429 1.289 . S
C419 O430 1.258 . S
C419 O431 1.256 . S
O420 La400 2.521 . S
O420 C402 1.261 . S
O421 La400 2.628 . S
O421 C402 1.243 . S
O422 La400 2.554 . S
O422 C409 1.240 1_655 S
O423 La400 2.757 1_455 S
O423 La401 2.482 . S
O423 C409 1.289 . S
O424 La400 2.470 . S
O424 C410 1.258 . S
O425 La401 2.503 . S
O425 C410 1.256 1_455 S
O426 La401 2.521 . S
O426 C411 1.261 . S
O427 La401 2.628 . S
O427 C411 1.243 . S
O428 La401 2.554 . S
O428 C418 1.240 . S
O429 La400 2.482 1_455 S
O429 La401 2.757 . S
O429 C418 1.289 . S
O430 La401 2.470 . S
O430 C419 1.258 . S
O431 La400 2.503 1_455 S
O431 C419 1.256 . S
H432 C404 0.930 . S
H433 C405 0.930 . S
H434 C407 0.929 . S
H435 C408 0.929 . S
H436 C413 0.930 . S
H437 C414 0.930 . S
H438 C416 0.929 . S
H439 C417 0.929 . S
La440 C442 2.928 1_545 S
La440 O460 2.521 . S
La440 O461 2.628 1_545 S
La440 O462 2.554 . S
La440 O463 2.757 1_545 S
La440 O464 2.470 1_545 S
La440 O469 2.482 1_545 S
La440 O471 2.503 . S
La441 C451 2.928 . S
La441 O463 2.482 . S
La441 O465 2.503 . S
La441 O466 2.521 . S
La441 O467 2.628 . S
La441 O468 2.554 . S
La441 O469 2.757 . S
La441 O470 2.470 1_565 S
C442 La440 2.928 1_565 S
C442 C443 1.503 . S
C442 O460 1.261 1_565 S
C442 O461 1.243 . S
C443 C442 1.503 . S
C443 C444 1.394 . S
C443 C448 1.373 . S
C444 C443 1.394 . S
C444 C445 1.380 . S
C444 H472 0.930 1_565 S
C445 C444 1.380 . S
C445 C446 1.376 . S
C445 H473 0.930 . S
C446 C445 1.376 . S
C446 C447 1.370 . S
C447 C446 1.370 . S
C447 C448 1.396 . S
C447 H474 0.929 . S
C448 C443 1.373 . S
C448 C447 1.396 . S
C448 H475 0.929 . S
C449 O462 1.240 1_565 S
C449 O463 1.289 . S
C450 O464 1.258 . S
C450 O465 1.256 . S
C451 La441 2.928 . S
C451 C452 1.503 . S
C451 O466 1.261 . S
C451 O467 1.243 . S
C452 C451 1.503 . S
C452 C453 1.394 . S
C452 C457 1.373 1_565 S
C453 C452 1.394 . S
C453 C454 1.393 1_455 S
C453 H476 0.930 . S
C454 C453 1.393 1_655 S
C454 C455 1.358 1_565 S
C454 H477 0.939 . S
C455 C454 1.358 1_545 S
C455 C456 1.370 . S
C456 C455 1.370 . S
C456 C457 1.396 1_655 S
C456 H478 0.929 . S
C457 C452 1.373 1_545 S
C457 C456 1.396 1_455 S
C457 H479 0.929 . S
C458 O468 1.240 . S
C458 O469 1.289 . S
C459 O470 1.258 . S
C459 O471 1.256 . S
O460 La440 2.521 . S
O460 C442 1.261 1_545 S
O461 La440 2.628 1_565 S
O461 C442 1.243 . S
O462 La440 2.554 . S
O462 C449 1.240 1_545 S
O463 La440 2.757 1_565 S
O463 La441 2.482 . S
O463 C449 1.289 . S
O464 La440 2.470 1_565 S
O464 C450 1.258 . S
O465 La441 2.503 . S
O465 C450 1.256 . S
O466 La441 2.521 . S
O466 C451 1.261 . S
O467 La441 2.628 . S
O467 C451 1.243 . S
O468 La441 2.554 . S
O468 C458 1.240 . S
O469 La440 2.482 1_565 S
O469 La441 2.757 . S
O469 C458 1.289 . S
O470 La441 2.470 1_545 S
O470 C459 1.258 . S
O471 La440 2.503 . S
O471 C459 1.256 . S
H472 C444 0.930 1_545 S
H473 C445 0.930 . S
H474 C447 0.929 . S
H475 C448 0.929 . S
H476 C453 0.930 . S
H477 C454 0.939 . S
H478 C456 0.929 . S
H479 C457 0.929 . S
La480 C482 2.928 . S
La480 O500 2.521 . S
La480 O501 2.628 . S
La480 O502 2.554 . S
La480 O503 2.757 . S
La480 O504 2.470 1_545 S
La480 O509 2.482 . S
La480 O511 2.503 . S
La481 C491 2.928 1_565 S
La481 O503 2.482 1_465 S
La481 O505 2.503 1_455 S
La481 O506 2.521 . S
La481 O507 2.628 1_565 S
La481 O508 2.554 . S
La481 O509 2.757 1_465 S
La481 O510 2.470 1_565 S
C482 La480 2.928 . S
C482 C483 1.503 . S
C482 O500 1.261 . S
C482 O501 1.243 . S
C483 C482 1.503 . S
C483 C484 1.394 . S
C483 C488 1.373 1_545 S
C484 C483 1.394 . S
C484 C485 1.393 . S
C484 H512 0.930 . S
C485 C484 1.393 . S
C485 C486 1.358 1_545 S
C485 H513 0.939 . S
C486 C485 1.358 1_565 S
C486 C487 1.370 . S
C487 C486 1.370 . S
C487 C488 1.396 . S
C487 H514 0.929 . S
C488 C483 1.373 1_565 S
C488 C487 1.396 . S
C488 H515 0.929 . S
C489 O502 1.240 . S
C489 O503 1.289 . S
C490 O504 1.258 . S
C490 O505 1.256 . S
C491 La481 2.928 1_545 S
C491 C492 1.503 . S
C491 O506 1.261 1_545 S
C491 O507 1.243 . S
C492 C491 1.503 . S
C492 C493 1.394 . S
C492 C497 1.373 . S
C493 C492 1.394 . S
C493 C494 1.380 . S
C493 H516 0.930 1_545 S
C494 C493 1.380 . S
C494 C495 1.376 . S
C494 H517 0.930 . S
C495 C494 1.376 . S
C495 C496 1.370 . S
C496 C495 1.370 . S
C496 C497 1.396 . S
C496 H518 0.929 . S
C497 C492 1.373 . S
C497 C496 1.396 . S
C497 H519 0.929 . S
C498 O508 1.240 1_645 S
C498 O509 1.289 . S
C499 O510 1.258 . S
C499 O511 1.256 1_455 S
O500 La480 2.521 . S
O500 C482 1.261 . S
O501 La480 2.628 . S
O501 C482 1.243 . S
O502 La480 2.554 . S
O502 C489 1.240 . S
O503 La480 2.757 . S
O503 La481 2.482 1_645 S
O503 C489 1.289 . S
O504 La480 2.470 1_565 S
O504 C490 1.258 . S
O505 La481 2.503 1_655 S
O505 C490 1.256 . S
O506 La481 2.521 . S
O506 C491 1.261 1_565 S
O507 La481 2.628 1_545 S
O507 C491 1.243 . S
O508 La481 2.554 . S
O508 C498 1.240 1_465 S
O509 La480 2.482 . S
O509 La481 2.757 1_645 S
O509 C498 1.289 . S
O510 La481 2.470 1_545 S
O510 C499 1.258 . S
O511 La480 2.503 . S
O511 C499 1.256 1_655 S
H512 C484 0.930 . S
H513 C485 0.939 . S
H514 C487 0.929 . S
H515 C488 0.929 . S
H516 C493 0.930 1_565 S
H517 C494 0.930 . S
H518 C496 0.929 . S
H519 C497 0.929 . S
La520 C522 2.928 . S
La520 O540 2.521 . S
La520 O541 2.628 . S
La520 O542 2.554 . S
La520 O543 2.757 . S
La520 O544 2.470 . S
La520 O549 2.482 . S
La520 O551 2.503 . S
La521 C531 2.928 . S
La521 O543 2.482 . S
La521 O545 2.503 . S
La521 O546 2.521 . S
La521 O547 2.628 . S
La521 O548 2.554 . S
La521 O549 2.757 . S
La521 O550 2.470 . S
C522 La520 2.928 . S
C522 C523 1.503 . S
C522 O540 1.261 . S
C522 O541 1.243 . S
C523 C522 1.503 . S
C523 C524 1.394 . S
C523 C528 1.373 . S
C524 C523 1.394 . S
C524 C525 1.380 1_655 S
C524 H552 0.930 . S
C525 C524 1.380 1_455 S
C525 C526 1.376 . S
C525 H553 0.930 . S
C526 C525 1.376 . S
C526 C527 1.370 . S
C527 C526 1.370 . S
C527 C528 1.396 1_455 S
C527 H554 0.929 . S
C528 C523 1.373 . S
C528 C527 1.396 1_655 S
C528 H555 0.929 . S
C529 O542 1.240 . S
C529 O543 1.289 . S
C530 O544 1.258 . S
C530 O545 1.256 . S
C531 La521 2.928 . S
C531 C532 1.503 . S
C531 O546 1.261 . S
C531 O547 1.243 . S
C532 C531 1.503 . S
C532 C533 1.394 . S
C532 C537 1.373 . S
C533 C532 1.394 . S
C533 C534 1.380 . S
C533 H556 0.930 . S
C534 C533 1.380 . S
C534 C535 1.376 . S
C534 H557 0.930 . S
C535 C534 1.376 . S
C535 C536 1.370 . S
C536 C535 1.370 . S
C536 C537 1.396 . S
C536 H558 0.929 . S
C537 C532 1.373 . S
C537 C536 1.396 . S
C537 H559 0.929 . S
C538 O548 1.240 . S
C538 O549 1.289 . S
C539 O550 1.258 . S
C539 O551 1.256 . S
O540 La520 2.521 . S
O540 C522 1.261 . S
O541 La520 2.628 . S
O541 C522 1.243 . S
O542 La520 2.554 . S
O542 C529 1.240 . S
O543 La520 2.757 . S
O543 La521 2.482 . S
O543 C529 1.289 . S
O544 La520 2.470 . S
O544 C530 1.258 . S
O545 La521 2.503 . S
O545 C530 1.256 . S
O546 La521 2.521 . S
O546 C531 1.261 . S
O547 La521 2.628 . S
O547 C531 1.243 . S
O548 La521 2.554 . S
O548 C538 1.240 . S
O549 La520 2.482 . S
O549 La521 2.757 . S
O549 C538 1.289 . S
O550 La521 2.470 . S
O550 C539 1.258 . S
O551 La520 2.503 . S
O551 C539 1.256 . S
H552 C524 0.930 . S
H553 C525 0.930 . S
H554 C527 0.929 . S
H555 C528 0.929 . S
H556 C533 0.930 . S
H557 C534 0.930 . S
H558 C536 0.929 . S
H559 C537 0.929 . S
La560 C562 2.928 . S
La560 O580 2.521 . S
La560 O581 2.628 . S
La560 O582 2.554 . S
La560 O583 2.757 . S
La560 O584 2.470 . S
La560 O589 2.482 . S
La560 O591 2.503 . S
La561 C571 2.928 . S
La561 O583 2.482 1_455 S
La561 O585 2.503 1_455 S
La561 O586 2.521 . S
La561 O587 2.628 . S
La561 O588 2.554 . S
La561 O589 2.757 1_455 S
La561 O590 2.470 . S
C562 La560 2.928 . S
C562 C563 1.503 . S
C562 O580 1.261 . S
C562 O581 1.243 . S
C563 C562 1.503 . S
C563 C564 1.394 . S
C563 C568 1.373 . S
C564 C563 1.394 . S
C564 C565 1.380 . S
C564 H592 0.930 . S
C565 C564 1.380 . S
C565 C566 1.376 . S
C565 H593 0.930 . S
C566 C565 1.376 . S
C566 C567 1.370 . S
C567 C566 1.370 . S
C567 C568 1.396 . S
C567 H594 0.929 . S
C568 C563 1.373 . S
C568 C567 1.396 . S
C568 H595 0.929 . S
C569 O582 1.240 . S
C569 O583 1.289 . S
C570 O584 1.258 . S
C570 O585 1.256 . S
C571 La561 2.928 . S
C571 C572 1.503 . S
C571 O586 1.261 . S
C571 O587 1.243 . S
C572 C571 1.503 . S
C572 C573 1.394 . S
C572 C577 1.373 . S
C573 C572 1.394 . S
C573 C574 1.380 . S
C573 H596 0.930 . S
C574 C573 1.380 . S
C574 C575 1.376 . S
C574 H597 0.930 . S
C575 C574 1.376 . S
C575 C576 1.370 . S
C576 C575 1.370 . S
C576 C577 1.396 . S
C576 H598 0.929 . S
C577 C572 1.373 . S
C577 C576 1.396 . S
C577 H599 0.929 . S
C578 O588 1.240 1_655 S
C578 O589 1.289 . S
C579 O590 1.258 . S
C579 O591 1.256 1_455 S
O580 La560 2.521 . S
O580 C562 1.261 . S
O581 La560 2.628 . S
O581 C562 1.243 . S
O582 La560 2.554 . S
O582 C569 1.240 . S
O583 La560 2.757 . S
O583 La561 2.482 1_655 S
O583 C569 1.289 . S
O584 La560 2.470 . S
O584 C570 1.258 . S
O585 La561 2.503 1_655 S
O585 C570 1.256 . S
O586 La561 2.521 . S
O586 C571 1.261 . S
O587 La561 2.628 . S
O587 C571 1.243 . S
O588 La561 2.554 . S
O588 C578 1.240 1_455 S
O589 La560 2.482 . S
O589 La561 2.757 1_655 S
O589 C578 1.289 . S
O590 La561 2.470 . S
O590 C579 1.258 . S
O591 La560 2.503 . S
O591 C579 1.256 1_655 S
H592 C564 0.930 . S
H593 C565 0.930 . S
H594 C567 0.929 . S
H595 C568 0.929 . S
H596 C573 0.930 . S
H597 C574 0.930 . S
H598 C576 0.929 . S
H599 C577 0.929 . S
La600 C602 2.928 . S
La600 O620 2.521 . S
La600 O621 2.628 . S
La600 O622 2.554 . S
La600 O623 2.757 . S
La600 O624 2.470 1_545 S
La600 O629 2.482 . S
La600 O631 2.503 . S
La601 C611 2.928 1_565 S
La601 O623 2.482 1_565 S
La601 O625 2.503 . S
La601 O626 2.521 . S
La601 O627 2.628 1_565 S
La601 O628 2.554 . S
La601 O629 2.757 1_565 S
La601 O630 2.470 1_565 S
C602 La600 2.928 . S
C602 C603 1.503 . S
C602 O620 1.261 . S
C602 O621 1.243 . S
C603 C602 1.503 . S
C603 C604 1.394 . S
C603 C608 1.373 1_545 S
C604 C603 1.394 . S
C604 C605 1.393 1_655 S
C604 H632 0.930 . S
C605 C604 1.393 1_455 S
C605 C606 1.358 1_545 S
C605 H633 0.939 . S
C606 C605 1.358 1_565 S
C606 C607 1.370 . S
C607 C606 1.370 . S
C607 C608 1.396 1_455 S
C607 H634 0.929 . S
C608 C603 1.373 1_565 S
C608 C607 1.396 1_655 S
C608 H635 0.929 . S
C609 O622 1.240 . S
C609 O623 1.289 . S
C610 O624 1.258 . S
C610 O625 1.256 . S
C611 La601 2.928 1_545 S
C611 C612 1.503 . S
C611 O626 1.261 1_545 S
C611 O627 1.243 . S
C612 C611 1.503 . S
C612 C613 1.394 . S
C612 C617 1.373 . S
C613 C612 1.394 . S
C613 C614 1.380 . S
C613 H636 0.930 1_545 S
C614 C613 1.380 . S
C614 C615 1.376 . S
C614 H637 0.930 . S
C615 C614 1.376 . S
C615 C616 1.370 . S
C616 C615 1.370 . S
C616 C617 1.396 . S
C616 H638 0.929 . S
C617 C612 1.373 . S
C617 C616 1.396 . S
C617 H639 0.929 . S
C618 O628 1.240 1_545 S
C618 O629 1.289 . S
C619 O630 1.258 . S
C619 O631 1.256 . S
O620 La600 2.521 . S
O620 C602 1.261 . S
O621 La600 2.628 . S
O621 C602 1.243 . S
O622 La600 2.554 . S
O622 C609 1.240 . S
O623 La600 2.757 . S
O623 La601 2.482 1_545 S
O623 C609 1.289 . S
O624 La600 2.470 1_565 S
O624 C610 1.258 . S
O625 La601 2.503 . S
O625 C610 1.256 . S
O626 La601 2.521 . S
O626 C611 1.261 1_565 S
O627 La601 2.628 1_545 S
O627 C611 1.243 . S
O628 La601 2.554 . S
O628 C618 1.240 1_565 S
O629 La600 2.482 . S
O629 La601 2.757 1_545 S
O629 C618 1.289 . S
O630 La601 2.470 1_545 S
O630 C619 1.258 . S
O631 La600 2.503 . S
O631 C619 1.256 . S
H632 C604 0.930 . S
H633 C605 0.939 . S
H634 C607 0.929 . S
H635 C608 0.929 . S
H636 C613 0.930 1_565 S
H637 C614 0.930 . S
H638 C616 0.929 . S
H639 C617 0.929 . S
La640 C642 2.928 . S
La640 O660 2.521 . S
La640 O661 2.628 . S
La640 O662 2.554 . S
La640 O663 2.757 . S
La640 O664 2.470 . S
La640 O669 2.482 . S
La640 O671 2.503 . S
La641 C651 2.928 . S
La641 O663 2.482 . S
La641 O665 2.503 . S
La641 O666 2.521 . S
La641 O667 2.628 . S
La641 O668 2.554 . S
La641 O669 2.757 . S
La641 O670 2.470 . S
C642 La640 2.928 . S
C642 C643 1.503 . S
C642 O660 1.261 . S
C642 O661 1.243 . S
C643 C642 1.503 . S
C643 C644 1.394 . S
C643 C648 1.373 . S
C644 C643 1.394 . S
C644 C645 1.380 . S
C644 H672 0.930 . S
C645 C644 1.380 . S
C645 C646 1.376 . S
C645 H673 0.930 . S
C646 C645 1.376 . S
C646 C647 1.370 . S
C647 C646 1.370 . S
C647 C648 1.396 . S
C647 H674 0.929 . S
C648 C643 1.373 . S
C648 C647 1.396 . S
C648 H675 0.929 . S
C649 O662 1.240 . S
C649 O663 1.289 . S
C650 O664 1.258 . S
C650 O665 1.256 . S
C651 La641 2.928 . S
C651 C652 1.503 . S
C651 O666 1.261 . S
C651 O667 1.243 . S
C652 C651 1.503 . S
C652 C653 1.394 . S
C652 C657 1.373 . S
C653 C652 1.394 . S
C653 C654 1.380 . S
C653 H676 0.930 . S
C654 C653 1.380 . S
C654 C655 1.376 . S
C654 H677 0.930 . S
C655 C654 1.376 . S
C655 C656 1.370 . S
C656 C655 1.370 . S
C656 C657 1.396 . S
C656 H678 0.929 . S
C657 C652 1.373 . S
C657 C656 1.396 . S
C657 H679 0.929 . S
C658 O668 1.240 . S
C658 O669 1.289 . S
C659 O670 1.258 . S
C659 O671 1.256 . S
O660 La640 2.521 . S
O660 C642 1.261 . S
O661 La640 2.628 . S
O661 C642 1.243 . S
O662 La640 2.554 . S
O662 C649 1.240 . S
O663 La640 2.757 . S
O663 La641 2.482 . S
O663 C649 1.289 . S
O664 La640 2.470 . S
O664 C650 1.258 . S
O665 La641 2.503 . S
O665 C650 1.256 . S
O666 La641 2.521 . S
O666 C651 1.261 . S
O667 La641 2.628 . S
O667 C651 1.243 . S
O668 La641 2.554 . S
O668 C658 1.240 . S
O669 La640 2.482 . S
O669 La641 2.757 . S
O669 C658 1.289 . S
O670 La641 2.470 . S
O670 C659 1.258 . S
O671 La640 2.503 . S
O671 C659 1.256 . S
H672 C644 0.930 . S
H673 C645 0.930 . S
H674 C647 0.929 . S
H675 C648 0.929 . S
H676 C653 0.930 . S
H677 C654 0.930 . S
H678 C656 0.929 . S
H679 C657 0.929 . S
La680 C682 2.928 . S
La680 O700 2.521 . S
La680 O701 2.628 . S
La680 O702 2.554 . S
La680 O703 2.757 . S
La680 O704 2.470 . S
La680 O709 2.482 . S
La680 O711 2.503 . S
La681 C691 2.928 . S
La681 O703 2.482 . S
La681 O705 2.503 . S
La681 O706 2.521 . S
La681 O707 2.628 . S
La681 O708 2.554 . S
La681 O709 2.757 . S
La681 O710 2.470 . S
C682 La680 2.928 . S
C682 C683 1.503 . S
C682 O700 1.261 . S
C682 O701 1.243 . S
C683 C682 1.503 . S
C683 C684 1.394 . S
C683 C688 1.373 . S
C684 C683 1.394 . S
C684 C685 1.380 . S
C684 H712 0.930 . S
C685 C684 1.380 . S
C685 C686 1.376 . S
C685 H713 0.930 . S
C686 C685 1.376 . S
C686 C687 1.370 . S
C687 C686 1.370 . S
C687 C688 1.396 . S
C687 H714 0.929 . S
C688 C683 1.373 . S
C688 C687 1.396 . S
C688 H715 0.929 . S
C689 O702 1.240 . S
C689 O703 1.289 . S
C690 O704 1.258 . S
C690 O705 1.256 . S
C691 La681 2.928 . S
C691 C692 1.503 . S
C691 O706 1.261 . S
C691 O707 1.243 . S
C692 C691 1.503 . S
C692 C693 1.394 . S
C692 C697 1.373 . S
C693 C692 1.394 . S
C693 C694 1.380 . S
C693 H716 0.930 . S
C694 C693 1.380 . S
C694 C695 1.376 . S
C694 H717 0.930 . S
C695 C694 1.376 . S
C695 C696 1.370 . S
C696 C695 1.370 . S
C696 C697 1.396 . S
C696 H718 0.929 . S
C697 C692 1.373 . S
C697 C696 1.396 . S
C697 H719 0.929 . S
C698 O708 1.240 . S
C698 O709 1.289 . S
C699 O710 1.258 . S
C699 O711 1.256 . S
O700 La680 2.521 . S
O700 C682 1.261 . S
O701 La680 2.628 . S
O701 C682 1.243 . S
O702 La680 2.554 . S
O702 C689 1.240 . S
O703 La680 2.757 . S
O703 La681 2.482 . S
O703 C689 1.289 . S
O704 La680 2.470 . S
O704 C690 1.258 . S
O705 La681 2.503 . S
O705 C690 1.256 . S
O706 La681 2.521 . S
O706 C691 1.261 . S
O707 La681 2.628 . S
O707 C691 1.243 . S
O708 La681 2.554 . S
O708 C698 1.240 . S
O709 La680 2.482 . S
O709 La681 2.757 . S
O709 C698 1.289 . S
O710 La681 2.470 . S
O710 C699 1.258 . S
O711 La680 2.503 . S
O711 C699 1.256 . S
H712 C684 0.930 . S
H713 C685 0.930 . S
H714 C687 0.929 . S
H715 C688 0.929 . S
H716 C693 0.930 . S
H717 C694 0.930 . S
H718 C696 0.929 . S
H719 C697 0.929 . S
La720 C722 2.928 . S
La720 O740 2.521 . S
La720 O741 2.628 . S
La720 O742 2.554 . S
La720 O743 2.757 . S
La720 O744 2.470 . S
La720 O749 2.482 . S
La720 O751 2.503 . S
La721 C731 2.928 . S
La721 O743 2.482 . S
La721 O745 2.503 . S
La721 O746 2.521 . S
La721 O747 2.628 . S
La721 O748 2.554 . S
La721 O749 2.757 . S
La721 O750 2.470 . S
C722 La720 2.928 . S
C722 C723 1.503 . S
C722 O740 1.261 . S
C722 O741 1.243 . S
C723 C722 1.503 . S
C723 C724 1.394 . S
C723 C728 1.373 . S
C724 C723 1.394 . S
C724 C725 1.380 . S
C724 H752 0.930 . S
C725 C724 1.380 . S
C725 C726 1.376 . S
C725 H753 0.930 . S
C726 C725 1.376 . S
C726 C727 1.370 . S
C727 C726 1.370 . S
C727 C728 1.396 . S
C727 H754 0.929 . S
C728 C723 1.373 . S
C728 C727 1.396 . S
C728 H755 0.929 . S
C729 O742 1.240 . S
C729 O743 1.289 . S
C730 O744 1.258 . S
C730 O745 1.256 . S
C731 La721 2.928 . S
C731 C732 1.503 . S
C731 O746 1.261 . S
C731 O747 1.243 . S
C732 C731 1.503 . S
C732 C733 1.394 . S
C732 C737 1.373 . S
C733 C732 1.394 . S
C733 C734 1.380 . S
C733 H756 0.930 . S
C734 C733 1.380 . S
C734 C735 1.376 . S
C734 H757 0.930 . S
C735 C734 1.376 . S
C735 C736 1.370 . S
C736 C735 1.370 . S
C736 C737 1.396 . S
C736 H758 0.929 . S
C737 C732 1.373 . S
C737 C736 1.396 . S
C737 H759 0.929 . S
C738 O748 1.240 . S
C738 O749 1.289 . S
C739 O750 1.258 . S
C739 O751 1.256 . S
O740 La720 2.521 . S
O740 C722 1.261 . S
O741 La720 2.628 . S
O741 C722 1.243 . S
O742 La720 2.554 . S
O742 C729 1.240 . S
O743 La720 2.757 . S
O743 La721 2.482 . S
O743 C729 1.289 . S
O744 La720 2.470 . S
O744 C730 1.258 . S
O745 La721 2.503 . S
O745 C730 1.256 . S
O746 La721 2.521 . S
O746 C731 1.261 . S
O747 La721 2.628 . S
O747 C731 1.243 . S
O748 La721 2.554 . S
O748 C738 1.240 . S
O749 La720 2.482 . S
O749 La721 2.757 . S
O749 C738 1.289 . S
O750 La721 2.470 . S
O750 C739 1.258 . S
O751 La720 2.503 . S
O751 C739 1.256 . S
H752 C724 0.930 . S
H753 C725 0.930 . S
H754 C727 0.929 . S
H755 C728 0.929 . S
H756 C733 0.930 . S
H757 C734 0.930 . S
H758 C736 0.929 . S
H759 C737 0.929 . S
La760 C762 2.928 . S
La760 O780 2.521 . S
La760 O781 2.628 . S
La760 O782 2.554 . S
La760 O783 2.757 . S
La760 O784 2.470 . S
La760 O789 2.482 . S
La760 O791 2.503 . S
La761 C771 2.928 . S
La761 O783 2.482 . S
La761 O785 2.503 . S
La761 O786 2.521 . S
La761 O787 2.628 . S
La761 O788 2.554 . S
La761 O789 2.757 . S
La761 O790 2.470 . S
C762 La760 2.928 . S
C762 C763 1.503 . S
C762 O780 1.261 . S
C762 O781 1.243 . S
C763 C762 1.503 . S
C763 C764 1.394 . S
C763 C768 1.373 . S
C764 C763 1.394 . S
C764 C765 1.380 . S
C764 H792 0.930 . S
C765 C764 1.380 . S
C765 C766 1.376 . S
C765 H793 0.930 . S
C766 C765 1.376 . S
C766 C767 1.370 . S
C767 C766 1.370 . S
C767 C768 1.396 . S
C767 H794 0.929 . S
C768 C763 1.373 . S
C768 C767 1.396 . S
C768 H795 0.929 . S
C769 O782 1.240 . S
C769 O783 1.289 . S
C770 O784 1.258 . S
C770 O785 1.256 . S
C771 La761 2.928 . S
C771 C772 1.503 . S
C771 O786 1.261 . S
C771 O787 1.243 . S
C772 C771 1.503 . S
C772 C773 1.394 . S
C772 C777 1.373 . S
C773 C772 1.394 . S
C773 C774 1.380 . S
C773 H796 0.930 . S
C774 C773 1.380 . S
C774 C775 1.376 . S
C774 H797 0.930 . S
C775 C774 1.376 . S
C775 C776 1.370 . S
C776 C775 1.370 . S
C776 C777 1.396 . S
C776 H798 0.929 . S
C777 C772 1.373 . S
C777 C776 1.396 . S
C777 H799 0.929 . S
C778 O788 1.240 . S
C778 O789 1.289 . S
C779 O790 1.258 . S
C779 O791 1.256 . S
O780 La760 2.521 . S
O780 C762 1.261 . S
O781 La760 2.628 . S
O781 C762 1.243 . S
O782 La760 2.554 . S
O782 C769 1.240 . S
O783 La760 2.757 . S
O783 La761 2.482 . S
O783 C769 1.289 . S
O784 La760 2.470 . S
O784 C770 1.258 . S
O785 La761 2.503 . S
O785 C770 1.256 . S
O786 La761 2.521 . S
O786 C771 1.261 . S
O787 La761 2.628 . S
O787 C771 1.243 . S
O788 La761 2.554 . S
O788 C778 1.240 . S
O789 La760 2.482 . S
O789 La761 2.757 . S
O789 C778 1.289 . S
O790 La761 2.470 . S
O790 C779 1.258 . S
O791 La760 2.503 . S
O791 C779 1.256 . S
H792 C764 0.930 . S
H793 C765 0.930 . S
H794 C767 0.929 . S
H795 C768 0.929 . S
H796 C773 0.930 . S
H797 C774 0.930 . S
H798 C776 0.929 . S
H799 C777 0.929 . S
La800 C802 2.928 . S
La800 O820 2.521 . S
La800 O821 2.628 . S
La800 O822 2.554 . S
La800 O823 2.757 . S
La800 O824 2.470 . S
La800 O829 2.482 . S
La800 O831 2.503 . S
La801 C811 2.928 . S
La801 O823 2.482 . S
La801 O825 2.503 . S
La801 O826 2.521 . S
La801 O827 2.628 . S
La801 O828 2.554 . S
La801 O829 2.757 . S
La801 O830 2.470 . S
C802 La800 2.928 . S
C802 C803 1.503 . S
C802 O820 1.261 . S
C802 O821 1.243 . S
C803 C802 1.503 . S
C803 C804 1.394 . S
C803 C808 1.373 . S
C804 C803 1.394 . S
C804 C805 1.380 . S
C804 H832 0.930 . S
C805 C804 1.380 . S
C805 C806 1.376 . S
C805 H833 0.930 . S
C806 C805 1.376 . S
C806 C807 1.370 . S
C807 C806 1.370 . S
C807 C808 1.396 . S
C807 H834 0.929 . S
C808 C803 1.373 . S
C808 C807 1.396 . S
C808 H835 0.929 . S
C809 O822 1.240 . S
C809 O823 1.289 . S
C810 O824 1.258 . S
C810 O825 1.256 . S
C811 La801 2.928 . S
C811 C812 1.503 . S
C811 O826 1.261 . S
C811 O827 1.243 . S
C812 C811 1.503 . S
C812 C813 1.394 . S
C812 C817 1.373 . S
C813 C812 1.394 . S
C813 C814 1.380 . S
C813 H836 0.930 . S
C814 C813 1.380 . S
C814 C815 1.376 . S
C814 H837 0.930 . S
C815 C814 1.376 . S
C815 C816 1.370 . S
C816 C815 1.370 . S
C816 C817 1.396 . S
C816 H838 0.929 . S
C817 C812 1.373 . S
C817 C816 1.396 . S
C817 H839 0.929 . S
C818 O828 1.240 . S
C818 O829 1.289 . S
C819 O830 1.258 . S
C819 O831 1.256 . S
O820 La800 2.521 . S
O820 C802 1.261 . S
O821 La800 2.628 . S
O821 C802 1.243 . S
O822 La800 2.554 . S
O822 C809 1.240 . S
O823 La800 2.757 . S
O823 La801 2.482 . S
O823 C809 1.289 . S
O824 La800 2.470 . S
O824 C810 1.258 . S
O825 La801 2.503 . S
O825 C810 1.256 . S
O826 La801 2.521 . S
O826 C811 1.261 . S
O827 La801 2.628 . S
O827 C811 1.243 . S
O828 La801 2.554 . S
O828 C818 1.240 . S
O829 La800 2.482 . S
O829 La801 2.757 . S
O829 C818 1.289 . S
O830 La801 2.470 . S
O830 C819 1.258 . S
O831 La800 2.503 . S
O831 C819 1.256 . S
H832 C804 0.930 . S
H833 C805 0.930 . S
H834 C807 0.929 . S
H835 C808 0.929 . S
H836 C813 0.930 . S
H837 C814 0.930 . S
H838 C816 0.929 . S
H839 C817 0.929 . S
La840 C842 2.928 . S
La840 O860 2.521 . S
La840 O861 2.628 . S
La840 O862 2.554 . S
La840 O863 2.757 . S
La840 O864 2.470 . S
La840 O869 2.482 . S
La840 O871 2.503 . S
La841 C851 2.928 . S
La841 O863 2.482 . S
La841 O865 2.503 . S
La841 O866 2.521 . S
La841 O867 2.628 . S
La841 O868 2.554 . S
La841 O869 2.757 . S
La841 O870 2.470 . S
C842 La840 2.928 . S
C842 C843 1.503 . S
C842 O860 1.261 . S
C842 O861 1.243 . S
C843 C842 1.503 . S
C843 C844 1.394 . S
C843 C848 1.373 . S
C844 C843 1.394 . S
C844 C845 1.380 . S
C844 H872 0.930 . S
C845 C844 1.380 . S
C845 C846 1.376 . S
C845 H873 0.930 . S
C846 C845 1.376 . S
C846 C847 1.370 . S
C847 C846 1.370 . S
C847 C848 1.396 . S
C847 H874 0.929 . S
C848 C843 1.373 . S
C848 C847 1.396 . S
C848 H875 0.929 . S
C849 O862 1.240 . S
C849 O863 1.289 . S
C850 O864 1.258 . S
C850 O865 1.256 . S
C851 La841 2.928 . S
C851 C852 1.503 . S
C851 O866 1.261 . S
C851 O867 1.243 . S
C852 C851 1.503 . S
C852 C853 1.394 . S
C852 C857 1.373 . S
C853 C852 1.394 . S
C853 C854 1.380 . S
C853 H876 0.930 . S
C854 C853 1.380 . S
C854 C855 1.376 . S
C854 H877 0.930 . S
C855 C854 1.376 . S
C855 C856 1.370 . S
C856 C855 1.370 . S
C856 C857 1.396 . S
C856 H878 0.929 . S
C857 C852 1.373 . S
C857 C856 1.396 . S
C857 H879 0.929 . S
C858 O868 1.240 . S
C858 O869 1.289 . S
C859 O870 1.258 . S
C859 O871 1.256 . S
O860 La840 2.521 . S
O860 C842 1.261 . S
O861 La840 2.628 . S
O861 C842 1.243 . S
O862 La840 2.554 . S
O862 C849 1.240 . S
O863 La840 2.757 . S
O863 La841 2.482 . S
O863 C849 1.289 . S
O864 La840 2.470 . S
O864 C850 1.258 . S
O865 La841 2.503 . S
O865 C850 1.256 . S
O866 La841 2.521 . S
O866 C851 1.261 . S
O867 La841 2.628 . S
O867 C851 1.243 . S
O868 La841 2.554 . S
O868 C858 1.240 . S
O869 La840 2.482 . S
O869 La841 2.757 . S
O869 C858 1.289 . S
O870 La841 2.470 . S
O870 C859 1.258 . S
O871 La840 2.503 . S
O871 C859 1.256 . S
H872 C844 0.930 . S
H873 C845 0.930 . S
H874 C847 0.929 . S
H875 C848 0.929 . S
H876 C853 0.930 . S
H877 C854 0.930 . S
H878 C856 0.929 . S
H879 C857 0.929 . S
La880 C882 2.928 . S
La880 O900 2.521 . S
La880 O901 2.628 . S
La880 O902 2.554 . S
La880 O903 2.757 . S
La880 O904 2.470 . S
La880 O909 2.482 . S
La880 O911 2.503 . S
La881 C891 2.928 . S
La881 O903 2.482 . S
La881 O905 2.503 . S
La881 O906 2.521 . S
La881 O907 2.628 . S
La881 O908 2.554 . S
La881 O909 2.757 . S
La881 O910 2.470 . S
C882 La880 2.928 . S
C882 C883 1.503 . S
C882 O900 1.261 . S
C882 O901 1.243 . S
C883 C882 1.503 . S
C883 C884 1.394 . S
C883 C888 1.373 . S
C884 C883 1.394 . S
C884 C885 1.380 . S
C884 H912 0.930 . S
C885 C884 1.380 . S
C885 C886 1.376 . S
C885 H913 0.930 . S
C886 C885 1.376 . S
C886 C887 1.370 . S
C887 C886 1.370 . S
C887 C888 1.396 . S
C887 H914 0.929 . S
C888 C883 1.373 . S
C888 C887 1.396 . S
C888 H915 0.929 . S
C889 O902 1.240 . S
C889 O903 1.289 . S
C890 O904 1.258 . S
C890 O905 1.256 . S
C891 La881 2.928 . S
C891 C892 1.503 . S
C891 O906 1.261 . S
C891 O907 1.243 . S
C892 C891 1.503 . S
C892 C893 1.394 . S
C892 C897 1.373 . S
C893 C892 1.394 . S
C893 C894 1.380 . S
C893 H916 0.930 . S
C894 C893 1.380 . S
C894 C895 1.376 . S
C894 H917 0.930 . S
C895 C894 1.376 . S
C895 C896 1.370 . S
C896 C895 1.370 . S
C896 C897 1.396 . S
C896 H918 0.929 . S
C897 C892 1.373 . S
C897 C896 1.396 . S
C897 H919 0.929 . S
C898 O908 1.240 . S
C898 O909 1.289 . S
C899 O910 1.258 . S
C899 O911 1.256 . S
O900 La880 2.521 . S
O900 C882 1.261 . S
O901 La880 2.628 . S
O901 C882 1.243 . S
O902 La880 2.554 . S
O902 C889 1.240 . S
O903 La880 2.757 . S
O903 La881 2.482 . S
O903 C889 1.289 . S
O904 La880 2.470 . S
O904 C890 1.258 . S
O905 La881 2.503 . S
O905 C890 1.256 . S
O906 La881 2.521 . S
O906 C891 1.261 . S
O907 La881 2.628 . S
O907 C891 1.243 . S
O908 La881 2.554 . S
O908 C898 1.240 . S
O909 La880 2.482 . S
O909 La881 2.757 . S
O909 C898 1.289 . S
O910 La881 2.470 . S
O910 C899 1.258 . S
O911 La880 2.503 . S
O911 C899 1.256 . S
H912 C884 0.930 . S
H913 C885 0.930 . S
H914 C887 0.929 . S
H915 C888 0.929 . S
H916 C893 0.930 . S
H917 C894 0.930 . S
H918 C896 0.929 . S
H919 C897 0.929 . S
La920 C922 2.928 . S
La920 O940 2.521 . S
La920 O941 2.628 . S
La920 O942 2.554 . S
La920 O943 2.757 . S
La920 O944 2.470 . S
La920 O949 2.482 . S
La920 O951 2.503 . S
La921 C931 2.928 . S
La921 O943 2.482 . S
La921 O945 2.503 . S
La921 O946 2.521 . S
La921 O947 2.628 . S
La921 O948 2.554 . S
La921 O949 2.757 . S
La921 O950 2.470 . S
C922 La920 2.928 . S
C922 C923 1.503 . S
C922 O940 1.261 . S
C922 O941 1.243 . S
C923 C922 1.503 . S
C923 C924 1.394 . S
C923 C928 1.373 . S
C924 C923 1.394 . S
C924 C925 1.380 . S
C924 H952 0.930 . S
C925 C924 1.380 . S
C925 C926 1.376 . S
C925 H953 0.930 . S
C926 C925 1.376 . S
C926 C927 1.370 . S
C927 C926 1.370 . S
C927 C928 1.396 . S
C927 H954 0.929 . S
C928 C923 1.373 . S
C928 C927 1.396 . S
C928 H955 0.929 . S
C929 O942 1.240 . S
C929 O943 1.289 . S
C930 O944 1.258 . S
C930 O945 1.256 . S
C931 La921 2.928 . S
C931 C932 1.503 . S
C931 O946 1.261 . S
C931 O947 1.243 . S
C932 C931 1.503 . S
C932 C933 1.394 . S
C932 C937 1.373 . S
C933 C932 1.394 . S
C933 C934 1.380 . S
C933 H956 0.930 . S
C934 C933 1.380 . S
C934 C935 1.376 . S
C934 H957 0.930 . S
C935 C934 1.376 . S
C935 C936 1.370 . S
C936 C935 1.370 . S
C936 C937 1.396 . S
C936 H958 0.929 . S
C937 C932 1.373 . S
C937 C936 1.396 . S
C937 H959 0.929 . S
C938 O948 1.240 . S
C938 O949 1.289 . S
C939 O950 1.258 . S
C939 O951 1.256 . S
O940 La920 2.521 . S
O940 C922 1.261 . S
O941 La920 2.628 . S
O941 C922 1.243 . S
O942 La920 2.554 . S
O942 C929 1.240 . S
O943 La920 2.757 . S
O943 La921 2.482 . S
O943 C929 1.289 . S
O944 La920 2.470 . S
O944 C930 1.258 . S
O945 La921 2.503 . S
O945 C930 1.256 . S
O946 La921 2.521 . S
O946 C931 1.261 . S
O947 La921 2.628 . S
O947 C931 1.243 . S
O948 La921 2.554 . S
O948 C938 1.240 . S
O949 La920 2.482 . S
O949 La921 2.757 . S
O949 C938 1.289 . S
O950 La921 2.470 . S
O950 C939 1.258 . S
O951 La920 2.503 . S
O951 C939 1.256 . S
H952 C924 0.930 . S
H953 C925 0.930 . S
H954 C927 0.929 . S
H955 C928 0.929 . S
H956 C933 0.930 . S
H957 C934 0.930 . S
H958 C936 0.929 . S
H959 C937 0.929 . S
La960 C962 2.928 1_545 S
La960 O980 2.521 . S
La960 O981 2.628 1_545 S
La960 O982 2.554 . S
La960 O983 2.757 1_545 S
La960 O984 2.470 1_545 S
La960 O989 2.482 1_545 S
La960 O991 2.503 . S
La961 C971 2.928 . S
La961 O983 2.482 . S
La961 O985 2.503 . S
La961 O986 2.521 . S
La961 O987 2.628 . S
La961 O988 2.554 . S
La961 O989 2.757 . S
La961 O990 2.470 1_565 S
C962 La960 2.928 1_565 S
C962 C963 1.503 . S
C962 O980 1.261 1_565 S
C962 O981 1.243 . S
C963 C962 1.503 . S
C963 C964 1.394 . S
C963 C968 1.373 . S
C964 C963 1.394 . S
C964 C965 1.380 . S
C964 H992 0.930 1_565 S
C965 C964 1.380 . S
C965 C966 1.376 . S
C965 H993 0.930 . S
C966 C965 1.376 . S
C966 C967 1.370 . S
C967 C966 1.370 . S
C967 C968 1.396 . S
C967 H994 0.929 . S
C968 C963 1.373 . S
C968 C967 1.396 . S
C968 H995 0.929 . S
C969 O982 1.240 1_565 S
C969 O983 1.289 . S
C970 O984 1.258 . S
C970 O985 1.256 . S
C971 La961 2.928 . S
C971 C972 1.503 . S
C971 O986 1.261 . S
C971 O987 1.243 . S
C972 C971 1.503 . S
C972 C973 1.394 . S
C972 C977 1.373 1_565 S
C973 C972 1.394 . S
C973 C974 1.393 . S
C973 H996 0.930 . S
C974 C973 1.393 . S
C974 C975 1.358 1_565 S
C974 H997 0.939 . S
C975 C974 1.358 1_545 S
C975 C976 1.370 . S
C976 C975 1.370 . S
C976 C977 1.396 . S
C976 H998 0.929 . S
C977 C972 1.373 1_545 S
C977 C976 1.396 . S
C977 H999 0.929 . S
C978 O988 1.240 . S
C978 O989 1.289 . S
C979 O990 1.258 . S
C979 O991 1.256 . S
O980 La960 2.521 . S
O980 C962 1.261 1_545 S
O981 La960 2.628 1_565 S
O981 C962 1.243 . S
O982 La960 2.554 . S
O982 C969 1.240 1_545 S
O983 La960 2.757 1_565 S
O983 La961 2.482 . S
O983 C969 1.289 . S
O984 La960 2.470 1_565 S
O984 C970 1.258 . S
O985 La961 2.503 . S
O985 C970 1.256 . S
O986 La961 2.521 . S
O986 C971 1.261 . S
O987 La961 2.628 . S
O987 C971 1.243 . S
O988 La961 2.554 . S
O988 C978 1.240 . S
O989 La960 2.482 1_565 S
O989 La961 2.757 . S
O989 C978 1.289 . S
O990 La961 2.470 1_545 S
O990 C979 1.258 . S
O991 La960 2.503 . S
O991 C979 1.256 . S
H992 C964 0.930 1_545 S
H993 C965 0.930 . S
H994 C967 0.929 . S
H995 C968 0.929 . S
H996 C973 0.930 . S
H997 C974 0.939 . S
H998 C976 0.929 . S
H999 C977 0.929 . S
La1000 C1002 2.928 . S
La1000 O1020 2.521 . S
La1000 O1021 2.628 . S
La1000 O1022 2.554 . S
La1000 O1023 2.757 . S
La1000 O1024 2.470 . S
La1000 O1029 2.482 . S
La1000 O1031 2.503 . S
La1001 C1011 2.928 . S
La1001 O1023 2.482 . S
La1001 O1025 2.503 . S
La1001 O1026 2.521 . S
La1001 O1027 2.628 . S
La1001 O1028 2.554 . S
La1001 O1029 2.757 . S
La1001 O1030 2.470 . S
C1002 La1000 2.928 . S
C1002 C1003 1.503 . S
C1002 O1020 1.261 . S
C1002 O1021 1.243 . S
C1003 C1002 1.503 . S
C1003 C1004 1.394 . S
C1003 C1008 1.373 . S
C1004 C1003 1.394 . S
C1004 C1005 1.380 . S
C1004 H1032 0.930 . S
C1005 C1004 1.380 . S
C1005 C1006 1.376 . S
C1005 H1033 0.930 . S
C1006 C1005 1.376 . S
C1006 C1007 1.370 . S
C1007 C1006 1.370 . S
C1007 C1008 1.396 . S
C1007 H1034 0.929 . S
C1008 C1003 1.373 . S
C1008 C1007 1.396 . S
C1008 H1035 0.929 . S
C1009 O1022 1.240 . S
C1009 O1023 1.289 . S
C1010 O1024 1.258 . S
C1010 O1025 1.256 . S
C1011 La1001 2.928 . S
C1011 C1012 1.503 . S
C1011 O1026 1.261 . S
C1011 O1027 1.243 . S
C1012 C1011 1.503 . S
C1012 C1013 1.394 . S
C1012 C1017 1.373 . S
C1013 C1012 1.394 . S
C1013 C1014 1.380 . S
C1013 H1036 0.930 . S
C1014 C1013 1.380 . S
C1014 C1015 1.376 . S
C1014 H1037 0.930 . S
C1015 C1014 1.376 . S
C1015 C1016 1.370 . S
C1016 C1015 1.370 . S
C1016 C1017 1.396 . S
C1016 H1038 0.929 . S
C1017 C1012 1.373 . S
C1017 C1016 1.396 . S
C1017 H1039 0.929 . S
C1018 O1028 1.240 . S
C1018 O1029 1.289 . S
C1019 O1030 1.258 . S
C1019 O1031 1.256 . S
O1020 La1000 2.521 . S
O1020 C1002 1.261 . S
O1021 La1000 2.628 . S
O1021 C1002 1.243 . S
O1022 La1000 2.554 . S
O1022 C1009 1.240 . S
O1023 La1000 2.757 . S
O1023 La1001 2.482 . S
O1023 C1009 1.289 . S
O1024 La1000 2.470 . S
O1024 C1010 1.258 . S
O1025 La1001 2.503 . S
O1025 C1010 1.256 . S
O1026 La1001 2.521 . S
O1026 C1011 1.261 . S
O1027 La1001 2.628 . S
O1027 C1011 1.243 . S
O1028 La1001 2.554 . S
O1028 C1018 1.240 . S
O1029 La1000 2.482 . S
O1029 La1001 2.757 . S
O1029 C1018 1.289 . S
O1030 La1001 2.470 . S
O1030 C1019 1.258 . S
O1031 La1000 2.503 . S
O1031 C1019 1.256 . S
H1032 C1004 0.930 . S
H1033 C1005 0.930 . S
H1034 C1007 0.929 . S
H1035 C1008 0.929 . S
H1036 C1013 0.930 . S
H1037 C1014 0.930 . S
H1038 C1016 0.929 . S
H1039 C1017 0.929 . S
La1040 C1042 2.928 . S
La1040 O1060 2.521 . S
La1040 O1061 2.628 . S
La1040 O1062 2.554 . S
La1040 O1063 2.757 . S
La1040 O1064 2.470 . S
La1040 O1069 2.482 . S
La1040 O1071 2.503 . S
La1041 C1051 2.928 . S
La1041 O1063 2.482 . S
La1041 O1065 2.503 . S
La1041 O1066 2.521 . S
La1041 O1067 2.628 . S
La1041 O1068 2.554 . S
La1041 O1069 2.757 . S
La1041 O1070 2.470 . S
C1042 La1040 2.928 . S
C1042 C1043 1.503 . S
C1042 O1060 1.261 . S
C1042 O1061 1.243 . S
C1043 C1042 1.503 . S
C1043 C1044 1.394 . S
C1043 C1048 1.373 . S
C1044 C1043 1.394 . S
C1044 C1045 1.380 . S
C1044 H1072 0.930 . S
C1045 C1044 1.380 . S
C1045 C1046 1.376 . S
C1045 H1073 0.930 . S
C1046 C1045 1.376 . S
C1046 C1047 1.370 . S
C1047 C1046 1.370 . S
C1047 C1048 1.396 . S
C1047 H1074 0.929 . S
C1048 C1043 1.373 . S
C1048 C1047 1.396 . S
C1048 H1075 0.929 . S
C1049 O1062 1.240 . S
C1049 O1063 1.289 . S
C1050 O1064 1.258 . S
C1050 O1065 1.256 . S
C1051 La1041 2.928 . S
C1051 C1052 1.503 . S
C1051 O1066 1.261 . S
C1051 O1067 1.243 . S
C1052 C1051 1.503 . S
C1052 C1053 1.394 . S
C1052 C1057 1.373 . S
C1053 C1052 1.394 . S
C1053 C1054 1.380 . S
C1053 H1076 0.930 . S
C1054 C1053 1.380 . S
C1054 C1055 1.376 . S
C1054 H1077 0.930 . S
C1055 C1054 1.376 . S
C1055 C1056 1.370 . S
C1056 C1055 1.370 . S
C1056 C1057 1.396 . S
C1056 H1078 0.929 . S
C1057 C1052 1.373 . S
C1057 C1056 1.396 . S
C1057 H1079 0.929 . S
C1058 O1068 1.240 . S
C1058 O1069 1.289 . S
C1059 O1070 1.258 . S
C1059 O1071 1.256 . S
O1060 La1040 2.521 . S
O1060 C1042 1.261 . S
O1061 La1040 2.628 . S
O1061 C1042 1.243 . S
O1062 La1040 2.554 . S
O1062 C1049 1.240 . S
O1063 La1040 2.757 . S
O1063 La1041 2.482 . S
O1063 C1049 1.289 . S
O1064 La1040 2.470 . S
O1064 C1050 1.258 . S
O1065 La1041 2.503 . S
O1065 C1050 1.256 . S
O1066 La1041 2.521 . S
O1066 C1051 1.261 . S
O1067 La1041 2.628 . S
O1067 C1051 1.243 . S
O1068 La1041 2.554 . S
O1068 C1058 1.240 . S
O1069 La1040 2.482 . S
O1069 La1041 2.757 . S
O1069 C1058 1.289 . S
O1070 La1041 2.470 . S
O1070 C1059 1.258 . S
O1071 La1040 2.503 . S
O1071 C1059 1.256 . S
H1072 C1044 0.930 . S
H1073 C1045 0.930 . S
H1074 C1047 0.929 . S
H1075 C1048 0.929 . S
H1076 C1053 0.930 . S
H1077 C1054 0.930 . S
H1078 C1056 0.929 . S
H1079 C1057 0.929 . S
La1080 C1082 2.928 1_545 S
La1080 O1100 2.521 . S
La1080 O1101 2.628 1_545 S
La1080 O1102 2.554 . S
La1080 O1103 2.757 1_545 S
La1080 O1104 2.470 1_545 S
La1080 O1109 2.482 1_545 S
La1080 O1111 2.503 . S
La1081 C1091 2.928 . S
La1081 O1103 2.482 . S
La1081 O1105 2.503 . S
La1081 O1106 2.521 . S
La1081 O1107 2.628 . S
La1081 O1108 2.554 . S
La1081 O1109 2.757 . S
La1081 O1110 2.470 1_565 S
C1082 La1080 2.928 1_565 S
C1082 C1083 1.503 . S
C1082 O1100 1.261 1_565 S
C1082 O1101 1.243 . S
C1083 C1082 1.503 . S
C1083 C1084 1.394 . S
C1083 C1088 1.373 . S
C1084 C1083 1.394 . S
C1084 C1085 1.380 . S
C1084 H1112 0.930 1_565 S
C1085 C1084 1.380 . S
C1085 C1086 1.376 . S
C1085 H1113 0.930 . S
C1086 C1085 1.376 . S
C1086 C1087 1.370 . S
C1087 C1086 1.370 . S
C1087 C1088 1.396 . S
C1087 H1114 0.929 . S
C1088 C1083 1.373 . S
C1088 C1087 1.396 . S
C1088 H1115 0.929 . S
C1089 O1102 1.240 1_565 S
C1089 O1103 1.289 . S
C1090 O1104 1.258 . S
C1090 O1105 1.256 . S
C1091 La1081 2.928 . S
C1091 C1092 1.503 . S
C1091 O1106 1.261 . S
C1091 O1107 1.243 . S
C1092 C1091 1.503 . S
C1092 C1093 1.394 . S
C1092 C1097 1.373 1_565 S
C1093 C1092 1.394 . S
C1093 C1094 1.393 . S
C1093 H1116 0.930 . S
C1094 C1093 1.393 . S
C1094 C1095 1.358 1_565 S
C1094 H1117 0.939 . S
C1095 C1094 1.358 1_545 S
C1095 C1096 1.370 . S
C1096 C1095 1.370 . S
C1096 C1097 1.396 . S
C1096 H1118 0.929 . S
C1097 C1092 1.373 1_545 S
C1097 C1096 1.396 . S
C1097 H1119 0.929 . S
C1098 O1108 1.240 . S
C1098 O1109 1.289 . S
C1099 O1110 1.258 . S
C1099 O1111 1.256 . S
O1100 La1080 2.521 . S
O1100 C1082 1.261 1_545 S
O1101 La1080 2.628 1_565 S
O1101 C1082 1.243 . S
O1102 La1080 2.554 . S
O1102 C1089 1.240 1_545 S
O1103 La1080 2.757 1_565 S
O1103 La1081 2.482 . S
O1103 C1089 1.289 . S
O1104 La1080 2.470 1_565 S
O1104 C1090 1.258 . S
O1105 La1081 2.503 . S
O1105 C1090 1.256 . S
O1106 La1081 2.521 . S
O1106 C1091 1.261 . S
O1107 La1081 2.628 . S
O1107 C1091 1.243 . S
O1108 La1081 2.554 . S
O1108 C1098 1.240 . S
O1109 La1080 2.482 1_565 S
O1109 La1081 2.757 . S
O1109 C1098 1.289 . S
O1110 La1081 2.470 1_545 S
O1110 C1099 1.258 . S
O1111 La1080 2.503 . S
O1111 C1099 1.256 . S
H1112 C1084 0.930 1_545 S
H1113 C1085 0.930 . S
H1114 C1087 0.929 . S
H1115 C1088 0.929 . S
H1116 C1093 0.930 . S
H1117 C1094 0.939 . S
H1118 C1096 0.929 . S
H1119 C1097 0.929 . S
La1120 C1122 2.928 . S
La1120 O1140 2.521 . S
La1120 O1141 2.628 . S
La1120 O1142 2.554 . S
La1120 O1143 2.757 . S
La1120 O1144 2.470 1_545 S
La1120 O1149 2.482 . S
La1120 O1151 2.503 . S
La1121 C1131 2.928 1_565 S
La1121 O1143 2.482 1_565 S
La1121 O1145 2.503 . S
La1121 O1146 2.521 . S
La1121 O1147 2.628 1_565 S
La1121 O1148 2.554 . S
La1121 O1149 2.757 1_565 S
La1121 O1150 2.470 1_565 S
C1122 La1120 2.928 . S
C1122 C1123 1.503 . S
C1122 O1140 1.261 . S
C1122 O1141 1.243 . S
C1123 C1122 1.503 . S
C1123 C1124 1.394 . S
C1123 C1128 1.373 1_545 S
C1124 C1123 1.394 . S
C1124 C1125 1.393 . S
C1124 H1152 0.930 . S
C1125 C1124 1.393 . S
C1125 C1126 1.358 1_545 S
C1125 H1153 0.939 . S
C1126 C1125 1.358 1_565 S
C1126 C1127 1.370 . S
C1127 C1126 1.370 . S
C1127 C1128 1.396 . S
C1127 H1154 0.929 . S
C1128 C1123 1.373 1_565 S
C1128 C1127 1.396 . S
C1128 H1155 0.929 . S
C1129 O1142 1.240 . S
C1129 O1143 1.289 . S
C1130 O1144 1.258 . S
C1130 O1145 1.256 . S
C1131 La1121 2.928 1_545 S
C1131 C1132 1.503 . S
C1131 O1146 1.261 1_545 S
C1131 O1147 1.243 . S
C1132 C1131 1.503 . S
C1132 C1133 1.394 . S
C1132 C1137 1.373 . S
C1133 C1132 1.394 . S
C1133 C1134 1.380 . S
C1133 H1156 0.930 1_545 S
C1134 C1133 1.380 . S
C1134 C1135 1.376 . S
C1134 H1157 0.930 . S
C1135 C1134 1.376 . S
C1135 C1136 1.370 . S
C1136 C1135 1.370 . S
C1136 C1137 1.396 . S
C1136 H1158 0.929 . S
C1137 C1132 1.373 . S
C1137 C1136 1.396 . S
C1137 H1159 0.929 . S
C1138 O1148 1.240 1_545 S
C1138 O1149 1.289 . S
C1139 O1150 1.258 . S
C1139 O1151 1.256 . S
O1140 La1120 2.521 . S
O1140 C1122 1.261 . S
O1141 La1120 2.628 . S
O1141 C1122 1.243 . S
O1142 La1120 2.554 . S
O1142 C1129 1.240 . S
O1143 La1120 2.757 . S
O1143 La1121 2.482 1_545 S
O1143 C1129 1.289 . S
O1144 La1120 2.470 1_565 S
O1144 C1130 1.258 . S
O1145 La1121 2.503 . S
O1145 C1130 1.256 . S
O1146 La1121 2.521 . S
O1146 C1131 1.261 1_565 S
O1147 La1121 2.628 1_545 S
O1147 C1131 1.243 . S
O1148 La1121 2.554 . S
O1148 C1138 1.240 1_565 S
O1149 La1120 2.482 . S
O1149 La1121 2.757 1_545 S
O1149 C1138 1.289 . S
O1150 La1121 2.470 1_545 S
O1150 C1139 1.258 . S
O1151 La1120 2.503 . S
O1151 C1139 1.256 . S
H1152 C1124 0.930 . S
H1153 C1125 0.939 . S
H1154 C1127 0.929 . S
H1155 C1128 0.929 . S
H1156 C1133 0.930 1_565 S
H1157 C1134 0.930 . S
H1158 C1136 0.929 . S
H1159 C1137 0.929 . S
La1160 C1162 2.928 . S
La1160 O1180 2.521 . S
La1160 O1181 2.628 . S
La1160 O1182 2.554 . S
La1160 O1183 2.757 . S
La1160 O1184 2.470 . S
La1160 O1189 2.482 . S
La1160 O1191 2.503 . S
La1161 C1171 2.928 . S
La1161 O1183 2.482 . S
La1161 O1185 2.503 . S
La1161 O1186 2.521 . S
La1161 O1187 2.628 . S
La1161 O1188 2.554 . S
La1161 O1189 2.757 . S
La1161 O1190 2.470 . S
C1162 La1160 2.928 . S
C1162 C1163 1.503 . S
C1162 O1180 1.261 . S
C1162 O1181 1.243 . S
C1163 C1162 1.503 . S
C1163 C1164 1.394 . S
C1163 C1168 1.373 . S
C1164 C1163 1.394 . S
C1164 C1165 1.380 . S
C1164 H1192 0.930 . S
C1165 C1164 1.380 . S
C1165 C1166 1.376 . S
C1165 H1193 0.930 . S
C1166 C1165 1.376 . S
C1166 C1167 1.370 . S
C1167 C1166 1.370 . S
C1167 C1168 1.396 . S
C1167 H1194 0.929 . S
C1168 C1163 1.373 . S
C1168 C1167 1.396 . S
C1168 H1195 0.929 . S
C1169 O1182 1.240 . S
C1169 O1183 1.289 . S
C1170 O1184 1.258 . S
C1170 O1185 1.256 . S
C1171 La1161 2.928 . S
C1171 C1172 1.503 . S
C1171 O1186 1.261 . S
C1171 O1187 1.243 . S
C1172 C1171 1.503 . S
C1172 C1173 1.394 . S
C1172 C1177 1.373 . S
C1173 C1172 1.394 . S
C1173 C1174 1.380 . S
C1173 H1196 0.930 . S
C1174 C1173 1.380 . S
C1174 C1175 1.376 . S
C1174 H1197 0.930 . S
C1175 C1174 1.376 . S
C1175 C1176 1.370 . S
C1176 C1175 1.370 . S
C1176 C1177 1.396 . S
C1176 H1198 0.929 . S
C1177 C1172 1.373 . S
C1177 C1176 1.396 . S
C1177 H1199 0.929 . S
C1178 O1188 1.240 . S
C1178 O1189 1.289 . S
C1179 O1190 1.258 . S
C1179 O1191 1.256 . S
O1180 La1160 2.521 . S
O1180 C1162 1.261 . S
O1181 La1160 2.628 . S
O1181 C1162 1.243 . S
O1182 La1160 2.554 . S
O1182 C1169 1.240 . S
O1183 La1160 2.757 . S
O1183 La1161 2.482 . S
O1183 C1169 1.289 . S
O1184 La1160 2.470 . S
O1184 C1170 1.258 . S
O1185 La1161 2.503 . S
O1185 C1170 1.256 . S
O1186 La1161 2.521 . S
O1186 C1171 1.261 . S
O1187 La1161 2.628 . S
O1187 C1171 1.243 . S
O1188 La1161 2.554 . S
O1188 C1178 1.240 . S
O1189 La1160 2.482 . S
O1189 La1161 2.757 . S
O1189 C1178 1.289 . S
O1190 La1161 2.470 . S
O1190 C1179 1.258 . S
O1191 La1160 2.503 . S
O1191 C1179 1.256 . S
H1192 C1164 0.930 . S
H1193 C1165 0.930 . S
H1194 C1167 0.929 . S
H1195 C1168 0.929 . S
H1196 C1173 0.930 . S
H1197 C1174 0.930 . S
H1198 C1176 0.929 . S
H1199 C1177 0.929 . S
La1200 C1202 2.928 . S
La1200 O1220 2.521 . S
La1200 O1221 2.628 . S
La1200 O1222 2.554 . S
La1200 O1223 2.757 . S
La1200 O1224 2.470 . S
La1200 O1229 2.482 . S
La1200 O1231 2.503 . S
La1201 C1211 2.928 . S
La1201 O1223 2.482 . S
La1201 O1225 2.503 . S
La1201 O1226 2.521 . S
La1201 O1227 2.628 . S
La1201 O1228 2.554 . S
La1201 O1229 2.757 . S
La1201 O1230 2.470 . S
C1202 La1200 2.928 . S
C1202 C1203 1.503 . S
C1202 O1220 1.261 . S
C1202 O1221 1.243 . S
C1203 C1202 1.503 . S
C1203 C1204 1.394 . S
C1203 C1208 1.373 . S
C1204 C1203 1.394 . S
C1204 C1205 1.380 . S
C1204 H1232 0.930 . S
C1205 C1204 1.380 . S
C1205 C1206 1.376 . S
C1205 H1233 0.930 . S
C1206 C1205 1.376 . S
C1206 C1207 1.370 . S
C1207 C1206 1.370 . S
C1207 C1208 1.396 . S
C1207 H1234 0.929 . S
C1208 C1203 1.373 . S
C1208 C1207 1.396 . S
C1208 H1235 0.929 . S
C1209 O1222 1.240 . S
C1209 O1223 1.289 . S
C1210 O1224 1.258 . S
C1210 O1225 1.256 . S
C1211 La1201 2.928 . S
C1211 C1212 1.503 . S
C1211 O1226 1.261 . S
C1211 O1227 1.243 . S
C1212 C1211 1.503 . S
C1212 C1213 1.394 . S
C1212 C1217 1.373 . S
C1213 C1212 1.394 . S
C1213 C1214 1.380 . S
C1213 H1236 0.930 . S
C1214 C1213 1.380 . S
C1214 C1215 1.376 . S
C1214 H1237 0.930 . S
C1215 C1214 1.376 . S
C1215 C1216 1.370 . S
C1216 C1215 1.370 . S
C1216 C1217 1.396 . S
C1216 H1238 0.929 . S
C1217 C1212 1.373 . S
C1217 C1216 1.396 . S
C1217 H1239 0.929 . S
C1218 O1228 1.240 . S
C1218 O1229 1.289 . S
C1219 O1230 1.258 . S
C1219 O1231 1.256 . S
O1220 La1200 2.521 . S
O1220 C1202 1.261 . S
O1221 La1200 2.628 . S
O1221 C1202 1.243 . S
O1222 La1200 2.554 . S
O1222 C1209 1.240 . S
O1223 La1200 2.757 . S
O1223 La1201 2.482 . S
O1223 C1209 1.289 . S
O1224 La1200 2.470 . S
O1224 C1210 1.258 . S
O1225 La1201 2.503 . S
O1225 C1210 1.256 . S
O1226 La1201 2.521 . S
O1226 C1211 1.261 . S
O1227 La1201 2.628 . S
O1227 C1211 1.243 . S
O1228 La1201 2.554 . S
O1228 C1218 1.240 . S
O1229 La1200 2.482 . S
O1229 La1201 2.757 . S
O1229 C1218 1.289 . S
O1230 La1201 2.470 . S
O1230 C1219 1.258 . S
O1231 La1200 2.503 . S
O1231 C1219 1.256 . S
H1232 C1204 0.930 . S
H1233 C1205 0.930 . S
H1234 C1207 0.929 . S
H1235 C1208 0.929 . S
H1236 C1213 0.930 . S
H1237 C1214 0.930 . S
H1238 C1216 0.929 . S
H1239 C1217 0.929 . S
La1240 C1242 2.928 . S
La1240 O1260 2.521 . S
La1240 O1261 2.628 . S
La1240 O1262 2.554 . S
La1240 O1263 2.757 . S
La1240 O1264 2.470 1_545 S
La1240 O1269 2.482 . S
La1240 O1271 2.503 . S
La1241 C1251 2.928 1_565 S
La1241 O1263 2.482 1_565 S
La1241 O1265 2.503 . S
La1241 O1266 2.521 . S
La1241 O1267 2.628 1_565 S
La1241 O1268 2.554 . S
La1241 O1269 2.757 1_565 S
La1241 O1270 2.470 1_565 S
C1242 La1240 2.928 . S
C1242 C1243 1.503 . S
C1242 O1260 1.261 . S
C1242 O1261 1.243 . S
C1243 C1242 1.503 . S
C1243 C1244 1.394 . S
C1243 C1248 1.373 1_545 S
C1244 C1243 1.394 . S
C1244 C1245 1.393 . S
C1244 H1272 0.930 . S
C1245 C1244 1.393 . S
C1245 C1246 1.358 1_545 S
C1245 H1273 0.939 . S
C1246 C1245 1.358 1_565 S
C1246 C1247 1.370 . S
C1247 C1246 1.370 . S
C1247 C1248 1.396 . S
C1247 H1274 0.929 . S
C1248 C1243 1.373 1_565 S
C1248 C1247 1.396 . S
C1248 H1275 0.929 . S
C1249 O1262 1.240 . S
C1249 O1263 1.289 . S
C1250 O1264 1.258 . S
C1250 O1265 1.256 . S
C1251 La1241 2.928 1_545 S
C1251 C1252 1.503 . S
C1251 O1266 1.261 1_545 S
C1251 O1267 1.243 . S
C1252 C1251 1.503 . S
C1252 C1253 1.394 . S
C1252 C1257 1.373 . S
C1253 C1252 1.394 . S
C1253 C1254 1.380 . S
C1253 H1276 0.930 1_545 S
C1254 C1253 1.380 . S
C1254 C1255 1.376 . S
C1254 H1277 0.930 . S
C1255 C1254 1.376 . S
C1255 C1256 1.370 . S
C1256 C1255 1.370 . S
C1256 C1257 1.396 . S
C1256 H1278 0.929 . S
C1257 C1252 1.373 . S
C1257 C1256 1.396 . S
C1257 H1279 0.929 . S
C1258 O1268 1.240 1_545 S
C1258 O1269 1.289 . S
C1259 O1270 1.258 . S
C1259 O1271 1.256 . S
O1260 La1240 2.521 . S
O1260 C1242 1.261 . S
O1261 La1240 2.628 . S
O1261 C1242 1.243 . S
O1262 La1240 2.554 . S
O1262 C1249 1.240 . S
O1263 La1240 2.757 . S
O1263 La1241 2.482 1_545 S
O1263 C1249 1.289 . S
O1264 La1240 2.470 1_565 S
O1264 C1250 1.258 . S
O1265 La1241 2.503 . S
O1265 C1250 1.256 . S
O1266 La1241 2.521 . S
O1266 C1251 1.261 1_565 S
O1267 La1241 2.628 1_545 S
O1267 C1251 1.243 . S
O1268 La1241 2.554 . S
O1268 C1258 1.240 1_565 S
O1269 La1240 2.482 . S
O1269 La1241 2.757 1_545 S
O1269 C1258 1.289 . S
O1270 La1241 2.470 1_545 S
O1270 C1259 1.258 . S
O1271 La1240 2.503 . S
O1271 C1259 1.256 . S
H1272 C1244 0.930 . S
H1273 C1245 0.939 . S
H1274 C1247 0.929 . S
H1275 C1248 0.929 . S
H1276 C1253 0.930 1_565 S
H1277 C1254 0.930 . S
H1278 C1256 0.929 . S
H1279 C1257 0.929 . S
C1280 C1281 1.349 . S
C1280 C1282 1.327 . S
C1280 H1305 0.950 . S
C1281 C1280 1.349 . S
C1281 C1297 1.349 . S
C1282 C1280 1.327 . S
C1282 C1301 1.429 . S
C1282 H1306 0.950 . S
C1283 C1300 1.574 . S
C1283 C1302 1.368 . S
C1283 H1307 0.949 . S
H1284 C1288 0.949 . S
C1285 C1286 1.349 . S
C1285 C1287 1.327 . S
C1285 H1308 0.950 . S
C1286 C1285 1.349 . S
C1286 C1298 1.349 . S
C1287 C1285 1.327 . S
C1287 C1303 1.429 . S
C1287 H1309 0.950 . S
C1288 H1284 0.949 . S
C1288 C1296 1.574 . S
C1288 C1304 1.368 . S
H1289 C1297 0.950 . S
H1290 C1295 0.950 . S
H1291 C1296 0.949 . S
H1292 C1298 0.950 . S
H1293 C1299 0.950 . S
H1294 C1300 0.949 . S
C1295 H1290 0.950 . S
C1295 C1297 1.327 . S
C1295 C1301 1.429 . S
C1296 C1288 1.574 . S
C1296 H1291 0.949 . S
C1296 C1302 1.368 . S
C1297 C1281 1.349 . S
C1297 H1289 0.950 . S
C1297 C1295 1.327 . S
C1298 C1286 1.349 . S
C1298 H1292 0.950 . S
C1298 C1299 1.327 . S
C1299 H1293 0.950 . S
C1299 C1298 1.327 . S
C1299 C1303 1.429 . S
C1300 C1283 1.574 . S
C1300 H1294 0.949 . S
C1300 C1304 1.368 . S
C1301 C1282 1.429 . S
C1301 C1295 1.429 . S
C1301 C1302 1.523 . S
C1302 C1283 1.368 . S
C1302 C1296 1.368 . S
C1302 C1301 1.523 . S
C1303 C1287 1.429 . S
C1303 C1299 1.429 . S
C1303 C1304 1.523 . S
C1304 C1288 1.368 . S
C1304 C1300 1.368 . S
C1304 C1303 1.523 . S
H1305 C1280 0.950 . S
H1306 C1282 0.950 . S
H1307 C1283 0.949 . S
H1308 C1285 0.950 . S
H1309 C1287 0.950 . S
C1310 C1311 1.349 . S
C1310 C1312 1.327 . S
C1310 H1335 0.950 . S
C1311 C1310 1.349 . S
C1311 C1327 1.349 . S
C1312 C1310 1.327 . S
C1312 C1331 1.429 . S
C1312 H1336 0.950 . S
C1313 C1330 1.574 . S
C1313 C1332 1.368 . S
C1313 H1337 0.949 . S
H1314 C1318 0.949 . S
C1315 C1316 1.349 . S
C1315 C1317 1.327 . S
C1315 H1338 0.950 . S
C1316 C1315 1.349 . S
C1316 C1328 1.349 . S
C1317 C1315 1.327 . S
C1317 C1333 1.429 . S
C1317 H1339 0.950 . S
C1318 H1314 0.949 . S
C1318 C1326 1.574 . S
C1318 C1334 1.368 . S
H1319 C1327 0.950 . S
H1320 C1325 0.950 . S
H1321 C1326 0.949 . S
H1322 C1328 0.950 . S
H1323 C1329 0.950 . S
H1324 C1330 0.949 . S
C1325 H1320 0.950 . S
C1325 C1327 1.327 . S
C1325 C1331 1.429 . S
C1326 C1318 1.574 . S
C1326 H1321 0.949 . S
C1326 C1332 1.368 . S
C1327 C1311 1.349 . S
C1327 H1319 0.950 . S
C1327 C1325 1.327 . S
C1328 C1316 1.349 . S
C1328 H1322 0.950 . S
C1328 C1329 1.327 . S
C1329 H1323 0.950 . S
C1329 C1328 1.327 . S
C1329 C1333 1.429 . S
C1330 C1313 1.574 . S
C1330 H1324 0.949 . S
C1330 C1334 1.368 . S
C1331 C1312 1.429 . S
C1331 C1325 1.429 . S
C1331 C1332 1.523 . S
C1332 C1313 1.368 . S
C1332 C1326 1.368 . S
C1332 C1331 1.523 . S
C1333 C1317 1.429 . S
C1333 C1329 1.429 . S
C1333 C1334 1.523 . S
C1334 C1318 1.368 . S
C1334 C1330 1.368 . S
C1334 C1333 1.523 . S
H1335 C1310 0.950 . S
H1336 C1312 0.950 . S
H1337 C1313 0.949 . S
H1338 C1315 0.950 . S
H1339 C1317 0.950 . S
C1340 C1341 1.349 . S
C1340 C1342 1.327 . S
C1340 H1365 0.950 . S
C1341 C1340 1.349 . S
C1341 C1357 1.349 . S
C1342 C1340 1.327 . S
C1342 C1361 1.429 . S
C1342 H1366 0.950 . S
C1343 C1360 1.574 . S
C1343 C1362 1.368 . S
C1343 H1367 0.949 . S
H1344 C1348 0.949 . S
C1345 C1346 1.349 . S
C1345 C1347 1.327 . S
C1345 H1368 0.950 . S
C1346 C1345 1.349 . S
C1346 C1358 1.349 . S
C1347 C1345 1.327 . S
C1347 C1363 1.429 . S
C1347 H1369 0.950 . S
C1348 H1344 0.949 . S
C1348 C1356 1.574 . S
C1348 C1364 1.368 . S
H1349 C1357 0.950 . S
H1350 C1355 0.950 . S
H1351 C1356 0.949 . S
H1352 C1358 0.950 . S
H1353 C1359 0.950 . S
H1354 C1360 0.949 . S
C1355 H1350 0.950 . S
C1355 C1357 1.327 . S
C1355 C1361 1.429 . S
C1356 C1348 1.574 . S
C1356 H1351 0.949 . S
C1356 C1362 1.368 . S
C1357 C1341 1.349 . S
C1357 H1349 0.950 . S
C1357 C1355 1.327 . S
C1358 C1346 1.349 . S
C1358 H1352 0.950 . S
C1358 C1359 1.327 . S
C1359 H1353 0.950 . S
C1359 C1358 1.327 . S
C1359 C1363 1.429 . S
C1360 C1343 1.574 . S
C1360 H1354 0.949 . S
C1360 C1364 1.368 . S
C1361 C1342 1.429 . S
C1361 C1355 1.429 . S
C1361 C1362 1.523 . S
C1362 C1343 1.368 . S
C1362 C1356 1.368 . S
C1362 C1361 1.523 . S
C1363 C1347 1.429 . S
C1363 C1359 1.429 . S
C1363 C1364 1.523 . S
C1364 C1348 1.368 . S
C1364 C1360 1.368 . S
C1364 C1363 1.523 . S
H1365 C1340 0.950 . S
H1366 C1342 0.950 . S
H1367 C1343 0.949 . S
H1368 C1345 0.950 . S
H1369 C1347 0.950 . S
C1370 C1371 1.349 . S
C1370 C1372 1.327 . S
C1370 H1395 0.950 . S
C1371 C1370 1.349 . S
C1371 C1387 1.349 . S
C1372 C1370 1.327 . S
C1372 C1391 1.429 . S
C1372 H1396 0.950 . S
C1373 C1390 1.574 . S
C1373 C1392 1.368 . S
C1373 H1397 0.949 . S
H1374 C1378 0.949 . S
C1375 C1376 1.349 . S
C1375 C1377 1.327 . S
C1375 H1398 0.950 . S
C1376 C1375 1.349 . S
C1376 C1388 1.349 . S
C1377 C1375 1.327 . S
C1377 C1393 1.429 . S
C1377 H1399 0.950 . S
C1378 H1374 0.949 . S
C1378 C1386 1.574 . S
C1378 C1394 1.368 . S
H1379 C1387 0.950 . S
H1380 C1385 0.950 . S
H1381 C1386 0.949 . S
H1382 C1388 0.950 . S
H1383 C1389 0.950 . S
H1384 C1390 0.949 . S
C1385 H1380 0.950 . S
C1385 C1387 1.327 . S
C1385 C1391 1.429 . S
C1386 C1378 1.574 . S
C1386 H1381 0.949 . S
C1386 C1392 1.368 . S
C1387 C1371 1.349 . S
C1387 H1379 0.950 . S
C1387 C1385 1.327 . S
C1388 C1376 1.349 . S
C1388 H1382 0.950 . S
C1388 C1389 1.327 . S
C1389 H1383 0.950 . S
C1389 C1388 1.327 . S
C1389 C1393 1.429 . S
C1390 C1373 1.574 . S
C1390 H1384 0.949 . S
C1390 C1394 1.368 . S
C1391 C1372 1.429 . S
C1391 C1385 1.429 . S
C1391 C1392 1.523 . S
C1392 C1373 1.368 . S
C1392 C1386 1.368 . S
C1392 C1391 1.523 . S
C1393 C1377 1.429 . S
C1393 C1389 1.429 . S
C1393 C1394 1.523 . S
C1394 C1378 1.368 . S
C1394 C1390 1.368 . S
C1394 C1393 1.523 . S
H1395 C1370 0.950 . S
H1396 C1372 0.950 . S
H1397 C1373 0.949 . S
H1398 C1375 0.950 . S
H1399 C1377 0.950 . S
C1400 C1401 1.349 . S
C1400 C1402 1.327 . S
C1400 H1425 0.950 . S
C1401 C1400 1.349 . S
C1401 C1417 1.349 . S
C1402 C1400 1.327 . S
C1402 C1421 1.429 . S
C1402 H1426 0.950 . S
C1403 C1420 1.574 . S
C1403 C1422 1.368 . S
C1403 H1427 0.949 . S
H1404 C1408 0.949 . S
C1405 C1406 1.349 . S
C1405 C1407 1.327 . S
C1405 H1428 0.950 . S
C1406 C1405 1.349 . S
C1406 C1418 1.349 . S
C1407 C1405 1.327 . S
C1407 C1423 1.429 . S
C1407 H1429 0.950 . S
C1408 H1404 0.949 . S
C1408 C1416 1.574 . S
C1408 C1424 1.368 . S
H1409 C1417 0.950 . S
H1410 C1415 0.950 . S
H1411 C1416 0.949 . S
H1412 C1418 0.950 . S
H1413 C1419 0.950 . S
H1414 C1420 0.949 . S
C1415 H1410 0.950 . S
C1415 C1417 1.327 . S
C1415 C1421 1.429 . S
C1416 C1408 1.574 . S
C1416 H1411 0.949 . S
C1416 C1422 1.368 . S
C1417 C1401 1.349 . S
C1417 H1409 0.950 . S
C1417 C1415 1.327 . S
C1418 C1406 1.349 . S
C1418 H1412 0.950 . S
C1418 C1419 1.327 . S
C1419 H1413 0.950 . S
C1419 C1418 1.327 . S
C1419 C1423 1.429 . S
C1420 C1403 1.574 . S
C1420 H1414 0.949 . S
C1420 C1424 1.368 . S
C1421 C1402 1.429 . S
C1421 C1415 1.429 . S
C1421 C1422 1.523 . S
C1422 C1403 1.368 . S
C1422 C1416 1.368 . S
C1422 C1421 1.523 . S
C1423 C1407 1.429 . S
C1423 C1419 1.429 . S
C1423 C1424 1.523 . S
C1424 C1408 1.368 . S
C1424 C1420 1.368 . S
C1424 C1423 1.523 . S
H1425 C1400 0.950 . S
H1426 C1402 0.950 . S
H1427 C1403 0.949 . S
H1428 C1405 0.950 . S
H1429 C1407 0.950 . S
C1430 C1431 1.349 . S
C1430 C1432 1.327 . S
C1430 H1455 0.950 . S
C1431 C1430 1.349 . S
C1431 C1447 1.349 . S
C1432 C1430 1.327 . S
C1432 C1451 1.429 . S
C1432 H1456 0.950 . S
C1433 C1450 1.574 . S
C1433 C1452 1.368 . S
C1433 H1457 0.949 . S
H1434 C1438 0.949 . S
C1435 C1436 1.349 . S
C1435 C1437 1.327 . S
C1435 H1458 0.950 . S
C1436 C1435 1.349 . S
C1436 C1448 1.349 . S
C1437 C1435 1.327 . S
C1437 C1453 1.429 . S
C1437 H1459 0.950 . S
C1438 H1434 0.949 . S
C1438 C1446 1.574 . S
C1438 C1454 1.368 . S
H1439 C1447 0.950 . S
H1440 C1445 0.950 . S
H1441 C1446 0.949 . S
H1442 C1448 0.950 . S
H1443 C1449 0.950 . S
H1444 C1450 0.949 . S
C1445 H1440 0.950 . S
C1445 C1447 1.327 . S
C1445 C1451 1.429 . S
C1446 C1438 1.574 . S
C1446 H1441 0.949 . S
C1446 C1452 1.368 . S
C1447 C1431 1.349 . S
C1447 H1439 0.950 . S
C1447 C1445 1.327 . S
C1448 C1436 1.349 . S
C1448 H1442 0.950 . S
C1448 C1449 1.327 . S
C1449 H1443 0.950 . S
C1449 C1448 1.327 . S
C1449 C1453 1.429 . S
C1450 C1433 1.574 . S
C1450 H1444 0.949 . S
C1450 C1454 1.368 . S
C1451 C1432 1.429 . S
C1451 C1445 1.429 . S
C1451 C1452 1.523 . S
C1452 C1433 1.368 . S
C1452 C1446 1.368 . S
C1452 C1451 1.523 . S
C1453 C1437 1.429 . S
C1453 C1449 1.429 . S
C1453 C1454 1.523 . S
C1454 C1438 1.368 . S
C1454 C1450 1.368 . S
C1454 C1453 1.523 . S
H1455 C1430 0.950 . S
H1456 C1432 0.950 . S
H1457 C1433 0.949 . S
H1458 C1435 0.950 . S
H1459 C1437 0.950 . S
C1460 C1461 1.349 . S
C1460 C1462 1.327 . S
C1460 H1485 0.950 . S
C1461 C1460 1.349 . S
C1461 C1477 1.349 . S
C1462 C1460 1.327 . S
C1462 C1481 1.429 . S
C1462 H1486 0.950 . S
C1463 C1480 1.574 . S
C1463 C1482 1.368 . S
C1463 H1487 0.949 . S
H1464 C1468 0.949 . S
C1465 C1466 1.349 . S
C1465 C1467 1.327 . S
C1465 H1488 0.950 . S
C1466 C1465 1.349 . S
C1466 C1478 1.349 . S
C1467 C1465 1.327 . S
C1467 C1483 1.429 . S
C1467 H1489 0.950 . S
C1468 H1464 0.949 . S
C1468 C1476 1.574 . S
C1468 C1484 1.368 . S
H1469 C1477 0.950 . S
H1470 C1475 0.950 . S
H1471 C1476 0.949 . S
H1472 C1478 0.950 . S
H1473 C1479 0.950 . S
H1474 C1480 0.949 . S
C1475 H1470 0.950 . S
C1475 C1477 1.327 . S
C1475 C1481 1.429 . S
C1476 C1468 1.574 . S
C1476 H1471 0.949 . S
C1476 C1482 1.368 . S
C1477 C1461 1.349 . S
C1477 H1469 0.950 . S
C1477 C1475 1.327 . S
C1478 C1466 1.349 . S
C1478 H1472 0.950 . S
C1478 C1479 1.327 . S
C1479 H1473 0.950 . S
C1479 C1478 1.327 . S
C1479 C1483 1.429 . S
C1480 C1463 1.574 . S
C1480 H1474 0.949 . S
C1480 C1484 1.368 . S
C1481 C1462 1.429 . S
C1481 C1475 1.429 . S
C1481 C1482 1.523 . S
C1482 C1463 1.368 . S
C1482 C1476 1.368 . S
C1482 C1481 1.523 . S
C1483 C1467 1.429 . S
C1483 C1479 1.429 . S
C1483 C1484 1.523 . S
C1484 C1468 1.368 . S
C1484 C1480 1.368 . S
C1484 C1483 1.523 . S
H1485 C1460 0.950 . S
H1486 C1462 0.950 . S
H1487 C1463 0.949 . S
H1488 C1465 0.950 . S
H1489 C1467 0.950 . S
C1490 C1491 1.349 . S
C1490 C1492 1.327 . S
C1490 H1515 0.950 . S
C1491 C1490 1.349 . S
C1491 C1507 1.349 . S
C1492 C1490 1.327 . S
C1492 C1511 1.429 . S
C1492 H1516 0.950 . S
C1493 C1510 1.574 . S
C1493 C1512 1.368 . S
C1493 H1517 0.949 . S
H1494 C1498 0.949 . S
C1495 C1496 1.349 . S
C1495 C1497 1.327 . S
C1495 H1518 0.950 . S
C1496 C1495 1.349 . S
C1496 C1508 1.349 . S
C1497 C1495 1.327 . S
C1497 C1513 1.429 . S
C1497 H1519 0.950 . S
C1498 H1494 0.949 . S
C1498 C1506 1.574 . S
C1498 C1514 1.368 . S
H1499 C1507 0.950 . S
H1500 C1505 0.950 . S
H1501 C1506 0.949 . S
H1502 C1508 0.950 . S
H1503 C1509 0.950 . S
H1504 C1510 0.949 . S
C1505 H1500 0.950 . S
C1505 C1507 1.327 . S
C1505 C1511 1.429 . S
C1506 C1498 1.574 . S
C1506 H1501 0.949 . S
C1506 C1512 1.368 . S
C1507 C1491 1.349 . S
C1507 H1499 0.950 . S
C1507 C1505 1.327 . S
C1508 C1496 1.349 . S
C1508 H1502 0.950 . S
C1508 C1509 1.327 . S
C1509 H1503 0.950 . S
C1509 C1508 1.327 . S
C1509 C1513 1.429 . S
C1510 C1493 1.574 . S
C1510 H1504 0.949 . S
C1510 C1514 1.368 . S
C1511 C1492 1.429 . S
C1511 C1505 1.429 . S
C1511 C1512 1.523 . S
C1512 C1493 1.368 . S
C1512 C1506 1.368 . S
C1512 C1511 1.523 . S
C1513 C1497 1.429 . S
C1513 C1509 1.429 . S
C1513 C1514 1.523 . S
C1514 C1498 1.368 . S
C1514 C1510 1.368 . S
C1514 C1513 1.523 . S
H1515 C1490 0.950 . S
H1516 C1492 0.950 . S
H1517 C1493 0.949 . S
H1518 C1495 0.950 . S
H1519 C1497 0.950 . S
C1520 C1521 1.349 . S
C1520 C1522 1.327 . S
C1520 H1545 0.950 . S
C1521 C1520 1.349 . S
C1521 C1537 1.349 . S
C1522 C1520 1.327 . S
C1522 C1541 1.429 . S
C1522 H1546 0.950 . S
C1523 C1540 1.574 . S
C1523 C1542 1.368 . S
C1523 H1547 0.949 . S
H1524 C1528 0.949 . S
C1525 C1526 1.349 . S
C1525 C1527 1.327 . S
C1525 H1548 0.950 . S
C1526 C1525 1.349 . S
C1526 C1538 1.349 . S
C1527 C1525 1.327 . S
C1527 C1543 1.429 . S
C1527 H1549 0.950 . S
C1528 H1524 0.949 . S
C1528 C1536 1.574 . S
C1528 C1544 1.368 . S
H1529 C1537 0.950 . S
H1530 C1535 0.950 . S
H1531 C1536 0.949 . S
H1532 C1538 0.950 . S
H1533 C1539 0.950 . S
H1534 C1540 0.949 . S
C1535 H1530 0.950 . S
C1535 C1537 1.327 . S
C1535 C1541 1.429 . S
C1536 C1528 1.574 . S
C1536 H1531 0.949 . S
C1536 C1542 1.368 . S
C1537 C1521 1.349 . S
C1537 H1529 0.950 . S
C1537 C1535 1.327 . S
C1538 C1526 1.349 . S
C1538 H1532 0.950 . S
C1538 C1539 1.327 . S
C1539 H1533 0.950 . S
C1539 C1538 1.327 . S
C1539 C1543 1.429 . S
C1540 C1523 1.574 . S
C1540 H1534 0.949 . S
C1540 C1544 1.368 . S
C1541 C1522 1.429 . S
C1541 C1535 1.429 . S
C1541 C1542 1.523 . S
C1542 C1523 1.368 . S
C1542 C1536 1.368 . S
C1542 C1541 1.523 . S
C1543 C1527 1.429 . S
C1543 C1539 1.429 . S
C1543 C1544 1.523 . S
C1544 C1528 1.368 . S
C1544 C1540 1.368 . S
C1544 C1543 1.523 . S
H1545 C1520 0.950 . S
H1546 C1522 0.950 . S
H1547 C1523 0.949 . S
H1548 C1525 0.950 . S
H1549 C1527 0.950 . S
C1550 C1551 1.349 . S
C1550 C1552 1.327 . S
C1550 H1575 0.950 . S
C1551 C1550 1.349 . S
C1551 C1567 1.349 . S
C1552 C1550 1.327 . S
C1552 C1571 1.429 . S
C1552 H1576 0.950 . S
C1553 C1570 1.574 . S
C1553 C1572 1.368 . S
C1553 H1577 0.949 . S
H1554 C1558 0.949 . S
C1555 C1556 1.349 . S
C1555 C1557 1.327 . S
C1555 H1578 0.950 . S
C1556 C1555 1.349 . S
C1556 C1568 1.349 . S
C1557 C1555 1.327 . S
C1557 C1573 1.429 . S
C1557 H1579 0.950 . S
C1558 H1554 0.949 . S
C1558 C1566 1.574 . S
C1558 C1574 1.368 . S
H1559 C1567 0.950 . S
H1560 C1565 0.950 . S
H1561 C1566 0.949 . S
H1562 C1568 0.950 . S
H1563 C1569 0.950 . S
H1564 C1570 0.949 . S
C1565 H1560 0.950 . S
C1565 C1567 1.327 . S
C1565 C1571 1.429 . S
C1566 C1558 1.574 . S
C1566 H1561 0.949 . S
C1566 C1572 1.368 . S
C1567 C1551 1.349 . S
C1567 H1559 0.950 . S
C1567 C1565 1.327 . S
C1568 C1556 1.349 . S
C1568 H1562 0.950 . S
C1568 C1569 1.327 . S
C1569 H1563 0.950 . S
C1569 C1568 1.327 . S
C1569 C1573 1.429 . S
C1570 C1553 1.574 . S
C1570 H1564 0.949 . S
C1570 C1574 1.368 . S
C1571 C1552 1.429 . S
C1571 C1565 1.429 . S
C1571 C1572 1.523 . S
C1572 C1553 1.368 . S
C1572 C1566 1.368 . S
C1572 C1571 1.523 . S
C1573 C1557 1.429 . S
C1573 C1569 1.429 . S
C1573 C1574 1.523 . S
C1574 C1558 1.368 . S
C1574 C1570 1.368 . S
C1574 C1573 1.523 . S
H1575 C1550 0.950 . S
H1576 C1552 0.950 . S
H1577 C1553 0.949 . S
H1578 C1555 0.950 . S
H1579 C1557 0.950 . S
C1580 C1581 1.349 . S
C1580 C1582 1.327 . S
C1580 H1605 0.950 . S
C1581 C1580 1.349 . S
C1581 C1597 1.349 . S
C1582 C1580 1.327 . S
C1582 C1601 1.429 . S
C1582 H1606 0.950 . S
C1583 C1600 1.574 . S
C1583 C1602 1.368 . S
C1583 H1607 0.949 . S
H1584 C1588 0.949 . S
C1585 C1586 1.349 . S
C1585 C1587 1.327 . S
C1585 H1608 0.950 . S
C1586 C1585 1.349 . S
C1586 C1598 1.349 . S
C1587 C1585 1.327 . S
C1587 C1603 1.429 . S
C1587 H1609 0.950 . S
C1588 H1584 0.949 . S
C1588 C1596 1.574 . S
C1588 C1604 1.368 . S
H1589 C1597 0.950 . S
H1590 C1595 0.950 . S
H1591 C1596 0.949 . S
H1592 C1598 0.950 . S
H1593 C1599 0.950 . S
H1594 C1600 0.949 . S
C1595 H1590 0.950 . S
C1595 C1597 1.327 . S
C1595 C1601 1.429 . S
C1596 C1588 1.574 . S
C1596 H1591 0.949 . S
C1596 C1602 1.368 . S
C1597 C1581 1.349 . S
C1597 H1589 0.950 . S
C1597 C1595 1.327 . S
C1598 C1586 1.349 . S
C1598 H1592 0.950 . S
C1598 C1599 1.327 . S
C1599 H1593 0.950 . S
C1599 C1598 1.327 . S
C1599 C1603 1.429 . S
C1600 C1583 1.574 . S
C1600 H1594 0.949 . S
C1600 C1604 1.368 . S
C1601 C1582 1.429 . S
C1601 C1595 1.429 . S
C1601 C1602 1.523 . S
C1602 C1583 1.368 . S
C1602 C1596 1.368 . S
C1602 C1601 1.523 . S
C1603 C1587 1.429 . S
C1603 C1599 1.429 . S
C1603 C1604 1.523 . S
C1604 C1588 1.368 . S
C1604 C1600 1.368 . S
C1604 C1603 1.523 . S
H1605 C1580 0.950 . S
H1606 C1582 0.950 . S
H1607 C1583 0.949 . S
H1608 C1585 0.950 . S
H1609 C1587 0.950 . S
C1610 C1611 1.349 . S
C1610 C1612 1.327 . S
C1610 H1635 0.950 . S
C1611 C1610 1.349 . S
C1611 C1627 1.349 . S
C1612 C1610 1.327 . S
C1612 C1631 1.429 . S
C1612 H1636 0.950 . S
C1613 C1630 1.574 . S
C1613 C1632 1.368 . S
C1613 H1637 0.949 . S
H1614 C1618 0.949 . S
C1615 C1616 1.349 . S
C1615 C1617 1.327 . S
C1615 H1638 0.950 . S
C1616 C1615 1.349 . S
C1616 C1628 1.349 . S
C1617 C1615 1.327 . S
C1617 C1633 1.429 . S
C1617 H1639 0.950 . S
C1618 H1614 0.949 . S
C1618 C1626 1.574 . S
C1618 C1634 1.368 . S
H1619 C1627 0.950 . S
H1620 C1625 0.950 . S
H1621 C1626 0.949 . S
H1622 C1628 0.950 . S
H1623 C1629 0.950 . S
H1624 C1630 0.949 . S
C1625 H1620 0.950 . S
C1625 C1627 1.327 . S
C1625 C1631 1.429 . S
C1626 C1618 1.574 . S
C1626 H1621 0.949 . S
C1626 C1632 1.368 . S
C1627 C1611 1.349 . S
C1627 H1619 0.950 . S
C1627 C1625 1.327 . S
C1628 C1616 1.349 . S
C1628 H1622 0.950 . S
C1628 C1629 1.327 . S
C1629 H1623 0.950 . S
C1629 C1628 1.327 . S
C1629 C1633 1.429 . S
C1630 C1613 1.574 . S
C1630 H1624 0.949 . S
C1630 C1634 1.368 . S
C1631 C1612 1.429 . S
C1631 C1625 1.429 . S
C1631 C1632 1.523 . S
C1632 C1613 1.368 . S
C1632 C1626 1.368 . S
C1632 C1631 1.523 . S
C1633 C1617 1.429 . S
C1633 C1629 1.429 . S
C1633 C1634 1.523 . S
C1634 C1618 1.368 . S
C1634 C1630 1.368 . S
C1634 C1633 1.523 . S
H1635 C1610 0.950 . S
H1636 C1612 0.950 . S
H1637 C1613 0.949 . S
H1638 C1615 0.950 . S
H1639 C1617 0.950 . S
C1640 C1641 1.349 . S
C1640 C1642 1.327 . S
C1640 H1665 0.950 . S
C1641 C1640 1.349 . S
C1641 C1657 1.349 . S
C1642 C1640 1.327 . S
C1642 C1661 1.429 . S
C1642 H1666 0.950 . S
C1643 C1660 1.574 . S
C1643 C1662 1.368 . S
C1643 H1667 0.949 . S
H1644 C1648 0.949 . S
C1645 C1646 1.349 . S
C1645 C1647 1.327 . S
C1645 H1668 0.950 . S
C1646 C1645 1.349 . S
C1646 C1658 1.349 . S
C1647 C1645 1.327 . S
C1647 C1663 1.429 . S
C1647 H1669 0.950 . S
C1648 H1644 0.949 . S
C1648 C1656 1.574 . S
C1648 C1664 1.368 . S
H1649 C1657 0.950 . S
H1650 C1655 0.950 . S
H1651 C1656 0.949 . S
H1652 C1658 0.950 . S
H1653 C1659 0.950 . S
H1654 C1660 0.949 . S
C1655 H1650 0.950 . S
C1655 C1657 1.327 . S
C1655 C1661 1.429 . S
C1656 C1648 1.574 . S
C1656 H1651 0.949 . S
C1656 C1662 1.368 . S
C1657 C1641 1.349 . S
C1657 H1649 0.950 . S
C1657 C1655 1.327 . S
C1658 C1646 1.349 . S
C1658 H1652 0.950 . S
C1658 C1659 1.327 . S
C1659 H1653 0.950 . S
C1659 C1658 1.327 . S
C1659 C1663 1.429 . S
C1660 C1643 1.574 . S
C1660 H1654 0.949 . S
C1660 C1664 1.368 . S
C1661 C1642 1.429 . S
C1661 C1655 1.429 . S
C1661 C1662 1.523 . S
C1662 C1643 1.368 . S
C1662 C1656 1.368 . S
C1662 C1661 1.523 . S
C1663 C1647 1.429 . S
C1663 C1659 1.429 . S
C1663 C1664 1.523 . S
C1664 C1648 1.368 . S
C1664 C1660 1.368 . S
C1664 C1663 1.523 . S
H1665 C1640 0.950 . S
H1666 C1642 0.950 . S
H1667 C1643 0.949 . S
H1668 C1645 0.950 . S
H1669 C1647 0.950 . S
C1670 C1671 1.349 . S
C1670 C1672 1.327 . S
C1670 H1695 0.950 . S
C1671 C1670 1.349 . S
C1671 C1687 1.349 . S
C1672 C1670 1.327 . S
C1672 C1691 1.429 . S
C1672 H1696 0.950 . S
C1673 C1690 1.574 . S
C1673 C1692 1.368 . S
C1673 H1697 0.949 . S
H1674 C1678 0.949 . S
C1675 C1676 1.349 . S
C1675 C1677 1.327 . S
C1675 H1698 0.950 . S
C1676 C1675 1.349 . S
C1676 C1688 1.349 . S
C1677 C1675 1.327 . S
C1677 C1693 1.429 . S
C1677 H1699 0.950 . S
C1678 H1674 0.949 . S
C1678 C1686 1.574 . S
C1678 C1694 1.368 . S
H1679 C1687 0.950 . S
H1680 C1685 0.950 . S
H1681 C1686 0.949 . S
H1682 C1688 0.950 . S
H1683 C1689 0.950 . S
H1684 C1690 0.949 . S
C1685 H1680 0.950 . S
C1685 C1687 1.327 . S
C1685 C1691 1.429 . S
C1686 C1678 1.574 . S
C1686 H1681 0.949 . S
C1686 C1692 1.368 . S
C1687 C1671 1.349 . S
C1687 H1679 0.950 . S
C1687 C1685 1.327 . S
C1688 C1676 1.349 . S
C1688 H1682 0.950 . S
C1688 C1689 1.327 . S
C1689 H1683 0.950 . S
C1689 C1688 1.327 . S
C1689 C1693 1.429 . S
C1690 C1673 1.574 . S
C1690 H1684 0.949 . S
C1690 C1694 1.368 . S
C1691 C1672 1.429 . S
C1691 C1685 1.429 . S
C1691 C1692 1.523 . S
C1692 C1673 1.368 . S
C1692 C1686 1.368 . S
C1692 C1691 1.523 . S
C1693 C1677 1.429 . S
C1693 C1689 1.429 . S
C1693 C1694 1.523 . S
C1694 C1678 1.368 . S
C1694 C1690 1.368 . S
C1694 C1693 1.523 . S
H1695 C1670 0.950 . S
H1696 C1672 0.950 . S
H1697 C1673 0.949 . S
H1698 C1675 0.950 . S
H1699 C1677 0.950 . S
C1700 C1701 1.349 . S
C1700 C1702 1.327 . S
C1700 H1725 0.950 . S
C1701 C1700 1.349 . S
C1701 C1717 1.349 . S
C1702 C1700 1.327 . S
C1702 C1721 1.429 . S
C1702 H1726 0.950 . S
C1703 C1720 1.574 . S
C1703 C1722 1.368 . S
C1703 H1727 0.949 . S
H1704 C1708 0.949 . S
C1705 C1706 1.349 . S
C1705 C1707 1.327 . S
C1705 H1728 0.950 . S
C1706 C1705 1.349 . S
C1706 C1718 1.349 . S
C1707 C1705 1.327 . S
C1707 C1723 1.429 . S
C1707 H1729 0.950 . S
C1708 H1704 0.949 . S
C1708 C1716 1.574 . S
C1708 C1724 1.368 . S
H1709 C1717 0.950 . S
H1710 C1715 0.950 . S
H1711 C1716 0.949 . S
H1712 C1718 0.950 . S
H1713 C1719 0.950 . S
H1714 C1720 0.949 . S
C1715 H1710 0.950 . S
C1715 C1717 1.327 . S
C1715 C1721 1.429 . S
C1716 C1708 1.574 . S
C1716 H1711 0.949 . S
C1716 C1722 1.368 . S
C1717 C1701 1.349 . S
C1717 H1709 0.950 . S
C1717 C1715 1.327 . S
C1718 C1706 1.349 . S
C1718 H1712 0.950 . S
C1718 C1719 1.327 . S
C1719 H1713 0.950 . S
C1719 C1718 1.327 . S
C1719 C1723 1.429 . S
C1720 C1703 1.574 . S
C1720 H1714 0.949 . S
C1720 C1724 1.368 . S
C1721 C1702 1.429 . S
C1721 C1715 1.429 . S
C1721 C1722 1.523 . S
C1722 C1703 1.368 . S
C1722 C1716 1.368 . S
C1722 C1721 1.523 . S
C1723 C1707 1.429 . S
C1723 C1719 1.429 . S
C1723 C1724 1.523 . S
C1724 C1708 1.368 . S
C1724 C1720 1.368 . S
C1724 C1723 1.523 . S
H1725 C1700 0.950 . S
H1726 C1702 0.950 . S
H1727 C1703 0.949 . S
H1728 C1705 0.950 . S
H1729 C1707 0.950 . S
C1730 C1731 1.349 . S
C1730 C1732 1.327 . S
C1730 H1755 0.950 . S
C1731 C1730 1.349 . S
C1731 C1747 1.349 . S
C1732 C1730 1.327 . S
C1732 C1751 1.429 . S
C1732 H1756 0.950 . S
C1733 C1750 1.574 . S
C1733 C1752 1.368 . S
C1733 H1757 0.949 . S
H1734 C1738 0.949 . S
C1735 C1736 1.349 . S
C1735 C1737 1.327 . S
C1735 H1758 0.950 . S
C1736 C1735 1.349 . S
C1736 C1748 1.349 . S
C1737 C1735 1.327 . S
C1737 C1753 1.429 . S
C1737 H1759 0.950 . S
C1738 H1734 0.949 . S
C1738 C1746 1.574 . S
C1738 C1754 1.368 . S
H1739 C1747 0.950 . S
H1740 C1745 0.950 . S
H1741 C1746 0.949 . S
H1742 C1748 0.950 . S
H1743 C1749 0.950 . S
H1744 C1750 0.949 . S
C1745 H1740 0.950 . S
C1745 C1747 1.327 . S
C1745 C1751 1.429 . S
C1746 C1738 1.574 . S
C1746 H1741 0.949 . S
C1746 C1752 1.368 . S
C1747 C1731 1.349 . S
C1747 H1739 0.950 . S
C1747 C1745 1.327 . S
C1748 C1736 1.349 . S
C1748 H1742 0.950 . S
C1748 C1749 1.327 . S
C1749 H1743 0.950 . S
C1749 C1748 1.327 . S
C1749 C1753 1.429 . S
C1750 C1733 1.574 . S
C1750 H1744 0.949 . S
C1750 C1754 1.368 . S
C1751 C1732 1.429 . S
C1751 C1745 1.429 . S
C1751 C1752 1.523 . S
C1752 C1733 1.368 . S
C1752 C1746 1.368 . S
C1752 C1751 1.523 . S
C1753 C1737 1.429 . S
C1753 C1749 1.429 . S
C1753 C1754 1.523 . S
C1754 C1738 1.368 . S
C1754 C1750 1.368 . S
C1754 C1753 1.523 . S
H1755 C1730 0.950 . S
H1756 C1732 0.950 . S
H1757 C1733 0.949 . S
H1758 C1735 0.950 . S
H1759 C1737 0.950 . S
C1760 C1761 1.349 . S
C1760 C1762 1.327 . S
C1760 H1785 0.950 . S
C1761 C1760 1.349 . S
C1761 C1777 1.349 . S
C1762 C1760 1.327 . S
C1762 C1781 1.429 . S
C1762 H1786 0.950 . S
C1763 C1780 1.574 . S
C1763 C1782 1.368 . S
C1763 H1787 0.949 . S
H1764 C1768 0.949 . S
C1765 C1766 1.349 . S
C1765 C1767 1.327 . S
C1765 H1788 0.950 . S
C1766 C1765 1.349 . S
C1766 C1778 1.349 . S
C1767 C1765 1.327 . S
C1767 C1783 1.429 . S
C1767 H1789 0.950 . S
C1768 H1764 0.949 . S
C1768 C1776 1.574 . S
C1768 C1784 1.368 . S
H1769 C1777 0.950 . S
H1770 C1775 0.950 . S
H1771 C1776 0.949 . S
H1772 C1778 0.950 . S
H1773 C1779 0.950 . S
H1774 C1780 0.949 . S
C1775 H1770 0.950 . S
C1775 C1777 1.327 . S
C1775 C1781 1.429 . S
C1776 C1768 1.574 . S
C1776 H1771 0.949 . S
C1776 C1782 1.368 . S
C1777 C1761 1.349 . S
C1777 H1769 0.950 . S
C1777 C1775 1.327 . S
C1778 C1766 1.349 . S
C1778 H1772 0.950 . S
C1778 C1779 1.327 . S
C1779 H1773 0.950 . S
C1779 C1778 1.327 . S
C1779 C1783 1.429 . S
C1780 C1763 1.574 . S
C1780 H1774 0.949 . S
C1780 C1784 1.368 . S
C1781 C1762 1.429 . S
C1781 C1775 1.429 . S
C1781 C1782 1.523 . S
C1782 C1763 1.368 . S
C1782 C1776 1.368 . S
C1782 C1781 1.523 . S
C1783 C1767 1.429 . S
C1783 C1779 1.429 . S
C1783 C1784 1.523 . S
C1784 C1768 1.368 . S
C1784 C1780 1.368 . S
C1784 C1783 1.523 . S
H1785 C1760 0.950 . S
H1786 C1762 0.950 . S
H1787 C1763 0.949 . S
H1788 C1765 0.950 . S
H1789 C1767 0.950 . S
C1790 C1791 1.349 . S
C1790 C1792 1.327 . S
C1790 H1815 0.950 . S
C1791 C1790 1.349 . S
C1791 C1807 1.349 . S
C1792 C1790 1.327 . S
C1792 C1811 1.429 . S
C1792 H1816 0.950 . S
C1793 C1810 1.574 . S
C1793 C1812 1.368 . S
C1793 H1817 0.949 . S
H1794 C1798 0.949 . S
C1795 C1796 1.349 . S
C1795 C1797 1.327 . S
C1795 H1818 0.950 . S
C1796 C1795 1.349 . S
C1796 C1808 1.349 . S
C1797 C1795 1.327 . S
C1797 C1813 1.429 . S
C1797 H1819 0.950 . S
C1798 H1794 0.949 . S
C1798 C1806 1.574 . S
C1798 C1814 1.368 . S
H1799 C1807 0.950 . S
H1800 C1805 0.950 . S
H1801 C1806 0.949 . S
H1802 C1808 0.950 . S
H1803 C1809 0.950 . S
H1804 C1810 0.949 . S
C1805 H1800 0.950 . S
C1805 C1807 1.327 . S
C1805 C1811 1.429 . S
C1806 C1798 1.574 . S
C1806 H1801 0.949 . S
C1806 C1812 1.368 . S
C1807 C1791 1.349 . S
C1807 H1799 0.950 . S
C1807 C1805 1.327 . S
C1808 C1796 1.349 . S
C1808 H1802 0.950 . S
C1808 C1809 1.327 . S
C1809 H1803 0.950 . S
C1809 C1808 1.327 . S
C1809 C1813 1.429 . S
C1810 C1793 1.574 . S
C1810 H1804 0.949 . S
C1810 C1814 1.368 . S
C1811 C1792 1.429 . S
C1811 C1805 1.429 . S
C1811 C1812 1.523 . S
C1812 C1793 1.368 . S
C1812 C1806 1.368 . S
C1812 C1811 1.523 . S
C1813 C1797 1.429 . S
C1813 C1809 1.429 . S
C1813 C1814 1.523 . S
C1814 C1798 1.368 . S
C1814 C1810 1.368 . S
C1814 C1813 1.523 . S
H1815 C1790 0.950 . S
H1816 C1792 0.950 . S
H1817 C1793 0.949 . S
H1818 C1795 0.950 . S
H1819 C1797 0.950 . S
C1820 C1821 1.349 . S
C1820 C1822 1.327 . S
C1820 H1845 0.950 . S
C1821 C1820 1.349 . S
C1821 C1837 1.349 . S
C1822 C1820 1.327 . S
C1822 C1841 1.429 . S
C1822 H1846 0.950 . S
C1823 C1840 1.574 . S
C1823 C1842 1.368 . S
C1823 H1847 0.949 . S
H1824 C1828 0.949 . S
C1825 C1826 1.349 . S
C1825 C1827 1.327 . S
C1825 H1848 0.950 . S
C1826 C1825 1.349 . S
C1826 C1838 1.349 . S
C1827 C1825 1.327 . S
C1827 C1843 1.429 . S
C1827 H1849 0.950 . S
C1828 H1824 0.949 . S
C1828 C1836 1.574 . S
C1828 C1844 1.368 . S
H1829 C1837 0.950 . S
H1830 C1835 0.950 . S
H1831 C1836 0.949 . S
H1832 C1838 0.950 . S
H1833 C1839 0.950 . S
H1834 C1840 0.949 . S
C1835 H1830 0.950 . S
C1835 C1837 1.327 . S
C1835 C1841 1.429 . S
C1836 C1828 1.574 . S
C1836 H1831 0.949 . S
C1836 C1842 1.368 . S
C1837 C1821 1.349 . S
C1837 H1829 0.950 . S
C1837 C1835 1.327 . S
C1838 C1826 1.349 . S
C1838 H1832 0.950 . S
C1838 C1839 1.327 . S
C1839 H1833 0.950 . S
C1839 C1838 1.327 . S
C1839 C1843 1.429 . S
C1840 C1823 1.574 . S
C1840 H1834 0.949 . S
C1840 C1844 1.368 . S
C1841 C1822 1.429 . S
C1841 C1835 1.429 . S
C1841 C1842 1.523 . S
C1842 C1823 1.368 . S
C1842 C1836 1.368 . S
C1842 C1841 1.523 . S
C1843 C1827 1.429 . S
C1843 C1839 1.429 . S
C1843 C1844 1.523 . S
C1844 C1828 1.368 . S
C1844 C1840 1.368 . S
C1844 C1843 1.523 . S
H1845 C1820 0.950 . S
H1846 C1822 0.950 . S
H1847 C1823 0.949 . S
H1848 C1825 0.950 . S
H1849 C1827 0.950 . S
C1850 C1851 1.349 . S
C1850 C1852 1.327 . S
C1850 H1875 0.950 . S
C1851 C1850 1.349 . S
C1851 C1867 1.349 . S
C1852 C1850 1.327 . S
C1852 C1871 1.429 . S
C1852 H1876 0.950 . S
C1853 C1870 1.574 . S
C1853 C1872 1.368 . S
C1853 H1877 0.949 . S
H1854 C1858 0.949 . S
C1855 C1856 1.349 . S
C1855 C1857 1.327 . S
C1855 H1878 0.950 . S
C1856 C1855 1.349 . S
C1856 C1868 1.349 . S
C1857 C1855 1.327 . S
C1857 C1873 1.429 . S
C1857 H1879 0.950 . S
C1858 H1854 0.949 . S
C1858 C1866 1.574 . S
C1858 C1874 1.368 . S
H1859 C1867 0.950 . S
H1860 C1865 0.950 . S
H1861 C1866 0.949 . S
H1862 C1868 0.950 . S
H1863 C1869 0.950 . S
H1864 C1870 0.949 . S
C1865 H1860 0.950 . S
C1865 C1867 1.327 . S
C1865 C1871 1.429 . S
C1866 C1858 1.574 . S
C1866 H1861 0.949 . S
C1866 C1872 1.368 . S
C1867 C1851 1.349 . S
C1867 H1859 0.950 . S
C1867 C1865 1.327 . S
C1868 C1856 1.349 . S
C1868 H1862 0.950 . S
C1868 C1869 1.327 . S
C1869 H1863 0.950 . S
C1869 C1868 1.327 . S
C1869 C1873 1.429 . S
C1870 C1853 1.574 . S
C1870 H1864 0.949 . S
C1870 C1874 1.368 . S
C1871 C1852 1.429 . S
C1871 C1865 1.429 . S
C1871 C1872 1.523 . S
C1872 C1853 1.368 . S
C1872 C1866 1.368 . S
C1872 C1871 1.523 . S
C1873 C1857 1.429 . S
C1873 C1869 1.429 . S
C1873 C1874 1.523 . S
C1874 C1858 1.368 . S
C1874 C1870 1.368 . S
C1874 C1873 1.523 . S
H1875 C1850 0.950 . S
H1876 C1852 0.950 . S
H1877 C1853 0.949 . S
H1878 C1855 0.950 . S
H1879 C1857 0.950 . S
C1880 C1881 1.349 1_545 S
C1880 C1882 1.327 . S
C1880 H1905 0.950 . S
C1881 C1880 1.349 1_565 S
C1881 C1897 1.349 . S
C1882 C1880 1.327 . S
C1882 C1901 1.429 1_545 S
C1882 H1906 0.950 . S
C1883 C1900 1.574 . S
C1883 C1902 1.368 . S
C1883 H1907 0.949 . S
H1884 C1888 0.949 . S
C1885 C1886 1.349 . S
C1885 C1887 1.327 . S
C1885 H1908 0.950 . S
C1886 C1885 1.349 . S
C1886 C1898 1.349 1_565 S
C1887 C1885 1.327 . S
C1887 C1903 1.429 . S
C1887 H1909 0.950 . S
C1888 H1884 0.949 . S
C1888 C1896 1.574 . S
C1888 C1904 1.368 1_545 S
H1889 C1897 0.950 . S
H1890 C1895 0.950 . S
H1891 C1896 0.949 . S
H1892 C1898 0.950 . S
H1893 C1899 0.950 . S
H1894 C1900 0.949 . S
C1895 H1890 0.950 . S
C1895 C1897 1.327 . S
C1895 C1901 1.429 . S
C1896 C1888 1.574 . S
C1896 H1891 0.949 . S
C1896 C1902 1.368 1_545 S
C1897 C1881 1.349 . S
C1897 H1889 0.950 . S
C1897 C1895 1.327 . S
C1898 C1886 1.349 1_545 S
C1898 H1892 0.950 . S
C1898 C1899 1.327 . S
C1899 H1893 0.950 . S
C1899 C1898 1.327 . S
C1899 C1903 1.429 1_545 S
C1900 C1883 1.574 . S
C1900 H1894 0.949 . S
C1900 C1904 1.368 . S
C1901 C1882 1.429 1_565 S
C1901 C1895 1.429 . S
C1901 C1902 1.523 . S
C1902 C1883 1.368 . S
C1902 C1896 1.368 1_565 S
C1902 C1901 1.523 . S
C1903 C1887 1.429 . S
C1903 C1899 1.429 1_565 S
C1903 C1904 1.523 . S
C1904 C1888 1.368 1_565 S
C1904 C1900 1.368 . S
C1904 C1903 1.523 . S
H1905 C1880 0.950 . S
H1906 C1882 0.950 . S
H1907 C1883 0.949 . S
H1908 C1885 0.950 . S
H1909 C1887 0.950 . S
C1910 C1911 1.349 . S
C1910 C1912 1.327 . S
C1910 H1935 0.950 . S
C1911 C1910 1.349 . S
C1911 C1927 1.349 . S
C1912 C1910 1.327 . S
C1912 C1931 1.429 . S
C1912 H1936 0.950 . S
C1913 C1930 1.574 . S
C1913 C1932 1.368 . S
C1913 H1937 0.949 . S
H1914 C1918 0.949 . S
C1915 C1916 1.349 . S
C1915 C1917 1.327 . S
C1915 H1938 0.950 . S
C1916 C1915 1.349 . S
C1916 C1928 1.349 . S
C1917 C1915 1.327 . S
C1917 C1933 1.429 . S
C1917 H1939 0.950 . S
C1918 H1914 0.949 . S
C1918 C1926 1.574 . S
C1918 C1934 1.368 . S
H1919 C1927 0.950 . S
H1920 C1925 0.950 . S
H1921 C1926 0.949 . S
H1922 C1928 0.950 . S
H1923 C1929 0.950 . S
H1924 C1930 0.949 . S
C1925 H1920 0.950 . S
C1925 C1927 1.327 . S
C1925 C1931 1.429 . S
C1926 C1918 1.574 . S
C1926 H1921 0.949 . S
C1926 C1932 1.368 . S
C1927 C1911 1.349 . S
C1927 H1919 0.950 . S
C1927 C1925 1.327 . S
C1928 C1916 1.349 . S
C1928 H1922 0.950 . S
C1928 C1929 1.327 . S
C1929 H1923 0.950 . S
C1929 C1928 1.327 . S
C1929 C1933 1.429 . S
C1930 C1913 1.574 . S
C1930 H1924 0.949 . S
C1930 C1934 1.368 . S
C1931 C1912 1.429 . S
C1931 C1925 1.429 . S
C1931 C1932 1.523 . S
C1932 C1913 1.368 . S
C1932 C1926 1.368 . S
C1932 C1931 1.523 . S
C1933 C1917 1.429 . S
C1933 C1929 1.429 . S
C1933 C1934 1.523 . S
C1934 C1918 1.368 . S
C1934 C1930 1.368 . S
C1934 C1933 1.523 . S
H1935 C1910 0.950 . S
H1936 C1912 0.950 . S
H1937 C1913 0.949 . S
H1938 C1915 0.950 . S
H1939 C1917 0.950 . S
C1940 C1941 1.349 1_565 S
C1940 C1942 1.327 . S
C1940 H1965 0.950 . S
C1941 C1940 1.349 1_545 S
C1941 C1957 1.349 . S
C1942 C1940 1.327 . S
C1942 C1961 1.429 1_565 S
C1942 H1966 0.950 . S
C1943 C1960 1.574 . S
C1943 C1962 1.368 . S
C1943 H1967 0.949 . S
H1944 C1948 0.949 . S
C1945 C1946 1.349 . S
C1945 C1947 1.327 . S
C1945 H1968 0.950 . S
C1946 C1945 1.349 . S
C1946 C1958 1.349 1_545 S
C1947 C1945 1.327 . S
C1947 C1963 1.429 . S
C1947 H1969 0.950 . S
C1948 H1944 0.949 . S
C1948 C1956 1.574 . S
C1948 C1964 1.368 1_565 S
H1949 C1957 0.950 . S
H1950 C1955 0.950 . S
H1951 C1956 0.949 . S
H1952 C1958 0.950 . S
H1953 C1959 0.950 . S
H1954 C1960 0.949 . S
C1955 H1950 0.950 . S
C1955 C1957 1.327 . S
C1955 C1961 1.429 . S
C1956 C1948 1.574 . S
C1956 H1951 0.949 . S
C1956 C1962 1.368 1_565 S
C1957 C1941 1.349 . S
C1957 H1949 0.950 . S
C1957 C1955 1.327 . S
C1958 C1946 1.349 1_565 S
C1958 H1952 0.950 . S
C1958 C1959 1.327 . S
C1959 H1953 0.950 . S
C1959 C1958 1.327 . S
C1959 C1963 1.429 1_565 S
C1960 C1943 1.574 . S
C1960 H1954 0.949 . S
C1960 C1964 1.368 . S
C1961 C1942 1.429 1_545 S
C1961 C1955 1.429 . S
C1961 C1962 1.523 . S
C1962 C1943 1.368 . S
C1962 C1956 1.368 1_545 S
C1962 C1961 1.523 . S
C1963 C1947 1.429 . S
C1963 C1959 1.429 1_545 S
C1963 C1964 1.523 . S
C1964 C1948 1.368 1_545 S
C1964 C1960 1.368 . S
C1964 C1963 1.523 . S
H1965 C1940 0.950 . S
H1966 C1942 0.950 . S
H1967 C1943 0.949 . S
H1968 C1945 0.950 . S
H1969 C1947 0.950 . S
C1970 C1971 1.349 . S
C1970 C1972 1.327 . S
C1970 H1995 0.950 . S
C1971 C1970 1.349 . S
C1971 C1987 1.349 . S
C1972 C1970 1.327 . S
C1972 C1991 1.429 . S
C1972 H1996 0.950 . S
C1973 C1990 1.574 . S
C1973 C1992 1.368 . S
C1973 H1997 0.949 . S
H1974 C1978 0.949 . S
C1975 C1976 1.349 . S
C1975 C1977 1.327 . S
C1975 H1998 0.950 . S
C1976 C1975 1.349 . S
C1976 C1988 1.349 . S
C1977 C1975 1.327 . S
C1977 C1993 1.429 . S
C1977 H1999 0.950 . S
C1978 H1974 0.949 . S
C1978 C1986 1.574 . S
C1978 C1994 1.368 . S
H1979 C1987 0.950 . S
H1980 C1985 0.950 . S
H1981 C1986 0.949 . S
H1982 C1988 0.950 . S
H1983 C1989 0.950 . S
H1984 C1990 0.949 . S
C1985 H1980 0.950 . S
C1985 C1987 1.327 . S
C1985 C1991 1.429 . S
C1986 C1978 1.574 . S
C1986 H1981 0.949 . S
C1986 C1992 1.368 . S
C1987 C1971 1.349 . S
C1987 H1979 0.950 . S
C1987 C1985 1.327 . S
C1988 C1976 1.349 . S
C1988 H1982 0.950 . S
C1988 C1989 1.327 . S
C1989 H1983 0.950 . S
C1989 C1988 1.327 . S
C1989 C1993 1.429 . S
C1990 C1973 1.574 . S
C1990 H1984 0.949 . S
C1990 C1994 1.368 . S
C1991 C1972 1.429 . S
C1991 C1985 1.429 . S
C1991 C1992 1.523 . S
C1992 C1973 1.368 . S
C1992 C1986 1.368 . S
C1992 C1991 1.523 . S
C1993 C1977 1.429 . S
C1993 C1989 1.429 . S
C1993 C1994 1.523 . S
C1994 C1978 1.368 . S
C1994 C1990 1.368 . S
C1994 C1993 1.523 . S
H1995 C1970 0.950 . S
H1996 C1972 0.950 . S
H1997 C1973 0.949 . S
H1998 C1975 0.950 . S
H1999 C1977 0.950 . S
C2000 C2001 1.349 . S
C2000 C2002 1.327 . S
C2000 H2025 0.950 . S
C2001 C2000 1.349 . S
C2001 C2017 1.349 . S
C2002 C2000 1.327 . S
C2002 C2021 1.429 . S
C2002 H2026 0.950 . S
C2003 C2020 1.574 . S
C2003 C2022 1.368 . S
C2003 H2027 0.949 . S
H2004 C2008 0.949 . S
C2005 C2006 1.349 . S
C2005 C2007 1.327 . S
C2005 H2028 0.950 . S
C2006 C2005 1.349 . S
C2006 C2018 1.349 . S
C2007 C2005 1.327 . S
C2007 C2023 1.429 . S
C2007 H2029 0.950 . S
C2008 H2004 0.949 . S
C2008 C2016 1.574 . S
C2008 C2024 1.368 . S
H2009 C2017 0.950 . S
H2010 C2015 0.950 . S
H2011 C2016 0.949 . S
H2012 C2018 0.950 . S
H2013 C2019 0.950 . S
H2014 C2020 0.949 . S
C2015 H2010 0.950 . S
C2015 C2017 1.327 . S
C2015 C2021 1.429 . S
C2016 C2008 1.574 . S
C2016 H2011 0.949 . S
C2016 C2022 1.368 . S
C2017 C2001 1.349 . S
C2017 H2009 0.950 . S
C2017 C2015 1.327 . S
C2018 C2006 1.349 . S
C2018 H2012 0.950 . S
C2018 C2019 1.327 . S
C2019 H2013 0.950 . S
C2019 C2018 1.327 . S
C2019 C2023 1.429 . S
C2020 C2003 1.574 . S
C2020 H2014 0.949 . S
C2020 C2024 1.368 . S
C2021 C2002 1.429 . S
C2021 C2015 1.429 . S
C2021 C2022 1.523 . S
C2022 C2003 1.368 . S
C2022 C2016 1.368 . S
C2022 C2021 1.523 . S
C2023 C2007 1.429 . S
C2023 C2019 1.429 . S
C2023 C2024 1.523 . S
C2024 C2008 1.368 . S
C2024 C2020 1.368 . S
C2024 C2023 1.523 . S
H2025 C2000 0.950 . S
H2026 C2002 0.950 . S
H2027 C2003 0.949 . S
H2028 C2005 0.950 . S
H2029 C2007 0.950 . S
C2030 C2031 1.349 . S
C2030 C2032 1.327 . S
C2030 H2055 0.950 . S
C2031 C2030 1.349 . S
C2031 C2047 1.349 . S
C2032 C2030 1.327 . S
C2032 C2051 1.429 . S
C2032 H2056 0.950 . S
C2033 C2050 1.574 . S
C2033 C2052 1.368 . S
C2033 H2057 0.949 . S
H2034 C2038 0.949 . S
C2035 C2036 1.349 . S
C2035 C2037 1.327 . S
C2035 H2058 0.950 . S
C2036 C2035 1.349 . S
C2036 C2048 1.349 . S
C2037 C2035 1.327 . S
C2037 C2053 1.429 . S
C2037 H2059 0.950 . S
C2038 H2034 0.949 . S
C2038 C2046 1.574 . S
C2038 C2054 1.368 . S
H2039 C2047 0.950 . S
H2040 C2045 0.950 . S
H2041 C2046 0.949 . S
H2042 C2048 0.950 . S
H2043 C2049 0.950 . S
H2044 C2050 0.949 . S
C2045 H2040 0.950 . S
C2045 C2047 1.327 . S
C2045 C2051 1.429 . S
C2046 C2038 1.574 . S
C2046 H2041 0.949 . S
C2046 C2052 1.368 . S
C2047 C2031 1.349 . S
C2047 H2039 0.950 . S
C2047 C2045 1.327 . S
C2048 C2036 1.349 . S
C2048 H2042 0.950 . S
C2048 C2049 1.327 . S
C2049 H2043 0.950 . S
C2049 C2048 1.327 . S
C2049 C2053 1.429 . S
C2050 C2033 1.574 . S
C2050 H2044 0.949 . S
C2050 C2054 1.368 . S
C2051 C2032 1.429 . S
C2051 C2045 1.429 . S
C2051 C2052 1.523 . S
C2052 C2033 1.368 . S
C2052 C2046 1.368 . S
C2052 C2051 1.523 . S
C2053 C2037 1.429 . S
C2053 C2049 1.429 . S
C2053 C2054 1.523 . S
C2054 C2038 1.368 . S
C2054 C2050 1.368 . S
C2054 C2053 1.523 . S
H2055 C2030 0.950 . S
H2056 C2032 0.950 . S
H2057 C2033 0.949 . S
H2058 C2035 0.950 . S
H2059 C2037 0.950 . S
C2060 C2061 1.349 . S
C2060 C2062 1.327 . S
C2060 H2085 0.950 . S
C2061 C2060 1.349 . S
C2061 C2077 1.349 . S
C2062 C2060 1.327 . S
C2062 C2081 1.429 . S
C2062 H2086 0.950 . S
C2063 C2080 1.574 . S
C2063 C2082 1.368 . S
C2063 H2087 0.949 . S
H2064 C2068 0.949 . S
C2065 C2066 1.349 . S
C2065 C2067 1.327 . S
C2065 H2088 0.950 . S
C2066 C2065 1.349 . S
C2066 C2078 1.349 . S
C2067 C2065 1.327 . S
C2067 C2083 1.429 . S
C2067 H2089 0.950 . S
C2068 H2064 0.949 . S
C2068 C2076 1.574 . S
C2068 C2084 1.368 . S
H2069 C2077 0.950 . S
H2070 C2075 0.950 . S
H2071 C2076 0.949 . S
H2072 C2078 0.950 . S
H2073 C2079 0.950 . S
H2074 C2080 0.949 . S
C2075 H2070 0.950 . S
C2075 C2077 1.327 . S
C2075 C2081 1.429 . S
C2076 C2068 1.574 . S
C2076 H2071 0.949 . S
C2076 C2082 1.368 . S
C2077 C2061 1.349 . S
C2077 H2069 0.950 . S
C2077 C2075 1.327 . S
C2078 C2066 1.349 . S
C2078 H2072 0.950 . S
C2078 C2079 1.327 . S
C2079 H2073 0.950 . S
C2079 C2078 1.327 . S
C2079 C2083 1.429 . S
C2080 C2063 1.574 . S
C2080 H2074 0.949 . S
C2080 C2084 1.368 . S
C2081 C2062 1.429 . S
C2081 C2075 1.429 . S
C2081 C2082 1.523 . S
C2082 C2063 1.368 . S
C2082 C2076 1.368 . S
C2082 C2081 1.523 . S
C2083 C2067 1.429 . S
C2083 C2079 1.429 . S
C2083 C2084 1.523 . S
C2084 C2068 1.368 . S
C2084 C2080 1.368 . S
C2084 C2083 1.523 . S
H2085 C2060 0.950 . S
H2086 C2062 0.950 . S
H2087 C2063 0.949 . S
H2088 C2065 0.950 . S
H2089 C2067 0.950 . S
C2090 C2091 1.349 . S
C2090 C2092 1.327 . S
C2090 H2115 0.950 . S
C2091 C2090 1.349 . S
C2091 C2107 1.349 . S
C2092 C2090 1.327 . S
C2092 C2111 1.429 . S
C2092 H2116 0.950 . S
C2093 C2110 1.574 . S
C2093 C2112 1.368 . S
C2093 H2117 0.949 . S
H2094 C2098 0.949 . S
C2095 C2096 1.349 . S
C2095 C2097 1.327 . S
C2095 H2118 0.950 . S
C2096 C2095 1.349 . S
C2096 C2108 1.349 . S
C2097 C2095 1.327 . S
C2097 C2113 1.429 . S
C2097 H2119 0.950 . S
C2098 H2094 0.949 . S
C2098 C2106 1.574 . S
C2098 C2114 1.368 . S
H2099 C2107 0.950 . S
H2100 C2105 0.950 . S
H2101 C2106 0.949 . S
H2102 C2108 0.950 . S
H2103 C2109 0.950 . S
H2104 C2110 0.949 . S
C2105 H2100 0.950 . S
C2105 C2107 1.327 . S
C2105 C2111 1.429 . S
C2106 C2098 1.574 . S
C2106 H2101 0.949 . S
C2106 C2112 1.368 . S
C2107 C2091 1.349 . S
C2107 H2099 0.950 . S
C2107 C2105 1.327 . S
C2108 C2096 1.349 . S
C2108 H2102 0.950 . S
C2108 C2109 1.327 . S
C2109 H2103 0.950 . S
C2109 C2108 1.327 . S
C2109 C2113 1.429 . S
C2110 C2093 1.574 . S
C2110 H2104 0.949 . S
C2110 C2114 1.368 . S
C2111 C2092 1.429 . S
C2111 C2105 1.429 . S
C2111 C2112 1.523 . S
C2112 C2093 1.368 . S
C2112 C2106 1.368 . S
C2112 C2111 1.523 . S
C2113 C2097 1.429 . S
C2113 C2109 1.429 . S
C2113 C2114 1.523 . S
C2114 C2098 1.368 . S
C2114 C2110 1.368 . S
C2114 C2113 1.523 . S
H2115 C2090 0.950 . S
H2116 C2092 0.950 . S
H2117 C2093 0.949 . S
H2118 C2095 0.950 . S
H2119 C2097 0.950 . S
C2120 C2121 1.349 1_545 S
C2120 C2122 1.327 . S
C2120 H2145 0.950 . S
C2121 C2120 1.349 1_565 S
C2121 C2137 1.349 . S
C2122 C2120 1.327 . S
C2122 C2141 1.429 1_545 S
C2122 H2146 0.950 . S
C2123 C2140 1.574 . S
C2123 C2142 1.368 . S
C2123 H2147 0.949 . S
H2124 C2128 0.949 . S
C2125 C2126 1.349 . S
C2125 C2127 1.327 . S
C2125 H2148 0.950 . S
C2126 C2125 1.349 . S
C2126 C2138 1.349 1_565 S
C2127 C2125 1.327 . S
C2127 C2143 1.429 . S
C2127 H2149 0.950 . S
C2128 H2124 0.949 . S
C2128 C2136 1.574 . S
C2128 C2144 1.368 1_545 S
H2129 C2137 0.950 . S
H2130 C2135 0.950 . S
H2131 C2136 0.949 . S
H2132 C2138 0.950 . S
H2133 C2139 0.950 . S
H2134 C2140 0.949 . S
C2135 H2130 0.950 . S
C2135 C2137 1.327 . S
C2135 C2141 1.429 . S
C2136 C2128 1.574 . S
C2136 H2131 0.949 . S
C2136 C2142 1.368 1_545 S
C2137 C2121 1.349 . S
C2137 H2129 0.950 . S
C2137 C2135 1.327 . S
C2138 C2126 1.349 1_545 S
C2138 H2132 0.950 . S
C2138 C2139 1.327 . S
C2139 H2133 0.950 . S
C2139 C2138 1.327 . S
C2139 C2143 1.429 1_545 S
C2140 C2123 1.574 . S
C2140 H2134 0.949 . S
C2140 C2144 1.368 . S
C2141 C2122 1.429 1_565 S
C2141 C2135 1.429 . S
C2141 C2142 1.523 . S
C2142 C2123 1.368 . S
C2142 C2136 1.368 1_565 S
C2142 C2141 1.523 . S
C2143 C2127 1.429 . S
C2143 C2139 1.429 1_565 S
C2143 C2144 1.523 . S
C2144 C2128 1.368 1_565 S
C2144 C2140 1.368 . S
C2144 C2143 1.523 . S
H2145 C2120 0.950 . S
H2146 C2122 0.950 . S
H2147 C2123 0.949 . S
H2148 C2125 0.950 . S
H2149 C2127 0.950 . S
C2150 C2151 1.349 . S
C2150 C2152 1.327 . S
C2150 H2175 0.950 . S
C2151 C2150 1.349 . S
C2151 C2167 1.349 . S
C2152 C2150 1.327 . S
C2152 C2171 1.429 . S
C2152 H2176 0.950 . S
C2153 C2170 1.574 . S
C2153 C2172 1.368 . S
C2153 H2177 0.949 . S
H2154 C2158 0.949 . S
C2155 C2156 1.349 . S
C2155 C2157 1.327 . S
C2155 H2178 0.950 . S
C2156 C2155 1.349 . S
C2156 C2168 1.349 . S
C2157 C2155 1.327 . S
C2157 C2173 1.429 . S
C2157 H2179 0.950 . S
C2158 H2154 0.949 . S
C2158 C2166 1.574 . S
C2158 C2174 1.368 . S
H2159 C2167 0.950 . S
H2160 C2165 0.950 . S
H2161 C2166 0.949 . S
H2162 C2168 0.950 . S
H2163 C2169 0.950 . S
H2164 C2170 0.949 . S
C2165 H2160 0.950 . S
C2165 C2167 1.327 . S
C2165 C2171 1.429 . S
C2166 C2158 1.574 . S
C2166 H2161 0.949 . S
C2166 C2172 1.368 . S
C2167 C2151 1.349 . S
C2167 H2159 0.950 . S
C2167 C2165 1.327 . S
C2168 C2156 1.349 . S
C2168 H2162 0.950 . S
C2168 C2169 1.327 . S
C2169 H2163 0.950 . S
C2169 C2168 1.327 . S
C2169 C2173 1.429 . S
C2170 C2153 1.574 . S
C2170 H2164 0.949 . S
C2170 C2174 1.368 . S
C2171 C2152 1.429 . S
C2171 C2165 1.429 . S
C2171 C2172 1.523 . S
C2172 C2153 1.368 . S
C2172 C2166 1.368 . S
C2172 C2171 1.523 . S
C2173 C2157 1.429 . S
C2173 C2169 1.429 . S
C2173 C2174 1.523 . S
C2174 C2158 1.368 . S
C2174 C2170 1.368 . S
C2174 C2173 1.523 . S
H2175 C2150 0.950 . S
H2176 C2152 0.950 . S
H2177 C2153 0.949 . S
H2178 C2155 0.950 . S
H2179 C2157 0.950 . S
C2180 C2181 1.349 . S
C2180 C2182 1.327 . S
C2180 H2205 0.950 . S
C2181 C2180 1.349 . S
C2181 C2197 1.349 1_545 S
C2182 C2180 1.327 . S
C2182 C2201 1.429 . S
C2182 H2206 0.950 . S
C2183 C2200 1.574 . S
C2183 C2202 1.368 1_565 S
C2183 H2207 0.949 . S
H2184 C2188 0.949 . S
C2185 C2186 1.349 1_565 S
C2185 C2187 1.327 . S
C2185 H2208 0.950 . S
C2186 C2185 1.349 1_545 S
C2186 C2198 1.349 . S
C2187 C2185 1.327 . S
C2187 C2203 1.429 1_565 S
C2187 H2209 0.950 . S
C2188 H2184 0.949 . S
C2188 C2196 1.574 . S
C2188 C2204 1.368 . S
H2189 C2197 0.950 . S
H2190 C2195 0.950 . S
H2191 C2196 0.949 . S
H2192 C2198 0.950 . S
H2193 C2199 0.950 . S
H2194 C2200 0.949 . S
C2195 H2190 0.950 . S
C2195 C2197 1.327 . S
C2195 C2201 1.429 1_565 S
C2196 C2188 1.574 . S
C2196 H2191 0.949 . S
C2196 C2202 1.368 . S
C2197 C2181 1.349 1_565 S
C2197 H2189 0.950 . S
C2197 C2195 1.327 . S
C2198 C2186 1.349 . S
C2198 H2192 0.950 . S
C2198 C2199 1.327 . S
C2199 H2193 0.950 . S
C2199 C2198 1.327 . S
C2199 C2203 1.429 . S
C2200 C2183 1.574 . S
C2200 H2194 0.949 . S
C2200 C2204 1.368 1_565 S
C2201 C2182 1.429 . S
C2201 C2195 1.429 1_545 S
C2201 C2202 1.523 . S
C2202 C2183 1.368 1_545 S
C2202 C2196 1.368 . S
C2202 C2201 1.523 . S
C2203 C2187 1.429 1_545 S
C2203 C2199 1.429 . S
C2203 C2204 1.523 . S
C2204 C2188 1.368 . S
C2204 C2200 1.368 1_545 S
C2204 C2203 1.523 . S
H2205 C2180 0.950 . S
H2206 C2182 0.950 . S
H2207 C2183 0.949 . S
H2208 C2185 0.950 . S
H2209 C2187 0.950 . S
C2210 C2211 1.349 . S
C2210 C2212 1.327 . S
C2210 H2235 0.950 . S
C2211 C2210 1.349 . S
C2211 C2227 1.349 . S
C2212 C2210 1.327 . S
C2212 C2231 1.429 . S
C2212 H2236 0.950 . S
C2213 C2230 1.574 . S
C2213 C2232 1.368 . S
C2213 H2237 0.949 . S
H2214 C2218 0.949 . S
C2215 C2216 1.349 . S
C2215 C2217 1.327 . S
C2215 H2238 0.950 . S
C2216 C2215 1.349 . S
C2216 C2228 1.349 . S
C2217 C2215 1.327 . S
C2217 C2233 1.429 . S
C2217 H2239 0.950 . S
C2218 H2214 0.949 . S
C2218 C2226 1.574 . S
C2218 C2234 1.368 . S
H2219 C2227 0.950 . S
H2220 C2225 0.950 . S
H2221 C2226 0.949 . S
H2222 C2228 0.950 . S
H2223 C2229 0.950 . S
H2224 C2230 0.949 . S
C2225 H2220 0.950 . S
C2225 C2227 1.327 . S
C2225 C2231 1.429 . S
C2226 C2218 1.574 . S
C2226 H2221 0.949 . S
C2226 C2232 1.368 . S
C2227 C2211 1.349 . S
C2227 H2219 0.950 . S
C2227 C2225 1.327 . S
C2228 C2216 1.349 . S
C2228 H2222 0.950 . S
C2228 C2229 1.327 . S
C2229 H2223 0.950 . S
C2229 C2228 1.327 . S
C2229 C2233 1.429 . S
C2230 C2213 1.574 . S
C2230 H2224 0.949 . S
C2230 C2234 1.368 . S
C2231 C2212 1.429 . S
C2231 C2225 1.429 . S
C2231 C2232 1.523 . S
C2232 C2213 1.368 . S
C2232 C2226 1.368 . S
C2232 C2231 1.523 . S
C2233 C2217 1.429 . S
C2233 C2229 1.429 . S
C2233 C2234 1.523 . S
C2234 C2218 1.368 . S
C2234 C2230 1.368 . S
C2234 C2233 1.523 . S
H2235 C2210 0.950 . S
H2236 C2212 0.950 . S
H2237 C2213 0.949 . S
H2238 C2215 0.950 . S
H2239 C2217 0.950 . S
C2240 C2241 1.349 . S
C2240 C2242 1.327 . S
C2240 H2265 0.950 . S
C2241 C2240 1.349 . S
C2241 C2257 1.349 . S
C2242 C2240 1.327 . S
C2242 C2261 1.429 . S
C2242 H2266 0.950 . S
C2243 C2260 1.574 . S
C2243 C2262 1.368 . S
C2243 H2267 0.949 . S
H2244 C2248 0.949 . S
C2245 C2246 1.349 . S
C2245 C2247 1.327 . S
C2245 H2268 0.950 . S
C2246 C2245 1.349 . S
C2246 C2258 1.349 . S
C2247 C2245 1.327 . S
C2247 C2263 1.429 . S
C2247 H2269 0.950 . S
C2248 H2244 0.949 . S
C2248 C2256 1.574 . S
C2248 C2264 1.368 . S
H2249 C2257 0.950 . S
H2250 C2255 0.950 . S
H2251 C2256 0.949 . S
H2252 C2258 0.950 . S
H2253 C2259 0.950 . S
H2254 C2260 0.949 . S
C2255 H2250 0.950 . S
C2255 C2257 1.327 . S
C2255 C2261 1.429 . S
C2256 C2248 1.574 . S
C2256 H2251 0.949 . S
C2256 C2262 1.368 . S
C2257 C2241 1.349 . S
C2257 H2249 0.950 . S
C2257 C2255 1.327 . S
C2258 C2246 1.349 . S
C2258 H2252 0.950 . S
C2258 C2259 1.327 . S
C2259 H2253 0.950 . S
C2259 C2258 1.327 . S
C2259 C2263 1.429 . S
C2260 C2243 1.574 . S
C2260 H2254 0.949 . S
C2260 C2264 1.368 . S
C2261 C2242 1.429 . S
C2261 C2255 1.429 . S
C2261 C2262 1.523 . S
C2262 C2243 1.368 . S
C2262 C2256 1.368 . S
C2262 C2261 1.523 . S
C2263 C2247 1.429 . S
C2263 C2259 1.429 . S
C2263 C2264 1.523 . S
C2264 C2248 1.368 . S
C2264 C2260 1.368 . S
C2264 C2263 1.523 . S
H2265 C2240 0.950 . S
H2266 C2242 0.950 . S
H2267 C2243 0.949 . S
H2268 C2245 0.950 . S
H2269 C2247 0.950 . S
C2270 C2271 1.349 . S
C2270 C2272 1.327 . S
C2270 H2295 0.950 . S
C2271 C2270 1.349 . S
C2271 C2287 1.349 . S
C2272 C2270 1.327 . S
C2272 C2291 1.429 . S
C2272 H2296 0.950 . S
C2273 C2290 1.574 . S
C2273 C2292 1.368 . S
C2273 H2297 0.949 . S
H2274 C2278 0.949 . S
C2275 C2276 1.349 . S
C2275 C2277 1.327 . S
C2275 H2298 0.950 . S
C2276 C2275 1.349 . S
C2276 C2288 1.349 . S
C2277 C2275 1.327 . S
C2277 C2293 1.429 . S
C2277 H2299 0.950 . S
C2278 H2274 0.949 . S
C2278 C2286 1.574 . S
C2278 C2294 1.368 . S
H2279 C2287 0.950 . S
H2280 C2285 0.950 . S
H2281 C2286 0.949 . S
H2282 C2288 0.950 . S
H2283 C2289 0.950 . S
H2284 C2290 0.949 . S
C2285 H2280 0.950 . S
C2285 C2287 1.327 . S
C2285 C2291 1.429 . S
C2286 C2278 1.574 . S
C2286 H2281 0.949 . S
C2286 C2292 1.368 . S
C2287 C2271 1.349 . S
C2287 H2279 0.950 . S
C2287 C2285 1.327 . S
C2288 C2276 1.349 . S
C2288 H2282 0.950 . S
C2288 C2289 1.327 . S
C2289 H2283 0.950 . S
C2289 C2288 1.327 . S
C2289 C2293 1.429 . S
C2290 C2273 1.574 . S
C2290 H2284 0.949 . S
C2290 C2294 1.368 . S
C2291 C2272 1.429 . S
C2291 C2285 1.429 . S
C2291 C2292 1.523 . S
C2292 C2273 1.368 . S
C2292 C2286 1.368 . S
C2292 C2291 1.523 . S
C2293 C2277 1.429 . S
C2293 C2289 1.429 . S
C2293 C2294 1.523 . S
C2294 C2278 1.368 . S
C2294 C2290 1.368 . S
C2294 C2293 1.523 . S
H2295 C2270 0.950 . S
H2296 C2272 0.950 . S
H2297 C2273 0.949 . S
H2298 C2275 0.950 . S
H2299 C2277 0.950 . S
C2300 C2301 1.349 . S
C2300 C2302 1.327 . S
C2300 H2325 0.950 . S
C2301 C2300 1.349 . S
C2301 C2317 1.349 . S
C2302 C2300 1.327 . S
C2302 C2321 1.429 . S
C2302 H2326 0.950 . S
C2303 C2320 1.574 . S
C2303 C2322 1.368 . S
C2303 H2327 0.949 . S
H2304 C2308 0.949 . S
C2305 C2306 1.349 . S
C2305 C2307 1.327 . S
C2305 H2328 0.950 . S
C2306 C2305 1.349 . S
C2306 C2318 1.349 . S
C2307 C2305 1.327 . S
C2307 C2323 1.429 . S
C2307 H2329 0.950 . S
C2308 H2304 0.949 . S
C2308 C2316 1.574 . S
C2308 C2324 1.368 . S
H2309 C2317 0.950 . S
H2310 C2315 0.950 . S
H2311 C2316 0.949 . S
H2312 C2318 0.950 . S
H2313 C2319 0.950 . S
H2314 C2320 0.949 . S
C2315 H2310 0.950 . S
C2315 C2317 1.327 . S
C2315 C2321 1.429 . S
C2316 C2308 1.574 . S
C2316 H2311 0.949 . S
C2316 C2322 1.368 . S
C2317 C2301 1.349 . S
C2317 H2309 0.950 . S
C2317 C2315 1.327 . S
C2318 C2306 1.349 . S
C2318 H2312 0.950 . S
C2318 C2319 1.327 . S
C2319 H2313 0.950 . S
C2319 C2318 1.327 . S
C2319 C2323 1.429 . S
C2320 C2303 1.574 . S
C2320 H2314 0.949 . S
C2320 C2324 1.368 . S
C2321 C2302 1.429 . S
C2321 C2315 1.429 . S
C2321 C2322 1.523 . S
C2322 C2303 1.368 . S
C2322 C2316 1.368 . S
C2322 C2321 1.523 . S
C2323 C2307 1.429 . S
C2323 C2319 1.429 . S
C2323 C2324 1.523 . S
C2324 C2308 1.368 . S
C2324 C2320 1.368 . S
C2324 C2323 1.523 . S
H2325 C2300 0.950 . S
H2326 C2302 0.950 . S
H2327 C2303 0.949 . S
H2328 C2305 0.950 . S
H2329 C2307 0.950 . S
C2330 C2331 1.349 . S
C2330 C2332 1.327 . S
C2330 H2355 0.950 . S
C2331 C2330 1.349 . S
C2331 C2347 1.349 . S
C2332 C2330 1.327 . S
C2332 C2351 1.429 . S
C2332 H2356 0.950 . S
C2333 C2350 1.574 . S
C2333 C2352 1.368 . S
C2333 H2357 0.949 . S
H2334 C2338 0.949 . S
C2335 C2336 1.349 . S
C2335 C2337 1.327 . S
C2335 H2358 0.950 . S
C2336 C2335 1.349 . S
C2336 C2348 1.349 . S
C2337 C2335 1.327 . S
C2337 C2353 1.429 . S
C2337 H2359 0.950 . S
C2338 H2334 0.949 . S
C2338 C2346 1.574 . S
C2338 C2354 1.368 . S
H2339 C2347 0.950 . S
H2340 C2345 0.950 . S
H2341 C2346 0.949 . S
H2342 C2348 0.950 . S
H2343 C2349 0.950 . S
H2344 C2350 0.949 . S
C2345 H2340 0.950 . S
C2345 C2347 1.327 . S
C2345 C2351 1.429 . S
C2346 C2338 1.574 . S
C2346 H2341 0.949 . S
C2346 C2352 1.368 . S
C2347 C2331 1.349 . S
C2347 H2339 0.950 . S
C2347 C2345 1.327 . S
C2348 C2336 1.349 . S
C2348 H2342 0.950 . S
C2348 C2349 1.327 . S
C2349 H2343 0.950 . S
C2349 C2348 1.327 . S
C2349 C2353 1.429 . S
C2350 C2333 1.574 . S
C2350 H2344 0.949 . S
C2350 C2354 1.368 . S
C2351 C2332 1.429 . S
C2351 C2345 1.429 . S
C2351 C2352 1.523 . S
C2352 C2333 1.368 . S
C2352 C2346 1.368 . S
C2352 C2351 1.523 . S
C2353 C2337 1.429 . S
C2353 C2349 1.429 . S
C2353 C2354 1.523 . S
C2354 C2338 1.368 . S
C2354 C2350 1.368 . S
C2354 C2353 1.523 . S
H2355 C2330 0.950 . S
H2356 C2332 0.950 . S
H2357 C2333 0.949 . S
H2358 C2335 0.950 . S
H2359 C2337 0.950 . S
C2360 C2361 1.349 . S
C2360 C2362 1.327 . S
C2360 H2385 0.950 . S
C2361 C2360 1.349 . S
C2361 C2377 1.349 . S
C2362 C2360 1.327 . S
C2362 C2381 1.429 . S
C2362 H2386 0.950 . S
C2363 C2380 1.574 . S
C2363 C2382 1.368 . S
C2363 H2387 0.949 . S
H2364 C2368 0.949 . S
C2365 C2366 1.349 . S
C2365 C2367 1.327 . S
C2365 H2388 0.950 . S
C2366 C2365 1.349 . S
C2366 C2378 1.349 . S
C2367 C2365 1.327 . S
C2367 C2383 1.429 . S
C2367 H2389 0.950 . S
C2368 H2364 0.949 . S
C2368 C2376 1.574 . S
C2368 C2384 1.368 . S
H2369 C2377 0.950 . S
H2370 C2375 0.950 . S
H2371 C2376 0.949 . S
H2372 C2378 0.950 . S
H2373 C2379 0.950 . S
H2374 C2380 0.949 . S
C2375 H2370 0.950 . S
C2375 C2377 1.327 . S
C2375 C2381 1.429 . S
C2376 C2368 1.574 . S
C2376 H2371 0.949 . S
C2376 C2382 1.368 . S
C2377 C2361 1.349 . S
C2377 H2369 0.950 . S
C2377 C2375 1.327 . S
C2378 C2366 1.349 . S
C2378 H2372 0.950 . S
C2378 C2379 1.327 . S
C2379 H2373 0.950 . S
C2379 C2378 1.327 . S
C2379 C2383 1.429 . S
C2380 C2363 1.574 . S
C2380 H2374 0.949 . S
C2380 C2384 1.368 . S
C2381 C2362 1.429 . S
C2381 C2375 1.429 . S
C2381 C2382 1.523 . S
C2382 C2363 1.368 . S
C2382 C2376 1.368 . S
C2382 C2381 1.523 . S
C2383 C2367 1.429 . S
C2383 C2379 1.429 . S
C2383 C2384 1.523 . S
C2384 C2368 1.368 . S
C2384 C2380 1.368 . S
C2384 C2383 1.523 . S
H2385 C2360 0.950 . S
H2386 C2362 0.950 . S
H2387 C2363 0.949 . S
H2388 C2365 0.950 . S
H2389 C2367 0.950 . S
C2390 C2391 1.349 . S
C2390 C2392 1.327 . S
C2390 H2415 0.950 . S
C2391 C2390 1.349 . S
C2391 C2407 1.349 . S
C2392 C2390 1.327 . S
C2392 C2411 1.429 . S
C2392 H2416 0.950 . S
C2393 C2410 1.574 . S
C2393 C2412 1.368 . S
C2393 H2417 0.949 . S
H2394 C2398 0.949 . S
C2395 C2396 1.349 . S
C2395 C2397 1.327 . S
C2395 H2418 0.950 . S
C2396 C2395 1.349 . S
C2396 C2408 1.349 . S
C2397 C2395 1.327 . S
C2397 C2413 1.429 . S
C2397 H2419 0.950 . S
C2398 H2394 0.949 . S
C2398 C2406 1.574 . S
C2398 C2414 1.368 . S
H2399 C2407 0.950 . S
H2400 C2405 0.950 . S
H2401 C2406 0.949 . S
H2402 C2408 0.950 . S
H2403 C2409 0.950 . S
H2404 C2410 0.949 . S
C2405 H2400 0.950 . S
C2405 C2407 1.327 . S
C2405 C2411 1.429 . S
C2406 C2398 1.574 . S
C2406 H2401 0.949 . S
C2406 C2412 1.368 . S
C2407 C2391 1.349 . S
C2407 H2399 0.950 . S
C2407 C2405 1.327 . S
C2408 C2396 1.349 . S
C2408 H2402 0.950 . S
C2408 C2409 1.327 . S
C2409 H2403 0.950 . S
C2409 C2408 1.327 . S
C2409 C2413 1.429 . S
C2410 C2393 1.574 . S
C2410 H2404 0.949 . S
C2410 C2414 1.368 . S
C2411 C2392 1.429 . S
C2411 C2405 1.429 . S
C2411 C2412 1.523 . S
C2412 C2393 1.368 . S
C2412 C2406 1.368 . S
C2412 C2411 1.523 . S
C2413 C2397 1.429 . S
C2413 C2409 1.429 . S
C2413 C2414 1.523 . S
C2414 C2398 1.368 . S
C2414 C2410 1.368 . S
C2414 C2413 1.523 . S
H2415 C2390 0.950 . S
H2416 C2392 0.950 . S
H2417 C2393 0.949 . S
H2418 C2395 0.950 . S
H2419 C2397 0.950 . S
C2420 C2421 1.349 . S
C2420 C2422 1.327 . S
C2420 H2445 0.950 . S
C2421 C2420 1.349 . S
C2421 C2437 1.349 . S
C2422 C2420 1.327 . S
C2422 C2441 1.429 . S
C2422 H2446 0.950 . S
C2423 C2440 1.574 . S
C2423 C2442 1.368 . S
C2423 H2447 0.949 . S
H2424 C2428 0.949 . S
C2425 C2426 1.349 . S
C2425 C2427 1.327 . S
C2425 H2448 0.950 . S
C2426 C2425 1.349 . S
C2426 C2438 1.349 . S
C2427 C2425 1.327 . S
C2427 C2443 1.429 . S
C2427 H2449 0.950 . S
C2428 H2424 0.949 . S
C2428 C2436 1.574 . S
C2428 C2444 1.368 . S
H2429 C2437 0.950 . S
H2430 C2435 0.950 . S
H2431 C2436 0.949 . S
H2432 C2438 0.950 . S
H2433 C2439 0.950 . S
H2434 C2440 0.949 . S
C2435 H2430 0.950 . S
C2435 C2437 1.327 . S
C2435 C2441 1.429 . S
C2436 C2428 1.574 . S
C2436 H2431 0.949 . S
C2436 C2442 1.368 . S
C2437 C2421 1.349 . S
C2437 H2429 0.950 . S
C2437 C2435 1.327 . S
C2438 C2426 1.349 . S
C2438 H2432 0.950 . S
C2438 C2439 1.327 . S
C2439 H2433 0.950 . S
C2439 C2438 1.327 . S
C2439 C2443 1.429 . S
C2440 C2423 1.574 . S
C2440 H2434 0.949 . S
C2440 C2444 1.368 . S
C2441 C2422 1.429 . S
C2441 C2435 1.429 . S
C2441 C2442 1.523 . S
C2442 C2423 1.368 . S
C2442 C2436 1.368 . S
C2442 C2441 1.523 . S
C2443 C2427 1.429 . S
C2443 C2439 1.429 . S
C2443 C2444 1.523 . S
C2444 C2428 1.368 . S
C2444 C2440 1.368 . S
C2444 C2443 1.523 . S
H2445 C2420 0.950 . S
H2446 C2422 0.950 . S
H2447 C2423 0.949 . S
H2448 C2425 0.950 . S
H2449 C2427 0.950 . S
C2450 C2451 1.349 . S
C2450 C2452 1.327 . S
C2450 H2475 0.950 . S
C2451 C2450 1.349 . S
C2451 C2467 1.349 . S
C2452 C2450 1.327 . S
C2452 C2471 1.429 . S
C2452 H2476 0.950 . S
C2453 C2470 1.574 . S
C2453 C2472 1.368 . S
C2453 H2477 0.949 . S
H2454 C2458 0.949 . S
C2455 C2456 1.349 . S
C2455 C2457 1.327 . S
C2455 H2478 0.950 . S
C2456 C2455 1.349 . S
C2456 C2468 1.349 . S
C2457 C2455 1.327 . S
C2457 C2473 1.429 . S
C2457 H2479 0.950 . S
C2458 H2454 0.949 . S
C2458 C2466 1.574 . S
C2458 C2474 1.368 . S
H2459 C2467 0.950 . S
H2460 C2465 0.950 . S
H2461 C2466 0.949 . S
H2462 C2468 0.950 . S
H2463 C2469 0.950 . S
H2464 C2470 0.949 . S
C2465 H2460 0.950 . S
C2465 C2467 1.327 . S
C2465 C2471 1.429 . S
C2466 C2458 1.574 . S
C2466 H2461 0.949 . S
C2466 C2472 1.368 . S
C2467 C2451 1.349 . S
C2467 H2459 0.950 . S
C2467 C2465 1.327 . S
C2468 C2456 1.349 . S
C2468 H2462 0.950 . S
C2468 C2469 1.327 . S
C2469 H2463 0.950 . S
C2469 C2468 1.327 . S
C2469 C2473 1.429 . S
C2470 C2453 1.574 . S
C2470 H2464 0.949 . S
C2470 C2474 1.368 . S
C2471 C2452 1.429 . S
C2471 C2465 1.429 . S
C2471 C2472 1.523 . S
C2472 C2453 1.368 . S
C2472 C2466 1.368 . S
C2472 C2471 1.523 . S
C2473 C2457 1.429 . S
C2473 C2469 1.429 . S
C2473 C2474 1.523 . S
C2474 C2458 1.368 . S
C2474 C2470 1.368 . S
C2474 C2473 1.523 . S
H2475 C2450 0.950 . S
H2476 C2452 0.950 . S
H2477 C2453 0.949 . S
H2478 C2455 0.950 . S
H2479 C2457 0.950 . S
C2480 C2481 1.349 . S
C2480 C2482 1.327 . S
C2480 H2505 0.950 . S
C2481 C2480 1.349 . S
C2481 C2497 1.349 . S
C2482 C2480 1.327 . S
C2482 C2501 1.429 . S
C2482 H2506 0.950 . S
C2483 C2500 1.574 . S
C2483 C2502 1.368 . S
C2483 H2507 0.949 . S
H2484 C2488 0.949 . S
C2485 C2486 1.349 . S
C2485 C2487 1.327 . S
C2485 H2508 0.950 . S
C2486 C2485 1.349 . S
C2486 C2498 1.349 . S
C2487 C2485 1.327 . S
C2487 C2503 1.429 . S
C2487 H2509 0.950 . S
C2488 H2484 0.949 . S
C2488 C2496 1.574 . S
C2488 C2504 1.368 . S
H2489 C2497 0.950 . S
H2490 C2495 0.950 . S
H2491 C2496 0.949 . S
H2492 C2498 0.950 . S
H2493 C2499 0.950 . S
H2494 C2500 0.949 . S
C2495 H2490 0.950 . S
C2495 C2497 1.327 . S
C2495 C2501 1.429 . S
C2496 C2488 1.574 . S
C2496 H2491 0.949 . S
C2496 C2502 1.368 . S
C2497 C2481 1.349 . S
C2497 H2489 0.950 . S
C2497 C2495 1.327 . S
C2498 C2486 1.349 . S
C2498 H2492 0.950 . S
C2498 C2499 1.327 . S
C2499 H2493 0.950 . S
C2499 C2498 1.327 . S
C2499 C2503 1.429 . S
C2500 C2483 1.574 . S
C2500 H2494 0.949 . S
C2500 C2504 1.368 . S
C2501 C2482 1.429 . S
C2501 C2495 1.429 . S
C2501 C2502 1.523 . S
C2502 C2483 1.368 . S
C2502 C2496 1.368 . S
C2502 C2501 1.523 . S
C2503 C2487 1.429 . S
C2503 C2499 1.429 . S
C2503 C2504 1.523 . S
C2504 C2488 1.368 . S
C2504 C2500 1.368 . S
C2504 C2503 1.523 . S
H2505 C2480 0.950 . S
H2506 C2482 0.950 . S
H2507 C2483 0.949 . S
H2508 C2485 0.950 . S
H2509 C2487 0.950 . S
C2510 C2511 1.349 . S
C2510 C2512 1.327 . S
C2510 H2535 0.950 . S
C2511 C2510 1.349 . S
C2511 C2527 1.349 . S
C2512 C2510 1.327 . S
C2512 C2531 1.429 . S
C2512 H2536 0.950 . S
C2513 C2530 1.574 . S
C2513 C2532 1.368 . S
C2513 H2537 0.949 . S
H2514 C2518 0.949 . S
C2515 C2516 1.349 . S
C2515 C2517 1.327 . S
C2515 H2538 0.950 . S
C2516 C2515 1.349 . S
C2516 C2528 1.349 . S
C2517 C2515 1.327 . S
C2517 C2533 1.429 . S
C2517 H2539 0.950 . S
C2518 H2514 0.949 . S
C2518 C2526 1.574 . S
C2518 C2534 1.368 . S
H2519 C2527 0.950 . S
H2520 C2525 0.950 . S
H2521 C2526 0.949 . S
H2522 C2528 0.950 . S
H2523 C2529 0.950 . S
H2524 C2530 0.949 . S
C2525 H2520 0.950 . S
C2525 C2527 1.327 . S
C2525 C2531 1.429 . S
C2526 C2518 1.574 . S
C2526 H2521 0.949 . S
C2526 C2532 1.368 . S
C2527 C2511 1.349 . S
C2527 H2519 0.950 . S
C2527 C2525 1.327 . S
C2528 C2516 1.349 . S
C2528 H2522 0.950 . S
C2528 C2529 1.327 . S
C2529 H2523 0.950 . S
C2529 C2528 1.327 . S
C2529 C2533 1.429 . S
C2530 C2513 1.574 . S
C2530 H2524 0.949 . S
C2530 C2534 1.368 . S
C2531 C2512 1.429 . S
C2531 C2525 1.429 . S
C2531 C2532 1.523 . S
C2532 C2513 1.368 . S
C2532 C2526 1.368 . S
C2532 C2531 1.523 . S
C2533 C2517 1.429 . S
C2533 C2529 1.429 . S
C2533 C2534 1.523 . S
C2534 C2518 1.368 . S
C2534 C2530 1.368 . S
C2534 C2533 1.523 . S
H2535 C2510 0.950 . S
H2536 C2512 0.950 . S
H2537 C2513 0.949 . S
H2538 C2515 0.950 . S
H2539 C2517 0.950 . S
C2540 C2541 1.349 . S
C2540 C2542 1.327 . S
C2540 H2565 0.950 . S
C2541 C2540 1.349 . S
C2541 C2557 1.349 . S
C2542 C2540 1.327 . S
C2542 C2561 1.429 . S
C2542 H2566 0.950 . S
C2543 C2560 1.574 . S
C2543 C2562 1.368 . S
C2543 H2567 0.949 . S
H2544 C2548 0.949 . S
C2545 C2546 1.349 . S
C2545 C2547 1.327 . S
C2545 H2568 0.950 . S
C2546 C2545 1.349 . S
C2546 C2558 1.349 . S
C2547 C2545 1.327 . S
C2547 C2563 1.429 . S
C2547 H2569 0.950 . S
C2548 H2544 0.949 . S
C2548 C2556 1.574 . S
C2548 C2564 1.368 . S
H2549 C2557 0.950 . S
H2550 C2555 0.950 . S
H2551 C2556 0.949 . S
H2552 C2558 0.950 . S
H2553 C2559 0.950 . S
H2554 C2560 0.949 . S
C2555 H2550 0.950 . S
C2555 C2557 1.327 . S
C2555 C2561 1.429 . S
C2556 C2548 1.574 . S
C2556 H2551 0.949 . S
C2556 C2562 1.368 . S
C2557 C2541 1.349 . S
C2557 H2549 0.950 . S
C2557 C2555 1.327 . S
C2558 C2546 1.349 . S
C2558 H2552 0.950 . S
C2558 C2559 1.327 . S
C2559 H2553 0.950 . S
C2559 C2558 1.327 . S
C2559 C2563 1.429 . S
C2560 C2543 1.574 . S
C2560 H2554 0.949 . S
C2560 C2564 1.368 . S
C2561 C2542 1.429 . S
C2561 C2555 1.429 . S
C2561 C2562 1.523 . S
C2562 C2543 1.368 . S
C2562 C2556 1.368 . S
C2562 C2561 1.523 . S
C2563 C2547 1.429 . S
C2563 C2559 1.429 . S
C2563 C2564 1.523 . S
C2564 C2548 1.368 . S
C2564 C2560 1.368 . S
C2564 C2563 1.523 . S
H2565 C2540 0.950 . S
H2566 C2542 0.950 . S
H2567 C2543 0.949 . S
H2568 C2545 0.950 . S
H2569 C2547 0.950 . S
C2570 C2571 1.349 . S
C2570 C2572 1.327 . S
C2570 H2595 0.950 . S
C2571 C2570 1.349 . S
C2571 C2587 1.349 . S
C2572 C2570 1.327 . S
C2572 C2591 1.429 . S
C2572 H2596 0.950 . S
C2573 C2590 1.574 . S
C2573 C2592 1.368 . S
C2573 H2597 0.949 . S
H2574 C2578 0.949 . S
C2575 C2576 1.349 . S
C2575 C2577 1.327 . S
C2575 H2598 0.950 . S
C2576 C2575 1.349 . S
C2576 C2588 1.349 . S
C2577 C2575 1.327 . S
C2577 C2593 1.429 . S
C2577 H2599 0.950 . S
C2578 H2574 0.949 . S
C2578 C2586 1.574 . S
C2578 C2594 1.368 . S
H2579 C2587 0.950 . S
H2580 C2585 0.950 . S
H2581 C2586 0.949 . S
H2582 C2588 0.950 . S
H2583 C2589 0.950 . S
H2584 C2590 0.949 . S
C2585 H2580 0.950 . S
C2585 C2587 1.327 . S
C2585 C2591 1.429 . S
C2586 C2578 1.574 . S
C2586 H2581 0.949 . S
C2586 C2592 1.368 . S
C2587 C2571 1.349 . S
C2587 H2579 0.950 . S
C2587 C2585 1.327 . S
C2588 C2576 1.349 . S
C2588 H2582 0.950 . S
C2588 C2589 1.327 . S
C2589 H2583 0.950 . S
C2589 C2588 1.327 . S
C2589 C2593 1.429 . S
C2590 C2573 1.574 . S
C2590 H2584 0.949 . S
C2590 C2594 1.368 . S
C2591 C2572 1.429 . S
C2591 C2585 1.429 . S
C2591 C2592 1.523 . S
C2592 C2573 1.368 . S
C2592 C2586 1.368 . S
C2592 C2591 1.523 . S
C2593 C2577 1.429 . S
C2593 C2589 1.429 . S
C2593 C2594 1.523 . S
C2594 C2578 1.368 . S
C2594 C2590 1.368 . S
C2594 C2593 1.523 . S
H2595 C2570 0.950 . S
H2596 C2572 0.950 . S
H2597 C2573 0.949 . S
H2598 C2575 0.950 . S
H2599 C2577 0.950 . S
C2600 C2601 1.349 . S
C2600 C2602 1.327 . S
C2600 H2625 0.950 . S
C2601 C2600 1.349 . S
C2601 C2617 1.349 . S
C2602 C2600 1.327 . S
C2602 C2621 1.429 . S
C2602 H2626 0.950 . S
C2603 C2620 1.574 . S
C2603 C2622 1.368 . S
C2603 H2627 0.949 . S
H2604 C2608 0.949 . S
C2605 C2606 1.349 . S
C2605 C2607 1.327 . S
C2605 H2628 0.950 . S
C2606 C2605 1.349 . S
C2606 C2618 1.349 . S
C2607 C2605 1.327 . S
C2607 C2623 1.429 . S
C2607 H2629 0.950 . S
C2608 H2604 0.949 . S
C2608 C2616 1.574 . S
C2608 C2624 1.368 . S
H2609 C2617 0.950 . S
H2610 C2615 0.950 . S
H2611 C2616 0.949 . S
H2612 C2618 0.950 . S
H2613 C2619 0.950 . S
H2614 C2620 0.949 . S
C2615 H2610 0.950 . S
C2615 C2617 1.327 . S
C2615 C2621 1.429 . S
C2616 C2608 1.574 . S
C2616 H2611 0.949 . S
C2616 C2622 1.368 . S
C2617 C2601 1.349 . S
C2617 H2609 0.950 . S
C2617 C2615 1.327 . S
C2618 C2606 1.349 . S
C2618 H2612 0.950 . S
C2618 C2619 1.327 . S
C2619 H2613 0.950 . S
C2619 C2618 1.327 . S
C2619 C2623 1.429 . S
C2620 C2603 1.574 . S
C2620 H2614 0.949 . S
C2620 C2624 1.368 . S
C2621 C2602 1.429 . S
C2621 C2615 1.429 . S
C2621 C2622 1.523 . S
C2622 C2603 1.368 . S
C2622 C2616 1.368 . S
C2622 C2621 1.523 . S
C2623 C2607 1.429 . S
C2623 C2619 1.429 . S
C2623 C2624 1.523 . S
C2624 C2608 1.368 . S
C2624 C2620 1.368 . S
C2624 C2623 1.523 . S
H2625 C2600 0.950 . S
H2626 C2602 0.950 . S
H2627 C2603 0.949 . S
H2628 C2605 0.950 . S
H2629 C2607 0.950 . S
C2630 C2631 1.349 . S
C2630 C2632 1.327 . S
C2630 H2655 0.950 . S
C2631 C2630 1.349 . S
C2631 C2647 1.349 . S
C2632 C2630 1.327 . S
C2632 C2651 1.429 . S
C2632 H2656 0.950 . S
C2633 C2650 1.574 . S
C2633 C2652 1.368 . S
C2633 H2657 0.949 . S
H2634 C2638 0.949 . S
C2635 C2636 1.349 . S
C2635 C2637 1.327 . S
C2635 H2658 0.950 . S
C2636 C2635 1.349 . S
C2636 C2648 1.349 . S
C2637 C2635 1.327 . S
C2637 C2653 1.429 . S
C2637 H2659 0.950 . S
C2638 H2634 0.949 . S
C2638 C2646 1.574 . S
C2638 C2654 1.368 . S
H2639 C2647 0.950 . S
H2640 C2645 0.950 . S
H2641 C2646 0.949 . S
H2642 C2648 0.950 . S
H2643 C2649 0.950 . S
H2644 C2650 0.949 . S
C2645 H2640 0.950 . S
C2645 C2647 1.327 . S
C2645 C2651 1.429 . S
C2646 C2638 1.574 . S
C2646 H2641 0.949 . S
C2646 C2652 1.368 . S
C2647 C2631 1.349 . S
C2647 H2639 0.950 . S
C2647 C2645 1.327 . S
C2648 C2636 1.349 . S
C2648 H2642 0.950 . S
C2648 C2649 1.327 . S
C2649 H2643 0.950 . S
C2649 C2648 1.327 . S
C2649 C2653 1.429 . S
C2650 C2633 1.574 . S
C2650 H2644 0.949 . S
C2650 C2654 1.368 . S
C2651 C2632 1.429 . S
C2651 C2645 1.429 . S
C2651 C2652 1.523 . S
C2652 C2633 1.368 . S
C2652 C2646 1.368 . S
C2652 C2651 1.523 . S
C2653 C2637 1.429 . S
C2653 C2649 1.429 . S
C2653 C2654 1.523 . S
C2654 C2638 1.368 . S
C2654 C2650 1.368 . S
C2654 C2653 1.523 . S
H2655 C2630 0.950 . S
H2656 C2632 0.950 . S
H2657 C2633 0.949 . S
H2658 C2635 0.950 . S
H2659 C2637 0.950 . S
C2660 C2661 1.349 . S
C2660 C2662 1.327 . S
C2660 H2685 0.950 . S
C2661 C2660 1.349 . S
C2661 C2677 1.349 . S
C2662 C2660 1.327 . S
C2662 C2681 1.429 . S
C2662 H2686 0.950 . S
C2663 C2680 1.574 . S
C2663 C2682 1.368 . S
C2663 H2687 0.949 . S
H2664 C2668 0.949 . S
C2665 C2666 1.349 . S
C2665 C2667 1.327 . S
C2665 H2688 0.950 . S
C2666 C2665 1.349 . S
C2666 C2678 1.349 . S
C2667 C2665 1.327 . S
C2667 C2683 1.429 . S
C2667 H2689 0.950 . S
C2668 H2664 0.949 . S
C2668 C2676 1.574 . S
C2668 C2684 1.368 . S
H2669 C2677 0.950 . S
H2670 C2675 0.950 . S
H2671 C2676 0.949 . S
H2672 C2678 0.950 . S
H2673 C2679 0.950 . S
H2674 C2680 0.949 . S
C2675 H2670 0.950 . S
C2675 C2677 1.327 . S
C2675 C2681 1.429 . S
C2676 C2668 1.574 . S
C2676 H2671 0.949 . S
C2676 C2682 1.368 . S
C2677 C2661 1.349 . S
C2677 H2669 0.950 . S
C2677 C2675 1.327 . S
C2678 C2666 1.349 . S
C2678 H2672 0.950 . S
C2678 C2679 1.327 . S
C2679 H2673 0.950 . S
C2679 C2678 1.327 . S
C2679 C2683 1.429 . S
C2680 C2663 1.574 . S
C2680 H2674 0.949 . S
C2680 C2684 1.368 . S
C2681 C2662 1.429 . S
C2681 C2675 1.429 . S
C2681 C2682 1.523 . S
C2682 C2663 1.368 . S
C2682 C2676 1.368 . S
C2682 C2681 1.523 . S
C2683 C2667 1.429 . S
C2683 C2679 1.429 . S
C2683 C2684 1.523 . S
C2684 C2668 1.368 . S
C2684 C2680 1.368 . S
C2684 C2683 1.523 . S
H2685 C2660 0.950 . S
H2686 C2662 0.950 . S
H2687 C2663 0.949 . S
H2688 C2665 0.950 . S
H2689 C2667 0.950 . S
C2690 C2691 1.349 . S
C2690 C2692 1.327 . S
C2690 H2715 0.950 . S
C2691 C2690 1.349 . S
C2691 C2707 1.349 . S
C2692 C2690 1.327 . S
C2692 C2711 1.429 . S
C2692 H2716 0.950 . S
C2693 C2710 1.574 . S
C2693 C2712 1.368 . S
C2693 H2717 0.949 . S
H2694 C2698 0.949 . S
C2695 C2696 1.349 . S
C2695 C2697 1.327 . S
C2695 H2718 0.950 . S
C2696 C2695 1.349 . S
C2696 C2708 1.349 . S
C2697 C2695 1.327 . S
C2697 C2713 1.429 . S
C2697 H2719 0.950 . S
C2698 H2694 0.949 . S
C2698 C2706 1.574 . S
C2698 C2714 1.368 . S
H2699 C2707 0.950 . S
H2700 C2705 0.950 . S
H2701 C2706 0.949 . S
H2702 C2708 0.950 . S
H2703 C2709 0.950 . S
H2704 C2710 0.949 . S
C2705 H2700 0.950 . S
C2705 C2707 1.327 . S
C2705 C2711 1.429 . S
C2706 C2698 1.574 . S
C2706 H2701 0.949 . S
C2706 C2712 1.368 . S
C2707 C2691 1.349 . S
C2707 H2699 0.950 . S
C2707 C2705 1.327 . S
C2708 C2696 1.349 . S
C2708 H2702 0.950 . S
C2708 C2709 1.327 . S
C2709 H2703 0.950 . S
C2709 C2708 1.327 . S
C2709 C2713 1.429 . S
C2710 C2693 1.574 . S
C2710 H2704 0.949 . S
C2710 C2714 1.368 . S
C2711 C2692 1.429 . S
C2711 C2705 1.429 . S
C2711 C2712 1.523 . S
C2712 C2693 1.368 . S
C2712 C2706 1.368 . S
C2712 C2711 1.523 . S
C2713 C2697 1.429 . S
C2713 C2709 1.429 . S
C2713 C2714 1.523 . S
C2714 C2698 1.368 . S
C2714 C2710 1.368 . S
C2714 C2713 1.523 . S
H2715 C2690 0.950 . S
H2716 C2692 0.950 . S
H2717 C2693 0.949 . S
H2718 C2695 0.950 . S
H2719 C2697 0.950 . S
C2720 C2721 1.349 . S
C2720 C2722 1.327 . S
C2720 H2745 0.950 . S
C2721 C2720 1.349 . S
C2721 C2737 1.349 . S
C2722 C2720 1.327 . S
C2722 C2741 1.429 . S
C2722 H2746 0.950 . S
C2723 C2740 1.574 . S
C2723 C2742 1.368 . S
C2723 H2747 0.949 . S
H2724 C2728 0.949 . S
C2725 C2726 1.349 . S
C2725 C2727 1.327 . S
C2725 H2748 0.950 . S
C2726 C2725 1.349 . S
C2726 C2738 1.349 . S
C2727 C2725 1.327 . S
C2727 C2743 1.429 . S
C2727 H2749 0.950 . S
C2728 H2724 0.949 . S
C2728 C2736 1.574 . S
C2728 C2744 1.368 . S
H2729 C2737 0.950 . S
H2730 C2735 0.950 . S
H2731 C2736 0.949 . S
H2732 C2738 0.950 . S
H2733 C2739 0.950 . S
H2734 C2740 0.949 . S
C2735 H2730 0.950 . S
C2735 C2737 1.327 . S
C2735 C2741 1.429 . S
C2736 C2728 1.574 . S
C2736 H2731 0.949 . S
C2736 C2742 1.368 . S
C2737 C2721 1.349 . S
C2737 H2729 0.950 . S
C2737 C2735 1.327 . S
C2738 C2726 1.349 . S
C2738 H2732 0.950 . S
C2738 C2739 1.327 . S
C2739 H2733 0.950 . S
C2739 C2738 1.327 . S
C2739 C2743 1.429 . S
C2740 C2723 1.574 . S
C2740 H2734 0.949 . S
C2740 C2744 1.368 . S
C2741 C2722 1.429 . S
C2741 C2735 1.429 . S
C2741 C2742 1.523 . S
C2742 C2723 1.368 . S
C2742 C2736 1.368 . S
C2742 C2741 1.523 . S
C2743 C2727 1.429 . S
C2743 C2739 1.429 . S
C2743 C2744 1.523 . S
C2744 C2728 1.368 . S
C2744 C2740 1.368 . S
C2744 C2743 1.523 . S
H2745 C2720 0.950 . S
H2746 C2722 0.950 . S
H2747 C2723 0.949 . S
H2748 C2725 0.950 . S
H2749 C2727 0.950 . S
C2750 C2751 1.349 . S
C2750 C2752 1.327 . S
C2750 H2775 0.950 . S
C2751 C2750 1.349 . S
C2751 C2767 1.349 . S
C2752 C2750 1.327 . S
C2752 C2771 1.429 . S
C2752 H2776 0.950 . S
C2753 C2770 1.574 . S
C2753 C2772 1.368 . S
C2753 H2777 0.949 . S
H2754 C2758 0.949 . S
C2755 C2756 1.349 . S
C2755 C2757 1.327 . S
C2755 H2778 0.950 . S
C2756 C2755 1.349 . S
C2756 C2768 1.349 . S
C2757 C2755 1.327 . S
C2757 C2773 1.429 . S
C2757 H2779 0.950 . S
C2758 H2754 0.949 . S
C2758 C2766 1.574 . S
C2758 C2774 1.368 . S
H2759 C2767 0.950 . S
H2760 C2765 0.950 . S
H2761 C2766 0.949 . S
H2762 C2768 0.950 . S
H2763 C2769 0.950 . S
H2764 C2770 0.949 . S
C2765 H2760 0.950 . S
C2765 C2767 1.327 . S
C2765 C2771 1.429 . S
C2766 C2758 1.574 . S
C2766 H2761 0.949 . S
C2766 C2772 1.368 . S
C2767 C2751 1.349 . S
C2767 H2759 0.950 . S
C2767 C2765 1.327 . S
C2768 C2756 1.349 . S
C2768 H2762 0.950 . S
C2768 C2769 1.327 . S
C2769 H2763 0.950 . S
C2769 C2768 1.327 . S
C2769 C2773 1.429 . S
C2770 C2753 1.574 . S
C2770 H2764 0.949 . S
C2770 C2774 1.368 . S
C2771 C2752 1.429 . S
C2771 C2765 1.429 . S
C2771 C2772 1.523 . S
C2772 C2753 1.368 . S
C2772 C2766 1.368 . S
C2772 C2771 1.523 . S
C2773 C2757 1.429 . S
C2773 C2769 1.429 . S
C2773 C2774 1.523 . S
C2774 C2758 1.368 . S
C2774 C2770 1.368 . S
C2774 C2773 1.523 . S
H2775 C2750 0.950 . S
H2776 C2752 0.950 . S
H2777 C2753 0.949 . S
H2778 C2755 0.950 . S
H2779 C2757 0.950 . S
C2780 C2781 1.349 . S
C2780 C2782 1.327 . S
C2780 H2805 0.950 . S
C2781 C2780 1.349 . S
C2781 C2797 1.349 . S
C2782 C2780 1.327 . S
C2782 C2801 1.429 . S
C2782 H2806 0.950 . S
C2783 C2800 1.574 . S
C2783 C2802 1.368 . S
C2783 H2807 0.949 . S
H2784 C2788 0.949 . S
C2785 C2786 1.349 . S
C2785 C2787 1.327 . S
C2785 H2808 0.950 . S
C2786 C2785 1.349 . S
C2786 C2798 1.349 . S
C2787 C2785 1.327 . S
C2787 C2803 1.429 . S
C2787 H2809 0.950 . S
C2788 H2784 0.949 . S
C2788 C2796 1.574 . S
C2788 C2804 1.368 . S
H2789 C2797 0.950 . S
H2790 C2795 0.950 . S
H2791 C2796 0.949 . S
H2792 C2798 0.950 . S
H2793 C2799 0.950 . S
H2794 C2800 0.949 . S
C2795 H2790 0.950 . S
C2795 C2797 1.327 . S
C2795 C2801 1.429 . S
C2796 C2788 1.574 . S
C2796 H2791 0.949 . S
C2796 C2802 1.368 . S
C2797 C2781 1.349 . S
C2797 H2789 0.950 . S
C2797 C2795 1.327 . S
C2798 C2786 1.349 . S
C2798 H2792 0.950 . S
C2798 C2799 1.327 . S
C2799 H2793 0.950 . S
C2799 C2798 1.327 . S
C2799 C2803 1.429 . S
C2800 C2783 1.574 . S
C2800 H2794 0.949 . S
C2800 C2804 1.368 . S
C2801 C2782 1.429 . S
C2801 C2795 1.429 . S
C2801 C2802 1.523 . S
C2802 C2783 1.368 . S
C2802 C2796 1.368 . S
C2802 C2801 1.523 . S
C2803 C2787 1.429 . S
C2803 C2799 1.429 . S
C2803 C2804 1.523 . S
C2804 C2788 1.368 . S
C2804 C2800 1.368 . S
C2804 C2803 1.523 . S
H2805 C2780 0.950 . S
H2806 C2782 0.950 . S
H2807 C2783 0.949 . S
H2808 C2785 0.950 . S
H2809 C2787 0.950 . S
C2810 C2811 1.349 . S
C2810 C2812 1.327 . S
C2810 H2835 0.950 . S
C2811 C2810 1.349 . S
C2811 C2827 1.349 . S
C2812 C2810 1.327 . S
C2812 C2831 1.429 . S
C2812 H2836 0.950 . S
C2813 C2830 1.574 . S
C2813 C2832 1.368 . S
C2813 H2837 0.949 . S
H2814 C2818 0.949 . S
C2815 C2816 1.349 . S
C2815 C2817 1.327 . S
C2815 H2838 0.950 . S
C2816 C2815 1.349 . S
C2816 C2828 1.349 . S
C2817 C2815 1.327 . S
C2817 C2833 1.429 . S
C2817 H2839 0.950 . S
C2818 H2814 0.949 . S
C2818 C2826 1.574 . S
C2818 C2834 1.368 . S
H2819 C2827 0.950 . S
H2820 C2825 0.950 . S
H2821 C2826 0.949 . S
H2822 C2828 0.950 . S
H2823 C2829 0.950 . S
H2824 C2830 0.949 . S
C2825 H2820 0.950 . S
C2825 C2827 1.327 . S
C2825 C2831 1.429 . S
C2826 C2818 1.574 . S
C2826 H2821 0.949 . S
C2826 C2832 1.368 . S
C2827 C2811 1.349 . S
C2827 H2819 0.950 . S
C2827 C2825 1.327 . S
C2828 C2816 1.349 . S
C2828 H2822 0.950 . S
C2828 C2829 1.327 . S
C2829 H2823 0.950 . S
C2829 C2828 1.327 . S
C2829 C2833 1.429 . S
C2830 C2813 1.574 . S
C2830 H2824 0.949 . S
C2830 C2834 1.368 . S
C2831 C2812 1.429 . S
C2831 C2825 1.429 . S
C2831 C2832 1.523 . S
C2832 C2813 1.368 . S
C2832 C2826 1.368 . S
C2832 C2831 1.523 . S
C2833 C2817 1.429 . S
C2833 C2829 1.429 . S
C2833 C2834 1.523 . S
C2834 C2818 1.368 . S
C2834 C2830 1.368 . S
C2834 C2833 1.523 . S
H2835 C2810 0.950 . S
H2836 C2812 0.950 . S
H2837 C2813 0.949 . S
H2838 C2815 0.950 . S
H2839 C2817 0.950 . S
C2840 C2841 1.349 . S
C2840 C2842 1.327 . S
C2840 H2865 0.950 . S
C2841 C2840 1.349 . S
C2841 C2857 1.349 . S
C2842 C2840 1.327 . S
C2842 C2861 1.429 . S
C2842 H2866 0.950 . S
C2843 C2860 1.574 . S
C2843 C2862 1.368 . S
C2843 H2867 0.949 . S
H2844 C2848 0.949 . S
C2845 C2846 1.349 . S
C2845 C2847 1.327 . S
C2845 H2868 0.950 . S
C2846 C2845 1.349 . S
C2846 C2858 1.349 . S
C2847 C2845 1.327 . S
C2847 C2863 1.429 . S
C2847 H2869 0.950 . S
C2848 H2844 0.949 . S
C2848 C2856 1.574 . S
C2848 C2864 1.368 . S
H2849 C2857 0.950 . S
H2850 C2855 0.950 . S
H2851 C2856 0.949 . S
H2852 C2858 0.950 . S
H2853 C2859 0.950 . S
H2854 C2860 0.949 . S
C2855 H2850 0.950 . S
C2855 C2857 1.327 . S
C2855 C2861 1.429 . S
C2856 C2848 1.574 . S
C2856 H2851 0.949 . S
C2856 C2862 1.368 . S
C2857 C2841 1.349 . S
C2857 H2849 0.950 . S
C2857 C2855 1.327 . S
C2858 C2846 1.349 . S
C2858 H2852 0.950 . S
C2858 C2859 1.327 . S
C2859 H2853 0.950 . S
C2859 C2858 1.327 . S
C2859 C2863 1.429 . S
C2860 C2843 1.574 . S
C2860 H2854 0.949 . S
C2860 C2864 1.368 . S
C2861 C2842 1.429 . S
C2861 C2855 1.429 . S
C2861 C2862 1.523 . S
C2862 C2843 1.368 . S
C2862 C2856 1.368 . S
C2862 C2861 1.523 . S
C2863 C2847 1.429 . S
C2863 C2859 1.429 . S
C2863 C2864 1.523 . S
C2864 C2848 1.368 . S
C2864 C2860 1.368 . S
C2864 C2863 1.523 . S
H2865 C2840 0.950 . S
H2866 C2842 0.950 . S
H2867 C2843 0.949 . S
H2868 C2845 0.950 . S
H2869 C2847 0.950 . S
C2870 C2871 1.349 . S
C2870 C2872 1.327 . S
C2870 H2895 0.950 . S
C2871 C2870 1.349 . S
C2871 C2887 1.349 . S
C2872 C2870 1.327 . S
C2872 C2891 1.429 . S
C2872 H2896 0.950 . S
C2873 C2890 1.574 . S
C2873 C2892 1.368 . S
C2873 H2897 0.949 . S
H2874 C2878 0.949 . S
C2875 C2876 1.349 . S
C2875 C2877 1.327 . S
C2875 H2898 0.950 . S
C2876 C2875 1.349 . S
C2876 C2888 1.349 . S
C2877 C2875 1.327 . S
C2877 C2893 1.429 . S
C2877 H2899 0.950 . S
C2878 H2874 0.949 . S
C2878 C2886 1.574 . S
C2878 C2894 1.368 . S
H2879 C2887 0.950 . S
H2880 C2885 0.950 . S
H2881 C2886 0.949 . S
H2882 C2888 0.950 . S
H2883 C2889 0.950 . S
H2884 C2890 0.949 . S
C2885 H2880 0.950 . S
C2885 C2887 1.327 . S
C2885 C2891 1.429 . S
C2886 C2878 1.574 . S
C2886 H2881 0.949 . S
C2886 C2892 1.368 . S
C2887 C2871 1.349 . S
C2887 H2879 0.950 . S
C2887 C2885 1.327 . S
C2888 C2876 1.349 . S
C2888 H2882 0.950 . S
C2888 C2889 1.327 . S
C2889 H2883 0.950 . S
C2889 C2888 1.327 . S
C2889 C2893 1.429 . S
C2890 C2873 1.574 . S
C2890 H2884 0.949 . S
C2890 C2894 1.368 . S
C2891 C2872 1.429 . S
C2891 C2885 1.429 . S
C2891 C2892 1.523 . S
C2892 C2873 1.368 . S
C2892 C2886 1.368 . S
C2892 C2891 1.523 . S
C2893 C2877 1.429 . S
C2893 C2889 1.429 . S
C2893 C2894 1.523 . S
C2894 C2878 1.368 . S
C2894 C2890 1.368 . S
C2894 C2893 1.523 . S
H2895 C2870 0.950 . S
H2896 C2872 0.950 . S
H2897 C2873 0.949 . S
H2898 C2875 0.950 . S
H2899 C2877 0.950 . S
C2900 C2901 1.349 . S
C2900 C2902 1.327 . S
C2900 H2925 0.950 . S
C2901 C2900 1.349 . S
C2901 C2917 1.349 . S
C2902 C2900 1.327 . S
C2902 C2921 1.429 . S
C2902 H2926 0.950 . S
C2903 C2920 1.574 . S
C2903 C2922 1.368 . S
C2903 H2927 0.949 . S
H2904 C2908 0.949 . S
C2905 C2906 1.349 . S
C2905 C2907 1.327 . S
C2905 H2928 0.950 . S
C2906 C2905 1.349 . S
C2906 C2918 1.349 . S
C2907 C2905 1.327 . S
C2907 C2923 1.429 . S
C2907 H2929 0.950 . S
C2908 H2904 0.949 . S
C2908 C2916 1.574 . S
C2908 C2924 1.368 . S
H2909 C2917 0.950 . S
H2910 C2915 0.950 . S
H2911 C2916 0.949 . S
H2912 C2918 0.950 . S
H2913 C2919 0.950 . S
H2914 C2920 0.949 . S
C2915 H2910 0.950 . S
C2915 C2917 1.327 . S
C2915 C2921 1.429 . S
C2916 C2908 1.574 . S
C2916 H2911 0.949 . S
C2916 C2922 1.368 . S
C2917 C2901 1.349 . S
C2917 H2909 0.950 . S
C2917 C2915 1.327 . S
C2918 C2906 1.349 . S
C2918 H2912 0.950 . S
C2918 C2919 1.327 . S
C2919 H2913 0.950 . S
C2919 C2918 1.327 . S
C2919 C2923 1.429 . S
C2920 C2903 1.574 . S
C2920 H2914 0.949 . S
C2920 C2924 1.368 . S
C2921 C2902 1.429 . S
C2921 C2915 1.429 . S
C2921 C2922 1.523 . S
C2922 C2903 1.368 . S
C2922 C2916 1.368 . S
C2922 C2921 1.523 . S
C2923 C2907 1.429 . S
C2923 C2919 1.429 . S
C2923 C2924 1.523 . S
C2924 C2908 1.368 . S
C2924 C2920 1.368 . S
C2924 C2923 1.523 . S
H2925 C2900 0.950 . S
H2926 C2902 0.950 . S
H2927 C2903 0.949 . S
H2928 C2905 0.950 . S
H2929 C2907 0.950 . S
C2930 C2931 1.349 . S
C2930 C2932 1.327 . S
C2930 H2955 0.950 . S
C2931 C2930 1.349 . S
C2931 C2947 1.349 . S
C2932 C2930 1.327 . S
C2932 C2951 1.429 . S
C2932 H2956 0.950 . S
C2933 C2950 1.574 . S
C2933 C2952 1.368 . S
C2933 H2957 0.949 . S
H2934 C2938 0.949 . S
C2935 C2936 1.349 . S
C2935 C2937 1.327 . S
C2935 H2958 0.950 . S
C2936 C2935 1.349 . S
C2936 C2948 1.349 . S
C2937 C2935 1.327 . S
C2937 C2953 1.429 . S
C2937 H2959 0.950 . S
C2938 H2934 0.949 . S
C2938 C2946 1.574 . S
C2938 C2954 1.368 . S
H2939 C2947 0.950 . S
H2940 C2945 0.950 . S
H2941 C2946 0.949 . S
H2942 C2948 0.950 . S
H2943 C2949 0.950 . S
H2944 C2950 0.949 . S
C2945 H2940 0.950 . S
C2945 C2947 1.327 . S
C2945 C2951 1.429 . S
C2946 C2938 1.574 . S
C2946 H2941 0.949 . S
C2946 C2952 1.368 . S
C2947 C2931 1.349 . S
C2947 H2939 0.950 . S
C2947 C2945 1.327 . S
C2948 C2936 1.349 . S
C2948 H2942 0.950 . S
C2948 C2949 1.327 . S
C2949 H2943 0.950 . S
C2949 C2948 1.327 . S
C2949 C2953 1.429 . S
C2950 C2933 1.574 . S
C2950 H2944 0.949 . S
C2950 C2954 1.368 . S
C2951 C2932 1.429 . S
C2951 C2945 1.429 . S
C2951 C2952 1.523 . S
C2952 C2933 1.368 . S
C2952 C2946 1.368 . S
C2952 C2951 1.523 . S
C2953 C2937 1.429 . S
C2953 C2949 1.429 . S
C2953 C2954 1.523 . S
C2954 C2938 1.368 . S
C2954 C2950 1.368 . S
C2954 C2953 1.523 . S
H2955 C2930 0.950 . S
H2956 C2932 0.950 . S
H2957 C2933 0.949 . S
H2958 C2935 0.950 . S
H2959 C2937 0.950 . S
C2960 C2961 1.349 . S
C2960 C2962 1.327 . S
C2960 H2985 0.950 . S
C2961 C2960 1.349 . S
C2961 C2977 1.349 1_545 S
C2962 C2960 1.327 . S
C2962 C2981 1.429 . S
C2962 H2986 0.950 . S
C2963 C2980 1.574 . S
C2963 C2982 1.368 . S
C2963 H2987 0.949 . S
H2964 C2968 0.949 . S
C2965 C2966 1.349 . S
C2965 C2967 1.327 . S
C2965 H2988 0.950 . S
C2966 C2965 1.349 . S
C2966 C2978 1.373 . S
C2967 C2965 1.327 . S
C2967 C2983 1.429 . S
C2967 H2989 0.950 . S
C2968 H2964 0.949 . S
C2968 C2976 1.574 . S
C2968 C2984 1.368 1_545 S
H2969 C2977 0.950 . S
H2970 C2975 0.950 . S
H2971 C2976 0.949 . S
H2972 C2978 0.930 1_545 S
H2973 C2979 0.950 . S
H2974 C2980 0.949 . S
C2975 H2970 0.950 . S
C2975 C2977 1.327 . S
C2975 C2981 1.429 1_565 S
C2976 C2968 1.574 . S
C2976 H2971 0.949 . S
C2976 C2982 1.368 1_545 S
C2977 C2961 1.349 1_565 S
C2977 H2969 0.950 . S
C2977 C2975 1.327 . S
C2978 C2966 1.373 . S
C2978 H2972 0.930 1_565 S
C2978 C2979 1.322 1_565 S
C2979 H2973 0.950 . S
C2979 C2978 1.322 1_545 S
C2979 C2983 1.429 1_545 S
C2980 C2963 1.574 . S
C2980 H2974 0.949 . S
C2980 C2984 1.368 . S
C2981 C2962 1.429 . S
C2981 C2975 1.429 1_545 S
C2981 C2982 1.523 1_545 S
C2982 C2963 1.368 . S
C2982 C2976 1.368 1_565 S
C2982 C2981 1.523 1_565 S
C2983 C2967 1.429 . S
C2983 C2979 1.429 1_565 S
C2983 C2984 1.523 . S
C2984 C2968 1.368 1_565 S
C2984 C2980 1.368 . S
C2984 C2983 1.523 . S
H2985 C2960 0.950 . S
H2986 C2962 0.950 . S
H2987 C2963 0.949 . S
H2988 C2965 0.950 . S
H2989 C2967 0.950 . S
C2990 C2991 1.349 . S
C2990 C2992 1.327 . S
C2990 H3015 0.950 . S
C2991 C2990 1.349 . S
C2991 C3007 1.349 . S
C2992 C2990 1.327 . S
C2992 C3011 1.429 . S
C2992 H3016 0.950 . S
C2993 C3010 1.574 . S
C2993 C3012 1.368 . S
C2993 H3017 0.949 . S
H2994 C2998 0.949 . S
C2995 C2996 1.349 . S
C2995 C2997 1.327 . S
C2995 H3018 0.950 . S
C2996 C2995 1.349 . S
C2996 C3008 1.349 . S
C2997 C2995 1.327 . S
C2997 C3013 1.429 . S
C2997 H3019 0.950 . S
C2998 H2994 0.949 . S
C2998 C3006 1.574 . S
C2998 C3014 1.368 . S
H2999 C3007 0.950 . S
H3000 C3005 0.950 . S
H3001 C3006 0.949 . S
H3002 C3008 0.950 . S
H3003 C3009 0.950 . S
H3004 C3010 0.949 . S
C3005 H3000 0.950 . S
C3005 C3007 1.327 . S
C3005 C3011 1.429 . S
C3006 C2998 1.574 . S
C3006 H3001 0.949 . S
C3006 C3012 1.368 . S
C3007 C2991 1.349 . S
C3007 H2999 0.950 . S
C3007 C3005 1.327 . S
C3008 C2996 1.349 . S
C3008 H3002 0.950 . S
C3008 C3009 1.327 . S
C3009 H3003 0.950 . S
C3009 C3008 1.327 . S
C3009 C3013 1.429 . S
C3010 C2993 1.574 . S
C3010 H3004 0.949 . S
C3010 C3014 1.368 . S
C3011 C2992 1.429 . S
C3011 C3005 1.429 . S
C3011 C3012 1.523 . S
C3012 C2993 1.368 . S
C3012 C3006 1.368 . S
C3012 C3011 1.523 . S
C3013 C2997 1.429 . S
C3013 C3009 1.429 . S
C3013 C3014 1.523 . S
C3014 C2998 1.368 . S
C3014 C3010 1.368 . S
C3014 C3013 1.523 . S
H3015 C2990 0.950 . S
H3016 C2992 0.950 . S
H3017 C2993 0.949 . S
H3018 C2995 0.950 . S
H3019 C2997 0.950 . S
C3020 C3021 1.349 . S
C3020 C3022 1.327 . S
C3020 H3045 0.950 . S
C3021 C3020 1.349 . S
C3021 C3037 1.349 . S
C3022 C3020 1.327 . S
C3022 C3041 1.429 . S
C3022 H3046 0.950 . S
C3023 C3040 1.574 . S
C3023 C3042 1.368 . S
C3023 H3047 0.949 . S
H3024 C3028 0.949 . S
C3025 C3026 1.349 . S
C3025 C3027 1.327 . S
C3025 H3048 0.950 . S
C3026 C3025 1.349 . S
C3026 C3038 1.349 . S
C3027 C3025 1.327 . S
C3027 C3043 1.429 . S
C3027 H3049 0.950 . S
C3028 H3024 0.949 . S
C3028 C3036 1.574 . S
C3028 C3044 1.368 . S
H3029 C3037 0.950 . S
H3030 C3035 0.950 . S
H3031 C3036 0.949 . S
H3032 C3038 0.950 . S
H3033 C3039 0.950 . S
H3034 C3040 0.949 . S
C3035 H3030 0.950 . S
C3035 C3037 1.327 . S
C3035 C3041 1.429 . S
C3036 C3028 1.574 . S
C3036 H3031 0.949 . S
C3036 C3042 1.368 . S
C3037 C3021 1.349 . S
C3037 H3029 0.950 . S
C3037 C3035 1.327 . S
C3038 C3026 1.349 . S
C3038 H3032 0.950 . S
C3038 C3039 1.327 . S
C3039 H3033 0.950 . S
C3039 C3038 1.327 . S
C3039 C3043 1.429 . S
C3040 C3023 1.574 . S
C3040 H3034 0.949 . S
C3040 C3044 1.368 . S
C3041 C3022 1.429 . S
C3041 C3035 1.429 . S
C3041 C3042 1.523 . S
C3042 C3023 1.368 . S
C3042 C3036 1.368 . S
C3042 C3041 1.523 . S
C3043 C3027 1.429 . S
C3043 C3039 1.429 . S
C3043 C3044 1.523 . S
C3044 C3028 1.368 . S
C3044 C3040 1.368 . S
C3044 C3043 1.523 . S
H3045 C3020 0.950 . S
H3046 C3022 0.950 . S
H3047 C3023 0.949 . S
H3048 C3025 0.950 . S
H3049 C3027 0.950 . S
C3050 C3051 1.349 . S
C3050 C3052 1.327 . S
C3050 H3075 0.950 . S
C3051 C3050 1.349 . S
C3051 C3067 1.324 1_545 S
C3052 C3050 1.327 . S
C3052 C3071 1.429 . S
C3052 H3076 0.950 . S
C3053 C3070 1.574 . S
C3053 C3072 1.368 . S
C3053 H3077 0.949 . S
H3054 C3058 0.949 . S
C3055 C3056 1.349 . S
C3055 C3057 1.327 . S
C3055 H3078 0.950 . S
C3056 C3055 1.349 . S
C3056 C3068 1.349 . S
C3057 C3055 1.327 . S
C3057 C3073 1.429 . S
C3057 H3079 0.950 . S
C3058 H3054 0.949 . S
C3058 C3066 1.574 . S
C3058 C3074 1.368 1_545 S
H3059 C3067 0.969 . S
H3060 C3065 0.950 . S
H3061 C3066 0.949 . S
H3062 C3068 0.950 . S
H3063 C3069 0.928 1_545 S
H3064 C3070 0.949 . S
C3065 H3060 0.950 . S
C3065 C3067 1.338 . S
C3065 C3071 1.429 1_565 S
C3066 C3058 1.574 . S
C3066 H3061 0.949 . S
C3066 C3072 1.368 1_545 S
C3067 C3051 1.324 1_565 S
C3067 H3059 0.969 . S
C3067 C3065 1.338 . S
C3068 C3056 1.349 . S
C3068 H3062 0.950 . S
C3068 C3069 1.327 . S
C3069 H3063 0.928 1_565 S
C3069 C3068 1.327 . S
C3069 C3073 1.429 . S
C3070 C3053 1.574 . S
C3070 H3064 0.949 . S
C3070 C3074 1.368 . S
C3071 C3052 1.429 . S
C3071 C3065 1.429 1_545 S
C3071 C3072 1.523 1_545 S
C3072 C3053 1.368 . S
C3072 C3066 1.368 1_565 S
C3072 C3071 1.523 1_565 S
C3073 C3057 1.429 . S
C3073 C3069 1.429 . S
C3073 C3074 1.523 . S
C3074 C3058 1.368 1_565 S
C3074 C3070 1.368 . S
C3074 C3073 1.523 . S
H3075 C3050 0.950 . S
H3076 C3052 0.950 . S
H3077 C3053 0.949 . S
H3078 C3055 0.950 . S
H3079 C3057 0.950 . S
C3080 C3081 1.349 . S
C3080 C3082 1.327 . S
C3080 H3105 0.950 . S
C3081 C3080 1.349 . S
C3081 C3097 1.349 1_565 S
C3082 C3080 1.327 . S
C3082 C3101 1.429 . S
C3082 H3106 0.950 . S
C3083 C3100 1.574 . S
C3083 C3102 1.368 . S
C3083 H3107 0.949 . S
H3084 C3088 0.949 . S
C3085 C3086 1.349 . S
C3085 C3087 1.327 . S
C3085 H3108 0.950 . S
C3086 C3085 1.349 . S
C3086 C3098 1.341 1_545 S
C3087 C3085 1.327 . S
C3087 C3103 1.429 . S
C3087 H3109 0.950 . S
C3088 H3084 0.949 . S
C3088 C3096 1.574 . S
C3088 C3104 1.368 1_565 S
H3089 C3097 0.950 . S
H3090 C3095 0.950 . S
H3091 C3096 0.949 . S
H3092 C3098 0.956 . S
H3093 C3099 0.950 . S
H3094 C3100 0.949 . S
C3095 H3090 0.950 . S
C3095 C3097 1.327 . S
C3095 C3101 1.429 1_545 S
C3096 C3088 1.574 . S
C3096 H3091 0.949 . S
C3096 C3102 1.368 1_565 S
C3097 C3081 1.349 1_545 S
C3097 H3089 0.950 . S
C3097 C3095 1.327 . S
C3098 C3086 1.341 1_565 S
C3098 H3092 0.956 . S
C3098 C3099 1.329 . S
C3099 H3093 0.950 . S
C3099 C3098 1.329 . S
C3099 C3103 1.429 1_565 S
C3100 C3083 1.574 . S
C3100 H3094 0.949 . S
C3100 C3104 1.368 . S
C3101 C3082 1.429 . S
C3101 C3095 1.429 1_565 S
C3101 C3102 1.523 1_565 S
C3102 C3083 1.368 . S
C3102 C3096 1.368 1_545 S
C3102 C3101 1.523 1_545 S
C3103 C3087 1.429 . S
C3103 C3099 1.429 1_545 S
C3103 C3104 1.523 . S
C3104 C3088 1.368 1_545 S
C3104 C3100 1.368 . S
C3104 C3103 1.523 . S
H3105 C3080 0.950 . S
H3106 C3082 0.950 . S
H3107 C3083 0.949 . S
H3108 C3085 0.950 . S
H3109 C3087 0.950 . S
C3110 C3111 1.349 . S
C3110 C3112 1.327 . S
C3110 H3135 0.950 . S
C3111 C3110 1.349 . S
C3111 C3127 1.349 . S
C3112 C3110 1.327 . S
C3112 C3131 1.429 . S
C3112 H3136 0.950 . S
C3113 C3130 1.574 . S
C3113 C3132 1.368 . S
C3113 H3137 0.949 . S
H3114 C3118 0.949 . S
C3115 C3116 1.349 . S
C3115 C3117 1.327 . S
C3115 H3138 0.950 . S
C3116 C3115 1.349 . S
C3116 C3128 1.349 . S
C3117 C3115 1.327 . S
C3117 C3133 1.429 . S
C3117 H3139 0.950 . S
C3118 H3114 0.949 . S
C3118 C3126 1.574 . S
C3118 C3134 1.368 . S
H3119 C3127 0.950 . S
H3120 C3125 0.950 . S
H3121 C3126 0.949 . S
H3122 C3128 0.950 . S
H3123 C3129 0.950 . S
H3124 C3130 0.949 . S
C3125 H3120 0.950 . S
C3125 C3127 1.327 . S
C3125 C3131 1.429 . S
C3126 C3118 1.574 . S
C3126 H3121 0.949 . S
C3126 C3132 1.368 . S
C3127 C3111 1.349 . S
C3127 H3119 0.950 . S
C3127 C3125 1.327 . S
C3128 C3116 1.349 . S
C3128 H3122 0.950 . S
C3128 C3129 1.327 . S
C3129 H3123 0.950 . S
C3129 C3128 1.327 . S
C3129 C3133 1.429 . S
C3130 C3113 1.574 . S
C3130 H3124 0.949 . S
C3130 C3134 1.368 . S
C3131 C3112 1.429 . S
C3131 C3125 1.429 . S
C3131 C3132 1.523 . S
C3132 C3113 1.368 . S
C3132 C3126 1.368 . S
C3132 C3131 1.523 . S
C3133 C3117 1.429 . S
C3133 C3129 1.429 . S
C3133 C3134 1.523 . S
C3134 C3118 1.368 . S
C3134 C3130 1.368 . S
C3134 C3133 1.523 . S
H3135 C3110 0.950 . S
H3136 C3112 0.950 . S
H3137 C3113 0.949 . S
H3138 C3115 0.950 . S
H3139 C3117 0.950 . S
C3140 C3141 1.349 . S
C3140 C3142 1.327 . S
C3140 H3165 0.950 . S
C3141 C3140 1.349 . S
C3141 C3157 1.349 . S
C3142 C3140 1.327 . S
C3142 C3161 1.429 . S
C3142 H3166 0.950 . S
C3143 C3160 1.574 . S
C3143 C3162 1.368 . S
C3143 H3167 0.949 . S
H3144 C3148 0.949 . S
C3145 C3146 1.349 . S
C3145 C3147 1.327 . S
C3145 H3168 0.950 . S
C3146 C3145 1.349 . S
C3146 C3158 1.349 . S
C3147 C3145 1.327 . S
C3147 C3163 1.429 . S
C3147 H3169 0.950 . S
C3148 H3144 0.949 . S
C3148 C3156 1.574 . S
C3148 C3164 1.368 . S
H3149 C3157 0.950 . S
H3150 C3155 0.950 . S
H3151 C3156 0.949 . S
H3152 C3158 0.950 . S
H3153 C3159 0.950 . S
H3154 C3160 0.949 . S
C3155 H3150 0.950 . S
C3155 C3157 1.327 . S
C3155 C3161 1.429 . S
C3156 C3148 1.574 . S
C3156 H3151 0.949 . S
C3156 C3162 1.368 . S
C3157 C3141 1.349 . S
C3157 H3149 0.950 . S
C3157 C3155 1.327 . S
C3158 C3146 1.349 . S
C3158 H3152 0.950 . S
C3158 C3159 1.327 . S
C3159 H3153 0.950 . S
C3159 C3158 1.327 . S
C3159 C3163 1.429 . S
C3160 C3143 1.574 . S
C3160 H3154 0.949 . S
C3160 C3164 1.368 . S
C3161 C3142 1.429 . S
C3161 C3155 1.429 . S
C3161 C3162 1.523 . S
C3162 C3143 1.368 . S
C3162 C3156 1.368 . S
C3162 C3161 1.523 . S
C3163 C3147 1.429 . S
C3163 C3159 1.429 . S
C3163 C3164 1.523 . S
C3164 C3148 1.368 . S
C3164 C3160 1.368 . S
C3164 C3163 1.523 . S
H3165 C3140 0.950 . S
H3166 C3142 0.950 . S
H3167 C3143 0.949 . S
H3168 C3145 0.950 . S
H3169 C3147 0.950 . S
C3170 C3171 1.349 1_545 S
C3170 C3172 1.327 . S
C3170 H3195 0.950 . S
C3171 C3170 1.349 1_565 S
C3171 C3187 1.349 . S
C3172 C3170 1.327 . S
C3172 C3191 1.429 1_545 S
C3172 H3196 0.950 . S
C3173 C3190 1.574 . S
C3173 C3192 1.368 1_565 S
C3173 H3197 0.949 . S
H3174 C3178 0.949 . S
C3175 C3176 1.349 1_565 S
C3175 C3177 1.327 . S
C3175 H3198 0.950 . S
C3176 C3175 1.349 1_545 S
C3176 C3188 1.349 . S
C3177 C3175 1.327 . S
C3177 C3193 1.429 1_565 S
C3177 H3199 0.950 . S
C3178 H3174 0.949 . S
C3178 C3186 1.574 . S
C3178 C3194 1.368 . S
H3179 C3187 0.950 . S
H3180 C3185 0.950 . S
H3181 C3186 0.949 . S
H3182 C3188 0.950 . S
H3183 C3189 0.950 . S
H3184 C3190 0.949 . S
C3185 H3180 0.950 . S
C3185 C3187 1.327 . S
C3185 C3191 1.429 . S
C3186 C3178 1.574 . S
C3186 H3181 0.949 . S
C3186 C3192 1.368 . S
C3187 C3171 1.349 . S
C3187 H3179 0.950 . S
C3187 C3185 1.327 . S
C3188 C3176 1.349 . S
C3188 H3182 0.950 . S
C3188 C3189 1.327 . S
C3189 H3183 0.950 . S
C3189 C3188 1.327 . S
C3189 C3193 1.429 . S
C3190 C3173 1.574 . S
C3190 H3184 0.949 . S
C3190 C3194 1.368 1_565 S
C3191 C3172 1.429 1_565 S
C3191 C3185 1.429 . S
C3191 C3192 1.523 1_565 S
C3192 C3173 1.368 1_545 S
C3192 C3186 1.368 . S
C3192 C3191 1.523 1_545 S
C3193 C3177 1.429 1_545 S
C3193 C3189 1.429 . S
C3193 C3194 1.523 . S
C3194 C3178 1.368 . S
C3194 C3190 1.368 1_545 S
C3194 C3193 1.523 . S
H3195 C3170 0.950 . S
H3196 C3172 0.950 . S
H3197 C3173 0.949 . S
H3198 C3175 0.950 . S
H3199 C3177 0.950 . S
C3200 C3201 1.349 . S
C3200 C3202 1.327 . S
C3200 H3225 0.950 . S
C3201 C3200 1.349 . S
C3201 C3217 1.349 . S
C3202 C3200 1.327 . S
C3202 C3221 1.429 . S
C3202 H3226 0.950 . S
C3203 C3220 1.574 . S
C3203 C3222 1.368 . S
C3203 H3227 0.949 . S
H3204 C3208 0.930 1_655 S
C3205 C3206 1.349 . S
C3205 C3207 1.327 . S
C3205 H3228 0.950 . S
C3206 C3205 1.349 . S
C3206 C3218 1.349 . S
C3207 C3205 1.327 . S
C3207 C3223 1.429 . S
C3207 H3229 0.950 . S
C3208 H3204 0.930 1_455 S
C3208 C3216 1.601 . S
C3208 C3224 1.362 1_455 S
H3209 C3217 0.950 . S
H3210 C3215 0.950 . S
H3211 C3216 0.949 . S
H3212 C3218 0.950 . S
H3213 C3219 0.950 . S
H3214 C3220 0.949 . S
C3215 H3210 0.950 . S
C3215 C3217 1.327 . S
C3215 C3221 1.429 . S
C3216 C3208 1.601 . S
C3216 H3211 0.949 . S
C3216 C3222 1.368 . S
C3217 C3201 1.349 . S
C3217 H3209 0.950 . S
C3217 C3215 1.327 . S
C3218 C3206 1.349 . S
C3218 H3212 0.950 . S
C3218 C3219 1.327 . S
C3219 H3213 0.950 . S
C3219 C3218 1.327 . S
C3219 C3223 1.429 . S
C3220 C3203 1.574 . S
C3220 H3214 0.949 . S
C3220 C3224 1.368 1_455 S
C3221 C3202 1.429 . S
C3221 C3215 1.429 . S
C3221 C3222 1.523 . S
C3222 C3203 1.368 . S
C3222 C3216 1.368 . S
C3222 C3221 1.523 . S
C3223 C3207 1.429 . S
C3223 C3219 1.429 . S
C3223 C3224 1.523 . S
C3224 C3208 1.362 1_655 S
C3224 C3220 1.368 1_655 S
C3224 C3223 1.523 . S
H3225 C3200 0.950 . S
H3226 C3202 0.950 . S
H3227 C3203 0.949 . S
H3228 C3205 0.950 . S
H3229 C3207 0.950 . S
C3230 C3231 1.349 . S
C3230 C3232 1.327 . S
C3230 H3255 0.950 . S
C3231 C3230 1.349 . S
C3231 C3247 1.349 . S
C3232 C3230 1.327 . S
C3232 C3251 1.429 . S
C3232 H3256 0.950 . S
C3233 C3250 1.574 . S
C3233 C3252 1.368 . S
C3233 H3257 0.949 . S
H3234 C3238 0.949 . S
C3235 C3236 1.349 . S
C3235 C3237 1.327 . S
C3235 H3258 0.950 . S
C3236 C3235 1.349 . S
C3236 C3248 1.349 . S
C3237 C3235 1.327 . S
C3237 C3253 1.429 . S
C3237 H3259 0.950 . S
C3238 H3234 0.949 . S
C3238 C3246 1.574 . S
C3238 C3254 1.368 . S
H3239 C3247 0.950 . S
H3240 C3245 0.950 . S
H3241 C3246 0.949 . S
H3242 C3248 0.950 . S
H3243 C3249 0.950 . S
H3244 C3250 0.949 . S
C3245 H3240 0.950 . S
C3245 C3247 1.327 . S
C3245 C3251 1.429 . S
C3246 C3238 1.574 . S
C3246 H3241 0.949 . S
C3246 C3252 1.368 . S
C3247 C3231 1.349 . S
C3247 H3239 0.950 . S
C3247 C3245 1.327 . S
C3248 C3236 1.349 . S
C3248 H3242 0.950 . S
C3248 C3249 1.327 . S
C3249 H3243 0.950 . S
C3249 C3248 1.327 . S
C3249 C3253 1.429 . S
C3250 C3233 1.574 . S
C3250 H3244 0.949 . S
C3250 C3254 1.368 . S
C3251 C3232 1.429 . S
C3251 C3245 1.429 . S
C3251 C3252 1.523 . S
C3252 C3233 1.368 . S
C3252 C3246 1.368 . S
C3252 C3251 1.523 . S
C3253 C3237 1.429 . S
C3253 C3249 1.429 . S
C3253 C3254 1.523 . S
C3254 C3238 1.368 . S
C3254 C3250 1.368 . S
C3254 C3253 1.523 . S
H3255 C3230 0.950 . S
H3256 C3232 0.950 . S
H3257 C3233 0.949 . S
H3258 C3235 0.950 . S
H3259 C3237 0.950 . S
C3260 C3261 1.349 . S
C3260 C3262 1.327 . S
C3260 H3285 0.950 . S
C3261 C3260 1.349 . S
C3261 C3277 1.349 . S
C3262 C3260 1.327 . S
C3262 C3281 1.429 . S
C3262 H3286 0.950 . S
C3263 C3280 1.574 . S
C3263 C3282 1.368 1_455 S
C3263 H3287 0.949 . S
H3264 C3268 0.949 . S
C3265 C3266 1.349 . S
C3265 C3267 1.327 . S
C3265 H3288 0.950 . S
C3266 C3265 1.349 . S
C3266 C3278 1.349 . S
C3267 C3265 1.327 . S
C3267 C3283 1.429 . S
C3267 H3289 0.950 . S
C3268 H3264 0.949 . S
C3268 C3276 1.601 . S
C3268 C3284 1.368 . S
H3269 C3277 0.950 . S
H3270 C3275 0.950 . S
H3271 C3276 0.930 1_655 S
H3272 C3278 0.950 . S
H3273 C3279 0.950 . S
H3274 C3280 0.949 . S
C3275 H3270 0.950 . S
C3275 C3277 1.327 . S
C3275 C3281 1.429 . S
C3276 C3268 1.601 . S
C3276 H3271 0.930 1_455 S
C3276 C3282 1.362 1_455 S
C3277 C3261 1.349 . S
C3277 H3269 0.950 . S
C3277 C3275 1.327 . S
C3278 C3266 1.349 . S
C3278 H3272 0.950 . S
C3278 C3279 1.327 . S
C3279 H3273 0.950 . S
C3279 C3278 1.327 . S
C3279 C3283 1.429 . S
C3280 C3263 1.574 . S
C3280 H3274 0.949 . S
C3280 C3284 1.368 . S
C3281 C3262 1.429 . S
C3281 C3275 1.429 . S
C3281 C3282 1.523 . S
C3282 C3263 1.368 1_655 S
C3282 C3276 1.362 1_655 S
C3282 C3281 1.523 . S
C3283 C3267 1.429 . S
C3283 C3279 1.429 . S
C3283 C3284 1.523 . S
C3284 C3268 1.368 . S
C3284 C3280 1.368 . S
C3284 C3283 1.523 . S
H3285 C3260 0.950 . S
H3286 C3262 0.950 . S
H3287 C3263 0.949 . S
H3288 C3265 0.950 . S
H3289 C3267 0.950 . S
C3290 C3291 1.349 . S
C3290 C3292 1.327 . S
C3290 H3315 0.950 . S
C3291 C3290 1.349 . S
C3291 C3307 1.349 . S
C3292 C3290 1.327 . S
C3292 C3311 1.429 . S
C3292 H3316 0.950 . S
C3293 C3310 1.574 . S
C3293 C3312 1.368 . S
C3293 H3317 0.949 . S
H3294 C3298 0.949 . S
C3295 C3296 1.349 . S
C3295 C3297 1.327 . S
C3295 H3318 0.950 . S
C3296 C3295 1.349 . S
C3296 C3308 1.349 . S
C3297 C3295 1.327 . S
C3297 C3313 1.429 . S
C3297 H3319 0.950 . S
C3298 H3294 0.949 . S
C3298 C3306 1.574 . S
C3298 C3314 1.368 . S
H3299 C3307 0.950 . S
H3300 C3305 0.950 . S
H3301 C3306 0.949 . S
H3302 C3308 0.950 . S
H3303 C3309 0.950 . S
H3304 C3310 0.949 . S
C3305 H3300 0.950 . S
C3305 C3307 1.327 . S
C3305 C3311 1.429 . S
C3306 C3298 1.574 . S
C3306 H3301 0.949 . S
C3306 C3312 1.368 . S
C3307 C3291 1.349 . S
C3307 H3299 0.950 . S
C3307 C3305 1.327 . S
C3308 C3296 1.349 . S
C3308 H3302 0.950 . S
C3308 C3309 1.327 . S
C3309 H3303 0.950 . S
C3309 C3308 1.327 . S
C3309 C3313 1.429 . S
C3310 C3293 1.574 . S
C3310 H3304 0.949 . S
C3310 C3314 1.368 . S
C3311 C3292 1.429 . S
C3311 C3305 1.429 . S
C3311 C3312 1.523 . S
C3312 C3293 1.368 . S
C3312 C3306 1.368 . S
C3312 C3311 1.523 . S
C3313 C3297 1.429 . S
C3313 C3309 1.429 . S
C3313 C3314 1.523 . S
C3314 C3298 1.368 . S
C3314 C3310 1.368 . S
C3314 C3313 1.523 . S
H3315 C3290 0.950 . S
H3316 C3292 0.950 . S
H3317 C3293 0.949 . S
H3318 C3295 0.950 . S
H3319 C3297 0.950 . S
C3320 C3321 1.349 . S
C3320 C3322 1.327 . S
C3320 H3345 0.950 . S
C3321 C3320 1.349 . S
C3321 C3337 1.349 . S
C3322 C3320 1.327 . S
C3322 C3341 1.429 . S
C3322 H3346 0.950 . S
C3323 C3340 1.574 . S
C3323 C3342 1.368 . S
C3323 H3347 0.949 . S
H3324 C3328 0.930 1_455 S
C3325 C3326 1.349 . S
C3325 C3327 1.327 . S
C3325 H3348 0.950 . S
C3326 C3325 1.349 . S
C3326 C3338 1.349 . S
C3327 C3325 1.327 . S
C3327 C3343 1.429 . S
C3327 H3349 0.950 . S
C3328 H3324 0.930 1_655 S
C3328 C3336 1.601 . S
C3328 C3344 1.362 1_655 S
H3329 C3337 0.950 . S
H3330 C3335 0.950 . S
H3331 C3336 0.949 . S
H3332 C3338 0.950 . S
H3333 C3339 0.950 . S
H3334 C3340 0.949 . S
C3335 H3330 0.950 . S
C3335 C3337 1.327 . S
C3335 C3341 1.429 . S
C3336 C3328 1.601 . S
C3336 H3331 0.949 . S
C3336 C3342 1.368 . S
C3337 C3321 1.349 . S
C3337 H3329 0.950 . S
C3337 C3335 1.327 . S
C3338 C3326 1.349 . S
C3338 H3332 0.950 . S
C3338 C3339 1.327 . S
C3339 H3333 0.950 . S
C3339 C3338 1.327 . S
C3339 C3343 1.429 . S
C3340 C3323 1.574 . S
C3340 H3334 0.949 . S
C3340 C3344 1.368 1_655 S
C3341 C3322 1.429 . S
C3341 C3335 1.429 . S
C3341 C3342 1.523 . S
C3342 C3323 1.368 . S
C3342 C3336 1.368 . S
C3342 C3341 1.523 . S
C3343 C3327 1.429 . S
C3343 C3339 1.429 . S
C3343 C3344 1.523 . S
C3344 C3328 1.362 1_455 S
C3344 C3340 1.368 1_455 S
C3344 C3343 1.523 . S
H3345 C3320 0.950 . S
H3346 C3322 0.950 . S
H3347 C3323 0.949 . S
H3348 C3325 0.950 . S
H3349 C3327 0.950 . S
C3350 C3351 1.349 . S
C3350 C3352 1.327 . S
C3350 H3375 0.950 . S
C3351 C3350 1.349 . S
C3351 C3367 1.349 . S
C3352 C3350 1.327 . S
C3352 C3371 1.429 . S
C3352 H3376 0.950 . S
C3353 C3370 1.574 . S
C3353 C3372 1.368 . S
C3353 H3377 0.949 . S
H3354 C3358 0.949 . S
C3355 C3356 1.349 . S
C3355 C3357 1.327 . S
C3355 H3378 0.950 . S
C3356 C3355 1.349 . S
C3356 C3368 1.349 . S
C3357 C3355 1.327 . S
C3357 C3373 1.429 . S
C3357 H3379 0.950 . S
C3358 H3354 0.949 . S
C3358 C3366 1.574 . S
C3358 C3374 1.368 . S
H3359 C3367 0.950 . S
H3360 C3365 0.950 . S
H3361 C3366 0.949 . S
H3362 C3368 0.950 . S
H3363 C3369 0.950 . S
H3364 C3370 0.949 . S
C3365 H3360 0.950 . S
C3365 C3367 1.327 . S
C3365 C3371 1.429 . S
C3366 C3358 1.574 . S
C3366 H3361 0.949 . S
C3366 C3372 1.368 . S
C3367 C3351 1.349 . S
C3367 H3359 0.950 . S
C3367 C3365 1.327 . S
C3368 C3356 1.349 . S
C3368 H3362 0.950 . S
C3368 C3369 1.327 . S
C3369 H3363 0.950 . S
C3369 C3368 1.327 . S
C3369 C3373 1.429 . S
C3370 C3353 1.574 . S
C3370 H3364 0.949 . S
C3370 C3374 1.368 . S
C3371 C3352 1.429 . S
C3371 C3365 1.429 . S
C3371 C3372 1.523 . S
C3372 C3353 1.368 . S
C3372 C3366 1.368 . S
C3372 C3371 1.523 . S
C3373 C3357 1.429 . S
C3373 C3369 1.429 . S
C3373 C3374 1.523 . S
C3374 C3358 1.368 . S
C3374 C3370 1.368 . S
C3374 C3373 1.523 . S
H3375 C3350 0.950 . S
H3376 C3352 0.950 . S
H3377 C3353 0.949 . S
H3378 C3355 0.950 . S
H3379 C3357 0.950 . S
C3380 C3381 1.349 . S
C3380 C3382 1.327 . S
C3380 H3405 0.950 . S
C3381 C3380 1.349 . S
C3381 C3397 1.349 . S
C3382 C3380 1.327 . S
C3382 C3401 1.429 . S
C3382 H3406 0.950 . S
C3383 C3400 1.574 . S
C3383 C3402 1.368 1_655 S
C3383 H3407 0.949 1_655 S
H3384 C3388 0.949 . S
C3385 C3386 1.349 . S
C3385 C3387 1.327 . S
C3385 H3408 0.950 . S
C3386 C3385 1.349 . S
C3386 C3398 1.349 . S
C3387 C3385 1.327 . S
C3387 C3403 1.429 . S
C3387 H3409 0.950 . S
C3388 H3384 0.949 . S
C3388 C3396 1.574 . S
C3388 C3404 1.368 . S
H3389 C3397 0.950 . S
H3390 C3395 0.950 . S
H3391 C3396 0.949 1_455 S
H3392 C3398 0.950 . S
H3393 C3399 0.950 . S
H3394 C3400 0.949 . S
C3395 H3390 0.950 . S
C3395 C3397 1.327 . S
C3395 C3401 1.429 . S
C3396 C3388 1.574 . S
C3396 H3391 0.949 1_655 S
C3396 C3402 1.368 1_655 S
C3397 C3381 1.349 . S
C3397 H3389 0.950 . S
C3397 C3395 1.327 . S
C3398 C3386 1.349 . S
C3398 H3392 0.950 . S
C3398 C3399 1.327 . S
C3399 H3393 0.950 . S
C3399 C3398 1.327 . S
C3399 C3403 1.429 . S
C3400 C3383 1.574 . S
C3400 H3394 0.949 . S
C3400 C3404 1.368 . S
C3401 C3382 1.429 . S
C3401 C3395 1.429 . S
C3401 C3402 1.523 . S
C3402 C3383 1.368 1_455 S
C3402 C3396 1.368 1_455 S
C3402 C3401 1.523 . S
C3403 C3387 1.429 . S
C3403 C3399 1.429 . S
C3403 C3404 1.523 . S
C3404 C3388 1.368 . S
C3404 C3400 1.368 . S
C3404 C3403 1.523 . S
H3405 C3380 0.950 . S
H3406 C3382 0.950 . S
H3407 C3383 0.949 1_455 S
H3408 C3385 0.950 . S
H3409 C3387 0.950 . S
C3410 C3411 1.349 . S
C3410 C3412 1.327 . S
C3410 H3435 0.950 . S
C3411 C3410 1.349 . S
C3411 C3427 1.349 . S
C3412 C3410 1.327 . S
C3412 C3431 1.429 . S
C3412 H3436 0.950 . S
C3413 C3430 1.574 . S
C3413 C3432 1.368 . S
C3413 H3437 0.949 . S
H3414 C3418 0.949 . S
C3415 C3416 1.349 . S
C3415 C3417 1.327 . S
C3415 H3438 0.950 . S
C3416 C3415 1.349 . S
C3416 C3428 1.349 . S
C3417 C3415 1.327 . S
C3417 C3433 1.429 . S
C3417 H3439 0.950 . S
C3418 H3414 0.949 . S
C3418 C3426 1.574 . S
C3418 C3434 1.368 . S
H3419 C3427 0.950 . S
H3420 C3425 0.950 . S
H3421 C3426 0.949 . S
H3422 C3428 0.950 . S
H3423 C3429 0.950 . S
H3424 C3430 0.949 . S
C3425 H3420 0.950 . S
C3425 C3427 1.327 . S
C3425 C3431 1.429 . S
C3426 C3418 1.574 . S
C3426 H3421 0.949 . S
C3426 C3432 1.368 . S
C3427 C3411 1.349 . S
C3427 H3419 0.950 . S
C3427 C3425 1.327 . S
C3428 C3416 1.349 . S
C3428 H3422 0.950 . S
C3428 C3429 1.327 . S
C3429 H3423 0.950 . S
C3429 C3428 1.327 . S
C3429 C3433 1.429 . S
C3430 C3413 1.574 . S
C3430 H3424 0.949 . S
C3430 C3434 1.368 . S
C3431 C3412 1.429 . S
C3431 C3425 1.429 . S
C3431 C3432 1.523 . S
C3432 C3413 1.368 . S
C3432 C3426 1.368 . S
C3432 C3431 1.523 . S
C3433 C3417 1.429 . S
C3433 C3429 1.429 . S
C3433 C3434 1.523 . S
C3434 C3418 1.368 . S
C3434 C3430 1.368 . S
C3434 C3433 1.523 . S
H3435 C3410 0.950 . S
H3436 C3412 0.950 . S
H3437 C3413 0.949 . S
H3438 C3415 0.950 . S
H3439 C3417 0.950 . S
C3440 C3441 1.349 . S
C3440 C3442 1.327 . S
C3440 H3465 0.950 . S
C3441 C3440 1.349 . S
C3441 C3457 1.349 . S
C3442 C3440 1.327 . S
C3442 C3461 1.429 . S
C3442 H3466 0.950 . S
C3443 C3460 1.574 . S
C3443 C3462 1.368 1_455 S
C3443 H3467 0.949 1_455 S
H3444 C3448 0.956 . S
C3445 C3446 1.349 . S
C3445 C3447 1.327 . S
C3445 H3468 0.950 . S
C3446 C3445 1.349 . S
C3446 C3458 1.349 . S
C3447 C3445 1.327 . S
C3447 C3463 1.429 . S
C3447 H3469 0.950 . S
C3448 H3444 0.956 . S
C3448 C3456 1.574 1_565 S
C3448 C3464 1.368 . S
H3449 C3457 0.956 . S
H3450 C3455 0.959 . S
H3451 C3456 0.949 1_655 S
H3452 C3458 0.950 . S
H3453 C3459 0.950 . S
H3454 C3460 0.949 . S
C3455 H3450 0.959 . S
C3455 C3457 1.323 1_565 S
C3455 C3461 1.426 1_565 S
C3456 C3448 1.574 1_545 S
C3456 H3451 0.949 1_455 S
C3456 C3462 1.368 1_445 S
C3457 C3441 1.349 . S
C3457 H3449 0.956 . S
C3457 C3455 1.323 1_545 S
C3458 C3446 1.349 . S
C3458 H3452 0.950 . S
C3458 C3459 1.327 . S
C3459 H3453 0.950 . S
C3459 C3458 1.327 . S
C3459 C3463 1.429 . S
C3460 C3443 1.574 . S
C3460 H3454 0.949 . S
C3460 C3464 1.368 . S
C3461 C3442 1.429 . S
C3461 C3455 1.426 1_545 S
C3461 C3462 1.523 1_545 S
C3462 C3443 1.368 1_655 S
C3462 C3456 1.368 1_665 S
C3462 C3461 1.523 1_565 S
C3463 C3447 1.429 . S
C3463 C3459 1.429 . S
C3463 C3464 1.523 . S
C3464 C3448 1.368 . S
C3464 C3460 1.368 . S
C3464 C3463 1.523 . S
H3465 C3440 0.950 . S
H3466 C3442 0.950 . S
H3467 C3443 0.949 1_655 S
H3468 C3445 0.950 . S
H3469 C3447 0.950 . S
C3470 C3471 1.349 . S
C3470 C3472 1.327 . S
C3470 H3495 0.950 . S
C3471 C3470 1.349 . S
C3471 C3487 1.349 . S
C3472 C3470 1.327 . S
C3472 C3491 1.429 . S
C3472 H3496 0.950 . S
C3473 C3490 1.574 . S
C3473 C3492 1.368 . S
C3473 H3497 0.949 . S
H3474 C3478 0.949 . S
C3475 C3476 1.349 . S
C3475 C3477 1.327 . S
C3475 H3498 0.950 . S
C3476 C3475 1.349 . S
C3476 C3488 1.349 . S
C3477 C3475 1.327 . S
C3477 C3493 1.429 . S
C3477 H3499 0.950 . S
C3478 H3474 0.949 . S
C3478 C3486 1.574 . S
C3478 C3494 1.368 . S
H3479 C3487 0.950 . S
H3480 C3485 0.950 . S
H3481 C3486 0.949 . S
H3482 C3488 0.950 . S
H3483 C3489 0.950 . S
H3484 C3490 0.949 . S
C3485 H3480 0.950 . S
C3485 C3487 1.327 . S
C3485 C3491 1.429 . S
C3486 C3478 1.574 . S
C3486 H3481 0.949 . S
C3486 C3492 1.368 . S
C3487 C3471 1.349 . S
C3487 H3479 0.950 . S
C3487 C3485 1.327 . S
C3488 C3476 1.349 . S
C3488 H3482 0.950 . S
C3488 C3489 1.327 . S
C3489 H3483 0.950 . S
C3489 C3488 1.327 . S
C3489 C3493 1.429 . S
C3490 C3473 1.574 . S
C3490 H3484 0.949 . S
C3490 C3494 1.368 . S
C3491 C3472 1.429 . S
C3491 C3485 1.429 . S
C3491 C3492 1.523 . S
C3492 C3473 1.368 . S
C3492 C3486 1.368 . S
C3492 C3491 1.523 . S
C3493 C3477 1.429 . S
C3493 C3489 1.429 . S
C3493 C3494 1.523 . S
C3494 C3478 1.368 . S
C3494 C3490 1.368 . S
C3494 C3493 1.523 . S
H3495 C3470 0.950 . S
H3496 C3472 0.950 . S
H3497 C3473 0.949 . S
H3498 C3475 0.950 . S
H3499 C3477 0.950 . S
C3500 C3501 1.349 . S
C3500 C3502 1.327 . S
C3500 H3525 0.950 . S
C3501 C3500 1.349 . S
C3501 C3517 1.349 . S
C3502 C3500 1.327 . S
C3502 C3521 1.429 . S
C3502 H3526 0.950 . S
C3503 C3520 1.574 . S
C3503 C3522 1.368 1_455 S
C3503 H3527 0.949 1_455 S
H3504 C3508 0.949 . S
C3505 C3506 1.349 . S
C3505 C3507 1.327 . S
C3505 H3528 0.950 . S
C3506 C3505 1.349 . S
C3506 C3518 1.349 . S
C3507 C3505 1.327 . S
C3507 C3523 1.429 . S
C3507 H3529 0.950 . S
C3508 H3504 0.949 . S
C3508 C3516 1.574 . S
C3508 C3524 1.368 . S
H3509 C3517 0.950 . S
H3510 C3515 0.950 . S
H3511 C3516 0.949 1_655 S
H3512 C3518 0.950 . S
H3513 C3519 0.950 . S
H3514 C3520 0.949 . S
C3515 H3510 0.950 . S
C3515 C3517 1.327 . S
C3515 C3521 1.429 . S
C3516 C3508 1.574 . S
C3516 H3511 0.949 1_455 S
C3516 C3522 1.368 1_455 S
C3517 C3501 1.349 . S
C3517 H3509 0.950 . S
C3517 C3515 1.327 . S
C3518 C3506 1.349 . S
C3518 H3512 0.950 . S
C3518 C3519 1.327 . S
C3519 H3513 0.950 . S
C3519 C3518 1.327 . S
C3519 C3523 1.429 . S
C3520 C3503 1.574 . S
C3520 H3514 0.949 . S
C3520 C3524 1.368 . S
C3521 C3502 1.429 . S
C3521 C3515 1.429 . S
C3521 C3522 1.523 . S
C3522 C3503 1.368 1_655 S
C3522 C3516 1.368 1_655 S
C3522 C3521 1.523 . S
C3523 C3507 1.429 . S
C3523 C3519 1.429 . S
C3523 C3524 1.523 . S
C3524 C3508 1.368 . S
C3524 C3520 1.368 . S
C3524 C3523 1.523 . S
H3525 C3500 0.950 . S
H3526 C3502 0.950 . S
H3527 C3503 0.949 1_655 S
H3528 C3505 0.950 . S
H3529 C3507 0.950 . S
C3530 C3531 1.349 1_565 S
C3530 C3532 1.327 . S
C3530 H3555 0.950 . S
C3531 C3530 1.349 1_545 S
C3531 C3547 1.349 . S
C3532 C3530 1.327 . S
C3532 C3551 1.429 1_565 S
C3532 H3556 0.950 . S
C3533 C3550 1.574 . S
C3533 C3552 1.368 1_545 S
C3533 H3557 0.949 . S
H3534 C3538 0.949 . S
C3535 C3536 1.310 1_545 S
C3535 C3537 1.335 . S
C3535 H3558 0.982 . S
C3536 C3535 1.310 1_565 S
C3536 C3548 1.349 . S
C3537 C3535 1.335 . S
C3537 C3553 1.429 1_545 S
C3537 H3559 0.950 . S
C3538 H3534 0.949 . S
C3538 C3546 1.574 . S
C3538 C3554 1.368 . S
H3539 C3547 0.950 . S
H3540 C3545 0.950 . S
H3541 C3546 0.949 . S
H3542 C3548 0.950 . S
H3543 C3549 0.950 . S
H3544 C3550 0.949 . S
C3545 H3540 0.950 . S
C3545 C3547 1.327 . S
C3545 C3551 1.429 . S
C3546 C3538 1.574 . S
C3546 H3541 0.949 . S
C3546 C3552 1.368 . S
C3547 C3531 1.349 . S
C3547 H3539 0.950 . S
C3547 C3545 1.327 . S
C3548 C3536 1.349 . S
C3548 H3542 0.950 . S
C3548 C3549 1.327 . S
C3549 H3543 0.950 . S
C3549 C3548 1.327 . S
C3549 C3553 1.429 . S
C3550 C3533 1.574 . S
C3550 H3544 0.949 . S
C3550 C3554 1.368 1_545 S
C3551 C3532 1.429 1_545 S
C3551 C3545 1.429 . S
C3551 C3552 1.523 1_545 S
C3552 C3533 1.368 1_565 S
C3552 C3546 1.368 . S
C3552 C3551 1.523 1_565 S
C3553 C3537 1.429 1_565 S
C3553 C3549 1.429 . S
C3553 C3554 1.523 . S
C3554 C3538 1.368 . S
C3554 C3550 1.368 1_565 S
C3554 C3553 1.523 . S
H3555 C3530 0.950 . S
H3556 C3532 0.950 . S
H3557 C3533 0.949 . S
H3558 C3535 0.982 . S
H3559 C3537 0.950 . S
C3560 C3561 1.349 . S
C3560 C3562 1.327 1_545 S
C3560 H3585 0.950 1_545 S
C3561 C3560 1.349 . S
C3561 C3577 1.349 . S
C3562 C3560 1.327 1_565 S
C3562 C3581 1.429 1_565 S
C3562 H3586 0.950 . S
C3563 C3580 1.574 . S
C3563 C3582 1.368 . S
C3563 H3587 0.949 . S
H3564 C3568 0.949 1_455 S
C3565 C3566 1.349 1_545 S
C3565 C3567 1.327 . S
C3565 H3588 0.950 . S
C3566 C3565 1.349 1_565 S
C3566 C3578 1.349 . S
C3567 C3565 1.327 . S
C3567 C3583 1.429 1_545 S
C3567 H3589 0.950 . S
C3568 H3564 0.949 1_655 S
C3568 C3576 1.574 . S
C3568 C3584 1.368 1_665 S
H3569 C3577 0.950 . S
H3570 C3575 0.950 . S
H3571 C3576 0.949 . S
H3572 C3578 0.950 . S
H3573 C3579 0.950 . S
H3574 C3580 0.949 1_455 S
C3575 H3570 0.950 . S
C3575 C3577 1.327 . S
C3575 C3581 1.429 . S
C3576 C3568 1.574 . S
C3576 H3571 0.949 . S
C3576 C3582 1.368 1_565 S
C3577 C3561 1.349 . S
C3577 H3569 0.950 . S
C3577 C3575 1.327 . S
C3578 C3566 1.349 . S
C3578 H3572 0.950 . S
C3578 C3579 1.327 . S
C3579 H3573 0.950 . S
C3579 C3578 1.327 . S
C3579 C3583 1.429 . S
C3580 C3563 1.574 . S
C3580 H3574 0.949 1_655 S
C3580 C3584 1.368 1_655 S
C3581 C3562 1.429 1_545 S
C3581 C3575 1.429 . S
C3581 C3582 1.523 . S
C3582 C3563 1.368 . S
C3582 C3576 1.368 1_545 S
C3582 C3581 1.523 . S
C3583 C3567 1.429 1_565 S
C3583 C3579 1.429 . S
C3583 C3584 1.523 1_565 S
C3584 C3568 1.368 1_445 S
C3584 C3580 1.368 1_455 S
C3584 C3583 1.523 1_545 S
H3585 C3560 0.950 1_565 S
H3586 C3562 0.950 . S
H3587 C3563 0.949 . S
H3588 C3565 0.950 . S
H3589 C3567 0.950 . S
C3590 C3591 1.349 . S
C3590 C3592 1.327 . S
C3590 H3615 0.950 . S
C3591 C3590 1.349 . S
C3591 C3607 1.349 . S
C3592 C3590 1.327 . S
C3592 C3611 1.429 . S
C3592 H3616 0.950 . S
C3593 C3610 1.574 . S
C3593 C3612 1.368 . S
C3593 H3617 0.949 . S
H3594 C3598 0.949 . S
C3595 C3596 1.349 . S
C3595 C3597 1.327 . S
C3595 H3618 0.950 . S
C3596 C3595 1.349 . S
C3596 C3608 1.349 . S
C3597 C3595 1.327 . S
C3597 C3613 1.429 . S
C3597 H3619 0.950 . S
C3598 H3594 0.949 . S
C3598 C3606 1.574 . S
C3598 C3614 1.368 . S
H3599 C3607 0.950 . S
H3600 C3605 0.950 . S
H3601 C3606 0.949 . S
H3602 C3608 0.950 . S
H3603 C3609 0.950 . S
H3604 C3610 0.949 . S
C3605 H3600 0.950 . S
C3605 C3607 1.327 . S
C3605 C3611 1.429 . S
C3606 C3598 1.574 . S
C3606 H3601 0.949 . S
C3606 C3612 1.368 . S
C3607 C3591 1.349 . S
C3607 H3599 0.950 . S
C3607 C3605 1.327 . S
C3608 C3596 1.349 . S
C3608 H3602 0.950 . S
C3608 C3609 1.327 . S
C3609 H3603 0.950 . S
C3609 C3608 1.327 . S
C3609 C3613 1.429 . S
C3610 C3593 1.574 . S
C3610 H3604 0.949 . S
C3610 C3614 1.368 . S
C3611 C3592 1.429 . S
C3611 C3605 1.429 . S
C3611 C3612 1.523 . S
C3612 C3593 1.368 . S
C3612 C3606 1.368 . S
C3612 C3611 1.523 . S
C3613 C3597 1.429 . S
C3613 C3609 1.429 . S
C3613 C3614 1.523 . S
C3614 C3598 1.368 . S
C3614 C3610 1.368 . S
C3614 C3613 1.523 . S
H3615 C3590 0.950 . S
H3616 C3592 0.950 . S
H3617 C3593 0.949 . S
H3618 C3595 0.950 . S
H3619 C3597 0.950 . S
C3620 C3621 1.349 . S
C3620 C3622 1.327 . S
C3620 H3645 0.950 . S
C3621 C3620 1.349 . S
C3621 C3637 1.349 . S
C3622 C3620 1.327 . S
C3622 C3641 1.429 . S
C3622 H3646 0.950 . S
C3623 C3640 1.574 . S
C3623 C3642 1.368 1_655 S
C3623 H3647 0.949 1_655 S
H3624 C3628 0.949 . S
C3625 C3626 1.349 . S
C3625 C3627 1.327 . S
C3625 H3648 0.950 . S
C3626 C3625 1.349 . S
C3626 C3638 1.349 . S
C3627 C3625 1.327 . S
C3627 C3643 1.429 . S
C3627 H3649 0.950 . S
C3628 H3624 0.949 . S
C3628 C3636 1.574 . S
C3628 C3644 1.368 . S
H3629 C3637 0.950 . S
H3630 C3635 0.950 . S
H3631 C3636 0.949 1_455 S
H3632 C3638 0.950 . S
H3633 C3639 0.950 . S
H3634 C3640 0.949 . S
C3635 H3630 0.950 . S
C3635 C3637 1.327 . S
C3635 C3641 1.429 . S
C3636 C3628 1.574 . S
C3636 H3631 0.949 1_655 S
C3636 C3642 1.368 1_655 S
C3637 C3621 1.349 . S
C3637 H3629 0.950 . S
C3637 C3635 1.327 . S
C3638 C3626 1.349 . S
C3638 H3632 0.950 . S
C3638 C3639 1.327 . S
C3639 H3633 0.950 . S
C3639 C3638 1.327 . S
C3639 C3643 1.429 . S
C3640 C3623 1.574 . S
C3640 H3634 0.949 . S
C3640 C3644 1.368 . S
C3641 C3622 1.429 . S
C3641 C3635 1.429 . S
C3641 C3642 1.523 . S
C3642 C3623 1.368 1_455 S
C3642 C3636 1.368 1_455 S
C3642 C3641 1.523 . S
C3643 C3627 1.429 . S
C3643 C3639 1.429 . S
C3643 C3644 1.523 . S
C3644 C3628 1.368 . S
C3644 C3640 1.368 . S
C3644 C3643 1.523 . S
H3645 C3620 0.950 . S
H3646 C3622 0.950 . S
H3647 C3623 0.949 1_455 S
H3648 C3625 0.950 . S
H3649 C3627 0.950 . S
C3650 C3651 1.349 1_545 S
C3650 C3652 1.327 . S
C3650 H3675 0.950 . S
C3651 C3650 1.349 1_565 S
C3651 C3667 1.349 . S
C3652 C3650 1.327 . S
C3652 C3671 1.429 1_545 S
C3652 H3676 0.950 . S
C3653 C3670 1.574 . S
C3653 C3672 1.368 1_565 S
C3653 H3677 0.949 . S
H3654 C3658 0.949 . S
C3655 C3656 1.349 . S
C3655 C3657 1.327 1_545 S
C3655 H3678 0.950 1_545 S
C3656 C3655 1.349 . S
C3656 C3668 1.349 . S
C3657 C3655 1.327 1_565 S
C3657 C3673 1.429 1_565 S
C3657 H3679 0.950 . S
C3658 H3654 0.949 . S
C3658 C3666 1.574 . S
C3658 C3674 1.368 . S
H3659 C3667 0.950 . S
H3660 C3665 0.950 . S
H3661 C3666 0.949 . S
H3662 C3668 0.950 . S
H3663 C3669 0.950 . S
H3664 C3670 0.949 . S
C3665 H3660 0.950 . S
C3665 C3667 1.327 . S
C3665 C3671 1.429 . S
C3666 C3658 1.574 . S
C3666 H3661 0.949 . S
C3666 C3672 1.368 . S
C3667 C3651 1.349 . S
C3667 H3659 0.950 . S
C3667 C3665 1.327 . S
C3668 C3656 1.349 . S
C3668 H3662 0.950 . S
C3668 C3669 1.327 . S
C3669 H3663 0.950 . S
C3669 C3668 1.327 . S
C3669 C3673 1.429 . S
C3670 C3653 1.574 . S
C3670 H3664 0.949 . S
C3670 C3674 1.368 1_565 S
C3671 C3652 1.429 1_565 S
C3671 C3665 1.429 . S
C3671 C3672 1.523 1_565 S
C3672 C3653 1.368 1_545 S
C3672 C3666 1.368 . S
C3672 C3671 1.523 1_545 S
C3673 C3657 1.429 1_545 S
C3673 C3669 1.429 . S
C3673 C3674 1.523 . S
C3674 C3658 1.368 . S
C3674 C3670 1.368 1_545 S
C3674 C3673 1.523 . S
H3675 C3650 0.950 . S
H3676 C3652 0.950 . S
H3677 C3653 0.949 . S
H3678 C3655 0.950 1_565 S
H3679 C3657 0.950 . S
C3680 C3681 1.349 . S
C3680 C3682 1.327 . S
C3680 H3705 0.950 . S
C3681 C3680 1.349 . S
C3681 C3697 1.349 1_455 S
C3682 C3680 1.327 . S
C3682 C3701 1.429 . S
C3682 H3706 0.950 . S
C3683 C3700 1.574 1_554 S
C3683 C3702 1.368 1_655 S
C3683 H3707 0.949 . S
H3684 C3688 0.949 . S
C3685 C3686 1.349 . S
C3685 C3687 1.327 . S
C3685 H3708 0.950 . S
C3686 C3685 1.349 . S
C3686 C3698 1.349 1_655 S
C3687 C3685 1.327 . S
C3687 C3703 1.429 . S
C3687 H3709 0.950 . S
C3688 H3684 0.949 . S
C3688 C3696 1.574 1_556 S
C3688 C3704 1.368 1_455 S
H3689 C3697 0.950 . S
H3690 C3695 0.950 . S
H3691 C3696 0.949 . S
H3692 C3698 0.950 . S
H3693 C3699 0.950 . S
H3694 C3700 0.949 . S
C3695 H3690 0.950 . S
C3695 C3697 1.327 . S
C3695 C3701 1.429 1_655 S
C3696 C3688 1.574 1_554 S
C3696 H3691 0.949 . S
C3696 C3702 1.368 . S
C3697 C3681 1.349 1_655 S
C3697 H3689 0.950 . S
C3697 C3695 1.327 . S
C3698 C3686 1.349 1_455 S
C3698 H3692 0.950 . S
C3698 C3699 1.327 . S
C3699 H3693 0.950 . S
C3699 C3698 1.327 . S
C3699 C3703 1.429 1_455 S
C3700 C3683 1.574 1_556 S
C3700 H3694 0.949 . S
C3700 C3704 1.368 . S
C3701 C3682 1.429 . S
C3701 C3695 1.429 1_455 S
C3701 C3702 1.523 . S
C3702 C3683 1.368 1_455 S
C3702 C3696 1.368 . S
C3702 C3701 1.523 . S
C3703 C3687 1.429 . S
C3703 C3699 1.429 1_655 S
C3703 C3704 1.523 . S
C3704 C3688 1.368 1_655 S
C3704 C3700 1.368 . S
C3704 C3703 1.523 . S
H3705 C3680 0.950 . S
H3706 C3682 0.950 . S
H3707 C3683 0.949 . S
H3708 C3685 0.950 . S
H3709 C3687 0.950 . S
C3710 C3711 1.349 . S
C3710 C3712 1.327 . S
C3710 H3735 0.950 . S
C3711 C3710 1.349 . S
C3711 C3727 1.349 . S
C3712 C3710 1.327 . S
C3712 C3731 1.429 . S
C3712 H3736 0.950 . S
C3713 C3730 1.574 1_556 S
C3713 C3732 1.368 . S
C3713 H3737 0.949 . S
H3714 C3718 0.949 . S
C3715 C3716 1.349 . S
C3715 C3717 1.327 . S
C3715 H3738 0.950 . S
C3716 C3715 1.349 . S
C3716 C3728 1.349 . S
C3717 C3715 1.327 . S
C3717 C3733 1.429 . S
C3717 H3739 0.950 . S
C3718 H3714 0.949 . S
C3718 C3726 1.574 1_554 S
C3718 C3734 1.368 . S
H3719 C3727 0.950 . S
H3720 C3725 0.950 . S
H3721 C3726 0.949 . S
H3722 C3728 0.950 . S
H3723 C3729 0.950 . S
H3724 C3730 0.949 . S
C3725 H3720 0.950 . S
C3725 C3727 1.327 . S
C3725 C3731 1.429 . S
C3726 C3718 1.574 1_556 S
C3726 H3721 0.949 . S
C3726 C3732 1.368 . S
C3727 C3711 1.349 . S
C3727 H3719 0.950 . S
C3727 C3725 1.327 . S
C3728 C3716 1.349 . S
C3728 H3722 0.950 . S
C3728 C3729 1.327 . S
C3729 H3723 0.950 . S
C3729 C3728 1.327 . S
C3729 C3733 1.429 . S
C3730 C3713 1.574 1_554 S
C3730 H3724 0.949 . S
C3730 C3734 1.368 . S
C3731 C3712 1.429 . S
C3731 C3725 1.429 . S
C3731 C3732 1.523 . S
C3732 C3713 1.368 . S
C3732 C3726 1.368 . S
C3732 C3731 1.523 . S
C3733 C3717 1.429 . S
C3733 C3729 1.429 . S
C3733 C3734 1.523 . S
C3734 C3718 1.368 . S
C3734 C3730 1.368 . S
C3734 C3733 1.523 . S
H3735 C3710 0.950 . S
H3736 C3712 0.950 . S
H3737 C3713 0.949 . S
H3738 C3715 0.950 . S
H3739 C3717 0.950 . S
C3740 C3741 1.349 1_455 S
C3740 C3742 1.327 . S
C3740 H3765 0.950 . S
C3741 C3740 1.349 1_655 S
C3741 C3757 1.349 . S
C3742 C3740 1.327 . S
C3742 C3761 1.429 1_455 S
C3742 H3766 0.950 . S
C3743 C3760 1.574 . S
C3743 C3762 1.368 . S
C3743 H3767 0.949 . S
H3744 C3748 0.949 . S
C3745 C3746 1.349 1_655 S
C3745 C3747 1.327 . S
C3745 H3768 0.950 . S
C3746 C3745 1.349 1_455 S
C3746 C3758 1.349 . S
C3747 C3745 1.327 . S
C3747 C3763 1.429 1_655 S
C3747 H3769 0.950 . S
C3748 H3744 0.949 . S
C3748 C3756 1.574 . S
C3748 C3764 1.368 . S
H3749 C3757 0.950 . S
H3750 C3755 0.950 . S
H3751 C3756 0.949 . S
H3752 C3758 0.950 . S
H3753 C3759 0.950 . S
H3754 C3760 0.949 . S
C3755 H3750 0.950 . S
C3755 C3757 1.327 . S
C3755 C3761 1.429 . S
C3756 C3748 1.574 . S
C3756 H3751 0.949 . S
C3756 C3762 1.368 1_455 S
C3757 C3741 1.349 . S
C3757 H3749 0.950 . S
C3757 C3755 1.327 . S
C3758 C3746 1.349 . S
C3758 H3752 0.950 . S
C3758 C3759 1.327 . S
C3759 H3753 0.950 . S
C3759 C3758 1.327 . S
C3759 C3763 1.429 . S
C3760 C3743 1.574 . S
C3760 H3754 0.949 . S
C3760 C3764 1.368 1_655 S
C3761 C3742 1.429 1_655 S
C3761 C3755 1.429 . S
C3761 C3762 1.523 . S
C3762 C3743 1.368 . S
C3762 C3756 1.368 1_655 S
C3762 C3761 1.523 . S
C3763 C3747 1.429 1_455 S
C3763 C3759 1.429 . S
C3763 C3764 1.523 . S
C3764 C3748 1.368 . S
C3764 C3760 1.368 1_455 S
C3764 C3763 1.523 . S
H3765 C3740 0.950 . S
H3766 C3742 0.950 . S
H3767 C3743 0.949 . S
H3768 C3745 0.950 . S
H3769 C3747 0.950 . S
C3770 C3771 1.349 . S
C3770 C3772 1.327 . S
C3770 H3795 0.950 . S
C3771 C3770 1.349 . S
C3771 C3787 1.349 . S
C3772 C3770 1.327 . S
C3772 C3791 1.429 . S
C3772 H3796 0.950 . S
C3773 C3790 1.574 . S
C3773 C3792 1.368 . S
C3773 H3797 0.949 . S
H3774 C3778 0.949 . S
C3775 C3776 1.349 . S
C3775 C3777 1.327 . S
C3775 H3798 0.950 . S
C3776 C3775 1.349 . S
C3776 C3788 1.349 . S
C3777 C3775 1.327 . S
C3777 C3793 1.429 . S
C3777 H3799 0.950 . S
C3778 H3774 0.949 . S
C3778 C3786 1.574 . S
C3778 C3794 1.368 . S
H3779 C3787 0.950 . S
H3780 C3785 0.950 . S
H3781 C3786 0.949 . S
H3782 C3788 0.950 . S
H3783 C3789 0.950 . S
H3784 C3790 0.949 . S
C3785 H3780 0.950 . S
C3785 C3787 1.327 . S
C3785 C3791 1.429 . S
C3786 C3778 1.574 . S
C3786 H3781 0.949 . S
C3786 C3792 1.368 . S
C3787 C3771 1.349 . S
C3787 H3779 0.950 . S
C3787 C3785 1.327 . S
C3788 C3776 1.349 . S
C3788 H3782 0.950 . S
C3788 C3789 1.327 . S
C3789 H3783 0.950 . S
C3789 C3788 1.327 . S
C3789 C3793 1.429 . S
C3790 C3773 1.574 . S
C3790 H3784 0.949 . S
C3790 C3794 1.368 . S
C3791 C3772 1.429 . S
C3791 C3785 1.429 . S
C3791 C3792 1.523 . S
C3792 C3773 1.368 . S
C3792 C3786 1.368 . S
C3792 C3791 1.523 . S
C3793 C3777 1.429 . S
C3793 C3789 1.429 . S
C3793 C3794 1.523 . S
C3794 C3778 1.368 . S
C3794 C3790 1.368 . S
C3794 C3793 1.523 . S
H3795 C3770 0.950 . S
H3796 C3772 0.950 . S
H3797 C3773 0.949 . S
H3798 C3775 0.950 . S
H3799 C3777 0.950 . S
C3800 C3801 1.349 . S
C3800 C3802 1.327 . S
C3800 H3825 0.950 . S
C3801 C3800 1.349 . S
C3801 C3817 1.349 . S
C3802 C3800 1.327 . S
C3802 C3821 1.429 . S
C3802 H3826 0.950 . S
C3803 C3820 1.574 1_556 S
C3803 C3822 1.368 . S
C3803 H3827 0.949 . S
H3804 C3808 0.949 . S
C3805 C3806 1.349 . S
C3805 C3807 1.327 . S
C3805 H3828 0.950 . S
C3806 C3805 1.349 . S
C3806 C3818 1.349 . S
C3807 C3805 1.327 . S
C3807 C3823 1.429 . S
C3807 H3829 0.950 . S
C3808 H3804 0.949 . S
C3808 C3816 1.574 1_554 S
C3808 C3824 1.368 . S
H3809 C3817 0.950 . S
H3810 C3815 0.950 . S
H3811 C3816 0.949 . S
H3812 C3818 0.950 . S
H3813 C3819 0.950 . S
H3814 C3820 0.949 . S
C3815 H3810 0.950 . S
C3815 C3817 1.327 . S
C3815 C3821 1.429 . S
C3816 C3808 1.574 1_556 S
C3816 H3811 0.949 . S
C3816 C3822 1.368 . S
C3817 C3801 1.349 . S
C3817 H3809 0.950 . S
C3817 C3815 1.327 . S
C3818 C3806 1.349 . S
C3818 H3812 0.950 . S
C3818 C3819 1.327 . S
C3819 H3813 0.950 . S
C3819 C3818 1.327 . S
C3819 C3823 1.429 . S
C3820 C3803 1.574 1_554 S
C3820 H3814 0.949 . S
C3820 C3824 1.368 . S
C3821 C3802 1.429 . S
C3821 C3815 1.429 . S
C3821 C3822 1.523 . S
C3822 C3803 1.368 . S
C3822 C3816 1.368 . S
C3822 C3821 1.523 . S
C3823 C3807 1.429 . S
C3823 C3819 1.429 . S
C3823 C3824 1.523 . S
C3824 C3808 1.368 . S
C3824 C3820 1.368 . S
C3824 C3823 1.523 . S
H3825 C3800 0.950 . S
H3826 C3802 0.950 . S
H3827 C3803 0.949 . S
H3828 C3805 0.950 . S
H3829 C3807 0.950 . S
C3830 C3831 1.349 . S
C3830 C3832 1.327 . S
C3830 H3855 0.950 . S
C3831 C3830 1.349 . S
C3831 C3847 1.349 1_655 S
C3832 C3830 1.327 . S
C3832 C3851 1.429 . S
C3832 H3856 0.950 . S
C3833 C3850 1.574 . S
C3833 C3852 1.368 1_455 S
C3833 H3857 0.949 . S
H3834 C3838 0.949 . S
C3835 C3836 1.349 . S
C3835 C3837 1.327 . S
C3835 H3858 0.950 . S
C3836 C3835 1.349 . S
C3836 C3848 1.349 1_455 S
C3837 C3835 1.327 . S
C3837 C3853 1.429 . S
C3837 H3859 0.950 . S
C3838 H3834 0.949 . S
C3838 C3846 1.574 . S
C3838 C3854 1.368 1_655 S
H3839 C3847 0.950 . S
H3840 C3845 0.950 . S
H3841 C3846 0.949 . S
H3842 C3848 0.950 . S
H3843 C3849 0.950 . S
H3844 C3850 0.949 . S
C3845 H3840 0.950 . S
C3845 C3847 1.327 . S
C3845 C3851 1.429 1_455 S
C3846 C3838 1.574 . S
C3846 H3841 0.949 . S
C3846 C3852 1.368 . S
C3847 C3831 1.349 1_455 S
C3847 H3839 0.950 . S
C3847 C3845 1.327 . S
C3848 C3836 1.349 1_655 S
C3848 H3842 0.950 . S
C3848 C3849 1.327 . S
C3849 H3843 0.950 . S
C3849 C3848 1.327 . S
C3849 C3853 1.429 1_655 S
C3850 C3833 1.574 . S
C3850 H3844 0.949 . S
C3850 C3854 1.368 . S
C3851 C3832 1.429 . S
C3851 C3845 1.429 1_655 S
C3851 C3852 1.523 . S
C3852 C3833 1.368 1_655 S
C3852 C3846 1.368 . S
C3852 C3851 1.523 . S
C3853 C3837 1.429 . S
C3853 C3849 1.429 1_455 S
C3853 C3854 1.523 . S
C3854 C3838 1.368 1_455 S
C3854 C3850 1.368 . S
C3854 C3853 1.523 . S
H3855 C3830 0.950 . S
H3856 C3832 0.950 . S
H3857 C3833 0.949 . S
H3858 C3835 0.950 . S
H3859 C3837 0.950 . S
C3860 C3861 1.349 . S
C3860 C3862 1.327 . S
C3860 H3885 0.950 . S
C3861 C3860 1.349 . S
C3861 C3877 1.349 . S
C3862 C3860 1.327 . S
C3862 C3881 1.429 . S
C3862 H3886 0.950 . S
C3863 C3880 1.574 . S
C3863 C3882 1.368 . S
C3863 H3887 0.949 . S
H3864 C3868 0.949 . S
C3865 C3866 1.349 . S
C3865 C3867 1.327 . S
C3865 H3888 0.950 . S
C3866 C3865 1.349 . S
C3866 C3878 1.349 . S
C3867 C3865 1.327 . S
C3867 C3883 1.429 . S
C3867 H3889 0.950 . S
C3868 H3864 0.949 . S
C3868 C3876 1.574 . S
C3868 C3884 1.368 . S
H3869 C3877 0.950 . S
H3870 C3875 0.950 . S
H3871 C3876 0.949 . S
H3872 C3878 0.950 . S
H3873 C3879 0.950 . S
H3874 C3880 0.949 . S
C3875 H3870 0.950 . S
C3875 C3877 1.327 . S
C3875 C3881 1.429 . S
C3876 C3868 1.574 . S
C3876 H3871 0.949 . S
C3876 C3882 1.368 . S
C3877 C3861 1.349 . S
C3877 H3869 0.950 . S
C3877 C3875 1.327 . S
C3878 C3866 1.349 . S
C3878 H3872 0.950 . S
C3878 C3879 1.327 . S
C3879 H3873 0.950 . S
C3879 C3878 1.327 . S
C3879 C3883 1.429 . S
C3880 C3863 1.574 . S
C3880 H3874 0.949 . S
C3880 C3884 1.368 . S
C3881 C3862 1.429 . S
C3881 C3875 1.429 . S
C3881 C3882 1.523 . S
C3882 C3863 1.368 . S
C3882 C3876 1.368 . S
C3882 C3881 1.523 . S
C3883 C3867 1.429 . S
C3883 C3879 1.429 . S
C3883 C3884 1.523 . S
C3884 C3868 1.368 . S
C3884 C3880 1.368 . S
C3884 C3883 1.523 . S
H3885 C3860 0.950 . S
H3886 C3862 0.950 . S
H3887 C3863 0.949 . S
H3888 C3865 0.950 . S
H3889 C3867 0.950 . S
C3890 C3891 1.349 1_655 S
C3890 C3892 1.327 . S
C3890 H3915 0.950 . S
C3891 C3890 1.349 1_455 S
C3891 C3907 1.349 1_565 S
C3892 C3890 1.327 . S
C3892 C3911 1.429 1_655 S
C3892 H3916 0.950 . S
C3893 C3910 1.574 . S
C3893 C3912 1.333 1_545 S
C3893 H3917 0.949 . S
H3894 C3898 0.949 . S
C3895 C3896 1.349 1_455 S
C3895 C3897 1.327 . S
C3895 H3918 0.950 . S
C3896 C3895 1.349 1_655 S
C3896 C3908 1.349 1_545 S
C3897 C3895 1.327 . S
C3897 C3913 1.429 1_455 S
C3897 H3919 0.950 . S
C3898 H3894 0.949 . S
C3898 C3906 1.574 . S
C3898 C3914 1.333 1_565 S
H3899 C3907 0.950 . S
H3900 C3905 0.950 . S
H3901 C3906 0.949 . S
H3902 C3908 0.950 . S
H3903 C3909 0.950 . S
H3904 C3910 0.949 . S
C3905 H3900 0.950 . S
C3905 C3907 1.327 . S
C3905 C3911 1.429 1_545 S
C3906 C3898 1.574 . S
C3906 H3901 0.949 . S
C3906 C3912 1.403 1_655 S
C3907 C3891 1.349 1_545 S
C3907 H3899 0.950 . S
C3907 C3905 1.327 . S
C3908 C3896 1.349 1_565 S
C3908 H3902 0.950 . S
C3908 C3909 1.327 . S
C3909 H3903 0.950 . S
C3909 C3908 1.327 . S
C3909 C3913 1.429 1_565 S
C3910 C3893 1.574 . S
C3910 H3904 0.949 . S
C3910 C3914 1.403 1_455 S
C3911 C3892 1.429 1_455 S
C3911 C3905 1.429 1_565 S
C3911 C3912 1.526 . S
C3912 C3893 1.333 1_565 S
C3912 C3906 1.403 1_455 S
C3912 C3911 1.526 . S
C3913 C3897 1.429 1_655 S
C3913 C3909 1.429 1_545 S
C3913 C3914 1.526 . S
C3914 C3898 1.333 1_545 S
C3914 C3910 1.403 1_655 S
C3914 C3913 1.526 . S
H3915 C3890 0.950 . S
H3916 C3892 0.950 . S
H3917 C3893 0.949 . S
H3918 C3895 0.950 . S
H3919 C3897 0.950 . S
C3920 C3921 1.349 . S
C3920 C3922 1.327 . S
C3920 H3945 0.950 . S
C3921 C3920 1.349 . S
C3921 C3937 1.349 . S
C3922 C3920 1.327 . S
C3922 C3941 1.429 . S
C3922 H3946 0.950 . S
C3923 C3940 1.574 . S
C3923 C3942 1.368 . S
C3923 H3947 0.949 . S
H3924 C3928 0.949 . S
C3925 C3926 1.349 . S
C3925 C3927 1.327 . S
C3925 H3948 0.950 . S
C3926 C3925 1.349 . S
C3926 C3938 1.349 . S
C3927 C3925 1.327 . S
C3927 C3943 1.429 . S
C3927 H3949 0.950 . S
C3928 H3924 0.949 . S
C3928 C3936 1.574 . S
C3928 C3944 1.368 . S
H3929 C3937 0.950 . S
H3930 C3935 0.950 . S
H3931 C3936 0.949 . S
H3932 C3938 0.950 . S
H3933 C3939 0.950 . S
H3934 C3940 0.949 . S
C3935 H3930 0.950 . S
C3935 C3937 1.327 . S
C3935 C3941 1.429 . S
C3936 C3928 1.574 . S
C3936 H3931 0.949 . S
C3936 C3942 1.368 . S
C3937 C3921 1.349 . S
C3937 H3929 0.950 . S
C3937 C3935 1.327 . S
C3938 C3926 1.349 . S
C3938 H3932 0.950 . S
C3938 C3939 1.327 . S
C3939 H3933 0.950 . S
C3939 C3938 1.327 . S
C3939 C3943 1.429 . S
C3940 C3923 1.574 . S
C3940 H3934 0.949 . S
C3940 C3944 1.368 . S
C3941 C3922 1.429 . S
C3941 C3935 1.429 . S
C3941 C3942 1.523 . S
C3942 C3923 1.368 . S
C3942 C3936 1.368 . S
C3942 C3941 1.523 . S
C3943 C3927 1.429 . S
C3943 C3939 1.429 . S
C3943 C3944 1.523 . S
C3944 C3928 1.368 . S
C3944 C3940 1.368 . S
C3944 C3943 1.523 . S
H3945 C3920 0.950 . S
H3946 C3922 0.950 . S
H3947 C3923 0.949 . S
H3948 C3925 0.950 . S
H3949 C3927 0.950 . S
C3950 C3951 1.349 1_565 S
C3950 C3952 1.327 . S
C3950 H3975 0.950 . S
C3951 C3950 1.349 1_545 S
C3951 C3967 1.349 . S
C3952 C3950 1.327 . S
C3952 C3971 1.429 1_565 S
C3952 H3976 0.950 . S
C3953 C3970 1.574 . S
C3953 C3972 1.403 . S
C3953 H3977 0.949 . S
H3954 C3958 0.949 . S
C3955 C3956 1.349 1_545 S
C3955 C3957 1.327 . S
C3955 H3978 0.950 . S
C3956 C3955 1.349 1_565 S
C3956 C3968 1.349 . S
C3957 C3955 1.327 . S
C3957 C3973 1.429 1_545 S
C3957 H3979 0.950 . S
C3958 H3954 0.949 . S
C3958 C3966 1.574 . S
C3958 C3974 1.403 . S
H3959 C3967 0.950 . S
H3960 C3965 0.950 . S
H3961 C3966 0.949 . S
H3962 C3968 0.950 . S
H3963 C3969 0.950 . S
H3964 C3970 0.949 . S
C3965 H3960 0.950 . S
C3965 C3967 1.327 . S
C3965 C3971 1.429 . S
C3966 C3958 1.574 . S
C3966 H3961 0.949 . S
C3966 C3972 1.333 1_565 S
C3967 C3951 1.349 . S
C3967 H3959 0.950 . S
C3967 C3965 1.327 . S
C3968 C3956 1.349 . S
C3968 H3962 0.950 . S
C3968 C3969 1.327 . S
C3969 H3963 0.950 . S
C3969 C3968 1.327 . S
C3969 C3973 1.429 . S
C3970 C3953 1.574 . S
C3970 H3964 0.949 . S
C3970 C3974 1.333 1_545 S
C3971 C3952 1.429 1_545 S
C3971 C3965 1.429 . S
C3971 C3972 1.526 . S
C3972 C3953 1.403 . S
C3972 C3966 1.333 1_545 S
C3972 C3971 1.526 . S
C3973 C3957 1.429 1_565 S
C3973 C3969 1.429 . S
C3973 C3974 1.526 . S
C3974 C3958 1.403 . S
C3974 C3970 1.333 1_565 S
C3974 C3973 1.526 . S
H3975 C3950 0.950 . S
H3976 C3952 0.950 . S
H3977 C3953 0.949 . S
H3978 C3955 0.950 . S
H3979 C3957 0.950 . S
C3980 C3981 1.349 . S
C3980 C3982 1.327 . S
C3980 H4005 0.950 . S
C3981 C3980 1.349 . S
C3981 C3997 1.349 . S
C3982 C3980 1.327 . S
C3982 C4001 1.429 . S
C3982 H4006 0.950 . S
C3983 C4000 1.574 . S
C3983 C4002 1.368 . S
C3983 H4007 0.949 . S
H3984 C3988 0.949 . S
C3985 C3986 1.349 . S
C3985 C3987 1.327 . S
C3985 H4008 0.950 . S
C3986 C3985 1.349 . S
C3986 C3998 1.349 . S
C3987 C3985 1.327 . S
C3987 C4003 1.429 . S
C3987 H4009 0.950 . S
C3988 H3984 0.949 . S
C3988 C3996 1.574 . S
C3988 C4004 1.368 . S
H3989 C3997 0.950 . S
H3990 C3995 0.950 . S
H3991 C3996 0.949 . S
H3992 C3998 0.950 . S
H3993 C3999 0.950 . S
H3994 C4000 0.949 . S
C3995 H3990 0.950 . S
C3995 C3997 1.327 . S
C3995 C4001 1.429 . S
C3996 C3988 1.574 . S
C3996 H3991 0.949 . S
C3996 C4002 1.368 . S
C3997 C3981 1.349 . S
C3997 H3989 0.950 . S
C3997 C3995 1.327 . S
C3998 C3986 1.349 . S
C3998 H3992 0.950 . S
C3998 C3999 1.327 . S
C3999 H3993 0.950 . S
C3999 C3998 1.327 . S
C3999 C4003 1.429 . S
C4000 C3983 1.574 . S
C4000 H3994 0.949 . S
C4000 C4004 1.368 . S
C4001 C3982 1.429 . S
C4001 C3995 1.429 . S
C4001 C4002 1.523 . S
C4002 C3983 1.368 . S
C4002 C3996 1.368 . S
C4002 C4001 1.523 . S
C4003 C3987 1.429 . S
C4003 C3999 1.429 . S
C4003 C4004 1.523 . S
C4004 C3988 1.368 . S
C4004 C4000 1.368 . S
C4004 C4003 1.523 . S
H4005 C3980 0.950 . S
H4006 C3982 0.950 . S
H4007 C3983 0.949 . S
H4008 C3985 0.950 . S
H4009 C3987 0.950 . S
C4010 C4011 1.349 . S
C4010 C4012 1.327 . S
C4010 H4035 0.950 . S
C4011 C4010 1.349 . S
C4011 C4027 1.349 1_565 S
C4012 C4010 1.327 . S
C4012 C4031 1.429 . S
C4012 H4036 0.950 . S
C4013 C4030 1.574 . S
C4013 C4032 1.336 1_545 S
C4013 H4037 0.949 . S
H4014 C4018 0.949 . S
C4015 C4016 1.349 . S
C4015 C4017 1.327 . S
C4015 H4038 0.950 . S
C4016 C4015 1.349 . S
C4016 C4028 1.349 1_545 S
C4017 C4015 1.327 . S
C4017 C4033 1.429 . S
C4017 H4039 0.950 . S
C4018 H4014 0.949 . S
C4018 C4026 1.574 . S
C4018 C4034 1.336 1_565 S
H4019 C4027 0.950 . S
H4020 C4025 0.950 . S
H4021 C4026 0.949 . S
H4022 C4028 0.950 . S
H4023 C4029 0.950 . S
H4024 C4030 0.949 . S
C4025 H4020 0.950 . S
C4025 C4027 1.327 . S
C4025 C4031 1.429 1_545 S
C4026 C4018 1.574 . S
C4026 H4021 0.949 . S
C4026 C4032 1.400 . S
C4027 C4011 1.349 1_545 S
C4027 H4019 0.950 . S
C4027 C4025 1.327 . S
C4028 C4016 1.349 1_565 S
C4028 H4022 0.950 . S
C4028 C4029 1.327 . S
C4029 H4023 0.950 . S
C4029 C4028 1.327 . S
C4029 C4033 1.429 1_565 S
C4030 C4013 1.574 . S
C4030 H4024 0.949 . S
C4030 C4034 1.400 . S
C4031 C4012 1.429 . S
C4031 C4025 1.429 1_565 S
C4031 C4032 1.526 . S
C4032 C4013 1.336 1_565 S
C4032 C4026 1.400 . S
C4032 C4031 1.526 . S
C4033 C4017 1.429 . S
C4033 C4029 1.429 1_545 S
C4033 C4034 1.526 . S
C4034 C4018 1.336 1_545 S
C4034 C4030 1.400 . S
C4034 C4033 1.526 . S
H4035 C4010 0.950 . S
H4036 C4012 0.950 . S
H4037 C4013 0.949 . S
H4038 C4015 0.950 . S
H4039 C4017 0.950 . S
C4040 C4041 1.349 . S
C4040 C4042 1.327 . S
C4040 H4065 0.950 . S
C4041 C4040 1.349 . S
C4041 C4057 1.349 . S
C4042 C4040 1.327 . S
C4042 C4061 1.429 . S
C4042 H4066 0.950 . S
C4043 C4060 1.574 . S
C4043 C4062 1.368 . S
C4043 H4067 0.949 . S
H4044 C4048 0.949 . S
C4045 C4046 1.349 . S
C4045 C4047 1.327 . S
C4045 H4068 0.950 . S
C4046 C4045 1.349 . S
C4046 C4058 1.349 . S
C4047 C4045 1.327 . S
C4047 C4063 1.429 . S
C4047 H4069 0.950 . S
C4048 H4044 0.949 . S
C4048 C4056 1.574 . S
C4048 C4064 1.368 . S
H4049 C4057 0.950 . S
H4050 C4055 0.950 . S
H4051 C4056 0.949 . S
H4052 C4058 0.950 . S
H4053 C4059 0.950 . S
H4054 C4060 0.949 . S
C4055 H4050 0.950 . S
C4055 C4057 1.327 . S
C4055 C4061 1.429 . S
C4056 C4048 1.574 . S
C4056 H4051 0.949 . S
C4056 C4062 1.368 . S
C4057 C4041 1.349 . S
C4057 H4049 0.950 . S
C4057 C4055 1.327 . S
C4058 C4046 1.349 . S
C4058 H4052 0.950 . S
C4058 C4059 1.327 . S
C4059 H4053 0.950 . S
C4059 C4058 1.327 . S
C4059 C4063 1.429 . S
C4060 C4043 1.574 . S
C4060 H4054 0.949 . S
C4060 C4064 1.368 . S
C4061 C4042 1.429 . S
C4061 C4055 1.429 . S
C4061 C4062 1.523 . S
C4062 C4043 1.368 . S
C4062 C4056 1.368 . S
C4062 C4061 1.523 . S
C4063 C4047 1.429 . S
C4063 C4059 1.429 . S
C4063 C4064 1.523 . S
C4064 C4048 1.368 . S
C4064 C4060 1.368 . S
C4064 C4063 1.523 . S
H4065 C4040 0.950 . S
H4066 C4042 0.950 . S
H4067 C4043 0.949 . S
H4068 C4045 0.950 . S
H4069 C4047 0.950 . S
C4070 C4071 1.349 . S
C4070 C4072 1.327 . S
C4070 H4095 0.950 . S
C4071 C4070 1.349 . S
C4071 C4087 1.349 . S
C4072 C4070 1.327 . S
C4072 C4091 1.429 . S
C4072 H4096 0.950 . S
C4073 C4090 1.574 . S
C4073 C4092 1.368 . S
C4073 H4097 0.949 . S
H4074 C4078 0.949 . S
C4075 C4076 1.349 . S
C4075 C4077 1.327 . S
C4075 H4098 0.950 . S
C4076 C4075 1.349 . S
C4076 C4088 1.349 . S
C4077 C4075 1.327 . S
C4077 C4093 1.429 . S
C4077 H4099 0.950 . S
C4078 H4074 0.949 . S
C4078 C4086 1.574 . S
C4078 C4094 1.368 . S
H4079 C4087 0.950 . S
H4080 C4085 0.950 . S
H4081 C4086 0.949 . S
H4082 C4088 0.950 . S
H4083 C4089 0.950 . S
H4084 C4090 0.949 . S
C4085 H4080 0.950 . S
C4085 C4087 1.327 . S
C4085 C4091 1.429 . S
C4086 C4078 1.574 . S
C4086 H4081 0.949 . S
C4086 C4092 1.368 . S
C4087 C4071 1.349 . S
C4087 H4079 0.950 . S
C4087 C4085 1.327 . S
C4088 C4076 1.349 . S
C4088 H4082 0.950 . S
C4088 C4089 1.327 . S
C4089 H4083 0.950 . S
C4089 C4088 1.327 . S
C4089 C4093 1.429 . S
C4090 C4073 1.574 . S
C4090 H4084 0.949 . S
C4090 C4094 1.368 . S
C4091 C4072 1.429 . S
C4091 C4085 1.429 . S
C4091 C4092 1.523 . S
C4092 C4073 1.368 . S
C4092 C4086 1.368 . S
C4092 C4091 1.523 . S
C4093 C4077 1.429 . S
C4093 C4089 1.429 . S
C4093 C4094 1.523 . S
C4094 C4078 1.368 . S
C4094 C4090 1.368 . S
C4094 C4093 1.523 . S
H4095 C4070 0.950 . S
H4096 C4072 0.950 . S
H4097 C4073 0.949 . S
H4098 C4075 0.950 . S
H4099 C4077 0.950 . S
C4100 C4101 1.349 . S
C4100 C4102 1.327 . S
C4100 H4125 0.950 . S
C4101 C4100 1.349 . S
C4101 C4117 1.349 . S
C4102 C4100 1.327 . S
C4102 C4121 1.429 . S
C4102 H4126 0.950 . S
C4103 C4120 1.574 . S
C4103 C4122 1.368 . S
C4103 H4127 0.949 . S
H4104 C4108 0.949 . S
C4105 C4106 1.349 . S
C4105 C4107 1.327 . S
C4105 H4128 0.950 . S
C4106 C4105 1.349 . S
C4106 C4118 1.349 . S
C4107 C4105 1.327 . S
C4107 C4123 1.429 . S
C4107 H4129 0.950 . S
C4108 H4104 0.949 . S
C4108 C4116 1.574 . S
C4108 C4124 1.368 . S
H4109 C4117 0.950 . S
H4110 C4115 0.950 . S
H4111 C4116 0.949 . S
H4112 C4118 0.950 . S
H4113 C4119 0.950 . S
H4114 C4120 0.949 . S
C4115 H4110 0.950 . S
C4115 C4117 1.327 . S
C4115 C4121 1.429 . S
C4116 C4108 1.574 . S
C4116 H4111 0.949 . S
C4116 C4122 1.368 . S
C4117 C4101 1.349 . S
C4117 H4109 0.950 . S
C4117 C4115 1.327 . S
C4118 C4106 1.349 . S
C4118 H4112 0.950 . S
C4118 C4119 1.327 . S
C4119 H4113 0.950 . S
C4119 C4118 1.327 . S
C4119 C4123 1.429 . S
C4120 C4103 1.574 . S
C4120 H4114 0.949 . S
C4120 C4124 1.368 . S
C4121 C4102 1.429 . S
C4121 C4115 1.429 . S
C4121 C4122 1.523 . S
C4122 C4103 1.368 . S
C4122 C4116 1.368 . S
C4122 C4121 1.523 . S
C4123 C4107 1.429 . S
C4123 C4119 1.429 . S
C4123 C4124 1.523 . S
C4124 C4108 1.368 . S
C4124 C4120 1.368 . S
C4124 C4123 1.523 . S
H4125 C4100 0.950 . S
H4126 C4102 0.950 . S
H4127 C4103 0.949 . S
H4128 C4105 0.950 . S
H4129 C4107 0.950 . S
C4130 C4131 1.349 1_545 S
C4130 C4132 1.327 . S
C4130 H4155 0.950 . S
C4131 C4130 1.349 1_565 S
C4131 C4147 1.349 . S
C4132 C4130 1.327 . S
C4132 C4151 1.429 1_545 S
C4132 H4156 0.950 . S
C4133 C4150 1.574 1_554 S
C4133 C4152 1.402 . S
C4133 H4157 0.949 . S
H4134 C4138 0.949 . S
C4135 C4136 1.349 1_565 S
C4135 C4137 1.327 . S
C4135 H4158 0.950 . S
C4136 C4135 1.349 1_545 S
C4136 C4148 1.349 . S
C4137 C4135 1.327 . S
C4137 C4153 1.429 1_565 S
C4137 H4159 0.950 . S
C4138 H4134 0.949 . S
C4138 C4146 1.574 1_556 S
C4138 C4154 1.402 . S
H4139 C4147 0.950 . S
H4140 C4145 0.950 . S
H4141 C4146 0.949 . S
H4142 C4148 0.950 . S
H4143 C4149 0.950 . S
H4144 C4150 0.949 . S
C4145 H4140 0.950 . S
C4145 C4147 1.327 . S
C4145 C4151 1.429 . S
C4146 C4138 1.574 1_554 S
C4146 H4141 0.949 . S
C4146 C4152 1.334 1_545 S
C4147 C4131 1.349 . S
C4147 H4139 0.950 . S
C4147 C4145 1.327 . S
C4148 C4136 1.349 . S
C4148 H4142 0.950 . S
C4148 C4149 1.327 . S
C4149 H4143 0.950 . S
C4149 C4148 1.327 . S
C4149 C4153 1.429 . S
C4150 C4133 1.574 1_556 S
C4150 H4144 0.949 . S
C4150 C4154 1.334 1_565 S
C4151 C4132 1.429 1_565 S
C4151 C4145 1.429 . S
C4151 C4152 1.526 . S
C4152 C4133 1.402 . S
C4152 C4146 1.334 1_565 S
C4152 C4151 1.526 . S
C4153 C4137 1.429 1_545 S
C4153 C4149 1.429 . S
C4153 C4154 1.526 . S
C4154 C4138 1.402 . S
C4154 C4150 1.334 1_545 S
C4154 C4153 1.526 . S
H4155 C4130 0.950 . S
H4156 C4132 0.950 . S
H4157 C4133 0.949 . S
H4158 C4135 0.950 . S
H4159 C4137 0.950 . S
C1281 C10 1.646 . S
C1286 C1010 1.646 . S
C1311 C970 1.647 . S
C1316 C50 1.647 . S
C1341 C1090 1.647 . S
C1346 C90 1.647 . S
C1371 C130 1.646 . S
C1376 C1050 1.646 . S
C1401 C179 1.646 . S
C1406 C1179 1.646 . S
C1431 C219 1.647 . S
C1436 C1139 1.647 . S
C1461 C259 1.647 . S
C1466 C1259 1.647 . S
C1491 C1219 1.646 . S
C1496 C299 1.646 . S
C1521 C330 1.647 . S
C1526 C690 1.647 . S
C1551 C370 1.646 . S
C1556 C650 1.646 . S
C1581 C410 1.646 . S
C1586 C770 1.646 . S
C1611 C730 1.647 . S
C1616 C450 1.647 . S
C1641 C499 1.647 . S
C1646 C859 1.647 . S
C1671 C539 1.646 . S
C1676 C819 1.646 . S
C1701 C939 1.646 . S
C1706 C579 1.646 . S
C1731 C619 1.647 . S
C1736 C899 1.647 . S
C1761 C9 1.579 . S
C1766 C129 1.579 . S
C1791 C49 1.579 . S
C1796 C89 1.579 . S
C1821 C298 1.579 . S
C1826 C178 1.579 . S
C1851 C258 1.579 . S
C1856 C218 1.579 . S
C1881 C329 1.579 . S
C1886 C449 1.579 . S
C1911 C369 1.579 . S
C1916 C409 1.579 . S
C1941 C498 1.579 . S
C1946 C618 1.579 . S
C1971 C578 1.579 . S
C1976 C538 1.579 . S
C2001 C649 1.579 . S
C2006 C769 1.579 . S
C2031 C689 1.579 . S
C2036 C729 1.579 . S
C2061 C938 1.579 . S
C2066 C818 1.579 . S
C2091 C858 1.579 . S
C2096 C898 1.579 . S
C2121 C1089 1.579 . S
C2126 C969 1.579 . S
C2151 C1009 1.579 . S
C2156 C1049 1.579 . S
C2181 C1258 1.579 . S
C2186 C1138 1.579 . S
C2211 C1218 1.579 . S
C2216 C1178 1.579 . S
C2241 C59 1.473 . S
C2246 C19 1.473 . S
C2271 C99 1.473 . S
C2276 C139 1.473 . S
C2301 C210 1.473 . S
C2306 C170 1.473 . S
C2331 C290 1.473 . S
C2336 C250 1.473 . S
C2361 C339 1.473 . S
C2366 C379 1.473 . S
C2391 C419 1.473 . S
C2396 C459 1.473 . S
C2421 C530 1.473 . S
C2426 C490 1.473 . S
C2451 C570 1.473 . S
C2456 C610 1.473 . S
C2481 C659 1.473 . S
C2486 C699 1.473 . S
C2511 C779 1.473 . S
C2516 C739 1.473 . S
C2541 C810 1.473 . S
C2546 C850 1.473 . S
C2571 C890 1.473 . S
C2576 C930 1.473 . S
C2601 C979 1.473 . S
C2606 C1019 1.473 . S
C2631 C1059 1.473 . S
C2636 C1099 1.473 . S
C2661 C1170 1.473 . S
C2666 C1130 1.473 . S
C2691 C1210 1.473 . S
C2696 C1250 1.473 . S
C2721 C6 1.734 . S
C2726 C15 1.734 . S
C2751 C46 1.734 . S
C2756 C55 1.734 . S
C2781 C86 1.734 . S
C2786 C95 1.734 . S
C2811 C135 1.734 . S
C2816 C126 1.734 . S
C2841 C166 1.734 . S
C2846 C175 1.734 . S
C2871 C215 1.734 . S
C2876 C206 1.734 . S
C2901 C246 1.734 . S
C2906 C255 1.734 . S
C2931 C286 1.734 . S
C2936 C295 1.734 . S
C2961 C335 1.734 . S
C2966 C326 1.734 . S
C2991 C366 1.734 . S
C2996 C375 1.734 . S
C3021 C406 1.734 . S
C3026 C415 1.734 . S
C3051 C455 1.734 . S
C3056 C446 1.734 . S
C3081 C486 1.734 . S
C3086 C495 1.734 . S
C3111 C535 1.734 . S
C3116 C526 1.734 . S
C3141 C575 1.734 . S
C3146 C566 1.734 . S
C3171 C606 1.734 . S
C3176 C615 1.734 . S
C3201 C646 1.734 . S
C3206 C655 1.734 . S
C3231 C695 1.734 . S
C3236 C686 1.734 1_455 S
C3261 C735 1.734 . S
C3266 C726 1.734 . S
C3291 C766 1.734 1_455 S
C3296 C775 1.734 . S
C3321 C815 1.734 . S
C3326 C806 1.734 . S
C3351 C855 1.734 1_655 S
C3356 C846 1.734 . S
C3381 C886 1.734 . S
C3386 C895 1.734 . S
C3411 C935 1.734 1_655 S
C3416 C926 1.734 . S
C3441 C975 1.734 . S
C3446 C966 1.734 . S
C3471 C1006 1.734 1_455 S
C3476 C1015 1.734 . S
C3501 C1055 1.734 . S
C3506 C1046 1.734 . S
C3531 C1095 1.734 . S
C3536 C1086 1.734 1_455 S
C3561 C1135 1.734 . S
C3566 C1126 1.734 . S
C3591 C1175 1.734 1_655 S
C3596 C1166 1.734 . S
C3621 C1206 1.734 . S
C3626 C1215 1.734 . S
C3651 C1246 1.734 . S
C3656 C1255 1.734 1_655 S
C3681 C18 1.479 . S
C3686 C169 1.479 . S
C3711 C1169 1.478 . S
C3716 C58 1.478 . S
C3741 C569 1.478 . S
C3746 C98 1.478 . S
C3771 C138 1.478 . S
C3776 C929 1.478 . S
C3801 C209 1.478 . S
C3806 C1018 1.478 . S
C3831 C249 1.478 . S
C3836 C418 1.478 . S
C3861 C289 1.478 . S
C3866 C778 1.478 . S
C3891 C338 1.479 . S
C3896 C489 1.479 . S
C3921 C849 1.478 . S
C3926 C378 1.478 . S
C3951 C1249 1.478 . S
C3956 C458 1.478 . S
C3981 C529 1.478 . S
C3986 C698 1.478 . S
C4011 C1098 1.478 . S
C4016 C609 1.478 . S
C4041 C658 1.479 . S
C4046 C809 1.479 . S
C4071 C1209 1.478 . S
C4076 C738 1.478 . S
C4101 C889 1.478 . S
C4106 C1058 1.478 . S
C4131 C978 1.479 . S
C4136 C1129 1.479 . S
