# Generated by pormake.
# Topology smi, (6)-cn, num edge types: 1
# Building blocks:
#     Node 0, Type 0, BuildingBlock: IZENUY_clean_sbu_0, # of connection points: 6
#     Node 1, Type 0, BuildingBlock: IZENUY_clean_sbu_0, # of connection points: 6
#     Node 2, Type 0, BuildingBlock: IZENUY_clean_sbu_0, # of connection points: 6
#     Node 3, Type 0, BuildingBlock: IZENUY_clean_sbu_0, # of connection points: 6
#     Node 4, Type 0, BuildingBlock: IZENUY_clean_sbu_0, # of connection points: 6
#     Node 5, Type 0, BuildingBlock: IZENUY_clean_sbu_0, # of connection points: 6
#     Edge 6, Type (0, 0), BuildingBlock: CIFDUS_clean_linker_0, # of connection points: 2
#     Edge 7, Type (0, 0), BuildingBlock: CIFDUS_clean_linker_0, # of connection points: 2
#     Edge 8, Type (0, 0), BuildingBlock: CIFDUS_clean_linker_0, # of connection points: 2
#     Edge 9, Type (0, 0), BuildingBlock: CIFDUS_clean_linker_0, # of connection points: 2
#     Edge 10, Type (0, 0), BuildingBlock: CIFDUS_clean_linker_0, # of connection points: 2
#     Edge 11, Type (0, 0), BuildingBlock: CIFDUS_clean_linker_0, # of connection points: 2
#     Edge 12, Type (0, 0), BuildingBlock: CIFDUS_clean_linker_0, # of connection points: 2
#     Edge 13, Type (0, 0), BuildingBlock: CIFDUS_clean_linker_0, # of connection points: 2
#     Edge 14, Type (0, 0), BuildingBlock: CIFDUS_clean_linker_0, # of connection points: 2
#     Edge 15, Type (0, 0), BuildingBlock: CIFDUS_clean_linker_0, # of connection points: 2
#     Edge 16, Type (0, 0), BuildingBlock: CIFDUS_clean_linker_0, # of connection points: 2
#     Edge 17, Type (0, 0), BuildingBlock: CIFDUS_clean_linker_0, # of connection points: 2
#     Edge 18, Type (0, 0), BuildingBlock: CIFDUS_clean_linker_0, # of connection points: 2
#     Edge 19, Type (0, 0), BuildingBlock: CIFDUS_clean_linker_0, # of connection points: 2
#     Edge 20, Type (0, 0), BuildingBlock: CIFDUS_clean_linker_0, # of connection points: 2
#     Edge 21, Type (0, 0), BuildingBlock: CIFDUS_clean_linker_0, # of connection points: 2
#     Edge 22, Type (0, 0), BuildingBlock: CIFDUS_clean_linker_0, # of connection points: 2
#     Edge 23, Type (0, 0), BuildingBlock: CIFDUS_clean_linker_0, # of connection points: 2
# Relax obj value: 0.337
# Max RMSD: 0.277
# Mean RMSD: 0.276
data_MOF--net-smi--node1-IZENUY_clean_sbu_0--edge1-CIFDUS_clean_linker_0
_symmetry_space_group_name_H-M    P1
_symmetry_Int_Tables_number       1
_symmetry_cell_setting            triclinic
loop_
_symmetry_equiv_pos_as_xyz
'x, y, z'
_cell_length_a     23.603164
_cell_length_b     23.631948
_cell_length_c     35.502294
_cell_angle_alpha  90.10168
_cell_angle_beta   89.308418
_cell_angle_gamma 120.23968
loop_
_atom_site_label
_atom_site_type_symbol
_atom_site_fract_x
_atom_site_fract_y
_atom_site_fract_z
_atom_type_partial_charge
Fe0 Fe 0.09274 0.57832 0.12227 0.0
Fe1 Fe 0.22408 0.60213 0.08918 0.0
O2 O 0.13807 0.56537 0.08629 0.0
Fe3 Fe 0.09704 0.51545 0.04685 0.0
O4 O 0.03025 0.53335 0.04757 0.0
O5 O 0.05942 0.6123 0.08877 0.0
O6 O 0.15681 0.66245 0.13314 0.0
C7 C 0.20841 0.70277 0.11548 0.0
C8 C 0.01731 0.44365 0.10594 0.0
O9 O 0.2349 0.68338 0.09176 0.0
C10 C 0.20006 0.48769 0.05775 0.0
O11 O 0.12171 0.54535 0.15875 0.0
O12 O 0.22513 0.59531 0.14027 0.0
O13 O 0.05064 0.44385 0.07753 0.0
O14 O 0.02176 0.4962 0.11804 0.0
C15 C 0.20292 0.62099 0.01369 0.0
O16 O 0.22034 0.52354 0.08648 0.0
O17 O 0.15682 0.48858 0.03749 0.0
C18 C 0.1809 0.5627 0.16455 0.0
O19 O 0.23799 0.61602 0.03862 0.0
O20 O 0.14107 0.58495 0.0147 0.0
C21 C 0.02784 0.58233 0.05984 0.0
Fe22 Fe 0.58055 0.08917 0.21661 0.0
Fe23 Fe 0.60808 0.2176 0.254 0.0
O24 O 0.56636 0.13133 0.25367 0.0
Fe25 Fe 0.51 0.08585 0.29054 0.0
O26 O 0.52587 0.0181 0.28766 0.0
O27 O 0.61145 0.05233 0.24993 0.0
O28 O 0.66567 0.15277 0.20652 0.0
C29 C 0.70688 0.2011 0.22538 0.0
C30 C 0.44435 0.01524 0.22916 0.0
O31 O 0.68791 0.22388 0.25156 0.0
C32 C 0.49053 0.19422 0.28284 0.0
O33 O 0.55086 0.12379 0.18175 0.0
O34 O 0.60511 0.22523 0.20285 0.0
O35 O 0.4427 0.04714 0.25739 0.0
O36 O 0.49747 0.01854 0.21879 0.0
C37 C 0.61194 0.18209 0.3299 0.0
O38 O 0.53209 0.21933 0.25647 0.0
O39 O 0.48519 0.14618 0.30127 0.0
C40 C 0.571 0.1842 0.17779 0.0
O41 O 0.6177 0.22347 0.30522 0.0
O42 O 0.57364 0.12149 0.32549 0.0
C43 C 0.57879 0.02017 0.27857 0.0
Fe44 Fe 0.40938 0.62398 0.41276 0.0
Fe45 Fe 0.44751 0.53592 0.45614 0.0
O46 O 0.45164 0.57998 0.41482 0.0
Fe47 Fe 0.49803 0.5802 0.37516 0.0
O48 O 0.55087 0.66835 0.37623 0.0
O49 O 0.46917 0.68768 0.38085 0.0
O50 O 0.45629 0.67577 0.45127 0.0
C51 C 0.45956 0.65518 0.48346 0.0
C52 C 0.38407 0.57009 0.3428 0.0
O53 O 0.44536 0.59616 0.48845 0.0
C54 C 0.43983 0.45187 0.39589 0.0
O55 O 0.34261 0.5694 0.445 0.0
O56 O 0.35858 0.48702 0.45533 0.0
O57 O 0.44389 0.58578 0.34057 0.0
O58 O 0.35966 0.57459 0.37374 0.0
C59 C 0.5764 0.58522 0.43679 0.0
O60 O 0.44968 0.46835 0.43041 0.0
O61 O 0.44802 0.49304 0.37094 0.0
C62 C 0.32194 0.5115 0.45638 0.0
O63 O 0.53552 0.58163 0.46107 0.0
O64 O 0.56053 0.57358 0.40247 0.0
C65 C 0.52897 0.70701 0.37384 0.0
Fe66 Fe 0.78924 0.40013 0.57958 0.0
Fe67 Fe 0.91991 0.49508 0.54179 0.0
O68 O 0.87592 0.44278 0.58017 0.0
Fe69 Fe 0.91775 0.43306 0.61861 0.0
O70 O 0.87613 0.34421 0.61377 0.0
O71 O 0.77746 0.32988 0.60757 0.0
O72 O 0.78815 0.35598 0.53751 0.0
C73 C 0.81528 0.38482 0.50699 0.0
C74 C 0.81187 0.44225 0.6521 0.0
O75 O 0.85831 0.44518 0.50676 0.0
C76 C 0.99844 0.56438 0.60459 0.0
O77 O 0.78315 0.4623 0.5521 0.0
O78 O 0.88341 0.5462 0.54946 0.0
O79 O 0.85684 0.42755 0.65403 0.0
O80 O 0.78641 0.44219 0.6211 0.0
C81 C 0.99021 0.43339 0.55326 0.0
O82 O 0.99074 0.55402 0.56953 0.0
O83 O 0.96249 0.52022 0.62781 0.0
C84 C 0.82224 0.52313 0.54846 0.0
O85 O 0.95776 0.44734 0.53115 0.0
O86 O 0.98562 0.43773 0.58885 0.0
C87 C 0.81467 0.30764 0.61508 0.0
Fe88 Fe 0.44251 0.9131 0.71267 0.0
Fe89 Fe 0.40595 0.78403 0.75211 0.0
O90 O 0.44602 0.87046 0.75286 0.0
Fe91 Fe 0.48846 0.91332 0.79373 0.0
O92 O 0.43879 0.95106 0.79849 0.0
O93 O 0.44369 0.98123 0.73961 0.0
O94 O 0.35309 0.87106 0.71448 0.0
C95 C 0.31756 0.80952 0.71338 0.0
C96 C 0.57034 0.99327 0.73238 0.0
O97 O 0.34133 0.77321 0.71986 0.0
C98 C 0.51974 0.81706 0.79463 0.0
O99 O 0.44231 0.8534 0.67867 0.0
O100 O 0.45806 0.7862 0.71394 0.0
O101 O 0.55388 0.98487 0.76716 0.0
O102 O 0.53062 0.9573 0.70766 0.0
C103 C 0.37071 0.80361 0.8219 0.0
O104 O 0.46193 0.77707 0.78457 0.0
O105 O 0.5415 0.87793 0.7933 0.0
C106 C 0.46058 0.81138 0.68224 0.0
O107 O 0.35179 0.77784 0.79004 0.0
O108 O 0.42948 0.84967 0.82669 0.0
C109 C 0.43357 0.98687 0.77431 0.0
Fe110 Fe 0.61992 0.38814 0.92578 0.0
Fe111 Fe 0.59298 0.49445 0.95472 0.0
O112 O 0.58134 0.43516 0.92006 0.0
Fe113 Fe 0.53208 0.42274 0.88011 0.0
O114 O 0.47938 0.33537 0.88897 0.0
O115 O 0.55912 0.31617 0.90019 0.0
O116 O 0.5732 0.35177 0.96837 0.0
C117 C 0.57671 0.38491 0.99704 0.0
C118 C 0.64499 0.42109 0.85166 0.0
O119 O 0.59789 0.44606 0.99416 0.0
C120 C 0.59151 0.55655 0.88593 0.0
O121 O 0.68978 0.45081 0.95193 0.0
O122 O 0.68181 0.53916 0.94767 0.0
O123 O 0.58639 0.40928 0.8479 0.0
O124 O 0.66813 0.42232 0.88364 0.0
C125 C 0.46109 0.43877 0.94148 0.0
O126 O 0.58828 0.55286 0.92164 0.0
O127 O 0.58003 0.5075 0.86658 0.0
C128 C 0.71607 0.51241 0.95176 0.0
O129 O 0.50643 0.45413 0.96467 0.0
O130 O 0.47061 0.43549 0.90631 0.0
C131 C 0.50051 0.2961 0.89131 0.0
H132 H 0.28471 0.5483 0.1773 0.0
H133 H 0.12378 0.55094 0.2343 0.0
H134 H 0.16982 0.54824 0.2955 0.0
H135 H 0.26232 0.55621 0.33235 0.0
H136 H 0.422 0.55321 0.27326 0.0
H137 H 0.36965 0.54467 0.21344 0.0
C138 C 0.25933 0.54767 0.20313 0.0
C139 C 0.20159 0.55082 0.20139 0.0
C140 C 0.28618 0.5466 0.23786 0.0
C141 C 0.16847 0.54868 0.23499 0.0
C142 C 0.19501 0.54755 0.26993 0.0
C143 C 0.28522 0.55291 0.30642 0.0
C144 C 0.34673 0.55664 0.3074 0.0
C145 C 0.25484 0.54821 0.2717 0.0
C146 C 0.37528 0.55156 0.27348 0.0
C147 C 0.34538 0.5466 0.23913 0.0
H148 H 0.71955 0.2992 0.34162 0.0
H149 H 0.58268 0.11912 0.39827 0.0
H150 H 0.63638 0.1646 0.45836 0.0
H151 H 0.71785 0.25862 0.49512 0.0
H152 H 0.8543 0.43774 0.43697 0.0
H153 H 0.80514 0.3891 0.37709 0.0
C154 C 0.70148 0.2698 0.3671 0.0
C155 C 0.64672 0.20644 0.36571 0.0
C156 C 0.73238 0.29608 0.40127 0.0
C157 C 0.62467 0.1683 0.39874 0.0
C158 C 0.6552 0.1943 0.43307 0.0
C159 C 0.73712 0.28679 0.46932 0.0
C160 C 0.78906 0.35202 0.47067 0.0
C161 C 0.70845 0.25861 0.43475 0.0
C162 C 0.81397 0.38762 0.4369 0.0
C163 C 0.78587 0.35995 0.40255 0.0
H164 H 0.46545 0.84721 0.60872 0.0
H165 H 0.48282 0.70861 0.67976 0.0
H166 H 0.48834 0.65059 0.62443 0.0
H167 H 0.47897 0.63346 0.55616 0.0
H168 H 0.46291 0.77253 0.48491 0.0
H169 H 0.46674 0.83601 0.53997 0.0
C170 C 0.47116 0.80476 0.61212 0.0
C171 C 0.47267 0.78191 0.64842 0.0
C172 C 0.47413 0.77123 0.58012 0.0
C173 C 0.48088 0.72715 0.65221 0.0
C174 C 0.48391 0.69368 0.62055 0.0
C175 C 0.47692 0.67797 0.55262 0.0
C176 C 0.46977 0.69755 0.51647 0.0
C177 C 0.47905 0.71437 0.58441 0.0
C178 C 0.46803 0.75591 0.5124 0.0
C179 C 0.47004 0.7923 0.54391 0.0
H180 H 0.63079 0.45267 0.7803 0.0
H181 H 0.75046 0.4035 0.84829 0.0
H182 H 0.81554 0.40969 0.793 0.0
H183 H 0.83537 0.42399 0.7248 0.0
H184 H 0.71717 0.47581 0.65712 0.0
H185 H 0.6555 0.47439 0.71284 0.0
C186 C 0.67111 0.44332 0.78296 0.0
C187 C 0.68526 0.427 0.81819 0.0
C188 C 0.70889 0.44761 0.75113 0.0
C189 C 0.73836 0.41604 0.8214 0.0
C190 C 0.77568 0.41952 0.7898 0.0
C191 C 0.79667 0.43573 0.72229 0.0
C192 C 0.78058 0.44919 0.68675 0.0
C193 C 0.76103 0.4347 0.75446 0.0
C194 C 0.73033 0.46458 0.68408 0.0
C195 C 0.6948 0.46369 0.71592 0.0
H196 H 0.15984 0.61737 0.94186 0.0
H197 H 0.32369 0.72816 0.01535 0.0
H198 H 0.38802 0.79877 0.96324 0.0
H199 H 0.40186 0.82317 0.89597 0.0
H200 H 0.24027 0.71131 0.82126 0.0
H201 H 0.17117 0.64797 0.87452 0.0
C202 C 0.20928 0.65747 0.94643 0.0
C203 C 0.23727 0.66674 0.98219 0.0
C204 C 0.24678 0.69765 0.91608 0.0
C205 C 0.30138 0.71913 0.98784 0.0
C206 C 0.33829 0.75977 0.95811 0.0
C207 C 0.35128 0.7856 0.89135 0.0
C208 C 0.32669 0.77157 0.85466 0.0
C209 C 0.31212 0.74852 0.92194 0.0
C210 C 0.26082 0.72272 0.84924 0.0
C211 C 0.22117 0.68633 0.87967 0.0
H212 H 0.59187 0.30593 0.16397 0.0
H213 H 0.52496 0.11818 0.11135 0.0
H214 H 0.51541 0.1628 0.05125 0.0
H215 H 0.5337 0.25694 0.01296 0.0
H216 H 0.60217 0.44494 0.06571 0.0
H217 H 0.60257 0.39782 0.12672 0.0
C218 C 0.57501 0.27459 0.13941 0.0
C219 C 0.56017 0.20909 0.14202 0.0
C220 C 0.5699 0.30055 0.10502 0.0
C221 C 0.53722 0.16891 0.11006 0.0
C222 C 0.5318 0.1944 0.07569 0.0
C223 C 0.54821 0.2876 0.03782 0.0
C224 C 0.56873 0.35465 0.03463 0.0
C225 C 0.54916 0.26044 0.07273 0.0
C226 C 0.58652 0.39333 0.06726 0.0
C227 C 0.58702 0.36649 0.10216 0.0
H228 H 0.42171 0.4258 0.01456 0.0
H229 H 0.3611 0.43948 0.90234 0.0
H230 H 0.2685 0.44662 0.92886 0.0
H231 H 0.21308 0.46212 0.98411 0.0
H232 H 0.27962 0.45547 0.09589 0.0
H233 H 0.36132 0.43179 0.06924 0.0
C234 C 0.388 0.42971 0.99571 0.0
C235 C 0.39909 0.433 0.9564 0.0
C236 C 0.33602 0.43532 0.01116 0.0
C237 C 0.35407 0.43703 0.93262 0.0
C238 C 0.30125 0.44144 0.94783 0.0
C239 C 0.24437 0.45393 0.00273 0.0
C240 C 0.24018 0.46067 0.04207 0.0
C241 C 0.29283 0.44244 0.98709 0.0
C242 C 0.28178 0.45068 0.06562 0.0
C243 C 0.32873 0.43744 0.05036 0.0
H244 H 0.98758 0.4258 0.1794 0.0
H245 H 0.93298 0.32504 0.07309 0.0
H246 H 0.83452 0.23427 0.10285 0.0
H247 H 0.75671 0.19292 0.15694 0.0
H248 H 0.81143 0.29844 0.2621 0.0
H249 H 0.9177 0.37774 0.23503 0.0
C250 C 0.95468 0.38331 0.16288 0.0
C251 C 0.96677 0.38227 0.12406 0.0
C252 C 0.89799 0.33263 0.17994 0.0
C253 C 0.92458 0.32678 0.10303 0.0
C254 C 0.86809 0.27528 0.12 0.0
C255 C 0.79243 0.23238 0.17423 0.0
C256 C 0.7756 0.2402 0.21142 0.0
C257 C 0.85311 0.27893 0.15814 0.0
C258 C 0.82266 0.29161 0.23335 0.0
C259 C 0.88343 0.33712 0.21785 0.0
H260 H 0.56093 0.8256 0.3998 0.0
H261 H 0.57757 0.72606 0.30241 0.0
H262 H 0.60842 0.82291 0.26318 0.0
H263 H 0.60785 0.92712 0.25513 0.0
H264 H 0.58837 0.02338 0.35355 0.0
H265 H 0.58369 0.93819 0.39402 0.0
C266 C 0.5739 0.82634 0.37028 0.0
C267 C 0.56715 0.76952 0.35381 0.0
C268 C 0.59045 0.88153 0.34803 0.0
C269 C 0.5833 0.77002 0.31557 0.0
C270 C 0.60019 0.82507 0.29311 0.0
C271 C 0.60527 0.93047 0.28551 0.0
C272 C 0.59767 0.9807 0.30144 0.0
C273 C 0.60079 0.88001 0.30871 0.0
C274 C 0.59372 0.98464 0.34078 0.0
C275 C 0.59064 0.93577 0.36394 0.0
H276 H 0.81227 0.54407 0.47529 0.0
H277 H 0.76582 0.58116 0.58692 0.0
H278 H 0.69077 0.61377 0.56085 0.0
H279 H 0.626 0.61399 0.50751 0.0
H280 H 0.66638 0.56858 0.39603 0.0
H281 H 0.75686 0.55798 0.42059 0.0
C282 C 0.78761 0.56197 0.4936 0.0
C283 C 0.79523 0.56181 0.53278 0.0
C284 C 0.74248 0.57769 0.47846 0.0
C285 C 0.7616 0.5826 0.55662 0.0
C286 C 0.71814 0.60033 0.54172 0.0
C287 C 0.65521 0.60284 0.48839 0.0
C288 C 0.6385 0.59092 0.45005 0.0
C289 C 0.70618 0.59535 0.50285 0.0
C290 C 0.67763 0.57745 0.42569 0.0
C291 C 0.72932 0.57116 0.43975 0.0
H292 H 0.27902 0.80225 0.64119 0.0
H293 H 0.20669 0.74088 0.7544 0.0
H294 H 0.09752 0.6638 0.73059 0.0
H295 H 0.02752 0.60388 0.67747 0.0
H296 H 0.10118 0.66054 0.56369 0.0
H297 H 0.20432 0.74974 0.58764 0.0
C298 C 0.23853 0.77357 0.66052 0.0
C299 C 0.25003 0.77781 0.69945 0.0
C300 C 0.17651 0.72764 0.64646 0.0
C301 C 0.19821 0.73907 0.72437 0.0
C302 C 0.1361 0.69459 0.71072 0.0
C303 C 0.06568 0.63626 0.65781 0.0
C304 C 0.05667 0.62471 0.61879 0.0
C305 C 0.12533 0.68682 0.67178 0.0
C306 C 0.10666 0.66781 0.59385 0.0
C307 C 0.16588 0.71884 0.60754 0.0
H308 H 0.48072 0.26614 0.81747 0.0
H309 H 0.44479 0.17986 0.92821 0.0
H310 H 0.41033 0.07244 0.90056 0.0
H311 H 0.40607 0.00754 0.84585 0.0
H312 H 0.45188 0.0954 0.735 0.0
H313 H 0.46553 0.19725 0.76146 0.0
C314 C 0.46298 0.22314 0.83533 0.0
C315 C 0.46371 0.23019 0.87476 0.0
C316 C 0.44613 0.16217 0.81918 0.0
C317 C 0.44313 0.175 0.89783 0.0
C318 C 0.42413 0.11386 0.88199 0.0
C319 C 0.41797 0.04849 0.82723 0.0
C320 C 0.42869 0.04377 0.78842 0.0
C321 C 0.42777 0.10743 0.84281 0.0
C322 C 0.44343 0.09741 0.7649 0.0
C323 C 0.45166 0.1559 0.7801 0.0
H324 H 0.56814 0.74232 0.7689 0.0
H325 H 0.54164 0.82782 0.86983 0.0
H326 H 0.56856 0.75881 0.90852 0.0
H327 H 0.58434 0.66259 0.91327 0.0
H328 H 0.61422 0.58121 0.81095 0.0
H329 H 0.60272 0.66052 0.77355 0.0
C330 C 0.57064 0.74736 0.79932 0.0
C331 C 0.55382 0.7904 0.81655 0.0
C332 C 0.58583 0.70737 0.82127 0.0
C333 C 0.55584 0.79584 0.85599 0.0
C334 C 0.57044 0.75579 0.87811 0.0
C335 C 0.58991 0.66325 0.88289 0.0
C336 C 0.5986 0.61465 0.86514 0.0
C337 C 0.58335 0.70964 0.86108 0.0
C338 C 0.60619 0.61689 0.8256 0.0
C339 C 0.59961 0.66237 0.80397 0.0
H340 H 0.99744 0.57478 0.98673 0.0
H341 H 0.94663 0.61766 0.0958 0.0
H342 H 0.84835 0.61227 0.06944 0.0
H343 H 0.76745 0.57526 0.01762 0.0
H344 H 0.81814 0.52759 0.90992 0.0
H345 H 0.92643 0.5563 0.933 0.0
C346 C 0.96563 0.58456 0.0045 0.0
C347 C 0.97861 0.59575 0.04317 0.0
C348 C 0.90902 0.58025 0.98929 0.0
C349 C 0.9376 0.60901 0.06592 0.0
C350 C 0.88114 0.60538 0.05088 0.0
C351 C 0.8035 0.57407 0.9989 0.0
C352 C 0.78563 0.55034 0.962 0.0
C353 C 0.86497 0.58839 0.01292 0.0
C354 C 0.83157 0.54681 0.93819 0.0
C355 C 0.89311 0.56247 0.95153 0.0
H356 H 0.4301 0.98429 0.15618 0.0
H357 H 0.32398 0.93389 0.26191 0.0
H358 H 0.234 0.8351 0.23348 0.0
H359 H 0.19553 0.75504 0.18147 0.0
H360 H 0.30602 0.8056 0.07687 0.0
H361 H 0.3839 0.91297 0.10177 0.0
C362 C 0.38656 0.95227 0.17275 0.0
C363 C 0.38377 0.96536 0.2111 0.0
C364 C 0.33628 0.89537 0.1565 0.0
C365 C 0.327 0.92449 0.23229 0.0
C366 C 0.27595 0.86783 0.21611 0.0
C367 C 0.23569 0.79017 0.1638 0.0
C368 C 0.2457 0.77187 0.12762 0.0
C369 C 0.2814 0.85146 0.17866 0.0
C370 C 0.29784 0.81806 0.10503 0.0
C371 C 0.34249 0.87944 0.11925 0.0
H372 H 0.46792 0.20772 0.35637 0.0
H373 H 0.45075 0.26726 0.24427 0.0
H374 H 0.42174 0.34517 0.27063 0.0
H375 H 0.41606 0.40562 0.32463 0.0
H376 H 0.44601 0.35602 0.4368 0.0
H377 H 0.45363 0.26355 0.41137 0.0
C378 C 0.45611 0.23657 0.33775 0.0
C379 C 0.46118 0.23175 0.29839 0.0
C380 C 0.4425 0.28335 0.35314 0.0
C381 C 0.44707 0.27021 0.27458 0.0
C382 C 0.43077 0.31484 0.28966 0.0
C383 C 0.42345 0.37425 0.34378 0.0
C384 C 0.43152 0.38853 0.38261 0.0
C385 C 0.43065 0.32334 0.32881 0.0
C386 C 0.43998 0.3465 0.40684 0.0
C387 C 0.44476 0.29387 0.39224 0.0
H388 H 0.11209 0.46807 0.57979 0.0
H389 H 0.98358 0.3775 0.48577 0.0
H390 H 0.07447 0.38633 0.44793 0.0
H391 H 0.19374 0.43591 0.43815 0.0
H392 H 0.32298 0.52713 0.53147 0.0
H393 H 0.22937 0.50179 0.57288 0.0
C394 C 0.10368 0.44832 0.55149 0.0
C395 C 0.04136 0.42293 0.53551 0.0
C396 C 0.15676 0.45473 0.52943 0.0
C397 C 0.03133 0.39795 0.49862 0.0
C398 C 0.08336 0.40326 0.47682 0.0
C399 C 0.20086 0.4483 0.46782 0.0
C400 C 0.26459 0.4828 0.48196 0.0
C401 C 0.1468 0.43406 0.49136 0.0
C402 C 0.27389 0.49978 0.52025 0.0
C403 C 0.22046 0.48569 0.54385 0.0
H404 H 0.62651 0.01592 0.66257 0.0
H405 H 0.64998 0.10616 0.77144 0.0
H406 H 0.73553 0.21089 0.74526 0.0
H407 H 0.79277 0.27996 0.68936 0.0
H408 H 0.76419 0.19009 0.58033 0.0
H409 H 0.69192 0.08202 0.60852 0.0
C410 C 0.65106 0.05816 0.68083 0.0
C411 C 0.63114 0.05304 0.71895 0.0
C412 C 0.69915 0.11849 0.66538 0.0
C413 C 0.66413 0.10836 0.7421 0.0
C414 C 0.71282 0.1685 0.72704 0.0
C415 C 0.77225 0.23624 0.67212 0.0
C416 C 0.78452 0.24238 0.63298 0.0
C417 C 0.72928 0.17459 0.68847 0.0
C418 C 0.75632 0.18607 0.61058 0.0
C419 C 0.71461 0.12449 0.62668 0.0
loop_
_geom_bond_atom_site_label_1
_geom_bond_atom_site_label_2
_geom_bond_distance
_geom_bond_site_symmetry_2
_ccdc_geom_bond_type
Fe0 O2 1.918 . S
Fe0 O5 1.997 . S
Fe0 O6 2.002 . S
Fe0 O11 1.976 . S
Fe0 O14 1.996 . S
Fe1 O2 1.918 . S
Fe1 O9 1.997 . S
Fe1 O12 1.996 . S
Fe1 O16 1.976 . S
Fe1 O19 2.002 . S
O2 Fe0 1.918 . S
O2 Fe1 1.918 . S
O2 Fe3 1.918 . S
Fe3 O2 1.918 . S
Fe3 O4 2.002 . S
Fe3 O13 1.976 . S
Fe3 O17 1.996 . S
Fe3 O20 1.997 . S
O4 Fe3 2.002 . S
O4 C21 1.295 . S
O5 Fe0 1.997 . S
O5 C21 1.235 . S
O6 Fe0 2.002 . S
O6 C7 1.295 . S
C7 O6 1.295 . S
C7 O9 1.235 . S
C8 O13 1.287 . S
C8 O14 1.255 . S
O9 Fe1 1.997 . S
O9 C7 1.235 . S
C10 O16 1.287 . S
C10 O17 1.255 . S
O11 Fe0 1.976 . S
O11 C18 1.287 . S
O12 Fe1 1.996 . S
O12 C18 1.255 . S
O13 Fe3 1.976 . S
O13 C8 1.287 . S
O14 Fe0 1.996 . S
O14 C8 1.255 . S
C15 O19 1.295 . S
C15 O20 1.235 . S
O16 Fe1 1.976 . S
O16 C10 1.287 . S
O17 Fe3 1.996 . S
O17 C10 1.255 . S
C18 O11 1.287 . S
C18 O12 1.255 . S
O19 Fe1 2.002 . S
O19 C15 1.295 . S
O20 Fe3 1.997 . S
O20 C15 1.235 . S
C21 O4 1.295 . S
C21 O5 1.235 . S
Fe22 O24 1.918 . S
Fe22 O27 1.997 . S
Fe22 O28 2.002 . S
Fe22 O33 1.976 . S
Fe22 O36 1.996 . S
Fe23 O24 1.918 . S
Fe23 O31 1.997 . S
Fe23 O34 1.996 . S
Fe23 O38 1.976 . S
Fe23 O41 2.002 . S
O24 Fe22 1.918 . S
O24 Fe23 1.918 . S
O24 Fe25 1.918 . S
Fe25 O24 1.918 . S
Fe25 O26 2.002 . S
Fe25 O35 1.976 . S
Fe25 O39 1.996 . S
Fe25 O42 1.997 . S
O26 Fe25 2.002 . S
O26 C43 1.295 . S
O27 Fe22 1.997 . S
O27 C43 1.235 . S
O28 Fe22 2.002 . S
O28 C29 1.295 . S
C29 O28 1.295 . S
C29 O31 1.235 . S
C30 O35 1.287 . S
C30 O36 1.255 . S
O31 Fe23 1.997 . S
O31 C29 1.235 . S
C32 O38 1.287 . S
C32 O39 1.255 . S
O33 Fe22 1.976 . S
O33 C40 1.287 . S
O34 Fe23 1.996 . S
O34 C40 1.255 . S
O35 Fe25 1.976 . S
O35 C30 1.287 . S
O36 Fe22 1.996 . S
O36 C30 1.255 . S
C37 O41 1.295 . S
C37 O42 1.235 . S
O38 Fe23 1.976 . S
O38 C32 1.287 . S
O39 Fe25 1.996 . S
O39 C32 1.255 . S
C40 O33 1.287 . S
C40 O34 1.255 . S
O41 Fe23 2.002 . S
O41 C37 1.295 . S
O42 Fe25 1.997 . S
O42 C37 1.235 . S
C43 O26 1.295 . S
C43 O27 1.235 . S
Fe44 O46 1.918 . S
Fe44 O49 1.997 . S
Fe44 O50 2.002 . S
Fe44 O55 1.976 . S
Fe44 O58 1.996 . S
Fe45 O46 1.918 . S
Fe45 O53 1.997 . S
Fe45 O56 1.996 . S
Fe45 O60 1.976 . S
Fe45 O63 2.002 . S
O46 Fe44 1.918 . S
O46 Fe45 1.918 . S
O46 Fe47 1.918 . S
Fe47 O46 1.918 . S
Fe47 O48 2.002 . S
Fe47 O57 1.976 . S
Fe47 O61 1.996 . S
Fe47 O64 1.997 . S
O48 Fe47 2.002 . S
O48 C65 1.295 . S
O49 Fe44 1.997 . S
O49 C65 1.235 . S
O50 Fe44 2.002 . S
O50 C51 1.295 . S
C51 O50 1.295 . S
C51 O53 1.235 . S
C52 O57 1.287 . S
C52 O58 1.255 . S
O53 Fe45 1.997 . S
O53 C51 1.235 . S
C54 O60 1.287 . S
C54 O61 1.255 . S
O55 Fe44 1.976 . S
O55 C62 1.287 . S
O56 Fe45 1.996 . S
O56 C62 1.255 . S
O57 Fe47 1.976 . S
O57 C52 1.287 . S
O58 Fe44 1.996 . S
O58 C52 1.255 . S
C59 O63 1.295 . S
C59 O64 1.235 . S
O60 Fe45 1.976 . S
O60 C54 1.287 . S
O61 Fe47 1.996 . S
O61 C54 1.255 . S
C62 O55 1.287 . S
C62 O56 1.255 . S
O63 Fe45 2.002 . S
O63 C59 1.295 . S
O64 Fe47 1.997 . S
O64 C59 1.235 . S
C65 O48 1.295 . S
C65 O49 1.235 . S
Fe66 O68 1.918 . S
Fe66 O71 1.997 . S
Fe66 O72 2.002 . S
Fe66 O77 1.976 . S
Fe66 O80 1.996 . S
Fe67 O68 1.918 . S
Fe67 O75 1.997 . S
Fe67 O78 1.996 . S
Fe67 O82 1.976 . S
Fe67 O85 2.002 . S
O68 Fe66 1.918 . S
O68 Fe67 1.918 . S
O68 Fe69 1.918 . S
Fe69 O68 1.918 . S
Fe69 O70 2.002 . S
Fe69 O79 1.976 . S
Fe69 O83 1.996 . S
Fe69 O86 1.997 . S
O70 Fe69 2.002 . S
O70 C87 1.295 . S
O71 Fe66 1.997 . S
O71 C87 1.235 . S
O72 Fe66 2.002 . S
O72 C73 1.295 . S
C73 O72 1.295 . S
C73 O75 1.235 . S
C74 O79 1.287 . S
C74 O80 1.255 . S
O75 Fe67 1.997 . S
O75 C73 1.235 . S
C76 O82 1.287 . S
C76 O83 1.255 . S
O77 Fe66 1.976 . S
O77 C84 1.287 . S
O78 Fe67 1.996 . S
O78 C84 1.255 . S
O79 Fe69 1.976 . S
O79 C74 1.287 . S
O80 Fe66 1.996 . S
O80 C74 1.255 . S
C81 O85 1.295 . S
C81 O86 1.235 . S
O82 Fe67 1.976 . S
O82 C76 1.287 . S
O83 Fe69 1.996 . S
O83 C76 1.255 . S
C84 O77 1.287 . S
C84 O78 1.255 . S
O85 Fe67 2.002 . S
O85 C81 1.295 . S
O86 Fe69 1.997 . S
O86 C81 1.235 . S
C87 O70 1.295 . S
C87 O71 1.235 . S
Fe88 O90 1.918 . S
Fe88 O93 1.997 . S
Fe88 O94 2.002 . S
Fe88 O99 1.976 . S
Fe88 O102 1.996 . S
Fe89 O90 1.918 . S
Fe89 O97 1.997 . S
Fe89 O100 1.996 . S
Fe89 O104 1.976 . S
Fe89 O107 2.002 . S
O90 Fe88 1.918 . S
O90 Fe89 1.918 . S
O90 Fe91 1.918 . S
Fe91 O90 1.918 . S
Fe91 O92 2.002 . S
Fe91 O101 1.976 . S
Fe91 O105 1.996 . S
Fe91 O108 1.997 . S
O92 Fe91 2.002 . S
O92 C109 1.295 . S
O93 Fe88 1.997 . S
O93 C109 1.235 . S
O94 Fe88 2.002 . S
O94 C95 1.295 . S
C95 O94 1.295 . S
C95 O97 1.235 . S
C96 O101 1.287 . S
C96 O102 1.255 . S
O97 Fe89 1.997 . S
O97 C95 1.235 . S
C98 O104 1.287 . S
C98 O105 1.255 . S
O99 Fe88 1.976 . S
O99 C106 1.287 . S
O100 Fe89 1.996 . S
O100 C106 1.255 . S
O101 Fe91 1.976 . S
O101 C96 1.287 . S
O102 Fe88 1.996 . S
O102 C96 1.255 . S
C103 O107 1.295 . S
C103 O108 1.235 . S
O104 Fe89 1.976 . S
O104 C98 1.287 . S
O105 Fe91 1.996 . S
O105 C98 1.255 . S
C106 O99 1.287 . S
C106 O100 1.255 . S
O107 Fe89 2.002 . S
O107 C103 1.295 . S
O108 Fe91 1.997 . S
O108 C103 1.235 . S
C109 O92 1.295 . S
C109 O93 1.235 . S
Fe110 O112 1.918 . S
Fe110 O115 1.997 . S
Fe110 O116 2.002 . S
Fe110 O121 1.976 . S
Fe110 O124 1.996 . S
Fe111 O112 1.918 . S
Fe111 O119 1.997 . S
Fe111 O122 1.996 . S
Fe111 O126 1.976 . S
Fe111 O129 2.002 . S
O112 Fe110 1.918 . S
O112 Fe111 1.918 . S
O112 Fe113 1.918 . S
Fe113 O112 1.918 . S
Fe113 O114 2.002 . S
Fe113 O123 1.976 . S
Fe113 O127 1.996 . S
Fe113 O130 1.997 . S
O114 Fe113 2.002 . S
O114 C131 1.295 . S
O115 Fe110 1.997 . S
O115 C131 1.235 . S
O116 Fe110 2.002 . S
O116 C117 1.295 . S
C117 O116 1.295 . S
C117 O119 1.235 . S
C118 O123 1.287 . S
C118 O124 1.255 . S
O119 Fe111 1.997 . S
O119 C117 1.235 . S
C120 O126 1.287 . S
C120 O127 1.255 . S
O121 Fe110 1.976 . S
O121 C128 1.287 . S
O122 Fe111 1.996 . S
O122 C128 1.255 . S
O123 Fe113 1.976 . S
O123 C118 1.287 . S
O124 Fe110 1.996 . S
O124 C118 1.255 . S
C125 O129 1.295 . S
C125 O130 1.235 . S
O126 Fe111 1.976 . S
O126 C120 1.287 . S
O127 Fe113 1.996 . S
O127 C120 1.255 . S
C128 O121 1.287 . S
C128 O122 1.255 . S
O129 Fe111 2.002 . S
O129 C125 1.295 . S
O130 Fe113 1.997 . S
O130 C125 1.235 . S
C131 O114 1.295 . S
C131 O115 1.235 . S
H132 C138 0.930 . S
H133 C141 0.930 . S
H134 C142 0.930 . S
H135 C143 0.930 . S
H136 C146 0.930 . S
H137 C147 0.930 . S
C138 H132 0.930 . S
C138 C139 1.355 . S
C138 C140 1.415 . S
C139 C138 1.355 . S
C139 C141 1.419 . S
C140 C138 1.415 . S
C140 C145 1.425 . S
C140 C147 1.409 . S
C141 H133 0.930 . S
C141 C139 1.419 . S
C141 C142 1.362 . S
C142 H134 0.930 . S
C142 C141 1.362 . S
C142 C145 1.409 . S
C143 H135 0.930 . S
C143 C144 1.355 . S
C143 C145 1.415 . S
C144 C143 1.355 . S
C144 C146 1.419 . S
C145 C140 1.425 . S
C145 C142 1.409 . S
C145 C143 1.415 . S
C146 H136 0.930 . S
C146 C144 1.419 . S
C146 C147 1.362 . S
C147 H137 0.930 . S
C147 C140 1.409 . S
C147 C146 1.362 . S
H148 C154 0.930 . S
H149 C157 0.930 . S
H150 C158 0.930 . S
H151 C159 0.930 . S
H152 C162 0.930 . S
H153 C163 0.930 . S
C154 H148 0.930 . S
C154 C155 1.355 . S
C154 C156 1.415 . S
C155 C154 1.355 . S
C155 C157 1.419 . S
C156 C154 1.415 . S
C156 C161 1.425 . S
C156 C163 1.409 . S
C157 H149 0.930 . S
C157 C155 1.419 . S
C157 C158 1.362 . S
C158 H150 0.930 . S
C158 C157 1.362 . S
C158 C161 1.409 . S
C159 H151 0.930 . S
C159 C160 1.355 . S
C159 C161 1.415 . S
C160 C159 1.355 . S
C160 C162 1.419 . S
C161 C156 1.425 . S
C161 C158 1.409 . S
C161 C159 1.415 . S
C162 H152 0.930 . S
C162 C160 1.419 . S
C162 C163 1.362 . S
C163 H153 0.930 . S
C163 C156 1.409 . S
C163 C162 1.362 . S
H164 C170 0.930 . S
H165 C173 0.930 . S
H166 C174 0.930 . S
H167 C175 0.930 . S
H168 C178 0.930 . S
H169 C179 0.930 . S
C170 H164 0.930 . S
C170 C171 1.355 . S
C170 C172 1.415 . S
C171 C170 1.355 . S
C171 C173 1.419 . S
C172 C170 1.415 . S
C172 C177 1.425 . S
C172 C179 1.409 . S
C173 H165 0.930 . S
C173 C171 1.419 . S
C173 C174 1.362 . S
C174 H166 0.930 . S
C174 C173 1.362 . S
C174 C177 1.409 . S
C175 H167 0.930 . S
C175 C176 1.355 . S
C175 C177 1.415 . S
C176 C175 1.355 . S
C176 C178 1.419 . S
C177 C172 1.425 . S
C177 C174 1.409 . S
C177 C175 1.415 . S
C178 H168 0.930 . S
C178 C176 1.419 . S
C178 C179 1.362 . S
C179 H169 0.930 . S
C179 C172 1.409 . S
C179 C178 1.362 . S
H180 C186 0.930 . S
H181 C189 0.930 . S
H182 C190 0.930 . S
H183 C191 0.930 . S
H184 C194 0.930 . S
H185 C195 0.930 . S
C186 H180 0.930 . S
C186 C187 1.355 . S
C186 C188 1.415 . S
C187 C186 1.355 . S
C187 C189 1.419 . S
C188 C186 1.415 . S
C188 C193 1.425 . S
C188 C195 1.409 . S
C189 H181 0.930 . S
C189 C187 1.419 . S
C189 C190 1.362 . S
C190 H182 0.930 . S
C190 C189 1.362 . S
C190 C193 1.409 . S
C191 H183 0.930 . S
C191 C192 1.355 . S
C191 C193 1.415 . S
C192 C191 1.355 . S
C192 C194 1.419 . S
C193 C188 1.425 . S
C193 C190 1.409 . S
C193 C191 1.415 . S
C194 H184 0.930 . S
C194 C192 1.419 . S
C194 C195 1.362 . S
C195 H185 0.930 . S
C195 C188 1.409 . S
C195 C194 1.362 . S
H196 C202 0.930 . S
H197 C205 0.930 . S
H198 C206 0.930 . S
H199 C207 0.930 . S
H200 C210 0.930 . S
H201 C211 0.930 . S
C202 H196 0.930 . S
C202 C203 1.355 . S
C202 C204 1.415 . S
C203 C202 1.355 . S
C203 C205 1.419 . S
C204 C202 1.415 . S
C204 C209 1.425 . S
C204 C211 1.409 . S
C205 H197 0.930 . S
C205 C203 1.419 . S
C205 C206 1.362 . S
C206 H198 0.930 . S
C206 C205 1.362 . S
C206 C209 1.409 . S
C207 H199 0.930 . S
C207 C208 1.355 . S
C207 C209 1.415 . S
C208 C207 1.355 . S
C208 C210 1.419 . S
C209 C204 1.425 . S
C209 C206 1.409 . S
C209 C207 1.415 . S
C210 H200 0.930 . S
C210 C208 1.419 . S
C210 C211 1.362 . S
C211 H201 0.930 . S
C211 C204 1.409 . S
C211 C210 1.362 . S
H212 C218 0.930 . S
H213 C221 0.930 . S
H214 C222 0.930 . S
H215 C223 0.930 . S
H216 C226 0.930 . S
H217 C227 0.930 . S
C218 H212 0.930 . S
C218 C219 1.355 . S
C218 C220 1.415 . S
C219 C218 1.355 . S
C219 C221 1.419 . S
C220 C218 1.415 . S
C220 C225 1.425 . S
C220 C227 1.409 . S
C221 H213 0.930 . S
C221 C219 1.419 . S
C221 C222 1.362 . S
C222 H214 0.930 . S
C222 C221 1.362 . S
C222 C225 1.409 . S
C223 H215 0.930 . S
C223 C224 1.355 . S
C223 C225 1.415 . S
C224 C223 1.355 . S
C224 C226 1.419 . S
C225 C220 1.425 . S
C225 C222 1.409 . S
C225 C223 1.415 . S
C226 H216 0.930 . S
C226 C224 1.419 . S
C226 C227 1.362 . S
C227 H217 0.930 . S
C227 C220 1.409 . S
C227 C226 1.362 . S
H228 C234 0.930 . S
H229 C237 0.930 . S
H230 C238 0.930 . S
H231 C239 0.930 . S
H232 C242 0.930 . S
H233 C243 0.930 . S
C234 H228 0.930 . S
C234 C235 1.355 . S
C234 C236 1.415 . S
C235 C234 1.355 . S
C235 C237 1.419 . S
C236 C234 1.415 . S
C236 C241 1.425 1_556 S
C236 C243 1.409 . S
C237 H229 0.930 . S
C237 C235 1.419 . S
C237 C238 1.362 1_556 S
C238 H230 0.930 . S
C238 C237 1.362 1_554 S
C238 C241 1.409 . S
C239 H231 0.930 . S
C239 C240 1.355 . S
C239 C241 1.415 . S
C240 C239 1.355 . S
C240 C242 1.419 . S
C241 C236 1.425 1_554 S
C241 C238 1.409 . S
C241 C239 1.415 . S
C242 H232 0.930 . S
C242 C240 1.419 . S
C242 C243 1.362 1_554 S
C243 H233 0.930 . S
C243 C236 1.409 . S
C243 C242 1.362 1_556 S
H244 C250 0.930 . S
H245 C253 0.930 1_455 S
H246 C254 0.930 . S
H247 C255 0.930 . S
H248 C258 0.930 . S
H249 C259 0.930 . S
C250 H244 0.930 . S
C250 C251 1.355 . S
C250 C252 1.415 . S
C251 C250 1.355 . S
C251 C253 1.419 . S
C252 C250 1.415 . S
C252 C257 1.425 . S
C252 C259 1.409 . S
C253 H245 0.930 1_655 S
C253 C251 1.419 . S
C253 C254 1.362 . S
C254 H246 0.930 . S
C254 C253 1.362 . S
C254 C257 1.409 . S
C255 H247 0.930 . S
C255 C256 1.355 . S
C255 C257 1.415 . S
C256 C255 1.355 . S
C256 C258 1.419 . S
C257 C252 1.425 . S
C257 C254 1.409 . S
C257 C255 1.415 . S
C258 H248 0.930 . S
C258 C256 1.419 . S
C258 C259 1.362 . S
C259 H249 0.930 . S
C259 C252 1.409 . S
C259 C258 1.362 . S
H260 C266 0.930 . S
H261 C269 0.930 . S
H262 C270 0.930 . S
H263 C271 0.930 . S
H264 C274 0.930 1_545 S
H265 C275 0.930 . S
C266 H260 0.930 . S
C266 C267 1.355 . S
C266 C268 1.415 . S
C267 C266 1.355 . S
C267 C269 1.419 . S
C268 C266 1.415 . S
C268 C273 1.425 . S
C268 C275 1.409 . S
C269 H261 0.930 . S
C269 C267 1.419 . S
C269 C270 1.362 . S
C270 H262 0.930 . S
C270 C269 1.362 . S
C270 C273 1.409 . S
C271 H263 0.930 . S
C271 C272 1.355 . S
C271 C273 1.415 . S
C272 C271 1.355 . S
C272 C274 1.419 . S
C273 C268 1.425 . S
C273 C270 1.409 . S
C273 C271 1.415 . S
C274 H264 0.930 1_565 S
C274 C272 1.419 . S
C274 C275 1.362 . S
C275 H265 0.930 . S
C275 C268 1.409 . S
C275 C274 1.362 . S
H276 C282 0.930 . S
H277 C285 0.930 . S
H278 C286 0.930 . S
H279 C287 0.930 . S
H280 C290 0.930 . S
H281 C291 0.930 . S
C282 H276 0.930 . S
C282 C283 1.355 . S
C282 C284 1.415 . S
C283 C282 1.355 . S
C283 C285 1.419 . S
C284 C282 1.415 . S
C284 C289 1.425 . S
C284 C291 1.409 . S
C285 H277 0.930 . S
C285 C283 1.419 . S
C285 C286 1.362 . S
C286 H278 0.930 . S
C286 C285 1.362 . S
C286 C289 1.409 . S
C287 H279 0.930 . S
C287 C288 1.355 . S
C287 C289 1.415 . S
C288 C287 1.355 . S
C288 C290 1.419 . S
C289 C284 1.425 . S
C289 C286 1.409 . S
C289 C287 1.415 . S
C290 H280 0.930 . S
C290 C288 1.419 . S
C290 C291 1.362 . S
C291 H281 0.930 . S
C291 C284 1.409 . S
C291 C290 1.362 . S
H292 C298 0.930 . S
H293 C301 0.930 . S
H294 C302 0.930 . S
H295 C303 0.930 . S
H296 C306 0.930 . S
H297 C307 0.930 . S
C298 H292 0.930 . S
C298 C299 1.355 . S
C298 C300 1.415 . S
C299 C298 1.355 . S
C299 C301 1.419 . S
C300 C298 1.415 . S
C300 C305 1.425 . S
C300 C307 1.409 . S
C301 H293 0.930 . S
C301 C299 1.419 . S
C301 C302 1.362 . S
C302 H294 0.930 . S
C302 C301 1.362 . S
C302 C305 1.409 . S
C303 H295 0.930 . S
C303 C304 1.355 . S
C303 C305 1.415 . S
C304 C303 1.355 . S
C304 C306 1.419 . S
C305 C300 1.425 . S
C305 C302 1.409 . S
C305 C303 1.415 . S
C306 H296 0.930 . S
C306 C304 1.419 . S
C306 C307 1.362 . S
C307 H297 0.930 . S
C307 C300 1.409 . S
C307 C306 1.362 . S
H308 C314 0.930 . S
H309 C317 0.930 . S
H310 C318 0.930 . S
H311 C319 0.930 . S
H312 C322 0.930 . S
H313 C323 0.930 . S
C314 H308 0.930 . S
C314 C315 1.355 . S
C314 C316 1.415 . S
C315 C314 1.355 . S
C315 C317 1.419 . S
C316 C314 1.415 . S
C316 C321 1.425 . S
C316 C323 1.409 . S
C317 H309 0.930 . S
C317 C315 1.419 . S
C317 C318 1.362 . S
C318 H310 0.930 . S
C318 C317 1.362 . S
C318 C321 1.409 . S
C319 H311 0.930 . S
C319 C320 1.355 . S
C319 C321 1.415 . S
C320 C319 1.355 . S
C320 C322 1.419 . S
C321 C316 1.425 . S
C321 C318 1.409 . S
C321 C319 1.415 . S
C322 H312 0.930 . S
C322 C320 1.419 . S
C322 C323 1.362 . S
C323 H313 0.930 . S
C323 C316 1.409 . S
C323 C322 1.362 . S
H324 C330 0.930 . S
H325 C333 0.930 . S
H326 C334 0.930 . S
H327 C335 0.930 . S
H328 C338 0.930 . S
H329 C339 0.930 . S
C330 H324 0.930 . S
C330 C331 1.355 . S
C330 C332 1.415 . S
C331 C330 1.355 . S
C331 C333 1.419 . S
C332 C330 1.415 . S
C332 C337 1.425 . S
C332 C339 1.409 . S
C333 H325 0.930 . S
C333 C331 1.419 . S
C333 C334 1.362 . S
C334 H326 0.930 . S
C334 C333 1.362 . S
C334 C337 1.409 . S
C335 H327 0.930 . S
C335 C336 1.355 . S
C335 C337 1.415 . S
C336 C335 1.355 . S
C336 C338 1.419 . S
C337 C332 1.425 . S
C337 C334 1.409 . S
C337 C335 1.415 . S
C338 H328 0.930 . S
C338 C336 1.419 . S
C338 C339 1.362 . S
C339 H329 0.930 . S
C339 C332 1.409 . S
C339 C338 1.362 . S
H340 C346 0.930 . S
H341 C349 0.930 1_455 S
H342 C350 0.930 . S
H343 C351 0.930 . S
H344 C354 0.930 . S
H345 C355 0.930 . S
C346 H340 0.930 . S
C346 C347 1.355 . S
C346 C348 1.415 . S
C347 C346 1.355 . S
C347 C349 1.419 . S
C348 C346 1.415 . S
C348 C353 1.425 . S
C348 C355 1.409 1_554 S
C349 H341 0.930 1_655 S
C349 C347 1.419 . S
C349 C350 1.362 . S
C350 H342 0.930 . S
C350 C349 1.362 . S
C350 C353 1.409 . S
C351 H343 0.930 . S
C351 C352 1.355 . S
C351 C353 1.415 1_556 S
C352 C351 1.355 . S
C352 C354 1.419 . S
C353 C348 1.425 . S
C353 C350 1.409 . S
C353 C351 1.415 1_554 S
C354 H344 0.930 . S
C354 C352 1.419 . S
C354 C355 1.362 . S
C355 H345 0.930 . S
C355 C348 1.409 1_556 S
C355 C354 1.362 . S
H356 C362 0.930 1_545 S
H357 C365 0.930 . S
H358 C366 0.930 . S
H359 C367 0.930 . S
H360 C370 0.930 . S
H361 C371 0.930 . S
C362 H356 0.930 1_565 S
C362 C363 1.355 . S
C362 C364 1.415 . S
C363 C362 1.355 . S
C363 C365 1.419 . S
C364 C362 1.415 . S
C364 C369 1.425 . S
C364 C371 1.409 . S
C365 H357 0.930 . S
C365 C363 1.419 . S
C365 C366 1.362 . S
C366 H358 0.930 . S
C366 C365 1.362 . S
C366 C369 1.409 . S
C367 H359 0.930 . S
C367 C368 1.355 . S
C367 C369 1.415 . S
C368 C367 1.355 . S
C368 C370 1.419 . S
C369 C364 1.425 . S
C369 C366 1.409 . S
C369 C367 1.415 . S
C370 H360 0.930 . S
C370 C368 1.419 . S
C370 C371 1.362 . S
C371 H361 0.930 . S
C371 C364 1.409 . S
C371 C370 1.362 . S
H372 C378 0.930 . S
H373 C381 0.930 . S
H374 C382 0.930 . S
H375 C383 0.930 . S
H376 C386 0.930 . S
H377 C387 0.930 . S
C378 H372 0.930 . S
C378 C379 1.355 . S
C378 C380 1.415 . S
C379 C378 1.355 . S
C379 C381 1.419 . S
C380 C378 1.415 . S
C380 C385 1.425 . S
C380 C387 1.409 . S
C381 H373 0.930 . S
C381 C379 1.419 . S
C381 C382 1.362 . S
C382 H374 0.930 . S
C382 C381 1.362 . S
C382 C385 1.409 . S
C383 H375 0.930 . S
C383 C384 1.355 . S
C383 C385 1.415 . S
C384 C383 1.355 . S
C384 C386 1.419 . S
C385 C380 1.425 . S
C385 C382 1.409 . S
C385 C383 1.415 . S
C386 H376 0.930 . S
C386 C384 1.419 . S
C386 C387 1.362 . S
C387 H377 0.930 . S
C387 C380 1.409 . S
C387 C386 1.362 . S
H388 C394 0.930 . S
H389 C397 0.930 1_655 S
H390 C398 0.930 . S
H391 C399 0.930 . S
H392 C402 0.930 . S
H393 C403 0.930 . S
C394 H388 0.930 . S
C394 C395 1.355 . S
C394 C396 1.415 . S
C395 C394 1.355 . S
C395 C397 1.419 . S
C396 C394 1.415 . S
C396 C401 1.425 . S
C396 C403 1.409 . S
C397 H389 0.930 1_455 S
C397 C395 1.419 . S
C397 C398 1.362 . S
C398 H390 0.930 . S
C398 C397 1.362 . S
C398 C401 1.409 . S
C399 H391 0.930 . S
C399 C400 1.355 . S
C399 C401 1.415 . S
C400 C399 1.355 . S
C400 C402 1.419 . S
C401 C396 1.425 . S
C401 C398 1.409 . S
C401 C399 1.415 . S
C402 H392 0.930 . S
C402 C400 1.419 . S
C402 C403 1.362 . S
C403 H393 0.930 . S
C403 C396 1.409 . S
C403 C402 1.362 . S
H404 C410 0.930 1_565 S
H405 C413 0.930 . S
H406 C414 0.930 . S
H407 C415 0.930 . S
H408 C418 0.930 . S
H409 C419 0.930 . S
C410 H404 0.930 1_545 S
C410 C411 1.355 . S
C410 C412 1.415 . S
C411 C410 1.355 . S
C411 C413 1.419 . S
C412 C410 1.415 . S
C412 C417 1.425 . S
C412 C419 1.409 . S
C413 H405 0.930 . S
C413 C411 1.419 . S
C413 C414 1.362 . S
C414 H406 0.930 . S
C414 C413 1.362 . S
C414 C417 1.409 . S
C415 H407 0.930 . S
C415 C416 1.355 . S
C415 C417 1.415 . S
C416 C415 1.355 . S
C416 C418 1.419 . S
C417 C412 1.425 . S
C417 C414 1.409 . S
C417 C415 1.415 . S
C418 H408 0.930 . S
C418 C416 1.419 . S
C418 C419 1.362 . S
C419 H409 0.930 . S
C419 C412 1.409 . S
C419 C418 1.362 . S
C139 C18 0.911 . S
C144 C52 0.894 . S
C155 C37 1.051 . S
C160 C73 1.007 . S
C171 C106 0.958 . S
C176 C51 0.989 . S
C187 C118 0.893 . S
C192 C74 0.910 . S
C203 C15 1.044 1_556 S
C208 C103 1.014 . S
C219 C40 0.974 . S
C224 C117 0.944 1_554 S
C235 C125 1.405 . S
C240 C10 1.371 . S
C251 C8 1.422 1_655 S
C256 C29 1.339 . S
C267 C65 1.366 . S
C272 C43 1.443 1_565 S
C283 C84 1.435 . S
C288 C59 1.369 . S
C299 C95 1.384 . S
C304 C76 1.360 1_455 S
C315 C131 1.413 . S
C320 C109 1.365 1_545 S
C331 C98 1.364 . S
C336 C120 1.333 . S
C347 C21 1.411 1_655 S
C352 C128 1.366 . S
C363 C30 1.420 1_565 S
C368 C7 1.384 . S
C379 C32 1.384 . S
C384 C54 1.328 . S
C395 C81 1.338 1_455 S
C400 C62 1.402 . S
C411 C96 1.418 1_545 S
C416 C87 1.387 . S
