# Generated by pormake.
# Topology lll, (7)-cn, num edge types: 1
# Building blocks:
#     Node 0, Type 0, BuildingBlock: NUHQUE_clean_sbu_2, # of connection points: 7
#     Node 1, Type 0, BuildingBlock: NUHQUE_clean_sbu_2, # of connection points: 7
#     Node 2, Type 0, BuildingBlock: NUHQUE_clean_sbu_2, # of connection points: 7
#     Node 3, Type 0, BuildingBlock: NUHQUE_clean_sbu_2, # of connection points: 7
#     Node 4, Type 0, BuildingBlock: NUHQUE_clean_sbu_2, # of connection points: 7
#     Node 5, Type 0, BuildingBlock: NUHQUE_clean_sbu_2, # of connection points: 7
#     Node 6, Type 0, BuildingBlock: NUHQUE_clean_sbu_2, # of connection points: 7
#     Node 7, Type 0, BuildingBlock: NUHQUE_clean_sbu_2, # of connection points: 7
#     Node 8, Type 0, BuildingBlock: NUHQUE_clean_sbu_2, # of connection points: 7
#     Node 9, Type 0, BuildingBlock: NUHQUE_clean_sbu_2, # of connection points: 7
#     Node 10, Type 0, BuildingBlock: NUHQUE_clean_sbu_2, # of connection points: 7
#     Node 11, Type 0, BuildingBlock: NUHQUE_clean_sbu_2, # of connection points: 7
#     Node 12, Type 0, BuildingBlock: NUHQUE_clean_sbu_2, # of connection points: 7
#     Node 13, Type 0, BuildingBlock: NUHQUE_clean_sbu_2, # of connection points: 7
#     Node 14, Type 0, BuildingBlock: NUHQUE_clean_sbu_2, # of connection points: 7
#     Node 15, Type 0, BuildingBlock: NUHQUE_clean_sbu_2, # of connection points: 7
#     Edge 16, Type (0, 0), BuildingBlock: AJUNOK_clean_linker_0, # of connection points: 2
#     Edge 17, Type (0, 0), BuildingBlock: AJUNOK_clean_linker_0, # of connection points: 2
#     Edge 18, Type (0, 0), BuildingBlock: AJUNOK_clean_linker_0, # of connection points: 2
#     Edge 19, Type (0, 0), BuildingBlock: AJUNOK_clean_linker_0, # of connection points: 2
#     Edge 20, Type (0, 0), BuildingBlock: AJUNOK_clean_linker_0, # of connection points: 2
#     Edge 21, Type (0, 0), BuildingBlock: AJUNOK_clean_linker_0, # of connection points: 2
#     Edge 22, Type (0, 0), BuildingBlock: AJUNOK_clean_linker_0, # of connection points: 2
#     Edge 23, Type (0, 0), BuildingBlock: AJUNOK_clean_linker_0, # of connection points: 2
#     Edge 24, Type (0, 0), BuildingBlock: AJUNOK_clean_linker_0, # of connection points: 2
#     Edge 25, Type (0, 0), BuildingBlock: AJUNOK_clean_linker_0, # of connection points: 2
#     Edge 26, Type (0, 0), BuildingBlock: AJUNOK_clean_linker_0, # of connection points: 2
#     Edge 27, Type (0, 0), BuildingBlock: AJUNOK_clean_linker_0, # of connection points: 2
#     Edge 28, Type (0, 0), BuildingBlock: AJUNOK_clean_linker_0, # of connection points: 2
#     Edge 29, Type (0, 0), BuildingBlock: AJUNOK_clean_linker_0, # of connection points: 2
#     Edge 30, Type (0, 0), BuildingBlock: AJUNOK_clean_linker_0, # of connection points: 2
#     Edge 31, Type (0, 0), BuildingBlock: AJUNOK_clean_linker_0, # of connection points: 2
#     Edge 32, Type (0, 0), BuildingBlock: AJUNOK_clean_linker_0, # of connection points: 2
#     Edge 33, Type (0, 0), BuildingBlock: AJUNOK_clean_linker_0, # of connection points: 2
#     Edge 34, Type (0, 0), BuildingBlock: AJUNOK_clean_linker_0, # of connection points: 2
#     Edge 35, Type (0, 0), BuildingBlock: AJUNOK_clean_linker_0, # of connection points: 2
#     Edge 36, Type (0, 0), BuildingBlock: AJUNOK_clean_linker_0, # of connection points: 2
#     Edge 37, Type (0, 0), BuildingBlock: AJUNOK_clean_linker_0, # of connection points: 2
#     Edge 38, Type (0, 0), BuildingBlock: AJUNOK_clean_linker_0, # of connection points: 2
#     Edge 39, Type (0, 0), BuildingBlock: AJUNOK_clean_linker_0, # of connection points: 2
#     Edge 40, Type (0, 0), BuildingBlock: AJUNOK_clean_linker_0, # of connection points: 2
#     Edge 41, Type (0, 0), BuildingBlock: AJUNOK_clean_linker_0, # of connection points: 2
#     Edge 42, Type (0, 0), BuildingBlock: AJUNOK_clean_linker_0, # of connection points: 2
#     Edge 43, Type (0, 0), BuildingBlock: AJUNOK_clean_linker_0, # of connection points: 2
#     Edge 44, Type (0, 0), BuildingBlock: AJUNOK_clean_linker_0, # of connection points: 2
#     Edge 45, Type (0, 0), BuildingBlock: AJUNOK_clean_linker_0, # of connection points: 2
#     Edge 46, Type (0, 0), BuildingBlock: AJUNOK_clean_linker_0, # of connection points: 2
#     Edge 47, Type (0, 0), BuildingBlock: AJUNOK_clean_linker_0, # of connection points: 2
#     Edge 48, Type (0, 0), BuildingBlock: AJUNOK_clean_linker_0, # of connection points: 2
#     Edge 49, Type (0, 0), BuildingBlock: AJUNOK_clean_linker_0, # of connection points: 2
#     Edge 50, Type (0, 0), BuildingBlock: AJUNOK_clean_linker_0, # of connection points: 2
#     Edge 51, Type (0, 0), BuildingBlock: AJUNOK_clean_linker_0, # of connection points: 2
#     Edge 52, Type (0, 0), BuildingBlock: AJUNOK_clean_linker_0, # of connection points: 2
#     Edge 53, Type (0, 0), BuildingBlock: AJUNOK_clean_linker_0, # of connection points: 2
#     Edge 54, Type (0, 0), BuildingBlock: AJUNOK_clean_linker_0, # of connection points: 2
#     Edge 55, Type (0, 0), BuildingBlock: AJUNOK_clean_linker_0, # of connection points: 2
#     Edge 56, Type (0, 0), BuildingBlock: AJUNOK_clean_linker_0, # of connection points: 2
#     Edge 57, Type (0, 0), BuildingBlock: AJUNOK_clean_linker_0, # of connection points: 2
#     Edge 58, Type (0, 0), BuildingBlock: AJUNOK_clean_linker_0, # of connection points: 2
#     Edge 59, Type (0, 0), BuildingBlock: AJUNOK_clean_linker_0, # of connection points: 2
#     Edge 60, Type (0, 0), BuildingBlock: AJUNOK_clean_linker_0, # of connection points: 2
#     Edge 61, Type (0, 0), BuildingBlock: AJUNOK_clean_linker_0, # of connection points: 2
#     Edge 62, Type (0, 0), BuildingBlock: AJUNOK_clean_linker_0, # of connection points: 2
#     Edge 63, Type (0, 0), BuildingBlock: AJUNOK_clean_linker_0, # of connection points: 2
#     Edge 64, Type (0, 0), BuildingBlock: AJUNOK_clean_linker_0, # of connection points: 2
#     Edge 65, Type (0, 0), BuildingBlock: AJUNOK_clean_linker_0, # of connection points: 2
#     Edge 66, Type (0, 0), BuildingBlock: AJUNOK_clean_linker_0, # of connection points: 2
#     Edge 67, Type (0, 0), BuildingBlock: AJUNOK_clean_linker_0, # of connection points: 2
#     Edge 68, Type (0, 0), BuildingBlock: AJUNOK_clean_linker_0, # of connection points: 2
#     Edge 69, Type (0, 0), BuildingBlock: AJUNOK_clean_linker_0, # of connection points: 2
#     Edge 70, Type (0, 0), BuildingBlock: AJUNOK_clean_linker_0, # of connection points: 2
#     Edge 71, Type (0, 0), BuildingBlock: AJUNOK_clean_linker_0, # of connection points: 2
# Relax obj value: 0.517
# Max RMSD: 0.286
# Mean RMSD: 0.286
data_MOF--net-lll--node1-NUHQUE_clean_sbu_2--edge1-AJUNOK_clean_linker_0
_symmetry_space_group_name_H-M    P1
_symmetry_Int_Tables_number       1
_symmetry_cell_setting            triclinic
loop_
_symmetry_equiv_pos_as_xyz
'x, y, z'
_cell_length_a     37.824925
_cell_length_b     37.877388
_cell_length_c     35.47579
_cell_angle_alpha  89.518162
_cell_angle_beta   89.721824
_cell_angle_gamma 88.672539
loop_
_atom_site_label
_atom_site_type_symbol
_atom_site_fract_x
_atom_site_fract_y
_atom_site_fract_z
_atom_type_partial_charge
O0 O 0.75761 0.14717 1.0184 0.0
Tb1 Tb 0.71304 0.16132 0.05401 0.0
Eu2 Eu 0.63546 0.15073 0.09863 0.0
C3 C 0.76551 0.11347 1.01411 0.0
O4 O 0.74968 0.0904 1.03587 0.0
C5 C 0.65021 0.1459 1.00729 0.0
O6 O 0.61073 0.20516 0.09576 0.0
C7 C 0.58978 0.10867 0.12808 0.0
C8 C 0.61794 0.2302 0.11944 0.0
O9 O 0.60278 0.26146 0.11506 0.0
C10 C 0.71475 0.14851 0.14152 0.0
C11 C 0.58106 0.08829 0.16247 0.0
C12 C 0.562 0.05731 0.15793 0.0
C13 C 0.54835 0.0392 0.18921 0.0
C14 C 0.55501 0.05186 0.2255 0.0
C15 C 0.57438 0.08252 0.23087 0.0
C16 C 0.58724 0.10103 0.1992 0.0
O17 O 0.68028 0.13095 1.01752 0.0
O18 O 0.62813 0.15596 1.03425 0.0
O19 O 0.72053 0.21556 1.03567 0.0
O20 O 0.67128 0.2018 0.05983 0.0
C21 C 0.68859 0.22696 1.04391 0.0
O22 O 0.68007 0.15482 0.14251 0.0
O23 O 0.73204 0.14531 0.10941 0.0
O24 O 0.58733 0.14324 0.13049 0.0
O25 O 0.61622 0.09718 0.10667 0.0
H26 H 0.55644 0.04811 0.12975 0.0
H27 H 0.54324 0.03907 0.24982 0.0
H28 H 0.60096 0.12554 0.20306 0.0
O29 O 0.86718 0.21656 0.25904 0.0
Tb30 Tb 0.83906 0.23915 0.30723 0.0
Eu31 Eu 0.85512 0.16296 0.34428 0.0
C32 C 0.85135 0.22751 0.22792 0.0
O33 O 0.82443 0.2496 0.23158 0.0
C34 C 0.80076 0.17764 0.27465 0.0
O35 O 0.80285 0.15076 0.37083 0.0
C36 C 0.89946 0.11077 0.35804 0.0
C37 C 0.78312 0.12702 0.35478 0.0
O38 O 0.7947 0.11197 0.32375 0.0
C39 C 0.84956 0.23387 0.39181 0.0
C40 C 0.92231 0.09905 0.38988 0.0
C41 C 0.94852 0.07239 0.38439 0.0
C42 C 0.96788 0.05847 0.41515 0.0
C43 C 0.96122 0.07212 0.45133 0.0
C44 C 0.93537 0.09888 0.4574 0.0
C45 C 0.91594 0.11217 0.42648 0.0
O46 O 0.79402 0.20959 0.28786 0.0
O47 O 0.83057 0.16085 0.28476 0.0
O48 O 0.8768 0.28135 0.31099 0.0
O49 O 0.82458 0.29241 0.28938 0.0
C50 C 0.85549 0.30563 0.297 0.0
O51 O 0.87068 0.20653 0.38531 0.0
O52 O 0.82553 0.24146 0.36662 0.0
O53 O 0.86534 0.10953 0.36461 0.0
O54 O 0.90844 0.13943 0.33932 0.0
H55 H 0.9529 0.06158 0.35651 0.0
H56 H 0.97581 0.06121 0.47514 0.0
H57 H 0.89568 0.13245 0.43092 0.0
O58 O 0.74718 0.33458 0.51313 0.0
Tb59 Tb 0.78968 0.32243 0.55271 0.0
Eu60 Eu 0.86098 0.33628 0.61377 0.0
C61 C 0.74814 0.36451 0.49402 0.0
O62 O 0.77264 0.38719 0.50222 0.0
C63 C 0.8585 0.32999 0.52227 0.0
O64 O 0.83041 0.38373 0.64001 0.0
C65 C 0.92627 0.34217 0.63708 0.0
C66 C 0.81912 0.38508 0.67594 0.0
O67 O 0.79897 0.41184 0.68673 0.0
C68 C 0.77874 0.31797 0.63873 0.0
C69 C 0.94826 0.35534 0.66879 0.0
C70 C 0.97014 0.38438 0.66177 0.0
C71 C 0.98764 0.4009 0.69138 0.0
C72 C 0.98336 0.38828 0.72831 0.0
C73 C 0.96219 0.35919 0.73608 0.0
C74 C 0.94584 0.34198 0.70606 0.0
O75 O 0.83143 0.35127 0.52747 0.0
O76 O 0.87265 0.31711 0.55333 0.0
O77 O 0.82236 0.28024 0.5778 0.0
O78 O 0.79316 0.26936 0.52902 0.0
C79 C 0.81664 0.25671 0.55265 0.0
O80 O 0.81297 0.30812 0.64284 0.0
O81 O 0.76749 0.33439 0.60786 0.0
O82 O 0.90843 0.31269 0.64113 0.0
O83 O 0.90838 0.36695 0.61843 0.0
H84 H 0.97238 0.39512 0.63345 0.0
H85 H 0.99563 0.40203 0.75136 0.0
H86 H 0.93059 0.31907 0.71228 0.0
O87 O 0.57948 0.30679 0.77423 0.0
Tb88 Tb 0.60878 0.26052 0.79465 0.0
Eu89 Eu 0.65639 0.31656 0.84518 0.0
C90 C 0.57212 0.31178 0.7381 0.0
O91 O 0.55508 0.34082 0.72775 0.0
C92 C 0.67311 0.29758 0.76084 0.0
O93 O 0.70506 0.34879 0.84503 0.0
C94 C 0.61845 0.35343 0.89219 0.0
C95 C 0.70136 0.38326 0.84136 0.0
O96 O 0.66988 0.39705 0.83433 0.0
C97 C 0.64057 0.23906 0.87324 0.0
C98 C 0.59872 0.37237 0.92285 0.0
C99 C 0.57605 0.40142 0.91405 0.0
C100 C 0.56213 0.42319 0.9429 0.0
C101 C 0.57003 0.41486 0.98057 0.0
C102 C 0.59218 0.38618 0.99027 0.0
C103 C 0.60661 0.36489 0.96131 0.0
O104 O 0.66192 0.2662 0.77084 0.0
O105 O 0.66296 0.32487 0.78154 0.0
O106 O 0.56994 0.21857 0.79197 0.0
O107 O 0.61067 0.2205 0.75177 0.0
C108 C 0.58395 0.20228 0.7633 0.0
O109 O 0.6668 0.26071 0.86741 0.0
O110 O 0.61101 0.24399 0.85429 0.0
O111 O 0.65159 0.34384 0.89797 0.0
O112 O 0.60477 0.34244 0.86006 0.0
H113 H 0.57098 0.40827 0.88482 0.0
H114 H 0.55894 0.43119 1.00289 0.0
H115 H 0.6246 0.34324 0.96862 0.0
O116 O 0.67781 0.38443 0.32521 0.0
Tb117 Tb 0.72749 0.35561 0.3157 0.0
Eu118 Eu 0.65823 0.34043 0.27495 0.0
C119 C 0.66473 0.391 0.35911 0.0
O120 O 0.63285 0.40519 0.36211 0.0
C121 C 0.68294 0.29823 0.35354 0.0
O122 O 0.65073 0.28762 0.25116 0.0
C123 C 0.60207 0.37661 0.25472 0.0
C124 C 0.67467 0.26222 0.25233 0.0
O125 O 0.70558 0.26741 0.26776 0.0
C126 C 0.73265 0.34387 0.22939 0.0
C127 C 0.58853 0.3938 0.21969 0.0
C128 C 0.56173 0.42001 0.2227 0.0
C129 C 0.54604 0.43502 0.19031 0.0
C130 C 0.55828 0.42428 0.15459 0.0
C131 C 0.58506 0.39822 0.15071 0.0
C132 C 0.60015 0.38288 0.18345 0.0
O133 O 0.71572 0.30847 0.34829 0.0
O134 O 0.65668 0.31333 0.33388 0.0
O135 O 0.77397 0.3654 0.34973 0.0
O136 O 0.75755 0.40369 0.30975 0.0
C137 C 0.78243 0.39529 0.33366 0.0
O138 O 0.69887 0.35285 0.22875 0.0
O139 O 0.74723 0.33518 0.26174 0.0
O140 O 0.60438 0.34201 0.25426 0.0
O141 O 0.62895 0.39113 0.27164 0.0
H142 H 0.55225 0.42791 0.25034 0.0
H143 H 0.54671 0.43614 0.12946 0.0
H144 H 0.62049 0.36241 0.18076 0.0
O145 O 0.6323 0.21745 0.59359 0.0
Tb146 Tb 0.65528 0.1763 0.55703 0.0
Eu147 Eu 0.65996 0.10602 0.49873 0.0
C148 C 0.60919 0.20997 0.62034 0.0
O149 O 0.59737 0.1777 0.62274 0.0
C150 C 0.67344 0.10435 0.58839 0.0
O151 O 0.68854 0.05415 0.48753 0.0
C152 C 0.59501 0.0894 0.48642 0.0
C153 C 0.70444 0.04427 0.45635 0.0
O154 O 0.71576 0.01133 0.45361 0.0
C155 C 0.65844 0.18679 0.46888 0.0
C156 C 0.56798 0.09392 0.45674 0.0
C157 C 0.53487 0.07885 0.46298 0.0
C158 C 0.51196 0.07271 0.43277 0.0
C159 C 0.52161 0.08402 0.3964 0.0
C160 C 0.55455 0.09928 0.38941 0.0
C161 C 0.57776 0.10408 0.41978 0.0
O162 O 0.64727 0.12789 0.5894 0.0
O163 O 0.68592 0.09561 0.5552 0.0
O164 O 0.70339 0.19572 0.58152 0.0
O165 O 0.70716 0.16146 0.53428 0.0
C166 C 0.72477 0.17864 0.55906 0.0
O167 O 0.67424 0.15536 0.46475 0.0
O168 O 0.63987 0.19452 0.49986 0.0
O169 O 0.62262 0.07053 0.4755 0.0
O170 O 0.60304 0.11628 0.50809 0.0
H171 H 0.5281 0.06942 0.49099 0.0
H172 H 0.50473 0.07806 0.37276 0.0
H173 H 0.60413 0.11359 0.41434 0.0
O174 O 0.77129 0.09655 0.84298 0.0
Tb175 Tb 0.7604 0.12974 0.7941 0.0
Eu176 Eu 0.83493 0.16566 0.74433 0.0
C177 C 0.80203 0.09563 0.86011 0.0
O178 O 0.82982 0.10841 0.84306 0.0
C179 C 0.81153 0.18606 0.82607 0.0
O180 O 0.82851 0.22492 0.75093 0.0
C181 C 0.89476 0.14334 0.71579 0.0
C182 C 0.83439 0.24588 0.7223 0.0
O183 O 0.84234 0.23192 0.6895 0.0
C184 C 0.77436 0.11704 0.71127 0.0
C185 C 0.91123 0.12261 0.68457 0.0
C186 C 0.93562 0.09536 0.69429 0.0
C187 C 0.9538 0.07621 0.66633 0.0
C188 C 0.94768 0.08451 0.62844 0.0
C189 C 0.92435 0.112 0.61769 0.0
C190 C 0.90558 0.13091 0.64588 0.0
O191 O 0.77855 0.18015 0.81649 0.0
O192 O 0.83755 0.17012 0.80773 0.0
O193 O 0.71498 0.15147 0.7638 0.0
O194 O 0.70638 0.11596 0.80965 0.0
C195 C 0.69137 0.13438 0.78286 0.0
O196 O 0.79027 0.1474 0.70745 0.0
O197 O 0.77572 0.10041 0.74393 0.0
O198 O 0.88044 0.17445 0.70779 0.0
O199 O 0.87741 0.12578 0.74202 0.0
H200 H 0.94075 0.08928 0.72372 0.0
H201 H 0.96221 0.06999 0.60687 0.0
H202 H 0.88768 0.15238 0.63781 0.0
O203 O 0.83164 0.2308 0.05544 0.0
Tb204 Tb 0.82448 0.2801 1.02525 0.0
Eu205 Eu 0.83677 0.35486 0.99942 0.0
C206 C 0.86275 0.22358 0.07051 0.0
O207 O 0.89021 0.24031 0.05714 0.0
C208 C 0.81568 0.3355 0.08704 0.0
O209 O 0.80202 0.39413 0.96921 0.0
C210 C 0.90212 0.37196 0.99158 0.0
C211 C 0.81188 0.4084 0.93714 0.0
O212 O 0.84455 0.4031 0.92539 0.0
C213 C 0.84263 0.28729 0.94606 0.0
C214 C 0.92564 0.37982 0.95927 0.0
C215 C 0.94774 0.40887 0.9625 0.0
C216 C 0.96801 0.42025 0.93178 0.0
C217 C 0.96714 0.40144 0.89807 0.0
C218 C 0.94582 0.37196 0.89406 0.0
C219 C 0.92438 0.36139 0.92467 0.0
O220 O 0.83115 0.30485 0.0799 0.0
O221 O 0.81228 0.35882 0.05927 0.0
O222 O 0.78271 0.31906 1.01127 0.0
O223 O 0.77284 0.26457 1.00522 0.0
C224 C 0.75982 0.29652 1.00046 0.0
O225 O 0.82504 0.31749 0.95044 0.0
O226 O 0.85771 0.27376 0.97615 0.0
O227 O 0.87644 0.39532 0.99735 0.0
O228 O 0.89255 0.33904 0.9968 0.0
H229 H 0.94855 0.42313 0.98885 0.0
H230 H 0.98223 0.41072 0.874 0.0
H231 H 0.90679 0.33945 0.92147 0.0
O232 O 0.23255 0.56733 0.53846 0.0
Tb233 Tb 0.2424 0.61344 0.57271 0.0
Eu234 Eu 0.16037 0.6423 0.60474 0.0
C235 C 0.20979 0.56897 0.51059 0.0
O236 O 0.18226 0.5905 0.5137 0.0
C237 C 0.19333 0.66846 0.52481 0.0
O238 O 0.12708 0.68428 0.63198 0.0
C239 C 0.12956 0.58364 0.62146 0.0
C240 C 0.10596 0.70545 0.61258 0.0
O241 O 0.10469 0.70292 0.57571 0.0
C242 C 0.22835 0.63239 0.65476 0.0
C243 C 0.11519 0.56741 0.65624 0.0
C244 C 0.09358 0.53781 0.65306 0.0
C245 C 0.07622 0.524 0.68486 0.0
C246 C 0.08168 0.5394 0.72012 0.0
C247 C 0.10277 0.56907 0.72396 0.0
C248 C 0.11967 0.58314 0.69189 0.0
O249 O 0.22537 0.65754 0.53535 0.0
O250 O 0.16454 0.66016 0.54375 0.0
O251 O 0.29549 0.59364 0.55744 0.0
O252 O 0.28975 0.63893 0.59192 0.0
C253 C 0.31218 0.61666 0.57696 0.0
O254 O 0.20396 0.65585 0.64493 0.0
O255 O 0.23342 0.60473 0.63302 0.0
O256 O 0.11244 0.61219 0.60969 0.0
O257 O 0.16417 0.58596 0.61852 0.0
H258 H 0.0892 0.52637 0.6256 0.0
H259 H 0.06898 0.52848 0.74496 0.0
H260 H 0.13537 0.60657 0.69445 0.0
O261 O 0.40168 0.73249 0.73983 0.0
Tb262 Tb 0.37317 0.73934 0.79292 0.0
Eu263 Eu 0.37721 0.66197 0.84751 0.0
C264 C 0.38213 0.73903 0.70973 0.0
O265 O 0.34763 0.73871 0.71386 0.0
C266 C 0.32859 0.67497 0.77195 0.0
O267 O 0.32742 0.66716 0.88063 0.0
C268 C 0.41156 0.60712 0.87517 0.0
C269 C 0.33048 0.66938 0.91725 0.0
O270 O 0.36178 0.66936 0.93274 0.0
C271 C 0.36699 0.73798 0.8785 0.0
C272 C 0.42793 0.59151 0.90996 0.0
C273 C 0.45355 0.56426 0.90577 0.0
C274 C 0.46821 0.54686 0.93743 0.0
C275 C 0.45759 0.55752 0.97375 0.0
C276 C 0.43175 0.58428 0.97886 0.0
C277 C 0.41669 0.60084 0.94681 0.0
O278 O 0.32755 0.70928 0.7778 0.0
O279 O 0.35295 0.65416 0.78842 0.0
O280 O 0.35451 0.7908 0.77432 0.0
O281 O 0.40037 0.78649 0.81013 0.0
C282 C 0.37929 0.80811 0.79146 0.0
O283 O 0.3907 0.71204 0.87943 0.0
O284 O 0.34844 0.74199 0.84787 0.0
O285 O 0.37692 0.61028 0.87461 0.0
O286 O 0.42747 0.63332 0.85769 0.0
H287 H 0.4618 0.55625 0.87774 0.0
H288 H 0.46868 0.54412 0.99827 0.0
H289 H 0.39606 0.62031 0.9509 0.0
O290 O 0.26821 0.91968 1.00137 0.0
Tb291 Tb 0.26183 0.87746 1.04311 0.0
Eu292 Eu 0.33843 0.83766 0.09234 0.0
C293 C 0.27835 0.91318 0.96646 0.0
O294 O 0.29986 0.88629 0.96019 0.0
C295 C 0.32033 0.82426 1.00739 0.0
O296 O 0.34966 0.77983 0.10141 0.0
C297 C 0.38161 0.88063 0.12354 0.0
C298 C 0.34714 0.76701 0.13569 0.0
O299 O 0.34358 0.78933 0.1637 0.0
C300 C 0.26604 0.86031 0.12829 0.0
C301 C 0.39277 0.89981 0.15728 0.0
C302 C 0.4233 0.92006 0.15395 0.0
C303 C 0.43585 0.93874 0.18479 0.0
C304 C 0.41726 0.93787 0.21888 0.0
C305 C 0.38647 0.9183 0.22279 0.0
C306 C 0.37421 0.89878 0.19195 0.0
O307 O 0.28628 0.83223 1.0123 0.0
O308 O 0.34452 0.83678 1.02962 0.0
O309 O 0.20997 0.90401 1.04104 0.0
O310 O 0.21313 0.84786 1.04082 0.0
C311 C 0.19197 0.87546 1.03977 0.0
O312 O 0.28748 0.83314 0.12416 0.0
O313 O 0.26726 0.88687 0.10405 0.0
O314 O 0.3874 0.84623 0.12261 0.0
O315 O 0.3522 0.8913 0.10676 0.0
H316 H 0.43756 0.92104 0.12737 0.0
H317 H 0.42678 0.95272 0.24266 0.0
H318 H 0.35068 0.88318 0.19484 0.0
O319 O 0.13913 0.73872 0.25947 0.0
Tb320 Tb 0.14511 0.77449 0.30763 0.0
Eu321 Eu 0.18842 0.83738 0.35833 0.0
C322 C 0.11924 0.75192 0.23175 0.0
O323 O 0.10681 0.78438 0.23559 0.0
C324 C 0.18913 0.83509 0.26837 0.0
O325 O 0.24675 0.83658 0.37167 0.0
C326 C 0.15331 0.89446 0.37846 0.0
C327 C 0.27077 0.81795 0.35242 0.0
O328 O 0.26089 0.79802 0.32445 0.0
C329 C 0.1791 0.75701 0.38663 0.0
C330 C 0.12873 0.90974 0.4075 0.0
C331 C 0.10029 0.93259 0.39631 0.0
C332 C 0.07759 0.94838 0.42346 0.0
C333 C 0.08418 0.94159 0.46171 0.0
C334 C 0.11224 0.91945 0.4735 0.0
C335 C 0.13454 0.90354 0.44638 0.0
O336 O 0.15808 0.82015 0.2712 0.0
O337 O 0.20786 0.84017 0.29855 0.0
O338 O 0.109 0.77792 0.35616 0.0
O339 O 0.08833 0.76601 0.30513 0.0
C340 C 0.08246 0.7621 0.34087 0.0
O341 O 0.17365 0.79063 0.39457 0.0
O342 O 0.17905 0.74652 0.35066 0.0
O343 O 0.18605 0.88692 0.38889 0.0
O344 O 0.14072 0.8713 0.3547 0.0
H345 H 0.09586 0.93803 0.36665 0.0
H346 H 0.06767 0.9545 0.48283 0.0
H347 H 0.15634 0.88656 0.45557 0.0
O348 O 0.18453 0.92374 0.809 0.0
Tb349 Tb 0.2233 0.88217 0.79608 0.0
Eu350 Eu 0.15061 0.85799 0.75561 0.0
C351 C 0.18445 0.94243 0.84033 0.0
O352 O 0.15972 0.9669 0.84504 0.0
C353 C 0.17337 0.82949 0.83771 0.0
O354 O 0.11285 0.82067 0.72968 0.0
C355 C 0.13273 0.92181 0.73526 0.0
C356 C 0.09522 0.82803 0.69871 0.0
O357 O 0.0967 0.85977 0.68388 0.0
C358 C 0.2249 0.84511 0.71397 0.0
C359 C 0.11818 0.93884 0.70089 0.0
C360 C 0.08989 0.96327 0.70504 0.0
C361 C 0.071 0.97569 0.67352 0.0
C362 C 0.08089 0.96367 0.63762 0.0
C363 C 0.10917 0.93948 0.63276 0.0
C364 C 0.12833 0.92757 0.66446 0.0
O365 O 0.20664 0.83662 0.8299 0.0
O366 O 0.14747 0.84279 0.8171 0.0
O367 O 0.26754 0.91785 0.79135 0.0
O368 O 0.26937 0.87797 0.83279 0.0
C369 C 0.28717 0.90334 0.81735 0.0
O370 O 0.1929 0.83291 0.71868 0.0
O371 O 0.23817 0.86774 0.7379 0.0
O372 O 0.11107 0.90028 0.75248 0.0
O373 O 0.16569 0.9098 0.73427 0.0
H374 H 0.08143 0.97119 0.73304 0.0
H375 H 0.06617 0.97291 0.61313 0.0
H376 H 0.14942 0.90797 0.661 0.0
O377 O 0.071 0.69551 0.06353 0.0
Tb378 Tb 0.10541 0.74002 0.05194 0.0
Eu379 Eu 0.12394 0.66904 1.00711 0.0
C380 C 0.06672 0.6814 0.09762 0.0
O381 O 0.04868 0.65233 0.10096 0.0
C382 C 0.15726 0.68835 0.08918 0.0
O383 O 0.17997 0.66489 0.9891 0.0
C384 C 0.09358 0.61311 0.98319 0.0
C385 C 0.20253 0.68876 0.99881 0.0
O386 O 0.19234 0.71666 1.01789 0.0
C387 C 0.12871 0.7436 0.96724 0.0
C388 C 0.08023 0.59701 0.94851 0.0
C389 C 0.05786 0.56835 0.95291 0.0
C390 C 0.04807 0.54851 0.92179 0.0
C391 C 0.05979 0.55809 0.88574 0.0
C392 C 0.08174 0.58706 0.88038 0.0
C393 C 0.09239 0.60648 0.91202 0.0
O394 O 0.15042 0.72219 0.0841 0.0
O395 O 0.1412 0.66449 0.06873 0.0
O396 O 0.06759 0.78348 1.04308 0.0
O397 O 0.10403 0.78634 0.08741 0.0
C398 C 0.08025 0.80443 0.06844 0.0
O399 O 0.11554 0.71219 0.96307 0.0
O400 O 0.13371 0.75576 1.00114 0.0
O401 O 0.128 0.61611 0.98519 0.0
O402 O 0.07552 0.63991 0.99789 0.0
H403 H 0.0495 0.56028 0.98094 0.0
H404 H 0.05225 0.54248 0.86168 0.0
H405 H 0.11032 0.62816 0.9084 0.0
O406 O 0.23109 0.57843 0.33132 0.0
Tb407 Tb 0.22056 0.63019 0.30618 0.0
Eu408 Eu 0.31301 0.63209 0.25548 0.0
C409 C 0.2554 0.57403 0.35738 0.0
O410 O 0.28342 0.59377 0.35554 0.0
C411 C 0.28699 0.67345 0.33263 0.0
O412 O 0.29308 0.61067 0.20033 0.0
C413 C 0.37646 0.61003 0.23872 0.0
C414 C 0.29824 0.62415 0.16597 0.0
O415 O 0.28595 0.60616 0.13759 0.0
C416 C 0.23524 0.64959 0.22476 0.0
C417 C 0.3971 0.5938 0.20666 0.0
C418 C 0.42014 0.56476 0.21461 0.0
C419 C 0.43884 0.54734 0.18551 0.0
C420 C 0.43485 0.55936 0.14834 0.0
C421 C 0.4125 0.58805 0.13932 0.0
C422 C 0.39386 0.60562 0.16864 0.0
O423 O 0.25367 0.67486 0.32145 0.0
O424 O 0.31097 0.65213 0.31654 0.0
O425 O 0.179 0.63554 0.34949 0.0
O426 O 0.16571 0.64768 0.29358 0.0
C427 C 0.15326 0.64568 0.32776 0.0
O428 O 0.2651 0.66474 0.23366 0.0
O429 O 0.22291 0.62381 0.24565 0.0
O430 O 0.36697 0.64398 0.23661 0.0
O431 O 0.35253 0.58966 0.25516 0.0
H432 H 0.42303 0.55528 0.24338 0.0
H433 H 0.44934 0.54603 0.1259 0.0
H434 H 0.37718 0.62812 0.16181 0.0
O435 O 0.40782 0.81209 0.5448 0.0
Tb436 Tb 0.36958 0.77024 0.53871 0.0
Eu437 Eu 0.34248 0.8378 0.49672 0.0
C438 C 0.42741 0.81445 0.57537 0.0
O439 O 0.4531 0.83713 0.57607 0.0
C440 C 0.30953 0.81245 0.57769 0.0
O441 O 0.39332 0.81087 0.47297 0.0
C442 C 0.3431 0.90474 0.47669 0.0
C443 C 0.39859 0.80041 0.43746 0.0
O444 O 0.42787 0.7829 0.42899 0.0
C445 C 0.32348 0.76281 0.46299 0.0
C446 C 0.35604 0.92864 0.446 0.0
C447 C 0.38074 0.95469 0.45471 0.0
C448 C 0.39597 0.97545 0.42602 0.0
C449 C 0.38728 0.96914 0.38828 0.0
C450 C 0.36324 0.94311 0.37901 0.0
C451 C 0.34632 0.92456 0.40802 0.0
O452 O 0.32112 0.78022 0.5708 0.0
O453 O 0.32108 0.83904 0.5572 0.0
O454 O 0.37969 0.73086 0.58257 0.0
O455 O 0.40589 0.72524 0.53048 0.0
C456 C 0.40163 0.71088 0.56349 0.0
O457 O 0.31112 0.79589 0.46563 0.0
O458 O 0.34909 0.75118 0.48527 0.0
O459 O 0.31589 0.88433 0.47032 0.0
O460 O 0.36802 0.88863 0.49662 0.0
H461 H 0.38837 0.95857 0.48377 0.0
H462 H 0.4007 0.98327 0.36589 0.0
H463 H 0.32631 0.9066 0.40045 0.0
C464 C 0.67742 0.26042 0.9882 0.0
C465 C 0.67268 0.2593 1.02744 0.0
C466 C 0.7037 0.28186 0.9731 0.0
C467 C 0.72194 0.30416 0.99725 0.0
H468 H 0.66887 0.23864 0.97157 0.0
H469 H 0.71446 0.27541 0.9456 0.0
S470 S 0.68943 0.33388 0.09029 0.0
N471 N 0.66707 0.29796 0.0814 0.0
N472 N 0.71514 0.34056 0.05314 0.0
C473 C 0.70502 0.31357 1.03104 0.0
C474 C 0.67956 0.29052 1.04642 0.0
C475 C 0.82702 0.39736 0.28582 0.0
C476 C 0.81976 0.40188 0.32452 0.0
C477 C 0.84471 0.36632 0.27432 0.0
C478 C 0.86015 0.34362 0.30138 0.0
H479 H 0.81106 0.41137 0.26499 0.0
H480 H 0.84182 0.35774 0.24545 0.0
S481 S 0.87409 0.36451 0.40174 0.0
N482 N 0.84582 0.39532 0.38653 0.0
N483 N 0.88375 0.33942 0.36501 0.0
C484 C 0.86469 0.35663 0.33792 0.0
C485 C 0.84447 0.38681 0.34949 0.0
C486 C 0.81099 0.20788 0.59381 0.0
C487 C 0.8238 0.21903 0.55866 0.0
C488 C 0.77855 0.19106 0.59473 0.0
C489 C 0.76309 0.18043 0.56086 0.0
H490 H 0.81959 0.22059 0.61929 0.0
H491 H 0.76394 0.19002 0.62101 0.0
S492 S 0.80722 0.17723 0.46772 0.0
N493 N 0.83351 0.20042 0.49443 0.0
N494 N 0.77386 0.16536 0.49502 0.0
C495 C 0.78398 0.17957 0.52813 0.0
C496 C 0.81607 0.19812 0.52778 0.0
C497 C 0.6074 0.15311 0.72976 0.0
C498 C 0.58594 0.16366 0.76023 0.0
C499 C 0.64258 0.1432 0.73715 0.0
C500 C 0.65353 0.13567 0.77427 0.0
H501 H 0.60111 0.16259 0.70164 0.0
H502 H 0.66158 0.14381 0.71423 0.0
S503 S 0.59571 0.13217 0.85852 0.0
N504 N 0.57007 0.14848 0.82468 0.0
N505 N 0.63469 0.12396 0.83877 0.0
C506 C 0.62769 0.13388 0.80264 0.0
C507 C 0.59276 0.14675 0.79493 0.0
C508 C 0.39409 0.65182 0.53846 0.0
C509 C 0.40286 0.67253 0.56973 0.0
C510 C 0.36715 0.62716 0.54175 0.0
C511 C 0.35022 0.62222 0.57659 0.0
H512 H 0.40237 0.65953 0.51035 0.0
H513 H 0.35596 0.61663 0.51623 0.0
S514 S 0.37855 0.65545 0.66898 0.0
N515 N 0.40392 0.67562 0.63792 0.0
N516 N 0.35335 0.62919 0.64436 0.0
C517 C 0.3658 0.63554 0.60904 0.0
C518 C 0.39307 0.66044 0.60558 0.0
C519 C 0.33797 0.89459 0.77603 0.0
C520 C 0.32566 0.89989 0.8131 0.0
C521 C 0.36213 0.86705 0.76844 0.0
C522 C 0.37578 0.8461 0.79797 0.0
H523 H 0.324 0.9065 0.75236 0.0
H524 H 0.36582 0.85887 0.73944 0.0
S525 S 0.36702 0.8641 0.89989 0.0
N526 N 0.33875 0.89208 0.87953 0.0
N527 N 0.38661 0.84197 0.86536 0.0
C528 C 0.37116 0.85797 0.83504 0.0
C529 C 0.34542 0.88497 0.84271 0.0
C530 C 0.13421 0.85988 1.01366 0.0
C531 C 0.1536 0.87392 1.04325 0.0
C532 C 0.1013 0.84502 1.02073 0.0
C533 C 0.08921 0.84077 0.05816 0.0
H534 H 0.14596 0.85723 0.98587 0.0
H535 H 0.08938 0.83057 0.99801 0.0
S536 S 0.12377 0.88591 0.14183 0.0
N537 N 0.15301 0.89377 0.10818 0.0
N538 N 0.09256 0.86253 0.12214 0.0
C539 C 0.10468 0.86129 0.08606 0.0
C540 C 0.1374 0.87786 0.07861 0.0
C541 C 0.09827 0.71091 0.38187 0.0
C542 C 0.07709 0.72455 0.3523 0.0
C543 C 0.11993 0.6807 0.37609 0.0
C544 C 0.12019 0.6635 0.34109 0.0
H545 H 0.10312 0.72691 0.40638 0.0
H546 H 0.13935 0.67353 0.39716 0.0
S547 S 0.05123 0.67436 0.26804 0.0
N548 N 0.0438 0.70763 0.29708 0.0
N549 N 0.08544 0.65177 0.28543 0.0
C550 C 0.0918 0.6708 0.31681 0.0
C551 C 0.06903 0.70071 0.32342 0.0
C552 C 0.61296 0.20485 0.92722 0.0
C553 C 0.64267 0.21166 0.90431 0.0
C554 C 0.61516 0.18203 0.95897 0.0
C555 C 0.64699 0.16413 0.9691 0.0
H556 H 0.58806 0.21856 0.92163 0.0
H557 H 0.59186 0.17942 0.97654 0.0
S558 S 0.7314 0.16903 0.91497 0.0
N559 N 0.70415 0.19608 0.89195 0.0
N560 N 0.70822 0.15262 0.95033 0.0
C561 C 0.67628 0.16883 0.94464 0.0
C562 C 0.67415 0.19267 0.91274 0.0
C563 C 0.74167 0.17197 0.24223 0.0
C564 C 0.77823 0.16394 0.2433 0.0
C565 C 0.72078 0.16325 0.21087 0.0
C566 C 0.7358 0.14905 0.17772 0.0
H567 H 0.72907 0.18538 0.26575 0.0
H568 H 0.69274 0.16903 0.212 0.0
S569 S 0.82864 0.1154 0.16921 0.0
N570 N 0.82685 0.13328 0.21151 0.0
N571 N 0.78875 0.12111 0.15109 0.0
C572 C 0.77173 0.13811 0.17971 0.0
C573 C 0.79256 0.14469 0.21274 0.0
C574 C 0.83218 0.31027 0.46048 0.0
C575 C 0.85907 0.30664 0.48778 0.0
C576 C 0.82944 0.28664 0.43019 0.0
C577 C 0.85347 0.25792 0.42523 0.0
H578 H 0.81258 0.33142 0.4626 0.0
H579 H 0.80801 0.2911 0.41045 0.0
S580 S 0.92896 0.23585 0.4884 0.0
N581 N 0.91048 0.27143 0.50746 0.0
N582 N 0.90546 0.22745 0.45054 0.0
C583 C 0.8808 0.25406 0.45196 0.0
C584 C 0.88353 0.27816 0.48307 0.0
C585 C 0.70337 0.33478 0.71032 0.0
C586 C 0.6985 0.30163 0.7279 0.0
C587 C 0.72889 0.33952 0.68142 0.0
C588 C 0.75156 0.31164 0.66927 0.0
H589 H 0.68772 0.35749 0.71937 0.0
H590 H 0.7317 0.36565 0.66931 0.0
S591 S 0.74568 0.21844 0.70076 0.0
N592 N 0.71591 0.23943 0.72693 0.0
N593 N 0.76372 0.24871 0.67349 0.0
C594 C 0.74566 0.27807 0.685 0.0
C595 C 0.71926 0.27301 0.71395 0.0
C596 C 0.7037 0.24969 0.39901 0.0
C597 C 0.67555 0.26974 0.38277 0.0
C598 C 0.69783 0.22265 0.42598 0.0
C599 C 0.66358 0.2148 0.439 0.0
H600 H 0.73072 0.25466 0.39064 0.0
H601 H 0.72049 0.20822 0.43734 0.0
S602 S 0.58038 0.25806 0.40561 0.0
N603 N 0.61155 0.27804 0.38127 0.0
N604 N 0.60103 0.22891 0.43309 0.0
C605 C 0.63521 0.23449 0.42325 0.0
C606 C 0.64103 0.26133 0.39489 0.0
C607 C 0.7348 0.11037 0.61356 0.0
C608 C 0.6993 0.10165 0.62036 0.0
C609 C 0.75911 0.11393 0.64297 0.0
C610 C 0.75006 0.10599 0.68046 0.0
H611 H 0.74386 0.11537 0.58517 0.0
H612 H 0.78526 0.12332 0.63627 0.0
S613 S 0.66642 0.06404 0.71027 0.0
N614 N 0.65948 0.07513 0.66568 0.0
N615 N 0.70657 0.07737 0.72054 0.0
C616 C 0.71653 0.09124 0.68684 0.0
C617 C 0.69083 0.08997 0.65696 0.0
C618 C 0.8592 0.23547 0.90439 0.0
C619 C 0.83573 0.26375 0.91312 0.0
C620 C 0.85155 0.21093 0.87593 0.0
C621 C 0.81959 0.2129 0.85561 0.0
H622 H 0.88366 0.23207 0.9199 0.0
H623 H 0.87052 0.18971 0.87047 0.0
S624 S 0.7491 0.2817 0.86729 0.0
N625 N 0.77932 0.29241 0.89827 0.0
N626 N 0.76459 0.24599 0.84601 0.0
C627 C 0.79598 0.24111 0.86395 0.0
C628 C 0.80413 0.26656 0.89227 0.0
C629 C 0.80289 0.31726 0.15507 0.0
C630 C 0.79683 0.34092 0.12458 0.0
C631 C 0.78272 0.3191 0.18879 0.0
C632 C 0.7546 0.3437 0.19356 0.0
H633 H 0.82311 0.29666 0.15275 0.0
H634 H 0.78833 0.30029 0.21104 0.0
S635 S 0.72908 0.41383 0.12443 0.0
N636 N 0.76185 0.39203 0.1034 0.0
N637 N 0.72332 0.39398 0.16557 0.0
C638 C 0.74867 0.36804 0.16382 0.0
C639 C 0.76988 0.367 0.12985 0.0
C640 C 0.16585 0.74226 0.45509 0.0
C641 C 0.18176 0.73198 0.42044 0.0
C642 C 0.16899 0.72157 0.48837 0.0
C643 C 0.18948 0.69011 0.48928 0.0
H644 H 0.15041 0.76665 0.45663 0.0
H645 H 0.15594 0.73077 0.51382 0.0
S646 S 0.23499 0.64937 0.40788 0.0
N647 N 0.21605 0.68545 0.38988 0.0
N648 N 0.22506 0.64901 0.45305 0.0
C649 C 0.20546 0.67936 0.4554 0.0
C650 C 0.20088 0.69955 0.421 0.0
C651 C 0.27422 0.68354 0.73209 0.0
C652 C 0.30239 0.66112 0.74413 0.0
C653 C 0.25015 0.67335 0.70446 0.0
C654 C 0.25291 0.64026 0.68675 0.0
H655 H 0.27069 0.70969 0.74384 0.0
H656 H 0.2295 0.69217 0.69646 0.0
S657 S 0.32003 0.57012 0.70943 0.0
N658 N 0.33015 0.60296 0.73748 0.0
N659 N 0.28526 0.58402 0.68497 0.0
C660 C 0.28023 0.61694 0.69917 0.0
C661 C 0.30474 0.62726 0.7279 0.0
C662 C 0.32677 0.78264 0.90989 0.0
C663 C 0.35623 0.75909 0.91248 0.0
C664 C 0.31491 0.8028 0.9407 0.0
C665 C 0.33221 0.80104 0.97558 0.0
H666 H 0.31249 0.7858 0.88364 0.0
H667 H 0.29287 0.82098 0.93651 0.0
S668 S 0.40989 0.743 0.99847 0.0
N669 N 0.40192 0.73474 0.9537 0.0
N670 N 0.3799 0.77294 1.01146 0.0
C671 C 0.36162 0.77756 0.97885 0.0
C672 C 0.37355 0.7566 0.94745 0.0
C673 C 0.2337 0.8687 0.2295 0.0
C674 C 0.20432 0.84621 0.23085 0.0
C675 C 0.25205 0.87558 0.19557 0.0
C676 C 0.24184 0.86032 0.16146 0.0
H677 H 0.24353 0.88016 0.25516 0.0
H678 H 0.27548 0.89147 0.19644 0.0
S679 S 0.16685 0.80065 0.14835 0.0
N680 N 0.16563 0.80995 0.19372 0.0
N681 N 0.20045 0.82241 0.13063 0.0
C682 C 0.21209 0.83884 0.16196 0.0
C683 C 0.19318 0.83204 0.19637 0.0
C684 C 0.13427 0.78436 0.86829 0.0
C685 C 0.16393 0.80625 0.87041 0.0
C686 C 0.12348 0.76344 0.89919 0.0
C687 C 0.14109 0.76454 0.93398 0.0
H688 H 0.11927 0.78327 0.84241 0.0
H689 H 0.10061 0.74703 0.89608 0.0
S690 S 0.22041 0.81663 0.95437 0.0
N691 N 0.21159 0.82615 0.90986 0.0
N692 N 0.18988 0.78909 0.9685 0.0
C693 C 0.17069 0.78631 0.93646 0.0
C694 C 0.1825 0.8065 0.9046 0.0
C695 C 0.19605 0.70295 0.14381 0.0
C696 C 0.1802 0.67719 0.12138 0.0
C697 C 0.21477 0.69377 0.1766 0.0
C698 C 0.21818 0.65844 0.1884 0.0
H699 H 0.19354 0.73058 0.13639 0.0
H700 H 0.2256 0.7146 0.19349 0.0
S701 S 0.18742 0.58019 0.13687 0.0
N702 N 0.1736 0.6142 0.11104 0.0
N703 N 0.20816 0.59711 0.17311 0.0
C704 C 0.20458 0.63217 0.16517 0.0
C705 C 0.18587 0.64148 0.13148 0.0
C706 C 0.27689 0.72665 0.37529 0.0
C707 C 0.29707 0.69606 0.36572 0.0
C708 C 0.28398 0.74678 0.40775 0.0
C709 C 0.31304 0.73873 0.43113 0.0
H710 H 0.25493 0.73496 0.35767 0.0
H711 H 0.26703 0.76942 0.41398 0.0
S712 S 0.3736 0.66021 0.42003 0.0
N713 N 0.34608 0.65751 0.38432 0.0
N714 N 0.36128 0.69615 0.44301 0.0
C715 C 0.33327 0.70782 0.42212 0.0
C716 C 0.32521 0.68671 0.38984 0.0
C717 C 0.29195 0.85101 0.63271 0.0
C718 C 0.28731 0.81978 0.61216 0.0
C719 C 0.27223 0.85843 0.66567 0.0
C720 C 0.2461 0.83547 0.67929 0.0
H721 H 0.31148 0.86977 0.62361 0.0
H722 H 0.27722 0.8828 0.68028 0.0
S723 S 0.22278 0.7504 0.63536 0.0
N724 N 0.25458 0.76556 0.60801 0.0
N725 N 0.21664 0.78 0.66886 0.0
C726 C 0.24091 0.80425 0.65875 0.0
C727 C 0.2617 0.79628 0.62562 0.0
C728 C 0.63684 0.2204 0.22144 0.0
C729 C 0.67019 0.2359 0.22347 0.0
C730 C 0.62133 0.21423 0.18651 0.0
C731 C 0.63907 0.22309 0.15311 0.0
H732 H 0.62072 0.21779 0.24662 0.0
H733 H 0.59402 0.20624 0.18575 0.0
S734 S 0.73137 0.2531 0.14421 0.0
N735 N 0.72366 0.25188 0.19003 0.0
N736 N 0.6947 0.23984 0.1243 0.0
C737 C 0.67443 0.23331 0.15503 0.0
C738 C 0.6902 0.23948 0.19048 0.0
C739 C 0.72742 0.1025 0.43813 0.0
C740 C 0.71443 0.06982 0.42728 0.0
C741 C 0.74589 0.12341 0.41249 0.0
C742 C 0.75365 0.11132 0.37601 0.0
H743 H 0.7259 0.11063 0.4673 0.0
H744 H 0.75639 0.14791 0.42213 0.0
S745 S 0.71754 0.03144 0.33165 0.0
N746 N 0.70393 0.02951 0.3759 0.0
N747 N 0.74026 0.06803 0.32793 0.0
C748 C 0.7372 0.08057 0.36361 0.0
C749 C 0.71756 0.05974 0.38946 0.0
C750 C 0.85885 0.33739 0.69749 0.0
C751 C 0.82749 0.35583 0.70307 0.0
C752 C 0.86253 0.30166 0.70715 0.0
C753 C 0.8356 0.28457 0.72623 0.0
H754 H 0.8789 0.35118 0.68316 0.0
H755 H 0.88521 0.28631 0.69764 0.0
S756 S 0.76299 0.33091 0.77695 0.0
N757 N 0.77826 0.36116 0.74747 0.0
N758 N 0.78612 0.29407 0.76924 0.0
C759 C 0.80876 0.3058 0.74248 0.0
C760 C 0.80447 0.34205 0.73057 0.0
C761 C 0.79028 0.41164 0.87133 0.0
C762 C 0.78387 0.41775 0.90985 0.0
C763 C 0.76243 0.40446 0.847 0.0
C764 C 0.72752 0.40449 0.86033 0.0
H765 H 0.81702 0.40833 0.86086 0.0
H766 H 0.7685 0.39609 0.81861 0.0
S767 S 0.69606 0.42915 0.95574 0.0
N768 N 0.73959 0.43098 0.95807 0.0
N769 N 0.68718 0.41825 0.91188 0.0
C770 C 0.72037 0.4162 0.89702 0.0
C771 C 0.74868 0.42288 0.92198 0.0
C772 C 0.08732 0.80026 0.63614 0.0
C773 C 0.08411 0.79816 0.67565 0.0
C774 C 0.09037 0.76953 0.61455 0.0
C775 C 0.09021 0.7361 0.63201 0.0
H776 H 0.09125 0.82545 0.62222 0.0
H777 H 0.09649 0.77206 0.58479 0.0
S778 S 0.07173 0.71687 0.73268 0.0
N779 N 0.07281 0.76038 0.72997 0.0
N780 N 0.07872 0.70265 0.68935 0.0
C781 C 0.08193 0.73385 0.67054 0.0
C782 C 0.07874 0.76499 0.69244 0.0
C783 C 0.27758 0.70482 0.93337 0.0
C784 C 0.2995 0.67524 0.94042 0.0
C785 C 0.24712 0.71061 0.9548 0.0
C786 C 0.23763 0.68637 0.98286 0.0
H787 H 0.28365 0.7231 0.91076 0.0
H788 H 0.2299 0.73287 0.94784 0.0
S789 S 0.28553 0.60405 1.01044 0.0
N790 N 0.31021 0.62153 0.97687 0.0
N791 N 0.25144 0.63157 1.0162 0.0
C792 C 0.25934 0.65673 0.99015 0.0
C793 C 0.29084 0.65134 0.96905 0.0
C794 C 0.32272 0.68331 0.18646 0.0
C795 C 0.315 0.65926 0.15782 0.0
C796 C 0.33484 0.71711 0.17905 0.0
C797 C 0.34048 0.72899 0.14216 0.0
H798 H 0.31951 0.67718 0.21545 0.0
H799 H 0.33885 0.73439 0.20273 0.0
S800 S 0.3331 0.67516 0.05581 0.0
N801 N 0.3199 0.64879 0.09014 0.0
N802 N 0.34296 0.71267 0.07608 0.0
C803 C 0.33596 0.70482 0.11278 0.0
C804 C 0.32321 0.67007 0.12049 0.0
C805 C 0.34921 0.83624 0.41299 0.0
C806 C 0.37161 0.80742 0.40791 0.0
C807 C 0.31681 0.83947 0.3947 0.0
C808 C 0.30793 0.8166 0.36587 0.0
H809 H 0.35682 0.85498 0.43314 0.0
H810 H 0.29777 0.85904 0.40447 0.0
S811 S 0.36674 0.74521 0.32803 0.0
N812 N 0.38793 0.75953 0.36539 0.0
N813 N 0.32998 0.76955 0.32472 0.0
C814 C 0.33385 0.79127 0.35458 0.0
C815 C 0.36547 0.78593 0.37651 0.0
C816 C 0.81715 0.11873 0.92316 0.0
C817 C 0.8014 0.09246 0.90151 0.0
C818 C 0.80749 0.12375 0.96098 0.0
C819 C 0.78251 0.10208 0.97854 0.0
H820 H 0.83445 0.13765 0.90997 0.0
H821 H 0.81791 0.14611 0.97581 0.0
S822 S 0.73795 0.02617 0.9353 0.0
N823 N 0.76268 0.04234 0.9011 0.0
N824 N 0.74539 0.05076 0.97252 0.0
C825 C 0.76936 0.0735 0.95817 0.0
C826 C 0.77859 0.06896 0.91949 0.0
C827 C 0.8307 0.20611 0.12837 0.0
C828 C 0.86331 0.21064 0.1101 0.0
C829 C 0.82795 0.20865 0.16733 0.0
C830 C 0.85782 0.21325 0.19003 0.0
H831 H 0.80636 0.20467 0.11252 0.0
H832 H 0.80163 0.20985 0.17948 0.0
S833 S 0.95048 0.21726 0.1571 0.0
N834 N 0.92717 0.21395 0.11804 0.0
N835 N 0.92169 0.21641 0.19227 0.0
C836 C 0.89118 0.21269 0.17283 0.0
C837 C 0.89403 0.21153 0.13258 0.0
C838 C 0.73755 0.39353 0.43155 0.0
C839 C 0.7256 0.37097 0.46047 0.0
C840 C 0.7176 0.39967 0.39888 0.0
C841 C 0.68524 0.38327 0.3936 0.0
H842 H 0.76269 0.40645 0.43394 0.0
H843 H 0.72717 0.41808 0.37793 0.0
S844 S 0.63954 0.32617 0.46285 0.0
N845 N 0.67766 0.33464 0.48301 0.0
N846 N 0.6399 0.3469 0.42166 0.0
C847 C 0.67208 0.36201 0.42289 0.0
C848 C 0.69252 0.3554 0.45615 0.0
C849 C 0.6125 0.28868 0.68712 0.0
C850 C 0.58159 0.28531 0.70892 0.0
C851 C 0.62101 0.26469 0.65809 0.0
C852 C 0.59864 0.2366 0.64947 0.0
H853 H 0.6301 0.31018 0.69239 0.0
H854 H 0.64553 0.26793 0.64268 0.0
S855 S 0.51232 0.2191 0.69563 0.0
N856 N 0.52704 0.25395 0.71783 0.0
N857 N 0.54284 0.20862 0.66391 0.0
C858 C 0.56698 0.23385 0.67036 0.0
C859 C 0.55836 0.25842 0.69968 0.0
C860 C 0.19696 0.55929 0.44236 0.0
C861 C 0.22148 0.55816 0.47208 0.0
C862 C 0.20813 0.55997 0.40457 0.0
C863 C 0.24436 0.56035 0.39501 0.0
H864 H 0.16893 0.5623 0.4483 0.0
H865 H 0.18814 0.56365 0.38305 0.0
S866 S 0.31917 0.54973 0.4616 0.0
N867 N 0.28365 0.55068 0.48882 0.0
N868 N 0.30448 0.55331 0.41797 0.0
C869 C 0.26899 0.55518 0.42418 0.0
C870 C 0.25762 0.55378 0.46267 0.0
C871 C 0.37421 0.78366 0.65871 0.0
C872 C 0.3962 0.75785 0.67621 0.0
C873 C 0.38528 0.80224 0.6268 0.0
C874 C 0.41812 0.79504 0.61008 0.0
H875 H 0.34825 0.79018 0.67008 0.0
H876 H 0.36828 0.82291 0.61538 0.0
S877 S 0.48712 0.73254 0.64598 0.0
N878 N 0.45397 0.72841 0.67614 0.0
N879 N 0.47403 0.76241 0.61445 0.0
C880 C 0.44115 0.77047 0.6278 0.0
C881 C 0.43026 0.75198 0.66119 0.0
C882 C 0.19876 0.91415 0.90215 0.0
C883 C 0.20945 0.93514 0.87152 0.0
C884 C 0.2206 0.90905 0.93374 0.0
C885 C 0.25427 0.92395 0.93544 0.0
H886 H 0.17321 0.90179 0.90181 0.0
H887 H 0.21134 0.89273 0.95675 0.0
S888 S 0.29234 0.98527 0.8652 0.0
N889 N 0.2536 0.97514 0.84733 0.0
N890 N 0.29604 0.96286 0.90524 0.0
C891 C 0.26481 0.94589 0.90559 0.0
C892 C 0.24196 0.95224 0.87404 0.0
C893 C 0.07565 0.73393 0.13765 0.0
C894 C 0.08115 0.69782 0.13205 0.0
C895 C 0.08919 0.75082 0.16924 0.0
C896 C 0.10814 0.73212 0.1976 0.0
H897 H 0.05958 0.74906 0.11792 0.0
H898 H 0.08403 0.77897 0.17154 0.0
S899 S 0.12295 0.63508 0.20031 0.0
N900 N 0.10213 0.64244 0.16005 0.0
N901 N 0.12841 0.67421 0.2194 0.0
C902 C 0.11246 0.6954 0.19324 0.0
C903 C 0.09832 0.67816 0.16084 0.0
C904 C 0.59406 0.08249 0.33517 0.0
C905 C 0.56616 0.10381 0.34945 0.0
C906 C 0.59909 0.07838 0.29608 0.0
C907 C 0.57689 0.09603 0.26995 0.0
H908 H 0.61018 0.06655 0.35424 0.0
H909 H 0.6188 0.05934 0.28628 0.0
S910 S 0.50307 0.15826 0.29277 0.0
N911 N 0.51829 0.14524 0.33432 0.0
N912 N 0.5282 0.13799 0.26105 0.0
C913 C 0.55092 0.11965 0.28386 0.0
C914 C 0.54546 0.12345 0.32356 0.0
C915 C 0.95738 0.12281 0.51822 0.0
C916 C 0.92873 0.11165 0.49661 0.0
C917 C 0.95425 0.12733 0.5573 0.0
C918 C 0.92245 0.12046 0.57658 0.0
H919 H 0.98307 0.12602 0.50514 0.0
H920 H 0.97781 0.13335 0.57306 0.0
S921 S 0.83802 0.09597 0.53241 0.0
N922 N 0.86613 0.09829 0.49669 0.0
N923 N 0.86055 0.10616 0.57047 0.0
C924 C 0.89268 0.11256 0.55494 0.0
C925 C 0.89577 0.10824 0.51486 0.0
C926 C 0.98277 0.34244 0.80085 0.0
C927 C 0.9546 0.35025 0.77624 0.0
C928 C 0.97833 0.34463 0.84008 0.0
C929 C 0.94567 0.35519 0.85622 0.0
H930 H 0.00906 0.33732 0.78961 0.0
H931 H 0.00149 0.34143 0.85776 0.0
S932 S 0.8626 0.37389 0.80418 0.0
N933 N 0.89207 0.36505 0.7709 0.0
N934 N 0.88378 0.36943 0.84464 0.0
C935 C 0.91652 0.35964 0.83212 0.0
C936 C 0.92102 0.35722 0.79209 0.0
C937 C 0.61723 0.40946 0.08995 0.0
C938 C 0.59567 0.38736 0.11179 0.0
C939 C 0.61934 0.40613 1.05046 0.0
C940 C 0.59992 0.38062 1.03121 0.0
H941 H 0.63051 0.43112 0.10318 0.0
H942 H 0.63404 0.42549 1.03456 0.0
S943 S 0.54158 0.31481 0.07558 0.0
N944 N 0.55638 0.33766 0.11147 0.0
N945 N 0.56034 0.33146 1.03742 0.0
C946 C 0.58033 0.35679 0.053 0.0
C947 C 0.57816 0.36018 0.09322 0.0
C948 C 0.07441 0.60337 0.77597 0.0
C949 C 0.10453 0.58524 0.76194 0.0
C950 C 0.06915 0.60789 0.81491 0.0
C951 C 0.09387 0.59454 0.84124 0.0
H952 H 0.0533 0.61128 0.75694 0.0
H953 H 0.04414 0.61909 0.82461 0.0
S954 S 0.17867 0.54835 0.81879 0.0
N955 N 0.16072 0.55661 0.77716 0.0
N956 N 0.15091 0.5652 0.85034 0.0
C957 C 0.12543 0.57908 0.82741 0.0
C958 C 0.13075 0.5744 0.78773 0.0
C959 C 0.4358 0.61628 0.08029 0.0
C960 C 0.40899 0.5971 0.09837 0.0
C961 C 0.44124 0.61437 1.04094 0.0
C962 C 0.42011 0.59318 1.01812 0.0
H963 H 0.45448 0.63057 0.09706 0.0
H964 H 0.46359 0.62771 1.02864 0.0
S965 S 0.3459 0.53865 0.05131 0.0
N966 N 0.36041 0.55734 0.09002 0.0
N967 N 0.37053 0.5538 1.01641 0.0
C968 C 0.39202 0.57555 1.03553 0.0
C969 C 0.38647 0.57753 0.07551 0.0
C970 C 0.35181 0.94923 0.27292 0.0
C971 C 0.36943 0.91827 0.26046 0.0
C972 C 0.34729 0.95608 0.31158 0.0
C973 C 0.36019 0.93215 0.33903 0.0
H974 H 0.34414 0.96958 0.25273 0.0
H975 H 0.33566 0.9812 0.32007 0.0
S976 S 0.40814 0.84749 0.32084 0.0
N977 N 0.39891 0.86331 0.27843 0.0
N978 N 0.39088 0.87621 0.35093 0.0
C979 C 0.37609 0.90028 0.32683 0.0
C980 C 0.38053 0.8933 0.28755 0.0
C981 C 0.08938 0.90269 0.53697 0.0
C982 C 0.11763 0.91475 0.51475 0.0
C983 C 0.08853 0.9079 0.57602 0.0
C984 C 0.11588 0.92538 0.59438 0.0
H985 H 0.06654 0.89149 0.52363 0.0
H986 H 0.06513 0.90039 0.59163 0.0
S987 S 0.19773 0.95812 0.54988 0.0
N988 N 0.17523 0.94178 0.51448 0.0
N989 N 0.17361 0.95151 0.58817 0.0
C990 C 0.14567 0.93481 0.57312 0.0
C991 C 0.14656 0.92949 0.53318 0.0
C992 C 0.4951 0.01414 0.15839 0.0
C993 C 0.52325 0.00999 0.18408 0.0
C994 C 0.46786 0.98971 0.15712 0.0
C995 C 0.46769 0.96048 0.1817 0.0
H996 H 0.49306 0.0374 0.1405 0.0
H997 H 0.44583 0.99475 0.13827 0.0
S998 S 0.53739 0.93466 0.25026 0.0
N999 N 0.55119 0.97196 0.23144 0.0
N1000 N 0.49935 0.92664 0.22973 0.0
C1001 C 0.49652 0.95489 0.20597 0.0
C1002 C 0.52445 0.9795 0.20701 0.0
C1003 C 0.02642 0.03204 0.39265 0.0
C1004 C 0.99351 0.02804 0.41085 0.0
C1005 C 0.05291 0.00504 0.39411 0.0
C1006 C 0.0473 0.97306 0.41369 0.0
H1007 H 0.03241 0.05687 0.37895 0.0
H1008 H 0.07859 0.01007 0.38183 0.0
S1009 S 0.96394 0.94792 0.46151 0.0
N1010 N 0.95578 0.98846 0.44587 0.0
N1011 N 0.00479 0.93787 0.44809 0.0
C1012 C 0.01358 0.96806 0.42968 0.0
C1013 C 0.98695 0.99548 0.42845 0.0
C1014 C 0.06218 0.46222 0.66455 0.0
C1015 C 0.05148 0.49409 0.68188 0.0
C1016 C 0.04067 0.43235 0.66606 0.0
C1017 C 0.00789 0.43349 0.68495 0.0
H1018 H 0.08794 0.45991 0.65122 0.0
H1019 H 0.05037 0.40787 0.65381 0.0
S1020 S 0.96559 0.51164 0.73007 0.0
N1021 N 0.00407 0.52582 0.71471 0.0
N1022 N 0.96431 0.46965 0.71812 0.0
C1023 C 0.99614 0.46561 0.70054 0.0
C1024 C 0.01776 0.49592 0.69884 0.0
C1025 C 0.52625 0.51715 0.95278 0.0
C1026 C 0.49405 0.5168 0.93321 0.0
C1027 C 0.5491 0.48748 0.95352 0.0
C1028 C 0.54058 0.45596 0.93509 0.0
H1029 H 0.53339 0.54029 0.96854 0.0
H1030 H 0.57313 0.48878 0.96991 0.0
S1031 S 0.4601 0.44184 0.87848 0.0
N1032 N 0.45549 0.48291 0.8934 0.0
N1033 N 0.49831 0.42685 0.89528 0.0
C1034 C 0.50925 0.45577 0.91394 0.0
C1035 C 0.486 0.4862 0.91296 0.0
C1036 C 0.51962 0.49216 0.21512 0.0
C1037 C 0.51629 0.46144 0.19335 0.0
C1038 C 0.49329 0.51914 0.21464 0.0
C1039 C 0.46272 0.51616 0.19254 0.0
H1040 H 0.54345 0.4961 0.23121 0.0
H1041 H 0.49774 0.54319 0.23004 0.0
S1042 S 0.43884 0.43884 0.13528 0.0
N1043 N 0.4781 0.42809 0.15264 0.0
N1044 N 0.42895 0.47854 0.1517 0.0
C1045 C 0.45814 0.48463 0.17266 0.0
C1046 C 0.48483 0.45737 0.17306 0.0
C1047 C 0.44828 0.05969 0.42037 0.0
C1048 C 0.48058 0.04991 0.43748 0.0
C1049 C 0.42026 0.03611 0.41871 0.0
C1050 C 0.42336 0.00184 0.43421 0.0
H1051 H 0.4451 0.08535 0.40693 0.0
H1052 H 0.39638 0.04429 0.40398 0.0
S1053 S 0.50206 0.96313 0.48237 0.0
N1054 N 0.51376 0.0035 0.47064 0.0
N1055 N 0.46091 0.9595 0.46783 0.0
C1056 C 0.45489 0.99219 0.45277 0.0
C1057 C 0.48353 0.01613 0.45433 0.0
C1058 C 0.00789 0.99139 0.65928 0.0
C1059 C 0.03952 -0.00037 0.6776 0.0
C1060 C 0.97922 0.01541 0.65817 0.0
C1061 C 0.981 0.04861 0.67543 0.0
H1062 H 0.00569 0.96657 0.64459 0.0
H1063 H 0.95599 0.0086 0.64228 0.0
S1064 S 0.0569 0.08223 0.729 0.0
N1065 N 0.07024 0.04255 0.71516 0.0
N1066 N 0.01618 0.08784 0.71303 0.0
C1067 C 0.01166 0.05645 0.69565 0.0
C1068 C 0.04098 0.03192 0.69676 0.0
C1069 C 0.04258 0.48359 0.91524 0.0
C1070 C 0.02786 0.51601 0.92712 0.0
C1071 C 0.0236 0.45248 0.91855 0.0
C1072 C 0.98905 0.45274 0.93346 0.0
H1073 H 0.06892 0.48235 0.90307 0.0
H1074 H 0.03583 0.42809 0.90868 0.0
S1075 S 0.93876 0.53128 0.96834 0.0
N1076 N 0.97731 0.54683 0.95491 0.0
N1077 N 0.94092 0.48842 0.96016 0.0
C1078 C 0.9743 0.48501 0.94612 0.0
C1079 C 0.99387 0.51666 0.94312 0.0
loop_
_geom_bond_atom_site_label_1
_geom_bond_atom_site_label_2
_geom_bond_distance
_geom_bond_site_symmetry_2
_ccdc_geom_bond_type
O0 Tb1 2.292 1_556 S
O0 C3 1.255 . S
Tb1 O0 2.292 1_554 S
Tb1 O17 2.326 1_554 S
Tb1 O19 2.500 1_554 S
Tb1 O20 2.473 . S
Tb1 O23 2.324 . S
Eu2 O6 2.292 . S
Eu2 C7 2.852 . S
Eu2 O18 2.324 . S
Eu2 O22 2.326 . S
Eu2 O24 2.500 . S
Eu2 O25 2.473 . S
C3 O0 1.255 . S
C3 O4 1.247 . S
O4 C3 1.247 . S
C5 O17 1.242 . S
C5 O18 1.258 1_556 S
O6 Eu2 2.292 . S
O6 C8 1.255 . S
C7 Eu2 2.852 . S
C7 C11 1.503 . S
C7 O24 1.273 . S
C7 O25 1.257 . S
C8 O6 1.255 . S
C8 O9 1.247 . S
O9 C8 1.247 . S
C10 O22 1.242 . S
C10 O23 1.258 . S
C11 C7 1.503 . S
C11 C12 1.379 . S
C11 C16 1.392 . S
C12 C11 1.379 . S
C12 C13 1.404 . S
C12 H26 0.929 . S
C13 C12 1.404 . S
C13 C14 1.389 . S
C14 C13 1.389 . S
C14 C15 1.399 . S
C14 H27 0.931 1_545 S
C15 C14 1.399 . S
C15 C16 1.390 . S
C16 C11 1.392 . S
C16 C15 1.390 . S
C16 H28 0.929 . S
O17 Tb1 2.326 1_556 S
O17 C5 1.242 . S
O18 Eu2 2.324 . S
O18 C5 1.258 1_554 S
O19 Tb1 2.500 1_556 S
O19 C21 1.273 . S
O20 Tb1 2.473 . S
O20 C21 1.257 1_554 S
C21 O19 1.273 . S
C21 O20 1.257 1_556 S
O22 Eu2 2.326 . S
O22 C10 1.242 . S
O23 Tb1 2.324 . S
O23 C10 1.258 . S
O24 Eu2 2.500 . S
O24 C7 1.273 . S
O25 Eu2 2.473 . S
O25 C7 1.257 . S
H26 C12 0.929 . S
H27 C14 0.931 1_565 S
H28 C16 0.929 . S
O29 Tb30 2.292 . S
O29 C32 1.255 . S
Tb30 O29 2.292 . S
Tb30 O46 2.326 . S
Tb30 O48 2.500 . S
Tb30 O49 2.473 . S
Tb30 O52 2.324 . S
Eu31 O35 2.292 . S
Eu31 C36 2.852 . S
Eu31 O47 2.324 . S
Eu31 O51 2.326 . S
Eu31 O53 2.500 . S
Eu31 O54 2.473 . S
C32 O29 1.255 . S
C32 O33 1.247 . S
O33 C32 1.247 . S
C34 O46 1.242 . S
C34 O47 1.258 . S
O35 Eu31 2.292 . S
O35 C37 1.255 . S
C36 Eu31 2.852 . S
C36 C40 1.503 . S
C36 O53 1.273 . S
C36 O54 1.257 . S
C37 O35 1.255 . S
C37 O38 1.247 . S
O38 C37 1.247 . S
C39 O51 1.242 . S
C39 O52 1.258 . S
C40 C36 1.503 . S
C40 C41 1.379 . S
C40 C45 1.392 . S
C41 C40 1.379 . S
C41 C42 1.404 . S
C41 H55 0.929 . S
C42 C41 1.404 . S
C42 C43 1.389 . S
C43 C42 1.389 . S
C43 C44 1.399 . S
C43 H56 0.931 1_655 S
C44 C43 1.399 . S
C44 C45 1.390 . S
C45 C40 1.392 . S
C45 C44 1.390 . S
C45 H57 0.929 . S
O46 Tb30 2.326 . S
O46 C34 1.242 . S
O47 Eu31 2.324 . S
O47 C34 1.258 . S
O48 Tb30 2.500 . S
O48 C50 1.273 . S
O49 Tb30 2.473 . S
O49 C50 1.257 . S
C50 O48 1.273 . S
C50 O49 1.257 . S
O51 Eu31 2.326 . S
O51 C39 1.242 . S
O52 Tb30 2.324 . S
O52 C39 1.258 . S
O53 Eu31 2.500 . S
O53 C36 1.273 . S
O54 Eu31 2.473 . S
O54 C36 1.257 . S
H55 C41 0.929 . S
H56 C43 0.931 1_455 S
H57 C45 0.929 . S
O58 Tb59 2.292 . S
O58 C61 1.255 . S
Tb59 O58 2.292 . S
Tb59 O75 2.326 . S
Tb59 O77 2.500 . S
Tb59 O78 2.473 . S
Tb59 O81 2.324 . S
Eu60 O64 2.292 . S
Eu60 C65 2.852 . S
Eu60 O76 2.324 . S
Eu60 O80 2.326 . S
Eu60 O82 2.500 . S
Eu60 O83 2.473 . S
C61 O58 1.255 . S
C61 O62 1.247 . S
O62 C61 1.247 . S
C63 O75 1.242 . S
C63 O76 1.258 . S
O64 Eu60 2.292 . S
O64 C66 1.255 . S
C65 Eu60 2.852 . S
C65 C69 1.503 . S
C65 O82 1.273 . S
C65 O83 1.257 . S
C66 O64 1.255 . S
C66 O67 1.247 . S
O67 C66 1.247 . S
C68 O80 1.242 . S
C68 O81 1.258 . S
C69 C65 1.503 . S
C69 C70 1.379 . S
C69 C74 1.392 . S
C70 C69 1.379 . S
C70 C71 1.404 . S
C70 H84 0.929 . S
C71 C70 1.404 . S
C71 C72 1.389 . S
C72 C71 1.389 . S
C72 C73 1.399 . S
C72 H85 0.931 . S
C73 C72 1.399 . S
C73 C74 1.390 . S
C74 C69 1.392 . S
C74 C73 1.390 . S
C74 H86 0.929 . S
O75 Tb59 2.326 . S
O75 C63 1.242 . S
O76 Eu60 2.324 . S
O76 C63 1.258 . S
O77 Tb59 2.500 . S
O77 C79 1.273 . S
O78 Tb59 2.473 . S
O78 C79 1.257 . S
C79 O77 1.273 . S
C79 O78 1.257 . S
O80 Eu60 2.326 . S
O80 C68 1.242 . S
O81 Tb59 2.324 . S
O81 C68 1.258 . S
O82 Eu60 2.500 . S
O82 C65 1.273 . S
O83 Eu60 2.473 . S
O83 C65 1.257 . S
H84 C70 0.929 . S
H85 C72 0.931 . S
H86 C74 0.929 . S
O87 Tb88 2.292 . S
O87 C90 1.255 . S
Tb88 O87 2.292 . S
Tb88 O104 2.326 . S
Tb88 O106 2.500 . S
Tb88 O107 2.473 . S
Tb88 O110 2.324 . S
Eu89 O93 2.292 . S
Eu89 C94 2.852 . S
Eu89 O105 2.324 . S
Eu89 O109 2.326 . S
Eu89 O111 2.500 . S
Eu89 O112 2.473 . S
C90 O87 1.255 . S
C90 O91 1.247 . S
O91 C90 1.247 . S
C92 O104 1.242 . S
C92 O105 1.258 . S
O93 Eu89 2.292 . S
O93 C95 1.255 . S
C94 Eu89 2.852 . S
C94 C98 1.503 . S
C94 O111 1.273 . S
C94 O112 1.257 . S
C95 O93 1.255 . S
C95 O96 1.247 . S
O96 C95 1.247 . S
C97 O109 1.242 . S
C97 O110 1.258 . S
C98 C94 1.503 . S
C98 C99 1.379 . S
C98 C103 1.392 . S
C99 C98 1.379 . S
C99 C100 1.404 . S
C99 H113 0.929 . S
C100 C99 1.404 . S
C100 C101 1.389 . S
C101 C100 1.389 . S
C101 C102 1.399 . S
C101 H114 0.931 . S
C102 C101 1.399 . S
C102 C103 1.390 . S
C103 C98 1.392 . S
C103 C102 1.390 . S
C103 H115 0.929 . S
O104 Tb88 2.326 . S
O104 C92 1.242 . S
O105 Eu89 2.324 . S
O105 C92 1.258 . S
O106 Tb88 2.500 . S
O106 C108 1.273 . S
O107 Tb88 2.473 . S
O107 C108 1.257 . S
C108 O106 1.273 . S
C108 O107 1.257 . S
O109 Eu89 2.326 . S
O109 C97 1.242 . S
O110 Tb88 2.324 . S
O110 C97 1.258 . S
O111 Eu89 2.500 . S
O111 C94 1.273 . S
O112 Eu89 2.473 . S
O112 C94 1.257 . S
H113 C99 0.929 . S
H114 C101 0.931 . S
H115 C103 0.929 . S
O116 Tb117 2.292 . S
O116 C119 1.255 . S
Tb117 O116 2.292 . S
Tb117 O133 2.326 . S
Tb117 O135 2.500 . S
Tb117 O136 2.473 . S
Tb117 O139 2.324 . S
Eu118 O122 2.292 . S
Eu118 C123 2.852 . S
Eu118 O134 2.324 . S
Eu118 O138 2.326 . S
Eu118 O140 2.500 . S
Eu118 O141 2.473 . S
C119 O116 1.255 . S
C119 O120 1.247 . S
O120 C119 1.247 . S
C121 O133 1.242 . S
C121 O134 1.258 . S
O122 Eu118 2.292 . S
O122 C124 1.255 . S
C123 Eu118 2.852 . S
C123 C127 1.503 . S
C123 O140 1.273 . S
C123 O141 1.257 . S
C124 O122 1.255 . S
C124 O125 1.247 . S
O125 C124 1.247 . S
C126 O138 1.242 . S
C126 O139 1.258 . S
C127 C123 1.503 . S
C127 C128 1.379 . S
C127 C132 1.392 . S
C128 C127 1.379 . S
C128 C129 1.404 . S
C128 H142 0.929 . S
C129 C128 1.404 . S
C129 C130 1.389 . S
C130 C129 1.389 . S
C130 C131 1.399 . S
C130 H143 0.931 . S
C131 C130 1.399 . S
C131 C132 1.390 . S
C132 C127 1.392 . S
C132 C131 1.390 . S
C132 H144 0.929 . S
O133 Tb117 2.326 . S
O133 C121 1.242 . S
O134 Eu118 2.324 . S
O134 C121 1.258 . S
O135 Tb117 2.500 . S
O135 C137 1.273 . S
O136 Tb117 2.473 . S
O136 C137 1.257 . S
C137 O135 1.273 . S
C137 O136 1.257 . S
O138 Eu118 2.326 . S
O138 C126 1.242 . S
O139 Tb117 2.324 . S
O139 C126 1.258 . S
O140 Eu118 2.500 . S
O140 C123 1.273 . S
O141 Eu118 2.473 . S
O141 C123 1.257 . S
H142 C128 0.929 . S
H143 C130 0.931 . S
H144 C132 0.929 . S
O145 Tb146 2.292 . S
O145 C148 1.255 . S
Tb146 O145 2.292 . S
Tb146 O162 2.326 . S
Tb146 O164 2.500 . S
Tb146 O165 2.473 . S
Tb146 O168 2.324 . S
Eu147 O151 2.292 . S
Eu147 C152 2.852 . S
Eu147 O163 2.324 . S
Eu147 O167 2.326 . S
Eu147 O169 2.500 . S
Eu147 O170 2.473 . S
C148 O145 1.255 . S
C148 O149 1.247 . S
O149 C148 1.247 . S
C150 O162 1.242 . S
C150 O163 1.258 . S
O151 Eu147 2.292 . S
O151 C153 1.255 . S
C152 Eu147 2.852 . S
C152 C156 1.503 . S
C152 O169 1.273 . S
C152 O170 1.257 . S
C153 O151 1.255 . S
C153 O154 1.247 . S
O154 C153 1.247 . S
C155 O167 1.242 . S
C155 O168 1.258 . S
C156 C152 1.503 . S
C156 C157 1.379 . S
C156 C161 1.392 . S
C157 C156 1.379 . S
C157 C158 1.404 . S
C157 H171 0.929 . S
C158 C157 1.404 . S
C158 C159 1.389 . S
C159 C158 1.389 . S
C159 C160 1.399 . S
C159 H172 0.931 . S
C160 C159 1.399 . S
C160 C161 1.390 . S
C161 C156 1.392 . S
C161 C160 1.390 . S
C161 H173 0.929 . S
O162 Tb146 2.326 . S
O162 C150 1.242 . S
O163 Eu147 2.324 . S
O163 C150 1.258 . S
O164 Tb146 2.500 . S
O164 C166 1.273 . S
O165 Tb146 2.473 . S
O165 C166 1.257 . S
C166 O164 1.273 . S
C166 O165 1.257 . S
O167 Eu147 2.326 . S
O167 C155 1.242 . S
O168 Tb146 2.324 . S
O168 C155 1.258 . S
O169 Eu147 2.500 . S
O169 C152 1.273 . S
O170 Eu147 2.473 . S
O170 C152 1.257 . S
H171 C157 0.929 . S
H172 C159 0.931 . S
H173 C161 0.929 . S
O174 Tb175 2.292 . S
O174 C177 1.255 . S
Tb175 O174 2.292 . S
Tb175 O191 2.326 . S
Tb175 O193 2.500 . S
Tb175 O194 2.473 . S
Tb175 O197 2.324 . S
Eu176 O180 2.292 . S
Eu176 C181 2.852 . S
Eu176 O192 2.324 . S
Eu176 O196 2.326 . S
Eu176 O198 2.500 . S
Eu176 O199 2.473 . S
C177 O174 1.255 . S
C177 O178 1.247 . S
O178 C177 1.247 . S
C179 O191 1.242 . S
C179 O192 1.258 . S
O180 Eu176 2.292 . S
O180 C182 1.255 . S
C181 Eu176 2.852 . S
C181 C185 1.503 . S
C181 O198 1.273 . S
C181 O199 1.257 . S
C182 O180 1.255 . S
C182 O183 1.247 . S
O183 C182 1.247 . S
C184 O196 1.242 . S
C184 O197 1.258 . S
C185 C181 1.503 . S
C185 C186 1.379 . S
C185 C190 1.392 . S
C186 C185 1.379 . S
C186 C187 1.404 . S
C186 H200 0.929 . S
C187 C186 1.404 . S
C187 C188 1.389 . S
C188 C187 1.389 . S
C188 C189 1.399 . S
C188 H201 0.931 1_545 S
C189 C188 1.399 . S
C189 C190 1.390 . S
C190 C185 1.392 . S
C190 C189 1.390 . S
C190 H202 0.929 . S
O191 Tb175 2.326 . S
O191 C179 1.242 . S
O192 Eu176 2.324 . S
O192 C179 1.258 . S
O193 Tb175 2.500 . S
O193 C195 1.273 . S
O194 Tb175 2.473 . S
O194 C195 1.257 . S
C195 O193 1.273 . S
C195 O194 1.257 . S
O196 Eu176 2.326 . S
O196 C184 1.242 . S
O197 Tb175 2.324 . S
O197 C184 1.258 . S
O198 Eu176 2.500 . S
O198 C181 1.273 . S
O199 Eu176 2.473 . S
O199 C181 1.257 . S
H200 C186 0.929 . S
H201 C188 0.931 1_565 S
H202 C190 0.929 . S
O203 Tb204 2.292 1_554 S
O203 C206 1.255 . S
Tb204 O203 2.292 1_556 S
Tb204 O220 2.326 1_556 S
Tb204 O222 2.500 1_556 S
Tb204 O223 2.473 . S
Tb204 O226 2.324 . S
Eu205 O209 2.292 . S
Eu205 C210 2.852 . S
Eu205 O221 2.324 . S
Eu205 O225 2.326 . S
Eu205 O227 2.500 . S
Eu205 O228 2.473 . S
C206 O203 1.255 . S
C206 O207 1.247 . S
O207 C206 1.247 . S
C208 O220 1.242 . S
C208 O221 1.258 1_554 S
O209 Eu205 2.292 . S
O209 C211 1.255 . S
C210 Eu205 2.852 . S
C210 C214 1.503 . S
C210 O227 1.273 . S
C210 O228 1.257 . S
C211 O209 1.255 . S
C211 O212 1.247 . S
O212 C211 1.247 . S
C213 O225 1.242 . S
C213 O226 1.258 . S
C214 C210 1.503 . S
C214 C215 1.379 . S
C214 C219 1.392 . S
C215 C214 1.379 . S
C215 C216 1.404 . S
C215 H229 0.929 . S
C216 C215 1.404 . S
C216 C217 1.389 . S
C217 C216 1.389 . S
C217 C218 1.399 . S
C217 H230 0.931 1_655 S
C218 C217 1.399 . S
C218 C219 1.390 . S
C219 C214 1.392 . S
C219 C218 1.390 . S
C219 H231 0.929 . S
O220 Tb204 2.326 1_554 S
O220 C208 1.242 . S
O221 Eu205 2.324 . S
O221 C208 1.258 1_556 S
O222 Tb204 2.500 1_554 S
O222 C224 1.273 . S
O223 Tb204 2.473 . S
O223 C224 1.257 1_556 S
C224 O222 1.273 . S
C224 O223 1.257 1_554 S
O225 Eu205 2.326 . S
O225 C213 1.242 . S
O226 Tb204 2.324 . S
O226 C213 1.258 . S
O227 Eu205 2.500 . S
O227 C210 1.273 . S
O228 Eu205 2.473 . S
O228 C210 1.257 . S
H229 C215 0.929 . S
H230 C217 0.931 1_455 S
H231 C219 0.929 . S
O232 Tb233 2.292 . S
O232 C235 1.255 . S
Tb233 O232 2.292 . S
Tb233 O249 2.326 . S
Tb233 O251 2.500 . S
Tb233 O252 2.473 . S
Tb233 O255 2.324 . S
Eu234 O238 2.292 . S
Eu234 C239 2.852 . S
Eu234 O250 2.324 . S
Eu234 O254 2.326 . S
Eu234 O256 2.500 . S
Eu234 O257 2.473 . S
C235 O232 1.255 . S
C235 O236 1.247 . S
O236 C235 1.247 . S
C237 O249 1.242 . S
C237 O250 1.258 . S
O238 Eu234 2.292 . S
O238 C240 1.255 . S
C239 Eu234 2.852 . S
C239 C243 1.503 . S
C239 O256 1.273 . S
C239 O257 1.257 . S
C240 O238 1.255 . S
C240 O241 1.247 . S
O241 C240 1.247 . S
C242 O254 1.242 . S
C242 O255 1.258 . S
C243 C239 1.503 . S
C243 C244 1.379 . S
C243 C248 1.392 . S
C244 C243 1.379 . S
C244 C245 1.404 . S
C244 H258 0.929 . S
C245 C244 1.404 . S
C245 C246 1.389 . S
C246 C245 1.389 . S
C246 C247 1.399 . S
C246 H259 0.931 . S
C247 C246 1.399 . S
C247 C248 1.390 . S
C248 C243 1.392 . S
C248 C247 1.390 . S
C248 H260 0.929 . S
O249 Tb233 2.326 . S
O249 C237 1.242 . S
O250 Eu234 2.324 . S
O250 C237 1.258 . S
O251 Tb233 2.500 . S
O251 C253 1.273 . S
O252 Tb233 2.473 . S
O252 C253 1.257 . S
C253 O251 1.273 . S
C253 O252 1.257 . S
O254 Eu234 2.326 . S
O254 C242 1.242 . S
O255 Tb233 2.324 . S
O255 C242 1.258 . S
O256 Eu234 2.500 . S
O256 C239 1.273 . S
O257 Eu234 2.473 . S
O257 C239 1.257 . S
H258 C244 0.929 . S
H259 C246 0.931 . S
H260 C248 0.929 . S
O261 Tb262 2.292 . S
O261 C264 1.255 . S
Tb262 O261 2.292 . S
Tb262 O278 2.326 . S
Tb262 O280 2.500 . S
Tb262 O281 2.473 . S
Tb262 O284 2.324 . S
Eu263 O267 2.292 . S
Eu263 C268 2.852 . S
Eu263 O279 2.324 . S
Eu263 O283 2.326 . S
Eu263 O285 2.500 . S
Eu263 O286 2.473 . S
C264 O261 1.255 . S
C264 O265 1.247 . S
O265 C264 1.247 . S
C266 O278 1.242 . S
C266 O279 1.258 . S
O267 Eu263 2.292 . S
O267 C269 1.255 . S
C268 Eu263 2.852 . S
C268 C272 1.503 . S
C268 O285 1.273 . S
C268 O286 1.257 . S
C269 O267 1.255 . S
C269 O270 1.247 . S
O270 C269 1.247 . S
C271 O283 1.242 . S
C271 O284 1.258 . S
C272 C268 1.503 . S
C272 C273 1.379 . S
C272 C277 1.392 . S
C273 C272 1.379 . S
C273 C274 1.404 . S
C273 H287 0.929 . S
C274 C273 1.404 . S
C274 C275 1.389 . S
C275 C274 1.389 . S
C275 C276 1.399 . S
C275 H288 0.931 . S
C276 C275 1.399 . S
C276 C277 1.390 . S
C277 C272 1.392 . S
C277 C276 1.390 . S
C277 H289 0.929 . S
O278 Tb262 2.326 . S
O278 C266 1.242 . S
O279 Eu263 2.324 . S
O279 C266 1.258 . S
O280 Tb262 2.500 . S
O280 C282 1.273 . S
O281 Tb262 2.473 . S
O281 C282 1.257 . S
C282 O280 1.273 . S
C282 O281 1.257 . S
O283 Eu263 2.326 . S
O283 C271 1.242 . S
O284 Tb262 2.324 . S
O284 C271 1.258 . S
O285 Eu263 2.500 . S
O285 C268 1.273 . S
O286 Eu263 2.473 . S
O286 C268 1.257 . S
H287 C273 0.929 . S
H288 C275 0.931 . S
H289 C277 0.929 . S
O290 Tb291 2.292 1_556 S
O290 C293 1.255 . S
Tb291 O290 2.292 1_554 S
Tb291 O307 2.326 1_554 S
Tb291 O309 2.500 1_554 S
Tb291 O310 2.473 . S
Tb291 O313 2.324 . S
Eu292 O296 2.292 . S
Eu292 C297 2.852 . S
Eu292 O308 2.324 . S
Eu292 O312 2.326 . S
Eu292 O314 2.500 . S
Eu292 O315 2.473 . S
C293 O290 1.255 . S
C293 O294 1.247 . S
O294 C293 1.247 . S
C295 O307 1.242 . S
C295 O308 1.258 1_556 S
O296 Eu292 2.292 . S
O296 C298 1.255 . S
C297 Eu292 2.852 . S
C297 C301 1.503 . S
C297 O314 1.273 . S
C297 O315 1.257 . S
C298 O296 1.255 . S
C298 O299 1.247 . S
O299 C298 1.247 . S
C300 O312 1.242 . S
C300 O313 1.258 . S
C301 C297 1.503 . S
C301 C302 1.379 . S
C301 C306 1.392 . S
C302 C301 1.379 . S
C302 C303 1.404 . S
C302 H316 0.929 . S
C303 C302 1.404 . S
C303 C304 1.389 . S
C304 C303 1.389 . S
C304 C305 1.399 . S
C304 H317 0.931 1_565 S
C305 C304 1.399 . S
C305 C306 1.390 . S
C306 C301 1.392 . S
C306 C305 1.390 . S
C306 H318 0.929 . S
O307 Tb291 2.326 1_556 S
O307 C295 1.242 . S
O308 Eu292 2.324 . S
O308 C295 1.258 1_554 S
O309 Tb291 2.500 1_556 S
O309 C311 1.273 . S
O310 Tb291 2.473 . S
O310 C311 1.257 1_554 S
C311 O309 1.273 . S
C311 O310 1.257 1_556 S
O312 Eu292 2.326 . S
O312 C300 1.242 . S
O313 Tb291 2.324 . S
O313 C300 1.258 . S
O314 Eu292 2.500 . S
O314 C297 1.273 . S
O315 Eu292 2.473 . S
O315 C297 1.257 . S
H316 C302 0.929 . S
H317 C304 0.931 1_545 S
H318 C306 0.929 . S
O319 Tb320 2.292 . S
O319 C322 1.255 . S
Tb320 O319 2.292 . S
Tb320 O336 2.326 . S
Tb320 O338 2.500 . S
Tb320 O339 2.473 . S
Tb320 O342 2.324 . S
Eu321 O325 2.292 . S
Eu321 C326 2.852 . S
Eu321 O337 2.324 . S
Eu321 O341 2.326 . S
Eu321 O343 2.500 . S
Eu321 O344 2.473 . S
C322 O319 1.255 . S
C322 O323 1.247 . S
O323 C322 1.247 . S
C324 O336 1.242 . S
C324 O337 1.258 . S
O325 Eu321 2.292 . S
O325 C327 1.255 . S
C326 Eu321 2.852 . S
C326 C330 1.503 . S
C326 O343 1.273 . S
C326 O344 1.257 . S
C327 O325 1.255 . S
C327 O328 1.247 . S
O328 C327 1.247 . S
C329 O341 1.242 . S
C329 O342 1.258 . S
C330 C326 1.503 . S
C330 C331 1.379 . S
C330 C335 1.392 . S
C331 C330 1.379 . S
C331 C332 1.404 . S
C331 H345 0.929 . S
C332 C331 1.404 . S
C332 C333 1.389 . S
C333 C332 1.389 . S
C333 C334 1.399 . S
C333 H346 0.931 1_455 S
C334 C333 1.399 . S
C334 C335 1.390 . S
C335 C330 1.392 . S
C335 C334 1.390 . S
C335 H347 0.929 . S
O336 Tb320 2.326 . S
O336 C324 1.242 . S
O337 Eu321 2.324 . S
O337 C324 1.258 . S
O338 Tb320 2.500 . S
O338 C340 1.273 . S
O339 Tb320 2.473 . S
O339 C340 1.257 . S
C340 O338 1.273 . S
C340 O339 1.257 . S
O341 Eu321 2.326 . S
O341 C329 1.242 . S
O342 Tb320 2.324 . S
O342 C329 1.258 . S
O343 Eu321 2.500 . S
O343 C326 1.273 . S
O344 Eu321 2.473 . S
O344 C326 1.257 . S
H345 C331 0.929 . S
H346 C333 0.931 1_655 S
H347 C335 0.929 . S
O348 Tb349 2.292 . S
O348 C351 1.255 . S
Tb349 O348 2.292 . S
Tb349 O365 2.326 . S
Tb349 O367 2.500 . S
Tb349 O368 2.473 . S
Tb349 O371 2.324 . S
Eu350 O354 2.292 . S
Eu350 C355 2.852 . S
Eu350 O366 2.324 . S
Eu350 O370 2.326 . S
Eu350 O372 2.500 . S
Eu350 O373 2.473 . S
C351 O348 1.255 . S
C351 O352 1.247 . S
O352 C351 1.247 . S
C353 O365 1.242 . S
C353 O366 1.258 . S
O354 Eu350 2.292 . S
O354 C356 1.255 . S
C355 Eu350 2.852 . S
C355 C359 1.503 . S
C355 O372 1.273 . S
C355 O373 1.257 . S
C356 O354 1.255 . S
C356 O357 1.247 . S
O357 C356 1.247 . S
C358 O370 1.242 . S
C358 O371 1.258 . S
C359 C355 1.503 . S
C359 C360 1.379 . S
C359 C364 1.392 . S
C360 C359 1.379 . S
C360 C361 1.404 . S
C360 H374 0.929 . S
C361 C360 1.404 . S
C361 C362 1.389 . S
C362 C361 1.389 . S
C362 C363 1.399 . S
C362 H375 0.931 1_565 S
C363 C362 1.399 . S
C363 C364 1.390 . S
C364 C359 1.392 . S
C364 C363 1.390 . S
C364 H376 0.929 . S
O365 Tb349 2.326 . S
O365 C353 1.242 . S
O366 Eu350 2.324 . S
O366 C353 1.258 . S
O367 Tb349 2.500 . S
O367 C369 1.273 . S
O368 Tb349 2.473 . S
O368 C369 1.257 . S
C369 O367 1.273 . S
C369 O368 1.257 . S
O370 Eu350 2.326 . S
O370 C358 1.242 . S
O371 Tb349 2.324 . S
O371 C358 1.258 . S
O372 Eu350 2.500 . S
O372 C355 1.273 . S
O373 Eu350 2.473 . S
O373 C355 1.257 . S
H374 C360 0.929 . S
H375 C362 0.931 1_545 S
H376 C364 0.929 . S
O377 Tb378 2.292 1_554 S
O377 C380 1.255 . S
Tb378 O377 2.292 1_556 S
Tb378 O394 2.326 1_556 S
Tb378 O396 2.500 1_556 S
Tb378 O397 2.473 . S
Tb378 O400 2.324 . S
Eu379 O383 2.292 . S
Eu379 C384 2.852 . S
Eu379 O395 2.324 . S
Eu379 O399 2.326 . S
Eu379 O401 2.500 . S
Eu379 O402 2.473 . S
C380 O377 1.255 . S
C380 O381 1.247 . S
O381 C380 1.247 . S
C382 O394 1.242 . S
C382 O395 1.258 1_554 S
O383 Eu379 2.292 . S
O383 C385 1.255 . S
C384 Eu379 2.852 . S
C384 C388 1.503 . S
C384 O401 1.273 . S
C384 O402 1.257 . S
C385 O383 1.255 . S
C385 O386 1.247 . S
O386 C385 1.247 . S
C387 O399 1.242 . S
C387 O400 1.258 . S
C388 C384 1.503 . S
C388 C389 1.379 . S
C388 C393 1.392 . S
C389 C388 1.379 . S
C389 C390 1.404 . S
C389 H403 0.929 . S
C390 C389 1.404 . S
C390 C391 1.389 . S
C391 C390 1.389 . S
C391 C392 1.399 . S
C391 H404 0.931 1_455 S
C392 C391 1.399 . S
C392 C393 1.390 . S
C393 C388 1.392 . S
C393 C392 1.390 . S
C393 H405 0.929 . S
O394 Tb378 2.326 1_554 S
O394 C382 1.242 . S
O395 Eu379 2.324 . S
O395 C382 1.258 1_556 S
O396 Tb378 2.500 1_554 S
O396 C398 1.273 . S
O397 Tb378 2.473 . S
O397 C398 1.257 1_556 S
C398 O396 1.273 . S
C398 O397 1.257 1_554 S
O399 Eu379 2.326 . S
O399 C387 1.242 . S
O400 Tb378 2.324 . S
O400 C387 1.258 . S
O401 Eu379 2.500 . S
O401 C384 1.273 . S
O402 Eu379 2.473 . S
O402 C384 1.257 . S
H403 C389 0.929 . S
H404 C391 0.931 1_655 S
H405 C393 0.929 . S
O406 Tb407 2.292 . S
O406 C409 1.255 . S
Tb407 O406 2.292 . S
Tb407 O423 2.326 . S
Tb407 O425 2.500 . S
Tb407 O426 2.473 . S
Tb407 O429 2.324 . S
Eu408 O412 2.292 . S
Eu408 C413 2.852 . S
Eu408 O424 2.324 . S
Eu408 O428 2.326 . S
Eu408 O430 2.500 . S
Eu408 O431 2.473 . S
C409 O406 1.255 . S
C409 O410 1.247 . S
O410 C409 1.247 . S
C411 O423 1.242 . S
C411 O424 1.258 . S
O412 Eu408 2.292 . S
O412 C414 1.255 . S
C413 Eu408 2.852 . S
C413 C417 1.503 . S
C413 O430 1.273 . S
C413 O431 1.257 . S
C414 O412 1.255 . S
C414 O415 1.247 . S
O415 C414 1.247 . S
C416 O428 1.242 . S
C416 O429 1.258 . S
C417 C413 1.503 . S
C417 C418 1.379 . S
C417 C422 1.392 . S
C418 C417 1.379 . S
C418 C419 1.404 . S
C418 H432 0.929 . S
C419 C418 1.404 . S
C419 C420 1.389 . S
C420 C419 1.389 . S
C420 C421 1.399 . S
C420 H433 0.931 . S
C421 C420 1.399 . S
C421 C422 1.390 . S
C422 C417 1.392 . S
C422 C421 1.390 . S
C422 H434 0.929 . S
O423 Tb407 2.326 . S
O423 C411 1.242 . S
O424 Eu408 2.324 . S
O424 C411 1.258 . S
O425 Tb407 2.500 . S
O425 C427 1.273 . S
O426 Tb407 2.473 . S
O426 C427 1.257 . S
C427 O425 1.273 . S
C427 O426 1.257 . S
O428 Eu408 2.326 . S
O428 C416 1.242 . S
O429 Tb407 2.324 . S
O429 C416 1.258 . S
O430 Eu408 2.500 . S
O430 C413 1.273 . S
O431 Eu408 2.473 . S
O431 C413 1.257 . S
H432 C418 0.929 . S
H433 C420 0.931 . S
H434 C422 0.929 . S
O435 Tb436 2.292 . S
O435 C438 1.255 . S
Tb436 O435 2.292 . S
Tb436 O452 2.326 . S
Tb436 O454 2.500 . S
Tb436 O455 2.473 . S
Tb436 O458 2.324 . S
Eu437 O441 2.292 . S
Eu437 C442 2.852 . S
Eu437 O453 2.324 . S
Eu437 O457 2.326 . S
Eu437 O459 2.500 . S
Eu437 O460 2.473 . S
C438 O435 1.255 . S
C438 O439 1.247 . S
O439 C438 1.247 . S
C440 O452 1.242 . S
C440 O453 1.258 . S
O441 Eu437 2.292 . S
O441 C443 1.255 . S
C442 Eu437 2.852 . S
C442 C446 1.503 . S
C442 O459 1.273 . S
C442 O460 1.257 . S
C443 O441 1.255 . S
C443 O444 1.247 . S
O444 C443 1.247 . S
C445 O457 1.242 . S
C445 O458 1.258 . S
C446 C442 1.503 . S
C446 C447 1.379 . S
C446 C451 1.392 . S
C447 C446 1.379 . S
C447 C448 1.404 . S
C447 H461 0.929 . S
C448 C447 1.404 . S
C448 C449 1.389 . S
C449 C448 1.389 . S
C449 C450 1.399 . S
C449 H462 0.931 . S
C450 C449 1.399 . S
C450 C451 1.390 . S
C451 C446 1.392 . S
C451 C450 1.390 . S
C451 H463 0.929 . S
O452 Tb436 2.326 . S
O452 C440 1.242 . S
O453 Eu437 2.324 . S
O453 C440 1.258 . S
O454 Tb436 2.500 . S
O454 C456 1.273 . S
O455 Tb436 2.473 . S
O455 C456 1.257 . S
C456 O454 1.273 . S
C456 O455 1.257 . S
O457 Eu437 2.326 . S
O457 C445 1.242 . S
O458 Tb436 2.324 . S
O458 C445 1.258 . S
O459 Eu437 2.500 . S
O459 C442 1.273 . S
O460 Eu437 2.473 . S
O460 C442 1.257 . S
H461 C447 0.929 . S
H462 C449 0.931 . S
H463 C451 0.929 . S
C464 C465 1.369 1_554 S
C464 C466 1.419 . S
C464 H468 0.930 . S
C465 C464 1.369 1_556 S
C465 C474 1.429 . S
C466 C464 1.419 . S
C466 C467 1.363 . S
C466 H469 0.929 . S
C467 C466 1.363 . S
C467 C473 1.428 1_554 S
H468 C464 0.930 . S
H469 C466 0.929 . S
S470 N471 1.613 . S
S470 N472 1.610 . S
N471 S470 1.613 . S
N471 C474 1.350 . S
N472 S470 1.610 . S
N472 C473 1.351 . S
C473 C467 1.428 1_556 S
C473 N472 1.351 . S
C473 C474 1.434 . S
C474 C465 1.429 . S
C474 N471 1.350 . S
C474 C473 1.434 . S
C475 C476 1.369 . S
C475 C477 1.419 . S
C475 H479 0.930 . S
C476 C475 1.369 . S
C476 C485 1.429 . S
C477 C475 1.419 . S
C477 C478 1.363 . S
C477 H480 0.929 . S
C478 C477 1.363 . S
C478 C484 1.428 . S
H479 C475 0.930 . S
H480 C477 0.929 . S
S481 N482 1.613 . S
S481 N483 1.610 . S
N482 S481 1.613 . S
N482 C485 1.350 . S
N483 S481 1.610 . S
N483 C484 1.351 . S
C484 C478 1.428 . S
C484 N483 1.351 . S
C484 C485 1.434 . S
C485 C476 1.429 . S
C485 N482 1.350 . S
C485 C484 1.434 . S
C486 C487 1.369 . S
C486 C488 1.419 . S
C486 H490 0.930 . S
C487 C486 1.369 . S
C487 C496 1.429 . S
C488 C486 1.419 . S
C488 C489 1.363 . S
C488 H491 0.929 . S
C489 C488 1.363 . S
C489 C495 1.428 . S
H490 C486 0.930 . S
H491 C488 0.929 . S
S492 N493 1.613 . S
S492 N494 1.610 . S
N493 S492 1.613 . S
N493 C496 1.350 . S
N494 S492 1.610 . S
N494 C495 1.351 . S
C495 C489 1.428 . S
C495 N494 1.351 . S
C495 C496 1.434 . S
C496 C487 1.429 . S
C496 N493 1.350 . S
C496 C495 1.434 . S
C497 C498 1.369 . S
C497 C499 1.419 . S
C497 H501 0.930 . S
C498 C497 1.369 . S
C498 C507 1.429 . S
C499 C497 1.419 . S
C499 C500 1.363 . S
C499 H502 0.929 . S
C500 C499 1.363 . S
C500 C506 1.428 . S
H501 C497 0.930 . S
H502 C499 0.929 . S
S503 N504 1.613 . S
S503 N505 1.610 . S
N504 S503 1.613 . S
N504 C507 1.350 . S
N505 S503 1.610 . S
N505 C506 1.351 . S
C506 C500 1.428 . S
C506 N505 1.351 . S
C506 C507 1.434 . S
C507 C498 1.429 . S
C507 N504 1.350 . S
C507 C506 1.434 . S
C508 C509 1.369 . S
C508 C510 1.419 . S
C508 H512 0.930 . S
C509 C508 1.369 . S
C509 C518 1.429 . S
C510 C508 1.419 . S
C510 C511 1.363 . S
C510 H513 0.929 . S
C511 C510 1.363 . S
C511 C517 1.428 . S
H512 C508 0.930 . S
H513 C510 0.929 . S
S514 N515 1.613 . S
S514 N516 1.610 . S
N515 S514 1.613 . S
N515 C518 1.350 . S
N516 S514 1.610 . S
N516 C517 1.351 . S
C517 C511 1.428 . S
C517 N516 1.351 . S
C517 C518 1.434 . S
C518 C509 1.429 . S
C518 N515 1.350 . S
C518 C517 1.434 . S
C519 C520 1.369 . S
C519 C521 1.419 . S
C519 H523 0.930 . S
C520 C519 1.369 . S
C520 C529 1.429 . S
C521 C519 1.419 . S
C521 C522 1.363 . S
C521 H524 0.929 . S
C522 C521 1.363 . S
C522 C528 1.428 . S
H523 C519 0.930 . S
H524 C521 0.929 . S
S525 N526 1.613 . S
S525 N527 1.610 . S
N526 S525 1.613 . S
N526 C529 1.350 . S
N527 S525 1.610 . S
N527 C528 1.351 . S
C528 C522 1.428 . S
C528 N527 1.351 . S
C528 C529 1.434 . S
C529 C520 1.429 . S
C529 N526 1.350 . S
C529 C528 1.434 . S
C530 C531 1.369 . S
C530 C532 1.419 1_556 S
C530 H534 0.930 . S
C531 C530 1.369 . S
C531 C540 1.429 . S
C532 C530 1.419 1_554 S
C532 C533 1.363 . S
C532 H535 0.929 . S
C533 C532 1.363 . S
C533 C539 1.428 . S
H534 C530 0.930 . S
H535 C532 0.929 . S
S536 N537 1.613 . S
S536 N538 1.610 1_556 S
N537 S536 1.613 . S
N537 C540 1.350 . S
N538 S536 1.610 1_554 S
N538 C539 1.351 . S
C539 C533 1.428 . S
C539 N538 1.351 . S
C539 C540 1.434 1_554 S
C540 C531 1.429 . S
C540 N537 1.350 . S
C540 C539 1.434 1_556 S
C541 C542 1.369 . S
C541 C543 1.419 . S
C541 H545 0.930 . S
C542 C541 1.369 . S
C542 C551 1.429 . S
C543 C541 1.419 . S
C543 C544 1.363 . S
C543 H546 0.929 . S
C544 C543 1.363 . S
C544 C550 1.428 . S
H545 C541 0.930 . S
H546 C543 0.929 . S
S547 N548 1.613 . S
S547 N549 1.610 . S
N548 S547 1.613 . S
N548 C551 1.350 . S
N549 S547 1.610 . S
N549 C550 1.351 . S
C550 C544 1.428 . S
C550 N549 1.351 . S
C550 C551 1.434 . S
C551 C542 1.429 . S
C551 N548 1.350 . S
C551 C550 1.434 . S
C552 C553 1.369 . S
C552 C554 1.419 . S
C552 H556 0.930 . S
C553 C552 1.369 . S
C553 C562 1.429 . S
C554 C552 1.419 . S
C554 C555 1.363 . S
C554 H557 0.929 . S
C555 C554 1.363 . S
C555 C561 1.428 . S
H556 C552 0.930 . S
H557 C554 0.929 . S
S558 N559 1.613 . S
S558 N560 1.610 . S
N559 S558 1.613 . S
N559 C562 1.350 . S
N560 S558 1.610 . S
N560 C561 1.351 . S
C561 C555 1.428 . S
C561 N560 1.351 . S
C561 C562 1.434 . S
C562 C553 1.429 . S
C562 N559 1.350 . S
C562 C561 1.434 . S
C563 C564 1.369 . S
C563 C565 1.419 . S
C563 H567 0.930 . S
C564 C563 1.369 . S
C564 C573 1.429 . S
C565 C563 1.419 . S
C565 C566 1.363 . S
C565 H568 0.929 . S
C566 C565 1.363 . S
C566 C572 1.428 . S
H567 C563 0.930 . S
H568 C565 0.929 . S
S569 N570 1.613 . S
S569 N571 1.610 . S
N570 S569 1.613 . S
N570 C573 1.350 . S
N571 S569 1.610 . S
N571 C572 1.351 . S
C572 C566 1.428 . S
C572 N571 1.351 . S
C572 C573 1.434 . S
C573 C564 1.429 . S
C573 N570 1.350 . S
C573 C572 1.434 . S
C574 C575 1.369 . S
C574 C576 1.419 . S
C574 H578 0.930 . S
C575 C574 1.369 . S
C575 C584 1.429 . S
C576 C574 1.419 . S
C576 C577 1.363 . S
C576 H579 0.929 . S
C577 C576 1.363 . S
C577 C583 1.428 . S
H578 C574 0.930 . S
H579 C576 0.929 . S
S580 N581 1.613 . S
S580 N582 1.610 . S
N581 S580 1.613 . S
N581 C584 1.350 . S
N582 S580 1.610 . S
N582 C583 1.351 . S
C583 C577 1.428 . S
C583 N582 1.351 . S
C583 C584 1.434 . S
C584 C575 1.429 . S
C584 N581 1.350 . S
C584 C583 1.434 . S
C585 C586 1.369 . S
C585 C587 1.419 . S
C585 H589 0.930 . S
C586 C585 1.369 . S
C586 C595 1.429 . S
C587 C585 1.419 . S
C587 C588 1.363 . S
C587 H590 0.929 . S
C588 C587 1.363 . S
C588 C594 1.428 . S
H589 C585 0.930 . S
H590 C587 0.929 . S
S591 N592 1.613 . S
S591 N593 1.610 . S
N592 S591 1.613 . S
N592 C595 1.350 . S
N593 S591 1.610 . S
N593 C594 1.351 . S
C594 C588 1.428 . S
C594 N593 1.351 . S
C594 C595 1.434 . S
C595 C586 1.429 . S
C595 N592 1.350 . S
C595 C594 1.434 . S
C596 C597 1.369 . S
C596 C598 1.419 . S
C596 H600 0.930 . S
C597 C596 1.369 . S
C597 C606 1.429 . S
C598 C596 1.419 . S
C598 C599 1.363 . S
C598 H601 0.929 . S
C599 C598 1.363 . S
C599 C605 1.428 . S
H600 C596 0.930 . S
H601 C598 0.929 . S
S602 N603 1.613 . S
S602 N604 1.610 . S
N603 S602 1.613 . S
N603 C606 1.350 . S
N604 S602 1.610 . S
N604 C605 1.351 . S
C605 C599 1.428 . S
C605 N604 1.351 . S
C605 C606 1.434 . S
C606 C597 1.429 . S
C606 N603 1.350 . S
C606 C605 1.434 . S
C607 C608 1.369 . S
C607 C609 1.419 . S
C607 H611 0.930 . S
C608 C607 1.369 . S
C608 C617 1.429 . S
C609 C607 1.419 . S
C609 C610 1.363 . S
C609 H612 0.929 . S
C610 C609 1.363 . S
C610 C616 1.428 . S
H611 C607 0.930 . S
H612 C609 0.929 . S
S613 N614 1.613 . S
S613 N615 1.610 . S
N614 S613 1.613 . S
N614 C617 1.350 . S
N615 S613 1.610 . S
N615 C616 1.351 . S
C616 C610 1.428 . S
C616 N615 1.351 . S
C616 C617 1.434 . S
C617 C608 1.429 . S
C617 N614 1.350 . S
C617 C616 1.434 . S
C618 C619 1.369 . S
C618 C620 1.419 . S
C618 H622 0.930 . S
C619 C618 1.369 . S
C619 C628 1.429 . S
C620 C618 1.419 . S
C620 C621 1.363 . S
C620 H623 0.929 . S
C621 C620 1.363 . S
C621 C627 1.428 . S
H622 C618 0.930 . S
H623 C620 0.929 . S
S624 N625 1.613 . S
S624 N626 1.610 . S
N625 S624 1.613 . S
N625 C628 1.350 . S
N626 S624 1.610 . S
N626 C627 1.351 . S
C627 C621 1.428 . S
C627 N626 1.351 . S
C627 C628 1.434 . S
C628 C619 1.429 . S
C628 N625 1.350 . S
C628 C627 1.434 . S
C629 C630 1.369 . S
C629 C631 1.419 . S
C629 H633 0.930 . S
C630 C629 1.369 . S
C630 C639 1.429 . S
C631 C629 1.419 . S
C631 C632 1.363 . S
C631 H634 0.929 . S
C632 C631 1.363 . S
C632 C638 1.428 . S
H633 C629 0.930 . S
H634 C631 0.929 . S
S635 N636 1.613 . S
S635 N637 1.610 . S
N636 S635 1.613 . S
N636 C639 1.350 . S
N637 S635 1.610 . S
N637 C638 1.351 . S
C638 C632 1.428 . S
C638 N637 1.351 . S
C638 C639 1.434 . S
C639 C630 1.429 . S
C639 N636 1.350 . S
C639 C638 1.434 . S
C640 C641 1.369 . S
C640 C642 1.419 . S
C640 H644 0.930 . S
C641 C640 1.369 . S
C641 C650 1.429 . S
C642 C640 1.419 . S
C642 C643 1.363 . S
C642 H645 0.929 . S
C643 C642 1.363 . S
C643 C649 1.428 . S
H644 C640 0.930 . S
H645 C642 0.929 . S
S646 N647 1.613 . S
S646 N648 1.610 . S
N647 S646 1.613 . S
N647 C650 1.350 . S
N648 S646 1.610 . S
N648 C649 1.351 . S
C649 C643 1.428 . S
C649 N648 1.351 . S
C649 C650 1.434 . S
C650 C641 1.429 . S
C650 N647 1.350 . S
C650 C649 1.434 . S
C651 C652 1.369 . S
C651 C653 1.419 . S
C651 H655 0.930 . S
C652 C651 1.369 . S
C652 C661 1.429 . S
C653 C651 1.419 . S
C653 C654 1.363 . S
C653 H656 0.929 . S
C654 C653 1.363 . S
C654 C660 1.428 . S
H655 C651 0.930 . S
H656 C653 0.929 . S
S657 N658 1.613 . S
S657 N659 1.610 . S
N658 S657 1.613 . S
N658 C661 1.350 . S
N659 S657 1.610 . S
N659 C660 1.351 . S
C660 C654 1.428 . S
C660 N659 1.351 . S
C660 C661 1.434 . S
C661 C652 1.429 . S
C661 N658 1.350 . S
C661 C660 1.434 . S
C662 C663 1.369 . S
C662 C664 1.419 . S
C662 H666 0.930 . S
C663 C662 1.369 . S
C663 C672 1.429 . S
C664 C662 1.419 . S
C664 C665 1.363 . S
C664 H667 0.929 . S
C665 C664 1.363 . S
C665 C671 1.428 . S
H666 C662 0.930 . S
H667 C664 0.929 . S
S668 N669 1.613 . S
S668 N670 1.610 . S
N669 S668 1.613 . S
N669 C672 1.350 . S
N670 S668 1.610 . S
N670 C671 1.351 . S
C671 C665 1.428 . S
C671 N670 1.351 . S
C671 C672 1.434 . S
C672 C663 1.429 . S
C672 N669 1.350 . S
C672 C671 1.434 . S
C673 C674 1.369 . S
C673 C675 1.419 . S
C673 H677 0.930 . S
C674 C673 1.369 . S
C674 C683 1.429 . S
C675 C673 1.419 . S
C675 C676 1.363 . S
C675 H678 0.929 . S
C676 C675 1.363 . S
C676 C682 1.428 . S
H677 C673 0.930 . S
H678 C675 0.929 . S
S679 N680 1.613 . S
S679 N681 1.610 . S
N680 S679 1.613 . S
N680 C683 1.350 . S
N681 S679 1.610 . S
N681 C682 1.351 . S
C682 C676 1.428 . S
C682 N681 1.351 . S
C682 C683 1.434 . S
C683 C674 1.429 . S
C683 N680 1.350 . S
C683 C682 1.434 . S
C684 C685 1.369 . S
C684 C686 1.419 . S
C684 H688 0.930 . S
C685 C684 1.369 . S
C685 C694 1.429 . S
C686 C684 1.419 . S
C686 C687 1.363 . S
C686 H689 0.929 . S
C687 C686 1.363 . S
C687 C693 1.428 . S
H688 C684 0.930 . S
H689 C686 0.929 . S
S690 N691 1.613 . S
S690 N692 1.610 . S
N691 S690 1.613 . S
N691 C694 1.350 . S
N692 S690 1.610 . S
N692 C693 1.351 . S
C693 C687 1.428 . S
C693 N692 1.351 . S
C693 C694 1.434 . S
C694 C685 1.429 . S
C694 N691 1.350 . S
C694 C693 1.434 . S
C695 C696 1.369 . S
C695 C697 1.419 . S
C695 H699 0.930 . S
C696 C695 1.369 . S
C696 C705 1.429 . S
C697 C695 1.419 . S
C697 C698 1.363 . S
C697 H700 0.929 . S
C698 C697 1.363 . S
C698 C704 1.428 . S
H699 C695 0.930 . S
H700 C697 0.929 . S
S701 N702 1.613 . S
S701 N703 1.610 . S
N702 S701 1.613 . S
N702 C705 1.350 . S
N703 S701 1.610 . S
N703 C704 1.351 . S
C704 C698 1.428 . S
C704 N703 1.351 . S
C704 C705 1.434 . S
C705 C696 1.429 . S
C705 N702 1.350 . S
C705 C704 1.434 . S
C706 C707 1.369 . S
C706 C708 1.419 . S
C706 H710 0.930 . S
C707 C706 1.369 . S
C707 C716 1.429 . S
C708 C706 1.419 . S
C708 C709 1.363 . S
C708 H711 0.929 . S
C709 C708 1.363 . S
C709 C715 1.428 . S
H710 C706 0.930 . S
H711 C708 0.929 . S
S712 N713 1.613 . S
S712 N714 1.610 . S
N713 S712 1.613 . S
N713 C716 1.350 . S
N714 S712 1.610 . S
N714 C715 1.351 . S
C715 C709 1.428 . S
C715 N714 1.351 . S
C715 C716 1.434 . S
C716 C707 1.429 . S
C716 N713 1.350 . S
C716 C715 1.434 . S
C717 C718 1.369 . S
C717 C719 1.419 . S
C717 H721 0.930 . S
C718 C717 1.369 . S
C718 C727 1.429 . S
C719 C717 1.419 . S
C719 C720 1.363 . S
C719 H722 0.929 . S
C720 C719 1.363 . S
C720 C726 1.428 . S
H721 C717 0.930 . S
H722 C719 0.929 . S
S723 N724 1.613 . S
S723 N725 1.610 . S
N724 S723 1.613 . S
N724 C727 1.350 . S
N725 S723 1.610 . S
N725 C726 1.351 . S
C726 C720 1.428 . S
C726 N725 1.351 . S
C726 C727 1.434 . S
C727 C718 1.429 . S
C727 N724 1.350 . S
C727 C726 1.434 . S
C728 C729 1.369 . S
C728 C730 1.419 . S
C728 H732 0.930 . S
C729 C728 1.369 . S
C729 C738 1.429 . S
C730 C728 1.419 . S
C730 C731 1.363 . S
C730 H733 0.929 . S
C731 C730 1.363 . S
C731 C737 1.428 . S
H732 C728 0.930 . S
H733 C730 0.929 . S
S734 N735 1.613 . S
S734 N736 1.610 . S
N735 S734 1.613 . S
N735 C738 1.350 . S
N736 S734 1.610 . S
N736 C737 1.351 . S
C737 C731 1.428 . S
C737 N736 1.351 . S
C737 C738 1.434 . S
C738 C729 1.429 . S
C738 N735 1.350 . S
C738 C737 1.434 . S
C739 C740 1.369 . S
C739 C741 1.419 . S
C739 H743 0.930 . S
C740 C739 1.369 . S
C740 C749 1.429 . S
C741 C739 1.419 . S
C741 C742 1.363 . S
C741 H744 0.929 . S
C742 C741 1.363 . S
C742 C748 1.428 . S
H743 C739 0.930 . S
H744 C741 0.929 . S
S745 N746 1.613 . S
S745 N747 1.610 . S
N746 S745 1.613 . S
N746 C749 1.350 . S
N747 S745 1.610 . S
N747 C748 1.351 . S
C748 C742 1.428 . S
C748 N747 1.351 . S
C748 C749 1.434 . S
C749 C740 1.429 . S
C749 N746 1.350 . S
C749 C748 1.434 . S
C750 C751 1.369 . S
C750 C752 1.419 . S
C750 H754 0.930 . S
C751 C750 1.369 . S
C751 C760 1.429 . S
C752 C750 1.419 . S
C752 C753 1.363 . S
C752 H755 0.929 . S
C753 C752 1.363 . S
C753 C759 1.428 . S
H754 C750 0.930 . S
H755 C752 0.929 . S
S756 N757 1.613 . S
S756 N758 1.610 . S
N757 S756 1.613 . S
N757 C760 1.350 . S
N758 S756 1.610 . S
N758 C759 1.351 . S
C759 C753 1.428 . S
C759 N758 1.351 . S
C759 C760 1.434 . S
C760 C751 1.429 . S
C760 N757 1.350 . S
C760 C759 1.434 . S
C761 C762 1.369 . S
C761 C763 1.419 . S
C761 H765 0.930 . S
C762 C761 1.369 . S
C762 C771 1.429 . S
C763 C761 1.419 . S
C763 C764 1.363 . S
C763 H766 0.929 . S
C764 C763 1.363 . S
C764 C770 1.428 . S
H765 C761 0.930 . S
H766 C763 0.929 . S
S767 N768 1.613 . S
S767 N769 1.610 . S
N768 S767 1.613 . S
N768 C771 1.350 . S
N769 S767 1.610 . S
N769 C770 1.351 . S
C770 C764 1.428 . S
C770 N769 1.351 . S
C770 C771 1.434 . S
C771 C762 1.429 . S
C771 N768 1.350 . S
C771 C770 1.434 . S
C772 C773 1.369 . S
C772 C774 1.419 . S
C772 H776 0.930 . S
C773 C772 1.369 . S
C773 C782 1.429 . S
C774 C772 1.419 . S
C774 C775 1.363 . S
C774 H777 0.929 . S
C775 C774 1.363 . S
C775 C781 1.428 . S
H776 C772 0.930 . S
H777 C774 0.929 . S
S778 N779 1.613 . S
S778 N780 1.610 . S
N779 S778 1.613 . S
N779 C782 1.350 . S
N780 S778 1.610 . S
N780 C781 1.351 . S
C781 C775 1.428 . S
C781 N780 1.351 . S
C781 C782 1.434 . S
C782 C773 1.429 . S
C782 N779 1.350 . S
C782 C781 1.434 . S
C783 C784 1.369 . S
C783 C785 1.419 . S
C783 H787 0.930 . S
C784 C783 1.369 . S
C784 C793 1.429 . S
C785 C783 1.419 . S
C785 C786 1.363 . S
C785 H788 0.929 . S
C786 C785 1.363 . S
C786 C792 1.428 . S
H787 C783 0.930 . S
H788 C785 0.929 . S
S789 N790 1.613 . S
S789 N791 1.610 . S
N790 S789 1.613 . S
N790 C793 1.350 . S
N791 S789 1.610 . S
N791 C792 1.351 . S
C792 C786 1.428 . S
C792 N791 1.351 . S
C792 C793 1.434 . S
C793 C784 1.429 . S
C793 N790 1.350 . S
C793 C792 1.434 . S
C794 C795 1.369 . S
C794 C796 1.419 . S
C794 H798 0.930 . S
C795 C794 1.369 . S
C795 C804 1.429 . S
C796 C794 1.419 . S
C796 C797 1.363 . S
C796 H799 0.929 . S
C797 C796 1.363 . S
C797 C803 1.428 . S
H798 C794 0.930 . S
H799 C796 0.929 . S
S800 N801 1.613 . S
S800 N802 1.610 . S
N801 S800 1.613 . S
N801 C804 1.350 . S
N802 S800 1.610 . S
N802 C803 1.351 . S
C803 C797 1.428 . S
C803 N802 1.351 . S
C803 C804 1.434 . S
C804 C795 1.429 . S
C804 N801 1.350 . S
C804 C803 1.434 . S
C805 C806 1.369 . S
C805 C807 1.419 . S
C805 H809 0.930 . S
C806 C805 1.369 . S
C806 C815 1.429 . S
C807 C805 1.419 . S
C807 C808 1.363 . S
C807 H810 0.929 . S
C808 C807 1.363 . S
C808 C814 1.428 . S
H809 C805 0.930 . S
H810 C807 0.929 . S
S811 N812 1.613 . S
S811 N813 1.610 . S
N812 S811 1.613 . S
N812 C815 1.350 . S
N813 S811 1.610 . S
N813 C814 1.351 . S
C814 C808 1.428 . S
C814 N813 1.351 . S
C814 C815 1.434 . S
C815 C806 1.429 . S
C815 N812 1.350 . S
C815 C814 1.434 . S
C816 C817 1.369 . S
C816 C818 1.419 . S
C816 H820 0.930 . S
C817 C816 1.369 . S
C817 C826 1.429 . S
C818 C816 1.419 . S
C818 C819 1.363 . S
C818 H821 0.929 . S
C819 C818 1.363 . S
C819 C825 1.428 . S
H820 C816 0.930 . S
H821 C818 0.929 . S
S822 N823 1.613 1_565 S
S822 N824 1.610 1_565 S
N823 S822 1.613 1_545 S
N823 C826 1.350 . S
N824 S822 1.610 1_545 S
N824 C825 1.351 . S
C825 C819 1.428 . S
C825 N824 1.351 . S
C825 C826 1.434 . S
C826 C817 1.429 . S
C826 N823 1.350 . S
C826 C825 1.434 . S
C827 C828 1.369 . S
C827 C829 1.419 . S
C827 H831 0.930 . S
C828 C827 1.369 . S
C828 C837 1.436 . S
C829 C827 1.419 . S
C829 C830 1.363 . S
C829 H832 0.929 . S
C830 C829 1.363 . S
C830 C836 1.439 . S
H831 C827 0.930 . S
H832 C829 0.929 . S
S833 N834 1.613 . S
S833 N835 1.610 . S
N834 S833 1.613 . S
N834 C837 1.342 1_455 S
N835 S833 1.610 . S
N835 C836 1.340 1_455 S
C836 C830 1.439 . S
C836 N835 1.340 1_655 S
C836 C837 1.434 . S
C837 C828 1.436 . S
C837 N834 1.342 1_655 S
C837 C836 1.434 . S
C838 C839 1.369 . S
C838 C840 1.419 . S
C838 H842 0.930 . S
C839 C838 1.369 . S
C839 C848 1.429 . S
C840 C838 1.419 . S
C840 C841 1.363 . S
C840 H843 0.929 . S
C841 C840 1.363 . S
C841 C847 1.428 . S
H842 C838 0.930 . S
H843 C840 0.929 . S
S844 N845 1.613 . S
S844 N846 1.610 . S
N845 S844 1.613 . S
N845 C848 1.350 . S
N846 S844 1.610 . S
N846 C847 1.351 . S
C847 C841 1.428 . S
C847 N846 1.351 . S
C847 C848 1.434 . S
C848 C839 1.429 . S
C848 N845 1.350 . S
C848 C847 1.434 . S
C849 C850 1.369 . S
C849 C851 1.419 . S
C849 H853 0.930 . S
C850 C849 1.369 . S
C850 C859 1.429 . S
C851 C849 1.419 . S
C851 C852 1.363 . S
C851 H854 0.929 . S
C852 C851 1.363 . S
C852 C858 1.428 . S
H853 C849 0.930 . S
H854 C851 0.929 . S
S855 N856 1.613 . S
S855 N857 1.610 . S
N856 S855 1.613 . S
N856 C859 1.350 . S
N857 S855 1.610 . S
N857 C858 1.351 . S
C858 C852 1.428 . S
C858 N857 1.351 . S
C858 C859 1.434 . S
C859 C850 1.429 . S
C859 N856 1.350 . S
C859 C858 1.434 . S
C860 C861 1.369 . S
C860 C862 1.419 . S
C860 H864 0.930 . S
C861 C860 1.369 . S
C861 C870 1.429 . S
C862 C860 1.419 . S
C862 C863 1.363 . S
C862 H865 0.929 . S
C863 C862 1.363 . S
C863 C869 1.428 . S
H864 C860 0.930 . S
H865 C862 0.929 . S
S866 N867 1.613 . S
S866 N868 1.610 . S
N867 S866 1.613 . S
N867 C870 1.350 . S
N868 S866 1.610 . S
N868 C869 1.351 . S
C869 C863 1.428 . S
C869 N868 1.351 . S
C869 C870 1.434 . S
C870 C861 1.429 . S
C870 N867 1.350 . S
C870 C869 1.434 . S
C871 C872 1.369 . S
C871 C873 1.419 . S
C871 H875 0.930 . S
C872 C871 1.369 . S
C872 C881 1.429 . S
C873 C871 1.419 . S
C873 C874 1.363 . S
C873 H876 0.929 . S
C874 C873 1.363 . S
C874 C880 1.428 . S
H875 C871 0.930 . S
H876 C873 0.929 . S
S877 N878 1.613 . S
S877 N879 1.610 . S
N878 S877 1.613 . S
N878 C881 1.350 . S
N879 S877 1.610 . S
N879 C880 1.351 . S
C880 C874 1.428 . S
C880 N879 1.351 . S
C880 C881 1.434 . S
C881 C872 1.429 . S
C881 N878 1.350 . S
C881 C880 1.434 . S
C882 C883 1.369 . S
C882 C884 1.419 . S
C882 H886 0.930 1_565 S
C883 C882 1.369 . S
C883 C892 1.429 . S
C884 C882 1.419 . S
C884 C885 1.363 . S
C884 H887 0.929 1_565 S
C885 C884 1.363 . S
C885 C891 1.428 . S
H886 C882 0.930 1_545 S
H887 C884 0.929 1_545 S
S888 N889 1.613 . S
S888 N890 1.610 . S
N889 S888 1.613 . S
N889 C892 1.350 . S
N890 S888 1.610 . S
N890 C891 1.351 . S
C891 C885 1.428 . S
C891 N890 1.351 . S
C891 C892 1.434 . S
C892 C883 1.429 . S
C892 N889 1.350 . S
C892 C891 1.434 . S
C893 C894 1.369 . S
C893 C895 1.419 . S
C893 H897 0.930 1_455 S
C894 C893 1.369 . S
C894 C903 1.429 . S
C895 C893 1.419 . S
C895 C896 1.363 . S
C895 H898 0.929 1_455 S
C896 C895 1.363 . S
C896 C902 1.428 . S
H897 C893 0.930 1_655 S
H898 C895 0.929 1_655 S
S899 N900 1.613 . S
S899 N901 1.610 . S
N900 S899 1.613 . S
N900 C903 1.350 . S
N901 S899 1.610 . S
N901 C902 1.351 . S
C902 C896 1.428 . S
C902 N901 1.351 . S
C902 C903 1.434 . S
C903 C894 1.429 . S
C903 N900 1.350 . S
C903 C902 1.434 . S
C904 C905 1.369 . S
C904 C906 1.419 . S
C904 H908 0.930 . S
C905 C904 1.369 . S
C905 C914 1.429 . S
C906 C904 1.419 . S
C906 C907 1.363 . S
C906 H909 0.929 . S
C907 C906 1.363 . S
C907 C913 1.428 . S
H908 C904 0.930 . S
H909 C906 0.929 . S
S910 N911 1.613 . S
S910 N912 1.610 . S
N911 S910 1.613 . S
N911 C914 1.350 . S
N912 S910 1.610 . S
N912 C913 1.351 . S
C913 C907 1.428 . S
C913 N912 1.351 . S
C913 C914 1.434 . S
C914 C905 1.429 . S
C914 N911 1.350 . S
C914 C913 1.434 . S
C915 C916 1.369 . S
C915 C917 1.419 . S
C915 H919 0.930 . S
C916 C915 1.369 . S
C916 C925 1.429 . S
C917 C915 1.419 . S
C917 C918 1.363 . S
C917 H920 0.929 . S
C918 C917 1.363 . S
C918 C924 1.428 . S
H919 C915 0.930 . S
H920 C917 0.929 . S
S921 N922 1.613 . S
S921 N923 1.610 . S
N922 S921 1.613 . S
N922 C925 1.350 . S
N923 S921 1.610 . S
N923 C924 1.351 . S
C924 C918 1.428 . S
C924 N923 1.351 . S
C924 C925 1.434 . S
C925 C916 1.429 . S
C925 N922 1.350 . S
C925 C924 1.434 . S
C926 C927 1.369 . S
C926 C928 1.419 . S
C926 H930 0.930 . S
C927 C926 1.369 . S
C927 C936 1.429 . S
C928 C926 1.419 . S
C928 C929 1.363 . S
C928 H931 0.929 1_655 S
C929 C928 1.363 . S
C929 C935 1.428 . S
H930 C926 0.930 . S
H931 C928 0.929 1_455 S
S932 N933 1.613 . S
S932 N934 1.610 . S
N933 S932 1.613 . S
N933 C936 1.350 . S
N934 S932 1.610 . S
N934 C935 1.351 . S
C935 C929 1.428 . S
C935 N934 1.351 . S
C935 C936 1.434 . S
C936 C927 1.429 . S
C936 N933 1.350 . S
C936 C935 1.434 . S
C937 C938 1.369 . S
C937 C939 1.419 1_554 S
C937 H941 0.930 . S
C938 C937 1.369 . S
C938 C947 1.429 . S
C939 C937 1.419 1_556 S
C939 C940 1.363 . S
C939 H942 0.929 . S
C940 C939 1.363 . S
C940 C946 1.428 . S
H941 C937 0.930 . S
H942 C939 0.929 . S
S943 N944 1.613 . S
S943 N945 1.610 1_554 S
N944 S943 1.613 . S
N944 C947 1.350 . S
N945 S943 1.610 1_556 S
N945 C946 1.351 . S
C946 C940 1.428 . S
C946 N945 1.351 . S
C946 C947 1.434 1_556 S
C947 C938 1.429 . S
C947 N944 1.350 . S
C947 C946 1.434 1_554 S
C948 C949 1.369 . S
C948 C950 1.419 . S
C948 H952 0.930 . S
C949 C948 1.369 . S
C949 C958 1.429 . S
C950 C948 1.419 . S
C950 C951 1.363 . S
C950 H953 0.929 . S
C951 C950 1.363 . S
C951 C957 1.428 . S
H952 C948 0.930 . S
H953 C950 0.929 . S
S954 N955 1.613 1_655 S
S954 N956 1.610 1_655 S
N955 S954 1.613 1_455 S
N955 C958 1.350 . S
N956 S954 1.610 1_455 S
N956 C957 1.351 . S
C957 C951 1.428 . S
C957 N956 1.351 . S
C957 C958 1.434 . S
C958 C949 1.429 . S
C958 N955 1.350 . S
C958 C957 1.434 . S
C959 C960 1.369 . S
C959 C961 1.419 1_554 S
C959 H963 0.930 . S
C960 C959 1.369 . S
C960 C969 1.429 . S
C961 C959 1.419 1_556 S
C961 C962 1.363 . S
C961 H964 0.929 . S
C962 C961 1.363 . S
C962 C968 1.428 . S
H963 C959 0.930 . S
H964 C961 0.929 . S
S965 N966 1.613 1_556 S
S965 N967 1.610 . S
N966 S965 1.613 1_554 S
N966 C969 1.350 . S
N967 S965 1.610 . S
N967 C968 1.351 . S
C968 C962 1.428 . S
C968 N967 1.351 . S
C968 C969 1.434 1_556 S
C969 C960 1.429 . S
C969 N966 1.350 . S
C969 C968 1.434 1_554 S
C970 C971 1.369 . S
C970 C972 1.419 . S
C970 H974 0.930 . S
C971 C970 1.369 . S
C971 C980 1.429 . S
C972 C970 1.419 . S
C972 C973 1.363 . S
C972 H975 0.929 . S
C973 C972 1.363 . S
C973 C979 1.428 . S
H974 C970 0.930 . S
H975 C972 0.929 . S
S976 N977 1.613 . S
S976 N978 1.610 . S
N977 S976 1.613 . S
N977 C980 1.350 . S
N978 S976 1.610 . S
N978 C979 1.351 . S
C979 C973 1.428 . S
C979 N978 1.351 . S
C979 C980 1.434 . S
C980 C971 1.429 . S
C980 N977 1.350 . S
C980 C979 1.434 . S
C981 C982 1.369 . S
C981 C983 1.419 . S
C981 H985 0.930 . S
C982 C981 1.369 . S
C982 C991 1.429 . S
C983 C981 1.419 . S
C983 C984 1.363 . S
C983 H986 0.929 . S
C984 C983 1.363 . S
C984 C990 1.428 . S
H985 C981 0.930 . S
H986 C983 0.929 . S
S987 N988 1.613 1_545 S
S987 N989 1.610 . S
N988 S987 1.613 1_565 S
N988 C991 1.350 . S
N989 S987 1.610 . S
N989 C990 1.351 1_545 S
C990 C984 1.428 . S
C990 N989 1.351 1_565 S
C990 C991 1.434 . S
C991 C982 1.429 . S
C991 N988 1.350 . S
C991 C990 1.434 . S
C992 C993 1.369 1_545 S
C992 C994 1.419 . S
C992 H996 0.930 . S
C993 C992 1.369 1_565 S
C993 C1002 1.429 . S
C994 C992 1.419 . S
C994 C995 1.363 . S
C994 H997 0.929 . S
C995 C994 1.363 . S
C995 C1001 1.428 1_545 S
H996 C992 0.930 . S
H997 C994 0.929 . S
S998 N999 1.613 . S
S998 N1000 1.610 . S
N999 S998 1.613 . S
N999 C1002 1.350 . S
N1000 S998 1.610 . S
N1000 C1001 1.351 . S
C1001 C995 1.428 1_565 S
C1001 N1000 1.351 . S
C1001 C1002 1.434 . S
C1002 C993 1.429 . S
C1002 N999 1.350 . S
C1002 C1001 1.434 . S
C1003 C1004 1.369 . S
C1003 C1005 1.419 1_545 S
C1003 H1007 0.930 . S
C1004 C1003 1.369 . S
C1004 C1013 1.429 1_455 S
C1005 C1003 1.419 1_565 S
C1005 C1006 1.363 1_455 S
C1005 H1008 0.929 . S
C1006 C1005 1.363 1_655 S
C1006 C1012 1.428 . S
H1007 C1003 0.930 . S
H1008 C1005 0.929 . S
S1009 N1010 1.613 . S
S1009 N1011 1.610 1_545 S
N1010 S1009 1.613 . S
N1010 C1013 1.350 . S
N1011 S1009 1.610 1_565 S
N1011 C1012 1.351 . S
C1012 C1006 1.428 . S
C1012 N1011 1.351 . S
C1012 C1013 1.434 1_565 S
C1013 C1004 1.429 1_655 S
C1013 N1010 1.350 . S
C1013 C1012 1.434 1_545 S
C1014 C1015 1.369 . S
C1014 C1016 1.419 1_455 S
C1014 H1018 0.930 . S
C1015 C1014 1.369 . S
C1015 C1024 1.429 . S
C1016 C1014 1.419 1_655 S
C1016 C1017 1.363 . S
C1016 H1019 0.929 . S
C1017 C1016 1.363 . S
C1017 C1023 1.428 . S
H1018 C1014 0.930 . S
H1019 C1016 0.929 . S
S1020 N1021 1.593 1_655 S
S1020 N1022 1.630 . S
N1021 S1020 1.593 1_455 S
N1021 C1024 1.350 . S
N1022 S1020 1.630 . S
N1022 C1023 1.351 . S
C1023 C1017 1.428 . S
C1023 N1022 1.351 . S
C1023 C1024 1.434 1_655 S
C1024 C1015 1.429 . S
C1024 N1021 1.350 . S
C1024 C1023 1.434 1_455 S
C1025 C1026 1.369 . S
C1025 C1027 1.419 . S
C1025 H1029 0.930 . S
C1026 C1025 1.369 . S
C1026 C1035 1.429 . S
C1027 C1025 1.419 . S
C1027 C1028 1.363 . S
C1027 H1030 0.929 . S
C1028 C1027 1.363 . S
C1028 C1034 1.428 . S
H1029 C1025 0.930 . S
H1030 C1027 0.929 . S
S1031 N1032 1.613 . S
S1031 N1033 1.610 . S
N1032 S1031 1.613 . S
N1032 C1035 1.350 . S
N1033 S1031 1.610 . S
N1033 C1034 1.351 . S
C1034 C1028 1.428 . S
C1034 N1033 1.351 . S
C1034 C1035 1.434 . S
C1035 C1026 1.429 . S
C1035 N1032 1.350 . S
C1035 C1034 1.434 . S
C1036 C1037 1.369 . S
C1036 C1038 1.419 . S
C1036 H1040 0.930 . S
C1037 C1036 1.369 . S
C1037 C1046 1.429 . S
C1038 C1036 1.419 . S
C1038 C1039 1.363 . S
C1038 H1041 0.929 . S
C1039 C1038 1.363 . S
C1039 C1045 1.428 . S
H1040 C1036 0.930 . S
H1041 C1038 0.929 . S
S1042 N1043 1.613 . S
S1042 N1044 1.610 . S
N1043 S1042 1.613 . S
N1043 C1046 1.350 . S
N1044 S1042 1.610 . S
N1044 C1045 1.351 . S
C1045 C1039 1.428 . S
C1045 N1044 1.351 . S
C1045 C1046 1.434 . S
C1046 C1037 1.429 . S
C1046 N1043 1.350 . S
C1046 C1045 1.434 . S
C1047 C1048 1.369 . S
C1047 C1049 1.419 1_545 S
C1047 H1051 0.930 . S
C1048 C1047 1.369 . S
C1048 C1057 1.429 . S
C1049 C1047 1.419 1_565 S
C1049 C1050 1.363 . S
C1049 H1052 0.929 . S
C1050 C1049 1.363 . S
C1050 C1056 1.428 . S
H1051 C1047 0.930 . S
H1052 C1049 0.929 . S
S1053 N1054 1.613 . S
S1053 N1055 1.610 1_545 S
N1054 S1053 1.613 . S
N1054 C1057 1.350 . S
N1055 S1053 1.610 1_565 S
N1055 C1056 1.351 . S
C1056 C1050 1.428 . S
C1056 N1055 1.351 . S
C1056 C1057 1.434 1_565 S
C1057 C1048 1.429 . S
C1057 N1054 1.350 . S
C1057 C1056 1.434 1_545 S
C1058 C1059 1.369 . S
C1058 C1060 1.416 1_445 S
C1058 H1062 0.930 . S
C1059 C1058 1.369 . S
C1059 C1068 1.428 1_545 S
C1060 C1058 1.416 1_665 S
C1060 C1061 1.366 . S
C1060 H1063 0.931 . S
C1061 C1060 1.366 . S
C1061 C1067 1.428 . S
H1062 C1058 0.930 . S
H1063 C1060 0.931 . S
S1064 N1065 1.632 . S
S1064 N1066 1.592 1_455 S
N1065 S1064 1.632 . S
N1065 C1068 1.350 . S
N1066 S1064 1.592 1_655 S
N1066 C1067 1.351 . S
C1067 C1061 1.428 . S
C1067 N1066 1.351 . S
C1067 C1068 1.434 1_655 S
C1068 C1059 1.428 1_565 S
C1068 N1065 1.350 . S
C1068 C1067 1.434 1_455 S
C1069 C1070 1.369 1_455 S
C1069 C1071 1.419 . S
C1069 H1073 0.930 . S
C1070 C1069 1.369 1_655 S
C1070 C1079 1.429 . S
C1071 C1069 1.419 . S
C1071 C1072 1.363 . S
C1071 H1074 0.929 . S
C1072 C1071 1.363 . S
C1072 C1078 1.428 1_455 S
H1073 C1069 0.930 . S
H1074 C1071 0.929 . S
S1075 N1076 1.613 . S
S1075 N1077 1.610 . S
N1076 S1075 1.613 . S
N1076 C1079 1.350 . S
N1077 S1075 1.610 . S
N1077 C1078 1.351 . S
C1078 C1072 1.428 1_655 S
C1078 N1077 1.351 . S
C1078 C1079 1.434 . S
C1079 C1070 1.429 . S
C1079 N1076 1.350 . S
C1079 C1078 1.434 . S
C465 C21 0.766 . S
C467 C224 0.743 . S
C476 C137 0.754 . S
C478 C50 0.743 . S
C487 C79 0.750 . S
C489 C166 0.761 . S
C498 C108 0.739 . S
C500 C195 0.761 . S
C509 C456 0.759 . S
C511 C253 0.741 . S
C520 C369 0.764 . S
C522 C282 0.742 . S
C531 C311 0.745 . S
C533 C398 0.748 . S
C542 C340 0.753 . S
C544 C427 0.743 . S
C553 C97 2.520 . S
C555 C5 2.518 . S
C564 C34 2.518 . S
C566 C10 2.521 . S
C575 C63 2.514 . S
C577 C39 2.521 . S
C586 C92 2.517 . S
C588 C68 2.519 . S
C597 C121 2.516 . S
C599 C155 2.523 . S
C608 C150 2.518 . S
C610 C184 2.521 . S
C619 C213 2.518 . S
C621 C179 2.517 . S
C630 C208 2.518 . S
C632 C126 2.521 . S
C641 C329 2.524 . S
C643 C237 2.515 . S
C652 C266 2.519 . S
C654 C242 2.520 . S
C663 C271 2.525 . S
C665 C295 2.514 . S
C674 C324 2.515 . S
C676 C300 2.520 . S
C685 C353 2.515 . S
C687 C387 2.520 . S
C696 C382 2.515 . S
C698 C416 2.523 . S
C707 C411 2.519 . S
C709 C445 2.519 . S
C718 C440 2.518 . S
C720 C358 2.519 . S
C729 C124 0.721 . S
C731 C8 0.695 . S
C740 C153 0.693 . S
C742 C37 0.716 . S
C751 C66 0.724 . S
C753 C182 0.695 . S
C762 C211 0.711 . S
C764 C95 0.707 . S
C773 C356 0.690 . S
C775 C240 0.720 . S
C784 C269 0.702 . S
C786 C385 0.713 . S
C795 C414 0.724 . S
C797 C298 0.694 . S
C806 C443 0.723 . S
C808 C327 0.696 . S
C817 C177 2.099 . S
C819 C3 2.104 . S
C828 C206 2.102 . S
C830 C32 2.103 . S
C839 C61 2.101 . S
C841 C119 2.099 . S
C850 C90 2.098 . S
C852 C148 2.102 . S
C861 C235 2.098 . S
C863 C409 2.103 . S
C872 C264 2.099 . S
C874 C438 2.104 . S
C883 C351 2.101 . S
C885 C293 2.099 . S
C894 C380 2.102 . S
C896 C322 2.099 . S
C905 C160 2.247 . S
C907 C15 2.245 . S
C916 C44 2.244 . S
C918 C189 2.244 . S
C927 C73 2.246 . S
C929 C218 2.244 . S
C938 C131 2.244 . S
C940 C102 2.246 . S
C949 C247 2.246 . S
C951 C392 2.246 . S
C960 C421 2.247 . S
C962 C276 2.245 . S
C971 C305 2.244 . S
C973 C450 2.247 . S
C982 C334 2.244 . S
C984 C363 2.246 . S
C993 C13 2.012 1_565 S
C995 C303 2.004 1_545 S
C1004 C42 2.002 1_455 S
C1006 C332 2.011 1_655 S
C1015 C245 2.008 . S
C1017 C71 2.005 . S
C1026 C274 2.004 . S
C1028 C100 2.013 . S
C1037 C129 2.002 . S
C1039 C419 2.011 . S
C1048 C158 2.008 . S
C1050 C448 2.014 . S
C1059 C361 2.010 1_545 S
C1061 C187 2.013 1_565 S
C1070 C390 2.015 1_655 S
C1072 C216 2.006 1_455 S
