# Generated by pormake.
# Topology yfr, (5)-cn, num edge types: 1
# Building blocks:
#     Node 0, Type 0, BuildingBlock: XOMCOT_clean_sbu_1, # of connection points: 5
#     Node 1, Type 0, BuildingBlock: XOMCOT_clean_sbu_1, # of connection points: 5
#     Node 2, Type 0, BuildingBlock: XOMCOT_clean_sbu_1, # of connection points: 5
#     Node 3, Type 0, BuildingBlock: XOMCOT_clean_sbu_1, # of connection points: 5
#     Node 4, Type 0, BuildingBlock: XOMCOT_clean_sbu_1, # of connection points: 5
#     Node 5, Type 0, BuildingBlock: XOMCOT_clean_sbu_1, # of connection points: 5
#     Node 6, Type 0, BuildingBlock: XOMCOT_clean_sbu_1, # of connection points: 5
#     Node 7, Type 0, BuildingBlock: XOMCOT_clean_sbu_1, # of connection points: 5
#     Node 8, Type 0, BuildingBlock: XOMCOT_clean_sbu_1, # of connection points: 5
#     Node 9, Type 0, BuildingBlock: XOMCOT_clean_sbu_1, # of connection points: 5
#     Node 10, Type 0, BuildingBlock: XOMCOT_clean_sbu_1, # of connection points: 5
#     Node 11, Type 0, BuildingBlock: XOMCOT_clean_sbu_1, # of connection points: 5
#     Node 12, Type 0, BuildingBlock: XOMCOT_clean_sbu_1, # of connection points: 5
#     Node 13, Type 0, BuildingBlock: XOMCOT_clean_sbu_1, # of connection points: 5
#     Node 14, Type 0, BuildingBlock: XOMCOT_clean_sbu_1, # of connection points: 5
#     Node 15, Type 0, BuildingBlock: XOMCOT_clean_sbu_1, # of connection points: 5
#     Node 16, Type 0, BuildingBlock: XOMCOT_clean_sbu_1, # of connection points: 5
#     Node 17, Type 0, BuildingBlock: XOMCOT_clean_sbu_1, # of connection points: 5
#     Node 18, Type 0, BuildingBlock: XOMCOT_clean_sbu_1, # of connection points: 5
#     Node 19, Type 0, BuildingBlock: XOMCOT_clean_sbu_1, # of connection points: 5
#     Node 20, Type 0, BuildingBlock: XOMCOT_clean_sbu_1, # of connection points: 5
#     Node 21, Type 0, BuildingBlock: XOMCOT_clean_sbu_1, # of connection points: 5
#     Node 22, Type 0, BuildingBlock: XOMCOT_clean_sbu_1, # of connection points: 5
#     Node 23, Type 0, BuildingBlock: XOMCOT_clean_sbu_1, # of connection points: 5
#     Node 24, Type 0, BuildingBlock: XOMCOT_clean_sbu_1, # of connection points: 5
#     Node 25, Type 0, BuildingBlock: XOMCOT_clean_sbu_1, # of connection points: 5
#     Node 26, Type 0, BuildingBlock: XOMCOT_clean_sbu_1, # of connection points: 5
#     Node 27, Type 0, BuildingBlock: XOMCOT_clean_sbu_1, # of connection points: 5
#     Node 28, Type 0, BuildingBlock: XOMCOT_clean_sbu_1, # of connection points: 5
#     Node 29, Type 0, BuildingBlock: XOMCOT_clean_sbu_1, # of connection points: 5
#     Node 30, Type 0, BuildingBlock: XOMCOT_clean_sbu_1, # of connection points: 5
#     Node 31, Type 0, BuildingBlock: XOMCOT_clean_sbu_1, # of connection points: 5
#     Edge 32, Type (0, 0), BuildingBlock: XUDNAN_clean_linker_2, # of connection points: 2
#     Edge 33, Type (0, 0), BuildingBlock: XUDNAN_clean_linker_2, # of connection points: 2
#     Edge 34, Type (0, 0), BuildingBlock: XUDNAN_clean_linker_2, # of connection points: 2
#     Edge 35, Type (0, 0), BuildingBlock: XUDNAN_clean_linker_2, # of connection points: 2
#     Edge 36, Type (0, 0), BuildingBlock: XUDNAN_clean_linker_2, # of connection points: 2
#     Edge 37, Type (0, 0), BuildingBlock: XUDNAN_clean_linker_2, # of connection points: 2
#     Edge 38, Type (0, 0), BuildingBlock: XUDNAN_clean_linker_2, # of connection points: 2
#     Edge 39, Type (0, 0), BuildingBlock: XUDNAN_clean_linker_2, # of connection points: 2
#     Edge 40, Type (0, 0), BuildingBlock: XUDNAN_clean_linker_2, # of connection points: 2
#     Edge 41, Type (0, 0), BuildingBlock: XUDNAN_clean_linker_2, # of connection points: 2
#     Edge 42, Type (0, 0), BuildingBlock: XUDNAN_clean_linker_2, # of connection points: 2
#     Edge 43, Type (0, 0), BuildingBlock: XUDNAN_clean_linker_2, # of connection points: 2
#     Edge 44, Type (0, 0), BuildingBlock: XUDNAN_clean_linker_2, # of connection points: 2
#     Edge 45, Type (0, 0), BuildingBlock: XUDNAN_clean_linker_2, # of connection points: 2
#     Edge 46, Type (0, 0), BuildingBlock: XUDNAN_clean_linker_2, # of connection points: 2
#     Edge 47, Type (0, 0), BuildingBlock: XUDNAN_clean_linker_2, # of connection points: 2
#     Edge 48, Type (0, 0), BuildingBlock: XUDNAN_clean_linker_2, # of connection points: 2
#     Edge 49, Type (0, 0), BuildingBlock: XUDNAN_clean_linker_2, # of connection points: 2
#     Edge 50, Type (0, 0), BuildingBlock: XUDNAN_clean_linker_2, # of connection points: 2
#     Edge 51, Type (0, 0), BuildingBlock: XUDNAN_clean_linker_2, # of connection points: 2
#     Edge 52, Type (0, 0), BuildingBlock: XUDNAN_clean_linker_2, # of connection points: 2
#     Edge 53, Type (0, 0), BuildingBlock: XUDNAN_clean_linker_2, # of connection points: 2
#     Edge 54, Type (0, 0), BuildingBlock: XUDNAN_clean_linker_2, # of connection points: 2
#     Edge 55, Type (0, 0), BuildingBlock: XUDNAN_clean_linker_2, # of connection points: 2
#     Edge 56, Type (0, 0), BuildingBlock: XUDNAN_clean_linker_2, # of connection points: 2
#     Edge 57, Type (0, 0), BuildingBlock: XUDNAN_clean_linker_2, # of connection points: 2
#     Edge 58, Type (0, 0), BuildingBlock: XUDNAN_clean_linker_2, # of connection points: 2
#     Edge 59, Type (0, 0), BuildingBlock: XUDNAN_clean_linker_2, # of connection points: 2
#     Edge 60, Type (0, 0), BuildingBlock: XUDNAN_clean_linker_2, # of connection points: 2
#     Edge 61, Type (0, 0), BuildingBlock: XUDNAN_clean_linker_2, # of connection points: 2
#     Edge 62, Type (0, 0), BuildingBlock: XUDNAN_clean_linker_2, # of connection points: 2
#     Edge 63, Type (0, 0), BuildingBlock: XUDNAN_clean_linker_2, # of connection points: 2
#     Edge 64, Type (0, 0), BuildingBlock: XUDNAN_clean_linker_2, # of connection points: 2
#     Edge 65, Type (0, 0), BuildingBlock: XUDNAN_clean_linker_2, # of connection points: 2
#     Edge 66, Type (0, 0), BuildingBlock: XUDNAN_clean_linker_2, # of connection points: 2
#     Edge 67, Type (0, 0), BuildingBlock: XUDNAN_clean_linker_2, # of connection points: 2
#     Edge 68, Type (0, 0), BuildingBlock: XUDNAN_clean_linker_2, # of connection points: 2
#     Edge 69, Type (0, 0), BuildingBlock: XUDNAN_clean_linker_2, # of connection points: 2
#     Edge 70, Type (0, 0), BuildingBlock: XUDNAN_clean_linker_2, # of connection points: 2
#     Edge 71, Type (0, 0), BuildingBlock: XUDNAN_clean_linker_2, # of connection points: 2
#     Edge 72, Type (0, 0), BuildingBlock: XUDNAN_clean_linker_2, # of connection points: 2
#     Edge 73, Type (0, 0), BuildingBlock: XUDNAN_clean_linker_2, # of connection points: 2
#     Edge 74, Type (0, 0), BuildingBlock: XUDNAN_clean_linker_2, # of connection points: 2
#     Edge 75, Type (0, 0), BuildingBlock: XUDNAN_clean_linker_2, # of connection points: 2
#     Edge 76, Type (0, 0), BuildingBlock: XUDNAN_clean_linker_2, # of connection points: 2
#     Edge 77, Type (0, 0), BuildingBlock: XUDNAN_clean_linker_2, # of connection points: 2
#     Edge 78, Type (0, 0), BuildingBlock: XUDNAN_clean_linker_2, # of connection points: 2
#     Edge 79, Type (0, 0), BuildingBlock: XUDNAN_clean_linker_2, # of connection points: 2
#     Edge 80, Type (0, 0), BuildingBlock: XUDNAN_clean_linker_2, # of connection points: 2
#     Edge 81, Type (0, 0), BuildingBlock: XUDNAN_clean_linker_2, # of connection points: 2
#     Edge 82, Type (0, 0), BuildingBlock: XUDNAN_clean_linker_2, # of connection points: 2
#     Edge 83, Type (0, 0), BuildingBlock: XUDNAN_clean_linker_2, # of connection points: 2
#     Edge 84, Type (0, 0), BuildingBlock: XUDNAN_clean_linker_2, # of connection points: 2
#     Edge 85, Type (0, 0), BuildingBlock: XUDNAN_clean_linker_2, # of connection points: 2
#     Edge 86, Type (0, 0), BuildingBlock: XUDNAN_clean_linker_2, # of connection points: 2
#     Edge 87, Type (0, 0), BuildingBlock: XUDNAN_clean_linker_2, # of connection points: 2
#     Edge 88, Type (0, 0), BuildingBlock: XUDNAN_clean_linker_2, # of connection points: 2
#     Edge 89, Type (0, 0), BuildingBlock: XUDNAN_clean_linker_2, # of connection points: 2
#     Edge 90, Type (0, 0), BuildingBlock: XUDNAN_clean_linker_2, # of connection points: 2
#     Edge 91, Type (0, 0), BuildingBlock: XUDNAN_clean_linker_2, # of connection points: 2
#     Edge 92, Type (0, 0), BuildingBlock: XUDNAN_clean_linker_2, # of connection points: 2
#     Edge 93, Type (0, 0), BuildingBlock: XUDNAN_clean_linker_2, # of connection points: 2
#     Edge 94, Type (0, 0), BuildingBlock: XUDNAN_clean_linker_2, # of connection points: 2
#     Edge 95, Type (0, 0), BuildingBlock: XUDNAN_clean_linker_2, # of connection points: 2
#     Edge 96, Type (0, 0), BuildingBlock: XUDNAN_clean_linker_2, # of connection points: 2
#     Edge 97, Type (0, 0), BuildingBlock: XUDNAN_clean_linker_2, # of connection points: 2
#     Edge 98, Type (0, 0), BuildingBlock: XUDNAN_clean_linker_2, # of connection points: 2
#     Edge 99, Type (0, 0), BuildingBlock: XUDNAN_clean_linker_2, # of connection points: 2
#     Edge 100, Type (0, 0), BuildingBlock: XUDNAN_clean_linker_2, # of connection points: 2
#     Edge 101, Type (0, 0), BuildingBlock: XUDNAN_clean_linker_2, # of connection points: 2
#     Edge 102, Type (0, 0), BuildingBlock: XUDNAN_clean_linker_2, # of connection points: 2
#     Edge 103, Type (0, 0), BuildingBlock: XUDNAN_clean_linker_2, # of connection points: 2
#     Edge 104, Type (0, 0), BuildingBlock: XUDNAN_clean_linker_2, # of connection points: 2
#     Edge 105, Type (0, 0), BuildingBlock: XUDNAN_clean_linker_2, # of connection points: 2
#     Edge 106, Type (0, 0), BuildingBlock: XUDNAN_clean_linker_2, # of connection points: 2
#     Edge 107, Type (0, 0), BuildingBlock: XUDNAN_clean_linker_2, # of connection points: 2
#     Edge 108, Type (0, 0), BuildingBlock: XUDNAN_clean_linker_2, # of connection points: 2
#     Edge 109, Type (0, 0), BuildingBlock: XUDNAN_clean_linker_2, # of connection points: 2
#     Edge 110, Type (0, 0), BuildingBlock: XUDNAN_clean_linker_2, # of connection points: 2
#     Edge 111, Type (0, 0), BuildingBlock: XUDNAN_clean_linker_2, # of connection points: 2
# Relax obj value: 0.555
# Max RMSD: 0.321
# Mean RMSD: 0.321
data_MOF--net-yfr--node1-XOMCOT_clean_sbu_1--edge1-XUDNAN_clean_linker_2
_symmetry_space_group_name_H-M    P1
_symmetry_Int_Tables_number       1
_symmetry_cell_setting            triclinic
loop_
_symmetry_equiv_pos_as_xyz
'x, y, z'
_cell_length_a     53.119968
_cell_length_b     53.157418
_cell_length_c     59.782795
_cell_angle_alpha  90.026765
_cell_angle_beta   90.002234
_cell_angle_gamma 89.979152
loop_
_atom_site_label
_atom_site_type_symbol
_atom_site_fract_x
_atom_site_fract_y
_atom_site_fract_z
_atom_type_partial_charge
C0 C 0.09088 0.1041 0.30641 0.0
C1 C 0.0751 0.09476 0.32261 0.0
N2 N 0.05139 0.10178 0.31756 0.0
N3 N 0.07721 0.11722 0.29145 0.0
C4 C 0.05321 0.11536 0.29854 0.0
H5 H 0.11098 0.10109 0.30527 0.0
Co6 Co 0.09009 0.1302 0.26536 0.0
C7 C 0.0649 0.17831 0.25657 0.0
O8 O 0.08737 0.18704 0.25174 0.0
N9 N 0.1035 0.14198 0.23794 0.0
C10 C 0.12709 0.1514 0.20827 0.0
C11 C 0.12714 0.1473 0.231 0.0
C12 C 0.08959 0.143 0.21901 0.0
N13 N 0.10343 0.14844 0.20072 0.0
O14 O 0.07097 0.10548 0.24957 0.0
H15 H 0.14384 0.14712 0.24117 0.0
H16 H 0.0696 0.13917 0.21865 0.0
O17 O 0.0622 0.15526 0.26267 0.0
C18 C 0.0842 0.08665 0.24374 0.0
O19 O 0.10876 0.08792 0.24618 0.0
N20 N 0.10948 0.1527 0.28272 0.0
C21 C 0.13742 0.18022 0.31368 0.0
C22 C 0.11127 0.18283 0.31253 0.0
C23 C 0.09765 0.16847 0.29744 0.0
C24 C 0.13477 0.14866 0.28468 0.0
C25 C 0.14934 0.1629 0.29957 0.0
H26 H 0.0774 0.16924 0.2985 0.0
H27 H 0.14355 0.13346 0.27557 0.0
H28 H 0.03742 0.12368 0.28983 0.0
H29 H 0.0806 0.08325 0.33671 0.0
H30 H 0.14349 0.15485 0.19797 0.0
H31 H 0.10128 0.19555 0.32359 0.0
H32 H 0.16942 0.15965 0.30075 0.0
C33 C 0.16187 0.82112 0.54448 0.0
C34 C 0.17441 0.80612 0.55938 0.0
N35 N 0.16598 0.78239 0.55691 0.0
N36 N 0.14567 0.80701 0.53255 0.0
C37 C 0.14862 0.78337 0.54036 0.0
H38 H 0.16423 0.84121 0.54249 0.0
Co39 Co 0.12545 0.82187 0.51112 0.0
C40 C 0.07754 0.79313 0.51148 0.0
O41 O 0.06613 0.81439 0.51601 0.0
N42 N 0.10562 0.83823 0.48854 0.0
C43 C 0.07799 0.86208 0.46993 0.0
C44 C 0.08563 0.85397 0.49057 0.0
C45 C 0.1094 0.83713 0.4661 0.0
N46 N 0.09304 0.85157 0.45452 0.0
O47 O 0.14668 0.80669 0.48903 0.0
H48 H 0.07638 0.85921 0.50592 0.0
H49 H 0.12415 0.82634 0.45821 0.0
O50 O 0.1017 0.79254 0.5097 0.0
C51 C 0.16578 0.82075 0.48595 0.0
O52 O 0.16472 0.84394 0.49351 0.0
N53 N 0.10768 0.83741 0.53451 0.0
C54 C 0.08566 0.86114 0.57114 0.0
C55 C 0.0875 0.83483 0.57021 0.0
C56 C 0.09861 0.82338 0.55185 0.0
C57 C 0.10926 0.86292 0.53655 0.0
C58 C 0.09747 0.8753 0.55432 0.0
H59 H 0.10002 0.80311 0.55163 0.0
H60 H 0.11889 0.87375 0.52385 0.0
H61 H 0.13748 0.76751 0.5348 0.0
H62 H 0.18831 0.8123 0.57143 0.0
H63 H 0.06228 0.87448 0.46656 0.0
H64 H 0.08035 0.82303 0.58353 0.0
H65 H 0.0972 0.89566 0.55453 0.0
C66 C 0.41622 0.9014 0.80567 0.0
C67 C 0.43142 0.91267 0.82127 0.0
N68 N 0.45549 0.90668 0.81655 0.0
N69 N 0.43057 0.88816 0.79129 0.0
C70 C 0.45445 0.89175 0.79825 0.0
H71 H 0.39595 0.90301 0.80461 0.0
Co72 Co 0.41764 0.87314 0.7658 0.0
C73 C 0.44658 0.82484 0.7628 0.0
O74 O 0.42527 0.81254 0.76424 0.0
N75 N 0.40375 0.85876 0.73909 0.0
C76 C 0.38349 0.83496 0.71403 0.0
C77 C 0.3898 0.83764 0.73616 0.0
C78 C 0.40533 0.86853 0.71818 0.0
N79 N 0.39319 0.8545 0.70277 0.0
O80 O 0.43541 0.89828 0.74886 0.0
H81 H 0.3841 0.82474 0.74912 0.0
H82 H 0.41545 0.8855 0.71402 0.0
O83 O 0.44672 0.84907 0.76353 0.0
C84 C 0.42098 0.91747 0.74972 0.0
O85 O 0.39767 0.91399 0.75646 0.0
N86 N 0.39887 0.85163 0.78429 0.0
C87 C 0.36893 0.82703 0.81557 0.0
C88 C 0.39521 0.82644 0.81735 0.0
C89 C 0.40983 0.83922 0.80178 0.0
C90 C 0.37328 0.85382 0.78322 0.0
C91 C 0.35788 0.84095 0.79829 0.0
H92 H 0.43002 0.83952 0.80399 0.0
H93 H 0.3648 0.86563 0.77056 0.0
H94 H 0.47073 0.88415 0.78971 0.0
H95 H 0.42516 0.92408 0.8352 0.0
H96 H 0.37225 0.82 0.70686 0.0
H97 H 0.40442 0.81612 0.83067 0.0
H98 H 0.3376 0.84231 0.79679 0.0
C99 C 0.34332 0.18573 0.04432 0.0
C100 C 0.33817 0.20414 0.05968 0.0
N101 N 0.35353 0.22378 0.05563 0.0
N102 N 0.36187 0.19363 0.0307 0.0
C103 C 0.36771 0.21696 0.03784 0.0
H104 H 0.33399 0.16772 0.04293 0.0
Co105 Co 0.37208 0.17375 0.00737 0.0
C106 C 0.42143 0.19116 0.99112 0.0
O107 O 0.42666 0.16713 0.98906 0.0
N108 N 0.38075 0.15235 0.98299 0.0
C109 C 0.38944 0.11951 0.96114 0.0
C110 C 0.38721 0.12771 0.98279 0.0
C111 C 0.37931 0.15855 0.96102 0.0
N112 N 0.38428 0.13886 0.94742 0.0
O113 O 0.34775 0.19075 0.98913 0.0
H114 H 0.39 0.11588 -0.00285 0.0
H115 H 0.37387 0.17699 0.9551 0.0
O116 O 0.39968 0.19781 -0.00139 0.0
C117 C 0.32787 0.17742 0.9877 0.0
O118 O 0.32873 0.15406 0.99486 0.0
N119 N 0.39342 0.15674 0.02749 0.0
C120 C 0.4174 0.13267 0.06305 0.0
C121 C 0.4257 0.15619 0.05556 0.0
C122 C 0.4131 0.16818 0.03817 0.0
C123 C 0.38411 0.13463 0.03559 0.0
C124 C 0.39628 0.12182 0.0529 0.0
H125 H 0.41852 0.18722 0.03431 0.0
H126 H 0.36681 0.12708 0.02879 0.0
H127 H 0.38219 0.22854 0.03036 0.0
H128 H 0.32402 0.20323 0.07268 0.0
H129 H 0.39433 0.10063 0.95595 0.0
H130 H 0.44155 0.16554 0.06338 0.0
H131 H 0.38875 0.1041 0.05881 0.0
C132 C 0.10137 0.88806 0.18843 0.0
C133 C 0.09328 0.89991 0.16938 0.0
N134 N 0.06857 0.89499 0.16663 0.0
N135 N 0.08198 0.87557 0.19777 0.0
C136 C 0.06222 0.88014 0.18417 0.0
H137 H 0.11998 0.88956 0.1956 0.0
Co138 Co 0.08325 0.86088 0.22599 0.0
C139 C 0.03507 0.83451 0.23228 0.0
O140 O 0.03205 0.84596 0.25158 0.0
N141 N 0.08532 0.84649 0.25453 0.0
C142 C 0.08594 0.81945 0.28291 0.0
C143 C 0.08461 0.82185 0.26004 0.0
C144 C 0.0874 0.8586 0.27428 0.0
N145 N 0.08761 0.84265 0.29184 0.0
O146 O 0.06321 0.8883 0.23694 0.0
H147 H 0.0825 0.80655 0.24828 0.0
H148 H 0.0887 0.87879 0.27584 0.0
O149 O 0.05341 0.84072 0.21965 0.0
C150 C 0.07817 0.90687 0.23918 0.0
O151 O 0.1025 0.90249 0.23805 0.0
N152 N 0.10434 0.83582 0.21461 0.0
C153 C 0.13863 0.80784 0.19002 0.0
C154 C 0.11346 0.80027 0.19147 0.0
C155 C 0.09646 0.8147 0.20362 0.0
C156 C 0.1292 0.84215 0.21502 0.0
C157 C 0.14673 0.82867 0.20235 0.0
H158 H 0.07696 0.80924 0.20314 0.0
H159 H 0.1351 0.85889 0.22387 0.0
H160 H 0.04348 0.8732 0.1875 0.0
H161 H 0.10467 0.91199 0.15893 0.0
H162 H 0.0849 0.80203 0.29223 0.0
H163 H 0.10658 0.78435 0.18193 0.0
H164 H 0.16607 0.83503 0.20144 0.0
C165 C 0.37009 0.84142 0.43479 0.0
C166 C 0.36007 0.83002 0.41623 0.0
N167 N 0.36247 0.80495 0.4187 0.0
N168 N 0.37902 0.82366 0.44877 0.0
C169 C 0.37417 0.80157 0.43855 0.0
H170 H 0.37012 0.86138 0.43828 0.0
Co171 Co 0.39081 0.83095 0.47708 0.0
C172 C 0.41932 0.78694 0.4926 0.0
O173 O 0.40554 0.78672 0.51086 0.0
N174 N 0.40231 0.83937 0.50571 0.0
C175 C 0.42768 0.84887 0.5341 0.0
C176 C 0.42665 0.84185 0.51201 0.0
C177 C 0.38889 0.84513 0.52423 0.0
N178 N 0.40396 0.85096 0.54159 0.0
O179 O 0.36409 0.81078 0.4889 0.0
H180 H 0.44268 0.83858 0.50124 0.0
H181 H 0.36856 0.84503 0.52509 0.0
O182 O 0.41377 0.80212 0.47682 0.0
C183 C 0.34315 0.82242 0.48896 0.0
O184 O 0.34303 0.84664 0.48463 0.0
N185 N 0.4156 0.85119 0.46429 0.0
C186 C 0.44507 0.88297 0.43855 0.0
C187 C 0.44731 0.85687 0.43645 0.0
C188 C 0.43229 0.84128 0.44932 0.0
C189 C 0.41386 0.87658 0.4673 0.0
C190 C 0.42874 0.89299 0.45463 0.0
H191 H 0.43299 0.82135 0.446 0.0
H192 H 0.40004 0.88411 0.47879 0.0
H193 H 0.37841 0.78343 0.44586 0.0
H194 H 0.35083 0.83941 0.40243 0.0
H195 H 0.44446 0.85195 0.54401 0.0
H196 H 0.4599 0.84858 0.42422 0.0
H197 H 0.42662 0.91313 0.45655 0.0
C198 C 0.41116 0.11106 0.6831 0.0
C199 C 0.42589 0.09943 0.66729 0.0
N200 N 0.45006 0.10567 0.67126 0.0
N201 N 0.42597 0.1249 0.69667 0.0
C202 C 0.4496 0.1211 0.68919 0.0
H203 H 0.39099 0.10925 0.68491 0.0
Co204 Co 0.41489 0.14106 0.72228 0.0
C205 C 0.44376 0.1901 0.71836 0.0
O206 O 0.42302 0.20252 0.71404 0.0
N207 N 0.40327 0.15634 0.74927 0.0
C208 C 0.38815 0.18193 0.77579 0.0
C209 C 0.3945 0.17981 0.75353 0.0
C210 C 0.40163 0.14466 0.76934 0.0
N211 N 0.39257 0.15967 0.78562 0.0
O212 O 0.43542 0.11771 0.73878 0.0
H213 H 0.3916 0.19435 0.74128 0.0
H214 H 0.40703 0.12541 0.77228 0.0
O215 O 0.44322 0.1661 0.72144 0.0
C216 C 0.42318 0.09713 0.74032 0.0
O217 O 0.39933 0.097 0.73449 0.0
N218 N 0.39351 0.16129 0.70451 0.0
C219 C 0.36035 0.18473 0.67493 0.0
C220 C 0.38597 0.1826 0.6698 0.0
C221 C 0.40208 0.17051 0.68456 0.0
C222 C 0.36838 0.16216 0.70935 0.0
C223 C 0.3515 0.17441 0.69502 0.0
H224 H 0.4217 0.16875 0.68001 0.0
H225 H 0.3613 0.15306 0.72424 0.0
H226 H 0.4661 0.12939 0.69682 0.0
H227 H 0.4194 0.08702 0.65414 0.0
H228 H 0.38009 0.19826 0.78391 0.0
H229 H 0.39367 0.19046 0.65455 0.0
H230 H 0.33172 0.17533 0.69933 0.0
C231 C 0.1354 0.16358 0.94171 0.0
C232 C 0.1491 0.17416 0.92464 0.0
N233 N 0.14547 0.19932 0.92497 0.0
N234 N 0.12297 0.18187 0.95268 0.0
C235 C 0.12954 0.20336 0.9423 0.0
H236 H 0.13489 0.14387 0.94616 0.0
Co237 Co 0.10463 0.17756 0.97873 0.0
C238 C 0.07513 0.22402 0.98442 0.0
O239 O 0.08636 0.22739 0.00378 0.0
N240 N 0.08613 0.17273 0.0051 0.0
C241 C 0.05351 0.16676 0.02778 0.0
C242 C 0.06074 0.17179 0.00624 0.0
C243 C 0.09392 0.16831 0.02626 0.0
N244 N 0.0744 0.16453 0.04035 0.0
O245 O 0.12911 0.19821 0.99362 0.0
H246 H 0.04818 0.17444 0.99219 0.0
H247 H 0.11346 0.16726 0.03123 0.0
O248 O 0.08258 0.20622 0.97167 0.0
C249 C 0.14733 0.18308 -0.00283 0.0
O250 O 0.14244 0.15884 -0.00367 0.0
N251 N 0.0832 0.15579 0.96362 0.0
C252 C 0.05751 0.11997 0.93896 0.0
C253 C 0.05604 0.14542 0.93317 0.0
C254 C 0.06937 0.16307 0.94553 0.0
C255 C 0.08477 0.13106 0.96957 0.0
C256 C 0.072 0.11265 0.95733 0.0
H257 H 0.06946 0.18234 0.93988 0.0
H258 H 0.09661 0.12559 0.98347 0.0
H259 H 0.12303 0.22157 0.94785 0.0
H260 H 0.16074 0.16386 0.91298 0.0
H261 H 0.03436 0.16499 0.03375 0.0
H262 H 0.04537 0.15145 0.91867 0.0
H263 H 0.0737 0.09301 0.96192 0.0
C264 C 0.92994 0.9148 0.70437 0.0
C265 C 0.94813 0.92316 0.68978 0.0
N266 N 0.96542 0.90485 0.68773 0.0
N267 N 0.93599 0.89149 0.71148 0.0
C268 C 0.95775 0.88592 0.70107 0.0
H269 H 0.91314 0.92488 0.70927 0.0
Co270 Co 0.917 0.87375 0.7318 0.0
C271 C 0.93758 0.82234 0.73516 0.0
O272 O 0.91391 0.81525 0.73566 0.0
N273 N 0.89709 0.85678 0.75338 0.0
C274 C 0.86699 0.83847 0.77362 0.0
C275 C 0.87302 0.84841 0.75307 0.0
C276 C 0.90507 0.85174 0.7744 0.0
N277 N 0.88717 0.84075 0.78703 0.0
O278 O 0.93283 0.89347 0.75476 0.0
H279 H 0.8602 0.84956 0.73916 0.0
H280 H 0.92375 0.85625 0.7804 0.0
O281 O 0.94287 0.84598 0.73404 0.0
C282 C 0.91802 0.91157 0.75961 0.0
O283 O 0.89384 0.90815 0.75604 0.0
N284 N 0.90084 0.85786 0.70757 0.0
C285 C 0.87802 0.84381 0.6676 0.0
C286 C 0.90235 0.83572 0.67265 0.0
C287 C 0.91363 0.84338 0.69244 0.0
C288 C 0.87763 0.86714 0.70216 0.0
C289 C 0.86546 0.85975 0.68245 0.0
H290 H 0.93315 0.8386 0.69477 0.0
H291 H 0.86876 0.88085 0.71298 0.0
H292 H 0.96764 0.86824 0.70285 0.0
H293 H 0.94809 0.94073 0.68063 0.0
H294 H 0.84882 0.83114 0.77858 0.0
H295 H 0.91278 0.82395 0.66109 0.0
H296 H 0.84684 0.86683 0.67862 0.0
C297 C 0.84631 0.16833 0.44818 0.0
C298 C 0.83356 0.17946 0.43082 0.0
N299 N 0.84374 0.20232 0.42712 0.0
N300 N 0.86433 0.18409 0.45555 0.0
C301 C 0.86231 0.20466 0.44249 0.0
H302 H 0.84282 0.14979 0.45495 0.0
Co303 Co 0.88579 0.17636 0.479 0.0
C304 C 0.91601 0.22126 0.48823 0.0
O305 O 0.90761 0.22079 0.5089 0.0
N306 N 0.9074 0.16784 0.5029 0.0
C307 C 0.94211 0.15827 0.52199 0.0
C308 C 0.93257 0.16433 0.50135 0.0
C309 C 0.90222 0.16421 0.52483 0.0
N310 N 0.92299 0.15828 0.5367 0.0
O311 O 0.86323 0.19423 0.49829 0.0
H312 H 0.94347 0.16639 0.48618 0.0
H313 H 0.88369 0.16585 0.53212 0.0
O314 O 0.90668 0.20615 0.47383 0.0
C315 C 0.84586 0.1786 0.50306 0.0
O316 O 0.85113 0.15452 0.50106 0.0
N317 N 0.90541 0.1577 0.45922 0.0
C318 C 0.92735 0.12728 0.42702 0.0
C319 C 0.92704 0.15338 0.42435 0.0
C320 C 0.91592 0.16834 0.44065 0.0
C321 C 0.90551 0.13224 0.46207 0.0
C322 C 0.9168 0.11655 0.4462 0.0
H323 H 0.91484 0.18834 0.43777 0.0
H324 H 0.89632 0.1241 0.4765 0.0
H325 H 0.87483 0.22062 0.44378 0.0
H326 H 0.81817 0.17115 0.42156 0.0
H327 H 0.96167 0.15471 0.52601 0.0
H328 H 0.93506 0.16211 0.4096 0.0
H329 H 0.91679 0.09636 0.44858 0.0
C330 C 0.57879 0.09725 0.18985 0.0
C331 C 0.56269 0.08828 0.17374 0.0
N332 N 0.53986 0.09861 0.17719 0.0
N333 N 0.56618 0.11316 0.20337 0.0
C334 C 0.54249 0.11359 0.1953 0.0
H335 H 0.59845 0.09238 0.19169 0.0
Co336 Co 0.57978 0.12857 0.2284 0.0
C337 C 0.54029 0.16377 0.24457 0.0
O338 O 0.54284 0.15555 0.26517 0.0
N339 N 0.5941 0.14392 0.2536 0.0
C340 C 0.60924 0.1723 0.27742 0.0
C341 C 0.60028 0.16841 0.25612 0.0
C342 C 0.59973 0.13332 0.27349 0.0
N343 N 0.60885 0.15015 0.28834 0.0
O344 O 0.56093 0.10547 0.24654 0.0
H345 H 0.59777 0.18275 0.24349 0.0
H346 H 0.59625 0.11381 0.27739 0.0
O347 O 0.55272 0.15337 0.22881 0.0
C348 C 0.57357 0.08506 0.24649 0.0
O349 O 0.59662 0.08561 0.2385 0.0
N350 N 0.59916 0.14876 0.20964 0.0
C351 C 0.6282 0.16875 0.17549 0.0
C352 C 0.60462 0.17901 0.18045 0.0
C353 C 0.59015 0.16851 0.19741 0.0
C354 C 0.6227 0.13945 0.20582 0.0
C355 C 0.63753 0.14901 0.1885 0.0
H356 H 0.57139 0.17566 0.19975 0.0
H357 H 0.62928 0.12348 0.21538 0.0
H358 H 0.52737 0.12442 0.20266 0.0
H359 H 0.56758 0.07566 0.1602 0.0
H360 H 0.61522 0.19012 0.28438 0.0
H361 H 0.59684 0.19411 0.1704 0.0
H362 H 0.65567 0.14062 0.18487 0.0
C363 C 0.65202 0.84333 0.94694 0.0
C364 C 0.6633 0.82777 0.93164 0.0
N365 N 0.65474 0.80424 0.93505 0.0
N366 N 0.63635 0.82972 0.95987 0.0
C367 C 0.63834 0.80592 0.95228 0.0
H368 H 0.65543 0.86326 0.94892 0.0
Co369 Co 0.62104 0.84329 0.98471 0.0
C370 C 0.57307 0.81675 0.99261 0.0
O371 O 0.56368 0.83897 -0.00263 0.0
N372 N 0.60692 0.85779 0.01068 0.0
C373 C 0.58959 0.88209 0.03686 0.0
C374 C 0.59834 0.8812 0.01521 0.0
C375 C 0.60369 0.84511 0.03007 0.0
N376 N 0.59281 0.85926 0.04613 0.0
O377 O 0.64522 0.82568 0.00267 0.0
H378 H 0.59808 0.89685 0.00379 0.0
H379 H 0.60912 0.82565 0.03223 0.0
O380 O 0.59634 0.81478 0.98679 0.0
C381 C 0.66496 0.83922 0.00358 0.0
O382 O 0.66328 0.8627 -0.00315 0.0
N383 N 0.59962 0.86134 0.96533 0.0
C384 C 0.57738 0.88739 0.92991 0.0
C385 C 0.57223 0.86189 0.93343 0.0
C386 C 0.58404 0.8491 0.95073 0.0
C387 C 0.60551 0.886 0.96171 0.0
C388 C 0.5941 0.89962 0.94441 0.0
H389 H 0.5818 0.82897 0.95119 0.0
H390 H 0.62016 0.89483 0.97151 0.0
H391 H 0.62855 0.79008 0.95959 0.0
H392 H 0.67647 0.83341 0.91878 0.0
H393 H 0.58119 0.89824 0.04499 0.0
H394 H 0.55969 0.85158 0.92246 0.0
H395 H 0.59918 0.91912 0.94177 0.0
C396 C 0.91495 0.11462 0.80405 0.0
C397 C 0.92394 0.10154 0.82217 0.0
N398 N 0.94925 0.10122 0.82093 0.0
N399 N 0.93453 0.12285 0.79173 0.0
C400 C 0.95521 0.11425 0.8023 0.0
H401 H 0.89537 0.11774 0.79992 0.0
Co402 Co 0.93125 0.13895 0.76454 0.0
C403 C 0.97888 0.16591 0.75509 0.0
O404 O 0.97983 0.15614 0.73492 0.0
N405 N 0.92705 0.15476 0.73656 0.0
C406 C 0.92385 0.1832 0.70932 0.0
C407 C 0.9255 0.17967 0.7321 0.0
C408 C 0.92622 0.14366 0.71623 0.0
N409 N 0.9245 0.16048 0.69944 0.0
O410 O 0.94869 0.11104 0.75127 0.0
H411 H 0.92642 0.19442 0.74454 0.0
H412 H 0.92735 0.12361 0.71357 0.0
O413 O 0.96241 0.15798 0.76896 0.0
C414 C 0.93267 0.09344 0.74861 0.0
O415 O 0.9087 0.09898 0.75109 0.0
N416 N 0.91323 0.16468 0.77883 0.0
C417 C 0.88408 0.19686 0.80491 0.0
C418 C 0.90969 0.1935 0.80945 0.0
C419 C 0.92384 0.1772 0.79642 0.0
C420 C 0.88837 0.16788 0.77386 0.0
C421 C 0.87341 0.18422 0.78659 0.0
H422 H 0.94302 0.17368 0.80142 0.0
H423 H 0.87999 0.15717 0.76039 0.0
H424 H 0.97421 0.1176 0.7965 0.0
H425 H 0.91277 0.09281 0.83517 0.0
H426 H 0.92339 0.20109 0.70067 0.0
H427 H 0.91873 0.20309 0.82328 0.0
H428 H 0.85362 0.18628 0.78266 0.0
C429 C 0.65131 0.17211 0.55068 0.0
C430 C 0.66098 0.18744 0.56696 0.0
N431 N 0.65085 0.21047 0.56446 0.0
N432 N 0.6348 0.1852 0.53813 0.0
C433 C 0.63509 0.2087 0.54677 0.0
H434 H 0.65687 0.15287 0.54758 0.0
Co435 Co 0.62079 0.17206 0.51233 0.0
C436 C 0.58959 0.21379 0.49473 0.0
O437 O 0.60322 0.21426 0.47642 0.0
N438 N 0.60728 0.15769 0.48569 0.0
C439 C 0.588 0.13139 0.4621 0.0
C440 C 0.58989 0.13911 0.48393 0.0
C441 C 0.61521 0.16113 0.46433 0.0
N442 N 0.60391 0.1453 0.44989 0.0
O443 O 0.64529 0.19087 0.49598 0.0
H444 H 0.57965 0.13066 0.49758 0.0
H445 H 0.6298 0.17415 0.45938 0.0
O446 O 0.59593 0.1992 0.51072 0.0
C447 C 0.66442 0.17673 0.49333 0.0
O448 O 0.66203 0.15265 0.4979 0.0
N449 N 0.59911 0.15254 0.52988 0.0
C450 C 0.57331 0.12187 0.55971 0.0
C451 C 0.56231 0.14406 0.55169 0.0
C452 C 0.57557 0.15925 0.53685 0.0
C453 C 0.60956 0.13037 0.53667 0.0
C454 C 0.59712 0.11486 0.55191 0.0
H455 H 0.56674 0.17635 0.53134 0.0
H456 H 0.62795 0.12501 0.53057 0.0
H457 H 0.6244 0.22425 0.53997 0.0
H458 H 0.67512 0.1823 0.57918 0.0
H459 H 0.57628 0.11634 0.45572 0.0
H460 H 0.54398 0.15017 0.55751 0.0
H461 H 0.60609 0.09776 0.55772 0.0
C462 C 0.59857 0.8978 0.30273 0.0
C463 C 0.58798 0.90956 0.32081 0.0
N464 N 0.56469 0.90008 0.32394 0.0
N465 N 0.58219 0.88092 0.29444 0.0
C466 C 0.5617 0.88259 0.30763 0.0
H467 H 0.61685 0.90175 0.29558 0.0
Co468 Co 0.58957 0.86412 0.26842 0.0
C469 C 0.5604 0.81688 0.26743 0.0
O470 O 0.58182 0.8051 0.26427 0.0
N471 N 0.59792 0.84806 0.24099 0.0
C472 C 0.61432 0.82396 0.21409 0.0
C473 C 0.61642 0.83139 0.23601 0.0
C474 C 0.58508 0.85054 0.22151 0.0
N475 N 0.59466 0.83611 0.20509 0.0
O476 O 0.56856 0.88797 0.25346 0.0
H477 H 0.63026 0.82411 0.24746 0.0
H478 H 0.56864 0.86228 0.21935 0.0
O479 O 0.5602 0.84082 0.27069 0.0
C480 C 0.57892 0.90772 0.24578 0.0
O481 O 0.6035 0.90807 0.24343 0.0
N482 N 0.61074 0.84303 0.28535 0.0
C483 C 0.6426 0.82265 0.31776 0.0
C484 C 0.61657 0.81872 0.31869 0.0
C485 C 0.601 0.8297 0.30287 0.0
C486 C 0.63605 0.84751 0.28435 0.0
C487 C 0.65247 0.83695 0.30013 0.0
H488 H 0.58098 0.82867 0.30565 0.0
H489 H 0.64341 0.86003 0.27168 0.0
H490 H 0.54493 0.87148 0.30499 0.0
H491 H 0.59666 0.92446 0.33039 0.0
H492 H 0.62644 0.81086 0.20534 0.0
H493 H 0.60807 0.80791 0.33206 0.0
H494 H 0.67245 0.84085 0.29912 0.0
C495 C 0.87693 0.84165 0.06046 0.0
C496 C 0.86874 0.82726 0.07795 0.0
N497 N 0.87158 0.80281 0.07246 0.0
N498 N 0.88525 0.82654 0.04397 0.0
C499 C 0.88171 0.80293 0.05165 0.0
H500 H 0.87525 0.86187 0.05922 0.0
Co501 Co 0.89089 0.83872 0.01555 0.0
C502 C 0.93758 0.8168 -0.00214 0.0
O503 O 0.94151 0.83969 0.99037 0.0
N504 N 0.89459 0.85174 0.98623 0.0
C505 C 0.89774 0.8756 0.95576 0.0
C506 C 0.89726 0.87559 0.97871 0.0
C507 C 0.89287 0.83776 0.96734 0.0
N508 N 0.895 0.85177 0.94862 0.0
O509 O 0.86392 0.81771 0.00526 0.0
H510 H 0.89828 0.89229 0.9888 0.0
H511 H 0.89033 0.81756 0.96737 0.0
O512 O 0.91715 0.81217 0.00881 0.0
C513 C 0.84371 0.83041 0.00317 0.0
O514 O 0.84469 0.85494 0.00564 0.0
N515 N 0.91583 0.86034 0.0277 0.0
C516 C 0.94763 0.89148 0.05228 0.0
C517 C 0.95274 0.86585 0.05032 0.0
C518 C 0.93623 0.8505 0.03863 0.0
C519 C 0.90986 0.88514 0.03061 0.0
C520 C 0.92584 0.90128 0.04252 0.0
H521 H 0.93921 0.83048 0.03968 0.0
H522 H 0.89184 0.89213 0.02498 0.0
H523 H 0.88525 0.78632 0.04168 0.0
H524 H 0.85991 0.83442 0.09297 0.0
H525 H 0.8992 0.89202 0.94515 0.0
H526 H 0.96872 0.85752 0.05882 0.0
H527 H 0.92068 0.92081 0.04492 0.0
C528 C 0.58857 0.62664 0.8055 0.0
C529 C 0.57166 0.61639 0.82009 0.0
N530 N 0.54853 0.61868 0.81118 0.0
N531 N 0.57624 0.6358 0.78752 0.0
C532 C 0.55169 0.63077 0.79149 0.0
H533 H 0.60877 0.62573 0.80722 0.0
Co534 Co 0.5932 0.64357 0.7613 0.0
C535 C 0.5717 0.69007 0.74249 0.0
O536 O 0.59492 0.69529 0.73661 0.0
N537 N 0.61137 0.64951 0.73435 0.0
C538 C 0.6416 0.65528 0.70898 0.0
C539 C 0.63547 0.65707 0.7312 0.0
C540 C 0.60328 0.64362 0.71346 0.0
N541 N 0.62139 0.64668 0.69788 0.0
O542 O 0.57545 0.61648 0.7471 0.0
H543 H 0.64837 0.66329 0.7439 0.0
H544 H 0.58477 0.63621 0.7098 0.0
O545 O 0.56709 0.66914 0.75254 0.0
C546 C 0.5886 0.59714 0.75184 0.0
O547 O 0.61072 0.60069 0.76121 0.0
N548 N 0.61162 0.66789 0.77747 0.0
C549 C 0.63587 0.69234 0.81268 0.0
C550 C 0.61214 0.70032 0.8054 0.0
C551 C 0.60011 0.68756 0.78813 0.0
C552 C 0.63492 0.66013 0.78427 0.0
C553 C 0.64766 0.67244 0.80153 0.0
H554 H 0.58065 0.69213 0.78511 0.0
H555 H 0.64282 0.64299 0.77749 0.0
H556 H 0.53679 0.6341 0.7795 0.0
H557 H 0.57611 0.60724 0.83577 0.0
H558 H 0.65967 0.65964 0.70157 0.0
H559 H 0.60228 0.71542 0.81387 0.0
H560 H 0.66568 0.6653 0.80715 0.0
C561 C 0.65711 0.31535 0.03852 0.0
C562 C 0.66707 0.298 0.05286 0.0
N563 N 0.65383 0.27658 0.05077 0.0
N564 N 0.63776 0.30498 0.02722 0.0
C565 C 0.63617 0.28118 0.03499 0.0
H566 H 0.66293 0.33476 0.0371 0.0
Co567 Co 0.61894 0.3241 0.0076 0.0
C568 C 0.5664 0.30486 0.00824 0.0
O569 O 0.55837 0.32809 0.0106 0.0
N570 N 0.60066 0.34425 0.98712 0.0
C571 C 0.58257 0.37511 0.96758 0.0
C572 C 0.59362 0.36873 0.98758 0.0
C573 C 0.59332 0.3363 0.96662 0.0
N574 N 0.58264 0.35469 0.95434 0.0
O575 O 0.63227 0.3049 0.98293 0.0
H576 H 0.59681 0.38182 0.001 0.0
H577 H 0.59617 0.31736 0.9605 0.0
O578 O 0.59016 0.30024 0.00803 0.0
C579 C 0.65372 0.29998 0.97439 0.0
O580 O 0.65457 0.28435 0.95737 0.0
N581 N 0.60691 0.34243 0.03254 0.0
C582 C 0.59195 0.37006 0.06974 0.0
C583 C 0.58384 0.34527 0.06692 0.0
C584 C 0.59223 0.33148 0.0486 0.0
C585 C 0.6171 0.36563 0.03636 0.0
C586 C 0.60944 0.3801 0.05472 0.0
H587 H 0.58707 0.3119 0.04759 0.0
H588 H 0.63091 0.37311 0.02485 0.0
H589 H 0.62158 0.26805 0.03018 0.0
H590 H 0.68223 0.30121 0.06463 0.0
H591 H 0.57642 0.39373 0.96269 0.0
H592 H 0.57125 0.3366 0.07891 0.0
H593 H 0.61676 0.39894 0.05697 0.0
C594 C 0.91551 0.39398 0.30384 0.0
C595 C 0.92641 0.4086 0.32009 0.0
N596 N 0.95129 0.41005 0.3159 0.0
N597 N 0.93343 0.38571 0.28966 0.0
C598 C 0.95491 0.3964 0.29707 0.0
H599 H 0.8957 0.38954 0.30248 0.0
Co600 Co 0.92659 0.36718 0.26385 0.0
C601 C 0.97626 0.33802 0.27654 0.0
O602 O 0.98375 0.34901 0.29505 0.0
N603 N 0.91914 0.349 0.2378 0.0
C604 C 0.9111 0.31675 0.2152 0.0
C605 C 0.91785 0.32365 0.23647 0.0
C606 C 0.9133 0.35708 0.21699 0.0
N607 N 0.90825 0.33778 0.20297 0.0
O608 O 0.94501 0.39186 0.24722 0.0
H609 H 0.9215 0.3109 0.25018 0.0
H610 H 0.91227 0.37668 0.21223 0.0
O611 O 0.95626 0.34552 0.26669 0.0
C612 C 0.93024 0.4106 0.24521 0.0
O613 O 0.90618 0.40692 0.24923 0.0
N614 N 0.90741 0.34463 0.28091 0.0
C615 C 0.8764 0.31655 0.30885 0.0
C616 C 0.90217 0.3188 0.31334 0.0
C617 C 0.91732 0.33301 0.29926 0.0
C618 C 0.88234 0.34273 0.27623 0.0
C619 C 0.86647 0.32838 0.28986 0.0
H620 H 0.93674 0.33564 0.30382 0.0
H621 H 0.87457 0.35277 0.26209 0.0
H622 H 0.97277 0.39458 0.28856 0.0
H623 H 0.91682 0.41667 0.33436 0.0
H624 H 0.90872 0.29771 0.20912 0.0
H625 H 0.91056 0.30984 0.32782 0.0
H626 H 0.84659 0.32716 0.28599 0.0
C627 C 0.88698 0.67367 0.56354 0.0
C628 C 0.88216 0.69323 0.57783 0.0
N629 N 0.8807 0.71455 0.56573 0.0
N630 N 0.88902 0.68257 0.54248 0.0
C631 C 0.88533 0.70762 0.54439 0.0
H632 H 0.88733 0.65406 0.5682 0.0
Co633 Co 0.88877 0.66338 0.51639 0.0
C634 C 0.9337 0.67942 0.49049 0.0
O635 O 0.93547 0.65624 0.48302 0.0
N636 N 0.88704 0.64401 0.49 0.0
C637 C 0.88132 0.61342 0.46505 0.0
C638 C 0.88549 0.6188 0.48718 0.0
C639 C 0.88344 0.65343 0.46919 0.0
N640 N 0.88002 0.63522 0.45377 0.0
O641 O 0.86219 0.68423 0.50506 0.0
H642 H 0.8866 0.60479 0.5001 0.0
H643 H 0.88281 0.67336 0.4655 0.0
O644 O 0.91522 0.68543 0.5033 0.0
C645 C 0.8418 0.67797 0.51479 0.0
O646 O 0.84214 0.65916 0.52904 0.0
N647 N 0.91317 0.64207 0.52933 0.0
C648 C 0.9411 0.615 0.5605 0.0
C649 C 0.95088 0.63686 0.55089 0.0
C650 C 0.93645 0.65042 0.53572 0.0
C651 C 0.90367 0.62043 0.5383 0.0
C652 C 0.91756 0.60626 0.55363 0.0
H653 H 0.94309 0.66889 0.53139 0.0
H654 H 0.88416 0.61559 0.53555 0.0
H655 H 0.88408 0.72018 0.53019 0.0
H656 H 0.8791 0.69166 0.59567 0.0
H657 H 0.87938 0.59485 0.4578 0.0
H658 H 0.96868 0.64456 0.55652 0.0
H659 H 0.90906 0.59002 0.56154 0.0
C660 C 0.59574 0.40354 0.6916 0.0
C661 C 0.58488 0.41096 0.67196 0.0
N662 N 0.56397 0.39711 0.66874 0.0
N663 N 0.58188 0.3851 0.70084 0.0
C664 C 0.56247 0.38153 0.68664 0.0
H665 H 0.61259 0.41135 0.69901 0.0
Co666 Co 0.59196 0.37325 0.72818 0.0
C667 C 0.56838 0.32474 0.7382 0.0
O668 O 0.59128 0.31829 0.74423 0.0
N669 N 0.6032 0.3632 0.75676 0.0
C670 C 0.62487 0.35312 0.78733 0.0
C671 C 0.6263 0.35726 0.76462 0.0
C672 C 0.58824 0.3628 0.77506 0.0
N673 N 0.60088 0.35674 0.79383 0.0
O674 O 0.57082 0.39824 0.74162 0.0
H675 H 0.64335 0.35644 0.75488 0.0
H676 H 0.56831 0.36695 0.77456 0.0
O677 O 0.5645 0.34688 0.72999 0.0
C678 C 0.5836 0.41714 0.74812 0.0
O679 O 0.60829 0.41548 0.74805 0.0
N680 N 0.61375 0.35103 0.71299 0.0
C681 C 0.64495 0.32812 0.68157 0.0
C682 C 0.6199 0.3207 0.68379 0.0
C683 C 0.60442 0.33298 0.69892 0.0
C684 C 0.63816 0.35874 0.71079 0.0
C685 C 0.65425 0.34742 0.69515 0.0
H686 H 0.58455 0.32917 0.6978 0.0
H687 H 0.64469 0.37497 0.72003 0.0
H688 H 0.54773 0.36783 0.68936 0.0
H689 H 0.59164 0.42583 0.66118 0.0
H690 H 0.64049 0.34877 0.7983 0.0
H691 H 0.61183 0.30676 0.67265 0.0
H692 H 0.67329 0.3543 0.69306 0.0
C693 C 0.84134 0.35267 0.94053 0.0
C694 C 0.83359 0.34078 0.92143 0.0
N695 N 0.84741 0.31971 0.9188 0.0
N696 N 0.85987 0.33925 0.95014 0.0
C697 C 0.86324 0.31918 0.93661 0.0
H698 H 0.83375 0.36997 0.94724 0.0
Co699 Co 0.87294 0.35015 0.97699 0.0
C700 C 0.91679 0.31861 0.98935 0.0
O701 O 0.92651 0.33945 -0.00262 0.0
N702 N 0.88446 0.36239 0.0049 0.0
C703 C 0.89644 0.38591 0.03383 0.0
C704 C 0.89315 0.38528 0.01101 0.0
C705 C 0.88241 0.34965 0.02441 0.0
N706 N 0.88958 0.36346 0.04229 0.0
O707 O 0.84462 0.33471 0.99169 0.0
H708 H 0.89624 0.40099 -1e-05 0.0
H709 H 0.87568 0.33049 0.02537 0.0
O710 O 0.89467 0.31915 0.98041 0.0
C711 C 0.82802 0.35119 -0.00338 0.0
O712 O 0.83379 0.37505 0.99399 0.0
N713 N 0.89856 0.3668 0.96089 0.0
C714 C 0.92982 0.39309 0.93161 0.0
C715 C 0.93294 0.36725 0.93487 0.0
C716 C 0.9166 0.35433 0.94889 0.0
C717 C 0.89449 0.39179 0.95705 0.0
C718 C 0.91008 0.40543 0.94258 0.0
H719 H 0.91773 0.33413 0.94876 0.0
H720 H 0.87845 0.40099 0.96462 0.0
H721 H 0.87711 0.30469 0.93968 0.0
H722 H 0.81861 0.34713 0.91056 0.0
H723 H 0.90248 0.40204 0.04347 0.0
H724 H 0.94702 0.35681 0.92558 0.0
H725 H 0.90648 0.42522 0.93968 0.0
C726 C 0.91035 0.59726 0.19931 0.0
C727 C 0.92166 0.5857 0.18138 0.0
N728 N 0.94399 0.59697 0.17772 0.0
N729 N 0.92537 0.61583 0.2069 0.0
C730 C 0.94569 0.61522 0.19341 0.0
H731 H 0.89269 0.59182 0.20684 0.0
Co732 Co 0.91969 0.63388 0.23297 0.0
C733 C 0.96661 0.66289 0.24006 0.0
O734 O 0.96851 0.65403 0.26051 0.0
N735 N 0.91311 0.65156 0.25953 0.0
C736 C 0.9078 0.68101 0.28564 0.0
C737 C 0.91576 0.67634 0.26414 0.0
C738 C 0.90302 0.64178 0.27833 0.0
N739 N 0.89969 0.65921 0.29447 0.0
O740 O 0.94002 0.60958 0.24831 0.0
H741 H 0.92307 0.69029 0.25276 0.0
H742 H 0.89838 0.62217 0.28034 0.0
O743 O 0.94913 0.65489 0.22729 0.0
C744 C 0.92793 0.58969 0.25334 0.0
O745 O 0.90333 0.58969 0.25108 0.0
N746 N 0.89894 0.65616 0.21712 0.0
C747 C 0.86842 0.68248 0.18747 0.0
C748 C 0.89141 0.69255 0.19458 0.0
C749 C 0.90648 0.67908 0.20926 0.0
C750 C 0.87579 0.64689 0.21166 0.0
C751 C 0.86033 0.65955 0.19641 0.0
H752 H 0.92445 0.68709 0.21353 0.0
H753 H 0.86984 0.62895 0.21832 0.0
H754 H 0.96159 0.62771 0.19529 0.0
H755 H 0.91429 0.56972 0.17229 0.0
H756 H 0.90769 0.69908 0.29401 0.0
H757 H 0.89842 0.71014 0.18784 0.0
H758 H 0.84263 0.65126 0.19126 0.0
C759 C 0.66039 0.66666 0.44217 0.0
C760 C 0.674 0.68133 0.4277 0.0
N761 N 0.6676 0.70561 0.43105 0.0
N762 N 0.64509 0.68146 0.4544 0.0
C763 C 0.65007 0.70509 0.44752 0.0
H764 H 0.66147 0.64641 0.44371 0.0
Co765 Co 0.62512 0.66964 0.47778 0.0
C766 C 0.57858 0.70125 0.46784 0.0
O767 O 0.56755 0.68256 0.45746 0.0
N768 N 0.60639 0.65754 0.50239 0.0
C769 C 0.57703 0.64766 0.52756 0.0
C770 C 0.58131 0.65615 0.50612 0.0
C771 C 0.61677 0.64938 0.52169 0.0
N772 N 0.59945 0.64344 0.53733 0.0
O773 O 0.6464 0.68861 0.49752 0.0
H774 H 0.56686 0.66096 0.49424 0.0
H775 H 0.63679 0.64869 0.52464 0.0
O776 O 0.60097 0.69869 0.47582 0.0
C777 C 0.66719 0.67672 0.499 0.0
O778 O 0.66813 0.65354 0.49137 0.0
N779 N 0.60648 0.6495 0.45716 0.0
C780 C 0.58293 0.61905 0.42552 0.0
C781 C 0.59135 0.64299 0.41973 0.0
C782 C 0.60304 0.65786 0.43568 0.0
C783 C 0.59989 0.62537 0.46258 0.0
C784 C 0.58727 0.61004 0.44715 0.0
H785 H 0.60808 0.6768 0.43092 0.0
H786 H 0.60427 0.61782 0.4789 0.0
H787 H 0.64114 0.72148 0.4547 0.0
H788 H 0.68711 0.67437 0.41533 0.0
H789 H 0.55884 0.64498 0.53536 0.0
H790 H 0.58786 0.65066 0.40322 0.0
H791 H 0.58098 0.59146 0.45203 0.0
C792 C 0.43853 0.41183 0.19868 0.0
C793 C 0.45486 0.42254 0.18355 0.0
N794 N 0.47775 0.41216 0.18658 0.0
N795 N 0.45104 0.39451 0.21081 0.0
C796 C 0.47496 0.39539 0.20331 0.0
H797 H 0.41859 0.41561 0.20016 0.0
Co798 Co 0.43659 0.37326 0.23171 0.0
C799 C 0.47664 0.33789 0.24477 0.0
O800 O 0.47479 0.3457 0.26556 0.0
N801 N 0.4218 0.35147 0.25314 0.0
C802 C 0.41083 0.3153 0.26924 0.0
C803 C 0.41579 0.32709 0.24933 0.0
C804 C 0.41994 0.35398 0.27564 0.0
N805 N 0.41358 0.3322 0.28576 0.0
O806 O 0.45314 0.3926 0.25416 0.0
H807 H 0.41712 0.31771 0.23333 0.0
H808 H 0.42571 0.37054 0.28478 0.0
O809 O 0.46426 0.34916 0.22944 0.0
C810 C 0.43841 0.41054 0.25953 0.0
O811 O 0.41452 0.40857 0.25405 0.0
N812 N 0.41964 0.35696 0.20852 0.0
C813 C 0.39354 0.34049 0.17112 0.0
C814 C 0.41977 0.33887 0.17187 0.0
C815 C 0.43252 0.34719 0.19075 0.0
C816 C 0.39403 0.3588 0.20804 0.0
C817 C 0.38045 0.35015 0.18953 0.0
H818 H 0.45282 0.3469 0.19055 0.0
H819 H 0.38419 0.36743 0.22191 0.0
H820 H 0.48974 0.38295 0.20903 0.0
H821 H 0.45013 0.43619 0.17079 0.0
H822 H 0.40739 0.29539 0.27155 0.0
H823 H 0.43035 0.33144 0.15784 0.0
H824 H 0.36011 0.35161 0.18932 0.0
C825 C 0.3454 0.67026 0.94742 0.0
C826 C 0.33195 0.68314 0.93152 0.0
N827 N 0.34245 0.70604 0.92891 0.0
N828 N 0.36424 0.68492 0.95492 0.0
C829 C 0.362 0.70661 0.94344 0.0
H830 H 0.34169 0.65135 0.95321 0.0
Co831 Co 0.38612 0.6749 0.97724 0.0
C832 C 0.41619 0.71957 0.98926 0.0
O833 O 0.40726 0.71849 0.00973 0.0
N834 N 0.4081 0.66411 0.00011 0.0
C835 C 0.443 0.65497 0.01914 0.0
C836 C 0.43337 0.66156 -0.00141 0.0
C837 C 0.40292 0.65894 0.02177 0.0
N838 N 0.42377 0.65344 0.03374 0.0
O839 O 0.36384 0.69074 -0.00188 0.0
H840 H 0.44427 0.6651 0.98364 0.0
H841 H 0.38426 0.65949 0.02886 0.0
O842 O 0.40711 0.70504 0.97427 0.0
C843 C 0.34663 0.67486 0.00277 0.0
O844 O 0.35087 0.65108 -0.00203 0.0
N845 N 0.40539 0.65842 0.95567 0.0
C846 C 0.42583 0.63208 0.91962 0.0
C847 C 0.42694 0.65843 0.92053 0.0
C848 C 0.41612 0.67121 0.93834 0.0
C849 C 0.40441 0.63281 0.95545 0.0
C850 C 0.41457 0.6192 0.93755 0.0
H851 H 0.41537 0.69144 0.93748 0.0
H852 H 0.39487 0.62299 0.96884 0.0
H853 H 0.37486 0.72221 0.94538 0.0
H854 H 0.31573 0.67601 0.92262 0.0
H855 H 0.4627 0.65244 0.02316 0.0
H856 H 0.43585 0.66934 0.90746 0.0
H857 H 0.41301 0.59889 0.93751 0.0
C858 C 0.09486 0.60533 0.69662 0.0
C859 C 0.08058 0.59369 0.68057 0.0
N860 N 0.05706 0.60308 0.68165 0.0
N861 N 0.08053 0.62222 0.70759 0.0
C862 C 0.05753 0.6204 0.69822 0.0
H863 H 0.11432 0.60128 0.7005 0.0
Co864 Co 0.09178 0.63858 0.73273 0.0
C865 C 0.06383 0.68677 0.73765 0.0
O866 O 0.08506 0.69697 0.74428 0.0
N867 N 0.10404 0.65406 0.75903 0.0
C868 C 0.12603 0.67573 0.7843 0.0
C869 C 0.12579 0.6667 0.76277 0.0
C870 C 0.09173 0.65526 0.77883 0.0
N871 N 0.10461 0.66847 0.79427 0.0
O872 O 0.07189 0.61561 0.74981 0.0
H873 H 0.14056 0.66986 0.75076 0.0
H874 H 0.07337 0.64711 0.78179 0.0
O875 O 0.06342 0.66345 0.73177 0.0
C876 C 0.0849 0.59687 0.75634 0.0
O877 O 0.10956 0.5987 0.75561 0.0
N878 N 0.11229 0.65844 0.71428 0.0
C879 C 0.14351 0.67659 0.68064 0.0
C880 C 0.1189 0.68555 0.68282 0.0
C881 C 0.10331 0.67568 0.69932 0.0
C882 C 0.13624 0.64936 0.71215 0.0
C883 C 0.1523 0.65827 0.69542 0.0
H884 H 0.08369 0.68069 0.69876 0.0
H885 H 0.14251 0.6343 0.72297 0.0
H886 H 0.0413 0.63084 0.70399 0.0
H887 H 0.08711 0.57952 0.66893 0.0
H888 H 0.14095 0.68643 0.79216 0.0
H889 H 0.1113 0.69896 0.67094 0.0
H890 H 0.17104 0.65047 0.69367 0.0
C891 C 0.1369 0.34927 0.43214 0.0
C892 C 0.14777 0.33669 0.41451 0.0
N893 N 0.14707 0.31183 0.41895 0.0
N894 N 0.12917 0.3324 0.44749 0.0
C895 C 0.13565 0.30981 0.43906 0.0
H896 H 0.13517 0.36945 0.43389 0.0
Co897 Co 0.11649 0.33966 0.47564 0.0
C898 C 0.0863 0.29461 0.48892 0.0
O899 O 0.09554 0.29475 0.5093 0.0
N900 N 0.10411 0.34747 0.50424 0.0
C901 C 0.07902 0.35457 0.53338 0.0
C902 C 0.07992 0.35073 0.51061 0.0
C903 C 0.11748 0.34973 0.52336 0.0
N904 N 0.10271 0.35377 0.54139 0.0
O905 O 0.144 0.32076 0.48815 0.0
H906 H 0.06386 0.34941 0.49956 0.0
H907 H 0.13771 0.348 0.5242 0.0
O908 O 0.09465 0.31013 0.47445 0.0
C909 C 0.16323 0.33504 0.48674 0.0
O910 O 0.15947 0.35879 0.48152 0.0
N911 N 0.09131 0.35918 0.46225 0.0
C912 C 0.06351 0.39044 0.43435 0.0
C913 C 0.0609 0.36429 0.4331 0.0
C914 C 0.0751 0.34898 0.44702 0.0
C915 C 0.09306 0.38466 0.46466 0.0
C916 C 0.07908 0.40078 0.45088 0.0
H917 H 0.07437 0.32898 0.44411 0.0
H918 H 0.10651 0.39246 0.47634 0.0
H919 H 0.13283 0.29231 0.44795 0.0
H920 H 0.15541 0.34523 0.39956 0.0
H921 H 0.06213 0.35654 0.54336 0.0
H922 H 0.04889 0.35566 0.42061 0.0
H923 H 0.08154 0.42095 0.45222 0.0
C924 C 0.41179 0.62869 0.30899 0.0
C925 C 0.42704 0.62239 0.3266 0.0
N926 N 0.45115 0.6235 0.31967 0.0
N927 N 0.42612 0.63413 0.29102 0.0
C928 C 0.45005 0.63083 0.29802 0.0
H929 H 0.39149 0.62754 0.30892 0.0
Co930 Co 0.41378 0.63693 0.26207 0.0
C931 C 0.43645 0.68242 0.24224 0.0
O932 O 0.41443 0.68559 0.23264 0.0
N933 N 0.40094 0.63808 0.23257 0.0
C934 C 0.37682 0.63926 0.20214 0.0
C935 C 0.37697 0.63964 0.22509 0.0
C936 C 0.41488 0.63593 0.21366 0.0
N937 N 0.4007 0.63706 0.19493 0.0
O938 O 0.43506 0.60934 0.25351 0.0
H939 H 0.36032 0.6408 0.23527 0.0
H940 H 0.43519 0.63435 0.21369 0.0
O941 O 0.44007 0.66272 0.25437 0.0
C942 C 0.4227 0.58974 0.25905 0.0
O943 O 0.39946 0.59278 0.26615 0.0
N944 N 0.3915 0.66222 0.27239 0.0
C945 C 0.35951 0.69201 0.29837 0.0
C946 C 0.38421 0.69964 0.2939 0.0
C947 C 0.40008 0.68414 0.28165 0.0
C948 C 0.36744 0.65449 0.27664 0.0
C949 C 0.35102 0.6692 0.28945 0.0
H950 H 0.41979 0.68883 0.28177 0.0
H951 H 0.36168 0.63572 0.27196 0.0
H952 H 0.46615 0.63244 0.28704 0.0
H953 H 0.42069 0.61582 0.34276 0.0
H954 H 0.36029 0.64023 0.19158 0.0
H955 H 0.39205 0.7163 0.3017 0.0
H956 H 0.33244 0.66211 0.29345 0.0
C957 C 0.14963 0.65755 0.05568 0.0
C958 C 0.1608 0.67072 0.07272 0.0
N959 N 0.15475 0.69517 0.07033 0.0
N960 N 0.13634 0.67354 0.0428 0.0
C961 C 0.13998 0.69645 0.05196 0.0
H962 H 0.15124 0.63755 0.05268 0.0
Co963 Co 0.12024 0.6629 0.01717 0.0
C964 C 0.0741 0.6927 0.01208 0.0
O965 O 0.06255 0.67108 0.00927 0.0
N966 N 0.10484 0.65155 0.99034 0.0
C967 C 0.08484 0.63121 0.96302 0.0
C968 C 0.09256 0.6301 0.98489 0.0
C969 C 0.10434 0.66521 0.97124 0.0
N970 N 0.09231 0.65332 0.95436 0.0
O971 O 0.14602 0.67961 0.0004 0.0
H972 H 0.08894 0.61437 0.99569 0.0
H973 H 0.11296 0.68356 0.96976 0.0
O974 O 0.09796 0.69318 0.01594 0.0
C975 C 0.16418 0.6641 -0.0014 0.0
O976 O 0.15952 0.6403 0.00292 0.0
N977 N 0.0975 0.64528 0.03547 0.0
C978 C 0.06979 0.61748 0.06616 0.0
C979 C 0.06918 0.64378 0.06664 0.0
C980 C 0.08364 0.65734 0.0515 0.0
C981 C 0.10028 0.61979 0.0364 0.0
C982 C 0.08575 0.60534 0.05103 0.0
H983 H 0.08417 0.67756 0.05314 0.0
H984 H 0.11407 0.61062 0.02588 0.0
H985 H 0.1318 0.71361 0.04546 0.0
H986 H 0.1726 0.66298 0.08577 0.0
H987 H 0.07442 0.61674 0.9543 0.0
H988 H 0.05767 0.65379 0.07868 0.0
H989 H 0.08746 0.58503 0.05095 0.0
C990 C 0.09414 0.39864 0.80529 0.0
C991 C 0.08084 0.40927 0.82261 0.0
N992 N 0.05615 0.40589 0.81854 0.0
N993 N 0.07787 0.38824 0.79066 0.0
C994 C 0.05482 0.39319 0.79903 0.0
H995 H 0.1144 0.39823 0.80354 0.0
Co996 Co 0.08713 0.37172 0.76458 0.0
C997 C 0.04379 0.33955 0.75136 0.0
O998 O 0.04531 0.34732 0.73055 0.0
N999 N 0.09709 0.3552 0.73813 0.0
C1000 C 0.10899 0.32507 0.71451 0.0
C1001 C 0.10131 0.33021 0.73594 0.0
C1002 C 0.10198 0.36475 0.71759 0.0
N1003 N 0.10933 0.34679 0.70303 0.0
O1004 O 0.06943 0.39726 0.74814 0.0
H1005 H 0.09875 0.31646 0.74907 0.0
H1006 H 0.10038 0.38445 0.71333 0.0
O1007 O 0.05763 0.34972 0.76629 0.0
C1008 C 0.08464 0.41584 0.74797 0.0
O1009 O 0.1083 0.41138 0.7531 0.0
N1010 N 0.10554 0.34879 0.78183 0.0
C1011 C 0.13459 0.32067 0.81134 0.0
C1012 C 0.10833 0.32114 0.81327 0.0
C1013 C 0.09417 0.33543 0.79849 0.0
C1014 C 0.13111 0.34848 0.77952 0.0
C1015 C 0.14608 0.33415 0.79398 0.0
H1016 H 0.07414 0.33667 0.80126 0.0
H1017 H 0.13991 0.35985 0.76671 0.0
H1018 H 0.03745 0.38709 0.79128 0.0
H1019 H 0.08865 0.41862 0.83713 0.0
H1020 H 0.11344 0.30671 0.70771 0.0
H1021 H 0.09877 0.31081 0.82638 0.0
H1022 H 0.16635 0.33425 0.7921 0.0
C1023 C 0.35698 0.33651 0.54499 0.0
C1024 C 0.34228 0.3271 0.56196 0.0
N1025 N 0.34205 0.30173 0.56046 0.0
N1026 N 0.3663 0.31724 0.53298 0.0
C1027 C 0.35656 0.29643 0.54244 0.0
H1028 H 0.36108 0.35613 0.54186 0.0
Co1029 Co 0.38737 0.31981 0.5084 0.0
C1030 C 0.41382 0.26661 0.51958 0.0
O1031 O 0.40293 0.25148 0.53399 0.0
N1032 N 0.40852 0.32274 0.48334 0.0
C1033 C 0.44295 0.3232 0.4621 0.0
C1034 C 0.43399 0.32274 0.48363 0.0
C1035 C 0.40251 0.32375 0.46136 0.0
N1036 N 0.42311 0.32386 0.44819 0.0
O1037 O 0.36188 0.30339 0.49127 0.0
H1038 H 0.44544 0.32119 0.49852 0.0
H1039 H 0.38349 0.32312 0.45495 0.0
O1040 O 0.40346 0.28771 0.51508 0.0
C1041 C 0.34535 0.3195 0.48556 0.0
O1042 O 0.35096 0.34347 0.48774 0.0
N1043 N 0.41065 0.33694 0.52607 0.0
C1044 C 0.44136 0.36534 0.55395 0.0
C1045 C 0.43584 0.34023 0.55908 0.0
C1046 C 0.42028 0.32641 0.54504 0.0
C1047 C 0.41535 0.36148 0.52095 0.0
C1048 C 0.43103 0.37601 0.53457 0.0
H1049 H 0.4154 0.30747 0.54987 0.0
H1050 H 0.40677 0.3698 0.50631 0.0
H1051 H 0.36027 0.27779 0.53611 0.0
H1052 H 0.33328 0.33825 0.5748 0.0
H1053 H 0.46248 0.32213 0.45701 0.0
H1054 H 0.44358 0.33122 0.57381 0.0
H1055 H 0.43471 0.39544 0.5302 0.0
H1056 H 0.10887 0.18079 0.0707 0.0
H1057 H 0.04193 0.13489 0.06304 0.0
H1058 H 0.04222 0.1258 0.10349 0.0
H1059 H 0.13927 0.14206 0.11276 0.0
H1060 H 0.15162 0.16854 0.12809 0.0
H1061 H 0.1465 0.17097 0.09837 0.0
H1062 H 0.1183 0.21012 0.10473 0.0
H1063 H 0.12324 0.20775 0.13446 0.0
H1064 H 0.09169 0.20792 0.12334 0.0
H1065 H 0.04947 0.12189 0.14447 0.0
H1066 H 0.06325 0.12315 0.1837 0.0
H1067 H 0.12504 0.17249 0.16533 0.0
C1068 C 0.09448 0.16861 0.07754 0.0
C1069 C 0.07533 0.15857 0.06379 0.0
C1070 C 0.05657 0.143 0.07335 0.0
C1071 C 0.05666 0.13764 0.09627 0.0
C1072 C 0.0756 0.14805 0.10941 0.0
C1073 C 0.09418 0.1632 0.10046 0.0
C1074 C 0.11203 0.17242 0.11845 0.0
C1075 C 0.13895 0.16292 0.11416 0.0
C1076 C 0.11126 0.20126 0.12035 0.0
C1077 C 0.10058 0.16002 0.13887 0.0
C1078 C 0.0796 0.14605 0.13323 0.0
C1079 C 0.0658 0.13286 0.14915 0.0
C1080 C 0.07369 0.1339 0.17147 0.0
C1081 C 0.09515 0.14811 0.17775 0.0
C1082 C 0.10868 0.16133 0.16111 0.0
H1083 H 0.10731 0.81874 0.42192 0.0
H1084 H 0.07617 0.89319 0.43306 0.0
H1085 H 0.07255 0.8994 0.39235 0.0
H1086 H 0.14386 0.83507 0.37224 0.0
H1087 H 0.13776 0.80539 0.35868 0.0
H1088 H 0.13878 0.80717 0.38877 0.0
H1089 H 0.0941 0.78774 0.39087 0.0
H1090 H 0.09288 0.78602 0.36081 0.0
H1091 H 0.06858 0.80251 0.37593 0.0
H1092 H 0.07091 0.89706 0.35068 0.0
H1093 H 0.07123 0.88625 0.31063 0.0
H1094 H 0.10441 0.81371 0.32633 0.0
C1095 C 0.10009 0.83648 0.4158 0.0
C1096 C 0.09194 0.85544 0.43071 0.0
C1097 C 0.08218 0.87824 0.42199 0.0
C1098 C 0.08022 0.88203 0.39889 0.0
C1099 C 0.08817 0.86287 0.38469 0.0
C1100 C 0.09797 0.84057 0.39276 0.0
C1101 C 0.10449 0.82275 0.37385 0.0
C1102 C 0.13291 0.81728 0.37336 0.0
C1103 C 0.08909 0.79832 0.37547 0.0
C1104 C 0.0965 0.83843 0.35393 0.0
C1105 C 0.08729 0.86155 0.36056 0.0
C1106 C 0.07831 0.8791 0.34524 0.0
C1107 C 0.07871 0.87282 0.32248 0.0
C1108 C 0.08799 0.84917 0.31524 0.0
C1109 C 0.09706 0.83185 0.33128 0.0
H1110 H 0.39107 0.81969 0.66974 0.0
H1111 H 0.39128 0.90001 0.68228 0.0
H1112 H 0.38955 0.908 0.64154 0.0
H1113 H 0.43125 0.82127 0.62352 0.0
H1114 H 0.41555 0.79648 0.60839 0.0
H1115 H 0.41416 0.79726 0.63844 0.0
H1116 H 0.36539 0.79687 0.63676 0.0
H1117 H 0.36663 0.79613 0.60664 0.0
H1118 H 0.34916 0.82054 0.62069 0.0
H1119 H 0.39113 0.90706 0.59937 0.0
H1120 H 0.39753 0.897 0.55916 0.0
H1121 H 0.39607 0.81758 0.5744 0.0
C1122 C 0.39021 0.83894 0.66392 0.0
C1123 C 0.39122 0.85924 0.67913 0.0
C1124 C 0.39073 0.88421 0.67087 0.0
C1125 C 0.38952 0.8889 0.6478 0.0
C1126 C 0.38879 0.86842 0.63324 0.0
C1127 C 0.38915 0.84393 0.641 0.0
C1128 C 0.39016 0.82524 0.62192 0.0
C1129 C 0.41421 0.80913 0.62315 0.0
C1130 C 0.36642 0.80872 0.62148 0.0
C1131 C 0.39081 0.84302 0.60219 0.0
C1132 C 0.3897 0.86787 0.60902 0.0
C1133 C 0.39159 0.88769 0.59382 0.0
C1134 C 0.39515 0.88191 0.57112 0.0
C1135 C 0.39673 0.85663 0.56403 0.0
C1136 C 0.39423 0.837 0.57963 0.0
H1137 H 0.39686 0.18955 0.82241 0.0
H1138 H 0.37807 0.11397 0.80072 0.0
H1139 H 0.37237 0.10108 0.83999 0.0
H1140 H 0.43237 0.17151 0.87003 0.0
H1141 H 0.42173 0.19699 0.88755 0.0
H1142 H 0.42284 0.20093 0.85765 0.0
H1143 H 0.37559 0.21307 0.85735 0.0
H1144 H 0.37437 0.20928 0.88728 0.0
H1145 H 0.35286 0.19207 0.86968 0.0
H1146 H 0.37033 0.0958 0.8812 0.0
H1147 H 0.37201 0.0983 0.92226 0.0
H1148 H 0.39261 0.17717 0.91795 0.0
C1149 C 0.39116 0.17042 0.82597 0.0
C1150 C 0.38797 0.15273 0.80853 0.0
C1151 C 0.38093 0.12773 0.81382 0.0
C1152 C 0.37748 0.12028 0.83606 0.0
C1153 C 0.38113 0.13805 0.85286 0.0
C1154 C 0.38777 0.16261 0.84816 0.0
C1155 C 0.39153 0.17761 0.8695 0.0
C1156 C 0.41873 0.18732 0.87128 0.0
C1157 C 0.37244 0.19929 0.87104 0.0
C1158 C 0.38619 0.15755 0.88688 0.0
C1159 C 0.38013 0.13493 0.87685 0.0
C1160 C 0.37502 0.11341 0.88927 0.0
C1161 C 0.37623 0.11498 0.91261 0.0
C1162 C 0.3826 0.13789 0.92337 0.0
C1163 C 0.38744 0.15948 0.91024 0.0
H1164 H 0.91783 0.87328 0.91296 0.0
H1165 H 0.86898 0.81169 0.93233 0.0
H1166 H 0.8645 0.79952 0.89258 0.0
H1167 H 0.88396 0.89144 0.86553 0.0
H1168 H 0.91127 0.89938 0.8491 0.0
H1169 H 0.91256 0.90143 0.87911 0.0
H1170 H 0.95117 0.87154 0.87948 0.0
H1171 H 0.94995 0.86938 0.84942 0.0
H1172 H 0.94896 0.8412 0.86615 0.0
H1173 H 0.86203 0.79697 0.85032 0.0
H1174 H 0.86281 0.80356 0.80931 0.0
H1175 H 0.91338 0.86675 0.81823 0.0
C1176 C 0.90632 0.85713 0.90887 0.0
C1177 C 0.89373 0.84345 0.92573 0.0
C1178 C 0.87904 0.82226 0.91971 0.0
C1179 C 0.87633 0.81527 0.89718 0.0
C1180 C 0.88866 0.8295 0.88095 0.0
C1181 C 0.90353 0.84987 0.88657 0.0
C1182 C 0.91381 0.86288 0.86603 0.0
C1183 C 0.90485 0.8904 0.86488 0.0
C1184 C 0.94269 0.86113 0.86523 0.0
C1185 C 0.90186 0.84708 0.84789 0.0
C1186 C 0.88753 0.82782 0.85677 0.0
C1187 C 0.87346 0.81178 0.84319 0.0
C1188 C 0.87389 0.81573 0.81997 0.0
C1189 C 0.88831 0.83551 0.81062 0.0
C1190 C 0.90268 0.8511 0.82483 0.0
H1191 H 0.90072 0.18551 0.66593 0.0
H1192 H 0.95184 0.1238 0.67962 0.0
H1193 H 0.95561 0.11543 0.63915 0.0
H1194 H 0.86855 0.15533 0.61904 0.0
H1195 H 0.86531 0.18418 0.60348 0.0
H1196 H 0.86604 0.18493 0.63361 0.0
H1197 H 0.90334 0.21632 0.63239 0.0
H1198 H 0.9027 0.21568 0.60229 0.0
H1199 H 0.93136 0.20815 0.61699 0.0
H1200 H 0.95621 0.11563 0.59735 0.0
H1201 H 0.95163 0.12296 0.55668 0.0
H1202 H 0.89871 0.18321 0.56987 0.0
C1203 C 0.91262 0.17022 0.66034 0.0
C1204 C 0.92593 0.15524 0.67586 0.0
C1205 C 0.94122 0.13526 0.66801 0.0
C1206 C 0.94357 0.13045 0.64507 0.0
C1207 C 0.93027 0.1456 0.6302 0.0
C1208 C 0.9149 0.16492 0.63748 0.0
C1209 C 0.90274 0.17842 0.61793 0.0
C1210 C 0.87395 0.17553 0.61856 0.0
C1211 C 0.91051 0.20629 0.61737 0.0
C1212 C 0.91407 0.16396 0.59855 0.0
C1213 C 0.92996 0.14515 0.60602 0.0
C1214 C 0.9436 0.1301 0.59129 0.0
C1215 C 0.94099 0.13444 0.56829 0.0
C1216 C 0.9247 0.15347 0.56028 0.0
C1217 C 0.91091 0.16823 0.57562 0.0
H1218 H 0.60673 0.18411 0.32245 0.0
H1219 H 0.62281 0.10586 0.30729 0.0
H1220 H 0.62672 0.09688 0.34756 0.0
H1221 H 0.64992 0.18879 0.37154 0.0
H1222 H 0.6285 0.20911 0.38641 0.0
H1223 H 0.62969 0.20994 0.35628 0.0
H1224 H 0.58174 0.20125 0.3547 0.0
H1225 H 0.58041 0.2001 0.38475 0.0
H1226 H 0.56922 0.17381 0.36849 0.0
H1227 H 0.62302 0.09514 0.38909 0.0
H1228 H 0.6153 0.10167 0.42954 0.0
H1229 H 0.60447 0.18131 0.41806 0.0
C1230 C 0.61181 0.16524 0.3275 0.0
C1231 C 0.61426 0.14565 0.31163 0.0
C1232 C 0.62039 0.1211 0.31909 0.0
C1233 C 0.62287 0.11585 0.34194 0.0
C1234 C 0.61954 0.13542 0.35713 0.0
C1235 C 0.61454 0.15972 0.35025 0.0
C1236 C 0.61038 0.17703 0.37006 0.0
C1237 C 0.63085 0.19742 0.37113 0.0
C1238 C 0.58387 0.18872 0.36945 0.0
C1239 C 0.61301 0.15848 0.38912 0.0
C1240 C 0.61834 0.13458 0.38127 0.0
C1241 C 0.61941 0.11384 0.39549 0.0
C1242 C 0.61487 0.11764 0.41832 0.0
C1243 C 0.60961 0.14197 0.42666 0.0
C1244 C 0.60901 0.16267 0.41196 0.0
H1245 H 0.58834 0.88911 0.08293 0.0
H1246 H 0.58282 0.81172 0.0603 0.0
H1247 H 0.57657 0.79785 0.09919 0.0
H1248 H 0.62305 0.87845 0.1297 0.0
H1249 H 0.60766 0.90118 0.14743 0.0
H1250 H 0.60779 0.90555 0.11763 0.0
H1251 H 0.55908 0.90799 0.11751 0.0
H1252 H 0.55879 0.90373 0.14743 0.0
H1253 H 0.54101 0.8828 0.12973 0.0
H1254 H 0.57837 0.79169 0.14036 0.0
H1255 H 0.58605 0.79414 0.18117 0.0
H1256 H 0.58726 0.87538 0.17739 0.0
C1257 C 0.58505 0.86934 0.08603 0.0
C1258 C 0.58639 0.8515 0.06852 0.0
C1259 C 0.58246 0.82572 0.07343 0.0
C1260 C 0.57855 0.81767 0.09546 0.0
C1261 C 0.57815 0.83566 0.11239 0.0
C1262 C 0.5809 0.86102 0.10793 0.0
C1263 C 0.58179 0.87628 0.12933 0.0
C1264 C 0.60655 0.89123 0.13112 0.0
C1265 C 0.5588 0.89373 0.1311 0.0
C1266 C 0.58057 0.8554 0.14651 0.0
C1267 C 0.57813 0.83213 0.13638 0.0
C1268 C 0.57955 0.80981 0.14855 0.0
C1269 C 0.58402 0.81132 0.17161 0.0
C1270 C 0.58677 0.83492 0.1822 0.0
C1271 C 0.58441 0.8572 0.16962 0.0
H1272 H 0.56987 0.65287 0.57368 0.0
H1273 H 0.64061 0.61912 0.55318 0.0
H1274 H 0.65205 0.61275 0.59269 0.0
H1275 H 0.59265 0.68662 0.61832 0.0
H1276 H 0.56622 0.68169 0.63672 0.0
H1277 H 0.56179 0.68065 0.60691 0.0
H1278 H 0.5427 0.63596 0.61003 0.0
H1279 H 0.54682 0.63695 0.63996 0.0
H1280 H 0.56021 0.6115 0.62396 0.0
H1281 H 0.6584 0.61518 0.63373 0.0
H1282 H 0.65821 0.62414 0.67425 0.0
H1283 H 0.58283 0.6547 0.6689 0.0
C1284 C 0.58741 0.64344 0.57747 0.0
C1285 C 0.60442 0.63665 0.56027 0.0
C1286 C 0.62744 0.62484 0.56602 0.0
C1287 C 0.63402 0.62094 0.58843 0.0
C1288 C 0.61723 0.62861 0.60496 0.0
C1289 C 0.59422 0.63927 0.59982 0.0
C1290 C 0.5804 0.64731 0.62086 0.0
C1291 C 0.57496 0.67576 0.62068 0.0
C1292 C 0.55609 0.63201 0.62388 0.0
C1293 C 0.59972 0.64051 0.63851 0.0
C1294 C 0.62071 0.62951 0.62893 0.0
C1295 C 0.6419 0.62334 0.64149 0.0
C1296 C 0.64171 0.62867 0.66441 0.0
C1297 C 0.62049 0.64 0.67459 0.0
C1298 C 0.59907 0.64561 0.66152 0.0
H1299 H 0.60676 0.327 0.92296 0.0
H1300 H 0.54737 0.38196 0.93226 0.0
H1301 H 0.5423 0.38509 0.89119 0.0
H1302 H 0.63567 0.35642 0.87928 0.0
H1303 H 0.64419 0.32835 0.86413 0.0
H1304 H 0.64023 0.32715 0.89397 0.0
H1305 H 0.60714 0.29167 0.88978 0.0
H1306 H 0.61122 0.29246 0.85985 0.0
H1307 H 0.5803 0.29635 0.87179 0.0
H1308 H 0.54723 0.3857 0.84938 0.0
H1309 H 0.56189 0.3842 0.81026 0.0
H1310 H 0.61828 0.32887 0.82857 0.0
C1311 C 0.59205 0.339 0.91642 0.0
C1312 C 0.57726 0.35407 0.93077 0.0
C1313 C 0.55886 0.37027 0.9215 0.0
C1314 C 0.55578 0.37205 0.89824 0.0
C1315 C 0.5712 0.35743 0.88455 0.0
C1316 C 0.58888 0.3411 0.89332 0.0
C1317 C 0.60482 0.32934 0.87513 0.0
C1318 C 0.63287 0.33572 0.87833 0.0
C1319 C 0.60061 0.30076 0.87408 0.0
C1320 C 0.59402 0.34232 0.85479 0.0
C1321 C 0.57434 0.35809 0.8605 0.0
C1322 C 0.56231 0.37307 0.84466 0.0
C1323 C 0.57074 0.37204 0.82245 0.0
C1324 C 0.59119 0.35633 0.81632 0.0
C1325 C 0.60268 0.3411 0.83274 0.0
H1326 H 0.92551 0.37047 0.17162 0.0
H1327 H 0.8752 0.30735 0.18192 0.0
H1328 H 0.8644 0.30749 0.14173 0.0
H1329 H 0.88799 0.40278 0.12959 0.0
H1330 H 0.91497 0.41236 0.11341 0.0
H1331 H 0.91784 0.408 0.14319 0.0
H1332 H 0.95434 0.37644 0.13677 0.0
H1333 H 0.95152 0.38062 0.10699 0.0
H1334 H 0.94938 0.34956 0.11891 0.0
H1335 H 0.8595 0.31411 0.10054 0.0
H1336 H 0.861 0.3264 0.06091 0.0
H1337 H 0.91596 0.3842 0.07689 0.0
C1338 C 0.91195 0.35697 0.1654 0.0
C1339 C 0.9011 0.33894 0.1798 0.0
C1340 C 0.88382 0.32119 0.17107 0.0
C1341 C 0.87751 0.3212 0.14832 0.0
C1342 C 0.88879 0.33899 0.13449 0.0
C1343 C 0.90568 0.35652 0.14265 0.0
C1344 C 0.91582 0.37294 0.124 0.0
C1345 C 0.90872 0.40066 0.12778 0.0
C1346 C 0.94446 0.36969 0.12153 0.0
C1347 C 0.9019 0.36194 0.10414 0.0
C1348 C 0.88637 0.34243 0.11059 0.0
C1349 C 0.87167 0.32931 0.09525 0.0
C1350 C 0.87283 0.33633 0.07268 0.0
C1351 C 0.8887 0.35624 0.06557 0.0
C1352 C 0.90342 0.36911 0.08166 0.0
H1353 H 0.9127 0.68431 0.33233 0.0
H1354 H 0.86539 0.62424 0.30696 0.0
H1355 H 0.85178 0.61442 0.34542 0.0
H1356 H 0.93449 0.65272 0.37912 0.0
H1357 H 0.93454 0.67952 0.3976 0.0
H1358 H 0.93817 0.68401 0.36796 0.0
H1359 H 0.89993 0.71428 0.36768 0.0
H1360 H 0.89623 0.70997 0.39741 0.0
H1361 H 0.8702 0.70383 0.37886 0.0
H1362 H 0.8468 0.6082 0.3864 0.0
H1363 H 0.85065 0.60608 0.42751 0.0
H1364 H 0.90073 0.67044 0.42659 0.0
C1365 C 0.89897 0.66954 0.33484 0.0
C1366 C 0.89011 0.65501 0.31667 0.0
C1367 C 0.87263 0.63541 0.32066 0.0
C1368 C 0.86462 0.62985 0.34242 0.0
C1369 C 0.87413 0.64417 0.36 0.0
C1370 C 0.89081 0.66372 0.35648 0.0
C1371 C 0.89966 0.67491 0.37844 0.0
C1372 C 0.92841 0.67264 0.38091 0.0
C1373 C 0.89098 0.70238 0.38073 0.0
C1374 C 0.886 0.65803 0.39484 0.0
C1375 C 0.87115 0.64063 0.38382 0.0
C1376 C 0.85808 0.62193 0.39525 0.0
C1377 C 0.86051 0.62076 0.41854 0.0
C1378 C 0.87592 0.63813 0.43015 0.0
C1379 C 0.88844 0.65726 0.41814 0.0
H1380 H 0.39862 0.35216 0.41736 0.0
H1381 H 0.44954 0.28919 0.42551 0.0
H1382 H 0.45127 0.28364 0.38444 0.0
H1383 H 0.36419 0.3285 0.3694 0.0
H1384 H 0.36218 0.35865 0.35572 0.0
H1385 H 0.36386 0.35698 0.38578 0.0
H1386 H 0.4029 0.38617 0.3855 0.0
H1387 H 0.40129 0.38799 0.35545 0.0
H1388 H 0.4299 0.37771 0.36884 0.0
H1389 H 0.44698 0.28438 0.34305 0.0
H1390 H 0.44 0.29367 0.30305 0.0
H1391 H 0.39425 0.35812 0.32093 0.0
C1392 C 0.40994 0.33716 0.41034 0.0
C1393 C 0.42387 0.32095 0.42436 0.0
C1394 C 0.43886 0.30174 0.41486 0.0
C1395 C 0.43984 0.29842 0.39165 0.0
C1396 C 0.42599 0.31474 0.3782 0.0
C1397 C 0.41158 0.33395 0.38711 0.0
C1398 C 0.39964 0.34964 0.36875 0.0
C1399 C 0.37075 0.34835 0.36999 0.0
C1400 C 0.409 0.377 0.3697 0.0
C1401 C 0.40954 0.33616 0.34819 0.0
C1402 C 0.42442 0.31588 0.35411 0.0
C1403 C 0.43541 0.30022 0.33819 0.0
C1404 C 0.43124 0.30552 0.31557 0.0
C1405 C 0.4165 0.32648 0.30908 0.0
C1406 C 0.40559 0.34202 0.32559 0.0
H1407 H 0.39132 0.66954 0.0659 0.0
H1408 H 0.45963 0.62629 0.05555 0.0
H1409 H 0.46197 0.61793 0.09619 0.0
H1410 H 0.40933 0.69752 0.11816 0.0
H1411 H 0.37805 0.69583 0.12974 0.0
H1412 H 0.38229 0.69875 0.09996 0.0
H1413 H 0.35567 0.65848 0.09373 0.0
H1414 H 0.35134 0.65543 0.12348 0.0
H1415 H 0.36453 0.62973 0.10766 0.0
H1416 H 0.45621 0.61395 0.13838 0.0
H1417 H 0.44252 0.61434 0.17799 0.0
H1418 H 0.37794 0.65989 0.1598 0.0
C1419 C 0.40666 0.65809 0.07205 0.0
C1420 C 0.42524 0.64849 0.05744 0.0
C1421 C 0.44529 0.63404 0.0664 0.0
C1422 C 0.44672 0.62911 0.08946 0.0
C1423 C 0.42799 0.63881 0.10334 0.0
C1424 C 0.40837 0.65301 0.09492 0.0
C1425 C 0.39051 0.6612 0.11323 0.0
C1426 C 0.39003 0.69003 0.11539 0.0
C1427 C 0.36395 0.65056 0.10928 0.0
C1428 C 0.40295 0.64912 0.13328 0.0
C1429 C 0.42463 0.63642 0.12734 0.0
C1430 C 0.43927 0.62389 0.1432 0.0
C1431 C 0.43143 0.6243 0.16566 0.0
C1432 C 0.40908 0.63702 0.172 0.0
C1433 C 0.39486 0.64965 0.15549 0.0
H1434 H 0.08301 0.62418 0.91779 0.0
H1435 H 0.09578 0.70142 0.93863 0.0
H1436 H 0.09566 0.71468 0.89915 0.0
H1437 H 0.12199 0.62422 0.87234 0.0
H1438 H 0.10227 0.60504 0.85469 0.0
H1439 H 0.1003 0.60207 0.88458 0.0
H1440 H 0.05241 0.61128 0.88307 0.0
H1441 H 0.05419 0.61414 0.85306 0.0
H1442 H 0.04131 0.63948 0.86953 0.0
H1443 H 0.10046 0.71836 0.8575 0.0
H1444 H 0.10735 0.71228 0.81683 0.0
H1445 H 0.08829 0.63352 0.82337 0.0
C1446 C 0.08504 0.64401 0.91426 0.0
C1447 C 0.08961 0.66166 0.9315 0.0
C1448 C 0.09272 0.68737 0.92583 0.0
C1449 C 0.09241 0.69517 0.90342 0.0
C1450 C 0.08852 0.67711 0.88688 0.0
C1451 C 0.08451 0.65212 0.89206 0.0
C1452 C 0.08243 0.63613 0.87119 0.0
C1453 C 0.10297 0.61568 0.87068 0.0
C1454 C 0.05601 0.62458 0.86909 0.0
C1455 C 0.08686 0.65588 0.85344 0.0
C1456 C 0.09021 0.67945 0.86281 0.0
C1457 C 0.09724 0.70015 0.84993 0.0
C1458 C 0.10122 0.69656 0.82696 0.0
C1459 C 0.09792 0.67256 0.81719 0.0
C1460 C 0.09017 0.65215 0.8305 0.0
H1461 H 0.08335 0.37338 0.67205 0.0
H1462 H 0.14826 0.32529 0.6815 0.0
H1463 H 0.15635 0.3258 0.64074 0.0
H1464 H 0.06138 0.34306 0.62444 0.0
H1465 H 0.05016 0.37085 0.61032 0.0
H1466 H 0.0518 0.37023 0.64037 0.0
H1467 H 0.07979 0.41014 0.6401 0.0
H1468 H 0.0781 0.411 0.60999 0.0
H1469 H 0.1083 0.41042 0.62374 0.0
H1470 H 0.15503 0.32818 0.59916 0.0
H1471 H 0.14368 0.33075 0.55933 0.0
H1472 H 0.07871 0.37649 0.57628 0.0
C1473 C 0.09966 0.36365 0.66549 0.0
C1474 C 0.11543 0.34955 0.67976 0.0
C1475 C 0.13613 0.33626 0.6707 0.0
C1476 C 0.14088 0.33655 0.64765 0.0
C1477 C 0.12464 0.35012 0.63389 0.0
C1478 C 0.10442 0.36343 0.64242 0.0
C1479 C 0.0884 0.37427 0.62378 0.0
C1480 C 0.06134 0.36398 0.6248 0.0
C1481 C 0.08867 0.40318 0.62445 0.0
C1482 C 0.10236 0.36438 0.60348 0.0
C1483 C 0.12346 0.3509 0.60972 0.0
C1484 C 0.13876 0.339 0.59404 0.0
C1485 C 0.13219 0.34067 0.57139 0.0
C1486 C 0.11035 0.35396 0.56456 0.0
C1487 C 0.09547 0.36617 0.58092 0.0
H1488 H 0.10153 0.94435 0.21764 0.0
H1489 H 0.03556 0.92859 0.25782 0.0
H1490 H 0.02515 0.97432 0.25809 0.0
H1491 H 0.12077 0.99667 0.24506 0.0
H1492 H 0.13182 0.01314 0.2206 0.0
H1493 H 0.13098 0.97941 0.22072 0.0
H1494 H 0.10321 0.9798 0.185 0.0
H1495 H 0.10394 0.01371 0.18482 0.0
H1496 H 0.0742 0.99739 0.18487 0.0
H1497 H 0.02632 0.02284 0.2582 0.0
H1498 H 0.03932 0.06764 0.25918 0.0
H1499 H 0.10428 0.04979 0.21839 0.0
C1500 C 0.08463 0.95043 0.22624 0.0
C1501 C 0.06944 0.93315 0.23792 0.0
C1502 C 0.04738 0.94168 0.24876 0.0
C1503 C 0.04135 0.96755 0.24891 0.0
C1504 C 0.0573 0.98428 0.23767 0.0
C1505 C 0.07834 0.97583 0.22631 0.0
C1506 C 0.09387 0.99724 0.21715 0.0
C1507 C 0.12093 0.99657 0.22646 0.0
C1508 C 0.09379 0.99702 0.19143 0.0
C1509 C 0.0792 0.01931 0.22616 0.0
C1510 C 0.05782 0.01168 0.23753 0.0
C1511 C 0.04269 0.02897 0.24892 0.0
C1512 C 0.05012 0.0544 0.24928 0.0
C1513 C 0.07267 0.06208 0.23865 0.0
C1514 C 0.08678 0.04443 0.22637 0.0
H1515 H 0.20144 0.81867 0.51739 0.0
H1516 H 0.18727 0.79987 0.4482 0.0
H1517 H 0.23258 0.78902 0.44353 0.0
H1518 H 0.25408 0.8498 0.51103 0.0
H1519 H 0.27004 0.839 0.53586 0.0
H1520 H 0.23633 0.83901 0.5349 0.0
H1521 H 0.23544 0.79144 0.54418 0.0
H1522 H 0.26937 0.79126 0.54547 0.0
H1523 H 0.25315 0.76972 0.5272 0.0
H1524 H 0.28027 0.78812 0.44526 0.0
H1525 H 0.32471 0.79895 0.45229 0.0
H1526 H 0.30684 0.81856 0.52061 0.0
C1527 C 0.20757 0.81108 0.50158 0.0
C1528 C 0.19092 0.80951 0.48331 0.0
C1529 C 0.19977 0.8006 0.4625 0.0
C1530 C 0.22541 0.79438 0.45979 0.0
C1531 C 0.24156 0.79674 0.4782 0.0
C1532 C 0.23276 0.80457 0.49881 0.0
C1533 C 0.25395 0.80876 0.51531 0.0
C1534 C 0.25357 0.83574 0.52479 0.0
C1535 C 0.25291 0.78913 0.53416 0.0
C1536 C 0.27638 0.80432 0.5003 0.0
C1537 C 0.26893 0.79644 0.47919 0.0
C1538 C 0.28627 0.79351 0.46189 0.0
C1539 C 0.31156 0.79957 0.46605 0.0
C1540 C 0.31918 0.8088 0.4872 0.0
C1541 C 0.30151 0.81062 0.50461 0.0
H1542 H 0.4057 0.0628 0.76924 0.0
H1543 H 0.46525 0.0761 0.72141 0.0
H1544 H 0.47565 0.03054 0.7216 0.0
H1545 H 0.43722 0.0085 0.80004 0.0
H1546 H 0.40719 0.9932 0.80344 0.0
H1547 H 0.40904 0.02707 0.80326 0.0
H1548 H 0.37616 0.02826 0.77125 0.0
H1549 H 0.37461 0.99455 0.77089 0.0
H1550 H 0.38242 0.01139 0.74566 0.0
H1551 H 0.47381 0.98167 0.72237 0.0
H1552 H 0.46114 0.93661 0.72509 0.0
H1553 H 0.40237 0.9574 0.77185 0.0
C1554 C 0.42178 0.05624 0.75973 0.0
C1555 C 0.43508 0.07286 0.74576 0.0
C1556 C 0.45541 0.06368 0.7328 0.0
C1557 C 0.46124 0.03779 0.73267 0.0
C1558 C 0.4468 0.02155 0.74585 0.0
C1559 C 0.42783 0.03068 0.75954 0.0
C1560 C 0.41308 0.00963 0.77026 0.0
C1561 C 0.41687 0.0096 0.79576 0.0
C1562 C 0.38492 0.01106 0.76413 0.0
C1563 C 0.42563 0.98718 0.75957 0.0
C1564 C 0.44539 0.9941 0.74587 0.0
C1565 C 0.45861 0.97613 0.73336 0.0
C1566 C 0.45128 0.95062 0.7349 0.0
C1567 C 0.43059 0.94359 0.74843 0.0
C1568 C 0.41808 0.96217 0.76111 0.0
H1569 H 0.28872 0.15423 0.96797 0.0
H1570 H 0.31027 0.22429 -0.00054 0.0
H1571 H 0.26528 0.23674 0.00176 0.0
H1572 H 0.23147 0.17892 0.93716 0.0
H1573 H 0.21495 0.14987 0.94222 0.0
H1574 H 0.24865 0.14971 0.93861 0.0
H1575 H 0.25341 0.12694 0.97673 0.0
H1576 H 0.21993 0.12746 0.98071 0.0
H1577 H 0.24031 0.14114 0.00153 0.0
H1578 H 0.21648 0.23777 0.00594 0.0
H1579 H 0.17087 0.22759 0.01016 0.0
H1580 H 0.18367 0.15629 0.97686 0.0
C1581 C 0.28402 0.17269 0.97442 0.0
C1582 C 0.30287 0.18848 0.98317 0.0
C1583 C 0.29608 0.21222 0.9921 0.0
C1584 C 0.27054 0.21932 0.99363 0.0
C1585 C 0.25219 0.2026 0.98587 0.0
C1586 C 0.25882 0.17996 0.97601 0.0
C1587 C 0.23604 0.16392 0.97112 0.0
C1588 C 0.23258 0.16041 0.94577 0.0
C1589 C 0.23753 0.13838 0.98326 0.0
C1590 C 0.21559 0.18035 0.98077 0.0
C1591 C 0.22489 0.20286 0.98883 0.0
C1592 C 0.20907 0.22029 -0.00059 0.0
C1593 C 0.18326 0.21438 0.00184 0.0
C1594 C 0.17386 0.19099 0.99422 0.0
C1595 C 0.1903 0.17417 0.98326 0.0
H1596 H 0.90394 0.056 0.73237 0.0
H1597 H 0.97663 0.07026 0.76265 0.0
H1598 H 0.98302 0.0242 0.7673 0.0
H1599 H 0.88518 0.01112 0.76917 0.0
H1600 H 0.86852 0.99205 0.74911 0.0
H1601 H 0.87212 0.02521 0.74431 0.0
H1602 H 0.89317 0.01651 0.70589 0.0
H1603 H 0.88907 0.98324 0.71033 0.0
H1604 H 0.91991 0.99567 0.70439 0.0
H1605 H 0.97874 0.97503 0.77125 0.0
H1606 H 0.96429 0.93046 0.77384 0.0
H1607 H 0.89308 0.95215 0.74408 0.0
C1608 C 0.92159 0.04947 0.73937 0.0
C1609 C 0.9399 0.06663 0.7469 0.0
C1610 C 0.96257 0.05735 0.7563 0.0
C1611 C 0.96624 0.03122 0.75916 0.0
C1612 C 0.9471 0.01479 0.75244 0.0
C1613 C 0.92534 0.02377 0.74251 0.0
C1614 C 0.90645 0.00312 0.73848 0.0
C1615 C 0.88162 0.00819 0.75102 0.0
C1616 C 0.90189 0.99942 0.71328 0.0
C1617 C 0.92042 0.98112 0.74837 0.0
C1618 C 0.94408 0.98774 0.75591 0.0
C1619 C 0.96019 0.9698 0.76538 0.0
C1620 C 0.95183 0.94459 0.76694 0.0
C1621 C 0.92736 0.93787 0.75966 0.0
C1622 C 0.91168 0.95658 0.75037 0.0
H1623 H 0.80816 0.15093 0.4858 0.0
H1624 H 0.82312 0.22338 0.51634 0.0
H1625 H 0.77757 0.23418 0.51282 0.0
H1626 H 0.76193 0.17389 0.44555 0.0
H1627 H 0.74393 0.14522 0.44723 0.0
H1628 H 0.77752 0.14452 0.45144 0.0
H1629 H 0.77122 0.12321 0.49011 0.0
H1630 H 0.73776 0.12356 0.4859 0.0
H1631 H 0.75104 0.13797 0.51051 0.0
H1632 H 0.72856 0.2341 0.50889 0.0
H1633 H 0.68326 0.22306 0.50572 0.0
H1634 H 0.70354 0.15207 0.47506 0.0
C1635 C 0.80204 0.16914 0.49185 0.0
C1636 C 0.81908 0.18615 0.50176 0.0
C1637 C 0.81025 0.20997 0.50891 0.0
C1638 C 0.7845 0.21626 0.50682 0.0
C1639 C 0.76819 0.19881 0.49691 0.0
C1640 C 0.77692 0.17586 0.48934 0.0
C1641 C 0.75616 0.15986 0.4797 0.0
C1642 C 0.76012 0.15563 0.45448 0.0
C1643 C 0.75391 0.13469 0.49232 0.0
C1644 C 0.73388 0.17672 0.48401 0.0
C1645 C 0.74096 0.1993 0.49369 0.0
C1646 C 0.72297 0.21672 0.50088 0.0
C1647 C 0.69727 0.21042 0.49885 0.0
C1648 C 0.69 0.18684 0.48987 0.0
C1649 C 0.70858 0.17038 0.48166 0.0
H1650 H 0.57134 0.04986 0.21476 0.0
H1651 H 0.55119 0.06411 0.28369 0.0
H1652 H 0.54139 0.01869 0.28865 0.0
H1653 H 0.52564 0.99498 0.20493 0.0
H1654 H 0.54867 0.97951 0.18758 0.0
H1655 H 0.54688 0.0134 0.18809 0.0
H1656 H 0.59415 0.01544 0.19858 0.0
H1657 H 0.59606 0.98178 0.19844 0.0
H1658 H 0.60513 0.99904 0.22313 0.0
H1659 H 0.54099 0.97086 0.28733 0.0
H1660 H 0.55281 0.92645 0.28118 0.0
H1661 H 0.57694 0.94422 0.21392 0.0
C1662 C 0.56376 0.04354 0.23061 0.0
C1663 C 0.56149 0.06031 0.24875 0.0
C1664 C 0.55234 0.05151 0.26948 0.0
C1665 C 0.5468 0.02577 0.27238 0.0
C1666 C 0.55028 0.0094 0.25427 0.0
C1667 C 0.55833 0.01811 0.23368 0.0
C1668 C 0.56429 0.99674 0.2178 0.0
C1669 C 0.54524 0.99612 0.19846 0.0
C1670 C 0.59152 0.99836 0.20901 0.0
C1671 C 0.56061 0.97451 0.23319 0.0
C1672 C 0.55135 0.98203 0.25381 0.0
C1673 C 0.54776 0.96482 0.27112 0.0
C1674 C 0.5545 0.93959 0.26747 0.0
C1675 C 0.56555 0.932 0.24699 0.0
C1676 C 0.56809 0.94956 0.22954 0.0
H1677 H 0.80799 0.83995 0.97245 0.0
H1678 H 0.82291 0.79678 0.03226 0.0
H1679 H 0.77722 0.78823 0.03639 0.0
H1680 H 0.75858 0.87113 0.99029 0.0
H1681 H 0.7402 0.87077 0.96494 0.0
H1682 H 0.77379 0.86788 0.96347 0.0
H1683 H 0.76957 0.82592 0.94171 0.0
H1684 H 0.73575 0.82884 0.94275 0.0
H1685 H 0.75079 0.80081 0.95317 0.0
H1686 H 0.72896 0.79199 0.03773 0.0
H1687 H 0.68436 0.80623 0.03501 0.0
H1688 H 0.70245 0.84679 0.97433 0.0
C1689 C 0.80166 0.82757 0.98569 0.0
C1690 C 0.81878 0.81849 0.00171 0.0
C1691 C 0.81001 0.80317 0.01942 0.0
C1692 C 0.78408 0.7984 0.02195 0.0
C1693 C 0.76738 0.80865 0.00634 0.0
C1694 C 0.77601 0.82238 0.98819 0.0
C1695 C 0.7545 0.83374 0.97509 0.0
C1696 C 0.75693 0.86257 0.97338 0.0
C1697 C 0.75254 0.8216 0.9518 0.0
C1698 C 0.73256 0.82612 0.98965 0.0
C1699 C 0.74004 0.81105 0.00727 0.0
C1700 C 0.7229 0.80334 0.0237 0.0
C1701 C 0.69767 0.81151 0.02212 0.0
C1702 C 0.6902 0.82768 0.00457 0.0
C1703 C 0.70777 0.8345 0.98799 0.0
H1704 H 0.59843 0.45268 0.77732 0.0
H1705 H 0.54518 0.43851 0.72402 0.0
H1706 H 0.53573 0.48417 0.72193 0.0
H1707 H 0.56414 0.50836 0.80317 0.0
H1708 H 0.59375 0.52344 0.80923 0.0
H1709 H 0.59145 0.48961 0.80972 0.0
H1710 H 0.62821 0.4869 0.78129 0.0
H1711 H 0.63031 0.52057 0.78031 0.0
H1712 H 0.62556 0.50301 0.75486 0.0
H1713 H 0.53842 0.53273 0.72142 0.0
H1714 H 0.55155 0.57763 0.72398 0.0
H1715 H 0.60324 0.55806 0.77731 0.0
C1716 C 0.58392 0.4591 0.76594 0.0
C1717 C 0.57222 0.4422 0.75111 0.0
C1718 C 0.55383 0.45119 0.73595 0.0
C1719 C 0.54852 0.47712 0.73454 0.0
C1720 C 0.56145 0.49358 0.7487 0.0
C1721 C 0.57838 0.48471 0.76447 0.0
C1722 C 0.59195 0.50594 0.77611 0.0
C1723 C 0.58489 0.50689 0.80103 0.0
C1724 C 0.62069 0.50397 0.77293 0.0
C1725 C 0.58118 0.52813 0.76363 0.0
C1726 C 0.56325 0.52095 0.74816 0.0
C1727 C 0.55212 0.53853 0.73379 0.0
C1728 C 0.5597 0.56394 0.73526 0.0
C1729 C 0.57856 0.57123 0.75067 0.0
C1730 C 0.58893 0.55307 0.76519 0.0
H1731 H 0.80286 0.30729 0.98614 0.0
H1732 H 0.79275 0.38094 0.0161 0.0
H1733 H 0.74682 0.37463 0.01645 0.0
H1734 H 0.75293 0.31067 0.94979 0.0
H1735 H 0.74302 0.27836 0.95216 0.0
H1736 H 0.77532 0.28665 0.95736 0.0
H1737 H 0.773 0.26646 -0.00326 0.0
H1738 H 0.74073 0.25772 0.99154 0.0
H1739 H 0.7486 0.27614 0.01588 0.0
H1740 H 0.70187 0.36346 0.00783 0.0
H1741 H 0.66129 0.34572 0.99471 0.0
H1742 H 0.70025 0.27871 0.97211 0.0
C1743 C 0.79104 0.32164 0.99356 0.0
C1744 C 0.80142 0.34456 0.0012 0.0
C1745 C 0.78523 0.3632 0.0102 0.0
C1746 C 0.75907 0.35982 0.01046 0.0
C1747 C 0.74929 0.33754 0.00187 0.0
C1748 C 0.76477 0.31853 0.99399 0.0
C1749 C 0.74933 0.29716 0.98432 0.0
C1750 C 0.75552 0.29298 0.95944 0.0
C1751 C 0.75314 0.27293 -0.00206 0.0
C1752 C 0.72293 0.3075 0.98735 0.0
C1753 C 0.72327 0.3308 -0.00245 0.0
C1754 C 0.7013 0.3449 0.00042 0.0
C1755 C 0.67835 0.33472 0.99295 0.0
C1756 C 0.67754 0.31057 0.98309 0.0
C1757 C 0.7002 0.29698 0.98013 0.0
H1758 H 0.91356 0.55159 0.28009 0.0
H1759 H 0.96883 0.57204 0.23017 0.0
H1760 H 0.98072 0.52717 0.22603 0.0
H1761 H 0.94931 0.49518 0.30413 0.0
H1762 H 0.92015 0.47841 0.3079 0.0
H1763 H 0.92091 0.51218 0.31079 0.0
H1764 H 0.8855 0.51592 0.28111 0.0
H1765 H 0.8849 0.48239 0.27781 0.0
H1766 H 0.89014 0.50223 0.25381 0.0
H1767 H 0.98038 0.47878 0.22246 0.0
H1768 H 0.96863 0.43339 0.22112 0.0
H1769 H 0.91321 0.44634 0.27298 0.0
C1770 C 0.92905 0.54669 0.26914 0.0
C1771 C 0.94063 0.56517 0.2558 0.0
C1772 C 0.96027 0.55816 0.24104 0.0
C1773 C 0.96699 0.53268 0.23847 0.0
C1774 C 0.95419 0.51462 0.25109 0.0
C1775 C 0.936 0.52151 0.26655 0.0
C1776 C 0.92277 0.49882 0.27617 0.0
C1777 C 0.92864 0.49598 0.30124 0.0
C1778 C 0.89416 0.49993 0.27195 0.0
C1779 C 0.93508 0.47817 0.26275 0.0
C1780 C 0.95361 0.48731 0.24871 0.0
C1781 C 0.96621 0.47145 0.2337 0.0
C1782 C 0.95942 0.44577 0.23296 0.0
C1783 C 0.93984 0.4366 0.24673 0.0
C1784 C 0.92808 0.45296 0.26206 0.0
H1785 H 0.70586 0.67702 0.47037 0.0
H1786 H 0.68287 0.70439 0.53539 0.0
H1787 H 0.7269 0.71765 0.54304 0.0
H1788 H 0.75779 0.64841 0.48608 0.0
H1789 H 0.77689 0.65569 0.46201 0.0
H1790 H 0.74329 0.65503 0.45944 0.0
H1791 H 0.74338 0.7007 0.44437 0.0
H1792 H 0.77724 0.70144 0.44668 0.0
H1793 H 0.75849 0.72523 0.46028 0.0
H1794 H 0.77381 0.71792 0.54681 0.0
H1795 H 0.81867 0.70559 0.54651 0.0
H1796 H 0.81123 0.67904 0.47848 0.0
C1797 C 0.70997 0.68678 0.48584 0.0
C1798 C 0.6912 0.68996 0.50227 0.0
C1799 C 0.69706 0.70225 0.52252 0.0
C1800 C 0.72198 0.70982 0.52692 0.0
C1801 C 0.74043 0.70539 0.51065 0.0
C1802 C 0.73454 0.69453 0.4903 0.0
C1803 C 0.75791 0.68841 0.47685 0.0
C1804 C 0.75902 0.66023 0.47077 0.0
C1805 C 0.75934 0.70494 0.4558 0.0
C1806 C 0.77812 0.69556 0.4935 0.0
C1807 C 0.76769 0.70599 0.51267 0.0
C1808 C 0.78223 0.71068 0.53163 0.0
C1809 C 0.80768 0.70366 0.53133 0.0
C1810 C 0.81832 0.69218 0.5122 0.0
C1811 C 0.80365 0.68889 0.49284 0.0
H1812 H 0.40464 0.55002 0.28213 0.0
H1813 H 0.46613 0.57185 0.23859 0.0
H1814 H 0.48216 0.52785 0.23952 0.0
H1815 H 0.43964 0.50329 0.31575 0.0
H1816 H 0.4125 0.48304 0.31757 0.0
H1817 H 0.40845 0.51666 0.31577 0.0
H1818 H 0.3798 0.51109 0.28095 0.0
H1819 H 0.38351 0.47761 0.28286 0.0
H1820 H 0.39142 0.49363 0.25723 0.0
H1821 H 0.48778 0.47969 0.24187 0.0
H1822 H 0.48078 0.43362 0.24318 0.0
H1823 H 0.41574 0.4451 0.28556 0.0
C1824 C 0.4217 0.54576 0.27296 0.0
C1825 C 0.43407 0.56432 0.26016 0.0
C1826 C 0.45638 0.55789 0.24853 0.0
C1827 C 0.46564 0.533 0.24908 0.0
C1828 C 0.45261 0.51502 0.26167 0.0
C1829 C 0.43116 0.52133 0.27348 0.0
C1830 C 0.41906 0.49863 0.2842 0.0
C1831 C 0.41998 0.50053 0.30985 0.0
C1832 C 0.39186 0.49503 0.27579 0.0
C1833 C 0.43631 0.47814 0.27578 0.0
C1834 C 0.45593 0.48784 0.26321 0.0
C1835 C 0.47284 0.47202 0.25211 0.0
C1836 C 0.46889 0.44584 0.25312 0.0
C1837 C 0.44797 0.43588 0.26485 0.0
C1838 C 0.43221 0.45224 0.27697 0.0
H1839 H 0.30982 0.64582 0.01985 0.0
H1840 H 0.32356 0.7202 0.99291 0.0
H1841 H 0.27744 0.72747 0.99059 0.0
H1842 H 0.26288 0.63063 0.98355 0.0
H1843 H 0.24448 0.61257 0.00313 0.0
H1844 H 0.27793 0.61536 0.00692 0.0
H1845 H 0.2714 0.63322 0.04689 0.0
H1846 H 0.23787 0.62987 0.04349 0.0
H1847 H 0.25103 0.65997 0.05096 0.0
H1848 H 0.22845 0.72396 0.98776 0.0
H1849 H 0.1836 0.71048 0.98579 0.0
H1850 H 0.20488 0.63728 0.01165 0.0
C1851 C 0.30319 0.66402 0.01421 0.0
C1852 C 0.32025 0.68257 0.00688 0.0
C1853 C 0.31081 0.70594 -0.00086 0.0
C1854 C 0.28462 0.7101 -0.00244 0.0
C1855 C 0.26827 0.69073 0.00383 0.0
C1856 C 0.27739 0.66826 0.01224 0.0
C1857 C 0.25663 0.64933 0.01583 0.0
C1858 C 0.26074 0.62559 0.0015 0.0
C1859 C 0.25408 0.64272 0.04077 0.0
C1860 C 0.23432 0.6643 0.00769 0.0
C1861 C 0.24106 0.68829 0.00113 0.0
C1862 C 0.22309 0.70521 0.99294 0.0
C1863 C 0.19771 0.69738 0.99173 0.0
C1864 C 0.19075 0.6727 -0.00179 0.0
C1865 C 0.20948 0.65615 0.00618 0.0
H1866 H 0.1044 0.45265 0.77327 0.0
H1867 H 0.04488 0.43854 0.72534 0.0
H1868 H 0.03351 0.48406 0.72638 0.0
H1869 H 0.07103 0.50131 0.80585 0.0
H1870 H 0.09975 0.51856 0.81057 0.0
H1871 H 0.1006 0.48481 0.80766 0.0
H1872 H 0.13308 0.48898 0.77545 0.0
H1873 H 0.13244 0.52258 0.77836 0.0
H1874 H 0.12563 0.50841 0.75164 0.0
H1875 H 0.0328 0.53281 0.72993 0.0
H1876 H 0.04342 0.57795 0.73445 0.0
H1877 H 0.1029 0.55803 0.7807 0.0
C1878 C 0.08881 0.459 0.76305 0.0
C1879 C 0.07571 0.4422 0.74896 0.0
C1880 C 0.05517 0.45119 0.7362 0.0
C1881 C 0.04859 0.47696 0.73678 0.0
C1882 C 0.06238 0.49316 0.75063 0.0
C1883 C 0.08191 0.48427 0.76369 0.0
C1884 C 0.09505 0.50517 0.77619 0.0
C1885 C 0.09138 0.50229 0.80157 0.0
C1886 C 0.1232 0.50635 0.77002 0.0
C1887 C 0.08081 0.52763 0.76737 0.0
C1888 C 0.06167 0.52051 0.75297 0.0
C1889 C 0.04738 0.53845 0.74154 0.0
C1890 C 0.05339 0.5641 0.74435 0.0
C1891 C 0.07375 0.57146 0.75823 0.0
C1892 C 0.08696 0.55296 0.77034 0.0
H1893 H 0.30941 0.34807 0.46623 0.0
H1894 H 0.32087 0.27611 0.49869 0.0
H1895 H 0.2746 0.26993 0.50045 0.0
H1896 H 0.26106 0.36749 0.49948 0.0
H1897 H 0.24382 0.38364 0.47784 0.0
H1898 H 0.27735 0.38006 0.47551 0.0
H1899 H 0.2722 0.35827 0.43694 0.0
H1900 H 0.23858 0.36221 0.43893 0.0
H1901 H 0.25173 0.33137 0.43439 0.0
H1902 H 0.22581 0.27466 0.5022 0.0
H1903 H 0.18125 0.2893 0.50268 0.0
H1904 H 0.20435 0.35876 0.47069 0.0
C1905 C 0.30225 0.33061 0.47306 0.0
C1906 C 0.3187 0.31246 0.48207 0.0
C1907 C 0.30859 0.29005 0.49124 0.0
C1908 C 0.28231 0.28649 0.49246 0.0
C1909 C 0.26654 0.30542 0.48428 0.0
C1910 C 0.27632 0.32689 0.47449 0.0
C1911 C 0.25597 0.34556 0.46867 0.0
C1912 C 0.25979 0.37065 0.48112 0.0
C1913 C 0.25453 0.34958 0.44322 0.0
C1914 C 0.23316 0.3317 0.47723 0.0
C1915 C 0.2393 0.30842 0.48593 0.0
C1916 C 0.22088 0.2928 0.49526 0.0
C1917 C 0.19567 0.30126 0.49557 0.0
C1918 C 0.18935 0.32528 0.48698 0.0
C1919 C 0.20847 0.34042 0.47766 0.0
H1920 H 0.01015 0.30838 0.29973 0.0
H1921 H 0.96827 0.31219 0.23751 0.0
H1922 H 0.98222 0.26931 0.22795 0.0
H1923 H 0.06366 0.2759 0.27608 0.0
H1924 H 0.06935 0.25751 0.3009 0.0
H1925 H 0.05496 0.28807 0.30315 0.0
H1926 H 0.01745 0.26809 0.3244 0.0
H1927 H 0.03152 0.23738 0.32175 0.0
H1928 H 1.00004 0.24279 0.31159 0.0
H1929 H 1.00067 0.22561 0.22507 0.0
H1930 H 0.02737 0.18732 0.22666 0.0
H1931 H 0.05878 0.21268 0.28956 0.0
C1932 C 0.00399 0.30028 0.28404 0.0
C1933 C 0.98748 0.31353 0.26965 0.0
C1934 C 0.9802 0.30223 0.24916 0.0
C1935 C 0.98809 0.27783 0.24354 0.0
C1936 C 0.00362 0.26497 0.25842 0.0
C1937 C 0.01195 0.27599 0.27803 0.0
C1938 C 0.02981 0.25866 0.29045 0.0
C1939 C 0.05599 0.27075 0.29277 0.0
C1940 C 0.01905 0.2513 0.31341 0.0
C1941 C 0.03033 0.23627 0.2747 0.0
C1942 C 0.01477 0.24009 0.25649 0.0
C1943 C 0.01275 0.22232 0.23935 0.0
C1944 C 0.0277 0.20051 0.24047 0.0
C1945 C 0.04443 0.19681 0.25853 0.0
C1946 C 0.04546 0.21473 0.27596 0.0
H1947 H 0.03232 0.78364 0.53083 0.0
H1948 H 0.08532 0.7533 0.48271 0.0
H1949 H 0.05359 0.72143 0.47136 0.0
H1950 H 0.00377 0.72287 0.54678 0.0
H1951 H 0.97298 0.73668 0.54995 0.0
H1952 H 1.00069 0.75529 0.55522 0.0
H1953 H 0.98492 0.78828 0.52658 0.0
H1954 H 0.95749 0.76949 0.52083 0.0
H1955 H 0.97812 0.77861 0.49831 0.0
H1956 H 0.01436 0.69556 0.46311 0.0
H1957 H 0.97341 0.67376 0.46198 0.0
H1958 H 0.94618 0.72107 0.51601 0.0
C1959 C 0.03747 0.76995 0.5182 0.0
C1960 C 0.06132 0.77086 0.50764 0.0
C1961 C 0.06732 0.7527 0.4912 0.0
C1962 C 0.0493 0.73473 0.48453 0.0
C1963 C 0.02557 0.73506 0.49469 0.0
C1964 C 0.01986 0.75187 0.51154 0.0
C1965 C 0.993 0.74857 0.5197 0.0
C1966 C 0.99259 0.74036 0.54437 0.0
C1967 C 0.97748 0.77267 0.51613 0.0
C1968 C 0.98414 0.7276 0.50446 0.0
C1969 C 0.0032 0.7201 0.49013 0.0
C1970 C 0.99945 0.70115 0.4744 0.0
C1971 C 0.97601 0.68897 0.47382 0.0
C1972 C 0.95646 0.69567 0.48887 0.0
C1973 C 0.96055 0.71565 0.50409 0.0
H1974 H 0.45695 0.7789 0.78083 0.0
H1975 H 0.48765 0.8359 0.73674 0.0
H1976 H 0.52187 0.80654 0.72591 0.0
H1977 H 0.51872 0.75371 0.79925 0.0
H1978 H 0.50705 0.72192 0.80082 0.0
H1979 H 0.48611 0.74799 0.80586 0.0
H1980 H 0.45626 0.73109 0.7751 0.0
H1981 H 0.4774 0.70532 0.76962 0.0
H1982 H 0.46822 0.72609 0.74722 0.0
H1983 H 0.5497 0.76968 0.71707 0.0
H1984 H 0.57455 0.73076 0.71545 0.0
H1985 H 0.52751 0.69764 0.76702 0.0
C1986 C 0.4712 0.78536 0.76922 0.0
C1987 C 0.46973 0.8097 0.75958 0.0
C1988 C 0.48863 0.8175 0.74448 0.0
C1989 C 0.50794 0.80084 0.7381 0.0
C1990 C 0.50829 0.77666 0.74731 0.0
C1991 C 0.49083 0.76915 0.76302 0.0
C1992 C 0.49566 0.74223 0.77058 0.0
C1993 C 0.50229 0.74142 0.79561 0.0
C1994 C 0.47303 0.72518 0.76531 0.0
C1995 C 0.51824 0.73546 0.75621 0.0
C1996 C 0.52499 0.75561 0.74282 0.0
C1997 C 0.54481 0.75397 0.72772 0.0
C1998 C 0.55875 0.73163 0.72687 0.0
C1999 C 0.55315 0.71105 0.74117 0.0
C2000 C 0.53219 0.71287 0.75573 0.0
H2001 H 0.43094 0.23709 0.01236 0.0
H2002 H 0.46099 0.18451 0.96361 0.0
H2003 H 0.50117 0.20733 0.9634 0.0
H2004 H 0.46368 0.29345 0.98883 0.0
H2005 H 0.46925 0.30693 0.01606 0.0
H2006 H 0.44197 0.28747 0.01139 0.0
H2007 H 0.45565 0.25886 0.04423 0.0
H2008 H 0.48322 0.27792 0.04872 0.0
H2009 H 0.48646 0.24462 0.04383 0.0
H2010 H 0.53977 0.23211 0.97157 0.0
H2011 H 0.57246 0.26286 0.98257 0.0
H2012 H 0.51783 0.30185 0.02392 0.0
C2013 C 0.44571 0.23093 0.00115 0.0
C2014 C 0.44276 0.20893 0.98802 0.0
C2015 C 0.46278 0.20121 0.97389 0.0
C2016 C 0.48578 0.21399 0.9737 0.0
C2017 C 0.48859 0.23482 0.98751 0.0
C2018 C 0.46899 0.24374 0.00056 0.0
C2019 C 0.47743 0.26663 0.01387 0.0
C2020 C 0.46218 0.29001 0.00713 0.0
C2021 C 0.47557 0.2617 0.03916 0.0
C2022 C 0.50476 0.2688 0.00642 0.0
C2023 C 0.51083 0.24999 0.99146 0.0
C2024 C 0.53518 0.24721 0.98302 0.0
C2025 C 0.5537 0.26458 0.98951 0.0
C2026 C 0.54768 0.28474 0.004 0.0
C2027 C 0.52291 0.28669 0.01268 0.0
H2028 H 0.98315 0.69981 0.26838 0.0
H2029 H 0.97738 0.68064 0.19806 0.0
H2030 H 0.99352 0.72289 0.188 0.0
H2031 H 0.9611 0.7623 0.26258 0.0
H2032 H 0.98155 0.77522 0.28372 0.0
H2033 H 0.97176 0.74284 0.28538 0.0
H2034 H 0.01837 0.72842 0.28663 0.0
H2035 H 0.0283 0.76078 0.28532 0.0
H2036 H 0.03968 0.73851 0.26495 0.0
H2037 H 0.01039 0.76791 0.18591 0.0
H2038 H 0.0261 0.8113 0.19203 0.0
H2039 H 0.01742 0.80151 0.26361 0.0
C2040 C 0.98589 0.70424 0.25087 0.0
C2041 C 0.97949 0.68673 0.23399 0.0
C2042 C 0.98251 0.69364 0.21126 0.0
C2043 C 0.99155 0.71763 0.2054 0.0
C2044 C 0.99715 0.73466 0.22247 0.0
C2045 C 0.99441 0.72823 0.24475 0.0
C2046 C 1.00049 0.75026 0.2599 0.0
C2047 C 0.97734 0.75811 0.27371 0.0
C2048 C 0.02305 0.74413 0.27509 0.0
C2049 C 0.00719 0.77012 0.24275 0.0
C2050 C 0.00536 0.76077 0.22123 0.0
C2051 C 0.01165 0.77545 0.20269 0.0
C2052 C 0.02043 0.80011 0.2063 0.0
C2053 C 0.02249 0.80999 0.22824 0.0
C2054 C 0.01541 0.79479 0.2466 0.0
H2055 H 0.54407 0.72511 0.44204 0.0
H2056 H 0.57352 0.7218 0.50952 0.0
H2057 H 0.53624 0.74526 0.52316 0.0
H2058 H 0.51348 0.78935 0.44749 0.0
H2059 H 0.4875 0.77981 0.43006 0.0
H2060 H 0.51838 0.76672 0.42544 0.0
H2061 H 0.49965 0.72196 0.42925 0.0
H2062 H 0.4689 0.73481 0.43454 0.0
H2063 H 0.48296 0.71355 0.45442 0.0
H2064 H 0.49215 0.76157 0.53008 0.0
H2065 H 0.44824 0.77678 0.5292 0.0
H2066 H 0.44818 0.77159 0.45678 0.0
C2067 C 0.54322 0.73044 0.45952 0.0
C2068 C 0.56188 0.72211 0.4747 0.0
C2069 C 0.55983 0.72865 0.49755 0.0
C2070 C 0.53853 0.74168 0.50545 0.0
C2071 C 0.51977 0.7484 0.49019 0.0
C2072 C 0.52231 0.74373 0.46756 0.0
C2073 C 0.4989 0.75163 0.45479 0.0
C2074 C 0.50493 0.77316 0.43848 0.0
C2075 C 0.48691 0.72915 0.44253 0.0
C2076 C 0.48235 0.76062 0.47382 0.0
C2077 C 0.49468 0.75848 0.49412 0.0
C2078 C 0.48255 0.76381 0.51424 0.0
C2079 C 0.45746 0.77214 0.51357 0.0
C2080 C 0.44473 0.77532 0.49292 0.0
C2081 C 0.45745 0.76945 0.47281 0.0
H2082 H 0.45663 0.23382 0.69741 0.0
H2083 H 0.48188 0.18143 0.74829 0.0
H2084 H 0.51503 0.21164 0.75961 0.0
H2085 H 0.52022 0.25721 0.68245 0.0
H2086 H 0.509 0.28874 0.67757 0.0
H2087 H 0.48849 0.2623 0.67275 0.0
H2088 H 0.45567 0.28208 0.69952 0.0
H2089 H 0.47636 0.30825 0.70485 0.0
H2090 H 0.46468 0.28964 0.72782 0.0
H2091 H 0.54191 0.24893 0.76794 0.0
H2092 H 0.56718 0.28756 0.76856 0.0
H2093 H 0.52652 0.31589 0.71082 0.0
C2094 C 0.46953 0.22849 0.71062 0.0
C2095 C 0.46678 0.20524 0.72201 0.0
C2096 C 0.48388 0.19893 0.7392 0.0
C2097 C 0.50255 0.21612 0.74587 0.0
C2098 C 0.50406 0.23928 0.7349 0.0
C2099 C 0.4885 0.24524 0.71722 0.0
C2100 C 0.49432 0.27136 0.70812 0.0
C2101 C 0.50357 0.2698 0.68378 0.0
C2102 C 0.47139 0.28886 0.71021 0.0
C2103 C 0.51533 0.27942 0.72378 0.0
C2104 C 0.52033 0.26063 0.7392 0.0
C2105 C 0.53843 0.26356 0.75574 0.0
C2106 C 0.5526 0.2857 0.75598 0.0
C2107 C 0.54897 0.30474 0.73966 0.0
C2108 C 0.52959 0.30183 0.72363 0.0
H2109 H 0.04957 0.25656 0.01189 0.0
H2110 H 0.04382 0.21887 0.94772 0.0
H2111 H 1.00054 0.23535 0.94325 0.0
H2112 H 0.98617 0.24561 0.02965 0.0
H2113 H 0.98303 0.27584 0.04304 0.0
H2114 H 0.0135 0.26112 0.04101 0.0
H2115 H 0.03141 0.30054 0.02102 0.0
H2116 H 1.00118 0.31555 0.02345 0.0
H2117 H 0.01581 0.31238 -0.00361 0.0
H2118 H 0.95668 0.25671 0.94625 0.0
H2119 H 0.91992 0.28409 0.95466 0.0
H2120 H 0.95518 0.30642 0.01693 0.0
C2121 C 0.0394 0.2519 -0.00325 0.0
C2122 C 0.0503 0.23635 0.98017 0.0
C2123 C 0.03605 0.23073 0.96071 0.0
C2124 C 0.01131 0.2399 0.95807 0.0
C2125 C 1.00094 0.25467 0.97506 0.0
C2126 C 0.01475 0.2608 0.9939 0.0
C2127 C 0.99977 0.27737 0.0096 0.0
C2128 C 0.99536 0.26419 0.03216 0.0
C2129 C 0.01281 0.30297 0.01279 0.0
C2130 C 0.97544 0.27996 -0.00339 0.0
C2131 C 0.97619 0.26658 0.9768 0.0
C2132 C 0.95593 0.2671 0.96181 0.0
C2133 C 0.93495 0.28246 0.96681 0.0
C2134 C 0.93454 0.29721 0.98655 0.0
C2135 C 0.95478 0.29517 0.00182 0.0
H2136 H 0.98512 0.8145 0.75368 0.0
H2137 H 0.93154 0.78439 0.70593 0.0
H2138 H 0.95774 0.74659 0.70114 0.0
H2139 H 0.04227 0.78902 0.72562 0.0
H2140 H 0.0577 0.78206 0.75176 0.0
H2141 H 0.0358 0.80788 0.75003 0.0
H2142 H 0.01021 0.78869 0.78272 0.0
H2143 H 0.03179 0.76262 0.7843 0.0
H2144 H 0.99863 0.75691 0.78042 0.0
H2145 H 0.9876 0.71005 0.70387 0.0
H2146 H 0.02186 0.67946 0.71124 0.0
H2147 H 0.05645 0.73287 0.75677 0.0
C2148 C 0.97936 0.80023 0.7418 0.0
C2149 C 0.95631 0.80241 0.73016 0.0
C2150 C 0.9491 0.78307 0.71509 0.0
C2151 C 0.96383 0.76147 0.71225 0.0
C2152 C 0.98591 0.75932 0.72456 0.0
C2153 C 0.99392 0.77829 0.73879 0.0
C2154 C 0.01811 0.77067 0.75049 0.0
C2155 C 0.03975 0.78846 0.74408 0.0
C2156 C 0.01445 0.76967 0.77599 0.0
C2157 C 0.02211 0.74451 0.74082 0.0
C2158 C 0.00329 0.73827 0.72594 0.0
C2159 C 1.00261 0.7148 0.71536 0.0
C2160 C 0.02201 0.69744 0.71976 0.0
C2161 C 0.04186 0.70372 0.73451 0.0
C2162 C 0.04163 0.72752 0.74527 0.0
H2163 H 0.95048 0.23949 0.51826 0.0
H2164 H 0.93718 0.23077 0.44707 0.0
H2165 H 0.97988 0.24731 0.43932 0.0
H2166 H 0.98727 0.29688 0.51537 0.0
H2167 H 0.00817 0.28733 0.53754 0.0
H2168 H 0.97619 0.27611 0.53707 0.0
H2169 H 0.99247 0.23017 0.53844 0.0
H2170 H 0.02452 0.24123 0.5386 0.0
H2171 H 0.01426 0.21938 0.5174 0.0
H2172 H 0.02475 0.26457 0.43963 0.0
H2173 H 0.06695 0.28199 0.44786 0.0
H2174 H 0.0511 0.27755 0.51893 0.0
C2175 C 0.95629 0.24149 0.501 0.0
C2176 C 0.94027 0.23408 0.48325 0.0
C2177 C 0.94899 0.23649 0.46094 0.0
C2178 C 0.97327 0.24578 0.45639 0.0
C2179 C 0.98875 0.25239 0.47433 0.0
C2180 C 0.98052 0.25041 0.49619 0.0
C2181 C 1.00096 0.25807 0.51253 0.0
C2182 C 0.99265 0.28096 0.52644 0.0
C2183 C 0.00849 0.23589 0.52763 0.0
C2184 C 0.022 0.26485 0.49651 0.0
C2185 C 0.01461 0.26149 0.47453 0.0
C2186 C 0.03069 0.26717 0.45679 0.0
C2187 C 0.05467 0.27702 0.46163 0.0
C2188 C 0.06248 0.28096 0.48404 0.0
C2189 C 0.04595 0.27435 0.50163 0.0
H2190 H 0.49314 0.30252 0.27498 0.0
H2191 H 0.48441 0.31586 0.20376 0.0
H2192 H 0.49773 0.27219 0.19608 0.0
H2193 H 0.54842 0.2626 0.27101 0.0
H2194 H 0.53845 0.24236 0.29351 0.0
H2195 H 0.52889 0.27486 0.29314 0.0
H2196 H 0.4822 0.26106 0.29568 0.0
H2197 H 0.49158 0.22848 0.29571 0.0
H2198 H 0.46966 0.23979 0.275 0.0
H2199 H 0.51091 0.22641 0.19624 0.0
H2200 H 0.5261 0.18337 0.20404 0.0
H2201 H 0.52639 0.19996 0.27515 0.0
C2202 C 0.49443 0.29646 0.25772 0.0
C2203 C 0.48781 0.3128 0.23996 0.0
C2204 C 0.48941 0.30383 0.21767 0.0
C2205 C 0.49687 0.27897 0.21313 0.0
C2206 C 0.50268 0.26323 0.23105 0.0
C2207 C 0.50177 0.27169 0.25289 0.0
C2208 C 0.50887 0.25096 0.26915 0.0
C2209 C 0.53257 0.25812 0.28248 0.0
C2210 C 0.48676 0.24471 0.2848 0.0
C2211 C 0.51407 0.22952 0.25305 0.0
C2212 C 0.51024 0.23694 0.23115 0.0
C2213 C 0.51408 0.22046 0.21332 0.0
C2214 C 0.52271 0.19602 0.21793 0.0
C2215 C 0.52758 0.18823 0.2402 0.0
C2216 C 0.52267 0.20517 0.25795 0.0
H2217 H 0.53313 0.80784 0.01948 0.0
H2218 H 0.57102 0.77977 0.96034 0.0
H2219 H 0.53459 0.75176 0.95263 0.0
H2220 H 0.50307 0.74752 0.03549 0.0
H2221 H 0.47514 0.76325 0.04538 0.0
H2222 H 0.50519 0.77885 0.04691 0.0
H2223 H 0.48671 0.81633 0.02462 0.0
H2224 H 0.4568 0.80062 0.0225 0.0
H2225 H 0.47285 0.81079 -0.00247 0.0
H2226 H 0.4914 0.7306 0.94942 0.0
H2227 H 0.44866 0.71332 0.95376 0.0
H2228 H 0.43973 0.75476 0.01579 0.0
C2229 C 0.53405 0.79524 0.00525 0.0
C2230 C 0.55493 0.79575 0.99059 0.0
C2231 C 0.5554 0.77929 0.97199 0.0
C2232 C 0.53467 0.76357 0.96738 0.0
C2233 C 0.51387 0.76432 0.98174 0.0
C2234 C 0.51375 0.77933 0.0006 0.0
C2235 C 0.48908 0.77718 0.01321 0.0
C2236 C 0.49338 0.76603 0.03664 0.0
C2237 C 0.47558 0.80275 0.01453 0.0
C2238 C 0.47496 0.75902 -0.00172 0.0
C2239 C 0.48948 0.75191 0.98014 0.0
C2240 C 0.48005 0.73587 0.96371 0.0
C2241 C 0.45553 0.72632 0.96623 0.0
C2242 C 0.44059 0.73265 0.9851 0.0
C2243 C 0.45053 0.74949 0.00116 0.0
H2244 H 0.99709 0.19976 0.72438 0.0
H2245 H 0.9871 0.18863 0.79572 0.0
H2246 H 1.00138 0.23225 0.8026 0.0
H2247 H 0.05294 0.23974 0.72781 0.0
H2248 H 0.04306 0.25926 0.70477 0.0
H2249 H 0.03362 0.22674 0.70586 0.0
H2250 H 0.9869 0.24035 0.7027 0.0
H2251 H 0.99616 0.27293 0.70196 0.0
H2252 H 0.97413 0.26219 0.7228 0.0
H2253 H 0.01577 0.27793 0.80147 0.0
H2254 H 0.03074 0.32082 0.79256 0.0
H2255 H 0.03 0.30229 0.72187 0.0
C2256 C 0.99847 0.20623 0.74152 0.0
C2257 C 0.99118 0.19058 0.75955 0.0
C2258 C 0.99268 0.20016 0.78164 0.0
C2259 C 1.0007 0.22497 0.78571 0.0
C2260 C 0.00708 0.2401 0.7675 0.0
C2261 C 0.0062 0.23101 0.74585 0.0
C2262 C 0.01332 0.25129 0.72915 0.0
C2263 C 0.03715 0.24381 0.71613 0.0
C2264 C 0.99131 0.25702 0.71321 0.0
C2265 C 0.01834 0.27323 0.74474 0.0
C2266 C 0.01469 0.26641 0.76681 0.0
C2267 C 0.01866 0.28343 0.78424 0.0
C2268 C 0.0271 0.30781 0.77901 0.0
C2269 C 0.03139 0.3151 0.75652 0.0
C2270 C 0.02652 0.29756 0.73922 0.0
H2271 H 0.45311 0.2475 0.54396 0.0
H2272 H 0.43232 0.27123 0.47719 0.0
H2273 H 0.47597 0.26357 0.46427 0.0
H2274 H 0.5163 0.27258 0.54466 0.0
H2275 H 0.52951 0.24611 0.55939 0.0
H2276 H 0.497 0.25455 0.56358 0.0
H2277 H 0.48335 0.20945 0.55255 0.0
H2278 H 0.51582 0.20084 0.54838 0.0
H2279 H 0.49337 0.19658 0.5261 0.0
H2280 H 0.52188 0.25277 0.45868 0.0
H2281 H 0.56542 0.23675 0.4598 0.0
H2282 H 0.55647 0.21911 0.53026 0.0
C2283 C 0.45783 0.25111 0.52663 0.0
C2284 C 0.43964 0.26089 0.51167 0.0
C2285 C 0.44632 0.26489 0.48907 0.0
C2286 C 0.47098 0.26033 0.48158 0.0
C2287 C 0.48868 0.2513 0.49687 0.0
C2288 C 0.48235 0.24644 0.51887 0.0
C2289 C 0.50466 0.2358 0.53165 0.0
C2290 C 0.51232 0.25331 0.55096 0.0
C2291 C 0.49895 0.20909 0.54017 0.0
C2292 C 0.52453 0.23542 0.51341 0.0
C2293 C 0.51494 0.24455 0.49351 0.0
C2294 C 0.52957 0.24561 0.47418 0.0
C2295 C 0.5544 0.23656 0.47504 0.0
C2296 C 0.5645 0.22642 0.49507 0.0
C2297 C 0.54937 0.22641 0.5146 0.0
H2298 H 0.55293 0.76863 0.2814 0.0
H2299 H 0.51601 0.83082 0.24786 0.0
H2300 H 0.48067 0.80264 0.23761 0.0
H2301 H 0.53754 0.72122 0.24357 0.0
H2302 H 0.53161 0.69703 0.26404 0.0
H2303 H 0.55307 0.72227 0.27038 0.0
H2304 H 0.52732 0.73363 0.30574 0.0
H2305 H 0.50605 0.70808 0.29978 0.0
H2306 H 0.49401 0.73955 0.30327 0.0
H2307 H 0.45268 0.76676 0.22696 0.0
H2308 H 0.42901 0.72764 0.22208 0.0
H2309 H 0.4821 0.68836 0.26498 0.0
C2310 C 0.53706 0.77643 0.27238 0.0
C2311 C 0.53703 0.80194 0.26549 0.0
C2312 C 0.51614 0.81149 0.25359 0.0
C2313 C 0.49616 0.79554 0.24752 0.0
C2314 C 0.4972 0.77027 0.25391 0.0
C2315 C 0.51674 0.7609 0.26663 0.0
C2316 C 0.51322 0.73299 0.27132 0.0
C2317 C 0.53517 0.71747 0.26175 0.0
C2318 C 0.50995 0.72829 0.29653 0.0
C2319 C 0.48898 0.7279 0.25868 0.0
C2320 C 0.48029 0.74969 0.24863 0.0
C2321 C 0.45902 0.74973 0.23513 0.0
C2322 C 0.44576 0.72721 0.23238 0.0
C2323 C 0.45344 0.70473 0.24331 0.0
C2324 C 0.47563 0.70511 0.25644 0.0
H2325 H 0.02759 0.70023 0.02997 0.0
H2326 H 0.08521 0.73622 0.98986 0.0
H2327 H 0.05561 0.77101 0.98131 0.0
H2328 H 0.97541 0.71452 -0.00351 0.0
H2329 H 0.95394 0.72105 0.01912 0.0
H2330 H 0.97987 0.69972 0.02334 0.0
H2331 H 0.9956 0.72634 0.0568 0.0
H2332 H 0.96941 0.74748 0.053 0.0
H2333 H 1.00112 0.75954 0.05307 0.0
H2334 H 0.01864 0.79858 0.97363 0.0
H2335 H 0.9794 0.82262 0.97256 0.0
H2336 H 0.94554 0.77107 0.02028 0.0
C2337 C 0.0341 0.71579 0.0198 0.0
C2338 C 0.05869 0.71576 0.01062 0.0
C2339 C 0.06661 0.73619 -0.0027 0.0
C2340 C 0.04983 0.75583 0.9922 0.0
C2341 C 0.02544 0.75489 0.00096 0.0
C2342 C 0.01778 0.73579 0.01499 0.0
C2343 C 0.9906 0.73952 0.02238 0.0
C2344 C 0.97398 0.71738 0.01488 0.0
C2345 C 0.9891 0.74346 0.04782 0.0
C2346 C 0.9839 0.76343 0.00982 0.0
C2347 C 0.00431 0.77167 -0.00259 0.0
C2348 C 1.00275 0.79261 0.98365 0.0
C2349 C 0.98018 0.80611 0.98315 0.0
C2350 C 0.95927 0.79905 -0.00341 0.0
C2351 C 0.96107 0.77704 0.00983 0.0
H2352 H 0.13062 0.26362 0.41916 0.0
H2353 H 0.18264 0.31432 0.38614 0.0
H2354 H 0.19321 0.28099 0.35901 0.0
H2355 H 0.16752 0.2036 0.40837 0.0
H2356 H 0.13873 0.18631 0.4041 0.0
H2357 H 0.13953 0.21219 0.42362 0.0
H2358 H 0.10229 0.23331 0.40273 0.0
H2359 H 0.10138 0.20761 0.38334 0.0
H2360 H 0.105 0.23931 0.37314 0.0
H2361 H 0.19192 0.24533 0.33165 0.0
H2362 H 0.17715 0.21174 0.3061 0.0
H2363 H 0.1276 0.18382 0.35793 0.0
C2364 C 0.14498 0.26748 0.40682 0.0
C2365 C 0.15574 0.29163 0.40483 0.0
C2366 C 0.17388 0.29606 0.38789 0.0
C2367 C 0.18028 0.27712 0.37257 0.0
C2368 C 0.1687 0.25371 0.37462 0.0
C2369 C 0.15158 0.2488 0.3915 0.0
C2370 C 0.13914 0.22349 0.38842 0.0
C2371 C 0.1467 0.20532 0.40725 0.0
C2372 C 0.11027 0.22612 0.38679 0.0
C2373 C 0.15062 0.21565 0.36636 0.0
C2374 C 0.16817 0.23294 0.35891 0.0
C2375 C 0.17877 0.23129 0.33757 0.0
C2376 C 0.17038 0.21215 0.32319 0.0
C2377 C 0.1514 0.19531 0.33022 0.0
C2378 C 0.14239 0.19638 0.35237 0.0
H2379 H 0.04312 0.84277 0.59075 0.0
H2380 H 0.0937 0.907 0.5922 0.0
H2381 H 0.06757 0.9263 0.62186 0.0
H2382 H 0.98602 0.87453 0.60114 0.0
H2383 H 0.97368 0.85013 0.61896 0.0
H2384 H 0.99564 0.84231 0.59711 0.0
H2385 H 0.02517 0.82127 0.62618 0.0
H2386 H 0.00324 0.82888 0.64812 0.0
H2387 H 0.03553 0.83904 0.65016 0.0
H2388 H 0.03458 0.93862 0.65122 0.0
H2389 H 0.99994 0.94105 0.67918 0.0
H2390 H 0.97516 0.86656 0.66003 0.0
C2391 C 0.04918 0.86069 0.59745 0.0
C2392 C 0.07064 0.87323 0.58912 0.0
C2393 C 0.07718 0.89708 0.59805 0.0
C2394 C 0.06255 0.90814 0.615 0.0
C2395 C 0.0417 0.89494 0.62294 0.0
C2396 C 0.03529 0.87159 0.61456 0.0
C2397 C 0.01272 0.8606 0.62628 0.0
C2398 C 0.99072 0.85668 0.6099 0.0
C2399 C 0.01959 0.836 0.6384 0.0
C2400 C 0.00724 0.88144 0.64263 0.0
C2401 C 0.02386 0.9013 0.64036 0.0
C2402 C 0.02167 0.92305 0.65329 0.0
C2403 C 1.00205 0.92433 0.66901 0.0
C2404 C 0.98543 0.90379 0.6718 0.0
C2405 C 0.98809 0.88221 0.65844 0.0
H2406 H 0.37263 0.82721 0.86092 0.0
H2407 H 0.33172 0.79346 0.8059 0.0
H2408 H 0.31291 0.76261 0.83191 0.0
H2409 H 0.39162 0.77469 0.88467 0.0
H2410 H 0.38854 0.78392 0.91357 0.0
H2411 H 0.39307 0.80745 0.89246 0.0
H2412 H 0.35229 0.83023 0.90493 0.0
H2413 H 0.34774 0.80687 0.92643 0.0
H2414 H 0.32313 0.81298 0.9064 0.0
H2415 H 0.30737 0.73007 0.86119 0.0
H2416 H 0.31359 0.69967 0.8915 0.0
H2417 H 0.35675 0.75527 0.92846 0.0
C2418 C 0.35894 0.81389 0.8546 0.0
C2419 C 0.3535 0.81259 0.83154 0.0
C2420 C 0.33579 0.79486 0.82361 0.0
C2421 C 0.32505 0.77732 0.83827 0.0
C2422 C 0.33185 0.7782 0.8608 0.0
C2423 C 0.34798 0.79642 0.86903 0.0
C2424 C 0.35499 0.79133 0.89314 0.0
C2425 C 0.38374 0.78921 0.8961 0.0
C2426 C 0.34386 0.81155 0.90864 0.0
C2427 C 0.34208 0.7663 0.89657 0.0
C2428 C 0.3283 0.75936 0.87796 0.0
C2429 C 0.3174 0.73564 0.87615 0.0
C2430 C 0.32111 0.71841 0.89357 0.0
C2431 C 0.33578 0.72489 0.91256 0.0
C2432 C 0.34558 0.74951 0.91425 0.0
H2433 H 0.50421 0.13389 0.16961 0.0
H2434 H 0.52682 0.05802 0.15217 0.0
H2435 H 0.49269 0.05606 0.12412 0.0
H2436 H 0.43463 0.12511 0.15997 0.0
H2437 H 0.4318 0.15641 0.14867 0.0
H2438 H 0.45478 0.1499 0.1701 0.0
H2439 H 0.48994 0.16753 0.14448 0.0
H2440 H 0.46723 0.17389 0.12296 0.0
H2441 H 0.49415 0.15439 0.11691 0.0
H2442 H 0.46017 0.06469 0.09456 0.0
H2443 H 0.43301 0.08367 0.06543 0.0
H2444 H 0.43185 0.15373 0.10257 0.0
C2445 C 0.5014 0.11652 0.16051 0.0
C2446 C 0.51807 0.09608 0.1631 0.0
C2447 C 0.51431 0.07396 0.15031 0.0
C2448 C 0.49485 0.0726 0.13451 0.0
C2449 C 0.4792 0.09343 0.13186 0.0
C2450 C 0.48217 0.11492 0.14465 0.0
C2451 C 0.46491 0.13578 0.13689 0.0
C2452 C 0.44537 0.14217 0.15499 0.0
C2453 C 0.47997 0.15926 0.12989 0.0
C2454 C 0.45272 0.12314 0.11701 0.0
C2455 C 0.4607 0.09853 0.11466 0.0
C2456 C 0.45341 0.08377 0.09647 0.0
C2457 C 0.438 0.09466 0.08004 0.0
C2458 C 0.43048 0.12012 0.08181 0.0
C2459 C 0.43742 0.13422 0.10082 0.0
H2460 H 0.15861 0.69165 0.11506 0.0
H2461 H 0.1643 0.7439 0.05978 0.0
H2462 H 0.17188 0.77872 0.08651 0.0
H2463 H 0.12251 0.72842 0.14743 0.0
H2464 H 0.13588 0.71912 0.17388 0.0
H2465 H 0.13733 0.69808 0.15048 0.0
H2466 H 0.18591 0.69568 0.15469 0.0
H2467 H 0.18452 0.71709 0.17807 0.0
H2468 H 0.20423 0.72422 0.15437 0.0
H2469 H 0.17209 0.80822 0.11899 0.0
H2470 H 0.15888 0.83017 0.15349 0.0
H2471 H 0.15169 0.75869 0.18743 0.0
C2472 C 0.16243 0.71027 0.10858 0.0
C2473 C 0.16123 0.71515 0.08543 0.0
C2474 C 0.16521 0.73988 0.07751 0.0
C2475 C 0.16985 0.75964 0.09254 0.0
C2476 C 0.17046 0.75425 0.1154 0.0
C2477 C 0.16671 0.73012 0.12335 0.0
C2478 C 0.16384 0.72975 0.1485 0.0
C2479 C 0.13838 0.71819 0.15546 0.0
C2480 C 0.18595 0.71586 0.15956 0.0
C2481 C 0.16492 0.75761 0.15339 0.0
C2482 C 0.16978 0.7714 0.13423 0.0
C2483 C 0.1689 0.79763 0.13418 0.0
C2484 C 0.16155 0.80996 0.15386 0.0
C2485 C 0.15472 0.79596 0.17302 0.0
C2486 C 0.15752 0.76965 0.17307 0.0
H2487 H 0.44221 0.88121 0.39371 0.0
H2488 H 0.48046 0.91865 0.44824 0.0
H2489 H 0.51221 0.93507 0.42167 0.0
H2490 H 0.49241 0.8571 0.37106 0.0
H2491 H 0.48385 0.85975 0.34198 0.0
H2492 H 0.45974 0.85822 0.36292 0.0
H2493 H 0.44071 0.90031 0.3492 0.0
H2494 H 0.46441 0.90177 0.32765 0.0
H2495 H 0.46052 0.92771 0.34677 0.0
H2496 H 0.54484 0.93707 0.39206 0.0
H2497 H 0.57424 0.9276 0.36167 0.0
H2498 H 0.51462 0.88876 0.32581 0.0
C2499 C 0.4566 0.89396 0.39975 0.0
C2500 C 0.45903 0.89894 0.42279 0.0
C2501 C 0.47823 0.91508 0.43051 0.0
C2502 C 0.4963 0.92439 0.41553 0.0
C2503 C 0.49449 0.91755 0.39301 0.0
C2504 C 0.47475 0.90313 0.38506 0.0
C2505 C 0.47921 0.89468 0.36121 0.0
C2506 C 0.47879 0.86574 0.35921 0.0
C2507 C 0.46008 0.90686 0.34527 0.0
C2508 C 0.50531 0.90506 0.35749 0.0
C2509 C 0.51359 0.91865 0.37578 0.0
C2510 C 0.53826 0.92724 0.37733 0.0
C2511 C 0.55491 0.92163 0.35986 0.0
C2512 C 0.54692 0.90742 0.34103 0.0
C2513 C 0.52156 0.89963 0.33978 0.0
H2514 H 0.3491 0.25079 0.56149 0.0
H2515 H 0.3122 0.31201 0.59682 0.0
H2516 H 0.30326 0.2835 0.62804 0.0
H2517 H 0.30835 0.19775 0.58553 0.0
H2518 H 0.33553 0.17746 0.58653 0.0
H2519 H 0.33254 0.20047 0.56453 0.0
H2520 H 0.37615 0.21878 0.57518 0.0
H2521 H 0.37917 0.19613 0.59717 0.0
H2522 H 0.38155 0.22921 0.60349 0.0
H2523 H 0.30801 0.25225 0.65873 0.0
H2524 H 0.32631 0.22162 0.68522 0.0
H2525 H 0.35831 0.18012 0.62972 0.0
C2526 C 0.33835 0.25827 0.57527 0.0
C2527 C 0.33195 0.28406 0.57656 0.0
C2528 C 0.3179 0.29258 0.5953 0.0
C2529 C 0.31239 0.27637 0.61314 0.0
C2530 C 0.32046 0.25147 0.61186 0.0
C2531 C 0.33273 0.24235 0.59315 0.0
C2532 C 0.34295 0.21616 0.59708 0.0
C2533 C 0.329 0.19681 0.58256 0.0
C2534 C 0.37163 0.21504 0.59301 0.0
C2535 C 0.3365 0.21289 0.62153 0.0
C2536 C 0.32279 0.23306 0.62964 0.0
C2537 C 0.31799 0.23595 0.65247 0.0
C2538 C 0.32841 0.21845 0.66742 0.0
C2539 C 0.34367 0.1986 0.65942 0.0
C2540 C 0.34654 0.19511 0.63618 0.0
H2541 H 0.94242 0.10086 0.86546 0.0
H2542 H 0.99515 0.08066 0.81331 0.0
H2543 H 0.02718 0.07067 0.84194 0.0
H2544 H 0.98124 0.13491 0.8947 0.0
H2545 H 0.97021 0.12678 0.92229 0.0
H2546 H 0.94944 0.12399 0.89888 0.0
H2547 H 0.94178 0.07705 0.90854 0.0
H2548 H 0.96281 0.07976 0.93211 0.0
H2549 H 0.96819 0.05595 0.91117 0.0
H2550 H 0.05571 0.07314 0.87435 0.0
H2551 H 0.07856 0.09124 0.90656 0.0
H2552 H 0.00786 0.11053 0.93789 0.0
C2553 C 0.9603 0.09314 0.86019 0.0
C2554 C 0.96636 0.09134 0.83731 0.0
C2555 C 0.99026 0.08219 0.83084 0.0
C2556 C 0.00841 0.07617 0.847 0.0
C2557 C 1.00226 0.07928 0.86953 0.0
C2558 C 0.97864 0.08744 0.87613 0.0
C2559 C 0.97816 0.09423 0.9007 0.0
C2560 C 0.96928 0.12158 0.90432 0.0
C2561 C 0.96176 0.07563 0.91391 0.0
C2562 C 0.00567 0.0909 0.90641 0.0
C2563 C 0.01909 0.08114 0.88853 0.0
C2564 C 0.04534 0.07993 0.88872 0.0
C2565 C 0.0582 0.09014 0.90706 0.0
C2566 C 0.04471 0.1016 0.92467 0.0
C2567 C 0.01828 0.10095 0.92485 0.0
H2568 H 0.84743 0.80408 0.66309 0.0
H2569 H 0.88637 0.86173 0.62584 0.0
H2570 H 0.88149 0.83696 0.59117 0.0
H2571 H 0.87821 0.75782 0.64349 0.0
H2572 H 0.85382 0.73435 0.64144 0.0
H2573 H 0.8505 0.75977 0.66086 0.0
H2574 H 0.80806 0.77281 0.64308 0.0
H2575 H 0.81069 0.74676 0.62387 0.0
H2576 H 0.80614 0.77822 0.61336 0.0
H2577 H 0.88465 0.80158 0.5646 0.0
H2578 H 0.89304 0.75991 0.54792 0.0
H2579 H 0.85197 0.72456 0.60209 0.0
C2580 C 0.85319 0.81212 0.64726 0.0
C2581 C 0.86654 0.83492 0.64675 0.0
C2582 C 0.87537 0.84457 0.6262 0.0
C2583 C 0.87274 0.83055 0.60649 0.0
C2584 C 0.86119 0.80703 0.60774 0.0
C2585 C 0.85097 0.7981 0.62756 0.0
C2586 C 0.84426 0.77051 0.62575 0.0
C2587 C 0.85751 0.75472 0.64394 0.0
C2588 C 0.81558 0.76687 0.62655 0.0
C2589 C 0.85449 0.76477 0.60271 0.0
C2590 C 0.86344 0.78616 0.59227 0.0
C2591 C 0.87691 0.78484 0.57225 0.0
C2592 C 0.88169 0.76108 0.56292 0.0
C2593 C 0.87332 0.73898 0.57379 0.0
C2594 C 0.85882 0.74107 0.59349 0.0
H2595 H 0.97379 0.10695 0.42806 0.0
H2596 H 0.90797 0.11604 0.38632 0.0
H2597 H 0.93202 0.101 0.35353 0.0
H2598 H 0.01354 0.13343 0.39356 0.0
H2599 H 0.04062 0.11375 0.39853 0.0
H2600 H 0.01694 0.11686 0.41971 0.0
H2601 H 0.01072 0.06854 0.42058 0.0
H2602 H 0.03483 0.06514 0.39955 0.0
H2603 H 0.00403 0.05187 0.395 0.0
H2604 H 0.96482 0.09533 0.32462 0.0
H2605 H 0.00348 0.09843 0.30192 0.0
H2606 H 0.04854 0.0945 0.36227 0.0
C2607 C 0.96424 0.10428 0.41222 0.0
C2608 C 0.93907 0.11185 0.40956 0.0
C2609 C 0.92716 0.10959 0.38855 0.0
C2610 C 0.94068 0.10108 0.36991 0.0
C2611 C 0.96601 0.09496 0.37271 0.0
C2612 C 0.97762 0.0961 0.39345 0.0
C2613 C 0.00584 0.09291 0.3914 0.0
C2614 C 0.02004 0.11559 0.40137 0.0
C2615 C 0.01436 0.06814 0.40227 0.0
C2616 C 0.00847 0.09179 0.36624 0.0
C2617 C 0.98527 0.09224 0.35577 0.0
C2618 C 0.98307 0.09433 0.33261 0.0
C2619 C 0.00512 0.09642 0.31987 0.0
C2620 C 0.02902 0.09672 0.33034 0.0
C2621 C 0.0306 0.09371 0.35376 0.0
H2622 H 0.66272 0.2783 0.09496 0.0
H2623 H 0.64713 0.22738 0.04017 0.0
H2624 H 0.64747 0.19142 0.0667 0.0
H2625 H 0.70215 0.23508 0.12964 0.0
H2626 H 0.68832 0.24675 0.15515 0.0
H2627 H 0.69179 0.26732 0.13137 0.0
H2628 H 0.64398 0.27728 0.13248 0.0
H2629 H 0.64047 0.257 0.15626 0.0
H2630 H 0.62169 0.25173 0.13159 0.0
H2631 H 0.64477 0.16224 0.0998 0.0
H2632 H 0.63381 0.14343 0.13644 0.0
H2633 H 0.64956 0.21431 0.16914 0.0
C2634 C 0.66025 0.25947 0.08844 0.0
C2635 C 0.65537 0.25539 0.06555 0.0
C2636 C 0.65105 0.23069 0.05769 0.0
C2637 C 0.65149 0.21025 0.07258 0.0
C2638 C 0.65619 0.21499 0.09518 0.0
C2639 C 0.66031 0.2391 0.10305 0.0
C2640 C 0.66117 0.23998 0.12829 0.0
C2641 C 0.68743 0.24774 0.13659 0.0
C2642 C 0.6406 0.25751 0.13769 0.0
C2643 C 0.65582 0.21274 0.13356 0.0
C2644 C 0.65379 0.19842 0.11429 0.0
C2645 C 0.64681 0.17314 0.11499 0.0
C2646 C 0.64076 0.16258 0.1358 0.0
C2647 C 0.64138 0.17747 0.15538 0.0
C2648 C 0.64969 0.20254 0.15434 0.0
H2649 H 0.5726 0.86994 0.88733 0.0
H2650 H 0.55471 0.93371 0.92961 0.0
H2651 H 0.52734 0.95086 0.89984 0.0
H2652 H 0.56593 0.9034 0.83087 0.0
H2653 H 0.5517 0.87573 0.81886 0.0
H2654 H 0.57543 0.8726 0.84025 0.0
H2655 H 0.5447 0.84567 0.86389 0.0
H2656 H 0.52091 0.84887 0.8428 0.0
H2657 H 0.51429 0.85838 0.87115 0.0
H2658 H 0.49519 0.95577 0.86984 0.0
H2659 H 0.4613 0.94826 0.84248 0.0
H2660 H 0.4987 0.88004 0.82067 0.0
C2661 C 0.56351 0.88792 0.89001 0.0
C2662 C 0.5656 0.90049 0.91074 0.0
C2663 C 0.55353 0.92396 0.91374 0.0
C2664 C 0.53797 0.93381 0.8969 0.0
C2665 C 0.53506 0.92011 0.87713 0.0
C2666 C 0.54782 0.8978 0.87351 0.0
C2667 C 0.53856 0.88456 0.85265 0.0
C2668 C 0.55913 0.88406 0.83459 0.0
C2669 C 0.52904 0.85782 0.85796 0.0
C2670 C 0.51726 0.90188 0.84604 0.0
C2671 C 0.51605 0.92269 0.85992 0.0
C2672 C 0.49629 0.93985 0.85859 0.0
C2673 C 0.47696 0.93526 0.84317 0.0
C2674 C 0.47731 0.91346 0.82951 0.0
C2675 C 0.49818 0.89711 0.83051 0.0
H2676 H 0.8845 0.19819 0.85046 0.0
H2677 H 0.85083 0.23365 0.7924 0.0
H2678 H 0.83258 0.26655 0.8168 0.0
H2679 H 0.83372 0.2157 0.89194 0.0
H2680 H 0.85672 0.22088 0.91362 0.0
H2681 H 0.86229 0.19739 0.89242 0.0
H2682 H 0.90478 0.2187 0.88283 0.0
H2683 H 0.89924 0.24245 0.90365 0.0
H2684 H 0.90518 0.25147 0.87507 0.0
H2685 H 0.82514 0.29921 0.84597 0.0
H2686 H 0.82656 0.32819 0.87781 0.0
H2687 H 0.86509 0.27143 0.91737 0.0
C2688 C 0.87272 0.21254 0.84298 0.0
C2689 C 0.86908 0.21352 0.81958 0.0
C2690 C 0.85359 0.23247 0.81032 0.0
C2691 C 0.84323 0.25123 0.82405 0.0
C2692 C 0.84831 0.25045 0.84695 0.0
C2693 C 0.86236 0.23134 0.85641 0.0
C2694 C 0.86738 0.23618 0.88098 0.0
C2695 C 0.85423 0.21636 0.8956 0.0
C2696 C 0.89582 0.23728 0.8859 0.0
C2697 C 0.85518 0.26171 0.8836 0.0
C2698 C 0.84391 0.26937 0.8639 0.0
C2699 C 0.83328 0.29313 0.86166 0.0
C2700 C 0.8342 0.30951 0.87998 0.0
C2701 C 0.84575 0.30217 0.9004 0.0
C2702 C 0.85611 0.27776 0.90214 0.0
H2703 H 0.52488 0.10572 0.55984 0.0
H2704 H 0.59267 0.1077 0.59999 0.0
H2705 H 0.56829 0.09431 0.63309 0.0
H2706 H 0.48808 0.13437 0.59529 0.0
H2707 H 0.45957 0.11674 0.59062 0.0
H2708 H 0.48289 0.11849 0.56902 0.0
H2709 H 0.48566 0.06986 0.56747 0.0
H2710 H 0.46188 0.06785 0.58893 0.0
H2711 H 0.49176 0.05236 0.59271 0.0
H2712 H 0.53564 0.09227 0.66281 0.0
H2713 H 0.49778 0.09866 0.68619 0.0
H2714 H 0.45119 0.09777 0.62675 0.0
C2715 C 0.53467 0.10218 0.57542 0.0
C2716 C 0.56052 0.10755 0.5775 0.0
C2717 C 0.57289 0.10324 0.59808 0.0
C2718 C 0.55917 0.09567 0.61695 0.0
C2719 C 0.53328 0.09204 0.61472 0.0
C2720 C 0.52124 0.09457 0.5943 0.0
C2721 C 0.49295 0.09336 0.59683 0.0
C2722 C 0.48016 0.11716 0.5874 0.0
C2723 C 0.48245 0.06943 0.58584 0.0
C2724 C 0.49086 0.09203 0.62201 0.0
C2725 C 0.51428 0.09061 0.63204 0.0
C2726 C 0.51718 0.0926 0.65516 0.0
C2727 C 0.49565 0.09653 0.66828 0.0
C2728 C 0.47163 0.09858 0.65821 0.0
C2729 C 0.46925 0.09557 0.63489 0.0
H2730 H 0.63321 0.82375 0.36231 0.0
H2731 H 0.68728 0.79703 0.31357 0.0
H2732 H 0.70741 0.77084 0.34271 0.0
H2733 H 0.67422 0.81655 0.4151 0.0
H2734 H 0.64725 0.80541 0.43048 0.0
H2735 H 0.64332 0.82863 0.40877 0.0
H2736 H 0.61053 0.7999 0.38931 0.0
H2737 H 0.61445 0.77669 0.41072 0.0
H2738 H 0.6193 0.76821 0.38183 0.0
H2739 H 0.7148 0.74057 0.37386 0.0
H2740 H 0.70765 0.70811 0.40233 0.0
H2741 H 0.64555 0.75185 0.42916 0.0
C2742 C 0.64987 0.81304 0.358 0.0
C2743 C 0.65866 0.81222 0.33575 0.0
C2744 C 0.68045 0.79809 0.33061 0.0
C2745 C 0.69198 0.78319 0.34709 0.0
C2746 C 0.68157 0.7829 0.36856 0.0
C2747 C 0.66107 0.79772 0.37407 0.0
C2748 C 0.65005 0.79044 0.39648 0.0
C2749 C 0.65396 0.81151 0.41373 0.0
C2750 C 0.62196 0.78337 0.39443 0.0
C2751 C 0.66615 0.76783 0.40191 0.0
C2752 C 0.68492 0.76443 0.38616 0.0
C2753 C 0.7004 0.74329 0.38643 0.0
C2754 C 0.6959 0.7247 0.40257 0.0
C2755 C 0.67554 0.72694 0.41783 0.0
C2756 C 0.66135 0.74941 0.418 0.0
H2757 H 0.01712 0.89417 0.16513 0.0
H2758 H 0.08324 0.9159 0.12697 0.0
H2759 H 0.05623 0.92805 0.0956 0.0
H2760 H 0.98847 0.86344 0.12279 0.0
H2761 H 0.95673 0.87222 0.13008 0.0
H2762 H 0.98056 0.87118 0.15131 0.0
H2763 H 0.97074 0.91761 0.16159 0.0
H2764 H 0.947 0.91877 0.14005 0.0
H2765 H 0.97217 0.94151 0.14025 0.0
H2766 H 0.02379 0.92984 0.06598 0.0
H2767 H 0.98912 0.91806 0.04042 0.0
H2768 H 0.94399 0.89503 0.09698 0.0
C2769 C 0.02604 0.90187 0.15041 0.0
C2770 C 0.0525 0.90407 0.14884 0.0
C2771 C 0.06311 0.9143 0.12903 0.0
C2772 C 0.04784 0.9214 0.111 0.0
C2773 C 0.02191 0.91837 0.11295 0.0
C2774 C 0.01108 0.90886 0.13219 0.0
C2775 C 0.98329 0.90386 0.12893 0.0
C2776 C 0.97692 0.87603 0.13353 0.0
C2777 C 0.96736 0.9215 0.14358 0.0
C2778 C 0.98057 0.91038 0.1044 0.0
C2779 C 1.00288 0.91951 0.09564 0.0
C2780 C 0.00598 0.92355 0.07273 0.0
C2781 C 0.98621 0.91697 0.05833 0.0
C2782 C 0.96385 0.90648 0.06698 0.0
C2783 C 0.96062 0.90409 0.09026 0.0
H2784 H 0.6123 0.69987 0.85237 0.0
H2785 H 0.68393 0.70979 0.81886 0.0
H2786 H 0.70003 0.73319 0.85173 0.0
H2787 H 0.60679 0.7584 0.87212 0.0
H2788 H 0.59254 0.75059 0.8986 0.0
H2789 H 0.58904 0.7297 0.87524 0.0
H2790 H 0.60781 0.69317 0.89865 0.0
H2791 H 0.61138 0.71409 0.9222 0.0
H2792 H 0.63816 0.69692 0.91171 0.0
H2793 H 0.70502 0.76214 0.8843 0.0
H2794 H 0.69851 0.79445 0.9134 0.0
H2795 H 0.62338 0.76581 0.9254 0.0
C2796 C 0.63158 0.7065 0.85221 0.0
C2797 C 0.64689 0.7033 0.83315 0.0
C2798 C 0.67202 0.71203 0.83343 0.0
C2799 C 0.68129 0.72521 0.85204 0.0
C2800 C 0.66531 0.72895 0.87028 0.0
C2801 C 0.64105 0.71953 0.8706 0.0
C2802 C 0.62653 0.72876 0.89076 0.0
C2803 C 0.60233 0.7427 0.88374 0.0
C2804 C 0.62063 0.70693 0.90678 0.0
C2805 C 0.64569 0.74643 0.90082 0.0
C2806 C 0.66821 0.74572 0.88919 0.0
C2807 C 0.6877 0.76246 0.89382 0.0
C2808 C 0.68375 0.78088 0.91022 0.0
C2809 C 0.66039 0.7826 0.92156 0.0
C2810 C 0.64158 0.76453 0.91735 0.0
H2811 H 0.47719 0.41489 0.14159 0.0
H2812 H 0.52663 0.41244 0.19906 0.0
H2813 H 0.56356 0.40925 0.1739 0.0
H2814 H 0.50615 0.36842 0.11311 0.0
H2815 H 0.5019 0.3813 0.08548 0.0
H2816 H 0.48035 0.38952 0.10742 0.0
H2817 H 0.48951 0.43684 0.10088 0.0
H2818 H 0.5111 0.42875 0.07874 0.0
H2819 H 0.52152 0.44807 0.10174 0.0
H2820 H 0.59403 0.39969 0.14292 0.0
H2821 H 0.61487 0.3823 0.10911 0.0
H2822 H 0.54511 0.38933 0.07229 0.0
C2823 C 0.49589 0.41479 0.14878 0.0
C2824 C 0.49925 0.41434 0.17216 0.0
C2825 C 0.52386 0.41302 0.18112 0.0
C2826 C 0.54486 0.41137 0.16697 0.0
C2827 C 0.54087 0.411 0.14391 0.0
C2828 C 0.51693 0.41273 0.13488 0.0
C2829 C 0.51719 0.40807 0.10992 0.0
C2830 C 0.50042 0.38549 0.10364 0.0
C2831 C 0.50937 0.43186 0.09706 0.0
C2832 C 0.54478 0.40228 0.10644 0.0
C2833 C 0.55832 0.40474 0.1261 0.0
C2834 C 0.58376 0.39826 0.12733 0.0
C2835 C 0.59546 0.38847 0.10814 0.0
C2836 C 0.58154 0.38501 0.08825 0.0
C2837 C 0.55614 0.39246 0.08728 0.0
H2838 H 0.85566 0.25199 0.42452 0.0
H2839 H 0.81967 0.19125 0.38799 0.0
H2840 H 0.8158 0.2186 0.3551 0.0
H2841 H 0.82221 0.30593 0.39569 0.0
H2842 H 0.85063 0.32445 0.39577 0.0
H2843 H 0.84456 0.30257 0.41818 0.0
H2844 H 0.88754 0.281 0.41067 0.0
H2845 H 0.89365 0.30266 0.38832 0.0
H2846 H 0.89438 0.26928 0.38301 0.0
H2847 H 0.8233 0.2491 0.32413 0.0
H2848 H 0.84296 0.27938 0.29801 0.0
H2849 H 0.87498 0.31973 0.35419 0.0
C2850 C 0.84649 0.24452 0.40981 0.0
C2851 C 0.83807 0.21935 0.40901 0.0
C2852 C 0.82603 0.2105 0.38933 0.0
C2853 C 0.8237 0.22596 0.37046 0.0
C2854 C 0.83325 0.25032 0.37153 0.0
C2855 C 0.84424 0.25962 0.3908 0.0
C2856 C 0.85634 0.28496 0.38678 0.0
C2857 C 0.8426 0.30571 0.39988 0.0
C2858 C 0.88464 0.28441 0.39252 0.0
C2859 C 0.85197 0.28764 0.3619 0.0
C2860 C 0.83793 0.26789 0.35349 0.0
C2861 C 0.83378 0.26498 0.33058 0.0
C2862 C 0.84496 0.28224 0.31586 0.0
C2863 C 0.86041 0.30176 0.32418 0.0
C2864 C 0.86313 0.30497 0.34748 0.0
H2865 H 0.01769 0.63292 0.67072 0.0
H2866 H 0.04981 0.55901 0.65937 0.0
H2867 H 0.01799 0.55085 0.63023 0.0
H2868 H 0.94998 0.61459 0.65852 0.0
H2869 H 0.94426 0.64451 0.64529 0.0
H2870 H 0.96614 0.64232 0.66828 0.0
H2871 H 1.00081 0.66257 0.64365 0.0
H2872 H 0.97923 0.66465 0.62064 0.0
H2873 H 0.00871 0.64831 0.61718 0.0
H2874 H 0.98757 0.55374 0.59812 0.0
H2875 H 0.96133 0.56792 0.56609 0.0
H2876 H 0.94908 0.63932 0.59922 0.0
C2877 C 0.01745 0.61465 0.66276 0.0
C2878 C 0.0363 0.5967 0.66726 0.0
C2879 C 0.03575 0.57323 0.65598 0.0
C2880 C 0.01756 0.56829 0.63958 0.0
C2881 C 0.99982 0.58684 0.63491 0.0
C2882 C 0.99943 0.60944 0.64642 0.0
C2883 C 0.98047 0.62747 0.63657 0.0
C2884 C 0.95893 0.63251 0.65315 0.0
C2885 C 0.99307 0.65218 0.62906 0.0
C2886 C 0.97146 0.61214 0.61687 0.0
C2887 C 0.98228 0.58849 0.61643 0.0
C2888 C 0.97851 0.57197 0.59855 0.0
C2889 C 0.96372 0.58011 0.58046 0.0
C2890 C 0.95342 0.60459 0.58044 0.0
C2891 C 0.95676 0.62043 0.59908 0.0
H2892 H 0.66336 0.28103 0.67859 0.0
H2893 H 0.65509 0.35061 0.64197 0.0
H2894 H 0.66274 0.328 0.60646 0.0
H2895 H 0.71084 0.24946 0.63776 0.0
H2896 H 0.69587 0.2195 0.64247 0.0
H2897 H 0.69769 0.24225 0.6648 0.0
H2898 H 0.64933 0.23943 0.66953 0.0
H2899 H 0.64709 0.21747 0.64685 0.0
H2900 H 0.62924 0.2463 0.646 0.0
H2901 H 0.65935 0.29655 0.57536 0.0
H2902 H 0.65132 0.25946 0.55129 0.0
H2903 H 0.66207 0.21052 0.60842 0.0
C2904 C 0.66492 0.29162 0.66318 0.0
C2905 C 0.65935 0.31749 0.66285 0.0
C2906 C 0.66016 0.33087 0.64244 0.0
C2907 C 0.66427 0.31812 0.62222 0.0
C2908 C 0.66793 0.29213 0.62289 0.0
C2909 C 0.66908 0.27914 0.64295 0.0
C2910 C 0.6696 0.25101 0.63918 0.0
C2911 C 0.69502 0.2399 0.64648 0.0
C2912 C 0.6475 0.23781 0.65108 0.0
C2913 C 0.66667 0.25014 0.61406 0.0
C2914 C 0.66612 0.27397 0.60485 0.0
C2915 C 0.66056 0.27779 0.58228 0.0
C2916 C 0.65568 0.25668 0.5688 0.0
C2917 C 0.65632 0.23216 0.57799 0.0
C2918 C 0.66215 0.229 0.60083 0.0
H2919 H 0.9808 0.3942 0.93068 0.0
H2920 H 0.91465 0.41884 0.8945 0.0
H2921 H 0.94143 0.4308 0.8623 0.0
H2922 H 0.02603 0.44236 0.90646 0.0
H2923 H 0.05107 0.41948 0.90591 0.0
H2924 H 0.02735 0.41804 0.92744 0.0
H2925 H 0.01778 0.37189 0.91638 0.0
H2926 H 0.04108 0.37324 0.89466 0.0
H2927 H 0.00912 0.36475 0.88791 0.0
H2928 H 0.97397 0.43106 0.83173 0.0
H2929 H 0.01042 0.42385 0.80659 0.0
H2930 H 0.05541 0.40068 0.86331 0.0
C2931 C 0.97217 0.4031 0.9163 0.0
C2932 C 0.94584 0.40591 0.91501 0.0
C2933 C 0.9349 0.41704 0.89585 0.0
C2934 C 0.94996 0.42376 0.8775 0.0
C2935 C 0.97586 0.41963 0.87887 0.0
C2936 C 0.98694 0.41008 0.89802 0.0
C2937 C 0.01468 0.405 0.89458 0.0
C2938 C 0.03073 0.42226 0.90948 0.0
C2939 C 0.02101 0.37707 0.89861 0.0
C2940 C 0.01727 0.41193 0.87018 0.0
C2941 C 0.99475 0.4205 0.86139 0.0
C2942 C 0.99188 0.42511 0.83856 0.0
C2943 C 0.01252 0.42079 0.8244 0.0
C2944 C 0.03566 0.41211 0.83318 0.0
C2945 C 0.0381 0.40806 0.85637 0.0
H2946 H 0.86263 0.80239 0.11713 0.0
H2947 H 0.86286 0.75457 0.05826 0.0
H2948 H 0.85161 0.71823 0.08187 0.0
H2949 H 0.89157 0.7628 0.15205 0.0
H2950 H 0.87364 0.7709 0.17663 0.0
H2951 H 0.87701 0.79334 0.15448 0.0
H2952 H 0.82836 0.79692 0.15169 0.0
H2953 H 0.82493 0.77404 0.17375 0.0
H2954 H 0.80978 0.76901 0.14714 0.0
H2955 H 0.84759 0.6863 0.11262 0.0
H2956 H 0.85499 0.66217 0.14735 0.0
H2957 H 0.85449 0.73133 0.18552 0.0
C2958 C 0.85948 0.78457 0.10891 0.0
C2959 C 0.8636 0.78156 0.08572 0.0
C2960 C 0.86009 0.75749 0.07598 0.0
C2961 C 0.85329 0.73675 0.08923 0.0
C2962 C 0.8496 0.74047 0.1121 0.0
C2963 C 0.85245 0.76389 0.12179 0.0
C2964 C 0.8506 0.76264 0.14698 0.0
C2965 C 0.87463 0.773 0.15816 0.0
C2966 C 0.82701 0.77647 0.15538 0.0
C2967 C 0.84807 0.73458 0.15014 0.0
C2968 C 0.84675 0.72208 0.12984 0.0
C2969 C 0.84786 0.69588 0.1286 0.0
C2970 C 0.85188 0.68228 0.1484 0.0
C2971 C 0.85504 0.69503 0.16898 0.0
C2972 C 0.85161 0.72126 0.16997 0.0
H2973 H 0.533 0.61275 0.42862 0.0
H2974 H 0.59685 0.59921 0.38544 0.0
H2975 H 0.56815 0.59174 0.35357 0.0
H2976 H 0.4852 0.57016 0.39811 0.0
H2977 H 0.4608 0.59315 0.4028 0.0
H2978 H 0.48548 0.58901 0.42318 0.0
H2979 H 0.49549 0.63659 0.42061 0.0
H2980 H 0.47155 0.64085 0.3998 0.0
H2981 H 0.50351 0.65008 0.39387 0.0
H2982 H 0.53382 0.59556 0.32534 0.0
H2983 H 0.49648 0.60761 0.30333 0.0
H2984 H 0.45554 0.62198 0.36487 0.0
C2985 C 0.54069 0.60653 0.41277 0.0
C2986 C 0.56688 0.60569 0.40945 0.0
C2987 C 0.57671 0.59909 0.38827 0.0
C2988 C 0.56054 0.59497 0.37011 0.0
C2989 C 0.53471 0.59766 0.37351 0.0
C2990 C 0.52479 0.60291 0.39444 0.0
C2991 C 0.49708 0.60927 0.39303 0.0
C2992 C 0.4812 0.58919 0.40498 0.0
C2993 C 0.49162 0.63576 0.40237 0.0
C2994 C 0.49329 0.60823 0.36799 0.0
C2995 C 0.51499 0.60095 0.35704 0.0
C2996 C 0.51655 0.60076 0.33376 0.0
C2997 C 0.49532 0.60803 0.32139 0.0
C2998 C 0.47294 0.61576 0.33231 0.0
C2999 C 0.47207 0.61565 0.35594 0.0
H3000 H 0.36355 0.29956 0.16798 0.0
H3001 H 0.39634 0.35998 0.12927 0.0
H3002 H 0.38292 0.33909 0.09426 0.0
H3003 H 0.38608 0.25306 0.1362 0.0
H3004 H 0.35957 0.23202 0.13815 0.0
H3005 H 0.36524 0.25452 0.15997 0.0
H3006 H 0.32037 0.27281 0.15495 0.0
H3007 H 0.31434 0.24999 0.13328 0.0
H3008 H 0.31017 0.28305 0.12767 0.0
H3009 H 0.37396 0.30804 0.06414 0.0
H3010 H 0.36846 0.26985 0.04105 0.0
H3011 H 0.34288 0.2291 0.09962 0.0
C3012 C 0.36668 0.30888 0.15211 0.0
C3013 C 0.38038 0.33147 0.15107 0.0
C3014 C 0.38538 0.34282 0.13016 0.0
C3015 C 0.37783 0.33111 0.11028 0.0
C3016 C 0.36536 0.30811 0.11173 0.0
C3017 C 0.35954 0.29723 0.13214 0.0
C3018 C 0.34958 0.2708 0.12919 0.0
C3019 C 0.36611 0.25148 0.1416 0.0
C3020 C 0.32197 0.26907 0.13672 0.0
C3021 C 0.35191 0.26806 0.10411 0.0
C3022 C 0.36059 0.2899 0.09426 0.0
C3023 C 0.36659 0.29101 0.07157 0.0
C3024 C 0.36371 0.26918 0.05864 0.0
C3025 C 0.35509 0.24657 0.06851 0.0
C3026 C 0.34883 0.24625 0.09146 0.0
H3027 H 0.50294 0.64104 0.81087 0.0
H3028 H 0.54331 0.57556 0.8345 0.0
H3029 H 0.50818 0.56511 0.85962 0.0
H3030 H 0.48416 0.6618 0.85849 0.0
H3031 H 0.45287 0.67227 0.85142 0.0
H3032 H 0.47636 0.67 0.83003 0.0
H3033 H 0.44777 0.64029 0.80698 0.0
H3034 H 0.42381 0.64273 0.82826 0.0
H3035 H 0.4352 0.61226 0.81973 0.0
H3036 H 0.47706 0.5695 0.88946 0.0
H3037 H 0.45105 0.58687 0.91974 0.0
H3038 H 0.42699 0.6472 0.87573 0.0
C3039 C 0.50361 0.6238 0.82046 0.0
C3040 C 0.52574 0.60923 0.82099 0.0
C3041 C 0.52654 0.58712 0.83414 0.0
C3042 C 0.50655 0.58089 0.84828 0.0
C3043 C 0.48564 0.59667 0.84873 0.0
C3044 C 0.48367 0.61734 0.8347 0.0
C3045 C 0.46129 0.6335 0.84102 0.0
C3046 C 0.46917 0.66098 0.84552 0.0
C3047 C 0.4408 0.6321 0.82292 0.0
C3048 C 0.4529 0.62031 0.86221 0.0
C3049 C 0.46665 0.59866 0.86599 0.0
C3050 C 0.4654 0.58582 0.88632 0.0
C3051 C 0.45052 0.59586 0.9035 0.0
C3052 C 0.43708 0.61856 0.90026 0.0
C3053 C 0.43727 0.62999 0.87889 0.0
H3054 H 0.16477 0.72219 0.67507 0.0
H3055 H 0.15318 0.65043 0.64265 0.0
H3056 H 0.16656 0.66877 0.60651 0.0
H3057 H 0.13816 0.75726 0.63728 0.0
H3058 H 0.15907 0.78395 0.63814 0.0
H3059 H 0.15631 0.7639 0.66209 0.0
H3060 H 0.2044 0.75578 0.66182 0.0
H3061 H 0.20748 0.77629 0.63795 0.0
H3062 H 0.21938 0.74456 0.63667 0.0
H3063 H 0.1695 0.69723 0.57336 0.0
H3064 H 0.16576 0.73259 0.54656 0.0
H3065 H 0.17669 0.7854 0.60088 0.0
C3066 C 0.1665 0.71014 0.66054 0.0
C3067 C 0.15854 0.68496 0.66144 0.0
C3068 C 0.15989 0.66967 0.64216 0.0
C3069 C 0.1674 0.67996 0.62162 0.0
C3070 C 0.17387 0.70538 0.6209 0.0
C3071 C 0.17416 0.72012 0.64003 0.0
C3072 C 0.17825 0.74755 0.63449 0.0
C3073 C 0.15666 0.7641 0.64352 0.0
C3074 C 0.20391 0.75657 0.64325 0.0
C3075 C 0.17806 0.74626 0.60925 0.0
C3076 C 0.17605 0.72179 0.60164 0.0
C3077 C 0.17194 0.7164 0.57906 0.0
C3078 C 0.16957 0.73654 0.564 0.0
C3079 C 0.17125 0.76167 0.57163 0.0
C3080 C 0.17617 0.7664 0.59444 0.0
H3081 H 0.06736 0.38445 0.38973 0.0
H3082 H 0.03136 0.43036 0.44024 0.0
H3083 H 0.0039 0.44915 0.41116 0.0
H3084 H 0.05891 0.42992 0.34015 0.0
H3085 H 0.05273 0.40371 0.32182 0.0
H3086 H 0.07445 0.40023 0.34481 0.0
H3087 H 0.04879 0.36208 0.35927 0.0
H3088 H 0.0271 0.36547 0.33654 0.0
H3089 H 0.01566 0.36589 0.36493 0.0
H3090 H 0.9744 0.45491 0.37891 0.0
H3091 H 0.94536 0.44642 0.34763 0.0
H3092 H 0.99997 0.39522 0.31877 0.0
C3093 C 0.05434 0.39923 0.39444 0.0
C3094 C 0.05134 0.40609 0.41705 0.0
C3095 C 0.03404 0.42517 0.42288 0.0
C3096 C 0.01845 0.43591 0.40645 0.0
C3097 C 0.02082 0.42759 0.38436 0.0
C3098 C 0.03866 0.40987 0.37832 0.0
C3099 C 0.03476 0.40068 0.35463 0.0
C3100 C 0.05651 0.40915 0.33945 0.0
C3101 C 0.03135 0.37185 0.35383 0.0
C3102 C 0.01071 0.41436 0.34884 0.0
C3103 C 0.00341 0.43048 0.36583 0.0
C3104 C 0.98022 0.44275 0.36534 0.0
C3105 C 0.96372 0.4376 0.34759 0.0
C3106 C 0.97024 0.41989 0.33081 0.0
C3107 C 0.99453 0.40916 0.33101 0.0
H3108 H 0.35181 0.74238 0.3011 0.0
H3109 H 0.3377 0.67228 0.3357 0.0
H3110 H 0.32845 0.69571 0.37033 0.0
H3111 H 0.38714 0.76706 0.33934 0.0
H3112 H 0.37722 0.79942 0.33736 0.0
H3113 H 0.37375 0.77897 0.31372 0.0
H3114 H 0.32595 0.78823 0.31186 0.0
H3115 H 0.32927 0.80948 0.3352 0.0
H3116 H 0.3068 0.78413 0.33648 0.0
H3117 H 0.33292 0.72484 0.40266 0.0
H3118 H 0.34608 0.75797 0.42922 0.0
H3119 H 0.3587 0.80896 0.37381 0.0
C3120 C 0.34537 0.73217 0.31569 0.0
C3121 C 0.34524 0.70566 0.31577 0.0
C3122 C 0.33738 0.69265 0.33519 0.0
C3123 C 0.33225 0.70583 0.35499 0.0
C3124 C 0.33471 0.73195 0.35491 0.0
C3125 C 0.34045 0.74507 0.33556 0.0
C3126 C 0.34614 0.7724 0.34049 0.0
C3127 C 0.37263 0.77986 0.33225 0.0
C3128 C 0.32582 0.78958 0.33042 0.0
C3129 C 0.3447 0.77216 0.36573 0.0
C3130 C 0.33751 0.74886 0.37375 0.0
C3131 C 0.33785 0.74337 0.39657 0.0
C3132 C 0.34571 0.76215 0.41151 0.0
C3133 C 0.35333 0.78603 0.40354 0.0
C3134 C 0.35238 0.79109 0.3804 0.0
H3135 H 0.99364 0.60967 0.1773 0.0
H3136 H 0.93605 0.57059 0.1392 0.0
H3137 H 0.96647 0.56355 0.10882 0.0
H3138 H 0.01527 0.64424 0.13385 0.0
H3139 H 0.0479 0.64402 0.14215 0.0
H3140 H 0.02372 0.64054 0.16288 0.0
H3141 H 0.04399 0.59864 0.176 0.0
H3142 H 0.06826 0.60201 0.15512 0.0
H3143 H 0.04944 0.57382 0.15602 0.0
H3144 H 1.00065 0.56668 0.08027 0.0
H3145 H 0.03418 0.58278 0.05532 0.0
H3146 H 0.06826 0.62166 0.11131 0.0
C3147 C 0.98736 0.59933 0.16277 0.0
C3148 C 0.96231 0.59074 0.16079 0.0
C3149 C 0.95517 0.57709 0.14141 0.0
C3150 C 0.97238 0.57293 0.12401 0.0
C3151 C 0.99669 0.58239 0.12628 0.0
C3152 C 0.00415 0.59532 0.14521 0.0
C3153 C 0.02996 0.60681 0.14234 0.0
C3154 C 0.02914 0.63559 0.14547 0.0
C3155 C 0.04904 0.59458 0.15832 0.0
C3156 C 0.03524 0.59962 0.11835 0.0
C3157 C 0.01624 0.5848 0.10957 0.0
C3158 C 0.0159 0.5778 0.08708 0.0
C3159 C 0.03497 0.58694 0.07305 0.0
C3160 C 0.05365 0.60324 0.08159 0.0
C3161 C 0.05425 0.60892 0.10459 0.0
H3162 H 0.13019 0.32251 0.85637 0.0
H3163 H 0.17072 0.28509 0.80307 0.0
H3164 H 0.18645 0.25352 0.83011 0.0
H3165 H 0.17502 0.30462 0.9046 0.0
H3166 H 0.14844 0.30031 0.92294 0.0
H3167 H 0.14743 0.32405 0.90141 0.0
H3168 H 0.10616 0.30455 0.88617 0.0
H3169 H 0.10714 0.28067 0.90729 0.0
H3170 H 0.10576 0.27182 0.8782 0.0
H3171 H 0.18876 0.22109 0.86026 0.0
H3172 H 0.17829 0.19135 0.89014 0.0
H3173 H 0.13466 0.24961 0.9234 0.0
C3174 C 0.14326 0.30824 0.85065 0.0
C3175 C 0.14933 0.30609 0.82778 0.0
C3176 C 0.16617 0.28714 0.82064 0.0
C3177 C 0.17515 0.26917 0.8359 0.0
C3178 C 0.16736 0.27078 0.85817 0.0
C3179 C 0.15212 0.29017 0.8656 0.0
C3180 C 0.14279 0.28553 0.88914 0.0
C3181 C 0.15411 0.30477 0.90549 0.0
C3182 C 0.11377 0.28563 0.89023 0.0
C3183 C 0.15343 0.25958 0.89316 0.0
C3184 C 0.16821 0.25169 0.87548 0.0
C3185 C 0.17767 0.22729 0.87441 0.0
C3186 C 0.1713 0.21037 0.8915 0.0
C3187 C 0.15515 0.2177 0.9093 0.0
C3188 C 0.14701 0.24301 0.91034 0.0
H3189 H 0.44131 0.36696 0.59957 0.0
H3190 H 0.48089 0.39489 0.5412 0.0
H3191 H 0.51452 0.41151 0.56558 0.0
H3192 H 0.46245 0.41832 0.63963 0.0
H3193 H 0.46507 0.39601 0.66221 0.0
H3194 H 0.44153 0.39166 0.64082 0.0
H3195 H 0.45898 0.34694 0.63322 0.0
H3196 H 0.48283 0.35126 0.65418 0.0
H3197 H 0.49172 0.34312 0.62598 0.0
H3198 H 0.54709 0.41721 0.59484 0.0
H3199 H 0.57529 0.41467 0.62728 0.0
H3200 H 0.51466 0.38313 0.66709 0.0
C3201 C 0.45673 0.37721 0.59201 0.0
C3202 C 0.45862 0.37965 0.56856 0.0
C3203 C 0.47899 0.39312 0.55917 0.0
C3204 C 0.49818 0.40255 0.57288 0.0
C3205 C 0.49643 0.39862 0.59589 0.0
C3206 C 0.47599 0.38668 0.60545 0.0
C3207 C 0.47989 0.38241 0.63025 0.0
C3208 C 0.46112 0.39804 0.64404 0.0
C3209 C 0.47827 0.35427 0.63624 0.0
C3210 C 0.50639 0.39232 0.63285 0.0
C3211 C 0.51537 0.40204 0.61294 0.0
C3212 C 0.54004 0.41035 0.61069 0.0
C3213 C 0.55594 0.4088 0.62928 0.0
C3214 C 0.54716 0.39894 0.64991 0.0
C3215 C 0.52197 0.39077 0.65164 0.0
loop_
_geom_bond_atom_site_label_1
_geom_bond_atom_site_label_2
_geom_bond_distance
_geom_bond_site_symmetry_2
_ccdc_geom_bond_type
C0 C1 1.351 . S
C0 N3 1.368 . S
C0 H5 0.931 . S
C1 C0 1.351 . S
C1 N2 1.373 . S
C1 H29 0.930 . S
N2 C1 1.373 . S
N2 C4 1.340 . S
N3 C0 1.368 . S
N3 C4 1.321 . S
N3 Co6 2.135 . S
C4 N2 1.340 . S
C4 N3 1.321 . S
C4 H28 0.930 . S
H5 C0 0.931 . S
Co6 N3 2.135 . S
Co6 N9 2.121 . S
Co6 O14 2.055 . S
Co6 O17 2.039 . S
Co6 N20 2.140 . S
C7 O8 1.227 . S
C7 O17 1.265 . S
O8 C7 1.227 . S
N9 Co6 2.121 . S
N9 C11 1.375 . S
N9 C12 1.313 . S
C10 C11 1.338 . S
C10 N13 1.377 . S
C10 H30 0.930 . S
C11 N9 1.375 . S
C11 C10 1.338 . S
C11 H15 0.931 . S
C12 N9 1.313 . S
C12 N13 1.344 . S
C12 H16 0.930 . S
N13 C10 1.377 . S
N13 C12 1.344 . S
O14 Co6 2.055 . S
O14 C18 1.253 . S
H15 C11 0.931 . S
H16 C12 0.930 . S
O17 Co6 2.039 . S
O17 C7 1.265 . S
C18 O14 1.253 . S
C18 O19 1.227 . S
O19 C18 1.227 . S
N20 Co6 2.140 . S
N20 C23 1.346 . S
N20 C24 1.345 . S
C21 C22 1.387 . S
C21 C25 1.391 . S
C22 C21 1.387 . S
C22 C23 1.369 . S
C22 H31 0.929 . S
C23 N20 1.346 . S
C23 C22 1.369 . S
C23 H26 0.928 . S
C24 N20 1.345 . S
C24 C25 1.371 . S
C24 H27 0.931 . S
C25 C21 1.391 . S
C25 C24 1.371 . S
C25 H32 0.930 . S
H26 C23 0.928 . S
H27 C24 0.931 . S
H28 C4 0.930 . S
H29 C1 0.930 . S
H30 C10 0.930 . S
H31 C22 0.929 . S
H32 C25 0.930 . S
C33 C34 1.351 . S
C33 N36 1.368 . S
C33 H38 0.931 . S
C34 C33 1.351 . S
C34 N35 1.373 . S
C34 H62 0.930 . S
N35 C34 1.373 . S
N35 C37 1.340 . S
N36 C33 1.368 . S
N36 C37 1.321 . S
N36 Co39 2.135 . S
C37 N35 1.340 . S
C37 N36 1.321 . S
C37 H61 0.930 . S
H38 C33 0.931 . S
Co39 N36 2.135 . S
Co39 N42 2.121 . S
Co39 O47 2.055 . S
Co39 O50 2.039 . S
Co39 N53 2.140 . S
C40 O41 1.227 . S
C40 O50 1.265 . S
O41 C40 1.227 . S
N42 Co39 2.121 . S
N42 C44 1.375 . S
N42 C45 1.313 . S
C43 C44 1.338 . S
C43 N46 1.377 . S
C43 H63 0.930 . S
C44 N42 1.375 . S
C44 C43 1.338 . S
C44 H48 0.931 . S
C45 N42 1.313 . S
C45 N46 1.344 . S
C45 H49 0.930 . S
N46 C43 1.377 . S
N46 C45 1.344 . S
O47 Co39 2.055 . S
O47 C51 1.253 . S
H48 C44 0.931 . S
H49 C45 0.930 . S
O50 Co39 2.039 . S
O50 C40 1.265 . S
C51 O47 1.253 . S
C51 O52 1.227 . S
O52 C51 1.227 . S
N53 Co39 2.140 . S
N53 C56 1.346 . S
N53 C57 1.345 . S
C54 C55 1.387 . S
C54 C58 1.391 . S
C55 C54 1.387 . S
C55 C56 1.369 . S
C55 H64 0.929 . S
C56 N53 1.346 . S
C56 C55 1.369 . S
C56 H59 0.928 . S
C57 N53 1.345 . S
C57 C58 1.371 . S
C57 H60 0.931 . S
C58 C54 1.391 . S
C58 C57 1.371 . S
C58 H65 0.930 . S
H59 C56 0.928 . S
H60 C57 0.931 . S
H61 C37 0.930 . S
H62 C34 0.930 . S
H63 C43 0.930 . S
H64 C55 0.929 . S
H65 C58 0.930 . S
C66 C67 1.351 . S
C66 N69 1.368 . S
C66 H71 0.931 . S
C67 C66 1.351 . S
C67 N68 1.373 . S
C67 H95 0.930 . S
N68 C67 1.373 . S
N68 C70 1.340 . S
N69 C66 1.368 . S
N69 C70 1.321 . S
N69 Co72 2.135 . S
C70 N68 1.340 . S
C70 N69 1.321 . S
C70 H94 0.930 . S
H71 C66 0.931 . S
Co72 N69 2.135 . S
Co72 N75 2.121 . S
Co72 O80 2.055 . S
Co72 O83 2.039 . S
Co72 N86 2.140 . S
C73 O74 1.227 . S
C73 O83 1.265 . S
O74 C73 1.227 . S
N75 Co72 2.121 . S
N75 C77 1.375 . S
N75 C78 1.313 . S
C76 C77 1.338 . S
C76 N79 1.377 . S
C76 H96 0.930 . S
C77 N75 1.375 . S
C77 C76 1.338 . S
C77 H81 0.931 . S
C78 N75 1.313 . S
C78 N79 1.344 . S
C78 H82 0.930 . S
N79 C76 1.377 . S
N79 C78 1.344 . S
O80 Co72 2.055 . S
O80 C84 1.253 . S
H81 C77 0.931 . S
H82 C78 0.930 . S
O83 Co72 2.039 . S
O83 C73 1.265 . S
C84 O80 1.253 . S
C84 O85 1.227 . S
O85 C84 1.227 . S
N86 Co72 2.140 . S
N86 C89 1.346 . S
N86 C90 1.345 . S
C87 C88 1.387 . S
C87 C91 1.391 . S
C88 C87 1.387 . S
C88 C89 1.369 . S
C88 H97 0.929 . S
C89 N86 1.346 . S
C89 C88 1.369 . S
C89 H92 0.928 . S
C90 N86 1.345 . S
C90 C91 1.371 . S
C90 H93 0.931 . S
C91 C87 1.391 . S
C91 C90 1.371 . S
C91 H98 0.930 . S
H92 C89 0.928 . S
H93 C90 0.931 . S
H94 C70 0.930 . S
H95 C67 0.930 . S
H96 C76 0.930 . S
H97 C88 0.929 . S
H98 C91 0.930 . S
C99 C100 1.351 . S
C99 N102 1.368 . S
C99 H104 0.931 . S
C100 C99 1.351 . S
C100 N101 1.373 . S
C100 H128 0.930 . S
N101 C100 1.373 . S
N101 C103 1.340 . S
N102 C99 1.368 . S
N102 C103 1.321 . S
N102 Co105 2.135 . S
C103 N101 1.340 . S
C103 N102 1.321 . S
C103 H127 0.930 . S
H104 C99 0.931 . S
Co105 N102 2.135 . S
Co105 N108 2.121 1_554 S
Co105 O113 2.055 . S
Co105 O116 2.039 . S
Co105 N119 2.140 . S
C106 O107 1.227 . S
C106 O116 1.265 . S
O107 C106 1.227 . S
N108 Co105 2.121 1_556 S
N108 C110 1.375 . S
N108 C111 1.313 . S
C109 C110 1.338 . S
C109 N112 1.377 . S
C109 H129 0.930 . S
C110 N108 1.375 . S
C110 C109 1.338 . S
C110 H114 0.931 . S
C111 N108 1.313 . S
C111 N112 1.344 . S
C111 H115 0.930 . S
N112 C109 1.377 . S
N112 C111 1.344 . S
O113 Co105 2.055 . S
O113 C117 1.253 . S
H114 C110 0.931 . S
H115 C111 0.930 . S
O116 Co105 2.039 . S
O116 C106 1.265 . S
C117 O113 1.253 . S
C117 O118 1.227 . S
O118 C117 1.227 . S
N119 Co105 2.140 . S
N119 C122 1.346 . S
N119 C123 1.345 . S
C120 C121 1.387 . S
C120 C124 1.391 . S
C121 C120 1.387 . S
C121 C122 1.369 . S
C121 H130 0.929 . S
C122 N119 1.346 . S
C122 C121 1.369 . S
C122 H125 0.928 . S
C123 N119 1.345 . S
C123 C124 1.371 . S
C123 H126 0.931 . S
C124 C120 1.391 . S
C124 C123 1.371 . S
C124 H131 0.930 . S
H125 C122 0.928 . S
H126 C123 0.931 . S
H127 C103 0.930 . S
H128 C100 0.930 . S
H129 C109 0.930 . S
H130 C121 0.929 . S
H131 C124 0.930 . S
C132 C133 1.351 . S
C132 N135 1.368 . S
C132 H137 0.931 . S
C133 C132 1.351 . S
C133 N134 1.373 . S
C133 H161 0.930 . S
N134 C133 1.373 . S
N134 C136 1.340 . S
N135 C132 1.368 . S
N135 C136 1.321 . S
N135 Co138 2.135 . S
C136 N134 1.340 . S
C136 N135 1.321 . S
C136 H160 0.930 . S
H137 C132 0.931 . S
Co138 N135 2.135 . S
Co138 N141 2.121 . S
Co138 O146 2.055 . S
Co138 O149 2.039 . S
Co138 N152 2.140 . S
C139 O140 1.227 . S
C139 O149 1.265 . S
O140 C139 1.227 . S
N141 Co138 2.121 . S
N141 C143 1.375 . S
N141 C144 1.313 . S
C142 C143 1.338 . S
C142 N145 1.377 . S
C142 H162 0.930 . S
C143 N141 1.375 . S
C143 C142 1.338 . S
C143 H147 0.931 . S
C144 N141 1.313 . S
C144 N145 1.344 . S
C144 H148 0.930 . S
N145 C142 1.377 . S
N145 C144 1.344 . S
O146 Co138 2.055 . S
O146 C150 1.253 . S
H147 C143 0.931 . S
H148 C144 0.930 . S
O149 Co138 2.039 . S
O149 C139 1.265 . S
C150 O146 1.253 . S
C150 O151 1.227 . S
O151 C150 1.227 . S
N152 Co138 2.140 . S
N152 C155 1.346 . S
N152 C156 1.345 . S
C153 C154 1.387 . S
C153 C157 1.391 . S
C154 C153 1.387 . S
C154 C155 1.369 . S
C154 H163 0.929 . S
C155 N152 1.346 . S
C155 C154 1.369 . S
C155 H158 0.928 . S
C156 N152 1.345 . S
C156 C157 1.371 . S
C156 H159 0.931 . S
C157 C153 1.391 . S
C157 C156 1.371 . S
C157 H164 0.930 . S
H158 C155 0.928 . S
H159 C156 0.931 . S
H160 C136 0.930 . S
H161 C133 0.930 . S
H162 C142 0.930 . S
H163 C154 0.929 . S
H164 C157 0.930 . S
C165 C166 1.351 . S
C165 N168 1.368 . S
C165 H170 0.931 . S
C166 C165 1.351 . S
C166 N167 1.373 . S
C166 H194 0.930 . S
N167 C166 1.373 . S
N167 C169 1.340 . S
N168 C165 1.368 . S
N168 C169 1.321 . S
N168 Co171 2.135 . S
C169 N167 1.340 . S
C169 N168 1.321 . S
C169 H193 0.930 . S
H170 C165 0.931 . S
Co171 N168 2.135 . S
Co171 N174 2.121 . S
Co171 O179 2.055 . S
Co171 O182 2.039 . S
Co171 N185 2.140 . S
C172 O173 1.227 . S
C172 O182 1.265 . S
O173 C172 1.227 . S
N174 Co171 2.121 . S
N174 C176 1.375 . S
N174 C177 1.313 . S
C175 C176 1.338 . S
C175 N178 1.377 . S
C175 H195 0.930 . S
C176 N174 1.375 . S
C176 C175 1.338 . S
C176 H180 0.931 . S
C177 N174 1.313 . S
C177 N178 1.344 . S
C177 H181 0.930 . S
N178 C175 1.377 . S
N178 C177 1.344 . S
O179 Co171 2.055 . S
O179 C183 1.253 . S
H180 C176 0.931 . S
H181 C177 0.930 . S
O182 Co171 2.039 . S
O182 C172 1.265 . S
C183 O179 1.253 . S
C183 O184 1.227 . S
O184 C183 1.227 . S
N185 Co171 2.140 . S
N185 C188 1.346 . S
N185 C189 1.345 . S
C186 C187 1.387 . S
C186 C190 1.391 . S
C187 C186 1.387 . S
C187 C188 1.369 . S
C187 H196 0.929 . S
C188 N185 1.346 . S
C188 C187 1.369 . S
C188 H191 0.928 . S
C189 N185 1.345 . S
C189 C190 1.371 . S
C189 H192 0.931 . S
C190 C186 1.391 . S
C190 C189 1.371 . S
C190 H197 0.930 . S
H191 C188 0.928 . S
H192 C189 0.931 . S
H193 C169 0.930 . S
H194 C166 0.930 . S
H195 C175 0.930 . S
H196 C187 0.929 . S
H197 C190 0.930 . S
C198 C199 1.351 . S
C198 N201 1.368 . S
C198 H203 0.931 . S
C199 C198 1.351 . S
C199 N200 1.373 . S
C199 H227 0.930 . S
N200 C199 1.373 . S
N200 C202 1.340 . S
N201 C198 1.368 . S
N201 C202 1.321 . S
N201 Co204 2.135 . S
C202 N200 1.340 . S
C202 N201 1.321 . S
C202 H226 0.930 . S
H203 C198 0.931 . S
Co204 N201 2.135 . S
Co204 N207 2.121 . S
Co204 O212 2.055 . S
Co204 O215 2.039 . S
Co204 N218 2.140 . S
C205 O206 1.227 . S
C205 O215 1.265 . S
O206 C205 1.227 . S
N207 Co204 2.121 . S
N207 C209 1.375 . S
N207 C210 1.313 . S
C208 C209 1.338 . S
C208 N211 1.377 . S
C208 H228 0.930 . S
C209 N207 1.375 . S
C209 C208 1.338 . S
C209 H213 0.931 . S
C210 N207 1.313 . S
C210 N211 1.344 . S
C210 H214 0.930 . S
N211 C208 1.377 . S
N211 C210 1.344 . S
O212 Co204 2.055 . S
O212 C216 1.253 . S
H213 C209 0.931 . S
H214 C210 0.930 . S
O215 Co204 2.039 . S
O215 C205 1.265 . S
C216 O212 1.253 . S
C216 O217 1.227 . S
O217 C216 1.227 . S
N218 Co204 2.140 . S
N218 C221 1.346 . S
N218 C222 1.345 . S
C219 C220 1.387 . S
C219 C223 1.391 . S
C220 C219 1.387 . S
C220 C221 1.369 . S
C220 H229 0.929 . S
C221 N218 1.346 . S
C221 C220 1.369 . S
C221 H224 0.928 . S
C222 N218 1.345 . S
C222 C223 1.371 . S
C222 H225 0.931 . S
C223 C219 1.391 . S
C223 C222 1.371 . S
C223 H230 0.930 . S
H224 C221 0.928 . S
H225 C222 0.931 . S
H226 C202 0.930 . S
H227 C199 0.930 . S
H228 C208 0.930 . S
H229 C220 0.929 . S
H230 C223 0.930 . S
C231 C232 1.351 . S
C231 N234 1.368 . S
C231 H236 0.931 . S
C232 C231 1.351 . S
C232 N233 1.373 . S
C232 H260 0.930 . S
N233 C232 1.373 . S
N233 C235 1.340 . S
N234 C231 1.368 . S
N234 C235 1.321 . S
N234 Co237 2.135 . S
C235 N233 1.340 . S
C235 N234 1.321 . S
C235 H259 0.930 . S
H236 C231 0.931 . S
Co237 N234 2.135 . S
Co237 N240 2.121 1_556 S
Co237 O245 2.055 . S
Co237 O248 2.039 . S
Co237 N251 2.140 . S
C238 O239 1.227 . S
C238 O248 1.265 . S
O239 C238 1.227 . S
N240 Co237 2.121 1_554 S
N240 C242 1.375 . S
N240 C243 1.313 . S
C241 C242 1.338 . S
C241 N244 1.377 . S
C241 H261 0.930 . S
C242 N240 1.375 . S
C242 C241 1.338 . S
C242 H246 0.931 . S
C243 N240 1.313 . S
C243 N244 1.344 . S
C243 H247 0.930 . S
N244 C241 1.377 . S
N244 C243 1.344 . S
O245 Co237 2.055 . S
O245 C249 1.253 . S
H246 C242 0.931 . S
H247 C243 0.930 . S
O248 Co237 2.039 . S
O248 C238 1.265 . S
C249 O245 1.253 . S
C249 O250 1.227 . S
O250 C249 1.227 . S
N251 Co237 2.140 . S
N251 C254 1.346 . S
N251 C255 1.345 . S
C252 C253 1.387 . S
C252 C256 1.391 . S
C253 C252 1.387 . S
C253 C254 1.369 . S
C253 H262 0.929 . S
C254 N251 1.346 . S
C254 C253 1.369 . S
C254 H257 0.928 . S
C255 N251 1.345 . S
C255 C256 1.371 . S
C255 H258 0.931 . S
C256 C252 1.391 . S
C256 C255 1.371 . S
C256 H263 0.930 . S
H257 C254 0.928 . S
H258 C255 0.931 . S
H259 C235 0.930 . S
H260 C232 0.930 . S
H261 C241 0.930 . S
H262 C253 0.929 . S
H263 C256 0.930 . S
C264 C265 1.351 . S
C264 N267 1.368 . S
C264 H269 0.931 . S
C265 C264 1.351 . S
C265 N266 1.373 . S
C265 H293 0.930 . S
N266 C265 1.373 . S
N266 C268 1.340 . S
N267 C264 1.368 . S
N267 C268 1.321 . S
N267 Co270 2.135 . S
C268 N266 1.340 . S
C268 N267 1.321 . S
C268 H292 0.930 . S
H269 C264 0.931 . S
Co270 N267 2.135 . S
Co270 N273 2.121 . S
Co270 O278 2.055 . S
Co270 O281 2.039 . S
Co270 N284 2.140 . S
C271 O272 1.227 . S
C271 O281 1.265 . S
O272 C271 1.227 . S
N273 Co270 2.121 . S
N273 C275 1.375 . S
N273 C276 1.313 . S
C274 C275 1.338 . S
C274 N277 1.377 . S
C274 H294 0.930 . S
C275 N273 1.375 . S
C275 C274 1.338 . S
C275 H279 0.931 . S
C276 N273 1.313 . S
C276 N277 1.344 . S
C276 H280 0.930 . S
N277 C274 1.377 . S
N277 C276 1.344 . S
O278 Co270 2.055 . S
O278 C282 1.253 . S
H279 C275 0.931 . S
H280 C276 0.930 . S
O281 Co270 2.039 . S
O281 C271 1.265 . S
C282 O278 1.253 . S
C282 O283 1.227 . S
O283 C282 1.227 . S
N284 Co270 2.140 . S
N284 C287 1.346 . S
N284 C288 1.345 . S
C285 C286 1.387 . S
C285 C289 1.391 . S
C286 C285 1.387 . S
C286 C287 1.369 . S
C286 H295 0.929 . S
C287 N284 1.346 . S
C287 C286 1.369 . S
C287 H290 0.928 . S
C288 N284 1.345 . S
C288 C289 1.371 . S
C288 H291 0.931 . S
C289 C285 1.391 . S
C289 C288 1.371 . S
C289 H296 0.930 . S
H290 C287 0.928 . S
H291 C288 0.931 . S
H292 C268 0.930 . S
H293 C265 0.930 . S
H294 C274 0.930 . S
H295 C286 0.929 . S
H296 C289 0.930 . S
C297 C298 1.351 . S
C297 N300 1.368 . S
C297 H302 0.931 . S
C298 C297 1.351 . S
C298 N299 1.373 . S
C298 H326 0.930 . S
N299 C298 1.373 . S
N299 C301 1.340 . S
N300 C297 1.368 . S
N300 C301 1.321 . S
N300 Co303 2.135 . S
C301 N299 1.340 . S
C301 N300 1.321 . S
C301 H325 0.930 . S
H302 C297 0.931 . S
Co303 N300 2.135 . S
Co303 N306 2.121 . S
Co303 O311 2.055 . S
Co303 O314 2.039 . S
Co303 N317 2.140 . S
C304 O305 1.227 . S
C304 O314 1.265 . S
O305 C304 1.227 . S
N306 Co303 2.121 . S
N306 C308 1.375 . S
N306 C309 1.313 . S
C307 C308 1.338 . S
C307 N310 1.377 . S
C307 H327 0.930 . S
C308 N306 1.375 . S
C308 C307 1.338 . S
C308 H312 0.931 . S
C309 N306 1.313 . S
C309 N310 1.344 . S
C309 H313 0.930 . S
N310 C307 1.377 . S
N310 C309 1.344 . S
O311 Co303 2.055 . S
O311 C315 1.253 . S
H312 C308 0.931 . S
H313 C309 0.930 . S
O314 Co303 2.039 . S
O314 C304 1.265 . S
C315 O311 1.253 . S
C315 O316 1.227 . S
O316 C315 1.227 . S
N317 Co303 2.140 . S
N317 C320 1.346 . S
N317 C321 1.345 . S
C318 C319 1.387 . S
C318 C322 1.391 . S
C319 C318 1.387 . S
C319 C320 1.369 . S
C319 H328 0.929 . S
C320 N317 1.346 . S
C320 C319 1.369 . S
C320 H323 0.928 . S
C321 N317 1.345 . S
C321 C322 1.371 . S
C321 H324 0.931 . S
C322 C318 1.391 . S
C322 C321 1.371 . S
C322 H329 0.930 . S
H323 C320 0.928 . S
H324 C321 0.931 . S
H325 C301 0.930 . S
H326 C298 0.930 . S
H327 C307 0.930 . S
H328 C319 0.929 . S
H329 C322 0.930 . S
C330 C331 1.351 . S
C330 N333 1.368 . S
C330 H335 0.931 . S
C331 C330 1.351 . S
C331 N332 1.373 . S
C331 H359 0.930 . S
N332 C331 1.373 . S
N332 C334 1.340 . S
N333 C330 1.368 . S
N333 C334 1.321 . S
N333 Co336 2.135 . S
C334 N332 1.340 . S
C334 N333 1.321 . S
C334 H358 0.930 . S
H335 C330 0.931 . S
Co336 N333 2.135 . S
Co336 N339 2.121 . S
Co336 O344 2.055 . S
Co336 O347 2.039 . S
Co336 N350 2.140 . S
C337 O338 1.227 . S
C337 O347 1.265 . S
O338 C337 1.227 . S
N339 Co336 2.121 . S
N339 C341 1.375 . S
N339 C342 1.313 . S
C340 C341 1.338 . S
C340 N343 1.377 . S
C340 H360 0.930 . S
C341 N339 1.375 . S
C341 C340 1.338 . S
C341 H345 0.931 . S
C342 N339 1.313 . S
C342 N343 1.344 . S
C342 H346 0.930 . S
N343 C340 1.377 . S
N343 C342 1.344 . S
O344 Co336 2.055 . S
O344 C348 1.253 . S
H345 C341 0.931 . S
H346 C342 0.930 . S
O347 Co336 2.039 . S
O347 C337 1.265 . S
C348 O344 1.253 . S
C348 O349 1.227 . S
O349 C348 1.227 . S
N350 Co336 2.140 . S
N350 C353 1.346 . S
N350 C354 1.345 . S
C351 C352 1.387 . S
C351 C355 1.391 . S
C352 C351 1.387 . S
C352 C353 1.369 . S
C352 H361 0.929 . S
C353 N350 1.346 . S
C353 C352 1.369 . S
C353 H356 0.928 . S
C354 N350 1.345 . S
C354 C355 1.371 . S
C354 H357 0.931 . S
C355 C351 1.391 . S
C355 C354 1.371 . S
C355 H362 0.930 . S
H356 C353 0.928 . S
H357 C354 0.931 . S
H358 C334 0.930 . S
H359 C331 0.930 . S
H360 C340 0.930 . S
H361 C352 0.929 . S
H362 C355 0.930 . S
C363 C364 1.351 . S
C363 N366 1.368 . S
C363 H368 0.931 . S
C364 C363 1.351 . S
C364 N365 1.373 . S
C364 H392 0.930 . S
N365 C364 1.373 . S
N365 C367 1.340 . S
N366 C363 1.368 . S
N366 C367 1.321 . S
N366 Co369 2.135 . S
C367 N365 1.340 . S
C367 N366 1.321 . S
C367 H391 0.930 . S
H368 C363 0.931 . S
Co369 N366 2.135 . S
Co369 N372 2.121 1_556 S
Co369 O377 2.055 . S
Co369 O380 2.039 . S
Co369 N383 2.140 . S
C370 O371 1.227 . S
C370 O380 1.265 . S
O371 C370 1.227 . S
N372 Co369 2.121 1_554 S
N372 C374 1.375 . S
N372 C375 1.313 . S
C373 C374 1.338 . S
C373 N376 1.377 . S
C373 H393 0.930 . S
C374 N372 1.375 . S
C374 C373 1.338 . S
C374 H378 0.931 . S
C375 N372 1.313 . S
C375 N376 1.344 . S
C375 H379 0.930 . S
N376 C373 1.377 . S
N376 C375 1.344 . S
O377 Co369 2.055 . S
O377 C381 1.253 . S
H378 C374 0.931 . S
H379 C375 0.930 . S
O380 Co369 2.039 . S
O380 C370 1.265 . S
C381 O377 1.253 . S
C381 O382 1.227 . S
O382 C381 1.227 . S
N383 Co369 2.140 . S
N383 C386 1.346 . S
N383 C387 1.345 . S
C384 C385 1.387 . S
C384 C388 1.391 . S
C385 C384 1.387 . S
C385 C386 1.369 . S
C385 H394 0.929 . S
C386 N383 1.346 . S
C386 C385 1.369 . S
C386 H389 0.928 . S
C387 N383 1.345 . S
C387 C388 1.371 . S
C387 H390 0.931 . S
C388 C384 1.391 . S
C388 C387 1.371 . S
C388 H395 0.930 . S
H389 C386 0.928 . S
H390 C387 0.931 . S
H391 C367 0.930 . S
H392 C364 0.930 . S
H393 C373 0.930 . S
H394 C385 0.929 . S
H395 C388 0.930 . S
C396 C397 1.351 . S
C396 N399 1.368 . S
C396 H401 0.931 . S
C397 C396 1.351 . S
C397 N398 1.373 . S
C397 H425 0.930 . S
N398 C397 1.373 . S
N398 C400 1.340 . S
N399 C396 1.368 . S
N399 C400 1.321 . S
N399 Co402 2.135 . S
C400 N398 1.340 . S
C400 N399 1.321 . S
C400 H424 0.930 . S
H401 C396 0.931 . S
Co402 N399 2.135 . S
Co402 N405 2.121 . S
Co402 O410 2.055 . S
Co402 O413 2.039 . S
Co402 N416 2.140 . S
C403 O404 1.227 . S
C403 O413 1.265 . S
O404 C403 1.227 . S
N405 Co402 2.121 . S
N405 C407 1.375 . S
N405 C408 1.313 . S
C406 C407 1.338 . S
C406 N409 1.377 . S
C406 H426 0.930 . S
C407 N405 1.375 . S
C407 C406 1.338 . S
C407 H411 0.931 . S
C408 N405 1.313 . S
C408 N409 1.344 . S
C408 H412 0.930 . S
N409 C406 1.377 . S
N409 C408 1.344 . S
O410 Co402 2.055 . S
O410 C414 1.253 . S
H411 C407 0.931 . S
H412 C408 0.930 . S
O413 Co402 2.039 . S
O413 C403 1.265 . S
C414 O410 1.253 . S
C414 O415 1.227 . S
O415 C414 1.227 . S
N416 Co402 2.140 . S
N416 C419 1.346 . S
N416 C420 1.345 . S
C417 C418 1.387 . S
C417 C421 1.391 . S
C418 C417 1.387 . S
C418 C419 1.369 . S
C418 H427 0.929 . S
C419 N416 1.346 . S
C419 C418 1.369 . S
C419 H422 0.928 . S
C420 N416 1.345 . S
C420 C421 1.371 . S
C420 H423 0.931 . S
C421 C417 1.391 . S
C421 C420 1.371 . S
C421 H428 0.930 . S
H422 C419 0.928 . S
H423 C420 0.931 . S
H424 C400 0.930 . S
H425 C397 0.930 . S
H426 C406 0.930 . S
H427 C418 0.929 . S
H428 C421 0.930 . S
C429 C430 1.351 . S
C429 N432 1.368 . S
C429 H434 0.931 . S
C430 C429 1.351 . S
C430 N431 1.373 . S
C430 H458 0.930 . S
N431 C430 1.373 . S
N431 C433 1.340 . S
N432 C429 1.368 . S
N432 C433 1.321 . S
N432 Co435 2.135 . S
C433 N431 1.340 . S
C433 N432 1.321 . S
C433 H457 0.930 . S
H434 C429 0.931 . S
Co435 N432 2.135 . S
Co435 N438 2.121 . S
Co435 O443 2.055 . S
Co435 O446 2.039 . S
Co435 N449 2.140 . S
C436 O437 1.227 . S
C436 O446 1.265 . S
O437 C436 1.227 . S
N438 Co435 2.121 . S
N438 C440 1.375 . S
N438 C441 1.313 . S
C439 C440 1.338 . S
C439 N442 1.377 . S
C439 H459 0.930 . S
C440 N438 1.375 . S
C440 C439 1.338 . S
C440 H444 0.931 . S
C441 N438 1.313 . S
C441 N442 1.344 . S
C441 H445 0.930 . S
N442 C439 1.377 . S
N442 C441 1.344 . S
O443 Co435 2.055 . S
O443 C447 1.253 . S
H444 C440 0.931 . S
H445 C441 0.930 . S
O446 Co435 2.039 . S
O446 C436 1.265 . S
C447 O443 1.253 . S
C447 O448 1.227 . S
O448 C447 1.227 . S
N449 Co435 2.140 . S
N449 C452 1.346 . S
N449 C453 1.345 . S
C450 C451 1.387 . S
C450 C454 1.391 . S
C451 C450 1.387 . S
C451 C452 1.369 . S
C451 H460 0.929 . S
C452 N449 1.346 . S
C452 C451 1.369 . S
C452 H455 0.928 . S
C453 N449 1.345 . S
C453 C454 1.371 . S
C453 H456 0.931 . S
C454 C450 1.391 . S
C454 C453 1.371 . S
C454 H461 0.930 . S
H455 C452 0.928 . S
H456 C453 0.931 . S
H457 C433 0.930 . S
H458 C430 0.930 . S
H459 C439 0.930 . S
H460 C451 0.929 . S
H461 C454 0.930 . S
C462 C463 1.351 . S
C462 N465 1.368 . S
C462 H467 0.931 . S
C463 C462 1.351 . S
C463 N464 1.373 . S
C463 H491 0.930 . S
N464 C463 1.373 . S
N464 C466 1.340 . S
N465 C462 1.368 . S
N465 C466 1.321 . S
N465 Co468 2.135 . S
C466 N464 1.340 . S
C466 N465 1.321 . S
C466 H490 0.930 . S
H467 C462 0.931 . S
Co468 N465 2.135 . S
Co468 N471 2.121 . S
Co468 O476 2.055 . S
Co468 O479 2.039 . S
Co468 N482 2.140 . S
C469 O470 1.227 . S
C469 O479 1.265 . S
O470 C469 1.227 . S
N471 Co468 2.121 . S
N471 C473 1.375 . S
N471 C474 1.313 . S
C472 C473 1.338 . S
C472 N475 1.377 . S
C472 H492 0.930 . S
C473 N471 1.375 . S
C473 C472 1.338 . S
C473 H477 0.931 . S
C474 N471 1.313 . S
C474 N475 1.344 . S
C474 H478 0.930 . S
N475 C472 1.377 . S
N475 C474 1.344 . S
O476 Co468 2.055 . S
O476 C480 1.253 . S
H477 C473 0.931 . S
H478 C474 0.930 . S
O479 Co468 2.039 . S
O479 C469 1.265 . S
C480 O476 1.253 . S
C480 O481 1.227 . S
O481 C480 1.227 . S
N482 Co468 2.140 . S
N482 C485 1.346 . S
N482 C486 1.345 . S
C483 C484 1.387 . S
C483 C487 1.391 . S
C484 C483 1.387 . S
C484 C485 1.369 . S
C484 H493 0.929 . S
C485 N482 1.346 . S
C485 C484 1.369 . S
C485 H488 0.928 . S
C486 N482 1.345 . S
C486 C487 1.371 . S
C486 H489 0.931 . S
C487 C483 1.391 . S
C487 C486 1.371 . S
C487 H494 0.930 . S
H488 C485 0.928 . S
H489 C486 0.931 . S
H490 C466 0.930 . S
H491 C463 0.930 . S
H492 C472 0.930 . S
H493 C484 0.929 . S
H494 C487 0.930 . S
C495 C496 1.351 . S
C495 N498 1.368 . S
C495 H500 0.931 . S
C496 C495 1.351 . S
C496 N497 1.373 . S
C496 H524 0.930 . S
N497 C496 1.373 . S
N497 C499 1.340 . S
N498 C495 1.368 . S
N498 C499 1.321 . S
N498 Co501 2.135 . S
C499 N497 1.340 . S
C499 N498 1.321 . S
C499 H523 0.930 . S
H500 C495 0.931 . S
Co501 N498 2.135 . S
Co501 N504 2.121 1_554 S
Co501 O509 2.055 . S
Co501 O512 2.039 . S
Co501 N515 2.140 . S
C502 O503 1.227 . S
C502 O512 1.265 . S
O503 C502 1.227 . S
N504 Co501 2.121 1_556 S
N504 C506 1.375 . S
N504 C507 1.313 . S
C505 C506 1.338 . S
C505 N508 1.377 . S
C505 H525 0.930 . S
C506 N504 1.375 . S
C506 C505 1.338 . S
C506 H510 0.931 . S
C507 N504 1.313 . S
C507 N508 1.344 . S
C507 H511 0.930 . S
N508 C505 1.377 . S
N508 C507 1.344 . S
O509 Co501 2.055 . S
O509 C513 1.253 . S
H510 C506 0.931 . S
H511 C507 0.930 . S
O512 Co501 2.039 . S
O512 C502 1.265 . S
C513 O509 1.253 . S
C513 O514 1.227 . S
O514 C513 1.227 . S
N515 Co501 2.140 . S
N515 C518 1.346 . S
N515 C519 1.345 . S
C516 C517 1.387 . S
C516 C520 1.391 . S
C517 C516 1.387 . S
C517 C518 1.369 . S
C517 H526 0.929 . S
C518 N515 1.346 . S
C518 C517 1.369 . S
C518 H521 0.928 . S
C519 N515 1.345 . S
C519 C520 1.371 . S
C519 H522 0.931 . S
C520 C516 1.391 . S
C520 C519 1.371 . S
C520 H527 0.930 . S
H521 C518 0.928 . S
H522 C519 0.931 . S
H523 C499 0.930 . S
H524 C496 0.930 . S
H525 C505 0.930 . S
H526 C517 0.929 . S
H527 C520 0.930 . S
C528 C529 1.351 . S
C528 N531 1.368 . S
C528 H533 0.931 . S
C529 C528 1.351 . S
C529 N530 1.373 . S
C529 H557 0.930 . S
N530 C529 1.373 . S
N530 C532 1.340 . S
N531 C528 1.368 . S
N531 C532 1.321 . S
N531 Co534 2.135 . S
C532 N530 1.340 . S
C532 N531 1.321 . S
C532 H556 0.930 . S
H533 C528 0.931 . S
Co534 N531 2.135 . S
Co534 N537 2.121 . S
Co534 O542 2.055 . S
Co534 O545 2.039 . S
Co534 N548 2.140 . S
C535 O536 1.227 . S
C535 O545 1.265 . S
O536 C535 1.227 . S
N537 Co534 2.121 . S
N537 C539 1.375 . S
N537 C540 1.313 . S
C538 C539 1.338 . S
C538 N541 1.377 . S
C538 H558 0.930 . S
C539 N537 1.375 . S
C539 C538 1.338 . S
C539 H543 0.931 . S
C540 N537 1.313 . S
C540 N541 1.344 . S
C540 H544 0.930 . S
N541 C538 1.377 . S
N541 C540 1.344 . S
O542 Co534 2.055 . S
O542 C546 1.253 . S
H543 C539 0.931 . S
H544 C540 0.930 . S
O545 Co534 2.039 . S
O545 C535 1.265 . S
C546 O542 1.253 . S
C546 O547 1.227 . S
O547 C546 1.227 . S
N548 Co534 2.140 . S
N548 C551 1.346 . S
N548 C552 1.345 . S
C549 C550 1.387 . S
C549 C553 1.391 . S
C550 C549 1.387 . S
C550 C551 1.369 . S
C550 H559 0.929 . S
C551 N548 1.346 . S
C551 C550 1.369 . S
C551 H554 0.928 . S
C552 N548 1.345 . S
C552 C553 1.371 . S
C552 H555 0.931 . S
C553 C549 1.391 . S
C553 C552 1.371 . S
C553 H560 0.930 . S
H554 C551 0.928 . S
H555 C552 0.931 . S
H556 C532 0.930 . S
H557 C529 0.930 . S
H558 C538 0.930 . S
H559 C550 0.929 . S
H560 C553 0.930 . S
C561 C562 1.351 . S
C561 N564 1.368 . S
C561 H566 0.931 . S
C562 C561 1.351 . S
C562 N563 1.373 . S
C562 H590 0.930 . S
N563 C562 1.373 . S
N563 C565 1.340 . S
N564 C561 1.368 . S
N564 C565 1.321 . S
N564 Co567 2.135 . S
C565 N563 1.340 . S
C565 N564 1.321 . S
C565 H589 0.930 . S
H566 C561 0.931 . S
Co567 N564 2.135 . S
Co567 N570 2.121 1_554 S
Co567 O575 2.055 . S
Co567 O578 2.039 . S
Co567 N581 2.140 . S
C568 O569 1.227 . S
C568 O578 1.265 . S
O569 C568 1.227 . S
N570 Co567 2.121 1_556 S
N570 C572 1.375 . S
N570 C573 1.313 . S
C571 C572 1.338 . S
C571 N574 1.377 . S
C571 H591 0.930 . S
C572 N570 1.375 . S
C572 C571 1.338 . S
C572 H576 0.931 . S
C573 N570 1.313 . S
C573 N574 1.344 . S
C573 H577 0.930 . S
N574 C571 1.377 . S
N574 C573 1.344 . S
O575 Co567 2.055 . S
O575 C579 1.253 . S
H576 C572 0.931 . S
H577 C573 0.930 . S
O578 Co567 2.039 . S
O578 C568 1.265 . S
C579 O575 1.253 . S
C579 O580 1.227 . S
O580 C579 1.227 . S
N581 Co567 2.140 . S
N581 C584 1.346 . S
N581 C585 1.345 . S
C582 C583 1.387 . S
C582 C586 1.391 . S
C583 C582 1.387 . S
C583 C584 1.369 . S
C583 H592 0.929 . S
C584 N581 1.346 . S
C584 C583 1.369 . S
C584 H587 0.928 . S
C585 N581 1.345 . S
C585 C586 1.371 . S
C585 H588 0.931 . S
C586 C582 1.391 . S
C586 C585 1.371 . S
C586 H593 0.930 . S
H587 C584 0.928 . S
H588 C585 0.931 . S
H589 C565 0.930 . S
H590 C562 0.930 . S
H591 C571 0.930 . S
H592 C583 0.929 . S
H593 C586 0.930 . S
C594 C595 1.351 . S
C594 N597 1.368 . S
C594 H599 0.931 . S
C595 C594 1.351 . S
C595 N596 1.373 . S
C595 H623 0.930 . S
N596 C595 1.373 . S
N596 C598 1.340 . S
N597 C594 1.368 . S
N597 C598 1.321 . S
N597 Co600 2.135 . S
C598 N596 1.340 . S
C598 N597 1.321 . S
C598 H622 0.930 . S
H599 C594 0.931 . S
Co600 N597 2.135 . S
Co600 N603 2.121 . S
Co600 O608 2.055 . S
Co600 O611 2.039 . S
Co600 N614 2.140 . S
C601 O602 1.227 . S
C601 O611 1.265 . S
O602 C601 1.227 . S
N603 Co600 2.121 . S
N603 C605 1.375 . S
N603 C606 1.313 . S
C604 C605 1.338 . S
C604 N607 1.377 . S
C604 H624 0.930 . S
C605 N603 1.375 . S
C605 C604 1.338 . S
C605 H609 0.931 . S
C606 N603 1.313 . S
C606 N607 1.344 . S
C606 H610 0.930 . S
N607 C604 1.377 . S
N607 C606 1.344 . S
O608 Co600 2.055 . S
O608 C612 1.253 . S
H609 C605 0.931 . S
H610 C606 0.930 . S
O611 Co600 2.039 . S
O611 C601 1.265 . S
C612 O608 1.253 . S
C612 O613 1.227 . S
O613 C612 1.227 . S
N614 Co600 2.140 . S
N614 C617 1.346 . S
N614 C618 1.345 . S
C615 C616 1.387 . S
C615 C619 1.391 . S
C616 C615 1.387 . S
C616 C617 1.369 . S
C616 H625 0.929 . S
C617 N614 1.346 . S
C617 C616 1.369 . S
C617 H620 0.928 . S
C618 N614 1.345 . S
C618 C619 1.371 . S
C618 H621 0.931 . S
C619 C615 1.391 . S
C619 C618 1.371 . S
C619 H626 0.930 . S
H620 C617 0.928 . S
H621 C618 0.931 . S
H622 C598 0.930 . S
H623 C595 0.930 . S
H624 C604 0.930 . S
H625 C616 0.929 . S
H626 C619 0.930 . S
C627 C628 1.351 . S
C627 N630 1.368 . S
C627 H632 0.931 . S
C628 C627 1.351 . S
C628 N629 1.373 . S
C628 H656 0.930 . S
N629 C628 1.373 . S
N629 C631 1.340 . S
N630 C627 1.368 . S
N630 C631 1.321 . S
N630 Co633 2.135 . S
C631 N629 1.340 . S
C631 N630 1.321 . S
C631 H655 0.930 . S
H632 C627 0.931 . S
Co633 N630 2.135 . S
Co633 N636 2.121 . S
Co633 O641 2.055 . S
Co633 O644 2.039 . S
Co633 N647 2.140 . S
C634 O635 1.227 . S
C634 O644 1.265 . S
O635 C634 1.227 . S
N636 Co633 2.121 . S
N636 C638 1.375 . S
N636 C639 1.313 . S
C637 C638 1.338 . S
C637 N640 1.377 . S
C637 H657 0.930 . S
C638 N636 1.375 . S
C638 C637 1.338 . S
C638 H642 0.931 . S
C639 N636 1.313 . S
C639 N640 1.344 . S
C639 H643 0.930 . S
N640 C637 1.377 . S
N640 C639 1.344 . S
O641 Co633 2.055 . S
O641 C645 1.253 . S
H642 C638 0.931 . S
H643 C639 0.930 . S
O644 Co633 2.039 . S
O644 C634 1.265 . S
C645 O641 1.253 . S
C645 O646 1.227 . S
O646 C645 1.227 . S
N647 Co633 2.140 . S
N647 C650 1.346 . S
N647 C651 1.345 . S
C648 C649 1.387 . S
C648 C652 1.391 . S
C649 C648 1.387 . S
C649 C650 1.369 . S
C649 H658 0.929 . S
C650 N647 1.346 . S
C650 C649 1.369 . S
C650 H653 0.928 . S
C651 N647 1.345 . S
C651 C652 1.371 . S
C651 H654 0.931 . S
C652 C648 1.391 . S
C652 C651 1.371 . S
C652 H659 0.930 . S
H653 C650 0.928 . S
H654 C651 0.931 . S
H655 C631 0.930 . S
H656 C628 0.930 . S
H657 C637 0.930 . S
H658 C649 0.929 . S
H659 C652 0.930 . S
C660 C661 1.351 . S
C660 N663 1.368 . S
C660 H665 0.931 . S
C661 C660 1.351 . S
C661 N662 1.373 . S
C661 H689 0.930 . S
N662 C661 1.373 . S
N662 C664 1.340 . S
N663 C660 1.368 . S
N663 C664 1.321 . S
N663 Co666 2.135 . S
C664 N662 1.340 . S
C664 N663 1.321 . S
C664 H688 0.930 . S
H665 C660 0.931 . S
Co666 N663 2.135 . S
Co666 N669 2.121 . S
Co666 O674 2.055 . S
Co666 O677 2.039 . S
Co666 N680 2.140 . S
C667 O668 1.227 . S
C667 O677 1.265 . S
O668 C667 1.227 . S
N669 Co666 2.121 . S
N669 C671 1.375 . S
N669 C672 1.313 . S
C670 C671 1.338 . S
C670 N673 1.377 . S
C670 H690 0.930 . S
C671 N669 1.375 . S
C671 C670 1.338 . S
C671 H675 0.931 . S
C672 N669 1.313 . S
C672 N673 1.344 . S
C672 H676 0.930 . S
N673 C670 1.377 . S
N673 C672 1.344 . S
O674 Co666 2.055 . S
O674 C678 1.253 . S
H675 C671 0.931 . S
H676 C672 0.930 . S
O677 Co666 2.039 . S
O677 C667 1.265 . S
C678 O674 1.253 . S
C678 O679 1.227 . S
O679 C678 1.227 . S
N680 Co666 2.140 . S
N680 C683 1.346 . S
N680 C684 1.345 . S
C681 C682 1.387 . S
C681 C685 1.391 . S
C682 C681 1.387 . S
C682 C683 1.369 . S
C682 H691 0.929 . S
C683 N680 1.346 . S
C683 C682 1.369 . S
C683 H686 0.928 . S
C684 N680 1.345 . S
C684 C685 1.371 . S
C684 H687 0.931 . S
C685 C681 1.391 . S
C685 C684 1.371 . S
C685 H692 0.930 . S
H686 C683 0.928 . S
H687 C684 0.931 . S
H688 C664 0.930 . S
H689 C661 0.930 . S
H690 C670 0.930 . S
H691 C682 0.929 . S
H692 C685 0.930 . S
C693 C694 1.351 . S
C693 N696 1.368 . S
C693 H698 0.931 . S
C694 C693 1.351 . S
C694 N695 1.373 . S
C694 H722 0.930 . S
N695 C694 1.373 . S
N695 C697 1.340 . S
N696 C693 1.368 . S
N696 C697 1.321 . S
N696 Co699 2.135 . S
C697 N695 1.340 . S
C697 N696 1.321 . S
C697 H721 0.930 . S
H698 C693 0.931 . S
Co699 N696 2.135 . S
Co699 N702 2.121 1_556 S
Co699 O707 2.055 . S
Co699 O710 2.039 . S
Co699 N713 2.140 . S
C700 O701 1.227 . S
C700 O710 1.265 . S
O701 C700 1.227 . S
N702 Co699 2.121 1_554 S
N702 C704 1.375 . S
N702 C705 1.313 . S
C703 C704 1.338 . S
C703 N706 1.377 . S
C703 H723 0.930 . S
C704 N702 1.375 . S
C704 C703 1.338 . S
C704 H708 0.931 . S
C705 N702 1.313 . S
C705 N706 1.344 . S
C705 H709 0.930 . S
N706 C703 1.377 . S
N706 C705 1.344 . S
O707 Co699 2.055 . S
O707 C711 1.253 . S
H708 C704 0.931 . S
H709 C705 0.930 . S
O710 Co699 2.039 . S
O710 C700 1.265 . S
C711 O707 1.253 . S
C711 O712 1.227 . S
O712 C711 1.227 . S
N713 Co699 2.140 . S
N713 C716 1.346 . S
N713 C717 1.345 . S
C714 C715 1.387 . S
C714 C718 1.391 . S
C715 C714 1.387 . S
C715 C716 1.369 . S
C715 H724 0.929 . S
C716 N713 1.346 . S
C716 C715 1.369 . S
C716 H719 0.928 . S
C717 N713 1.345 . S
C717 C718 1.371 . S
C717 H720 0.931 . S
C718 C714 1.391 . S
C718 C717 1.371 . S
C718 H725 0.930 . S
H719 C716 0.928 . S
H720 C717 0.931 . S
H721 C697 0.930 . S
H722 C694 0.930 . S
H723 C703 0.930 . S
H724 C715 0.929 . S
H725 C718 0.930 . S
C726 C727 1.351 . S
C726 N729 1.368 . S
C726 H731 0.931 . S
C727 C726 1.351 . S
C727 N728 1.373 . S
C727 H755 0.930 . S
N728 C727 1.373 . S
N728 C730 1.340 . S
N729 C726 1.368 . S
N729 C730 1.321 . S
N729 Co732 2.135 . S
C730 N728 1.340 . S
C730 N729 1.321 . S
C730 H754 0.930 . S
H731 C726 0.931 . S
Co732 N729 2.135 . S
Co732 N735 2.121 . S
Co732 O740 2.055 . S
Co732 O743 2.039 . S
Co732 N746 2.140 . S
C733 O734 1.227 . S
C733 O743 1.265 . S
O734 C733 1.227 . S
N735 Co732 2.121 . S
N735 C737 1.375 . S
N735 C738 1.313 . S
C736 C737 1.338 . S
C736 N739 1.377 . S
C736 H756 0.930 . S
C737 N735 1.375 . S
C737 C736 1.338 . S
C737 H741 0.931 . S
C738 N735 1.313 . S
C738 N739 1.344 . S
C738 H742 0.930 . S
N739 C736 1.377 . S
N739 C738 1.344 . S
O740 Co732 2.055 . S
O740 C744 1.253 . S
H741 C737 0.931 . S
H742 C738 0.930 . S
O743 Co732 2.039 . S
O743 C733 1.265 . S
C744 O740 1.253 . S
C744 O745 1.227 . S
O745 C744 1.227 . S
N746 Co732 2.140 . S
N746 C749 1.346 . S
N746 C750 1.345 . S
C747 C748 1.387 . S
C747 C751 1.391 . S
C748 C747 1.387 . S
C748 C749 1.369 . S
C748 H757 0.929 . S
C749 N746 1.346 . S
C749 C748 1.369 . S
C749 H752 0.928 . S
C750 N746 1.345 . S
C750 C751 1.371 . S
C750 H753 0.931 . S
C751 C747 1.391 . S
C751 C750 1.371 . S
C751 H758 0.930 . S
H752 C749 0.928 . S
H753 C750 0.931 . S
H754 C730 0.930 . S
H755 C727 0.930 . S
H756 C736 0.930 . S
H757 C748 0.929 . S
H758 C751 0.930 . S
C759 C760 1.351 . S
C759 N762 1.368 . S
C759 H764 0.931 . S
C760 C759 1.351 . S
C760 N761 1.373 . S
C760 H788 0.930 . S
N761 C760 1.373 . S
N761 C763 1.340 . S
N762 C759 1.368 . S
N762 C763 1.321 . S
N762 Co765 2.135 . S
C763 N761 1.340 . S
C763 N762 1.321 . S
C763 H787 0.930 . S
H764 C759 0.931 . S
Co765 N762 2.135 . S
Co765 N768 2.121 . S
Co765 O773 2.055 . S
Co765 O776 2.039 . S
Co765 N779 2.140 . S
C766 O767 1.227 . S
C766 O776 1.265 . S
O767 C766 1.227 . S
N768 Co765 2.121 . S
N768 C770 1.375 . S
N768 C771 1.313 . S
C769 C770 1.338 . S
C769 N772 1.377 . S
C769 H789 0.930 . S
C770 N768 1.375 . S
C770 C769 1.338 . S
C770 H774 0.931 . S
C771 N768 1.313 . S
C771 N772 1.344 . S
C771 H775 0.930 . S
N772 C769 1.377 . S
N772 C771 1.344 . S
O773 Co765 2.055 . S
O773 C777 1.253 . S
H774 C770 0.931 . S
H775 C771 0.930 . S
O776 Co765 2.039 . S
O776 C766 1.265 . S
C777 O773 1.253 . S
C777 O778 1.227 . S
O778 C777 1.227 . S
N779 Co765 2.140 . S
N779 C782 1.346 . S
N779 C783 1.345 . S
C780 C781 1.387 . S
C780 C784 1.391 . S
C781 C780 1.387 . S
C781 C782 1.369 . S
C781 H790 0.929 . S
C782 N779 1.346 . S
C782 C781 1.369 . S
C782 H785 0.928 . S
C783 N779 1.345 . S
C783 C784 1.371 . S
C783 H786 0.931 . S
C784 C780 1.391 . S
C784 C783 1.371 . S
C784 H791 0.930 . S
H785 C782 0.928 . S
H786 C783 0.931 . S
H787 C763 0.930 . S
H788 C760 0.930 . S
H789 C769 0.930 . S
H790 C781 0.929 . S
H791 C784 0.930 . S
C792 C793 1.351 . S
C792 N795 1.368 . S
C792 H797 0.931 . S
C793 C792 1.351 . S
C793 N794 1.373 . S
C793 H821 0.930 . S
N794 C793 1.373 . S
N794 C796 1.340 . S
N795 C792 1.368 . S
N795 C796 1.321 . S
N795 Co798 2.135 . S
C796 N794 1.340 . S
C796 N795 1.321 . S
C796 H820 0.930 . S
H797 C792 0.931 . S
Co798 N795 2.135 . S
Co798 N801 2.121 . S
Co798 O806 2.055 . S
Co798 O809 2.039 . S
Co798 N812 2.140 . S
C799 O800 1.227 . S
C799 O809 1.265 . S
O800 C799 1.227 . S
N801 Co798 2.121 . S
N801 C803 1.375 . S
N801 C804 1.313 . S
C802 C803 1.338 . S
C802 N805 1.377 . S
C802 H822 0.930 . S
C803 N801 1.375 . S
C803 C802 1.338 . S
C803 H807 0.931 . S
C804 N801 1.313 . S
C804 N805 1.344 . S
C804 H808 0.930 . S
N805 C802 1.377 . S
N805 C804 1.344 . S
O806 Co798 2.055 . S
O806 C810 1.253 . S
H807 C803 0.931 . S
H808 C804 0.930 . S
O809 Co798 2.039 . S
O809 C799 1.265 . S
C810 O806 1.253 . S
C810 O811 1.227 . S
O811 C810 1.227 . S
N812 Co798 2.140 . S
N812 C815 1.346 . S
N812 C816 1.345 . S
C813 C814 1.387 . S
C813 C817 1.391 . S
C814 C813 1.387 . S
C814 C815 1.369 . S
C814 H823 0.929 . S
C815 N812 1.346 . S
C815 C814 1.369 . S
C815 H818 0.928 . S
C816 N812 1.345 . S
C816 C817 1.371 . S
C816 H819 0.931 . S
C817 C813 1.391 . S
C817 C816 1.371 . S
C817 H824 0.930 . S
H818 C815 0.928 . S
H819 C816 0.931 . S
H820 C796 0.930 . S
H821 C793 0.930 . S
H822 C802 0.930 . S
H823 C814 0.929 . S
H824 C817 0.930 . S
C825 C826 1.351 . S
C825 N828 1.368 . S
C825 H830 0.931 . S
C826 C825 1.351 . S
C826 N827 1.373 . S
C826 H854 0.930 . S
N827 C826 1.373 . S
N827 C829 1.340 . S
N828 C825 1.368 . S
N828 C829 1.321 . S
N828 Co831 2.135 . S
C829 N827 1.340 . S
C829 N828 1.321 . S
C829 H853 0.930 . S
H830 C825 0.931 . S
Co831 N828 2.135 . S
Co831 N834 2.121 1_556 S
Co831 O839 2.055 . S
Co831 O842 2.039 . S
Co831 N845 2.140 . S
C832 O833 1.227 . S
C832 O842 1.265 . S
O833 C832 1.227 . S
N834 Co831 2.121 1_554 S
N834 C836 1.375 . S
N834 C837 1.313 . S
C835 C836 1.338 . S
C835 N838 1.377 . S
C835 H855 0.930 . S
C836 N834 1.375 . S
C836 C835 1.338 . S
C836 H840 0.931 . S
C837 N834 1.313 . S
C837 N838 1.344 . S
C837 H841 0.930 . S
N838 C835 1.377 . S
N838 C837 1.344 . S
O839 Co831 2.055 . S
O839 C843 1.253 . S
H840 C836 0.931 . S
H841 C837 0.930 . S
O842 Co831 2.039 . S
O842 C832 1.265 . S
C843 O839 1.253 . S
C843 O844 1.227 . S
O844 C843 1.227 . S
N845 Co831 2.140 . S
N845 C848 1.346 . S
N845 C849 1.345 . S
C846 C847 1.387 . S
C846 C850 1.391 . S
C847 C846 1.387 . S
C847 C848 1.369 . S
C847 H856 0.929 . S
C848 N845 1.346 . S
C848 C847 1.369 . S
C848 H851 0.928 . S
C849 N845 1.345 . S
C849 C850 1.371 . S
C849 H852 0.931 . S
C850 C846 1.391 . S
C850 C849 1.371 . S
C850 H857 0.930 . S
H851 C848 0.928 . S
H852 C849 0.931 . S
H853 C829 0.930 . S
H854 C826 0.930 . S
H855 C835 0.930 . S
H856 C847 0.929 . S
H857 C850 0.930 . S
C858 C859 1.351 . S
C858 N861 1.368 . S
C858 H863 0.931 . S
C859 C858 1.351 . S
C859 N860 1.373 . S
C859 H887 0.930 . S
N860 C859 1.373 . S
N860 C862 1.340 . S
N861 C858 1.368 . S
N861 C862 1.321 . S
N861 Co864 2.135 . S
C862 N860 1.340 . S
C862 N861 1.321 . S
C862 H886 0.930 . S
H863 C858 0.931 . S
Co864 N861 2.135 . S
Co864 N867 2.121 . S
Co864 O872 2.055 . S
Co864 O875 2.039 . S
Co864 N878 2.140 . S
C865 O866 1.227 . S
C865 O875 1.265 . S
O866 C865 1.227 . S
N867 Co864 2.121 . S
N867 C869 1.375 . S
N867 C870 1.313 . S
C868 C869 1.338 . S
C868 N871 1.377 . S
C868 H888 0.930 . S
C869 N867 1.375 . S
C869 C868 1.338 . S
C869 H873 0.931 . S
C870 N867 1.313 . S
C870 N871 1.344 . S
C870 H874 0.930 . S
N871 C868 1.377 . S
N871 C870 1.344 . S
O872 Co864 2.055 . S
O872 C876 1.253 . S
H873 C869 0.931 . S
H874 C870 0.930 . S
O875 Co864 2.039 . S
O875 C865 1.265 . S
C876 O872 1.253 . S
C876 O877 1.227 . S
O877 C876 1.227 . S
N878 Co864 2.140 . S
N878 C881 1.346 . S
N878 C882 1.345 . S
C879 C880 1.387 . S
C879 C883 1.391 . S
C880 C879 1.387 . S
C880 C881 1.369 . S
C880 H889 0.929 . S
C881 N878 1.346 . S
C881 C880 1.369 . S
C881 H884 0.928 . S
C882 N878 1.345 . S
C882 C883 1.371 . S
C882 H885 0.931 . S
C883 C879 1.391 . S
C883 C882 1.371 . S
C883 H890 0.930 . S
H884 C881 0.928 . S
H885 C882 0.931 . S
H886 C862 0.930 . S
H887 C859 0.930 . S
H888 C868 0.930 . S
H889 C880 0.929 . S
H890 C883 0.930 . S
C891 C892 1.351 . S
C891 N894 1.368 . S
C891 H896 0.931 . S
C892 C891 1.351 . S
C892 N893 1.373 . S
C892 H920 0.930 . S
N893 C892 1.373 . S
N893 C895 1.340 . S
N894 C891 1.368 . S
N894 C895 1.321 . S
N894 Co897 2.135 . S
C895 N893 1.340 . S
C895 N894 1.321 . S
C895 H919 0.930 . S
H896 C891 0.931 . S
Co897 N894 2.135 . S
Co897 N900 2.121 . S
Co897 O905 2.055 . S
Co897 O908 2.039 . S
Co897 N911 2.140 . S
C898 O899 1.227 . S
C898 O908 1.265 . S
O899 C898 1.227 . S
N900 Co897 2.121 . S
N900 C902 1.375 . S
N900 C903 1.313 . S
C901 C902 1.338 . S
C901 N904 1.377 . S
C901 H921 0.930 . S
C902 N900 1.375 . S
C902 C901 1.338 . S
C902 H906 0.931 . S
C903 N900 1.313 . S
C903 N904 1.344 . S
C903 H907 0.930 . S
N904 C901 1.377 . S
N904 C903 1.344 . S
O905 Co897 2.055 . S
O905 C909 1.253 . S
H906 C902 0.931 . S
H907 C903 0.930 . S
O908 Co897 2.039 . S
O908 C898 1.265 . S
C909 O905 1.253 . S
C909 O910 1.227 . S
O910 C909 1.227 . S
N911 Co897 2.140 . S
N911 C914 1.346 . S
N911 C915 1.345 . S
C912 C913 1.387 . S
C912 C916 1.391 . S
C913 C912 1.387 . S
C913 C914 1.369 . S
C913 H922 0.929 . S
C914 N911 1.346 . S
C914 C913 1.369 . S
C914 H917 0.928 . S
C915 N911 1.345 . S
C915 C916 1.371 . S
C915 H918 0.931 . S
C916 C912 1.391 . S
C916 C915 1.371 . S
C916 H923 0.930 . S
H917 C914 0.928 . S
H918 C915 0.931 . S
H919 C895 0.930 . S
H920 C892 0.930 . S
H921 C901 0.930 . S
H922 C913 0.929 . S
H923 C916 0.930 . S
C924 C925 1.351 . S
C924 N927 1.368 . S
C924 H929 0.931 . S
C925 C924 1.351 . S
C925 N926 1.373 . S
C925 H953 0.930 . S
N926 C925 1.373 . S
N926 C928 1.340 . S
N927 C924 1.368 . S
N927 C928 1.321 . S
N927 Co930 2.135 . S
C928 N926 1.340 . S
C928 N927 1.321 . S
C928 H952 0.930 . S
H929 C924 0.931 . S
Co930 N927 2.135 . S
Co930 N933 2.121 . S
Co930 O938 2.055 . S
Co930 O941 2.039 . S
Co930 N944 2.140 . S
C931 O932 1.227 . S
C931 O941 1.265 . S
O932 C931 1.227 . S
N933 Co930 2.121 . S
N933 C935 1.375 . S
N933 C936 1.313 . S
C934 C935 1.338 . S
C934 N937 1.377 . S
C934 H954 0.930 . S
C935 N933 1.375 . S
C935 C934 1.338 . S
C935 H939 0.931 . S
C936 N933 1.313 . S
C936 N937 1.344 . S
C936 H940 0.930 . S
N937 C934 1.377 . S
N937 C936 1.344 . S
O938 Co930 2.055 . S
O938 C942 1.253 . S
H939 C935 0.931 . S
H940 C936 0.930 . S
O941 Co930 2.039 . S
O941 C931 1.265 . S
C942 O938 1.253 . S
C942 O943 1.227 . S
O943 C942 1.227 . S
N944 Co930 2.140 . S
N944 C947 1.346 . S
N944 C948 1.345 . S
C945 C946 1.387 . S
C945 C949 1.391 . S
C946 C945 1.387 . S
C946 C947 1.369 . S
C946 H955 0.929 . S
C947 N944 1.346 . S
C947 C946 1.369 . S
C947 H950 0.928 . S
C948 N944 1.345 . S
C948 C949 1.371 . S
C948 H951 0.931 . S
C949 C945 1.391 . S
C949 C948 1.371 . S
C949 H956 0.930 . S
H950 C947 0.928 . S
H951 C948 0.931 . S
H952 C928 0.930 . S
H953 C925 0.930 . S
H954 C934 0.930 . S
H955 C946 0.929 . S
H956 C949 0.930 . S
C957 C958 1.351 . S
C957 N960 1.368 . S
C957 H962 0.931 . S
C958 C957 1.351 . S
C958 N959 1.373 . S
C958 H986 0.930 . S
N959 C958 1.373 . S
N959 C961 1.340 . S
N960 C957 1.368 . S
N960 C961 1.321 . S
N960 Co963 2.135 . S
C961 N959 1.340 . S
C961 N960 1.321 . S
C961 H985 0.930 . S
H962 C957 0.931 . S
Co963 N960 2.135 . S
Co963 N966 2.121 1_554 S
Co963 O971 2.055 . S
Co963 O974 2.039 . S
Co963 N977 2.140 . S
C964 O965 1.227 . S
C964 O974 1.265 . S
O965 C964 1.227 . S
N966 Co963 2.121 1_556 S
N966 C968 1.375 . S
N966 C969 1.313 . S
C967 C968 1.338 . S
C967 N970 1.377 . S
C967 H987 0.930 . S
C968 N966 1.375 . S
C968 C967 1.338 . S
C968 H972 0.931 . S
C969 N966 1.313 . S
C969 N970 1.344 . S
C969 H973 0.930 . S
N970 C967 1.377 . S
N970 C969 1.344 . S
O971 Co963 2.055 . S
O971 C975 1.253 . S
H972 C968 0.931 . S
H973 C969 0.930 . S
O974 Co963 2.039 . S
O974 C964 1.265 . S
C975 O971 1.253 . S
C975 O976 1.227 . S
O976 C975 1.227 . S
N977 Co963 2.140 . S
N977 C980 1.346 . S
N977 C981 1.345 . S
C978 C979 1.387 . S
C978 C982 1.391 . S
C979 C978 1.387 . S
C979 C980 1.369 . S
C979 H988 0.929 . S
C980 N977 1.346 . S
C980 C979 1.369 . S
C980 H983 0.928 . S
C981 N977 1.345 . S
C981 C982 1.371 . S
C981 H984 0.931 . S
C982 C978 1.391 . S
C982 C981 1.371 . S
C982 H989 0.930 . S
H983 C980 0.928 . S
H984 C981 0.931 . S
H985 C961 0.930 . S
H986 C958 0.930 . S
H987 C967 0.930 . S
H988 C979 0.929 . S
H989 C982 0.930 . S
C990 C991 1.351 . S
C990 N993 1.368 . S
C990 H995 0.931 . S
C991 C990 1.351 . S
C991 N992 1.373 . S
C991 H1019 0.930 . S
N992 C991 1.373 . S
N992 C994 1.340 . S
N993 C990 1.368 . S
N993 C994 1.321 . S
N993 Co996 2.135 . S
C994 N992 1.340 . S
C994 N993 1.321 . S
C994 H1018 0.930 . S
H995 C990 0.931 . S
Co996 N993 2.135 . S
Co996 N999 2.121 . S
Co996 O1004 2.055 . S
Co996 O1007 2.039 . S
Co996 N1010 2.140 . S
C997 O998 1.227 . S
C997 O1007 1.265 . S
O998 C997 1.227 . S
N999 Co996 2.121 . S
N999 C1001 1.375 . S
N999 C1002 1.313 . S
C1000 C1001 1.338 . S
C1000 N1003 1.377 . S
C1000 H1020 0.930 . S
C1001 N999 1.375 . S
C1001 C1000 1.338 . S
C1001 H1005 0.931 . S
C1002 N999 1.313 . S
C1002 N1003 1.344 . S
C1002 H1006 0.930 . S
N1003 C1000 1.377 . S
N1003 C1002 1.344 . S
O1004 Co996 2.055 . S
O1004 C1008 1.253 . S
H1005 C1001 0.931 . S
H1006 C1002 0.930 . S
O1007 Co996 2.039 . S
O1007 C997 1.265 . S
C1008 O1004 1.253 . S
C1008 O1009 1.227 . S
O1009 C1008 1.227 . S
N1010 Co996 2.140 . S
N1010 C1013 1.346 . S
N1010 C1014 1.345 . S
C1011 C1012 1.387 . S
C1011 C1015 1.391 . S
C1012 C1011 1.387 . S
C1012 C1013 1.369 . S
C1012 H1021 0.929 . S
C1013 N1010 1.346 . S
C1013 C1012 1.369 . S
C1013 H1016 0.928 . S
C1014 N1010 1.345 . S
C1014 C1015 1.371 . S
C1014 H1017 0.931 . S
C1015 C1011 1.391 . S
C1015 C1014 1.371 . S
C1015 H1022 0.930 . S
H1016 C1013 0.928 . S
H1017 C1014 0.931 . S
H1018 C994 0.930 . S
H1019 C991 0.930 . S
H1020 C1000 0.930 . S
H1021 C1012 0.929 . S
H1022 C1015 0.930 . S
C1023 C1024 1.351 . S
C1023 N1026 1.368 . S
C1023 H1028 0.931 . S
C1024 C1023 1.351 . S
C1024 N1025 1.373 . S
C1024 H1052 0.930 . S
N1025 C1024 1.373 . S
N1025 C1027 1.340 . S
N1026 C1023 1.368 . S
N1026 C1027 1.321 . S
N1026 Co1029 2.135 . S
C1027 N1025 1.340 . S
C1027 N1026 1.321 . S
C1027 H1051 0.930 . S
H1028 C1023 0.931 . S
Co1029 N1026 2.135 . S
Co1029 N1032 2.121 . S
Co1029 O1037 2.055 . S
Co1029 O1040 2.039 . S
Co1029 N1043 2.140 . S
C1030 O1031 1.227 . S
C1030 O1040 1.265 . S
O1031 C1030 1.227 . S
N1032 Co1029 2.121 . S
N1032 C1034 1.375 . S
N1032 C1035 1.313 . S
C1033 C1034 1.338 . S
C1033 N1036 1.377 . S
C1033 H1053 0.930 . S
C1034 N1032 1.375 . S
C1034 C1033 1.338 . S
C1034 H1038 0.931 . S
C1035 N1032 1.313 . S
C1035 N1036 1.344 . S
C1035 H1039 0.930 . S
N1036 C1033 1.377 . S
N1036 C1035 1.344 . S
O1037 Co1029 2.055 . S
O1037 C1041 1.253 . S
H1038 C1034 0.931 . S
H1039 C1035 0.930 . S
O1040 Co1029 2.039 . S
O1040 C1030 1.265 . S
C1041 O1037 1.253 . S
C1041 O1042 1.227 . S
O1042 C1041 1.227 . S
N1043 Co1029 2.140 . S
N1043 C1046 1.346 . S
N1043 C1047 1.345 . S
C1044 C1045 1.387 . S
C1044 C1048 1.391 . S
C1045 C1044 1.387 . S
C1045 C1046 1.369 . S
C1045 H1054 0.929 . S
C1046 N1043 1.346 . S
C1046 C1045 1.369 . S
C1046 H1049 0.928 . S
C1047 N1043 1.345 . S
C1047 C1048 1.371 . S
C1047 H1050 0.931 . S
C1048 C1044 1.391 . S
C1048 C1047 1.371 . S
C1048 H1055 0.930 . S
H1049 C1046 0.928 . S
H1050 C1047 0.931 . S
H1051 C1027 0.930 . S
H1052 C1024 0.930 . S
H1053 C1033 0.930 . S
H1054 C1045 0.929 . S
H1055 C1048 0.930 . S
H1056 C1068 0.930 . S
H1057 C1070 0.930 . S
H1058 C1071 0.930 . S
H1059 C1075 0.959 . S
H1060 C1075 0.959 . S
H1061 C1075 0.961 . S
H1062 C1076 0.960 . S
H1063 C1076 0.961 . S
H1064 C1076 0.959 . S
H1065 C1079 0.929 . S
H1066 C1080 0.931 . S
H1067 C1082 0.930 . S
C1068 H1056 0.930 . S
C1068 C1069 1.399 . S
C1068 C1073 1.399 . S
C1069 C1068 1.399 . S
C1069 C1070 1.376 . S
C1070 H1057 0.930 . S
C1070 C1069 1.376 . S
C1070 C1071 1.388 . S
C1071 H1058 0.930 . S
C1071 C1070 1.388 . S
C1071 C1072 1.390 . S
C1072 C1071 1.390 . S
C1072 C1073 1.394 . S
C1072 C1078 1.465 . S
C1073 C1068 1.399 . S
C1073 C1072 1.394 . S
C1073 C1074 1.516 . S
C1074 C1073 1.516 . S
C1074 C1075 1.502 . S
C1074 C1076 1.561 . S
C1074 C1077 1.526 . S
C1075 H1059 0.959 . S
C1075 H1060 0.959 . S
C1075 H1061 0.961 . S
C1075 C1074 1.502 . S
C1076 H1062 0.960 . S
C1076 H1063 0.961 . S
C1076 H1064 0.959 . S
C1076 C1074 1.561 . S
C1077 C1074 1.526 . S
C1077 C1078 1.396 . S
C1077 C1082 1.390 . S
C1078 C1072 1.465 . S
C1078 C1077 1.396 . S
C1078 C1079 1.399 . S
C1079 H1065 0.929 . S
C1079 C1078 1.399 . S
C1079 C1080 1.385 . S
C1080 H1066 0.931 . S
C1080 C1079 1.385 . S
C1080 C1081 1.389 . S
C1081 C1080 1.389 . S
C1081 C1082 1.387 . S
C1082 H1067 0.930 . S
C1082 C1077 1.390 . S
C1082 C1081 1.387 . S
H1083 C1095 0.930 . S
H1084 C1097 0.930 . S
H1085 C1098 0.930 . S
H1086 C1102 0.959 . S
H1087 C1102 0.959 . S
H1088 C1102 0.961 . S
H1089 C1103 0.960 . S
H1090 C1103 0.961 . S
H1091 C1103 0.959 . S
H1092 C1106 0.929 . S
H1093 C1107 0.931 . S
H1094 C1109 0.930 . S
C1095 H1083 0.930 . S
C1095 C1096 1.399 . S
C1095 C1100 1.399 . S
C1096 C1095 1.399 . S
C1096 C1097 1.376 . S
C1097 H1084 0.930 . S
C1097 C1096 1.376 . S
C1097 C1098 1.388 . S
C1098 H1085 0.930 . S
C1098 C1097 1.388 . S
C1098 C1099 1.390 . S
C1099 C1098 1.390 . S
C1099 C1100 1.394 . S
C1099 C1105 1.465 . S
C1100 C1095 1.399 . S
C1100 C1099 1.394 . S
C1100 C1101 1.516 . S
C1101 C1100 1.516 . S
C1101 C1102 1.502 . S
C1101 C1103 1.561 . S
C1101 C1104 1.526 . S
C1102 H1086 0.959 . S
C1102 H1087 0.959 . S
C1102 H1088 0.961 . S
C1102 C1101 1.502 . S
C1103 H1089 0.960 . S
C1103 H1090 0.961 . S
C1103 H1091 0.959 . S
C1103 C1101 1.561 . S
C1104 C1101 1.526 . S
C1104 C1105 1.396 . S
C1104 C1109 1.390 . S
C1105 C1099 1.465 . S
C1105 C1104 1.396 . S
C1105 C1106 1.399 . S
C1106 H1092 0.929 . S
C1106 C1105 1.399 . S
C1106 C1107 1.385 . S
C1107 H1093 0.931 . S
C1107 C1106 1.385 . S
C1107 C1108 1.389 . S
C1108 C1107 1.389 . S
C1108 C1109 1.387 . S
C1109 H1094 0.930 . S
C1109 C1104 1.390 . S
C1109 C1108 1.387 . S
H1110 C1122 0.930 . S
H1111 C1124 0.930 . S
H1112 C1125 0.930 . S
H1113 C1129 0.959 . S
H1114 C1129 0.959 . S
H1115 C1129 0.961 . S
H1116 C1130 0.960 . S
H1117 C1130 0.961 . S
H1118 C1130 0.959 . S
H1119 C1133 0.929 . S
H1120 C1134 0.931 . S
H1121 C1136 0.930 . S
C1122 H1110 0.930 . S
C1122 C1123 1.399 . S
C1122 C1127 1.399 . S
C1123 C1122 1.399 . S
C1123 C1124 1.376 . S
C1124 H1111 0.930 . S
C1124 C1123 1.376 . S
C1124 C1125 1.388 . S
C1125 H1112 0.930 . S
C1125 C1124 1.388 . S
C1125 C1126 1.390 . S
C1126 C1125 1.390 . S
C1126 C1127 1.394 . S
C1126 C1132 1.465 . S
C1127 C1122 1.399 . S
C1127 C1126 1.394 . S
C1127 C1128 1.516 . S
C1128 C1127 1.516 . S
C1128 C1129 1.502 . S
C1128 C1130 1.561 . S
C1128 C1131 1.526 . S
C1129 H1113 0.959 . S
C1129 H1114 0.959 . S
C1129 H1115 0.961 . S
C1129 C1128 1.502 . S
C1130 H1116 0.960 . S
C1130 H1117 0.961 . S
C1130 H1118 0.959 . S
C1130 C1128 1.561 . S
C1131 C1128 1.526 . S
C1131 C1132 1.396 . S
C1131 C1136 1.390 . S
C1132 C1126 1.465 . S
C1132 C1131 1.396 . S
C1132 C1133 1.399 . S
C1133 H1119 0.929 . S
C1133 C1132 1.399 . S
C1133 C1134 1.385 . S
C1134 H1120 0.931 . S
C1134 C1133 1.385 . S
C1134 C1135 1.389 . S
C1135 C1134 1.389 . S
C1135 C1136 1.387 . S
C1136 H1121 0.930 . S
C1136 C1131 1.390 . S
C1136 C1135 1.387 . S
H1137 C1149 0.930 . S
H1138 C1151 0.930 . S
H1139 C1152 0.930 . S
H1140 C1156 0.959 . S
H1141 C1156 0.959 . S
H1142 C1156 0.961 . S
H1143 C1157 0.960 . S
H1144 C1157 0.961 . S
H1145 C1157 0.959 . S
H1146 C1160 0.929 . S
H1147 C1161 0.931 . S
H1148 C1163 0.930 . S
C1149 H1137 0.930 . S
C1149 C1150 1.399 . S
C1149 C1154 1.399 . S
C1150 C1149 1.399 . S
C1150 C1151 1.376 . S
C1151 H1138 0.930 . S
C1151 C1150 1.376 . S
C1151 C1152 1.388 . S
C1152 H1139 0.930 . S
C1152 C1151 1.388 . S
C1152 C1153 1.390 . S
C1153 C1152 1.390 . S
C1153 C1154 1.394 . S
C1153 C1159 1.465 . S
C1154 C1149 1.399 . S
C1154 C1153 1.394 . S
C1154 C1155 1.516 . S
C1155 C1154 1.516 . S
C1155 C1156 1.502 . S
C1155 C1157 1.561 . S
C1155 C1158 1.526 . S
C1156 H1140 0.959 . S
C1156 H1141 0.959 . S
C1156 H1142 0.961 . S
C1156 C1155 1.502 . S
C1157 H1143 0.960 . S
C1157 H1144 0.961 . S
C1157 H1145 0.959 . S
C1157 C1155 1.561 . S
C1158 C1155 1.526 . S
C1158 C1159 1.396 . S
C1158 C1163 1.390 . S
C1159 C1153 1.465 . S
C1159 C1158 1.396 . S
C1159 C1160 1.399 . S
C1160 H1146 0.929 . S
C1160 C1159 1.399 . S
C1160 C1161 1.385 . S
C1161 H1147 0.931 . S
C1161 C1160 1.385 . S
C1161 C1162 1.389 . S
C1162 C1161 1.389 . S
C1162 C1163 1.387 . S
C1163 H1148 0.930 . S
C1163 C1158 1.390 . S
C1163 C1162 1.387 . S
H1164 C1176 0.930 . S
H1165 C1178 0.930 . S
H1166 C1179 0.930 . S
H1167 C1183 0.959 . S
H1168 C1183 0.959 . S
H1169 C1183 0.961 . S
H1170 C1184 0.960 . S
H1171 C1184 0.961 . S
H1172 C1184 0.959 . S
H1173 C1187 0.929 . S
H1174 C1188 0.931 . S
H1175 C1190 0.930 . S
C1176 H1164 0.930 . S
C1176 C1177 1.399 . S
C1176 C1181 1.399 . S
C1177 C1176 1.399 . S
C1177 C1178 1.376 . S
C1178 H1165 0.930 . S
C1178 C1177 1.376 . S
C1178 C1179 1.388 . S
C1179 H1166 0.930 . S
C1179 C1178 1.388 . S
C1179 C1180 1.390 . S
C1180 C1179 1.390 . S
C1180 C1181 1.394 . S
C1180 C1186 1.465 . S
C1181 C1176 1.399 . S
C1181 C1180 1.394 . S
C1181 C1182 1.516 . S
C1182 C1181 1.516 . S
C1182 C1183 1.502 . S
C1182 C1184 1.561 . S
C1182 C1185 1.526 . S
C1183 H1167 0.959 . S
C1183 H1168 0.959 . S
C1183 H1169 0.961 . S
C1183 C1182 1.502 . S
C1184 H1170 0.960 . S
C1184 H1171 0.961 . S
C1184 H1172 0.959 . S
C1184 C1182 1.561 . S
C1185 C1182 1.526 . S
C1185 C1186 1.396 . S
C1185 C1190 1.390 . S
C1186 C1180 1.465 . S
C1186 C1185 1.396 . S
C1186 C1187 1.399 . S
C1187 H1173 0.929 . S
C1187 C1186 1.399 . S
C1187 C1188 1.385 . S
C1188 H1174 0.931 . S
C1188 C1187 1.385 . S
C1188 C1189 1.389 . S
C1189 C1188 1.389 . S
C1189 C1190 1.387 . S
C1190 H1175 0.930 . S
C1190 C1185 1.390 . S
C1190 C1189 1.387 . S
H1191 C1203 0.930 . S
H1192 C1205 0.930 . S
H1193 C1206 0.930 . S
H1194 C1210 0.959 . S
H1195 C1210 0.959 . S
H1196 C1210 0.961 . S
H1197 C1211 0.960 . S
H1198 C1211 0.961 . S
H1199 C1211 0.959 . S
H1200 C1214 0.929 . S
H1201 C1215 0.931 . S
H1202 C1217 0.930 . S
C1203 H1191 0.930 . S
C1203 C1204 1.399 . S
C1203 C1208 1.399 . S
C1204 C1203 1.399 . S
C1204 C1205 1.376 . S
C1205 H1192 0.930 . S
C1205 C1204 1.376 . S
C1205 C1206 1.388 . S
C1206 H1193 0.930 . S
C1206 C1205 1.388 . S
C1206 C1207 1.390 . S
C1207 C1206 1.390 . S
C1207 C1208 1.394 . S
C1207 C1213 1.465 . S
C1208 C1203 1.399 . S
C1208 C1207 1.394 . S
C1208 C1209 1.516 . S
C1209 C1208 1.516 . S
C1209 C1210 1.502 . S
C1209 C1211 1.561 . S
C1209 C1212 1.526 . S
C1210 H1194 0.959 . S
C1210 H1195 0.959 . S
C1210 H1196 0.961 . S
C1210 C1209 1.502 . S
C1211 H1197 0.960 . S
C1211 H1198 0.961 . S
C1211 H1199 0.959 . S
C1211 C1209 1.561 . S
C1212 C1209 1.526 . S
C1212 C1213 1.396 . S
C1212 C1217 1.390 . S
C1213 C1207 1.465 . S
C1213 C1212 1.396 . S
C1213 C1214 1.399 . S
C1214 H1200 0.929 . S
C1214 C1213 1.399 . S
C1214 C1215 1.385 . S
C1215 H1201 0.931 . S
C1215 C1214 1.385 . S
C1215 C1216 1.389 . S
C1216 C1215 1.389 . S
C1216 C1217 1.387 . S
C1217 H1202 0.930 . S
C1217 C1212 1.390 . S
C1217 C1216 1.387 . S
H1218 C1230 0.930 . S
H1219 C1232 0.930 . S
H1220 C1233 0.930 . S
H1221 C1237 0.959 . S
H1222 C1237 0.959 . S
H1223 C1237 0.961 . S
H1224 C1238 0.960 . S
H1225 C1238 0.961 . S
H1226 C1238 0.959 . S
H1227 C1241 0.929 . S
H1228 C1242 0.931 . S
H1229 C1244 0.930 . S
C1230 H1218 0.930 . S
C1230 C1231 1.399 . S
C1230 C1235 1.399 . S
C1231 C1230 1.399 . S
C1231 C1232 1.376 . S
C1232 H1219 0.930 . S
C1232 C1231 1.376 . S
C1232 C1233 1.388 . S
C1233 H1220 0.930 . S
C1233 C1232 1.388 . S
C1233 C1234 1.390 . S
C1234 C1233 1.390 . S
C1234 C1235 1.394 . S
C1234 C1240 1.465 . S
C1235 C1230 1.399 . S
C1235 C1234 1.394 . S
C1235 C1236 1.516 . S
C1236 C1235 1.516 . S
C1236 C1237 1.502 . S
C1236 C1238 1.561 . S
C1236 C1239 1.526 . S
C1237 H1221 0.959 . S
C1237 H1222 0.959 . S
C1237 H1223 0.961 . S
C1237 C1236 1.502 . S
C1238 H1224 0.960 . S
C1238 H1225 0.961 . S
C1238 H1226 0.959 . S
C1238 C1236 1.561 . S
C1239 C1236 1.526 . S
C1239 C1240 1.396 . S
C1239 C1244 1.390 . S
C1240 C1234 1.465 . S
C1240 C1239 1.396 . S
C1240 C1241 1.399 . S
C1241 H1227 0.929 . S
C1241 C1240 1.399 . S
C1241 C1242 1.385 . S
C1242 H1228 0.931 . S
C1242 C1241 1.385 . S
C1242 C1243 1.389 . S
C1243 C1242 1.389 . S
C1243 C1244 1.387 . S
C1244 H1229 0.930 . S
C1244 C1239 1.390 . S
C1244 C1243 1.387 . S
H1245 C1257 0.930 . S
H1246 C1259 0.930 . S
H1247 C1260 0.930 . S
H1248 C1264 0.959 . S
H1249 C1264 0.959 . S
H1250 C1264 0.961 . S
H1251 C1265 0.960 . S
H1252 C1265 0.961 . S
H1253 C1265 0.959 . S
H1254 C1268 0.929 . S
H1255 C1269 0.931 . S
H1256 C1271 0.930 . S
C1257 H1245 0.930 . S
C1257 C1258 1.399 . S
C1257 C1262 1.399 . S
C1258 C1257 1.399 . S
C1258 C1259 1.376 . S
C1259 H1246 0.930 . S
C1259 C1258 1.376 . S
C1259 C1260 1.388 . S
C1260 H1247 0.930 . S
C1260 C1259 1.388 . S
C1260 C1261 1.390 . S
C1261 C1260 1.390 . S
C1261 C1262 1.394 . S
C1261 C1267 1.465 . S
C1262 C1257 1.399 . S
C1262 C1261 1.394 . S
C1262 C1263 1.516 . S
C1263 C1262 1.516 . S
C1263 C1264 1.502 . S
C1263 C1265 1.561 . S
C1263 C1266 1.526 . S
C1264 H1248 0.959 . S
C1264 H1249 0.959 . S
C1264 H1250 0.961 . S
C1264 C1263 1.502 . S
C1265 H1251 0.960 . S
C1265 H1252 0.961 . S
C1265 H1253 0.959 . S
C1265 C1263 1.561 . S
C1266 C1263 1.526 . S
C1266 C1267 1.396 . S
C1266 C1271 1.390 . S
C1267 C1261 1.465 . S
C1267 C1266 1.396 . S
C1267 C1268 1.399 . S
C1268 H1254 0.929 . S
C1268 C1267 1.399 . S
C1268 C1269 1.385 . S
C1269 H1255 0.931 . S
C1269 C1268 1.385 . S
C1269 C1270 1.389 . S
C1270 C1269 1.389 . S
C1270 C1271 1.387 . S
C1271 H1256 0.930 . S
C1271 C1266 1.390 . S
C1271 C1270 1.387 . S
H1272 C1284 0.930 . S
H1273 C1286 0.930 . S
H1274 C1287 0.930 . S
H1275 C1291 0.959 . S
H1276 C1291 0.959 . S
H1277 C1291 0.961 . S
H1278 C1292 0.960 . S
H1279 C1292 0.961 . S
H1280 C1292 0.959 . S
H1281 C1295 0.929 . S
H1282 C1296 0.931 . S
H1283 C1298 0.930 . S
C1284 H1272 0.930 . S
C1284 C1285 1.399 . S
C1284 C1289 1.399 . S
C1285 C1284 1.399 . S
C1285 C1286 1.376 . S
C1286 H1273 0.930 . S
C1286 C1285 1.376 . S
C1286 C1287 1.388 . S
C1287 H1274 0.930 . S
C1287 C1286 1.388 . S
C1287 C1288 1.390 . S
C1288 C1287 1.390 . S
C1288 C1289 1.394 . S
C1288 C1294 1.465 . S
C1289 C1284 1.399 . S
C1289 C1288 1.394 . S
C1289 C1290 1.516 . S
C1290 C1289 1.516 . S
C1290 C1291 1.502 . S
C1290 C1292 1.561 . S
C1290 C1293 1.526 . S
C1291 H1275 0.959 . S
C1291 H1276 0.959 . S
C1291 H1277 0.961 . S
C1291 C1290 1.502 . S
C1292 H1278 0.960 . S
C1292 H1279 0.961 . S
C1292 H1280 0.959 . S
C1292 C1290 1.561 . S
C1293 C1290 1.526 . S
C1293 C1294 1.396 . S
C1293 C1298 1.390 . S
C1294 C1288 1.465 . S
C1294 C1293 1.396 . S
C1294 C1295 1.399 . S
C1295 H1281 0.929 . S
C1295 C1294 1.399 . S
C1295 C1296 1.385 . S
C1296 H1282 0.931 . S
C1296 C1295 1.385 . S
C1296 C1297 1.389 . S
C1297 C1296 1.389 . S
C1297 C1298 1.387 . S
C1298 H1283 0.930 . S
C1298 C1293 1.390 . S
C1298 C1297 1.387 . S
H1299 C1311 0.930 . S
H1300 C1313 0.930 . S
H1301 C1314 0.930 . S
H1302 C1318 0.959 . S
H1303 C1318 0.959 . S
H1304 C1318 0.961 . S
H1305 C1319 0.960 . S
H1306 C1319 0.961 . S
H1307 C1319 0.959 . S
H1308 C1322 0.929 . S
H1309 C1323 0.931 . S
H1310 C1325 0.930 . S
C1311 H1299 0.930 . S
C1311 C1312 1.399 . S
C1311 C1316 1.399 . S
C1312 C1311 1.399 . S
C1312 C1313 1.376 . S
C1313 H1300 0.930 . S
C1313 C1312 1.376 . S
C1313 C1314 1.388 . S
C1314 H1301 0.930 . S
C1314 C1313 1.388 . S
C1314 C1315 1.390 . S
C1315 C1314 1.390 . S
C1315 C1316 1.394 . S
C1315 C1321 1.465 . S
C1316 C1311 1.399 . S
C1316 C1315 1.394 . S
C1316 C1317 1.516 . S
C1317 C1316 1.516 . S
C1317 C1318 1.502 . S
C1317 C1319 1.561 . S
C1317 C1320 1.526 . S
C1318 H1302 0.959 . S
C1318 H1303 0.959 . S
C1318 H1304 0.961 . S
C1318 C1317 1.502 . S
C1319 H1305 0.960 . S
C1319 H1306 0.961 . S
C1319 H1307 0.959 . S
C1319 C1317 1.561 . S
C1320 C1317 1.526 . S
C1320 C1321 1.396 . S
C1320 C1325 1.390 . S
C1321 C1315 1.465 . S
C1321 C1320 1.396 . S
C1321 C1322 1.399 . S
C1322 H1308 0.929 . S
C1322 C1321 1.399 . S
C1322 C1323 1.385 . S
C1323 H1309 0.931 . S
C1323 C1322 1.385 . S
C1323 C1324 1.389 . S
C1324 C1323 1.389 . S
C1324 C1325 1.387 . S
C1325 H1310 0.930 . S
C1325 C1320 1.390 . S
C1325 C1324 1.387 . S
H1326 C1338 0.930 . S
H1327 C1340 0.930 . S
H1328 C1341 0.930 . S
H1329 C1345 0.959 . S
H1330 C1345 0.959 . S
H1331 C1345 0.961 . S
H1332 C1346 0.960 . S
H1333 C1346 0.961 . S
H1334 C1346 0.959 . S
H1335 C1349 0.929 . S
H1336 C1350 0.931 . S
H1337 C1352 0.930 . S
C1338 H1326 0.930 . S
C1338 C1339 1.399 . S
C1338 C1343 1.399 . S
C1339 C1338 1.399 . S
C1339 C1340 1.376 . S
C1340 H1327 0.930 . S
C1340 C1339 1.376 . S
C1340 C1341 1.388 . S
C1341 H1328 0.930 . S
C1341 C1340 1.388 . S
C1341 C1342 1.390 . S
C1342 C1341 1.390 . S
C1342 C1343 1.394 . S
C1342 C1348 1.465 . S
C1343 C1338 1.399 . S
C1343 C1342 1.394 . S
C1343 C1344 1.516 . S
C1344 C1343 1.516 . S
C1344 C1345 1.502 . S
C1344 C1346 1.561 . S
C1344 C1347 1.526 . S
C1345 H1329 0.959 . S
C1345 H1330 0.959 . S
C1345 H1331 0.961 . S
C1345 C1344 1.502 . S
C1346 H1332 0.960 . S
C1346 H1333 0.961 . S
C1346 H1334 0.959 . S
C1346 C1344 1.561 . S
C1347 C1344 1.526 . S
C1347 C1348 1.396 . S
C1347 C1352 1.390 . S
C1348 C1342 1.465 . S
C1348 C1347 1.396 . S
C1348 C1349 1.399 . S
C1349 H1335 0.929 . S
C1349 C1348 1.399 . S
C1349 C1350 1.385 . S
C1350 H1336 0.931 . S
C1350 C1349 1.385 . S
C1350 C1351 1.389 . S
C1351 C1350 1.389 . S
C1351 C1352 1.387 . S
C1352 H1337 0.930 . S
C1352 C1347 1.390 . S
C1352 C1351 1.387 . S
H1353 C1365 0.930 . S
H1354 C1367 0.930 . S
H1355 C1368 0.930 . S
H1356 C1372 0.959 . S
H1357 C1372 0.959 . S
H1358 C1372 0.961 . S
H1359 C1373 0.960 . S
H1360 C1373 0.961 . S
H1361 C1373 0.959 . S
H1362 C1376 0.929 . S
H1363 C1377 0.931 . S
H1364 C1379 0.930 . S
C1365 H1353 0.930 . S
C1365 C1366 1.399 . S
C1365 C1370 1.399 . S
C1366 C1365 1.399 . S
C1366 C1367 1.376 . S
C1367 H1354 0.930 . S
C1367 C1366 1.376 . S
C1367 C1368 1.388 . S
C1368 H1355 0.930 . S
C1368 C1367 1.388 . S
C1368 C1369 1.390 . S
C1369 C1368 1.390 . S
C1369 C1370 1.394 . S
C1369 C1375 1.465 . S
C1370 C1365 1.399 . S
C1370 C1369 1.394 . S
C1370 C1371 1.516 . S
C1371 C1370 1.516 . S
C1371 C1372 1.502 . S
C1371 C1373 1.561 . S
C1371 C1374 1.526 . S
C1372 H1356 0.959 . S
C1372 H1357 0.959 . S
C1372 H1358 0.961 . S
C1372 C1371 1.502 . S
C1373 H1359 0.960 . S
C1373 H1360 0.961 . S
C1373 H1361 0.959 . S
C1373 C1371 1.561 . S
C1374 C1371 1.526 . S
C1374 C1375 1.396 . S
C1374 C1379 1.390 . S
C1375 C1369 1.465 . S
C1375 C1374 1.396 . S
C1375 C1376 1.399 . S
C1376 H1362 0.929 . S
C1376 C1375 1.399 . S
C1376 C1377 1.385 . S
C1377 H1363 0.931 . S
C1377 C1376 1.385 . S
C1377 C1378 1.389 . S
C1378 C1377 1.389 . S
C1378 C1379 1.387 . S
C1379 H1364 0.930 . S
C1379 C1374 1.390 . S
C1379 C1378 1.387 . S
H1380 C1392 0.930 . S
H1381 C1394 0.930 . S
H1382 C1395 0.930 . S
H1383 C1399 0.959 . S
H1384 C1399 0.959 . S
H1385 C1399 0.961 . S
H1386 C1400 0.960 . S
H1387 C1400 0.961 . S
H1388 C1400 0.959 . S
H1389 C1403 0.929 . S
H1390 C1404 0.931 . S
H1391 C1406 0.930 . S
C1392 H1380 0.930 . S
C1392 C1393 1.399 . S
C1392 C1397 1.399 . S
C1393 C1392 1.399 . S
C1393 C1394 1.376 . S
C1394 H1381 0.930 . S
C1394 C1393 1.376 . S
C1394 C1395 1.388 . S
C1395 H1382 0.930 . S
C1395 C1394 1.388 . S
C1395 C1396 1.390 . S
C1396 C1395 1.390 . S
C1396 C1397 1.394 . S
C1396 C1402 1.465 . S
C1397 C1392 1.399 . S
C1397 C1396 1.394 . S
C1397 C1398 1.516 . S
C1398 C1397 1.516 . S
C1398 C1399 1.502 . S
C1398 C1400 1.561 . S
C1398 C1401 1.526 . S
C1399 H1383 0.959 . S
C1399 H1384 0.959 . S
C1399 H1385 0.961 . S
C1399 C1398 1.502 . S
C1400 H1386 0.960 . S
C1400 H1387 0.961 . S
C1400 H1388 0.959 . S
C1400 C1398 1.561 . S
C1401 C1398 1.526 . S
C1401 C1402 1.396 . S
C1401 C1406 1.390 . S
C1402 C1396 1.465 . S
C1402 C1401 1.396 . S
C1402 C1403 1.399 . S
C1403 H1389 0.929 . S
C1403 C1402 1.399 . S
C1403 C1404 1.385 . S
C1404 H1390 0.931 . S
C1404 C1403 1.385 . S
C1404 C1405 1.389 . S
C1405 C1404 1.389 . S
C1405 C1406 1.387 . S
C1406 H1391 0.930 . S
C1406 C1401 1.390 . S
C1406 C1405 1.387 . S
H1407 C1419 0.930 . S
H1408 C1421 0.930 . S
H1409 C1422 0.930 . S
H1410 C1426 0.959 . S
H1411 C1426 0.959 . S
H1412 C1426 0.961 . S
H1413 C1427 0.960 . S
H1414 C1427 0.961 . S
H1415 C1427 0.959 . S
H1416 C1430 0.929 . S
H1417 C1431 0.931 . S
H1418 C1433 0.930 . S
C1419 H1407 0.930 . S
C1419 C1420 1.399 . S
C1419 C1424 1.399 . S
C1420 C1419 1.399 . S
C1420 C1421 1.376 . S
C1421 H1408 0.930 . S
C1421 C1420 1.376 . S
C1421 C1422 1.388 . S
C1422 H1409 0.930 . S
C1422 C1421 1.388 . S
C1422 C1423 1.390 . S
C1423 C1422 1.390 . S
C1423 C1424 1.394 . S
C1423 C1429 1.465 . S
C1424 C1419 1.399 . S
C1424 C1423 1.394 . S
C1424 C1425 1.516 . S
C1425 C1424 1.516 . S
C1425 C1426 1.502 . S
C1425 C1427 1.561 . S
C1425 C1428 1.526 . S
C1426 H1410 0.959 . S
C1426 H1411 0.959 . S
C1426 H1412 0.961 . S
C1426 C1425 1.502 . S
C1427 H1413 0.960 . S
C1427 H1414 0.961 . S
C1427 H1415 0.959 . S
C1427 C1425 1.561 . S
C1428 C1425 1.526 . S
C1428 C1429 1.396 . S
C1428 C1433 1.390 . S
C1429 C1423 1.465 . S
C1429 C1428 1.396 . S
C1429 C1430 1.399 . S
C1430 H1416 0.929 . S
C1430 C1429 1.399 . S
C1430 C1431 1.385 . S
C1431 H1417 0.931 . S
C1431 C1430 1.385 . S
C1431 C1432 1.389 . S
C1432 C1431 1.389 . S
C1432 C1433 1.387 . S
C1433 H1418 0.930 . S
C1433 C1428 1.390 . S
C1433 C1432 1.387 . S
H1434 C1446 0.930 . S
H1435 C1448 0.930 . S
H1436 C1449 0.930 . S
H1437 C1453 0.959 . S
H1438 C1453 0.959 . S
H1439 C1453 0.961 . S
H1440 C1454 0.960 . S
H1441 C1454 0.961 . S
H1442 C1454 0.959 . S
H1443 C1457 0.929 . S
H1444 C1458 0.931 . S
H1445 C1460 0.930 . S
C1446 H1434 0.930 . S
C1446 C1447 1.399 . S
C1446 C1451 1.399 . S
C1447 C1446 1.399 . S
C1447 C1448 1.376 . S
C1448 H1435 0.930 . S
C1448 C1447 1.376 . S
C1448 C1449 1.388 . S
C1449 H1436 0.930 . S
C1449 C1448 1.388 . S
C1449 C1450 1.390 . S
C1450 C1449 1.390 . S
C1450 C1451 1.394 . S
C1450 C1456 1.465 . S
C1451 C1446 1.399 . S
C1451 C1450 1.394 . S
C1451 C1452 1.516 . S
C1452 C1451 1.516 . S
C1452 C1453 1.502 . S
C1452 C1454 1.561 . S
C1452 C1455 1.526 . S
C1453 H1437 0.959 . S
C1453 H1438 0.959 . S
C1453 H1439 0.961 . S
C1453 C1452 1.502 . S
C1454 H1440 0.960 . S
C1454 H1441 0.961 . S
C1454 H1442 0.959 . S
C1454 C1452 1.561 . S
C1455 C1452 1.526 . S
C1455 C1456 1.396 . S
C1455 C1460 1.390 . S
C1456 C1450 1.465 . S
C1456 C1455 1.396 . S
C1456 C1457 1.399 . S
C1457 H1443 0.929 . S
C1457 C1456 1.399 . S
C1457 C1458 1.385 . S
C1458 H1444 0.931 . S
C1458 C1457 1.385 . S
C1458 C1459 1.389 . S
C1459 C1458 1.389 . S
C1459 C1460 1.387 . S
C1460 H1445 0.930 . S
C1460 C1455 1.390 . S
C1460 C1459 1.387 . S
H1461 C1473 0.930 . S
H1462 C1475 0.930 . S
H1463 C1476 0.930 . S
H1464 C1480 0.959 . S
H1465 C1480 0.959 . S
H1466 C1480 0.961 . S
H1467 C1481 0.960 . S
H1468 C1481 0.961 . S
H1469 C1481 0.959 . S
H1470 C1484 0.929 . S
H1471 C1485 0.931 . S
H1472 C1487 0.930 . S
C1473 H1461 0.930 . S
C1473 C1474 1.399 . S
C1473 C1478 1.399 . S
C1474 C1473 1.399 . S
C1474 C1475 1.376 . S
C1475 H1462 0.930 . S
C1475 C1474 1.376 . S
C1475 C1476 1.388 . S
C1476 H1463 0.930 . S
C1476 C1475 1.388 . S
C1476 C1477 1.390 . S
C1477 C1476 1.390 . S
C1477 C1478 1.394 . S
C1477 C1483 1.465 . S
C1478 C1473 1.399 . S
C1478 C1477 1.394 . S
C1478 C1479 1.516 . S
C1479 C1478 1.516 . S
C1479 C1480 1.502 . S
C1479 C1481 1.561 . S
C1479 C1482 1.526 . S
C1480 H1464 0.959 . S
C1480 H1465 0.959 . S
C1480 H1466 0.961 . S
C1480 C1479 1.502 . S
C1481 H1467 0.960 . S
C1481 H1468 0.961 . S
C1481 H1469 0.959 . S
C1481 C1479 1.561 . S
C1482 C1479 1.526 . S
C1482 C1483 1.396 . S
C1482 C1487 1.390 . S
C1483 C1477 1.465 . S
C1483 C1482 1.396 . S
C1483 C1484 1.399 . S
C1484 H1470 0.929 . S
C1484 C1483 1.399 . S
C1484 C1485 1.385 . S
C1485 H1471 0.931 . S
C1485 C1484 1.385 . S
C1485 C1486 1.389 . S
C1486 C1485 1.389 . S
C1486 C1487 1.387 . S
C1487 H1472 0.930 . S
C1487 C1482 1.390 . S
C1487 C1486 1.387 . S
H1488 C1500 0.930 . S
H1489 C1502 0.930 . S
H1490 C1503 0.930 . S
H1491 C1507 0.959 . S
H1492 C1507 0.959 . S
H1493 C1507 0.961 1_565 S
H1494 C1508 0.960 1_565 S
H1495 C1508 0.961 . S
H1496 C1508 0.959 . S
H1497 C1511 0.929 . S
H1498 C1512 0.931 . S
H1499 C1514 0.930 . S
C1500 H1488 0.930 . S
C1500 C1501 1.399 . S
C1500 C1505 1.399 . S
C1501 C1500 1.399 . S
C1501 C1502 1.376 . S
C1502 H1489 0.930 . S
C1502 C1501 1.376 . S
C1502 C1503 1.388 . S
C1503 H1490 0.930 . S
C1503 C1502 1.388 . S
C1503 C1504 1.390 . S
C1504 C1503 1.390 . S
C1504 C1505 1.394 . S
C1504 C1510 1.465 1_565 S
C1505 C1500 1.399 . S
C1505 C1504 1.394 . S
C1505 C1506 1.516 1_565 S
C1506 C1505 1.516 1_545 S
C1506 C1507 1.502 . S
C1506 C1508 1.561 . S
C1506 C1509 1.526 . S
C1507 H1491 0.959 . S
C1507 H1492 0.959 . S
C1507 H1493 0.961 1_545 S
C1507 C1506 1.502 . S
C1508 H1494 0.960 1_545 S
C1508 H1495 0.961 . S
C1508 H1496 0.959 . S
C1508 C1506 1.561 . S
C1509 C1506 1.526 . S
C1509 C1510 1.396 . S
C1509 C1514 1.390 . S
C1510 C1504 1.465 1_545 S
C1510 C1509 1.396 . S
C1510 C1511 1.399 . S
C1511 H1497 0.929 . S
C1511 C1510 1.399 . S
C1511 C1512 1.385 . S
C1512 H1498 0.931 . S
C1512 C1511 1.385 . S
C1512 C1513 1.389 . S
C1513 C1512 1.389 . S
C1513 C1514 1.387 . S
C1514 H1499 0.930 . S
C1514 C1509 1.390 . S
C1514 C1513 1.387 . S
H1515 C1527 0.930 . S
H1516 C1529 0.930 . S
H1517 C1530 0.930 . S
H1518 C1534 0.959 . S
H1519 C1534 0.959 . S
H1520 C1534 0.961 . S
H1521 C1535 0.960 . S
H1522 C1535 0.961 . S
H1523 C1535 0.959 . S
H1524 C1538 0.929 . S
H1525 C1539 0.931 . S
H1526 C1541 0.930 . S
C1527 H1515 0.930 . S
C1527 C1528 1.399 . S
C1527 C1532 1.399 . S
C1528 C1527 1.399 . S
C1528 C1529 1.376 . S
C1529 H1516 0.930 . S
C1529 C1528 1.376 . S
C1529 C1530 1.388 . S
C1530 H1517 0.930 . S
C1530 C1529 1.388 . S
C1530 C1531 1.390 . S
C1531 C1530 1.390 . S
C1531 C1532 1.394 . S
C1531 C1537 1.465 . S
C1532 C1527 1.399 . S
C1532 C1531 1.394 . S
C1532 C1533 1.516 . S
C1533 C1532 1.516 . S
C1533 C1534 1.502 . S
C1533 C1535 1.561 . S
C1533 C1536 1.526 . S
C1534 H1518 0.959 . S
C1534 H1519 0.959 . S
C1534 H1520 0.961 . S
C1534 C1533 1.502 . S
C1535 H1521 0.960 . S
C1535 H1522 0.961 . S
C1535 H1523 0.959 . S
C1535 C1533 1.561 . S
C1536 C1533 1.526 . S
C1536 C1537 1.396 . S
C1536 C1541 1.390 . S
C1537 C1531 1.465 . S
C1537 C1536 1.396 . S
C1537 C1538 1.399 . S
C1538 H1524 0.929 . S
C1538 C1537 1.399 . S
C1538 C1539 1.385 . S
C1539 H1525 0.931 . S
C1539 C1538 1.385 . S
C1539 C1540 1.389 . S
C1540 C1539 1.389 . S
C1540 C1541 1.387 . S
C1541 H1526 0.930 . S
C1541 C1536 1.390 . S
C1541 C1540 1.387 . S
H1542 C1554 0.930 . S
H1543 C1556 0.930 . S
H1544 C1557 0.930 . S
H1545 C1561 0.959 . S
H1546 C1561 0.959 1_565 S
H1547 C1561 0.961 . S
H1548 C1562 0.960 . S
H1549 C1562 0.961 1_565 S
H1550 C1562 0.959 . S
H1551 C1565 0.929 . S
H1552 C1566 0.931 . S
H1553 C1568 0.930 . S
C1554 H1542 0.930 . S
C1554 C1555 1.399 . S
C1554 C1559 1.399 . S
C1555 C1554 1.399 . S
C1555 C1556 1.376 . S
C1556 H1543 0.930 . S
C1556 C1555 1.376 . S
C1556 C1557 1.388 . S
C1557 H1544 0.930 . S
C1557 C1556 1.388 . S
C1557 C1558 1.390 . S
C1558 C1557 1.390 . S
C1558 C1559 1.394 . S
C1558 C1564 1.465 1_545 S
C1559 C1554 1.399 . S
C1559 C1558 1.394 . S
C1559 C1560 1.516 . S
C1560 C1559 1.516 . S
C1560 C1561 1.502 . S
C1560 C1562 1.561 . S
C1560 C1563 1.526 1_545 S
C1561 H1545 0.959 . S
C1561 H1546 0.959 1_545 S
C1561 H1547 0.961 . S
C1561 C1560 1.502 . S
C1562 H1548 0.960 . S
C1562 H1549 0.961 1_545 S
C1562 H1550 0.959 . S
C1562 C1560 1.561 . S
C1563 C1560 1.526 1_565 S
C1563 C1564 1.396 . S
C1563 C1568 1.390 . S
C1564 C1558 1.465 1_565 S
C1564 C1563 1.396 . S
C1564 C1565 1.399 . S
C1565 H1551 0.929 . S
C1565 C1564 1.399 . S
C1565 C1566 1.385 . S
C1566 H1552 0.931 . S
C1566 C1565 1.385 . S
C1566 C1567 1.389 . S
C1567 C1566 1.389 . S
C1567 C1568 1.387 . S
C1568 H1553 0.930 . S
C1568 C1563 1.390 . S
C1568 C1567 1.387 . S
H1569 C1581 0.930 . S
H1570 C1583 0.930 . S
H1571 C1584 0.930 . S
H1572 C1588 0.959 . S
H1573 C1588 0.959 . S
H1574 C1588 0.961 . S
H1575 C1589 0.958 1_556 S
H1576 C1589 0.944 1_556 S
H1577 C1589 0.999 . S
H1578 C1592 0.929 . S
H1579 C1593 0.931 . S
H1580 C1595 0.930 . S
C1581 H1569 0.930 . S
C1581 C1582 1.399 1_556 S
C1581 C1586 1.399 . S
C1582 C1581 1.399 1_554 S
C1582 C1583 1.376 . S
C1583 H1570 0.930 . S
C1583 C1582 1.376 . S
C1583 C1584 1.388 . S
C1584 H1571 0.930 . S
C1584 C1583 1.388 . S
C1584 C1585 1.390 . S
C1585 C1584 1.390 . S
C1585 C1586 1.394 1_554 S
C1585 C1591 1.465 . S
C1586 C1581 1.399 . S
C1586 C1585 1.394 1_556 S
C1586 C1587 1.516 . S
C1587 C1586 1.516 . S
C1587 C1588 1.502 . S
C1587 C1589 1.541 1_556 S
C1587 C1590 1.526 . S
C1588 H1572 0.959 . S
C1588 H1573 0.959 . S
C1588 H1574 0.961 . S
C1588 C1587 1.502 . S
C1589 H1575 0.958 1_554 S
C1589 H1576 0.944 1_554 S
C1589 H1577 0.999 . S
C1589 C1587 1.541 1_554 S
C1590 C1587 1.526 . S
C1590 C1591 1.396 1_556 S
C1590 C1595 1.390 . S
C1591 C1585 1.465 . S
C1591 C1590 1.396 1_554 S
C1591 C1592 1.399 . S
C1592 H1578 0.929 . S
C1592 C1591 1.399 . S
C1592 C1593 1.385 . S
C1593 H1579 0.931 . S
C1593 C1592 1.385 . S
C1593 C1594 1.389 1_554 S
C1594 C1593 1.389 1_556 S
C1594 C1595 1.387 . S
C1595 H1580 0.930 . S
C1595 C1590 1.390 . S
C1595 C1594 1.387 . S
H1596 C1608 0.930 . S
H1597 C1610 0.930 . S
H1598 C1611 0.930 . S
H1599 C1615 0.959 . S
H1600 C1615 0.959 1_565 S
H1601 C1615 0.961 . S
H1602 C1616 0.960 . S
H1603 C1616 0.961 1_565 S
H1604 C1616 0.959 . S
H1605 C1619 0.929 . S
H1606 C1620 0.931 . S
H1607 C1622 0.930 . S
C1608 H1596 0.930 . S
C1608 C1609 1.399 . S
C1608 C1613 1.399 . S
C1609 C1608 1.399 . S
C1609 C1610 1.376 . S
C1610 H1597 0.930 . S
C1610 C1609 1.376 . S
C1610 C1611 1.388 . S
C1611 H1598 0.930 . S
C1611 C1610 1.388 . S
C1611 C1612 1.390 . S
C1612 C1611 1.390 . S
C1612 C1613 1.394 . S
C1612 C1618 1.465 1_545 S
C1613 C1608 1.399 . S
C1613 C1612 1.394 . S
C1613 C1614 1.516 . S
C1614 C1613 1.516 . S
C1614 C1615 1.502 . S
C1614 C1616 1.561 . S
C1614 C1617 1.526 1_545 S
C1615 H1599 0.959 . S
C1615 H1600 0.959 1_545 S
C1615 H1601 0.961 . S
C1615 C1614 1.502 . S
C1616 H1602 0.960 . S
C1616 H1603 0.961 1_545 S
C1616 H1604 0.959 . S
C1616 C1614 1.561 . S
C1617 C1614 1.526 1_565 S
C1617 C1618 1.396 . S
C1617 C1622 1.390 . S
C1618 C1612 1.465 1_565 S
C1618 C1617 1.396 . S
C1618 C1619 1.399 . S
C1619 H1605 0.929 . S
C1619 C1618 1.399 . S
C1619 C1620 1.385 . S
C1620 H1606 0.931 . S
C1620 C1619 1.385 . S
C1620 C1621 1.389 . S
C1621 C1620 1.389 . S
C1621 C1622 1.387 . S
C1622 H1607 0.930 . S
C1622 C1617 1.390 . S
C1622 C1621 1.387 . S
H1623 C1635 0.930 . S
H1624 C1637 0.930 . S
H1625 C1638 0.930 . S
H1626 C1642 0.959 . S
H1627 C1642 0.959 . S
H1628 C1642 0.961 . S
H1629 C1643 0.960 . S
H1630 C1643 0.961 . S
H1631 C1643 0.959 . S
H1632 C1646 0.929 . S
H1633 C1647 0.931 . S
H1634 C1649 0.930 . S
C1635 H1623 0.930 . S
C1635 C1636 1.399 . S
C1635 C1640 1.399 . S
C1636 C1635 1.399 . S
C1636 C1637 1.376 . S
C1637 H1624 0.930 . S
C1637 C1636 1.376 . S
C1637 C1638 1.388 . S
C1638 H1625 0.930 . S
C1638 C1637 1.388 . S
C1638 C1639 1.390 . S
C1639 C1638 1.390 . S
C1639 C1640 1.394 . S
C1639 C1645 1.465 . S
C1640 C1635 1.399 . S
C1640 C1639 1.394 . S
C1640 C1641 1.516 . S
C1641 C1640 1.516 . S
C1641 C1642 1.502 . S
C1641 C1643 1.561 . S
C1641 C1644 1.526 . S
C1642 H1626 0.959 . S
C1642 H1627 0.959 . S
C1642 H1628 0.961 . S
C1642 C1641 1.502 . S
C1643 H1629 0.960 . S
C1643 H1630 0.961 . S
C1643 H1631 0.959 . S
C1643 C1641 1.561 . S
C1644 C1641 1.526 . S
C1644 C1645 1.396 . S
C1644 C1649 1.390 . S
C1645 C1639 1.465 . S
C1645 C1644 1.396 . S
C1645 C1646 1.399 . S
C1646 H1632 0.929 . S
C1646 C1645 1.399 . S
C1646 C1647 1.385 . S
C1647 H1633 0.931 . S
C1647 C1646 1.385 . S
C1647 C1648 1.389 . S
C1648 C1647 1.389 . S
C1648 C1649 1.387 . S
C1649 H1634 0.930 . S
C1649 C1644 1.390 . S
C1649 C1648 1.387 . S
H1650 C1662 0.930 . S
H1651 C1664 0.930 . S
H1652 C1665 0.930 . S
H1653 C1669 0.959 . S
H1654 C1669 0.959 . S
H1655 C1669 0.961 1_545 S
H1656 C1670 0.960 1_545 S
H1657 C1670 0.961 . S
H1658 C1670 0.959 . S
H1659 C1673 0.929 . S
H1660 C1674 0.931 . S
H1661 C1676 0.930 . S
C1662 H1650 0.930 . S
C1662 C1663 1.399 . S
C1662 C1667 1.399 . S
C1663 C1662 1.399 . S
C1663 C1664 1.376 . S
C1664 H1651 0.930 . S
C1664 C1663 1.376 . S
C1664 C1665 1.388 . S
C1665 H1652 0.930 . S
C1665 C1664 1.388 . S
C1665 C1666 1.390 . S
C1666 C1665 1.390 . S
C1666 C1667 1.394 . S
C1666 C1672 1.465 1_545 S
C1667 C1662 1.399 . S
C1667 C1666 1.394 . S
C1667 C1668 1.516 1_545 S
C1668 C1667 1.516 1_565 S
C1668 C1669 1.502 . S
C1668 C1670 1.561 . S
C1668 C1671 1.526 . S
C1669 H1653 0.959 . S
C1669 H1654 0.959 . S
C1669 H1655 0.961 1_565 S
C1669 C1668 1.502 . S
C1670 H1656 0.960 1_565 S
C1670 H1657 0.961 . S
C1670 H1658 0.959 . S
C1670 C1668 1.561 . S
C1671 C1668 1.526 . S
C1671 C1672 1.396 . S
C1671 C1676 1.390 . S
C1672 C1666 1.465 1_565 S
C1672 C1671 1.396 . S
C1672 C1673 1.399 . S
C1673 H1659 0.929 . S
C1673 C1672 1.399 . S
C1673 C1674 1.385 . S
C1674 H1660 0.931 . S
C1674 C1673 1.385 . S
C1674 C1675 1.389 . S
C1675 C1674 1.389 . S
C1675 C1676 1.387 . S
C1676 H1661 0.930 . S
C1676 C1671 1.390 . S
C1676 C1675 1.387 . S
H1677 C1689 0.930 . S
H1678 C1691 0.930 . S
H1679 C1692 0.930 . S
H1680 C1696 0.959 . S
H1681 C1696 0.959 . S
H1682 C1696 0.961 . S
H1683 C1697 0.960 . S
H1684 C1697 0.961 . S
H1685 C1697 0.959 . S
H1686 C1700 0.927 1_554 S
H1687 C1701 0.931 . S
H1688 C1703 0.930 . S
C1689 H1677 0.930 . S
C1689 C1690 1.399 . S
C1689 C1694 1.399 . S
C1690 C1689 1.399 . S
C1690 C1691 1.376 . S
C1691 H1678 0.930 . S
C1691 C1690 1.376 . S
C1691 C1692 1.388 . S
C1692 H1679 0.930 . S
C1692 C1691 1.388 . S
C1692 C1693 1.390 . S
C1693 C1692 1.390 . S
C1693 C1694 1.394 . S
C1693 C1699 1.474 . S
C1694 C1689 1.399 . S
C1694 C1693 1.394 . S
C1694 C1695 1.516 . S
C1695 C1694 1.516 . S
C1695 C1696 1.502 1_554 S
C1695 C1697 1.561 . S
C1695 C1698 1.526 1_554 S
C1696 H1680 0.959 . S
C1696 H1681 0.959 . S
C1696 H1682 0.961 . S
C1696 C1695 1.502 1_556 S
C1697 H1683 0.960 . S
C1697 H1684 0.961 . S
C1697 H1685 0.959 . S
C1697 C1695 1.561 . S
C1698 C1695 1.526 1_556 S
C1698 C1699 1.392 1_556 S
C1698 C1703 1.390 . S
C1699 C1693 1.474 . S
C1699 C1698 1.392 1_554 S
C1699 C1700 1.396 1_554 S
C1700 H1686 0.927 1_556 S
C1700 C1699 1.396 1_556 S
C1700 C1701 1.389 . S
C1701 H1687 0.931 . S
C1701 C1700 1.389 . S
C1701 C1702 1.389 . S
C1702 C1701 1.389 . S
C1702 C1703 1.387 . S
C1703 H1688 0.930 . S
C1703 C1698 1.390 . S
C1703 C1702 1.387 . S
H1704 C1716 0.930 . S
H1705 C1718 0.930 . S
H1706 C1719 0.930 . S
H1707 C1723 0.959 . S
H1708 C1723 0.959 . S
H1709 C1723 0.961 . S
H1710 C1724 0.960 . S
H1711 C1724 0.961 . S
H1712 C1724 0.959 . S
H1713 C1727 0.929 . S
H1714 C1728 0.931 . S
H1715 C1730 0.930 . S
C1716 H1704 0.930 . S
C1716 C1717 1.399 . S
C1716 C1721 1.399 . S
C1717 C1716 1.399 . S
C1717 C1718 1.376 . S
C1718 H1705 0.930 . S
C1718 C1717 1.376 . S
C1718 C1719 1.388 . S
C1719 H1706 0.930 . S
C1719 C1718 1.388 . S
C1719 C1720 1.390 . S
C1720 C1719 1.390 . S
C1720 C1721 1.394 . S
C1720 C1726 1.465 . S
C1721 C1716 1.399 . S
C1721 C1720 1.394 . S
C1721 C1722 1.516 . S
C1722 C1721 1.516 . S
C1722 C1723 1.502 . S
C1722 C1724 1.561 . S
C1722 C1725 1.526 . S
C1723 H1707 0.959 . S
C1723 H1708 0.959 . S
C1723 H1709 0.961 . S
C1723 C1722 1.502 . S
C1724 H1710 0.960 . S
C1724 H1711 0.961 . S
C1724 H1712 0.959 . S
C1724 C1722 1.561 . S
C1725 C1722 1.526 . S
C1725 C1726 1.396 . S
C1725 C1730 1.390 . S
C1726 C1720 1.465 . S
C1726 C1725 1.396 . S
C1726 C1727 1.399 . S
C1727 H1713 0.929 . S
C1727 C1726 1.399 . S
C1727 C1728 1.385 . S
C1728 H1714 0.931 . S
C1728 C1727 1.385 . S
C1728 C1729 1.389 . S
C1729 C1728 1.389 . S
C1729 C1730 1.387 . S
C1730 H1715 0.930 . S
C1730 C1725 1.390 . S
C1730 C1729 1.387 . S
H1731 C1743 0.930 . S
H1732 C1745 0.930 . S
H1733 C1746 0.930 . S
H1734 C1750 0.959 . S
H1735 C1750 0.959 . S
H1736 C1750 0.961 . S
H1737 C1751 0.960 . S
H1738 C1751 0.961 . S
H1739 C1751 0.959 . S
H1740 C1754 0.929 . S
H1741 C1755 0.931 . S
H1742 C1757 0.925 1_556 S
C1743 H1731 0.930 . S
C1743 C1744 1.399 . S
C1743 C1748 1.399 . S
C1744 C1743 1.399 . S
C1744 C1745 1.376 1_556 S
C1745 H1732 0.930 . S
C1745 C1744 1.376 1_554 S
C1745 C1746 1.388 . S
C1746 H1733 0.930 . S
C1746 C1745 1.388 . S
C1746 C1747 1.390 . S
C1747 C1746 1.390 . S
C1747 C1748 1.394 1_554 S
C1747 C1753 1.465 . S
C1748 C1743 1.399 . S
C1748 C1747 1.394 1_556 S
C1748 C1749 1.516 . S
C1749 C1748 1.516 . S
C1749 C1750 1.502 . S
C1749 C1751 1.561 1_556 S
C1749 C1752 1.526 1_556 S
C1750 H1734 0.959 . S
C1750 H1735 0.959 . S
C1750 H1736 0.961 . S
C1750 C1749 1.502 . S
C1751 H1737 0.960 . S
C1751 H1738 0.961 . S
C1751 H1739 0.959 . S
C1751 C1749 1.561 1_554 S
C1752 C1749 1.526 1_554 S
C1752 C1753 1.396 . S
C1752 C1757 1.390 . S
C1753 C1747 1.465 . S
C1753 C1752 1.396 . S
C1753 C1754 1.399 . S
C1754 H1740 0.929 . S
C1754 C1753 1.399 . S
C1754 C1755 1.385 . S
C1755 H1741 0.931 . S
C1755 C1754 1.385 . S
C1755 C1756 1.389 . S
C1756 C1755 1.389 . S
C1756 C1757 1.387 . S
C1757 H1742 0.925 1_554 S
C1757 C1752 1.390 . S
C1757 C1756 1.387 . S
H1758 C1770 0.930 . S
H1759 C1772 0.930 . S
H1760 C1773 0.930 . S
H1761 C1777 0.959 . S
H1762 C1777 0.959 . S
H1763 C1777 0.961 . S
H1764 C1778 0.960 . S
H1765 C1778 0.961 . S
H1766 C1778 0.959 . S
H1767 C1781 0.929 . S
H1768 C1782 0.931 . S
H1769 C1784 0.930 . S
C1770 H1758 0.930 . S
C1770 C1771 1.399 . S
C1770 C1775 1.399 . S
C1771 C1770 1.399 . S
C1771 C1772 1.376 . S
C1772 H1759 0.930 . S
C1772 C1771 1.376 . S
C1772 C1773 1.388 . S
C1773 H1760 0.930 . S
C1773 C1772 1.388 . S
C1773 C1774 1.390 . S
C1774 C1773 1.390 . S
C1774 C1775 1.394 . S
C1774 C1780 1.465 . S
C1775 C1770 1.399 . S
C1775 C1774 1.394 . S
C1775 C1776 1.516 . S
C1776 C1775 1.516 . S
C1776 C1777 1.502 . S
C1776 C1778 1.561 . S
C1776 C1779 1.526 . S
C1777 H1761 0.959 . S
C1777 H1762 0.959 . S
C1777 H1763 0.961 . S
C1777 C1776 1.502 . S
C1778 H1764 0.960 . S
C1778 H1765 0.961 . S
C1778 H1766 0.959 . S
C1778 C1776 1.561 . S
C1779 C1776 1.526 . S
C1779 C1780 1.396 . S
C1779 C1784 1.390 . S
C1780 C1774 1.465 . S
C1780 C1779 1.396 . S
C1780 C1781 1.399 . S
C1781 H1767 0.929 . S
C1781 C1780 1.399 . S
C1781 C1782 1.385 . S
C1782 H1768 0.931 . S
C1782 C1781 1.385 . S
C1782 C1783 1.389 . S
C1783 C1782 1.389 . S
C1783 C1784 1.387 . S
C1784 H1769 0.930 . S
C1784 C1779 1.390 . S
C1784 C1783 1.387 . S
H1785 C1797 0.930 . S
H1786 C1799 0.930 . S
H1787 C1800 0.930 . S
H1788 C1804 0.959 . S
H1789 C1804 0.959 . S
H1790 C1804 0.961 . S
H1791 C1805 0.960 . S
H1792 C1805 0.961 . S
H1793 C1805 0.959 . S
H1794 C1808 0.929 . S
H1795 C1809 0.931 . S
H1796 C1811 0.930 . S
C1797 H1785 0.930 . S
C1797 C1798 1.399 . S
C1797 C1802 1.399 . S
C1798 C1797 1.399 . S
C1798 C1799 1.376 . S
C1799 H1786 0.930 . S
C1799 C1798 1.376 . S
C1799 C1800 1.388 . S
C1800 H1787 0.930 . S
C1800 C1799 1.388 . S
C1800 C1801 1.390 . S
C1801 C1800 1.390 . S
C1801 C1802 1.394 . S
C1801 C1807 1.465 . S
C1802 C1797 1.399 . S
C1802 C1801 1.394 . S
C1802 C1803 1.516 . S
C1803 C1802 1.516 . S
C1803 C1804 1.502 . S
C1803 C1805 1.561 . S
C1803 C1806 1.526 . S
C1804 H1788 0.959 . S
C1804 H1789 0.959 . S
C1804 H1790 0.961 . S
C1804 C1803 1.502 . S
C1805 H1791 0.960 . S
C1805 H1792 0.961 . S
C1805 H1793 0.959 . S
C1805 C1803 1.561 . S
C1806 C1803 1.526 . S
C1806 C1807 1.396 . S
C1806 C1811 1.390 . S
C1807 C1801 1.465 . S
C1807 C1806 1.396 . S
C1807 C1808 1.399 . S
C1808 H1794 0.929 . S
C1808 C1807 1.399 . S
C1808 C1809 1.385 . S
C1809 H1795 0.931 . S
C1809 C1808 1.385 . S
C1809 C1810 1.389 . S
C1810 C1809 1.389 . S
C1810 C1811 1.387 . S
C1811 H1796 0.930 . S
C1811 C1806 1.390 . S
C1811 C1810 1.387 . S
H1812 C1824 0.930 . S
H1813 C1826 0.930 . S
H1814 C1827 0.930 . S
H1815 C1831 0.959 . S
H1816 C1831 0.959 . S
H1817 C1831 0.961 . S
H1818 C1832 0.960 . S
H1819 C1832 0.961 . S
H1820 C1832 0.959 . S
H1821 C1835 0.929 . S
H1822 C1836 0.931 . S
H1823 C1838 0.930 . S
C1824 H1812 0.930 . S
C1824 C1825 1.399 . S
C1824 C1829 1.399 . S
C1825 C1824 1.399 . S
C1825 C1826 1.376 . S
C1826 H1813 0.930 . S
C1826 C1825 1.376 . S
C1826 C1827 1.388 . S
C1827 H1814 0.930 . S
C1827 C1826 1.388 . S
C1827 C1828 1.390 . S
C1828 C1827 1.390 . S
C1828 C1829 1.394 . S
C1828 C1834 1.465 . S
C1829 C1824 1.399 . S
C1829 C1828 1.394 . S
C1829 C1830 1.516 . S
C1830 C1829 1.516 . S
C1830 C1831 1.502 . S
C1830 C1832 1.561 . S
C1830 C1833 1.526 . S
C1831 H1815 0.959 . S
C1831 H1816 0.959 . S
C1831 H1817 0.961 . S
C1831 C1830 1.502 . S
C1832 H1818 0.960 . S
C1832 H1819 0.961 . S
C1832 H1820 0.959 . S
C1832 C1830 1.561 . S
C1833 C1830 1.526 . S
C1833 C1834 1.396 . S
C1833 C1838 1.390 . S
C1834 C1828 1.465 . S
C1834 C1833 1.396 . S
C1834 C1835 1.399 . S
C1835 H1821 0.929 . S
C1835 C1834 1.399 . S
C1835 C1836 1.385 . S
C1836 H1822 0.931 . S
C1836 C1835 1.385 . S
C1836 C1837 1.389 . S
C1837 C1836 1.389 . S
C1837 C1838 1.387 . S
C1838 H1823 0.930 . S
C1838 C1833 1.390 . S
C1838 C1837 1.387 . S
H1839 C1851 0.930 . S
H1840 C1853 0.930 . S
H1841 C1854 0.930 . S
H1842 C1858 0.959 . S
H1843 C1858 0.959 . S
H1844 C1858 0.961 . S
H1845 C1859 0.960 . S
H1846 C1859 0.961 . S
H1847 C1859 0.959 . S
H1848 C1862 0.929 . S
H1849 C1863 0.931 . S
H1850 C1865 0.930 . S
C1851 H1839 0.930 . S
C1851 C1852 1.399 . S
C1851 C1856 1.398 1_556 S
C1852 C1851 1.399 . S
C1852 C1853 1.376 . S
C1853 H1840 0.930 . S
C1853 C1852 1.376 . S
C1853 C1854 1.388 . S
C1854 H1841 0.930 . S
C1854 C1853 1.388 . S
C1854 C1855 1.392 . S
C1855 C1854 1.392 . S
C1855 C1856 1.393 1_556 S
C1855 C1861 1.464 1_556 S
C1856 C1851 1.398 1_554 S
C1856 C1855 1.393 1_554 S
C1856 C1857 1.518 . S
C1857 C1856 1.518 . S
C1857 C1858 1.502 1_554 S
C1857 C1859 1.561 . S
C1857 C1860 1.526 . S
C1858 H1842 0.959 . S
C1858 H1843 0.959 . S
C1858 H1844 0.961 . S
C1858 C1857 1.502 1_556 S
C1859 H1845 0.960 . S
C1859 H1846 0.961 . S
C1859 H1847 0.959 . S
C1859 C1857 1.561 . S
C1860 C1857 1.526 . S
C1860 C1861 1.396 . S
C1860 C1865 1.390 . S
C1861 C1855 1.464 1_554 S
C1861 C1860 1.396 . S
C1861 C1862 1.399 . S
C1862 H1848 0.929 . S
C1862 C1861 1.399 . S
C1862 C1863 1.385 . S
C1863 H1849 0.931 . S
C1863 C1862 1.385 . S
C1863 C1864 1.389 . S
C1864 C1863 1.389 . S
C1864 C1865 1.387 . S
C1865 H1850 0.930 . S
C1865 C1860 1.390 . S
C1865 C1864 1.387 . S
H1866 C1878 0.930 . S
H1867 C1880 0.930 . S
H1868 C1881 0.930 . S
H1869 C1885 0.959 . S
H1870 C1885 0.959 . S
H1871 C1885 0.961 . S
H1872 C1886 0.960 . S
H1873 C1886 0.961 . S
H1874 C1886 0.959 . S
H1875 C1889 0.929 . S
H1876 C1890 0.931 . S
H1877 C1892 0.930 . S
C1878 H1866 0.930 . S
C1878 C1879 1.399 . S
C1878 C1883 1.399 . S
C1879 C1878 1.399 . S
C1879 C1880 1.376 . S
C1880 H1867 0.930 . S
C1880 C1879 1.376 . S
C1880 C1881 1.388 . S
C1881 H1868 0.930 . S
C1881 C1880 1.388 . S
C1881 C1882 1.390 . S
C1882 C1881 1.390 . S
C1882 C1883 1.394 . S
C1882 C1888 1.465 . S
C1883 C1878 1.399 . S
C1883 C1882 1.394 . S
C1883 C1884 1.516 . S
C1884 C1883 1.516 . S
C1884 C1885 1.502 . S
C1884 C1886 1.561 . S
C1884 C1887 1.526 . S
C1885 H1869 0.959 . S
C1885 H1870 0.959 . S
C1885 H1871 0.961 . S
C1885 C1884 1.502 . S
C1886 H1872 0.960 . S
C1886 H1873 0.961 . S
C1886 H1874 0.959 . S
C1886 C1884 1.561 . S
C1887 C1884 1.526 . S
C1887 C1888 1.396 . S
C1887 C1892 1.390 . S
C1888 C1882 1.465 . S
C1888 C1887 1.396 . S
C1888 C1889 1.399 . S
C1889 H1875 0.929 . S
C1889 C1888 1.399 . S
C1889 C1890 1.385 . S
C1890 H1876 0.931 . S
C1890 C1889 1.385 . S
C1890 C1891 1.389 . S
C1891 C1890 1.389 . S
C1891 C1892 1.387 . S
C1892 H1877 0.930 . S
C1892 C1887 1.390 . S
C1892 C1891 1.387 . S
H1893 C1905 0.930 . S
H1894 C1907 0.930 . S
H1895 C1908 0.930 . S
H1896 C1912 0.959 . S
H1897 C1912 0.959 . S
H1898 C1912 0.961 . S
H1899 C1913 0.960 . S
H1900 C1913 0.961 . S
H1901 C1913 0.959 . S
H1902 C1916 0.929 . S
H1903 C1917 0.931 . S
H1904 C1919 0.930 . S
C1905 H1893 0.930 . S
C1905 C1906 1.399 . S
C1905 C1910 1.399 . S
C1906 C1905 1.399 . S
C1906 C1907 1.376 . S
C1907 H1894 0.930 . S
C1907 C1906 1.376 . S
C1907 C1908 1.388 . S
C1908 H1895 0.930 . S
C1908 C1907 1.388 . S
C1908 C1909 1.390 . S
C1909 C1908 1.390 . S
C1909 C1910 1.394 . S
C1909 C1915 1.465 . S
C1910 C1905 1.399 . S
C1910 C1909 1.394 . S
C1910 C1911 1.516 . S
C1911 C1910 1.516 . S
C1911 C1912 1.502 . S
C1911 C1913 1.561 . S
C1911 C1914 1.526 . S
C1912 H1896 0.959 . S
C1912 H1897 0.959 . S
C1912 H1898 0.961 . S
C1912 C1911 1.502 . S
C1913 H1899 0.960 . S
C1913 H1900 0.961 . S
C1913 H1901 0.959 . S
C1913 C1911 1.561 . S
C1914 C1911 1.526 . S
C1914 C1915 1.396 . S
C1914 C1919 1.390 . S
C1915 C1909 1.465 . S
C1915 C1914 1.396 . S
C1915 C1916 1.399 . S
C1916 H1902 0.929 . S
C1916 C1915 1.399 . S
C1916 C1917 1.385 . S
C1917 H1903 0.931 . S
C1917 C1916 1.385 . S
C1917 C1918 1.389 . S
C1918 C1917 1.389 . S
C1918 C1919 1.387 . S
C1919 H1904 0.930 . S
C1919 C1914 1.390 . S
C1919 C1918 1.387 . S
H1920 C1932 0.930 . S
H1921 C1934 0.930 . S
H1922 C1935 0.930 . S
H1923 C1939 0.959 . S
H1924 C1939 0.959 . S
H1925 C1939 0.961 . S
H1926 C1940 0.960 . S
H1927 C1940 0.961 . S
H1928 C1940 0.959 . S
H1929 C1943 0.929 . S
H1930 C1944 0.931 . S
H1931 C1946 0.930 . S
C1932 H1920 0.930 . S
C1932 C1933 1.399 . S
C1932 C1937 1.399 . S
C1933 C1932 1.399 . S
C1933 C1934 1.376 . S
C1934 H1921 0.930 . S
C1934 C1933 1.376 . S
C1934 C1935 1.388 . S
C1935 H1922 0.930 . S
C1935 C1934 1.388 . S
C1935 C1936 1.390 . S
C1936 C1935 1.390 . S
C1936 C1937 1.394 . S
C1936 C1942 1.465 . S
C1937 C1932 1.399 . S
C1937 C1936 1.394 . S
C1937 C1938 1.516 1_655 S
C1938 C1937 1.516 1_455 S
C1938 C1939 1.502 . S
C1938 C1940 1.561 1_455 S
C1938 C1941 1.526 . S
C1939 H1923 0.959 . S
C1939 H1924 0.959 . S
C1939 H1925 0.961 . S
C1939 C1938 1.502 . S
C1940 H1926 0.960 . S
C1940 H1927 0.961 . S
C1940 H1928 0.959 . S
C1940 C1938 1.561 1_655 S
C1941 C1938 1.526 . S
C1941 C1942 1.396 1_455 S
C1941 C1946 1.390 . S
C1942 C1936 1.465 . S
C1942 C1941 1.396 1_655 S
C1942 C1943 1.399 . S
C1943 H1929 0.929 . S
C1943 C1942 1.399 . S
C1943 C1944 1.385 1_655 S
C1944 H1930 0.931 . S
C1944 C1943 1.385 1_455 S
C1944 C1945 1.389 . S
C1945 C1944 1.389 . S
C1945 C1946 1.387 . S
C1946 H1931 0.930 . S
C1946 C1941 1.390 . S
C1946 C1945 1.387 . S
H1947 C1959 0.930 . S
H1948 C1961 0.930 . S
H1949 C1962 0.930 . S
H1950 C1966 0.959 . S
H1951 C1966 0.959 1_655 S
H1952 C1966 0.961 . S
H1953 C1967 0.960 1_455 S
H1954 C1967 0.961 . S
H1955 C1967 0.959 . S
H1956 C1970 0.929 . S
H1957 C1971 0.931 . S
H1958 C1973 0.930 . S
C1959 H1947 0.930 . S
C1959 C1960 1.399 . S
C1959 C1964 1.399 . S
C1960 C1959 1.399 . S
C1960 C1961 1.376 . S
C1961 H1948 0.930 . S
C1961 C1960 1.376 . S
C1961 C1962 1.388 . S
C1962 H1949 0.930 . S
C1962 C1961 1.388 . S
C1962 C1963 1.390 . S
C1963 C1962 1.390 . S
C1963 C1964 1.394 . S
C1963 C1969 1.465 1_455 S
C1964 C1959 1.399 . S
C1964 C1963 1.394 . S
C1964 C1965 1.516 . S
C1965 C1964 1.516 . S
C1965 C1966 1.502 . S
C1965 C1967 1.561 1_455 S
C1965 C1968 1.526 1_455 S
C1966 H1950 0.959 . S
C1966 H1951 0.959 1_455 S
C1966 H1952 0.961 . S
C1966 C1965 1.502 . S
C1967 H1953 0.960 1_655 S
C1967 H1954 0.961 . S
C1967 H1955 0.959 . S
C1967 C1965 1.561 1_655 S
C1968 C1965 1.526 1_655 S
C1968 C1969 1.396 . S
C1968 C1973 1.390 . S
C1969 C1963 1.465 1_655 S
C1969 C1968 1.396 . S
C1969 C1970 1.399 . S
C1970 H1956 0.929 . S
C1970 C1969 1.399 . S
C1970 C1971 1.385 . S
C1971 H1957 0.931 . S
C1971 C1970 1.385 . S
C1971 C1972 1.389 . S
C1972 C1971 1.389 . S
C1972 C1973 1.387 . S
C1973 H1958 0.930 . S
C1973 C1968 1.390 . S
C1973 C1972 1.387 . S
H1974 C1986 0.930 . S
H1975 C1988 0.930 . S
H1976 C1989 0.930 . S
H1977 C1993 0.959 . S
H1978 C1993 0.959 . S
H1979 C1993 0.961 . S
H1980 C1994 0.960 . S
H1981 C1994 0.961 . S
H1982 C1994 0.959 . S
H1983 C1997 0.929 . S
H1984 C1998 0.931 . S
H1985 C2000 0.930 . S
C1986 H1974 0.930 . S
C1986 C1987 1.399 . S
C1986 C1991 1.399 . S
C1987 C1986 1.399 . S
C1987 C1988 1.376 . S
C1988 H1975 0.930 . S
C1988 C1987 1.376 . S
C1988 C1989 1.388 . S
C1989 H1976 0.930 . S
C1989 C1988 1.388 . S
C1989 C1990 1.390 . S
C1990 C1989 1.390 . S
C1990 C1991 1.394 . S
C1990 C1996 1.465 . S
C1991 C1986 1.399 . S
C1991 C1990 1.394 . S
C1991 C1992 1.516 . S
C1992 C1991 1.516 . S
C1992 C1993 1.502 . S
C1992 C1994 1.561 . S
C1992 C1995 1.526 . S
C1993 H1977 0.959 . S
C1993 H1978 0.959 . S
C1993 H1979 0.961 . S
C1993 C1992 1.502 . S
C1994 H1980 0.960 . S
C1994 H1981 0.961 . S
C1994 H1982 0.959 . S
C1994 C1992 1.561 . S
C1995 C1992 1.526 . S
C1995 C1996 1.396 . S
C1995 C2000 1.390 . S
C1996 C1990 1.465 . S
C1996 C1995 1.396 . S
C1996 C1997 1.399 . S
C1997 H1983 0.929 . S
C1997 C1996 1.399 . S
C1997 C1998 1.385 . S
C1998 H1984 0.931 . S
C1998 C1997 1.385 . S
C1998 C1999 1.389 . S
C1999 C1998 1.389 . S
C1999 C2000 1.387 . S
C2000 H1985 0.930 . S
C2000 C1995 1.390 . S
C2000 C1999 1.387 . S
H2001 C2013 0.930 . S
H2002 C2015 0.930 . S
H2003 C2016 0.930 . S
H2004 C2020 0.959 . S
H2005 C2020 0.959 . S
H2006 C2020 0.961 . S
H2007 C2021 0.960 . S
H2008 C2021 0.961 . S
H2009 C2021 0.959 . S
H2010 C2024 0.929 . S
H2011 C2025 0.931 . S
H2012 C2027 0.930 . S
C2013 H2001 0.930 . S
C2013 C2014 1.399 . S
C2013 C2018 1.399 . S
C2014 C2013 1.399 . S
C2014 C2015 1.376 1_554 S
C2015 H2002 0.930 . S
C2015 C2014 1.376 1_556 S
C2015 C2016 1.388 . S
C2016 H2003 0.930 . S
C2016 C2015 1.388 . S
C2016 C2017 1.387 . S
C2017 C2016 1.387 . S
C2017 C2018 1.397 1_556 S
C2017 C2023 1.465 . S
C2018 C2013 1.399 . S
C2018 C2017 1.397 1_554 S
C2018 C2019 1.516 . S
C2019 C2018 1.516 . S
C2019 C2020 1.502 . S
C2019 C2021 1.561 . S
C2019 C2022 1.526 . S
C2020 H2004 0.959 . S
C2020 H2005 0.959 . S
C2020 H2006 0.961 . S
C2020 C2019 1.502 . S
C2021 H2007 0.960 . S
C2021 H2008 0.961 . S
C2021 H2009 0.959 . S
C2021 C2019 1.561 . S
C2022 C2019 1.526 . S
C2022 C2023 1.394 1_554 S
C2022 C2027 1.390 . S
C2023 C2017 1.465 . S
C2023 C2022 1.394 1_556 S
C2023 C2024 1.401 . S
C2024 H2010 0.929 . S
C2024 C2023 1.401 . S
C2024 C2025 1.385 . S
C2025 H2011 0.931 . S
C2025 C2024 1.385 . S
C2025 C2026 1.389 1_556 S
C2026 C2025 1.389 1_554 S
C2026 C2027 1.387 . S
C2027 H2012 0.930 . S
C2027 C2022 1.390 . S
C2027 C2026 1.387 . S
H2028 C2040 0.930 . S
H2029 C2042 0.931 1_455 S
H2030 C2043 0.930 . S
H2031 C2047 0.959 . S
H2032 C2047 0.959 . S
H2033 C2047 0.961 . S
H2034 C2048 0.960 . S
H2035 C2048 0.961 . S
H2036 C2048 0.959 . S
H2037 C2051 0.929 . S
H2038 C2052 0.931 . S
H2039 C2054 0.930 . S
C2040 H2028 0.930 . S
C2040 C2041 1.399 . S
C2040 C2045 1.399 . S
C2041 C2040 1.399 . S
C2041 C2042 1.376 . S
C2042 H2029 0.931 1_655 S
C2042 C2041 1.376 . S
C2042 C2043 1.388 1_655 S
C2043 H2030 0.930 . S
C2043 C2042 1.388 1_455 S
C2043 C2044 1.390 . S
C2044 C2043 1.390 . S
C2044 C2045 1.394 1_455 S
C2044 C2050 1.465 . S
C2045 C2040 1.399 . S
C2045 C2044 1.394 1_655 S
C2045 C2046 1.516 . S
C2046 C2045 1.516 . S
C2046 C2047 1.502 . S
C2046 C2048 1.561 1_655 S
C2046 C2049 1.526 1_655 S
C2047 H2031 0.959 . S
C2047 H2032 0.959 . S
C2047 H2033 0.961 . S
C2047 C2046 1.502 . S
C2048 H2034 0.960 . S
C2048 H2035 0.961 . S
C2048 H2036 0.959 . S
C2048 C2046 1.561 1_455 S
C2049 C2046 1.526 1_455 S
C2049 C2050 1.396 . S
C2049 C2054 1.390 . S
C2050 C2044 1.465 . S
C2050 C2049 1.396 . S
C2050 C2051 1.399 . S
C2051 H2037 0.929 . S
C2051 C2050 1.399 . S
C2051 C2052 1.385 . S
C2052 H2038 0.931 . S
C2052 C2051 1.385 . S
C2052 C2053 1.389 . S
C2053 C2052 1.389 . S
C2053 C2054 1.387 . S
C2054 H2039 0.930 . S
C2054 C2049 1.390 . S
C2054 C2053 1.387 . S
H2055 C2067 0.930 . S
H2056 C2069 0.930 . S
H2057 C2070 0.930 . S
H2058 C2074 0.959 . S
H2059 C2074 0.959 . S
H2060 C2074 0.961 . S
H2061 C2075 0.960 . S
H2062 C2075 0.961 . S
H2063 C2075 0.959 . S
H2064 C2078 0.929 . S
H2065 C2079 0.931 . S
H2066 C2081 0.930 . S
C2067 H2055 0.930 . S
C2067 C2068 1.399 . S
C2067 C2072 1.399 . S
C2068 C2067 1.399 . S
C2068 C2069 1.376 . S
C2069 H2056 0.930 . S
C2069 C2068 1.376 . S
C2069 C2070 1.388 . S
C2070 H2057 0.930 . S
C2070 C2069 1.388 . S
C2070 C2071 1.390 . S
C2071 C2070 1.390 . S
C2071 C2072 1.394 . S
C2071 C2077 1.465 . S
C2072 C2067 1.399 . S
C2072 C2071 1.394 . S
C2072 C2073 1.516 . S
C2073 C2072 1.516 . S
C2073 C2074 1.502 . S
C2073 C2075 1.561 . S
C2073 C2076 1.526 . S
C2074 H2058 0.959 . S
C2074 H2059 0.959 . S
C2074 H2060 0.961 . S
C2074 C2073 1.502 . S
C2075 H2061 0.960 . S
C2075 H2062 0.961 . S
C2075 H2063 0.959 . S
C2075 C2073 1.561 . S
C2076 C2073 1.526 . S
C2076 C2077 1.396 . S
C2076 C2081 1.390 . S
C2077 C2071 1.465 . S
C2077 C2076 1.396 . S
C2077 C2078 1.399 . S
C2078 H2064 0.929 . S
C2078 C2077 1.399 . S
C2078 C2079 1.385 . S
C2079 H2065 0.931 . S
C2079 C2078 1.385 . S
C2079 C2080 1.389 . S
C2080 C2079 1.389 . S
C2080 C2081 1.387 . S
C2081 H2066 0.930 . S
C2081 C2076 1.390 . S
C2081 C2080 1.387 . S
H2082 C2094 0.930 . S
H2083 C2096 0.930 . S
H2084 C2097 0.930 . S
H2085 C2101 0.959 . S
H2086 C2101 0.959 . S
H2087 C2101 0.961 . S
H2088 C2102 0.960 . S
H2089 C2102 0.961 . S
H2090 C2102 0.959 . S
H2091 C2105 0.929 . S
H2092 C2106 0.931 . S
H2093 C2108 0.930 . S
C2094 H2082 0.930 . S
C2094 C2095 1.399 . S
C2094 C2099 1.399 . S
C2095 C2094 1.399 . S
C2095 C2096 1.376 . S
C2096 H2083 0.930 . S
C2096 C2095 1.376 . S
C2096 C2097 1.388 . S
C2097 H2084 0.930 . S
C2097 C2096 1.388 . S
C2097 C2098 1.390 . S
C2098 C2097 1.390 . S
C2098 C2099 1.394 . S
C2098 C2104 1.465 . S
C2099 C2094 1.399 . S
C2099 C2098 1.394 . S
C2099 C2100 1.516 . S
C2100 C2099 1.516 . S
C2100 C2101 1.502 . S
C2100 C2102 1.561 . S
C2100 C2103 1.526 . S
C2101 H2085 0.959 . S
C2101 H2086 0.959 . S
C2101 H2087 0.961 . S
C2101 C2100 1.502 . S
C2102 H2088 0.960 . S
C2102 H2089 0.961 . S
C2102 H2090 0.959 . S
C2102 C2100 1.561 . S
C2103 C2100 1.526 . S
C2103 C2104 1.396 . S
C2103 C2108 1.390 . S
C2104 C2098 1.465 . S
C2104 C2103 1.396 . S
C2104 C2105 1.399 . S
C2105 H2091 0.929 . S
C2105 C2104 1.399 . S
C2105 C2106 1.385 . S
C2106 H2092 0.931 . S
C2106 C2105 1.385 . S
C2106 C2107 1.389 . S
C2107 C2106 1.389 . S
C2107 C2108 1.387 . S
C2108 H2093 0.930 . S
C2108 C2103 1.390 . S
C2108 C2107 1.387 . S
H2109 C2121 0.930 . S
H2110 C2123 0.930 . S
H2111 C2124 0.930 . S
H2112 C2128 0.959 . S
H2113 C2128 0.959 . S
H2114 C2128 0.961 1_455 S
H2115 C2129 0.960 . S
H2116 C2129 0.961 1_655 S
H2117 C2129 0.959 . S
H2118 C2132 0.929 . S
H2119 C2133 0.931 . S
H2120 C2135 0.930 . S
C2121 H2109 0.930 . S
C2121 C2122 1.399 1_554 S
C2121 C2126 1.395 1_554 S
C2122 C2121 1.399 1_556 S
C2122 C2123 1.376 . S
C2123 H2110 0.930 . S
C2123 C2122 1.376 . S
C2123 C2124 1.388 . S
C2124 H2111 0.930 . S
C2124 C2123 1.388 . S
C2124 C2125 1.390 . S
C2125 C2124 1.390 . S
C2125 C2126 1.415 . S
C2125 C2131 1.465 1_455 S
C2126 C2121 1.395 1_556 S
C2126 C2125 1.415 . S
C2126 C2127 1.479 1_456 S
C2127 C2126 1.479 1_654 S
C2127 C2128 1.509 . S
C2127 C2129 1.555 1_655 S
C2127 C2130 1.526 1_554 S
C2128 H2112 0.959 . S
C2128 H2113 0.959 . S
C2128 H2114 0.961 1_655 S
C2128 C2127 1.509 . S
C2129 H2115 0.960 . S
C2129 H2116 0.961 1_455 S
C2129 H2117 0.959 . S
C2129 C2127 1.555 1_455 S
C2130 C2127 1.526 1_556 S
C2130 C2131 1.428 . S
C2130 C2135 1.384 1_556 S
C2131 C2125 1.465 1_655 S
C2131 C2130 1.428 . S
C2131 C2132 1.399 . S
C2132 H2118 0.929 . S
C2132 C2131 1.399 . S
C2132 C2133 1.385 . S
C2133 H2119 0.931 . S
C2133 C2132 1.385 . S
C2133 C2134 1.389 . S
C2134 C2133 1.389 . S
C2134 C2135 1.387 1_556 S
C2135 H2120 0.930 . S
C2135 C2130 1.384 1_554 S
C2135 C2134 1.387 1_554 S
H2136 C2148 0.930 1_455 S
H2137 C2150 0.930 . S
H2138 C2151 0.930 . S
H2139 C2155 0.959 . S
H2140 C2155 0.959 . S
H2141 C2155 0.961 . S
H2142 C2156 0.961 . S
H2143 C2156 0.961 . S
H2144 C2156 0.959 1_655 S
H2145 C2159 0.929 . S
H2146 C2160 0.939 . S
H2147 C2162 0.930 . S
C2148 H2136 0.930 1_655 S
C2148 C2149 1.399 . S
C2148 C2153 1.405 . S
C2149 C2148 1.399 . S
C2149 C2150 1.376 . S
C2150 H2137 0.930 . S
C2150 C2149 1.376 . S
C2150 C2151 1.388 . S
C2151 H2138 0.930 . S
C2151 C2150 1.388 . S
C2151 C2152 1.390 . S
C2152 C2151 1.390 . S
C2152 C2153 1.414 . S
C2152 C2158 1.465 . S
C2153 C2148 1.405 . S
C2153 C2152 1.414 . S
C2153 C2154 1.494 1_655 S
C2154 C2153 1.494 1_455 S
C2154 C2155 1.502 . S
C2154 C2156 1.561 . S
C2154 C2157 1.526 . S
C2155 H2139 0.959 . S
C2155 H2140 0.959 . S
C2155 H2141 0.961 . S
C2155 C2154 1.502 . S
C2156 H2142 0.961 . S
C2156 H2143 0.961 . S
C2156 H2144 0.959 1_455 S
C2156 C2154 1.561 . S
C2157 C2154 1.526 . S
C2157 C2158 1.396 1_455 S
C2157 C2162 1.390 . S
C2158 C2152 1.465 . S
C2158 C2157 1.396 1_655 S
C2158 C2159 1.399 . S
C2159 H2145 0.929 . S
C2159 C2158 1.399 . S
C2159 C2160 1.401 . S
C2160 H2146 0.939 . S
C2160 C2159 1.401 . S
C2160 C2161 1.367 1_655 S
C2161 C2160 1.367 1_455 S
C2161 C2162 1.387 . S
C2162 H2147 0.930 . S
C2162 C2157 1.390 . S
C2162 C2161 1.387 . S
H2163 C2175 0.930 . S
H2164 C2177 0.930 . S
H2165 C2178 0.930 . S
H2166 C2182 0.959 . S
H2167 C2182 0.959 1_455 S
H2168 C2182 0.961 . S
H2169 C2183 0.960 1_655 S
H2170 C2183 0.961 . S
H2171 C2183 0.959 . S
H2172 C2186 0.929 . S
H2173 C2187 0.931 . S
H2174 C2189 0.930 . S
C2175 H2163 0.930 . S
C2175 C2176 1.399 . S
C2175 C2180 1.399 . S
C2176 C2175 1.399 . S
C2176 C2177 1.376 . S
C2177 H2164 0.930 . S
C2177 C2176 1.376 . S
C2177 C2178 1.388 . S
C2178 H2165 0.930 . S
C2178 C2177 1.388 . S
C2178 C2179 1.390 . S
C2179 C2178 1.390 . S
C2179 C2180 1.394 . S
C2179 C2185 1.465 1_655 S
C2180 C2175 1.399 . S
C2180 C2179 1.394 . S
C2180 C2181 1.551 . S
C2181 C2180 1.551 . S
C2181 C2182 1.513 . S
C2181 C2183 1.552 1_655 S
C2181 C2184 1.489 1_655 S
C2182 H2166 0.959 . S
C2182 H2167 0.959 1_655 S
C2182 H2168 0.961 . S
C2182 C2181 1.513 . S
C2183 H2169 0.960 1_455 S
C2183 H2170 0.961 . S
C2183 H2171 0.959 . S
C2183 C2181 1.552 1_455 S
C2184 C2181 1.489 1_455 S
C2184 C2185 1.396 . S
C2184 C2189 1.390 . S
C2185 C2179 1.465 1_455 S
C2185 C2184 1.396 . S
C2185 C2186 1.399 . S
C2186 H2172 0.929 . S
C2186 C2185 1.399 . S
C2186 C2187 1.385 . S
C2187 H2173 0.931 . S
C2187 C2186 1.385 . S
C2187 C2188 1.389 . S
C2188 C2187 1.389 . S
C2188 C2189 1.387 . S
C2189 H2174 0.930 . S
C2189 C2184 1.390 . S
C2189 C2188 1.387 . S
H2190 C2202 0.930 . S
H2191 C2204 0.930 . S
H2192 C2205 0.930 . S
H2193 C2209 0.959 . S
H2194 C2209 0.959 . S
H2195 C2209 0.961 . S
H2196 C2210 0.960 . S
H2197 C2210 0.961 . S
H2198 C2210 0.959 . S
H2199 C2213 0.929 . S
H2200 C2214 0.931 . S
H2201 C2216 0.930 . S
C2202 H2190 0.930 . S
C2202 C2203 1.399 . S
C2202 C2207 1.399 . S
C2203 C2202 1.399 . S
C2203 C2204 1.376 . S
C2204 H2191 0.930 . S
C2204 C2203 1.376 . S
C2204 C2205 1.388 . S
C2205 H2192 0.930 . S
C2205 C2204 1.388 . S
C2205 C2206 1.390 . S
C2206 C2205 1.390 . S
C2206 C2207 1.394 . S
C2206 C2212 1.465 . S
C2207 C2202 1.399 . S
C2207 C2206 1.394 . S
C2207 C2208 1.516 . S
C2208 C2207 1.516 . S
C2208 C2209 1.502 . S
C2208 C2210 1.561 . S
C2208 C2211 1.526 . S
C2209 H2193 0.959 . S
C2209 H2194 0.959 . S
C2209 H2195 0.961 . S
C2209 C2208 1.502 . S
C2210 H2196 0.960 . S
C2210 H2197 0.961 . S
C2210 H2198 0.959 . S
C2210 C2208 1.561 . S
C2211 C2208 1.526 . S
C2211 C2212 1.396 . S
C2211 C2216 1.390 . S
C2212 C2206 1.465 . S
C2212 C2211 1.396 . S
C2212 C2213 1.399 . S
C2213 H2199 0.929 . S
C2213 C2212 1.399 . S
C2213 C2214 1.385 . S
C2214 H2200 0.931 . S
C2214 C2213 1.385 . S
C2214 C2215 1.389 . S
C2215 C2214 1.389 . S
C2215 C2216 1.387 . S
C2216 H2201 0.930 . S
C2216 C2211 1.390 . S
C2216 C2215 1.387 . S
H2217 C2229 0.930 . S
H2218 C2231 0.930 . S
H2219 C2232 0.930 . S
H2220 C2236 0.959 . S
H2221 C2236 0.959 . S
H2222 C2236 0.961 . S
H2223 C2237 0.960 . S
H2224 C2237 0.961 . S
H2225 C2237 0.959 . S
H2226 C2240 0.929 . S
H2227 C2241 0.931 . S
H2228 C2243 0.930 . S
C2229 H2217 0.930 . S
C2229 C2230 1.399 1_554 S
C2229 C2234 1.399 1_554 S
C2230 C2229 1.399 1_556 S
C2230 C2231 1.376 . S
C2231 H2218 0.930 . S
C2231 C2230 1.376 . S
C2231 C2232 1.388 . S
C2232 H2219 0.930 . S
C2232 C2231 1.388 . S
C2232 C2233 1.390 . S
C2233 C2232 1.390 . S
C2233 C2234 1.394 . S
C2233 C2239 1.465 . S
C2234 C2229 1.399 1_556 S
C2234 C2233 1.394 . S
C2234 C2235 1.516 1_556 S
C2235 C2234 1.516 1_554 S
C2235 C2236 1.502 . S
C2235 C2237 1.561 . S
C2235 C2238 1.526 1_554 S
C2236 H2220 0.959 . S
C2236 H2221 0.959 . S
C2236 H2222 0.961 . S
C2236 C2235 1.502 . S
C2237 H2223 0.960 . S
C2237 H2224 0.961 . S
C2237 H2225 0.959 . S
C2237 C2235 1.561 . S
C2238 C2235 1.526 1_556 S
C2238 C2239 1.396 . S
C2238 C2243 1.390 1_556 S
C2239 C2233 1.465 . S
C2239 C2238 1.396 . S
C2239 C2240 1.399 . S
C2240 H2226 0.929 . S
C2240 C2239 1.399 . S
C2240 C2241 1.385 . S
C2241 H2227 0.931 . S
C2241 C2240 1.385 . S
C2241 C2242 1.389 . S
C2242 C2241 1.389 . S
C2242 C2243 1.387 1_556 S
C2243 H2228 0.930 . S
C2243 C2238 1.390 1_554 S
C2243 C2242 1.387 1_554 S
H2244 C2256 0.930 . S
H2245 C2258 0.930 . S
H2246 C2259 0.930 . S
H2247 C2263 0.959 . S
H2248 C2263 0.959 . S
H2249 C2263 0.961 . S
H2250 C2264 0.960 . S
H2251 C2264 0.961 . S
H2252 C2264 0.959 . S
H2253 C2267 0.929 . S
H2254 C2268 0.931 . S
H2255 C2270 0.930 . S
C2256 H2244 0.930 . S
C2256 C2257 1.399 . S
C2256 C2261 1.399 . S
C2257 C2256 1.399 . S
C2257 C2258 1.376 . S
C2258 H2245 0.930 . S
C2258 C2257 1.376 . S
C2258 C2259 1.388 . S
C2259 H2246 0.930 . S
C2259 C2258 1.388 . S
C2259 C2260 1.390 . S
C2260 C2259 1.390 . S
C2260 C2261 1.394 . S
C2260 C2266 1.465 . S
C2261 C2256 1.399 . S
C2261 C2260 1.394 . S
C2261 C2262 1.516 1_655 S
C2262 C2261 1.516 1_455 S
C2262 C2263 1.502 . S
C2262 C2264 1.561 1_455 S
C2262 C2265 1.526 . S
C2263 H2247 0.959 . S
C2263 H2248 0.959 . S
C2263 H2249 0.961 . S
C2263 C2262 1.502 . S
C2264 H2250 0.960 . S
C2264 H2251 0.961 . S
C2264 H2252 0.959 . S
C2264 C2262 1.561 1_655 S
C2265 C2262 1.526 . S
C2265 C2266 1.396 1_455 S
C2265 C2270 1.390 . S
C2266 C2260 1.465 . S
C2266 C2265 1.396 1_655 S
C2266 C2267 1.399 . S
C2267 H2253 0.929 . S
C2267 C2266 1.399 . S
C2267 C2268 1.385 1_655 S
C2268 H2254 0.931 . S
C2268 C2267 1.385 1_455 S
C2268 C2269 1.389 . S
C2269 C2268 1.389 . S
C2269 C2270 1.387 . S
C2270 H2255 0.930 . S
C2270 C2265 1.390 . S
C2270 C2269 1.387 . S
H2271 C2283 0.930 . S
H2272 C2285 0.930 . S
H2273 C2286 0.930 . S
H2274 C2290 0.959 . S
H2275 C2290 0.959 . S
H2276 C2290 0.961 . S
H2277 C2291 0.960 . S
H2278 C2291 0.961 . S
H2279 C2291 0.959 . S
H2280 C2294 0.929 . S
H2281 C2295 0.931 . S
H2282 C2297 0.930 . S
C2283 H2271 0.930 . S
C2283 C2284 1.399 . S
C2283 C2288 1.399 . S
C2284 C2283 1.399 . S
C2284 C2285 1.376 . S
C2285 H2272 0.930 . S
C2285 C2284 1.376 . S
C2285 C2286 1.388 . S
C2286 H2273 0.930 . S
C2286 C2285 1.388 . S
C2286 C2287 1.390 . S
C2287 C2286 1.390 . S
C2287 C2288 1.394 . S
C2287 C2293 1.465 . S
C2288 C2283 1.399 . S
C2288 C2287 1.394 . S
C2288 C2289 1.516 . S
C2289 C2288 1.516 . S
C2289 C2290 1.502 . S
C2289 C2291 1.561 . S
C2289 C2292 1.526 . S
C2290 H2274 0.959 . S
C2290 H2275 0.959 . S
C2290 H2276 0.961 . S
C2290 C2289 1.502 . S
C2291 H2277 0.960 . S
C2291 H2278 0.961 . S
C2291 H2279 0.959 . S
C2291 C2289 1.561 . S
C2292 C2289 1.526 . S
C2292 C2293 1.396 . S
C2292 C2297 1.390 . S
C2293 C2287 1.465 . S
C2293 C2292 1.396 . S
C2293 C2294 1.399 . S
C2294 H2280 0.929 . S
C2294 C2293 1.399 . S
C2294 C2295 1.385 . S
C2295 H2281 0.931 . S
C2295 C2294 1.385 . S
C2295 C2296 1.389 . S
C2296 C2295 1.389 . S
C2296 C2297 1.387 . S
C2297 H2282 0.930 . S
C2297 C2292 1.390 . S
C2297 C2296 1.387 . S
H2298 C2310 0.930 . S
H2299 C2312 0.930 . S
H2300 C2313 0.930 . S
H2301 C2317 0.959 . S
H2302 C2317 0.959 . S
H2303 C2317 0.961 . S
H2304 C2318 0.960 . S
H2305 C2318 0.961 . S
H2306 C2318 0.959 . S
H2307 C2321 0.929 . S
H2308 C2322 0.931 . S
H2309 C2324 0.930 . S
C2310 H2298 0.930 . S
C2310 C2311 1.399 . S
C2310 C2315 1.399 . S
C2311 C2310 1.399 . S
C2311 C2312 1.376 . S
C2312 H2299 0.930 . S
C2312 C2311 1.376 . S
C2312 C2313 1.388 . S
C2313 H2300 0.930 . S
C2313 C2312 1.388 . S
C2313 C2314 1.390 . S
C2314 C2313 1.390 . S
C2314 C2315 1.394 . S
C2314 C2320 1.465 . S
C2315 C2310 1.399 . S
C2315 C2314 1.394 . S
C2315 C2316 1.516 . S
C2316 C2315 1.516 . S
C2316 C2317 1.502 . S
C2316 C2318 1.561 . S
C2316 C2319 1.526 . S
C2317 H2301 0.959 . S
C2317 H2302 0.959 . S
C2317 H2303 0.961 . S
C2317 C2316 1.502 . S
C2318 H2304 0.960 . S
C2318 H2305 0.961 . S
C2318 H2306 0.959 . S
C2318 C2316 1.561 . S
C2319 C2316 1.526 . S
C2319 C2320 1.396 . S
C2319 C2324 1.390 . S
C2320 C2314 1.465 . S
C2320 C2319 1.396 . S
C2320 C2321 1.399 . S
C2321 H2307 0.929 . S
C2321 C2320 1.399 . S
C2321 C2322 1.385 . S
C2322 H2308 0.931 . S
C2322 C2321 1.385 . S
C2322 C2323 1.389 . S
C2323 C2322 1.389 . S
C2323 C2324 1.387 . S
C2324 H2309 0.930 . S
C2324 C2319 1.390 . S
C2324 C2323 1.387 . S
H2325 C2337 0.930 . S
H2326 C2339 0.930 . S
H2327 C2340 0.930 . S
H2328 C2344 0.959 . S
H2329 C2344 0.959 . S
H2330 C2344 0.961 1_455 S
H2331 C2345 0.957 1_455 S
H2332 C2345 0.964 . S
H2333 C2345 0.958 1_455 S
H2334 C2348 0.929 . S
H2335 C2349 0.931 . S
H2336 C2351 0.930 . S
C2337 H2325 0.930 . S
C2337 C2338 1.399 . S
C2337 C2342 1.399 . S
C2338 C2337 1.399 . S
C2338 C2339 1.376 1_554 S
C2339 H2326 0.930 . S
C2339 C2338 1.376 1_556 S
C2339 C2340 1.388 . S
C2340 H2327 0.930 . S
C2340 C2339 1.388 . S
C2340 C2341 1.390 1_556 S
C2341 C2340 1.390 1_554 S
C2341 C2342 1.394 . S
C2341 C2347 1.465 1_455 S
C2342 C2337 1.399 . S
C2342 C2341 1.394 . S
C2342 C2343 1.516 1_455 S
C2343 C2342 1.516 1_655 S
C2343 C2344 1.502 . S
C2343 C2345 1.562 . S
C2343 C2346 1.526 . S
C2344 H2328 0.959 . S
C2344 H2329 0.959 . S
C2344 H2330 0.961 1_655 S
C2344 C2343 1.502 . S
C2345 H2331 0.957 1_655 S
C2345 H2332 0.964 . S
C2345 H2333 0.958 1_655 S
C2345 C2343 1.562 . S
C2346 C2343 1.526 . S
C2346 C2347 1.396 . S
C2346 C2351 1.390 . S
C2347 C2341 1.465 1_655 S
C2347 C2346 1.396 . S
C2347 C2348 1.399 1_554 S
C2348 H2334 0.929 . S
C2348 C2347 1.399 1_556 S
C2348 C2349 1.385 . S
C2349 H2335 0.931 . S
C2349 C2348 1.385 . S
C2349 C2350 1.389 1_556 S
C2350 C2349 1.389 1_554 S
C2350 C2351 1.387 . S
C2351 H2336 0.930 . S
C2351 C2346 1.390 . S
C2351 C2350 1.387 . S
H2352 C2364 0.930 . S
H2353 C2366 0.930 . S
H2354 C2367 0.930 . S
H2355 C2371 0.959 . S
H2356 C2371 0.959 . S
H2357 C2371 0.961 . S
H2358 C2372 0.960 . S
H2359 C2372 0.961 . S
H2360 C2372 0.959 . S
H2361 C2375 0.929 . S
H2362 C2376 0.931 . S
H2363 C2378 0.930 . S
C2364 H2352 0.930 . S
C2364 C2365 1.399 . S
C2364 C2369 1.399 . S
C2365 C2364 1.399 . S
C2365 C2366 1.376 . S
C2366 H2353 0.930 . S
C2366 C2365 1.376 . S
C2366 C2367 1.388 . S
C2367 H2354 0.930 . S
C2367 C2366 1.388 . S
C2367 C2368 1.390 . S
C2368 C2367 1.390 . S
C2368 C2369 1.394 . S
C2368 C2374 1.465 . S
C2369 C2364 1.399 . S
C2369 C2368 1.394 . S
C2369 C2370 1.516 . S
C2370 C2369 1.516 . S
C2370 C2371 1.502 . S
C2370 C2372 1.561 . S
C2370 C2373 1.526 . S
C2371 H2355 0.959 . S
C2371 H2356 0.959 . S
C2371 H2357 0.961 . S
C2371 C2370 1.502 . S
C2372 H2358 0.960 . S
C2372 H2359 0.961 . S
C2372 H2360 0.959 . S
C2372 C2370 1.561 . S
C2373 C2370 1.526 . S
C2373 C2374 1.396 . S
C2373 C2378 1.390 . S
C2374 C2368 1.465 . S
C2374 C2373 1.396 . S
C2374 C2375 1.399 . S
C2375 H2361 0.929 . S
C2375 C2374 1.399 . S
C2375 C2376 1.385 . S
C2376 H2362 0.931 . S
C2376 C2375 1.385 . S
C2376 C2377 1.389 . S
C2377 C2376 1.389 . S
C2377 C2378 1.387 . S
C2378 H2363 0.930 . S
C2378 C2373 1.390 . S
C2378 C2377 1.387 . S
H2379 C2391 0.930 . S
H2380 C2393 0.930 . S
H2381 C2394 0.930 . S
H2382 C2398 0.959 . S
H2383 C2398 0.959 . S
H2384 C2398 0.961 . S
H2385 C2399 0.960 . S
H2386 C2399 0.961 . S
H2387 C2399 0.959 . S
H2388 C2402 0.929 . S
H2389 C2403 0.918 1_655 S
H2390 C2405 0.930 1_655 S
C2391 H2379 0.930 . S
C2391 C2392 1.399 . S
C2391 C2396 1.399 . S
C2392 C2391 1.399 . S
C2392 C2393 1.376 . S
C2393 H2380 0.930 . S
C2393 C2392 1.376 . S
C2393 C2394 1.388 . S
C2394 H2381 0.930 . S
C2394 C2393 1.388 . S
C2394 C2395 1.390 . S
C2395 C2394 1.390 . S
C2395 C2396 1.394 . S
C2395 C2401 1.465 . S
C2396 C2391 1.399 . S
C2396 C2395 1.394 . S
C2396 C2397 1.516 . S
C2397 C2396 1.516 . S
C2397 C2398 1.502 . S
C2397 C2399 1.561 . S
C2397 C2400 1.526 . S
C2398 H2382 0.959 . S
C2398 H2383 0.959 . S
C2398 H2384 0.961 . S
C2398 C2397 1.502 . S
C2399 H2385 0.960 . S
C2399 H2386 0.961 . S
C2399 H2387 0.959 . S
C2399 C2397 1.561 . S
C2400 C2397 1.526 . S
C2400 C2401 1.396 . S
C2400 C2405 1.390 . S
C2401 C2395 1.465 . S
C2401 C2400 1.396 . S
C2401 C2402 1.399 . S
C2402 H2388 0.929 . S
C2402 C2401 1.399 . S
C2402 C2403 1.407 . S
C2403 H2389 0.918 1_455 S
C2403 C2402 1.407 . S
C2403 C2404 1.381 1_455 S
C2404 C2403 1.381 1_655 S
C2404 C2405 1.387 1_655 S
C2405 H2390 0.930 1_455 S
C2405 C2400 1.390 . S
C2405 C2404 1.387 1_455 S
H2406 C2418 0.930 . S
H2407 C2420 0.930 . S
H2408 C2421 0.930 . S
H2409 C2425 0.959 . S
H2410 C2425 0.959 . S
H2411 C2425 0.961 . S
H2412 C2426 0.960 . S
H2413 C2426 0.961 . S
H2414 C2426 0.959 . S
H2415 C2429 0.929 . S
H2416 C2430 0.931 . S
H2417 C2432 0.930 . S
C2418 H2406 0.930 . S
C2418 C2419 1.399 . S
C2418 C2423 1.399 . S
C2419 C2418 1.399 . S
C2419 C2420 1.376 . S
C2420 H2407 0.930 . S
C2420 C2419 1.376 . S
C2420 C2421 1.388 . S
C2421 H2408 0.930 . S
C2421 C2420 1.388 . S
C2421 C2422 1.390 . S
C2422 C2421 1.390 . S
C2422 C2423 1.394 . S
C2422 C2428 1.465 . S
C2423 C2418 1.399 . S
C2423 C2422 1.394 . S
C2423 C2424 1.516 . S
C2424 C2423 1.516 . S
C2424 C2425 1.502 . S
C2424 C2426 1.561 . S
C2424 C2427 1.526 . S
C2425 H2409 0.959 . S
C2425 H2410 0.959 . S
C2425 H2411 0.961 . S
C2425 C2424 1.502 . S
C2426 H2412 0.960 . S
C2426 H2413 0.961 . S
C2426 H2414 0.959 . S
C2426 C2424 1.561 . S
C2427 C2424 1.526 . S
C2427 C2428 1.396 . S
C2427 C2432 1.390 . S
C2428 C2422 1.465 . S
C2428 C2427 1.396 . S
C2428 C2429 1.399 . S
C2429 H2415 0.929 . S
C2429 C2428 1.399 . S
C2429 C2430 1.385 . S
C2430 H2416 0.931 . S
C2430 C2429 1.385 . S
C2430 C2431 1.389 . S
C2431 C2430 1.389 . S
C2431 C2432 1.387 . S
C2432 H2417 0.930 . S
C2432 C2427 1.390 . S
C2432 C2431 1.387 . S
H2433 C2445 0.930 . S
H2434 C2447 0.930 . S
H2435 C2448 0.930 . S
H2436 C2452 0.959 . S
H2437 C2452 0.959 . S
H2438 C2452 0.961 . S
H2439 C2453 0.960 . S
H2440 C2453 0.961 . S
H2441 C2453 0.959 . S
H2442 C2456 0.929 . S
H2443 C2457 0.931 . S
H2444 C2459 0.930 . S
C2445 H2433 0.930 . S
C2445 C2446 1.399 . S
C2445 C2450 1.399 . S
C2446 C2445 1.399 . S
C2446 C2447 1.376 . S
C2447 H2434 0.930 . S
C2447 C2446 1.376 . S
C2447 C2448 1.388 . S
C2448 H2435 0.930 . S
C2448 C2447 1.388 . S
C2448 C2449 1.390 . S
C2449 C2448 1.390 . S
C2449 C2450 1.394 . S
C2449 C2455 1.465 . S
C2450 C2445 1.399 . S
C2450 C2449 1.394 . S
C2450 C2451 1.516 . S
C2451 C2450 1.516 . S
C2451 C2452 1.502 . S
C2451 C2453 1.561 . S
C2451 C2454 1.526 . S
C2452 H2436 0.959 . S
C2452 H2437 0.959 . S
C2452 H2438 0.961 . S
C2452 C2451 1.502 . S
C2453 H2439 0.960 . S
C2453 H2440 0.961 . S
C2453 H2441 0.959 . S
C2453 C2451 1.561 . S
C2454 C2451 1.526 . S
C2454 C2455 1.396 . S
C2454 C2459 1.390 . S
C2455 C2449 1.465 . S
C2455 C2454 1.396 . S
C2455 C2456 1.399 . S
C2456 H2442 0.929 . S
C2456 C2455 1.399 . S
C2456 C2457 1.385 . S
C2457 H2443 0.931 . S
C2457 C2456 1.385 . S
C2457 C2458 1.389 . S
C2458 C2457 1.389 . S
C2458 C2459 1.387 . S
C2459 H2444 0.930 . S
C2459 C2454 1.390 . S
C2459 C2458 1.387 . S
H2460 C2472 0.930 . S
H2461 C2474 0.930 . S
H2462 C2475 0.930 . S
H2463 C2479 0.959 . S
H2464 C2479 0.959 . S
H2465 C2479 0.961 . S
H2466 C2480 0.960 . S
H2467 C2480 0.961 . S
H2468 C2480 0.959 . S
H2469 C2483 0.929 . S
H2470 C2484 0.931 . S
H2471 C2486 0.930 . S
C2472 H2460 0.930 . S
C2472 C2473 1.399 . S
C2472 C2477 1.399 . S
C2473 C2472 1.399 . S
C2473 C2474 1.376 . S
C2474 H2461 0.930 . S
C2474 C2473 1.376 . S
C2474 C2475 1.388 . S
C2475 H2462 0.930 . S
C2475 C2474 1.388 . S
C2475 C2476 1.390 . S
C2476 C2475 1.390 . S
C2476 C2477 1.394 . S
C2476 C2482 1.465 . S
C2477 C2472 1.399 . S
C2477 C2476 1.394 . S
C2477 C2478 1.516 . S
C2478 C2477 1.516 . S
C2478 C2479 1.502 . S
C2478 C2480 1.561 . S
C2478 C2481 1.526 . S
C2479 H2463 0.959 . S
C2479 H2464 0.959 . S
C2479 H2465 0.961 . S
C2479 C2478 1.502 . S
C2480 H2466 0.960 . S
C2480 H2467 0.961 . S
C2480 H2468 0.959 . S
C2480 C2478 1.561 . S
C2481 C2478 1.526 . S
C2481 C2482 1.396 . S
C2481 C2486 1.390 . S
C2482 C2476 1.465 . S
C2482 C2481 1.396 . S
C2482 C2483 1.399 . S
C2483 H2469 0.929 . S
C2483 C2482 1.399 . S
C2483 C2484 1.385 . S
C2484 H2470 0.931 . S
C2484 C2483 1.385 . S
C2484 C2485 1.389 . S
C2485 C2484 1.389 . S
C2485 C2486 1.387 . S
C2486 H2471 0.930 . S
C2486 C2481 1.390 . S
C2486 C2485 1.387 . S
H2487 C2499 0.930 . S
H2488 C2501 0.930 . S
H2489 C2502 0.930 . S
H2490 C2506 0.959 . S
H2491 C2506 0.959 . S
H2492 C2506 0.961 . S
H2493 C2507 0.960 . S
H2494 C2507 0.961 . S
H2495 C2507 0.959 . S
H2496 C2510 0.929 . S
H2497 C2511 0.931 . S
H2498 C2513 0.930 . S
C2499 H2487 0.930 . S
C2499 C2500 1.399 . S
C2499 C2504 1.399 . S
C2500 C2499 1.399 . S
C2500 C2501 1.376 . S
C2501 H2488 0.930 . S
C2501 C2500 1.376 . S
C2501 C2502 1.388 . S
C2502 H2489 0.930 . S
C2502 C2501 1.388 . S
C2502 C2503 1.390 . S
C2503 C2502 1.390 . S
C2503 C2504 1.394 . S
C2503 C2509 1.465 . S
C2504 C2499 1.399 . S
C2504 C2503 1.394 . S
C2504 C2505 1.516 . S
C2505 C2504 1.516 . S
C2505 C2506 1.502 . S
C2505 C2507 1.561 . S
C2505 C2508 1.526 . S
C2506 H2490 0.959 . S
C2506 H2491 0.959 . S
C2506 H2492 0.961 . S
C2506 C2505 1.502 . S
C2507 H2493 0.960 . S
C2507 H2494 0.961 . S
C2507 H2495 0.959 . S
C2507 C2505 1.561 . S
C2508 C2505 1.526 . S
C2508 C2509 1.396 . S
C2508 C2513 1.390 . S
C2509 C2503 1.465 . S
C2509 C2508 1.396 . S
C2509 C2510 1.399 . S
C2510 H2496 0.929 . S
C2510 C2509 1.399 . S
C2510 C2511 1.385 . S
C2511 H2497 0.931 . S
C2511 C2510 1.385 . S
C2511 C2512 1.389 . S
C2512 C2511 1.389 . S
C2512 C2513 1.387 . S
C2513 H2498 0.930 . S
C2513 C2508 1.390 . S
C2513 C2512 1.387 . S
H2514 C2526 0.930 . S
H2515 C2528 0.930 . S
H2516 C2529 0.930 . S
H2517 C2533 0.959 . S
H2518 C2533 0.959 . S
H2519 C2533 0.961 . S
H2520 C2534 0.960 . S
H2521 C2534 0.961 . S
H2522 C2534 0.959 . S
H2523 C2537 0.929 . S
H2524 C2538 0.931 . S
H2525 C2540 0.930 . S
C2526 H2514 0.930 . S
C2526 C2527 1.399 . S
C2526 C2531 1.399 . S
C2527 C2526 1.399 . S
C2527 C2528 1.376 . S
C2528 H2515 0.930 . S
C2528 C2527 1.376 . S
C2528 C2529 1.388 . S
C2529 H2516 0.930 . S
C2529 C2528 1.388 . S
C2529 C2530 1.390 . S
C2530 C2529 1.390 . S
C2530 C2531 1.394 . S
C2530 C2536 1.465 . S
C2531 C2526 1.399 . S
C2531 C2530 1.394 . S
C2531 C2532 1.516 . S
C2532 C2531 1.516 . S
C2532 C2533 1.502 . S
C2532 C2534 1.561 . S
C2532 C2535 1.526 . S
C2533 H2517 0.959 . S
C2533 H2518 0.959 . S
C2533 H2519 0.961 . S
C2533 C2532 1.502 . S
C2534 H2520 0.960 . S
C2534 H2521 0.961 . S
C2534 H2522 0.959 . S
C2534 C2532 1.561 . S
C2535 C2532 1.526 . S
C2535 C2536 1.396 . S
C2535 C2540 1.390 . S
C2536 C2530 1.465 . S
C2536 C2535 1.396 . S
C2536 C2537 1.399 . S
C2537 H2523 0.929 . S
C2537 C2536 1.399 . S
C2537 C2538 1.385 . S
C2538 H2524 0.931 . S
C2538 C2537 1.385 . S
C2538 C2539 1.389 . S
C2539 C2538 1.389 . S
C2539 C2540 1.387 . S
C2540 H2525 0.930 . S
C2540 C2535 1.390 . S
C2540 C2539 1.387 . S
H2541 C2553 0.930 . S
H2542 C2555 0.930 . S
H2543 C2556 0.930 . S
H2544 C2560 0.959 . S
H2545 C2560 0.959 . S
H2546 C2560 0.961 . S
H2547 C2561 0.960 1_655 S
H2548 C2561 0.961 . S
H2549 C2561 0.959 1_655 S
H2550 C2564 0.929 . S
H2551 C2565 0.931 . S
H2552 C2567 0.930 . S
C2553 H2541 0.930 . S
C2553 C2554 1.399 . S
C2553 C2558 1.399 1_655 S
C2554 C2553 1.399 . S
C2554 C2555 1.376 1_655 S
C2555 H2542 0.930 . S
C2555 C2554 1.376 1_455 S
C2555 C2556 1.388 . S
C2556 H2543 0.930 . S
C2556 C2555 1.388 . S
C2556 C2557 1.390 . S
C2557 C2556 1.390 . S
C2557 C2558 1.394 . S
C2557 C2563 1.465 . S
C2558 C2553 1.399 1_455 S
C2558 C2557 1.394 . S
C2558 C2559 1.516 . S
C2559 C2558 1.516 . S
C2559 C2560 1.502 . S
C2559 C2561 1.562 . S
C2559 C2562 1.526 . S
C2560 H2544 0.959 . S
C2560 H2545 0.959 . S
C2560 H2546 0.961 . S
C2560 C2559 1.502 . S
C2561 H2547 0.960 1_455 S
C2561 H2548 0.961 . S
C2561 H2549 0.959 1_455 S
C2561 C2559 1.562 . S
C2562 C2559 1.526 . S
C2562 C2563 1.396 . S
C2562 C2567 1.390 . S
C2563 C2557 1.465 . S
C2563 C2562 1.396 . S
C2563 C2564 1.399 . S
C2564 H2550 0.929 . S
C2564 C2563 1.399 . S
C2564 C2565 1.385 . S
C2565 H2551 0.931 . S
C2565 C2564 1.385 . S
C2565 C2566 1.389 . S
C2566 C2565 1.389 . S
C2566 C2567 1.387 . S
C2567 H2552 0.930 . S
C2567 C2562 1.390 . S
C2567 C2566 1.387 . S
H2568 C2580 0.930 . S
H2569 C2582 0.930 . S
H2570 C2583 0.930 . S
H2571 C2587 0.959 . S
H2572 C2587 0.959 . S
H2573 C2587 0.961 . S
H2574 C2588 0.960 . S
H2575 C2588 0.961 . S
H2576 C2588 0.959 . S
H2577 C2591 0.929 . S
H2578 C2592 0.931 . S
H2579 C2594 0.930 . S
C2580 H2568 0.930 . S
C2580 C2581 1.399 . S
C2580 C2585 1.399 . S
C2581 C2580 1.399 . S
C2581 C2582 1.376 . S
C2582 H2569 0.930 . S
C2582 C2581 1.376 . S
C2582 C2583 1.388 . S
C2583 H2570 0.930 . S
C2583 C2582 1.388 . S
C2583 C2584 1.390 . S
C2584 C2583 1.390 . S
C2584 C2585 1.394 . S
C2584 C2590 1.465 . S
C2585 C2580 1.399 . S
C2585 C2584 1.394 . S
C2585 C2586 1.516 . S
C2586 C2585 1.516 . S
C2586 C2587 1.502 . S
C2586 C2588 1.561 . S
C2586 C2589 1.526 . S
C2587 H2571 0.959 . S
C2587 H2572 0.959 . S
C2587 H2573 0.961 . S
C2587 C2586 1.502 . S
C2588 H2574 0.960 . S
C2588 H2575 0.961 . S
C2588 H2576 0.959 . S
C2588 C2586 1.561 . S
C2589 C2586 1.526 . S
C2589 C2590 1.396 . S
C2589 C2594 1.390 . S
C2590 C2584 1.465 . S
C2590 C2589 1.396 . S
C2590 C2591 1.399 . S
C2591 H2577 0.929 . S
C2591 C2590 1.399 . S
C2591 C2592 1.385 . S
C2592 H2578 0.931 . S
C2592 C2591 1.385 . S
C2592 C2593 1.389 . S
C2593 C2592 1.389 . S
C2593 C2594 1.387 . S
C2594 H2579 0.930 . S
C2594 C2589 1.390 . S
C2594 C2593 1.387 . S
H2595 C2607 0.930 . S
H2596 C2609 0.930 . S
H2597 C2610 0.930 . S
H2598 C2614 0.959 1_455 S
H2599 C2614 0.959 1_455 S
H2600 C2614 0.961 . S
H2601 C2615 0.960 . S
H2602 C2615 0.961 . S
H2603 C2615 0.959 . S
H2604 C2618 0.929 . S
H2605 C2619 0.931 . S
H2606 C2621 0.930 . S
C2607 H2595 0.930 . S
C2607 C2608 1.399 . S
C2607 C2612 1.399 . S
C2608 C2607 1.399 . S
C2608 C2609 1.376 . S
C2609 H2596 0.930 . S
C2609 C2608 1.376 . S
C2609 C2610 1.388 . S
C2610 H2597 0.930 . S
C2610 C2609 1.388 . S
C2610 C2611 1.390 . S
C2611 C2610 1.390 . S
C2611 C2612 1.394 . S
C2611 C2617 1.465 . S
C2612 C2607 1.399 . S
C2612 C2611 1.394 . S
C2612 C2613 1.516 . S
C2613 C2612 1.516 . S
C2613 C2614 1.502 . S
C2613 C2615 1.561 . S
C2613 C2616 1.526 . S
C2614 H2598 0.959 1_655 S
C2614 H2599 0.959 1_655 S
C2614 H2600 0.961 . S
C2614 C2613 1.502 . S
C2615 H2601 0.960 . S
C2615 H2602 0.961 . S
C2615 H2603 0.959 . S
C2615 C2613 1.561 . S
C2616 C2613 1.526 . S
C2616 C2617 1.396 . S
C2616 C2621 1.390 1_655 S
C2617 C2611 1.465 . S
C2617 C2616 1.396 . S
C2617 C2618 1.399 . S
C2618 H2604 0.929 . S
C2618 C2617 1.399 . S
C2618 C2619 1.385 . S
C2619 H2605 0.931 . S
C2619 C2618 1.385 . S
C2619 C2620 1.389 1_655 S
C2620 C2619 1.389 1_455 S
C2620 C2621 1.387 . S
C2621 H2606 0.930 . S
C2621 C2616 1.390 1_455 S
C2621 C2620 1.387 . S
H2622 C2634 0.930 . S
H2623 C2636 0.930 . S
H2624 C2637 0.930 . S
H2625 C2641 0.959 . S
H2626 C2641 0.959 . S
H2627 C2641 0.961 . S
H2628 C2642 0.960 . S
H2629 C2642 0.961 . S
H2630 C2642 0.959 . S
H2631 C2645 0.929 . S
H2632 C2646 0.931 . S
H2633 C2648 0.930 . S
C2634 H2622 0.930 . S
C2634 C2635 1.399 . S
C2634 C2639 1.399 . S
C2635 C2634 1.399 . S
C2635 C2636 1.376 . S
C2636 H2623 0.930 . S
C2636 C2635 1.376 . S
C2636 C2637 1.388 . S
C2637 H2624 0.930 . S
C2637 C2636 1.388 . S
C2637 C2638 1.390 . S
C2638 C2637 1.390 . S
C2638 C2639 1.394 . S
C2638 C2644 1.465 . S
C2639 C2634 1.399 . S
C2639 C2638 1.394 . S
C2639 C2640 1.516 . S
C2640 C2639 1.516 . S
C2640 C2641 1.502 . S
C2640 C2642 1.561 . S
C2640 C2643 1.526 . S
C2641 H2625 0.959 . S
C2641 H2626 0.959 . S
C2641 H2627 0.961 . S
C2641 C2640 1.502 . S
C2642 H2628 0.960 . S
C2642 H2629 0.961 . S
C2642 H2630 0.959 . S
C2642 C2640 1.561 . S
C2643 C2640 1.526 . S
C2643 C2644 1.396 . S
C2643 C2648 1.390 . S
C2644 C2638 1.465 . S
C2644 C2643 1.396 . S
C2644 C2645 1.399 . S
C2645 H2631 0.929 . S
C2645 C2644 1.399 . S
C2645 C2646 1.385 . S
C2646 H2632 0.931 . S
C2646 C2645 1.385 . S
C2646 C2647 1.389 . S
C2647 C2646 1.389 . S
C2647 C2648 1.387 . S
C2648 H2633 0.930 . S
C2648 C2643 1.390 . S
C2648 C2647 1.387 . S
H2649 C2661 0.930 . S
H2650 C2663 0.930 . S
H2651 C2664 0.930 . S
H2652 C2668 0.959 . S
H2653 C2668 0.959 . S
H2654 C2668 0.961 . S
H2655 C2669 0.960 . S
H2656 C2669 0.961 . S
H2657 C2669 0.959 . S
H2658 C2672 0.929 . S
H2659 C2673 0.931 . S
H2660 C2675 0.930 . S
C2661 H2649 0.930 . S
C2661 C2662 1.399 . S
C2661 C2666 1.399 . S
C2662 C2661 1.399 . S
C2662 C2663 1.376 . S
C2663 H2650 0.930 . S
C2663 C2662 1.376 . S
C2663 C2664 1.388 . S
C2664 H2651 0.930 . S
C2664 C2663 1.388 . S
C2664 C2665 1.390 . S
C2665 C2664 1.390 . S
C2665 C2666 1.394 . S
C2665 C2671 1.465 . S
C2666 C2661 1.399 . S
C2666 C2665 1.394 . S
C2666 C2667 1.516 . S
C2667 C2666 1.516 . S
C2667 C2668 1.502 . S
C2667 C2669 1.561 . S
C2667 C2670 1.526 . S
C2668 H2652 0.959 . S
C2668 H2653 0.959 . S
C2668 H2654 0.961 . S
C2668 C2667 1.502 . S
C2669 H2655 0.960 . S
C2669 H2656 0.961 . S
C2669 H2657 0.959 . S
C2669 C2667 1.561 . S
C2670 C2667 1.526 . S
C2670 C2671 1.396 . S
C2670 C2675 1.390 . S
C2671 C2665 1.465 . S
C2671 C2670 1.396 . S
C2671 C2672 1.399 . S
C2672 H2658 0.929 . S
C2672 C2671 1.399 . S
C2672 C2673 1.385 . S
C2673 H2659 0.931 . S
C2673 C2672 1.385 . S
C2673 C2674 1.389 . S
C2674 C2673 1.389 . S
C2674 C2675 1.387 . S
C2675 H2660 0.930 . S
C2675 C2670 1.390 . S
C2675 C2674 1.387 . S
H2676 C2688 0.930 . S
H2677 C2690 0.930 . S
H2678 C2691 0.930 . S
H2679 C2695 0.959 . S
H2680 C2695 0.959 . S
H2681 C2695 0.961 . S
H2682 C2696 0.960 . S
H2683 C2696 0.961 . S
H2684 C2696 0.959 . S
H2685 C2699 0.929 . S
H2686 C2700 0.931 . S
H2687 C2702 0.930 . S
C2688 H2676 0.930 . S
C2688 C2689 1.399 . S
C2688 C2693 1.399 . S
C2689 C2688 1.399 . S
C2689 C2690 1.376 . S
C2690 H2677 0.930 . S
C2690 C2689 1.376 . S
C2690 C2691 1.388 . S
C2691 H2678 0.930 . S
C2691 C2690 1.388 . S
C2691 C2692 1.390 . S
C2692 C2691 1.390 . S
C2692 C2693 1.394 . S
C2692 C2698 1.465 . S
C2693 C2688 1.399 . S
C2693 C2692 1.394 . S
C2693 C2694 1.516 . S
C2694 C2693 1.516 . S
C2694 C2695 1.502 . S
C2694 C2696 1.561 . S
C2694 C2697 1.526 . S
C2695 H2679 0.959 . S
C2695 H2680 0.959 . S
C2695 H2681 0.961 . S
C2695 C2694 1.502 . S
C2696 H2682 0.960 . S
C2696 H2683 0.961 . S
C2696 H2684 0.959 . S
C2696 C2694 1.561 . S
C2697 C2694 1.526 . S
C2697 C2698 1.396 . S
C2697 C2702 1.390 . S
C2698 C2692 1.465 . S
C2698 C2697 1.396 . S
C2698 C2699 1.399 . S
C2699 H2685 0.929 . S
C2699 C2698 1.399 . S
C2699 C2700 1.385 . S
C2700 H2686 0.931 . S
C2700 C2699 1.385 . S
C2700 C2701 1.389 . S
C2701 C2700 1.389 . S
C2701 C2702 1.387 . S
C2702 H2687 0.930 . S
C2702 C2697 1.390 . S
C2702 C2701 1.387 . S
H2703 C2715 0.930 . S
H2704 C2717 0.930 . S
H2705 C2718 0.930 . S
H2706 C2722 0.959 . S
H2707 C2722 0.959 . S
H2708 C2722 0.961 . S
H2709 C2723 0.960 . S
H2710 C2723 0.961 . S
H2711 C2723 0.959 . S
H2712 C2726 0.929 . S
H2713 C2727 0.931 . S
H2714 C2729 0.930 . S
C2715 H2703 0.930 . S
C2715 C2716 1.399 . S
C2715 C2720 1.399 . S
C2716 C2715 1.399 . S
C2716 C2717 1.376 . S
C2717 H2704 0.930 . S
C2717 C2716 1.376 . S
C2717 C2718 1.388 . S
C2718 H2705 0.930 . S
C2718 C2717 1.388 . S
C2718 C2719 1.390 . S
C2719 C2718 1.390 . S
C2719 C2720 1.394 . S
C2719 C2725 1.465 . S
C2720 C2715 1.399 . S
C2720 C2719 1.394 . S
C2720 C2721 1.516 . S
C2721 C2720 1.516 . S
C2721 C2722 1.502 . S
C2721 C2723 1.561 . S
C2721 C2724 1.526 . S
C2722 H2706 0.959 . S
C2722 H2707 0.959 . S
C2722 H2708 0.961 . S
C2722 C2721 1.502 . S
C2723 H2709 0.960 . S
C2723 H2710 0.961 . S
C2723 H2711 0.959 . S
C2723 C2721 1.561 . S
C2724 C2721 1.526 . S
C2724 C2725 1.396 . S
C2724 C2729 1.390 . S
C2725 C2719 1.465 . S
C2725 C2724 1.396 . S
C2725 C2726 1.399 . S
C2726 H2712 0.929 . S
C2726 C2725 1.399 . S
C2726 C2727 1.385 . S
C2727 H2713 0.931 . S
C2727 C2726 1.385 . S
C2727 C2728 1.389 . S
C2728 C2727 1.389 . S
C2728 C2729 1.387 . S
C2729 H2714 0.930 . S
C2729 C2724 1.390 . S
C2729 C2728 1.387 . S
H2730 C2742 0.930 . S
H2731 C2744 0.930 . S
H2732 C2745 0.930 . S
H2733 C2749 0.959 . S
H2734 C2749 0.959 . S
H2735 C2749 0.961 . S
H2736 C2750 0.960 . S
H2737 C2750 0.961 . S
H2738 C2750 0.959 . S
H2739 C2753 0.929 . S
H2740 C2754 0.931 . S
H2741 C2756 0.930 . S
C2742 H2730 0.930 . S
C2742 C2743 1.399 . S
C2742 C2747 1.399 . S
C2743 C2742 1.399 . S
C2743 C2744 1.376 . S
C2744 H2731 0.930 . S
C2744 C2743 1.376 . S
C2744 C2745 1.388 . S
C2745 H2732 0.930 . S
C2745 C2744 1.388 . S
C2745 C2746 1.390 . S
C2746 C2745 1.390 . S
C2746 C2747 1.394 . S
C2746 C2752 1.465 . S
C2747 C2742 1.399 . S
C2747 C2746 1.394 . S
C2747 C2748 1.516 . S
C2748 C2747 1.516 . S
C2748 C2749 1.502 . S
C2748 C2750 1.561 . S
C2748 C2751 1.526 . S
C2749 H2733 0.959 . S
C2749 H2734 0.959 . S
C2749 H2735 0.961 . S
C2749 C2748 1.502 . S
C2750 H2736 0.960 . S
C2750 H2737 0.961 . S
C2750 H2738 0.959 . S
C2750 C2748 1.561 . S
C2751 C2748 1.526 . S
C2751 C2752 1.396 . S
C2751 C2756 1.390 . S
C2752 C2746 1.465 . S
C2752 C2751 1.396 . S
C2752 C2753 1.399 . S
C2753 H2739 0.929 . S
C2753 C2752 1.399 . S
C2753 C2754 1.385 . S
C2754 H2740 0.931 . S
C2754 C2753 1.385 . S
C2754 C2755 1.389 . S
C2755 C2754 1.389 . S
C2755 C2756 1.387 . S
C2756 H2741 0.930 . S
C2756 C2751 1.390 . S
C2756 C2755 1.387 . S
H2757 C2769 0.930 . S
H2758 C2771 0.930 . S
H2759 C2772 0.930 1_455 S
H2760 C2776 0.959 . S
H2761 C2776 0.959 . S
H2762 C2776 0.961 . S
H2763 C2777 0.960 . S
H2764 C2777 0.961 . S
H2765 C2777 0.959 . S
H2766 C2780 0.929 . S
H2767 C2781 0.931 . S
H2768 C2783 0.930 . S
C2769 H2757 0.930 . S
C2769 C2770 1.399 1_655 S
C2769 C2774 1.399 . S
C2770 C2769 1.399 1_455 S
C2770 C2771 1.376 . S
C2771 H2758 0.930 . S
C2771 C2770 1.376 . S
C2771 C2772 1.388 1_455 S
C2772 H2759 0.930 1_655 S
C2772 C2771 1.388 1_655 S
C2772 C2773 1.390 . S
C2773 C2772 1.390 . S
C2773 C2774 1.394 . S
C2773 C2779 1.465 . S
C2774 C2769 1.399 . S
C2774 C2773 1.394 . S
C2774 C2775 1.516 . S
C2775 C2774 1.516 . S
C2775 C2776 1.502 . S
C2775 C2777 1.561 . S
C2775 C2778 1.526 . S
C2776 H2760 0.959 . S
C2776 H2761 0.959 . S
C2776 H2762 0.961 . S
C2776 C2775 1.502 . S
C2777 H2763 0.960 . S
C2777 H2764 0.961 . S
C2777 H2765 0.959 . S
C2777 C2775 1.561 . S
C2778 C2775 1.526 . S
C2778 C2779 1.396 . S
C2778 C2783 1.390 . S
C2779 C2773 1.465 . S
C2779 C2778 1.396 . S
C2779 C2780 1.399 . S
C2780 H2766 0.929 . S
C2780 C2779 1.399 . S
C2780 C2781 1.385 . S
C2781 H2767 0.931 . S
C2781 C2780 1.385 . S
C2781 C2782 1.389 . S
C2782 C2781 1.389 . S
C2782 C2783 1.387 . S
C2783 H2768 0.930 . S
C2783 C2778 1.390 . S
C2783 C2782 1.387 . S
H2784 C2796 0.930 . S
H2785 C2798 0.930 . S
H2786 C2799 0.930 . S
H2787 C2803 0.959 . S
H2788 C2803 0.959 . S
H2789 C2803 0.961 . S
H2790 C2804 0.960 . S
H2791 C2804 0.961 . S
H2792 C2804 0.959 . S
H2793 C2807 0.929 . S
H2794 C2808 0.931 . S
H2795 C2810 0.930 . S
C2796 H2784 0.930 . S
C2796 C2797 1.399 . S
C2796 C2801 1.399 . S
C2797 C2796 1.399 . S
C2797 C2798 1.376 . S
C2798 H2785 0.930 . S
C2798 C2797 1.376 . S
C2798 C2799 1.388 . S
C2799 H2786 0.930 . S
C2799 C2798 1.388 . S
C2799 C2800 1.390 . S
C2800 C2799 1.390 . S
C2800 C2801 1.394 . S
C2800 C2806 1.465 . S
C2801 C2796 1.399 . S
C2801 C2800 1.394 . S
C2801 C2802 1.516 . S
C2802 C2801 1.516 . S
C2802 C2803 1.502 . S
C2802 C2804 1.561 . S
C2802 C2805 1.526 . S
C2803 H2787 0.959 . S
C2803 H2788 0.959 . S
C2803 H2789 0.961 . S
C2803 C2802 1.502 . S
C2804 H2790 0.960 . S
C2804 H2791 0.961 . S
C2804 H2792 0.959 . S
C2804 C2802 1.561 . S
C2805 C2802 1.526 . S
C2805 C2806 1.396 . S
C2805 C2810 1.390 . S
C2806 C2800 1.465 . S
C2806 C2805 1.396 . S
C2806 C2807 1.399 . S
C2807 H2793 0.929 . S
C2807 C2806 1.399 . S
C2807 C2808 1.385 . S
C2808 H2794 0.931 . S
C2808 C2807 1.385 . S
C2808 C2809 1.389 . S
C2809 C2808 1.389 . S
C2809 C2810 1.387 . S
C2810 H2795 0.930 . S
C2810 C2805 1.390 . S
C2810 C2809 1.387 . S
H2811 C2823 0.930 . S
H2812 C2825 0.930 . S
H2813 C2826 0.930 . S
H2814 C2830 0.959 . S
H2815 C2830 0.959 . S
H2816 C2830 0.961 . S
H2817 C2831 0.960 . S
H2818 C2831 0.961 . S
H2819 C2831 0.959 . S
H2820 C2834 0.929 . S
H2821 C2835 0.931 . S
H2822 C2837 0.930 . S
C2823 H2811 0.930 . S
C2823 C2824 1.399 . S
C2823 C2828 1.399 . S
C2824 C2823 1.399 . S
C2824 C2825 1.376 . S
C2825 H2812 0.930 . S
C2825 C2824 1.376 . S
C2825 C2826 1.388 . S
C2826 H2813 0.930 . S
C2826 C2825 1.388 . S
C2826 C2827 1.390 . S
C2827 C2826 1.390 . S
C2827 C2828 1.394 . S
C2827 C2833 1.465 . S
C2828 C2823 1.399 . S
C2828 C2827 1.394 . S
C2828 C2829 1.516 . S
C2829 C2828 1.516 . S
C2829 C2830 1.502 . S
C2829 C2831 1.561 . S
C2829 C2832 1.526 . S
C2830 H2814 0.959 . S
C2830 H2815 0.959 . S
C2830 H2816 0.961 . S
C2830 C2829 1.502 . S
C2831 H2817 0.960 . S
C2831 H2818 0.961 . S
C2831 H2819 0.959 . S
C2831 C2829 1.561 . S
C2832 C2829 1.526 . S
C2832 C2833 1.396 . S
C2832 C2837 1.390 . S
C2833 C2827 1.465 . S
C2833 C2832 1.396 . S
C2833 C2834 1.399 . S
C2834 H2820 0.929 . S
C2834 C2833 1.399 . S
C2834 C2835 1.385 . S
C2835 H2821 0.931 . S
C2835 C2834 1.385 . S
C2835 C2836 1.389 . S
C2836 C2835 1.389 . S
C2836 C2837 1.387 . S
C2837 H2822 0.930 . S
C2837 C2832 1.390 . S
C2837 C2836 1.387 . S
H2838 C2850 0.930 . S
H2839 C2852 0.930 . S
H2840 C2853 0.930 . S
H2841 C2857 0.959 . S
H2842 C2857 0.959 . S
H2843 C2857 0.961 . S
H2844 C2858 0.960 . S
H2845 C2858 0.961 . S
H2846 C2858 0.959 . S
H2847 C2861 0.929 . S
H2848 C2862 0.931 . S
H2849 C2864 0.930 . S
C2850 H2838 0.930 . S
C2850 C2851 1.399 . S
C2850 C2855 1.399 . S
C2851 C2850 1.399 . S
C2851 C2852 1.376 . S
C2852 H2839 0.930 . S
C2852 C2851 1.376 . S
C2852 C2853 1.388 . S
C2853 H2840 0.930 . S
C2853 C2852 1.388 . S
C2853 C2854 1.390 . S
C2854 C2853 1.390 . S
C2854 C2855 1.394 . S
C2854 C2860 1.465 . S
C2855 C2850 1.399 . S
C2855 C2854 1.394 . S
C2855 C2856 1.516 . S
C2856 C2855 1.516 . S
C2856 C2857 1.502 . S
C2856 C2858 1.561 . S
C2856 C2859 1.526 . S
C2857 H2841 0.959 . S
C2857 H2842 0.959 . S
C2857 H2843 0.961 . S
C2857 C2856 1.502 . S
C2858 H2844 0.960 . S
C2858 H2845 0.961 . S
C2858 H2846 0.959 . S
C2858 C2856 1.561 . S
C2859 C2856 1.526 . S
C2859 C2860 1.396 . S
C2859 C2864 1.390 . S
C2860 C2854 1.465 . S
C2860 C2859 1.396 . S
C2860 C2861 1.399 . S
C2861 H2847 0.929 . S
C2861 C2860 1.399 . S
C2861 C2862 1.385 . S
C2862 H2848 0.931 . S
C2862 C2861 1.385 . S
C2862 C2863 1.389 . S
C2863 C2862 1.389 . S
C2863 C2864 1.387 . S
C2864 H2849 0.930 . S
C2864 C2859 1.390 . S
C2864 C2863 1.387 . S
H2865 C2877 0.930 . S
H2866 C2879 0.930 . S
H2867 C2880 0.930 . S
H2868 C2884 0.959 . S
H2869 C2884 0.959 . S
H2870 C2884 0.961 . S
H2871 C2885 0.960 . S
H2872 C2885 0.961 . S
H2873 C2885 0.959 . S
H2874 C2888 0.929 . S
H2875 C2889 0.931 . S
H2876 C2891 0.930 . S
C2877 H2865 0.930 . S
C2877 C2878 1.399 1_655 S
C2877 C2882 1.399 . S
C2878 C2877 1.399 1_455 S
C2878 C2879 1.376 . S
C2879 H2866 0.930 . S
C2879 C2878 1.376 . S
C2879 C2880 1.388 . S
C2880 H2867 0.930 . S
C2880 C2879 1.388 . S
C2880 C2881 1.390 1_455 S
C2881 C2880 1.390 1_655 S
C2881 C2882 1.394 . S
C2881 C2887 1.465 . S
C2882 C2877 1.399 . S
C2882 C2881 1.394 . S
C2882 C2883 1.516 . S
C2883 C2882 1.516 . S
C2883 C2884 1.502 . S
C2883 C2885 1.561 . S
C2883 C2886 1.526 . S
C2884 H2868 0.959 . S
C2884 H2869 0.959 . S
C2884 H2870 0.961 . S
C2884 C2883 1.502 . S
C2885 H2871 0.960 . S
C2885 H2872 0.961 . S
C2885 H2873 0.959 . S
C2885 C2883 1.561 . S
C2886 C2883 1.526 . S
C2886 C2887 1.396 . S
C2886 C2891 1.390 . S
C2887 C2881 1.465 . S
C2887 C2886 1.396 . S
C2887 C2888 1.399 . S
C2888 H2874 0.929 . S
C2888 C2887 1.399 . S
C2888 C2889 1.385 . S
C2889 H2875 0.931 . S
C2889 C2888 1.385 . S
C2889 C2890 1.389 . S
C2890 C2889 1.389 . S
C2890 C2891 1.387 . S
C2891 H2876 0.930 . S
C2891 C2886 1.390 . S
C2891 C2890 1.387 . S
H2892 C2904 0.930 . S
H2893 C2906 0.930 . S
H2894 C2907 0.930 . S
H2895 C2911 0.959 . S
H2896 C2911 0.959 . S
H2897 C2911 0.961 . S
H2898 C2912 0.960 . S
H2899 C2912 0.961 . S
H2900 C2912 0.959 . S
H2901 C2915 0.929 . S
H2902 C2916 0.931 . S
H2903 C2918 0.930 . S
C2904 H2892 0.930 . S
C2904 C2905 1.399 . S
C2904 C2909 1.399 . S
C2905 C2904 1.399 . S
C2905 C2906 1.376 . S
C2906 H2893 0.930 . S
C2906 C2905 1.376 . S
C2906 C2907 1.388 . S
C2907 H2894 0.930 . S
C2907 C2906 1.388 . S
C2907 C2908 1.390 . S
C2908 C2907 1.390 . S
C2908 C2909 1.394 . S
C2908 C2914 1.465 . S
C2909 C2904 1.399 . S
C2909 C2908 1.394 . S
C2909 C2910 1.516 . S
C2910 C2909 1.516 . S
C2910 C2911 1.502 . S
C2910 C2912 1.561 . S
C2910 C2913 1.526 . S
C2911 H2895 0.959 . S
C2911 H2896 0.959 . S
C2911 H2897 0.961 . S
C2911 C2910 1.502 . S
C2912 H2898 0.960 . S
C2912 H2899 0.961 . S
C2912 H2900 0.959 . S
C2912 C2910 1.561 . S
C2913 C2910 1.526 . S
C2913 C2914 1.396 . S
C2913 C2918 1.390 . S
C2914 C2908 1.465 . S
C2914 C2913 1.396 . S
C2914 C2915 1.399 . S
C2915 H2901 0.929 . S
C2915 C2914 1.399 . S
C2915 C2916 1.385 . S
C2916 H2902 0.931 . S
C2916 C2915 1.385 . S
C2916 C2917 1.389 . S
C2917 C2916 1.389 . S
C2917 C2918 1.387 . S
C2918 H2903 0.930 . S
C2918 C2913 1.390 . S
C2918 C2917 1.387 . S
H2919 C2931 0.930 . S
H2920 C2933 0.930 . S
H2921 C2934 0.930 . S
H2922 C2938 0.959 . S
H2923 C2938 0.959 . S
H2924 C2938 0.961 . S
H2925 C2939 0.960 . S
H2926 C2939 0.961 . S
H2927 C2939 0.959 . S
H2928 C2942 0.929 . S
H2929 C2943 0.931 1_455 S
H2930 C2945 0.930 1_455 S
C2931 H2919 0.930 . S
C2931 C2932 1.399 . S
C2931 C2936 1.399 . S
C2932 C2931 1.399 . S
C2932 C2933 1.376 . S
C2933 H2920 0.930 . S
C2933 C2932 1.376 . S
C2933 C2934 1.388 . S
C2934 H2921 0.930 . S
C2934 C2933 1.388 . S
C2934 C2935 1.390 . S
C2935 C2934 1.390 . S
C2935 C2936 1.394 . S
C2935 C2941 1.465 . S
C2936 C2931 1.399 . S
C2936 C2935 1.394 . S
C2936 C2937 1.516 . S
C2937 C2936 1.516 . S
C2937 C2938 1.502 . S
C2937 C2939 1.561 . S
C2937 C2940 1.526 . S
C2938 H2922 0.959 . S
C2938 H2923 0.959 . S
C2938 H2924 0.961 . S
C2938 C2937 1.502 . S
C2939 H2925 0.960 . S
C2939 H2926 0.961 . S
C2939 H2927 0.959 . S
C2939 C2937 1.561 . S
C2940 C2937 1.526 . S
C2940 C2941 1.396 . S
C2940 C2945 1.390 . S
C2941 C2935 1.465 . S
C2941 C2940 1.396 . S
C2941 C2942 1.399 . S
C2942 H2928 0.929 . S
C2942 C2941 1.399 . S
C2942 C2943 1.385 . S
C2943 H2929 0.931 1_655 S
C2943 C2942 1.385 . S
C2943 C2944 1.389 1_655 S
C2944 C2943 1.389 1_455 S
C2944 C2945 1.387 1_455 S
C2945 H2930 0.930 1_655 S
C2945 C2940 1.390 . S
C2945 C2944 1.387 1_655 S
H2946 C2958 0.930 . S
H2947 C2960 0.930 . S
H2948 C2961 0.930 . S
H2949 C2965 0.959 . S
H2950 C2965 0.959 . S
H2951 C2965 0.961 . S
H2952 C2966 0.960 . S
H2953 C2966 0.961 . S
H2954 C2966 0.959 . S
H2955 C2969 0.929 . S
H2956 C2970 0.931 . S
H2957 C2972 0.930 . S
C2958 H2946 0.930 . S
C2958 C2959 1.399 . S
C2958 C2963 1.399 . S
C2959 C2958 1.399 . S
C2959 C2960 1.376 . S
C2960 H2947 0.930 . S
C2960 C2959 1.376 . S
C2960 C2961 1.388 . S
C2961 H2948 0.930 . S
C2961 C2960 1.388 . S
C2961 C2962 1.390 . S
C2962 C2961 1.390 . S
C2962 C2963 1.394 . S
C2962 C2968 1.465 . S
C2963 C2958 1.399 . S
C2963 C2962 1.394 . S
C2963 C2964 1.516 . S
C2964 C2963 1.516 . S
C2964 C2965 1.502 . S
C2964 C2966 1.561 . S
C2964 C2967 1.526 . S
C2965 H2949 0.959 . S
C2965 H2950 0.959 . S
C2965 H2951 0.961 . S
C2965 C2964 1.502 . S
C2966 H2952 0.960 . S
C2966 H2953 0.961 . S
C2966 H2954 0.959 . S
C2966 C2964 1.561 . S
C2967 C2964 1.526 . S
C2967 C2968 1.396 . S
C2967 C2972 1.390 . S
C2968 C2962 1.465 . S
C2968 C2967 1.396 . S
C2968 C2969 1.399 . S
C2969 H2955 0.929 . S
C2969 C2968 1.399 . S
C2969 C2970 1.385 . S
C2970 H2956 0.931 . S
C2970 C2969 1.385 . S
C2970 C2971 1.389 . S
C2971 C2970 1.389 . S
C2971 C2972 1.387 . S
C2972 H2957 0.930 . S
C2972 C2967 1.390 . S
C2972 C2971 1.387 . S
H2973 C2985 0.930 . S
H2974 C2987 0.930 . S
H2975 C2988 0.930 . S
H2976 C2992 0.959 . S
H2977 C2992 0.959 . S
H2978 C2992 0.961 . S
H2979 C2993 0.960 . S
H2980 C2993 0.961 . S
H2981 C2993 0.959 . S
H2982 C2996 0.929 . S
H2983 C2997 0.931 . S
H2984 C2999 0.930 . S
C2985 H2973 0.930 . S
C2985 C2986 1.399 . S
C2985 C2990 1.399 . S
C2986 C2985 1.399 . S
C2986 C2987 1.376 . S
C2987 H2974 0.930 . S
C2987 C2986 1.376 . S
C2987 C2988 1.388 . S
C2988 H2975 0.930 . S
C2988 C2987 1.388 . S
C2988 C2989 1.390 . S
C2989 C2988 1.390 . S
C2989 C2990 1.394 . S
C2989 C2995 1.465 . S
C2990 C2985 1.399 . S
C2990 C2989 1.394 . S
C2990 C2991 1.516 . S
C2991 C2990 1.516 . S
C2991 C2992 1.502 . S
C2991 C2993 1.561 . S
C2991 C2994 1.526 . S
C2992 H2976 0.959 . S
C2992 H2977 0.959 . S
C2992 H2978 0.961 . S
C2992 C2991 1.502 . S
C2993 H2979 0.960 . S
C2993 H2980 0.961 . S
C2993 H2981 0.959 . S
C2993 C2991 1.561 . S
C2994 C2991 1.526 . S
C2994 C2995 1.396 . S
C2994 C2999 1.390 . S
C2995 C2989 1.465 . S
C2995 C2994 1.396 . S
C2995 C2996 1.399 . S
C2996 H2982 0.929 . S
C2996 C2995 1.399 . S
C2996 C2997 1.385 . S
C2997 H2983 0.931 . S
C2997 C2996 1.385 . S
C2997 C2998 1.389 . S
C2998 C2997 1.389 . S
C2998 C2999 1.387 . S
C2999 H2984 0.930 . S
C2999 C2994 1.390 . S
C2999 C2998 1.387 . S
H3000 C3012 0.930 . S
H3001 C3014 0.930 . S
H3002 C3015 0.930 . S
H3003 C3019 0.959 . S
H3004 C3019 0.959 . S
H3005 C3019 0.961 . S
H3006 C3020 0.960 . S
H3007 C3020 0.961 . S
H3008 C3020 0.959 . S
H3009 C3023 0.929 . S
H3010 C3024 0.931 . S
H3011 C3026 0.930 . S
C3012 H3000 0.930 . S
C3012 C3013 1.399 . S
C3012 C3017 1.399 . S
C3013 C3012 1.399 . S
C3013 C3014 1.376 . S
C3014 H3001 0.930 . S
C3014 C3013 1.376 . S
C3014 C3015 1.388 . S
C3015 H3002 0.930 . S
C3015 C3014 1.388 . S
C3015 C3016 1.390 . S
C3016 C3015 1.390 . S
C3016 C3017 1.394 . S
C3016 C3022 1.465 . S
C3017 C3012 1.399 . S
C3017 C3016 1.394 . S
C3017 C3018 1.516 . S
C3018 C3017 1.516 . S
C3018 C3019 1.502 . S
C3018 C3020 1.561 . S
C3018 C3021 1.526 . S
C3019 H3003 0.959 . S
C3019 H3004 0.959 . S
C3019 H3005 0.961 . S
C3019 C3018 1.502 . S
C3020 H3006 0.960 . S
C3020 H3007 0.961 . S
C3020 H3008 0.959 . S
C3020 C3018 1.561 . S
C3021 C3018 1.526 . S
C3021 C3022 1.396 . S
C3021 C3026 1.390 . S
C3022 C3016 1.465 . S
C3022 C3021 1.396 . S
C3022 C3023 1.399 . S
C3023 H3009 0.929 . S
C3023 C3022 1.399 . S
C3023 C3024 1.385 . S
C3024 H3010 0.931 . S
C3024 C3023 1.385 . S
C3024 C3025 1.389 . S
C3025 C3024 1.389 . S
C3025 C3026 1.387 . S
C3026 H3011 0.930 . S
C3026 C3021 1.390 . S
C3026 C3025 1.387 . S
H3027 C3039 0.930 . S
H3028 C3041 0.930 . S
H3029 C3042 0.930 . S
H3030 C3046 0.959 . S
H3031 C3046 0.959 . S
H3032 C3046 0.961 . S
H3033 C3047 0.960 . S
H3034 C3047 0.961 . S
H3035 C3047 0.959 . S
H3036 C3050 0.929 . S
H3037 C3051 0.931 . S
H3038 C3053 0.930 . S
C3039 H3027 0.930 . S
C3039 C3040 1.399 . S
C3039 C3044 1.399 . S
C3040 C3039 1.399 . S
C3040 C3041 1.376 . S
C3041 H3028 0.930 . S
C3041 C3040 1.376 . S
C3041 C3042 1.388 . S
C3042 H3029 0.930 . S
C3042 C3041 1.388 . S
C3042 C3043 1.390 . S
C3043 C3042 1.390 . S
C3043 C3044 1.394 . S
C3043 C3049 1.465 . S
C3044 C3039 1.399 . S
C3044 C3043 1.394 . S
C3044 C3045 1.516 . S
C3045 C3044 1.516 . S
C3045 C3046 1.502 . S
C3045 C3047 1.561 . S
C3045 C3048 1.526 . S
C3046 H3030 0.959 . S
C3046 H3031 0.959 . S
C3046 H3032 0.961 . S
C3046 C3045 1.502 . S
C3047 H3033 0.960 . S
C3047 H3034 0.961 . S
C3047 H3035 0.959 . S
C3047 C3045 1.561 . S
C3048 C3045 1.526 . S
C3048 C3049 1.396 . S
C3048 C3053 1.390 . S
C3049 C3043 1.465 . S
C3049 C3048 1.396 . S
C3049 C3050 1.399 . S
C3050 H3036 0.929 . S
C3050 C3049 1.399 . S
C3050 C3051 1.385 . S
C3051 H3037 0.931 . S
C3051 C3050 1.385 . S
C3051 C3052 1.389 . S
C3052 C3051 1.389 . S
C3052 C3053 1.387 . S
C3053 H3038 0.930 . S
C3053 C3048 1.390 . S
C3053 C3052 1.387 . S
H3054 C3066 0.930 . S
H3055 C3068 0.930 . S
H3056 C3069 0.930 . S
H3057 C3073 0.959 . S
H3058 C3073 0.959 . S
H3059 C3073 0.961 . S
H3060 C3074 0.960 . S
H3061 C3074 0.961 . S
H3062 C3074 0.959 . S
H3063 C3077 0.929 . S
H3064 C3078 0.931 . S
H3065 C3080 0.930 . S
C3066 H3054 0.930 . S
C3066 C3067 1.399 . S
C3066 C3071 1.399 . S
C3067 C3066 1.399 . S
C3067 C3068 1.376 . S
C3068 H3055 0.930 . S
C3068 C3067 1.376 . S
C3068 C3069 1.388 . S
C3069 H3056 0.930 . S
C3069 C3068 1.388 . S
C3069 C3070 1.390 . S
C3070 C3069 1.390 . S
C3070 C3071 1.394 . S
C3070 C3076 1.465 . S
C3071 C3066 1.399 . S
C3071 C3070 1.394 . S
C3071 C3072 1.516 . S
C3072 C3071 1.516 . S
C3072 C3073 1.502 . S
C3072 C3074 1.561 . S
C3072 C3075 1.526 . S
C3073 H3057 0.959 . S
C3073 H3058 0.959 . S
C3073 H3059 0.961 . S
C3073 C3072 1.502 . S
C3074 H3060 0.960 . S
C3074 H3061 0.961 . S
C3074 H3062 0.959 . S
C3074 C3072 1.561 . S
C3075 C3072 1.526 . S
C3075 C3076 1.396 . S
C3075 C3080 1.390 . S
C3076 C3070 1.465 . S
C3076 C3075 1.396 . S
C3076 C3077 1.399 . S
C3077 H3063 0.929 . S
C3077 C3076 1.399 . S
C3077 C3078 1.385 . S
C3078 H3064 0.931 . S
C3078 C3077 1.385 . S
C3078 C3079 1.389 . S
C3079 C3078 1.389 . S
C3079 C3080 1.387 . S
C3080 H3065 0.930 . S
C3080 C3075 1.390 . S
C3080 C3079 1.387 . S
H3081 C3093 0.930 . S
H3082 C3095 0.930 . S
H3083 C3096 0.930 . S
H3084 C3100 0.959 . S
H3085 C3100 0.959 . S
H3086 C3100 0.961 . S
H3087 C3101 0.960 . S
H3088 C3101 0.961 . S
H3089 C3101 0.959 . S
H3090 C3104 0.929 . S
H3091 C3105 0.931 . S
H3092 C3107 0.930 . S
C3093 H3081 0.930 . S
C3093 C3094 1.399 . S
C3093 C3098 1.399 . S
C3094 C3093 1.399 . S
C3094 C3095 1.376 . S
C3095 H3082 0.930 . S
C3095 C3094 1.376 . S
C3095 C3096 1.388 . S
C3096 H3083 0.930 . S
C3096 C3095 1.388 . S
C3096 C3097 1.390 . S
C3097 C3096 1.390 . S
C3097 C3098 1.394 . S
C3097 C3103 1.465 . S
C3098 C3093 1.399 . S
C3098 C3097 1.394 . S
C3098 C3099 1.516 . S
C3099 C3098 1.516 . S
C3099 C3100 1.502 . S
C3099 C3101 1.561 . S
C3099 C3102 1.526 . S
C3100 H3084 0.959 . S
C3100 H3085 0.959 . S
C3100 H3086 0.961 . S
C3100 C3099 1.502 . S
C3101 H3087 0.960 . S
C3101 H3088 0.961 . S
C3101 H3089 0.959 . S
C3101 C3099 1.561 . S
C3102 C3099 1.526 . S
C3102 C3103 1.396 . S
C3102 C3107 1.390 . S
C3103 C3097 1.465 . S
C3103 C3102 1.396 . S
C3103 C3104 1.399 . S
C3104 H3090 0.929 . S
C3104 C3103 1.399 . S
C3104 C3105 1.385 1_455 S
C3105 H3091 0.931 . S
C3105 C3104 1.385 1_655 S
C3105 C3106 1.389 . S
C3106 C3105 1.389 . S
C3106 C3107 1.387 1_655 S
C3107 H3092 0.930 . S
C3107 C3102 1.390 . S
C3107 C3106 1.387 1_455 S
H3108 C3120 0.930 . S
H3109 C3122 0.930 . S
H3110 C3123 0.930 . S
H3111 C3127 0.959 . S
H3112 C3127 0.959 . S
H3113 C3127 0.961 . S
H3114 C3128 0.960 . S
H3115 C3128 0.961 . S
H3116 C3128 0.959 . S
H3117 C3131 0.929 . S
H3118 C3132 0.931 . S
H3119 C3134 0.930 . S
C3120 H3108 0.930 . S
C3120 C3121 1.399 . S
C3120 C3125 1.399 . S
C3121 C3120 1.399 . S
C3121 C3122 1.376 . S
C3122 H3109 0.930 . S
C3122 C3121 1.376 . S
C3122 C3123 1.388 . S
C3123 H3110 0.930 . S
C3123 C3122 1.388 . S
C3123 C3124 1.390 . S
C3124 C3123 1.390 . S
C3124 C3125 1.394 . S
C3124 C3130 1.465 . S
C3125 C3120 1.399 . S
C3125 C3124 1.394 . S
C3125 C3126 1.516 . S
C3126 C3125 1.516 . S
C3126 C3127 1.502 . S
C3126 C3128 1.561 . S
C3126 C3129 1.526 . S
C3127 H3111 0.959 . S
C3127 H3112 0.959 . S
C3127 H3113 0.961 . S
C3127 C3126 1.502 . S
C3128 H3114 0.960 . S
C3128 H3115 0.961 . S
C3128 H3116 0.959 . S
C3128 C3126 1.561 . S
C3129 C3126 1.526 . S
C3129 C3130 1.396 . S
C3129 C3134 1.390 . S
C3130 C3124 1.465 . S
C3130 C3129 1.396 . S
C3130 C3131 1.399 . S
C3131 H3117 0.929 . S
C3131 C3130 1.399 . S
C3131 C3132 1.385 . S
C3132 H3118 0.931 . S
C3132 C3131 1.385 . S
C3132 C3133 1.389 . S
C3133 C3132 1.389 . S
C3133 C3134 1.387 . S
C3134 H3119 0.930 . S
C3134 C3129 1.390 . S
C3134 C3133 1.387 . S
H3135 C3147 0.930 . S
H3136 C3149 0.930 . S
H3137 C3150 0.930 . S
H3138 C3154 0.959 . S
H3139 C3154 0.959 . S
H3140 C3154 0.961 . S
H3141 C3155 0.960 . S
H3142 C3155 0.961 . S
H3143 C3155 0.959 . S
H3144 C3158 0.929 . S
H3145 C3159 0.931 . S
H3146 C3161 0.930 . S
C3147 H3135 0.930 . S
C3147 C3148 1.399 1_455 S
C3147 C3152 1.399 . S
C3148 C3147 1.399 1_655 S
C3148 C3149 1.376 . S
C3149 H3136 0.930 . S
C3149 C3148 1.376 . S
C3149 C3150 1.388 1_655 S
C3150 H3137 0.930 . S
C3150 C3149 1.388 1_455 S
C3150 C3151 1.390 . S
C3151 C3150 1.390 . S
C3151 C3152 1.394 . S
C3151 C3157 1.465 . S
C3152 C3147 1.399 . S
C3152 C3151 1.394 . S
C3152 C3153 1.516 . S
C3153 C3152 1.516 . S
C3153 C3154 1.502 . S
C3153 C3155 1.561 . S
C3153 C3156 1.526 . S
C3154 H3138 0.959 . S
C3154 H3139 0.959 . S
C3154 H3140 0.961 . S
C3154 C3153 1.502 . S
C3155 H3141 0.960 . S
C3155 H3142 0.961 . S
C3155 H3143 0.959 . S
C3155 C3153 1.561 . S
C3156 C3153 1.526 . S
C3156 C3157 1.396 . S
C3156 C3161 1.390 . S
C3157 C3151 1.465 . S
C3157 C3156 1.396 . S
C3157 C3158 1.399 . S
C3158 H3144 0.929 . S
C3158 C3157 1.399 . S
C3158 C3159 1.385 . S
C3159 H3145 0.931 . S
C3159 C3158 1.385 . S
C3159 C3160 1.389 . S
C3160 C3159 1.389 . S
C3160 C3161 1.387 . S
C3161 H3146 0.930 . S
C3161 C3156 1.390 . S
C3161 C3160 1.387 . S
H3162 C3174 0.930 . S
H3163 C3176 0.930 . S
H3164 C3177 0.930 . S
H3165 C3181 0.959 . S
H3166 C3181 0.959 . S
H3167 C3181 0.961 . S
H3168 C3182 0.960 . S
H3169 C3182 0.961 . S
H3170 C3182 0.959 . S
H3171 C3185 0.929 . S
H3172 C3186 0.931 . S
H3173 C3188 0.930 . S
C3174 H3162 0.930 . S
C3174 C3175 1.399 . S
C3174 C3179 1.399 . S
C3175 C3174 1.399 . S
C3175 C3176 1.376 . S
C3176 H3163 0.930 . S
C3176 C3175 1.376 . S
C3176 C3177 1.388 . S
C3177 H3164 0.930 . S
C3177 C3176 1.388 . S
C3177 C3178 1.390 . S
C3178 C3177 1.390 . S
C3178 C3179 1.394 . S
C3178 C3184 1.465 . S
C3179 C3174 1.399 . S
C3179 C3178 1.394 . S
C3179 C3180 1.516 . S
C3180 C3179 1.516 . S
C3180 C3181 1.502 . S
C3180 C3182 1.561 . S
C3180 C3183 1.526 . S
C3181 H3165 0.959 . S
C3181 H3166 0.959 . S
C3181 H3167 0.961 . S
C3181 C3180 1.502 . S
C3182 H3168 0.960 . S
C3182 H3169 0.961 . S
C3182 H3170 0.959 . S
C3182 C3180 1.561 . S
C3183 C3180 1.526 . S
C3183 C3184 1.396 . S
C3183 C3188 1.390 . S
C3184 C3178 1.465 . S
C3184 C3183 1.396 . S
C3184 C3185 1.399 . S
C3185 H3171 0.929 . S
C3185 C3184 1.399 . S
C3185 C3186 1.385 . S
C3186 H3172 0.931 . S
C3186 C3185 1.385 . S
C3186 C3187 1.389 . S
C3187 C3186 1.389 . S
C3187 C3188 1.387 . S
C3188 H3173 0.930 . S
C3188 C3183 1.390 . S
C3188 C3187 1.387 . S
H3189 C3201 0.930 . S
H3190 C3203 0.930 . S
H3191 C3204 0.930 . S
H3192 C3208 0.959 . S
H3193 C3208 0.959 . S
H3194 C3208 0.961 . S
H3195 C3209 0.960 . S
H3196 C3209 0.961 . S
H3197 C3209 0.959 . S
H3198 C3212 0.929 . S
H3199 C3213 0.931 . S
H3200 C3215 0.930 . S
C3201 H3189 0.930 . S
C3201 C3202 1.399 . S
C3201 C3206 1.399 . S
C3202 C3201 1.399 . S
C3202 C3203 1.376 . S
C3203 H3190 0.930 . S
C3203 C3202 1.376 . S
C3203 C3204 1.388 . S
C3204 H3191 0.930 . S
C3204 C3203 1.388 . S
C3204 C3205 1.390 . S
C3205 C3204 1.390 . S
C3205 C3206 1.394 . S
C3205 C3211 1.465 . S
C3206 C3201 1.399 . S
C3206 C3205 1.394 . S
C3206 C3207 1.516 . S
C3207 C3206 1.516 . S
C3207 C3208 1.502 . S
C3207 C3209 1.561 . S
C3207 C3210 1.526 . S
C3208 H3192 0.959 . S
C3208 H3193 0.959 . S
C3208 H3194 0.961 . S
C3208 C3207 1.502 . S
C3209 H3195 0.960 . S
C3209 H3196 0.961 . S
C3209 H3197 0.959 . S
C3209 C3207 1.561 . S
C3210 C3207 1.526 . S
C3210 C3211 1.396 . S
C3210 C3215 1.390 . S
C3211 C3205 1.465 . S
C3211 C3210 1.396 . S
C3211 C3212 1.399 . S
C3212 H3198 0.929 . S
C3212 C3211 1.399 . S
C3212 C3213 1.385 . S
C3213 H3199 0.931 . S
C3213 C3212 1.385 . S
C3213 C3214 1.389 . S
C3214 C3213 1.389 . S
C3214 C3215 1.387 . S
C3215 H3200 0.930 . S
C3215 C3210 1.390 . S
C3215 C3214 1.387 . S
C1069 N244 1.767 . S
C1081 N13 1.760 . S
C1096 N46 1.792 . S
C1108 N145 1.787 . S
C1123 N79 1.802 . S
C1135 N178 1.803 . S
C1150 N211 1.803 . S
C1162 N112 1.800 . S
C1177 N508 1.720 . S
C1189 N277 1.731 . S
C1204 N409 1.747 . S
C1216 N310 1.779 . S
C1231 N343 1.750 . S
C1243 N442 1.782 . S
C1258 N376 1.722 . S
C1270 N475 1.727 . S
C1285 N772 1.748 . S
C1297 N541 1.755 . S
C1312 N574 1.780 . S
C1324 N673 1.773 . S
C1339 N607 1.728 . S
C1351 N706 1.725 . S
C1366 N739 1.804 . S
C1378 N640 1.803 . S
C1393 N1036 1.721 . S
C1405 N805 1.729 . S
C1420 N838 1.803 . S
C1432 N937 1.798 . S
C1447 N970 1.722 . S
C1459 N871 1.727 . S
C1474 N1003 1.777 . S
C1486 N904 1.746 . S
C1501 C150 0.982 . S
C1513 C18 0.961 . S
C1528 C51 0.978 . S
C1540 C183 0.956 . S
C1555 C216 0.955 . S
C1567 C84 0.978 . S
C1582 C117 0.960 . S
C1594 C249 0.982 . S
C1609 C414 0.964 . S
C1621 C282 0.984 . S
C1636 C315 0.983 . S
C1648 C447 0.967 . S
C1663 C348 0.970 . S
C1675 C480 0.956 . S
C1690 C513 0.957 . S
C1702 C381 0.966 . S
C1717 C678 0.954 . S
C1729 C546 0.982 . S
C1744 C711 0.974 . S
C1756 C579 0.959 . S
C1771 C744 0.955 . S
C1783 C612 0.979 . S
C1798 C777 0.972 . S
C1810 C645 0.961 . S
C1825 C942 0.971 . S
C1837 C810 0.955 . S
C1852 C843 0.979 . S
C1864 C975 0.974 . S
C1879 C1008 0.975 . S
C1891 C876 0.954 . S
C1906 C1041 0.982 . S
C1918 C909 0.971 . S
C1933 C601 1.053 . S
C1945 C7 1.112 . S
C1960 C40 1.040 . S
C1972 C634 1.115 . S
C1987 C73 1.065 . S
C1999 C535 1.107 . S
C2014 C106 1.075 . S
C2026 C568 1.101 . S
C2041 C733 1.062 . S
C2053 C139 0.991 . S
C2068 C766 1.053 . S
C2080 C172 1.112 . S
C2095 C205 1.053 . S
C2107 C667 1.112 . S
C2122 C238 1.047 . S
C2134 C700 0.997 . S
C2149 C271 0.988 . S
C2161 C865 1.055 . S
C2176 C304 0.987 . S
C2188 C898 1.031 . S
C2203 C799 0.986 . S
C2215 C337 1.040 . S
C2230 C370 0.987 . S
C2242 C832 1.048 . S
C2257 C403 0.987 . S
C2269 C997 1.035 . S
C2284 C1030 1.116 . S
C2296 C436 1.080 . S
C2311 C469 1.118 . S
C2323 C931 1.071 . S
C2338 C964 1.117 . S
C2350 C502 1.055 . S
C2365 N893 0.813 . S
C2377 C21 0.696 . S
C2392 C54 0.863 . S
C2404 N266 0.700 . S
C2419 C87 0.788 . S
C2431 N827 0.771 . S
C2446 N332 0.730 . S
C2458 C120 0.848 . S
C2473 N959 0.719 . S
C2485 C153 0.811 . S
C2500 C186 0.663 . S
C2512 N464 0.821 . S
C2527 N1025 0.824 . S
C2539 C219 0.650 . S
C2554 N398 0.699 . S
C2566 C252 0.858 . S
C2581 C285 0.852 . S
C2593 N629 0.726 . S
C2608 C318 0.717 . S
C2620 N2 0.802 . S
C2635 N563 0.805 . S
C2647 C351 0.711 . S
C2662 C384 0.664 . S
C2674 N68 0.800 . S
C2689 C417 0.638 . S
C2701 N695 0.819 . S
C2716 C450 0.709 . S
C2728 N200 0.805 . S
C2743 C483 0.642 . S
C2755 N761 0.815 . S
C2770 N134 0.804 . S
C2782 C516 0.661 . S
C2797 C549 0.862 . S
C2809 N365 0.720 . S
C2824 N794 0.748 . S
C2836 C582 0.755 . S
C2851 N299 0.824 . S
C2863 C615 0.653 . S
C2878 N860 0.819 . S
C2890 C648 0.676 . S
C2905 C681 0.659 . S
C2917 N431 0.801 . S
C2932 C714 0.854 . S
C2944 N992 0.702 . S
C2959 N497 0.753 . S
C2971 C747 0.744 . S
C2986 C780 0.832 . S
C2998 N926 0.710 . S
C3013 C813 0.832 . S
C3025 N101 0.741 . S
C3040 N530 0.698 . S
C3052 C846 0.866 . S
C3067 C879 0.734 . S
C3079 N35 0.795 . S
C3094 C912 0.841 . S
C3106 N596 0.709 . S
C3121 C945 0.850 . S
C3133 N167 0.728 . S
C3148 N728 0.817 . S
C3160 C978 0.643 . S
C3175 C1011 0.663 . S
C3187 N233 0.801 . S
C3202 C1044 0.648 . S
C3214 N662 0.823 . S
