# Generated by pormake.
# Topology vcl, (7)-cn, num edge types: 1
# Building blocks:
#     Node 0, Type 0, BuildingBlock: NUHQUE_clean_sbu_2, # of connection points: 7
#     Node 1, Type 0, BuildingBlock: NUHQUE_clean_sbu_2, # of connection points: 7
#     Node 2, Type 0, BuildingBlock: NUHQUE_clean_sbu_2, # of connection points: 7
#     Node 3, Type 0, BuildingBlock: NUHQUE_clean_sbu_2, # of connection points: 7
#     Node 4, Type 0, BuildingBlock: NUHQUE_clean_sbu_2, # of connection points: 7
#     Node 5, Type 0, BuildingBlock: NUHQUE_clean_sbu_2, # of connection points: 7
#     Node 6, Type 0, BuildingBlock: NUHQUE_clean_sbu_2, # of connection points: 7
#     Node 7, Type 0, BuildingBlock: NUHQUE_clean_sbu_2, # of connection points: 7
#     Node 8, Type 0, BuildingBlock: NUHQUE_clean_sbu_2, # of connection points: 7
#     Node 9, Type 0, BuildingBlock: NUHQUE_clean_sbu_2, # of connection points: 7
#     Node 10, Type 0, BuildingBlock: NUHQUE_clean_sbu_2, # of connection points: 7
#     Node 11, Type 0, BuildingBlock: NUHQUE_clean_sbu_2, # of connection points: 7
#     Node 12, Type 0, BuildingBlock: NUHQUE_clean_sbu_2, # of connection points: 7
#     Node 13, Type 0, BuildingBlock: NUHQUE_clean_sbu_2, # of connection points: 7
#     Node 14, Type 0, BuildingBlock: NUHQUE_clean_sbu_2, # of connection points: 7
#     Node 15, Type 0, BuildingBlock: NUHQUE_clean_sbu_2, # of connection points: 7
#     Edge 16, Type (0, 0), BuildingBlock: XUDNAN_clean_linker_2, # of connection points: 2
#     Edge 17, Type (0, 0), BuildingBlock: XUDNAN_clean_linker_2, # of connection points: 2
#     Edge 18, Type (0, 0), BuildingBlock: XUDNAN_clean_linker_2, # of connection points: 2
#     Edge 19, Type (0, 0), BuildingBlock: XUDNAN_clean_linker_2, # of connection points: 2
#     Edge 20, Type (0, 0), BuildingBlock: XUDNAN_clean_linker_2, # of connection points: 2
#     Edge 21, Type (0, 0), BuildingBlock: XUDNAN_clean_linker_2, # of connection points: 2
#     Edge 22, Type (0, 0), BuildingBlock: XUDNAN_clean_linker_2, # of connection points: 2
#     Edge 23, Type (0, 0), BuildingBlock: XUDNAN_clean_linker_2, # of connection points: 2
#     Edge 24, Type (0, 0), BuildingBlock: XUDNAN_clean_linker_2, # of connection points: 2
#     Edge 25, Type (0, 0), BuildingBlock: XUDNAN_clean_linker_2, # of connection points: 2
#     Edge 26, Type (0, 0), BuildingBlock: XUDNAN_clean_linker_2, # of connection points: 2
#     Edge 27, Type (0, 0), BuildingBlock: XUDNAN_clean_linker_2, # of connection points: 2
#     Edge 28, Type (0, 0), BuildingBlock: XUDNAN_clean_linker_2, # of connection points: 2
#     Edge 29, Type (0, 0), BuildingBlock: XUDNAN_clean_linker_2, # of connection points: 2
#     Edge 30, Type (0, 0), BuildingBlock: XUDNAN_clean_linker_2, # of connection points: 2
#     Edge 31, Type (0, 0), BuildingBlock: XUDNAN_clean_linker_2, # of connection points: 2
#     Edge 32, Type (0, 0), BuildingBlock: XUDNAN_clean_linker_2, # of connection points: 2
#     Edge 33, Type (0, 0), BuildingBlock: XUDNAN_clean_linker_2, # of connection points: 2
#     Edge 34, Type (0, 0), BuildingBlock: XUDNAN_clean_linker_2, # of connection points: 2
#     Edge 35, Type (0, 0), BuildingBlock: XUDNAN_clean_linker_2, # of connection points: 2
#     Edge 36, Type (0, 0), BuildingBlock: XUDNAN_clean_linker_2, # of connection points: 2
#     Edge 37, Type (0, 0), BuildingBlock: XUDNAN_clean_linker_2, # of connection points: 2
#     Edge 38, Type (0, 0), BuildingBlock: XUDNAN_clean_linker_2, # of connection points: 2
#     Edge 39, Type (0, 0), BuildingBlock: XUDNAN_clean_linker_2, # of connection points: 2
#     Edge 40, Type (0, 0), BuildingBlock: XUDNAN_clean_linker_2, # of connection points: 2
#     Edge 41, Type (0, 0), BuildingBlock: XUDNAN_clean_linker_2, # of connection points: 2
#     Edge 42, Type (0, 0), BuildingBlock: XUDNAN_clean_linker_2, # of connection points: 2
#     Edge 43, Type (0, 0), BuildingBlock: XUDNAN_clean_linker_2, # of connection points: 2
#     Edge 44, Type (0, 0), BuildingBlock: XUDNAN_clean_linker_2, # of connection points: 2
#     Edge 45, Type (0, 0), BuildingBlock: XUDNAN_clean_linker_2, # of connection points: 2
#     Edge 46, Type (0, 0), BuildingBlock: XUDNAN_clean_linker_2, # of connection points: 2
#     Edge 47, Type (0, 0), BuildingBlock: XUDNAN_clean_linker_2, # of connection points: 2
#     Edge 48, Type (0, 0), BuildingBlock: XUDNAN_clean_linker_2, # of connection points: 2
#     Edge 49, Type (0, 0), BuildingBlock: XUDNAN_clean_linker_2, # of connection points: 2
#     Edge 50, Type (0, 0), BuildingBlock: XUDNAN_clean_linker_2, # of connection points: 2
#     Edge 51, Type (0, 0), BuildingBlock: XUDNAN_clean_linker_2, # of connection points: 2
#     Edge 52, Type (0, 0), BuildingBlock: XUDNAN_clean_linker_2, # of connection points: 2
#     Edge 53, Type (0, 0), BuildingBlock: XUDNAN_clean_linker_2, # of connection points: 2
#     Edge 54, Type (0, 0), BuildingBlock: XUDNAN_clean_linker_2, # of connection points: 2
#     Edge 55, Type (0, 0), BuildingBlock: XUDNAN_clean_linker_2, # of connection points: 2
#     Edge 56, Type (0, 0), BuildingBlock: XUDNAN_clean_linker_2, # of connection points: 2
#     Edge 57, Type (0, 0), BuildingBlock: XUDNAN_clean_linker_2, # of connection points: 2
#     Edge 58, Type (0, 0), BuildingBlock: XUDNAN_clean_linker_2, # of connection points: 2
#     Edge 59, Type (0, 0), BuildingBlock: XUDNAN_clean_linker_2, # of connection points: 2
#     Edge 60, Type (0, 0), BuildingBlock: XUDNAN_clean_linker_2, # of connection points: 2
#     Edge 61, Type (0, 0), BuildingBlock: XUDNAN_clean_linker_2, # of connection points: 2
#     Edge 62, Type (0, 0), BuildingBlock: XUDNAN_clean_linker_2, # of connection points: 2
#     Edge 63, Type (0, 0), BuildingBlock: XUDNAN_clean_linker_2, # of connection points: 2
#     Edge 64, Type (0, 0), BuildingBlock: XUDNAN_clean_linker_2, # of connection points: 2
#     Edge 65, Type (0, 0), BuildingBlock: XUDNAN_clean_linker_2, # of connection points: 2
#     Edge 66, Type (0, 0), BuildingBlock: XUDNAN_clean_linker_2, # of connection points: 2
#     Edge 67, Type (0, 0), BuildingBlock: XUDNAN_clean_linker_2, # of connection points: 2
#     Edge 68, Type (0, 0), BuildingBlock: XUDNAN_clean_linker_2, # of connection points: 2
#     Edge 69, Type (0, 0), BuildingBlock: XUDNAN_clean_linker_2, # of connection points: 2
#     Edge 70, Type (0, 0), BuildingBlock: XUDNAN_clean_linker_2, # of connection points: 2
#     Edge 71, Type (0, 0), BuildingBlock: XUDNAN_clean_linker_2, # of connection points: 2
# Relax obj value: 0.221
# Max RMSD: 0.254
# Mean RMSD: 0.254
data_MOF--net-vcl--node1-NUHQUE_clean_sbu_2--edge1-XUDNAN_clean_linker_2
_symmetry_space_group_name_H-M    P1
_symmetry_Int_Tables_number       1
_symmetry_cell_setting            triclinic
loop_
_symmetry_equiv_pos_as_xyz
'x, y, z'
_cell_length_a     61.011449
_cell_length_b     49.189563
_cell_length_c     32.509618
_cell_angle_alpha  90.300879
_cell_angle_beta   90.03871
_cell_angle_gamma 90.067758
loop_
_atom_site_label
_atom_site_type_symbol
_atom_site_fract_x
_atom_site_fract_y
_atom_site_fract_z
_atom_type_partial_charge
O0 O 0.34359 0.02763 0.08007 0.0
Tb1 Tb 0.33418 0.07047 0.0707 0.0
Eu2 Eu 0.27851 0.1129 0.99218 0.0
C3 C 0.35032 1.01975 0.11682 0.0
O4 O 0.35044 0.03759 0.14695 0.0
C5 C 0.28263 0.07858 0.07572 0.0
O6 O 0.26781 0.15779 0.99149 0.0
C7 C 0.26382 0.08133 0.93322 0.0
C8 C 0.28102 0.17665 1.00692 0.0
O9 O 0.29971 0.1686 0.02283 0.0
C10 C 0.33319 0.10819 0.99811 0.0
C11 C 0.24518 0.07759 0.90446 0.0
C12 C 0.2474 0.06279 0.86724 0.0
C13 C 0.2288 0.05677 0.84253 0.0
C14 C 0.20809 0.06548 0.85648 0.0
C15 C 0.20585 0.08032 0.89322 0.0
C16 C 0.22444 0.08648 0.91663 0.0
O17 O 0.29903 0.06706 0.05551 0.0
O18 O 0.26981 0.09599 0.05567 0.0
O19 O 0.3589 0.0851 0.11329 0.0
O20 O 0.32618 0.09888 0.12096 0.0
C21 C 0.34611 0.10044 0.13521 0.0
O22 O 0.31303 0.10191 1.00747 0.0
O23 O 0.34775 0.09419 1.01896 0.0
O24 O 0.25901 0.07854 0.97239 0.0
O25 O 0.27765 0.10138 0.92657 0.0
H26 H 0.2635 0.05588 0.85786 0.0
H27 H 0.19354 0.06069 0.83878 0.0
H28 H 0.22265 0.09753 0.9454 0.0
O29 O 0.6539 1.01337 0.04964 0.0
Tb30 Tb 0.66716 0.97217 0.04042 0.0
Eu31 Eu 0.70736 0.92752 1.00615 0.0
C32 C 0.65365 0.02325 0.08762 0.0
O33 O 0.66167 1.00807 0.11717 0.0
C34 C 0.71367 0.9699 0.07998 0.0
O35 O 0.72673 0.888 1.00291 0.0
C36 C 0.71677 0.95911 0.94385 0.0
C37 C 0.72289 0.86796 0.02886 0.0
O38 O 0.70942 0.87228 0.05972 0.0
C39 C 0.65841 0.92506 0.98097 0.0
C40 C 0.73673 0.97075 0.92521 0.0
C41 C 0.73578 0.98551 0.88818 0.0
C42 C 0.75519 0.99267 0.86662 0.0
C43 C 0.77543 0.98454 0.88386 0.0
C44 C 0.7765 0.97069 0.92159 0.0
C45 C 0.75704 0.96434 0.94226 0.0
O46 O 0.69995 0.98539 0.05915 0.0
O47 O 0.71759 0.94462 0.06813 0.0
O48 O 0.64077 0.96176 0.08248 0.0
O49 O 0.66963 0.93758 0.08229 0.0
C50 C 0.65043 0.94094 0.09887 0.0
O51 O 0.67271 0.91249 1.00411 0.0
O52 O 0.65768 0.95199 0.98204 0.0
O53 O 0.71115 0.96832 0.98027 0.0
O54 O 0.71523 0.93256 0.94136 0.0
H55 H 0.7198 0.99081 0.87629 0.0
H56 H 0.79051 0.98743 0.86704 0.0
H57 H 0.7576 0.95317 0.97092 0.0
O58 O 0.89789 0.28237 0.36145 0.0
Tb59 Tb 0.91448 0.32124 0.35003 0.0
Eu60 Eu 0.95948 0.36474 0.29781 0.0
C61 C 0.89956 0.27079 0.3979 0.0
O62 O 0.9121 0.28241 0.42577 0.0
C63 C 0.96309 0.32425 0.37567 0.0
O64 O 0.97636 0.40562 0.28674 0.0
C65 C 0.9674 0.33084 0.23715 0.0
C66 C 0.97339 0.4265 0.31198 0.0
O67 O 0.96235 0.42262 0.34613 0.0
C68 C 0.90881 0.36358 0.28356 0.0
C69 C 0.98461 0.32899 0.20508 0.0
C70 C 0.98168 0.3138 0.16845 0.0
C71 C -0.00162 0.3129 0.1381 0.0
C72 C 0.01785 0.32765 0.14546 0.0
C73 C 0.02086 0.34298 0.1817 0.0
C74 C 0.00421 0.34316 0.21136 0.0
O75 O 0.94858 0.30868 0.35665 0.0
O76 O 0.96821 0.34862 0.3613 0.0
O77 O 0.89311 0.3353 0.39977 0.0
O78 O 0.92047 0.35917 0.38369 0.0
C79 C 0.9037 0.35757 0.40803 0.0
O80 O 0.92399 0.3751 0.30627 0.0
O81 O 0.90326 0.33823 0.29152 0.0
O82 O 0.97412 0.32715 0.27511 0.0
O83 O 0.95391 0.35149 0.23421 0.0
H84 H 0.96639 0.30304 0.16353 0.0
H85 H 0.03076 0.32733 0.1227 0.0
H86 H 0.00642 0.35443 0.23981 0.0
O87 O 0.09201 0.76741 0.31524 0.0
Tb88 Tb 0.07439 0.72812 0.31155 0.0
Eu89 Eu 0.031 0.68062 0.27112 0.0
C90 C 0.08361 0.78875 0.33469 0.0
O91 O 0.0626 0.78873 0.34304 0.0
C92 C 0.02803 0.72066 0.34931 0.0
O93 O 0.01269 0.64004 0.26696 0.0
C94 C 0.01999 0.71326 0.21075 0.0
C95 C 0.01346 0.6218 0.29672 0.0
O96 O 0.02301 0.62844 0.33159 0.0
C97 C 0.08147 0.68136 0.24856 0.0
C98 C -0.00017 0.7215 0.18851 0.0
C99 C 0.00083 0.73743 0.1524 0.0
C100 C 0.98149 0.74404 0.13035 0.0
C101 C 0.96128 0.73477 0.14576 0.0
C102 C 0.96015 0.71868 0.18127 0.0
C103 C 0.97946 0.71225 0.2025 0.0
O104 O 0.04036 0.73725 0.32731 0.0
O105 O 0.02305 0.69609 0.3354 0.0
O106 O 0.09561 0.72635 0.36532 0.0
O107 O 0.07975 0.69035 0.34575 0.0
C108 C 0.09319 0.70068 0.37266 0.0
O109 O 0.06659 0.66862 0.27044 0.0
O110 O 0.08437 0.70795 0.25344 0.0
O111 O 0.0216 0.721 0.24932 0.0
O112 O 0.02621 0.68797 0.20548 0.0
H113 H 0.01664 0.74405 0.14104 0.0
H114 H 0.94629 0.73951 0.12945 0.0
H115 H 0.9787 0.69961 0.2297 0.0
O116 O 0.34536 0.52955 0.57225 0.0
Tb117 Tb 0.32949 0.56922 0.56322 0.0
Eu118 Eu 0.28663 0.61476 0.5244 0.0
C119 C 0.34428 0.51828 0.60904 0.0
O120 O 0.3335 0.53113 0.63812 0.0
C121 C 0.28311 0.57289 0.60152 0.0
O122 O 0.26754 0.65476 0.51785 0.0
C123 C 0.27674 0.58115 0.46404 0.0
C124 C 0.27821 0.67826 0.51657 0.0
O125 O 0.29966 0.67786 0.51982 0.0
C126 C 0.33624 0.61377 0.49974 0.0
C127 C 0.25897 0.57954 0.43301 0.0
C128 C 0.26086 0.56371 0.39669 0.0
C129 C 0.24402 0.56394 0.36647 0.0
C130 C 0.22579 0.58101 0.3734 0.0
C131 C 0.22338 0.59598 0.41013 0.0
C132 C 0.24007 0.59492 0.43966 0.0
O133 O 0.29658 0.55661 0.58131 0.0
O134 O 0.27957 0.59811 0.5888 0.0
O135 O 0.3553 0.58085 0.60613 0.0
O136 O 0.32716 0.60592 0.60149 0.0
C137 C 0.34594 0.6028 0.61972 0.0
O138 O 0.32227 0.62715 0.52294 0.0
O139 O 0.33769 0.58706 0.50334 0.0
O140 O 0.27087 0.57747 0.50245 0.0
O141 O 0.29012 0.60182 0.46024 0.0
H142 H 0.27529 0.55124 0.39236 0.0
H143 H 0.21354 0.58328 0.34961 0.0
H144 H 0.23848 0.60618 0.46825 0.0
O145 O 0.65164 0.50421 0.5577 0.0
Tb146 Tb 0.6728 0.46891 0.54449 0.0
Eu147 Eu 0.71372 0.42514 0.50221 0.0
C148 C 0.65861 0.52866 0.56919 0.0
O149 O 0.67936 0.53505 0.56467 0.0
C150 C 0.72049 0.46956 0.57461 0.0
O151 O 0.73175 0.3842 0.50496 0.0
C152 C 0.72475 0.45298 0.43679 0.0
C153 C 0.72073 0.36111 0.50909 0.0
O154 O 0.69937 0.36231 0.51361 0.0
C155 C 0.663 0.42397 0.47946 0.0
C156 C 0.74372 0.46767 0.41902 0.0
C157 C 0.74135 0.48372 0.3834 0.0
C158 C 0.75987 0.49554 0.36429 0.0
C159 C 0.78059 0.49169 0.38239 0.0
C160 C 0.7834 0.47476 0.41684 0.0
C161 C 0.76468 0.46318 0.43509 0.0
O162 O 0.70587 0.48418 0.55459 0.0
O163 O 0.72484 0.44432 0.56279 0.0
O164 O 0.65559 0.45905 0.60135 0.0
O165 O 0.67587 0.42929 0.57437 0.0
C166 C 0.6628 0.43441 0.60493 0.0
O167 O 0.67885 0.41046 0.49748 0.0
O168 O 0.66055 0.45044 0.48653 0.0
O169 O 0.71509 0.46387 0.46902 0.0
O170 O 0.72708 0.42657 0.44029 0.0
H171 H 0.72526 0.48605 0.36976 0.0
H172 H 0.79468 0.50163 0.36893 0.0
H173 H 0.76628 0.44927 0.46061 0.0
O174 O 0.89774 0.77735 0.8596 0.0
Tb175 Tb 0.906 0.8205 0.85079 0.0
Eu176 Eu 0.96251 0.86277 0.77367 0.0
C177 C 0.88797 0.76926 0.89371 0.0
O178 O 0.88368 0.7872 0.92258 0.0
C179 C 0.95688 0.83132 0.85938 0.0
O180 O 0.97147 0.90787 0.76931 0.0
C181 C 0.97891 0.83003 0.71826 0.0
C182 C 0.95734 0.92648 0.78195 0.0
O183 O 0.93854 0.91827 0.79718 0.0
C184 C 0.90783 0.8568 0.77639 0.0
C185 C 0.99625 0.8255 0.687 0.0
C186 C 0.99188 0.81041 0.65079 0.0
C187 C 0.00913 0.80297 0.62406 0.0
C188 C 0.03073 0.80935 0.63562 0.0
C189 C 0.03536 0.82557 0.67035 0.0
C190 C 0.01776 0.83396 0.6953 0.0
O191 O 0.94143 0.8185 0.83831 0.0
O192 O 0.96979 0.84864 0.83944 0.0
O193 O 0.87999 0.83555 0.89009 0.0
O194 O 0.91248 0.84916 0.90148 0.0
C195 C 0.89212 0.85099 0.91324 0.0
O196 O 0.92792 0.85088 0.7868 0.0
O197 O 0.89311 0.84303 0.79722 0.0
O198 O 0.98538 0.83109 0.7569 0.0
O199 O 0.96285 0.84702 0.71011 0.0
H200 H 0.97519 0.80451 0.64357 0.0
H201 H 0.04396 0.80139 0.61705 0.0
H202 H 0.02058 0.84698 0.72169 0.0
O203 O 0.08141 0.26384 0.83767 0.0
Tb204 Tb 0.06738 0.22292 0.83003 0.0
Eu205 Eu 0.02501 0.1781 0.79555 0.0
C206 C 0.0833 0.2737 0.87545 0.0
O207 O 0.07621 0.25889 0.90623 0.0
C208 C 0.02152 0.22082 0.8705 0.0
O209 O 0.00353 0.14006 0.79151 0.0
C210 C 0.01789 0.21144 0.7344 0.0
C211 C 0.01282 0.11581 0.79413 0.0
O212 O 0.03401 0.11463 0.80098 0.0
C213 C 0.07372 0.17573 0.76946 0.0
C214 C -0.00064 0.22026 0.70871 0.0
C215 C 0.00286 0.23509 0.67231 0.0
C216 C 0.98513 0.24141 0.64623 0.0
C217 C 0.96392 0.23301 0.6574 0.0
C218 C 0.96026 0.21856 0.69401 0.0
C219 C 0.9781 0.21244 0.71952 0.0
O220 O 0.03476 0.23629 0.84864 0.0
O221 O 0.01733 0.1955 0.85892 0.0
O222 O 0.09368 0.21181 0.8718 0.0
O223 O 0.0645 0.18829 0.87165 0.0
C224 C 0.08377 0.19112 0.88812 0.0
O225 O 0.05983 0.16379 0.79433 0.0
O226 O 0.07604 0.20248 0.77173 0.0
O227 O 0.01733 0.21879 0.7732 0.0
O228 O 0.02385 0.18603 0.72964 0.0
H229 H 0.01936 0.24099 0.66375 0.0
H230 H 0.95028 0.23734 0.63708 0.0
H231 H 0.97556 0.20113 0.74767 0.0
O232 O 0.85241 0.0318 0.60549 0.0
Tb233 Tb 0.83646 0.07136 0.59705 0.0
Eu234 Eu 0.78427 0.10659 0.50728 0.0
C235 C 0.84353 1.01285 0.62884 0.0
O236 O 0.82356 1.01663 0.64272 0.0
C237 C 0.78536 0.07584 0.59545 0.0
O238 O 0.77986 0.15267 0.50141 0.0
C239 C 0.76736 0.07682 0.4485 0.0
C240 C 0.76091 0.16538 0.50593 0.0
O241 O 0.74323 0.15093 0.51322 0.0
C242 C 0.83755 0.10443 0.52116 0.0
C243 C 0.7509 0.07644 0.41488 0.0
C244 C 0.75477 0.06181 0.37793 0.0
C245 C 0.73804 0.05896 0.34791 0.0
C246 C 0.71735 0.07017 0.35644 0.0
C247 C 0.71348 0.08483 0.39273 0.0
C248 C 0.73035 0.08846 0.42131 0.0
O249 O 0.80238 0.06273 0.57994 0.0
O250 O 0.77364 0.09225 0.57147 0.0
O251 O 0.85193 0.07989 0.65628 0.0
O252 O 0.82811 0.10716 0.63411 0.0
C253 C 0.84191 0.10265 0.66373 0.0
O254 O 0.8182 0.09287 0.52273 0.0
O255 O 0.85173 0.09464 0.54758 0.0
O256 O 0.75961 0.07807 0.48625 0.0
O257 O 0.78526 0.09134 0.44359 0.0
H258 H 0.77066 0.05258 0.37279 0.0
H259 H 0.70399 0.06746 0.3348 0.0
H260 H 0.72713 0.09978 0.44939 0.0
O261 O 0.14832 1.01484 0.58873 0.0
Tb262 Tb 0.15677 0.97252 0.57286 0.0
Eu263 Eu 0.20836 0.9299 0.49026 0.0
C264 C 0.12909 1.02104 0.605 0.0
O265 O 0.11406 1.00195 0.60713 0.0
C266 C 0.20755 0.96652 0.57191 0.0
O267 O 0.21479 0.88394 0.48649 0.0
C268 C 0.22275 0.9595 0.42943 0.0
C269 C 0.23392 0.87217 0.49356 0.0
O270 O 0.251 0.88754 0.5019 0.0
C271 C 0.15376 0.93565 0.5002 0.0
C272 C 0.23883 0.9573 0.39563 0.0
C273 C 0.23827 0.97469 0.36125 0.0
C274 C 0.25459 0.97307 0.33016 0.0
C275 C 0.27134 0.95347 0.33497 0.0
C276 C 0.27253 0.93706 0.37025 0.0
C277 C 0.25598 0.9389 0.39981 0.0
O278 O 0.19081 0.97774 0.55263 0.0
O279 O 0.21906 0.94739 0.55258 0.0
O280 O 0.14153 0.95984 0.63043 0.0
O281 O 0.16936 0.93886 0.60955 0.0
C282 C 0.15481 0.94 0.63857 0.0
O283 O 0.17423 0.94155 0.50859 0.0
O284 O 0.13989 0.94972 0.52297 0.0
O285 O 0.23125 0.9597 0.46667 0.0
O286 O 0.20511 0.94416 0.42672 0.0
H287 H 0.22545 0.98983 0.35967 0.0
H288 H 0.28356 0.9507 0.31126 0.0
H289 H 0.25685 0.9268 0.42753 0.0
O290 O 0.38913 0.2862 0.83527 0.0
Tb291 Tb 0.40493 0.32601 0.82876 0.0
Eu292 Eu 0.46023 0.3614 0.74685 0.0
C293 C 0.39782 0.26713 0.85862 0.0
O294 O 0.41748 0.27112 0.8739 0.0
C295 C 0.45627 0.32932 0.83378 0.0
O296 O 0.4696 0.40643 0.74273 0.0
C297 C 0.47563 0.32982 0.68876 0.0
C298 C 0.45661 0.42498 0.75927 0.0
O299 O 0.43882 0.4166 0.77815 0.0
C300 C 0.40567 0.3601 0.75407 0.0
C301 C 0.49275 0.32749 0.65649 0.0
C302 C 0.48907 0.31176 0.62072 0.0
C303 C 0.50627 0.30659 0.59269 0.0
C304 C 0.52724 0.31693 0.60198 0.0
C305 C 0.53139 0.33317 0.63717 0.0
C306 C 0.51354 0.33884 0.66341 0.0
O307 O 0.43951 0.31679 0.8161 0.0
O308 O 0.46893 0.34568 0.81136 0.0
O309 O 0.38769 0.33357 0.88643 0.0
O310 O 0.41201 0.36141 0.86774 0.0
C311 C 0.3974 0.35627 0.89573 0.0
O312 O 0.42549 0.35135 0.76212 0.0
O313 O 0.3907 0.34892 0.77751 0.0
O314 O 0.48262 0.32982 0.72708 0.0
O315 O 0.45923 0.3467 0.6828 0.0
H316 H 0.47299 0.30304 0.61533 0.0
H317 H 0.54019 0.31234 0.58075 0.0
H318 H 0.51541 0.35188 0.68995 0.0
O319 O 0.59032 0.75627 0.80632 0.0
Tb320 Tb 0.57632 0.71517 0.79811 0.0
Eu321 Eu 0.53013 0.67373 0.75962 0.0
C322 C 0.59075 0.76636 0.84425 0.0
O323 O 0.58279 0.75128 0.87397 0.0
C324 C 0.52873 0.71682 0.83433 0.0
O325 O 0.50698 0.63711 0.75802 0.0
C326 C 0.52557 0.70569 0.69588 0.0
C327 C 0.51374 0.61384 0.74176 0.0
O328 O 0.53304 0.61325 0.72399 0.0
C329 C 0.57995 0.66475 0.74315 0.0
C330 C 0.50712 0.71491 0.66996 0.0
C331 C 0.51051 0.7291 0.63274 0.0
C332 C 0.49252 0.73631 0.60731 0.0
C333 C 0.47133 0.72874 0.62019 0.0
C334 C 0.46788 0.71491 0.65726 0.0
C335 C 0.48581 0.70823 0.682 0.0
O336 O 0.5436 0.73065 0.81351 0.0
O337 O 0.52201 0.69268 0.82142 0.0
O338 O 0.60233 0.70475 0.84082 0.0
O339 O 0.57235 0.68279 0.84355 0.0
C340 C 0.59184 0.68538 0.85938 0.0
O341 O 0.56401 0.65716 0.76752 0.0
O342 O 0.58527 0.69091 0.74269 0.0
O343 O 0.52547 0.71432 0.73417 0.0
O344 O 0.53036 0.67973 0.6931 0.0
H345 H 0.52707 0.73433 0.62375 0.0
H346 H 0.4574 0.73223 0.60026 0.0
H347 H 0.48325 0.69718 0.71039 0.0
O348 O 0.83347 0.52293 0.10295 0.0
Tb349 Tb 0.82625 0.56525 0.08681 0.0
Eu350 Eu 0.77602 0.61162 1.00825 0.0
C351 C 0.84722 0.51861 0.13358 0.0
O352 O 0.85591 0.53975 0.15219 0.0
C353 C 0.77525 0.57863 0.08822 0.0
O354 O 0.76245 0.65417 0.99746 0.0
C355 C 0.77064 0.57869 0.94539 0.0
C356 C 0.76033 0.67211 0.02758 0.0
O357 O 0.76459 0.66449 0.06542 0.0
C358 C 0.82752 0.60351 1.0136 0.0
C359 C 0.75372 0.57426 0.91319 0.0
C360 C 0.75824 0.56054 0.87566 0.0
C361 C 0.74123 0.55543 0.84674 0.0
C362 C 0.71977 0.56348 0.85698 0.0
C363 C 0.71527 0.57719 0.89392 0.0
C364 C 0.7323 0.58279 0.92143 0.0
O365 O 0.79238 0.57001 0.06723 0.0
O366 O 0.76212 0.59526 0.06816 0.0
O367 O 0.85407 0.5867 0.11239 0.0
O368 O 0.8226 0.59307 0.13962 0.0
C369 C 0.84339 0.59936 0.14117 0.0
O370 O 0.81032 0.61179 0.03432 0.0
O371 O 0.83842 0.58262 0.02885 0.0
O372 O 0.76422 0.57333 0.98307 0.0
O373 O 0.78221 0.60122 0.94347 0.0
H374 H 0.77484 0.55409 0.86901 0.0
H375 H 0.70639 0.5593 0.83594 0.0
H376 H 0.72874 0.59337 0.95002 0.0
O377 O 0.15643 0.51857 0.06877 0.0
Tb378 Tb 0.16786 0.4761 0.06175 0.0
Eu379 Eu 0.21175 0.42915 0.02361 0.0
C380 C 0.15428 0.52798 0.10689 0.0
O381 O 0.15989 0.5119 0.13718 0.0
C382 C 0.21492 0.47086 0.10112 0.0
O383 O 0.23231 0.39003 0.02121 0.0
C384 C 0.21947 0.46098 0.96053 0.0
C385 C 0.2231 0.3662 1.01245 0.0
O386 O 0.20196 0.36558 1.00481 0.0
C387 C 0.16189 0.42794 1.00293 0.0
C388 C 0.23857 0.47008 0.936 0.0
C389 C 0.23601 0.48413 0.89834 0.0
C390 C 0.25453 0.491 0.87413 0.0
C391 C 0.27546 0.4839 0.8889 0.0
C392 C 0.27812 0.46982 0.9261 0.0
C393 C 0.25961 0.46323 0.9495 0.0
O394 O 0.20105 0.48681 0.08144 0.0
O395 O 0.22087 0.44682 0.08634 0.0
O396 O 0.13865 0.47045 0.09872 0.0
O397 O 0.16541 0.44322 0.10709 0.0
C398 C 0.14575 0.44973 0.11922 0.0
O399 O 0.17651 0.41615 0.02646 0.0
O400 O 0.16006 0.45478 1.00376 0.0
O401 O 0.21857 0.46955 0.99882 0.0
O402 O 0.21446 0.43512 0.95725 0.0
H403 H 0.2197 0.48898 0.88748 0.0
H404 H 0.28983 0.48879 0.8708 0.0
H405 H 0.26151 0.45223 0.97811 0.0
O406 O 0.41333 0.76647 0.30932 0.0
Tb407 Tb 0.42333 0.80904 0.30008 0.0
Eu408 Eu 0.46489 0.86226 0.26175 0.0
C409 C 0.41499 0.75689 0.34723 0.0
O410 O 0.4245 0.77233 0.37514 0.0
C411 C 0.47007 0.81897 0.33486 0.0
O412 O 0.47943 0.9053 0.2591 0.0
C413 C 0.47341 0.83149 0.19746 0.0
C414 C 0.46815 0.92477 0.27767 0.0
O415 O 0.45078 0.91742 0.29875 0.0
C416 C 0.41517 0.85704 0.24392 0.0
C417 C 0.49142 0.8261 0.16803 0.0
C418 C 0.48781 0.81181 0.13067 0.0
C419 C 0.50542 0.80641 0.10335 0.0
C420 C 0.52657 0.81493 0.11493 0.0
C421 C 0.53019 0.8293 0.1517 0.0
C422 C 0.51258 0.83496 0.17788 0.0
O423 O 0.45818 0.80256 0.3116 0.0
O424 O 0.47459 0.84414 0.32339 0.0
O425 O 0.39631 0.81237 0.34296 0.0
O426 O 0.42144 0.84218 0.34551 0.0
C427 C 0.40311 0.83403 0.3618 0.0
O428 O 0.42877 0.86767 0.27073 0.0
O429 O 0.41232 0.83037 0.24425 0.0
O430 O 0.47709 0.82429 0.23566 0.0
O431 O 0.46378 0.85527 0.19512 0.0
H432 H 0.47137 0.80527 0.12278 0.0
H433 H 0.54037 0.81076 0.09492 0.0
H434 H 0.51539 0.84619 0.20622 0.0
O435 O 0.58593 0.26742 0.29124 0.0
Tb436 Tb 0.57298 0.22605 0.28085 0.0
Eu437 Eu 0.53178 0.17847 0.24725 0.0
C438 C 0.58723 0.27608 0.32983 0.0
O439 O 0.58003 0.25998 0.35898 0.0
C440 C 0.52647 0.22258 0.31994 0.0
O441 O 0.51243 0.13862 0.25218 0.0
C442 C 0.52075 0.20778 0.18321 0.0
C443 C 0.52156 0.11483 0.24325 0.0
O444 O 0.54192 0.11452 0.23014 0.0
C445 C 0.58092 0.17895 0.22096 0.0
C446 C 0.50089 0.21887 0.1631 0.0
C447 C 0.50226 0.23374 0.12606 0.0
C448 C 0.48309 0.24104 0.10372 0.0
C449 C 0.46268 0.23286 0.12013 0.0
C450 C 0.46117 0.21886 0.1577 0.0
C451 C 0.48036 0.21236 0.17914 0.0
O452 O 0.53997 0.23823 0.29898 0.0
O453 O 0.52248 0.19716 0.30887 0.0
O454 O 0.60069 0.21602 0.31992 0.0
O455 O 0.57178 0.192 0.32402 0.0
C456 C 0.59155 0.19552 0.33813 0.0
O457 O 0.56707 0.16579 0.24444 0.0
O458 O 0.58138 0.2059 0.22213 0.0
O459 O 0.52632 0.21825 0.21895 0.0
O460 O 0.52253 0.18118 0.18267 0.0
H461 H 0.51836 0.23912 0.11483 0.0
H462 H 0.44779 0.23586 0.10275 0.0
H463 H 0.47943 0.20115 0.20774 0.0
H464 H 0.41515 0.91205 0.24953 0.0
H465 H 0.38638 0.8462 0.17853 0.0
H466 H 0.36687 0.88035 0.13545 0.0
H467 H 0.36914 0.95634 0.25118 0.0
H468 H 0.38611 0.98619 0.24773 0.0
H469 H 0.39671 0.95592 0.27131 0.0
H470 H 0.42958 0.95661 0.21947 0.0
H471 H 0.41847 0.98698 0.19693 0.0
H472 H 0.42396 0.95762 0.16515 0.0
H473 H 0.35084 0.9244 0.09924 0.0
H474 H 0.3392 0.97091 0.07841 0.0
H475 H 0.37918 1.00513 0.17594 0.0
C476 C 0.40483 0.90446 0.22495 0.0
C477 C 0.40246 0.87623 0.21747 0.0
C478 C 0.38852 0.86766 0.18498 0.0
C479 C 0.37743 0.88697 0.16031 0.0
C480 C 0.38043 0.91476 0.16858 0.0
C481 C 0.39381 0.92323 0.20045 0.0
C482 C 0.3947 0.95386 0.20398 0.0
C483 C 0.38616 0.96362 0.24606 0.0
C484 C 0.41805 0.9644 0.19589 0.0
C485 C 0.37932 0.96168 0.16966 0.0
C486 C 0.37135 0.93911 0.14893 0.0
C487 C 0.35703 0.94204 0.11554 0.0
C488 C 0.35058 0.96854 0.10371 0.0
C489 C 0.35821 0.99169 0.12559 0.0
C490 C 0.37288 0.98792 0.15869 0.0
H491 H 0.59952 0.13084 0.24101 0.0
H492 H 0.59471 0.18832 0.14099 0.0
H493 H 0.61363 0.1553 0.09483 0.0
H494 H 0.65385 0.10336 0.21347 0.0
H495 H 0.64633 0.06968 0.22987 0.0
H496 H 0.63421 0.09896 0.25433 0.0
H497 H 0.59558 0.07982 0.23732 0.0
H498 H 0.60764 0.05085 0.21206 0.0
H499 H 0.58859 0.07211 0.18465 0.0
H500 H 0.62987 0.11231 0.05789 0.0
H501 H 0.64507 0.06737 0.0371 0.0
H502 H 0.64008 0.04023 0.16339 0.0
C503 C 0.60286 0.13677 0.20959 0.0
C504 C 0.59574 0.16225 0.19464 0.0
C505 C 0.60031 0.16912 0.15328 0.0
C506 C 0.61089 0.15035 0.1268 0.0
C507 C 0.6171 0.12497 0.14236 0.0
C508 C 0.6136 0.11855 0.18319 0.0
C509 C 0.6213 0.09001 0.19279 0.0
C510 C 0.64004 0.09055 0.22448 0.0
C511 C 0.60214 0.07216 0.20756 0.0
C512 C 0.6294 0.08097 0.15089 0.0
C513 C 0.62679 0.10119 0.12192 0.0
C514 C 0.63223 0.09659 0.08063 0.0
C515 C 0.64076 0.07093 0.06898 0.0
C516 C 0.64397 0.05025 0.09855 0.0
C517 C 0.63813 0.05561 0.13995 0.0
H518 H 0.90286 0.24042 0.46814 0.0
H519 H 0.86743 0.24441 0.35272 0.0
H520 H 0.84638 0.20329 0.37242 0.0
H521 H 0.90843 0.16702 0.46739 0.0
H522 H 0.90632 0.16466 0.52257 0.0
H523 H 0.91753 0.19477 0.49946 0.0
H524 H 0.88882 0.22398 0.53845 0.0
H525 H 0.87731 0.19382 0.56105 0.0
H526 H 0.86006 0.21651 0.53215 0.0
H527 H 0.82856 0.16146 0.40687 0.0
H528 H 0.81859 0.12136 0.44875 0.0
H529 H 0.86826 0.14342 0.5381 0.0
C530 C 0.89099 0.23252 0.44653 0.0
C531 C 0.88707 0.24564 0.40858 0.0
C532 C 0.87088 0.23474 0.38186 0.0
C533 C 0.85879 0.2114 0.39288 0.0
C534 C 0.86328 0.1989 0.43048 0.0
C535 C 0.87928 0.20895 0.45654 0.0
C536 C 0.88184 0.19127 0.4943 0.0
C537 C 0.90489 0.17868 0.49601 0.0
C538 C 0.87669 0.20736 0.53382 0.0
C539 C 0.86461 0.16978 0.48584 0.0
C540 C 0.85385 0.1746 0.44915 0.0
C541 C 0.83703 0.15751 0.43548 0.0
C542 C 0.83135 0.13482 0.45957 0.0
C543 C 0.84261 0.12913 0.49662 0.0
C544 C 0.8594 0.14702 0.50976 0.0
H545 H 0.11199 0.91541 0.4843 0.0
H546 H 0.17998 0.90538 0.44915 0.0
H547 H 0.16962 0.86839 0.40162 0.0
H548 H 0.0988 0.84404 0.48346 0.0
H549 H 0.07154 0.84836 0.46318 0.0
H550 H 0.08394 0.87506 0.49334 0.0
H551 H 0.0778 0.90922 0.43441 0.0
H552 H 0.06512 0.88279 0.40403 0.0
H553 H 0.08808 0.90149 0.3837 0.0
H554 H 0.15175 0.83116 0.35808 0.0
H555 H 0.12807 0.7968 0.3241 0.0
H556 H 0.07157 0.83037 0.38739 0.0
C557 C 0.12467 0.90566 0.46624 0.0
C558 C 0.14691 0.91388 0.47018 0.0
C559 C 0.16291 0.90002 0.44645 0.0
C560 C 0.15713 0.87879 0.41931 0.0
C561 C 0.13515 0.87123 0.41607 0.0
C562 C 0.11915 0.88419 0.43903 0.0
C563 C 0.09679 0.87152 0.43062 0.0
C564 C 0.08721 0.85899 0.46999 0.0
C565 C 0.08102 0.89251 0.41208 0.0
C566 C 0.10272 0.84961 0.39928 0.0
C567 C 0.12494 0.84975 0.3913 0.0
C568 C 0.1343 0.83101 0.364 0.0
C569 C 0.12069 0.81154 0.34467 0.0
C570 C 0.09784 0.81084 0.35243 0.0
C571 C 0.08888 0.8304 0.38008 0.0
H572 H 0.33133 0.47948 0.66353 0.0
H573 H 0.38402 0.49973 0.57987 0.0
H574 H 0.40554 0.4606 0.60614 0.0
H575 H 0.36384 0.46076 0.74797 0.0
H576 H 0.34657 0.43301 0.76404 0.0
H577 H 0.3349 0.46125 0.73685 0.0
H578 H 0.31905 0.42897 0.68161 0.0
H579 H 0.33032 0.40032 0.70866 0.0
H580 H 0.33699 0.40555 0.65527 0.0
H581 H 0.42277 0.42154 0.64816 0.0
H582 H 0.4321 0.38393 0.69528 0.0
H583 H 0.36704 0.38808 0.74803 0.0
C584 C 0.34732 0.47555 0.65044 0.0
C585 C 0.35604 0.49274 0.61973 0.0
C586 C 0.37693 0.4867 0.6031 0.0
C587 C 0.38931 0.46462 0.61809 0.0
C588 C 0.38041 0.44848 0.64923 0.0
C589 C 0.35967 0.45345 0.66459 0.0
C590 C 0.35372 0.43332 0.69799 0.0
C591 C 0.34953 0.44797 0.73916 0.0
C592 C 0.33385 0.41601 0.68509 0.0
C593 C 0.37446 0.41642 0.69969 0.0
C594 C 0.38978 0.42553 0.67162 0.0
C595 C 0.41066 0.41396 0.66954 0.0
C596 C 0.41585 0.39249 0.69643 0.0
C597 C 0.40025 0.38249 0.72486 0.0
C598 C 0.37928 0.39477 0.7262 0.0
H599 H 0.61391 0.66644 0.68219 0.0
H600 H 0.57305 0.61094 0.75243 0.0
H601 H 0.58692 0.57273 0.71301 0.0
H602 H 0.6116 0.63063 0.58446 0.0
H603 H 0.64017 0.63473 0.57185 0.0
H604 H 0.62665 0.65949 0.60406 0.0
H605 H 0.65577 0.65234 0.66089 0.0
H606 H 0.66949 0.62777 0.62864 0.0
H607 H 0.66089 0.61851 0.67971 0.0
H608 H 0.60227 0.54002 0.66433 0.0
H609 H 0.62429 0.51275 0.61622 0.0
H610 H 0.66017 0.58521 0.5806 0.0
C611 C 0.60797 0.64626 0.68926 0.0
C612 C 0.59151 0.64236 0.71979 0.0
C613 C 0.58479 0.61526 0.7284 0.0
C614 C 0.59271 0.59302 0.7062 0.0
C615 C 0.60815 0.59749 0.67578 0.0
C616 C 0.61635 0.62316 0.66784 0.0
C617 C 0.63416 0.62111 0.63483 0.0
C618 C 0.62776 0.63747 0.59653 0.0
C619 C 0.6564 0.63049 0.65205 0.0
C620 C 0.63423 0.59052 0.62559 0.0
C621 C 0.61869 0.57762 0.64928 0.0
C622 C 0.61471 0.54979 0.64583 0.0
C623 C 0.62722 0.53444 0.61805 0.0
C624 C 0.64399 0.54664 0.59438 0.0
C625 C 0.64748 0.57521 0.59823 0.0
H626 H 0.8152 0.65565 0.99844 0.0
H627 H 0.86379 0.59557 0.96342 0.0
H628 H 0.88324 0.63065 0.92246 0.0
H629 H 0.81508 0.69618 0.9037 0.0
H630 H 0.81214 0.72729 0.93281 0.0
H631 H 0.80107 0.69596 0.95244 0.0
H632 H 0.8231 0.70363 1.01973 0.0
H633 H 0.83485 0.73428 0.99945 0.0
H634 H 0.85247 0.70734 1.01706 0.0
H635 H 0.89855 0.67467 0.88835 0.0
H636 H 0.90896 0.72199 0.86975 0.0
H637 H 0.85154 0.75212 0.93355 0.0
C638 C 0.82961 0.64948 0.98136 0.0
C639 C 0.83776 0.62261 0.98374 0.0
C640 C 0.85704 0.61588 0.96166 0.0
C641 C 0.86821 0.63574 0.93838 0.0
C642 C 0.86001 0.6623 0.93783 0.0
C643 C 0.84113 0.66905 0.95902 0.0
C644 C 0.83667 0.69927 0.95753 0.0
C645 C 0.81495 0.70503 0.93525 0.0
C646 C 0.8368 0.71185 1.00102 0.0
C647 C 0.85608 0.70877 0.93255 0.0
C648 C 0.86924 0.68724 0.92063 0.0
C649 C 0.88826 0.69155 0.8975 0.0
C650 C 0.89402 0.71844 0.88689 0.0
C651 C 0.88105 0.74066 0.90021 0.0
C652 C 0.8618 0.73554 0.92298 0.0
H653 H 0.10901 0.28522 0.94134 0.0
H654 H 0.08234 0.32165 0.83117 0.0
H655 H 0.09847 0.36621 0.85188 0.0
H656 H 0.10189 0.34052 1.01086 0.0
H657 H 0.12763 0.3341 0.03642 0.0
H658 H 0.11315 0.30665 1.01184 0.0
H659 H 0.14862 0.29632 0.96976 0.0
H660 H 0.16233 0.3246 0.99399 0.0
H661 H 0.16053 0.32276 0.93873 0.0
H662 H 0.11663 0.40811 0.88884 0.0
H663 H 0.13785 0.44037 0.93275 0.0
H664 H 0.15334 0.37434 1.01564 0.0
C665 C 0.10661 0.30256 0.92142 0.0
C666 C 0.0943 0.30005 0.88477 0.0
C667 C 0.09179 0.32311 0.85931 0.0
C668 C 0.1008 0.34851 0.87101 0.0
C669 C 0.11262 0.35035 0.90785 0.0
C670 C 0.11586 0.32769 0.93212 0.0
C671 C 0.12982 0.33429 0.96934 0.0
C672 C 0.11734 0.32858 1.00947 0.0
C673 C 0.15161 0.31857 0.96784 0.0
C674 C 0.13346 0.36445 0.96322 0.0
C675 C 0.12346 0.37357 0.92772 0.0
C676 C 0.12461 0.401 0.9165 0.0
C677 C 0.13657 0.41927 0.94173 0.0
C678 C 0.1474 0.40999 0.97757 0.0
C679 C 0.14548 0.38222 0.98831 0.0
H680 H 0.83035 0.97187 0.6808 0.0
H681 H 0.8863 0.99984 0.61028 0.0
H682 H 0.90845 0.96202 0.63804 0.0
H683 H 0.86023 0.95309 0.77037 0.0
H684 H 0.84353 0.92374 0.78127 0.0
H685 H 0.83194 0.95222 0.75436 0.0
H686 H 0.82033 0.92029 0.69456 0.0
H687 H 0.83193 0.8917 0.72128 0.0
H688 H 0.84066 0.89935 0.66965 0.0
H689 H 0.92516 0.92221 0.6769 0.0
H690 H 0.93453 0.88361 0.7218 0.0
H691 H 0.86758 0.88095 0.76589 0.0
C692 C 0.84719 0.96992 0.67071 0.0
C693 C 0.85649 0.98889 0.64301 0.0
C694 C 0.87869 0.98559 0.63115 0.0
C695 C 0.89143 0.96414 0.64686 0.0
C696 C 0.8818 0.94601 0.67439 0.0
C697 C 0.86013 0.94863 0.68606 0.0
C698 C 0.85381 0.92687 0.71688 0.0
C699 C 0.84698 0.93975 0.75816 0.0
C700 C 0.8356 0.90846 0.69954 0.0
C701 C 0.8753 0.91156 0.72082 0.0
C702 C 0.89127 0.92296 0.69615 0.0
C703 C 0.91266 0.91295 0.69585 0.0
C704 C 0.91786 0.89086 0.72141 0.0
C705 C 0.90182 0.87883 0.74701 0.0
C706 C 0.8802 0.88933 0.74626 0.0
H707 H 0.0924 0.03712 0.64707 0.0
H708 H 0.15599 0.06652 0.60758 0.0
H709 H 0.14867 0.11065 0.64237 0.0
H710 H 0.06256 0.10012 0.63695 0.0
H711 H 0.04632 0.09413 0.68233 0.0
H712 H 0.05643 0.06583 0.6526 0.0
H713 H 0.07495 0.04628 0.71776 0.0
H714 H 0.06493 0.07456 0.74757 0.0
H715 H 0.09385 0.06716 0.74663 0.0
H716 H 0.1335 0.15253 0.68391 0.0
H717 H 0.11343 0.18495 0.72938 0.0
H718 H 0.06078 0.1263 0.7408 0.0
C719 C 0.10477 0.05286 0.64519 0.0
C720 C 0.12471 0.04829 0.62401 0.0
C721 C 0.14049 0.0695 0.62315 0.0
C722 C 0.13645 0.09468 0.64292 0.0
C723 C 0.11657 0.09842 0.66362 0.0
C724 C 0.10107 0.07789 0.66487 0.0
C725 C 0.08138 0.08616 0.69034 0.0
C726 C 0.06044 0.08659 0.66396 0.0
C727 C 0.07863 0.06743 0.72779 0.0
C728 C 0.08809 0.11458 0.70334 0.0
C729 C 0.10833 0.1216 0.68763 0.0
C730 C 0.11764 0.14708 0.69626 0.0
C731 C 0.1061 0.16548 0.72197 0.0
C732 C 0.08558 0.1582 0.73909 0.0
C733 C 0.07654 0.1325 0.72887 0.0
H734 H 0.41101 0.22498 0.90826 0.0
H735 H 0.35512 0.2544 0.83894 0.0
H736 H 0.33293 0.21596 0.86465 0.0
H737 H 0.40055 0.15263 0.89327 0.0
H738 H 0.40929 0.14386 0.94448 0.0
H739 H 0.42095 0.17299 0.9192 0.0
H740 H 0.40948 0.20362 0.98056 0.0
H741 H 0.39781 0.1746 1.00603 0.0
H742 H 0.38121 0.2042 0.99659 0.0
H743 H 0.31608 0.17567 0.90192 0.0
H744 H 0.30655 0.13632 0.94518 0.0
H745 H 0.37361 0.13222 0.98858 0.0
C746 C 0.39418 0.22322 0.898 0.0
C747 C 0.38488 0.24279 0.87129 0.0
C748 C 0.36271 0.23969 0.85909 0.0
C749 C 0.34994 0.2179 0.87364 0.0
C750 C 0.35955 0.1992 0.90028 0.0
C751 C 0.38123 0.20156 0.91213 0.0
C752 C 0.38751 0.17914 0.94184 0.0
C753 C 0.40565 0.16108 0.9236 0.0
C754 C 0.39441 0.19111 0.98373 0.0
C755 C 0.36597 0.16378 0.945 0.0
C756 C 0.35003 0.17575 0.92091 0.0
C757 C 0.32857 0.16593 0.92032 0.0
C758 C 0.32328 0.14341 0.94492 0.0
C759 C 0.33932 0.1307 0.96973 0.0
C760 C 0.361 0.14106 0.96939 0.0
H761 H 0.60535 0.78301 0.91946 0.0
H762 H 0.59755 0.81148 0.7944 0.0
H763 H 0.61134 0.85705 0.81601 0.0
H764 H 0.58929 0.84369 0.97177 0.0
H765 H 0.60948 0.84048 1.01197 0.0
H766 H 0.59885 0.81053 0.98689 0.0
H767 H 0.63788 0.79508 0.96698 0.0
H768 H 0.64891 0.82442 0.99304 0.0
H769 H 0.65566 0.81815 0.93987 0.0
H770 H 0.62612 0.90088 0.85423 0.0
H771 H 0.64368 0.9346 0.90133 0.0
H772 H 0.64219 0.87529 0.99925 0.0
C773 C 0.60644 0.79878 0.89642 0.0
C774 C 0.60017 0.7936 0.85515 0.0
C775 C 0.60225 0.81485 0.82614 0.0
C776 C 0.60994 0.84088 0.83829 0.0
C777 C 0.61571 0.84532 0.87953 0.0
C778 C 0.61427 0.82454 0.90789 0.0
C779 C 0.62233 0.83359 0.94988 0.0
C780 C 0.60388 0.83198 0.982 0.0
C781 C 0.64238 0.81682 0.9632 0.0
C782 C 0.62856 0.8628 0.94111 0.0
C783 C 0.62447 0.86953 0.90059 0.0
C784 C 0.62932 0.89563 0.88595 0.0
C785 C 0.6391 0.91481 0.91299 0.0
C786 C 0.64421 0.90771 0.95407 0.0
C787 C 0.63843 0.88146 0.96809 0.0
H788 H 0.88067 0.50581 0.18459 0.0
H789 H 0.82687 0.46907 0.11706 0.0
H790 H 0.83642 0.42411 0.14698 0.0
H791 H 0.91875 0.45072 0.17361 0.0
H792 H 0.92999 0.45583 0.22435 0.0
H793 H 0.91878 0.48416 0.19658 0.0
H794 H 0.89256 0.49449 0.25756 0.0
H795 H 0.9038 0.46619 0.28526 0.0
H796 H 0.87468 0.46808 0.27612 0.0
H797 H 0.85237 0.38265 0.18843 0.0
H798 H 0.873 0.35079 0.23348 0.0
H799 H 0.91571 0.4172 0.2703 0.0
C800 C 0.87085 0.48838 0.17576 0.0
C801 C 0.85298 0.49101 0.14848 0.0
C802 C 0.84071 0.46753 0.13777 0.0
C803 C 0.84599 0.44195 0.15475 0.0
C804 C 0.8637 0.44025 0.18204 0.0
C805 C 0.87595 0.46301 0.19203 0.0
C806 C 0.89408 0.45653 0.22198 0.0
C807 C 0.91673 0.46213 0.20297 0.0
C808 C 0.89107 0.47225 0.26264 0.0
C809 C 0.89024 0.42649 0.22765 0.0
C810 C 0.87268 0.41717 0.20469 0.0
C811 C 0.86619 0.38987 0.20629 0.0
C812 C 0.87798 0.37189 0.23193 0.0
C813 C 0.89603 0.38135 0.25547 0.0
C814 C 0.90207 0.40903 0.25282 0.0
H815 H 0.0905 0.62763 0.25826 0.0
H816 H 0.10456 0.69533 0.17766 0.0
H817 H 0.12437 0.66383 0.1303 0.0
H818 H 0.14149 0.59295 0.24649 0.0
H819 H 0.12965 0.55936 0.24701 0.0
H820 H 0.11648 0.58656 0.27451 0.0
H821 H 0.08034 0.57921 0.23576 0.0
H822 H 0.09249 0.55103 0.20861 0.0
H823 H 0.08025 0.57854 0.18032 0.0
H824 H 0.14099 0.62191 0.08902 0.0
H825 H 0.15534 0.57721 0.06443 0.0
H826 H 0.13038 0.53933 0.17489 0.0
C827 C 0.09785 0.63606 0.23082 0.0
C828 C 0.09586 0.6641 0.22174 0.0
C829 C 0.10595 0.67405 0.18554 0.0
C830 C 0.1171 0.65619 0.15831 0.0
C831 C 0.11822 0.62845 0.16786 0.0
C832 C 0.10904 0.6187 0.20377 0.0
C833 C 0.11221 0.5883 0.20776 0.0
C834 C 0.1258 0.58143 0.2462 0.0
C835 C 0.09001 0.5734 0.20812 0.0
C836 C 0.12478 0.5822 0.16872 0.0
C837 C 0.12794 0.60534 0.14549 0.0
C838 C 0.13867 0.60385 0.10739 0.0
C839 C 0.14666 0.57835 0.09342 0.0
C840 C 0.14414 0.55473 0.11776 0.0
C841 C 0.13283 0.55697 0.15561 0.0
H842 H 0.35096 0.66568 0.51014 0.0
H843 H 0.35297 0.59817 0.4241 0.0
H844 H 0.37296 0.6272 0.37412 0.0
H845 H 0.34272 0.71852 0.43819 0.0
H846 H 0.36009 0.74257 0.46464 0.0
H847 H 0.34633 0.7163 0.4931 0.0
H848 H 0.38356 0.69997 0.52242 0.0
H849 H 0.39743 0.72634 0.49431 0.0
H850 H 0.40548 0.69136 0.48757 0.0
H851 H 0.39063 0.66639 0.33113 0.0
H852 H 0.40795 0.70864 0.30441 0.0
H853 H 0.39627 0.74815 0.42178 0.0
C854 C 0.35575 0.65687 0.48089 0.0
C855 C 0.35033 0.62962 0.47099 0.0
C856 C 0.35706 0.6189 0.43249 0.0
C857 C 0.36829 0.63535 0.40382 0.0
C858 C 0.37303 0.66236 0.41437 0.0
C859 C 0.36728 0.67276 0.45247 0.0
C860 C 0.37457 0.70208 0.45721 0.0
C861 C 0.35475 0.72097 0.46366 0.0
C862 C 0.39125 0.7051 0.49246 0.0
C863 C 0.38521 0.70679 0.41575 0.0
C864 C 0.38396 0.68389 0.39102 0.0
C865 C 0.39192 0.68423 0.3506 0.0
C866 C 0.40164 0.70833 0.33553 0.0
C867 C 0.40373 0.7316 0.36107 0.0
C868 C 0.39527 0.7306 0.40159 0.0
H869 H 0.65431 0.36988 0.48513 0.0
H870 H 0.63804 0.44053 0.41216 0.0
H871 H 0.61751 0.41067 0.36337 0.0
H872 H 0.66349 0.3243 0.40249 0.0
H873 H 0.65195 0.29537 0.42852 0.0
H874 H 0.66428 0.32251 0.45784 0.0
H875 H 0.62848 0.32861 0.49899 0.0
H876 H 0.61606 0.30126 0.4705 0.0
H877 H 0.60294 0.33405 0.47227 0.0
H878 H 0.60038 0.37037 0.31953 0.0
H879 H 0.58552 0.32665 0.29205 0.0
H880 H 0.61292 0.28443 0.39662 0.0
C881 C 0.64631 0.37929 0.4591 0.0
C882 C 0.64789 0.4077 0.45255 0.0
C883 C 0.63695 0.41894 0.41814 0.0
C884 C 0.62541 0.40202 0.39007 0.0
C885 C 0.62477 0.37391 0.397 0.0
C886 C 0.63472 0.36285 0.43126 0.0
C887 C 0.6319 0.33226 0.43249 0.0
C888 C 0.65423 0.31777 0.43019 0.0
C889 C 0.61905 0.32355 0.47085 0.0
C890 C 0.61866 0.32755 0.39379 0.0
C891 C 0.61484 0.35159 0.37311 0.0
C892 C 0.60321 0.3516 0.3359 0.0
C893 C 0.59494 0.32666 0.32029 0.0
C894 C 0.59798 0.30214 0.34223 0.0
C895 C 0.61019 0.30283 0.37919 0.0
H896 H 0.20776 0.3139 0.99851 0.0
H897 H 0.26751 0.35891 0.0241 0.0
H898 H 0.28838 0.31579 0.02338 0.0
H899 H 0.22002 0.25595 0.06132 0.0
H900 H 0.20807 0.23154 0.02632 0.0
H901 H 0.19791 0.26589 0.02781 0.0
H902 H 0.20504 0.2705 0.94978 0.0
H903 H 0.21523 0.23615 0.94804 0.0
H904 H 0.23203 0.26371 0.92971 0.0
H905 H 0.30268 0.2675 0.02184 0.0
H906 H 0.30969 0.21832 1.01924 0.0
H907 H 0.24085 0.20336 0.99377 0.0
C908 C 0.22526 0.31479 1.00387 0.0
C909 C 0.23593 0.3401 1.01147 0.0
C910 C 0.25887 0.34003 1.01832 0.0
C911 C 0.27088 0.31553 1.01792 0.0
C912 C 0.25983 0.29104 1.01058 0.0
C913 C 0.23752 0.29046 1.00358 0.0
C914 C 0.2296 0.2613 0.99687 0.0
C915 C 0.21291 0.2532 0.03006 0.0
C916 C 0.2199 0.25771 0.95352 0.0
C917 C 0.25092 0.24547 1.00147 0.0
C918 C 0.26811 0.26314 1.00935 0.0
C919 C 0.28932 0.25357 1.0156 0.0
C920 C 0.29311 0.2254 1.01413 0.0
C921 C 0.27589 0.20659 1.00632 0.0
C922 C 0.25446 0.21699 0.99954 0.0
H923 H 0.74712 0.71173 0.08249 0.0
H924 H 0.76095 0.69843 0.95311 0.0
H925 H 0.75496 0.74735 0.93985 0.0
H926 H 0.70302 0.75982 0.06552 0.0
H927 H 0.70969 0.77997 0.11028 0.0
H928 H 0.71583 0.74417 0.10942 0.0
H929 H 0.75648 0.75494 0.12594 0.0
H930 H 0.75051 0.79079 0.12642 0.0
H931 H 0.77157 0.77761 0.09299 0.0
H932 H 0.74898 0.79893 0.94165 0.0
H933 H 0.73869 0.84668 0.95636 0.0
H934 H 0.7259 0.82548 0.08344 0.0
C935 C 0.74885 0.71905 0.05131 0.0
C936 C 0.75487 0.70115 1.01893 0.0
C937 C 0.7566 0.71165 0.97853 0.0
C938 C 0.75327 0.73949 0.97072 0.0
C939 C 0.74772 0.75664 1.00346 0.0
C940 C 0.7451 0.74667 0.04283 0.0
C941 C 0.73802 0.76906 0.0723 0.0
C942 C 0.71529 0.76288 0.09044 0.0
C943 C 0.75517 0.77335 0.10642 0.0
C944 C 0.73722 0.79325 0.04352 0.0
C945 C 0.74318 0.78579 1.00404 0.0
C946 C 0.74412 0.80487 0.97241 0.0
C947 C 0.73836 0.83204 0.98112 0.0
C948 C 0.73139 0.83994 0.02101 0.0
C949 C 0.73106 0.82017 0.05257 0.0
H950 H 0.98042 0.47009 0.36389 0.0
H951 H 0.98223 0.44701 0.23505 0.0
H952 H 0.9911 0.4946 0.21658 0.0
H953 H 0.95657 0.53608 0.35153 0.0
H954 H 0.97296 0.55191 0.39114 0.0
H955 H 0.96655 0.51621 0.39405 0.0
H956 H 0.0079 0.5047 0.39851 0.0
H957 H 0.01442 0.54037 0.39604 0.0
H958 H 0.02625 0.51704 0.35936 0.0
H959 H -0.00183 0.54622 0.21233 0.0
H960 H 0.0071 0.59489 0.22317 0.0
H961 H 0.00298 0.58341 0.35509 0.0
C962 C 0.9828 0.47498 0.33176 0.0
C963 C 0.98059 0.45465 0.30092 0.0
C964 C 0.98396 0.46204 0.2593 0.0
C965 C 0.98886 0.48913 0.2485 0.0
C966 C 0.99068 0.50871 0.27966 0.0
C967 C 0.98809 0.5018 0.32053 0.0
C968 C 0.99161 0.52637 0.34834 0.0
C969 C 0.97067 0.53303 0.3727 0.0
C970 C 0.01121 0.52184 0.37726 0.0
C971 C -0.00346 0.54827 0.31687 0.0
C972 C 0.99561 0.53782 0.27734 0.0
C973 C -0.00092 0.55445 0.24322 0.0
C974 C 0.00402 0.58219 0.24966 0.0
C975 C 0.00583 0.59314 0.28996 0.0
C976 C 0.00184 0.57578 0.32386 0.0
H977 H 0.29661 0.72938 0.51769 0.0
H978 H 0.23405 0.6884 0.50336 0.0
H979 H 0.21592 0.73312 0.49436 0.0
H980 H 0.27672 0.78646 0.57566 0.0
H981 H 0.29506 0.81041 0.55182 0.0
H982 H 0.30289 0.77526 0.55622 0.0
H983 H 0.30922 0.77278 0.47756 0.0
H984 H 0.30138 0.80793 0.47289 0.0
H985 H 0.28738 0.78223 0.44312 0.0
H986 H 0.20467 0.78359 0.48708 0.0
H987 H 0.20134 0.83369 0.48404 0.0
H988 H 0.27142 0.84127 0.50387 0.0
C989 C 0.27907 0.72966 0.51264 0.0
C990 C 0.2668 0.70509 0.51132 0.0
C991 C 0.24387 0.70673 0.50464 0.0
C992 C 0.23343 0.73213 0.49941 0.0
C993 C 0.24607 0.7559 0.50094 0.0
C994 C 0.26843 0.75478 0.50748 0.0
C995 C 0.27838 0.78315 0.50843 0.0
C996 C 0.28888 0.78917 0.55054 0.0
C997 C 0.29508 0.78672 0.47342 0.0
C998 C 0.25817 0.80057 0.50154 0.0
C999 C 0.23968 0.78453 0.49711 0.0
C1000 C 0.2191 0.7962 0.49056 0.0
C1001 C 0.21737 0.8248 0.48882 0.0
C1002 C 0.23606 0.84172 0.49377 0.0
C1003 C 0.25673 0.82915 0.5 0.0
H1004 H 0.72411 0.19786 0.51263 0.0
H1005 H 0.79452 0.20223 0.49498 0.0
H1006 H 0.79228 0.25246 0.49366 0.0
H1007 H 0.71006 0.25414 0.44644 0.0
H1008 H 0.68809 0.26592 0.479 0.0
H1009 H 0.69527 0.23042 0.47815 0.0
H1010 H 0.70085 0.23134 0.55701 0.0
H1011 H 0.69368 0.26684 0.55825 0.0
H1012 H 0.71945 0.25577 0.57948 0.0
H1013 H 0.78204 0.30342 0.49544 0.0
H1014 H 0.76476 0.34902 0.49899 0.0
H1015 H 0.70125 0.31081 0.51533 0.0
C1016 C 0.73911 0.2093 0.50838 0.0
C1017 C 0.75954 0.19583 0.50397 0.0
C1018 C 0.77866 0.21185 0.49843 0.0
C1019 C 0.77755 0.2405 0.49767 0.0
C1020 C 0.75717 0.2531 0.50237 0.0
C1021 C 0.73828 0.23791 0.50747 0.0
C1022 C 0.7184 0.25626 0.51204 0.0
C1023 C 0.70199 0.2514 0.4768 0.0
C1024 C 0.70746 0.25231 0.5542 0.0
C1025 C 0.72899 0.28414 0.50891 0.0
C1026 C 0.75137 0.282 0.50332 0.0
C1027 C 0.76452 0.30521 0.49978 0.0
C1028 C 0.75456 0.33111 0.50189 0.0
C1029 C 0.73162 0.33377 0.50754 0.0
C1030 C 0.71883 0.30975 0.51108 0.0
H1031 H -0.00252 0.95345 0.77989 0.0
H1032 H 0.92728 0.96727 0.77867 0.0
H1033 H 0.93357 1.01681 0.77863 0.0
H1034 H 0.01021 1.0076 0.84913 0.0
H1035 H 0.03553 1.01694 0.82438 0.0
H1036 H 0.02568 0.98248 0.82093 0.0
H1037 H 0.02714 0.98491 0.7414 0.0
H1038 H 0.03702 1.0194 0.74469 0.0
H1039 H 0.01274 1.01174 0.71523 0.0
H1040 H 0.94747 0.06563 0.78073 0.0
H1041 H 0.96802 0.10894 0.78713 0.0
H1042 H 0.02903 0.06371 0.78964 0.0
C1043 C 0.98347 0.96692 0.77899 0.0
C1044 C 0.96186 0.95631 0.77914 0.0
C1045 C 0.94399 0.97475 0.77869 0.0
C1046 C 0.94739 1.00303 0.77853 0.0
C1047 C 0.96881 1.01287 0.77909 0.0
C1048 C 0.98658 0.99538 0.77936 0.0
C1049 C 0.00791 1.01132 0.78207 0.0
C1050 C 0.02057 1.00415 0.82147 0.0
C1051 C 0.02203 1.00655 0.74355 0.0
C1052 C -0.00066 0.04034 0.7837 0.0
C1053 C 0.97675 0.04085 0.78149 0.0
C1054 C 0.96518 0.06539 0.78253 0.0
C1055 C 0.97699 0.08996 0.7862 0.0
C1056 C 0.00015 0.08992 0.78919 0.0
C1057 C 0.01133 0.06462 0.78766 0.0
H1058 H 0.52692 0.56176 0.72221 0.0
H1059 H 0.47139 0.60713 0.76965 0.0
H1060 H 0.45062 0.56412 0.77687 0.0
H1061 H 0.496 0.51101 0.66481 0.0
H1062 H 0.51446 0.4837 0.67739 0.0
H1063 H 0.52456 0.51807 0.67441 0.0
H1064 H 0.53973 0.51443 0.74853 0.0
H1065 H 0.52968 0.48007 0.75179 0.0
H1066 H 0.52156 0.50492 0.78973 0.0
H1067 H 0.43629 0.51573 0.78076 0.0
H1068 H 0.42934 0.46644 0.78157 0.0
H1069 H 0.49438 0.45172 0.73224 0.0
C1070 C 0.51031 0.56276 0.73382 0.0
C1071 C 0.50075 0.58807 0.74513 0.0
C1072 C 0.47907 0.58819 0.76062 0.0
C1073 C 0.46715 0.56378 0.76484 0.0
C1074 C 0.47713 0.53924 0.75369 0.0
C1075 C 0.49825 0.53856 0.73851 0.0
C1076 C 0.50543 0.50943 0.72984 0.0
C1077 C 0.5104 0.50532 0.68388 0.0
C1078 C 0.52527 0.50177 0.75657 0.0
C1079 C 0.48508 0.49372 0.74259 0.0
C1080 C 0.46896 0.51138 0.75617 0.0
C1081 C 0.44881 0.50181 0.77014 0.0
C1082 C 0.44505 0.47361 0.77053 0.0
C1083 C 0.46129 0.4549 0.75706 0.0
C1084 C 0.48156 0.4653 0.74263 0.0
H1085 H 0.50568 0.95117 0.24648 0.0
H1086 H 0.4416 0.96657 0.29987 0.0
H1087 H 0.44781 1.01565 0.29472 0.0
H1088 H 0.53315 1.00684 0.29872 0.0
H1089 H 0.55046 1.01556 0.25584 0.0
H1090 H 0.54098 0.98111 0.26187 0.0
H1091 H 0.5245 0.98206 0.18868 0.0
H1092 H 0.53387 1.01654 0.18235 0.0
H1093 H 0.5053 1.00841 0.17522 0.0
H1094 H 0.46045 0.06365 0.2846 0.0
H1095 H 0.47972 0.10708 0.27248 0.0
H1096 H 0.53625 0.06243 0.2274 0.0
C1097 C 0.49296 0.96488 0.25697 0.0
C1098 C 0.4731 0.95461 0.27364 0.0
C1099 C 0.45702 0.97352 0.28719 0.0
C1100 C 0.46032 1.00166 0.28426 0.0
C1101 C 0.47996 1.01113 0.268 0.0
C1102 C 0.49612 0.99342 0.25473 0.0
C1103 C 0.51596 1.00938 0.23962 0.0
C1104 C 0.53634 1.00283 0.26557 0.0
C1105 C 0.52015 1.00376 0.19374 0.0
C1106 C 0.50837 0.03861 0.24672 0.0
C1107 C 0.48746 0.03907 0.26283 0.0
C1108 C 0.47688 0.06354 0.27206 0.0
C1109 C 0.48797 0.08821 0.26505 0.0
C1110 C 0.50957 0.08846 0.24909 0.0
C1111 C 0.51976 0.06314 0.23966 0.0
H1112 H 0.29002 0.98993 0.2818 0.0
H1113 H 0.21934 0.99932 0.29317 0.0
H1114 H 0.21962 0.02984 0.23355 0.0
H1115 H 0.3032 0.05625 0.24607 0.0
H1116 H 0.32319 0.04498 0.20911 0.0
H1117 H 0.31834 0.02536 0.25484 0.0
H1118 H 0.30995 0.98273 0.21155 0.0
H1119 H 0.31462 1.00125 0.16482 0.0
H1120 H 0.28899 0.98395 0.17246 0.0
H1121 H 0.22764 0.05993 0.17196 0.0
H1122 H 0.24172 0.08231 0.10963 0.0
H1123 H 0.30611 0.04824 0.13249 0.0
C1124 C 0.27438 0.99784 0.27189 0.0
C1125 C 0.25463 0.99185 0.29338 0.0
C1126 C 0.23489 1.00375 0.27875 0.0
C1127 C 0.23482 0.02109 0.2444 0.0
C1128 C 0.25453 0.02619 0.2241 0.0
C1129 C 0.27387 1.01453 0.23696 0.0
C1130 C 0.29259 0.02168 0.2081 0.0
C1131 C 0.31038 0.03802 0.23089 0.0
C1132 C 0.30209 0.99587 0.18807 0.0
C1133 C 0.28075 0.03918 0.17678 0.0
C1134 C 0.25888 0.04197 0.18712 0.0
C1135 C 0.24471 0.0577 0.16351 0.0
C1136 C 0.25293 0.07048 0.12813 0.0
C1137 C 0.27509 0.06713 0.11586 0.0
C1138 C 0.28914 0.05129 0.14087 0.0
H1139 H 0.70702 1.01994 0.1164 0.0
H1140 H 0.74201 0.94401 0.1329 0.0
H1141 H 0.75491 0.96001 0.20097 0.0
H1142 H 0.74697 0.06414 0.16923 0.0
H1143 H 0.72585 0.08505 0.19172 0.0
H1144 H 0.72125 0.06861 0.14279 0.0
H1145 H 0.68619 0.0462 0.17157 0.0
H1146 H 0.69069 0.06218 0.22072 0.0
H1147 H 0.68785 0.02577 0.21733 0.0
H1148 H 0.76153 0.98326 0.27068 0.0
H1149 H 0.76066 1.01101 0.33445 0.0
H1150 H 0.72194 0.07183 0.27123 0.0
C1151 C 0.71771 1.00678 0.13389 0.0
C1152 C 0.72354 0.98067 0.1189 0.0
C1153 C 0.73738 0.96414 0.14333 0.0
C1154 C 0.7448 0.97307 0.18217 0.0
C1155 C 0.73835 0.99868 0.19634 0.0
C1156 C 0.72518 1.01534 0.17274 0.0
C1157 C 0.71954 0.04132 0.19572 0.0
C1158 C 0.72898 0.06625 0.17354 0.0
C1159 C 0.69459 0.044 0.20169 0.0
C1160 C 0.73118 0.03647 0.23628 0.0
C1161 C 0.74211 1.0119 0.23606 0.0
C1162 C 0.75322 1.00268 0.27092 0.0
C1163 C 0.75278 1.0187 0.30704 0.0
C1164 C 0.74121 0.04367 0.30825 0.0
C1165 C 0.73077 0.05276 0.27179 0.0
H1166 H 0.95923 0.27384 0.41149 0.0
H1167 H 0.98788 0.35366 0.43096 0.0
H1168 H 0.00012 0.33964 0.50017 0.0
H1169 H 0.93763 0.26561 0.5065 0.0
H1170 H 0.94382 0.23013 0.51363 0.0
H1171 H 0.9406 0.24332 0.4625 0.0
H1172 H 0.97832 0.22709 0.43984 0.0
H1173 H 0.98201 0.21183 0.48966 0.0
H1174 H 0.00206 0.2355 0.47041 0.0
H1175 H 0.00653 0.31776 0.5704 0.0
H1176 H 0.00527 0.29069 0.63459 0.0
H1177 H 0.97175 0.22593 0.56921 0.0
C1178 C 0.96844 0.28826 0.42991 0.0
C1179 C 0.97258 0.3149 0.41551 0.0
C1180 C 0.98458 0.3331 0.44098 0.0
C1181 C 0.99164 0.32529 0.48043 0.0
C1182 C 0.98688 0.29907 0.49398 0.0
C1183 C 0.97574 0.28075 0.46921 0.0
C1184 C 0.97151 0.25436 0.49177 0.0
C1185 C 0.9469 0.24803 0.49378 0.0
C1186 C 0.98424 0.2308 0.47173 0.0
C1187 C 0.98075 0.2612 0.53382 0.0
C1188 C 0.99013 0.28679 0.53429 0.0
C1189 C -0.00063 0.29762 0.57016 0.0
C1190 C -0.00135 0.28211 0.60646 0.0
C1191 C 0.98839 0.25628 0.60685 0.0
C1192 C 0.97965 0.24566 0.56981 0.0
H1193 H 0.02902 0.81387 0.55063 0.0
H1194 H 0.98135 0.7598 0.60593 0.0
H1195 H 0.97902 0.7339 0.54025 0.0
H1196 H 0.00609 0.81427 0.44695 0.0
H1197 H 0.03277 0.81481 0.42315 0.0
H1198 H 0.02889 0.83009 0.47308 0.0
H1199 H 0.05995 0.80003 0.50258 0.0
H1200 H 0.06385 0.78485 0.45268 0.0
H1201 H 0.05839 0.76362 0.49655 0.0
H1202 H 0.98469 0.71158 0.46842 0.0
H1203 H -0.00334 0.69667 0.39896 0.0
H1204 H 0.04104 0.7653 0.39381 0.0
C1205 C 0.01794 0.79667 0.549 0.0
C1206 C 0.00543 0.78882 0.58369 0.0
C1207 C 0.99096 0.76638 0.57982 0.0
C1208 C 0.98964 0.75146 0.54264 0.0
C1209 C 0.00276 0.75935 0.50948 0.0
C1210 C 0.01651 0.78164 0.51243 0.0
C1211 C 0.02964 0.78555 0.47337 0.0
C1212 C 0.024 0.81279 0.45293 0.0
C1213 C 0.05442 0.78336 0.48182 0.0
C1214 C 0.02144 0.76175 0.44796 0.0
C1215 C 0.00587 0.74685 0.46898 0.0
C1216 C -0.00331 0.72337 0.45169 0.0
C1217 C 0.00362 0.71501 0.41215 0.0
C1218 C 0.0196 0.73007 0.39018 0.0
C1219 C 0.02844 0.7537 0.40877 0.0
H1220 H 0.29305 0.52649 0.64504 0.0
H1221 H 0.25069 0.59712 0.64863 0.0
H1222 H 0.23639 0.58229 0.71628 0.0
H1223 H 0.25973 0.47791 0.69682 0.0
H1224 H 0.28209 0.46397 0.72622 0.0
H1225 H 0.28727 0.47894 0.67676 0.0
H1226 H 0.31575 0.51145 0.71026 0.0
H1227 H 0.31044 0.49685 0.75996 0.0
H1228 H 0.30757 0.53289 0.75248 0.0
H1229 H 0.22775 0.55966 0.78667 0.0
H1230 H 0.22768 0.53396 0.85218 0.0
H1231 H 0.27751 0.48014 0.80287 0.0
C1232 C 0.28083 0.539 0.65988 0.0
C1233 C 0.27315 0.56314 0.6411 0.0
C1234 C 0.25689 0.57853 0.66197 0.0
C1235 C 0.24866 0.57024 0.70057 0.0
C1236 C 0.25704 0.54666 0.71854 0.0
C1237 C 0.27301 0.53149 0.69889 0.0
C1238 C 0.2809 0.50846 0.72601 0.0
C1239 C 0.27726 0.48067 0.7052 0.0
C1240 C 0.3051 0.51264 0.73782 0.0
C1241 C 0.26626 0.51215 0.76329 0.0
C1242 C 0.25265 0.53436 0.75874 0.0
C1243 C 0.23834 0.54221 0.79027 0.0
C1244 C 0.23831 0.52736 0.82741 0.0
C1245 C 0.25262 0.50498 0.83313 0.0
C1246 C 0.26645 0.49722 0.80001 0.0
H1247 H 0.72265 0.56737 0.77161 0.0
H1248 H 0.76782 0.51124 0.82942 0.0
H1249 H 0.77 0.48501 0.76422 0.0
H1250 H 0.69215 0.51804 0.71762 0.0
H1251 H 0.68767 0.53883 0.67291 0.0
H1252 H 0.6917 0.55457 0.72242 0.0
H1253 H 0.72394 0.58275 0.69311 0.0
H1254 H 0.71995 0.56704 0.64346 0.0
H1255 H 0.7464 0.56556 0.6681 0.0
H1256 H 0.76418 0.4623 0.69333 0.0
H1257 H 0.75171 0.4463 0.62486 0.0
H1258 H 0.71001 0.51729 0.6148 0.0
C1259 C 0.73316 0.54967 0.77069 0.0
C1260 C 0.74502 0.54141 0.80609 0.0
C1261 C 0.75876 0.51827 0.80289 0.0
C1262 C 0.75998 0.50312 0.76593 0.0
C1263 C 0.74749 0.5114 0.73215 0.0
C1264 C 0.73445 0.53431 0.73425 0.0
C1265 C 0.72173 0.53832 0.69457 0.0
C1266 C 0.69685 0.53737 0.70236 0.0
C1267 C 0.72842 0.565 0.67357 0.0
C1268 C 0.7293 0.51382 0.66989 0.0
C1269 C 0.74425 0.49857 0.69187 0.0
C1270 C 0.75268 0.47434 0.67582 0.0
C1271 C 0.74549 0.46539 0.63676 0.0
C1272 C 0.72996 0.48055 0.61389 0.0
C1273 C 0.72208 0.50528 0.63085 0.0
H1274 H 0.9565 0.73639 0.05999 0.0
H1275 H 0.00715 0.78853 0.11129 0.0
H1276 H 0.00576 0.8169 0.04867 0.0
H1277 H 0.97417 0.73944 0.95401 0.0
H1278 H 0.94663 0.73978 0.93385 0.0
H1279 H 0.95228 0.72327 0.98201 0.0
H1280 H 0.92282 0.75311 1.01785 0.0
H1281 H 0.91723 0.7693 0.9695 0.0
H1282 H 0.92449 0.78961 1.01376 0.0
H1283 H -0.00193 0.84042 0.98046 0.0
H1284 H 0.98638 0.85552 0.91156 0.0
H1285 H 0.93991 0.78876 0.90533 0.0
C1286 C 0.96727 0.75385 0.05834 0.0
C1287 C 0.98189 0.76019 0.09112 0.0
C1288 C 0.99596 0.78296 0.08678 0.0
C1289 C 0.99515 0.79936 0.05136 0.0
C1290 C 0.98021 0.79281 1.02021 0.0
C1291 C 0.96663 0.77045 0.02328 0.0
C1292 C 0.95201 0.76777 0.98553 0.0
C1293 C 0.95656 0.74098 0.96249 0.0
C1294 C 0.9277 0.77011 0.9974 0.0
C1295 C 0.95944 0.79217 0.96062 0.0
C1296 C 0.97571 0.80635 0.98123 0.0
C1297 C 0.98535 0.82941 0.96417 0.0
C1298 C 0.97853 0.8379 0.92491 0.0
C1299 C 0.96215 0.82348 0.90275 0.0
C1300 C 0.95234 0.80045 0.92136 0.0
H1301 H 0.01433 0.32479 0.0602 0.0
H1302 H 0.97783 0.26323 0.12673 0.0
H1303 H 0.9773 0.23448 0.06416 0.0
H1304 H 0.9893 0.31474 0.95992 0.0
H1305 H 0.0147 0.31962 0.93264 0.0
H1306 H 0.01031 0.33639 0.98134 0.0
H1307 H 0.04595 0.31486 1.00985 0.0
H1308 H 0.05043 0.29821 0.96116 0.0
H1309 H 0.04932 0.27847 1.00767 0.0
H1310 H 0.98309 0.21083 0.99467 0.0
H1311 H 0.99478 0.19467 0.92596 0.0
H1312 H 0.02885 0.27102 0.90636 0.0
C1313 C 0.00623 0.30525 0.062 0.0
C1314 C 0.99616 0.29644 0.09905 0.0
C1315 C 0.98539 0.27085 0.09897 0.0
C1316 C 0.98514 0.25422 0.06351 0.0
C1317 C 0.99576 0.2633 0.02807 0.0
C1318 C 0.00609 0.28828 0.02713 0.0
C1319 C 0.0173 0.29285 0.986 0.0
C1320 C 0.0073 0.31735 0.96366 0.0
C1321 C 0.04222 0.29629 0.99152 0.0
C1322 C 0.01184 0.26642 0.96396 0.0
C1323 C -0.00072 0.24969 0.98858 0.0
C1324 C 0.9928 0.2239 0.97514 0.0
C1325 C -0.00049 0.21489 0.93592 0.0
C1326 C 0.01268 0.23152 0.91034 0.0
C1327 C 0.01865 0.25777 0.92473 0.0
H1328 H 0.78829 0.02251 0.82731 0.0
H1329 H 0.72092 0.99536 0.8095 0.0
H1330 H 0.72053 1.01738 0.74216 0.0
H1331 H 0.78602 0.08529 0.7714 0.0
H1332 H 0.81259 0.08073 0.74818 0.0
H1333 H 0.80689 0.06622 0.79783 0.0
H1334 H 0.81752 1.01816 0.77083 0.0
H1335 H 0.82402 0.0332 0.72208 0.0
H1336 H 0.80478 1.00536 0.7246 0.0
H1337 H 0.72744 0.04277 0.67513 0.0
H1338 H 0.74266 0.06323 0.61179 0.0
H1339 H 0.8069 0.06596 0.6684 0.0
C1340 C 0.77337 1.02058 0.80963 0.0
C1341 C 0.75456 1.00693 0.82532 0.0
C1342 C 0.73549 1.00613 0.80005 0.0
C1343 C 0.73511 1.01847 0.76108 0.0
C1344 C 0.75403 0.03117 0.74675 0.0
C1345 C 0.77294 0.03183 0.77002 0.0
C1346 C 0.79173 0.04448 0.74612 0.0
C1347 C 0.79977 0.07074 0.76715 0.0
C1348 C 0.81061 0.02407 0.74054 0.0
C1349 C 0.78046 0.0506 0.70556 0.0
C1350 C 0.75855 0.04351 0.70697 0.0
C1351 C 0.74462 0.04819 0.67367 0.0
C1352 C 0.75337 0.05997 0.63787 0.0
C1353 C 0.77598 0.06626 0.63508 0.0
C1354 C 0.7896 0.06151 0.66954 0.0
H1355 H 0.2046 0.06321 0.77104 0.0
H1356 H 0.25607 1.0135 0.82399 0.0
H1357 H 0.2563 0.98508 0.76104 0.0
H1358 H 0.1747 1.00803 0.72484 0.0
H1359 H 0.1669 0.02704 0.67994 0.0
H1360 H 0.17152 0.04442 0.72806 0.0
H1361 H 0.20014 0.07562 0.69335 0.0
H1362 H 0.19548 0.05851 0.64503 0.0
H1363 H 0.22282 0.06065 0.66589 0.0
H1364 H 0.25 0.96098 0.69211 0.0
H1365 H 0.23869 0.94464 0.6232 0.0
H1366 H 0.19031 1.00906 0.61701 0.0
C1367 C 0.21589 0.04628 0.76977 0.0
C1368 C 0.23031 0.04072 0.80305 0.0
C1369 C 0.24507 1.0186 0.79908 0.0
C1370 C 0.24517 1.00212 0.76346 0.0
C1371 C 0.23037 1.00785 0.73186 0.0
C1372 C 0.21604 0.02949 0.7347 0.0
C1373 C 0.20153 0.03117 0.69678 0.0
C1374 C 0.17723 0.02744 0.7081 0.0
C1375 C 0.20523 0.05808 0.67391 0.0
C1376 C 0.20996 1.00713 0.67202 0.0
C1377 C 0.22659 0.99391 0.69274 0.0
C1378 C 0.23699 0.97123 0.67573 0.0
C1379 C 0.23041 0.96205 0.6365 0.0
C1380 C 0.21351 0.9754 0.61452 0.0
C1381 C 0.20313 0.99816 0.63294 0.0
H1382 H 0.45038 0.27131 0.06364 0.0
H1383 H 0.51778 0.24409 0.04766 0.0
H1384 H 0.51881 0.26657 0.98061 0.0
H1385 H 0.43475 0.25584 0.95913 0.0
H1386 H 0.4158 0.28391 0.9566 0.0
H1387 H 0.42147 0.26801 1.00515 0.0
H1388 H 0.43227 0.31529 0.03487 0.0
H1389 H 0.42723 0.33084 0.98571 0.0
H1390 H 0.45358 0.33467 1.01018 0.0
H1391 H 0.51262 0.29249 0.9138 0.0
H1392 H 0.4984 0.31455 0.85095 0.0
H1393 H 0.43379 0.31874 0.90581 0.0
C1394 C 0.46543 0.26944 0.04638 0.0
C1395 C 0.48406 0.25558 0.06253 0.0
C1396 C 0.50332 0.25491 0.03783 0.0
C1397 C 0.50406 0.26752 0.99902 0.0
C1398 C 0.48532 0.28044 0.98425 0.0
C1399 C 0.46624 0.28107 1.00695 0.0
C1400 C 0.44782 0.29444 0.98282 0.0
C1401 C 0.42885 0.27435 0.97547 0.0
C1402 C 0.43976 0.32035 1.00471 0.0
C1403 C 0.45953 0.30126 0.94292 0.0
C1404 C 0.48129 0.29351 0.94472 0.0
C1405 C 0.49557 0.29843 0.91206 0.0
C1406 C 0.48737 0.31113 0.87651 0.0
C1407 C 0.46496 0.31831 0.87328 0.0
C1408 C 0.45095 0.31337 0.90717 0.0
H1409 H 0.52549 0.81727 0.02904 0.0
H1410 H 0.47914 0.76201 0.08581 0.0
H1411 H 0.47783 0.73504 0.0213 0.0
H1412 H 0.50298 0.81423 0.92438 0.0
H1413 H 0.52971 0.81538 0.90083 0.0
H1414 H 0.52521 0.83169 0.94986 0.0
H1415 H 0.55689 0.80376 0.98169 0.0
H1416 H 0.56152 0.78783 0.93254 0.0
H1417 H 0.55654 0.76721 0.97725 0.0
H1418 H 0.48429 0.71168 0.9519 0.0
H1419 H 0.49718 0.69472 0.88453 0.0
H1420 H 0.53961 0.76518 0.87339 0.0
C1421 C 0.51492 0.79957 0.02802 0.0
C1422 C 0.50245 0.7918 0.06295 0.0
C1423 C 0.48866 0.76868 0.05963 0.0
C1424 C 0.48792 0.75311 0.02308 0.0
C1425 C 0.50095 0.76095 0.9898 0.0
C1426 C 0.51407 0.78381 0.99191 0.0
C1427 C 0.52726 0.78729 0.95264 0.0
C1428 C 0.5209 0.81372 0.93063 0.0
C1429 C 0.55202 0.78645 0.96159 0.0
C1430 C 0.51991 0.76249 0.92828 0.0
C1431 C 0.50461 0.74764 0.9501 0.0
C1432 C 0.4961 0.72335 0.9345 0.0
C1433 C 0.50355 0.71386 0.89603 0.0
C1434 C 0.51945 0.72852 0.87323 0.0
C1435 C 0.52742 0.75341 0.88966 0.0
H1436 H 0.79776 0.5424 0.1382 0.0
H1437 H 0.74149 0.59617 0.13659 0.0
H1438 H 0.73131 0.58092 0.20614 0.0
H1439 H 0.77275 0.48731 0.19093 0.0
H1440 H 0.79665 0.47914 0.22108 0.0
H1441 H 0.79973 0.495 0.17164 0.0
H1442 H 0.82215 0.53417 0.20566 0.0
H1443 H 0.81913 0.51781 0.25473 0.0
H1444 H 0.81054 0.5526 0.24833 0.0
H1445 H 0.72625 0.55833 0.27562 0.0
H1446 H 0.72816 0.53224 0.34044 0.0
H1447 H 0.78778 0.49337 0.29739 0.0
C1448 C 0.7835 0.55126 0.15267 0.0
C1449 C 0.77055 0.57066 0.13169 0.0
C1450 C 0.75181 0.5814 0.15181 0.0
C1451 C 0.74583 0.57281 0.19144 0.0
C1452 C 0.75878 0.55349 0.21106 0.0
C1453 C 0.77739 0.54305 0.19254 0.0
C1454 C 0.78846 0.52249 0.22042 0.0
C1455 C 0.78944 0.49431 0.19979 0.0
C1456 C 0.81143 0.53236 0.23305 0.0
C1457 C 0.77295 0.52262 0.25701 0.0
C1458 C 0.75596 0.54069 0.25108 0.0
C1459 C 0.73956 0.5442 0.28062 0.0
C1460 C 0.74069 0.52914 0.31731 0.0
C1461 C 0.75815 0.51079 0.32448 0.0
C1462 C 0.77436 0.5075 0.29346 0.0
H1463 H 0.20949 0.54204 0.3215 0.0
H1464 H 0.28061 0.54699 0.3217 0.0
H1465 H 0.28142 0.5213 0.25614 0.0
H1466 H 0.20339 0.47636 0.2748 0.0
H1467 H 0.18004 0.4863 0.24441 0.0
H1468 H 0.18533 0.50279 0.293 0.0
H1469 H 0.18553 0.54973 0.2571 0.0
H1470 H 0.18006 0.53332 0.20859 0.0
H1471 H 0.20357 0.55526 0.21405 0.0
H1472 H 0.27383 0.49499 0.18767 0.0
H1473 H 0.25859 0.47427 0.12368 0.0
H1474 H 0.19298 0.49056 0.1674 0.0
C1475 C 0.22538 0.5382 0.30792 0.0
C1476 C 0.24501 0.54701 0.32748 0.0
C1477 C 0.26526 0.54038 0.3083 0.0
C1478 C 0.26589 0.52588 0.27065 0.0
C1479 C 0.24615 0.51821 0.252 0.0
C1480 C 0.22628 0.52439 0.27009 0.0
C1481 C 0.20725 0.51537 0.24321 0.0
C1482 C 0.19318 0.49393 0.26517 0.0
C1483 C 0.19329 0.53987 0.22995 0.0
C1484 C 0.21943 0.50308 0.20702 0.0
C1485 C 0.24187 0.50452 0.21263 0.0
C1486 C 0.25628 0.49397 0.18308 0.0
C1487 C 0.24752 0.48213 0.14688 0.0
C1488 C 0.22459 0.48134 0.14022 0.0
C1489 C 0.21054 0.49167 0.17106 0.0
H1490 H 0.45023 0.81797 0.40973 0.0
H1491 H 0.5099 0.79471 0.34689 0.0
H1492 H 0.52356 0.77314 0.41096 0.0
H1493 H 0.47485 0.83285 0.50994 0.0
H1494 H 0.45193 0.81914 0.53803 0.0
H1495 H 0.44772 0.83378 0.48796 0.0
H1496 H 0.42949 0.78908 0.46321 0.0
H1497 H 0.43382 0.77406 0.51291 0.0
H1498 H 0.44428 0.75751 0.46741 0.0
H1499 H 0.5293 0.75124 0.48182 0.0
H1500 H 0.52683 0.73178 0.55157 0.0
H1501 H 0.46419 0.77219 0.56878 0.0
C1502 C 0.46633 0.8087 0.40978 0.0
C1503 C 0.4792 0.80822 0.37371 0.0
C1504 C 0.49998 0.79552 0.37449 0.0
C1505 C 0.5078 0.78319 0.4107 0.0
C1506 C 0.49462 0.78379 0.44586 0.0
C1507 C 0.47435 0.79639 0.44564 0.0
C1508 C 0.46301 0.79351 0.48688 0.0
C1509 C 0.45916 0.82149 0.50689 0.0
C1510 C 0.44138 0.77759 0.48232 0.0
C1511 C 0.47998 0.77726 0.51042 0.0
C1512 C 0.49807 0.77172 0.48633 0.0
C1513 C 0.5153 0.7558 0.50107 0.0
C1514 C 0.51383 0.74499 0.54109 0.0
C1515 C 0.49531 0.75018 0.56635 0.0
C1516 C 0.47848 0.76717 0.5506 0.0
H1517 H 0.53476 0.271 0.55338 0.0
H1518 H 0.47029 0.30734 0.54076 0.0
H1519 H 0.467 0.28687 0.47133 0.0
H1520 H 0.55195 0.2863 0.45219 0.0
H1521 H 0.56798 0.25578 0.44642 0.0
H1522 H 0.5638 0.27029 0.49671 0.0
H1523 H 0.54795 0.2243 0.52187 0.0
H1524 H 0.55202 0.20982 0.47143 0.0
H1525 H 0.52522 0.20907 0.49473 0.0
H1526 H 0.47223 0.26479 0.39983 0.0
H1527 H 0.48568 0.24402 0.33462 0.0
H1528 H 0.54757 0.22565 0.39329 0.0
C1529 C 0.51987 0.27483 0.53629 0.0
C1530 C 0.50283 0.29114 0.55301 0.0
C1531 C 0.48351 0.29474 0.52932 0.0
C1532 C 0.48156 0.28333 0.48955 0.0
C1533 C 0.49909 0.26837 0.47357 0.0
C1534 C 0.51788 0.26415 0.49638 0.0
C1535 C 0.53508 0.24904 0.47152 0.0
C1536 C 0.55592 0.26639 0.46641 0.0
C1537 C 0.54037 0.22142 0.49106 0.0
C1538 C 0.52315 0.24549 0.43095 0.0
C1539 C 0.50231 0.25651 0.43269 0.0
C1540 C 0.48846 0.25601 0.39837 0.0
C1541 C 0.49617 0.24416 0.3615 0.0
C1542 C 0.51755 0.23321 0.35919 0.0
C1543 C 0.5311 0.23381 0.39442 0.0
H1544 H 0.1224 0.19677 0.92699 0.0
H1545 H 0.07172 0.13814 0.89777 0.0
H1546 H 0.09725 0.10075 0.91328 0.0
H1547 H 0.16035 0.16946 0.87479 0.0
H1548 H 0.18357 0.17538 0.908 0.0
H1549 H 0.1601 0.19701 0.91166 0.0
H1550 H 0.15595 0.1862 0.98907 0.0
H1551 H 0.17996 0.16493 0.98608 0.0
H1552 H 0.15461 0.15134 1.00573 0.0
H1553 H 0.13006 0.07156 0.90909 0.0
H1554 H 0.1666 0.05273 0.89297 0.0
H1555 H 0.19617 0.13053 0.92288 0.0
C1556 C 0.1164 0.17603 0.92631 0.0
C1557 C 0.0953 0.17012 0.91135 0.0
C1558 C 0.08785 0.14294 0.90975 0.0
C1559 C 0.10228 0.12159 0.91846 0.0
C1560 C 0.1238 0.12798 0.92945 0.0
C1561 C 0.13068 0.15465 0.93463 0.0
C1562 C 0.15533 0.15651 0.93873 0.0
C1563 C 0.16539 0.17569 0.90635 0.0
C1564 C 0.16184 0.16525 0.98252 0.0
C1565 C 0.16137 0.12723 0.9307 0.0
C1566 C 0.14303 0.11087 0.92677 0.0
C1567 C 0.14456 0.08392 0.91352 0.0
C1568 C 0.16531 0.07352 0.90381 0.0
C1569 C 0.18416 0.0902 0.90692 0.0
C1570 C 0.1821 0.11713 0.92138 0.0
H1571 H 0.78398 0.92031 0.95264 0.0
H1572 H 0.81699 0.99566 0.92241 0.0
H1573 H 0.85268 0.97415 0.93759 0.0
H1574 H 0.82521 0.8962 0.03427 0.0
H1575 H 0.82176 0.8616 1.01687 0.0
H1576 H 0.79897 0.8849 1.0152 0.0
H1577 H 0.79392 0.87485 0.93748 0.0
H1578 H 0.8164 0.85158 0.93897 0.0
H1579 H 0.81683 0.87944 0.90314 0.0
H1580 H 0.88427 0.94217 0.94066 0.0
H1581 H 0.90767 0.9026 0.92437 0.0
H1582 H 0.85417 0.8485 0.95431 0.0
C1583 C 0.7986 0.93276 0.9512 0.0
C1584 C 0.79768 0.95974 0.93679 0.0
C1585 C 0.81732 0.97492 0.93343 0.0
C1586 C 0.83763 0.96297 0.94252 0.0
C1587 C 0.838 0.93596 0.95546 0.0
C1588 C 0.81888 0.92113 0.9601 0.0
C1589 C 0.82354 0.89135 0.96721 0.0
C1590 C 0.81699 0.88304 1.011 0.0
C1591 C 0.81202 0.87329 0.93474 0.0
C1592 C 0.84818 0.89125 0.96216 0.0
C1593 C 0.85639 0.91729 0.95713 0.0
C1594 C 0.87818 0.9218 0.94585 0.0
C1595 C 0.89145 0.89922 0.93691 0.0
C1596 C 0.8826 0.8727 0.93857 0.0
C1597 C 0.86129 0.86868 0.95383 0.0
H1598 H 0.06333 0.332 0.15675 0.0
H1599 H 0.02376 0.3931 0.21891 0.0
H1600 H 0.05591 0.42266 0.22467 0.0
H1601 H 0.11746 0.34792 0.20707 0.0
H1602 H 0.13195 0.34353 0.15918 0.0
H1603 H 0.10759 0.32388 0.1693 0.0
H1604 H 0.09063 0.34119 0.10154 0.0
H1605 H 0.11445 0.3616 0.09144 0.0
H1606 H 0.08783 0.37727 0.09344 0.0
H1607 H 0.08901 0.44915 0.21212 0.0
H1608 H 0.12003 0.47165 0.17762 0.0
H1609 H 0.13889 0.39515 0.1217 0.0
C1610 C 0.06144 0.35139 0.17219 0.0
C1611 C 0.04091 0.35984 0.18794 0.0
C1612 C 0.03932 0.38554 0.20773 0.0
C1613 C 0.05756 0.40262 0.21114 0.0
C1614 C 0.07736 0.39392 0.19447 0.0
C1615 C 0.07943 0.36896 0.17519 0.0
C1616 C 0.10139 0.36642 0.15377 0.0
C1617 C 0.11543 0.34411 0.17353 0.0
C1618 C 0.09836 0.36131 0.10731 0.0
C1619 C 0.11087 0.39438 0.16227 0.0
C1620 C 0.09692 0.40964 0.18674 0.0
C1621 C 0.10042 0.43723 0.19405 0.0
C1622 C 0.11804 0.44984 0.17441 0.0
C1623 C 0.13195 0.43483 0.1481 0.0
C1624 C 0.12893 0.40662 0.1432 0.0
H1625 H 0.95293 0.66561 0.19863 0.0
H1626 H 0.91972 0.74299 0.18781 0.0
H1627 H 0.88394 0.71975 0.19467 0.0
H1628 H 0.92074 0.63182 0.13523 0.0
H1629 H 0.92082 0.59971 0.16174 0.0
H1630 H 0.94325 0.62281 0.16847 0.0
H1631 H 0.93726 0.62234 0.24736 0.0
H1632 H 0.91461 0.59911 0.24082 0.0
H1633 H 0.91072 0.6307 0.26819 0.0
H1634 H 0.85227 0.68757 0.1881 0.0
H1635 H 0.82866 0.64996 0.16285 0.0
H1636 H 0.88272 0.59394 0.17635 0.0
C1637 C 0.93816 0.67779 0.19977 0.0
C1638 C 0.93904 0.70606 0.19325 0.0
C1639 C 0.91935 0.72127 0.19302 0.0
C1640 C 0.89899 0.70825 0.19728 0.0
C1641 C 0.89863 0.68007 0.202 0.0
C1642 C 0.9178 0.66506 0.20351 0.0
C1643 C 0.91322 0.63489 0.2012 0.0
C1644 C 0.92519 0.62157 0.16447 0.0
C1645 C 0.91931 0.62095 0.24182 0.0
C1646 C 0.88867 0.63528 0.19501 0.0
C1647 C 0.88034 0.66141 0.1972 0.0
C1648 C 0.85847 0.66697 0.18749 0.0
C1649 C 0.84512 0.64554 0.17339 0.0
C1650 C 0.85398 0.61925 0.16835 0.0
C1651 C 0.87561 0.6139 0.18095 0.0
H1652 H 0.18091 0.58605 0.38504 0.0
H1653 H 0.22091 0.64522 0.45079 0.0
H1654 H 0.18838 0.67353 0.46214 0.0
H1655 H 0.15355 0.63461 0.32939 0.0
H1656 H 0.12747 0.61751 0.32758 0.0
H1657 H 0.15227 0.59804 0.33229 0.0
H1658 H 0.13799 0.5754 0.39855 0.0
H1659 H 0.11272 0.59412 0.39398 0.0
H1660 H 0.12857 0.59627 0.44072 0.0
H1661 H 0.15329 0.69837 0.45865 0.0
H1662 H 0.11982 0.72044 0.43256 0.0
H1663 H 0.10274 0.64683 0.36603 0.0
C1664 C 0.1829 0.60482 0.40217 0.0
C1665 C 0.20357 0.61298 0.41762 0.0
C1666 C 0.20525 0.63786 0.43973 0.0
C1667 C 0.1868 0.65419 0.44637 0.0
C1668 C 0.16675 0.64556 0.43049 0.0
C1669 C 0.16474 0.62163 0.40838 0.0
C1670 C 0.14227 0.6191 0.38898 0.0
C1671 C 0.14402 0.6172 0.34178 0.0
C1672 C 0.12964 0.59477 0.40663 0.0
C1673 C 0.13218 0.64576 0.40256 0.0
C1674 C 0.14641 0.66042 0.42736 0.0
C1675 C 0.14182 0.68691 0.43997 0.0
C1676 C 0.12276 0.69926 0.42511 0.0
C1677 C 0.10872 0.68515 0.39772 0.0
C1678 C 0.11294 0.65772 0.38787 0.0
H1679 H 0.89493 0.40377 0.36879 0.0
H1680 H 0.886 0.36277 0.48486 0.0
H1681 H 0.85989 0.39853 0.50693 0.0
H1682 H 0.88131 0.47727 0.40407 0.0
H1683 H 0.86674 0.48237 0.35647 0.0
H1684 H 0.89057 0.46068 0.35775 0.0
H1685 H 0.86709 0.42197 0.32531 0.0
H1686 H 0.84335 0.4433 0.3256 0.0
H1687 H 0.84258 0.41096 0.35142 0.0
H1688 H 0.83059 0.43382 0.51136 0.0
H1689 H 0.7971 0.45916 0.4947 0.0
H1690 H 0.82095 0.47029 0.36988 0.0
C1691 C 0.8884 0.40336 0.39977 0.0
C1692 C 0.89295 0.38139 0.42596 0.0
C1693 C 0.88313 0.3801 0.46516 0.0
C1694 C 0.86838 0.40036 0.47785 0.0
C1695 C 0.86332 0.42124 0.45046 0.0
C1696 C 0.87296 0.42268 0.41195 0.0
C1697 C 0.86111 0.44261 0.38446 0.0
C1698 C 0.8758 0.46721 0.37514 0.0
C1699 C 0.85305 0.42887 0.34442 0.0
C1700 C 0.84233 0.45059 0.41236 0.0
C1701 C 0.8446 0.43935 0.45098 0.0
C1702 C 0.82866 0.44272 0.4812 0.0
C1703 C 0.80946 0.45683 0.47112 0.0
C1704 C 0.8058 0.46625 0.43046 0.0
C1705 C 0.823 0.46393 0.40142 0.0
H1706 H 0.06976 0.83146 0.61568 0.0
H1707 H 0.05384 0.84119 0.74541 0.0
H1708 H 0.08877 0.86488 0.75596 0.0
H1709 H 0.13143 0.82035 0.63598 0.0
H1710 H 0.13772 0.83698 0.58812 0.0
H1711 H 0.11322 0.81668 0.5926 0.0
H1712 H 0.08988 0.85766 0.56887 0.0
H1713 H 0.11412 0.87787 0.56422 0.0
H1714 H 0.09194 0.88947 0.59643 0.0
H1715 H 0.11875 0.899 0.74666 0.0
H1716 H 0.14363 0.93452 0.71963 0.0
H1717 H 0.14516 0.89335 0.60194 0.0
C1718 C 0.07375 0.83706 0.64694 0.0
C1719 C 0.05831 0.83483 0.67925 0.0
C1720 C 0.06463 0.84355 0.71931 0.0
C1721 C 0.08478 0.85658 0.72599 0.0
C1722 C 0.09906 0.85941 0.69292 0.0
C1723 C 0.09416 0.84887 0.65455 0.0
C1724 C 0.11138 0.85634 0.6232 0.0
C1725 C 0.1242 0.83108 0.60917 0.0
C1726 C 0.10122 0.87124 0.58609 0.0
C1727 C 0.12559 0.87497 0.649 0.0
C1728 C 0.11837 0.87642 0.68934 0.0
C1729 C 0.1255 0.897 0.71601 0.0
C1730 C 0.13963 0.91706 0.70059 0.0
C1731 C 0.14689 0.91572 0.65946 0.0
C1732 C 0.14073 0.89372 0.63423 0.0
H1733 H 0.87771 0.09889 0.71238 0.0
H1734 H 0.8281 0.1552 0.67053 0.0
H1735 H 0.85167 0.1937 0.69079 0.0
H1736 H 0.90378 0.14655 0.79636 0.0
H1737 H 0.93058 0.13405 0.78277 0.0
H1738 H 0.90721 0.11159 0.78072 0.0
H1739 H 0.91625 0.10006 0.70502 0.0
H1740 H 0.93932 0.12252 0.70633 0.0
H1741 H 0.91828 0.12716 0.66802 0.0
H1742 H 0.88378 0.22426 0.69393 0.0
H1743 H 0.92057 0.24451 0.68594 0.0
H1744 H 0.94996 0.16822 0.72291 0.0
C1745 C 0.87132 0.11935 0.70991 0.0
C1746 C 0.85119 0.1242 0.69002 0.0
C1747 C 0.84344 0.15113 0.68612 0.0
C1748 C 0.85677 0.17314 0.69751 0.0
C1749 C 0.87758 0.16776 0.71328 0.0
C1750 C 0.88463 0.14144 0.72058 0.0
C1751 C 0.90893 0.14068 0.73011 0.0
C1752 C 0.91285 0.13276 0.77518 0.0
C1753 C 0.92139 0.12151 0.70057 0.0
C1754 C 0.91482 0.17013 0.72295 0.0
C1755 C 0.89647 0.18564 0.71466 0.0
C1756 C 0.89819 0.21255 0.70171 0.0
C1757 C 0.91916 0.22378 0.6967 0.0
C1758 C 0.93812 0.20799 0.70408 0.0
C1759 C 0.93579 0.18107 0.71827 0.0
H1760 H 0.70393 0.13795 0.40576 0.0
H1761 H 0.67426 0.05832 0.39385 0.0
H1762 H 0.63742 0.07916 0.39574 0.0
H1763 H 0.65822 0.17171 0.46856 0.0
H1764 H 0.66156 0.20284 0.4402 0.0
H1765 H 0.68492 0.18136 0.4499 0.0
H1766 H 0.69303 0.1795 0.37168 0.0
H1767 H 0.66978 0.20075 0.36189 0.0
H1768 H 0.67189 0.16807 0.33683 0.0
H1769 H 0.60497 0.1084 0.38518 0.0
H1770 H 0.58009 0.14347 0.35752 0.0
H1771 H 0.6308 0.20427 0.37423 0.0
C1772 C 0.68958 0.12495 0.40537 0.0
C1773 C 0.69169 0.09666 0.40025 0.0
C1774 C 0.67277 0.0801 0.39812 0.0
C1775 C 0.65185 0.09174 0.39954 0.0
C1776 C 0.65022 0.11992 0.40314 0.0
C1777 C 0.66863 0.13634 0.4061 0.0
C1778 C 0.66276 0.16606 0.40212 0.0
C1779 C 0.66712 0.18139 0.44262 0.0
C1780 C 0.67508 0.17934 0.36598 0.0
C1781 C 0.63845 0.16368 0.39364 0.0
C1782 C 0.63136 0.13701 0.39583 0.0
C1783 C 0.61014 0.12944 0.38441 0.0
C1784 C 0.59612 0.14944 0.36876 0.0
C1785 C 0.60364 0.1764 0.36406 0.0
C1786 C 0.62466 0.18378 0.3782 0.0
H1787 H 0.31577 0.94634 0.35019 0.0
H1788 H 0.27293 0.88713 0.40816 0.0
H1789 H 0.30502 0.8605 0.42886 0.0
H1790 H 0.34943 0.89629 0.30498 0.0
H1791 H 0.37401 0.91649 0.30879 0.0
H1792 H 0.34775 0.93285 0.30533 0.0
H1793 H 0.3568 0.95926 0.3727 0.0
H1794 H 0.38268 0.94184 0.37699 0.0
H1795 H 0.36328 0.94063 0.41875 0.0
H1796 H 0.34038 0.83792 0.43747 0.0
H1797 H 0.37538 0.81586 0.41978 0.0
H1798 H 0.39578 0.88788 0.35407 0.0
C1799 C 0.31306 0.92777 0.36717 0.0
C1800 C 0.29174 0.91934 0.37844 0.0
C1801 C 0.28907 0.89468 0.40038 0.0
C1802 C 0.30723 0.8794 0.41247 0.0
C1803 C 0.328 0.88872 0.40187 0.0
C1804 C 0.33099 0.91191 0.37874 0.0
C1805 C 0.35466 0.91505 0.36569 0.0
C1806 C 0.35658 0.91516 0.31842 0.0
C1807 C 0.36496 0.94073 0.38469 0.0
C1808 C 0.36437 0.88954 0.3841 0.0
C1809 C 0.34878 0.8751 0.40594 0.0
C1810 C 0.35289 0.84923 0.42129 0.0
C1811 C 0.37285 0.83693 0.41144 0.0
C1812 C 0.38822 0.85055 0.38644 0.0
C1813 C 0.38458 0.87768 0.37474 0.0
H1814 H 0.56847 0.335 0.58561 0.0
H1815 H 0.54793 0.3569 0.71014 0.0
H1816 H 0.58293 0.3796 0.72043 0.0
H1817 H 0.62583 0.32031 0.61788 0.0
H1818 H 0.63699 0.33244 0.5702 0.0
H1819 H 0.61057 0.31582 0.57083 0.0
H1820 H 0.59143 0.35696 0.53728 0.0
H1821 H 0.6175 0.3736 0.53328 0.0
H1822 H 0.59518 0.39034 0.55926 0.0
H1823 H 0.6166 0.40886 0.71069 0.0
H1824 H 0.64683 0.43713 0.68327 0.0
H1825 H 0.64872 0.38724 0.57342 0.0
C1826 C 0.57087 0.34339 0.61588 0.0
C1827 C 0.55407 0.3443 0.64613 0.0
C1828 C 0.55932 0.35655 0.68481 0.0
C1829 C 0.57964 0.36918 0.69167 0.0
C1830 C 0.59528 0.36826 0.66063 0.0
C1831 C 0.59133 0.35485 0.62406 0.0
C1832 C 0.61042 0.35751 0.59479 0.0
C1833 C 0.62159 0.32987 0.58798 0.0
C1834 C 0.6032 0.37036 0.55378 0.0
C1835 C 0.625 0.37639 0.61927 0.0
C1836 C 0.61609 0.38235 0.65741 0.0
C1837 C 0.62435 0.40341 0.68187 0.0
C1838 C 0.64153 0.41932 0.66622 0.0
C1839 C 0.65048 0.41356 0.62707 0.0
C1840 C 0.64284 0.39107 0.60436 0.0
H1841 H 0.38389 0.59674 0.66127 0.0
H1842 H 0.33447 0.65608 0.62916 0.0
H1843 H 0.35911 0.69303 0.65209 0.0
H1844 H 0.41038 0.63813 0.75043 0.0
H1845 H 0.43711 0.6262 0.73529 0.0
H1846 H 0.41355 0.60436 0.72942 0.0
H1847 H 0.42262 0.598 0.65228 0.0
H1848 H 0.44604 0.61967 0.65767 0.0
H1849 H 0.42532 0.62753 0.61999 0.0
H1850 H 0.39172 0.72267 0.65906 0.0
H1851 H 0.42885 0.74247 0.6537 0.0
H1852 H 0.45713 0.66391 0.68156 0.0
C1853 C 0.37791 0.61746 0.66109 0.0
C1854 C 0.3574 0.62373 0.64377 0.0
C1855 C 0.3501 0.65097 0.64292 0.0
C1856 C 0.36399 0.67205 0.65592 0.0
C1857 C 0.38484 0.66537 0.67036 0.0
C1858 C 0.39159 0.63861 0.67396 0.0
C1859 C 0.41579 0.63677 0.68372 0.0
C1860 C 0.41941 0.62572 0.72732 0.0
C1861 C 0.42814 0.61951 0.65147 0.0
C1862 C 0.422 0.66646 0.6813 0.0
C1863 C 0.40386 0.68275 0.67476 0.0
C1864 C 0.40595 0.7103 0.66559 0.0
C1865 C 0.42707 0.72132 0.66221 0.0
C1866 C 0.44576 0.70473 0.66768 0.0
C1867 C 0.44309 0.67722 0.67857 0.0
H1868 H 0.62902 0.69281 0.90246 0.0
H1869 H 0.5804 0.63228 0.87 0.0
H1870 H 0.60575 0.59592 0.89141 0.0
H1871 H 0.67017 0.66419 0.85921 0.0
H1872 H 0.69135 0.67193 0.89616 0.0
H1873 H 0.66756 0.6931 0.89321 0.0
H1874 H 0.65929 0.68523 0.97033 0.0
H1875 H 0.68353 0.66442 0.97396 0.0
H1876 H 0.65735 0.65105 0.98974 0.0
H1877 H 0.63914 0.56738 0.89471 0.0
H1878 H 0.67663 0.54887 0.88756 0.0
H1879 H 0.70361 0.62786 0.91857 0.0
C1880 C 0.62335 0.67193 0.9022 0.0
C1881 C 0.60291 0.66515 0.88493 0.0
C1882 C 0.59595 0.63776 0.88386 0.0
C1883 C 0.61029 0.61701 0.89586 0.0
C1884 C 0.63119 0.6242 0.90968 0.0
C1885 C 0.63747 0.65113 0.91414 0.0
C1886 C 0.66175 0.65366 0.92289 0.0
C1887 C 0.67336 0.67175 0.89095 0.0
C1888 C 0.66571 0.6642 0.96686 0.0
C1889 C 0.66851 0.62426 0.91872 0.0
C1890 C 0.65063 0.60744 0.91215 0.0
C1891 C 0.65318 0.58014 0.90135 0.0
C1892 C 0.67449 0.56988 0.89686 0.0
C1893 C 0.69288 0.58696 0.90295 0.0
C1894 C 0.68978 0.61423 0.91496 0.0
H1895 H 0.36077 0.35089 0.94167 0.0
H1896 H 0.41062 0.4089 0.90626 0.0
H1897 H 0.38665 0.44652 0.92836 0.0
H1898 H 0.3206 0.38058 0.89751 0.0
H1899 H 0.29914 0.37428 0.93438 0.0
H1900 H 0.32235 0.35213 0.93215 0.0
H1901 H 0.33043 0.36089 1.00918 0.0
H1902 H 0.30687 0.38292 1.01196 0.0
H1903 H 0.33339 0.39527 0.02792 0.0
H1904 H 0.3544 0.47671 0.93269 0.0
H1905 H 0.31763 0.49677 0.92369 0.0
H1906 H 0.28809 0.41922 0.95386 0.0
C1907 C 0.36709 0.37146 0.94095 0.0
C1908 C 0.38747 0.3771 0.92246 0.0
C1909 C 0.39511 0.4042 0.9208 0.0
C1910 C 0.38155 0.42571 0.93327 0.0
C1911 C 0.36059 0.41966 0.9478 0.0
C1912 C 0.35356 0.39307 0.95269 0.0
C1913 C 0.32916 0.3918 0.96106 0.0
C1914 C 0.31714 0.37366 0.92936 0.0
C1915 C 0.32471 0.38216 1.00516 0.0
C1916 C 0.32323 0.42144 0.95615 0.0
C1917 C 0.34163 0.43735 0.94991 0.0
C1918 C 0.33995 0.46465 0.93889 0.0
C1919 C 0.31901 0.4758 0.93337 0.0
C1920 C 0.30003 0.45958 0.93837 0.0
C1921 C 0.30228 0.43233 0.95109 0.0
H1922 H 0.54023 0.88144 0.17061 0.0
H1923 H 0.5694 0.80231 0.15035 0.0
H1924 H 0.60631 0.82301 0.15282 0.0
H1925 H 0.57057 0.91404 0.10384 0.0
H1926 H 0.57343 0.94573 0.13147 0.0
H1927 H 0.55036 0.92421 0.14134 0.0
H1928 H 0.56032 0.92308 0.21873 0.0
H1929 H 0.58356 0.94481 0.2091 0.0
H1930 H 0.58736 0.91263 0.2344 0.0
H1931 H 0.63849 0.85265 0.142 0.0
H1932 H 0.6625 0.88856 0.11413 0.0
H1933 H 0.61244 0.94865 0.13976 0.0
C1934 C 0.55448 0.86837 0.16877 0.0
C1935 C 0.55215 0.84035 0.16085 0.0
C1936 C 0.57099 0.82385 0.15672 0.0
C1937 C 0.59197 0.83541 0.15849 0.0
C1938 C 0.59376 0.86342 0.16457 0.0
C1939 C 0.57545 0.87969 0.16991 0.0
C1940 C 0.58128 0.90955 0.168 0.0
C1941 C 0.56815 0.92419 0.13413 0.0
C1942 C 0.57794 0.92332 0.21007 0.0
C1943 C 0.60535 0.90752 0.15743 0.0
C1944 C 0.61247 0.88082 0.15721 0.0
C1945 C 0.63332 0.87368 0.14321 0.0
C1946 C 0.64686 0.89417 0.12743 0.0
C1947 C 0.6392 0.92121 0.12511 0.0
C1948 C 0.61868 0.9281 0.1419 0.0
H1949 H 0.45295 0.16843 0.18794 0.0
H1950 H 0.42091 0.24421 0.15711 0.0
H1951 H 0.38486 0.22278 0.16925 0.0
H1952 H 0.4214 0.12845 0.13493 0.0
H1953 H 0.42073 0.10007 0.16981 0.0
H1954 H 0.4433 0.12325 0.17137 0.0
H1955 H 0.43615 0.13221 0.24874 0.0
H1956 H 0.41326 0.10899 0.24735 0.0
H1957 H 0.40946 0.14333 0.26556 0.0
H1958 H 0.35325 0.19097 0.16793 0.0
H1959 H 0.33034 0.15183 0.14703 0.0
H1960 H 0.38263 0.09698 0.18052 0.0
C1961 C 0.43843 0.18096 0.18583 0.0
C1962 C 0.43975 0.20804 0.17193 0.0
C1963 C 0.42027 0.22339 0.1677 0.0
C1964 C 0.39974 0.21147 0.17507 0.0
C1965 C 0.39897 0.18431 0.18725 0.0
C1966 C 0.41792 0.16934 0.193 0.0
C1967 C 0.41295 0.13947 0.1986 0.0
C1968 C 0.4253 0.12183 0.16675 0.0
C1969 C 0.41826 0.13049 0.2427 0.0
C1970 C 0.38849 0.13954 0.19111 0.0
C1971 C 0.3805 0.16569 0.18641 0.0
C1972 C 0.35911 0.17049 0.17287 0.0
C1973 C 0.34611 0.14814 0.16127 0.0
C1974 C 0.35484 0.1216 0.16261 0.0
C1975 C 0.3756 0.11719 0.18019 0.0
loop_
_geom_bond_atom_site_label_1
_geom_bond_atom_site_label_2
_geom_bond_distance
_geom_bond_site_symmetry_2
_ccdc_geom_bond_type
O0 Tb1 2.292 . S
O0 C3 1.255 . S
Tb1 O0 2.292 . S
Tb1 O17 2.326 . S
Tb1 O19 2.500 . S
Tb1 O20 2.473 . S
Tb1 O23 2.324 1_554 S
Eu2 O6 2.292 . S
Eu2 C7 2.852 1_554 S
Eu2 O18 2.324 . S
Eu2 O22 2.326 1_554 S
Eu2 O24 2.500 1_554 S
Eu2 O25 2.473 . S
C3 O0 1.255 . S
C3 O4 1.245 1_545 S
O4 C3 1.245 1_565 S
C5 O17 1.242 . S
C5 O18 1.258 . S
O6 Eu2 2.292 . S
O6 C8 1.255 . S
C7 Eu2 2.852 1_556 S
C7 C11 1.503 . S
C7 O24 1.273 . S
C7 O25 1.257 1_556 S
C8 O6 1.255 . S
C8 O9 1.247 . S
O9 C8 1.247 . S
C10 O22 1.242 . S
C10 O23 1.258 . S
C11 C7 1.503 . S
C11 C12 1.379 . S
C11 C16 1.392 . S
C12 C11 1.379 . S
C12 C13 1.404 . S
C12 H26 0.929 . S
C13 C12 1.404 . S
C13 C14 1.389 . S
C14 C13 1.389 . S
C14 C15 1.399 . S
C14 H27 0.931 . S
C15 C14 1.399 . S
C15 C16 1.390 . S
C16 C11 1.392 . S
C16 C15 1.390 . S
C16 H28 0.929 . S
O17 Tb1 2.326 . S
O17 C5 1.242 . S
O18 Eu2 2.324 . S
O18 C5 1.258 . S
O19 Tb1 2.500 . S
O19 C21 1.273 . S
O20 Tb1 2.473 . S
O20 C21 1.257 . S
C21 O19 1.273 . S
C21 O20 1.257 . S
O22 Eu2 2.326 1_556 S
O22 C10 1.242 . S
O23 Tb1 2.324 1_556 S
O23 C10 1.258 . S
O24 Eu2 2.500 1_556 S
O24 C7 1.273 . S
O25 Eu2 2.473 . S
O25 C7 1.257 1_554 S
H26 C12 0.929 . S
H27 C14 0.931 . S
H28 C16 0.929 . S
O29 Tb30 2.292 . S
O29 C32 1.255 . S
Tb30 O29 2.292 . S
Tb30 O46 2.326 . S
Tb30 O48 2.500 . S
Tb30 O49 2.473 . S
Tb30 O52 2.324 1_554 S
Eu31 O35 2.292 . S
Eu31 C36 2.852 1_554 S
Eu31 O47 2.324 . S
Eu31 O51 2.326 1_554 S
Eu31 O53 2.500 1_554 S
Eu31 O54 2.473 . S
C32 O29 1.255 . S
C32 O33 1.245 1_565 S
O33 C32 1.245 1_545 S
C34 O46 1.242 . S
C34 O47 1.258 . S
O35 Eu31 2.292 . S
O35 C37 1.255 . S
C36 Eu31 2.852 1_556 S
C36 C40 1.503 . S
C36 O53 1.273 . S
C36 O54 1.257 1_556 S
C37 O35 1.255 . S
C37 O38 1.247 . S
O38 C37 1.247 . S
C39 O51 1.242 . S
C39 O52 1.258 . S
C40 C36 1.503 . S
C40 C41 1.379 . S
C40 C45 1.392 . S
C41 C40 1.379 . S
C41 C42 1.404 . S
C41 H55 0.929 . S
C42 C41 1.404 . S
C42 C43 1.389 . S
C43 C42 1.389 . S
C43 C44 1.399 . S
C43 H56 0.931 . S
C44 C43 1.399 . S
C44 C45 1.390 . S
C45 C40 1.392 . S
C45 C44 1.390 . S
C45 H57 0.929 . S
O46 Tb30 2.326 . S
O46 C34 1.242 . S
O47 Eu31 2.324 . S
O47 C34 1.258 . S
O48 Tb30 2.500 . S
O48 C50 1.273 . S
O49 Tb30 2.473 . S
O49 C50 1.257 . S
C50 O48 1.273 . S
C50 O49 1.257 . S
O51 Eu31 2.326 1_556 S
O51 C39 1.242 . S
O52 Tb30 2.324 1_556 S
O52 C39 1.258 . S
O53 Eu31 2.500 1_556 S
O53 C36 1.273 . S
O54 Eu31 2.473 . S
O54 C36 1.257 1_554 S
H55 C41 0.929 . S
H56 C43 0.931 . S
H57 C45 0.929 . S
O58 Tb59 2.292 . S
O58 C61 1.255 . S
Tb59 O58 2.292 . S
Tb59 O75 2.326 . S
Tb59 O77 2.500 . S
Tb59 O78 2.473 . S
Tb59 O81 2.324 . S
Eu60 O64 2.292 . S
Eu60 C65 2.852 . S
Eu60 O76 2.324 . S
Eu60 O80 2.326 . S
Eu60 O82 2.476 1_655 S
Eu60 O83 2.473 . S
C61 O58 1.255 . S
C61 O62 1.247 . S
O62 C61 1.247 . S
C63 O75 1.242 . S
C63 O76 1.258 . S
O64 Eu60 2.292 . S
O64 C66 1.255 . S
C65 Eu60 2.852 . S
C65 C69 1.503 1_655 S
C65 O82 1.266 1_655 S
C65 O83 1.257 . S
C66 O64 1.255 . S
C66 O67 1.247 . S
O67 C66 1.247 . S
C68 O80 1.242 . S
C68 O81 1.258 . S
C69 C65 1.503 1_455 S
C69 C70 1.379 1_455 S
C69 C74 1.392 . S
C70 C69 1.379 1_655 S
C70 C71 1.404 1_655 S
C70 H84 0.929 . S
C71 C70 1.404 1_455 S
C71 C72 1.389 . S
C72 C71 1.389 . S
C72 C73 1.399 . S
C72 H85 0.931 . S
C73 C72 1.399 . S
C73 C74 1.390 . S
C74 C69 1.392 . S
C74 C73 1.390 . S
C74 H86 0.929 . S
O75 Tb59 2.326 . S
O75 C63 1.242 . S
O76 Eu60 2.324 . S
O76 C63 1.258 . S
O77 Tb59 2.500 . S
O77 C79 1.273 . S
O78 Tb59 2.473 . S
O78 C79 1.257 . S
C79 O77 1.273 . S
C79 O78 1.257 . S
O80 Eu60 2.326 . S
O80 C68 1.242 . S
O81 Tb59 2.324 . S
O81 C68 1.258 . S
O82 Eu60 2.476 1_455 S
O82 C65 1.266 1_455 S
O83 Eu60 2.473 . S
O83 C65 1.257 . S
H84 C70 0.929 . S
H85 C72 0.931 . S
H86 C74 0.929 . S
O87 Tb88 2.292 . S
O87 C90 1.255 . S
Tb88 O87 2.292 . S
Tb88 O104 2.326 . S
Tb88 O106 2.500 . S
Tb88 O107 2.473 . S
Tb88 O110 2.324 . S
Eu89 O93 2.292 . S
Eu89 C94 2.852 . S
Eu89 O105 2.324 . S
Eu89 O109 2.326 . S
Eu89 O111 2.476 1_455 S
Eu89 O112 2.473 . S
C90 O87 1.255 . S
C90 O91 1.247 . S
O91 C90 1.247 . S
C92 O104 1.242 . S
C92 O105 1.258 . S
O93 Eu89 2.292 . S
O93 C95 1.255 . S
C94 Eu89 2.852 . S
C94 C98 1.503 1_455 S
C94 O111 1.266 1_455 S
C94 O112 1.257 . S
C95 O93 1.255 . S
C95 O96 1.247 . S
O96 C95 1.247 . S
C97 O109 1.242 . S
C97 O110 1.258 . S
C98 C94 1.503 1_655 S
C98 C99 1.379 1_655 S
C98 C103 1.392 . S
C99 C98 1.379 1_455 S
C99 C100 1.404 1_455 S
C99 H113 0.929 . S
C100 C99 1.404 1_655 S
C100 C101 1.389 . S
C101 C100 1.389 . S
C101 C102 1.399 . S
C101 H114 0.931 . S
C102 C101 1.399 . S
C102 C103 1.390 . S
C103 C98 1.392 . S
C103 C102 1.390 . S
C103 H115 0.929 . S
O104 Tb88 2.326 . S
O104 C92 1.242 . S
O105 Eu89 2.324 . S
O105 C92 1.258 . S
O106 Tb88 2.500 . S
O106 C108 1.273 . S
O107 Tb88 2.473 . S
O107 C108 1.257 . S
C108 O106 1.273 . S
C108 O107 1.257 . S
O109 Eu89 2.326 . S
O109 C97 1.242 . S
O110 Tb88 2.324 . S
O110 C97 1.258 . S
O111 Eu89 2.476 1_655 S
O111 C94 1.266 1_655 S
O112 Eu89 2.473 . S
O112 C94 1.257 . S
H113 C99 0.929 . S
H114 C101 0.931 . S
H115 C103 0.929 . S
O116 Tb117 2.292 . S
O116 C119 1.255 . S
Tb117 O116 2.292 . S
Tb117 O133 2.326 . S
Tb117 O135 2.500 . S
Tb117 O136 2.473 . S
Tb117 O139 2.324 . S
Eu118 O122 2.292 . S
Eu118 C123 2.852 . S
Eu118 O134 2.324 . S
Eu118 O138 2.326 . S
Eu118 O140 2.500 . S
Eu118 O141 2.473 . S
C119 O116 1.255 . S
C119 O120 1.247 . S
O120 C119 1.247 . S
C121 O133 1.242 . S
C121 O134 1.258 . S
O122 Eu118 2.292 . S
O122 C124 1.255 . S
C123 Eu118 2.852 . S
C123 C127 1.503 . S
C123 O140 1.273 . S
C123 O141 1.257 . S
C124 O122 1.255 . S
C124 O125 1.247 . S
O125 C124 1.247 . S
C126 O138 1.242 . S
C126 O139 1.258 . S
C127 C123 1.503 . S
C127 C128 1.379 . S
C127 C132 1.392 . S
C128 C127 1.379 . S
C128 C129 1.404 . S
C128 H142 0.929 . S
C129 C128 1.404 . S
C129 C130 1.389 . S
C130 C129 1.389 . S
C130 C131 1.399 . S
C130 H143 0.931 . S
C131 C130 1.399 . S
C131 C132 1.390 . S
C132 C127 1.392 . S
C132 C131 1.390 . S
C132 H144 0.929 . S
O133 Tb117 2.326 . S
O133 C121 1.242 . S
O134 Eu118 2.324 . S
O134 C121 1.258 . S
O135 Tb117 2.500 . S
O135 C137 1.273 . S
O136 Tb117 2.473 . S
O136 C137 1.257 . S
C137 O135 1.273 . S
C137 O136 1.257 . S
O138 Eu118 2.326 . S
O138 C126 1.242 . S
O139 Tb117 2.324 . S
O139 C126 1.258 . S
O140 Eu118 2.500 . S
O140 C123 1.273 . S
O141 Eu118 2.473 . S
O141 C123 1.257 . S
H142 C128 0.929 . S
H143 C130 0.931 . S
H144 C132 0.929 . S
O145 Tb146 2.292 . S
O145 C148 1.255 . S
Tb146 O145 2.292 . S
Tb146 O162 2.326 . S
Tb146 O164 2.500 . S
Tb146 O165 2.473 . S
Tb146 O168 2.324 . S
Eu147 O151 2.292 . S
Eu147 C152 2.852 . S
Eu147 O163 2.324 . S
Eu147 O167 2.326 . S
Eu147 O169 2.500 . S
Eu147 O170 2.473 . S
C148 O145 1.255 . S
C148 O149 1.247 . S
O149 C148 1.247 . S
C150 O162 1.242 . S
C150 O163 1.258 . S
O151 Eu147 2.292 . S
O151 C153 1.255 . S
C152 Eu147 2.852 . S
C152 C156 1.503 . S
C152 O169 1.273 . S
C152 O170 1.257 . S
C153 O151 1.255 . S
C153 O154 1.247 . S
O154 C153 1.247 . S
C155 O167 1.242 . S
C155 O168 1.258 . S
C156 C152 1.503 . S
C156 C157 1.379 . S
C156 C161 1.392 . S
C157 C156 1.379 . S
C157 C158 1.404 . S
C157 H171 0.929 . S
C158 C157 1.404 . S
C158 C159 1.389 . S
C159 C158 1.389 . S
C159 C160 1.399 . S
C159 H172 0.931 . S
C160 C159 1.399 . S
C160 C161 1.390 . S
C161 C156 1.392 . S
C161 C160 1.390 . S
C161 H173 0.929 . S
O162 Tb146 2.326 . S
O162 C150 1.242 . S
O163 Eu147 2.324 . S
O163 C150 1.258 . S
O164 Tb146 2.500 . S
O164 C166 1.273 . S
O165 Tb146 2.473 . S
O165 C166 1.257 . S
C166 O164 1.273 . S
C166 O165 1.257 . S
O167 Eu147 2.326 . S
O167 C155 1.242 . S
O168 Tb146 2.324 . S
O168 C155 1.258 . S
O169 Eu147 2.500 . S
O169 C152 1.273 . S
O170 Eu147 2.473 . S
O170 C152 1.257 . S
H171 C157 0.929 . S
H172 C159 0.931 . S
H173 C161 0.929 . S
O174 Tb175 2.292 . S
O174 C177 1.255 . S
Tb175 O174 2.292 . S
Tb175 O191 2.326 . S
Tb175 O193 2.500 . S
Tb175 O194 2.473 . S
Tb175 O197 2.324 . S
Eu176 O180 2.292 . S
Eu176 C181 2.852 . S
Eu176 O192 2.324 . S
Eu176 O196 2.326 . S
Eu176 O198 2.476 1_655 S
Eu176 O199 2.473 . S
C177 O174 1.255 . S
C177 O178 1.247 . S
O178 C177 1.247 . S
C179 O191 1.242 . S
C179 O192 1.258 . S
O180 Eu176 2.292 . S
O180 C182 1.255 . S
C181 Eu176 2.852 . S
C181 C185 1.503 1_655 S
C181 O198 1.266 1_655 S
C181 O199 1.257 . S
C182 O180 1.255 . S
C182 O183 1.247 . S
O183 C182 1.247 . S
C184 O196 1.242 . S
C184 O197 1.258 . S
C185 C181 1.503 1_455 S
C185 C186 1.379 1_455 S
C185 C190 1.392 . S
C186 C185 1.379 1_655 S
C186 C187 1.404 1_655 S
C186 H200 0.929 . S
C187 C186 1.404 1_455 S
C187 C188 1.389 . S
C188 C187 1.389 . S
C188 C189 1.399 . S
C188 H201 0.931 . S
C189 C188 1.399 . S
C189 C190 1.390 . S
C190 C185 1.392 . S
C190 C189 1.390 . S
C190 H202 0.929 . S
O191 Tb175 2.326 . S
O191 C179 1.242 . S
O192 Eu176 2.324 . S
O192 C179 1.258 . S
O193 Tb175 2.500 . S
O193 C195 1.273 . S
O194 Tb175 2.473 . S
O194 C195 1.257 . S
C195 O193 1.273 . S
C195 O194 1.257 . S
O196 Eu176 2.326 . S
O196 C184 1.242 . S
O197 Tb175 2.324 . S
O197 C184 1.258 . S
O198 Eu176 2.476 1_455 S
O198 C181 1.266 1_455 S
O199 Eu176 2.473 . S
O199 C181 1.257 . S
H200 C186 0.929 . S
H201 C188 0.931 . S
H202 C190 0.929 . S
O203 Tb204 2.292 . S
O203 C206 1.255 . S
Tb204 O203 2.292 . S
Tb204 O220 2.326 . S
Tb204 O222 2.500 . S
Tb204 O223 2.473 . S
Tb204 O226 2.324 . S
Eu205 O209 2.292 . S
Eu205 C210 2.852 . S
Eu205 O221 2.324 . S
Eu205 O225 2.326 . S
Eu205 O227 2.476 1_455 S
Eu205 O228 2.473 . S
C206 O203 1.255 . S
C206 O207 1.247 . S
O207 C206 1.247 . S
C208 O220 1.242 . S
C208 O221 1.258 . S
O209 Eu205 2.292 . S
O209 C211 1.255 . S
C210 Eu205 2.852 . S
C210 C214 1.503 1_455 S
C210 O227 1.266 1_455 S
C210 O228 1.257 . S
C211 O209 1.255 . S
C211 O212 1.247 . S
O212 C211 1.247 . S
C213 O225 1.242 . S
C213 O226 1.258 . S
C214 C210 1.503 1_655 S
C214 C215 1.379 1_655 S
C214 C219 1.392 . S
C215 C214 1.379 1_455 S
C215 C216 1.404 1_455 S
C215 H229 0.929 . S
C216 C215 1.404 1_655 S
C216 C217 1.389 . S
C217 C216 1.389 . S
C217 C218 1.399 . S
C217 H230 0.931 . S
C218 C217 1.399 . S
C218 C219 1.390 . S
C219 C214 1.392 . S
C219 C218 1.390 . S
C219 H231 0.929 . S
O220 Tb204 2.326 . S
O220 C208 1.242 . S
O221 Eu205 2.324 . S
O221 C208 1.258 . S
O222 Tb204 2.500 . S
O222 C224 1.273 . S
O223 Tb204 2.473 . S
O223 C224 1.257 . S
C224 O222 1.273 . S
C224 O223 1.257 . S
O225 Eu205 2.326 . S
O225 C213 1.242 . S
O226 Tb204 2.324 . S
O226 C213 1.258 . S
O227 Eu205 2.476 1_655 S
O227 C210 1.266 1_655 S
O228 Eu205 2.473 . S
O228 C210 1.257 . S
H229 C215 0.929 . S
H230 C217 0.931 . S
H231 C219 0.929 . S
O232 Tb233 2.292 . S
O232 C235 1.255 . S
Tb233 O232 2.292 . S
Tb233 O249 2.326 . S
Tb233 O251 2.500 . S
Tb233 O252 2.473 . S
Tb233 O255 2.324 . S
Eu234 O238 2.292 . S
Eu234 C239 2.852 . S
Eu234 O250 2.324 . S
Eu234 O254 2.326 . S
Eu234 O256 2.500 . S
Eu234 O257 2.473 . S
C235 O232 1.255 . S
C235 O236 1.245 1_545 S
O236 C235 1.245 1_565 S
C237 O249 1.242 . S
C237 O250 1.258 . S
O238 Eu234 2.292 . S
O238 C240 1.255 . S
C239 Eu234 2.852 . S
C239 C243 1.503 . S
C239 O256 1.273 . S
C239 O257 1.257 . S
C240 O238 1.255 . S
C240 O241 1.247 . S
O241 C240 1.247 . S
C242 O254 1.242 . S
C242 O255 1.258 . S
C243 C239 1.503 . S
C243 C244 1.379 . S
C243 C248 1.392 . S
C244 C243 1.379 . S
C244 C245 1.404 . S
C244 H258 0.929 . S
C245 C244 1.404 . S
C245 C246 1.389 . S
C246 C245 1.389 . S
C246 C247 1.399 . S
C246 H259 0.931 . S
C247 C246 1.399 . S
C247 C248 1.390 . S
C248 C243 1.392 . S
C248 C247 1.390 . S
C248 H260 0.929 . S
O249 Tb233 2.326 . S
O249 C237 1.242 . S
O250 Eu234 2.324 . S
O250 C237 1.258 . S
O251 Tb233 2.500 . S
O251 C253 1.273 . S
O252 Tb233 2.473 . S
O252 C253 1.257 . S
C253 O251 1.273 . S
C253 O252 1.257 . S
O254 Eu234 2.326 . S
O254 C242 1.242 . S
O255 Tb233 2.324 . S
O255 C242 1.258 . S
O256 Eu234 2.500 . S
O256 C239 1.273 . S
O257 Eu234 2.473 . S
O257 C239 1.257 . S
H258 C244 0.929 . S
H259 C246 0.931 . S
H260 C248 0.929 . S
O261 Tb262 2.292 . S
O261 C264 1.255 . S
Tb262 O261 2.292 . S
Tb262 O278 2.326 . S
Tb262 O280 2.500 . S
Tb262 O281 2.473 . S
Tb262 O284 2.324 . S
Eu263 O267 2.292 . S
Eu263 C268 2.852 . S
Eu263 O279 2.324 . S
Eu263 O283 2.326 . S
Eu263 O285 2.500 . S
Eu263 O286 2.473 . S
C264 O261 1.255 . S
C264 O265 1.245 1_565 S
O265 C264 1.245 1_545 S
C266 O278 1.242 . S
C266 O279 1.258 . S
O267 Eu263 2.292 . S
O267 C269 1.255 . S
C268 Eu263 2.852 . S
C268 C272 1.503 . S
C268 O285 1.273 . S
C268 O286 1.257 . S
C269 O267 1.255 . S
C269 O270 1.247 . S
O270 C269 1.247 . S
C271 O283 1.242 . S
C271 O284 1.258 . S
C272 C268 1.503 . S
C272 C273 1.379 . S
C272 C277 1.392 . S
C273 C272 1.379 . S
C273 C274 1.404 . S
C273 H287 0.929 . S
C274 C273 1.404 . S
C274 C275 1.389 . S
C275 C274 1.389 . S
C275 C276 1.399 . S
C275 H288 0.931 . S
C276 C275 1.399 . S
C276 C277 1.390 . S
C277 C272 1.392 . S
C277 C276 1.390 . S
C277 H289 0.929 . S
O278 Tb262 2.326 . S
O278 C266 1.242 . S
O279 Eu263 2.324 . S
O279 C266 1.258 . S
O280 Tb262 2.500 . S
O280 C282 1.273 . S
O281 Tb262 2.473 . S
O281 C282 1.257 . S
C282 O280 1.273 . S
C282 O281 1.257 . S
O283 Eu263 2.326 . S
O283 C271 1.242 . S
O284 Tb262 2.324 . S
O284 C271 1.258 . S
O285 Eu263 2.500 . S
O285 C268 1.273 . S
O286 Eu263 2.473 . S
O286 C268 1.257 . S
H287 C273 0.929 . S
H288 C275 0.931 . S
H289 C277 0.929 . S
O290 Tb291 2.292 . S
O290 C293 1.255 . S
Tb291 O290 2.292 . S
Tb291 O307 2.326 . S
Tb291 O309 2.500 . S
Tb291 O310 2.473 . S
Tb291 O313 2.324 . S
Eu292 O296 2.292 . S
Eu292 C297 2.852 . S
Eu292 O308 2.324 . S
Eu292 O312 2.326 . S
Eu292 O314 2.500 . S
Eu292 O315 2.473 . S
C293 O290 1.255 . S
C293 O294 1.247 . S
O294 C293 1.247 . S
C295 O307 1.242 . S
C295 O308 1.258 . S
O296 Eu292 2.292 . S
O296 C298 1.255 . S
C297 Eu292 2.852 . S
C297 C301 1.503 . S
C297 O314 1.273 . S
C297 O315 1.257 . S
C298 O296 1.255 . S
C298 O299 1.247 . S
O299 C298 1.247 . S
C300 O312 1.242 . S
C300 O313 1.258 . S
C301 C297 1.503 . S
C301 C302 1.379 . S
C301 C306 1.392 . S
C302 C301 1.379 . S
C302 C303 1.404 . S
C302 H316 0.929 . S
C303 C302 1.404 . S
C303 C304 1.389 . S
C304 C303 1.389 . S
C304 C305 1.399 . S
C304 H317 0.931 . S
C305 C304 1.399 . S
C305 C306 1.390 . S
C306 C301 1.392 . S
C306 C305 1.390 . S
C306 H318 0.929 . S
O307 Tb291 2.326 . S
O307 C295 1.242 . S
O308 Eu292 2.324 . S
O308 C295 1.258 . S
O309 Tb291 2.500 . S
O309 C311 1.273 . S
O310 Tb291 2.473 . S
O310 C311 1.257 . S
C311 O309 1.273 . S
C311 O310 1.257 . S
O312 Eu292 2.326 . S
O312 C300 1.242 . S
O313 Tb291 2.324 . S
O313 C300 1.258 . S
O314 Eu292 2.500 . S
O314 C297 1.273 . S
O315 Eu292 2.473 . S
O315 C297 1.257 . S
H316 C302 0.929 . S
H317 C304 0.931 . S
H318 C306 0.929 . S
O319 Tb320 2.292 . S
O319 C322 1.255 . S
Tb320 O319 2.292 . S
Tb320 O336 2.326 . S
Tb320 O338 2.500 . S
Tb320 O339 2.473 . S
Tb320 O342 2.324 . S
Eu321 O325 2.292 . S
Eu321 C326 2.852 . S
Eu321 O337 2.324 . S
Eu321 O341 2.326 . S
Eu321 O343 2.500 . S
Eu321 O344 2.473 . S
C322 O319 1.255 . S
C322 O323 1.247 . S
O323 C322 1.247 . S
C324 O336 1.242 . S
C324 O337 1.258 . S
O325 Eu321 2.292 . S
O325 C327 1.255 . S
C326 Eu321 2.852 . S
C326 C330 1.503 . S
C326 O343 1.273 . S
C326 O344 1.257 . S
C327 O325 1.255 . S
C327 O328 1.247 . S
O328 C327 1.247 . S
C329 O341 1.242 . S
C329 O342 1.258 . S
C330 C326 1.503 . S
C330 C331 1.379 . S
C330 C335 1.392 . S
C331 C330 1.379 . S
C331 C332 1.404 . S
C331 H345 0.929 . S
C332 C331 1.404 . S
C332 C333 1.389 . S
C333 C332 1.389 . S
C333 C334 1.399 . S
C333 H346 0.931 . S
C334 C333 1.399 . S
C334 C335 1.390 . S
C335 C330 1.392 . S
C335 C334 1.390 . S
C335 H347 0.929 . S
O336 Tb320 2.326 . S
O336 C324 1.242 . S
O337 Eu321 2.324 . S
O337 C324 1.258 . S
O338 Tb320 2.500 . S
O338 C340 1.273 . S
O339 Tb320 2.473 . S
O339 C340 1.257 . S
C340 O338 1.273 . S
C340 O339 1.257 . S
O341 Eu321 2.326 . S
O341 C329 1.242 . S
O342 Tb320 2.324 . S
O342 C329 1.258 . S
O343 Eu321 2.500 . S
O343 C326 1.273 . S
O344 Eu321 2.473 . S
O344 C326 1.257 . S
H345 C331 0.929 . S
H346 C333 0.931 . S
H347 C335 0.929 . S
O348 Tb349 2.292 . S
O348 C351 1.255 . S
Tb349 O348 2.292 . S
Tb349 O365 2.326 . S
Tb349 O367 2.500 . S
Tb349 O368 2.473 . S
Tb349 O371 2.324 1_554 S
Eu350 O354 2.292 . S
Eu350 C355 2.852 1_554 S
Eu350 O366 2.324 . S
Eu350 O370 2.326 1_554 S
Eu350 O372 2.500 1_554 S
Eu350 O373 2.473 . S
C351 O348 1.255 . S
C351 O352 1.247 . S
O352 C351 1.247 . S
C353 O365 1.242 . S
C353 O366 1.258 . S
O354 Eu350 2.292 . S
O354 C356 1.255 . S
C355 Eu350 2.852 1_556 S
C355 C359 1.503 . S
C355 O372 1.273 . S
C355 O373 1.257 1_556 S
C356 O354 1.255 . S
C356 O357 1.247 . S
O357 C356 1.247 . S
C358 O370 1.242 . S
C358 O371 1.258 . S
C359 C355 1.503 . S
C359 C360 1.379 . S
C359 C364 1.392 . S
C360 C359 1.379 . S
C360 C361 1.404 . S
C360 H374 0.929 . S
C361 C360 1.404 . S
C361 C362 1.389 . S
C362 C361 1.389 . S
C362 C363 1.399 . S
C362 H375 0.931 . S
C363 C362 1.399 . S
C363 C364 1.390 . S
C364 C359 1.392 . S
C364 C363 1.390 . S
C364 H376 0.929 . S
O365 Tb349 2.326 . S
O365 C353 1.242 . S
O366 Eu350 2.324 . S
O366 C353 1.258 . S
O367 Tb349 2.500 . S
O367 C369 1.273 . S
O368 Tb349 2.473 . S
O368 C369 1.257 . S
C369 O367 1.273 . S
C369 O368 1.257 . S
O370 Eu350 2.326 1_556 S
O370 C358 1.242 . S
O371 Tb349 2.324 1_556 S
O371 C358 1.258 . S
O372 Eu350 2.500 1_556 S
O372 C355 1.273 . S
O373 Eu350 2.473 . S
O373 C355 1.257 1_554 S
H374 C360 0.929 . S
H375 C362 0.931 . S
H376 C364 0.929 . S
O377 Tb378 2.292 . S
O377 C380 1.255 . S
Tb378 O377 2.292 . S
Tb378 O394 2.326 . S
Tb378 O396 2.500 . S
Tb378 O397 2.473 . S
Tb378 O400 2.324 1_554 S
Eu379 O383 2.292 . S
Eu379 C384 2.852 1_554 S
Eu379 O395 2.324 . S
Eu379 O399 2.326 1_554 S
Eu379 O401 2.500 1_554 S
Eu379 O402 2.473 . S
C380 O377 1.255 . S
C380 O381 1.247 . S
O381 C380 1.247 . S
C382 O394 1.242 . S
C382 O395 1.258 . S
O383 Eu379 2.292 . S
O383 C385 1.255 . S
C384 Eu379 2.852 1_556 S
C384 C388 1.503 . S
C384 O401 1.273 . S
C384 O402 1.257 1_556 S
C385 O383 1.255 . S
C385 O386 1.247 . S
O386 C385 1.247 . S
C387 O399 1.242 . S
C387 O400 1.258 . S
C388 C384 1.503 . S
C388 C389 1.379 . S
C388 C393 1.392 . S
C389 C388 1.379 . S
C389 C390 1.404 . S
C389 H403 0.929 . S
C390 C389 1.404 . S
C390 C391 1.389 . S
C391 C390 1.389 . S
C391 C392 1.399 . S
C391 H404 0.931 . S
C392 C391 1.399 . S
C392 C393 1.390 . S
C393 C388 1.392 . S
C393 C392 1.390 . S
C393 H405 0.929 . S
O394 Tb378 2.326 . S
O394 C382 1.242 . S
O395 Eu379 2.324 . S
O395 C382 1.258 . S
O396 Tb378 2.500 . S
O396 C398 1.273 . S
O397 Tb378 2.473 . S
O397 C398 1.257 . S
C398 O396 1.273 . S
C398 O397 1.257 . S
O399 Eu379 2.326 1_556 S
O399 C387 1.242 . S
O400 Tb378 2.324 1_556 S
O400 C387 1.258 . S
O401 Eu379 2.500 1_556 S
O401 C384 1.273 . S
O402 Eu379 2.473 . S
O402 C384 1.257 1_554 S
H403 C389 0.929 . S
H404 C391 0.931 . S
H405 C393 0.929 . S
O406 Tb407 2.292 . S
O406 C409 1.255 . S
Tb407 O406 2.292 . S
Tb407 O423 2.326 . S
Tb407 O425 2.500 . S
Tb407 O426 2.473 . S
Tb407 O429 2.324 . S
Eu408 O412 2.292 . S
Eu408 C413 2.852 . S
Eu408 O424 2.324 . S
Eu408 O428 2.326 . S
Eu408 O430 2.500 . S
Eu408 O431 2.473 . S
C409 O406 1.255 . S
C409 O410 1.247 . S
O410 C409 1.247 . S
C411 O423 1.242 . S
C411 O424 1.258 . S
O412 Eu408 2.292 . S
O412 C414 1.255 . S
C413 Eu408 2.852 . S
C413 C417 1.503 . S
C413 O430 1.273 . S
C413 O431 1.257 . S
C414 O412 1.255 . S
C414 O415 1.247 . S
O415 C414 1.247 . S
C416 O428 1.242 . S
C416 O429 1.258 . S
C417 C413 1.503 . S
C417 C418 1.379 . S
C417 C422 1.392 . S
C418 C417 1.379 . S
C418 C419 1.404 . S
C418 H432 0.929 . S
C419 C418 1.404 . S
C419 C420 1.389 . S
C420 C419 1.389 . S
C420 C421 1.399 . S
C420 H433 0.931 . S
C421 C420 1.399 . S
C421 C422 1.390 . S
C422 C417 1.392 . S
C422 C421 1.390 . S
C422 H434 0.929 . S
O423 Tb407 2.326 . S
O423 C411 1.242 . S
O424 Eu408 2.324 . S
O424 C411 1.258 . S
O425 Tb407 2.500 . S
O425 C427 1.273 . S
O426 Tb407 2.473 . S
O426 C427 1.257 . S
C427 O425 1.273 . S
C427 O426 1.257 . S
O428 Eu408 2.326 . S
O428 C416 1.242 . S
O429 Tb407 2.324 . S
O429 C416 1.258 . S
O430 Eu408 2.500 . S
O430 C413 1.273 . S
O431 Eu408 2.473 . S
O431 C413 1.257 . S
H432 C418 0.929 . S
H433 C420 0.931 . S
H434 C422 0.929 . S
O435 Tb436 2.292 . S
O435 C438 1.255 . S
Tb436 O435 2.292 . S
Tb436 O452 2.326 . S
Tb436 O454 2.500 . S
Tb436 O455 2.473 . S
Tb436 O458 2.324 . S
Eu437 O441 2.292 . S
Eu437 C442 2.852 . S
Eu437 O453 2.324 . S
Eu437 O457 2.326 . S
Eu437 O459 2.500 . S
Eu437 O460 2.473 . S
C438 O435 1.255 . S
C438 O439 1.247 . S
O439 C438 1.247 . S
C440 O452 1.242 . S
C440 O453 1.258 . S
O441 Eu437 2.292 . S
O441 C443 1.255 . S
C442 Eu437 2.852 . S
C442 C446 1.503 . S
C442 O459 1.273 . S
C442 O460 1.257 . S
C443 O441 1.255 . S
C443 O444 1.247 . S
O444 C443 1.247 . S
C445 O457 1.242 . S
C445 O458 1.258 . S
C446 C442 1.503 . S
C446 C447 1.379 . S
C446 C451 1.392 . S
C447 C446 1.379 . S
C447 C448 1.404 . S
C447 H461 0.929 . S
C448 C447 1.404 . S
C448 C449 1.389 . S
C449 C448 1.389 . S
C449 C450 1.399 . S
C449 H462 0.931 . S
C450 C449 1.399 . S
C450 C451 1.390 . S
C451 C446 1.392 . S
C451 C450 1.390 . S
C451 H463 0.929 . S
O452 Tb436 2.326 . S
O452 C440 1.242 . S
O453 Eu437 2.324 . S
O453 C440 1.258 . S
O454 Tb436 2.500 . S
O454 C456 1.273 . S
O455 Tb436 2.473 . S
O455 C456 1.257 . S
C456 O454 1.273 . S
C456 O455 1.257 . S
O457 Eu437 2.326 . S
O457 C445 1.242 . S
O458 Tb436 2.324 . S
O458 C445 1.258 . S
O459 Eu437 2.500 . S
O459 C442 1.273 . S
O460 Eu437 2.473 . S
O460 C442 1.257 . S
H461 C447 0.929 . S
H462 C449 0.931 . S
H463 C451 0.929 . S
H464 C476 0.930 . S
H465 C478 0.930 . S
H466 C479 0.930 . S
H467 C483 0.959 . S
H468 C483 0.959 . S
H469 C483 0.961 . S
H470 C484 0.960 . S
H471 C484 0.961 . S
H472 C484 0.959 . S
H473 C487 0.929 . S
H474 C488 0.931 . S
H475 C490 0.930 . S
C476 H464 0.930 . S
C476 C477 1.399 . S
C476 C481 1.399 . S
C477 C476 1.399 . S
C477 C478 1.376 . S
C478 H465 0.930 . S
C478 C477 1.376 . S
C478 C479 1.388 . S
C479 H466 0.930 . S
C479 C478 1.388 . S
C479 C480 1.390 . S
C480 C479 1.390 . S
C480 C481 1.394 . S
C480 C486 1.465 . S
C481 C476 1.399 . S
C481 C480 1.394 . S
C481 C482 1.516 . S
C482 C481 1.516 . S
C482 C483 1.502 . S
C482 C484 1.561 . S
C482 C485 1.526 . S
C483 H467 0.959 . S
C483 H468 0.959 . S
C483 H469 0.961 . S
C483 C482 1.502 . S
C484 H470 0.960 . S
C484 H471 0.961 . S
C484 H472 0.959 . S
C484 C482 1.561 . S
C485 C482 1.526 . S
C485 C486 1.396 . S
C485 C490 1.390 . S
C486 C480 1.465 . S
C486 C485 1.396 . S
C486 C487 1.399 . S
C487 H473 0.929 . S
C487 C486 1.399 . S
C487 C488 1.385 . S
C488 H474 0.931 . S
C488 C487 1.385 . S
C488 C489 1.389 . S
C489 C488 1.389 . S
C489 C490 1.387 . S
C490 H475 0.930 . S
C490 C485 1.390 . S
C490 C489 1.387 . S
H491 C503 0.930 . S
H492 C505 0.930 . S
H493 C506 0.930 . S
H494 C510 0.959 . S
H495 C510 0.959 . S
H496 C510 0.961 . S
H497 C511 0.960 . S
H498 C511 0.961 . S
H499 C511 0.959 . S
H500 C514 0.929 . S
H501 C515 0.931 . S
H502 C517 0.930 . S
C503 H491 0.930 . S
C503 C504 1.399 . S
C503 C508 1.399 . S
C504 C503 1.399 . S
C504 C505 1.376 . S
C505 H492 0.930 . S
C505 C504 1.376 . S
C505 C506 1.388 . S
C506 H493 0.930 . S
C506 C505 1.388 . S
C506 C507 1.390 . S
C507 C506 1.390 . S
C507 C508 1.394 . S
C507 C513 1.465 . S
C508 C503 1.399 . S
C508 C507 1.394 . S
C508 C509 1.516 . S
C509 C508 1.516 . S
C509 C510 1.502 . S
C509 C511 1.561 . S
C509 C512 1.526 . S
C510 H494 0.959 . S
C510 H495 0.959 . S
C510 H496 0.961 . S
C510 C509 1.502 . S
C511 H497 0.960 . S
C511 H498 0.961 . S
C511 H499 0.959 . S
C511 C509 1.561 . S
C512 C509 1.526 . S
C512 C513 1.396 . S
C512 C517 1.390 . S
C513 C507 1.465 . S
C513 C512 1.396 . S
C513 C514 1.399 . S
C514 H500 0.929 . S
C514 C513 1.399 . S
C514 C515 1.385 . S
C515 H501 0.931 . S
C515 C514 1.385 . S
C515 C516 1.389 . S
C516 C515 1.389 . S
C516 C517 1.387 . S
C517 H502 0.930 . S
C517 C512 1.390 . S
C517 C516 1.387 . S
H518 C530 0.930 . S
H519 C532 0.930 . S
H520 C533 0.930 . S
H521 C537 0.959 . S
H522 C537 0.959 . S
H523 C537 0.961 . S
H524 C538 0.960 . S
H525 C538 0.961 . S
H526 C538 0.959 . S
H527 C541 0.929 . S
H528 C542 0.931 . S
H529 C544 0.930 . S
C530 H518 0.930 . S
C530 C531 1.399 . S
C530 C535 1.399 . S
C531 C530 1.399 . S
C531 C532 1.376 . S
C532 H519 0.930 . S
C532 C531 1.376 . S
C532 C533 1.388 . S
C533 H520 0.930 . S
C533 C532 1.388 . S
C533 C534 1.390 . S
C534 C533 1.390 . S
C534 C535 1.394 . S
C534 C540 1.465 . S
C535 C530 1.399 . S
C535 C534 1.394 . S
C535 C536 1.516 . S
C536 C535 1.516 . S
C536 C537 1.502 . S
C536 C538 1.561 . S
C536 C539 1.526 . S
C537 H521 0.959 . S
C537 H522 0.959 . S
C537 H523 0.961 . S
C537 C536 1.502 . S
C538 H524 0.960 . S
C538 H525 0.961 . S
C538 H526 0.959 . S
C538 C536 1.561 . S
C539 C536 1.526 . S
C539 C540 1.396 . S
C539 C544 1.390 . S
C540 C534 1.465 . S
C540 C539 1.396 . S
C540 C541 1.399 . S
C541 H527 0.929 . S
C541 C540 1.399 . S
C541 C542 1.385 . S
C542 H528 0.931 . S
C542 C541 1.385 . S
C542 C543 1.389 . S
C543 C542 1.389 . S
C543 C544 1.387 . S
C544 H529 0.930 . S
C544 C539 1.390 . S
C544 C543 1.387 . S
H545 C557 0.930 . S
H546 C559 0.930 . S
H547 C560 0.930 . S
H548 C564 0.959 . S
H549 C564 0.959 . S
H550 C564 0.961 . S
H551 C565 0.960 . S
H552 C565 0.961 . S
H553 C565 0.959 . S
H554 C568 0.929 . S
H555 C569 0.931 . S
H556 C571 0.930 . S
C557 H545 0.930 . S
C557 C558 1.399 . S
C557 C562 1.399 . S
C558 C557 1.399 . S
C558 C559 1.376 . S
C559 H546 0.930 . S
C559 C558 1.376 . S
C559 C560 1.388 . S
C560 H547 0.930 . S
C560 C559 1.388 . S
C560 C561 1.390 . S
C561 C560 1.390 . S
C561 C562 1.394 . S
C561 C567 1.465 . S
C562 C557 1.399 . S
C562 C561 1.394 . S
C562 C563 1.516 . S
C563 C562 1.516 . S
C563 C564 1.502 . S
C563 C565 1.561 . S
C563 C566 1.526 . S
C564 H548 0.959 . S
C564 H549 0.959 . S
C564 H550 0.961 . S
C564 C563 1.502 . S
C565 H551 0.960 . S
C565 H552 0.961 . S
C565 H553 0.959 . S
C565 C563 1.561 . S
C566 C563 1.526 . S
C566 C567 1.396 . S
C566 C571 1.390 . S
C567 C561 1.465 . S
C567 C566 1.396 . S
C567 C568 1.399 . S
C568 H554 0.929 . S
C568 C567 1.399 . S
C568 C569 1.385 . S
C569 H555 0.931 . S
C569 C568 1.385 . S
C569 C570 1.389 . S
C570 C569 1.389 . S
C570 C571 1.387 . S
C571 H556 0.930 . S
C571 C566 1.390 . S
C571 C570 1.387 . S
H572 C584 0.930 . S
H573 C586 0.930 . S
H574 C587 0.930 . S
H575 C591 0.959 . S
H576 C591 0.959 . S
H577 C591 0.961 . S
H578 C592 0.960 . S
H579 C592 0.961 . S
H580 C592 0.959 . S
H581 C595 0.929 . S
H582 C596 0.931 . S
H583 C598 0.930 . S
C584 H572 0.930 . S
C584 C585 1.399 . S
C584 C589 1.399 . S
C585 C584 1.399 . S
C585 C586 1.376 . S
C586 H573 0.930 . S
C586 C585 1.376 . S
C586 C587 1.388 . S
C587 H574 0.930 . S
C587 C586 1.388 . S
C587 C588 1.390 . S
C588 C587 1.390 . S
C588 C589 1.394 . S
C588 C594 1.465 . S
C589 C584 1.399 . S
C589 C588 1.394 . S
C589 C590 1.516 . S
C590 C589 1.516 . S
C590 C591 1.502 . S
C590 C592 1.561 . S
C590 C593 1.526 . S
C591 H575 0.959 . S
C591 H576 0.959 . S
C591 H577 0.961 . S
C591 C590 1.502 . S
C592 H578 0.960 . S
C592 H579 0.961 . S
C592 H580 0.959 . S
C592 C590 1.561 . S
C593 C590 1.526 . S
C593 C594 1.396 . S
C593 C598 1.390 . S
C594 C588 1.465 . S
C594 C593 1.396 . S
C594 C595 1.399 . S
C595 H581 0.929 . S
C595 C594 1.399 . S
C595 C596 1.385 . S
C596 H582 0.931 . S
C596 C595 1.385 . S
C596 C597 1.389 . S
C597 C596 1.389 . S
C597 C598 1.387 . S
C598 H583 0.930 . S
C598 C593 1.390 . S
C598 C597 1.387 . S
H599 C611 0.930 . S
H600 C613 0.930 . S
H601 C614 0.930 . S
H602 C618 0.959 . S
H603 C618 0.959 . S
H604 C618 0.961 . S
H605 C619 0.960 . S
H606 C619 0.961 . S
H607 C619 0.959 . S
H608 C622 0.929 . S
H609 C623 0.931 . S
H610 C625 0.930 . S
C611 H599 0.930 . S
C611 C612 1.399 . S
C611 C616 1.399 . S
C612 C611 1.399 . S
C612 C613 1.376 . S
C613 H600 0.930 . S
C613 C612 1.376 . S
C613 C614 1.388 . S
C614 H601 0.930 . S
C614 C613 1.388 . S
C614 C615 1.390 . S
C615 C614 1.390 . S
C615 C616 1.394 . S
C615 C621 1.465 . S
C616 C611 1.399 . S
C616 C615 1.394 . S
C616 C617 1.516 . S
C617 C616 1.516 . S
C617 C618 1.502 . S
C617 C619 1.561 . S
C617 C620 1.526 . S
C618 H602 0.959 . S
C618 H603 0.959 . S
C618 H604 0.961 . S
C618 C617 1.502 . S
C619 H605 0.960 . S
C619 H606 0.961 . S
C619 H607 0.959 . S
C619 C617 1.561 . S
C620 C617 1.526 . S
C620 C621 1.396 . S
C620 C625 1.390 . S
C621 C615 1.465 . S
C621 C620 1.396 . S
C621 C622 1.399 . S
C622 H608 0.929 . S
C622 C621 1.399 . S
C622 C623 1.385 . S
C623 H609 0.931 . S
C623 C622 1.385 . S
C623 C624 1.389 . S
C624 C623 1.389 . S
C624 C625 1.387 . S
C625 H610 0.930 . S
C625 C620 1.390 . S
C625 C624 1.387 . S
H626 C638 0.930 . S
H627 C640 0.930 . S
H628 C641 0.930 . S
H629 C645 0.959 . S
H630 C645 0.959 . S
H631 C645 0.961 . S
H632 C646 0.960 . S
H633 C646 0.961 . S
H634 C646 0.959 . S
H635 C649 0.929 . S
H636 C650 0.931 . S
H637 C652 0.930 . S
C638 H626 0.930 . S
C638 C639 1.399 . S
C638 C643 1.399 . S
C639 C638 1.399 . S
C639 C640 1.376 . S
C640 H627 0.930 . S
C640 C639 1.376 . S
C640 C641 1.388 . S
C641 H628 0.930 . S
C641 C640 1.388 . S
C641 C642 1.390 . S
C642 C641 1.390 . S
C642 C643 1.394 . S
C642 C648 1.465 . S
C643 C638 1.399 . S
C643 C642 1.394 . S
C643 C644 1.516 . S
C644 C643 1.516 . S
C644 C645 1.502 . S
C644 C646 1.561 . S
C644 C647 1.526 . S
C645 H629 0.959 . S
C645 H630 0.959 . S
C645 H631 0.961 . S
C645 C644 1.502 . S
C646 H632 0.960 . S
C646 H633 0.961 . S
C646 H634 0.959 . S
C646 C644 1.561 . S
C647 C644 1.526 . S
C647 C648 1.396 . S
C647 C652 1.390 . S
C648 C642 1.465 . S
C648 C647 1.396 . S
C648 C649 1.399 . S
C649 H635 0.929 . S
C649 C648 1.399 . S
C649 C650 1.385 . S
C650 H636 0.931 . S
C650 C649 1.385 . S
C650 C651 1.389 . S
C651 C650 1.389 . S
C651 C652 1.387 . S
C652 H637 0.930 . S
C652 C647 1.390 . S
C652 C651 1.387 . S
H653 C665 0.930 . S
H654 C667 0.930 . S
H655 C668 0.930 . S
H656 C672 0.959 . S
H657 C672 0.959 . S
H658 C672 0.961 . S
H659 C673 0.960 . S
H660 C673 0.961 . S
H661 C673 0.959 . S
H662 C676 0.929 . S
H663 C677 0.931 . S
H664 C679 0.930 . S
C665 H653 0.930 . S
C665 C666 1.399 . S
C665 C670 1.399 . S
C666 C665 1.399 . S
C666 C667 1.376 . S
C667 H654 0.930 . S
C667 C666 1.376 . S
C667 C668 1.388 . S
C668 H655 0.930 . S
C668 C667 1.388 . S
C668 C669 1.390 . S
C669 C668 1.390 . S
C669 C670 1.394 . S
C669 C675 1.465 . S
C670 C665 1.399 . S
C670 C669 1.394 . S
C670 C671 1.516 . S
C671 C670 1.516 . S
C671 C672 1.502 . S
C671 C673 1.561 . S
C671 C674 1.526 . S
C672 H656 0.959 . S
C672 H657 0.959 . S
C672 H658 0.961 . S
C672 C671 1.502 . S
C673 H659 0.960 . S
C673 H660 0.961 . S
C673 H661 0.959 . S
C673 C671 1.561 . S
C674 C671 1.526 . S
C674 C675 1.396 . S
C674 C679 1.390 . S
C675 C669 1.465 . S
C675 C674 1.396 . S
C675 C676 1.399 . S
C676 H662 0.929 . S
C676 C675 1.399 . S
C676 C677 1.385 . S
C677 H663 0.931 . S
C677 C676 1.385 . S
C677 C678 1.389 . S
C678 C677 1.389 . S
C678 C679 1.387 . S
C679 H664 0.930 . S
C679 C674 1.390 . S
C679 C678 1.387 . S
H680 C692 0.930 . S
H681 C694 0.953 . S
H682 C695 0.930 . S
H683 C699 0.959 . S
H684 C699 0.959 . S
H685 C699 0.961 . S
H686 C700 0.960 . S
H687 C700 0.961 . S
H688 C700 0.959 . S
H689 C703 0.929 . S
H690 C704 0.931 . S
H691 C706 0.930 . S
C692 H680 0.930 . S
C692 C693 1.399 . S
C692 C697 1.399 . S
C693 C692 1.399 . S
C693 C694 1.376 . S
C694 H681 0.953 . S
C694 C693 1.376 . S
C694 C695 1.388 . S
C695 H682 0.930 . S
C695 C694 1.388 . S
C695 C696 1.390 . S
C696 C695 1.390 . S
C696 C697 1.394 . S
C696 C702 1.465 . S
C697 C692 1.399 . S
C697 C696 1.394 . S
C697 C698 1.516 . S
C698 C697 1.516 . S
C698 C699 1.502 . S
C698 C700 1.561 . S
C698 C701 1.526 . S
C699 H683 0.959 . S
C699 H684 0.959 . S
C699 H685 0.961 . S
C699 C698 1.502 . S
C700 H686 0.960 . S
C700 H687 0.961 . S
C700 H688 0.959 . S
C700 C698 1.561 . S
C701 C698 1.526 . S
C701 C702 1.396 . S
C701 C706 1.390 . S
C702 C696 1.465 . S
C702 C701 1.396 . S
C702 C703 1.399 . S
C703 H689 0.929 . S
C703 C702 1.399 . S
C703 C704 1.385 . S
C704 H690 0.931 . S
C704 C703 1.385 . S
C704 C705 1.389 . S
C705 C704 1.389 . S
C705 C706 1.387 . S
C706 H691 0.930 . S
C706 C701 1.390 . S
C706 C705 1.387 . S
H707 C719 0.930 . S
H708 C721 0.930 . S
H709 C722 0.930 . S
H710 C726 0.959 . S
H711 C726 0.959 . S
H712 C726 0.961 . S
H713 C727 0.960 . S
H714 C727 0.961 . S
H715 C727 0.959 . S
H716 C730 0.929 . S
H717 C731 0.931 . S
H718 C733 0.930 . S
C719 H707 0.930 . S
C719 C720 1.399 . S
C719 C724 1.399 . S
C720 C719 1.399 . S
C720 C721 1.376 . S
C721 H708 0.930 . S
C721 C720 1.376 . S
C721 C722 1.388 . S
C722 H709 0.930 . S
C722 C721 1.388 . S
C722 C723 1.390 . S
C723 C722 1.390 . S
C723 C724 1.394 . S
C723 C729 1.465 . S
C724 C719 1.399 . S
C724 C723 1.394 . S
C724 C725 1.516 . S
C725 C724 1.516 . S
C725 C726 1.502 . S
C725 C727 1.561 . S
C725 C728 1.526 . S
C726 H710 0.959 . S
C726 H711 0.959 . S
C726 H712 0.961 . S
C726 C725 1.502 . S
C727 H713 0.960 . S
C727 H714 0.961 . S
C727 H715 0.959 . S
C727 C725 1.561 . S
C728 C725 1.526 . S
C728 C729 1.396 . S
C728 C733 1.390 . S
C729 C723 1.465 . S
C729 C728 1.396 . S
C729 C730 1.399 . S
C730 H716 0.929 . S
C730 C729 1.399 . S
C730 C731 1.385 . S
C731 H717 0.931 . S
C731 C730 1.385 . S
C731 C732 1.389 . S
C732 C731 1.389 . S
C732 C733 1.387 . S
C733 H718 0.930 . S
C733 C728 1.390 . S
C733 C732 1.387 . S
H734 C746 0.930 . S
H735 C748 0.930 . S
H736 C749 0.930 . S
H737 C753 0.959 . S
H738 C753 0.959 . S
H739 C753 0.961 . S
H740 C754 0.960 . S
H741 C754 0.961 . S
H742 C754 0.959 . S
H743 C757 0.929 . S
H744 C758 0.931 . S
H745 C760 0.930 . S
C746 H734 0.930 . S
C746 C747 1.399 . S
C746 C751 1.399 . S
C747 C746 1.399 . S
C747 C748 1.376 . S
C748 H735 0.930 . S
C748 C747 1.376 . S
C748 C749 1.388 . S
C749 H736 0.930 . S
C749 C748 1.388 . S
C749 C750 1.390 . S
C750 C749 1.390 . S
C750 C751 1.394 . S
C750 C756 1.465 . S
C751 C746 1.399 . S
C751 C750 1.394 . S
C751 C752 1.516 . S
C752 C751 1.516 . S
C752 C753 1.502 . S
C752 C754 1.561 . S
C752 C755 1.526 . S
C753 H737 0.959 . S
C753 H738 0.959 . S
C753 H739 0.961 . S
C753 C752 1.502 . S
C754 H740 0.960 . S
C754 H741 0.961 . S
C754 H742 0.959 . S
C754 C752 1.561 . S
C755 C752 1.526 . S
C755 C756 1.396 . S
C755 C760 1.390 . S
C756 C750 1.465 . S
C756 C755 1.396 . S
C756 C757 1.399 . S
C757 H743 0.929 . S
C757 C756 1.399 . S
C757 C758 1.385 . S
C758 H744 0.931 . S
C758 C757 1.385 . S
C758 C759 1.389 . S
C759 C758 1.389 . S
C759 C760 1.387 . S
C760 H745 0.930 . S
C760 C755 1.390 . S
C760 C759 1.387 . S
H761 C773 0.930 . S
H762 C775 0.930 . S
H763 C776 0.930 . S
H764 C780 0.959 . S
H765 C780 0.959 . S
H766 C780 0.961 . S
H767 C781 0.960 . S
H768 C781 0.961 . S
H769 C781 0.959 . S
H770 C784 0.929 . S
H771 C785 0.931 . S
H772 C787 0.930 . S
C773 H761 0.930 . S
C773 C774 1.399 . S
C773 C778 1.399 . S
C774 C773 1.399 . S
C774 C775 1.376 . S
C775 H762 0.930 . S
C775 C774 1.376 . S
C775 C776 1.388 . S
C776 H763 0.930 . S
C776 C775 1.388 . S
C776 C777 1.390 . S
C777 C776 1.390 . S
C777 C778 1.394 . S
C777 C783 1.465 . S
C778 C773 1.399 . S
C778 C777 1.394 . S
C778 C779 1.516 . S
C779 C778 1.516 . S
C779 C780 1.502 . S
C779 C781 1.561 . S
C779 C782 1.526 . S
C780 H764 0.959 . S
C780 H765 0.959 . S
C780 H766 0.961 . S
C780 C779 1.502 . S
C781 H767 0.960 . S
C781 H768 0.961 . S
C781 H769 0.959 . S
C781 C779 1.561 . S
C782 C779 1.526 . S
C782 C783 1.396 . S
C782 C787 1.390 . S
C783 C777 1.465 . S
C783 C782 1.396 . S
C783 C784 1.399 . S
C784 H770 0.929 . S
C784 C783 1.399 . S
C784 C785 1.385 . S
C785 H771 0.931 . S
C785 C784 1.385 . S
C785 C786 1.389 . S
C786 C785 1.389 . S
C786 C787 1.387 . S
C787 H772 0.930 . S
C787 C782 1.390 . S
C787 C786 1.387 . S
H788 C800 0.930 . S
H789 C802 0.930 . S
H790 C803 0.930 . S
H791 C807 0.959 . S
H792 C807 0.959 . S
H793 C807 0.961 . S
H794 C808 0.960 . S
H795 C808 0.961 . S
H796 C808 0.959 . S
H797 C811 0.929 . S
H798 C812 0.931 . S
H799 C814 0.930 . S
C800 H788 0.930 . S
C800 C801 1.399 . S
C800 C805 1.399 . S
C801 C800 1.399 . S
C801 C802 1.376 . S
C802 H789 0.930 . S
C802 C801 1.376 . S
C802 C803 1.388 . S
C803 H790 0.930 . S
C803 C802 1.388 . S
C803 C804 1.390 . S
C804 C803 1.390 . S
C804 C805 1.394 . S
C804 C810 1.465 . S
C805 C800 1.399 . S
C805 C804 1.394 . S
C805 C806 1.516 . S
C806 C805 1.516 . S
C806 C807 1.502 . S
C806 C808 1.561 . S
C806 C809 1.526 . S
C807 H791 0.959 . S
C807 H792 0.959 . S
C807 H793 0.961 . S
C807 C806 1.502 . S
C808 H794 0.960 . S
C808 H795 0.961 . S
C808 H796 0.959 . S
C808 C806 1.561 . S
C809 C806 1.526 . S
C809 C810 1.396 . S
C809 C814 1.390 . S
C810 C804 1.465 . S
C810 C809 1.396 . S
C810 C811 1.399 . S
C811 H797 0.929 . S
C811 C810 1.399 . S
C811 C812 1.385 . S
C812 H798 0.931 . S
C812 C811 1.385 . S
C812 C813 1.389 . S
C813 C812 1.389 . S
C813 C814 1.387 . S
C814 H799 0.930 . S
C814 C809 1.390 . S
C814 C813 1.387 . S
H815 C827 0.930 . S
H816 C829 0.930 . S
H817 C830 0.930 . S
H818 C834 0.959 . S
H819 C834 0.959 . S
H820 C834 0.961 . S
H821 C835 0.960 . S
H822 C835 0.961 . S
H823 C835 0.959 . S
H824 C838 0.929 . S
H825 C839 0.931 . S
H826 C841 0.930 . S
C827 H815 0.930 . S
C827 C828 1.399 . S
C827 C832 1.399 . S
C828 C827 1.399 . S
C828 C829 1.376 . S
C829 H816 0.930 . S
C829 C828 1.376 . S
C829 C830 1.388 . S
C830 H817 0.930 . S
C830 C829 1.388 . S
C830 C831 1.390 . S
C831 C830 1.390 . S
C831 C832 1.394 . S
C831 C837 1.465 . S
C832 C827 1.399 . S
C832 C831 1.394 . S
C832 C833 1.516 . S
C833 C832 1.516 . S
C833 C834 1.502 . S
C833 C835 1.561 . S
C833 C836 1.526 . S
C834 H818 0.959 . S
C834 H819 0.959 . S
C834 H820 0.961 . S
C834 C833 1.502 . S
C835 H821 0.960 . S
C835 H822 0.961 . S
C835 H823 0.959 . S
C835 C833 1.561 . S
C836 C833 1.526 . S
C836 C837 1.396 . S
C836 C841 1.390 . S
C837 C831 1.465 . S
C837 C836 1.396 . S
C837 C838 1.399 . S
C838 H824 0.929 . S
C838 C837 1.399 . S
C838 C839 1.385 . S
C839 H825 0.931 . S
C839 C838 1.385 . S
C839 C840 1.389 . S
C840 C839 1.389 . S
C840 C841 1.387 . S
C841 H826 0.930 . S
C841 C836 1.390 . S
C841 C840 1.387 . S
H842 C854 0.930 . S
H843 C856 0.930 . S
H844 C857 0.930 . S
H845 C861 0.959 . S
H846 C861 0.959 . S
H847 C861 0.961 . S
H848 C862 0.960 . S
H849 C862 0.961 . S
H850 C862 0.959 . S
H851 C865 0.929 . S
H852 C866 0.931 . S
H853 C868 0.930 . S
C854 H842 0.930 . S
C854 C855 1.399 . S
C854 C859 1.399 . S
C855 C854 1.399 . S
C855 C856 1.376 . S
C856 H843 0.930 . S
C856 C855 1.376 . S
C856 C857 1.388 . S
C857 H844 0.930 . S
C857 C856 1.388 . S
C857 C858 1.390 . S
C858 C857 1.390 . S
C858 C859 1.394 . S
C858 C864 1.465 . S
C859 C854 1.399 . S
C859 C858 1.394 . S
C859 C860 1.516 . S
C860 C859 1.516 . S
C860 C861 1.502 . S
C860 C862 1.561 . S
C860 C863 1.526 . S
C861 H845 0.959 . S
C861 H846 0.959 . S
C861 H847 0.961 . S
C861 C860 1.502 . S
C862 H848 0.960 . S
C862 H849 0.961 . S
C862 H850 0.959 . S
C862 C860 1.561 . S
C863 C860 1.526 . S
C863 C864 1.396 . S
C863 C868 1.390 . S
C864 C858 1.465 . S
C864 C863 1.396 . S
C864 C865 1.399 . S
C865 H851 0.929 . S
C865 C864 1.399 . S
C865 C866 1.385 . S
C866 H852 0.931 . S
C866 C865 1.385 . S
C866 C867 1.389 . S
C867 C866 1.389 . S
C867 C868 1.387 . S
C868 H853 0.930 . S
C868 C863 1.390 . S
C868 C867 1.387 . S
H869 C881 0.930 . S
H870 C883 0.930 . S
H871 C884 0.930 . S
H872 C888 0.959 . S
H873 C888 0.959 . S
H874 C888 0.961 . S
H875 C889 0.960 . S
H876 C889 0.961 . S
H877 C889 0.959 . S
H878 C892 0.929 . S
H879 C893 0.931 . S
H880 C895 0.930 . S
C881 H869 0.930 . S
C881 C882 1.399 . S
C881 C886 1.399 . S
C882 C881 1.399 . S
C882 C883 1.376 . S
C883 H870 0.930 . S
C883 C882 1.376 . S
C883 C884 1.388 . S
C884 H871 0.930 . S
C884 C883 1.388 . S
C884 C885 1.390 . S
C885 C884 1.390 . S
C885 C886 1.394 . S
C885 C891 1.465 . S
C886 C881 1.399 . S
C886 C885 1.394 . S
C886 C887 1.516 . S
C887 C886 1.516 . S
C887 C888 1.502 . S
C887 C889 1.561 . S
C887 C890 1.526 . S
C888 H872 0.959 . S
C888 H873 0.959 . S
C888 H874 0.961 . S
C888 C887 1.502 . S
C889 H875 0.960 . S
C889 H876 0.961 . S
C889 H877 0.959 . S
C889 C887 1.561 . S
C890 C887 1.526 . S
C890 C891 1.396 . S
C890 C895 1.390 . S
C891 C885 1.465 . S
C891 C890 1.396 . S
C891 C892 1.399 . S
C892 H878 0.929 . S
C892 C891 1.399 . S
C892 C893 1.385 . S
C893 H879 0.931 . S
C893 C892 1.385 . S
C893 C894 1.389 . S
C894 C893 1.389 . S
C894 C895 1.387 . S
C895 H880 0.930 . S
C895 C890 1.390 . S
C895 C894 1.387 . S
H896 C908 0.930 . S
H897 C910 0.930 . S
H898 C911 0.930 . S
H899 C915 0.959 . S
H900 C915 0.959 . S
H901 C915 0.961 . S
H902 C916 0.960 . S
H903 C916 0.961 . S
H904 C916 0.959 . S
H905 C919 0.929 . S
H906 C920 0.931 . S
H907 C922 0.930 . S
C908 H896 0.930 . S
C908 C909 1.399 1_556 S
C908 C913 1.394 1_556 S
C909 C908 1.399 1_554 S
C909 C910 1.376 . S
C910 H897 0.930 . S
C910 C909 1.376 . S
C910 C911 1.388 . S
C911 H898 0.930 . S
C911 C910 1.388 . S
C911 C912 1.390 . S
C912 C911 1.390 . S
C912 C913 1.419 . S
C912 C918 1.465 . S
C913 C908 1.394 1_554 S
C913 C912 1.419 . S
C913 C914 1.499 1_554 S
C914 C913 1.499 1_556 S
C914 C915 1.502 . S
C914 C916 1.561 . S
C914 C917 1.526 1_556 S
C915 H899 0.959 . S
C915 H900 0.959 . S
C915 H901 0.961 . S
C915 C914 1.502 . S
C916 H902 0.960 . S
C916 H903 0.961 . S
C916 H904 0.959 . S
C916 C914 1.561 . S
C917 C914 1.526 1_554 S
C917 C918 1.396 . S
C917 C922 1.390 1_554 S
C918 C912 1.465 . S
C918 C917 1.396 . S
C918 C919 1.399 . S
C919 H905 0.929 . S
C919 C918 1.399 . S
C919 C920 1.385 . S
C920 H906 0.931 . S
C920 C919 1.385 . S
C920 C921 1.389 . S
C921 C920 1.389 . S
C921 C922 1.387 1_554 S
C922 H907 0.930 . S
C922 C917 1.390 1_556 S
C922 C921 1.387 1_556 S
H923 C935 0.930 . S
H924 C937 0.930 . S
H925 C938 0.930 . S
H926 C942 0.959 . S
H927 C942 0.959 . S
H928 C942 0.961 . S
H929 C943 0.960 . S
H930 C943 0.961 . S
H931 C943 0.959 . S
H932 C946 0.929 . S
H933 C947 0.931 . S
H934 C949 0.930 . S
C935 H923 0.930 . S
C935 C936 1.399 . S
C935 C940 1.399 . S
C936 C935 1.399 . S
C936 C937 1.376 1_554 S
C937 H924 0.930 . S
C937 C936 1.376 1_556 S
C937 C938 1.388 . S
C938 H925 0.930 . S
C938 C937 1.388 . S
C938 C939 1.390 1_556 S
C939 C938 1.390 1_554 S
C939 C940 1.394 . S
C939 C945 1.466 . S
C940 C935 1.399 . S
C940 C939 1.394 . S
C940 C941 1.516 . S
C941 C940 1.516 . S
C941 C942 1.502 . S
C941 C943 1.561 . S
C941 C944 1.526 . S
C942 H926 0.959 . S
C942 H927 0.959 . S
C942 H928 0.961 . S
C942 C941 1.502 . S
C943 H929 0.960 . S
C943 H930 0.961 . S
C943 H931 0.959 . S
C943 C941 1.561 . S
C944 C941 1.526 . S
C944 C945 1.424 . S
C944 C949 1.390 . S
C945 C939 1.466 . S
C945 C944 1.424 . S
C945 C946 1.377 1_554 S
C946 H932 0.929 . S
C946 C945 1.377 1_556 S
C946 C947 1.385 . S
C947 H933 0.931 . S
C947 C946 1.385 . S
C947 C948 1.389 1_556 S
C948 C947 1.389 1_554 S
C948 C949 1.387 . S
C949 H934 0.930 . S
C949 C944 1.390 . S
C949 C948 1.387 . S
H950 C962 0.930 . S
H951 C964 0.930 . S
H952 C965 0.930 . S
H953 C969 0.959 . S
H954 C969 0.959 . S
H955 C969 0.961 . S
H956 C970 0.960 1_655 S
H957 C970 0.961 . S
H958 C970 0.959 . S
H959 C973 0.929 . S
H960 C974 0.931 . S
H961 C976 0.930 . S
C962 H950 0.930 . S
C962 C963 1.399 . S
C962 C967 1.399 . S
C963 C962 1.399 . S
C963 C964 1.376 . S
C964 H951 0.930 . S
C964 C963 1.376 . S
C964 C965 1.388 1_655 S
C965 H952 0.930 . S
C965 C964 1.388 1_455 S
C965 C966 1.390 . S
C966 C965 1.390 . S
C966 C967 1.394 1_455 S
C966 C972 1.465 . S
C967 C962 1.399 . S
C967 C966 1.394 1_655 S
C967 C968 1.516 . S
C968 C967 1.516 . S
C968 C969 1.502 . S
C968 C970 1.561 1_655 S
C968 C971 1.526 1_655 S
C969 H953 0.959 . S
C969 H954 0.959 . S
C969 H955 0.961 . S
C969 C968 1.502 . S
C970 H956 0.960 1_455 S
C970 H957 0.961 . S
C970 H958 0.959 . S
C970 C968 1.561 1_455 S
C971 C968 1.526 1_455 S
C971 C972 1.396 . S
C971 C976 1.390 . S
C972 C966 1.465 . S
C972 C971 1.396 . S
C972 C973 1.399 . S
C973 H959 0.929 . S
C973 C972 1.399 . S
C973 C974 1.385 . S
C974 H960 0.931 . S
C974 C973 1.385 . S
C974 C975 1.389 . S
C975 C974 1.389 . S
C975 C976 1.387 . S
C976 H961 0.930 . S
C976 C971 1.390 . S
C976 C975 1.387 . S
H977 C989 0.930 . S
H978 C991 0.930 . S
H979 C992 0.930 . S
H980 C996 0.959 . S
H981 C996 0.959 . S
H982 C996 0.961 . S
H983 C997 0.960 . S
H984 C997 0.961 . S
H985 C997 0.959 . S
H986 C1000 0.929 . S
H987 C1001 0.931 . S
H988 C1003 0.930 . S
C989 H977 0.930 . S
C989 C990 1.399 . S
C989 C994 1.399 . S
C990 C989 1.399 . S
C990 C991 1.376 . S
C991 H978 0.930 . S
C991 C990 1.376 . S
C991 C992 1.388 . S
C992 H979 0.930 . S
C992 C991 1.388 . S
C992 C993 1.390 . S
C993 C992 1.390 . S
C993 C994 1.394 . S
C993 C999 1.465 . S
C994 C989 1.399 . S
C994 C993 1.394 . S
C994 C995 1.516 . S
C995 C994 1.516 . S
C995 C996 1.502 . S
C995 C997 1.561 . S
C995 C998 1.526 . S
C996 H980 0.959 . S
C996 H981 0.959 . S
C996 H982 0.961 . S
C996 C995 1.502 . S
C997 H983 0.960 . S
C997 H984 0.961 . S
C997 H985 0.959 . S
C997 C995 1.561 . S
C998 C995 1.526 . S
C998 C999 1.396 . S
C998 C1003 1.390 . S
C999 C993 1.465 . S
C999 C998 1.396 . S
C999 C1000 1.399 . S
C1000 H986 0.929 . S
C1000 C999 1.399 . S
C1000 C1001 1.385 . S
C1001 H987 0.931 . S
C1001 C1000 1.385 . S
C1001 C1002 1.389 . S
C1002 C1001 1.389 . S
C1002 C1003 1.387 . S
C1003 H988 0.930 . S
C1003 C998 1.390 . S
C1003 C1002 1.387 . S
H1004 C1016 0.930 . S
H1005 C1018 0.930 . S
H1006 C1019 0.930 . S
H1007 C1023 0.959 . S
H1008 C1023 0.959 . S
H1009 C1023 0.961 . S
H1010 C1024 0.960 . S
H1011 C1024 0.961 . S
H1012 C1024 0.959 . S
H1013 C1027 0.929 . S
H1014 C1028 0.931 . S
H1015 C1030 0.930 . S
C1016 H1004 0.930 . S
C1016 C1017 1.399 . S
C1016 C1021 1.399 . S
C1017 C1016 1.399 . S
C1017 C1018 1.376 . S
C1018 H1005 0.930 . S
C1018 C1017 1.376 . S
C1018 C1019 1.388 . S
C1019 H1006 0.930 . S
C1019 C1018 1.388 . S
C1019 C1020 1.390 . S
C1020 C1019 1.390 . S
C1020 C1021 1.394 . S
C1020 C1026 1.465 . S
C1021 C1016 1.399 . S
C1021 C1020 1.394 . S
C1021 C1022 1.516 . S
C1022 C1021 1.516 . S
C1022 C1023 1.502 . S
C1022 C1024 1.561 . S
C1022 C1025 1.526 . S
C1023 H1007 0.959 . S
C1023 H1008 0.959 . S
C1023 H1009 0.961 . S
C1023 C1022 1.502 . S
C1024 H1010 0.960 . S
C1024 H1011 0.961 . S
C1024 H1012 0.959 . S
C1024 C1022 1.561 . S
C1025 C1022 1.526 . S
C1025 C1026 1.396 . S
C1025 C1030 1.390 . S
C1026 C1020 1.465 . S
C1026 C1025 1.396 . S
C1026 C1027 1.399 . S
C1027 H1013 0.929 . S
C1027 C1026 1.399 . S
C1027 C1028 1.385 . S
C1028 H1014 0.931 . S
C1028 C1027 1.385 . S
C1028 C1029 1.389 . S
C1029 C1028 1.389 . S
C1029 C1030 1.387 . S
C1030 H1015 0.930 . S
C1030 C1025 1.390 . S
C1030 C1029 1.387 . S
H1031 C1043 0.930 1_455 S
H1032 C1045 0.930 . S
H1033 C1046 0.930 . S
H1034 C1050 0.959 . S
H1035 C1050 0.959 . S
H1036 C1050 0.961 . S
H1037 C1051 0.960 . S
H1038 C1051 0.961 . S
H1039 C1051 0.959 . S
H1040 C1054 0.929 . S
H1041 C1055 0.922 1_655 S
H1042 C1057 0.930 . S
C1043 H1031 0.930 1_655 S
C1043 C1044 1.399 . S
C1043 C1048 1.399 1_655 S
C1044 C1043 1.399 . S
C1044 C1045 1.376 . S
C1045 H1032 0.930 . S
C1045 C1044 1.376 . S
C1045 C1046 1.388 . S
C1046 H1033 0.930 . S
C1046 C1045 1.388 . S
C1046 C1047 1.390 . S
C1047 C1046 1.390 . S
C1047 C1048 1.394 1_655 S
C1047 C1053 1.465 1_565 S
C1048 C1043 1.399 1_455 S
C1048 C1047 1.394 1_455 S
C1048 C1049 1.516 . S
C1049 C1048 1.516 . S
C1049 C1050 1.502 . S
C1049 C1051 1.561 . S
C1049 C1052 1.526 1_565 S
C1050 H1034 0.959 . S
C1050 H1035 0.959 . S
C1050 H1036 0.961 . S
C1050 C1049 1.502 . S
C1051 H1037 0.960 . S
C1051 H1038 0.961 . S
C1051 H1039 0.959 . S
C1051 C1049 1.561 . S
C1052 C1049 1.526 1_545 S
C1052 C1053 1.396 1_455 S
C1052 C1057 1.390 . S
C1053 C1047 1.465 1_545 S
C1053 C1052 1.396 1_655 S
C1053 C1054 1.399 . S
C1054 H1040 0.929 . S
C1054 C1053 1.399 . S
C1054 C1055 1.372 1_655 S
C1055 H1041 0.922 1_455 S
C1055 C1054 1.372 1_455 S
C1055 C1056 1.411 . S
C1056 C1055 1.411 . S
C1056 C1057 1.387 . S
C1057 H1042 0.930 . S
C1057 C1052 1.390 . S
C1057 C1056 1.387 . S
H1058 C1070 0.930 . S
H1059 C1072 0.930 . S
H1060 C1073 0.930 . S
H1061 C1077 0.959 . S
H1062 C1077 0.959 . S
H1063 C1077 0.961 . S
H1064 C1078 0.960 . S
H1065 C1078 0.961 . S
H1066 C1078 0.959 . S
H1067 C1081 0.929 . S
H1068 C1082 0.931 . S
H1069 C1084 0.930 . S
C1070 H1058 0.930 . S
C1070 C1071 1.399 . S
C1070 C1075 1.399 . S
C1071 C1070 1.399 . S
C1071 C1072 1.376 . S
C1072 H1059 0.930 . S
C1072 C1071 1.376 . S
C1072 C1073 1.388 . S
C1073 H1060 0.930 . S
C1073 C1072 1.388 . S
C1073 C1074 1.390 . S
C1074 C1073 1.390 . S
C1074 C1075 1.394 . S
C1074 C1080 1.465 . S
C1075 C1070 1.399 . S
C1075 C1074 1.394 . S
C1075 C1076 1.516 . S
C1076 C1075 1.516 . S
C1076 C1077 1.502 . S
C1076 C1078 1.561 . S
C1076 C1079 1.526 . S
C1077 H1061 0.959 . S
C1077 H1062 0.959 . S
C1077 H1063 0.961 . S
C1077 C1076 1.502 . S
C1078 H1064 0.960 . S
C1078 H1065 0.961 . S
C1078 H1066 0.959 . S
C1078 C1076 1.561 . S
C1079 C1076 1.526 . S
C1079 C1080 1.396 . S
C1079 C1084 1.390 . S
C1080 C1074 1.465 . S
C1080 C1079 1.396 . S
C1080 C1081 1.399 . S
C1081 H1067 0.929 . S
C1081 C1080 1.399 . S
C1081 C1082 1.385 . S
C1082 H1068 0.931 . S
C1082 C1081 1.385 . S
C1082 C1083 1.389 . S
C1083 C1082 1.389 . S
C1083 C1084 1.387 . S
C1084 H1069 0.930 . S
C1084 C1079 1.390 . S
C1084 C1083 1.387 . S
H1085 C1097 0.930 . S
H1086 C1099 0.930 . S
H1087 C1100 0.930 . S
H1088 C1104 0.959 . S
H1089 C1104 0.959 . S
H1090 C1104 0.961 . S
H1091 C1105 0.960 1_565 S
H1092 C1105 0.961 . S
H1093 C1105 0.959 . S
H1094 C1108 0.929 . S
H1095 C1109 0.931 . S
H1096 C1111 0.930 . S
C1097 H1085 0.930 . S
C1097 C1098 1.399 . S
C1097 C1102 1.399 . S
C1098 C1097 1.399 . S
C1098 C1099 1.376 . S
C1099 H1086 0.930 . S
C1099 C1098 1.376 . S
C1099 C1100 1.388 . S
C1100 H1087 0.930 . S
C1100 C1099 1.388 . S
C1100 C1101 1.390 . S
C1101 C1100 1.390 . S
C1101 C1102 1.394 . S
C1101 C1107 1.465 1_565 S
C1102 C1097 1.399 . S
C1102 C1101 1.394 . S
C1102 C1103 1.516 . S
C1103 C1102 1.516 . S
C1103 C1104 1.502 . S
C1103 C1105 1.561 1_565 S
C1103 C1106 1.526 1_565 S
C1104 H1088 0.959 . S
C1104 H1089 0.959 . S
C1104 H1090 0.961 . S
C1104 C1103 1.502 . S
C1105 H1091 0.960 1_545 S
C1105 H1092 0.961 . S
C1105 H1093 0.959 . S
C1105 C1103 1.561 1_545 S
C1106 C1103 1.526 1_545 S
C1106 C1107 1.396 . S
C1106 C1111 1.390 . S
C1107 C1101 1.465 1_545 S
C1107 C1106 1.396 . S
C1107 C1108 1.399 . S
C1108 H1094 0.929 . S
C1108 C1107 1.399 . S
C1108 C1109 1.385 . S
C1109 H1095 0.931 . S
C1109 C1108 1.385 . S
C1109 C1110 1.389 . S
C1110 C1109 1.389 . S
C1110 C1111 1.387 . S
C1111 H1096 0.930 . S
C1111 C1106 1.390 . S
C1111 C1110 1.387 . S
H1112 C1124 0.930 . S
H1113 C1126 0.930 . S
H1114 C1127 0.930 . S
H1115 C1131 0.959 . S
H1116 C1131 0.959 . S
H1117 C1131 0.961 . S
H1118 C1132 0.960 . S
H1119 C1132 0.961 . S
H1120 C1132 0.959 1_565 S
H1121 C1135 0.929 1_565 S
H1122 C1136 0.931 . S
H1123 C1138 0.930 . S
C1124 H1112 0.930 . S
C1124 C1125 1.399 1_545 S
C1124 C1129 1.399 . S
C1125 C1124 1.399 1_565 S
C1125 C1126 1.376 . S
C1126 H1113 0.930 . S
C1126 C1125 1.376 . S
C1126 C1127 1.388 . S
C1127 H1114 0.930 . S
C1127 C1126 1.388 . S
C1127 C1128 1.390 1_565 S
C1128 C1127 1.390 1_545 S
C1128 C1129 1.394 . S
C1128 C1134 1.465 . S
C1129 C1124 1.399 . S
C1129 C1128 1.394 . S
C1129 C1130 1.516 . S
C1130 C1129 1.516 . S
C1130 C1131 1.502 . S
C1130 C1132 1.561 . S
C1130 C1133 1.526 . S
C1131 H1115 0.959 . S
C1131 H1116 0.959 . S
C1131 H1117 0.961 . S
C1131 C1130 1.502 . S
C1132 H1118 0.960 . S
C1132 H1119 0.961 . S
C1132 H1120 0.959 1_545 S
C1132 C1130 1.561 . S
C1133 C1130 1.526 . S
C1133 C1134 1.396 . S
C1133 C1138 1.390 . S
C1134 C1128 1.465 . S
C1134 C1133 1.396 . S
C1134 C1135 1.399 . S
C1135 H1121 0.929 1_545 S
C1135 C1134 1.399 . S
C1135 C1136 1.385 . S
C1136 H1122 0.931 . S
C1136 C1135 1.385 . S
C1136 C1137 1.389 . S
C1137 C1136 1.389 . S
C1137 C1138 1.387 . S
C1138 H1123 0.930 . S
C1138 C1133 1.390 . S
C1138 C1137 1.387 . S
H1139 C1151 0.930 . S
H1140 C1153 0.930 . S
H1141 C1154 0.930 . S
H1142 C1158 0.959 . S
H1143 C1158 0.959 . S
H1144 C1158 0.961 . S
H1145 C1159 0.960 . S
H1146 C1159 0.961 . S
H1147 C1159 0.959 . S
H1148 C1162 0.929 . S
H1149 C1163 0.931 . S
H1150 C1165 0.930 . S
C1151 H1139 0.930 . S
C1151 C1152 1.399 . S
C1151 C1156 1.399 . S
C1152 C1151 1.399 . S
C1152 C1153 1.376 . S
C1153 H1140 0.930 . S
C1153 C1152 1.376 . S
C1153 C1154 1.388 . S
C1154 H1141 0.930 . S
C1154 C1153 1.388 . S
C1154 C1155 1.390 . S
C1155 C1154 1.390 . S
C1155 C1156 1.394 . S
C1155 C1161 1.465 . S
C1156 C1151 1.399 . S
C1156 C1155 1.394 . S
C1156 C1157 1.516 1_565 S
C1157 C1156 1.516 1_545 S
C1157 C1158 1.502 . S
C1157 C1159 1.561 . S
C1157 C1160 1.526 . S
C1158 H1142 0.959 . S
C1158 H1143 0.959 . S
C1158 H1144 0.961 . S
C1158 C1157 1.502 . S
C1159 H1145 0.960 . S
C1159 H1146 0.961 . S
C1159 H1147 0.959 . S
C1159 C1157 1.561 . S
C1160 C1157 1.526 . S
C1160 C1161 1.396 1_545 S
C1160 C1165 1.390 . S
C1161 C1155 1.465 . S
C1161 C1160 1.396 1_565 S
C1161 C1162 1.399 . S
C1162 H1148 0.929 . S
C1162 C1161 1.399 . S
C1162 C1163 1.385 . S
C1163 H1149 0.931 . S
C1163 C1162 1.385 . S
C1163 C1164 1.389 1_565 S
C1164 C1163 1.389 1_545 S
C1164 C1165 1.387 . S
C1165 H1150 0.930 . S
C1165 C1160 1.390 . S
C1165 C1164 1.387 . S
H1166 C1178 0.930 . S
H1167 C1180 0.930 . S
H1168 C1181 0.930 . S
H1169 C1185 0.959 . S
H1170 C1185 0.959 . S
H1171 C1185 0.961 . S
H1172 C1186 0.960 . S
H1173 C1186 0.961 . S
H1174 C1186 0.936 1_455 S
H1175 C1189 0.929 1_455 S
H1176 C1190 0.932 . S
H1177 C1192 0.930 . S
C1178 H1166 0.930 . S
C1178 C1179 1.399 . S
C1178 C1183 1.399 . S
C1179 C1178 1.399 . S
C1179 C1180 1.376 . S
C1180 H1167 0.930 . S
C1180 C1179 1.376 . S
C1180 C1181 1.388 . S
C1181 H1168 0.930 . S
C1181 C1180 1.388 . S
C1181 C1182 1.390 . S
C1182 C1181 1.390 . S
C1182 C1183 1.394 . S
C1182 C1188 1.465 . S
C1183 C1178 1.399 . S
C1183 C1182 1.394 . S
C1183 C1184 1.516 . S
C1184 C1183 1.516 . S
C1184 C1185 1.502 . S
C1184 C1186 1.561 . S
C1184 C1187 1.526 . S
C1185 H1169 0.959 . S
C1185 H1170 0.959 . S
C1185 H1171 0.961 . S
C1185 C1184 1.502 . S
C1186 H1172 0.960 . S
C1186 H1173 0.961 . S
C1186 H1174 0.936 1_655 S
C1186 C1184 1.561 . S
C1187 C1184 1.526 . S
C1187 C1188 1.396 . S
C1187 C1192 1.390 . S
C1188 C1182 1.465 . S
C1188 C1187 1.396 . S
C1188 C1189 1.399 . S
C1189 H1175 0.929 1_655 S
C1189 C1188 1.399 . S
C1189 C1190 1.385 1_655 S
C1190 H1176 0.932 . S
C1190 C1189 1.385 1_455 S
C1190 C1191 1.389 1_455 S
C1191 C1190 1.389 1_655 S
C1191 C1192 1.387 . S
C1192 H1177 0.930 . S
C1192 C1187 1.390 . S
C1192 C1191 1.387 . S
H1193 C1205 0.930 . S
H1194 C1207 0.930 . S
H1195 C1208 0.930 . S
H1196 C1212 0.959 1_655 S
H1197 C1212 0.959 . S
H1198 C1212 0.971 . S
H1199 C1213 0.960 . S
H1200 C1213 0.961 . S
H1201 C1213 0.959 . S
H1202 C1216 0.929 . S
H1203 C1217 0.931 . S
H1204 C1219 0.930 . S
C1205 H1193 0.930 . S
C1205 C1206 1.399 . S
C1205 C1210 1.399 . S
C1206 C1205 1.399 . S
C1206 C1207 1.376 . S
C1207 H1194 0.930 . S
C1207 C1206 1.376 . S
C1207 C1208 1.388 . S
C1208 H1195 0.930 . S
C1208 C1207 1.388 . S
C1208 C1209 1.390 . S
C1209 C1208 1.390 . S
C1209 C1210 1.394 . S
C1209 C1215 1.465 . S
C1210 C1205 1.399 . S
C1210 C1209 1.394 . S
C1210 C1211 1.516 . S
C1211 C1210 1.516 . S
C1211 C1212 1.502 . S
C1211 C1213 1.561 . S
C1211 C1214 1.526 . S
C1212 H1196 0.959 1_455 S
C1212 H1197 0.959 . S
C1212 H1198 0.971 . S
C1212 C1211 1.502 . S
C1213 H1199 0.960 . S
C1213 H1200 0.961 . S
C1213 H1201 0.959 . S
C1213 C1211 1.561 . S
C1214 C1211 1.526 . S
C1214 C1215 1.396 . S
C1214 C1219 1.390 . S
C1215 C1209 1.465 . S
C1215 C1214 1.396 . S
C1215 C1216 1.399 . S
C1216 H1202 0.929 . S
C1216 C1215 1.399 . S
C1216 C1217 1.385 . S
C1217 H1203 0.931 . S
C1217 C1216 1.385 . S
C1217 C1218 1.389 . S
C1218 C1217 1.389 . S
C1218 C1219 1.387 . S
C1219 H1204 0.930 . S
C1219 C1214 1.390 . S
C1219 C1218 1.387 . S
H1220 C1232 0.930 . S
H1221 C1234 0.930 . S
H1222 C1235 0.930 . S
H1223 C1239 0.959 . S
H1224 C1239 0.959 . S
H1225 C1239 0.961 . S
H1226 C1240 0.960 . S
H1227 C1240 0.961 . S
H1228 C1240 0.959 . S
H1229 C1243 0.929 . S
H1230 C1244 0.931 . S
H1231 C1246 0.930 . S
C1232 H1220 0.930 . S
C1232 C1233 1.399 . S
C1232 C1237 1.399 . S
C1233 C1232 1.399 . S
C1233 C1234 1.376 . S
C1234 H1221 0.930 . S
C1234 C1233 1.376 . S
C1234 C1235 1.388 . S
C1235 H1222 0.930 . S
C1235 C1234 1.388 . S
C1235 C1236 1.390 . S
C1236 C1235 1.390 . S
C1236 C1237 1.394 . S
C1236 C1242 1.465 . S
C1237 C1232 1.399 . S
C1237 C1236 1.394 . S
C1237 C1238 1.516 . S
C1238 C1237 1.516 . S
C1238 C1239 1.502 . S
C1238 C1240 1.561 . S
C1238 C1241 1.526 . S
C1239 H1223 0.959 . S
C1239 H1224 0.959 . S
C1239 H1225 0.961 . S
C1239 C1238 1.502 . S
C1240 H1226 0.960 . S
C1240 H1227 0.961 . S
C1240 H1228 0.959 . S
C1240 C1238 1.561 . S
C1241 C1238 1.526 . S
C1241 C1242 1.396 . S
C1241 C1246 1.390 . S
C1242 C1236 1.465 . S
C1242 C1241 1.396 . S
C1242 C1243 1.399 . S
C1243 H1229 0.929 . S
C1243 C1242 1.399 . S
C1243 C1244 1.385 . S
C1244 H1230 0.931 . S
C1244 C1243 1.385 . S
C1244 C1245 1.389 . S
C1245 C1244 1.389 . S
C1245 C1246 1.387 . S
C1246 H1231 0.930 . S
C1246 C1241 1.390 . S
C1246 C1245 1.387 . S
H1247 C1259 0.930 . S
H1248 C1261 0.930 . S
H1249 C1262 0.930 . S
H1250 C1266 0.959 . S
H1251 C1266 0.959 . S
H1252 C1266 0.961 . S
H1253 C1267 0.960 . S
H1254 C1267 0.961 . S
H1255 C1267 0.959 . S
H1256 C1270 0.929 . S
H1257 C1271 0.931 . S
H1258 C1273 0.930 . S
C1259 H1247 0.930 . S
C1259 C1260 1.399 . S
C1259 C1264 1.399 . S
C1260 C1259 1.399 . S
C1260 C1261 1.376 . S
C1261 H1248 0.930 . S
C1261 C1260 1.376 . S
C1261 C1262 1.388 . S
C1262 H1249 0.930 . S
C1262 C1261 1.388 . S
C1262 C1263 1.390 . S
C1263 C1262 1.390 . S
C1263 C1264 1.394 . S
C1263 C1269 1.465 . S
C1264 C1259 1.399 . S
C1264 C1263 1.394 . S
C1264 C1265 1.516 . S
C1265 C1264 1.516 . S
C1265 C1266 1.502 . S
C1265 C1267 1.561 . S
C1265 C1268 1.526 . S
C1266 H1250 0.959 . S
C1266 H1251 0.959 . S
C1266 H1252 0.961 . S
C1266 C1265 1.502 . S
C1267 H1253 0.960 . S
C1267 H1254 0.961 . S
C1267 H1255 0.959 . S
C1267 C1265 1.561 . S
C1268 C1265 1.526 . S
C1268 C1269 1.396 . S
C1268 C1273 1.390 . S
C1269 C1263 1.465 . S
C1269 C1268 1.396 . S
C1269 C1270 1.399 . S
C1270 H1256 0.929 . S
C1270 C1269 1.399 . S
C1270 C1271 1.385 . S
C1271 H1257 0.931 . S
C1271 C1270 1.385 . S
C1271 C1272 1.389 . S
C1272 C1271 1.389 . S
C1272 C1273 1.387 . S
C1273 H1258 0.930 . S
C1273 C1268 1.390 . S
C1273 C1272 1.387 . S
H1274 C1286 0.930 . S
H1275 C1288 0.930 . S
H1276 C1289 0.930 . S
H1277 C1293 0.959 . S
H1278 C1293 0.959 . S
H1279 C1293 0.961 . S
H1280 C1294 0.960 . S
H1281 C1294 0.957 1_556 S
H1282 C1294 0.959 1_556 S
H1283 C1297 0.929 . S
H1284 C1298 0.931 . S
H1285 C1300 0.930 . S
C1286 H1274 0.930 . S
C1286 C1287 1.399 . S
C1286 C1291 1.399 . S
C1287 C1286 1.399 . S
C1287 C1288 1.376 . S
C1288 H1275 0.930 . S
C1288 C1287 1.376 . S
C1288 C1289 1.388 . S
C1289 H1276 0.930 . S
C1289 C1288 1.388 . S
C1289 C1290 1.390 . S
C1290 C1289 1.390 . S
C1290 C1291 1.394 . S
C1290 C1296 1.465 1_554 S
C1291 C1286 1.399 . S
C1291 C1290 1.394 . S
C1291 C1292 1.516 . S
C1292 C1291 1.516 . S
C1292 C1293 1.502 . S
C1292 C1294 1.561 1_655 S
C1292 C1295 1.526 1_554 S
C1293 H1277 0.959 . S
C1293 H1278 0.959 . S
C1293 H1279 0.961 . S
C1293 C1292 1.502 . S
C1294 H1280 0.960 . S
C1294 H1281 0.957 1_554 S
C1294 H1282 0.959 1_554 S
C1294 C1292 1.561 1_455 S
C1295 C1292 1.526 1_556 S
C1295 C1296 1.396 . S
C1295 C1300 1.390 . S
C1296 C1290 1.465 1_556 S
C1296 C1295 1.396 . S
C1296 C1297 1.399 . S
C1297 H1283 0.929 . S
C1297 C1296 1.399 . S
C1297 C1298 1.385 . S
C1298 H1284 0.931 . S
C1298 C1297 1.385 . S
C1298 C1299 1.389 . S
C1299 C1298 1.389 . S
C1299 C1300 1.387 . S
C1300 H1285 0.930 . S
C1300 C1295 1.390 . S
C1300 C1299 1.387 . S
H1301 C1313 0.905 1_655 S
H1302 C1315 0.930 . S
H1303 C1316 0.930 . S
H1304 C1320 0.959 . S
H1305 C1320 0.959 . S
H1306 C1320 0.961 . S
H1307 C1321 0.960 1_655 S
H1308 C1321 0.961 . S
H1309 C1321 0.959 . S
H1310 C1324 0.929 . S
H1311 C1325 0.931 . S
H1312 C1327 0.930 . S
C1313 H1301 0.905 1_455 S
C1313 C1314 1.412 . S
C1313 C1318 1.412 . S
C1314 C1313 1.412 . S
C1314 C1315 1.376 . S
C1315 H1302 0.930 . S
C1315 C1314 1.376 . S
C1315 C1316 1.388 . S
C1316 H1303 0.930 . S
C1316 C1315 1.388 . S
C1316 C1317 1.390 . S
C1317 C1316 1.390 . S
C1317 C1318 1.394 . S
C1317 C1323 1.465 1_554 S
C1318 C1313 1.412 . S
C1318 C1317 1.394 . S
C1318 C1319 1.516 1_554 S
C1319 C1318 1.516 1_556 S
C1319 C1320 1.502 1_455 S
C1319 C1321 1.561 . S
C1319 C1322 1.526 . S
C1320 H1304 0.959 . S
C1320 H1305 0.959 . S
C1320 H1306 0.961 . S
C1320 C1319 1.502 1_655 S
C1321 H1307 0.960 1_455 S
C1321 H1308 0.961 . S
C1321 H1309 0.959 . S
C1321 C1319 1.561 . S
C1322 C1319 1.526 . S
C1322 C1323 1.396 . S
C1322 C1327 1.390 . S
C1323 C1317 1.465 1_556 S
C1323 C1322 1.396 . S
C1323 C1324 1.399 . S
C1324 H1310 0.929 . S
C1324 C1323 1.399 . S
C1324 C1325 1.385 . S
C1325 H1311 0.931 . S
C1325 C1324 1.385 . S
C1325 C1326 1.389 . S
C1326 C1325 1.389 . S
C1326 C1327 1.387 . S
C1327 H1312 0.930 . S
C1327 C1322 1.390 . S
C1327 C1326 1.387 . S
H1328 C1340 0.930 . S
H1329 C1342 0.930 . S
H1330 C1343 0.930 . S
H1331 C1347 0.959 . S
H1332 C1347 0.959 . S
H1333 C1347 0.961 . S
H1334 C1348 0.960 . S
H1335 C1348 0.961 . S
H1336 C1348 0.959 . S
H1337 C1351 0.929 . S
H1338 C1352 0.931 . S
H1339 C1354 0.930 . S
C1340 H1328 0.930 . S
C1340 C1341 1.399 1_545 S
C1340 C1345 1.399 . S
C1341 C1340 1.399 1_565 S
C1341 C1342 1.376 . S
C1342 H1329 0.930 . S
C1342 C1341 1.376 . S
C1342 C1343 1.388 . S
C1343 H1330 0.930 . S
C1343 C1342 1.388 . S
C1343 C1344 1.412 . S
C1344 C1343 1.412 . S
C1344 C1345 1.376 1_565 S
C1344 C1350 1.456 1_565 S
C1345 C1340 1.399 . S
C1345 C1344 1.376 1_545 S
C1345 C1346 1.516 . S
C1346 C1345 1.516 . S
C1346 C1347 1.502 . S
C1346 C1348 1.561 . S
C1346 C1349 1.526 . S
C1347 H1331 0.959 . S
C1347 H1332 0.959 . S
C1347 H1333 0.961 . S
C1347 C1346 1.502 . S
C1348 H1334 0.960 . S
C1348 H1335 0.961 . S
C1348 H1336 0.959 . S
C1348 C1346 1.561 . S
C1349 C1346 1.526 . S
C1349 C1350 1.396 . S
C1349 C1354 1.390 . S
C1350 C1344 1.456 1_545 S
C1350 C1349 1.396 . S
C1350 C1351 1.399 1_545 S
C1351 H1337 0.929 . S
C1351 C1350 1.399 1_565 S
C1351 C1352 1.385 1_565 S
C1352 H1338 0.931 . S
C1352 C1351 1.385 1_545 S
C1352 C1353 1.389 . S
C1353 C1352 1.389 . S
C1353 C1354 1.387 . S
C1354 H1339 0.930 . S
C1354 C1349 1.390 . S
C1354 C1353 1.387 . S
H1355 C1367 0.930 . S
H1356 C1369 0.930 . S
H1357 C1370 0.930 . S
H1358 C1374 0.959 1_565 S
H1359 C1374 0.959 . S
H1360 C1374 0.961 . S
H1361 C1375 0.960 . S
H1362 C1375 0.961 . S
H1363 C1375 0.959 . S
H1364 C1378 0.929 . S
H1365 C1379 0.931 . S
H1366 C1381 0.930 . S
C1367 H1355 0.930 . S
C1367 C1368 1.399 . S
C1367 C1372 1.399 . S
C1368 C1367 1.399 . S
C1368 C1369 1.376 1_545 S
C1369 H1356 0.930 . S
C1369 C1368 1.376 1_565 S
C1369 C1370 1.388 . S
C1370 H1357 0.930 . S
C1370 C1369 1.388 . S
C1370 C1371 1.390 . S
C1371 C1370 1.390 . S
C1371 C1372 1.394 1_565 S
C1371 C1377 1.465 . S
C1372 C1367 1.399 . S
C1372 C1371 1.394 1_545 S
C1372 C1373 1.516 . S
C1373 C1372 1.516 . S
C1373 C1374 1.502 . S
C1373 C1375 1.561 . S
C1373 C1376 1.526 1_545 S
C1374 H1358 0.959 1_545 S
C1374 H1359 0.959 . S
C1374 H1360 0.961 . S
C1374 C1373 1.502 . S
C1375 H1361 0.960 . S
C1375 H1362 0.961 . S
C1375 H1363 0.959 . S
C1375 C1373 1.561 . S
C1376 C1373 1.526 1_565 S
C1376 C1377 1.396 . S
C1376 C1381 1.390 . S
C1377 C1371 1.465 . S
C1377 C1376 1.396 . S
C1377 C1378 1.399 . S
C1378 H1364 0.929 . S
C1378 C1377 1.399 . S
C1378 C1379 1.385 . S
C1379 H1365 0.931 . S
C1379 C1378 1.385 . S
C1379 C1380 1.389 . S
C1380 C1379 1.389 . S
C1380 C1381 1.387 . S
C1381 H1366 0.930 . S
C1381 C1376 1.390 . S
C1381 C1380 1.387 . S
H1382 C1394 0.930 . S
H1383 C1396 0.930 . S
H1384 C1397 0.928 1_556 S
H1385 C1401 0.959 . S
H1386 C1401 0.959 . S
H1387 C1401 0.961 . S
H1388 C1402 0.960 . S
H1389 C1402 0.961 . S
H1390 C1402 0.959 . S
H1391 C1405 0.929 . S
H1392 C1406 0.931 . S
H1393 C1408 0.930 . S
C1394 H1382 0.930 . S
C1394 C1395 1.399 . S
C1394 C1399 1.399 . S
C1395 C1394 1.399 . S
C1395 C1396 1.376 . S
C1396 H1383 0.930 . S
C1396 C1395 1.376 . S
C1396 C1397 1.388 . S
C1397 H1384 0.928 1_554 S
C1397 C1396 1.388 . S
C1397 C1398 1.390 . S
C1398 C1397 1.390 . S
C1398 C1399 1.394 . S
C1398 C1404 1.465 1_554 S
C1399 C1394 1.399 . S
C1399 C1398 1.394 . S
C1399 C1400 1.516 . S
C1400 C1399 1.516 . S
C1400 C1401 1.502 . S
C1400 C1402 1.561 . S
C1400 C1403 1.526 1_554 S
C1401 H1385 0.959 . S
C1401 H1386 0.959 . S
C1401 H1387 0.961 . S
C1401 C1400 1.502 . S
C1402 H1388 0.960 . S
C1402 H1389 0.961 . S
C1402 H1390 0.959 . S
C1402 C1400 1.561 . S
C1403 C1400 1.526 1_556 S
C1403 C1404 1.396 . S
C1403 C1408 1.390 . S
C1404 C1398 1.465 1_556 S
C1404 C1403 1.396 . S
C1404 C1405 1.399 . S
C1405 H1391 0.929 . S
C1405 C1404 1.399 . S
C1405 C1406 1.385 . S
C1406 H1392 0.931 . S
C1406 C1405 1.385 . S
C1406 C1407 1.389 . S
C1407 C1406 1.389 . S
C1407 C1408 1.387 . S
C1408 H1393 0.930 . S
C1408 C1403 1.390 . S
C1408 C1407 1.387 . S
H1409 C1421 0.930 . S
H1410 C1423 0.930 . S
H1411 C1424 0.930 . S
H1412 C1428 0.959 . S
H1413 C1428 0.959 . S
H1414 C1428 0.961 1_554 S
H1415 C1429 0.960 . S
H1416 C1429 0.961 . S
H1417 C1429 0.959 . S
H1418 C1432 0.929 . S
H1419 C1433 0.931 . S
H1420 C1435 0.930 . S
C1421 H1409 0.930 . S
C1421 C1422 1.399 . S
C1421 C1426 1.399 . S
C1422 C1421 1.399 . S
C1422 C1423 1.376 . S
C1423 H1410 0.930 . S
C1423 C1422 1.376 . S
C1423 C1424 1.388 . S
C1424 H1411 0.930 . S
C1424 C1423 1.388 . S
C1424 C1425 1.390 . S
C1425 C1424 1.390 . S
C1425 C1426 1.394 . S
C1425 C1431 1.465 1_554 S
C1426 C1421 1.399 . S
C1426 C1425 1.394 . S
C1426 C1427 1.516 1_554 S
C1427 C1426 1.516 1_556 S
C1427 C1428 1.502 . S
C1427 C1429 1.561 . S
C1427 C1430 1.526 . S
C1428 H1412 0.959 . S
C1428 H1413 0.959 . S
C1428 H1414 0.961 1_556 S
C1428 C1427 1.502 . S
C1429 H1415 0.960 . S
C1429 H1416 0.961 . S
C1429 H1417 0.959 . S
C1429 C1427 1.561 . S
C1430 C1427 1.526 . S
C1430 C1431 1.396 . S
C1430 C1435 1.390 . S
C1431 C1425 1.465 1_556 S
C1431 C1430 1.396 . S
C1431 C1432 1.399 . S
C1432 H1418 0.929 . S
C1432 C1431 1.399 . S
C1432 C1433 1.385 . S
C1433 H1419 0.931 . S
C1433 C1432 1.385 . S
C1433 C1434 1.389 . S
C1434 C1433 1.389 . S
C1434 C1435 1.387 . S
C1435 H1420 0.930 . S
C1435 C1430 1.390 . S
C1435 C1434 1.387 . S
H1436 C1448 0.930 . S
H1437 C1450 0.930 . S
H1438 C1451 0.930 . S
H1439 C1455 0.959 . S
H1440 C1455 0.959 . S
H1441 C1455 0.961 . S
H1442 C1456 0.960 . S
H1443 C1456 0.961 . S
H1444 C1456 0.959 . S
H1445 C1459 0.929 . S
H1446 C1460 0.931 . S
H1447 C1462 0.930 . S
C1448 H1436 0.930 . S
C1448 C1449 1.399 . S
C1448 C1453 1.399 . S
C1449 C1448 1.399 . S
C1449 C1450 1.376 . S
C1450 H1437 0.930 . S
C1450 C1449 1.376 . S
C1450 C1451 1.388 . S
C1451 H1438 0.930 . S
C1451 C1450 1.388 . S
C1451 C1452 1.390 . S
C1452 C1451 1.390 . S
C1452 C1453 1.394 . S
C1452 C1458 1.465 . S
C1453 C1448 1.399 . S
C1453 C1452 1.394 . S
C1453 C1454 1.516 . S
C1454 C1453 1.516 . S
C1454 C1455 1.502 . S
C1454 C1456 1.561 . S
C1454 C1457 1.526 . S
C1455 H1439 0.959 . S
C1455 H1440 0.959 . S
C1455 H1441 0.961 . S
C1455 C1454 1.502 . S
C1456 H1442 0.960 . S
C1456 H1443 0.961 . S
C1456 H1444 0.959 . S
C1456 C1454 1.561 . S
C1457 C1454 1.526 . S
C1457 C1458 1.396 . S
C1457 C1462 1.390 . S
C1458 C1452 1.465 . S
C1458 C1457 1.396 . S
C1458 C1459 1.399 . S
C1459 H1445 0.929 . S
C1459 C1458 1.399 . S
C1459 C1460 1.385 . S
C1460 H1446 0.931 . S
C1460 C1459 1.385 . S
C1460 C1461 1.389 . S
C1461 C1460 1.389 . S
C1461 C1462 1.387 . S
C1462 H1447 0.930 . S
C1462 C1457 1.390 . S
C1462 C1461 1.387 . S
H1463 C1475 0.930 . S
H1464 C1477 0.930 . S
H1465 C1478 0.930 . S
H1466 C1482 0.959 . S
H1467 C1482 0.959 . S
H1468 C1482 0.961 . S
H1469 C1483 0.960 . S
H1470 C1483 0.961 . S
H1471 C1483 0.959 . S
H1472 C1486 0.929 . S
H1473 C1487 0.931 . S
H1474 C1489 0.930 . S
C1475 H1463 0.930 . S
C1475 C1476 1.399 . S
C1475 C1480 1.399 . S
C1476 C1475 1.399 . S
C1476 C1477 1.376 . S
C1477 H1464 0.930 . S
C1477 C1476 1.376 . S
C1477 C1478 1.388 . S
C1478 H1465 0.930 . S
C1478 C1477 1.388 . S
C1478 C1479 1.390 . S
C1479 C1478 1.390 . S
C1479 C1480 1.394 . S
C1479 C1485 1.465 . S
C1480 C1475 1.399 . S
C1480 C1479 1.394 . S
C1480 C1481 1.516 . S
C1481 C1480 1.516 . S
C1481 C1482 1.502 . S
C1481 C1483 1.561 . S
C1481 C1484 1.526 . S
C1482 H1466 0.959 . S
C1482 H1467 0.959 . S
C1482 H1468 0.961 . S
C1482 C1481 1.502 . S
C1483 H1469 0.960 . S
C1483 H1470 0.961 . S
C1483 H1471 0.959 . S
C1483 C1481 1.561 . S
C1484 C1481 1.526 . S
C1484 C1485 1.396 . S
C1484 C1489 1.390 . S
C1485 C1479 1.465 . S
C1485 C1484 1.396 . S
C1485 C1486 1.399 . S
C1486 H1472 0.929 . S
C1486 C1485 1.399 . S
C1486 C1487 1.385 . S
C1487 H1473 0.931 . S
C1487 C1486 1.385 . S
C1487 C1488 1.389 . S
C1488 C1487 1.389 . S
C1488 C1489 1.387 . S
C1489 H1474 0.930 . S
C1489 C1484 1.390 . S
C1489 C1488 1.387 . S
H1490 C1502 0.930 . S
H1491 C1504 0.930 . S
H1492 C1505 0.930 . S
H1493 C1509 0.959 . S
H1494 C1509 0.959 . S
H1495 C1509 0.961 . S
H1496 C1510 0.960 . S
H1497 C1510 0.961 . S
H1498 C1510 0.959 . S
H1499 C1513 0.929 . S
H1500 C1514 0.931 . S
H1501 C1516 0.930 . S
C1502 H1490 0.930 . S
C1502 C1503 1.399 . S
C1502 C1507 1.399 . S
C1503 C1502 1.399 . S
C1503 C1504 1.376 . S
C1504 H1491 0.930 . S
C1504 C1503 1.376 . S
C1504 C1505 1.388 . S
C1505 H1492 0.930 . S
C1505 C1504 1.388 . S
C1505 C1506 1.390 . S
C1506 C1505 1.390 . S
C1506 C1507 1.394 . S
C1506 C1512 1.465 . S
C1507 C1502 1.399 . S
C1507 C1506 1.394 . S
C1507 C1508 1.516 . S
C1508 C1507 1.516 . S
C1508 C1509 1.502 . S
C1508 C1510 1.561 . S
C1508 C1511 1.526 . S
C1509 H1493 0.959 . S
C1509 H1494 0.959 . S
C1509 H1495 0.961 . S
C1509 C1508 1.502 . S
C1510 H1496 0.960 . S
C1510 H1497 0.961 . S
C1510 H1498 0.959 . S
C1510 C1508 1.561 . S
C1511 C1508 1.526 . S
C1511 C1512 1.396 . S
C1511 C1516 1.390 . S
C1512 C1506 1.465 . S
C1512 C1511 1.396 . S
C1512 C1513 1.399 . S
C1513 H1499 0.929 . S
C1513 C1512 1.399 . S
C1513 C1514 1.385 . S
C1514 H1500 0.931 . S
C1514 C1513 1.385 . S
C1514 C1515 1.389 . S
C1515 C1514 1.389 . S
C1515 C1516 1.387 . S
C1516 H1501 0.930 . S
C1516 C1511 1.390 . S
C1516 C1515 1.387 . S
H1517 C1529 0.930 . S
H1518 C1531 0.930 . S
H1519 C1532 0.930 . S
H1520 C1536 0.959 . S
H1521 C1536 0.959 . S
H1522 C1536 0.961 . S
H1523 C1537 0.960 . S
H1524 C1537 0.961 . S
H1525 C1537 0.959 . S
H1526 C1540 0.929 . S
H1527 C1541 0.931 . S
H1528 C1543 0.930 . S
C1529 H1517 0.930 . S
C1529 C1530 1.399 . S
C1529 C1534 1.399 . S
C1530 C1529 1.399 . S
C1530 C1531 1.376 . S
C1531 H1518 0.930 . S
C1531 C1530 1.376 . S
C1531 C1532 1.388 . S
C1532 H1519 0.930 . S
C1532 C1531 1.388 . S
C1532 C1533 1.390 . S
C1533 C1532 1.390 . S
C1533 C1534 1.394 . S
C1533 C1539 1.465 . S
C1534 C1529 1.399 . S
C1534 C1533 1.394 . S
C1534 C1535 1.516 . S
C1535 C1534 1.516 . S
C1535 C1536 1.502 . S
C1535 C1537 1.561 . S
C1535 C1538 1.526 . S
C1536 H1520 0.959 . S
C1536 H1521 0.959 . S
C1536 H1522 0.961 . S
C1536 C1535 1.502 . S
C1537 H1523 0.960 . S
C1537 H1524 0.961 . S
C1537 H1525 0.959 . S
C1537 C1535 1.561 . S
C1538 C1535 1.526 . S
C1538 C1539 1.396 . S
C1538 C1543 1.390 . S
C1539 C1533 1.465 . S
C1539 C1538 1.396 . S
C1539 C1540 1.399 . S
C1540 H1526 0.929 . S
C1540 C1539 1.399 . S
C1540 C1541 1.385 . S
C1541 H1527 0.931 . S
C1541 C1540 1.385 . S
C1541 C1542 1.389 . S
C1542 C1541 1.389 . S
C1542 C1543 1.387 . S
C1543 H1528 0.930 . S
C1543 C1538 1.390 . S
C1543 C1542 1.387 . S
H1544 C1556 0.930 . S
H1545 C1558 0.930 . S
H1546 C1559 0.930 . S
H1547 C1563 0.959 . S
H1548 C1563 0.959 . S
H1549 C1563 0.961 . S
H1550 C1564 0.960 . S
H1551 C1564 0.961 . S
H1552 C1564 0.959 . S
H1553 C1567 0.929 . S
H1554 C1568 0.931 . S
H1555 C1570 0.930 . S
C1556 H1544 0.930 . S
C1556 C1557 1.399 . S
C1556 C1561 1.399 . S
C1557 C1556 1.399 . S
C1557 C1558 1.376 . S
C1558 H1545 0.930 . S
C1558 C1557 1.376 . S
C1558 C1559 1.388 . S
C1559 H1546 0.930 . S
C1559 C1558 1.388 . S
C1559 C1560 1.390 . S
C1560 C1559 1.390 . S
C1560 C1561 1.394 . S
C1560 C1566 1.465 . S
C1561 C1556 1.399 . S
C1561 C1560 1.394 . S
C1561 C1562 1.516 . S
C1562 C1561 1.516 . S
C1562 C1563 1.502 . S
C1562 C1564 1.561 . S
C1562 C1565 1.526 . S
C1563 H1547 0.959 . S
C1563 H1548 0.959 . S
C1563 H1549 0.961 . S
C1563 C1562 1.502 . S
C1564 H1550 0.960 . S
C1564 H1551 0.961 . S
C1564 H1552 0.959 . S
C1564 C1562 1.561 . S
C1565 C1562 1.526 . S
C1565 C1566 1.396 . S
C1565 C1570 1.390 . S
C1566 C1560 1.465 . S
C1566 C1565 1.396 . S
C1566 C1567 1.399 . S
C1567 H1553 0.929 . S
C1567 C1566 1.399 . S
C1567 C1568 1.385 . S
C1568 H1554 0.931 . S
C1568 C1567 1.385 . S
C1568 C1569 1.389 . S
C1569 C1568 1.389 . S
C1569 C1570 1.387 . S
C1570 H1555 0.930 . S
C1570 C1565 1.390 . S
C1570 C1569 1.387 . S
H1571 C1583 0.930 . S
H1572 C1585 0.930 . S
H1573 C1586 0.930 . S
H1574 C1590 0.959 . S
H1575 C1590 0.959 . S
H1576 C1590 0.961 . S
H1577 C1591 0.960 . S
H1578 C1591 0.961 . S
H1579 C1591 0.959 . S
H1580 C1594 0.929 . S
H1581 C1595 0.931 . S
H1582 C1597 0.930 . S
C1583 H1571 0.930 . S
C1583 C1584 1.399 . S
C1583 C1588 1.399 . S
C1584 C1583 1.399 . S
C1584 C1585 1.376 . S
C1585 H1572 0.930 . S
C1585 C1584 1.376 . S
C1585 C1586 1.388 . S
C1586 H1573 0.930 . S
C1586 C1585 1.388 . S
C1586 C1587 1.390 . S
C1587 C1586 1.390 . S
C1587 C1588 1.394 . S
C1587 C1593 1.465 . S
C1588 C1583 1.399 . S
C1588 C1587 1.394 . S
C1588 C1589 1.516 . S
C1589 C1588 1.516 . S
C1589 C1590 1.502 . S
C1589 C1591 1.561 . S
C1589 C1592 1.526 . S
C1590 H1574 0.959 . S
C1590 H1575 0.959 . S
C1590 H1576 0.961 . S
C1590 C1589 1.502 . S
C1591 H1577 0.960 . S
C1591 H1578 0.961 . S
C1591 H1579 0.959 . S
C1591 C1589 1.561 . S
C1592 C1589 1.526 . S
C1592 C1593 1.396 . S
C1592 C1597 1.390 . S
C1593 C1587 1.465 . S
C1593 C1592 1.396 . S
C1593 C1594 1.399 . S
C1594 H1580 0.929 . S
C1594 C1593 1.399 . S
C1594 C1595 1.385 . S
C1595 H1581 0.931 . S
C1595 C1594 1.385 . S
C1595 C1596 1.389 . S
C1596 C1595 1.389 . S
C1596 C1597 1.387 . S
C1597 H1582 0.930 . S
C1597 C1592 1.390 . S
C1597 C1596 1.387 . S
H1598 C1610 0.930 . S
H1599 C1612 0.930 . S
H1600 C1613 0.930 . S
H1601 C1617 0.959 . S
H1602 C1617 0.959 . S
H1603 C1617 0.961 . S
H1604 C1618 0.960 . S
H1605 C1618 0.961 . S
H1606 C1618 0.959 . S
H1607 C1621 0.929 . S
H1608 C1622 0.931 . S
H1609 C1624 0.930 . S
C1610 H1598 0.930 . S
C1610 C1611 1.399 . S
C1610 C1615 1.399 . S
C1611 C1610 1.399 . S
C1611 C1612 1.376 . S
C1612 H1599 0.930 . S
C1612 C1611 1.376 . S
C1612 C1613 1.388 . S
C1613 H1600 0.930 . S
C1613 C1612 1.388 . S
C1613 C1614 1.390 . S
C1614 C1613 1.390 . S
C1614 C1615 1.394 . S
C1614 C1620 1.465 . S
C1615 C1610 1.399 . S
C1615 C1614 1.394 . S
C1615 C1616 1.516 . S
C1616 C1615 1.516 . S
C1616 C1617 1.502 . S
C1616 C1618 1.561 . S
C1616 C1619 1.526 . S
C1617 H1601 0.959 . S
C1617 H1602 0.959 . S
C1617 H1603 0.961 . S
C1617 C1616 1.502 . S
C1618 H1604 0.960 . S
C1618 H1605 0.961 . S
C1618 H1606 0.959 . S
C1618 C1616 1.561 . S
C1619 C1616 1.526 . S
C1619 C1620 1.396 . S
C1619 C1624 1.390 . S
C1620 C1614 1.465 . S
C1620 C1619 1.396 . S
C1620 C1621 1.399 . S
C1621 H1607 0.929 . S
C1621 C1620 1.399 . S
C1621 C1622 1.385 . S
C1622 H1608 0.931 . S
C1622 C1621 1.385 . S
C1622 C1623 1.389 . S
C1623 C1622 1.389 . S
C1623 C1624 1.387 . S
C1624 H1609 0.930 . S
C1624 C1619 1.390 . S
C1624 C1623 1.387 . S
H1625 C1637 0.930 . S
H1626 C1639 0.930 . S
H1627 C1640 0.930 . S
H1628 C1644 0.959 . S
H1629 C1644 0.959 . S
H1630 C1644 0.961 . S
H1631 C1645 0.960 . S
H1632 C1645 0.961 . S
H1633 C1645 0.959 . S
H1634 C1648 0.929 . S
H1635 C1649 0.931 . S
H1636 C1651 0.930 . S
C1637 H1625 0.930 . S
C1637 C1638 1.399 . S
C1637 C1642 1.399 . S
C1638 C1637 1.399 . S
C1638 C1639 1.376 . S
C1639 H1626 0.930 . S
C1639 C1638 1.376 . S
C1639 C1640 1.388 . S
C1640 H1627 0.930 . S
C1640 C1639 1.388 . S
C1640 C1641 1.390 . S
C1641 C1640 1.390 . S
C1641 C1642 1.394 . S
C1641 C1647 1.465 . S
C1642 C1637 1.399 . S
C1642 C1641 1.394 . S
C1642 C1643 1.516 . S
C1643 C1642 1.516 . S
C1643 C1644 1.502 . S
C1643 C1645 1.561 . S
C1643 C1646 1.526 . S
C1644 H1628 0.959 . S
C1644 H1629 0.959 . S
C1644 H1630 0.961 . S
C1644 C1643 1.502 . S
C1645 H1631 0.960 . S
C1645 H1632 0.961 . S
C1645 H1633 0.959 . S
C1645 C1643 1.561 . S
C1646 C1643 1.526 . S
C1646 C1647 1.396 . S
C1646 C1651 1.390 . S
C1647 C1641 1.465 . S
C1647 C1646 1.396 . S
C1647 C1648 1.399 . S
C1648 H1634 0.929 . S
C1648 C1647 1.399 . S
C1648 C1649 1.385 . S
C1649 H1635 0.931 . S
C1649 C1648 1.385 . S
C1649 C1650 1.389 . S
C1650 C1649 1.389 . S
C1650 C1651 1.387 . S
C1651 H1636 0.930 . S
C1651 C1646 1.390 . S
C1651 C1650 1.387 . S
H1652 C1664 0.930 . S
H1653 C1666 0.930 . S
H1654 C1667 0.930 . S
H1655 C1671 0.959 . S
H1656 C1671 0.959 . S
H1657 C1671 0.961 . S
H1658 C1672 0.960 . S
H1659 C1672 0.961 . S
H1660 C1672 0.959 . S
H1661 C1675 0.929 . S
H1662 C1676 0.931 . S
H1663 C1678 0.930 . S
C1664 H1652 0.930 . S
C1664 C1665 1.399 . S
C1664 C1669 1.399 . S
C1665 C1664 1.399 . S
C1665 C1666 1.376 . S
C1666 H1653 0.930 . S
C1666 C1665 1.376 . S
C1666 C1667 1.388 . S
C1667 H1654 0.930 . S
C1667 C1666 1.388 . S
C1667 C1668 1.390 . S
C1668 C1667 1.390 . S
C1668 C1669 1.394 . S
C1668 C1674 1.465 . S
C1669 C1664 1.399 . S
C1669 C1668 1.394 . S
C1669 C1670 1.516 . S
C1670 C1669 1.516 . S
C1670 C1671 1.502 . S
C1670 C1672 1.561 . S
C1670 C1673 1.526 . S
C1671 H1655 0.959 . S
C1671 H1656 0.959 . S
C1671 H1657 0.961 . S
C1671 C1670 1.502 . S
C1672 H1658 0.960 . S
C1672 H1659 0.961 . S
C1672 H1660 0.959 . S
C1672 C1670 1.561 . S
C1673 C1670 1.526 . S
C1673 C1674 1.396 . S
C1673 C1678 1.390 . S
C1674 C1668 1.465 . S
C1674 C1673 1.396 . S
C1674 C1675 1.399 . S
C1675 H1661 0.929 . S
C1675 C1674 1.399 . S
C1675 C1676 1.385 . S
C1676 H1662 0.931 . S
C1676 C1675 1.385 . S
C1676 C1677 1.389 . S
C1677 C1676 1.389 . S
C1677 C1678 1.387 . S
C1678 H1663 0.930 . S
C1678 C1673 1.390 . S
C1678 C1677 1.387 . S
H1679 C1691 0.930 . S
H1680 C1693 0.930 . S
H1681 C1694 0.930 . S
H1682 C1698 0.959 . S
H1683 C1698 0.959 . S
H1684 C1698 0.961 . S
H1685 C1699 0.960 . S
H1686 C1699 0.961 . S
H1687 C1699 0.959 . S
H1688 C1702 0.929 . S
H1689 C1703 0.931 . S
H1690 C1705 0.930 . S
C1691 H1679 0.930 . S
C1691 C1692 1.399 . S
C1691 C1696 1.399 . S
C1692 C1691 1.399 . S
C1692 C1693 1.376 . S
C1693 H1680 0.930 . S
C1693 C1692 1.376 . S
C1693 C1694 1.388 . S
C1694 H1681 0.930 . S
C1694 C1693 1.388 . S
C1694 C1695 1.390 . S
C1695 C1694 1.390 . S
C1695 C1696 1.394 . S
C1695 C1701 1.465 . S
C1696 C1691 1.399 . S
C1696 C1695 1.394 . S
C1696 C1697 1.516 . S
C1697 C1696 1.516 . S
C1697 C1698 1.502 . S
C1697 C1699 1.561 . S
C1697 C1700 1.526 . S
C1698 H1682 0.959 . S
C1698 H1683 0.959 . S
C1698 H1684 0.961 . S
C1698 C1697 1.502 . S
C1699 H1685 0.960 . S
C1699 H1686 0.961 . S
C1699 H1687 0.959 . S
C1699 C1697 1.561 . S
C1700 C1697 1.526 . S
C1700 C1701 1.396 . S
C1700 C1705 1.390 . S
C1701 C1695 1.465 . S
C1701 C1700 1.396 . S
C1701 C1702 1.399 . S
C1702 H1688 0.929 . S
C1702 C1701 1.399 . S
C1702 C1703 1.385 . S
C1703 H1689 0.931 . S
C1703 C1702 1.385 . S
C1703 C1704 1.389 . S
C1704 C1703 1.389 . S
C1704 C1705 1.387 . S
C1705 H1690 0.930 . S
C1705 C1700 1.390 . S
C1705 C1704 1.387 . S
H1706 C1718 0.930 . S
H1707 C1720 0.930 . S
H1708 C1721 0.930 . S
H1709 C1725 0.959 . S
H1710 C1725 0.959 . S
H1711 C1725 0.961 . S
H1712 C1726 0.960 . S
H1713 C1726 0.961 . S
H1714 C1726 0.959 . S
H1715 C1729 0.929 . S
H1716 C1730 0.931 . S
H1717 C1732 0.930 . S
C1718 H1706 0.930 . S
C1718 C1719 1.399 . S
C1718 C1723 1.399 . S
C1719 C1718 1.399 . S
C1719 C1720 1.376 . S
C1720 H1707 0.930 . S
C1720 C1719 1.376 . S
C1720 C1721 1.388 . S
C1721 H1708 0.930 . S
C1721 C1720 1.388 . S
C1721 C1722 1.390 . S
C1722 C1721 1.390 . S
C1722 C1723 1.394 . S
C1722 C1728 1.465 . S
C1723 C1718 1.399 . S
C1723 C1722 1.394 . S
C1723 C1724 1.516 . S
C1724 C1723 1.516 . S
C1724 C1725 1.502 . S
C1724 C1726 1.561 . S
C1724 C1727 1.526 . S
C1725 H1709 0.959 . S
C1725 H1710 0.959 . S
C1725 H1711 0.961 . S
C1725 C1724 1.502 . S
C1726 H1712 0.960 . S
C1726 H1713 0.961 . S
C1726 H1714 0.959 . S
C1726 C1724 1.561 . S
C1727 C1724 1.526 . S
C1727 C1728 1.396 . S
C1727 C1732 1.390 . S
C1728 C1722 1.465 . S
C1728 C1727 1.396 . S
C1728 C1729 1.399 . S
C1729 H1715 0.929 . S
C1729 C1728 1.399 . S
C1729 C1730 1.385 . S
C1730 H1716 0.931 . S
C1730 C1729 1.385 . S
C1730 C1731 1.389 . S
C1731 C1730 1.389 . S
C1731 C1732 1.387 . S
C1732 H1717 0.930 . S
C1732 C1727 1.390 . S
C1732 C1731 1.387 . S
H1733 C1745 0.930 . S
H1734 C1747 0.930 . S
H1735 C1748 0.930 . S
H1736 C1752 0.959 . S
H1737 C1752 0.959 . S
H1738 C1752 0.961 . S
H1739 C1753 0.960 . S
H1740 C1753 0.961 . S
H1741 C1753 0.959 . S
H1742 C1756 0.929 . S
H1743 C1757 0.931 . S
H1744 C1759 0.930 . S
C1745 H1733 0.930 . S
C1745 C1746 1.399 . S
C1745 C1750 1.399 . S
C1746 C1745 1.399 . S
C1746 C1747 1.376 . S
C1747 H1734 0.930 . S
C1747 C1746 1.376 . S
C1747 C1748 1.388 . S
C1748 H1735 0.930 . S
C1748 C1747 1.388 . S
C1748 C1749 1.390 . S
C1749 C1748 1.390 . S
C1749 C1750 1.394 . S
C1749 C1755 1.465 . S
C1750 C1745 1.399 . S
C1750 C1749 1.394 . S
C1750 C1751 1.516 . S
C1751 C1750 1.516 . S
C1751 C1752 1.502 . S
C1751 C1753 1.561 . S
C1751 C1754 1.526 . S
C1752 H1736 0.959 . S
C1752 H1737 0.959 . S
C1752 H1738 0.961 . S
C1752 C1751 1.502 . S
C1753 H1739 0.960 . S
C1753 H1740 0.961 . S
C1753 H1741 0.959 . S
C1753 C1751 1.561 . S
C1754 C1751 1.526 . S
C1754 C1755 1.396 . S
C1754 C1759 1.390 . S
C1755 C1749 1.465 . S
C1755 C1754 1.396 . S
C1755 C1756 1.399 . S
C1756 H1742 0.929 . S
C1756 C1755 1.399 . S
C1756 C1757 1.385 . S
C1757 H1743 0.931 . S
C1757 C1756 1.385 . S
C1757 C1758 1.389 . S
C1758 C1757 1.389 . S
C1758 C1759 1.387 . S
C1759 H1744 0.930 . S
C1759 C1754 1.390 . S
C1759 C1758 1.387 . S
H1760 C1772 0.930 . S
H1761 C1774 0.930 . S
H1762 C1775 0.930 . S
H1763 C1779 0.959 . S
H1764 C1779 0.959 . S
H1765 C1779 0.961 . S
H1766 C1780 0.960 . S
H1767 C1780 0.961 . S
H1768 C1780 0.959 . S
H1769 C1783 0.929 . S
H1770 C1784 0.931 . S
H1771 C1786 0.930 . S
C1772 H1760 0.930 . S
C1772 C1773 1.399 . S
C1772 C1777 1.399 . S
C1773 C1772 1.399 . S
C1773 C1774 1.376 . S
C1774 H1761 0.930 . S
C1774 C1773 1.376 . S
C1774 C1775 1.388 . S
C1775 H1762 0.930 . S
C1775 C1774 1.388 . S
C1775 C1776 1.390 . S
C1776 C1775 1.390 . S
C1776 C1777 1.394 . S
C1776 C1782 1.465 . S
C1777 C1772 1.399 . S
C1777 C1776 1.394 . S
C1777 C1778 1.516 . S
C1778 C1777 1.516 . S
C1778 C1779 1.502 . S
C1778 C1780 1.561 . S
C1778 C1781 1.526 . S
C1779 H1763 0.959 . S
C1779 H1764 0.959 . S
C1779 H1765 0.961 . S
C1779 C1778 1.502 . S
C1780 H1766 0.960 . S
C1780 H1767 0.961 . S
C1780 H1768 0.959 . S
C1780 C1778 1.561 . S
C1781 C1778 1.526 . S
C1781 C1782 1.396 . S
C1781 C1786 1.390 . S
C1782 C1776 1.465 . S
C1782 C1781 1.396 . S
C1782 C1783 1.399 . S
C1783 H1769 0.929 . S
C1783 C1782 1.399 . S
C1783 C1784 1.385 . S
C1784 H1770 0.931 . S
C1784 C1783 1.385 . S
C1784 C1785 1.389 . S
C1785 C1784 1.389 . S
C1785 C1786 1.387 . S
C1786 H1771 0.930 . S
C1786 C1781 1.390 . S
C1786 C1785 1.387 . S
H1787 C1799 0.930 . S
H1788 C1801 0.930 . S
H1789 C1802 0.930 . S
H1790 C1806 0.959 . S
H1791 C1806 0.959 . S
H1792 C1806 0.961 . S
H1793 C1807 0.960 . S
H1794 C1807 0.961 . S
H1795 C1807 0.959 . S
H1796 C1810 0.929 . S
H1797 C1811 0.931 . S
H1798 C1813 0.930 . S
C1799 H1787 0.930 . S
C1799 C1800 1.399 . S
C1799 C1804 1.399 . S
C1800 C1799 1.399 . S
C1800 C1801 1.376 . S
C1801 H1788 0.930 . S
C1801 C1800 1.376 . S
C1801 C1802 1.388 . S
C1802 H1789 0.930 . S
C1802 C1801 1.388 . S
C1802 C1803 1.390 . S
C1803 C1802 1.390 . S
C1803 C1804 1.394 . S
C1803 C1809 1.465 . S
C1804 C1799 1.399 . S
C1804 C1803 1.394 . S
C1804 C1805 1.516 . S
C1805 C1804 1.516 . S
C1805 C1806 1.502 . S
C1805 C1807 1.561 . S
C1805 C1808 1.526 . S
C1806 H1790 0.959 . S
C1806 H1791 0.959 . S
C1806 H1792 0.961 . S
C1806 C1805 1.502 . S
C1807 H1793 0.960 . S
C1807 H1794 0.961 . S
C1807 H1795 0.959 . S
C1807 C1805 1.561 . S
C1808 C1805 1.526 . S
C1808 C1809 1.396 . S
C1808 C1813 1.390 . S
C1809 C1803 1.465 . S
C1809 C1808 1.396 . S
C1809 C1810 1.399 . S
C1810 H1796 0.929 . S
C1810 C1809 1.399 . S
C1810 C1811 1.385 . S
C1811 H1797 0.931 . S
C1811 C1810 1.385 . S
C1811 C1812 1.389 . S
C1812 C1811 1.389 . S
C1812 C1813 1.387 . S
C1813 H1798 0.930 . S
C1813 C1808 1.390 . S
C1813 C1812 1.387 . S
H1814 C1826 0.930 . S
H1815 C1828 0.930 . S
H1816 C1829 0.930 . S
H1817 C1833 0.959 . S
H1818 C1833 0.959 . S
H1819 C1833 0.961 . S
H1820 C1834 0.960 . S
H1821 C1834 0.961 . S
H1822 C1834 0.959 . S
H1823 C1837 0.929 . S
H1824 C1838 0.931 . S
H1825 C1840 0.930 . S
C1826 H1814 0.930 . S
C1826 C1827 1.399 . S
C1826 C1831 1.399 . S
C1827 C1826 1.399 . S
C1827 C1828 1.376 . S
C1828 H1815 0.930 . S
C1828 C1827 1.376 . S
C1828 C1829 1.388 . S
C1829 H1816 0.930 . S
C1829 C1828 1.388 . S
C1829 C1830 1.390 . S
C1830 C1829 1.390 . S
C1830 C1831 1.394 . S
C1830 C1836 1.465 . S
C1831 C1826 1.399 . S
C1831 C1830 1.394 . S
C1831 C1832 1.516 . S
C1832 C1831 1.516 . S
C1832 C1833 1.502 . S
C1832 C1834 1.561 . S
C1832 C1835 1.526 . S
C1833 H1817 0.959 . S
C1833 H1818 0.959 . S
C1833 H1819 0.961 . S
C1833 C1832 1.502 . S
C1834 H1820 0.960 . S
C1834 H1821 0.961 . S
C1834 H1822 0.959 . S
C1834 C1832 1.561 . S
C1835 C1832 1.526 . S
C1835 C1836 1.396 . S
C1835 C1840 1.390 . S
C1836 C1830 1.465 . S
C1836 C1835 1.396 . S
C1836 C1837 1.399 . S
C1837 H1823 0.929 . S
C1837 C1836 1.399 . S
C1837 C1838 1.385 . S
C1838 H1824 0.931 . S
C1838 C1837 1.385 . S
C1838 C1839 1.389 . S
C1839 C1838 1.389 . S
C1839 C1840 1.387 . S
C1840 H1825 0.930 . S
C1840 C1835 1.390 . S
C1840 C1839 1.387 . S
H1841 C1853 0.930 . S
H1842 C1855 0.930 . S
H1843 C1856 0.930 . S
H1844 C1860 0.959 . S
H1845 C1860 0.959 . S
H1846 C1860 0.961 . S
H1847 C1861 0.960 . S
H1848 C1861 0.961 . S
H1849 C1861 0.959 . S
H1850 C1864 0.929 . S
H1851 C1865 0.931 . S
H1852 C1867 0.930 . S
C1853 H1841 0.930 . S
C1853 C1854 1.399 . S
C1853 C1858 1.399 . S
C1854 C1853 1.399 . S
C1854 C1855 1.376 . S
C1855 H1842 0.930 . S
C1855 C1854 1.376 . S
C1855 C1856 1.388 . S
C1856 H1843 0.930 . S
C1856 C1855 1.388 . S
C1856 C1857 1.390 . S
C1857 C1856 1.390 . S
C1857 C1858 1.394 . S
C1857 C1863 1.465 . S
C1858 C1853 1.399 . S
C1858 C1857 1.394 . S
C1858 C1859 1.516 . S
C1859 C1858 1.516 . S
C1859 C1860 1.502 . S
C1859 C1861 1.561 . S
C1859 C1862 1.526 . S
C1860 H1844 0.959 . S
C1860 H1845 0.959 . S
C1860 H1846 0.961 . S
C1860 C1859 1.502 . S
C1861 H1847 0.960 . S
C1861 H1848 0.961 . S
C1861 H1849 0.959 . S
C1861 C1859 1.561 . S
C1862 C1859 1.526 . S
C1862 C1863 1.396 . S
C1862 C1867 1.390 . S
C1863 C1857 1.465 . S
C1863 C1862 1.396 . S
C1863 C1864 1.399 . S
C1864 H1850 0.929 . S
C1864 C1863 1.399 . S
C1864 C1865 1.385 . S
C1865 H1851 0.931 . S
C1865 C1864 1.385 . S
C1865 C1866 1.389 . S
C1866 C1865 1.389 . S
C1866 C1867 1.387 . S
C1867 H1852 0.930 . S
C1867 C1862 1.390 . S
C1867 C1866 1.387 . S
H1868 C1880 0.930 . S
H1869 C1882 0.930 . S
H1870 C1883 0.930 . S
H1871 C1887 0.959 . S
H1872 C1887 0.959 . S
H1873 C1887 0.961 . S
H1874 C1888 0.960 . S
H1875 C1888 0.961 . S
H1876 C1888 0.959 . S
H1877 C1891 0.929 . S
H1878 C1892 0.931 . S
H1879 C1894 0.930 . S
C1880 H1868 0.930 . S
C1880 C1881 1.399 . S
C1880 C1885 1.399 . S
C1881 C1880 1.399 . S
C1881 C1882 1.376 . S
C1882 H1869 0.930 . S
C1882 C1881 1.376 . S
C1882 C1883 1.388 . S
C1883 H1870 0.930 . S
C1883 C1882 1.388 . S
C1883 C1884 1.390 . S
C1884 C1883 1.390 . S
C1884 C1885 1.394 . S
C1884 C1890 1.465 . S
C1885 C1880 1.399 . S
C1885 C1884 1.394 . S
C1885 C1886 1.516 . S
C1886 C1885 1.516 . S
C1886 C1887 1.502 . S
C1886 C1888 1.561 . S
C1886 C1889 1.526 . S
C1887 H1871 0.959 . S
C1887 H1872 0.959 . S
C1887 H1873 0.961 . S
C1887 C1886 1.502 . S
C1888 H1874 0.960 . S
C1888 H1875 0.961 . S
C1888 H1876 0.959 . S
C1888 C1886 1.561 . S
C1889 C1886 1.526 . S
C1889 C1890 1.396 . S
C1889 C1894 1.390 . S
C1890 C1884 1.465 . S
C1890 C1889 1.396 . S
C1890 C1891 1.399 . S
C1891 H1877 0.929 . S
C1891 C1890 1.399 . S
C1891 C1892 1.385 . S
C1892 H1878 0.931 . S
C1892 C1891 1.385 . S
C1892 C1893 1.389 . S
C1893 C1892 1.389 . S
C1893 C1894 1.387 . S
C1894 H1879 0.930 . S
C1894 C1889 1.390 . S
C1894 C1893 1.387 . S
H1895 C1907 0.930 . S
H1896 C1909 0.930 . S
H1897 C1910 0.930 . S
H1898 C1914 0.959 . S
H1899 C1914 0.959 . S
H1900 C1914 0.961 . S
H1901 C1915 0.960 . S
H1902 C1915 0.961 . S
H1903 C1915 0.959 . S
H1904 C1918 0.929 . S
H1905 C1919 0.931 . S
H1906 C1921 0.930 . S
C1907 H1895 0.930 . S
C1907 C1908 1.399 . S
C1907 C1912 1.399 . S
C1908 C1907 1.399 . S
C1908 C1909 1.376 . S
C1909 H1896 0.930 . S
C1909 C1908 1.376 . S
C1909 C1910 1.388 . S
C1910 H1897 0.930 . S
C1910 C1909 1.388 . S
C1910 C1911 1.390 . S
C1911 C1910 1.390 . S
C1911 C1912 1.394 . S
C1911 C1917 1.465 . S
C1912 C1907 1.399 . S
C1912 C1911 1.394 . S
C1912 C1913 1.516 . S
C1913 C1912 1.516 . S
C1913 C1914 1.502 . S
C1913 C1915 1.561 . S
C1913 C1916 1.526 . S
C1914 H1898 0.959 . S
C1914 H1899 0.959 . S
C1914 H1900 0.961 . S
C1914 C1913 1.502 . S
C1915 H1901 0.960 . S
C1915 H1902 0.961 . S
C1915 H1903 0.959 . S
C1915 C1913 1.561 . S
C1916 C1913 1.526 . S
C1916 C1917 1.396 . S
C1916 C1921 1.390 . S
C1917 C1911 1.465 . S
C1917 C1916 1.396 . S
C1917 C1918 1.399 . S
C1918 H1904 0.929 . S
C1918 C1917 1.399 . S
C1918 C1919 1.385 . S
C1919 H1905 0.931 . S
C1919 C1918 1.385 . S
C1919 C1920 1.389 . S
C1920 C1919 1.389 . S
C1920 C1921 1.387 . S
C1921 H1906 0.930 . S
C1921 C1916 1.390 . S
C1921 C1920 1.387 . S
H1922 C1934 0.930 . S
H1923 C1936 0.930 . S
H1924 C1937 0.930 . S
H1925 C1941 0.959 . S
H1926 C1941 0.959 . S
H1927 C1941 0.961 . S
H1928 C1942 0.960 . S
H1929 C1942 0.961 . S
H1930 C1942 0.959 . S
H1931 C1945 0.929 . S
H1932 C1946 0.931 . S
H1933 C1948 0.930 . S
C1934 H1922 0.930 . S
C1934 C1935 1.399 . S
C1934 C1939 1.399 . S
C1935 C1934 1.399 . S
C1935 C1936 1.376 . S
C1936 H1923 0.930 . S
C1936 C1935 1.376 . S
C1936 C1937 1.388 . S
C1937 H1924 0.930 . S
C1937 C1936 1.388 . S
C1937 C1938 1.390 . S
C1938 C1937 1.390 . S
C1938 C1939 1.394 . S
C1938 C1944 1.465 . S
C1939 C1934 1.399 . S
C1939 C1938 1.394 . S
C1939 C1940 1.516 . S
C1940 C1939 1.516 . S
C1940 C1941 1.502 . S
C1940 C1942 1.561 . S
C1940 C1943 1.526 . S
C1941 H1925 0.959 . S
C1941 H1926 0.959 . S
C1941 H1927 0.961 . S
C1941 C1940 1.502 . S
C1942 H1928 0.960 . S
C1942 H1929 0.961 . S
C1942 H1930 0.959 . S
C1942 C1940 1.561 . S
C1943 C1940 1.526 . S
C1943 C1944 1.396 . S
C1943 C1948 1.390 . S
C1944 C1938 1.465 . S
C1944 C1943 1.396 . S
C1944 C1945 1.399 . S
C1945 H1931 0.929 . S
C1945 C1944 1.399 . S
C1945 C1946 1.385 . S
C1946 H1932 0.931 . S
C1946 C1945 1.385 . S
C1946 C1947 1.389 . S
C1947 C1946 1.389 . S
C1947 C1948 1.387 . S
C1948 H1933 0.930 . S
C1948 C1943 1.390 . S
C1948 C1947 1.387 . S
H1949 C1961 0.930 . S
H1950 C1963 0.930 . S
H1951 C1964 0.930 . S
H1952 C1968 0.959 . S
H1953 C1968 0.959 . S
H1954 C1968 0.961 . S
H1955 C1969 0.960 . S
H1956 C1969 0.961 . S
H1957 C1969 0.959 . S
H1958 C1972 0.929 . S
H1959 C1973 0.931 . S
H1960 C1975 0.930 . S
C1961 H1949 0.930 . S
C1961 C1962 1.399 . S
C1961 C1966 1.399 . S
C1962 C1961 1.399 . S
C1962 C1963 1.376 . S
C1963 H1950 0.930 . S
C1963 C1962 1.376 . S
C1963 C1964 1.388 . S
C1964 H1951 0.930 . S
C1964 C1963 1.388 . S
C1964 C1965 1.390 . S
C1965 C1964 1.390 . S
C1965 C1966 1.394 . S
C1965 C1971 1.465 . S
C1966 C1961 1.399 . S
C1966 C1965 1.394 . S
C1966 C1967 1.516 . S
C1967 C1966 1.516 . S
C1967 C1968 1.502 . S
C1967 C1969 1.561 . S
C1967 C1970 1.526 . S
C1968 H1952 0.959 . S
C1968 H1953 0.959 . S
C1968 H1954 0.961 . S
C1968 C1967 1.502 . S
C1969 H1955 0.960 . S
C1969 H1956 0.961 . S
C1969 H1957 0.959 . S
C1969 C1967 1.561 . S
C1970 C1967 1.526 . S
C1970 C1971 1.396 . S
C1970 C1975 1.390 . S
C1971 C1965 1.465 . S
C1971 C1970 1.396 . S
C1971 C1972 1.399 . S
C1972 H1958 0.929 . S
C1972 C1971 1.399 . S
C1972 C1973 1.385 . S
C1973 H1959 0.931 . S
C1973 C1972 1.385 . S
C1973 C1974 1.389 . S
C1974 C1973 1.389 . S
C1974 C1975 1.387 . S
C1975 H1960 0.930 . S
C1975 C1970 1.390 . S
C1975 C1974 1.387 . S
C477 C416 2.251 . S
C489 C3 2.323 1_565 S
C504 C445 2.238 . S
C516 C32 2.324 1_545 S
C531 C61 2.298 . S
C543 C242 2.257 . S
C558 C271 2.261 . S
C570 C90 2.298 . S
C585 C119 2.301 . S
C597 C300 2.270 . S
C612 C329 2.226 . S
C624 C148 2.304 . S
C639 C358 2.223 . S
C651 C177 2.327 . S
C666 C206 2.319 . S
C678 C387 2.222 . S
C693 C235 2.302 1_565 S
C705 C184 2.271 . S
C720 C264 2.299 1_545 S
C732 C213 2.237 . S
C747 C293 2.312 . S
C759 C10 2.228 . S
C774 C322 2.311 . S
C786 C39 2.266 . S
C801 C351 2.320 . S
C813 C68 2.220 . S
C828 C97 2.266 . S
C840 C380 2.317 . S
C855 C126 2.273 . S
C867 C409 2.300 . S
C882 C155 2.263 . S
C894 C438 2.312 . S
C909 C385 0.737 . S
C921 C8 0.721 . S
C936 C356 0.821 . S
C948 C37 0.835 . S
C963 C66 0.821 . S
C975 C95 0.821 . S
C990 C124 0.826 . S
C1002 C269 0.799 . S
C1017 C240 0.809 . S
C1029 C153 0.830 . S
C1044 C182 0.820 . S
C1056 C211 0.818 . S
C1071 C327 0.743 . S
C1083 C298 0.746 . S
C1098 C414 0.737 . S
C1110 C443 0.736 . S
C1125 C274 2.270 . S
C1137 C5 2.551 . S
C1152 C34 2.538 . S
C1164 C245 2.324 . S
C1179 C63 2.531 . S
C1191 C216 2.336 . S
C1206 C187 2.317 . S
C1218 C92 2.534 . S
C1233 C121 2.545 . S
C1245 C390 2.314 . S
C1260 C361 2.330 . S
C1272 C150 2.534 . S
C1287 C100 2.268 . S
C1299 C179 2.563 . S
C1314 C71 2.283 . S
C1326 C208 2.547 . S
C1341 C42 2.255 . S
C1353 C237 2.568 . S
C1368 C13 2.327 . S
C1380 C266 2.534 . S
C1395 C448 2.284 . S
C1407 C295 2.558 . S
C1422 C419 2.262 . S
C1434 C324 2.557 . S
C1449 C353 2.560 . S
C1461 C158 2.272 . S
C1476 C129 2.323 . S
C1488 C382 2.530 . S
C1503 C411 2.560 . S
C1515 C332 2.277 . S
C1530 C303 2.271 . S
C1542 C440 2.562 . S
C1557 C224 1.072 . S
C1569 C15 0.982 . S
C1584 C44 1.118 . S
C1596 C195 0.883 . S
C1611 C73 1.116 . S
C1623 C398 0.915 . S
C1638 C102 1.073 . S
C1650 C369 0.914 . S
C1665 C131 1.009 . S
C1677 C108 1.002 . S
C1692 C79 1.055 . S
C1704 C160 0.971 . S
C1719 C189 1.009 . S
C1731 C282 1.054 . S
C1746 C253 0.883 . S
C1758 C218 1.123 . S
C1773 C247 0.962 . S
C1785 C456 1.080 . S
C1800 C276 1.108 . S
C1812 C427 0.889 . S
C1827 C305 1.003 . S
C1839 C166 1.059 . S
C1854 C137 0.888 . S
C1866 C334 1.123 . S
C1881 C340 0.950 . S
C1893 C363 1.091 . S
C1908 C311 1.077 . S
C1920 C392 0.976 . S
C1935 C421 0.965 . S
C1947 C50 1.050 . S
C1962 C450 1.078 . S
C1974 C21 0.910 . S
