# Generated by pormake.
# Topology umz, (4)-cn, num edge types: 1
# Building blocks:
#     Node 0, Type 0, BuildingBlock: NAHDIM_clean_sbu_0, # of connection points: 4
#     Node 1, Type 0, BuildingBlock: NAHDIM_clean_sbu_0, # of connection points: 4
#     Node 2, Type 0, BuildingBlock: NAHDIM_clean_sbu_0, # of connection points: 4
#     Node 3, Type 0, BuildingBlock: NAHDIM_clean_sbu_0, # of connection points: 4
#     Node 4, Type 0, BuildingBlock: NAHDIM_clean_sbu_0, # of connection points: 4
#     Node 5, Type 0, BuildingBlock: NAHDIM_clean_sbu_0, # of connection points: 4
#     Node 6, Type 0, BuildingBlock: NAHDIM_clean_sbu_0, # of connection points: 4
#     Node 7, Type 0, BuildingBlock: NAHDIM_clean_sbu_0, # of connection points: 4
#     Node 8, Type 0, BuildingBlock: NAHDIM_clean_sbu_0, # of connection points: 4
#     Node 9, Type 0, BuildingBlock: NAHDIM_clean_sbu_0, # of connection points: 4
#     Node 10, Type 0, BuildingBlock: NAHDIM_clean_sbu_0, # of connection points: 4
#     Node 11, Type 0, BuildingBlock: NAHDIM_clean_sbu_0, # of connection points: 4
#     Node 12, Type 0, BuildingBlock: NAHDIM_clean_sbu_0, # of connection points: 4
#     Node 13, Type 0, BuildingBlock: NAHDIM_clean_sbu_0, # of connection points: 4
#     Node 14, Type 0, BuildingBlock: NAHDIM_clean_sbu_0, # of connection points: 4
#     Node 15, Type 0, BuildingBlock: NAHDIM_clean_sbu_0, # of connection points: 4
#     Edge 16, Type (0, 0), BuildingBlock: KIFKEQ_clean_linker_1, # of connection points: 2
#     Edge 17, Type (0, 0), BuildingBlock: KIFKEQ_clean_linker_1, # of connection points: 2
#     Edge 18, Type (0, 0), BuildingBlock: KIFKEQ_clean_linker_1, # of connection points: 2
#     Edge 19, Type (0, 0), BuildingBlock: KIFKEQ_clean_linker_1, # of connection points: 2
#     Edge 20, Type (0, 0), BuildingBlock: KIFKEQ_clean_linker_1, # of connection points: 2
#     Edge 21, Type (0, 0), BuildingBlock: KIFKEQ_clean_linker_1, # of connection points: 2
#     Edge 22, Type (0, 0), BuildingBlock: KIFKEQ_clean_linker_1, # of connection points: 2
#     Edge 23, Type (0, 0), BuildingBlock: KIFKEQ_clean_linker_1, # of connection points: 2
#     Edge 24, Type (0, 0), BuildingBlock: KIFKEQ_clean_linker_1, # of connection points: 2
#     Edge 25, Type (0, 0), BuildingBlock: KIFKEQ_clean_linker_1, # of connection points: 2
#     Edge 26, Type (0, 0), BuildingBlock: KIFKEQ_clean_linker_1, # of connection points: 2
#     Edge 27, Type (0, 0), BuildingBlock: KIFKEQ_clean_linker_1, # of connection points: 2
#     Edge 28, Type (0, 0), BuildingBlock: KIFKEQ_clean_linker_1, # of connection points: 2
#     Edge 29, Type (0, 0), BuildingBlock: KIFKEQ_clean_linker_1, # of connection points: 2
#     Edge 30, Type (0, 0), BuildingBlock: KIFKEQ_clean_linker_1, # of connection points: 2
#     Edge 31, Type (0, 0), BuildingBlock: KIFKEQ_clean_linker_1, # of connection points: 2
#     Edge 32, Type (0, 0), BuildingBlock: KIFKEQ_clean_linker_1, # of connection points: 2
#     Edge 33, Type (0, 0), BuildingBlock: KIFKEQ_clean_linker_1, # of connection points: 2
#     Edge 34, Type (0, 0), BuildingBlock: KIFKEQ_clean_linker_1, # of connection points: 2
#     Edge 35, Type (0, 0), BuildingBlock: KIFKEQ_clean_linker_1, # of connection points: 2
#     Edge 36, Type (0, 0), BuildingBlock: KIFKEQ_clean_linker_1, # of connection points: 2
#     Edge 37, Type (0, 0), BuildingBlock: KIFKEQ_clean_linker_1, # of connection points: 2
#     Edge 38, Type (0, 0), BuildingBlock: KIFKEQ_clean_linker_1, # of connection points: 2
#     Edge 39, Type (0, 0), BuildingBlock: KIFKEQ_clean_linker_1, # of connection points: 2
#     Edge 40, Type (0, 0), BuildingBlock: KIFKEQ_clean_linker_1, # of connection points: 2
#     Edge 41, Type (0, 0), BuildingBlock: KIFKEQ_clean_linker_1, # of connection points: 2
#     Edge 42, Type (0, 0), BuildingBlock: KIFKEQ_clean_linker_1, # of connection points: 2
#     Edge 43, Type (0, 0), BuildingBlock: KIFKEQ_clean_linker_1, # of connection points: 2
#     Edge 44, Type (0, 0), BuildingBlock: KIFKEQ_clean_linker_1, # of connection points: 2
#     Edge 45, Type (0, 0), BuildingBlock: KIFKEQ_clean_linker_1, # of connection points: 2
#     Edge 46, Type (0, 0), BuildingBlock: KIFKEQ_clean_linker_1, # of connection points: 2
#     Edge 47, Type (0, 0), BuildingBlock: KIFKEQ_clean_linker_1, # of connection points: 2
# Relax obj value: 0.220
# Max RMSD: 0.162
# Mean RMSD: 0.160
data_MOF--net-umz--node1-NAHDIM_clean_sbu_0--edge1-KIFKEQ_clean_linker_1
_symmetry_space_group_name_H-M    P1
_symmetry_Int_Tables_number       1
_symmetry_cell_setting            triclinic
loop_
_symmetry_equiv_pos_as_xyz
'x, y, z'
_cell_length_a     60.961705
_cell_length_b     60.999903
_cell_length_c     22.139528
_cell_angle_alpha  90.011748
_cell_angle_beta   89.985489
_cell_angle_gamma 90.006627
loop_
_atom_site_label
_atom_site_type_symbol
_atom_site_fract_x
_atom_site_fract_y
_atom_site_fract_z
_atom_type_partial_charge
C0 C 0.02271 0.67529 0.12965 0.0
O1 O 0.02334 0.65688 0.09892 0.0
O2 O 0.00634 0.6279 0.2381 0.0
Zn3 Zn 0.03371 0.64511 0.22046 0.0
O4 O 0.05212 0.6295 0.15846 0.0
C5 C 0.04375 0.64171 0.34736 0.0
O6 O 0.0224 0.63946 0.35239 0.0
O7 O 0.02621 0.67481 0.1863 0.0
C8 C 0.06755 0.61621 0.17067 0.0
O9 O 0.0716 0.61113 0.22724 0.0
C10 C 0.99785 0.6143 0.20153 0.0
O11 O 0.00671 0.61161 0.14794 0.0
O12 O 0.05188 0.64642 0.29611 0.0
C13 C 0.81486 0.01511 0.64839 0.0
O14 O 0.82304 0.99566 0.6602 0.0
O15 O 0.86746 -0.0013 0.69791 0.0
Zn16 Zn 0.8581 0.02982 0.68227 0.0
O17 O 0.87448 0.04314 0.61233 0.0
C18 C 0.88805 0.04575 0.76204 0.0
O19 O 0.89927 0.03361 0.72395 0.0
O20 O 0.82624 0.03207 0.65982 0.0
C21 C 0.87545 0.06397 0.61111 0.0
O22 O 0.86598 0.07524 0.65445 0.0
C23 C 0.88033 0.98813 0.66349 0.0
O24 O 0.88663 0.99704 0.61233 0.0
O25 O 0.86734 0.04702 0.7556 0.0
C26 C 0.49798 0.82614 0.08503 0.0
O27 O 0.50329 0.84417 0.05603 0.0
O28 O 0.51464 0.87238 0.18992 0.0
Zn29 Zn 0.48578 0.85809 0.17018 0.0
O30 O 0.46985 0.8759 0.10771 0.0
C31 C 0.47616 0.85983 0.29746 0.0
O32 O 0.49742 0.85688 0.30264 0.0
O33 O 0.4901 0.82765 0.13803 0.0
C34 C 0.44913 0.87451 0.10247 0.0
O35 O 0.43826 0.86105 0.13783 0.0
C36 C 0.5235 0.88676 0.15637 0.0
O37 O 0.51438 0.8916 0.10431 0.0
O38 O 0.46746 0.85913 0.24535 0.0
C39 C 0.67674 0.48036 0.61227 0.0
O40 O 0.65762 0.48215 0.58534 0.0
O41 O 0.62723 0.48759 0.7092 0.0
Zn42 Zn 0.64851 0.46265 0.69928 0.0
O43 O 0.63608 0.44053 0.64153 0.0
C44 C 0.65048 0.45827 0.829 0.0
O45 O 0.65251 0.4797 0.82763 0.0
O46 O 0.67743 0.47272 0.66568 0.0
C47 C 0.61558 0.43738 0.63604 0.0
O48 O 0.60188 0.44918 0.66831 0.0
C49 C 0.63266 0.50739 0.71894 0.0
O50 O 0.65352 0.51278 0.71927 0.0
O51 O 0.65058 0.44766 0.7796 0.0
C52 C 0.01506 0.81935 0.90792 0.0
O53 O 0.01538 0.83779 0.93855 0.0
O54 O 0.99241 0.86483 0.80035 0.0
Zn55 Zn 0.02131 0.85011 0.8153 0.0
O56 O 0.04025 0.86715 0.87326 0.0
C57 C 0.05706 0.85362 0.73099 0.0
O58 O 0.06888 0.85394 0.7806 0.0
O59 O 0.01686 0.82 0.85068 0.0
C60 C 0.04247 0.88778 0.87775 0.0
O61 O 0.03102 0.90082 0.84262 0.0
C62 C 0.98141 0.87637 0.83721 0.0
O63 O 0.98851 0.87891 0.89279 0.0
O64 O 0.03658 0.85004 0.73485 0.0
C65 C 0.68992 0.02037 0.35048 0.0
O66 O 0.68057 0.00178 0.33522 0.0
O67 O 0.63735 0.01007 0.28798 0.0
Zn68 Zn 0.65009 0.03994 0.30296 0.0
O69 O 0.63269 0.05649 0.36495 0.0
C70 C 0.64148 0.07576 0.22125 0.0
O71 O 0.64006 0.08711 0.27153 0.0
O72 O 0.68065 0.03835 0.33675 0.0
C73 C 0.61199 0.05856 0.36768 0.0
O74 O 0.59953 0.04842 0.32816 0.0
C75 C 0.62633 -0.00129 0.32527 0.0
O76 O 0.62333 0.00605 0.38044 0.0
O77 O 0.64764 0.05588 0.22371 0.0
C78 C 0.49684 0.67927 0.87831 0.0
O79 O 0.50124 0.66149 0.90955 0.0
O80 O 0.50811 0.62788 0.80305 0.0
Zn81 Zn 0.48064 0.64631 0.80367 0.0
O82 O 0.45872 0.6358 0.86511 0.0
C83 C 0.4776 0.63767 0.67613 0.0
O84 O 0.49885 0.6348 0.68171 0.0
O85 O 0.48808 0.67724 0.8265 0.0
C86 C 0.449 0.6174 0.86286 0.0
O87 O 0.45379 0.60356 0.81931 0.0
C88 C 0.51253 0.61209 0.83841 0.0
O89 O 0.49888 0.60724 0.88234 0.0
O90 O 0.46656 0.64396 0.72169 0.0
C91 C 0.8176 0.48967 0.37855 0.0
O92 O 0.83574 0.4952 0.40674 0.0
O93 O 0.8683 0.5004 0.29711 0.0
Zn94 Zn 0.84987 0.47303 0.30172 0.0
O95 O 0.86185 0.45195 0.36314 0.0
C96 C 0.85587 0.47006 0.17362 0.0
O97 O 0.85538 0.49153 0.17827 0.0
O98 O 0.81905 0.48013 0.32761 0.0
C99 C 0.88136 0.44465 0.36216 0.0
O100 O 0.89492 0.45137 0.3199 0.0
C101 C 0.88252 0.50687 0.33506 0.0
O102 O 0.88539 0.49585 0.38541 0.0
O103 O 0.852 0.4585 0.22024 0.0
C104 C 0.95915 0.32649 0.87805 0.0
O105 O 0.94179 0.33918 0.88101 0.0
O106 O 0.95697 0.3611 0.72714 0.0
Zn107 Zn 0.97337 0.36223 0.80628 0.0
O108 O 0.95707 0.38198 0.86391 0.0
C109 C 0.00634 0.38736 0.74598 0.0
O110 O 0.98958 0.39163 0.71063 0.0
O111 O 0.97534 0.33248 0.84577 0.0
C112 C 0.9474 0.39969 0.84965 0.0
O113 O 0.94875 0.40697 0.79393 0.0
C114 C 0.93625 0.3629 0.7238 0.0
O115 O 0.92461 0.36296 0.77375 0.0
O116 O 0.00357 0.3748 0.7912 0.0
C117 C 0.18176 0.9564 0.35823 0.0
O118 O 0.17008 0.93838 0.35388 0.0
O119 O 0.13427 0.96205 0.2397 0.0
Zn120 Zn 0.14082 0.97352 0.32335 0.0
O121 O 0.12743 0.95313 0.38433 0.0
C122 C 0.13243 0.01853 0.29477 0.0
O123 O 0.14762 0.0147 0.254 0.0
O124 O 0.17308 0.97452 0.34291 0.0
C125 C 0.10714 0.94905 0.39043 0.0
O126 O 0.09281 0.95938 0.35649 0.0
C127 C 0.13039 0.94178 0.23162 0.0
O128 O 0.13261 0.9282 0.27724 0.0
O129 O 0.12715 0.00333 0.33123 0.0
C130 C 0.52648 0.19306 0.82882 0.0
O131 O 0.54514 0.18631 0.8057 0.0
O132 O 0.52978 0.14408 0.72727 0.0
Zn133 Zn 0.51551 0.14846 0.80865 0.0
O134 O 0.53575 0.13713 0.87306 0.0
C135 C 0.47458 0.13438 0.76304 0.0
O136 O 0.48031 0.14831 0.72061 0.0
O137 O 0.5103 0.17995 0.83001 0.0
C138 C 0.54134 0.11727 0.88054 0.0
O139 O 0.53282 0.10203 0.84578 0.0
C140 C 0.5503 0.14076 0.72272 0.0
O141 O 0.56264 0.14239 0.77112 0.0
O142 O 0.48711 0.13183 0.80836 0.0
C143 C 0.3206 0.55047 0.3767 0.0
O144 O 0.33322 0.56793 0.37707 0.0
O145 O 0.35594 0.55147 0.22539 0.0
Zn146 Zn 0.35614 0.53575 0.30565 0.0
O147 O 0.37583 0.55222 0.36267 0.0
C148 C 0.37844 0.50005 0.24584 0.0
O149 O 0.37763 0.51347 0.19951 0.0
O150 O 0.32635 0.534 0.34522 0.0
C151 C 0.395 0.55886 0.34953 0.0
O152 O 0.40316 0.55455 0.29589 0.0
C153 C 0.35972 0.57191 0.22141 0.0
O154 O 0.36073 0.58368 0.27102 0.0
O155 O 0.36949 0.50572 0.29535 0.0
C156 C 0.96525 0.18925 0.13201 0.0
O157 O 0.94798 0.17639 0.13321 0.0
O158 O 0.96577 0.14694 0.26194 0.0
Zn159 Zn 0.98319 0.15128 0.18522 0.0
O160 O 0.9689 0.13278 0.12159 0.0
C161 C 0.02262 0.13857 0.24896 0.0
O162 O 0.01225 0.14686 0.29571 0.0
O163 O 0.98306 0.18248 0.15535 0.0
C164 C 0.9733 0.13434 0.06576 0.0
O165 O 0.98867 0.148 0.04796 0.0
C166 C 0.94611 0.14004 0.25846 0.0
O167 O 0.93692 0.13806 0.20512 0.0
O168 O 0.01374 0.13962 0.19711 0.0
C169 C 0.32111 0.95315 0.60374 0.0
O170 O 0.33401 0.93591 0.60192 0.0
O171 O 0.36255 0.95794 0.74467 0.0
Zn172 Zn 0.35883 0.97084 0.66114 0.0
O173 O 0.37663 0.95188 0.60551 0.0
C174 C 0.36416 0.01588 0.69733 0.0
O175 O 0.34894 0.01052 0.73669 0.0
O176 O 0.32768 0.97031 0.63088 0.0
C177 C 0.39742 0.952 0.60243 0.0
O178 O 0.4086 0.96602 0.6353 0.0
C179 C 0.37896 0.96438 0.77546 0.0
O180 O 0.39155 0.97993 0.75359 0.0
O181 O 0.37047 0.00169 0.65904 0.0
C182 C 0.53867 0.31678 0.12659 0.0
O183 O 0.55856 0.32371 0.13905 0.0
O184 O 0.5405 0.35243 0.2732 0.0
Zn185 Zn 0.5282 0.35595 0.1892 0.0
O186 O 0.55072 0.37192 0.13971 0.0
C187 C 0.49607 0.38544 0.23902 0.0
O188 O 0.50983 0.38545 0.28467 0.0
O189 O 0.52234 0.32743 0.1468 0.0
C190 C 0.55467 0.39231 0.1436 0.0
O191 O 0.54288 0.40454 0.18008 0.0
C192 C 0.56113 0.35302 0.28145 0.0
O193 O 0.57419 0.3527 0.23427 0.0
O194 O 0.50042 0.3739 0.19271 0.0
C195 C 0.19244 0.54401 0.66534 0.0
O196 O 0.18187 0.56224 0.67749 0.0
O197 O 0.15442 0.54048 0.80544 0.0
Zn198 Zn 0.15429 0.52737 0.7218 0.0
O199 O 0.13499 0.54663 0.6702 0.0
C200 C 0.13589 0.48509 0.6849 0.0
O201 O 0.14276 0.49041 0.63062 0.0
O202 O 0.18435 0.52591 0.68316 0.0
C203 C 0.13684 0.54765 0.61311 0.0
O204 O 0.15121 0.53504 0.58572 0.0
C205 C 0.15128 0.56092 0.8126 0.0
O206 O 0.15049 0.57365 0.76484 0.0
O207 O 0.13989 0.49783 0.72891 0.0
H208 H 0.00962 0.71468 0.17666 0.0
H209 H 0.02863 0.68315 0.01005 0.0
H210 H 0.00512 0.7493 0.12295 0.0
H211 H 0.02545 0.71778 0.95699 0.0
H212 H 0.00306 0.7792 0.8637 0.0
H213 H 0.00225 0.74442 0.91799 0.0
H214 H 0.02547 0.77724 0.07906 0.0
H215 H 0.02498 0.81196 0.02571 0.0
C216 C 0.01294 0.71521 0.12861 0.0
C217 C 0.01947 0.69625 0.09756 0.0
C218 C 0.01052 0.73507 0.09778 0.0
C219 C 0.015 0.73648 0.03543 0.0
C220 C 0.0214 0.71736 0.00458 0.0
C221 C 0.0234 0.69747 0.03516 0.0
C222 C 0.00782 0.77891 0.91083 0.0
C223 C 0.01408 0.79826 0.94045 0.0
C224 C 0.00751 0.75897 0.94197 0.0
C225 C 0.01389 0.75788 0.0031 0.0
C226 C 0.02001 0.77738 0.03254 0.0
C227 C 0.0199 0.79733 0.00176 0.0
H228 H 0.71744 0.98632 0.37676 0.0
H229 H 0.70512 0.05438 0.41863 0.0
H230 H 0.74692 0.98566 0.45105 0.0
H231 H 0.73375 0.05351 0.49481 0.0
H232 H 0.80112 0.05061 0.58379 0.0
H233 H 0.77155 0.0521 0.51052 0.0
H234 H 0.75334 0.98559 0.55595 0.0
H235 H 0.78373 0.9838 0.6273 0.0
C236 C 0.72106 0.00114 0.40181 0.0
C237 C 0.70902 0.02041 0.39163 0.0
C238 C 0.73779 0.00072 0.44497 0.0
C239 C 0.74265 0.01947 0.47959 0.0
C240 C 0.73074 0.03882 0.46861 0.0
C241 C 0.71426 0.03933 0.42487 0.0
C242 C 0.79063 0.03639 0.57876 0.0
C243 C 0.79481 0.01705 0.61122 0.0
C244 C 0.7736 0.03725 0.53667 0.0
C245 C 0.7601 0.01889 0.52666 0.0
C246 C 0.76372 -0.00014 0.56124 0.0
C247 C 0.78098 -0.00109 0.60272 0.0
H248 H 0.51235 0.81782 0.97046 0.0
H249 H 0.48831 0.78574 0.13148 0.0
H250 H 0.51438 0.78249 0.91927 0.0
H251 H 0.49004 0.75048 0.07991 0.0
H252 H 0.51408 0.68858 0.98902 0.0
H253 H 0.51641 0.72416 0.03846 0.0
H254 H 0.4886 0.75495 0.88034 0.0
H255 H 0.48656 0.71936 0.83034 0.0
C256 C 0.50756 0.80323 0.99502 0.0
C257 C 0.50012 0.80459 0.05503 0.0
C258 C 0.50862 0.78302 0.96553 0.0
C259 C 0.50234 0.76371 0.99548 0.0
C260 C 0.49526 0.76503 0.05583 0.0
C261 C 0.49415 0.78525 0.08528 0.0
C262 C 0.50864 0.70295 0.96451 0.0
C263 C 0.50001 0.70112 0.90585 0.0
C264 C 0.50986 0.72332 0.99303 0.0
C265 C 0.50252 0.74233 0.96352 0.0
C266 C 0.49456 0.74062 0.90409 0.0
C267 C 0.49331 0.72022 0.87554 0.0
H268 H 0.68057 0.49482 0.49601 0.0
H269 H 0.71907 0.4769 0.6523 0.0
H270 H 0.71412 0.50014 0.43791 0.0
H271 H 0.75258 0.48191 0.59386 0.0
H272 H 0.80964 0.50877 0.48775 0.0
H273 H 0.77526 0.50949 0.54373 0.0
H274 H 0.74283 0.47648 0.39599 0.0
H275 H 0.77718 0.47604 0.33943 0.0
C276 C 0.69619 0.49215 0.51813 0.0
C277 C 0.69715 0.48532 0.57874 0.0
C278 C 0.7154 0.49509 0.48467 0.0
C279 C 0.736 0.49134 0.51113 0.0
C280 C 0.73698 0.48516 0.57229 0.0
C281 C 0.71776 0.48217 0.60573 0.0
C282 C 0.79513 0.50188 0.46684 0.0
C283 C 0.79619 0.49219 0.40927 0.0
C284 C 0.77546 0.50219 0.49914 0.0
C285 C 0.75638 0.49286 0.47459 0.0
C286 C 0.75721 0.48397 0.41599 0.0
C287 C 0.77692 0.48363 0.38365 0.0
H288 H 0.99246 0.29631 0.88422 0.0
H289 H 0.92824 0.31116 0.95618 0.0
H290 H 0.99412 0.26355 0.94752 0.0
H291 H 0.93014 0.27887 0.02016 0.0
H292 H 0.93021 0.20668 0.07282 0.0
H293 H 0.92913 0.2396 0.0112 0.0
H294 H 0.99715 0.25238 0.0533 0.0
H295 H 0.9984 0.21899 0.11415 0.0
C296 C 0.97873 0.29261 0.91352 0.0
C297 C 0.96018 0.30629 0.91494 0.0
C298 C 0.97975 0.27394 0.95015 0.0
C299 C 0.96226 0.2686 0.98892 0.0
C300 C 0.94376 0.28233 0.99022 0.0
C301 C 0.94271 0.30091 0.95362 0.0
C302 C 0.94493 0.21655 0.06934 0.0
C303 C 0.9644 0.2102 0.09845 0.0
C304 C 0.94428 0.2355 0.03412 0.0
C305 C 0.96306 0.24863 0.02726 0.0
C306 C 0.98248 0.24246 0.05703 0.0
C307 C 0.98314 0.22344 0.09231 0.0
H308 H 0.30631 0.92184 0.52602 0.0
H309 H 0.28943 0.98501 0.60123 0.0
H310 H 0.27381 0.92301 0.46272 0.0
H311 H 0.25636 0.98584 0.53917 0.0
H312 H 0.21034 0.99044 0.37766 0.0
H313 H 0.24432 0.98964 0.43608 0.0
H314 H 0.23509 0.92039 0.46883 0.0
H315 H 0.20176 0.92104 0.40907 0.0
C316 C 0.2955 0.93587 0.52966 0.0
C317 C 0.30044 0.95332 0.5688 0.0
C318 C 0.2768 0.93651 0.49338 0.0
C319 C 0.26244 0.95453 0.49572 0.0
C320 C 0.26725 0.97189 0.53545 0.0
C321 C 0.28608 0.97131 0.57149 0.0
C322 C 0.21575 0.97501 0.39674 0.0
C323 C 0.20335 0.95581 0.38868 0.0
C324 C 0.2351 0.97459 0.43073 0.0
C325 C 0.24238 0.95498 0.45754 0.0
C326 C 0.23017 0.93573 0.44826 0.0
C327 C 0.21096 0.93612 0.41407 0.0
H328 H 0.55713 0.22562 0.83186 0.0
H329 H 0.49445 0.20672 0.90672 0.0
H330 H 0.55886 0.25635 0.90192 0.0
H331 H 0.49651 0.23699 0.97812 0.0
H332 H 0.50061 0.30391 0.07132 0.0
H333 H 0.49628 0.27589 0.99361 0.0
H334 H 0.56521 0.26013 0.00805 0.0
H335 H 0.56965 0.28853 0.08412 0.0
C336 C 0.54362 0.22816 0.86286 0.0
C337 C 0.52576 0.21363 0.86407 0.0
C338 C 0.5447 0.24564 0.90344 0.0
C339 C 0.52804 0.24888 0.94649 0.0
C340 C 0.5096 0.23504 0.94547 0.0
C341 C 0.50843 0.21765 0.90452 0.0
C342 C 0.5148 0.29435 0.05813 0.0
C343 C 0.53549 0.29847 0.08374 0.0
C344 C 0.51231 0.27829 0.01359 0.0
C345 C 0.53044 0.26593 0.99402 0.0
C346 C 0.551 0.26972 0.02089 0.0
C347 C 0.55351 0.28585 0.06503 0.0
H348 H 0.28965 0.51788 0.38524 0.0
H349 H 0.30819 0.58054 0.46074 0.0
H350 H 0.25879 0.51595 0.45558 0.0
H351 H 0.27804 0.57827 0.53192 0.0
H352 H 0.2092 0.57945 0.60688 0.0
H353 H 0.23934 0.58056 0.53557 0.0
H354 H 0.25012 0.51115 0.56134 0.0
H355 H 0.21921 0.50989 0.63166 0.0
C356 C 0.28714 0.53122 0.41678 0.0
C357 C 0.30129 0.54942 0.41713 0.0
C358 C 0.26959 0.53003 0.45746 0.0
C359 C 0.2659 0.54696 0.49947 0.0
C360 C 0.28011 0.56511 0.49958 0.0
C361 C 0.29749 0.56637 0.45878 0.0
C362 C 0.21804 0.56441 0.59775 0.0
C363 C 0.21184 0.54459 0.6252 0.0
C364 C 0.23543 0.56507 0.55688 0.0
C365 C 0.24725 0.54596 0.54276 0.0
C366 C 0.24119 0.52612 0.57059 0.0
C367 C 0.22361 0.52543 0.61131 0.0
H368 H 0.10246 0.58799 0.17927 0.0
H369 H 0.0645 0.62542 0.05059 0.0
H370 H 0.12628 0.57528 0.09746 0.0
H371 H 0.088 0.61257 0.96945 0.0
H372 H 0.14371 0.60354 0.84301 0.0
H373 H 0.12577 0.61716 0.9338 0.0
H374 H 0.12422 0.55149 0.00663 0.0
H375 H 0.14254 0.53784 0.91611 0.0
C376 C 0.09915 0.59344 0.13362 0.0
C377 C 0.0816 0.60774 0.12146 0.0
C378 C 0.11278 0.58615 0.08684 0.0
C379 C 0.10917 0.59313 0.02716 0.0
C380 C 0.09151 0.60727 0.01513 0.0
C381 C 0.0779 0.61447 0.06165 0.0
C382 C 0.13992 0.59204 0.8788 0.0
C383 C 0.14427 0.56956 0.87195 0.0
C384 C 0.12951 0.59983 0.93065 0.0
C385 C 0.12319 0.58532 0.97678 0.0
C386 C 0.1289 0.56307 0.97187 0.0
C387 C 0.13936 0.55526 0.91992 0.0
H388 H 0.9082 0.11649 0.2616 0.0
H389 H 0.95878 0.14326 0.37698 0.0
H390 H 0.89161 0.09845 0.34842 0.0
H391 H 0.94189 0.12522 0.46417 0.0
H392 H 0.88822 0.10677 0.60792 0.0
H393 H 0.90527 0.1264 0.52393 0.0
H394 H 0.90459 0.06707 0.4176 0.0
H395 H 0.8877 0.04731 0.50166 0.0
C396 C 0.91565 0.11875 0.30557 0.0
C397 C 0.93487 0.13125 0.31239 0.0
C398 C 0.90622 0.10827 0.35514 0.0
C399 C 0.91563 0.11028 0.41268 0.0
C400 C 0.93434 0.12345 0.42015 0.0
C401 C 0.94398 0.13374 0.37032 0.0
C402 C 0.89178 0.09789 0.56668 0.0
C403 C 0.88655 0.07552 0.56119 0.0
C404 C 0.90161 0.10911 0.51884 0.0
C405 C 0.90609 0.09825 0.46436 0.0
C406 C 0.90108 0.07585 0.45903 0.0
C407 C 0.89154 0.06454 0.50717 0.0
H408 H 0.46695 0.90276 0.02058 0.0
H409 H 0.40485 0.8771 0.08291 0.0
H410 H 0.4479 0.92519 0.94662 0.0
H411 H 0.38568 0.90002 0.00943 0.0
H412 H 0.36465 0.92459 0.81755 0.0
H413 H 0.38042 0.90328 0.90028 0.0
H414 H 0.42427 0.95689 0.9415 0.0
H415 H 0.40894 0.97789 0.85825 0.0
C416 C 0.44921 0.902 0.01875 0.0
C417 C 0.43742 0.88814 0.05765 0.0
C418 C 0.43826 0.915 0.97663 0.0
C419 C 0.41524 0.91454 0.97247 0.0
C420 C 0.40343 0.90063 0.01125 0.0
C421 C 0.41441 0.88757 0.05345 0.0
C422 C 0.37741 0.93192 0.84494 0.0
C423 C 0.38576 0.95279 0.83094 0.0
C424 C 0.38642 0.91974 0.89239 0.0
C425 C 0.40386 0.92826 0.9268 0.0
C426 C 0.41124 0.94964 0.91489 0.0
C427 C 0.40235 0.96173 0.8674 0.0
H428 H 0.60322 0.36411 0.30927 0.0
H429 H 0.53896 0.35617 0.38881 0.0
H430 H 0.61619 0.3813 0.40121 0.0
H431 H 0.55224 0.37262 0.48231 0.0
H432 H 0.57397 0.43344 0.59182 0.0
H433 H 0.5612 0.40878 0.51293 0.0
H434 H 0.6256 0.37922 0.50404 0.0
H435 H 0.63856 0.40459 0.58108 0.0
C436 C 0.592 0.36547 0.34703 0.0
C437 C 0.56997 0.35904 0.34138 0.0
C438 C 0.59949 0.37527 0.4001 0.0
C439 C 0.5852 0.37864 0.44912 0.0
C440 C 0.56356 0.37075 0.44496 0.0
C441 C 0.556 0.36113 0.39156 0.0
C442 C 0.58534 0.42155 0.57333 0.0
C443 C 0.60733 0.42115 0.59205 0.0
C444 C 0.57797 0.40724 0.5284 0.0
C445 C 0.59238 0.39202 0.50176 0.0
C446 C 0.61415 0.391 0.52261 0.0
C447 C 0.62158 0.4055 0.56694 0.0
H448 H 0.12298 0.96521 0.12779 0.0
H449 H 0.11558 0.90072 0.20599 0.0
H450 H 0.10398 0.95278 0.03685 0.0
H451 H 0.09608 0.88859 0.11667 0.0
H452 H 0.07565 0.86622 0.93411 0.0
H453 H 0.09966 0.87976 0.0133 0.0
H454 H 0.06756 0.94289 0.00519 0.0
H455 H 0.04403 0.92947 0.92385 0.0
C456 C 0.11743 0.94836 0.12544 0.0
C457 C 0.12077 0.93396 0.17417 0.0
C458 C 0.10639 0.94129 0.07353 0.0
C459 C 0.09842 0.9197 0.06939 0.0
C460 C 0.10228 0.90522 0.11768 0.0
C461 C 0.11339 0.91223 0.16923 0.0
C462 C 0.0738 0.88304 0.94894 0.0
C463 C 0.05778 0.89672 0.92324 0.0
C464 C 0.08751 0.89079 0.99457 0.0
C465 C 0.08538 0.91234 0.01632 0.0
C466 C 0.06981 0.92627 0.98921 0.0
C467 C 0.05622 0.91856 0.94285 0.0
H468 H 0.52981 0.13563 0.61341 0.0
H469 H 0.59183 0.1258 0.70398 0.0
H470 H 0.54442 0.11784 0.52317 0.0
H471 H 0.6061 0.10743 0.61517 0.0
H472 H 0.63285 0.08965 0.43424 0.0
H473 H 0.61781 0.11226 0.51444 0.0
H474 H 0.55441 0.08179 0.4895 0.0
H475 H 0.56939 0.05969 0.40719 0.0
C476 C 0.54659 0.12981 0.61393 0.0
C477 C 0.55965 0.1321 0.66589 0.0
C478 C 0.55491 0.11944 0.56241 0.0
C479 C 0.57641 0.11108 0.5619 0.0
C480 C 0.58959 0.11394 0.61345 0.0
C481 C 0.58135 0.12442 0.66465 0.0
C482 C 0.61567 0.08781 0.44569 0.0
C483 C 0.60234 0.07272 0.41484 0.0
C484 C 0.60706 0.10074 0.49188 0.0
C485 C 0.58495 0.0987 0.50901 0.0
C486 C 0.57146 0.08397 0.4771 0.0
C487 C 0.58005 0.07118 0.43022 0.0
H488 H 0.38247 0.60985 0.20453 0.0
H489 H 0.35598 0.55424 0.10825 0.0
H490 H 0.40172 0.62141 0.11422 0.0
H491 H 0.37441 0.56641 0.01644 0.0
H492 H 0.43485 0.57654 0.8951 0.0
H493 H 0.4102 0.56698 0.97757 0.0
H494 H 0.40105 0.63583 0.01707 0.0
H495 H 0.42661 0.64519 0.93676 0.0
C496 C 0.38023 0.60043 0.16352 0.0
C497 C 0.36782 0.58104 0.16369 0.0
C498 C 0.39126 0.60711 0.1114 0.0
C499 C 0.38987 0.59476 0.05781 0.0
C500 C 0.37633 0.57606 0.05714 0.0
C501 C 0.36555 0.56919 0.10961 0.0
C502 C 0.42746 0.5896 0.92129 0.0
C503 C 0.43285 0.61158 0.90995 0.0
C504 C 0.41315 0.58415 0.96835 0.0
C505 C 0.40361 0.60062 0.00446 0.0
C506 C 0.40842 0.62267 0.99131 0.0
C507 C 0.42301 0.62806 0.94502 0.0
H508 H 0.89618 0.38176 0.70697 0.0
H509 H 0.95379 0.36002 0.61042 0.0
H510 H 0.88246 0.39902 0.6158 0.0
H511 H 0.93959 0.37643 0.518 0.0
H512 H 0.92346 0.43499 0.39483 0.0
H513 H 0.93551 0.41197 0.47826 0.0
H514 H 0.86795 0.3959 0.51843 0.0
H515 H 0.85597 0.41979 0.43686 0.0
C516 C 0.90564 0.38013 0.66579 0.0
C517 C 0.92615 0.36967 0.66604 0.0
C518 C 0.89772 0.38999 0.61322 0.0
C519 C 0.91 0.38937 0.55938 0.0
C520 C 0.92992 0.37772 0.55889 0.0
C521 C 0.93798 0.36811 0.61173 0.0
C522 C 0.91122 0.42642 0.4213 0.0
C523 C 0.88878 0.42937 0.40972 0.0
C524 C 0.91812 0.41305 0.46892 0.0
C525 C 0.90272 0.40206 0.50548 0.0
C526 C 0.88028 0.40443 0.4922 0.0
C527 C 0.8734 0.41806 0.44521 0.0
H528 H 0.9194 0.43422 0.83126 0.0
H529 H 0.94273 0.38977 0.969 0.0
H530 H 0.89433 0.45077 0.90429 0.0
H531 H 0.9182 0.40659 0.04197 0.0
H532 H 0.85946 0.42628 0.14873 0.0
H533 H 0.87988 0.40935 0.06644 0.0
H534 H 0.89456 0.47344 0.99379 0.0
H535 H 0.87362 0.49034 0.075 0.0
C536 C 0.91932 0.42811 0.87719 0.0
C537 C 0.93307 0.41068 0.89431 0.0
C538 C 0.90496 0.4376 0.91904 0.0
C539 C 0.90409 0.42987 0.97887 0.0
C540 C 0.91806 0.41263 0.99597 0.0
C541 C 0.93232 0.40312 0.95421 0.0
C542 C 0.86671 0.43675 0.11461 0.0
C543 C 0.86508 0.45967 0.11878 0.0
C544 C 0.87859 0.42705 0.06772 0.0
C545 C 0.88921 0.44005 0.02412 0.0
C546 C 0.88653 0.46292 0.02641 0.0
C547 C 0.87455 0.47262 0.07315 0.0
H548 H 0.09756 0.87152 0.71307 0.0
H549 H 0.03715 0.85597 0.62033 0.0
H550 H 0.10987 0.89234 0.62602 0.0
H551 H 0.04981 0.87628 0.53213 0.0
H552 H 0.06555 0.94078 0.43118 0.0
H553 H 0.05446 0.91431 0.50785 0.0
H554 H 0.12163 0.89234 0.52386 0.0
H555 H 0.13277 0.91928 0.44899 0.0
C556 C 0.08713 0.87206 0.67349 0.0
C557 C 0.06626 0.8623 0.67396 0.0
C558 C 0.09423 0.88398 0.62334 0.0
C559 C 0.0807 0.88625 0.57224 0.0
C560 C 0.06042 0.87528 0.57126 0.0
C561 C 0.05326 0.86346 0.62161 0.0
C562 C 0.0779 0.93023 0.45095 0.0
C563 C 0.10005 0.93232 0.43459 0.0
C564 C 0.07154 0.9149 0.49453 0.0
C565 C 0.08717 0.9012 0.52224 0.0
C566 C 0.10922 0.90287 0.50431 0.0
C567 C 0.1156 0.91831 0.46124 0.0
H568 H 0.64085 0.05649 0.10955 0.0
H569 H 0.6186 0.11384 0.20646 0.0
H570 H 0.61885 0.06733 0.02262 0.0
H571 H 0.59614 0.12427 0.12061 0.0
H572 H 0.5674 0.14557 0.9433 0.0
H573 H 0.59487 0.13687 0.01917 0.0
H574 H 0.58049 0.06788 0.99838 0.0
H575 H 0.55347 0.07659 0.92078 0.0
C576 C 0.6315 0.07156 0.11205 0.0
C577 C 0.63136 0.08421 0.16514 0.0
C578 C 0.61871 0.07765 0.06242 0.0
C579 C 0.60544 0.09649 0.06487 0.0
C580 C 0.60626 0.10975 0.11683 0.0
C581 C 0.61914 0.10373 0.16626 0.0
C582 C 0.57012 0.12852 0.9548 0.0
C583 C 0.55812 0.11176 0.92634 0.0
C584 C 0.58586 0.12355 0.99846 0.0
C585 C 0.58987 0.10169 0.01515 0.0
C586 C 0.57808 0.08489 0.98602 0.0
C587 C 0.56244 0.08987 0.9419 0.0
H588 H 0.43436 0.57977 0.33318 0.0
H589 H 0.38368 0.56802 0.46586 0.0
H590 H 0.45439 0.60202 0.40649 0.0
H591 H 0.40389 0.5896 0.53921 0.0
H592 H 0.43437 0.64307 0.64694 0.0
H593 H 0.41461 0.62632 0.5632 0.0
H594 H 0.47505 0.5977 0.49841 0.0
H595 H 0.49491 0.61503 0.58094 0.0
C596 C 0.42755 0.58185 0.37801 0.0
C597 C 0.40745 0.5721 0.39372 0.0
C598 C 0.43904 0.59456 0.42004 0.0
C599 C 0.4307 0.59772 0.47866 0.0
C600 C 0.41059 0.58793 0.49414 0.0
C601 C 0.39909 0.57535 0.45217 0.0
C602 C 0.4435 0.6335 0.61425 0.0
C603 C 0.46617 0.63021 0.62092 0.0
C604 C 0.43215 0.62375 0.5665 0.0
C605 C 0.44318 0.61036 0.52462 0.0
C606 C 0.46605 0.60802 0.52957 0.0
C607 C 0.47743 0.6179 0.57709 0.0
H608 H 0.93213 0.04842 0.77786 0.0
H609 H 0.87074 0.07213 0.85072 0.0
H610 H 0.95216 0.07017 0.85131 0.0
H611 H 0.89103 0.09413 0.92457 0.0
H612 H 0.93705 0.10923 0.08717 0.0
H613 H 0.91575 0.08816 0.01426 0.0
H614 H 0.95885 0.10977 0.87133 0.0
H615 H 0.98031 0.13078 0.94422 0.0
C616 C 0.92288 0.05827 0.80961 0.0
C617 C 0.89982 0.05858 0.80842 0.0
C618 C 0.9344 0.07085 0.85143 0.0
C619 C 0.92317 0.08395 0.89329 0.0
C620 C 0.90009 0.08407 0.89288 0.0
C621 C 0.8885 0.07155 0.8506 0.0
C622 C 0.94202 0.10948 0.04019 0.0
C623 C 0.96046 0.12157 0.02145 0.0
C624 C 0.92969 0.09755 0.99845 0.0
C625 C 0.93566 0.09732 0.93724 0.0
C626 C 0.95402 0.10949 0.91842 0.0
C627 C 0.96626 0.12156 0.96009 0.0
H628 H 0.44112 0.95028 0.57467 0.0
H629 H 0.37938 0.91762 0.54125 0.0
H630 H 0.45944 0.92475 0.50663 0.0
H631 H 0.39778 0.89172 0.47478 0.0
H632 H 0.43311 0.87213 0.29815 0.0
H633 H 0.41398 0.89236 0.37648 0.0
H634 H 0.47079 0.88715 0.49237 0.0
H635 H 0.49025 0.86736 0.413 0.0
C636 C 0.4315 0.93753 0.55327 0.0
C637 C 0.40878 0.93612 0.56287 0.0
C638 C 0.44203 0.92276 0.51469 0.0
C639 C 0.43007 0.90618 0.48519 0.0
C640 C 0.40742 0.90448 0.49605 0.0
C641 C 0.39689 0.91932 0.53427 0.0
C642 C 0.44143 0.87495 0.34067 0.0
C643 C 0.46331 0.86835 0.34904 0.0
C644 C 0.43041 0.88651 0.38579 0.0
C645 C 0.44094 0.89162 0.44049 0.0
C646 C 0.46238 0.88387 0.45025 0.0
C647 C 0.47345 0.87235 0.40497 0.0
H648 H 0.56072 0.4354 0.11429 0.0
H649 H 0.58882 0.37098 0.0905 0.0
H650 H 0.58823 0.45067 0.04638 0.0
H651 H 0.61693 0.3863 0.02488 0.0
H652 H 0.63818 0.41554 0.84208 0.0
H653 H 0.61812 0.39961 0.92555 0.0
H654 H 0.62547 0.45981 0.02671 0.0
H655 H 0.6449 0.47615 0.94153 0.0
C656 C 0.57302 0.42459 0.09535 0.0
C657 C 0.57241 0.40197 0.10685 0.0
C658 C 0.58894 0.43335 0.05681 0.0
C659 C 0.60477 0.4197 0.02967 0.0
C660 C 0.60474 0.39723 0.04383 0.0
C661 C 0.58865 0.38845 0.08157 0.0
C662 C 0.63593 0.4253 0.8825 0.0
C663 C 0.64285 0.44725 0.88471 0.0
C664 C 0.62447 0.41609 0.93074 0.0
C665 C 0.61987 0.42851 0.98275 0.0
C666 C 0.62827 0.44995 0.98678 0.0
C667 C 0.6396 0.45925 0.93817 0.0
H668 H 0.13774 0.55483 0.49153 0.0
H669 H 0.1065 0.57685 0.65601 0.0
H670 H 0.1163 0.58116 0.43393 0.0
H671 H 0.08525 0.60352 0.59823 0.0
H672 H 0.03194 0.62371 0.4557 0.0
H673 H 0.05539 0.60312 0.52429 0.0
H674 H 0.11205 0.62051 0.41732 0.0
H675 H 0.08859 0.64077 0.34798 0.0
C676 C 0.12637 0.56536 0.51546 0.0
C677 C 0.12375 0.56366 0.57829 0.0
C678 C 0.11423 0.58062 0.4825 0.0
C679 C 0.09919 0.59455 0.51159 0.0
C680 C 0.09662 0.59293 0.5745 0.0
C681 C 0.10881 0.57766 0.60755 0.0
C682 C 0.04946 0.62355 0.44748 0.0
C683 C 0.05834 0.6336 0.39583 0.0
C684 C 0.06291 0.61177 0.48692 0.0
C685 C 0.08552 0.60985 0.47556 0.0
C686 C 0.09461 0.62128 0.42646 0.0
C687 C 0.08118 0.63304 0.38702 0.0
H688 H 0.91707 0.52314 0.4002 0.0
H689 H 0.88156 0.53194 0.23294 0.0
H690 H 0.94361 0.55074 0.3682 0.0
H691 H 0.90789 0.55969 0.20155 0.0
H692 H 0.97567 0.5836 0.13548 0.0
H693 H 0.94638 0.55943 0.1698 0.0
H694 H 0.9482 0.58995 0.34582 0.0
H695 H 0.97772 0.61393 0.31189 0.0
C696 C 0.91474 0.53117 0.35704 0.0
C697 C 0.89729 0.52521 0.31898 0.0
C698 C 0.92991 0.54704 0.3388 0.0
C699 C 0.92793 0.55726 0.28211 0.0
C700 C 0.91005 0.55185 0.24503 0.0
C701 C 0.89489 0.53603 0.26326 0.0
C702 C 0.96974 0.58526 0.18137 0.0
C703 C 0.97909 0.60063 0.22097 0.0
C704 C 0.95286 0.57149 0.20095 0.0
C705 C 0.945 0.57276 0.26058 0.0
C706 C 0.95408 0.58841 0.29985 0.0
C707 C 0.97091 0.60222 0.28023 0.0
H708 H 0.91204 0.96375 0.60786 0.0
H709 H 0.8727 0.9668 0.77012 0.0
H710 H 0.93325 0.93388 0.65124 0.0
H711 H 0.89371 0.93659 0.81306 0.0
H712 H 0.95877 0.90899 0.89497 0.0
H713 H 0.93099 0.93306 0.85168 0.0
H714 H 0.93307 0.89612 0.68523 0.0
H715 H 0.96113 0.87236 0.72796 0.0
C716 C 0.90762 0.95776 0.65228 0.0
C717 C 0.89084 0.96782 0.68575 0.0
C718 C 0.91972 0.94054 0.67709 0.0
C719 C 0.91528 0.93297 0.73586 0.0
C720 C 0.89776 0.94229 0.76809 0.0
C721 C 0.88564 0.95951 0.74327 0.0
C722 C 0.95305 0.9058 0.8495 0.0
C723 C 0.96236 0.88896 0.81467 0.0
C724 C 0.93704 0.91953 0.82473 0.0
C725 C 0.92998 0.91664 0.76474 0.0
C726 C 0.93845 0.89903 0.73115 0.0
C727 C 0.95447 0.88537 0.7558 0.0
H728 H 0.54433 0.88283 0.26533 0.0
H729 H 0.54469 0.92045 0.09988 0.0
H730 H 0.57225 0.90703 0.30752 0.0
H731 H 0.57221 0.94483 0.14248 0.0
H732 H 0.63163 0.97785 0.21724 0.0
H733 H 0.60983 0.94787 0.17652 0.0
H734 H 0.573 0.94484 0.34309 0.0
H735 H 0.59515 0.97456 0.3844 0.0
C736 C 0.55051 0.89612 0.23771 0.0
C737 C 0.54218 0.89981 0.17934 0.0
C738 C 0.56641 0.91006 0.26208 0.0
C739 C 0.57435 0.92794 0.22856 0.0
C740 C 0.56664 0.93107 0.1693 0.0
C741 C 0.55075 0.91715 0.14495 0.0
C742 C 0.61907 0.97061 0.24553 0.0
C743 C 0.61495 0.97875 0.30386 0.0
C744 C 0.60652 0.95348 0.22203 0.0
C745 C 0.58951 0.94414 0.25624 0.0
C746 C 0.5861 0.95156 0.3157 0.0
C747 C 0.59873 0.96867 0.33932 0.0
H748 H 0.63768 0.55151 0.73789 0.0
H749 H 0.58916 0.49981 0.73884 0.0
H750 H 0.6097 0.57766 0.77076 0.0
H751 H 0.56137 0.52591 0.77134 0.0
H752 H 0.52298 0.57284 0.89069 0.0
H753 H 0.55291 0.54818 0.86319 0.0
H754 H 0.57533 0.59475 0.72988 0.0
H755 H 0.54552 0.61947 0.75741 0.0
C756 C 0.62107 0.54574 0.74481 0.0
C757 C 0.61566 0.52359 0.73573 0.0
C758 C 0.60506 0.56072 0.76355 0.0
C759 C 0.58341 0.55377 0.77408 0.0
C760 C 0.578 0.53166 0.76452 0.0
C761 C 0.5939 0.51676 0.74536 0.0
C762 C 0.53442 0.57793 0.85599 0.0
C763 C 0.53179 0.59805 0.82601 0.0
C764 C 0.55147 0.56375 0.83998 0.0
C765 C 0.56633 0.56948 0.79405 0.0
C766 C 0.56419 0.58995 0.76565 0.0
C767 C 0.54706 0.60405 0.7813 0.0
H768 H 0.11929 0.45737 0.59893 0.0
H769 H 0.11822 0.47041 0.79082 0.0
H770 H 0.09046 0.43002 0.61205 0.0
H771 H 0.0892 0.44347 0.80362 0.0
H772 H 0.04369 0.38535 0.81494 0.0
H773 H 0.07809 0.40508 0.79857 0.0
H774 H 0.05154 0.43328 0.63519 0.0
H775 H 0.01749 0.41339 0.65084 0.0
C776 C 0.11314 0.45421 0.64399 0.0
C777 C 0.12087 0.46628 0.69369 0.0
C778 C 0.09653 0.43862 0.65145 0.0
C779 C 0.08735 0.43476 0.70877 0.0
C780 C 0.096 0.44592 0.75892 0.0
C781 C 0.11257 0.46149 0.75148 0.0
C782 C 0.04531 0.39558 0.7752 0.0
C783 C 0.02779 0.39794 0.73447 0.0
C784 C 0.06498 0.40692 0.76594 0.0
C785 C 0.06754 0.42078 0.71563 0.0
C786 C 0.05025 0.42252 0.67394 0.0
C787 C 0.03062 0.41125 0.68325 0.0
H788 H 0.04343 0.12882 0.35517 0.0
H789 H 0.04712 0.11804 0.16247 0.0
H790 H 0.07335 0.10284 0.37038 0.0
H791 H 0.07665 0.09184 0.1778 0.0
H792 H 0.1375 0.05329 0.21789 0.0
H793 H 0.11435 0.08579 0.21012 0.0
H794 H 0.07578 0.06308 0.36144 0.0
H795 H 0.09909 0.03087 0.36996 0.0
C796 C 0.0508 0.12115 0.31599 0.0
C797 C 0.04272 0.12533 0.25765 0.0
C798 C 0.06786 0.10617 0.32477 0.0
C799 C 0.07724 0.0951 0.27538 0.0
C800 C 0.06995 0.1002 0.21681 0.0
C801 C 0.05289 0.11515 0.20805 0.0
C802 C 0.12427 0.05539 0.25004 0.0
C803 C 0.12001 0.03937 0.29417 0.0
C804 C 0.11095 0.07397 0.2454 0.0
C805 C 0.09313 0.07696 0.28487 0.0
C806 C 0.08951 0.06143 0.33071 0.0
C807 C 0.1028 0.04285 0.33532 0.0
H808 H 0.39368 0.03348 0.61841 0.0
H809 H 0.36264 0.04507 0.79104 0.0
H810 H 0.41754 0.06495 0.6349 0.0
H811 H 0.38656 0.07667 0.80735 0.0
H812 H 0.45692 0.10545 0.84394 0.0
H813 H 0.42703 0.07962 0.82662 0.0
H814 H 0.41809 0.10567 0.64695 0.0
H815 H 0.44804 0.13146 0.66398 0.0
C816 C 0.3917 0.04295 0.65944 0.0
C817 C 0.37639 0.03668 0.70361 0.0
C818 C 0.4053 0.06106 0.66873 0.0
C819 C 0.40398 0.07318 0.72258 0.0
C820 C 0.38806 0.06747 0.7657 0.0
C821 C 0.3743 0.04946 0.75615 0.0
C822 C 0.44841 0.10586 0.80101 0.0
C823 C 0.45499 0.12037 0.75515 0.0
C824 C 0.43119 0.09116 0.79125 0.0
C825 C 0.42031 0.09058 0.73532 0.0
C826 C 0.42635 0.10562 0.69027 0.0
C827 C 0.44345 0.12044 0.70017 0.0
H828 H 0.4827 0.41226 0.33043 0.0
H829 H 0.46483 0.39056 0.1512 0.0
H830 H 0.45169 0.4373 0.33101 0.0
H831 H 0.43342 0.41539 0.15235 0.0
H832 H 0.38596 0.46994 0.33515 0.0
H833 H 0.41191 0.43952 0.3332 0.0
H834 H 0.42811 0.45488 0.14798 0.0
H835 H 0.40189 0.48492 0.14942 0.0
C836 C 0.47201 0.41264 0.29139 0.0
C837 C 0.47634 0.39953 0.24059 0.0
C838 C 0.4541 0.42688 0.29193 0.0
C839 C 0.44007 0.42834 0.24172 0.0
C840 C 0.44407 0.41482 0.19147 0.0
C841 C 0.46201 0.40054 0.19092 0.0
C842 C 0.39481 0.46662 0.29373 0.0
C843 C 0.39202 0.47999 0.24263 0.0
C844 C 0.40978 0.44927 0.29274 0.0
C845 C 0.42225 0.44493 0.24065 0.0
C846 C 0.41865 0.45765 0.18867 0.0
C847 C 0.40369 0.47498 0.18964 0.0
loop_
_geom_bond_atom_site_label_1
_geom_bond_atom_site_label_2
_geom_bond_distance
_geom_bond_site_symmetry_2
_ccdc_geom_bond_type
C0 O1 1.160 . S
C0 O7 1.185 . S
O1 C0 1.160 . S
O2 Zn3 1.899 . S
O2 C10 1.284 1_455 S
Zn3 O2 1.899 . S
Zn3 O4 2.032 . S
Zn3 O7 2.086 . S
Zn3 O12 1.977 . S
O4 Zn3 2.032 . S
O4 C8 1.278 . S
C5 O6 1.203 . S
C5 O12 1.267 . S
O6 C5 1.203 . S
O7 C0 1.185 . S
O7 Zn3 2.086 . S
C8 O4 1.278 . S
C8 O9 1.211 . S
O9 C8 1.211 . S
C10 O2 1.284 1_655 S
C10 O11 1.273 1_655 S
O11 C10 1.273 1_455 S
O12 Zn3 1.977 . S
O12 C5 1.267 . S
C13 O14 1.160 . S
C13 O20 1.185 . S
O14 C13 1.160 . S
O15 Zn16 1.899 . S
O15 C23 1.284 1_545 S
Zn16 O15 1.899 . S
Zn16 O17 2.032 . S
Zn16 O20 2.086 . S
Zn16 O25 1.977 . S
O17 Zn16 2.032 . S
O17 C21 1.278 . S
C18 O19 1.203 . S
C18 O25 1.267 . S
O19 C18 1.203 . S
O20 C13 1.185 . S
O20 Zn16 2.086 . S
C21 O17 1.278 . S
C21 O22 1.211 . S
O22 C21 1.211 . S
C23 O15 1.284 1_565 S
C23 O24 1.273 1_565 S
O24 C23 1.273 1_545 S
O25 Zn16 1.977 . S
O25 C18 1.267 . S
C26 O27 1.160 . S
C26 O33 1.185 . S
O27 C26 1.160 . S
O28 Zn29 1.899 . S
O28 C36 1.284 . S
Zn29 O28 1.899 . S
Zn29 O30 2.032 . S
Zn29 O33 2.086 . S
Zn29 O38 1.977 . S
O30 Zn29 2.032 . S
O30 C34 1.278 . S
C31 O32 1.203 . S
C31 O38 1.267 . S
O32 C31 1.203 . S
O33 C26 1.185 . S
O33 Zn29 2.086 . S
C34 O30 1.278 . S
C34 O35 1.211 . S
O35 C34 1.211 . S
C36 O28 1.284 . S
C36 O37 1.273 . S
O37 C36 1.273 . S
O38 Zn29 1.977 . S
O38 C31 1.267 . S
C39 O40 1.160 . S
C39 O46 1.185 . S
O40 C39 1.160 . S
O41 Zn42 1.899 . S
O41 C49 1.284 . S
Zn42 O41 1.899 . S
Zn42 O43 2.032 . S
Zn42 O46 2.086 . S
Zn42 O51 1.977 . S
O43 Zn42 2.032 . S
O43 C47 1.278 . S
C44 O45 1.203 . S
C44 O51 1.267 . S
O45 C44 1.203 . S
O46 C39 1.185 . S
O46 Zn42 2.086 . S
C47 O43 1.278 . S
C47 O48 1.211 . S
O48 C47 1.211 . S
C49 O41 1.284 . S
C49 O50 1.273 . S
O50 C49 1.273 . S
O51 Zn42 1.977 . S
O51 C44 1.267 . S
C52 O53 1.160 . S
C52 O59 1.185 . S
O53 C52 1.160 . S
O54 Zn55 1.899 . S
O54 C62 1.284 1_455 S
Zn55 O54 1.899 . S
Zn55 O56 2.032 . S
Zn55 O59 2.086 . S
Zn55 O64 1.977 . S
O56 Zn55 2.032 . S
O56 C60 1.278 . S
C57 O58 1.203 . S
C57 O64 1.267 . S
O58 C57 1.203 . S
O59 C52 1.185 . S
O59 Zn55 2.086 . S
C60 O56 1.278 . S
C60 O61 1.211 . S
O61 C60 1.211 . S
C62 O54 1.284 1_655 S
C62 O63 1.273 1_655 S
O63 C62 1.273 1_455 S
O64 Zn55 1.977 . S
O64 C57 1.267 . S
C65 O66 1.160 . S
C65 O72 1.185 . S
O66 C65 1.160 . S
O67 Zn68 1.899 . S
O67 C75 1.284 1_545 S
Zn68 O67 1.899 . S
Zn68 O69 2.032 . S
Zn68 O72 2.086 . S
Zn68 O77 1.977 . S
O69 Zn68 2.032 . S
O69 C73 1.278 . S
C70 O71 1.203 . S
C70 O77 1.267 . S
O71 C70 1.203 . S
O72 C65 1.185 . S
O72 Zn68 2.086 . S
C73 O69 1.278 . S
C73 O74 1.211 . S
O74 C73 1.211 . S
C75 O67 1.284 1_565 S
C75 O76 1.273 1_565 S
O76 C75 1.273 1_545 S
O77 Zn68 1.977 . S
O77 C70 1.267 . S
C78 O79 1.160 . S
C78 O85 1.185 . S
O79 C78 1.160 . S
O80 Zn81 1.899 . S
O80 C88 1.284 . S
Zn81 O80 1.899 . S
Zn81 O82 2.032 . S
Zn81 O85 2.086 . S
Zn81 O90 1.977 . S
O82 Zn81 2.032 . S
O82 C86 1.278 . S
C83 O84 1.203 . S
C83 O90 1.267 . S
O84 C83 1.203 . S
O85 C78 1.185 . S
O85 Zn81 2.086 . S
C86 O82 1.278 . S
C86 O87 1.211 . S
O87 C86 1.211 . S
C88 O80 1.284 . S
C88 O89 1.273 . S
O89 C88 1.273 . S
O90 Zn81 1.977 . S
O90 C83 1.267 . S
C91 O92 1.160 . S
C91 O98 1.185 . S
O92 C91 1.160 . S
O93 Zn94 1.899 . S
O93 C101 1.284 . S
Zn94 O93 1.899 . S
Zn94 O95 2.032 . S
Zn94 O98 2.086 . S
Zn94 O103 1.977 . S
O95 Zn94 2.032 . S
O95 C99 1.278 . S
C96 O97 1.203 . S
C96 O103 1.267 . S
O97 C96 1.203 . S
O98 C91 1.185 . S
O98 Zn94 2.086 . S
C99 O95 1.278 . S
C99 O100 1.211 . S
O100 C99 1.211 . S
C101 O93 1.284 . S
C101 O102 1.273 . S
O102 C101 1.273 . S
O103 Zn94 1.977 . S
O103 C96 1.267 . S
C104 O105 1.160 . S
C104 O111 1.185 . S
O105 C104 1.160 . S
O106 Zn107 1.899 . S
O106 C114 1.284 . S
Zn107 O106 1.899 . S
Zn107 O108 2.032 . S
Zn107 O111 2.086 . S
Zn107 O116 1.977 1_655 S
O108 Zn107 2.032 . S
O108 C112 1.278 . S
C109 O110 1.205 1_455 S
C109 O116 1.267 . S
O110 C109 1.205 1_655 S
O111 C104 1.185 . S
O111 Zn107 2.086 . S
C112 O108 1.278 . S
C112 O113 1.211 . S
O113 C112 1.211 . S
C114 O106 1.284 . S
C114 O115 1.273 . S
O115 C114 1.273 . S
O116 Zn107 1.977 1_455 S
O116 C109 1.267 . S
C117 O118 1.160 . S
C117 O124 1.185 . S
O118 C117 1.160 . S
O119 Zn120 1.899 . S
O119 C127 1.284 . S
Zn120 O119 1.899 . S
Zn120 O121 2.032 . S
Zn120 O124 2.086 . S
Zn120 O129 1.977 1_565 S
O121 Zn120 2.032 . S
O121 C125 1.278 . S
C122 O123 1.205 1_545 S
C122 O129 1.267 . S
O123 C122 1.205 1_565 S
O124 C117 1.185 . S
O124 Zn120 2.086 . S
C125 O121 1.278 . S
C125 O126 1.211 . S
O126 C125 1.211 . S
C127 O119 1.284 . S
C127 O128 1.273 . S
O128 C127 1.273 . S
O129 Zn120 1.977 1_545 S
O129 C122 1.267 . S
C130 O131 1.160 . S
C130 O137 1.185 . S
O131 C130 1.160 . S
O132 Zn133 1.899 . S
O132 C140 1.284 . S
Zn133 O132 1.899 . S
Zn133 O134 2.032 . S
Zn133 O137 2.086 . S
Zn133 O142 1.977 . S
O134 Zn133 2.032 . S
O134 C138 1.278 . S
C135 O136 1.203 . S
C135 O142 1.267 . S
O136 C135 1.203 . S
O137 C130 1.185 . S
O137 Zn133 2.086 . S
C138 O134 1.278 . S
C138 O139 1.211 . S
O139 C138 1.211 . S
C140 O132 1.284 . S
C140 O141 1.273 . S
O141 C140 1.273 . S
O142 Zn133 1.977 . S
O142 C135 1.267 . S
C143 O144 1.160 . S
C143 O150 1.185 . S
O144 C143 1.160 . S
O145 Zn146 1.899 . S
O145 C153 1.284 . S
Zn146 O145 1.899 . S
Zn146 O147 2.032 . S
Zn146 O150 2.086 . S
Zn146 O155 1.977 . S
O147 Zn146 2.032 . S
O147 C151 1.278 . S
C148 O149 1.203 . S
C148 O155 1.267 . S
O149 C148 1.203 . S
O150 C143 1.185 . S
O150 Zn146 2.086 . S
C151 O147 1.278 . S
C151 O152 1.211 . S
O152 C151 1.211 . S
C153 O145 1.284 . S
C153 O154 1.273 . S
O154 C153 1.273 . S
O155 Zn146 1.977 . S
O155 C148 1.267 . S
C156 O157 1.160 . S
C156 O163 1.185 . S
O157 C156 1.160 . S
O158 Zn159 1.899 . S
O158 C166 1.284 . S
Zn159 O158 1.899 . S
Zn159 O160 2.032 . S
Zn159 O163 2.086 . S
Zn159 O168 1.977 1_655 S
O160 Zn159 2.032 . S
O160 C164 1.278 . S
C161 O162 1.205 1_455 S
C161 O168 1.267 . S
O162 C161 1.205 1_655 S
O163 C156 1.185 . S
O163 Zn159 2.086 . S
C164 O160 1.278 . S
C164 O165 1.211 . S
O165 C164 1.211 . S
C166 O158 1.284 . S
C166 O167 1.273 . S
O167 C166 1.273 . S
O168 Zn159 1.977 1_455 S
O168 C161 1.267 . S
C169 O170 1.160 . S
C169 O176 1.185 . S
O170 C169 1.160 . S
O171 Zn172 1.899 . S
O171 C179 1.284 . S
Zn172 O171 1.899 . S
Zn172 O173 2.032 . S
Zn172 O176 2.086 . S
Zn172 O181 1.977 1_565 S
O173 Zn172 2.032 . S
O173 C177 1.278 . S
C174 O175 1.205 1_545 S
C174 O181 1.267 . S
O175 C174 1.205 1_565 S
O176 C169 1.185 . S
O176 Zn172 2.086 . S
C177 O173 1.278 . S
C177 O178 1.211 . S
O178 C177 1.211 . S
C179 O171 1.284 . S
C179 O180 1.273 . S
O180 C179 1.273 . S
O181 Zn172 1.977 1_545 S
O181 C174 1.267 . S
C182 O183 1.160 . S
C182 O189 1.185 . S
O183 C182 1.160 . S
O184 Zn185 1.899 . S
O184 C192 1.284 . S
Zn185 O184 1.899 . S
Zn185 O186 2.032 . S
Zn185 O189 2.086 . S
Zn185 O194 1.977 . S
O186 Zn185 2.032 . S
O186 C190 1.278 . S
C187 O188 1.203 . S
C187 O194 1.267 . S
O188 C187 1.203 . S
O189 C182 1.185 . S
O189 Zn185 2.086 . S
C190 O186 1.278 . S
C190 O191 1.211 . S
O191 C190 1.211 . S
C192 O184 1.284 . S
C192 O193 1.273 . S
O193 C192 1.273 . S
O194 Zn185 1.977 . S
O194 C187 1.267 . S
C195 O196 1.160 . S
C195 O202 1.185 . S
O196 C195 1.160 . S
O197 Zn198 1.899 . S
O197 C205 1.284 . S
Zn198 O197 1.899 . S
Zn198 O199 2.032 . S
Zn198 O202 2.086 . S
Zn198 O207 1.977 . S
O199 Zn198 2.032 . S
O199 C203 1.278 . S
C200 O201 1.203 . S
C200 O207 1.267 . S
O201 C200 1.203 . S
O202 C195 1.185 . S
O202 Zn198 2.086 . S
C203 O199 1.278 . S
C203 O204 1.211 . S
O204 C203 1.211 . S
C205 O197 1.284 . S
C205 O206 1.273 . S
O206 C205 1.273 . S
O207 Zn198 1.977 . S
O207 C200 1.267 . S
H208 C216 0.950 . S
H209 C221 0.950 . S
H210 C218 0.950 . S
H211 C220 0.950 . S
H212 C222 0.950 . S
H213 C224 0.950 . S
H214 C226 0.950 . S
H215 C227 0.950 . S
C216 H208 0.950 . S
C216 C217 1.386 . S
C216 C218 1.391 . S
C217 C216 1.386 . S
C217 C221 1.393 . S
C218 H210 0.950 . S
C218 C216 1.391 . S
C218 C219 1.400 . S
C219 C218 1.400 . S
C219 C220 1.398 1_554 S
C219 C225 1.491 1_554 S
C220 H211 0.950 . S
C220 C219 1.398 1_556 S
C220 C221 1.391 1_556 S
C221 H209 0.950 . S
C221 C217 1.393 . S
C221 C220 1.391 1_554 S
C222 H212 0.950 . S
C222 C223 1.386 . S
C222 C224 1.391 . S
C223 C222 1.386 . S
C223 C227 1.393 . S
C224 H213 0.950 . S
C224 C222 1.391 . S
C224 C225 1.400 . S
C225 C219 1.491 1_556 S
C225 C224 1.400 . S
C225 C226 1.398 1_556 S
C226 H214 0.950 . S
C226 C225 1.398 1_554 S
C226 C227 1.391 1_554 S
C227 H215 0.950 . S
C227 C223 1.393 . S
C227 C226 1.391 1_556 S
H228 C236 0.950 1_565 S
H229 C241 0.950 . S
H230 C238 0.950 1_565 S
H231 C240 0.950 . S
H232 C242 0.950 . S
H233 C244 0.950 . S
H234 C246 0.950 1_565 S
H235 C247 0.950 1_565 S
C236 H228 0.950 1_545 S
C236 C237 1.386 . S
C236 C238 1.391 . S
C237 C236 1.386 . S
C237 C241 1.393 . S
C238 H230 0.950 1_545 S
C238 C236 1.391 . S
C238 C239 1.400 . S
C239 C238 1.400 . S
C239 C240 1.398 . S
C239 C245 1.491 . S
C240 H231 0.950 . S
C240 C239 1.398 . S
C240 C241 1.391 . S
C241 H229 0.950 . S
C241 C237 1.393 . S
C241 C240 1.391 . S
C242 H232 0.950 . S
C242 C243 1.386 . S
C242 C244 1.391 . S
C243 C242 1.386 . S
C243 C247 1.393 . S
C244 H233 0.950 . S
C244 C242 1.391 . S
C244 C245 1.400 . S
C245 C239 1.491 . S
C245 C244 1.400 . S
C245 C246 1.398 . S
C246 H234 0.950 1_545 S
C246 C245 1.398 . S
C246 C247 1.391 . S
C247 H235 0.950 1_545 S
C247 C243 1.393 . S
C247 C246 1.391 . S
H248 C256 0.950 . S
H249 C261 0.950 . S
H250 C258 0.950 . S
H251 C260 0.950 . S
H252 C262 0.950 . S
H253 C264 0.950 . S
H254 C266 0.950 . S
H255 C267 0.950 . S
C256 H248 0.950 . S
C256 C257 1.386 . S
C256 C258 1.391 1_554 S
C257 C256 1.386 . S
C257 C261 1.393 . S
C258 H250 0.950 . S
C258 C256 1.391 1_556 S
C258 C259 1.400 1_556 S
C259 C258 1.400 1_554 S
C259 C260 1.398 . S
C259 C265 1.491 1_554 S
C260 H251 0.950 . S
C260 C259 1.398 . S
C260 C261 1.391 . S
C261 H249 0.950 . S
C261 C257 1.393 . S
C261 C260 1.391 . S
C262 H252 0.950 . S
C262 C263 1.386 . S
C262 C264 1.391 1_556 S
C263 C262 1.386 . S
C263 C267 1.393 . S
C264 H253 0.950 . S
C264 C262 1.391 1_554 S
C264 C265 1.400 1_554 S
C265 C259 1.491 1_556 S
C265 C264 1.400 1_556 S
C265 C266 1.398 . S
C266 H254 0.950 . S
C266 C265 1.398 . S
C266 C267 1.391 . S
C267 H255 0.950 . S
C267 C263 1.393 . S
C267 C266 1.391 . S
H268 C276 0.950 . S
H269 C281 0.950 . S
H270 C278 0.950 . S
H271 C280 0.950 . S
H272 C282 0.950 . S
H273 C284 0.950 . S
H274 C286 0.950 . S
H275 C287 0.950 . S
C276 H268 0.950 . S
C276 C277 1.386 . S
C276 C278 1.391 . S
C277 C276 1.386 . S
C277 C281 1.393 . S
C278 H270 0.950 . S
C278 C276 1.391 . S
C278 C279 1.400 . S
C279 C278 1.400 . S
C279 C280 1.398 . S
C279 C285 1.491 . S
C280 H271 0.950 . S
C280 C279 1.398 . S
C280 C281 1.391 . S
C281 H269 0.950 . S
C281 C277 1.393 . S
C281 C280 1.391 . S
C282 H272 0.950 . S
C282 C283 1.386 . S
C282 C284 1.391 . S
C283 C282 1.386 . S
C283 C287 1.393 . S
C284 H273 0.950 . S
C284 C282 1.391 . S
C284 C285 1.400 . S
C285 C279 1.491 . S
C285 C284 1.400 . S
C285 C286 1.398 . S
C286 H274 0.950 . S
C286 C285 1.398 . S
C286 C287 1.391 . S
C287 H275 0.950 . S
C287 C283 1.393 . S
C287 C286 1.391 . S
H288 C296 0.950 1_455 S
H289 C301 0.950 . S
H290 C298 0.950 1_455 S
H291 C300 0.950 1_554 S
H292 C302 0.950 . S
H293 C304 0.950 . S
H294 C306 0.950 1_456 S
H295 C307 0.950 1_455 S
C296 H288 0.950 1_655 S
C296 C297 1.386 . S
C296 C298 1.391 . S
C297 C296 1.386 . S
C297 C301 1.393 . S
C298 H290 0.950 1_655 S
C298 C296 1.391 . S
C298 C299 1.400 . S
C299 C298 1.400 . S
C299 C300 1.398 . S
C299 C305 1.491 1_556 S
C300 H291 0.950 1_556 S
C300 C299 1.398 . S
C300 C301 1.391 . S
C301 H289 0.950 . S
C301 C297 1.393 . S
C301 C300 1.391 . S
C302 H292 0.950 . S
C302 C303 1.386 . S
C302 C304 1.391 . S
C303 C302 1.386 . S
C303 C307 1.393 . S
C304 H293 0.950 . S
C304 C302 1.391 . S
C304 C305 1.400 . S
C305 C299 1.491 1_554 S
C305 C304 1.400 . S
C305 C306 1.398 . S
C306 H294 0.950 1_654 S
C306 C305 1.398 . S
C306 C307 1.391 . S
C307 H295 0.950 1_655 S
C307 C303 1.393 . S
C307 C306 1.391 . S
H308 C316 0.950 . S
H309 C321 0.950 . S
H310 C318 0.950 . S
H311 C320 0.950 . S
H312 C322 0.950 . S
H313 C324 0.950 . S
H314 C326 0.950 . S
H315 C327 0.950 . S
C316 H308 0.950 . S
C316 C317 1.386 . S
C316 C318 1.391 . S
C317 C316 1.386 . S
C317 C321 1.393 . S
C318 H310 0.950 . S
C318 C316 1.391 . S
C318 C319 1.400 . S
C319 C318 1.400 . S
C319 C320 1.398 . S
C319 C325 1.491 . S
C320 H311 0.950 . S
C320 C319 1.398 . S
C320 C321 1.391 . S
C321 H309 0.950 . S
C321 C317 1.393 . S
C321 C320 1.391 . S
C322 H312 0.950 . S
C322 C323 1.386 . S
C322 C324 1.391 . S
C323 C322 1.386 . S
C323 C327 1.393 . S
C324 H313 0.950 . S
C324 C322 1.391 . S
C324 C325 1.400 . S
C325 C319 1.491 . S
C325 C324 1.400 . S
C325 C326 1.398 . S
C326 H314 0.950 . S
C326 C325 1.398 . S
C326 C327 1.391 . S
C327 H315 0.950 . S
C327 C323 1.393 . S
C327 C326 1.391 . S
H328 C336 0.950 . S
H329 C341 0.950 . S
H330 C338 0.950 1_554 S
H331 C340 0.950 . S
H332 C342 0.950 . S
H333 C344 0.950 1_556 S
H334 C346 0.950 . S
H335 C347 0.950 . S
C336 H328 0.950 . S
C336 C337 1.386 . S
C336 C338 1.391 . S
C337 C336 1.386 . S
C337 C341 1.393 . S
C338 H330 0.950 1_556 S
C338 C336 1.391 . S
C338 C339 1.400 . S
C339 C338 1.400 . S
C339 C340 1.398 . S
C339 C345 1.491 1_556 S
C340 H331 0.950 . S
C340 C339 1.398 . S
C340 C341 1.391 . S
C341 H329 0.950 . S
C341 C337 1.393 . S
C341 C340 1.391 . S
C342 H332 0.950 . S
C342 C343 1.386 . S
C342 C344 1.391 . S
C343 C342 1.386 . S
C343 C347 1.393 . S
C344 H333 0.950 1_554 S
C344 C342 1.391 . S
C344 C345 1.400 . S
C345 C339 1.491 1_554 S
C345 C344 1.400 . S
C345 C346 1.398 . S
C346 H334 0.950 . S
C346 C345 1.398 . S
C346 C347 1.391 . S
C347 H335 0.950 . S
C347 C343 1.393 . S
C347 C346 1.391 . S
H348 C356 0.950 . S
H349 C361 0.950 . S
H350 C358 0.950 . S
H351 C360 0.950 . S
H352 C362 0.950 . S
H353 C364 0.950 . S
H354 C366 0.950 . S
H355 C367 0.950 . S
C356 H348 0.950 . S
C356 C357 1.386 . S
C356 C358 1.391 . S
C357 C356 1.386 . S
C357 C361 1.393 . S
C358 H350 0.950 . S
C358 C356 1.391 . S
C358 C359 1.400 . S
C359 C358 1.400 . S
C359 C360 1.398 . S
C359 C365 1.491 . S
C360 H351 0.950 . S
C360 C359 1.398 . S
C360 C361 1.391 . S
C361 H349 0.950 . S
C361 C357 1.393 . S
C361 C360 1.391 . S
C362 H352 0.950 . S
C362 C363 1.386 . S
C362 C364 1.391 . S
C363 C362 1.386 . S
C363 C367 1.393 . S
C364 H353 0.950 . S
C364 C362 1.391 . S
C364 C365 1.400 . S
C365 C359 1.491 . S
C365 C364 1.400 . S
C365 C366 1.398 . S
C366 H354 0.950 . S
C366 C365 1.398 . S
C366 C367 1.391 . S
C367 H355 0.950 . S
C367 C363 1.393 . S
C367 C366 1.391 . S
H368 C376 0.950 . S
H369 C381 0.950 . S
H370 C378 0.950 . S
H371 C380 0.950 . S
H372 C382 0.950 . S
H373 C384 0.950 . S
H374 C386 0.950 . S
H375 C387 0.950 . S
C376 H368 0.950 . S
C376 C377 1.386 . S
C376 C378 1.391 1_554 S
C377 C376 1.386 . S
C377 C381 1.393 1_554 S
C378 H370 0.950 . S
C378 C376 1.391 1_556 S
C378 C379 1.400 . S
C379 C378 1.400 . S
C379 C380 1.398 . S
C379 C385 1.491 . S
C380 H371 0.950 . S
C380 C379 1.398 . S
C380 C381 1.391 . S
C381 H369 0.950 . S
C381 C377 1.393 1_556 S
C381 C380 1.391 . S
C382 H372 0.950 . S
C382 C383 1.386 . S
C382 C384 1.391 . S
C383 C382 1.386 . S
C383 C387 1.393 . S
C384 H373 0.950 . S
C384 C382 1.391 . S
C384 C385 1.400 . S
C385 C379 1.491 . S
C385 C384 1.400 . S
C385 C386 1.398 . S
C386 H374 0.950 . S
C386 C385 1.398 . S
C386 C387 1.391 . S
C387 H375 0.950 . S
C387 C383 1.393 . S
C387 C386 1.391 . S
H388 C396 0.950 . S
H389 C401 0.950 . S
H390 C398 0.950 . S
H391 C400 0.950 . S
H392 C402 0.950 . S
H393 C404 0.950 . S
H394 C406 0.950 . S
H395 C407 0.950 . S
C396 H388 0.950 . S
C396 C397 1.386 . S
C396 C398 1.391 . S
C397 C396 1.386 . S
C397 C401 1.393 . S
C398 H390 0.950 . S
C398 C396 1.391 . S
C398 C399 1.400 . S
C399 C398 1.400 . S
C399 C400 1.398 . S
C399 C405 1.491 . S
C400 H391 0.950 . S
C400 C399 1.398 . S
C400 C401 1.391 . S
C401 H389 0.950 . S
C401 C397 1.393 . S
C401 C400 1.391 . S
C402 H392 0.950 . S
C402 C403 1.386 . S
C402 C404 1.391 . S
C403 C402 1.386 . S
C403 C407 1.393 . S
C404 H393 0.950 . S
C404 C402 1.391 . S
C404 C405 1.400 . S
C405 C399 1.491 . S
C405 C404 1.400 . S
C405 C406 1.398 . S
C406 H394 0.950 . S
C406 C405 1.398 . S
C406 C407 1.391 . S
C407 H395 0.950 . S
C407 C403 1.393 . S
C407 C406 1.391 . S
H408 C416 0.950 . S
H409 C421 0.950 . S
H410 C418 0.950 . S
H411 C420 0.950 . S
H412 C422 0.950 . S
H413 C424 0.950 . S
H414 C426 0.950 . S
H415 C427 0.950 . S
C416 H408 0.950 . S
C416 C417 1.386 1_556 S
C416 C418 1.391 . S
C417 C416 1.386 1_554 S
C417 C421 1.393 . S
C418 H410 0.950 . S
C418 C416 1.391 . S
C418 C419 1.400 . S
C419 C418 1.400 . S
C419 C420 1.398 . S
C419 C425 1.491 . S
C420 H411 0.950 . S
C420 C419 1.398 . S
C420 C421 1.391 1_556 S
C421 H409 0.950 . S
C421 C417 1.393 . S
C421 C420 1.391 1_554 S
C422 H412 0.950 . S
C422 C423 1.386 . S
C422 C424 1.391 . S
C423 C422 1.386 . S
C423 C427 1.393 . S
C424 H413 0.950 . S
C424 C422 1.391 . S
C424 C425 1.400 . S
C425 C419 1.491 . S
C425 C424 1.400 . S
C425 C426 1.398 . S
C426 H414 0.950 . S
C426 C425 1.398 . S
C426 C427 1.391 . S
C427 H415 0.950 . S
C427 C423 1.393 . S
C427 C426 1.391 . S
H428 C436 0.950 . S
H429 C441 0.950 . S
H430 C438 0.950 . S
H431 C440 0.950 . S
H432 C442 0.950 . S
H433 C444 0.950 . S
H434 C446 0.950 . S
H435 C447 0.950 . S
C436 H428 0.950 . S
C436 C437 1.386 . S
C436 C438 1.391 . S
C437 C436 1.386 . S
C437 C441 1.393 . S
C438 H430 0.950 . S
C438 C436 1.391 . S
C438 C439 1.400 . S
C439 C438 1.400 . S
C439 C440 1.398 . S
C439 C445 1.491 . S
C440 H431 0.950 . S
C440 C439 1.398 . S
C440 C441 1.391 . S
C441 H429 0.950 . S
C441 C437 1.393 . S
C441 C440 1.391 . S
C442 H432 0.950 . S
C442 C443 1.386 . S
C442 C444 1.391 . S
C443 C442 1.386 . S
C443 C447 1.393 . S
C444 H433 0.950 . S
C444 C442 1.391 . S
C444 C445 1.400 . S
C445 C439 1.491 . S
C445 C444 1.400 . S
C445 C446 1.398 . S
C446 H434 0.950 . S
C446 C445 1.398 . S
C446 C447 1.391 . S
C447 H435 0.950 . S
C447 C443 1.393 . S
C447 C446 1.391 . S
H448 C456 0.950 . S
H449 C461 0.950 . S
H450 C458 0.950 . S
H451 C460 0.950 . S
H452 C462 0.950 . S
H453 C464 0.950 . S
H454 C466 0.950 . S
H455 C467 0.950 . S
C456 H448 0.950 . S
C456 C457 1.386 . S
C456 C458 1.391 . S
C457 C456 1.386 . S
C457 C461 1.393 . S
C458 H450 0.950 . S
C458 C456 1.391 . S
C458 C459 1.400 . S
C459 C458 1.400 . S
C459 C460 1.398 . S
C459 C465 1.491 . S
C460 H451 0.950 . S
C460 C459 1.398 . S
C460 C461 1.391 . S
C461 H449 0.950 . S
C461 C457 1.393 . S
C461 C460 1.391 . S
C462 H452 0.950 . S
C462 C463 1.386 1_554 S
C462 C464 1.391 . S
C463 C462 1.386 1_556 S
C463 C467 1.393 . S
C464 H453 0.950 . S
C464 C462 1.391 . S
C464 C465 1.400 . S
C465 C459 1.491 . S
C465 C464 1.400 . S
C465 C466 1.398 . S
C466 H454 0.950 . S
C466 C465 1.398 . S
C466 C467 1.391 1_554 S
C467 H455 0.950 . S
C467 C463 1.393 . S
C467 C466 1.391 1_556 S
H468 C476 0.950 . S
H469 C481 0.950 . S
H470 C478 0.950 . S
H471 C480 0.950 . S
H472 C482 0.950 . S
H473 C484 0.950 . S
H474 C486 0.950 . S
H475 C487 0.950 . S
C476 H468 0.950 . S
C476 C477 1.386 . S
C476 C478 1.391 . S
C477 C476 1.386 . S
C477 C481 1.393 . S
C478 H470 0.950 . S
C478 C476 1.391 . S
C478 C479 1.400 . S
C479 C478 1.400 . S
C479 C480 1.398 . S
C479 C485 1.491 . S
C480 H471 0.950 . S
C480 C479 1.398 . S
C480 C481 1.391 . S
C481 H469 0.950 . S
C481 C477 1.393 . S
C481 C480 1.391 . S
C482 H472 0.950 . S
C482 C483 1.386 . S
C482 C484 1.391 . S
C483 C482 1.386 . S
C483 C487 1.393 . S
C484 H473 0.950 . S
C484 C482 1.391 . S
C484 C485 1.400 . S
C485 C479 1.491 . S
C485 C484 1.400 . S
C485 C486 1.398 . S
C486 H474 0.950 . S
C486 C485 1.398 . S
C486 C487 1.391 . S
C487 H475 0.950 . S
C487 C483 1.393 . S
C487 C486 1.391 . S
H488 C496 0.950 . S
H489 C501 0.950 . S
H490 C498 0.950 . S
H491 C500 0.950 . S
H492 C502 0.950 . S
H493 C504 0.950 . S
H494 C506 0.950 . S
H495 C507 0.950 . S
C496 H488 0.950 . S
C496 C497 1.386 . S
C496 C498 1.391 . S
C497 C496 1.386 . S
C497 C501 1.393 . S
C498 H490 0.950 . S
C498 C496 1.391 . S
C498 C499 1.400 . S
C499 C498 1.400 . S
C499 C500 1.398 . S
C499 C505 1.491 . S
C500 H491 0.950 . S
C500 C499 1.398 . S
C500 C501 1.391 . S
C501 H489 0.950 . S
C501 C497 1.393 . S
C501 C500 1.391 . S
C502 H492 0.950 . S
C502 C503 1.386 . S
C502 C504 1.391 1_556 S
C503 C502 1.386 . S
C503 C507 1.393 1_556 S
C504 H493 0.950 . S
C504 C502 1.391 1_554 S
C504 C505 1.400 . S
C505 C499 1.491 . S
C505 C504 1.400 . S
C505 C506 1.398 . S
C506 H494 0.950 . S
C506 C505 1.398 . S
C506 C507 1.391 . S
C507 H495 0.950 . S
C507 C503 1.393 1_554 S
C507 C506 1.391 . S
H508 C516 0.950 . S
H509 C521 0.950 . S
H510 C518 0.950 . S
H511 C520 0.950 . S
H512 C522 0.950 . S
H513 C524 0.950 . S
H514 C526 0.950 . S
H515 C527 0.950 . S
C516 H508 0.950 . S
C516 C517 1.386 . S
C516 C518 1.391 . S
C517 C516 1.386 . S
C517 C521 1.393 . S
C518 H510 0.950 . S
C518 C516 1.391 . S
C518 C519 1.400 . S
C519 C518 1.400 . S
C519 C520 1.398 . S
C519 C525 1.491 . S
C520 H511 0.950 . S
C520 C519 1.398 . S
C520 C521 1.391 . S
C521 H509 0.950 . S
C521 C517 1.393 . S
C521 C520 1.391 . S
C522 H512 0.950 . S
C522 C523 1.386 . S
C522 C524 1.391 . S
C523 C522 1.386 . S
C523 C527 1.393 . S
C524 H513 0.950 . S
C524 C522 1.391 . S
C524 C525 1.400 . S
C525 C519 1.491 . S
C525 C524 1.400 . S
C525 C526 1.398 . S
C526 H514 0.950 . S
C526 C525 1.398 . S
C526 C527 1.391 . S
C527 H515 0.950 . S
C527 C523 1.393 . S
C527 C526 1.391 . S
H528 C536 0.950 . S
H529 C541 0.948 1_556 S
H530 C538 0.950 . S
H531 C540 0.950 . S
H532 C542 0.950 . S
H533 C544 0.950 . S
H534 C546 0.950 . S
H535 C547 0.950 . S
C536 H528 0.950 . S
C536 C537 1.386 1_554 S
C536 C538 1.391 . S
C537 C536 1.386 1_556 S
C537 C541 1.392 1_556 S
C538 H530 0.950 . S
C538 C536 1.391 . S
C538 C539 1.400 . S
C539 C538 1.400 . S
C539 C540 1.398 . S
C539 C545 1.491 . S
C540 H531 0.950 . S
C540 C539 1.398 . S
C540 C541 1.393 . S
C541 H529 0.948 1_554 S
C541 C537 1.392 1_554 S
C541 C540 1.393 . S
C542 H532 0.950 . S
C542 C543 1.386 . S
C542 C544 1.391 . S
C543 C542 1.386 . S
C543 C547 1.393 . S
C544 H533 0.950 . S
C544 C542 1.391 . S
C544 C545 1.400 . S
C545 C539 1.491 . S
C545 C544 1.400 . S
C545 C546 1.398 . S
C546 H534 0.950 . S
C546 C545 1.398 . S
C546 C547 1.391 . S
C547 H535 0.950 . S
C547 C543 1.393 . S
C547 C546 1.391 . S
H548 C556 0.950 . S
H549 C561 0.950 . S
H550 C558 0.950 . S
H551 C560 0.950 . S
H552 C562 0.950 . S
H553 C564 0.950 . S
H554 C566 0.950 . S
H555 C567 0.950 . S
C556 H548 0.950 . S
C556 C557 1.386 . S
C556 C558 1.391 . S
C557 C556 1.386 . S
C557 C561 1.393 . S
C558 H550 0.950 . S
C558 C556 1.391 . S
C558 C559 1.400 . S
C559 C558 1.400 . S
C559 C560 1.398 . S
C559 C565 1.491 . S
C560 H551 0.950 . S
C560 C559 1.398 . S
C560 C561 1.391 . S
C561 H549 0.950 . S
C561 C557 1.393 . S
C561 C560 1.391 . S
C562 H552 0.950 . S
C562 C563 1.386 . S
C562 C564 1.391 . S
C563 C562 1.386 . S
C563 C567 1.393 . S
C564 H553 0.950 . S
C564 C562 1.391 . S
C564 C565 1.400 . S
C565 C559 1.491 . S
C565 C564 1.400 . S
C565 C566 1.398 . S
C566 H554 0.950 . S
C566 C565 1.398 . S
C566 C567 1.391 . S
C567 H555 0.950 . S
C567 C563 1.393 . S
C567 C566 1.391 . S
H568 C576 0.950 . S
H569 C581 0.950 . S
H570 C578 0.950 . S
H571 C580 0.950 . S
H572 C582 0.950 . S
H573 C584 0.950 . S
H574 C586 0.950 . S
H575 C587 0.950 . S
C576 H568 0.950 . S
C576 C577 1.386 . S
C576 C578 1.391 . S
C577 C576 1.386 . S
C577 C581 1.393 . S
C578 H570 0.950 . S
C578 C576 1.391 . S
C578 C579 1.400 . S
C579 C578 1.400 . S
C579 C580 1.398 . S
C579 C585 1.491 . S
C580 H571 0.950 . S
C580 C579 1.398 . S
C580 C581 1.391 . S
C581 H569 0.950 . S
C581 C577 1.393 . S
C581 C580 1.391 . S
C582 H572 0.950 . S
C582 C583 1.386 1_554 S
C582 C584 1.391 . S
C583 C582 1.386 1_556 S
C583 C587 1.393 . S
C584 H573 0.950 . S
C584 C582 1.391 . S
C584 C585 1.400 . S
C585 C579 1.491 . S
C585 C584 1.400 . S
C585 C586 1.398 . S
C586 H574 0.950 . S
C586 C585 1.398 . S
C586 C587 1.391 1_554 S
C587 H575 0.950 . S
C587 C583 1.393 . S
C587 C586 1.391 1_556 S
H588 C596 0.950 . S
H589 C601 0.950 . S
H590 C598 0.950 . S
H591 C600 0.950 . S
H592 C602 0.950 . S
H593 C604 0.950 . S
H594 C606 0.950 . S
H595 C607 0.950 . S
C596 H588 0.950 . S
C596 C597 1.386 . S
C596 C598 1.391 . S
C597 C596 1.386 . S
C597 C601 1.393 . S
C598 H590 0.950 . S
C598 C596 1.391 . S
C598 C599 1.400 . S
C599 C598 1.400 . S
C599 C600 1.398 . S
C599 C605 1.491 . S
C600 H591 0.950 . S
C600 C599 1.398 . S
C600 C601 1.391 . S
C601 H589 0.950 . S
C601 C597 1.393 . S
C601 C600 1.391 . S
C602 H592 0.950 . S
C602 C603 1.386 . S
C602 C604 1.391 . S
C603 C602 1.386 . S
C603 C607 1.393 . S
C604 H593 0.950 . S
C604 C602 1.391 . S
C604 C605 1.400 . S
C605 C599 1.491 . S
C605 C604 1.400 . S
C605 C606 1.398 . S
C606 H594 0.950 . S
C606 C605 1.398 . S
C606 C607 1.391 . S
C607 H595 0.950 . S
C607 C603 1.393 . S
C607 C606 1.391 . S
H608 C616 0.950 . S
H609 C621 0.950 . S
H610 C618 0.950 . S
H611 C620 0.950 . S
H612 C622 0.950 1_554 S
H613 C624 0.950 . S
H614 C626 0.950 . S
H615 C627 0.950 1_554 S
C616 H608 0.950 . S
C616 C617 1.386 . S
C616 C618 1.391 . S
C617 C616 1.386 . S
C617 C621 1.393 . S
C618 H610 0.950 . S
C618 C616 1.391 . S
C618 C619 1.400 . S
C619 C618 1.400 . S
C619 C620 1.398 . S
C619 C625 1.491 . S
C620 H611 0.950 . S
C620 C619 1.398 . S
C620 C621 1.391 . S
C621 H609 0.950 . S
C621 C617 1.393 . S
C621 C620 1.391 . S
C622 H612 0.950 1_556 S
C622 C623 1.386 1_556 S
C622 C624 1.391 . S
C623 C622 1.386 1_554 S
C623 C627 1.393 1_554 S
C624 H613 0.950 . S
C624 C622 1.391 . S
C624 C625 1.400 . S
C625 C619 1.491 . S
C625 C624 1.400 . S
C625 C626 1.398 . S
C626 H614 0.950 . S
C626 C625 1.398 . S
C626 C627 1.391 . S
C627 H615 0.950 1_556 S
C627 C623 1.393 1_556 S
C627 C626 1.391 . S
H628 C636 0.950 . S
H629 C641 0.950 . S
H630 C638 0.950 . S
H631 C640 0.950 . S
H632 C642 0.950 . S
H633 C644 0.950 . S
H634 C646 0.950 . S
H635 C647 0.950 . S
C636 H628 0.950 . S
C636 C637 1.386 . S
C636 C638 1.391 . S
C637 C636 1.386 . S
C637 C641 1.393 . S
C638 H630 0.950 . S
C638 C636 1.391 . S
C638 C639 1.400 . S
C639 C638 1.400 . S
C639 C640 1.398 . S
C639 C645 1.491 . S
C640 H631 0.950 . S
C640 C639 1.398 . S
C640 C641 1.391 . S
C641 H629 0.950 . S
C641 C637 1.393 . S
C641 C640 1.391 . S
C642 H632 0.950 . S
C642 C643 1.386 . S
C642 C644 1.391 . S
C643 C642 1.386 . S
C643 C647 1.393 . S
C644 H633 0.950 . S
C644 C642 1.391 . S
C644 C645 1.400 . S
C645 C639 1.491 . S
C645 C644 1.400 . S
C645 C646 1.398 . S
C646 H634 0.950 . S
C646 C645 1.398 . S
C646 C647 1.391 . S
C647 H635 0.950 . S
C647 C643 1.393 . S
C647 C646 1.391 . S
H648 C656 0.950 . S
H649 C661 0.950 . S
H650 C658 0.950 . S
H651 C660 0.950 . S
H652 C662 0.950 . S
H653 C664 0.950 . S
H654 C666 0.950 . S
H655 C667 0.950 . S
C656 H648 0.950 . S
C656 C657 1.386 . S
C656 C658 1.391 1_554 S
C657 C656 1.386 . S
C657 C661 1.393 1_554 S
C658 H650 0.950 . S
C658 C656 1.391 1_556 S
C658 C659 1.400 . S
C659 C658 1.400 . S
C659 C660 1.398 . S
C659 C665 1.491 . S
C660 H651 0.950 . S
C660 C659 1.398 . S
C660 C661 1.391 . S
C661 H649 0.950 . S
C661 C657 1.393 1_556 S
C661 C660 1.391 . S
C662 H652 0.950 . S
C662 C663 1.386 . S
C662 C664 1.391 . S
C663 C662 1.386 . S
C663 C667 1.393 . S
C664 H653 0.950 . S
C664 C662 1.391 . S
C664 C665 1.400 . S
C665 C659 1.491 . S
C665 C664 1.400 . S
C665 C666 1.398 . S
C666 H654 0.950 . S
C666 C665 1.398 . S
C666 C667 1.391 . S
C667 H655 0.950 . S
C667 C663 1.393 . S
C667 C666 1.391 . S
H668 C676 0.950 . S
H669 C681 0.950 . S
H670 C678 0.950 . S
H671 C680 0.950 . S
H672 C682 0.950 . S
H673 C684 0.950 . S
H674 C686 0.950 . S
H675 C687 0.950 . S
C676 H668 0.950 . S
C676 C677 1.386 . S
C676 C678 1.391 . S
C677 C676 1.386 . S
C677 C681 1.393 . S
C678 H670 0.950 . S
C678 C676 1.391 . S
C678 C679 1.400 . S
C679 C678 1.400 . S
C679 C680 1.398 . S
C679 C685 1.491 . S
C680 H671 0.950 . S
C680 C679 1.398 . S
C680 C681 1.391 . S
C681 H669 0.950 . S
C681 C677 1.393 . S
C681 C680 1.391 . S
C682 H672 0.950 . S
C682 C683 1.386 . S
C682 C684 1.391 . S
C683 C682 1.386 . S
C683 C687 1.393 . S
C684 H673 0.950 . S
C684 C682 1.391 . S
C684 C685 1.400 . S
C685 C679 1.491 . S
C685 C684 1.400 . S
C685 C686 1.398 . S
C686 H674 0.950 . S
C686 C685 1.398 . S
C686 C687 1.391 . S
C687 H675 0.950 . S
C687 C683 1.393 . S
C687 C686 1.391 . S
H688 C696 0.950 . S
H689 C701 0.950 . S
H690 C698 0.950 . S
H691 C700 0.950 . S
H692 C702 0.950 . S
H693 C704 0.950 . S
H694 C706 0.950 . S
H695 C707 0.950 . S
C696 H688 0.950 . S
C696 C697 1.386 . S
C696 C698 1.391 . S
C697 C696 1.386 . S
C697 C701 1.393 . S
C698 H690 0.950 . S
C698 C696 1.391 . S
C698 C699 1.400 . S
C699 C698 1.400 . S
C699 C700 1.398 . S
C699 C705 1.491 . S
C700 H691 0.950 . S
C700 C699 1.398 . S
C700 C701 1.391 . S
C701 H689 0.950 . S
C701 C697 1.393 . S
C701 C700 1.391 . S
C702 H692 0.950 . S
C702 C703 1.386 . S
C702 C704 1.391 . S
C703 C702 1.386 . S
C703 C707 1.393 . S
C704 H693 0.950 . S
C704 C702 1.391 . S
C704 C705 1.400 . S
C705 C699 1.491 . S
C705 C704 1.400 . S
C705 C706 1.398 . S
C706 H694 0.950 . S
C706 C705 1.398 . S
C706 C707 1.391 . S
C707 H695 0.950 . S
C707 C703 1.393 . S
C707 C706 1.391 . S
H708 C716 0.950 . S
H709 C721 0.950 . S
H710 C718 0.950 . S
H711 C720 0.950 . S
H712 C722 0.950 . S
H713 C724 0.950 . S
H714 C726 0.950 . S
H715 C727 0.950 . S
C716 H708 0.950 . S
C716 C717 1.386 . S
C716 C718 1.391 . S
C717 C716 1.386 . S
C717 C721 1.393 . S
C718 H710 0.950 . S
C718 C716 1.391 . S
C718 C719 1.400 . S
C719 C718 1.400 . S
C719 C720 1.398 . S
C719 C725 1.491 . S
C720 H711 0.950 . S
C720 C719 1.398 . S
C720 C721 1.391 . S
C721 H709 0.950 . S
C721 C717 1.393 . S
C721 C720 1.391 . S
C722 H712 0.950 . S
C722 C723 1.386 . S
C722 C724 1.391 . S
C723 C722 1.386 . S
C723 C727 1.393 . S
C724 H713 0.950 . S
C724 C722 1.391 . S
C724 C725 1.400 . S
C725 C719 1.491 . S
C725 C724 1.400 . S
C725 C726 1.398 . S
C726 H714 0.950 . S
C726 C725 1.398 . S
C726 C727 1.391 . S
C727 H715 0.950 . S
C727 C723 1.393 . S
C727 C726 1.391 . S
H728 C736 0.950 . S
H729 C741 0.950 . S
H730 C738 0.950 . S
H731 C740 0.950 . S
H732 C742 0.950 . S
H733 C744 0.950 . S
H734 C746 0.950 . S
H735 C747 0.950 . S
C736 H728 0.950 . S
C736 C737 1.386 . S
C736 C738 1.391 . S
C737 C736 1.386 . S
C737 C741 1.393 . S
C738 H730 0.950 . S
C738 C736 1.391 . S
C738 C739 1.400 . S
C739 C738 1.400 . S
C739 C740 1.398 . S
C739 C745 1.491 . S
C740 H731 0.950 . S
C740 C739 1.398 . S
C740 C741 1.391 . S
C741 H729 0.950 . S
C741 C737 1.393 . S
C741 C740 1.391 . S
C742 H732 0.950 . S
C742 C743 1.386 . S
C742 C744 1.391 . S
C743 C742 1.386 . S
C743 C747 1.393 . S
C744 H733 0.950 . S
C744 C742 1.391 . S
C744 C745 1.400 . S
C745 C739 1.491 . S
C745 C744 1.400 . S
C745 C746 1.398 . S
C746 H734 0.950 . S
C746 C745 1.398 . S
C746 C747 1.391 . S
C747 H735 0.950 . S
C747 C743 1.393 . S
C747 C746 1.391 . S
H748 C756 0.950 . S
H749 C761 0.950 . S
H750 C758 0.950 . S
H751 C760 0.950 . S
H752 C762 0.950 . S
H753 C764 0.950 . S
H754 C766 0.950 . S
H755 C767 0.950 . S
C756 H748 0.950 . S
C756 C757 1.386 . S
C756 C758 1.391 . S
C757 C756 1.386 . S
C757 C761 1.393 . S
C758 H750 0.950 . S
C758 C756 1.391 . S
C758 C759 1.400 . S
C759 C758 1.400 . S
C759 C760 1.398 . S
C759 C765 1.491 . S
C760 H751 0.950 . S
C760 C759 1.398 . S
C760 C761 1.391 . S
C761 H749 0.950 . S
C761 C757 1.393 . S
C761 C760 1.391 . S
C762 H752 0.950 . S
C762 C763 1.386 . S
C762 C764 1.391 . S
C763 C762 1.386 . S
C763 C767 1.393 . S
C764 H753 0.950 . S
C764 C762 1.391 . S
C764 C765 1.400 . S
C765 C759 1.491 . S
C765 C764 1.400 . S
C765 C766 1.398 . S
C766 H754 0.950 . S
C766 C765 1.398 . S
C766 C767 1.391 . S
C767 H755 0.950 . S
C767 C763 1.393 . S
C767 C766 1.391 . S
H768 C776 0.950 . S
H769 C781 0.950 . S
H770 C778 0.950 . S
H771 C780 0.950 . S
H772 C782 0.950 . S
H773 C784 0.950 . S
H774 C786 0.950 . S
H775 C787 0.950 . S
C776 H768 0.950 . S
C776 C777 1.386 . S
C776 C778 1.391 . S
C777 C776 1.386 . S
C777 C781 1.393 . S
C778 H770 0.950 . S
C778 C776 1.391 . S
C778 C779 1.400 . S
C779 C778 1.400 . S
C779 C780 1.398 . S
C779 C785 1.491 . S
C780 H771 0.950 . S
C780 C779 1.398 . S
C780 C781 1.391 . S
C781 H769 0.950 . S
C781 C777 1.393 . S
C781 C780 1.391 . S
C782 H772 0.950 . S
C782 C783 1.386 . S
C782 C784 1.391 . S
C783 C782 1.386 . S
C783 C787 1.393 . S
C784 H773 0.950 . S
C784 C782 1.391 . S
C784 C785 1.400 . S
C785 C779 1.491 . S
C785 C784 1.400 . S
C785 C786 1.398 . S
C786 H774 0.950 . S
C786 C785 1.398 . S
C786 C787 1.391 . S
C787 H775 0.950 . S
C787 C783 1.393 . S
C787 C786 1.391 . S
H788 C796 0.950 . S
H789 C801 0.950 . S
H790 C798 0.950 . S
H791 C800 0.950 . S
H792 C802 0.950 . S
H793 C804 0.950 . S
H794 C806 0.950 . S
H795 C807 0.950 . S
C796 H788 0.950 . S
C796 C797 1.386 . S
C796 C798 1.391 . S
C797 C796 1.386 . S
C797 C801 1.393 . S
C798 H790 0.950 . S
C798 C796 1.391 . S
C798 C799 1.400 . S
C799 C798 1.400 . S
C799 C800 1.398 . S
C799 C805 1.491 . S
C800 H791 0.950 . S
C800 C799 1.398 . S
C800 C801 1.391 . S
C801 H789 0.950 . S
C801 C797 1.393 . S
C801 C800 1.391 . S
C802 H792 0.950 . S
C802 C803 1.386 . S
C802 C804 1.391 . S
C803 C802 1.386 . S
C803 C807 1.393 . S
C804 H793 0.950 . S
C804 C802 1.391 . S
C804 C805 1.400 . S
C805 C799 1.491 . S
C805 C804 1.400 . S
C805 C806 1.398 . S
C806 H794 0.950 . S
C806 C805 1.398 . S
C806 C807 1.391 . S
C807 H795 0.950 . S
C807 C803 1.393 . S
C807 C806 1.391 . S
H808 C816 0.950 . S
H809 C821 0.950 . S
H810 C818 0.950 . S
H811 C820 0.950 . S
H812 C822 0.950 . S
H813 C824 0.950 . S
H814 C826 0.950 . S
H815 C827 0.950 . S
C816 H808 0.950 . S
C816 C817 1.386 . S
C816 C818 1.391 . S
C817 C816 1.386 . S
C817 C821 1.393 . S
C818 H810 0.950 . S
C818 C816 1.391 . S
C818 C819 1.400 . S
C819 C818 1.400 . S
C819 C820 1.398 . S
C819 C825 1.491 . S
C820 H811 0.950 . S
C820 C819 1.398 . S
C820 C821 1.391 . S
C821 H809 0.950 . S
C821 C817 1.393 . S
C821 C820 1.391 . S
C822 H812 0.950 . S
C822 C823 1.386 . S
C822 C824 1.391 . S
C823 C822 1.386 . S
C823 C827 1.393 . S
C824 H813 0.950 . S
C824 C822 1.391 . S
C824 C825 1.400 . S
C825 C819 1.491 . S
C825 C824 1.400 . S
C825 C826 1.398 . S
C826 H814 0.950 . S
C826 C825 1.398 . S
C826 C827 1.391 . S
C827 H815 0.950 . S
C827 C823 1.393 . S
C827 C826 1.391 . S
H828 C836 0.950 . S
H829 C841 0.950 . S
H830 C838 0.950 . S
H831 C840 0.950 . S
H832 C842 0.950 . S
H833 C844 0.950 . S
H834 C846 0.950 . S
H835 C847 0.950 . S
C836 H828 0.950 . S
C836 C837 1.386 . S
C836 C838 1.391 . S
C837 C836 1.386 . S
C837 C841 1.393 . S
C838 H830 0.950 . S
C838 C836 1.391 . S
C838 C839 1.400 . S
C839 C838 1.400 . S
C839 C840 1.398 . S
C839 C845 1.491 . S
C840 H831 0.950 . S
C840 C839 1.398 . S
C840 C841 1.391 . S
C841 H829 0.950 . S
C841 C837 1.393 . S
C841 C840 1.391 . S
C842 H832 0.950 . S
C842 C843 1.386 . S
C842 C844 1.391 . S
C843 C842 1.386 . S
C843 C847 1.393 . S
C844 H833 0.950 . S
C844 C842 1.391 . S
C844 C845 1.400 . S
C845 C839 1.491 . S
C845 C844 1.400 . S
C845 C846 1.398 . S
C846 H834 0.950 . S
C846 C845 1.398 . S
C846 C847 1.391 . S
C847 H835 0.950 . S
C847 C843 1.393 . S
C847 C846 1.391 . S
C217 C0 1.194 . S
C223 C52 1.183 . S
C237 C65 1.198 . S
C243 C13 1.204 . S
C257 C26 1.187 . S
C263 C78 1.202 . S
C277 C39 1.189 . S
C283 C91 1.203 . S
C297 C104 1.253 . S
C303 C156 1.250 . S
C317 C169 1.262 . S
C323 C117 1.246 . S
C337 C130 1.254 . S
C343 C182 1.258 . S
C357 C143 1.260 . S
C363 C195 1.246 . S
C377 C8 1.203 . S
C383 C205 1.194 . S
C397 C166 1.174 . S
C403 C21 1.197 . S
C417 C34 1.202 . S
C423 C179 1.180 . S
C437 C192 1.165 . S
C443 C47 1.187 . S
C457 C127 1.195 . S
C463 C60 1.204 . S
C477 C140 1.198 . S
C483 C73 1.213 . S
C497 C153 1.167 . S
C503 C86 1.190 . S
C517 C114 1.167 . S
C523 C99 1.190 . S
C537 C112 1.108 . S
C543 C96 1.054 . S
C557 C57 1.084 . S
C563 C125 1.106 . S
C577 C70 1.037 . S
C583 C138 1.122 . S
C597 C151 1.103 . S
C603 C83 1.071 . S
C617 C18 1.057 . S
C623 C164 1.107 . S
C637 C177 1.121 . S
C643 C31 1.037 . S
C657 C190 1.123 . S
C663 C44 1.038 . S
C677 C203 1.103 . S
C683 C5 1.072 . S
C697 C101 1.322 . S
C703 C10 1.337 . S
C717 C23 1.320 . S
C723 C62 1.338 . S
C737 C36 1.341 . S
C743 C75 1.317 . S
C757 C49 1.320 . S
C763 C88 1.337 . S
C777 C200 1.192 . S
C783 C109 1.170 . S
C797 C161 1.157 . S
C803 C122 1.190 . S
C817 C174 1.188 . S
C823 C135 1.155 . S
C837 C187 1.191 . S
C843 C148 1.160 . S
