# Generated by pormake.
# Topology tfs, (6)-cn, num edge types: 1
# Building blocks:
#     Node 0, Type 0, BuildingBlock: MIDCAF_clean_sbu_0, # of connection points: 6
#     Node 1, Type 0, BuildingBlock: MIDCAF_clean_sbu_0, # of connection points: 6
#     Node 2, Type 0, BuildingBlock: MIDCAF_clean_sbu_0, # of connection points: 6
#     Node 3, Type 0, BuildingBlock: MIDCAF_clean_sbu_0, # of connection points: 6
#     Node 4, Type 0, BuildingBlock: MIDCAF_clean_sbu_0, # of connection points: 6
#     Node 5, Type 0, BuildingBlock: MIDCAF_clean_sbu_0, # of connection points: 6
#     Edge 6, Type (0, 0), BuildingBlock: XUDNAN_clean_linker_2, # of connection points: 2
#     Edge 7, Type (0, 0), BuildingBlock: XUDNAN_clean_linker_2, # of connection points: 2
#     Edge 8, Type (0, 0), BuildingBlock: XUDNAN_clean_linker_2, # of connection points: 2
#     Edge 9, Type (0, 0), BuildingBlock: XUDNAN_clean_linker_2, # of connection points: 2
#     Edge 10, Type (0, 0), BuildingBlock: XUDNAN_clean_linker_2, # of connection points: 2
#     Edge 11, Type (0, 0), BuildingBlock: XUDNAN_clean_linker_2, # of connection points: 2
#     Edge 12, Type (0, 0), BuildingBlock: XUDNAN_clean_linker_2, # of connection points: 2
#     Edge 13, Type (0, 0), BuildingBlock: XUDNAN_clean_linker_2, # of connection points: 2
#     Edge 14, Type (0, 0), BuildingBlock: XUDNAN_clean_linker_2, # of connection points: 2
#     Edge 15, Type (0, 0), BuildingBlock: XUDNAN_clean_linker_2, # of connection points: 2
#     Edge 16, Type (0, 0), BuildingBlock: XUDNAN_clean_linker_2, # of connection points: 2
#     Edge 17, Type (0, 0), BuildingBlock: XUDNAN_clean_linker_2, # of connection points: 2
#     Edge 18, Type (0, 0), BuildingBlock: XUDNAN_clean_linker_2, # of connection points: 2
#     Edge 19, Type (0, 0), BuildingBlock: XUDNAN_clean_linker_2, # of connection points: 2
#     Edge 20, Type (0, 0), BuildingBlock: XUDNAN_clean_linker_2, # of connection points: 2
#     Edge 21, Type (0, 0), BuildingBlock: XUDNAN_clean_linker_2, # of connection points: 2
#     Edge 22, Type (0, 0), BuildingBlock: XUDNAN_clean_linker_2, # of connection points: 2
#     Edge 23, Type (0, 0), BuildingBlock: XUDNAN_clean_linker_2, # of connection points: 2
# Relax obj value: 0.134
# Max RMSD: 0.124
# Mean RMSD: 0.124
data_MOF--net-tfs--node1-MIDCAF_clean_sbu_0--edge1-XUDNAN_clean_linker_2
_symmetry_space_group_name_H-M    P1
_symmetry_Int_Tables_number       1
_symmetry_cell_setting            triclinic
loop_
_symmetry_equiv_pos_as_xyz
'x, y, z'
_cell_length_a     42.393288
_cell_length_b     42.491732
_cell_length_c     15.414161
_cell_angle_alpha  89.841891
_cell_angle_beta   90.666902
_cell_angle_gamma 120.11967
loop_
_atom_site_label
_atom_site_type_symbol
_atom_site_fract_x
_atom_site_fract_y
_atom_site_fract_z
_atom_type_partial_charge
Zn0 Zn 0.18085 0.42293 0.83005 0.0
Zn1 Zn 0.2619 0.424 0.02349 0.0
Zn2 Zn 0.21593 0.41578 0.92635 0.0
C3 C 0.27235 0.38974 0.89728 0.0
C4 C 0.19997 0.3761 0.10634 0.0
O5 O 0.23162 0.47396 0.89901 0.0
O6 O 0.17855 0.4673 0.85759 0.0
C7 C 0.21832 0.40439 0.72859 0.0
O8 O 0.23942 0.38232 0.88201 0.0
O9 O 0.29334 0.4188 0.9375 0.0
O10 O 0.23158 0.38087 0.09714 0.0
O11 O 0.18769 0.38999 0.05013 0.0
O12 O 0.21169 0.4301 0.73063 0.0
O13 O 0.21747 0.38851 0.80075 0.0
O14 O 0.1601 0.38773 0.97919 0.0
O15 O 0.13816 0.37367 0.84678 0.0
C16 C 0.13293 0.36944 0.92726 0.0
O17 O 0.25794 0.47415 0.95351 0.0
O18 O 0.28274 0.47286 0.07906 0.0
C19 C 0.21159 0.48789 0.87856 0.0
C20 C 0.27941 0.49098 0.01844 0.0
Zn21 Zn 0.74858 0.16955 0.9138 0.0
Zn22 Zn 0.83928 0.26074 0.06072 0.0
Zn23 Zn 0.79406 0.21274 0.99059 0.0
C24 C 0.87601 0.24962 0.93912 0.0
C25 C 0.8154 0.21115 0.18533 0.0
O26 O 0.74568 0.22134 0.98883 0.0
O27 O 0.70415 0.16405 0.96634 0.0
C28 C 0.79177 0.19794 0.78862 0.0
O29 O 0.84349 0.23516 0.90705 0.0
O30 O 0.88133 0.25872 0.01778 0.0
O31 O 0.82851 0.24506 0.18023 0.0
O32 O 0.80214 0.19142 0.11649 0.0
O33 O 0.75835 0.18758 0.79506 0.0
O34 O 0.81211 0.20788 0.85743 0.0
O35 O 0.78107 0.16159 0.05881 0.0
O36 O 0.76179 0.13187 0.93548 0.0
C37 C 0.77212 0.13298 0.0128 0.0
O38 O 0.77708 0.25425 0.01345 0.0
O39 O 0.83251 0.30172 0.025 0.0
C40 C 0.71181 0.19598 0.98512 0.0
C41 C 0.79857 0.28901 0.01884 0.0
Zn42 Zn 0.54446 0.83088 0.09534 0.0
Zn43 Zn 0.55931 0.74457 0.91567 0.0
Zn44 Zn 0.56718 0.7967 0.01385 0.0
C45 C 0.60052 0.74888 0.06823 0.0
C46 C 0.60411 0.8097 0.82746 0.0
O47 O 0.5076 0.78115 -0.00016 0.0
O48 O 0.494 0.81769 0.07157 0.0
C49 C 0.57836 0.80952 0.218 0.0
O50 O 0.59644 0.77565 0.09159 0.0
O51 O 0.58614 0.73177 0.99873 0.0
O52 O 0.58832 0.77555 0.82058 0.0
O53 O 0.60004 0.82463 0.89607 0.0
O54 O 0.55481 0.81917 0.20964 0.0
O55 O 0.58928 0.8002 0.14991 0.0
O56 O 0.60247 0.85156 0.96028 0.0
O57 O 0.5827 0.87747 0.05153 0.0
C58 C 0.60503 0.88043 0.99422 0.0
O59 O 0.51025 0.74945 0.98763 0.0
O60 O 0.50737 0.70805 0.8961 0.0
C61 C 0.48446 0.79117 0.02096 0.0
C62 C 0.49155 0.71876 0.94674 0.0
Zn63 Zn 0.71752 0.55628 0.14341 0.0
Zn64 Zn 0.80175 0.57108 0.94664 0.0
Zn65 Zn 0.76649 0.5754 0.04315 0.0
C66 C 0.84628 0.63125 0.03219 0.0
C67 C 0.7586 0.58008 0.85057 0.0
O68 O 0.72596 0.51398 0.04405 0.0
O69 O 0.68122 0.50466 0.1315 0.0
C70 C 0.78173 0.59572 0.23989 0.0
O71 O 0.82333 0.61046 0.08952 0.0
O72 O 0.8379 0.6242 0.95302 0.0
O73 O 0.75949 0.55135 0.86439 0.0
O74 O 0.76303 0.60028 0.91696 0.0
O75 O 0.74829 0.57281 0.24786 0.0
O76 O 0.79626 0.60341 0.1643 0.0
O77 O 0.74121 0.60634 0.99196 0.0
O78 O 0.7026 0.59008 0.10009 0.0
C79 C 0.71641 0.60895 0.03312 0.0
O80 O 0.76016 0.51962 0.03095 0.0
O81 O 0.81553 0.53545 0.98807 0.0
C82 C 0.6943 0.49232 0.07734 0.0
C83 C 0.78505 0.51126 0.01629 0.0
Zn84 Zn 0.15297 0.71402 0.05642 0.0
Zn85 Zn 0.23212 0.81804 0.87849 0.0
Zn86 Zn 0.18688 0.77102 0.97444 0.0
C87 C 0.23602 0.85327 0.03273 0.0
C88 C 0.1671 0.79614 0.79386 0.0
O89 O 0.20756 0.73039 0.97058 0.0
O90 O 0.17099 0.6804 0.04298 0.0
C91 C 0.17412 0.77027 0.17811 0.0
O92 O 0.2078 0.82239 0.05107 0.0
O93 O 0.25372 0.85647 0.96498 0.0
O94 O 0.19945 0.82227 0.79509 0.0
O95 O 0.15603 0.77211 0.85493 0.0
O96 O 0.1618 0.73657 0.17013 0.0
O97 O 0.1849 0.79066 0.10996 0.0
O98 O 0.13022 0.74811 0.92318 0.0
O99 O 0.10506 0.69984 0.00759 0.0
C100 C 0.10159 0.71982 0.95221 0.0
O101 O 0.23391 0.76354 0.9353 0.0
O102 O 0.26546 0.80272 0.8321 0.0
C103 C 0.19876 0.69802 0.99699 0.0
C104 C 0.26071 0.77704 0.88124 0.0
Zn105 Zn 0.41489 0.23925 0.94194 0.0
Zn106 Zn 0.41285 0.15649 0.12393 0.0
Zn107 Zn 0.40664 0.1938 0.03659 0.0
C108 C 0.35409 0.11125 0.03314 0.0
C109 C 0.39828 0.19309 0.23623 0.0
O110 O 0.46562 0.237 0.01256 0.0
O111 O 0.46372 0.26219 0.88851 0.0
C112 C 0.36528 0.1796 0.8553 0.0
O113 O 0.37192 0.13803 0.98074 0.0
O114 O 0.36307 0.11518 0.11218 0.0
O115 O 0.42369 0.18607 0.22926 0.0
O116 O 0.38223 0.19464 0.166 0.0
O117 O 0.37239 0.212 0.86378 0.0
O118 O 0.37781 0.16618 0.91229 0.0
O119 O 0.37645 0.21888 0.09284 0.0
O120 O 0.41051 0.27093 0.02832 0.0
C121 C 0.38438 0.25183 0.07801 0.0
O122 O 0.46507 0.20642 0.05455 0.0
O123 O 0.45316 0.15064 0.08081 0.0
C124 C 0.48208 0.2601 0.95076 0.0
C125 C 0.47621 0.18328 0.06408 0.0
H126 H 0.39956 0.32134 0.0891 0.0
H127 H 0.30938 0.21056 0.07564 0.0
H128 H 0.26914 0.23309 0.02068 0.0
H129 H 0.34726 0.36866 0.13485 0.0
H130 H 0.37691 0.40575 0.06525 0.0
H131 H 0.39432 0.3808 0.12363 0.0
H132 H 0.41613 0.36862 0.97764 0.0
H133 H 0.39698 0.39166 0.91817 0.0
H134 H 0.38335 0.34521 0.89174 0.0
H135 H 0.241 0.26918 0.94797 0.0
H136 H 0.22678 0.31493 0.88752 0.0
H137 H 0.33951 0.39892 0.92898 0.0
C138 C 0.37085 0.30192 0.07912 0.0
C139 C 0.35758 0.26423 0.08774 0.0
C140 C 0.32003 0.23962 0.07164 0.0
C141 C 0.29715 0.25219 0.03858 0.0
C142 C 0.31231 0.28937 0.02201 0.0
C143 C 0.34826 0.31384 0.0435 0.0
C144 C 0.35966 0.35169 0.01158 0.0
C145 C 0.37013 0.37829 0.08839 0.0
C146 C 0.39087 0.36504 0.94592 0.0
C147 C 0.32472 0.34491 0.96796 0.0
C148 C 0.29741 0.30903 0.97509 0.0
C149 C 0.26233 0.29731 0.94219 0.0
C150 C 0.25461 0.32339 0.90634 0.0
C151 C 0.28203 0.36063 0.90273 0.0
C152 C 0.31788 0.37073 0.92982 0.0
H153 H 0.07914 0.29854 0.95584 0.0
H154 H 0.10145 0.40972 0.94203 0.0
H155 H 0.03656 0.38766 0.90982 0.0
H156 H 0.01227 0.25962 0.79427 0.0
H157 H 0.98189 0.21824 0.85059 0.0
H158 H 0.03005 0.24173 0.87525 0.0
H159 H 0.01808 0.24666 0.03797 0.0
H160 H 0.96993 0.22118 0.01433 0.0
H161 H 0.98932 0.26486 0.06734 0.0
H162 H 0.97213 0.35418 0.85585 0.0
H163 H 0.90568 0.31237 0.8524 0.0
H164 H 0.92214 0.22295 0.92298 0.0
C165 C 0.0699 0.31807 0.95061 0.0
C166 C 0.09508 0.35582 0.95259 0.0
C167 C 0.08232 0.38069 0.94294 0.0
C168 C 0.04573 0.36844 0.92227 0.0
C169 C 0.02204 0.33115 0.91435 0.0
C170 C 0.03298 0.30624 0.9336 0.0
C171 C 0.00091 0.26766 0.92829 0.0
C172 C 0.00665 0.24552 0.8579 0.0
C173 C -0.00586 0.24899 0.01727 0.0
C174 C 0.97047 0.27496 0.90251 0.0
C175 C 0.98377 0.31172 0.89083 0.0
C176 C 0.96123 0.32535 0.86608 0.0
C177 C 0.92354 0.30124 0.86201 0.0
C178 C 0.90893 0.2645 0.88676 0.0
C179 C 0.93272 0.25072 0.90155 0.0
H180 H 0.71446 0.08932 0.10759 0.0
H181 H 0.80851 0.09684 0.98207 0.0
H182 H 0.77632 0.02992 0.96557 0.0
H183 H 0.67626 -0.00528 0.20694 0.0
H184 H 0.63069 0.985 0.18073 0.0
H185 H 0.66554 0.03076 0.20795 0.0
H186 H 0.65134 0.05246 0.06312 0.0
H187 H 0.61811 0.00673 0.0326 0.0
H188 H 0.65587 0.0338 0.9622 0.0
H189 H 0.72836 0.96235 0.93829 0.0
H190 H 0.67266 0.90136 0.92196 0.0
H191 H 0.60959 0.94339 0.04449 0.0
C192 C 0.72921 0.07655 0.08311 0.0
C193 C 0.7643 0.09795 0.04897 0.0
C194 C 0.78209 0.08065 0.01175 0.0
C195 C 0.76367 0.04267 0.00053 0.0
C196 C 0.72744 0.02257 0.02646 0.0
C197 C 0.71069 0.03899 0.06863 0.0
C198 C 0.67028 0.01312 0.0778 0.0
C199 C 0.6601 0.00543 0.17406 0.0
C200 C 0.64761 0.0274 0.03113 0.0
C201 C 0.66666 0.98003 0.03233 0.0
C202 C 0.69975 0.98538 0.00428 0.0
C203 C 0.70234 0.95786 0.96082 0.0
C204 C 0.67052 0.92349 0.9503 0.0
C205 C 0.63668 0.91747 0.98166 0.0
C206 C 0.63493 0.94681 0.01972 0.0
H207 H 0.64905 0.59912 0.04519 0.0
H208 H 0.76058 0.68135 0.9915 0.0
H209 H 0.745 0.72958 0.01963 0.0
H210 H 0.60366 0.64661 0.95916 0.0
H211 H 0.57036 0.62866 0.0442 0.0
H212 H 0.59098 0.60315 0.00711 0.0
H213 H 0.61027 0.60081 0.1665 0.0
H214 H 0.59177 0.62843 0.20283 0.0
H215 H 0.63898 0.64271 0.22418 0.0
H216 H 0.71582 0.76851 0.06207 0.0
H217 H 0.67408 0.79267 0.08392 0.0
H218 H 0.58505 0.68357 0.1276 0.0
C219 C 0.66992 0.62729 0.03601 0.0
C220 C 0.70585 0.63655 0.01477 0.0
C221 C 0.73263 0.67368 0.00534 0.0
C222 C 0.72416 0.70118 0.02323 0.0
C223 C 0.68897 0.69089 0.05114 0.0
C224 C 0.66221 0.65469 0.05565 0.0
C225 C 0.6268 0.65 0.08932 0.0
C226 C 0.59616 0.63102 0.02088 0.0
C227 C 0.61637 0.62926 0.17583 0.0
C228 C 0.63734 0.6893 0.10234 0.0
C229 C 0.67332 0.71269 0.08057 0.0
C230 C 0.68781 0.75036 0.08022 0.0
C231 C 0.66412 0.76402 0.095 0.0
C232 C 0.62652 0.73999 0.10922 0.0
C233 C 0.61391 0.70259 0.1199 0.0
H234 H 0.03904 0.65621 0.97659 0.0
H235 H 0.07934 0.76881 0.90606 0.0
H236 H 0.01799 0.76053 0.93391 0.0
H237 H 0.94521 0.61755 0.89678 0.0
H238 H 0.92785 0.58681 0.98742 0.0
H239 H 0.97288 0.60142 0.9479 0.0
H240 H -0.00154 0.62353 0.10338 0.0
H241 H 0.95372 0.61068 0.14228 0.0
H242 H 0.99059 0.65682 0.15574 0.0
H243 H 0.95134 0.73899 0.97715 0.0
H244 H 0.88561 0.70478 0.013 0.0
H245 H 0.89409 0.60995 0.07424 0.0
C246 C 0.03483 0.67897 0.96426 0.0
C247 C 0.06402 0.71315 0.9385 0.0
C248 C 0.05729 0.74221 0.92413 0.0
C249 C 0.02268 0.73786 0.94136 0.0
C250 C -0.00459 0.70445 0.97354 0.0
C251 C 0.00116 0.67542 0.98348 0.0
C252 C 0.96862 0.64284 0.02297 0.0
C253 C 0.95269 0.61024 0.96001 0.0
C254 C 0.97846 0.63291 0.11132 0.0
C255 C 0.9432 0.65776 0.03369 0.0
C256 C 0.95891 0.69329 0.00461 0.0
C257 C 0.93916 0.71147 0.00153 0.0
C258 C 0.90203 0.69212 0.0237 0.0
C259 C 0.88532 0.65534 0.05039 0.0
C260 C 0.90668 0.63863 0.05884 0.0
H261 H 0.30314 0.90838 0.07015 0.0
H262 H 0.1892 0.87757 0.07434 0.0
H263 H 0.20669 0.94261 0.06524 0.0
H264 H 0.34224 -0.00058 0.18133 0.0
H265 H 0.38092 0.01803 0.11027 0.0
H266 H 0.35877 0.97075 0.14013 0.0
H267 H 0.35085 0.95415 0.97657 0.0
H268 H 0.37072 0.00115 0.94605 0.0
H269 H 0.32563 0.96836 0.90771 0.0
H270 H 0.23794 0.01192 0.03541 0.0
H271 H 0.28002 0.07809 0.01374 0.0
H272 H 0.37148 0.05976 0.00892 0.0
C273 C 0.28198 0.91549 0.07467 0.0
C274 C 0.24487 0.88801 0.07442 0.0
C275 C 0.21782 0.89821 0.07707 0.0
C276 C 0.22755 0.9351 0.06983 0.0
C277 C 0.26439 0.96122 0.06025 0.0
C278 C 0.29119 0.95178 0.0649 0.0
C279 C 0.32838 0.98375 0.04459 0.0
C280 C 0.35409 0.99358 0.12379 0.0
C281 C 0.34483 0.97637 0.96396 0.0
C282 C 0.31851 0.01271 0.02645 0.0
C283 C 0.28158 -0.00046 0.03633 0.0
C284 C 0.2668 0.02229 0.02681 0.0
C285 C 0.29072 0.0597 0.01237 0.0
C286 C 0.32873 0.07367 0.00563 0.0
C287 C 0.34235 0.0495 0.00944 0.0
H288 H 0.21534 0.65492 0.09419 0.0
H289 H 0.22277 0.69664 0.83436 0.0
H290 H 0.2426 0.65471 0.78074 0.0
H291 H 0.29071 0.62734 0.07086 0.0
H292 H 0.26321 0.58837 0.13745 0.0
H293 H 0.26359 0.63046 0.1561 0.0
H294 H 0.19247 0.59327 0.14114 0.0
H295 H 0.19343 0.55254 0.11682 0.0
H296 H 0.17221 0.56897 0.0414 0.0
H297 H 0.24504 0.59882 0.74933 0.0
H298 H 0.23136 0.53493 0.74397 0.0
H299 H 0.22189 0.5281 0.02327 0.0
C300 C 0.22291 0.65631 0.02683 0.0
C301 C 0.21863 0.67966 0.96873 0.0
C302 C 0.22726 0.67994 0.88039 0.0
C303 C 0.23843 0.65608 0.84943 0.0
C304 C 0.24082 0.63213 0.90772 0.0
C305 C 0.23391 0.6325 0.99516 0.0
C306 C 0.23209 0.60011 0.04156 0.0
C307 C 0.26433 0.61234 0.10528 0.0
C308 C 0.19537 0.5774 0.08783 0.0
C309 C 0.23572 0.57977 0.96552 0.0
C310 C 0.24195 0.59923 0.88926 0.0
C311 C 0.24141 0.5839 0.8089 0.0
C312 C 0.23348 0.54764 0.80626 0.0
C313 C 0.22628 0.5273 0.88338 0.0
C314 C 0.22837 0.54376 0.96395 0.0
H315 H 0.50372 0.13786 0.04388 0.0
H316 H 0.53688 0.25132 0.07525 0.0
H317 H 0.60116 0.26858 0.05082 0.0
H318 H 0.57947 0.14554 0.1702 0.0
H319 H 0.58274 0.11165 0.10716 0.0
H320 H 0.53938 0.10933 0.11813 0.0
H321 H 0.5327 0.10911 0.95065 0.0
H322 H 0.57604 0.11146 0.93918 0.0
H323 H 0.5682 0.14522 0.88833 0.0
H324 H 0.66162 0.27199 0.00963 0.0
H325 H 0.71288 0.26123 0.98099 0.0
H326 H 0.64053 0.14549 0.01148 0.0
C327 C 0.5244 0.16641 0.04503 0.0
C328 C 0.51505 0.19375 0.05509 0.0
C329 C 0.54318 0.2305 0.0597 0.0
C330 C 0.57982 0.24031 0.04806 0.0
C331 C 0.58794 0.21266 0.03576 0.0
C332 C 0.56103 0.17642 0.03686 0.0
C333 C 0.57687 0.15166 0.02932 0.0
C334 C 0.56916 0.12817 0.11108 0.0
C335 C 0.56261 0.12798 0.94697 0.0
C336 C 0.61691 0.17959 0.02248 0.0
C337 C 0.62285 0.21466 0.02474 0.0
C338 C 0.65745 0.2447 0.01163 0.0
C339 C 0.68665 0.23856 0.99744 0.0
C340 C 0.68142 0.20301 0.00013 0.0
C341 C 0.64586 0.17323 0.01192 0.0
H342 H 0.43799 0.67065 0.83661 0.0
H343 H 0.45776 0.71228 0.09978 0.0
H344 H 0.39651 0.66356 0.14116 0.0
H345 H 0.33239 0.63459 0.84214 0.0
H346 H 0.32416 0.59664 0.77444 0.0
H347 H 0.36471 0.64034 0.75979 0.0
H348 H 0.40434 0.61001 0.77914 0.0
H349 H 0.3642 0.56662 0.79476 0.0
H350 H 0.39983 0.58443 0.87641 0.0
H351 H 0.34384 0.60191 0.16337 0.0
H352 H 0.29961 0.53587 0.15979 0.0
H353 H 0.30959 0.53557 0.8806 0.0
C354 C 0.42867 0.67022 0.90193 0.0
C355 C 0.45244 0.69499 0.96508 0.0
C356 C 0.43978 0.69366 0.05028 0.0
C357 C 0.40497 0.66614 0.07431 0.0
C358 C 0.38278 0.64081 0.01173 0.0
C359 C 0.39358 0.64335 0.92635 0.0
C360 C 0.36633 0.6105 0.87414 0.0
C361 C 0.34568 0.62117 0.80876 0.0
C362 C 0.3848 0.5918 0.82857 0.0
C363 C 0.34127 0.58715 0.94563 0.0
C364 C 0.35057 0.60551 0.02416 0.0
C365 C 0.33531 0.58769 0.10186 0.0
C366 C 0.3105 0.55017 0.09942 0.0
C367 C 0.30108 0.531 0.0198 0.0
C368 C 0.31569 0.54997 0.9419 0.0
H369 H 0.81576 0.47958 0.92398 0.0
H370 H 0.73829 0.45805 0.12868 0.0
H371 H 0.72823 0.39552 0.14341 0.0
H372 H 0.76811 0.38846 0.8273 0.0
H373 H 0.8101 0.38958 0.80252 0.0
H374 H 0.8086 0.4312 0.8045 0.0
H375 H 0.86182 0.45861 0.91681 0.0
H376 H 0.86356 0.4172 0.915 0.0
H377 H 0.85764 0.43453 0.01641 0.0
H378 H 0.73206 0.33715 0.14442 0.0
H379 H 0.74811 0.28869 0.1287 0.0
H380 H 0.8214 0.34903 0.92036 0.0
C381 C 0.7965 0.46166 0.97165 0.0
C382 C 0.77765 0.47351 0.02499 0.0
C383 C 0.75258 0.44926 0.0863 0.0
C384 C 0.74682 0.41378 0.09523 0.0
C385 C 0.76614 0.40304 0.04175 0.0
C386 C 0.79026 0.42632 0.98072 0.0
C387 C 0.80873 0.40908 0.93297 0.0
C388 C 0.79825 0.4043 0.83608 0.0
C389 C 0.85039 0.43117 0.94615 0.0
C390 C 0.79224 0.3728 0.97844 0.0
C391 C 0.76749 0.36953 0.04061 0.0
C392 C 0.75075 0.33915 0.0946 0.0
C393 C 0.75985 0.31174 0.08511 0.0
C394 C 0.78492 0.31473 0.02128 0.0
C395 C 0.80123 0.34564 0.96766 0.0
H396 H 0.287 0.75897 0.02183 0.0
H397 H 0.29647 0.77008 0.74272 0.0
H398 H 0.34834 0.75882 0.74786 0.0
H399 H 0.3743 0.81003 0.06745 0.0
H400 H 0.3771 0.78455 0.15803 0.0
H401 H 0.33443 0.78145 0.13071 0.0
H402 H 0.30378 0.71121 0.11641 0.0
H403 H 0.34663 0.71411 0.14446 0.0
H404 H 0.32322 0.69209 0.0451 0.0
H405 H 0.40504 0.75733 0.78524 0.0
H406 H 0.46489 0.77385 0.85149 0.0
H407 H 0.42136 0.76943 0.10665 0.0
C408 C 0.29911 0.75747 0.96163 0.0
C409 C 0.28757 0.76473 0.88181 0.0
C410 C 0.30482 0.76413 0.80438 0.0
C411 C 0.33401 0.7574 0.80671 0.0
C412 C 0.34571 0.75157 0.88704 0.0
C413 C 0.32872 0.75158 0.96323 0.0
C414 C 0.35034 0.75155 0.04199 0.0
C415 C 0.3596 0.78382 0.10299 0.0
C416 C 0.32976 0.71507 0.08992 0.0
C417 C 0.38389 0.75536 0.99855 0.0
C418 C 0.37982 0.75313 0.9092 0.0
C419 C 0.40827 0.75849 0.85509 0.0
C420 C 0.44214 0.7679 0.89308 0.0
C421 C 0.44738 0.77298 0.98375 0.0
C422 C 0.41768 0.76547 0.0371 0.0
H423 H 0.63929 0.43758 0.16728 0.0
H424 H 0.69925 0.46002 0.92755 0.0
H425 H 0.65511 0.39795 0.87477 0.0
H426 H 0.60959 0.33769 0.17806 0.0
H427 H 0.56621 0.32711 0.22236 0.0
H428 H 0.60633 0.37024 0.24658 0.0
H429 H 0.57324 0.40364 0.18898 0.0
H430 H 0.53334 0.36081 0.16381 0.0
H431 H 0.55468 0.39449 0.0801 0.0
H432 H 0.59773 0.33775 0.83871 0.0
H433 H 0.53527 0.28411 0.82728 0.0
H434 H 0.51446 0.30184 0.09175 0.0
C435 C 0.64375 0.42912 0.10459 0.0
C436 C 0.67258 0.45359 0.05134 0.0
C437 C 0.67743 0.44159 0.9696 0.0
C438 C 0.65248 0.40639 0.93917 0.0
C439 C 0.62332 0.38343 0.99201 0.0
C440 C 0.61937 0.3942 0.07382 0.0
C441 C 0.58424 0.36607 0.11531 0.0
C442 C 0.59207 0.34929 0.19532 0.0
C443 C 0.55997 0.38223 0.13831 0.0
C444 C 0.56785 0.33872 0.04226 0.0
C445 C 0.59094 0.34871 0.97206 0.0
C446 C 0.57995 0.32915 0.89422 0.0
C447 C 0.54449 0.29886 0.8881 0.0
C448 C 0.52073 0.2884 0.95959 0.0
C449 C 0.53268 0.3086 0.03733 0.0
H450 H 0.23671 0.44406 0.58247 0.0
H451 H 0.19935 0.33435 0.67295 0.0
H452 H 0.18473 0.31217 0.51998 0.0
H453 H 0.16376 0.41943 0.43933 0.0
H454 H 0.19007 0.45378 0.36025 0.0
H455 H 0.20335 0.46143 0.47301 0.0
H456 H 0.26787 0.47285 0.43664 0.0
H457 H 0.25529 0.46689 0.32349 0.0
H458 H 0.27223 0.4397 0.37309 0.0
H459 H 0.17413 0.30375 0.35027 0.0
H460 H 0.17174 0.31058 0.19052 0.0
H461 H 0.20474 0.42392 0.22467 0.0
C462 C 0.22629 0.41536 0.57057 0.0
C463 C 0.21955 0.391 0.64012 0.0
C464 C 0.20554 0.3537 0.62092 0.0
C465 C 0.19659 0.34086 0.53423 0.0
C466 C 0.20118 0.36559 0.46822 0.0
C467 C 0.21589 0.40214 0.48628 0.0
C468 C 0.21593 0.42336 0.40733 0.0
C469 C 0.19184 0.4405 0.42085 0.0
C470 C 0.25515 0.45239 0.38373 0.0
C471 C 0.19929 0.39331 0.34047 0.0
C472 C 0.19131 0.36013 0.37578 0.0
C473 C 0.17939 0.32941 0.32302 0.0
C474 C 0.1774 0.3333 0.23238 0.0
C475 C 0.18607 0.36729 0.19564 0.0
C476 C 0.19576 0.39712 0.25122 0.0
H477 H 0.84755 0.2434 0.68111 0.0
H478 H 0.7593 0.13265 0.7118 0.0
H479 H 0.76552 0.11898 0.56014 0.0
H480 H 0.8216 0.25876 0.49324 0.0
H481 H 0.86544 0.28517 0.4429 0.0
H482 H 0.86238 0.28341 0.5588 0.0
H483 H 0.90838 0.26025 0.56809 0.0
H484 H 0.91189 0.26225 0.45144 0.0
H485 H 0.89973 0.22044 0.50738 0.0
H486 H 0.76926 0.12173 0.40002 0.0
H487 H 0.77301 0.14095 0.2466 0.0
H488 H 0.86028 0.24873 0.31842 0.0
C489 C 0.83105 0.21591 0.65661 0.0
C490 C 0.80319 0.18903 0.70728 0.0
C491 C 0.78097 0.15352 0.67327 0.0
C492 C 0.78441 0.14541 0.58739 0.0
C493 C 0.81058 0.17301 0.53654 0.0
C494 C 0.83416 0.2074 0.5703 0.0
C495 C 0.8559 0.23357 0.49897 0.0
C496 C 0.85098 0.26715 0.49847 0.0
C497 C 0.89638 0.24478 0.50695 0.0
C498 C 0.83829 0.20955 0.42015 0.0
C499 C 0.81301 0.17439 0.44282 0.0
C500 C 0.78985 0.14886 0.38103 0.0
C501 C 0.792 0.15993 0.29414 0.0
C502 C 0.81672 0.19627 0.27098 0.0
C503 C 0.84105 0.22068 0.33431 0.0
H504 H 0.58205 0.8454 0.72098 0.0
H505 H 0.66272 0.81246 0.75201 0.0
H506 H 0.67094 0.81481 0.59331 0.0
H507 H 0.53737 0.7896 0.56226 0.0
H508 H 0.52546 0.81806 0.4995 0.0
H509 H 0.53431 0.82603 0.61374 0.0
H510 H 0.58479 0.89271 0.58709 0.0
H511 H 0.57509 0.88562 0.47235 0.0
H512 H 0.62089 0.90221 0.5124 0.0
H513 H 0.65892 0.80631 0.42821 0.0
H514 H 0.63344 0.79627 0.27759 0.0
H515 H 0.55874 0.83168 0.36166 0.0
C516 C 0.60348 0.84157 0.69467 0.0
C517 C 0.62256 0.82992 0.74872 0.0
C518 C 0.64877 0.82272 0.71169 0.0
C519 C 0.65319 0.82343 0.62131 0.0
C520 C 0.63135 0.83166 0.56875 0.0
C521 C 0.60772 0.84164 0.60452 0.0
C522 C 0.58347 0.84411 0.53551 0.0
C523 C 0.54279 0.81788 0.55391 0.0
C524 C 0.59156 0.88351 0.52627 0.0
C525 C 0.59576 0.83224 0.45662 0.0
C526 C 0.62374 0.82565 0.47571 0.0
C527 C 0.63747 0.81217 0.41236 0.0
C528 C 0.62264 0.80614 0.32718 0.0
C529 C 0.594 0.81303 0.30699 0.0
C530 C 0.58068 0.8261 0.37355 0.0
H531 H 0.76653 0.54562 0.71301 0.0
H532 H 0.76675 0.64485 0.78048 0.0
H533 H 0.78508 0.66685 0.62887 0.0
H534 H 0.84729 0.58892 0.58286 0.0
H535 H 0.83024 0.55073 0.50949 0.0
H536 H 0.81671 0.54361 0.62148 0.0
H537 H 0.7483 0.5111 0.57567 0.0
H538 H 0.76173 0.51684 0.46418 0.0
H539 H 0.73278 0.53363 0.50191 0.0
H540 H 0.79836 0.67369 0.46143 0.0
H541 H 0.79989 0.66252 0.30417 0.0
H542 H 0.79989 0.56305 0.36166 0.0
C543 C 0.77014 0.57206 0.69706 0.0
C544 C 0.76469 0.59331 0.75921 0.0
C545 C 0.77023 0.6278 0.73401 0.0
C546 C 0.78112 0.64063 0.64836 0.0
C547 C 0.78745 0.61912 0.59006 0.0
C548 C 0.78219 0.5856 0.61449 0.0
C549 C 0.79022 0.56686 0.54223 0.0
C550 C 0.82307 0.56228 0.56545 0.0
C551 C 0.75625 0.52997 0.51965 0.0
C552 C 0.79945 0.59423 0.4706 0.0
C553 C 0.79799 0.62444 0.49872 0.0
C554 C 0.80065 0.65071 0.43984 0.0
C555 C 0.80229 0.64458 0.35046 0.0
C556 C 0.80143 0.61258 0.32115 0.0
C557 C 0.80244 0.58857 0.38258 0.0
H558 H 0.17003 0.73493 0.32708 0.0
H559 H 0.1742 0.83322 0.23264 0.0
H560 H 0.16194 0.84597 0.38268 0.0
H561 H 0.09584 0.70801 0.47225 0.0
H562 H 0.11434 0.69028 0.55176 0.0
H563 H 0.12425 0.68999 0.43852 0.0
H564 H 0.19381 0.72645 0.47153 0.0
H565 H 0.18399 0.72551 0.5849 0.0
H566 H 0.21247 0.7684 0.53206 0.0
H567 H 0.15088 0.8475 0.54817 0.0
H568 H 0.15089 0.84244 0.70814 0.0
H569 H 0.14825 0.7398 0.68544 0.0
C570 C 0.16851 0.75935 0.33714 0.0
C571 C 0.17301 0.78306 0.26746 0.0
C572 C 0.17117 0.8148 0.28478 0.0
C573 C 0.1637 0.82189 0.36961 0.0
C574 C 0.15778 0.79677 0.43573 0.0
C575 C 0.16053 0.76633 0.41983 0.0
C576 C 0.15413 0.74364 0.50059 0.0
C577 C 0.12011 0.70574 0.49009 0.0
C578 C 0.18811 0.74087 0.52364 0.0
C579 C 0.14788 0.76622 0.56624 0.0
C580 C 0.14982 0.79671 0.52791 0.0
C581 C 0.14858 0.82335 0.57798 0.0
C582 C 0.14786 0.81993 0.66898 0.0
C583 C 0.14818 0.79002 0.70927 0.0
C584 C 0.14607 0.76194 0.65667 0.0
H585 H 0.40323 0.16365 0.74297 0.0
H586 H 0.30403 0.16793 0.76761 0.0
H587 H 0.299 0.16971 0.60759 0.0
H588 H 0.43973 0.22962 0.59294 0.0
H589 H 0.46283 0.21137 0.53135 0.0
H590 H 0.4536 0.20022 0.6442 0.0
H591 H 0.41844 0.13127 0.60855 0.0
H592 H 0.42888 0.14207 0.49563 0.0
H593 H 0.3822 0.11387 0.52848 0.0
H594 H 0.31049 0.17983 0.4412 0.0
H595 H 0.33506 0.19222 0.291 0.0
H596 H 0.43031 0.18915 0.38573 0.0
C597 C 0.37915 0.16239 0.71443 0.0
C598 C 0.35318 0.16402 0.76753 0.0
C599 C 0.32338 0.1651 0.72787 0.0
C600 C 0.32066 0.16673 0.63694 0.0
C601 C 0.3483 0.16782 0.58642 0.0
C602 C 0.37675 0.16521 0.6242 0.0
C603 C 0.4056 0.17189 0.55844 0.0
C604 C 0.4426 0.20525 0.58326 0.0
C605 C 0.40896 0.13774 0.54708 0.0
C606 C 0.38941 0.17922 0.47828 0.0
C607 C 0.35613 0.1763 0.49435 0.0
C608 C 0.33652 0.18196 0.42816 0.0
C609 C 0.35082 0.18946 0.34318 0.0
C610 C 0.38471 0.19189 0.32583 0.0
C611 C 0.40431 0.18758 0.39563 0.0
loop_
_geom_bond_atom_site_label_1
_geom_bond_atom_site_label_2
_geom_bond_distance
_geom_bond_site_symmetry_2
_ccdc_geom_bond_type
Zn0 O6 1.920 . S
Zn0 O12 1.898 . S
Zn0 O15 1.905 . S
Zn1 O9 1.905 . S
Zn1 O10 1.898 . S
Zn1 O18 1.920 . S
Zn2 O5 2.080 . S
Zn2 O8 2.114 . S
Zn2 O11 2.120 . S
Zn2 O13 2.120 1_554 S
Zn2 O14 2.114 1_554 S
Zn2 O17 2.080 1_554 S
C3 O8 1.166 . S
C3 O9 1.182 . S
C4 O10 1.167 . S
C4 O11 1.299 . S
O5 Zn2 2.080 . S
O5 C19 1.305 1_554 S
O6 Zn0 1.920 . S
O6 C19 1.234 . S
C7 O12 1.167 . S
C7 O13 1.299 . S
O8 Zn2 2.114 . S
O8 C3 1.166 . S
O9 Zn1 1.905 . S
O9 C3 1.182 . S
O10 Zn1 1.898 . S
O10 C4 1.167 . S
O11 Zn2 2.120 . S
O11 C4 1.299 . S
O12 Zn0 1.898 . S
O12 C7 1.167 . S
O13 Zn2 2.120 1_556 S
O13 C7 1.299 . S
O14 Zn2 2.114 1_556 S
O14 C16 1.166 . S
O15 Zn0 1.905 . S
O15 C16 1.182 . S
C16 O14 1.166 . S
C16 O15 1.182 . S
O17 Zn2 2.080 1_556 S
O17 C20 1.305 1_556 S
O18 Zn1 1.920 . S
O18 C20 1.234 . S
C19 O5 1.305 1_556 S
C19 O6 1.234 . S
C20 O17 1.305 1_554 S
C20 O18 1.234 . S
Zn21 O27 1.920 . S
Zn21 O33 1.898 . S
Zn21 O36 1.905 . S
Zn22 O30 1.905 . S
Zn22 O31 1.898 . S
Zn22 O39 1.920 . S
Zn23 O26 2.080 . S
Zn23 O29 2.114 . S
Zn23 O32 2.120 . S
Zn23 O34 2.120 1_554 S
Zn23 O35 2.114 1_554 S
Zn23 O38 2.080 1_554 S
C24 O29 1.166 . S
C24 O30 1.182 . S
C25 O31 1.167 . S
C25 O32 1.299 . S
O26 Zn23 2.080 . S
O26 C40 1.305 1_554 S
O27 Zn21 1.920 . S
O27 C40 1.234 . S
C28 O33 1.167 . S
C28 O34 1.299 . S
O29 Zn23 2.114 . S
O29 C24 1.166 . S
O30 Zn22 1.905 . S
O30 C24 1.182 . S
O31 Zn22 1.898 . S
O31 C25 1.167 . S
O32 Zn23 2.120 . S
O32 C25 1.299 . S
O33 Zn21 1.898 . S
O33 C28 1.167 . S
O34 Zn23 2.120 1_556 S
O34 C28 1.299 . S
O35 Zn23 2.114 1_556 S
O35 C37 1.166 . S
O36 Zn21 1.905 . S
O36 C37 1.182 . S
C37 O35 1.166 . S
C37 O36 1.182 . S
O38 Zn23 2.080 1_556 S
O38 C41 1.305 1_556 S
O39 Zn22 1.920 . S
O39 C41 1.234 . S
C40 O26 1.305 1_556 S
C40 O27 1.234 . S
C41 O38 1.305 1_554 S
C41 O39 1.234 . S
Zn42 O48 1.920 . S
Zn42 O54 1.898 . S
Zn42 O57 1.905 . S
Zn43 O51 1.905 . S
Zn43 O52 1.898 . S
Zn43 O60 1.920 . S
Zn44 O47 2.080 1_554 S
Zn44 O50 2.114 1_554 S
Zn44 O53 2.120 1_554 S
Zn44 O55 2.120 . S
Zn44 O56 2.114 . S
Zn44 O59 2.080 . S
C45 O50 1.166 . S
C45 O51 1.182 . S
C46 O52 1.167 . S
C46 O53 1.299 . S
O47 Zn44 2.080 1_556 S
O47 C61 1.305 1_556 S
O48 Zn42 1.920 . S
O48 C61 1.234 . S
C49 O54 1.167 . S
C49 O55 1.299 . S
O50 Zn44 2.114 1_556 S
O50 C45 1.166 . S
O51 Zn43 1.905 . S
O51 C45 1.182 . S
O52 Zn43 1.898 . S
O52 C46 1.167 . S
O53 Zn44 2.120 1_556 S
O53 C46 1.299 . S
O54 Zn42 1.898 . S
O54 C49 1.167 . S
O55 Zn44 2.120 . S
O55 C49 1.299 . S
O56 Zn44 2.114 . S
O56 C58 1.166 . S
O57 Zn42 1.905 . S
O57 C58 1.182 . S
C58 O56 1.166 . S
C58 O57 1.182 . S
O59 Zn44 2.080 . S
O59 C62 1.305 1_554 S
O60 Zn43 1.920 . S
O60 C62 1.234 . S
C61 O47 1.305 1_554 S
C61 O48 1.234 . S
C62 O59 1.305 1_556 S
C62 O60 1.234 . S
Zn63 O69 1.920 . S
Zn63 O75 1.898 . S
Zn63 O78 1.905 . S
Zn64 O72 1.905 . S
Zn64 O73 1.898 . S
Zn64 O81 1.920 . S
Zn65 O68 2.080 1_554 S
Zn65 O71 2.114 1_554 S
Zn65 O74 2.120 1_554 S
Zn65 O76 2.120 . S
Zn65 O77 2.114 . S
Zn65 O80 2.080 . S
C66 O71 1.166 . S
C66 O72 1.182 . S
C67 O73 1.167 . S
C67 O74 1.299 . S
O68 Zn65 2.080 1_556 S
O68 C82 1.305 1_556 S
O69 Zn63 1.920 . S
O69 C82 1.234 . S
C70 O75 1.167 . S
C70 O76 1.299 . S
O71 Zn65 2.114 1_556 S
O71 C66 1.166 . S
O72 Zn64 1.905 . S
O72 C66 1.182 . S
O73 Zn64 1.898 . S
O73 C67 1.167 . S
O74 Zn65 2.120 1_556 S
O74 C67 1.299 . S
O75 Zn63 1.898 . S
O75 C70 1.167 . S
O76 Zn65 2.120 . S
O76 C70 1.299 . S
O77 Zn65 2.114 . S
O77 C79 1.166 . S
O78 Zn63 1.905 . S
O78 C79 1.182 . S
C79 O77 1.166 . S
C79 O78 1.182 . S
O80 Zn65 2.080 . S
O80 C83 1.305 1_554 S
O81 Zn64 1.920 . S
O81 C83 1.234 . S
C82 O68 1.305 1_554 S
C82 O69 1.234 . S
C83 O80 1.305 1_556 S
C83 O81 1.234 . S
Zn84 O90 1.920 . S
Zn84 O96 1.898 . S
Zn84 O99 1.905 . S
Zn85 O93 1.905 . S
Zn85 O94 1.898 . S
Zn85 O102 1.920 . S
Zn86 O89 2.080 1_554 S
Zn86 O92 2.114 1_554 S
Zn86 O95 2.120 1_554 S
Zn86 O97 2.120 . S
Zn86 O98 2.114 . S
Zn86 O101 2.080 . S
C87 O92 1.166 . S
C87 O93 1.182 . S
C88 O94 1.167 . S
C88 O95 1.299 . S
O89 Zn86 2.080 1_556 S
O89 C103 1.305 1_556 S
O90 Zn84 1.920 . S
O90 C103 1.234 . S
C91 O96 1.167 . S
C91 O97 1.299 . S
O92 Zn86 2.114 1_556 S
O92 C87 1.166 . S
O93 Zn85 1.905 . S
O93 C87 1.182 . S
O94 Zn85 1.898 . S
O94 C88 1.167 . S
O95 Zn86 2.120 1_556 S
O95 C88 1.299 . S
O96 Zn84 1.898 . S
O96 C91 1.167 . S
O97 Zn86 2.120 . S
O97 C91 1.299 . S
O98 Zn86 2.114 . S
O98 C100 1.166 . S
O99 Zn84 1.905 . S
O99 C100 1.182 . S
C100 O98 1.166 . S
C100 O99 1.182 . S
O101 Zn86 2.080 . S
O101 C104 1.305 1_554 S
O102 Zn85 1.920 . S
O102 C104 1.234 . S
C103 O89 1.305 1_554 S
C103 O90 1.234 . S
C104 O101 1.305 1_556 S
C104 O102 1.234 . S
Zn105 O111 1.920 . S
Zn105 O117 1.898 . S
Zn105 O120 1.905 . S
Zn106 O114 1.905 . S
Zn106 O115 1.898 . S
Zn106 O123 1.920 . S
Zn107 O110 2.080 . S
Zn107 O113 2.114 . S
Zn107 O116 2.120 . S
Zn107 O118 2.120 1_554 S
Zn107 O119 2.114 1_554 S
Zn107 O122 2.080 1_554 S
C108 O113 1.166 . S
C108 O114 1.182 . S
C109 O115 1.167 . S
C109 O116 1.299 . S
O110 Zn107 2.080 . S
O110 C124 1.305 1_554 S
O111 Zn105 1.920 . S
O111 C124 1.234 . S
C112 O117 1.167 . S
C112 O118 1.299 . S
O113 Zn107 2.114 . S
O113 C108 1.166 . S
O114 Zn106 1.905 . S
O114 C108 1.182 . S
O115 Zn106 1.898 . S
O115 C109 1.167 . S
O116 Zn107 2.120 . S
O116 C109 1.299 . S
O117 Zn105 1.898 . S
O117 C112 1.167 . S
O118 Zn107 2.120 1_556 S
O118 C112 1.299 . S
O119 Zn107 2.114 1_556 S
O119 C121 1.166 . S
O120 Zn105 1.905 . S
O120 C121 1.182 . S
C121 O119 1.166 . S
C121 O120 1.182 . S
O122 Zn107 2.080 1_556 S
O122 C125 1.305 1_556 S
O123 Zn106 1.920 . S
O123 C125 1.234 . S
C124 O110 1.305 1_556 S
C124 O111 1.234 . S
C125 O122 1.305 1_554 S
C125 O123 1.234 . S
H126 C138 0.930 . S
H127 C140 0.930 . S
H128 C141 0.930 . S
H129 C145 0.959 . S
H130 C145 0.959 . S
H131 C145 0.961 . S
H132 C146 0.960 . S
H133 C146 0.961 . S
H134 C146 0.959 . S
H135 C149 0.929 . S
H136 C150 0.931 . S
H137 C152 0.930 . S
C138 H126 0.930 . S
C138 C139 1.399 1_556 S
C138 C143 1.399 . S
C139 C138 1.399 1_554 S
C139 C140 1.376 . S
C140 H127 0.930 . S
C140 C139 1.376 . S
C140 C141 1.388 . S
C141 H128 0.930 . S
C141 C140 1.388 . S
C141 C142 1.390 . S
C142 C141 1.390 . S
C142 C143 1.394 1_554 S
C142 C148 1.465 . S
C143 C138 1.399 . S
C143 C142 1.394 1_556 S
C143 C144 1.516 . S
C144 C143 1.516 . S
C144 C145 1.502 . S
C144 C146 1.561 . S
C144 C147 1.526 . S
C145 H129 0.959 . S
C145 H130 0.959 . S
C145 H131 0.961 . S
C145 C144 1.502 . S
C146 H132 0.960 . S
C146 H133 0.961 . S
C146 H134 0.959 . S
C146 C144 1.561 . S
C147 C144 1.526 . S
C147 C148 1.396 1_556 S
C147 C152 1.390 . S
C148 C142 1.465 . S
C148 C147 1.396 1_554 S
C148 C149 1.399 . S
C149 H135 0.929 . S
C149 C148 1.399 . S
C149 C150 1.385 . S
C150 H136 0.931 . S
C150 C149 1.385 . S
C150 C151 1.389 1_554 S
C151 C150 1.389 1_556 S
C151 C152 1.387 . S
C152 H137 0.930 . S
C152 C147 1.390 . S
C152 C151 1.387 . S
H153 C165 0.930 . S
H154 C167 0.930 . S
H155 C168 0.930 . S
H156 C172 0.959 1_556 S
H157 C172 0.959 . S
H158 C172 0.961 1_455 S
H159 C173 0.960 1_455 S
H160 C173 0.961 . S
H161 C173 0.959 . S
H162 C176 0.929 . S
H163 C177 0.931 . S
H164 C179 0.930 . S
C165 H153 0.930 . S
C165 C166 1.399 . S
C165 C170 1.399 . S
C166 C165 1.399 . S
C166 C167 1.376 1_554 S
C167 H154 0.930 . S
C167 C166 1.376 1_556 S
C167 C168 1.388 . S
C168 H155 0.930 . S
C168 C167 1.388 . S
C168 C169 1.390 . S
C169 C168 1.390 . S
C169 C170 1.394 1_556 S
C169 C175 1.465 1_455 S
C170 C165 1.399 . S
C170 C169 1.394 1_554 S
C170 C171 1.516 1_455 S
C171 C170 1.516 1_655 S
C171 C172 1.502 . S
C171 C173 1.561 . S
C171 C174 1.526 . S
C172 H156 0.959 1_554 S
C172 H157 0.959 . S
C172 H158 0.961 1_655 S
C172 C171 1.502 . S
C173 H159 0.960 1_655 S
C173 H160 0.961 . S
C173 H161 0.959 . S
C173 C171 1.561 . S
C174 C171 1.526 . S
C174 C175 1.396 1_554 S
C174 C179 1.390 . S
C175 C169 1.465 1_655 S
C175 C174 1.396 1_556 S
C175 C176 1.399 . S
C176 H162 0.929 . S
C176 C175 1.399 . S
C176 C177 1.385 . S
C177 H163 0.931 . S
C177 C176 1.385 . S
C177 C178 1.389 . S
C178 C177 1.389 . S
C178 C179 1.387 1_556 S
C179 H164 0.930 . S
C179 C174 1.390 . S
C179 C178 1.387 1_554 S
H180 C192 0.930 . S
H181 C194 0.930 . S
H182 C195 0.930 . S
H183 C199 0.959 . S
H184 C199 0.959 . S
H185 C199 0.961 1_545 S
H186 C200 0.960 1_545 S
H187 C200 0.961 . S
H188 C200 0.959 . S
H189 C203 0.929 . S
H190 C204 0.931 . S
H191 C206 0.930 . S
C192 H180 0.930 . S
C192 C193 1.399 . S
C192 C197 1.399 . S
C193 C192 1.399 . S
C193 C194 1.376 1_554 S
C194 H181 0.930 . S
C194 C193 1.376 1_556 S
C194 C195 1.388 . S
C195 H182 0.930 . S
C195 C194 1.388 . S
C195 C196 1.390 . S
C196 C195 1.390 . S
C196 C197 1.394 1_556 S
C196 C202 1.465 1_545 S
C197 C192 1.399 . S
C197 C196 1.394 1_554 S
C197 C198 1.516 1_545 S
C198 C197 1.516 1_565 S
C198 C199 1.502 . S
C198 C200 1.561 . S
C198 C201 1.526 . S
C199 H183 0.959 . S
C199 H184 0.959 . S
C199 H185 0.961 1_565 S
C199 C198 1.502 . S
C200 H186 0.960 1_565 S
C200 H187 0.961 . S
C200 H188 0.959 . S
C200 C198 1.561 . S
C201 C198 1.526 . S
C201 C202 1.396 1_554 S
C201 C206 1.390 . S
C202 C196 1.465 1_565 S
C202 C201 1.396 1_556 S
C202 C203 1.399 . S
C203 H189 0.929 . S
C203 C202 1.399 . S
C203 C204 1.385 . S
C204 H190 0.931 . S
C204 C203 1.385 . S
C204 C205 1.389 . S
C205 C204 1.389 . S
C205 C206 1.387 1_556 S
C206 H191 0.930 . S
C206 C201 1.390 . S
C206 C205 1.387 1_554 S
H207 C219 0.930 . S
H208 C221 0.930 . S
H209 C222 0.930 . S
H210 C226 0.959 . S
H211 C226 0.959 . S
H212 C226 0.961 . S
H213 C227 0.960 . S
H214 C227 0.961 . S
H215 C227 0.959 . S
H216 C230 0.929 . S
H217 C231 0.931 . S
H218 C233 0.930 . S
C219 H207 0.930 . S
C219 C220 1.399 1_554 S
C219 C224 1.399 . S
C220 C219 1.399 1_556 S
C220 C221 1.376 . S
C221 H208 0.930 . S
C221 C220 1.376 . S
C221 C222 1.388 . S
C222 H209 0.930 . S
C222 C221 1.388 . S
C222 C223 1.390 . S
C223 C222 1.390 . S
C223 C224 1.394 1_556 S
C223 C229 1.465 . S
C224 C219 1.399 . S
C224 C223 1.394 1_554 S
C224 C225 1.516 . S
C225 C224 1.516 . S
C225 C226 1.502 . S
C225 C227 1.561 . S
C225 C228 1.526 . S
C226 H210 0.959 . S
C226 H211 0.959 . S
C226 H212 0.961 . S
C226 C225 1.502 . S
C227 H213 0.960 . S
C227 H214 0.961 . S
C227 H215 0.959 . S
C227 C225 1.561 . S
C228 C225 1.526 . S
C228 C229 1.396 1_554 S
C228 C233 1.390 . S
C229 C223 1.465 . S
C229 C228 1.396 1_556 S
C229 C230 1.399 . S
C230 H216 0.929 . S
C230 C229 1.399 . S
C230 C231 1.385 . S
C231 H217 0.931 . S
C231 C230 1.385 . S
C231 C232 1.389 1_556 S
C232 C231 1.389 1_554 S
C232 C233 1.387 . S
C233 H218 0.930 . S
C233 C228 1.390 . S
C233 C232 1.387 . S
H234 C246 0.930 . S
H235 C248 0.930 . S
H236 C249 0.930 . S
H237 C253 0.959 . S
H238 C253 0.959 1_655 S
H239 C253 0.961 . S
H240 C254 0.960 . S
H241 C254 0.961 1_655 S
H242 C254 0.959 . S
H243 C257 0.929 . S
H244 C258 0.931 . S
H245 C260 0.930 . S
C246 H234 0.930 . S
C246 C247 1.399 1_554 S
C246 C251 1.399 . S
C247 C246 1.399 1_556 S
C247 C248 1.376 . S
C248 H235 0.930 . S
C248 C247 1.376 . S
C248 C249 1.388 . S
C249 H236 0.930 . S
C249 C248 1.388 . S
C249 C250 1.390 . S
C250 C249 1.390 . S
C250 C251 1.394 1_556 S
C250 C256 1.465 1_455 S
C251 C246 1.399 . S
C251 C250 1.394 1_554 S
C251 C252 1.516 . S
C252 C251 1.516 . S
C252 C253 1.502 . S
C252 C254 1.561 . S
C252 C255 1.526 1_455 S
C253 H237 0.959 . S
C253 H238 0.959 1_455 S
C253 H239 0.961 . S
C253 C252 1.502 . S
C254 H240 0.960 . S
C254 H241 0.961 1_455 S
C254 H242 0.959 . S
C254 C252 1.561 . S
C255 C252 1.526 1_655 S
C255 C256 1.396 1_554 S
C255 C260 1.390 . S
C256 C250 1.465 1_655 S
C256 C255 1.396 1_556 S
C256 C257 1.399 . S
C257 H243 0.929 . S
C257 C256 1.399 . S
C257 C258 1.385 . S
C258 H244 0.931 . S
C258 C257 1.385 . S
C258 C259 1.389 1_556 S
C259 C258 1.389 1_554 S
C259 C260 1.387 . S
C260 H245 0.930 . S
C260 C255 1.390 . S
C260 C259 1.387 . S
H261 C273 0.930 . S
H262 C275 0.930 . S
H263 C276 0.930 . S
H264 C280 0.956 . S
H265 C280 0.959 1_545 S
H266 C280 0.961 . S
H267 C281 0.960 . S
H268 C281 0.961 1_545 S
H269 C281 0.959 . S
H270 C284 0.929 . S
H271 C285 0.931 . S
H272 C287 0.930 . S
C273 H261 0.930 . S
C273 C274 1.399 1_556 S
C273 C278 1.399 . S
C274 C273 1.399 1_554 S
C274 C275 1.376 . S
C275 H262 0.930 . S
C275 C274 1.376 . S
C275 C276 1.388 . S
C276 H263 0.930 . S
C276 C275 1.388 . S
C276 C277 1.390 . S
C277 C276 1.390 . S
C277 C278 1.394 1_554 S
C277 C283 1.465 1_565 S
C278 C273 1.399 . S
C278 C277 1.394 1_556 S
C278 C279 1.516 . S
C279 C278 1.516 . S
C279 C280 1.502 . S
C279 C281 1.561 . S
C279 C282 1.526 1_565 S
C280 H264 0.956 . S
C280 H265 0.959 1_565 S
C280 H266 0.961 . S
C280 C279 1.502 . S
C281 H267 0.960 . S
C281 H268 0.961 1_565 S
C281 H269 0.959 . S
C281 C279 1.561 . S
C282 C279 1.526 1_545 S
C282 C283 1.396 1_556 S
C282 C287 1.390 . S
C283 C277 1.465 1_545 S
C283 C282 1.396 1_554 S
C283 C284 1.399 . S
C284 H270 0.929 . S
C284 C283 1.399 . S
C284 C285 1.385 . S
C285 H271 0.931 . S
C285 C284 1.385 . S
C285 C286 1.389 1_554 S
C286 C285 1.389 1_556 S
C286 C287 1.387 . S
C287 H272 0.930 . S
C287 C282 1.390 . S
C287 C286 1.387 . S
H288 C300 0.930 . S
H289 C302 0.930 . S
H290 C303 0.930 . S
H291 C307 0.959 . S
H292 C307 0.959 . S
H293 C307 0.961 . S
H294 C308 0.960 . S
H295 C308 0.961 . S
H296 C308 0.959 . S
H297 C311 0.929 . S
H298 C312 0.931 . S
H299 C314 0.930 . S
C300 H288 0.930 . S
C300 C301 1.399 . S
C300 C305 1.399 . S
C301 C300 1.399 . S
C301 C302 1.376 1_554 S
C302 H289 0.930 . S
C302 C301 1.376 1_556 S
C302 C303 1.388 . S
C303 H290 0.930 . S
C303 C302 1.388 . S
C303 C304 1.390 . S
C304 C303 1.390 . S
C304 C305 1.394 1_556 S
C304 C310 1.465 . S
C305 C300 1.399 . S
C305 C304 1.394 1_554 S
C305 C306 1.516 . S
C306 C305 1.516 . S
C306 C307 1.502 . S
C306 C308 1.561 . S
C306 C309 1.526 . S
C307 H291 0.959 . S
C307 H292 0.959 . S
C307 H293 0.961 . S
C307 C306 1.502 . S
C308 H294 0.960 . S
C308 H295 0.961 . S
C308 H296 0.959 . S
C308 C306 1.561 . S
C309 C306 1.526 . S
C309 C310 1.396 1_554 S
C309 C314 1.390 . S
C310 C304 1.465 . S
C310 C309 1.396 1_556 S
C310 C311 1.399 . S
C311 H297 0.929 . S
C311 C310 1.399 . S
C311 C312 1.385 . S
C312 H298 0.931 . S
C312 C311 1.385 . S
C312 C313 1.389 . S
C313 C312 1.389 . S
C313 C314 1.387 1_556 S
C314 H299 0.930 . S
C314 C309 1.390 . S
C314 C313 1.387 1_554 S
H315 C327 0.930 . S
H316 C329 0.930 . S
H317 C330 0.930 . S
H318 C334 0.959 . S
H319 C334 0.959 . S
H320 C334 0.961 . S
H321 C335 0.960 . S
H322 C335 0.961 . S
H323 C335 0.959 . S
H324 C338 0.929 . S
H325 C339 0.931 . S
H326 C341 0.930 1_554 S
C327 H315 0.930 . S
C327 C328 1.399 . S
C327 C332 1.399 . S
C328 C327 1.399 . S
C328 C329 1.376 1_554 S
C329 H316 0.930 . S
C329 C328 1.376 1_556 S
C329 C330 1.388 . S
C330 H317 0.930 . S
C330 C329 1.388 . S
C330 C331 1.390 . S
C331 C330 1.390 . S
C331 C332 1.394 1_556 S
C331 C337 1.465 . S
C332 C327 1.399 . S
C332 C331 1.394 1_554 S
C332 C333 1.516 . S
C333 C332 1.516 . S
C333 C334 1.502 . S
C333 C335 1.561 1_554 S
C333 C336 1.526 1_554 S
C334 H318 0.959 . S
C334 H319 0.959 . S
C334 H320 0.961 . S
C334 C333 1.502 . S
C335 H321 0.960 . S
C335 H322 0.961 . S
C335 H323 0.959 . S
C335 C333 1.561 1_556 S
C336 C333 1.526 1_556 S
C336 C337 1.396 . S
C336 C341 1.390 . S
C337 C331 1.465 . S
C337 C336 1.396 . S
C337 C338 1.399 . S
C338 H324 0.929 . S
C338 C337 1.399 . S
C338 C339 1.385 . S
C339 H325 0.931 . S
C339 C338 1.385 . S
C339 C340 1.389 . S
C340 C339 1.389 . S
C340 C341 1.387 . S
C341 H326 0.930 1_556 S
C341 C336 1.390 . S
C341 C340 1.387 . S
H342 C354 0.930 . S
H343 C356 0.930 . S
H344 C357 0.930 . S
H345 C361 0.959 . S
H346 C361 0.959 . S
H347 C361 0.961 . S
H348 C362 0.960 . S
H349 C362 0.961 . S
H350 C362 0.959 . S
H351 C365 0.929 . S
H352 C366 0.931 . S
H353 C368 0.930 . S
C354 H342 0.930 . S
C354 C355 1.399 . S
C354 C359 1.399 . S
C355 C354 1.399 . S
C355 C356 1.376 1_556 S
C356 H343 0.930 . S
C356 C355 1.376 1_554 S
C356 C357 1.388 . S
C357 H344 0.930 . S
C357 C356 1.388 . S
C357 C358 1.390 . S
C358 C357 1.390 . S
C358 C359 1.394 1_554 S
C358 C364 1.465 . S
C359 C354 1.399 . S
C359 C358 1.394 1_556 S
C359 C360 1.516 . S
C360 C359 1.516 . S
C360 C361 1.502 . S
C360 C362 1.561 . S
C360 C363 1.526 . S
C361 H345 0.959 . S
C361 H346 0.959 . S
C361 H347 0.961 . S
C361 C360 1.502 . S
C362 H348 0.960 . S
C362 H349 0.961 . S
C362 H350 0.959 . S
C362 C360 1.561 . S
C363 C360 1.526 . S
C363 C364 1.396 1_556 S
C363 C368 1.390 . S
C364 C358 1.465 . S
C364 C363 1.396 1_554 S
C364 C365 1.399 . S
C365 H351 0.929 . S
C365 C364 1.399 . S
C365 C366 1.385 . S
C366 H352 0.931 . S
C366 C365 1.385 . S
C366 C367 1.389 . S
C367 C366 1.389 . S
C367 C368 1.387 1_554 S
C368 H353 0.930 . S
C368 C363 1.390 . S
C368 C367 1.387 1_556 S
H369 C381 0.930 . S
H370 C383 0.930 . S
H371 C384 0.930 . S
H372 C388 0.959 . S
H373 C388 0.959 . S
H374 C388 0.961 . S
H375 C389 0.960 . S
H376 C389 0.961 . S
H377 C389 0.959 . S
H378 C392 0.929 . S
H379 C393 0.931 . S
H380 C395 0.930 . S
C381 H369 0.930 . S
C381 C382 1.399 . S
C381 C386 1.399 . S
C382 C381 1.399 . S
C382 C383 1.376 1_556 S
C383 H370 0.930 . S
C383 C382 1.376 1_554 S
C383 C384 1.388 . S
C384 H371 0.930 . S
C384 C383 1.388 . S
C384 C385 1.390 . S
C385 C384 1.390 . S
C385 C386 1.394 1_554 S
C385 C391 1.465 . S
C386 C381 1.399 . S
C386 C385 1.394 1_556 S
C386 C387 1.516 . S
C387 C386 1.516 . S
C387 C388 1.502 . S
C387 C389 1.561 . S
C387 C390 1.526 . S
C388 H372 0.959 . S
C388 H373 0.959 . S
C388 H374 0.961 . S
C388 C387 1.502 . S
C389 H375 0.960 . S
C389 H376 0.961 . S
C389 H377 0.959 . S
C389 C387 1.561 . S
C390 C387 1.526 . S
C390 C391 1.396 1_556 S
C390 C395 1.390 . S
C391 C385 1.465 . S
C391 C390 1.396 1_554 S
C391 C392 1.399 . S
C392 H378 0.929 . S
C392 C391 1.399 . S
C392 C393 1.385 . S
C393 H379 0.931 . S
C393 C392 1.385 . S
C393 C394 1.389 . S
C394 C393 1.389 . S
C394 C395 1.387 1_554 S
C395 H380 0.930 . S
C395 C390 1.390 . S
C395 C394 1.387 1_556 S
H396 C408 0.930 1_554 S
H397 C410 0.930 . S
H398 C411 0.930 . S
H399 C415 0.959 . S
H400 C415 0.959 . S
H401 C415 0.961 . S
H402 C416 0.960 . S
H403 C416 0.961 . S
H404 C416 0.959 . S
H405 C419 0.929 . S
H406 C420 0.930 1_556 S
H407 C422 0.930 . S
C408 H396 0.930 1_556 S
C408 C409 1.399 . S
C408 C413 1.399 . S
C409 C408 1.399 . S
C409 C410 1.376 . S
C410 H397 0.930 . S
C410 C409 1.376 . S
C410 C411 1.388 . S
C411 H398 0.930 . S
C411 C410 1.388 . S
C411 C412 1.390 . S
C412 C411 1.390 . S
C412 C413 1.394 . S
C412 C418 1.465 . S
C413 C408 1.399 . S
C413 C412 1.394 . S
C413 C414 1.516 1_556 S
C414 C413 1.516 1_554 S
C414 C415 1.502 . S
C414 C416 1.561 1_554 S
C414 C417 1.526 . S
C415 H399 0.959 . S
C415 H400 0.959 . S
C415 H401 0.961 . S
C415 C414 1.502 . S
C416 H402 0.960 . S
C416 H403 0.961 . S
C416 H404 0.959 . S
C416 C414 1.561 1_556 S
C417 C414 1.526 . S
C417 C418 1.396 1_554 S
C417 C422 1.390 . S
C418 C412 1.465 . S
C418 C417 1.396 1_556 S
C418 C419 1.399 . S
C419 H405 0.929 . S
C419 C418 1.399 . S
C419 C420 1.384 1_556 S
C420 H406 0.930 1_554 S
C420 C419 1.384 1_554 S
C420 C421 1.391 . S
C421 C420 1.391 . S
C421 C422 1.387 . S
C422 H407 0.930 . S
C422 C417 1.390 . S
C422 C421 1.387 . S
H423 C435 0.930 . S
H424 C437 0.930 . S
H425 C438 0.930 . S
H426 C442 0.959 . S
H427 C442 0.959 . S
H428 C442 0.961 . S
H429 C443 0.960 . S
H430 C443 0.961 . S
H431 C443 0.959 . S
H432 C446 0.929 . S
H433 C447 0.931 . S
H434 C449 0.930 . S
C435 H423 0.930 . S
C435 C436 1.399 . S
C435 C440 1.399 . S
C436 C435 1.399 . S
C436 C437 1.376 1_554 S
C437 H424 0.930 . S
C437 C436 1.376 1_556 S
C437 C438 1.388 . S
C438 H425 0.930 . S
C438 C437 1.388 . S
C438 C439 1.390 . S
C439 C438 1.390 . S
C439 C440 1.394 1_556 S
C439 C445 1.465 . S
C440 C435 1.399 . S
C440 C439 1.394 1_554 S
C440 C441 1.516 . S
C441 C440 1.516 . S
C441 C442 1.502 . S
C441 C443 1.561 . S
C441 C444 1.526 . S
C442 H426 0.959 . S
C442 H427 0.959 . S
C442 H428 0.961 . S
C442 C441 1.502 . S
C443 H429 0.960 . S
C443 H430 0.961 . S
C443 H431 0.959 . S
C443 C441 1.561 . S
C444 C441 1.526 . S
C444 C445 1.396 1_554 S
C444 C449 1.390 . S
C445 C439 1.465 . S
C445 C444 1.396 1_556 S
C445 C446 1.399 . S
C446 H432 0.929 . S
C446 C445 1.399 . S
C446 C447 1.385 . S
C447 H433 0.931 . S
C447 C446 1.385 . S
C447 C448 1.389 . S
C448 C447 1.389 . S
C448 C449 1.387 1_556 S
C449 H434 0.930 . S
C449 C444 1.390 . S
C449 C448 1.387 1_554 S
H450 C462 0.930 . S
H451 C464 0.930 . S
H452 C465 0.930 . S
H453 C469 0.959 . S
H454 C469 0.959 . S
H455 C469 0.961 . S
H456 C470 0.960 . S
H457 C470 0.961 . S
H458 C470 0.959 . S
H459 C473 0.929 . S
H460 C474 0.931 . S
H461 C476 0.930 . S
C462 H450 0.930 . S
C462 C463 1.399 . S
C462 C467 1.399 . S
C463 C462 1.399 . S
C463 C464 1.376 . S
C464 H451 0.930 . S
C464 C463 1.376 . S
C464 C465 1.388 . S
C465 H452 0.930 . S
C465 C464 1.388 . S
C465 C466 1.390 . S
C466 C465 1.390 . S
C466 C467 1.394 . S
C466 C472 1.465 . S
C467 C462 1.399 . S
C467 C466 1.394 . S
C467 C468 1.516 . S
C468 C467 1.516 . S
C468 C469 1.502 . S
C468 C470 1.561 . S
C468 C471 1.526 . S
C469 H453 0.959 . S
C469 H454 0.959 . S
C469 H455 0.961 . S
C469 C468 1.502 . S
C470 H456 0.960 . S
C470 H457 0.961 . S
C470 H458 0.959 . S
C470 C468 1.561 . S
C471 C468 1.526 . S
C471 C472 1.396 . S
C471 C476 1.390 . S
C472 C466 1.465 . S
C472 C471 1.396 . S
C472 C473 1.399 . S
C473 H459 0.929 . S
C473 C472 1.399 . S
C473 C474 1.385 . S
C474 H460 0.931 . S
C474 C473 1.385 . S
C474 C475 1.389 . S
C475 C474 1.389 . S
C475 C476 1.387 . S
C476 H461 0.930 . S
C476 C471 1.390 . S
C476 C475 1.387 . S
H477 C489 0.930 . S
H478 C491 0.930 . S
H479 C492 0.930 . S
H480 C496 0.959 . S
H481 C496 0.959 . S
H482 C496 0.961 . S
H483 C497 0.960 . S
H484 C497 0.961 . S
H485 C497 0.959 . S
H486 C500 0.929 . S
H487 C501 0.931 . S
H488 C503 0.930 . S
C489 H477 0.930 . S
C489 C490 1.399 . S
C489 C494 1.399 . S
C490 C489 1.399 . S
C490 C491 1.376 . S
C491 H478 0.930 . S
C491 C490 1.376 . S
C491 C492 1.388 . S
C492 H479 0.930 . S
C492 C491 1.388 . S
C492 C493 1.390 . S
C493 C492 1.390 . S
C493 C494 1.394 . S
C493 C499 1.465 . S
C494 C489 1.399 . S
C494 C493 1.394 . S
C494 C495 1.516 . S
C495 C494 1.516 . S
C495 C496 1.502 . S
C495 C497 1.561 . S
C495 C498 1.526 . S
C496 H480 0.959 . S
C496 H481 0.959 . S
C496 H482 0.961 . S
C496 C495 1.502 . S
C497 H483 0.960 . S
C497 H484 0.961 . S
C497 H485 0.959 . S
C497 C495 1.561 . S
C498 C495 1.526 . S
C498 C499 1.396 . S
C498 C503 1.390 . S
C499 C493 1.465 . S
C499 C498 1.396 . S
C499 C500 1.399 . S
C500 H486 0.929 . S
C500 C499 1.399 . S
C500 C501 1.385 . S
C501 H487 0.931 . S
C501 C500 1.385 . S
C501 C502 1.389 . S
C502 C501 1.389 . S
C502 C503 1.387 . S
C503 H488 0.930 . S
C503 C498 1.390 . S
C503 C502 1.387 . S
H504 C516 0.930 . S
H505 C518 0.930 . S
H506 C519 0.930 . S
H507 C523 0.959 . S
H508 C523 0.959 . S
H509 C523 0.961 . S
H510 C524 0.960 . S
H511 C524 0.961 . S
H512 C524 0.959 . S
H513 C527 0.929 . S
H514 C528 0.931 . S
H515 C530 0.930 . S
C516 H504 0.930 . S
C516 C517 1.399 . S
C516 C521 1.399 . S
C517 C516 1.399 . S
C517 C518 1.376 . S
C518 H505 0.930 . S
C518 C517 1.376 . S
C518 C519 1.388 . S
C519 H506 0.930 . S
C519 C518 1.388 . S
C519 C520 1.390 . S
C520 C519 1.390 . S
C520 C521 1.394 . S
C520 C526 1.465 . S
C521 C516 1.399 . S
C521 C520 1.394 . S
C521 C522 1.516 . S
C522 C521 1.516 . S
C522 C523 1.502 . S
C522 C524 1.561 . S
C522 C525 1.526 . S
C523 H507 0.959 . S
C523 H508 0.959 . S
C523 H509 0.961 . S
C523 C522 1.502 . S
C524 H510 0.960 . S
C524 H511 0.961 . S
C524 H512 0.959 . S
C524 C522 1.561 . S
C525 C522 1.526 . S
C525 C526 1.396 . S
C525 C530 1.390 . S
C526 C520 1.465 . S
C526 C525 1.396 . S
C526 C527 1.399 . S
C527 H513 0.929 . S
C527 C526 1.399 . S
C527 C528 1.385 . S
C528 H514 0.931 . S
C528 C527 1.385 . S
C528 C529 1.389 . S
C529 C528 1.389 . S
C529 C530 1.387 . S
C530 H515 0.930 . S
C530 C525 1.390 . S
C530 C529 1.387 . S
H531 C543 0.930 . S
H532 C545 0.930 . S
H533 C546 0.930 . S
H534 C550 0.959 . S
H535 C550 0.959 . S
H536 C550 0.961 . S
H537 C551 0.960 . S
H538 C551 0.961 . S
H539 C551 0.959 . S
H540 C554 0.929 . S
H541 C555 0.931 . S
H542 C557 0.930 . S
C543 H531 0.930 . S
C543 C544 1.399 . S
C543 C548 1.399 . S
C544 C543 1.399 . S
C544 C545 1.376 . S
C545 H532 0.930 . S
C545 C544 1.376 . S
C545 C546 1.388 . S
C546 H533 0.930 . S
C546 C545 1.388 . S
C546 C547 1.390 . S
C547 C546 1.390 . S
C547 C548 1.394 . S
C547 C553 1.465 . S
C548 C543 1.399 . S
C548 C547 1.394 . S
C548 C549 1.516 . S
C549 C548 1.516 . S
C549 C550 1.502 . S
C549 C551 1.561 . S
C549 C552 1.526 . S
C550 H534 0.959 . S
C550 H535 0.959 . S
C550 H536 0.961 . S
C550 C549 1.502 . S
C551 H537 0.960 . S
C551 H538 0.961 . S
C551 H539 0.959 . S
C551 C549 1.561 . S
C552 C549 1.526 . S
C552 C553 1.396 . S
C552 C557 1.390 . S
C553 C547 1.465 . S
C553 C552 1.396 . S
C553 C554 1.399 . S
C554 H540 0.929 . S
C554 C553 1.399 . S
C554 C555 1.385 . S
C555 H541 0.931 . S
C555 C554 1.385 . S
C555 C556 1.389 . S
C556 C555 1.389 . S
C556 C557 1.387 . S
C557 H542 0.930 . S
C557 C552 1.390 . S
C557 C556 1.387 . S
H558 C570 0.930 . S
H559 C572 0.930 . S
H560 C573 0.930 . S
H561 C577 0.959 . S
H562 C577 0.959 . S
H563 C577 0.961 . S
H564 C578 0.960 . S
H565 C578 0.961 . S
H566 C578 0.959 . S
H567 C581 0.929 . S
H568 C582 0.931 . S
H569 C584 0.930 . S
C570 H558 0.930 . S
C570 C571 1.399 . S
C570 C575 1.399 . S
C571 C570 1.399 . S
C571 C572 1.376 . S
C572 H559 0.930 . S
C572 C571 1.376 . S
C572 C573 1.388 . S
C573 H560 0.930 . S
C573 C572 1.388 . S
C573 C574 1.390 . S
C574 C573 1.390 . S
C574 C575 1.394 . S
C574 C580 1.465 . S
C575 C570 1.399 . S
C575 C574 1.394 . S
C575 C576 1.516 . S
C576 C575 1.516 . S
C576 C577 1.502 . S
C576 C578 1.561 . S
C576 C579 1.526 . S
C577 H561 0.959 . S
C577 H562 0.959 . S
C577 H563 0.961 . S
C577 C576 1.502 . S
C578 H564 0.960 . S
C578 H565 0.961 . S
C578 H566 0.959 . S
C578 C576 1.561 . S
C579 C576 1.526 . S
C579 C580 1.396 . S
C579 C584 1.390 . S
C580 C574 1.465 . S
C580 C579 1.396 . S
C580 C581 1.399 . S
C581 H567 0.929 . S
C581 C580 1.399 . S
C581 C582 1.385 . S
C582 H568 0.931 . S
C582 C581 1.385 . S
C582 C583 1.389 . S
C583 C582 1.389 . S
C583 C584 1.387 . S
C584 H569 0.930 . S
C584 C579 1.390 . S
C584 C583 1.387 . S
H585 C597 0.930 . S
H586 C599 0.930 . S
H587 C600 0.930 . S
H588 C604 0.959 . S
H589 C604 0.959 . S
H590 C604 0.961 . S
H591 C605 0.960 . S
H592 C605 0.961 . S
H593 C605 0.959 . S
H594 C608 0.929 . S
H595 C609 0.931 . S
H596 C611 0.930 . S
C597 H585 0.930 . S
C597 C598 1.399 . S
C597 C602 1.399 . S
C598 C597 1.399 . S
C598 C599 1.376 . S
C599 H586 0.930 . S
C599 C598 1.376 . S
C599 C600 1.388 . S
C600 H587 0.930 . S
C600 C599 1.388 . S
C600 C601 1.390 . S
C601 C600 1.390 . S
C601 C602 1.394 . S
C601 C607 1.465 . S
C602 C597 1.399 . S
C602 C601 1.394 . S
C602 C603 1.516 . S
C603 C602 1.516 . S
C603 C604 1.502 . S
C603 C605 1.561 . S
C603 C606 1.526 . S
C604 H588 0.959 . S
C604 H589 0.959 . S
C604 H590 0.961 . S
C604 C603 1.502 . S
C605 H591 0.960 . S
C605 H592 0.961 . S
C605 H593 0.959 . S
C605 C603 1.561 . S
C606 C603 1.526 . S
C606 C607 1.396 . S
C606 C611 1.390 . S
C607 C601 1.465 . S
C607 C606 1.396 . S
C607 C608 1.399 . S
C608 H594 0.929 . S
C608 C607 1.399 . S
C608 C609 1.385 . S
C609 H595 0.931 . S
C609 C608 1.385 . S
C609 C610 1.389 . S
C610 C609 1.389 . S
C610 C611 1.387 . S
C611 H596 0.930 . S
C611 C606 1.390 . S
C611 C610 1.387 . S
C139 C121 1.349 1_554 S
C151 C3 1.211 1_556 S
C166 C16 1.234 1_554 S
C178 C24 1.261 1_556 S
C193 C37 1.201 1_554 S
C205 C58 1.310 1_556 S
C220 C79 1.351 1_556 S
C232 C45 1.220 1_554 S
C247 C100 1.351 1_556 S
C259 C66 1.219 1_554 S
C274 C87 1.347 1_554 S
C286 C108 1.243 1_556 S
C301 C103 1.423 . S
C313 C19 1.402 . S
C328 C125 1.473 . S
C340 C40 1.461 . S
C355 C62 1.412 . S
C367 C20 1.394 . S
C382 C83 1.418 . S
C394 C41 1.398 . S
C409 C104 1.387 . S
C421 C61 1.400 . S
C436 C82 1.415 . S
C448 C124 1.396 . S
C463 C7 1.360 . S
C475 C4 1.277 . S
C490 C28 1.290 . S
C502 C25 1.237 . S
C517 C46 1.250 . S
C529 C49 1.361 . S
C544 C67 1.355 . S
C556 C70 1.290 . S
C571 C91 1.349 . S
C583 C88 1.229 . S
C598 C112 1.223 . S
C610 C109 1.333 . S
