# Generated by pormake.
# Topology ukn, (4)-cn, num edge types: 1
# Building blocks:
#     Node 0, Type 0, BuildingBlock: AZAVOO_clean_sbu_0, # of connection points: 4
#     Node 1, Type 0, BuildingBlock: AZAVOO_clean_sbu_0, # of connection points: 4
#     Node 2, Type 0, BuildingBlock: AZAVOO_clean_sbu_0, # of connection points: 4
#     Node 3, Type 0, BuildingBlock: AZAVOO_clean_sbu_0, # of connection points: 4
#     Node 4, Type 0, BuildingBlock: AZAVOO_clean_sbu_0, # of connection points: 4
#     Node 5, Type 0, BuildingBlock: AZAVOO_clean_sbu_0, # of connection points: 4
#     Node 6, Type 0, BuildingBlock: AZAVOO_clean_sbu_0, # of connection points: 4
#     Node 7, Type 0, BuildingBlock: AZAVOO_clean_sbu_0, # of connection points: 4
#     Node 8, Type 0, BuildingBlock: AZAVOO_clean_sbu_0, # of connection points: 4
#     Node 9, Type 0, BuildingBlock: AZAVOO_clean_sbu_0, # of connection points: 4
#     Node 10, Type 0, BuildingBlock: AZAVOO_clean_sbu_0, # of connection points: 4
#     Node 11, Type 0, BuildingBlock: AZAVOO_clean_sbu_0, # of connection points: 4
#     Node 12, Type 0, BuildingBlock: AZAVOO_clean_sbu_0, # of connection points: 4
#     Node 13, Type 0, BuildingBlock: AZAVOO_clean_sbu_0, # of connection points: 4
#     Node 14, Type 0, BuildingBlock: AZAVOO_clean_sbu_0, # of connection points: 4
#     Node 15, Type 0, BuildingBlock: AZAVOO_clean_sbu_0, # of connection points: 4
#     Node 16, Type 0, BuildingBlock: AZAVOO_clean_sbu_0, # of connection points: 4
#     Node 17, Type 0, BuildingBlock: AZAVOO_clean_sbu_0, # of connection points: 4
#     Node 18, Type 0, BuildingBlock: AZAVOO_clean_sbu_0, # of connection points: 4
#     Node 19, Type 0, BuildingBlock: AZAVOO_clean_sbu_0, # of connection points: 4
#     Node 20, Type 0, BuildingBlock: AZAVOO_clean_sbu_0, # of connection points: 4
#     Node 21, Type 0, BuildingBlock: AZAVOO_clean_sbu_0, # of connection points: 4
#     Node 22, Type 0, BuildingBlock: AZAVOO_clean_sbu_0, # of connection points: 4
#     Node 23, Type 0, BuildingBlock: AZAVOO_clean_sbu_0, # of connection points: 4
#     Node 24, Type 0, BuildingBlock: AZAVOO_clean_sbu_0, # of connection points: 4
#     Node 25, Type 0, BuildingBlock: AZAVOO_clean_sbu_0, # of connection points: 4
#     Node 26, Type 0, BuildingBlock: AZAVOO_clean_sbu_0, # of connection points: 4
#     Node 27, Type 0, BuildingBlock: AZAVOO_clean_sbu_0, # of connection points: 4
#     Node 28, Type 0, BuildingBlock: AZAVOO_clean_sbu_0, # of connection points: 4
#     Node 29, Type 0, BuildingBlock: AZAVOO_clean_sbu_0, # of connection points: 4
#     Node 30, Type 0, BuildingBlock: AZAVOO_clean_sbu_0, # of connection points: 4
#     Node 31, Type 0, BuildingBlock: AZAVOO_clean_sbu_0, # of connection points: 4
#     Node 32, Type 0, BuildingBlock: AZAVOO_clean_sbu_0, # of connection points: 4
#     Node 33, Type 0, BuildingBlock: AZAVOO_clean_sbu_0, # of connection points: 4
#     Node 34, Type 0, BuildingBlock: AZAVOO_clean_sbu_0, # of connection points: 4
#     Node 35, Type 0, BuildingBlock: AZAVOO_clean_sbu_0, # of connection points: 4
#     Edge 36, Type (0, 0), BuildingBlock: KIFKEQ_clean_linker_1, # of connection points: 2
#     Edge 37, Type (0, 0), BuildingBlock: KIFKEQ_clean_linker_1, # of connection points: 2
#     Edge 38, Type (0, 0), BuildingBlock: KIFKEQ_clean_linker_1, # of connection points: 2
#     Edge 39, Type (0, 0), BuildingBlock: KIFKEQ_clean_linker_1, # of connection points: 2
#     Edge 40, Type (0, 0), BuildingBlock: KIFKEQ_clean_linker_1, # of connection points: 2
#     Edge 41, Type (0, 0), BuildingBlock: KIFKEQ_clean_linker_1, # of connection points: 2
#     Edge 42, Type (0, 0), BuildingBlock: KIFKEQ_clean_linker_1, # of connection points: 2
#     Edge 43, Type (0, 0), BuildingBlock: KIFKEQ_clean_linker_1, # of connection points: 2
#     Edge 44, Type (0, 0), BuildingBlock: KIFKEQ_clean_linker_1, # of connection points: 2
#     Edge 45, Type (0, 0), BuildingBlock: KIFKEQ_clean_linker_1, # of connection points: 2
#     Edge 46, Type (0, 0), BuildingBlock: KIFKEQ_clean_linker_1, # of connection points: 2
#     Edge 47, Type (0, 0), BuildingBlock: KIFKEQ_clean_linker_1, # of connection points: 2
#     Edge 48, Type (0, 0), BuildingBlock: KIFKEQ_clean_linker_1, # of connection points: 2
#     Edge 49, Type (0, 0), BuildingBlock: KIFKEQ_clean_linker_1, # of connection points: 2
#     Edge 50, Type (0, 0), BuildingBlock: KIFKEQ_clean_linker_1, # of connection points: 2
#     Edge 51, Type (0, 0), BuildingBlock: KIFKEQ_clean_linker_1, # of connection points: 2
#     Edge 52, Type (0, 0), BuildingBlock: KIFKEQ_clean_linker_1, # of connection points: 2
#     Edge 53, Type (0, 0), BuildingBlock: KIFKEQ_clean_linker_1, # of connection points: 2
#     Edge 54, Type (0, 0), BuildingBlock: KIFKEQ_clean_linker_1, # of connection points: 2
#     Edge 55, Type (0, 0), BuildingBlock: KIFKEQ_clean_linker_1, # of connection points: 2
#     Edge 56, Type (0, 0), BuildingBlock: KIFKEQ_clean_linker_1, # of connection points: 2
#     Edge 57, Type (0, 0), BuildingBlock: KIFKEQ_clean_linker_1, # of connection points: 2
#     Edge 58, Type (0, 0), BuildingBlock: KIFKEQ_clean_linker_1, # of connection points: 2
#     Edge 59, Type (0, 0), BuildingBlock: KIFKEQ_clean_linker_1, # of connection points: 2
#     Edge 60, Type (0, 0), BuildingBlock: KIFKEQ_clean_linker_1, # of connection points: 2
#     Edge 61, Type (0, 0), BuildingBlock: KIFKEQ_clean_linker_1, # of connection points: 2
#     Edge 62, Type (0, 0), BuildingBlock: KIFKEQ_clean_linker_1, # of connection points: 2
#     Edge 63, Type (0, 0), BuildingBlock: KIFKEQ_clean_linker_1, # of connection points: 2
#     Edge 64, Type (0, 0), BuildingBlock: KIFKEQ_clean_linker_1, # of connection points: 2
#     Edge 65, Type (0, 0), BuildingBlock: KIFKEQ_clean_linker_1, # of connection points: 2
#     Edge 66, Type (0, 0), BuildingBlock: KIFKEQ_clean_linker_1, # of connection points: 2
#     Edge 67, Type (0, 0), BuildingBlock: KIFKEQ_clean_linker_1, # of connection points: 2
#     Edge 68, Type (0, 0), BuildingBlock: KIFKEQ_clean_linker_1, # of connection points: 2
#     Edge 69, Type (0, 0), BuildingBlock: KIFKEQ_clean_linker_1, # of connection points: 2
#     Edge 70, Type (0, 0), BuildingBlock: KIFKEQ_clean_linker_1, # of connection points: 2
#     Edge 71, Type (0, 0), BuildingBlock: KIFKEQ_clean_linker_1, # of connection points: 2
#     Edge 72, Type (0, 0), BuildingBlock: KIFKEQ_clean_linker_1, # of connection points: 2
#     Edge 73, Type (0, 0), BuildingBlock: KIFKEQ_clean_linker_1, # of connection points: 2
#     Edge 74, Type (0, 0), BuildingBlock: KIFKEQ_clean_linker_1, # of connection points: 2
#     Edge 75, Type (0, 0), BuildingBlock: KIFKEQ_clean_linker_1, # of connection points: 2
#     Edge 76, Type (0, 0), BuildingBlock: KIFKEQ_clean_linker_1, # of connection points: 2
#     Edge 77, Type (0, 0), BuildingBlock: KIFKEQ_clean_linker_1, # of connection points: 2
#     Edge 78, Type (0, 0), BuildingBlock: KIFKEQ_clean_linker_1, # of connection points: 2
#     Edge 79, Type (0, 0), BuildingBlock: KIFKEQ_clean_linker_1, # of connection points: 2
#     Edge 80, Type (0, 0), BuildingBlock: KIFKEQ_clean_linker_1, # of connection points: 2
#     Edge 81, Type (0, 0), BuildingBlock: KIFKEQ_clean_linker_1, # of connection points: 2
#     Edge 82, Type (0, 0), BuildingBlock: KIFKEQ_clean_linker_1, # of connection points: 2
#     Edge 83, Type (0, 0), BuildingBlock: KIFKEQ_clean_linker_1, # of connection points: 2
#     Edge 84, Type (0, 0), BuildingBlock: KIFKEQ_clean_linker_1, # of connection points: 2
#     Edge 85, Type (0, 0), BuildingBlock: KIFKEQ_clean_linker_1, # of connection points: 2
#     Edge 86, Type (0, 0), BuildingBlock: KIFKEQ_clean_linker_1, # of connection points: 2
#     Edge 87, Type (0, 0), BuildingBlock: KIFKEQ_clean_linker_1, # of connection points: 2
#     Edge 88, Type (0, 0), BuildingBlock: KIFKEQ_clean_linker_1, # of connection points: 2
#     Edge 89, Type (0, 0), BuildingBlock: KIFKEQ_clean_linker_1, # of connection points: 2
#     Edge 90, Type (0, 0), BuildingBlock: KIFKEQ_clean_linker_1, # of connection points: 2
#     Edge 91, Type (0, 0), BuildingBlock: KIFKEQ_clean_linker_1, # of connection points: 2
#     Edge 92, Type (0, 0), BuildingBlock: KIFKEQ_clean_linker_1, # of connection points: 2
#     Edge 93, Type (0, 0), BuildingBlock: KIFKEQ_clean_linker_1, # of connection points: 2
#     Edge 94, Type (0, 0), BuildingBlock: KIFKEQ_clean_linker_1, # of connection points: 2
#     Edge 95, Type (0, 0), BuildingBlock: KIFKEQ_clean_linker_1, # of connection points: 2
#     Edge 96, Type (0, 0), BuildingBlock: KIFKEQ_clean_linker_1, # of connection points: 2
#     Edge 97, Type (0, 0), BuildingBlock: KIFKEQ_clean_linker_1, # of connection points: 2
#     Edge 98, Type (0, 0), BuildingBlock: KIFKEQ_clean_linker_1, # of connection points: 2
#     Edge 99, Type (0, 0), BuildingBlock: KIFKEQ_clean_linker_1, # of connection points: 2
#     Edge 100, Type (0, 0), BuildingBlock: KIFKEQ_clean_linker_1, # of connection points: 2
#     Edge 101, Type (0, 0), BuildingBlock: KIFKEQ_clean_linker_1, # of connection points: 2
#     Edge 102, Type (0, 0), BuildingBlock: KIFKEQ_clean_linker_1, # of connection points: 2
#     Edge 103, Type (0, 0), BuildingBlock: KIFKEQ_clean_linker_1, # of connection points: 2
#     Edge 104, Type (0, 0), BuildingBlock: KIFKEQ_clean_linker_1, # of connection points: 2
#     Edge 105, Type (0, 0), BuildingBlock: KIFKEQ_clean_linker_1, # of connection points: 2
#     Edge 106, Type (0, 0), BuildingBlock: KIFKEQ_clean_linker_1, # of connection points: 2
#     Edge 107, Type (0, 0), BuildingBlock: KIFKEQ_clean_linker_1, # of connection points: 2
# Relax obj value: 0.161
# Max RMSD: 0.147
# Mean RMSD: 0.147
data_MOF--net-ukn--node1-AZAVOO_clean_sbu_0--edge1-KIFKEQ_clean_linker_1
_symmetry_space_group_name_H-M    P1
_symmetry_Int_Tables_number       1
_symmetry_cell_setting            triclinic
loop_
_symmetry_equiv_pos_as_xyz
'x, y, z'
_cell_length_a     110.9685
_cell_length_b     110.89704
_cell_length_c     24.300218
_cell_angle_alpha  90.030023
_cell_angle_beta   89.977121
_cell_angle_gamma 119.9643
loop_
_atom_site_label
_atom_site_type_symbol
_atom_site_fract_x
_atom_site_fract_y
_atom_site_fract_z
_atom_type_partial_charge
Mg0 Mg 0.07747 0.27842 0.07113 0.0
O1 O 0.08627 0.29406 -0.00133 0.0
O2 O 0.10894 0.30793 0.01613 0.0
Mg3 Mg 0.11456 0.30189 0.09739 0.0
C4 C 0.09828 0.30417 0.98566 0.0
C5 C 0.04597 0.26263 0.07785 0.0
O6 O 0.04982 0.25882 0.12264 0.0
O7 O 0.07784 0.29514 0.12689 0.0
O8 O 0.10069 0.30877 0.14151 0.0
O9 O 0.08311 0.264 0.02786 0.0
O10 O 0.09693 0.28095 0.0845 0.0
C11 C 0.08809 0.30578 0.1488 0.0
C12 C 0.0952 0.27133 0.05051 0.0
O13 O 0.05529 0.27128 0.04557 0.0
Mg14 Mg 0.69948 0.78925 0.01381 0.0
O15 O 0.68612 0.78656 0.93663 0.0
O16 O 0.67747 0.80081 0.948 0.0
Mg17 Mg 0.68466 0.81212 0.02992 0.0
C18 C 0.67882 0.79183 0.91978 0.0
C19 C 0.70229 0.76296 0.02912 0.0
O20 O 0.70086 0.76568 0.08057 0.0
O21 O 0.67985 0.77619 0.0653 0.0
O22 O 0.67199 0.79116 0.07396 0.0
O23 O 0.71824 0.8071 0.97461 0.0
O24 O 0.70272 0.80923 0.02422 0.0
C25 C 0.67102 0.77939 0.08363 0.0
C26 C 0.71367 0.81496 0.9938 0.0
O27 O 0.70139 0.77036 0.99121 0.0
Mg28 Mg 0.21228 0.92611 0.06628 0.0
O29 O 0.21899 0.91876 0.98912 0.0
O30 O 0.2136 0.89678 0.00583 0.0
Mg31 Mg 0.20308 0.88986 0.08903 0.0
C32 C 0.21875 0.90753 0.97503 0.0
C33 C 0.22383 0.95724 0.07149 0.0
O34 O 0.215 0.95226 0.11269 0.0
O35 O 0.2306 0.92779 0.11539 0.0
O36 O 0.22379 0.90532 0.12898 0.0
O37 O 0.19086 0.9183 0.03127 0.0
O38 O 0.19688 0.9058 0.08273 0.0
C39 C 0.23255 0.91824 0.13503 0.0
C40 C 0.18748 0.90648 0.05421 0.0
O41 O 0.22526 0.94878 0.04067 0.0
Mg42 Mg 0.29404 0.09116 0.99193 0.0
O43 O 0.30678 0.09976 0.07255 0.0
O44 O 0.3184 0.12293 0.06284 0.0
Mg45 Mg 0.31411 0.12916 0.97931 0.0
C46 C 0.31511 0.11199 0.09097 0.0
C47 C 0.2751 0.06061 0.00171 0.0
O48 O 0.26781 0.06593 0.98131 0.0
O49 O 0.31351 0.09499 0.94465 0.0
O50 O 0.32468 0.11822 0.9381 0.0
O51 O 0.27648 0.09324 0.02693 0.0
O52 O 0.29412 0.10981 0.98088 0.0
C53 C 0.32382 0.10648 0.92846 0.0
C54 C 0.28286 0.10586 0.00844 0.0
O55 O 0.2879 0.06875 0.01227 0.0
Mg56 Mg 0.92132 0.19462 0.87531 0.0
O57 O 0.91292 0.20492 0.93355 0.0
O58 O 0.89155 0.19943 0.9067 0.0
Mg59 Mg 0.88628 0.18542 0.83056 0.0
C60 C 0.90185 0.2056 0.93954 0.0
C61 C 0.94572 0.21015 0.96009 0.0
O62 O 0.93553 0.20392 0.99572 0.0
O63 O 0.92522 0.21066 0.8084 0.0
O64 O 0.90341 0.20317 0.77998 0.0
O65 O 0.91138 0.17545 0.92841 0.0
O66 O 0.90123 0.1791 0.85732 0.0
C67 C 0.91652 0.21139 0.77626 0.0
C68 C 0.9004 0.1714 0.89828 0.0
O69 O 0.94308 0.20828 0.90895 0.0
Mg70 Mg 0.78202 0.7191 0.86305 0.0
O71 O 0.77788 0.70058 0.9188 0.0
O72 O 0.79312 0.69388 0.89523 0.0
Mg73 Mg 0.80546 0.70649 0.82096 0.0
C74 C 0.78325 0.69282 0.9256 0.0
C75 C 0.76084 0.7208 0.94301 0.0
O76 O 0.77076 0.72312 0.97817 0.0
O77 O 0.7704 0.70436 0.79184 0.0
O78 O 0.78516 0.69679 0.77135 0.0
O79 O 0.79851 0.73296 0.92278 0.0
O80 O 0.80235 0.72349 0.84955 0.0
C81 C 0.77374 0.69673 0.76394 0.0
C82 C 0.80692 0.73051 0.89436 0.0
O83 O 0.76216 0.71823 0.8931 0.0
Mg84 Mg 0.91105 0.72101 0.95668 0.0
O85 O 0.9051 0.70851 0.03763 0.0
O86 O 0.88262 0.69225 0.03049 0.0
Mg87 Mg 0.87441 0.69396 0.94664 0.0
C88 C 0.89404 0.69825 0.0573 0.0
C89 C 0.94264 0.73476 0.93791 0.0
O90 O 0.93799 0.73254 0.88707 0.0
O91 O 0.9116 0.70319 0.9129 0.0
O92 O 0.88901 0.68747 0.90511 0.0
O93 O 0.90433 0.73566 0.98898 0.0
O94 O 0.89054 0.71601 0.9454 0.0
C95 C 0.90182 0.69142 0.89647 0.0
C96 C 0.89203 0.72681 0.97115 0.0
O97 O 0.93399 0.731 0.97734 0.0
Mg98 Mg 0.26798 0.19797 0.86508 0.0
O99 O 0.28805 0.20386 0.91231 0.0
O100 O 0.29387 0.1876 0.89616 0.0
Mg101 Mg 0.27807 0.17185 0.83538 0.0
C102 C 0.29601 0.19877 0.91992 0.0
C103 C 0.26888 0.22699 0.85448 0.0
O104 O 0.26678 0.22383 0.80193 0.0
O105 O 0.28015 0.20588 0.78401 0.0
O106 O 0.28479 0.18871 0.76957 0.0
O107 O 0.25638 0.18476 0.93737 0.0
O108 O 0.2626 0.17706 0.86497 0.0
C109 C 0.28527 0.19998 0.75456 0.0
C110 C 0.25753 0.17492 0.91388 0.0
O111 O 0.2704 0.21894 0.88727 0.0
Mg112 Mg 0.77846 0.07263 0.96777 0.0
O113 O 0.77495 0.08264 0.04463 0.0
O114 O 0.7822 0.1049 0.02452 0.0
Mg115 Mg 0.78917 0.10889 0.93527 0.0
C116 C 0.77715 0.09471 0.05814 0.0
C117 C 0.76927 0.04824 0.05111 0.0
O118 O 0.78039 0.05792 0.07633 0.0
O119 O 0.75928 0.07103 0.92599 0.0
O120 O 0.767 0.09345 0.90698 0.0
O121 O 0.80063 0.08019 0.99314 0.0
O122 O 0.79401 0.09198 0.94031 0.0
C123 C 0.7575 0.08065 0.90571 0.0
C124 C 0.80386 0.09144 0.96596 0.0
O125 O 0.76559 0.05116 0.00586 0.0
Mg126 Mg 0.73347 0.92128 0.13397 0.0
O127 O 0.71391 0.90794 0.0817 0.0
O128 O 0.70819 0.88571 0.09323 0.0
Mg129 Mg 0.72325 0.88471 0.15473 0.0
C130 C 0.70616 0.89499 0.0711 0.0
C131 C 0.73429 0.9492 0.15801 0.0
O132 O 0.73737 0.94645 0.20693 0.0
O133 O 0.72025 0.91545 0.21278 0.0
O134 O 0.71533 0.89341 0.22198 0.0
O135 O 0.746 0.92095 0.06211 0.0
O136 O 0.73885 0.90582 0.13063 0.0
C137 C 0.71461 0.90392 0.23906 0.0
C138 C 0.74456 0.90956 0.08299 0.0
O139 O 0.73143 0.94043 0.11943 0.0
Mg140 Mg 0.07041 0.80054 0.10852 0.0
O141 O 0.07994 0.79238 0.04466 0.0
O142 O 0.1017 0.79912 0.07098 0.0
Mg143 Mg 0.10543 0.80991 0.15405 0.0
C144 C 0.09167 0.79309 0.03691 0.0
C145 C 0.04482 0.78965 0.02708 0.0
O146 O 0.05326 0.80089 -0.00087 0.0
O147 O 0.06666 0.78303 0.16755 0.0
O148 O 0.0885 0.78937 0.19145 0.0
O149 O 0.0802 0.82104 0.06371 0.0
O150 O 0.09004 0.81603 0.13216 0.0
C151 C 0.0754 0.78093 0.19374 0.0
C152 C 0.09098 0.82462 0.0946 0.0
O153 O 0.04903 0.78695 0.07146 0.0
Mg154 Mg 0.20932 0.28106 0.11932 0.0
O155 O 0.21541 0.30049 0.06648 0.0
O156 O 0.20441 0.31123 0.09939 0.0
Mg157 Mg 0.19206 0.29931 0.17508 0.0
C158 C 0.21249 0.31027 0.06444 0.0
C159 C 0.2261 0.27756 0.02631 0.0
O160 O 0.21631 0.27835 -0.001 0.0
O161 O 0.22397 0.29448 0.18841 0.0
O162 O 0.21234 0.30484 0.21859 0.0
O163 O 0.19075 0.26877 0.06528 0.0
O164 O 0.19068 0.28047 0.13884 0.0
C165 C 0.22268 0.30285 0.2207 0.0
C166 C 0.18438 0.27345 0.09545 0.0
O167 O 0.22641 0.27858 0.07848 0.0
Mg168 Mg 0.74752 0.61442 0.36838 0.0
O169 O 0.75535 0.62902 0.29282 0.0
O170 O 0.77773 0.64456 0.30855 0.0
Mg171 Mg 0.78409 0.64054 0.39243 0.0
C172 C 0.76691 0.63952 0.27814 0.0
C173 C 0.7155 0.60216 0.37461 0.0
O174 O 0.71872 0.60515 0.42679 0.0
O175 O 0.7464 0.63123 0.41887 0.0
O176 O 0.76898 0.64634 0.4329 0.0
O177 O 0.75479 0.60057 0.3313 0.0
O178 O 0.7676 0.61883 0.38413 0.0
C179 C 0.75613 0.64252 0.43933 0.0
C180 C 0.76669 0.60896 0.35353 0.0
O181 O 0.72515 0.60512 0.33991 0.0
Mg182 Mg 0.40005 0.13864 0.48984 0.0
O183 O 0.37965 0.13216 0.44359 0.0
O184 O 0.37309 0.14778 0.46173 0.0
Mg185 Mg 0.3886 0.16362 0.52301 0.0
C186 C 0.37131 0.13684 0.43704 0.0
C187 C 0.39654 0.11408 0.41752 0.0
O188 O 0.39399 0.1214 0.38173 0.0
O189 O 0.38798 0.13001 0.57096 0.0
O190 O 0.38258 0.14658 0.58756 0.0
O191 O 0.41139 0.15255 0.41833 0.0
O192 O 0.40451 0.1593 0.49157 0.0
C193 C 0.38256 0.13546 0.60138 0.0
C194 C 0.40977 0.16199 0.44296 0.0
O195 O 0.39884 0.11807 0.4674 0.0
Mg196 Mg 0.8755 0.25067 0.39849 0.0
O197 O 0.88052 0.24198 0.32083 0.0
O198 O 0.87587 0.2204 0.34061 0.0
Mg199 Mg 0.86741 0.21498 0.42781 0.0
C200 C 0.88012 0.23065 0.30748 0.0
C201 C 0.88344 0.27461 0.31519 0.0
O202 O 0.87415 0.26395 0.28652 0.0
O203 O 0.89516 0.25369 0.4419 0.0
O204 O 0.88874 0.23146 0.45982 0.0
O205 O 0.85335 0.24189 0.37177 0.0
O206 O 0.8609 0.23069 0.42339 0.0
C207 C 0.89755 0.24447 0.46224 0.0
C208 C 0.85074 0.23069 0.39799 0.0
O209 O 0.88673 0.2725 0.36283 0.0
Mg210 Mg 0.92447 0.40383 0.1932 0.0
O211 O 0.94328 0.41357 0.25154 0.0
O212 O 0.95577 0.43641 0.23459 0.0
Mg213 Mg 0.94543 0.44097 0.16274 0.0
C214 C 0.9536 0.42564 0.2616 0.0
C215 C 0.90934 0.37181 0.20031 0.0
O216 O 0.90055 0.3737 0.17042 0.0
O217 O 0.9382 0.40458 0.12197 0.0
O218 O 0.95098 0.42757 0.10808 0.0
O219 O 0.91308 0.40928 0.255 0.0
O220 O 0.92528 0.42286 0.18559 0.0
C221 C 0.94786 0.41508 0.09696 0.0
C222 C 0.91828 0.42115 0.22999 0.0
O223 O 0.92042 0.38237 0.21711 0.0
Mg224 Mg 0.58984 0.52335 0.18695 0.0
O225 O 0.58228 0.53332 0.25133 0.0
O226 O 0.56011 0.52683 0.23277 0.0
Mg227 Mg 0.55331 0.51236 0.15864 0.0
C228 C 0.57112 0.53356 0.26159 0.0
C229 C 0.61586 0.53888 0.26219 0.0
O230 O 0.60672 0.53059 0.29863 0.0
O231 O 0.59099 0.53883 0.12197 0.0
O232 O 0.56839 0.53124 0.10773 0.0
O233 O 0.58246 0.50445 0.24095 0.0
O234 O 0.56958 0.50724 0.17834 0.0
C235 C 0.58122 0.53974 0.09818 0.0
C236 C 0.57044 0.50007 0.21817 0.0
O237 O 0.61215 0.53822 0.21232 0.0
Mg238 Mg 0.44935 0.03979 0.24907 0.0
O239 O 0.44393 0.02307 0.3162 0.0
O240 O 0.45209 0.00937 0.28666 0.0
Mg241 Mg 0.46155 0.01628 0.20164 0.0
C242 C 0.44602 0.01281 0.32292 0.0
C243 C 0.43291 0.05499 0.26009 0.0
O244 O 0.43812 0.0582 0.21016 0.0
O245 O 0.43152 0.02417 0.19432 0.0
O246 O 0.44021 0.0107 0.16822 0.0
O247 O 0.47045 0.05322 0.28716 0.0
O248 O 0.46581 0.03718 0.22388 0.0
C249 C 0.43058 0.0138 0.1678 0.0
C250 C 0.47454 0.04616 0.25801 0.0
O251 O 0.43536 0.04689 0.28888 0.0
Mg252 Mg 0.58887 0.05218 0.19113 0.0
O253 O 0.57978 0.03394 0.25255 0.0
O254 O 0.5582 0.01857 0.22574 0.0
Mg255 Mg 0.55401 0.02633 0.14535 0.0
C256 C 0.56834 0.02255 0.25925 0.0
C257 C 0.62054 0.07041 0.20758 0.0
O258 O 0.61877 0.07636 0.16399 0.0
O259 O 0.59295 0.03918 0.12957 0.0
O260 O 0.5712 0.02358 0.10501 0.0
O261 O 0.57921 0.06243 0.23881 0.0
O262 O 0.56898 0.04787 0.16972 0.0
C263 C 0.58434 0.02851 0.10223 0.0
C264 C 0.56825 0.05534 0.20876 0.0
O265 O 0.61007 0.06002 0.22895 0.0
Mg266 Mg 0.95842 0.54305 0.30954 0.0
O267 O 0.97136 0.54562 0.38774 0.0
O268 O 0.98164 0.53291 0.37402 0.0
Mg269 Mg 0.9758 0.5226 0.28982 0.0
C270 C 0.97924 0.54096 0.40386 0.0
C271 C 0.95413 0.56851 0.29849 0.0
O272 O 0.95634 0.56663 0.24688 0.0
O273 O 0.9781 0.55764 0.2617 0.0
O274 O 0.98757 0.54415 0.24905 0.0
O275 O 0.93999 0.52388 0.34351 0.0
O276 O 0.95681 0.52391 0.29471 0.0
C277 C 0.98761 0.55559 0.24215 0.0
C278 C 0.94555 0.51706 0.32271 0.0
O279 O 0.95491 0.56078 0.33529 0.0
Mg280 Mg 0.44784 0.40605 0.24425 0.0
O281 O 0.44565 0.41651 0.32361 0.0
O282 O 0.45741 0.43945 0.30808 0.0
Mg283 Mg 0.46568 0.44375 0.22062 0.0
C284 C 0.45022 0.42906 0.33949 0.0
C285 C 0.43031 0.37982 0.32199 0.0
O286 O 0.43813 0.38827 0.36118 0.0
O287 O 0.43132 0.40919 0.2001 0.0
O288 O 0.44339 0.4323 0.18822 0.0
O289 O 0.46867 0.40936 0.27362 0.0
O290 O 0.46574 0.42412 0.22262 0.0
C291 C 0.43229 0.42053 0.18289 0.0
C292 C 0.47404 0.42126 0.24879 0.0
O293 O 0.43166 0.38435 0.27307 0.0
Mg294 Mg 0.37373 0.2458 0.36302 0.0
O295 O 0.36133 0.23684 0.28192 0.0
O296 O 0.35075 0.21367 0.29094 0.0
Mg297 Mg 0.35559 0.20773 0.37406 0.0
C298 C 0.35349 0.22452 0.26316 0.0
C299 C 0.38641 0.27665 0.37902 0.0
O300 O 0.39146 0.2724 0.41861 0.0
O301 O 0.35378 0.24048 0.40952 0.0
O302 O 0.34376 0.21732 0.41576 0.0
O303 O 0.39226 0.24511 0.32897 0.0
O304 O 0.37481 0.22781 0.37312 0.0
C305 C 0.34389 0.2287 0.42547 0.0
C306 C 0.38628 0.2324 0.34646 0.0
O307 O 0.37792 0.26771 0.3451 0.0
Mg308 Mg 0.73426 0.12739 0.49374 0.0
O309 O 0.74463 0.11897 0.43515 0.0
O310 O 0.76631 0.12623 0.46384 0.0
Mg311 Mg 0.76893 0.13729 0.54559 0.0
C312 C 0.75647 0.11982 0.4293 0.0
C313 C 0.71326 0.11444 0.39857 0.0
O314 O 0.72478 0.1224 0.37131 0.0
O315 O 0.72988 0.11022 0.55549 0.0
O316 O 0.7516 0.11686 0.58244 0.0
O317 O 0.74404 0.14715 0.44598 0.0
O318 O 0.75376 0.14328 0.51821 0.0
C319 C 0.7385 0.10836 0.58373 0.0
C320 C 0.75478 0.15117 0.4775 0.0
O321 O 0.71367 0.11399 0.45076 0.0
Mg322 Mg 0.87926 0.61937 0.46885 0.0
O323 O 0.88617 0.63904 0.41534 0.0
O324 O 0.87409 0.64896 0.44538 0.0
Mg325 Mg 0.86033 0.63657 0.51726 0.0
C326 C 0.88288 0.64857 0.41255 0.0
C327 C 0.89841 0.61412 0.38931 0.0
O328 O 0.88897 0.61295 0.35374 0.0
O329 O 0.89228 0.63261 0.5416 0.0
O330 O 0.87983 0.64246 0.56729 0.0
O331 O 0.862 0.60713 0.4089 0.0
O332 O 0.86017 0.61836 0.48064 0.0
C333 C 0.89025 0.64069 0.57275 0.0
C334 C 0.8549 0.61157 0.43566 0.0
O335 O 0.89746 0.61709 0.43904 0.0
Mg336 Mg 0.41047 0.93861 0.77354 0.0
O337 O 0.41876 0.95447 0.70237 0.0
O338 O 0.44081 0.97027 0.72191 0.0
Mg339 Mg 0.44611 0.96541 0.80636 0.0
C340 C 0.43025 0.96534 0.6901 0.0
C341 C 0.3785 0.92626 0.77296 0.0
O342 O 0.38098 0.9284 0.82597 0.0
O343 O 0.40772 0.95403 0.8265 0.0
O344 O 0.42981 0.96994 0.84456 0.0
O345 O 0.41912 0.92648 0.73284 0.0
O346 O 0.43061 0.94335 0.79303 0.0
C347 C 0.41676 0.96538 0.84892 0.0
C348 C 0.43061 0.9345 0.75866 0.0
O349 O 0.38857 0.92948 0.74016 0.0
Mg350 Mg 0.03229 0.45402 0.70039 0.0
O351 O 0.01854 0.44928 0.62304 0.0
O352 O 0.00596 0.45975 0.63652 0.0
Mg353 Mg 0.01255 0.47225 0.71604 0.0
C354 C 0.00918 0.4521 0.60798 0.0
C355 C 0.03867 0.43022 0.71891 0.0
O356 O 0.03646 0.43278 0.76959 0.0
O357 O 0.01333 0.43915 0.7513 0.0
O358 O 0.00254 0.45148 0.76247 0.0
O359 O 0.04967 0.4733 0.66248 0.0
O360 O 0.03244 0.47262 0.71051 0.0
C361 C 0.00349 0.44062 0.77113 0.0
C362 C 0.04354 0.47973 0.68182 0.0
O363 O 0.0372 0.43694 0.67965 0.0
Mg364 Mg 0.54232 0.58312 0.6987 0.0
O365 O 0.54862 0.57419 0.62583 0.0
O366 O 0.53892 0.55124 0.6402 0.0
Mg367 Mg 0.52596 0.54538 0.7184 0.0
C368 C 0.54652 0.56216 0.61193 0.0
C369 C 0.56118 0.61472 0.70999 0.0
O370 O 0.55464 0.61132 0.75748 0.0
O371 O 0.5575 0.58066 0.75467 0.0
O372 O 0.5464 0.55755 0.76595 0.0
O373 O 0.52316 0.57966 0.65437 0.0
O374 O 0.5242 0.56408 0.70775 0.0
C375 C 0.55668 0.56969 0.77529 0.0
C376 C 0.51715 0.56719 0.6744 0.0
O377 O 0.55875 0.60515 0.67559 0.0
Mg378 Mg 0.59238 0.73321 0.51985 0.0
O379 O 0.61208 0.74763 0.56928 0.0
O380 O 0.61704 0.76958 0.55635 0.0
Mg381 Mg 0.60151 0.76934 0.49393 0.0
C382 C 0.6195 0.76065 0.57907 0.0
C383 C 0.59751 0.71247 0.58765 0.0
O384 O 0.59915 0.72154 0.6259 0.0
O385 O 0.60522 0.7385 0.44006 0.0
O386 O 0.6096 0.76031 0.42861 0.0
O387 O 0.58004 0.73385 0.59173 0.0
O388 O 0.58641 0.7483 0.52107 0.0
C389 C 0.61058 0.74986 0.41264 0.0
C390 C 0.58107 0.74492 0.56945 0.0
O391 O 0.59522 0.71464 0.5384 0.0
Mg392 Mg 0.25611 0.86718 0.54388 0.0
O393 O 0.24948 0.87863 0.60443 0.0
O394 O 0.22883 0.87554 0.57808 0.0
Mg395 Mg 0.222 0.86161 0.50166 0.0
C396 C 0.23922 0.88068 0.61083 0.0
C397 C 0.28034 0.87792 0.62758 0.0
O398 O 0.26985 0.86972 0.65952 0.0
O399 O 0.26129 0.88394 0.47899 0.0
O400 O 0.23994 0.87877 0.4522 0.0
O401 O 0.24533 0.84781 0.59501 0.0
O402 O 0.23527 0.85318 0.52834 0.0
C403 C 0.25315 0.88598 0.44837 0.0
C404 C 0.23417 0.84503 0.56814 0.0
O405 O 0.27808 0.87906 0.57716 0.0
Mg406 Mg 0.11917 0.38519 0.56592 0.0
O407 O 0.1147 0.36728 0.62558 0.0
O408 O 0.12893 0.35922 0.60325 0.0
Mg409 Mg 0.14098 0.3705 0.52623 0.0
C410 C 0.11952 0.3591 0.63389 0.0
C411 C 0.09917 0.38919 0.64528 0.0
O412 O 0.10935 0.39208 0.67996 0.0
O413 O 0.10652 0.36968 0.49843 0.0
O414 O 0.12034 0.3609 0.47901 0.0
O415 O 0.13663 0.39956 0.62152 0.0
O416 O 0.13898 0.38848 0.55018 0.0
C417 C 0.10915 0.36132 0.47202 0.0
C418 C 0.14438 0.39632 0.59246 0.0
O419 O 0.10002 0.38559 0.59644 0.0
Mg420 Mg 0.24713 0.38345 0.60905 0.0
O421 O 0.23965 0.37009 0.68772 0.0
O422 O 0.21684 0.35533 0.67709 0.0
Mg423 Mg 0.20991 0.35874 0.59318 0.0
C424 C 0.22801 0.36026 0.70542 0.0
C425 C 0.27815 0.39249 0.59397 0.0
O426 O 0.27353 0.38892 0.54341 0.0
O427 O 0.24627 0.36531 0.56219 0.0
O428 O 0.22345 0.351 0.5511 0.0
O429 O 0.2419 0.39886 0.64494 0.0
O430 O 0.22725 0.38025 0.59726 0.0
C431 C 0.23608 0.35411 0.54353 0.0
C432 C 0.22945 0.39087 0.62632 0.0
O433 O 0.26971 0.39137 0.63166 0.0
Mg434 Mg 0.62543 0.86507 0.63641 0.0
O435 O 0.63874 0.86847 0.71478 0.0
O436 O 0.64738 0.85413 0.70598 0.0
Mg437 Mg 0.64036 0.84217 0.62545 0.0
C438 C 0.64604 0.8633 0.73286 0.0
C439 C 0.61715 0.88445 0.69722 0.0
O440 O 0.61326 0.87434 0.73325 0.0
O441 O 0.64514 0.87778 0.58507 0.0
O442 O 0.65304 0.8628 0.57938 0.0
O443 O 0.60654 0.84734 0.67608 0.0
O444 O 0.62233 0.84508 0.62917 0.0
C445 C 0.65401 0.8745 0.56807 0.0
C446 C 0.61124 0.83944 0.65876 0.0
O447 O 0.62336 0.88414 0.65376 0.0
Mg448 Mg 0.11351 0.74284 0.58328 0.0
O449 O 0.10911 0.75327 0.65681 0.0
O450 O 0.11749 0.7756 0.63415 0.0
Mg451 Mg 0.12563 0.77913 0.54648 0.0
C452 C 0.11162 0.76556 0.66829 0.0
C453 C 0.09836 0.71149 0.58895 0.0
O454 O 0.10402 0.71449 0.53973 0.0
O455 O 0.09515 0.74151 0.53566 0.0
O456 O 0.10363 0.76401 0.51543 0.0
O457 O 0.13501 0.75007 0.61585 0.0
O458 O 0.12964 0.76187 0.55723 0.0
C459 C 0.09393 0.7513 0.51369 0.0
C460 C 0.13885 0.76129 0.58741 0.0
O461 O 0.1 0.7214 0.62013 0.0
Mg462 Mg 0.06446 0.59274 0.81017 0.0
O463 O 0.04423 0.58046 0.7602 0.0
O464 O 0.03456 0.55793 0.78173 0.0
Mg465 Mg 0.04726 0.55618 0.85168 0.0
C466 C 0.03478 0.56776 0.75362 0.0
C467 C 0.06455 0.61493 0.73143 0.0
O468 O 0.06141 0.60479 0.69623 0.0
O469 O 0.05208 0.59215 0.88606 0.0
O470 O 0.04131 0.5694 0.90579 0.0
O471 O 0.07513 0.58744 0.74478 0.0
O472 O 0.06572 0.57475 0.81959 0.0
C473 C 0.0436 0.58171 0.91485 0.0
C474 C 0.07143 0.57611 0.77213 0.0
O475 O 0.06628 0.61311 0.7818 0.0
Mg476 Mg 0.4049 0.46709 0.75017 0.0
O477 O 0.41609 0.45826 0.69932 0.0
O478 O 0.4386 0.46993 0.72181 0.0
Mg479 Mg 0.44162 0.48577 0.78894 0.0
C480 C 0.42853 0.46064 0.69353 0.0
C481 C 0.38019 0.44727 0.67476 0.0
O482 O 0.38868 0.45588 0.63738 0.0
O483 O 0.40547 0.45538 0.82668 0.0
O484 O 0.42793 0.46836 0.84934 0.0
O485 O 0.41045 0.48336 0.68475 0.0
O486 O 0.42317 0.48606 0.75871 0.0
C487 C 0.41566 0.45832 0.85891 0.0
C488 C 0.42173 0.49083 0.71258 0.0
O489 O 0.38407 0.44892 0.72468 0.0
Mg490 Mg 0.54928 0.95111 0.71558 0.0
O491 O 0.55357 0.96469 0.63729 0.0
O492 O 0.54463 0.97845 0.6561 0.0
Mg493 Mg 0.53588 0.97488 0.74259 0.0
C494 C 0.5507 0.97413 0.62352 0.0
C495 C 0.57012 0.94147 0.73035 0.0
O496 O 0.56757 0.94432 0.78005 0.0
O497 O 0.56699 0.96943 0.76099 0.0
O498 O 0.55774 0.98295 0.77702 0.0
O499 O 0.52797 0.9354 0.68372 0.0
O500 O 0.53256 0.95383 0.73373 0.0
C501 C 0.56774 0.98042 0.78086 0.0
C502 C 0.52374 0.94328 0.70554 0.0
O503 O 0.56402 0.94335 0.6897 0.0
H504 H 0.09772 0.24837 0.06487 0.0
H505 H 0.11939 0.29061 0.00523 0.0
H506 H 0.11956 0.24784 0.06349 0.0
H507 H 0.14101 0.28999 0.00143 0.0
H508 H 0.16267 0.25157 0.04254 0.0
H509 H 0.14039 0.24962 0.0155 0.0
H510 H 0.15447 0.29084 0.08033 0.0
H511 H 0.17641 0.29286 0.10476 0.0
C512 C 0.10707 0.25732 0.04947 0.0
C513 C 0.10705 0.2696 0.03588 0.0
C514 C 0.11954 0.25703 0.04853 0.0
C515 C 0.13206 0.26899 0.03355 0.0
C516 C 0.13161 0.28074 0.01458 0.0
C517 C 0.11925 0.2811 0.01647 0.0
C518 C 0.16093 0.26019 0.0505 0.0
C519 C 0.17114 0.27223 0.07726 0.0
C520 C 0.14822 0.25907 0.03521 0.0
C521 C 0.14568 0.27009 0.04556 0.0
C522 C 0.1561 0.28221 0.07099 0.0
C523 C 0.16865 0.28326 0.08638 0.0
H524 H 0.7416 0.83282 0.98976 0.0
H525 H 0.70203 0.83107 0.97405 0.0
H526 H 0.75337 0.85833 0.99245 0.0
H527 H 0.71367 0.85637 0.97655 0.0
H528 H 0.73613 0.90185 0.97726 0.0
H529 H 0.73147 0.87987 0.93483 0.0
H530 H 0.75089 0.87188 0.07321 0.0
H531 H 0.75525 0.8936 0.11569 0.0
C532 C 0.73548 0.83791 0.98523 0.0
C533 C 0.7209 0.83004 0.98301 0.0
C534 C 0.7422 0.85246 0.98681 0.0
C535 C 0.73443 0.85931 0.98499 0.0
C536 C 0.71995 0.8514 0.97763 0.0
C537 C 0.71325 0.8369 0.97705 0.0
C538 C 0.73996 0.89568 0.99719 0.0
C539 C 0.74604 0.89934 0.04961 0.0
C540 C 0.73721 0.88308 0.97316 0.0
C541 C 0.74075 0.87415 0.00091 0.0
C542 C 0.74817 0.8786 0.05058 0.0
C543 C 0.75065 0.89102 0.075 0.0
H544 H 0.09979 0.8413 0.00233 0.0
H545 H 0.11253 0.83694 0.16558 0.0
H546 H 0.12311 0.8613 0.98572 0.0
H547 H 0.13542 0.85679 0.1496 0.0
H548 H 0.17855 0.88004 0.08961 0.0
H549 H 0.15503 0.86071 0.0932 0.0
H550 H 0.14011 0.88583 0.01595 0.0
H551 H 0.16407 0.90533 0.01044 0.0
C552 C 0.1075 0.8447 0.03475 0.0
C553 C 0.10442 0.83743 0.08491 0.0
C554 C 0.12081 0.85613 0.0253 0.0
C555 C 0.13119 0.86043 0.06594 0.0
C556 C 0.12781 0.8535 0.11682 0.0
C557 C 0.11464 0.84213 0.12608 0.0
C558 C 0.1704 0.88148 0.07238 0.0
C559 C 0.17326 0.89431 0.05 0.0
C560 C 0.15682 0.87037 0.07494 0.0
C561 C 0.14566 0.87182 0.05598 0.0
C562 C 0.1485 0.88441 0.03096 0.0
C563 C 0.16221 0.89557 0.02795 0.0
H564 H 0.25556 0.09852 0.01222 0.0
H565 H 0.29701 0.1341 0.02023 0.0
H566 H 0.24596 0.11414 0.00529 0.0
H567 H 0.28745 0.14964 0.01402 0.0
H568 H 0.2665 0.17507 0.01821 0.0
H569 H 0.27046 0.15711 0.05904 0.0
H570 H 0.25041 0.13043 0.9194 0.0
H571 H 0.24683 0.14846 0.87816 0.0
C572 C 0.26258 0.10967 0.01411 0.0
C573 C 0.27704 0.11514 0.01568 0.0
C574 C 0.25708 0.11857 0.01011 0.0
C575 C 0.26598 0.13306 0.00902 0.0
C576 C 0.28036 0.1385 0.01521 0.0
C577 C 0.28585 0.12961 0.01805 0.0
C578 C 0.26247 0.16514 0.99746 0.0
C579 C 0.25634 0.16305 0.94524 0.0
C580 C 0.26481 0.15493 0.02059 0.0
C581 C 0.26073 0.14242 0.99229 0.0
C582 C 0.2535 0.13991 0.94236 0.0
C583 C 0.25148 0.15022 0.91871 0.0
H584 H 0.81288 0.1162 0.91391 0.0
H585 H 0.8276 0.09355 0.01122 0.0
H586 H 0.83639 0.13514 0.90342 0.0
H587 H 0.85159 0.11254 0.99823 0.0
H588 H 0.89193 0.15706 0.99629 0.0
H589 H 0.86872 0.1375 0.01796 0.0
H590 H 0.85582 0.13794 0.85055 0.0
H591 H 0.87858 0.15748 0.82971 0.0
C592 C 0.8211 0.11527 0.93364 0.0
C593 C 0.81828 0.10332 0.96358 0.0
C594 C 0.83468 0.12612 0.92694 0.0
C595 C 0.84591 0.12525 0.94906 0.0
C596 C 0.84315 0.11352 0.98073 0.0
C597 C 0.82943 0.10264 0.98796 0.0
C598 C 0.8841 0.15288 0.96426 0.0
C599 C 0.88697 0.15893 0.91159 0.0
C600 C 0.87086 0.14167 0.97658 0.0
C601 C 0.86035 0.13635 0.93627 0.0
C602 C 0.86353 0.14205 0.88305 0.0
C603 C 0.87661 0.15323 0.871 0.0
H604 H 0.83072 0.7394 0.83678 0.0
H605 H 0.8134 0.72764 2e-05 0.0
H606 H 0.85232 0.74087 0.86878 0.0
H607 H 0.83491 0.72857 0.03157 0.0
H608 H 0.89265 0.75152 0.96251 0.0
H609 H 0.87258 0.75503 0.95359 0.0
H610 H 0.84489 0.71132 0.9838 0.0
H611 H 0.86487 0.70772 0.99114 0.0
C612 C 0.83168 0.73742 0.87976 0.0
C613 C 0.82051 0.73352 0.91611 0.0
C614 C 0.84401 0.73829 0.89804 0.0
C615 C 0.84522 0.73489 0.95257 0.0
C616 C 0.8342 0.73135 0.98946 0.0
C617 C 0.82198 0.73088 0.97151 0.0
C618 C 0.88229 0.74275 0.96858 0.0
C619 C 0.88025 0.72932 0.97686 0.0
C620 C 0.87085 0.74476 0.9634 0.0
C621 C 0.85728 0.73344 0.96816 0.0
C622 C 0.85529 0.7202 0.98043 0.0
C623 C 0.86669 0.71813 0.98415 0.0
H624 H 0.84622 0.63049 0.44227 0.0
H625 H 0.83492 0.59035 0.37343 0.0
H626 H 0.82496 0.62857 0.4087 0.0
H627 H 0.81337 0.58854 0.33711 0.0
H628 H 0.76924 0.58598 0.3675 0.0
H629 H 0.79115 0.58574 0.37529 0.0
H630 H 0.81372 0.62885 0.32471 0.0
H631 H 0.79194 0.62914 0.31929 0.0
C632 C 0.83913 0.62116 0.42044 0.0
C633 C 0.8421 0.61041 0.41211 0.0
C634 C 0.82701 0.62019 0.39983 0.0
C635 C 0.81748 0.60845 0.36976 0.0
C636 C 0.8205 0.59771 0.36028 0.0
C637 C 0.83281 0.59875 0.38089 0.0
C638 C 0.77889 0.59524 0.35663 0.0
C639 C 0.77905 0.60766 0.34395 0.0
C640 C 0.79142 0.59512 0.36093 0.0
C641 C 0.80419 0.60739 0.35197 0.0
C642 C 0.80408 0.61935 0.33347 0.0
C643 C 0.79164 0.61953 0.33021 0.0
H644 H 0.41854 0.18755 0.48554 0.0
H645 H 0.40346 0.16372 0.33571 0.0
H646 H 0.41597 0.20623 0.44475 0.0
H647 H 0.40054 0.18237 0.29504 0.0
H648 H 0.41358 0.23997 0.3555 0.0
H649 H 0.42303 0.22423 0.36465 0.0
H650 H 0.38241 0.18915 0.33011 0.0
H651 H 0.37302 0.20481 0.32159 0.0
C652 C 0.41507 0.18652 0.44324 0.0
C653 C 0.41121 0.17425 0.41368 0.0
C654 C 0.41366 0.19723 0.41979 0.0
C655 C 0.40805 0.19572 0.36677 0.0
C656 C 0.40493 0.18378 0.33594 0.0
C657 C 0.40666 0.17317 0.35904 0.0
C658 C 0.40681 0.22894 0.34824 0.0
C659 C 0.39254 0.22353 0.33886 0.0
C660 C 0.41219 0.21996 0.35361 0.0
C661 C 0.40343 0.20549 0.34835 0.0
C662 C 0.38942 0.20026 0.33402 0.0
C663 C 0.38401 0.20919 0.32978 0.0
H664 H 0.82649 0.2283 0.35846 0.0
H665 H 0.84276 0.20565 0.44644 0.0
H666 H 0.80282 0.20926 0.37532 0.0
H667 H 0.81936 0.18661 0.46134 0.0
H668 H 0.76259 0.16571 0.38051 0.0
H669 H 0.78572 0.18476 0.35594 0.0
H670 H 0.8004 0.18341 0.51926 0.0
H671 H 0.77752 0.16432 0.54323 0.0
C672 C 0.82505 0.21917 0.38041 0.0
C673 C 0.83653 0.21853 0.40129 0.0
C674 C 0.81149 0.20826 0.38995 0.0
C675 C 0.80921 0.19653 0.42045 0.0
C676 C 0.82074 0.19565 0.43887 0.0
C677 C 0.83421 0.20654 0.42971 0.0
C678 C 0.77076 0.16958 0.41117 0.0
C679 C 0.76831 0.16343 0.46359 0.0
C680 C 0.78399 0.18049 0.39713 0.0
C681 C 0.79495 0.18545 0.43536 0.0
C682 C 0.79229 0.17959 0.48835 0.0
C683 C 0.77915 0.16869 0.50222 0.0
H684 H 0.9583 0.50215 0.34558 0.0
H685 H 0.91823 0.49788 0.3107 0.0
H686 H 0.94833 0.47698 0.33561 0.0
H687 H 0.90831 0.47267 0.29915 0.0
H688 H 0.91477 0.44062 0.17754 0.0
H689 H 0.91845 0.46267 0.21511 0.0
H690 H 0.92648 0.45137 0.37519 0.0
H691 H 0.92222 0.42895 0.3379 0.0
C692 C 0.9473 0.49577 0.33686 0.0
C693 C 0.93903 0.50188 0.32833 0.0
C694 C 0.94159 0.4814 0.33166 0.0
C695 C 0.92759 0.47299 0.31662 0.0
C696 C 0.91912 0.47899 0.31111 0.0
C697 C 0.92477 0.49335 0.31777 0.0
C698 C 0.91689 0.44268 0.2211 0.0
C699 C 0.91816 0.43315 0.255 0.0
C700 C 0.91893 0.45523 0.24259 0.0
C701 C 0.92266 0.45861 0.29798 0.0
C702 C 0.92347 0.44888 0.33247 0.0
C703 C 0.92101 0.4361 0.31124 0.0
H704 H 0.56478 0.47328 0.23362 0.0
H705 H 0.54747 0.50027 0.25235 0.0
H706 H 0.54163 0.45291 0.25096 0.0
H707 H 0.52467 0.48024 0.27023 0.0
H708 H 0.49448 0.4219 0.3162 0.0
H709 H 0.51904 0.44061 0.32117 0.0
H710 H 0.5115 0.46265 0.19165 0.0
H711 H 0.48753 0.44429 0.18602 0.0
C712 C 0.55612 0.47485 0.2431 0.0
C713 C 0.55772 0.48823 0.24045 0.0
C714 C 0.54295 0.46326 0.25315 0.0
C715 C 0.53138 0.46505 0.26094 0.0
C716 C 0.53339 0.47858 0.26341 0.0
C717 C 0.54641 0.49003 0.25291 0.0
C718 C 0.49816 0.43075 0.28881 0.0
C719 C 0.48899 0.43178 0.25162 0.0
C720 C 0.51215 0.44139 0.29164 0.0
C721 C 0.51701 0.45317 0.25761 0.0
C722 C 0.50793 0.45386 0.21936 0.0
C723 C 0.49415 0.44331 0.21628 0.0
H724 H 0.56233 0.06786 0.29408 0.0
H725 H 0.54421 0.04217 0.15003 0.0
H726 H 0.5399 0.06624 0.31468 0.0
H727 H 0.52202 0.04042 0.17108 0.0
H728 H 0.4815 0.02592 0.2564 0.0
H729 H 0.50465 0.02887 0.24951 0.0
H730 H 0.52264 0.07327 0.26919 0.0
H731 H 0.49916 0.07027 0.27513 0.0
C732 C 0.5536 0.06187 0.26691 0.0
C733 C 0.55499 0.05492 0.22096 0.0
C734 C 0.54081 0.06099 0.27866 0.0
C735 C 0.52921 0.05303 0.24494 0.0
C736 C 0.53073 0.04638 0.19845 0.0
C737 C 0.54346 0.04737 0.18645 0.0
C738 C 0.49033 0.03631 0.25885 0.0
C739 C 0.48854 0.04791 0.26422 0.0
C740 C 0.5036 0.038 0.25543 0.0
C741 C 0.5154 0.05132 0.25756 0.0
C742 C 0.51369 0.06288 0.26722 0.0
C743 C 0.5003 0.06117 0.27061 0.0
H744 H 0.45579 0.94974 0.80828 0.0
H745 H 0.43482 0.91879 0.68161 0.0
H746 H 0.47758 0.95084 0.78493 0.0
H747 H 0.45686 0.91969 0.65917 0.0
H748 H 0.49939 0.9183 0.70594 0.0
H749 H 0.47575 0.91493 0.71243 0.0
H750 H 0.49261 0.95921 0.69479 0.0
H751 H 0.51591 0.96249 0.68711 0.0
C752 C 0.45581 0.94321 0.77522 0.0
C753 C 0.44361 0.9344 0.74604 0.0
C754 C 0.46831 0.94382 0.76198 0.0
C755 C 0.4689 0.93549 0.71977 0.0
C756 C 0.45664 0.92625 0.69176 0.0
C757 C 0.44408 0.92577 0.70457 0.0
C758 C 0.49794 0.92722 0.70208 0.0
C759 C 0.50947 0.94071 0.69793 0.0
C760 C 0.48447 0.9253 0.70583 0.0
C761 C 0.48247 0.93687 0.70538 0.0
C762 C 0.49393 0.95017 0.69658 0.0
C763 C 0.50728 0.95206 0.69271 0.0
H764 H 0.0768 0.5574 0.82112 0.0
H765 H 0.06474 0.56725 0.66616 0.0
H766 H 0.07242 0.53509 0.78359 0.0
H767 H 0.05983 0.5446 0.62922 0.0
H768 H 0.02975 0.49405 0.66732 0.0
H769 H 0.03946 0.5192 0.67615 0.0
H770 H 0.08056 0.52463 0.69413 0.0
H771 H 0.07089 0.49945 0.68375 0.0
C772 C 0.07353 0.5549 0.77863 0.0
C773 C 0.07118 0.564 0.74632 0.0
C774 C 0.07107 0.5422 0.75716 0.0
C775 C 0.06587 0.53824 0.70356 0.0
C776 C 0.06397 0.54754 0.6705 0.0
C777 C 0.06682 0.56045 0.69151 0.0
C778 C 0.04088 0.50065 0.67174 0.0
C779 C 0.04957 0.49486 0.67541 0.0
C780 C 0.04644 0.51502 0.67633 0.0
C781 C 0.06072 0.52375 0.68587 0.0
C782 C 0.06952 0.51806 0.68652 0.0
C783 C 0.064 0.50371 0.68047 0.0
H784 H 0.43502 0.51588 0.76183 0.0
H785 H 0.43528 0.49396 0.61561 0.0
H786 H 0.45747 0.53573 0.7358 0.0
H787 H 0.45812 0.51372 0.59025 0.0
H788 H 0.50598 0.53932 0.65798 0.0
H789 H 0.48132 0.52189 0.65135 0.0
H790 H 0.47081 0.55446 0.65526 0.0
H791 H 0.4956 0.57199 0.66092 0.0
C792 C 0.43974 0.51554 0.72325 0.0
C793 C 0.43347 0.50357 0.69033 0.0
C794 C 0.45254 0.52687 0.7083 0.0
C795 C 0.45946 0.52622 0.66099 0.0
C796 C 0.4529 0.51446 0.6267 0.0
C797 C 0.43987 0.50324 0.64097 0.0
C798 C 0.49842 0.54276 0.65649 0.0
C799 C 0.50263 0.55694 0.66089 0.0
C800 C 0.48434 0.53281 0.65199 0.0
C801 C 0.47422 0.53688 0.65287 0.0
C802 C 0.47846 0.55111 0.65435 0.0
C803 C 0.49259 0.56109 0.65756 0.0
H804 H 0.6228 0.82345 0.68223 0.0
H805 H 0.58331 0.82153 0.65998 0.0
H806 H 0.61129 0.79815 0.67903 0.0
H807 H 0.57167 0.79604 0.65663 0.0
H808 H 0.5709 0.76119 0.53444 0.0
H809 H 0.57497 0.78282 0.57677 0.0
H810 H 0.59322 0.77447 0.71815 0.0
H811 H 0.58888 0.75258 0.67583 0.0
C812 C 0.61161 0.81758 0.67776 0.0
C813 C 0.60397 0.82439 0.67009 0.0
C814 C 0.60498 0.80308 0.67673 0.0
C815 C 0.59059 0.79513 0.6672 0.0
C816 C 0.58278 0.80193 0.66389 0.0
C817 C 0.58942 0.81648 0.66591 0.0
C818 C 0.57521 0.76369 0.57561 0.0
C819 C 0.57959 0.75529 0.60194 0.0
C820 C 0.57751 0.77605 0.59997 0.0
C821 C 0.5845 0.78036 0.6506 0.0
C822 C 0.58782 0.77137 0.67907 0.0
C823 C 0.58526 0.75882 0.65508 0.0
H824 H 0.15967 0.7661 0.66094 0.0
H825 H 0.15022 0.78378 0.52037 0.0
H826 H 0.18301 0.78671 0.66547 0.0
H827 H 0.17326 0.80397 0.52434 0.0
H828 H 0.20935 0.84428 0.56976 0.0
H829 H 0.18641 0.82404 0.58203 0.0
H830 H 0.20514 0.79864 0.61321 0.0
H831 H 0.22828 0.81919 0.60186 0.0
C832 C 0.16256 0.77436 0.63111 0.0
C833 C 0.15305 0.77341 0.59078 0.0
C834 C 0.17591 0.78611 0.63361 0.0
C835 C 0.1799 0.79707 0.59581 0.0
C836 C 0.17041 0.79592 0.55508 0.0
C837 C 0.15717 0.78428 0.55268 0.0
C838 C 0.20858 0.83439 0.57914 0.0
C839 C 0.22052 0.83318 0.58324 0.0
C840 C 0.19544 0.82279 0.58639 0.0
C841 C 0.19394 0.80966 0.59722 0.0
C842 C 0.20595 0.80861 0.60485 0.0
C843 C 0.21917 0.82033 0.5982 0.0
H844 H 0.23079 0.41601 0.62527 0.0
H845 H 0.2026 0.37224 0.65241 0.0
H846 H 0.21113 0.42032 0.62898 0.0
H847 H 0.18308 0.37658 0.65744 0.0
H848 H 0.15207 0.39152 0.6928 0.0
H849 H 0.17408 0.39224 0.71459 0.0
H850 H 0.18975 0.40896 0.55319 0.0
H851 H 0.16767 0.40772 0.53086 0.0
C852 C 0.22045 0.4074 0.63345 0.0
C853 C 0.21811 0.39377 0.63767 0.0
C854 C 0.20926 0.40986 0.63557 0.0
C855 C 0.19567 0.39877 0.64363 0.0
C856 C 0.1935 0.3853 0.65167 0.0
C857 C 0.20462 0.3828 0.64814 0.0
C858 C 0.16042 0.39574 0.66284 0.0
C859 C 0.15834 0.39966 0.61038 0.0
C860 C 0.17292 0.39609 0.67514 0.0
C861 C 0.18356 0.40073 0.6356 0.0
C862 C 0.18176 0.40552 0.58455 0.0
C863 C 0.16916 0.40479 0.57176 0.0
H864 H 0.02389 0.24161 0.13158 0.0
H865 H 0.03438 0.26931 0.9923 0.0
H866 H -0.00047 0.22992 0.10463 0.0
H867 H 0.00992 0.25787 0.96624 0.0
H868 H 0.9692 0.22219 0.89717 0.0
H869 H 0.99316 0.23585 0.92789 0.0
H870 H 0.97911 0.23214 0.0962 0.0
H871 H 0.95505 0.21807 0.06549 0.0
C872 C 0.02097 0.24533 0.0956 0.0
C873 C 0.03108 0.2563 0.06377 0.0
C874 C 0.00698 0.23868 0.08036 0.0
C875 C 0.00277 0.24291 0.03311 0.0
C876 C 0.01284 0.2542 0.00231 0.0
C877 C 0.02685 0.2608 0.01739 0.0
C878 C 0.97119 0.22433 0.94074 0.0
C879 C 0.96022 0.21897 0.97895 0.0
C880 C 0.98495 0.23226 0.95832 0.0
C881 C 0.98807 0.23511 0.01452 0.0
C882 C 0.97707 0.22998 0.05268 0.0
C883 C 0.96328 0.22196 0.03508 0.0
H884 H 0.75748 0.73099 0.04064 0.0
H885 H 0.73815 0.71602 0.88194 0.0
H886 H 0.74064 0.73823 0.06198 0.0
H887 H 0.72098 0.72288 0.90401 0.0
H888 H 0.71009 0.75788 0.92901 0.0
H889 H 0.7218 0.74476 0.91051 0.0
H890 H 0.71714 0.73224 0.08118 0.0
H891 H 0.70577 0.74578 0.10008 0.0
C892 C 0.74944 0.72895 0.01076 0.0
C893 C 0.74929 0.72312 0.95927 0.0
C894 C 0.7397 0.73303 0.02315 0.0
C895 C 0.72951 0.73127 0.98448 0.0
C896 C 0.72885 0.72464 0.9343 0.0
C897 C 0.73865 0.72064 0.92176 0.0
C898 C 0.71135 0.75215 0.96246 0.0
C899 C 0.70718 0.75305 0.01619 0.0
C900 C 0.71801 0.74453 0.95177 0.0
C901 C 0.72056 0.73754 0.99448 0.0
C902 C 0.71559 0.73773 0.04755 0.0
C903 C 0.70899 0.74542 0.05831 0.0
H904 H 0.22009 0.97727 0.11982 0.0
H905 H 0.24604 0.97157 0.0021 0.0
H906 H 0.23322 0.0023 0.10417 0.0
H907 H 0.25924 0.99677 0.98665 0.0
H908 H 0.28725 0.04475 0.02377 0.0
H909 H 0.27535 0.01957 0.04105 0.0
H910 H 0.23564 0.0174 0.0217 0.0
H911 H 0.24737 0.0423 0.00426 0.0
C912 C 0.22862 0.98136 0.09067 0.0
C913 C 0.23197 0.97243 0.06192 0.0
C914 C 0.23611 0.99569 0.08167 0.0
C915 C 0.24721 0.00144 0.04413 0.0
C916 C 0.25078 0.99259 0.01609 0.0
C917 C 0.24316 0.97818 0.02464 0.0
C918 C 0.27599 0.03886 0.0233 0.0
C919 C 0.26825 0.0455 0.01273 0.0
C920 C 0.2692 0.02448 0.03287 0.0
C921 C 0.25459 0.01659 0.0329 0.0
C922 C 0.24691 0.02326 0.02247 0.0
C923 C 0.25365 0.03752 0.01223 0.0
H924 H 0.96389 0.74456 0.8631 0.0
H925 H 0.95559 0.74128 0.03791 0.0
H926 H 0.98884 0.75701 0.8817 0.0
H927 H 0.98047 0.75392 0.05633 0.0
H928 H 0.02532 0.76528 0.07383 0.0
H929 H 0.00086 0.75124 0.04971 0.0
H930 H 0.00663 0.77968 0.91754 0.0
H931 H 0.03125 0.79364 0.941 0.0
C932 C 0.96738 0.74648 0.90547 0.0
C933 C 0.95776 0.74195 0.94904 0.0
C934 C 0.98167 0.75367 0.91607 0.0
C935 C 0.98663 0.75645 0.97045 0.0
C936 C 0.97699 0.75178 0.01397 0.0
C937 C 0.96272 0.7446 0.0034 0.0
C938 C 0.02142 0.76851 0.03936 0.0
C939 C 0.03021 0.78065 0.00959 0.0
C940 C 0.00737 0.76049 0.02574 0.0
C941 C 0.00177 0.76442 0.98209 0.0
C942 C 0.01065 0.77632 0.95116 0.0
C943 C 0.02474 0.78436 0.96477 0.0
H944 H 0.26835 0.23326 0.96258 0.0
H945 H 0.26486 0.24618 0.79842 0.0
H946 H 0.26079 0.2485 0.00091 0.0
H947 H 0.25787 0.26207 0.83712 0.0
H948 H 0.22375 0.26807 0.92128 0.0
H949 H 0.23729 0.25906 0.87754 0.0
H950 H 0.26395 0.27053 0.02068 0.0
H951 H 0.24987 0.27893 0.06555 0.0
C952 C 0.26632 0.23964 0.93462 0.0
C953 C 0.26696 0.2383 0.87733 0.0
C954 C 0.26207 0.24852 0.95674 0.0
C955 C 0.25852 0.25643 0.92219 0.0
C956 C 0.26019 0.25588 0.86495 0.0
C957 C 0.2643 0.24685 0.84273 0.0
C958 C 0.23261 0.26883 0.94318 0.0
C959 C 0.2356 0.27398 0.99724 0.0
C960 C 0.24049 0.26377 0.91784 0.0
C961 C 0.25168 0.26392 0.94567 0.0
C962 C 0.25521 0.26994 0.99846 0.0
C963 C 0.24719 0.27481 0.02414 0.0
H964 H 0.74519 0.02616 0.01235 0.0
H965 H 0.77661 0.03768 0.13804 0.0
H966 H 0.73417 0.00199 0.04249 0.0
H967 H 0.76587 0.01352 0.16704 0.0
H968 H 0.74007 0.97024 0.2307 0.0
H969 H 0.74624 0.99412 0.20924 0.0
H970 H 0.73951 0.98362 0.0364 0.0
H971 H 0.73296 0.95972 0.05798 0.0
C972 C 0.74971 0.02355 0.0466 0.0
C973 C 0.76185 0.03383 0.07249 0.0
C974 C 0.74342 0.00969 0.06372 0.0
C975 C 0.74918 0.00577 0.10693 0.0
C976 C 0.76104 0.01616 0.1341 0.0
C977 C 0.76727 0.03003 0.11719 0.0
C978 C 0.73969 0.97298 0.18821 0.0
C979 C 0.73617 0.96311 0.14599 0.0
C980 C 0.74331 0.98669 0.17588 0.0
C981 C 0.74354 0.99085 0.12104 0.0
C982 C 0.73933 0.98078 0.07915 0.0
C983 C 0.73564 0.96707 0.09151 0.0
H984 H 0.62811 0.54089 0.36187 0.0
H985 H 0.63615 0.55971 0.20048 0.0
H986 H 0.65203 0.55709 0.38858 0.0
H987 H 0.65993 0.5762 0.22773 0.0
H988 H 0.70532 0.59108 0.27336 0.0
H989 H 0.68114 0.57643 0.24674 0.0
H990 H 0.6681 0.58104 0.40928 0.0
H991 H 0.69238 0.59537 0.43649 0.0
C992 C 0.63495 0.54856 0.33225 0.0
C993 C 0.63026 0.54895 0.27895 0.0
C994 C 0.64864 0.55793 0.34769 0.0
C995 C 0.65792 0.56795 0.31029 0.0
C996 C 0.65313 0.56847 0.25727 0.0
C997 C 0.63948 0.55905 0.24172 0.0
C998 C 0.6973 0.58906 0.30334 0.0
C999 C 0.70078 0.59431 0.35716 0.0
C1000 C 0.68341 0.58071 0.28796 0.0
C1001 C 0.67266 0.5775 0.32593 0.0
C1002 C 0.67613 0.5831 0.37931 0.0
C1003 C 0.69005 0.5914 0.3948 0.0
H1004 H 0.42045 0.0506 0.36141 0.0
H1005 H 0.42802 0.07425 0.21143 0.0
H1006 H 0.40907 0.06259 0.40106 0.0
H1007 H 0.41709 0.08646 0.25136 0.0
H1008 H 0.38937 0.10098 0.31804 0.0
H1009 H 0.39577 0.08455 0.28102 0.0
H1010 H 0.41557 0.08537 0.43525 0.0
H1011 H 0.40873 0.10145 0.47282 0.0
C1012 C 0.41964 0.05831 0.33683 0.0
C1013 C 0.42519 0.06151 0.28334 0.0
C1014 C 0.41317 0.06523 0.35965 0.0
C1015 C 0.41216 0.07552 0.32949 0.0
C1016 C 0.41744 0.07844 0.27553 0.0
C1017 C 0.42383 0.0715 0.25271 0.0
C1018 C 0.39489 0.09748 0.34433 0.0
C1019 C 0.39868 0.10264 0.39814 0.0
C1020 C 0.39865 0.08812 0.323 0.0
C1021 C 0.4064 0.0838 0.35479 0.0
C1022 C 0.40952 0.08839 0.40966 0.0
C1023 C 0.40565 0.09766 0.43118 0.0
H1024 H 0.89978 0.29897 0.37009 0.0
H1025 H 0.87924 0.28271 0.21425 0.0
H1026 H 0.90667 0.32246 0.33992 0.0
H1027 H 0.88647 0.30627 0.18346 0.0
H1028 H 0.88567 0.34723 0.17863 0.0
H1029 H 0.88047 0.32388 0.20377 0.0
H1030 H 0.92121 0.34084 0.2774 0.0
H1031 H 0.92626 0.36426 0.25359 0.0
C1032 C 0.89691 0.30042 0.32905 0.0
C1033 C 0.88886 0.28896 0.29472 0.0
C1034 C 0.90093 0.31391 0.31164 0.0
C1035 C 0.89704 0.31625 0.25939 0.0
C1036 C 0.88941 0.30481 0.22434 0.0
C1037 C 0.88534 0.29131 0.24185 0.0
C1038 C 0.89353 0.34598 0.20007 0.0
C1039 C 0.90635 0.3576 0.21433 0.0
C1040 C 0.89059 0.33258 0.21413 0.0
C1041 C 0.90044 0.33048 0.24253 0.0
C1042 C 0.91333 0.3421 0.25617 0.0
C1043 C 0.91624 0.35552 0.24232 0.0
H1044 H 0.70898 0.11209 0.28748 0.0
H1045 H 0.68729 0.09946 0.44312 0.0
H1046 H 0.68679 0.10045 0.23902 0.0
H1047 H 0.66514 0.08815 0.39478 0.0
H1048 H 0.62795 0.0592 0.29196 0.0
H1049 H 0.65063 0.06878 0.33577 0.0
H1050 H 0.66712 0.10388 0.22468 0.0
H1051 H 0.64453 0.09412 0.17985 0.0
C1052 C 0.69948 0.10682 0.31135 0.0
C1053 C 0.69988 0.10675 0.36913 0.0
C1054 C 0.68677 0.10021 0.28358 0.0
C1055 C 0.6742 0.09344 0.31304 0.0
C1056 C 0.67463 0.09313 0.37082 0.0
C1057 C 0.68734 0.09968 0.39856 0.0
C1058 C 0.63643 0.06893 0.27668 0.0
C1059 C 0.63443 0.07595 0.23264 0.0
C1060 C 0.64941 0.07444 0.30196 0.0
C1061 C 0.66066 0.08712 0.28392 0.0
C1062 C 0.65872 0.094 0.23914 0.0
C1063 C 0.64575 0.08845 0.21367 0.0
H1064 H 0.92004 0.61648 0.45135 0.0
H1065 H 0.90083 0.60339 0.29138 0.0
H1066 H 0.936 0.6081 0.42875 0.0
H1067 H 0.91649 0.59466 0.2694 0.0
H1068 H 0.95107 0.58635 0.22993 0.0
H1069 H 0.93992 0.60001 0.25065 0.0
H1070 H 0.93388 0.5856 0.41903 0.0
H1071 H 0.94534 0.5723 0.39875 0.0
C1072 C 0.91929 0.61191 0.4112 0.0
C1073 C 0.90907 0.61048 0.37335 0.0
C1074 C 0.92839 0.60704 0.39836 0.0
C1075 C 0.92745 0.60058 0.34748 0.0
C1076 C 0.91762 0.59971 0.30875 0.0
C1077 C 0.90857 0.60464 0.32148 0.0
C1078 C 0.94755 0.58627 0.27158 0.0
C1079 C 0.94898 0.57813 0.31256 0.0
C1080 C 0.94108 0.59404 0.28336 0.0
C1081 C 0.93587 0.5938 0.33635 0.0
C1082 C 0.93789 0.58616 0.37791 0.0
C1083 C 0.9444 0.57845 0.36619 0.0
H1084 H 0.41681 0.359 0.24677 0.0
H1085 H 0.42361 0.36647 0.42156 0.0
H1086 H 0.4047 0.33408 0.26299 0.0
H1087 H 0.41097 0.34143 0.43811 0.0
H1088 H 0.40677 0.29815 0.43718 0.0
H1089 H 0.41545 0.32286 0.42564 0.0
H1090 H 0.38494 0.31394 0.29819 0.0
H1091 H 0.37655 0.28908 0.30851 0.0
C1092 C 0.41548 0.35533 0.28884 0.0
C1093 C 0.42134 0.36474 0.33285 0.0
C1094 C 0.40843 0.34098 0.29818 0.0
C1095 C 0.40695 0.33569 0.35184 0.0
C1096 C 0.41218 0.34513 0.39612 0.0
C1097 C 0.41935 0.35949 0.38671 0.0
C1098 C 0.40184 0.30143 0.40685 0.0
C1099 C 0.39103 0.29164 0.37348 0.0
C1100 C 0.40675 0.31564 0.40057 0.0
C1101 C 0.4009 0.32046 0.36104 0.0
C1102 C 0.38983 0.31063 0.32853 0.0
C1103 C 0.38498 0.29637 0.33455 0.0
H1104 H 0.28932 0.87521 0.72899 0.0
H1105 H 0.30364 0.898 0.57626 0.0
H1106 H 0.31304 0.8873 0.76424 0.0
H1107 H 0.32726 0.91041 0.61212 0.0
H1108 H 0.36951 0.91738 0.66834 0.0
H1109 H 0.34575 0.90603 0.63411 0.0
H1110 H 0.33123 0.90963 0.79507 0.0
H1111 H 0.35499 0.9206 0.82978 0.0
C1112 C 0.29751 0.88289 0.70313 0.0
C1113 C 0.29462 0.88559 0.64974 0.0
C1114 C 0.3111 0.88989 0.72347 0.0
C1115 C 0.32206 0.89981 0.69096 0.0
C1116 C 0.31911 0.90266 0.63788 0.0
C1117 C 0.30555 0.89559 0.61743 0.0
C1118 C 0.36126 0.91578 0.69641 0.0
C1119 C 0.36412 0.91984 0.75182 0.0
C1120 C 0.34763 0.90935 0.6767 0.0
C1121 C 0.33658 0.90692 0.71183 0.0
C1122 C 0.33948 0.91115 0.76712 0.0
C1123 C 0.35311 0.91751 0.78694 0.0
H1124 H 0.04727 0.42508 0.62072 0.0
H1125 H 0.04349 0.41467 0.79362 0.0
H1126 H 0.05983 0.41261 0.60572 0.0
H1127 H 0.05578 0.40187 0.7783 0.0
H1128 H 0.09647 0.40104 0.7397 0.0
H1129 H 0.07959 0.40843 0.75853 0.0
H1130 H 0.05904 0.39054 0.60421 0.0
H1131 H 0.07616 0.38346 0.58468 0.0
C1132 C 0.04888 0.4199 0.65537 0.0
C1133 C 0.04453 0.42102 0.70848 0.0
C1134 C 0.05602 0.41266 0.6467 0.0
C1135 C 0.05891 0.40631 0.6909 0.0
C1136 C 0.05393 0.40684 0.74355 0.0
C1137 C 0.04682 0.41412 0.75225 0.0
C1138 C 0.08824 0.3985 0.71013 0.0
C1139 C 0.08778 0.39184 0.66036 0.0
C1140 C 0.07849 0.40267 0.72108 0.0
C1141 C 0.06803 0.4002 0.68261 0.0
C1142 C 0.06712 0.39284 0.63422 0.0
C1143 C 0.0769 0.38872 0.62317 0.0
H1144 H 0.5654 0.63749 0.76851 0.0
H1145 H 0.57658 0.62546 0.61614 0.0
H1146 H 0.57711 0.66156 0.7383 0.0
H1147 H 0.58876 0.64973 0.58649 0.0
H1148 H 0.5879 0.68901 0.52464 0.0
H1149 H 0.58189 0.66582 0.55541 0.0
H1150 H 0.5983 0.68215 0.71683 0.0
H1151 H 0.60387 0.70531 0.68646 0.0
C1152 C 0.5706 0.64002 0.72897 0.0
C1153 C 0.5699 0.62953 0.69445 0.0
C1154 C 0.57743 0.65388 0.71175 0.0
C1155 C 0.58383 0.65761 0.65974 0.0
C1156 C 0.58374 0.64719 0.62638 0.0
C1157 C 0.57682 0.63329 0.64349 0.0
C1158 C 0.59045 0.68771 0.56643 0.0
C1159 C 0.59615 0.69896 0.60336 0.0
C1160 C 0.58707 0.67439 0.58406 0.0
C1161 C 0.58944 0.67206 0.63888 0.0
C1162 C 0.59604 0.68352 0.6747 0.0
C1163 C 0.5993 0.69681 0.6572 0.0
H1164 H 0.36697 0.44423 0.57662 0.0
H1165 H 0.36061 0.42693 0.74044 0.0
H1166 H 0.34233 0.42929 0.55695 0.0
H1167 H 0.33603 0.41168 0.72021 0.0
H1168 H 0.29155 0.40363 0.69096 0.0
H1169 H 0.31641 0.41506 0.7089 0.0
H1170 H 0.32345 0.40593 0.54293 0.0
H1171 H 0.29857 0.39481 0.52448 0.0
C1172 C 0.36036 0.43705 0.60808 0.0
C1173 C 0.3657 0.4369 0.66031 0.0
C1174 C 0.34624 0.42842 0.59671 0.0
C1175 C 0.33718 0.41938 0.63722 0.0
C1176 C 0.34268 0.41873 0.6885 0.0
C1177 C 0.35678 0.42741 0.69997 0.0
C1178 C 0.29838 0.40396 0.65841 0.0
C1179 C 0.29311 0.39843 0.60615 0.0
C1180 C 0.31264 0.41043 0.66881 0.0
C1181 C 0.32194 0.41144 0.62729 0.0
C1182 C 0.3166 0.40551 0.57554 0.0
C1183 C 0.30233 0.39909 0.56505 0.0
H1184 H 0.62043 0.90474 0.6243 0.0
H1185 H 0.60347 0.88765 0.78424 0.0
H1186 H 0.6108 0.92026 0.63128 0.0
H1187 H 0.59368 0.90292 0.79069 0.0
H1188 H 0.5863 0.93885 0.80808 0.0
H1189 H 0.59963 0.92696 0.80007 0.0
H1190 H 0.58763 0.91797 0.62928 0.0
H1191 H 0.57446 0.93017 0.63699 0.0
C1192 C 0.61478 0.90439 0.66117 0.0
C1193 C 0.61268 0.89492 0.70366 0.0
C1194 C 0.60917 0.9132 0.66494 0.0
C1195 C 0.60142 0.91279 0.7114 0.0
C1196 C 0.59973 0.90364 0.7546 0.0
C1197 C 0.6053 0.89482 0.75079 0.0
C1198 C 0.58658 0.93444 0.76862 0.0
C1199 C 0.57919 0.93532 0.72329 0.0
C1200 C 0.59419 0.92758 0.76413 0.0
C1201 C 0.59457 0.92137 0.71425 0.0
C1202 C 0.58763 0.92273 0.66822 0.0
C1203 C 0.58003 0.92966 0.67267 0.0
H1204 H 0.07585 0.63934 0.789 0.0
H1205 H 0.05907 0.6215 0.62975 0.0
H1206 H 0.08222 0.66233 0.75414 0.0
H1207 H 0.06501 0.64445 0.59531 0.0
H1208 H 0.09585 0.68871 0.53596 0.0
H1209 H 0.08591 0.66516 0.571 0.0
H1210 H 0.07432 0.6776 0.72146 0.0
H1211 H 0.08473 0.70139 0.68689 0.0
C1212 C 0.07331 0.6403 0.74678 0.0
C1213 C 0.06711 0.62863 0.71193 0.0
C1214 C 0.07688 0.65348 0.72686 0.0
C1215 C 0.07422 0.65527 0.67177 0.0
C1216 C 0.06746 0.64349 0.63765 0.0
C1217 C 0.06399 0.63032 0.65745 0.0
C1218 C 0.09109 0.68642 0.57635 0.0
C1219 C 0.09118 0.69695 0.60881 0.0
C1220 C 0.08528 0.67286 0.59633 0.0
C1221 C 0.07932 0.66946 0.64913 0.0
C1222 C 0.07901 0.67991 0.68095 0.0
C1223 C 0.08491 0.69352 0.66103 0.0
H1224 H 0.12855 0.34149 0.6676 0.0
H1225 H 0.09946 0.35525 0.70969 0.0
H1226 H 0.12214 0.32742 0.75057 0.0
H1227 H 0.0931 0.34107 0.79335 0.0
H1228 H 0.0783 0.30315 0.91526 0.0
H1229 H 0.08214 0.31557 0.82762 0.0
H1230 H 0.12652 0.33442 0.85 0.0
H1231 H 0.12281 0.32219 0.93652 0.0
C1232 C 0.1207 0.34145 0.69424 0.0
C1233 C 0.11463 0.34964 0.68211 0.0
C1234 C 0.11707 0.3334 0.74192 0.0
C1235 C 0.10723 0.33327 0.77863 0.0
C1236 C 0.10068 0.34095 0.7656 0.0
C1237 C 0.10439 0.34911 0.71786 0.0
C1238 C 0.08886 0.30994 0.90136 0.0
C1239 C 0.10024 0.31164 0.93292 0.0
C1240 C 0.09104 0.31708 0.8514 0.0
C1241 C 0.10462 0.32585 0.83188 0.0
C1242 C 0.11593 0.32757 0.8636 0.0
C1243 C 0.11378 0.32061 0.91347 0.0
H1244 H 0.67801 0.77247 0.84647 0.0
H1245 H 0.66299 0.80132 0.8712 0.0
H1246 H 0.6655 0.76529 0.75886 0.0
H1247 H 0.65041 0.79399 0.7851 0.0
H1248 H 0.62583 0.74472 0.64648 0.0
H1249 H 0.6415 0.75251 0.72527 0.0
H1250 H 0.6539 0.7952 0.68705 0.0
H1251 H 0.63799 0.78744 0.60927 0.0
C1252 C 0.67209 0.77729 0.83331 0.0
C1253 C 0.67153 0.78747 0.86603 0.0
C1254 C 0.66488 0.77314 0.78322 0.0
C1255 C 0.65702 0.77913 0.76477 0.0
C1256 C 0.65657 0.78935 0.7974 0.0
C1257 C 0.66372 0.79348 0.84721 0.0
C1258 C 0.63202 0.75579 0.65442 0.0
C1259 C 0.63048 0.76543 0.62189 0.0
C1260 C 0.64107 0.76025 0.6995 0.0
C1261 C 0.64882 0.77447 0.71294 0.0
C1262 C 0.64786 0.78415 0.67855 0.0
C1263 C 0.63878 0.77969 0.63369 0.0
H1264 H 0.22151 0.92247 0.88108 0.0
H1265 H 0.22866 0.89041 0.94715 0.0
H1266 H 0.22878 0.91896 0.78983 0.0
H1267 H 0.2359 0.887 0.85687 0.0
H1268 H 0.25711 0.88956 0.69843 0.0
H1269 H 0.25451 0.89905 0.78524 0.0
H1270 H 0.21782 0.89846 0.72261 0.0
H1271 H 0.22038 0.88901 0.63555 0.0
C1272 C 0.22483 0.91485 0.8763 0.0
C1273 C 0.22441 0.90663 0.92108 0.0
C1274 C 0.22892 0.91281 0.82417 0.0
C1275 C 0.23292 0.90273 0.81637 0.0
C1276 C 0.23304 0.89496 0.86173 0.0
C1277 C 0.22877 0.89683 0.91336 0.0
C1278 C 0.24862 0.89167 0.70268 0.0
C1279 C 0.23882 0.88831 0.66025 0.0
C1280 C 0.24713 0.89708 0.75248 0.0
C1281 C 0.2359 0.89937 0.76077 0.0
C1282 C 0.22662 0.89688 0.71722 0.0
C1283 C 0.22804 0.89136 0.66751 0.0
H1284 H 0.3152 0.0922 0.15966 0.0
H1285 H 0.32904 0.13614 0.14868 0.0
H1286 H 0.32644 0.09609 0.24997 0.0
H1287 H 0.34026 0.13996 0.23736 0.0
H1288 H 0.35108 0.14327 0.41304 0.0
H1289 H 0.33527 0.13529 0.33487 0.0
H1290 H 0.35063 0.10793 0.28641 0.0
H1291 H 0.36626 0.11566 0.36539 0.0
C1292 C 0.32053 0.10264 0.17653 0.0
C1293 C 0.32126 0.11386 0.14671 0.0
C1294 C 0.327 0.10487 0.2281 0.0
C1295 C 0.33416 0.11832 0.25101 0.0
C1296 C 0.33463 0.12943 0.22151 0.0
C1297 C 0.32829 0.12724 0.17018 0.0
C1298 C 0.35094 0.13537 0.38637 0.0
C1299 C 0.36014 0.1303 0.39509 0.0
C1300 C 0.34191 0.13084 0.34138 0.0
C1301 C 0.34187 0.12116 0.30386 0.0
C1302 C 0.35037 0.11537 0.3146 0.0
C1303 C 0.3594 0.11988 0.35979 0.0
H1304 H 0.8897 0.21337 0.27717 0.0
H1305 H 0.88099 0.24453 0.21263 0.0
H1306 H 0.89642 0.20994 0.18572 0.0
H1307 H 0.8876 0.24088 0.12022 0.0
H1308 H 0.88086 0.21098 0.96481 0.0
H1309 H 0.87701 0.21937 0.05249 0.0
H1310 H 0.91561 0.2242 0.11456 0.0
H1311 H 0.91959 0.21598 0.02725 0.0
C1312 C 0.88926 0.21952 0.24343 0.0
C1313 C 0.88477 0.22919 0.25206 0.0
C1314 C 0.89321 0.21762 0.19114 0.0
C1315 C 0.89257 0.22518 0.14603 0.0
C1316 C 0.88816 0.23492 0.15443 0.0
C1317 C 0.88444 0.23703 0.2072 0.0
C1318 C 0.88865 0.21406 0.99677 0.0
C1319 C 0.90044 0.21261 0.98915 0.0
C1320 C 0.88647 0.21893 0.04683 0.0
C1321 C 0.89595 0.22229 0.09033 0.0
C1322 C 0.90807 0.22154 0.08179 0.0
C1323 C 0.91034 0.21685 0.03167 0.0
H1324 H 0.79064 0.65719 0.22332 0.0
H1325 H 0.74585 0.6369 0.21043 0.0
H1326 H 0.79294 0.66855 0.13546 0.0
H1327 H 0.74825 0.64843 0.12161 0.0
H1328 H 0.76338 0.688 0.00379 0.0
H1329 H 0.7581 0.67372 0.08678 0.0
H1330 H 0.78752 0.66117 0.03651 0.0
H1331 H 0.79286 0.67532 0.95409 0.0
C1332 C 0.78126 0.65513 0.20172 0.0
C1333 C 0.76805 0.64613 0.22397 0.0
C1334 C 0.7826 0.66157 0.15113 0.0
C1335 C 0.77077 0.6593 0.12158 0.0
C1336 C 0.75753 0.65037 0.14369 0.0
C1337 C 0.75617 0.64374 0.1943 0.0
C1338 C 0.76858 0.68204 0.01005 0.0
C1339 C 0.77868 0.68296 0.97251 0.0
C1340 C 0.7655 0.67383 0.05745 0.0
C1341 C 0.77252 0.66648 0.06828 0.0
C1342 C 0.7821 0.66689 0.02955 0.0
C1343 C 0.78512 0.67499 0.98221 0.0
H1344 H 0.8722 0.6842 0.12659 0.0
H1345 H 0.91644 0.70009 0.11298 0.0
H1346 H 0.87207 0.67431 0.21609 0.0
H1347 H 0.91622 0.6899 0.20306 0.0
H1348 H 0.89918 0.64974 0.32485 0.0
H1349 H 0.90396 0.66379 0.24135 0.0
H1350 H 0.88291 0.68398 0.31174 0.0
H1351 H 0.87821 0.67019 0.39491 0.0
C1352 C 0.88191 0.68562 0.14282 0.0
C1353 C 0.89432 0.69292 0.11276 0.0
C1354 C 0.88185 0.68002 0.19421 0.0
C1355 C 0.89415 0.68141 0.21646 0.0
C1356 C 0.90661 0.68871 0.18666 0.0
C1357 C 0.90673 0.69457 0.13541 0.0
C1358 C 0.89585 0.6574 0.32305 0.0
C1359 C 0.88811 0.65865 0.36632 0.0
C1360 C 0.89862 0.66545 0.2753 0.0
C1361 C 0.89362 0.6748 0.27001 0.0
C1362 C 0.88671 0.6767 0.31459 0.0
C1363 C 0.88405 0.66878 0.36226 0.0
H1364 H 0.31614 0.19216 0.94344 0.0
H1365 H 0.30121 0.21993 0.99172 0.0
H1366 H 0.33224 0.20029 0.02069 0.0
H1367 H 0.31711 0.2278 0.0698 0.0
H1368 H 0.35281 0.24398 0.1944 0.0
H1369 H 0.3412 0.23975 0.10482 0.0
H1370 H 0.32813 0.19607 0.11818 0.0
H1371 H 0.33976 0.20024 0.20605 0.0
C1372 C 0.31639 0.20011 0.9701 0.0
C1373 C 0.30722 0.20523 0.96172 0.0
C1374 C 0.32559 0.20473 0.01458 0.0
C1375 C 0.3258 0.21453 0.05197 0.0
C1376 C 0.31727 0.2203 0.04167 0.0
C1377 C 0.30809 0.21572 0.99698 0.0
C1378 C 0.34756 0.23352 0.17784 0.0
C1379 C 0.34717 0.22245 0.20765 0.0
C1380 C 0.34088 0.23109 0.12667 0.0
C1381 C 0.3338 0.21758 0.1042 0.0
C1382 C 0.33369 0.20664 0.13365 0.0
C1383 C 0.34027 0.20903 0.18453 0.0
H1384 H 0.78803 0.11953 0.11138 0.0
H1385 H 0.75929 0.07556 0.13291 0.0
H1386 H 0.78287 0.12399 0.20405 0.0
H1387 H 0.75398 0.08016 0.22608 0.0
H1388 H 0.73759 0.10206 0.35361 0.0
H1389 H 0.74257 0.09458 0.2659 0.0
H1390 H 0.78645 0.11728 0.3029 0.0
H1391 H 0.78159 0.12468 0.39053 0.0
C1392 C 0.78059 0.11081 0.13588 0.0
C1393 C 0.77404 0.09719 0.1148 0.0
C1394 C 0.77772 0.11337 0.18905 0.0
C1395 C 0.76808 0.10241 0.22209 0.0
C1396 C 0.76144 0.08877 0.2012 0.0
C1397 C 0.76451 0.08615 0.14813 0.0
C1398 C 0.74828 0.1053 0.34338 0.0
C1399 C 0.7592 0.11405 0.37892 0.0
C1400 C 0.7511 0.10096 0.29336 0.0
C1401 C 0.76489 0.10544 0.27773 0.0
C1402 C 0.77574 0.11378 0.31396 0.0
C1403 C 0.77293 0.11796 0.36419 0.0
H1404 H 0.64845 0.88434 0.80093 0.0
H1405 H 0.66042 0.85287 0.78622 0.0
H1406 H 0.66129 0.89208 0.88792 0.0
H1407 H 0.67326 0.86069 0.87149 0.0
H1408 H 0.68575 0.86854 0.0464 0.0
H1409 H 0.66964 0.86097 0.96937 0.0
H1410 H 0.68573 0.90378 0.92079 0.0
H1411 H 0.70171 0.91143 -0.00112 0.0
C1412 C 0.65375 0.87905 0.8162 0.0
C1413 C 0.65339 0.86798 0.78642 0.0
C1414 C 0.66115 0.88352 0.86587 0.0
C1415 C 0.66822 0.87694 0.88687 0.0
C1416 C 0.66772 0.86583 0.85719 0.0
C1417 C 0.66042 0.86142 0.80782 0.0
C1418 C 0.68576 0.87638 0.01982 0.0
C1419 C 0.69517 0.89059 0.02852 0.0
C1420 C 0.67654 0.87203 0.97545 0.0
C1421 C 0.67655 0.88176 0.93838 0.0
C1422 C 0.68541 0.89602 0.9487 0.0
C1423 C 0.69462 0.9004 0.99337 0.0
H1424 H 0.1224 0.79083 0.71791 0.0
H1425 H 0.09297 0.74717 0.74345 0.0
H1426 H 0.11707 0.79613 0.80876 0.0
H1427 H 0.08753 0.75263 0.83492 0.0
H1428 H 0.07229 0.77569 0.96161 0.0
H1429 H 0.07669 0.76779 0.87359 0.0
H1430 H 0.12072 0.78982 0.90796 0.0
H1431 H 0.11645 0.79762 0.99567 0.0
C1432 C 0.11474 0.78235 0.74281 0.0
C1433 C 0.10811 0.76856 0.72346 0.0
C1434 C 0.11177 0.7854 0.79496 0.0
C1435 C 0.10195 0.77478 0.82876 0.0
C1436 C 0.09513 0.761 0.80942 0.0
C1437 C 0.09828 0.75789 0.75733 0.0
C1438 C 0.08289 0.77874 0.9506 0.0
C1439 C 0.09402 0.78737 0.98553 0.0
C1440 C 0.08538 0.77415 0.90044 0.0
C1441 C 0.09904 0.77828 0.88407 0.0
C1442 C 0.1101 0.78659 0.91954 0.0
C1443 C 0.10762 0.79101 0.96983 0.0
H1444 H 0.206 0.33039 0.03981 0.0
H1445 H 0.23014 0.31211 0.98142 0.0
H1446 H 0.21139 0.34403 0.95576 0.0
H1447 H 0.23551 0.32588 0.89711 0.0
H1448 H 0.24928 0.36163 0.76798 0.0
H1449 H 0.24744 0.35122 0.85892 0.0
H1450 H 0.20314 0.33542 0.85842 0.0
H1451 H 0.20488 0.34563 0.76822 0.0
C1452 C 0.21264 0.32942 0.00953 0.0
C1453 C 0.21749 0.32 0.01716 0.0
C1454 C 0.21567 0.33722 0.9613 0.0
C1455 C 0.22373 0.33588 0.9198 0.0
C1456 C 0.22931 0.32713 0.92862 0.0
C1457 C 0.22617 0.31921 0.97679 0.0
C1458 C 0.23918 0.35599 0.78751 0.0
C1459 C 0.22722 0.35441 0.76087 0.0
C1460 C 0.23813 0.35001 0.83934 0.0
C1461 C 0.22517 0.34261 0.8657 0.0
C1462 C 0.21329 0.34122 0.83933 0.0
C1463 C 0.21429 0.34698 0.78745 0.0
H1464 H 0.01868 0.44683 0.51184 0.0
H1465 H 0.98221 0.44407 0.58804 0.0
H1466 H 0.00589 0.43865 0.42448 0.0
H1467 H 0.96945 0.4356 0.50181 0.0
H1468 H 0.94757 0.40892 0.35175 0.0
H1469 H 0.96167 0.41355 0.43479 0.0
H1470 H 0.99453 0.4509 0.36072 0.0
H1471 H 0.98037 0.44649 0.27792 0.0
C1472 C 0.0079 0.44428 0.51009 0.0
C1473 C 0.00144 0.44616 0.55642 0.0
C1474 C 0.00063 0.43965 0.4603 0.0
C1475 C 0.98671 0.43646 0.4568 0.0
C1476 C 0.98014 0.43787 0.50369 0.0
C1477 C 0.98747 0.4428 0.55282 0.0
C1478 C 0.9579 0.41799 0.35274 0.0
C1479 C 0.96283 0.42742 0.30853 0.0
C1480 C 0.96593 0.42063 0.40025 0.0
C1481 C 0.97914 0.43256 0.40389 0.0
C1482 C 0.98441 0.44157 0.3586 0.0
C1483 C 0.97627 0.43909 0.31149 0.0
H1484 H 0.58729 0.54067 0.35401 0.0
H1485 H 0.55345 0.54354 0.27938 0.0
H1486 H 0.58394 0.55032 0.4395 0.0
H1487 H 0.55027 0.55331 0.36446 0.0
H1488 H 0.55407 0.57843 0.51946 0.0
H1489 H 0.56278 0.57433 0.43271 0.0
H1490 H 0.56235 0.5385 0.50435 0.0
H1491 H 0.5535 0.54241 0.59029 0.0
C1492 C 0.57935 0.54364 0.35546 0.0
C1493 C 0.57052 0.5412 0.3103 0.0
C1494 C 0.57743 0.54911 0.40434 0.0
C1495 C 0.56683 0.5525 0.4084 0.0
C1496 C 0.55858 0.55088 0.36218 0.0
C1497 C 0.56034 0.54519 0.3137 0.0
C1498 C 0.55602 0.5698 0.51677 0.0
C1499 C 0.55298 0.56065 0.56132 0.0
C1500 C 0.56097 0.56746 0.46726 0.0
C1501 C 0.56326 0.55614 0.46212 0.0
C1502 C 0.56082 0.54739 0.50749 0.0
C1503 C 0.55563 0.54956 0.55644 0.0
H1504 H 0.40949 0.96324 0.62217 0.0
H1505 H 0.45423 0.9833 0.63725 0.0
H1506 H 0.41221 0.9746 0.53269 0.0
H1507 H 0.45683 0.99438 0.54821 0.0
H1508 H 0.45439 0.99505 0.36048 0.0
H1509 H 0.4496 0.98349 0.44926 0.0
H1510 H 0.42411 0.00122 0.49433 0.0
H1511 H 0.42902 0.01308 0.40494 0.0
C1512 C 0.41987 0.97005 0.60649 0.0
C1513 C 0.43164 0.97233 0.63671 0.0
C1514 C 0.4214 0.97659 0.55558 0.0
C1515 C 0.43472 0.98528 0.53373 0.0
C1516 C 0.44645 0.98764 0.5641 0.0
C1517 C 0.44494 0.98132 0.61516 0.0
C1518 C 0.44766 0.99645 0.38889 0.0
C1519 C 0.44214 0.00507 0.37563 0.0
C1520 C 0.44498 0.98985 0.43984 0.0
C1521 C 0.43658 0.99156 0.47853 0.0
C1522 C 0.43061 -0.00026 0.46493 0.0
C1523 C 0.43347 0.00656 0.414 0.0
H1524 H 0.57078 0.97619 0.55101 0.0
H1525 H 0.53739 0.98532 0.56897 0.0
H1526 H 0.57577 0.98683 0.45879 0.0
H1527 H 0.54226 0.99565 0.47792 0.0
H1528 H 0.54449 -0.00029 0.29429 0.0
H1529 H 0.54081 0.98667 0.37909 0.0
H1530 H 0.58416 0.0125 0.42094 0.0
H1531 H 0.58797 0.02572 0.33573 0.0
C1532 C 0.56448 0.98036 0.5352 0.0
C1533 C 0.55374 0.97999 0.56727 0.0
C1534 C 0.56736 0.98648 0.48274 0.0
C1535 C 0.55933 0.99197 0.46134 0.0
C1536 C 0.54851 0.99136 0.49319 0.0
C1537 C 0.5458 0.98553 0.54554 0.0
C1538 C 0.55331 0.00257 0.32108 0.0
C1539 C 0.56649 0.0139 0.30847 0.0
C1540 C 0.55118 0.99507 0.36965 0.0
C1541 C 0.56218 -0.00135 0.40654 0.0
C1542 C 0.57553 0.00951 0.39292 0.0
C1543 C 0.57766 0.01713 0.3444 0.0
H1544 H 0.98126 0.56142 0.47396 0.0
H1545 H 0.9924 0.52936 0.45824 0.0
H1546 H 0.99303 0.56803 0.5634 0.0
H1547 H 0.00411 0.53601 0.54647 0.0
H1548 H 0.01362 0.54192 0.72539 0.0
H1549 H -0.00134 0.53553 0.64491 0.0
H1550 H 0.01761 0.57881 0.59868 0.0
H1551 H 0.03253 0.58532 0.67987 0.0
C1552 C 0.98613 0.55575 0.4896 0.0
C1553 C 0.9859 0.54488 0.45883 0.0
C1554 C 0.99291 0.55957 0.54064 0.0
C1555 C -0.00058 0.55248 0.56209 0.0
C1556 C -0.00099 0.54153 0.53155 0.0
C1557 C 0.99238 0.5378 0.48063 0.0
C1558 C 0.01451 0.55013 0.69862 0.0
C1559 C 0.02445 0.56413 0.70881 0.0
C1560 C 0.00595 0.54645 0.65233 0.0
C1561 C 0.0071 0.55665 0.61507 0.0
C1562 C 0.01646 0.57072 0.62676 0.0
C1563 C 0.02506 0.57443 0.67315 0.0
H1564 H 0.46333 0.45376 0.39401 0.0
H1565 H 0.43053 0.41103 0.41307 0.0
H1566 H 0.45809 0.4593 0.48421 0.0
H1567 H 0.4253 0.41667 0.50452 0.0
H1568 H 0.4101 0.44072 0.62237 0.0
H1569 H 0.41554 0.43135 0.54128 0.0
H1570 H 0.45918 0.45455 0.58274 0.0
H1571 H 0.45383 0.46405 0.66342 0.0
C1572 C 0.45503 0.44549 0.41759 0.0
C1573 C 0.44728 0.43195 0.39604 0.0
C1574 C 0.45212 0.44866 0.46966 0.0
C1575 C 0.44133 0.43841 0.50166 0.0
C1576 C 0.43365 0.4248 0.48066 0.0
C1577 C 0.43668 0.42156 0.42846 0.0
C1578 C 0.42084 0.44366 0.61476 0.0
C1579 C 0.43155 0.45331 0.64913 0.0
C1580 C 0.42394 0.43821 0.56839 0.0
C1581 C 0.4378 0.44233 0.55528 0.0
C1582 C 0.44841 0.45135 0.59132 0.0
C1583 C 0.44533 0.45676 0.63772 0.0
H1584 H 0.10326 0.33374 0.16244 0.0
H1585 H 0.0675 0.29685 0.2257 0.0
H1586 H 0.10267 0.34699 0.24153 0.0
H1587 H 0.06716 0.31009 0.30604 0.0
H1588 H 0.0991 0.33374 0.4597 0.0
H1589 H 0.08834 0.31996 0.37722 0.0
H1590 H 0.08798 0.35513 0.30289 0.0
H1591 H 0.09839 0.36883 0.38674 0.0
C1592 C 0.09502 0.3286 0.19249 0.0
C1593 C 0.08551 0.31429 0.18841 0.0
C1594 C 0.09461 0.33619 0.23751 0.0
C1595 C 0.08489 0.32953 0.27982 0.0
C1596 C 0.07471 0.31544 0.27373 0.0
C1597 C 0.0749 0.3079 0.22787 0.0
C1598 C 0.09619 0.33832 0.42657 0.0
C1599 C 0.09956 0.35229 0.42916 0.0
C1600 C 0.08997 0.33043 0.37955 0.0
C1601 C 0.08736 0.33652 0.3338 0.0
C1602 C 0.08983 0.35022 0.33786 0.0
C1603 C 0.09574 0.35801 0.38566 0.0
H1604 H 0.61926 0.73244 0.36817 0.0
H1605 H 0.61883 0.77065 0.33794 0.0
H1606 H 0.63207 0.73583 0.28151 0.0
H1607 H 0.63151 0.77401 0.25352 0.0
H1608 H 0.67239 0.7632 0.16575 0.0
H1609 H 0.65594 0.75289 0.24237 0.0
H1610 H 0.62804 0.76389 0.16202 0.0
H1611 H 0.64463 0.77458 0.08715 0.0
C1612 C 0.62181 0.74147 0.34309 0.0
C1613 C 0.61801 0.75126 0.36013 0.0
C1614 C 0.62915 0.74342 0.29367 0.0
C1615 C 0.63262 0.75508 0.26025 0.0
C1616 C 0.62873 0.76474 0.27745 0.0
C1617 C 0.62155 0.76286 0.32645 0.0
C1618 C 0.66254 0.763 0.16387 0.0
C1619 C 0.65985 0.76988 0.1212 0.0
C1620 C 0.65312 0.7571 0.20765 0.0
C1621 C 0.64086 0.7579 0.20882 0.0
C1622 C 0.63757 0.76344 0.16299 0.0
C1623 C 0.64703 0.7695 0.11998 0.0
H1624 H 0.25332 0.91231 0.12288 0.0
H1625 H 0.23711 0.93121 0.23303 0.0
H1626 H 0.26667 0.91015 0.19814 0.0
H1627 H 0.2494 0.9281 0.30933 0.0
H1628 H 0.26341 0.91406 0.44846 0.0
H1629 H 0.26629 0.9283 0.36698 0.0
H1630 H 0.25676 0.89284 0.2634 0.0
H1631 H 0.25457 0.87918 0.34415 0.0
C1632 C 0.25305 0.91646 0.16296 0.0
C1633 C 0.24417 0.92181 0.17267 0.0
C1634 C 0.26053 0.91507 0.20631 0.0
C1635 C 0.25867 0.91837 0.2605 0.0
C1636 C 0.25113 0.92537 0.26849 0.0
C1637 C 0.24402 0.92716 0.2247 0.0
C1638 C 0.26258 0.90964 0.4079 0.0
C1639 C 0.2588 0.89562 0.40196 0.0
C1640 C 0.26408 0.91771 0.36126 0.0
C1641 C 0.26154 0.91173 0.30827 0.0
C1642 C 0.25901 0.898 0.30296 0.0
C1643 C 0.25764 0.89005 0.34934 0.0
H1644 H 0.37975 0.14887 0.68873 0.0
H1645 H 0.37102 0.1081 0.63573 0.0
H1646 H 0.36759 0.1392 0.77392 0.0
H1647 H 0.35872 0.09822 0.72303 0.0
H1648 H 0.31997 0.08947 0.84093 0.0
H1649 H 0.33652 0.09453 0.7657 0.0
H1650 H 0.36831 0.12871 0.85966 0.0
H1651 H 0.35161 0.12404 0.93322 0.0
C1652 C 0.37535 0.1378 0.6956 0.0
C1653 C 0.37625 0.12923 0.65517 0.0
C1654 C 0.3685 0.13226 0.745 0.0
C1655 C 0.36227 0.11793 0.7557 0.0
C1656 C 0.36343 0.10931 0.71596 0.0
C1657 C 0.3705 0.11495 0.6662 0.0
C1658 C 0.33064 0.09774 0.84612 0.0
C1659 C 0.3345 0.10653 0.89228 0.0
C1660 C 0.34013 0.10064 0.80308 0.0
C1661 C 0.35363 0.11226 0.80613 0.0
C1662 C 0.35788 0.11992 0.85543 0.0
C1663 C 0.34836 0.11721 0.89772 0.0
H1664 H 0.91433 0.2035 0.67131 0.0
H1665 H 0.92926 0.23988 0.77403 0.0
H1666 H 0.91735 0.2174 0.59032 0.0
H1667 H 0.9325 0.25421 0.692 0.0
H1668 H 0.9034 0.25884 0.55749 0.0
H1669 H 0.91521 0.25517 0.63447 0.0
H1670 H 0.93054 0.23506 0.52529 0.0
H1671 H 0.91791 0.238 0.44921 0.0
C1672 C 0.91873 0.21464 0.67605 0.0
C1673 C 0.92153 0.22067 0.72842 0.0
C1674 C 0.92061 0.2227 0.62954 0.0
C1675 C 0.92519 0.237 0.63436 0.0
C1676 C 0.92891 0.24322 0.68685 0.0
C1677 C 0.92712 0.23509 0.73369 0.0
C1678 C 0.90992 0.25432 0.54952 0.0
C1679 C 0.90964 0.24852 0.49791 0.0
C1680 C 0.91671 0.25218 0.59373 0.0
C1681 C 0.9234 0.24434 0.58646 0.0
C1682 C 0.92508 0.24073 0.53259 0.0
C1683 C 0.918 0.24255 0.48881 0.0
H1684 H 0.76349 0.70441 0.67731 0.0
H1685 H 0.76427 0.66932 0.74987 0.0
H1686 H 0.7538 0.691 0.59222 0.0
H1687 H 0.75423 0.65583 0.66617 0.0
H1688 H 0.735 0.63288 0.51411 0.0
H1689 H 0.73376 0.64575 0.59392 0.0
H1690 H 0.76859 0.68345 0.53073 0.0
H1691 H 0.77003 0.67058 0.45204 0.0
C1692 C 0.76102 0.69365 0.67578 0.0
C1693 C 0.76462 0.68784 0.71965 0.0
C1694 C 0.75552 0.68601 0.62726 0.0
C1695 C 0.75325 0.67239 0.62277 0.0
C1696 C 0.75569 0.66623 0.66873 0.0
C1697 C 0.7615 0.67395 0.71648 0.0
C1698 C 0.74203 0.64402 0.51631 0.0
C1699 C 0.75273 0.65074 0.47744 0.0
C1700 C 0.74133 0.65135 0.56195 0.0
C1701 C 0.75112 0.66556 0.5685 0.0
C1702 C 0.76084 0.67254 0.52648 0.0
C1703 C 0.76173 0.66516 0.48163 0.0
H1704 H 0.90619 0.66835 0.58698 0.0
H1705 H 0.89398 0.6289 0.66419 0.0
H1706 H 0.91426 0.68009 0.67518 0.0
H1707 H 0.9019 0.64062 0.75339 0.0
H1708 H 0.88561 0.66372 0.87479 0.0
H1709 H 0.88868 0.65079 0.80058 0.0
H1710 H 0.92862 0.68645 0.7621 0.0
H1711 H 0.92558 0.69946 0.83682 0.0
C1712 C 0.9059 0.66232 0.62256 0.0
C1713 C 0.89955 0.6478 0.61918 0.0
C1714 C 0.91052 0.66902 0.67313 0.0
C1715 C 0.90856 0.66124 0.72133 0.0
C1716 C 0.90348 0.64684 0.71689 0.0
C1717 C 0.89905 0.64016 0.66593 0.0
C1718 C 0.89523 0.66868 0.85157 0.0
C1719 C 0.90521 0.68269 0.86087 0.0
C1720 C 0.89707 0.66122 0.80936 0.0
C1721 C 0.90885 0.66766 0.77521 0.0
C1722 C 0.91941 0.68127 0.78765 0.0
C1723 C 0.91765 0.6887 0.83042 0.0
H1724 H 0.29529 0.22669 0.71458 0.0
H1725 H 0.28992 0.18644 0.6721 0.0
H1726 H 0.30731 0.23602 0.6264 0.0
H1727 H 0.30183 0.19562 0.58619 0.0
H1728 H 0.31653 0.20924 0.424 0.0
H1729 H 0.2998 0.20425 0.49771 0.0
H1730 H 0.33005 0.24096 0.58478 0.0
H1731 H 0.3466 0.24629 0.50936 0.0
C1732 C 0.29653 0.21983 0.68636 0.0
C1733 C 0.29175 0.20586 0.70058 0.0
C1734 C 0.30342 0.22516 0.63606 0.0
C1735 C 0.30539 0.21653 0.59899 0.0
C1736 C 0.30024 0.20251 0.61299 0.0
C1737 C 0.29354 0.19727 0.66287 0.0
C1738 C 0.31941 0.2165 0.458 0.0
C1739 C 0.33289 0.22801 0.46157 0.0
C1740 C 0.30988 0.21362 0.50035 0.0
C1741 C 0.31375 0.22199 0.54785 0.0
C1742 C 0.32675 0.23431 0.5488 0.0
C1743 C 0.33624 0.23735 0.50569 0.0
H1744 H 0.74441 0.05861 0.83572 0.0
H1745 H 0.74385 0.09508 0.89407 0.0
H1746 H 0.73191 0.05856 0.75284 0.0
H1747 H 0.73133 0.09499 0.81201 0.0
H1748 H 0.71646 0.09927 0.65403 0.0
H1749 H 0.71296 0.08543 0.73741 0.0
H1750 H 0.74597 0.07802 0.68592 0.0
H1751 H 0.74956 0.09193 0.60395 0.0
C1752 C 0.74094 0.06614 0.8323 0.0
C1753 C 0.74536 0.07705 0.87049 0.0
C1754 C 0.73384 0.06614 0.78474 0.0
C1755 C 0.73094 0.07696 0.77535 0.0
C1756 C 0.73341 0.08652 0.81787 0.0
C1757 C 0.74067 0.08663 0.86488 0.0
C1758 C 0.72253 0.09417 0.65966 0.0
C1759 C 0.73343 0.09681 0.62335 0.0
C1760 C 0.72054 0.08627 0.70729 0.0
C1761 C 0.72926 0.08074 0.71847 0.0
C1762 C 0.73899 0.08201 0.67846 0.0
C1763 C 0.74115 0.0901 0.63166 0.0
H1764 H 0.70666 0.92169 0.28562 0.0
H1765 H 0.70552 0.88255 0.31148 0.0
H1766 H 0.69382 0.91819 0.37223 0.0
H1767 H 0.69284 0.87911 0.396 0.0
H1768 H 0.68011 0.8785 0.5635 0.0
H1769 H 0.69672 0.88902 0.4886 0.0
H1770 H 0.6696 0.90129 0.41004 0.0
H1771 H 0.65309 0.8911 0.48654 0.0
C1772 C 0.70376 0.91242 0.30972 0.0
C1773 C 0.70713 0.90241 0.2915 0.0
C1774 C 0.6964 0.91041 0.35912 0.0
C1775 C 0.6925 0.89848 0.39132 0.0
C1776 C 0.69596 0.88858 0.37296 0.0
C1777 C 0.70314 0.89051 0.32393 0.0
C1778 C 0.67788 0.88379 0.53102 0.0
C1779 C 0.66524 0.8838 0.53026 0.0
C1780 C 0.68735 0.88977 0.48804 0.0
C1781 C 0.68428 0.89565 0.44275 0.0
C1782 C 0.67224 0.89682 0.44437 0.0
C1783 C 0.66279 0.89098 0.48808 0.0
H1784 H 0.08038 0.76579 0.50263 0.0
H1785 H 0.08147 0.72989 0.44057 0.0
H1786 H 0.06812 0.76618 0.42047 0.0
H1787 H 0.06927 0.73035 0.35743 0.0
H1788 H 0.08688 0.76478 0.212 0.0
H1789 H 0.08336 0.7504 0.29243 0.0
H1790 H 0.04977 0.75675 0.34548 0.0
H1791 H 0.05321 0.77106 0.26369 0.0
C1792 C 0.07738 0.75757 0.47248 0.0
C1793 C 0.08208 0.748 0.47723 0.0
C1794 C 0.07027 0.75773 0.42544 0.0
C1795 C 0.068 0.74846 0.38197 0.0
C1796 C 0.07101 0.73768 0.39015 0.0
C1797 C 0.07795 0.73739 0.4378 0.0
C1798 C 0.07838 0.76263 0.23969 0.0
C1799 C 0.07047 0.76918 0.23235 0.0
C1800 C 0.07625 0.75427 0.28557 0.0
C1801 C 0.06636 0.75255 0.32561 0.0
C1802 C 0.05748 0.75793 0.31529 0.0
C1803 C 0.05944 0.76611 0.26858 0.0
H1804 H 0.24003 0.33039 0.23309 0.0
H1805 H 0.22609 0.29074 0.31149 0.0
H1806 H 0.24833 0.34214 0.32121 0.0
H1807 H 0.23422 0.30245 0.40048 0.0
H1808 H 0.21867 0.32677 0.51885 0.0
H1809 H 0.22129 0.31353 0.44466 0.0
H1810 H 0.26234 0.34791 0.41006 0.0
H1811 H 0.25978 0.3612 0.48496 0.0
C1812 C 0.23947 0.32429 0.26884 0.0
C1813 C 0.23253 0.30973 0.26582 0.0
C1814 C 0.24419 0.33099 0.31939 0.0
C1815 C 0.24174 0.32318 0.36784 0.0
C1816 C 0.23617 0.3087 0.36376 0.0
C1817 C 0.23164 0.30201 0.31288 0.0
C1818 C 0.22841 0.33138 0.49646 0.0
C1819 C 0.2389 0.34511 0.50707 0.0
C1820 C 0.22998 0.32373 0.45429 0.0
C1821 C 0.24201 0.32972 0.42138 0.0
C1822 C 0.25296 0.34306 0.43475 0.0
C1823 C 0.25147 0.35065 0.4776 0.0
H1824 H 0.97612 0.43229 0.78318 0.0
H1825 H 0.00885 0.42622 0.84892 0.0
H1826 H 0.96156 0.42029 0.86252 0.0
H1827 H 0.99435 0.41449 0.92936 0.0
H1828 H 0.97565 0.42903 0.08141 0.0
H1829 H 0.98814 0.42933 0.99833 0.0
H1830 H 0.94973 0.39754 0.92639 0.0
H1831 H 0.93724 0.39692 0.01093 0.0
C1832 C 0.98 0.42797 0.8138 0.0
C1833 C 0.99363 0.43029 0.81041 0.0
C1834 C 0.97164 0.42102 0.85897 0.0
C1835 C 0.97689 0.41655 0.90204 0.0
C1836 C 0.99009 0.41783 0.8965 0.0
C1837 C -0.00165 0.42451 0.85055 0.0
C1838 C 0.96997 0.42178 0.04855 0.0
C1839 C 0.95553 0.41301 0.05211 0.0
C1840 C 0.97712 0.42187 0.00123 0.0
C1841 C 0.96987 0.41344 0.95611 0.0
C1842 C 0.95552 0.40406 0.96088 0.0
C1843 C 0.94841 0.4037 0.00903 0.0
H1844 H 0.56929 0.55563 0.08616 0.0
H1845 H 0.59993 0.54732 0.01397 0.0
H1846 H 0.56969 0.56841 0.00416 0.0
H1847 H 0.60017 0.55997 0.9307 0.0
H1848 H 0.56645 0.55185 0.78772 0.0
H1849 H 0.57888 0.55008 0.86696 0.0
H1850 H 0.5826 0.58791 0.93356 0.0
H1851 H 0.57027 0.58979 0.85322 0.0
C1852 C 0.57646 0.55697 0.05331 0.0
C1853 C 0.58446 0.55041 0.05585 0.0
C1854 C 0.57679 0.56438 0.00651 0.0
C1855 C 0.5849 0.5651 0.9609 0.0
C1856 C 0.59383 0.55955 0.96534 0.0
C1857 C 0.59371 0.55236 0.01288 0.0
C1858 C 0.57036 0.56005 0.81834 0.0
C1859 C 0.56724 0.57083 0.81495 0.0
C1860 C 0.5776 0.55911 0.86349 0.0
C1861 C 0.58161 0.5688 0.90661 0.0
C1862 C 0.57959 0.5803 0.90085 0.0
C1863 C 0.57256 0.58138 0.85495 0.0
H1864 H 0.42202 0.02458 0.08647 0.0
H1865 H 0.41466 0.98591 0.15789 0.0
H1866 H 0.41185 0.01257 -0.00029 0.0
H1867 H 0.4044 0.97388 0.07212 0.0
H1868 H 0.39309 0.95473 0.91133 0.0
H1869 H 0.3889 0.96641 0.98847 0.0
H1870 H 0.42611 0.00475 0.94589 0.0
H1871 H 0.43031 0.99313 0.86982 0.0
C1872 C 0.41745 0.01338 0.08464 0.0
C1873 C 0.41924 0.00615 0.12831 0.0
C1874 C 0.41173 0.00652 0.03489 0.0
C1875 C 0.40761 0.99235 0.02876 0.0
C1876 C 0.40744 0.98478 0.07539 0.0
C1877 C 0.41334 0.99166 0.12465 0.0
C1878 C 0.40008 0.96577 0.91743 0.0
C1879 C 0.4122 0.97298 0.88548 0.0
C1880 C 0.39767 0.97244 0.96151 0.0
C1881 C 0.40722 0.98646 0.97353 0.0
C1882 C 0.41847 0.99398 0.93758 0.0
C1883 C 0.42099 0.98728 0.8943 0.0
H1884 H 0.57984 0.00841 0.79197 0.0
H1885 H 0.58114 0.97265 0.85431 0.0
H1886 H 0.59166 0.02147 0.87412 0.0
H1887 H 0.59286 0.98571 0.9374 0.0
H1888 H 0.57355 0.00105 0.08236 0.0
H1889 H 0.57763 0.99066 0.00157 0.0
H1890 H 0.61026 0.03119 0.94941 0.0
H1891 H 0.60631 0.04158 0.03168 0.0
C1892 C 0.58326 0.00358 0.82218 0.0
C1893 C 0.57933 0.98947 0.81755 0.0
C1894 C 0.59012 0.01108 0.86918 0.0
C1895 C 0.59292 0.00449 0.91266 0.0
C1896 C 0.59071 0.99097 0.90461 0.0
C1897 C 0.58403 0.98352 0.85702 0.0
C1898 C 0.58196 0.00765 0.05473 0.0
C1899 C 0.58947 0.0221 0.06253 0.0
C1900 C 0.58441 0.0017 0.0087 0.0
C1901 C 0.59421 0.01014 0.96894 0.0
C1902 C 0.60266 0.02446 0.97947 0.0
C1903 C 0.60039 0.03039 0.0264 0.0
H1904 H 0.01587 0.56864 0.93054 0.0
H1905 H 0.0549 0.59853 0.00414 0.0
H1906 H 0.00367 0.56793 0.01522 0.0
H1907 H 0.0427 0.59746 0.09021 0.0
H1908 H 0.01444 0.56186 0.22888 0.0
H1909 H 0.02942 0.57375 0.15025 0.0
H1910 H -0.0012 0.5834 0.08791 0.0
H1911 H 0.98393 0.57182 0.1676 0.0
C1912 C 0.02175 0.57534 0.96451 0.0
C1913 C 0.03625 0.58365 0.9612 0.0
C1914 C 0.01479 0.57501 0.01277 0.0
C1915 C 0.02227 0.58268 0.05904 0.0
C1916 C 0.03673 0.59154 0.05484 0.0
C1917 C 0.04367 0.59217 0.00583 0.0
C1918 C 0.01116 0.56699 0.1995 0.0
C1919 C -0.002 0.56584 0.20396 0.0
C1920 C 0.01975 0.57386 0.1547 0.0
C1921 C 0.0152 0.5794 0.11305 0.0
C1922 C 0.00253 0.57922 0.11968 0.0
C1923 C 0.99406 0.57264 0.16527 0.0
H1924 H 0.42006 0.40443 0.09285 0.0
H1925 H 0.42094 0.43704 0.19253 0.0
H1926 H 0.41079 0.41147 0.0157 0.0
H1927 H 0.41129 0.4438 0.11633 0.0
H1928 H 0.39609 0.43103 0.88175 0.0
H1929 H 0.39388 0.41824 0.96761 0.0
H1930 H 0.42782 0.45559 0.03778 0.0
H1931 H 0.43009 0.46809 0.95334 0.0
C1932 C 0.41746 0.41253 0.09927 0.0
C1933 C 0.42136 0.42034 0.14814 0.0
C1934 C 0.41219 0.41659 0.05506 0.0
C1935 C 0.41069 0.42841 0.0597 0.0
C1936 C 0.4126 0.43481 0.11139 0.0
C1937 C 0.41803 0.43089 0.15511 0.0
C1938 C 0.40292 0.43646 0.91596 0.0
C1939 C 0.41335 0.4505 0.91077 0.0
C1940 C 0.40165 0.42917 0.9649 0.0
C1941 C 0.41054 0.43597 0.00961 0.0
C1942 C 0.42061 0.45011 0.00459 0.0
C1943 C 0.42204 0.45725 0.95583 0.0
loop_
_geom_bond_atom_site_label_1
_geom_bond_atom_site_label_2
_geom_bond_distance
_geom_bond_site_symmetry_2
_ccdc_geom_bond_type
Mg0 O1 2.028 . S
Mg0 O7 1.986 . S
Mg0 O9 2.114 . S
Mg0 O10 2.251 . S
Mg0 O13 2.010 . S
O1 Mg0 2.028 . S
O1 C4 1.250 1_554 S
O2 Mg3 2.028 . S
O2 C4 1.248 1_554 S
Mg3 O2 2.028 . S
Mg3 O8 2.032 . S
Mg3 O10 2.079 . S
C4 O1 1.250 1_556 S
C4 O2 1.248 1_556 S
C5 O6 1.264 . S
C5 O13 1.249 . S
O6 C5 1.264 . S
O7 Mg0 1.986 . S
O7 C11 1.246 . S
O8 Mg3 2.032 . S
O8 C11 1.259 . S
O9 Mg0 2.114 . S
O9 C12 1.252 . S
O10 Mg0 2.251 . S
O10 Mg3 2.079 . S
O10 C12 1.273 . S
C11 O7 1.246 . S
C11 O8 1.259 . S
C12 O9 1.252 . S
C12 O10 1.273 . S
O13 Mg0 2.010 . S
O13 C5 1.249 . S
Mg14 O15 2.028 . S
Mg14 O21 1.986 . S
Mg14 O23 2.114 . S
Mg14 O24 2.251 . S
Mg14 O27 2.010 . S
O15 Mg14 2.028 . S
O15 C18 1.250 1_554 S
O16 Mg17 2.028 . S
O16 C18 1.248 1_554 S
Mg17 O16 2.028 . S
Mg17 O22 2.032 . S
Mg17 O24 2.079 . S
C18 O15 1.250 1_556 S
C18 O16 1.248 1_556 S
C19 O20 1.264 . S
C19 O27 1.249 . S
O20 C19 1.264 . S
O21 Mg14 1.986 . S
O21 C25 1.246 . S
O22 Mg17 2.032 . S
O22 C25 1.259 . S
O23 Mg14 2.114 . S
O23 C26 1.252 . S
O24 Mg14 2.251 . S
O24 Mg17 2.079 . S
O24 C26 1.273 . S
C25 O21 1.246 . S
C25 O22 1.259 . S
C26 O23 1.252 . S
C26 O24 1.273 . S
O27 Mg14 2.010 . S
O27 C19 1.249 . S
Mg28 O29 2.028 . S
Mg28 O35 1.986 . S
Mg28 O37 2.114 . S
Mg28 O38 2.251 . S
Mg28 O41 2.010 . S
O29 Mg28 2.028 . S
O29 C32 1.250 1_554 S
O30 Mg31 2.028 . S
O30 C32 1.248 1_554 S
Mg31 O30 2.028 . S
Mg31 O36 2.032 . S
Mg31 O38 2.079 . S
C32 O29 1.250 1_556 S
C32 O30 1.248 1_556 S
C33 O34 1.264 . S
C33 O41 1.249 . S
O34 C33 1.264 . S
O35 Mg28 1.986 . S
O35 C39 1.246 . S
O36 Mg31 2.032 . S
O36 C39 1.259 . S
O37 Mg28 2.114 . S
O37 C40 1.252 . S
O38 Mg28 2.251 . S
O38 Mg31 2.079 . S
O38 C40 1.273 . S
C39 O35 1.246 . S
C39 O36 1.259 . S
C40 O37 1.252 . S
C40 O38 1.273 . S
O41 Mg28 2.010 . S
O41 C33 1.249 . S
Mg42 O43 2.028 . S
Mg42 O49 1.986 . S
Mg42 O51 2.114 . S
Mg42 O52 2.251 . S
Mg42 O55 2.010 . S
O43 Mg42 2.028 . S
O43 C46 1.250 1_556 S
O44 Mg45 2.028 . S
O44 C46 1.248 1_556 S
Mg45 O44 2.028 . S
Mg45 O50 2.032 . S
Mg45 O52 2.079 . S
C46 O43 1.250 1_554 S
C46 O44 1.248 1_554 S
C47 O48 1.264 . S
C47 O55 1.249 . S
O48 C47 1.264 . S
O49 Mg42 1.986 . S
O49 C53 1.246 . S
O50 Mg45 2.032 . S
O50 C53 1.259 . S
O51 Mg42 2.114 . S
O51 C54 1.252 . S
O52 Mg42 2.251 . S
O52 Mg45 2.079 . S
O52 C54 1.273 . S
C53 O49 1.246 . S
C53 O50 1.259 . S
C54 O51 1.252 . S
C54 O52 1.273 . S
O55 Mg42 2.010 . S
O55 C47 1.249 . S
Mg56 O57 2.028 . S
Mg56 O63 1.986 . S
Mg56 O65 2.114 . S
Mg56 O66 2.251 . S
Mg56 O69 2.010 . S
O57 Mg56 2.028 . S
O57 C60 1.250 1_556 S
O58 Mg59 2.028 . S
O58 C60 1.248 1_556 S
Mg59 O58 2.028 . S
Mg59 O64 2.032 . S
Mg59 O66 2.079 . S
C60 O57 1.250 1_554 S
C60 O58 1.248 1_554 S
C61 O62 1.264 . S
C61 O69 1.249 . S
O62 C61 1.264 . S
O63 Mg56 1.986 . S
O63 C67 1.246 . S
O64 Mg59 2.032 . S
O64 C67 1.259 . S
O65 Mg56 2.114 . S
O65 C68 1.252 . S
O66 Mg56 2.251 . S
O66 Mg59 2.079 . S
O66 C68 1.273 . S
C67 O63 1.246 . S
C67 O64 1.259 . S
C68 O65 1.252 . S
C68 O66 1.273 . S
O69 Mg56 2.010 . S
O69 C61 1.249 . S
Mg70 O71 2.028 . S
Mg70 O77 1.986 . S
Mg70 O79 2.114 . S
Mg70 O80 2.251 . S
Mg70 O83 2.010 . S
O71 Mg70 2.028 . S
O71 C74 1.250 1_556 S
O72 Mg73 2.028 . S
O72 C74 1.248 1_556 S
Mg73 O72 2.028 . S
Mg73 O78 2.032 . S
Mg73 O80 2.079 . S
C74 O71 1.250 1_554 S
C74 O72 1.248 1_554 S
C75 O76 1.264 . S
C75 O83 1.249 . S
O76 C75 1.264 . S
O77 Mg70 1.986 . S
O77 C81 1.246 . S
O78 Mg73 2.032 . S
O78 C81 1.259 . S
O79 Mg70 2.114 . S
O79 C82 1.252 . S
O80 Mg70 2.251 . S
O80 Mg73 2.079 . S
O80 C82 1.273 . S
C81 O77 1.246 . S
C81 O78 1.259 . S
C82 O79 1.252 . S
C82 O80 1.273 . S
O83 Mg70 2.010 . S
O83 C75 1.249 . S
Mg84 O85 2.028 . S
Mg84 O91 1.986 . S
Mg84 O93 2.114 . S
Mg84 O94 2.251 . S
Mg84 O97 2.010 . S
O85 Mg84 2.028 . S
O85 C88 1.250 1_556 S
O86 Mg87 2.028 . S
O86 C88 1.248 1_556 S
Mg87 O86 2.028 . S
Mg87 O92 2.032 . S
Mg87 O94 2.079 . S
C88 O85 1.250 1_554 S
C88 O86 1.248 1_554 S
C89 O90 1.264 . S
C89 O97 1.249 . S
O90 C89 1.264 . S
O91 Mg84 1.986 . S
O91 C95 1.246 . S
O92 Mg87 2.032 . S
O92 C95 1.259 . S
O93 Mg84 2.114 . S
O93 C96 1.252 . S
O94 Mg84 2.251 . S
O94 Mg87 2.079 . S
O94 C96 1.273 . S
C95 O91 1.246 . S
C95 O92 1.259 . S
C96 O93 1.252 . S
C96 O94 1.273 . S
O97 Mg84 2.010 . S
O97 C89 1.249 . S
Mg98 O99 2.028 . S
Mg98 O105 1.986 . S
Mg98 O107 2.114 . S
Mg98 O108 2.251 . S
Mg98 O111 2.010 . S
O99 Mg98 2.028 . S
O99 C102 1.250 1_556 S
O100 Mg101 2.028 . S
O100 C102 1.248 1_556 S
Mg101 O100 2.028 . S
Mg101 O106 2.032 . S
Mg101 O108 2.079 . S
C102 O99 1.250 1_554 S
C102 O100 1.248 1_554 S
C103 O104 1.264 . S
C103 O111 1.249 . S
O104 C103 1.264 . S
O105 Mg98 1.986 . S
O105 C109 1.246 . S
O106 Mg101 2.032 . S
O106 C109 1.259 . S
O107 Mg98 2.114 . S
O107 C110 1.252 . S
O108 Mg98 2.251 . S
O108 Mg101 2.079 . S
O108 C110 1.273 . S
C109 O105 1.246 . S
C109 O106 1.259 . S
C110 O107 1.252 . S
C110 O108 1.273 . S
O111 Mg98 2.010 . S
O111 C103 1.249 . S
Mg112 O113 2.028 . S
Mg112 O119 1.986 . S
Mg112 O121 2.114 . S
Mg112 O122 2.251 . S
Mg112 O125 2.010 . S
O113 Mg112 2.028 . S
O113 C116 1.250 1_556 S
O114 Mg115 2.028 . S
O114 C116 1.248 1_556 S
Mg115 O114 2.028 . S
Mg115 O120 2.032 . S
Mg115 O122 2.079 . S
C116 O113 1.250 1_554 S
C116 O114 1.248 1_554 S
C117 O118 1.264 . S
C117 O125 1.249 . S
O118 C117 1.264 . S
O119 Mg112 1.986 . S
O119 C123 1.246 . S
O120 Mg115 2.032 . S
O120 C123 1.259 . S
O121 Mg112 2.114 . S
O121 C124 1.252 . S
O122 Mg112 2.251 . S
O122 Mg115 2.079 . S
O122 C124 1.273 . S
C123 O119 1.246 . S
C123 O120 1.259 . S
C124 O121 1.252 . S
C124 O122 1.273 . S
O125 Mg112 2.010 . S
O125 C117 1.249 . S
Mg126 O127 2.028 . S
Mg126 O133 1.986 . S
Mg126 O135 2.114 . S
Mg126 O136 2.251 . S
Mg126 O139 2.010 . S
O127 Mg126 2.028 . S
O127 C130 1.250 1_554 S
O128 Mg129 2.028 . S
O128 C130 1.248 1_554 S
Mg129 O128 2.028 . S
Mg129 O134 2.032 . S
Mg129 O136 2.079 . S
C130 O127 1.250 1_556 S
C130 O128 1.248 1_556 S
C131 O132 1.264 . S
C131 O139 1.249 . S
O132 C131 1.264 . S
O133 Mg126 1.986 . S
O133 C137 1.246 . S
O134 Mg129 2.032 . S
O134 C137 1.259 . S
O135 Mg126 2.114 . S
O135 C138 1.252 . S
O136 Mg126 2.251 . S
O136 Mg129 2.079 . S
O136 C138 1.273 . S
C137 O133 1.246 . S
C137 O134 1.259 . S
C138 O135 1.252 . S
C138 O136 1.273 . S
O139 Mg126 2.010 . S
O139 C131 1.249 . S
Mg140 O141 2.028 . S
Mg140 O147 1.986 . S
Mg140 O149 2.114 . S
Mg140 O150 2.251 . S
Mg140 O153 2.010 . S
O141 Mg140 2.028 . S
O141 C144 1.250 1_554 S
O142 Mg143 2.028 . S
O142 C144 1.248 1_554 S
Mg143 O142 2.028 . S
Mg143 O148 2.032 . S
Mg143 O150 2.079 . S
C144 O141 1.250 1_556 S
C144 O142 1.248 1_556 S
C145 O146 1.264 . S
C145 O153 1.249 . S
O146 C145 1.264 . S
O147 Mg140 1.986 . S
O147 C151 1.246 . S
O148 Mg143 2.032 . S
O148 C151 1.259 . S
O149 Mg140 2.114 . S
O149 C152 1.252 . S
O150 Mg140 2.251 . S
O150 Mg143 2.079 . S
O150 C152 1.273 . S
C151 O147 1.246 . S
C151 O148 1.259 . S
C152 O149 1.252 . S
C152 O150 1.273 . S
O153 Mg140 2.010 . S
O153 C145 1.249 . S
Mg154 O155 2.028 . S
Mg154 O161 1.986 . S
Mg154 O163 2.114 . S
Mg154 O164 2.251 . S
Mg154 O167 2.010 . S
O155 Mg154 2.028 . S
O155 C158 1.250 1_554 S
O156 Mg157 2.028 . S
O156 C158 1.248 1_554 S
Mg157 O156 2.028 . S
Mg157 O162 2.032 . S
Mg157 O164 2.079 . S
C158 O155 1.250 1_556 S
C158 O156 1.248 1_556 S
C159 O160 1.264 . S
C159 O167 1.249 . S
O160 C159 1.264 . S
O161 Mg154 1.986 . S
O161 C165 1.246 . S
O162 Mg157 2.032 . S
O162 C165 1.259 . S
O163 Mg154 2.114 . S
O163 C166 1.252 . S
O164 Mg154 2.251 . S
O164 Mg157 2.079 . S
O164 C166 1.273 . S
C165 O161 1.246 . S
C165 O162 1.259 . S
C166 O163 1.252 . S
C166 O164 1.273 . S
O167 Mg154 2.010 . S
O167 C159 1.249 . S
Mg168 O169 2.028 . S
Mg168 O175 1.986 . S
Mg168 O177 2.114 . S
Mg168 O178 2.251 . S
Mg168 O181 2.010 . S
O169 Mg168 2.028 . S
O169 C172 1.250 . S
O170 Mg171 2.028 . S
O170 C172 1.248 . S
Mg171 O170 2.028 . S
Mg171 O176 2.032 . S
Mg171 O178 2.079 . S
C172 O169 1.250 . S
C172 O170 1.248 . S
C173 O174 1.264 . S
C173 O181 1.249 . S
O174 C173 1.264 . S
O175 Mg168 1.986 . S
O175 C179 1.246 . S
O176 Mg171 2.032 . S
O176 C179 1.259 . S
O177 Mg168 2.114 . S
O177 C180 1.252 . S
O178 Mg168 2.251 . S
O178 Mg171 2.079 . S
O178 C180 1.273 . S
C179 O175 1.246 . S
C179 O176 1.259 . S
C180 O177 1.252 . S
C180 O178 1.273 . S
O181 Mg168 2.010 . S
O181 C173 1.249 . S
Mg182 O183 2.028 . S
Mg182 O189 1.986 . S
Mg182 O191 2.114 . S
Mg182 O192 2.251 . S
Mg182 O195 2.010 . S
O183 Mg182 2.028 . S
O183 C186 1.250 . S
O184 Mg185 2.028 . S
O184 C186 1.248 . S
Mg185 O184 2.028 . S
Mg185 O190 2.032 . S
Mg185 O192 2.079 . S
C186 O183 1.250 . S
C186 O184 1.248 . S
C187 O188 1.264 . S
C187 O195 1.249 . S
O188 C187 1.264 . S
O189 Mg182 1.986 . S
O189 C193 1.246 . S
O190 Mg185 2.032 . S
O190 C193 1.259 . S
O191 Mg182 2.114 . S
O191 C194 1.252 . S
O192 Mg182 2.251 . S
O192 Mg185 2.079 . S
O192 C194 1.273 . S
C193 O189 1.246 . S
C193 O190 1.259 . S
C194 O191 1.252 . S
C194 O192 1.273 . S
O195 Mg182 2.010 . S
O195 C187 1.249 . S
Mg196 O197 2.028 . S
Mg196 O203 1.986 . S
Mg196 O205 2.114 . S
Mg196 O206 2.251 . S
Mg196 O209 2.010 . S
O197 Mg196 2.028 . S
O197 C200 1.250 . S
O198 Mg199 2.028 . S
O198 C200 1.248 . S
Mg199 O198 2.028 . S
Mg199 O204 2.032 . S
Mg199 O206 2.079 . S
C200 O197 1.250 . S
C200 O198 1.248 . S
C201 O202 1.264 . S
C201 O209 1.249 . S
O202 C201 1.264 . S
O203 Mg196 1.986 . S
O203 C207 1.246 . S
O204 Mg199 2.032 . S
O204 C207 1.259 . S
O205 Mg196 2.114 . S
O205 C208 1.252 . S
O206 Mg196 2.251 . S
O206 Mg199 2.079 . S
O206 C208 1.273 . S
C207 O203 1.246 . S
C207 O204 1.259 . S
C208 O205 1.252 . S
C208 O206 1.273 . S
O209 Mg196 2.010 . S
O209 C201 1.249 . S
Mg210 O211 2.028 . S
Mg210 O217 1.986 . S
Mg210 O219 2.114 . S
Mg210 O220 2.251 . S
Mg210 O223 2.010 . S
O211 Mg210 2.028 . S
O211 C214 1.250 . S
O212 Mg213 2.028 . S
O212 C214 1.248 . S
Mg213 O212 2.028 . S
Mg213 O218 2.032 . S
Mg213 O220 2.079 . S
C214 O211 1.250 . S
C214 O212 1.248 . S
C215 O216 1.264 . S
C215 O223 1.249 . S
O216 C215 1.264 . S
O217 Mg210 1.986 . S
O217 C221 1.246 . S
O218 Mg213 2.032 . S
O218 C221 1.259 . S
O219 Mg210 2.114 . S
O219 C222 1.252 . S
O220 Mg210 2.251 . S
O220 Mg213 2.079 . S
O220 C222 1.273 . S
C221 O217 1.246 . S
C221 O218 1.259 . S
C222 O219 1.252 . S
C222 O220 1.273 . S
O223 Mg210 2.010 . S
O223 C215 1.249 . S
Mg224 O225 2.028 . S
Mg224 O231 1.986 . S
Mg224 O233 2.114 . S
Mg224 O234 2.251 . S
Mg224 O237 2.010 . S
O225 Mg224 2.028 . S
O225 C228 1.250 . S
O226 Mg227 2.028 . S
O226 C228 1.248 . S
Mg227 O226 2.028 . S
Mg227 O232 2.032 . S
Mg227 O234 2.079 . S
C228 O225 1.250 . S
C228 O226 1.248 . S
C229 O230 1.264 . S
C229 O237 1.249 . S
O230 C229 1.264 . S
O231 Mg224 1.986 . S
O231 C235 1.246 . S
O232 Mg227 2.032 . S
O232 C235 1.259 . S
O233 Mg224 2.114 . S
O233 C236 1.252 . S
O234 Mg224 2.251 . S
O234 Mg227 2.079 . S
O234 C236 1.273 . S
C235 O231 1.246 . S
C235 O232 1.259 . S
C236 O233 1.252 . S
C236 O234 1.273 . S
O237 Mg224 2.010 . S
O237 C229 1.249 . S
Mg238 O239 2.028 . S
Mg238 O245 1.986 . S
Mg238 O247 2.114 . S
Mg238 O248 2.251 . S
Mg238 O251 2.010 . S
O239 Mg238 2.028 . S
O239 C242 1.250 . S
O240 Mg241 2.028 . S
O240 C242 1.248 . S
Mg241 O240 2.028 . S
Mg241 O246 2.032 . S
Mg241 O248 2.079 . S
C242 O239 1.250 . S
C242 O240 1.248 . S
C243 O244 1.264 . S
C243 O251 1.249 . S
O244 C243 1.264 . S
O245 Mg238 1.986 . S
O245 C249 1.246 . S
O246 Mg241 2.032 . S
O246 C249 1.259 . S
O247 Mg238 2.114 . S
O247 C250 1.252 . S
O248 Mg238 2.251 . S
O248 Mg241 2.079 . S
O248 C250 1.273 . S
C249 O245 1.246 . S
C249 O246 1.259 . S
C250 O247 1.252 . S
C250 O248 1.273 . S
O251 Mg238 2.010 . S
O251 C243 1.249 . S
Mg252 O253 2.028 . S
Mg252 O259 1.986 . S
Mg252 O261 2.114 . S
Mg252 O262 2.251 . S
Mg252 O265 2.010 . S
O253 Mg252 2.028 . S
O253 C256 1.250 . S
O254 Mg255 2.028 . S
O254 C256 1.248 . S
Mg255 O254 2.028 . S
Mg255 O260 2.032 . S
Mg255 O262 2.079 . S
C256 O253 1.250 . S
C256 O254 1.248 . S
C257 O258 1.264 . S
C257 O265 1.249 . S
O258 C257 1.264 . S
O259 Mg252 1.986 . S
O259 C263 1.246 . S
O260 Mg255 2.032 . S
O260 C263 1.259 . S
O261 Mg252 2.114 . S
O261 C264 1.252 . S
O262 Mg252 2.251 . S
O262 Mg255 2.079 . S
O262 C264 1.273 . S
C263 O259 1.246 . S
C263 O260 1.259 . S
C264 O261 1.252 . S
C264 O262 1.273 . S
O265 Mg252 2.010 . S
O265 C257 1.249 . S
Mg266 O267 2.028 . S
Mg266 O273 1.986 . S
Mg266 O275 2.114 . S
Mg266 O276 2.251 . S
Mg266 O279 2.010 . S
O267 Mg266 2.028 . S
O267 C270 1.250 . S
O268 Mg269 2.028 . S
O268 C270 1.248 . S
Mg269 O268 2.028 . S
Mg269 O274 2.032 . S
Mg269 O276 2.079 . S
C270 O267 1.250 . S
C270 O268 1.248 . S
C271 O272 1.264 . S
C271 O279 1.249 . S
O272 C271 1.264 . S
O273 Mg266 1.986 . S
O273 C277 1.246 . S
O274 Mg269 2.032 . S
O274 C277 1.259 . S
O275 Mg266 2.114 . S
O275 C278 1.252 . S
O276 Mg266 2.251 . S
O276 Mg269 2.079 . S
O276 C278 1.273 . S
C277 O273 1.246 . S
C277 O274 1.259 . S
C278 O275 1.252 . S
C278 O276 1.273 . S
O279 Mg266 2.010 . S
O279 C271 1.249 . S
Mg280 O281 2.028 . S
Mg280 O287 1.986 . S
Mg280 O289 2.114 . S
Mg280 O290 2.251 . S
Mg280 O293 2.010 . S
O281 Mg280 2.028 . S
O281 C284 1.250 . S
O282 Mg283 2.028 . S
O282 C284 1.248 . S
Mg283 O282 2.028 . S
Mg283 O288 2.032 . S
Mg283 O290 2.079 . S
C284 O281 1.250 . S
C284 O282 1.248 . S
C285 O286 1.264 . S
C285 O293 1.249 . S
O286 C285 1.264 . S
O287 Mg280 1.986 . S
O287 C291 1.246 . S
O288 Mg283 2.032 . S
O288 C291 1.259 . S
O289 Mg280 2.114 . S
O289 C292 1.252 . S
O290 Mg280 2.251 . S
O290 Mg283 2.079 . S
O290 C292 1.273 . S
C291 O287 1.246 . S
C291 O288 1.259 . S
C292 O289 1.252 . S
C292 O290 1.273 . S
O293 Mg280 2.010 . S
O293 C285 1.249 . S
Mg294 O295 2.028 . S
Mg294 O301 1.986 . S
Mg294 O303 2.114 . S
Mg294 O304 2.251 . S
Mg294 O307 2.010 . S
O295 Mg294 2.028 . S
O295 C298 1.250 . S
O296 Mg297 2.028 . S
O296 C298 1.248 . S
Mg297 O296 2.028 . S
Mg297 O302 2.032 . S
Mg297 O304 2.079 . S
C298 O295 1.250 . S
C298 O296 1.248 . S
C299 O300 1.264 . S
C299 O307 1.249 . S
O300 C299 1.264 . S
O301 Mg294 1.986 . S
O301 C305 1.246 . S
O302 Mg297 2.032 . S
O302 C305 1.259 . S
O303 Mg294 2.114 . S
O303 C306 1.252 . S
O304 Mg294 2.251 . S
O304 Mg297 2.079 . S
O304 C306 1.273 . S
C305 O301 1.246 . S
C305 O302 1.259 . S
C306 O303 1.252 . S
C306 O304 1.273 . S
O307 Mg294 2.010 . S
O307 C299 1.249 . S
Mg308 O309 2.028 . S
Mg308 O315 1.986 . S
Mg308 O317 2.114 . S
Mg308 O318 2.251 . S
Mg308 O321 2.010 . S
O309 Mg308 2.028 . S
O309 C312 1.250 . S
O310 Mg311 2.028 . S
O310 C312 1.248 . S
Mg311 O310 2.028 . S
Mg311 O316 2.032 . S
Mg311 O318 2.079 . S
C312 O309 1.250 . S
C312 O310 1.248 . S
C313 O314 1.264 . S
C313 O321 1.249 . S
O314 C313 1.264 . S
O315 Mg308 1.986 . S
O315 C319 1.246 . S
O316 Mg311 2.032 . S
O316 C319 1.259 . S
O317 Mg308 2.114 . S
O317 C320 1.252 . S
O318 Mg308 2.251 . S
O318 Mg311 2.079 . S
O318 C320 1.273 . S
C319 O315 1.246 . S
C319 O316 1.259 . S
C320 O317 1.252 . S
C320 O318 1.273 . S
O321 Mg308 2.010 . S
O321 C313 1.249 . S
Mg322 O323 2.028 . S
Mg322 O329 1.986 . S
Mg322 O331 2.114 . S
Mg322 O332 2.251 . S
Mg322 O335 2.010 . S
O323 Mg322 2.028 . S
O323 C326 1.250 . S
O324 Mg325 2.028 . S
O324 C326 1.248 . S
Mg325 O324 2.028 . S
Mg325 O330 2.032 . S
Mg325 O332 2.079 . S
C326 O323 1.250 . S
C326 O324 1.248 . S
C327 O328 1.264 . S
C327 O335 1.249 . S
O328 C327 1.264 . S
O329 Mg322 1.986 . S
O329 C333 1.246 . S
O330 Mg325 2.032 . S
O330 C333 1.259 . S
O331 Mg322 2.114 . S
O331 C334 1.252 . S
O332 Mg322 2.251 . S
O332 Mg325 2.079 . S
O332 C334 1.273 . S
C333 O329 1.246 . S
C333 O330 1.259 . S
C334 O331 1.252 . S
C334 O332 1.273 . S
O335 Mg322 2.010 . S
O335 C327 1.249 . S
Mg336 O337 2.028 . S
Mg336 O343 1.986 . S
Mg336 O345 2.114 . S
Mg336 O346 2.251 . S
Mg336 O349 2.010 . S
O337 Mg336 2.028 . S
O337 C340 1.250 . S
O338 Mg339 2.028 . S
O338 C340 1.248 . S
Mg339 O338 2.028 . S
Mg339 O344 2.032 . S
Mg339 O346 2.079 . S
C340 O337 1.250 . S
C340 O338 1.248 . S
C341 O342 1.264 . S
C341 O349 1.249 . S
O342 C341 1.264 . S
O343 Mg336 1.986 . S
O343 C347 1.246 . S
O344 Mg339 2.032 . S
O344 C347 1.259 . S
O345 Mg336 2.114 . S
O345 C348 1.252 . S
O346 Mg336 2.251 . S
O346 Mg339 2.079 . S
O346 C348 1.273 . S
C347 O343 1.246 . S
C347 O344 1.259 . S
C348 O345 1.252 . S
C348 O346 1.273 . S
O349 Mg336 2.010 . S
O349 C341 1.249 . S
Mg350 O351 2.028 . S
Mg350 O357 1.986 . S
Mg350 O359 2.114 . S
Mg350 O360 2.251 . S
Mg350 O363 2.010 . S
O351 Mg350 2.028 . S
O351 C354 1.250 . S
O352 Mg353 2.028 . S
O352 C354 1.248 . S
Mg353 O352 2.028 . S
Mg353 O358 2.032 . S
Mg353 O360 2.079 . S
C354 O351 1.250 . S
C354 O352 1.248 . S
C355 O356 1.264 . S
C355 O363 1.249 . S
O356 C355 1.264 . S
O357 Mg350 1.986 . S
O357 C361 1.246 . S
O358 Mg353 2.032 . S
O358 C361 1.259 . S
O359 Mg350 2.114 . S
O359 C362 1.252 . S
O360 Mg350 2.251 . S
O360 Mg353 2.079 . S
O360 C362 1.273 . S
C361 O357 1.246 . S
C361 O358 1.259 . S
C362 O359 1.252 . S
C362 O360 1.273 . S
O363 Mg350 2.010 . S
O363 C355 1.249 . S
Mg364 O365 2.028 . S
Mg364 O371 1.986 . S
Mg364 O373 2.114 . S
Mg364 O374 2.251 . S
Mg364 O377 2.010 . S
O365 Mg364 2.028 . S
O365 C368 1.250 . S
O366 Mg367 2.028 . S
O366 C368 1.248 . S
Mg367 O366 2.028 . S
Mg367 O372 2.032 . S
Mg367 O374 2.079 . S
C368 O365 1.250 . S
C368 O366 1.248 . S
C369 O370 1.264 . S
C369 O377 1.249 . S
O370 C369 1.264 . S
O371 Mg364 1.986 . S
O371 C375 1.246 . S
O372 Mg367 2.032 . S
O372 C375 1.259 . S
O373 Mg364 2.114 . S
O373 C376 1.252 . S
O374 Mg364 2.251 . S
O374 Mg367 2.079 . S
O374 C376 1.273 . S
C375 O371 1.246 . S
C375 O372 1.259 . S
C376 O373 1.252 . S
C376 O374 1.273 . S
O377 Mg364 2.010 . S
O377 C369 1.249 . S
Mg378 O379 2.028 . S
Mg378 O385 1.986 . S
Mg378 O387 2.114 . S
Mg378 O388 2.251 . S
Mg378 O391 2.010 . S
O379 Mg378 2.028 . S
O379 C382 1.250 . S
O380 Mg381 2.028 . S
O380 C382 1.248 . S
Mg381 O380 2.028 . S
Mg381 O386 2.032 . S
Mg381 O388 2.079 . S
C382 O379 1.250 . S
C382 O380 1.248 . S
C383 O384 1.264 . S
C383 O391 1.249 . S
O384 C383 1.264 . S
O385 Mg378 1.986 . S
O385 C389 1.246 . S
O386 Mg381 2.032 . S
O386 C389 1.259 . S
O387 Mg378 2.114 . S
O387 C390 1.252 . S
O388 Mg378 2.251 . S
O388 Mg381 2.079 . S
O388 C390 1.273 . S
C389 O385 1.246 . S
C389 O386 1.259 . S
C390 O387 1.252 . S
C390 O388 1.273 . S
O391 Mg378 2.010 . S
O391 C383 1.249 . S
Mg392 O393 2.028 . S
Mg392 O399 1.986 . S
Mg392 O401 2.114 . S
Mg392 O402 2.251 . S
Mg392 O405 2.010 . S
O393 Mg392 2.028 . S
O393 C396 1.250 . S
O394 Mg395 2.028 . S
O394 C396 1.248 . S
Mg395 O394 2.028 . S
Mg395 O400 2.032 . S
Mg395 O402 2.079 . S
C396 O393 1.250 . S
C396 O394 1.248 . S
C397 O398 1.264 . S
C397 O405 1.249 . S
O398 C397 1.264 . S
O399 Mg392 1.986 . S
O399 C403 1.246 . S
O400 Mg395 2.032 . S
O400 C403 1.259 . S
O401 Mg392 2.114 . S
O401 C404 1.252 . S
O402 Mg392 2.251 . S
O402 Mg395 2.079 . S
O402 C404 1.273 . S
C403 O399 1.246 . S
C403 O400 1.259 . S
C404 O401 1.252 . S
C404 O402 1.273 . S
O405 Mg392 2.010 . S
O405 C397 1.249 . S
Mg406 O407 2.028 . S
Mg406 O413 1.986 . S
Mg406 O415 2.114 . S
Mg406 O416 2.251 . S
Mg406 O419 2.010 . S
O407 Mg406 2.028 . S
O407 C410 1.250 . S
O408 Mg409 2.028 . S
O408 C410 1.248 . S
Mg409 O408 2.028 . S
Mg409 O414 2.032 . S
Mg409 O416 2.079 . S
C410 O407 1.250 . S
C410 O408 1.248 . S
C411 O412 1.264 . S
C411 O419 1.249 . S
O412 C411 1.264 . S
O413 Mg406 1.986 . S
O413 C417 1.246 . S
O414 Mg409 2.032 . S
O414 C417 1.259 . S
O415 Mg406 2.114 . S
O415 C418 1.252 . S
O416 Mg406 2.251 . S
O416 Mg409 2.079 . S
O416 C418 1.273 . S
C417 O413 1.246 . S
C417 O414 1.259 . S
C418 O415 1.252 . S
C418 O416 1.273 . S
O419 Mg406 2.010 . S
O419 C411 1.249 . S
Mg420 O421 2.028 . S
Mg420 O427 1.986 . S
Mg420 O429 2.114 . S
Mg420 O430 2.251 . S
Mg420 O433 2.010 . S
O421 Mg420 2.028 . S
O421 C424 1.250 . S
O422 Mg423 2.028 . S
O422 C424 1.248 . S
Mg423 O422 2.028 . S
Mg423 O428 2.032 . S
Mg423 O430 2.079 . S
C424 O421 1.250 . S
C424 O422 1.248 . S
C425 O426 1.264 . S
C425 O433 1.249 . S
O426 C425 1.264 . S
O427 Mg420 1.986 . S
O427 C431 1.246 . S
O428 Mg423 2.032 . S
O428 C431 1.259 . S
O429 Mg420 2.114 . S
O429 C432 1.252 . S
O430 Mg420 2.251 . S
O430 Mg423 2.079 . S
O430 C432 1.273 . S
C431 O427 1.246 . S
C431 O428 1.259 . S
C432 O429 1.252 . S
C432 O430 1.273 . S
O433 Mg420 2.010 . S
O433 C425 1.249 . S
Mg434 O435 2.028 . S
Mg434 O441 1.986 . S
Mg434 O443 2.114 . S
Mg434 O444 2.251 . S
Mg434 O447 2.010 . S
O435 Mg434 2.028 . S
O435 C438 1.250 . S
O436 Mg437 2.028 . S
O436 C438 1.248 . S
Mg437 O436 2.028 . S
Mg437 O442 2.032 . S
Mg437 O444 2.079 . S
C438 O435 1.250 . S
C438 O436 1.248 . S
C439 O440 1.264 . S
C439 O447 1.249 . S
O440 C439 1.264 . S
O441 Mg434 1.986 . S
O441 C445 1.246 . S
O442 Mg437 2.032 . S
O442 C445 1.259 . S
O443 Mg434 2.114 . S
O443 C446 1.252 . S
O444 Mg434 2.251 . S
O444 Mg437 2.079 . S
O444 C446 1.273 . S
C445 O441 1.246 . S
C445 O442 1.259 . S
C446 O443 1.252 . S
C446 O444 1.273 . S
O447 Mg434 2.010 . S
O447 C439 1.249 . S
Mg448 O449 2.028 . S
Mg448 O455 1.986 . S
Mg448 O457 2.114 . S
Mg448 O458 2.251 . S
Mg448 O461 2.010 . S
O449 Mg448 2.028 . S
O449 C452 1.250 . S
O450 Mg451 2.028 . S
O450 C452 1.248 . S
Mg451 O450 2.028 . S
Mg451 O456 2.032 . S
Mg451 O458 2.079 . S
C452 O449 1.250 . S
C452 O450 1.248 . S
C453 O454 1.264 . S
C453 O461 1.249 . S
O454 C453 1.264 . S
O455 Mg448 1.986 . S
O455 C459 1.246 . S
O456 Mg451 2.032 . S
O456 C459 1.259 . S
O457 Mg448 2.114 . S
O457 C460 1.252 . S
O458 Mg448 2.251 . S
O458 Mg451 2.079 . S
O458 C460 1.273 . S
C459 O455 1.246 . S
C459 O456 1.259 . S
C460 O457 1.252 . S
C460 O458 1.273 . S
O461 Mg448 2.010 . S
O461 C453 1.249 . S
Mg462 O463 2.028 . S
Mg462 O469 1.986 . S
Mg462 O471 2.114 . S
Mg462 O472 2.251 . S
Mg462 O475 2.010 . S
O463 Mg462 2.028 . S
O463 C466 1.250 . S
O464 Mg465 2.028 . S
O464 C466 1.248 . S
Mg465 O464 2.028 . S
Mg465 O470 2.032 . S
Mg465 O472 2.079 . S
C466 O463 1.250 . S
C466 O464 1.248 . S
C467 O468 1.264 . S
C467 O475 1.249 . S
O468 C467 1.264 . S
O469 Mg462 1.986 . S
O469 C473 1.246 . S
O470 Mg465 2.032 . S
O470 C473 1.259 . S
O471 Mg462 2.114 . S
O471 C474 1.252 . S
O472 Mg462 2.251 . S
O472 Mg465 2.079 . S
O472 C474 1.273 . S
C473 O469 1.246 . S
C473 O470 1.259 . S
C474 O471 1.252 . S
C474 O472 1.273 . S
O475 Mg462 2.010 . S
O475 C467 1.249 . S
Mg476 O477 2.028 . S
Mg476 O483 1.986 . S
Mg476 O485 2.114 . S
Mg476 O486 2.251 . S
Mg476 O489 2.010 . S
O477 Mg476 2.028 . S
O477 C480 1.250 . S
O478 Mg479 2.028 . S
O478 C480 1.248 . S
Mg479 O478 2.028 . S
Mg479 O484 2.032 . S
Mg479 O486 2.079 . S
C480 O477 1.250 . S
C480 O478 1.248 . S
C481 O482 1.264 . S
C481 O489 1.249 . S
O482 C481 1.264 . S
O483 Mg476 1.986 . S
O483 C487 1.246 . S
O484 Mg479 2.032 . S
O484 C487 1.259 . S
O485 Mg476 2.114 . S
O485 C488 1.252 . S
O486 Mg476 2.251 . S
O486 Mg479 2.079 . S
O486 C488 1.273 . S
C487 O483 1.246 . S
C487 O484 1.259 . S
C488 O485 1.252 . S
C488 O486 1.273 . S
O489 Mg476 2.010 . S
O489 C481 1.249 . S
Mg490 O491 2.028 . S
Mg490 O497 1.986 . S
Mg490 O499 2.114 . S
Mg490 O500 2.251 . S
Mg490 O503 2.010 . S
O491 Mg490 2.028 . S
O491 C494 1.250 . S
O492 Mg493 2.028 . S
O492 C494 1.248 . S
Mg493 O492 2.028 . S
Mg493 O498 2.032 . S
Mg493 O500 2.079 . S
C494 O491 1.250 . S
C494 O492 1.248 . S
C495 O496 1.264 . S
C495 O503 1.249 . S
O496 C495 1.264 . S
O497 Mg490 1.986 . S
O497 C501 1.246 . S
O498 Mg493 2.032 . S
O498 C501 1.259 . S
O499 Mg490 2.114 . S
O499 C502 1.252 . S
O500 Mg490 2.251 . S
O500 Mg493 2.079 . S
O500 C502 1.273 . S
C501 O497 1.246 . S
C501 O498 1.259 . S
C502 O499 1.252 . S
C502 O500 1.273 . S
O503 Mg490 2.010 . S
O503 C495 1.249 . S
H504 C512 0.950 . S
H505 C517 0.950 . S
H506 C514 0.950 . S
H507 C516 0.950 . S
H508 C518 0.950 . S
H509 C520 0.950 . S
H510 C522 0.950 . S
H511 C523 0.950 . S
C512 H504 0.950 . S
C512 C513 1.386 . S
C512 C514 1.391 . S
C513 C512 1.386 . S
C513 C517 1.393 . S
C514 H506 0.950 . S
C514 C512 1.391 . S
C514 C515 1.400 . S
C515 C514 1.400 . S
C515 C516 1.398 . S
C515 C521 1.491 . S
C516 H507 0.950 . S
C516 C515 1.398 . S
C516 C517 1.391 . S
C517 H505 0.950 . S
C517 C513 1.393 . S
C517 C516 1.391 . S
C518 H508 0.950 . S
C518 C519 1.386 . S
C518 C520 1.391 . S
C519 C518 1.386 . S
C519 C523 1.393 . S
C520 H509 0.950 . S
C520 C518 1.391 . S
C520 C521 1.400 . S
C521 C515 1.491 . S
C521 C520 1.400 . S
C521 C522 1.398 . S
C522 H510 0.950 . S
C522 C521 1.398 . S
C522 C523 1.391 . S
C523 H511 0.950 . S
C523 C519 1.393 . S
C523 C522 1.391 . S
H524 C532 0.950 . S
H525 C537 0.950 1_556 S
H526 C534 0.950 . S
H527 C536 0.950 1_556 S
H528 C538 0.950 1_556 S
H529 C540 0.950 1_556 S
H530 C542 0.950 . S
H531 C543 0.950 . S
C532 H524 0.950 . S
C532 C533 1.386 . S
C532 C534 1.391 . S
C533 C532 1.386 . S
C533 C537 1.393 . S
C534 H526 0.950 . S
C534 C532 1.391 . S
C534 C535 1.400 . S
C535 C534 1.400 . S
C535 C536 1.398 . S
C535 C541 1.491 . S
C536 H527 0.950 1_554 S
C536 C535 1.398 . S
C536 C537 1.391 . S
C537 H525 0.950 1_554 S
C537 C533 1.393 . S
C537 C536 1.391 . S
C538 H528 0.950 1_554 S
C538 C539 1.386 . S
C538 C540 1.391 . S
C539 C538 1.386 . S
C539 C543 1.393 . S
C540 H529 0.950 1_554 S
C540 C538 1.391 . S
C540 C541 1.400 . S
C541 C535 1.491 . S
C541 C540 1.400 . S
C541 C542 1.398 . S
C542 H530 0.950 . S
C542 C541 1.398 . S
C542 C543 1.391 . S
C543 H531 0.950 . S
C543 C539 1.393 . S
C543 C542 1.391 . S
H544 C552 0.950 . S
H545 C557 0.950 . S
H546 C554 0.950 . S
H547 C556 0.950 . S
H548 C558 0.950 . S
H549 C560 0.950 . S
H550 C562 0.950 . S
H551 C563 0.950 . S
C552 H544 0.950 . S
C552 C553 1.386 . S
C552 C554 1.391 . S
C553 C552 1.386 . S
C553 C557 1.393 . S
C554 H546 0.950 . S
C554 C552 1.391 . S
C554 C555 1.400 . S
C555 C554 1.400 . S
C555 C556 1.398 . S
C555 C561 1.491 . S
C556 H547 0.950 . S
C556 C555 1.398 . S
C556 C557 1.391 . S
C557 H545 0.950 . S
C557 C553 1.393 . S
C557 C556 1.391 . S
C558 H548 0.950 . S
C558 C559 1.386 . S
C558 C560 1.391 . S
C559 C558 1.386 . S
C559 C563 1.393 . S
C560 H549 0.950 . S
C560 C558 1.391 . S
C560 C561 1.400 . S
C561 C555 1.491 . S
C561 C560 1.400 . S
C561 C562 1.398 . S
C562 H550 0.950 . S
C562 C561 1.398 . S
C562 C563 1.391 . S
C563 H551 0.950 . S
C563 C559 1.393 . S
C563 C562 1.391 . S
H564 C572 0.950 . S
H565 C577 0.950 1_554 S
H566 C574 0.950 . S
H567 C576 0.950 1_554 S
H568 C578 0.950 1_554 S
H569 C580 0.950 1_554 S
H570 C582 0.950 . S
H571 C583 0.950 . S
C572 H564 0.950 . S
C572 C573 1.386 . S
C572 C574 1.391 . S
C573 C572 1.386 . S
C573 C577 1.393 . S
C574 H566 0.950 . S
C574 C572 1.391 . S
C574 C575 1.400 . S
C575 C574 1.400 . S
C575 C576 1.398 . S
C575 C581 1.491 . S
C576 H567 0.950 1_556 S
C576 C575 1.398 . S
C576 C577 1.391 . S
C577 H565 0.950 1_556 S
C577 C573 1.393 . S
C577 C576 1.391 . S
C578 H568 0.950 1_556 S
C578 C579 1.386 . S
C578 C580 1.391 . S
C579 C578 1.386 . S
C579 C583 1.393 . S
C580 H569 0.950 1_556 S
C580 C578 1.391 . S
C580 C581 1.400 . S
C581 C575 1.491 . S
C581 C580 1.400 . S
C581 C582 1.398 . S
C582 H570 0.950 . S
C582 C581 1.398 . S
C582 C583 1.391 . S
C583 H571 0.950 . S
C583 C579 1.393 . S
C583 C582 1.391 . S
H584 C592 0.950 . S
H585 C597 0.950 . S
H586 C594 0.950 . S
H587 C596 0.950 . S
H588 C598 0.950 . S
H589 C600 0.950 . S
H590 C602 0.950 . S
H591 C603 0.950 . S
C592 H584 0.950 . S
C592 C593 1.386 . S
C592 C594 1.391 . S
C593 C592 1.386 . S
C593 C597 1.393 . S
C594 H586 0.950 . S
C594 C592 1.391 . S
C594 C595 1.400 . S
C595 C594 1.400 . S
C595 C596 1.398 . S
C595 C601 1.491 . S
C596 H587 0.950 . S
C596 C595 1.398 . S
C596 C597 1.391 . S
C597 H585 0.950 . S
C597 C593 1.393 . S
C597 C596 1.391 . S
C598 H588 0.950 . S
C598 C599 1.386 . S
C598 C600 1.391 . S
C599 C598 1.386 . S
C599 C603 1.393 . S
C600 H589 0.950 . S
C600 C598 1.391 . S
C600 C601 1.400 . S
C601 C595 1.491 . S
C601 C600 1.400 . S
C601 C602 1.398 . S
C602 H590 0.950 . S
C602 C601 1.398 . S
C602 C603 1.391 . S
C603 H591 0.950 . S
C603 C599 1.393 . S
C603 C602 1.391 . S
H604 C612 0.950 . S
H605 C617 0.950 . S
H606 C614 0.950 . S
H607 C616 0.950 . S
H608 C618 0.950 . S
H609 C620 0.950 . S
H610 C622 0.950 . S
H611 C623 0.950 . S
C612 H604 0.950 . S
C612 C613 1.386 . S
C612 C614 1.391 . S
C613 C612 1.386 . S
C613 C617 1.393 . S
C614 H606 0.950 . S
C614 C612 1.391 . S
C614 C615 1.400 . S
C615 C614 1.400 . S
C615 C616 1.398 . S
C615 C621 1.491 . S
C616 H607 0.950 . S
C616 C615 1.398 . S
C616 C617 1.391 . S
C617 H605 0.950 . S
C617 C613 1.393 . S
C617 C616 1.391 . S
C618 H608 0.950 . S
C618 C619 1.386 . S
C618 C620 1.391 . S
C619 C618 1.386 . S
C619 C623 1.393 . S
C620 H609 0.950 . S
C620 C618 1.391 . S
C620 C621 1.400 . S
C621 C615 1.491 . S
C621 C620 1.400 . S
C621 C622 1.398 . S
C622 H610 0.950 . S
C622 C621 1.398 . S
C622 C623 1.391 . S
C623 H611 0.950 . S
C623 C619 1.393 . S
C623 C622 1.391 . S
H624 C632 0.950 . S
H625 C637 0.950 . S
H626 C634 0.950 . S
H627 C636 0.950 . S
H628 C638 0.950 . S
H629 C640 0.950 . S
H630 C642 0.950 . S
H631 C643 0.950 . S
C632 H624 0.950 . S
C632 C633 1.386 . S
C632 C634 1.391 . S
C633 C632 1.386 . S
C633 C637 1.393 . S
C634 H626 0.950 . S
C634 C632 1.391 . S
C634 C635 1.400 . S
C635 C634 1.400 . S
C635 C636 1.398 . S
C635 C641 1.491 . S
C636 H627 0.950 . S
C636 C635 1.398 . S
C636 C637 1.391 . S
C637 H625 0.950 . S
C637 C633 1.393 . S
C637 C636 1.391 . S
C638 H628 0.950 . S
C638 C639 1.386 . S
C638 C640 1.391 . S
C639 C638 1.386 . S
C639 C643 1.393 . S
C640 H629 0.950 . S
C640 C638 1.391 . S
C640 C641 1.400 . S
C641 C635 1.491 . S
C641 C640 1.400 . S
C641 C642 1.398 . S
C642 H630 0.950 . S
C642 C641 1.398 . S
C642 C643 1.391 . S
C643 H631 0.950 . S
C643 C639 1.393 . S
C643 C642 1.391 . S
H644 C652 0.950 . S
H645 C657 0.950 . S
H646 C654 0.950 . S
H647 C656 0.950 . S
H648 C658 0.950 . S
H649 C660 0.950 . S
H650 C662 0.950 . S
H651 C663 0.950 . S
C652 H644 0.950 . S
C652 C653 1.386 . S
C652 C654 1.391 . S
C653 C652 1.386 . S
C653 C657 1.393 . S
C654 H646 0.950 . S
C654 C652 1.391 . S
C654 C655 1.400 . S
C655 C654 1.400 . S
C655 C656 1.398 . S
C655 C661 1.491 . S
C656 H647 0.950 . S
C656 C655 1.398 . S
C656 C657 1.391 . S
C657 H645 0.950 . S
C657 C653 1.393 . S
C657 C656 1.391 . S
C658 H648 0.950 . S
C658 C659 1.386 . S
C658 C660 1.391 . S
C659 C658 1.386 . S
C659 C663 1.393 . S
C660 H649 0.950 . S
C660 C658 1.391 . S
C660 C661 1.400 . S
C661 C655 1.491 . S
C661 C660 1.400 . S
C661 C662 1.398 . S
C662 H650 0.950 . S
C662 C661 1.398 . S
C662 C663 1.391 . S
C663 H651 0.950 . S
C663 C659 1.393 . S
C663 C662 1.391 . S
H664 C672 0.950 . S
H665 C677 0.950 . S
H666 C674 0.950 . S
H667 C676 0.950 . S
H668 C678 0.950 . S
H669 C680 0.950 . S
H670 C682 0.950 . S
H671 C683 0.950 . S
C672 H664 0.950 . S
C672 C673 1.386 . S
C672 C674 1.391 . S
C673 C672 1.386 . S
C673 C677 1.393 . S
C674 H666 0.950 . S
C674 C672 1.391 . S
C674 C675 1.400 . S
C675 C674 1.400 . S
C675 C676 1.398 . S
C675 C681 1.491 . S
C676 H667 0.950 . S
C676 C675 1.398 . S
C676 C677 1.391 . S
C677 H665 0.950 . S
C677 C673 1.393 . S
C677 C676 1.391 . S
C678 H668 0.950 . S
C678 C679 1.386 . S
C678 C680 1.391 . S
C679 C678 1.386 . S
C679 C683 1.393 . S
C680 H669 0.950 . S
C680 C678 1.391 . S
C680 C681 1.400 . S
C681 C675 1.491 . S
C681 C680 1.400 . S
C681 C682 1.398 . S
C682 H670 0.950 . S
C682 C681 1.398 . S
C682 C683 1.391 . S
C683 H671 0.950 . S
C683 C679 1.393 . S
C683 C682 1.391 . S
H684 C692 0.950 . S
H685 C697 0.950 . S
H686 C694 0.950 . S
H687 C696 0.950 . S
H688 C698 0.950 . S
H689 C700 0.950 . S
H690 C702 0.950 . S
H691 C703 0.950 . S
C692 H684 0.950 . S
C692 C693 1.386 . S
C692 C694 1.391 . S
C693 C692 1.386 . S
C693 C697 1.393 . S
C694 H686 0.950 . S
C694 C692 1.391 . S
C694 C695 1.400 . S
C695 C694 1.400 . S
C695 C696 1.398 . S
C695 C701 1.491 . S
C696 H687 0.950 . S
C696 C695 1.398 . S
C696 C697 1.391 . S
C697 H685 0.950 . S
C697 C693 1.393 . S
C697 C696 1.391 . S
C698 H688 0.950 . S
C698 C699 1.386 . S
C698 C700 1.391 . S
C699 C698 1.386 . S
C699 C703 1.393 . S
C700 H689 0.950 . S
C700 C698 1.391 . S
C700 C701 1.400 . S
C701 C695 1.491 . S
C701 C700 1.400 . S
C701 C702 1.398 . S
C702 H690 0.950 . S
C702 C701 1.398 . S
C702 C703 1.391 . S
C703 H691 0.950 . S
C703 C699 1.393 . S
C703 C702 1.391 . S
H704 C712 0.950 . S
H705 C717 0.950 . S
H706 C714 0.950 . S
H707 C716 0.950 . S
H708 C718 0.950 . S
H709 C720 0.950 . S
H710 C722 0.950 . S
H711 C723 0.950 . S
C712 H704 0.950 . S
C712 C713 1.386 . S
C712 C714 1.391 . S
C713 C712 1.386 . S
C713 C717 1.393 . S
C714 H706 0.950 . S
C714 C712 1.391 . S
C714 C715 1.400 . S
C715 C714 1.400 . S
C715 C716 1.398 . S
C715 C721 1.491 . S
C716 H707 0.950 . S
C716 C715 1.398 . S
C716 C717 1.391 . S
C717 H705 0.950 . S
C717 C713 1.393 . S
C717 C716 1.391 . S
C718 H708 0.950 . S
C718 C719 1.386 . S
C718 C720 1.391 . S
C719 C718 1.386 . S
C719 C723 1.393 . S
C720 H709 0.950 . S
C720 C718 1.391 . S
C720 C721 1.400 . S
C721 C715 1.491 . S
C721 C720 1.400 . S
C721 C722 1.398 . S
C722 H710 0.950 . S
C722 C721 1.398 . S
C722 C723 1.391 . S
C723 H711 0.950 . S
C723 C719 1.393 . S
C723 C722 1.391 . S
H724 C732 0.950 . S
H725 C737 0.950 . S
H726 C734 0.950 . S
H727 C736 0.950 . S
H728 C738 0.950 . S
H729 C740 0.950 . S
H730 C742 0.950 . S
H731 C743 0.950 . S
C732 H724 0.950 . S
C732 C733 1.386 . S
C732 C734 1.391 . S
C733 C732 1.386 . S
C733 C737 1.393 . S
C734 H726 0.950 . S
C734 C732 1.391 . S
C734 C735 1.400 . S
C735 C734 1.400 . S
C735 C736 1.398 . S
C735 C741 1.491 . S
C736 H727 0.950 . S
C736 C735 1.398 . S
C736 C737 1.391 . S
C737 H725 0.950 . S
C737 C733 1.393 . S
C737 C736 1.391 . S
C738 H728 0.950 . S
C738 C739 1.386 . S
C738 C740 1.391 . S
C739 C738 1.386 . S
C739 C743 1.393 . S
C740 H729 0.950 . S
C740 C738 1.391 . S
C740 C741 1.400 . S
C741 C735 1.491 . S
C741 C740 1.400 . S
C741 C742 1.398 . S
C742 H730 0.950 . S
C742 C741 1.398 . S
C742 C743 1.391 . S
C743 H731 0.950 . S
C743 C739 1.393 . S
C743 C742 1.391 . S
H744 C752 0.950 . S
H745 C757 0.950 . S
H746 C754 0.950 . S
H747 C756 0.950 . S
H748 C758 0.950 . S
H749 C760 0.950 . S
H750 C762 0.950 . S
H751 C763 0.950 . S
C752 H744 0.950 . S
C752 C753 1.386 . S
C752 C754 1.391 . S
C753 C752 1.386 . S
C753 C757 1.393 . S
C754 H746 0.950 . S
C754 C752 1.391 . S
C754 C755 1.400 . S
C755 C754 1.400 . S
C755 C756 1.398 . S
C755 C761 1.491 . S
C756 H747 0.950 . S
C756 C755 1.398 . S
C756 C757 1.391 . S
C757 H745 0.950 . S
C757 C753 1.393 . S
C757 C756 1.391 . S
C758 H748 0.950 . S
C758 C759 1.386 . S
C758 C760 1.391 . S
C759 C758 1.386 . S
C759 C763 1.393 . S
C760 H749 0.950 . S
C760 C758 1.391 . S
C760 C761 1.400 . S
C761 C755 1.491 . S
C761 C760 1.400 . S
C761 C762 1.398 . S
C762 H750 0.950 . S
C762 C761 1.398 . S
C762 C763 1.391 . S
C763 H751 0.950 . S
C763 C759 1.393 . S
C763 C762 1.391 . S
H764 C772 0.950 . S
H765 C777 0.950 . S
H766 C774 0.950 . S
H767 C776 0.950 . S
H768 C778 0.950 . S
H769 C780 0.950 . S
H770 C782 0.950 . S
H771 C783 0.950 . S
C772 H764 0.950 . S
C772 C773 1.386 . S
C772 C774 1.391 . S
C773 C772 1.386 . S
C773 C777 1.393 . S
C774 H766 0.950 . S
C774 C772 1.391 . S
C774 C775 1.400 . S
C775 C774 1.400 . S
C775 C776 1.398 . S
C775 C781 1.491 . S
C776 H767 0.950 . S
C776 C775 1.398 . S
C776 C777 1.391 . S
C777 H765 0.950 . S
C777 C773 1.393 . S
C777 C776 1.391 . S
C778 H768 0.950 . S
C778 C779 1.386 . S
C778 C780 1.391 . S
C779 C778 1.386 . S
C779 C783 1.393 . S
C780 H769 0.950 . S
C780 C778 1.391 . S
C780 C781 1.400 . S
C781 C775 1.491 . S
C781 C780 1.400 . S
C781 C782 1.398 . S
C782 H770 0.950 . S
C782 C781 1.398 . S
C782 C783 1.391 . S
C783 H771 0.950 . S
C783 C779 1.393 . S
C783 C782 1.391 . S
H784 C792 0.950 . S
H785 C797 0.950 . S
H786 C794 0.950 . S
H787 C796 0.950 . S
H788 C798 0.950 . S
H789 C800 0.950 . S
H790 C802 0.950 . S
H791 C803 0.950 . S
C792 H784 0.950 . S
C792 C793 1.386 . S
C792 C794 1.391 . S
C793 C792 1.386 . S
C793 C797 1.393 . S
C794 H786 0.950 . S
C794 C792 1.391 . S
C794 C795 1.400 . S
C795 C794 1.400 . S
C795 C796 1.398 . S
C795 C801 1.491 . S
C796 H787 0.950 . S
C796 C795 1.398 . S
C796 C797 1.391 . S
C797 H785 0.950 . S
C797 C793 1.393 . S
C797 C796 1.391 . S
C798 H788 0.950 . S
C798 C799 1.386 . S
C798 C800 1.391 . S
C799 C798 1.386 . S
C799 C803 1.393 . S
C800 H789 0.950 . S
C800 C798 1.391 . S
C800 C801 1.400 . S
C801 C795 1.491 . S
C801 C800 1.400 . S
C801 C802 1.398 . S
C802 H790 0.950 . S
C802 C801 1.398 . S
C802 C803 1.391 . S
C803 H791 0.950 . S
C803 C799 1.393 . S
C803 C802 1.391 . S
H804 C812 0.950 . S
H805 C817 0.950 . S
H806 C814 0.950 . S
H807 C816 0.950 . S
H808 C818 0.950 . S
H809 C820 0.950 . S
H810 C822 0.950 . S
H811 C823 0.950 . S
C812 H804 0.950 . S
C812 C813 1.386 . S
C812 C814 1.391 . S
C813 C812 1.386 . S
C813 C817 1.393 . S
C814 H806 0.950 . S
C814 C812 1.391 . S
C814 C815 1.400 . S
C815 C814 1.400 . S
C815 C816 1.398 . S
C815 C821 1.491 . S
C816 H807 0.950 . S
C816 C815 1.398 . S
C816 C817 1.391 . S
C817 H805 0.950 . S
C817 C813 1.393 . S
C817 C816 1.391 . S
C818 H808 0.950 . S
C818 C819 1.386 . S
C818 C820 1.391 . S
C819 C818 1.386 . S
C819 C823 1.393 . S
C820 H809 0.950 . S
C820 C818 1.391 . S
C820 C821 1.400 . S
C821 C815 1.491 . S
C821 C820 1.400 . S
C821 C822 1.398 . S
C822 H810 0.950 . S
C822 C821 1.398 . S
C822 C823 1.391 . S
C823 H811 0.950 . S
C823 C819 1.393 . S
C823 C822 1.391 . S
H824 C832 0.950 . S
H825 C837 0.950 . S
H826 C834 0.950 . S
H827 C836 0.950 . S
H828 C838 0.950 . S
H829 C840 0.950 . S
H830 C842 0.950 . S
H831 C843 0.950 . S
C832 H824 0.950 . S
C832 C833 1.386 . S
C832 C834 1.391 . S
C833 C832 1.386 . S
C833 C837 1.393 . S
C834 H826 0.950 . S
C834 C832 1.391 . S
C834 C835 1.400 . S
C835 C834 1.400 . S
C835 C836 1.398 . S
C835 C841 1.491 . S
C836 H827 0.950 . S
C836 C835 1.398 . S
C836 C837 1.391 . S
C837 H825 0.950 . S
C837 C833 1.393 . S
C837 C836 1.391 . S
C838 H828 0.950 . S
C838 C839 1.386 . S
C838 C840 1.391 . S
C839 C838 1.386 . S
C839 C843 1.393 . S
C840 H829 0.950 . S
C840 C838 1.391 . S
C840 C841 1.400 . S
C841 C835 1.491 . S
C841 C840 1.400 . S
C841 C842 1.398 . S
C842 H830 0.950 . S
C842 C841 1.398 . S
C842 C843 1.391 . S
C843 H831 0.950 . S
C843 C839 1.393 . S
C843 C842 1.391 . S
H844 C852 0.950 . S
H845 C857 0.950 . S
H846 C854 0.950 . S
H847 C856 0.950 . S
H848 C858 0.950 . S
H849 C860 0.950 . S
H850 C862 0.950 . S
H851 C863 0.950 . S
C852 H844 0.950 . S
C852 C853 1.386 . S
C852 C854 1.391 . S
C853 C852 1.386 . S
C853 C857 1.393 . S
C854 H846 0.950 . S
C854 C852 1.391 . S
C854 C855 1.400 . S
C855 C854 1.400 . S
C855 C856 1.398 . S
C855 C861 1.491 . S
C856 H847 0.950 . S
C856 C855 1.398 . S
C856 C857 1.391 . S
C857 H845 0.950 . S
C857 C853 1.393 . S
C857 C856 1.391 . S
C858 H848 0.950 . S
C858 C859 1.386 . S
C858 C860 1.391 . S
C859 C858 1.386 . S
C859 C863 1.393 . S
C860 H849 0.950 . S
C860 C858 1.391 . S
C860 C861 1.400 . S
C861 C855 1.491 . S
C861 C860 1.400 . S
C861 C862 1.398 . S
C862 H850 0.950 . S
C862 C861 1.398 . S
C862 C863 1.391 . S
C863 H851 0.950 . S
C863 C859 1.393 . S
C863 C862 1.391 . S
H864 C872 0.950 . S
H865 C877 0.950 1_556 S
H866 C874 0.950 . S
H867 C876 0.950 . S
H868 C878 0.950 . S
H869 C880 0.950 . S
H870 C882 0.950 . S
H871 C883 0.950 1_554 S
C872 H864 0.950 . S
C872 C873 1.386 . S
C872 C874 1.391 . S
C873 C872 1.386 . S
C873 C877 1.393 . S
C874 H866 0.950 . S
C874 C872 1.391 . S
C874 C875 1.400 . S
C875 C874 1.400 . S
C875 C876 1.398 1_554 S
C875 C881 1.491 1_454 S
C876 H867 0.950 . S
C876 C875 1.398 1_556 S
C876 C877 1.391 1_556 S
C877 H865 0.950 1_554 S
C877 C873 1.393 . S
C877 C876 1.391 1_554 S
C878 H868 0.950 . S
C878 C879 1.386 . S
C878 C880 1.391 . S
C879 C878 1.386 . S
C879 C883 1.393 . S
C880 H869 0.950 . S
C880 C878 1.391 . S
C880 C881 1.400 . S
C881 C875 1.491 1_656 S
C881 C880 1.400 . S
C881 C882 1.398 1_556 S
C882 H870 0.950 . S
C882 C881 1.398 1_554 S
C882 C883 1.391 1_554 S
C883 H871 0.950 1_556 S
C883 C879 1.393 . S
C883 C882 1.391 1_556 S
H884 C892 0.950 . S
H885 C897 0.950 . S
H886 C894 0.950 . S
H887 C896 0.950 . S
H888 C898 0.950 . S
H889 C900 0.950 . S
H890 C902 0.950 . S
H891 C903 0.950 . S
C892 H884 0.950 . S
C892 C893 1.386 . S
C892 C894 1.391 . S
C893 C892 1.386 . S
C893 C897 1.393 1_556 S
C894 H886 0.950 . S
C894 C892 1.391 . S
C894 C895 1.400 . S
C895 C894 1.400 . S
C895 C896 1.398 1_556 S
C895 C901 1.491 1_556 S
C896 H887 0.950 . S
C896 C895 1.398 1_554 S
C896 C897 1.391 . S
C897 H885 0.950 . S
C897 C893 1.393 1_554 S
C897 C896 1.391 . S
C898 H888 0.950 . S
C898 C899 1.386 . S
C898 C900 1.391 . S
C899 C898 1.386 . S
C899 C903 1.393 1_554 S
C900 H889 0.950 . S
C900 C898 1.391 . S
C900 C901 1.400 . S
C901 C895 1.491 1_554 S
C901 C900 1.400 . S
C901 C902 1.398 1_554 S
C902 H890 0.950 . S
C902 C901 1.398 1_556 S
C902 C903 1.391 . S
C903 H891 0.950 . S
C903 C899 1.393 1_556 S
C903 C902 1.391 . S
H904 C912 0.950 . S
H905 C917 0.950 . S
H906 C914 0.950 . S
H907 C916 0.950 . S
H908 C918 0.950 . S
H909 C920 0.950 . S
H910 C922 0.950 . S
H911 C923 0.950 . S
C912 H904 0.950 . S
C912 C913 1.386 . S
C912 C914 1.391 . S
C913 C912 1.386 . S
C913 C917 1.393 1_554 S
C914 H906 0.950 . S
C914 C912 1.391 . S
C914 C915 1.400 . S
C915 C914 1.400 . S
C915 C916 1.398 1_554 S
C915 C921 1.491 1_564 S
C916 H907 0.950 . S
C916 C915 1.398 1_556 S
C916 C917 1.391 . S
C917 H905 0.950 . S
C917 C913 1.393 1_556 S
C917 C916 1.391 . S
C918 H908 0.950 . S
C918 C919 1.386 . S
C918 C920 1.391 . S
C919 C918 1.386 . S
C919 C923 1.393 1_556 S
C920 H909 0.950 . S
C920 C918 1.391 . S
C920 C921 1.400 . S
C921 C915 1.491 1_546 S
C921 C920 1.400 . S
C921 C922 1.398 1_556 S
C922 H910 0.950 . S
C922 C921 1.398 1_554 S
C922 C923 1.391 . S
C923 H911 0.950 . S
C923 C919 1.393 1_554 S
C923 C922 1.391 . S
H924 C932 0.950 . S
H925 C937 0.950 . S
H926 C934 0.950 . S
H927 C936 0.950 . S
H928 C938 0.950 . S
H929 C940 0.950 . S
H930 C942 0.950 . S
H931 C943 0.950 . S
C932 H924 0.950 . S
C932 C933 1.386 . S
C932 C934 1.391 . S
C933 C932 1.386 . S
C933 C937 1.393 1_556 S
C934 H926 0.950 . S
C934 C932 1.391 . S
C934 C935 1.400 . S
C935 C934 1.400 . S
C935 C936 1.398 1_556 S
C935 C941 1.491 1_656 S
C936 H927 0.950 . S
C936 C935 1.398 1_554 S
C936 C937 1.391 . S
C937 H925 0.950 . S
C937 C933 1.393 1_554 S
C937 C936 1.391 . S
C938 H928 0.950 . S
C938 C939 1.386 . S
C938 C940 1.391 . S
C939 C938 1.386 . S
C939 C943 1.393 1_554 S
C940 H929 0.950 . S
C940 C938 1.391 . S
C940 C941 1.400 . S
C941 C935 1.491 1_454 S
C941 C940 1.400 . S
C941 C942 1.398 1_554 S
C942 H930 0.950 . S
C942 C941 1.398 1_556 S
C942 C943 1.391 . S
C943 H931 0.950 . S
C943 C939 1.393 1_556 S
C943 C942 1.391 . S
H944 C952 0.950 . S
H945 C957 0.950 . S
H946 C954 0.950 . S
H947 C956 0.950 . S
H948 C958 0.950 . S
H949 C960 0.950 . S
H950 C962 0.950 . S
H951 C963 0.950 . S
C952 H944 0.950 . S
C952 C953 1.386 1_554 S
C952 C954 1.391 . S
C953 C952 1.386 1_556 S
C953 C957 1.393 . S
C954 H946 0.950 . S
C954 C952 1.391 . S
C954 C955 1.400 1_554 S
C955 C954 1.400 1_556 S
C955 C956 1.398 . S
C955 C961 1.491 1_556 S
C956 H947 0.950 . S
C956 C955 1.398 . S
C956 C957 1.391 . S
C957 H945 0.950 . S
C957 C953 1.393 . S
C957 C956 1.391 . S
C958 H948 0.950 . S
C958 C959 1.386 1_556 S
C958 C960 1.391 . S
C959 C958 1.386 1_554 S
C959 C963 1.393 . S
C960 H949 0.950 . S
C960 C958 1.391 . S
C960 C961 1.400 1_556 S
C961 C955 1.491 1_554 S
C961 C960 1.400 1_554 S
C961 C962 1.398 . S
C962 H950 0.950 . S
C962 C961 1.398 . S
C962 C963 1.391 . S
C963 H951 0.950 . S
C963 C959 1.393 . S
C963 C962 1.391 . S
H964 C972 0.950 . S
H965 C977 0.950 . S
H966 C974 0.950 . S
H967 C976 0.950 . S
H968 C978 0.950 . S
H969 C980 0.950 . S
H970 C982 0.950 . S
H971 C983 0.950 . S
C972 H964 0.950 . S
C972 C973 1.386 . S
C972 C974 1.391 . S
C973 C972 1.386 . S
C973 C977 1.393 1_556 S
C974 H966 0.950 . S
C974 C972 1.391 . S
C974 C975 1.400 . S
C975 C974 1.400 . S
C975 C976 1.398 1_556 S
C975 C981 1.491 1_546 S
C976 H967 0.950 . S
C976 C975 1.398 1_554 S
C976 C977 1.391 . S
C977 H965 0.950 . S
C977 C973 1.393 1_554 S
C977 C976 1.391 . S
C978 H968 0.950 . S
C978 C979 1.386 . S
C978 C980 1.391 . S
C979 C978 1.386 . S
C979 C983 1.393 1_554 S
C980 H969 0.950 . S
C980 C978 1.391 . S
C980 C981 1.400 . S
C981 C975 1.491 1_564 S
C981 C980 1.400 . S
C981 C982 1.398 1_554 S
C982 H970 0.950 . S
C982 C981 1.398 1_556 S
C982 C983 1.391 . S
C983 H971 0.950 . S
C983 C979 1.393 1_556 S
C983 C982 1.391 . S
H984 C992 0.950 . S
H985 C997 0.950 . S
H986 C994 0.950 . S
H987 C996 0.950 . S
H988 C998 0.950 . S
H989 C1000 0.950 . S
H990 C1002 0.950 . S
H991 C1003 0.950 . S
C992 H984 0.950 . S
C992 C993 1.386 . S
C992 C994 1.391 . S
C993 C992 1.386 . S
C993 C997 1.393 . S
C994 H986 0.950 . S
C994 C992 1.391 . S
C994 C995 1.400 . S
C995 C994 1.400 . S
C995 C996 1.398 . S
C995 C1001 1.491 . S
C996 H987 0.950 . S
C996 C995 1.398 . S
C996 C997 1.391 . S
C997 H985 0.950 . S
C997 C993 1.393 . S
C997 C996 1.391 . S
C998 H988 0.950 . S
C998 C999 1.386 . S
C998 C1000 1.391 . S
C999 C998 1.386 . S
C999 C1003 1.393 . S
C1000 H989 0.950 . S
C1000 C998 1.391 . S
C1000 C1001 1.400 . S
C1001 C995 1.491 . S
C1001 C1000 1.400 . S
C1001 C1002 1.398 . S
C1002 H990 0.950 . S
C1002 C1001 1.398 . S
C1002 C1003 1.391 . S
C1003 H991 0.950 . S
C1003 C999 1.393 . S
C1003 C1002 1.391 . S
H1004 C1012 0.950 . S
H1005 C1017 0.950 . S
H1006 C1014 0.950 . S
H1007 C1016 0.950 . S
H1008 C1018 0.950 . S
H1009 C1020 0.950 . S
H1010 C1022 0.950 . S
H1011 C1023 0.950 . S
C1012 H1004 0.950 . S
C1012 C1013 1.386 . S
C1012 C1014 1.391 . S
C1013 C1012 1.386 . S
C1013 C1017 1.393 . S
C1014 H1006 0.950 . S
C1014 C1012 1.391 . S
C1014 C1015 1.400 . S
C1015 C1014 1.400 . S
C1015 C1016 1.398 . S
C1015 C1021 1.491 . S
C1016 H1007 0.950 . S
C1016 C1015 1.398 . S
C1016 C1017 1.391 . S
C1017 H1005 0.950 . S
C1017 C1013 1.393 . S
C1017 C1016 1.391 . S
C1018 H1008 0.950 . S
C1018 C1019 1.386 . S
C1018 C1020 1.391 . S
C1019 C1018 1.386 . S
C1019 C1023 1.393 . S
C1020 H1009 0.950 . S
C1020 C1018 1.391 . S
C1020 C1021 1.400 . S
C1021 C1015 1.491 . S
C1021 C1020 1.400 . S
C1021 C1022 1.398 . S
C1022 H1010 0.950 . S
C1022 C1021 1.398 . S
C1022 C1023 1.391 . S
C1023 H1011 0.950 . S
C1023 C1019 1.393 . S
C1023 C1022 1.391 . S
H1024 C1032 0.950 . S
H1025 C1037 0.950 . S
H1026 C1034 0.950 . S
H1027 C1036 0.950 . S
H1028 C1038 0.950 . S
H1029 C1040 0.950 . S
H1030 C1042 0.950 . S
H1031 C1043 0.950 . S
C1032 H1024 0.950 . S
C1032 C1033 1.386 . S
C1032 C1034 1.391 . S
C1033 C1032 1.386 . S
C1033 C1037 1.393 . S
C1034 H1026 0.950 . S
C1034 C1032 1.391 . S
C1034 C1035 1.400 . S
C1035 C1034 1.400 . S
C1035 C1036 1.398 . S
C1035 C1041 1.491 . S
C1036 H1027 0.950 . S
C1036 C1035 1.398 . S
C1036 C1037 1.391 . S
C1037 H1025 0.950 . S
C1037 C1033 1.393 . S
C1037 C1036 1.391 . S
C1038 H1028 0.950 . S
C1038 C1039 1.386 . S
C1038 C1040 1.391 . S
C1039 C1038 1.386 . S
C1039 C1043 1.393 . S
C1040 H1029 0.950 . S
C1040 C1038 1.391 . S
C1040 C1041 1.400 . S
C1041 C1035 1.491 . S
C1041 C1040 1.400 . S
C1041 C1042 1.398 . S
C1042 H1030 0.950 . S
C1042 C1041 1.398 . S
C1042 C1043 1.391 . S
C1043 H1031 0.950 . S
C1043 C1039 1.393 . S
C1043 C1042 1.391 . S
H1044 C1052 0.950 . S
H1045 C1057 0.950 . S
H1046 C1054 0.950 . S
H1047 C1056 0.950 . S
H1048 C1058 0.950 . S
H1049 C1060 0.950 . S
H1050 C1062 0.950 . S
H1051 C1063 0.950 . S
C1052 H1044 0.950 . S
C1052 C1053 1.386 . S
C1052 C1054 1.391 . S
C1053 C1052 1.386 . S
C1053 C1057 1.393 . S
C1054 H1046 0.950 . S
C1054 C1052 1.391 . S
C1054 C1055 1.400 . S
C1055 C1054 1.400 . S
C1055 C1056 1.398 . S
C1055 C1061 1.491 . S
C1056 H1047 0.950 . S
C1056 C1055 1.398 . S
C1056 C1057 1.391 . S
C1057 H1045 0.950 . S
C1057 C1053 1.393 . S
C1057 C1056 1.391 . S
C1058 H1048 0.950 . S
C1058 C1059 1.386 . S
C1058 C1060 1.391 . S
C1059 C1058 1.386 . S
C1059 C1063 1.393 . S
C1060 H1049 0.950 . S
C1060 C1058 1.391 . S
C1060 C1061 1.400 . S
C1061 C1055 1.491 . S
C1061 C1060 1.400 . S
C1061 C1062 1.398 . S
C1062 H1050 0.950 . S
C1062 C1061 1.398 . S
C1062 C1063 1.391 . S
C1063 H1051 0.950 . S
C1063 C1059 1.393 . S
C1063 C1062 1.391 . S
H1064 C1072 0.950 . S
H1065 C1077 0.950 . S
H1066 C1074 0.950 . S
H1067 C1076 0.950 . S
H1068 C1078 0.950 . S
H1069 C1080 0.950 . S
H1070 C1082 0.950 . S
H1071 C1083 0.950 . S
C1072 H1064 0.950 . S
C1072 C1073 1.386 . S
C1072 C1074 1.391 . S
C1073 C1072 1.386 . S
C1073 C1077 1.393 . S
C1074 H1066 0.950 . S
C1074 C1072 1.391 . S
C1074 C1075 1.400 . S
C1075 C1074 1.400 . S
C1075 C1076 1.398 . S
C1075 C1081 1.491 . S
C1076 H1067 0.950 . S
C1076 C1075 1.398 . S
C1076 C1077 1.391 . S
C1077 H1065 0.950 . S
C1077 C1073 1.393 . S
C1077 C1076 1.391 . S
C1078 H1068 0.950 . S
C1078 C1079 1.386 . S
C1078 C1080 1.391 . S
C1079 C1078 1.386 . S
C1079 C1083 1.393 . S
C1080 H1069 0.950 . S
C1080 C1078 1.391 . S
C1080 C1081 1.400 . S
C1081 C1075 1.491 . S
C1081 C1080 1.400 . S
C1081 C1082 1.398 . S
C1082 H1070 0.950 . S
C1082 C1081 1.398 . S
C1082 C1083 1.391 . S
C1083 H1071 0.950 . S
C1083 C1079 1.393 . S
C1083 C1082 1.391 . S
H1084 C1092 0.950 . S
H1085 C1097 0.950 . S
H1086 C1094 0.950 . S
H1087 C1096 0.950 . S
H1088 C1098 0.950 . S
H1089 C1100 0.950 . S
H1090 C1102 0.950 . S
H1091 C1103 0.950 . S
C1092 H1084 0.950 . S
C1092 C1093 1.386 . S
C1092 C1094 1.391 . S
C1093 C1092 1.386 . S
C1093 C1097 1.393 . S
C1094 H1086 0.950 . S
C1094 C1092 1.391 . S
C1094 C1095 1.400 . S
C1095 C1094 1.400 . S
C1095 C1096 1.398 . S
C1095 C1101 1.491 . S
C1096 H1087 0.950 . S
C1096 C1095 1.398 . S
C1096 C1097 1.391 . S
C1097 H1085 0.950 . S
C1097 C1093 1.393 . S
C1097 C1096 1.391 . S
C1098 H1088 0.950 . S
C1098 C1099 1.386 . S
C1098 C1100 1.391 . S
C1099 C1098 1.386 . S
C1099 C1103 1.393 . S
C1100 H1089 0.950 . S
C1100 C1098 1.391 . S
C1100 C1101 1.400 . S
C1101 C1095 1.491 . S
C1101 C1100 1.400 . S
C1101 C1102 1.398 . S
C1102 H1090 0.950 . S
C1102 C1101 1.398 . S
C1102 C1103 1.391 . S
C1103 H1091 0.950 . S
C1103 C1099 1.393 . S
C1103 C1102 1.391 . S
H1104 C1112 0.950 . S
H1105 C1117 0.950 . S
H1106 C1114 0.950 . S
H1107 C1116 0.950 . S
H1108 C1118 0.950 . S
H1109 C1120 0.950 . S
H1110 C1122 0.950 . S
H1111 C1123 0.950 . S
C1112 H1104 0.950 . S
C1112 C1113 1.386 . S
C1112 C1114 1.391 . S
C1113 C1112 1.386 . S
C1113 C1117 1.393 . S
C1114 H1106 0.950 . S
C1114 C1112 1.391 . S
C1114 C1115 1.400 . S
C1115 C1114 1.400 . S
C1115 C1116 1.398 . S
C1115 C1121 1.491 . S
C1116 H1107 0.950 . S
C1116 C1115 1.398 . S
C1116 C1117 1.391 . S
C1117 H1105 0.950 . S
C1117 C1113 1.393 . S
C1117 C1116 1.391 . S
C1118 H1108 0.950 . S
C1118 C1119 1.386 . S
C1118 C1120 1.391 . S
C1119 C1118 1.386 . S
C1119 C1123 1.393 . S
C1120 H1109 0.950 . S
C1120 C1118 1.391 . S
C1120 C1121 1.400 . S
C1121 C1115 1.491 . S
C1121 C1120 1.400 . S
C1121 C1122 1.398 . S
C1122 H1110 0.950 . S
C1122 C1121 1.398 . S
C1122 C1123 1.391 . S
C1123 H1111 0.950 . S
C1123 C1119 1.393 . S
C1123 C1122 1.391 . S
H1124 C1132 0.950 . S
H1125 C1137 0.950 . S
H1126 C1134 0.950 . S
H1127 C1136 0.950 . S
H1128 C1138 0.950 . S
H1129 C1140 0.950 . S
H1130 C1142 0.950 . S
H1131 C1143 0.950 . S
C1132 H1124 0.950 . S
C1132 C1133 1.386 . S
C1132 C1134 1.391 . S
C1133 C1132 1.386 . S
C1133 C1137 1.393 . S
C1134 H1126 0.950 . S
C1134 C1132 1.391 . S
C1134 C1135 1.400 . S
C1135 C1134 1.400 . S
C1135 C1136 1.398 . S
C1135 C1141 1.491 . S
C1136 H1127 0.950 . S
C1136 C1135 1.398 . S
C1136 C1137 1.391 . S
C1137 H1125 0.950 . S
C1137 C1133 1.393 . S
C1137 C1136 1.391 . S
C1138 H1128 0.950 . S
C1138 C1139 1.386 . S
C1138 C1140 1.391 . S
C1139 C1138 1.386 . S
C1139 C1143 1.393 . S
C1140 H1129 0.950 . S
C1140 C1138 1.391 . S
C1140 C1141 1.400 . S
C1141 C1135 1.491 . S
C1141 C1140 1.400 . S
C1141 C1142 1.398 . S
C1142 H1130 0.950 . S
C1142 C1141 1.398 . S
C1142 C1143 1.391 . S
C1143 H1131 0.950 . S
C1143 C1139 1.393 . S
C1143 C1142 1.391 . S
H1144 C1152 0.950 . S
H1145 C1157 0.950 . S
H1146 C1154 0.950 . S
H1147 C1156 0.950 . S
H1148 C1158 0.950 . S
H1149 C1160 0.950 . S
H1150 C1162 0.950 . S
H1151 C1163 0.950 . S
C1152 H1144 0.950 . S
C1152 C1153 1.386 . S
C1152 C1154 1.391 . S
C1153 C1152 1.386 . S
C1153 C1157 1.393 . S
C1154 H1146 0.950 . S
C1154 C1152 1.391 . S
C1154 C1155 1.400 . S
C1155 C1154 1.400 . S
C1155 C1156 1.398 . S
C1155 C1161 1.491 . S
C1156 H1147 0.950 . S
C1156 C1155 1.398 . S
C1156 C1157 1.391 . S
C1157 H1145 0.950 . S
C1157 C1153 1.393 . S
C1157 C1156 1.391 . S
C1158 H1148 0.950 . S
C1158 C1159 1.386 . S
C1158 C1160 1.391 . S
C1159 C1158 1.386 . S
C1159 C1163 1.393 . S
C1160 H1149 0.950 . S
C1160 C1158 1.391 . S
C1160 C1161 1.400 . S
C1161 C1155 1.491 . S
C1161 C1160 1.400 . S
C1161 C1162 1.398 . S
C1162 H1150 0.950 . S
C1162 C1161 1.398 . S
C1162 C1163 1.391 . S
C1163 H1151 0.950 . S
C1163 C1159 1.393 . S
C1163 C1162 1.391 . S
H1164 C1172 0.950 . S
H1165 C1177 0.950 . S
H1166 C1174 0.950 . S
H1167 C1176 0.950 . S
H1168 C1178 0.950 . S
H1169 C1180 0.950 . S
H1170 C1182 0.950 . S
H1171 C1183 0.950 . S
C1172 H1164 0.950 . S
C1172 C1173 1.386 . S
C1172 C1174 1.391 . S
C1173 C1172 1.386 . S
C1173 C1177 1.393 . S
C1174 H1166 0.950 . S
C1174 C1172 1.391 . S
C1174 C1175 1.400 . S
C1175 C1174 1.400 . S
C1175 C1176 1.398 . S
C1175 C1181 1.491 . S
C1176 H1167 0.950 . S
C1176 C1175 1.398 . S
C1176 C1177 1.391 . S
C1177 H1165 0.950 . S
C1177 C1173 1.393 . S
C1177 C1176 1.391 . S
C1178 H1168 0.950 . S
C1178 C1179 1.386 . S
C1178 C1180 1.391 . S
C1179 C1178 1.386 . S
C1179 C1183 1.393 . S
C1180 H1169 0.950 . S
C1180 C1178 1.391 . S
C1180 C1181 1.400 . S
C1181 C1175 1.491 . S
C1181 C1180 1.400 . S
C1181 C1182 1.398 . S
C1182 H1170 0.950 . S
C1182 C1181 1.398 . S
C1182 C1183 1.391 . S
C1183 H1171 0.950 . S
C1183 C1179 1.393 . S
C1183 C1182 1.391 . S
H1184 C1192 0.950 . S
H1185 C1197 0.950 . S
H1186 C1194 0.950 . S
H1187 C1196 0.950 . S
H1188 C1198 0.950 . S
H1189 C1200 0.950 . S
H1190 C1202 0.950 . S
H1191 C1203 0.950 . S
C1192 H1184 0.950 . S
C1192 C1193 1.386 . S
C1192 C1194 1.391 . S
C1193 C1192 1.386 . S
C1193 C1197 1.393 . S
C1194 H1186 0.950 . S
C1194 C1192 1.391 . S
C1194 C1195 1.400 . S
C1195 C1194 1.400 . S
C1195 C1196 1.398 . S
C1195 C1201 1.491 . S
C1196 H1187 0.950 . S
C1196 C1195 1.398 . S
C1196 C1197 1.391 . S
C1197 H1185 0.950 . S
C1197 C1193 1.393 . S
C1197 C1196 1.391 . S
C1198 H1188 0.950 . S
C1198 C1199 1.386 . S
C1198 C1200 1.391 . S
C1199 C1198 1.386 . S
C1199 C1203 1.393 . S
C1200 H1189 0.950 . S
C1200 C1198 1.391 . S
C1200 C1201 1.400 . S
C1201 C1195 1.491 . S
C1201 C1200 1.400 . S
C1201 C1202 1.398 . S
C1202 H1190 0.950 . S
C1202 C1201 1.398 . S
C1202 C1203 1.391 . S
C1203 H1191 0.950 . S
C1203 C1199 1.393 . S
C1203 C1202 1.391 . S
H1204 C1212 0.950 . S
H1205 C1217 0.950 . S
H1206 C1214 0.950 . S
H1207 C1216 0.950 . S
H1208 C1218 0.950 . S
H1209 C1220 0.950 . S
H1210 C1222 0.950 . S
H1211 C1223 0.950 . S
C1212 H1204 0.950 . S
C1212 C1213 1.386 . S
C1212 C1214 1.391 . S
C1213 C1212 1.386 . S
C1213 C1217 1.393 . S
C1214 H1206 0.950 . S
C1214 C1212 1.391 . S
C1214 C1215 1.400 . S
C1215 C1214 1.400 . S
C1215 C1216 1.398 . S
C1215 C1221 1.491 . S
C1216 H1207 0.950 . S
C1216 C1215 1.398 . S
C1216 C1217 1.391 . S
C1217 H1205 0.950 . S
C1217 C1213 1.393 . S
C1217 C1216 1.391 . S
C1218 H1208 0.950 . S
C1218 C1219 1.386 . S
C1218 C1220 1.391 . S
C1219 C1218 1.386 . S
C1219 C1223 1.393 . S
C1220 H1209 0.950 . S
C1220 C1218 1.391 . S
C1220 C1221 1.400 . S
C1221 C1215 1.491 . S
C1221 C1220 1.400 . S
C1221 C1222 1.398 . S
C1222 H1210 0.950 . S
C1222 C1221 1.398 . S
C1222 C1223 1.391 . S
C1223 H1211 0.950 . S
C1223 C1219 1.393 . S
C1223 C1222 1.391 . S
H1224 C1232 0.950 . S
H1225 C1237 0.950 . S
H1226 C1234 0.950 . S
H1227 C1236 0.950 . S
H1228 C1238 0.950 . S
H1229 C1240 0.950 . S
H1230 C1242 0.950 . S
H1231 C1243 0.950 . S
C1232 H1224 0.950 . S
C1232 C1233 1.386 . S
C1232 C1234 1.391 . S
C1233 C1232 1.386 . S
C1233 C1237 1.393 . S
C1234 H1226 0.950 . S
C1234 C1232 1.391 . S
C1234 C1235 1.400 . S
C1235 C1234 1.400 . S
C1235 C1236 1.398 . S
C1235 C1241 1.491 . S
C1236 H1227 0.950 . S
C1236 C1235 1.398 . S
C1236 C1237 1.391 . S
C1237 H1225 0.950 . S
C1237 C1233 1.393 . S
C1237 C1236 1.391 . S
C1238 H1228 0.950 . S
C1238 C1239 1.386 . S
C1238 C1240 1.391 . S
C1239 C1238 1.386 . S
C1239 C1243 1.393 . S
C1240 H1229 0.950 . S
C1240 C1238 1.391 . S
C1240 C1241 1.400 . S
C1241 C1235 1.491 . S
C1241 C1240 1.400 . S
C1241 C1242 1.398 . S
C1242 H1230 0.950 . S
C1242 C1241 1.398 . S
C1242 C1243 1.391 . S
C1243 H1231 0.950 . S
C1243 C1239 1.393 . S
C1243 C1242 1.391 . S
H1244 C1252 0.950 . S
H1245 C1257 0.950 . S
H1246 C1254 0.950 . S
H1247 C1256 0.950 . S
H1248 C1258 0.950 . S
H1249 C1260 0.950 . S
H1250 C1262 0.950 . S
H1251 C1263 0.950 . S
C1252 H1244 0.950 . S
C1252 C1253 1.386 . S
C1252 C1254 1.391 . S
C1253 C1252 1.386 . S
C1253 C1257 1.393 . S
C1254 H1246 0.950 . S
C1254 C1252 1.391 . S
C1254 C1255 1.400 . S
C1255 C1254 1.400 . S
C1255 C1256 1.398 . S
C1255 C1261 1.491 . S
C1256 H1247 0.950 . S
C1256 C1255 1.398 . S
C1256 C1257 1.391 . S
C1257 H1245 0.950 . S
C1257 C1253 1.393 . S
C1257 C1256 1.391 . S
C1258 H1248 0.950 . S
C1258 C1259 1.386 . S
C1258 C1260 1.391 . S
C1259 C1258 1.386 . S
C1259 C1263 1.393 . S
C1260 H1249 0.950 . S
C1260 C1258 1.391 . S
C1260 C1261 1.400 . S
C1261 C1255 1.491 . S
C1261 C1260 1.400 . S
C1261 C1262 1.398 . S
C1262 H1250 0.950 . S
C1262 C1261 1.398 . S
C1262 C1263 1.391 . S
C1263 H1251 0.950 . S
C1263 C1259 1.393 . S
C1263 C1262 1.391 . S
H1264 C1272 0.950 . S
H1265 C1277 0.950 . S
H1266 C1274 0.950 . S
H1267 C1276 0.950 . S
H1268 C1278 0.950 . S
H1269 C1280 0.950 . S
H1270 C1282 0.950 . S
H1271 C1283 0.950 . S
C1272 H1264 0.950 . S
C1272 C1273 1.386 . S
C1272 C1274 1.391 . S
C1273 C1272 1.386 . S
C1273 C1277 1.393 . S
C1274 H1266 0.950 . S
C1274 C1272 1.391 . S
C1274 C1275 1.400 . S
C1275 C1274 1.400 . S
C1275 C1276 1.398 . S
C1275 C1281 1.491 . S
C1276 H1267 0.950 . S
C1276 C1275 1.398 . S
C1276 C1277 1.391 . S
C1277 H1265 0.950 . S
C1277 C1273 1.393 . S
C1277 C1276 1.391 . S
C1278 H1268 0.950 . S
C1278 C1279 1.386 . S
C1278 C1280 1.391 . S
C1279 C1278 1.386 . S
C1279 C1283 1.393 . S
C1280 H1269 0.950 . S
C1280 C1278 1.391 . S
C1280 C1281 1.400 . S
C1281 C1275 1.491 . S
C1281 C1280 1.400 . S
C1281 C1282 1.398 . S
C1282 H1270 0.950 . S
C1282 C1281 1.398 . S
C1282 C1283 1.391 . S
C1283 H1271 0.950 . S
C1283 C1279 1.393 . S
C1283 C1282 1.391 . S
H1284 C1292 0.950 . S
H1285 C1297 0.950 . S
H1286 C1294 0.950 . S
H1287 C1296 0.950 . S
H1288 C1298 0.950 . S
H1289 C1300 0.950 . S
H1290 C1302 0.950 . S
H1291 C1303 0.950 . S
C1292 H1284 0.950 . S
C1292 C1293 1.386 . S
C1292 C1294 1.391 . S
C1293 C1292 1.386 . S
C1293 C1297 1.393 . S
C1294 H1286 0.950 . S
C1294 C1292 1.391 . S
C1294 C1295 1.400 . S
C1295 C1294 1.400 . S
C1295 C1296 1.398 . S
C1295 C1301 1.491 . S
C1296 H1287 0.950 . S
C1296 C1295 1.398 . S
C1296 C1297 1.391 . S
C1297 H1285 0.950 . S
C1297 C1293 1.393 . S
C1297 C1296 1.391 . S
C1298 H1288 0.950 . S
C1298 C1299 1.386 . S
C1298 C1300 1.391 . S
C1299 C1298 1.386 . S
C1299 C1303 1.393 . S
C1300 H1289 0.950 . S
C1300 C1298 1.391 . S
C1300 C1301 1.400 . S
C1301 C1295 1.491 . S
C1301 C1300 1.400 . S
C1301 C1302 1.398 . S
C1302 H1290 0.950 . S
C1302 C1301 1.398 . S
C1302 C1303 1.391 . S
C1303 H1291 0.950 . S
C1303 C1299 1.393 . S
C1303 C1302 1.391 . S
H1304 C1312 0.950 . S
H1305 C1317 0.950 . S
H1306 C1314 0.950 . S
H1307 C1316 0.950 . S
H1308 C1318 0.950 . S
H1309 C1320 0.950 . S
H1310 C1322 0.950 . S
H1311 C1323 0.950 . S
C1312 H1304 0.950 . S
C1312 C1313 1.386 . S
C1312 C1314 1.391 . S
C1313 C1312 1.386 . S
C1313 C1317 1.393 . S
C1314 H1306 0.950 . S
C1314 C1312 1.391 . S
C1314 C1315 1.400 . S
C1315 C1314 1.400 . S
C1315 C1316 1.398 . S
C1315 C1321 1.491 . S
C1316 H1307 0.950 . S
C1316 C1315 1.398 . S
C1316 C1317 1.391 . S
C1317 H1305 0.950 . S
C1317 C1313 1.393 . S
C1317 C1316 1.391 . S
C1318 H1308 0.950 . S
C1318 C1319 1.386 . S
C1318 C1320 1.391 . S
C1319 C1318 1.386 . S
C1319 C1323 1.393 . S
C1320 H1309 0.950 . S
C1320 C1318 1.391 . S
C1320 C1321 1.400 . S
C1321 C1315 1.491 . S
C1321 C1320 1.400 . S
C1321 C1322 1.398 . S
C1322 H1310 0.950 . S
C1322 C1321 1.398 . S
C1322 C1323 1.391 . S
C1323 H1311 0.950 . S
C1323 C1319 1.393 . S
C1323 C1322 1.391 . S
H1324 C1332 0.950 . S
H1325 C1337 0.950 . S
H1326 C1334 0.950 . S
H1327 C1336 0.950 . S
H1328 C1338 0.950 . S
H1329 C1340 0.950 . S
H1330 C1342 0.950 . S
H1331 C1343 0.950 . S
C1332 H1324 0.950 . S
C1332 C1333 1.386 . S
C1332 C1334 1.391 . S
C1333 C1332 1.386 . S
C1333 C1337 1.393 . S
C1334 H1326 0.950 . S
C1334 C1332 1.391 . S
C1334 C1335 1.400 . S
C1335 C1334 1.400 . S
C1335 C1336 1.398 . S
C1335 C1341 1.491 . S
C1336 H1327 0.950 . S
C1336 C1335 1.398 . S
C1336 C1337 1.391 . S
C1337 H1325 0.950 . S
C1337 C1333 1.393 . S
C1337 C1336 1.391 . S
C1338 H1328 0.950 . S
C1338 C1339 1.386 . S
C1338 C1340 1.391 . S
C1339 C1338 1.386 . S
C1339 C1343 1.393 . S
C1340 H1329 0.950 . S
C1340 C1338 1.391 . S
C1340 C1341 1.400 . S
C1341 C1335 1.491 . S
C1341 C1340 1.400 . S
C1341 C1342 1.398 . S
C1342 H1330 0.950 . S
C1342 C1341 1.398 . S
C1342 C1343 1.391 . S
C1343 H1331 0.950 . S
C1343 C1339 1.393 . S
C1343 C1342 1.391 . S
H1344 C1352 0.950 . S
H1345 C1357 0.950 . S
H1346 C1354 0.950 . S
H1347 C1356 0.950 . S
H1348 C1358 0.950 . S
H1349 C1360 0.950 . S
H1350 C1362 0.950 . S
H1351 C1363 0.950 . S
C1352 H1344 0.950 . S
C1352 C1353 1.386 . S
C1352 C1354 1.391 . S
C1353 C1352 1.386 . S
C1353 C1357 1.393 . S
C1354 H1346 0.950 . S
C1354 C1352 1.391 . S
C1354 C1355 1.400 . S
C1355 C1354 1.400 . S
C1355 C1356 1.398 . S
C1355 C1361 1.491 . S
C1356 H1347 0.950 . S
C1356 C1355 1.398 . S
C1356 C1357 1.391 . S
C1357 H1345 0.950 . S
C1357 C1353 1.393 . S
C1357 C1356 1.391 . S
C1358 H1348 0.950 . S
C1358 C1359 1.386 . S
C1358 C1360 1.391 . S
C1359 C1358 1.386 . S
C1359 C1363 1.393 . S
C1360 H1349 0.950 . S
C1360 C1358 1.391 . S
C1360 C1361 1.400 . S
C1361 C1355 1.491 . S
C1361 C1360 1.400 . S
C1361 C1362 1.398 . S
C1362 H1350 0.950 . S
C1362 C1361 1.398 . S
C1362 C1363 1.391 . S
C1363 H1351 0.950 . S
C1363 C1359 1.393 . S
C1363 C1362 1.391 . S
H1364 C1372 0.950 . S
H1365 C1377 0.950 . S
H1366 C1374 0.950 . S
H1367 C1376 0.950 . S
H1368 C1378 0.950 . S
H1369 C1380 0.950 . S
H1370 C1382 0.950 . S
H1371 C1383 0.950 . S
C1372 H1364 0.950 . S
C1372 C1373 1.386 . S
C1372 C1374 1.391 . S
C1373 C1372 1.386 . S
C1373 C1377 1.393 . S
C1374 H1366 0.950 . S
C1374 C1372 1.391 . S
C1374 C1375 1.400 . S
C1375 C1374 1.400 . S
C1375 C1376 1.398 . S
C1375 C1381 1.491 . S
C1376 H1367 0.950 . S
C1376 C1375 1.398 . S
C1376 C1377 1.391 . S
C1377 H1365 0.950 . S
C1377 C1373 1.393 . S
C1377 C1376 1.391 . S
C1378 H1368 0.950 . S
C1378 C1379 1.386 . S
C1378 C1380 1.391 . S
C1379 C1378 1.386 . S
C1379 C1383 1.393 . S
C1380 H1369 0.950 . S
C1380 C1378 1.391 . S
C1380 C1381 1.400 . S
C1381 C1375 1.491 . S
C1381 C1380 1.400 . S
C1381 C1382 1.398 . S
C1382 H1370 0.950 . S
C1382 C1381 1.398 . S
C1382 C1383 1.391 . S
C1383 H1371 0.950 . S
C1383 C1379 1.393 . S
C1383 C1382 1.391 . S
H1384 C1392 0.950 . S
H1385 C1397 0.950 . S
H1386 C1394 0.950 . S
H1387 C1396 0.950 . S
H1388 C1398 0.950 . S
H1389 C1400 0.950 . S
H1390 C1402 0.950 . S
H1391 C1403 0.950 . S
C1392 H1384 0.950 . S
C1392 C1393 1.386 . S
C1392 C1394 1.391 . S
C1393 C1392 1.386 . S
C1393 C1397 1.393 . S
C1394 H1386 0.950 . S
C1394 C1392 1.391 . S
C1394 C1395 1.400 . S
C1395 C1394 1.400 . S
C1395 C1396 1.398 . S
C1395 C1401 1.491 . S
C1396 H1387 0.950 . S
C1396 C1395 1.398 . S
C1396 C1397 1.391 . S
C1397 H1385 0.950 . S
C1397 C1393 1.393 . S
C1397 C1396 1.391 . S
C1398 H1388 0.950 . S
C1398 C1399 1.386 . S
C1398 C1400 1.391 . S
C1399 C1398 1.386 . S
C1399 C1403 1.393 . S
C1400 H1389 0.950 . S
C1400 C1398 1.391 . S
C1400 C1401 1.400 . S
C1401 C1395 1.491 . S
C1401 C1400 1.400 . S
C1401 C1402 1.398 . S
C1402 H1390 0.950 . S
C1402 C1401 1.398 . S
C1402 C1403 1.391 . S
C1403 H1391 0.950 . S
C1403 C1399 1.393 . S
C1403 C1402 1.391 . S
H1404 C1412 0.950 . S
H1405 C1417 0.950 . S
H1406 C1414 0.950 . S
H1407 C1416 0.950 . S
H1408 C1418 0.950 . S
H1409 C1420 0.950 . S
H1410 C1422 0.950 . S
H1411 C1423 0.950 . S
C1412 H1404 0.950 . S
C1412 C1413 1.386 . S
C1412 C1414 1.391 . S
C1413 C1412 1.386 . S
C1413 C1417 1.393 . S
C1414 H1406 0.950 . S
C1414 C1412 1.391 . S
C1414 C1415 1.400 . S
C1415 C1414 1.400 . S
C1415 C1416 1.398 . S
C1415 C1421 1.491 . S
C1416 H1407 0.950 . S
C1416 C1415 1.398 . S
C1416 C1417 1.391 . S
C1417 H1405 0.950 . S
C1417 C1413 1.393 . S
C1417 C1416 1.391 . S
C1418 H1408 0.950 . S
C1418 C1419 1.386 . S
C1418 C1420 1.391 . S
C1419 C1418 1.386 . S
C1419 C1423 1.393 . S
C1420 H1409 0.950 . S
C1420 C1418 1.391 . S
C1420 C1421 1.400 . S
C1421 C1415 1.491 . S
C1421 C1420 1.400 . S
C1421 C1422 1.398 . S
C1422 H1410 0.950 . S
C1422 C1421 1.398 . S
C1422 C1423 1.391 . S
C1423 H1411 0.950 . S
C1423 C1419 1.393 . S
C1423 C1422 1.391 . S
H1424 C1432 0.950 . S
H1425 C1437 0.950 . S
H1426 C1434 0.950 . S
H1427 C1436 0.950 . S
H1428 C1438 0.950 . S
H1429 C1440 0.950 . S
H1430 C1442 0.950 . S
H1431 C1443 0.950 . S
C1432 H1424 0.950 . S
C1432 C1433 1.386 . S
C1432 C1434 1.391 . S
C1433 C1432 1.386 . S
C1433 C1437 1.393 . S
C1434 H1426 0.950 . S
C1434 C1432 1.391 . S
C1434 C1435 1.400 . S
C1435 C1434 1.400 . S
C1435 C1436 1.398 . S
C1435 C1441 1.491 . S
C1436 H1427 0.950 . S
C1436 C1435 1.398 . S
C1436 C1437 1.391 . S
C1437 H1425 0.950 . S
C1437 C1433 1.393 . S
C1437 C1436 1.391 . S
C1438 H1428 0.950 . S
C1438 C1439 1.386 . S
C1438 C1440 1.391 . S
C1439 C1438 1.386 . S
C1439 C1443 1.393 . S
C1440 H1429 0.950 . S
C1440 C1438 1.391 . S
C1440 C1441 1.400 . S
C1441 C1435 1.491 . S
C1441 C1440 1.400 . S
C1441 C1442 1.398 . S
C1442 H1430 0.950 . S
C1442 C1441 1.398 . S
C1442 C1443 1.391 . S
C1443 H1431 0.950 . S
C1443 C1439 1.393 . S
C1443 C1442 1.391 . S
H1444 C1452 0.950 . S
H1445 C1457 0.950 . S
H1446 C1454 0.950 . S
H1447 C1456 0.950 . S
H1448 C1458 0.950 . S
H1449 C1460 0.950 . S
H1450 C1462 0.950 . S
H1451 C1463 0.950 . S
C1452 H1444 0.950 . S
C1452 C1453 1.386 . S
C1452 C1454 1.391 . S
C1453 C1452 1.386 . S
C1453 C1457 1.393 . S
C1454 H1446 0.950 . S
C1454 C1452 1.391 . S
C1454 C1455 1.400 . S
C1455 C1454 1.400 . S
C1455 C1456 1.398 . S
C1455 C1461 1.491 . S
C1456 H1447 0.950 . S
C1456 C1455 1.398 . S
C1456 C1457 1.391 . S
C1457 H1445 0.950 . S
C1457 C1453 1.393 . S
C1457 C1456 1.391 . S
C1458 H1448 0.950 . S
C1458 C1459 1.386 . S
C1458 C1460 1.391 . S
C1459 C1458 1.386 . S
C1459 C1463 1.393 . S
C1460 H1449 0.950 . S
C1460 C1458 1.391 . S
C1460 C1461 1.400 . S
C1461 C1455 1.491 . S
C1461 C1460 1.400 . S
C1461 C1462 1.398 . S
C1462 H1450 0.950 . S
C1462 C1461 1.398 . S
C1462 C1463 1.391 . S
C1463 H1451 0.950 . S
C1463 C1459 1.393 . S
C1463 C1462 1.391 . S
H1464 C1472 0.950 . S
H1465 C1477 0.950 . S
H1466 C1474 0.950 . S
H1467 C1476 0.950 1_655 S
H1468 C1478 0.950 . S
H1469 C1480 0.950 . S
H1470 C1482 0.950 1_455 S
H1471 C1483 0.950 . S
C1472 H1464 0.950 . S
C1472 C1473 1.386 . S
C1472 C1474 1.391 . S
C1473 C1472 1.386 . S
C1473 C1477 1.393 . S
C1474 H1466 0.950 . S
C1474 C1472 1.391 . S
C1474 C1475 1.400 . S
C1475 C1474 1.400 . S
C1475 C1476 1.398 . S
C1475 C1481 1.491 1_455 S
C1476 H1467 0.950 1_455 S
C1476 C1475 1.398 . S
C1476 C1477 1.391 . S
C1477 H1465 0.950 . S
C1477 C1473 1.393 . S
C1477 C1476 1.391 . S
C1478 H1468 0.950 . S
C1478 C1479 1.386 . S
C1478 C1480 1.391 . S
C1479 C1478 1.386 . S
C1479 C1483 1.393 . S
C1480 H1469 0.950 . S
C1480 C1478 1.391 . S
C1480 C1481 1.400 . S
C1481 C1475 1.491 1_655 S
C1481 C1480 1.400 . S
C1481 C1482 1.398 . S
C1482 H1470 0.950 1_655 S
C1482 C1481 1.398 . S
C1482 C1483 1.391 . S
C1483 H1471 0.950 . S
C1483 C1479 1.393 . S
C1483 C1482 1.391 . S
H1484 C1492 0.950 . S
H1485 C1497 0.950 . S
H1486 C1494 0.950 . S
H1487 C1496 0.950 . S
H1488 C1498 0.950 . S
H1489 C1500 0.950 . S
H1490 C1502 0.950 . S
H1491 C1503 0.950 . S
C1492 H1484 0.950 . S
C1492 C1493 1.386 . S
C1492 C1494 1.391 . S
C1493 C1492 1.386 . S
C1493 C1497 1.393 . S
C1494 H1486 0.950 . S
C1494 C1492 1.391 . S
C1494 C1495 1.400 . S
C1495 C1494 1.400 . S
C1495 C1496 1.398 . S
C1495 C1501 1.491 . S
C1496 H1487 0.950 . S
C1496 C1495 1.398 . S
C1496 C1497 1.391 . S
C1497 H1485 0.950 . S
C1497 C1493 1.393 . S
C1497 C1496 1.391 . S
C1498 H1488 0.950 . S
C1498 C1499 1.386 . S
C1498 C1500 1.391 . S
C1499 C1498 1.386 . S
C1499 C1503 1.393 . S
C1500 H1489 0.950 . S
C1500 C1498 1.391 . S
C1500 C1501 1.400 . S
C1501 C1495 1.491 . S
C1501 C1500 1.400 . S
C1501 C1502 1.398 . S
C1502 H1490 0.950 . S
C1502 C1501 1.398 . S
C1502 C1503 1.391 . S
C1503 H1491 0.950 . S
C1503 C1499 1.393 . S
C1503 C1502 1.391 . S
H1504 C1512 0.950 . S
H1505 C1517 0.950 . S
H1506 C1514 0.950 . S
H1507 C1516 0.950 1_545 S
H1508 C1518 0.950 . S
H1509 C1520 0.950 . S
H1510 C1522 0.950 1_565 S
H1511 C1523 0.950 . S
C1512 H1504 0.950 . S
C1512 C1513 1.386 . S
C1512 C1514 1.391 . S
C1513 C1512 1.386 . S
C1513 C1517 1.393 . S
C1514 H1506 0.950 . S
C1514 C1512 1.391 . S
C1514 C1515 1.400 . S
C1515 C1514 1.400 . S
C1515 C1516 1.398 . S
C1515 C1521 1.491 1_565 S
C1516 H1507 0.950 1_565 S
C1516 C1515 1.398 . S
C1516 C1517 1.391 . S
C1517 H1505 0.950 . S
C1517 C1513 1.393 . S
C1517 C1516 1.391 . S
C1518 H1508 0.950 . S
C1518 C1519 1.386 . S
C1518 C1520 1.391 . S
C1519 C1518 1.386 . S
C1519 C1523 1.393 . S
C1520 H1509 0.950 . S
C1520 C1518 1.391 . S
C1520 C1521 1.400 . S
C1521 C1515 1.491 1_545 S
C1521 C1520 1.400 . S
C1521 C1522 1.398 . S
C1522 H1510 0.950 1_545 S
C1522 C1521 1.398 . S
C1522 C1523 1.391 . S
C1523 H1511 0.950 . S
C1523 C1519 1.393 . S
C1523 C1522 1.391 . S
H1524 C1532 0.950 . S
H1525 C1537 0.950 . S
H1526 C1534 0.950 . S
H1527 C1536 0.950 1_545 S
H1528 C1538 0.950 . S
H1529 C1540 0.950 . S
H1530 C1542 0.950 1_565 S
H1531 C1543 0.950 . S
C1532 H1524 0.950 . S
C1532 C1533 1.386 . S
C1532 C1534 1.391 . S
C1533 C1532 1.386 . S
C1533 C1537 1.393 . S
C1534 H1526 0.950 . S
C1534 C1532 1.391 . S
C1534 C1535 1.400 . S
C1535 C1534 1.400 . S
C1535 C1536 1.398 . S
C1535 C1541 1.491 1_565 S
C1536 H1527 0.950 1_565 S
C1536 C1535 1.398 . S
C1536 C1537 1.391 . S
C1537 H1525 0.950 . S
C1537 C1533 1.393 . S
C1537 C1536 1.391 . S
C1538 H1528 0.950 . S
C1538 C1539 1.386 . S
C1538 C1540 1.391 . S
C1539 C1538 1.386 . S
C1539 C1543 1.393 . S
C1540 H1529 0.950 . S
C1540 C1538 1.391 . S
C1540 C1541 1.400 . S
C1541 C1535 1.491 1_545 S
C1541 C1540 1.400 . S
C1541 C1542 1.398 . S
C1542 H1530 0.950 1_545 S
C1542 C1541 1.398 . S
C1542 C1543 1.391 . S
C1543 H1531 0.950 . S
C1543 C1539 1.393 . S
C1543 C1542 1.391 . S
H1544 C1552 0.950 . S
H1545 C1557 0.950 . S
H1546 C1554 0.950 . S
H1547 C1556 0.924 1_455 S
H1548 C1558 0.950 . S
H1549 C1560 0.950 . S
H1550 C1562 0.928 1_655 S
H1551 C1563 0.950 . S
C1552 H1544 0.950 . S
C1552 C1553 1.386 . S
C1552 C1554 1.391 . S
C1553 C1552 1.386 . S
C1553 C1557 1.393 . S
C1554 H1546 0.950 . S
C1554 C1552 1.391 . S
C1554 C1555 1.400 . S
C1555 C1554 1.400 . S
C1555 C1556 1.406 . S
C1555 C1561 1.491 1_655 S
C1556 H1547 0.924 1_655 S
C1556 C1555 1.406 . S
C1556 C1557 1.409 . S
C1557 H1545 0.950 . S
C1557 C1553 1.393 . S
C1557 C1556 1.409 . S
C1558 H1548 0.950 . S
C1558 C1559 1.386 . S
C1558 C1560 1.391 . S
C1559 C1558 1.386 . S
C1559 C1563 1.393 . S
C1560 H1549 0.950 . S
C1560 C1558 1.391 . S
C1560 C1561 1.400 . S
C1561 C1555 1.491 1_455 S
C1561 C1560 1.400 . S
C1561 C1562 1.405 . S
C1562 H1550 0.928 1_455 S
C1562 C1561 1.405 . S
C1562 C1563 1.407 . S
C1563 H1551 0.950 . S
C1563 C1559 1.393 . S
C1563 C1562 1.407 . S
H1564 C1572 0.950 . S
H1565 C1577 0.950 . S
H1566 C1574 0.950 . S
H1567 C1576 0.950 . S
H1568 C1578 0.950 . S
H1569 C1580 0.950 . S
H1570 C1582 0.950 . S
H1571 C1583 0.950 . S
C1572 H1564 0.950 . S
C1572 C1573 1.386 . S
C1572 C1574 1.391 . S
C1573 C1572 1.386 . S
C1573 C1577 1.393 . S
C1574 H1566 0.950 . S
C1574 C1572 1.391 . S
C1574 C1575 1.400 . S
C1575 C1574 1.400 . S
C1575 C1576 1.398 . S
C1575 C1581 1.491 . S
C1576 H1567 0.950 . S
C1576 C1575 1.398 . S
C1576 C1577 1.391 . S
C1577 H1565 0.950 . S
C1577 C1573 1.393 . S
C1577 C1576 1.391 . S
C1578 H1568 0.950 . S
C1578 C1579 1.386 . S
C1578 C1580 1.391 . S
C1579 C1578 1.386 . S
C1579 C1583 1.393 . S
C1580 H1569 0.950 . S
C1580 C1578 1.391 . S
C1580 C1581 1.400 . S
C1581 C1575 1.491 . S
C1581 C1580 1.400 . S
C1581 C1582 1.398 . S
C1582 H1570 0.950 . S
C1582 C1581 1.398 . S
C1582 C1583 1.391 . S
C1583 H1571 0.950 . S
C1583 C1579 1.393 . S
C1583 C1582 1.391 . S
H1584 C1592 0.950 . S
H1585 C1597 0.950 . S
H1586 C1594 0.950 . S
H1587 C1596 0.950 . S
H1588 C1598 0.950 . S
H1589 C1600 0.950 . S
H1590 C1602 0.950 . S
H1591 C1603 0.950 . S
C1592 H1584 0.950 . S
C1592 C1593 1.386 . S
C1592 C1594 1.391 . S
C1593 C1592 1.386 . S
C1593 C1597 1.393 . S
C1594 H1586 0.950 . S
C1594 C1592 1.391 . S
C1594 C1595 1.400 . S
C1595 C1594 1.400 . S
C1595 C1596 1.398 . S
C1595 C1601 1.491 . S
C1596 H1587 0.950 . S
C1596 C1595 1.398 . S
C1596 C1597 1.391 . S
C1597 H1585 0.950 . S
C1597 C1593 1.393 . S
C1597 C1596 1.391 . S
C1598 H1588 0.950 . S
C1598 C1599 1.386 . S
C1598 C1600 1.391 . S
C1599 C1598 1.386 . S
C1599 C1603 1.393 . S
C1600 H1589 0.950 . S
C1600 C1598 1.391 . S
C1600 C1601 1.400 . S
C1601 C1595 1.491 . S
C1601 C1600 1.400 . S
C1601 C1602 1.398 . S
C1602 H1590 0.950 . S
C1602 C1601 1.398 . S
C1602 C1603 1.391 . S
C1603 H1591 0.950 . S
C1603 C1599 1.393 . S
C1603 C1602 1.391 . S
H1604 C1612 0.950 . S
H1605 C1617 0.950 . S
H1606 C1614 0.950 . S
H1607 C1616 0.950 . S
H1608 C1618 0.950 . S
H1609 C1620 0.950 . S
H1610 C1622 0.950 . S
H1611 C1623 0.950 . S
C1612 H1604 0.950 . S
C1612 C1613 1.386 . S
C1612 C1614 1.391 . S
C1613 C1612 1.386 . S
C1613 C1617 1.393 . S
C1614 H1606 0.950 . S
C1614 C1612 1.391 . S
C1614 C1615 1.400 . S
C1615 C1614 1.400 . S
C1615 C1616 1.398 . S
C1615 C1621 1.491 . S
C1616 H1607 0.950 . S
C1616 C1615 1.398 . S
C1616 C1617 1.391 . S
C1617 H1605 0.950 . S
C1617 C1613 1.393 . S
C1617 C1616 1.391 . S
C1618 H1608 0.950 . S
C1618 C1619 1.386 . S
C1618 C1620 1.391 . S
C1619 C1618 1.386 . S
C1619 C1623 1.393 . S
C1620 H1609 0.950 . S
C1620 C1618 1.391 . S
C1620 C1621 1.400 . S
C1621 C1615 1.491 . S
C1621 C1620 1.400 . S
C1621 C1622 1.398 . S
C1622 H1610 0.950 . S
C1622 C1621 1.398 . S
C1622 C1623 1.391 . S
C1623 H1611 0.950 . S
C1623 C1619 1.393 . S
C1623 C1622 1.391 . S
H1624 C1632 0.950 . S
H1625 C1637 0.950 . S
H1626 C1634 0.950 . S
H1627 C1636 0.950 . S
H1628 C1638 0.950 . S
H1629 C1640 0.950 . S
H1630 C1642 0.950 . S
H1631 C1643 0.950 . S
C1632 H1624 0.950 . S
C1632 C1633 1.386 . S
C1632 C1634 1.391 . S
C1633 C1632 1.386 . S
C1633 C1637 1.393 . S
C1634 H1626 0.950 . S
C1634 C1632 1.391 . S
C1634 C1635 1.400 . S
C1635 C1634 1.400 . S
C1635 C1636 1.398 . S
C1635 C1641 1.491 . S
C1636 H1627 0.950 . S
C1636 C1635 1.398 . S
C1636 C1637 1.391 . S
C1637 H1625 0.950 . S
C1637 C1633 1.393 . S
C1637 C1636 1.391 . S
C1638 H1628 0.950 . S
C1638 C1639 1.386 . S
C1638 C1640 1.391 . S
C1639 C1638 1.386 . S
C1639 C1643 1.393 . S
C1640 H1629 0.950 . S
C1640 C1638 1.391 . S
C1640 C1641 1.400 . S
C1641 C1635 1.491 . S
C1641 C1640 1.400 . S
C1641 C1642 1.398 . S
C1642 H1630 0.950 . S
C1642 C1641 1.398 . S
C1642 C1643 1.391 . S
C1643 H1631 0.950 . S
C1643 C1639 1.393 . S
C1643 C1642 1.391 . S
H1644 C1652 0.950 . S
H1645 C1657 0.950 . S
H1646 C1654 0.950 . S
H1647 C1656 0.950 . S
H1648 C1658 0.950 . S
H1649 C1660 0.950 . S
H1650 C1662 0.950 . S
H1651 C1663 0.950 . S
C1652 H1644 0.950 . S
C1652 C1653 1.386 . S
C1652 C1654 1.391 . S
C1653 C1652 1.386 . S
C1653 C1657 1.393 . S
C1654 H1646 0.950 . S
C1654 C1652 1.391 . S
C1654 C1655 1.400 . S
C1655 C1654 1.400 . S
C1655 C1656 1.398 . S
C1655 C1661 1.491 . S
C1656 H1647 0.950 . S
C1656 C1655 1.398 . S
C1656 C1657 1.391 . S
C1657 H1645 0.950 . S
C1657 C1653 1.393 . S
C1657 C1656 1.391 . S
C1658 H1648 0.950 . S
C1658 C1659 1.386 . S
C1658 C1660 1.391 . S
C1659 C1658 1.386 . S
C1659 C1663 1.393 . S
C1660 H1649 0.950 . S
C1660 C1658 1.391 . S
C1660 C1661 1.400 . S
C1661 C1655 1.491 . S
C1661 C1660 1.400 . S
C1661 C1662 1.398 . S
C1662 H1650 0.950 . S
C1662 C1661 1.398 . S
C1662 C1663 1.391 . S
C1663 H1651 0.950 . S
C1663 C1659 1.393 . S
C1663 C1662 1.391 . S
H1664 C1672 0.950 . S
H1665 C1677 0.950 . S
H1666 C1674 0.950 . S
H1667 C1676 0.950 . S
H1668 C1678 0.950 . S
H1669 C1680 0.950 . S
H1670 C1682 0.950 . S
H1671 C1683 0.950 . S
C1672 H1664 0.950 . S
C1672 C1673 1.386 . S
C1672 C1674 1.391 . S
C1673 C1672 1.386 . S
C1673 C1677 1.393 . S
C1674 H1666 0.950 . S
C1674 C1672 1.391 . S
C1674 C1675 1.400 . S
C1675 C1674 1.400 . S
C1675 C1676 1.398 . S
C1675 C1681 1.491 . S
C1676 H1667 0.950 . S
C1676 C1675 1.398 . S
C1676 C1677 1.391 . S
C1677 H1665 0.950 . S
C1677 C1673 1.393 . S
C1677 C1676 1.391 . S
C1678 H1668 0.950 . S
C1678 C1679 1.386 . S
C1678 C1680 1.391 . S
C1679 C1678 1.386 . S
C1679 C1683 1.393 . S
C1680 H1669 0.950 . S
C1680 C1678 1.391 . S
C1680 C1681 1.400 . S
C1681 C1675 1.491 . S
C1681 C1680 1.400 . S
C1681 C1682 1.398 . S
C1682 H1670 0.950 . S
C1682 C1681 1.398 . S
C1682 C1683 1.391 . S
C1683 H1671 0.950 . S
C1683 C1679 1.393 . S
C1683 C1682 1.391 . S
H1684 C1692 0.950 . S
H1685 C1697 0.950 . S
H1686 C1694 0.950 . S
H1687 C1696 0.950 . S
H1688 C1698 0.950 . S
H1689 C1700 0.950 . S
H1690 C1702 0.950 . S
H1691 C1703 0.950 . S
C1692 H1684 0.950 . S
C1692 C1693 1.386 . S
C1692 C1694 1.391 . S
C1693 C1692 1.386 . S
C1693 C1697 1.393 . S
C1694 H1686 0.950 . S
C1694 C1692 1.391 . S
C1694 C1695 1.400 . S
C1695 C1694 1.400 . S
C1695 C1696 1.398 . S
C1695 C1701 1.491 . S
C1696 H1687 0.950 . S
C1696 C1695 1.398 . S
C1696 C1697 1.391 . S
C1697 H1685 0.950 . S
C1697 C1693 1.393 . S
C1697 C1696 1.391 . S
C1698 H1688 0.950 . S
C1698 C1699 1.386 . S
C1698 C1700 1.391 . S
C1699 C1698 1.386 . S
C1699 C1703 1.393 . S
C1700 H1689 0.950 . S
C1700 C1698 1.391 . S
C1700 C1701 1.400 . S
C1701 C1695 1.491 . S
C1701 C1700 1.400 . S
C1701 C1702 1.398 . S
C1702 H1690 0.950 . S
C1702 C1701 1.398 . S
C1702 C1703 1.391 . S
C1703 H1691 0.950 . S
C1703 C1699 1.393 . S
C1703 C1702 1.391 . S
H1704 C1712 0.950 . S
H1705 C1717 0.950 . S
H1706 C1714 0.950 . S
H1707 C1716 0.950 . S
H1708 C1718 0.950 . S
H1709 C1720 0.950 . S
H1710 C1722 0.950 . S
H1711 C1723 0.950 . S
C1712 H1704 0.950 . S
C1712 C1713 1.386 . S
C1712 C1714 1.391 . S
C1713 C1712 1.386 . S
C1713 C1717 1.393 . S
C1714 H1706 0.950 . S
C1714 C1712 1.391 . S
C1714 C1715 1.400 . S
C1715 C1714 1.400 . S
C1715 C1716 1.398 . S
C1715 C1721 1.491 . S
C1716 H1707 0.950 . S
C1716 C1715 1.398 . S
C1716 C1717 1.391 . S
C1717 H1705 0.950 . S
C1717 C1713 1.393 . S
C1717 C1716 1.391 . S
C1718 H1708 0.950 . S
C1718 C1719 1.386 . S
C1718 C1720 1.391 . S
C1719 C1718 1.386 . S
C1719 C1723 1.393 . S
C1720 H1709 0.950 . S
C1720 C1718 1.391 . S
C1720 C1721 1.400 . S
C1721 C1715 1.491 . S
C1721 C1720 1.400 . S
C1721 C1722 1.398 . S
C1722 H1710 0.950 . S
C1722 C1721 1.398 . S
C1722 C1723 1.391 . S
C1723 H1711 0.950 . S
C1723 C1719 1.393 . S
C1723 C1722 1.391 . S
H1724 C1732 0.950 . S
H1725 C1737 0.950 . S
H1726 C1734 0.950 . S
H1727 C1736 0.950 . S
H1728 C1738 0.950 . S
H1729 C1740 0.950 . S
H1730 C1742 0.950 . S
H1731 C1743 0.950 . S
C1732 H1724 0.950 . S
C1732 C1733 1.386 . S
C1732 C1734 1.391 . S
C1733 C1732 1.386 . S
C1733 C1737 1.393 . S
C1734 H1726 0.950 . S
C1734 C1732 1.391 . S
C1734 C1735 1.400 . S
C1735 C1734 1.400 . S
C1735 C1736 1.398 . S
C1735 C1741 1.491 . S
C1736 H1727 0.950 . S
C1736 C1735 1.398 . S
C1736 C1737 1.391 . S
C1737 H1725 0.950 . S
C1737 C1733 1.393 . S
C1737 C1736 1.391 . S
C1738 H1728 0.950 . S
C1738 C1739 1.386 . S
C1738 C1740 1.391 . S
C1739 C1738 1.386 . S
C1739 C1743 1.393 . S
C1740 H1729 0.950 . S
C1740 C1738 1.391 . S
C1740 C1741 1.400 . S
C1741 C1735 1.491 . S
C1741 C1740 1.400 . S
C1741 C1742 1.398 . S
C1742 H1730 0.950 . S
C1742 C1741 1.398 . S
C1742 C1743 1.391 . S
C1743 H1731 0.950 . S
C1743 C1739 1.393 . S
C1743 C1742 1.391 . S
H1744 C1752 0.950 . S
H1745 C1757 0.950 . S
H1746 C1754 0.950 . S
H1747 C1756 0.950 . S
H1748 C1758 0.950 . S
H1749 C1760 0.950 . S
H1750 C1762 0.950 . S
H1751 C1763 0.950 . S
C1752 H1744 0.950 . S
C1752 C1753 1.386 . S
C1752 C1754 1.391 . S
C1753 C1752 1.386 . S
C1753 C1757 1.393 . S
C1754 H1746 0.950 . S
C1754 C1752 1.391 . S
C1754 C1755 1.400 . S
C1755 C1754 1.400 . S
C1755 C1756 1.398 . S
C1755 C1761 1.491 . S
C1756 H1747 0.950 . S
C1756 C1755 1.398 . S
C1756 C1757 1.391 . S
C1757 H1745 0.950 . S
C1757 C1753 1.393 . S
C1757 C1756 1.391 . S
C1758 H1748 0.950 . S
C1758 C1759 1.386 . S
C1758 C1760 1.391 . S
C1759 C1758 1.386 . S
C1759 C1763 1.393 . S
C1760 H1749 0.950 . S
C1760 C1758 1.391 . S
C1760 C1761 1.400 . S
C1761 C1755 1.491 . S
C1761 C1760 1.400 . S
C1761 C1762 1.398 . S
C1762 H1750 0.950 . S
C1762 C1761 1.398 . S
C1762 C1763 1.391 . S
C1763 H1751 0.950 . S
C1763 C1759 1.393 . S
C1763 C1762 1.391 . S
H1764 C1772 0.950 . S
H1765 C1777 0.950 . S
H1766 C1774 0.950 . S
H1767 C1776 0.950 . S
H1768 C1778 0.950 . S
H1769 C1780 0.950 . S
H1770 C1782 0.950 . S
H1771 C1783 0.950 . S
C1772 H1764 0.950 . S
C1772 C1773 1.386 . S
C1772 C1774 1.391 . S
C1773 C1772 1.386 . S
C1773 C1777 1.393 . S
C1774 H1766 0.950 . S
C1774 C1772 1.391 . S
C1774 C1775 1.400 . S
C1775 C1774 1.400 . S
C1775 C1776 1.398 . S
C1775 C1781 1.491 . S
C1776 H1767 0.950 . S
C1776 C1775 1.398 . S
C1776 C1777 1.391 . S
C1777 H1765 0.950 . S
C1777 C1773 1.393 . S
C1777 C1776 1.391 . S
C1778 H1768 0.950 . S
C1778 C1779 1.386 . S
C1778 C1780 1.391 . S
C1779 C1778 1.386 . S
C1779 C1783 1.393 . S
C1780 H1769 0.950 . S
C1780 C1778 1.391 . S
C1780 C1781 1.400 . S
C1781 C1775 1.491 . S
C1781 C1780 1.400 . S
C1781 C1782 1.398 . S
C1782 H1770 0.950 . S
C1782 C1781 1.398 . S
C1782 C1783 1.391 . S
C1783 H1771 0.950 . S
C1783 C1779 1.393 . S
C1783 C1782 1.391 . S
H1784 C1792 0.950 . S
H1785 C1797 0.950 . S
H1786 C1794 0.950 . S
H1787 C1796 0.950 . S
H1788 C1798 0.950 . S
H1789 C1800 0.950 . S
H1790 C1802 0.950 . S
H1791 C1803 0.950 . S
C1792 H1784 0.950 . S
C1792 C1793 1.386 . S
C1792 C1794 1.391 . S
C1793 C1792 1.386 . S
C1793 C1797 1.393 . S
C1794 H1786 0.950 . S
C1794 C1792 1.391 . S
C1794 C1795 1.400 . S
C1795 C1794 1.400 . S
C1795 C1796 1.398 . S
C1795 C1801 1.491 . S
C1796 H1787 0.950 . S
C1796 C1795 1.398 . S
C1796 C1797 1.391 . S
C1797 H1785 0.950 . S
C1797 C1793 1.393 . S
C1797 C1796 1.391 . S
C1798 H1788 0.950 . S
C1798 C1799 1.386 . S
C1798 C1800 1.391 . S
C1799 C1798 1.386 . S
C1799 C1803 1.393 . S
C1800 H1789 0.950 . S
C1800 C1798 1.391 . S
C1800 C1801 1.400 . S
C1801 C1795 1.491 . S
C1801 C1800 1.400 . S
C1801 C1802 1.398 . S
C1802 H1790 0.950 . S
C1802 C1801 1.398 . S
C1802 C1803 1.391 . S
C1803 H1791 0.950 . S
C1803 C1799 1.393 . S
C1803 C1802 1.391 . S
H1804 C1812 0.950 . S
H1805 C1817 0.950 . S
H1806 C1814 0.950 . S
H1807 C1816 0.950 . S
H1808 C1818 0.950 . S
H1809 C1820 0.950 . S
H1810 C1822 0.950 . S
H1811 C1823 0.950 . S
C1812 H1804 0.950 . S
C1812 C1813 1.386 . S
C1812 C1814 1.391 . S
C1813 C1812 1.386 . S
C1813 C1817 1.393 . S
C1814 H1806 0.950 . S
C1814 C1812 1.391 . S
C1814 C1815 1.400 . S
C1815 C1814 1.400 . S
C1815 C1816 1.398 . S
C1815 C1821 1.491 . S
C1816 H1807 0.950 . S
C1816 C1815 1.398 . S
C1816 C1817 1.391 . S
C1817 H1805 0.950 . S
C1817 C1813 1.393 . S
C1817 C1816 1.391 . S
C1818 H1808 0.950 . S
C1818 C1819 1.386 . S
C1818 C1820 1.391 . S
C1819 C1818 1.386 . S
C1819 C1823 1.393 . S
C1820 H1809 0.950 . S
C1820 C1818 1.391 . S
C1820 C1821 1.400 . S
C1821 C1815 1.491 . S
C1821 C1820 1.400 . S
C1821 C1822 1.398 . S
C1822 H1810 0.950 . S
C1822 C1821 1.398 . S
C1822 C1823 1.391 . S
C1823 H1811 0.950 . S
C1823 C1819 1.393 . S
C1823 C1822 1.391 . S
H1824 C1832 0.950 . S
H1825 C1837 0.950 . S
H1826 C1834 0.947 1_655 S
H1827 C1836 0.950 . S
H1828 C1838 0.950 . S
H1829 C1840 0.946 1_455 S
H1830 C1842 0.950 . S
H1831 C1843 0.950 . S
C1832 H1824 0.950 . S
C1832 C1833 1.386 . S
C1832 C1834 1.391 . S
C1833 C1832 1.386 . S
C1833 C1837 1.393 . S
C1834 H1826 0.947 1_455 S
C1834 C1832 1.391 . S
C1834 C1835 1.400 . S
C1835 C1834 1.400 . S
C1835 C1836 1.398 . S
C1835 C1841 1.491 1_456 S
C1836 H1827 0.950 . S
C1836 C1835 1.398 . S
C1836 C1837 1.391 . S
C1837 H1825 0.950 . S
C1837 C1833 1.393 . S
C1837 C1836 1.391 . S
C1838 H1828 0.950 . S
C1838 C1839 1.386 . S
C1838 C1840 1.391 . S
C1839 C1838 1.386 . S
C1839 C1843 1.393 . S
C1840 H1829 0.946 1_655 S
C1840 C1838 1.391 . S
C1840 C1841 1.400 . S
C1841 C1835 1.491 1_654 S
C1841 C1840 1.400 . S
C1841 C1842 1.398 . S
C1842 H1830 0.950 . S
C1842 C1841 1.398 . S
C1842 C1843 1.391 . S
C1843 H1831 0.950 . S
C1843 C1839 1.393 . S
C1843 C1842 1.391 . S
H1844 C1852 0.950 . S
H1845 C1857 0.950 . S
H1846 C1854 0.950 . S
H1847 C1856 0.950 . S
H1848 C1858 0.950 . S
H1849 C1860 0.950 . S
H1850 C1862 0.950 . S
H1851 C1863 0.950 . S
C1852 H1844 0.950 . S
C1852 C1853 1.386 . S
C1852 C1854 1.391 . S
C1853 C1852 1.386 . S
C1853 C1857 1.393 . S
C1854 H1846 0.950 . S
C1854 C1852 1.391 . S
C1854 C1855 1.400 . S
C1855 C1854 1.400 . S
C1855 C1856 1.398 . S
C1855 C1861 1.491 1_554 S
C1856 H1847 0.950 . S
C1856 C1855 1.398 . S
C1856 C1857 1.391 . S
C1857 H1845 0.950 . S
C1857 C1853 1.393 . S
C1857 C1856 1.391 . S
C1858 H1848 0.950 . S
C1858 C1859 1.386 . S
C1858 C1860 1.391 . S
C1859 C1858 1.386 . S
C1859 C1863 1.393 . S
C1860 H1849 0.950 . S
C1860 C1858 1.391 . S
C1860 C1861 1.400 . S
C1861 C1855 1.491 1_556 S
C1861 C1860 1.400 . S
C1861 C1862 1.398 . S
C1862 H1850 0.950 . S
C1862 C1861 1.398 . S
C1862 C1863 1.391 . S
C1863 H1851 0.950 . S
C1863 C1859 1.393 . S
C1863 C1862 1.391 . S
H1864 C1872 0.950 . S
H1865 C1877 0.950 . S
H1866 C1874 0.950 1_556 S
H1867 C1876 0.994 . S
H1868 C1878 0.950 . S
H1869 C1880 0.950 1_554 S
H1870 C1882 0.997 . S
H1871 C1883 0.950 . S
C1872 H1864 0.950 . S
C1872 C1873 1.386 . S
C1872 C1874 1.391 . S
C1873 C1872 1.386 . S
C1873 C1877 1.393 . S
C1874 H1866 0.950 1_554 S
C1874 C1872 1.391 . S
C1874 C1875 1.400 . S
C1875 C1874 1.400 . S
C1875 C1876 1.388 1_545 S
C1875 C1881 1.491 1_544 S
C1876 H1867 0.994 . S
C1876 C1875 1.388 1_565 S
C1876 C1877 1.361 1_565 S
C1877 H1865 0.950 . S
C1877 C1873 1.393 . S
C1877 C1876 1.361 1_545 S
C1878 H1868 0.950 . S
C1878 C1879 1.386 . S
C1878 C1880 1.391 . S
C1879 C1878 1.386 . S
C1879 C1883 1.393 . S
C1880 H1869 0.950 1_556 S
C1880 C1878 1.391 . S
C1880 C1881 1.400 . S
C1881 C1875 1.491 1_566 S
C1881 C1880 1.400 . S
C1881 C1882 1.387 1_565 S
C1882 H1870 0.997 . S
C1882 C1881 1.387 1_545 S
C1882 C1883 1.359 1_545 S
C1883 H1871 0.950 . S
C1883 C1879 1.393 . S
C1883 C1882 1.359 1_565 S
H1884 C1892 0.950 . S
H1885 C1897 0.950 . S
H1886 C1894 0.950 1_545 S
H1887 C1896 0.950 . S
H1888 C1898 0.950 . S
H1889 C1900 0.950 1_565 S
H1890 C1902 0.950 . S
H1891 C1903 0.950 . S
C1892 H1884 0.950 . S
C1892 C1893 1.386 . S
C1892 C1894 1.391 . S
C1893 C1892 1.386 . S
C1893 C1897 1.393 . S
C1894 H1886 0.950 1_565 S
C1894 C1892 1.391 . S
C1894 C1895 1.400 . S
C1895 C1894 1.400 . S
C1895 C1896 1.398 . S
C1895 C1901 1.491 1_566 S
C1896 H1887 0.950 . S
C1896 C1895 1.398 . S
C1896 C1897 1.391 . S
C1897 H1885 0.950 . S
C1897 C1893 1.393 . S
C1897 C1896 1.391 . S
C1898 H1888 0.950 . S
C1898 C1899 1.386 . S
C1898 C1900 1.391 . S
C1899 C1898 1.386 . S
C1899 C1903 1.393 . S
C1900 H1889 0.950 1_545 S
C1900 C1898 1.391 . S
C1900 C1901 1.400 . S
C1901 C1895 1.491 1_544 S
C1901 C1900 1.400 . S
C1901 C1902 1.398 . S
C1902 H1890 0.950 . S
C1902 C1901 1.398 . S
C1902 C1903 1.391 . S
C1903 H1891 0.950 . S
C1903 C1899 1.393 . S
C1903 C1902 1.391 . S
H1904 C1912 0.950 . S
H1905 C1917 0.950 . S
H1906 C1914 0.942 1_655 S
H1907 C1916 0.950 . S
H1908 C1918 0.950 . S
H1909 C1920 0.942 1_455 S
H1910 C1922 0.950 . S
H1911 C1923 0.950 . S
C1912 H1904 0.950 . S
C1912 C1913 1.386 . S
C1912 C1914 1.391 . S
C1913 C1912 1.386 . S
C1913 C1917 1.393 . S
C1914 H1906 0.942 1_455 S
C1914 C1912 1.391 . S
C1914 C1915 1.400 . S
C1915 C1914 1.400 . S
C1915 C1916 1.398 . S
C1915 C1921 1.491 1_456 S
C1916 H1907 0.950 . S
C1916 C1915 1.398 . S
C1916 C1917 1.391 . S
C1917 H1905 0.950 . S
C1917 C1913 1.393 . S
C1917 C1916 1.391 . S
C1918 H1908 0.950 . S
C1918 C1919 1.386 . S
C1918 C1920 1.391 . S
C1919 C1918 1.386 . S
C1919 C1923 1.393 . S
C1920 H1909 0.942 1_655 S
C1920 C1918 1.391 . S
C1920 C1921 1.400 . S
C1921 C1915 1.491 1_654 S
C1921 C1920 1.400 . S
C1921 C1922 1.398 . S
C1922 H1910 0.950 . S
C1922 C1921 1.398 . S
C1922 C1923 1.391 . S
C1923 H1911 0.950 . S
C1923 C1919 1.393 . S
C1923 C1922 1.391 . S
H1924 C1932 0.950 . S
H1925 C1937 0.950 . S
H1926 C1934 0.950 . S
H1927 C1936 0.950 . S
H1928 C1938 0.950 . S
H1929 C1940 0.950 . S
H1930 C1942 0.950 . S
H1931 C1943 0.950 . S
C1932 H1924 0.950 . S
C1932 C1933 1.386 . S
C1932 C1934 1.391 . S
C1933 C1932 1.386 . S
C1933 C1937 1.393 . S
C1934 H1926 0.950 . S
C1934 C1932 1.391 . S
C1934 C1935 1.400 . S
C1935 C1934 1.400 . S
C1935 C1936 1.398 . S
C1935 C1941 1.491 1_554 S
C1936 H1927 0.950 . S
C1936 C1935 1.398 . S
C1936 C1937 1.391 . S
C1937 H1925 0.950 . S
C1937 C1933 1.393 . S
C1937 C1936 1.391 . S
C1938 H1928 0.950 . S
C1938 C1939 1.386 . S
C1938 C1940 1.391 . S
C1939 C1938 1.386 . S
C1939 C1943 1.393 . S
C1940 H1929 0.950 . S
C1940 C1938 1.391 . S
C1940 C1941 1.400 . S
C1941 C1935 1.491 1_556 S
C1941 C1940 1.400 . S
C1941 C1942 1.398 . S
C1942 H1930 0.950 . S
C1942 C1941 1.398 . S
C1942 C1943 1.391 . S
C1943 H1931 0.950 . S
C1943 C1939 1.393 . S
C1943 C1942 1.391 . S
C513 C12 1.107 . S
C519 C166 1.093 . S
C533 C26 1.111 . S
C539 C138 1.089 . S
C553 C152 1.091 . S
C559 C40 1.108 . S
C573 C54 1.111 . S
C579 C110 1.089 . S
C593 C124 1.102 . S
C599 C68 1.097 . S
C613 C82 1.105 . S
C619 C96 1.094 . S
C633 C334 1.109 . S
C639 C180 1.091 . S
C653 C194 1.107 . S
C659 C306 1.093 . S
C673 C208 1.110 . S
C679 C320 1.089 . S
C693 C278 1.109 . S
C699 C222 1.090 . S
C713 C236 1.110 . S
C719 C292 1.090 . S
C733 C264 1.098 . S
C739 C250 1.101 . S
C753 C348 1.091 . S
C759 C502 1.108 . S
C773 C474 1.091 . S
C779 C362 1.108 . S
C793 C488 1.089 . S
C799 C376 1.111 . S
C813 C446 1.111 . S
C819 C390 1.089 . S
C833 C460 1.098 . S
C839 C404 1.101 . S
C853 C432 1.092 . S
C859 C418 1.108 . S
C873 C5 1.034 . S
C879 C61 1.017 . S
C893 C75 1.043 . S
C899 C19 1.019 . S
C913 C33 1.044 . S
C919 C47 1.019 . S
C933 C89 1.041 . S
C939 C145 1.068 . S
C953 C103 1.039 . S
C959 C159 1.018 . S
C973 C117 1.020 . S
C979 C131 1.045 . S
C993 C229 1.019 . S
C999 C173 1.043 . S
C1013 C243 1.067 . S
C1019 C187 1.072 . S
C1033 C201 1.072 . S
C1039 C215 1.065 . S
C1053 C313 1.066 . S
C1059 C257 1.071 . S
C1073 C327 1.023 . S
C1079 C271 1.051 . S
C1093 C285 1.019 . S
C1099 C299 1.024 . S
C1113 C397 1.024 . S
C1119 C341 1.053 . S
C1133 C355 1.034 . S
C1139 C411 1.063 . S
C1153 C369 1.039 . S
C1159 C383 1.018 . S
C1173 C481 1.060 . S
C1179 C425 1.031 . S
C1193 C439 1.020 . S
C1199 C495 1.046 . S
C1213 C467 1.018 . S
C1219 C453 1.024 . S
C1233 C410 1.419 . S
C1239 C4 1.399 . S
C1253 C18 1.404 . S
C1259 C382 1.396 . S
C1273 C32 1.420 . S
C1279 C396 1.405 . S
C1293 C46 1.394 . S
C1299 C186 1.411 . S
C1313 C200 1.394 . S
C1319 C60 1.410 . S
C1333 C172 1.401 . S
C1339 C74 1.420 . S
C1353 C88 1.395 . S
C1359 C326 1.408 . S
C1373 C102 1.420 . S
C1379 C298 1.402 . S
C1393 C116 1.394 . S
C1399 C312 1.412 . S
C1413 C438 1.398 . S
C1419 C130 1.419 . S
C1433 C452 1.394 . S
C1439 C144 1.408 . S
C1453 C158 1.416 . S
C1459 C424 1.395 . S
C1473 C354 1.420 . S
C1479 C214 1.401 . S
C1493 C228 1.402 . S
C1499 C368 1.396 . S
C1513 C340 1.412 . S
C1519 C242 1.394 . S
C1533 C494 1.401 . S
C1539 C256 1.420 . S
C1553 C270 1.395 . S
C1559 C466 1.415 . S
C1573 C284 1.396 . S
C1579 C480 1.417 . S
C1593 C11 1.571 . S
C1599 C417 1.563 . S
C1613 C389 1.557 . S
C1619 C25 1.553 . S
C1633 C39 1.568 . S
C1639 C403 1.551 . S
C1653 C193 1.550 . S
C1659 C53 1.566 . S
C1673 C67 1.550 . S
C1679 C207 1.566 . S
C1693 C81 1.555 . S
C1699 C179 1.572 . S
C1713 C333 1.553 . S
C1719 C95 1.571 . S
C1733 C109 1.550 . S
C1739 C305 1.565 . S
C1753 C123 1.572 . S
C1759 C319 1.558 . S
C1773 C137 1.566 . S
C1779 C445 1.550 . S
C1793 C459 1.552 . S
C1799 C151 1.570 . S
C1813 C165 1.561 . S
C1819 C431 1.572 . S
C1833 C361 1.570 . S
C1839 C221 1.565 . S
C1853 C235 1.571 . S
C1859 C375 1.562 . S
C1873 C249 1.550 . S
C1879 C347 1.567 . S
C1893 C501 1.563 . S
C1899 C263 1.571 . S
C1913 C473 1.564 . S
C1919 C277 1.570 . S
C1933 C291 1.570 . S
C1939 C487 1.565 . S
