# Generated by pormake.
# Topology hbo, (4)-cn, num edge types: 1
# Building blocks:
#     Node 0, Type 0, BuildingBlock: QUQFOY_clean_sbu_1, # of connection points: 4
#     Node 1, Type 0, BuildingBlock: QUQFOY_clean_sbu_1, # of connection points: 4
#     Node 2, Type 0, BuildingBlock: QUQFOY_clean_sbu_1, # of connection points: 4
#     Node 3, Type 0, BuildingBlock: QUQFOY_clean_sbu_1, # of connection points: 4
#     Node 4, Type 0, BuildingBlock: QUQFOY_clean_sbu_1, # of connection points: 4
#     Node 5, Type 0, BuildingBlock: QUQFOY_clean_sbu_1, # of connection points: 4
#     Node 6, Type 0, BuildingBlock: QUQFOY_clean_sbu_1, # of connection points: 4
#     Node 7, Type 0, BuildingBlock: QUQFOY_clean_sbu_1, # of connection points: 4
#     Node 8, Type 0, BuildingBlock: QUQFOY_clean_sbu_1, # of connection points: 4
#     Node 9, Type 0, BuildingBlock: QUQFOY_clean_sbu_1, # of connection points: 4
#     Node 10, Type 0, BuildingBlock: QUQFOY_clean_sbu_1, # of connection points: 4
#     Node 11, Type 0, BuildingBlock: QUQFOY_clean_sbu_1, # of connection points: 4
#     Node 12, Type 0, BuildingBlock: QUQFOY_clean_sbu_1, # of connection points: 4
#     Node 13, Type 0, BuildingBlock: QUQFOY_clean_sbu_1, # of connection points: 4
#     Node 14, Type 0, BuildingBlock: QUQFOY_clean_sbu_1, # of connection points: 4
#     Node 15, Type 0, BuildingBlock: QUQFOY_clean_sbu_1, # of connection points: 4
#     Node 16, Type 0, BuildingBlock: QUQFOY_clean_sbu_1, # of connection points: 4
#     Node 17, Type 0, BuildingBlock: QUQFOY_clean_sbu_1, # of connection points: 4
#     Node 18, Type 0, BuildingBlock: QUQFOY_clean_sbu_1, # of connection points: 4
#     Node 19, Type 0, BuildingBlock: QUQFOY_clean_sbu_1, # of connection points: 4
#     Node 20, Type 0, BuildingBlock: QUQFOY_clean_sbu_1, # of connection points: 4
#     Node 21, Type 0, BuildingBlock: QUQFOY_clean_sbu_1, # of connection points: 4
#     Node 22, Type 0, BuildingBlock: QUQFOY_clean_sbu_1, # of connection points: 4
#     Node 23, Type 0, BuildingBlock: QUQFOY_clean_sbu_1, # of connection points: 4
#     Edge 24, Type (0, 0), BuildingBlock: TEMPAE_clean_linker_10, # of connection points: 2
#     Edge 25, Type (0, 0), BuildingBlock: TEMPAE_clean_linker_10, # of connection points: 2
#     Edge 26, Type (0, 0), BuildingBlock: TEMPAE_clean_linker_10, # of connection points: 2
#     Edge 27, Type (0, 0), BuildingBlock: TEMPAE_clean_linker_10, # of connection points: 2
#     Edge 28, Type (0, 0), BuildingBlock: TEMPAE_clean_linker_10, # of connection points: 2
#     Edge 29, Type (0, 0), BuildingBlock: TEMPAE_clean_linker_10, # of connection points: 2
#     Edge 30, Type (0, 0), BuildingBlock: TEMPAE_clean_linker_10, # of connection points: 2
#     Edge 31, Type (0, 0), BuildingBlock: TEMPAE_clean_linker_10, # of connection points: 2
#     Edge 32, Type (0, 0), BuildingBlock: TEMPAE_clean_linker_10, # of connection points: 2
#     Edge 33, Type (0, 0), BuildingBlock: TEMPAE_clean_linker_10, # of connection points: 2
#     Edge 34, Type (0, 0), BuildingBlock: TEMPAE_clean_linker_10, # of connection points: 2
#     Edge 35, Type (0, 0), BuildingBlock: TEMPAE_clean_linker_10, # of connection points: 2
#     Edge 36, Type (0, 0), BuildingBlock: TEMPAE_clean_linker_10, # of connection points: 2
#     Edge 37, Type (0, 0), BuildingBlock: TEMPAE_clean_linker_10, # of connection points: 2
#     Edge 38, Type (0, 0), BuildingBlock: TEMPAE_clean_linker_10, # of connection points: 2
#     Edge 39, Type (0, 0), BuildingBlock: TEMPAE_clean_linker_10, # of connection points: 2
#     Edge 40, Type (0, 0), BuildingBlock: TEMPAE_clean_linker_10, # of connection points: 2
#     Edge 41, Type (0, 0), BuildingBlock: TEMPAE_clean_linker_10, # of connection points: 2
#     Edge 42, Type (0, 0), BuildingBlock: TEMPAE_clean_linker_10, # of connection points: 2
#     Edge 43, Type (0, 0), BuildingBlock: TEMPAE_clean_linker_10, # of connection points: 2
#     Edge 44, Type (0, 0), BuildingBlock: TEMPAE_clean_linker_10, # of connection points: 2
#     Edge 45, Type (0, 0), BuildingBlock: TEMPAE_clean_linker_10, # of connection points: 2
#     Edge 46, Type (0, 0), BuildingBlock: TEMPAE_clean_linker_10, # of connection points: 2
#     Edge 47, Type (0, 0), BuildingBlock: TEMPAE_clean_linker_10, # of connection points: 2
#     Edge 48, Type (0, 0), BuildingBlock: TEMPAE_clean_linker_10, # of connection points: 2
#     Edge 49, Type (0, 0), BuildingBlock: TEMPAE_clean_linker_10, # of connection points: 2
#     Edge 50, Type (0, 0), BuildingBlock: TEMPAE_clean_linker_10, # of connection points: 2
#     Edge 51, Type (0, 0), BuildingBlock: TEMPAE_clean_linker_10, # of connection points: 2
#     Edge 52, Type (0, 0), BuildingBlock: TEMPAE_clean_linker_10, # of connection points: 2
#     Edge 53, Type (0, 0), BuildingBlock: TEMPAE_clean_linker_10, # of connection points: 2
#     Edge 54, Type (0, 0), BuildingBlock: TEMPAE_clean_linker_10, # of connection points: 2
#     Edge 55, Type (0, 0), BuildingBlock: TEMPAE_clean_linker_10, # of connection points: 2
#     Edge 56, Type (0, 0), BuildingBlock: TEMPAE_clean_linker_10, # of connection points: 2
#     Edge 57, Type (0, 0), BuildingBlock: TEMPAE_clean_linker_10, # of connection points: 2
#     Edge 58, Type (0, 0), BuildingBlock: TEMPAE_clean_linker_10, # of connection points: 2
#     Edge 59, Type (0, 0), BuildingBlock: TEMPAE_clean_linker_10, # of connection points: 2
#     Edge 60, Type (0, 0), BuildingBlock: TEMPAE_clean_linker_10, # of connection points: 2
#     Edge 61, Type (0, 0), BuildingBlock: TEMPAE_clean_linker_10, # of connection points: 2
#     Edge 62, Type (0, 0), BuildingBlock: TEMPAE_clean_linker_10, # of connection points: 2
#     Edge 63, Type (0, 0), BuildingBlock: TEMPAE_clean_linker_10, # of connection points: 2
#     Edge 64, Type (0, 0), BuildingBlock: TEMPAE_clean_linker_10, # of connection points: 2
#     Edge 65, Type (0, 0), BuildingBlock: TEMPAE_clean_linker_10, # of connection points: 2
#     Edge 66, Type (0, 0), BuildingBlock: TEMPAE_clean_linker_10, # of connection points: 2
#     Edge 67, Type (0, 0), BuildingBlock: TEMPAE_clean_linker_10, # of connection points: 2
#     Edge 68, Type (0, 0), BuildingBlock: TEMPAE_clean_linker_10, # of connection points: 2
#     Edge 69, Type (0, 0), BuildingBlock: TEMPAE_clean_linker_10, # of connection points: 2
#     Edge 70, Type (0, 0), BuildingBlock: TEMPAE_clean_linker_10, # of connection points: 2
#     Edge 71, Type (0, 0), BuildingBlock: TEMPAE_clean_linker_10, # of connection points: 2
# Relax obj value: 0.234
# Max RMSD: 0.214
# Mean RMSD: 0.214
data_MOF--net-hbo--node1-QUQFOY_clean_sbu_1--edge1-TEMPAE_clean_linker_10
_symmetry_space_group_name_H-M    P1
_symmetry_Int_Tables_number       1
_symmetry_cell_setting            triclinic
loop_
_symmetry_equiv_pos_as_xyz
'x, y, z'
_cell_length_a     55.316514
_cell_length_b     55.340916
_cell_length_c     55.320394
_cell_angle_alpha  90.007739
_cell_angle_beta   90.007816
_cell_angle_gamma 90.005
loop_
_atom_site_label
_atom_site_type_symbol
_atom_site_fract_x
_atom_site_fract_y
_atom_site_fract_z
_atom_type_partial_charge
O0 O 0.13939 0.32099 0.26482 0.0
Cd1 Cd 0.1327 0.34508 0.23703 0.0
Cd2 Cd 0.16002 0.37226 0.26506 0.0
O3 O 0.15647 0.34575 0.29093 0.0
O4 O 0.1029 0.33235 0.22133 0.0
O5 O 0.105 0.36852 0.2384 0.0
C6 C 0.09237 0.35222 0.22747 0.0
C7 C 0.15266 0.41263 0.27387 0.0
C8 C 0.14853 0.32489 0.28555 0.0
C9 C 0.18064 0.35567 0.21704 0.0
O10 O 0.18442 0.36498 0.23771 0.0
O11 O 0.15971 0.34799 0.21149 0.0
O12 O 0.17245 0.40226 0.28052 0.0
O13 O 0.13659 0.39982 0.2628 0.0
O14 O 0.13265 0.68168 0.74166 0.0
Cd15 Cd 0.12972 0.65536 0.76812 0.0
Cd16 Cd 0.15448 0.63023 0.73546 0.0
O17 O 0.14879 0.65918 0.713 0.0
O18 O 0.10247 0.66693 0.78872 0.0
O19 O 0.1015 0.63266 0.76805 0.0
C20 C 0.09071 0.64799 0.78191 0.0
C21 C 0.14309 0.591 0.72622 0.0
C22 C 0.14051 0.67935 0.7202 0.0
C23 C 0.18003 0.64177 0.78165 0.0
O24 O 0.18206 0.63447 0.75995 0.0
O25 O 0.15981 0.6493 0.78961 0.0
O26 O 0.16117 0.60103 0.7154 0.0
O27 O 0.13093 0.60365 0.74161 0.0
O28 O 0.81652 0.63515 0.2414 0.0
Cd29 Cd 0.8433 0.62834 0.26662 0.0
Cd30 Cd 0.86869 0.655 0.23659 0.0
O31 O 0.84041 0.64975 0.21299 0.0
O32 O 0.83501 0.59827 0.28473 0.0
O33 O 0.86612 0.60121 0.25959 0.0
C34 C 0.85316 0.58825 0.27404 0.0
C35 C 0.90861 0.64916 0.22482 0.0
C36 C 0.81959 0.64296 0.21997 0.0
C37 C 0.85573 0.67647 0.28504 0.0
O38 O 0.86277 0.68019 0.2635 0.0
O39 O 0.84938 0.65539 0.29155 0.0
O40 O 0.89682 0.66819 0.21835 0.0
O41 O 0.89747 0.63296 0.23737 0.0
O42 O 0.81448 0.3656 0.75614 0.0
Cd43 Cd 0.84026 0.37143 0.72977 0.0
Cd44 Cd 0.86573 0.34551 0.76044 0.0
O45 O 0.83777 0.35031 0.78463 0.0
O46 O 0.82915 0.40093 0.71246 0.0
O47 O 0.86395 0.39865 0.73223 0.0
C48 C 0.84873 0.41125 0.71982 0.0
C49 C 0.90584 0.35271 0.77062 0.0
C50 C 0.81717 0.35761 0.77753 0.0
C51 C 0.85178 0.32302 0.71236 0.0
O52 O 0.85964 0.32007 0.73376 0.0
O53 O 0.84475 0.34373 0.70541 0.0
O54 O 0.89492 0.33338 0.7777 0.0
O55 O 0.89369 0.36851 0.7585 0.0
O56 O 0.24712 0.18499 0.36708 0.0
Cd57 Cd 0.26939 0.15568 0.37269 0.0
Cd58 Cd 0.23463 0.13383 0.3493 0.0
O59 O 0.2144 0.16353 0.35963 0.0
O60 O 0.29004 0.16178 0.40178 0.0
O61 O 0.26064 0.13459 0.40045 0.0
C62 C 0.27714 0.14564 0.41266 0.0
C63 C 0.22462 0.09383 0.35726 0.0
C64 C 0.22443 0.18385 0.36356 0.0
C65 C 0.28092 0.14228 0.32286 0.0
O66 O 0.25818 0.13937 0.32093 0.0
O67 O 0.29038 0.14558 0.34355 0.0
O68 O 0.21278 0.10605 0.34128 0.0
O69 O 0.24133 0.10468 0.36936 0.0
O70 O 0.36832 0.75264 0.81794 0.0
Cd71 Cd 0.37261 0.72825 0.84593 0.0
Cd72 Cd 0.34578 0.7605 0.8695 0.0
O73 O 0.34984 0.78127 0.83883 0.0
O74 O 0.40263 0.70916 0.83989 0.0
O75 O 0.39866 0.73557 0.86977 0.0
C76 C 0.41204 0.72057 0.85794 0.0
C77 C 0.35269 0.77438 0.90863 0.0
C78 C 0.35883 0.77356 0.8191 0.0
C79 C 0.32353 0.71181 0.85925 0.0
O80 O 0.32063 0.73345 0.86632 0.0
O81 O 0.34414 0.70472 0.85196 0.0
O82 O 0.33347 0.78051 0.89693 0.0
O83 O 0.36862 0.76139 0.89764 0.0
O84 O 0.7524 0.81205 0.36783 0.0
Cd85 Cd 0.72867 0.84002 0.3744 0.0
Cd86 Cd 0.76165 0.86433 0.3507 0.0
O87 O 0.78362 0.83542 0.35963 0.0
O88 O 0.70926 0.83306 0.40416 0.0
O89 O 0.73742 0.86149 0.40189 0.0
C90 C 0.72178 0.84977 0.41461 0.0
C91 C 0.77084 0.90465 0.35855 0.0
C92 C 0.77487 0.81452 0.36359 0.0
C93 C 0.71512 0.85388 0.32514 0.0
O94 O 0.73756 0.85835 0.32285 0.0
O95 O 0.70638 0.84932 0.34591 0.0
O96 O 0.78213 0.89287 0.34186 0.0
O97 O 0.75516 0.89317 0.37142 0.0
O98 O 0.63097 0.23739 0.81592 0.0
Cd99 Cd 0.62566 0.26419 0.8415 0.0
Cd100 Cd 0.65124 0.23319 0.86697 0.0
O101 O 0.6456 0.20877 0.83942 0.0
O102 O 0.59668 0.28214 0.82988 0.0
O103 O 0.59799 0.26279 0.86492 0.0
C104 C 0.5859 0.27535 0.8494 0.0
C105 C 0.64428 0.2238 0.9073 0.0
C106 C 0.63843 0.21584 0.81878 0.0
C107 C 0.67466 0.28058 0.85269 0.0
O108 O 0.67732 0.25908 0.86031 0.0
O109 O 0.65398 0.28801 0.84603 0.0
O110 O 0.66327 0.21604 0.89622 0.0
O111 O 0.62862 0.23615 0.89517 0.0
O112 O 0.28026 0.8576 0.67266 0.0
Cd113 Cd 0.24732 0.86718 0.65835 0.0
Cd114 Cd 0.25788 0.83419 0.62597 0.0
O115 O 0.28557 0.82553 0.64967 0.0
O116 O 0.24023 0.89886 0.67368 0.0
O117 O 0.2437 0.894 0.63409 0.0
C118 C 0.24018 0.90814 0.65232 0.0
C119 C 0.26576 0.84214 0.58545 0.0
C120 C 0.29204 0.83864 0.66741 0.0
C121 C 0.21213 0.82667 0.65316 0.0
O122 O 0.22428 0.82074 0.63463 0.0
O123 O 0.2188 0.84433 0.66626 0.0
O124 O 0.26549 0.82034 0.59369 0.0
O125 O 0.26215 0.85966 0.60047 0.0
O126 O 0.68236 0.7448 0.13824 0.0
Cd127 Cd 0.65403 0.76815 0.13195 0.0
Cd128 Cd 0.63012 0.7343 0.15467 0.0
O129 O 0.65939 0.71305 0.14533 0.0
O130 O 0.66127 0.78859 0.10293 0.0
O131 O 0.63331 0.75989 0.10371 0.0
C132 C 0.64503 0.77609 0.09174 0.0
C133 C 0.59021 0.72513 0.14539 0.0
C134 C 0.68019 0.72221 0.14186 0.0
C135 C 0.63961 0.78013 0.18152 0.0
O136 O 0.63555 0.75757 0.18328 0.0
O137 O 0.64402 0.78945 0.16097 0.0
O138 O 0.60163 0.7131 0.1618 0.0
O139 O 0.60175 0.74167 0.13372 0.0
O140 O 0.73667 0.13522 0.67867 0.0
Cd141 Cd 0.76231 0.13031 0.65198 0.0
Cd142 Cd 0.72884 0.15343 0.62745 0.0
O143 O 0.70579 0.1453 0.65566 0.0
O144 O 0.78287 0.10337 0.66439 0.0
O145 O 0.76155 0.10112 0.63057 0.0
C146 C 0.77567 0.09091 0.64605 0.0
C147 C 0.72265 0.14237 0.58745 0.0
C148 C 0.71435 0.14018 0.67636 0.0
C149 C 0.77458 0.18024 0.63889 0.0
O150 O 0.75232 0.18187 0.63332 0.0
O151 O 0.78368 0.15989 0.64448 0.0
O152 O 0.71029 0.15969 0.59708 0.0
O153 O 0.73763 0.13067 0.60097 0.0
O154 O 0.31735 0.25239 0.13513 0.0
Cd155 Cd 0.34429 0.22723 0.12962 0.0
Cd156 Cd 0.36927 0.26028 0.15269 0.0
O157 O 0.34069 0.28308 0.14495 0.0
O158 O 0.33272 0.20752 0.10177 0.0
O159 O 0.36621 0.22952 0.10094 0.0
C160 C 0.35111 0.21557 0.0899 0.0
C161 C 0.40909 0.26956 0.14302 0.0
C162 C 0.31987 0.27466 0.14012 0.0
C163 C 0.35778 0.21404 0.17906 0.0
O164 O 0.36384 0.23618 0.18082 0.0
O165 O 0.35172 0.20531 0.15868 0.0
O166 O 0.39811 0.28064 0.16036 0.0
O167 O 0.39719 0.25374 0.13068 0.0
O168 O 0.86679 0.68215 0.74702 0.0
Cd169 Cd 0.87139 0.65287 0.76964 0.0
Cd170 Cd 0.85019 0.63081 0.73372 0.0
O171 O 0.86165 0.66039 0.71407 0.0
O172 O 0.89911 0.65911 0.79212 0.0
O173 O 0.89997 0.63231 0.76233 0.0
C174 C 0.91097 0.64329 0.7797 0.0
C175 C 0.85929 0.59097 0.72431 0.0
C176 C 0.8648 0.68081 0.72415 0.0
C177 C 0.82108 0.63867 0.77825 0.0
O178 O 0.82034 0.63613 0.75541 0.0
O179 O 0.84123 0.64199 0.78881 0.0
O180 O 0.8439 0.60296 0.71149 0.0
O181 O 0.87014 0.60197 0.74176 0.0
O182 O 0.86855 0.31675 0.25499 0.0
Cd183 Cd 0.87258 0.34403 0.22973 0.0
Cd184 Cd 0.84569 0.36823 0.26144 0.0
O185 O 0.85035 0.33843 0.28322 0.0
O186 O 0.9027 0.33768 0.21078 0.0
O187 O 0.89858 0.36814 0.23647 0.0
C188 C 0.91205 0.35599 0.22181 0.0
C189 C 0.85219 0.40786 0.27403 0.0
C190 C 0.85934 0.31852 0.276 0.0
C191 C 0.82309 0.35618 0.21335 0.0
O192 O 0.82026 0.36367 0.23486 0.0
O193 O 0.8438 0.34922 0.20618 0.0
O194 O 0.83319 0.3961 0.2807 0.0
O195 O 0.86813 0.3967 0.26118 0.0
O196 O 0.17847 0.36581 0.76656 0.0
Cd197 Cd 0.15549 0.37141 0.738 0.0
Cd198 Cd 0.12584 0.34464 0.76491 0.0
O199 O 0.15296 0.34713 0.79076 0.0
O200 O 0.16858 0.40063 0.72151 0.0
O201 O 0.13194 0.39891 0.73759 0.0
C202 C 0.14848 0.41124 0.72671 0.0
C203 C 0.08611 0.35557 0.77297 0.0
C204 C 0.17389 0.35571 0.78664 0.0
C205 C 0.14293 0.32336 0.71777 0.0
O206 O 0.13102 0.32001 0.73716 0.0
O207 O 0.15368 0.34328 0.71385 0.0
O208 O 0.09522 0.3361 0.782 0.0
O209 O 0.09982 0.36926 0.76 0.0
O210 O 0.18089 0.63888 0.23862 0.0
Cd211 Cd 0.15267 0.63304 0.26225 0.0
Cd212 Cd 0.12914 0.65644 0.22857 0.0
O213 O 0.15812 0.64707 0.20697 0.0
O214 O 0.16049 0.60453 0.28318 0.0
O215 O 0.13192 0.60446 0.2551 0.0
C216 C 0.14404 0.59295 0.27134 0.0
C217 C 0.08904 0.64695 0.22068 0.0
C218 C 0.17884 0.643 0.21609 0.0
C219 C 0.13941 0.68295 0.27437 0.0
O220 O 0.1352 0.68487 0.25185 0.0
O221 O 0.14343 0.66228 0.28361 0.0
O222 O 0.09998 0.6634 0.20825 0.0
O223 O 0.1012 0.63533 0.23681 0.0
O224 O 0.77117 0.81996 0.63938 0.0
Cd225 Cd 0.74461 0.84577 0.63436 0.0
Cd226 Cd 0.7766 0.87133 0.65851 0.0
O227 O 0.80061 0.84387 0.65134 0.0
O228 O 0.72466 0.83231 0.60747 0.0
O229 O 0.74443 0.86701 0.60495 0.0
C230 C 0.73101 0.85084 0.59486 0.0
C231 C 0.78309 0.91105 0.64719 0.0
C232 C 0.79315 0.823 0.64539 0.0
C233 C 0.73074 0.85856 0.68423 0.0
O234 O 0.75266 0.86515 0.68647 0.0
O235 O 0.72251 0.85234 0.66368 0.0
O236 O 0.795 0.90164 0.66492 0.0
O237 O 0.76808 0.89761 0.63542 0.0
O238 O 0.63304 0.23729 0.17904 0.0
Cd239 Cd 0.62914 0.26429 0.15347 0.0
Cd240 Cd 0.65472 0.23303 0.12733 0.0
O241 O 0.64974 0.2096 0.15574 0.0
O242 O 0.60078 0.28323 0.16535 0.0
O243 O 0.60101 0.26337 0.1306 0.0
C244 C 0.5894 0.27614 0.14627 0.0
C245 C 0.64352 0.2247 0.08776 0.0
C246 C 0.64144 0.21612 0.17614 0.0
C247 C 0.67921 0.27945 0.14066 0.0
O248 O 0.68161 0.2581 0.13251 0.0
O249 O 0.65877 0.28681 0.1483 0.0
O250 O 0.66186 0.21402 0.09746 0.0
O251 O 0.63106 0.23945 0.10085 0.0
O252 O 0.22624 0.17867 0.63711 0.0
Cd253 Cd 0.25706 0.15795 0.63233 0.0
Cd254 Cd 0.23311 0.12828 0.6615 0.0
O255 O 0.20562 0.15308 0.65963 0.0
O256 O 0.27264 0.17236 0.60323 0.0
O257 O 0.25977 0.13451 0.60478 0.0
C258 C 0.26943 0.15189 0.59259 0.0
C259 C 0.22794 0.08809 0.65084 0.0
C260 C 0.2073 0.1733 0.64894 0.0
C261 C 0.27904 0.14907 0.68091 0.0
O262 O 0.26018 0.13675 0.68547 0.0
O263 O 0.28221 0.15826 0.66007 0.0
O264 O 0.21896 0.09649 0.67067 0.0
O265 O 0.23938 0.10275 0.63675 0.0
O266 O 0.36494 0.76148 0.18066 0.0
Cd267 Cd 0.37031 0.73561 0.1543 0.0
Cd268 Cd 0.34607 0.76764 0.12902 0.0
O269 O 0.35369 0.7913 0.15688 0.0
O270 O 0.39812 0.71622 0.1665 0.0
O271 O 0.39905 0.7371 0.13233 0.0
C272 C 0.41002 0.72359 0.14785 0.0
C273 C 0.3558 0.77555 0.08896 0.0
C274 C 0.35929 0.78354 0.17775 0.0
C275 C 0.32079 0.72124 0.14168 0.0
O276 O 0.3184 0.74321 0.13528 0.0
O277 O 0.34143 0.71311 0.14767 0.0
O278 O 0.33828 0.78684 0.09945 0.0
O279 O 0.36828 0.76033 0.10149 0.0
O280 O 0.72639 0.13256 0.31969 0.0
Cd281 Cd 0.75947 0.12486 0.33491 0.0
Cd282 Cd 0.74625 0.15721 0.36716 0.0
O283 O 0.71877 0.16415 0.34273 0.0
O284 O 0.76874 0.09304 0.32101 0.0
O285 O 0.76333 0.09913 0.36022 0.0
C286 C 0.76825 0.08451 0.3427 0.0
C287 C 0.73714 0.15031 0.40765 0.0
C288 C 0.71343 0.15078 0.32482 0.0
C289 C 0.79218 0.1673 0.34098 0.0
O290 O 0.77928 0.17243 0.35925 0.0
O291 O 0.78688 0.14929 0.32772 0.0
O292 O 0.73689 0.1718 0.39865 0.0
O293 O 0.74215 0.13247 0.39346 0.0
O294 O 0.3149 0.25755 0.86626 0.0
Cd295 Cd 0.34475 0.23571 0.87069 0.0
Cd296 Cd 0.36545 0.27245 0.84945 0.0
O297 O 0.33539 0.29135 0.86131 0.0
O298 O 0.33853 0.21231 0.89767 0.0
O299 O 0.36472 0.24255 0.89986 0.0
C300 C 0.35394 0.22464 0.91015 0.0
C301 C 0.40559 0.28034 0.85896 0.0
C302 C 0.31534 0.28045 0.86432 0.0
C303 C 0.35807 0.22817 0.82 0.0
O304 O 0.35985 0.25107 0.81949 0.0
O305 O 0.3558 0.21726 0.84012 0.0
O306 O 0.39407 0.29406 0.84397 0.0
O307 O 0.39388 0.26308 0.86936 0.0
O308 O 0.25955 0.86902 0.31358 0.0
Cd309 Cd 0.23292 0.87417 0.33925 0.0
Cd310 Cd 0.26384 0.84881 0.36487 0.0
O311 O 0.2884 0.85612 0.33775 0.0
O312 O 0.21453 0.9029 0.3276 0.0
O313 O 0.2344 0.90199 0.36237 0.0
C314 C 0.22157 0.91387 0.34693 0.0
C315 C 0.27121 0.85707 0.40542 0.0
C316 C 0.28135 0.86254 0.31686 0.0
C317 C 0.2173 0.82467 0.3503 0.0
O318 O 0.23898 0.82188 0.3575 0.0
O319 O 0.2097 0.8455 0.34428 0.0
O320 O 0.28199 0.83942 0.39462 0.0
O321 O 0.2569 0.87058 0.39288 0.0
O322 O 0.68353 0.73472 0.86475 0.0
Cd323 Cd 0.65959 0.76268 0.87124 0.0
Cd324 Cd 0.63225 0.73469 0.84416 0.0
O325 O 0.65871 0.70879 0.84749 0.0
O326 O 0.67245 0.77878 0.90073 0.0
O327 O 0.63623 0.76177 0.89895 0.0
C328 C 0.65256 0.77291 0.91137 0.0
C329 C 0.59197 0.72591 0.85195 0.0
C330 C 0.67958 0.71405 0.8555 0.0
C331 C 0.64898 0.78245 0.82327 0.0
O332 O 0.63948 0.76185 0.81958 0.0
O333 O 0.65678 0.78801 0.84413 0.0
O334 O 0.60211 0.71931 0.83202 0.0
O335 O 0.60494 0.73699 0.86789 0.0
C336 C 0.14524 0.55572 0.29692 0.0
C337 C 0.14077 0.56672 0.27456 0.0
C338 C 0.14445 0.53046 0.29933 0.0
C339 C 0.14016 0.51597 0.27865 0.0
C340 C 0.13505 0.5271 0.25617 0.0
C341 C 0.13497 0.55237 0.25452 0.0
C342 C 0.14901 0.51927 0.32378 0.0
C343 C 0.13116 0.51236 0.23351 0.0
C344 C 0.16944 0.45416 0.27573 0.0
C345 C 0.14937 0.43883 0.27725 0.0
C346 C 0.16669 0.47931 0.2765 0.0
C347 C 0.14336 0.48933 0.27981 0.0
C348 C 0.12314 0.47386 0.28259 0.0
C349 C 0.12632 0.44872 0.28074 0.0
C350 C 0.18861 0.49514 0.27266 0.0
C351 C 0.09816 0.48385 0.28709 0.0
H352 H 0.14954 0.56686 0.31246 0.0
H353 H 0.13171 0.56088 0.23717 0.0
H354 H 0.13544 0.50499 0.32757 0.0
H355 H 0.16708 0.51058 0.32397 0.0
H356 H 0.14838 0.53288 0.33853 0.0
H357 H 0.12652 0.52378 0.21766 0.0
H358 H 0.14784 0.50205 0.22927 0.0
H359 H 0.11645 0.49903 0.23628 0.0
H360 H 0.18725 0.44649 0.27281 0.0
H361 H 0.11082 0.43681 0.28209 0.0
H362 H 0.19105 0.50749 0.28825 0.0
H363 H 0.18595 0.50654 0.25637 0.0
H364 H 0.20545 0.48446 0.2703 0.0
H365 H 0.09864 0.49725 0.30201 0.0
H366 H 0.08498 0.46944 0.29175 0.0
H367 H 0.09161 0.49338 0.27072 0.0
C368 C 0.94736 0.64225 0.80654 0.0
C369 C 0.93706 0.63963 0.78356 0.0
C370 C 0.97254 0.64095 0.80968 0.0
C371 C 0.98764 0.63809 0.78919 0.0
C372 C 0.97718 0.63494 0.76603 0.0
C373 C 0.95198 0.63526 0.7636 0.0
C374 C 0.983 0.64331 0.83477 0.0
C375 C 0.99259 0.63262 0.7436 0.0
C376 C 0.05015 0.66588 0.78845 0.0
C377 C 0.06484 0.6453 0.78758 0.0
C378 C 0.02495 0.66379 0.78984 0.0
C379 C 0.0143 0.64056 0.79136 0.0
C380 C 0.02922 0.61978 0.79231 0.0
C381 C 0.05437 0.62237 0.78983 0.0
C382 C 0.0097 0.68637 0.78796 0.0
C383 C 0.0186 0.59481 0.79498 0.0
H384 H 0.93575 0.64545 0.822 0.0
H385 H 0.944 0.63344 0.74578 0.0
H386 H 0.99703 0.62931 0.83784 0.0
H387 H 0.99184 0.66118 0.83676 0.0
H388 H 0.96891 0.6416 0.84897 0.0
H389 H 0.98159 0.63001 0.727 0.0
H390 H 0.00374 0.64914 0.74133 0.0
H391 H 0.00518 0.61714 0.74537 0.0
H392 H 0.05827 0.6836 0.78648 0.0
H393 H 0.0658 0.60646 0.78933 0.0
H394 H 0.99686 0.68744 0.8033 0.0
H395 H 0.99883 0.68574 0.7711 0.0
H396 H 0.02082 0.70308 0.78775 0.0
H397 H 0.00446 0.59467 0.80922 0.0
H398 H 0.0326 0.58118 0.79961 0.0
H399 H 0.00989 0.58931 0.77779 0.0
C400 C 0.87707 0.44485 0.28148 0.0
C401 C 0.85436 0.43399 0.2787 0.0
C402 C 0.87924 0.47008 0.28352 0.0
C403 C 0.8583 0.48469 0.28158 0.0
C404 C 0.83531 0.47369 0.27914 0.0
C405 C 0.8336 0.44844 0.27822 0.0
C406 C 0.90393 0.48109 0.28717 0.0
C407 C 0.8126 0.48859 0.27623 0.0
C408 C 0.85431 0.55086 0.29918 0.0
C409 C 0.85767 0.56218 0.27679 0.0
C410 C 0.85619 0.52564 0.30137 0.0
C411 C 0.86034 0.51148 0.28046 0.0
C412 C 0.86428 0.52297 0.2579 0.0
C413 C 0.86339 0.54826 0.25647 0.0
C414 C 0.85297 0.51414 0.3259 0.0
C415 C 0.86793 0.50854 0.23501 0.0
H416 H 0.89313 0.43362 0.28194 0.0
H417 H 0.81605 0.44003 0.27578 0.0
H418 H 0.90962 0.49064 0.2705 0.0
H419 H 0.90339 0.49464 0.30195 0.0
H420 H 0.91779 0.46725 0.29158 0.0
H421 H 0.79614 0.47721 0.27452 0.0
H422 H 0.81027 0.50082 0.29192 0.0
H423 H 0.81413 0.50009 0.25986 0.0
H424 H 0.85006 0.56172 0.31492 0.0
H425 H 0.86575 0.55708 0.23912 0.0
H426 H 0.86723 0.50039 0.3291 0.0
H427 H 0.83528 0.50476 0.32669 0.0
H428 H 0.85361 0.52769 0.34071 0.0
H429 H 0.88332 0.49589 0.23712 0.0
H430 H 0.87141 0.52025 0.21908 0.0
H431 H 0.85157 0.4975 0.23136 0.0
C432 C 0.04811 0.35573 0.79719 0.0
C433 C 0.06012 0.36065 0.77548 0.0
C434 C 0.02285 0.35765 0.79876 0.0
C435 C 0.00935 0.36344 0.77779 0.0
C436 C 0.02155 0.36917 0.75601 0.0
C437 C 0.04688 0.36818 0.75528 0.0
C438 C 0.01058 0.35248 0.82258 0.0
C439 C 0.00786 0.37457 0.73302 0.0
C440 C 0.9471 0.33537 0.77229 0.0
C441 C 0.93203 0.35557 0.77441 0.0
C442 C 0.97228 0.33775 0.77341 0.0
C443 C 0.9826 0.36077 0.77779 0.0
C444 C 0.96737 0.38109 0.78106 0.0
C445 C 0.9422 0.37834 0.77875 0.0
C446 C 0.98785 0.31575 0.76898 0.0
C447 C 0.97765 0.4057 0.78679 0.0
H448 H 0.05846 0.35005 0.81285 0.0
H449 H 0.05624 0.37175 0.73843 0.0
H450 H 0.99638 0.36615 0.82628 0.0
H451 H 0.00162 0.33457 0.82179 0.0
H452 H 0.02361 0.35236 0.83786 0.0
H453 H 0.02004 0.37999 0.718 0.0
H454 H 0.99762 0.35827 0.72735 0.0
H455 H 0.99453 0.38921 0.73604 0.0
H456 H 0.93919 0.31781 0.76866 0.0
H457 H 0.93046 0.39393 0.7805 0.0
H458 H 0.99939 0.31214 0.78496 0.0
H459 H 7e-05 0.31907 0.75341 0.0
H460 H 0.97696 0.29932 0.76516 0.0
H461 H 0.99043 0.40442 0.80221 0.0
H462 H 0.96332 0.419 0.79134 0.0
H463 H 0.98797 0.4126 0.77106 0.0
C464 C 0.16535 0.45268 0.72422 0.0
C465 C 0.14537 0.43729 0.72225 0.0
C466 C 0.16258 0.4778 0.72294 0.0
C467 C 0.13936 0.48771 0.71863 0.0
C468 C 0.1193 0.47215 0.71529 0.0
C469 C 0.12246 0.44707 0.71768 0.0
C470 C 0.18432 0.49374 0.72733 0.0
C471 C 0.09449 0.48201 0.70967 0.0
C472 C 0.131 0.55115 0.74284 0.0
C473 C 0.13815 0.56506 0.72295 0.0
C474 C 0.13036 0.52587 0.74141 0.0
C475 C 0.13611 0.51436 0.71927 0.0
C476 C 0.14144 0.52849 0.69861 0.0
C477 C 0.14294 0.55372 0.70084 0.0
C478 C 0.12531 0.51149 0.76406 0.0
C479 C 0.14665 0.51693 0.67445 0.0
H480 H 0.18304 0.44511 0.72799 0.0
H481 H 0.10703 0.4351 0.71601 0.0
H482 H 0.18739 0.50575 0.71158 0.0
H483 H 0.18102 0.50548 0.74326 0.0
H484 H 0.20106 0.48313 0.73059 0.0
H485 H 0.08159 0.46751 0.70451 0.0
H486 H 0.0872 0.49157 0.72571 0.0
H487 H 0.09554 0.49535 0.69472 0.0
H488 H 0.12748 0.55995 0.76 0.0
H489 H 0.14828 0.56455 0.6854 0.0
H490 H 0.1418 0.50135 0.76935 0.0
H491 H 0.11084 0.49804 0.76077 0.0
H492 H 0.11981 0.52317 0.77945 0.0
H493 H 0.16481 0.50845 0.67482 0.0
H494 H 0.14626 0.53033 0.65949 0.0
H495 H 0.13331 0.50247 0.67054 0.0
C496 C 0.94911 0.66777 0.21996 0.0
C497 C 0.93466 0.64701 0.21975 0.0
C498 C 0.97431 0.6661 0.21807 0.0
C499 C 0.98521 0.64315 0.21493 0.0
C500 C 0.97053 0.62223 0.21328 0.0
C501 C 0.94539 0.62436 0.21626 0.0
C502 C 0.98932 0.68876 0.22074 0.0
C503 C 0.98142 0.5976 0.20897 0.0
C504 C 0.05111 0.64678 0.19608 0.0
C505 C 0.0628 0.64312 0.21824 0.0
C506 C 0.02581 0.64525 0.19435 0.0
C507 C 0.01199 0.64104 0.21549 0.0
C508 C 0.02383 0.63685 0.2378 0.0
C509 C 0.04913 0.63749 0.23878 0.0
C510 C 0.01386 0.64881 0.17008 0.0
C511 C 0.00979 0.6331 0.26092 0.0
H512 H 0.94079 0.68528 0.22288 0.0
H513 H 0.93414 0.60832 0.21592 0.0
H514 H 0.00115 0.68715 0.23687 0.0
H515 H 0.00125 0.69112 0.20481 0.0
H516 H 0.97801 0.70522 0.22274 0.0
H517 H 0.96743 0.58381 0.20481 0.0
H518 H 0.99452 0.59833 0.19379 0.0
H519 H 0.99147 0.5917 0.22528 0.0
H520 H 0.06173 0.65096 0.18015 0.0
H521 H 0.05818 0.63487 0.25597 0.0
H522 H 0.00448 0.66652 0.1697 0.0
H523 H 2e-05 0.63463 0.16696 0.0
H524 H 0.02713 0.64835 0.15502 0.0
H525 H 0.99878 0.6494 0.26483 0.0
H526 H 0.02177 0.62957 0.27665 0.0
H527 H 0.99713 0.6177 0.25896 0.0
C528 C 0.85974 0.55437 0.69784 0.0
C529 C 0.8626 0.56482 0.72072 0.0
C530 C 0.86041 0.52916 0.69494 0.0
C531 C 0.86291 0.5142 0.71557 0.0
C532 C 0.86646 0.52478 0.73861 0.0
C533 C 0.86672 0.54999 0.74082 0.0
C534 C 0.8576 0.51853 0.66997 0.0
C535 C 0.86843 0.50952 0.76118 0.0
C536 C 0.83261 0.45287 0.71581 0.0
C537 C 0.85255 0.4373 0.71594 0.0
C538 C 0.83576 0.47797 0.71515 0.0
C539 C 0.85941 0.48766 0.71363 0.0
C540 C 0.87956 0.47192 0.7123 0.0
C541 C 0.87591 0.44686 0.71401 0.0
C542 C 0.81383 0.4941 0.7174 0.0
C543 C 0.90495 0.48157 0.70971 0.0
H544 H 0.85676 0.56589 0.68228 0.0
H545 H 0.86873 0.55809 0.75855 0.0
H546 H 0.87116 0.50406 0.66696 0.0
H547 H 0.83945 0.51023 0.66817 0.0
H548 H 0.85966 0.53242 0.65562 0.0
H549 H 0.8719 0.52056 0.77759 0.0
H550 H 0.85138 0.49929 0.76387 0.0
H551 H 0.8832 0.49612 0.75928 0.0
H552 H 0.81454 0.44545 0.71752 0.0
H553 H 0.89132 0.43475 0.71393 0.0
H554 H 0.81292 0.50679 0.70192 0.0
H555 H 0.81526 0.50513 0.7341 0.0
H556 H 0.79669 0.48367 0.71809 0.0
H557 H 0.90569 0.49544 0.69523 0.0
H558 H 0.91813 0.46704 0.70544 0.0
H559 H 0.9106 0.49041 0.72678 0.0
C560 C 0.95095 0.36887 0.24018 0.0
C561 C 0.93811 0.36116 0.21976 0.0
C562 C 0.97629 0.36982 0.24001 0.0
C563 C 0.98898 0.3638 0.2186 0.0
C564 C 0.97594 0.35784 0.19738 0.0
C565 C 0.95063 0.35606 0.19836 0.0
C566 C 0.98946 0.37549 0.26325 0.0
C567 C 0.98876 0.35227 0.17395 0.0
C568 C 0.0563 0.37812 0.21877 0.0
C569 C 0.06619 0.35533 0.22365 0.0
C570 C 0.0312 0.38106 0.21602 0.0
C571 C 0.01572 0.36093 0.2193 0.0
C572 C 0.02573 0.3379 0.2243 0.0
C573 C 0.05087 0.33532 0.22593 0.0
C574 C 0.02124 0.40566 0.20972 0.0
C575 C 0.00988 0.31611 0.22873 0.0
H576 H 0.94126 0.3726 0.2568 0.0
H577 H 0.94066 0.35027 0.18251 0.0
H578 H 0.99928 0.35915 0.2695 0.0
H579 H 0.00309 0.38987 0.26031 0.0
H580 H 0.97697 0.38138 0.27783 0.0
H581 H 0.97611 0.352 0.15835 0.0
H582 H 0.00313 0.36581 0.17041 0.0
H583 H 0.99759 0.33432 0.17521 0.0
H584 H 0.06822 0.39355 0.21687 0.0
H585 H 0.05853 0.31774 0.22995 0.0
H586 H 0.01034 0.41272 0.22499 0.0
H587 H 0.00905 0.40429 0.19384 0.0
H588 H 0.03578 0.41888 0.20561 0.0
H589 H 0.99734 0.31978 0.24396 0.0
H590 H 0.02054 0.29966 0.23306 0.0
H591 H 0.99868 0.31233 0.21254 0.0
C592 C 0.28048 0.12633 0.55697 0.0
C593 C 0.27499 0.14906 0.56669 0.0
C594 C 0.28404 0.12342 0.53199 0.0
C595 C 0.28107 0.14353 0.51644 0.0
C596 C 0.27594 0.16658 0.5263 0.0
C597 C 0.27337 0.16912 0.55136 0.0
C598 C 0.29038 0.09876 0.5222 0.0
C599 C 0.27195 0.18836 0.51032 0.0
C600 C 0.30113 0.14679 0.45097 0.0
C601 C 0.27945 0.14168 0.43891 0.0
C602 C 0.30245 0.14573 0.4763 0.0
C603 C 0.28135 0.14038 0.48977 0.0
C604 C 0.25965 0.1344 0.47758 0.0
C605 C 0.2591 0.13473 0.45227 0.0
C606 C 0.32613 0.15129 0.48866 0.0
C607 C 0.23656 0.12923 0.49124 0.0
H608 H 0.28191 0.11084 0.56888 0.0
H609 H 0.26895 0.18668 0.55885 0.0
H610 H 0.27481 0.09132 0.512 0.0
H611 H 0.30581 0.10009 0.50944 0.0
H612 H 0.29515 0.08585 0.53682 0.0
H613 H 0.2684 0.20505 0.5209 0.0
H614 H 0.28799 0.19148 0.49871 0.0
H615 H 0.25633 0.18506 0.49817 0.0
H616 H 0.31695 0.15196 0.44062 0.0
H617 H 0.24226 0.13092 0.44297 0.0
H618 H 0.32981 0.1379 0.50314 0.0
H619 H 0.32514 0.16935 0.4973 0.0
H620 H 0.34152 0.15129 0.47576 0.0
H621 H 0.23949 0.11467 0.50467 0.0
H622 H 0.22155 0.12379 0.47906 0.0
H623 H 0.23094 0.14563 0.50134 0.0
C624 C 0.37788 0.78286 0.94521 0.0
C625 C 0.35509 0.77967 0.93464 0.0
C626 C 0.38031 0.78523 0.97039 0.0
C627 C 0.35957 0.78321 0.98528 0.0
C628 C 0.33647 0.78045 0.97456 0.0
C629 C 0.33449 0.7792 0.94933 0.0
C630 C 0.40509 0.78923 0.98108 0.0
C631 C 0.31398 0.77742 0.98975 0.0
C632 C 0.36569 0.75816 0.04879 0.0
C633 C 0.35998 0.77841 0.06282 0.0
C634 C 0.36625 0.75962 0.02348 0.0
C635 C 0.36196 0.78213 0.01205 0.0
C636 C 0.35781 0.80299 0.02628 0.0
C637 C 0.3563 0.80077 0.05154 0.0
C638 C 0.36995 0.73677 0.00899 0.0
C639 C 0.35421 0.82748 0.01483 0.0
H640 H 0.39381 0.78331 0.93379 0.0
H641 H 0.31688 0.77644 0.94116 0.0
H642 H 0.40453 0.80396 0.99469 0.0
H643 H 0.41116 0.77261 0.99049 0.0
H644 H 0.41869 0.79387 0.96705 0.0
H645 H 0.29738 0.77563 0.97858 0.0
H646 H 0.31574 0.76106 0.00123 0.0
H647 H 0.31172 0.79309 0.00203 0.0
H648 H 0.36831 0.74082 0.05754 0.0
H649 H 0.35205 0.81647 0.06246 0.0
H650 H 0.38519 0.73902 0.99618 0.0
H651 H 0.35351 0.73298 0.99811 0.0
H652 H 0.3737 0.72087 0.02066 0.0
H653 H 0.36823 0.8308 0.00087 0.0
H654 H 0.3549 0.84229 0.02837 0.0
H655 H 0.33638 0.82811 0.00569 0.0
C656 C 0.69816 0.85019 0.45316 0.0
C657 C 0.71999 0.85385 0.44086 0.0
C658 C 0.69705 0.85208 0.47847 0.0
C659 C 0.7185 0.85664 0.4917 0.0
C660 C 0.74048 0.86078 0.47924 0.0
C661 C 0.74083 0.85979 0.45393 0.0
C662 C 0.67311 0.84857 0.49106 0.0
C663 C 0.76392 0.8649 0.49264 0.0
C664 C 0.72101 0.87475 0.55787 0.0
C665 C 0.72493 0.85236 0.56898 0.0
C666 C 0.71726 0.87631 0.53279 0.0
C667 C 0.71861 0.85509 0.51853 0.0
C668 C 0.72215 0.83239 0.52983 0.0
C669 C 0.72478 0.83128 0.555 0.0
C670 C 0.7125 0.90068 0.52151 0.0
C671 C 0.72455 0.80943 0.51524 0.0
H672 H 0.68199 0.84577 0.44299 0.0
H673 H 0.75777 0.86241 0.44442 0.0
H674 H 0.67309 0.83107 0.50081 0.0
H675 H 0.67021 0.86301 0.50469 0.0
H676 H 0.65772 0.84865 0.47816 0.0
H677 H 0.77936 0.86819 0.48022 0.0
H678 H 0.76223 0.8806 0.50498 0.0
H679 H 0.76814 0.84887 0.50394 0.0
H680 H 0.72097 0.89104 0.56877 0.0
H681 H 0.72805 0.81398 0.56361 0.0
H682 H 0.69705 0.89957 0.50876 0.0
H683 H 0.72854 0.90651 0.511 0.0
H684 H 0.70853 0.91471 0.53532 0.0
H685 H 0.70836 0.80677 0.50373 0.0
H686 H 0.72687 0.79322 0.52685 0.0
H687 H 0.7404 0.81084 0.50302 0.0
C688 C 0.63154 0.24208 0.04818 0.0
C689 C 0.63843 0.2219 0.06178 0.0
C690 C 0.63029 0.24089 0.02288 0.0
C691 C 0.63511 0.21869 0.01107 0.0
C692 C 0.64034 0.19781 0.02493 0.0
C693 C 0.6425 0.1998 0.05015 0.0
C694 C 0.62551 0.26377 0.00878 0.0
C695 C 0.64458 0.17361 0.01308 0.0
C696 C 0.61903 0.21706 0.94421 0.0
C697 C 0.64175 0.2205 0.93359 0.0
C698 C 0.61665 0.21522 0.96945 0.0
C699 C 0.63735 0.21806 0.98428 0.0
C700 C 0.66032 0.22151 0.97351 0.0
C701 C 0.66228 0.22218 0.94828 0.0
C702 C 0.59205 0.21048 0.98024 0.0
C703 C 0.68273 0.22547 0.98864 0.0
H704 H 0.6286 0.25923 0.05721 0.0
H705 H 0.64766 0.18415 0.06075 0.0
H706 H 0.64181 0.26858 0.99813 0.0
H707 H 0.6105 0.26101 0.99579 0.0
H708 H 0.62089 0.27924 0.02072 0.0
H709 H 0.64447 0.15861 0.02642 0.0
H710 H 0.63054 0.17005 0.99919 0.0
H711 H 0.66235 0.17367 0.0038 0.0
H712 H 0.60317 0.21564 0.93276 0.0
H713 H 0.67982 0.22512 0.94003 0.0
H714 H 0.58584 0.22661 0.99039 0.0
H715 H 0.59304 0.19526 0.99326 0.0
H716 H 0.57834 0.20613 0.96621 0.0
H717 H 0.68017 0.24141 0.00054 0.0
H718 H 0.69911 0.22844 0.97741 0.0
H719 H 0.68595 0.20964 0.00048 0.0
C720 C 0.29382 0.85134 0.44407 0.0
C721 C 0.27352 0.86025 0.43181 0.0
C722 C 0.29473 0.85129 0.46943 0.0
C723 C 0.27453 0.85963 0.48276 0.0
C724 C 0.25444 0.86963 0.47043 0.0
C725 C 0.25434 0.87013 0.44507 0.0
C726 C 0.3168 0.8412 0.48191 0.0
C727 C 0.23232 0.8782 0.48393 0.0
C728 C 0.26271 0.82864 0.5427 0.0
C729 C 0.26895 0.84667 0.55934 0.0
C730 C 0.26437 0.83275 0.51777 0.0
C731 C 0.27316 0.85522 0.50925 0.0
C732 C 0.28009 0.87332 0.52598 0.0
C733 C 0.27754 0.86896 0.55089 0.0
C734 C 0.25625 0.81316 0.50055 0.0
C735 C 0.2902 0.89721 0.51755 0.0
H736 H 0.30878 0.84389 0.43383 0.0
H737 H 0.23857 0.87693 0.43563 0.0
H738 H 0.32247 0.8532 0.49696 0.0
H739 H 0.31244 0.8233 0.48981 0.0
H740 H 0.33224 0.83895 0.46926 0.0
H741 H 0.21916 0.88742 0.47187 0.0
H742 H 0.22321 0.86248 0.49244 0.0
H743 H 0.23747 0.89079 0.49864 0.0
H744 H 0.25586 0.81147 0.54917 0.0
H745 H 0.2825 0.88288 0.56376 0.0
H746 H 0.27154 0.80751 0.48889 0.0
H747 H 0.24182 0.82019 0.48852 0.0
H748 H 0.24924 0.79697 0.51014 0.0
H749 H 0.30604 0.89412 0.50564 0.0
H750 H 0.29583 0.90891 0.53287 0.0
H751 H 0.27647 0.90701 0.50673 0.0
C752 C 0.63634 0.75791 0.05168 0.0
C753 C 0.64161 0.7785 0.06543 0.0
C754 C 0.63628 0.75884 0.02637 0.0
C755 C 0.64068 0.78112 0.01459 0.0
C756 C 0.64444 0.80231 0.02846 0.0
C757 C 0.6454 0.80065 0.05379 0.0
C758 C 0.63298 0.73568 0.01229 0.0
C759 C 0.64822 0.82656 0.01656 0.0
C760 C 0.66962 0.77689 0.95268 0.0
C761 C 0.6494 0.7773 0.93746 0.0
C762 C 0.66702 0.77857 0.97781 0.0
C763 C 0.64369 0.78161 0.98789 0.0
C764 C 0.6233 0.78329 0.97248 0.0
C765 C 0.62634 0.78061 0.94741 0.0
C766 C 0.68916 0.77593 0.9936 0.0
C767 C 0.59827 0.78744 0.98252 0.0
H768 H 0.63362 0.74073 0.0607 0.0
H769 H 0.64929 0.8166 0.06448 0.0
H770 H 0.61809 0.73761 0.99903 0.0
H771 H 0.6497 0.73168 0.00194 0.0
H772 H 0.62895 0.72002 0.02419 0.0
H773 H 0.64725 0.84165 0.02976 0.0
H774 H 0.66622 0.82702 0.00774 0.0
H775 H 0.63445 0.82955 0.00227 0.0
H776 H 0.68744 0.77414 0.94499 0.0
H777 H 0.61072 0.78111 0.93558 0.0
H778 H 0.68711 0.75988 0.00547 0.0
H779 H 0.69115 0.79192 0.0055 0.0
H780 H 0.706 0.77383 0.98287 0.0
H781 H 0.59218 0.77117 0.99251 0.0
H782 H 0.58489 0.79137 0.96806 0.0
H783 H 0.59844 0.80271 0.99552 0.0
C784 C 0.70165 0.14559 0.54756 0.0
C785 C 0.72155 0.13781 0.56117 0.0
C786 C 0.70203 0.14454 0.5222 0.0
C787 C 0.72309 0.13624 0.51026 0.0
C788 C 0.74276 0.12728 0.52397 0.0
C789 C 0.7416 0.12787 0.54929 0.0
C790 C 0.6804 0.15354 0.50821 0.0
C791 C 0.76576 0.11877 0.51198 0.0
C792 C 0.72424 0.12438 0.44247 0.0
C793 C 0.73276 0.14656 0.4337 0.0
C794 C 0.72032 0.12086 0.46734 0.0
C795 C 0.7258 0.13974 0.48374 0.0
C796 C 0.73455 0.16211 0.4749 0.0
C797 C 0.73758 0.16534 0.44998 0.0
C798 C 0.71031 0.09704 0.47607 0.0
C799 C 0.74118 0.18252 0.49181 0.0
H800 H 0.68602 0.15308 0.55671 0.0
H801 H 0.75708 0.12193 0.55975 0.0
H802 H 0.68467 0.1713 0.49995 0.0
H803 H 0.6759 0.14089 0.49331 0.0
H804 H 0.66424 0.15574 0.51994 0.0
H805 H 0.77844 0.11027 0.52504 0.0
H806 H 0.7617 0.10557 0.49746 0.0
H807 H 0.77499 0.1344 0.50344 0.0
H808 H 0.72036 0.10988 0.42987 0.0
H809 H 0.74436 0.18245 0.44326 0.0
H810 H 0.69375 0.10015 0.48695 0.0
H811 H 0.72363 0.08799 0.48801 0.0
H812 H 0.70584 0.08466 0.4609 0.0
H813 H 0.72512 0.18816 0.50239 0.0
H814 H 0.74831 0.19854 0.48203 0.0
H815 H 0.75509 0.17632 0.50488 0.0
C816 C 0.3762 0.20968 0.05283 0.0
C817 C 0.35342 0.21109 0.06378 0.0
C818 C 0.37838 0.20823 0.02758 0.0
C819 C 0.35732 0.20938 0.01306 0.0
C820 C 0.33425 0.21009 0.02415 0.0
C821 C 0.33259 0.21044 0.04942 0.0
C822 C 0.40322 0.20643 0.01644 0.0
C823 C 0.31137 0.21217 0.00937 0.0
C824 C 0.36148 0.23946 0.95174 0.0
C825 C 0.35745 0.21997 0.93612 0.0
C826 C 0.36196 0.23614 0.97683 0.0
C827 C 0.3593 0.21258 0.98646 0.0
C828 C 0.35666 0.1926 0.97066 0.0
C829 C 0.35521 0.19661 0.94561 0.0
C830 C 0.36403 0.25803 0.99303 0.0
C831 C 0.3548 0.16713 0.98022 0.0
H832 H 0.3923 0.21001 0.06401 0.0
H833 H 0.31497 0.21176 0.05792 0.0
H834 H 0.40337 0.19269 0.00182 0.0
H835 H 0.40821 0.22401 0.00821 0.0
H836 H 0.4172 0.20162 0.03002 0.0
H837 H 0.29484 0.21159 0.02076 0.0
H838 H 0.3115 0.22946 0.99921 0.0
H839 H 0.31035 0.19737 0.99591 0.0
H840 H 0.363 0.25756 0.94439 0.0
H841 H 0.35227 0.18152 0.93346 0.0
H842 H 0.37976 0.25614 0.0053 0.0
H843 H 0.34763 0.25952 0.00451 0.0
H844 H 0.36609 0.27507 0.98262 0.0
H845 H 0.36918 0.16372 0.99379 0.0
H846 H 0.3563 0.15347 0.96558 0.0
H847 H 0.33717 0.16463 0.98942 0.0
C848 C 0.55248 0.28254 0.12095 0.0
C849 C 0.56317 0.28013 0.14379 0.0
C850 C 0.52722 0.28375 0.1185 0.0
C851 C 0.51242 0.28132 0.13926 0.0
C852 C 0.52324 0.27929 0.16238 0.0
C853 C 0.5485 0.27922 0.16438 0.0
C854 C 0.51637 0.28699 0.09367 0.0
C855 C 0.50818 0.27585 0.18491 0.0
C856 C 0.4455 0.29623 0.14232 0.0
C857 C 0.43512 0.2734 0.13887 0.0
C858 C 0.47065 0.29944 0.1408 0.0
C859 C 0.48571 0.27912 0.13688 0.0
C860 C 0.47519 0.25612 0.13284 0.0
C861 C 0.44996 0.25365 0.13341 0.0
C862 C 0.48111 0.3244 0.14415 0.0
C863 C 0.49059 0.23384 0.12941 0.0
H864 H 0.56388 0.28334 0.10503 0.0
H865 H 0.55677 0.27704 0.18202 0.0
H866 H 0.5076 0.26994 0.08783 0.0
H867 H 0.50221 0.30118 0.09405 0.0
H868 H 0.53021 0.292 0.08001 0.0
H869 H 0.51942 0.27467 0.20151 0.0
H870 H 0.49527 0.29103 0.18702 0.0
H871 H 0.49738 0.25902 0.1833 0.0
H872 H 0.43395 0.31153 0.14638 0.0
H873 H 0.4419 0.23595 0.13096 0.0
H874 H 0.4949 0.32815 0.13006 0.0
H875 H 0.49025 0.32558 0.16195 0.0
H876 H 0.46698 0.33865 0.14334 0.0
H877 H 0.50331 0.23643 0.11416 0.0
H878 H 0.47957 0.21744 0.12583 0.0
H879 H 0.50159 0.23067 0.14589 0.0
C880 C 0.55019 0.72455 0.83586 0.0
C881 C 0.56586 0.7223 0.85559 0.0
C882 C 0.52511 0.72296 0.83893 0.0
C883 C 0.51555 0.71804 0.86216 0.0
C884 C 0.53138 0.71482 0.88203 0.0
C885 C 0.55642 0.71753 0.87859 0.0
C886 C 0.50885 0.72729 0.8174 0.0
C887 C 0.52188 0.7086 0.90683 0.0
C888 C 0.45094 0.73891 0.87074 0.0
C889 C 0.43807 0.71848 0.86316 0.0
C890 C 0.47628 0.73872 0.87157 0.0
C891 C 0.4889 0.7173 0.86551 0.0
C892 C 0.47583 0.69605 0.85978 0.0
C893 C 0.45052 0.69703 0.85815 0.0
C894 C 0.4895 0.76198 0.87703 0.0
C895 C 0.4886 0.67261 0.85416 0.0
H896 H 0.55753 0.72848 0.81811 0.0
H897 H 0.56863 0.71564 0.89381 0.0
H898 H 0.49765 0.71106 0.81385 0.0
H899 H 0.49632 0.74247 0.82128 0.0
H900 H 0.5192 0.73164 0.80075 0.0
H901 H 0.53667 0.70468 0.91985 0.0
H902 H 0.51097 0.72381 0.91398 0.0
H903 H 0.5098 0.69262 0.90575 0.0
H904 H 0.4413 0.75557 0.87444 0.0
H905 H 0.44051 0.68117 0.85248 0.0
H906 H 0.49895 0.76829 0.8605 0.0
H907 H 0.50344 0.75905 0.89112 0.0
H908 H 0.47709 0.7765 0.88322 0.0
H909 H 0.49709 0.67375 0.83604 0.0
H910 H 0.47597 0.657 0.85423 0.0
H911 H 0.50321 0.66919 0.86748 0.0
C912 C 0.75493 0.94502 0.37034 0.0
C913 C 0.77397 0.93101 0.36123 0.0
C914 C 0.75582 0.97032 0.36949 0.0
C915 C 0.77657 0.98188 0.35996 0.0
C916 C 0.79658 0.96782 0.35237 0.0
C917 C 0.79488 0.94249 0.35271 0.0
C918 C 0.73386 0.98459 0.37722 0.0
C919 C 0.81933 0.97949 0.34285 0.0
C920 C 0.76638 0.0419 0.32864 0.0
C921 C 0.77188 0.05844 0.347 0.0
C922 C 0.76803 0.01697 0.33264 0.0
C923 C 0.77611 0.00835 0.35534 0.0
C924 C 0.78256 0.02498 0.3737 0.0
C925 C 0.77996 0.0499 0.36945 0.0
C926 C 0.76037 -0.00015 0.31277 0.0
C927 C 0.79197 0.01646 0.39785 0.0
H928 H 0.73867 0.9362 0.37682 0.0
H929 H 0.80972 0.93169 0.34586 0.0
H930 H 0.73904 0.99903 0.39012 0.0
H931 H 0.72573 0.99352 0.3612 0.0
H932 H 0.71989 0.97302 0.38583 0.0
H933 H 0.83443 0.96636 0.34127 0.0
H934 H 0.8158 0.98728 0.32472 0.0
H935 H 0.82505 0.99452 0.35485 0.0
H936 H 0.75994 0.04846 0.31133 0.0
H937 H 0.78439 0.0627 0.38361 0.0
H938 H 0.74534 0.98823 0.31923 0.0
H939 H 0.77558 0.98776 0.30785 0.0
H940 H 0.75431 0.00952 0.29624 0.0
H941 H 0.77758 0.0065 0.40763 0.0
H942 H 0.79816 0.03169 0.40939 0.0
H943 H 0.80725 0.00375 0.39519 0.0
C944 C 0.44568 0.26177 0.8668 0.0
C945 C 0.43198 0.28256 0.86219 0.0
C946 C 0.471 0.26251 0.86656 0.0
C947 C 0.48291 0.2848 0.86248 0.0
C948 C 0.46913 0.30616 0.85938 0.0
C949 C 0.44376 0.3047 0.85876 0.0
C950 C 0.48494 0.23918 0.86919 0.0
C951 C 0.48118 0.33038 0.85594 0.0
C952 C 0.55024 0.28314 0.87612 0.0
C953 C 0.55993 0.2802 0.85291 0.0
C954 C 0.52523 0.28616 0.87946 0.0
C955 C 0.5096 0.28513 0.8592 0.0
C956 C 0.51942 0.28247 0.83571 0.0
C957 C 0.54452 0.28051 0.83283 0.0
C958 C 0.51551 0.28992 0.90467 0.0
C959 C 0.50339 0.28047 0.81369 0.0
H960 H 0.4366 0.24458 0.86925 0.0
H961 H 0.43316 0.32082 0.85536 0.0
H962 H 0.49509 0.23548 0.85228 0.0
H963 H 0.49836 0.24069 0.88399 0.0
H964 H 0.47296 0.22352 0.87299 0.0
H965 H 0.4681 0.34555 0.85741 0.0
H966 H 0.49568 0.33298 0.86957 0.0
H967 H 0.48975 0.33115 0.83784 0.0
H968 H 0.56222 0.28308 0.89163 0.0
H969 H 0.55201 0.27802 0.81489 0.0
H970 H 0.50549 0.2736 0.91057 0.0
H971 H 0.5026 0.30527 0.90494 0.0
H972 H 0.53015 0.29352 0.91795 0.0
H973 H 0.49143 0.26446 0.81547 0.0
H974 H 0.51393 0.2787 0.79669 0.0
H975 H 0.49158 0.29658 0.8122 0.0
C976 C 0.21421 0.94975 0.37335 0.0
C977 C 0.21699 0.93989 0.3502 0.0
C978 C 0.2121 0.97485 0.37659 0.0
C979 C 0.21395 0.99034 0.35628 0.0
C980 C 0.21625 0.98033 0.33283 0.0
C981 C 0.21725 0.95518 0.33005 0.0
C982 C 0.20864 0.9848 0.40175 0.0
C983 C 0.2191 0.99618 0.31077 0.0
C984 C 0.1982 0.05715 0.35606 0.0
C985 C 0.22095 0.06759 0.3599 0.0
C986 C 0.19529 0.03192 0.35641 0.0
C987 C 0.21581 0.01694 0.35956 0.0
C988 C 0.23872 0.02751 0.36391 0.0
C989 C 0.2409 0.05272 0.3645 0.0
C990 C 0.17042 0.02132 0.35275 0.0
C991 C 0.26121 0.01224 0.36657 0.0
H992 H 0.21384 0.93786 0.38892 0.0
H993 H 0.21963 0.94752 0.31216 0.0
H994 H 0.22553 0.99367 0.4079 0.0
H995 H 0.19418 0.9987 0.40184 0.0
H996 H 0.20389 0.97042 0.41494 0.0
H997 H 0.22016 0.98553 0.29378 0.0
H998 H 0.20373 0.00895 0.30933 0.0
H999 H 0.23582 0.00714 0.31249 0.0
H1000 H 0.18274 0.06871 0.35266 0.0
H1001 H 0.25854 0.06081 0.36725 0.0
H1002 H 0.16688 0.00699 0.36633 0.0
H1003 H 0.16928 0.01282 0.33463 0.0
H1004 H 0.15602 0.03524 0.35413 0.0
H1005 H 0.25897 0.99909 0.38152 0.0
H1006 H 0.27758 0.02329 0.3702 0.0
H1007 H 0.26424 0.00171 0.34975 0.0
C1008 C 0.54955 0.74189 0.13685 0.0
C1009 C 0.56408 0.72174 0.14164 0.0
C1010 C 0.52432 0.73987 0.13627 0.0
C1011 C 0.51344 0.71694 0.13957 0.0
C1012 C 0.52815 0.69625 0.1429 0.0
C1013 C 0.55336 0.69899 0.14447 0.0
C1014 C 0.5093 0.76251 0.13348 0.0
C1015 C 0.51725 0.67138 0.14544 0.0
C1016 C 0.45048 0.71822 0.16639 0.0
C1017 C 0.43608 0.71865 0.14558 0.0
C1018 C 0.47572 0.71699 0.16469 0.0
C1019 C 0.48671 0.71518 0.14163 0.0
C1020 C 0.4721 0.71399 0.12063 0.0
C1021 C 0.44691 0.71631 0.12282 0.0
C1022 C 0.49063 0.71915 0.18747 0.0
C1023 C 0.48311 0.71103 0.09585 0.0
H1024 H 0.55788 0.75952 0.13488 0.0
H1025 H 0.56467 0.68339 0.14798 0.0
H1026 H 0.49685 0.76073 0.11788 0.0
H1027 H 0.49802 0.76518 0.14986 0.0
H1028 H 0.52061 0.77888 0.13078 0.0
H1029 H 0.53115 0.65693 0.1443 0.0
H1030 H 0.50797 0.66984 0.16314 0.0
H1031 H 0.5035 0.66829 0.13116 0.0
H1032 H 0.44207 0.72026 0.18398 0.0
H1033 H 0.43569 0.71648 0.10675 0.0
H1034 H 0.50176 0.73583 0.18668 0.0
H1035 H 0.50322 0.70366 0.18906 0.0
H1036 H 0.47925 0.71986 0.20401 0.0
H1037 H 0.49228 0.72801 0.09046 0.0
H1038 H 0.46928 0.70663 0.08196 0.0
H1039 H 0.49696 0.69652 0.09603 0.0
C1040 C 0.80696 0.94922 0.64483 0.0
C1041 C 0.78493 0.93707 0.64208 0.0
C1042 C 0.8082 0.97447 0.64259 0.0
C1043 C 0.78669 0.98779 0.63867 0.0
C1044 C 0.76451 0.97545 0.63526 0.0
C1045 C 0.76401 0.95016 0.63652 0.0
C1046 C 0.83234 0.98691 0.64525 0.0
C1047 C 0.74104 0.98898 0.63185 0.0
C1048 C 0.78211 0.05082 0.66496 0.0
C1049 C 0.78147 0.06504 0.64405 0.0
C1050 C 0.78425 0.02564 0.66345 0.0
C1051 C 0.78681 0.01458 0.6405 0.0
C1052 C 0.78768 0.02905 0.6194 0.0
C1053 C 0.78441 0.05415 0.62139 0.0
C1054 C 0.78243 0.01083 0.68632 0.0
C1055 C 0.79145 0.018 0.59475 0.0
H1056 H 0.82316 0.939 0.64896 0.0
H1057 H 0.74694 0.94071 0.63462 0.0
H1058 H 0.83471 0.00072 0.6309 0.0
H1059 H 0.83315 0.99637 0.6629 0.0
H1060 H 0.84763 0.97392 0.64433 0.0
H1061 H 0.72549 0.97665 0.62873 0.0
H1062 H 0.73724 4e-05 0.64816 0.0
H1063 H 0.74241 0.00154 0.61631 0.0
H1064 H 0.77957 0.05928 0.68246 0.0
H1065 H 0.78405 0.06524 0.60524 0.0
H1066 H 0.79867 0.99929 0.68842 0.0
H1067 H 0.76653 0.99864 0.68521 0.0
H1068 H 0.78058 0.02227 0.70271 0.0
H1069 H 0.80676 0.00505 0.59518 0.0
H1070 H 0.79512 0.03191 0.58074 0.0
H1071 H 0.77509 0.00776 0.58934 0.0
C1072 C 0.20789 0.04797 0.65485 0.0
C1073 C 0.22675 0.06202 0.6455 0.0
C1074 C 0.2082 0.02272 0.65267 0.0
C1075 C 0.22827 0.01131 0.64163 0.0
C1076 C 0.24682 0.02552 0.63118 0.0
C1077 C 0.24564 0.05079 0.63294 0.0
C1078 C 0.18769 0.00823 0.66336 0.0
C1079 C 0.26881 0.01406 0.61977 0.0
C1080 C 0.24446 0.95009 0.66755 0.0
C1081 C 0.23705 0.9344 0.64914 0.0
C1082 C 0.24211 0.97515 0.66504 0.0
C1083 C 0.23137 0.98473 0.64387 0.0
C1084 C 0.22357 0.96894 0.62528 0.0
C1085 C 0.22688 0.94389 0.62797 0.0
C1086 C 0.25124 0.99137 0.68503 0.0
C1087 C 0.21141 0.97849 0.6028 0.0
H1088 H 0.19313 0.05669 0.66435 0.0
H1089 H 0.2603 0.06166 0.62579 0.0
H1090 H 0.18185 0.99388 0.65062 0.0
H1091 H 0.19389 0.99922 0.68016 0.0
H1092 H 0.17186 0.01974 0.66783 0.0
H1093 H 0.28028 0.0275 0.61024 0.0
H1094 H 0.27985 0.00525 0.63402 0.0
H1095 H 0.26342 -0.00018 0.60674 0.0
H1096 H 0.25257 0.94277 0.68383 0.0
H1097 H 0.22102 0.93171 0.61378 0.0
H1098 H 0.23598 0.00166 0.69298 0.0
H1099 H 0.26426 0.00472 0.67763 0.0
H1100 H 0.26029 0.98108 0.6997 0.0
H1101 H 0.19486 0.98863 0.60785 0.0
H1102 H 0.20632 0.96381 0.59007 0.0
H1103 H 0.22354 0.99131 0.5933 0.0
C1104 C 0.15625 0.28113 0.29186 0.0
C1105 C 0.15325 0.30422 0.30183 0.0
C1106 C 0.16517 0.26198 0.30579 0.0
C1107 C 0.17045 0.26578 0.33054 0.0
C1108 C 0.16548 0.28851 0.34122 0.0
C1109 C 0.15739 0.30766 0.3266 0.0
C1110 C 0.17069 0.23822 0.29348 0.0
C1111 C 0.16984 0.29295 0.36778 0.0
C1112 C 0.18524 0.20662 0.36176 0.0
C1113 C 0.21053 0.20639 0.35999 0.0
C1114 C 0.17186 0.2269 0.35432 0.0
C1115 C 0.18405 0.24691 0.34402 0.0
C1116 C 0.20965 0.24726 0.3435 0.0
C1117 C 0.22256 0.22717 0.35187 0.0
C1118 C 0.14465 0.22632 0.35622 0.0
C1119 C 0.22342 0.26796 0.3322 0.0
H1120 H 0.15317 0.27835 0.27271 0.0
H1121 H 0.15486 0.32544 0.33444 0.0
H1122 H 0.19047 0.23488 0.29389 0.0
H1123 H 0.16184 0.2231 0.30319 0.0
H1124 H 0.16459 0.23792 0.27434 0.0
H1125 H 0.16027 0.30938 0.37422 0.0
H1126 H 0.16383 0.27724 0.3787 0.0
H1127 H 0.18946 0.29545 0.37103 0.0
H1128 H 0.17587 0.1907 0.36829 0.0
H1129 H 0.2421 0.2271 0.35039 0.0
H1130 H 0.13677 0.22218 0.33825 0.0
H1131 H 0.13755 0.24416 0.362 0.0
H1132 H 0.13841 0.21232 0.36918 0.0
H1133 H 0.21935 0.26878 0.31256 0.0
H1134 H 0.24328 0.26607 0.33449 0.0
H1135 H 0.21772 0.28539 0.34024 0.0
C1136 C 0.2793 0.70767 0.85285 0.0
C1137 C 0.30191 0.6965 0.85554 0.0
C1138 C 0.25937 0.69486 0.84403 0.0
C1139 C 0.26181 0.66999 0.83862 0.0
C1140 C 0.28389 0.65802 0.84365 0.0
C1141 C 0.30391 0.67155 0.85159 0.0
C1142 C 0.23637 0.70854 0.83845 0.0
C1143 C 0.2868 0.63127 0.83931 0.0
C1144 C 0.20118 0.64291 0.82171 0.0
C1145 C 0.20201 0.6447 0.79645 0.0
C1146 C 0.22149 0.64884 0.8358 0.0
C1147 C 0.24253 0.65789 0.82434 0.0
C1148 C 0.24371 0.65868 0.79877 0.0
C1149 C 0.22358 0.65161 0.78516 0.0
C1150 C 0.21997 0.64656 0.86293 0.0
C1151 C 0.26547 0.66884 0.78576 0.0
H1152 H 0.27756 0.72695 0.85587 0.0
H1153 H 0.32125 0.66274 0.85394 0.0
H1154 H 0.23322 0.70856 0.81863 0.0
H1155 H 0.22063 0.6996 0.84702 0.0
H1156 H 0.23708 0.72758 0.84479 0.0
H1157 H 0.30247 0.62382 0.84942 0.0
H1158 H 0.27023 0.62131 0.84471 0.0
H1159 H 0.28982 0.62794 0.81978 0.0
H1160 H 0.18456 0.63728 0.83044 0.0
H1161 H 0.22421 0.65312 0.76563 0.0
H1162 H 0.21605 0.66449 0.87097 0.0
H1163 H 0.23738 0.64012 0.87056 0.0
H1164 H 0.20536 0.63393 0.86846 0.0
H1165 H 0.2677 0.68821 0.7905 0.0
H1166 H 0.26384 0.66733 0.7658 0.0
H1167 H 0.28213 0.65931 0.79149 0.0
C1168 C 0.84765 0.69421 0.32605 0.0
C1169 C 0.85107 0.69735 0.30112 0.0
C1170 C 0.839 0.71325 0.34051 0.0
C1171 C 0.83284 0.73555 0.32956 0.0
C1172 C 0.83761 0.73919 0.30468 0.0
C1173 C 0.84703 0.72017 0.29088 0.0
C1174 C 0.8352 0.70903 0.36718 0.0
C1175 C 0.8309 0.76249 0.29212 0.0
C1176 C 0.77897 0.77149 0.35137 0.0
C1177 C 0.78995 0.79285 0.35944 0.0
C1178 C 0.79285 0.75216 0.34274 0.0
C1179 C 0.8184 0.75389 0.34293 0.0
C1180 C 0.82962 0.77455 0.35304 0.0
C1181 C 0.81525 0.79404 0.36076 0.0
C1182 C 0.78007 0.73071 0.33165 0.0
C1183 C 0.85678 0.77663 0.35454 0.0
H1184 H 0.851 0.67668 0.33412 0.0
H1185 H 0.84959 0.72276 0.27162 0.0
H1186 H 0.84072 0.72514 0.37779 0.0
H1187 H 0.81574 0.70579 0.37074 0.0
H1188 H 0.84552 0.6931 0.37373 0.0
H1189 H 0.83701 0.76289 0.27299 0.0
H1190 H 0.81096 0.76479 0.29246 0.0
H1191 H 0.83891 0.77816 0.30169 0.0
H1192 H 0.75943 0.77048 0.35022 0.0
H1193 H 0.82382 0.81043 0.36723 0.0
H1194 H 0.78666 0.71366 0.33983 0.0
H1195 H 0.78411 0.7299 0.31201 0.0
H1196 H 0.76014 0.73162 0.33401 0.0
H1197 H 0.86494 0.75923 0.3603 0.0
H1198 H 0.86243 0.79102 0.36736 0.0
H1199 H 0.86416 0.78109 0.33645 0.0
C1200 C 0.7972 0.35086 0.81775 0.0
C1201 C 0.79551 0.35326 0.79257 0.0
C1202 C 0.77723 0.34307 0.83143 0.0
C1203 C 0.75553 0.33659 0.81946 0.0
C1204 C 0.75344 0.34013 0.7942 0.0
C1205 C 0.77331 0.34883 0.78117 0.0
C1206 C 0.77977 0.34063 0.85847 0.0
C1207 C 0.7309 0.33287 0.78056 0.0
C1208 C 0.71808 0.28413 0.84204 0.0
C1209 C 0.69633 0.29554 0.84822 0.0
C1210 C 0.73791 0.29745 0.83369 0.0
C1211 C 0.73627 0.32295 0.83235 0.0
C1212 C 0.71503 0.33474 0.84047 0.0
C1213 C 0.69504 0.32084 0.84781 0.0
C1214 C 0.7599 0.28404 0.8246 0.0
C1215 C 0.71301 0.36193 0.84038 0.0
H1216 H 0.81427 0.35451 0.82666 0.0
H1217 H 0.77189 0.35055 0.7617 0.0
H1218 H 0.7631 0.34681 0.86776 0.0
H1219 H 0.78257 0.32136 0.86323 0.0
H1220 H 0.7954 0.35114 0.86545 0.0
H1221 H 0.73179 0.33785 0.76113 0.0
H1222 H 0.72836 0.31301 0.7819 0.0
H1223 H 0.71474 0.34153 0.78861 0.0
H1224 H 0.71912 0.26456 0.84219 0.0
H1225 H 0.67831 0.32972 0.85282 0.0
H1226 H 0.77645 0.29082 0.83363 0.0
H1227 H 0.76207 0.28724 0.80491 0.0
H1228 H 0.75862 0.26425 0.8277 0.0
H1229 H 0.73004 0.37033 0.84685 0.0
H1230 H 0.69783 0.36828 0.85189 0.0
H1231 H 0.70979 0.36836 0.82167 0.0
C1232 C 0.19241 0.80386 0.68627 0.0
C1233 C 0.19312 0.81009 0.66175 0.0
C1234 C 0.17927 0.78368 0.69413 0.0
C1235 C 0.16576 0.77004 0.67716 0.0
C1236 C 0.16434 0.77789 0.65285 0.0
C1237 C 0.17857 0.79751 0.64527 0.0
C1238 C 0.18179 0.77567 0.72012 0.0
C1239 C 0.1491 0.76466 0.6345 0.0
C1240 C 0.16485 0.70313 0.69104 0.0
C1241 C 0.14396 0.70112 0.70519 0.0
C1242 C 0.17159 0.72532 0.6809 0.0
C1243 C 0.15653 0.74578 0.68418 0.0
C1244 C 0.13427 0.74329 0.69656 0.0
C1245 C 0.1285 0.72107 0.70746 0.0
C1246 C 0.19578 0.72724 0.66835 0.0
C1247 C 0.11713 0.76431 0.69937 0.0
H1248 H 0.20384 0.81346 0.69898 0.0
H1249 H 0.179 0.80245 0.62631 0.0
H1250 H 0.16376 0.77273 0.72833 0.0
H1251 H 0.19163 0.7582 0.72079 0.0
H1252 H 0.1918 0.78903 0.73128 0.0
H1253 H 0.14543 0.77603 0.61836 0.0
H1254 H 0.15872 0.74816 0.62845 0.0
H1255 H 0.13163 0.75895 0.64254 0.0
H1256 H 0.17693 0.68779 0.68943 0.0
H1257 H 0.11223 0.71949 0.71828 0.0
H1258 H 0.20768 0.73979 0.67853 0.0
H1259 H 0.1935 0.73476 0.64992 0.0
H1260 H 0.20505 0.7095 0.66685 0.0
H1261 H 0.12358 0.77629 0.71408 0.0
H1262 H 0.09858 0.75815 0.70402 0.0
H1263 H 0.11633 0.77518 0.68253 0.0
C1264 C 0.72345 0.71858 0.15357 0.0
C1265 C 0.70204 0.70735 0.14598 0.0
C1266 C 0.7429 0.70497 0.16235 0.0
C1267 C 0.74119 0.67944 0.16288 0.0
C1268 C 0.72047 0.66791 0.15325 0.0
C1269 C 0.70091 0.68203 0.14527 0.0
C1270 C 0.76449 0.71805 0.17281 0.0
C1271 C 0.71841 0.64074 0.15257 0.0
C1272 C 0.80104 0.65039 0.17932 0.0
C1273 C 0.79838 0.64757 0.20438 0.0
C1274 C 0.78179 0.65883 0.16505 0.0
C1275 C 0.75975 0.66537 0.1763 0.0
C1276 C 0.75659 0.66126 0.20137 0.0
C1277 C 0.77583 0.65206 0.21502 0.0
C1278 C 0.78551 0.66202 0.13822 0.0
C1279 C 0.73355 0.66837 0.2142 0.0
H1280 H 0.72445 0.73813 0.15422 0.0
H1281 H 0.68448 0.67326 0.13918 0.0
H1282 H 0.76549 0.71462 0.19256 0.0
H1283 H 0.78146 0.71119 0.16467 0.0
H1284 H 0.76356 0.73789 0.16985 0.0
H1285 H 0.70369 0.63469 0.14031 0.0
H1286 H 0.73567 0.63246 0.14658 0.0
H1287 H 0.71446 0.63386 0.17098 0.0
H1288 H 0.81837 0.64668 0.17097 0.0
H1289 H 0.77368 0.64999 0.23439 0.0
H1290 H 0.78853 0.6814 0.13414 0.0
H1291 H 0.76925 0.65614 0.12804 0.0
H1292 H 0.80141 0.65167 0.13163 0.0
H1293 H 0.73136 0.6883 0.21347 0.0
H1294 H 0.73346 0.66268 0.23345 0.0
H1295 H 0.71766 0.66026 0.20508 0.0
C1296 C 0.77728 0.22383 0.64924 0.0
C1297 C 0.78896 0.20247 0.64228 0.0
C1298 C 0.79052 0.24392 0.65708 0.0
C1299 C 0.81611 0.2429 0.65718 0.0
C1300 C 0.82802 0.22215 0.64811 0.0
C1301 C 0.81428 0.20193 0.64121 0.0
C1302 C 0.77705 0.26546 0.6671 0.0
C1303 C 0.85523 0.22079 0.64693 0.0
C1304 C 0.84386 0.30379 0.67203 0.0
C1305 C 0.84726 0.30159 0.69706 0.0
C1306 C 0.83567 0.28409 0.65824 0.0
C1307 C 0.8299 0.26209 0.66997 0.0
C1308 C 0.83453 0.25945 0.695 0.0
C1309 C 0.84354 0.27911 0.70813 0.0
C1310 C 0.83201 0.28723 0.63139 0.0
C1311 C 0.82818 0.23649 0.70838 0.0
H1312 H 0.75771 0.2243 0.65018 0.0
H1313 H 0.82336 0.18551 0.63556 0.0
H1314 H 0.78078 0.26715 0.68675 0.0
H1315 H 0.78332 0.28234 0.65834 0.0
H1316 H 0.75719 0.26393 0.66451 0.0
H1317 H 0.86142 0.20598 0.63485 0.0
H1318 H 0.86294 0.23812 0.64042 0.0
H1319 H 0.86259 0.21739 0.66527 0.0
H1320 H 0.84697 0.32108 0.66335 0.0
H1321 H 0.84606 0.27727 0.72748 0.0
H1322 H 0.81251 0.28988 0.62755 0.0
H1323 H 0.83798 0.27087 0.62144 0.0
H1324 H 0.84201 0.30314 0.62434 0.0
H1325 H 0.80832 0.23365 0.70778 0.0
H1326 H 0.83395 0.23701 0.72761 0.0
H1327 H 0.83676 0.22068 0.69959 0.0
C1328 C 0.22444 0.34744 0.21136 0.0
C1329 C 0.20147 0.35046 0.20108 0.0
C1330 C 0.24365 0.338 0.19785 0.0
C1331 C 0.24006 0.33222 0.17317 0.0
C1332 C 0.21751 0.33728 0.16213 0.0
C1333 C 0.19828 0.3459 0.17635 0.0
C1334 C 0.26718 0.33239 0.21056 0.0
C1335 C 0.21333 0.33241 0.13562 0.0
C1336 C 0.29891 0.31486 0.14237 0.0
C1337 C 0.29813 0.28961 0.1443 0.0
C1338 C 0.27915 0.32908 0.14975 0.0
C1339 C 0.25873 0.31776 0.16029 0.0
C1340 C 0.25753 0.29222 0.1613 0.0
C1341 C 0.27704 0.27849 0.15286 0.0
C1342 C 0.28064 0.35619 0.14731 0.0
C1343 C 0.23645 0.27936 0.17299 0.0
H1344 H 0.22703 0.35086 0.23048 0.0
H1345 H 0.18062 0.34847 0.16825 0.0
H1346 H 0.27007 0.31254 0.21084 0.0
H1347 H 0.28259 0.34054 0.20071 0.0
H1348 H 0.26744 0.33912 0.22948 0.0
H1349 H 0.19701 0.34194 0.1288 0.0
H1350 H 0.22921 0.33811 0.12477 0.0
H1351 H 0.21075 0.31275 0.13273 0.0
H1352 H 0.31512 0.3235 0.13555 0.0
H1353 H 0.27639 0.25898 0.15455 0.0
H1354 H 0.28517 0.36428 0.16508 0.0
H1355 H 0.26301 0.36378 0.14148 0.0
H1356 H 0.29477 0.36168 0.13414 0.0
H1357 H 0.23553 0.28426 0.19243 0.0
H1358 H 0.23792 0.25939 0.17154 0.0
H1359 H 0.2192 0.28508 0.16455 0.0
C1360 C 0.34997 0.21125 0.22328 0.0
C1361 C 0.35412 0.19952 0.20121 0.0
C1362 C 0.34134 0.19851 0.24338 0.0
C1363 C 0.3374 0.17329 0.24156 0.0
C1364 C 0.34375 0.16098 0.22005 0.0
C1365 C 0.3517 0.17431 0.19995 0.0
C1366 C 0.3345 0.21243 0.26587 0.0
C1367 C 0.34073 0.13398 0.21774 0.0
C1368 C 0.32104 0.14497 0.30185 0.0
C1369 C 0.2957 0.14562 0.30082 0.0
C1370 C 0.33507 0.15212 0.28191 0.0
C1371 C 0.32344 0.1608 0.26083 0.0
C1372 C 0.29789 0.16019 0.25927 0.0
C1373 C 0.28437 0.15228 0.27915 0.0
C1374 C 0.36227 0.15159 0.28389 0.0
C1375 C 0.2847 0.1696 0.23727 0.0
H1376 H 0.3518 0.23073 0.22441 0.0
H1377 H 0.35518 0.1651 0.18301 0.0
H1378 H 0.31457 0.21194 0.26822 0.0
H1379 H 0.34267 0.204 0.2821 0.0
H1380 H 0.34033 0.23162 0.26501 0.0
H1381 H 0.35101 0.12665 0.20212 0.0
H1382 H 0.3468 0.12469 0.23445 0.0
H1383 H 0.32134 0.12962 0.21508 0.0
H1384 H 0.32991 0.13958 0.31847 0.0
H1385 H 0.26481 0.15285 0.27819 0.0
H1386 H 0.36911 0.17016 0.2871 0.0
H1387 H 0.37052 0.14496 0.26685 0.0
H1388 H 0.36841 0.13994 0.29906 0.0
H1389 H 0.28817 0.18925 0.23527 0.0
H1390 H 0.26486 0.16673 0.23845 0.0
H1391 H 0.29145 0.1606 0.22069 0.0
C1392 C 0.37125 0.78515 0.77715 0.0
C1393 C 0.35509 0.78735 0.79656 0.0
C1394 C 0.36585 0.79529 0.75448 0.0
C1395 C 0.34333 0.80692 0.75097 0.0
C1396 C 0.32736 0.80989 0.77079 0.0
C1397 C 0.33366 0.80045 0.79344 0.0
C1398 C 0.38381 0.79271 0.73412 0.0
C1399 C 0.3029 0.82168 0.76776 0.0
C1400 C 0.32398 0.84617 0.69839 0.0
C1401 C 0.31019 0.82979 0.68483 0.0
C1402 C 0.33696 0.8385 0.71881 0.0
C1403 C 0.3352 0.81412 0.72635 0.0
C1404 C 0.32257 0.79723 0.71179 0.0
C1405 C 0.31057 0.80524 0.69093 0.0
C1406 C 0.35116 0.85681 0.73319 0.0
C1407 C 0.31976 0.77118 0.71941 0.0
H1408 H 0.38791 0.77512 0.77958 0.0
H1409 H 0.32102 0.80197 0.80835 0.0
H1410 H 0.37748 0.77865 0.72131 0.0
H1411 H 0.38541 0.80989 0.72389 0.0
H1412 H 0.40199 0.78742 0.74081 0.0
H1413 H 0.29279 0.82286 0.78507 0.0
H1414 H 0.30498 0.84017 0.76035 0.0
H1415 H 0.29191 0.81117 0.75467 0.0
H1416 H 0.3238 0.86517 0.69359 0.0
H1417 H 0.29972 0.79258 0.68061 0.0
H1418 H 0.36857 0.84902 0.73943 0.0
H1419 H 0.34072 0.86212 0.74946 0.0
H1420 H 0.35493 0.87337 0.72247 0.0
H1421 H 0.33758 0.76315 0.72379 0.0
H1422 H 0.31101 0.76 0.7052 0.0
H1423 H 0.30853 0.77027 0.73602 0.0
C1424 C 0.71136 0.84524 0.28115 0.0
C1425 C 0.70009 0.85031 0.30328 0.0
C1426 C 0.69799 0.83707 0.26126 0.0
C1427 C 0.67259 0.83456 0.2633 0.0
C1428 C 0.66085 0.84173 0.28489 0.0
C1429 C 0.67479 0.84916 0.30481 0.0
C1430 C 0.71133 0.8293 0.23872 0.0
C1431 C 0.63374 0.84027 0.28742 0.0
C1432 C 0.64376 0.81998 0.20282 0.0
C1433 C 0.64311 0.79465 0.20373 0.0
C1434 C 0.65134 0.83355 0.22294 0.0
C1435 C 0.65917 0.82141 0.24406 0.0
C1436 C 0.65713 0.79594 0.24553 0.0
C1437 C 0.64878 0.78293 0.22547 0.0
C1438 C 0.65229 0.86073 0.22105 0.0
C1439 C 0.66563 0.78219 0.26754 0.0
H1440 H 0.73089 0.84608 0.27978 0.0
H1441 H 0.66594 0.85334 0.32178 0.0
H1442 H 0.70939 0.80948 0.23628 0.0
H1443 H 0.70347 0.83812 0.22254 0.0
H1444 H 0.7309 0.83371 0.23953 0.0
H1445 H 0.62713 0.85106 0.30302 0.0
H1446 H 0.62467 0.84673 0.27073 0.0
H1447 H 0.6283 0.82119 0.29026 0.0
H1448 H 0.63912 0.82918 0.18615 0.0
H1449 H 0.64834 0.76337 0.22635 0.0
H1450 H 0.6712 0.86655 0.21781 0.0
H1451 H 0.64615 0.86927 0.23813 0.0
H1452 H 0.64096 0.86752 0.20593 0.0
H1453 H 0.68548 0.78433 0.26953 0.0
H1454 H 0.66143 0.76259 0.26638 0.0
H1455 H 0.65711 0.78955 0.28412 0.0
C1456 C 0.71102 0.15046 0.71995 0.0
C1457 C 0.69952 0.14394 0.69832 0.0
C1458 C 0.69774 0.15874 0.73983 0.0
C1459 C 0.6722 0.15972 0.73841 0.0
C1460 C 0.66035 0.1511 0.7174 0.0
C1461 C 0.67419 0.14377 0.69735 0.0
C1462 C 0.71123 0.16827 0.76161 0.0
C1463 C 0.63314 0.15077 0.71562 0.0
C1464 C 0.64483 0.1753 0.79935 0.0
C1465 C 0.64236 0.20043 0.79726 0.0
C1466 C 0.65242 0.16128 0.77953 0.0
C1467 C 0.65858 0.17286 0.75754 0.0
C1468 C 0.65485 0.19805 0.75503 0.0
C1469 C 0.64638 0.21142 0.77478 0.0
C1470 C 0.65507 0.13432 0.78256 0.0
C1471 C 0.6617 0.21129 0.73214 0.0
H1472 H 0.7306 0.15072 0.72083 0.0
H1473 H 0.6652 0.1385 0.68075 0.0
H1474 H 0.70792 0.18797 0.76346 0.0
H1475 H 0.7046 0.15948 0.77834 0.0
H1476 H 0.73104 0.16527 0.76026 0.0
H1477 H 0.62682 0.13872 0.70085 0.0
H1478 H 0.62495 0.14472 0.7329 0.0
H1479 H 0.62644 0.16928 0.71187 0.0
H1480 H 0.64148 0.16667 0.81662 0.0
H1481 H 0.64457 0.23085 0.77304 0.0
H1482 H 0.67437 0.12976 0.78548 0.0
H1483 H 0.64897 0.12467 0.76605 0.0
H1484 H 0.64458 0.12756 0.7983 0.0
H1485 H 0.68154 0.2101 0.72938 0.0
H1486 H 0.65652 0.23067 0.73269 0.0
H1487 H 0.65292 0.20282 0.71625 0.0
C1488 C 0.79803 0.77881 0.65215 0.0
C1489 C 0.80873 0.80162 0.64944 0.0
C1490 C 0.81119 0.75924 0.66133 0.0
C1491 C 0.83589 0.76235 0.66728 0.0
C1492 C 0.84742 0.78464 0.66232 0.0
C1493 C 0.8336 0.80419 0.65378 0.0
C1494 C 0.79806 0.73587 0.66659 0.0
C1495 C 0.87395 0.78833 0.66743 0.0
C1496 C 0.85409 0.72434 0.721 0.0
C1497 C 0.86227 0.70317 0.70974 0.0
C1498 C 0.84673 0.74433 0.70733 0.0
C1499 C 0.84828 0.74342 0.68179 0.0
C1500 C 0.85865 0.72296 0.67045 0.0
C1501 C 0.86514 0.70285 0.68454 0.0
C1502 C 0.83543 0.76561 0.7202 0.0
C1503 C 0.86158 0.72172 0.64336 0.0
H1504 H 0.77885 0.7766 0.64877 0.0
H1505 H 0.84208 0.82169 0.65143 0.0
H1506 H 0.80787 0.72036 0.65857 0.0
H1507 H 0.79732 0.73293 0.68643 0.0
H1508 H 0.77927 0.7359 0.65948 0.0
H1509 H 0.8812 0.80438 0.65778 0.0
H1510 H 0.87665 0.79111 0.6871 0.0
H1511 H 0.88457 0.77218 0.66206 0.0
H1512 H 0.8518 0.72471 0.74046 0.0
H1513 H 0.87175 0.68663 0.67577 0.0
H1514 H 0.816 0.76685 0.71531 0.0
H1515 H 0.84417 0.7827 0.71447 0.0
H1516 H 0.83687 0.7641 0.74018 0.0
H1517 H 0.84388 0.7176 0.63489 0.0
H1518 H 0.8746 0.70742 0.63796 0.0
H1519 H 0.86786 0.73931 0.63605 0.0
C1520 C 0.72294 0.28282 0.15004 0.0
C1521 C 0.70106 0.29433 0.1445 0.0
C1522 C 0.74307 0.29606 0.15779 0.0
C1523 C 0.7416 0.32158 0.15914 0.0
C1524 C 0.7202 0.33345 0.15159 0.0
C1525 C 0.69992 0.31963 0.14488 0.0
C1526 C 0.76522 0.28255 0.16635 0.0
C1527 C 0.71832 0.36064 0.15166 0.0
C1528 C 0.77925 0.34732 0.20994 0.0
C1529 C 0.80137 0.35175 0.19837 0.0
C1530 C 0.75927 0.33861 0.1971 0.0
C1531 C 0.7611 0.3351 0.17183 0.0
C1532 C 0.78271 0.34156 0.15967 0.0
C1533 C 0.80284 0.34932 0.17318 0.0
C1534 C 0.73688 0.33133 0.21098 0.0
C1535 C 0.78497 0.33919 0.1326 0.0
H1536 H 0.72387 0.26325 0.1499 0.0
H1537 H 0.68309 0.32858 0.14034 0.0
H1538 H 0.7816 0.28932 0.15703 0.0
H1539 H 0.76779 0.28564 0.18602 0.0
H1540 H 0.7638 0.26278 0.16317 0.0
H1541 H 0.703 0.36704 0.14036 0.0
H1542 H 0.7154 0.36712 0.1704 0.0
H1543 H 0.7353 0.36895 0.14493 0.0
H1544 H 0.77797 0.34905 0.22942 0.0
H1545 H 0.81984 0.35295 0.16412 0.0
H1546 H 0.73415 0.31151 0.20942 0.0
H1547 H 0.72067 0.34023 0.2033 0.0
H1548 H 0.73808 0.33605 0.23047 0.0
H1549 H 0.788 0.31998 0.12778 0.0
H1550 H 0.80037 0.34993 0.12549 0.0
H1551 H 0.76811 0.34515 0.1235 0.0
C1552 C 0.17144 0.29771 0.69493 0.0
C1553 C 0.1476 0.30272 0.70168 0.0
C1554 C 0.17736 0.27601 0.68334 0.0
C1555 C 0.15877 0.25943 0.67736 0.0
C1556 C 0.13436 0.26535 0.68241 0.0
C1557 C 0.12912 0.28668 0.69521 0.0
C1558 C 0.20371 0.27015 0.67909 0.0
C1559 C 0.11389 0.24884 0.67521 0.0
C1560 C 0.18432 0.2104 0.63717 0.0
C1561 C 0.18957 0.19246 0.65426 0.0
C1562 C 0.17172 0.2314 0.6439 0.0
C1563 C 0.16551 0.23498 0.66847 0.0
C1564 C 0.16946 0.2162 0.68542 0.0
C1565 C 0.18099 0.19493 0.67794 0.0
C1566 C 0.16645 0.25036 0.62503 0.0
C1567 C 0.16375 0.21944 0.71193 0.0
H1568 H 0.18573 0.31006 0.7002 0.0
H1569 H 0.11064 0.29068 0.70038 0.0
H1570 H 0.20868 0.25357 0.68924 0.0
H1571 H 0.20697 0.26649 0.65967 0.0
H1572 H 0.2159 0.28502 0.68487 0.0
H1573 H 0.09648 0.25878 0.67414 0.0
H1574 H 0.11751 0.24015 0.65749 0.0
H1575 H 0.11187 0.23433 0.68889 0.0
H1576 H 0.19079 0.20838 0.61878 0.0
H1577 H 0.18521 0.18114 0.69122 0.0
H1578 H 0.18008 0.26501 0.62625 0.0
H1579 H 0.14838 0.25855 0.62804 0.0
H1580 H 0.16713 0.24271 0.60647 0.0
H1581 H 0.17531 0.23396 0.71954 0.0
H1582 H 0.16684 0.20266 0.72251 0.0
H1583 H 0.14468 0.22506 0.71435 0.0
C1584 C 0.19963 0.64827 0.1761 0.0
C1585 C 0.20084 0.6471 0.20141 0.0
C1586 C 0.21946 0.65649 0.16249 0.0
C1587 C 0.24059 0.6644 0.17458 0.0
C1588 C 0.24237 0.66186 0.19999 0.0
C1589 C 0.22261 0.65291 0.21303 0.0
C1590 C 0.21725 0.65799 0.13535 0.0
C1591 C 0.26442 0.6704 0.21368 0.0
C1592 C 0.30084 0.68086 0.14638 0.0
C1593 C 0.29909 0.70613 0.1455 0.0
C1594 C 0.28114 0.66669 0.15388 0.0
C1595 C 0.25957 0.67819 0.16146 0.0
C1596 C 0.25732 0.7036 0.15935 0.0
C1597 C 0.277 0.71721 0.15105 0.0
C1598 C 0.28388 0.63958 0.15493 0.0
C1599 C 0.23482 0.71666 0.16765 0.0
H1600 H 0.18294 0.64355 0.16699 0.0
H1601 H 0.22372 0.65206 0.23258 0.0
H1602 H 0.21396 0.67701 0.12994 0.0
H1603 H 0.23425 0.65205 0.12651 0.0
H1604 H 0.20207 0.64679 0.12847 0.0
H1605 H 0.2635 0.66588 0.23323 0.0
H1606 H 0.28103 0.66221 0.20604 0.0
H1607 H 0.26615 0.6903 0.21185 0.0
H1608 H 0.31783 0.67219 0.14185 0.0
H1609 H 0.27555 0.73674 0.15048 0.0
H1610 H 0.26722 0.6305 0.14841 0.0
H1611 H 0.28685 0.63389 0.17392 0.0
H1612 H 0.29946 0.63325 0.14395 0.0
H1613 H 0.21856 0.70882 0.15895 0.0
H1614 H 0.23544 0.7363 0.16351 0.0
H1615 H 0.23269 0.71441 0.18748 0.0
C1616 C 0.87213 0.27717 0.28915 0.0
C1617 C 0.85568 0.2964 0.29044 0.0
C1618 C 0.86673 0.25471 0.29975 0.0
C1619 C 0.84391 0.2512 0.31081 0.0
C1620 C 0.82768 0.2709 0.31294 0.0
C1621 C 0.83399 0.29338 0.30313 0.0
C1622 C 0.885 0.23453 0.29816 0.0
C1623 C 0.80291 0.26786 0.32404 0.0
C1624 C 0.81173 0.19094 0.3083 0.0
C1625 C 0.81037 0.18502 0.33287 0.0
C1626 C 0.82386 0.21183 0.30064 0.0
C1627 C 0.83568 0.2266 0.31792 0.0
C1628 C 0.83646 0.21928 0.34243 0.0
C1629 C 0.82329 0.19884 0.34973 0.0
C1630 C 0.82205 0.21923 0.27442 0.0
C1631 C 0.84987 0.23384 0.36119 0.0
H1632 H 0.88898 0.27954 0.27944 0.0
H1633 H 0.82115 0.30816 0.30394 0.0
H1634 H 0.88584 0.22434 0.31542 0.0
H1635 H 0.87955 0.22166 0.28379 0.0
H1636 H 0.90335 0.24142 0.29379 0.0
H1637 H 0.79264 0.2851 0.32468 0.0
H1638 H 0.79233 0.25455 0.31338 0.0
H1639 H 0.80447 0.26072 0.34269 0.0
H1640 H 0.80156 0.1804 0.29527 0.0
H1641 H 0.82235 0.19418 0.36875 0.0
H1642 H 0.84019 0.22336 0.267 0.0
H1643 H 0.81102 0.23592 0.27295 0.0
H1644 H 0.81358 0.205 0.26305 0.0
H1645 H 0.86746 0.24026 0.35398 0.0
H1646 H 0.85319 0.22319 0.37788 0.0
H1647 H 0.83907 0.24999 0.36612 0.0
C1648 C 0.21759 0.34874 0.79416 0.0
C1649 C 0.19408 0.35064 0.80345 0.0
C1650 C 0.23655 0.3397 0.80826 0.0
C1651 C 0.23214 0.3332 0.83262 0.0
C1652 C 0.20892 0.33701 0.84274 0.0
C1653 C 0.18997 0.34521 0.82787 0.0
C1654 C 0.26083 0.33541 0.79647 0.0
C1655 C 0.20378 0.33136 0.86892 0.0
C1656 C 0.27203 0.28147 0.85236 0.0
C1657 C 0.29233 0.29376 0.86128 0.0
C1658 C 0.2516 0.29408 0.84435 0.0
C1659 C 0.25107 0.3196 0.84606 0.0
C1660 C 0.27053 0.33193 0.85727 0.0
C1661 C 0.29119 0.3189 0.86432 0.0
C1662 C 0.23155 0.28018 0.83204 0.0
C1663 C 0.27014 0.359 0.86049 0.0
H1664 H 0.22091 0.3528 0.77527 0.0
H1665 H 0.17187 0.34687 0.83521 0.0
H1666 H 0.27535 0.34443 0.80692 0.0
H1667 H 0.26486 0.31576 0.79631 0.0
H1668 H 0.26146 0.34217 0.77757 0.0
H1669 H 0.18706 0.34047 0.87531 0.0
H1670 H 0.20136 0.3116 0.87116 0.0
H1671 H 0.21912 0.33698 0.88058 0.0
H1672 H 0.27277 0.26204 0.84993 0.0
H1673 H 0.30672 0.32847 0.87149 0.0
H1674 H 0.23101 0.28504 0.81257 0.0
H1675 H 0.21378 0.28501 0.83992 0.0
H1676 H 0.23401 0.26031 0.83354 0.0
H1677 H 0.27448 0.36788 0.84306 0.0
H1678 H 0.28362 0.36503 0.87412 0.0
H1679 H 0.25193 0.36523 0.86614 0.0
C1680 C 0.21307 0.78096 0.34068 0.0
C1681 C 0.20205 0.8032 0.34574 0.0
C1682 C 0.19954 0.76139 0.33202 0.0
C1683 C 0.17423 0.76389 0.32903 0.0
C1684 C 0.16272 0.78565 0.33603 0.0
C1685 C 0.17684 0.80525 0.34391 0.0
C1686 C 0.21264 0.73869 0.32435 0.0
C1687 C 0.13568 0.78866 0.33403 0.0
C1688 C 0.15002 0.72654 0.2772 0.0
C1689 C 0.14357 0.70502 0.28891 0.0
C1690 C 0.15888 0.74634 0.29024 0.0
C1691 C 0.16066 0.74487 0.31574 0.0
C1692 C 0.15217 0.72398 0.32785 0.0
C1693 C 0.14409 0.70409 0.31425 0.0
C1694 C 0.16813 0.76808 0.27653 0.0
C1695 C 0.15287 0.72212 0.35505 0.0
H1696 H 0.23255 0.77928 0.34199 0.0
H1697 H 0.16821 0.82234 0.34805 0.0
H1698 H 0.20441 0.72261 0.333 0.0
H1699 H 0.21094 0.73635 0.30449 0.0
H1700 H 0.23216 0.73918 0.32904 0.0
H1701 H 0.12916 0.80453 0.34445 0.0
H1702 H 0.13062 0.79124 0.3148 0.0
H1703 H 0.12622 0.77224 0.34061 0.0
H1704 H 0.14973 0.72741 0.25762 0.0
H1705 H 0.13889 0.68758 0.32342 0.0
H1706 H 0.18799 0.76958 0.27895 0.0
H1707 H 0.15993 0.78489 0.2837 0.0
H1708 H 0.16419 0.76694 0.25687 0.0
H1709 H 0.1717 0.71876 0.36105 0.0
H1710 H 0.14134 0.70711 0.36178 0.0
H1711 H 0.14679 0.73926 0.3635 0.0
C1712 C 0.79773 0.63859 0.8171 0.0
C1713 C 0.79833 0.64167 0.79194 0.0
C1714 C 0.77731 0.64548 0.83056 0.0
C1715 C 0.75754 0.65652 0.81864 0.0
C1716 C 0.75753 0.65832 0.7931 0.0
C1717 C 0.77777 0.6505 0.78005 0.0
C1718 C 0.77752 0.64223 0.85764 0.0
C1719 C 0.73707 0.67041 0.77964 0.0
C1720 C 0.69663 0.67323 0.8454 0.0
C1721 C 0.70022 0.69777 0.85062 0.0
C1722 C 0.71576 0.65882 0.83688 0.0
C1723 C 0.73863 0.66951 0.83265 0.0
C1724 C 0.74261 0.69394 0.83913 0.0
C1725 C 0.72346 0.70763 0.84841 0.0
C1726 C 0.71112 0.63255 0.83122 0.0
C1727 C 0.76656 0.70625 0.8345 0.0
H1728 H 0.81348 0.63148 0.82634 0.0
H1729 H 0.77813 0.65296 0.76061 0.0
H1730 H 0.78168 0.65974 0.86646 0.0
H1731 H 0.75953 0.63624 0.86422 0.0
H1732 H 0.79135 0.62887 0.86341 0.0
H1733 H 0.73917 0.66902 0.75971 0.0
H1734 H 0.7195 0.66225 0.78477 0.0
H1735 H 0.73635 0.68983 0.78461 0.0
H1736 H 0.67874 0.66545 0.84732 0.0
H1737 H 0.72637 0.7266 0.85235 0.0
H1738 H 0.72672 0.62122 0.83677 0.0
H1739 H 0.70868 0.63028 0.81146 0.0
H1740 H 0.69458 0.6258 0.84039 0.0
H1741 H 0.78148 0.69596 0.84302 0.0
H1742 H 0.76698 0.72505 0.84153 0.0
H1743 H 0.77013 0.70678 0.81476 0.0
C1744 C 0.69057 0.85588 0.70492 0.0
C1745 C 0.71586 0.85469 0.70603 0.0
C1746 C 0.67635 0.84859 0.72467 0.0
C1747 C 0.68774 0.83895 0.74547 0.0
C1748 C 0.7133 0.83884 0.74704 0.0
C1749 C 0.72703 0.84713 0.72745 0.0
C1750 C 0.64917 0.85004 0.72276 0.0
C1751 C 0.72623 0.82814 0.76859 0.0
C1752 C 0.65836 0.82304 0.80537 0.0
C1753 C 0.65448 0.79817 0.80241 0.0
C1754 C 0.66729 0.83716 0.78622 0.0
C1755 C 0.67342 0.82587 0.76407 0.0
C1756 C 0.66845 0.801 0.7607 0.0
C1757 C 0.65864 0.78758 0.77977 0.0
C1758 C 0.67126 0.86385 0.7901 0.0
C1759 C 0.67523 0.78806 0.73761 0.0
H1760 H 0.6819 0.86196 0.68843 0.0
H1761 H 0.74658 0.84607 0.72831 0.0
H1762 H 0.64174 0.83185 0.71882 0.0
H1763 H 0.64116 0.85626 0.74007 0.0
H1764 H 0.64341 0.86247 0.70808 0.0
H1765 H 0.74615 0.83052 0.76751 0.0
H1766 H 0.71973 0.83657 0.78556 0.0
H1767 H 0.72224 0.80851 0.76973 0.0
H1768 H 0.65495 0.83133 0.8228 0.0
H1769 H 0.6558 0.76834 0.77741 0.0
H1770 H 0.66572 0.87427 0.77387 0.0
H1771 H 0.69075 0.86736 0.7932 0.0
H1772 H 0.66105 0.87066 0.806 0.0
H1773 H 0.66705 0.79723 0.72179 0.0
H1774 H 0.66933 0.76887 0.73758 0.0
H1775 H 0.69515 0.78858 0.73522 0.0
C1776 C 0.69346 0.18308 0.30104 0.0
C1777 C 0.69494 0.15861 0.30729 0.0
C1778 C 0.68066 0.19045 0.28044 0.0
C1779 C 0.66827 0.173 0.26635 0.0
C1780 C 0.66775 0.1486 0.27402 0.0
C1781 C 0.68162 0.14157 0.2941 0.0
C1782 C 0.68222 0.21657 0.27263 0.0
C1783 C 0.65376 0.12968 0.26023 0.0
C1784 C 0.62982 0.20199 0.2175 0.0
C1785 C 0.64548 0.20082 0.19761 0.0
C1786 C 0.63603 0.19111 0.23961 0.0
C1787 C 0.6589 0.17989 0.24209 0.0
C1788 C 0.67422 0.17769 0.22168 0.0
C1789 C 0.66708 0.18777 0.19956 0.0
C1790 C 0.61867 0.19276 0.26058 0.0
C1791 C 0.69903 0.16641 0.2236 0.0
H1792 H 0.70396 0.19623 0.31108 0.0
H1793 H 0.68266 0.12263 0.29904 0.0
H1794 H 0.69227 0.21778 0.25531 0.0
H1795 H 0.66391 0.22404 0.26947 0.0
H1796 H 0.69155 0.22804 0.28622 0.0
H1797 H 0.65082 0.11315 0.27124 0.0
H1798 H 0.63596 0.13684 0.25437 0.0
H1799 H 0.66394 0.12449 0.24376 0.0
H1800 H 0.61303 0.21198 0.21596 0.0
H1801 H 0.67933 0.18706 0.18427 0.0
H1802 H 0.62465 0.20719 0.27313 0.0
H1803 H 0.61829 0.17554 0.27087 0.0
H1804 H 0.60003 0.19709 0.25447 0.0
H1805 H 0.71035 0.17718 0.2362 0.0
H1806 H 0.70838 0.16545 0.20586 0.0
H1807 H 0.69771 0.14789 0.2311 0.0
C1808 C 0.28644 0.15758 0.72434 0.0
C1809 C 0.29563 0.15539 0.70084 0.0
C1810 C 0.3005 0.16739 0.74296 0.0
C1811 C 0.32465 0.17441 0.73816 0.0
C1812 C 0.33463 0.17049 0.71491 0.0
C1813 C 0.31982 0.16148 0.69633 0.0
C1814 C 0.28891 0.17178 0.7673 0.0
C1815 C 0.36059 0.17678 0.70939 0.0
C1816 C 0.34458 0.22675 0.77718 0.0
C1817 C 0.35442 0.21473 0.7972 0.0
C1818 C 0.33604 0.21386 0.75713 0.0
C1819 C 0.33813 0.18836 0.75675 0.0
C1820 C 0.35013 0.17633 0.7759 0.0
C1821 C 0.35775 0.18963 0.79616 0.0
C1822 C 0.32291 0.22741 0.73738 0.0
C1823 C 0.35364 0.1493 0.77565 0.0
H1824 H 0.26771 0.15303 0.72787 0.0
H1825 H 0.32702 0.15959 0.6782 0.0
H1826 H 0.29977 0.16327 0.78183 0.0
H1827 H 0.28831 0.19148 0.77102 0.0
H1828 H 0.27019 0.16456 0.76828 0.0
H1829 H 0.36684 0.16829 0.69229 0.0
H1830 H 0.36245 0.19665 0.70757 0.0
H1831 H 0.37264 0.17093 0.72433 0.0
H1832 H 0.34189 0.24615 0.77788 0.0
H1833 H 0.3656 0.18029 0.8115 0.0
H1834 H 0.30351 0.22228 0.73751 0.0
H1835 H 0.33028 0.22251 0.7194 0.0
H1836 H 0.32423 0.24731 0.73961 0.0
H1837 H 0.33632 0.14025 0.78016 0.0
H1838 H 0.36745 0.14347 0.78901 0.0
H1839 H 0.35917 0.14303 0.75741 0.0
C1840 C 0.28652 0.85374 0.27311 0.0
C1841 C 0.29714 0.85853 0.29563 0.0
C1842 C 0.30028 0.84487 0.2538 0.0
C1843 C 0.32548 0.8415 0.25679 0.0
C1844 C 0.33668 0.8485 0.27873 0.0
C1845 C 0.32229 0.85648 0.29812 0.0
C1846 C 0.28744 0.83718 0.23095 0.0
C1847 C 0.36364 0.84628 0.28222 0.0
C1848 C 0.34877 0.7881 0.22116 0.0
C1849 C 0.35534 0.79897 0.19924 0.0
C1850 C 0.34022 0.80194 0.24055 0.0
C1851 C 0.33903 0.8274 0.2383 0.0
C1852 C 0.34775 0.83865 0.21701 0.0
C1853 C 0.35533 0.82425 0.19747 0.0
C1854 C 0.33061 0.78908 0.26266 0.0
C1855 C 0.34788 0.86578 0.21437 0.0
H1856 H 0.26709 0.85523 0.27103 0.0
H1857 H 0.33063 0.86042 0.31541 0.0
H1858 H 0.29603 0.84557 0.21492 0.0
H1859 H 0.2889 0.81728 0.22881 0.0
H1860 H 0.26798 0.84214 0.23107 0.0
H1861 H 0.37006 0.85747 0.29762 0.0
H1862 H 0.36836 0.82718 0.28599 0.0
H1863 H 0.37346 0.85182 0.26562 0.0
H1864 H 0.34866 0.76856 0.22263 0.0
H1865 H 0.36065 0.83274 0.18063 0.0
H1866 H 0.31085 0.79224 0.26421 0.0
H1867 H 0.33917 0.79635 0.27925 0.0
H1868 H 0.33384 0.76928 0.26199 0.0
H1869 H 0.32938 0.87218 0.21006 0.0
H1870 H 0.36015 0.87171 0.19962 0.0
H1871 H 0.35355 0.87458 0.23148 0.0
loop_
_geom_bond_atom_site_label_1
_geom_bond_atom_site_label_2
_geom_bond_distance
_geom_bond_site_symmetry_2
_ccdc_geom_bond_type
O0 Cd1 2.223 . S
O0 C8 1.315 . S
Cd1 O0 2.223 . S
Cd1 O4 2.297 . S
Cd1 O5 2.439 . S
Cd1 O11 2.240 . S
Cd2 O3 2.240 . S
Cd2 O10 2.223 . S
Cd2 O12 2.297 . S
Cd2 O13 2.439 . S
O3 Cd2 2.240 . S
O3 C8 1.279 . S
O4 Cd1 2.297 . S
O4 C6 1.247 . S
O5 Cd1 2.439 . S
O5 C6 1.208 . S
C6 O4 1.247 . S
C6 O5 1.208 . S
C7 O12 1.247 . S
C7 O13 1.208 . S
C8 O0 1.315 . S
C8 O3 1.279 . S
C9 O10 1.315 . S
C9 O11 1.279 . S
O10 Cd2 2.223 . S
O10 C9 1.315 . S
O11 Cd1 2.240 . S
O11 C9 1.279 . S
O12 Cd2 2.297 . S
O12 C7 1.247 . S
O13 Cd2 2.439 . S
O13 C7 1.208 . S
O14 Cd15 2.223 . S
O14 C22 1.315 . S
Cd15 O14 2.223 . S
Cd15 O18 2.297 . S
Cd15 O19 2.439 . S
Cd15 O25 2.240 . S
Cd16 O17 2.240 . S
Cd16 O24 2.223 . S
Cd16 O26 2.297 . S
Cd16 O27 2.439 . S
O17 Cd16 2.240 . S
O17 C22 1.279 . S
O18 Cd15 2.297 . S
O18 C20 1.247 . S
O19 Cd15 2.439 . S
O19 C20 1.208 . S
C20 O18 1.247 . S
C20 O19 1.208 . S
C21 O26 1.247 . S
C21 O27 1.208 . S
C22 O14 1.315 . S
C22 O17 1.279 . S
C23 O24 1.315 . S
C23 O25 1.279 . S
O24 Cd16 2.223 . S
O24 C23 1.315 . S
O25 Cd15 2.240 . S
O25 C23 1.279 . S
O26 Cd16 2.297 . S
O26 C21 1.247 . S
O27 Cd16 2.439 . S
O27 C21 1.208 . S
O28 Cd29 2.223 . S
O28 C36 1.315 . S
Cd29 O28 2.223 . S
Cd29 O32 2.297 . S
Cd29 O33 2.439 . S
Cd29 O39 2.240 . S
Cd30 O31 2.240 . S
Cd30 O38 2.223 . S
Cd30 O40 2.297 . S
Cd30 O41 2.439 . S
O31 Cd30 2.240 . S
O31 C36 1.279 . S
O32 Cd29 2.297 . S
O32 C34 1.247 . S
O33 Cd29 2.439 . S
O33 C34 1.208 . S
C34 O32 1.247 . S
C34 O33 1.208 . S
C35 O40 1.247 . S
C35 O41 1.208 . S
C36 O28 1.315 . S
C36 O31 1.279 . S
C37 O38 1.315 . S
C37 O39 1.279 . S
O38 Cd30 2.223 . S
O38 C37 1.315 . S
O39 Cd29 2.240 . S
O39 C37 1.279 . S
O40 Cd30 2.297 . S
O40 C35 1.247 . S
O41 Cd30 2.439 . S
O41 C35 1.208 . S
O42 Cd43 2.223 . S
O42 C50 1.315 . S
Cd43 O42 2.223 . S
Cd43 O46 2.297 . S
Cd43 O47 2.439 . S
Cd43 O53 2.240 . S
Cd44 O45 2.240 . S
Cd44 O52 2.223 . S
Cd44 O54 2.297 . S
Cd44 O55 2.439 . S
O45 Cd44 2.240 . S
O45 C50 1.279 . S
O46 Cd43 2.297 . S
O46 C48 1.247 . S
O47 Cd43 2.439 . S
O47 C48 1.208 . S
C48 O46 1.247 . S
C48 O47 1.208 . S
C49 O54 1.247 . S
C49 O55 1.208 . S
C50 O42 1.315 . S
C50 O45 1.279 . S
C51 O52 1.315 . S
C51 O53 1.279 . S
O52 Cd44 2.223 . S
O52 C51 1.315 . S
O53 Cd43 2.240 . S
O53 C51 1.279 . S
O54 Cd44 2.297 . S
O54 C49 1.247 . S
O55 Cd44 2.439 . S
O55 C49 1.208 . S
O56 Cd57 2.223 . S
O56 C64 1.315 . S
Cd57 O56 2.223 . S
Cd57 O60 2.297 . S
Cd57 O61 2.439 . S
Cd57 O67 2.240 . S
Cd58 O59 2.240 . S
Cd58 O66 2.223 . S
Cd58 O68 2.297 . S
Cd58 O69 2.439 . S
O59 Cd58 2.240 . S
O59 C64 1.279 . S
O60 Cd57 2.297 . S
O60 C62 1.247 . S
O61 Cd57 2.439 . S
O61 C62 1.208 . S
C62 O60 1.247 . S
C62 O61 1.208 . S
C63 O68 1.247 . S
C63 O69 1.208 . S
C64 O56 1.315 . S
C64 O59 1.279 . S
C65 O66 1.315 . S
C65 O67 1.279 . S
O66 Cd58 2.223 . S
O66 C65 1.315 . S
O67 Cd57 2.240 . S
O67 C65 1.279 . S
O68 Cd58 2.297 . S
O68 C63 1.247 . S
O69 Cd58 2.439 . S
O69 C63 1.208 . S
O70 Cd71 2.223 . S
O70 C78 1.315 . S
Cd71 O70 2.223 . S
Cd71 O74 2.297 . S
Cd71 O75 2.439 . S
Cd71 O81 2.240 . S
Cd72 O73 2.240 . S
Cd72 O80 2.223 . S
Cd72 O82 2.297 . S
Cd72 O83 2.439 . S
O73 Cd72 2.240 . S
O73 C78 1.279 . S
O74 Cd71 2.297 . S
O74 C76 1.247 . S
O75 Cd71 2.439 . S
O75 C76 1.208 . S
C76 O74 1.247 . S
C76 O75 1.208 . S
C77 O82 1.247 . S
C77 O83 1.208 . S
C78 O70 1.315 . S
C78 O73 1.279 . S
C79 O80 1.315 . S
C79 O81 1.279 . S
O80 Cd72 2.223 . S
O80 C79 1.315 . S
O81 Cd71 2.240 . S
O81 C79 1.279 . S
O82 Cd72 2.297 . S
O82 C77 1.247 . S
O83 Cd72 2.439 . S
O83 C77 1.208 . S
O84 Cd85 2.223 . S
O84 C92 1.315 . S
Cd85 O84 2.223 . S
Cd85 O88 2.297 . S
Cd85 O89 2.439 . S
Cd85 O95 2.240 . S
Cd86 O87 2.240 . S
Cd86 O94 2.223 . S
Cd86 O96 2.297 . S
Cd86 O97 2.439 . S
O87 Cd86 2.240 . S
O87 C92 1.279 . S
O88 Cd85 2.297 . S
O88 C90 1.247 . S
O89 Cd85 2.439 . S
O89 C90 1.208 . S
C90 O88 1.247 . S
C90 O89 1.208 . S
C91 O96 1.247 . S
C91 O97 1.208 . S
C92 O84 1.315 . S
C92 O87 1.279 . S
C93 O94 1.315 . S
C93 O95 1.279 . S
O94 Cd86 2.223 . S
O94 C93 1.315 . S
O95 Cd85 2.240 . S
O95 C93 1.279 . S
O96 Cd86 2.297 . S
O96 C91 1.247 . S
O97 Cd86 2.439 . S
O97 C91 1.208 . S
O98 Cd99 2.223 . S
O98 C106 1.315 . S
Cd99 O98 2.223 . S
Cd99 O102 2.297 . S
Cd99 O103 2.439 . S
Cd99 O109 2.240 . S
Cd100 O101 2.240 . S
Cd100 O108 2.223 . S
Cd100 O110 2.297 . S
Cd100 O111 2.439 . S
O101 Cd100 2.240 . S
O101 C106 1.279 . S
O102 Cd99 2.297 . S
O102 C104 1.247 . S
O103 Cd99 2.439 . S
O103 C104 1.208 . S
C104 O102 1.247 . S
C104 O103 1.208 . S
C105 O110 1.247 . S
C105 O111 1.208 . S
C106 O98 1.315 . S
C106 O101 1.279 . S
C107 O108 1.315 . S
C107 O109 1.279 . S
O108 Cd100 2.223 . S
O108 C107 1.315 . S
O109 Cd99 2.240 . S
O109 C107 1.279 . S
O110 Cd100 2.297 . S
O110 C105 1.247 . S
O111 Cd100 2.439 . S
O111 C105 1.208 . S
O112 Cd113 2.223 . S
O112 C120 1.315 . S
Cd113 O112 2.223 . S
Cd113 O116 2.297 . S
Cd113 O117 2.439 . S
Cd113 O123 2.240 . S
Cd114 O115 2.240 . S
Cd114 O122 2.223 . S
Cd114 O124 2.297 . S
Cd114 O125 2.439 . S
O115 Cd114 2.240 . S
O115 C120 1.279 . S
O116 Cd113 2.297 . S
O116 C118 1.247 . S
O117 Cd113 2.439 . S
O117 C118 1.208 . S
C118 O116 1.247 . S
C118 O117 1.208 . S
C119 O124 1.247 . S
C119 O125 1.208 . S
C120 O112 1.315 . S
C120 O115 1.279 . S
C121 O122 1.315 . S
C121 O123 1.279 . S
O122 Cd114 2.223 . S
O122 C121 1.315 . S
O123 Cd113 2.240 . S
O123 C121 1.279 . S
O124 Cd114 2.297 . S
O124 C119 1.247 . S
O125 Cd114 2.439 . S
O125 C119 1.208 . S
O126 Cd127 2.223 . S
O126 C134 1.315 . S
Cd127 O126 2.223 . S
Cd127 O130 2.297 . S
Cd127 O131 2.439 . S
Cd127 O137 2.240 . S
Cd128 O129 2.240 . S
Cd128 O136 2.223 . S
Cd128 O138 2.297 . S
Cd128 O139 2.439 . S
O129 Cd128 2.240 . S
O129 C134 1.279 . S
O130 Cd127 2.297 . S
O130 C132 1.247 . S
O131 Cd127 2.439 . S
O131 C132 1.208 . S
C132 O130 1.247 . S
C132 O131 1.208 . S
C133 O138 1.247 . S
C133 O139 1.208 . S
C134 O126 1.315 . S
C134 O129 1.279 . S
C135 O136 1.315 . S
C135 O137 1.279 . S
O136 Cd128 2.223 . S
O136 C135 1.315 . S
O137 Cd127 2.240 . S
O137 C135 1.279 . S
O138 Cd128 2.297 . S
O138 C133 1.247 . S
O139 Cd128 2.439 . S
O139 C133 1.208 . S
O140 Cd141 2.223 . S
O140 C148 1.315 . S
Cd141 O140 2.223 . S
Cd141 O144 2.297 . S
Cd141 O145 2.439 . S
Cd141 O151 2.240 . S
Cd142 O143 2.240 . S
Cd142 O150 2.223 . S
Cd142 O152 2.297 . S
Cd142 O153 2.439 . S
O143 Cd142 2.240 . S
O143 C148 1.279 . S
O144 Cd141 2.297 . S
O144 C146 1.247 . S
O145 Cd141 2.439 . S
O145 C146 1.208 . S
C146 O144 1.247 . S
C146 O145 1.208 . S
C147 O152 1.247 . S
C147 O153 1.208 . S
C148 O140 1.315 . S
C148 O143 1.279 . S
C149 O150 1.315 . S
C149 O151 1.279 . S
O150 Cd142 2.223 . S
O150 C149 1.315 . S
O151 Cd141 2.240 . S
O151 C149 1.279 . S
O152 Cd142 2.297 . S
O152 C147 1.247 . S
O153 Cd142 2.439 . S
O153 C147 1.208 . S
O154 Cd155 2.223 . S
O154 C162 1.315 . S
Cd155 O154 2.223 . S
Cd155 O158 2.297 . S
Cd155 O159 2.439 . S
Cd155 O165 2.240 . S
Cd156 O157 2.240 . S
Cd156 O164 2.223 . S
Cd156 O166 2.297 . S
Cd156 O167 2.439 . S
O157 Cd156 2.240 . S
O157 C162 1.279 . S
O158 Cd155 2.297 . S
O158 C160 1.247 . S
O159 Cd155 2.439 . S
O159 C160 1.208 . S
C160 O158 1.247 . S
C160 O159 1.208 . S
C161 O166 1.247 . S
C161 O167 1.208 . S
C162 O154 1.315 . S
C162 O157 1.279 . S
C163 O164 1.315 . S
C163 O165 1.279 . S
O164 Cd156 2.223 . S
O164 C163 1.315 . S
O165 Cd155 2.240 . S
O165 C163 1.279 . S
O166 Cd156 2.297 . S
O166 C161 1.247 . S
O167 Cd156 2.439 . S
O167 C161 1.208 . S
O168 Cd169 2.223 . S
O168 C176 1.315 . S
Cd169 O168 2.223 . S
Cd169 O172 2.297 . S
Cd169 O173 2.439 . S
Cd169 O179 2.240 . S
Cd170 O171 2.240 . S
Cd170 O178 2.223 . S
Cd170 O180 2.297 . S
Cd170 O181 2.439 . S
O171 Cd170 2.240 . S
O171 C176 1.279 . S
O172 Cd169 2.297 . S
O172 C174 1.247 . S
O173 Cd169 2.439 . S
O173 C174 1.208 . S
C174 O172 1.247 . S
C174 O173 1.208 . S
C175 O180 1.247 . S
C175 O181 1.208 . S
C176 O168 1.315 . S
C176 O171 1.279 . S
C177 O178 1.315 . S
C177 O179 1.279 . S
O178 Cd170 2.223 . S
O178 C177 1.315 . S
O179 Cd169 2.240 . S
O179 C177 1.279 . S
O180 Cd170 2.297 . S
O180 C175 1.247 . S
O181 Cd170 2.439 . S
O181 C175 1.208 . S
O182 Cd183 2.223 . S
O182 C190 1.315 . S
Cd183 O182 2.223 . S
Cd183 O186 2.297 . S
Cd183 O187 2.439 . S
Cd183 O193 2.240 . S
Cd184 O185 2.240 . S
Cd184 O192 2.223 . S
Cd184 O194 2.297 . S
Cd184 O195 2.439 . S
O185 Cd184 2.240 . S
O185 C190 1.279 . S
O186 Cd183 2.297 . S
O186 C188 1.247 . S
O187 Cd183 2.439 . S
O187 C188 1.208 . S
C188 O186 1.247 . S
C188 O187 1.208 . S
C189 O194 1.247 . S
C189 O195 1.208 . S
C190 O182 1.315 . S
C190 O185 1.279 . S
C191 O192 1.315 . S
C191 O193 1.279 . S
O192 Cd184 2.223 . S
O192 C191 1.315 . S
O193 Cd183 2.240 . S
O193 C191 1.279 . S
O194 Cd184 2.297 . S
O194 C189 1.247 . S
O195 Cd184 2.439 . S
O195 C189 1.208 . S
O196 Cd197 2.223 . S
O196 C204 1.315 . S
Cd197 O196 2.223 . S
Cd197 O200 2.297 . S
Cd197 O201 2.439 . S
Cd197 O207 2.240 . S
Cd198 O199 2.240 . S
Cd198 O206 2.223 . S
Cd198 O208 2.297 . S
Cd198 O209 2.439 . S
O199 Cd198 2.240 . S
O199 C204 1.279 . S
O200 Cd197 2.297 . S
O200 C202 1.247 . S
O201 Cd197 2.439 . S
O201 C202 1.208 . S
C202 O200 1.247 . S
C202 O201 1.208 . S
C203 O208 1.247 . S
C203 O209 1.208 . S
C204 O196 1.315 . S
C204 O199 1.279 . S
C205 O206 1.315 . S
C205 O207 1.279 . S
O206 Cd198 2.223 . S
O206 C205 1.315 . S
O207 Cd197 2.240 . S
O207 C205 1.279 . S
O208 Cd198 2.297 . S
O208 C203 1.247 . S
O209 Cd198 2.439 . S
O209 C203 1.208 . S
O210 Cd211 2.223 . S
O210 C218 1.315 . S
Cd211 O210 2.223 . S
Cd211 O214 2.297 . S
Cd211 O215 2.439 . S
Cd211 O221 2.240 . S
Cd212 O213 2.240 . S
Cd212 O220 2.223 . S
Cd212 O222 2.297 . S
Cd212 O223 2.439 . S
O213 Cd212 2.240 . S
O213 C218 1.279 . S
O214 Cd211 2.297 . S
O214 C216 1.247 . S
O215 Cd211 2.439 . S
O215 C216 1.208 . S
C216 O214 1.247 . S
C216 O215 1.208 . S
C217 O222 1.247 . S
C217 O223 1.208 . S
C218 O210 1.315 . S
C218 O213 1.279 . S
C219 O220 1.315 . S
C219 O221 1.279 . S
O220 Cd212 2.223 . S
O220 C219 1.315 . S
O221 Cd211 2.240 . S
O221 C219 1.279 . S
O222 Cd212 2.297 . S
O222 C217 1.247 . S
O223 Cd212 2.439 . S
O223 C217 1.208 . S
O224 Cd225 2.223 . S
O224 C232 1.315 . S
Cd225 O224 2.223 . S
Cd225 O228 2.297 . S
Cd225 O229 2.439 . S
Cd225 O235 2.240 . S
Cd226 O227 2.240 . S
Cd226 O234 2.223 . S
Cd226 O236 2.297 . S
Cd226 O237 2.439 . S
O227 Cd226 2.240 . S
O227 C232 1.279 . S
O228 Cd225 2.297 . S
O228 C230 1.247 . S
O229 Cd225 2.439 . S
O229 C230 1.208 . S
C230 O228 1.247 . S
C230 O229 1.208 . S
C231 O236 1.247 . S
C231 O237 1.208 . S
C232 O224 1.315 . S
C232 O227 1.279 . S
C233 O234 1.315 . S
C233 O235 1.279 . S
O234 Cd226 2.223 . S
O234 C233 1.315 . S
O235 Cd225 2.240 . S
O235 C233 1.279 . S
O236 Cd226 2.297 . S
O236 C231 1.247 . S
O237 Cd226 2.439 . S
O237 C231 1.208 . S
O238 Cd239 2.223 . S
O238 C246 1.315 . S
Cd239 O238 2.223 . S
Cd239 O242 2.297 . S
Cd239 O243 2.439 . S
Cd239 O249 2.240 . S
Cd240 O241 2.240 . S
Cd240 O248 2.223 . S
Cd240 O250 2.297 . S
Cd240 O251 2.439 . S
O241 Cd240 2.240 . S
O241 C246 1.279 . S
O242 Cd239 2.297 . S
O242 C244 1.247 . S
O243 Cd239 2.439 . S
O243 C244 1.208 . S
C244 O242 1.247 . S
C244 O243 1.208 . S
C245 O250 1.247 . S
C245 O251 1.208 . S
C246 O238 1.315 . S
C246 O241 1.279 . S
C247 O248 1.315 . S
C247 O249 1.279 . S
O248 Cd240 2.223 . S
O248 C247 1.315 . S
O249 Cd239 2.240 . S
O249 C247 1.279 . S
O250 Cd240 2.297 . S
O250 C245 1.247 . S
O251 Cd240 2.439 . S
O251 C245 1.208 . S
O252 Cd253 2.223 . S
O252 C260 1.315 . S
Cd253 O252 2.223 . S
Cd253 O256 2.297 . S
Cd253 O257 2.439 . S
Cd253 O263 2.240 . S
Cd254 O255 2.240 . S
Cd254 O262 2.223 . S
Cd254 O264 2.297 . S
Cd254 O265 2.439 . S
O255 Cd254 2.240 . S
O255 C260 1.279 . S
O256 Cd253 2.297 . S
O256 C258 1.247 . S
O257 Cd253 2.439 . S
O257 C258 1.208 . S
C258 O256 1.247 . S
C258 O257 1.208 . S
C259 O264 1.247 . S
C259 O265 1.208 . S
C260 O252 1.315 . S
C260 O255 1.279 . S
C261 O262 1.315 . S
C261 O263 1.279 . S
O262 Cd254 2.223 . S
O262 C261 1.315 . S
O263 Cd253 2.240 . S
O263 C261 1.279 . S
O264 Cd254 2.297 . S
O264 C259 1.247 . S
O265 Cd254 2.439 . S
O265 C259 1.208 . S
O266 Cd267 2.223 . S
O266 C274 1.315 . S
Cd267 O266 2.223 . S
Cd267 O270 2.297 . S
Cd267 O271 2.439 . S
Cd267 O277 2.240 . S
Cd268 O269 2.240 . S
Cd268 O276 2.223 . S
Cd268 O278 2.297 . S
Cd268 O279 2.439 . S
O269 Cd268 2.240 . S
O269 C274 1.279 . S
O270 Cd267 2.297 . S
O270 C272 1.247 . S
O271 Cd267 2.439 . S
O271 C272 1.208 . S
C272 O270 1.247 . S
C272 O271 1.208 . S
C273 O278 1.247 . S
C273 O279 1.208 . S
C274 O266 1.315 . S
C274 O269 1.279 . S
C275 O276 1.315 . S
C275 O277 1.279 . S
O276 Cd268 2.223 . S
O276 C275 1.315 . S
O277 Cd267 2.240 . S
O277 C275 1.279 . S
O278 Cd268 2.297 . S
O278 C273 1.247 . S
O279 Cd268 2.439 . S
O279 C273 1.208 . S
O280 Cd281 2.223 . S
O280 C288 1.315 . S
Cd281 O280 2.223 . S
Cd281 O284 2.297 . S
Cd281 O285 2.439 . S
Cd281 O291 2.240 . S
Cd282 O283 2.240 . S
Cd282 O290 2.223 . S
Cd282 O292 2.297 . S
Cd282 O293 2.439 . S
O283 Cd282 2.240 . S
O283 C288 1.279 . S
O284 Cd281 2.297 . S
O284 C286 1.247 . S
O285 Cd281 2.439 . S
O285 C286 1.208 . S
C286 O284 1.247 . S
C286 O285 1.208 . S
C287 O292 1.247 . S
C287 O293 1.208 . S
C288 O280 1.315 . S
C288 O283 1.279 . S
C289 O290 1.315 . S
C289 O291 1.279 . S
O290 Cd282 2.223 . S
O290 C289 1.315 . S
O291 Cd281 2.240 . S
O291 C289 1.279 . S
O292 Cd282 2.297 . S
O292 C287 1.247 . S
O293 Cd282 2.439 . S
O293 C287 1.208 . S
O294 Cd295 2.223 . S
O294 C302 1.315 . S
Cd295 O294 2.223 . S
Cd295 O298 2.297 . S
Cd295 O299 2.439 . S
Cd295 O305 2.240 . S
Cd296 O297 2.240 . S
Cd296 O304 2.223 . S
Cd296 O306 2.297 . S
Cd296 O307 2.439 . S
O297 Cd296 2.240 . S
O297 C302 1.279 . S
O298 Cd295 2.297 . S
O298 C300 1.247 . S
O299 Cd295 2.439 . S
O299 C300 1.208 . S
C300 O298 1.247 . S
C300 O299 1.208 . S
C301 O306 1.247 . S
C301 O307 1.208 . S
C302 O294 1.315 . S
C302 O297 1.279 . S
C303 O304 1.315 . S
C303 O305 1.279 . S
O304 Cd296 2.223 . S
O304 C303 1.315 . S
O305 Cd295 2.240 . S
O305 C303 1.279 . S
O306 Cd296 2.297 . S
O306 C301 1.247 . S
O307 Cd296 2.439 . S
O307 C301 1.208 . S
O308 Cd309 2.223 . S
O308 C316 1.315 . S
Cd309 O308 2.223 . S
Cd309 O312 2.297 . S
Cd309 O313 2.439 . S
Cd309 O319 2.240 . S
Cd310 O311 2.240 . S
Cd310 O318 2.223 . S
Cd310 O320 2.297 . S
Cd310 O321 2.439 . S
O311 Cd310 2.240 . S
O311 C316 1.279 . S
O312 Cd309 2.297 . S
O312 C314 1.247 . S
O313 Cd309 2.439 . S
O313 C314 1.208 . S
C314 O312 1.247 . S
C314 O313 1.208 . S
C315 O320 1.247 . S
C315 O321 1.208 . S
C316 O308 1.315 . S
C316 O311 1.279 . S
C317 O318 1.315 . S
C317 O319 1.279 . S
O318 Cd310 2.223 . S
O318 C317 1.315 . S
O319 Cd309 2.240 . S
O319 C317 1.279 . S
O320 Cd310 2.297 . S
O320 C315 1.247 . S
O321 Cd310 2.439 . S
O321 C315 1.208 . S
O322 Cd323 2.223 . S
O322 C330 1.315 . S
Cd323 O322 2.223 . S
Cd323 O326 2.297 . S
Cd323 O327 2.439 . S
Cd323 O333 2.240 . S
Cd324 O325 2.240 . S
Cd324 O332 2.223 . S
Cd324 O334 2.297 . S
Cd324 O335 2.439 . S
O325 Cd324 2.240 . S
O325 C330 1.279 . S
O326 Cd323 2.297 . S
O326 C328 1.247 . S
O327 Cd323 2.439 . S
O327 C328 1.208 . S
C328 O326 1.247 . S
C328 O327 1.208 . S
C329 O334 1.247 . S
C329 O335 1.208 . S
C330 O322 1.315 . S
C330 O325 1.279 . S
C331 O332 1.315 . S
C331 O333 1.279 . S
O332 Cd324 2.223 . S
O332 C331 1.315 . S
O333 Cd323 2.240 . S
O333 C331 1.279 . S
O334 Cd324 2.297 . S
O334 C329 1.247 . S
O335 Cd324 2.439 . S
O335 C329 1.208 . S
C336 C337 1.391 . S
C336 C338 1.394 . S
C336 H352 0.931 . S
C337 C336 1.391 . S
C337 C341 1.376 . S
C338 C336 1.394 . S
C338 C339 1.369 . S
C338 C342 1.531 . S
C339 C338 1.369 . S
C339 C340 1.410 . S
C339 C347 1.503 . S
C340 C339 1.410 . S
C340 C341 1.392 . S
C340 C343 1.511 . S
C341 C337 1.376 . S
C341 C340 1.392 . S
C341 H353 0.929 . S
C342 C338 1.531 . S
C342 H354 0.960 . S
C342 H355 0.962 . S
C342 H356 0.960 . S
C343 C340 1.511 . S
C343 H357 0.961 . S
C343 H358 0.961 . S
C343 H359 0.961 . S
C344 C345 1.370 . S
C344 C346 1.363 . S
C344 H360 0.931 . S
C345 C344 1.370 . S
C345 C349 1.408 . S
C346 C344 1.363 . S
C346 C347 1.370 . S
C346 C350 1.524 . S
C347 C339 1.503 . S
C347 C346 1.370 . S
C347 C348 1.403 . S
C348 C347 1.403 . S
C348 C349 1.404 . S
C348 C351 1.539 . S
C349 C345 1.408 . S
C349 C348 1.404 . S
C349 H361 0.930 . S
C350 C346 1.524 . S
C350 H362 0.956 . S
C350 H363 0.961 . S
C350 H364 0.961 . S
C351 C348 1.539 . S
C351 H365 0.958 . S
C351 H366 0.961 . S
C351 H367 0.960 . S
H352 C336 0.931 . S
H353 C341 0.929 . S
H354 C342 0.960 . S
H355 C342 0.962 . S
H356 C342 0.960 . S
H357 C343 0.961 . S
H358 C343 0.961 . S
H359 C343 0.961 . S
H360 C344 0.931 . S
H361 C349 0.930 . S
H362 C350 0.956 . S
H363 C350 0.961 . S
H364 C350 0.961 . S
H365 C351 0.958 . S
H366 C351 0.961 . S
H367 C351 0.960 . S
C368 C369 1.391 . S
C368 C370 1.394 . S
C368 H384 0.931 . S
C369 C368 1.391 . S
C369 C373 1.376 . S
C370 C368 1.394 . S
C370 C371 1.369 . S
C370 C374 1.531 . S
C371 C370 1.369 . S
C371 C372 1.410 . S
C371 C379 1.503 1_655 S
C372 C371 1.410 . S
C372 C373 1.392 . S
C372 C375 1.511 . S
C373 C369 1.376 . S
C373 C372 1.392 . S
C373 H385 0.929 . S
C374 C370 1.531 . S
C374 H386 0.960 1_655 S
C374 H387 0.962 . S
C374 H388 0.960 . S
C375 C372 1.511 . S
C375 H389 0.961 . S
C375 H390 0.961 1_655 S
C375 H391 0.961 . S
C376 C377 1.370 . S
C376 C378 1.363 . S
C376 H392 0.931 . S
C377 C376 1.370 . S
C377 C381 1.408 . S
C378 C376 1.363 . S
C378 C379 1.370 . S
C378 C382 1.524 . S
C379 C371 1.503 1_455 S
C379 C378 1.370 . S
C379 C380 1.403 . S
C380 C379 1.403 . S
C380 C381 1.404 . S
C380 C383 1.539 . S
C381 C377 1.408 . S
C381 C380 1.404 . S
C381 H393 0.930 . S
C382 C378 1.524 . S
C382 H394 0.956 . S
C382 H395 0.961 1_455 S
C382 H396 0.961 . S
C383 C380 1.539 . S
C383 H397 0.958 . S
C383 H398 0.961 . S
C383 H399 0.970 . S
H384 C368 0.931 . S
H385 C373 0.929 . S
H386 C374 0.960 1_455 S
H387 C374 0.962 . S
H388 C374 0.960 . S
H389 C375 0.961 . S
H390 C375 0.961 1_455 S
H391 C375 0.961 . S
H392 C376 0.931 . S
H393 C381 0.930 . S
H394 C382 0.956 . S
H395 C382 0.961 1_655 S
H396 C382 0.961 . S
H397 C383 0.958 . S
H398 C383 0.961 . S
H399 C383 0.970 . S
C400 C401 1.391 . S
C400 C402 1.394 . S
C400 H416 0.931 . S
C401 C400 1.391 . S
C401 C405 1.376 . S
C402 C400 1.394 . S
C402 C403 1.369 . S
C402 C406 1.531 . S
C403 C402 1.369 . S
C403 C404 1.410 . S
C403 C411 1.503 . S
C404 C403 1.410 . S
C404 C405 1.392 . S
C404 C407 1.511 . S
C405 C401 1.376 . S
C405 C404 1.392 . S
C405 H417 0.929 . S
C406 C402 1.531 . S
C406 H418 0.960 . S
C406 H419 0.962 . S
C406 H420 0.960 . S
C407 C404 1.511 . S
C407 H421 0.961 . S
C407 H422 0.961 . S
C407 H423 0.961 . S
C408 C409 1.370 . S
C408 C410 1.363 . S
C408 H424 0.931 . S
C409 C408 1.370 . S
C409 C413 1.408 . S
C410 C408 1.363 . S
C410 C411 1.370 . S
C410 C414 1.524 . S
C411 C403 1.503 . S
C411 C410 1.370 . S
C411 C412 1.403 . S
C412 C411 1.403 . S
C412 C413 1.404 . S
C412 C415 1.539 . S
C413 C409 1.408 . S
C413 C412 1.404 . S
C413 H425 0.930 . S
C414 C410 1.524 . S
C414 H426 0.956 . S
C414 H427 0.961 . S
C414 H428 0.961 . S
C415 C412 1.539 . S
C415 H429 0.958 . S
C415 H430 0.961 . S
C415 H431 0.960 . S
H416 C400 0.931 . S
H417 C405 0.929 . S
H418 C406 0.960 . S
H419 C406 0.962 . S
H420 C406 0.960 . S
H421 C407 0.961 . S
H422 C407 0.961 . S
H423 C407 0.961 . S
H424 C408 0.931 . S
H425 C413 0.930 . S
H426 C414 0.956 . S
H427 C414 0.961 . S
H428 C414 0.961 . S
H429 C415 0.958 . S
H430 C415 0.961 . S
H431 C415 0.960 . S
C432 C433 1.391 . S
C432 C434 1.394 . S
C432 H448 0.931 . S
C433 C432 1.391 . S
C433 C437 1.376 . S
C434 C432 1.394 . S
C434 C435 1.369 . S
C434 C438 1.531 . S
C435 C434 1.369 . S
C435 C436 1.410 . S
C435 C443 1.503 1_455 S
C436 C435 1.410 . S
C436 C437 1.392 . S
C436 C439 1.511 . S
C437 C433 1.376 . S
C437 C436 1.392 . S
C437 H449 0.929 . S
C438 C434 1.531 . S
C438 H450 0.960 1_455 S
C438 H451 0.962 . S
C438 H452 0.960 . S
C439 C436 1.511 . S
C439 H453 0.961 . S
C439 H454 0.961 1_455 S
C439 H455 0.961 . S
C440 C441 1.370 . S
C440 C442 1.363 . S
C440 H456 0.931 . S
C441 C440 1.370 . S
C441 C445 1.408 . S
C442 C440 1.363 . S
C442 C443 1.370 . S
C442 C446 1.524 . S
C443 C435 1.503 1_655 S
C443 C442 1.370 . S
C443 C444 1.403 . S
C444 C443 1.403 . S
C444 C445 1.404 . S
C444 C447 1.539 . S
C445 C441 1.408 . S
C445 C444 1.404 . S
C445 H457 0.930 . S
C446 C442 1.524 . S
C446 H458 0.956 . S
C446 H459 0.961 1_655 S
C446 H460 0.961 . S
C447 C444 1.539 . S
C447 H461 0.958 . S
C447 H462 0.961 . S
C447 H463 0.970 . S
H448 C432 0.931 . S
H449 C437 0.929 . S
H450 C438 0.960 1_655 S
H451 C438 0.962 . S
H452 C438 0.960 . S
H453 C439 0.961 . S
H454 C439 0.961 1_655 S
H455 C439 0.961 . S
H456 C440 0.931 . S
H457 C445 0.930 . S
H458 C446 0.956 . S
H459 C446 0.961 1_455 S
H460 C446 0.961 . S
H461 C447 0.958 . S
H462 C447 0.961 . S
H463 C447 0.970 . S
C464 C465 1.391 . S
C464 C466 1.394 . S
C464 H480 0.931 . S
C465 C464 1.391 . S
C465 C469 1.376 . S
C466 C464 1.394 . S
C466 C467 1.369 . S
C466 C470 1.531 . S
C467 C466 1.369 . S
C467 C468 1.410 . S
C467 C475 1.503 . S
C468 C467 1.410 . S
C468 C469 1.392 . S
C468 C471 1.511 . S
C469 C465 1.376 . S
C469 C468 1.392 . S
C469 H481 0.929 . S
C470 C466 1.531 . S
C470 H482 0.960 . S
C470 H483 0.962 . S
C470 H484 0.960 . S
C471 C468 1.511 . S
C471 H485 0.961 . S
C471 H486 0.961 . S
C471 H487 0.961 . S
C472 C473 1.370 . S
C472 C474 1.363 . S
C472 H488 0.931 . S
C473 C472 1.370 . S
C473 C477 1.408 . S
C474 C472 1.363 . S
C474 C475 1.370 . S
C474 C478 1.524 . S
C475 C467 1.503 . S
C475 C474 1.370 . S
C475 C476 1.403 . S
C476 C475 1.403 . S
C476 C477 1.404 . S
C476 C479 1.539 . S
C477 C473 1.408 . S
C477 C476 1.404 . S
C477 H489 0.930 . S
C478 C474 1.524 . S
C478 H490 0.956 . S
C478 H491 0.961 . S
C478 H492 0.961 . S
C479 C476 1.539 . S
C479 H493 0.958 . S
C479 H494 0.961 . S
C479 H495 0.960 . S
H480 C464 0.931 . S
H481 C469 0.929 . S
H482 C470 0.960 . S
H483 C470 0.962 . S
H484 C470 0.960 . S
H485 C471 0.961 . S
H486 C471 0.961 . S
H487 C471 0.961 . S
H488 C472 0.931 . S
H489 C477 0.930 . S
H490 C478 0.956 . S
H491 C478 0.961 . S
H492 C478 0.961 . S
H493 C479 0.958 . S
H494 C479 0.961 . S
H495 C479 0.960 . S
C496 C497 1.391 . S
C496 C498 1.394 . S
C496 H512 0.931 . S
C497 C496 1.391 . S
C497 C501 1.376 . S
C498 C496 1.394 . S
C498 C499 1.369 . S
C498 C502 1.531 . S
C499 C498 1.369 . S
C499 C500 1.410 . S
C499 C507 1.503 1_655 S
C500 C499 1.410 . S
C500 C501 1.392 . S
C500 C503 1.511 . S
C501 C497 1.376 . S
C501 C500 1.392 . S
C501 H513 0.929 . S
C502 C498 1.531 . S
C502 H514 0.960 1_655 S
C502 H515 0.962 . S
C502 H516 0.960 . S
C503 C500 1.511 . S
C503 H517 0.961 . S
C503 H518 0.961 1_655 S
C503 H519 0.961 . S
C504 C505 1.370 . S
C504 C506 1.363 . S
C504 H520 0.931 . S
C505 C504 1.370 . S
C505 C509 1.408 . S
C506 C504 1.363 . S
C506 C507 1.370 . S
C506 C510 1.524 . S
C507 C499 1.503 1_455 S
C507 C506 1.370 . S
C507 C508 1.403 . S
C508 C507 1.403 . S
C508 C509 1.404 . S
C508 C511 1.539 . S
C509 C505 1.408 . S
C509 C508 1.404 . S
C509 H521 0.930 . S
C510 C506 1.524 . S
C510 H522 0.956 . S
C510 H523 0.961 1_455 S
C510 H524 0.961 . S
C511 C508 1.539 . S
C511 H525 0.958 . S
C511 H526 0.961 . S
C511 H527 0.970 . S
H512 C496 0.931 . S
H513 C501 0.929 . S
H514 C502 0.960 1_455 S
H515 C502 0.962 . S
H516 C502 0.960 . S
H517 C503 0.961 . S
H518 C503 0.961 1_455 S
H519 C503 0.961 . S
H520 C504 0.931 . S
H521 C509 0.930 . S
H522 C510 0.956 . S
H523 C510 0.961 1_655 S
H524 C510 0.961 . S
H525 C511 0.958 . S
H526 C511 0.961 . S
H527 C511 0.970 . S
C528 C529 1.391 . S
C528 C530 1.394 . S
C528 H544 0.931 . S
C529 C528 1.391 . S
C529 C533 1.376 . S
C530 C528 1.394 . S
C530 C531 1.369 . S
C530 C534 1.531 . S
C531 C530 1.369 . S
C531 C532 1.410 . S
C531 C539 1.503 . S
C532 C531 1.410 . S
C532 C533 1.392 . S
C532 C535 1.511 . S
C533 C529 1.376 . S
C533 C532 1.392 . S
C533 H545 0.929 . S
C534 C530 1.531 . S
C534 H546 0.960 . S
C534 H547 0.962 . S
C534 H548 0.960 . S
C535 C532 1.511 . S
C535 H549 0.961 . S
C535 H550 0.961 . S
C535 H551 0.961 . S
C536 C537 1.370 . S
C536 C538 1.363 . S
C536 H552 0.931 . S
C537 C536 1.370 . S
C537 C541 1.408 . S
C538 C536 1.363 . S
C538 C539 1.370 . S
C538 C542 1.524 . S
C539 C531 1.503 . S
C539 C538 1.370 . S
C539 C540 1.403 . S
C540 C539 1.403 . S
C540 C541 1.404 . S
C540 C543 1.539 . S
C541 C537 1.408 . S
C541 C540 1.404 . S
C541 H553 0.930 . S
C542 C538 1.524 . S
C542 H554 0.956 . S
C542 H555 0.961 . S
C542 H556 0.961 . S
C543 C540 1.539 . S
C543 H557 0.958 . S
C543 H558 0.961 . S
C543 H559 0.960 . S
H544 C528 0.931 . S
H545 C533 0.929 . S
H546 C534 0.960 . S
H547 C534 0.962 . S
H548 C534 0.960 . S
H549 C535 0.961 . S
H550 C535 0.961 . S
H551 C535 0.961 . S
H552 C536 0.931 . S
H553 C541 0.930 . S
H554 C542 0.956 . S
H555 C542 0.961 . S
H556 C542 0.961 . S
H557 C543 0.958 . S
H558 C543 0.961 . S
H559 C543 0.960 . S
C560 C561 1.391 . S
C560 C562 1.394 . S
C560 H576 0.931 . S
C561 C560 1.391 . S
C561 C565 1.376 . S
C562 C560 1.394 . S
C562 C563 1.369 . S
C562 C566 1.531 . S
C563 C562 1.369 . S
C563 C564 1.410 . S
C563 C571 1.503 1_655 S
C564 C563 1.410 . S
C564 C565 1.392 . S
C564 C567 1.511 . S
C565 C561 1.376 . S
C565 C564 1.392 . S
C565 H577 0.929 . S
C566 C562 1.531 . S
C566 H578 0.960 1_655 S
C566 H579 0.962 . S
C566 H580 0.960 . S
C567 C564 1.511 . S
C567 H581 0.961 . S
C567 H582 0.961 1_655 S
C567 H583 0.961 . S
C568 C569 1.370 . S
C568 C570 1.363 . S
C568 H584 0.931 . S
C569 C568 1.370 . S
C569 C573 1.408 . S
C570 C568 1.363 . S
C570 C571 1.370 . S
C570 C574 1.524 . S
C571 C563 1.503 1_455 S
C571 C570 1.370 . S
C571 C572 1.403 . S
C572 C571 1.403 . S
C572 C573 1.404 . S
C572 C575 1.539 . S
C573 C569 1.408 . S
C573 C572 1.404 . S
C573 H585 0.930 . S
C574 C570 1.524 . S
C574 H586 0.956 . S
C574 H587 0.961 1_455 S
C574 H588 0.961 . S
C575 C572 1.539 . S
C575 H589 0.958 . S
C575 H590 0.961 . S
C575 H591 0.970 . S
H576 C560 0.931 . S
H577 C565 0.929 . S
H578 C566 0.960 1_455 S
H579 C566 0.962 . S
H580 C566 0.960 . S
H581 C567 0.961 . S
H582 C567 0.961 1_455 S
H583 C567 0.961 . S
H584 C568 0.931 . S
H585 C573 0.930 . S
H586 C574 0.956 . S
H587 C574 0.961 1_655 S
H588 C574 0.961 . S
H589 C575 0.958 . S
H590 C575 0.961 . S
H591 C575 0.970 . S
C592 C593 1.391 . S
C592 C594 1.394 . S
C592 H608 0.931 . S
C593 C592 1.391 . S
C593 C597 1.376 . S
C594 C592 1.394 . S
C594 C595 1.369 . S
C594 C598 1.531 . S
C595 C594 1.369 . S
C595 C596 1.410 . S
C595 C603 1.503 . S
C596 C595 1.410 . S
C596 C597 1.392 . S
C596 C599 1.511 . S
C597 C593 1.376 . S
C597 C596 1.392 . S
C597 H609 0.929 . S
C598 C594 1.531 . S
C598 H610 0.960 . S
C598 H611 0.962 . S
C598 H612 0.960 . S
C599 C596 1.511 . S
C599 H613 0.961 . S
C599 H614 0.961 . S
C599 H615 0.961 . S
C600 C601 1.370 . S
C600 C602 1.363 . S
C600 H616 0.931 . S
C601 C600 1.370 . S
C601 C605 1.408 . S
C602 C600 1.363 . S
C602 C603 1.370 . S
C602 C606 1.524 . S
C603 C595 1.503 . S
C603 C602 1.370 . S
C603 C604 1.403 . S
C604 C603 1.403 . S
C604 C605 1.404 . S
C604 C607 1.539 . S
C605 C601 1.408 . S
C605 C604 1.404 . S
C605 H617 0.930 . S
C606 C602 1.524 . S
C606 H618 0.956 . S
C606 H619 0.961 . S
C606 H620 0.961 . S
C607 C604 1.539 . S
C607 H621 0.958 . S
C607 H622 0.961 . S
C607 H623 0.960 . S
H608 C592 0.931 . S
H609 C597 0.929 . S
H610 C598 0.960 . S
H611 C598 0.962 . S
H612 C598 0.960 . S
H613 C599 0.961 . S
H614 C599 0.961 . S
H615 C599 0.961 . S
H616 C600 0.931 . S
H617 C605 0.930 . S
H618 C606 0.956 . S
H619 C606 0.961 . S
H620 C606 0.961 . S
H621 C607 0.958 . S
H622 C607 0.961 . S
H623 C607 0.960 . S
C624 C625 1.391 . S
C624 C626 1.394 . S
C624 H640 0.931 . S
C625 C624 1.391 . S
C625 C629 1.376 . S
C626 C624 1.394 . S
C626 C627 1.369 . S
C626 C630 1.531 . S
C627 C626 1.369 . S
C627 C628 1.410 . S
C627 C635 1.503 1_556 S
C628 C627 1.410 . S
C628 C629 1.392 . S
C628 C631 1.511 . S
C629 C625 1.376 . S
C629 C628 1.392 . S
C629 H641 0.929 . S
C630 C626 1.531 . S
C630 H642 0.960 1_556 S
C630 H643 0.962 . S
C630 H644 0.960 . S
C631 C628 1.511 . S
C631 H645 0.961 . S
C631 H646 0.961 1_556 S
C631 H647 0.961 . S
C632 C633 1.370 . S
C632 C634 1.363 . S
C632 H648 0.931 . S
C633 C632 1.370 . S
C633 C637 1.408 . S
C634 C632 1.363 . S
C634 C635 1.370 . S
C634 C638 1.524 . S
C635 C627 1.503 1_554 S
C635 C634 1.370 . S
C635 C636 1.403 . S
C636 C635 1.403 . S
C636 C637 1.404 . S
C636 C639 1.539 . S
C637 C633 1.408 . S
C637 C636 1.404 . S
C637 H649 0.930 . S
C638 C634 1.524 . S
C638 H650 0.956 . S
C638 H651 0.961 1_554 S
C638 H652 0.961 . S
C639 C636 1.539 . S
C639 H653 0.958 . S
C639 H654 0.961 . S
C639 H655 0.970 . S
H640 C624 0.931 . S
H641 C629 0.929 . S
H642 C630 0.960 1_554 S
H643 C630 0.962 . S
H644 C630 0.960 . S
H645 C631 0.961 . S
H646 C631 0.961 1_554 S
H647 C631 0.961 . S
H648 C632 0.931 . S
H649 C637 0.930 . S
H650 C638 0.956 . S
H651 C638 0.961 1_556 S
H652 C638 0.961 . S
H653 C639 0.958 . S
H654 C639 0.961 . S
H655 C639 0.970 . S
C656 C657 1.391 . S
C656 C658 1.394 . S
C656 H672 0.931 . S
C657 C656 1.391 . S
C657 C661 1.376 . S
C658 C656 1.394 . S
C658 C659 1.369 . S
C658 C662 1.531 . S
C659 C658 1.369 . S
C659 C660 1.410 . S
C659 C667 1.503 . S
C660 C659 1.410 . S
C660 C661 1.392 . S
C660 C663 1.511 . S
C661 C657 1.376 . S
C661 C660 1.392 . S
C661 H673 0.929 . S
C662 C658 1.531 . S
C662 H674 0.960 . S
C662 H675 0.962 . S
C662 H676 0.960 . S
C663 C660 1.511 . S
C663 H677 0.961 . S
C663 H678 0.961 . S
C663 H679 0.961 . S
C664 C665 1.370 . S
C664 C666 1.363 . S
C664 H680 0.931 . S
C665 C664 1.370 . S
C665 C669 1.408 . S
C666 C664 1.363 . S
C666 C667 1.370 . S
C666 C670 1.524 . S
C667 C659 1.503 . S
C667 C666 1.370 . S
C667 C668 1.403 . S
C668 C667 1.403 . S
C668 C669 1.404 . S
C668 C671 1.539 . S
C669 C665 1.408 . S
C669 C668 1.404 . S
C669 H681 0.930 . S
C670 C666 1.524 . S
C670 H682 0.956 . S
C670 H683 0.961 . S
C670 H684 0.961 . S
C671 C668 1.539 . S
C671 H685 0.958 . S
C671 H686 0.961 . S
C671 H687 0.960 . S
H672 C656 0.931 . S
H673 C661 0.929 . S
H674 C662 0.960 . S
H675 C662 0.962 . S
H676 C662 0.960 . S
H677 C663 0.961 . S
H678 C663 0.961 . S
H679 C663 0.961 . S
H680 C664 0.931 . S
H681 C669 0.930 . S
H682 C670 0.956 . S
H683 C670 0.961 . S
H684 C670 0.961 . S
H685 C671 0.958 . S
H686 C671 0.961 . S
H687 C671 0.960 . S
C688 C689 1.391 . S
C688 C690 1.394 . S
C688 H704 0.931 . S
C689 C688 1.391 . S
C689 C693 1.376 . S
C690 C688 1.394 . S
C690 C691 1.369 . S
C690 C694 1.531 . S
C691 C690 1.369 . S
C691 C692 1.410 . S
C691 C699 1.503 1_554 S
C692 C691 1.410 . S
C692 C693 1.392 . S
C692 C695 1.511 . S
C693 C689 1.376 . S
C693 C692 1.392 . S
C693 H705 0.929 . S
C694 C690 1.531 . S
C694 H706 0.960 1_554 S
C694 H707 0.962 . S
C694 H708 0.960 . S
C695 C692 1.511 . S
C695 H709 0.961 . S
C695 H710 0.961 1_554 S
C695 H711 0.961 . S
C696 C697 1.370 . S
C696 C698 1.363 . S
C696 H712 0.931 . S
C697 C696 1.370 . S
C697 C701 1.408 . S
C698 C696 1.363 . S
C698 C699 1.370 . S
C698 C702 1.524 . S
C699 C691 1.503 1_556 S
C699 C698 1.370 . S
C699 C700 1.403 . S
C700 C699 1.403 . S
C700 C701 1.404 . S
C700 C703 1.539 . S
C701 C697 1.408 . S
C701 C700 1.404 . S
C701 H713 0.930 . S
C702 C698 1.524 . S
C702 H714 0.956 . S
C702 H715 0.961 1_556 S
C702 H716 0.961 . S
C703 C700 1.539 . S
C703 H717 0.958 . S
C703 H718 0.961 . S
C703 H719 0.970 . S
H704 C688 0.931 . S
H705 C693 0.929 . S
H706 C694 0.960 1_556 S
H707 C694 0.962 . S
H708 C694 0.960 . S
H709 C695 0.961 . S
H710 C695 0.961 1_556 S
H711 C695 0.961 . S
H712 C696 0.931 . S
H713 C701 0.930 . S
H714 C702 0.956 . S
H715 C702 0.961 1_554 S
H716 C702 0.961 . S
H717 C703 0.958 . S
H718 C703 0.961 . S
H719 C703 0.970 . S
C720 C721 1.391 . S
C720 C722 1.394 . S
C720 H736 0.931 . S
C721 C720 1.391 . S
C721 C725 1.376 . S
C722 C720 1.394 . S
C722 C723 1.369 . S
C722 C726 1.531 . S
C723 C722 1.369 . S
C723 C724 1.410 . S
C723 C731 1.503 . S
C724 C723 1.410 . S
C724 C725 1.392 . S
C724 C727 1.511 . S
C725 C721 1.376 . S
C725 C724 1.392 . S
C725 H737 0.929 . S
C726 C722 1.531 . S
C726 H738 0.960 . S
C726 H739 0.962 . S
C726 H740 0.960 . S
C727 C724 1.511 . S
C727 H741 0.961 . S
C727 H742 0.961 . S
C727 H743 0.961 . S
C728 C729 1.370 . S
C728 C730 1.363 . S
C728 H744 0.931 . S
C729 C728 1.370 . S
C729 C733 1.408 . S
C730 C728 1.363 . S
C730 C731 1.370 . S
C730 C734 1.524 . S
C731 C723 1.503 . S
C731 C730 1.370 . S
C731 C732 1.403 . S
C732 C731 1.403 . S
C732 C733 1.404 . S
C732 C735 1.539 . S
C733 C729 1.408 . S
C733 C732 1.404 . S
C733 H745 0.930 . S
C734 C730 1.524 . S
C734 H746 0.956 . S
C734 H747 0.961 . S
C734 H748 0.961 . S
C735 C732 1.539 . S
C735 H749 0.958 . S
C735 H750 0.961 . S
C735 H751 0.960 . S
H736 C720 0.931 . S
H737 C725 0.929 . S
H738 C726 0.960 . S
H739 C726 0.962 . S
H740 C726 0.960 . S
H741 C727 0.961 . S
H742 C727 0.961 . S
H743 C727 0.961 . S
H744 C728 0.931 . S
H745 C733 0.930 . S
H746 C734 0.956 . S
H747 C734 0.961 . S
H748 C734 0.961 . S
H749 C735 0.958 . S
H750 C735 0.961 . S
H751 C735 0.960 . S
C752 C753 1.391 . S
C752 C754 1.394 . S
C752 H768 0.931 . S
C753 C752 1.391 . S
C753 C757 1.376 . S
C754 C752 1.394 . S
C754 C755 1.369 . S
C754 C758 1.531 . S
C755 C754 1.369 . S
C755 C756 1.410 . S
C755 C763 1.503 1_554 S
C756 C755 1.410 . S
C756 C757 1.392 . S
C756 C759 1.511 . S
C757 C753 1.376 . S
C757 C756 1.392 . S
C757 H769 0.929 . S
C758 C754 1.531 . S
C758 H770 0.960 1_554 S
C758 H771 0.962 . S
C758 H772 0.960 . S
C759 C756 1.511 . S
C759 H773 0.961 . S
C759 H774 0.961 1_554 S
C759 H775 0.961 . S
C760 C761 1.370 . S
C760 C762 1.363 . S
C760 H776 0.931 . S
C761 C760 1.370 . S
C761 C765 1.408 . S
C762 C760 1.363 . S
C762 C763 1.370 . S
C762 C766 1.524 . S
C763 C755 1.503 1_556 S
C763 C762 1.370 . S
C763 C764 1.403 . S
C764 C763 1.403 . S
C764 C765 1.404 . S
C764 C767 1.539 . S
C765 C761 1.408 . S
C765 C764 1.404 . S
C765 H777 0.930 . S
C766 C762 1.524 . S
C766 H778 0.956 . S
C766 H779 0.961 1_556 S
C766 H780 0.961 . S
C767 C764 1.539 . S
C767 H781 0.958 . S
C767 H782 0.961 . S
C767 H783 0.970 . S
H768 C752 0.931 . S
H769 C757 0.929 . S
H770 C758 0.960 1_556 S
H771 C758 0.962 . S
H772 C758 0.960 . S
H773 C759 0.961 . S
H774 C759 0.961 1_556 S
H775 C759 0.961 . S
H776 C760 0.931 . S
H777 C765 0.930 . S
H778 C766 0.956 . S
H779 C766 0.961 1_554 S
H780 C766 0.961 . S
H781 C767 0.958 . S
H782 C767 0.961 . S
H783 C767 0.970 . S
C784 C785 1.391 . S
C784 C786 1.394 . S
C784 H800 0.931 . S
C785 C784 1.391 . S
C785 C789 1.376 . S
C786 C784 1.394 . S
C786 C787 1.369 . S
C786 C790 1.531 . S
C787 C786 1.369 . S
C787 C788 1.410 . S
C787 C795 1.503 . S
C788 C787 1.410 . S
C788 C789 1.392 . S
C788 C791 1.511 . S
C789 C785 1.376 . S
C789 C788 1.392 . S
C789 H801 0.929 . S
C790 C786 1.531 . S
C790 H802 0.960 . S
C790 H803 0.962 . S
C790 H804 0.960 . S
C791 C788 1.511 . S
C791 H805 0.961 . S
C791 H806 0.961 . S
C791 H807 0.961 . S
C792 C793 1.370 . S
C792 C794 1.363 . S
C792 H808 0.931 . S
C793 C792 1.370 . S
C793 C797 1.408 . S
C794 C792 1.363 . S
C794 C795 1.370 . S
C794 C798 1.524 . S
C795 C787 1.503 . S
C795 C794 1.370 . S
C795 C796 1.403 . S
C796 C795 1.403 . S
C796 C797 1.404 . S
C796 C799 1.539 . S
C797 C793 1.408 . S
C797 C796 1.404 . S
C797 H809 0.930 . S
C798 C794 1.524 . S
C798 H810 0.956 . S
C798 H811 0.961 . S
C798 H812 0.961 . S
C799 C796 1.539 . S
C799 H813 0.958 . S
C799 H814 0.961 . S
C799 H815 0.960 . S
H800 C784 0.931 . S
H801 C789 0.929 . S
H802 C790 0.960 . S
H803 C790 0.962 . S
H804 C790 0.960 . S
H805 C791 0.961 . S
H806 C791 0.961 . S
H807 C791 0.961 . S
H808 C792 0.931 . S
H809 C797 0.930 . S
H810 C798 0.956 . S
H811 C798 0.961 . S
H812 C798 0.961 . S
H813 C799 0.958 . S
H814 C799 0.961 . S
H815 C799 0.960 . S
C816 C817 1.391 . S
C816 C818 1.394 . S
C816 H832 0.931 . S
C817 C816 1.391 . S
C817 C821 1.376 . S
C818 C816 1.394 . S
C818 C819 1.369 . S
C818 C822 1.531 . S
C819 C818 1.369 . S
C819 C820 1.410 . S
C819 C827 1.503 1_554 S
C820 C819 1.410 . S
C820 C821 1.392 . S
C820 C823 1.511 . S
C821 C817 1.376 . S
C821 C820 1.392 . S
C821 H833 0.929 . S
C822 C818 1.531 . S
C822 H834 0.960 1_554 S
C822 H835 0.962 . S
C822 H836 0.960 . S
C823 C820 1.511 . S
C823 H837 0.961 . S
C823 H838 0.961 1_554 S
C823 H839 0.961 . S
C824 C825 1.370 . S
C824 C826 1.363 . S
C824 H840 0.931 . S
C825 C824 1.370 . S
C825 C829 1.408 . S
C826 C824 1.363 . S
C826 C827 1.370 . S
C826 C830 1.524 . S
C827 C819 1.503 1_556 S
C827 C826 1.370 . S
C827 C828 1.403 . S
C828 C827 1.403 . S
C828 C829 1.404 . S
C828 C831 1.539 . S
C829 C825 1.408 . S
C829 C828 1.404 . S
C829 H841 0.930 . S
C830 C826 1.524 . S
C830 H842 0.956 . S
C830 H843 0.961 1_556 S
C830 H844 0.961 . S
C831 C828 1.539 . S
C831 H845 0.958 . S
C831 H846 0.961 . S
C831 H847 0.970 . S
H832 C816 0.931 . S
H833 C821 0.929 . S
H834 C822 0.960 1_556 S
H835 C822 0.962 . S
H836 C822 0.960 . S
H837 C823 0.961 . S
H838 C823 0.961 1_556 S
H839 C823 0.961 . S
H840 C824 0.931 . S
H841 C829 0.930 . S
H842 C830 0.956 . S
H843 C830 0.961 1_554 S
H844 C830 0.961 . S
H845 C831 0.958 . S
H846 C831 0.961 . S
H847 C831 0.970 . S
C848 C849 1.391 . S
C848 C850 1.394 . S
C848 H864 0.931 . S
C849 C848 1.391 . S
C849 C853 1.376 . S
C850 C848 1.394 . S
C850 C851 1.369 . S
C850 C854 1.531 . S
C851 C850 1.369 . S
C851 C852 1.410 . S
C851 C859 1.503 . S
C852 C851 1.410 . S
C852 C853 1.392 . S
C852 C855 1.511 . S
C853 C849 1.376 . S
C853 C852 1.392 . S
C853 H865 0.929 . S
C854 C850 1.531 . S
C854 H866 0.960 . S
C854 H867 0.962 . S
C854 H868 0.960 . S
C855 C852 1.511 . S
C855 H869 0.961 . S
C855 H870 0.961 . S
C855 H871 0.961 . S
C856 C857 1.370 . S
C856 C858 1.363 . S
C856 H872 0.931 . S
C857 C856 1.370 . S
C857 C861 1.408 . S
C858 C856 1.363 . S
C858 C859 1.370 . S
C858 C862 1.524 . S
C859 C851 1.503 . S
C859 C858 1.370 . S
C859 C860 1.403 . S
C860 C859 1.403 . S
C860 C861 1.404 . S
C860 C863 1.539 . S
C861 C857 1.408 . S
C861 C860 1.404 . S
C861 H873 0.930 . S
C862 C858 1.524 . S
C862 H874 0.956 . S
C862 H875 0.961 . S
C862 H876 0.961 . S
C863 C860 1.539 . S
C863 H877 0.958 . S
C863 H878 0.961 . S
C863 H879 0.960 . S
H864 C848 0.931 . S
H865 C853 0.929 . S
H866 C854 0.960 . S
H867 C854 0.962 . S
H868 C854 0.960 . S
H869 C855 0.961 . S
H870 C855 0.961 . S
H871 C855 0.961 . S
H872 C856 0.931 . S
H873 C861 0.930 . S
H874 C862 0.956 . S
H875 C862 0.961 . S
H876 C862 0.961 . S
H877 C863 0.958 . S
H878 C863 0.961 . S
H879 C863 0.960 . S
C880 C881 1.391 . S
C880 C882 1.394 . S
C880 H896 0.931 . S
C881 C880 1.391 . S
C881 C885 1.376 . S
C882 C880 1.394 . S
C882 C883 1.369 . S
C882 C886 1.531 . S
C883 C882 1.369 . S
C883 C884 1.410 . S
C883 C891 1.503 . S
C884 C883 1.410 . S
C884 C885 1.392 . S
C884 C887 1.511 . S
C885 C881 1.376 . S
C885 C884 1.392 . S
C885 H897 0.929 . S
C886 C882 1.531 . S
C886 H898 0.960 . S
C886 H899 0.962 . S
C886 H900 0.960 . S
C887 C884 1.511 . S
C887 H901 0.961 . S
C887 H902 0.961 . S
C887 H903 0.961 . S
C888 C889 1.370 . S
C888 C890 1.363 . S
C888 H904 0.931 . S
C889 C888 1.370 . S
C889 C893 1.408 . S
C890 C888 1.363 . S
C890 C891 1.370 . S
C890 C894 1.524 . S
C891 C883 1.503 . S
C891 C890 1.370 . S
C891 C892 1.403 . S
C892 C891 1.403 . S
C892 C893 1.404 . S
C892 C895 1.539 . S
C893 C889 1.408 . S
C893 C892 1.404 . S
C893 H905 0.930 . S
C894 C890 1.524 . S
C894 H906 0.956 . S
C894 H907 0.961 . S
C894 H908 0.961 . S
C895 C892 1.539 . S
C895 H909 0.958 . S
C895 H910 0.961 . S
C895 H911 0.960 . S
H896 C880 0.931 . S
H897 C885 0.929 . S
H898 C886 0.960 . S
H899 C886 0.962 . S
H900 C886 0.960 . S
H901 C887 0.961 . S
H902 C887 0.961 . S
H903 C887 0.961 . S
H904 C888 0.931 . S
H905 C893 0.930 . S
H906 C894 0.956 . S
H907 C894 0.961 . S
H908 C894 0.961 . S
H909 C895 0.958 . S
H910 C895 0.961 . S
H911 C895 0.960 . S
C912 C913 1.391 . S
C912 C914 1.394 . S
C912 H928 0.931 . S
C913 C912 1.391 . S
C913 C917 1.376 . S
C914 C912 1.394 . S
C914 C915 1.369 . S
C914 C918 1.531 . S
C915 C914 1.369 . S
C915 C916 1.410 . S
C915 C923 1.503 1_565 S
C916 C915 1.410 . S
C916 C917 1.392 . S
C916 C919 1.511 . S
C917 C913 1.376 . S
C917 C916 1.392 . S
C917 H929 0.929 . S
C918 C914 1.531 . S
C918 H930 0.960 1_565 S
C918 H931 0.962 . S
C918 H932 0.960 . S
C919 C916 1.511 . S
C919 H933 0.961 . S
C919 H934 0.961 1_565 S
C919 H935 0.961 . S
C920 C921 1.370 . S
C920 C922 1.363 . S
C920 H936 0.931 . S
C921 C920 1.370 . S
C921 C925 1.408 . S
C922 C920 1.363 . S
C922 C923 1.370 . S
C922 C926 1.524 . S
C923 C915 1.503 1_545 S
C923 C922 1.370 . S
C923 C924 1.403 . S
C924 C923 1.403 . S
C924 C925 1.404 . S
C924 C927 1.539 . S
C925 C921 1.408 . S
C925 C924 1.404 . S
C925 H937 0.930 . S
C926 C922 1.524 . S
C926 H938 0.956 . S
C926 H939 0.961 1_545 S
C926 H940 0.961 . S
C927 C924 1.539 . S
C927 H941 0.958 . S
C927 H942 0.961 . S
C927 H943 0.970 . S
H928 C912 0.931 . S
H929 C917 0.929 . S
H930 C918 0.960 1_545 S
H931 C918 0.962 . S
H932 C918 0.960 . S
H933 C919 0.961 . S
H934 C919 0.961 1_545 S
H935 C919 0.961 . S
H936 C920 0.931 . S
H937 C925 0.930 . S
H938 C926 0.956 . S
H939 C926 0.961 1_565 S
H940 C926 0.961 . S
H941 C927 0.958 . S
H942 C927 0.961 . S
H943 C927 0.970 . S
C944 C945 1.391 . S
C944 C946 1.394 . S
C944 H960 0.931 . S
C945 C944 1.391 . S
C945 C949 1.376 . S
C946 C944 1.394 . S
C946 C947 1.369 . S
C946 C950 1.531 . S
C947 C946 1.369 . S
C947 C948 1.410 . S
C947 C955 1.503 . S
C948 C947 1.410 . S
C948 C949 1.392 . S
C948 C951 1.511 . S
C949 C945 1.376 . S
C949 C948 1.392 . S
C949 H961 0.929 . S
C950 C946 1.531 . S
C950 H962 0.960 . S
C950 H963 0.962 . S
C950 H964 0.960 . S
C951 C948 1.511 . S
C951 H965 0.961 . S
C951 H966 0.961 . S
C951 H967 0.961 . S
C952 C953 1.370 . S
C952 C954 1.363 . S
C952 H968 0.931 . S
C953 C952 1.370 . S
C953 C957 1.408 . S
C954 C952 1.363 . S
C954 C955 1.370 . S
C954 C958 1.524 . S
C955 C947 1.503 . S
C955 C954 1.370 . S
C955 C956 1.403 . S
C956 C955 1.403 . S
C956 C957 1.404 . S
C956 C959 1.539 . S
C957 C953 1.408 . S
C957 C956 1.404 . S
C957 H969 0.930 . S
C958 C954 1.524 . S
C958 H970 0.956 . S
C958 H971 0.961 . S
C958 H972 0.961 . S
C959 C956 1.539 . S
C959 H973 0.958 . S
C959 H974 0.961 . S
C959 H975 0.960 . S
H960 C944 0.931 . S
H961 C949 0.929 . S
H962 C950 0.960 . S
H963 C950 0.962 . S
H964 C950 0.960 . S
H965 C951 0.961 . S
H966 C951 0.961 . S
H967 C951 0.961 . S
H968 C952 0.931 . S
H969 C957 0.930 . S
H970 C958 0.956 . S
H971 C958 0.961 . S
H972 C958 0.961 . S
H973 C959 0.958 . S
H974 C959 0.961 . S
H975 C959 0.960 . S
C976 C977 1.391 . S
C976 C978 1.394 . S
C976 H992 0.931 . S
C977 C976 1.391 . S
C977 C981 1.376 . S
C978 C976 1.394 . S
C978 C979 1.369 . S
C978 C982 1.531 . S
C979 C978 1.369 . S
C979 C980 1.410 . S
C979 C987 1.503 1_565 S
C980 C979 1.410 . S
C980 C981 1.392 . S
C980 C983 1.511 . S
C981 C977 1.376 . S
C981 C980 1.392 . S
C981 H993 0.929 . S
C982 C978 1.531 . S
C982 H994 0.960 1_565 S
C982 H995 0.962 . S
C982 H996 0.960 . S
C983 C980 1.511 . S
C983 H997 0.961 . S
C983 H998 0.961 1_565 S
C983 H999 0.961 . S
C984 C985 1.370 . S
C984 C986 1.363 . S
C984 H1000 0.931 . S
C985 C984 1.370 . S
C985 C989 1.408 . S
C986 C984 1.363 . S
C986 C987 1.370 . S
C986 C990 1.524 . S
C987 C979 1.503 1_545 S
C987 C986 1.370 . S
C987 C988 1.403 . S
C988 C987 1.403 . S
C988 C989 1.404 . S
C988 C991 1.539 . S
C989 C985 1.408 . S
C989 C988 1.404 . S
C989 H1001 0.930 . S
C990 C986 1.524 . S
C990 H1002 0.956 . S
C990 H1003 0.961 1_545 S
C990 H1004 0.961 . S
C991 C988 1.539 . S
C991 H1005 0.958 . S
C991 H1006 0.961 . S
C991 H1007 0.970 . S
H992 C976 0.931 . S
H993 C981 0.929 . S
H994 C982 0.960 1_545 S
H995 C982 0.962 . S
H996 C982 0.960 . S
H997 C983 0.961 . S
H998 C983 0.961 1_545 S
H999 C983 0.961 . S
H1000 C984 0.931 . S
H1001 C989 0.930 . S
H1002 C990 0.956 . S
H1003 C990 0.961 1_565 S
H1004 C990 0.961 . S
H1005 C991 0.958 . S
H1006 C991 0.961 . S
H1007 C991 0.970 . S
C1008 C1009 1.391 . S
C1008 C1010 1.394 . S
C1008 H1024 0.931 . S
C1009 C1008 1.391 . S
C1009 C1013 1.376 . S
C1010 C1008 1.394 . S
C1010 C1011 1.369 . S
C1010 C1014 1.531 . S
C1011 C1010 1.369 . S
C1011 C1012 1.410 . S
C1011 C1019 1.503 . S
C1012 C1011 1.410 . S
C1012 C1013 1.392 . S
C1012 C1015 1.511 . S
C1013 C1009 1.376 . S
C1013 C1012 1.392 . S
C1013 H1025 0.929 . S
C1014 C1010 1.531 . S
C1014 H1026 0.960 . S
C1014 H1027 0.962 . S
C1014 H1028 0.960 . S
C1015 C1012 1.511 . S
C1015 H1029 0.961 . S
C1015 H1030 0.961 . S
C1015 H1031 0.961 . S
C1016 C1017 1.370 . S
C1016 C1018 1.363 . S
C1016 H1032 0.931 . S
C1017 C1016 1.370 . S
C1017 C1021 1.408 . S
C1018 C1016 1.363 . S
C1018 C1019 1.370 . S
C1018 C1022 1.524 . S
C1019 C1011 1.503 . S
C1019 C1018 1.370 . S
C1019 C1020 1.403 . S
C1020 C1019 1.403 . S
C1020 C1021 1.404 . S
C1020 C1023 1.539 . S
C1021 C1017 1.408 . S
C1021 C1020 1.404 . S
C1021 H1033 0.930 . S
C1022 C1018 1.524 . S
C1022 H1034 0.956 . S
C1022 H1035 0.961 . S
C1022 H1036 0.961 . S
C1023 C1020 1.539 . S
C1023 H1037 0.958 . S
C1023 H1038 0.961 . S
C1023 H1039 0.960 . S
H1024 C1008 0.931 . S
H1025 C1013 0.929 . S
H1026 C1014 0.960 . S
H1027 C1014 0.962 . S
H1028 C1014 0.960 . S
H1029 C1015 0.961 . S
H1030 C1015 0.961 . S
H1031 C1015 0.961 . S
H1032 C1016 0.931 . S
H1033 C1021 0.930 . S
H1034 C1022 0.956 . S
H1035 C1022 0.961 . S
H1036 C1022 0.961 . S
H1037 C1023 0.958 . S
H1038 C1023 0.961 . S
H1039 C1023 0.960 . S
C1040 C1041 1.391 . S
C1040 C1042 1.394 . S
C1040 H1056 0.931 . S
C1041 C1040 1.391 . S
C1041 C1045 1.376 . S
C1042 C1040 1.394 . S
C1042 C1043 1.369 . S
C1042 C1046 1.531 . S
C1043 C1042 1.369 . S
C1043 C1044 1.410 . S
C1043 C1051 1.503 1_565 S
C1044 C1043 1.410 . S
C1044 C1045 1.392 . S
C1044 C1047 1.511 . S
C1045 C1041 1.376 . S
C1045 C1044 1.392 . S
C1045 H1057 0.929 . S
C1046 C1042 1.531 . S
C1046 H1058 0.960 1_565 S
C1046 H1059 0.962 . S
C1046 H1060 0.960 . S
C1047 C1044 1.511 . S
C1047 H1061 0.961 . S
C1047 H1062 0.961 1_565 S
C1047 H1063 0.961 . S
C1048 C1049 1.370 . S
C1048 C1050 1.363 . S
C1048 H1064 0.931 . S
C1049 C1048 1.370 . S
C1049 C1053 1.408 . S
C1050 C1048 1.363 . S
C1050 C1051 1.370 . S
C1050 C1054 1.524 . S
C1051 C1043 1.503 1_545 S
C1051 C1050 1.370 . S
C1051 C1052 1.403 . S
C1052 C1051 1.403 . S
C1052 C1053 1.404 . S
C1052 C1055 1.539 . S
C1053 C1049 1.408 . S
C1053 C1052 1.404 . S
C1053 H1065 0.930 . S
C1054 C1050 1.524 . S
C1054 H1066 0.956 . S
C1054 H1067 0.961 1_545 S
C1054 H1068 0.961 . S
C1055 C1052 1.539 . S
C1055 H1069 0.958 . S
C1055 H1070 0.961 . S
C1055 H1071 0.971 . S
H1056 C1040 0.931 . S
H1057 C1045 0.929 . S
H1058 C1046 0.960 1_545 S
H1059 C1046 0.962 . S
H1060 C1046 0.960 . S
H1061 C1047 0.961 . S
H1062 C1047 0.961 1_545 S
H1063 C1047 0.961 . S
H1064 C1048 0.931 . S
H1065 C1053 0.930 . S
H1066 C1054 0.956 . S
H1067 C1054 0.961 1_565 S
H1068 C1054 0.961 . S
H1069 C1055 0.958 . S
H1070 C1055 0.961 . S
H1071 C1055 0.971 . S
C1072 C1073 1.391 . S
C1072 C1074 1.394 . S
C1072 H1088 0.931 . S
C1073 C1072 1.391 . S
C1073 C1077 1.376 . S
C1074 C1072 1.394 . S
C1074 C1075 1.369 . S
C1074 C1078 1.531 . S
C1075 C1074 1.369 . S
C1075 C1076 1.410 . S
C1075 C1083 1.503 1_545 S
C1076 C1075 1.410 . S
C1076 C1077 1.392 . S
C1076 C1079 1.511 . S
C1077 C1073 1.376 . S
C1077 C1076 1.392 . S
C1077 H1089 0.929 . S
C1078 C1074 1.531 . S
C1078 H1090 0.960 1_545 S
C1078 H1091 0.962 . S
C1078 H1092 0.960 . S
C1079 C1076 1.511 . S
C1079 H1093 0.961 . S
C1079 H1094 0.961 1_545 S
C1079 H1095 0.961 . S
C1080 C1081 1.370 . S
C1080 C1082 1.363 . S
C1080 H1096 0.931 . S
C1081 C1080 1.370 . S
C1081 C1085 1.408 . S
C1082 C1080 1.363 . S
C1082 C1083 1.370 . S
C1082 C1086 1.524 . S
C1083 C1075 1.503 1_565 S
C1083 C1082 1.370 . S
C1083 C1084 1.403 . S
C1084 C1083 1.403 . S
C1084 C1085 1.404 . S
C1084 C1087 1.539 . S
C1085 C1081 1.408 . S
C1085 C1084 1.404 . S
C1085 H1097 0.930 . S
C1086 C1082 1.524 . S
C1086 H1098 0.956 . S
C1086 H1099 0.961 1_565 S
C1086 H1100 0.961 . S
C1087 C1084 1.539 . S
C1087 H1101 0.958 . S
C1087 H1102 0.961 . S
C1087 H1103 0.970 . S
H1088 C1072 0.931 . S
H1089 C1077 0.929 . S
H1090 C1078 0.960 1_565 S
H1091 C1078 0.962 . S
H1092 C1078 0.960 . S
H1093 C1079 0.961 . S
H1094 C1079 0.961 1_565 S
H1095 C1079 0.961 . S
H1096 C1080 0.931 . S
H1097 C1085 0.930 . S
H1098 C1086 0.956 . S
H1099 C1086 0.961 1_545 S
H1100 C1086 0.961 . S
H1101 C1087 0.958 . S
H1102 C1087 0.961 . S
H1103 C1087 0.970 . S
C1104 C1105 1.391 . S
C1104 C1106 1.394 . S
C1104 H1120 0.931 . S
C1105 C1104 1.391 . S
C1105 C1109 1.376 . S
C1106 C1104 1.394 . S
C1106 C1107 1.369 . S
C1106 C1110 1.531 . S
C1107 C1106 1.369 . S
C1107 C1108 1.410 . S
C1107 C1115 1.503 . S
C1108 C1107 1.410 . S
C1108 C1109 1.392 . S
C1108 C1111 1.511 . S
C1109 C1105 1.376 . S
C1109 C1108 1.392 . S
C1109 H1121 0.929 . S
C1110 C1106 1.531 . S
C1110 H1122 0.960 . S
C1110 H1123 0.962 . S
C1110 H1124 0.960 . S
C1111 C1108 1.511 . S
C1111 H1125 0.961 . S
C1111 H1126 0.961 . S
C1111 H1127 0.961 . S
C1112 C1113 1.370 . S
C1112 C1114 1.363 . S
C1112 H1128 0.931 . S
C1113 C1112 1.370 . S
C1113 C1117 1.408 . S
C1114 C1112 1.363 . S
C1114 C1115 1.370 . S
C1114 C1118 1.524 . S
C1115 C1107 1.503 . S
C1115 C1114 1.370 . S
C1115 C1116 1.403 . S
C1116 C1115 1.403 . S
C1116 C1117 1.404 . S
C1116 C1119 1.539 . S
C1117 C1113 1.408 . S
C1117 C1116 1.404 . S
C1117 H1129 0.930 . S
C1118 C1114 1.524 . S
C1118 H1130 0.956 . S
C1118 H1131 0.961 . S
C1118 H1132 0.961 . S
C1119 C1116 1.539 . S
C1119 H1133 0.958 . S
C1119 H1134 0.961 . S
C1119 H1135 0.960 . S
H1120 C1104 0.931 . S
H1121 C1109 0.929 . S
H1122 C1110 0.960 . S
H1123 C1110 0.962 . S
H1124 C1110 0.960 . S
H1125 C1111 0.961 . S
H1126 C1111 0.961 . S
H1127 C1111 0.961 . S
H1128 C1112 0.931 . S
H1129 C1117 0.930 . S
H1130 C1118 0.956 . S
H1131 C1118 0.961 . S
H1132 C1118 0.961 . S
H1133 C1119 0.958 . S
H1134 C1119 0.961 . S
H1135 C1119 0.960 . S
C1136 C1137 1.391 . S
C1136 C1138 1.394 . S
C1136 H1152 0.931 . S
C1137 C1136 1.391 . S
C1137 C1141 1.376 . S
C1138 C1136 1.394 . S
C1138 C1139 1.369 . S
C1138 C1142 1.531 . S
C1139 C1138 1.369 . S
C1139 C1140 1.410 . S
C1139 C1147 1.503 . S
C1140 C1139 1.410 . S
C1140 C1141 1.392 . S
C1140 C1143 1.511 . S
C1141 C1137 1.376 . S
C1141 C1140 1.392 . S
C1141 H1153 0.929 . S
C1142 C1138 1.531 . S
C1142 H1154 0.960 . S
C1142 H1155 0.962 . S
C1142 H1156 0.960 . S
C1143 C1140 1.511 . S
C1143 H1157 0.961 . S
C1143 H1158 0.961 . S
C1143 H1159 0.961 . S
C1144 C1145 1.370 . S
C1144 C1146 1.363 . S
C1144 H1160 0.931 . S
C1145 C1144 1.370 . S
C1145 C1149 1.408 . S
C1146 C1144 1.363 . S
C1146 C1147 1.370 . S
C1146 C1150 1.524 . S
C1147 C1139 1.503 . S
C1147 C1146 1.370 . S
C1147 C1148 1.403 . S
C1148 C1147 1.403 . S
C1148 C1149 1.404 . S
C1148 C1151 1.539 . S
C1149 C1145 1.408 . S
C1149 C1148 1.404 . S
C1149 H1161 0.930 . S
C1150 C1146 1.524 . S
C1150 H1162 0.956 . S
C1150 H1163 0.961 . S
C1150 H1164 0.961 . S
C1151 C1148 1.539 . S
C1151 H1165 0.958 . S
C1151 H1166 0.961 . S
C1151 H1167 0.960 . S
H1152 C1136 0.931 . S
H1153 C1141 0.929 . S
H1154 C1142 0.960 . S
H1155 C1142 0.962 . S
H1156 C1142 0.960 . S
H1157 C1143 0.961 . S
H1158 C1143 0.961 . S
H1159 C1143 0.961 . S
H1160 C1144 0.931 . S
H1161 C1149 0.930 . S
H1162 C1150 0.956 . S
H1163 C1150 0.961 . S
H1164 C1150 0.961 . S
H1165 C1151 0.958 . S
H1166 C1151 0.961 . S
H1167 C1151 0.960 . S
C1168 C1169 1.391 . S
C1168 C1170 1.394 . S
C1168 H1184 0.931 . S
C1169 C1168 1.391 . S
C1169 C1173 1.376 . S
C1170 C1168 1.394 . S
C1170 C1171 1.369 . S
C1170 C1174 1.531 . S
C1171 C1170 1.369 . S
C1171 C1172 1.410 . S
C1171 C1179 1.503 . S
C1172 C1171 1.410 . S
C1172 C1173 1.392 . S
C1172 C1175 1.511 . S
C1173 C1169 1.376 . S
C1173 C1172 1.392 . S
C1173 H1185 0.929 . S
C1174 C1170 1.531 . S
C1174 H1186 0.960 . S
C1174 H1187 0.962 . S
C1174 H1188 0.960 . S
C1175 C1172 1.511 . S
C1175 H1189 0.961 . S
C1175 H1190 0.961 . S
C1175 H1191 0.961 . S
C1176 C1177 1.370 . S
C1176 C1178 1.363 . S
C1176 H1192 0.931 . S
C1177 C1176 1.370 . S
C1177 C1181 1.408 . S
C1178 C1176 1.363 . S
C1178 C1179 1.370 . S
C1178 C1182 1.524 . S
C1179 C1171 1.503 . S
C1179 C1178 1.370 . S
C1179 C1180 1.403 . S
C1180 C1179 1.403 . S
C1180 C1181 1.404 . S
C1180 C1183 1.539 . S
C1181 C1177 1.408 . S
C1181 C1180 1.404 . S
C1181 H1193 0.930 . S
C1182 C1178 1.524 . S
C1182 H1194 0.956 . S
C1182 H1195 0.961 . S
C1182 H1196 0.961 . S
C1183 C1180 1.539 . S
C1183 H1197 0.958 . S
C1183 H1198 0.961 . S
C1183 H1199 0.960 . S
H1184 C1168 0.931 . S
H1185 C1173 0.929 . S
H1186 C1174 0.960 . S
H1187 C1174 0.962 . S
H1188 C1174 0.960 . S
H1189 C1175 0.961 . S
H1190 C1175 0.961 . S
H1191 C1175 0.961 . S
H1192 C1176 0.931 . S
H1193 C1181 0.930 . S
H1194 C1182 0.956 . S
H1195 C1182 0.961 . S
H1196 C1182 0.961 . S
H1197 C1183 0.958 . S
H1198 C1183 0.961 . S
H1199 C1183 0.960 . S
C1200 C1201 1.391 . S
C1200 C1202 1.394 . S
C1200 H1216 0.931 . S
C1201 C1200 1.391 . S
C1201 C1205 1.376 . S
C1202 C1200 1.394 . S
C1202 C1203 1.369 . S
C1202 C1206 1.531 . S
C1203 C1202 1.369 . S
C1203 C1204 1.410 . S
C1203 C1211 1.503 . S
C1204 C1203 1.410 . S
C1204 C1205 1.392 . S
C1204 C1207 1.511 . S
C1205 C1201 1.376 . S
C1205 C1204 1.392 . S
C1205 H1217 0.929 . S
C1206 C1202 1.531 . S
C1206 H1218 0.960 . S
C1206 H1219 0.962 . S
C1206 H1220 0.960 . S
C1207 C1204 1.511 . S
C1207 H1221 0.961 . S
C1207 H1222 0.961 . S
C1207 H1223 0.961 . S
C1208 C1209 1.370 . S
C1208 C1210 1.363 . S
C1208 H1224 0.931 . S
C1209 C1208 1.370 . S
C1209 C1213 1.408 . S
C1210 C1208 1.363 . S
C1210 C1211 1.370 . S
C1210 C1214 1.524 . S
C1211 C1203 1.503 . S
C1211 C1210 1.370 . S
C1211 C1212 1.403 . S
C1212 C1211 1.403 . S
C1212 C1213 1.404 . S
C1212 C1215 1.539 . S
C1213 C1209 1.408 . S
C1213 C1212 1.404 . S
C1213 H1225 0.930 . S
C1214 C1210 1.524 . S
C1214 H1226 0.956 . S
C1214 H1227 0.961 . S
C1214 H1228 0.961 . S
C1215 C1212 1.539 . S
C1215 H1229 0.958 . S
C1215 H1230 0.961 . S
C1215 H1231 0.960 . S
H1216 C1200 0.931 . S
H1217 C1205 0.929 . S
H1218 C1206 0.960 . S
H1219 C1206 0.962 . S
H1220 C1206 0.960 . S
H1221 C1207 0.961 . S
H1222 C1207 0.961 . S
H1223 C1207 0.961 . S
H1224 C1208 0.931 . S
H1225 C1213 0.930 . S
H1226 C1214 0.956 . S
H1227 C1214 0.961 . S
H1228 C1214 0.961 . S
H1229 C1215 0.958 . S
H1230 C1215 0.961 . S
H1231 C1215 0.960 . S
C1232 C1233 1.391 . S
C1232 C1234 1.394 . S
C1232 H1248 0.931 . S
C1233 C1232 1.391 . S
C1233 C1237 1.376 . S
C1234 C1232 1.394 . S
C1234 C1235 1.369 . S
C1234 C1238 1.531 . S
C1235 C1234 1.369 . S
C1235 C1236 1.410 . S
C1235 C1243 1.503 . S
C1236 C1235 1.410 . S
C1236 C1237 1.392 . S
C1236 C1239 1.511 . S
C1237 C1233 1.376 . S
C1237 C1236 1.392 . S
C1237 H1249 0.929 . S
C1238 C1234 1.531 . S
C1238 H1250 0.960 . S
C1238 H1251 0.962 . S
C1238 H1252 0.960 . S
C1239 C1236 1.511 . S
C1239 H1253 0.961 . S
C1239 H1254 0.961 . S
C1239 H1255 0.961 . S
C1240 C1241 1.370 . S
C1240 C1242 1.363 . S
C1240 H1256 0.931 . S
C1241 C1240 1.370 . S
C1241 C1245 1.408 . S
C1242 C1240 1.363 . S
C1242 C1243 1.370 . S
C1242 C1246 1.524 . S
C1243 C1235 1.503 . S
C1243 C1242 1.370 . S
C1243 C1244 1.403 . S
C1244 C1243 1.403 . S
C1244 C1245 1.404 . S
C1244 C1247 1.539 . S
C1245 C1241 1.408 . S
C1245 C1244 1.404 . S
C1245 H1257 0.930 . S
C1246 C1242 1.524 . S
C1246 H1258 0.956 . S
C1246 H1259 0.961 . S
C1246 H1260 0.961 . S
C1247 C1244 1.539 . S
C1247 H1261 0.958 . S
C1247 H1262 0.961 . S
C1247 H1263 0.960 . S
H1248 C1232 0.931 . S
H1249 C1237 0.929 . S
H1250 C1238 0.960 . S
H1251 C1238 0.962 . S
H1252 C1238 0.960 . S
H1253 C1239 0.961 . S
H1254 C1239 0.961 . S
H1255 C1239 0.961 . S
H1256 C1240 0.931 . S
H1257 C1245 0.930 . S
H1258 C1246 0.956 . S
H1259 C1246 0.961 . S
H1260 C1246 0.961 . S
H1261 C1247 0.958 . S
H1262 C1247 0.961 . S
H1263 C1247 0.960 . S
C1264 C1265 1.391 . S
C1264 C1266 1.394 . S
C1264 H1280 0.931 . S
C1265 C1264 1.391 . S
C1265 C1269 1.376 . S
C1266 C1264 1.394 . S
C1266 C1267 1.369 . S
C1266 C1270 1.531 . S
C1267 C1266 1.369 . S
C1267 C1268 1.410 . S
C1267 C1275 1.503 . S
C1268 C1267 1.410 . S
C1268 C1269 1.392 . S
C1268 C1271 1.511 . S
C1269 C1265 1.376 . S
C1269 C1268 1.392 . S
C1269 H1281 0.929 . S
C1270 C1266 1.531 . S
C1270 H1282 0.960 . S
C1270 H1283 0.962 . S
C1270 H1284 0.960 . S
C1271 C1268 1.511 . S
C1271 H1285 0.961 . S
C1271 H1286 0.961 . S
C1271 H1287 0.961 . S
C1272 C1273 1.370 . S
C1272 C1274 1.363 . S
C1272 H1288 0.931 . S
C1273 C1272 1.370 . S
C1273 C1277 1.408 . S
C1274 C1272 1.363 . S
C1274 C1275 1.370 . S
C1274 C1278 1.524 . S
C1275 C1267 1.503 . S
C1275 C1274 1.370 . S
C1275 C1276 1.403 . S
C1276 C1275 1.403 . S
C1276 C1277 1.404 . S
C1276 C1279 1.539 . S
C1277 C1273 1.408 . S
C1277 C1276 1.404 . S
C1277 H1289 0.930 . S
C1278 C1274 1.524 . S
C1278 H1290 0.956 . S
C1278 H1291 0.961 . S
C1278 H1292 0.961 . S
C1279 C1276 1.539 . S
C1279 H1293 0.958 . S
C1279 H1294 0.961 . S
C1279 H1295 0.960 . S
H1280 C1264 0.931 . S
H1281 C1269 0.929 . S
H1282 C1270 0.960 . S
H1283 C1270 0.962 . S
H1284 C1270 0.960 . S
H1285 C1271 0.961 . S
H1286 C1271 0.961 . S
H1287 C1271 0.961 . S
H1288 C1272 0.931 . S
H1289 C1277 0.930 . S
H1290 C1278 0.956 . S
H1291 C1278 0.961 . S
H1292 C1278 0.961 . S
H1293 C1279 0.958 . S
H1294 C1279 0.961 . S
H1295 C1279 0.960 . S
C1296 C1297 1.391 . S
C1296 C1298 1.394 . S
C1296 H1312 0.931 . S
C1297 C1296 1.391 . S
C1297 C1301 1.376 . S
C1298 C1296 1.394 . S
C1298 C1299 1.369 . S
C1298 C1302 1.531 . S
C1299 C1298 1.369 . S
C1299 C1300 1.410 . S
C1299 C1307 1.503 . S
C1300 C1299 1.410 . S
C1300 C1301 1.392 . S
C1300 C1303 1.511 . S
C1301 C1297 1.376 . S
C1301 C1300 1.392 . S
C1301 H1313 0.929 . S
C1302 C1298 1.531 . S
C1302 H1314 0.960 . S
C1302 H1315 0.962 . S
C1302 H1316 0.960 . S
C1303 C1300 1.511 . S
C1303 H1317 0.961 . S
C1303 H1318 0.961 . S
C1303 H1319 0.961 . S
C1304 C1305 1.370 . S
C1304 C1306 1.363 . S
C1304 H1320 0.931 . S
C1305 C1304 1.370 . S
C1305 C1309 1.408 . S
C1306 C1304 1.363 . S
C1306 C1307 1.370 . S
C1306 C1310 1.524 . S
C1307 C1299 1.503 . S
C1307 C1306 1.370 . S
C1307 C1308 1.403 . S
C1308 C1307 1.403 . S
C1308 C1309 1.404 . S
C1308 C1311 1.539 . S
C1309 C1305 1.408 . S
C1309 C1308 1.404 . S
C1309 H1321 0.930 . S
C1310 C1306 1.524 . S
C1310 H1322 0.956 . S
C1310 H1323 0.961 . S
C1310 H1324 0.961 . S
C1311 C1308 1.539 . S
C1311 H1325 0.958 . S
C1311 H1326 0.961 . S
C1311 H1327 0.960 . S
H1312 C1296 0.931 . S
H1313 C1301 0.929 . S
H1314 C1302 0.960 . S
H1315 C1302 0.962 . S
H1316 C1302 0.960 . S
H1317 C1303 0.961 . S
H1318 C1303 0.961 . S
H1319 C1303 0.961 . S
H1320 C1304 0.931 . S
H1321 C1309 0.930 . S
H1322 C1310 0.956 . S
H1323 C1310 0.961 . S
H1324 C1310 0.961 . S
H1325 C1311 0.958 . S
H1326 C1311 0.961 . S
H1327 C1311 0.960 . S
C1328 C1329 1.391 . S
C1328 C1330 1.394 . S
C1328 H1344 0.931 . S
C1329 C1328 1.391 . S
C1329 C1333 1.376 . S
C1330 C1328 1.394 . S
C1330 C1331 1.369 . S
C1330 C1334 1.531 . S
C1331 C1330 1.369 . S
C1331 C1332 1.410 . S
C1331 C1339 1.503 . S
C1332 C1331 1.410 . S
C1332 C1333 1.392 . S
C1332 C1335 1.511 . S
C1333 C1329 1.376 . S
C1333 C1332 1.392 . S
C1333 H1345 0.929 . S
C1334 C1330 1.531 . S
C1334 H1346 0.960 . S
C1334 H1347 0.962 . S
C1334 H1348 0.960 . S
C1335 C1332 1.511 . S
C1335 H1349 0.961 . S
C1335 H1350 0.961 . S
C1335 H1351 0.961 . S
C1336 C1337 1.370 . S
C1336 C1338 1.363 . S
C1336 H1352 0.931 . S
C1337 C1336 1.370 . S
C1337 C1341 1.408 . S
C1338 C1336 1.363 . S
C1338 C1339 1.370 . S
C1338 C1342 1.524 . S
C1339 C1331 1.503 . S
C1339 C1338 1.370 . S
C1339 C1340 1.403 . S
C1340 C1339 1.403 . S
C1340 C1341 1.404 . S
C1340 C1343 1.539 . S
C1341 C1337 1.408 . S
C1341 C1340 1.404 . S
C1341 H1353 0.930 . S
C1342 C1338 1.524 . S
C1342 H1354 0.956 . S
C1342 H1355 0.961 . S
C1342 H1356 0.961 . S
C1343 C1340 1.539 . S
C1343 H1357 0.958 . S
C1343 H1358 0.961 . S
C1343 H1359 0.960 . S
H1344 C1328 0.931 . S
H1345 C1333 0.929 . S
H1346 C1334 0.960 . S
H1347 C1334 0.962 . S
H1348 C1334 0.960 . S
H1349 C1335 0.961 . S
H1350 C1335 0.961 . S
H1351 C1335 0.961 . S
H1352 C1336 0.931 . S
H1353 C1341 0.930 . S
H1354 C1342 0.956 . S
H1355 C1342 0.961 . S
H1356 C1342 0.961 . S
H1357 C1343 0.958 . S
H1358 C1343 0.961 . S
H1359 C1343 0.960 . S
C1360 C1361 1.391 . S
C1360 C1362 1.394 . S
C1360 H1376 0.931 . S
C1361 C1360 1.391 . S
C1361 C1365 1.376 . S
C1362 C1360 1.394 . S
C1362 C1363 1.369 . S
C1362 C1366 1.531 . S
C1363 C1362 1.369 . S
C1363 C1364 1.410 . S
C1363 C1371 1.503 . S
C1364 C1363 1.410 . S
C1364 C1365 1.392 . S
C1364 C1367 1.511 . S
C1365 C1361 1.376 . S
C1365 C1364 1.392 . S
C1365 H1377 0.929 . S
C1366 C1362 1.531 . S
C1366 H1378 0.960 . S
C1366 H1379 0.962 . S
C1366 H1380 0.960 . S
C1367 C1364 1.511 . S
C1367 H1381 0.961 . S
C1367 H1382 0.961 . S
C1367 H1383 0.961 . S
C1368 C1369 1.370 . S
C1368 C1370 1.363 . S
C1368 H1384 0.931 . S
C1369 C1368 1.370 . S
C1369 C1373 1.408 . S
C1370 C1368 1.363 . S
C1370 C1371 1.370 . S
C1370 C1374 1.524 . S
C1371 C1363 1.503 . S
C1371 C1370 1.370 . S
C1371 C1372 1.403 . S
C1372 C1371 1.403 . S
C1372 C1373 1.404 . S
C1372 C1375 1.539 . S
C1373 C1369 1.408 . S
C1373 C1372 1.404 . S
C1373 H1385 0.930 . S
C1374 C1370 1.524 . S
C1374 H1386 0.956 . S
C1374 H1387 0.961 . S
C1374 H1388 0.961 . S
C1375 C1372 1.539 . S
C1375 H1389 0.958 . S
C1375 H1390 0.961 . S
C1375 H1391 0.960 . S
H1376 C1360 0.931 . S
H1377 C1365 0.929 . S
H1378 C1366 0.960 . S
H1379 C1366 0.962 . S
H1380 C1366 0.960 . S
H1381 C1367 0.961 . S
H1382 C1367 0.961 . S
H1383 C1367 0.961 . S
H1384 C1368 0.931 . S
H1385 C1373 0.930 . S
H1386 C1374 0.956 . S
H1387 C1374 0.961 . S
H1388 C1374 0.961 . S
H1389 C1375 0.958 . S
H1390 C1375 0.961 . S
H1391 C1375 0.960 . S
C1392 C1393 1.391 . S
C1392 C1394 1.394 . S
C1392 H1408 0.931 . S
C1393 C1392 1.391 . S
C1393 C1397 1.376 . S
C1394 C1392 1.394 . S
C1394 C1395 1.369 . S
C1394 C1398 1.531 . S
C1395 C1394 1.369 . S
C1395 C1396 1.410 . S
C1395 C1403 1.503 . S
C1396 C1395 1.410 . S
C1396 C1397 1.392 . S
C1396 C1399 1.511 . S
C1397 C1393 1.376 . S
C1397 C1396 1.392 . S
C1397 H1409 0.929 . S
C1398 C1394 1.531 . S
C1398 H1410 0.960 . S
C1398 H1411 0.962 . S
C1398 H1412 0.960 . S
C1399 C1396 1.511 . S
C1399 H1413 0.961 . S
C1399 H1414 0.961 . S
C1399 H1415 0.961 . S
C1400 C1401 1.370 . S
C1400 C1402 1.363 . S
C1400 H1416 0.931 . S
C1401 C1400 1.370 . S
C1401 C1405 1.408 . S
C1402 C1400 1.363 . S
C1402 C1403 1.370 . S
C1402 C1406 1.524 . S
C1403 C1395 1.503 . S
C1403 C1402 1.370 . S
C1403 C1404 1.403 . S
C1404 C1403 1.403 . S
C1404 C1405 1.404 . S
C1404 C1407 1.539 . S
C1405 C1401 1.408 . S
C1405 C1404 1.404 . S
C1405 H1417 0.930 . S
C1406 C1402 1.524 . S
C1406 H1418 0.956 . S
C1406 H1419 0.961 . S
C1406 H1420 0.961 . S
C1407 C1404 1.539 . S
C1407 H1421 0.958 . S
C1407 H1422 0.961 . S
C1407 H1423 0.960 . S
H1408 C1392 0.931 . S
H1409 C1397 0.929 . S
H1410 C1398 0.960 . S
H1411 C1398 0.962 . S
H1412 C1398 0.960 . S
H1413 C1399 0.961 . S
H1414 C1399 0.961 . S
H1415 C1399 0.961 . S
H1416 C1400 0.931 . S
H1417 C1405 0.930 . S
H1418 C1406 0.956 . S
H1419 C1406 0.961 . S
H1420 C1406 0.961 . S
H1421 C1407 0.958 . S
H1422 C1407 0.961 . S
H1423 C1407 0.960 . S
C1424 C1425 1.391 . S
C1424 C1426 1.394 . S
C1424 H1440 0.931 . S
C1425 C1424 1.391 . S
C1425 C1429 1.376 . S
C1426 C1424 1.394 . S
C1426 C1427 1.369 . S
C1426 C1430 1.531 . S
C1427 C1426 1.369 . S
C1427 C1428 1.410 . S
C1427 C1435 1.503 . S
C1428 C1427 1.410 . S
C1428 C1429 1.392 . S
C1428 C1431 1.511 . S
C1429 C1425 1.376 . S
C1429 C1428 1.392 . S
C1429 H1441 0.929 . S
C1430 C1426 1.531 . S
C1430 H1442 0.960 . S
C1430 H1443 0.962 . S
C1430 H1444 0.960 . S
C1431 C1428 1.511 . S
C1431 H1445 0.961 . S
C1431 H1446 0.961 . S
C1431 H1447 0.961 . S
C1432 C1433 1.370 . S
C1432 C1434 1.363 . S
C1432 H1448 0.931 . S
C1433 C1432 1.370 . S
C1433 C1437 1.408 . S
C1434 C1432 1.363 . S
C1434 C1435 1.370 . S
C1434 C1438 1.524 . S
C1435 C1427 1.503 . S
C1435 C1434 1.370 . S
C1435 C1436 1.403 . S
C1436 C1435 1.403 . S
C1436 C1437 1.404 . S
C1436 C1439 1.539 . S
C1437 C1433 1.408 . S
C1437 C1436 1.404 . S
C1437 H1449 0.930 . S
C1438 C1434 1.524 . S
C1438 H1450 0.956 . S
C1438 H1451 0.961 . S
C1438 H1452 0.961 . S
C1439 C1436 1.539 . S
C1439 H1453 0.958 . S
C1439 H1454 0.961 . S
C1439 H1455 0.960 . S
H1440 C1424 0.931 . S
H1441 C1429 0.929 . S
H1442 C1430 0.960 . S
H1443 C1430 0.962 . S
H1444 C1430 0.960 . S
H1445 C1431 0.961 . S
H1446 C1431 0.961 . S
H1447 C1431 0.961 . S
H1448 C1432 0.931 . S
H1449 C1437 0.930 . S
H1450 C1438 0.956 . S
H1451 C1438 0.961 . S
H1452 C1438 0.961 . S
H1453 C1439 0.958 . S
H1454 C1439 0.961 . S
H1455 C1439 0.960 . S
C1456 C1457 1.391 . S
C1456 C1458 1.394 . S
C1456 H1472 0.931 . S
C1457 C1456 1.391 . S
C1457 C1461 1.376 . S
C1458 C1456 1.394 . S
C1458 C1459 1.369 . S
C1458 C1462 1.531 . S
C1459 C1458 1.369 . S
C1459 C1460 1.410 . S
C1459 C1467 1.503 . S
C1460 C1459 1.410 . S
C1460 C1461 1.392 . S
C1460 C1463 1.511 . S
C1461 C1457 1.376 . S
C1461 C1460 1.392 . S
C1461 H1473 0.929 . S
C1462 C1458 1.531 . S
C1462 H1474 0.960 . S
C1462 H1475 0.962 . S
C1462 H1476 0.960 . S
C1463 C1460 1.511 . S
C1463 H1477 0.961 . S
C1463 H1478 0.961 . S
C1463 H1479 0.961 . S
C1464 C1465 1.370 . S
C1464 C1466 1.363 . S
C1464 H1480 0.931 . S
C1465 C1464 1.370 . S
C1465 C1469 1.408 . S
C1466 C1464 1.363 . S
C1466 C1467 1.370 . S
C1466 C1470 1.524 . S
C1467 C1459 1.503 . S
C1467 C1466 1.370 . S
C1467 C1468 1.403 . S
C1468 C1467 1.403 . S
C1468 C1469 1.404 . S
C1468 C1471 1.539 . S
C1469 C1465 1.408 . S
C1469 C1468 1.404 . S
C1469 H1481 0.930 . S
C1470 C1466 1.524 . S
C1470 H1482 0.956 . S
C1470 H1483 0.961 . S
C1470 H1484 0.961 . S
C1471 C1468 1.539 . S
C1471 H1485 0.958 . S
C1471 H1486 0.961 . S
C1471 H1487 0.960 . S
H1472 C1456 0.931 . S
H1473 C1461 0.929 . S
H1474 C1462 0.960 . S
H1475 C1462 0.962 . S
H1476 C1462 0.960 . S
H1477 C1463 0.961 . S
H1478 C1463 0.961 . S
H1479 C1463 0.961 . S
H1480 C1464 0.931 . S
H1481 C1469 0.930 . S
H1482 C1470 0.956 . S
H1483 C1470 0.961 . S
H1484 C1470 0.961 . S
H1485 C1471 0.958 . S
H1486 C1471 0.961 . S
H1487 C1471 0.960 . S
C1488 C1489 1.391 . S
C1488 C1490 1.394 . S
C1488 H1504 0.931 . S
C1489 C1488 1.391 . S
C1489 C1493 1.376 . S
C1490 C1488 1.394 . S
C1490 C1491 1.369 . S
C1490 C1494 1.531 . S
C1491 C1490 1.369 . S
C1491 C1492 1.410 . S
C1491 C1499 1.503 . S
C1492 C1491 1.410 . S
C1492 C1493 1.392 . S
C1492 C1495 1.511 . S
C1493 C1489 1.376 . S
C1493 C1492 1.392 . S
C1493 H1505 0.929 . S
C1494 C1490 1.531 . S
C1494 H1506 0.960 . S
C1494 H1507 0.962 . S
C1494 H1508 0.960 . S
C1495 C1492 1.511 . S
C1495 H1509 0.961 . S
C1495 H1510 0.961 . S
C1495 H1511 0.961 . S
C1496 C1497 1.370 . S
C1496 C1498 1.363 . S
C1496 H1512 0.931 . S
C1497 C1496 1.370 . S
C1497 C1501 1.408 . S
C1498 C1496 1.363 . S
C1498 C1499 1.370 . S
C1498 C1502 1.524 . S
C1499 C1491 1.503 . S
C1499 C1498 1.370 . S
C1499 C1500 1.403 . S
C1500 C1499 1.403 . S
C1500 C1501 1.404 . S
C1500 C1503 1.539 . S
C1501 C1497 1.408 . S
C1501 C1500 1.404 . S
C1501 H1513 0.930 . S
C1502 C1498 1.524 . S
C1502 H1514 0.956 . S
C1502 H1515 0.961 . S
C1502 H1516 0.961 . S
C1503 C1500 1.539 . S
C1503 H1517 0.958 . S
C1503 H1518 0.961 . S
C1503 H1519 0.960 . S
H1504 C1488 0.931 . S
H1505 C1493 0.929 . S
H1506 C1494 0.960 . S
H1507 C1494 0.962 . S
H1508 C1494 0.960 . S
H1509 C1495 0.961 . S
H1510 C1495 0.961 . S
H1511 C1495 0.961 . S
H1512 C1496 0.931 . S
H1513 C1501 0.930 . S
H1514 C1502 0.956 . S
H1515 C1502 0.961 . S
H1516 C1502 0.961 . S
H1517 C1503 0.958 . S
H1518 C1503 0.961 . S
H1519 C1503 0.960 . S
C1520 C1521 1.391 . S
C1520 C1522 1.394 . S
C1520 H1536 0.931 . S
C1521 C1520 1.391 . S
C1521 C1525 1.376 . S
C1522 C1520 1.394 . S
C1522 C1523 1.369 . S
C1522 C1526 1.531 . S
C1523 C1522 1.369 . S
C1523 C1524 1.410 . S
C1523 C1531 1.503 . S
C1524 C1523 1.410 . S
C1524 C1525 1.392 . S
C1524 C1527 1.511 . S
C1525 C1521 1.376 . S
C1525 C1524 1.392 . S
C1525 H1537 0.929 . S
C1526 C1522 1.531 . S
C1526 H1538 0.960 . S
C1526 H1539 0.962 . S
C1526 H1540 0.960 . S
C1527 C1524 1.511 . S
C1527 H1541 0.961 . S
C1527 H1542 0.961 . S
C1527 H1543 0.961 . S
C1528 C1529 1.370 . S
C1528 C1530 1.363 . S
C1528 H1544 0.931 . S
C1529 C1528 1.370 . S
C1529 C1533 1.408 . S
C1530 C1528 1.363 . S
C1530 C1531 1.370 . S
C1530 C1534 1.524 . S
C1531 C1523 1.503 . S
C1531 C1530 1.370 . S
C1531 C1532 1.403 . S
C1532 C1531 1.403 . S
C1532 C1533 1.404 . S
C1532 C1535 1.539 . S
C1533 C1529 1.408 . S
C1533 C1532 1.404 . S
C1533 H1545 0.930 . S
C1534 C1530 1.524 . S
C1534 H1546 0.956 . S
C1534 H1547 0.961 . S
C1534 H1548 0.961 . S
C1535 C1532 1.539 . S
C1535 H1549 0.958 . S
C1535 H1550 0.961 . S
C1535 H1551 0.960 . S
H1536 C1520 0.931 . S
H1537 C1525 0.929 . S
H1538 C1526 0.960 . S
H1539 C1526 0.962 . S
H1540 C1526 0.960 . S
H1541 C1527 0.961 . S
H1542 C1527 0.961 . S
H1543 C1527 0.961 . S
H1544 C1528 0.931 . S
H1545 C1533 0.930 . S
H1546 C1534 0.956 . S
H1547 C1534 0.961 . S
H1548 C1534 0.961 . S
H1549 C1535 0.958 . S
H1550 C1535 0.961 . S
H1551 C1535 0.960 . S
C1552 C1553 1.391 . S
C1552 C1554 1.394 . S
C1552 H1568 0.931 . S
C1553 C1552 1.391 . S
C1553 C1557 1.376 . S
C1554 C1552 1.394 . S
C1554 C1555 1.369 . S
C1554 C1558 1.531 . S
C1555 C1554 1.369 . S
C1555 C1556 1.410 . S
C1555 C1563 1.503 . S
C1556 C1555 1.410 . S
C1556 C1557 1.392 . S
C1556 C1559 1.511 . S
C1557 C1553 1.376 . S
C1557 C1556 1.392 . S
C1557 H1569 0.929 . S
C1558 C1554 1.531 . S
C1558 H1570 0.960 . S
C1558 H1571 0.962 . S
C1558 H1572 0.960 . S
C1559 C1556 1.511 . S
C1559 H1573 0.961 . S
C1559 H1574 0.961 . S
C1559 H1575 0.961 . S
C1560 C1561 1.370 . S
C1560 C1562 1.363 . S
C1560 H1576 0.931 . S
C1561 C1560 1.370 . S
C1561 C1565 1.408 . S
C1562 C1560 1.363 . S
C1562 C1563 1.370 . S
C1562 C1566 1.524 . S
C1563 C1555 1.503 . S
C1563 C1562 1.370 . S
C1563 C1564 1.403 . S
C1564 C1563 1.403 . S
C1564 C1565 1.404 . S
C1564 C1567 1.539 . S
C1565 C1561 1.408 . S
C1565 C1564 1.404 . S
C1565 H1577 0.930 . S
C1566 C1562 1.524 . S
C1566 H1578 0.956 . S
C1566 H1579 0.961 . S
C1566 H1580 0.961 . S
C1567 C1564 1.539 . S
C1567 H1581 0.958 . S
C1567 H1582 0.961 . S
C1567 H1583 0.960 . S
H1568 C1552 0.931 . S
H1569 C1557 0.929 . S
H1570 C1558 0.960 . S
H1571 C1558 0.962 . S
H1572 C1558 0.960 . S
H1573 C1559 0.961 . S
H1574 C1559 0.961 . S
H1575 C1559 0.961 . S
H1576 C1560 0.931 . S
H1577 C1565 0.930 . S
H1578 C1566 0.956 . S
H1579 C1566 0.961 . S
H1580 C1566 0.961 . S
H1581 C1567 0.958 . S
H1582 C1567 0.961 . S
H1583 C1567 0.960 . S
C1584 C1585 1.391 . S
C1584 C1586 1.394 . S
C1584 H1600 0.931 . S
C1585 C1584 1.391 . S
C1585 C1589 1.376 . S
C1586 C1584 1.394 . S
C1586 C1587 1.369 . S
C1586 C1590 1.531 . S
C1587 C1586 1.369 . S
C1587 C1588 1.410 . S
C1587 C1595 1.503 . S
C1588 C1587 1.410 . S
C1588 C1589 1.392 . S
C1588 C1591 1.511 . S
C1589 C1585 1.376 . S
C1589 C1588 1.392 . S
C1589 H1601 0.929 . S
C1590 C1586 1.531 . S
C1590 H1602 0.960 . S
C1590 H1603 0.962 . S
C1590 H1604 0.960 . S
C1591 C1588 1.511 . S
C1591 H1605 0.961 . S
C1591 H1606 0.961 . S
C1591 H1607 0.961 . S
C1592 C1593 1.370 . S
C1592 C1594 1.363 . S
C1592 H1608 0.931 . S
C1593 C1592 1.370 . S
C1593 C1597 1.408 . S
C1594 C1592 1.363 . S
C1594 C1595 1.370 . S
C1594 C1598 1.524 . S
C1595 C1587 1.503 . S
C1595 C1594 1.370 . S
C1595 C1596 1.403 . S
C1596 C1595 1.403 . S
C1596 C1597 1.404 . S
C1596 C1599 1.539 . S
C1597 C1593 1.408 . S
C1597 C1596 1.404 . S
C1597 H1609 0.930 . S
C1598 C1594 1.524 . S
C1598 H1610 0.956 . S
C1598 H1611 0.961 . S
C1598 H1612 0.961 . S
C1599 C1596 1.539 . S
C1599 H1613 0.958 . S
C1599 H1614 0.961 . S
C1599 H1615 0.960 . S
H1600 C1584 0.931 . S
H1601 C1589 0.929 . S
H1602 C1590 0.960 . S
H1603 C1590 0.962 . S
H1604 C1590 0.960 . S
H1605 C1591 0.961 . S
H1606 C1591 0.961 . S
H1607 C1591 0.961 . S
H1608 C1592 0.931 . S
H1609 C1597 0.930 . S
H1610 C1598 0.956 . S
H1611 C1598 0.961 . S
H1612 C1598 0.961 . S
H1613 C1599 0.958 . S
H1614 C1599 0.961 . S
H1615 C1599 0.960 . S
C1616 C1617 1.391 . S
C1616 C1618 1.394 . S
C1616 H1632 0.931 . S
C1617 C1616 1.391 . S
C1617 C1621 1.376 . S
C1618 C1616 1.394 . S
C1618 C1619 1.369 . S
C1618 C1622 1.531 . S
C1619 C1618 1.369 . S
C1619 C1620 1.410 . S
C1619 C1627 1.503 . S
C1620 C1619 1.410 . S
C1620 C1621 1.392 . S
C1620 C1623 1.511 . S
C1621 C1617 1.376 . S
C1621 C1620 1.392 . S
C1621 H1633 0.929 . S
C1622 C1618 1.531 . S
C1622 H1634 0.960 . S
C1622 H1635 0.962 . S
C1622 H1636 0.960 . S
C1623 C1620 1.511 . S
C1623 H1637 0.961 . S
C1623 H1638 0.961 . S
C1623 H1639 0.961 . S
C1624 C1625 1.370 . S
C1624 C1626 1.363 . S
C1624 H1640 0.931 . S
C1625 C1624 1.370 . S
C1625 C1629 1.408 . S
C1626 C1624 1.363 . S
C1626 C1627 1.370 . S
C1626 C1630 1.524 . S
C1627 C1619 1.503 . S
C1627 C1626 1.370 . S
C1627 C1628 1.403 . S
C1628 C1627 1.403 . S
C1628 C1629 1.404 . S
C1628 C1631 1.539 . S
C1629 C1625 1.408 . S
C1629 C1628 1.404 . S
C1629 H1641 0.930 . S
C1630 C1626 1.524 . S
C1630 H1642 0.956 . S
C1630 H1643 0.961 . S
C1630 H1644 0.961 . S
C1631 C1628 1.539 . S
C1631 H1645 0.958 . S
C1631 H1646 0.961 . S
C1631 H1647 0.960 . S
H1632 C1616 0.931 . S
H1633 C1621 0.929 . S
H1634 C1622 0.960 . S
H1635 C1622 0.962 . S
H1636 C1622 0.960 . S
H1637 C1623 0.961 . S
H1638 C1623 0.961 . S
H1639 C1623 0.961 . S
H1640 C1624 0.931 . S
H1641 C1629 0.930 . S
H1642 C1630 0.956 . S
H1643 C1630 0.961 . S
H1644 C1630 0.961 . S
H1645 C1631 0.958 . S
H1646 C1631 0.961 . S
H1647 C1631 0.960 . S
C1648 C1649 1.391 . S
C1648 C1650 1.394 . S
C1648 H1664 0.931 . S
C1649 C1648 1.391 . S
C1649 C1653 1.376 . S
C1650 C1648 1.394 . S
C1650 C1651 1.369 . S
C1650 C1654 1.531 . S
C1651 C1650 1.369 . S
C1651 C1652 1.410 . S
C1651 C1659 1.503 . S
C1652 C1651 1.410 . S
C1652 C1653 1.392 . S
C1652 C1655 1.511 . S
C1653 C1649 1.376 . S
C1653 C1652 1.392 . S
C1653 H1665 0.929 . S
C1654 C1650 1.531 . S
C1654 H1666 0.960 . S
C1654 H1667 0.962 . S
C1654 H1668 0.960 . S
C1655 C1652 1.511 . S
C1655 H1669 0.961 . S
C1655 H1670 0.961 . S
C1655 H1671 0.961 . S
C1656 C1657 1.370 . S
C1656 C1658 1.363 . S
C1656 H1672 0.931 . S
C1657 C1656 1.370 . S
C1657 C1661 1.408 . S
C1658 C1656 1.363 . S
C1658 C1659 1.370 . S
C1658 C1662 1.524 . S
C1659 C1651 1.503 . S
C1659 C1658 1.370 . S
C1659 C1660 1.403 . S
C1660 C1659 1.403 . S
C1660 C1661 1.404 . S
C1660 C1663 1.539 . S
C1661 C1657 1.408 . S
C1661 C1660 1.404 . S
C1661 H1673 0.930 . S
C1662 C1658 1.524 . S
C1662 H1674 0.956 . S
C1662 H1675 0.961 . S
C1662 H1676 0.961 . S
C1663 C1660 1.539 . S
C1663 H1677 0.958 . S
C1663 H1678 0.961 . S
C1663 H1679 0.960 . S
H1664 C1648 0.931 . S
H1665 C1653 0.929 . S
H1666 C1654 0.960 . S
H1667 C1654 0.962 . S
H1668 C1654 0.960 . S
H1669 C1655 0.961 . S
H1670 C1655 0.961 . S
H1671 C1655 0.961 . S
H1672 C1656 0.931 . S
H1673 C1661 0.930 . S
H1674 C1662 0.956 . S
H1675 C1662 0.961 . S
H1676 C1662 0.961 . S
H1677 C1663 0.958 . S
H1678 C1663 0.961 . S
H1679 C1663 0.960 . S
C1680 C1681 1.391 . S
C1680 C1682 1.394 . S
C1680 H1696 0.931 . S
C1681 C1680 1.391 . S
C1681 C1685 1.376 . S
C1682 C1680 1.394 . S
C1682 C1683 1.369 . S
C1682 C1686 1.531 . S
C1683 C1682 1.369 . S
C1683 C1684 1.410 . S
C1683 C1691 1.503 . S
C1684 C1683 1.410 . S
C1684 C1685 1.392 . S
C1684 C1687 1.511 . S
C1685 C1681 1.376 . S
C1685 C1684 1.392 . S
C1685 H1697 0.929 . S
C1686 C1682 1.531 . S
C1686 H1698 0.960 . S
C1686 H1699 0.962 . S
C1686 H1700 0.960 . S
C1687 C1684 1.511 . S
C1687 H1701 0.961 . S
C1687 H1702 0.961 . S
C1687 H1703 0.961 . S
C1688 C1689 1.370 . S
C1688 C1690 1.363 . S
C1688 H1704 0.931 . S
C1689 C1688 1.370 . S
C1689 C1693 1.408 . S
C1690 C1688 1.363 . S
C1690 C1691 1.370 . S
C1690 C1694 1.524 . S
C1691 C1683 1.503 . S
C1691 C1690 1.370 . S
C1691 C1692 1.403 . S
C1692 C1691 1.403 . S
C1692 C1693 1.404 . S
C1692 C1695 1.539 . S
C1693 C1689 1.408 . S
C1693 C1692 1.404 . S
C1693 H1705 0.930 . S
C1694 C1690 1.524 . S
C1694 H1706 0.956 . S
C1694 H1707 0.961 . S
C1694 H1708 0.961 . S
C1695 C1692 1.539 . S
C1695 H1709 0.958 . S
C1695 H1710 0.961 . S
C1695 H1711 0.960 . S
H1696 C1680 0.931 . S
H1697 C1685 0.929 . S
H1698 C1686 0.960 . S
H1699 C1686 0.962 . S
H1700 C1686 0.960 . S
H1701 C1687 0.961 . S
H1702 C1687 0.961 . S
H1703 C1687 0.961 . S
H1704 C1688 0.931 . S
H1705 C1693 0.930 . S
H1706 C1694 0.956 . S
H1707 C1694 0.961 . S
H1708 C1694 0.961 . S
H1709 C1695 0.958 . S
H1710 C1695 0.961 . S
H1711 C1695 0.960 . S
C1712 C1713 1.391 . S
C1712 C1714 1.394 . S
C1712 H1728 0.931 . S
C1713 C1712 1.391 . S
C1713 C1717 1.376 . S
C1714 C1712 1.394 . S
C1714 C1715 1.369 . S
C1714 C1718 1.531 . S
C1715 C1714 1.369 . S
C1715 C1716 1.410 . S
C1715 C1723 1.503 . S
C1716 C1715 1.410 . S
C1716 C1717 1.392 . S
C1716 C1719 1.511 . S
C1717 C1713 1.376 . S
C1717 C1716 1.392 . S
C1717 H1729 0.929 . S
C1718 C1714 1.531 . S
C1718 H1730 0.960 . S
C1718 H1731 0.962 . S
C1718 H1732 0.960 . S
C1719 C1716 1.511 . S
C1719 H1733 0.961 . S
C1719 H1734 0.961 . S
C1719 H1735 0.961 . S
C1720 C1721 1.370 . S
C1720 C1722 1.363 . S
C1720 H1736 0.931 . S
C1721 C1720 1.370 . S
C1721 C1725 1.408 . S
C1722 C1720 1.363 . S
C1722 C1723 1.370 . S
C1722 C1726 1.524 . S
C1723 C1715 1.503 . S
C1723 C1722 1.370 . S
C1723 C1724 1.403 . S
C1724 C1723 1.403 . S
C1724 C1725 1.404 . S
C1724 C1727 1.539 . S
C1725 C1721 1.408 . S
C1725 C1724 1.404 . S
C1725 H1737 0.930 . S
C1726 C1722 1.524 . S
C1726 H1738 0.956 . S
C1726 H1739 0.961 . S
C1726 H1740 0.961 . S
C1727 C1724 1.539 . S
C1727 H1741 0.958 . S
C1727 H1742 0.961 . S
C1727 H1743 0.960 . S
H1728 C1712 0.931 . S
H1729 C1717 0.929 . S
H1730 C1718 0.960 . S
H1731 C1718 0.962 . S
H1732 C1718 0.960 . S
H1733 C1719 0.961 . S
H1734 C1719 0.961 . S
H1735 C1719 0.961 . S
H1736 C1720 0.931 . S
H1737 C1725 0.930 . S
H1738 C1726 0.956 . S
H1739 C1726 0.961 . S
H1740 C1726 0.961 . S
H1741 C1727 0.958 . S
H1742 C1727 0.961 . S
H1743 C1727 0.960 . S
C1744 C1745 1.391 . S
C1744 C1746 1.394 . S
C1744 H1760 0.931 . S
C1745 C1744 1.391 . S
C1745 C1749 1.376 . S
C1746 C1744 1.394 . S
C1746 C1747 1.369 . S
C1746 C1750 1.531 . S
C1747 C1746 1.369 . S
C1747 C1748 1.410 . S
C1747 C1755 1.503 . S
C1748 C1747 1.410 . S
C1748 C1749 1.392 . S
C1748 C1751 1.511 . S
C1749 C1745 1.376 . S
C1749 C1748 1.392 . S
C1749 H1761 0.929 . S
C1750 C1746 1.531 . S
C1750 H1762 0.960 . S
C1750 H1763 0.962 . S
C1750 H1764 0.960 . S
C1751 C1748 1.511 . S
C1751 H1765 0.961 . S
C1751 H1766 0.961 . S
C1751 H1767 0.961 . S
C1752 C1753 1.370 . S
C1752 C1754 1.363 . S
C1752 H1768 0.931 . S
C1753 C1752 1.370 . S
C1753 C1757 1.408 . S
C1754 C1752 1.363 . S
C1754 C1755 1.370 . S
C1754 C1758 1.524 . S
C1755 C1747 1.503 . S
C1755 C1754 1.370 . S
C1755 C1756 1.403 . S
C1756 C1755 1.403 . S
C1756 C1757 1.404 . S
C1756 C1759 1.539 . S
C1757 C1753 1.408 . S
C1757 C1756 1.404 . S
C1757 H1769 0.930 . S
C1758 C1754 1.524 . S
C1758 H1770 0.956 . S
C1758 H1771 0.961 . S
C1758 H1772 0.961 . S
C1759 C1756 1.539 . S
C1759 H1773 0.958 . S
C1759 H1774 0.961 . S
C1759 H1775 0.960 . S
H1760 C1744 0.931 . S
H1761 C1749 0.929 . S
H1762 C1750 0.960 . S
H1763 C1750 0.962 . S
H1764 C1750 0.960 . S
H1765 C1751 0.961 . S
H1766 C1751 0.961 . S
H1767 C1751 0.961 . S
H1768 C1752 0.931 . S
H1769 C1757 0.930 . S
H1770 C1758 0.956 . S
H1771 C1758 0.961 . S
H1772 C1758 0.961 . S
H1773 C1759 0.958 . S
H1774 C1759 0.961 . S
H1775 C1759 0.960 . S
C1776 C1777 1.391 . S
C1776 C1778 1.394 . S
C1776 H1792 0.931 . S
C1777 C1776 1.391 . S
C1777 C1781 1.376 . S
C1778 C1776 1.394 . S
C1778 C1779 1.369 . S
C1778 C1782 1.531 . S
C1779 C1778 1.369 . S
C1779 C1780 1.410 . S
C1779 C1787 1.503 . S
C1780 C1779 1.410 . S
C1780 C1781 1.392 . S
C1780 C1783 1.511 . S
C1781 C1777 1.376 . S
C1781 C1780 1.392 . S
C1781 H1793 0.929 . S
C1782 C1778 1.531 . S
C1782 H1794 0.960 . S
C1782 H1795 0.962 . S
C1782 H1796 0.960 . S
C1783 C1780 1.511 . S
C1783 H1797 0.961 . S
C1783 H1798 0.961 . S
C1783 H1799 0.961 . S
C1784 C1785 1.370 . S
C1784 C1786 1.363 . S
C1784 H1800 0.931 . S
C1785 C1784 1.370 . S
C1785 C1789 1.408 . S
C1786 C1784 1.363 . S
C1786 C1787 1.370 . S
C1786 C1790 1.524 . S
C1787 C1779 1.503 . S
C1787 C1786 1.370 . S
C1787 C1788 1.403 . S
C1788 C1787 1.403 . S
C1788 C1789 1.404 . S
C1788 C1791 1.539 . S
C1789 C1785 1.408 . S
C1789 C1788 1.404 . S
C1789 H1801 0.930 . S
C1790 C1786 1.524 . S
C1790 H1802 0.956 . S
C1790 H1803 0.961 . S
C1790 H1804 0.961 . S
C1791 C1788 1.539 . S
C1791 H1805 0.958 . S
C1791 H1806 0.961 . S
C1791 H1807 0.960 . S
H1792 C1776 0.931 . S
H1793 C1781 0.929 . S
H1794 C1782 0.960 . S
H1795 C1782 0.962 . S
H1796 C1782 0.960 . S
H1797 C1783 0.961 . S
H1798 C1783 0.961 . S
H1799 C1783 0.961 . S
H1800 C1784 0.931 . S
H1801 C1789 0.930 . S
H1802 C1790 0.956 . S
H1803 C1790 0.961 . S
H1804 C1790 0.961 . S
H1805 C1791 0.958 . S
H1806 C1791 0.961 . S
H1807 C1791 0.960 . S
C1808 C1809 1.391 . S
C1808 C1810 1.394 . S
C1808 H1824 0.931 . S
C1809 C1808 1.391 . S
C1809 C1813 1.376 . S
C1810 C1808 1.394 . S
C1810 C1811 1.369 . S
C1810 C1814 1.531 . S
C1811 C1810 1.369 . S
C1811 C1812 1.410 . S
C1811 C1819 1.503 . S
C1812 C1811 1.410 . S
C1812 C1813 1.392 . S
C1812 C1815 1.511 . S
C1813 C1809 1.376 . S
C1813 C1812 1.392 . S
C1813 H1825 0.929 . S
C1814 C1810 1.531 . S
C1814 H1826 0.960 . S
C1814 H1827 0.962 . S
C1814 H1828 0.960 . S
C1815 C1812 1.511 . S
C1815 H1829 0.961 . S
C1815 H1830 0.961 . S
C1815 H1831 0.961 . S
C1816 C1817 1.370 . S
C1816 C1818 1.363 . S
C1816 H1832 0.931 . S
C1817 C1816 1.370 . S
C1817 C1821 1.408 . S
C1818 C1816 1.363 . S
C1818 C1819 1.370 . S
C1818 C1822 1.524 . S
C1819 C1811 1.503 . S
C1819 C1818 1.370 . S
C1819 C1820 1.403 . S
C1820 C1819 1.403 . S
C1820 C1821 1.404 . S
C1820 C1823 1.539 . S
C1821 C1817 1.408 . S
C1821 C1820 1.404 . S
C1821 H1833 0.930 . S
C1822 C1818 1.524 . S
C1822 H1834 0.956 . S
C1822 H1835 0.961 . S
C1822 H1836 0.961 . S
C1823 C1820 1.539 . S
C1823 H1837 0.958 . S
C1823 H1838 0.961 . S
C1823 H1839 0.960 . S
H1824 C1808 0.931 . S
H1825 C1813 0.929 . S
H1826 C1814 0.960 . S
H1827 C1814 0.962 . S
H1828 C1814 0.960 . S
H1829 C1815 0.961 . S
H1830 C1815 0.961 . S
H1831 C1815 0.961 . S
H1832 C1816 0.931 . S
H1833 C1821 0.930 . S
H1834 C1822 0.956 . S
H1835 C1822 0.961 . S
H1836 C1822 0.961 . S
H1837 C1823 0.958 . S
H1838 C1823 0.961 . S
H1839 C1823 0.960 . S
C1840 C1841 1.391 . S
C1840 C1842 1.394 . S
C1840 H1856 0.931 . S
C1841 C1840 1.391 . S
C1841 C1845 1.376 . S
C1842 C1840 1.394 . S
C1842 C1843 1.369 . S
C1842 C1846 1.531 . S
C1843 C1842 1.369 . S
C1843 C1844 1.410 . S
C1843 C1851 1.503 . S
C1844 C1843 1.410 . S
C1844 C1845 1.392 . S
C1844 C1847 1.511 . S
C1845 C1841 1.376 . S
C1845 C1844 1.392 . S
C1845 H1857 0.929 . S
C1846 C1842 1.531 . S
C1846 H1858 0.960 . S
C1846 H1859 0.962 . S
C1846 H1860 0.960 . S
C1847 C1844 1.511 . S
C1847 H1861 0.961 . S
C1847 H1862 0.961 . S
C1847 H1863 0.961 . S
C1848 C1849 1.370 . S
C1848 C1850 1.363 . S
C1848 H1864 0.931 . S
C1849 C1848 1.370 . S
C1849 C1853 1.408 . S
C1850 C1848 1.363 . S
C1850 C1851 1.370 . S
C1850 C1854 1.524 . S
C1851 C1843 1.503 . S
C1851 C1850 1.370 . S
C1851 C1852 1.403 . S
C1852 C1851 1.403 . S
C1852 C1853 1.404 . S
C1852 C1855 1.539 . S
C1853 C1849 1.408 . S
C1853 C1852 1.404 . S
C1853 H1865 0.930 . S
C1854 C1850 1.524 . S
C1854 H1866 0.956 . S
C1854 H1867 0.961 . S
C1854 H1868 0.961 . S
C1855 C1852 1.539 . S
C1855 H1869 0.958 . S
C1855 H1870 0.961 . S
C1855 H1871 0.960 . S
H1856 C1840 0.931 . S
H1857 C1845 0.929 . S
H1858 C1846 0.960 . S
H1859 C1846 0.962 . S
H1860 C1846 0.960 . S
H1861 C1847 0.961 . S
H1862 C1847 0.961 . S
H1863 C1847 0.961 . S
H1864 C1848 0.931 . S
H1865 C1853 0.930 . S
H1866 C1854 0.956 . S
H1867 C1854 0.961 . S
H1868 C1854 0.961 . S
H1869 C1855 0.958 . S
H1870 C1855 0.961 . S
H1871 C1855 0.960 . S
C337 C216 1.400 . S
C345 C7 1.396 . S
C369 C174 1.382 . S
C377 C20 1.389 . S
C401 C189 1.394 . S
C409 C34 1.392 . S
C433 C203 1.395 . S
C441 C49 1.395 . S
C465 C202 1.370 . S
C473 C21 1.384 . S
C497 C35 1.402 . S
C505 C217 1.397 . S
C529 C175 1.396 . S
C537 C48 1.395 . S
C561 C188 1.385 . S
C569 C6 1.388 . S
C593 C258 1.402 . S
C601 C62 1.397 . S
C625 C77 1.370 . S
C633 C273 1.383 . S
C657 C90 1.394 . S
C665 C230 1.394 . S
C689 C245 1.389 . S
C697 C105 1.390 . S
C721 C315 1.400 . S
C729 C119 1.396 . S
C753 C132 1.401 . S
C761 C328 1.396 . S
C785 C147 1.388 . S
C793 C287 1.392 . S
C817 C160 1.371 . S
C825 C300 1.384 . S
C849 C244 1.402 . S
C857 C161 1.396 . S
C881 C329 1.371 . S
C889 C76 1.383 . S
C913 C91 1.378 . S
C921 C286 1.386 . S
C945 C301 1.393 . S
C953 C104 1.392 . S
C977 C314 1.397 . S
C985 C63 1.393 . S
C1009 C133 1.396 . S
C1017 C272 1.393 . S
C1041 C231 1.397 . S
C1049 C146 1.395 . S
C1073 C259 1.380 . S
C1081 C118 1.388 . S
C1105 C8 0.935 . S
C1113 C64 0.900 . S
C1137 C79 0.898 . S
C1145 C23 0.906 . S
C1169 C37 0.934 . S
C1177 C92 0.928 . S
C1201 C50 0.921 . S
C1209 C107 0.931 . S
C1233 C121 0.947 . S
C1241 C22 0.902 . S
C1265 C134 0.935 . S
C1273 C36 0.900 . S
C1297 C149 0.929 . S
C1305 C51 0.900 . S
C1329 C9 0.892 . S
C1337 C162 0.908 . S
C1361 C163 0.896 . S
C1369 C65 0.907 . S
C1393 C78 0.888 . S
C1401 C120 0.910 . S
C1425 C93 0.892 . S
C1433 C135 0.908 . S
C1457 C148 0.952 . S
C1465 C106 0.904 . S
C1489 C232 0.948 . S
C1497 C176 0.916 . S
C1521 C247 0.907 . S
C1529 C191 0.932 . S
C1553 C205 0.875 . S
C1561 C260 0.927 . S
C1585 C218 0.889 . S
C1593 C275 0.915 . S
C1617 C190 0.955 . S
C1625 C289 0.908 . S
C1649 C204 0.887 . S
C1657 C302 0.934 . S
C1681 C317 0.901 . S
C1689 C219 0.933 . S
C1713 C177 0.927 . S
C1721 C330 0.902 . S
C1745 C233 0.931 . S
C1753 C331 0.901 . S
C1777 C288 0.879 . S
C1785 C246 0.932 . S
C1809 C261 0.886 . S
C1817 C303 0.934 . S
C1841 C316 0.941 . S
C1849 C274 0.920 . S
