# Generated by pormake.
# Topology bcs, (6)-cn, num edge types: 1
# Building blocks:
#     Node 0, Type 0, BuildingBlock: KUMJIN_clean_sbu_1, # of connection points: 6
#     Node 1, Type 0, BuildingBlock: KUMJIN_clean_sbu_1, # of connection points: 6
#     Node 2, Type 0, BuildingBlock: KUMJIN_clean_sbu_1, # of connection points: 6
#     Node 3, Type 0, BuildingBlock: KUMJIN_clean_sbu_1, # of connection points: 6
#     Node 4, Type 0, BuildingBlock: KUMJIN_clean_sbu_1, # of connection points: 6
#     Node 5, Type 0, BuildingBlock: KUMJIN_clean_sbu_1, # of connection points: 6
#     Node 6, Type 0, BuildingBlock: KUMJIN_clean_sbu_1, # of connection points: 6
#     Node 7, Type 0, BuildingBlock: KUMJIN_clean_sbu_1, # of connection points: 6
#     Node 8, Type 0, BuildingBlock: KUMJIN_clean_sbu_1, # of connection points: 6
#     Node 9, Type 0, BuildingBlock: KUMJIN_clean_sbu_1, # of connection points: 6
#     Node 10, Type 0, BuildingBlock: KUMJIN_clean_sbu_1, # of connection points: 6
#     Node 11, Type 0, BuildingBlock: KUMJIN_clean_sbu_1, # of connection points: 6
#     Node 12, Type 0, BuildingBlock: KUMJIN_clean_sbu_1, # of connection points: 6
#     Node 13, Type 0, BuildingBlock: KUMJIN_clean_sbu_1, # of connection points: 6
#     Node 14, Type 0, BuildingBlock: KUMJIN_clean_sbu_1, # of connection points: 6
#     Node 15, Type 0, BuildingBlock: KUMJIN_clean_sbu_1, # of connection points: 6
#     Edge 16, Type (0, 0), BuildingBlock: AJUNOK_clean_linker_0, # of connection points: 2
#     Edge 17, Type (0, 0), BuildingBlock: AJUNOK_clean_linker_0, # of connection points: 2
#     Edge 18, Type (0, 0), BuildingBlock: AJUNOK_clean_linker_0, # of connection points: 2
#     Edge 19, Type (0, 0), BuildingBlock: AJUNOK_clean_linker_0, # of connection points: 2
#     Edge 20, Type (0, 0), BuildingBlock: AJUNOK_clean_linker_0, # of connection points: 2
#     Edge 21, Type (0, 0), BuildingBlock: AJUNOK_clean_linker_0, # of connection points: 2
#     Edge 22, Type (0, 0), BuildingBlock: AJUNOK_clean_linker_0, # of connection points: 2
#     Edge 23, Type (0, 0), BuildingBlock: AJUNOK_clean_linker_0, # of connection points: 2
#     Edge 24, Type (0, 0), BuildingBlock: AJUNOK_clean_linker_0, # of connection points: 2
#     Edge 25, Type (0, 0), BuildingBlock: AJUNOK_clean_linker_0, # of connection points: 2
#     Edge 26, Type (0, 0), BuildingBlock: AJUNOK_clean_linker_0, # of connection points: 2
#     Edge 27, Type (0, 0), BuildingBlock: AJUNOK_clean_linker_0, # of connection points: 2
#     Edge 28, Type (0, 0), BuildingBlock: AJUNOK_clean_linker_0, # of connection points: 2
#     Edge 29, Type (0, 0), BuildingBlock: AJUNOK_clean_linker_0, # of connection points: 2
#     Edge 30, Type (0, 0), BuildingBlock: AJUNOK_clean_linker_0, # of connection points: 2
#     Edge 31, Type (0, 0), BuildingBlock: AJUNOK_clean_linker_0, # of connection points: 2
#     Edge 32, Type (0, 0), BuildingBlock: AJUNOK_clean_linker_0, # of connection points: 2
#     Edge 33, Type (0, 0), BuildingBlock: AJUNOK_clean_linker_0, # of connection points: 2
#     Edge 34, Type (0, 0), BuildingBlock: AJUNOK_clean_linker_0, # of connection points: 2
#     Edge 35, Type (0, 0), BuildingBlock: AJUNOK_clean_linker_0, # of connection points: 2
#     Edge 36, Type (0, 0), BuildingBlock: AJUNOK_clean_linker_0, # of connection points: 2
#     Edge 37, Type (0, 0), BuildingBlock: AJUNOK_clean_linker_0, # of connection points: 2
#     Edge 38, Type (0, 0), BuildingBlock: AJUNOK_clean_linker_0, # of connection points: 2
#     Edge 39, Type (0, 0), BuildingBlock: AJUNOK_clean_linker_0, # of connection points: 2
#     Edge 40, Type (0, 0), BuildingBlock: AJUNOK_clean_linker_0, # of connection points: 2
#     Edge 41, Type (0, 0), BuildingBlock: AJUNOK_clean_linker_0, # of connection points: 2
#     Edge 42, Type (0, 0), BuildingBlock: AJUNOK_clean_linker_0, # of connection points: 2
#     Edge 43, Type (0, 0), BuildingBlock: AJUNOK_clean_linker_0, # of connection points: 2
#     Edge 44, Type (0, 0), BuildingBlock: AJUNOK_clean_linker_0, # of connection points: 2
#     Edge 45, Type (0, 0), BuildingBlock: AJUNOK_clean_linker_0, # of connection points: 2
#     Edge 46, Type (0, 0), BuildingBlock: AJUNOK_clean_linker_0, # of connection points: 2
#     Edge 47, Type (0, 0), BuildingBlock: AJUNOK_clean_linker_0, # of connection points: 2
#     Edge 48, Type (0, 0), BuildingBlock: AJUNOK_clean_linker_0, # of connection points: 2
#     Edge 49, Type (0, 0), BuildingBlock: AJUNOK_clean_linker_0, # of connection points: 2
#     Edge 50, Type (0, 0), BuildingBlock: AJUNOK_clean_linker_0, # of connection points: 2
#     Edge 51, Type (0, 0), BuildingBlock: AJUNOK_clean_linker_0, # of connection points: 2
#     Edge 52, Type (0, 0), BuildingBlock: AJUNOK_clean_linker_0, # of connection points: 2
#     Edge 53, Type (0, 0), BuildingBlock: AJUNOK_clean_linker_0, # of connection points: 2
#     Edge 54, Type (0, 0), BuildingBlock: AJUNOK_clean_linker_0, # of connection points: 2
#     Edge 55, Type (0, 0), BuildingBlock: AJUNOK_clean_linker_0, # of connection points: 2
#     Edge 56, Type (0, 0), BuildingBlock: AJUNOK_clean_linker_0, # of connection points: 2
#     Edge 57, Type (0, 0), BuildingBlock: AJUNOK_clean_linker_0, # of connection points: 2
#     Edge 58, Type (0, 0), BuildingBlock: AJUNOK_clean_linker_0, # of connection points: 2
#     Edge 59, Type (0, 0), BuildingBlock: AJUNOK_clean_linker_0, # of connection points: 2
#     Edge 60, Type (0, 0), BuildingBlock: AJUNOK_clean_linker_0, # of connection points: 2
#     Edge 61, Type (0, 0), BuildingBlock: AJUNOK_clean_linker_0, # of connection points: 2
#     Edge 62, Type (0, 0), BuildingBlock: AJUNOK_clean_linker_0, # of connection points: 2
#     Edge 63, Type (0, 0), BuildingBlock: AJUNOK_clean_linker_0, # of connection points: 2
# Relax obj value: 0.102
# Max RMSD: 0.222
# Mean RMSD: 0.145
data_MOF--net-bcs--node1-KUMJIN_clean_sbu_1--edge1-AJUNOK_clean_linker_0
_symmetry_space_group_name_H-M    P1
_symmetry_Int_Tables_number       1
_symmetry_cell_setting            triclinic
loop_
_symmetry_equiv_pos_as_xyz
'x, y, z'
_cell_length_a     34.138823
_cell_length_b     32.987468
_cell_length_c     33.265
_cell_angle_alpha  104.84325
_cell_angle_beta   75.708604
_cell_angle_gamma 127.79684
loop_
_atom_site_label
_atom_site_type_symbol
_atom_site_fract_x
_atom_site_fract_y
_atom_site_fract_z
_atom_type_partial_charge
Eu0 Eu 1.00312 0.05031 0.06492 0.0
C1 C 0.9445 0.84599 0.93898 0.0
N2 N 0.97323 0.86982 0.97076 0.0
C3 C 0.93342 0.78812 0.99412 0.0
C4 C 0.90785 0.79178 0.93464 0.0
C5 C 0.97149 0.84105 0.9955 0.0
C6 C 0.90055 0.76349 0.96409 0.0
C7 C 0.93774 0.84714 0.86875 0.0
C8 C 0.95704 0.87411 0.90691 0.0
C9 C 0.89918 0.79431 0.86597 0.0
C10 C 0.88318 0.76671 0.89895 0.0
Eu11 Eu 0.0352 0.95918 0.9686 0.0
N12 N 0.9944 0.92581 0.90992 0.0
C13 C 0.9606 0.87307 0.83353 0.0
C14 C 1.0158 0.95166 0.87587 0.0
C15 C 0.99915 0.92565 0.8371 0.0
H16 H 0.99811 0.85959 1.01779 0.0
H17 H 1.01709 0.94564 0.80981 0.0
H18 H 0.05713 0.16173 0.02207 0.0
H19 H 0.99848 0.05039 0.22618 0.0
H20 H 0.04758 0.99179 0.87833 0.0
H21 H 0.95005 0.85271 0.80302 0.0
H22 H 0.9733 0.00981 0.1548 0.0
H23 H 0.93034 0.76615 1.01542 0.0
H24 H 0.88129 0.77427 0.8383 0.0
H25 H 0.85423 0.72534 0.89517 0.0
H26 H 0.14047 0.24634 0.02047 0.0
H27 H 0.87226 0.72199 0.96185 0.0
H28 H 0.07493 0.13908 0.23635 0.0
N29 N 0.07253 0.13822 0.06666 0.0
C30 C 0.09855 0.15545 0.09923 0.0
C31 C 0.12919 0.22131 0.0429 0.0
C32 C 0.14148 0.2071 0.10435 0.0
C33 C 0.08267 0.17323 0.04345 0.0
C34 C 0.15959 0.23808 0.07327 0.0
N35 N 0.03625 0.07506 0.12634 0.0
C36 C 1.00799 0.04789 0.15944 0.0
C37 C 0.09382 0.14815 0.17068 0.0
C38 C 0.07755 0.12475 0.13129 0.0
C39 C 0.06456 0.12138 0.20518 0.0
C40 C 0.02139 0.07105 0.19961 0.0
H41 H 0.19391 0.27697 0.07513 0.0
H42 H 0.19455 0.26736 0.14687 0.0
H43 H 0.15367 0.21396 0.20294 0.0
O44 O 0.93161 0.04473 0.07733 0.0
O45 O 0.03241 1.0046 0.0852 0.0
O46 O 0.05571 0.95959 0.02982 0.0
O47 O 0.98296 0.09178 0.12017 0.0
O48 O 0.93929 0.9656 0.05211 0.0
O49 O 0.97603 0.92322 0.0261 0.0
O50 O 0.1106 0.97399 0.95394 0.0
O51 O 1.00437 1.00343 0.94854 0.0
O52 O 0.98251 0.04962 1.00417 0.0
O53 O 0.05658 0.91632 0.91489 0.0
O54 O 0.09587 0.04403 0.98355 0.0
O55 O 0.06044 0.08677 1.00582 0.0
C56 C 0.05196 0.97611 0.07051 0.0
C57 C 0.92879 0.11676 0.12247 0.0
C58 C 0.88456 0.15968 0.16126 0.0
C59 C 0.92098 0.20098 0.13854 0.0
C60 C 0.96349 0.16129 0.10295 0.0
C61 C 0.95972 0.20239 0.11097 0.0
C62 C 0.88892 0.11645 0.15296 0.0
C63 C 0.94032 0.92621 0.0501 0.0
C64 C 0.93995 0.07565 0.11267 0.0
C65 C 0.16183 0.22774 0.14194 0.0
C66 C 0.1373 0.1984 0.17483 0.0
C67 C 0.9852 0.03213 0.96371 0.0
C68 C 0.12103 0.905 0.91631 0.0
C69 C 0.16743 0.86403 0.87881 0.0
C70 C 0.15202 0.84105 0.91501 0.0
C71 C 0.10755 0.87922 0.95015 0.0
C72 C 0.15153 0.89694 0.87975 0.0
C73 C 0.12313 0.84857 0.94966 0.0
C74 C 0.09343 0.08076 0.97984 0.0
C75 C 0.10196 0.93889 0.9213 0.0
H76 H 0.9189 0.23279 0.1416 0.0
H77 H 0.99437 0.1646 0.0812 0.0
H78 H 0.98705 0.23598 0.095 0.0
H79 H 0.86189 0.08332 0.16949 0.0
H80 H 0.16232 0.81629 0.91654 0.0
H81 H 0.08452 0.88284 0.97763 0.0
H82 H 0.16236 0.91564 0.85265 0.0
H83 H 0.11198 0.82958 0.97667 0.0
Eu84 Eu 0.20363 0.81982 0.28204 0.0
C85 C 0.31597 0.70535 0.18464 0.0
N86 N 0.26986 0.68807 0.20568 0.0
C87 C 0.23331 0.60861 0.1583 0.0
C88 C 0.32227 0.67456 0.14927 0.0
C89 C 0.22898 0.63974 0.19393 0.0
C90 C 0.2801 0.62623 0.13571 0.0
C91 C 0.40596 0.77005 0.18013 0.0
C92 C 0.35751 0.75282 0.19972 0.0
C93 C 0.41207 0.73852 0.14597 0.0
C94 C 0.37049 0.69159 0.1299 0.0
Eu95 Eu 0.2689 0.74114 0.26827 0.0
N96 N 0.35082 0.7811 0.23458 0.0
C97 C 0.44697 0.8175 0.19656 0.0
C98 C 0.39056 0.82563 0.25204 0.0
C99 C 0.43919 0.84542 0.23281 0.0
H100 H 0.19298 0.62477 0.21228 0.0
H101 H 0.47067 0.88112 0.24672 0.0
H102 H 0.28021 0.94352 0.32746 0.0
H103 H 1.00305 0.6796 0.32149 0.0
H104 H 0.38449 0.84411 0.28171 0.0
H105 H 0.48474 0.83218 0.1822 0.0
H106 H 0.08356 0.71849 0.27594 0.0
H107 H 0.20068 0.57063 0.14875 0.0
H108 H 0.44886 0.74909 0.13281 0.0
H109 H 0.37614 0.66786 0.1034 0.0
H110 H 0.28243 0.99502 0.3968 0.0
H111 H 0.28348 0.60156 0.10865 0.0
H112 H 0.99917 0.72374 0.39321 0.0
N113 N 0.20733 0.87698 0.34304 0.0
C114 C 0.1654 0.85686 0.37092 0.0
C115 C 0.24941 0.95615 0.38997 0.0
C116 C 0.16445 0.88552 0.41014 0.0
C117 C 0.24794 0.9271 0.3508 0.0
C118 C 0.20768 0.93494 0.42002 0.0
N119 N 0.12435 0.78151 0.32159 0.0
C120 C 0.08174 0.73747 0.3069 0.0
C121 C 0.07759 0.788 0.38687 0.0
C122 C 0.12258 0.80824 0.35968 0.0
C123 C 0.0344 0.74064 0.3732 0.0
C124 C 0.03636 0.71563 0.33275 0.0
H125 H 0.2086 0.95774 0.4502 0.0
H126 H 0.11964 0.88576 0.46842 0.0
H127 H 0.04293 0.80081 0.44794 0.0
O128 O 0.15461 0.81392 0.24001 0.0
O129 O 0.16016 0.74636 0.32086 0.0
O130 O 0.21999 0.73775 0.3285 0.0
O131 O 0.21689 0.88703 0.26325 0.0
O132 O 0.19711 0.764 0.22277 0.0
O133 O 0.19451 0.70261 0.24578 0.0
O134 O 0.31294 0.73498 0.30073 0.0
O135 O 0.29676 0.79329 0.21942 0.0
O136 O 0.28449 0.85761 0.24829 0.0
O137 O 0.24133 0.6661 0.28213 0.0
O138 O 0.29978 0.81043 0.31942 0.0
O139 O 0.26672 0.85722 0.32653 0.0
C140 C 0.17502 0.72624 0.33919 0.0
C141 C 0.17035 0.89763 0.22324 0.0
C142 C 0.13363 0.92334 0.18213 0.0
C143 C 0.16057 0.97248 0.20551 0.0
C144 C 0.19819 0.95009 0.24075 0.0
C145 C 0.19238 0.98564 0.23323 0.0
C146 C 0.13797 0.88441 0.19191 0.0
C147 C 0.19067 0.71938 0.21615 0.0
C148 C 0.18061 0.8639 0.24033 0.0
C149 C 0.12041 0.86438 0.43804 0.0
C150 C 0.07695 0.81599 0.42638 0.0
C151 C 0.30617 0.83853 0.21942 0.0
C152 C 0.30307 0.65531 0.28677 0.0
C153 C 0.34763 0.63083 0.30994 0.0
C154 C 0.33033 0.58858 0.27776 0.0
C155 C 0.28564 0.6125 0.25531 0.0
C156 C 0.33628 0.6659 0.3123 0.0
C157 C 0.29961 0.57967 0.25072 0.0
C158 C 0.29569 0.84832 0.33831 0.0
C159 C 0.28166 0.68472 0.29802 0.0
H160 H 0.15814 1.00242 0.2014 0.0
H161 H 0.22518 0.96473 0.26177 0.0
H162 H 0.21361 0.02491 0.24922 0.0
H163 H 0.11688 0.84528 0.17573 0.0
H164 H 0.33785 0.56048 0.27504 0.0
H165 H 0.25972 0.60306 0.23539 0.0
H166 H 0.3503 0.69964 0.33601 0.0
H167 H 0.28468 0.54577 0.22734 0.0
Eu168 Eu 0.4725 0.94618 0.55148 0.0
C169 C 0.67293 0.12736 0.44129 0.0
N170 N 0.65476 0.13148 0.48114 0.0
C171 C 0.73474 0.21377 0.49752 0.0
C172 C 0.73422 0.17762 0.42483 0.0
C173 C 0.68343 0.17458 0.50835 0.0
C174 C 0.76024 0.21521 0.45694 0.0
C175 C 0.65158 0.07657 0.34996 0.0
C176 C 0.63191 0.07802 0.40484 0.0
C177 C 0.71425 0.12735 0.33127 0.0
C178 C 0.75618 0.17914 0.36864 0.0
Eu179 Eu 0.56766 0.07008 0.4879 0.0
N180 N 0.58618 0.04029 0.41864 0.0
C181 C 0.61607 0.03294 0.32624 0.0
C182 C 0.55756 0.99744 0.39155 0.0
C183 C 0.57148 0.9936 0.34719 0.0
H184 H 0.66662 0.17948 0.53963 0.0
H185 H 0.5465 0.95778 0.32825 0.0
H186 H 0.36876 0.84285 0.49932 0.0
H187 H 0.50128 0.05061 0.71404 0.0
H188 H 0.52313 0.96466 0.40422 0.0
H189 H 0.62404 0.02722 0.29255 0.0
H190 H 0.52384 0.04558 0.63901 0.0
H191 H 0.75512 0.24537 0.52161 0.0
H192 H 0.7266 0.12626 0.29811 0.0
H193 H 0.79352 0.21075 0.35867 0.0
H194 H 0.28017 0.78104 0.51807 0.0
H195 H 0.79916 0.24643 0.4506 0.0
H196 H 0.41963 0.98561 0.74903 0.0
N197 N 0.38471 0.88716 0.55948 0.0
C198 C 0.36771 0.88971 0.59992 0.0
C199 C 0.30231 0.80902 0.54294 0.0
C200 C 0.30631 0.83924 0.6168 0.0
C201 C 0.35385 0.84684 0.53159 0.0
C202 C 0.27887 0.80374 0.58454 0.0
N203 N 0.45647 0.97448 0.62259 0.0
C204 C 0.48742 0.01441 0.65051 0.0
C205 C 0.39006 0.93974 0.69129 0.0
C206 C 0.4094 0.93877 0.63623 0.0
C207 C 0.427 0.98085 0.71523 0.0
C208 C 0.47376 0.01762 0.69474 0.0
H209 H 0.24006 0.77219 0.59118 0.0
H210 H 0.24723 0.80729 0.68454 0.0
H211 H 0.31543 0.89105 0.74315 0.0
O212 O 0.45524 0.89364 0.59104 0.0
O213 O 0.44277 0.99321 0.56459 0.0
O214 O 0.52223 0.05398 0.55034 0.0
O215 O 0.46793 0.87587 0.52732 0.0
O216 O 0.55191 1.00715 0.57768 0.0
O217 O 0.6039 0.08348 0.54612 0.0
O218 O 0.57286 0.10956 0.44245 0.0
O219 O 0.60108 0.02747 0.47576 0.0
O220 O 0.52225 0.97084 0.49232 0.0
O221 O 0.58338 0.1461 0.50367 0.0
O222 O 0.48835 0.00855 0.46171 0.0
O223 O 0.43534 0.93345 0.49447 0.0
C224 C 0.4771 0.04116 0.55923 0.0
C225 C 0.51616 0.82491 0.57856 0.0
C226 C 0.59529 0.837 0.59159 0.0
C227 C 0.57461 0.78481 0.57888 0.0
C228 C 0.49718 0.76997 0.57651 0.0
C229 C 0.52655 0.75223 0.56915 0.0
C230 C 0.56981 0.8554 0.58629 0.0
C231 C 0.59466 0.05534 0.57468 0.0
C232 C 0.466 0.86439 0.56362 0.0
C233 C 0.2848 0.83794 0.67345 0.0
C234 C 0.3275 0.88938 0.71023 0.0
C235 C 0.56642 0.981 0.48372 0.0
C236 C 0.526 0.19257 0.45928 0.0
C237 C 0.44121 0.15839 0.44402 0.0
C238 C 0.43222 0.17841 0.48479 0.0
C239 C 0.52054 0.23153 0.48894 0.0
C240 C 0.49108 0.17549 0.42951 0.0
C241 C 0.47305 0.21934 0.50531 0.0
C242 C 0.44522 0.96093 0.46522 0.0
C243 C 0.57263 0.14696 0.46819 0.0
H244 H 0.59335 0.76788 0.57934 0.0
H245 H 0.45852 0.73707 0.57718 0.0
H246 H 0.50987 0.71137 0.55995 0.0
H247 H 0.59649 0.8966 0.58639 0.0
H248 H 0.3954 0.16838 0.49779 0.0
H249 H 0.54962 0.26519 0.50675 0.0
H250 H 0.49941 0.16666 0.39619 0.0
H251 H 0.46829 0.24217 0.53318 0.0
Eu252 Eu 0.23324 0.28583 0.78487 0.0
C253 C 0.29757 0.15321 0.80282 0.0
N254 N 0.31682 0.20418 0.80625 0.0
C255 C 0.36342 0.22503 0.8609 0.0
C256 C 0.30956 0.13621 0.82963 0.0
C257 C 0.35137 0.24017 0.83314 0.0
C258 C 0.34199 0.17274 0.85948 0.0
C259 C 0.24676 0.0649 0.76757 0.0
C260 C 0.26676 0.1178 0.77166 0.0
C261 C 0.25915 0.04827 0.79405 0.0
C262 C 0.29022 0.08374 0.82505 0.0
Eu263 Eu 0.30211 0.22584 0.75221 0.0
N264 N 0.25595 0.13488 0.74574 0.0
C265 C 0.21414 0.02998 0.73746 0.0
C266 C 0.22474 0.101 0.71587 0.0
C267 C 0.20276 0.04807 0.71179 0.0
H268 H 0.37231 0.28073 0.83172 0.0
H269 H 0.17788 0.02136 0.68818 0.0
H270 H 0.14758 0.22097 0.71623 0.0
H271 H 0.36543 0.4939 0.8287 0.0
H272 H 0.21763 0.11429 0.69415 0.0
H273 H 0.19755 0.98899 0.73377 0.0
H274 H 0.32068 0.40182 0.83392 0.0
H275 H 0.39065 0.25392 0.88231 0.0
H276 H 0.24424 1.00784 0.79121 0.0
H277 H 0.29926 0.07018 0.84529 0.0
H278 H 0.12807 0.23943 0.66001 0.0
H279 H 0.35218 0.1612 0.88051 0.0
H280 H 0.34886 0.51879 0.77408 0.0
N281 N 0.21231 0.2979 0.72868 0.0
C282 C 0.23598 0.3484 0.72454 0.0
C283 C 0.15938 0.2703 0.67709 0.0
C284 C 0.22382 0.36127 0.69442 0.0
C285 C 0.17193 0.25955 0.7079 0.0
C286 C 0.18606 0.32132 0.66975 0.0
N287 N 0.28093 0.37493 0.78179 0.0
C288 C 0.31389 0.41215 0.80954 0.0
C289 C 0.29379 0.44002 0.74916 0.0
C290 C 0.27033 0.38774 0.75212 0.0
C291 C 0.32867 0.47831 0.77678 0.0
C292 C 0.33873 0.46442 0.80712 0.0
H293 H 0.17557 0.32967 0.64643 0.0
H294 H 0.23954 0.42393 0.66773 0.0
H295 H 0.30188 0.49274 0.71466 0.0
O296 O 0.20573 0.32929 0.82121 0.0
O297 O 0.30766 0.33082 0.7409 0.0
O298 O 0.31363 0.26731 0.7006 0.0
O299 O 0.15305 0.24632 0.8058 0.0
O300 O 0.2809 0.30873 0.83482 0.0
O301 O 0.34261 0.30659 0.79087 0.0
O302 O 0.33532 0.18992 0.71111 0.0
O303 O 0.2319 0.18306 0.80017 0.0
O304 O 0.22348 0.24641 0.83748 0.0
O305 O 0.38325 0.26863 0.74275 0.0
O306 O 0.2569 0.2068 0.70139 0.0
O307 O 0.19402 0.20532 0.74596 0.0
C308 C 0.32576 0.31442 0.70613 0.0
C309 C 0.13477 0.29005 0.86821 0.0
C310 C 0.11503 0.3399 0.92455 0.0
C311 C 0.08932 0.29959 0.94894 0.0
C312 C 0.10802 0.24883 0.89176 0.0
C313 C 0.08606 0.2541 0.93249 0.0
C314 C 0.1385 0.33529 0.88499 0.0
C315 C 0.3267 0.32206 0.82737 0.0
C316 C 0.15972 0.28921 0.82599 0.0
C317 C 0.24818 0.41346 0.6909 0.0
C318 C 0.28325 0.45267 0.71798 0.0
C319 C 0.21383 0.20054 0.83417 0.0
C320 C 0.41762 0.23998 0.68107 0.0
C321 C 0.45782 0.20534 0.6316 0.0
C322 C 0.49358 0.25365 0.61733 0.0
C323 C 0.45237 0.28846 0.66692 0.0
C324 C 0.42 0.19869 0.66273 0.0
C325 C 0.49028 0.29504 0.63466 0.0
C326 C 0.21098 0.19299 0.70853 0.0
C327 C 0.38065 0.23001 0.71713 0.0
H328 H 0.07031 0.30248 0.97966 0.0
H329 H 0.10408 0.21303 0.87884 0.0
H330 H 0.06554 0.22251 0.95089 0.0
H331 H 0.15838 0.36682 0.86637 0.0
H332 H 0.52377 0.25925 0.59323 0.0
H333 H 0.45077 0.32094 0.68109 0.0
H334 H 0.39351 0.1614 0.67425 0.0
H335 H 0.51761 0.33232 0.62375 0.0
Eu336 Eu 0.99485 0.04958 0.53246 0.0
C337 C 0.10446 0.9627 0.41334 0.0
N338 N 0.05595 0.93816 0.4307 0.0
C339 C 0.0293 0.879 0.3671 0.0
C340 C 0.11681 0.94729 0.3715 0.0
C341 C 1.01869 0.89537 0.40876 0.0
C342 C 0.07851 0.90542 0.34821 0.0
C343 C 0.19292 0.02657 0.42107 0.0
C344 C 0.1423 1.00153 0.438 0.0
C345 C 0.20493 0.01329 0.37877 0.0
C346 C 0.167 0.97309 0.35445 0.0
Eu347 Eu 0.04381 0.96703 0.50245 0.0
N348 N 0.12977 0.01525 0.47851 0.0
C349 C 0.22996 0.0644 0.44718 0.0
C350 C 0.16564 0.0497 0.5048 0.0
C351 C 0.21621 0.0756 0.48936 0.0
H352 H 0.9808 0.8723 0.42342 0.0
H353 H 0.24449 0.10382 0.51007 0.0
H354 H 0.0541 0.14116 0.60963 0.0
H355 H 0.79486 0.89635 0.52234 0.0
H356 H 0.15529 0.05722 0.53766 0.0
H357 H 0.26918 0.08448 0.43524 0.0
H358 H 0.88232 0.95343 0.49382 0.0
H359 H 0.9996 0.84544 0.34979 0.0
H360 H 0.24352 0.03257 0.36496 0.0
H361 H 0.17682 0.96124 0.32276 0.0
H362 H 0.03187 0.17445 0.67952 0.0
H363 H 0.08669 0.8923 0.31603 0.0
H364 H 0.76942 0.91173 0.59743 0.0
N365 N 0.97958 0.07468 0.60263 0.0
C366 C 0.93067 0.04855 0.61865 0.0
C367 C 1.00348 0.13815 0.66322 0.0
C368 C 0.91671 0.06444 0.65943 0.0
C369 C 1.01592 0.11887 0.62392 0.0
C370 C 0.95375 0.11146 0.68054 0.0
N371 N 0.9081 0.99495 0.55289 0.0
C372 C 0.8728 0.95788 0.52694 0.0
C373 C 0.84387 0.9767 0.611 0.0
C374 C 0.89429 1.00637 0.59382 0.0
C375 C 0.80825 0.93549 0.58529 0.0
C376 C 0.8226 0.92653 0.54292 0.0
H377 H 0.94509 0.1295 0.70929 0.0
H378 H 0.85402 0.04336 0.70816 0.0
H379 H 0.79189 0.9669 0.66685 0.0
O380 O 0.95675 0.08205 0.53073 0.0
O381 O 0.97323 0.99669 0.57982 0.0
O382 O 0.96451 0.92741 0.53575 0.0
O383 O 0.0371 0.13313 0.53142 0.0
O384 O 0.96939 0.99586 0.47062 0.0
O385 O 0.9696 0.92795 0.47702 0.0
O386 O 0.06692 0.94977 0.54713 0.0
O387 O 0.09311 0.04599 0.47831 0.0
O388 O 0.03467 0.05243 0.46681 0.0
O389 O 0.03993 0.89659 0.4895 0.0
O390 O 0.06174 0.01819 0.56595 0.0
O391 O 0.07154 0.08849 0.55225 0.0
C392 C 0.95226 0.94665 0.57214 0.0
C393 C 0.99956 0.16103 0.50466 0.0
C394 C 0.95773 0.17309 0.46484 0.0
C395 C 0.99874 0.22498 0.46393 0.0
C396 C 0.04017 0.21339 0.50466 0.0
C397 C 0.0399 0.2451 0.48393 0.0
C398 C 0.9584 0.14116 0.48458 0.0
C399 C 0.95594 0.94795 0.45881 0.0
C400 C 0.99701 0.12924 0.53023 0.0
C401 C 0.86643 0.03378 0.67673 0.0
C402 C 0.83044 0.98957 0.65296 0.0
C403 C 0.0802 0.0654 0.45889 0.0
C404 C 0.04855 0.86711 0.54272 0.0
C405 C 0.08288 0.84152 0.57742 0.0
C406 C 0.03757 0.79209 0.57819 0.0
C407 C 1.00411 0.817 0.54085 0.0
C408 C 0.08757 0.87899 0.56074 0.0
C409 C 0.99836 0.77972 0.55934 0.0
C410 C 0.08133 0.06791 0.5737 0.0
C411 C 0.05896 0.90789 0.52344 0.0
H412 H 0.99854 0.24987 0.44827 0.0
H413 H 0.07173 0.22982 0.52102 0.0
H414 H 0.0713 0.28541 0.48383 0.0
H415 H 0.92589 0.10126 0.48533 0.0
H416 H 0.03327 0.76287 0.59179 0.0
H417 H 0.97462 0.80676 0.52479 0.0
H418 H 0.12264 0.9175 0.56073 0.0
H419 H 0.96407 0.74096 0.5581 0.0
Eu420 Eu 0.30051 0.6895 0.74528 0.0
C421 C 0.47401 0.85363 0.62725 0.0
N422 N 0.46049 0.86126 0.6682 0.0
C423 C 0.5381 0.94854 0.67438 0.0
C424 C 0.52996 0.90464 0.60348 0.0
C425 C 0.49186 0.90697 0.69178 0.0
C426 C 0.55698 0.94786 0.63142 0.0
C427 C 0.44697 0.78336 0.54258 0.0
C428 C 0.4329 0.79545 0.59769 0.0
C429 C 0.506 0.83208 0.51613 0.0
C430 C 0.54773 0.89542 0.54668 0.0
Eu431 Eu 0.37433 0.79745 0.686 0.0
N432 N 0.38955 0.75981 0.61726 0.0
C433 C 0.41078 0.7346 0.52489 0.0
C434 C 0.35882 0.71256 0.59501 0.0
C435 C 0.36878 0.70011 0.55116 0.0
H436 H 0.47997 0.91308 0.72465 0.0
H437 H 0.34177 0.66122 0.53732 0.0
H438 H 0.20594 0.5763 0.69719 0.0
H439 H 0.29062 0.78234 0.90635 0.0
H440 H 0.32519 0.68252 0.61086 0.0
H441 H 0.41619 0.72271 0.49183 0.0
H442 H 0.33036 0.75759 0.84346 0.0
H443 H 0.56015 0.98303 0.69577 0.0
H444 H 0.51601 0.82244 0.48403 0.0
H445 H 0.5837 0.92541 0.53388 0.0
H446 H 0.11379 0.52034 0.70596 0.0
H447 H 0.59354 0.97934 0.62015 0.0
H448 H 0.1998 0.7402 0.9142 0.0
N449 N 0.21186 0.6285 0.75274 0.0
C450 C 0.18684 0.63875 0.78753 0.0
C451 C 0.13389 0.55382 0.72891 0.0
C452 C 0.13428 0.60924 0.79267 0.0
C453 C 0.18612 0.58571 0.72406 0.0
C454 C 0.10789 0.56659 0.76265 0.0
N455 N 0.26448 0.70581 0.81292 0.0
C456 C 0.2915 0.7406 0.84499 0.0
C457 C 0.18922 0.69075 0.85465 0.0
C458 C 0.21383 0.67831 0.81862 0.0
C459 C 0.21744 0.72981 0.88591 0.0
C460 C 0.26869 0.75392 0.88148 0.0
H461 H 0.06748 0.54255 0.76585 0.0
H462 H 0.0695 0.60125 0.83195 0.0
H463 H 0.11855 0.6755 0.88436 0.0
O464 O 0.34049 0.67415 0.77391 0.0
O465 O 0.26658 0.73683 0.75834 0.0
O466 O 0.33469 0.81773 0.74815 0.0
O467 O 0.26538 0.61135 0.75607 0.0
O468 O 0.37306 0.76052 0.77597 0.0
O469 O 0.39647 0.83279 0.7528 0.0
O470 O 0.33801 0.80701 0.64852 0.0
O471 O 0.40948 0.7467 0.67119 0.0
O472 O 0.3406 0.66722 0.68535 0.0
O473 O 0.40275 0.873 0.67276 0.0
O474 O 0.29215 0.74239 0.67482 0.0
O475 O 0.27448 0.66634 0.68132 0.0
C476 C 0.28764 0.78722 0.76476 0.0
C477 C 0.30473 0.58698 0.78534 0.0
C478 C 0.33018 0.57796 0.84176 0.0
C479 C 0.28551 0.5283 0.84455 0.0
C480 C 0.2623 0.53511 0.78474 0.0
C481 C 0.25227 0.50624 0.81499 0.0
C482 C 0.33995 0.60665 0.81186 0.0
C483 C 0.39645 0.81157 0.78137 0.0
C484 C 0.30394 0.62471 0.77105 0.0
C485 C 0.10977 0.62265 0.82788 0.0
C486 C 0.1374 0.66408 0.85825 0.0
C487 C 0.38801 0.69507 0.66863 0.0
C488 C 0.32992 0.91954 0.65373 0.0
C489 C 0.26532 0.93051 0.63988 0.0
C490 C 0.29658 0.98357 0.64608 0.0
C491 C 0.35891 0.97785 0.65923 0.0
C492 C 0.27958 0.90078 0.6453 0.0
C493 C 0.34283 1.007 0.65671 0.0
C494 C 0.26314 0.69191 0.66838 0.0
C495 C 0.36365 0.85829 0.65623 0.0
H496 H 0.27746 0.50618 0.86827 0.0
H497 H 0.23428 0.51904 0.76428 0.0
H498 H 0.21831 0.46735 0.81607 0.0
H499 H 0.37289 0.64654 0.81245 0.0
H500 H 0.28547 1.0067 0.64208 0.0
H501 H 0.39728 1.00549 0.6653 0.0
H502 H 0.2482 0.86034 0.64066 0.0
H503 H 0.36778 0.04894 0.66181 0.0
Eu504 Eu 0.47958 0.03025 0.02825 0.0
C505 C 0.54267 0.8992 0.06524 0.0
N506 N 0.56946 0.95123 0.06759 0.0
C507 C 0.61348 0.96365 0.12076 0.0
C508 C 0.55207 0.87729 0.08946 0.0
C509 C 0.60412 0.98357 0.09501 0.0
C510 C 0.58794 0.9102 0.11745 0.0
C511 C 0.47405 0.81361 0.03902 0.0
C512 C 0.50403 0.86783 0.04023 0.0
C513 C 0.48598 0.79161 0.06033 0.0
C514 C 0.52499 0.82339 0.08546 0.0
Eu515 Eu 0.55676 0.98108 0.01872 0.0
N516 N 0.4934 0.89039 0.01987 0.0
C517 C 0.432 0.78307 1.01758 0.0
C518 C 0.45007 0.86072 1.00174 0.0
C519 C 0.41936 0.80683 0.99965 0.0
H520 H 0.62736 0.02468 0.09476 0.0
H521 H 0.38551 0.78371 0.98473 0.0
H522 H 0.3967 0.98073 0.96175 0.0
H523 H 0.65047 0.22965 0.05311 0.0
H524 H 0.43738 0.87763 0.99007 0.0
H525 H 0.40778 0.7414 1.0165 0.0
H526 H 0.59887 0.13616 0.05233 0.0
H527 H 0.6417 0.98959 0.14192 0.0
H528 H 0.46443 0.74992 0.0583 0.0
H529 H 0.5331 0.8059 0.10254 0.0
H530 H 0.37253 0.01228 0.91975 0.0
H531 H 0.5959 0.89475 0.13683 0.0
H532 H 0.62406 0.26843 0.02172 0.0
N533 N 0.45786 0.05593 0.98332 0.0
C534 C 0.48473 0.10766 0.98322 0.0
C535 C 0.40426 0.03953 0.9373 0.0
C536 C 0.47132 0.12747 0.96065 0.0
C537 C 0.4185 0.02175 0.96058 0.0
C538 C 0.43049 0.0927 0.93765 0.0
N539 N 0.5401 0.12057 0.02463 0.0
C540 C 0.58494 0.15176 0.04049 0.0
C541 C 0.55617 0.19468 1.00349 0.0
C542 C 0.52671 0.1409 1.00463 0.0
C543 C 0.60036 0.22697 0.02222 0.0
C544 C 0.61529 0.20525 0.04004 0.0
H545 H 0.41911 0.10648 0.91989 0.0
H546 H 0.48839 0.19722 0.94561 0.0
H547 H 0.56214 0.25592 0.98383 0.0
O548 O 0.44679 0.06485 0.07506 0.0
O549 O 0.53509 0.05125 0.96913 0.0
O550 O 0.59338 0.0578 0.99631 0.0
O551 O 0.39907 0.9866 0.04413 0.0
O552 O 0.52117 0.06238 0.08748 0.0
O553 O 0.5829 0.0497 0.07294 0.0
O554 O 0.58946 0.94874 0.96909 0.0
O555 O 0.50255 0.96163 0.07871 0.0
O556 O 0.44585 0.95356 0.04874 0.0
O557 O 0.6364 0.01632 1.01169 0.0
O558 O 0.51697 0.95042 0.95813 0.0
O559 O 0.45827 0.96738 0.96942 0.0
C560 C 0.58013 0.06338 0.96552 0.0
C561 C 0.36446 0.03375 0.07 0.0
C562 C 0.32265 0.07436 0.10456 0.0
C563 C 0.2932 0.05079 0.0716 0.0
C564 C 0.33308 0.00849 0.03826 0.0
C565 C 0.29888 0.0184 0.03841 0.0
C566 C 0.35883 0.0664 0.10333 0.0
C567 C 0.56028 0.06968 0.09843 0.0
C568 C 0.40113 0.02444 0.0705 0.0
C569 C 0.49901 0.18114 0.96165 0.0
C570 C 0.54122 0.21456 0.98308 0.0
C571 C 0.45804 0.95013 0.08137 0.0
C572 C 0.66123 0.96095 0.98136 0.0
C573 C 0.6966 0.91552 0.94307 0.0
C574 C 0.71295 0.91977 0.9796 0.0
C575 C 0.6806 0.96822 1.01732 0.0
C576 C 0.66996 0.93506 0.944 0.0
C577 C 0.70504 0.94632 1.01672 0.0
C578 C 0.47996 0.94556 0.94529 0.0
C579 C 0.63385 0.98162 0.98095 0.0
H580 H 0.26583 0.05749 0.07165 0.0
H581 H 0.3344 0.98073 1.0135 0.0
H582 H 0.27644 1.00038 1.01284 0.0
H583 H 0.38168 0.08452 0.12879 0.0
H584 H 0.73284 0.90366 0.97905 0.0
H585 H 0.67814 0.99167 0.04551 0.0
H586 H 0.65673 0.93074 0.9156 0.0
H587 H 0.71887 0.951 0.04475 0.0
Eu588 Eu 0.22049 0.24656 0.25936 0.0
C589 C 0.39108 0.40992 0.35108 0.0
N590 N 0.4055 0.38776 0.3164 0.0
C591 C 0.46416 0.4696 0.29111 0.0
C592 C 0.40566 0.4603 0.35252 0.0
C593 C 0.44226 0.4168 0.28684 0.0
C594 C 0.44423 0.49112 0.32309 0.0
C595 C 0.32892 0.39662 0.41098 0.0
C596 C 0.35205 0.37793 0.37917 0.0
C597 C 0.33948 0.44439 0.40939 0.0
C598 C 0.37664 0.47521 0.3793 0.0
Eu599 Eu 0.34321 0.29971 0.29803 0.0
N600 N 0.33103 0.32655 0.37082 0.0
C601 C 0.29132 0.36398 0.4398 0.0
C602 C 0.29685 0.29506 0.40014 0.0
C603 C 0.27623 0.3132 0.43498 0.0
H604 H 0.45164 0.39856 0.25818 0.0
H605 H 0.24771 0.28755 0.45731 0.0
H606 H 0.1266 0.14793 0.30865 0.0
H607 H 0.2874 0.2492 0.0891 0.0
H608 H 0.28521 0.25596 0.39718 0.0
H609 H 0.27314 0.37723 0.46516 0.0
H610 H 0.27733 0.2872 0.15978 0.0
H611 H 0.49321 0.49226 0.26771 0.0
H612 H 0.31752 0.45663 0.42991 0.0
H613 H 0.38143 0.50954 0.37607 0.0
H614 H 0.06392 0.05438 0.29341 0.0
H615 H 0.45744 0.53065 0.32379 0.0
H616 H 0.23274 0.15459 0.06997 0.0
N617 N 0.16212 0.1569 0.24655 0.0
C618 C 0.16336 0.13379 0.20668 0.0
C619 C 0.09187 0.07586 0.26881 0.0
C620 C 0.12618 0.08127 0.19611 0.0
C621 C 0.12776 0.12892 0.27758 0.0
C622 C 0.0905 0.05186 0.22764 0.0
N623 N 0.23035 0.21619 0.18607 0.0
C624 C 0.25976 0.24644 0.15473 0.0
C625 C 0.19802 0.14064 0.13349 0.0
C626 C 0.19911 0.16384 0.17573 0.0
C627 C 0.23248 0.17126 0.10258 0.0
C628 C 0.26335 0.22459 0.11328 0.0
H629 H 0.0606 0.01135 0.22032 0.0
H630 H 0.08467 0.03226 0.14635 0.0
H631 H 0.15277 0.07302 0.09024 0.0
O632 O 0.20205 0.29635 0.25244 0.0
O633 O 0.24077 0.19026 0.25027 0.0
O634 O 0.31882 0.25497 0.2362 0.0
O635 O 0.14488 0.22622 0.27911 0.0
O636 O 0.29015 0.31779 0.22806 0.0
O637 O 0.35928 0.32263 0.23405 0.0
O638 O 0.35243 0.24245 0.30052 0.0
O639 O 0.32276 0.3549 0.30045 0.0
O640 O 0.24547 0.29398 0.32051 0.0
O641 O 0.41896 0.31731 0.28321 0.0
O642 O 0.27236 0.22555 0.3265 0.0
O643 O 0.21265 0.23574 0.32544 0.0
C644 C 0.28575 0.2057 0.234 0.0
C645 C 0.11901 0.26368 0.25019 0.0
C646 C 0.10193 0.29473 0.20345 0.0
C647 C 0.05205 0.25077 0.20536 0.0
C648 C 0.06828 0.22178 0.25473 0.0
C649 C 0.03521 0.2146 0.23135 0.0
C650 C 0.13515 0.301 0.22562 0.0
C651 C 0.33813 0.33648 0.21799 0.0
C652 C 0.15593 0.26813 0.26939 0.0
C653 C 0.12105 0.06224 0.15411 0.0
C654 C 0.1582 0.08948 0.12276 0.0
C655 C 0.27931 0.3423 0.31877 0.0
C656 C 0.42664 0.24715 0.27857 0.0
C657 C 0.42836 0.18573 0.30256 0.0
C658 C 0.48012 0.21391 0.29015 0.0
C659 C 0.47771 0.27453 0.26435 0.0
C660 C 0.40151 0.19946 0.29225 0.0
C661 C 0.50429 0.25693 0.26923 0.0
C662 C 0.22609 0.21194 0.338 0.0
C663 C 0.39921 0.26928 0.28503 0.0
H664 H 0.02572 0.24591 0.18849 0.0
H665 H 0.05452 0.19393 0.27538 0.0
H666 H 0.99646 0.18147 0.23383 0.0
H667 H 0.17357 0.33511 0.22359 0.0
H668 H 0.50213 0.20477 0.29896 0.0
H669 H 0.49727 0.31052 0.25185 0.0
H670 H 0.36165 0.17726 0.30224 0.0
H671 H 0.54414 0.27885 0.2598 0.0
Eu672 Eu 0.50566 0.55486 0.02951 0.0
C673 C 0.61012 0.46173 0.91027 0.0
N674 N 0.561 0.43641 0.92561 0.0
C675 C 0.53706 0.38172 0.86017 0.0
C676 C 0.62439 0.44885 0.8682 0.0
C677 C 0.52456 0.39631 0.90178 0.0
C678 C 0.58716 0.40822 0.84324 0.0
C679 C 0.69699 0.53185 0.91943 0.0
C680 C 0.64618 0.50264 0.936 0.0
C681 C 0.71107 0.51925 0.87742 0.0
C682 C 0.675 0.47763 0.85204 0.0
Eu683 Eu 0.54459 0.45917 0.9969 0.0
N684 N 0.63169 0.51415 0.9768 0.0
C685 C 0.73235 0.5728 0.94561 0.0
C686 C 0.66658 0.55126 1.00307 0.0
C687 C 0.7171 0.58214 0.98772 0.0
H688 H 0.48587 0.375 0.91505 0.0
H689 H 0.74441 0.6123 1.00864 0.0
H690 H 0.57213 0.64564 0.10721 0.0
H691 H 0.30269 0.41757 0.02745 0.0
H692 H 0.65646 0.55613 0.03608 0.0
H693 H 0.77165 0.59645 0.93392 0.0
H694 H 0.38997 0.45739 0.99907 0.0
H695 H 0.50808 0.35002 0.84122 0.0
H696 H 0.7499 0.54138 0.86427 0.0
H697 H 0.68659 0.46844 0.81972 0.0
H698 H 0.55628 0.68453 0.17733 0.0
H699 H 0.59668 0.39715 0.81085 0.0
H700 H 0.28131 0.4531 0.09716 0.0
N701 N 0.49525 0.59133 0.09842 0.0
C702 C 0.44746 0.57395 0.11413 0.0
C703 C 0.52541 0.65341 0.15992 0.0
C704 C 0.43707 0.59631 0.15352 0.0
C705 C 0.53414 0.63053 0.12053 0.0
C706 C 0.4767 0.6365 0.17637 0.0
N707 N 0.4194 0.51125 0.05356 0.0
C708 C 0.38202 0.47154 0.03026 0.0
C709 C 0.35852 0.51232 0.10814 0.0
C710 C 0.40851 0.53254 0.09142 0.0
C711 C 0.32014 0.46987 0.08521 0.0
C712 C 0.33201 0.44952 0.04601 0.0
H713 H 0.47004 0.65444 0.20687 0.0
H714 H 0.37962 0.59516 0.19902 0.0
H715 H 0.31019 0.52054 0.15986 0.0
O716 O 0.48831 0.58008 0.98683 0.0
O717 O 0.46629 0.49562 0.07472 0.0
O718 O 0.48543 0.43618 0.05222 0.0
O719 O 0.53118 0.63561 0.03881 0.0
O720 O 0.47671 0.49691 0.96972 0.0
O721 O 0.4681 0.42532 0.98048 0.0
O722 O 0.58142 0.42812 1.00648 0.0
O723 O 0.56177 0.50776 0.94887 0.0
O724 O 0.58101 0.57892 0.99481 0.0
O725 O 0.50679 0.37552 0.98806 0.0
O726 O 0.5684 0.51222 0.06028 0.0
O727 O 0.57877 0.58436 0.04925 0.0
C728 C 0.46135 0.45371 0.07793 0.0
C729 C 0.51227 0.66691 0.99347 0.0
C730 C 0.47942 0.68721 0.95179 0.0
C731 C 0.51391 0.74024 0.96398 0.0
C732 C 0.54652 0.71993 1.00669 0.0
C733 C 0.54767 0.75654 0.99145 0.0
C734 C 0.47879 0.65104 0.96642 0.0
C735 C 0.45804 0.4472 0.96076 0.0
C736 C 0.51055 0.62712 1.00686 0.0
C737 C 0.38756 0.5774 0.16932 0.0
C738 C 0.34833 0.53522 0.14699 0.0
C739 C 0.58451 0.5578 0.95642 0.0
C740 C 0.52927 0.34617 0.02942 0.0
C741 C 0.54888 0.33361 0.08807 0.0
C742 C 0.5154 0.27993 0.07832 0.0
C743 C 0.49348 0.29249 0.02103 0.0
C744 C 0.55516 0.36656 0.06419 0.0
C745 C 0.48587 0.25957 0.04611 0.0
C746 C 0.58375 0.56095 0.07195 0.0
C747 C 0.54305 0.38002 0.99972 0.0
H748 H 0.51477 0.76857 0.95228 0.0
H749 H 0.5727 0.73295 0.02801 0.0
H750 H 0.57452 0.79746 1.00106 0.0
H751 H 0.45196 0.61007 0.95626 0.0
H752 H 0.51227 0.25408 0.09548 0.0
H753 H 0.47277 0.276 0.99437 0.0
H754 H 0.58267 0.40802 0.07142 0.0
H755 H 0.45888 0.21811 0.03926 0.0
Eu756 Eu 0.67318 0.22418 0.35481 0.0
C757 C 0.83613 0.35975 0.22387 0.0
N758 N 0.82211 0.37356 0.26364 0.0
C759 C 0.90759 0.44077 0.27399 0.0
C760 C 0.88676 0.38349 0.2089 0.0
C761 C 0.85668 0.4175 0.28626 0.0
C762 C 0.92257 0.42142 0.23591 0.0
C763 C 0.8131 0.31334 0.1547 0.0
C764 C 0.79977 0.32523 0.19715 0.0
C765 C 0.86351 0.33642 0.13971 0.0
C766 C 0.90011 0.37221 0.1667 0.0
Eu767 Eu 0.73559 0.32555 0.28583 0.0
N768 N 0.75125 0.3041 0.21282 0.0
C769 C 0.77554 0.28054 0.12828 0.0
C770 C 0.71521 0.27618 0.18645 0.0
C771 C 0.72645 0.26269 0.14407 0.0
H772 H 0.8442 0.43614 0.31153 0.0
H773 H 0.6974 0.23916 0.12354 0.0
H774 H 0.56825 0.11628 0.30819 0.0
H775 H 0.70898 0.33141 0.51385 0.0
H776 H 0.67787 0.26497 0.19766 0.0
H777 H 0.78429 0.27011 0.09545 0.0
H778 H 0.72749 0.32226 0.4388 0.0
H779 H 0.93518 0.47493 0.29257 0.0
H780 H 0.87454 0.32922 0.1068 0.0
H781 H 0.93888 0.39443 0.15429 0.0
H782 H 0.48604 0.0477 0.33112 0.0
H783 H 0.96201 0.4397 0.22585 0.0
H784 H 0.62643 0.26909 0.55136 0.0
N785 N 0.58555 0.16257 0.3672 0.0
C786 C 0.56912 0.16673 0.40785 0.0
C787 C 0.50701 0.07776 0.35512 0.0
C788 C 0.51025 0.11308 0.42795 0.0
C789 C 0.55504 0.11981 0.341 0.0
C790 C 0.48544 0.07259 0.39736 0.0
N791 N 0.65587 0.25613 0.42506 0.0
C792 C 0.68971 0.29536 0.45145 0.0
C793 C 0.5925 0.22734 0.49589 0.0
C794 C 0.60886 0.22207 0.44106 0.0
C795 C 0.63163 0.26697 0.51776 0.0
C796 C 0.67858 0.30071 0.49578 0.0
H797 H 0.44904 0.03856 0.40575 0.0
H798 H 0.45447 0.0843 0.49603 0.0
H799 H 0.52223 0.17863 0.5517 0.0
O800 O 0.69957 0.20847 0.39709 0.0
O801 O 0.6387 0.27583 0.37178 0.0
O802 O 0.70191 0.35283 0.34789 0.0
O803 O 0.64287 0.14563 0.36247 0.0
O804 O 0.75476 0.28617 0.36381 0.0
O805 O 0.77389 0.35929 0.34653 0.0
O806 O 0.69301 0.34314 0.26433 0.0
O807 O 0.76156 0.27043 0.2591 0.0
O808 O 0.72967 0.21387 0.30534 0.0
O809 O 0.77293 0.40272 0.27032 0.0
O810 O 0.65707 0.25165 0.27065 0.0
O811 O 0.65456 0.18784 0.28688 0.0
C812 C 0.65782 0.32617 0.37066 0.0
C813 C 0.71142 0.09748 0.38815 0.0
C814 C 0.77674 0.08535 0.39864 0.0
C815 C 0.74574 0.03231 0.38994 0.0
C816 C 0.68253 0.0392 0.38262 0.0
C817 C 0.69912 0.00958 0.38133 0.0
C818 C 0.76164 0.11596 0.39654 0.0
C819 C 0.78273 0.33672 0.36691 0.0
C820 C 0.67714 0.15811 0.3845 0.0
C821 C 0.4902 0.1164 0.48402 0.0
C822 C 0.53148 0.17464 0.51895 0.0
C823 C 0.75885 0.23308 0.27076 0.0
C824 C 0.73027 0.4274 0.24659 0.0
C825 C 0.69444 0.44065 0.20209 0.0
C826 C 0.73256 0.4939 0.20691 0.0
C827 C 0.7679 0.48089 0.25286 0.0
C828 C 0.69313 0.40781 0.22217 0.0
C829 C 0.76895 0.51409 0.23292 0.0
C830 C 0.64457 0.20397 0.26129 0.0
C831 C 0.73215 0.39066 0.26072 0.0
H832 H 0.7566 0.00816 0.39179 0.0
H833 H 0.64383 0.0114 0.37871 0.0
H834 H 0.67411 0.96766 0.37544 0.0
H835 H 0.79246 0.15643 0.40238 0.0
H836 H 0.73431 0.51946 0.19047 0.0
H837 H 0.79719 0.49662 0.27181 0.0
H838 H 0.6645 0.36635 0.21663 0.0
H839 H 0.79835 0.55523 0.23706 0.0
Eu840 Eu 0.98337 0.53449 0.55471 0.0
C841 C 0.06505 0.42579 0.55613 0.0
N842 N 0.0896 0.47229 0.54252 0.0
C843 C 0.15714 0.50783 0.58159 0.0
C844 C 0.08429 0.41981 0.58542 0.0
C845 C 0.13737 0.51101 0.55136 0.0
C846 C 0.12974 0.46246 0.5997 0.0
C847 C 0.99981 0.33331 0.54806 0.0
C848 C 0.02306 0.38277 0.53777 0.0
C849 C 1.01725 0.32776 0.5788 0.0
C850 C 0.05921 0.37094 0.59766 0.0
Eu851 Eu 0.04821 0.4743 0.49581 0.0
N852 N 1.00531 0.38916 0.50927 0.0
C853 C 0.95963 0.29072 0.52708 0.0
C854 C 0.96838 0.34756 0.48653 0.0
C855 C 0.94433 0.29769 0.49561 0.0
H856 H 0.16065 0.54428 0.53487 0.0
H857 H 0.91379 0.26506 0.47866 0.0
H858 H 0.88043 0.48225 0.51085 0.0
H859 H 0.14227 0.7395 0.58331 0.0
H860 H 0.9567 0.35338 0.46242 0.0
H861 H 0.94084 0.25257 0.53512 0.0
H862 H 0.08486 0.64985 0.59801 0.0
H863 H 0.19402 0.53984 0.59006 0.0
H864 H 0.99916 0.28998 0.58734 0.0
H865 H 0.07331 0.36575 0.62025 0.0
H866 H 0.84896 0.50888 0.47172 0.0
H867 H 0.14551 0.45962 0.62251 0.0
H868 H 0.1232 0.76805 0.53391 0.0
N869 N 0.94884 0.5569 0.51914 0.0
C870 C 0.97681 0.60736 0.51339 0.0
C871 C 0.88506 0.53696 0.48312 0.0
C872 C 0.96119 0.62382 0.48957 0.0
C873 C 0.90305 0.52197 0.50533 0.0
C874 C 0.91465 0.58789 0.4745 0.0
N875 N 0.03545 0.62575 0.55441 0.0
C876 C 0.07659 0.66071 0.57521 0.0
C877 C 0.0531 0.69411 0.52234 0.0
C878 C 0.02192 0.64234 0.5304 0.0
C879 C 0.09775 0.72856 0.54027 0.0
C880 C 0.10886 0.71229 0.56777 0.0
H881 H 0.90125 0.59905 0.4562 0.0
H882 H 0.98162 0.68837 0.46238 0.0
H883 H 0.0627 0.74954 0.49005 0.0
O884 O 0.95327 0.56875 0.60574 0.0
O885 O 1.01723 0.55358 0.48569 0.0
O886 O 0.08629 0.55545 0.47709 0.0
O887 O 0.91311 0.48529 0.59062 0.0
O888 O 0.04792 0.55957 0.58724 0.0
O889 O 0.09939 0.55599 0.53011 0.0
O890 O 0.05856 0.45543 0.42767 0.0
O891 O 0.9766 0.42712 0.54233 0.0
O892 O 0.99197 0.49209 0.59348 0.0
O893 O 0.09818 0.45275 0.46725 0.0
O894 O 0.9873 0.45336 0.46075 0.0
O895 O 0.93302 0.45668 0.51539 0.0
C896 C 0.06352 0.57261 0.46787 0.0
C897 C 0.86512 0.51668 0.6151 0.0
C898 C 0.81363 0.54659 0.6443 0.0
C899 C 0.77605 0.50504 0.62 0.0
C900 C 0.82662 0.47404 0.59192 0.0
C901 C 0.78267 0.46879 0.59409 0.0
C902 C 0.85826 0.55258 0.64168 0.0
C903 C 0.09244 0.57268 0.56982 0.0
C904 C 0.91195 0.52341 0.61249 0.0
C905 C 0.99263 0.67519 0.48112 0.0
C906 C 0.03881 0.71 0.49688 0.0
C907 C 0.97272 0.44259 0.58285 0.0
C908 C 0.13716 0.47142 0.40096 0.0
C909 C 0.20637 0.46776 0.36716 0.0
C910 C 0.23355 0.51892 0.35923 0.0
C911 C 0.164 0.52234 0.3927 0.0
C912 C 0.15787 0.44406 0.38745 0.0
C913 C 0.21205 0.54577 0.3712 0.0
C914 C 0.94254 0.44099 0.4762 0.0
C915 C 0.09139 0.44803 0.42929 0.0
H916 H 0.74201 0.50117 0.62085 0.0
H917 H 0.8303 0.44476 0.57186 0.0
H918 H 0.7541 0.43649 0.57556 0.0
H919 H 0.88742 0.58492 0.66032 0.0
H920 H 0.27144 0.53796 0.34444 0.0
H921 H 0.14838 0.54407 0.40367 0.0
H922 H 0.13657 0.40459 0.39407 0.0
H923 H 0.23298 0.58506 0.3647 0.0
Eu924 Eu 0.73549 0.7937 0.27336 0.0
C925 C 0.80291 0.67135 0.31129 0.0
N926 N 0.82901 0.72163 0.30545 0.0
C927 C 0.87889 0.74911 0.3596 0.0
C928 C 0.81331 0.65833 0.34263 0.0
C929 C 0.86706 0.76027 0.32853 0.0
C930 C 0.852 0.69791 0.36662 0.0
C931 C 0.73096 0.58206 0.2983 0.0
C932 C 0.76265 0.63331 0.28857 0.0
C933 C 0.74198 0.56892 0.32878 0.0
C934 C 0.78338 0.60678 0.35047 0.0
Eu935 Eu 0.80828 0.73646 0.25079 0.0
N936 N 0.75217 0.6471 0.25954 0.0
C937 C 0.6882 0.5457 0.278 0.0
C938 C 0.71334 0.60998 0.23666 0.0
C939 C 0.67978 0.55966 0.24666 0.0
H940 H 0.89043 0.79926 0.32127 0.0
H941 H 0.64809 0.53156 0.22932 0.0
H942 H 0.65682 0.73514 0.20017 0.0
H943 H 0.91086 0.99127 0.28797 0.0
H944 H 0.70806 0.61749 0.20982 0.0
H945 H 0.66235 0.50643 0.28544 0.0
H946 H 0.844 0.90811 0.31079 0.0
H947 H 0.90923 0.7799 0.37766 0.0
H948 H 0.71826 0.52965 0.33622 0.0
H949 H 0.79086 0.59614 0.37437 0.0
H950 H 0.63974 0.7599 0.14624 0.0
H951 H 0.86107 0.68942 0.39092 0.0
H952 H 0.9005 0.01993 0.23222 0.0
N953 N 0.72087 0.81124 0.21639 0.0
C954 C 0.75179 0.86144 0.20909 0.0
C955 C 0.67131 0.78873 0.16364 0.0
C956 C 0.74371 0.87685 0.17795 0.0
C957 C 0.68152 0.77474 0.19378 0.0
C958 C 0.70221 0.8401 0.15598 0.0
N959 N 0.80064 0.88106 0.26109 0.0
C960 C 0.84063 0.91604 0.28325 0.0
C961 C 0.82892 0.94734 0.22011 0.0
C962 C 0.79362 0.89663 0.23078 0.0
C963 C 0.87202 0.98117 0.24025 0.0
C964 C 0.87798 0.9652 0.27172 0.0
H965 H 0.69461 0.85065 0.1321 0.0
H966 H 0.77237 0.94022 0.14477 0.0
H967 H 0.84739 1.00151 0.18099 0.0
O968 O 0.71356 0.837 0.32264 0.0
O969 O 0.77618 0.7971 0.20689 0.0
O970 O 0.84419 0.80887 0.22077 0.0
O971 O 0.66336 0.77705 0.27763 0.0
O972 O 0.78342 0.81846 0.3256 0.0
O973 O 0.84705 0.81768 0.28503 0.0
O974 O 0.83139 0.69934 0.19665 0.0
O975 O 0.75787 0.71879 0.31403 0.0
O976 O 0.69547 0.72461 0.30917 0.0
O977 O 0.88526 0.76227 0.23814 0.0
O978 O 0.75504 0.70672 0.20268 0.0
O979 O 0.69215 0.70954 0.2439 0.0
C980 C 0.8225 0.81289 0.19601 0.0
C981 C 0.6267 0.79257 0.34216 0.0
C982 C 0.5825 0.81795 0.39726 0.0
C983 C 0.54054 0.76603 0.39704 0.0
C984 C 0.58454 0.74062 0.3407 0.0
C985 C 0.54166 0.7275 0.36849 0.0
C986 C 0.62546 0.83065 0.37034 0.0
C987 C 0.82823 0.82903 0.32158 0.0
C988 C 0.66938 0.81019 0.31054 0.0
C989 C 0.77795 0.92779 0.16867 0.0
C990 C 0.82068 0.96269 0.18928 0.0
C991 C 0.71343 0.70899 0.32738 0.0
C992 C 0.88986 0.69235 0.21193 0.0
C993 C 0.90081 0.6259 0.17967 0.0
C994 C 0.91269 0.62604 0.21714 0.0
C995 C 0.90528 0.69549 0.24885 0.0
C996 C 0.88745 0.65721 0.17751 0.0
C997 C 0.91473 0.66096 0.25195 0.0
C998 C 0.70896 0.69306 0.2087 0.0
C999 C 0.87563 0.72449 0.20811 0.0
H1000 H 0.50665 0.75567 0.41779 0.0
H1001 H 0.58454 0.71042 0.3181 0.0
H1002 H 0.5094 0.68762 0.36771 0.0
H1003 H 0.65682 0.87097 0.36874 0.0
H1004 H 0.92419 0.60223 0.21833 0.0
H1005 H 0.91118 0.72495 0.2749 0.0
H1006 H 0.87906 0.65709 0.14799 0.0
H1007 H 0.9261 0.66312 0.2805 0.0
Eu1008 Eu 0.76236 0.26821 0.76928 0.0
C1009 C 0.88768 0.17517 0.68275 0.0
N1010 N 0.84097 0.14821 0.70369 0.0
C1011 C 0.81417 0.07636 0.64901 0.0
C1012 C 0.89935 0.15331 0.64375 0.0
C1013 C 0.80479 0.09885 0.68836 0.0
C1014 C 0.86162 0.10378 0.62649 0.0
C1015 C 0.97296 0.2534 0.67952 0.0
C1016 C 0.92394 0.22524 0.69999 0.0
C1017 C 0.98503 0.23084 0.64137 0.0
C1018 C 0.9481 0.18146 0.62322 0.0
Eu1019 Eu 0.82748 0.1939 0.76528 0.0
N1020 N 0.91078 0.24703 0.73609 0.0
C1021 C 1.00822 0.3036 0.69786 0.0
C1022 C 0.94508 0.29529 0.75479 0.0
C1023 C 0.99423 0.32459 0.7357 0.0
H1024 H 0.7684 0.07714 0.70612 0.0
H1025 H 0.0213 0.36318 0.75023 0.0
H1026 H 0.81306 0.37231 0.84258 0.0
H1027 H 0.56748 0.11178 0.75363 0.0
H1028 H 0.93451 0.31117 0.78428 0.0
H1029 H 0.04637 0.32634 0.68323 0.0
H1030 H 0.65866 0.16395 0.73284 0.0
H1031 H 0.78507 0.03763 0.63634 0.0
H1032 H 0.02257 0.2517 0.62517 0.0
H1033 H 0.9576 0.16521 0.5934 0.0
H1034 H 0.78771 0.40774 0.90951 0.0
H1035 H 0.86904 0.08591 0.59631 0.0
H1036 H 0.5334 0.14074 0.81983 0.0
N1037 N 0.74147 0.30259 0.83566 0.0
C1038 C 0.69207 0.27652 0.84991 0.0
C1039 C 0.76043 0.37032 0.89355 0.0
C1040 C 0.67495 0.2969 0.88655 0.0
C1041 C 0.77526 0.34953 0.85619 0.0
C1042 C 0.70997 0.34371 0.90899 0.0
N1043 N 0.67581 0.2151 0.78902 0.0
C1044 C 0.64402 0.1736 0.76294 0.0
C1045 C 0.60639 0.20688 0.83693 0.0
C1046 C 0.65816 0.2326 0.82501 0.0
C1047 C 0.57343 0.16208 0.81146 0.0
C1048 C 0.59244 0.1454 0.77422 0.0
H1049 H 0.69827 0.36066 0.93724 0.0
H1050 H 0.61008 0.28869 0.92483 0.0
H1051 H 0.54976 0.20838 0.88242 0.0
O1052 O 0.7362 0.27392 0.71849 0.0
O1053 O 0.72952 0.21332 0.81834 0.0
O1054 O 0.7468 0.15229 0.79606 0.0
O1055 O 0.77209 0.33922 0.76649 0.0
O1056 O 0.75704 0.21168 0.71049 0.0
O1057 O 0.75607 0.14685 0.72739 0.0
O1058 O 0.87403 0.20564 0.81165 0.0
O1059 O 0.85906 0.25108 0.71352 0.0
O1060 O 0.84392 0.31183 0.74433 0.0
O1061 O 0.8182 0.12996 0.78823 0.0
O1062 O 0.82988 0.25369 0.81965 0.0
O1063 O 0.8359 0.31642 0.79536 0.0
C1064 C 0.72323 0.17059 0.82219 0.0
C1065 C 0.7079 0.32668 0.7386 0.0
C1066 C 0.66104 0.3424 0.70871 0.0
C1067 C 0.6273 0.33122 0.74552 0.0
C1068 C 0.67756 0.32247 0.77669 0.0
C1069 C 0.63639 0.32267 0.77978 0.0
C1070 C 0.70027 0.33792 0.70467 0.0
C1071 C 0.74077 0.16292 0.70506 0.0
C1072 C 0.74756 0.31993 0.73434 0.0
C1073 C 0.62353 0.27198 0.89802 0.0
C1074 C 0.58932 0.22683 0.87353 0.0
C1075 C 0.86462 0.29519 0.71289 0.0
C1076 C 0.88224 0.13582 0.81881 0.0
C1077 C 0.92369 0.10845 0.85307 0.0
C1078 C 0.93005 0.08611 0.81222 0.0
C1079 C 0.89097 0.11067 0.7814 0.0
C1080 C 0.89787 0.13341 0.85626 0.0
C1081 C 0.91291 0.0856 0.77837 0.0
C1082 C 0.85022 0.30271 0.81916 0.0
C1083 C 0.85223 0.15704 0.81428 0.0
H1084 H 0.59515 0.3315 0.74848 0.0
H1085 H 0.68613 0.32028 0.80433 0.0
H1086 H 0.61228 0.31751 0.80905 0.0
H1087 H 0.7258 0.34503 0.67603 0.0
H1088 H 0.9466 0.0656 0.80562 0.0
H1089 H 0.87948 0.11006 0.75375 0.0
H1090 H 0.89025 0.15046 0.88676 0.0
H1091 H 0.91679 0.06447 0.74887 0.0
Eu1092 Eu 0.69392 0.72056 0.74731 0.0
C1093 C 0.87622 0.88338 0.83758 0.0
N1094 N 0.8828 0.86354 0.79753 0.0
C1095 C 0.94096 0.9483 0.7777 0.0
C1096 C 0.89865 0.9364 0.84816 0.0
C1097 C 0.91508 0.89493 0.76768 0.0
C1098 C 0.93212 0.96902 0.81794 0.0
C1099 C 0.83307 0.86898 0.90784 0.0
C1100 C 0.84256 0.84963 0.86651 0.0
C1101 C 0.85253 0.92154 0.91769 0.0
C1102 C 0.88369 0.95434 0.88713 0.0
Eu1103 Eu 0.82511 0.77479 0.77902 0.0
N1104 N 0.81867 0.798 0.85391 0.0
C1105 C 0.80317 0.83469 0.93741 0.0
C1106 C 0.7929 0.76496 0.8835 0.0
C1107 C 0.78488 0.7828 0.92552 0.0
H1108 H 0.91967 0.87879 0.73575 0.0
H1109 H 0.76382 0.75622 0.94855 0.0
H1110 H 0.58585 0.6387 0.80293 0.0
H1111 H 0.77249 0.69374 0.58786 0.0
H1112 H 0.77994 0.72515 0.87577 0.0
H1113 H 0.79531 0.84811 0.96958 0.0
H1114 H 0.7533 0.74572 0.64445 0.0
H1115 H 0.96596 0.97307 0.75402 0.0
H1116 H 0.84267 0.93682 0.94819 0.0
H1117 H 0.89358 0.99257 0.89241 0.0
H1118 H 0.51916 0.54444 0.79589 0.0
H1119 H 0.95111 0.01003 0.82508 0.0
H1120 H 0.72761 0.60086 0.59019 0.0
N1121 N 0.62144 0.63586 0.74108 0.0
C1122 C 0.62406 0.60588 0.70573 0.0
C1123 C 0.54853 0.56111 0.77042 0.0
C1124 C 0.59209 0.55174 0.70374 0.0
C1125 C 0.58547 0.61446 0.7739 0.0
C1126 C 0.55216 0.52933 0.7352 0.0
N1127 N 0.69483 0.68186 0.67696 0.0
C1128 C 0.73204 0.70501 0.64536 0.0
C1129 C 0.6765 0.5994 0.6445 0.0
C1130 C 0.66337 0.62928 0.67394 0.0
C1131 C 0.71715 0.62311 0.61392 0.0
C1132 C 0.74315 0.67572 0.61297 0.0
H1133 H 0.52593 0.48763 0.73382 0.0
H1134 H 0.58067 0.48066 0.67211 0.0
H1135 H 0.66418 0.52603 0.62849 0.0
O1136 O 0.68664 0.78283 0.76676 0.0
O1137 O 0.71225 0.66305 0.7379 0.0
O1138 O 0.78649 0.73031 0.72335 0.0
O1139 O 0.62074 0.70629 0.7543 0.0
O1140 O 0.76189 0.79068 0.71187 0.0
O1141 O 0.83411 0.80045 0.71812 0.0
O1142 O 0.84682 0.72365 0.77645 0.0
O1143 O 0.80233 0.8296 0.79282 0.0
O1144 O 0.72733 0.76082 0.80609 0.0
O1145 O 0.89779 0.79451 0.7491 0.0
O1146 O 0.75769 0.70065 0.8089 0.0
O1147 O 0.68584 0.69422 0.80761 0.0
C1148 C 0.7576 0.68125 0.7223 0.0
C1149 C 0.61947 0.77724 0.75524 0.0
C1150 C 0.63438 0.84161 0.72029 0.0
C1151 C 0.58249 0.81835 0.72663 0.0
C1152 C 0.56835 0.75512 0.76283 0.0
C1153 C 0.54985 0.77576 0.74845 0.0
C1154 C 0.65247 0.82176 0.73574 0.0
C1155 C 0.81114 0.81314 0.703 0.0
C1156 C 0.63867 0.75437 0.76793 0.0
C1157 C 0.60459 0.52228 0.67352 0.0
C1158 C 0.65017 0.54722 0.64773 0.0
C1159 C 0.75711 0.81023 0.81021 0.0
C1160 C 0.9336 0.75782 0.76287 0.0
C1161 C 0.97211 0.7388 0.8 0.0
C1162 C 1.01775 0.76864 0.77526 0.0
C1163 C 0.97934 0.78748 0.73829 0.0
C1164 C 0.92977 0.73217 0.79277 0.0
C1165 C 0.02116 0.79256 0.74436 0.0
C1166 C 0.70956 0.68083 0.82082 0.0
C1167 C 0.89034 0.75319 0.75571 0.0
H1168 H 0.56684 0.8315 0.71323 0.0
H1169 H 0.54284 0.72129 0.77879 0.0
H1170 H 0.51013 0.75777 0.75303 0.0
H1171 H 0.69216 0.83908 0.72954 0.0
H1172 H 0.05089 0.77385 0.78016 0.0
H1173 H 0.98272 0.80675 0.71437 0.0
H1174 H 0.89453 0.70916 0.81176 0.0
H1175 H 0.0564 0.8156 0.7255 0.0
Eu1176 Eu 0.47624 0.48494 0.48801 0.0
C1177 C 0.64652 0.65675 0.57533 0.0
N1178 N 0.646 0.62079 0.54422 0.0
C1179 C 0.72745 0.68632 0.51452 0.0
C1180 C 0.68628 0.70956 0.57597 0.0
C1181 C 0.68675 0.63426 0.51515 0.0
C1182 C 0.72676 0.72433 0.54457 0.0
C1183 C 0.60839 0.67496 0.64231 0.0
C1184 C 0.60877 0.63994 0.60824 0.0
C1185 C 0.64651 0.72798 0.64223 0.0
C1186 C 0.68553 0.74533 0.60916 0.0
Eu1187 Eu 0.56985 0.53678 0.54366 0.0
N1188 N 0.57243 0.58854 0.60715 0.0
C1189 C 0.57018 0.65514 0.67557 0.0
C1190 C 0.53984 0.56851 0.64162 0.0
C1191 C 0.53706 0.60163 0.67614 0.0
H1192 H 0.6877 0.60503 0.49204 0.0
H1193 H 0.50976 0.5862 0.70305 0.0
H1194 H 0.35813 0.41024 0.53938 0.0
H1195 H 0.54853 0.44305 0.33126 0.0
H1196 H 0.51562 0.52718 0.64145 0.0
H1197 H 0.56666 0.68056 0.70138 0.0
H1198 H 0.54315 0.49972 0.39449 0.0
H1199 H 0.75928 0.69706 0.49094 0.0
H1200 H 0.64701 0.75534 0.6683 0.0
H1201 H 0.71634 0.78594 0.61032 0.0
H1202 H 0.29314 0.31669 0.54091 0.0
H1203 H 0.75846 0.76458 0.54429 0.0
H1204 H 0.48921 0.34819 0.32884 0.0
N1205 N 0.40315 0.39947 0.48701 0.0
C1206 C 0.40546 0.36563 0.45514 0.0
C1207 C 0.32495 0.3299 0.51703 0.0
C1208 C 0.36884 0.31201 0.45443 0.0
C1209 C 0.362 0.38288 0.51613 0.0
C1210 C 0.32908 0.29418 0.48667 0.0
N1211 N 0.48054 0.43647 0.42506 0.0
C1212 C 0.51616 0.45817 0.39231 0.0
C1213 C 0.44629 0.35134 0.38796 0.0
C1214 C 0.44392 0.38483 0.42236 0.0
C1215 C 0.48516 0.37264 0.35535 0.0
C1216 C 0.51928 0.42635 0.35685 0.0
H1217 H 0.30005 0.25313 0.48709 0.0
H1218 H 0.34381 0.2368 0.41959 0.0
H1219 H 0.41315 0.27219 0.36199 0.0
O1220 O 0.48959 0.54419 0.45707 0.0
O1221 O 0.51839 0.43981 0.46881 0.0
O1222 O 0.59701 0.50222 0.48234 0.0
O1223 O 0.41849 0.46857 0.45691 0.0
O1224 O 0.54446 0.56699 0.47844 0.0
O1225 O 0.60123 0.55513 0.47707 0.0
O1226 O 0.5521 0.47231 0.57029 0.0
O1227 O 0.5271 0.58119 0.56828 0.0
O1228 O 0.45017 0.52324 0.54772 0.0
O1229 O 0.62669 0.54501 0.56916 0.0
O1230 O 0.49947 0.45618 0.55776 0.0
O1231 O 0.443 0.46748 0.55448 0.0
C1232 C 0.56625 0.45467 0.46377 0.0
C1233 C 0.41714 0.5409 0.46486 0.0
C1234 C 0.38784 0.58346 0.44438 0.0
C1235 C 0.34568 0.55927 0.47459 0.0
C1236 C 0.37706 0.52117 0.49668 0.0
C1237 C 0.34189 0.53098 0.50176 0.0
C1238 C 0.42507 0.57596 0.4416 0.0
C1239 C 0.58799 0.57741 0.46274 0.0
C1240 C 0.44334 0.51632 0.45001 0.0
C1241 C 0.37206 0.27815 0.42079 0.0
C1242 C 0.41062 0.29798 0.3877 0.0
C1243 C 0.4802 0.56815 0.57059 0.0
C1244 C 0.62058 0.46793 0.56037 0.0
C1245 C 0.64438 0.42015 0.57986 0.0
C1246 C 0.67715 0.42911 0.54231 0.0
C1247 C 0.65602 0.47966 0.5249 0.0
C1248 C 0.61247 0.43515 0.58602 0.0
C1249 C 0.6824 0.45819 0.5149 0.0
C1250 C 0.45513 0.44529 0.5705 0.0
C1251 C 0.59856 0.49661 0.57545 0.0
H1252 H 0.31325 0.5583 0.47592 0.0
H1253 H 0.37004 0.49383 0.51469 0.0
H1254 H 0.3089 0.51229 0.52405 0.0
H1255 H 0.45706 0.5919 0.41795 0.0
H1256 H 0.70065 0.41603 0.53454 0.0
H1257 H 0.66457 0.50666 0.5057 0.0
H1258 H 0.58454 0.4257 0.61303 0.0
H1259 H 0.70919 0.46664 0.4871 0.0
Eu1260 Eu 0.9948 0.45624 0.04588 0.0
C1261 C 0.17459 0.62165 0.93294 0.0
N1262 N 0.15241 0.63134 0.97007 0.0
C1263 C 0.23216 0.70053 0.99332 0.0
C1264 C 0.22693 0.64957 0.92554 0.0
C1265 C 0.18005 0.67104 0.99974 0.0
C1266 C 0.25575 0.68931 0.95623 0.0
C1267 C 0.16658 0.57058 0.86468 0.0
C1268 C 0.14462 0.5825 0.90268 0.0
C1269 C 0.21816 0.59784 0.85788 0.0
C1270 C 0.24866 0.63709 0.88773 0.0
Eu1271 Eu 0.06497 0.57709 0.97843 0.0
N1272 N 0.09422 0.55602 0.91046 0.0
C1273 C 0.13626 0.53208 0.8342 0.0
C1274 C 0.0647 0.52126 0.87982 0.0
C1275 C 0.08505 0.50812 0.84149 0.0
H1276 H 0.16213 0.68023 0.02838 0.0
H1277 H 0.06122 0.47961 0.81768 0.0
H1278 H 0.89263 0.34918 1.00114 0.0
H1279 H 0.99564 0.53292 0.21146 0.0
H1280 H 0.02564 0.50328 0.88437 0.0
H1281 H 0.1522 0.52198 0.80444 0.0
H1282 H 0.02922 0.50854 0.14227 0.0
H1283 H 0.25407 0.73171 1.01702 0.0
H1284 H 0.23412 0.58909 0.82898 0.0
H1285 H 0.28881 0.65788 0.88098 0.0
H1286 H 0.80227 0.30813 1.00871 0.0
H1287 H 0.29612 0.7119 0.95136 0.0
H1288 H 0.90987 0.50925 0.22216 0.0
N1289 N 0.9062 0.4064 0.05392 0.0
C1290 C 0.88505 0.42041 0.08949 0.0
C1291 C 0.8253 0.34061 0.03117 0.0
C1292 C 0.83336 0.39722 0.09613 0.0
C1293 C 0.87672 0.36462 0.02638 0.0
C1294 C 0.8037 0.35808 0.06558 0.0
N1295 N 0.96307 0.47187 0.11477 0.0
C1296 C 0.99155 0.49757 0.14703 0.0
C1297 C 0.89379 0.46725 0.15976 0.0
C1298 C 0.91447 0.45417 0.12113 0.0
C1299 C 0.92427 0.49821 0.19192 0.0
C1300 C 0.97273 0.51165 0.186 0.0
H1301 H 0.76375 0.3389 0.0696 0.0
H1302 H 0.7731 0.39449 0.13969 0.0
H1303 H 0.82653 0.45646 0.19513 0.0
O1304 O 0.04388 0.43874 0.0535 0.0
O1305 O 0.99159 0.52329 0.07127 0.0
O1306 O 0.98648 0.53674 1.00999 0.0
O1307 O 0.96476 0.3787 0.05583 0.0
O1308 O 0.06957 0.52934 0.06743 0.0
O1309 O 0.08206 0.59911 0.04595 0.0
O1310 O 0.06173 0.61569 0.93656 0.0
O1311 O 0.10719 0.54468 0.97994 0.0
O1312 O 0.03473 0.46823 0.98254 0.0
O1313 O 0.07794 0.65227 0.99976 0.0
O1314 O 0.99099 0.50385 0.95456 0.0
O1315 O 0.96871 0.43278 0.98192 0.0
C1316 C 0.97737 0.53952 0.05039 0.0
C1317 C 1.0097 0.37832 0.09886 0.0
C1318 C 0.0566 0.39489 0.15202 0.0
C1319 C 1.01163 0.36118 0.17587 0.0
C1320 C 0.96651 0.33781 0.119 0.0
C1321 C 0.96668 0.33299 0.15934 0.0
C1322 C 0.05501 0.40672 0.11546 0.0
C1323 C 0.09109 0.57959 0.06957 0.0
C1324 C 1.00781 0.39186 0.0613 0.0
C1325 C 0.81271 0.41174 0.13396 0.0
C1326 C 0.84301 0.44689 0.16563 0.0
C1327 C 0.08254 0.49513 0.97836 0.0
C1328 C 0.02794 0.6619 0.9703 0.0
C1329 C 0.97574 0.66907 0.93914 0.0
C1330 C 0.95189 0.67457 0.97866 0.0
C1331 C 1.00686 0.67231 1.00985 0.0
C1332 C 1.01249 0.66108 0.93477 0.0
C1333 C 0.96769 0.67632 1.01413 0.0
C1334 C 0.96407 0.45309 0.95538 0.0
C1335 C 0.06627 0.65285 0.96562 0.0
H1336 H 1.01166 0.35187 0.20481 0.0
H1337 H 0.93188 0.31285 0.10517 0.0
H1338 H 0.93222 0.30612 0.17725 0.0
H1339 H 0.08974 0.43374 0.09769 0.0
H1340 H 0.92392 0.68143 0.9821 0.0
H1341 H 0.02169 0.67941 0.03739 0.0
H1342 H 0.03083 0.65712 0.90389 0.0
H1343 H 0.95141 0.68346 0.04498 0.0
C1344 C 0.16209 0.18695 0.90624 0.0
C1345 C 0.18241 0.16869 0.87046 0.0
C1346 C 0.13224 0.15814 0.94024 0.0
C1347 C 0.12399 0.11119 0.94248 0.0
H1348 H 0.16876 0.22389 0.90803 0.0
H1349 H 0.11564 0.17333 0.9646 0.0
S1350 S 0.16262 0.04192 0.85526 0.0
N1351 N 0.18461 0.09541 0.83748 0.0
N1352 N 0.13616 0.0462 0.90317 0.0
C1353 C 0.14386 0.0924 0.90676 0.0
C1354 C 0.17119 0.11985 0.87078 0.0
C1355 C 0.04632 0.94131 0.14029 0.0
C1356 C 0.06779 0.95527 0.09861 0.0
C1357 C 0.06397 0.92583 0.16461 0.0
C1358 C 0.10383 0.92047 0.15 0.0
H1359 H 1.01825 0.94705 0.15678 0.0
H1360 H 0.04759 0.92086 0.19687 0.0
S1361 S 0.17242 0.94673 0.04301 0.0
N1362 N 0.13164 0.95857 0.04443 0.0
N1363 N 0.1631 0.9298 0.08892 0.0
C1364 C 0.12438 0.93201 0.10817 0.0
C1365 C 0.10673 0.94829 0.0833 0.0
C1366 C 0.35321 0.9028 0.4451 0.0
C1367 C 0.40587 0.93566 0.43347 0.0
C1368 C 0.31714 0.87764 0.41565 0.0
C1369 C 0.33097 0.88476 0.37262 0.0
H1370 H 0.33947 0.89542 0.47729 0.0
H1371 H 0.27806 0.85083 0.42648 0.0
S1372 S 0.46084 0.95462 0.32213 0.0
N1373 N 0.4668 0.96463 0.37211 0.0
N1374 N 0.401 0.92341 0.32013 0.0
C1375 C 0.38262 0.91697 0.36085 0.0
C1376 C 0.41911 0.9406 0.39002 0.0
C1377 C 0.42338 0.11675 0.59439 0.0
C1378 C 0.46061 0.16165 0.61711 0.0
C1379 C 0.4273 0.07581 0.578 0.0
C1380 C 0.46929 0.07992 0.58281 0.0
H1381 H 0.39207 0.11405 0.58824 0.0
H1382 H 0.39903 0.04227 0.55937 0.0
S1383 S 0.57132 0.1859 0.64692 0.0
N1384 N 0.53526 0.20447 0.65026 0.0
N1385 N 0.545 0.12913 0.61701 0.0
C1386 C 0.50443 0.12286 0.60867 0.0
C1387 C 0.49938 0.16352 0.62658 0.0
C1388 C 0.12886 0.8639 0.63569 0.0
C1389 C 0.12706 0.8558 0.59251 0.0
C1390 C 0.17407 0.88819 0.65117 0.0
C1391 C 0.21805 0.9046 0.62364 0.0
H1392 H 0.09575 0.85378 0.65753 0.0
H1393 H 0.17495 0.89515 0.68469 0.0
S1394 S 0.23217 0.88921 0.50796 0.0
N1395 N 0.17257 0.86494 0.52245 0.0
N1396 N 0.25715 0.90811 0.55171 0.0
C1397 C 0.2164 0.89478 0.58041 0.0
C1398 C 0.17086 0.87109 0.56474 0.0
C1399 C 0.40294 0.87573 0.84816 0.0
C1400 C 0.41938 0.846 0.82249 0.0
C1401 C 0.42205 0.90682 0.88692 0.0
C1402 C 0.46003 0.91163 0.90273 0.0
H1403 H 0.37391 0.87416 0.83862 0.0
H1404 H 0.40657 0.92737 0.9046 0.0
S1405 S 0.51987 0.8455 0.84623 0.0
N1406 N 0.47806 0.82572 0.81569 0.0
N1407 N 0.51472 0.88417 0.88643 0.0
C1408 C 0.47766 0.88294 0.87663 0.0
C1409 C 0.45738 0.85046 0.8375 0.0
C1410 C 0.26736 0.0871 0.16215 0.0
C1411 C 0.31515 0.10704 0.14017 0.0
C1412 C 0.25833 0.11834 0.19422 0.0
C1413 C 0.2965 0.17106 0.20414 0.0
H1414 H 0.23674 0.04719 0.15396 0.0
H1415 H 0.22101 0.1014 0.21044 0.0
S1416 S 0.42912 0.2407 0.15754 0.0
N1417 N 0.40192 0.18121 0.13235 0.0
N1418 N 0.38483 0.24093 0.19102 0.0
C1419 C 0.34495 0.1909 0.18315 0.0
C1420 C 0.35432 0.15869 0.15142 0.0
C1421 C 0.1649 0.11332 0.41489 0.0
C1422 C 0.11803 0.10442 0.42939 0.0
C1423 C 0.1998 0.14767 0.38554 0.0
C1424 C 0.19063 0.17727 0.37107 0.0
H1425 H 0.17501 0.09379 0.42626 0.0
H1426 H 0.23423 0.15115 0.37434 0.0
S1427 S 0.07741 0.17635 0.40503 0.0
N1428 N 0.06622 0.13153 0.42883 0.0
N1429 N 0.13348 0.20084 0.37902 0.0
C1430 C 0.14553 0.17208 0.38821 0.0
C1431 C 0.10894 0.13473 0.41592 0.0
C1432 C 0.81743 0.20224 0.2597 0.0
C1433 C 0.78802 0.21007 0.24303 0.0
C1434 C 0.84454 0.18175 0.23473 0.0
C1435 C 0.84434 0.16666 0.19058 0.0
H1436 H 0.82174 0.2144 0.29248 0.0
H1437 H 0.86793 0.18013 0.25015 0.0
S1438 S 0.77496 0.17848 0.1291 0.0
N1439 N 0.76238 0.20019 0.17744 0.0
N1440 N 0.81148 0.1626 0.13188 0.0
C1441 C 0.81501 0.17408 0.17362 0.0
C1442 C 0.78787 0.19528 0.19895 0.0
C1443 C 0.06596 0.62454 0.41677 0.0
C1444 C 0.09064 0.61366 0.43678 0.0
C1445 C 0.09173 0.66141 0.38699 0.0
C1446 C 0.14441 0.69067 0.37531 0.0
H1447 H 0.02586 0.60343 0.42339 0.0
H1448 H 0.0698 0.66588 0.37235 0.0
S1449 S 0.22827 0.68247 0.42234 0.0
N1450 N 0.1721 0.63939 0.44384 0.0
N1451 N 0.21968 0.70787 0.39176 0.0
C1452 C 0.1692 0.68162 0.39722 0.0
C1453 C 0.14298 0.64379 0.42646 0.0
C1454 C 0.66901 0.8543 0.61487 0.0
C1455 C 0.63978 0.87126 0.61552 0.0
C1456 C 0.6839 0.85889 0.65226 0.0
C1457 C 0.66762 0.87823 0.68985 0.0
H1458 H 0.67416 0.8312 0.58744 0.0
H1459 H 0.69966 0.83916 0.65293 0.0
S1460 S 0.63248 0.96552 0.7017 0.0
N1461 N 0.62602 0.93734 0.65259 0.0
N1462 N 0.65365 0.94281 0.72196 0.0
C1463 C 0.65797 0.9124 0.68763 0.0
C1464 C 0.64233 0.9083 0.65026 0.0
C1465 C 0.37393 0.37628 0.93515 0.0
C1466 C 0.42521 0.41528 0.92646 0.0
C1467 C 0.34228 0.34767 0.90314 0.0
C1468 C 0.36093 0.35531 0.86085 0.0
H1469 H 0.35793 0.3683 0.96703 0.0
H1470 H 0.30302 0.31836 0.91147 0.0
S1471 S 0.49369 0.44875 0.8212 0.0
N1472 N 0.49354 0.45861 0.87245 0.0
N1473 N 0.43522 0.40261 0.81207 0.0
C1474 C 0.41261 0.39284 0.85166 0.0
C1475 C 0.44437 0.42329 0.88446 0.0
C1476 C 0.84114 0.85063 0.39847 0.0
C1477 C 0.8608 0.86054 0.35669 0.0
C1478 C 0.87214 0.87697 0.43112 0.0
C1479 C 0.92385 0.9159 0.42371 0.0
H1480 H 0.80165 0.82126 0.40583 0.0
H1481 H 0.85527 0.86731 0.4625 0.0
S1482 S 0.99495 0.95351 0.31996 0.0
N1483 N 0.93664 0.90932 0.30975 0.0
N1484 N 0.99354 0.96051 0.37114 0.0
C1485 C 0.94398 0.92564 0.38218 0.0
C1486 C 0.91289 0.89778 0.3488 0.0
C1487 C 0.48707 0.6554 0.61754 0.0
C1488 C 0.4586 0.60181 0.59836 0.0
C1489 C 0.46598 0.68474 0.63931 0.0
C1490 C 0.41382 0.6645 0.6444 0.0
H1491 H 0.52711 0.67611 0.61515 0.0
H1492 H 0.49181 0.72465 0.65232 0.0
S1493 S 0.3188 0.5231 0.61213 0.0
N1494 N 0.37162 0.52907 0.59566 0.0
N1495 N 0.33442 0.58155 0.63301 0.0
C1496 C 0.38502 0.61018 0.62815 0.0
C1497 C 0.40622 0.58043 0.60647 0.0
C1498 C 0.61345 0.1208 0.91047 0.0
C1499 C 0.61778 0.09064 0.92962 0.0
C1500 C 0.64733 0.1458 0.87621 0.0
C1501 C 0.68676 0.14144 0.85818 0.0
H1502 H 0.58384 0.12572 0.92223 0.0
H1503 H 0.64174 0.16813 0.86366 0.0
S1504 S 0.7143 0.06566 0.89596 0.0
N1505 N 0.66513 0.05752 0.92782 0.0
N1506 N 0.72756 0.10332 0.86285 0.0
C1507 C 0.69122 0.11076 0.87678 0.0
C1508 C 0.65725 0.08596 0.91249 0.0
C1509 C 0.11455 0.4118 0.19582 0.0
C1510 C 0.10023 0.39809 0.15571 0.0
C1511 C 0.12296 0.38159 0.20981 0.0
C1512 C 0.11695 0.33767 0.18374 0.0
H1513 H 0.11029 0.43936 0.21852 0.0
H1514 H 0.12679 0.38803 0.24267 0.0
S1515 S 0.09827 0.29899 0.07197 0.0
N1516 N 0.09729 0.34995 0.0863 0.0
N1517 N 0.10864 0.29019 0.11385 0.0
C1518 C 0.11279 0.33049 0.14145 0.0
C1519 C 0.10668 0.36269 0.12677 0.0
C1520 C 0.63156 0.56935 0.88397 0.0
C1521 C 0.61754 0.59032 0.9224 0.0
C1522 C 0.66464 0.59976 0.85215 0.0
C1523 C 0.68261 0.65164 0.85672 0.0
H1524 H 0.61605 0.52886 0.87772 0.0
H1525 H 0.67409 0.58189 0.82306 0.0
S1526 S 0.64949 0.72299 0.94673 0.0
N1527 N 0.62102 0.66568 0.96099 0.0
N1528 N 0.67891 0.72107 0.89959 0.0
C1529 C 0.66641 0.67234 0.89361 0.0
C1530 C 0.63483 0.64219 0.9268 0.0
C1531 C 0.66472 0.3908 0.13422 0.0
C1532 C 0.65799 0.41657 0.17294 0.0
C1533 C 0.62744 0.36116 0.1077 0.0
C1534 C 0.5827 0.35663 0.11946 0.0
H1535 H 0.69874 0.39317 0.1247 0.0
H1536 H 0.63407 0.34283 0.07744 0.0
S1537 S 0.54624 0.4137 0.21889 0.0
N1538 N 0.6023 0.43212 0.22351 0.0
N1539 N 0.53312 0.37932 0.17203 0.0
C1540 C 0.57531 0.38167 0.15828 0.0
C1541 C 0.61285 0.4109 0.18561 0.0
C1542 C 0.86065 0.3636 0.44988 0.0
C1543 C 0.90335 0.41469 0.44756 0.0
C1544 C 0.82271 0.33996 0.42387 0.0
C1545 C 0.82396 0.36663 0.39572 0.0
H1546 H 0.85676 0.3416 0.47166 0.0
H1547 H 0.79115 0.30038 0.42651 0.0
S1548 S 0.92524 0.5056 0.38461 0.0
N1549 N 0.94495 0.49221 0.4163 0.0
N1550 N 0.86981 0.45199 0.37478 0.0
C1551 C 0.86527 0.41941 0.39616 0.0
C1552 C 0.9058 0.44212 0.42003 0.0
C1553 C 0.66396 0.61769 0.40886 0.0
C1554 C 0.62106 0.61369 0.43051 0.0
C1555 C 0.69418 0.65013 0.37747 0.0
C1556 C 0.6823 0.67838 0.36415 0.0
H1557 H 0.67455 0.59564 0.41614 0.0
H1558 H 0.72735 0.65307 0.36402 0.0
S1559 S 0.58156 0.69221 0.41938 0.0
N1560 N 0.57398 0.64914 0.44272 0.0
N1561 N 0.62889 0.70732 0.38221 0.0
C1562 C 0.64107 0.6771 0.38761 0.0
C1563 C 0.611 0.64531 0.42072 0.0
C1564 C 0.89136 0.32816 0.88225 0.0
C1565 C 0.8823 0.34289 0.85167 0.0
C1566 C 0.91814 0.36428 0.91511 0.0
C1567 C 0.93414 0.41607 0.92066 0.0
H1568 H 0.87828 0.2885 0.88068 0.0
H1569 H 0.92705 0.35113 0.93568 0.0
S1570 S 0.926 0.47636 0.84615 0.0
N1571 N 0.9012 0.41584 0.82421 0.0
N1572 N 0.94008 0.48049 0.89168 0.0
C1573 C 0.92534 0.43142 0.89026 0.0
C1574 C 0.90253 0.39576 0.85435 0.0
C1575 C 0.90312 0.86765 0.15034 0.0
C1576 C 0.85078 0.8379 0.15662 0.0
C1577 C 0.93033 0.89268 0.1145 0.0
C1578 C 0.90803 0.89169 0.08384 0.0
H1579 H 0.92349 0.87212 0.17341 0.0
H1580 H 0.96951 0.91409 0.11079 0.0
S1581 S 0.77181 0.81107 0.07992 0.0
N1582 N 0.77682 0.80157 0.12429 0.0
N1583 N 0.82934 0.85296 0.05941 0.0
C1584 C 0.85566 0.86067 0.08863 0.0
C1585 C 0.82707 0.83303 0.12436 0.0
C1586 C 0.98573 0.09636 0.87523 0.0
C1587 C 0.94372 0.09932 0.88691 0.0
C1588 C 0.99791 0.07389 0.89797 0.0
C1589 C 0.97117 0.05458 0.93661 0.0
H1590 H 1.00922 0.10972 0.84622 0.0
H1591 H 0.02924 0.07208 0.88487 0.0
S1592 S 0.86489 0.06256 0.9893 0.0
N1593 N 0.87955 0.08533 0.94496 0.0
N1594 N 0.90466 0.04956 0.98901 0.0
C1595 C 0.9332 0.0636 0.95179 0.0
C1596 C 0.91915 0.08406 0.92728 0.0
C1597 C 0.65387 0.09078 0.67848 0.0
C1598 C 0.70598 0.12804 0.66975 0.0
C1599 C 0.61934 0.07028 0.64898 0.0
C1600 C 0.63371 0.08058 0.60677 0.0
H1601 H 0.63885 0.08005 0.70974 0.0
H1602 H 0.58037 0.04583 0.65996 0.0
S1603 S 0.76671 0.17429 0.56585 0.0
N1604 N 0.76992 0.17614 0.61507 0.0
N1605 N 0.70714 0.13155 0.55869 0.0
C1606 C 0.68623 0.1166 0.59723 0.0
C1607 C 0.72124 0.14072 0.62831 0.0
C1608 C 0.5345 0.89823 0.43757 0.0
C1609 C 0.57241 0.94126 0.46079 0.0
C1610 C 0.539 0.85911 0.416 0.0
C1611 C 0.57972 0.86029 0.41974 0.0
H1612 H 0.50118 0.89463 0.43595 0.0
H1613 H 0.50962 0.82688 0.39757 0.0
S1614 S 0.68921 0.96595 0.47621 0.0
N1615 N 0.65437 0.98665 0.4824 0.0
N1616 N 0.65908 0.90819 0.44793 0.0
C1617 C 0.61843 0.90377 0.44226 0.0
C1618 C 0.61579 0.94574 0.46106 0.0
C1619 C 0.83513 0.14163 0.45204 0.0
C1620 C 0.82449 0.10926 0.41353 0.0
C1621 C 0.87829 0.16175 0.46869 0.0
C1622 C 0.91288 0.15186 0.44661 0.0
H1623 H 0.8091 0.14996 0.47003 0.0
H1624 H 0.88357 0.18364 0.49952 0.0
S1625 S 0.89908 0.06445 0.34763 0.0
N1626 N 0.84941 0.06441 0.35551 0.0
N1627 N 0.93146 0.10334 0.38728 0.0
C1628 C 0.90187 0.11813 0.409 0.0
C1629 C 0.85758 0.09692 0.39215 0.0
C1630 C 0.63812 0.13985 0.19483 0.0
C1631 C 0.62077 0.16844 0.22093 0.0
C1632 C 0.61993 0.10998 0.15564 0.0
C1633 C 0.5809 0.10392 0.1405 0.0
H1634 H 0.66714 0.14142 0.20438 0.0
H1635 H 0.63717 0.09165 0.1372 0.0
S1636 S 0.51821 0.16637 0.1983 0.0
N1637 N 0.56051 0.1869 0.2286 0.0
N1638 N 0.5242 0.12872 0.15774 0.0
C1639 C 0.56203 0.13102 0.1672 0.0
C1640 C 0.58207 0.16321 0.20636 0.0
C1641 C 0.69287 0.81159 0.86325 0.0
C1642 C 0.73974 0.83957 0.83901 0.0
C1643 C 0.67752 0.83672 0.89577 0.0
C1644 C 0.70785 0.89058 0.90401 0.0
H1645 H 0.66828 0.76974 0.85814 0.0
H1646 H 0.64285 0.81399 0.91554 0.0
S1647 S 0.82332 0.98129 0.84065 0.0
N1648 N 0.80951 0.92364 0.8189 0.0
N1649 N 0.78001 0.97168 0.8806 0.0
C1650 C 0.75132 0.91925 0.87703 0.0
C1651 C 0.76742 0.89349 0.84411 0.0
C1652 C 0.89695 0.93033 0.64276 0.0
C1653 C 0.91453 0.91167 0.60487 0.0
C1654 C 0.86058 0.89768 0.67299 0.0
C1655 C 0.84162 0.84513 0.66771 0.0
H1656 H 0.91215 0.97082 0.64991 0.0
H1657 H 0.84916 0.91438 0.70162 0.0
S1658 S 0.88167 0.77857 0.57893 0.0
N1659 N 0.91211 0.83704 0.56632 0.0
N1660 N 0.84903 0.7783 0.62469 0.0
C1661 C 0.8613 0.82693 0.6315 0.0
C1662 C 0.89629 0.8593 0.59987 0.0
C1663 C 0.27949 0.85922 0.81517 0.0
C1664 C 0.2571 0.80897 0.79113 0.0
C1665 C 0.25148 0.87862 0.83999 0.0
C1666 C 0.19855 0.8497 0.84281 0.0
H1667 H 0.31956 0.88415 0.81528 0.0
H1668 H 0.2717 0.91636 0.8586 0.0
S1669 S 0.11949 0.7157 0.78733 0.0
N1670 N 0.17656 0.7312 0.7728 0.0
N1671 N 0.12547 0.7663 0.81906 0.0
C1672 C 0.17578 0.79951 0.81903 0.0
C1673 C 0.20419 0.7798 0.7937 0.0
C1674 C 0.91801 0.34991 0.60517 0.0
C1675 C 0.94663 0.40473 0.61595 0.0
C1676 C 0.89516 0.31471 0.63541 0.0
C1677 C 0.8976 0.33189 0.67897 0.0
H1678 H 0.9118 0.33367 0.57291 0.0
H1679 H 0.87323 0.27352 0.6246 0.0
S1680 S 0.96248 0.47088 0.7257 0.0
N1681 N 0.97289 0.4732 0.67493 0.0
N1682 N 0.92921 0.40901 0.73076 0.0
C1683 C 0.92476 0.38659 0.69018 0.0
C1684 C 0.94893 0.42216 0.65937 0.0
C1685 C 0.38444 0.16025 0.41292 0.0
C1686 C 0.40419 0.13376 0.41379 0.0
C1687 C 0.38526 0.17085 0.37476 0.0
C1688 C 0.40583 0.15544 0.33743 0.0
H1689 H 0.37681 0.18066 0.44114 0.0
H1690 H 0.3744 0.1952 0.37513 0.0
S1691 S 0.40585 0.04192 0.32284 0.0
N1692 N 0.4031 0.05978 0.3742 0.0
N1693 N 0.41187 0.08588 0.30181 0.0
C1694 C 0.40971 0.11611 0.3373 0.0
C1695 C 0.40628 0.10311 0.37612 0.0
C1696 C 0.66609 0.63455 0.09935 0.0
C1697 C 0.6154 0.5932 0.10705 0.0
C1698 C 0.69616 0.66574 0.13224 0.0
C1699 C 0.67616 0.65896 0.17444 0.0
H1700 H 0.68286 0.64264 0.06762 0.0
H1701 H 0.7352 0.69618 0.12458 0.0
S1702 S 0.54395 0.56236 0.21158 0.0
N1703 N 0.54592 0.55004 0.1601 0.0
N1704 N 0.60121 0.61101 0.22202 0.0
C1705 C 0.62494 0.61978 0.18262 0.0
C1706 C 0.59491 0.5865 0.14899 0.0
C1707 C 0.19486 0.17269 0.63309 0.0
C1708 C 0.17739 0.16068 0.67448 0.0
C1709 C 0.16332 0.14381 0.60089 0.0
C1710 C 0.11354 0.1006 0.60845 0.0
H1711 H 0.23301 0.20529 0.62569 0.0
H1712 H 0.17837 0.15462 0.56964 0.0
S1713 S 0.04908 0.05399 0.71115 0.0
N1714 N 0.10615 0.10387 0.72121 0.0
N1715 N 0.04803 0.0484 0.6606 0.0
C1716 C 0.0957 0.08835 0.64958 0.0
C1717 C 0.12725 0.11861 0.68255 0.0
C1718 C 0.6599 0.4122 0.40408 0.0
C1719 C 0.63181 0.35646 0.39525 0.0
C1720 C 0.63918 0.44166 0.42455 0.0
C1721 C 0.58718 0.41975 0.4388 0.0
H1722 H 0.69983 0.43448 0.39503 0.0
H1723 H 0.66536 0.48343 0.42908 0.0
S1724 S 0.49265 0.27667 0.41944 0.0
N1725 N 0.54502 0.28213 0.40062 0.0
N1726 N 0.50796 0.33544 0.43785 0.0
C1727 C 0.55824 0.36425 0.42899 0.0
C1728 C 0.57945 0.33395 0.40823 0.0
C1729 C 0.40219 0.87294 0.12066 0.0
C1730 C 0.4192 0.9228 0.11649 0.0
C1731 C 0.36561 0.84653 0.15341 0.0
C1732 C 0.34488 0.86898 0.18466 0.0
H1733 H 0.41671 0.85369 0.09807 0.0
H1734 H 0.35331 0.80765 0.1537 0.0
S1735 S 0.37872 1.00052 0.18839 0.0
N1736 N 0.41342 0.9944 0.14635 0.0
N1737 N 0.34575 0.9457 0.20842 0.0
C1738 C 0.36212 0.91935 0.18083 0.0
C1739 C 0.39895 0.94593 0.14684 0.0
C1740 C 1.00841 0.73564 0.89613 0.0
C1741 C 0.9717 0.68466 0.90427 0.0
C1742 C 1.00755 0.75278 0.86261 0.0
C1743 C 0.97018 0.71905 0.83584 0.0
H1744 H 0.038 0.7623 0.9159 0.0
H1745 H 0.0364 0.79273 0.85763 0.0
S1746 S 0.86379 0.58204 0.8463 0.0
N1747 N 0.89576 0.60106 0.88551 0.0
N1748 N 0.89396 0.63259 0.82103 0.0
C1749 C 0.93216 0.66803 0.84454 0.0
C1750 C 0.93308 0.65084 0.87913 0.0
C1751 C 0.40908 0.37219 0.11087 0.0
C1752 C 0.42797 0.42455 0.11378 0.0
C1753 C 0.38009 0.34426 0.14479 0.0
C1754 C 0.36788 0.3671 0.18274 0.0
H1755 H 0.41702 0.35252 0.08222 0.0
H1756 H 0.36717 0.30439 0.14131 0.0
S1757 S 0.41568 0.50505 0.20982 0.0
N1758 N 0.43636 0.49924 0.15982 0.0
N1759 N 0.38414 0.44704 0.22377 0.0
C1760 C 0.38842 0.41979 0.18695 0.0
C1761 C 0.41751 0.44829 0.1523 0.0
C1762 C 0.39606 0.6531 0.93755 0.0
C1763 C 0.44436 0.66689 0.92223 0.0
C1764 C 0.35787 0.62174 0.91175 0.0
C1765 C 0.36723 0.60284 0.87049 0.0
H1766 H 0.38743 0.665 0.96995 0.0
H1767 H 0.32118 0.61272 0.92382 0.0
S1768 S 0.48642 0.62549 0.81681 0.0
N1769 N 0.49899 0.65765 0.86436 0.0
N1770 N 0.42726 0.5995 0.81536 0.0
C1771 C 0.41525 0.61628 0.85495 0.0
C1772 C 0.45392 0.64811 0.88105 0.0
C1773 C 0.12873 0.60703 0.63927 0.0
C1774 C 0.13567 0.607 0.59561 0.0
C1775 C 0.16982 0.63583 0.6628 0.0
C1776 C 0.21956 0.66454 0.64371 0.0
H1777 H 0.09137 0.5841 0.65536 0.0
H1778 H 0.16251 0.63658 0.69632 0.0
S1779 S 0.25699 0.68708 0.53302 0.0
N1780 N 0.19585 0.64561 0.53611 0.0
N1781 N 0.27202 0.69911 0.58016 0.0
C1782 C 0.22641 0.66837 0.60108 0.0
C1783 C 0.18488 0.63949 0.57713 0.0
C1784 C 0.37278 0.32833 0.63213 0.0
C1785 C 0.35974 0.34874 0.6718 0.0
C1786 C 0.40367 0.35919 0.59938 0.0
C1787 C 0.42099 0.41127 0.60401 0.0
H1788 H 0.35941 0.28816 0.62629 0.0
H1789 H 0.41336 0.34193 0.57004 0.0
S1790 S 0.4068 0.48692 0.70122 0.0
N1791 N 0.37692 0.42869 0.71443 0.0
N1792 N 0.42461 0.48209 0.65073 0.0
C1793 C 0.40799 0.43182 0.64268 0.0
C1794 C 0.38023 0.40196 0.67702 0.0
C1795 C 0.19246 0.67373 0.14244 0.0
C1796 C 0.16591 0.683 0.17886 0.0
C1797 C 0.16801 0.63891 0.10732 0.0
C1798 C 0.11679 0.61427 0.10695 0.0
H1799 H 0.23231 0.69372 0.14092 0.0
H1800 H 0.18942 0.63211 0.08011 0.0
S1801 S 0.03402 0.63483 0.19129 0.0
N1802 N 0.08789 0.66958 0.21008 0.0
N1803 N 0.04261 0.60722 0.14435 0.0
C1804 C 0.09115 0.62617 0.14216 0.0
C1805 C 0.11561 0.66006 0.17791 0.0
C1806 C 0.66225 0.34457 0.63377 0.0
C1807 C 0.65712 0.36258 0.67633 0.0
C1808 C 0.65763 0.36341 0.60337 0.0
C1809 C 0.64688 0.39979 0.6138 0.0
H1810 H 0.66976 0.31578 0.62386 0.0
H1811 H 0.66404 0.35078 0.5712 0.0
S1812 S 0.63636 0.46383 0.72178 0.0
N1813 N 0.64646 0.42314 0.72791 0.0
N1814 N 0.63643 0.45675 0.6709 0.0
C1815 C 0.64337 0.41915 0.65658 0.0
C1816 C 0.64892 0.40097 0.68764 0.0
C1817 C 0.88591 0.55771 0.12009 0.0
C1818 C 0.91802 0.60724 0.14085 0.0
C1819 C 0.90536 0.53785 0.08602 0.0
C1820 C 0.95693 0.56678 0.07378 0.0
H1821 H 0.84653 0.5337 0.13144 0.0
H1822 H 0.88071 0.49841 0.07145 0.0
S1823 S 0.05407 0.70195 0.11535 0.0
N1824 N 1.00101 0.68847 0.14301 0.0
N1825 N 0.03889 0.64838 0.08294 0.0
C1826 C 0.98856 0.61756 0.09296 0.0
C1827 C 0.96851 0.6387 0.12571 0.0
C1828 C 0.76299 0.56733 0.69931 0.0
C1829 C 0.80629 0.58456 0.67088 0.0
C1830 C 0.74801 0.59956 0.71736 0.0
C1831 C 0.7767 0.65011 0.70773 0.0
H1832 H 0.7399 0.52797 0.70607 0.0
H1833 H 0.71317 0.58439 0.73782 0.0
S1834 S 0.8992 0.71645 0.64166 0.0
N1835 N 0.88189 0.65696 0.6388 0.0
N1836 N 0.85392 0.71814 0.67209 0.0
C1837 C 0.82259 0.66917 0.68206 0.0
C1838 C 0.83771 0.63629 0.66399 0.0
C1839 C 0.40967 0.60463 0.37005 0.0
C1840 C 0.38807 0.6081 0.4118 0.0
C1841 C 0.39969 0.61581 0.33743 0.0
C1842 C 0.36831 0.63176 0.34508 0.0
H1843 H 0.43256 0.59075 0.36146 0.0
H1844 H 0.41491 0.60966 0.30571 0.0
S1845 S 0.31125 0.65787 0.44904 0.0
N1846 N 0.34153 0.63828 0.45899 0.0
N1847 N 0.32083 0.65661 0.39811 0.0
C1848 C 0.35066 0.64036 0.3869 0.0
C1849 C 0.36111 0.62934 0.42002 0.0
C1850 C 0.13293 0.42053 0.97164 0.0
C1851 C 0.11216 0.38397 0.93639 0.0
C1852 C 0.12939 0.46225 0.98255 0.0
C1853 C 0.10445 0.46749 0.95869 0.0
H1854 H 0.15081 0.41611 0.99124 0.0
H1855 H 0.14254 0.48792 1.01147 0.0
S1856 S 0.04589 0.3829 0.86258 0.0
N1857 N 0.06879 0.35723 0.87631 0.0
N1858 N 0.06036 0.43405 0.8979 0.0
C1859 C 0.08585 0.43248 0.92232 0.0
C1860 C 0.0899 0.39081 0.91099 0.0
C1861 C 0.23808 0.37739 0.37022 0.0
C1862 C 0.26486 0.37772 0.33071 0.0
C1863 C 0.22155 0.40876 0.38271 0.0
C1864 C 0.2281 0.43863 0.35482 0.0
H1865 H 0.22988 0.35273 0.3917 0.0
H1866 H 0.20254 0.40869 0.41407 0.0
S1867 S 0.28059 0.43896 0.2434 0.0
N1868 N 0.28908 0.40308 0.26159 0.0
N1869 N 0.254 0.45864 0.28365 0.0
C1870 C 0.25136 0.43618 0.31417 0.0
C1871 C 0.27037 0.40615 0.30225 0.0
loop_
_geom_bond_atom_site_label_1
_geom_bond_atom_site_label_2
_geom_bond_distance
_geom_bond_site_symmetry_2
_ccdc_geom_bond_type
Eu0 N29 2.600 . S
Eu0 N35 2.562 . S
Eu0 O44 2.462 1_455 S
Eu0 O45 2.373 . S
Eu0 O47 2.432 . S
Eu0 O48 2.291 1_445 S
Eu0 O52 2.348 1_455 S
Eu0 O55 2.372 1_554 S
Eu0 C64 2.787 1_455 S
C1 N2 1.365 . S
C1 C4 1.405 . S
C1 C8 1.448 . S
N2 C1 1.365 . S
N2 C5 1.319 . S
N2 Eu11 2.600 . S
C3 C5 1.397 . S
C3 C6 1.367 . S
C3 H23 0.931 . S
C4 C1 1.405 . S
C4 C6 1.403 . S
C4 C10 1.439 . S
C5 N2 1.319 . S
C5 C3 1.397 . S
C5 H16 0.930 . S
C6 C3 1.367 . S
C6 C4 1.403 . S
C6 H27 0.929 . S
C7 C8 1.430 . S
C7 C9 1.387 . S
C7 C13 1.404 . S
C8 C1 1.448 . S
C8 C7 1.430 . S
C8 N12 1.351 . S
C9 C7 1.387 . S
C9 C10 1.374 . S
C9 H24 0.931 . S
C10 C4 1.439 . S
C10 C9 1.374 . S
C10 H25 0.931 . S
Eu11 N2 2.600 . S
Eu11 N12 2.562 . S
Eu11 O46 2.342 1_655 S
Eu11 O49 2.372 1_556 S
Eu11 O50 2.462 1_655 S
Eu11 O51 2.373 . S
Eu11 O53 2.432 . S
Eu11 O54 2.291 1_665 S
Eu11 C75 2.787 1_655 S
N12 C8 1.351 . S
N12 Eu11 2.562 . S
N12 C14 1.325 . S
C13 C7 1.404 . S
C13 C15 1.366 . S
C13 H21 0.930 . S
C14 N12 1.325 . S
C14 C15 1.416 . S
C14 H20 0.929 1_655 S
C15 C13 1.366 . S
C15 C14 1.416 . S
C15 H17 0.930 1_655 S
H16 C5 0.930 . S
H17 C15 0.930 1_455 S
H18 C33 0.930 . S
H19 C40 0.930 1_655 S
H20 C14 0.929 1_455 S
H21 C13 0.930 . S
H22 C36 0.929 1_655 S
H23 C3 0.931 . S
H24 C9 0.931 . S
H25 C10 0.931 . S
H26 C31 0.931 . S
H27 C6 0.929 . S
H28 C39 0.930 . S
N29 Eu0 2.600 . S
N29 C30 1.365 . S
N29 C33 1.319 . S
C30 N29 1.365 . S
C30 C32 1.405 . S
C30 C38 1.448 . S
C31 H26 0.931 . S
C31 C33 1.397 . S
C31 C34 1.367 . S
C32 C30 1.405 . S
C32 C34 1.403 . S
C32 C65 1.439 . S
C33 H18 0.930 . S
C33 N29 1.319 . S
C33 C31 1.397 . S
C34 C31 1.367 . S
C34 C32 1.403 . S
C34 H41 0.929 . S
N35 Eu0 2.562 . S
N35 C36 1.325 . S
N35 C38 1.351 . S
C36 H22 0.929 1_455 S
C36 N35 1.325 . S
C36 C40 1.416 . S
C37 C38 1.430 . S
C37 C39 1.404 . S
C37 C66 1.387 . S
C38 C30 1.448 . S
C38 N35 1.351 . S
C38 C37 1.430 . S
C39 H28 0.930 . S
C39 C37 1.404 . S
C39 C40 1.366 . S
C40 H19 0.930 1_455 S
C40 C36 1.416 . S
C40 C39 1.366 . S
H41 C34 0.929 . S
H42 C65 0.931 . S
H43 C66 0.931 . S
O44 Eu0 2.462 1_655 S
O44 C64 1.252 . S
O45 Eu0 2.373 . S
O45 C56 1.249 1_545 S
O46 Eu11 2.342 1_455 S
O46 C56 1.257 1_556 S
O47 Eu0 2.432 . S
O47 C64 1.268 1_455 S
O48 Eu0 2.291 1_665 S
O48 C63 1.255 . S
O49 Eu11 2.372 1_554 S
O49 C63 1.257 . S
O50 Eu11 2.462 1_455 S
O50 C75 1.252 . S
O51 Eu11 2.373 . S
O51 C67 1.249 1_565 S
O52 Eu0 2.348 1_655 S
O52 C67 1.252 1_554 S
O53 Eu11 2.432 . S
O53 C75 1.268 1_655 S
O54 Eu11 2.291 1_445 S
O54 C74 1.255 . S
O55 Eu0 2.372 1_556 S
O55 C74 1.257 . S
C56 O45 1.249 1_565 S
C56 O46 1.257 1_554 S
C57 C60 1.382 . S
C57 C62 1.390 . S
C57 C64 1.506 . S
C58 C59 1.398 . S
C58 C62 1.392 . S
C59 C58 1.398 . S
C59 C61 1.372 . S
C59 H76 0.931 . S
C60 C57 1.382 . S
C60 C61 1.390 . S
C60 H77 0.931 1_655 S
C61 C59 1.372 . S
C61 C60 1.390 . S
C61 H78 0.929 . S
C62 C57 1.390 . S
C62 C58 1.392 . S
C62 H79 0.930 . S
C63 O48 1.255 . S
C63 O49 1.257 . S
C64 Eu0 2.787 1_655 S
C64 O44 1.252 . S
C64 O47 1.268 1_655 S
C64 C57 1.506 . S
C65 C32 1.439 . S
C65 H42 0.931 . S
C65 C66 1.374 . S
C66 C37 1.387 . S
C66 H43 0.931 . S
C66 C65 1.374 . S
C67 O51 1.249 1_545 S
C67 O52 1.252 1_556 S
C68 C71 1.382 . S
C68 C72 1.390 . S
C68 C75 1.506 . S
C69 C70 1.398 . S
C69 C72 1.392 . S
C70 C69 1.398 . S
C70 C73 1.372 . S
C70 H80 0.931 . S
C71 C68 1.382 . S
C71 C73 1.390 . S
C71 H81 0.931 1_455 S
C72 C68 1.390 . S
C72 C69 1.392 . S
C72 H82 0.930 . S
C73 C70 1.372 . S
C73 C71 1.390 . S
C73 H83 0.929 . S
C74 O54 1.255 . S
C74 O55 1.257 . S
C75 Eu11 2.787 1_455 S
C75 O50 1.252 . S
C75 O53 1.268 1_455 S
C75 C68 1.506 . S
H76 C59 0.931 . S
H77 C60 0.931 1_455 S
H78 C61 0.929 . S
H79 C62 0.930 . S
H80 C70 0.931 . S
H81 C71 0.931 1_655 S
H82 C72 0.930 . S
H83 C73 0.929 . S
Eu84 N113 2.600 . S
Eu84 N119 2.562 . S
Eu84 O128 2.462 . S
Eu84 O129 2.373 . S
Eu84 O131 2.432 . S
Eu84 O132 2.291 . S
Eu84 O136 2.335 . S
Eu84 O139 2.372 . S
Eu84 C148 2.787 . S
C85 N86 1.365 . S
C85 C88 1.405 . S
C85 C92 1.448 . S
N86 C85 1.365 . S
N86 C89 1.319 . S
N86 Eu95 2.600 . S
C87 C89 1.397 . S
C87 C90 1.367 . S
C87 H107 0.931 . S
C88 C85 1.405 . S
C88 C90 1.403 . S
C88 C94 1.439 . S
C89 N86 1.319 . S
C89 C87 1.397 . S
C89 H100 0.930 . S
C90 C87 1.367 . S
C90 C88 1.403 . S
C90 H111 0.929 . S
C91 C92 1.430 . S
C91 C93 1.387 . S
C91 C97 1.404 . S
C92 C85 1.448 . S
C92 C91 1.430 . S
C92 N96 1.351 . S
C93 C91 1.387 . S
C93 C94 1.374 . S
C93 H108 0.931 . S
C94 C88 1.439 . S
C94 C93 1.374 . S
C94 H109 0.931 . S
Eu95 N86 2.600 . S
Eu95 N96 2.562 . S
Eu95 O130 2.335 . S
Eu95 O133 2.372 . S
Eu95 O134 2.462 . S
Eu95 O135 2.373 . S
Eu95 O137 2.432 . S
Eu95 O138 2.291 . S
Eu95 C159 2.787 . S
N96 C92 1.351 . S
N96 Eu95 2.562 . S
N96 C98 1.325 . S
C97 C91 1.404 . S
C97 C99 1.366 . S
C97 H105 0.930 . S
C98 N96 1.325 . S
C98 C99 1.416 . S
C98 H104 0.929 . S
C99 C97 1.366 . S
C99 C98 1.416 . S
C99 H101 0.930 . S
H100 C89 0.930 . S
H101 C99 0.930 . S
H102 C117 0.930 . S
H103 C124 0.930 . S
H104 C98 0.929 . S
H105 C97 0.930 . S
H106 C120 0.929 . S
H107 C87 0.931 . S
H108 C93 0.931 . S
H109 C94 0.931 . S
H110 C115 0.931 . S
H111 C90 0.929 . S
H112 C123 0.930 1_655 S
N113 Eu84 2.600 . S
N113 C114 1.365 . S
N113 C117 1.319 . S
C114 N113 1.365 . S
C114 C116 1.405 . S
C114 C122 1.448 . S
C115 H110 0.931 . S
C115 C117 1.397 . S
C115 C118 1.367 . S
C116 C114 1.405 . S
C116 C118 1.403 . S
C116 C149 1.439 . S
C117 H102 0.930 . S
C117 N113 1.319 . S
C117 C115 1.397 . S
C118 C115 1.367 . S
C118 C116 1.403 . S
C118 H125 0.929 . S
N119 Eu84 2.562 . S
N119 C120 1.325 . S
N119 C122 1.351 . S
C120 H106 0.929 . S
C120 N119 1.325 . S
C120 C124 1.416 . S
C121 C122 1.430 . S
C121 C123 1.404 . S
C121 C150 1.387 . S
C122 C114 1.448 . S
C122 N119 1.351 . S
C122 C121 1.430 . S
C123 H112 0.930 1_455 S
C123 C121 1.404 . S
C123 C124 1.366 . S
C124 H103 0.930 . S
C124 C120 1.416 . S
C124 C123 1.366 . S
H125 C118 0.929 . S
H126 C149 0.931 . S
H127 C150 0.931 . S
O128 Eu84 2.462 . S
O128 C148 1.252 . S
O129 Eu84 2.373 . S
O129 C140 1.249 . S
O130 Eu95 2.335 . S
O130 C140 1.264 . S
O131 Eu84 2.432 . S
O131 C148 1.268 . S
O132 Eu84 2.291 . S
O132 C147 1.255 . S
O133 Eu95 2.372 . S
O133 C147 1.257 . S
O134 Eu95 2.462 . S
O134 C159 1.252 . S
O135 Eu95 2.373 . S
O135 C151 1.249 . S
O136 Eu84 2.335 . S
O136 C151 1.264 . S
O137 Eu95 2.432 . S
O137 C159 1.268 . S
O138 Eu95 2.291 . S
O138 C158 1.255 . S
O139 Eu84 2.372 . S
O139 C158 1.257 . S
C140 O129 1.249 . S
C140 O130 1.264 . S
C141 C144 1.382 . S
C141 C146 1.390 . S
C141 C148 1.506 . S
C142 C143 1.398 . S
C142 C146 1.392 . S
C143 C142 1.398 . S
C143 C145 1.372 . S
C143 H160 0.931 . S
C144 C141 1.382 . S
C144 C145 1.390 . S
C144 H161 0.931 . S
C145 C143 1.372 . S
C145 C144 1.390 . S
C145 H162 0.929 1_565 S
C146 C141 1.390 . S
C146 C142 1.392 . S
C146 H163 0.930 . S
C147 O132 1.255 . S
C147 O133 1.257 . S
C148 Eu84 2.787 . S
C148 O128 1.252 . S
C148 O131 1.268 . S
C148 C141 1.506 . S
C149 C116 1.439 . S
C149 H126 0.931 . S
C149 C150 1.374 . S
C150 C121 1.387 . S
C150 H127 0.931 . S
C150 C149 1.374 . S
C151 O135 1.249 . S
C151 O136 1.264 . S
C152 C155 1.382 . S
C152 C156 1.390 . S
C152 C159 1.506 . S
C153 C154 1.398 . S
C153 C156 1.392 . S
C154 C153 1.398 . S
C154 C157 1.372 . S
C154 H164 0.931 . S
C155 C152 1.382 . S
C155 C157 1.390 . S
C155 H165 0.931 . S
C156 C152 1.390 . S
C156 C153 1.392 . S
C156 H166 0.930 . S
C157 C154 1.372 . S
C157 C155 1.390 . S
C157 H167 0.929 . S
C158 O138 1.255 . S
C158 O139 1.257 . S
C159 Eu95 2.787 . S
C159 O134 1.252 . S
C159 O137 1.268 . S
C159 C152 1.506 . S
H160 C143 0.931 . S
H161 C144 0.931 . S
H162 C145 0.929 1_545 S
H163 C146 0.930 . S
H164 C154 0.931 . S
H165 C155 0.931 . S
H166 C156 0.930 . S
H167 C157 0.929 . S
Eu168 N197 2.600 . S
Eu168 N203 2.562 . S
Eu168 O212 2.462 . S
Eu168 O213 2.373 . S
Eu168 O215 2.432 . S
Eu168 O216 2.291 1_565 S
Eu168 O220 2.335 . S
Eu168 O223 2.372 . S
Eu168 C232 2.787 . S
C169 N170 1.365 . S
C169 C172 1.405 . S
C169 C176 1.448 . S
N170 C169 1.365 . S
N170 C173 1.319 . S
N170 Eu179 2.600 . S
C171 C173 1.397 . S
C171 C174 1.367 . S
C171 H191 0.931 . S
C172 C169 1.405 . S
C172 C174 1.403 . S
C172 C178 1.439 . S
C173 N170 1.319 . S
C173 C171 1.397 . S
C173 H184 0.930 . S
C174 C171 1.367 . S
C174 C172 1.403 . S
C174 H195 0.929 . S
C175 C176 1.430 . S
C175 C177 1.387 . S
C175 C181 1.404 . S
C176 C169 1.448 . S
C176 C175 1.430 . S
C176 N180 1.351 . S
C177 C175 1.387 . S
C177 C178 1.374 . S
C177 H192 0.931 . S
C178 C172 1.439 . S
C178 C177 1.374 . S
C178 H193 0.931 . S
Eu179 N170 2.600 . S
Eu179 N180 2.562 . S
Eu179 O214 2.335 . S
Eu179 O217 2.372 . S
Eu179 O218 2.462 . S
Eu179 O219 2.373 . S
Eu179 O221 2.432 . S
Eu179 O222 2.291 1_545 S
Eu179 C243 2.787 . S
N180 C176 1.351 . S
N180 Eu179 2.562 . S
N180 C182 1.325 . S
C181 C175 1.404 . S
C181 C183 1.366 . S
C181 H189 0.930 . S
C182 N180 1.325 . S
C182 C183 1.416 . S
C182 H188 0.929 . S
C183 C181 1.366 . S
C183 C182 1.416 . S
C183 H185 0.930 1_545 S
H184 C173 0.930 . S
H185 C183 0.930 1_565 S
H186 C201 0.930 . S
H187 C208 0.930 1_545 S
H188 C182 0.929 . S
H189 C181 0.930 . S
H190 C204 0.930 . S
H191 C171 0.931 . S
H192 C177 0.931 . S
H193 C178 0.931 . S
H194 C199 0.931 . S
H195 C174 0.929 . S
H196 C207 0.930 . S
N197 Eu168 2.600 . S
N197 C198 1.365 . S
N197 C201 1.319 . S
C198 N197 1.365 . S
C198 C200 1.405 . S
C198 C206 1.448 . S
C199 H194 0.931 . S
C199 C201 1.397 . S
C199 C202 1.367 . S
C200 C198 1.405 . S
C200 C202 1.403 . S
C200 C233 1.439 . S
C201 H186 0.930 . S
C201 N197 1.319 . S
C201 C199 1.397 . S
C202 C199 1.367 . S
C202 C200 1.403 . S
C202 H209 0.929 . S
N203 Eu168 2.562 . S
N203 C204 1.325 . S
N203 C206 1.351 . S
C204 H190 0.930 . S
C204 N203 1.325 . S
C204 C208 1.416 . S
C205 C206 1.430 . S
C205 C207 1.404 . S
C205 C234 1.387 . S
C206 C198 1.448 . S
C206 N203 1.351 . S
C206 C205 1.430 . S
C207 H196 0.930 . S
C207 C205 1.404 . S
C207 C208 1.366 . S
C208 H187 0.930 1_565 S
C208 C204 1.416 . S
C208 C207 1.366 . S
H209 C202 0.929 . S
H210 C233 0.931 . S
H211 C234 0.931 . S
O212 Eu168 2.462 . S
O212 C232 1.252 . S
O213 Eu168 2.373 . S
O213 C224 1.249 1_565 S
O214 Eu179 2.335 . S
O214 C224 1.264 . S
O215 Eu168 2.432 . S
O215 C232 1.268 . S
O216 Eu168 2.291 1_545 S
O216 C231 1.255 . S
O217 Eu179 2.372 . S
O217 C231 1.257 . S
O218 Eu179 2.462 . S
O218 C243 1.252 . S
O219 Eu179 2.373 . S
O219 C235 1.249 1_545 S
O220 Eu168 2.335 . S
O220 C235 1.264 . S
O221 Eu179 2.432 . S
O221 C243 1.268 . S
O222 Eu179 2.291 1_565 S
O222 C242 1.255 . S
O223 Eu168 2.372 . S
O223 C242 1.257 . S
C224 O213 1.249 1_545 S
C224 O214 1.264 . S
C225 C228 1.382 . S
C225 C230 1.390 . S
C225 C232 1.506 . S
C226 C227 1.398 . S
C226 C230 1.392 . S
C227 C226 1.398 . S
C227 C229 1.372 . S
C227 H244 0.931 . S
C228 C225 1.382 . S
C228 C229 1.390 . S
C228 H245 0.931 . S
C229 C227 1.372 . S
C229 C228 1.390 . S
C229 H246 0.929 . S
C230 C225 1.390 . S
C230 C226 1.392 . S
C230 H247 0.930 . S
C231 O216 1.255 . S
C231 O217 1.257 . S
C232 Eu168 2.787 . S
C232 O212 1.252 . S
C232 O215 1.268 . S
C232 C225 1.506 . S
C233 C200 1.439 . S
C233 H210 0.931 . S
C233 C234 1.374 . S
C234 C205 1.387 . S
C234 H211 0.931 . S
C234 C233 1.374 . S
C235 O219 1.249 1_565 S
C235 O220 1.264 . S
C236 C239 1.382 . S
C236 C240 1.390 . S
C236 C243 1.506 . S
C237 C238 1.398 . S
C237 C240 1.392 . S
C238 C237 1.398 . S
C238 C241 1.372 . S
C238 H248 0.931 . S
C239 C236 1.382 . S
C239 C241 1.390 . S
C239 H249 0.931 . S
C240 C236 1.390 . S
C240 C237 1.392 . S
C240 H250 0.930 . S
C241 C238 1.372 . S
C241 C239 1.390 . S
C241 H251 0.929 . S
C242 O222 1.255 . S
C242 O223 1.257 . S
C243 Eu179 2.787 . S
C243 O218 1.252 . S
C243 O221 1.268 . S
C243 C236 1.506 . S
H244 C227 0.931 . S
H245 C228 0.931 . S
H246 C229 0.929 . S
H247 C230 0.930 . S
H248 C238 0.931 . S
H249 C239 0.931 . S
H250 C240 0.930 . S
H251 C241 0.929 . S
Eu252 N281 2.600 . S
Eu252 N287 2.562 . S
Eu252 O296 2.462 . S
Eu252 O297 2.373 . S
Eu252 O299 2.432 . S
Eu252 O300 2.291 . S
Eu252 O304 2.335 . S
Eu252 O307 2.372 . S
Eu252 C316 2.787 . S
C253 N254 1.365 . S
C253 C256 1.405 . S
C253 C260 1.448 . S
N254 C253 1.365 . S
N254 C257 1.319 . S
N254 Eu263 2.600 . S
C255 C257 1.397 . S
C255 C258 1.367 . S
C255 H275 0.931 . S
C256 C253 1.405 . S
C256 C258 1.403 . S
C256 C262 1.439 . S
C257 N254 1.319 . S
C257 C255 1.397 . S
C257 H268 0.930 . S
C258 C255 1.367 . S
C258 C256 1.403 . S
C258 H279 0.929 . S
C259 C260 1.430 . S
C259 C261 1.387 . S
C259 C265 1.404 . S
C260 C253 1.448 . S
C260 C259 1.430 . S
C260 N264 1.351 . S
C261 C259 1.387 . S
C261 C262 1.374 . S
C261 H276 0.931 . S
C262 C256 1.439 . S
C262 C261 1.374 . S
C262 H277 0.931 . S
Eu263 N254 2.600 . S
Eu263 N264 2.562 . S
Eu263 O298 2.335 . S
Eu263 O301 2.372 . S
Eu263 O302 2.462 . S
Eu263 O303 2.373 . S
Eu263 O305 2.432 . S
Eu263 O306 2.291 . S
Eu263 C327 2.787 . S
N264 C260 1.351 . S
N264 Eu263 2.562 . S
N264 C266 1.325 . S
C265 C259 1.404 . S
C265 C267 1.366 . S
C265 H273 0.930 1_545 S
C266 N264 1.325 . S
C266 C267 1.416 . S
C266 H272 0.929 . S
C267 C265 1.366 . S
C267 C266 1.416 . S
C267 H269 0.934 . S
H268 C257 0.930 . S
H269 C267 0.934 . S
H270 C285 0.930 . S
H271 C292 0.930 . S
H272 C266 0.929 . S
H273 C265 0.930 1_565 S
H274 C288 0.929 . S
H275 C255 0.931 . S
H276 C261 0.931 . S
H277 C262 0.931 . S
H278 C283 0.931 . S
H279 C258 0.929 . S
H280 C291 0.930 . S
N281 Eu252 2.600 . S
N281 C282 1.365 . S
N281 C285 1.319 . S
C282 N281 1.365 . S
C282 C284 1.405 . S
C282 C290 1.448 . S
C283 H278 0.931 . S
C283 C285 1.397 . S
C283 C286 1.367 . S
C284 C282 1.405 . S
C284 C286 1.403 . S
C284 C317 1.439 . S
C285 H270 0.930 . S
C285 N281 1.319 . S
C285 C283 1.397 . S
C286 C283 1.367 . S
C286 C284 1.403 . S
C286 H293 0.929 . S
N287 Eu252 2.562 . S
N287 C288 1.325 . S
N287 C290 1.351 . S
C288 H274 0.929 . S
C288 N287 1.325 . S
C288 C292 1.416 . S
C289 C290 1.430 . S
C289 C291 1.404 . S
C289 C318 1.387 . S
C290 C282 1.448 . S
C290 N287 1.351 . S
C290 C289 1.430 . S
C291 H280 0.930 . S
C291 C289 1.404 . S
C291 C292 1.366 . S
C292 H271 0.930 . S
C292 C288 1.416 . S
C292 C291 1.366 . S
H293 C286 0.929 . S
H294 C317 0.931 . S
H295 C318 0.931 . S
O296 Eu252 2.462 . S
O296 C316 1.252 . S
O297 Eu252 2.373 . S
O297 C308 1.249 . S
O298 Eu263 2.335 . S
O298 C308 1.264 . S
O299 Eu252 2.432 . S
O299 C316 1.268 . S
O300 Eu252 2.291 . S
O300 C315 1.255 . S
O301 Eu263 2.372 . S
O301 C315 1.257 . S
O302 Eu263 2.462 . S
O302 C327 1.252 . S
O303 Eu263 2.373 . S
O303 C319 1.249 . S
O304 Eu252 2.335 . S
O304 C319 1.264 . S
O305 Eu263 2.432 . S
O305 C327 1.268 . S
O306 Eu263 2.291 . S
O306 C326 1.255 . S
O307 Eu252 2.372 . S
O307 C326 1.257 . S
C308 O297 1.249 . S
C308 O298 1.264 . S
C309 C312 1.382 . S
C309 C314 1.390 . S
C309 C316 1.506 . S
C310 C311 1.398 . S
C310 C314 1.392 . S
C311 C310 1.398 . S
C311 C313 1.372 . S
C311 H328 0.931 . S
C312 C309 1.382 . S
C312 C313 1.390 . S
C312 H329 0.931 . S
C313 C311 1.372 . S
C313 C312 1.390 . S
C313 H330 0.929 . S
C314 C309 1.390 . S
C314 C310 1.392 . S
C314 H331 0.930 . S
C315 O300 1.255 . S
C315 O301 1.257 . S
C316 Eu252 2.787 . S
C316 O296 1.252 . S
C316 O299 1.268 . S
C316 C309 1.506 . S
C317 C284 1.439 . S
C317 H294 0.931 . S
C317 C318 1.374 . S
C318 C289 1.387 . S
C318 H295 0.931 . S
C318 C317 1.374 . S
C319 O303 1.249 . S
C319 O304 1.264 . S
C320 C323 1.382 . S
C320 C324 1.390 . S
C320 C327 1.506 . S
C321 C322 1.398 . S
C321 C324 1.392 . S
C322 C321 1.398 . S
C322 C325 1.372 . S
C322 H332 0.931 . S
C323 C320 1.382 . S
C323 C325 1.390 . S
C323 H333 0.931 . S
C324 C320 1.390 . S
C324 C321 1.392 . S
C324 H334 0.930 . S
C325 C322 1.372 . S
C325 C323 1.390 . S
C325 H335 0.929 . S
C326 O306 1.255 . S
C326 O307 1.257 . S
C327 Eu263 2.787 . S
C327 O302 1.252 . S
C327 O305 1.268 . S
C327 C320 1.506 . S
H328 C311 0.931 . S
H329 C312 0.931 . S
H330 C313 0.929 . S
H331 C314 0.930 . S
H332 C322 0.931 . S
H333 C323 0.931 . S
H334 C324 0.930 . S
H335 C325 0.929 . S
Eu336 N365 2.600 . S
Eu336 N371 2.562 1_545 S
Eu336 O380 2.462 . S
Eu336 O381 2.373 1_545 S
Eu336 O383 2.432 . S
Eu336 O384 2.291 1_545 S
Eu336 O388 2.335 1_655 S
Eu336 O391 2.372 1_655 S
Eu336 C400 2.787 . S
C337 N338 1.365 . S
C337 C340 1.405 . S
C337 C344 1.447 . S
N338 C337 1.365 . S
N338 C341 1.319 . S
N338 Eu347 2.600 . S
C339 C341 1.397 . S
C339 C342 1.367 . S
C339 H359 0.931 . S
C340 C337 1.405 . S
C340 C342 1.403 . S
C340 C346 1.439 . S
C341 N338 1.319 . S
C341 C339 1.397 . S
C341 H352 0.930 1_455 S
C342 C339 1.367 . S
C342 C340 1.403 . S
C342 H363 0.929 . S
C343 C344 1.430 1_545 S
C343 C345 1.387 . S
C343 C349 1.404 . S
C344 C337 1.447 . S
C344 C343 1.430 1_565 S
C344 N348 1.351 1_565 S
C345 C343 1.387 . S
C345 C346 1.374 1_545 S
C345 H360 0.931 . S
C346 C340 1.439 . S
C346 C345 1.374 1_565 S
C346 H361 0.931 . S
Eu347 N338 2.600 . S
Eu347 N348 2.562 1_565 S
Eu347 O382 2.335 1_455 S
Eu347 O385 2.372 1_455 S
Eu347 O386 2.462 . S
Eu347 O387 2.373 1_565 S
Eu347 O389 2.432 . S
Eu347 O390 2.291 1_565 S
Eu347 C411 2.787 . S
N348 C344 1.351 1_545 S
N348 Eu347 2.562 1_545 S
N348 C350 1.325 . S
C349 C343 1.404 . S
C349 C351 1.366 . S
C349 H357 0.930 . S
C350 N348 1.325 . S
C350 C351 1.416 . S
C350 H356 0.929 . S
C351 C349 1.366 . S
C351 C350 1.416 . S
C351 H353 0.930 . S
H352 C341 0.930 1_655 S
H353 C351 0.930 . S
H354 C369 0.930 1_455 S
H355 C376 0.930 . S
H356 C350 0.929 . S
H357 C349 0.930 . S
H358 C372 0.929 . S
H359 C339 0.931 . S
H360 C345 0.931 . S
H361 C346 0.931 . S
H362 C367 0.931 . S
H363 C342 0.929 . S
H364 C375 0.930 . S
N365 Eu336 2.600 . S
N365 C366 1.365 . S
N365 C369 1.319 . S
C366 N365 1.365 . S
C366 C368 1.405 . S
C366 C374 1.450 . S
C367 H362 0.931 . S
C367 C369 1.397 . S
C367 C370 1.367 . S
C368 C366 1.405 . S
C368 C370 1.403 . S
C368 C401 1.439 . S
C369 H354 0.930 1_655 S
C369 N365 1.319 . S
C369 C367 1.397 . S
C370 C367 1.367 . S
C370 C368 1.403 . S
C370 H377 0.929 . S
N371 Eu336 2.562 1_565 S
N371 C372 1.325 . S
N371 C374 1.350 1_565 S
C372 H358 0.929 . S
C372 N371 1.325 . S
C372 C376 1.416 . S
C373 C374 1.430 1_565 S
C373 C375 1.404 . S
C373 C402 1.387 . S
C374 C366 1.450 . S
C374 N371 1.350 1_545 S
C374 C373 1.430 1_545 S
C375 H364 0.930 . S
C375 C373 1.404 . S
C375 C376 1.366 . S
C376 H355 0.930 . S
C376 C372 1.416 . S
C376 C375 1.366 . S
H377 C370 0.929 . S
H378 C401 0.931 . S
H379 C402 0.931 . S
O380 Eu336 2.462 . S
O380 C400 1.252 . S
O381 Eu336 2.373 1_565 S
O381 C392 1.249 . S
O382 Eu347 2.335 1_655 S
O382 C392 1.264 . S
O383 Eu336 2.432 . S
O383 C400 1.268 . S
O384 Eu336 2.291 1_565 S
O384 C399 1.255 . S
O385 Eu347 2.372 1_655 S
O385 C399 1.257 . S
O386 Eu347 2.462 . S
O386 C411 1.252 . S
O387 Eu347 2.373 1_545 S
O387 C403 1.249 . S
O388 Eu336 2.335 1_455 S
O388 C403 1.264 . S
O389 Eu347 2.432 . S
O389 C411 1.268 . S
O390 Eu347 2.291 1_545 S
O390 C410 1.255 . S
O391 Eu336 2.372 1_455 S
O391 C410 1.257 . S
C392 O381 1.249 . S
C392 O382 1.264 . S
C393 C396 1.382 . S
C393 C398 1.390 . S
C393 C400 1.506 . S
C394 C395 1.398 . S
C394 C398 1.392 . S
C395 C394 1.398 . S
C395 C397 1.372 . S
C395 H412 0.931 . S
C396 C393 1.382 . S
C396 C397 1.390 . S
C396 H413 0.931 . S
C397 C395 1.372 . S
C397 C396 1.390 . S
C397 H414 0.929 . S
C398 C393 1.390 . S
C398 C394 1.392 . S
C398 H415 0.930 . S
C399 O384 1.255 . S
C399 O385 1.257 . S
C400 Eu336 2.787 . S
C400 O380 1.252 . S
C400 O383 1.268 . S
C400 C393 1.506 . S
C401 C368 1.439 . S
C401 H378 0.931 . S
C401 C402 1.374 1_545 S
C402 C373 1.387 . S
C402 H379 0.931 . S
C402 C401 1.374 1_565 S
C403 O387 1.249 . S
C403 O388 1.264 . S
C404 C407 1.382 . S
C404 C408 1.390 . S
C404 C411 1.506 . S
C405 C406 1.398 . S
C405 C408 1.392 . S
C406 C405 1.398 . S
C406 C409 1.372 . S
C406 H416 0.931 . S
C407 C404 1.382 . S
C407 C409 1.390 . S
C407 H417 0.931 . S
C408 C404 1.390 . S
C408 C405 1.392 . S
C408 H418 0.930 . S
C409 C406 1.372 . S
C409 C407 1.390 . S
C409 H419 0.929 . S
C410 O390 1.255 . S
C410 O391 1.257 . S
C411 Eu347 2.787 . S
C411 O386 1.252 . S
C411 O389 1.268 . S
C411 C404 1.506 . S
H412 C395 0.931 . S
H413 C396 0.931 . S
H414 C397 0.929 . S
H415 C398 0.930 . S
H416 C406 0.931 . S
H417 C407 0.931 . S
H418 C408 0.930 . S
H419 C409 0.929 . S
Eu420 N449 2.600 . S
Eu420 N455 2.562 . S
Eu420 O464 2.462 . S
Eu420 O465 2.373 . S
Eu420 O467 2.432 . S
Eu420 O468 2.291 . S
Eu420 O472 2.335 . S
Eu420 O475 2.372 . S
Eu420 C484 2.787 . S
C421 N422 1.365 . S
C421 C424 1.405 . S
C421 C428 1.448 . S
N422 C421 1.365 . S
N422 C425 1.319 . S
N422 Eu431 2.600 . S
C423 C425 1.397 . S
C423 C426 1.367 . S
C423 H443 0.931 . S
C424 C421 1.405 . S
C424 C426 1.403 . S
C424 C430 1.439 . S
C425 N422 1.319 . S
C425 C423 1.397 . S
C425 H436 0.930 . S
C426 C423 1.367 . S
C426 C424 1.403 . S
C426 H447 0.929 . S
C427 C428 1.430 . S
C427 C429 1.387 . S
C427 C433 1.404 . S
C428 C421 1.448 . S
C428 C427 1.430 . S
C428 N432 1.351 . S
C429 C427 1.387 . S
C429 C430 1.374 . S
C429 H444 0.931 . S
C430 C424 1.439 . S
C430 C429 1.374 . S
C430 H445 0.931 . S
Eu431 N422 2.600 . S
Eu431 N432 2.562 . S
Eu431 O466 2.335 . S
Eu431 O469 2.372 . S
Eu431 O470 2.462 . S
Eu431 O471 2.373 . S
Eu431 O473 2.432 . S
Eu431 O474 2.291 . S
Eu431 C495 2.787 . S
N432 C428 1.351 . S
N432 Eu431 2.562 . S
N432 C434 1.325 . S
C433 C427 1.404 . S
C433 C435 1.366 . S
C433 H441 0.930 . S
C434 N432 1.325 . S
C434 C435 1.416 . S
C434 H440 0.929 . S
C435 C433 1.366 . S
C435 C434 1.416 . S
C435 H437 0.930 . S
H436 C425 0.930 . S
H437 C435 0.930 . S
H438 C453 0.930 . S
H439 C460 0.930 . S
H440 C434 0.929 . S
H441 C433 0.930 . S
H442 C456 0.929 . S
H443 C423 0.931 . S
H444 C429 0.931 . S
H445 C430 0.931 . S
H446 C451 0.931 . S
H447 C426 0.929 . S
H448 C459 0.930 . S
N449 Eu420 2.600 . S
N449 C450 1.365 . S
N449 C453 1.319 . S
C450 N449 1.365 . S
C450 C452 1.405 . S
C450 C458 1.448 . S
C451 H446 0.931 . S
C451 C453 1.397 . S
C451 C454 1.367 . S
C452 C450 1.405 . S
C452 C454 1.403 . S
C452 C485 1.439 . S
C453 H438 0.930 . S
C453 N449 1.319 . S
C453 C451 1.397 . S
C454 C451 1.367 . S
C454 C452 1.403 . S
C454 H461 0.929 . S
N455 Eu420 2.562 . S
N455 C456 1.325 . S
N455 C458 1.351 . S
C456 H442 0.929 . S
C456 N455 1.325 . S
C456 C460 1.416 . S
C457 C458 1.430 . S
C457 C459 1.404 . S
C457 C486 1.387 . S
C458 C450 1.448 . S
C458 N455 1.351 . S
C458 C457 1.430 . S
C459 H448 0.930 . S
C459 C457 1.404 . S
C459 C460 1.366 . S
C460 H439 0.930 . S
C460 C456 1.416 . S
C460 C459 1.366 . S
H461 C454 0.929 . S
H462 C485 0.931 . S
H463 C486 0.931 . S
O464 Eu420 2.462 . S
O464 C484 1.252 . S
O465 Eu420 2.373 . S
O465 C476 1.249 . S
O466 Eu431 2.335 . S
O466 C476 1.264 . S
O467 Eu420 2.432 . S
O467 C484 1.268 . S
O468 Eu420 2.291 . S
O468 C483 1.255 . S
O469 Eu431 2.372 . S
O469 C483 1.257 . S
O470 Eu431 2.462 . S
O470 C495 1.252 . S
O471 Eu431 2.373 . S
O471 C487 1.249 . S
O472 Eu420 2.335 . S
O472 C487 1.264 . S
O473 Eu431 2.432 . S
O473 C495 1.268 . S
O474 Eu431 2.291 . S
O474 C494 1.255 . S
O475 Eu420 2.372 . S
O475 C494 1.257 . S
C476 O465 1.249 . S
C476 O466 1.264 . S
C477 C480 1.382 . S
C477 C482 1.390 . S
C477 C484 1.506 . S
C478 C479 1.398 . S
C478 C482 1.392 . S
C479 C478 1.398 . S
C479 C481 1.372 . S
C479 H496 0.931 . S
C480 C477 1.382 . S
C480 C481 1.390 . S
C480 H497 0.931 . S
C481 C479 1.372 . S
C481 C480 1.390 . S
C481 H498 0.929 . S
C482 C477 1.390 . S
C482 C478 1.392 . S
C482 H499 0.930 . S
C483 O468 1.255 . S
C483 O469 1.257 . S
C484 Eu420 2.787 . S
C484 O464 1.252 . S
C484 O467 1.268 . S
C484 C477 1.506 . S
C485 C452 1.439 . S
C485 H462 0.931 . S
C485 C486 1.374 . S
C486 C457 1.387 . S
C486 H463 0.931 . S
C486 C485 1.374 . S
C487 O471 1.249 . S
C487 O472 1.264 . S
C488 C491 1.382 . S
C488 C492 1.390 . S
C488 C495 1.506 . S
C489 C490 1.398 . S
C489 C492 1.392 . S
C490 C489 1.398 . S
C490 C493 1.372 . S
C490 H500 0.931 . S
C491 C488 1.382 . S
C491 C493 1.390 . S
C491 H501 0.931 . S
C492 C488 1.390 . S
C492 C489 1.392 . S
C492 H502 0.930 . S
C493 C490 1.372 . S
C493 C491 1.390 . S
C493 H503 0.929 1_565 S
C494 O474 1.255 . S
C494 O475 1.257 . S
C495 Eu431 2.787 . S
C495 O470 1.252 . S
C495 O473 1.268 . S
C495 C488 1.506 . S
H496 C479 0.931 . S
H497 C480 0.931 . S
H498 C481 0.929 . S
H499 C482 0.930 . S
H500 C490 0.931 . S
H501 C491 0.931 . S
H502 C492 0.930 . S
H503 C493 0.929 1_545 S
Eu504 N533 2.600 1_554 S
Eu504 N539 2.562 1_554 S
Eu504 O548 2.462 . S
Eu504 O549 2.373 1_554 S
Eu504 O551 2.432 . S
Eu504 O552 2.291 . S
Eu504 O556 2.335 1_545 S
Eu504 O559 2.372 1_544 S
Eu504 C568 2.787 . S
C505 N506 1.365 . S
C505 C508 1.405 . S
C505 C512 1.448 . S
N506 C505 1.365 . S
N506 C509 1.319 . S
N506 Eu515 2.600 1_554 S
C507 C509 1.397 . S
C507 C510 1.367 . S
C507 H527 0.931 . S
C508 C505 1.405 . S
C508 C510 1.403 . S
C508 C514 1.439 . S
C509 N506 1.319 . S
C509 C507 1.397 . S
C509 H520 0.930 1_565 S
C510 C507 1.367 . S
C510 C508 1.403 . S
C510 H531 0.929 . S
C511 C512 1.430 . S
C511 C513 1.387 . S
C511 C517 1.404 . S
C512 C505 1.448 . S
C512 C511 1.430 . S
C512 N516 1.351 . S
C513 C511 1.387 . S
C513 C514 1.374 . S
C513 H528 0.931 . S
C514 C508 1.439 . S
C514 C513 1.374 . S
C514 H529 0.931 . S
Eu515 N506 2.600 1_556 S
Eu515 N516 2.562 1_556 S
Eu515 O550 2.335 1_565 S
Eu515 O553 2.372 1_566 S
Eu515 O554 2.462 . S
Eu515 O555 2.373 1_556 S
Eu515 O557 2.432 . S
Eu515 O558 2.291 . S
Eu515 C579 2.787 . S
N516 C512 1.351 . S
N516 Eu515 2.562 1_554 S
N516 C518 1.325 1_554 S
C517 C511 1.404 . S
C517 C519 1.366 1_554 S
C517 H525 0.930 . S
C518 N516 1.325 1_556 S
C518 C519 1.416 . S
C518 H524 0.929 . S
C519 C517 1.366 1_556 S
C519 C518 1.416 . S
C519 H521 0.930 . S
H520 C509 0.930 1_545 S
H521 C519 0.930 . S
H522 C537 0.930 1_565 S
H523 C544 0.930 . S
H524 C518 0.929 . S
H525 C517 0.930 . S
H526 C540 0.929 . S
H527 C507 0.931 . S
H528 C513 0.931 . S
H529 C514 0.931 . S
H530 C535 0.931 . S
H531 C510 0.929 . S
H532 C543 0.930 . S
N533 Eu504 2.600 1_556 S
N533 C534 1.365 . S
N533 C537 1.319 . S
C534 N533 1.365 . S
C534 C536 1.405 . S
C534 C542 1.448 . S
C535 H530 0.931 . S
C535 C537 1.397 . S
C535 C538 1.367 . S
C536 C534 1.405 . S
C536 C538 1.403 . S
C536 C569 1.439 . S
C537 H522 0.930 1_545 S
C537 N533 1.319 . S
C537 C535 1.397 . S
C538 C535 1.367 . S
C538 C536 1.403 . S
C538 H545 0.929 . S
N539 Eu504 2.562 1_556 S
N539 C540 1.325 1_556 S
N539 C542 1.351 . S
C540 H526 0.929 . S
C540 N539 1.325 1_554 S
C540 C544 1.416 . S
C541 C542 1.430 . S
C541 C543 1.404 . S
C541 C570 1.387 . S
C542 C534 1.448 . S
C542 N539 1.351 . S
C542 C541 1.430 . S
C543 H532 0.930 . S
C543 C541 1.404 . S
C543 C544 1.366 1_556 S
C544 H523 0.930 . S
C544 C540 1.416 . S
C544 C543 1.366 1_554 S
H545 C538 0.929 . S
H546 C569 0.931 . S
H547 C570 0.931 . S
O548 Eu504 2.462 . S
O548 C568 1.252 . S
O549 Eu504 2.373 1_556 S
O549 C560 1.249 . S
O550 Eu515 2.335 1_545 S
O550 C560 1.264 . S
O551 Eu504 2.432 . S
O551 C568 1.268 . S
O552 Eu504 2.291 . S
O552 C567 1.255 . S
O553 Eu515 2.372 1_544 S
O553 C567 1.257 . S
O554 Eu515 2.462 . S
O554 C579 1.252 . S
O555 Eu515 2.373 1_554 S
O555 C571 1.249 . S
O556 Eu504 2.335 1_565 S
O556 C571 1.264 . S
O557 Eu515 2.432 . S
O557 C579 1.268 . S
O558 Eu515 2.291 . S
O558 C578 1.255 . S
O559 Eu504 2.372 1_566 S
O559 C578 1.257 . S
C560 O549 1.249 . S
C560 O550 1.264 . S
C561 C564 1.382 . S
C561 C566 1.390 . S
C561 C568 1.506 . S
C562 C563 1.398 . S
C562 C566 1.392 . S
C563 C562 1.398 . S
C563 C565 1.372 . S
C563 H580 0.931 . S
C564 C561 1.382 . S
C564 C565 1.390 . S
C564 H581 0.931 . S
C565 C563 1.372 . S
C565 C564 1.390 . S
C565 H582 0.929 . S
C566 C561 1.390 . S
C566 C562 1.392 . S
C566 H583 0.930 . S
C567 O552 1.255 . S
C567 O553 1.257 . S
C568 Eu504 2.787 . S
C568 O548 1.252 . S
C568 O551 1.268 . S
C568 C561 1.506 . S
C569 C536 1.439 . S
C569 H546 0.931 . S
C569 C570 1.374 . S
C570 C541 1.387 . S
C570 H547 0.931 . S
C570 C569 1.374 . S
C571 O555 1.249 . S
C571 O556 1.264 . S
C572 C575 1.382 . S
C572 C576 1.390 . S
C572 C579 1.506 . S
C573 C574 1.398 . S
C573 C576 1.392 . S
C574 C573 1.398 . S
C574 C577 1.372 . S
C574 H584 0.931 . S
C575 C572 1.382 . S
C575 C577 1.390 . S
C575 H585 0.931 . S
C576 C572 1.390 . S
C576 C573 1.392 . S
C576 H586 0.930 . S
C577 C574 1.372 . S
C577 C575 1.390 . S
C577 H587 0.929 . S
C578 O558 1.255 . S
C578 O559 1.257 . S
C579 Eu515 2.787 . S
C579 O554 1.252 . S
C579 O557 1.268 . S
C579 C572 1.506 . S
H580 C563 0.931 . S
H581 C564 0.931 . S
H582 C565 0.929 . S
H583 C566 0.930 . S
H584 C574 0.931 . S
H585 C575 0.931 . S
H586 C576 0.930 . S
H587 C577 0.929 . S
Eu588 N617 2.600 . S
Eu588 N623 2.562 . S
Eu588 O632 2.462 . S
Eu588 O633 2.373 . S
Eu588 O635 2.432 . S
Eu588 O636 2.291 . S
Eu588 O640 2.335 . S
Eu588 O643 2.372 . S
Eu588 C652 2.787 . S
C589 N590 1.365 . S
C589 C592 1.405 . S
C589 C596 1.448 . S
N590 C589 1.365 . S
N590 C593 1.319 . S
N590 Eu599 2.600 . S
C591 C593 1.397 . S
C591 C594 1.367 . S
C591 H611 0.931 . S
C592 C589 1.405 . S
C592 C594 1.403 . S
C592 C598 1.439 . S
C593 N590 1.319 . S
C593 C591 1.397 . S
C593 H604 0.930 . S
C594 C591 1.367 . S
C594 C592 1.403 . S
C594 H615 0.929 . S
C595 C596 1.430 . S
C595 C597 1.387 . S
C595 C601 1.404 . S
C596 C589 1.448 . S
C596 C595 1.430 . S
C596 N600 1.351 . S
C597 C595 1.387 . S
C597 C598 1.374 . S
C597 H612 0.931 . S
C598 C592 1.439 . S
C598 C597 1.374 . S
C598 H613 0.931 . S
Eu599 N590 2.600 . S
Eu599 N600 2.562 . S
Eu599 O634 2.335 . S
Eu599 O637 2.372 . S
Eu599 O638 2.462 . S
Eu599 O639 2.373 . S
Eu599 O641 2.432 . S
Eu599 O642 2.291 . S
Eu599 C663 2.787 . S
N600 C596 1.351 . S
N600 Eu599 2.562 . S
N600 C602 1.325 . S
C601 C595 1.404 . S
C601 C603 1.366 . S
C601 H609 0.930 . S
C602 N600 1.325 . S
C602 C603 1.416 . S
C602 H608 0.929 . S
C603 C601 1.366 . S
C603 C602 1.416 . S
C603 H605 0.930 . S
H604 C593 0.930 . S
H605 C603 0.930 . S
H606 C621 0.930 . S
H607 C628 0.930 . S
H608 C602 0.929 . S
H609 C601 0.930 . S
H610 C624 0.929 . S
H611 C591 0.931 . S
H612 C597 0.931 . S
H613 C598 0.931 . S
H614 C619 0.931 . S
H615 C594 0.929 . S
H616 C627 0.930 . S
N617 Eu588 2.600 . S
N617 C618 1.365 . S
N617 C621 1.319 . S
C618 N617 1.365 . S
C618 C620 1.405 . S
C618 C626 1.448 . S
C619 H614 0.931 . S
C619 C621 1.397 . S
C619 C622 1.367 . S
C620 C618 1.405 . S
C620 C622 1.403 . S
C620 C653 1.439 . S
C621 H606 0.930 . S
C621 N617 1.319 . S
C621 C619 1.397 . S
C622 C619 1.367 . S
C622 C620 1.403 . S
C622 H629 0.929 1_545 S
N623 Eu588 2.562 . S
N623 C624 1.325 . S
N623 C626 1.351 . S
C624 H610 0.929 . S
C624 N623 1.325 . S
C624 C628 1.416 . S
C625 C626 1.430 . S
C625 C627 1.404 . S
C625 C654 1.387 . S
C626 C618 1.448 . S
C626 N623 1.351 . S
C626 C625 1.430 . S
C627 H616 0.930 . S
C627 C625 1.404 . S
C627 C628 1.366 . S
C628 H607 0.930 . S
C628 C624 1.416 . S
C628 C627 1.366 . S
H629 C622 0.929 1_565 S
H630 C653 0.931 1_565 S
H631 C654 0.931 . S
O632 Eu588 2.462 . S
O632 C652 1.252 . S
O633 Eu588 2.373 . S
O633 C644 1.249 . S
O634 Eu599 2.335 . S
O634 C644 1.264 . S
O635 Eu588 2.432 . S
O635 C652 1.268 . S
O636 Eu588 2.291 . S
O636 C651 1.255 . S
O637 Eu599 2.372 . S
O637 C651 1.257 . S
O638 Eu599 2.462 . S
O638 C663 1.252 . S
O639 Eu599 2.373 . S
O639 C655 1.249 . S
O640 Eu588 2.335 . S
O640 C655 1.264 . S
O641 Eu599 2.432 . S
O641 C663 1.268 . S
O642 Eu599 2.291 . S
O642 C662 1.255 . S
O643 Eu588 2.372 . S
O643 C662 1.257 . S
C644 O633 1.249 . S
C644 O634 1.264 . S
C645 C648 1.382 . S
C645 C650 1.390 . S
C645 C652 1.506 . S
C646 C647 1.398 . S
C646 C650 1.392 . S
C647 C646 1.398 . S
C647 C649 1.372 . S
C647 H664 0.931 . S
C648 C645 1.382 . S
C648 C649 1.390 . S
C648 H665 0.931 . S
C649 C647 1.372 . S
C649 C648 1.390 . S
C649 H666 0.929 . S
C650 C645 1.390 . S
C650 C646 1.392 . S
C650 H667 0.930 . S
C651 O636 1.255 . S
C651 O637 1.257 . S
C652 Eu588 2.787 . S
C652 O632 1.252 . S
C652 O635 1.268 . S
C652 C645 1.506 . S
C653 C620 1.439 . S
C653 H630 0.931 1_545 S
C653 C654 1.374 . S
C654 C625 1.387 . S
C654 H631 0.931 . S
C654 C653 1.374 . S
C655 O639 1.249 . S
C655 O640 1.264 . S
C656 C659 1.382 . S
C656 C660 1.390 . S
C656 C663 1.506 . S
C657 C658 1.398 . S
C657 C660 1.392 . S
C658 C657 1.398 . S
C658 C661 1.372 . S
C658 H668 0.931 . S
C659 C656 1.382 . S
C659 C661 1.390 . S
C659 H669 0.931 . S
C660 C656 1.390 . S
C660 C657 1.392 . S
C660 H670 0.930 . S
C661 C658 1.372 . S
C661 C659 1.390 . S
C661 H671 0.929 . S
C662 O642 1.255 . S
C662 O643 1.257 . S
C663 Eu599 2.787 . S
C663 O638 1.252 . S
C663 O641 1.268 . S
C663 C656 1.506 . S
H664 C647 0.931 . S
H665 C648 0.931 . S
H666 C649 0.929 . S
H667 C650 0.930 . S
H668 C658 0.931 . S
H669 C659 0.931 . S
H670 C660 0.930 . S
H671 C661 0.929 . S
Eu672 N701 2.600 . S
Eu672 N707 2.562 . S
Eu672 O716 2.462 1_554 S
Eu672 O717 2.373 . S
Eu672 O719 2.432 . S
Eu672 O720 2.291 1_554 S
Eu672 O724 2.335 1_554 S
Eu672 O727 2.372 . S
Eu672 C736 2.787 1_554 S
C673 N674 1.365 . S
C673 C676 1.405 . S
C673 C680 1.448 . S
N674 C673 1.365 . S
N674 C677 1.319 . S
N674 Eu683 2.600 . S
C675 C677 1.397 . S
C675 C678 1.367 . S
C675 H695 0.931 . S
C676 C673 1.405 . S
C676 C678 1.403 . S
C676 C682 1.439 . S
C677 N674 1.319 . S
C677 C675 1.397 . S
C677 H688 0.930 . S
C678 C675 1.367 . S
C678 C676 1.403 . S
C678 H699 0.929 . S
C679 C680 1.430 . S
C679 C681 1.387 . S
C679 C685 1.404 . S
C680 C673 1.448 . S
C680 C679 1.430 . S
C680 N684 1.351 . S
C681 C679 1.387 . S
C681 C682 1.374 . S
C681 H696 0.931 . S
C682 C676 1.439 . S
C682 C681 1.374 . S
C682 H697 0.931 . S
Eu683 N674 2.600 . S
Eu683 N684 2.562 . S
Eu683 O718 2.335 1_556 S
Eu683 O721 2.372 . S
Eu683 O722 2.462 1_556 S
Eu683 O723 2.373 . S
Eu683 O725 2.432 . S
Eu683 O726 2.291 1_556 S
Eu683 C747 2.787 1_556 S
N684 C680 1.351 . S
N684 Eu683 2.562 . S
N684 C686 1.325 . S
C685 C679 1.404 . S
C685 C687 1.366 . S
C685 H693 0.930 . S
C686 N684 1.325 . S
C686 C687 1.416 . S
C686 H692 0.929 1_556 S
C687 C685 1.366 . S
C687 C686 1.416 . S
C687 H689 0.930 . S
H688 C677 0.930 . S
H689 C687 0.930 . S
H690 C705 0.930 . S
H691 C712 0.930 . S
H692 C686 0.929 1_554 S
H693 C685 0.930 . S
H694 C708 0.929 1_556 S
H695 C675 0.931 . S
H696 C681 0.931 . S
H697 C682 0.931 . S
H698 C703 0.931 . S
H699 C678 0.929 . S
H700 C711 0.930 . S
N701 Eu672 2.600 . S
N701 C702 1.365 . S
N701 C705 1.319 . S
C702 N701 1.365 . S
C702 C704 1.405 . S
C702 C710 1.448 . S
C703 H698 0.931 . S
C703 C705 1.397 . S
C703 C706 1.367 . S
C704 C702 1.405 . S
C704 C706 1.403 . S
C704 C737 1.439 . S
C705 H690 0.930 . S
C705 N701 1.319 . S
C705 C703 1.397 . S
C706 C703 1.367 . S
C706 C704 1.403 . S
C706 H713 0.929 . S
N707 Eu672 2.562 . S
N707 C708 1.325 . S
N707 C710 1.351 . S
C708 H694 0.929 1_554 S
C708 N707 1.325 . S
C708 C712 1.416 . S
C709 C710 1.430 . S
C709 C711 1.404 . S
C709 C738 1.387 . S
C710 C702 1.448 . S
C710 N707 1.351 . S
C710 C709 1.430 . S
C711 H700 0.930 . S
C711 C709 1.404 . S
C711 C712 1.366 . S
C712 H691 0.930 . S
C712 C708 1.416 . S
C712 C711 1.366 . S
H713 C706 0.929 . S
H714 C737 0.931 . S
H715 C738 0.931 . S
O716 Eu672 2.462 1_556 S
O716 C736 1.252 . S
O717 Eu672 2.373 . S
O717 C728 1.249 . S
O718 Eu683 2.335 1_554 S
O718 C728 1.264 . S
O719 Eu672 2.432 . S
O719 C736 1.268 1_554 S
O720 Eu672 2.291 1_556 S
O720 C735 1.255 . S
O721 Eu683 2.372 . S
O721 C735 1.257 . S
O722 Eu683 2.462 1_554 S
O722 C747 1.252 . S
O723 Eu683 2.373 . S
O723 C739 1.249 . S
O724 Eu672 2.335 1_556 S
O724 C739 1.264 . S
O725 Eu683 2.432 . S
O725 C747 1.268 1_556 S
O726 Eu683 2.291 1_554 S
O726 C746 1.255 . S
O727 Eu672 2.372 . S
O727 C746 1.257 . S
C728 O717 1.249 . S
C728 O718 1.264 . S
C729 C732 1.382 . S
C729 C734 1.390 . S
C729 C736 1.506 . S
C730 C731 1.398 . S
C730 C734 1.392 . S
C731 C730 1.398 . S
C731 C733 1.372 . S
C731 H748 0.931 . S
C732 C729 1.382 . S
C732 C733 1.390 . S
C732 H749 0.931 . S
C733 C731 1.372 . S
C733 C732 1.390 . S
C733 H750 0.929 . S
C734 C729 1.390 . S
C734 C730 1.392 . S
C734 H751 0.930 . S
C735 O720 1.255 . S
C735 O721 1.257 . S
C736 Eu672 2.787 1_556 S
C736 O716 1.252 . S
C736 O719 1.268 1_556 S
C736 C729 1.506 . S
C737 C704 1.439 . S
C737 H714 0.931 . S
C737 C738 1.374 . S
C738 C709 1.387 . S
C738 H715 0.931 . S
C738 C737 1.374 . S
C739 O723 1.249 . S
C739 O724 1.264 . S
C740 C743 1.382 . S
C740 C744 1.390 . S
C740 C747 1.506 . S
C741 C742 1.398 . S
C741 C744 1.392 . S
C742 C741 1.398 . S
C742 C745 1.372 . S
C742 H752 0.931 . S
C743 C740 1.382 . S
C743 C745 1.390 . S
C743 H753 0.931 . S
C744 C740 1.390 . S
C744 C741 1.392 . S
C744 H754 0.930 . S
C745 C742 1.372 . S
C745 C743 1.390 . S
C745 H755 0.929 . S
C746 O726 1.255 . S
C746 O727 1.257 . S
C747 Eu683 2.787 1_554 S
C747 O722 1.252 . S
C747 O725 1.268 1_554 S
C747 C740 1.506 . S
H748 C731 0.931 . S
H749 C732 0.931 . S
H750 C733 0.929 . S
H751 C734 0.930 . S
H752 C742 0.931 . S
H753 C743 0.931 . S
H754 C744 0.930 . S
H755 C745 0.929 . S
Eu756 N785 2.600 . S
Eu756 N791 2.562 . S
Eu756 O800 2.462 . S
Eu756 O801 2.373 . S
Eu756 O803 2.432 . S
Eu756 O804 2.291 . S
Eu756 O808 2.335 . S
Eu756 O811 2.372 . S
Eu756 C820 2.787 . S
C757 N758 1.365 . S
C757 C760 1.405 . S
C757 C764 1.448 . S
N758 C757 1.365 . S
N758 C761 1.319 . S
N758 Eu767 2.600 . S
C759 C761 1.397 . S
C759 C762 1.367 . S
C759 H779 0.931 . S
C760 C757 1.405 . S
C760 C762 1.403 . S
C760 C766 1.439 . S
C761 N758 1.319 . S
C761 C759 1.397 . S
C761 H772 0.930 . S
C762 C759 1.367 . S
C762 C760 1.403 . S
C762 H783 0.929 . S
C763 C764 1.430 . S
C763 C765 1.387 . S
C763 C769 1.404 . S
C764 C757 1.448 . S
C764 C763 1.430 . S
C764 N768 1.351 . S
C765 C763 1.387 . S
C765 C766 1.374 . S
C765 H780 0.931 . S
C766 C760 1.439 . S
C766 C765 1.374 . S
C766 H781 0.931 . S
Eu767 N758 2.600 . S
Eu767 N768 2.562 . S
Eu767 O802 2.335 . S
Eu767 O805 2.372 . S
Eu767 O806 2.462 . S
Eu767 O807 2.373 . S
Eu767 O809 2.432 . S
Eu767 O810 2.291 . S
Eu767 C831 2.787 . S
N768 C764 1.351 . S
N768 Eu767 2.562 . S
N768 C770 1.325 . S
C769 C763 1.404 . S
C769 C771 1.366 . S
C769 H777 0.930 . S
C770 N768 1.325 . S
C770 C771 1.416 . S
C770 H776 0.929 . S
C771 C769 1.366 . S
C771 C770 1.416 . S
C771 H773 0.930 . S
H772 C761 0.930 . S
H773 C771 0.930 . S
H774 C789 0.930 . S
H775 C796 0.930 . S
H776 C770 0.929 . S
H777 C769 0.930 . S
H778 C792 0.929 . S
H779 C759 0.931 . S
H780 C765 0.931 . S
H781 C766 0.931 . S
H782 C787 0.931 . S
H783 C762 0.929 . S
H784 C795 0.930 . S
N785 Eu756 2.600 . S
N785 C786 1.365 . S
N785 C789 1.319 . S
C786 N785 1.365 . S
C786 C788 1.405 . S
C786 C794 1.448 . S
C787 H782 0.931 . S
C787 C789 1.397 . S
C787 C790 1.367 . S
C788 C786 1.405 . S
C788 C790 1.403 . S
C788 C821 1.439 . S
C789 H774 0.930 . S
C789 N785 1.319 . S
C789 C787 1.397 . S
C790 C787 1.367 . S
C790 C788 1.403 . S
C790 H797 0.929 . S
N791 Eu756 2.562 . S
N791 C792 1.325 . S
N791 C794 1.351 . S
C792 H778 0.929 . S
C792 N791 1.325 . S
C792 C796 1.416 . S
C793 C794 1.430 . S
C793 C795 1.404 . S
C793 C822 1.387 . S
C794 C786 1.448 . S
C794 N791 1.351 . S
C794 C793 1.430 . S
C795 H784 0.930 . S
C795 C793 1.404 . S
C795 C796 1.366 . S
C796 H775 0.930 . S
C796 C792 1.416 . S
C796 C795 1.366 . S
H797 C790 0.929 . S
H798 C821 0.931 . S
H799 C822 0.931 . S
O800 Eu756 2.462 . S
O800 C820 1.252 . S
O801 Eu756 2.373 . S
O801 C812 1.249 . S
O802 Eu767 2.335 . S
O802 C812 1.264 . S
O803 Eu756 2.432 . S
O803 C820 1.268 . S
O804 Eu756 2.291 . S
O804 C819 1.255 . S
O805 Eu767 2.372 . S
O805 C819 1.257 . S
O806 Eu767 2.462 . S
O806 C831 1.252 . S
O807 Eu767 2.373 . S
O807 C823 1.249 . S
O808 Eu756 2.335 . S
O808 C823 1.264 . S
O809 Eu767 2.432 . S
O809 C831 1.268 . S
O810 Eu767 2.291 . S
O810 C830 1.255 . S
O811 Eu756 2.372 . S
O811 C830 1.257 . S
C812 O801 1.249 . S
C812 O802 1.264 . S
C813 C816 1.382 . S
C813 C818 1.390 . S
C813 C820 1.506 . S
C814 C815 1.398 . S
C814 C818 1.392 . S
C815 C814 1.398 . S
C815 C817 1.372 . S
C815 H832 0.931 . S
C816 C813 1.382 . S
C816 C817 1.390 . S
C816 H833 0.931 . S
C817 C815 1.372 . S
C817 C816 1.390 . S
C817 H834 0.929 1_545 S
C818 C813 1.390 . S
C818 C814 1.392 . S
C818 H835 0.930 . S
C819 O804 1.255 . S
C819 O805 1.257 . S
C820 Eu756 2.787 . S
C820 O800 1.252 . S
C820 O803 1.268 . S
C820 C813 1.506 . S
C821 C788 1.439 . S
C821 H798 0.931 . S
C821 C822 1.374 . S
C822 C793 1.387 . S
C822 H799 0.931 . S
C822 C821 1.374 . S
C823 O807 1.249 . S
C823 O808 1.264 . S
C824 C827 1.382 . S
C824 C828 1.390 . S
C824 C831 1.506 . S
C825 C826 1.398 . S
C825 C828 1.392 . S
C826 C825 1.398 . S
C826 C829 1.372 . S
C826 H836 0.931 . S
C827 C824 1.382 . S
C827 C829 1.390 . S
C827 H837 0.931 . S
C828 C824 1.390 . S
C828 C825 1.392 . S
C828 H838 0.930 . S
C829 C826 1.372 . S
C829 C827 1.390 . S
C829 H839 0.929 . S
C830 O810 1.255 . S
C830 O811 1.257 . S
C831 Eu767 2.787 . S
C831 O806 1.252 . S
C831 O809 1.268 . S
C831 C824 1.506 . S
H832 C815 0.931 . S
H833 C816 0.931 . S
H834 C817 0.929 1_565 S
H835 C818 0.930 . S
H836 C826 0.931 . S
H837 C827 0.931 . S
H838 C828 0.930 . S
H839 C829 0.929 . S
Eu840 N869 2.600 . S
Eu840 N875 2.562 1_655 S
Eu840 O884 2.462 . S
Eu840 O885 2.373 1_655 S
Eu840 O887 2.432 . S
Eu840 O888 2.291 1_655 S
Eu840 O892 2.335 . S
Eu840 O895 2.372 . S
Eu840 C904 2.787 . S
C841 N842 1.365 . S
C841 C844 1.405 . S
C841 C848 1.448 1_455 S
N842 C841 1.365 . S
N842 C845 1.319 . S
N842 Eu851 2.600 . S
C843 C845 1.397 . S
C843 C846 1.367 . S
C843 H863 0.931 . S
C844 C841 1.405 . S
C844 C846 1.403 . S
C844 C850 1.439 . S
C845 N842 1.319 . S
C845 C843 1.397 . S
C845 H856 0.930 . S
C846 C843 1.367 . S
C846 C844 1.403 . S
C846 H867 0.929 . S
C847 C848 1.430 . S
C847 C849 1.387 . S
C847 C853 1.404 . S
C848 C841 1.448 1_655 S
C848 C847 1.430 . S
C848 N852 1.351 . S
C849 C847 1.387 . S
C849 C850 1.374 1_655 S
C849 H864 0.931 . S
C850 C844 1.439 . S
C850 C849 1.374 1_455 S
C850 H865 0.931 . S
Eu851 N842 2.600 . S
Eu851 N852 2.562 1_455 S
Eu851 O886 2.335 . S
Eu851 O889 2.372 . S
Eu851 O890 2.462 . S
Eu851 O891 2.373 1_455 S
Eu851 O893 2.432 . S
Eu851 O894 2.291 1_455 S
Eu851 C915 2.787 . S
N852 C848 1.351 . S
N852 Eu851 2.562 1_655 S
N852 C854 1.325 . S
C853 C847 1.404 . S
C853 C855 1.366 . S
C853 H861 0.930 . S
C854 N852 1.325 . S
C854 C855 1.416 . S
C854 H860 0.929 . S
C855 C853 1.366 . S
C855 C854 1.416 . S
C855 H857 0.930 . S
H856 C845 0.930 . S
H857 C855 0.930 . S
H858 C873 0.930 . S
H859 C880 0.930 . S
H860 C854 0.929 . S
H861 C853 0.930 . S
H862 C876 0.929 . S
H863 C843 0.931 . S
H864 C849 0.931 . S
H865 C850 0.931 . S
H866 C871 0.931 . S
H867 C846 0.929 . S
H868 C879 0.930 . S
N869 Eu840 2.600 . S
N869 C870 1.365 . S
N869 C873 1.319 . S
C870 N869 1.365 . S
C870 C872 1.405 . S
C870 C878 1.448 1_655 S
C871 H866 0.931 . S
C871 C873 1.397 . S
C871 C874 1.367 . S
C872 C870 1.405 . S
C872 C874 1.403 . S
C872 C905 1.439 . S
C873 H858 0.930 . S
C873 N869 1.319 . S
C873 C871 1.397 . S
C874 C871 1.367 . S
C874 C872 1.403 . S
C874 H881 0.929 . S
N875 Eu840 2.562 1_455 S
N875 C876 1.325 . S
N875 C878 1.351 . S
C876 H862 0.929 . S
C876 N875 1.325 . S
C876 C880 1.416 . S
C877 C878 1.430 . S
C877 C879 1.404 . S
C877 C906 1.387 . S
C878 C870 1.448 1_455 S
C878 N875 1.351 . S
C878 C877 1.430 . S
C879 H868 0.930 . S
C879 C877 1.404 . S
C879 C880 1.366 . S
C880 H859 0.930 . S
C880 C876 1.416 . S
C880 C879 1.366 . S
H881 C874 0.929 . S
H882 C905 0.931 . S
H883 C906 0.931 . S
O884 Eu840 2.462 . S
O884 C904 1.252 . S
O885 Eu840 2.373 1_455 S
O885 C896 1.249 . S
O886 Eu851 2.335 . S
O886 C896 1.264 . S
O887 Eu840 2.432 . S
O887 C904 1.268 . S
O888 Eu840 2.291 1_455 S
O888 C903 1.255 . S
O889 Eu851 2.372 . S
O889 C903 1.257 . S
O890 Eu851 2.462 . S
O890 C915 1.252 . S
O891 Eu851 2.373 1_655 S
O891 C907 1.249 . S
O892 Eu840 2.335 . S
O892 C907 1.264 . S
O893 Eu851 2.432 . S
O893 C915 1.268 . S
O894 Eu851 2.291 1_655 S
O894 C914 1.255 . S
O895 Eu840 2.372 . S
O895 C914 1.257 . S
C896 O885 1.249 . S
C896 O886 1.264 . S
C897 C900 1.382 . S
C897 C902 1.390 . S
C897 C904 1.506 . S
C898 C899 1.398 . S
C898 C902 1.392 . S
C899 C898 1.398 . S
C899 C901 1.372 . S
C899 H916 0.931 . S
C900 C897 1.382 . S
C900 C901 1.390 . S
C900 H917 0.931 . S
C901 C899 1.372 . S
C901 C900 1.390 . S
C901 H918 0.929 . S
C902 C897 1.390 . S
C902 C898 1.392 . S
C902 H919 0.930 . S
C903 O888 1.255 . S
C903 O889 1.257 . S
C904 Eu840 2.787 . S
C904 O884 1.252 . S
C904 O887 1.268 . S
C904 C897 1.506 . S
C905 C872 1.439 . S
C905 H882 0.931 . S
C905 C906 1.374 1_655 S
C906 C877 1.387 . S
C906 H883 0.931 . S
C906 C905 1.374 1_455 S
C907 O891 1.249 . S
C907 O892 1.264 . S
C908 C911 1.382 . S
C908 C912 1.390 . S
C908 C915 1.506 . S
C909 C910 1.398 . S
C909 C912 1.392 . S
C910 C909 1.398 . S
C910 C913 1.372 . S
C910 H920 0.931 . S
C911 C908 1.382 . S
C911 C913 1.390 . S
C911 H921 0.931 . S
C912 C908 1.390 . S
C912 C909 1.392 . S
C912 H922 0.930 . S
C913 C910 1.372 . S
C913 C911 1.390 . S
C913 H923 0.929 . S
C914 O894 1.255 . S
C914 O895 1.257 . S
C915 Eu851 2.787 . S
C915 O890 1.252 . S
C915 O893 1.268 . S
C915 C908 1.506 . S
H916 C899 0.931 . S
H917 C900 0.931 . S
H918 C901 0.929 . S
H919 C902 0.930 . S
H920 C910 0.931 . S
H921 C911 0.931 . S
H922 C912 0.930 . S
H923 C913 0.929 . S
Eu924 N953 2.600 . S
Eu924 N959 2.562 . S
Eu924 O968 2.462 . S
Eu924 O969 2.373 . S
Eu924 O971 2.432 . S
Eu924 O972 2.291 . S
Eu924 O976 2.335 . S
Eu924 O979 2.372 . S
Eu924 C988 2.787 . S
C925 N926 1.365 . S
C925 C928 1.405 . S
C925 C932 1.448 . S
N926 C925 1.365 . S
N926 C929 1.319 . S
N926 Eu935 2.600 . S
C927 C929 1.397 . S
C927 C930 1.367 . S
C927 H947 0.931 . S
C928 C925 1.405 . S
C928 C930 1.403 . S
C928 C934 1.439 . S
C929 N926 1.319 . S
C929 C927 1.397 . S
C929 H940 0.930 . S
C930 C927 1.367 . S
C930 C928 1.403 . S
C930 H951 0.929 . S
C931 C932 1.430 . S
C931 C933 1.387 . S
C931 C937 1.404 . S
C932 C925 1.448 . S
C932 C931 1.430 . S
C932 N936 1.351 . S
C933 C931 1.387 . S
C933 C934 1.374 . S
C933 H948 0.931 . S
C934 C928 1.439 . S
C934 C933 1.374 . S
C934 H949 0.931 . S
Eu935 N926 2.600 . S
Eu935 N936 2.562 . S
Eu935 O970 2.335 . S
Eu935 O973 2.372 . S
Eu935 O974 2.462 . S
Eu935 O975 2.373 . S
Eu935 O977 2.432 . S
Eu935 O978 2.291 . S
Eu935 C999 2.787 . S
N936 C932 1.351 . S
N936 Eu935 2.562 . S
N936 C938 1.325 . S
C937 C931 1.404 . S
C937 C939 1.366 . S
C937 H945 0.930 . S
C938 N936 1.325 . S
C938 C939 1.416 . S
C938 H944 0.929 . S
C939 C937 1.366 . S
C939 C938 1.416 . S
C939 H941 0.930 . S
H940 C929 0.930 . S
H941 C939 0.930 . S
H942 C957 0.930 . S
H943 C964 0.933 . S
H944 C938 0.929 . S
H945 C937 0.930 . S
H946 C960 0.929 . S
H947 C927 0.931 . S
H948 C933 0.931 . S
H949 C934 0.931 . S
H950 C955 0.931 . S
H951 C930 0.929 . S
H952 C963 0.930 1_545 S
N953 Eu924 2.600 . S
N953 C954 1.365 . S
N953 C957 1.319 . S
C954 N953 1.365 . S
C954 C956 1.405 . S
C954 C962 1.448 . S
C955 H950 0.931 . S
C955 C957 1.397 . S
C955 C958 1.367 . S
C956 C954 1.405 . S
C956 C958 1.403 . S
C956 C989 1.439 . S
C957 H942 0.930 . S
C957 N953 1.319 . S
C957 C955 1.397 . S
C958 C955 1.367 . S
C958 C956 1.403 . S
C958 H965 0.929 . S
N959 Eu924 2.562 . S
N959 C960 1.325 . S
N959 C962 1.351 . S
C960 H946 0.929 . S
C960 N959 1.325 . S
C960 C964 1.416 . S
C961 C962 1.430 . S
C961 C963 1.404 . S
C961 C990 1.387 . S
C962 C954 1.448 . S
C962 N959 1.351 . S
C962 C961 1.430 . S
C963 H952 0.930 1_565 S
C963 C961 1.404 . S
C963 C964 1.366 . S
C964 H943 0.933 . S
C964 C960 1.416 . S
C964 C963 1.366 . S
H965 C958 0.929 . S
H966 C989 0.931 . S
H967 C990 0.931 . S
O968 Eu924 2.462 . S
O968 C988 1.252 . S
O969 Eu924 2.373 . S
O969 C980 1.249 . S
O970 Eu935 2.335 . S
O970 C980 1.264 . S
O971 Eu924 2.432 . S
O971 C988 1.268 . S
O972 Eu924 2.291 . S
O972 C987 1.255 . S
O973 Eu935 2.372 . S
O973 C987 1.257 . S
O974 Eu935 2.462 . S
O974 C999 1.252 . S
O975 Eu935 2.373 . S
O975 C991 1.249 . S
O976 Eu924 2.335 . S
O976 C991 1.264 . S
O977 Eu935 2.432 . S
O977 C999 1.268 . S
O978 Eu935 2.291 . S
O978 C998 1.255 . S
O979 Eu924 2.372 . S
O979 C998 1.257 . S
C980 O969 1.249 . S
C980 O970 1.264 . S
C981 C984 1.382 . S
C981 C986 1.390 . S
C981 C988 1.506 . S
C982 C983 1.398 . S
C982 C986 1.392 . S
C983 C982 1.398 . S
C983 C985 1.372 . S
C983 H1000 0.931 . S
C984 C981 1.382 . S
C984 C985 1.390 . S
C984 H1001 0.931 . S
C985 C983 1.372 . S
C985 C984 1.390 . S
C985 H1002 0.929 . S
C986 C981 1.390 . S
C986 C982 1.392 . S
C986 H1003 0.930 . S
C987 O972 1.255 . S
C987 O973 1.257 . S
C988 Eu924 2.787 . S
C988 O968 1.252 . S
C988 O971 1.268 . S
C988 C981 1.506 . S
C989 C956 1.439 . S
C989 H966 0.931 . S
C989 C990 1.374 . S
C990 C961 1.387 . S
C990 H967 0.931 . S
C990 C989 1.374 . S
C991 O975 1.249 . S
C991 O976 1.264 . S
C992 C995 1.382 . S
C992 C996 1.390 . S
C992 C999 1.506 . S
C993 C994 1.398 . S
C993 C996 1.392 . S
C994 C993 1.398 . S
C994 C997 1.372 . S
C994 H1004 0.931 . S
C995 C992 1.382 . S
C995 C997 1.390 . S
C995 H1005 0.931 . S
C996 C992 1.390 . S
C996 C993 1.392 . S
C996 H1006 0.930 . S
C997 C994 1.372 . S
C997 C995 1.390 . S
C997 H1007 0.929 . S
C998 O978 1.255 . S
C998 O979 1.257 . S
C999 Eu935 2.787 . S
C999 O974 1.252 . S
C999 O977 1.268 . S
C999 C992 1.506 . S
H1000 C983 0.931 . S
H1001 C984 0.931 . S
H1002 C985 0.929 . S
H1003 C986 0.930 . S
H1004 C994 0.931 . S
H1005 C995 0.931 . S
H1006 C996 0.930 . S
H1007 C997 0.929 . S
Eu1008 N1037 2.600 . S
Eu1008 N1043 2.562 . S
Eu1008 O1052 2.462 . S
Eu1008 O1053 2.373 . S
Eu1008 O1055 2.432 . S
Eu1008 O1056 2.291 . S
Eu1008 O1060 2.335 . S
Eu1008 O1063 2.372 . S
Eu1008 C1072 2.787 . S
C1009 N1010 1.365 . S
C1009 C1012 1.405 . S
C1009 C1016 1.448 . S
N1010 C1009 1.365 . S
N1010 C1013 1.319 . S
N1010 Eu1019 2.600 . S
C1011 C1013 1.397 . S
C1011 C1014 1.367 . S
C1011 H1031 0.931 . S
C1012 C1009 1.405 . S
C1012 C1014 1.403 . S
C1012 C1018 1.439 . S
C1013 N1010 1.319 . S
C1013 C1011 1.397 . S
C1013 H1024 0.930 . S
C1014 C1011 1.367 . S
C1014 C1012 1.403 . S
C1014 H1035 0.929 . S
C1015 C1016 1.430 . S
C1015 C1017 1.387 . S
C1015 C1021 1.404 . S
C1016 C1009 1.448 . S
C1016 C1015 1.430 . S
C1016 N1020 1.351 . S
C1017 C1015 1.387 . S
C1017 C1018 1.374 . S
C1017 H1032 0.931 . S
C1018 C1012 1.439 . S
C1018 C1017 1.374 . S
C1018 H1033 0.931 . S
Eu1019 N1010 2.600 . S
Eu1019 N1020 2.562 . S
Eu1019 O1054 2.335 . S
Eu1019 O1057 2.372 . S
Eu1019 O1058 2.462 . S
Eu1019 O1059 2.373 . S
Eu1019 O1061 2.432 . S
Eu1019 O1062 2.291 . S
Eu1019 C1083 2.787 . S
N1020 C1016 1.351 . S
N1020 Eu1019 2.562 . S
N1020 C1022 1.325 . S
C1021 C1015 1.404 . S
C1021 C1023 1.366 . S
C1021 H1029 0.930 1_655 S
C1022 N1020 1.325 . S
C1022 C1023 1.416 . S
C1022 H1028 0.929 . S
C1023 C1021 1.366 . S
C1023 C1022 1.416 . S
C1023 H1025 0.930 . S
H1024 C1013 0.930 . S
H1025 C1023 0.930 . S
H1026 C1041 0.930 . S
H1027 C1048 0.930 . S
H1028 C1022 0.929 . S
H1029 C1021 0.930 1_455 S
H1030 C1044 0.929 . S
H1031 C1011 0.931 . S
H1032 C1017 0.931 . S
H1033 C1018 0.931 . S
H1034 C1039 0.931 . S
H1035 C1014 0.929 . S
H1036 C1047 0.930 . S
N1037 Eu1008 2.600 . S
N1037 C1038 1.365 . S
N1037 C1041 1.319 . S
C1038 N1037 1.365 . S
C1038 C1040 1.405 . S
C1038 C1046 1.448 . S
C1039 H1034 0.931 . S
C1039 C1041 1.397 . S
C1039 C1042 1.367 . S
C1040 C1038 1.405 . S
C1040 C1042 1.403 . S
C1040 C1073 1.439 . S
C1041 H1026 0.930 . S
C1041 N1037 1.319 . S
C1041 C1039 1.397 . S
C1042 C1039 1.367 . S
C1042 C1040 1.403 . S
C1042 H1049 0.929 . S
N1043 Eu1008 2.562 . S
N1043 C1044 1.325 . S
N1043 C1046 1.351 . S
C1044 H1030 0.929 . S
C1044 N1043 1.325 . S
C1044 C1048 1.416 . S
C1045 C1046 1.430 . S
C1045 C1047 1.404 . S
C1045 C1074 1.387 . S
C1046 C1038 1.448 . S
C1046 N1043 1.351 . S
C1046 C1045 1.430 . S
C1047 H1036 0.930 . S
C1047 C1045 1.404 . S
C1047 C1048 1.366 . S
C1048 H1027 0.930 . S
C1048 C1044 1.416 . S
C1048 C1047 1.366 . S
H1049 C1042 0.929 . S
H1050 C1073 0.931 . S
H1051 C1074 0.931 . S
O1052 Eu1008 2.462 . S
O1052 C1072 1.252 . S
O1053 Eu1008 2.373 . S
O1053 C1064 1.249 . S
O1054 Eu1019 2.335 . S
O1054 C1064 1.264 . S
O1055 Eu1008 2.432 . S
O1055 C1072 1.268 . S
O1056 Eu1008 2.291 . S
O1056 C1071 1.255 . S
O1057 Eu1019 2.372 . S
O1057 C1071 1.257 . S
O1058 Eu1019 2.462 . S
O1058 C1083 1.252 . S
O1059 Eu1019 2.373 . S
O1059 C1075 1.249 . S
O1060 Eu1008 2.335 . S
O1060 C1075 1.264 . S
O1061 Eu1019 2.432 . S
O1061 C1083 1.268 . S
O1062 Eu1019 2.291 . S
O1062 C1082 1.255 . S
O1063 Eu1008 2.372 . S
O1063 C1082 1.257 . S
C1064 O1053 1.249 . S
C1064 O1054 1.264 . S
C1065 C1068 1.382 . S
C1065 C1070 1.390 . S
C1065 C1072 1.506 . S
C1066 C1067 1.398 . S
C1066 C1070 1.392 . S
C1067 C1066 1.398 . S
C1067 C1069 1.372 . S
C1067 H1084 0.931 . S
C1068 C1065 1.382 . S
C1068 C1069 1.390 . S
C1068 H1085 0.931 . S
C1069 C1067 1.372 . S
C1069 C1068 1.390 . S
C1069 H1086 0.929 . S
C1070 C1065 1.390 . S
C1070 C1066 1.392 . S
C1070 H1087 0.930 . S
C1071 O1056 1.255 . S
C1071 O1057 1.257 . S
C1072 Eu1008 2.787 . S
C1072 O1052 1.252 . S
C1072 O1055 1.268 . S
C1072 C1065 1.506 . S
C1073 C1040 1.439 . S
C1073 H1050 0.931 . S
C1073 C1074 1.374 . S
C1074 C1045 1.387 . S
C1074 H1051 0.931 . S
C1074 C1073 1.374 . S
C1075 O1059 1.249 . S
C1075 O1060 1.264 . S
C1076 C1079 1.382 . S
C1076 C1080 1.390 . S
C1076 C1083 1.506 . S
C1077 C1078 1.398 . S
C1077 C1080 1.392 . S
C1078 C1077 1.398 . S
C1078 C1081 1.372 . S
C1078 H1088 0.931 . S
C1079 C1076 1.382 . S
C1079 C1081 1.390 . S
C1079 H1089 0.931 . S
C1080 C1076 1.390 . S
C1080 C1077 1.392 . S
C1080 H1090 0.930 . S
C1081 C1078 1.372 . S
C1081 C1079 1.390 . S
C1081 H1091 0.929 1_545 S
C1082 O1062 1.255 . S
C1082 O1063 1.257 . S
C1083 Eu1019 2.787 . S
C1083 O1058 1.252 . S
C1083 O1061 1.268 . S
C1083 C1076 1.506 . S
H1084 C1067 0.931 . S
H1085 C1068 0.931 . S
H1086 C1069 0.929 . S
H1087 C1070 0.930 . S
H1088 C1078 0.931 . S
H1089 C1079 0.931 . S
H1090 C1080 0.930 . S
H1091 C1081 0.929 1_565 S
Eu1092 N1121 2.600 . S
Eu1092 N1127 2.562 . S
Eu1092 O1136 2.462 . S
Eu1092 O1137 2.373 . S
Eu1092 O1139 2.432 . S
Eu1092 O1140 2.291 . S
Eu1092 O1144 2.335 . S
Eu1092 O1147 2.372 . S
Eu1092 C1156 2.787 . S
C1093 N1094 1.365 . S
C1093 C1096 1.405 . S
C1093 C1100 1.448 . S
N1094 C1093 1.365 . S
N1094 C1097 1.319 . S
N1094 Eu1103 2.600 . S
C1095 C1097 1.397 . S
C1095 C1098 1.367 . S
C1095 H1115 0.931 . S
C1096 C1093 1.405 . S
C1096 C1098 1.403 . S
C1096 C1102 1.439 . S
C1097 N1094 1.319 . S
C1097 C1095 1.397 . S
C1097 H1108 0.930 . S
C1098 C1095 1.367 . S
C1098 C1096 1.403 . S
C1098 H1119 0.929 1_565 S
C1099 C1100 1.430 . S
C1099 C1101 1.387 . S
C1099 C1105 1.404 . S
C1100 C1093 1.448 . S
C1100 C1099 1.430 . S
C1100 N1104 1.351 . S
C1101 C1099 1.387 . S
C1101 C1102 1.374 . S
C1101 H1116 0.931 . S
C1102 C1096 1.439 . S
C1102 C1101 1.374 . S
C1102 H1117 0.931 1_565 S
Eu1103 N1094 2.600 . S
Eu1103 N1104 2.562 . S
Eu1103 O1138 2.335 . S
Eu1103 O1141 2.372 . S
Eu1103 O1142 2.462 . S
Eu1103 O1143 2.373 . S
Eu1103 O1145 2.432 . S
Eu1103 O1146 2.291 . S
Eu1103 C1167 2.787 . S
N1104 C1100 1.351 . S
N1104 Eu1103 2.562 . S
N1104 C1106 1.325 . S
C1105 C1099 1.404 . S
C1105 C1107 1.366 . S
C1105 H1113 0.930 . S
C1106 N1104 1.325 . S
C1106 C1107 1.416 . S
C1106 H1112 0.929 . S
C1107 C1105 1.366 . S
C1107 C1106 1.416 . S
C1107 H1109 0.930 . S
H1108 C1097 0.930 . S
H1109 C1107 0.930 . S
H1110 C1125 0.930 . S
H1111 C1132 0.930 . S
H1112 C1106 0.929 . S
H1113 C1105 0.930 . S
H1114 C1128 0.929 . S
H1115 C1095 0.931 . S
H1116 C1101 0.931 . S
H1117 C1102 0.931 1_545 S
H1118 C1123 0.931 . S
H1119 C1098 0.929 1_545 S
H1120 C1131 0.930 . S
N1121 Eu1092 2.600 . S
N1121 C1122 1.365 . S
N1121 C1125 1.319 . S
C1122 N1121 1.365 . S
C1122 C1124 1.405 . S
C1122 C1130 1.448 . S
C1123 H1118 0.931 . S
C1123 C1125 1.397 . S
C1123 C1126 1.367 . S
C1124 C1122 1.405 . S
C1124 C1126 1.403 . S
C1124 C1157 1.439 . S
C1125 H1110 0.930 . S
C1125 N1121 1.319 . S
C1125 C1123 1.397 . S
C1126 C1123 1.367 . S
C1126 C1124 1.403 . S
C1126 H1133 0.929 . S
N1127 Eu1092 2.562 . S
N1127 C1128 1.325 . S
N1127 C1130 1.351 . S
C1128 H1114 0.929 . S
C1128 N1127 1.325 . S
C1128 C1132 1.416 . S
C1129 C1130 1.430 . S
C1129 C1131 1.404 . S
C1129 C1158 1.387 . S
C1130 C1122 1.448 . S
C1130 N1127 1.351 . S
C1130 C1129 1.430 . S
C1131 H1120 0.930 . S
C1131 C1129 1.404 . S
C1131 C1132 1.366 . S
C1132 H1111 0.930 . S
C1132 C1128 1.416 . S
C1132 C1131 1.366 . S
H1133 C1126 0.929 . S
H1134 C1157 0.931 . S
H1135 C1158 0.931 . S
O1136 Eu1092 2.462 . S
O1136 C1156 1.252 . S
O1137 Eu1092 2.373 . S
O1137 C1148 1.249 . S
O1138 Eu1103 2.335 . S
O1138 C1148 1.264 . S
O1139 Eu1092 2.432 . S
O1139 C1156 1.268 . S
O1140 Eu1092 2.291 . S
O1140 C1155 1.255 . S
O1141 Eu1103 2.372 . S
O1141 C1155 1.257 . S
O1142 Eu1103 2.462 . S
O1142 C1167 1.252 . S
O1143 Eu1103 2.373 . S
O1143 C1159 1.249 . S
O1144 Eu1092 2.335 . S
O1144 C1159 1.264 . S
O1145 Eu1103 2.432 . S
O1145 C1167 1.268 . S
O1146 Eu1103 2.291 . S
O1146 C1166 1.255 . S
O1147 Eu1092 2.372 . S
O1147 C1166 1.257 . S
C1148 O1137 1.249 . S
C1148 O1138 1.264 . S
C1149 C1152 1.382 . S
C1149 C1154 1.390 . S
C1149 C1156 1.506 . S
C1150 C1151 1.398 . S
C1150 C1154 1.392 . S
C1151 C1150 1.398 . S
C1151 C1153 1.372 . S
C1151 H1168 0.931 . S
C1152 C1149 1.382 . S
C1152 C1153 1.390 . S
C1152 H1169 0.931 . S
C1153 C1151 1.372 . S
C1153 C1152 1.390 . S
C1153 H1170 0.929 . S
C1154 C1149 1.390 . S
C1154 C1150 1.392 . S
C1154 H1171 0.930 . S
C1155 O1140 1.255 . S
C1155 O1141 1.257 . S
C1156 Eu1092 2.787 . S
C1156 O1136 1.252 . S
C1156 O1139 1.268 . S
C1156 C1149 1.506 . S
C1157 C1124 1.439 . S
C1157 H1134 0.931 . S
C1157 C1158 1.374 . S
C1158 C1129 1.387 . S
C1158 H1135 0.931 . S
C1158 C1157 1.374 . S
C1159 O1143 1.249 . S
C1159 O1144 1.264 . S
C1160 C1163 1.382 . S
C1160 C1164 1.390 . S
C1160 C1167 1.506 . S
C1161 C1162 1.398 . S
C1161 C1164 1.392 . S
C1162 C1161 1.398 . S
C1162 C1165 1.372 . S
C1162 H1172 0.931 . S
C1163 C1160 1.382 . S
C1163 C1165 1.390 . S
C1163 H1173 0.931 . S
C1164 C1160 1.390 . S
C1164 C1161 1.392 . S
C1164 H1174 0.930 . S
C1165 C1162 1.372 . S
C1165 C1163 1.390 . S
C1165 H1175 0.929 . S
C1166 O1146 1.255 . S
C1166 O1147 1.257 . S
C1167 Eu1103 2.787 . S
C1167 O1142 1.252 . S
C1167 O1145 1.268 . S
C1167 C1160 1.506 . S
H1168 C1151 0.931 . S
H1169 C1152 0.931 . S
H1170 C1153 0.929 . S
H1171 C1154 0.930 . S
H1172 C1162 0.931 . S
H1173 C1163 0.931 . S
H1174 C1164 0.930 . S
H1175 C1165 0.929 . S
Eu1176 N1205 2.600 . S
Eu1176 N1211 2.562 . S
Eu1176 O1220 2.462 . S
Eu1176 O1221 2.373 . S
Eu1176 O1223 2.432 . S
Eu1176 O1224 2.291 . S
Eu1176 O1228 2.335 . S
Eu1176 O1231 2.372 . S
Eu1176 C1240 2.787 . S
C1177 N1178 1.365 . S
C1177 C1180 1.405 . S
C1177 C1184 1.448 . S
N1178 C1177 1.365 . S
N1178 C1181 1.319 . S
N1178 Eu1187 2.600 . S
C1179 C1181 1.397 . S
C1179 C1182 1.367 . S
C1179 H1199 0.931 . S
C1180 C1177 1.405 . S
C1180 C1182 1.403 . S
C1180 C1186 1.439 . S
C1181 N1178 1.319 . S
C1181 C1179 1.397 . S
C1181 H1192 0.930 . S
C1182 C1179 1.367 . S
C1182 C1180 1.403 . S
C1182 H1203 0.929 . S
C1183 C1184 1.430 . S
C1183 C1185 1.387 . S
C1183 C1189 1.404 . S
C1184 C1177 1.448 . S
C1184 C1183 1.430 . S
C1184 N1188 1.351 . S
C1185 C1183 1.387 . S
C1185 C1186 1.374 . S
C1185 H1200 0.931 . S
C1186 C1180 1.439 . S
C1186 C1185 1.374 . S
C1186 H1201 0.931 . S
Eu1187 N1178 2.600 . S
Eu1187 N1188 2.562 . S
Eu1187 O1222 2.335 . S
Eu1187 O1225 2.372 . S
Eu1187 O1226 2.462 . S
Eu1187 O1227 2.373 . S
Eu1187 O1229 2.432 . S
Eu1187 O1230 2.291 . S
Eu1187 C1251 2.787 . S
N1188 C1184 1.351 . S
N1188 Eu1187 2.562 . S
N1188 C1190 1.325 . S
C1189 C1183 1.404 . S
C1189 C1191 1.366 . S
C1189 H1197 0.930 . S
C1190 N1188 1.325 . S
C1190 C1191 1.416 . S
C1190 H1196 0.929 . S
C1191 C1189 1.366 . S
C1191 C1190 1.416 . S
C1191 H1193 0.930 . S
H1192 C1181 0.930 . S
H1193 C1191 0.930 . S
H1194 C1209 0.930 . S
H1195 C1216 0.930 . S
H1196 C1190 0.929 . S
H1197 C1189 0.930 . S
H1198 C1212 0.929 . S
H1199 C1179 0.931 . S
H1200 C1185 0.931 . S
H1201 C1186 0.931 . S
H1202 C1207 0.931 . S
H1203 C1182 0.929 . S
H1204 C1215 0.930 . S
N1205 Eu1176 2.600 . S
N1205 C1206 1.365 . S
N1205 C1209 1.319 . S
C1206 N1205 1.365 . S
C1206 C1208 1.405 . S
C1206 C1214 1.448 . S
C1207 H1202 0.931 . S
C1207 C1209 1.397 . S
C1207 C1210 1.367 . S
C1208 C1206 1.405 . S
C1208 C1210 1.403 . S
C1208 C1241 1.439 . S
C1209 H1194 0.930 . S
C1209 N1205 1.319 . S
C1209 C1207 1.397 . S
C1210 C1207 1.367 . S
C1210 C1208 1.403 . S
C1210 H1217 0.929 . S
N1211 Eu1176 2.562 . S
N1211 C1212 1.325 . S
N1211 C1214 1.351 . S
C1212 H1198 0.929 . S
C1212 N1211 1.325 . S
C1212 C1216 1.416 . S
C1213 C1214 1.430 . S
C1213 C1215 1.404 . S
C1213 C1242 1.387 . S
C1214 C1206 1.448 . S
C1214 N1211 1.351 . S
C1214 C1213 1.430 . S
C1215 H1204 0.930 . S
C1215 C1213 1.404 . S
C1215 C1216 1.366 . S
C1216 H1195 0.930 . S
C1216 C1212 1.416 . S
C1216 C1215 1.366 . S
H1217 C1210 0.929 . S
H1218 C1241 0.931 . S
H1219 C1242 0.931 . S
O1220 Eu1176 2.462 . S
O1220 C1240 1.252 . S
O1221 Eu1176 2.373 . S
O1221 C1232 1.249 . S
O1222 Eu1187 2.335 . S
O1222 C1232 1.264 . S
O1223 Eu1176 2.432 . S
O1223 C1240 1.268 . S
O1224 Eu1176 2.291 . S
O1224 C1239 1.255 . S
O1225 Eu1187 2.372 . S
O1225 C1239 1.257 . S
O1226 Eu1187 2.462 . S
O1226 C1251 1.252 . S
O1227 Eu1187 2.373 . S
O1227 C1243 1.249 . S
O1228 Eu1176 2.335 . S
O1228 C1243 1.264 . S
O1229 Eu1187 2.432 . S
O1229 C1251 1.268 . S
O1230 Eu1187 2.291 . S
O1230 C1250 1.255 . S
O1231 Eu1176 2.372 . S
O1231 C1250 1.257 . S
C1232 O1221 1.249 . S
C1232 O1222 1.264 . S
C1233 C1236 1.382 . S
C1233 C1238 1.390 . S
C1233 C1240 1.506 . S
C1234 C1235 1.398 . S
C1234 C1238 1.392 . S
C1235 C1234 1.398 . S
C1235 C1237 1.372 . S
C1235 H1252 0.931 . S
C1236 C1233 1.382 . S
C1236 C1237 1.390 . S
C1236 H1253 0.931 . S
C1237 C1235 1.372 . S
C1237 C1236 1.390 . S
C1237 H1254 0.929 . S
C1238 C1233 1.390 . S
C1238 C1234 1.392 . S
C1238 H1255 0.930 . S
C1239 O1224 1.255 . S
C1239 O1225 1.257 . S
C1240 Eu1176 2.787 . S
C1240 O1220 1.252 . S
C1240 O1223 1.268 . S
C1240 C1233 1.506 . S
C1241 C1208 1.439 . S
C1241 H1218 0.931 . S
C1241 C1242 1.374 . S
C1242 C1213 1.387 . S
C1242 H1219 0.931 . S
C1242 C1241 1.374 . S
C1243 O1227 1.249 . S
C1243 O1228 1.264 . S
C1244 C1247 1.382 . S
C1244 C1248 1.390 . S
C1244 C1251 1.506 . S
C1245 C1246 1.398 . S
C1245 C1248 1.392 . S
C1246 C1245 1.398 . S
C1246 C1249 1.372 . S
C1246 H1256 0.931 . S
C1247 C1244 1.382 . S
C1247 C1249 1.390 . S
C1247 H1257 0.931 . S
C1248 C1244 1.390 . S
C1248 C1245 1.392 . S
C1248 H1258 0.930 . S
C1249 C1246 1.372 . S
C1249 C1247 1.390 . S
C1249 H1259 0.929 . S
C1250 O1230 1.255 . S
C1250 O1231 1.257 . S
C1251 Eu1187 2.787 . S
C1251 O1226 1.252 . S
C1251 O1229 1.268 . S
C1251 C1244 1.506 . S
H1252 C1235 0.931 . S
H1253 C1236 0.931 . S
H1254 C1237 0.929 . S
H1255 C1238 0.930 . S
H1256 C1246 0.931 . S
H1257 C1247 0.931 . S
H1258 C1248 0.930 . S
H1259 C1249 0.929 . S
Eu1260 N1289 2.600 . S
Eu1260 N1295 2.562 . S
Eu1260 O1304 2.462 1_655 S
Eu1260 O1305 2.373 . S
Eu1260 O1307 2.432 . S
Eu1260 O1308 2.291 1_655 S
Eu1260 O1312 2.335 1_654 S
Eu1260 O1315 2.372 1_554 S
Eu1260 C1324 2.787 . S
C1261 N1262 1.365 . S
C1261 C1264 1.405 . S
C1261 C1268 1.448 . S
N1262 C1261 1.365 . S
N1262 C1265 1.319 . S
N1262 Eu1271 2.600 . S
C1263 C1265 1.397 . S
C1263 C1266 1.367 . S
C1263 H1283 0.931 . S
C1264 C1261 1.405 . S
C1264 C1266 1.403 . S
C1264 C1270 1.439 . S
C1265 N1262 1.319 . S
C1265 C1263 1.397 . S
C1265 H1276 0.930 . S
C1266 C1263 1.367 . S
C1266 C1264 1.403 . S
C1266 H1287 0.929 . S
C1267 C1268 1.430 . S
C1267 C1269 1.387 . S
C1267 C1273 1.404 . S
C1268 C1261 1.448 . S
C1268 C1267 1.430 . S
C1268 N1272 1.351 . S
C1269 C1267 1.387 . S
C1269 C1270 1.374 . S
C1269 H1284 0.931 . S
C1270 C1264 1.439 . S
C1270 C1269 1.374 . S
C1270 H1285 0.931 . S
Eu1271 N1262 2.600 . S
Eu1271 N1272 2.562 . S
Eu1271 O1306 2.335 1_456 S
Eu1271 O1309 2.372 1_556 S
Eu1271 O1310 2.462 1_455 S
Eu1271 O1311 2.373 . S
Eu1271 O1313 2.432 . S
Eu1271 O1314 2.291 1_455 S
Eu1271 C1335 2.787 . S
N1272 C1268 1.351 . S
N1272 Eu1271 2.562 . S
N1272 C1274 1.325 . S
C1273 C1267 1.404 . S
C1273 C1275 1.366 . S
C1273 H1281 0.930 . S
C1274 N1272 1.325 . S
C1274 C1275 1.416 . S
C1274 H1280 0.929 1_455 S
C1275 C1273 1.366 . S
C1275 C1274 1.416 . S
C1275 H1277 0.930 . S
H1276 C1265 0.930 . S
H1277 C1275 0.930 . S
H1278 C1293 0.930 . S
H1279 C1300 0.930 . S
H1280 C1274 0.929 1_655 S
H1281 C1273 0.930 . S
H1282 C1296 0.929 1_455 S
H1283 C1263 0.931 . S
H1284 C1269 0.931 . S
H1285 C1270 0.931 . S
H1286 C1291 0.931 . S
H1287 C1266 0.929 . S
H1288 C1299 0.930 . S
N1289 Eu1260 2.600 . S
N1289 C1290 1.365 . S
N1289 C1293 1.319 . S
C1290 N1289 1.365 . S
C1290 C1292 1.405 . S
C1290 C1298 1.448 . S
C1291 H1286 0.931 . S
C1291 C1293 1.397 . S
C1291 C1294 1.367 . S
C1292 C1290 1.405 . S
C1292 C1294 1.403 . S
C1292 C1325 1.439 . S
C1293 H1278 0.930 . S
C1293 N1289 1.319 . S
C1293 C1291 1.397 . S
C1294 C1291 1.367 . S
C1294 C1292 1.403 . S
C1294 H1301 0.929 . S
N1295 Eu1260 2.562 . S
N1295 C1296 1.325 . S
N1295 C1298 1.351 . S
C1296 H1282 0.929 1_655 S
C1296 N1295 1.325 . S
C1296 C1300 1.416 . S
C1297 C1298 1.430 . S
C1297 C1299 1.404 . S
C1297 C1326 1.387 . S
C1298 C1290 1.448 . S
C1298 N1295 1.351 . S
C1298 C1297 1.430 . S
C1299 H1288 0.930 . S
C1299 C1297 1.404 . S
C1299 C1300 1.366 . S
C1300 H1279 0.930 . S
C1300 C1296 1.416 . S
C1300 C1299 1.366 . S
H1301 C1294 0.929 . S
H1302 C1325 0.931 . S
H1303 C1326 0.931 . S
O1304 Eu1260 2.462 1_455 S
O1304 C1324 1.252 1_455 S
O1305 Eu1260 2.373 . S
O1305 C1316 1.249 . S
O1306 Eu1271 2.335 1_654 S
O1306 C1316 1.264 . S
O1307 Eu1260 2.432 . S
O1307 C1324 1.268 . S
O1308 Eu1260 2.291 1_455 S
O1308 C1323 1.255 . S
O1309 Eu1271 2.372 1_554 S
O1309 C1323 1.257 . S
O1310 Eu1271 2.462 1_655 S
O1310 C1335 1.252 1_655 S
O1311 Eu1271 2.373 . S
O1311 C1327 1.249 . S
O1312 Eu1260 2.335 1_456 S
O1312 C1327 1.264 . S
O1313 Eu1271 2.432 . S
O1313 C1335 1.268 . S
O1314 Eu1271 2.291 1_655 S
O1314 C1334 1.255 . S
O1315 Eu1260 2.372 1_556 S
O1315 C1334 1.257 . S
C1316 O1305 1.249 . S
C1316 O1306 1.264 . S
C1317 C1320 1.382 1_455 S
C1317 C1322 1.390 . S
C1317 C1324 1.506 1_455 S
C1318 C1319 1.398 . S
C1318 C1322 1.392 . S
C1319 C1318 1.398 . S
C1319 C1321 1.372 1_455 S
C1319 H1336 0.931 . S
C1320 C1317 1.382 1_655 S
C1320 C1321 1.390 . S
C1320 H1337 0.931 . S
C1321 C1319 1.372 1_655 S
C1321 C1320 1.390 . S
C1321 H1338 0.929 . S
C1322 C1317 1.390 . S
C1322 C1318 1.392 . S
C1322 H1339 0.930 . S
C1323 O1308 1.255 . S
C1323 O1309 1.257 . S
C1324 Eu1260 2.787 . S
C1324 O1304 1.252 1_655 S
C1324 O1307 1.268 . S
C1324 C1317 1.506 1_655 S
C1325 C1292 1.439 . S
C1325 H1302 0.931 . S
C1325 C1326 1.374 . S
C1326 C1297 1.387 . S
C1326 H1303 0.931 . S
C1326 C1325 1.374 . S
C1327 O1311 1.249 . S
C1327 O1312 1.264 . S
C1328 C1331 1.382 1_655 S
C1328 C1332 1.390 . S
C1328 C1335 1.506 1_655 S
C1329 C1330 1.398 . S
C1329 C1332 1.392 . S
C1330 C1329 1.398 . S
C1330 C1333 1.372 1_655 S
C1330 H1340 0.931 . S
C1331 C1328 1.382 1_455 S
C1331 C1333 1.390 . S
C1331 H1341 0.931 . S
C1332 C1328 1.390 . S
C1332 C1329 1.392 . S
C1332 H1342 0.930 . S
C1333 C1330 1.372 1_455 S
C1333 C1331 1.390 . S
C1333 H1343 0.929 . S
C1334 O1314 1.255 . S
C1334 O1315 1.257 . S
C1335 Eu1271 2.787 . S
C1335 O1310 1.252 1_455 S
C1335 O1313 1.268 . S
C1335 C1328 1.506 1_455 S
H1336 C1319 0.931 . S
H1337 C1320 0.931 . S
H1338 C1321 0.929 . S
H1339 C1322 0.930 . S
H1340 C1330 0.931 . S
H1341 C1331 0.931 . S
H1342 C1332 0.930 . S
H1343 C1333 0.929 . S
C1344 C1345 1.369 . S
C1344 C1346 1.419 . S
C1344 H1348 0.930 . S
C1345 C1344 1.369 . S
C1345 C1354 1.429 . S
C1346 C1344 1.419 . S
C1346 C1347 1.363 . S
C1346 H1349 0.929 . S
C1347 C1346 1.363 . S
C1347 C1353 1.428 . S
H1348 C1344 0.930 . S
H1349 C1346 0.929 . S
S1350 N1351 1.613 . S
S1350 N1352 1.610 . S
N1351 S1350 1.613 . S
N1351 C1354 1.350 . S
N1352 S1350 1.610 . S
N1352 C1353 1.351 . S
C1353 C1347 1.428 . S
C1353 N1352 1.351 . S
C1353 C1354 1.434 . S
C1354 C1345 1.429 . S
C1354 N1351 1.350 . S
C1354 C1353 1.434 . S
C1355 C1356 1.369 . S
C1355 C1357 1.419 . S
C1355 H1359 0.930 . S
C1356 C1355 1.369 . S
C1356 C1365 1.429 . S
C1357 C1355 1.419 . S
C1357 C1358 1.363 . S
C1357 H1360 0.929 . S
C1358 C1357 1.363 . S
C1358 C1364 1.428 . S
H1359 C1355 0.930 . S
H1360 C1357 0.929 . S
S1361 N1362 1.613 . S
S1361 N1363 1.610 . S
N1362 S1361 1.613 . S
N1362 C1365 1.350 1_545 S
N1363 S1361 1.610 . S
N1363 C1364 1.351 1_545 S
C1364 C1358 1.428 . S
C1364 N1363 1.351 1_565 S
C1364 C1365 1.434 . S
C1365 C1356 1.429 . S
C1365 N1362 1.350 1_565 S
C1365 C1364 1.434 . S
C1366 C1367 1.369 . S
C1366 C1368 1.419 . S
C1366 H1370 0.930 . S
C1367 C1366 1.369 . S
C1367 C1376 1.429 . S
C1368 C1366 1.419 . S
C1368 C1369 1.363 . S
C1368 H1371 0.929 . S
C1369 C1368 1.363 . S
C1369 C1375 1.428 . S
H1370 C1366 0.930 . S
H1371 C1368 0.929 . S
S1372 N1373 1.613 . S
S1372 N1374 1.610 . S
N1373 S1372 1.613 . S
N1373 C1376 1.350 . S
N1374 S1372 1.610 . S
N1374 C1375 1.351 . S
C1375 C1369 1.428 . S
C1375 N1374 1.351 . S
C1375 C1376 1.434 . S
C1376 C1367 1.429 . S
C1376 N1373 1.350 . S
C1376 C1375 1.434 . S
C1377 C1378 1.369 . S
C1377 C1379 1.419 . S
C1377 H1381 0.930 . S
C1378 C1377 1.369 . S
C1378 C1387 1.429 . S
C1379 C1377 1.419 . S
C1379 C1380 1.363 . S
C1379 H1382 0.929 . S
C1380 C1379 1.363 . S
C1380 C1386 1.428 . S
H1381 C1377 0.930 . S
H1382 C1379 0.929 . S
S1383 N1384 1.613 . S
S1383 N1385 1.610 . S
N1384 S1383 1.613 . S
N1384 C1387 1.350 . S
N1385 S1383 1.610 . S
N1385 C1386 1.351 . S
C1386 C1380 1.428 . S
C1386 N1385 1.351 . S
C1386 C1387 1.434 . S
C1387 C1378 1.429 . S
C1387 N1384 1.350 . S
C1387 C1386 1.434 . S
C1388 C1389 1.369 . S
C1388 C1390 1.419 . S
C1388 H1392 0.930 . S
C1389 C1388 1.369 . S
C1389 C1398 1.429 . S
C1390 C1388 1.419 . S
C1390 C1391 1.363 . S
C1390 H1393 0.929 . S
C1391 C1390 1.363 . S
C1391 C1397 1.428 . S
H1392 C1388 0.930 . S
H1393 C1390 0.929 . S
S1394 N1395 1.613 . S
S1394 N1396 1.610 . S
N1395 S1394 1.613 . S
N1395 C1398 1.350 . S
N1396 S1394 1.610 . S
N1396 C1397 1.351 . S
C1397 C1391 1.428 . S
C1397 N1396 1.351 . S
C1397 C1398 1.434 . S
C1398 C1389 1.429 . S
C1398 N1395 1.350 . S
C1398 C1397 1.434 . S
C1399 C1400 1.369 . S
C1399 C1401 1.419 . S
C1399 H1403 0.930 . S
C1400 C1399 1.369 . S
C1400 C1409 1.429 . S
C1401 C1399 1.419 . S
C1401 C1402 1.363 . S
C1401 H1404 0.929 . S
C1402 C1401 1.363 . S
C1402 C1408 1.428 . S
H1403 C1399 0.930 . S
H1404 C1401 0.929 . S
S1405 N1406 1.613 . S
S1405 N1407 1.610 . S
N1406 S1405 1.613 . S
N1406 C1409 1.350 . S
N1407 S1405 1.610 . S
N1407 C1408 1.351 . S
C1408 C1402 1.428 . S
C1408 N1407 1.351 . S
C1408 C1409 1.434 . S
C1409 C1400 1.429 . S
C1409 N1406 1.350 . S
C1409 C1408 1.434 . S
C1410 C1411 1.369 . S
C1410 C1412 1.419 . S
C1410 H1414 0.930 . S
C1411 C1410 1.369 . S
C1411 C1420 1.429 . S
C1412 C1410 1.419 . S
C1412 C1413 1.363 . S
C1412 H1415 0.929 . S
C1413 C1412 1.363 . S
C1413 C1419 1.428 . S
H1414 C1410 0.930 . S
H1415 C1412 0.929 . S
S1416 N1417 1.613 . S
S1416 N1418 1.610 . S
N1417 S1416 1.613 . S
N1417 C1420 1.350 . S
N1418 S1416 1.610 . S
N1418 C1419 1.351 . S
C1419 C1413 1.428 . S
C1419 N1418 1.351 . S
C1419 C1420 1.434 . S
C1420 C1411 1.429 . S
C1420 N1417 1.350 . S
C1420 C1419 1.434 . S
C1421 C1422 1.369 . S
C1421 C1423 1.419 . S
C1421 H1425 0.930 . S
C1422 C1421 1.369 . S
C1422 C1431 1.429 . S
C1423 C1421 1.419 . S
C1423 C1424 1.363 . S
C1423 H1426 0.929 . S
C1424 C1423 1.363 . S
C1424 C1430 1.428 . S
H1425 C1421 0.930 . S
H1426 C1423 0.929 . S
S1427 N1428 1.613 . S
S1427 N1429 1.610 . S
N1428 S1427 1.613 . S
N1428 C1431 1.350 . S
N1429 S1427 1.610 . S
N1429 C1430 1.351 . S
C1430 C1424 1.428 . S
C1430 N1429 1.351 . S
C1430 C1431 1.434 . S
C1431 C1422 1.429 . S
C1431 N1428 1.350 . S
C1431 C1430 1.434 . S
C1432 C1433 1.369 . S
C1432 C1434 1.419 . S
C1432 H1436 0.930 . S
C1433 C1432 1.369 . S
C1433 C1442 1.429 . S
C1434 C1432 1.419 . S
C1434 C1435 1.363 . S
C1434 H1437 0.929 . S
C1435 C1434 1.363 . S
C1435 C1441 1.428 . S
H1436 C1432 0.930 . S
H1437 C1434 0.929 . S
S1438 N1439 1.613 . S
S1438 N1440 1.610 . S
N1439 S1438 1.613 . S
N1439 C1442 1.350 . S
N1440 S1438 1.610 . S
N1440 C1441 1.351 . S
C1441 C1435 1.428 . S
C1441 N1440 1.351 . S
C1441 C1442 1.434 . S
C1442 C1433 1.429 . S
C1442 N1439 1.350 . S
C1442 C1441 1.434 . S
C1443 C1444 1.369 . S
C1443 C1445 1.419 . S
C1443 H1447 0.930 . S
C1444 C1443 1.369 . S
C1444 C1453 1.429 . S
C1445 C1443 1.419 . S
C1445 C1446 1.363 . S
C1445 H1448 0.929 . S
C1446 C1445 1.363 . S
C1446 C1452 1.428 . S
H1447 C1443 0.930 . S
H1448 C1445 0.929 . S
S1449 N1450 1.613 . S
S1449 N1451 1.610 . S
N1450 S1449 1.613 . S
N1450 C1453 1.350 . S
N1451 S1449 1.610 . S
N1451 C1452 1.351 . S
C1452 C1446 1.428 . S
C1452 N1451 1.351 . S
C1452 C1453 1.434 . S
C1453 C1444 1.429 . S
C1453 N1450 1.350 . S
C1453 C1452 1.434 . S
C1454 C1455 1.369 . S
C1454 C1456 1.419 . S
C1454 H1458 0.930 . S
C1455 C1454 1.369 . S
C1455 C1464 1.429 . S
C1456 C1454 1.419 . S
C1456 C1457 1.363 . S
C1456 H1459 0.929 . S
C1457 C1456 1.363 . S
C1457 C1463 1.428 . S
H1458 C1454 0.930 . S
H1459 C1456 0.929 . S
S1460 N1461 1.613 . S
S1460 N1462 1.610 . S
N1461 S1460 1.613 . S
N1461 C1464 1.350 . S
N1462 S1460 1.610 . S
N1462 C1463 1.351 . S
C1463 C1457 1.428 . S
C1463 N1462 1.351 . S
C1463 C1464 1.434 . S
C1464 C1455 1.429 . S
C1464 N1461 1.350 . S
C1464 C1463 1.434 . S
C1465 C1466 1.369 . S
C1465 C1467 1.419 . S
C1465 H1469 0.930 . S
C1466 C1465 1.369 . S
C1466 C1475 1.429 . S
C1467 C1465 1.419 . S
C1467 C1468 1.363 . S
C1467 H1470 0.929 . S
C1468 C1467 1.363 . S
C1468 C1474 1.428 . S
H1469 C1465 0.930 . S
H1470 C1467 0.929 . S
S1471 N1472 1.613 . S
S1471 N1473 1.610 . S
N1472 S1471 1.613 . S
N1472 C1475 1.350 . S
N1473 S1471 1.610 . S
N1473 C1474 1.351 . S
C1474 C1468 1.428 . S
C1474 N1473 1.351 . S
C1474 C1475 1.434 . S
C1475 C1466 1.429 . S
C1475 N1472 1.350 . S
C1475 C1474 1.434 . S
C1476 C1477 1.369 . S
C1476 C1478 1.419 . S
C1476 H1480 0.930 . S
C1477 C1476 1.369 . S
C1477 C1486 1.429 . S
C1478 C1476 1.419 . S
C1478 C1479 1.363 . S
C1478 H1481 0.929 . S
C1479 C1478 1.363 . S
C1479 C1485 1.428 . S
H1480 C1476 0.930 . S
H1481 C1478 0.929 . S
S1482 N1483 1.613 . S
S1482 N1484 1.610 . S
N1483 S1482 1.613 . S
N1483 C1486 1.350 . S
N1484 S1482 1.610 . S
N1484 C1485 1.351 . S
C1485 C1479 1.428 . S
C1485 N1484 1.351 . S
C1485 C1486 1.434 . S
C1486 C1477 1.429 . S
C1486 N1483 1.350 . S
C1486 C1485 1.434 . S
C1487 C1488 1.369 . S
C1487 C1489 1.419 . S
C1487 H1491 0.930 . S
C1488 C1487 1.369 . S
C1488 C1497 1.429 . S
C1489 C1487 1.419 . S
C1489 C1490 1.363 . S
C1489 H1492 0.929 . S
C1490 C1489 1.363 . S
C1490 C1496 1.428 . S
H1491 C1487 0.930 . S
H1492 C1489 0.929 . S
S1493 N1494 1.613 . S
S1493 N1495 1.610 . S
N1494 S1493 1.613 . S
N1494 C1497 1.350 . S
N1495 S1493 1.610 . S
N1495 C1496 1.351 . S
C1496 C1490 1.428 . S
C1496 N1495 1.351 . S
C1496 C1497 1.434 . S
C1497 C1488 1.429 . S
C1497 N1494 1.350 . S
C1497 C1496 1.434 . S
C1498 C1499 1.369 . S
C1498 C1500 1.419 . S
C1498 H1502 0.930 . S
C1499 C1498 1.369 . S
C1499 C1508 1.429 . S
C1500 C1498 1.419 . S
C1500 C1501 1.363 . S
C1500 H1503 0.929 . S
C1501 C1500 1.363 . S
C1501 C1507 1.428 . S
H1502 C1498 0.930 . S
H1503 C1500 0.929 . S
S1504 N1505 1.613 . S
S1504 N1506 1.610 . S
N1505 S1504 1.613 . S
N1505 C1508 1.350 . S
N1506 S1504 1.610 . S
N1506 C1507 1.351 . S
C1507 C1501 1.428 . S
C1507 N1506 1.351 . S
C1507 C1508 1.434 . S
C1508 C1499 1.429 . S
C1508 N1505 1.350 . S
C1508 C1507 1.434 . S
C1509 C1510 1.369 . S
C1509 C1511 1.419 . S
C1509 H1513 0.930 . S
C1510 C1509 1.369 . S
C1510 C1519 1.429 . S
C1511 C1509 1.419 . S
C1511 C1512 1.363 . S
C1511 H1514 0.929 . S
C1512 C1511 1.363 . S
C1512 C1518 1.428 . S
H1513 C1509 0.930 . S
H1514 C1511 0.929 . S
S1515 N1516 1.613 1_655 S
S1515 N1517 1.610 1_655 S
N1516 S1515 1.613 1_455 S
N1516 C1519 1.350 . S
N1517 S1515 1.610 1_455 S
N1517 C1518 1.351 . S
C1518 C1512 1.428 . S
C1518 N1517 1.351 . S
C1518 C1519 1.434 . S
C1519 C1510 1.429 . S
C1519 N1516 1.350 . S
C1519 C1518 1.434 . S
C1520 C1521 1.369 . S
C1520 C1522 1.419 . S
C1520 H1524 0.930 . S
C1521 C1520 1.369 . S
C1521 C1530 1.429 . S
C1522 C1520 1.419 . S
C1522 C1523 1.363 . S
C1522 H1525 0.929 . S
C1523 C1522 1.363 . S
C1523 C1529 1.428 . S
H1524 C1520 0.930 . S
H1525 C1522 0.929 . S
S1526 N1527 1.613 . S
S1526 N1528 1.610 . S
N1527 S1526 1.613 . S
N1527 C1530 1.350 . S
N1528 S1526 1.610 . S
N1528 C1529 1.351 . S
C1529 C1523 1.428 . S
C1529 N1528 1.351 . S
C1529 C1530 1.434 . S
C1530 C1521 1.429 . S
C1530 N1527 1.350 . S
C1530 C1529 1.434 . S
C1531 C1532 1.369 . S
C1531 C1533 1.419 . S
C1531 H1535 0.930 . S
C1532 C1531 1.369 . S
C1532 C1541 1.429 . S
C1533 C1531 1.419 . S
C1533 C1534 1.363 . S
C1533 H1536 0.929 . S
C1534 C1533 1.363 . S
C1534 C1540 1.428 . S
H1535 C1531 0.930 . S
H1536 C1533 0.929 . S
S1537 N1538 1.613 . S
S1537 N1539 1.610 . S
N1538 S1537 1.613 . S
N1538 C1541 1.350 . S
N1539 S1537 1.610 . S
N1539 C1540 1.351 . S
C1540 C1534 1.428 . S
C1540 N1539 1.351 . S
C1540 C1541 1.434 . S
C1541 C1532 1.429 . S
C1541 N1538 1.350 . S
C1541 C1540 1.434 . S
C1542 C1543 1.369 . S
C1542 C1544 1.419 . S
C1542 H1546 0.930 . S
C1543 C1542 1.369 . S
C1543 C1552 1.429 . S
C1544 C1542 1.419 . S
C1544 C1545 1.363 . S
C1544 H1547 0.929 . S
C1545 C1544 1.363 . S
C1545 C1551 1.428 . S
H1546 C1542 0.930 . S
H1547 C1544 0.929 . S
S1548 N1549 1.613 . S
S1548 N1550 1.610 . S
N1549 S1548 1.613 . S
N1549 C1552 1.350 . S
N1550 S1548 1.610 . S
N1550 C1551 1.351 . S
C1551 C1545 1.428 . S
C1551 N1550 1.351 . S
C1551 C1552 1.434 . S
C1552 C1543 1.429 . S
C1552 N1549 1.350 . S
C1552 C1551 1.434 . S
C1553 C1554 1.369 . S
C1553 C1555 1.419 . S
C1553 H1557 0.930 . S
C1554 C1553 1.369 . S
C1554 C1563 1.429 . S
C1555 C1553 1.419 . S
C1555 C1556 1.363 . S
C1555 H1558 0.929 . S
C1556 C1555 1.363 . S
C1556 C1562 1.428 . S
H1557 C1553 0.930 . S
H1558 C1555 0.929 . S
S1559 N1560 1.613 . S
S1559 N1561 1.610 . S
N1560 S1559 1.613 . S
N1560 C1563 1.350 . S
N1561 S1559 1.610 . S
N1561 C1562 1.351 . S
C1562 C1556 1.428 . S
C1562 N1561 1.351 . S
C1562 C1563 1.434 . S
C1563 C1554 1.429 . S
C1563 N1560 1.350 . S
C1563 C1562 1.434 . S
C1564 C1565 1.369 . S
C1564 C1566 1.419 . S
C1564 H1568 0.930 . S
C1565 C1564 1.369 . S
C1565 C1574 1.429 . S
C1566 C1564 1.419 . S
C1566 C1567 1.363 . S
C1566 H1569 0.929 . S
C1567 C1566 1.363 . S
C1567 C1573 1.428 . S
H1568 C1564 0.930 . S
H1569 C1566 0.929 . S
S1570 N1571 1.613 . S
S1570 N1572 1.610 . S
N1571 S1570 1.613 . S
N1571 C1574 1.350 . S
N1572 S1570 1.610 . S
N1572 C1573 1.351 . S
C1573 C1567 1.428 . S
C1573 N1572 1.351 . S
C1573 C1574 1.434 . S
C1574 C1565 1.429 . S
C1574 N1571 1.350 . S
C1574 C1573 1.434 . S
C1575 C1576 1.369 . S
C1575 C1577 1.419 . S
C1575 H1579 0.930 . S
C1576 C1575 1.369 . S
C1576 C1585 1.429 . S
C1577 C1575 1.419 . S
C1577 C1578 1.363 . S
C1577 H1580 0.929 . S
C1578 C1577 1.363 . S
C1578 C1584 1.428 . S
H1579 C1575 0.930 . S
H1580 C1577 0.929 . S
S1581 N1582 1.613 . S
S1581 N1583 1.610 . S
N1582 S1581 1.613 . S
N1582 C1585 1.350 . S
N1583 S1581 1.610 . S
N1583 C1584 1.351 . S
C1584 C1578 1.428 . S
C1584 N1583 1.351 . S
C1584 C1585 1.434 . S
C1585 C1576 1.429 . S
C1585 N1582 1.350 . S
C1585 C1584 1.434 . S
C1586 C1587 1.369 . S
C1586 C1588 1.419 . S
C1586 H1590 0.930 . S
C1587 C1586 1.369 . S
C1587 C1596 1.429 . S
C1588 C1586 1.419 . S
C1588 C1589 1.363 . S
C1588 H1591 0.929 . S
C1589 C1588 1.363 . S
C1589 C1595 1.428 . S
H1590 C1586 0.930 . S
H1591 C1588 0.929 . S
S1592 N1593 1.613 1_554 S
S1592 N1594 1.610 1_554 S
N1593 S1592 1.613 1_556 S
N1593 C1596 1.350 . S
N1594 S1592 1.610 1_556 S
N1594 C1595 1.351 . S
C1595 C1589 1.428 . S
C1595 N1594 1.351 . S
C1595 C1596 1.434 . S
C1596 C1587 1.429 . S
C1596 N1593 1.350 . S
C1596 C1595 1.434 . S
C1597 C1598 1.369 . S
C1597 C1599 1.419 . S
C1597 H1601 0.930 . S
C1598 C1597 1.369 . S
C1598 C1607 1.429 . S
C1599 C1597 1.419 . S
C1599 C1600 1.363 . S
C1599 H1602 0.929 . S
C1600 C1599 1.363 . S
C1600 C1606 1.428 . S
H1601 C1597 0.930 . S
H1602 C1599 0.929 . S
S1603 N1604 1.613 . S
S1603 N1605 1.610 . S
N1604 S1603 1.613 . S
N1604 C1607 1.350 . S
N1605 S1603 1.610 . S
N1605 C1606 1.351 . S
C1606 C1600 1.428 . S
C1606 N1605 1.351 . S
C1606 C1607 1.434 . S
C1607 C1598 1.429 . S
C1607 N1604 1.350 . S
C1607 C1606 1.434 . S
C1608 C1609 1.369 . S
C1608 C1610 1.419 . S
C1608 H1612 0.930 . S
C1609 C1608 1.369 . S
C1609 C1618 1.429 . S
C1610 C1608 1.419 . S
C1610 C1611 1.363 . S
C1610 H1613 0.929 . S
C1611 C1610 1.363 . S
C1611 C1617 1.428 . S
H1612 C1608 0.930 . S
H1613 C1610 0.929 . S
S1614 N1615 1.599 1_565 S
S1614 N1616 1.627 . S
N1615 S1614 1.599 1_545 S
N1615 C1618 1.350 1_545 S
N1616 S1614 1.627 . S
N1616 C1617 1.351 . S
C1617 C1611 1.428 . S
C1617 N1616 1.351 . S
C1617 C1618 1.434 . S
C1618 C1609 1.429 . S
C1618 N1615 1.350 1_565 S
C1618 C1617 1.434 . S
C1619 C1620 1.369 . S
C1619 C1621 1.419 . S
C1619 H1623 0.930 . S
C1620 C1619 1.369 . S
C1620 C1629 1.429 . S
C1621 C1619 1.419 . S
C1621 C1622 1.363 . S
C1621 H1624 0.929 . S
C1622 C1621 1.363 . S
C1622 C1628 1.428 . S
H1623 C1619 0.930 . S
H1624 C1621 0.929 . S
S1625 N1626 1.613 1_565 S
S1625 N1627 1.610 1_565 S
N1626 S1625 1.613 1_545 S
N1626 C1629 1.350 . S
N1627 S1625 1.610 1_545 S
N1627 C1628 1.351 . S
C1628 C1622 1.428 . S
C1628 N1627 1.351 . S
C1628 C1629 1.434 . S
C1629 C1620 1.429 . S
C1629 N1626 1.350 . S
C1629 C1628 1.434 . S
C1630 C1631 1.369 . S
C1630 C1632 1.419 . S
C1630 H1634 0.930 . S
C1631 C1630 1.369 . S
C1631 C1640 1.429 . S
C1632 C1630 1.419 . S
C1632 C1633 1.363 . S
C1632 H1635 0.929 . S
C1633 C1632 1.363 . S
C1633 C1639 1.428 . S
H1634 C1630 0.930 . S
H1635 C1632 0.929 . S
S1636 N1637 1.613 . S
S1636 N1638 1.610 . S
N1637 S1636 1.613 . S
N1637 C1640 1.350 . S
N1638 S1636 1.610 . S
N1638 C1639 1.351 . S
C1639 C1633 1.428 . S
C1639 N1638 1.351 . S
C1639 C1640 1.434 . S
C1640 C1631 1.429 . S
C1640 N1637 1.350 . S
C1640 C1639 1.434 . S
C1641 C1642 1.369 . S
C1641 C1643 1.419 . S
C1641 H1645 0.930 . S
C1642 C1641 1.369 . S
C1642 C1651 1.429 . S
C1643 C1641 1.419 . S
C1643 C1644 1.363 . S
C1643 H1646 0.929 . S
C1644 C1643 1.363 . S
C1644 C1650 1.428 . S
H1645 C1641 0.930 . S
H1646 C1643 0.929 . S
S1647 N1648 1.613 . S
S1647 N1649 1.610 . S
N1648 S1647 1.613 . S
N1648 C1651 1.350 . S
N1649 S1647 1.610 . S
N1649 C1650 1.351 . S
C1650 C1644 1.428 . S
C1650 N1649 1.351 . S
C1650 C1651 1.434 . S
C1651 C1642 1.429 . S
C1651 N1648 1.350 . S
C1651 C1650 1.434 . S
C1652 C1653 1.369 . S
C1652 C1654 1.419 . S
C1652 H1656 0.930 . S
C1653 C1652 1.369 . S
C1653 C1662 1.429 . S
C1654 C1652 1.419 . S
C1654 C1655 1.363 . S
C1654 H1657 0.929 . S
C1655 C1654 1.363 . S
C1655 C1661 1.428 . S
H1656 C1652 0.930 . S
H1657 C1654 0.929 . S
S1658 N1659 1.613 . S
S1658 N1660 1.610 . S
N1659 S1658 1.613 . S
N1659 C1662 1.350 . S
N1660 S1658 1.610 . S
N1660 C1661 1.351 . S
C1661 C1655 1.428 . S
C1661 N1660 1.351 . S
C1661 C1662 1.434 . S
C1662 C1653 1.429 . S
C1662 N1659 1.350 . S
C1662 C1661 1.434 . S
C1663 C1664 1.369 . S
C1663 C1665 1.419 . S
C1663 H1667 0.930 . S
C1664 C1663 1.369 . S
C1664 C1673 1.429 . S
C1665 C1663 1.419 . S
C1665 C1666 1.363 . S
C1665 H1668 0.929 . S
C1666 C1665 1.363 . S
C1666 C1672 1.428 . S
H1667 C1663 0.930 . S
H1668 C1665 0.929 . S
S1669 N1670 1.613 . S
S1669 N1671 1.610 . S
N1670 S1669 1.613 . S
N1670 C1673 1.350 . S
N1671 S1669 1.610 . S
N1671 C1672 1.351 . S
C1672 C1666 1.428 . S
C1672 N1671 1.351 . S
C1672 C1673 1.434 . S
C1673 C1664 1.429 . S
C1673 N1670 1.350 . S
C1673 C1672 1.434 . S
C1674 C1675 1.369 . S
C1674 C1676 1.419 . S
C1674 H1678 0.930 . S
C1675 C1674 1.369 . S
C1675 C1684 1.429 . S
C1676 C1674 1.419 . S
C1676 C1677 1.363 . S
C1676 H1679 0.929 . S
C1677 C1676 1.363 . S
C1677 C1683 1.428 . S
H1678 C1674 0.930 . S
H1679 C1676 0.929 . S
S1680 N1681 1.613 . S
S1680 N1682 1.610 . S
N1681 S1680 1.613 . S
N1681 C1684 1.350 . S
N1682 S1680 1.610 . S
N1682 C1683 1.351 . S
C1683 C1677 1.428 . S
C1683 N1682 1.351 . S
C1683 C1684 1.434 . S
C1684 C1675 1.429 . S
C1684 N1681 1.350 . S
C1684 C1683 1.434 . S
C1685 C1686 1.369 . S
C1685 C1687 1.419 . S
C1685 H1689 0.930 . S
C1686 C1685 1.369 . S
C1686 C1695 1.429 . S
C1687 C1685 1.419 . S
C1687 C1688 1.363 . S
C1687 H1690 0.929 . S
C1688 C1687 1.363 . S
C1688 C1694 1.428 . S
H1689 C1685 0.930 . S
H1690 C1687 0.929 . S
S1691 N1692 1.613 . S
S1691 N1693 1.610 . S
N1692 S1691 1.613 . S
N1692 C1695 1.350 . S
N1693 S1691 1.610 . S
N1693 C1694 1.351 . S
C1694 C1688 1.428 . S
C1694 N1693 1.351 . S
C1694 C1695 1.434 . S
C1695 C1686 1.429 . S
C1695 N1692 1.350 . S
C1695 C1694 1.434 . S
C1696 C1697 1.369 . S
C1696 C1698 1.419 . S
C1696 H1700 0.930 . S
C1697 C1696 1.369 . S
C1697 C1706 1.429 . S
C1698 C1696 1.419 . S
C1698 C1699 1.363 . S
C1698 H1701 0.929 . S
C1699 C1698 1.363 . S
C1699 C1705 1.428 . S
H1700 C1696 0.930 . S
H1701 C1698 0.929 . S
S1702 N1703 1.613 . S
S1702 N1704 1.610 . S
N1703 S1702 1.613 . S
N1703 C1706 1.350 . S
N1704 S1702 1.610 . S
N1704 C1705 1.351 . S
C1705 C1699 1.428 . S
C1705 N1704 1.351 . S
C1705 C1706 1.434 . S
C1706 C1697 1.429 . S
C1706 N1703 1.350 . S
C1706 C1705 1.434 . S
C1707 C1708 1.369 . S
C1707 C1709 1.419 . S
C1707 H1711 0.930 . S
C1708 C1707 1.369 . S
C1708 C1717 1.429 . S
C1709 C1707 1.419 . S
C1709 C1710 1.363 . S
C1709 H1712 0.929 . S
C1710 C1709 1.363 . S
C1710 C1716 1.428 . S
H1711 C1707 0.930 . S
H1712 C1709 0.929 . S
S1713 N1714 1.613 . S
S1713 N1715 1.610 . S
N1714 S1713 1.613 . S
N1714 C1717 1.350 . S
N1715 S1713 1.610 . S
N1715 C1716 1.351 . S
C1716 C1710 1.428 . S
C1716 N1715 1.351 . S
C1716 C1717 1.434 . S
C1717 C1708 1.429 . S
C1717 N1714 1.350 . S
C1717 C1716 1.434 . S
C1718 C1719 1.369 . S
C1718 C1720 1.419 . S
C1718 H1722 0.930 . S
C1719 C1718 1.369 . S
C1719 C1728 1.429 . S
C1720 C1718 1.419 . S
C1720 C1721 1.363 . S
C1720 H1723 0.929 . S
C1721 C1720 1.363 . S
C1721 C1727 1.428 . S
H1722 C1718 0.930 . S
H1723 C1720 0.929 . S
S1724 N1725 1.613 . S
S1724 N1726 1.610 . S
N1725 S1724 1.613 . S
N1725 C1728 1.350 . S
N1726 S1724 1.610 . S
N1726 C1727 1.351 . S
C1727 C1721 1.428 . S
C1727 N1726 1.351 . S
C1727 C1728 1.434 . S
C1728 C1719 1.429 . S
C1728 N1725 1.350 . S
C1728 C1727 1.434 . S
C1729 C1730 1.369 . S
C1729 C1731 1.419 . S
C1729 H1733 0.930 . S
C1730 C1729 1.369 . S
C1730 C1739 1.429 . S
C1731 C1729 1.419 . S
C1731 C1732 1.363 . S
C1731 H1734 0.929 . S
C1732 C1731 1.363 . S
C1732 C1738 1.428 . S
H1733 C1729 0.930 . S
H1734 C1731 0.929 . S
S1735 N1736 1.613 1_545 S
S1735 N1737 1.610 1_545 S
N1736 S1735 1.613 1_565 S
N1736 C1739 1.350 . S
N1737 S1735 1.610 1_565 S
N1737 C1738 1.351 . S
C1738 C1732 1.428 . S
C1738 N1737 1.351 . S
C1738 C1739 1.434 . S
C1739 C1730 1.429 . S
C1739 N1736 1.350 . S
C1739 C1738 1.434 . S
C1740 C1741 1.369 . S
C1740 C1742 1.419 . S
C1740 H1744 0.930 . S
C1741 C1740 1.369 . S
C1741 C1750 1.429 . S
C1742 C1740 1.419 . S
C1742 C1743 1.363 . S
C1742 H1745 0.929 . S
C1743 C1742 1.363 . S
C1743 C1749 1.428 . S
H1744 C1740 0.930 . S
H1745 C1742 0.929 . S
S1746 N1747 1.613 . S
S1746 N1748 1.610 . S
N1747 S1746 1.613 . S
N1747 C1750 1.350 . S
N1748 S1746 1.610 . S
N1748 C1749 1.351 . S
C1749 C1743 1.428 . S
C1749 N1748 1.351 . S
C1749 C1750 1.434 . S
C1750 C1741 1.429 . S
C1750 N1747 1.350 . S
C1750 C1749 1.434 . S
C1751 C1752 1.369 . S
C1751 C1753 1.419 . S
C1751 H1755 0.930 . S
C1752 C1751 1.369 . S
C1752 C1761 1.429 . S
C1753 C1751 1.419 . S
C1753 C1754 1.363 . S
C1753 H1756 0.929 . S
C1754 C1753 1.363 . S
C1754 C1760 1.428 . S
H1755 C1751 0.930 . S
H1756 C1753 0.929 . S
S1757 N1758 1.613 . S
S1757 N1759 1.610 . S
N1758 S1757 1.613 . S
N1758 C1761 1.350 . S
N1759 S1757 1.610 . S
N1759 C1760 1.351 . S
C1760 C1754 1.428 . S
C1760 N1759 1.351 . S
C1760 C1761 1.434 . S
C1761 C1752 1.429 . S
C1761 N1758 1.350 . S
C1761 C1760 1.434 . S
C1762 C1763 1.369 . S
C1762 C1764 1.419 . S
C1762 H1766 0.930 . S
C1763 C1762 1.369 . S
C1763 C1772 1.429 . S
C1764 C1762 1.419 . S
C1764 C1765 1.363 . S
C1764 H1767 0.929 . S
C1765 C1764 1.363 . S
C1765 C1771 1.428 . S
H1766 C1762 0.930 . S
H1767 C1764 0.929 . S
S1768 N1769 1.613 . S
S1768 N1770 1.610 . S
N1769 S1768 1.613 . S
N1769 C1772 1.350 . S
N1770 S1768 1.610 . S
N1770 C1771 1.351 . S
C1771 C1765 1.428 . S
C1771 N1770 1.351 . S
C1771 C1772 1.434 . S
C1772 C1763 1.429 . S
C1772 N1769 1.350 . S
C1772 C1771 1.434 . S
C1773 C1774 1.369 . S
C1773 C1775 1.419 . S
C1773 H1777 0.930 . S
C1774 C1773 1.369 . S
C1774 C1783 1.429 . S
C1775 C1773 1.419 . S
C1775 C1776 1.363 . S
C1775 H1778 0.929 . S
C1776 C1775 1.363 . S
C1776 C1782 1.428 . S
H1777 C1773 0.930 . S
H1778 C1775 0.929 . S
S1779 N1780 1.613 . S
S1779 N1781 1.610 . S
N1780 S1779 1.613 . S
N1780 C1783 1.350 . S
N1781 S1779 1.610 . S
N1781 C1782 1.351 . S
C1782 C1776 1.428 . S
C1782 N1781 1.351 . S
C1782 C1783 1.434 . S
C1783 C1774 1.429 . S
C1783 N1780 1.350 . S
C1783 C1782 1.434 . S
C1784 C1785 1.369 . S
C1784 C1786 1.419 . S
C1784 H1788 0.930 . S
C1785 C1784 1.369 . S
C1785 C1794 1.429 . S
C1786 C1784 1.419 . S
C1786 C1787 1.363 . S
C1786 H1789 0.929 . S
C1787 C1786 1.363 . S
C1787 C1793 1.428 . S
H1788 C1784 0.930 . S
H1789 C1786 0.929 . S
S1790 N1791 1.613 . S
S1790 N1792 1.610 . S
N1791 S1790 1.613 . S
N1791 C1794 1.350 . S
N1792 S1790 1.610 . S
N1792 C1793 1.351 . S
C1793 C1787 1.428 . S
C1793 N1792 1.351 . S
C1793 C1794 1.434 . S
C1794 C1785 1.429 . S
C1794 N1791 1.350 . S
C1794 C1793 1.434 . S
C1795 C1796 1.369 . S
C1795 C1797 1.419 . S
C1795 H1799 0.930 . S
C1796 C1795 1.369 . S
C1796 C1805 1.429 . S
C1797 C1795 1.419 . S
C1797 C1798 1.363 . S
C1797 H1800 0.929 . S
C1798 C1797 1.363 . S
C1798 C1804 1.428 . S
H1799 C1795 0.930 . S
H1800 C1797 0.929 . S
S1801 N1802 1.613 . S
S1801 N1803 1.610 . S
N1802 S1801 1.613 . S
N1802 C1805 1.350 . S
N1803 S1801 1.610 . S
N1803 C1804 1.351 . S
C1804 C1798 1.428 . S
C1804 N1803 1.351 . S
C1804 C1805 1.434 . S
C1805 C1796 1.429 . S
C1805 N1802 1.350 . S
C1805 C1804 1.434 . S
C1806 C1807 1.369 . S
C1806 C1808 1.419 . S
C1806 H1810 0.930 . S
C1807 C1806 1.369 . S
C1807 C1816 1.429 . S
C1808 C1806 1.419 . S
C1808 C1809 1.363 . S
C1808 H1811 0.929 . S
C1809 C1808 1.363 . S
C1809 C1815 1.428 . S
H1810 C1806 0.930 . S
H1811 C1808 0.929 . S
S1812 N1813 1.613 . S
S1812 N1814 1.610 . S
N1813 S1812 1.613 . S
N1813 C1816 1.350 . S
N1814 S1812 1.610 . S
N1814 C1815 1.351 . S
C1815 C1809 1.428 . S
C1815 N1814 1.351 . S
C1815 C1816 1.434 . S
C1816 C1807 1.429 . S
C1816 N1813 1.350 . S
C1816 C1815 1.434 . S
C1817 C1818 1.369 . S
C1817 C1819 1.419 . S
C1817 H1821 0.930 . S
C1818 C1817 1.369 . S
C1818 C1827 1.429 . S
C1819 C1817 1.419 . S
C1819 C1820 1.363 . S
C1819 H1822 0.929 . S
C1820 C1819 1.363 . S
C1820 C1826 1.428 . S
H1821 C1817 0.930 . S
H1822 C1819 0.929 . S
S1823 N1824 1.613 1_455 S
S1823 N1825 1.610 1_455 S
N1824 S1823 1.613 1_655 S
N1824 C1827 1.350 . S
N1825 S1823 1.610 1_655 S
N1825 C1826 1.351 . S
C1826 C1820 1.428 . S
C1826 N1825 1.351 . S
C1826 C1827 1.434 . S
C1827 C1818 1.429 . S
C1827 N1824 1.350 . S
C1827 C1826 1.434 . S
C1828 C1829 1.369 . S
C1828 C1830 1.419 . S
C1828 H1832 0.930 . S
C1829 C1828 1.369 . S
C1829 C1838 1.429 . S
C1830 C1828 1.419 . S
C1830 C1831 1.363 . S
C1830 H1833 0.929 . S
C1831 C1830 1.363 . S
C1831 C1837 1.428 . S
H1832 C1828 0.930 . S
H1833 C1830 0.929 . S
S1834 N1835 1.613 . S
S1834 N1836 1.610 . S
N1835 S1834 1.613 . S
N1835 C1838 1.350 . S
N1836 S1834 1.610 . S
N1836 C1837 1.351 . S
C1837 C1831 1.428 . S
C1837 N1836 1.351 . S
C1837 C1838 1.434 . S
C1838 C1829 1.429 . S
C1838 N1835 1.350 . S
C1838 C1837 1.434 . S
C1839 C1840 1.369 . S
C1839 C1841 1.419 . S
C1839 H1843 0.930 . S
C1840 C1839 1.369 . S
C1840 C1849 1.429 . S
C1841 C1839 1.419 . S
C1841 C1842 1.363 . S
C1841 H1844 0.929 . S
C1842 C1841 1.363 . S
C1842 C1848 1.428 . S
H1843 C1839 0.930 . S
H1844 C1841 0.929 . S
S1845 N1846 1.613 . S
S1845 N1847 1.610 . S
N1846 S1845 1.613 . S
N1846 C1849 1.350 . S
N1847 S1845 1.610 . S
N1847 C1848 1.351 . S
C1848 C1842 1.428 . S
C1848 N1847 1.351 . S
C1848 C1849 1.434 . S
C1849 C1840 1.429 . S
C1849 N1846 1.350 . S
C1849 C1848 1.434 . S
C1850 C1851 1.369 . S
C1850 C1852 1.419 . S
C1850 H1854 0.930 . S
C1851 C1850 1.369 . S
C1851 C1860 1.429 . S
C1852 C1850 1.419 . S
C1852 C1853 1.363 . S
C1852 H1855 0.929 . S
C1853 C1852 1.363 . S
C1853 C1859 1.428 . S
H1854 C1850 0.930 . S
H1855 C1852 0.929 . S
S1856 N1857 1.613 . S
S1856 N1858 1.610 . S
N1857 S1856 1.613 . S
N1857 C1860 1.350 . S
N1858 S1856 1.610 . S
N1858 C1859 1.351 . S
C1859 C1853 1.428 . S
C1859 N1858 1.351 . S
C1859 C1860 1.434 . S
C1860 C1851 1.429 . S
C1860 N1857 1.350 . S
C1860 C1859 1.434 . S
C1861 C1862 1.369 . S
C1861 C1863 1.419 . S
C1861 H1865 0.930 . S
C1862 C1861 1.369 . S
C1862 C1871 1.429 . S
C1863 C1861 1.419 . S
C1863 C1864 1.363 . S
C1863 H1866 0.929 . S
C1864 C1863 1.363 . S
C1864 C1870 1.428 . S
H1865 C1861 0.930 . S
H1866 C1863 0.929 . S
S1867 N1868 1.613 . S
S1867 N1869 1.610 . S
N1868 S1867 1.613 . S
N1868 C1871 1.350 . S
N1869 S1867 1.610 . S
N1869 C1870 1.351 . S
C1870 C1864 1.428 . S
C1870 N1869 1.351 . S
C1870 C1871 1.434 . S
C1871 C1862 1.429 . S
C1871 N1868 1.350 . S
C1871 C1870 1.434 . S
C1345 C319 1.700 . S
C1347 C74 1.623 . S
C1356 C56 2.739 . S
C1358 C142 2.564 . S
C1367 C242 2.047 . S
C1369 C158 2.070 . S
C1378 C321 0.956 . S
C1380 C224 1.169 . S
C1389 C405 1.274 . S
C1391 C489 1.347 . S
C1400 C483 1.862 . S
C1402 C578 1.918 . S
C1411 C562 1.068 . S
C1413 C644 1.297 . S
C1422 C403 1.766 . S
C1424 C662 1.746 . S
C1433 C823 1.869 . S
C1435 C58 1.715 . S
C1444 C896 2.099 . S
C1446 C140 2.095 . S
C1455 C226 0.962 . S
C1457 C1150 0.919 . S
C1466 C735 1.561 . S
C1468 C315 1.520 . S
C1477 C987 1.796 . S
C1479 C399 1.869 . S
C1488 C1243 3.049 . S
C1490 C487 3.044 . S
C1499 C560 1.256 . S
C1501 C1064 1.263 . S
C1510 C1318 0.860 . S
C1512 C646 0.877 . S
C1521 C739 1.650 . S
C1523 C1166 1.630 . S
C1532 C825 0.768 . S
C1534 C741 0.771 . S
C1543 C914 1.635 . S
C1545 C819 1.719 . S
C1554 C1239 1.827 . S
C1556 C991 1.800 . S
C1565 C1082 1.413 . S
C1567 C1334 1.396 . S
C1576 C980 1.695 . S
C1578 C63 1.625 . S
C1587 C1077 2.569 . S
C1589 C67 2.738 . S
C1598 C1071 2.069 . S
C1600 C231 2.047 . S
C1609 C235 1.162 . S
C1611 C982 0.978 . S
C1620 C814 1.341 . S
C1622 C394 1.283 . S
C1631 C830 1.862 . S
C1633 C567 1.917 . S
C1642 C1159 1.301 . S
C1644 C573 1.055 . S
C1653 C392 1.770 . S
C1655 C1155 1.744 . S
C1664 C476 1.867 . S
C1666 C69 1.717 . S
C1675 C907 2.096 . S
C1677 C1075 2.097 . S
C1686 C237 0.950 . S
C1688 C657 0.919 . S
C1697 C746 1.561 . S
C1699 C998 1.520 . S
C1708 C326 1.800 . S
C1710 C410 1.869 . S
C1719 C812 3.044 . S
C1721 C1232 3.049 . S
C1730 C571 1.251 . S
C1732 C151 1.266 . S
C1741 C1329 0.884 . S
C1743 C1161 0.887 . S
C1752 C728 1.647 . S
C1754 C651 1.636 . S
C1763 C730 0.768 . S
C1765 C478 0.770 . S
C1774 C903 1.633 . S
C1776 C494 1.720 . S
C1785 C308 1.796 . S
C1787 C1250 1.824 . S
C1796 C147 1.414 . S
C1798 C1323 1.394 . S
C1807 C1066 1.335 . S
C1809 C1245 1.491 . S
C1818 C993 1.226 . S
C1820 C1316 1.540 . S
C1829 C898 1.063 . S
C1831 C1148 1.489 . S
C1840 C1234 1.487 . S
C1842 C153 1.347 . S
C1851 C310 1.220 . S
C1853 C1327 1.544 . S
C1862 C655 1.485 . S
C1864 C909 1.065 . S
