# Generated by pormake.
# Topology rkf, (6)-cn, num edge types: 1
# Building blocks:
#     Node 0, Type 0, BuildingBlock: BETDIP_clean_sbu_0, # of connection points: 6
#     Node 1, Type 0, BuildingBlock: BETDIP_clean_sbu_0, # of connection points: 6
#     Node 2, Type 0, BuildingBlock: BETDIP_clean_sbu_0, # of connection points: 6
#     Node 3, Type 0, BuildingBlock: BETDIP_clean_sbu_0, # of connection points: 6
#     Node 4, Type 0, BuildingBlock: BETDIP_clean_sbu_0, # of connection points: 6
#     Node 5, Type 0, BuildingBlock: BETDIP_clean_sbu_0, # of connection points: 6
#     Edge 6, Type (0, 0), BuildingBlock: ZUJKAS_clean_linker_0, # of connection points: 2
#     Edge 7, Type (0, 0), BuildingBlock: ZUJKAS_clean_linker_0, # of connection points: 2
#     Edge 8, Type (0, 0), BuildingBlock: ZUJKAS_clean_linker_0, # of connection points: 2
#     Edge 9, Type (0, 0), BuildingBlock: ZUJKAS_clean_linker_0, # of connection points: 2
#     Edge 10, Type (0, 0), BuildingBlock: ZUJKAS_clean_linker_0, # of connection points: 2
#     Edge 11, Type (0, 0), BuildingBlock: ZUJKAS_clean_linker_0, # of connection points: 2
#     Edge 12, Type (0, 0), BuildingBlock: ZUJKAS_clean_linker_0, # of connection points: 2
#     Edge 13, Type (0, 0), BuildingBlock: ZUJKAS_clean_linker_0, # of connection points: 2
#     Edge 14, Type (0, 0), BuildingBlock: ZUJKAS_clean_linker_0, # of connection points: 2
#     Edge 15, Type (0, 0), BuildingBlock: ZUJKAS_clean_linker_0, # of connection points: 2
#     Edge 16, Type (0, 0), BuildingBlock: ZUJKAS_clean_linker_0, # of connection points: 2
#     Edge 17, Type (0, 0), BuildingBlock: ZUJKAS_clean_linker_0, # of connection points: 2
#     Edge 18, Type (0, 0), BuildingBlock: ZUJKAS_clean_linker_0, # of connection points: 2
#     Edge 19, Type (0, 0), BuildingBlock: ZUJKAS_clean_linker_0, # of connection points: 2
#     Edge 20, Type (0, 0), BuildingBlock: ZUJKAS_clean_linker_0, # of connection points: 2
#     Edge 21, Type (0, 0), BuildingBlock: ZUJKAS_clean_linker_0, # of connection points: 2
#     Edge 22, Type (0, 0), BuildingBlock: ZUJKAS_clean_linker_0, # of connection points: 2
#     Edge 23, Type (0, 0), BuildingBlock: ZUJKAS_clean_linker_0, # of connection points: 2
# Relax obj value: 0.540
# Max RMSD: 0.247
# Mean RMSD: 0.247
data_MOF--net-rkf--node1-BETDIP_clean_sbu_0--edge1-ZUJKAS_clean_linker_0
_symmetry_space_group_name_H-M    P1
_symmetry_Int_Tables_number       1
_symmetry_cell_setting            triclinic
loop_
_symmetry_equiv_pos_as_xyz
'x, y, z'
_cell_length_a     31.5514
_cell_length_b     31.273349
_cell_length_c     58.416253
_cell_angle_alpha  90.2841
_cell_angle_beta   89.845059
_cell_angle_gamma 120.07506
loop_
_atom_site_label
_atom_site_type_symbol
_atom_site_fract_x
_atom_site_fract_y
_atom_site_fract_z
_atom_type_partial_charge
Tb0 Tb 0.29489 0.08441 0.11553 0.0
Tb1 Tb 0.29936 0.17712 0.1025 0.0
C2 C 0.31653 0.01769 0.12037 0.0
C3 C 0.33299 -0.00125 0.13914 0.0
C4 C 0.32585 0.9509 0.13747 0.0
C5 C 0.33055 0.92765 0.15684 0.0
C6 C 0.34246 0.95208 0.17811 0.0
C7 C 0.35381 0.00166 0.17924 0.0
C8 C 0.34883 0.02479 0.15987 0.0
C9 C 0.20731 0.07396 0.11138 0.0
C10 C 0.2862 0.14708 0.15569 0.0
C11 C 0.293 0.2537 0.0983 0.0
C12 C 0.31143 0.2955 1.08252 0.0
C13 C 0.2877 0.32307 1.08126 0.0
C14 C 0.30457 0.36287 1.06623 0.0
C15 C 0.34563 0.37582 1.05226 0.0
C16 C 0.36995 0.34859 1.05398 0.0
C17 C 0.35284 0.30859 1.06892 0.0
C18 C 0.38443 0.1802 0.10548 0.0
C19 C 0.28935 0.10853 1.06074 0.0
O20 O 0.34744 0.06211 0.113 0.0
O21 O 0.27234 0.01073 0.1229 0.0
O22 O 0.24464 0.10095 0.09946 0.0
O23 O 0.2196 0.05244 0.12683 0.0
O24 O 0.30176 0.11564 0.15056 0.0
O25 O 0.27452 0.16752 0.13876 0.0
O26 O 0.26052 0.21054 1.09007 0.0
O27 O 0.32624 0.25141 0.11066 0.0
O28 O 0.34861 0.15928 0.11876 0.0
O29 O 0.37401 0.20206 1.08951 0.0
O30 O 0.28851 0.14891 1.06715 0.0
O31 O 0.2944 0.08055 1.07666 0.0
H32 H 0.31353 0.93036 0.12155 0.0
H33 H 0.32183 0.88952 0.15552 0.0
H34 H 0.36247 0.02117 0.19546 0.0
H35 H 0.35413 0.06169 0.16146 0.0
H36 H 0.25572 0.3134 1.0917 0.0
H37 H 0.28439 0.38239 1.06502 0.0
H38 H 0.40187 0.35784 1.04359 0.0
H39 H 0.37175 0.28774 1.06977 0.0
Tb40 Tb 0.28197 0.30144 0.44667 0.0
Tb41 Tb 0.24763 0.37088 0.43423 0.0
C42 C 0.33493 0.26775 0.46004 0.0
C43 C 0.37171 0.27902 0.47777 0.0
C44 C 0.40565 0.26312 0.4747 0.0
C45 C 0.44165 0.27395 0.49114 0.0
C46 C 0.44411 0.30076 0.51097 0.0
C47 C 0.4109 0.3181 0.51357 0.0
C48 C 0.37503 0.30744 0.49703 0.0
C49 C 0.18995 0.25751 0.43264 0.0
C50 C 0.2372 0.33779 0.48655 0.0
C51 C 0.20883 0.42029 0.42184 0.0
C52 C 0.18151 0.42761 0.40365 0.0
C53 C 0.17627 0.40659 0.38188 0.0
C54 C 0.14752 0.41239 0.36541 0.0
C55 C 0.12375 0.43925 0.37057 0.0
C56 C 0.12997 0.46086 0.39232 0.0
C57 C 0.15864 0.45503 0.40871 0.0
C58 C 0.3373 0.41359 0.45168 0.0
C59 C 0.27348 0.31467 0.39362 0.0
O60 O 0.34811 0.30177 0.44435 0.0
O61 O 0.2895 0.25021 0.46678 0.0
O62 O 0.21237 0.29673 0.44392 0.0
O63 O 0.21788 0.23823 0.43083 0.0
O64 O 0.26789 0.32159 0.48137 0.0
O65 O 0.22034 0.35443 0.47001 0.0
O66 O 0.1855 0.3785 0.4329 0.0
O67 O 0.25457 0.43351 0.41774 0.0
O68 O 0.31897 0.37816 0.43754 0.0
O69 O 0.30511 0.42651 0.45585 0.0
O70 O 0.25453 0.34313 0.39937 0.0
O71 O 0.29022 0.29727 0.40966 0.0
H72 H 0.4041 0.242 0.45964 0.0
H73 H 0.46703 0.26058 0.48854 0.0
H74 H 0.41137 0.33823 0.5288 0.0
H75 H 0.34957 0.32077 0.49941 0.0
H76 H 0.19375 0.38527 0.37775 0.0
H77 H 0.14285 0.3948 0.34886 0.0
H78 H 0.11256 0.48214 0.39668 0.0
H79 H 0.16249 0.4715 0.4255 0.0
Tb80 Tb 0.07967 0.29269 0.77803 0.0
Tb81 Tb 0.97621 0.26051 0.76599 0.0
C82 C 0.16675 0.34203 0.79154 0.0
C83 C 0.19495 0.37344 0.81076 0.0
C84 C 0.17193 0.38265 0.82912 0.0
C85 C 0.19998 0.41352 0.84708 0.0
C86 C 0.25135 0.43555 0.84684 0.0
C87 C 0.27409 0.4269 0.82808 0.0
C88 C 0.24605 0.39607 0.8102 0.0
C89 C 0.03017 0.20211 0.76155 0.0
C90 C -0.00113 0.24944 0.81816 0.0
C91 C 0.88874 0.22008 0.75269 0.0
C92 C 0.85737 0.19901 0.73262 0.0
C93 C 0.87683 0.19931 0.71102 0.0
C94 C 0.84544 0.1758 0.69256 0.0
C95 C 0.79424 0.15191 0.69549 0.0
C96 C 0.77521 0.15307 0.7171 0.0
C97 C 0.80659 0.1764 0.73551 0.0
C98 C 0.02585 0.35023 0.78369 0.0
C99 C 0.05804 0.29251 0.72528 0.0
O100 O 0.1454 0.35991 0.77872 0.0
O101 O 0.13849 0.29479 0.79573 0.0
O102 O 0.01374 0.22308 0.77419 0.0
O103 O 0.07717 0.23037 0.7597 0.0
O104 O 0.04606 0.27675 0.81272 0.0
O105 O 0.9647 0.23519 0.80201 0.0
O106 O 0.90934 0.19567 0.76045 0.0
O107 O 0.9185 0.26791 0.75279 0.0
O108 O 0.04166 0.33102 0.76944 0.0
O109 O 0.98033 0.31891 0.78783 0.0
O110 O 0.01113 0.27482 0.73108 0.0
O111 O 0.09195 0.30505 0.74124 0.0
H112 H 0.13242 0.36572 0.82963 0.0
H113 H 0.1814 0.41892 0.86146 0.0
H114 H 0.31356 0.44371 0.82732 0.0
H115 H 0.26429 0.38976 0.79592 0.0
H116 H 0.91604 0.21685 0.70853 0.0
H117 H 0.86124 0.175 0.67619 0.0
H118 H 0.73605 0.13556 0.71982 0.0
H119 H 0.79114 0.17611 0.75214 0.0
Tb120 Tb 0.88313 0.12281 0.11056 0.0
Tb121 Tb 0.81172 0.01607 0.10194 0.0
C122 C 0.92164 0.21238 0.12138 0.0
C123 C 0.92081 0.24286 0.14019 0.0
C124 C 0.89406 0.22142 0.16019 0.0
C125 C 0.89242 0.2514 0.17758 0.0
C126 C 0.91736 0.30311 0.17509 0.0
C127 C 0.94318 0.32412 0.15474 0.0
C128 C 0.94486 0.29416 0.13743 0.0
C129 C 0.9217 0.07178 1.0935 0.0
C130 C 0.85411 0.04504 0.15231 0.0
C131 C 0.76244 0.92671 1.09022 0.0
C132 C 0.76553 0.89357 1.07342 0.0
C133 C 0.79288 0.91191 1.05328 0.0
C134 C 0.79766 0.87986 1.03821 0.0
C135 C 0.77538 0.82912 1.04315 0.0
C136 C 0.74812 0.81099 1.06336 0.0
C137 C 0.74314 0.84306 1.07837 0.0
C138 C 0.77286 0.0688 0.11783 0.0
C139 C 0.85737 0.09076 1.05882 0.0
O140 O 0.88033 0.18798 0.1102 0.0
O141 O 0.94225 0.18569 0.12536 0.0
O142 O 0.88765 0.05767 0.1078 0.0
O143 O 0.93924 0.11858 1.08987 0.0
O144 O 0.86984 0.09187 0.14627 0.0
O145 O 0.83434 0.00938 0.1367 0.0
O146 O 0.79633 0.94328 0.10596 0.0
O147 O 0.75441 0.96115 1.08237 0.0
O148 O 0.80667 0.08182 0.10344 0.0
O149 O 0.75792 0.02334 0.12299 0.0
O150 O 0.83678 0.04417 1.06625 0.0
O151 O 0.87304 0.12779 1.07368 0.0
H152 H 0.87474 0.18169 0.16239 0.0
H153 H 0.87287 0.2342 0.19321 0.0
H154 H 0.96239 0.36377 0.15227 0.0
H155 H 0.96495 0.31106 0.12185 0.0
H156 H 0.81119 0.951 1.04942 0.0
H157 H 0.81976 0.89493 1.02295 0.0
H158 H 0.73054 0.77207 1.06751 0.0
H159 H 0.72229 0.82852 1.094 0.0
Tb160 Tb 0.90222 0.91264 0.44153 0.0
Tb161 Tb 0.93034 0.84109 0.42747 0.0
C162 C 0.85028 0.95197 0.44687 0.0
C163 C 0.81528 0.95146 0.46343 0.0
C164 C 0.80415 0.92361 0.48354 0.0
C165 C 0.77095 0.92412 0.49925 0.0
C166 C 0.74847 0.95245 0.49501 0.0
C167 C 0.75873 0.979 0.47444 0.0
C168 C 0.79193 0.97848 0.45878 0.0
C169 C -0.00408 0.95204 0.42878 0.0
C170 C 0.94168 0.87673 0.48154 0.0
C171 C 0.97774 0.7969 0.42135 0.0
C172 C 0.00829 0.7921 0.40381 0.0
C173 C 0.00811 0.8065 0.38115 0.0
C174 C 0.0407 0.80544 0.36521 0.0
C175 C 0.07418 0.79051 0.37184 0.0
C176 C 0.07344 0.77523 0.39447 0.0
C177 C 0.04062 0.77592 0.41032 0.0
C178 C 0.83604 0.80075 0.43526 0.0
C179 C 0.90128 0.89056 0.38695 0.0
O180 O 0.83575 0.9103 0.43593 0.0
O181 O 0.89597 0.97254 0.45357 0.0
O182 O 0.95875 0.91567 0.42074 0.0
O183 O 0.98022 0.97108 0.4441 0.0
O184 O 0.916 0.89839 0.47664 0.0
O185 O 0.95227 0.85416 0.46484 0.0
O186 O -0.00382 0.84075 0.43064 0.0
O187 O 0.93105 0.77726 0.41682 0.0
O188 O 0.86961 0.83433 0.44744 0.0
O189 O 0.85544 0.78733 0.41932 0.0
O190 O 0.9237 0.86503 0.392 0.0
O191 O 0.88759 0.90927 0.40403 0.0
H192 H 0.82168 0.90218 0.48721 0.0
H193 H 0.76437 0.90389 0.51509 0.0
H194 H 0.74168 0.0008 0.47064 0.0
H195 H 0.79978 -0.00037 0.44314 0.0
H196 H -0.0163 0.81964 0.37595 0.0
H197 H 0.041 0.81808 0.34795 0.0
H198 H 0.09868 0.76337 0.39997 0.0
H199 H 0.04126 0.76492 0.42782 0.0
Tb200 Tb 0.0891 0.90517 0.77499 0.0
Tb201 Tb 0.19537 0.9526 0.7641 0.0
C202 C 0.00399 0.84584 0.78871 0.0
C203 C 0.98106 0.81621 0.80913 0.0
C204 C 0.00905 0.81958 0.82836 0.0
C205 C -0.01377 0.7923 0.84798 0.0
C206 C 0.93508 0.76097 0.84856 0.0
C207 C 0.90757 0.75631 0.82883 0.0
C208 C 0.93041 0.78387 0.80931 0.0
C209 C 0.12789 -0.00388 0.75975 0.0
C210 C 0.16707 0.95434 0.8165 0.0
C211 C 0.28371 0.00445 0.75272 0.0
C212 C 0.31806 0.03575 0.73513 0.0
C213 C 0.30246 0.04003 0.71328 0.0
C214 C 0.33645 0.07299 0.69753 0.0
C215 C 0.38627 0.10201 0.70353 0.0
C216 C 0.40156 0.09671 0.72533 0.0
C217 C 0.36766 0.0638 0.74099 0.0
C218 C 0.15546 0.86125 0.77965 0.0
C219 C 0.11504 0.91314 0.72228 0.0
O220 O 0.03065 0.83261 0.77673 0.0
O221 O 0.025 0.89387 0.79124 0.0
O222 O 0.14842 0.97977 0.77259 0.0
O223 O 0.08237 0.96252 0.75701 0.0
O224 O 0.12113 0.92284 0.8102 0.0
O225 O 0.20214 0.97409 0.80074 0.0
O226 O 0.25875 0.02202 0.76301 0.0
O227 O 0.25744 0.957 0.74851 0.0
O228 O 0.13649 0.87767 0.76585 0.0
O229 O 0.19932 0.89622 0.78431 0.0
O230 O 0.16202 0.93955 0.72878 0.0
O231 O 0.07999 0.89191 0.73789 0.0
H232 H 0.04834 0.84388 0.82836 0.0
H233 H 0.00843 0.79723 0.86295 0.0
H234 H 0.86823 0.73197 0.82862 0.0
H235 H 0.90844 0.7804 0.79443 0.0
H236 H 0.26417 0.0186 0.70857 0.0
H237 H 0.32358 0.07675 0.6809 0.0
H238 H 0.43969 0.11814 0.73032 0.0
H239 H 0.38012 0.06077 0.75786 0.0
H240 H 0.89261 0.97566 0.10034 0.0
H241 H 0.90105 0.9199 1.07508 0.0
H242 H 0.96514 0.03536 1.02371 0.0
H243 H 0.9577 0.09101 1.04999 0.0
H244 H -0.00495 -0.00695 1.00629 0.0
H245 H 0.91965 0.82882 1.04311 0.0
H246 H 0.88171 0.85658 1.04568 0.0
H247 H 0.91251 0.84988 1.07055 0.0
C248 C 0.90864 0.98883 1.08361 0.0
C249 C 0.92645 0.03804 1.07747 0.0
C250 C 0.91328 0.9565 1.0687 0.0
C251 C 0.93637 0.97256 1.04713 0.0
C252 C 0.94925 0.02099 1.04029 0.0
H253 H 0.15698 0.10815 1.08773 0.0
H254 H 0.09031 0.06145 1.06077 0.0
C255 C 0.94549 0.05356 1.05547 0.0
C256 C 0.95689 0.94433 1.03468 0.0
H257 H 0.00716 0.89792 1.07058 0.0
C258 C -0.00213 0.97293 1.02068 0.0
C259 C 0.95995 0.90737 1.04713 0.0
C260 C 0.91556 0.85805 1.05194 0.0
C261 C 0.04445 0.98545 1.02896 0.0
C262 C 0.04725 0.96386 1.04976 0.0
C263 C 0.00542 0.91996 1.05676 0.0
C264 C 0.08779 0.99147 1.06624 0.0
C265 C 0.08936 0.02349 1.01646 0.0
C266 C 0.10573 0.96718 1.07982 0.0
C267 C 0.14188 -0.0065 1.09619 0.0
C268 C 0.16103 0.04465 0.09907 0.0
C269 C 0.1422 0.06866 1.08602 0.0
C270 C 0.10522 0.04213 1.0701 0.0
H271 H 0.08499 0.01581 0.99776 0.0
H272 H 0.09358 0.06061 1.01908 0.0
H273 H 0.12305 0.02401 1.02237 0.0
H274 H 0.09258 0.92813 1.0775 0.0
H275 H 0.15677 0.9743 0.10564 0.0
H276 H 0.01496 0.92478 0.38735 0.0
H277 H 0.05452 0.98192 0.35585 0.0
H278 H 0.11743 0.10322 0.40387 0.0
H279 H 0.07186 0.04705 0.43504 0.0
H280 H 0.01157 0.04507 0.35594 0.0
H281 H 0.20882 0.15511 0.34508 0.0
H282 H 0.18007 0.09278 0.35617 0.0
H283 H 0.19912 0.14495 0.37528 0.0
C284 C 0.03786 0.9636 0.39132 0.0
C285 C 0.03769 0.98203 0.41341 0.0
C286 C 0.0613 -0.00394 0.37323 0.0
C287 C 0.08758 0.04695 0.37737 0.0
C288 C 0.09618 0.06405 0.4002 0.0
H289 H 0.1077 0.16834 0.43374 0.0
H290 H 0.05533 0.12974 0.40087 0.0
C291 C 0.07023 0.03196 0.41812 0.0
C292 C 0.09029 0.08168 0.35956 0.0
H293 H 0.16625 0.20516 0.35574 0.0
C294 C 0.04574 0.07993 0.35475 0.0
C295 C 0.1343 0.12652 0.35609 0.0
C296 C 0.18325 0.12961 0.3582 0.0
C297 C 0.04405 0.12392 0.35434 0.0
C298 C 0.08757 0.1686 0.35896 0.0
C299 C 0.13223 0.1702 0.35449 0.0
C300 C 0.08915 0.19595 0.38002 0.0
C301 C -0.00477 0.12142 0.3551 0.0
C302 C 0.11861 0.24755 0.3808 0.0
C303 C 0.14506 0.27038 0.40072 0.0
C304 C 0.14541 0.24124 0.41888 0.0
C305 C 0.10927 0.19141 0.41961 0.0
C306 C 0.07932 0.16943 0.40065 0.0
H307 H 0.96948 0.0932 0.34279 0.0
H308 H 0.97929 0.11013 0.3725 0.0
H309 H -0.00097 0.15788 0.35111 0.0
H310 H 0.12591 0.26922 0.36536 0.0
H311 H 0.16941 0.30969 0.40061 0.0
H312 H 0.19237 0.02384 0.72327 0.0
H313 H 0.18575 0.06966 0.69122 0.0
H314 H 0.11641 0.12684 0.73575 0.0
H315 H 0.11487 0.07392 0.76642 0.0
H316 H 0.07932 0.02909 0.68509 0.0
H317 H 0.17389 0.23058 0.68211 0.0
H318 H 0.20452 0.19713 0.69054 0.0
H319 H 0.17207 0.21279 0.7114 0.0
C320 C 0.17599 0.04628 0.72631 0.0
C321 C 0.15115 0.04276 0.74687 0.0
C322 C 0.17353 0.07369 0.70802 0.0
C323 C 0.1494 0.10066 0.71086 0.0
C324 C 0.13459 0.10566 0.73299 0.0
H325 H 0.9695 0.18938 0.72487 0.0
H326 H 0.97735 0.15061 0.69007 0.0
C327 C 0.13389 0.07556 0.75069 0.0
C328 C 0.12337 0.10751 0.69147 0.0
H329 H 0.08162 0.18811 0.6891 0.0
C330 C 0.08042 0.06432 0.68469 0.0
C331 C 0.12524 0.15322 0.68899 0.0
C332 C 0.17184 0.20111 0.69339 0.0
C333 C 0.036 0.06435 0.68367 0.0
C334 C 0.03631 0.10858 0.68884 0.0
C335 C 0.08101 0.15333 0.68687 0.0
C336 C 0.0045 0.10841 0.70756 0.0
C337 C -0.01134 0.01596 0.68238 0.0
C338 C 0.01221 0.09395 0.72924 0.0
C339 C 0.01293 0.12026 0.74871 0.0
C340 C 0.00214 0.15836 0.7469 0.0
C341 C -0.01836 0.16301 0.72639 0.0
C342 C -0.01544 0.13956 0.70648 0.0
H343 H -0.00827 0.99093 0.66977 0.0
H344 H 0.98068 -0.00233 0.69935 0.0
H345 H 0.95776 0.02157 0.67755 0.0
H346 H 0.02661 0.0691 0.73071 0.0
H347 H 0.02817 0.11528 0.7644 0.0
H348 H 0.34897 0.46525 1.05568 0.0
H349 H 0.35682 0.52003 1.02403 0.0
H350 H 0.38185 0.4279 0.97721 0.0
H351 H 0.37348 0.37302 1.00836 0.0
H352 H 0.43729 0.53437 0.96744 0.0
H353 H 0.23663 0.45818 0.98053 0.0
H354 H 0.27839 0.49022 1.00364 0.0
H355 H 0.26807 0.43083 0.99457 0.0
C356 C 0.35692 0.45718 1.03868 0.0
C357 C 0.35981 0.41433 1.03446 0.0
C358 C 0.36172 0.48868 1.0207 0.0
C359 C 0.36937 0.4776 0.99831 0.0
C360 C 0.37624 0.43722 0.99442 0.0
H361 H 0.32506 0.42873 0.86712 0.0
H362 H 0.36446 0.46418 0.90338 0.0
C363 C 0.37143 0.40581 1.0123 0.0
C364 C 0.36212 0.50179 0.97828 0.0
H365 H 0.26816 0.48677 0.94429 0.0
C366 C 0.40064 0.52563 0.96257 0.0
C367 C 0.31448 0.49121 0.97214 0.0
C368 C 0.2718 0.46615 0.98849 0.0
C369 C 0.39165 0.53414 0.94002 0.0
C370 C 0.34284 0.51709 0.93303 0.0
C371 C 0.30553 0.49928 0.94956 0.0
C372 C 0.32776 0.50635 0.90872 0.0
C373 C 0.43408 0.55837 0.92358 0.0
C374 C 0.29375 0.518 0.89946 0.0
C375 C 0.27037 0.49689 0.87872 0.0
C376 C 0.28073 0.46387 0.86693 0.0
C377 C 0.31684 0.45463 0.87558 0.0
C378 C 0.33985 0.47538 0.8963 0.0
H379 H 0.467 0.58796 0.93239 0.0
H380 H 0.44345 0.53055 0.91734 0.0
H381 H 0.42544 0.57455 0.90867 0.0
H382 H 0.28346 0.54137 0.90886 0.0
H383 H 0.24303 0.50505 0.8723 0.0
H384 H 0.03337 0.42876 0.37799 0.0
H385 H 0.97587 0.42611 0.34914 0.0
H386 H 0.08224 0.45429 0.29623 0.0
H387 H 0.14027 0.45826 0.32493 0.0
H388 H 0.02253 0.5034 0.29085 0.0
H389 H 0.91478 0.30045 0.30757 0.0
H390 H 0.92815 0.34332 0.33082 0.0
H391 H 0.97661 0.33721 0.31803 0.0
C392 C 0.04492 0.43563 0.36026 0.0
C393 C 0.09105 0.44304 0.35361 0.0
C394 C 0.012 0.434 0.34386 0.0
C395 C 0.02483 0.43969 0.32064 0.0
C396 C 0.07183 0.44998 0.31413 0.0
H397 H -0.00177 0.38574 0.19036 0.0
H398 H 0.00777 0.42884 0.22618 0.0
C399 C 0.10468 0.45158 0.33047 0.0
C400 C -0.01196 0.42814 0.30261 0.0
H401 H 0.90459 0.32815 0.27233 0.0
C402 C -0.00453 0.4653 0.28706 0.0
C403 C 0.95203 0.37858 0.29802 0.0
C404 C 0.94216 0.33735 0.31438 0.0
C405 C 0.97154 0.45336 0.26583 0.0
C406 C 0.94081 0.40307 0.25994 0.0
C407 C 0.9286 0.36671 0.27671 0.0
C408 C 0.93118 0.38629 0.2358 0.0
C409 C -0.01805 0.49448 0.24938 0.0
C410 C 0.8848 0.34812 0.22897 0.0
C411 C 0.87941 0.32265 0.20846 0.0
C412 C 0.92034 0.3351 0.1945 0.0
C413 C 0.96586 0.37567 0.20056 0.0
C414 C 0.97127 0.4008 0.22104 0.0
H415 H -0.01518 0.52684 0.25874 0.0
H416 H 0.01773 0.5068 0.24089 0.0
H417 H 0.95307 0.48261 0.23609 0.0
H418 H 0.85345 0.33602 0.24017 0.0
H419 H 0.84375 0.29187 0.20402 0.0
H420 H 0.71103 0.06118 0.69741 0.0
H421 H 0.66274 0.00975 0.66517 0.0
H422 H 0.75496 0.12586 0.61835 0.0
H423 H 0.80232 0.17819 0.65047 0.0
H424 H 0.65097 0.06938 0.60587 0.0
H425 H 0.73363 0.95276 0.6269 0.0
H426 H 0.69839 0.96211 0.64852 0.0
H427 H 0.75622 0.01295 0.63965 0.0
C428 C 0.72016 0.07633 0.6803 0.0
C429 C 0.76099 0.12348 0.67641 0.0
C430 C 0.69263 0.04679 0.66193 0.0
C431 C 0.70576 0.06387 0.63945 0.0
C432 C 0.74432 0.11209 0.63563 0.0
H433 H 0.75313 0.03785 0.50862 0.0
H434 H 0.71845 0.05156 0.543 0.0
C435 C 0.77173 0.14168 0.65395 0.0
C436 C 0.68485 0.03006 0.61971 0.0
H437 H 0.70089 0.94472 0.59059 0.0
C438 C 0.66055 0.04106 0.60268 0.0
C439 C 0.69665 -0.00743 0.61581 0.0
C440 C 0.72279 0.97925 0.63357 0.0
C441 C 0.65168 0.01854 0.58105 0.0
C442 C 0.66875 0.98535 0.57631 0.0
C443 C 0.68807 0.97042 0.59416 0.0
C444 C 0.67741 0.97436 0.55264 0.0
C445 C 0.62648 0.0325 0.56316 0.0
C446 C 0.66553 0.92623 0.54628 0.0
C447 C 0.68614 0.91836 0.52663 0.0
C448 C 0.71884 0.95852 0.51306 0.0
C449 C 0.72757 0.00604 0.51852 0.0
C450 C 0.7073 0.0139 0.53817 0.0
H451 H 0.5976 0.03811 0.57111 0.0
H452 H 0.65356 0.06802 0.5552 0.0
H453 H 0.60963 0.00387 0.54956 0.0
H454 H 0.64285 0.89522 0.55728 0.0
H455 H 0.67833 0.88125 0.52264 0.0
H456 H 0.79969 0.75897 1.05383 0.0
H457 H 0.81919 0.7106 1.0269 0.0
H458 H 0.78495 0.77607 0.97029 0.0
H459 H 0.76551 0.82423 0.99692 0.0
H460 H 0.74922 0.66332 0.96908 0.0
H461 H 0.94801 0.7926 0.98529 0.0
H462 H 0.90576 0.76356 1.00865 0.0
H463 H 0.90381 0.81108 0.99247 0.0
C464 C 0.79532 0.76209 1.03564 0.0
C465 C 0.78162 0.79564 1.02736 0.0
C466 C 0.80654 0.73461 1.02036 0.0
C467 C 0.80343 0.73996 0.99673 0.0
C468 C 0.78731 0.77143 0.98853 0.0
H469 H 0.85132 0.75325 0.86563 0.0
H470 H 0.81659 0.7261 0.90339 0.0
C471 C 0.77665 0.79918 1.0037 0.0
C472 C 0.82176 0.71769 0.98004 0.0
H473 H 0.92612 0.7516 0.94982 0.0
C474 C 0.78804 0.68115 0.96522 0.0
C475 C 0.87241 0.74043 0.97538 0.0
C476 C 0.9099 0.77911 0.99121 0.0
C477 C 0.80343 0.67077 0.94446 0.0
C478 C 0.8534 0.69876 0.93827 0.0
C479 C 0.8877 0.73057 0.95445 0.0
C480 C 0.86908 0.70471 0.91404 0.0
C481 C 0.76556 0.63255 0.92866 0.0
C482 C 0.91045 0.70203 0.90736 0.0
C483 C 0.93074 0.71795 0.88558 0.0
C484 C 0.91015 0.73715 0.87027 0.0
C485 C 0.86751 0.7377 0.87674 0.0
C486 C 0.84736 0.72184 0.89838 0.0
H487 H 0.73661 0.60138 0.93863 0.0
H488 H 0.74759 0.64944 0.91888 0.0
H489 H 0.78212 0.61784 0.91639 0.0
H490 H 0.92813 0.68954 0.91929 0.0
H491 H 0.96337 0.71668 0.881 0.0
H492 H 0.06149 0.759 0.32741 0.0
H493 H 0.12551 0.77506 0.29933 0.0
H494 H 0.23591 0.84733 0.35141 0.0
H495 H 0.17208 0.8315 0.37958 0.0
H496 H 0.24307 0.90494 0.31185 0.0
H497 H 0.22422 0.72452 0.28794 0.0
H498 H 0.16724 0.72436 0.28955 0.0
H499 H 0.20308 0.73521 0.31503 0.0
C500 C 0.09935 0.77749 0.33293 0.0
C501 C 0.11191 0.7942 0.3556 0.0
C502 C 0.13579 0.78611 0.31698 0.0
C503 C 0.18529 0.81172 0.32343 0.0
C504 C 0.19783 0.82684 0.34624 0.0
H505 H 0.40111 0.97675 0.21625 0.0
H506 H 0.37614 0.93865 0.2542 0.0
C507 C 0.16137 0.81779 0.36226 0.0
C508 C 0.22353 0.82947 0.30559 0.0
H509 H 0.26428 0.79015 0.26057 0.0
C510 C 0.24887 0.88018 0.30091 0.0
C511 C 0.23057 0.79682 0.29148 0.0
C512 C 0.20518 0.74219 0.29632 0.0
C513 C 0.2779 0.89881 0.28127 0.0
C514 C 0.2831 0.8658 0.26636 0.0
C515 C 0.26048 0.81543 0.27203 0.0
C516 C 0.30429 0.88136 0.24316 0.0
C517 C 0.29905 0.95291 0.27574 0.0
C518 C 0.27392 0.85924 0.22413 0.0
C519 C 0.28851 0.88009 0.2025 0.0
C520 C 0.33364 0.92374 0.19952 0.0
C521 C 0.3659 0.94342 0.21819 0.0
C522 C 0.35156 0.92188 0.23984 0.0
H523 H 0.28381 0.97086 0.28688 0.0
H524 H 0.33929 0.9726 0.27832 0.0
H525 H 0.29166 0.95773 0.25764 0.0
H526 H 0.23734 0.8279 0.22624 0.0
H527 H 0.26267 0.86429 0.1885 0.0
H528 H 0.4573 0.19714 0.7129 0.0
H529 H 0.51066 0.26053 0.68543 0.0
H530 H 0.4481 0.15409 0.63055 0.0
H531 H 0.39548 0.09042 0.65785 0.0
H532 H 0.55712 0.22605 0.62851 0.0
H533 H 0.43949 0.31073 0.6418 0.0
H534 H 0.46851 0.30014 0.66588 0.0
H535 H 0.41921 0.24864 0.65134 0.0
C536 C 0.45578 0.18702 0.69503 0.0
C537 C 0.42184 0.13901 0.68741 0.0
C538 C 0.48622 0.22326 0.67943 0.0
C539 C 0.48307 0.21187 0.65605 0.0
C540 C 0.45113 0.1634 0.64859 0.0
H541 H 0.46205 0.22996 0.52685 0.0
H542 H 0.49912 0.22971 0.56291 0.0
C543 C 0.42068 0.12727 0.66413 0.0
C544 C 0.50727 0.25083 0.6387 0.0
H545 H 0.48111 0.32575 0.6072 0.0
C546 C 0.54193 0.24933 0.62416 0.0
C547 C 0.48838 0.28213 0.63344 0.0
C548 C 0.45182 0.28582 0.64884 0.0
C549 C 0.55372 0.27387 0.60307 0.0
C550 C 0.5289 0.29885 0.59625 0.0
C551 C 0.49969 0.30602 0.61223 0.0
C552 C 0.52147 0.30554 0.57178 0.0
C553 C 0.58989 0.26974 0.58765 0.0
C554 C 0.52229 0.34858 0.5643 0.0
C555 C 0.50014 0.34851 0.54358 0.0
C556 C 0.47696 0.30542 0.53007 0.0
C557 C 0.4801 0.26399 0.53666 0.0
C558 C 0.50188 0.26398 0.55733 0.0
H559 H 0.62096 0.27278 0.59785 0.0
H560 H 0.57179 0.23284 0.57928 0.0
H561 H 0.60445 0.29872 0.57424 0.0
H562 H 0.5369 0.38098 0.57522 0.0
H563 H 0.49885 0.38123 0.53874 0.0
H564 H 0.4591 0.20877 1.07431 0.0
H565 H 0.5307 0.19737 1.0773 0.0
H566 H 0.48275 0.13341 0.14422 0.0
H567 H 0.41197 0.14525 0.14148 0.0
H568 H 0.60714 0.23004 0.11608 0.0
H569 H 0.49315 0.02693 0.10278 0.0
H570 H 0.47329 0.0694 1.09396 0.0
H571 H 0.47137 0.05395 0.12363 0.0
C572 C 0.46423 0.19278 1.08972 0.0
C573 C 0.42969 0.1773 0.10754 0.0
C574 C 0.50504 0.18629 1.09141 0.0
C575 C 0.51167 0.16405 0.11088 0.0
C576 C 0.47807 0.15019 0.12896 0.0
H577 H 0.69595 0.04219 0.14673 0.0
H578 H 0.63602 0.07011 0.14617 0.0
C579 C 0.43764 0.15695 0.12736 0.0
C580 C 0.55249 0.15341 0.11212 0.0
H581 H 0.57609 0.05817 0.11241 0.0
C582 C 0.60057 0.19255 0.11517 0.0
C583 C 0.54363 0.10444 0.11112 0.0
C584 C 0.49267 0.06113 0.10754 0.0
C585 C 0.64002 0.18386 0.11776 0.0
C586 C 0.63124 0.13477 0.11663 0.0
C587 C 0.58301 0.09578 0.11337 0.0
C588 C 0.67112 0.1225 0.11866 0.0
C589 C 0.69034 0.22726 0.12243 0.0
C590 C 0.71154 0.14324 0.10374 0.0
C591 C 0.74629 0.12783 0.10431 0.0
C592 C 0.74074 0.09063 0.1195 0.0
C593 C 0.70114 0.0709 0.13484 0.0
C594 C 0.66677 0.08673 0.13446 0.0
H595 H 0.6883 0.25892 0.12991 0.0
H596 H 0.71128 0.21711 0.1343 0.0
H597 H 0.71085 0.2398 0.10608 0.0
H598 H 0.71528 0.16994 1.091 0.0
H599 H 0.77621 0.1434 1.09213 0.0
H600 H 0.41669 0.41541 0.43055 0.0
H601 H 0.50274 0.48206 0.43278 0.0
H602 H 0.46321 0.55801 0.48273 0.0
H603 H 0.37778 0.49216 0.48044 0.0
H604 H 0.51491 0.61757 0.44655 0.0
H605 H 0.61085 0.52405 0.48123 0.0
H606 H 0.57285 0.49387 0.45678 0.0
H607 H 0.54523 0.49751 0.48312 0.0
C608 C 0.42664 0.44582 0.44234 0.0
C609 C 0.3904 0.44865 0.45522 0.0
C610 C 0.47586 0.48389 0.44366 0.0
C611 C 0.48967 0.52518 0.458 0.0
C612 C 0.45366 0.52675 0.47153 0.0
H613 H 0.79193 0.77696 0.47801 0.0
H614 H 0.7066 0.7122 0.48622 0.0
C615 C 0.40475 0.48894 0.47022 0.0
C616 C 0.54043 0.56874 0.4576 0.0
H617 H 0.66121 0.60512 0.46611 0.0
C618 C 0.54679 0.61482 0.45104 0.0
C619 C 0.58218 0.56554 0.46369 0.0
C620 C 0.57763 0.51772 0.47181 0.0
C621 C 0.5936 0.65711 0.44965 0.0
C622 C 0.6354 0.65352 0.4549 0.0
C623 C 0.62912 0.60791 0.46216 0.0
C624 C 0.68584 0.69533 0.4506 0.0
C625 C 0.59823 0.70539 0.44221 0.0
C626 C 0.70209 0.70783 0.42798 0.0
C627 C 0.75035 0.74417 0.42335 0.0
C628 C 0.78355 0.76938 0.44119 0.0
C629 C 0.76694 0.75855 0.46394 0.0
C630 C 0.71843 0.72133 0.46861 0.0
H631 H 0.56282 0.70482 0.44349 0.0
H632 H 0.626 0.73645 0.45274 0.0
H633 H 0.61056 0.71252 0.42411 0.0
H634 H 0.67778 0.68825 0.41383 0.0
H635 H 0.7622 0.75159 0.40566 0.0
H636 H -0.01415 0.39461 0.80842 0.0
H637 H 0.01035 0.48192 0.80921 0.0
H638 H 0.13598 0.51552 0.76728 0.0
H639 H 0.11041 0.42727 0.76577 0.0
H640 H 0.08776 0.56401 0.82383 0.0
H641 H 0.07181 0.57518 0.72977 0.0
H642 H 0.05099 0.51732 0.74434 0.0
H643 H 0.11502 0.55678 0.73812 0.0
C644 C 0.01893 0.42058 0.79948 0.0
C645 C 0.04587 0.404 0.78677 0.0
C646 C 0.03292 0.47059 0.79996 0.0
C647 C 0.07434 0.50532 0.78784 0.0
C648 C 0.10307 0.48928 0.77622 0.0
H649 H 0.20218 0.82332 0.80385 0.0
H650 H 0.18154 0.73716 0.80645 0.0
C651 C 0.08879 0.43895 0.77558 0.0
C652 C 0.08613 0.5578 0.78707 0.0
H653 H 0.10185 0.64989 0.75065 0.0
C654 C 0.0909 0.58278 0.80782 0.0
C655 C 0.08909 0.58205 0.7662 0.0
C656 C 0.08099 0.55638 0.74334 0.0
C657 C 0.09888 0.63123 0.80828 0.0
C658 C 0.10365 0.6561 0.7874 0.0
C659 C 0.0985 0.63102 0.76666 0.0
C660 C 0.11481 0.70836 0.78664 0.0
C661 C 0.10078 0.65469 0.83118 0.0
C662 C 0.08473 0.72132 0.77426 0.0
C663 C 0.09691 0.7709 0.77246 0.0
C664 C 0.13943 0.80838 0.783 0.0
C665 C 0.16898 0.79524 0.79566 0.0
C666 C 0.15703 0.74587 0.7973 0.0
H667 H 0.08109 0.62635 0.84456 0.0
H668 H 0.13953 0.6774 0.83666 0.0
H669 H 0.08453 0.67896 0.83024 0.0
H670 H 0.05208 0.69309 0.76577 0.0
H671 H 0.07373 0.77994 0.76239 0.0
H672 H 0.31651 0.12402 0.19664 0.0
H673 H 0.31282 0.15101 0.23596 0.0
H674 H 0.24516 0.23155 0.21069 0.0
H675 H 0.24847 0.20466 0.17171 0.0
H676 H 0.35353 0.24153 0.25689 0.0
H677 H 0.15303 0.16116 0.26263 0.0
H678 H 0.1814 0.14525 0.23984 0.0
H679 H 0.1792 0.20161 0.2386 0.0
C680 C 0.30033 0.14705 0.19939 0.0
C681 C 0.28245 0.16141 0.18048 0.0
C682 C 0.29836 0.16282 0.22211 0.0
C683 C 0.27781 0.19307 0.22702 0.0
C684 C 0.2601 0.2074 0.20809 0.0
H685 H 0.23598 0.33279 0.35343 0.0
H686 H 0.23738 0.30479 0.31401 0.0
C687 C 0.26235 0.192 0.18545 0.0
C688 C 0.27628 0.21086 0.25151 0.0
H689 H 0.2001 0.21751 0.29221 0.0
C690 C 0.31973 0.23581 0.26453 0.0
C691 C 0.23267 0.20444 0.2621 0.0
C692 C 0.18383 0.17626 0.2502 0.0
C693 C 0.32107 0.25495 0.28691 0.0
C694 C 0.27742 0.24833 0.29758 0.0
C695 C 0.23393 0.22334 0.28456 0.0
C696 C 0.27613 0.26596 0.32215 0.0
C697 C 0.37017 0.2838 0.29855 0.0
C698 C 0.29634 0.25346 0.34071 0.0
C699 C 0.29568 0.26965 0.36332 0.0
C700 C 0.27455 0.29912 0.36875 0.0
C701 C 0.2534 0.31102 0.35029 0.0
C702 C 0.25398 0.29459 0.32753 0.0
H703 H 0.40054 0.29989 0.2859 0.0
H704 H 0.37224 0.31423 0.30925 0.0
H705 H 0.37604 0.25861 0.3097 0.0
H706 H 0.31219 0.23019 0.33785 0.0
H707 H 0.31173 0.25849 0.37671 0.0
H708 H 0.27215 0.31939 0.52686 0.0
H709 H 0.24082 0.31187 0.56613 0.0
H710 H 0.12837 0.33971 0.54171 0.0
H711 H 0.15987 0.348 0.50255 0.0
H712 H 0.22732 0.38259 0.59412 0.0
H713 H 0.04987 0.21069 0.57984 0.0
H714 H 0.10126 0.23021 0.56064 0.0
H715 H 0.06502 0.25974 0.55978 0.0
C716 C 0.2408 0.32407 0.52974 0.0
C717 C 0.21892 0.33444 0.51108 0.0
C718 C 0.22274 0.3197 0.55241 0.0
C719 C 0.18142 0.32446 0.55734 0.0
C720 C 0.15968 0.33501 0.53875 0.0
H721 H 0.00769 0.28729 0.68482 0.0
H722 H 0.03678 0.29593 0.64497 0.0
C723 C 0.17815 0.34013 0.51616 0.0
C724 C 0.16174 0.31928 0.58177 0.0
H725 H 0.06151 0.24896 0.61602 0.0
C726 C 0.19109 0.35317 0.59883 0.0
C727 C 0.11413 0.2815 0.58838 0.0
C728 C 0.08065 0.24311 0.57133 0.0
C729 C 0.17437 0.35098 0.6217 0.0
C730 C 0.1271 0.31238 0.62857 0.0
C731 C 0.09764 0.27861 0.61138 0.0
C732 C 0.10819 0.30617 0.65331 0.0
C733 C 0.20739 0.3917 0.63798 0.0
C734 C 0.13713 0.30749 0.67198 0.0
C735 C 0.12077 0.30339 0.69484 0.0
C736 C 0.07409 0.29661 0.7003 0.0
C737 C 0.04405 0.29314 0.68166 0.0
C738 C 0.06082 0.29796 0.65865 0.0
H739 H 0.23238 0.42621 0.62864 0.0
H740 H 0.18604 0.40009 0.65052 0.0
H741 H 0.23053 0.38026 0.64741 0.0
H742 H 0.17272 0.31137 0.66896 0.0
H743 H 0.14497 0.30499 0.70835 0.0
H744 H 0.90664 0.20657 0.83821 0.0
H745 H 0.88287 0.17994 0.8779 0.0
H746 H 0.03271 0.22493 0.89404 0.0
H747 H 0.05684 0.25376 0.85474 0.0
H748 H 0.87864 0.11417 0.90456 0.0
H749 H 0.0114 0.2881 0.94707 0.0
H750 H 0.00305 0.28397 0.9165 0.0
H751 H 0.04221 0.26461 0.92981 0.0
C752 C 0.9348 0.21139 0.85022 0.0
C753 C -0.01598 0.23317 0.84289 0.0
C754 C 0.92102 0.1958 0.87316 0.0
C755 C 0.95573 0.20098 0.88983 0.0
C756 C 0.00479 0.22175 0.88231 0.0
H757 H 0.85922 0.03331 1.02245 0.0
H758 H 0.88286 0.05768 0.98249 0.0
C759 C 0.0187 0.23802 0.85948 0.0
C760 C 0.94041 0.18387 0.91464 0.0
H761 H 0.97055 0.2177 0.97108 0.0
C762 C 0.89886 0.1372 0.91901 0.0
C763 C 0.96546 0.21331 0.93412 0.0
C764 C 0.00763 0.26544 0.93168 0.0
C765 C 0.88235 0.11942 0.94159 0.0
C766 C 0.9087 0.14797 0.96106 0.0
C767 C 0.95001 0.19479 0.95665 0.0
C768 C 0.89343 0.13151 0.98595 0.0
C769 C 0.83547 0.07069 0.94411 0.0
C770 C 0.89256 0.16448 1.00231 0.0
C771 C 0.88014 0.15082 1.02547 0.0
C772 C 0.86745 0.10328 1.03347 0.0
C773 C 0.86783 0.06994 1.01717 0.0
C774 C 0.88117 0.08397 0.99399 0.0
H775 H 0.81191 0.0618 0.9287 0.0
H776 H 0.84436 0.0408 0.94618 0.0
H777 H 0.81416 0.07078 0.95924 0.0
H778 H 0.90156 0.20132 0.9972 0.0
H779 H 0.88063 0.17796 1.03721 0.0
H780 H 0.8773 0.10031 0.19308 0.0
H781 H 0.88642 0.07558 0.23201 0.0
H782 H 0.85496 0.93357 0.20619 0.0
H783 H 0.84504 0.95747 0.16764 0.0
H784 H 0.81531 0.98889 0.25995 0.0
H785 H -0.01534 0.98178 0.24315 0.0
H786 H 0.96537 0.01559 0.22505 0.0
H787 H 0.93583 0.94951 0.22287 0.0
C788 C 0.87231 0.06379 0.1956 0.0
C789 C 0.86029 0.03121 0.17672 0.0
C790 C 0.87754 0.04951 0.21807 0.0
C791 C 0.87206 0.00253 0.22252 0.0
C792 C 0.86019 0.97018 0.20367 0.0
H793 H 0.90786 0.8509 0.34462 0.0
H794 H 0.90009 0.87688 0.30578 0.0
C795 C 0.85421 0.98405 0.18138 0.0
C796 C 0.87768 0.98672 0.24664 0.0
H797 H 0.94627 0.95136 0.27889 0.0
C798 C 0.84424 0.98108 0.26404 0.0
C799 C 0.9147 0.97534 0.25244 0.0
C800 C 0.95253 0.9811 0.23503 0.0
C801 C 0.84605 0.96386 0.28638 0.0
C802 C 0.88379 0.95339 0.29244 0.0
C803 C 0.91723 0.95907 0.27492 0.0
C804 C 0.8893 0.93715 0.31662 0.0
C805 C 0.80565 0.95504 0.3029 0.0
C806 C 0.88733 0.96221 0.33642 0.0
C807 C 0.89073 0.94661 0.3587 0.0
C808 C 0.89773 0.9059 0.36249 0.0
C809 C 0.90191 0.88192 0.34276 0.0
C810 C 0.89757 0.8971 0.32032 0.0
H811 H 0.7717 0.94723 0.2937 0.0
H812 H 0.79673 0.92358 0.31446 0.0
H813 H 0.8173 0.98881 0.31338 0.0
H814 H 0.88351 -0.00545 0.33477 0.0
H815 H 0.88853 0.96733 0.37311 0.0
H816 H -0.00332 0.83739 0.50002 0.0
H817 H 0.02755 0.84416 0.53929 0.0
H818 H 0.95861 0.92761 0.55907 0.0
H819 H 0.92836 0.9215 0.51996 0.0
H820 H -0.01121 0.81412 0.58084 0.0
H821 H 0.09033 0.01784 0.5856 0.0
H822 H 0.02673 -0.00634 0.5793 0.0
H823 H 0.06511 0.9851 0.55909 0.0
C824 C -0.01201 0.8573 0.51264 0.0
C825 C 0.95974 0.87897 0.5062 0.0
C826 C 0.00587 0.86122 0.53539 0.0
C827 C -0.00307 0.88748 0.55278 0.0
C828 C 0.96796 0.90833 0.5464 0.0
H829 H 0.17091 0.96273 0.68357 0.0
H830 H 0.14412 0.95657 0.64347 0.0
C831 C 0.94999 0.90432 0.52373 0.0
C832 C 0.01684 0.89219 0.57737 0.0
H833 H 0.0801 0.97549 0.6208 0.0
C834 C 0.00882 0.84963 0.58939 0.0
C835 C 0.04407 0.93822 0.58918 0.0
C836 C 0.05757 0.98636 0.57759 0.0
C837 C 0.02556 0.85151 0.61227 0.0
C838 C 0.05115 0.89731 0.62438 0.0
C839 C 0.06028 0.94002 0.61218 0.0
C840 C 0.06826 0.90142 0.64945 0.0
C841 C 0.0164 0.80393 0.62307 0.0
C842 C 0.03537 0.87348 0.6671 0.0
C843 C 0.05077 0.87702 0.69018 0.0
C844 C 0.09996 0.90873 0.69698 0.0
C845 C 0.13295 0.93723 0.6794 0.0
C846 C 0.11737 0.93387 0.65622 0.0
H847 H 0.01096 0.77584 0.60992 0.0
H848 H 0.04727 0.81002 0.63432 0.0
H849 H -0.0174 0.78858 0.63358 0.0
H850 H -0.00291 0.84908 0.66313 0.0
H851 H 0.02355 0.8547 0.70284 0.0
H852 H 0.10599 0.92138 0.8548 0.0
H853 H 0.12584 0.94477 0.89514 0.0
H854 H 0.27626 0.04405 0.87691 0.0
H855 H 0.25674 0.01991 0.83659 0.0
H856 H 0.27687 0.00146 0.91538 0.0
H857 H 0.14147 0.06169 0.92922 0.0
H858 H 0.11323 -0.00155 0.92014 0.0
H859 H 0.15433 0.04685 0.90113 0.0
C860 C 0.1434 0.94832 0.85922 0.0
C861 C 0.17943 0.9686 0.84182 0.0
C862 C 0.1548 0.96224 0.88259 0.0
C863 C 0.20272 -0.00248 0.88979 0.0
C864 C 0.23887 0.01711 0.87244 0.0
H865 H 0.27447 0.15519 1.02391 0.0
H866 H 0.25474 0.12813 0.98403 0.0
C867 C 0.22751 0.00317 0.84907 0.0
C868 C 0.2154 0.0134 0.91507 0.0
H869 H 0.18133 0.05563 0.96244 0.0
C870 C 0.25573 0.01328 0.92552 0.0
C871 C 0.18909 0.02993 0.92895 0.0
C872 C 0.14746 0.03479 0.91927 0.0
C873 C 0.26968 0.02807 0.94875 0.0
C874 C 0.24243 0.04312 0.96283 0.0
C875 C 0.2025 0.04385 0.95229 0.0
C876 C 0.25546 0.05975 0.98801 0.0
C877 C 0.31483 0.02881 0.95768 0.0
C878 C 0.26255 0.03101 1.00461 0.0
C879 C 0.27427 0.0468 1.0278 0.0
C880 C 0.2792 0.092 1.03558 0.0
C881 C 0.27167 0.12043 1.01901 0.0
C882 C 0.25998 0.10467 0.99589 0.0
H883 H 0.33952 0.03118 0.94354 0.0
H884 H 0.33569 0.06045 0.96951 0.0
H885 H 0.30375 -0.00593 0.96713 0.0
H886 H 0.25815 -0.00444 0.9998 0.0
H887 H 0.27884 0.02304 1.03974 0.0
loop_
_geom_bond_atom_site_label_1
_geom_bond_atom_site_label_2
_geom_bond_distance
_geom_bond_site_symmetry_2
_ccdc_geom_bond_type
Tb0 C2 2.809 . S
Tb0 O20 2.484 . S
Tb0 O21 2.440 . S
Tb0 O22 2.628 1_554 S
Tb0 O23 2.409 . S
Tb0 O24 2.378 . S
Tb0 O28 2.325 . S
Tb0 O31 2.341 1_554 S
Tb1 C11 2.809 . S
Tb1 O22 2.337 . S
Tb1 O25 2.341 1_556 S
Tb1 O26 2.484 . S
Tb1 O27 2.440 . S
Tb1 O28 2.658 1_556 S
Tb1 O29 2.409 . S
Tb1 O30 2.378 . S
C2 Tb0 2.809 . S
C2 C3 1.514 . S
C2 O20 1.248 . S
C2 O21 1.266 . S
C3 C2 1.514 . S
C3 C4 1.359 . S
C3 C8 1.348 . S
C4 C3 1.359 . S
C4 C5 1.380 . S
C4 H32 0.929 . S
C5 C4 1.380 . S
C5 C6 1.347 . S
C5 H33 0.931 . S
C6 C5 1.347 . S
C6 C7 1.369 . S
C7 C6 1.369 . S
C7 C8 1.408 . S
C7 H34 0.930 . S
C8 C3 1.348 . S
C8 C7 1.408 . S
C8 H35 0.930 . S
C9 O22 1.260 1_554 S
C9 O23 1.254 . S
C10 O24 1.236 . S
C10 O25 1.266 . S
C11 Tb1 2.809 . S
C11 C12 1.514 . S
C11 O26 1.248 . S
C11 O27 1.266 . S
C12 C11 1.514 . S
C12 C13 1.359 . S
C12 C17 1.348 . S
C13 C12 1.359 . S
C13 C14 1.380 . S
C13 H36 0.929 . S
C14 C13 1.380 . S
C14 C15 1.347 . S
C14 H37 0.931 . S
C15 C14 1.347 . S
C15 C16 1.369 . S
C16 C15 1.369 . S
C16 C17 1.408 . S
C16 H38 0.930 . S
C17 C12 1.348 . S
C17 C16 1.408 . S
C17 H39 0.930 . S
C18 O28 1.281 . S
C18 O29 1.254 1_554 S
C19 O30 1.236 . S
C19 O31 1.266 . S
O20 Tb0 2.484 . S
O20 C2 1.248 . S
O21 Tb0 2.440 . S
O21 C2 1.266 . S
O22 Tb0 2.628 1_556 S
O22 Tb1 2.337 . S
O22 C9 1.260 1_556 S
O23 Tb0 2.409 . S
O23 C9 1.254 . S
O24 Tb0 2.378 . S
O24 C10 1.236 . S
O25 Tb1 2.341 1_554 S
O25 C10 1.266 . S
O26 Tb1 2.484 . S
O26 C11 1.248 . S
O27 Tb1 2.440 . S
O27 C11 1.266 . S
O28 Tb0 2.325 . S
O28 Tb1 2.658 1_554 S
O28 C18 1.281 . S
O29 Tb1 2.409 . S
O29 C18 1.254 1_556 S
O30 Tb1 2.378 . S
O30 C19 1.236 . S
O31 Tb0 2.341 1_556 S
O31 C19 1.266 . S
H32 C4 0.929 . S
H33 C5 0.931 . S
H34 C7 0.930 . S
H35 C8 0.930 . S
H36 C13 0.929 . S
H37 C14 0.931 . S
H38 C16 0.930 . S
H39 C17 0.930 . S
Tb40 C42 2.809 . S
Tb40 O60 2.484 . S
Tb40 O61 2.440 . S
Tb40 O62 2.658 . S
Tb40 O63 2.409 . S
Tb40 O64 2.378 . S
Tb40 O68 2.325 . S
Tb40 O71 2.341 . S
Tb41 C51 2.809 . S
Tb41 O62 2.325 . S
Tb41 O65 2.341 . S
Tb41 O66 2.484 . S
Tb41 O67 2.440 . S
Tb41 O68 2.658 . S
Tb41 O69 2.409 . S
Tb41 O70 2.378 . S
C42 Tb40 2.809 . S
C42 C43 1.514 . S
C42 O60 1.248 . S
C42 O61 1.266 . S
C43 C42 1.514 . S
C43 C44 1.359 . S
C43 C48 1.348 . S
C44 C43 1.359 . S
C44 C45 1.380 . S
C44 H72 0.929 . S
C45 C44 1.380 . S
C45 C46 1.347 . S
C45 H73 0.931 . S
C46 C45 1.347 . S
C46 C47 1.369 . S
C47 C46 1.369 . S
C47 C48 1.408 . S
C47 H74 0.930 . S
C48 C43 1.348 . S
C48 C47 1.408 . S
C48 H75 0.930 . S
C49 O62 1.281 . S
C49 O63 1.254 . S
C50 O64 1.236 . S
C50 O65 1.266 . S
C51 Tb41 2.809 . S
C51 C52 1.514 . S
C51 O66 1.248 . S
C51 O67 1.266 . S
C52 C51 1.514 . S
C52 C53 1.359 . S
C52 C57 1.348 . S
C53 C52 1.359 . S
C53 C54 1.380 . S
C53 H76 0.929 . S
C54 C53 1.380 . S
C54 C55 1.347 . S
C54 H77 0.931 . S
C55 C54 1.347 . S
C55 C56 1.369 . S
C56 C55 1.369 . S
C56 C57 1.408 . S
C56 H78 0.930 . S
C57 C52 1.348 . S
C57 C56 1.408 . S
C57 H79 0.930 . S
C58 O68 1.281 . S
C58 O69 1.254 . S
C59 O70 1.236 . S
C59 O71 1.266 . S
O60 Tb40 2.484 . S
O60 C42 1.248 . S
O61 Tb40 2.440 . S
O61 C42 1.266 . S
O62 Tb40 2.658 . S
O62 Tb41 2.325 . S
O62 C49 1.281 . S
O63 Tb40 2.409 . S
O63 C49 1.254 . S
O64 Tb40 2.378 . S
O64 C50 1.236 . S
O65 Tb41 2.341 . S
O65 C50 1.266 . S
O66 Tb41 2.484 . S
O66 C51 1.248 . S
O67 Tb41 2.440 . S
O67 C51 1.266 . S
O68 Tb40 2.325 . S
O68 Tb41 2.658 . S
O68 C58 1.281 . S
O69 Tb41 2.409 . S
O69 C58 1.254 . S
O70 Tb41 2.378 . S
O70 C59 1.236 . S
O71 Tb40 2.341 . S
O71 C59 1.266 . S
H72 C44 0.929 . S
H73 C45 0.931 . S
H74 C47 0.930 . S
H75 C48 0.930 . S
H76 C53 0.929 . S
H77 C54 0.931 . S
H78 C56 0.930 . S
H79 C57 0.930 . S
Tb80 C82 2.809 . S
Tb80 O100 2.484 . S
Tb80 O101 2.440 . S
Tb80 O102 2.666 . S
Tb80 O103 2.409 . S
Tb80 O104 2.388 . S
Tb80 O108 2.346 . S
Tb80 O111 2.341 . S
Tb81 C91 2.809 . S
Tb81 O102 2.301 1_655 S
Tb81 O105 2.341 . S
Tb81 O106 2.484 . S
Tb81 O107 2.440 . S
Tb81 O108 2.652 1_655 S
Tb81 O109 2.409 . S
Tb81 O110 2.364 1_655 S
C82 Tb80 2.809 . S
C82 C83 1.514 . S
C82 O100 1.248 . S
C82 O101 1.266 . S
C83 C82 1.514 . S
C83 C84 1.359 . S
C83 C88 1.348 . S
C84 C83 1.359 . S
C84 C85 1.380 . S
C84 H112 0.929 . S
C85 C84 1.380 . S
C85 C86 1.347 . S
C85 H113 0.931 . S
C86 C85 1.347 . S
C86 C87 1.369 . S
C87 C86 1.369 . S
C87 C88 1.408 . S
C87 H114 0.930 . S
C88 C83 1.348 . S
C88 C87 1.408 . S
C88 H115 0.930 . S
C89 O102 1.301 . S
C89 O103 1.254 . S
C90 O104 1.218 1_655 S
C90 O105 1.266 . S
C91 Tb81 2.809 . S
C91 C92 1.514 . S
C91 O106 1.248 . S
C91 O107 1.266 . S
C92 C91 1.514 . S
C92 C93 1.359 . S
C92 C97 1.348 . S
C93 C92 1.359 . S
C93 C94 1.380 . S
C93 H116 0.929 . S
C94 C93 1.380 . S
C94 C95 1.347 . S
C94 H117 0.931 . S
C95 C94 1.347 . S
C95 C96 1.369 . S
C96 C95 1.369 . S
C96 C97 1.408 . S
C96 H118 0.930 . S
C97 C92 1.348 . S
C97 C96 1.408 . S
C97 H119 0.930 . S
C98 O108 1.263 1_655 S
C98 O109 1.254 . S
C99 O110 1.263 . S
C99 O111 1.266 . S
O100 Tb80 2.484 . S
O100 C82 1.248 . S
O101 Tb80 2.440 . S
O101 C82 1.266 . S
O102 Tb80 2.666 . S
O102 Tb81 2.301 1_455 S
O102 C89 1.301 . S
O103 Tb80 2.409 . S
O103 C89 1.254 . S
O104 Tb80 2.388 . S
O104 C90 1.218 1_455 S
O105 Tb81 2.341 . S
O105 C90 1.266 . S
O106 Tb81 2.484 . S
O106 C91 1.248 . S
O107 Tb81 2.440 . S
O107 C91 1.266 . S
O108 Tb80 2.346 . S
O108 Tb81 2.652 1_455 S
O108 C98 1.263 1_455 S
O109 Tb81 2.409 . S
O109 C98 1.254 . S
O110 Tb81 2.364 1_455 S
O110 C99 1.263 . S
O111 Tb80 2.341 . S
O111 C99 1.266 . S
H112 C84 0.929 . S
H113 C85 0.931 . S
H114 C87 0.930 . S
H115 C88 0.930 . S
H116 C93 0.929 . S
H117 C94 0.931 . S
H118 C96 0.930 . S
H119 C97 0.930 . S
Tb120 C122 2.809 . S
Tb120 O140 2.484 . S
Tb120 O141 2.440 . S
Tb120 O142 2.628 1_554 S
Tb120 O143 2.409 . S
Tb120 O144 2.378 . S
Tb120 O148 2.325 . S
Tb120 O151 2.341 1_554 S
Tb121 C131 2.809 . S
Tb121 O142 2.338 1_565 S
Tb121 O145 2.341 1_556 S
Tb121 O146 2.484 . S
Tb121 O147 2.440 . S
Tb121 O148 2.658 1_566 S
Tb121 O149 2.409 . S
Tb121 O150 2.378 1_565 S
C122 Tb120 2.809 . S
C122 C123 1.514 . S
C122 O140 1.248 . S
C122 O141 1.266 . S
C123 C122 1.514 . S
C123 C124 1.359 . S
C123 C128 1.348 . S
C124 C123 1.359 . S
C124 C125 1.380 . S
C124 H152 0.929 . S
C125 C124 1.380 . S
C125 C126 1.347 . S
C125 H153 0.931 . S
C126 C125 1.347 . S
C126 C127 1.369 . S
C127 C126 1.369 . S
C127 C128 1.408 . S
C127 H154 0.930 . S
C128 C123 1.348 . S
C128 C127 1.408 . S
C128 H155 0.930 . S
C129 O142 1.260 1_554 S
C129 O143 1.254 . S
C130 O144 1.236 1_565 S
C130 O145 1.266 . S
C131 Tb121 2.809 . S
C131 C132 1.514 . S
C131 O146 1.248 . S
C131 O147 1.266 . S
C132 C131 1.514 . S
C132 C133 1.359 . S
C132 C137 1.348 . S
C133 C132 1.359 . S
C133 C134 1.380 . S
C133 H156 0.929 . S
C134 C133 1.380 . S
C134 C135 1.347 . S
C134 H157 0.931 . S
C135 C134 1.347 . S
C135 C136 1.369 . S
C136 C135 1.369 . S
C136 C137 1.408 . S
C136 H158 0.930 . S
C137 C132 1.348 . S
C137 C136 1.408 . S
C137 H159 0.930 . S
C138 O148 1.281 1_565 S
C138 O149 1.254 1_554 S
C139 O150 1.236 . S
C139 O151 1.266 . S
O140 Tb120 2.484 . S
O140 C122 1.248 . S
O141 Tb120 2.440 . S
O141 C122 1.266 . S
O142 Tb120 2.628 1_556 S
O142 Tb121 2.338 1_545 S
O142 C129 1.260 1_556 S
O143 Tb120 2.409 . S
O143 C129 1.254 . S
O144 Tb120 2.378 . S
O144 C130 1.236 1_545 S
O145 Tb121 2.341 1_554 S
O145 C130 1.266 . S
O146 Tb121 2.484 . S
O146 C131 1.248 . S
O147 Tb121 2.440 . S
O147 C131 1.266 . S
O148 Tb120 2.325 . S
O148 Tb121 2.658 1_544 S
O148 C138 1.281 1_545 S
O149 Tb121 2.409 . S
O149 C138 1.254 1_556 S
O150 Tb121 2.378 1_545 S
O150 C139 1.236 . S
O151 Tb120 2.341 1_556 S
O151 C139 1.266 . S
H152 C124 0.929 . S
H153 C125 0.931 . S
H154 C127 0.930 . S
H155 C128 0.930 . S
H156 C133 0.929 . S
H157 C134 0.931 . S
H158 C136 0.930 . S
H159 C137 0.930 . S
Tb160 C162 2.809 . S
Tb160 O180 2.484 . S
Tb160 O181 2.440 . S
Tb160 O182 2.658 . S
Tb160 O183 2.409 . S
Tb160 O184 2.378 . S
Tb160 O188 2.325 . S
Tb160 O191 2.341 . S
Tb161 C171 2.809 . S
Tb161 O182 2.325 . S
Tb161 O185 2.341 . S
Tb161 O186 2.484 1_655 S
Tb161 O187 2.440 . S
Tb161 O188 2.658 . S
Tb161 O189 2.409 . S
Tb161 O190 2.378 . S
C162 Tb160 2.809 . S
C162 C163 1.514 . S
C162 O180 1.248 . S
C162 O181 1.266 . S
C163 C162 1.514 . S
C163 C164 1.359 . S
C163 C168 1.348 . S
C164 C163 1.359 . S
C164 C165 1.380 . S
C164 H192 0.929 . S
C165 C164 1.380 . S
C165 C166 1.347 . S
C165 H193 0.931 . S
C166 C165 1.347 . S
C166 C167 1.369 . S
C167 C166 1.369 . S
C167 C168 1.408 . S
C167 H194 0.930 . S
C168 C163 1.348 . S
C168 C167 1.408 . S
C168 H195 0.930 . S
C169 O182 1.281 1_455 S
C169 O183 1.254 1_455 S
C170 O184 1.236 . S
C170 O185 1.266 . S
C171 Tb161 2.809 . S
C171 C172 1.514 1_655 S
C171 O186 1.248 1_655 S
C171 O187 1.266 . S
C172 C171 1.514 1_455 S
C172 C173 1.359 . S
C172 C177 1.348 1_455 S
C173 C172 1.359 . S
C173 C174 1.380 . S
C173 H196 0.929 . S
C174 C173 1.380 . S
C174 C175 1.347 . S
C174 H197 0.931 . S
C175 C174 1.347 . S
C175 C176 1.369 . S
C176 C175 1.369 . S
C176 C177 1.408 1_455 S
C176 H198 0.930 1_455 S
C177 C172 1.348 1_655 S
C177 C176 1.408 1_655 S
C177 H199 0.930 . S
C178 O188 1.281 . S
C178 O189 1.254 . S
C179 O190 1.236 . S
C179 O191 1.266 . S
O180 Tb160 2.484 . S
O180 C162 1.248 . S
O181 Tb160 2.440 . S
O181 C162 1.266 . S
O182 Tb160 2.658 . S
O182 Tb161 2.325 . S
O182 C169 1.281 1_655 S
O183 Tb160 2.409 . S
O183 C169 1.254 1_655 S
O184 Tb160 2.378 . S
O184 C170 1.236 . S
O185 Tb161 2.341 . S
O185 C170 1.266 . S
O186 Tb161 2.484 1_455 S
O186 C171 1.248 1_455 S
O187 Tb161 2.440 . S
O187 C171 1.266 . S
O188 Tb160 2.325 . S
O188 Tb161 2.658 . S
O188 C178 1.281 . S
O189 Tb161 2.409 . S
O189 C178 1.254 . S
O190 Tb161 2.378 . S
O190 C179 1.236 . S
O191 Tb160 2.341 . S
O191 C179 1.266 . S
H192 C164 0.929 . S
H193 C165 0.931 . S
H194 C167 0.930 . S
H195 C168 0.930 . S
H196 C173 0.929 . S
H197 C174 0.931 . S
H198 C176 0.930 1_655 S
H199 C177 0.930 . S
Tb200 C202 2.809 . S
Tb200 O220 2.484 . S
Tb200 O221 2.440 . S
Tb200 O222 2.658 . S
Tb200 O223 2.409 . S
Tb200 O224 2.378 . S
Tb200 O228 2.325 . S
Tb200 O231 2.341 . S
Tb201 C211 2.809 1_565 S
Tb201 O222 2.325 . S
Tb201 O225 2.341 . S
Tb201 O226 2.484 1_565 S
Tb201 O227 2.440 . S
Tb201 O228 2.658 . S
Tb201 O229 2.409 . S
Tb201 O230 2.378 . S
C202 Tb200 2.809 . S
C202 C203 1.514 . S
C202 O220 1.248 . S
C202 O221 1.266 . S
C203 C202 1.514 . S
C203 C204 1.359 . S
C203 C208 1.348 . S
C204 C203 1.359 . S
C204 C205 1.380 . S
C204 H232 0.929 . S
C205 C204 1.380 . S
C205 C206 1.347 . S
C205 H233 0.931 . S
C206 C205 1.347 . S
C206 C207 1.369 . S
C207 C206 1.369 . S
C207 C208 1.408 . S
C207 H234 0.930 . S
C208 C203 1.348 . S
C208 C207 1.408 . S
C208 H235 0.930 . S
C209 O222 1.281 1_545 S
C209 O223 1.254 1_545 S
C210 O224 1.236 . S
C210 O225 1.266 . S
C211 Tb201 2.809 1_545 S
C211 C212 1.514 . S
C211 O226 1.248 . S
C211 O227 1.266 1_545 S
C212 C211 1.514 . S
C212 C213 1.359 . S
C212 C217 1.348 . S
C213 C212 1.359 . S
C213 C214 1.380 . S
C213 H236 0.929 . S
C214 C213 1.380 . S
C214 C215 1.347 . S
C214 H237 0.931 . S
C215 C214 1.347 . S
C215 C216 1.369 . S
C216 C215 1.369 . S
C216 C217 1.408 . S
C216 H238 0.930 . S
C217 C212 1.348 . S
C217 C216 1.408 . S
C217 H239 0.930 1_545 S
C218 O228 1.281 . S
C218 O229 1.254 . S
C219 O230 1.236 . S
C219 O231 1.266 . S
O220 Tb200 2.484 . S
O220 C202 1.248 . S
O221 Tb200 2.440 . S
O221 C202 1.266 . S
O222 Tb200 2.658 . S
O222 Tb201 2.325 . S
O222 C209 1.281 1_565 S
O223 Tb200 2.409 . S
O223 C209 1.254 1_565 S
O224 Tb200 2.378 . S
O224 C210 1.236 . S
O225 Tb201 2.341 . S
O225 C210 1.266 . S
O226 Tb201 2.484 1_545 S
O226 C211 1.248 . S
O227 Tb201 2.440 . S
O227 C211 1.266 1_565 S
O228 Tb200 2.325 . S
O228 Tb201 2.658 . S
O228 C218 1.281 . S
O229 Tb201 2.409 . S
O229 C218 1.254 . S
O230 Tb201 2.378 . S
O230 C219 1.236 . S
O231 Tb200 2.341 . S
O231 C219 1.266 . S
H232 C204 0.929 . S
H233 C205 0.931 . S
H234 C207 0.930 . S
H235 C208 0.930 . S
H236 C213 0.929 . S
H237 C214 0.931 . S
H238 C216 0.930 . S
H239 C217 0.930 1_565 S
H240 C248 0.929 . S
H241 C250 0.930 . S
H242 C252 0.930 . S
H243 C255 0.929 . S
H244 C258 0.930 . S
H245 C260 0.960 . S
H246 C260 0.960 . S
H247 C260 0.960 1_556 S
C248 H240 0.929 . S
C248 C249 1.377 . S
C248 C250 1.384 1_565 S
C249 C248 1.377 . S
C249 C255 1.390 1_564 S
C250 H241 0.930 . S
C250 C248 1.384 1_545 S
C250 C251 1.372 . S
C251 C250 1.372 . S
C251 C252 1.400 1_554 S
C251 C256 1.490 1_655 S
C252 H242 0.930 . S
C252 C251 1.400 1_556 S
C252 C255 1.386 . S
H253 C269 0.930 . S
H254 C270 0.931 . S
C255 H243 0.929 . S
C255 C249 1.390 1_546 S
C255 C252 1.386 . S
C256 C251 1.490 1_455 S
C256 C258 1.395 . S
C256 C259 1.403 . S
H257 C263 0.930 . S
C258 H244 0.930 . S
C258 C256 1.395 . S
C258 C261 1.403 . S
C259 C256 1.403 . S
C259 C260 1.524 . S
C259 C263 1.400 . S
C260 H245 0.960 . S
C260 H246 0.960 . S
C260 H247 0.960 1_554 S
C260 C259 1.524 . S
C261 C258 1.403 . S
C261 C262 1.392 . S
C261 C265 1.495 . S
C262 C261 1.392 . S
C262 C263 1.385 . S
C262 C264 1.478 . S
C263 H257 0.930 . S
C263 C259 1.400 . S
C263 C262 1.385 . S
C264 C262 1.478 . S
C264 C266 1.381 . S
C264 C270 1.383 1_554 S
C265 C261 1.495 . S
C265 H271 0.959 . S
C265 H272 0.961 1_554 S
C265 H273 0.960 . S
C266 C264 1.381 . S
C266 C267 1.394 . S
C266 H274 0.930 . S
C267 C266 1.394 . S
C267 C268 1.383 . S
C267 H275 0.929 . S
C268 C267 1.383 . S
C268 C269 1.377 1_554 S
C269 H253 0.930 . S
C269 C268 1.377 1_556 S
C269 C270 1.379 . S
C270 H254 0.931 . S
C270 C264 1.383 1_556 S
C270 C269 1.379 . S
H271 C265 0.959 . S
H272 C265 0.961 1_556 S
H273 C265 0.960 . S
H274 C266 0.930 . S
H275 C267 0.929 . S
H276 C284 0.929 . S
H277 C286 0.930 1_545 S
H278 C288 0.930 . S
H279 C291 0.929 . S
H280 C294 0.930 . S
H281 C296 0.960 . S
H282 C296 0.960 . S
H283 C296 0.960 . S
C284 H276 0.929 . S
C284 C285 1.377 . S
C284 C286 1.384 . S
C285 C284 1.377 . S
C285 C291 1.390 1_455 S
C286 H277 0.930 1_565 S
C286 C284 1.384 . S
C286 C287 1.372 1_565 S
C287 C286 1.372 1_545 S
C287 C288 1.400 1_545 S
C287 C292 1.490 . S
C288 H278 0.930 . S
C288 C287 1.400 1_565 S
C288 C291 1.386 1_455 S
H289 C305 0.930 . S
H290 C306 0.931 . S
C291 H279 0.929 . S
C291 C285 1.390 1_655 S
C291 C288 1.386 1_655 S
C292 C287 1.490 . S
C292 C294 1.395 . S
C292 C295 1.403 . S
H293 C299 0.930 . S
C294 H280 0.930 . S
C294 C292 1.395 . S
C294 C297 1.403 . S
C295 C292 1.403 . S
C295 C296 1.524 . S
C295 C299 1.400 . S
C296 H281 0.960 . S
C296 H282 0.960 . S
C296 H283 0.960 . S
C296 C295 1.524 . S
C297 C294 1.403 . S
C297 C298 1.392 . S
C297 C301 1.495 . S
C298 C297 1.392 . S
C298 C299 1.385 . S
C298 C300 1.478 . S
C299 H293 0.930 . S
C299 C295 1.400 . S
C299 C298 1.385 . S
C300 C298 1.478 . S
C300 C302 1.381 . S
C300 C306 1.383 . S
C301 C297 1.495 . S
C301 H307 0.959 . S
C301 H308 0.961 . S
C301 H309 0.960 . S
C302 C300 1.381 . S
C302 C303 1.394 . S
C302 H310 0.930 . S
C303 C302 1.394 . S
C303 C304 1.383 . S
C303 H311 0.929 . S
C304 C303 1.383 . S
C304 C305 1.377 . S
C305 H289 0.930 . S
C305 C304 1.377 . S
C305 C306 1.379 . S
C306 H290 0.931 . S
C306 C300 1.383 . S
C306 C305 1.379 . S
H307 C301 0.959 . S
H308 C301 0.961 . S
H309 C301 0.960 . S
H310 C302 0.930 . S
H311 C303 0.929 . S
H312 C320 0.929 . S
H313 C322 0.930 1_565 S
H314 C324 0.930 . S
H315 C327 0.929 . S
H316 C330 0.930 . S
H317 C332 0.960 . S
H318 C332 0.960 . S
H319 C332 0.960 . S
C320 H312 0.929 . S
C320 C321 1.377 1_565 S
C320 C322 1.384 1_565 S
C321 C320 1.377 1_545 S
C321 C327 1.390 . S
C322 H313 0.930 1_545 S
C322 C320 1.384 1_545 S
C322 C323 1.372 . S
C323 C322 1.372 . S
C323 C324 1.400 . S
C323 C328 1.490 . S
C324 H314 0.930 . S
C324 C323 1.400 . S
C324 C327 1.386 . S
H325 C341 0.930 . S
H326 C342 0.931 . S
C327 H315 0.929 . S
C327 C321 1.390 . S
C327 C324 1.386 . S
C328 C323 1.490 . S
C328 C330 1.395 . S
C328 C331 1.403 . S
H329 C335 0.930 . S
C330 H316 0.930 . S
C330 C328 1.395 . S
C330 C333 1.403 . S
C331 C328 1.403 . S
C331 C332 1.524 . S
C331 C335 1.400 . S
C332 H317 0.960 . S
C332 H318 0.960 . S
C332 H319 0.960 . S
C332 C331 1.524 . S
C333 C330 1.403 . S
C333 C334 1.392 . S
C333 C337 1.495 . S
C334 C333 1.392 . S
C334 C335 1.385 . S
C334 C336 1.478 . S
C335 H329 0.930 . S
C335 C331 1.400 . S
C335 C334 1.385 . S
C336 C334 1.478 . S
C336 C338 1.381 1_455 S
C336 C342 1.383 . S
C337 C333 1.495 . S
C337 H343 0.959 . S
C337 H344 0.961 . S
C337 H345 0.960 1_455 S
C338 C336 1.381 1_655 S
C338 C339 1.394 . S
C338 H346 0.930 . S
C339 C338 1.394 . S
C339 C340 1.383 . S
C339 H347 0.929 . S
C340 C339 1.383 . S
C340 C341 1.377 1_655 S
C341 H325 0.930 . S
C341 C340 1.377 1_455 S
C341 C342 1.379 . S
C342 H326 0.931 . S
C342 C336 1.383 . S
C342 C341 1.379 . S
H343 C337 0.959 . S
H344 C337 0.961 . S
H345 C337 0.960 1_655 S
H346 C338 0.930 . S
H347 C339 0.929 . S
H348 C356 0.929 . S
H349 C358 0.930 . S
H350 C360 0.930 . S
H351 C363 0.929 . S
H352 C366 0.930 . S
H353 C368 0.960 . S
H354 C368 0.960 . S
H355 C368 0.960 . S
C356 H348 0.929 . S
C356 C357 1.377 . S
C356 C358 1.384 . S
C357 C356 1.377 . S
C357 C363 1.390 . S
C358 H349 0.930 . S
C358 C356 1.384 . S
C358 C359 1.372 . S
C359 C358 1.372 . S
C359 C360 1.400 . S
C359 C364 1.490 . S
C360 H350 0.930 . S
C360 C359 1.400 . S
C360 C363 1.386 . S
H361 C377 0.930 . S
H362 C378 0.931 . S
C363 H351 0.929 . S
C363 C357 1.390 . S
C363 C360 1.386 . S
C364 C359 1.490 . S
C364 C366 1.395 . S
C364 C367 1.403 . S
H365 C371 0.930 . S
C366 H352 0.930 . S
C366 C364 1.395 . S
C366 C369 1.403 . S
C367 C364 1.403 . S
C367 C368 1.524 . S
C367 C371 1.400 . S
C368 H353 0.960 . S
C368 H354 0.960 . S
C368 H355 0.960 . S
C368 C367 1.524 . S
C369 C366 1.403 . S
C369 C370 1.392 . S
C369 C373 1.495 . S
C370 C369 1.392 . S
C370 C371 1.385 . S
C370 C372 1.478 . S
C371 H365 0.930 . S
C371 C367 1.400 . S
C371 C370 1.385 . S
C372 C370 1.478 . S
C372 C374 1.381 . S
C372 C378 1.383 . S
C373 C369 1.495 . S
C373 H379 0.959 . S
C373 H380 0.961 . S
C373 H381 0.960 . S
C374 C372 1.381 . S
C374 C375 1.394 . S
C374 H382 0.930 . S
C375 C374 1.394 . S
C375 C376 1.383 . S
C375 H383 0.929 . S
C376 C375 1.383 . S
C376 C377 1.377 . S
C377 H361 0.930 . S
C377 C376 1.377 . S
C377 C378 1.379 . S
C378 H362 0.931 . S
C378 C372 1.383 . S
C378 C377 1.379 . S
H379 C373 0.959 . S
H380 C373 0.961 . S
H381 C373 0.960 . S
H382 C374 0.930 . S
H383 C375 0.929 . S
H384 C392 0.929 . S
H385 C394 0.930 . S
H386 C396 0.930 . S
H387 C399 0.929 . S
H388 C402 0.930 . S
H389 C404 0.960 . S
H390 C404 0.960 . S
H391 C404 0.960 . S
C392 H384 0.929 . S
C392 C393 1.377 . S
C392 C394 1.384 . S
C393 C392 1.377 . S
C393 C399 1.390 . S
C394 H385 0.930 . S
C394 C392 1.384 . S
C394 C395 1.372 . S
C395 C394 1.372 . S
C395 C396 1.400 . S
C395 C400 1.490 . S
C396 H386 0.930 . S
C396 C395 1.400 . S
C396 C399 1.386 . S
H397 C413 0.930 . S
H398 C414 0.931 . S
C399 H387 0.929 . S
C399 C393 1.390 . S
C399 C396 1.386 . S
C400 C395 1.490 . S
C400 C402 1.395 . S
C400 C403 1.403 . S
H401 C407 0.930 . S
C402 H388 0.930 . S
C402 C400 1.395 . S
C402 C405 1.403 . S
C403 C400 1.403 . S
C403 C404 1.524 . S
C403 C407 1.400 1_455 S
C404 H389 0.960 . S
C404 H390 0.960 . S
C404 H391 0.960 . S
C404 C403 1.524 . S
C405 C402 1.403 . S
C405 C406 1.392 1_455 S
C405 C409 1.495 1_455 S
C406 C405 1.392 1_655 S
C406 C407 1.385 . S
C406 C408 1.478 . S
C407 H401 0.930 . S
C407 C403 1.400 1_655 S
C407 C406 1.385 . S
C408 C406 1.478 . S
C408 C410 1.381 . S
C408 C414 1.383 . S
C409 C405 1.495 1_655 S
C409 H415 0.959 1_655 S
C409 H416 0.961 1_655 S
C409 H417 0.960 . S
C410 C408 1.381 . S
C410 C411 1.394 . S
C410 H418 0.930 . S
C411 C410 1.394 . S
C411 C412 1.383 . S
C411 H419 0.929 . S
C412 C411 1.383 . S
C412 C413 1.377 . S
C413 H397 0.930 . S
C413 C412 1.377 . S
C413 C414 1.379 . S
C414 H398 0.931 . S
C414 C408 1.383 . S
C414 C413 1.379 . S
H415 C409 0.959 1_455 S
H416 C409 0.961 1_455 S
H417 C409 0.960 . S
H418 C410 0.930 . S
H419 C411 0.929 . S
H420 C428 0.929 . S
H421 C430 0.930 . S
H422 C432 0.930 . S
H423 C435 0.929 . S
H424 C438 0.930 . S
H425 C440 0.960 . S
H426 C440 0.960 . S
H427 C440 0.960 . S
C428 H420 0.929 . S
C428 C429 1.377 . S
C428 C430 1.384 . S
C429 C428 1.377 . S
C429 C435 1.390 . S
C430 H421 0.930 . S
C430 C428 1.384 . S
C430 C431 1.372 . S
C431 C430 1.372 . S
C431 C432 1.400 . S
C431 C436 1.490 . S
C432 H422 0.930 . S
C432 C431 1.400 . S
C432 C435 1.386 . S
H433 C449 0.930 . S
H434 C450 0.931 . S
C435 H423 0.929 . S
C435 C429 1.390 . S
C435 C432 1.386 . S
C436 C431 1.490 . S
C436 C438 1.395 . S
C436 C439 1.403 . S
H437 C443 0.930 1_565 S
C438 H424 0.930 . S
C438 C436 1.395 . S
C438 C441 1.403 . S
C439 C436 1.403 . S
C439 C440 1.524 . S
C439 C443 1.400 . S
C440 H425 0.960 . S
C440 H426 0.960 . S
C440 H427 0.960 . S
C440 C439 1.524 . S
C441 C438 1.403 . S
C441 C442 1.392 1_545 S
C441 C445 1.495 1_545 S
C442 C441 1.392 1_565 S
C442 C443 1.385 1_565 S
C442 C444 1.478 . S
C443 H437 0.930 1_545 S
C443 C439 1.400 . S
C443 C442 1.385 1_545 S
C444 C442 1.478 . S
C444 C446 1.381 . S
C444 C450 1.383 . S
C445 C441 1.495 1_565 S
C445 H451 0.959 1_565 S
C445 H452 0.961 1_565 S
C445 H453 0.960 . S
C446 C444 1.381 . S
C446 C447 1.394 . S
C446 H454 0.930 . S
C447 C446 1.394 . S
C447 C448 1.383 . S
C447 H455 0.929 . S
C448 C447 1.383 . S
C448 C449 1.377 . S
C449 H433 0.930 . S
C449 C448 1.377 . S
C449 C450 1.379 . S
C450 H434 0.931 . S
C450 C444 1.383 . S
C450 C449 1.379 . S
H451 C445 0.959 1_545 S
H452 C445 0.961 1_545 S
H453 C445 0.960 . S
H454 C446 0.930 . S
H455 C447 0.929 . S
H456 C464 0.929 . S
H457 C466 0.930 . S
H458 C468 0.930 . S
H459 C471 0.929 . S
H460 C474 0.930 . S
H461 C476 0.960 . S
H462 C476 0.960 . S
H463 C476 0.960 . S
C464 H456 0.929 . S
C464 C465 1.377 . S
C464 C466 1.384 . S
C465 C464 1.377 . S
C465 C471 1.390 . S
C466 H457 0.930 . S
C466 C464 1.384 . S
C466 C467 1.372 . S
C467 C466 1.372 . S
C467 C468 1.400 . S
C467 C472 1.490 . S
C468 H458 0.930 . S
C468 C467 1.400 . S
C468 C471 1.386 . S
H469 C485 0.930 . S
H470 C486 0.931 . S
C471 H459 0.929 . S
C471 C465 1.390 . S
C471 C468 1.386 . S
C472 C467 1.490 . S
C472 C474 1.395 . S
C472 C475 1.403 . S
H473 C479 0.930 . S
C474 H460 0.930 . S
C474 C472 1.395 . S
C474 C477 1.403 . S
C475 C472 1.403 . S
C475 C476 1.524 . S
C475 C479 1.400 . S
C476 H461 0.960 . S
C476 H462 0.960 . S
C476 H463 0.960 . S
C476 C475 1.524 . S
C477 C474 1.403 . S
C477 C478 1.392 . S
C477 C481 1.495 . S
C478 C477 1.392 . S
C478 C479 1.385 . S
C478 C480 1.478 . S
C479 H473 0.930 . S
C479 C475 1.400 . S
C479 C478 1.385 . S
C480 C478 1.478 . S
C480 C482 1.381 . S
C480 C486 1.383 1_655 S
C481 C477 1.495 . S
C481 H487 0.959 . S
C481 H488 0.961 . S
C481 H489 0.960 . S
C482 C480 1.381 . S
C482 C483 1.394 1_655 S
C482 H490 0.930 . S
C483 C482 1.394 1_455 S
C483 C484 1.383 . S
C483 H491 0.927 . S
C484 C483 1.383 . S
C484 C485 1.377 . S
C485 H469 0.930 . S
C485 C484 1.377 . S
C485 C486 1.379 . S
C486 H470 0.931 . S
C486 C480 1.383 1_455 S
C486 C485 1.379 . S
H487 C481 0.959 . S
H488 C481 0.961 . S
H489 C481 0.960 . S
H490 C482 0.930 . S
H491 C483 0.927 . S
H492 C500 0.929 1_655 S
H493 C502 0.930 . S
H494 C504 0.930 . S
H495 C507 0.929 . S
H496 C510 0.930 . S
H497 C512 0.960 . S
H498 C512 0.960 . S
H499 C512 0.960 . S
C500 H492 0.929 1_455 S
C500 C501 1.377 . S
C500 C502 1.384 . S
C501 C500 1.377 . S
C501 C507 1.390 . S
C502 H493 0.930 . S
C502 C500 1.384 . S
C502 C503 1.372 . S
C503 C502 1.372 . S
C503 C504 1.400 . S
C503 C508 1.490 . S
C504 H494 0.930 . S
C504 C503 1.400 . S
C504 C507 1.386 . S
H505 C521 0.930 . S
H506 C522 0.931 . S
C507 H495 0.929 . S
C507 C501 1.390 . S
C507 C504 1.386 . S
C508 C503 1.490 . S
C508 C510 1.395 . S
C508 C511 1.403 . S
H509 C515 0.930 . S
C510 H496 0.930 . S
C510 C508 1.395 . S
C510 C513 1.403 . S
C511 C508 1.403 . S
C511 C512 1.524 . S
C511 C515 1.400 . S
C512 H497 0.960 . S
C512 H498 0.960 . S
C512 H499 0.960 . S
C512 C511 1.524 . S
C513 C510 1.403 . S
C513 C514 1.392 . S
C513 C517 1.495 1_565 S
C514 C513 1.392 . S
C514 C515 1.385 . S
C514 C516 1.478 1_565 S
C515 H509 0.930 . S
C515 C511 1.400 . S
C515 C514 1.385 . S
C516 C514 1.478 1_545 S
C516 C518 1.381 . S
C516 C522 1.383 . S
C517 C513 1.495 1_545 S
C517 H523 0.959 . S
C517 H524 0.961 . S
C517 H525 0.960 . S
C518 C516 1.381 . S
C518 C519 1.394 . S
C518 H526 0.930 1_545 S
C519 C518 1.394 . S
C519 C520 1.383 . S
C519 H527 0.929 . S
C520 C519 1.383 . S
C520 C521 1.377 . S
C521 H505 0.930 . S
C521 C520 1.377 . S
C521 C522 1.379 . S
C522 H506 0.931 . S
C522 C516 1.383 . S
C522 C521 1.379 . S
H523 C517 0.959 . S
H524 C517 0.961 . S
H525 C517 0.960 . S
H526 C518 0.930 1_565 S
H527 C519 0.929 . S
H528 C536 0.929 . S
H529 C538 0.930 . S
H530 C540 0.930 . S
H531 C543 0.929 . S
H532 C546 0.930 . S
H533 C548 0.960 . S
H534 C548 0.960 . S
H535 C548 0.960 . S
C536 H528 0.929 . S
C536 C537 1.377 . S
C536 C538 1.384 . S
C537 C536 1.377 . S
C537 C543 1.390 . S
C538 H529 0.930 . S
C538 C536 1.384 . S
C538 C539 1.372 . S
C539 C538 1.372 . S
C539 C540 1.400 . S
C539 C544 1.490 . S
C540 H530 0.930 . S
C540 C539 1.400 . S
C540 C543 1.386 . S
H541 C557 0.930 . S
H542 C558 0.931 . S
C543 H531 0.929 . S
C543 C537 1.390 . S
C543 C540 1.386 . S
C544 C539 1.490 . S
C544 C546 1.395 . S
C544 C547 1.403 . S
H545 C551 0.930 . S
C546 H532 0.930 . S
C546 C544 1.395 . S
C546 C549 1.403 . S
C547 C544 1.403 . S
C547 C548 1.524 . S
C547 C551 1.400 . S
C548 H533 0.960 . S
C548 H534 0.960 . S
C548 H535 0.960 . S
C548 C547 1.524 . S
C549 C546 1.403 . S
C549 C550 1.392 . S
C549 C553 1.495 . S
C550 C549 1.392 . S
C550 C551 1.385 . S
C550 C552 1.478 . S
C551 H545 0.930 . S
C551 C547 1.400 . S
C551 C550 1.385 . S
C552 C550 1.478 . S
C552 C554 1.381 . S
C552 C558 1.383 . S
C553 C549 1.495 . S
C553 H559 0.959 . S
C553 H560 0.961 . S
C553 H561 0.960 . S
C554 C552 1.381 . S
C554 C555 1.394 . S
C554 H562 0.930 . S
C555 C554 1.394 . S
C555 C556 1.383 . S
C555 H563 0.929 . S
C556 C555 1.383 . S
C556 C557 1.377 . S
C557 H541 0.930 . S
C557 C556 1.377 . S
C557 C558 1.379 . S
C558 H542 0.931 . S
C558 C552 1.383 . S
C558 C557 1.379 . S
H559 C553 0.959 . S
H560 C553 0.961 . S
H561 C553 0.960 . S
H562 C554 0.930 . S
H563 C555 0.929 . S
H564 C572 0.929 . S
H565 C574 0.930 . S
H566 C576 0.930 . S
H567 C579 0.929 . S
H568 C582 0.930 . S
H569 C584 0.960 . S
H570 C584 0.960 . S
H571 C584 0.960 . S
C572 H564 0.929 . S
C572 C573 1.377 1_556 S
C572 C574 1.384 . S
C573 C572 1.377 1_554 S
C573 C579 1.390 . S
C574 H565 0.930 . S
C574 C572 1.384 . S
C574 C575 1.372 1_556 S
C575 C574 1.372 1_554 S
C575 C576 1.400 . S
C575 C580 1.490 . S
C576 H566 0.930 . S
C576 C575 1.400 . S
C576 C579 1.386 . S
H577 C593 0.930 . S
H578 C594 0.931 . S
C579 H567 0.929 . S
C579 C573 1.390 . S
C579 C576 1.386 . S
C580 C575 1.490 . S
C580 C582 1.395 1_554 S
C580 C583 1.403 . S
H581 C587 0.930 . S
C582 H568 0.930 . S
C582 C580 1.395 1_556 S
C582 C585 1.403 . S
C583 C580 1.403 . S
C583 C584 1.524 . S
C583 C587 1.400 . S
C584 H569 0.960 . S
C584 H570 0.960 . S
C584 H571 0.960 . S
C584 C583 1.524 . S
C585 C582 1.403 . S
C585 C586 1.392 1_556 S
C585 C589 1.495 . S
C586 C585 1.392 1_554 S
C586 C587 1.385 . S
C586 C588 1.478 . S
C587 H581 0.930 . S
C587 C583 1.400 . S
C587 C586 1.385 . S
C588 C586 1.478 . S
C588 C590 1.381 1_554 S
C588 C594 1.383 . S
C589 C585 1.495 . S
C589 H595 0.959 . S
C589 H596 0.961 . S
C589 H597 0.960 . S
C590 C588 1.381 1_556 S
C590 C591 1.394 . S
C590 H598 0.930 . S
C591 C590 1.394 . S
C591 C592 1.383 1_556 S
C591 H599 0.929 1_545 S
C592 C591 1.383 1_554 S
C592 C593 1.377 . S
C593 H577 0.930 . S
C593 C592 1.377 . S
C593 C594 1.379 . S
C594 H578 0.931 . S
C594 C588 1.383 . S
C594 C593 1.379 . S
H595 C589 0.959 . S
H596 C589 0.961 . S
H597 C589 0.960 . S
H598 C590 0.930 . S
H599 C591 0.929 1_565 S
H600 C608 0.929 . S
H601 C610 0.930 . S
H602 C612 0.930 . S
H603 C615 0.929 . S
H604 C618 0.930 . S
H605 C620 0.960 . S
H606 C620 0.960 . S
H607 C620 0.960 . S
C608 H600 0.929 . S
C608 C609 1.377 . S
C608 C610 1.384 . S
C609 C608 1.377 . S
C609 C615 1.390 . S
C610 H601 0.930 . S
C610 C608 1.384 . S
C610 C611 1.372 . S
C611 C610 1.372 . S
C611 C612 1.400 . S
C611 C616 1.490 . S
C612 H602 0.930 . S
C612 C611 1.400 . S
C612 C615 1.386 . S
H613 C629 0.930 . S
H614 C630 0.931 . S
C615 H603 0.929 . S
C615 C609 1.390 . S
C615 C612 1.386 . S
C616 C611 1.490 . S
C616 C618 1.395 . S
C616 C619 1.403 . S
H617 C623 0.930 . S
C618 H604 0.930 . S
C618 C616 1.395 . S
C618 C621 1.403 . S
C619 C616 1.403 . S
C619 C620 1.524 . S
C619 C623 1.400 . S
C620 H605 0.960 . S
C620 H606 0.960 . S
C620 H607 0.960 . S
C620 C619 1.524 . S
C621 C618 1.403 . S
C621 C622 1.392 . S
C621 C625 1.495 . S
C622 C621 1.392 . S
C622 C623 1.385 . S
C622 C624 1.478 . S
C623 H617 0.930 . S
C623 C619 1.400 . S
C623 C622 1.385 . S
C624 C622 1.478 . S
C624 C626 1.381 . S
C624 C630 1.383 . S
C625 C621 1.495 . S
C625 H631 0.959 . S
C625 H632 0.961 . S
C625 H633 0.960 . S
C626 C624 1.381 . S
C626 C627 1.394 . S
C626 H634 0.930 . S
C627 C626 1.394 . S
C627 C628 1.383 . S
C627 H635 0.929 . S
C628 C627 1.383 . S
C628 C629 1.377 . S
C629 H613 0.930 . S
C629 C628 1.377 . S
C629 C630 1.379 . S
C630 H614 0.931 . S
C630 C624 1.383 . S
C630 C629 1.379 . S
H631 C625 0.959 . S
H632 C625 0.961 . S
H633 C625 0.960 . S
H634 C626 0.930 . S
H635 C627 0.929 . S
H636 C644 0.929 . S
H637 C646 0.930 1_655 S
H638 C648 0.930 . S
H639 C651 0.929 . S
H640 C654 0.930 . S
H641 C656 0.960 . S
H642 C656 0.960 . S
H643 C656 0.960 . S
C644 H636 0.929 . S
C644 C645 1.389 . S
C644 C646 1.384 1_655 S
C645 C644 1.389 . S
C645 C651 1.378 1_655 S
C646 H637 0.930 1_455 S
C646 C644 1.384 1_455 S
C646 C647 1.372 . S
C647 C646 1.372 . S
C647 C648 1.400 . S
C647 C652 1.490 . S
C648 H638 0.930 . S
C648 C647 1.400 . S
C648 C651 1.386 . S
H649 C665 0.930 . S
H650 C666 0.931 . S
C651 H639 0.929 . S
C651 C645 1.378 1_455 S
C651 C648 1.386 . S
C652 C647 1.490 . S
C652 C654 1.395 . S
C652 C655 1.403 . S
H653 C659 0.930 . S
C654 H640 0.930 . S
C654 C652 1.395 . S
C654 C657 1.403 . S
C655 C652 1.403 . S
C655 C656 1.524 . S
C655 C659 1.400 . S
C656 H641 0.960 . S
C656 H642 0.960 . S
C656 H643 0.960 . S
C656 C655 1.524 . S
C657 C654 1.403 . S
C657 C658 1.392 . S
C657 C661 1.495 . S
C658 C657 1.392 . S
C658 C659 1.385 . S
C658 C660 1.478 . S
C659 H653 0.930 . S
C659 C655 1.400 . S
C659 C658 1.385 . S
C660 C658 1.478 . S
C660 C662 1.381 . S
C660 C666 1.383 . S
C661 C657 1.495 . S
C661 H667 0.959 . S
C661 H668 0.961 . S
C661 H669 0.960 . S
C662 C660 1.381 . S
C662 C663 1.394 . S
C662 H670 0.930 . S
C663 C662 1.394 . S
C663 C664 1.383 . S
C663 H671 0.929 . S
C664 C663 1.383 . S
C664 C665 1.377 . S
C665 H649 0.930 . S
C665 C664 1.377 . S
C665 C666 1.379 . S
C666 H650 0.931 . S
C666 C660 1.383 . S
C666 C665 1.379 . S
H667 C661 0.959 . S
H668 C661 0.961 . S
H669 C661 0.960 . S
H670 C662 0.930 . S
H671 C663 0.929 . S
H672 C680 0.929 . S
H673 C682 0.930 . S
H674 C684 0.930 . S
H675 C687 0.929 . S
H676 C690 0.930 . S
H677 C692 0.960 . S
H678 C692 0.960 . S
H679 C692 0.960 . S
C680 H672 0.929 . S
C680 C681 1.377 . S
C680 C682 1.384 . S
C681 C680 1.377 . S
C681 C687 1.390 . S
C682 H673 0.930 . S
C682 C680 1.384 . S
C682 C683 1.372 . S
C683 C682 1.372 . S
C683 C684 1.400 . S
C683 C688 1.490 . S
C684 H674 0.930 . S
C684 C683 1.400 . S
C684 C687 1.386 . S
H685 C701 0.930 . S
H686 C702 0.931 . S
C687 H675 0.929 . S
C687 C681 1.390 . S
C687 C684 1.386 . S
C688 C683 1.490 . S
C688 C690 1.395 . S
C688 C691 1.403 . S
H689 C695 0.930 . S
C690 H676 0.930 . S
C690 C688 1.395 . S
C690 C693 1.403 . S
C691 C688 1.403 . S
C691 C692 1.524 . S
C691 C695 1.400 . S
C692 H677 0.960 . S
C692 H678 0.960 . S
C692 H679 0.960 . S
C692 C691 1.524 . S
C693 C690 1.403 . S
C693 C694 1.392 . S
C693 C697 1.495 . S
C694 C693 1.392 . S
C694 C695 1.385 . S
C694 C696 1.478 . S
C695 H689 0.930 . S
C695 C691 1.400 . S
C695 C694 1.385 . S
C696 C694 1.478 . S
C696 C698 1.381 . S
C696 C702 1.383 . S
C697 C693 1.495 . S
C697 H703 0.959 . S
C697 H704 0.961 . S
C697 H705 0.960 . S
C698 C696 1.381 . S
C698 C699 1.394 . S
C698 H706 0.930 . S
C699 C698 1.394 . S
C699 C700 1.383 . S
C699 H707 0.929 . S
C700 C699 1.383 . S
C700 C701 1.377 . S
C701 H685 0.930 . S
C701 C700 1.377 . S
C701 C702 1.379 . S
C702 H686 0.931 . S
C702 C696 1.383 . S
C702 C701 1.379 . S
H703 C697 0.959 . S
H704 C697 0.961 . S
H705 C697 0.960 . S
H706 C698 0.930 . S
H707 C699 0.929 . S
H708 C716 0.929 . S
H709 C718 0.930 . S
H710 C720 0.930 . S
H711 C723 0.929 . S
H712 C726 0.930 . S
H713 C728 0.960 . S
H714 C728 0.960 . S
H715 C728 0.960 . S
C716 H708 0.929 . S
C716 C717 1.377 . S
C716 C718 1.384 . S
C717 C716 1.377 . S
C717 C723 1.390 . S
C718 H709 0.930 . S
C718 C716 1.384 . S
C718 C719 1.372 . S
C719 C718 1.372 . S
C719 C720 1.400 . S
C719 C724 1.490 . S
C720 H710 0.930 . S
C720 C719 1.400 . S
C720 C723 1.386 . S
H721 C737 0.930 . S
H722 C738 0.931 . S
C723 H711 0.929 . S
C723 C717 1.390 . S
C723 C720 1.386 . S
C724 C719 1.490 . S
C724 C726 1.395 . S
C724 C727 1.403 . S
H725 C731 0.930 . S
C726 H712 0.930 . S
C726 C724 1.395 . S
C726 C729 1.403 . S
C727 C724 1.403 . S
C727 C728 1.524 . S
C727 C731 1.400 . S
C728 H713 0.960 . S
C728 H714 0.960 . S
C728 H715 0.960 . S
C728 C727 1.524 . S
C729 C726 1.403 . S
C729 C730 1.392 . S
C729 C733 1.495 . S
C730 C729 1.392 . S
C730 C731 1.385 . S
C730 C732 1.478 . S
C731 H725 0.930 . S
C731 C727 1.400 . S
C731 C730 1.385 . S
C732 C730 1.478 . S
C732 C734 1.381 . S
C732 C738 1.383 . S
C733 C729 1.495 . S
C733 H739 0.959 . S
C733 H740 0.961 . S
C733 H741 0.960 . S
C734 C732 1.381 . S
C734 C735 1.394 . S
C734 H742 0.930 . S
C735 C734 1.394 . S
C735 C736 1.383 . S
C735 H743 0.929 . S
C736 C735 1.383 . S
C736 C737 1.377 . S
C737 H721 0.930 . S
C737 C736 1.377 . S
C737 C738 1.379 . S
C738 H722 0.931 . S
C738 C732 1.383 . S
C738 C737 1.379 . S
H739 C733 0.959 . S
H740 C733 0.961 . S
H741 C733 0.960 . S
H742 C734 0.930 . S
H743 C735 0.929 . S
H744 C752 0.929 . S
H745 C754 0.930 . S
H746 C756 0.930 . S
H747 C759 0.929 . S
H748 C762 0.930 . S
H749 C764 0.960 1_455 S
H750 C764 0.960 . S
H751 C764 0.960 1_455 S
C752 H744 0.929 . S
C752 C753 1.377 . S
C752 C754 1.384 . S
C753 C752 1.377 . S
C753 C759 1.390 . S
C754 H745 0.930 . S
C754 C752 1.384 . S
C754 C755 1.372 . S
C755 C754 1.372 . S
C755 C756 1.400 . S
C755 C760 1.490 . S
C756 H746 0.930 . S
C756 C755 1.400 . S
C756 C759 1.386 . S
H757 C773 0.930 . S
H758 C774 0.931 . S
C759 H747 0.929 . S
C759 C753 1.390 . S
C759 C756 1.386 . S
C760 C755 1.490 . S
C760 C762 1.395 . S
C760 C763 1.403 . S
H761 C767 0.930 . S
C762 H748 0.930 . S
C762 C760 1.395 . S
C762 C765 1.403 . S
C763 C760 1.403 . S
C763 C764 1.524 . S
C763 C767 1.400 . S
C764 H749 0.960 1_655 S
C764 H750 0.960 . S
C764 H751 0.960 1_655 S
C764 C763 1.524 . S
C765 C762 1.403 . S
C765 C766 1.392 . S
C765 C769 1.495 . S
C766 C765 1.392 . S
C766 C767 1.385 . S
C766 C768 1.478 . S
C767 H761 0.930 . S
C767 C763 1.400 . S
C767 C766 1.385 . S
C768 C766 1.478 . S
C768 C770 1.381 . S
C768 C774 1.383 . S
C769 C765 1.495 . S
C769 H775 0.959 . S
C769 H776 0.961 . S
C769 H777 0.960 . S
C770 C768 1.381 . S
C770 C771 1.394 . S
C770 H778 0.930 . S
C771 C770 1.394 . S
C771 C772 1.383 . S
C771 H779 0.929 . S
C772 C771 1.383 . S
C772 C773 1.377 . S
C773 H757 0.930 . S
C773 C772 1.377 . S
C773 C774 1.379 . S
C774 H758 0.931 . S
C774 C768 1.383 . S
C774 C773 1.379 . S
H775 C769 0.959 . S
H776 C769 0.961 . S
H777 C769 0.960 . S
H778 C770 0.930 . S
H779 C771 0.929 . S
H780 C788 0.935 . S
H781 C790 0.930 . S
H782 C792 0.930 . S
H783 C795 0.929 . S
H784 C798 0.930 . S
H785 C800 0.960 . S
H786 C800 0.960 . S
H787 C800 0.960 . S
C788 H780 0.935 . S
C788 C789 1.377 . S
C788 C790 1.384 . S
C789 C788 1.377 . S
C789 C795 1.390 . S
C790 H781 0.930 . S
C790 C788 1.384 . S
C790 C791 1.372 . S
C791 C790 1.372 . S
C791 C792 1.400 . S
C791 C796 1.490 . S
C792 H782 0.930 . S
C792 C791 1.400 . S
C792 C795 1.386 . S
H793 C809 0.930 . S
H794 C810 0.931 . S
C795 H783 0.929 . S
C795 C789 1.390 . S
C795 C792 1.386 . S
C796 C791 1.490 . S
C796 C798 1.395 . S
C796 C799 1.403 . S
H797 C803 0.930 . S
C798 H784 0.930 . S
C798 C796 1.395 . S
C798 C801 1.403 . S
C799 C796 1.403 . S
C799 C800 1.524 . S
C799 C803 1.400 . S
C800 H785 0.960 . S
C800 H786 0.960 . S
C800 H787 0.960 . S
C800 C799 1.524 . S
C801 C798 1.403 . S
C801 C802 1.392 . S
C801 C805 1.495 . S
C802 C801 1.392 . S
C802 C803 1.385 . S
C802 C804 1.478 . S
C803 H797 0.930 . S
C803 C799 1.400 . S
C803 C802 1.385 . S
C804 C802 1.478 . S
C804 C806 1.381 . S
C804 C810 1.383 . S
C805 C801 1.495 . S
C805 H811 0.959 . S
C805 H812 0.961 . S
C805 H813 0.960 . S
C806 C804 1.381 . S
C806 C807 1.394 . S
C806 H814 0.930 . S
C807 C806 1.394 . S
C807 C808 1.383 . S
C807 H815 0.929 . S
C808 C807 1.383 . S
C808 C809 1.377 . S
C809 H793 0.930 . S
C809 C808 1.377 . S
C809 C810 1.379 . S
C810 H794 0.931 . S
C810 C804 1.383 . S
C810 C809 1.379 . S
H811 C805 0.959 . S
H812 C805 0.961 . S
H813 C805 0.960 . S
H814 C806 0.930 . S
H815 C807 0.929 . S
H816 C824 0.929 . S
H817 C826 0.930 1_655 S
H818 C828 0.930 . S
H819 C831 0.929 . S
H820 C834 0.930 . S
H821 C836 0.961 . S
H822 C836 0.960 1_655 S
H823 C836 0.960 . S
C824 H816 0.929 . S
C824 C825 1.377 1_655 S
C824 C826 1.384 1_655 S
C825 C824 1.377 1_455 S
C825 C831 1.390 . S
C826 H817 0.930 1_455 S
C826 C824 1.384 1_455 S
C826 C827 1.372 . S
C827 C826 1.372 . S
C827 C828 1.400 . S
C827 C832 1.490 . S
C828 H818 0.930 . S
C828 C827 1.400 . S
C828 C831 1.386 . S
H829 C845 0.930 . S
H830 C846 0.931 . S
C831 H819 0.929 . S
C831 C825 1.390 . S
C831 C828 1.386 . S
C832 C827 1.490 . S
C832 C834 1.395 . S
C832 C835 1.403 . S
H833 C839 0.930 . S
C834 H820 0.930 . S
C834 C832 1.395 . S
C834 C837 1.403 . S
C835 C832 1.403 . S
C835 C836 1.524 . S
C835 C839 1.400 . S
C836 H821 0.961 . S
C836 H822 0.960 1_455 S
C836 H823 0.960 . S
C836 C835 1.524 . S
C837 C834 1.403 . S
C837 C838 1.392 . S
C837 C841 1.495 . S
C838 C837 1.392 . S
C838 C839 1.385 . S
C838 C840 1.478 . S
C839 H833 0.930 . S
C839 C835 1.400 . S
C839 C838 1.385 . S
C840 C838 1.478 . S
C840 C842 1.381 . S
C840 C846 1.383 . S
C841 C837 1.495 . S
C841 H847 0.959 . S
C841 H848 0.961 . S
C841 H849 0.960 . S
C842 C840 1.381 . S
C842 C843 1.394 . S
C842 H850 0.930 . S
C843 C842 1.394 . S
C843 C844 1.383 . S
C843 H851 0.929 . S
C844 C843 1.383 . S
C844 C845 1.377 . S
C845 H829 0.930 . S
C845 C844 1.377 . S
C845 C846 1.379 . S
C846 H830 0.931 . S
C846 C840 1.383 . S
C846 C845 1.379 . S
H847 C841 0.959 . S
H848 C841 0.961 . S
H849 C841 0.960 . S
H850 C842 0.930 . S
H851 C843 0.929 . S
H852 C860 0.929 1_565 S
H853 C862 0.930 . S
H854 C864 0.930 . S
H855 C867 0.929 . S
H856 C870 0.930 1_565 S
H857 C872 0.960 . S
H858 C872 0.960 . S
H859 C872 0.960 . S
C860 H852 0.929 1_545 S
C860 C861 1.377 . S
C860 C862 1.384 . S
C861 C860 1.377 . S
C861 C867 1.390 . S
C862 H853 0.930 . S
C862 C860 1.384 . S
C862 C863 1.372 . S
C863 C862 1.372 . S
C863 C864 1.400 . S
C863 C868 1.490 . S
C864 H854 0.930 . S
C864 C863 1.400 . S
C864 C867 1.386 . S
H865 C881 0.930 . S
H866 C882 0.931 . S
C867 H855 0.929 . S
C867 C861 1.390 . S
C867 C864 1.386 . S
C868 C863 1.490 . S
C868 C870 1.395 . S
C868 C871 1.403 . S
H869 C875 0.930 . S
C870 H856 0.930 1_545 S
C870 C868 1.395 . S
C870 C873 1.403 . S
C871 C868 1.403 . S
C871 C872 1.524 . S
C871 C875 1.400 . S
C872 H857 0.960 . S
C872 H858 0.960 . S
C872 H859 0.960 . S
C872 C871 1.524 . S
C873 C870 1.403 . S
C873 C874 1.392 . S
C873 C877 1.495 1_545 S
C874 C873 1.392 . S
C874 C875 1.385 . S
C874 C876 1.478 . S
C875 H869 0.930 . S
C875 C871 1.400 . S
C875 C874 1.385 . S
C876 C874 1.478 . S
C876 C878 1.381 . S
C876 C882 1.383 . S
C877 C873 1.495 1_565 S
C877 H883 0.959 . S
C877 H884 0.961 . S
C877 H885 0.960 . S
C878 C876 1.381 . S
C878 C879 1.394 . S
C878 H886 0.930 . S
C879 C878 1.394 . S
C879 C880 1.383 . S
C879 H887 0.929 . S
C880 C879 1.383 . S
C880 C881 1.377 . S
C881 H865 0.930 . S
C881 C880 1.377 . S
C881 C882 1.379 . S
C882 H866 0.931 . S
C882 C876 1.383 . S
C882 C881 1.379 . S
H883 C877 0.959 . S
H884 C877 0.961 . S
H885 C877 0.960 . S
H886 C878 0.930 . S
H887 C879 0.929 . S
C249 C129 1.097 1_565 S
C268 C9 1.058 . S
C285 C169 1.115 . S
C304 C49 1.144 . S
C321 C209 1.099 . S
C340 C89 1.127 1_655 S
C357 C15 0.585 . S
C376 C86 0.526 . S
C393 C55 0.583 . S
C412 C126 0.535 . S
C429 C95 0.582 . S
C448 C166 0.542 . S
C465 C135 0.599 . S
C484 C206 0.481 . S
C501 C175 0.615 . S
C520 C6 0.525 . S
C537 C215 0.579 . S
C556 C46 0.641 . S
C573 C18 1.275 . S
C592 C138 1.261 1_545 S
C609 C58 1.277 . S
C628 C178 1.274 . S
C645 C98 1.278 . S
C664 C218 1.289 . S
C681 C10 3.883 . S
C700 C59 3.936 . S
C717 C50 3.884 . S
C736 C99 3.934 . S
C753 C90 3.887 . S
C772 C139 3.930 . S
C789 C130 3.884 . S
C808 C179 3.934 . S
C825 C170 3.886 1_455 S
C844 C219 3.930 . S
C861 C210 3.884 1_545 S
C880 C19 3.936 . S
