# Generated by pormake.
# Topology unm, (4)-cn, num edge types: 1
# Building blocks:
#     Node 0, Type 0, BuildingBlock: CEKHIL_clean_sbu_0, # of connection points: 4
#     Node 1, Type 0, BuildingBlock: CEKHIL_clean_sbu_0, # of connection points: 4
#     Node 2, Type 0, BuildingBlock: CEKHIL_clean_sbu_0, # of connection points: 4
#     Node 3, Type 0, BuildingBlock: CEKHIL_clean_sbu_0, # of connection points: 4
#     Node 4, Type 0, BuildingBlock: CEKHIL_clean_sbu_0, # of connection points: 4
#     Node 5, Type 0, BuildingBlock: CEKHIL_clean_sbu_0, # of connection points: 4
#     Node 6, Type 0, BuildingBlock: CEKHIL_clean_sbu_0, # of connection points: 4
#     Node 7, Type 0, BuildingBlock: CEKHIL_clean_sbu_0, # of connection points: 4
#     Edge 8, Type (0, 0), BuildingBlock: FUNLAD_clean_linker_1, # of connection points: 2
#     Edge 9, Type (0, 0), BuildingBlock: FUNLAD_clean_linker_1, # of connection points: 2
#     Edge 10, Type (0, 0), BuildingBlock: FUNLAD_clean_linker_1, # of connection points: 2
#     Edge 11, Type (0, 0), BuildingBlock: FUNLAD_clean_linker_1, # of connection points: 2
#     Edge 12, Type (0, 0), BuildingBlock: FUNLAD_clean_linker_1, # of connection points: 2
#     Edge 13, Type (0, 0), BuildingBlock: FUNLAD_clean_linker_1, # of connection points: 2
#     Edge 14, Type (0, 0), BuildingBlock: FUNLAD_clean_linker_1, # of connection points: 2
#     Edge 15, Type (0, 0), BuildingBlock: FUNLAD_clean_linker_1, # of connection points: 2
#     Edge 16, Type (0, 0), BuildingBlock: FUNLAD_clean_linker_1, # of connection points: 2
#     Edge 17, Type (0, 0), BuildingBlock: FUNLAD_clean_linker_1, # of connection points: 2
#     Edge 18, Type (0, 0), BuildingBlock: FUNLAD_clean_linker_1, # of connection points: 2
#     Edge 19, Type (0, 0), BuildingBlock: FUNLAD_clean_linker_1, # of connection points: 2
#     Edge 20, Type (0, 0), BuildingBlock: FUNLAD_clean_linker_1, # of connection points: 2
#     Edge 21, Type (0, 0), BuildingBlock: FUNLAD_clean_linker_1, # of connection points: 2
#     Edge 22, Type (0, 0), BuildingBlock: FUNLAD_clean_linker_1, # of connection points: 2
#     Edge 23, Type (0, 0), BuildingBlock: FUNLAD_clean_linker_1, # of connection points: 2
# Relax obj value: 0.188
# Max RMSD: 0.152
# Mean RMSD: 0.152
data_MOF--net-unm--node1-CEKHIL_clean_sbu_0--edge1-FUNLAD_clean_linker_1
_symmetry_space_group_name_H-M    P1
_symmetry_Int_Tables_number       1
_symmetry_cell_setting            triclinic
loop_
_symmetry_equiv_pos_as_xyz
'x, y, z'
_cell_length_a     26.124
_cell_length_b     26.113583
_cell_length_c     45.327573
_cell_angle_alpha  90.014899
_cell_angle_beta   89.98337
_cell_angle_gamma 89.8939
loop_
_atom_site_label
_atom_site_type_symbol
_atom_site_fract_x
_atom_site_fract_y
_atom_site_fract_z
_atom_type_partial_charge
Co0 Co 0.16496 0.26395 0.18469 0.0
O1 O 0.21957 0.21749 0.19524 0.0
O2 O 0.23012 0.29979 0.18547 0.0
C3 C 0.10898 0.24164 0.22084 0.0
O4 O 0.11754 0.32384 0.17475 0.0
Co5 Co 0.06017 0.21934 0.1638 0.0
O6 O 0.03808 0.29129 0.16958 0.0
C7 C 0.14763 0.21889 0.12288 0.0
C8 C 0.2502 0.2564 0.1936 0.0
C9 C 0.0687 0.32898 0.17185 0.0
O10 O 0.17379 0.24664 0.14102 0.0
O11 O 0.10392 0.19986 0.12921 0.0
O12 O 0.14674 0.2723 0.22641 0.0
O13 O 0.1103 0.22042 0.19507 0.0
Co14 Co 0.25344 0.67383 0.68618 0.0
O15 O 0.30104 0.72593 0.6991 0.0
O16 O 0.21915 0.73971 0.68966 0.0
C17 C 0.27382 0.6128 0.71986 0.0
O18 O 0.19217 0.62985 0.67424 0.0
Co19 Co 0.29239 0.56992 0.66102 0.0
O20 O 0.22071 0.54912 0.66798 0.0
C21 C 0.28834 0.65995 0.62165 0.0
C22 C 0.26281 0.75772 0.69868 0.0
C23 C 0.18457 0.58147 0.67062 0.0
O24 O 0.27082 0.68769 0.64299 0.0
O25 O 0.3011 0.61289 0.62472 0.0
O26 O 0.24405 0.65072 0.72678 0.0
O27 O 0.29564 0.6164 0.69427 0.0
Co28 Co 0.81732 0.71184 0.17374 0.0
O29 O 0.78336 0.7703 0.19184 0.0
O30 O 0.7454 0.69803 0.17908 0.0
C31 C 0.8852 0.7105 0.20515 0.0
O32 O 0.83571 0.64238 0.15683 0.0
Co33 Co 0.92401 0.71024 0.14513 0.0
O34 O 0.91833 0.6344 0.14453 0.0
C35 C 0.8346 0.74637 0.11014 0.0
C36 C 0.74195 0.7427 0.19144 0.0
C37 C 0.87392 0.61554 0.14809 0.0
O38 O 0.80459 0.73851 0.1323 0.0
O39 O 0.88318 0.73963 0.11139 0.0
O40 O 0.84159 0.69065 0.21259 0.0
O41 O 0.88629 0.73318 0.17974 0.0
Co42 Co 0.77899 0.33366 0.68071 0.0
O43 O 0.74608 0.2727 0.69598 0.0
O44 O 0.82651 0.27658 0.68096 0.0
C45 C 0.75455 0.39015 0.71588 0.0
O46 O 0.8266 0.38969 0.66569 0.0
Co47 Co 0.71252 0.42427 0.65802 0.0
O48 O 0.77923 0.45905 0.65383 0.0
C49 C 0.72955 0.33666 0.61867 0.0
C50 C 0.7898 0.24969 0.69249 0.0
C51 C 0.82209 0.43674 0.65742 0.0
O52 O 0.75793 0.31597 0.63865 0.0
O53 O 0.7051 0.37859 0.62271 0.0
O54 O 0.79145 0.358 0.72063 0.0
O55 O 0.7281 0.38178 0.69209 0.0
Co56 Co 0.66364 0.26689 0.33313 0.0
O57 O 0.71664 0.31119 0.31769 0.0
O58 O 0.72729 0.22923 0.32832 0.0
C59 C 0.60062 0.29046 0.30137 0.0
O60 O 0.61869 0.20815 0.34702 0.0
Co61 Co 0.56261 0.30963 0.36036 0.0
O62 O 0.53915 0.23766 0.35591 0.0
C63 C 0.65787 0.31232 0.39533 0.0
C64 C 0.74648 0.27137 0.31785 0.0
C65 C 0.57089 0.20101 0.35236 0.0
O66 O 0.68162 0.28529 0.3757 0.0
O67 O 0.61261 0.33003 0.39174 0.0
O68 O 0.63546 0.2578 0.29323 0.0
O69 O 0.60811 0.31153 0.32674 0.0
Co70 Co 0.26998 0.17138 0.83721 0.0
O71 O 0.2385 0.23246 0.82078 0.0
O72 O 0.32026 0.22513 0.83272 0.0
C73 C 0.23717 0.11266 0.80565 0.0
O74 O 0.31716 0.11524 0.85247 0.0
Co75 Co 0.20557 0.08411 0.86532 0.0
O76 O 0.27054 0.04495 0.86256 0.0
C77 C 0.22724 0.17656 0.90058 0.0
C78 C 0.28379 0.25297 0.82166 0.0
C79 C 0.3133 0.06738 0.85896 0.0
O80 O 0.25447 0.1947 0.87924 0.0
O81 O 0.20211 0.13463 0.89861 0.0
O82 O 0.27568 0.14098 0.79788 0.0
O83 O 0.21546 0.12554 0.83024 0.0
Co84 Co 0.31911 0.75876 0.32843 0.0
O85 O 0.27698 0.70301 0.31424 0.0
O86 O 0.24862 0.78113 0.3236 0.0
C87 C 0.38423 0.74803 0.29595 0.0
O88 O 0.35057 0.82705 0.34078 0.0
Co89 Co 0.42727 0.74094 0.35524 0.0
O90 O 0.43499 0.81518 0.3479 0.0
C91 C 0.33603 0.72621 0.39299 0.0
C92 C 0.23923 0.73538 0.3137 0.0
C93 C 0.39621 0.84431 0.34477 0.0
O94 O 0.30631 0.73906 0.37142 0.0
O95 O 0.38472 0.72251 0.39044 0.0
O96 O 0.34257 0.77142 0.28813 0.0
O97 O 0.38327 0.7271 0.32182 0.0
Co98 Co 0.74034 0.83325 0.82905 0.0
O99 O 0.77692 0.77393 0.81391 0.0
O100 O 0.69691 0.77342 0.82986 0.0
C101 C 0.76071 0.8894 0.79265 0.0
O102 O 0.68833 0.88509 0.84408 0.0
Co103 Co 0.79598 0.93322 0.84816 0.0
O104 O 0.72569 0.96229 0.84833 0.0
C105 C 0.79618 0.84414 0.88829 0.0
C106 C 0.73463 0.74863 0.81785 0.0
C107 C 0.68625 0.93378 0.84831 0.0
O108 O 0.76528 0.81972 0.87104 0.0
O109 O 0.81619 0.88732 0.88168 0.0
O110 O 0.72499 0.85563 0.78884 0.0
O111 O 0.78719 0.88411 0.81659 0.0
H112 H 0.14991 0.17612 0.08112 0.0
C113 C 0.16677 0.20848 0.09268 0.0
H114 H 0.21286 0.27434 0.08783 0.0
H115 H 0.26874 0.11795 0.97406 0.0
H116 H 0.31273 0.0663 0.01067 0.0
H117 H 0.31019 0.08977 0.06338 0.0
H118 H 0.26348 0.16505 0.07983 0.0
C119 C 0.19842 0.2396 0.07763 0.0
C120 C 0.2079 0.23043 0.04541 0.0
C121 C 0.23598 0.18689 0.036 0.0
C122 C 0.23765 0.17355 0.00552 0.0
C123 C 0.2657 0.12954 0.99692 0.0
C124 C 0.29135 0.09971 0.01768 0.0
C125 C 0.28991 0.11291 0.04736 0.0
C126 C 0.26271 0.156 0.05653 0.0
H127 H 0.2501 0.23844 0.93169 0.0
C128 C 0.22791 0.20348 0.92957 0.0
H129 H 0.18484 0.14716 0.95182 0.0
H130 H 0.15689 0.32023 0.05534 0.0
H131 H 0.11532 0.37363 0.01863 0.0
H132 H 0.11667 0.34971 0.96599 0.0
H133 H 0.15985 0.27249 0.94965 0.0
C134 C 0.20503 0.18337 0.95366 0.0
C135 C 0.21149 0.20386 0.9843 0.0
C136 C 0.18646 0.24946 0.99347 0.0
C137 C 0.18511 0.26296 0.02401 0.0
C138 C 0.15904 0.30816 0.03254 0.0
C139 C 0.13498 0.33913 0.0117 0.0
C140 C 0.13578 0.32568 0.98205 0.0
C141 C 0.1609 0.28129 0.97294 0.0
H142 H 0.30096 0.72396 0.59002 0.0
C143 C 0.29395 0.6831 0.59185 0.0
H144 H 0.28283 0.61325 0.56964 0.0
H145 H 0.26696 0.78188 0.45856 0.0
H146 H 0.19728 0.82207 0.48528 0.0
H147 H 0.17335 0.79251 0.53507 0.0
H148 H 0.21983 0.72351 0.55879 0.0
C149 C 0.2906 0.65394 0.56728 0.0
C150 C 0.30313 0.67231 0.53676 0.0
C151 C 0.2739 0.71112 0.52256 0.0
C152 C 0.28594 0.72638 0.49306 0.0
C153 C 0.25825 0.76739 0.48031 0.0
C154 C 0.21827 0.79098 0.49548 0.0
C155 C 0.20491 0.77446 0.52356 0.0
C156 C 0.23219 0.73499 0.53703 0.0
H157 H 0.27358 0.70364 0.4239 0.0
C158 C 0.31345 0.71511 0.42246 0.0
H159 H 0.38188 0.73051 0.44535 0.0
H160 H 0.36817 0.59766 0.55712 0.0
H161 H 0.43399 0.55387 0.52929 0.0
H162 H 0.45015 0.57559 0.47719 0.0
H163 H 0.40092 0.64168 0.45273 0.0
C164 C 0.34214 0.71867 0.44721 0.0
C165 C 0.32541 0.70098 0.47716 0.0
C166 C 0.3534 0.66107 0.49107 0.0
C167 C 0.34288 0.64735 0.52087 0.0
C168 C 0.3732 0.60873 0.53432 0.0
C169 C 0.41144 0.58337 0.51864 0.0
C170 C 0.42064 0.5957 0.48935 0.0
C171 C 0.39218 0.634 0.47563 0.0
H172 H 0.77059 0.76806 0.08027 0.0
C173 C 0.81151 0.76066 0.08126 0.0
H174 H 0.87959 0.75084 0.0568 0.0
H175 H 0.79617 0.69732 0.93254 0.0
H176 H 0.82488 0.61376 0.9493 0.0
H177 H 0.84917 0.59972 1.00126 0.0
H178 H 0.8451 0.66908 0.03682 0.0
C179 C 0.83923 0.76089 0.05607 0.0
C180 C 0.8164 0.76807 0.02602 0.0
C181 C 0.81807 0.72696 1.00549 0.0
C182 C 0.80348 0.73485 0.97551 0.0
C183 C 0.80655 0.6933 0.95553 0.0
C184 C 0.82294 0.64516 0.96486 0.0
C185 C 0.83666 0.63726 0.99412 0.0
C186 C 0.83435 0.67749 0.01428 0.0
H187 H 0.84073 0.84155 0.92941 0.0
C188 C 0.80802 0.82463 0.91823 0.0
H189 H 0.74359 0.77655 0.9236 0.0
H190 H 0.80803 0.85553 0.05912 0.0
H191 H 0.77405 0.93723 0.043 0.0
H192 H 0.74359 0.94916 0.99196 0.0
H193 H 0.74786 0.87965 0.95655 0.0
C194 C 0.77709 0.79359 0.93382 0.0
C195 C 0.78711 0.78384 0.96594 0.0
C196 C 0.78216 0.8241 0.98688 0.0
C197 C 0.79774 0.81655 0.01675 0.0
C198 C 0.79526 0.85847 0.03651 0.0
C199 C 0.776 0.90572 0.02751 0.0
C200 C 0.759 0.9125 0.99875 0.0
C201 C 0.76197 0.87235 0.97858 0.0
H202 H 0.66913 0.35744 0.43565 0.0
C203 C 0.68118 0.32256 0.42447 0.0
H204 H 0.71513 0.24998 0.43029 0.0
H205 H 0.77999 0.39694 0.5473 0.0
H206 H 0.83304 0.44413 0.51281 0.0
H207 H 0.83325 0.4225 0.45983 0.0
H208 H 0.78021 0.35357 0.44096 0.0
C209 C 0.70683 0.28704 0.44011 0.0
C210 C 0.71428 0.29421 0.47269 0.0
C211 C 0.74604 0.33394 0.48355 0.0
C212 C 0.74617 0.34611 0.5142 0.0
C213 C 0.778 0.38636 0.52425 0.0
C214 C 0.80883 0.4136 0.50471 0.0
C215 C 0.80893 0.40144 0.47487 0.0
C216 C 0.77808 0.36205 0.4643 0.0
H217 H 0.74742 0.27595 0.58584 0.0
C218 C 0.72851 0.31269 0.58888 0.0
H219 H 0.69278 0.37532 0.56786 0.0
H220 H 0.65361 0.21171 0.46003 0.0
H221 H 0.60281 0.16271 0.49468 0.0
H222 H 0.60218 0.18448 0.54762 0.0
H223 H 0.65252 0.25528 0.56628 0.0
C224 C 0.70905 0.33727 0.5652 0.0
C225 C 0.71493 0.31829 0.53418 0.0
C226 C 0.68572 0.27634 0.52363 0.0
C227 C 0.68572 0.26406 0.49292 0.0
C228 C 0.65523 0.22271 0.48301 0.0
C229 C 0.62579 0.19426 0.50267 0.0
C230 C 0.62546 0.2065 0.53249 0.0
C231 C 0.65474 0.24717 0.54294 0.0
H232 H 0.31813 0.21289 0.20801 0.0
C233 C 0.30423 0.25119 0.20303 0.0
H234 H 0.32152 0.33015 0.20379 0.0
H235 H 0.48077 0.22942 0.30336 0.0
H236 H 0.40405 0.20902 0.33099 0.0
H237 H 0.3186 0.22546 0.31007 0.0
H238 H 0.30916 0.2615 0.26121 0.0
C239 C 0.3346 0.29159 0.20876 0.0
C240 C 0.38641 0.28511 0.2225 0.0
C241 C 0.39134 0.26633 0.2518 0.0
C242 C 0.44078 0.25941 0.26454 0.0
C243 C 0.44435 0.23765 0.29309 0.0
C244 C 0.40061 0.22535 0.30915 0.0
C245 C 0.35247 0.23441 0.29732 0.0
C246 C 0.34764 0.25476 0.26907 0.0
H247 H 0.52439 0.32483 0.29466 0.0
C248 C 0.55139 0.29722 0.28566 0.0
H249 H 0.5641 0.24138 0.25274 0.0
H250 H 0.39105 0.32238 0.16625 0.0
H251 H 0.46774 0.34603 0.13931 0.0
H252 H 0.55305 0.33727 0.16207 0.0
H253 H 0.56235 0.30456 0.21189 0.0
C254 C 0.53735 0.26861 0.26232 0.0
C255 C 0.48537 0.27383 0.24864 0.0
C256 C 0.48039 0.29311 0.21952 0.0
C257 C 0.43101 0.29873 0.20647 0.0
C258 C 0.42748 0.31779 0.1773 0.0
C259 C 0.47119 0.33145 0.16157 0.0
C260 C 0.51924 0.32647 0.17438 0.0
C261 C 0.52403 0.30757 0.20299 0.0
H262 H 0.30767 0.82392 0.71446 0.0
C263 C 0.26906 0.81081 0.70977 0.0
H264 H 0.1904 0.82894 0.71163 0.0
H265 H 0.29575 0.99052 0.80877 0.0
H266 H 0.32174 0.91487 0.83585 0.0
H267 H 0.30599 0.82854 0.81574 0.0
H268 H 0.26557 0.81744 0.76811 0.0
C269 C 0.22915 0.84145 0.71646 0.0
C270 C 0.23611 0.89355 0.7299 0.0
C271 C 0.25735 0.89931 0.75861 0.0
C272 C 0.26396 0.94912 0.77099 0.0
C273 C 0.2881 0.95371 0.79883 0.0
C274 C 0.30341 0.91056 0.81458 0.0
C275 C 0.29476 0.86199 0.80319 0.0
C276 C 0.27185 0.85618 0.77564 0.0
H277 H 0.19628 0.03903 0.80025 0.0
C278 C 0.22613 0.06309 0.79099 0.0
H279 H 0.28383 0.06949 0.7585 0.0
H280 H 0.19459 0.897 0.67455 0.0
H281 H 0.16738 0.97295 0.64801 0.0
H282 H 0.17585 0.05868 0.67031 0.0
H283 H 0.21177 0.06909 0.71932 0.0
C284 C 0.25432 0.04553 0.76818 0.0
C285 C 0.247 0.99314 0.75541 0.0
C286 C 0.22543 0.9874 0.7269 0.0
C287 C 0.22003 0.93774 0.71415 0.0
C288 C 0.19902 0.93359 0.68545 0.0
C289 C 0.18335 0.9769 0.66993 0.0
C290 C 0.18817 0.02518 0.68247 0.0
C291 C 0.2089 0.03062 0.7106 0.0
H292 H 0.42534 0.75997 0.25402 0.0
C293 C 0.43031 0.74918 0.277 0.0
H294 H 0.48272 0.72829 0.3102 0.0
H295 H 0.65798 0.64238 0.22928 0.0
H296 H 0.63267 0.56747 0.25699 0.0
H297 H 0.55667 0.56939 0.28923 0.0
H298 H 0.50598 0.64653 0.29428 0.0
C299 C 0.47762 0.73925 0.28727 0.0
C300 C 0.52358 0.73887 0.26745 0.0
C301 C 0.55232 0.69308 0.26416 0.0
C302 C 0.59524 0.69152 0.24477 0.0
C303 C 0.6241 0.64556 0.24288 0.0
C304 C 0.61019 0.6022 0.25882 0.0
C305 C 0.5675 0.60332 0.27703 0.0
C306 C 0.53879 0.64803 0.27976 0.0
H307 H 0.69824 0.78926 0.22364 0.0
C308 C 0.69524 0.75817 0.20781 0.0
H309 H 0.64958 0.69932 0.19035 0.0
H310 H 0.48435 0.8358 0.27305 0.0
H311 H 0.50746 0.91021 0.24405 0.0
H312 H 0.57481 0.90473 0.206 0.0
H313 H 0.62059 0.82529 0.19743 0.0
C314 C 0.65156 0.73091 0.20593 0.0
C315 C 0.60876 0.73533 0.22786 0.0
C316 C 0.58026 0.78134 0.23133 0.0
C317 C 0.53889 0.78358 0.2519 0.0
C318 C 0.51397 0.83111 0.25659 0.0
C319 C 0.52717 0.87428 0.24027 0.0
C320 C 0.56527 0.87125 0.21895 0.0
C321 C 0.59155 0.82544 0.21441 0.0
H322 H 0.83725 0.18083 0.70073 0.0
C323 C 0.79897 0.19669 0.70306 0.0
H324 H 0.72508 0.18607 0.72064 0.0
H325 H 0.81953 0.94803 0.72477 0.0
H326 H 0.82397 0.95277 0.6714 0.0
H327 H 0.80397 0.03323 0.64531 0.0
H328 H 0.78038 0.10973 0.67244 0.0
C329 C 0.76276 0.1694 0.7172 0.0
C330 C 0.77428 0.11976 0.73245 0.0
C331 C 0.78632 0.0748 0.71622 0.0
C332 C 0.79547 0.02759 0.73124 0.0
C333 C 0.80997 0.98416 0.71449 0.0
C334 C 0.81307 0.98646 0.68384 0.0
C335 C 0.802 0.03182 0.66916 0.0
C336 C 0.78874 0.07557 0.68503 0.0
H337 H 0.73352 0.93977 0.75689 0.0
C338 C 0.7625 0.93593 0.77395 0.0
H339 H 0.8237 0.97165 0.79603 0.0
H340 H 0.7547 0.19878 0.77055 0.0
H341 H 0.74854 0.19365 0.82377 0.0
H342 H 0.76152 0.11154 0.84959 0.0
H343 H 0.78109 0.03427 0.82239 0.0
C344 C 0.79565 0.97459 0.77842 0.0
C345 C 0.7905 0.02471 0.76242 0.0
C346 C 0.77942 0.06993 0.77865 0.0
C347 C 0.77129 0.11729 0.7637 0.0
C348 C 0.76044 0.16166 0.78062 0.0
C349 C 0.75695 0.15934 0.81124 0.0
C350 C 0.76431 0.11315 0.82578 0.0
C351 C 0.77546 0.06894 0.80982 0.0
H352 H 0.80615 0.30615 0.28992 0.0
C353 C 0.79783 0.27344 0.30392 0.0
H354 H 0.82396 0.20285 0.32037 0.0
H355 H 0.98134 0.14022 0.22293 0.0
H356 H 0.92144 0.06968 0.22294 0.0
H357 H 0.84173 0.07405 0.25195 0.0
H358 H 0.82187 0.14846 0.28154 0.0
C359 C 0.83283 0.23569 0.30659 0.0
C360 C 0.88124 0.23426 0.28856 0.0
C361 C 0.89171 0.19093 0.27051 0.0
C362 C 0.93689 0.18918 0.25281 0.0
C363 C 0.94705 0.14442 0.23609 0.0
C364 C 0.91306 0.10343 0.23596 0.0
C365 C 0.86826 0.10584 0.25236 0.0
C366 C 0.85748 0.14888 0.26941 0.0
H367 H 0.07154 0.24701 0.26436 0.0
C368 C 0.06484 0.23802 0.24128 0.0
H369 H 0.00998 0.22104 0.20879 0.0
H370 H 0.88069 0.31788 0.32518 0.0
H371 H 0.93689 0.39143 0.32232 0.0
H372 H 0.00618 0.39485 0.28541 0.0
H373 H 0.02032 0.32461 0.25168 0.0
C374 C 0.0166 0.22996 0.23187 0.0
C375 C 0.97084 0.23158 0.25201 0.0
C376 C 0.9596 0.27557 0.26943 0.0
C377 C 0.91657 0.27563 0.28889 0.0
C378 C 0.91023 0.31741 0.30848 0.0
C379 C 0.94257 0.3597 0.30729 0.0
C380 C 0.98168 0.36155 0.2866 0.0
C381 C 0.98998 0.32037 0.26768 0.0
H382 H 0.24969 0.56543 0.75753 0.0
C383 C 0.27386 0.56558 0.738 0.0
H384 H 0.32221 0.52173 0.71066 0.0
H385 H 0.2932 0.39218 0.83881 0.0
H386 H 0.33482 0.46432 0.86226 0.0
H387 H 0.35979 0.54028 0.83334 0.0
H388 H 0.34213 0.54503 0.78091 0.0
C389 C 0.2994 0.52257 0.73069 0.0
C390 C 0.29194 0.47361 0.74757 0.0
C391 C 0.30499 0.47011 0.77795 0.0
C392 C 0.29328 0.42491 0.79433 0.0
C393 C 0.30345 0.4243 0.82501 0.0
C394 C 0.32701 0.46567 0.83882 0.0
C395 C 0.34085 0.50854 0.82257 0.0
C396 C 0.33009 0.51094 0.79251 0.0
H397 H 0.33449 0.31662 0.80844 0.0
C398 C 0.29484 0.30411 0.80894 0.0
H399 H 0.21906 0.32069 0.79627 0.0
H400 H 0.26416 0.46565 0.6895 0.0
H401 H 0.22658 0.39202 0.6655 0.0
H402 H 0.21007 0.31252 0.69323 0.0
H403 H 0.23057 0.30644 0.74519 0.0
C404 C 0.25847 0.33392 0.79669 0.0
C405 C 0.2711 0.38192 0.78 0.0
C406 C 0.25979 0.38478 0.7494 0.0
C407 C 0.27008 0.4305 0.73324 0.0
C408 C 0.25745 0.4321 0.70286 0.0
C409 C 0.23589 0.38998 0.68875 0.0
C410 C 0.22655 0.34526 0.70436 0.0
C411 C 0.23837 0.34241 0.73427 0.0
H412 H 0.1905 0.68824 0.2848 0.0
C413 C 0.19052 0.72211 0.29873 0.0
H414 H 0.14914 0.78622 0.31345 0.0
H415 H 0.99596 0.81813 0.20944 0.0
H416 H 0.04067 0.89899 0.21195 0.0
H417 H 0.11568 0.90971 0.24432 0.0
H418 H 0.14581 0.84005 0.27478 0.0
C419 C 0.1485 0.75211 0.29972 0.0
C420 C 0.10337 0.74421 0.27957 0.0
C421 C 0.08719 0.78493 0.26091 0.0
C422 C 0.04505 0.77813 0.24127 0.0
C423 C 0.02858 0.82039 0.22405 0.0
C424 C 0.05379 0.86725 0.22534 0.0
C425 C 0.09591 0.87333 0.24363 0.0
C426 C 0.11263 0.83287 0.26117 0.0
H427 H 0.92186 0.70039 0.24865 0.0
C428 C 0.92926 0.71038 0.22577 0.0
H429 H 0.98401 0.73405 0.19467 0.0
H430 H 0.11562 0.66159 0.31622 0.0
H431 H 0.07469 0.57885 0.31147 0.0
H432 H 0.0113 0.56307 0.27235 0.0
H433 H 0.98718 0.6302 0.23817 0.0
C434 C 0.97702 0.72344 0.2175 0.0
C435 C 0.02007 0.72997 0.2392 0.0
C436 C 0.03683 0.68892 0.25743 0.0
C437 C 0.07669 0.69679 0.27853 0.0
C438 C 0.08847 0.65673 0.29846 0.0
C439 C 0.06482 0.60916 0.2962 0.0
C440 C 0.02892 0.60034 0.27423 0.0
C441 C 0.01501 0.6395 0.25497 0.0
H442 H 0.77113 0.43531 0.75555 0.0
C443 C 0.75043 0.43632 0.73475 0.0
H444 H 0.71137 0.48379 0.70463 0.0
H445 H 0.71893 0.6091 0.83503 0.0
H446 H 0.66462 0.54134 0.85366 0.0
H447 H 0.64047 0.46846 0.822 0.0
H448 H 0.67178 0.46221 0.77175 0.0
C449 C 0.72893 0.48076 0.72628 0.0
C450 C 0.73683 0.52863 0.74414 0.0
C451 C 0.71566 0.53353 0.77287 0.0
C452 C 0.72682 0.57744 0.79051 0.0
C453 C 0.70896 0.57858 0.82 0.0
C454 C 0.67823 0.53955 0.83112 0.0
C455 C 0.66485 0.49838 0.81335 0.0
C456 C 0.68331 0.49515 0.78458 0.0
H457 H 0.6877 0.68292 0.80388 0.0
C458 C 0.72689 0.69627 0.80602 0.0
H459 H 0.80452 0.68065 0.79789 0.0
H460 H 0.78649 0.53066 0.69118 0.0
H461 H 0.83965 0.59868 0.67198 0.0
H462 H 0.85365 0.67757 0.70075 0.0
H463 H 0.8153 0.6884 0.74886 0.0
C464 C 0.76549 0.66675 0.79596 0.0
C465 C 0.75628 0.6184 0.77871 0.0
C466 C 0.77743 0.61344 0.74993 0.0
C467 C 0.76817 0.56847 0.73288 0.0
C468 C 0.79139 0.56413 0.70476 0.0
C469 C 0.82206 0.60299 0.69348 0.0
C470 C 0.83006 0.64729 0.7097 0.0
C471 C 0.80791 0.65281 0.73748 0.0
H472 H 0.82337 0.55616 0.13066 0.0
C473 C 0.86242 0.5634 0.13777 0.0
H474 H 0.88162 0.48862 0.12668 0.0
H475 H 0.10936 0.46546 0.12069 0.0
H476 H 0.09908 0.49744 0.07042 0.0
H477 H 0.02001 0.54261 0.05557 0.0
H478 H 0.95056 0.55596 0.09089 0.0
C479 C 0.89547 0.52425 0.13612 0.0
C480 C 0.94857 0.52341 0.1478 0.0
C481 C 0.98939 0.51821 0.12753 0.0
C482 C 0.03495 0.4925 0.13611 0.0
C483 C 0.07408 0.48493 0.11504 0.0
C484 C 0.06863 0.50316 0.08629 0.0
C485 C 0.02406 0.52859 0.07791 0.0
C486 C 0.98458 0.53588 0.09821 0.0
H487 H 0.00319 0.38054 0.1698 0.0
C488 C 0.04486 0.37997 0.1707 0.0
H489 H 0.11155 0.42611 0.16871 0.0
H490 H 0.88348 0.54063 0.19416 0.0
H491 H 0.89756 0.51581 0.2452 0.0
H492 H 0.97711 0.47185 0.26 0.0
H493 H 0.04346 0.45232 0.22361 0.0
C494 C 0.07003 0.42472 0.16936 0.0
C495 C 0.0389 0.47188 0.16484 0.0
C496 C 0.00234 0.48587 0.18645 0.0
C497 C 0.95672 0.51148 0.1779 0.0
C498 C 0.91897 0.5215 0.19951 0.0
C499 C 0.92661 0.50743 0.22885 0.0
C500 C 0.97142 0.48254 0.23718 0.0
C501 C 0.00901 0.47163 0.21627 0.0
H502 H 0.86396 0.50366 0.6406 0.0
C503 C 0.86796 0.46823 0.65302 0.0
H504 H 0.91612 0.42495 0.68095 0.0
H505 H 0.09017 0.56386 0.61268 0.0
H506 H 0.07335 0.50881 0.57056 0.0
H507 H 0.00258 0.44636 0.57172 0.0
H508 H 0.94785 0.43907 0.6148 0.0
C509 C 0.9123 0.45805 0.66659 0.0
C510 C 0.9547 0.49565 0.66556 0.0
C511 C 0.98678 0.49849 0.64044 0.0
C512 C 0.02856 0.53316 0.64016 0.0
C513 C 0.05907 0.5367 0.61442 0.0
C514 C 0.04957 0.50566 0.59003 0.0
C515 C 0.00964 0.47061 0.59066 0.0
C516 C 0.97847 0.46687 0.61551 0.0
H517 H 0.12896 0.51939 0.66668 0.0
C518 C 0.13242 0.56081 0.66858 0.0
H519 H 0.09143 0.63074 0.67073 0.0
H520 H 0.89563 0.50489 0.71518 0.0
H521 H 0.90984 0.56328 0.75604 0.0
H522 H 0.98397 0.62176 0.75614 0.0
H523 H 0.04395 0.62269 0.71513 0.0
C524 C 0.08973 0.58941 0.66817 0.0
C525 C 0.0393 0.56337 0.66545 0.0
C526 C 0.00484 0.56343 0.68957 0.0
C527 C 0.96244 0.52938 0.68965 0.0
C528 C 0.92864 0.52981 0.71408 0.0
C529 C 0.93637 0.5631 0.73768 0.0
C530 C 0.97807 0.59607 0.73771 0.0
C531 C 0.01223 0.59619 0.71407 0.0
H532 H 0.58057 0.11708 0.35218 0.0
C533 C 0.55249 0.14775 0.35384 0.0
H534 H 0.47359 0.16577 0.3566 0.0
H535 H 0.4348 0.94611 0.29549 0.0
H536 H 0.4305 1.0001 0.25208 0.0
H537 H 0.45055 0.09228 0.25516 0.0
H538 H 0.47585 0.13067 0.30167 0.0
C539 C 0.50258 0.136 0.35575 0.0
C540 C 0.48564 0.08183 0.3547 0.0
C541 C 0.46945 0.06028 0.32758 0.0
C542 C 0.45691 0.00739 0.32595 0.0
C543 C 0.4434 0.98631 0.29823 0.0
C544 C 0.44104 0.01685 0.27306 0.0
C545 C 0.4524 0.06871 0.27478 0.0
C546 C 0.46672 0.09032 0.30162 0.0
H547 H 0.37105 0.92538 0.34344 0.0
C548 C 0.40398 0.90027 0.346 0.0
H549 H 0.48385 0.89584 0.35329 0.0
H550 H 0.51197 0.11238 0.41037 0.0
H551 H 0.51537 0.05884 0.45413 0.0
H552 H 0.49285 0.96722 0.45155 0.0
H553 H 0.4668 0.92856 0.40523 0.0
C554 C 0.45082 0.92049 0.34989 0.0
C555 C 0.45955 0.97657 0.35168 0.0
C556 C 0.47446 0.99854 0.37896 0.0
C557 C 0.48745 0.05129 0.38048 0.0
C558 C 0.50211 0.07236 0.40799 0.0
C559 C 0.50407 0.04211 0.43327 0.0
C560 C 0.4914 0.99052 0.43182 0.0
C561 C 0.47666 0.96879 0.40506 0.0
H562 H 0.35571 0.99547 0.86641 0.0
C563 C 0.35995 0.03599 0.86146 0.0
H564 H 0.41224 0.09533 0.85144 0.0
H565 H 0.59457 0.96364 0.90784 0.0
H566 H 0.57369 0.01608 0.95039 0.0
H567 H 0.49734 0.07185 0.95025 0.0
H568 H 0.44112 0.07508 0.90762 0.0
C569 C 0.40672 0.05494 0.8562 0.0
C570 C 0.45232 0.02107 0.85633 0.0
C571 C 0.48537 0.02068 0.88106 0.0
C572 C 0.53 0.98951 0.88085 0.0
C573 C 0.56118 0.98806 0.90639 0.0
C574 C 0.54938 0.01763 0.93107 0.0
C575 C 0.50635 0.04896 0.93101 0.0
C576 C 0.47448 0.05054 0.90639 0.0
H577 H 0.63551 1.0001 0.85519 0.0
C578 C 0.63623 0.95864 0.8529 0.0
H579 H 0.5917 0.89127 0.85032 0.0
H580 H 0.39552 0.01157 0.80577 0.0
H581 H 0.41468 0.95709 0.76392 0.0
H582 H 0.49283 0.90386 0.76316 0.0
H583 H 0.55192 0.90447 0.8044 0.0
C584 C 0.59199 0.93251 0.85348 0.0
C585 C 0.54221 0.96006 0.85547 0.0
C586 C 0.50793 0.9588 0.83122 0.0
C587 C 0.46294 0.98949 0.83162 0.0
C588 C 0.42989 0.9885 0.80684 0.0
C589 C 0.44056 0.95757 0.78257 0.0
C590 C 0.48454 0.92761 0.78215 0.0
C591 C 0.51811 0.92827 0.80604 0.0
loop_
_geom_bond_atom_site_label_1
_geom_bond_atom_site_label_2
_geom_bond_distance
_geom_bond_site_symmetry_2
_ccdc_geom_bond_type
Co0 O1 2.216 . S
Co0 O2 2.091 . S
Co0 O4 2.004 . S
Co0 O10 2.021 . S
Co0 O12 2.137 . S
Co0 O13 2.244 . S
O1 Co0 2.216 . S
O1 C8 1.247 . S
O2 Co0 2.091 . S
O2 C8 1.261 . S
C3 O12 1.247 . S
C3 O13 1.272 . S
O4 Co0 2.004 . S
O4 C9 1.259 . S
Co5 O6 2.061 . S
Co5 O11 2.052 . S
Co5 O13 2.135 . S
O6 Co5 2.061 . S
O6 C9 1.235 . S
C7 O10 1.238 . S
C7 O11 1.241 . S
C8 O1 1.247 . S
C8 O2 1.261 . S
C9 O4 1.259 . S
C9 O6 1.235 . S
O10 Co0 2.021 . S
O10 C7 1.238 . S
O11 Co5 2.052 . S
O11 C7 1.241 . S
O12 Co0 2.137 . S
O12 C3 1.247 . S
O13 Co0 2.244 . S
O13 C3 1.272 . S
O13 Co5 2.135 . S
Co14 O15 2.216 . S
Co14 O16 2.091 . S
Co14 O18 2.004 . S
Co14 O24 2.021 . S
Co14 O26 2.137 . S
Co14 O27 2.244 . S
O15 Co14 2.216 . S
O15 C22 1.247 . S
O16 Co14 2.091 . S
O16 C22 1.261 . S
C17 O26 1.247 . S
C17 O27 1.272 . S
O18 Co14 2.004 . S
O18 C23 1.259 . S
Co19 O20 2.061 . S
Co19 O25 2.052 . S
Co19 O27 2.135 . S
O20 Co19 2.061 . S
O20 C23 1.235 . S
C21 O24 1.238 . S
C21 O25 1.241 . S
C22 O15 1.247 . S
C22 O16 1.261 . S
C23 O18 1.259 . S
C23 O20 1.235 . S
O24 Co14 2.021 . S
O24 C21 1.238 . S
O25 Co19 2.052 . S
O25 C21 1.241 . S
O26 Co14 2.137 . S
O26 C17 1.247 . S
O27 Co14 2.244 . S
O27 C17 1.272 . S
O27 Co19 2.135 . S
Co28 O29 2.216 . S
Co28 O30 2.091 . S
Co28 O32 2.004 . S
Co28 O38 2.021 . S
Co28 O40 2.137 . S
Co28 O41 2.244 . S
O29 Co28 2.216 . S
O29 C36 1.247 . S
O30 Co28 2.091 . S
O30 C36 1.261 . S
C31 O40 1.247 . S
C31 O41 1.272 . S
O32 Co28 2.004 . S
O32 C37 1.259 . S
Co33 O34 2.061 . S
Co33 O39 2.052 . S
Co33 O41 2.135 . S
O34 Co33 2.061 . S
O34 C37 1.235 . S
C35 O38 1.238 . S
C35 O39 1.241 . S
C36 O29 1.247 . S
C36 O30 1.261 . S
C37 O32 1.259 . S
C37 O34 1.235 . S
O38 Co28 2.021 . S
O38 C35 1.238 . S
O39 Co33 2.052 . S
O39 C35 1.241 . S
O40 Co28 2.137 . S
O40 C31 1.247 . S
O41 Co28 2.244 . S
O41 C31 1.272 . S
O41 Co33 2.135 . S
Co42 O43 2.216 . S
Co42 O44 2.091 . S
Co42 O46 2.004 . S
Co42 O52 2.021 . S
Co42 O54 2.137 . S
Co42 O55 2.244 . S
O43 Co42 2.216 . S
O43 C50 1.247 . S
O44 Co42 2.091 . S
O44 C50 1.261 . S
C45 O54 1.247 . S
C45 O55 1.272 . S
O46 Co42 2.004 . S
O46 C51 1.259 . S
Co47 O48 2.061 . S
Co47 O53 2.052 . S
Co47 O55 2.135 . S
O48 Co47 2.061 . S
O48 C51 1.235 . S
C49 O52 1.238 . S
C49 O53 1.241 . S
C50 O43 1.247 . S
C50 O44 1.261 . S
C51 O46 1.259 . S
C51 O48 1.235 . S
O52 Co42 2.021 . S
O52 C49 1.238 . S
O53 Co47 2.052 . S
O53 C49 1.241 . S
O54 Co42 2.137 . S
O54 C45 1.247 . S
O55 Co42 2.244 . S
O55 C45 1.272 . S
O55 Co47 2.135 . S
Co56 O57 2.216 . S
Co56 O58 2.091 . S
Co56 O60 2.004 . S
Co56 O66 2.021 . S
Co56 O68 2.137 . S
Co56 O69 2.244 . S
O57 Co56 2.216 . S
O57 C64 1.247 . S
O58 Co56 2.091 . S
O58 C64 1.261 . S
C59 O68 1.247 . S
C59 O69 1.272 . S
O60 Co56 2.004 . S
O60 C65 1.259 . S
Co61 O62 2.061 . S
Co61 O67 2.052 . S
Co61 O69 2.135 . S
O62 Co61 2.061 . S
O62 C65 1.235 . S
C63 O66 1.238 . S
C63 O67 1.241 . S
C64 O57 1.247 . S
C64 O58 1.261 . S
C65 O60 1.259 . S
C65 O62 1.235 . S
O66 Co56 2.021 . S
O66 C63 1.238 . S
O67 Co61 2.052 . S
O67 C63 1.241 . S
O68 Co56 2.137 . S
O68 C59 1.247 . S
O69 Co56 2.244 . S
O69 C59 1.272 . S
O69 Co61 2.135 . S
Co70 O71 2.216 . S
Co70 O72 2.091 . S
Co70 O74 2.004 . S
Co70 O80 2.021 . S
Co70 O82 2.137 . S
Co70 O83 2.244 . S
O71 Co70 2.216 . S
O71 C78 1.247 . S
O72 Co70 2.091 . S
O72 C78 1.261 . S
C73 O82 1.247 . S
C73 O83 1.272 . S
O74 Co70 2.004 . S
O74 C79 1.259 . S
Co75 O76 2.061 . S
Co75 O81 2.052 . S
Co75 O83 2.135 . S
O76 Co75 2.061 . S
O76 C79 1.235 . S
C77 O80 1.238 . S
C77 O81 1.241 . S
C78 O71 1.247 . S
C78 O72 1.261 . S
C79 O74 1.259 . S
C79 O76 1.235 . S
O80 Co70 2.021 . S
O80 C77 1.238 . S
O81 Co75 2.052 . S
O81 C77 1.241 . S
O82 Co70 2.137 . S
O82 C73 1.247 . S
O83 Co70 2.244 . S
O83 C73 1.272 . S
O83 Co75 2.135 . S
Co84 O85 2.216 . S
Co84 O86 2.091 . S
Co84 O88 2.004 . S
Co84 O94 2.021 . S
Co84 O96 2.137 . S
Co84 O97 2.244 . S
O85 Co84 2.216 . S
O85 C92 1.247 . S
O86 Co84 2.091 . S
O86 C92 1.261 . S
C87 O96 1.247 . S
C87 O97 1.272 . S
O88 Co84 2.004 . S
O88 C93 1.259 . S
Co89 O90 2.061 . S
Co89 O95 2.052 . S
Co89 O97 2.135 . S
O90 Co89 2.061 . S
O90 C93 1.235 . S
C91 O94 1.238 . S
C91 O95 1.241 . S
C92 O85 1.247 . S
C92 O86 1.261 . S
C93 O88 1.259 . S
C93 O90 1.235 . S
O94 Co84 2.021 . S
O94 C91 1.238 . S
O95 Co89 2.052 . S
O95 C91 1.241 . S
O96 Co84 2.137 . S
O96 C87 1.247 . S
O97 Co84 2.244 . S
O97 C87 1.272 . S
O97 Co89 2.135 . S
Co98 O99 2.216 . S
Co98 O100 2.091 . S
Co98 O102 2.004 . S
Co98 O108 2.021 . S
Co98 O110 2.137 . S
Co98 O111 2.244 . S
O99 Co98 2.216 . S
O99 C106 1.247 . S
O100 Co98 2.091 . S
O100 C106 1.261 . S
C101 O110 1.247 . S
C101 O111 1.272 . S
O102 Co98 2.004 . S
O102 C107 1.259 . S
Co103 O104 2.061 . S
Co103 O109 2.052 . S
Co103 O111 2.135 . S
O104 Co103 2.061 . S
O104 C107 1.235 . S
C105 O108 1.238 . S
C105 O109 1.241 . S
C106 O99 1.247 . S
C106 O100 1.261 . S
C107 O102 1.259 . S
C107 O104 1.235 . S
O108 Co98 2.021 . S
O108 C105 1.238 . S
O109 Co103 2.052 . S
O109 C105 1.241 . S
O110 Co98 2.137 . S
O110 C101 1.247 . S
O111 Co98 2.244 . S
O111 C101 1.272 . S
O111 Co103 2.135 . S
H112 C113 0.951 . S
C113 H112 0.951 . S
C113 C119 1.265 . S
H114 C119 0.950 . S
H115 C123 0.949 . S
H116 C124 0.950 . S
H117 C125 0.951 . S
H118 C126 0.951 . S
C119 C113 1.265 . S
C119 H114 0.950 . S
C119 C120 1.478 . S
C120 C119 1.478 . S
C120 C121 1.397 . S
C120 C137 1.394 . S
C121 C120 1.397 . S
C121 C122 1.438 1_554 S
C121 C126 1.429 . S
C122 C121 1.438 1_556 S
C122 C123 1.428 . S
C122 C135 1.394 . S
C123 H115 0.949 . S
C123 C122 1.428 . S
C123 C124 1.345 . S
C124 H116 0.950 . S
C124 C123 1.345 . S
C124 C125 1.424 1_556 S
C125 H117 0.951 . S
C125 C124 1.424 1_554 S
C125 C126 1.347 . S
C126 H118 0.951 . S
C126 C121 1.429 . S
C126 C125 1.347 . S
H127 C128 0.951 . S
C128 H127 0.951 . S
C128 C134 1.265 . S
H129 C134 0.950 . S
H130 C138 0.949 . S
H131 C139 0.950 . S
H132 C140 0.951 . S
H133 C141 0.951 . S
C134 C128 1.265 . S
C134 H129 0.950 . S
C134 C135 1.478 . S
C135 C122 1.394 . S
C135 C134 1.478 . S
C135 C136 1.397 . S
C136 C135 1.397 . S
C136 C137 1.438 1_556 S
C136 C141 1.429 . S
C137 C120 1.394 . S
C137 C136 1.438 1_554 S
C137 C138 1.428 . S
C138 H130 0.949 . S
C138 C137 1.428 . S
C138 C139 1.345 . S
C139 H131 0.950 . S
C139 C138 1.345 . S
C139 C140 1.424 1_554 S
C140 H132 0.951 . S
C140 C139 1.424 1_556 S
C140 C141 1.347 . S
C141 H133 0.951 . S
C141 C136 1.429 . S
C141 C140 1.347 . S
H142 C143 0.951 . S
C143 H142 0.951 . S
C143 C149 1.265 . S
H144 C149 0.950 . S
H145 C153 0.949 . S
H146 C154 0.950 . S
H147 C155 0.951 . S
H148 C156 0.951 . S
C149 C143 1.265 . S
C149 H144 0.950 . S
C149 C150 1.478 . S
C150 C149 1.478 . S
C150 C151 1.397 . S
C150 C167 1.394 . S
C151 C150 1.397 . S
C151 C152 1.438 . S
C151 C156 1.429 . S
C152 C151 1.438 . S
C152 C153 1.428 . S
C152 C165 1.394 . S
C153 H145 0.949 . S
C153 C152 1.428 . S
C153 C154 1.345 . S
C154 H146 0.950 . S
C154 C153 1.345 . S
C154 C155 1.424 . S
C155 H147 0.951 . S
C155 C154 1.424 . S
C155 C156 1.347 . S
C156 H148 0.951 . S
C156 C151 1.429 . S
C156 C155 1.347 . S
H157 C158 0.951 . S
C158 H157 0.951 . S
C158 C164 1.265 . S
H159 C164 0.950 . S
H160 C168 0.949 . S
H161 C169 0.950 . S
H162 C170 0.951 . S
H163 C171 0.951 . S
C164 C158 1.265 . S
C164 H159 0.950 . S
C164 C165 1.478 . S
C165 C152 1.394 . S
C165 C164 1.478 . S
C165 C166 1.397 . S
C166 C165 1.397 . S
C166 C167 1.438 . S
C166 C171 1.429 . S
C167 C150 1.394 . S
C167 C166 1.438 . S
C167 C168 1.428 . S
C168 H160 0.949 . S
C168 C167 1.428 . S
C168 C169 1.345 . S
C169 H161 0.950 . S
C169 C168 1.345 . S
C169 C170 1.424 . S
C170 H162 0.951 . S
C170 C169 1.424 . S
C170 C171 1.347 . S
C171 H163 0.951 . S
C171 C166 1.429 . S
C171 C170 1.347 . S
H172 C173 0.951 . S
C173 H172 0.951 . S
C173 C179 1.265 . S
H174 C179 0.950 . S
H175 C183 0.949 . S
H176 C184 0.950 . S
H177 C185 0.951 . S
H178 C186 0.951 . S
C179 C173 1.265 . S
C179 H174 0.950 . S
C179 C180 1.478 . S
C180 C179 1.478 . S
C180 C181 1.397 . S
C180 C197 1.394 . S
C181 C180 1.397 . S
C181 C182 1.438 1_554 S
C181 C186 1.429 . S
C182 C181 1.438 1_556 S
C182 C183 1.428 . S
C182 C195 1.394 . S
C183 H175 0.949 . S
C183 C182 1.428 . S
C183 C184 1.345 . S
C184 H176 0.950 . S
C184 C183 1.345 . S
C184 C185 1.424 . S
C185 H177 0.951 . S
C185 C184 1.424 . S
C185 C186 1.347 1_556 S
C186 H178 0.951 . S
C186 C181 1.429 . S
C186 C185 1.347 1_554 S
H187 C188 0.951 . S
C188 H187 0.951 . S
C188 C194 1.265 . S
H189 C194 0.950 . S
H190 C198 0.949 . S
H191 C199 0.950 . S
H192 C200 0.951 . S
H193 C201 0.951 . S
C194 C188 1.265 . S
C194 H189 0.950 . S
C194 C195 1.478 . S
C195 C182 1.394 . S
C195 C194 1.478 . S
C195 C196 1.397 . S
C196 C195 1.397 . S
C196 C197 1.438 1_556 S
C196 C201 1.429 . S
C197 C180 1.394 . S
C197 C196 1.438 1_554 S
C197 C198 1.428 . S
C198 H190 0.949 . S
C198 C197 1.428 . S
C198 C199 1.345 . S
C199 H191 0.950 . S
C199 C198 1.345 . S
C199 C200 1.424 . S
C200 H192 0.951 . S
C200 C199 1.424 . S
C200 C201 1.347 1_554 S
C201 H193 0.951 . S
C201 C196 1.429 . S
C201 C200 1.347 1_556 S
H202 C203 0.951 . S
C203 H202 0.951 . S
C203 C209 1.265 . S
H204 C209 0.950 . S
H205 C213 0.949 . S
H206 C214 0.950 . S
H207 C215 0.951 . S
H208 C216 0.951 . S
C209 C203 1.265 . S
C209 H204 0.950 . S
C209 C210 1.478 . S
C210 C209 1.478 . S
C210 C211 1.397 . S
C210 C227 1.394 . S
C211 C210 1.397 . S
C211 C212 1.438 . S
C211 C216 1.429 . S
C212 C211 1.438 . S
C212 C213 1.428 . S
C212 C225 1.394 . S
C213 H205 0.949 . S
C213 C212 1.428 . S
C213 C214 1.345 . S
C214 H206 0.950 . S
C214 C213 1.345 . S
C214 C215 1.424 . S
C215 H207 0.951 . S
C215 C214 1.424 . S
C215 C216 1.347 . S
C216 H208 0.951 . S
C216 C211 1.429 . S
C216 C215 1.347 . S
H217 C218 0.951 . S
C218 H217 0.951 . S
C218 C224 1.265 . S
H219 C224 0.950 . S
H220 C228 0.949 . S
H221 C229 0.950 . S
H222 C230 0.951 . S
H223 C231 0.951 . S
C224 C218 1.265 . S
C224 H219 0.950 . S
C224 C225 1.478 . S
C225 C212 1.394 . S
C225 C224 1.478 . S
C225 C226 1.397 . S
C226 C225 1.397 . S
C226 C227 1.438 . S
C226 C231 1.429 . S
C227 C210 1.394 . S
C227 C226 1.438 . S
C227 C228 1.428 . S
C228 H220 0.949 . S
C228 C227 1.428 . S
C228 C229 1.345 . S
C229 H221 0.950 . S
C229 C228 1.345 . S
C229 C230 1.424 . S
C230 H222 0.951 . S
C230 C229 1.424 . S
C230 C231 1.347 . S
C231 H223 0.951 . S
C231 C226 1.429 . S
C231 C230 1.347 . S
H232 C233 0.951 . S
C233 H232 0.951 . S
C233 C239 1.265 . S
H234 C239 0.950 . S
H235 C243 0.949 . S
H236 C244 0.950 . S
H237 C245 0.951 . S
H238 C246 0.951 . S
C239 C233 1.265 . S
C239 H234 0.950 . S
C239 C240 1.478 . S
C240 C239 1.478 . S
C240 C241 1.397 . S
C240 C257 1.394 . S
C241 C240 1.397 . S
C241 C242 1.438 . S
C241 C246 1.429 . S
C242 C241 1.438 . S
C242 C243 1.428 . S
C242 C255 1.394 . S
C243 H235 0.949 . S
C243 C242 1.428 . S
C243 C244 1.345 . S
C244 H236 0.950 . S
C244 C243 1.345 . S
C244 C245 1.424 . S
C245 H237 0.951 . S
C245 C244 1.424 . S
C245 C246 1.347 . S
C246 H238 0.951 . S
C246 C241 1.429 . S
C246 C245 1.347 . S
H247 C248 0.951 . S
C248 H247 0.951 . S
C248 C254 1.265 . S
H249 C254 0.950 . S
H250 C258 0.949 . S
H251 C259 0.950 . S
H252 C260 0.951 . S
H253 C261 0.951 . S
C254 C248 1.265 . S
C254 H249 0.950 . S
C254 C255 1.478 . S
C255 C242 1.394 . S
C255 C254 1.478 . S
C255 C256 1.397 . S
C256 C255 1.397 . S
C256 C257 1.438 . S
C256 C261 1.429 . S
C257 C240 1.394 . S
C257 C256 1.438 . S
C257 C258 1.428 . S
C258 H250 0.949 . S
C258 C257 1.428 . S
C258 C259 1.345 . S
C259 H251 0.950 . S
C259 C258 1.345 . S
C259 C260 1.424 . S
C260 H252 0.951 . S
C260 C259 1.424 . S
C260 C261 1.347 . S
C261 H253 0.951 . S
C261 C256 1.429 . S
C261 C260 1.347 . S
H262 C263 0.951 . S
C263 H262 0.951 . S
C263 C269 1.265 . S
H264 C269 0.950 . S
H265 C273 0.949 . S
H266 C274 0.950 . S
H267 C275 0.951 . S
H268 C276 0.951 . S
C269 C263 1.265 . S
C269 H264 0.950 . S
C269 C270 1.478 . S
C270 C269 1.478 . S
C270 C271 1.397 . S
C270 C287 1.394 . S
C271 C270 1.397 . S
C271 C272 1.438 . S
C271 C276 1.429 . S
C272 C271 1.438 . S
C272 C273 1.428 . S
C272 C285 1.394 . S
C273 H265 0.949 . S
C273 C272 1.428 . S
C273 C274 1.345 . S
C274 H266 0.950 . S
C274 C273 1.345 . S
C274 C275 1.424 . S
C275 H267 0.951 . S
C275 C274 1.424 . S
C275 C276 1.347 . S
C276 H268 0.951 . S
C276 C271 1.429 . S
C276 C275 1.347 . S
H277 C278 0.951 . S
C278 H277 0.951 . S
C278 C284 1.265 . S
H279 C284 0.950 . S
H280 C288 0.949 . S
H281 C289 0.950 . S
H282 C290 0.951 . S
H283 C291 0.951 . S
C284 C278 1.265 . S
C284 H279 0.950 . S
C284 C285 1.478 1_545 S
C285 C272 1.394 . S
C285 C284 1.478 1_565 S
C285 C286 1.397 . S
C286 C285 1.397 . S
C286 C287 1.438 . S
C286 C291 1.429 1_565 S
C287 C270 1.394 . S
C287 C286 1.438 . S
C287 C288 1.428 . S
C288 H280 0.949 . S
C288 C287 1.428 . S
C288 C289 1.345 . S
C289 H281 0.950 . S
C289 C288 1.345 . S
C289 C290 1.424 1_565 S
C290 H282 0.951 . S
C290 C289 1.424 1_545 S
C290 C291 1.347 . S
C291 H283 0.951 . S
C291 C286 1.429 1_545 S
C291 C290 1.347 . S
H292 C293 0.951 . S
C293 H292 0.951 . S
C293 C299 1.265 . S
H294 C299 0.950 . S
H295 C303 0.949 . S
H296 C304 0.950 . S
H297 C305 0.951 . S
H298 C306 0.951 . S
C299 C293 1.265 . S
C299 H294 0.950 . S
C299 C300 1.478 . S
C300 C299 1.478 . S
C300 C301 1.397 . S
C300 C317 1.394 . S
C301 C300 1.397 . S
C301 C302 1.438 . S
C301 C306 1.429 . S
C302 C301 1.438 . S
C302 C303 1.428 . S
C302 C315 1.394 . S
C303 H295 0.949 . S
C303 C302 1.428 . S
C303 C304 1.345 . S
C304 H296 0.950 . S
C304 C303 1.345 . S
C304 C305 1.424 . S
C305 H297 0.951 . S
C305 C304 1.424 . S
C305 C306 1.347 . S
C306 H298 0.951 . S
C306 C301 1.429 . S
C306 C305 1.347 . S
H307 C308 0.951 . S
C308 H307 0.951 . S
C308 C314 1.265 . S
H309 C314 0.950 . S
H310 C318 0.949 . S
H311 C319 0.950 . S
H312 C320 0.951 . S
H313 C321 0.951 . S
C314 C308 1.265 . S
C314 H309 0.950 . S
C314 C315 1.478 . S
C315 C302 1.394 . S
C315 C314 1.478 . S
C315 C316 1.397 . S
C316 C315 1.397 . S
C316 C317 1.438 . S
C316 C321 1.429 . S
C317 C300 1.394 . S
C317 C316 1.438 . S
C317 C318 1.428 . S
C318 H310 0.949 . S
C318 C317 1.428 . S
C318 C319 1.345 . S
C319 H311 0.950 . S
C319 C318 1.345 . S
C319 C320 1.424 . S
C320 H312 0.951 . S
C320 C319 1.424 . S
C320 C321 1.347 . S
C321 H313 0.951 . S
C321 C316 1.429 . S
C321 C320 1.347 . S
H322 C323 0.951 . S
C323 H322 0.951 . S
C323 C329 1.265 . S
H324 C329 0.950 . S
H325 C333 0.949 . S
H326 C334 0.950 . S
H327 C335 0.951 . S
H328 C336 0.951 . S
C329 C323 1.265 . S
C329 H324 0.950 . S
C329 C330 1.478 . S
C330 C329 1.478 . S
C330 C331 1.397 . S
C330 C347 1.394 . S
C331 C330 1.397 . S
C331 C332 1.438 . S
C331 C336 1.429 . S
C332 C331 1.438 . S
C332 C333 1.428 1_545 S
C332 C345 1.394 . S
C333 H325 0.949 . S
C333 C332 1.428 1_565 S
C333 C334 1.345 . S
C334 H326 0.950 . S
C334 C333 1.345 . S
C334 C335 1.424 1_565 S
C335 H327 0.951 . S
C335 C334 1.424 1_545 S
C335 C336 1.347 . S
C336 H328 0.951 . S
C336 C331 1.429 . S
C336 C335 1.347 . S
H337 C338 0.951 . S
C338 H337 0.951 . S
C338 C344 1.265 . S
H339 C344 0.950 . S
H340 C348 0.949 . S
H341 C349 0.950 . S
H342 C350 0.951 . S
H343 C351 0.951 . S
C344 C338 1.265 . S
C344 H339 0.950 . S
C344 C345 1.478 1_565 S
C345 C332 1.394 . S
C345 C344 1.478 1_545 S
C345 C346 1.397 . S
C346 C345 1.397 . S
C346 C347 1.438 . S
C346 C351 1.429 . S
C347 C330 1.394 . S
C347 C346 1.438 . S
C347 C348 1.428 . S
C348 H340 0.949 . S
C348 C347 1.428 . S
C348 C349 1.345 . S
C349 H341 0.950 . S
C349 C348 1.345 . S
C349 C350 1.424 . S
C350 H342 0.951 . S
C350 C349 1.424 . S
C350 C351 1.347 . S
C351 H343 0.951 . S
C351 C346 1.429 . S
C351 C350 1.347 . S
H352 C353 0.951 . S
C353 H352 0.951 . S
C353 C359 1.265 . S
H354 C359 0.950 . S
H355 C363 0.949 1_455 S
H356 C364 0.950 1_455 S
H357 C365 0.951 . S
H358 C366 0.951 . S
C359 C353 1.265 . S
C359 H354 0.950 . S
C359 C360 1.478 . S
C360 C359 1.478 . S
C360 C361 1.397 . S
C360 C377 1.394 . S
C361 C360 1.397 . S
C361 C362 1.438 . S
C361 C366 1.429 . S
C362 C361 1.438 . S
C362 C363 1.428 . S
C362 C375 1.394 . S
C363 H355 0.949 1_655 S
C363 C362 1.428 . S
C363 C364 1.345 . S
C364 H356 0.950 1_655 S
C364 C363 1.345 . S
C364 C365 1.424 . S
C365 H357 0.951 . S
C365 C364 1.424 . S
C365 C366 1.347 . S
C366 H358 0.951 . S
C366 C361 1.429 . S
C366 C365 1.347 . S
H367 C368 0.951 . S
C368 H367 0.951 . S
C368 C374 1.265 . S
H369 C374 0.950 1_655 S
H370 C378 0.949 . S
H371 C379 0.950 . S
H372 C380 0.951 . S
H373 C381 0.951 . S
C374 C368 1.265 . S
C374 H369 0.950 1_455 S
C374 C375 1.478 1_455 S
C375 C362 1.394 . S
C375 C374 1.478 1_655 S
C375 C376 1.397 . S
C376 C375 1.397 . S
C376 C377 1.438 . S
C376 C381 1.429 . S
C377 C360 1.394 . S
C377 C376 1.438 . S
C377 C378 1.428 . S
C378 H370 0.949 . S
C378 C377 1.428 . S
C378 C379 1.345 . S
C379 H371 0.950 . S
C379 C378 1.345 . S
C379 C380 1.424 . S
C380 H372 0.951 . S
C380 C379 1.424 . S
C380 C381 1.347 . S
C381 H373 0.951 . S
C381 C376 1.429 . S
C381 C380 1.347 . S
H382 C383 0.951 . S
C383 H382 0.951 . S
C383 C389 1.265 . S
H384 C389 0.950 . S
H385 C393 0.949 . S
H386 C394 0.950 . S
H387 C395 0.951 . S
H388 C396 0.951 . S
C389 C383 1.265 . S
C389 H384 0.950 . S
C389 C390 1.478 . S
C390 C389 1.478 . S
C390 C391 1.397 . S
C390 C407 1.394 . S
C391 C390 1.397 . S
C391 C392 1.438 . S
C391 C396 1.429 . S
C392 C391 1.438 . S
C392 C393 1.428 . S
C392 C405 1.394 . S
C393 H385 0.949 . S
C393 C392 1.428 . S
C393 C394 1.345 . S
C394 H386 0.950 . S
C394 C393 1.345 . S
C394 C395 1.424 . S
C395 H387 0.951 . S
C395 C394 1.424 . S
C395 C396 1.347 . S
C396 H388 0.951 . S
C396 C391 1.429 . S
C396 C395 1.347 . S
H397 C398 0.951 . S
C398 H397 0.951 . S
C398 C404 1.265 . S
H399 C404 0.950 . S
H400 C408 0.949 . S
H401 C409 0.950 . S
H402 C410 0.951 . S
H403 C411 0.951 . S
C404 C398 1.265 . S
C404 H399 0.950 . S
C404 C405 1.478 . S
C405 C392 1.394 . S
C405 C404 1.478 . S
C405 C406 1.397 . S
C406 C405 1.397 . S
C406 C407 1.438 . S
C406 C411 1.429 . S
C407 C390 1.394 . S
C407 C406 1.438 . S
C407 C408 1.428 . S
C408 H400 0.949 . S
C408 C407 1.428 . S
C408 C409 1.345 . S
C409 H401 0.950 . S
C409 C408 1.345 . S
C409 C410 1.424 . S
C410 H402 0.951 . S
C410 C409 1.424 . S
C410 C411 1.347 . S
C411 H403 0.951 . S
C411 C406 1.429 . S
C411 C410 1.347 . S
H412 C413 0.951 . S
C413 H412 0.951 . S
C413 C419 1.265 . S
H414 C419 0.950 . S
H415 C423 0.949 1_655 S
H416 C424 0.950 1_655 S
H417 C425 0.951 . S
H418 C426 0.951 . S
C419 C413 1.265 . S
C419 H414 0.950 . S
C419 C420 1.478 . S
C420 C419 1.478 . S
C420 C421 1.397 . S
C420 C437 1.394 . S
C421 C420 1.397 . S
C421 C422 1.438 . S
C421 C426 1.429 . S
C422 C421 1.438 . S
C422 C423 1.428 . S
C422 C435 1.394 . S
C423 H415 0.949 1_455 S
C423 C422 1.428 . S
C423 C424 1.345 . S
C424 H416 0.950 1_455 S
C424 C423 1.345 . S
C424 C425 1.424 . S
C425 H417 0.951 . S
C425 C424 1.424 . S
C425 C426 1.347 . S
C426 H418 0.951 . S
C426 C421 1.429 . S
C426 C425 1.347 . S
H427 C428 0.951 . S
C428 H427 0.951 . S
C428 C434 1.265 . S
H429 C434 0.950 1_455 S
H430 C438 0.949 . S
H431 C439 0.950 . S
H432 C440 0.951 . S
H433 C441 0.951 . S
C434 C428 1.265 . S
C434 H429 0.950 1_655 S
C434 C435 1.478 1_655 S
C435 C422 1.394 . S
C435 C434 1.478 1_455 S
C435 C436 1.397 . S
C436 C435 1.397 . S
C436 C437 1.438 . S
C436 C441 1.429 . S
C437 C420 1.394 . S
C437 C436 1.438 . S
C437 C438 1.428 . S
C438 H430 0.949 . S
C438 C437 1.428 . S
C438 C439 1.345 . S
C439 H431 0.950 . S
C439 C438 1.345 . S
C439 C440 1.424 . S
C440 H432 0.951 . S
C440 C439 1.424 . S
C440 C441 1.347 . S
C441 H433 0.951 . S
C441 C436 1.429 . S
C441 C440 1.347 . S
H442 C443 0.951 . S
C443 H442 0.951 . S
C443 C449 1.265 . S
H444 C449 0.950 . S
H445 C453 0.949 . S
H446 C454 0.950 . S
H447 C455 0.951 . S
H448 C456 0.951 . S
C449 C443 1.265 . S
C449 H444 0.950 . S
C449 C450 1.478 . S
C450 C449 1.478 . S
C450 C451 1.397 . S
C450 C467 1.394 . S
C451 C450 1.397 . S
C451 C452 1.438 . S
C451 C456 1.429 . S
C452 C451 1.438 . S
C452 C453 1.428 . S
C452 C465 1.394 . S
C453 H445 0.949 . S
C453 C452 1.428 . S
C453 C454 1.345 . S
C454 H446 0.950 . S
C454 C453 1.345 . S
C454 C455 1.424 . S
C455 H447 0.951 . S
C455 C454 1.424 . S
C455 C456 1.347 . S
C456 H448 0.951 . S
C456 C451 1.429 . S
C456 C455 1.347 . S
H457 C458 0.951 . S
C458 H457 0.951 . S
C458 C464 1.265 . S
H459 C464 0.950 . S
H460 C468 0.949 . S
H461 C469 0.950 . S
H462 C470 0.951 . S
H463 C471 0.951 . S
C464 C458 1.265 . S
C464 H459 0.950 . S
C464 C465 1.478 . S
C465 C452 1.394 . S
C465 C464 1.478 . S
C465 C466 1.397 . S
C466 C465 1.397 . S
C466 C467 1.438 . S
C466 C471 1.429 . S
C467 C450 1.394 . S
C467 C466 1.438 . S
C467 C468 1.428 . S
C468 H460 0.949 . S
C468 C467 1.428 . S
C468 C469 1.345 . S
C469 H461 0.950 . S
C469 C468 1.345 . S
C469 C470 1.424 . S
C470 H462 0.951 . S
C470 C469 1.424 . S
C470 C471 1.347 . S
C471 H463 0.951 . S
C471 C466 1.429 . S
C471 C470 1.347 . S
H472 C473 0.951 . S
C473 H472 0.951 . S
C473 C479 1.265 . S
H474 C479 0.950 . S
H475 C483 0.949 . S
H476 C484 0.950 1_455 S
H477 C485 0.951 . S
H478 C486 0.951 . S
C479 C473 1.265 . S
C479 H474 0.950 . S
C479 C480 1.478 . S
C480 C479 1.478 . S
C480 C481 1.397 . S
C480 C497 1.394 . S
C481 C480 1.397 . S
C481 C482 1.438 1_655 S
C481 C486 1.429 . S
C482 C481 1.438 1_455 S
C482 C483 1.428 . S
C482 C495 1.394 . S
C483 H475 0.949 . S
C483 C482 1.428 . S
C483 C484 1.345 1_455 S
C484 H476 0.950 1_655 S
C484 C483 1.345 1_655 S
C484 C485 1.424 . S
C485 H477 0.951 . S
C485 C484 1.424 . S
C485 C486 1.347 . S
C486 H478 0.951 . S
C486 C481 1.429 . S
C486 C485 1.347 . S
H487 C488 0.951 . S
C488 H487 0.951 . S
C488 C494 1.265 . S
H489 C494 0.950 . S
H490 C498 0.949 . S
H491 C499 0.950 1_655 S
H492 C500 0.951 . S
H493 C501 0.951 . S
C494 C488 1.265 . S
C494 H489 0.950 . S
C494 C495 1.478 . S
C495 C482 1.394 . S
C495 C494 1.478 . S
C495 C496 1.397 . S
C496 C495 1.397 . S
C496 C497 1.438 1_455 S
C496 C501 1.429 . S
C497 C480 1.394 . S
C497 C496 1.438 1_655 S
C497 C498 1.428 . S
C498 H490 0.949 . S
C498 C497 1.428 . S
C498 C499 1.345 1_655 S
C499 H491 0.950 1_455 S
C499 C498 1.345 1_455 S
C499 C500 1.424 . S
C500 H492 0.951 . S
C500 C499 1.424 . S
C500 C501 1.347 . S
C501 H493 0.951 . S
C501 C496 1.429 . S
C501 C500 1.347 . S
H502 C503 0.951 . S
C503 H502 0.951 . S
C503 C509 1.265 . S
H504 C509 0.950 . S
H505 C513 0.949 . S
H506 C514 0.950 . S
H507 C515 0.951 . S
H508 C516 0.951 1_655 S
C509 C503 1.265 . S
C509 H504 0.950 . S
C509 C510 1.478 . S
C510 C509 1.478 . S
C510 C511 1.397 1_655 S
C510 C527 1.394 . S
C511 C510 1.397 1_455 S
C511 C512 1.438 . S
C511 C516 1.429 . S
C512 C511 1.438 . S
C512 C513 1.428 . S
C512 C525 1.394 . S
C513 H505 0.949 . S
C513 C512 1.428 . S
C513 C514 1.345 . S
C514 H506 0.950 . S
C514 C513 1.345 . S
C514 C515 1.424 . S
C515 H507 0.951 . S
C515 C514 1.424 . S
C515 C516 1.347 . S
C516 H508 0.951 1_455 S
C516 C511 1.429 . S
C516 C515 1.347 . S
H517 C518 0.951 . S
C518 H517 0.951 . S
C518 C524 1.265 . S
H519 C524 0.950 . S
H520 C528 0.949 . S
H521 C529 0.950 . S
H522 C530 0.951 . S
H523 C531 0.951 1_455 S
C524 C518 1.265 . S
C524 H519 0.950 . S
C524 C525 1.478 . S
C525 C512 1.394 . S
C525 C524 1.478 . S
C525 C526 1.397 1_455 S
C526 C525 1.397 1_655 S
C526 C527 1.438 . S
C526 C531 1.429 . S
C527 C510 1.394 . S
C527 C526 1.438 . S
C527 C528 1.428 . S
C528 H520 0.949 . S
C528 C527 1.428 . S
C528 C529 1.345 . S
C529 H521 0.950 . S
C529 C528 1.345 . S
C529 C530 1.424 . S
C530 H522 0.951 . S
C530 C529 1.424 . S
C530 C531 1.347 . S
C531 H523 0.951 1_655 S
C531 C526 1.429 . S
C531 C530 1.347 . S
H532 C533 0.951 . S
C533 H532 0.951 . S
C533 C539 1.265 . S
H534 C539 0.950 . S
H535 C543 0.949 . S
H536 C544 0.950 . S
H537 C545 0.951 . S
H538 C546 0.951 . S
C539 C533 1.265 . S
C539 H534 0.950 . S
C539 C540 1.478 . S
C540 C539 1.478 . S
C540 C541 1.397 . S
C540 C557 1.394 . S
C541 C540 1.397 . S
C541 C542 1.438 1_545 S
C541 C546 1.429 . S
C542 C541 1.438 1_565 S
C542 C543 1.428 . S
C542 C555 1.394 . S
C543 H535 0.949 . S
C543 C542 1.428 . S
C543 C544 1.345 1_565 S
C544 H536 0.950 . S
C544 C543 1.345 1_545 S
C544 C545 1.424 . S
C545 H537 0.951 . S
C545 C544 1.424 . S
C545 C546 1.347 . S
C546 H538 0.951 . S
C546 C541 1.429 . S
C546 C545 1.347 . S
H547 C548 0.951 . S
C548 H547 0.951 . S
C548 C554 1.265 . S
H549 C554 0.950 . S
H550 C558 0.949 . S
H551 C559 0.950 . S
H552 C560 0.951 . S
H553 C561 0.951 . S
C554 C548 1.265 . S
C554 H549 0.950 . S
C554 C555 1.478 . S
C555 C542 1.394 . S
C555 C554 1.478 . S
C555 C556 1.397 . S
C556 C555 1.397 . S
C556 C557 1.438 1_565 S
C556 C561 1.429 . S
C557 C540 1.394 . S
C557 C556 1.438 1_545 S
C557 C558 1.428 . S
C558 H550 0.949 . S
C558 C557 1.428 . S
C558 C559 1.345 1_545 S
C559 H551 0.950 . S
C559 C558 1.345 1_565 S
C559 C560 1.424 . S
C560 H552 0.951 . S
C560 C559 1.424 . S
C560 C561 1.347 . S
C561 H553 0.951 . S
C561 C556 1.429 . S
C561 C560 1.347 . S
H562 C563 0.951 . S
C563 H562 0.951 . S
C563 C569 1.265 . S
H564 C569 0.950 . S
H565 C573 0.949 . S
H566 C574 0.950 . S
H567 C575 0.951 . S
H568 C576 0.951 . S
C569 C563 1.265 . S
C569 H564 0.950 . S
C569 C570 1.478 . S
C570 C569 1.478 . S
C570 C571 1.397 . S
C570 C587 1.394 . S
C571 C570 1.397 . S
C571 C572 1.438 1_545 S
C571 C576 1.429 . S
C572 C571 1.438 1_565 S
C572 C573 1.428 . S
C572 C585 1.394 . S
C573 H565 0.949 . S
C573 C572 1.428 . S
C573 C574 1.345 . S
C574 H566 0.950 . S
C574 C573 1.345 . S
C574 C575 1.424 1_565 S
C575 H567 0.951 . S
C575 C574 1.424 1_545 S
C575 C576 1.347 . S
C576 H568 0.951 . S
C576 C571 1.429 . S
C576 C575 1.347 . S
H577 C578 0.951 . S
C578 H577 0.951 . S
C578 C584 1.265 . S
H579 C584 0.950 . S
H580 C588 0.949 . S
H581 C589 0.950 . S
H582 C590 0.951 . S
H583 C591 0.951 . S
C584 C578 1.265 . S
C584 H579 0.950 . S
C584 C585 1.478 . S
C585 C572 1.394 . S
C585 C584 1.478 . S
C585 C586 1.397 . S
C586 C585 1.397 . S
C586 C587 1.438 1_565 S
C586 C591 1.429 . S
C587 C570 1.394 . S
C587 C586 1.438 1_545 S
C587 C588 1.428 . S
C588 H580 0.949 . S
C588 C587 1.428 . S
C588 C589 1.345 . S
C589 H581 0.950 . S
C589 C588 1.345 . S
C589 C590 1.424 1_545 S
C590 H582 0.951 . S
C590 C589 1.424 1_565 S
C590 C591 1.347 . S
C591 H583 0.951 . S
C591 C586 1.429 . S
C591 C590 1.347 . S
C113 C7 1.250 . S
C128 C77 1.279 . S
C143 C21 1.308 . S
C158 C91 1.340 . S
C173 C35 1.340 . S
C188 C105 1.307 . S
C203 C63 1.250 . S
C218 C49 1.282 . S
C233 C8 1.647 . S
C248 C59 1.624 . S
C263 C22 1.647 . S
C278 C73 1.640 . S
C293 C87 1.598 . S
C308 C36 1.617 . S
C323 C50 1.615 . S
C338 C101 1.574 . S
C353 C64 1.623 . S
C368 C3 1.610 . S
C383 C17 1.581 . S
C398 C78 1.612 . S
C413 C92 1.625 . S
C428 C31 1.614 . S
C443 C45 1.575 . S
C458 C106 1.612 . S
C473 C37 0.401 . S
C488 C9 0.400 . S
C503 C51 0.401 . S
C518 C23 0.401 . S
C533 C65 0.697 . S
C548 C93 0.698 . S
C563 C79 0.399 . S
C578 C107 0.404 . S
