# Generated by pormake.
# Topology uni, (4)-cn, num edge types: 1
# Building blocks:
#     Node 0, Type 0, BuildingBlock: NAHDIM_clean_sbu_0, # of connection points: 4
#     Node 1, Type 0, BuildingBlock: NAHDIM_clean_sbu_0, # of connection points: 4
#     Node 2, Type 0, BuildingBlock: NAHDIM_clean_sbu_0, # of connection points: 4
#     Node 3, Type 0, BuildingBlock: NAHDIM_clean_sbu_0, # of connection points: 4
#     Node 4, Type 0, BuildingBlock: NAHDIM_clean_sbu_0, # of connection points: 4
#     Node 5, Type 0, BuildingBlock: NAHDIM_clean_sbu_0, # of connection points: 4
#     Edge 6, Type (0, 0), BuildingBlock: UVAHIK_clean_linker_0, # of connection points: 2
#     Edge 7, Type (0, 0), BuildingBlock: UVAHIK_clean_linker_0, # of connection points: 2
#     Edge 8, Type (0, 0), BuildingBlock: UVAHIK_clean_linker_0, # of connection points: 2
#     Edge 9, Type (0, 0), BuildingBlock: UVAHIK_clean_linker_0, # of connection points: 2
#     Edge 10, Type (0, 0), BuildingBlock: UVAHIK_clean_linker_0, # of connection points: 2
#     Edge 11, Type (0, 0), BuildingBlock: UVAHIK_clean_linker_0, # of connection points: 2
#     Edge 12, Type (0, 0), BuildingBlock: UVAHIK_clean_linker_0, # of connection points: 2
#     Edge 13, Type (0, 0), BuildingBlock: UVAHIK_clean_linker_0, # of connection points: 2
#     Edge 14, Type (0, 0), BuildingBlock: UVAHIK_clean_linker_0, # of connection points: 2
#     Edge 15, Type (0, 0), BuildingBlock: UVAHIK_clean_linker_0, # of connection points: 2
#     Edge 16, Type (0, 0), BuildingBlock: UVAHIK_clean_linker_0, # of connection points: 2
#     Edge 17, Type (0, 0), BuildingBlock: UVAHIK_clean_linker_0, # of connection points: 2
# Relax obj value: 0.045
# Max RMSD: 0.078
# Mean RMSD: 0.078
data_MOF--net-uni--node1-NAHDIM_clean_sbu_0--edge1-UVAHIK_clean_linker_0
_symmetry_space_group_name_H-M    P1
_symmetry_Int_Tables_number       1
_symmetry_cell_setting            triclinic
loop_
_symmetry_equiv_pos_as_xyz
'x, y, z'
_cell_length_a     50.351301
_cell_length_b     50.359903
_cell_length_c     30.126314
_cell_angle_alpha  90.023759
_cell_angle_beta   90.03003
_cell_angle_gamma 119.93165
loop_
_atom_site_label
_atom_site_type_symbol
_atom_site_fract_x
_atom_site_fract_y
_atom_site_fract_z
_atom_type_partial_charge
C0 C 0.65471 0.96542 0.0906 0.0
O1 O 0.66608 0.98992 0.11593 0.0
O2 O 0.67794 0.03744 0.03124 0.0
Zn3 Zn 0.63593 0.00137 0.04248 0.0
O4 O 0.61628 0.00919 0.09512 0.0
C5 C 0.61548 0.01616 0.96257 0.0
O6 O 0.63932 0.04315 0.9711 0.0
O7 O 0.64017 0.96462 0.05566 0.0
C8 C 0.60882 0.02986 0.09552 0.0
O9 O 0.61421 0.04721 0.06033 0.0
C10 C 0.69273 0.05873 0.05919 0.0
O11 O 0.68078 0.05737 0.09845 0.0
O12 O 0.60932 0.99394 0.98859 0.0
C13 C 0.70677 0.64422 0.26204 0.0
O14 O 0.68728 0.64317 0.29192 0.0
O15 O 0.6617 0.67679 0.18984 0.0
Zn16 Zn 0.65843 0.63629 0.20391 0.0
O17 O 0.62833 0.61482 0.25337 0.0
C18 C 0.61516 0.60389 0.13837 0.0
O19 O 0.60161 0.6158 0.16167 0.0
O20 O 0.69957 0.64192 0.22118 0.0
C21 C 0.61101 0.62359 0.2708 0.0
O22 O 0.61232 0.64891 0.25679 0.0
C23 C 0.6757 0.70059 0.21387 0.0
O24 O 0.68922 0.69939 0.25049 0.0
O25 O 0.64181 0.60964 0.14981 0.0
C26 C 0.08052 0.71126 0.42162 0.0
O27 O 0.05805 0.69562 0.44963 0.0
O28 O 0.0066 0.65921 0.36091 0.0
Zn29 Zn 0.0451 0.65736 0.37118 0.0
O30 O 0.03992 0.63011 0.42283 0.0
C31 C 0.04515 0.64365 0.27877 0.0
O32 O 0.03283 0.6612 0.27514 0.0
O33 O 0.08018 0.69951 0.38413 0.0
C34 C 0.01766 0.60284 0.42559 0.0
O35 O -0.00308 0.59204 0.39396 0.0
C36 C 0.98772 0.6564 0.39103 0.0
O37 O -0.0069 0.6522 0.43235 0.0
O38 O 0.05334 0.6395 0.31683 0.0
C39 C 0.39773 0.08417 0.59688 0.0
O40 O 0.39845 0.0662 0.62788 0.0
O41 O 0.36739 0.00613 0.52751 0.0
Zn42 Zn 0.40758 0.04371 0.54152 0.0
O43 O 0.42915 0.03639 0.59235 0.0
C44 C 0.44253 0.03366 0.47886 0.0
O45 O 0.43291 0.0095 0.50454 0.0
O46 O 0.40108 0.07901 0.55654 0.0
C47 C 0.42082 0.01067 0.61063 0.0
O48 O 0.39591 0.98619 0.59671 0.0
C49 C 0.34378 -0.00437 0.55203 0.0
O50 O 0.34505 0.00962 0.58944 0.0
O51 O 0.43444 0.05326 0.48777 0.0
C52 C 0.33952 0.40267 0.76077 0.0
O53 O 0.35771 0.40096 0.79048 0.0
O54 O 0.38292 0.36979 0.69161 0.0
Zn55 Zn 0.38857 0.41144 0.70434 0.0
O56 O 0.41746 0.43095 0.75559 0.0
C57 C 0.42396 0.43307 0.62547 0.0
O58 O 0.42905 0.41063 0.6356 0.0
O59 O 0.34782 0.40717 0.72032 0.0
C60 C 0.44309 0.43205 0.75993 0.0
O61 O 0.45224 0.4199 0.7292 0.0
C62 C 0.38147 0.35131 0.72145 0.0
O63 O 0.38298 0.35904 0.76342 0.0
O64 O 0.40655 0.43812 0.65031 0.0
C65 C 0.96622 0.32822 0.91404 0.0
O66 O -0.00642 0.33416 0.92687 0.0
O67 O 0.0372 0.38191 0.86258 0.0
Zn68 Zn 0.00103 0.38759 0.87416 0.0
O69 O 0.0109 0.41781 0.92384 0.0
C70 C 0.01657 0.43077 0.80664 0.0
O71 O 0.04157 0.44313 0.831 0.0
O72 O 0.96368 0.34771 0.89032 0.0
C73 C -0.00224 0.43374 0.92567 0.0
O74 O 0.9773 0.42971 0.89535 0.0
C75 C 0.05763 0.38738 0.89159 0.0
O76 O 0.05464 0.39587 0.93166 0.0
O77 O -0.00594 0.40521 0.81853 0.0
C78 C 0.5884 0.01537 0.17267 0.0
C79 C 0.59434 0.03427 0.13539 0.0
C80 C 0.57444 0.01915 0.21024 0.0
C81 C 0.52552 0.05005 0.24687 0.0
H82 H 0.55135 0.03986 0.36387 0.0
C83 C 0.46996 0.06123 0.40936 0.0
C84 C 0.46231 0.03759 0.44029 0.0
C85 C 0.4882 0.06425 0.37254 0.0
C86 C 0.54383 0.04266 0.3314 0.0
H87 H 0.5905 0.07217 0.10846 0.0
H88 H 0.56628 0.07892 0.17441 0.0
H89 H 0.57959 0.03913 0.29865 0.0
H90 H 0.46804 -0.00116 0.45711 0.0
H91 H 0.4997 0.00413 0.39312 0.0
H92 H 0.48949 0.05321 0.27981 0.0
C93 C 0.57216 0.06097 0.1743 0.0
C94 C 0.55995 0.04219 0.29405 0.0
C95 C 0.58615 0.05717 0.13661 0.0
C96 C 0.4735 0.0173 0.43393 0.0
C97 C 0.49184 0.02045 0.39741 0.0
C98 C 0.50942 0.05061 0.28432 0.0
C99 C 0.56614 0.04196 0.21151 0.0
C100 C 0.55062 0.04526 0.2513 0.0
C101 C 0.49933 0.04388 0.36626 0.0
C102 C 0.51806 0.04632 0.32689 0.0
H103 H 0.59432 -0.00256 0.17281 0.0
H104 H 0.56965 0.00377 0.23803 0.0
H105 H 0.51758 0.0522 0.21437 0.0
H106 H 0.46168 0.07722 0.41338 0.0
H107 H 0.49376 0.08263 0.34916 0.0
C108 C 0.58655 0.57676 0.31839 0.0
C109 C 0.58906 0.60478 0.30578 0.0
C110 C 0.56562 0.5586 0.35084 0.0
C111 C 0.52193 0.56142 0.44617 0.0
H112 H 0.47621 0.4733 0.42945 0.0
C113 C 0.43628 0.47838 0.57703 0.0
C114 C 0.43909 0.45253 0.58636 0.0
C115 C 0.4516 0.49717 0.54075 0.0
C116 C 0.48891 0.49786 0.43469 0.0
H117 H 0.57162 0.63581 0.31761 0.0
H118 H 0.53494 0.60393 0.37461 0.0
H119 H 0.50875 0.50609 0.36987 0.0
H120 H 0.45987 0.42596 0.56465 0.0
H121 H 0.48659 0.45869 0.50186 0.0
H122 H 0.50252 0.55306 0.51143 0.0
C123 C 0.54933 0.59616 0.35932 0.0
C124 C 0.50753 0.51662 0.40059 0.0
C125 C 0.57025 0.61434 0.3266 0.0
C126 C 0.45716 0.44565 0.55839 0.0
C127 C 0.47233 0.46431 0.52216 0.0
C128 C 0.50327 0.5426 0.48038 0.0
C129 C 0.54671 0.56802 0.37157 0.0
C130 C 0.52474 0.54854 0.40629 0.0
C131 C 0.46984 0.49034 0.513 0.0
C132 C 0.48707 0.51057 0.4753 0.0
H133 H 0.60075 0.56874 0.30315 0.0
H134 H 0.56453 0.5373 0.36011 0.0
H135 H 0.53508 0.58593 0.45162 0.0
H136 H 0.4225 0.48428 0.59797 0.0
H137 H 0.44909 0.51696 0.53431 0.0
C138 C 0.98898 0.43301 0.73854 0.0
C139 C 0.01494 0.44651 0.76621 0.0
C140 C 0.9879 0.44803 0.7001 0.0
C141 C 0.03842 0.50878 0.62153 0.0
H142 H 0.96477 0.51096 0.59049 0.0
C143 C 0.03945 0.59434 0.49513 0.0
C144 C 0.01568 0.58342 0.46367 0.0
C145 C 0.03815 0.57595 0.53059 0.0
C146 C 0.98537 0.51022 0.59847 0.0
H147 H 0.05991 0.48649 0.77556 0.0
H148 H 0.05783 0.51274 0.70916 0.0
H149 H 0.96467 0.48172 0.6553 0.0
H150 H 0.97168 0.54473 0.44511 0.0
H151 H 0.96942 0.51254 0.50742 0.0
H152 H 0.05928 0.53766 0.56525 0.0
C153 C 0.03854 0.49034 0.71657 0.0
C154 C 0.98531 0.49347 0.63552 0.0
C155 C 0.03964 0.47535 0.75484 0.0
C156 C 0.99038 0.55379 0.46877 0.0
C157 C 0.989 0.53541 0.50451 0.0
C158 C 0.0385 0.52558 0.5847 0.0
C159 C 0.01275 0.47681 0.68862 0.0
C160 C 0.012 0.49293 0.6478 0.0
C161 C 0.01301 0.54625 0.53556 0.0
C162 C 0.01212 0.52683 0.57312 0.0
H163 H 0.96958 0.41077 0.74639 0.0
H164 H 0.9678 0.4369 0.67906 0.0
H165 H 0.05914 0.50828 0.6295 0.0
H166 H 0.05923 0.61709 0.49229 0.0
H167 H 0.05678 0.5851 0.55439 0.0
C168 C 0.56904 0.98393 0.91565 0.0
C169 C 0.59555 0.0122 0.92413 0.0
C170 C 0.54983 0.98078 0.88003 0.0
C171 C 0.54838 0.01738 0.77421 0.0
H172 H 0.46051 0.97584 0.79316 0.0
C173 C 0.46776 0.03427 0.65819 0.0
C174 C 0.43989 0.00838 0.64611 0.0
C175 C 0.48629 0.03221 0.69084 0.0
C176 C 0.48496 0.98714 0.78718 0.0
H177 H 0.62282 0.05923 0.90163 0.0
H178 H 0.5893 0.05382 0.84007 0.0
H179 H 0.49408 0.97651 0.85226 0.0
H180 H 0.40946 0.96005 0.65921 0.0
H181 H 0.44197 0.95651 0.71655 0.0
H182 H 0.53935 0.02854 0.70953 0.0
C183 C 0.5835 0.03395 0.86047 0.0
C184 C 0.50418 0.9875 0.82098 0.0
C185 C 0.60263 0.0371 0.896 0.0
C186 C 0.43081 0.98041 0.66777 0.0
C187 C 0.44934 0.9784 0.70069 0.0
C188 C 0.5292 0.01709 0.74054 0.0
C189 C 0.55683 0.00581 0.85215 0.0
C190 C 0.53615 0.00309 0.81511 0.0
C191 C 0.47737 0.00425 0.71232 0.0
C192 C 0.49734 0.00242 0.74693 0.0
H193 H 0.56298 0.96429 0.93669 0.0
H194 H 0.52958 0.95873 0.87422 0.0
H195 H 0.57285 0.02905 0.76831 0.0
H196 H 0.47542 0.0562 0.64229 0.0
H197 H 0.50751 0.05266 0.6996 0.0
C198 C 0.56889 0.57604 0.09037 0.0
C199 C 0.59921 0.58381 0.10009 0.0
C200 C 0.55341 0.55696 0.05461 0.0
C201 C 0.56523 0.52997 0.94761 0.0
H202 H 0.47961 0.46837 0.96168 0.0
C203 C 0.49139 0.44996 0.80415 0.0
C204 C 0.46217 0.44682 0.79956 0.0
C205 C 0.50931 0.46426 0.84166 0.0
C206 C 0.50347 0.48556 0.95717 0.0
H207 H 0.63716 0.57772 0.07973 0.0
H208 H 0.60996 0.54427 0.01684 0.0
H209 H 0.50899 0.49783 0.02588 0.0
H210 H 0.4288 0.45612 0.83082 0.0
H211 H 0.46001 0.48112 0.89571 0.0
H212 H 0.55944 0.51806 0.87858 0.0
C213 C 0.59829 0.5531 0.03701 0.0
C214 C 0.52028 0.50241 0.99392 0.0
C215 C 0.61379 0.57214 0.07307 0.0
C216 C 0.45119 0.4581 0.83329 0.0
C217 C 0.46899 0.47224 0.87071 0.0
C218 C 0.54835 0.51308 0.91072 0.0
C219 C 0.56788 0.54522 0.02759 0.0
C220 C 0.55114 0.52526 0.98937 0.0
C221 C 0.49824 0.47549 0.87536 0.0
C222 C 0.51711 0.49118 0.91498 0.0
H223 H 0.55698 0.58467 0.11042 0.0
H224 H 0.53017 0.55174 0.04775 0.0
H225 H 0.58893 0.54756 0.94305 0.0
H226 H 0.50049 0.44148 0.77875 0.0
H227 H 0.53169 0.46628 0.84448 0.0
C228 C -0.0061 0.47693 0.96003 0.0
C229 C 0.00581 0.45695 0.96094 0.0
C230 C 0.00161 0.499 0.99316 0.0
C231 C 0.02773 0.51595 0.1085 0.0
H232 H 0.04706 0.59859 0.07857 0.0
C233 C 0.06017 0.60802 0.24345 0.0
C234 C 0.04646 0.62635 0.23996 0.0
C235 C 0.05888 0.58948 0.20805 0.0
C236 C 0.04149 0.57555 0.08751 0.0
H237 H 0.03522 0.44451 -0.00271 0.0
H238 H 0.04852 0.48299 0.05531 0.0
H239 H 0.03716 0.56162 0.01946 0.0
H240 H 0.02148 0.64031 0.19606 0.0
H241 H 0.01872 0.6076 0.13473 0.0
H242 H 0.03121 0.52947 0.17646 0.0
C243 C 0.03314 0.48146 0.029 0.0
C244 C 0.03585 0.55441 0.05365 0.0
C245 C 0.02561 0.45952 0.99569 0.0
C246 C 0.03233 0.62651 0.19981 0.0
C247 C 0.03089 0.60784 0.16452 0.0
C248 C 0.03318 0.53702 0.14235 0.0
C249 C 0.02123 0.50143 0.02805 0.0
C250 C 0.02865 0.52431 0.06383 0.0
C251 C 0.04371 0.58873 0.16846 0.0
C252 C 0.03987 0.567 0.13229 0.0
H253 H 0.97862 0.47558 0.93369 0.0
H254 H -0.00822 0.51384 0.99186 0.0
H255 H 0.02186 0.4928 0.11736 0.0
H256 H 0.07144 0.60755 0.27383 0.0
H257 H 0.06948 0.57547 0.21191 0.0
C258 C 0.6613 0.72997 0.16174 0.0
C259 C 0.67588 0.72902 0.20102 0.0
C260 C 0.66087 0.75651 0.14977 0.0
C261 C 0.66765 0.82706 0.19654 0.0
H262 H 0.6791 0.85321 0.07355 0.0
C263 C 0.67464 0.94018 0.14166 0.0
C264 C 0.65862 0.93915 0.10288 0.0
C265 C 0.67813 0.9153 0.1536 0.0
C266 C 0.67558 0.84604 0.10796 0.0
H267 H 0.70167 0.75531 0.25839 0.0
H268 H 0.70105 0.80181 0.23728 0.0
H269 H 0.68316 0.80861 0.09456 0.0
H270 H 0.63374 0.9112 0.04615 0.0
H271 H 0.6396 0.86767 0.06723 0.0
H272 H 0.65983 0.86433 0.20988 0.0
C273 C 0.68971 0.78186 0.216 0.0
C274 C 0.67793 0.82052 0.12 0.0
C275 C 0.69019 0.75528 0.22796 0.0
C276 C 0.64628 0.91275 0.07618 0.0
C277 C 0.64979 0.88788 0.08812 0.0
C278 C 0.66529 0.85258 0.18449 0.0
C279 C 0.67498 0.78272 0.1768 0.0
C280 C 0.67378 0.81061 0.16437 0.0
C281 C 0.6657 0.88885 0.12701 0.0
C282 C 0.66903 0.86224 0.14001 0.0
H283 H 0.64998 0.71012 0.14026 0.0
H284 H 0.64896 0.75629 0.1197 0.0
H285 H 0.66392 0.81975 0.23089 0.0
H286 H 0.68452 0.96022 0.16289 0.0
H287 H 0.69084 0.91691 0.18347 0.0
C288 C 0.93895 0.65516 0.4121 0.0
C289 C 0.95962 0.65718 0.37916 0.0
C290 C 0.91216 0.65536 0.40055 0.0
C291 C 0.87656 0.67604 0.30925 0.0
H292 H 0.80055 0.6194 0.36803 0.0
C293 C 0.75793 0.64974 0.24433 0.0
C294 C 0.73642 0.6475 0.27599 0.0
C295 C 0.78567 0.65228 0.25774 0.0
C296 C 0.82166 0.6356 0.35167 0.0
H297 H 0.96842 0.66107 0.30824 0.0
H298 H 0.92159 0.66096 0.28815 0.0
H299 H 0.84811 0.6215 0.39029 0.0
H300 H 0.72731 0.64648 0.34657 0.0
H301 H 0.77573 0.65098 0.36986 0.0
H302 H 0.84995 0.68982 0.27024 0.0
C303 C 0.92626 0.65973 0.32296 0.0
C304 C 0.84892 0.63684 0.36446 0.0
C305 C 0.95304 0.6596 0.33449 0.0
C306 C 0.74333 0.64807 0.32131 0.0
C307 C 0.77101 0.65049 0.3347 0.0
C308 C 0.84928 0.67472 0.29636 0.0
C309 C 0.90546 0.65754 0.35582 0.0
C310 C 0.87666 0.65697 0.34325 0.0
C311 C 0.79243 0.65251 0.30307 0.0
C312 C 0.82152 0.6544 0.31732 0.0
H313 H 0.94342 0.65339 0.44683 0.0
H314 H 0.89679 0.65403 0.42671 0.0
H315 H 0.89762 0.69216 0.29273 0.0
H316 H 0.75329 0.64935 0.20915 0.0
H317 H 0.8016 0.65348 0.23259 0.0
C318 C 0.13136 0.75774 0.40578 0.0
C319 C 0.10618 0.7417 0.43422 0.0
C320 C 0.15595 0.7861 0.41843 0.0
C321 C 0.19332 0.83303 0.51765 0.0
H322 H 0.23367 0.8987 0.43195 0.0
C323 C 0.28972 0.95425 0.56674 0.0
C324 C 0.31541 0.96755 0.53865 0.0
C325 C 0.26316 0.9274 0.55412 0.0
C326 C 0.22275 0.88049 0.45617 0.0
H327 H 0.08681 0.7431 0.49793 0.0
H328 H 0.1295 0.7927 0.5197 0.0
H329 H 0.18909 0.8505 0.40943 0.0
H330 H 0.33329 0.96324 0.47514 0.0
H331 H 0.2871 0.91646 0.45336 0.0
H332 H 0.22708 0.86301 0.56433 0.0
C333 C 0.13048 0.78315 0.48793 0.0
C334 C 0.19726 0.85288 0.44326 0.0
C335 C 0.10594 0.75479 0.47532 0.0
C336 C 0.31389 0.95361 0.49757 0.0
C337 C 0.28735 0.9269 0.48491 0.0
C338 C 0.21877 0.86067 0.53058 0.0
C339 C 0.15586 0.79905 0.45977 0.0
C340 C 0.18238 0.82876 0.47378 0.0
C341 C 0.26174 0.91344 0.51309 0.0
C342 C 0.23389 0.88461 0.49989 0.0
H343 H 0.13229 0.74825 0.37393 0.0
H344 H 0.17533 0.79758 0.3962 0.0
H345 H 0.18266 0.81475 0.5418 0.0
H346 H 0.29014 0.96446 0.59857 0.0
H347 H 0.24366 0.91769 0.57635 0.0
C348 C 0.37952 0.31478 0.66357 0.0
C349 C 0.3798 0.32217 0.70864 0.0
C350 C 0.37946 0.28805 0.65118 0.0
C351 C 0.36315 0.21234 0.69199 0.0
H352 H 0.41809 0.21854 0.59724 0.0
C353 C 0.39099 0.11652 0.6538 0.0
C354 C 0.39356 0.11031 0.60901 0.0
C355 C 0.38775 0.14159 0.66548 0.0
C356 C 0.40232 0.2163 0.62333 0.0
H357 H 0.37962 0.30697 0.77606 0.0
H358 H 0.37971 0.2603 0.75433 0.0
H359 H 0.41503 0.26355 0.61872 0.0
H360 H 0.39423 0.12527 0.54128 0.0
H361 H 0.38826 0.16886 0.56168 0.0
H362 H 0.35055 0.16507 0.69669 0.0
C363 C 0.37929 0.27512 0.72863 0.0
C364 C 0.40058 0.2421 0.63567 0.0
C365 C 0.3794 0.30192 0.74106 0.0
C366 C 0.39247 0.12951 0.57611 0.0
C367 C 0.3892 0.15458 0.58781 0.0
C368 C 0.36486 0.18648 0.6796 0.0
C369 C 0.37965 0.26808 0.68354 0.0
C370 C 0.38103 0.24043 0.67018 0.0
C371 C 0.38697 0.161 0.63264 0.0
C372 C 0.38453 0.18821 0.6452 0.0
H373 H 0.37969 0.32981 0.63772 0.0
H374 H 0.37926 0.28303 0.61618 0.0
H375 H 0.34759 0.21025 0.71832 0.0
H376 H 0.3918 0.10221 0.67998 0.0
H377 H 0.38649 0.14612 0.70034 0.0
C378 C 0.09075 0.38165 0.83499 0.0
C379 C 0.08525 0.38579 0.87949 0.0
C380 C 0.11761 0.38182 0.82303 0.0
C381 C 0.19646 0.40858 0.86252 0.0
H382 H 0.19632 0.35522 0.76952 0.0
C383 C 0.30287 0.39875 0.81981 0.0
C384 C 0.30995 0.39963 0.77452 0.0
C385 C 0.27511 0.39614 0.83308 0.0
C386 C 0.1967 0.3704 0.79531 0.0
H387 H 0.10321 0.3925 0.94652 0.0
H388 H 0.14981 0.39212 0.9258 0.0
H389 H 0.14809 0.35133 0.79277 0.0
H390 H 0.29335 0.39821 0.7076 0.0
H391 H 0.24471 0.39351 0.73089 0.0
H392 H 0.24509 0.42744 0.86523 0.0
C393 C 0.13367 0.38942 0.89998 0.0
C394 C 0.16911 0.36823 0.80861 0.0
C395 C 0.10687 0.38945 0.91192 0.0
C396 C 0.28857 0.39762 0.74275 0.0
C397 C 0.26067 0.39475 0.75605 0.0
C398 C 0.224 0.41059 0.84943 0.0
C399 C 0.13952 0.38593 0.85532 0.0
C400 C 0.16868 0.38741 0.84222 0.0
C401 C 0.25373 0.39411 0.80135 0.0
C402 C 0.22442 0.39163 0.81556 0.0
H403 H 0.07461 0.37892 0.80914 0.0
H404 H 0.12154 0.37952 0.78826 0.0
H405 H 0.19707 0.42411 0.88791 0.0
H406 H 0.31884 0.40023 0.84514 0.0
H407 H 0.27023 0.39541 0.86822 0.0
C408 C 0.94158 0.2772 0.95189 0.0
C409 C 0.93867 0.29975 0.92847 0.0
C410 C 0.91559 0.25068 0.96665 0.0
C411 C 0.8348 0.22076 0.99562 0.0
H412 H 0.82813 0.14112 0.98107 0.0
C413 C 0.73696 0.11113 0.07466 0.0
C414 C 0.72241 0.08548 0.04659 0.0
C415 C 0.76422 0.13701 0.06161 0.0
C416 C 0.82967 0.16321 0.98527 0.0
H417 H 0.9062 0.31206 0.90187 0.0
H418 H 0.86084 0.26574 0.9277 0.0
H419 H 0.87378 0.18695 0.9543 0.0
H420 H 0.7254 0.06661 0.98322 0.0
H421 H 0.77297 0.11173 0.96058 0.0
H422 H 0.79055 0.19701 0.02608 0.0
C423 C 0.88325 0.26871 0.93488 0.0
C424 C 0.85587 0.18943 0.97027 0.0
C425 C 0.90922 0.29513 0.91986 0.0
C426 C 0.73602 0.086 0.00563 0.0
C427 C 0.76336 0.11177 0.99273 0.0
C428 C 0.8087 0.19457 0.01089 0.0
C429 C 0.88617 0.24627 0.95857 0.0
C430 C 0.85861 0.21846 0.97506 0.0
C431 C 0.77758 0.13765 0.02039 0.0
C432 C 0.8058 0.16551 0.00564 0.0
H433 H 0.96394 0.28006 0.95906 0.0
H434 H 0.91853 0.23388 0.98513 0.0
H435 H 0.83643 0.24287 0.00016 0.0
H436 H 0.72708 0.11144 0.10646 0.0
H437 H 0.77487 0.15652 0.0838 0.0
loop_
_geom_bond_atom_site_label_1
_geom_bond_atom_site_label_2
_geom_bond_distance
_geom_bond_site_symmetry_2
_ccdc_geom_bond_type
C0 O1 1.160 . S
C0 O7 1.185 . S
O1 C0 1.160 . S
O2 Zn3 1.899 . S
O2 C10 1.284 . S
Zn3 O2 1.899 . S
Zn3 O4 2.032 . S
Zn3 O7 2.086 1_545 S
Zn3 O12 1.977 . S
O4 Zn3 2.032 . S
O4 C8 1.278 . S
C5 O6 1.203 . S
C5 O12 1.267 1_556 S
O6 C5 1.203 . S
O7 C0 1.185 . S
O7 Zn3 2.086 1_565 S
C8 O4 1.278 . S
C8 O9 1.211 . S
O9 C8 1.211 . S
C10 O2 1.284 . S
C10 O11 1.273 . S
O11 C10 1.273 . S
O12 Zn3 1.977 . S
O12 C5 1.267 1_554 S
C13 O14 1.160 . S
C13 O20 1.185 . S
O14 C13 1.160 . S
O15 Zn16 1.899 . S
O15 C23 1.284 . S
Zn16 O15 1.899 . S
Zn16 O17 2.032 . S
Zn16 O20 2.086 . S
Zn16 O25 1.977 . S
O17 Zn16 2.032 . S
O17 C21 1.278 . S
C18 O19 1.203 . S
C18 O25 1.267 . S
O19 C18 1.203 . S
O20 C13 1.185 . S
O20 Zn16 2.086 . S
C21 O17 1.278 . S
C21 O22 1.211 . S
O22 C21 1.211 . S
C23 O15 1.284 . S
C23 O24 1.273 . S
O24 C23 1.273 . S
O25 Zn16 1.977 . S
O25 C18 1.267 . S
C26 O27 1.160 . S
C26 O33 1.185 . S
O27 C26 1.160 . S
O28 Zn29 1.899 . S
O28 C36 1.284 1_455 S
Zn29 O28 1.899 . S
Zn29 O30 2.032 . S
Zn29 O33 2.086 . S
Zn29 O38 1.977 . S
O30 Zn29 2.032 . S
O30 C34 1.278 . S
C31 O32 1.203 . S
C31 O38 1.267 . S
O32 C31 1.203 . S
O33 C26 1.185 . S
O33 Zn29 2.086 . S
C34 O30 1.278 . S
C34 O35 1.211 . S
O35 C34 1.211 . S
C36 O28 1.284 1_655 S
C36 O37 1.273 . S
O37 C36 1.273 . S
O38 Zn29 1.977 . S
O38 C31 1.267 . S
C39 O40 1.160 . S
C39 O46 1.185 . S
O40 C39 1.160 . S
O41 Zn42 1.899 . S
O41 C49 1.284 1_545 S
Zn42 O41 1.899 . S
Zn42 O43 2.032 . S
Zn42 O46 2.086 . S
Zn42 O51 1.977 . S
O43 Zn42 2.032 . S
O43 C47 1.278 . S
C44 O45 1.203 . S
C44 O51 1.267 . S
O45 C44 1.203 . S
O46 C39 1.185 . S
O46 Zn42 2.086 . S
C47 O43 1.278 . S
C47 O48 1.211 . S
O48 C47 1.211 . S
C49 O41 1.284 1_565 S
C49 O50 1.273 . S
O50 C49 1.273 . S
O51 Zn42 1.977 . S
O51 C44 1.267 . S
C52 O53 1.160 . S
C52 O59 1.185 . S
O53 C52 1.160 . S
O54 Zn55 1.899 . S
O54 C62 1.284 . S
Zn55 O54 1.899 . S
Zn55 O56 2.032 . S
Zn55 O59 2.086 . S
Zn55 O64 1.977 . S
O56 Zn55 2.032 . S
O56 C60 1.278 . S
C57 O58 1.203 . S
C57 O64 1.267 . S
O58 C57 1.203 . S
O59 C52 1.185 . S
O59 Zn55 2.086 . S
C60 O56 1.278 . S
C60 O61 1.211 . S
O61 C60 1.211 . S
C62 O54 1.284 . S
C62 O63 1.273 . S
O63 C62 1.273 . S
O64 Zn55 1.977 . S
O64 C57 1.267 . S
C65 O66 1.160 . S
C65 O72 1.185 . S
O66 C65 1.160 . S
O67 Zn68 1.899 . S
O67 C75 1.284 . S
Zn68 O67 1.899 . S
Zn68 O69 2.032 . S
Zn68 O72 2.086 1_455 S
Zn68 O77 1.977 . S
O69 Zn68 2.032 . S
O69 C73 1.278 . S
C70 O71 1.203 . S
C70 O77 1.267 . S
O71 C70 1.203 . S
O72 C65 1.185 . S
O72 Zn68 2.086 1_655 S
C73 O69 1.278 . S
C73 O74 1.211 . S
O74 C73 1.211 . S
C75 O67 1.284 . S
C75 O76 1.273 . S
O76 C75 1.273 . S
O77 Zn68 1.977 . S
O77 C70 1.267 . S
C78 C79 1.349 . S
C78 C80 1.327 . S
C78 H103 0.950 1_545 S
C79 C78 1.349 . S
C79 C95 1.349 . S
C80 C78 1.327 . S
C80 C99 1.429 . S
C80 H104 0.950 1_545 S
C81 C98 1.574 . S
C81 C100 1.368 . S
C81 H105 0.949 . S
H82 C86 0.949 1_565 S
C83 C84 1.349 . S
C83 C85 1.327 . S
C83 H106 0.950 . S
C84 C83 1.349 . S
C84 C96 1.349 . S
C85 C83 1.327 . S
C85 C101 1.429 . S
C85 H107 0.950 . S
C86 H82 0.949 1_545 S
C86 C94 1.574 . S
C86 C102 1.368 . S
H87 C95 0.950 . S
H88 C93 0.950 . S
H89 C94 0.949 1_565 S
H90 C96 0.950 . S
H91 C97 0.949 1_565 S
H92 C98 0.949 . S
C93 H88 0.950 . S
C93 C95 1.327 . S
C93 C99 1.429 . S
C94 C86 1.574 . S
C94 H89 0.949 1_545 S
C94 C100 1.368 . S
C95 C79 1.349 . S
C95 H87 0.950 . S
C95 C93 1.327 . S
C96 C84 1.349 . S
C96 H90 0.950 . S
C96 C97 1.327 . S
C97 H91 0.949 1_545 S
C97 C96 1.327 . S
C97 C101 1.429 . S
C98 C81 1.574 . S
C98 H92 0.949 . S
C98 C102 1.368 . S
C99 C80 1.429 . S
C99 C93 1.429 . S
C99 C100 1.523 . S
C100 C81 1.368 . S
C100 C94 1.368 . S
C100 C99 1.523 . S
C101 C85 1.429 . S
C101 C97 1.429 . S
C101 C102 1.523 . S
C102 C86 1.368 . S
C102 C98 1.368 . S
C102 C101 1.523 . S
H103 C78 0.950 1_565 S
H104 C80 0.950 1_565 S
H105 C81 0.949 . S
H106 C83 0.950 . S
H107 C85 0.950 . S
C108 C109 1.349 . S
C108 C110 1.327 . S
C108 H133 0.950 . S
C109 C108 1.349 . S
C109 C125 1.349 . S
C110 C108 1.327 . S
C110 C129 1.429 . S
C110 H134 0.950 . S
C111 C128 1.574 . S
C111 C130 1.368 . S
C111 H135 0.949 . S
H112 C116 0.949 . S
C113 C114 1.349 . S
C113 C115 1.327 . S
C113 H136 0.950 . S
C114 C113 1.349 . S
C114 C126 1.349 . S
C115 C113 1.327 . S
C115 C131 1.429 . S
C115 H137 0.950 . S
C116 H112 0.949 . S
C116 C124 1.574 . S
C116 C132 1.368 . S
H117 C125 0.950 . S
H118 C123 0.950 . S
H119 C124 0.949 . S
H120 C126 0.950 . S
H121 C127 0.950 . S
H122 C128 0.949 . S
C123 H118 0.950 . S
C123 C125 1.327 . S
C123 C129 1.429 . S
C124 C116 1.574 . S
C124 H119 0.949 . S
C124 C130 1.368 . S
C125 C109 1.349 . S
C125 H117 0.950 . S
C125 C123 1.327 . S
C126 C114 1.349 . S
C126 H120 0.950 . S
C126 C127 1.327 . S
C127 H121 0.950 . S
C127 C126 1.327 . S
C127 C131 1.429 . S
C128 C111 1.574 . S
C128 H122 0.949 . S
C128 C132 1.368 . S
C129 C110 1.429 . S
C129 C123 1.429 . S
C129 C130 1.523 . S
C130 C111 1.368 . S
C130 C124 1.368 . S
C130 C129 1.523 . S
C131 C115 1.429 . S
C131 C127 1.429 . S
C131 C132 1.523 . S
C132 C116 1.368 . S
C132 C128 1.368 . S
C132 C131 1.523 . S
H133 C108 0.950 . S
H134 C110 0.950 . S
H135 C111 0.949 . S
H136 C113 0.950 . S
H137 C115 0.950 . S
C138 C139 1.349 1_655 S
C138 C140 1.327 . S
C138 H163 0.950 . S
C139 C138 1.349 1_455 S
C139 C155 1.349 . S
C140 C138 1.327 . S
C140 C159 1.429 1_655 S
C140 H164 0.950 . S
C141 C158 1.574 . S
C141 C160 1.368 . S
C141 H165 0.949 . S
H142 C146 0.959 . S
C143 C144 1.349 . S
C143 C145 1.327 . S
C143 H166 0.950 . S
C144 C143 1.349 . S
C144 C156 1.349 . S
C145 C143 1.327 . S
C145 C161 1.429 . S
C145 H167 0.950 . S
C146 H142 0.959 . S
C146 C154 1.570 . S
C146 C162 1.361 1_655 S
H147 C155 0.950 . S
H148 C153 0.950 . S
H149 C154 0.949 . S
H150 C156 0.950 1_655 S
H151 C157 0.950 1_655 S
H152 C158 0.949 . S
C153 H148 0.950 . S
C153 C155 1.327 . S
C153 C159 1.429 . S
C154 C146 1.570 . S
C154 H149 0.949 . S
C154 C160 1.368 1_655 S
C155 C139 1.349 . S
C155 H147 0.950 . S
C155 C153 1.327 . S
C156 C144 1.349 . S
C156 H150 0.950 1_455 S
C156 C157 1.327 . S
C157 H151 0.950 1_455 S
C157 C156 1.327 . S
C157 C161 1.429 . S
C158 C141 1.574 . S
C158 H152 0.949 . S
C158 C162 1.368 . S
C159 C140 1.429 1_455 S
C159 C153 1.429 . S
C159 C160 1.523 . S
C160 C141 1.368 . S
C160 C154 1.368 1_455 S
C160 C159 1.523 . S
C161 C145 1.429 . S
C161 C157 1.429 . S
C161 C162 1.523 . S
C162 C146 1.361 1_455 S
C162 C158 1.368 . S
C162 C161 1.523 . S
H163 C138 0.950 . S
H164 C140 0.950 . S
H165 C141 0.949 . S
H166 C143 0.950 . S
H167 C145 0.950 . S
C168 C169 1.349 1_565 S
C168 C170 1.327 . S
C168 H193 0.950 . S
C169 C168 1.349 1_545 S
C169 C185 1.349 . S
C170 C168 1.327 . S
C170 C189 1.429 1_565 S
C170 H194 0.950 . S
C171 C188 1.574 . S
C171 C190 1.368 . S
C171 H195 0.949 . S
H172 C176 0.942 1_565 S
C173 C174 1.349 . S
C173 C175 1.327 . S
C173 H196 0.950 . S
C174 C173 1.349 . S
C174 C186 1.349 . S
C175 C173 1.327 . S
C175 C191 1.429 . S
C175 H197 0.950 . S
C176 H172 0.942 1_545 S
C176 C184 1.556 1_545 S
C176 C192 1.388 . S
H177 C185 0.950 . S
H178 C183 0.950 . S
H179 C184 0.962 . S
H180 C186 0.950 1_565 S
H181 C187 0.950 1_565 S
H182 C188 0.949 . S
C183 H178 0.950 . S
C183 C185 1.327 . S
C183 C189 1.429 . S
C184 C176 1.556 1_565 S
C184 H179 0.962 . S
C184 C190 1.362 1_565 S
C185 C169 1.349 . S
C185 H177 0.950 . S
C185 C183 1.327 . S
C186 C174 1.349 . S
C186 H180 0.950 1_545 S
C186 C187 1.327 . S
C187 H181 0.950 1_545 S
C187 C186 1.327 . S
C187 C191 1.429 . S
C188 C171 1.574 . S
C188 H182 0.949 . S
C188 C192 1.368 . S
C189 C170 1.429 1_545 S
C189 C183 1.429 . S
C189 C190 1.523 . S
C190 C171 1.368 . S
C190 C184 1.362 1_545 S
C190 C189 1.523 . S
C191 C175 1.429 . S
C191 C187 1.429 . S
C191 C192 1.523 . S
C192 C176 1.388 . S
C192 C188 1.368 . S
C192 C191 1.523 . S
H193 C168 0.950 . S
H194 C170 0.950 . S
H195 C171 0.949 . S
H196 C173 0.950 . S
H197 C175 0.950 . S
C198 C199 1.349 . S
C198 C200 1.327 . S
C198 H223 0.950 . S
C199 C198 1.349 . S
C199 C215 1.349 . S
C200 C198 1.327 . S
C200 C219 1.429 . S
C200 H224 0.950 . S
C201 C218 1.574 . S
C201 C220 1.368 1_556 S
C201 H225 0.949 . S
H202 C206 0.949 . S
C203 C204 1.349 . S
C203 C205 1.327 . S
C203 H226 0.950 . S
C204 C203 1.349 . S
C204 C216 1.349 . S
C205 C203 1.327 . S
C205 C221 1.429 . S
C205 H227 0.950 . S
C206 H202 0.949 . S
C206 C214 1.574 1_556 S
C206 C222 1.368 . S
H207 C215 0.950 . S
H208 C213 0.950 . S
H209 C214 0.949 . S
H210 C216 0.950 . S
H211 C217 0.950 . S
H212 C218 0.949 . S
C213 H208 0.950 . S
C213 C215 1.327 . S
C213 C219 1.429 . S
C214 C206 1.574 1_554 S
C214 H209 0.949 . S
C214 C220 1.368 . S
C215 C199 1.349 . S
C215 H207 0.950 . S
C215 C213 1.327 . S
C216 C204 1.349 . S
C216 H210 0.950 . S
C216 C217 1.327 . S
C217 H211 0.950 . S
C217 C216 1.327 . S
C217 C221 1.429 . S
C218 C201 1.574 . S
C218 H212 0.949 . S
C218 C222 1.368 . S
C219 C200 1.429 . S
C219 C213 1.429 . S
C219 C220 1.523 . S
C220 C201 1.368 1_554 S
C220 C214 1.368 . S
C220 C219 1.523 . S
C221 C205 1.429 . S
C221 C217 1.429 . S
C221 C222 1.523 . S
C222 C206 1.368 . S
C222 C218 1.368 . S
C222 C221 1.523 . S
H223 C198 0.950 . S
H224 C200 0.950 . S
H225 C201 0.949 . S
H226 C203 0.950 . S
H227 C205 0.950 . S
C228 C229 1.349 . S
C228 C230 1.327 1_556 S
C228 H253 0.950 . S
C229 C228 1.349 . S
C229 C245 1.349 1_556 S
C230 C228 1.327 1_554 S
C230 C249 1.429 . S
C230 H254 0.950 . S
C231 C248 1.574 . S
C231 C250 1.368 . S
C231 H255 0.949 . S
H232 C236 0.949 . S
C233 C234 1.349 . S
C233 C235 1.327 . S
C233 H256 0.950 . S
C234 C233 1.349 . S
C234 C246 1.349 . S
C235 C233 1.327 . S
C235 C251 1.429 . S
C235 H257 0.950 . S
C236 H232 0.949 . S
C236 C244 1.574 . S
C236 C252 1.368 . S
H237 C245 0.950 . S
H238 C243 0.950 . S
H239 C244 0.949 . S
H240 C246 0.950 . S
H241 C247 0.950 . S
H242 C248 0.949 . S
C243 H238 0.950 . S
C243 C245 1.327 . S
C243 C249 1.429 . S
C244 C236 1.574 . S
C244 H239 0.949 . S
C244 C250 1.368 . S
C245 C229 1.349 1_554 S
C245 H237 0.950 . S
C245 C243 1.327 . S
C246 C234 1.349 . S
C246 H240 0.950 . S
C246 C247 1.327 . S
C247 H241 0.950 . S
C247 C246 1.327 . S
C247 C251 1.429 . S
C248 C231 1.574 . S
C248 H242 0.949 . S
C248 C252 1.368 . S
C249 C230 1.429 . S
C249 C243 1.429 . S
C249 C250 1.523 . S
C250 C231 1.368 . S
C250 C244 1.368 . S
C250 C249 1.523 . S
C251 C235 1.429 . S
C251 C247 1.429 . S
C251 C252 1.523 . S
C252 C236 1.368 . S
C252 C248 1.368 . S
C252 C251 1.523 . S
H253 C228 0.950 . S
H254 C230 0.950 . S
H255 C231 0.949 . S
H256 C233 0.950 . S
H257 C235 0.950 . S
C258 C259 1.349 . S
C258 C260 1.327 . S
C258 H283 0.950 . S
C259 C258 1.349 . S
C259 C275 1.349 . S
C260 C258 1.327 . S
C260 C279 1.429 . S
C260 H284 0.950 . S
C261 C278 1.574 . S
C261 C280 1.368 . S
C261 H285 0.949 . S
H262 C266 0.949 . S
C263 C264 1.349 . S
C263 C265 1.327 . S
C263 H286 0.950 . S
C264 C263 1.349 . S
C264 C276 1.349 . S
C265 C263 1.327 . S
C265 C281 1.429 . S
C265 H287 0.950 . S
C266 H262 0.949 . S
C266 C274 1.574 . S
C266 C282 1.368 . S
H267 C275 0.950 . S
H268 C273 0.950 . S
H269 C274 0.949 . S
H270 C276 0.950 . S
H271 C277 0.950 . S
H272 C278 0.949 . S
C273 H268 0.950 . S
C273 C275 1.327 . S
C273 C279 1.429 . S
C274 C266 1.574 . S
C274 H269 0.949 . S
C274 C280 1.368 . S
C275 C259 1.349 . S
C275 H267 0.950 . S
C275 C273 1.327 . S
C276 C264 1.349 . S
C276 H270 0.950 . S
C276 C277 1.327 . S
C277 H271 0.950 . S
C277 C276 1.327 . S
C277 C281 1.429 . S
C278 C261 1.574 . S
C278 H272 0.949 . S
C278 C282 1.368 . S
C279 C260 1.429 . S
C279 C273 1.429 . S
C279 C280 1.523 . S
C280 C261 1.368 . S
C280 C274 1.368 . S
C280 C279 1.523 . S
C281 C265 1.429 . S
C281 C277 1.429 . S
C281 C282 1.523 . S
C282 C266 1.368 . S
C282 C278 1.368 . S
C282 C281 1.523 . S
H283 C258 0.950 . S
H284 C260 0.950 . S
H285 C261 0.949 . S
H286 C263 0.950 . S
H287 C265 0.950 . S
C288 C289 1.349 . S
C288 C290 1.327 . S
C288 H313 0.950 . S
C289 C288 1.349 . S
C289 C305 1.349 . S
C290 C288 1.327 . S
C290 C309 1.429 . S
C290 H314 0.950 . S
C291 C308 1.574 . S
C291 C310 1.368 . S
C291 H315 0.949 . S
H292 C296 0.949 . S
C293 C294 1.349 . S
C293 C295 1.327 . S
C293 H316 0.950 . S
C294 C293 1.349 . S
C294 C306 1.349 . S
C295 C293 1.327 . S
C295 C311 1.429 . S
C295 H317 0.950 . S
C296 H292 0.949 . S
C296 C304 1.574 . S
C296 C312 1.368 . S
H297 C305 0.950 . S
H298 C303 0.950 . S
H299 C304 0.949 . S
H300 C306 0.950 . S
H301 C307 0.950 . S
H302 C308 0.949 . S
C303 H298 0.950 . S
C303 C305 1.327 . S
C303 C309 1.429 . S
C304 C296 1.574 . S
C304 H299 0.949 . S
C304 C310 1.368 . S
C305 C289 1.349 . S
C305 H297 0.950 . S
C305 C303 1.327 . S
C306 C294 1.349 . S
C306 H300 0.950 . S
C306 C307 1.327 . S
C307 H301 0.950 . S
C307 C306 1.327 . S
C307 C311 1.429 . S
C308 C291 1.574 . S
C308 H302 0.949 . S
C308 C312 1.368 . S
C309 C290 1.429 . S
C309 C303 1.429 . S
C309 C310 1.523 . S
C310 C291 1.368 . S
C310 C304 1.368 . S
C310 C309 1.523 . S
C311 C295 1.429 . S
C311 C307 1.429 . S
C311 C312 1.523 . S
C312 C296 1.368 . S
C312 C308 1.368 . S
C312 C311 1.523 . S
H313 C288 0.950 . S
H314 C290 0.950 . S
H315 C291 0.949 . S
H316 C293 0.950 . S
H317 C295 0.950 . S
C318 C319 1.349 . S
C318 C320 1.327 . S
C318 H343 0.950 . S
C319 C318 1.349 . S
C319 C335 1.349 . S
C320 C318 1.327 . S
C320 C339 1.429 . S
C320 H344 0.950 . S
C321 C338 1.574 . S
C321 C340 1.368 . S
C321 H345 0.949 . S
H322 C326 0.949 . S
C323 C324 1.349 . S
C323 C325 1.327 . S
C323 H346 0.950 . S
C324 C323 1.349 . S
C324 C336 1.349 . S
C325 C323 1.327 . S
C325 C341 1.429 . S
C325 H347 0.950 . S
C326 H322 0.949 . S
C326 C334 1.574 . S
C326 C342 1.368 . S
H327 C335 0.950 . S
H328 C333 0.950 . S
H329 C334 0.949 . S
H330 C336 0.950 . S
H331 C337 0.950 . S
H332 C338 0.949 . S
C333 H328 0.950 . S
C333 C335 1.327 . S
C333 C339 1.429 . S
C334 C326 1.574 . S
C334 H329 0.949 . S
C334 C340 1.368 . S
C335 C319 1.349 . S
C335 H327 0.950 . S
C335 C333 1.327 . S
C336 C324 1.349 . S
C336 H330 0.950 . S
C336 C337 1.327 . S
C337 H331 0.950 . S
C337 C336 1.327 . S
C337 C341 1.429 . S
C338 C321 1.574 . S
C338 H332 0.949 . S
C338 C342 1.368 . S
C339 C320 1.429 . S
C339 C333 1.429 . S
C339 C340 1.523 . S
C340 C321 1.368 . S
C340 C334 1.368 . S
C340 C339 1.523 . S
C341 C325 1.429 . S
C341 C337 1.429 . S
C341 C342 1.523 . S
C342 C326 1.368 . S
C342 C338 1.368 . S
C342 C341 1.523 . S
H343 C318 0.950 . S
H344 C320 0.950 . S
H345 C321 0.949 . S
H346 C323 0.950 . S
H347 C325 0.950 . S
C348 C349 1.349 . S
C348 C350 1.327 . S
C348 H373 0.950 . S
C349 C348 1.349 . S
C349 C365 1.349 . S
C350 C348 1.327 . S
C350 C369 1.429 . S
C350 H374 0.950 . S
C351 C368 1.574 . S
C351 C370 1.368 . S
C351 H375 0.949 . S
H352 C356 0.949 . S
C353 C354 1.349 . S
C353 C355 1.327 . S
C353 H376 0.950 . S
C354 C353 1.349 . S
C354 C366 1.349 . S
C355 C353 1.327 . S
C355 C371 1.429 . S
C355 H377 0.950 . S
C356 H352 0.949 . S
C356 C364 1.574 . S
C356 C372 1.368 . S
H357 C365 0.950 . S
H358 C363 0.950 . S
H359 C364 0.949 . S
H360 C366 0.950 . S
H361 C367 0.950 . S
H362 C368 0.949 . S
C363 H358 0.950 . S
C363 C365 1.327 . S
C363 C369 1.429 . S
C364 C356 1.574 . S
C364 H359 0.949 . S
C364 C370 1.368 . S
C365 C349 1.349 . S
C365 H357 0.950 . S
C365 C363 1.327 . S
C366 C354 1.349 . S
C366 H360 0.950 . S
C366 C367 1.327 . S
C367 H361 0.950 . S
C367 C366 1.327 . S
C367 C371 1.429 . S
C368 C351 1.574 . S
C368 H362 0.949 . S
C368 C372 1.368 . S
C369 C350 1.429 . S
C369 C363 1.429 . S
C369 C370 1.523 . S
C370 C351 1.368 . S
C370 C364 1.368 . S
C370 C369 1.523 . S
C371 C355 1.429 . S
C371 C367 1.429 . S
C371 C372 1.523 . S
C372 C356 1.368 . S
C372 C368 1.368 . S
C372 C371 1.523 . S
H373 C348 0.950 . S
H374 C350 0.950 . S
H375 C351 0.949 . S
H376 C353 0.950 . S
H377 C355 0.950 . S
C378 C379 1.349 . S
C378 C380 1.327 . S
C378 H403 0.950 . S
C379 C378 1.349 . S
C379 C395 1.349 . S
C380 C378 1.327 . S
C380 C399 1.429 . S
C380 H404 0.950 . S
C381 C398 1.574 . S
C381 C400 1.368 . S
C381 H405 0.949 . S
H382 C386 0.949 . S
C383 C384 1.349 . S
C383 C385 1.327 . S
C383 H406 0.950 . S
C384 C383 1.349 . S
C384 C396 1.349 . S
C385 C383 1.327 . S
C385 C401 1.429 . S
C385 H407 0.950 . S
C386 H382 0.949 . S
C386 C394 1.574 . S
C386 C402 1.368 . S
H387 C395 0.950 . S
H388 C393 0.950 . S
H389 C394 0.949 . S
H390 C396 0.950 . S
H391 C397 0.950 . S
H392 C398 0.949 . S
C393 H388 0.950 . S
C393 C395 1.327 . S
C393 C399 1.429 . S
C394 C386 1.574 . S
C394 H389 0.949 . S
C394 C400 1.368 . S
C395 C379 1.349 . S
C395 H387 0.950 . S
C395 C393 1.327 . S
C396 C384 1.349 . S
C396 H390 0.950 . S
C396 C397 1.327 . S
C397 H391 0.950 . S
C397 C396 1.327 . S
C397 C401 1.429 . S
C398 C381 1.574 . S
C398 H392 0.949 . S
C398 C402 1.368 . S
C399 C380 1.429 . S
C399 C393 1.429 . S
C399 C400 1.523 . S
C400 C381 1.368 . S
C400 C394 1.368 . S
C400 C399 1.523 . S
C401 C385 1.429 . S
C401 C397 1.429 . S
C401 C402 1.523 . S
C402 C386 1.368 . S
C402 C398 1.368 . S
C402 C401 1.523 . S
H403 C378 0.950 . S
H404 C380 0.950 . S
H405 C381 0.949 . S
H406 C383 0.950 . S
H407 C385 0.950 . S
C408 C409 1.349 . S
C408 C410 1.327 . S
C408 H433 0.950 . S
C409 C408 1.349 . S
C409 C425 1.349 . S
C410 C408 1.327 . S
C410 C429 1.429 . S
C410 H434 0.950 . S
C411 C428 1.574 1_556 S
C411 C430 1.368 . S
C411 H435 0.949 1_556 S
H412 C416 0.949 . S
C413 C414 1.349 . S
C413 C415 1.327 . S
C413 H436 0.950 . S
C414 C413 1.349 . S
C414 C426 1.349 . S
C415 C413 1.327 . S
C415 C431 1.429 . S
C415 H437 0.950 . S
C416 H412 0.949 . S
C416 C424 1.574 . S
C416 C432 1.368 . S
H417 C425 0.950 . S
H418 C423 0.950 . S
H419 C424 0.949 . S
H420 C426 0.950 1_556 S
H421 C427 0.950 . S
H422 C428 0.949 . S
C423 H418 0.950 . S
C423 C425 1.327 . S
C423 C429 1.429 . S
C424 C416 1.574 . S
C424 H419 0.949 . S
C424 C430 1.368 . S
C425 C409 1.349 . S
C425 H417 0.950 . S
C425 C423 1.327 . S
C426 C414 1.349 . S
C426 H420 0.950 1_554 S
C426 C427 1.327 1_554 S
C427 H421 0.950 . S
C427 C426 1.327 1_556 S
C427 C431 1.429 1_556 S
C428 C411 1.574 1_554 S
C428 H422 0.949 . S
C428 C432 1.368 1_554 S
C429 C410 1.429 . S
C429 C423 1.429 . S
C429 C430 1.523 . S
C430 C411 1.368 . S
C430 C424 1.368 . S
C430 C429 1.523 . S
C431 C415 1.429 . S
C431 C427 1.429 1_554 S
C431 C432 1.523 1_554 S
C432 C416 1.368 . S
C432 C428 1.368 1_556 S
C432 C431 1.523 1_556 S
H433 C408 0.950 . S
H434 C410 0.950 . S
H435 C411 0.949 1_554 S
H436 C413 0.950 . S
H437 C415 0.950 . S
C79 C8 1.359 . S
C84 C44 1.363 . S
C109 C21 1.359 . S
C114 C57 1.363 . S
C139 C70 1.363 . S
C144 C34 1.359 . S
C169 C5 1.363 . S
C174 C47 1.359 . S
C199 C18 1.363 . S
C204 C60 1.359 . S
C229 C73 1.359 . S
C234 C31 1.363 . S
C259 C23 1.380 . S
C264 C0 1.376 . S
C289 C36 1.380 . S
C294 C13 1.376 . S
C319 C26 1.376 . S
C324 C49 1.380 . S
C349 C62 1.380 . S
C354 C39 1.376 . S
C379 C75 1.380 . S
C384 C52 1.376 . S
C409 C65 1.376 . S
C414 C10 1.380 . S
