# Generated by pormake.
# Topology xft, (5)-cn, num edge types: 1
# Building blocks:
#     Node 0, Type 0, BuildingBlock: BEQFEK_clean_sbu_0, # of connection points: 5
#     Node 1, Type 0, BuildingBlock: BEQFEK_clean_sbu_0, # of connection points: 5
#     Node 2, Type 0, BuildingBlock: BEQFEK_clean_sbu_0, # of connection points: 5
#     Node 3, Type 0, BuildingBlock: BEQFEK_clean_sbu_0, # of connection points: 5
#     Node 4, Type 0, BuildingBlock: BEQFEK_clean_sbu_0, # of connection points: 5
#     Node 5, Type 0, BuildingBlock: BEQFEK_clean_sbu_0, # of connection points: 5
#     Node 6, Type 0, BuildingBlock: BEQFEK_clean_sbu_0, # of connection points: 5
#     Node 7, Type 0, BuildingBlock: BEQFEK_clean_sbu_0, # of connection points: 5
#     Edge 8, Type (0, 0), BuildingBlock: AJUNOK_clean_linker_0, # of connection points: 2
#     Edge 9, Type (0, 0), BuildingBlock: AJUNOK_clean_linker_0, # of connection points: 2
#     Edge 10, Type (0, 0), BuildingBlock: AJUNOK_clean_linker_0, # of connection points: 2
#     Edge 11, Type (0, 0), BuildingBlock: AJUNOK_clean_linker_0, # of connection points: 2
#     Edge 12, Type (0, 0), BuildingBlock: AJUNOK_clean_linker_0, # of connection points: 2
#     Edge 13, Type (0, 0), BuildingBlock: AJUNOK_clean_linker_0, # of connection points: 2
#     Edge 14, Type (0, 0), BuildingBlock: AJUNOK_clean_linker_0, # of connection points: 2
#     Edge 15, Type (0, 0), BuildingBlock: AJUNOK_clean_linker_0, # of connection points: 2
#     Edge 16, Type (0, 0), BuildingBlock: AJUNOK_clean_linker_0, # of connection points: 2
#     Edge 17, Type (0, 0), BuildingBlock: AJUNOK_clean_linker_0, # of connection points: 2
#     Edge 18, Type (0, 0), BuildingBlock: AJUNOK_clean_linker_0, # of connection points: 2
#     Edge 19, Type (0, 0), BuildingBlock: AJUNOK_clean_linker_0, # of connection points: 2
#     Edge 20, Type (0, 0), BuildingBlock: AJUNOK_clean_linker_0, # of connection points: 2
#     Edge 21, Type (0, 0), BuildingBlock: AJUNOK_clean_linker_0, # of connection points: 2
#     Edge 22, Type (0, 0), BuildingBlock: AJUNOK_clean_linker_0, # of connection points: 2
#     Edge 23, Type (0, 0), BuildingBlock: AJUNOK_clean_linker_0, # of connection points: 2
#     Edge 24, Type (0, 0), BuildingBlock: AJUNOK_clean_linker_0, # of connection points: 2
#     Edge 25, Type (0, 0), BuildingBlock: AJUNOK_clean_linker_0, # of connection points: 2
#     Edge 26, Type (0, 0), BuildingBlock: AJUNOK_clean_linker_0, # of connection points: 2
#     Edge 27, Type (0, 0), BuildingBlock: AJUNOK_clean_linker_0, # of connection points: 2
# Relax obj value: 0.426
# Max RMSD: 0.299
# Mean RMSD: 0.299
data_MOF--net-xft--node1-BEQFEK_clean_sbu_0--edge1-AJUNOK_clean_linker_0
_symmetry_space_group_name_H-M    P1
_symmetry_Int_Tables_number       1
_symmetry_cell_setting            triclinic
loop_
_symmetry_equiv_pos_as_xyz
'x, y, z'
_cell_length_a     29.095312
_cell_length_b     29.676346
_cell_length_c     29.266641
_cell_angle_alpha  90.03754
_cell_angle_beta   89.398361
_cell_angle_gamma 89.649276
loop_
_atom_site_label
_atom_site_type_symbol
_atom_site_fract_x
_atom_site_fract_y
_atom_site_fract_z
_atom_type_partial_charge
Co0 Co 0.32443 0.02939 0.67896 0.0
Co1 Co 0.31628 0.96469 0.76241 0.0
C2 C 0.30673 0.93457 0.66364 0.0
O3 O 0.3111 0.97324 0.64555 0.0
O4 O 0.30887 0.92933 0.70654 0.0
C5 C 0.36266 0.07305 0.60526 0.0
O6 O 0.38423 0.034 0.60438 0.0
C7 C 0.25309 0.90632 0.80889 0.0
C8 C 0.29135 0.8827 0.86908 0.0
C9 C 0.24934 0.87929 0.84724 0.0
N10 N 0.2952 0.92456 0.80801 0.0
N11 N 0.31835 0.90974 0.84359 0.0
C12 C 0.21592 0.9185 0.77594 0.0
H13 H 0.22526 0.94859 0.75563 0.0
H14 H 0.18293 0.92455 0.79438 0.0
H15 H 0.2109 0.89034 0.75176 0.0
C16 C 0.24892 0.07625 0.72987 0.0
N17 N 0.28041 0.04308 0.72497 0.0
N18 N 0.2805 0.01823 0.76215 0.0
C19 C 0.25048 0.03584 0.79268 0.0
C20 C 0.22897 0.07272 0.77303 0.0
C21 C 0.23907 0.11089 0.69415 0.0
H22 H 0.26998 0.13208 0.689 0.0
H23 H 0.23201 0.09386 0.66121 0.0
H24 H 0.20954 0.13275 0.7041 0.0
O25 O 0.38619 0.02226 0.70694 0.0
O26 O 0.38217 0.97853 0.76829 0.0
H27 H 0.27115 -0.00294 0.85126 0.0
H28 H 0.23377 0.04392 0.86428 0.0
C29 C 0.2412 0.01676 0.83923 0.0
H30 H 0.21057 -0.00523 0.83797 0.0
H31 H 0.352 0.91898 0.85103 0.0
O32 O 0.33117 0.07928 0.63502 0.0
C33 C 0.40535 0.00284 0.74067 0.0
Co34 Co 0.97956 0.82641 0.94513 0.0
Co35 Co 0.04315 0.80298 0.02782 0.0
C36 C 0.07835 0.82373 0.93201 0.0
O37 O 0.03984 0.82553 0.91185 0.0
O38 O 0.08065 0.81652 0.97455 0.0
C39 C 0.93233 0.83909 0.85898 0.0
O40 O 0.97242 0.83043 0.8398 0.0
C41 C 0.11022 0.73718 0.05427 0.0
C42 C 0.11995 0.74871 0.12799 0.0
C43 C 0.13295 0.72074 0.09202 0.0
N44 N 0.08438 0.77268 0.06729 0.0
N45 N 0.09079 0.77997 0.11129 0.0
C46 C 0.11374 0.72049 0.006 0.0
H47 H 0.13039 0.74664 -0.01539 0.0
H48 H 0.07883 0.7147 -0.00766 0.0
H49 H 0.13485 0.6894 0.00304 0.0
C50 C 0.93668 0.7399 0.97422 0.0
N51 N 0.96853 0.77255 0.97784 0.0
N52 N 0.99385 0.76451 0.0139 0.0
C53 C 0.97861 0.72704 0.03475 0.0
C54 C 0.94244 0.70981 0.01004 0.0
C55 C 0.90148 0.73798 0.93745 0.0
H56 H 0.87584 0.76532 0.94313 0.0
H57 H 0.91822 0.7439 0.90376 0.0
H58 H 0.88362 0.70504 0.93729 0.0
O59 O 0.98098 0.87894 -0.01165 0.0
O60 O 0.02207 0.86205 0.05008 0.0
H61 H 0.00529 0.73867 0.10181 0.0
H62 H 0.96946 0.68928 0.09734 0.0
C63 C 0.99577 0.71001 0.0796 0.0
H64 H 0.02661 0.68879 0.07352 0.0
H65 H 0.07429 0.80532 0.13011 0.0
O66 O 0.92853 0.83806 0.90229 0.0
C67 C 0.9975 0.88947 0.02719 0.0
Co68 Co 0.19631 0.46172 0.17108 0.0
Co69 Co 0.2 0.52904 0.25289 0.0
C70 C 0.20917 0.55579 0.15184 0.0
O71 O 0.20972 0.51624 0.13504 0.0
O72 O 0.20483 0.56232 0.1946 0.0
C73 C 0.16145 0.41215 0.09921 0.0
O74 O 0.14326 0.45187 0.0909 0.0
C75 C 0.25636 0.59533 0.29567 0.0
C76 C 0.23226 0.59569 0.36734 0.0
C77 C 0.2665 0.61184 0.33847 0.0
N78 N 0.21892 0.56938 0.29913 0.0
N79 N 0.20377 0.57063 0.34183 0.0
C80 C 0.28175 0.6037 0.25184 0.0
H81 H 0.29161 0.57112 0.23574 0.0
H82 H 0.3124 0.62515 0.25661 0.0
H83 H 0.25834 0.62168 0.2285 0.0
C84 C 0.27076 0.41776 0.22397 0.0
N85 N 0.23932 0.45067 0.2176 0.0
N86 N 0.2383 0.47714 0.25362 0.0
C87 C 0.26798 0.46111 0.28474 0.0
C88 C 0.28972 0.42318 0.26692 0.0
C89 C 0.28067 0.38096 0.19034 0.0
H90 H 0.25114 0.35747 0.18991 0.0
H91 H 0.28431 0.39549 0.15556 0.0
H92 H 0.31222 0.36188 0.19933 0.0
O93 O 0.13368 0.4716 0.19704 0.0
O94 O 0.1348 0.51344 0.25991 0.0
H95 H 0.24189 0.48662 0.34832 0.0
H96 H 0.29837 0.46127 0.3524 0.0
C97 C 0.27547 0.48185 0.33066 0.0
H98 H 0.29145 0.51515 0.32614 0.0
H99 H 0.17589 0.5521 0.3541 0.0
O100 O 0.18981 0.40849 0.13169 0.0
C101 C 0.11292 0.49096 0.23026 0.0
Co102 Co 0.53 0.66079 0.44667 0.0
Co103 Co 0.45714 0.6861 0.52278 0.0
C104 C 0.43169 0.66994 0.42503 0.0
O105 O 0.47266 0.66354 0.41092 0.0
O106 O 0.42286 0.678 0.46669 0.0
C107 C 0.57688 0.63751 0.36306 0.0
O108 O 0.53499 0.63042 0.34864 0.0
C109 C 0.39222 0.75347 0.55449 0.0
C110 C 0.37574 0.73186 0.62488 0.0
C111 C 0.36732 0.76566 0.5932 0.0
N112 N 0.4148 0.7148 0.56313 0.0
N113 N 0.40428 0.70159 0.60502 0.0
C114 C 0.39471 0.77818 0.50982 0.0
H115 H 0.39786 0.75448 0.48093 0.0
H116 H 0.42562 0.79982 0.50902 0.0
H117 H 0.36372 0.79955 0.50489 0.0
C118 C 0.57257 0.74456 0.48088 0.0
N119 N 0.5387 0.71377 0.48094 0.0
N120 N 0.50937 0.72308 0.51421 0.0
C121 C 0.52413 0.75962 0.53692 0.0
C122 C 0.5641 0.77471 0.51615 0.0
C123 C 0.61228 0.74451 0.44804 0.0
H124 H 0.63464 0.71496 0.45515 0.0
H125 H 0.59946 0.74101 0.41265 0.0
H126 H 0.63276 0.77579 0.45097 0.0
O127 O 0.52572 0.60794 0.48867 0.0
O128 O 0.47449 0.62506 0.54341 0.0
H129 H 0.48817 0.74934 0.60063 0.0
H130 H 0.52972 0.79425 0.60154 0.0
C131 C 0.50342 0.77722 0.58054 0.0
H132 H 0.47628 0.8023 0.57268 0.0
H133 H 0.41756 0.67268 0.62042 0.0
O134 O 0.58269 0.65097 0.40387 0.0
C135 C 0.50304 0.59775 0.52479 0.0
Co136 Co 0.68212 0.96965 0.67895 0.0
Co137 Co 0.69503 0.03519 0.76181 0.0
C138 C 0.70131 0.0653 0.66304 0.0
O139 O 0.69531 0.02638 0.64598 0.0
O140 O 0.70123 0.07162 0.70596 0.0
C141 C 0.64793 0.92739 0.60193 0.0
O142 O 0.62794 0.96709 0.59889 0.0
C143 C 0.7492 0.10079 0.80974 0.0
C144 C 0.72543 0.09456 0.8812 0.0
C145 C 0.75796 0.11542 0.85358 0.0
N146 N 0.71398 0.07189 0.81126 0.0
N147 N 0.69902 0.0691 0.85394 0.0
C148 C 0.77327 0.11437 0.76661 0.0
H149 H 0.74824 0.1331 0.74555 0.0
H150 H 0.78461 0.08394 0.7474 0.0
H151 H 0.80275 0.13696 0.77272 0.0
C152 C 0.75655 0.92028 0.72687 0.0
N153 N 0.72705 0.95525 0.72301 0.0
N154 N 0.73186 0.98229 0.75825 0.0
C155 C 0.76455 0.96535 0.78573 0.0
C156 C 0.78117 0.9255 0.76686 0.0
C157 C 0.75949 0.88195 0.69373 0.0
H158 H 0.7254 0.86557 0.69157 0.0
H159 H 0.7682 0.89516 0.65927 0.0
H160 H 0.78554 0.85657 0.70408 0.0
O161 O 0.62049 0.97779 0.70765 0.0
O162 O 0.6291 0.02119 0.76897 0.0
H163 H 0.75185 -0.00646 0.85198 0.0
H164 H 0.80815 0.96821 0.84561 0.0
C165 C 0.78118 0.98804 0.82812 0.0
H166 H 0.79586 0.02117 0.81892 0.0
H167 H 0.6725 0.04799 0.86478 0.0
O168 O 0.67579 0.92045 0.63431 0.0
C169 C 0.60405 -0.00199 0.74259 0.0
Co170 Co 0.0218 0.15032 0.95682 0.0
Co171 Co 0.95432 0.17226 0.03822 0.0
C172 C 0.92455 0.16912 0.93972 0.0
O173 O 0.96406 0.16 0.92311 0.0
O174 O 0.91853 0.17401 -0.01766 0.0
C175 C 0.06816 0.13666 0.86993 0.0
O176 O 0.02662 0.13771 0.85285 0.0
C177 C 0.89412 0.23997 0.07673 0.0
C178 C 0.86214 0.20592 0.13575 0.0
C179 C 0.86147 0.24624 0.11146 0.0
N180 N 0.91275 0.19864 0.08093 0.0
N181 N 0.89316 0.17814 0.11594 0.0
C182 C 0.9084 0.27211 0.03982 0.0
H183 H 0.93878 0.25927 0.02073 0.0
H184 H 0.91642 0.30555 0.05462 0.0
H185 H 0.88013 0.27606 0.01504 0.0
C186 C 0.07016 0.22846 -0.00462 0.0
N187 N 0.03527 0.19891 -0.00424 0.0
N188 N 0.00963 0.20562 0.03247 0.0
C189 C 0.02852 0.23869 0.05753 0.0
C190 C 0.06705 0.25444 0.03455 0.0
C191 C 0.1061 0.23104 0.95859 0.0
H192 H 0.12826 0.20054 0.96023 0.0
H193 H 0.08941 0.23146 0.92467 0.0
H194 H 0.12787 0.26136 0.96242 0.0
O195 O 0.01565 0.09402 -0.00645 0.0
O196 O 0.96703 0.10805 0.05141 0.0
H197 H 0.98803 0.22976 0.11888 0.0
H198 H 0.0385 0.26443 0.1254 0.0
C199 C 0.00996 0.25554 0.10229 0.0
H200 H 0.98943 0.28657 0.09649 0.0
H201 H 0.9006 0.14518 0.12596 0.0
O202 O 0.07324 0.14147 0.91275 0.0
C203 C 0.99344 0.08136 0.0291 0.0
Co204 Co 0.82714 0.51617 0.17391 0.0
Co205 Co 0.8267 0.46787 0.26811 0.0
C206 C 0.80848 0.42175 0.17601 0.0
O207 O 0.80816 0.45624 0.15021 0.0
O208 O 0.81641 0.42585 0.21824 0.0
C209 C 0.86023 0.55366 0.09186 0.0
O210 O 0.88196 0.51472 0.09059 0.0
C211 C 0.76421 0.41566 0.32093 0.0
C212 C 0.80167 0.39856 0.3838 0.0
C213 C 0.76016 0.39246 0.36164 0.0
N214 N 0.80616 0.4341 0.31876 0.0
N215 N 0.82885 0.42329 0.35606 0.0
C216 C 0.72738 0.42398 0.28636 0.0
H217 H 0.73563 0.45333 0.26458 0.0
H218 H 0.69362 0.42946 0.30354 0.0
H219 H 0.72457 0.39431 0.26362 0.0
C220 C 0.7554 0.5713 0.22271 0.0
N221 N 0.78778 0.53863 0.22102 0.0
N222 N 0.79184 0.52094 0.26192 0.0
C223 C 0.76365 0.54268 0.2913 0.0
C224 C 0.7391 0.57495 0.26744 0.0
C225 C 0.74016 0.59779 0.1821 0.0
H226 H 0.7688 0.61962 0.17045 0.0
H227 H 0.73215 0.57444 0.15367 0.0
H228 H 0.70978 0.61921 0.1903 0.0
O229 O 0.89142 0.50893 0.19766 0.0
O230 O 0.89226 0.48075 0.26809 0.0
H231 H 0.78863 0.51335 0.35363 0.0
H232 H 0.74963 0.56013 0.3617 0.0
C233 C 0.75726 0.53001 0.34049 0.0
H234 H 0.72773 0.50674 0.34382 0.0
H235 H 0.86237 0.43342 0.36288 0.0
O236 O 0.83163 0.56103 0.12412 0.0
C237 C 0.91325 0.4961 0.23309 0.0
Co238 Co 0.48926 0.34096 0.45563 0.0
Co239 Co 0.55128 0.32051 0.54013 0.0
C240 C 0.58783 0.33861 0.44415 0.0
O241 O 0.54983 0.33871 0.42303 0.0
O242 O 0.58927 0.33321 0.48698 0.0
C243 C 0.44323 0.35373 0.36868 0.0
O244 O 0.48458 0.35091 0.35043 0.0
C245 C 0.6118 0.25017 0.568 0.0
C246 C 0.63606 0.27033 0.63612 0.0
C247 C 0.63942 0.23646 0.60347 0.0
N248 N 0.59255 0.28998 0.57907 0.0
N249 N 0.60755 0.30232 0.61962 0.0
C250 C 0.60441 0.22607 0.52361 0.0
H251 H 0.57591 0.20172 0.52749 0.0
H252 H 0.63584 0.20709 0.51327 0.0
H253 H 0.59476 0.24993 0.4963 0.0
C254 C 0.44549 0.25589 0.48761 0.0
N255 N 0.47755 0.28843 0.49023 0.0
N256 N 0.50168 0.28222 0.52744 0.0
C257 C 0.48518 0.24634 0.5502 0.0
C258 C 0.44963 0.22815 0.52545 0.0
C259 C 0.41127 0.2519 0.45014 0.0
H260 H 0.42744 0.26096 0.41693 0.0
H261 H 0.39719 0.21727 0.44841 0.0
H262 H 0.38254 0.27577 0.457 0.0
O263 O 0.49098 0.39484 0.49736 0.0
O264 O 0.53059 0.38008 0.56072 0.0
H265 H 0.47048 0.21853 0.61671 0.0
H266 H 0.52597 0.20451 0.59373 0.0
C267 C 0.5001 0.23193 0.59685 0.0
H268 H 0.51521 0.26061 0.61561 0.0
H269 H 0.59788 0.3321 0.63621 0.0
O270 O 0.43842 0.35056 0.4118 0.0
C271 C 0.50677 0.40672 0.53615 0.0
C272 C 0.19236 0.12056 0.8331 0.0
C273 C 0.18857 0.0967 0.79196 0.0
C274 C 0.15313 0.1351 0.85711 0.0
C275 C 0.10873 0.12647 0.84062 0.0
H276 H 0.22584 0.12616 0.84787 0.0
H277 H 0.15769 0.15194 0.88959 0.0
S278 S 0.08114 0.06809 0.73212 0.0
N279 N 0.13784 0.06715 0.73412 0.0
N280 N 0.06374 0.09512 0.77859 0.0
C281 C 0.10473 0.105 0.79792 0.0
C282 C 0.1448 0.08995 0.7737 0.0
C283 C 0.94055 0.62732 0.02291 0.0
C284 C 0.91675 0.66855 0.02125 0.0
C285 C 0.9205 0.58926 0.04285 0.0
C286 C 0.87624 0.59139 0.06271 0.0
H287 H 0.97581 0.62512 0.01073 0.0
H288 H 0.94111 0.55884 0.04525 0.0
S289 S 0.79834 0.69095 0.06306 0.0
N290 N 0.84572 0.70887 0.03751 0.0
N291 N 0.80775 0.63744 0.07562 0.0
C292 C 0.85111 0.63192 0.05878 0.0
C293 C 0.87147 0.67054 0.03789 0.0
C294 C 0.37222 0.40092 0.27144 0.0
C295 C 0.32714 0.39739 0.28851 0.0
C296 C 0.4096 0.38465 0.29663 0.0
C297 C 0.40302 0.36481 0.33993 0.0
H298 H 0.3788 0.41845 0.23959 0.0
H299 H 0.44394 0.38976 0.28305 0.0
S300 S 0.29046 0.34262 0.39633 0.0
N301 N 0.27716 0.36862 0.34834 0.0
N302 N 0.34709 0.33859 0.39628 0.0
C303 C 0.35763 0.35876 0.35589 0.0
C304 C 0.31974 0.37488 0.32997 0.0
C305 C 0.59026 0.894 0.5497 0.0
C306 C 0.6319 0.8895 0.57342 0.0
C307 C 0.56985 0.85687 0.52885 0.0
C308 C 0.59077 0.81422 0.53013 0.0
H309 H 0.57187 0.92583 0.54928 0.0
H310 H 0.53649 0.86111 0.51321 0.0
S311 S 0.70193 0.78495 0.58308 0.0
N312 N 0.6951 0.8393 0.5936 0.0
N313 N 0.65643 0.76959 0.55372 0.0
C314 C 0.63362 0.80956 0.55101 0.0
C315 C 0.65431 0.84726 0.57282 0.0
C316 C 0.88413 0.13553 0.87379 0.0
C317 C 0.8833 0.1652 0.91119 0.0
C318 C 0.8433 0.1211 0.85396 0.0
C319 C 0.8003 0.13681 0.86994 0.0
H320 H 0.91616 0.12045 0.86209 0.0
H321 H 0.8455 0.09528 0.82786 0.0
S322 S 0.77975 0.21952 0.96273 0.0
N323 N 0.83616 0.21317 0.96063 0.0
N324 N 0.75936 0.18644 0.9224 0.0
C325 C 0.7991 0.16872 0.90518 0.0
C326 C 0.84065 0.18313 0.92578 0.0
C327 C 0.82981 0.32456 0.09494 0.0
C328 C 0.8363 0.28826 0.12544 0.0
C329 C 0.81676 0.36752 0.11063 0.0
C330 C 0.80793 0.37532 0.15719 0.0
H331 H 0.83602 0.32082 0.05884 0.0
H332 H 0.81628 0.39517 0.08649 0.0
S333 S 0.80305 0.28836 0.24852 0.0
N334 N 0.82174 0.26107 0.20281 0.0
N335 N 0.79475 0.34072 0.23162 0.0
C336 C 0.80696 0.33779 0.18671 0.0
C337 C 0.82146 0.29447 0.171 0.0
C338 C 0.66282 0.37696 0.44542 0.0
C339 C 0.63132 0.35042 0.42121 0.0
C340 C 0.70505 0.38891 0.42625 0.0
C341 C 0.71754 0.37468 0.38219 0.0
H342 H 0.65442 0.38941 0.47934 0.0
H343 H 0.72749 0.41059 0.44563 0.0
S344 S 0.64998 0.30005 0.30678 0.0
N345 N 0.61657 0.30776 0.35217 0.0
N346 N 0.69731 0.32889 0.31643 0.0
C347 C 0.68723 0.34671 0.35811 0.0
C348 C 0.64365 0.33504 0.37749 0.0
C349 C 0.63579 0.15268 0.60029 0.0
C350 C 0.66112 0.19183 0.60948 0.0
C351 C 0.6525 0.11011 0.61233 0.0
C352 C 0.69476 0.1054 0.63455 0.0
H353 H 0.6013 0.15494 0.58702 0.0
H354 H 0.6301 0.08133 0.60838 0.0
S355 S 0.77781 0.19623 0.65851 0.0
N356 N 0.73308 0.22263 0.63642 0.0
N357 N 0.76466 0.14213 0.6589 0.0
C358 C 0.72212 0.14371 0.64032 0.0
C359 C 0.70511 0.18714 0.62808 0.0
C360 C 0.70042 0.6282 0.32134 0.0
C361 C 0.69733 0.59795 0.28465 0.0
C362 C 0.66102 0.64229 0.34544 0.0
C363 C 0.61713 0.62666 0.3335 0.0
H364 H 0.73377 0.63931 0.33287 0.0
H365 H 0.66519 0.66444 0.37452 0.0
S366 S 0.59107 0.54877 0.23788 0.0
N367 N 0.64749 0.55417 0.23605 0.0
N368 N 0.57305 0.58107 0.28049 0.0
C369 C 0.61353 0.59825 0.2951 0.0
C370 C 0.65377 0.58379 0.27084 0.0
C371 C 0.44721 0.1464 0.54137 0.0
C372 C 0.42359 0.18753 0.53773 0.0
C373 C 0.42605 0.10872 0.56077 0.0
C374 C 0.38079 0.11119 0.57815 0.0
H375 H 0.48293 0.14385 0.53072 0.0
H376 H 0.44632 0.07821 0.56434 0.0
S377 S 0.3035 0.21103 0.5736 0.0
N378 N 0.35212 0.22841 0.55007 0.0
N379 N 0.31204 0.15768 0.58744 0.0
C380 C 0.35614 0.15181 0.5728 0.0
C381 C 0.37765 0.19002 0.55235 0.0
C382 C 0.84884 0.85757 0.85206 0.0
C383 C 0.89274 0.85463 0.83144 0.0
C384 C 0.81201 0.87808 0.82958 0.0
C385 C 0.81768 0.89646 0.78575 0.0
H386 H 0.84316 0.84537 0.88652 0.0
H387 H 0.77933 0.88141 0.84742 0.0
S388 S 0.92381 0.8945 0.7149 0.0
N389 N 0.9385 0.86908 0.76283 0.0
N390 N 0.86899 0.90819 0.7211 0.0
C391 C 0.86035 0.8916 0.76357 0.0
C392 C 0.89799 0.87053 0.78631 0.0
C393 C 0.12585 0.29066 0.08321 0.0
C394 C 0.09502 0.29357 0.04687 0.0
C395 C 0.14942 0.32883 0.09823 0.0
C396 C 0.1423 0.37127 0.07774 0.0
H397 H 0.13086 0.25893 0.10083 0.0
H398 H 0.17178 0.32533 0.12739 0.0
S399 S 0.06672 0.39496 -0.02098 0.0
N400 N 0.06011 0.3406 -0.01103 0.0
N401 N 0.10391 0.41281 0.01715 0.0
C402 C 0.11269 0.37393 0.04006 0.0
C403 C 0.08909 0.33492 0.02465 0.0
C404 C 0.34997 0.68257 0.40451 0.0
C405 C 0.39249 0.66147 0.39494 0.0
C406 C 0.30949 0.66766 0.38423 0.0
C407 C 0.31022 0.63131 0.35365 0.0
H408 H 0.3476 0.70942 0.42953 0.0
H409 H 0.27719 0.68361 0.3938 0.0
S410 S 0.41266 0.56418 0.3177 0.0
N411 N 0.433 0.60294 0.35235 0.0
N412 N 0.35691 0.57411 0.31506 0.0
C413 C 0.35273 0.61084 0.3426 0.0
C414 C 0.39397 0.62632 0.3629 0.0
C415 C 0.34578 0.89137 0.6024 0.0
C416 C 0.31066 0.89367 0.63553 0.0
C417 C 0.36252 0.84973 0.58697 0.0
C418 C 0.34371 0.80897 0.60301 0.0
H419 H 0.36369 0.9216 0.59185 0.0
H420 H 0.3928 0.84988 0.56529 0.0
S421 S 0.24604 0.79756 0.68445 0.0
N422 N 0.25429 0.85243 0.68038 0.0
N423 N 0.28448 0.77395 0.64991 0.0
C424 C 0.30591 0.81111 0.63317 0.0
C425 C 0.28945 0.85352 0.64952 0.0
C426 C 0.15527 0.85843 0.93356 0.0
C427 C 0.12159 0.83559 0.90843 0.0
C428 C 0.19692 0.87099 0.91357 0.0
C429 C 0.20675 0.86109 0.86766 0.0
H430 H 0.14907 0.86768 0.96894 0.0
H431 H 0.22104 0.88981 0.93398 0.0
S432 S 0.13282 0.7967 0.78862 0.0
N433 N 0.10194 0.80079 0.83618 0.0
N434 N 0.18165 0.82285 0.79876 0.0
C435 C 0.17427 0.83668 0.84246 0.0
C436 C 0.13124 0.82442 0.86277 0.0
C437 C 0.20049 0.67711 0.11962 0.0
C438 C 0.15848 0.67789 0.09647 0.0
C439 C 0.22101 0.63618 0.13218 0.0
C440 C 0.19985 0.59485 0.12247 0.0
H441 H 0.21635 0.70834 0.1301 0.0
H442 H 0.25194 0.63699 0.15232 0.0
S443 S 0.09089 0.57858 0.06038 0.0
N444 N 0.0976 0.63371 0.06232 0.0
N445 N 0.13646 0.557 0.08561 0.0
C446 C 0.15979 0.59511 0.09619 0.0
C447 C 0.13877 0.63669 0.08357 0.0
C448 C 0.52805 0.97468 0.77518 0.0
C449 C 0.55397 0.00255 0.74626 0.0
C450 C 0.47977 0.97631 0.77469 0.0
C451 C 0.45608 0.00578 0.74513 0.0
H452 H 0.54511 0.95064 0.79719 0.0
H453 H 0.461 0.95319 0.79647 0.0
S454 S 0.51004 0.08821 0.66551 0.0
N455 N 0.55377 0.06196 0.68947 0.0
N456 N 0.46343 0.06577 0.68847 0.0
C457 C 0.48227 0.03514 0.71744 0.0
C458 C 0.53116 0.03326 0.71798 0.0
C459 C 0.95327 0.0085 0.04021 0.0
C460 C 0.9944 0.03313 0.04061 0.0
C461 C 0.95403 0.96121 0.03927 0.0
C462 C 0.99585 0.9373 0.0404 0.0
H463 H 0.92058 0.02583 0.03691 0.0
H464 H 0.92198 0.94331 0.0353 0.0
S465 S 0.1125 0.98639 0.04594 0.0
N466 N 0.07761 0.0305 0.04466 0.0
N467 N 0.07905 0.94163 0.04518 0.0
C468 C 0.0369 0.96162 0.04437 0.0
C469 C 0.03618 0.00963 0.04387 0.0
C470 C 0.03744 0.49594 0.27224 0.0
C471 C 0.06211 0.49137 0.23091 0.0
C472 C 0.9892 0.49759 0.2728 0.0
C473 C 0.96409 0.49588 0.23196 0.0
H474 H 0.05549 0.49781 0.30437 0.0
H475 H 0.97148 0.50057 0.30541 0.0
S476 S 0.01264 0.48533 0.1145 0.0
N477 N 0.05785 0.48595 0.14802 0.0
N478 N 0.96767 0.48955 0.14906 0.0
C479 C 0.98848 0.4919 0.19039 0.0
C480 C 0.03736 0.48948 0.18987 0.0
C481 C 0.46411 0.47903 0.54656 0.0
C482 C 0.50588 0.45507 0.54693 0.0
C483 C 0.46354 0.52625 0.54422 0.0
C484 C 0.50473 0.55064 0.5404 0.0
H485 H 0.43183 0.46106 0.54549 0.0
H486 H 0.43071 0.54341 0.54141 0.0
S487 S 0.62288 0.50363 0.54259 0.0
N488 N 0.58925 0.45915 0.54685 0.0
N489 N 0.58812 0.54778 0.54015 0.0
C490 C 0.5466 0.52719 0.54314 0.0
C491 C 0.54718 0.47933 0.547 0.0
loop_
_geom_bond_atom_site_label_1
_geom_bond_atom_site_label_2
_geom_bond_distance
_geom_bond_site_symmetry_2
_ccdc_geom_bond_type
Co0 O3 1.970 1_545 S
Co0 N17 1.989 . S
Co0 O25 1.967 . S
Co0 O32 1.920 . S
Co1 O4 1.966 . S
Co1 N10 2.022 . S
Co1 N18 1.993 1_565 S
Co1 O26 1.941 . S
C2 O3 1.258 . S
C2 O4 1.263 . S
O3 Co0 1.970 1_565 S
O3 C2 1.258 . S
O4 Co1 1.966 . S
O4 C2 1.263 . S
C5 O6 1.235 . S
C5 O32 1.289 . S
O6 C5 1.235 . S
C7 C9 1.400 . S
C7 N10 1.351 . S
C7 C12 1.501 . S
C8 C9 1.387 . S
C8 N11 1.341 . S
C9 C7 1.400 . S
C9 C8 1.387 . S
N10 Co1 2.022 . S
N10 C7 1.351 . S
N10 N11 1.365 . S
N11 C8 1.341 . S
N11 N10 1.365 . S
N11 H31 0.862 . S
C12 C7 1.501 . S
C12 H13 0.961 . S
C12 H14 0.961 . S
C12 H15 0.960 . S
H13 C12 0.961 . S
H14 C12 0.961 . S
H15 C12 0.960 . S
C16 N17 1.342 . S
C16 C20 1.401 . S
C16 C21 1.499 . S
N17 Co0 1.989 . S
N17 C16 1.342 . S
N17 N18 1.388 . S
N18 Co1 1.993 1_545 S
N18 N17 1.388 . S
N18 C19 1.346 . S
C19 N18 1.346 . S
C19 C20 1.396 . S
C19 C29 1.510 . S
C20 C16 1.401 . S
C20 C19 1.396 . S
C21 C16 1.499 . S
C21 H22 0.959 . S
C21 H23 0.960 . S
C21 H24 0.961 . S
H22 C21 0.959 . S
H23 C21 0.960 . S
H24 C21 0.961 . S
O25 Co0 1.967 . S
O25 C33 1.253 1_545 S
O26 Co1 1.941 . S
O26 C33 1.271 . S
H27 C29 0.959 . S
H28 C29 0.961 . S
C29 C19 1.510 . S
C29 H27 0.959 . S
C29 H28 0.961 . S
C29 H30 0.960 1_545 S
H30 C29 0.960 1_565 S
H31 N11 0.862 . S
O32 Co0 1.920 . S
O32 C5 1.289 . S
C33 O25 1.253 1_565 S
C33 O26 1.271 . S
Co34 O37 1.970 1_655 S
Co34 N51 1.989 1_556 S
Co34 O59 1.981 . S
Co34 O66 1.920 . S
Co35 O38 1.966 1_554 S
Co35 N44 2.022 . S
Co35 N52 1.993 1_455 S
Co35 O60 1.941 . S
C36 O37 1.258 . S
C36 O38 1.263 . S
O37 Co34 1.970 1_455 S
O37 C36 1.258 . S
O38 Co35 1.966 1_556 S
O38 C36 1.263 . S
C39 O40 1.235 . S
C39 O66 1.289 . S
O40 C39 1.235 . S
C41 C43 1.400 . S
C41 N44 1.351 . S
C41 C46 1.501 . S
C42 C43 1.387 . S
C42 N45 1.341 . S
C43 C41 1.400 . S
C43 C42 1.387 . S
N44 Co35 2.022 . S
N44 C41 1.351 . S
N44 N45 1.365 . S
N45 C42 1.341 . S
N45 N44 1.365 . S
N45 H65 0.862 . S
C46 C41 1.501 . S
C46 H47 0.961 . S
C46 H48 0.961 . S
C46 H49 0.960 . S
H47 C46 0.961 . S
H48 C46 0.961 . S
H49 C46 0.960 . S
C50 N51 1.342 . S
C50 C54 1.401 . S
C50 C55 1.499 1_554 S
N51 Co34 1.989 1_554 S
N51 C50 1.342 . S
N51 N52 1.388 . S
N52 Co35 1.993 1_655 S
N52 N51 1.388 . S
N52 C53 1.346 . S
C53 N52 1.346 . S
C53 C54 1.396 . S
C53 C63 1.510 1_655 S
C54 C50 1.401 . S
C54 C53 1.396 . S
C55 C50 1.499 1_556 S
C55 H56 0.959 . S
C55 H57 0.960 . S
C55 H58 0.961 1_556 S
H56 C55 0.959 . S
H57 C55 0.960 . S
H58 C55 0.961 1_554 S
O59 Co34 1.981 . S
O59 C67 1.238 1_656 S
O60 Co35 1.941 . S
O60 C67 1.266 . S
H61 C63 0.959 1_655 S
H62 C63 0.961 . S
C63 C53 1.510 1_455 S
C63 H61 0.959 1_455 S
C63 H62 0.961 . S
C63 H64 0.960 . S
H64 C63 0.960 . S
H65 N45 0.862 . S
O66 Co34 1.920 . S
O66 C39 1.289 . S
C67 O59 1.238 1_454 S
C67 O60 1.266 . S
Co68 O71 1.970 . S
Co68 N85 1.989 . S
Co68 O93 1.967 . S
Co68 O100 1.920 . S
Co69 O72 1.966 . S
Co69 N78 2.022 . S
Co69 N86 1.993 . S
Co69 O94 1.941 . S
C70 O71 1.258 . S
C70 O72 1.263 . S
O71 Co68 1.970 . S
O71 C70 1.258 . S
O72 Co69 1.966 . S
O72 C70 1.263 . S
C73 O74 1.235 . S
C73 O100 1.289 . S
O74 C73 1.235 . S
C75 C77 1.400 . S
C75 N78 1.351 . S
C75 C80 1.501 . S
C76 C77 1.387 . S
C76 N79 1.341 . S
C77 C75 1.400 . S
C77 C76 1.387 . S
N78 Co69 2.022 . S
N78 C75 1.351 . S
N78 N79 1.365 . S
N79 C76 1.341 . S
N79 N78 1.365 . S
N79 H99 0.862 . S
C80 C75 1.501 . S
C80 H81 0.961 . S
C80 H82 0.961 . S
C80 H83 0.960 . S
H81 C80 0.961 . S
H82 C80 0.961 . S
H83 C80 0.960 . S
C84 N85 1.342 . S
C84 C88 1.401 . S
C84 C89 1.499 . S
N85 Co68 1.989 . S
N85 C84 1.342 . S
N85 N86 1.388 . S
N86 Co69 1.993 . S
N86 N85 1.388 . S
N86 C87 1.346 . S
C87 N86 1.346 . S
C87 C88 1.396 . S
C87 C97 1.510 . S
C88 C84 1.401 . S
C88 C87 1.396 . S
C89 C84 1.499 . S
C89 H90 0.959 . S
C89 H91 0.960 . S
C89 H92 0.961 . S
H90 C89 0.959 . S
H91 C89 0.960 . S
H92 C89 0.961 . S
O93 Co68 1.967 . S
O93 C101 1.258 . S
O94 Co69 1.941 . S
O94 C101 1.266 . S
H95 C97 0.959 . S
H96 C97 0.961 . S
C97 C87 1.510 . S
C97 H95 0.959 . S
C97 H96 0.961 . S
C97 H98 0.960 . S
H98 C97 0.960 . S
H99 N79 0.862 . S
O100 Co68 1.920 . S
O100 C73 1.289 . S
C101 O93 1.258 . S
C101 O94 1.266 . S
Co102 O105 1.970 . S
Co102 N119 1.989 . S
Co102 O127 1.967 . S
Co102 O134 1.920 . S
Co103 O106 1.966 . S
Co103 N112 2.022 . S
Co103 N120 1.993 . S
Co103 O128 1.941 . S
C104 O105 1.258 . S
C104 O106 1.263 . S
O105 Co102 1.970 . S
O105 C104 1.258 . S
O106 Co103 1.966 . S
O106 C104 1.263 . S
C107 O108 1.235 . S
C107 O134 1.289 . S
O108 C107 1.235 . S
C109 C111 1.400 . S
C109 N112 1.351 . S
C109 C114 1.501 . S
C110 C111 1.387 . S
C110 N113 1.341 . S
C111 C109 1.400 . S
C111 C110 1.387 . S
N112 Co103 2.022 . S
N112 C109 1.351 . S
N112 N113 1.365 . S
N113 C110 1.341 . S
N113 N112 1.365 . S
N113 H133 0.862 . S
C114 C109 1.501 . S
C114 H115 0.961 . S
C114 H116 0.961 . S
C114 H117 0.960 . S
H115 C114 0.961 . S
H116 C114 0.961 . S
H117 C114 0.960 . S
C118 N119 1.342 . S
C118 C122 1.401 . S
C118 C123 1.499 . S
N119 Co102 1.989 . S
N119 C118 1.342 . S
N119 N120 1.388 . S
N120 Co103 1.993 . S
N120 N119 1.388 . S
N120 C121 1.346 . S
C121 N120 1.346 . S
C121 C122 1.396 . S
C121 C131 1.510 . S
C122 C118 1.401 . S
C122 C121 1.396 . S
C123 C118 1.499 . S
C123 H124 0.959 . S
C123 H125 0.960 . S
C123 H126 0.961 . S
H124 C123 0.959 . S
H125 C123 0.960 . S
H126 C123 0.961 . S
O127 Co102 1.967 . S
O127 C135 1.258 . S
O128 Co103 1.941 . S
O128 C135 1.266 . S
H129 C131 0.959 . S
H130 C131 0.961 . S
C131 C121 1.510 . S
C131 H129 0.959 . S
C131 H130 0.961 . S
C131 H132 0.960 . S
H132 C131 0.960 . S
H133 N113 0.862 . S
O134 Co102 1.920 . S
O134 C107 1.289 . S
C135 O127 1.258 . S
C135 O128 1.266 . S
Co136 O139 1.970 1_565 S
Co136 N153 1.989 . S
Co136 O161 1.967 . S
Co136 O168 1.920 . S
Co137 O140 1.966 . S
Co137 N146 2.022 . S
Co137 N154 1.993 1_545 S
Co137 O162 1.941 . S
C138 O139 1.258 . S
C138 O140 1.263 . S
O139 Co136 1.970 1_545 S
O139 C138 1.258 . S
O140 Co137 1.966 . S
O140 C138 1.263 . S
C141 O142 1.235 . S
C141 O168 1.289 . S
O142 C141 1.235 . S
C143 C145 1.400 . S
C143 N146 1.351 . S
C143 C148 1.501 . S
C144 C145 1.387 . S
C144 N147 1.341 . S
C145 C143 1.400 . S
C145 C144 1.387 . S
N146 Co137 2.022 . S
N146 C143 1.351 . S
N146 N147 1.365 . S
N147 C144 1.341 . S
N147 N146 1.365 . S
N147 H167 0.862 . S
C148 C143 1.501 . S
C148 H149 0.961 . S
C148 H150 0.961 . S
C148 H151 0.960 . S
H149 C148 0.961 . S
H150 C148 0.961 . S
H151 C148 0.960 . S
C152 N153 1.342 . S
C152 C156 1.401 . S
C152 C157 1.499 . S
N153 Co136 1.989 . S
N153 C152 1.342 . S
N153 N154 1.388 . S
N154 Co137 1.993 1_565 S
N154 N153 1.388 . S
N154 C155 1.346 . S
C155 N154 1.346 . S
C155 C156 1.396 . S
C155 C165 1.510 1_565 S
C156 C152 1.401 . S
C156 C155 1.396 . S
C157 C152 1.499 . S
C157 H158 0.959 . S
C157 H159 0.960 . S
C157 H160 0.961 . S
H158 C157 0.959 . S
H159 C157 0.960 . S
H160 C157 0.961 . S
O161 Co136 1.967 . S
O161 C169 1.258 1_565 S
O162 Co137 1.941 . S
O162 C169 1.266 . S
H163 C165 0.959 1_565 S
H164 C165 0.961 . S
C165 C155 1.510 1_545 S
C165 H163 0.959 1_545 S
C165 H164 0.961 . S
C165 H166 0.960 . S
H166 C165 0.960 . S
H167 N147 0.862 . S
O168 Co136 1.920 . S
O168 C141 1.289 . S
C169 O161 1.258 1_545 S
C169 O162 1.266 . S
Co170 O173 1.970 1_455 S
Co170 N187 1.989 1_556 S
Co170 O195 1.981 . S
Co170 O202 1.920 . S
Co171 O174 1.966 1_554 S
Co171 N180 2.022 . S
Co171 N188 1.993 1_655 S
Co171 O196 1.941 . S
C172 O173 1.258 . S
C172 O174 1.263 . S
O173 Co170 1.970 1_655 S
O173 C172 1.258 . S
O174 Co171 1.966 1_556 S
O174 C172 1.263 . S
C175 O176 1.235 . S
C175 O202 1.289 . S
O176 C175 1.235 . S
C177 C179 1.400 . S
C177 N180 1.351 . S
C177 C182 1.501 . S
C178 C179 1.387 . S
C178 N181 1.341 . S
C179 C177 1.400 . S
C179 C178 1.387 . S
N180 Co171 2.022 . S
N180 C177 1.351 . S
N180 N181 1.365 . S
N181 C178 1.341 . S
N181 N180 1.365 . S
N181 H201 0.862 . S
C182 C177 1.501 . S
C182 H183 0.961 . S
C182 H184 0.961 . S
C182 H185 0.960 . S
H183 C182 0.961 . S
H184 C182 0.961 . S
H185 C182 0.960 . S
C186 N187 1.342 . S
C186 C190 1.401 . S
C186 C191 1.499 1_554 S
N187 Co170 1.989 1_554 S
N187 C186 1.342 . S
N187 N188 1.388 . S
N188 Co171 1.993 1_455 S
N188 N187 1.388 . S
N188 C189 1.346 . S
C189 N188 1.346 . S
C189 C190 1.396 . S
C189 C199 1.510 . S
C190 C186 1.401 . S
C190 C189 1.396 . S
C191 C186 1.499 1_556 S
C191 H192 0.959 . S
C191 H193 0.960 . S
C191 H194 0.961 1_556 S
H192 C191 0.959 . S
H193 C191 0.960 . S
H194 C191 0.961 1_554 S
O195 Co170 1.981 . S
O195 C203 1.232 1_456 S
O196 Co171 1.941 . S
O196 C203 1.273 . S
H197 C199 0.959 . S
H198 C199 0.961 . S
C199 C189 1.510 . S
C199 H197 0.959 . S
C199 H198 0.961 . S
C199 H200 0.960 1_455 S
H200 C199 0.960 1_655 S
H201 N181 0.862 . S
O202 Co170 1.920 . S
O202 C175 1.289 . S
C203 O195 1.232 1_654 S
C203 O196 1.273 . S
Co204 O207 1.970 . S
Co204 N221 1.989 . S
Co204 O229 1.967 . S
Co204 O236 1.920 . S
Co205 O208 1.966 . S
Co205 N214 2.022 . S
Co205 N222 1.993 . S
Co205 O230 1.941 . S
C206 O207 1.258 . S
C206 O208 1.263 . S
O207 Co204 1.970 . S
O207 C206 1.258 . S
O208 Co205 1.966 . S
O208 C206 1.263 . S
C209 O210 1.235 . S
C209 O236 1.289 . S
O210 C209 1.235 . S
C211 C213 1.400 . S
C211 N214 1.351 . S
C211 C216 1.501 . S
C212 C213 1.387 . S
C212 N215 1.341 . S
C213 C211 1.400 . S
C213 C212 1.387 . S
N214 Co205 2.022 . S
N214 C211 1.351 . S
N214 N215 1.365 . S
N215 C212 1.341 . S
N215 N214 1.365 . S
N215 H235 0.862 . S
C216 C211 1.501 . S
C216 H217 0.961 . S
C216 H218 0.961 . S
C216 H219 0.960 . S
H217 C216 0.961 . S
H218 C216 0.961 . S
H219 C216 0.960 . S
C220 N221 1.342 . S
C220 C224 1.401 . S
C220 C225 1.499 . S
N221 Co204 1.989 . S
N221 C220 1.342 . S
N221 N222 1.388 . S
N222 Co205 1.993 . S
N222 N221 1.388 . S
N222 C223 1.346 . S
C223 N222 1.346 . S
C223 C224 1.396 . S
C223 C233 1.510 . S
C224 C220 1.401 . S
C224 C223 1.396 . S
C225 C220 1.499 . S
C225 H226 0.959 . S
C225 H227 0.960 . S
C225 H228 0.961 . S
H226 C225 0.959 . S
H227 C225 0.960 . S
H228 C225 0.961 . S
O229 Co204 1.967 . S
O229 C237 1.258 . S
O230 Co205 1.941 . S
O230 C237 1.266 . S
H231 C233 0.959 . S
H232 C233 0.961 . S
C233 C223 1.510 . S
C233 H231 0.959 . S
C233 H232 0.961 . S
C233 H234 0.960 . S
H234 C233 0.960 . S
H235 N215 0.862 . S
O236 Co204 1.920 . S
O236 C209 1.289 . S
C237 O229 1.258 . S
C237 O230 1.266 . S
Co238 O241 1.970 . S
Co238 N255 1.989 . S
Co238 O263 1.967 . S
Co238 O270 1.920 . S
Co239 O242 1.966 . S
Co239 N248 2.022 . S
Co239 N256 1.993 . S
Co239 O264 1.941 . S
C240 O241 1.258 . S
C240 O242 1.263 . S
O241 Co238 1.970 . S
O241 C240 1.258 . S
O242 Co239 1.966 . S
O242 C240 1.263 . S
C243 O244 1.235 . S
C243 O270 1.289 . S
O244 C243 1.235 . S
C245 C247 1.400 . S
C245 N248 1.351 . S
C245 C250 1.501 . S
C246 C247 1.387 . S
C246 N249 1.341 . S
C247 C245 1.400 . S
C247 C246 1.387 . S
N248 Co239 2.022 . S
N248 C245 1.351 . S
N248 N249 1.365 . S
N249 C246 1.341 . S
N249 N248 1.365 . S
N249 H269 0.862 . S
C250 C245 1.501 . S
C250 H251 0.961 . S
C250 H252 0.961 . S
C250 H253 0.960 . S
H251 C250 0.961 . S
H252 C250 0.961 . S
H253 C250 0.960 . S
C254 N255 1.342 . S
C254 C258 1.401 . S
C254 C259 1.499 . S
N255 Co238 1.989 . S
N255 C254 1.342 . S
N255 N256 1.388 . S
N256 Co239 1.993 . S
N256 N255 1.388 . S
N256 C257 1.346 . S
C257 N256 1.346 . S
C257 C258 1.396 . S
C257 C267 1.510 . S
C258 C254 1.401 . S
C258 C257 1.396 . S
C259 C254 1.499 . S
C259 H260 0.959 . S
C259 H261 0.960 . S
C259 H262 0.961 . S
H260 C259 0.959 . S
H261 C259 0.960 . S
H262 C259 0.961 . S
O263 Co238 1.967 . S
O263 C271 1.258 . S
O264 Co239 1.941 . S
O264 C271 1.266 . S
H265 C267 0.959 . S
H266 C267 0.961 . S
C267 C257 1.510 . S
C267 H265 0.959 . S
C267 H266 0.961 . S
C267 H268 0.960 . S
H268 C267 0.960 . S
H269 N249 0.862 . S
O270 Co238 1.920 . S
O270 C243 1.289 . S
C271 O263 1.258 . S
C271 O264 1.266 . S
C272 C273 1.369 . S
C272 C274 1.419 . S
C272 H276 0.930 . S
C273 C272 1.369 . S
C273 C282 1.429 . S
C274 C272 1.419 . S
C274 C275 1.363 . S
C274 H277 0.929 . S
C275 C274 1.363 . S
C275 C281 1.428 . S
H276 C272 0.930 . S
H277 C274 0.929 . S
S278 N279 1.613 . S
S278 N280 1.610 . S
N279 S278 1.613 . S
N279 C282 1.350 . S
N280 S278 1.610 . S
N280 C281 1.351 . S
C281 C275 1.428 . S
C281 N280 1.351 . S
C281 C282 1.434 . S
C282 C273 1.429 . S
C282 N279 1.350 . S
C282 C281 1.434 . S
C283 C284 1.369 . S
C283 C285 1.419 . S
C283 H287 0.930 . S
C284 C283 1.369 . S
C284 C293 1.429 . S
C285 C283 1.419 . S
C285 C286 1.363 . S
C285 H288 0.929 . S
C286 C285 1.363 . S
C286 C292 1.428 . S
H287 C283 0.930 . S
H288 C285 0.929 . S
S289 N290 1.613 . S
S289 N291 1.610 . S
N290 S289 1.613 . S
N290 C293 1.350 . S
N291 S289 1.610 . S
N291 C292 1.351 . S
C292 C286 1.428 . S
C292 N291 1.351 . S
C292 C293 1.434 . S
C293 C284 1.429 . S
C293 N290 1.350 . S
C293 C292 1.434 . S
C294 C295 1.369 . S
C294 C296 1.419 . S
C294 H298 0.930 . S
C295 C294 1.369 . S
C295 C304 1.429 . S
C296 C294 1.419 . S
C296 C297 1.363 . S
C296 H299 0.929 . S
C297 C296 1.363 . S
C297 C303 1.428 . S
H298 C294 0.930 . S
H299 C296 0.929 . S
S300 N301 1.613 . S
S300 N302 1.610 . S
N301 S300 1.613 . S
N301 C304 1.350 . S
N302 S300 1.610 . S
N302 C303 1.351 . S
C303 C297 1.428 . S
C303 N302 1.351 . S
C303 C304 1.434 . S
C304 C295 1.429 . S
C304 N301 1.350 . S
C304 C303 1.434 . S
C305 C306 1.369 . S
C305 C307 1.419 . S
C305 H309 0.930 . S
C306 C305 1.369 . S
C306 C315 1.429 . S
C307 C305 1.419 . S
C307 C308 1.363 . S
C307 H310 0.929 . S
C308 C307 1.363 . S
C308 C314 1.428 . S
H309 C305 0.930 . S
H310 C307 0.929 . S
S311 N312 1.613 . S
S311 N313 1.610 . S
N312 S311 1.613 . S
N312 C315 1.350 . S
N313 S311 1.610 . S
N313 C314 1.351 . S
C314 C308 1.428 . S
C314 N313 1.351 . S
C314 C315 1.434 . S
C315 C306 1.429 . S
C315 N312 1.350 . S
C315 C314 1.434 . S
C316 C317 1.369 . S
C316 C318 1.419 . S
C316 H320 0.930 . S
C317 C316 1.369 . S
C317 C326 1.429 . S
C318 C316 1.419 . S
C318 C319 1.363 . S
C318 H321 0.929 . S
C319 C318 1.363 . S
C319 C325 1.428 . S
H320 C316 0.930 . S
H321 C318 0.929 . S
S322 N323 1.613 . S
S322 N324 1.610 . S
N323 S322 1.613 . S
N323 C326 1.350 . S
N324 S322 1.610 . S
N324 C325 1.351 . S
C325 C319 1.428 . S
C325 N324 1.351 . S
C325 C326 1.434 . S
C326 C317 1.429 . S
C326 N323 1.350 . S
C326 C325 1.434 . S
C327 C328 1.369 . S
C327 C329 1.419 . S
C327 H331 0.930 . S
C328 C327 1.369 . S
C328 C337 1.429 . S
C329 C327 1.419 . S
C329 C330 1.363 . S
C329 H332 0.929 . S
C330 C329 1.363 . S
C330 C336 1.428 . S
H331 C327 0.930 . S
H332 C329 0.929 . S
S333 N334 1.613 . S
S333 N335 1.610 . S
N334 S333 1.613 . S
N334 C337 1.350 . S
N335 S333 1.610 . S
N335 C336 1.351 . S
C336 C330 1.428 . S
C336 N335 1.351 . S
C336 C337 1.434 . S
C337 C328 1.429 . S
C337 N334 1.350 . S
C337 C336 1.434 . S
C338 C339 1.369 . S
C338 C340 1.419 . S
C338 H342 0.930 . S
C339 C338 1.369 . S
C339 C348 1.429 . S
C340 C338 1.419 . S
C340 C341 1.363 . S
C340 H343 0.929 . S
C341 C340 1.363 . S
C341 C347 1.428 . S
H342 C338 0.930 . S
H343 C340 0.929 . S
S344 N345 1.613 . S
S344 N346 1.610 . S
N345 S344 1.613 . S
N345 C348 1.350 . S
N346 S344 1.610 . S
N346 C347 1.351 . S
C347 C341 1.428 . S
C347 N346 1.351 . S
C347 C348 1.434 . S
C348 C339 1.429 . S
C348 N345 1.350 . S
C348 C347 1.434 . S
C349 C350 1.369 . S
C349 C351 1.419 . S
C349 H353 0.930 . S
C350 C349 1.369 . S
C350 C359 1.429 . S
C351 C349 1.419 . S
C351 C352 1.363 . S
C351 H354 0.929 . S
C352 C351 1.363 . S
C352 C358 1.428 . S
H353 C349 0.930 . S
H354 C351 0.929 . S
S355 N356 1.613 . S
S355 N357 1.610 . S
N356 S355 1.613 . S
N356 C359 1.350 . S
N357 S355 1.610 . S
N357 C358 1.351 . S
C358 C352 1.428 . S
C358 N357 1.351 . S
C358 C359 1.434 . S
C359 C350 1.429 . S
C359 N356 1.350 . S
C359 C358 1.434 . S
C360 C361 1.369 . S
C360 C362 1.419 . S
C360 H364 0.930 . S
C361 C360 1.369 . S
C361 C370 1.429 . S
C362 C360 1.419 . S
C362 C363 1.363 . S
C362 H365 0.929 . S
C363 C362 1.363 . S
C363 C369 1.428 . S
H364 C360 0.930 . S
H365 C362 0.929 . S
S366 N367 1.613 . S
S366 N368 1.610 . S
N367 S366 1.613 . S
N367 C370 1.350 . S
N368 S366 1.610 . S
N368 C369 1.351 . S
C369 C363 1.428 . S
C369 N368 1.351 . S
C369 C370 1.434 . S
C370 C361 1.429 . S
C370 N367 1.350 . S
C370 C369 1.434 . S
C371 C372 1.369 . S
C371 C373 1.419 . S
C371 H375 0.930 . S
C372 C371 1.369 . S
C372 C381 1.429 . S
C373 C371 1.419 . S
C373 C374 1.363 . S
C373 H376 0.929 . S
C374 C373 1.363 . S
C374 C380 1.428 . S
H375 C371 0.930 . S
H376 C373 0.929 . S
S377 N378 1.613 . S
S377 N379 1.610 . S
N378 S377 1.613 . S
N378 C381 1.350 . S
N379 S377 1.610 . S
N379 C380 1.351 . S
C380 C374 1.428 . S
C380 N379 1.351 . S
C380 C381 1.434 . S
C381 C372 1.429 . S
C381 N378 1.350 . S
C381 C380 1.434 . S
C382 C383 1.369 . S
C382 C384 1.419 . S
C382 H386 0.930 . S
C383 C382 1.369 . S
C383 C392 1.429 . S
C384 C382 1.419 . S
C384 C385 1.363 . S
C384 H387 0.929 . S
C385 C384 1.363 . S
C385 C391 1.428 . S
H386 C382 0.930 . S
H387 C384 0.929 . S
S388 N389 1.613 . S
S388 N390 1.610 . S
N389 S388 1.613 . S
N389 C392 1.350 . S
N390 S388 1.610 . S
N390 C391 1.351 . S
C391 C385 1.428 . S
C391 N390 1.351 . S
C391 C392 1.434 . S
C392 C383 1.429 . S
C392 N389 1.350 . S
C392 C391 1.434 . S
C393 C394 1.369 . S
C393 C395 1.419 . S
C393 H397 0.930 . S
C394 C393 1.369 . S
C394 C403 1.429 . S
C395 C393 1.419 . S
C395 C396 1.363 . S
C395 H398 0.929 . S
C396 C395 1.363 . S
C396 C402 1.428 . S
H397 C393 0.930 . S
H398 C395 0.929 . S
S399 N400 1.612 1_556 S
S399 N401 1.610 1_556 S
N400 S399 1.612 1_554 S
N400 C403 1.369 . S
N401 S399 1.610 1_554 S
N401 C402 1.351 . S
C402 C396 1.428 . S
C402 N401 1.351 . S
C402 C403 1.434 . S
C403 C394 1.429 . S
C403 N400 1.369 . S
C403 C402 1.434 . S
C404 C405 1.369 . S
C404 C406 1.419 . S
C404 H408 0.930 . S
C405 C404 1.369 . S
C405 C414 1.429 . S
C406 C404 1.419 . S
C406 C407 1.363 . S
C406 H409 0.929 . S
C407 C406 1.363 . S
C407 C413 1.428 . S
H408 C404 0.930 . S
H409 C406 0.929 . S
S410 N411 1.613 . S
S410 N412 1.610 . S
N411 S410 1.613 . S
N411 C414 1.350 . S
N412 S410 1.610 . S
N412 C413 1.351 . S
C413 C407 1.428 . S
C413 N412 1.351 . S
C413 C414 1.434 . S
C414 C405 1.429 . S
C414 N411 1.350 . S
C414 C413 1.434 . S
C415 C416 1.369 . S
C415 C417 1.419 . S
C415 H419 0.930 . S
C416 C415 1.369 . S
C416 C425 1.429 . S
C417 C415 1.419 . S
C417 C418 1.363 . S
C417 H420 0.929 . S
C418 C417 1.363 . S
C418 C424 1.428 . S
H419 C415 0.930 . S
H420 C417 0.929 . S
S421 N422 1.613 . S
S421 N423 1.610 . S
N422 S421 1.613 . S
N422 C425 1.350 . S
N423 S421 1.610 . S
N423 C424 1.351 . S
C424 C418 1.428 . S
C424 N423 1.351 . S
C424 C425 1.434 . S
C425 C416 1.429 . S
C425 N422 1.350 . S
C425 C424 1.434 . S
C426 C427 1.369 . S
C426 C428 1.419 . S
C426 H430 0.930 . S
C427 C426 1.369 . S
C427 C436 1.429 . S
C428 C426 1.419 . S
C428 C429 1.363 . S
C428 H431 0.929 . S
C429 C428 1.363 . S
C429 C435 1.428 . S
H430 C426 0.930 . S
H431 C428 0.929 . S
S432 N433 1.613 . S
S432 N434 1.610 . S
N433 S432 1.613 . S
N433 C436 1.350 . S
N434 S432 1.610 . S
N434 C435 1.351 . S
C435 C429 1.428 . S
C435 N434 1.351 . S
C435 C436 1.434 . S
C436 C427 1.429 . S
C436 N433 1.350 . S
C436 C435 1.434 . S
C437 C438 1.369 . S
C437 C439 1.419 . S
C437 H441 0.930 . S
C438 C437 1.369 . S
C438 C447 1.429 . S
C439 C437 1.419 . S
C439 C440 1.363 . S
C439 H442 0.929 . S
C440 C439 1.363 . S
C440 C446 1.428 . S
H441 C437 0.930 . S
H442 C439 0.929 . S
S443 N444 1.613 . S
S443 N445 1.610 . S
N444 S443 1.613 . S
N444 C447 1.350 . S
N445 S443 1.610 . S
N445 C446 1.351 . S
C446 C440 1.428 . S
C446 N445 1.351 . S
C446 C447 1.434 . S
C447 C438 1.429 . S
C447 N444 1.350 . S
C447 C446 1.434 . S
C448 C449 1.369 1_565 S
C448 C450 1.419 . S
C448 H452 0.930 . S
C449 C448 1.369 1_545 S
C449 C458 1.429 . S
C450 C448 1.419 . S
C450 C451 1.363 1_565 S
C450 H453 0.929 . S
C451 C450 1.363 1_545 S
C451 C457 1.428 . S
H452 C448 0.930 . S
H453 C450 0.929 . S
S454 N455 1.613 . S
S454 N456 1.610 . S
N455 S454 1.613 . S
N455 C458 1.350 . S
N456 S454 1.610 . S
N456 C457 1.351 . S
C457 C451 1.428 . S
C457 N456 1.351 . S
C457 C458 1.434 . S
C458 C449 1.429 . S
C458 N455 1.350 . S
C458 C457 1.434 . S
C459 C460 1.369 1_655 S
C459 C461 1.419 1_545 S
C459 H463 0.930 . S
C460 C459 1.369 1_455 S
C460 C469 1.429 . S
C461 C459 1.419 1_565 S
C461 C462 1.363 1_655 S
C461 H464 0.929 . S
C462 C461 1.363 1_455 S
C462 C468 1.428 . S
H463 C459 0.930 . S
H464 C461 0.929 . S
S465 N466 1.613 1_556 S
S465 N467 1.610 1_546 S
N466 S465 1.613 1_554 S
N466 C469 1.350 . S
N467 S465 1.610 1_564 S
N467 C468 1.351 . S
C468 C462 1.428 . S
C468 N467 1.351 . S
C468 C469 1.434 1_565 S
C469 C460 1.429 . S
C469 N466 1.350 . S
C469 C468 1.434 1_545 S
C470 C471 1.369 . S
C470 C472 1.419 1_455 S
C470 H474 0.930 . S
C471 C470 1.369 . S
C471 C480 1.429 . S
C472 C470 1.419 1_655 S
C472 C473 1.363 . S
C472 H475 0.929 . S
C473 C472 1.363 . S
C473 C479 1.428 . S
H474 C470 0.930 . S
H475 C472 0.929 . S
S476 N477 1.628 . S
S476 N478 1.597 1_455 S
N477 S476 1.628 . S
N477 C480 1.350 . S
N478 S476 1.597 1_655 S
N478 C479 1.351 . S
C479 C473 1.428 . S
C479 N478 1.351 . S
C479 C480 1.434 1_655 S
C480 C471 1.429 . S
C480 N477 1.350 . S
C480 C479 1.434 1_455 S
C481 C482 1.369 . S
C481 C483 1.419 . S
C481 H485 0.930 . S
C482 C481 1.369 . S
C482 C491 1.429 . S
C483 C481 1.419 . S
C483 C484 1.363 . S
C483 H486 0.929 . S
C484 C483 1.363 . S
C484 C490 1.428 . S
H485 C481 0.930 . S
H486 C483 0.929 . S
S487 N488 1.613 . S
S487 N489 1.610 . S
N488 S487 1.613 . S
N488 C491 1.350 . S
N489 S487 1.610 . S
N489 C490 1.351 . S
C490 C484 1.428 . S
C490 N489 1.351 . S
C490 C491 1.434 . S
C491 C482 1.429 . S
C491 N488 1.350 . S
C491 C490 1.434 . S
C273 C20 1.081 . S
C275 C175 1.091 . S
C284 C54 1.080 . S
C286 C209 1.091 . S
C295 C88 1.077 . S
C297 C243 1.092 . S
C306 C141 1.091 . S
C308 C122 1.080 . S
C317 C172 1.270 . S
C319 C145 1.231 . S
C328 C179 1.224 . S
C330 C206 1.270 . S
C339 C240 1.275 . S
C341 C213 1.234 . S
C350 C247 1.234 . S
C352 C138 1.275 . S
C361 C224 1.081 . S
C363 C107 1.090 . S
C372 C258 1.083 . S
C374 C5 1.090 . S
C383 C39 1.091 . S
C385 C156 1.079 . S
C394 C190 1.081 . S
C396 C73 1.091 . S
C405 C104 1.276 . S
C407 C77 1.230 . S
C416 C2 1.269 . S
C418 C111 1.229 . S
C427 C36 1.270 . S
C429 C9 1.231 . S
C438 C43 1.225 . S
C440 C70 1.274 . S
C449 C169 1.375 . S
C451 C33 1.374 1_545 S
C460 C203 1.372 1_455 S
C462 C67 1.374 . S
C471 C101 1.379 . S
C473 C237 1.378 . S
C482 C271 1.376 . S
C484 C135 1.376 . S
