# Generated by pormake.
# Topology why, (6)-cn, num edge types: 1
# Building blocks:
#     Node 0, Type 0, BuildingBlock: FUNLAD_clean_sbu_0, # of connection points: 6
#     Node 1, Type 0, BuildingBlock: FUNLAD_clean_sbu_0, # of connection points: 6
#     Node 2, Type 0, BuildingBlock: FUNLAD_clean_sbu_0, # of connection points: 6
#     Node 3, Type 0, BuildingBlock: FUNLAD_clean_sbu_0, # of connection points: 6
#     Node 4, Type 0, BuildingBlock: FUNLAD_clean_sbu_0, # of connection points: 6
#     Node 5, Type 0, BuildingBlock: FUNLAD_clean_sbu_0, # of connection points: 6
#     Node 6, Type 0, BuildingBlock: FUNLAD_clean_sbu_0, # of connection points: 6
#     Node 7, Type 0, BuildingBlock: FUNLAD_clean_sbu_0, # of connection points: 6
#     Node 8, Type 0, BuildingBlock: FUNLAD_clean_sbu_0, # of connection points: 6
#     Node 9, Type 0, BuildingBlock: FUNLAD_clean_sbu_0, # of connection points: 6
#     Node 10, Type 0, BuildingBlock: FUNLAD_clean_sbu_0, # of connection points: 6
#     Node 11, Type 0, BuildingBlock: FUNLAD_clean_sbu_0, # of connection points: 6
#     Node 12, Type 0, BuildingBlock: FUNLAD_clean_sbu_0, # of connection points: 6
#     Node 13, Type 0, BuildingBlock: FUNLAD_clean_sbu_0, # of connection points: 6
#     Node 14, Type 0, BuildingBlock: FUNLAD_clean_sbu_0, # of connection points: 6
#     Node 15, Type 0, BuildingBlock: FUNLAD_clean_sbu_0, # of connection points: 6
#     Edge 16, Type (0, 0), BuildingBlock: XUDNAN_clean_linker_2, # of connection points: 2
#     Edge 17, Type (0, 0), BuildingBlock: XUDNAN_clean_linker_2, # of connection points: 2
#     Edge 18, Type (0, 0), BuildingBlock: XUDNAN_clean_linker_2, # of connection points: 2
#     Edge 19, Type (0, 0), BuildingBlock: XUDNAN_clean_linker_2, # of connection points: 2
#     Edge 20, Type (0, 0), BuildingBlock: XUDNAN_clean_linker_2, # of connection points: 2
#     Edge 21, Type (0, 0), BuildingBlock: XUDNAN_clean_linker_2, # of connection points: 2
#     Edge 22, Type (0, 0), BuildingBlock: XUDNAN_clean_linker_2, # of connection points: 2
#     Edge 23, Type (0, 0), BuildingBlock: XUDNAN_clean_linker_2, # of connection points: 2
#     Edge 24, Type (0, 0), BuildingBlock: XUDNAN_clean_linker_2, # of connection points: 2
#     Edge 25, Type (0, 0), BuildingBlock: XUDNAN_clean_linker_2, # of connection points: 2
#     Edge 26, Type (0, 0), BuildingBlock: XUDNAN_clean_linker_2, # of connection points: 2
#     Edge 27, Type (0, 0), BuildingBlock: XUDNAN_clean_linker_2, # of connection points: 2
#     Edge 28, Type (0, 0), BuildingBlock: XUDNAN_clean_linker_2, # of connection points: 2
#     Edge 29, Type (0, 0), BuildingBlock: XUDNAN_clean_linker_2, # of connection points: 2
#     Edge 30, Type (0, 0), BuildingBlock: XUDNAN_clean_linker_2, # of connection points: 2
#     Edge 31, Type (0, 0), BuildingBlock: XUDNAN_clean_linker_2, # of connection points: 2
#     Edge 32, Type (0, 0), BuildingBlock: XUDNAN_clean_linker_2, # of connection points: 2
#     Edge 33, Type (0, 0), BuildingBlock: XUDNAN_clean_linker_2, # of connection points: 2
#     Edge 34, Type (0, 0), BuildingBlock: XUDNAN_clean_linker_2, # of connection points: 2
#     Edge 35, Type (0, 0), BuildingBlock: XUDNAN_clean_linker_2, # of connection points: 2
#     Edge 36, Type (0, 0), BuildingBlock: XUDNAN_clean_linker_2, # of connection points: 2
#     Edge 37, Type (0, 0), BuildingBlock: XUDNAN_clean_linker_2, # of connection points: 2
#     Edge 38, Type (0, 0), BuildingBlock: XUDNAN_clean_linker_2, # of connection points: 2
#     Edge 39, Type (0, 0), BuildingBlock: XUDNAN_clean_linker_2, # of connection points: 2
#     Edge 40, Type (0, 0), BuildingBlock: XUDNAN_clean_linker_2, # of connection points: 2
#     Edge 41, Type (0, 0), BuildingBlock: XUDNAN_clean_linker_2, # of connection points: 2
#     Edge 42, Type (0, 0), BuildingBlock: XUDNAN_clean_linker_2, # of connection points: 2
#     Edge 43, Type (0, 0), BuildingBlock: XUDNAN_clean_linker_2, # of connection points: 2
#     Edge 44, Type (0, 0), BuildingBlock: XUDNAN_clean_linker_2, # of connection points: 2
#     Edge 45, Type (0, 0), BuildingBlock: XUDNAN_clean_linker_2, # of connection points: 2
#     Edge 46, Type (0, 0), BuildingBlock: XUDNAN_clean_linker_2, # of connection points: 2
#     Edge 47, Type (0, 0), BuildingBlock: XUDNAN_clean_linker_2, # of connection points: 2
#     Edge 48, Type (0, 0), BuildingBlock: XUDNAN_clean_linker_2, # of connection points: 2
#     Edge 49, Type (0, 0), BuildingBlock: XUDNAN_clean_linker_2, # of connection points: 2
#     Edge 50, Type (0, 0), BuildingBlock: XUDNAN_clean_linker_2, # of connection points: 2
#     Edge 51, Type (0, 0), BuildingBlock: XUDNAN_clean_linker_2, # of connection points: 2
#     Edge 52, Type (0, 0), BuildingBlock: XUDNAN_clean_linker_2, # of connection points: 2
#     Edge 53, Type (0, 0), BuildingBlock: XUDNAN_clean_linker_2, # of connection points: 2
#     Edge 54, Type (0, 0), BuildingBlock: XUDNAN_clean_linker_2, # of connection points: 2
#     Edge 55, Type (0, 0), BuildingBlock: XUDNAN_clean_linker_2, # of connection points: 2
#     Edge 56, Type (0, 0), BuildingBlock: XUDNAN_clean_linker_2, # of connection points: 2
#     Edge 57, Type (0, 0), BuildingBlock: XUDNAN_clean_linker_2, # of connection points: 2
#     Edge 58, Type (0, 0), BuildingBlock: XUDNAN_clean_linker_2, # of connection points: 2
#     Edge 59, Type (0, 0), BuildingBlock: XUDNAN_clean_linker_2, # of connection points: 2
#     Edge 60, Type (0, 0), BuildingBlock: XUDNAN_clean_linker_2, # of connection points: 2
#     Edge 61, Type (0, 0), BuildingBlock: XUDNAN_clean_linker_2, # of connection points: 2
#     Edge 62, Type (0, 0), BuildingBlock: XUDNAN_clean_linker_2, # of connection points: 2
#     Edge 63, Type (0, 0), BuildingBlock: XUDNAN_clean_linker_2, # of connection points: 2
# Relax obj value: 0.448
# Max RMSD: 0.185
# Mean RMSD: 0.185
data_MOF--net-why--node1-FUNLAD_clean_sbu_0--edge1-XUDNAN_clean_linker_2
_symmetry_space_group_name_H-M    P1
_symmetry_Int_Tables_number       1
_symmetry_cell_setting            triclinic
loop_
_symmetry_equiv_pos_as_xyz
'x, y, z'
_cell_length_a     50.167491
_cell_length_b     50.123195
_cell_length_c     31.430787
_cell_angle_alpha  89.922156
_cell_angle_beta   89.927134
_cell_angle_gamma 90.026692
loop_
_atom_site_label
_atom_site_type_symbol
_atom_site_fract_x
_atom_site_fract_y
_atom_site_fract_z
_atom_type_partial_charge
C0 C 0.32944 0.22769 0.17473 0.0
N1 N 0.36249 0.15143 0.15092 0.0
C2 C 0.37378 0.15058 0.19029 0.0
C3 C 0.3811 0.12609 0.20823 0.0
C4 C 0.37696 0.10257 0.18505 0.0
C5 C 0.36399 0.10393 0.14568 0.0
C6 C 0.35674 0.12867 0.12923 0.0
Zn7 Zn 0.35695 0.18667 0.11952 0.0
C8 C 0.30307 0.1893 0.08204 0.0
N9 N 0.34617 0.25979 0.04938 0.0
C10 C 0.36297 0.28102 0.05391 0.0
C11 C 0.33153 0.25686 0.01317 0.0
C12 C 0.33453 0.27453 0.97921 0.0
C13 C 0.35314 0.29535 0.98172 0.0
C14 C 0.36695 0.29898 0.02015 0.0
Zn15 Zn 0.35001 0.22581 0.08706 0.0
O16 O 0.33971 0.20443 0.17397 0.0
C17 C 0.40477 0.22145 0.12614 0.0
O18 O 0.33233 0.2431 0.14262 0.0
H19 H 0.31913 0.23952 0.00865 0.0
H20 H 0.37821 0.16894 0.20689 0.0
H21 H 0.37474 0.28311 0.08248 0.0
O22 O 0.39524 0.19899 0.13696 0.0
O23 O 0.3901 0.23767 0.10551 0.0
H24 H 0.34765 0.12975 0.09811 0.0
O25 O 0.36569 0.20763 0.03248 0.0
O26 O 0.37318 0.16924 0.06329 0.0
O27 O 0.31084 0.21228 0.07013 0.0
O28 O 0.31881 0.17432 0.10256 0.0
C29 C 0.37371 0.18373 0.03019 0.0
H30 H 0.39134 0.12565 0.23855 0.0
H31 H 0.36054 0.0861 0.12702 0.0
H32 H 0.32375 0.27064 0.95002 0.0
H33 H 0.38137 0.31492 0.02351 0.0
C34 C 0.52207 0.5717 0.40772 0.0
N35 N 0.5965 0.61082 0.41967 0.0
C36 C 0.59103 0.61824 0.4604 0.0
C37 C 0.61174 0.62539 0.48785 0.0
C38 C 0.63807 0.62518 0.47275 0.0
C39 C 0.64317 0.61638 0.43125 0.0
C40 C 0.622 0.60911 0.4052 0.0
Zn41 Zn 0.56694 0.60572 0.37629 0.0
C42 C 0.57478 0.55683 0.32473 0.0
N43 N 0.50705 0.59716 0.28101 0.0
C44 C 0.48182 0.60659 0.28642 0.0
C45 C 0.5155 0.58813 0.24246 0.0
C46 C 0.49874 0.58914 0.20724 0.0
C47 C 0.47307 0.59988 0.21137 0.0
C48 C 0.46444 0.6083 0.25171 0.0
Zn49 Zn 0.53535 0.60094 0.32756 0.0
O50 O 0.54441 0.58135 0.41936 0.0
C51 C 0.52809 0.65089 0.37823 0.0
O52 O 0.51234 0.57872 0.37193 0.0
H53 H 0.53578 0.58135 0.23832 0.0
H54 H 0.57057 0.61953 0.47109 0.0
H55 H 0.47553 0.61383 0.31724 0.0
O56 O 0.54794 0.64139 0.39827 0.0
O57 O 0.51847 0.63803 0.34699 0.0
H58 H 0.62592 0.60303 0.37281 0.0
O59 O 0.55898 0.62134 0.28355 0.0
O60 O 0.58979 0.62881 0.33119 0.0
O61 O 0.55313 0.56485 0.3083 0.0
O62 O 0.58556 0.57039 0.35415 0.0
C63 C 0.58152 0.63094 0.29315 0.0
H64 H 0.60717 0.6321 0.51978 0.0
H65 H 0.66331 0.61561 0.41883 0.0
H66 H 0.50636 0.58288 0.17658 0.0
H67 H 0.44471 0.61663 0.25613 0.0
C68 C 0.17211 0.77577 0.66224 0.0
N69 N 0.1387 0.8525 0.67103 0.0
C70 C 0.12989 0.84646 0.71084 0.0
C71 C 0.1229 0.86675 0.73898 0.0
C72 C 0.1251 0.89345 0.72601 0.0
C73 C 0.13597 0.89915 0.68583 0.0
C74 C 0.14259 0.87821 0.65858 0.0
Zn75 Zn 0.14198 0.82242 0.62807 0.0
C76 C 0.19076 0.82612 0.57659 0.0
N77 N 0.14597 0.75914 0.53799 0.0
C78 C 0.13569 0.73484 0.54805 0.0
C79 C 0.15477 0.7646 0.49795 0.0
C80 C 0.15232 0.74562 0.46576 0.0
C81 C 0.14007 0.72095 0.47448 0.0
C82 C 0.1323 0.7155 0.51665 0.0
Zn83 Zn 0.14399 0.78921 0.58163 0.0
O84 O 0.16366 0.79871 0.67315 0.0
C85 C 0.0939 0.78693 0.63247 0.0
O86 O 0.1653 0.76633 0.6263 0.0
H87 H 0.16276 0.78409 0.49047 0.0
H88 H 0.12704 0.82587 0.72007 0.0
H89 H 0.12891 0.73083 0.5801 0.0
O90 O 0.10471 0.80735 0.64892 0.0
O91 O 0.10643 0.77421 0.6038 0.0
H92 H 0.14957 0.88251 0.62672 0.0
O93 O 0.12373 0.81252 0.53684 0.0
O94 O 0.12165 0.84609 0.58127 0.0
O95 O 0.18095 0.80524 0.55976 0.0
O96 O 0.17837 0.83754 0.6067 0.0
C97 C 0.11689 0.83636 0.54469 0.0
H98 H 0.1148 0.86161 0.76989 0.0
H99 H 0.13772 0.91951 0.67454 0.0
H100 H 0.15926 0.75061 0.43412 0.0
H101 H 0.12244 0.69703 0.52515 0.0
C102 C 0.98014 0.43075 0.90759 0.0
N103 N 0.90584 0.39214 0.92203 0.0
C104 C 0.91232 0.38385 0.96193 0.0
C105 C 0.89232 0.37671 0.99073 0.0
C106 C 0.86547 0.37821 0.97828 0.0
C107 C 0.8594 0.38823 0.93771 0.0
C108 C 0.87998 0.39505 0.90995 0.0
Zn109 Zn 0.9347 0.39707 0.87708 0.0
C110 C 0.92661 0.44633 0.82687 0.0
N111 N 0.99397 0.40612 0.78027 0.0
C112 C 0.01921 0.39649 0.78439 0.0
C113 C 0.98496 0.41542 0.74218 0.0
C114 C 0.00111 0.41443 0.70613 0.0
C115 C 0.02673 0.40341 0.70892 0.0
C116 C 0.03598 0.3948 0.74884 0.0
Zn117 Zn 0.96634 0.40217 0.82816 0.0
O118 O 0.95774 0.42114 0.91902 0.0
C119 C 0.97373 0.35203 0.87809 0.0
O120 O 0.98994 0.4241 0.87168 0.0
H121 H 0.96467 0.42237 0.73908 0.0
H122 H 0.93303 0.38177 0.97085 0.0
H123 H 0.02597 0.38904 0.81483 0.0
O124 O 0.95394 0.36154 0.89826 0.0
O125 O 0.98342 0.36495 0.84685 0.0
H126 H 0.87527 0.40154 0.87801 0.0
O127 O 0.94214 0.38151 0.78515 0.0
O128 O 0.91152 0.37412 0.83338 0.0
O129 O 0.94837 0.43869 0.81017 0.0
O130 O 0.91578 0.43213 0.85554 0.0
C131 C 0.91982 0.37156 0.79541 0.0
H132 H 0.89781 0.3693 0.02189 0.0
H133 H 0.83901 0.38934 0.92654 0.0
H134 H 0.99302 0.42086 0.67587 0.0
H135 H 0.05569 0.38626 0.75228 0.0
C136 C 0.61915 0.80495 0.97916 0.0
N137 N 0.65254 0.73185 0.95662 0.0
C138 C 0.67656 0.7242 0.97283 0.0
C139 C 0.67769 0.70721 0.00834 0.0
C140 C 0.6539 0.69787 0.02684 0.0
C141 C 0.62969 0.7044 0.00716 0.0
C142 C 0.62945 0.7215 0.97239 0.0
Zn143 Zn 0.64793 0.76629 0.92116 0.0
C144 C 0.5944 0.76768 0.87656 0.0
N145 N 0.63234 0.84068 0.86091 0.0
C146 C 0.63854 0.86404 0.88063 0.0
C147 C 0.62297 0.84026 0.82029 0.0
C148 C 0.61955 0.86402 0.79782 0.0
C149 C 0.62608 0.8882 0.81738 0.0
C150 C 0.63563 0.88823 0.85918 0.0
Zn151 Zn 0.63822 0.80561 0.89204 0.0
O152 O 0.62838 0.78165 0.97432 0.0
C153 C 0.69115 0.80555 0.93442 0.0
O154 O 0.61979 0.82114 0.94803 0.0
H155 H 0.61833 0.82145 0.8052 0.0
H156 H 0.69476 0.73279 0.96046 0.0
H157 H 0.64597 0.86389 0.91292 0.0
O158 O 0.68476 0.78192 0.94508 0.0
O159 O 0.67508 0.8195 0.91274 0.0
H160 H 0.61039 0.72842 0.9611 0.0
O161 O 0.65816 0.79 0.83834 0.0
O162 O 0.66937 0.75173 0.86764 0.0
O163 O 0.60117 0.7917 0.87011 0.0
O164 O 0.6103 0.7521 0.89596 0.0
C165 C 0.67115 0.76818 0.83679 0.0
H166 H 0.69682 0.70256 0.02241 0.0
H167 H 0.61076 0.69836 0.0207 0.0
H168 H 0.61213 0.86354 0.76547 0.0
H169 H 0.64076 0.90674 0.87495 0.0
C170 C 0.42618 0.36625 0.71355 0.0
N171 N 0.50584 0.39107 0.6996 0.0
C172 C 0.5023 0.39711 0.74138 0.0
C173 C 0.52251 0.39216 0.77068 0.0
C174 C 0.5468 0.38122 0.75679 0.0
C175 C 0.55077 0.37774 0.71281 0.0
C176 C 0.5298 0.38255 0.68465 0.0
Zn177 Zn 0.47289 0.38891 0.66217 0.0
C178 C 0.46823 0.33604 0.62029 0.0
N179 N 0.40219 0.38233 0.58939 0.0
C180 C 0.37722 0.38777 0.60394 0.0
C181 C 0.40629 0.37224 0.54978 0.0
C182 C 0.3848 0.36592 0.52385 0.0
C183 C 0.3588 0.36983 0.53889 0.0
C184 C 0.35502 0.38165 0.57893 0.0
Zn185 Zn 0.43488 0.38591 0.6269 0.0
O186 O 0.45104 0.37132 0.71534 0.0
C187 C 0.43969 0.43787 0.6686 0.0
O188 O 0.41392 0.37026 0.67887 0.0
H189 H 0.42628 0.36803 0.53882 0.0
H190 H 0.4831 0.40399 0.75255 0.0
H191 H 0.37448 0.39582 0.63556 0.0
O192 O 0.46131 0.42729 0.68108 0.0
O193 O 0.42367 0.42474 0.64539 0.0
H194 H 0.53214 0.37791 0.65125 0.0
O195 O 0.4556 0.40291 0.57533 0.0
O196 O 0.49327 0.40796 0.60958 0.0
O197 O 0.44627 0.34658 0.6093 0.0
O198 O 0.48458 0.34974 0.64207 0.0
C199 C 0.47923 0.41193 0.57642 0.0
H200 H 0.51824 0.39499 0.80414 0.0
H201 H 0.56936 0.36998 0.70044 0.0
H202 H 0.38848 0.35713 0.49293 0.0
H203 H 0.3352 0.38479 0.59166 0.0
C204 C 0.87588 0.17744 0.46328 0.0
N205 N 0.84443 0.25374 0.47083 0.0
C206 C 0.8343 0.24493 0.50852 0.0
C207 C 0.83445 0.2613 0.54423 0.0
C208 C 0.84539 0.28698 0.54148 0.0
C209 C 0.85468 0.29608 0.50179 0.0
C210 C 0.85393 0.27904 0.46657 0.0
Zn211 Zn 0.84906 0.2256 0.4243 0.0
C212 C 0.90051 0.22948 0.37946 0.0
N213 N 0.85886 0.162 0.33602 0.0
C214 C 0.85477 0.13615 0.34752 0.0
C215 C 0.86796 0.16849 0.29656 0.0
C216 C 0.87451 0.14849 0.26752 0.0
C217 C 0.87171 0.12158 0.27926 0.0
C218 C 0.86108 0.11553 0.3195 0.0
Zn219 Zn 0.85381 0.19131 0.3801 0.0
O220 O 0.8679 0.20106 0.47017 0.0
C221 C 0.80244 0.18814 0.42383 0.0
O222 O 0.8731 0.16752 0.42643 0.0
H223 H 0.87096 0.18919 0.28808 0.0
H224 H 0.82735 0.22462 0.51167 0.0
H225 H 0.84752 0.13145 0.37907 0.0
O226 O 0.81145 0.20959 0.4396 0.0
O227 O 0.81656 0.17479 0.398 0.0
H228 H 0.862 0.2856 0.4364 0.0
O229 O 0.83285 0.2154 0.3349 0.0
O230 O 0.8295 0.24921 0.37906 0.0
O231 O 0.89168 0.20815 0.36275 0.0
O232 O 0.88655 0.24175 0.40689 0.0
C233 C 0.82376 0.23852 0.34354 0.0
H234 H 0.82756 0.25326 0.57431 0.0
H235 H 0.86318 0.31584 0.49837 0.0
H236 H 0.88234 0.15403 0.23661 0.0
H237 H 0.85891 0.09507 0.33011 0.0
C238 C 0.06776 0.62997 0.22472 0.0
N239 N 0.99025 0.60188 0.20818 0.0
C240 C 0.99397 0.59452 0.24943 0.0
C241 C 0.97421 0.59925 0.27973 0.0
C242 C 0.95 0.61105 0.26735 0.0
C243 C 0.94552 0.61506 0.2235 0.0
C244 C 0.96619 0.61081 0.19442 0.0
Zn245 Zn 0.02356 0.60619 0.17116 0.0
C246 C 0.02632 0.66134 0.13295 0.0
N247 N 0.09555 0.61833 0.10204 0.0
C248 C 0.11867 0.60806 0.11768 0.0
C249 C 0.0948 0.63094 0.06367 0.0
C250 C 0.11801 0.63374 0.03953 0.0
C251 C 0.1419 0.62288 0.05472 0.0
C252 C 0.14217 0.60987 0.09416 0.0
Zn253 Zn 0.0615 0.61385 0.13666 0.0
O254 O 0.04429 0.62058 0.22572 0.0
C255 C 0.058 0.55905 0.17482 0.0
O256 O 0.08045 0.63074 0.18988 0.0
H257 H 0.07618 0.63873 0.05166 0.0
H258 H 0.01313 0.58706 0.2597 0.0
H259 H 0.11891 0.59837 0.14843 0.0
O260 O 0.03502 0.56724 0.18537 0.0
O261 O 0.074 0.5747 0.15578 0.0
H262 H 0.9636 0.61638 0.16142 0.0
O263 O 0.04279 0.59646 0.08387 0.0
O264 O 0.00431 0.5902 0.11585 0.0
O265 O 0.04819 0.65252 0.11816 0.0
O266 O 0.01199 0.64635 0.15632 0.0
C267 C 0.01917 0.58732 0.08322 0.0
H268 H 0.97896 0.5957 0.31281 0.0
H269 H 0.92686 0.62306 0.21189 0.0
H270 H 0.11727 0.64387 0.00908 0.0
H271 H 0.16043 0.60152 0.10683 0.0
C272 C 0.83263 0.73843 0.66865 0.0
N273 N 0.86786 0.66227 0.6518 0.0
C274 C 0.87886 0.66427 0.69124 0.0
C275 C 0.88266 0.64144 0.71602 0.0
C276 C 0.8748 0.61663 0.69995 0.0
C277 C 0.86368 0.61502 0.65926 0.0
C278 C 0.86046 0.63825 0.63544 0.0
Zn279 Zn 0.8609 0.69567 0.61688 0.0
C280 C 0.8064 0.69475 0.58113 0.0
N281 N 0.84521 0.7658 0.54449 0.0
C282 C 0.85711 0.7896 0.55314 0.0
C283 C 0.83261 0.76154 0.50679 0.0
C284 C 0.83307 0.78091 0.47506 0.0
C285 C 0.84697 0.8048 0.48184 0.0
C286 C 0.85842 0.80945 0.52189 0.0
Zn287 Zn 0.85174 0.73307 0.58198 0.0
O288 O 0.84269 0.7151 0.67164 0.0
C289 C 0.90646 0.73366 0.61969 0.0
O290 O 0.8353 0.75142 0.63422 0.0
H291 H 0.82382 0.74234 0.49993 0.0
H292 H 0.88445 0.6836 0.7036 0.0
H293 H 0.86703 0.79263 0.58327 0.0
O294 O 0.89961 0.71047 0.63184 0.0
O295 O 0.89017 0.74783 0.59857 0.0
H296 H 0.85177 0.63715 0.60403 0.0
O297 O 0.86749 0.71446 0.52897 0.0
O298 O 0.87696 0.67666 0.56028 0.0
O299 O 0.81313 0.71754 0.56694 0.0
O300 O 0.82296 0.68119 0.60249 0.0
C301 C 0.87621 0.69083 0.52666 0.0
H302 H 0.89133 0.64313 0.74745 0.0
H303 H 0.85753 0.59601 0.64615 0.0
H304 H 0.82437 0.77634 0.4444 0.0
H305 H 0.86923 0.82772 0.52827 0.0
C306 C 0.01108 0.08425 0.91727 0.0
N307 N 0.08788 0.11875 0.91895 0.0
C308 C 0.08364 0.12638 0.95993 0.0
C309 C 0.10522 0.13232 0.98633 0.0
C310 C 0.1312 0.13073 0.96997 0.0
C311 C 0.135 0.12209 0.92802 0.0
C312 C 0.11295 0.11599 0.90302 0.0
Zn313 Zn 0.05676 0.11411 0.87836 0.0
C314 C 0.05833 0.06295 0.83319 0.0
N315 N 0.99245 0.10631 0.79092 0.0
C316 C 0.96801 0.11761 0.79633 0.0
C317 C 0.99935 0.09466 0.7534 0.0
C318 C 0.98187 0.09481 0.7191 0.0
C319 C 0.95706 0.10741 0.72298 0.0
C320 C 0.94992 0.11852 0.76244 0.0
Zn321 Zn 0.02234 0.11035 0.83478 0.0
O322 O 0.03471 0.09219 0.92485 0.0
C323 C 0.02065 0.16195 0.88052 0.0
O324 O 0.99955 0.09178 0.88316 0.0
H325 H 0.01907 0.08642 0.74911 0.0
H326 H 0.06351 0.12855 0.97178 0.0
H327 H 0.96297 0.12695 0.82628 0.0
O328 O 0.04043 0.15133 0.89932 0.0
O329 O 0.00883 0.14918 0.85117 0.0
H330 H 0.11588 0.10969 0.87046 0.0
O331 O 0.0458 0.12753 0.78629 0.0
O332 O 0.0787 0.13461 0.8304 0.0
O333 O 0.03631 0.072 0.8197 0.0
O334 O 0.07279 0.07718 0.85726 0.0
C335 C 0.06902 0.13646 0.79323 0.0
H336 H 0.10162 0.13898 0.0186 0.0
H337 H 0.15482 0.12028 0.91462 0.0
H338 H 0.98842 0.08653 0.68905 0.0
H339 H 0.93092 0.12842 0.76664 0.0
C340 C 0.66696 0.26993 0.16585 0.0
N341 N 0.63148 0.3439 0.13717 0.0
C342 C 0.623 0.34185 0.17819 0.0
C343 C 0.6197 0.36465 0.20294 0.0
C344 C 0.62471 0.38978 0.18504 0.0
C345 C 0.63259 0.39147 0.14228 0.0
C346 C 0.63613 0.36808 0.11885 0.0
Zn347 Zn 0.63932 0.30961 0.10487 0.0
C348 C 0.69505 0.30809 0.07444 0.0
N349 N 0.65744 0.23593 0.04383 0.0
C350 C 0.64346 0.21288 0.04946 0.0
C351 C 0.67199 0.24008 0.00779 0.0
C352 C 0.67126 0.22182 0.97455 0.0
C353 C 0.65509 0.19911 0.97781 0.0
C354 C 0.6419 0.19413 0.01652 0.0
Zn355 Zn 0.64987 0.26949 0.07961 0.0
O356 O 0.65647 0.29288 0.16113 0.0
C357 C 0.59402 0.27079 0.11189 0.0
O358 O 0.66559 0.25309 0.13566 0.0
H359 H 0.68221 0.25876 0.0027 0.0
H360 H 0.61922 0.32245 0.19201 0.0
H361 H 0.63184 0.20991 0.07807 0.0
O362 O 0.60042 0.29474 0.12035 0.0
O363 O 0.61106 0.25541 0.09477 0.0
H364 H 0.64308 0.36921 0.08631 0.0
O365 O 0.63525 0.28676 0.02275 0.0
O366 O 0.62384 0.32579 0.04802 0.0
O367 O 0.68839 0.28412 0.06724 0.0
O368 O 0.6779 0.32436 0.08893 0.0
C369 C 0.62578 0.30992 0.01675 0.0
H370 H 0.61329 0.36269 0.23572 0.0
H371 H 0.63668 0.4106 0.12759 0.0
H372 H 0.68138 0.2268 0.94512 0.0
H373 H 0.62934 0.17671 0.0204 0.0
C374 C 0.47865 0.91714 0.41573 0.0
N375 N 0.40505 0.88113 0.39077 0.0
C376 C 0.40622 0.87541 0.43305 0.0
C377 C 0.38294 0.87284 0.45678 0.0
C378 C 0.3582 0.87574 0.43668 0.0
C379 C 0.35741 0.88104 0.39286 0.0
C380 C 0.3813 0.88391 0.37037 0.0
Zn381 Zn 0.44024 0.88573 0.35952 0.0
C382 C 0.44379 0.93631 0.31123 0.0
N383 N 0.51562 0.89568 0.29998 0.0
C384 C 0.5389 0.88572 0.31538 0.0
C385 C 0.51329 0.90324 0.25856 0.0
C386 C 0.53371 0.8981 0.22981 0.0
C387 C 0.55684 0.88499 0.24371 0.0
C388 C 0.56001 0.88032 0.28759 0.0
Zn389 Zn 0.48078 0.8918 0.3329 0.0
O390 O 0.45543 0.90728 0.41194 0.0
C391 C 0.47734 0.83996 0.37823 0.0
O392 O 0.49585 0.91294 0.38668 0.0
H393 H 0.49456 0.91075 0.24664 0.0
H394 H 0.42529 0.87293 0.44854 0.0
H395 H 0.54033 0.87986 0.34843 0.0
O396 O 0.45394 0.8485 0.3857 0.0
O397 O 0.49345 0.85438 0.35712 0.0
H398 H 0.38088 0.8885 0.33675 0.0
O399 O 0.46501 0.8719 0.27928 0.0
O400 O 0.42521 0.86507 0.30573 0.0
O401 O 0.46755 0.92799 0.30791 0.0
O402 O 0.42688 0.92274 0.33233 0.0
C403 C 0.44151 0.86297 0.27498 0.0
H404 H 0.38423 0.86839 0.49045 0.0
H405 H 0.33859 0.88345 0.37646 0.0
H406 H 0.53005 0.90184 0.19639 0.0
H407 H 0.57774 0.87068 0.29982 0.0
C408 C 0.11313 0.32984 0.45474 0.0
N409 N 0.14086 0.25208 0.46324 0.0
C410 C 0.15114 0.26002 0.50123 0.0
C411 C 0.15039 0.24319 0.5364 0.0
C412 C 0.13857 0.21796 0.53292 0.0
C413 C 0.12856 0.20988 0.49321 0.0
C414 C 0.13007 0.22733 0.45843 0.0
Zn415 Zn 0.13874 0.28084 0.41701 0.0
C416 C 0.08872 0.28016 0.3688 0.0
N417 N 0.13524 0.34541 0.32932 0.0
C418 C 0.13957 0.37102 0.34178 0.0
C419 C 0.12641 0.33963 0.28949 0.0
C420 C 0.11998 0.36014 0.26127 0.0
C421 C 0.12266 0.38681 0.27425 0.0
C422 C 0.13343 0.39215 0.31457 0.0
Zn423 Zn 0.138 0.31553 0.37299 0.0
O424 O 0.11984 0.3059 0.46232 0.0
C425 C 0.18731 0.31597 0.42099 0.0
O426 O 0.11776 0.33961 0.41819 0.0
H427 H 0.12319 0.3191 0.28027 0.0
H428 H 0.15893 0.27997 0.505 0.0
H429 H 0.14654 0.37514 0.37365 0.0
O430 O 0.17651 0.29483 0.43495 0.0
O431 O 0.17504 0.33052 0.39442 0.0
H432 H 0.12178 0.22149 0.42809 0.0
O433 O 0.15981 0.29123 0.32903 0.0
O434 O 0.1588 0.25667 0.37214 0.0
O435 O 0.10023 0.30032 0.35231 0.0
O436 O 0.10075 0.26696 0.39748 0.0
C437 C 0.16715 0.26753 0.33793 0.0
H438 H 0.15779 0.25044 0.56661 0.0
H439 H 0.11923 0.19054 0.48937 0.0
H440 H 0.11202 0.3552 0.23025 0.0
H441 H 0.13553 0.41241 0.32604 0.0
C442 C 0.92371 0.87981 0.22329 0.0
N443 N 0.00073 0.91044 0.21767 0.0
C444 C 0.99424 0.92337 0.25433 0.0
C445 C 0.01161 0.92332 0.28885 0.0
C446 C 0.03584 0.90951 0.2861 0.0
C447 C 0.04278 0.89754 0.24718 0.0
C448 C 0.02485 0.89835 0.21307 0.0
Zn449 Zn 0.97008 0.90402 0.17562 0.0
C450 C 0.97168 0.84967 0.13718 0.0
N451 N 0.90259 0.88914 0.09713 0.0
C452 C 0.87756 0.89252 0.11298 0.0
C453 C 0.90667 0.87932 0.05731 0.0
C454 C 0.88503 0.87194 0.03205 0.0
C455 C 0.85911 0.87432 0.04834 0.0
C456 C 0.85542 0.88496 0.08912 0.0
Zn457 Zn 0.93434 0.89646 0.1356 0.0
O458 O 0.94733 0.88844 0.22809 0.0
C459 C 0.93324 0.95058 0.17265 0.0
O460 O 0.91348 0.87985 0.18651 0.0
H461 H 0.92674 0.87663 0.04548 0.0
H462 H 0.97475 0.93221 0.25808 0.0
H463 H 0.87474 0.90057 0.14456 0.0
O464 O 0.95549 0.94257 0.18687 0.0
O465 O 0.91871 0.93488 0.15103 0.0
H466 H 0.02959 0.88799 0.18387 0.0
O467 O 0.95506 0.91408 0.08543 0.0
O468 O 0.9915 0.92134 0.12252 0.0
O469 O 0.9504 0.85824 0.12006 0.0
O470 O 0.98444 0.86459 0.16272 0.0
C471 C 0.97832 0.92397 0.08802 0.0
H472 H 0.0052 0.93239 0.3184 0.0
H473 H 0.06137 0.88678 0.24373 0.0
H474 H 0.88854 0.86373 0.00068 0.0
H475 H 0.83562 0.88735 0.1024 0.0
C476 C 0.38418 0.67011 0.95735 0.0
N477 N 0.34879 0.74564 0.95867 0.0
C478 C 0.34484 0.73945 0.00038 0.0
C479 C 0.3509 0.75799 0.03201 0.0
C480 C 0.36094 0.78315 0.02046 0.0
C481 C 0.36174 0.78998 0.97706 0.0
C482 C 0.35572 0.77073 0.94648 0.0
Zn483 Zn 0.35313 0.71514 0.91632 0.0
C484 C 0.40511 0.72025 0.8694 0.0
N485 N 0.36696 0.65047 0.83235 0.0
C486 C 0.36334 0.62482 0.84531 0.0
C487 C 0.37619 0.65631 0.79269 0.0
C488 C 0.38356 0.63591 0.76507 0.0
C489 C 0.38115 0.60931 0.77834 0.0
C490 C 0.37024 0.60377 0.81853 0.0
Zn491 Zn 0.36116 0.68086 0.87374 0.0
O492 O 0.37423 0.69302 0.96427 0.0
C493 C 0.31027 0.67504 0.92191 0.0
O494 O 0.3821 0.65996 0.9206 0.0
H495 H 0.37872 0.67686 0.78299 0.0
H496 H 0.33935 0.71935 0.00937 0.0
H497 H 0.35602 0.62069 0.87703 0.0
O498 O 0.31695 0.69776 0.93632 0.0
O499 O 0.32529 0.66328 0.89531 0.0
H500 H 0.35878 0.77518 0.91315 0.0
O501 O 0.33957 0.70134 0.82746 0.0
O502 O 0.33091 0.73607 0.86752 0.0
O503 O 0.39738 0.69848 0.85309 0.0
O504 O 0.39041 0.732 0.89644 0.0
C505 C 0.328 0.72363 0.83246 0.0
H506 H 0.35004 0.75177 0.06499 0.0
H507 H 0.36882 0.80936 0.96676 0.0
H508 H 0.39175 0.64086 0.73414 0.0
H509 H 0.36838 0.58346 0.82997 0.0
C510 C 0.57578 0.12996 0.71571 0.0
N511 N 0.50044 0.09492 0.72306 0.0
C512 C 0.5066 0.0937 0.76516 0.0
C513 C 0.48697 0.09819 0.79583 0.0
C514 C 0.46069 0.10361 0.78297 0.0
C515 C 0.45448 0.10187 0.73945 0.0
C516 C 0.4748 0.09781 0.70987 0.0
Zn517 Zn 0.53031 0.09886 0.67938 0.0
C518 C 0.52313 0.14874 0.62865 0.0
N519 N 0.59282 0.10989 0.58977 0.0
C520 C 0.61866 0.10666 0.60176 0.0
C521 C 0.58635 0.11838 0.54999 0.0
C522 C 0.60631 0.12535 0.52114 0.0
C523 C 0.63314 0.12348 0.53339 0.0
C524 C 0.63926 0.11331 0.57385 0.0
Zn525 Zn 0.56318 0.10471 0.63307 0.0
O526 O 0.55235 0.12182 0.72369 0.0
C527 C 0.57061 0.05583 0.68491 0.0
O528 O 0.58561 0.12598 0.67901 0.0
H529 H 0.56566 0.12066 0.54113 0.0
H530 H 0.52708 0.09115 0.77502 0.0
H531 H 0.62331 0.0999 0.6336 0.0
O532 O 0.54908 0.06389 0.70201 0.0
O533 O 0.58088 0.06907 0.65454 0.0
H534 H 0.47031 0.09874 0.67626 0.0
O535 O 0.54088 0.08171 0.58791 0.0
O536 O 0.50944 0.07524 0.63537 0.0
O537 O 0.5453 0.14143 0.61297 0.0
O538 O 0.51171 0.1341 0.65617 0.0
C539 C 0.51911 0.07054 0.59876 0.0
H540 H 0.49283 0.09942 0.82891 0.0
H541 H 0.43438 0.10522 0.72811 0.0
H542 H 0.60082 0.13289 0.49006 0.0
H543 H 0.6597 0.11187 0.58468 0.0
H544 H 0.43442 0.26654 0.1054 0.0
H545 H 0.44048 0.1882 0.164 0.0
H546 H 0.48894 0.19361 0.16981 0.0
H547 H 0.49281 0.26269 0.04381 0.0
H548 H 0.50301 0.29683 0.05137 0.0
H549 H 0.46825 0.28809 0.05432 0.0
H550 H 0.46521 0.30875 0.12963 0.0
H551 H 0.49996 0.31775 0.12681 0.0
H552 H 0.48789 0.29777 0.1705 0.0
H553 H 0.53687 0.2044 0.16122 0.0
H554 H 0.58167 0.22269 0.14613 0.0
H555 H 0.54585 0.2956 0.09876 0.0
C556 C 0.44589 0.25078 0.12022 0.0
C557 C 0.43347 0.22692 0.13416 0.0
C558 C 0.44933 0.20669 0.15306 0.0
C559 C 0.47699 0.20952 0.1565 0.0
C560 C 0.48867 0.23289 0.14156 0.0
C561 C 0.47369 0.25342 0.1245 0.0
C562 C 0.4916 0.2762 0.11014 0.0
C563 C 0.48874 0.28124 0.06206 0.0
C564 C 0.48582 0.30162 0.13581 0.0
C565 C 0.51889 0.26488 0.12088 0.0
C566 C 0.51664 0.23977 0.13871 0.0
C567 C 0.53893 0.22428 0.14818 0.0
C568 C 0.56426 0.23475 0.13937 0.0
C569 C 0.56712 0.26064 0.12205 0.0
C570 C 0.54414 0.27599 0.11301 0.0
H571 H 0.52165 0.69155 0.32222 0.0
H572 H 0.51424 0.67163 0.45582 0.0
H573 H 0.49962 0.71802 0.4712 0.0
H574 H 0.55039 0.75606 0.34033 0.0
H575 H 0.53443 0.7713 0.29506 0.0
H576 H 0.54204 0.73619 0.29447 0.0
H577 H 0.4925 0.72531 0.27886 0.0
H578 H 0.48477 0.76039 0.27919 0.0
H579 H 0.46696 0.73791 0.31387 0.0
H580 H 0.48349 0.76669 0.47035 0.0
H581 H 0.47265 0.81414 0.45494 0.0
H582 H 0.49677 0.8029 0.32385 0.0
C583 C 0.51656 0.69693 0.35461 0.0
C584 C 0.51841 0.67804 0.3878 0.0
C585 C 0.51253 0.68586 0.43 0.0
C586 C 0.50424 0.7121 0.43893 0.0
C587 C 0.50271 0.73038 0.40542 0.0
C588 C 0.50917 0.72318 0.36421 0.0
C589 C 0.50779 0.74687 0.33434 0.0
C590 C 0.5353 0.75296 0.31492 0.0
C591 C 0.48675 0.74234 0.29952 0.0
C592 C 0.49924 0.76853 0.36496 0.0
C593 C 0.49592 0.75862 0.40571 0.0
C594 C 0.48649 0.77472 0.43873 0.0
C595 C 0.48039 0.80158 0.42979 0.0
C596 C 0.48451 0.81214 0.38857 0.0
C597 C 0.49415 0.7954 0.35594 0.0
H598 H 0.06521 0.74191 0.61061 0.0
H599 H 0.05847 0.81801 0.67564 0.0
H600 H 0.01009 0.81132 0.6829 0.0
H601 H 0.00676 0.74616 0.55147 0.0
H602 H 0.99728 0.71162 0.55673 0.0
H603 H 0.03187 0.72095 0.55972 0.0
H604 H 0.03581 0.69819 0.63346 0.0
H605 H 0.00125 0.68851 0.63054 0.0
H606 H 0.0131 0.70743 0.67543 0.0
H607 H 0.962 0.79992 0.67346 0.0
H608 H 0.91754 0.78112 0.65697 0.0
H609 H 0.95492 0.71051 0.60452 0.0
C610 C 0.05363 0.75686 0.62724 0.0
C611 C 0.06571 0.7805 0.64252 0.0
C612 C 0.0498 0.79967 0.66385 0.0
C613 C 0.02222 0.79611 0.66803 0.0
C614 C 0.01083 0.77301 0.65154 0.0
C615 C 0.02604 0.75339 0.63246 0.0
C616 C 0.0086 0.7307 0.61674 0.0
C617 C 0.01129 0.72717 0.5683 0.0
C618 C 0.01508 0.70466 0.64047 0.0
C619 C 0.9812 0.74108 0.62876 0.0
C620 C 0.98297 0.76564 0.64852 0.0
C621 C 0.96035 0.78039 0.65904 0.0
C622 C 0.93524 0.76968 0.64942 0.0
C623 C 0.93299 0.74428 0.63032 0.0
C624 C 0.95623 0.72971 0.62016 0.0
H625 H 0.98485 0.31256 0.82151 0.0
H626 H 0.98216 0.32984 0.95646 0.0
H627 H 0.9947 0.28299 0.97239 0.0
H628 H 0.95374 0.2489 0.83076 0.0
H629 H 0.97278 0.2338 0.78851 0.0
H630 H 0.96637 0.26914 0.78776 0.0
H631 H 0.01705 0.27866 0.78285 0.0
H632 H 0.02361 0.24333 0.78319 0.0
H633 H 0.03914 0.26461 0.82214 0.0
H634 H 0.00881 0.23412 0.97281 0.0
H635 H 0.01914 0.18659 0.95814 0.0
H636 H 0.00686 0.20045 0.82346 0.0
C637 C 0.98746 0.30655 0.85436 0.0
C638 C 0.98323 0.32483 0.88784 0.0
C639 C 0.98576 0.31613 0.93047 0.0
C640 C 0.99284 0.2896 0.93974 0.0
C641 C 0.99659 0.27193 0.90598 0.0
C642 C 0.99365 0.28 0.86415 0.0
C643 C 0.99673 0.25673 0.83381 0.0
C644 C 0.97087 0.25186 0.80875 0.0
C645 C 0.02056 0.2611 0.80373 0.0
C646 C 0.00207 0.2343 0.86501 0.0
C647 C 0.00236 0.24351 0.90645 0.0
C648 C 0.00826 0.22665 0.94054 0.0
C649 C 0.01406 0.19973 0.93198 0.0
C650 C 0.01321 0.18985 0.88986 0.0
C651 C 0.00697 0.20738 0.85609 0.0
H652 H 0.55825 0.74218 0.92706 0.0
H653 H 0.56901 0.77586 0.80121 0.0
H654 H 0.52169 0.76631 0.78441 0.0
H655 H 0.50968 0.69023 0.9001 0.0
H656 H 0.49049 0.69544 0.94789 0.0
H657 H 0.52581 0.70197 0.94777 0.0
H658 H 0.5168 0.7501 0.97407 0.0
H659 H 0.48146 0.74382 0.97376 0.0
H660 H 0.49492 0.77146 0.94391 0.0
H661 H 0.47288 0.75303 0.78177 0.0
H662 H 0.42584 0.7399 0.79534 0.0
H663 H 0.44603 0.71993 0.92544 0.0
C664 C 0.55073 0.74683 0.89561 0.0
C665 C 0.56728 0.75905 0.8649 0.0
C666 C 0.55663 0.766 0.82474 0.0
C667 C 0.52983 0.76071 0.81502 0.0
C668 C 0.51381 0.74906 0.84624 0.0
C669 C 0.52382 0.74242 0.88588 0.0
C670 C 0.50195 0.73226 0.91501 0.0
C671 C 0.50731 0.70325 0.92847 0.0
C672 C 0.49859 0.75051 0.95398 0.0
C673 C 0.47811 0.73415 0.8856 0.0
C674 C 0.48541 0.74349 0.84585 0.0
C675 C 0.4669 0.74597 0.81291 0.0
C676 C 0.4403 0.7386 0.82083 0.0
C677 C 0.43248 0.72958 0.86156 0.0
C678 C 0.45157 0.72742 0.8943 0.0
H679 H 0.51502 0.30752 0.63011 0.0
H680 H 0.43235 0.2994 0.59142 0.0
H681 H 0.43837 0.25086 0.58439 0.0
H682 H 0.54111 0.25481 0.55818 0.0
H683 H 0.56534 0.24358 0.59651 0.0
H684 H 0.55516 0.27806 0.59569 0.0
H685 H 0.54197 0.27487 0.67524 0.0
H686 H 0.55199 0.2404 0.67627 0.0
H687 H 0.51868 0.24955 0.69208 0.0
H688 H 0.45136 0.20282 0.59117 0.0
H689 H 0.47221 0.15871 0.60386 0.0
H690 H 0.54741 0.19744 0.63149 0.0
C691 C 0.49834 0.29558 0.61941 0.0
C692 C 0.4732 0.30737 0.61135 0.0
C693 C 0.45184 0.29097 0.59761 0.0
C694 C 0.45503 0.2633 0.59358 0.0
C695 C 0.47985 0.25225 0.6026 0.0
C696 C 0.5013 0.26788 0.61446 0.0
C697 C 0.52567 0.25079 0.62318 0.0
C698 C 0.54815 0.2572 0.59149 0.0
C699 C 0.53512 0.2541 0.66944 0.0
C700 C 0.51432 0.22313 0.61555 0.0
C701 C 0.48779 0.22444 0.60393 0.0
C702 C 0.4723 0.20151 0.59912 0.0
C703 C 0.48423 0.1766 0.60642 0.0
C704 C 0.51146 0.17481 0.61748 0.0
C705 C 0.52675 0.19834 0.62164 0.0
H706 H 0.94838 0.20663 0.39783 0.0
H707 H 0.9123 0.27548 0.33775 0.0
H708 H 0.9572 0.29363 0.32157 0.0
H709 H 0.99923 0.24315 0.44964 0.0
H710 H 0.02429 0.21759 0.44451 0.0
H711 H 0.98959 0.20855 0.44647 0.0
H712 H 0.99453 0.18349 0.37484 0.0
H713 H 0.02928 0.19256 0.3726 0.0
H714 H 0.00747 0.20092 0.32905 0.0
H715 H 0.00586 0.3048 0.31412 0.0
H716 H 0.05429 0.31107 0.32279 0.0
H717 H 0.05887 0.2364 0.39261 0.0
C718 C 0.9501 0.22527 0.38054 0.0
C719 C 0.92714 0.23955 0.36816 0.0
C720 C 0.92983 0.26424 0.34688 0.0
C721 C 0.95519 0.27458 0.3375 0.0
C722 C 0.97757 0.26013 0.35028 0.0
C723 C 0.97528 0.23616 0.37182 0.0
C724 C 0.00237 0.22592 0.38569 0.0
C725 C 0.00396 0.22369 0.43446 0.0
C726 C 0.00879 0.19913 0.36425 0.0
C727 C 0.02024 0.248 0.36899 0.0
C728 C 0.00557 0.26725 0.34795 0.0
C729 C 0.01755 0.28982 0.33043 0.0
C730 C 0.04514 0.29315 0.33542 0.0
C731 C 0.06047 0.27423 0.35836 0.0
C732 C 0.04779 0.25116 0.37472 0.0
H733 H 0.01083 0.69866 0.19112 0.0
H734 H 0.02478 0.68688 0.0564 0.0
H735 H 0.0119 0.73387 0.04247 0.0
H736 H 0.95525 0.74393 0.18398 0.0
H737 H 0.96625 0.76462 0.22742 0.0
H738 H 0.97499 0.72978 0.22625 0.0
H739 H 0.02499 0.74221 0.23219 0.0
H740 H 0.0164 0.77709 0.23328 0.0
H741 H 0.03946 0.7648 0.1939 0.0
H742 H 0.99487 0.78149 0.04328 0.0
H743 H 0.98023 0.82765 0.05935 0.0
H744 H 0.98304 0.81007 0.19425 0.0
C745 C 0.01088 0.70601 0.15869 0.0
C746 C 0.01826 0.68919 0.12462 0.0
C747 C 0.0189 0.69951 0.08274 0.0
C748 C 0.01161 0.7261 0.07461 0.0
C749 C 0.00446 0.74226 0.1089 0.0
C750 C 0.00452 0.73274 0.15021 0.0
C751 C 0.99763 0.75466 0.1816 0.0
C752 C 0.97201 0.74783 0.20626 0.0
C753 C 0.02101 0.76 0.21203 0.0
C754 C 0.9933 0.77793 0.15149 0.0
C755 C 0.99692 0.77024 0.10963 0.0
C756 C 0.99243 0.78783 0.07594 0.0
C757 C 0.98411 0.81394 0.08529 0.0
C758 C 0.98106 0.82238 0.12793 0.0
C759 C 0.98585 0.80418 0.1614 0.0
H760 H 0.17089 0.16516 0.94768 0.0
H761 H 0.14354 0.11409 0.05032 0.0
H762 H 0.1838 0.12558 0.09199 0.0
H763 H 0.2392 0.14963 0.95465 0.0
H764 H 0.25074 0.18299 0.94358 0.0
H765 H 0.21915 0.17192 0.923 0.0
H766 H 0.19563 0.21192 0.95932 0.0
H767 H 0.22719 0.22316 0.97996 0.0
H768 H 0.19972 0.21706 0.01569 0.0
H769 H 0.22857 0.13919 0.11895 0.0
H770 H 0.27383 0.15651 0.13232 0.0
H771 H 0.27105 0.20088 0.01379 0.0
C772 C 0.17337 0.15656 0.97906 0.0
C773 C 0.15434 0.13868 0.99593 0.0
C774 C 0.15795 0.12793 0.03713 0.0
C775 C 0.18071 0.1343 0.06087 0.0
C776 C 0.19929 0.15175 0.04308 0.0
C777 C 0.19573 0.16301 0.00336 0.0
C778 C 0.2189 0.18086 0.99128 0.0
C779 C 0.23282 0.17073 0.95073 0.0
C780 C 0.20981 0.20998 0.98628 0.0
C781 C 0.23642 0.17738 0.03002 0.0
C782 C 0.22473 0.16046 0.05944 0.0
C783 C 0.23776 0.15277 0.09652 0.0
C784 C 0.26346 0.16259 0.10369 0.0
C785 C 0.2757 0.18011 0.07415 0.0
C786 C 0.26189 0.18785 0.03713 0.0
H787 H 0.59541 0.43427 0.16721 0.0
H788 H 0.64764 0.39946 0.26199 0.0
H789 H 0.6423 0.43959 0.30703 0.0
H790 H 0.61635 0.50336 0.18015 0.0
H791 H 0.58311 0.51635 0.1736 0.0
H792 H 0.59256 0.48573 0.14769 0.0
H793 H 0.55287 0.4614 0.1837 0.0
H794 H 0.54333 0.49191 0.20972 0.0
H795 H 0.54959 0.46234 0.24082 0.0
H796 H 0.63086 0.48329 0.34177 0.0
H797 H 0.61183 0.5262 0.36594 0.0
H798 H 0.56538 0.53114 0.24976 0.0
C799 C 0.60595 0.43533 0.19721 0.0
C800 C 0.62206 0.41403 0.21121 0.0
C801 C 0.63519 0.4157 0.25094 0.0
C802 C 0.63237 0.4384 0.27655 0.0
C803 C 0.61618 0.45904 0.262 0.0
C804 C 0.60304 0.45765 0.2234 0.0
C805 C 0.58563 0.48186 0.21626 0.0
C806 C 0.59498 0.49777 0.1771 0.0
C807 C 0.55611 0.47389 0.21242 0.0
C808 C 0.59089 0.497 0.25698 0.0
C809 C 0.60882 0.4837 0.28271 0.0
C810 C 0.61678 0.49389 0.32193 0.0
C811 C 0.60592 0.51825 0.33534 0.0
C812 C 0.58706 0.53184 0.30981 0.0
C813 C 0.57962 0.52107 0.27009 0.0
H814 H 0.31509 0.84398 0.42016 0.0
H815 H 0.34614 0.90165 0.51016 0.0
H816 H 0.30599 0.89592 0.55491 0.0
H817 H 0.24491 0.86216 0.42993 0.0
H818 H 0.23349 0.82814 0.42635 0.0
H819 H 0.26388 0.83802 0.4001 0.0
H820 H 0.28947 0.80081 0.44024 0.0
H821 H 0.2592 0.79093 0.46679 0.0
H822 H 0.28821 0.79969 0.49755 0.0
H823 H 0.26339 0.88341 0.59026 0.0
H824 H 0.22093 0.86425 0.6153 0.0
H825 H 0.21806 0.81338 0.5036 0.0
C826 C 0.31315 0.85566 0.44897 0.0
C827 C 0.33348 0.87335 0.4618 0.0
C828 C 0.33068 0.88797 0.50003 0.0
C829 C 0.30798 0.8849 0.52549 0.0
C830 C 0.28843 0.86702 0.51231 0.0
C831 C 0.29075 0.8526 0.47504 0.0
C832 C 0.26736 0.83384 0.46925 0.0
C833 C 0.25147 0.84098 0.42902 0.0
C834 C 0.27663 0.80459 0.46842 0.0
C835 C 0.25163 0.83992 0.5092 0.0
C836 C 0.26407 0.85926 0.53337 0.0
C837 C 0.25341 0.86827 0.57162 0.0
C838 C 0.2293 0.85726 0.58555 0.0
C839 C 0.21625 0.83729 0.56143 0.0
C840 C 0.22765 0.82851 0.52281 0.0
H841 H 0.91942 0.58644 0.70726 0.0
H842 H 0.83716 0.59215 0.74815 0.0
H843 H 0.84178 0.54954 0.78779 0.0
H844 H 0.91933 0.51679 0.68891 0.0
H845 H 0.95286 0.51145 0.7076 0.0
H846 H 0.94361 0.54322 0.68534 0.0
H847 H 0.95922 0.56698 0.75419 0.0
H848 H 0.96865 0.53526 0.77658 0.0
H849 H 0.94579 0.55661 0.80482 0.0
H850 H 0.85522 0.50593 0.82095 0.0
H851 H 0.87605 0.4637 0.84419 0.0
H852 H 0.9492 0.48606 0.77925 0.0
C853 C 0.90259 0.57877 0.72513 0.0
C854 C 0.87805 0.59233 0.72542 0.0
C855 C 0.85615 0.58185 0.74824 0.0
C856 C 0.85861 0.55779 0.77069 0.0
C857 C 0.88308 0.54464 0.76961 0.0
C858 C 0.90469 0.55473 0.74741 0.0
C859 C 0.92838 0.53614 0.74979 0.0
C860 C 0.93651 0.52632 0.70526 0.0
C861 C 0.9519 0.54955 0.77272 0.0
C862 C 0.91663 0.51384 0.77626 0.0
C863 C 0.89059 0.51923 0.78777 0.0
C864 C 0.87562 0.5015 0.81222 0.0
C865 C 0.88761 0.4776 0.82525 0.0
C866 C 0.91418 0.47159 0.81337 0.0
C867 C 0.92879 0.49002 0.78861 0.0
H868 H 0.72178 0.79813 0.00603 0.0
H869 H 0.71995 0.83793 0.88338 0.0
H870 H 0.76387 0.85802 0.8978 0.0
H871 H 0.74989 0.85315 0.06196 0.0
H872 H 0.77015 0.83305 0.09683 0.0
H873 H 0.73961 0.81973 0.07558 0.0
H874 H 0.76546 0.77948 0.0444 0.0
H875 H 0.79609 0.79265 0.06567 0.0
H876 H 0.79349 0.78537 0.00968 0.0
H877 H 0.80737 0.87425 0.92527 0.0
H878 H 0.84686 0.88816 0.96683 0.0
H879 H 0.81947 0.84039 0.07345 0.0
C880 C 0.73088 0.81081 0.98215 0.0
C881 C 0.7177 0.81646 0.94359 0.0
C882 C 0.72982 0.83349 0.91322 0.0
C883 C 0.75477 0.84488 0.92099 0.0
C884 C 0.76718 0.83927 0.9595 0.0
C885 C 0.75563 0.82285 0.98979 0.0
C886 C 0.77249 0.82163 0.02967 0.0
C887 C 0.75711 0.83255 0.06828 0.0
C888 C 0.78248 0.79308 0.03781 0.0
C889 C 0.79515 0.84001 0.01703 0.0
C890 C 0.79186 0.84965 0.97619 0.0
C891 C 0.81022 0.86687 0.95732 0.0
C892 C 0.83254 0.87461 0.98101 0.0
C893 C 0.83598 0.86541 0.02318 0.0
C894 C 0.81708 0.84786 0.04132 0.0
H895 H 0.3581 0.5614 0.75809 0.0
H896 H 0.43027 0.60808 0.74202 0.0
H897 H 0.45192 0.56993 0.70659 0.0
H898 H 0.38851 0.5016 0.78401 0.0
H899 H 0.36579 0.48033 0.7554 0.0
H900 H 0.35465 0.51217 0.77483 0.0
H901 H 0.34016 0.5258 0.69872 0.0
H902 H 0.35103 0.49383 0.67906 0.0
H903 H 0.36393 0.52408 0.65574 0.0
H904 H 0.46774 0.52554 0.6833 0.0
H905 H 0.47551 0.47808 0.66626 0.0
H906 H 0.39253 0.46041 0.69304 0.0
C907 C 0.37827 0.56366 0.74628 0.0
C908 C 0.39253 0.58761 0.75245 0.0
C909 C 0.41892 0.58998 0.73692 0.0
C910 C 0.4314 0.56842 0.71695 0.0
C911 C 0.41703 0.54486 0.71224 0.0
C912 C 0.3909 0.54244 0.72572 0.0
C913 C 0.38043 0.51447 0.71851 0.0
C914 C 0.37185 0.50138 0.7607 0.0
C915 C 0.35753 0.51456 0.68607 0.0
C916 C 0.4051 0.50133 0.70042 0.0
C917 C 0.42596 0.51926 0.69711 0.0
C918 C 0.45145 0.51141 0.68486 0.0
C919 C 0.45572 0.48447 0.67563 0.0
C920 C 0.43453 0.46593 0.67824 0.0
C921 C 0.40886 0.47446 0.69023 0.0
H922 H 0.68235 0.10205 0.51548 0.0
H923 H 0.63229 0.17109 0.49178 0.0
H924 H 0.66946 0.19314 0.45449 0.0
H925 H 0.73989 0.13664 0.53957 0.0
H926 H 0.7628 0.11413 0.51383 0.0
H927 H 0.73136 0.10191 0.53338 0.0
H928 H 0.71973 0.08385 0.45846 0.0
H929 H 0.7513 0.09582 0.43868 0.0
H930 H 0.72076 0.10606 0.41332 0.0
H931 H 0.71301 0.21048 0.43072 0.0
H932 H 0.76022 0.22069 0.41537 0.0
H933 H 0.78236 0.14002 0.45045 0.0
C934 C 0.67912 0.12157 0.50161 0.0
C935 C 0.65442 0.1348 0.5062 0.0
C936 C 0.65089 0.16039 0.48792 0.0
C937 C 0.67192 0.17313 0.46685 0.0
C938 C 0.6962 0.15986 0.46384 0.0
C939 C 0.69986 0.13448 0.48004 0.0
C940 C 0.72849 0.12541 0.47463 0.0
C941 C 0.74138 0.11916 0.51793 0.0
C942 C 0.73016 0.10136 0.44447 0.0
C943 C 0.74054 0.15011 0.45453 0.0
C944 C 0.72147 0.16968 0.44852 0.0
C945 C 0.72803 0.19516 0.43428 0.0
C946 C 0.75482 0.20082 0.42599 0.0
C947 C 0.77456 0.18101 0.43149 0.0
C948 C 0.76738 0.15523 0.4453 0.0
H949 H 0.14403 0.43657 0.25891 0.0
H950 H 0.07494 0.38702 0.23301 0.0
H951 H 0.05276 0.42511 0.19856 0.0
H952 H 0.1093 0.49339 0.28753 0.0
H953 H 0.13168 0.51706 0.26316 0.0
H954 H 0.144 0.48514 0.28045 0.0
H955 H 0.16192 0.47557 0.20464 0.0
H956 H 0.14987 0.50764 0.18715 0.0
H957 H 0.13964 0.47775 0.15982 0.0
H958 H 0.03538 0.46929 0.1774 0.0
H959 H 0.02525 0.51679 0.16451 0.0
H960 H 0.10585 0.53818 0.20085 0.0
C961 C 0.12447 0.43364 0.24518 0.0
C962 C 0.11131 0.40876 0.24833 0.0
C963 C 0.08564 0.40571 0.23021 0.0
C964 C 0.0728 0.42728 0.21078 0.0
C965 C 0.086 0.45169 0.20927 0.0
C966 C 0.11142 0.45495 0.22532 0.0
C967 C 0.12041 0.48376 0.22177 0.0
C968 C 0.12671 0.49552 0.26585 0.0
C969 C 0.14438 0.48632 0.19154 0.0
C970 C 0.09567 0.4963 0.20274 0.0
C971 C 0.07611 0.47736 0.19574 0.0
C972 C 0.05068 0.48424 0.18189 0.0
C973 C 0.04506 0.51122 0.17501 0.0
C974 C 0.06486 0.5309 0.18155 0.0
C975 C 0.09058 0.52335 0.195 0.0
H976 H 0.67499 0.66231 0.45022 0.0
H977 H 0.651 0.61051 0.55402 0.0
H978 H 0.69042 0.6251 0.59546 0.0
H979 H 0.7436 0.65097 0.45668 0.0
H980 H 0.75327 0.6848 0.44474 0.0
H981 H 0.7222 0.67191 0.42495 0.0
H982 H 0.69676 0.71084 0.46091 0.0
H983 H 0.72781 0.72395 0.4807 0.0
H984 H 0.70096 0.71669 0.51709 0.0
H985 H 0.73466 0.64156 0.62158 0.0
H986 H 0.77921 0.66115 0.6333 0.0
H987 H 0.77313 0.70402 0.5137 0.0
C988 C 0.67796 0.65425 0.48186 0.0
C989 C 0.66022 0.63522 0.49907 0.0
C990 C 0.66444 0.62521 0.54058 0.0
C991 C 0.68672 0.63334 0.56418 0.0
C992 C 0.70415 0.65179 0.54592 0.0
C993 C 0.69982 0.66241 0.50595 0.0
C994 C 0.7219 0.68136 0.49306 0.0
C995 C 0.73608 0.67166 0.45247 0.0
C996 C 0.71121 0.70991 0.48764 0.0
C997 C 0.73982 0.67917 0.53154 0.0
C998 C 0.7292 0.66202 0.56166 0.0
C999 C 0.74297 0.65535 0.59858 0.0
C1000 C 0.76828 0.66644 0.6048 0.0
C1001 C 0.7794 0.68416 0.57444 0.0
C1002 C 0.76484 0.69085 0.53766 0.0
H1003 H 0.10686 0.0427 0.80911 0.0
H1004 H 0.02502 0.02087 0.83696 0.0
H1005 H 0.03517 0.97382 0.8206 0.0
H1006 H 0.11259 0.00149 0.71903 0.0
H1007 H 0.14695 0.99251 0.7277 0.0
H1008 H 0.13446 0.0238 0.74736 0.0
H1009 H 0.15001 0.0113 0.82342 0.0
H1010 H 0.16251 0.97987 0.80396 0.0
H1011 H 0.13879 0.98048 0.84708 0.0
H1012 H 0.05295 0.93025 0.79783 0.0
H1013 H 0.07612 0.89295 0.76285 0.0
H1014 H 0.14609 0.94275 0.74524 0.0
C1015 C 0.09133 0.02782 0.81239 0.0
C1016 C 0.06526 0.0351 0.82447 0.0
C1017 C 0.04511 0.01546 0.82761 0.0
C1018 C 0.05072 0.98874 0.81875 0.0
C1019 C 0.07652 0.98211 0.80635 0.0
C1020 C 0.09646 0.00105 0.80266 0.0
C1021 C 0.12166 0.98894 0.78433 0.0
C1022 C 0.12935 0.00249 0.7421 0.0
C1023 C 0.1446 0.99022 0.81663 0.0
C1024 C 0.11249 0.96045 0.77744 0.0
C1025 C 0.08659 0.95689 0.79135 0.0
C1026 C 0.07333 0.93265 0.78721 0.0
C1027 C 0.08671 0.91155 0.76751 0.0
C1028 C 0.11295 0.91494 0.75171 0.0
C1029 C 0.12608 0.93963 0.75725 0.0
H1030 H 0.71456 0.35656 0.04805 0.0
H1031 H 0.73845 0.27721 0.08791 0.0
H1032 H 0.78565 0.28919 0.07701 0.0
H1033 H 0.76008 0.36093 0.96389 0.0
H1034 H 0.76693 0.39602 0.96997 0.0
H1035 H 0.73536 0.38268 0.98689 0.0
H1036 H 0.74302 0.40187 0.06244 0.0
H1037 H 0.77475 0.4152 0.04573 0.0
H1038 H 0.77292 0.39323 0.09109 0.0
H1039 H 0.82947 0.30809 0.05677 0.0
H1040 H 0.86697 0.33124 0.02211 0.0
H1041 H 0.8152 0.39818 0.99297 0.0
C1042 C 0.72984 0.34197 0.05516 0.0
C1043 C 0.72305 0.31605 0.06894 0.0
C1044 C 0.74337 0.29716 0.07712 0.0
C1045 C 0.77021 0.30385 0.07142 0.0
C1046 C 0.77634 0.32944 0.05723 0.0
C1047 C 0.75679 0.34817 0.04883 0.0
C1048 C 0.76866 0.3732 0.02947 0.0
C1049 C 0.75707 0.3785 0.98492 0.0
C1050 C 0.76459 0.3973 0.05895 0.0
C1051 C 0.79777 0.36526 0.02721 0.0
C1052 C 0.8018 0.34019 0.04431 0.0
C1053 C 0.82669 0.32791 0.04382 0.0
C1054 C 0.84792 0.3413 0.02428 0.0
C1055 C 0.84406 0.36659 0.00508 0.0
C1056 C 0.81875 0.3789 0.0075 0.0
H1057 H 0.40555 0.97417 0.33117 0.0
H1058 H 0.4648 0.95238 0.23657 0.0
H1059 H 0.45338 0.99206 0.19447 0.0
H1060 H 0.35667 0.00173 0.25831 0.0
H1061 H 0.34755 0.02903 0.29264 0.0
H1062 H 0.3594 0.99819 0.31523 0.0
H1063 H 0.39636 0.02394 0.35547 0.0
H1064 H 0.38465 0.05485 0.33296 0.0
H1065 H 0.41894 0.04504 0.32606 0.0
H1066 H 0.4357 0.03272 0.16172 0.0
H1067 H 0.41399 0.075 0.14149 0.0
H1068 H 0.36785 0.07348 0.25828 0.0
C1069 C 0.41592 0.97779 0.30147 0.0
C1070 C 0.43601 0.96024 0.28701 0.0
C1071 C 0.44946 0.96567 0.24831 0.0
C1072 C 0.44306 0.98809 0.22406 0.0
C1073 C 0.42339 0.00514 0.23918 0.0
C1074 C 0.41013 0.00055 0.27707 0.0
C1075 C 0.39059 0.02293 0.2864 0.0
C1076 C 0.36185 0.01233 0.28824 0.0
C1077 C 0.39809 0.03755 0.32767 0.0
C1078 C 0.39494 0.04056 0.24768 0.0
C1079 C 0.4138 0.02964 0.22079 0.0
C1080 C 0.42098 0.04161 0.18251 0.0
C1081 C 0.40854 0.06551 0.17125 0.0
C1082 C 0.38939 0.07729 0.19838 0.0
C1083 C 0.38258 0.0648 0.23723 0.0
H1084 H 0.20971 0.36264 0.4495 0.0
H1085 H 0.22712 0.28039 0.4171 0.0
H1086 H 0.27401 0.28683 0.43818 0.0
H1087 H 0.27497 0.39134 0.41868 0.0
H1088 H 0.2758 0.4138 0.46339 0.0
H1089 H 0.24429 0.40396 0.44079 0.0
H1090 H 0.22856 0.38734 0.51478 0.0
H1091 H 0.26001 0.39702 0.53755 0.0
H1092 H 0.24839 0.36315 0.5431 0.0
H1093 H 0.31742 0.30069 0.46605 0.0
H1094 H 0.35559 0.32072 0.50323 0.0
H1095 H 0.31057 0.39379 0.52151 0.0
C1096 C 0.22365 0.34628 0.44621 0.0
C1097 C 0.21519 0.32111 0.43156 0.0
C1098 C 0.23351 0.29979 0.4284 0.0
C1099 C 0.26011 0.3033 0.44001 0.0
C1100 C 0.26789 0.32817 0.45513 0.0
C1101 C 0.25029 0.3493 0.45859 0.0
C1102 C 0.26349 0.37312 0.47949 0.0
C1103 C 0.26471 0.39697 0.44874 0.0
C1104 C 0.24926 0.38058 0.5212 0.0
C1105 C 0.29101 0.36182 0.48783 0.0
C1106 C 0.29312 0.33602 0.47279 0.0
C1107 C 0.3162 0.32099 0.47758 0.0
C1108 C 0.33778 0.33258 0.49857 0.0
C1109 C 0.33606 0.35887 0.51479 0.0
C1110 C 0.31238 0.37369 0.50926 0.0
H1111 H 0.84954 0.07229 0.26331 0.0
H1112 H 0.91839 0.1217 0.23463 0.0
H1113 H 0.93907 0.08418 0.1965 0.0
H1114 H 0.88453 0.01495 0.28707 0.0
H1115 H 0.86127 0.99182 0.26367 0.0
H1116 H 0.84973 0.02356 0.28292 0.0
H1117 H 0.82977 0.03433 0.20888 0.0
H1118 H 0.8411 0.00247 0.1894 0.0
H1119 H 0.85075 0.0327 0.16234 0.0
H1120 H 0.95537 0.04033 0.172 0.0
H1121 H 0.96518 0.99284 0.15839 0.0
H1122 H 0.88565 0.97129 0.20025 0.0
C1123 C 0.86873 0.07534 0.24827 0.0
C1124 C 0.88225 0.10002 0.25167 0.0
C1125 C 0.90739 0.1032 0.23172 0.0
C1126 C 0.91937 0.08195 0.21013 0.0
C1127 C 0.90586 0.05772 0.20836 0.0
C1128 C 0.88094 0.05433 0.22637 0.0
C1129 C 0.87165 0.02564 0.22255 0.0
C1130 C 0.86651 0.01328 0.26667 0.0
C1131 C 0.84685 0.02368 0.19409 0.0
C1132 C 0.89574 0.01323 0.20123 0.0
C1133 C 0.91514 0.0322 0.1931 0.0
C1134 C 0.94016 0.02538 0.17732 0.0
C1135 C 0.94559 0.99842 0.16997 0.0
C1136 C 0.92603 0.97872 0.17801 0.0
C1137 C 0.90064 0.98619 0.19307 0.0
H1138 H 0.16727 0.66867 0.0319 0.0
H1139 H 0.17233 0.58256 0.02333 0.0
H1140 H 0.21508 0.58659 0.98419 0.0
H1141 H 0.19746 0.68454 0.92898 0.0
H1142 H 0.21539 0.71291 0.94944 0.0
H1143 H 0.18411 0.70323 0.9731 0.0
H1144 H 0.20691 0.69994 0.04691 0.0
H1145 H 0.23824 0.70955 0.02349 0.0
H1146 H 0.23576 0.67888 0.05325 0.0
H1147 H 0.25739 0.60014 0.9473 0.0
H1148 H 0.29813 0.62196 0.91983 0.0
H1149 H 0.26664 0.69914 0.95699 0.0
C1150 C 0.17727 0.65077 0.02109 0.0
C1151 C 0.16664 0.62533 0.02988 0.0
C1152 C 0.18033 0.60218 0.01643 0.0
C1153 C 0.20446 0.6043 0.99417 0.0
C1154 C 0.21462 0.62971 0.98623 0.0
C1155 C 0.20158 0.65253 0.99956 0.0
C1156 C 0.21768 0.67732 0.98976 0.0
C1157 C 0.20277 0.69557 0.95845 0.0
C1158 C 0.22508 0.69229 0.0308 0.0
C1159 C 0.24193 0.66487 0.96919 0.0
C1160 C 0.23959 0.63744 0.96682 0.0
C1161 C 0.25947 0.62161 0.94897 0.0
C1162 C 0.28248 0.63416 0.93342 0.0
C1163 C 0.28551 0.66218 0.93654 0.0
C1164 C 0.2649 0.67766 0.95449 0.0
H1165 H 0.54857 0.01585 0.73267 0.0
H1166 H 0.62231 0.04078 0.67206 0.0
H1167 H 0.64465 0.00029 0.69925 0.0
H1168 H 0.5771 0.98812 0.82665 0.0
H1169 H 0.55413 0.9605 0.82938 0.0
H1170 H 0.54398 0.9914 0.80506 0.0
H1171 H 0.5317 0.96614 0.73587 0.0
H1172 H 0.54178 0.93514 0.76 0.0
H1173 H 0.55639 0.94555 0.71025 0.0
H1174 H 0.65926 0.95791 0.73501 0.0
H1175 H 0.66441 0.91523 0.77431 0.0
H1176 H 0.58087 0.91739 0.80898 0.0
C1177 C 0.56942 0.0128 0.72517 0.0
C1178 C 0.58377 0.03144 0.70046 0.0
C1179 C 0.61095 0.02666 0.6909 0.0
C1180 C 0.62381 0.00379 0.70625 0.0
C1181 C 0.6091 0.98582 0.73064 0.0
C1182 C 0.58245 0.98994 0.73974 0.0
C1183 C 0.57105 0.96735 0.76602 0.0
C1184 C 0.56098 0.97745 0.80935 0.0
C1185 C 0.54892 0.95268 0.74157 0.0
C1186 C 0.59556 0.95008 0.77088 0.0
C1187 C 0.61733 0.96109 0.75029 0.0
C1188 C 0.64234 0.94899 0.75101 0.0
C1189 C 0.64512 0.92491 0.7733 0.0
C1190 C 0.62299 0.91337 0.79416 0.0
C1191 C 0.59796 0.926 0.79294 0.0
H1192 H 0.40384 0.13883 0.01373 0.0
H1193 H 0.3626 0.20471 0.95263 0.0
H1194 H 0.37647 0.18802 0.88254 0.0
H1195 H 0.45996 0.14008 0.94563 0.0
H1196 H 0.46452 0.10442 0.9443 0.0
H1197 H 0.44917 0.11981 0.98985 0.0
H1198 H 0.40795 0.08914 0.98107 0.0
H1199 H 0.42316 0.07371 0.93531 0.0
H1200 H 0.39053 0.08848 0.93095 0.0
H1201 H 0.39664 0.16666 0.82006 0.0
H1202 H 0.42473 0.14343 0.76818 0.0
H1203 H 0.45334 0.09054 0.86792 0.0
C1204 C 0.39749 0.14949 0.98552 0.0
C1205 C 0.38209 0.17301 0.9886 0.0
C1206 C 0.37448 0.18669 0.95106 0.0
C1207 C 0.38208 0.17728 0.91104 0.0
C1208 C 0.39735 0.15418 0.90901 0.0
C1209 C 0.40517 0.14049 0.9451 0.0
C1210 C 0.42332 0.11736 0.93378 0.0
C1211 C 0.45087 0.12063 0.95462 0.0
C1212 C 0.41046 0.09059 0.946 0.0
C1213 C 0.42487 0.12065 0.88585 0.0
C1214 C 0.40937 0.14178 0.87236 0.0
C1215 C 0.40854 0.14977 0.83002 0.0
C1216 C 0.42445 0.13621 0.80065 0.0
C1217 C 0.44109 0.11482 0.81365 0.0
C1218 C 0.44084 0.10671 0.85683 0.0
H1219 H 0.57548 0.62356 0.20822 0.0
H1220 H 0.62644 0.66248 0.30073 0.0
H1221 H 0.65475 0.67974 0.24192 0.0
H1222 H 0.62847 0.6041 0.13519 0.0
H1223 H 0.608 0.60966 0.08894 0.0
H1224 H 0.59287 0.59959 0.13846 0.0
H1225 H 0.56185 0.64095 0.13626 0.0
H1226 H 0.57662 0.65093 0.0866 0.0
H1227 H 0.5763 0.67373 0.1309 0.0
H1228 H 0.67486 0.69578 0.17147 0.0
H1229 H 0.68372 0.71012 0.09752 0.0
H1230 H 0.62138 0.65712 0.05293 0.0
C1231 C 0.59259 0.63572 0.21631 0.0
C1232 C 0.59863 0.64194 0.25902 0.0
C1233 C 0.62141 0.6576 0.26815 0.0
C1234 C 0.63764 0.66734 0.235 0.0
C1235 C 0.63107 0.66072 0.19313 0.0
C1236 C 0.60912 0.64511 0.18391 0.0
C1237 C 0.6056 0.64139 0.13657 0.0
C1238 C 0.60894 0.61193 0.12407 0.0
C1239 C 0.5785 0.65242 0.12173 0.0
C1240 C 0.62849 0.65811 0.12022 0.0
C1241 C 0.64314 0.66898 0.15316 0.0
C1242 C 0.66383 0.68697 0.14547 0.0
C1243 C 0.6689 0.69482 0.10325 0.0
C1244 C 0.65331 0.68469 0.06929 0.0
C1245 C 0.63366 0.66525 0.07808 0.0
H1246 H 0.05787 0.86267 0.31343 0.0
H1247 H 0.04868 0.94591 0.34804 0.0
H1248 H 0.06913 0.93661 0.41808 0.0
H1249 H 0.04091 0.83605 0.41239 0.0
H1250 H 0.06461 0.80905 0.41083 0.0
H1251 H 0.05166 0.82263 0.36203 0.0
H1252 H 0.09963 0.83225 0.33538 0.0
H1253 H 0.11275 0.81826 0.38385 0.0
H1254 H 0.12192 0.85161 0.36805 0.0
H1255 H 0.08757 0.91727 0.48655 0.0
H1256 H 0.10514 0.88998 0.54596 0.0
H1257 H 0.102 0.8197 0.46549 0.0
C1258 C 0.0609 0.87912 0.33519 0.0
C1259 C 0.05186 0.90506 0.32517 0.0
C1260 C 0.05545 0.92588 0.35511 0.0
C1261 C 0.06705 0.92079 0.39493 0.0
C1262 C 0.07499 0.8948 0.40427 0.0
C1263 C 0.07234 0.87438 0.37503 0.0
C1264 C 0.08133 0.84798 0.39348 0.0
C1265 C 0.05825 0.82775 0.39476 0.0
C1266 C 0.10534 0.83688 0.36872 0.0
C1267 C 0.08921 0.85668 0.43778 0.0
C1268 C 0.08545 0.88373 0.4435 0.0
C1269 C 0.09079 0.8961 0.48231 0.0
C1270 C 0.10061 0.88043 0.51594 0.0
C1271 C 0.10495 0.85272 0.51043 0.0
C1272 C 0.09898 0.84083 0.47081 0.0
H1273 H 0.89035 0.31394 0.56475 0.0
H1274 H 0.81058 0.29419 0.60798 0.0
H1275 H 0.82048 0.31439 0.67796 0.0
H1276 H 0.92308 0.29862 0.65936 0.0
H1277 H 0.94692 0.32547 0.65612 0.0
H1278 H 0.93283 0.31179 0.60825 0.0
H1279 H 0.91642 0.35873 0.5855 0.0
H1280 H 0.93088 0.37263 0.633 0.0
H1281 H 0.89609 0.37794 0.62153 0.0
H1282 H 0.84053 0.33379 0.74511 0.0
H1283 H 0.86819 0.35348 0.80226 0.0
H1284 H 0.93442 0.36027 0.71381 0.0
C1285 C 0.87468 0.31458 0.58845 0.0
C1286 C 0.84964 0.30265 0.58087 0.0
C1287 C 0.82993 0.30319 0.61321 0.0
C1288 C 0.83535 0.31462 0.653 0.0
C1289 C 0.86055 0.32549 0.65983 0.0
C1290 C 0.87978 0.32582 0.62826 0.0
C1291 C 0.90565 0.33763 0.64414 0.0
C1292 C 0.92845 0.31715 0.64183 0.0
C1293 C 0.91266 0.36326 0.61959 0.0
C1294 C 0.89808 0.34363 0.6897 0.0
C1295 C 0.87202 0.33653 0.69826 0.0
C1296 C 0.8609 0.33964 0.73866 0.0
C1297 C 0.87678 0.35068 0.77096 0.0
C1298 C 0.90342 0.35843 0.7625 0.0
C1299 C 0.9141 0.35465 0.72134 0.0
H1300 H 0.60321 0.85494 0.00661 0.0
H1301 H 0.61688 0.77362 0.04968 0.0
H1302 H 0.60828 0.7873 0.12327 0.0
H1303 H 0.63258 0.88817 0.0979 0.0
H1304 H 0.60786 0.91423 0.09972 0.0
H1305 H 0.61619 0.89873 0.04973 0.0
H1306 H 0.56657 0.8864 0.03767 0.0
H1307 H 0.55808 0.90232 0.08715 0.0
H1308 H 0.54889 0.86802 0.07819 0.0
H1309 H 0.59762 0.80869 0.19149 0.0
H1310 H 0.57883 0.83532 0.24958 0.0
H1311 H 0.57245 0.9035 0.16457 0.0
C1312 C 0.60423 0.84003 0.03151 0.0
C1313 C 0.61086 0.81325 0.02227 0.0
C1314 C 0.61193 0.7943 0.05581 0.0
C1315 C 0.6073 0.80187 0.09789 0.0
C1316 C 0.60151 0.82847 0.10609 0.0
C1317 C 0.59951 0.84722 0.07396 0.0
C1318 C 0.59136 0.87413 0.09165 0.0
C1319 C 0.61332 0.89505 0.08431 0.0
C1320 C 0.56464 0.88324 0.07254 0.0
C1321 C 0.58864 0.86731 0.1385 0.0
C1322 C 0.59508 0.84096 0.14607 0.0
C1323 C 0.59277 0.82946 0.1862 0.0
C1324 C 0.58235 0.84494 0.21923 0.0
C1325 C 0.57423 0.87165 0.21191 0.0
C1326 C 0.57845 0.88318 0.17128 0.0
H1327 H 0.44561 0.3483 0.79111 0.0
H1328 H 0.37223 0.36462 0.72263 0.0
H1329 H 0.34618 0.3519 0.7858 0.0
H1330 H 0.42106 0.29014 0.84565 0.0
H1331 H 0.43879 0.29685 0.89432 0.0
H1332 H 0.45195 0.30853 0.84433 0.0
H1333 H 0.45327 0.35671 0.87393 0.0
H1334 H 0.43984 0.34519 0.9239 0.0
H1335 H 0.42323 0.37142 0.89496 0.0
H1336 H 0.32769 0.33701 0.85527 0.0
H1337 H 0.31782 0.31698 0.92527 0.0
H1338 H 0.40256 0.30874 0.94949 0.0
C1339 C 0.42407 0.34925 0.7895 0.0
C1340 C 0.41102 0.35753 0.75178 0.0
C1341 C 0.38277 0.35829 0.75095 0.0
C1342 C 0.36773 0.35125 0.78683 0.0
C1343 C 0.38112 0.34333 0.82346 0.0
C1344 C 0.40862 0.34199 0.82508 0.0
C1345 C 0.41782 0.33146 0.86798 0.0
C1346 C 0.43331 0.30518 0.86274 0.0
C1347 C 0.43453 0.35245 0.89158 0.0
C1348 C 0.39118 0.32693 0.88993 0.0
C1349 C 0.37033 0.33423 0.86372 0.0
C1350 C 0.34383 0.33125 0.87614 0.0
C1351 C 0.33842 0.31983 0.91595 0.0
C1352 C 0.35936 0.31132 0.94294 0.0
C1353 C 0.38612 0.31548 0.92997 0.0
H1354 H 0.93283 0.15333 0.69645 0.0
H1355 H 0.94491 0.07046 0.66185 0.0
H1356 H 0.92384 0.07891 0.59208 0.0
H1357 H 0.86804 0.16207 0.64106 0.0
H1358 H 0.87616 0.19571 0.62531 0.0
H1359 H 0.8894 0.18223 0.67408 0.0
H1360 H 0.9372 0.1935 0.64833 0.0
H1361 H 0.92417 0.20656 0.59924 0.0
H1362 H 0.9488 0.18039 0.59822 0.0
H1363 H 0.90567 0.09749 0.52357 0.0
H1364 H 0.88863 0.12419 0.46323 0.0
H1365 H 0.88825 0.19471 0.54335 0.0
C1366 C 0.93023 0.13676 0.67478 0.0
C1367 C 0.94035 0.11121 0.68459 0.0
C1368 C 0.9373 0.0902 0.65485 0.0
C1369 C 0.92535 0.0948 0.61522 0.0
C1370 C 0.91645 0.12047 0.60593 0.0
C1371 C 0.91841 0.14102 0.63508 0.0
C1372 C 0.90867 0.1671 0.6164 0.0
C1373 C 0.8841 0.17737 0.64065 0.0
C1374 C 0.93105 0.18811 0.6155 0.0
C1375 C 0.90141 0.15809 0.57197 0.0
C1376 C 0.90597 0.13114 0.56654 0.0
C1377 C 0.90171 0.11856 0.52759 0.0
C1378 C 0.8922 0.13391 0.49345 0.0
C1379 C 0.88707 0.1615 0.49858 0.0
C1380 C 0.89184 0.17363 0.53842 0.0
H1381 H 0.12649 0.73284 0.39161 0.0
H1382 H 0.13822 0.66592 0.47776 0.0
H1383 H 0.12184 0.63532 0.42242 0.0
H1384 H 0.06836 0.71116 0.34315 0.0
H1385 H 0.07706 0.7222 0.29032 0.0
H1386 H 0.09074 0.73897 0.33594 0.0
H1387 H 0.13864 0.73041 0.30821 0.0
H1388 H 0.12511 0.7139 0.26213 0.0
H1389 H 0.14884 0.69686 0.29552 0.0
H1390 H 0.09942 0.61278 0.3608 0.0
H1391 H 0.07782 0.5991 0.29337 0.0
H1392 H 0.08573 0.67966 0.24487 0.0
C1393 C 0.12645 0.71172 0.39874 0.0
C1394 C 0.13349 0.70198 0.43953 0.0
C1395 C 0.13239 0.67411 0.44729 0.0
C1396 C 0.1233 0.65647 0.41591 0.0
C1397 C 0.11595 0.6669 0.37656 0.0
C1398 C 0.11799 0.69379 0.36754 0.0
C1399 C 0.10868 0.69993 0.32276 0.0
C1400 C 0.08479 0.7192 0.3231 0.0
C1401 C 0.13169 0.71092 0.29555 0.0
C1402 C 0.10049 0.67234 0.30833 0.0
C1403 C 0.10462 0.6536 0.34001 0.0
C1404 C 0.09664 0.62712 0.33543 0.0
C1405 C 0.08433 0.61957 0.2973 0.0
C1406 C 0.08064 0.63833 0.26425 0.0
C1407 C 0.08892 0.66495 0.26963 0.0
H1408 H 0.90081 0.64277 0.50481 0.0
H1409 H 0.86752 0.71558 0.45138 0.0
H1410 H 0.8782 0.70013 0.37975 0.0
H1411 H 0.95558 0.63882 0.4332 0.0
H1412 H 0.95499 0.60301 0.42797 0.0
H1413 H 0.9428 0.61841 0.47589 0.0
H1414 H 0.89753 0.59424 0.46644 0.0
H1415 H 0.90958 0.57888 0.41828 0.0
H1416 H 0.8793 0.59823 0.41744 0.0
H1417 H 0.89489 0.67971 0.31487 0.0
H1418 H 0.91918 0.65599 0.25937 0.0
H1419 H 0.94053 0.59425 0.3508 0.0
C1420 C 0.89562 0.65528 0.47796 0.0
C1421 C 0.88333 0.68041 0.48402 0.0
C1422 C 0.87704 0.6963 0.44797 0.0
C1423 C 0.88283 0.68765 0.40687 0.0
C1424 C 0.89493 0.66298 0.4019 0.0
C1425 C 0.90141 0.64695 0.4362 0.0
C1426 C 0.9159 0.62204 0.42128 0.0
C1427 C 0.94398 0.62049 0.44074 0.0
C1428 C 0.8996 0.59685 0.43147 0.0
C1429 C 0.91706 0.62714 0.37359 0.0
C1430 C 0.90451 0.65074 0.36335 0.0
C1431 C 0.90436 0.66087 0.32217 0.0
C1432 C 0.91807 0.64691 0.29056 0.0
C1433 C 0.93174 0.62282 0.29997 0.0
C1434 C 0.9305 0.61256 0.34211 0.0
H1435 H 0.05183 0.14794 0.71272 0.0
H1436 H 0.12187 0.15052 0.79367 0.0
H1437 H 0.14837 0.16809 0.73347 0.0
H1438 H 0.0853 0.12832 0.61566 0.0
H1439 H 0.06471 0.14905 0.58227 0.0
H1440 H 0.05148 0.13566 0.63118 0.0
H1441 H 0.03937 0.18332 0.65657 0.0
H1442 H 0.05225 0.19681 0.6076 0.0
H1443 H 0.06486 0.20868 0.65781 0.0
H1444 H 0.16684 0.18646 0.66509 0.0
H1445 H 0.17522 0.20731 0.59504 0.0
H1446 H 0.09298 0.19293 0.55927 0.0
C1447 C 0.07277 0.15209 0.71782 0.0
C1448 C 0.08482 0.14781 0.75787 0.0
C1449 C 0.11222 0.1537 0.76328 0.0
C1450 C 0.12746 0.16352 0.72922 0.0
C1451 C 0.11498 0.16732 0.69008 0.0
C1452 C 0.08821 0.16197 0.68431 0.0
C1453 C 0.07928 0.16895 0.63967 0.0
C1454 C 0.06963 0.144 0.61579 0.0
C1455 C 0.05767 0.19073 0.64048 0.0
C1456 C 0.10518 0.17933 0.62127 0.0
C1457 C 0.12558 0.178 0.65074 0.0
C1458 C 0.15106 0.18748 0.64169 0.0
C1459 C 0.15563 0.19928 0.60189 0.0
C1460 C 0.13478 0.20158 0.57173 0.0
C1461 C 0.10942 0.19092 0.58133 0.0
H1462 H 0.5593 0.40039 0.83686 0.0
H1463 H 0.57649 0.33562 0.74914 0.0
H1464 H 0.60209 0.31286 0.80475 0.0
H1465 H 0.62271 0.39725 0.89826 0.0
H1466 H 0.60593 0.40366 0.94795 0.0
H1467 H 0.59298 0.41744 0.89916 0.0
H1468 H 0.54733 0.3952 0.91453 0.0
H1469 H 0.56019 0.38108 0.96299 0.0
H1470 H 0.54577 0.35967 0.92314 0.0
H1471 H 0.62031 0.29401 0.87114 0.0
H1472 H 0.63242 0.2812 0.94406 0.0
H1473 H 0.60215 0.35693 0.99082 0.0
C1474 C 0.56882 0.38166 0.82903 0.0
C1475 C 0.56596 0.37004 0.78823 0.0
C1476 C 0.57885 0.34545 0.77955 0.0
C1477 C 0.5933 0.33216 0.81114 0.0
C1478 C 0.59473 0.34364 0.85133 0.0
C1479 C 0.58309 0.36793 0.86038 0.0
C1480 C 0.58566 0.37466 0.90723 0.0
C1481 C 0.60285 0.39974 0.91351 0.0
C1482 C 0.5581 0.37783 0.92819 0.0
C1483 C 0.59982 0.34993 0.92324 0.0
C1484 C 0.60507 0.33246 0.89029 0.0
C1485 C 0.6167 0.30766 0.89715 0.0
C1486 C 0.62334 0.30053 0.93881 0.0
C1487 C 0.61826 0.31809 0.97322 0.0
C1488 C 0.60642 0.34317 0.96518 0.0
H1489 H 0.34591 0.79333 0.10372 0.0
H1490 H 0.40785 0.80989 0.01058 0.0
H1491 H 0.43411 0.8328 0.06532 0.0
H1492 H 0.3531 0.85602 0.16397 0.0
H1493 H 0.34747 0.83998 0.21455 0.0
H1494 H 0.33219 0.82682 0.16715 0.0
H1495 H 0.35361 0.78077 0.18238 0.0
H1496 H 0.36923 0.79386 0.2295 0.0
H1497 H 0.38924 0.7784 0.18874 0.0
H1498 H 0.45569 0.84996 0.13017 0.0
H1499 H 0.4698 0.86463 0.20117 0.0
H1500 H 0.39428 0.83773 0.25393 0.0
C1501 C 0.36481 0.80213 0.09473 0.0
C1502 C 0.37459 0.80006 0.05258 0.0
C1503 C 0.39951 0.81176 0.04223 0.0
C1504 C 0.41477 0.8246 0.07324 0.0
C1505 C 0.40487 0.8257 0.11454 0.0
C1506 C 0.38036 0.81514 0.12538 0.0
C1507 C 0.3749 0.81849 0.17259 0.0
C1508 C 0.35047 0.8364 0.17999 0.0
C1509 C 0.37155 0.79126 0.19459 0.0
C1510 C 0.40039 0.83219 0.18653 0.0
C1511 C 0.41737 0.83601 0.15241 0.0
C1512 C 0.44248 0.84737 0.15712 0.0
C1513 C 0.45035 0.85549 0.19772 0.0
C1514 C 0.43313 0.85239 0.23319 0.0
C1515 C 0.40784 0.84045 0.22744 0.0
H1516 H 0.10119 0.31445 0.53622 0.0
H1517 H 0.09723 0.38218 0.45016 0.0
H1518 H 0.07725 0.4094 0.50747 0.0
H1519 H 0.03914 0.32606 0.58815 0.0
H1520 H 0.05089 0.31553 0.63968 0.0
H1521 H 0.06561 0.30187 0.59222 0.0
H1522 H 0.11227 0.31702 0.61795 0.0
H1523 H 0.09766 0.33095 0.66537 0.0
H1524 H 0.1178 0.35159 0.63105 0.0
H1525 H 0.05637 0.42874 0.57367 0.0
H1526 H 0.03493 0.43827 0.64291 0.0
H1527 H 0.05299 0.35791 0.68536 0.0
C1528 C 0.09619 0.33502 0.52935 0.0
C1529 C 0.10077 0.34618 0.48865 0.0
C1530 C 0.09388 0.37318 0.48106 0.0
C1531 C 0.08261 0.38883 0.51345 0.0
C1532 C 0.07847 0.3772 0.55324 0.0
C1533 C 0.08499 0.35089 0.56124 0.0
C1534 C 0.07786 0.34292 0.60633 0.0
C1535 C 0.05714 0.32026 0.60659 0.0
C1536 C 0.10289 0.33517 0.63166 0.0
C1537 C 0.06604 0.36879 0.6224 0.0
C1538 C 0.06667 0.38836 0.59138 0.0
C1539 C 0.05591 0.41362 0.59828 0.0
C1540 C 0.04376 0.41884 0.63763 0.0
C1541 C 0.04249 0.39891 0.66958 0.0
C1542 C 0.05417 0.37373 0.66192 0.0
H1543 H 0.94067 0.86723 0.30417 0.0
H1544 H 0.86983 0.8736 0.22552 0.0
H1545 H 0.84194 0.86059 0.28662 0.0
H1546 H 0.92013 0.80904 0.3589 0.0
H1547 H 0.93455 0.81856 0.40914 0.0
H1548 H 0.94871 0.83085 0.36028 0.0
H1549 H 0.94304 0.87935 0.38729 0.0
H1550 H 0.92853 0.86717 0.4361 0.0
H1551 H 0.91058 0.89083 0.40377 0.0
H1552 H 0.82185 0.84466 0.35421 0.0
H1553 H 0.81133 0.8227 0.4226 0.0
H1554 H 0.89492 0.82569 0.45746 0.0
C1555 C 0.91927 0.86612 0.29999 0.0
C1556 C 0.90742 0.87149 0.26015 0.0
C1557 C 0.87938 0.86948 0.25572 0.0
C1558 C 0.86332 0.86234 0.29032 0.0
C1559 C 0.87557 0.8572 0.32916 0.0
C1560 C 0.9029 0.85874 0.33417 0.0
C1561 C 0.91112 0.85008 0.37845 0.0
C1562 C 0.92971 0.82568 0.37656 0.0
C1563 C 0.92408 0.87325 0.40284 0.0
C1564 C 0.88417 0.84293 0.39713 0.0
C1565 C 0.86391 0.84762 0.36835 0.0
C1566 C 0.83748 0.84113 0.37723 0.0
C1567 C 0.83169 0.82868 0.41608 0.0
C1568 C 0.85226 0.82274 0.44536 0.0
C1569 C 0.8787 0.83063 0.43615 0.0
H1570 H 0.3959 0.687 0.03851 0.0
H1571 H 0.40129 0.61845 0.9545 0.0
H1572 H 0.42146 0.59214 0.01235 0.0
H1573 H 0.45845 0.67649 0.09024 0.0
H1574 H 0.44683 0.68727 0.14171 0.0
H1575 H 0.43172 0.7004 0.09417 0.0
H1576 H 0.38538 0.68493 0.12107 0.0
H1577 H 0.40038 0.67151 0.16855 0.0
H1578 H 0.3803 0.6504 0.13503 0.0
H1579 H 0.44194 0.57348 0.07816 0.0
H1580 H 0.46404 0.56453 0.14688 0.0
H1581 H 0.44589 0.64505 0.18827 0.0
C1582 C 0.40126 0.66643 0.03233 0.0
C1583 C 0.39697 0.65478 0.99197 0.0
C1584 C 0.40442 0.62785 0.9851 0.0
C1585 C 0.41576 0.61267 0.01782 0.0
C1586 C 0.41957 0.62468 0.05725 0.0
C1587 C 0.41273 0.65098 0.06462 0.0
C1588 C 0.42001 0.65934 0.10945 0.0
C1589 C 0.44047 0.68222 0.10884 0.0
C1590 C 0.39502 0.66699 0.13503 0.0
C1591 C 0.43222 0.63368 0.12593 0.0
C1592 C 0.43155 0.6139 0.09537 0.0
C1593 C 0.44249 0.58875 0.10245 0.0
C1594 C 0.45501 0.58386 0.14149 0.0
C1595 C 0.45655 0.60404 0.17289 0.0
C1596 C 0.44454 0.62909 0.16519 0.0
H1597 H 0.60637 0.18154 0.95044 0.0
H1598 H 0.69017 0.18269 0.91606 0.0
H1599 H 0.6789 0.16527 0.84484 0.0
H1600 H 0.58919 0.11995 0.89091 0.0
H1601 H 0.55691 0.13278 0.87626 0.0
H1602 H 0.57208 0.14288 0.92562 0.0
H1603 H 0.56703 0.19236 0.90306 0.0
H1604 H 0.55247 0.18243 0.85323 0.0
H1605 H 0.58159 0.2035 0.85366 0.0
H1606 H 0.65805 0.15224 0.77517 0.0
H1607 H 0.62964 0.13889 0.71471 0.0
H1608 H 0.55959 0.14523 0.79539 0.0
C1609 C 0.62247 0.17724 0.92852 0.0
C1610 C 0.64918 0.18343 0.93888 0.0
C1611 C 0.66956 0.1782 0.90874 0.0
C1612 C 0.66336 0.16834 0.86822 0.0
C1613 C 0.63671 0.16358 0.85845 0.0
C1614 C 0.61663 0.16733 0.888 0.0
C1615 C 0.58951 0.16152 0.86899 0.0
C1616 C 0.57614 0.13787 0.8918 0.0
C1617 C 0.57161 0.18644 0.86979 0.0
C1618 C 0.59745 0.15432 0.82397 0.0
C1619 C 0.62474 0.15574 0.81847 0.0
C1620 C 0.63668 0.15076 0.77922 0.0
C1621 C 0.62035 0.14342 0.74498 0.0
C1622 C 0.5924 0.14101 0.7503 0.0
C1623 C 0.58088 0.14686 0.79028 0.0
H1624 H 0.29057 0.26689 0.17552 0.0
H1625 H 0.32212 0.20076 0.24929 0.0
H1626 H 0.28288 0.20253 0.29626 0.0
H1627 H 0.26071 0.30277 0.26774 0.0
H1628 H 0.23242 0.31368 0.23702 0.0
H1629 H 0.26413 0.30855 0.21136 0.0
H1630 H 0.24148 0.27617 0.15834 0.0
H1631 H 0.20987 0.28057 0.18462 0.0
H1632 H 0.22361 0.24758 0.1784 0.0
H1633 H 0.2382 0.20794 0.3305 0.0
H1634 H 0.19479 0.22237 0.35889 0.0
H1635 H 0.19218 0.28614 0.26525 0.0
C1636 C 0.28968 0.25337 0.20238 0.0
C1637 C 0.3096 0.23371 0.20862 0.0
C1638 C 0.30727 0.21607 0.24378 0.0
C1639 C 0.28491 0.21676 0.27052 0.0
C1640 C 0.26502 0.2354 0.26216 0.0
C1641 C 0.26746 0.25388 0.22972 0.0
C1642 C 0.24298 0.27169 0.22768 0.0
C1643 C 0.25051 0.3009 0.23649 0.0
C1644 C 0.22865 0.26882 0.1847 0.0
C1645 C 0.22636 0.26007 0.26367 0.0
C1646 C 0.23938 0.23895 0.28275 0.0
C1647 C 0.22793 0.22465 0.31613 0.0
C1648 C 0.20305 0.23286 0.33176 0.0
C1649 C 0.18987 0.2554 0.3144 0.0
C1650 C 0.20154 0.26873 0.27915 0.0
H1651 H 0.53711 0.54998 0.48545 0.0
H1652 H 0.4813 0.53985 0.38109 0.0
H1653 H 0.46775 0.49642 0.41037 0.0
H1654 H 0.55801 0.48274 0.49396 0.0
H1655 H 0.55904 0.48174 0.55127 0.0
H1656 H 0.56421 0.51285 0.52367 0.0
H1657 H 0.52561 0.53469 0.56597 0.0
H1658 H 0.52081 0.50385 0.59448 0.0
H1659 H 0.49331 0.51891 0.56655 0.0
H1660 H 0.46259 0.45277 0.44675 0.0
H1661 H 0.45901 0.41505 0.49656 0.0
H1662 H 0.51609 0.45315 0.5806 0.0
C1663 C 0.52163 0.53888 0.46925 0.0
C1664 C 0.51035 0.54849 0.43076 0.0
C1665 C 0.49023 0.53318 0.4106 0.0
C1666 C 0.48254 0.50827 0.42677 0.0
C1667 C 0.4948 0.49894 0.46361 0.0
C1668 C 0.51333 0.51401 0.4854 0.0
C1669 C 0.52265 0.4994 0.52519 0.0
C1670 C 0.55277 0.49386 0.52339 0.0
C1671 C 0.51514 0.51515 0.56543 0.0
C1672 C 0.5067 0.47366 0.5219 0.0
C1673 C 0.49109 0.47381 0.48571 0.0
C1674 C 0.47454 0.4525 0.47539 0.0
C1675 C 0.47282 0.43103 0.50379 0.0
C1676 C 0.48733 0.43097 0.54249 0.0
C1677 C 0.50512 0.4523 0.55099 0.0
H1678 H 0.19393 0.79008 0.74021 0.0
H1679 H 0.20032 0.73198 0.63813 0.0
H1680 H 0.242 0.71525 0.66888 0.0
H1681 H 0.26237 0.80531 0.74975 0.0
H1682 H 0.26306 0.80696 0.80703 0.0
H1683 H 0.2327 0.81433 0.77878 0.0
H1684 H 0.20747 0.77817 0.82188 0.0
H1685 H 0.23758 0.77116 0.851 0.0
H1686 H 0.22045 0.74465 0.82363 0.0
H1687 H 0.28486 0.70796 0.70464 0.0
H1688 H 0.32249 0.70268 0.75351 0.0
H1689 H 0.28827 0.76243 0.83751 0.0
C1690 C 0.20379 0.77344 0.7249 0.0
C1691 C 0.19378 0.76249 0.68649 0.0
C1692 C 0.2074 0.74077 0.66747 0.0
C1693 C 0.2313 0.73123 0.6845 0.0
C1694 C 0.2412 0.74319 0.72112 0.0
C1695 C 0.22759 0.7632 0.74202 0.0
C1696 C 0.24262 0.7718 0.78177 0.0
C1697 C 0.25066 0.80136 0.77915 0.0
C1698 C 0.22604 0.7661 0.82195 0.0
C1699 C 0.26694 0.75373 0.77933 0.0
C1700 C 0.26572 0.7378 0.74355 0.0
C1701 C 0.28587 0.71996 0.73319 0.0
C1702 C 0.30729 0.71725 0.76118 0.0
C1703 C 0.30835 0.73195 0.79971 0.0
C1704 C 0.28817 0.751 0.8083 0.0
H1705 H 0.98296 0.54588 0.08425 0.0
H1706 H 0.04067 0.58633 0.00386 0.0
H1707 H 0.03816 0.5496 0.95208 0.0
H1708 H 0.00721 0.48135 0.06879 0.0
H1709 H 0.97526 0.46491 0.06702 0.0
H1710 H 0.97907 0.4955 0.0964 0.0
H1711 H 0.94106 0.51753 0.05308 0.0
H1712 H 0.93656 0.48675 0.02443 0.0
H1713 H 0.94261 0.51733 0.99576 0.0
H1714 H 0.03361 0.50657 0.91321 0.0
H1715 H 0.02076 0.46341 0.88208 0.0
H1716 H 0.96485 0.45068 0.98583 0.0
C1717 C 0.99427 0.54747 0.05499 0.0
C1718 C 0.01188 0.56912 0.04799 0.0
C1719 C 0.02693 0.57006 0.00981 0.0
C1720 C 0.02581 0.54917 0.98033 0.0
C1721 C 0.0094 0.52748 0.98923 0.0
C1722 C 0.99336 0.52672 0.02501 0.0
C1723 C 0.97792 0.50068 0.02713 0.0
C1724 C 0.98531 0.48467 0.06721 0.0
C1725 C 0.94775 0.50589 0.02495 0.0
C1726 C 0.98795 0.48696 0.98714 0.0
C1727 C 0.00636 0.50269 0.96614 0.0
C1728 C 0.01896 0.49419 0.92906 0.0
C1729 C 0.01171 0.46945 0.91184 0.0
C1730 C 0.99176 0.45354 0.93137 0.0
C1731 C 0.98022 0.46226 0.97013 0.0
H1732 H 0.70592 0.72579 0.82249 0.0
H1733 H 0.68646 0.80602 0.7798 0.0
H1734 H 0.72827 0.80795 0.73973 0.0
H1735 H 0.77555 0.73419 0.83387 0.0
H1736 H 0.785 0.70242 0.81169 0.0
H1737 H 0.75307 0.7062 0.83731 0.0
H1738 H 0.72892 0.68977 0.76935 0.0
H1739 H 0.76083 0.68514 0.74407 0.0
H1740 H 0.73589 0.70575 0.71912 0.0
H1741 H 0.77354 0.80389 0.71074 0.0
H1742 H 0.81491 0.7893 0.67608 0.0
H1743 H 0.80479 0.7101 0.73011 0.0
C1744 C 0.71017 0.74349 0.8039 0.0
C1745 C 0.69284 0.76583 0.80482 0.0
C1746 C 0.69923 0.7886 0.77992 0.0
C1747 C 0.72317 0.79008 0.75731 0.0
C1748 C 0.74037 0.7684 0.75886 0.0
C1749 C 0.73385 0.7451 0.77997 0.0
C1750 C 0.75558 0.72428 0.77393 0.0
C1751 C 0.76803 0.71631 0.81676 0.0
C1752 C 0.74465 0.69979 0.7502 0.0
C1753 C 0.77532 0.73977 0.74664 0.0
C1754 C 0.76624 0.76537 0.73937 0.0
C1755 C 0.78073 0.78376 0.7156 0.0
C1756 C 0.80437 0.77531 0.69632 0.0
C1757 C 0.81309 0.74852 0.70011 0.0
C1758 C 0.79886 0.73078 0.727 0.0
H1759 H 0.7062 0.23193 0.17326 0.0
H1760 H 0.67117 0.29993 0.23797 0.0
H1761 H 0.70898 0.30065 0.28795 0.0
H1762 H 0.73431 0.19986 0.26954 0.0
H1763 H 0.76365 0.18891 0.24141 0.0
H1764 H 0.73251 0.19243 0.21351 0.0
H1765 H 0.75576 0.2239 0.15945 0.0
H1766 H 0.78675 0.22122 0.188 0.0
H1767 H 0.77225 0.25356 0.17833 0.0
H1768 H 0.7525 0.29691 0.32638 0.0
H1769 H 0.79512 0.28391 0.35925 0.0
H1770 H 0.80194 0.21806 0.27015 0.0
C1771 C 0.70599 0.2464 0.19881 0.0
C1772 C 0.68559 0.26579 0.20177 0.0
C1773 C 0.68645 0.28477 0.23516 0.0
C1774 C 0.70798 0.2855 0.26352 0.0
C1775 C 0.72844 0.26703 0.25827 0.0
C1776 C 0.72737 0.24744 0.22744 0.0
C1777 C 0.75226 0.23029 0.22824 0.0
C1778 C 0.74526 0.20115 0.23882 0.0
C1779 C 0.76766 0.23238 0.18599 0.0
C1780 C 0.76751 0.2434 0.2642 0.0
C1781 C 0.75351 0.26473 0.28074 0.0
C1782 C 0.76355 0.28009 0.31396 0.0
C1783 C 0.78796 0.27268 0.33216 0.0
C1784 C 0.80199 0.24995 0.31737 0.0
C1785 C 0.79188 0.23565 0.28208 0.0
H1786 H 0.02552 0.06564 0.99715 0.0
H1787 H 0.97364 0.04905 0.88982 0.0
H1788 H 0.96389 0.00469 0.91927 0.0
H1789 H 0.05288 0.0015 0.00959 0.0
H1790 H 0.05216 0.0009 0.06693 0.0
H1791 H 0.05477 0.03225 0.03912 0.0
H1792 H 0.01264 0.04999 0.07765 0.0
H1793 H 0.01046 0.01901 0.10658 0.0
H1794 H 0.98234 0.03065 0.07619 0.0
H1795 H 0.96315 0.9608 0.95543 0.0
H1796 H 0.96187 0.92336 0.006 0.0
H1797 H 0.01124 0.96821 0.0939 0.0
C1798 C 0.01156 0.05293 0.98048 0.0
C1799 C 0.00035 0.06098 0.94108 0.0
C1800 C 0.9823 0.04363 0.92017 0.0
C1801 C 0.97689 0.01816 0.93637 0.0
C1802 C 0.98918 0.01041 0.97408 0.0
C1803 C 0.00534 0.02753 0.99681 0.0
C1804 C 0.01495 0.01431 0.03762 0.0
C1805 C 0.04551 0.01212 0.03834 0.0
C1806 C 0.00447 0.02939 0.07683 0.0
C1807 C 0.00204 0.98697 0.03369 0.0
C1808 C 0.98769 0.98515 0.9963 0.0
C1809 C 0.97405 0.96207 0.98505 0.0
C1810 C 0.97367 0.94078 0.01387 0.0
C1811 C 0.98651 0.94274 0.05391 0.0
C1812 C 0.00167 0.96585 0.06327 0.0
H1813 H 0.53923 0.04807 0.52515 0.0
H1814 H 0.47301 0.04329 0.61408 0.0
H1815 H 0.45744 0.00231 0.57897 0.0
H1816 H 0.50194 0.02339 0.43228 0.0
H1817 H 0.53011 0.00522 0.41162 0.0
H1818 H 0.53534 0.035 0.44253 0.0
H1819 H 0.56567 0.00827 0.49381 0.0
H1820 H 0.56003 0.97827 0.46363 0.0
H1821 H 0.55271 0.9789 0.51978 0.0
H1822 H 0.45061 0.96055 0.53835 0.0
H1823 H 0.44872 0.92357 0.48713 0.0
H1824 H 0.5186 0.95503 0.42248 0.0
C1825 C 0.52113 0.03874 0.53666 0.0
C1826 C 0.50736 0.04898 0.57248 0.0
C1827 C 0.48391 0.03594 0.58673 0.0
C1828 C 0.47497 0.01252 0.56717 0.0
C1829 C 0.48956 0.0024 0.53313 0.0
C1830 C 0.5118 0.0153 0.51732 0.0
C1831 C 0.52364 1.00004 0.48008 0.0
C1832 C 0.52269 0.01692 0.4392 0.0
C1833 C 0.55221 0.99083 0.48994 0.0
C1834 C 0.50464 0.9765 0.47771 0.0
C1835 C 0.48532 0.97825 0.50896 0.0
C1836 C 0.4655 0.95904 0.51352 0.0
C1837 C 0.46471 0.93801 0.48434 0.0
C1838 C 0.48351 0.93633 0.45073 0.0
C1839 C 0.50414 0.95555 0.44807 0.0
loop_
_geom_bond_atom_site_label_1
_geom_bond_atom_site_label_2
_geom_bond_distance
_geom_bond_site_symmetry_2
_ccdc_geom_bond_type
C0 O16 1.251 . S
C0 O18 1.254 . S
N1 C2 1.333 . S
N1 C6 1.307 . S
N1 Zn7 2.020 . S
C2 N1 1.333 . S
C2 C3 1.379 . S
C2 H20 0.952 . S
C3 C2 1.379 . S
C3 C4 1.390 . S
C3 H30 0.949 . S
C4 C3 1.390 . S
C4 C5 1.357 . S
C5 C4 1.357 . S
C5 C6 1.370 . S
C5 H31 0.950 . S
C6 N1 1.307 . S
C6 C5 1.370 . S
C6 H24 0.948 . S
Zn7 N1 2.020 . S
Zn7 O16 2.039 . S
Zn7 O22 2.034 . S
Zn7 O26 2.025 . S
Zn7 O28 2.024 . S
C8 O27 1.246 . S
C8 O28 1.249 . S
N9 C10 1.307 . S
N9 C11 1.333 1_554 S
N9 Zn15 2.020 . S
C10 N9 1.307 . S
C10 C14 1.370 . S
C10 H21 0.948 . S
C11 N9 1.333 1_556 S
C11 C12 1.379 . S
C11 H19 0.952 . S
C12 C11 1.379 . S
C12 C13 1.390 . S
C12 H32 0.949 . S
C13 C12 1.390 . S
C13 C14 1.357 1_556 S
C14 C10 1.370 . S
C14 C13 1.357 1_554 S
C14 H33 0.950 . S
Zn15 N9 2.020 . S
Zn15 O18 2.025 . S
Zn15 O23 2.024 . S
Zn15 O25 2.039 . S
Zn15 O27 2.034 . S
O16 C0 1.251 . S
O16 Zn7 2.039 . S
C17 O22 1.246 . S
C17 O23 1.249 . S
O18 C0 1.254 . S
O18 Zn15 2.025 . S
H19 C11 0.952 . S
H20 C2 0.952 . S
H21 C10 0.948 . S
O22 Zn7 2.034 . S
O22 C17 1.246 . S
O23 Zn15 2.024 . S
O23 C17 1.249 . S
H24 C6 0.948 . S
O25 Zn15 2.039 . S
O25 C29 1.251 . S
O26 Zn7 2.025 . S
O26 C29 1.254 . S
O27 C8 1.246 . S
O27 Zn15 2.034 . S
O28 Zn7 2.024 . S
O28 C8 1.249 . S
C29 O25 1.251 . S
C29 O26 1.254 . S
H30 C3 0.949 . S
H31 C5 0.950 . S
H32 C12 0.949 . S
H33 C14 0.950 . S
C34 O50 1.251 . S
C34 O52 1.254 . S
N35 C36 1.333 . S
N35 C40 1.307 . S
N35 Zn41 2.020 . S
C36 N35 1.333 . S
C36 C37 1.379 . S
C36 H54 0.952 . S
C37 C36 1.379 . S
C37 C38 1.390 . S
C37 H64 0.949 . S
C38 C37 1.390 . S
C38 C39 1.357 . S
C39 C38 1.357 . S
C39 C40 1.370 . S
C39 H65 0.950 . S
C40 N35 1.307 . S
C40 C39 1.370 . S
C40 H58 0.948 . S
Zn41 N35 2.020 . S
Zn41 O50 2.039 . S
Zn41 O56 2.034 . S
Zn41 O60 2.025 . S
Zn41 O62 2.024 . S
C42 O61 1.246 . S
C42 O62 1.249 . S
N43 C44 1.307 . S
N43 C45 1.333 . S
N43 Zn49 2.020 . S
C44 N43 1.307 . S
C44 C48 1.370 . S
C44 H55 0.948 . S
C45 N43 1.333 . S
C45 C46 1.379 . S
C45 H53 0.952 . S
C46 C45 1.379 . S
C46 C47 1.390 . S
C46 H66 0.949 . S
C47 C46 1.390 . S
C47 C48 1.357 . S
C48 C44 1.370 . S
C48 C47 1.357 . S
C48 H67 0.950 . S
Zn49 N43 2.020 . S
Zn49 O52 2.025 . S
Zn49 O57 2.024 . S
Zn49 O59 2.039 . S
Zn49 O61 2.034 . S
O50 C34 1.251 . S
O50 Zn41 2.039 . S
C51 O56 1.246 . S
C51 O57 1.249 . S
O52 C34 1.254 . S
O52 Zn49 2.025 . S
H53 C45 0.952 . S
H54 C36 0.952 . S
H55 C44 0.948 . S
O56 Zn41 2.034 . S
O56 C51 1.246 . S
O57 Zn49 2.024 . S
O57 C51 1.249 . S
H58 C40 0.948 . S
O59 Zn49 2.039 . S
O59 C63 1.251 . S
O60 Zn41 2.025 . S
O60 C63 1.254 . S
O61 C42 1.246 . S
O61 Zn49 2.034 . S
O62 Zn41 2.024 . S
O62 C42 1.249 . S
C63 O59 1.251 . S
C63 O60 1.254 . S
H64 C37 0.949 . S
H65 C39 0.950 . S
H66 C46 0.949 . S
H67 C48 0.950 . S
C68 O84 1.251 . S
C68 O86 1.254 . S
N69 C70 1.333 . S
N69 C74 1.307 . S
N69 Zn75 2.020 . S
C70 N69 1.333 . S
C70 C71 1.379 . S
C70 H88 0.952 . S
C71 C70 1.379 . S
C71 C72 1.390 . S
C71 H98 0.949 . S
C72 C71 1.390 . S
C72 C73 1.357 . S
C73 C72 1.357 . S
C73 C74 1.370 . S
C73 H99 0.950 . S
C74 N69 1.307 . S
C74 C73 1.370 . S
C74 H92 0.948 . S
Zn75 N69 2.020 . S
Zn75 O84 2.039 . S
Zn75 O90 2.034 . S
Zn75 O94 2.025 . S
Zn75 O96 2.024 . S
C76 O95 1.246 . S
C76 O96 1.249 . S
N77 C78 1.307 . S
N77 C79 1.333 . S
N77 Zn83 2.020 . S
C78 N77 1.307 . S
C78 C82 1.370 . S
C78 H89 0.948 . S
C79 N77 1.333 . S
C79 C80 1.379 . S
C79 H87 0.952 . S
C80 C79 1.379 . S
C80 C81 1.390 . S
C80 H100 0.949 . S
C81 C80 1.390 . S
C81 C82 1.357 . S
C82 C78 1.370 . S
C82 C81 1.357 . S
C82 H101 0.950 . S
Zn83 N77 2.020 . S
Zn83 O86 2.025 . S
Zn83 O91 2.024 . S
Zn83 O93 2.039 . S
Zn83 O95 2.034 . S
O84 C68 1.251 . S
O84 Zn75 2.039 . S
C85 O90 1.246 . S
C85 O91 1.249 . S
O86 C68 1.254 . S
O86 Zn83 2.025 . S
H87 C79 0.952 . S
H88 C70 0.952 . S
H89 C78 0.948 . S
O90 Zn75 2.034 . S
O90 C85 1.246 . S
O91 Zn83 2.024 . S
O91 C85 1.249 . S
H92 C74 0.948 . S
O93 Zn83 2.039 . S
O93 C97 1.251 . S
O94 Zn75 2.025 . S
O94 C97 1.254 . S
O95 C76 1.246 . S
O95 Zn83 2.034 . S
O96 Zn75 2.024 . S
O96 C76 1.249 . S
C97 O93 1.251 . S
C97 O94 1.254 . S
H98 C71 0.949 . S
H99 C73 0.950 . S
H100 C80 0.949 . S
H101 C82 0.950 . S
C102 O118 1.251 . S
C102 O120 1.254 . S
N103 C104 1.333 . S
N103 C108 1.307 . S
N103 Zn109 2.020 . S
C104 N103 1.333 . S
C104 C105 1.379 . S
C104 H122 0.952 . S
C105 C104 1.379 . S
C105 C106 1.390 . S
C105 H132 0.949 1_556 S
C106 C105 1.390 . S
C106 C107 1.357 . S
C107 C106 1.357 . S
C107 C108 1.370 . S
C107 H133 0.950 . S
C108 N103 1.307 . S
C108 C107 1.370 . S
C108 H126 0.948 . S
Zn109 N103 2.020 . S
Zn109 O118 2.039 . S
Zn109 O124 2.034 . S
Zn109 O128 2.025 . S
Zn109 O130 2.024 . S
C110 O129 1.246 . S
C110 O130 1.249 . S
N111 C112 1.307 1_655 S
N111 C113 1.333 . S
N111 Zn117 2.020 . S
C112 N111 1.307 1_455 S
C112 C116 1.370 . S
C112 H123 0.948 . S
C113 N111 1.333 . S
C113 C114 1.379 1_655 S
C113 H121 0.952 . S
C114 C113 1.379 1_455 S
C114 C115 1.390 . S
C114 H134 0.949 . S
C115 C114 1.390 . S
C115 C116 1.357 . S
C116 C112 1.370 . S
C116 C115 1.357 . S
C116 H135 0.950 . S
Zn117 N111 2.020 . S
Zn117 O120 2.025 . S
Zn117 O125 2.024 . S
Zn117 O127 2.039 . S
Zn117 O129 2.034 . S
O118 C102 1.251 . S
O118 Zn109 2.039 . S
C119 O124 1.246 . S
C119 O125 1.249 . S
O120 C102 1.254 . S
O120 Zn117 2.025 . S
H121 C113 0.952 . S
H122 C104 0.952 . S
H123 C112 0.948 . S
O124 Zn109 2.034 . S
O124 C119 1.246 . S
O125 Zn117 2.024 . S
O125 C119 1.249 . S
H126 C108 0.948 . S
O127 Zn117 2.039 . S
O127 C131 1.251 . S
O128 Zn109 2.025 . S
O128 C131 1.254 . S
O129 C110 1.246 . S
O129 Zn117 2.034 . S
O130 Zn109 2.024 . S
O130 C110 1.249 . S
C131 O127 1.251 . S
C131 O128 1.254 . S
H132 C105 0.949 1_554 S
H133 C107 0.950 . S
H134 C114 0.949 . S
H135 C116 0.950 . S
C136 O152 1.251 . S
C136 O154 1.254 . S
N137 C138 1.333 1_556 S
N137 C142 1.307 . S
N137 Zn143 2.020 . S
C138 N137 1.333 1_554 S
C138 C139 1.379 . S
C138 H156 0.952 . S
C139 C138 1.379 . S
C139 C140 1.390 . S
C139 H166 0.949 . S
C140 C139 1.390 . S
C140 C141 1.357 1_554 S
C141 C140 1.357 1_556 S
C141 C142 1.370 . S
C141 H167 0.950 . S
C142 N137 1.307 . S
C142 C141 1.370 . S
C142 H160 0.948 . S
Zn143 N137 2.020 . S
Zn143 O152 2.039 . S
Zn143 O158 2.034 . S
Zn143 O162 2.025 . S
Zn143 O164 2.024 . S
C144 O163 1.246 . S
C144 O164 1.249 . S
N145 C146 1.307 . S
N145 C147 1.333 . S
N145 Zn151 2.020 . S
C146 N145 1.307 . S
C146 C150 1.370 . S
C146 H157 0.948 . S
C147 N145 1.333 . S
C147 C148 1.379 . S
C147 H155 0.952 . S
C148 C147 1.379 . S
C148 C149 1.390 . S
C148 H168 0.949 . S
C149 C148 1.390 . S
C149 C150 1.357 . S
C150 C146 1.370 . S
C150 C149 1.357 . S
C150 H169 0.950 . S
Zn151 N145 2.020 . S
Zn151 O154 2.025 . S
Zn151 O159 2.024 . S
Zn151 O161 2.039 . S
Zn151 O163 2.034 . S
O152 C136 1.251 . S
O152 Zn143 2.039 . S
C153 O158 1.246 . S
C153 O159 1.249 . S
O154 C136 1.254 . S
O154 Zn151 2.025 . S
H155 C147 0.952 . S
H156 C138 0.952 . S
H157 C146 0.948 . S
O158 Zn143 2.034 . S
O158 C153 1.246 . S
O159 Zn151 2.024 . S
O159 C153 1.249 . S
H160 C142 0.948 . S
O161 Zn151 2.039 . S
O161 C165 1.251 . S
O162 Zn143 2.025 . S
O162 C165 1.254 . S
O163 C144 1.246 . S
O163 Zn151 2.034 . S
O164 Zn143 2.024 . S
O164 C144 1.249 . S
C165 O161 1.251 . S
C165 O162 1.254 . S
H166 C139 0.949 . S
H167 C141 0.950 . S
H168 C148 0.949 . S
H169 C150 0.950 . S
C170 O186 1.251 . S
C170 O188 1.254 . S
N171 C172 1.333 . S
N171 C176 1.307 . S
N171 Zn177 2.020 . S
C172 N171 1.333 . S
C172 C173 1.379 . S
C172 H190 0.952 . S
C173 C172 1.379 . S
C173 C174 1.390 . S
C173 H200 0.949 . S
C174 C173 1.390 . S
C174 C175 1.357 . S
C175 C174 1.357 . S
C175 C176 1.370 . S
C175 H201 0.950 . S
C176 N171 1.307 . S
C176 C175 1.370 . S
C176 H194 0.948 . S
Zn177 N171 2.020 . S
Zn177 O186 2.039 . S
Zn177 O192 2.034 . S
Zn177 O196 2.025 . S
Zn177 O198 2.024 . S
C178 O197 1.246 . S
C178 O198 1.249 . S
N179 C180 1.307 . S
N179 C181 1.333 . S
N179 Zn185 2.020 . S
C180 N179 1.307 . S
C180 C184 1.370 . S
C180 H191 0.948 . S
C181 N179 1.333 . S
C181 C182 1.379 . S
C181 H189 0.952 . S
C182 C181 1.379 . S
C182 C183 1.390 . S
C182 H202 0.949 . S
C183 C182 1.390 . S
C183 C184 1.357 . S
C184 C180 1.370 . S
C184 C183 1.357 . S
C184 H203 0.950 . S
Zn185 N179 2.020 . S
Zn185 O188 2.025 . S
Zn185 O193 2.024 . S
Zn185 O195 2.039 . S
Zn185 O197 2.034 . S
O186 C170 1.251 . S
O186 Zn177 2.039 . S
C187 O192 1.246 . S
C187 O193 1.249 . S
O188 C170 1.254 . S
O188 Zn185 2.025 . S
H189 C181 0.952 . S
H190 C172 0.952 . S
H191 C180 0.948 . S
O192 Zn177 2.034 . S
O192 C187 1.246 . S
O193 Zn185 2.024 . S
O193 C187 1.249 . S
H194 C176 0.948 . S
O195 Zn185 2.039 . S
O195 C199 1.251 . S
O196 Zn177 2.025 . S
O196 C199 1.254 . S
O197 C178 1.246 . S
O197 Zn185 2.034 . S
O198 Zn177 2.024 . S
O198 C178 1.249 . S
C199 O195 1.251 . S
C199 O196 1.254 . S
H200 C173 0.949 . S
H201 C175 0.950 . S
H202 C182 0.949 . S
H203 C184 0.950 . S
C204 O220 1.251 . S
C204 O222 1.254 . S
N205 C206 1.333 . S
N205 C210 1.307 . S
N205 Zn211 2.020 . S
C206 N205 1.333 . S
C206 C207 1.379 . S
C206 H224 0.952 . S
C207 C206 1.379 . S
C207 C208 1.390 . S
C207 H234 0.949 . S
C208 C207 1.390 . S
C208 C209 1.357 . S
C209 C208 1.357 . S
C209 C210 1.370 . S
C209 H235 0.950 . S
C210 N205 1.307 . S
C210 C209 1.370 . S
C210 H228 0.948 . S
Zn211 N205 2.020 . S
Zn211 O220 2.039 . S
Zn211 O226 2.034 . S
Zn211 O230 2.025 . S
Zn211 O232 2.024 . S
C212 O231 1.246 . S
C212 O232 1.249 . S
N213 C214 1.307 . S
N213 C215 1.333 . S
N213 Zn219 2.020 . S
C214 N213 1.307 . S
C214 C218 1.370 . S
C214 H225 0.948 . S
C215 N213 1.333 . S
C215 C216 1.379 . S
C215 H223 0.952 . S
C216 C215 1.379 . S
C216 C217 1.390 . S
C216 H236 0.949 . S
C217 C216 1.390 . S
C217 C218 1.357 . S
C218 C214 1.370 . S
C218 C217 1.357 . S
C218 H237 0.950 . S
Zn219 N213 2.020 . S
Zn219 O222 2.025 . S
Zn219 O227 2.024 . S
Zn219 O229 2.039 . S
Zn219 O231 2.034 . S
O220 C204 1.251 . S
O220 Zn211 2.039 . S
C221 O226 1.246 . S
C221 O227 1.249 . S
O222 C204 1.254 . S
O222 Zn219 2.025 . S
H223 C215 0.952 . S
H224 C206 0.952 . S
H225 C214 0.948 . S
O226 Zn211 2.034 . S
O226 C221 1.246 . S
O227 Zn219 2.024 . S
O227 C221 1.249 . S
H228 C210 0.948 . S
O229 Zn219 2.039 . S
O229 C233 1.251 . S
O230 Zn211 2.025 . S
O230 C233 1.254 . S
O231 C212 1.246 . S
O231 Zn219 2.034 . S
O232 Zn211 2.024 . S
O232 C212 1.249 . S
C233 O229 1.251 . S
C233 O230 1.254 . S
H234 C207 0.949 . S
H235 C209 0.950 . S
H236 C216 0.949 . S
H237 C218 0.950 . S
C238 O254 1.251 . S
C238 O256 1.254 . S
N239 C240 1.333 . S
N239 C244 1.307 1_455 S
N239 Zn245 2.020 . S
C240 N239 1.333 . S
C240 C241 1.379 1_455 S
C240 H258 0.952 . S
C241 C240 1.379 1_655 S
C241 C242 1.390 . S
C241 H268 0.949 . S
C242 C241 1.390 . S
C242 C243 1.357 . S
C243 C242 1.357 . S
C243 C244 1.370 . S
C243 H269 0.950 . S
C244 N239 1.307 1_655 S
C244 C243 1.370 . S
C244 H262 0.948 . S
Zn245 N239 2.020 . S
Zn245 O254 2.039 . S
Zn245 O260 2.034 . S
Zn245 O264 2.025 . S
Zn245 O266 2.024 . S
C246 O265 1.246 . S
C246 O266 1.249 . S
N247 C248 1.307 . S
N247 C249 1.333 . S
N247 Zn253 2.020 . S
C248 N247 1.307 . S
C248 C252 1.370 . S
C248 H259 0.948 . S
C249 N247 1.333 . S
C249 C250 1.379 . S
C249 H257 0.952 . S
C250 C249 1.379 . S
C250 C251 1.390 . S
C250 H270 0.949 1_554 S
C251 C250 1.390 . S
C251 C252 1.357 . S
C252 C248 1.370 . S
C252 C251 1.357 . S
C252 H271 0.950 . S
Zn253 N247 2.020 . S
Zn253 O256 2.025 . S
Zn253 O261 2.024 . S
Zn253 O263 2.039 . S
Zn253 O265 2.034 . S
O254 C238 1.251 . S
O254 Zn245 2.039 . S
C255 O260 1.246 . S
C255 O261 1.249 . S
O256 C238 1.254 . S
O256 Zn253 2.025 . S
H257 C249 0.952 . S
H258 C240 0.952 . S
H259 C248 0.948 . S
O260 Zn245 2.034 . S
O260 C255 1.246 . S
O261 Zn253 2.024 . S
O261 C255 1.249 . S
H262 C244 0.948 . S
O263 Zn253 2.039 . S
O263 C267 1.251 . S
O264 Zn245 2.025 . S
O264 C267 1.254 . S
O265 C246 1.246 . S
O265 Zn253 2.034 . S
O266 Zn245 2.024 . S
O266 C246 1.249 . S
C267 O263 1.251 . S
C267 O264 1.254 . S
H268 C241 0.949 . S
H269 C243 0.950 . S
H270 C250 0.949 1_556 S
H271 C252 0.950 . S
C272 O288 1.251 . S
C272 O290 1.254 . S
N273 C274 1.333 . S
N273 C278 1.307 . S
N273 Zn279 2.020 . S
C274 N273 1.333 . S
C274 C275 1.379 . S
C274 H292 0.952 . S
C275 C274 1.379 . S
C275 C276 1.390 . S
C275 H302 0.949 . S
C276 C275 1.390 . S
C276 C277 1.357 . S
C277 C276 1.357 . S
C277 C278 1.370 . S
C277 H303 0.950 . S
C278 N273 1.307 . S
C278 C277 1.370 . S
C278 H296 0.948 . S
Zn279 N273 2.020 . S
Zn279 O288 2.039 . S
Zn279 O294 2.034 . S
Zn279 O298 2.025 . S
Zn279 O300 2.024 . S
C280 O299 1.246 . S
C280 O300 1.249 . S
N281 C282 1.307 . S
N281 C283 1.333 . S
N281 Zn287 2.020 . S
C282 N281 1.307 . S
C282 C286 1.370 . S
C282 H293 0.948 . S
C283 N281 1.333 . S
C283 C284 1.379 . S
C283 H291 0.952 . S
C284 C283 1.379 . S
C284 C285 1.390 . S
C284 H304 0.949 . S
C285 C284 1.390 . S
C285 C286 1.357 . S
C286 C282 1.370 . S
C286 C285 1.357 . S
C286 H305 0.950 . S
Zn287 N281 2.020 . S
Zn287 O290 2.025 . S
Zn287 O295 2.024 . S
Zn287 O297 2.039 . S
Zn287 O299 2.034 . S
O288 C272 1.251 . S
O288 Zn279 2.039 . S
C289 O294 1.246 . S
C289 O295 1.249 . S
O290 C272 1.254 . S
O290 Zn287 2.025 . S
H291 C283 0.952 . S
H292 C274 0.952 . S
H293 C282 0.948 . S
O294 Zn279 2.034 . S
O294 C289 1.246 . S
O295 Zn287 2.024 . S
O295 C289 1.249 . S
H296 C278 0.948 . S
O297 Zn287 2.039 . S
O297 C301 1.251 . S
O298 Zn279 2.025 . S
O298 C301 1.254 . S
O299 C280 1.246 . S
O299 Zn287 2.034 . S
O300 Zn279 2.024 . S
O300 C280 1.249 . S
C301 O297 1.251 . S
C301 O298 1.254 . S
H302 C275 0.949 . S
H303 C277 0.950 . S
H304 C284 0.949 . S
H305 C286 0.950 . S
C306 O322 1.251 . S
C306 O324 1.254 . S
N307 C308 1.333 . S
N307 C312 1.307 . S
N307 Zn313 2.020 . S
C308 N307 1.333 . S
C308 C309 1.379 . S
C308 H326 0.952 . S
C309 C308 1.379 . S
C309 C310 1.390 . S
C309 H336 0.949 1_556 S
C310 C309 1.390 . S
C310 C311 1.357 . S
C311 C310 1.357 . S
C311 C312 1.370 . S
C311 H337 0.950 . S
C312 N307 1.307 . S
C312 C311 1.370 . S
C312 H330 0.948 . S
Zn313 N307 2.020 . S
Zn313 O322 2.039 . S
Zn313 O328 2.034 . S
Zn313 O332 2.025 . S
Zn313 O334 2.024 . S
C314 O333 1.246 . S
C314 O334 1.249 . S
N315 C316 1.307 1_455 S
N315 C317 1.333 . S
N315 Zn321 2.020 . S
C316 N315 1.307 1_655 S
C316 C320 1.370 . S
C316 H327 0.948 . S
C317 N315 1.333 . S
C317 C318 1.379 1_455 S
C317 H325 0.952 . S
C318 C317 1.379 1_655 S
C318 C319 1.390 . S
C318 H338 0.949 . S
C319 C318 1.390 . S
C319 C320 1.357 . S
C320 C316 1.370 . S
C320 C319 1.357 . S
C320 H339 0.950 . S
Zn321 N315 2.020 . S
Zn321 O324 2.025 . S
Zn321 O329 2.024 . S
Zn321 O331 2.039 . S
Zn321 O333 2.034 . S
O322 C306 1.251 . S
O322 Zn313 2.039 . S
C323 O328 1.246 . S
C323 O329 1.249 . S
O324 C306 1.254 . S
O324 Zn321 2.025 . S
H325 C317 0.952 . S
H326 C308 0.952 . S
H327 C316 0.948 . S
O328 Zn313 2.034 . S
O328 C323 1.246 . S
O329 Zn321 2.024 . S
O329 C323 1.249 . S
H330 C312 0.948 . S
O331 Zn321 2.039 . S
O331 C335 1.251 . S
O332 Zn313 2.025 . S
O332 C335 1.254 . S
O333 C314 1.246 . S
O333 Zn321 2.034 . S
O334 Zn313 2.024 . S
O334 C314 1.249 . S
C335 O331 1.251 . S
C335 O332 1.254 . S
H336 C309 0.949 1_554 S
H337 C311 0.950 . S
H338 C318 0.949 . S
H339 C320 0.950 . S
C340 O356 1.251 . S
C340 O358 1.254 . S
N341 C342 1.333 . S
N341 C346 1.307 . S
N341 Zn347 2.020 . S
C342 N341 1.333 . S
C342 C343 1.379 . S
C342 H360 0.952 . S
C343 C342 1.379 . S
C343 C344 1.390 . S
C343 H370 0.949 . S
C344 C343 1.390 . S
C344 C345 1.357 . S
C345 C344 1.357 . S
C345 C346 1.370 . S
C345 H371 0.950 . S
C346 N341 1.307 . S
C346 C345 1.370 . S
C346 H364 0.948 . S
Zn347 N341 2.020 . S
Zn347 O356 2.039 . S
Zn347 O362 2.034 . S
Zn347 O366 2.025 . S
Zn347 O368 2.024 . S
C348 O367 1.246 . S
C348 O368 1.249 . S
N349 C350 1.307 . S
N349 C351 1.333 1_554 S
N349 Zn355 2.020 . S
C350 N349 1.307 . S
C350 C354 1.370 . S
C350 H361 0.948 . S
C351 N349 1.333 1_556 S
C351 C352 1.379 . S
C351 H359 0.952 . S
C352 C351 1.379 . S
C352 C353 1.390 . S
C352 H372 0.949 . S
C353 C352 1.390 . S
C353 C354 1.357 1_556 S
C354 C350 1.370 . S
C354 C353 1.357 1_554 S
C354 H373 0.950 . S
Zn355 N349 2.020 . S
Zn355 O358 2.025 . S
Zn355 O363 2.024 . S
Zn355 O365 2.039 . S
Zn355 O367 2.034 . S
O356 C340 1.251 . S
O356 Zn347 2.039 . S
C357 O362 1.246 . S
C357 O363 1.249 . S
O358 C340 1.254 . S
O358 Zn355 2.025 . S
H359 C351 0.952 . S
H360 C342 0.952 . S
H361 C350 0.948 . S
O362 Zn347 2.034 . S
O362 C357 1.246 . S
O363 Zn355 2.024 . S
O363 C357 1.249 . S
H364 C346 0.948 . S
O365 Zn355 2.039 . S
O365 C369 1.251 . S
O366 Zn347 2.025 . S
O366 C369 1.254 . S
O367 C348 1.246 . S
O367 Zn355 2.034 . S
O368 Zn347 2.024 . S
O368 C348 1.249 . S
C369 O365 1.251 . S
C369 O366 1.254 . S
H370 C343 0.949 . S
H371 C345 0.950 . S
H372 C352 0.949 . S
H373 C354 0.950 . S
C374 O390 1.251 . S
C374 O392 1.254 . S
N375 C376 1.333 . S
N375 C380 1.307 . S
N375 Zn381 2.020 . S
C376 N375 1.333 . S
C376 C377 1.379 . S
C376 H394 0.952 . S
C377 C376 1.379 . S
C377 C378 1.390 . S
C377 H404 0.949 . S
C378 C377 1.390 . S
C378 C379 1.357 . S
C379 C378 1.357 . S
C379 C380 1.370 . S
C379 H405 0.950 . S
C380 N375 1.307 . S
C380 C379 1.370 . S
C380 H398 0.948 . S
Zn381 N375 2.020 . S
Zn381 O390 2.039 . S
Zn381 O396 2.034 . S
Zn381 O400 2.025 . S
Zn381 O402 2.024 . S
C382 O401 1.246 . S
C382 O402 1.249 . S
N383 C384 1.307 . S
N383 C385 1.333 . S
N383 Zn389 2.020 . S
C384 N383 1.307 . S
C384 C388 1.370 . S
C384 H395 0.948 . S
C385 N383 1.333 . S
C385 C386 1.379 . S
C385 H393 0.952 . S
C386 C385 1.379 . S
C386 C387 1.390 . S
C386 H406 0.949 . S
C387 C386 1.390 . S
C387 C388 1.357 . S
C388 C384 1.370 . S
C388 C387 1.357 . S
C388 H407 0.950 . S
Zn389 N383 2.020 . S
Zn389 O392 2.025 . S
Zn389 O397 2.024 . S
Zn389 O399 2.039 . S
Zn389 O401 2.034 . S
O390 C374 1.251 . S
O390 Zn381 2.039 . S
C391 O396 1.246 . S
C391 O397 1.249 . S
O392 C374 1.254 . S
O392 Zn389 2.025 . S
H393 C385 0.952 . S
H394 C376 0.952 . S
H395 C384 0.948 . S
O396 Zn381 2.034 . S
O396 C391 1.246 . S
O397 Zn389 2.024 . S
O397 C391 1.249 . S
H398 C380 0.948 . S
O399 Zn389 2.039 . S
O399 C403 1.251 . S
O400 Zn381 2.025 . S
O400 C403 1.254 . S
O401 C382 1.246 . S
O401 Zn389 2.034 . S
O402 Zn381 2.024 . S
O402 C382 1.249 . S
C403 O399 1.251 . S
C403 O400 1.254 . S
H404 C377 0.949 . S
H405 C379 0.950 . S
H406 C386 0.949 . S
H407 C388 0.950 . S
C408 O424 1.251 . S
C408 O426 1.254 . S
N409 C410 1.333 . S
N409 C414 1.307 . S
N409 Zn415 2.020 . S
C410 N409 1.333 . S
C410 C411 1.379 . S
C410 H428 0.952 . S
C411 C410 1.379 . S
C411 C412 1.390 . S
C411 H438 0.949 . S
C412 C411 1.390 . S
C412 C413 1.357 . S
C413 C412 1.357 . S
C413 C414 1.370 . S
C413 H439 0.950 . S
C414 N409 1.307 . S
C414 C413 1.370 . S
C414 H432 0.948 . S
Zn415 N409 2.020 . S
Zn415 O424 2.039 . S
Zn415 O430 2.034 . S
Zn415 O434 2.025 . S
Zn415 O436 2.024 . S
C416 O435 1.246 . S
C416 O436 1.249 . S
N417 C418 1.307 . S
N417 C419 1.333 . S
N417 Zn423 2.020 . S
C418 N417 1.307 . S
C418 C422 1.370 . S
C418 H429 0.948 . S
C419 N417 1.333 . S
C419 C420 1.379 . S
C419 H427 0.952 . S
C420 C419 1.379 . S
C420 C421 1.390 . S
C420 H440 0.949 . S
C421 C420 1.390 . S
C421 C422 1.357 . S
C422 C418 1.370 . S
C422 C421 1.357 . S
C422 H441 0.950 . S
Zn423 N417 2.020 . S
Zn423 O426 2.025 . S
Zn423 O431 2.024 . S
Zn423 O433 2.039 . S
Zn423 O435 2.034 . S
O424 C408 1.251 . S
O424 Zn415 2.039 . S
C425 O430 1.246 . S
C425 O431 1.249 . S
O426 C408 1.254 . S
O426 Zn423 2.025 . S
H427 C419 0.952 . S
H428 C410 0.952 . S
H429 C418 0.948 . S
O430 Zn415 2.034 . S
O430 C425 1.246 . S
O431 Zn423 2.024 . S
O431 C425 1.249 . S
H432 C414 0.948 . S
O433 Zn423 2.039 . S
O433 C437 1.251 . S
O434 Zn415 2.025 . S
O434 C437 1.254 . S
O435 C416 1.246 . S
O435 Zn423 2.034 . S
O436 Zn415 2.024 . S
O436 C416 1.249 . S
C437 O433 1.251 . S
C437 O434 1.254 . S
H438 C411 0.949 . S
H439 C413 0.950 . S
H440 C420 0.949 . S
H441 C422 0.950 . S
C442 O458 1.251 . S
C442 O460 1.254 . S
N443 C444 1.333 . S
N443 C448 1.307 1_655 S
N443 Zn449 2.020 . S
C444 N443 1.333 . S
C444 C445 1.379 1_655 S
C444 H462 0.952 . S
C445 C444 1.379 1_455 S
C445 C446 1.390 . S
C445 H472 0.949 . S
C446 C445 1.390 . S
C446 C447 1.357 . S
C447 C446 1.357 . S
C447 C448 1.370 . S
C447 H473 0.950 . S
C448 N443 1.307 1_455 S
C448 C447 1.370 . S
C448 H466 0.948 . S
Zn449 N443 2.020 . S
Zn449 O458 2.039 . S
Zn449 O464 2.034 . S
Zn449 O468 2.025 . S
Zn449 O470 2.024 . S
C450 O469 1.246 . S
C450 O470 1.249 . S
N451 C452 1.307 . S
N451 C453 1.333 . S
N451 Zn457 2.020 . S
C452 N451 1.307 . S
C452 C456 1.370 . S
C452 H463 0.948 . S
C453 N451 1.333 . S
C453 C454 1.379 . S
C453 H461 0.952 . S
C454 C453 1.379 . S
C454 C455 1.390 . S
C454 H474 0.949 1_554 S
C455 C454 1.390 . S
C455 C456 1.357 . S
C456 C452 1.370 . S
C456 C455 1.357 . S
C456 H475 0.950 . S
Zn457 N451 2.020 . S
Zn457 O460 2.025 . S
Zn457 O465 2.024 . S
Zn457 O467 2.039 . S
Zn457 O469 2.034 . S
O458 C442 1.251 . S
O458 Zn449 2.039 . S
C459 O464 1.246 . S
C459 O465 1.249 . S
O460 C442 1.254 . S
O460 Zn457 2.025 . S
H461 C453 0.952 . S
H462 C444 0.952 . S
H463 C452 0.948 . S
O464 Zn449 2.034 . S
O464 C459 1.246 . S
O465 Zn457 2.024 . S
O465 C459 1.249 . S
H466 C448 0.948 . S
O467 Zn457 2.039 . S
O467 C471 1.251 . S
O468 Zn449 2.025 . S
O468 C471 1.254 . S
O469 C450 1.246 . S
O469 Zn457 2.034 . S
O470 Zn449 2.024 . S
O470 C450 1.249 . S
C471 O467 1.251 . S
C471 O468 1.254 . S
H472 C445 0.949 . S
H473 C447 0.950 . S
H474 C454 0.949 1_556 S
H475 C456 0.950 . S
C476 O492 1.251 . S
C476 O494 1.254 . S
N477 C478 1.333 1_556 S
N477 C482 1.307 . S
N477 Zn483 2.020 . S
C478 N477 1.333 1_554 S
C478 C479 1.379 . S
C478 H496 0.952 . S
C479 C478 1.379 . S
C479 C480 1.390 . S
C479 H506 0.949 . S
C480 C479 1.390 . S
C480 C481 1.357 1_554 S
C481 C480 1.357 1_556 S
C481 C482 1.370 . S
C481 H507 0.950 . S
C482 N477 1.307 . S
C482 C481 1.370 . S
C482 H500 0.948 . S
Zn483 N477 2.020 . S
Zn483 O492 2.039 . S
Zn483 O498 2.034 . S
Zn483 O502 2.025 . S
Zn483 O504 2.024 . S
C484 O503 1.246 . S
C484 O504 1.249 . S
N485 C486 1.307 . S
N485 C487 1.333 . S
N485 Zn491 2.020 . S
C486 N485 1.307 . S
C486 C490 1.370 . S
C486 H497 0.948 . S
C487 N485 1.333 . S
C487 C488 1.379 . S
C487 H495 0.952 . S
C488 C487 1.379 . S
C488 C489 1.390 . S
C488 H508 0.949 . S
C489 C488 1.390 . S
C489 C490 1.357 . S
C490 C486 1.370 . S
C490 C489 1.357 . S
C490 H509 0.950 . S
Zn491 N485 2.020 . S
Zn491 O494 2.025 . S
Zn491 O499 2.024 . S
Zn491 O501 2.039 . S
Zn491 O503 2.034 . S
O492 C476 1.251 . S
O492 Zn483 2.039 . S
C493 O498 1.246 . S
C493 O499 1.249 . S
O494 C476 1.254 . S
O494 Zn491 2.025 . S
H495 C487 0.952 . S
H496 C478 0.952 . S
H497 C486 0.948 . S
O498 Zn483 2.034 . S
O498 C493 1.246 . S
O499 Zn491 2.024 . S
O499 C493 1.249 . S
H500 C482 0.948 . S
O501 Zn491 2.039 . S
O501 C505 1.251 . S
O502 Zn483 2.025 . S
O502 C505 1.254 . S
O503 C484 1.246 . S
O503 Zn491 2.034 . S
O504 Zn483 2.024 . S
O504 C484 1.249 . S
C505 O501 1.251 . S
C505 O502 1.254 . S
H506 C479 0.949 . S
H507 C481 0.950 . S
H508 C488 0.949 . S
H509 C490 0.950 . S
C510 O526 1.251 . S
C510 O528 1.254 . S
N511 C512 1.333 . S
N511 C516 1.307 . S
N511 Zn517 2.020 . S
C512 N511 1.333 . S
C512 C513 1.379 . S
C512 H530 0.952 . S
C513 C512 1.379 . S
C513 C514 1.390 . S
C513 H540 0.949 . S
C514 C513 1.390 . S
C514 C515 1.357 . S
C515 C514 1.357 . S
C515 C516 1.370 . S
C515 H541 0.950 . S
C516 N511 1.307 . S
C516 C515 1.370 . S
C516 H534 0.948 . S
Zn517 N511 2.020 . S
Zn517 O526 2.039 . S
Zn517 O532 2.034 . S
Zn517 O536 2.025 . S
Zn517 O538 2.024 . S
C518 O537 1.246 . S
C518 O538 1.249 . S
N519 C520 1.307 . S
N519 C521 1.333 . S
N519 Zn525 2.020 . S
C520 N519 1.307 . S
C520 C524 1.370 . S
C520 H531 0.948 . S
C521 N519 1.333 . S
C521 C522 1.379 . S
C521 H529 0.952 . S
C522 C521 1.379 . S
C522 C523 1.390 . S
C522 H542 0.949 . S
C523 C522 1.390 . S
C523 C524 1.357 . S
C524 C520 1.370 . S
C524 C523 1.357 . S
C524 H543 0.950 . S
Zn525 N519 2.020 . S
Zn525 O528 2.025 . S
Zn525 O533 2.024 . S
Zn525 O535 2.039 . S
Zn525 O537 2.034 . S
O526 C510 1.251 . S
O526 Zn517 2.039 . S
C527 O532 1.246 . S
C527 O533 1.249 . S
O528 C510 1.254 . S
O528 Zn525 2.025 . S
H529 C521 0.952 . S
H530 C512 0.952 . S
H531 C520 0.948 . S
O532 Zn517 2.034 . S
O532 C527 1.246 . S
O533 Zn525 2.024 . S
O533 C527 1.249 . S
H534 C516 0.948 . S
O535 Zn525 2.039 . S
O535 C539 1.251 . S
O536 Zn517 2.025 . S
O536 C539 1.254 . S
O537 C518 1.246 . S
O537 Zn525 2.034 . S
O538 Zn517 2.024 . S
O538 C518 1.249 . S
C539 O535 1.251 . S
C539 O536 1.254 . S
H540 C513 0.949 . S
H541 C515 0.950 . S
H542 C522 0.949 . S
H543 C524 0.950 . S
H544 C556 0.930 . S
H545 C558 0.930 . S
H546 C559 0.930 . S
H547 C563 0.959 . S
H548 C563 0.959 . S
H549 C563 0.961 . S
H550 C564 0.960 . S
H551 C564 0.961 . S
H552 C564 0.959 . S
H553 C567 0.929 . S
H554 C568 0.931 . S
H555 C570 0.930 . S
C556 H544 0.930 . S
C556 C557 1.399 . S
C556 C561 1.399 . S
C557 C556 1.399 . S
C557 C558 1.376 . S
C558 H545 0.930 . S
C558 C557 1.376 . S
C558 C559 1.388 . S
C559 H546 0.930 . S
C559 C558 1.388 . S
C559 C560 1.390 . S
C560 C559 1.390 . S
C560 C561 1.394 . S
C560 C566 1.465 . S
C561 C556 1.399 . S
C561 C560 1.394 . S
C561 C562 1.516 . S
C562 C561 1.516 . S
C562 C563 1.502 . S
C562 C564 1.561 . S
C562 C565 1.526 . S
C563 H547 0.959 . S
C563 H548 0.959 . S
C563 H549 0.961 . S
C563 C562 1.502 . S
C564 H550 0.960 . S
C564 H551 0.961 . S
C564 H552 0.959 . S
C564 C562 1.561 . S
C565 C562 1.526 . S
C565 C566 1.396 . S
C565 C570 1.390 . S
C566 C560 1.465 . S
C566 C565 1.396 . S
C566 C567 1.399 . S
C567 H553 0.929 . S
C567 C566 1.399 . S
C567 C568 1.385 . S
C568 H554 0.931 . S
C568 C567 1.385 . S
C568 C569 1.389 . S
C569 C568 1.389 . S
C569 C570 1.387 . S
C570 H555 0.930 . S
C570 C565 1.390 . S
C570 C569 1.387 . S
H571 C583 0.930 . S
H572 C585 0.930 . S
H573 C586 0.930 . S
H574 C590 0.959 . S
H575 C590 0.959 . S
H576 C590 0.961 . S
H577 C591 0.960 . S
H578 C591 0.961 . S
H579 C591 0.959 . S
H580 C594 0.929 . S
H581 C595 0.931 . S
H582 C597 0.930 . S
C583 H571 0.930 . S
C583 C584 1.399 . S
C583 C588 1.399 . S
C584 C583 1.399 . S
C584 C585 1.376 . S
C585 H572 0.930 . S
C585 C584 1.376 . S
C585 C586 1.388 . S
C586 H573 0.930 . S
C586 C585 1.388 . S
C586 C587 1.390 . S
C587 C586 1.390 . S
C587 C588 1.394 . S
C587 C593 1.465 . S
C588 C583 1.399 . S
C588 C587 1.394 . S
C588 C589 1.516 . S
C589 C588 1.516 . S
C589 C590 1.502 . S
C589 C591 1.561 . S
C589 C592 1.526 . S
C590 H574 0.959 . S
C590 H575 0.959 . S
C590 H576 0.961 . S
C590 C589 1.502 . S
C591 H577 0.960 . S
C591 H578 0.961 . S
C591 H579 0.959 . S
C591 C589 1.561 . S
C592 C589 1.526 . S
C592 C593 1.396 . S
C592 C597 1.390 . S
C593 C587 1.465 . S
C593 C592 1.396 . S
C593 C594 1.399 . S
C594 H580 0.929 . S
C594 C593 1.399 . S
C594 C595 1.385 . S
C595 H581 0.931 . S
C595 C594 1.385 . S
C595 C596 1.389 . S
C596 C595 1.389 . S
C596 C597 1.387 . S
C597 H582 0.930 . S
C597 C592 1.390 . S
C597 C596 1.387 . S
H598 C610 0.930 . S
H599 C612 0.930 . S
H600 C613 0.930 . S
H601 C617 0.959 . S
H602 C617 0.959 . S
H603 C617 0.961 . S
H604 C618 0.960 1_455 S
H605 C618 0.961 . S
H606 C618 0.959 . S
H607 C621 0.929 . S
H608 C622 0.931 . S
H609 C624 0.930 . S
C610 H598 0.930 . S
C610 C611 1.399 . S
C610 C615 1.399 . S
C611 C610 1.399 . S
C611 C612 1.376 . S
C612 H599 0.930 . S
C612 C611 1.376 . S
C612 C613 1.388 . S
C613 H600 0.930 . S
C613 C612 1.388 . S
C613 C614 1.390 . S
C614 C613 1.390 . S
C614 C615 1.394 . S
C614 C620 1.465 1_455 S
C615 C610 1.399 . S
C615 C614 1.394 . S
C615 C616 1.516 . S
C616 C615 1.516 . S
C616 C617 1.502 . S
C616 C618 1.561 1_455 S
C616 C619 1.526 1_455 S
C617 H601 0.959 . S
C617 H602 0.959 . S
C617 H603 0.961 . S
C617 C616 1.502 . S
C618 H604 0.960 1_655 S
C618 H605 0.961 . S
C618 H606 0.959 . S
C618 C616 1.561 1_655 S
C619 C616 1.526 1_655 S
C619 C620 1.396 . S
C619 C624 1.390 . S
C620 C614 1.465 1_655 S
C620 C619 1.396 . S
C620 C621 1.399 . S
C621 H607 0.929 . S
C621 C620 1.399 . S
C621 C622 1.385 . S
C622 H608 0.931 . S
C622 C621 1.385 . S
C622 C623 1.389 . S
C623 C622 1.389 . S
C623 C624 1.387 . S
C624 H609 0.930 . S
C624 C619 1.390 . S
C624 C623 1.387 . S
H625 C637 0.930 . S
H626 C639 0.930 . S
H627 C640 0.930 . S
H628 C644 0.959 . S
H629 C644 0.959 . S
H630 C644 0.961 . S
H631 C645 0.960 . S
H632 C645 0.961 . S
H633 C645 0.959 . S
H634 C648 0.929 . S
H635 C649 0.931 . S
H636 C651 0.930 . S
C637 H625 0.930 . S
C637 C638 1.399 . S
C637 C642 1.399 . S
C638 C637 1.399 . S
C638 C639 1.376 . S
C639 H626 0.930 . S
C639 C638 1.376 . S
C639 C640 1.388 . S
C640 H627 0.930 . S
C640 C639 1.388 . S
C640 C641 1.390 . S
C641 C640 1.390 . S
C641 C642 1.394 . S
C641 C647 1.465 1_655 S
C642 C637 1.399 . S
C642 C641 1.394 . S
C642 C643 1.516 1_655 S
C643 C642 1.516 1_455 S
C643 C644 1.502 1_455 S
C643 C645 1.561 . S
C643 C646 1.526 . S
C644 H628 0.959 . S
C644 H629 0.959 . S
C644 H630 0.961 . S
C644 C643 1.502 1_655 S
C645 H631 0.960 . S
C645 H632 0.961 . S
C645 H633 0.959 . S
C645 C643 1.561 . S
C646 C643 1.526 . S
C646 C647 1.396 . S
C646 C651 1.390 . S
C647 C641 1.465 1_455 S
C647 C646 1.396 . S
C647 C648 1.399 . S
C648 H634 0.929 . S
C648 C647 1.399 . S
C648 C649 1.385 . S
C649 H635 0.931 . S
C649 C648 1.385 . S
C649 C650 1.389 . S
C650 C649 1.389 . S
C650 C651 1.387 . S
C651 H636 0.930 . S
C651 C646 1.390 . S
C651 C650 1.387 . S
H652 C664 0.930 . S
H653 C666 0.930 . S
H654 C667 0.930 . S
H655 C671 0.959 . S
H656 C671 0.959 . S
H657 C671 0.961 . S
H658 C672 0.960 . S
H659 C672 0.961 . S
H660 C672 0.959 . S
H661 C675 0.929 . S
H662 C676 0.931 . S
H663 C678 0.930 . S
C664 H652 0.930 . S
C664 C665 1.399 . S
C664 C669 1.399 . S
C665 C664 1.399 . S
C665 C666 1.376 . S
C666 H653 0.930 . S
C666 C665 1.376 . S
C666 C667 1.388 . S
C667 H654 0.930 . S
C667 C666 1.388 . S
C667 C668 1.390 . S
C668 C667 1.390 . S
C668 C669 1.394 . S
C668 C674 1.465 . S
C669 C664 1.399 . S
C669 C668 1.394 . S
C669 C670 1.516 . S
C670 C669 1.516 . S
C670 C671 1.502 . S
C670 C672 1.561 . S
C670 C673 1.526 . S
C671 H655 0.959 . S
C671 H656 0.959 . S
C671 H657 0.961 . S
C671 C670 1.502 . S
C672 H658 0.960 . S
C672 H659 0.961 . S
C672 H660 0.959 . S
C672 C670 1.561 . S
C673 C670 1.526 . S
C673 C674 1.396 . S
C673 C678 1.390 . S
C674 C668 1.465 . S
C674 C673 1.396 . S
C674 C675 1.399 . S
C675 H661 0.929 . S
C675 C674 1.399 . S
C675 C676 1.385 . S
C676 H662 0.931 . S
C676 C675 1.385 . S
C676 C677 1.389 . S
C677 C676 1.389 . S
C677 C678 1.387 . S
C678 H663 0.930 . S
C678 C673 1.390 . S
C678 C677 1.387 . S
H679 C691 0.930 . S
H680 C693 0.930 . S
H681 C694 0.930 . S
H682 C698 0.959 . S
H683 C698 0.959 . S
H684 C698 0.961 . S
H685 C699 0.960 . S
H686 C699 0.961 . S
H687 C699 0.959 . S
H688 C702 0.929 . S
H689 C703 0.931 . S
H690 C705 0.930 . S
C691 H679 0.930 . S
C691 C692 1.399 . S
C691 C696 1.399 . S
C692 C691 1.399 . S
C692 C693 1.376 . S
C693 H680 0.930 . S
C693 C692 1.376 . S
C693 C694 1.388 . S
C694 H681 0.930 . S
C694 C693 1.388 . S
C694 C695 1.390 . S
C695 C694 1.390 . S
C695 C696 1.394 . S
C695 C701 1.465 . S
C696 C691 1.399 . S
C696 C695 1.394 . S
C696 C697 1.516 . S
C697 C696 1.516 . S
C697 C698 1.502 . S
C697 C699 1.561 . S
C697 C700 1.526 . S
C698 H682 0.959 . S
C698 H683 0.959 . S
C698 H684 0.961 . S
C698 C697 1.502 . S
C699 H685 0.960 . S
C699 H686 0.961 . S
C699 H687 0.959 . S
C699 C697 1.561 . S
C700 C697 1.526 . S
C700 C701 1.396 . S
C700 C705 1.390 . S
C701 C695 1.465 . S
C701 C700 1.396 . S
C701 C702 1.399 . S
C702 H688 0.929 . S
C702 C701 1.399 . S
C702 C703 1.385 . S
C703 H689 0.931 . S
C703 C702 1.385 . S
C703 C704 1.389 . S
C704 C703 1.389 . S
C704 C705 1.387 . S
C705 H690 0.930 . S
C705 C700 1.390 . S
C705 C704 1.387 . S
H706 C718 0.930 . S
H707 C720 0.930 . S
H708 C721 0.930 . S
H709 C725 0.959 . S
H710 C725 0.959 . S
H711 C725 0.961 . S
H712 C726 0.960 . S
H713 C726 0.961 1_455 S
H714 C726 0.959 . S
H715 C729 0.929 . S
H716 C730 0.931 . S
H717 C732 0.930 . S
C718 H706 0.930 . S
C718 C719 1.399 . S
C718 C723 1.399 . S
C719 C718 1.399 . S
C719 C720 1.376 . S
C720 H707 0.930 . S
C720 C719 1.376 . S
C720 C721 1.388 . S
C721 H708 0.930 . S
C721 C720 1.388 . S
C721 C722 1.390 . S
C722 C721 1.390 . S
C722 C723 1.394 . S
C722 C728 1.465 1_655 S
C723 C718 1.399 . S
C723 C722 1.394 . S
C723 C724 1.516 1_655 S
C724 C723 1.516 1_455 S
C724 C725 1.502 . S
C724 C726 1.561 1_455 S
C724 C727 1.526 . S
C725 H709 0.959 . S
C725 H710 0.959 . S
C725 H711 0.961 . S
C725 C724 1.502 . S
C726 H712 0.960 . S
C726 H713 0.961 1_655 S
C726 H714 0.959 . S
C726 C724 1.561 1_655 S
C727 C724 1.526 . S
C727 C728 1.396 . S
C727 C732 1.390 . S
C728 C722 1.465 1_455 S
C728 C727 1.396 . S
C728 C729 1.399 . S
C729 H715 0.929 . S
C729 C728 1.399 . S
C729 C730 1.385 . S
C730 H716 0.931 . S
C730 C729 1.385 . S
C730 C731 1.389 . S
C731 C730 1.389 . S
C731 C732 1.387 . S
C732 H717 0.930 . S
C732 C727 1.390 . S
C732 C731 1.387 . S
H733 C745 0.930 . S
H734 C747 0.930 . S
H735 C748 0.930 . S
H736 C752 0.959 . S
H737 C752 0.959 . S
H738 C752 0.961 . S
H739 C753 0.960 . S
H740 C753 0.961 1_655 S
H741 C753 0.959 . S
H742 C756 0.929 . S
H743 C757 0.931 . S
H744 C759 0.930 . S
C745 H733 0.930 . S
C745 C746 1.399 . S
C745 C750 1.399 . S
C746 C745 1.399 . S
C746 C747 1.376 . S
C747 H734 0.930 . S
C747 C746 1.376 . S
C747 C748 1.388 . S
C748 H735 0.930 . S
C748 C747 1.388 . S
C748 C749 1.390 . S
C749 C748 1.390 . S
C749 C750 1.394 . S
C749 C755 1.465 . S
C750 C745 1.399 . S
C750 C749 1.394 . S
C750 C751 1.516 1_455 S
C751 C750 1.516 1_655 S
C751 C752 1.502 . S
C751 C753 1.561 1_655 S
C751 C754 1.526 . S
C752 H736 0.959 . S
C752 H737 0.959 . S
C752 H738 0.961 . S
C752 C751 1.502 . S
C753 H739 0.960 . S
C753 H740 0.961 1_455 S
C753 H741 0.959 . S
C753 C751 1.561 1_455 S
C754 C751 1.526 . S
C754 C755 1.396 1_655 S
C754 C759 1.390 . S
C755 C749 1.465 . S
C755 C754 1.396 1_455 S
C755 C756 1.399 . S
C756 H742 0.929 . S
C756 C755 1.399 . S
C756 C757 1.385 1_455 S
C757 H743 0.931 . S
C757 C756 1.385 1_655 S
C757 C758 1.389 . S
C758 C757 1.389 . S
C758 C759 1.387 . S
C759 H744 0.930 . S
C759 C754 1.390 . S
C759 C758 1.387 . S
H760 C772 0.930 . S
H761 C774 0.930 . S
H762 C775 0.930 . S
H763 C779 0.959 . S
H764 C779 0.959 . S
H765 C779 0.961 . S
H766 C780 0.960 . S
H767 C780 0.961 . S
H768 C780 0.959 1_554 S
H769 C783 0.929 . S
H770 C784 0.931 . S
H771 C786 0.916 1_556 S
C772 H760 0.930 . S
C772 C773 1.399 . S
C772 C777 1.399 . S
C773 C772 1.399 . S
C773 C774 1.376 1_556 S
C774 H761 0.930 . S
C774 C773 1.376 1_554 S
C774 C775 1.388 . S
C775 H762 0.930 . S
C775 C774 1.388 . S
C775 C776 1.390 . S
C776 C775 1.390 . S
C776 C777 1.394 1_554 S
C776 C782 1.465 . S
C777 C772 1.399 . S
C777 C776 1.394 1_556 S
C777 C778 1.516 . S
C778 C777 1.516 . S
C778 C779 1.502 . S
C778 C780 1.561 . S
C778 C781 1.526 1_556 S
C779 H763 0.959 . S
C779 H764 0.959 . S
C779 H765 0.961 . S
C779 C778 1.502 . S
C780 H766 0.960 . S
C780 H767 0.961 . S
C780 H768 0.959 1_556 S
C780 C778 1.561 . S
C781 C778 1.526 1_554 S
C781 C782 1.396 . S
C781 C786 1.390 . S
C782 C776 1.465 . S
C782 C781 1.396 . S
C782 C783 1.399 . S
C783 H769 0.929 . S
C783 C782 1.399 . S
C783 C784 1.385 . S
C784 H770 0.931 . S
C784 C783 1.385 . S
C784 C785 1.389 . S
C785 C784 1.389 . S
C785 C786 1.387 . S
C786 H771 0.916 1_554 S
C786 C781 1.390 . S
C786 C785 1.387 . S
H787 C799 0.930 . S
H788 C801 0.930 . S
H789 C802 0.930 . S
H790 C806 0.959 . S
H791 C806 0.959 . S
H792 C806 0.961 . S
H793 C807 0.960 . S
H794 C807 0.961 . S
H795 C807 0.959 . S
H796 C810 0.929 . S
H797 C811 0.931 . S
H798 C813 0.930 . S
C799 H787 0.930 . S
C799 C800 1.399 . S
C799 C804 1.399 . S
C800 C799 1.399 . S
C800 C801 1.376 . S
C801 H788 0.930 . S
C801 C800 1.376 . S
C801 C802 1.388 . S
C802 H789 0.930 . S
C802 C801 1.388 . S
C802 C803 1.390 . S
C803 C802 1.390 . S
C803 C804 1.394 . S
C803 C809 1.465 . S
C804 C799 1.399 . S
C804 C803 1.394 . S
C804 C805 1.516 . S
C805 C804 1.516 . S
C805 C806 1.502 . S
C805 C807 1.561 . S
C805 C808 1.526 . S
C806 H790 0.959 . S
C806 H791 0.959 . S
C806 H792 0.961 . S
C806 C805 1.502 . S
C807 H793 0.960 . S
C807 H794 0.961 . S
C807 H795 0.959 . S
C807 C805 1.561 . S
C808 C805 1.526 . S
C808 C809 1.396 . S
C808 C813 1.390 . S
C809 C803 1.465 . S
C809 C808 1.396 . S
C809 C810 1.399 . S
C810 H796 0.929 . S
C810 C809 1.399 . S
C810 C811 1.385 . S
C811 H797 0.931 . S
C811 C810 1.385 . S
C811 C812 1.389 . S
C812 C811 1.389 . S
C812 C813 1.387 . S
C813 H798 0.930 . S
C813 C808 1.390 . S
C813 C812 1.387 . S
H814 C826 0.930 . S
H815 C828 0.930 . S
H816 C829 0.930 . S
H817 C833 0.959 . S
H818 C833 0.959 . S
H819 C833 0.961 . S
H820 C834 0.960 . S
H821 C834 0.961 . S
H822 C834 0.959 . S
H823 C837 0.929 . S
H824 C838 0.931 . S
H825 C840 0.930 . S
C826 H814 0.930 . S
C826 C827 1.399 . S
C826 C831 1.399 . S
C827 C826 1.399 . S
C827 C828 1.376 . S
C828 H815 0.930 . S
C828 C827 1.376 . S
C828 C829 1.388 . S
C829 H816 0.930 . S
C829 C828 1.388 . S
C829 C830 1.390 . S
C830 C829 1.390 . S
C830 C831 1.394 . S
C830 C836 1.465 . S
C831 C826 1.399 . S
C831 C830 1.394 . S
C831 C832 1.516 . S
C832 C831 1.516 . S
C832 C833 1.502 . S
C832 C834 1.561 . S
C832 C835 1.526 . S
C833 H817 0.959 . S
C833 H818 0.959 . S
C833 H819 0.961 . S
C833 C832 1.502 . S
C834 H820 0.960 . S
C834 H821 0.961 . S
C834 H822 0.959 . S
C834 C832 1.561 . S
C835 C832 1.526 . S
C835 C836 1.396 . S
C835 C840 1.390 . S
C836 C830 1.465 . S
C836 C835 1.396 . S
C836 C837 1.399 . S
C837 H823 0.929 . S
C837 C836 1.399 . S
C837 C838 1.385 . S
C838 H824 0.931 . S
C838 C837 1.385 . S
C838 C839 1.389 . S
C839 C838 1.389 . S
C839 C840 1.387 . S
C840 H825 0.930 . S
C840 C835 1.390 . S
C840 C839 1.387 . S
H841 C853 0.930 . S
H842 C855 0.930 . S
H843 C856 0.930 . S
H844 C860 0.959 . S
H845 C860 0.959 . S
H846 C860 0.961 . S
H847 C861 0.960 . S
H848 C861 0.961 . S
H849 C861 0.959 . S
H850 C864 0.929 . S
H851 C865 0.931 . S
H852 C867 0.930 . S
C853 H841 0.930 . S
C853 C854 1.399 . S
C853 C858 1.399 . S
C854 C853 1.399 . S
C854 C855 1.376 . S
C855 H842 0.930 . S
C855 C854 1.376 . S
C855 C856 1.388 . S
C856 H843 0.930 . S
C856 C855 1.388 . S
C856 C857 1.390 . S
C857 C856 1.390 . S
C857 C858 1.394 . S
C857 C863 1.465 . S
C858 C853 1.399 . S
C858 C857 1.394 . S
C858 C859 1.516 . S
C859 C858 1.516 . S
C859 C860 1.502 . S
C859 C861 1.561 . S
C859 C862 1.526 . S
C860 H844 0.959 . S
C860 H845 0.959 . S
C860 H846 0.961 . S
C860 C859 1.502 . S
C861 H847 0.960 . S
C861 H848 0.961 . S
C861 H849 0.959 . S
C861 C859 1.561 . S
C862 C859 1.526 . S
C862 C863 1.396 . S
C862 C867 1.390 . S
C863 C857 1.465 . S
C863 C862 1.396 . S
C863 C864 1.399 . S
C864 H850 0.929 . S
C864 C863 1.399 . S
C864 C865 1.385 . S
C865 H851 0.931 . S
C865 C864 1.385 . S
C865 C866 1.389 . S
C866 C865 1.389 . S
C866 C867 1.387 . S
C867 H852 0.930 . S
C867 C862 1.390 . S
C867 C866 1.387 . S
H868 C880 0.930 1_554 S
H869 C882 0.930 . S
H870 C883 0.930 . S
H871 C887 0.959 . S
H872 C887 0.959 . S
H873 C887 0.961 . S
H874 C888 0.960 . S
H875 C888 0.961 . S
H876 C888 0.959 . S
H877 C891 0.929 . S
H878 C892 0.931 . S
H879 C894 0.930 . S
C880 H868 0.930 1_556 S
C880 C881 1.399 . S
C880 C885 1.399 . S
C881 C880 1.399 . S
C881 C882 1.376 . S
C882 H869 0.930 . S
C882 C881 1.376 . S
C882 C883 1.388 . S
C883 H870 0.930 . S
C883 C882 1.388 . S
C883 C884 1.390 . S
C884 C883 1.390 . S
C884 C885 1.394 . S
C884 C890 1.465 . S
C885 C880 1.399 . S
C885 C884 1.394 . S
C885 C886 1.516 1_556 S
C886 C885 1.516 1_554 S
C886 C887 1.502 . S
C886 C888 1.561 . S
C886 C889 1.526 . S
C887 H871 0.959 . S
C887 H872 0.959 . S
C887 H873 0.961 . S
C887 C886 1.502 . S
C888 H874 0.960 . S
C888 H875 0.961 . S
C888 H876 0.959 . S
C888 C886 1.561 . S
C889 C886 1.526 . S
C889 C890 1.396 1_554 S
C889 C894 1.390 . S
C890 C884 1.465 . S
C890 C889 1.396 1_556 S
C890 C891 1.399 . S
C891 H877 0.929 . S
C891 C890 1.399 . S
C891 C892 1.385 . S
C892 H878 0.931 . S
C892 C891 1.385 . S
C892 C893 1.389 1_556 S
C893 C892 1.389 1_554 S
C893 C894 1.387 . S
C894 H879 0.930 . S
C894 C889 1.390 . S
C894 C893 1.387 . S
H895 C907 0.930 . S
H896 C909 0.930 . S
H897 C910 0.930 . S
H898 C914 0.959 . S
H899 C914 0.959 . S
H900 C914 0.961 . S
H901 C915 0.960 . S
H902 C915 0.961 . S
H903 C915 0.959 . S
H904 C918 0.929 . S
H905 C919 0.931 . S
H906 C921 0.930 . S
C907 H895 0.930 . S
C907 C908 1.399 . S
C907 C912 1.399 . S
C908 C907 1.399 . S
C908 C909 1.376 . S
C909 H896 0.930 . S
C909 C908 1.376 . S
C909 C910 1.388 . S
C910 H897 0.930 . S
C910 C909 1.388 . S
C910 C911 1.390 . S
C911 C910 1.390 . S
C911 C912 1.394 . S
C911 C917 1.465 . S
C912 C907 1.399 . S
C912 C911 1.394 . S
C912 C913 1.516 . S
C913 C912 1.516 . S
C913 C914 1.502 . S
C913 C915 1.561 . S
C913 C916 1.526 . S
C914 H898 0.959 . S
C914 H899 0.959 . S
C914 H900 0.961 . S
C914 C913 1.502 . S
C915 H901 0.960 . S
C915 H902 0.961 . S
C915 H903 0.959 . S
C915 C913 1.561 . S
C916 C913 1.526 . S
C916 C917 1.396 . S
C916 C921 1.390 . S
C917 C911 1.465 . S
C917 C916 1.396 . S
C917 C918 1.399 . S
C918 H904 0.929 . S
C918 C917 1.399 . S
C918 C919 1.385 . S
C919 H905 0.931 . S
C919 C918 1.385 . S
C919 C920 1.389 . S
C920 C919 1.389 . S
C920 C921 1.387 . S
C921 H906 0.930 . S
C921 C916 1.390 . S
C921 C920 1.387 . S
H922 C934 0.930 . S
H923 C936 0.930 . S
H924 C937 0.930 . S
H925 C941 0.959 . S
H926 C941 0.959 . S
H927 C941 0.961 . S
H928 C942 0.960 . S
H929 C942 0.961 . S
H930 C942 0.959 . S
H931 C945 0.929 . S
H932 C946 0.931 . S
H933 C948 0.930 . S
C934 H922 0.930 . S
C934 C935 1.399 . S
C934 C939 1.399 . S
C935 C934 1.399 . S
C935 C936 1.376 . S
C936 H923 0.930 . S
C936 C935 1.376 . S
C936 C937 1.388 . S
C937 H924 0.930 . S
C937 C936 1.388 . S
C937 C938 1.390 . S
C938 C937 1.390 . S
C938 C939 1.394 . S
C938 C944 1.465 . S
C939 C934 1.399 . S
C939 C938 1.394 . S
C939 C940 1.516 . S
C940 C939 1.516 . S
C940 C941 1.502 . S
C940 C942 1.561 . S
C940 C943 1.526 . S
C941 H925 0.959 . S
C941 H926 0.959 . S
C941 H927 0.961 . S
C941 C940 1.502 . S
C942 H928 0.960 . S
C942 H929 0.961 . S
C942 H930 0.959 . S
C942 C940 1.561 . S
C943 C940 1.526 . S
C943 C944 1.396 . S
C943 C948 1.390 . S
C944 C938 1.465 . S
C944 C943 1.396 . S
C944 C945 1.399 . S
C945 H931 0.929 . S
C945 C944 1.399 . S
C945 C946 1.385 . S
C946 H932 0.931 . S
C946 C945 1.385 . S
C946 C947 1.389 . S
C947 C946 1.389 . S
C947 C948 1.387 . S
C948 H933 0.930 . S
C948 C943 1.390 . S
C948 C947 1.387 . S
H949 C961 0.930 . S
H950 C963 0.930 . S
H951 C964 0.930 . S
H952 C968 0.959 . S
H953 C968 0.959 . S
H954 C968 0.961 . S
H955 C969 0.960 . S
H956 C969 0.961 . S
H957 C969 0.959 . S
H958 C972 0.929 . S
H959 C973 0.931 . S
H960 C975 0.930 . S
C961 H949 0.930 . S
C961 C962 1.399 . S
C961 C966 1.399 . S
C962 C961 1.399 . S
C962 C963 1.376 . S
C963 H950 0.930 . S
C963 C962 1.376 . S
C963 C964 1.388 . S
C964 H951 0.930 . S
C964 C963 1.388 . S
C964 C965 1.390 . S
C965 C964 1.390 . S
C965 C966 1.394 . S
C965 C971 1.465 . S
C966 C961 1.399 . S
C966 C965 1.394 . S
C966 C967 1.516 . S
C967 C966 1.516 . S
C967 C968 1.502 . S
C967 C969 1.561 . S
C967 C970 1.526 . S
C968 H952 0.959 . S
C968 H953 0.959 . S
C968 H954 0.961 . S
C968 C967 1.502 . S
C969 H955 0.960 . S
C969 H956 0.961 . S
C969 H957 0.959 . S
C969 C967 1.561 . S
C970 C967 1.526 . S
C970 C971 1.396 . S
C970 C975 1.390 . S
C971 C965 1.465 . S
C971 C970 1.396 . S
C971 C972 1.399 . S
C972 H958 0.929 . S
C972 C971 1.399 . S
C972 C973 1.385 . S
C973 H959 0.931 . S
C973 C972 1.385 . S
C973 C974 1.389 . S
C974 C973 1.389 . S
C974 C975 1.387 . S
C975 H960 0.930 . S
C975 C970 1.390 . S
C975 C974 1.387 . S
H976 C988 0.930 . S
H977 C990 0.930 . S
H978 C991 0.930 . S
H979 C995 0.959 . S
H980 C995 0.959 . S
H981 C995 0.961 . S
H982 C996 0.960 . S
H983 C996 0.961 . S
H984 C996 0.959 . S
H985 C999 0.929 . S
H986 C1000 0.931 . S
H987 C1002 0.930 . S
C988 H976 0.930 . S
C988 C989 1.399 . S
C988 C993 1.399 . S
C989 C988 1.399 . S
C989 C990 1.376 . S
C990 H977 0.930 . S
C990 C989 1.376 . S
C990 C991 1.388 . S
C991 H978 0.930 . S
C991 C990 1.388 . S
C991 C992 1.390 . S
C992 C991 1.390 . S
C992 C993 1.394 . S
C992 C998 1.465 . S
C993 C988 1.399 . S
C993 C992 1.394 . S
C993 C994 1.516 . S
C994 C993 1.516 . S
C994 C995 1.502 . S
C994 C996 1.561 . S
C994 C997 1.526 . S
C995 H979 0.959 . S
C995 H980 0.959 . S
C995 H981 0.961 . S
C995 C994 1.502 . S
C996 H982 0.960 . S
C996 H983 0.961 . S
C996 H984 0.959 . S
C996 C994 1.561 . S
C997 C994 1.526 . S
C997 C998 1.396 . S
C997 C1002 1.390 . S
C998 C992 1.465 . S
C998 C997 1.396 . S
C998 C999 1.399 . S
C999 H985 0.929 . S
C999 C998 1.399 . S
C999 C1000 1.385 . S
C1000 H986 0.931 . S
C1000 C999 1.385 . S
C1000 C1001 1.389 . S
C1001 C1000 1.389 . S
C1001 C1002 1.387 . S
C1002 H987 0.930 . S
C1002 C997 1.390 . S
C1002 C1001 1.387 . S
H1003 C1015 0.930 . S
H1004 C1017 0.930 . S
H1005 C1018 0.930 . S
H1006 C1022 0.959 . S
H1007 C1022 0.959 . S
H1008 C1022 0.961 . S
H1009 C1023 0.960 . S
H1010 C1023 0.961 . S
H1011 C1023 0.959 . S
H1012 C1026 0.929 . S
H1013 C1027 0.931 . S
H1014 C1029 0.930 . S
C1015 H1003 0.930 . S
C1015 C1016 1.399 . S
C1015 C1020 1.399 . S
C1016 C1015 1.399 . S
C1016 C1017 1.376 . S
C1017 H1004 0.930 . S
C1017 C1016 1.376 . S
C1017 C1018 1.388 . S
C1018 H1005 0.930 . S
C1018 C1017 1.388 . S
C1018 C1019 1.380 1_545 S
C1019 C1018 1.380 1_565 S
C1019 C1020 1.391 1_565 S
C1019 C1025 1.478 . S
C1020 C1015 1.399 . S
C1020 C1019 1.391 1_545 S
C1020 C1021 1.516 1_545 S
C1021 C1020 1.516 1_565 S
C1021 C1022 1.502 . S
C1021 C1023 1.561 . S
C1021 C1024 1.526 . S
C1022 H1006 0.959 . S
C1022 H1007 0.959 . S
C1022 H1008 0.961 . S
C1022 C1021 1.502 . S
C1023 H1009 0.960 . S
C1023 H1010 0.961 . S
C1023 H1011 0.959 . S
C1023 C1021 1.561 . S
C1024 C1021 1.526 . S
C1024 C1025 1.396 . S
C1024 C1029 1.390 . S
C1025 C1019 1.478 . S
C1025 C1024 1.396 . S
C1025 C1026 1.399 . S
C1026 H1012 0.929 . S
C1026 C1025 1.399 . S
C1026 C1027 1.385 . S
C1027 H1013 0.931 . S
C1027 C1026 1.385 . S
C1027 C1028 1.389 . S
C1028 C1027 1.389 . S
C1028 C1029 1.387 . S
C1029 H1014 0.930 . S
C1029 C1024 1.390 . S
C1029 C1028 1.387 . S
H1030 C1042 0.930 . S
H1031 C1044 0.930 . S
H1032 C1045 0.930 1_556 S
H1033 C1049 0.978 . S
H1034 C1049 0.959 . S
H1035 C1049 0.961 . S
H1036 C1050 0.960 . S
H1037 C1050 0.961 . S
H1038 C1050 0.959 . S
H1039 C1053 0.929 . S
H1040 C1054 0.931 . S
H1041 C1056 0.930 . S
C1042 H1030 0.930 . S
C1042 C1043 1.399 . S
C1042 C1047 1.399 . S
C1043 C1042 1.399 . S
C1043 C1044 1.376 . S
C1044 H1031 0.930 . S
C1044 C1043 1.376 . S
C1044 C1045 1.388 . S
C1045 H1032 0.930 1_554 S
C1045 C1044 1.388 . S
C1045 C1046 1.390 . S
C1046 C1045 1.390 . S
C1046 C1047 1.394 . S
C1046 C1052 1.465 1_554 S
C1047 C1042 1.399 . S
C1047 C1046 1.394 . S
C1047 C1048 1.516 . S
C1048 C1047 1.516 . S
C1048 C1049 1.502 . S
C1048 C1050 1.561 . S
C1048 C1051 1.526 . S
C1049 H1033 0.978 . S
C1049 H1034 0.959 . S
C1049 H1035 0.961 . S
C1049 C1048 1.502 . S
C1050 H1036 0.960 . S
C1050 H1037 0.961 . S
C1050 H1038 0.959 . S
C1050 C1048 1.561 . S
C1051 C1048 1.526 . S
C1051 C1052 1.396 1_554 S
C1051 C1056 1.390 . S
C1052 C1046 1.465 1_556 S
C1052 C1051 1.396 1_556 S
C1052 C1053 1.399 . S
C1053 H1039 0.929 . S
C1053 C1052 1.399 . S
C1053 C1054 1.385 . S
C1054 H1040 0.931 . S
C1054 C1053 1.385 . S
C1054 C1055 1.389 . S
C1055 C1054 1.389 . S
C1055 C1056 1.387 1_556 S
C1056 H1041 0.930 . S
C1056 C1051 1.390 . S
C1056 C1055 1.387 1_554 S
H1057 C1069 0.930 . S
H1058 C1071 0.930 . S
H1059 C1072 0.930 . S
H1060 C1076 0.959 . S
H1061 C1076 0.959 . S
H1062 C1076 0.961 . S
H1063 C1077 0.960 . S
H1064 C1077 0.961 . S
H1065 C1077 0.959 . S
H1066 C1080 0.929 . S
H1067 C1081 0.931 . S
H1068 C1083 0.930 . S
C1069 H1057 0.930 . S
C1069 C1070 1.399 . S
C1069 C1074 1.399 . S
C1070 C1069 1.399 . S
C1070 C1071 1.376 . S
C1071 H1058 0.930 . S
C1071 C1070 1.376 . S
C1071 C1072 1.388 . S
C1072 H1059 0.930 . S
C1072 C1071 1.388 . S
C1072 C1073 1.390 . S
C1073 C1072 1.390 . S
C1073 C1074 1.394 . S
C1073 C1079 1.465 1_565 S
C1074 C1069 1.399 . S
C1074 C1073 1.394 . S
C1074 C1075 1.516 1_565 S
C1075 C1074 1.516 1_545 S
C1075 C1076 1.502 . S
C1075 C1077 1.561 . S
C1075 C1078 1.526 . S
C1076 H1060 0.959 . S
C1076 H1061 0.959 . S
C1076 H1062 0.961 . S
C1076 C1075 1.502 . S
C1077 H1063 0.960 . S
C1077 H1064 0.961 . S
C1077 H1065 0.959 . S
C1077 C1075 1.561 . S
C1078 C1075 1.526 . S
C1078 C1079 1.396 . S
C1078 C1083 1.390 . S
C1079 C1073 1.465 1_545 S
C1079 C1078 1.396 . S
C1079 C1080 1.399 . S
C1080 H1066 0.929 . S
C1080 C1079 1.399 . S
C1080 C1081 1.385 . S
C1081 H1067 0.931 . S
C1081 C1080 1.385 . S
C1081 C1082 1.389 . S
C1082 C1081 1.389 . S
C1082 C1083 1.387 . S
C1083 H1068 0.930 . S
C1083 C1078 1.390 . S
C1083 C1082 1.387 . S
H1084 C1096 0.930 . S
H1085 C1098 0.930 . S
H1086 C1099 0.930 . S
H1087 C1103 0.959 . S
H1088 C1103 0.959 . S
H1089 C1103 0.961 . S
H1090 C1104 0.960 . S
H1091 C1104 0.961 . S
H1092 C1104 0.959 . S
H1093 C1107 0.929 . S
H1094 C1108 0.931 . S
H1095 C1110 0.930 . S
C1096 H1084 0.930 . S
C1096 C1097 1.399 . S
C1096 C1101 1.399 . S
C1097 C1096 1.399 . S
C1097 C1098 1.376 . S
C1098 H1085 0.930 . S
C1098 C1097 1.376 . S
C1098 C1099 1.388 . S
C1099 H1086 0.930 . S
C1099 C1098 1.388 . S
C1099 C1100 1.390 . S
C1100 C1099 1.390 . S
C1100 C1101 1.394 . S
C1100 C1106 1.465 . S
C1101 C1096 1.399 . S
C1101 C1100 1.394 . S
C1101 C1102 1.516 . S
C1102 C1101 1.516 . S
C1102 C1103 1.502 . S
C1102 C1104 1.561 . S
C1102 C1105 1.526 . S
C1103 H1087 0.959 . S
C1103 H1088 0.959 . S
C1103 H1089 0.961 . S
C1103 C1102 1.502 . S
C1104 H1090 0.960 . S
C1104 H1091 0.961 . S
C1104 H1092 0.959 . S
C1104 C1102 1.561 . S
C1105 C1102 1.526 . S
C1105 C1106 1.396 . S
C1105 C1110 1.390 . S
C1106 C1100 1.465 . S
C1106 C1105 1.396 . S
C1106 C1107 1.399 . S
C1107 H1093 0.929 . S
C1107 C1106 1.399 . S
C1107 C1108 1.385 . S
C1108 H1094 0.931 . S
C1108 C1107 1.385 . S
C1108 C1109 1.389 . S
C1109 C1108 1.389 . S
C1109 C1110 1.387 . S
C1110 H1095 0.930 . S
C1110 C1105 1.390 . S
C1110 C1109 1.387 . S
H1111 C1123 0.930 . S
H1112 C1125 0.930 . S
H1113 C1126 0.930 . S
H1114 C1130 0.959 . S
H1115 C1130 0.959 . S
H1116 C1130 0.961 . S
H1117 C1131 0.960 . S
H1118 C1131 0.961 . S
H1119 C1131 0.959 . S
H1120 C1134 0.929 . S
H1121 C1135 0.931 . S
H1122 C1137 0.930 . S
C1123 H1111 0.930 . S
C1123 C1124 1.399 . S
C1123 C1128 1.399 . S
C1124 C1123 1.399 . S
C1124 C1125 1.376 . S
C1125 H1112 0.930 . S
C1125 C1124 1.376 . S
C1125 C1126 1.388 . S
C1126 H1113 0.930 . S
C1126 C1125 1.388 . S
C1126 C1127 1.390 . S
C1127 C1126 1.390 . S
C1127 C1128 1.394 . S
C1127 C1133 1.465 1_545 S
C1128 C1123 1.399 . S
C1128 C1127 1.394 . S
C1128 C1129 1.516 . S
C1129 C1128 1.516 . S
C1129 C1130 1.502 . S
C1129 C1131 1.561 . S
C1129 C1132 1.526 1_545 S
C1130 H1114 0.959 . S
C1130 H1115 0.959 . S
C1130 H1116 0.961 . S
C1130 C1129 1.502 . S
C1131 H1117 0.960 . S
C1131 H1118 0.961 . S
C1131 H1119 0.959 . S
C1131 C1129 1.561 . S
C1132 C1129 1.526 1_565 S
C1132 C1133 1.396 . S
C1132 C1137 1.390 . S
C1133 C1127 1.465 1_565 S
C1133 C1132 1.396 . S
C1133 C1134 1.399 . S
C1134 H1120 0.929 . S
C1134 C1133 1.399 . S
C1134 C1135 1.385 . S
C1135 H1121 0.931 . S
C1135 C1134 1.385 . S
C1135 C1136 1.389 . S
C1136 C1135 1.389 . S
C1136 C1137 1.387 . S
C1137 H1122 0.930 . S
C1137 C1132 1.390 . S
C1137 C1136 1.387 . S
H1138 C1150 0.930 . S
H1139 C1152 0.930 . S
H1140 C1153 0.930 . S
H1141 C1157 0.959 . S
H1142 C1157 0.959 . S
H1143 C1157 0.961 . S
H1144 C1158 0.960 . S
H1145 C1158 0.961 . S
H1146 C1158 0.959 . S
H1147 C1161 0.929 . S
H1148 C1162 0.931 1_554 S
H1149 C1164 0.930 . S
C1150 H1138 0.930 . S
C1150 C1151 1.399 1_556 S
C1150 C1155 1.399 . S
C1151 C1150 1.399 1_554 S
C1151 C1152 1.376 . S
C1152 H1139 0.930 . S
C1152 C1151 1.376 . S
C1152 C1153 1.388 . S
C1153 H1140 0.930 . S
C1153 C1152 1.388 . S
C1153 C1154 1.390 . S
C1154 C1153 1.390 . S
C1154 C1155 1.394 1_554 S
C1154 C1160 1.465 . S
C1155 C1150 1.399 . S
C1155 C1154 1.394 1_556 S
C1155 C1156 1.516 . S
C1156 C1155 1.516 . S
C1156 C1157 1.502 . S
C1156 C1158 1.561 . S
C1156 C1159 1.526 . S
C1157 H1141 0.959 . S
C1157 H1142 0.959 . S
C1157 H1143 0.961 . S
C1157 C1156 1.502 . S
C1158 H1144 0.960 . S
C1158 H1145 0.961 . S
C1158 H1146 0.959 . S
C1158 C1156 1.561 . S
C1159 C1156 1.526 . S
C1159 C1160 1.396 1_556 S
C1159 C1164 1.390 . S
C1160 C1154 1.465 . S
C1160 C1159 1.396 1_554 S
C1160 C1161 1.399 . S
C1161 H1147 0.929 . S
C1161 C1160 1.399 . S
C1161 C1162 1.385 1_554 S
C1162 H1148 0.931 1_556 S
C1162 C1161 1.385 1_556 S
C1162 C1163 1.389 . S
C1163 C1162 1.389 . S
C1163 C1164 1.387 . S
C1164 H1149 0.930 . S
C1164 C1159 1.390 . S
C1164 C1163 1.387 . S
H1165 C1177 0.930 . S
H1166 C1179 0.930 . S
H1167 C1180 0.930 . S
H1168 C1184 0.959 . S
H1169 C1184 0.959 . S
H1170 C1184 0.961 . S
H1171 C1185 0.960 . S
H1172 C1185 0.961 . S
H1173 C1185 0.959 . S
H1174 C1188 0.929 . S
H1175 C1189 0.931 . S
H1176 C1191 0.930 . S
C1177 H1165 0.930 . S
C1177 C1178 1.399 . S
C1177 C1182 1.399 . S
C1178 C1177 1.399 . S
C1178 C1179 1.376 . S
C1179 H1166 0.930 . S
C1179 C1178 1.376 . S
C1179 C1180 1.388 . S
C1180 H1167 0.930 . S
C1180 C1179 1.388 . S
C1180 C1181 1.390 . S
C1181 C1180 1.390 . S
C1181 C1182 1.394 . S
C1181 C1187 1.465 1_545 S
C1182 C1177 1.399 . S
C1182 C1181 1.394 . S
C1182 C1183 1.516 1_545 S
C1183 C1182 1.516 1_565 S
C1183 C1184 1.502 . S
C1183 C1185 1.561 . S
C1183 C1186 1.526 . S
C1184 H1168 0.959 . S
C1184 H1169 0.959 . S
C1184 H1170 0.961 . S
C1184 C1183 1.502 . S
C1185 H1171 0.960 . S
C1185 H1172 0.961 . S
C1185 H1173 0.959 . S
C1185 C1183 1.561 . S
C1186 C1183 1.526 . S
C1186 C1187 1.396 . S
C1186 C1191 1.390 . S
C1187 C1181 1.465 1_565 S
C1187 C1186 1.396 . S
C1187 C1188 1.399 . S
C1188 H1174 0.929 . S
C1188 C1187 1.399 . S
C1188 C1189 1.385 . S
C1189 H1175 0.931 . S
C1189 C1188 1.385 . S
C1189 C1190 1.389 . S
C1190 C1189 1.389 . S
C1190 C1191 1.387 . S
C1191 H1176 0.930 . S
C1191 C1186 1.390 . S
C1191 C1190 1.387 . S
H1192 C1204 0.930 1_554 S
H1193 C1206 0.930 . S
H1194 C1207 0.930 . S
H1195 C1211 0.959 . S
H1196 C1211 0.959 . S
H1197 C1211 0.961 . S
H1198 C1212 0.960 . S
H1199 C1212 0.961 . S
H1200 C1212 0.959 . S
H1201 C1215 0.929 . S
H1202 C1216 0.931 . S
H1203 C1218 0.930 . S
C1204 H1192 0.930 1_556 S
C1204 C1205 1.399 . S
C1204 C1209 1.399 . S
C1205 C1204 1.399 . S
C1205 C1206 1.376 . S
C1206 H1193 0.930 . S
C1206 C1205 1.376 . S
C1206 C1207 1.388 . S
C1207 H1194 0.930 . S
C1207 C1206 1.388 . S
C1207 C1208 1.390 . S
C1208 C1207 1.390 . S
C1208 C1209 1.394 . S
C1208 C1214 1.465 . S
C1209 C1204 1.399 . S
C1209 C1208 1.394 . S
C1209 C1210 1.516 . S
C1210 C1209 1.516 . S
C1210 C1211 1.502 . S
C1210 C1212 1.561 . S
C1210 C1213 1.526 . S
C1211 H1195 0.959 . S
C1211 H1196 0.959 . S
C1211 H1197 0.961 . S
C1211 C1210 1.502 . S
C1212 H1198 0.960 . S
C1212 H1199 0.961 . S
C1212 H1200 0.959 . S
C1212 C1210 1.561 . S
C1213 C1210 1.526 . S
C1213 C1214 1.396 . S
C1213 C1218 1.390 . S
C1214 C1208 1.465 . S
C1214 C1213 1.396 . S
C1214 C1215 1.399 . S
C1215 H1201 0.929 . S
C1215 C1214 1.399 . S
C1215 C1216 1.385 . S
C1216 H1202 0.931 . S
C1216 C1215 1.385 . S
C1216 C1217 1.389 . S
C1217 C1216 1.389 . S
C1217 C1218 1.387 . S
C1218 H1203 0.930 . S
C1218 C1213 1.390 . S
C1218 C1217 1.387 . S
H1219 C1231 0.930 . S
H1220 C1233 0.930 . S
H1221 C1234 0.930 . S
H1222 C1238 0.959 . S
H1223 C1238 0.959 . S
H1224 C1238 0.961 . S
H1225 C1239 0.960 . S
H1226 C1239 0.961 . S
H1227 C1239 0.959 . S
H1228 C1242 0.929 . S
H1229 C1243 0.931 . S
H1230 C1245 0.930 . S
C1231 H1219 0.930 . S
C1231 C1232 1.399 . S
C1231 C1236 1.399 . S
C1232 C1231 1.399 . S
C1232 C1233 1.376 . S
C1233 H1220 0.930 . S
C1233 C1232 1.376 . S
C1233 C1234 1.388 . S
C1234 H1221 0.930 . S
C1234 C1233 1.388 . S
C1234 C1235 1.390 . S
C1235 C1234 1.390 . S
C1235 C1236 1.394 . S
C1235 C1241 1.465 . S
C1236 C1231 1.399 . S
C1236 C1235 1.394 . S
C1236 C1237 1.516 . S
C1237 C1236 1.516 . S
C1237 C1238 1.502 . S
C1237 C1239 1.561 . S
C1237 C1240 1.526 . S
C1238 H1222 0.959 . S
C1238 H1223 0.959 . S
C1238 H1224 0.961 . S
C1238 C1237 1.502 . S
C1239 H1225 0.960 . S
C1239 H1226 0.961 . S
C1239 H1227 0.959 . S
C1239 C1237 1.561 . S
C1240 C1237 1.526 . S
C1240 C1241 1.396 . S
C1240 C1245 1.390 . S
C1241 C1235 1.465 . S
C1241 C1240 1.396 . S
C1241 C1242 1.399 . S
C1242 H1228 0.929 . S
C1242 C1241 1.399 . S
C1242 C1243 1.385 . S
C1243 H1229 0.931 . S
C1243 C1242 1.385 . S
C1243 C1244 1.389 . S
C1244 C1243 1.389 . S
C1244 C1245 1.387 . S
C1245 H1230 0.930 . S
C1245 C1240 1.390 . S
C1245 C1244 1.387 . S
H1246 C1258 0.930 . S
H1247 C1260 0.930 . S
H1248 C1261 0.930 . S
H1249 C1265 0.959 . S
H1250 C1265 0.959 . S
H1251 C1265 0.961 . S
H1252 C1266 0.960 . S
H1253 C1266 0.961 . S
H1254 C1266 0.959 . S
H1255 C1269 0.929 . S
H1256 C1270 0.931 . S
H1257 C1272 0.930 . S
C1258 H1246 0.930 . S
C1258 C1259 1.399 . S
C1258 C1263 1.399 . S
C1259 C1258 1.399 . S
C1259 C1260 1.376 . S
C1260 H1247 0.930 . S
C1260 C1259 1.376 . S
C1260 C1261 1.388 . S
C1261 H1248 0.930 . S
C1261 C1260 1.388 . S
C1261 C1262 1.390 . S
C1262 C1261 1.390 . S
C1262 C1263 1.394 . S
C1262 C1268 1.465 . S
C1263 C1258 1.399 . S
C1263 C1262 1.394 . S
C1263 C1264 1.516 . S
C1264 C1263 1.516 . S
C1264 C1265 1.502 . S
C1264 C1266 1.561 . S
C1264 C1267 1.526 . S
C1265 H1249 0.959 . S
C1265 H1250 0.959 . S
C1265 H1251 0.961 . S
C1265 C1264 1.502 . S
C1266 H1252 0.960 . S
C1266 H1253 0.961 . S
C1266 H1254 0.959 . S
C1266 C1264 1.561 . S
C1267 C1264 1.526 . S
C1267 C1268 1.396 . S
C1267 C1272 1.390 . S
C1268 C1262 1.465 . S
C1268 C1267 1.396 . S
C1268 C1269 1.399 . S
C1269 H1255 0.929 . S
C1269 C1268 1.399 . S
C1269 C1270 1.385 . S
C1270 H1256 0.931 . S
C1270 C1269 1.385 . S
C1270 C1271 1.389 . S
C1271 C1270 1.389 . S
C1271 C1272 1.387 . S
C1272 H1257 0.930 . S
C1272 C1267 1.390 . S
C1272 C1271 1.387 . S
H1273 C1285 0.930 . S
H1274 C1287 0.930 . S
H1275 C1288 0.930 . S
H1276 C1292 0.959 . S
H1277 C1292 0.959 . S
H1278 C1292 0.961 . S
H1279 C1293 0.960 . S
H1280 C1293 0.961 . S
H1281 C1293 0.959 . S
H1282 C1296 0.929 . S
H1283 C1297 0.931 . S
H1284 C1299 0.930 . S
C1285 H1273 0.930 . S
C1285 C1286 1.399 . S
C1285 C1290 1.399 . S
C1286 C1285 1.399 . S
C1286 C1287 1.376 . S
C1287 H1274 0.930 . S
C1287 C1286 1.376 . S
C1287 C1288 1.388 . S
C1288 H1275 0.930 . S
C1288 C1287 1.388 . S
C1288 C1289 1.390 . S
C1289 C1288 1.390 . S
C1289 C1290 1.394 . S
C1289 C1295 1.465 . S
C1290 C1285 1.399 . S
C1290 C1289 1.394 . S
C1290 C1291 1.516 . S
C1291 C1290 1.516 . S
C1291 C1292 1.502 . S
C1291 C1293 1.561 . S
C1291 C1294 1.526 . S
C1292 H1276 0.959 . S
C1292 H1277 0.959 . S
C1292 H1278 0.961 . S
C1292 C1291 1.502 . S
C1293 H1279 0.960 . S
C1293 H1280 0.961 . S
C1293 H1281 0.959 . S
C1293 C1291 1.561 . S
C1294 C1291 1.526 . S
C1294 C1295 1.396 . S
C1294 C1299 1.390 . S
C1295 C1289 1.465 . S
C1295 C1294 1.396 . S
C1295 C1296 1.399 . S
C1296 H1282 0.929 . S
C1296 C1295 1.399 . S
C1296 C1297 1.385 . S
C1297 H1283 0.931 . S
C1297 C1296 1.385 . S
C1297 C1298 1.389 . S
C1298 C1297 1.389 . S
C1298 C1299 1.387 . S
C1299 H1284 0.930 . S
C1299 C1294 1.390 . S
C1299 C1298 1.387 . S
H1300 C1312 0.930 . S
H1301 C1314 0.930 . S
H1302 C1315 0.930 . S
H1303 C1319 0.959 . S
H1304 C1319 0.959 . S
H1305 C1319 0.961 . S
H1306 C1320 0.960 . S
H1307 C1320 0.961 . S
H1308 C1320 0.959 . S
H1309 C1323 0.929 . S
H1310 C1324 0.931 . S
H1311 C1326 0.930 . S
C1312 H1300 0.930 . S
C1312 C1313 1.399 . S
C1312 C1317 1.399 . S
C1313 C1312 1.399 . S
C1313 C1314 1.376 . S
C1314 H1301 0.930 . S
C1314 C1313 1.376 . S
C1314 C1315 1.388 . S
C1315 H1302 0.930 . S
C1315 C1314 1.388 . S
C1315 C1316 1.390 . S
C1316 C1315 1.390 . S
C1316 C1317 1.394 . S
C1316 C1322 1.465 . S
C1317 C1312 1.399 . S
C1317 C1316 1.394 . S
C1317 C1318 1.516 . S
C1318 C1317 1.516 . S
C1318 C1319 1.502 . S
C1318 C1320 1.561 . S
C1318 C1321 1.526 . S
C1319 H1303 0.959 . S
C1319 H1304 0.959 . S
C1319 H1305 0.961 . S
C1319 C1318 1.502 . S
C1320 H1306 0.960 . S
C1320 H1307 0.961 . S
C1320 H1308 0.959 . S
C1320 C1318 1.561 . S
C1321 C1318 1.526 . S
C1321 C1322 1.396 . S
C1321 C1326 1.390 . S
C1322 C1316 1.465 . S
C1322 C1321 1.396 . S
C1322 C1323 1.399 . S
C1323 H1309 0.929 . S
C1323 C1322 1.399 . S
C1323 C1324 1.385 . S
C1324 H1310 0.931 . S
C1324 C1323 1.385 . S
C1324 C1325 1.389 . S
C1325 C1324 1.389 . S
C1325 C1326 1.387 . S
C1326 H1311 0.930 . S
C1326 C1321 1.390 . S
C1326 C1325 1.387 . S
H1327 C1339 0.930 . S
H1328 C1341 0.930 . S
H1329 C1342 0.930 . S
H1330 C1346 0.959 . S
H1331 C1346 0.959 . S
H1332 C1346 0.961 . S
H1333 C1347 0.960 . S
H1334 C1347 0.961 . S
H1335 C1347 0.959 . S
H1336 C1350 0.929 . S
H1337 C1351 0.931 . S
H1338 C1353 0.930 . S
C1339 H1327 0.930 . S
C1339 C1340 1.399 . S
C1339 C1344 1.399 . S
C1340 C1339 1.399 . S
C1340 C1341 1.376 . S
C1341 H1328 0.930 . S
C1341 C1340 1.376 . S
C1341 C1342 1.388 . S
C1342 H1329 0.930 . S
C1342 C1341 1.388 . S
C1342 C1343 1.390 . S
C1343 C1342 1.390 . S
C1343 C1344 1.394 . S
C1343 C1349 1.465 . S
C1344 C1339 1.399 . S
C1344 C1343 1.394 . S
C1344 C1345 1.516 . S
C1345 C1344 1.516 . S
C1345 C1346 1.502 . S
C1345 C1347 1.561 . S
C1345 C1348 1.526 . S
C1346 H1330 0.959 . S
C1346 H1331 0.959 . S
C1346 H1332 0.961 . S
C1346 C1345 1.502 . S
C1347 H1333 0.960 . S
C1347 H1334 0.961 . S
C1347 H1335 0.959 . S
C1347 C1345 1.561 . S
C1348 C1345 1.526 . S
C1348 C1349 1.396 . S
C1348 C1353 1.390 . S
C1349 C1343 1.465 . S
C1349 C1348 1.396 . S
C1349 C1350 1.399 . S
C1350 H1336 0.929 . S
C1350 C1349 1.399 . S
C1350 C1351 1.385 . S
C1351 H1337 0.931 . S
C1351 C1350 1.385 . S
C1351 C1352 1.389 . S
C1352 C1351 1.389 . S
C1352 C1353 1.387 . S
C1353 H1338 0.930 . S
C1353 C1348 1.390 . S
C1353 C1352 1.387 . S
H1354 C1366 0.930 . S
H1355 C1368 0.930 . S
H1356 C1369 0.930 . S
H1357 C1373 0.959 . S
H1358 C1373 0.959 . S
H1359 C1373 0.961 . S
H1360 C1374 0.960 . S
H1361 C1374 0.961 . S
H1362 C1374 0.959 . S
H1363 C1377 0.929 . S
H1364 C1378 0.931 . S
H1365 C1380 0.930 . S
C1366 H1354 0.930 . S
C1366 C1367 1.399 . S
C1366 C1371 1.399 . S
C1367 C1366 1.399 . S
C1367 C1368 1.376 . S
C1368 H1355 0.930 . S
C1368 C1367 1.376 . S
C1368 C1369 1.388 . S
C1369 H1356 0.930 . S
C1369 C1368 1.388 . S
C1369 C1370 1.390 . S
C1370 C1369 1.390 . S
C1370 C1371 1.394 . S
C1370 C1376 1.465 . S
C1371 C1366 1.399 . S
C1371 C1370 1.394 . S
C1371 C1372 1.516 . S
C1372 C1371 1.516 . S
C1372 C1373 1.502 . S
C1372 C1374 1.561 . S
C1372 C1375 1.526 . S
C1373 H1357 0.959 . S
C1373 H1358 0.959 . S
C1373 H1359 0.961 . S
C1373 C1372 1.502 . S
C1374 H1360 0.960 . S
C1374 H1361 0.961 . S
C1374 H1362 0.959 . S
C1374 C1372 1.561 . S
C1375 C1372 1.526 . S
C1375 C1376 1.396 . S
C1375 C1380 1.390 . S
C1376 C1370 1.465 . S
C1376 C1375 1.396 . S
C1376 C1377 1.399 . S
C1377 H1363 0.929 . S
C1377 C1376 1.399 . S
C1377 C1378 1.385 . S
C1378 H1364 0.931 . S
C1378 C1377 1.385 . S
C1378 C1379 1.389 . S
C1379 C1378 1.389 . S
C1379 C1380 1.387 . S
C1380 H1365 0.930 . S
C1380 C1375 1.390 . S
C1380 C1379 1.387 . S
H1381 C1393 0.930 . S
H1382 C1395 0.930 . S
H1383 C1396 0.930 . S
H1384 C1400 0.959 . S
H1385 C1400 0.959 . S
H1386 C1400 0.961 . S
H1387 C1401 0.960 . S
H1388 C1401 0.961 . S
H1389 C1401 0.959 . S
H1390 C1404 0.929 . S
H1391 C1405 0.931 . S
H1392 C1407 0.930 . S
C1393 H1381 0.930 . S
C1393 C1394 1.399 . S
C1393 C1398 1.399 . S
C1394 C1393 1.399 . S
C1394 C1395 1.376 . S
C1395 H1382 0.930 . S
C1395 C1394 1.376 . S
C1395 C1396 1.388 . S
C1396 H1383 0.930 . S
C1396 C1395 1.388 . S
C1396 C1397 1.390 . S
C1397 C1396 1.390 . S
C1397 C1398 1.394 . S
C1397 C1403 1.465 . S
C1398 C1393 1.399 . S
C1398 C1397 1.394 . S
C1398 C1399 1.516 . S
C1399 C1398 1.516 . S
C1399 C1400 1.502 . S
C1399 C1401 1.561 . S
C1399 C1402 1.526 . S
C1400 H1384 0.959 . S
C1400 H1385 0.959 . S
C1400 H1386 0.961 . S
C1400 C1399 1.502 . S
C1401 H1387 0.960 . S
C1401 H1388 0.961 . S
C1401 H1389 0.959 . S
C1401 C1399 1.561 . S
C1402 C1399 1.526 . S
C1402 C1403 1.396 . S
C1402 C1407 1.390 . S
C1403 C1397 1.465 . S
C1403 C1402 1.396 . S
C1403 C1404 1.399 . S
C1404 H1390 0.929 . S
C1404 C1403 1.399 . S
C1404 C1405 1.385 . S
C1405 H1391 0.931 . S
C1405 C1404 1.385 . S
C1405 C1406 1.389 . S
C1406 C1405 1.389 . S
C1406 C1407 1.387 . S
C1407 H1392 0.930 . S
C1407 C1402 1.390 . S
C1407 C1406 1.387 . S
H1408 C1420 0.930 . S
H1409 C1422 0.930 . S
H1410 C1423 0.930 . S
H1411 C1427 0.959 . S
H1412 C1427 0.959 . S
H1413 C1427 0.961 . S
H1414 C1428 0.960 . S
H1415 C1428 0.961 . S
H1416 C1428 0.959 . S
H1417 C1431 0.929 . S
H1418 C1432 0.931 . S
H1419 C1434 0.930 . S
C1420 H1408 0.930 . S
C1420 C1421 1.399 . S
C1420 C1425 1.399 . S
C1421 C1420 1.399 . S
C1421 C1422 1.376 . S
C1422 H1409 0.930 . S
C1422 C1421 1.376 . S
C1422 C1423 1.388 . S
C1423 H1410 0.930 . S
C1423 C1422 1.388 . S
C1423 C1424 1.390 . S
C1424 C1423 1.390 . S
C1424 C1425 1.394 . S
C1424 C1430 1.465 . S
C1425 C1420 1.399 . S
C1425 C1424 1.394 . S
C1425 C1426 1.516 . S
C1426 C1425 1.516 . S
C1426 C1427 1.502 . S
C1426 C1428 1.561 . S
C1426 C1429 1.526 . S
C1427 H1411 0.959 . S
C1427 H1412 0.959 . S
C1427 H1413 0.961 . S
C1427 C1426 1.502 . S
C1428 H1414 0.960 . S
C1428 H1415 0.961 . S
C1428 H1416 0.959 . S
C1428 C1426 1.561 . S
C1429 C1426 1.526 . S
C1429 C1430 1.396 . S
C1429 C1434 1.390 . S
C1430 C1424 1.465 . S
C1430 C1429 1.396 . S
C1430 C1431 1.399 . S
C1431 H1417 0.929 . S
C1431 C1430 1.399 . S
C1431 C1432 1.385 . S
C1432 H1418 0.931 . S
C1432 C1431 1.385 . S
C1432 C1433 1.389 . S
C1433 C1432 1.389 . S
C1433 C1434 1.387 . S
C1434 H1419 0.930 . S
C1434 C1429 1.390 . S
C1434 C1433 1.387 . S
H1435 C1447 0.930 . S
H1436 C1449 0.930 . S
H1437 C1450 0.930 . S
H1438 C1454 0.959 . S
H1439 C1454 0.959 . S
H1440 C1454 0.961 . S
H1441 C1455 0.960 . S
H1442 C1455 0.961 . S
H1443 C1455 0.959 . S
H1444 C1458 0.929 . S
H1445 C1459 0.931 . S
H1446 C1461 0.930 . S
C1447 H1435 0.930 . S
C1447 C1448 1.399 . S
C1447 C1452 1.399 . S
C1448 C1447 1.399 . S
C1448 C1449 1.376 . S
C1449 H1436 0.930 . S
C1449 C1448 1.376 . S
C1449 C1450 1.388 . S
C1450 H1437 0.930 . S
C1450 C1449 1.388 . S
C1450 C1451 1.390 . S
C1451 C1450 1.390 . S
C1451 C1452 1.394 . S
C1451 C1457 1.465 . S
C1452 C1447 1.399 . S
C1452 C1451 1.394 . S
C1452 C1453 1.516 . S
C1453 C1452 1.516 . S
C1453 C1454 1.502 . S
C1453 C1455 1.561 . S
C1453 C1456 1.526 . S
C1454 H1438 0.959 . S
C1454 H1439 0.959 . S
C1454 H1440 0.961 . S
C1454 C1453 1.502 . S
C1455 H1441 0.960 . S
C1455 H1442 0.961 . S
C1455 H1443 0.959 . S
C1455 C1453 1.561 . S
C1456 C1453 1.526 . S
C1456 C1457 1.396 . S
C1456 C1461 1.390 . S
C1457 C1451 1.465 . S
C1457 C1456 1.396 . S
C1457 C1458 1.399 . S
C1458 H1444 0.929 . S
C1458 C1457 1.399 . S
C1458 C1459 1.385 . S
C1459 H1445 0.931 . S
C1459 C1458 1.385 . S
C1459 C1460 1.389 . S
C1460 C1459 1.389 . S
C1460 C1461 1.387 . S
C1461 H1446 0.930 . S
C1461 C1456 1.390 . S
C1461 C1460 1.387 . S
H1462 C1474 0.930 . S
H1463 C1476 0.930 . S
H1464 C1477 0.930 . S
H1465 C1481 0.959 . S
H1466 C1481 0.959 . S
H1467 C1481 0.961 . S
H1468 C1482 0.960 . S
H1469 C1482 0.961 . S
H1470 C1482 0.959 . S
H1471 C1485 0.929 . S
H1472 C1486 0.931 . S
H1473 C1488 0.930 1_554 S
C1474 H1462 0.930 . S
C1474 C1475 1.399 . S
C1474 C1479 1.399 . S
C1475 C1474 1.399 . S
C1475 C1476 1.376 . S
C1476 H1463 0.930 . S
C1476 C1475 1.376 . S
C1476 C1477 1.388 . S
C1477 H1464 0.930 . S
C1477 C1476 1.388 . S
C1477 C1478 1.390 . S
C1478 C1477 1.390 . S
C1478 C1479 1.394 . S
C1478 C1484 1.465 . S
C1479 C1474 1.399 . S
C1479 C1478 1.394 . S
C1479 C1480 1.516 . S
C1480 C1479 1.516 . S
C1480 C1481 1.502 . S
C1480 C1482 1.561 . S
C1480 C1483 1.526 . S
C1481 H1465 0.959 . S
C1481 H1466 0.959 . S
C1481 H1467 0.961 . S
C1481 C1480 1.502 . S
C1482 H1468 0.960 . S
C1482 H1469 0.961 . S
C1482 H1470 0.959 . S
C1482 C1480 1.561 . S
C1483 C1480 1.526 . S
C1483 C1484 1.396 . S
C1483 C1488 1.390 . S
C1484 C1478 1.465 . S
C1484 C1483 1.396 . S
C1484 C1485 1.399 . S
C1485 H1471 0.929 . S
C1485 C1484 1.399 . S
C1485 C1486 1.385 . S
C1486 H1472 0.931 . S
C1486 C1485 1.385 . S
C1486 C1487 1.389 . S
C1487 C1486 1.389 . S
C1487 C1488 1.387 . S
C1488 H1473 0.930 1_556 S
C1488 C1483 1.390 . S
C1488 C1487 1.387 . S
H1489 C1501 0.930 . S
H1490 C1503 0.930 . S
H1491 C1504 0.930 . S
H1492 C1508 0.959 . S
H1493 C1508 0.959 . S
H1494 C1508 0.961 . S
H1495 C1509 0.960 . S
H1496 C1509 0.961 . S
H1497 C1509 0.959 . S
H1498 C1512 0.929 . S
H1499 C1513 0.931 . S
H1500 C1515 0.930 . S
C1501 H1489 0.930 . S
C1501 C1502 1.399 . S
C1501 C1506 1.399 . S
C1502 C1501 1.399 . S
C1502 C1503 1.376 . S
C1503 H1490 0.930 . S
C1503 C1502 1.376 . S
C1503 C1504 1.388 . S
C1504 H1491 0.930 . S
C1504 C1503 1.388 . S
C1504 C1505 1.390 . S
C1505 C1504 1.390 . S
C1505 C1506 1.394 . S
C1505 C1511 1.465 . S
C1506 C1501 1.399 . S
C1506 C1505 1.394 . S
C1506 C1507 1.516 . S
C1507 C1506 1.516 . S
C1507 C1508 1.502 . S
C1507 C1509 1.561 . S
C1507 C1510 1.526 . S
C1508 H1492 0.959 . S
C1508 H1493 0.959 . S
C1508 H1494 0.961 . S
C1508 C1507 1.502 . S
C1509 H1495 0.960 . S
C1509 H1496 0.961 . S
C1509 H1497 0.959 . S
C1509 C1507 1.561 . S
C1510 C1507 1.526 . S
C1510 C1511 1.396 . S
C1510 C1515 1.390 . S
C1511 C1505 1.465 . S
C1511 C1510 1.396 . S
C1511 C1512 1.399 . S
C1512 H1498 0.929 . S
C1512 C1511 1.399 . S
C1512 C1513 1.385 . S
C1513 H1499 0.931 . S
C1513 C1512 1.385 . S
C1513 C1514 1.389 . S
C1514 C1513 1.389 . S
C1514 C1515 1.387 . S
C1515 H1500 0.930 . S
C1515 C1510 1.390 . S
C1515 C1514 1.387 . S
H1516 C1528 0.930 . S
H1517 C1530 0.930 . S
H1518 C1531 0.930 . S
H1519 C1535 0.959 . S
H1520 C1535 0.959 . S
H1521 C1535 0.961 . S
H1522 C1536 0.960 . S
H1523 C1536 0.961 . S
H1524 C1536 0.959 . S
H1525 C1539 0.929 . S
H1526 C1540 0.931 . S
H1527 C1542 0.930 . S
C1528 H1516 0.930 . S
C1528 C1529 1.399 . S
C1528 C1533 1.399 . S
C1529 C1528 1.399 . S
C1529 C1530 1.376 . S
C1530 H1517 0.930 . S
C1530 C1529 1.376 . S
C1530 C1531 1.388 . S
C1531 H1518 0.930 . S
C1531 C1530 1.388 . S
C1531 C1532 1.390 . S
C1532 C1531 1.390 . S
C1532 C1533 1.394 . S
C1532 C1538 1.465 . S
C1533 C1528 1.399 . S
C1533 C1532 1.394 . S
C1533 C1534 1.516 . S
C1534 C1533 1.516 . S
C1534 C1535 1.502 . S
C1534 C1536 1.561 . S
C1534 C1537 1.526 . S
C1535 H1519 0.959 . S
C1535 H1520 0.959 . S
C1535 H1521 0.961 . S
C1535 C1534 1.502 . S
C1536 H1522 0.960 . S
C1536 H1523 0.961 . S
C1536 H1524 0.959 . S
C1536 C1534 1.561 . S
C1537 C1534 1.526 . S
C1537 C1538 1.396 . S
C1537 C1542 1.390 . S
C1538 C1532 1.465 . S
C1538 C1537 1.396 . S
C1538 C1539 1.399 . S
C1539 H1525 0.929 . S
C1539 C1538 1.399 . S
C1539 C1540 1.385 . S
C1540 H1526 0.931 . S
C1540 C1539 1.385 . S
C1540 C1541 1.389 . S
C1541 C1540 1.389 . S
C1541 C1542 1.387 . S
C1542 H1527 0.930 . S
C1542 C1537 1.390 . S
C1542 C1541 1.387 . S
H1543 C1555 0.930 . S
H1544 C1557 0.930 . S
H1545 C1558 0.930 . S
H1546 C1562 0.959 . S
H1547 C1562 0.959 . S
H1548 C1562 0.961 . S
H1549 C1563 0.960 . S
H1550 C1563 0.961 . S
H1551 C1563 0.959 . S
H1552 C1566 0.929 . S
H1553 C1567 0.931 . S
H1554 C1569 0.930 . S
C1555 H1543 0.930 . S
C1555 C1556 1.399 . S
C1555 C1560 1.399 . S
C1556 C1555 1.399 . S
C1556 C1557 1.376 . S
C1557 H1544 0.930 . S
C1557 C1556 1.376 . S
C1557 C1558 1.388 . S
C1558 H1545 0.930 . S
C1558 C1557 1.388 . S
C1558 C1559 1.390 . S
C1559 C1558 1.390 . S
C1559 C1560 1.394 . S
C1559 C1565 1.465 . S
C1560 C1555 1.399 . S
C1560 C1559 1.394 . S
C1560 C1561 1.516 . S
C1561 C1560 1.516 . S
C1561 C1562 1.502 . S
C1561 C1563 1.561 . S
C1561 C1564 1.526 . S
C1562 H1546 0.959 . S
C1562 H1547 0.959 . S
C1562 H1548 0.961 . S
C1562 C1561 1.502 . S
C1563 H1549 0.960 . S
C1563 H1550 0.961 . S
C1563 H1551 0.959 . S
C1563 C1561 1.561 . S
C1564 C1561 1.526 . S
C1564 C1565 1.396 . S
C1564 C1569 1.390 . S
C1565 C1559 1.465 . S
C1565 C1564 1.396 . S
C1565 C1566 1.399 . S
C1566 H1552 0.929 . S
C1566 C1565 1.399 . S
C1566 C1567 1.385 . S
C1567 H1553 0.931 . S
C1567 C1566 1.385 . S
C1567 C1568 1.389 . S
C1568 C1567 1.389 . S
C1568 C1569 1.387 . S
C1569 H1554 0.930 . S
C1569 C1564 1.390 . S
C1569 C1568 1.387 . S
H1570 C1582 0.930 . S
H1571 C1584 0.930 . S
H1572 C1585 0.930 . S
H1573 C1589 0.959 . S
H1574 C1589 0.959 . S
H1575 C1589 0.961 . S
H1576 C1590 0.960 . S
H1577 C1590 0.961 . S
H1578 C1590 0.959 . S
H1579 C1593 0.929 . S
H1580 C1594 0.931 . S
H1581 C1596 0.930 . S
C1582 H1570 0.930 . S
C1582 C1583 1.391 1_554 S
C1582 C1587 1.399 . S
C1583 C1582 1.391 1_556 S
C1583 C1584 1.378 . S
C1584 H1571 0.930 . S
C1584 C1583 1.378 . S
C1584 C1585 1.388 1_556 S
C1585 H1572 0.930 . S
C1585 C1584 1.388 1_554 S
C1585 C1586 1.390 . S
C1586 C1585 1.390 . S
C1586 C1587 1.394 . S
C1586 C1592 1.465 . S
C1587 C1582 1.399 . S
C1587 C1586 1.394 . S
C1587 C1588 1.516 . S
C1588 C1587 1.516 . S
C1588 C1589 1.502 . S
C1588 C1590 1.561 . S
C1588 C1591 1.526 . S
C1589 H1573 0.959 . S
C1589 H1574 0.959 . S
C1589 H1575 0.961 . S
C1589 C1588 1.502 . S
C1590 H1576 0.960 . S
C1590 H1577 0.961 . S
C1590 H1578 0.959 . S
C1590 C1588 1.561 . S
C1591 C1588 1.526 . S
C1591 C1592 1.396 . S
C1591 C1596 1.390 . S
C1592 C1586 1.465 . S
C1592 C1591 1.396 . S
C1592 C1593 1.399 . S
C1593 H1579 0.929 . S
C1593 C1592 1.399 . S
C1593 C1594 1.385 . S
C1594 H1580 0.931 . S
C1594 C1593 1.385 . S
C1594 C1595 1.389 . S
C1595 C1594 1.389 . S
C1595 C1596 1.387 . S
C1596 H1581 0.930 . S
C1596 C1591 1.390 . S
C1596 C1595 1.387 . S
H1597 C1609 0.930 . S
H1598 C1611 0.930 . S
H1599 C1612 0.930 . S
H1600 C1616 0.959 . S
H1601 C1616 0.959 . S
H1602 C1616 0.961 . S
H1603 C1617 0.960 . S
H1604 C1617 0.961 . S
H1605 C1617 0.959 . S
H1606 C1620 0.929 . S
H1607 C1621 0.931 . S
H1608 C1623 0.930 . S
C1609 H1597 0.930 . S
C1609 C1610 1.399 . S
C1609 C1614 1.399 . S
C1610 C1609 1.399 . S
C1610 C1611 1.376 . S
C1611 H1598 0.930 . S
C1611 C1610 1.376 . S
C1611 C1612 1.388 . S
C1612 H1599 0.930 . S
C1612 C1611 1.388 . S
C1612 C1613 1.390 . S
C1613 C1612 1.390 . S
C1613 C1614 1.394 . S
C1613 C1619 1.465 . S
C1614 C1609 1.399 . S
C1614 C1613 1.394 . S
C1614 C1615 1.516 . S
C1615 C1614 1.516 . S
C1615 C1616 1.502 . S
C1615 C1617 1.561 . S
C1615 C1618 1.526 . S
C1616 H1600 0.959 . S
C1616 H1601 0.959 . S
C1616 H1602 0.961 . S
C1616 C1615 1.502 . S
C1617 H1603 0.960 . S
C1617 H1604 0.961 . S
C1617 H1605 0.959 . S
C1617 C1615 1.561 . S
C1618 C1615 1.526 . S
C1618 C1619 1.396 . S
C1618 C1623 1.390 . S
C1619 C1613 1.465 . S
C1619 C1618 1.396 . S
C1619 C1620 1.399 . S
C1620 H1606 0.929 . S
C1620 C1619 1.399 . S
C1620 C1621 1.385 . S
C1621 H1607 0.931 . S
C1621 C1620 1.385 . S
C1621 C1622 1.389 . S
C1622 C1621 1.389 . S
C1622 C1623 1.387 . S
C1623 H1608 0.930 . S
C1623 C1618 1.390 . S
C1623 C1622 1.387 . S
H1624 C1636 0.930 . S
H1625 C1638 0.930 . S
H1626 C1639 0.930 . S
H1627 C1643 0.959 . S
H1628 C1643 0.959 . S
H1629 C1643 0.961 . S
H1630 C1644 0.960 . S
H1631 C1644 0.961 . S
H1632 C1644 0.959 . S
H1633 C1647 0.929 . S
H1634 C1648 0.931 . S
H1635 C1650 0.930 . S
C1636 H1624 0.930 . S
C1636 C1637 1.399 . S
C1636 C1641 1.399 . S
C1637 C1636 1.399 . S
C1637 C1638 1.376 . S
C1638 H1625 0.930 . S
C1638 C1637 1.376 . S
C1638 C1639 1.388 . S
C1639 H1626 0.930 . S
C1639 C1638 1.388 . S
C1639 C1640 1.390 . S
C1640 C1639 1.390 . S
C1640 C1641 1.394 . S
C1640 C1646 1.465 . S
C1641 C1636 1.399 . S
C1641 C1640 1.394 . S
C1641 C1642 1.516 . S
C1642 C1641 1.516 . S
C1642 C1643 1.502 . S
C1642 C1644 1.561 . S
C1642 C1645 1.526 . S
C1643 H1627 0.959 . S
C1643 H1628 0.959 . S
C1643 H1629 0.961 . S
C1643 C1642 1.502 . S
C1644 H1630 0.960 . S
C1644 H1631 0.961 . S
C1644 H1632 0.959 . S
C1644 C1642 1.561 . S
C1645 C1642 1.526 . S
C1645 C1646 1.396 . S
C1645 C1650 1.390 . S
C1646 C1640 1.465 . S
C1646 C1645 1.396 . S
C1646 C1647 1.399 . S
C1647 H1633 0.929 . S
C1647 C1646 1.399 . S
C1647 C1648 1.385 . S
C1648 H1634 0.931 . S
C1648 C1647 1.385 . S
C1648 C1649 1.389 . S
C1649 C1648 1.389 . S
C1649 C1650 1.387 . S
C1650 H1635 0.930 . S
C1650 C1645 1.390 . S
C1650 C1649 1.387 . S
H1651 C1663 0.930 . S
H1652 C1665 0.930 . S
H1653 C1666 0.930 . S
H1654 C1670 0.959 . S
H1655 C1670 0.959 . S
H1656 C1670 0.961 . S
H1657 C1671 0.960 . S
H1658 C1671 0.961 . S
H1659 C1671 0.959 . S
H1660 C1674 0.929 . S
H1661 C1675 0.931 . S
H1662 C1677 0.930 . S
C1663 H1651 0.930 . S
C1663 C1664 1.399 . S
C1663 C1668 1.399 . S
C1664 C1663 1.399 . S
C1664 C1665 1.376 . S
C1665 H1652 0.930 . S
C1665 C1664 1.376 . S
C1665 C1666 1.388 . S
C1666 H1653 0.930 . S
C1666 C1665 1.388 . S
C1666 C1667 1.390 . S
C1667 C1666 1.390 . S
C1667 C1668 1.394 . S
C1667 C1673 1.465 . S
C1668 C1663 1.399 . S
C1668 C1667 1.394 . S
C1668 C1669 1.516 . S
C1669 C1668 1.516 . S
C1669 C1670 1.502 . S
C1669 C1671 1.561 . S
C1669 C1672 1.526 . S
C1670 H1654 0.959 . S
C1670 H1655 0.959 . S
C1670 H1656 0.961 . S
C1670 C1669 1.502 . S
C1671 H1657 0.960 . S
C1671 H1658 0.961 . S
C1671 H1659 0.959 . S
C1671 C1669 1.561 . S
C1672 C1669 1.526 . S
C1672 C1673 1.396 . S
C1672 C1677 1.390 . S
C1673 C1667 1.465 . S
C1673 C1672 1.396 . S
C1673 C1674 1.399 . S
C1674 H1660 0.929 . S
C1674 C1673 1.399 . S
C1674 C1675 1.385 . S
C1675 H1661 0.931 . S
C1675 C1674 1.385 . S
C1675 C1676 1.389 . S
C1676 C1675 1.389 . S
C1676 C1677 1.387 . S
C1677 H1662 0.930 . S
C1677 C1672 1.390 . S
C1677 C1676 1.387 . S
H1678 C1690 0.930 . S
H1679 C1692 0.930 . S
H1680 C1693 0.930 . S
H1681 C1697 0.959 . S
H1682 C1697 0.959 . S
H1683 C1697 0.961 . S
H1684 C1698 0.960 . S
H1685 C1698 0.961 . S
H1686 C1698 0.959 . S
H1687 C1701 0.929 . S
H1688 C1702 0.931 . S
H1689 C1704 0.930 . S
C1690 H1678 0.930 . S
C1690 C1691 1.399 . S
C1690 C1695 1.399 . S
C1691 C1690 1.399 . S
C1691 C1692 1.376 . S
C1692 H1679 0.930 . S
C1692 C1691 1.376 . S
C1692 C1693 1.388 . S
C1693 H1680 0.930 . S
C1693 C1692 1.388 . S
C1693 C1694 1.390 . S
C1694 C1693 1.390 . S
C1694 C1695 1.394 . S
C1694 C1700 1.465 . S
C1695 C1690 1.399 . S
C1695 C1694 1.394 . S
C1695 C1696 1.516 . S
C1696 C1695 1.516 . S
C1696 C1697 1.502 . S
C1696 C1698 1.561 . S
C1696 C1699 1.526 . S
C1697 H1681 0.959 . S
C1697 H1682 0.959 . S
C1697 H1683 0.961 . S
C1697 C1696 1.502 . S
C1698 H1684 0.960 . S
C1698 H1685 0.961 . S
C1698 H1686 0.959 . S
C1698 C1696 1.561 . S
C1699 C1696 1.526 . S
C1699 C1700 1.396 . S
C1699 C1704 1.390 . S
C1700 C1694 1.465 . S
C1700 C1699 1.396 . S
C1700 C1701 1.399 . S
C1701 H1687 0.929 . S
C1701 C1700 1.399 . S
C1701 C1702 1.385 . S
C1702 H1688 0.931 . S
C1702 C1701 1.385 . S
C1702 C1703 1.389 . S
C1703 C1702 1.389 . S
C1703 C1704 1.387 . S
C1704 H1689 0.930 . S
C1704 C1699 1.390 . S
C1704 C1703 1.387 . S
H1705 C1717 0.930 . S
H1706 C1719 0.930 . S
H1707 C1720 0.930 . S
H1708 C1724 0.959 . S
H1709 C1724 0.959 . S
H1710 C1724 0.961 . S
H1711 C1725 0.960 1_455 S
H1712 C1725 0.961 . S
H1713 C1725 0.959 . S
H1714 C1728 0.929 . S
H1715 C1729 0.931 . S
H1716 C1731 0.930 . S
C1717 H1705 0.930 . S
C1717 C1718 1.399 . S
C1717 C1722 1.399 . S
C1718 C1717 1.399 . S
C1718 C1719 1.376 . S
C1719 H1706 0.930 . S
C1719 C1718 1.376 . S
C1719 C1720 1.388 1_454 S
C1720 H1707 0.930 . S
C1720 C1719 1.388 1_656 S
C1720 C1721 1.390 1_556 S
C1721 C1720 1.390 1_554 S
C1721 C1722 1.394 1_655 S
C1721 C1727 1.465 1_554 S
C1722 C1717 1.399 . S
C1722 C1721 1.394 1_455 S
C1722 C1723 1.516 . S
C1723 C1722 1.516 . S
C1723 C1724 1.502 . S
C1723 C1725 1.561 1_455 S
C1723 C1726 1.526 1_454 S
C1724 H1708 0.959 . S
C1724 H1709 0.959 . S
C1724 H1710 0.961 . S
C1724 C1723 1.502 . S
C1725 H1711 0.960 1_655 S
C1725 H1712 0.961 . S
C1725 H1713 0.959 . S
C1725 C1723 1.561 1_655 S
C1726 C1723 1.526 1_656 S
C1726 C1727 1.396 . S
C1726 C1731 1.390 . S
C1727 C1721 1.465 1_556 S
C1727 C1726 1.396 . S
C1727 C1728 1.399 . S
C1728 H1714 0.929 . S
C1728 C1727 1.399 . S
C1728 C1729 1.385 . S
C1729 H1715 0.931 . S
C1729 C1728 1.385 . S
C1729 C1730 1.389 . S
C1730 C1729 1.389 . S
C1730 C1731 1.387 . S
C1731 H1716 0.930 . S
C1731 C1726 1.390 . S
C1731 C1730 1.387 . S
H1732 C1744 0.930 . S
H1733 C1746 0.930 . S
H1734 C1747 0.930 . S
H1735 C1751 0.959 . S
H1736 C1751 0.959 . S
H1737 C1751 0.961 . S
H1738 C1752 0.960 . S
H1739 C1752 0.961 . S
H1740 C1752 0.959 . S
H1741 C1755 0.929 . S
H1742 C1756 0.931 . S
H1743 C1758 0.930 . S
C1744 H1732 0.930 . S
C1744 C1745 1.399 . S
C1744 C1749 1.399 . S
C1745 C1744 1.399 . S
C1745 C1746 1.376 . S
C1746 H1733 0.930 . S
C1746 C1745 1.376 . S
C1746 C1747 1.388 . S
C1747 H1734 0.930 . S
C1747 C1746 1.388 . S
C1747 C1748 1.390 . S
C1748 C1747 1.390 . S
C1748 C1749 1.394 . S
C1748 C1754 1.465 . S
C1749 C1744 1.399 . S
C1749 C1748 1.394 . S
C1749 C1750 1.516 . S
C1750 C1749 1.516 . S
C1750 C1751 1.502 . S
C1750 C1752 1.561 . S
C1750 C1753 1.526 . S
C1751 H1735 0.959 . S
C1751 H1736 0.959 . S
C1751 H1737 0.961 . S
C1751 C1750 1.502 . S
C1752 H1738 0.960 . S
C1752 H1739 0.961 . S
C1752 H1740 0.959 . S
C1752 C1750 1.561 . S
C1753 C1750 1.526 . S
C1753 C1754 1.396 . S
C1753 C1758 1.390 . S
C1754 C1748 1.465 . S
C1754 C1753 1.396 . S
C1754 C1755 1.399 . S
C1755 H1741 0.929 . S
C1755 C1754 1.399 . S
C1755 C1756 1.385 . S
C1756 H1742 0.931 . S
C1756 C1755 1.385 . S
C1756 C1757 1.389 . S
C1757 C1756 1.389 . S
C1757 C1758 1.387 . S
C1758 H1743 0.930 . S
C1758 C1753 1.390 . S
C1758 C1757 1.387 . S
H1759 C1771 0.930 . S
H1760 C1773 0.930 . S
H1761 C1774 0.930 . S
H1762 C1778 0.959 . S
H1763 C1778 0.959 . S
H1764 C1778 0.961 . S
H1765 C1779 0.960 . S
H1766 C1779 0.961 . S
H1767 C1779 0.959 . S
H1768 C1782 0.929 . S
H1769 C1783 0.931 . S
H1770 C1785 0.930 . S
C1771 H1759 0.930 . S
C1771 C1772 1.399 . S
C1771 C1776 1.399 . S
C1772 C1771 1.399 . S
C1772 C1773 1.376 . S
C1773 H1760 0.930 . S
C1773 C1772 1.376 . S
C1773 C1774 1.388 . S
C1774 H1761 0.930 . S
C1774 C1773 1.388 . S
C1774 C1775 1.390 . S
C1775 C1774 1.390 . S
C1775 C1776 1.394 . S
C1775 C1781 1.465 . S
C1776 C1771 1.399 . S
C1776 C1775 1.394 . S
C1776 C1777 1.516 . S
C1777 C1776 1.516 . S
C1777 C1778 1.502 . S
C1777 C1779 1.561 . S
C1777 C1780 1.526 . S
C1778 H1762 0.959 . S
C1778 H1763 0.959 . S
C1778 H1764 0.961 . S
C1778 C1777 1.502 . S
C1779 H1765 0.960 . S
C1779 H1766 0.961 . S
C1779 H1767 0.959 . S
C1779 C1777 1.561 . S
C1780 C1777 1.526 . S
C1780 C1781 1.396 . S
C1780 C1785 1.390 . S
C1781 C1775 1.465 . S
C1781 C1780 1.396 . S
C1781 C1782 1.399 . S
C1782 H1768 0.929 . S
C1782 C1781 1.399 . S
C1782 C1783 1.385 . S
C1783 H1769 0.931 . S
C1783 C1782 1.385 . S
C1783 C1784 1.389 . S
C1784 C1783 1.389 . S
C1784 C1785 1.387 . S
C1785 H1770 0.930 . S
C1785 C1780 1.390 . S
C1785 C1784 1.387 . S
H1786 C1798 0.930 . S
H1787 C1800 0.930 . S
H1788 C1801 0.930 1_565 S
H1789 C1805 0.959 . S
H1790 C1805 0.959 . S
H1791 C1805 0.961 . S
H1792 C1806 0.960 . S
H1793 C1806 0.961 . S
H1794 C1806 0.959 . S
H1795 C1809 0.929 . S
H1796 C1810 0.931 . S
H1797 C1812 0.930 . S
C1798 H1786 0.930 . S
C1798 C1799 1.399 . S
C1798 C1803 1.399 . S
C1799 C1798 1.399 . S
C1799 C1800 1.376 . S
C1800 H1787 0.930 . S
C1800 C1799 1.376 . S
C1800 C1801 1.388 1_455 S
C1801 H1788 0.930 1_545 S
C1801 C1800 1.388 1_655 S
C1801 C1802 1.390 . S
C1802 C1801 1.390 . S
C1802 C1803 1.394 1_655 S
C1802 C1808 1.465 1_545 S
C1803 C1798 1.399 . S
C1803 C1802 1.394 1_455 S
C1803 C1804 1.516 1_556 S
C1804 C1803 1.516 1_554 S
C1804 C1805 1.502 . S
C1804 C1806 1.561 1_455 S
C1804 C1807 1.526 1_445 S
C1805 H1789 0.959 . S
C1805 H1790 0.959 . S
C1805 H1791 0.961 . S
C1805 C1804 1.502 . S
C1806 H1792 0.960 . S
C1806 H1793 0.961 . S
C1806 H1794 0.959 . S
C1806 C1804 1.561 1_655 S
C1807 C1804 1.526 1_665 S
C1807 C1808 1.396 1_554 S
C1807 C1812 1.390 . S
C1808 C1802 1.465 1_565 S
C1808 C1807 1.396 1_556 S
C1808 C1809 1.399 . S
C1809 H1795 0.929 . S
C1809 C1808 1.399 . S
C1809 C1810 1.385 1_556 S
C1810 H1796 0.931 . S
C1810 C1809 1.385 1_554 S
C1810 C1811 1.389 . S
C1811 C1810 1.389 . S
C1811 C1812 1.387 . S
C1812 H1797 0.930 . S
C1812 C1807 1.390 . S
C1812 C1811 1.387 . S
H1813 C1825 0.930 . S
H1814 C1827 0.930 . S
H1815 C1828 0.930 . S
H1816 C1832 0.959 . S
H1817 C1832 0.959 . S
H1818 C1832 0.961 . S
H1819 C1833 0.960 . S
H1820 C1833 0.961 . S
H1821 C1833 0.959 . S
H1822 C1836 0.929 1_545 S
H1823 C1837 0.931 . S
H1824 C1839 0.930 . S
C1825 H1813 0.930 . S
C1825 C1826 1.399 . S
C1825 C1830 1.399 . S
C1826 C1825 1.399 . S
C1826 C1827 1.376 . S
C1827 H1814 0.930 . S
C1827 C1826 1.376 . S
C1827 C1828 1.388 . S
C1828 H1815 0.930 . S
C1828 C1827 1.388 . S
C1828 C1829 1.390 . S
C1829 C1828 1.390 . S
C1829 C1830 1.394 . S
C1829 C1835 1.465 1_545 S
C1830 C1825 1.399 . S
C1830 C1829 1.394 . S
C1830 C1831 1.516 1_545 S
C1831 C1830 1.516 1_565 S
C1831 C1832 1.502 . S
C1831 C1833 1.561 . S
C1831 C1834 1.526 . S
C1832 H1816 0.959 . S
C1832 H1817 0.959 . S
C1832 H1818 0.961 . S
C1832 C1831 1.502 . S
C1833 H1819 0.960 . S
C1833 H1820 0.961 . S
C1833 H1821 0.959 . S
C1833 C1831 1.561 . S
C1834 C1831 1.526 . S
C1834 C1835 1.396 . S
C1834 C1839 1.390 . S
C1835 C1829 1.465 1_565 S
C1835 C1834 1.396 . S
C1835 C1836 1.399 . S
C1836 H1822 0.929 1_565 S
C1836 C1835 1.399 . S
C1836 C1837 1.385 . S
C1837 H1823 0.931 . S
C1837 C1836 1.385 . S
C1837 C1838 1.389 . S
C1838 C1837 1.389 . S
C1838 C1839 1.387 . S
C1839 H1824 0.930 . S
C1839 C1834 1.390 . S
C1839 C1838 1.387 . S
C557 C17 1.865 . S
C569 C357 1.843 . S
C584 C51 1.856 . S
C596 C391 1.868 . S
C611 C85 1.843 . S
C623 C289 1.829 . S
C638 C119 1.859 . S
C650 C323 1.867 . S
C665 C144 1.866 . S
C677 C484 1.857 . S
C692 C178 1.832 . S
C704 C518 1.829 . S
C719 C212 1.829 . S
C731 C416 1.839 . S
C746 C246 1.867 . S
C758 C450 1.858 . S
C773 C310 1.058 . S
C785 C8 1.031 . S
C800 C344 1.037 . S
C812 C42 1.037 . S
C827 C378 1.055 . S
C839 C76 1.032 . S
C854 C276 1.000 . S
C866 C110 1.027 . S
C881 C153 1.035 . S
C893 C455 1.059 . S
C908 C489 0.966 . S
C920 C187 1.038 . S
C935 C523 0.963 . S
C947 C221 1.037 . S
C962 C421 1.050 . S
C974 C255 1.039 . S
C989 C38 1.050 . S
C1001 C280 1.034 . S
C1016 C314 1.038 . S
C1028 C72 0.958 . S
C1043 C348 1.041 . S
C1055 C106 0.968 . S
C1070 C382 1.035 . S
C1082 C4 0.961 . S
C1097 C425 1.038 . S
C1109 C183 0.967 . S
C1124 C217 0.957 . S
C1136 C459 1.034 . S
C1151 C251 0.963 . S
C1163 C493 1.028 . S
C1178 C527 1.025 . S
C1190 C149 0.981 . S
C1205 C29 1.206 1_556 S
C1217 C514 1.184 . S
C1232 C63 1.246 . S
C1244 C140 1.134 . S
C1259 C446 1.199 . S
C1271 C97 1.204 . S
C1286 C208 1.164 . S
C1298 C131 1.252 . S
C1313 C136 1.246 1_554 S
C1325 C387 1.133 . S
C1340 C170 1.244 . S
C1352 C13 1.169 . S
C1367 C319 1.141 . S
C1379 C204 1.251 . S
C1394 C81 1.237 . S
C1406 C238 1.206 . S
C1421 C301 1.205 . S
C1433 C242 1.193 . S
C1448 C335 1.252 . S
C1460 C412 1.149 . S
C1475 C174 1.143 . S
C1487 C369 1.223 1_556 S
C1502 C480 1.185 . S
C1514 C403 1.207 . S
C1529 C408 1.203 . S
C1541 C115 1.232 . S
C1556 C442 1.238 . S
C1568 C285 1.184 . S
C1583 C476 1.238 . S
C1595 C47 1.198 . S
C1610 C353 1.233 . S
C1622 C510 1.212 . S
C1637 C0 2.109 . S
C1649 C437 2.132 . S
C1664 C34 2.133 . S
C1676 C199 2.112 . S
C1691 C68 2.114 . S
C1703 C505 2.131 . S
C1718 C267 2.131 . S
C1730 C102 2.110 . S
C1745 C165 2.133 . S
C1757 C272 2.111 . S
C1772 C340 2.109 . S
C1784 C233 2.132 . S
C1799 C306 2.116 . S
C1811 C471 2.129 . S
C1826 C539 2.125 . S
C1838 C374 2.114 . S
