# Generated by pormake.
# Topology wmn, (6)-cn, num edge types: 1
# Building blocks:
#     Node 0, Type 0, BuildingBlock: KUMBUR_clean_sbu_1, # of connection points: 6
#     Node 1, Type 0, BuildingBlock: KUMBUR_clean_sbu_1, # of connection points: 6
#     Node 2, Type 0, BuildingBlock: KUMBUR_clean_sbu_1, # of connection points: 6
#     Node 3, Type 0, BuildingBlock: KUMBUR_clean_sbu_1, # of connection points: 6
#     Node 4, Type 0, BuildingBlock: KUMBUR_clean_sbu_1, # of connection points: 6
#     Node 5, Type 0, BuildingBlock: KUMBUR_clean_sbu_1, # of connection points: 6
#     Node 6, Type 0, BuildingBlock: KUMBUR_clean_sbu_1, # of connection points: 6
#     Node 7, Type 0, BuildingBlock: KUMBUR_clean_sbu_1, # of connection points: 6
#     Node 8, Type 0, BuildingBlock: KUMBUR_clean_sbu_1, # of connection points: 6
#     Node 9, Type 0, BuildingBlock: KUMBUR_clean_sbu_1, # of connection points: 6
#     Node 10, Type 0, BuildingBlock: KUMBUR_clean_sbu_1, # of connection points: 6
#     Node 11, Type 0, BuildingBlock: KUMBUR_clean_sbu_1, # of connection points: 6
#     Edge 12, Type (0, 0), BuildingBlock: OJICUG_clean_linker_0, # of connection points: 2
#     Edge 13, Type (0, 0), BuildingBlock: OJICUG_clean_linker_0, # of connection points: 2
#     Edge 14, Type (0, 0), BuildingBlock: OJICUG_clean_linker_0, # of connection points: 2
#     Edge 15, Type (0, 0), BuildingBlock: OJICUG_clean_linker_0, # of connection points: 2
#     Edge 16, Type (0, 0), BuildingBlock: OJICUG_clean_linker_0, # of connection points: 2
#     Edge 17, Type (0, 0), BuildingBlock: OJICUG_clean_linker_0, # of connection points: 2
#     Edge 18, Type (0, 0), BuildingBlock: OJICUG_clean_linker_0, # of connection points: 2
#     Edge 19, Type (0, 0), BuildingBlock: OJICUG_clean_linker_0, # of connection points: 2
#     Edge 20, Type (0, 0), BuildingBlock: OJICUG_clean_linker_0, # of connection points: 2
#     Edge 21, Type (0, 0), BuildingBlock: OJICUG_clean_linker_0, # of connection points: 2
#     Edge 22, Type (0, 0), BuildingBlock: OJICUG_clean_linker_0, # of connection points: 2
#     Edge 23, Type (0, 0), BuildingBlock: OJICUG_clean_linker_0, # of connection points: 2
#     Edge 24, Type (0, 0), BuildingBlock: OJICUG_clean_linker_0, # of connection points: 2
#     Edge 25, Type (0, 0), BuildingBlock: OJICUG_clean_linker_0, # of connection points: 2
#     Edge 26, Type (0, 0), BuildingBlock: OJICUG_clean_linker_0, # of connection points: 2
#     Edge 27, Type (0, 0), BuildingBlock: OJICUG_clean_linker_0, # of connection points: 2
#     Edge 28, Type (0, 0), BuildingBlock: OJICUG_clean_linker_0, # of connection points: 2
#     Edge 29, Type (0, 0), BuildingBlock: OJICUG_clean_linker_0, # of connection points: 2
#     Edge 30, Type (0, 0), BuildingBlock: OJICUG_clean_linker_0, # of connection points: 2
#     Edge 31, Type (0, 0), BuildingBlock: OJICUG_clean_linker_0, # of connection points: 2
#     Edge 32, Type (0, 0), BuildingBlock: OJICUG_clean_linker_0, # of connection points: 2
#     Edge 33, Type (0, 0), BuildingBlock: OJICUG_clean_linker_0, # of connection points: 2
#     Edge 34, Type (0, 0), BuildingBlock: OJICUG_clean_linker_0, # of connection points: 2
#     Edge 35, Type (0, 0), BuildingBlock: OJICUG_clean_linker_0, # of connection points: 2
#     Edge 36, Type (0, 0), BuildingBlock: OJICUG_clean_linker_0, # of connection points: 2
#     Edge 37, Type (0, 0), BuildingBlock: OJICUG_clean_linker_0, # of connection points: 2
#     Edge 38, Type (0, 0), BuildingBlock: OJICUG_clean_linker_0, # of connection points: 2
#     Edge 39, Type (0, 0), BuildingBlock: OJICUG_clean_linker_0, # of connection points: 2
#     Edge 40, Type (0, 0), BuildingBlock: OJICUG_clean_linker_0, # of connection points: 2
#     Edge 41, Type (0, 0), BuildingBlock: OJICUG_clean_linker_0, # of connection points: 2
#     Edge 42, Type (0, 0), BuildingBlock: OJICUG_clean_linker_0, # of connection points: 2
#     Edge 43, Type (0, 0), BuildingBlock: OJICUG_clean_linker_0, # of connection points: 2
#     Edge 44, Type (0, 0), BuildingBlock: OJICUG_clean_linker_0, # of connection points: 2
#     Edge 45, Type (0, 0), BuildingBlock: OJICUG_clean_linker_0, # of connection points: 2
#     Edge 46, Type (0, 0), BuildingBlock: OJICUG_clean_linker_0, # of connection points: 2
#     Edge 47, Type (0, 0), BuildingBlock: OJICUG_clean_linker_0, # of connection points: 2
# Relax obj value: 0.145
# Max RMSD: 0.311
# Mean RMSD: 0.311
data_MOF--net-wmn--node1-KUMBUR_clean_sbu_1--edge1-OJICUG_clean_linker_0
_symmetry_space_group_name_H-M    P1
_symmetry_Int_Tables_number       1
_symmetry_cell_setting            triclinic
loop_
_symmetry_equiv_pos_as_xyz
'x, y, z'
_cell_length_a     47.349497
_cell_length_b     47.37803
_cell_length_c     17.17548
_cell_angle_alpha  89.979989
_cell_angle_beta   89.999435
_cell_angle_gamma 119.95744
loop_
_atom_site_label
_atom_site_type_symbol
_atom_site_fract_x
_atom_site_fract_y
_atom_site_fract_z
_atom_type_partial_charge
Tb0 Tb 0.13047 0.40451 0.08614 0.0
C1 C 0.09031 0.24605 0.10302 0.0
N2 N 0.10446 0.27073 0.15504 0.0
C3 C 0.07755 0.23309 0.25979 0.0
C4 C 0.06809 0.21399 0.12673 0.0
C5 C 0.0994 0.26453 0.23309 0.0
C6 C 0.06144 0.20778 0.20623 0.0
C7 C 0.08752 0.22775 0.9705 0.0
C8 C 0.09972 0.25285 0.02644 0.0
C9 C 0.06395 0.196 0.99255 0.0
C10 C 0.05423 0.18912 0.07067 0.0
Tb11 Tb 0.13973 0.32134 0.10653 0.0
N12 N 0.12253 0.28377 1.00797 0.0
C13 C 0.10048 0.23509 0.89521 0.0
C14 C 0.13681 0.29059 0.93603 0.0
C15 C 0.12581 0.26646 0.8785 0.0
H16 H 0.11184 0.28408 0.27469 0.0
H17 H 0.13691 0.27198 0.82142 0.0
H18 H 0.18437 0.44754 0.94625 0.0
H19 H 0.12282 0.42957 0.39022 0.0
H20 H 0.15638 0.31481 0.92286 0.0
H21 H 0.09201 0.21647 0.85056 0.0
H22 H 0.10435 0.39711 0.27021 0.0
H23 H 0.07313 0.22841 0.32155 0.0
H24 H 0.05391 0.17643 0.95024 0.0
H25 H 0.03678 0.16436 0.08746 0.0
H26 H 0.23589 0.4994 0.93692 0.0
H27 H 0.04473 0.18341 0.22689 0.0
H28 H 0.17358 0.48306 0.39031 0.0
N29 N 0.17884 0.45156 0.06834 0.0
C30 C 0.19018 0.47128 0.132 0.0
C31 C 0.22348 0.49158 0.99237 0.0
C32 C 0.21928 0.50159 0.12865 0.0
C33 C 0.19445 0.46176 0.99835 0.0
C34 C 0.23609 0.51147 0.05787 0.0
N35 N 0.14468 0.43142 0.20235 0.0
C36 C 0.12669 0.42019 0.26901 0.0
C37 C 0.18374 0.48048 0.26841 0.0
C38 C 0.1724 0.46107 0.20092 0.0
C39 C 0.16565 0.46889 0.33715 0.0
C40 C 0.13701 0.43865 0.33738 0.0
H41 H 0.25851 0.53461 0.05286 0.0
H42 H 0.25284 0.54449 0.19417 0.0
H43 H 0.22191 0.52588 0.3166 0.0
O44 O 0.09761 0.42144 0.10979 0.0
O45 O 0.16978 0.40489 0.16076 0.0
O46 O 0.14412 0.35241 0.2033 0.0
O47 O 0.12086 0.43037 0.99902 0.0
O48 O 0.09229 0.36433 0.15552 0.0
O49 O 0.09793 0.31789 0.1745 0.0
O50 O 0.1832 0.32262 0.07247 0.0
O51 O 0.11474 0.32715 1.00624 0.0
O52 O 0.09109 0.35803 0.03903 0.0
O53 O 0.16649 0.3117 0.18987 0.0
O54 O 0.17541 0.36883 0.05473 0.0
O55 O 0.1512 0.39209 0.9853 0.0
C56 C 0.16785 0.38228 0.20925 0.0
C57 C 0.10246 0.46712 0.0398 0.0
C58 C 0.07571 0.50062 0.0274 0.0
C59 C 0.10647 0.52854 0.0384 0.0
C60 C 0.13243 0.49569 0.05038 0.0
C61 C 0.13436 0.52604 0.04969 0.0
C62 C 0.07403 0.46971 0.02785 0.0
C63 C 0.08254 0.33481 0.1845 0.0
C64 C 0.10061 0.43468 0.0419 0.0
C65 C 0.2305 0.52114 0.19564 0.0
C66 C 0.21283 0.51059 0.26534 0.0
C67 C 0.08958 0.33168 0.00893 0.0
C68 C 0.19353 0.28501 0.13886 0.0
C69 C 0.23116 0.26397 0.12478 0.0
C70 C 0.20526 0.23245 0.14064 0.0
C71 C 0.16817 0.25317 0.15369 0.0
C72 C 0.22504 0.29026 0.12396 0.0
C73 C 0.17405 0.22717 0.15479 0.0
C74 C 0.1721 0.38134 0.98908 0.0
C75 C 0.18748 0.3128 0.13959 0.0
H76 H 0.10922 0.55264 0.03689 0.0
H77 H 0.15447 0.49463 0.05886 0.0
H78 H 0.15774 0.54789 0.05763 0.0
H79 H 0.05072 0.44773 0.01995 0.0
H80 H 0.20893 0.21166 0.14067 0.0
H81 H 0.14392 0.24828 0.16638 0.0
H82 H 0.24474 0.31476 0.1125 0.0
H83 H 0.15429 0.2028 0.16678 0.0
Tb84 Tb 0.6237 0.72917 0.09105 0.0
C85 C 0.78085 0.84458 0.09594 0.0
N86 N 0.75629 0.8361 0.14751 0.0
C87 C 0.79335 0.84738 0.25381 0.0
C88 C 0.81265 0.85388 0.12099 0.0
C89 C 0.76221 0.83839 0.22587 0.0
C90 C 0.8186 0.85473 0.20108 0.0
C91 C 0.79982 0.85809 0.96302 0.0
C92 C 0.77454 0.84665 0.01848 0.0
C93 C 0.83121 0.86547 0.98659 0.0
C94 C 0.83763 0.86339 0.06554 0.0
Tb95 Tb 0.70627 0.82114 0.09664 0.0
N96 N 0.74414 0.84003 0.99876 0.0
C97 C 0.7931 0.86322 0.88656 0.0
C98 C 0.73802 0.84711 0.92557 0.0
C99 C 0.76222 0.85832 0.86822 0.0
H100 H 0.74263 0.83257 0.26663 0.0
H101 H 0.757 0.8632 0.8101 0.0
H102 H 0.57759 0.73773 0.95438 0.0
H103 H 0.6038 0.6999 0.39752 0.0
H104 H 0.71413 0.84323 0.91111 0.0
H105 H 0.81184 0.87205 0.84211 0.0
H106 H 0.63393 0.71207 0.27399 0.0
H107 H 0.79785 0.84862 0.31584 0.0
H108 H 0.85092 0.87393 0.94476 0.0
H109 H 0.86218 0.87026 0.0834 0.0
H110 H 0.526 0.73804 0.95031 0.0
H111 H 0.84276 0.86204 0.22281 0.0
H112 H 0.55078 0.6982 0.4031 0.0
N113 N 0.57636 0.73057 0.07742 0.0
C114 C 0.55796 0.72341 0.14324 0.0
C115 C 0.53493 0.73433 1.00517 0.0
C116 C 0.52776 0.72255 0.1429 0.0
C117 C 0.56467 0.73479 1.00818 0.0
C118 C 0.51653 0.7285 0.07289 0.0
N119 N 0.59868 0.71785 0.20966 0.0
C120 C 0.61096 0.7116 0.27522 0.0
C121 C 0.55121 0.70952 0.2808 0.0
C122 C 0.56927 0.71647 0.21125 0.0
C123 C 0.5639 0.70357 0.34843 0.0
C124 C 0.59386 0.70457 0.34554 0.0
H125 H 0.49343 0.728 0.07018 0.0
H126 H 0.48636 0.71476 0.21285 0.0
H127 H 0.50705 0.70371 0.33368 0.0
O128 O 0.60826 0.67999 0.11811 0.0
O129 O 0.62554 0.76883 0.16661 0.0
O130 O 0.67926 0.79731 0.20172 0.0
O131 O 0.59587 0.69227 0.00882 0.0
O132 O 0.66548 0.73262 0.15651 0.0
O133 O 0.71368 0.78406 0.1577 0.0
O134 O 0.70942 0.86462 0.05557 0.0
O135 O 0.69928 0.78992 0.99574 0.0
O136 O 0.66888 0.73623 0.03608 0.0
O137 O 0.71255 0.85744 0.17716 0.0
O138 O 0.65716 0.80723 0.05349 0.0
O139 O 0.63319 0.75977 0.98661 0.0
C140 C 0.64899 0.78933 0.21367 0.0
C141 C 0.56106 0.63789 0.05541 0.0
C142 C 0.52792 0.57777 0.04321 0.0
C143 C 0.50013 0.5801 0.06117 0.0
C144 C 0.53272 0.63888 0.07323 0.0
C145 C 0.50258 0.61024 0.07605 0.0
C146 C 0.55855 0.60718 0.04017 0.0
C147 C 0.69649 0.75255 0.17582 0.0
C148 C 0.59322 0.6686 0.05251 0.0
C149 C 0.50957 0.71543 0.21201 0.0
C150 C 0.5213 0.70902 0.28079 0.0
C151 C 0.69386 0.75989 0.99851 0.0
C152 C 0.74178 0.91176 0.13047 0.0
C153 C 0.76201 0.97054 0.12298 0.0
C154 C 0.79316 0.9762 0.14402 0.0
C155 C 0.77319 0.91832 0.15056 0.0
C156 C 0.7363 0.93798 0.11638 0.0
C157 C 0.79864 0.95031 0.15735 0.0
C158 C 0.6442 0.79136 0.98853 0.0
C159 C 0.7146 0.87784 0.12394 0.0
H160 H 0.47616 0.5586 0.06245 0.0
H161 H 0.53378 0.6618 0.08456 0.0
H162 H 0.48086 0.61142 0.08945 0.0
H163 H 0.58044 0.60626 0.02686 0.0
H164 H 0.81363 1.0007 0.14871 0.0
H165 H 0.77817 0.89884 0.16152 0.0
H166 H 0.71204 0.93295 0.10093 0.0
H167 H 0.82279 0.95508 0.17293 0.0
Tb168 Tb 0.30242 0.89891 0.09679 0.0
C169 C 0.19135 0.94614 0.07824 0.0
N170 N 0.1987 0.93157 0.13623 0.0
C171 C 0.18802 0.9624 0.2309 0.0
C172 C 0.1831 0.97035 0.09375 0.0
C173 C 0.19575 0.93827 0.21224 0.0
C174 C 0.18224 0.97894 0.17127 0.0
C175 C 0.17827 0.9462 0.94236 0.0
C176 C 0.1891 0.93441 1.00412 0.0
C177 C 0.17183 0.97169 0.95617 0.0
C178 C 0.1744 0.98387 0.03183 0.0
Tb179 Tb 0.21207 0.89313 0.10106 0.0
N180 N 0.19477 0.90934 0.99408 0.0
C181 C 0.17278 0.93099 0.86976 0.0
C182 C 0.18751 0.89312 0.92457 0.0
C183 C 0.17696 0.90399 0.86114 0.0
H184 H 0.2002 0.9255 0.25856 0.0
H185 H 0.17198 0.89146 0.8059 0.0
H186 H 0.2918 0.84083 0.96916 0.0
H187 H 0.32867 0.91281 0.40599 0.0
H188 H 0.19057 0.87223 0.91771 0.0
H189 H 0.16419 0.93914 0.82106 0.0
H190 H 0.31873 0.92957 0.27858 0.0
H191 H 0.18652 0.96817 0.29119 0.0
H192 H 0.16381 0.98135 0.90936 0.0
H193 H 0.16833 1.00277 0.04228 0.0
H194 H 0.28982 0.78809 0.9737 0.0
H195 H 0.17592 0.99736 0.18569 0.0
H196 H 0.32851 0.86079 0.41988 0.0
N197 N 0.29907 0.84921 0.09153 0.0
C198 C 0.30577 0.83908 0.15982 0.0
C199 C 0.29389 0.80199 0.02665 0.0
C200 C 0.30544 0.8092 0.16454 0.0
C201 C 0.29442 0.83176 0.0247 0.0
C202 C 0.29912 0.79051 0.09694 0.0
N203 N 0.31199 0.88698 0.2196 0.0
C204 C 0.31816 0.90662 0.28307 0.0
C205 C 0.3183 0.84819 0.29796 0.0
C206 C 0.31255 0.85857 0.22577 0.0
C207 C 0.32404 0.86795 0.36335 0.0
C208 C 0.32405 0.8973 0.35577 0.0
H209 H 0.29872 0.76744 0.09813 0.0
H210 H 0.31124 0.77605 0.24101 0.0
H211 H 0.32219 0.80999 0.35779 0.0
O212 O 0.35238 0.92477 0.12652 0.0
O213 O 0.26103 0.86108 0.16783 0.0
O214 O 0.23582 0.8891 0.20508 0.0
O215 O 0.33787 0.90684 0.01117 0.0
O216 O 0.30172 0.93964 0.15692 0.0
O217 O 0.24999 0.9356 0.16798 0.0
O218 O 0.16866 0.85055 0.06872 0.0
O219 O 0.24449 0.91405 1.00091 0.0
O220 O 0.29783 0.9388 0.04228 0.0
O221 O 0.175 0.86895 0.18457 0.0
O222 O 0.22221 0.85492 0.05827 0.0
O223 O 0.27091 0.87634 0.99426 0.0
C224 C 0.24172 0.86534 0.21598 0.0
C225 C 0.38969 0.95527 0.02662 0.0
C226 C 0.4486 0.99369 1.00551 0.0
C227 C 0.44019 0.01577 0.97283 0.0
C228 C 0.38265 0.97821 0.99424 0.0
C229 C 0.40768 1.0081 0.96745 0.0
C230 C 0.42283 0.96308 0.03204 0.0
C231 C 0.28203 0.95029 0.18153 0.0
C232 C 0.3626 0.92384 0.05705 0.0
C233 C 0.31148 0.79897 0.23629 0.0
C234 C 0.3178 0.81835 0.30279 0.0
C235 C 0.27396 0.93932 1.00358 0.0
C236 C 0.12109 0.84154 0.13508 0.0
C237 C 0.06249 0.80352 0.12198 0.0
C238 C 0.05656 0.82901 0.14061 0.0
C239 C 0.11445 0.86664 0.15194 0.0
C240 C 0.095 0.81004 0.11943 0.0
C241 C 0.08238 0.86031 0.15512 0.0
C242 C 0.23907 0.85626 0.99582 0.0
C243 C 0.15485 0.84748 0.13572 0.0
H244 H 0.45878 0.03903 0.95014 0.0
H245 H 0.35773 0.97306 0.98967 0.0
H246 H 0.40184 0.0255 0.94218 0.0
H247 H 0.42846 0.94563 0.05801 0.0
H248 H 0.03194 0.82494 0.14236 0.0
H249 H 0.13392 0.89105 0.16381 0.0
H250 H 0.10001 0.79058 0.10627 0.0
H251 H 0.0775 0.87978 0.16877 0.0
Tb252 Tb 0.41895 0.12769 0.42255 0.0
C253 C 0.26076 0.07933 0.42836 0.0
N254 N 0.28419 0.09569 0.37444 0.0
C255 C 0.24605 0.06658 0.27211 0.0
C256 C 0.22911 0.05511 0.40672 0.0
C257 C 0.27705 0.09058 0.29674 0.0
C258 C 0.22209 0.04843 0.32744 0.0
C259 C 0.24369 0.07493 0.5626 0.0
C260 C 0.26795 0.08896 0.50476 0.0
C261 C 0.21253 0.04942 0.54248 0.0
C262 C 0.20527 0.03945 0.46459 0.0
Tb263 Tb 0.33443 0.13335 0.42006 0.0
N264 N 0.29808 0.11401 0.52111 0.0
C265 C 0.25108 0.08799 0.63783 0.0
C266 C 0.30481 0.12817 0.59317 0.0
C267 C 0.2816 0.11518 0.65271 0.0
H268 H 0.29563 0.10456 0.25394 0.0
H269 H 0.28731 0.12621 0.70978 0.0
H270 H 0.46585 0.18281 0.55742 0.0
H271 H 0.43458 0.12017 0.11245 0.0
H272 H 0.32841 0.14909 0.60499 0.0
H273 H 0.23309 0.07802 0.68391 0.0
H274 H 0.4063 0.1013 0.23777 0.0
H275 H 0.24067 0.0621 0.21062 0.0
H276 H 0.1936 0.03803 0.58616 0.0
H277 H 0.18087 0.02048 0.44938 0.0
H278 H 0.51655 0.2355 0.55888 0.0
H279 H 0.19801 0.0301 0.30842 0.0
H280 H 0.48682 0.17212 0.10473 0.0
N281 N 0.46546 0.17718 0.43392 0.0
C282 C 0.48295 0.18872 0.36686 0.0
C283 C 0.50711 0.22282 0.50429 0.0
C284 C 0.51262 0.21857 0.36564 0.0
C285 C 0.47784 0.19309 0.50281 0.0
C286 C 0.5244 0.23579 0.43536 0.0
N287 N 0.44194 0.14219 0.30161 0.0
C288 C 0.42903 0.12392 0.23593 0.0
C289 C 0.48792 0.18232 0.22793 0.0
C290 C 0.471 0.17059 0.29879 0.0
C291 C 0.47458 0.16389 0.16034 0.0
C292 C 0.44506 0.13457 0.16444 0.0
H293 H 0.54712 0.25879 0.43685 0.0
H294 H 0.55244 0.25311 0.2932 0.0
H295 H 0.53068 0.22156 0.17264 0.0
O296 O 0.44183 0.10093 0.38993 0.0
O297 O 0.41487 0.16489 0.34973 0.0
O298 O 0.36129 0.13724 0.3144 0.0
O299 O 0.44677 0.11894 0.50562 0.0
O300 O 0.37782 0.08739 0.35954 0.0
O301 O 0.32902 0.08971 0.35888 0.0
O302 O 0.32926 0.17276 0.45875 0.0
O303 O 0.34618 0.11283 0.52077 0.0
O304 O 0.37474 0.08809 0.47868 0.0
O305 O 0.32566 0.16111 0.33772 0.0
O306 O 0.38306 0.17127 0.46109 0.0
O307 O 0.41009 0.15007 0.52593 0.0
C308 C 0.39104 0.16059 0.30229 0.0
C309 C 0.44925 0.07013 0.48825 0.0
C310 C 0.46976 0.03172 0.50942 0.0
C311 C 0.43923 1.00958 0.54177 0.0
C312 C 0.41923 0.04713 0.52029 0.0
C313 C 0.41436 0.01722 0.54694 0.0
C314 C 0.4746 0.06236 0.48303 0.0
C315 C 0.3467 0.07593 0.34033 0.0
C316 C 0.45367 0.10169 0.45849 0.0
C317 C 0.52967 0.23019 0.29521 0.0
C318 C 0.51732 0.21216 0.22656 0.0
C319 C 0.35053 0.0876 0.51821 0.0
C320 C 0.29538 0.1853 0.38323 0.0
C321 C 0.2742 0.22296 0.39149 0.0
C322 C 0.2435 0.19761 0.36757 0.0
C323 C 0.26435 0.16028 0.36122 0.0
C324 C 0.30013 0.21653 0.39881 0.0
C325 C 0.23866 0.16652 0.353 0.0
C326 C 0.39822 0.17005 0.52419 0.0
C327 C 0.32317 0.17955 0.38991 0.0
H328 H 0.43455 0.98629 0.56437 0.0
H329 H 0.39944 0.05227 0.52478 0.0
H330 H 0.3911 0.99978 0.57199 0.0
H331 H 0.49773 0.07986 0.4574 0.0
H332 H 0.22297 0.20156 0.36183 0.0
H333 H 0.25996 0.13603 0.34955 0.0
H334 H 0.32408 0.23585 0.4161 0.0
H335 H 0.21485 0.14713 0.33548 0.0
Tb336 Tb 0.90681 0.29633 0.42963 0.0
C337 C 0.95038 0.18251 0.434 0.0
N338 N 0.93517 0.19067 0.37921 0.0
C339 C 0.96403 0.18041 0.27839 0.0
C340 C 0.97394 0.17395 0.41358 0.0
C341 C 0.94072 0.18861 0.30179 0.0
C342 C 0.98109 0.17353 0.33465 0.0
C343 C 0.95304 0.16891 0.56854 0.0
C344 C 0.94013 0.18004 0.50996 0.0
C345 C 0.97803 0.16226 0.54971 0.0
C346 C 0.98847 0.16477 0.47225 0.0
Tb347 Tb 0.89844 0.20489 0.4231 0.0
N348 N 0.91557 0.18607 0.52508 0.0
C349 C 0.93939 0.16338 0.64318 0.0
C350 C 0.90072 0.17864 0.59641 0.0
C351 C 0.91267 0.16766 0.65669 0.0
H352 H 0.92763 0.19409 0.25825 0.0
H353 H 0.9012 0.16247 0.7133 0.0
H354 H 0.85379 0.28854 0.56993 0.0
H355 H 0.91277 0.3243 0.12293 0.0
H356 H 0.88019 0.18206 0.60719 0.0
H357 H 0.94851 0.15473 0.68985 0.0
H358 H 0.93209 0.31265 0.24512 0.0
H359 H 0.96888 0.17947 0.21714 0.0
H360 H 0.98858 0.15406 0.59402 0.0
H361 H 1.00693 0.15848 0.45797 0.0
H362 H 0.8019 0.28817 0.57755 0.0
H363 H 0.9989 0.16689 0.31656 0.0
H364 H 0.86135 0.32589 0.12081 0.0
N365 N 0.85826 0.29503 0.44657 0.0
C366 C 0.84624 0.30181 0.38157 0.0
C367 C 0.8139 0.2916 0.52186 0.0
C368 C 0.81689 0.30264 0.38391 0.0
C369 C 0.84316 0.29117 0.51685 0.0
C370 C 0.80053 0.29704 0.45504 0.0
N371 N 0.89179 0.30715 0.31212 0.0
C372 C 0.9096 0.31314 0.2454 0.0
C373 C 0.85182 0.31508 0.2437 0.0
C374 C 0.86372 0.30846 0.31242 0.0
C375 C 0.86972 0.32078 0.1749 0.0
C376 C 0.89874 0.31984 0.17584 0.0
H377 H 0.77795 0.29753 0.45928 0.0
H378 H 0.78247 0.31006 0.31631 0.0
H379 H 0.81285 0.3206 0.19347 0.0
O380 O 0.94004 0.34553 0.40174 0.0
O381 O 0.86883 0.25652 0.35472 0.0
O382 O 0.89475 0.22888 0.31892 0.0
O383 O 0.91635 0.33324 0.51228 0.0
O384 O 0.94533 0.29379 0.36249 0.0
O385 O 0.94235 0.24246 0.36107 0.0
O386 O 0.85654 0.16162 0.45919 0.0
O387 O 0.92259 0.23605 0.52395 0.0
O388 O 0.94533 0.28963 0.48348 0.0
O389 O 0.87163 0.16838 0.34029 0.0
O390 O 0.86244 0.21761 0.46731 0.0
O391 O 0.88602 0.26532 0.53373 0.0
C392 C 0.87181 0.23601 0.30778 0.0
C393 C 0.93549 0.38762 0.46614 0.0
C394 C 0.9626 0.44769 0.4793 0.0
C395 C 0.93252 0.44553 0.46171 0.0
C396 C 0.9062 0.38677 0.44873 0.0
C397 C 0.90478 0.41548 0.4466 0.0
C398 C 0.96373 0.41823 0.48169 0.0
C399 C 0.95652 0.27397 0.34291 0.0
C400 C 0.93694 0.3569 0.46794 0.0
C401 C 0.80503 0.30941 0.31562 0.0
C402 C 0.82239 0.31553 0.24569 0.0
C403 C 0.94699 0.26613 0.5209 0.0
C404 C 0.84517 0.11432 0.38848 0.0
C405 C 0.8071 0.05559 0.39906 0.0
C406 C 0.83277 0.04998 0.37958 0.0
C407 C 0.87028 0.10786 0.37019 0.0
C408 C 0.81361 0.08808 0.40332 0.0
C409 C 0.86404 0.0759 0.3656 0.0
C410 C 0.86531 0.23373 0.5319 0.0
C411 C 0.85137 0.14812 0.39114 0.0
H412 H 0.93017 0.46711 0.46086 0.0
H413 H 0.88432 0.36392 0.43708 0.0
H414 H 0.88191 0.41442 0.43347 0.0
H415 H 0.98651 0.41905 0.49465 0.0
H416 H 0.82891 0.02551 0.37656 0.0
H417 H 0.89466 0.12739 0.35861 0.0
H418 H 0.79416 0.09301 0.41729 0.0
H419 H 0.88356 0.07119 0.35117 0.0
Tb420 Tb 0.73851 0.6202 0.42758 0.0
C421 C 0.85714 0.77807 0.39239 0.0
N422 N 0.84654 0.75135 0.34691 0.0
C423 C 0.85726 0.78426 0.23243 0.0
C424 C 0.86708 0.80896 0.36006 0.0
C425 C 0.8475 0.75411 0.26756 0.0
C426 C 0.86668 0.81175 0.27895 0.0
C427 C 0.87234 0.80179 0.52088 0.0
C428 C 0.85975 0.77453 0.47118 0.0
C429 C 0.88069 0.83247 0.48994 0.0
C430 C 0.87811 0.83606 0.40956 0.0
Tb431 Tb 0.83129 0.70319 0.40881 0.0
N432 N 0.85138 0.7445 0.49837 0.0
C433 C 0.87721 0.79753 0.59939 0.0
C434 C 0.8582 0.74063 0.57367 0.0
C435 C 0.87076 0.76693 0.62551 0.0
H436 H 0.84021 0.73283 0.23154 0.0
H437 H 0.87558 0.76366 0.68544 0.0
H438 H 0.74871 0.57643 0.56699 0.0
H439 H 0.70632 0.59615 0.12311 0.0
H440 H 0.85343 0.71701 0.59389 0.0
H441 H 0.88695 0.81786 0.63958 0.0
H442 H 0.7203 0.62829 0.24366 0.0
H443 H 0.85752 0.78627 0.16963 0.0
H444 H 0.89004 0.85369 0.52727 0.0
H445 H 0.8855 0.85999 0.38607 0.0
H446 H 0.74802 0.52438 0.57545 0.0
H447 H 0.87449 0.83511 0.25165 0.0
H448 H 0.70323 0.54248 0.12219 0.0
N449 N 0.73949 0.5729 0.44473 0.0
C450 C 0.73117 0.55337 0.38073 0.0
C451 C 0.74364 0.53245 0.5201 0.0
C452 C 0.72975 0.52295 0.3836 0.0
C453 C 0.74463 0.56238 0.5146 0.0
C454 C 0.73643 0.51276 0.45425 0.0
N455 N 0.72587 0.59358 0.31099 0.0
C456 C 0.71936 0.60511 0.24448 0.0
C457 C 0.71573 0.54462 0.24415 0.0
C458 C 0.72377 0.56384 0.31196 0.0
C459 C 0.70945 0.5565 0.17558 0.0
C460 C 0.71125 0.58684 0.17582 0.0
H461 H 0.73555 0.48952 0.45889 0.0
H462 H 0.72029 0.48016 0.3174 0.0
H463 H 0.70834 0.49926 0.19523 0.0
O464 O 0.68889 0.60393 0.40325 0.0
O465 O 0.77734 0.61987 0.35229 0.0
O466 O 0.80479 0.67262 0.31127 0.0
O467 O 0.70264 0.59412 0.51372 0.0
O468 O 0.74126 0.6609 0.35875 0.0
O469 O 0.79328 0.70778 0.34326 0.0
O470 O 0.86731 0.70775 0.32911 0.0
O471 O 0.80043 0.69696 0.50943 0.0
O472 O 0.7459 0.66656 0.47634 0.0
O473 O 0.87435 0.706 0.45146 0.0
O474 O 0.81848 0.65524 0.45923 0.0
O475 O 0.77126 0.63187 0.52895 0.0
C476 C 0.79821 0.64264 0.30433 0.0
C477 C 0.64756 0.55804 0.47173 0.0
C478 C 0.58729 0.52486 0.48398 0.0
C479 C 0.58989 0.49686 0.47152 0.0
C480 C 0.64871 0.52941 0.45964 0.0
C481 C 0.62016 0.49918 0.45953 0.0
C482 C 0.61666 0.55565 0.48436 0.0
C483 C 0.76113 0.69077 0.33172 0.0
C484 C 0.67833 0.59034 0.47068 0.0
C485 C 0.72145 0.50358 0.31629 0.0
C486 C 0.71453 0.51441 0.24674 0.0
C487 C 0.7708 0.69266 0.5071 0.0
C488 C 0.92155 0.738 0.37663 0.0
C489 C 0.98032 0.759 0.38721 0.0
C490 C 0.98592 0.7899 0.3644 0.0
C491 C 0.92796 0.76923 0.35526 0.0
C492 C 0.94788 0.73303 0.39299 0.0
C493 C 0.95989 0.79489 0.34861 0.0
C494 C 0.80295 0.6429 0.52517 0.0
C495 C 0.88771 0.71058 0.38329 0.0
H496 H 0.56844 0.47284 0.47239 0.0
H497 H 0.6717 0.53031 0.45062 0.0
H498 H 0.6215 0.47727 0.45045 0.0
H499 H 0.61551 0.57768 0.49345 0.0
H500 H 1.01043 0.8105 0.36053 0.0
H501 H 0.90849 0.77385 0.34188 0.0
H502 H 0.94307 0.70899 0.40997 0.0
H503 H 0.96447 0.8188 0.33144 0.0
Tb504 Tb 0.89875 0.69845 0.92342 0.0
C505 C 0.84969 0.55408 0.8651 0.0
N506 N 0.86044 0.57101 0.93302 0.0
C507 C 0.81417 0.52855 1.00014 0.0
C508 C 0.81998 0.52432 0.86168 0.0
C509 C 0.84382 0.5579 1.00081 0.0
C510 C 0.80198 0.51188 0.93018 0.0
C511 C 0.8584 0.54974 0.72724 0.0
C512 C 0.86888 0.56631 0.79882 0.0
C513 C 0.82853 0.52042 0.72338 0.0
C514 C 0.80943 0.5077 0.79045 0.0
Tb515 Tb 0.90975 0.6181 0.92506 0.0
N516 N 0.8974 0.59506 0.80423 0.0
C517 C 0.87818 0.56324 0.66158 0.0
C518 C 0.91709 0.60806 0.74068 0.0
C519 C 0.90768 0.59246 0.66844 0.0
H520 H 0.85346 0.56928 0.05628 0.0
H521 H 0.92321 0.60299 0.61807 0.0
H522 H 0.91157 0.73209 0.74814 0.0
H523 H 0.91664 0.75604 0.20352 0.0
H524 H 0.94002 0.63045 0.74507 0.0
H525 H 0.87095 0.55128 0.60546 0.0
H526 H 0.88961 0.71079 0.10971 0.0
H527 H 0.80096 0.51855 0.05389 0.0
H528 H 0.82004 0.50733 0.66887 0.0
H529 H 0.7866 0.48488 0.78671 0.0
H530 H 0.94914 0.78603 0.69019 0.0
H531 H 0.77908 0.48905 0.93003 0.0
H532 H 0.96376 0.80873 0.16211 0.0
N533 N 0.92984 0.74688 0.86296 0.0
C534 C 0.94941 0.77186 0.91088 0.0
C535 C 0.94966 0.78225 0.75222 0.0
C536 C 0.97095 0.80301 0.88073 0.0
C537 C 0.92847 0.75182 0.78504 0.0
C538 C 0.97144 0.8078 0.80008 0.0
N539 N 0.92173 0.73734 0.01701 0.0
C540 C 0.91017 0.73371 0.09138 0.0
C541 C 0.9615 0.79342 0.04229 0.0
C542 C 0.94509 0.76698 0.99079 0.0
C543 C 0.952 0.78895 0.12067 0.0
C544 C 0.9255 0.75928 0.14455 0.0
H545 H 0.98747 0.83144 0.77461 0.0
H546 H 1.00693 0.85272 0.91022 0.0
H547 H 0.99837 0.84443 0.0517 0.0
O548 O 0.84872 0.67694 0.8976 0.0
O549 O 0.92188 0.68988 0.02365 0.0
O550 O 0.94831 0.66345 0.9788 0.0
O551 O 0.87561 0.72648 0.93624 0.0
O552 O 0.86438 0.64932 0.96707 0.0
O553 O 0.88783 0.62509 0.03206 0.0
O554 O 0.94278 0.60184 0.89636 0.0
O555 O 0.87373 0.62297 0.84726 0.0
O556 O 0.8966 0.677 0.81104 0.0
O557 O 0.91878 0.58985 1.00632 0.0
O558 O 0.94884 0.66074 0.86514 0.0
O559 O 0.94038 0.70542 0.84892 0.0
C560 C 0.94785 0.68683 0.0195 0.0
C561 C 0.82723 0.71132 0.86549 0.0
C562 C 0.78625 0.72837 0.85692 0.0
C563 C 0.78606 0.72491 0.77574 0.0
C564 C 0.82644 0.70783 0.78437 0.0
C565 C 0.80572 0.71444 0.7399 0.0
C566 C 0.80708 0.72149 0.90151 0.0
C567 C 0.86703 0.63587 0.0312 0.0
C568 C 0.84739 0.70295 0.91485 0.0
C569 C 0.98981 0.82869 0.93223 0.0
C570 C 0.985 0.82394 0.0129 0.0
C571 C 0.87808 0.64596 0.79604 0.0
C572 C 0.93745 0.55438 0.95854 0.0
C573 C 0.96372 0.52037 0.96893 0.0
C574 C 0.93312 0.49288 0.95301 0.0
C575 C 0.90771 0.52631 0.94235 0.0
C576 C 0.96551 0.55131 0.97196 0.0
C577 C 0.90562 0.4959 0.93975 0.0
C578 C 0.95732 0.69017 0.83793 0.0
C579 C 0.93936 0.5868 0.96182 0.0
H580 H 0.76995 0.72944 0.74037 0.0
H581 H 0.84152 0.69972 0.75569 0.0
H582 H 0.80452 0.71108 0.67751 0.0
H583 H 0.80755 0.72391 0.96435 0.0
H584 H 0.93012 0.46869 0.95203 0.0
H585 H 0.88598 0.52782 0.93218 0.0
H586 H 0.98864 0.573 0.98385 0.0
H587 H 0.88239 0.47438 0.92777 0.0
Tb588 Tb 0.33318 0.20424 0.91825 0.0
C589 C 0.48202 0.30375 0.8716 0.0
N590 N 0.4638 0.29663 0.93771 0.0
C591 C 0.50614 0.29456 0.01003 0.0
C592 C 0.5126 0.30544 0.87186 0.0
C593 C 0.47601 0.29328 1.00709 0.0
C594 C 0.52438 0.30034 0.94205 0.0
C595 C 0.48809 0.3169 0.73365 0.0
C596 C 0.47018 0.30994 0.80345 0.0
C597 C 0.51837 0.31818 0.73356 0.0
C598 C 0.53063 0.31255 0.80249 0.0
Tb599 Tb 0.4157 0.29655 0.92424 0.0
N600 N 0.44044 0.30784 0.80519 0.0
C601 C 0.47489 0.32207 0.66588 0.0
C602 C 0.42762 0.31325 0.7394 0.0
C603 C 0.44455 0.32026 0.66884 0.0
H604 H 0.46317 0.2904 0.061 0.0
H605 H 0.43418 0.32426 0.61672 0.0
H606 H 0.29413 0.19379 0.7521 0.0
H607 H 0.2861 0.16016 0.20621 0.0
H608 H 0.4043 0.312 0.74053 0.0
H609 H 0.48787 0.32741 0.61102 0.0
H610 H 0.32751 0.18074 0.10193 0.0
H611 H 0.51549 0.29153 0.065 0.0
H612 H 0.53251 0.32352 0.68048 0.0
H613 H 0.55413 0.31385 0.80158 0.0
H614 H 0.23857 0.17948 0.70906 0.0
H615 H 0.5478 0.30149 0.9447 0.0
H616 H 0.23113 0.15245 0.18088 0.0
N617 N 0.28252 0.19028 0.87267 0.0
C618 C 0.25884 0.18199 0.92666 0.0
C619 C 0.24399 0.18028 0.77051 0.0
C620 C 0.22686 0.17353 0.90514 0.0
C621 C 0.27534 0.1883 0.79497 0.0
C622 C 0.21977 0.17338 0.82594 0.0
N623 N 0.29665 0.1852 0.01899 0.0
C624 C 0.30361 0.17735 0.09036 0.0
C625 C 0.2417 0.16764 0.06043 0.0
C626 C 0.26616 0.17922 1.00283 0.0
C627 C 0.24928 0.16155 0.13508 0.0
C628 C 0.28021 0.1658 0.14961 0.0
H629 H 0.19546 0.16691 0.80696 0.0
H630 H 0.17812 0.15786 0.94787 0.0
H631 H 0.19111 0.15251 0.08411 0.0
O632 O 0.33086 0.16068 0.9552 0.0
O633 O 0.34293 0.2351 0.02065 0.0
O634 O 0.37042 0.28874 0.98061 0.0
O635 O 0.32464 0.16798 0.83526 0.0
O636 O 0.38253 0.21712 0.95947 0.0
O637 O 0.40739 0.26494 0.0262 0.0
O638 O 0.43117 0.34574 0.89717 0.0
O639 O 0.41421 0.25719 0.84843 0.0
O640 O 0.36047 0.22891 0.81423 0.0
O641 O 0.44249 0.33332 1.00764 0.0
O642 O 0.37366 0.29293 0.85939 0.0
O643 O 0.32532 0.24163 0.85962 0.0
C644 C 0.34666 0.26443 0.0195 0.0
C645 C 0.29604 0.11369 0.88279 0.0
C646 C 0.2751 0.05493 0.89437 0.0
C647 C 0.24399 0.04943 0.87355 0.0
C648 C 0.26461 0.10737 0.86368 0.0
C649 C 0.23885 0.07545 0.85868 0.0
C650 C 0.30115 0.08738 0.8986 0.0
C651 C 0.39693 0.23339 0.02331 0.0
C652 C 0.32366 0.14745 0.88679 0.0
C653 C 0.20279 0.16408 0.96296 0.0
C654 C 0.21019 0.16105 0.04054 0.0
C655 C 0.39058 0.23636 0.80233 0.0
C656 C 0.47763 0.38784 0.96221 0.0
C657 C 0.5105 0.44795 0.9752 0.0
C658 C 0.53849 0.44577 0.95872 0.0
C659 C 0.50619 0.38702 0.94598 0.0
C660 C 0.4799 0.41847 0.97715 0.0
C661 C 0.53628 0.41572 0.94429 0.0
C662 C 0.3425 0.2731 0.84094 0.0
C663 C 0.4455 0.35704 0.96357 0.0
H664 H 0.22333 0.02499 0.87042 0.0
H665 H 0.2599 0.12698 0.85171 0.0
H666 H 0.21473 0.07083 0.84343 0.0
H667 H 0.32539 0.09221 0.91368 0.0
H668 H 0.56242 0.46735 0.95828 0.0
H669 H 0.50534 0.36419 0.93499 0.0
H670 H 0.45789 0.41931 0.98932 0.0
H671 H 0.55816 0.41465 0.93207 0.0
Tb672 Tb 0.82377 0.13206 0.92203 0.0
C673 C 0.73151 0.18902 0.87489 0.0
N674 N 0.73754 0.17712 0.94123 0.0
C675 C 0.74177 0.22246 0.0135 0.0
C676 C 0.73168 0.21887 0.87502 0.0
C677 C 0.74131 0.19273 0.01068 0.0
C678 C 0.73725 0.23575 0.94533 0.0
C679 C 0.72008 0.18342 0.73596 0.0
C680 C 0.72532 0.17129 0.80614 0.0
C681 C 0.72043 0.21323 0.73598 0.0
C682 C 0.72614 0.23086 0.80529 0.0
Tb683 Tb 0.73439 0.12763 0.92784 0.0
N684 N 0.72608 0.14291 0.80761 0.0
C685 C 0.71508 0.16545 0.66762 0.0
C686 C 0.7209 0.12514 0.74114 0.0
C687 C 0.71547 0.13619 0.67029 0.0
H688 H 0.74321 0.1822 0.06471 0.0
H689 H 0.71169 0.12217 0.61768 0.0
H690 H 0.83088 0.0984 0.76035 0.0
H691 H 0.86716 0.1318 0.21235 0.0
H692 H 0.72127 0.10264 0.74179 0.0
H693 H 0.71105 0.17399 0.61249 0.0
H694 H 0.84757 0.15199 0.10431 0.0
H695 H 0.74517 0.23489 0.06852 0.0
H696 H 0.71643 0.22294 0.6826 0.0
H697 H 0.72626 0.25379 0.80433 0.0
H698 H 0.84294 0.05504 0.7231 0.0
H699 H 0.73753 0.25874 0.94786 0.0
H700 H 0.87365 0.08355 0.19277 0.0
N701 N 0.83548 0.09296 0.88193 0.0
C702 C 0.84359 0.07818 0.93787 0.0
C703 C 0.84302 0.06116 0.78384 0.0
C704 C 0.85093 0.05356 0.91959 0.0
C705 C 0.83623 0.08568 0.8051 0.0
C706 C 0.85002 0.04473 0.84147 0.0
N707 N 0.8421 0.11512 0.0254 0.0
C708 C 0.85027 0.13095 0.09542 0.0
C709 C 0.85842 0.07742 0.07217 0.0
C710 C 0.84718 0.08981 0.01261 0.0
C711 C 0.86488 0.09225 0.14548 0.0
C712 C 0.8613 0.11951 0.15673 0.0
H713 H 0.85572 0.02608 0.82495 0.0
H714 H 0.86574 0.02046 0.96676 0.0
H715 H 0.87255 0.0416 0.10064 0.0
O716 O 0.86738 0.17455 0.95267 0.0
O717 O 0.79236 0.11166 0.0238 0.0
O718 O 0.73891 0.08773 0.9831 0.0
O719 O 0.86037 0.15547 0.83721 0.0
O720 O 0.81451 0.1707 0.96612 0.0
O721 O 0.76611 0.14944 0.03082 0.0
O722 O 0.68465 0.10147 0.89593 0.0
O723 O 0.77571 0.16515 0.85546 0.0
O724 O 0.79987 0.13623 0.81879 0.0
O725 O 0.69818 0.11898 0.01185 0.0
O726 O 0.73374 0.08684 0.86353 0.0
O727 O 0.78469 0.08895 0.86087 0.0
C728 C 0.76258 0.08683 0.02192 0.0
C729 C 0.91417 0.1818 0.88695 0.0
C730 C 0.97218 0.21704 0.91267 0.0
C731 C 0.9774 0.19102 0.89535 0.0
C732 C 0.91991 0.15607 0.86997 0.0
C733 C 0.95141 0.1608 0.87362 0.0
C734 C 0.94053 0.21243 0.90751 0.0
C735 C 0.79798 0.1694 0.02912 0.0
C736 C 0.88091 0.17695 0.88553 0.0
C737 C 0.86031 0.03967 0.97935 0.0
C738 C 0.86417 0.05168 0.05557 0.0
C739 C 0.79517 0.16072 0.80813 0.0
C740 C 0.6467 0.07045 0.9945 0.0
C741 C 0.58778 0.03201 0.01542 0.0
C742 C 0.59619 1.00987 0.04781 0.0
C743 C 0.65372 0.04745 0.02656 0.0
C744 C 0.61357 0.06266 0.98914 0.0
C745 C 0.62869 0.01752 0.0531 0.0
C746 C 0.75316 0.07523 0.84335 0.0
C747 C 0.67385 0.10205 0.96496 0.0
H748 H 1.00163 0.19409 0.89917 0.0
H749 H 0.90019 0.13234 0.85377 0.0
H750 H 0.95563 0.14088 0.86036 0.0
H751 H 0.93628 0.2323 0.92183 0.0
H752 H 0.5776 0.98657 0.07035 0.0
H753 H 0.67864 0.05259 0.03118 0.0
H754 H 0.60795 0.08017 0.9635 0.0
H755 H 0.63452 1.00008 0.07817 0.0
Tb756 Tb 0.70659 0.89363 0.60153 0.0
C757 C 0.55855 0.83867 0.65307 0.0
N758 N 0.57589 0.84907 0.58554 0.0
C759 C 0.53447 0.80206 0.51885 0.0
C760 C 0.52901 0.80876 0.65649 0.0
C761 C 0.56367 0.83186 0.51818 0.0
C762 C 0.51721 0.79031 0.58837 0.0
C763 C 0.55405 0.84723 0.79105 0.0
C764 C 0.57073 0.8579 0.7196 0.0
C765 C 0.5247 0.81737 0.79458 0.0
C766 C 0.51219 0.79825 0.7275 0.0
Tb767 Tb 0.62204 0.89883 0.59276 0.0
N768 N 0.59973 0.88634 0.71472 0.0
C769 C 0.56754 0.86672 0.85707 0.0
C770 C 0.61269 0.90572 0.77881 0.0
C771 C 0.59691 0.89609 0.85082 0.0
H772 H 0.5758 0.84115 0.46319 0.0
H773 H 0.6074 0.91139 0.90153 0.0
H774 H 0.75059 0.92751 0.75852 0.0
H775 H 0.74578 0.88939 0.30879 0.0
H776 H 0.63508 0.92867 0.77536 0.0
H777 H 0.55548 0.85933 0.91308 0.0
H778 H 0.70779 0.87116 0.42026 0.0
H779 H 0.52509 0.78835 0.46548 0.0
H780 H 0.51153 0.80879 0.84899 0.0
H781 H 0.48949 0.77529 0.73122 0.0
H782 H 0.80662 0.97069 0.7907 0.0
H783 H 0.49457 0.76723 0.58857 0.0
H784 H 0.80106 0.93736 0.32269 0.0
N785 N 0.75832 0.93261 0.63612 0.0
C786 C 0.78035 0.94673 0.5782 0.0
C787 C 0.79953 0.96445 0.73049 0.0
C788 C 0.81272 0.97116 0.59349 0.0
C789 C 0.76781 0.94005 0.71204 0.0
C790 C 0.82197 0.98053 0.67079 0.0
N791 N 0.74041 0.90906 0.49514 0.0
C792 C 0.73163 0.89219 0.42653 0.0
C793 C 0.79382 0.94553 0.44313 0.0
C794 C 0.77107 0.93428 0.50464 0.0
C795 C 0.78426 0.92963 0.37126 0.0
C796 C 0.75315 0.9025 0.3633 0.0
H797 H 0.84662 0.99917 0.68513 0.0
H798 H 0.86001 1.00316 0.54194 0.0
H799 H 0.84346 0.9804 0.40993 0.0
O800 O 0.7052 0.84949 0.57425 0.0
O801 O 0.69616 0.91474 0.50026 0.0
O802 O 0.6669 0.93902 0.54013 0.0
O803 O 0.72122 0.87132 0.68599 0.0
O804 O 0.65903 0.85515 0.55495 0.0
O805 O 0.632 0.87683 0.49048 0.0
O806 O 0.59728 0.92417 0.6213 0.0
O807 O 0.6252 0.8607 0.66396 0.0
O808 O 0.67786 0.88951 0.70326 0.0
O809 O 0.59504 0.9068 0.50581 0.0
O810 O 0.66263 0.94 0.65407 0.0
O811 O 0.70979 0.93537 0.66946 0.0
C812 C 0.69162 0.93981 0.50239 0.0
C813 C 0.74649 0.84316 0.63438 0.0
C814 C 0.76843 0.80746 0.60458 0.0
C815 C 0.79993 0.83317 0.62113 0.0
C816 C 0.77826 0.86855 0.65026 0.0
C817 C 0.80472 0.86344 0.64425 0.0
C818 C 0.74165 0.81243 0.61224 0.0
C819 C 0.64376 0.85672 0.49218 0.0
C820 C 0.71839 0.84851 0.63953 0.0
C821 C 0.83509 0.98411 0.5317 0.0
C822 C 0.82568 0.97116 0.45657 0.0
C823 C 0.64861 0.86505 0.71271 0.0
C824 C 0.59114 0.95497 0.52107 0.0
C825 C 0.57069 0.99345 0.49999 0.0
C826 C 0.60125 0.01558 0.46774 0.0
C827 C 0.62119 0.97797 0.48914 0.0
C828 C 0.56581 0.96279 0.52631 0.0
C829 C 0.62609 1.00791 0.46257 0.0
C830 C 0.69255 0.95033 0.6811 0.0
C831 C 0.58674 0.92348 0.55126 0.0
H832 H 0.82088 0.82982 0.6157 0.0
H833 H 0.78278 0.89234 0.66762 0.0
H834 H 0.82907 0.88311 0.65684 0.0
H835 H 0.71731 0.7928 0.59887 0.0
H836 H 0.60597 0.03889 0.44521 0.0
H837 H 0.64097 0.97282 0.48475 0.0
H838 H 0.54269 0.9453 0.55197 0.0
H839 H 0.64938 0.02535 0.43764 0.0
Tb840 Tb 0.14204 0.82115 0.59686 0.0
C841 C 0.19182 0.72218 0.64927 0.0
N842 N 0.18054 0.72875 0.58267 0.0
C843 C 0.22494 0.73048 0.51095 0.0
C844 C 0.22084 0.72072 0.64957 0.0
C845 C 0.19597 0.73156 0.51336 0.0
C846 C 0.23763 0.7254 0.57943 0.0
C847 C 0.18485 0.7097 0.78756 0.0
C848 C 0.17379 0.7162 0.71731 0.0
C849 C 0.21402 0.70875 0.78826 0.0
C850 C 0.23192 0.71416 0.71944 0.0
Tb851 Tb 0.13245 0.72879 0.59553 0.0
N852 N 0.14595 0.71791 0.71494 0.0
C853 C 0.16636 0.70457 0.85511 0.0
C854 C 0.12756 0.71245 0.78045 0.0
C855 C 0.13758 0.70589 0.85145 0.0
H856 H 0.18584 0.73386 0.45908 0.0
H857 H 0.12309 0.70187 0.90337 0.0
H858 H 0.12159 0.83424 0.77089 0.0
H859 H 0.12299 0.85823 0.31305 0.0
H860 H 0.10527 0.7133 0.77869 0.0
H861 H 0.17408 0.69957 0.9103 0.0
H862 H 0.15063 0.84159 0.40947 0.0
H863 H 0.23723 0.73313 0.45601 0.0
H864 H 0.22293 0.70379 0.8417 0.0
H865 H 0.25423 0.71306 0.72079 0.0
H866 H 0.08213 0.84858 0.82691 0.0
H867 H 0.25999 0.72441 0.5772 0.0
H868 H 0.07606 0.86437 0.35295 0.0
N869 N 0.10744 0.83532 0.65391 0.0
C870 C 0.08895 0.8419 0.60528 0.0
C871 C 0.08366 0.84657 0.76447 0.0
C872 C 0.06608 0.85 0.63424 0.0
C873 C 0.10599 0.83859 0.73271 0.0
C874 C 0.06326 0.85183 0.71504 0.0
N875 N 0.11918 0.83765 0.5026 0.0
C876 C 0.13025 0.84436 0.42749 0.0
C877 C 0.07847 0.85248 0.47371 0.0
C878 C 0.09503 0.84306 0.52652 0.0
C879 C 0.08812 0.85711 0.39549 0.0
C880 C 0.11462 0.85375 0.37271 0.0
H881 H 0.04616 0.85824 0.73972 0.0
H882 H 0.02975 0.86307 0.60258 0.0
H883 H 0.04061 0.86523 0.46168 0.0
O884 O 0.17853 0.86551 0.54951 0.0
O885 O 0.12111 0.78919 0.49585 0.0
O886 O 0.09475 0.73602 0.53893 0.0
O887 O 0.17528 0.85801 0.6724 0.0
O888 O 0.17804 0.80725 0.55885 0.0
O889 O 0.15587 0.75966 0.49241 0.0
O890 O 0.09867 0.67983 0.6243 0.0
O891 O 0.16972 0.76848 0.67152 0.0
O892 O 0.14542 0.79842 0.70393 0.0
O893 O 0.12215 0.69149 0.51349 0.0
O894 O 0.09451 0.73347 0.65999 0.0
O895 O 0.09691 0.78453 0.65676 0.0
C896 C 0.0954 0.75995 0.49826 0.0
C897 C 0.19689 0.91236 0.62734 0.0
C898 C 0.23518 0.97123 0.62162 0.0
C899 C 0.20971 0.9766 0.64471 0.0
C900 C 0.17198 0.91857 0.64915 0.0
C901 C 0.17844 0.95049 0.65797 0.0
C902 C 0.22845 0.93876 0.61337 0.0
C903 C 0.17657 0.79127 0.49497 0.0
C904 C 0.19025 0.87866 0.61654 0.0
C905 C 0.04784 0.85726 0.58166 0.0
C906 C 0.05401 0.85846 0.50142 0.0
C907 C 0.16692 0.78943 0.71737 0.0
C908 C 0.10266 0.63723 0.5608 0.0
C909 C 0.07528 0.57711 0.54826 0.0
C910 C 0.10528 0.57915 0.56608 0.0
C911 C 0.13186 0.63792 0.57852 0.0
C912 C 0.07433 0.60668 0.54543 0.0
C913 C 0.1331 0.60914 0.58107 0.0
C914 C 0.08306 0.75332 0.67741 0.0
C915 C 0.10147 0.66809 0.55833 0.0
H916 H 0.21365 1.00105 0.65069 0.0
H917 H 0.14755 0.89887 0.65936 0.0
H918 H 0.15903 0.95504 0.67477 0.0
H919 H 0.24765 0.93394 0.59612 0.0
H920 H 0.10753 0.5575 0.5672 0.0
H921 H 0.1538 0.66072 0.59003 0.0
H922 H 0.05161 0.60597 0.53222 0.0
H923 H 0.15591 0.61009 0.59439 0.0
Tb924 Tb 0.21329 0.32664 0.58899 0.0
C925 C 0.30723 0.4712 0.64784 0.0
N926 N 0.30155 0.4543 0.58004 0.0
C927 C 0.2976 0.4965 0.51194 0.0
C928 C 0.3069 0.50079 0.6507 0.0
C929 C 0.29825 0.46732 0.51185 0.0
C930 C 0.30153 0.51311 0.58175 0.0
C931 C 0.31968 0.47569 0.78606 0.0
C932 C 0.31408 0.45914 0.71458 0.0
C933 C 0.31872 0.50481 0.78937 0.0
C934 C 0.31245 0.51738 0.72184 0.0
Tb935 Tb 0.30414 0.40741 0.58903 0.0
N936 N 0.31425 0.43057 0.70967 0.0
C937 C 0.32592 0.46238 0.85215 0.0
C938 C 0.32096 0.41778 0.77362 0.0
C939 C 0.32668 0.43337 0.84579 0.0
H940 H 0.29688 0.45596 0.45653 0.0
H941 H 0.33167 0.423 0.89649 0.0
H942 H 0.19262 0.2883 0.75855 0.0
H943 H 0.17518 0.2765 0.30153 0.0
H944 H 0.32186 0.39556 0.76959 0.0
H945 H 0.33027 0.47433 0.90821 0.0
H946 H 0.19254 0.31904 0.40247 0.0
H947 H 0.29453 0.50641 0.45787 0.0
H948 H 0.32293 0.51788 0.8438 0.0
H949 H 0.31213 0.54006 0.72516 0.0
H950 H 0.17673 0.233 0.80724 0.0
H951 H 0.30117 0.53581 0.58146 0.0
H952 H 0.17019 0.22313 0.33304 0.0
N953 N 0.19676 0.27681 0.64105 0.0
C954 C 0.1919 0.25331 0.58884 0.0
C955 C 0.1812 0.23849 0.74578 0.0
C956 C 0.18262 0.2215 0.61359 0.0
C957 C 0.19012 0.26966 0.71823 0.0
C958 C 0.17813 0.2145 0.69341 0.0
N959 N 0.1984 0.29041 0.48929 0.0
C960 C 0.19049 0.29585 0.41648 0.0
C961 C 0.18284 0.23529 0.4544 0.0
C962 C 0.19249 0.26027 0.5101 0.0
C963 C 0.1779 0.24174 0.37753 0.0
C964 C 0.18073 0.27181 0.35925 0.0
H965 H 0.17086 0.1903 0.71474 0.0
H966 H 0.16952 0.17283 0.57557 0.0
H967 H 0.16924 0.18479 0.43619 0.0
O968 O 0.18423 0.34808 0.60829 0.0
O969 O 0.24564 0.33577 0.48994 0.0
O970 O 0.29814 0.3622 0.53637 0.0
O971 O 0.16203 0.29703 0.58427 0.0
O972 O 0.22738 0.37572 0.54609 0.0
O973 O 0.27524 0.40015 0.48176 0.0
O974 O 0.3534 0.42413 0.61863 0.0
O975 O 0.2629 0.40197 0.66651 0.0
O976 O 0.23147 0.34781 0.70226 0.0
O977 O 0.34151 0.43572 0.508 0.0
O978 O 0.30102 0.36506 0.64927 0.0
O979 O 0.24784 0.32072 0.66681 0.0
C980 C 0.2746 0.33883 0.49513 0.0
C981 C 0.12927 0.31464 0.6481 0.0
C982 C 0.07162 0.29869 0.6588 0.0
C983 C 0.07579 0.30395 0.7394 0.0
C984 C 0.13296 0.3201 0.72855 0.0
C985 C 0.10625 0.31486 0.77388 0.0
C986 C 0.09866 0.30412 0.61341 0.0
C987 C 0.24366 0.38941 0.48232 0.0
C988 C 0.15698 0.32103 0.5979 0.0
C989 C 0.17621 0.19733 0.55776 0.0
C990 C 0.17615 0.20418 0.47829 0.0
C991 C 0.24416 0.3789 0.7175 0.0
C992 C 0.39557 0.47139 0.55606 0.0
C993 C 0.45582 0.5054 0.54508 0.0
C994 C 0.45275 0.53284 0.56209 0.0
C995 C 0.39394 0.49942 0.57331 0.0
C996 C 0.42665 0.47449 0.54181 0.0
C997 C 0.42227 0.52981 0.57613 0.0
C998 C 0.28005 0.33589 0.67762 0.0
C999 C 0.36509 0.43897 0.553 0.0
H1000 H 0.05559 0.30048 0.7751 0.0
H1001 H 0.1564 0.32847 0.75607 0.0
H1002 H 0.10917 0.31952 0.83583 0.0
H1003 H 0.09593 0.30027 0.55098 0.0
H1004 H 0.47395 0.55701 0.56337 0.0
H1005 H 0.37072 0.49787 0.58425 0.0
H1006 H 0.42806 0.45283 0.52917 0.0
H1007 H 0.4206 0.55129 0.58897 0.0
C1008 C 0.04289 0.52895 0.05437 0.0
C1009 C 0.04627 0.50469 0.01438 0.0
H1010 H 1.01503 0.55295 0.07218 0.0
C1011 C 0.02235 0.48601 0.95872 0.0
H1012 H 0.06042 0.54369 0.09849 0.0
C1013 C 0.99629 0.49159 0.94312 0.0
C1014 C 0.99289 0.51587 0.98308 0.0
H1015 H 0.02417 0.46756 0.92554 0.0
H1016 H 0.97895 0.47697 0.89858 0.0
C1017 C 1.01678 0.53447 0.03897 0.0
C1018 C 0.49593 0.4854 0.0499 0.0
C1019 C 0.51411 0.48101 0.99119 0.0
H1020 H 0.48669 0.51874 0.11413 0.0
C1021 C 0.53729 0.50903 0.95044 0.0
H1022 H 0.47831 0.46479 0.08368 0.0
C1023 C 0.54226 0.54023 0.96805 0.0
C1024 C 0.52412 0.54464 0.02684 0.0
H1025 H 0.55155 0.50688 0.90397 0.0
H1026 H 0.55989 0.56082 0.93424 0.0
C1027 C 0.50091 0.5166 0.06755 0.0
C1028 C 0.5419 0.04517 0.02619 0.0
C1029 C 0.5522 0.02255 0.01076 0.0
H1030 H 0.50187 0.05387 0.03956 0.0
C1031 C 0.52783 0.99006 0.99482 0.0
H1032 H 0.55958 0.0702 0.04009 0.0
C1033 C 0.49448 0.98053 0.99483 0.0
C1034 C 0.48418 1.00315 0.01024 0.0
H1035 H 0.5345 0.97183 0.98139 0.0
H1036 H 0.4768 0.9555 0.98094 0.0
C1037 C 0.50855 0.03564 0.02618 0.0
C1038 C 0.48784 0.9898 0.48883 0.0
C1039 C 0.49591 0.02228 0.50486 0.0
H1040 H 0.50436 0.95527 0.47495 0.0
C1041 C 0.5288 0.0449 0.52048 0.0
H1042 H 0.46296 0.97158 0.47527 0.0
C1043 C 0.55263 0.03538 0.52057 0.0
C1044 C 0.54456 1.00291 0.50454 0.0
H1045 H 0.5361 0.06992 0.53444 0.0
H1046 H 0.57752 0.05361 0.53413 0.0
C1047 C 0.51167 0.98029 0.48892 0.0
C1048 C 0.02338 0.53992 0.4729 0.0
C1049 C 0.0458 0.54413 0.53186 0.0
H1050 H 0.98079 0.5068 0.40843 0.0
C1051 C 0.04071 0.51603 0.57267 0.0
H1052 H 0.02655 0.56058 0.43905 0.0
C1053 C 1.0144 0.48492 0.55486 0.0
C1054 C 0.992 0.48071 0.49586 0.0
H1055 H 0.05696 0.51803 0.61939 0.0
H1056 H 1.01123 0.46425 0.58868 0.0
C1057 C 0.99706 0.50881 0.45511 0.0
C1058 C 0.49459 0.49151 0.47335 0.0
C1059 C 0.48943 0.50989 0.53014 0.0
H1060 H 0.52881 0.48241 0.41251 0.0
C1061 C 0.51719 0.53392 0.57032 0.0
H1062 H 0.4743 0.47324 0.43992 0.0
C1063 C 0.54876 0.53943 0.55415 0.0
C1064 C 0.55387 0.52095 0.49762 0.0
H1065 H 0.51457 0.54838 0.6155 0.0
H1066 H 0.5691 0.55767 0.58756 0.0
C1067 C 0.52615 0.49698 0.45733 0.0
C1068 C 1.00293 0.32126 0.27353 0.0
C1069 C 0.9886 0.28912 0.3017 0.0
H1070 H 0.04329 0.36074 0.21599 0.0
C1071 C 1.00607 0.27248 0.29323 0.0
H1072 H 0.99066 0.33524 0.2796 0.0
C1073 C 0.03649 0.28716 0.25589 0.0
C1074 C 0.05076 0.31922 0.22738 0.0
H1075 H 0.9966 0.24823 0.3164 0.0
H1076 H 0.04856 0.27317 0.24917 0.0
C1077 C 0.03346 0.33605 0.23708 0.0
C1078 C 0.69586 0.70447 0.23972 0.0
C1079 C 0.71346 0.73733 0.21648 0.0
H1080 H 0.69673 0.66421 0.29265 0.0
C1081 C 0.74734 0.75459 0.22954 0.0
H1082 H 0.66983 0.69003 0.23016 0.0
C1083 C 0.76297 0.73964 0.26626 0.0
C1084 C 0.74528 0.70679 0.28955 0.0
H1085 H 0.76196 0.77958 0.21083 0.0
H1086 H 0.78884 0.75403 0.27696 0.0
C1087 C 0.71147 0.68948 0.27551 0.0
C1088 C 0.29573 0.02513 0.2969 0.0
C1089 C 0.32995 0.04397 0.29906 0.0
H1090 H 0.25395 0.98109 0.26024 0.0
C1091 C 0.34806 0.03118 0.26434 0.0
H1092 H 0.28087 0.03341 0.32564 0.0
C1093 C 0.33246 1.0009 0.22698 0.0
C1094 C 0.29817 0.98221 0.22359 0.0
H1095 H 0.37443 0.0445 0.26583 0.0
H1096 H 0.34751 0.99232 0.2003 0.0
C1097 C 0.28012 0.99476 0.25963 0.0
C1098 C 0.03678 0.70575 0.74522 0.0
C1099 C 0.05103 0.73817 0.71926 0.0
H1100 H 0.99698 0.66564 0.80137 0.0
C1101 C 0.0336 0.75478 0.731 0.0
H1102 H 0.04888 0.69172 0.73683 0.0
C1103 C 1.00308 0.73947 0.76874 0.0
C1104 C 0.98905 0.70703 0.79483 0.0
H1105 H 0.04327 0.77945 0.71037 0.0
H1106 H 0.99068 0.75313 0.77775 0.0
C1107 C 1.00651 0.69055 0.78224 0.0
C1108 C 0.27643 0.28726 0.75056 0.0
C1109 C 0.29492 0.31929 0.722 0.0
H1110 H 0.27646 0.24782 0.81199 0.0
C1111 C 0.32894 0.33557 0.73345 0.0
H1112 H 0.25035 0.2738 0.74287 0.0
C1113 C 0.34396 0.32046 0.77131 0.0
C1114 C 0.32568 0.28836 0.79924 0.0
H1115 H 0.34439 0.36021 0.71265 0.0
H1116 H 0.37015 0.33428 0.77856 0.0
C1117 C 0.29158 0.27209 0.78919 0.0
C1118 C 0.70796 0.03172 0.76249 0.0
C1119 C 0.73781 0.04335 0.80174 0.0
H1120 H 0.67071 0.99398 0.69344 0.0
C1121 C 0.75207 0.02348 0.80358 0.0
H1122 H 0.69575 0.04585 0.76101 0.0
C1123 C 0.73733 0.99325 0.76564 0.0
C1124 C 0.70801 0.98198 0.72435 0.0
H1125 H 0.77421 0.0308 0.83616 0.0
H1126 H 0.74876 0.97862 0.77011 0.0
C1127 C 0.69341 1.00164 0.724 0.0
C1128 C 0.23576 0.37639 0.8614 0.0
C1129 C 0.23087 0.38644 0.78817 0.0
H1130 H 0.22253 0.36827 0.98176 0.0
C1131 C 0.208 0.39704 0.78219 0.0
H1132 H 0.25282 0.36758 0.86762 0.0
C1133 C 0.1894 0.39615 0.84742 0.0
C1134 C 0.19353 0.38501 0.92049 0.0
H1135 H 0.20302 0.40408 0.72608 0.0
H1136 H 0.17101 0.40313 0.83984 0.0
C1137 C 0.21786 0.37626 0.92674 0.0
C1138 C 0.63037 0.7934 0.84592 0.0
C1139 C 0.64181 0.80909 0.91842 0.0
H1140 H 0.6226 0.79854 0.72404 0.0
C1141 C 0.65182 0.84247 0.92296 0.0
H1142 H 0.62221 0.7677 0.83996 0.0
C1143 C 0.6526 0.86007 0.85653 0.0
C1144 C 0.64218 0.84469 0.78386 0.0
H1145 H 0.65981 0.85537 0.97764 0.0
H1146 H 0.66196 0.88605 0.86174 0.0
C1147 C 0.63032 0.81097 0.7795 0.0
C1148 C 0.18806 0.81303 0.92914 0.0
C1149 C 0.22171 0.83572 0.92602 0.0
H1150 H 0.14451 0.78108 0.86561 0.0
C1151 C 0.23788 0.8397 0.85433 0.0
H1152 H 0.17471 0.80858 0.98311 0.0
C1153 C 0.22053 0.8228 0.78713 0.0
C1154 C 0.18659 0.80189 0.78986 0.0
H1155 H 0.26376 0.85673 0.84939 0.0
H1156 H 0.23336 0.82747 0.73221 0.0
C1157 C 0.17069 0.79692 0.86182 0.0
C1158 C 0.41294 0.18685 0.66612 0.0
C1159 C 0.40001 0.18983 0.59451 0.0
H1160 H 0.421 0.19994 0.78784 0.0
C1161 C 0.3875 0.21127 0.59138 0.0
H1162 H 0.42299 0.1708 0.67108 0.0
C1163 C 0.38578 0.22729 0.65838 0.0
C1164 C 0.39767 0.22348 0.7302 0.0
H1165 H 0.37813 0.21512 0.53744 0.0
H1166 H 0.37453 0.24232 0.65432 0.0
C1167 C 0.41202 0.20369 0.73305 0.0
C1168 C 0.82129 0.18288 0.5976 0.0
C1169 C 0.84487 0.21622 0.60192 0.0
H1170 H 0.78766 0.13945 0.65911 0.0
C1171 C 0.84918 0.232 0.67433 0.0
H1172 H 0.81643 0.16987 0.54308 0.0
C1173 C 0.83144 0.21458 0.74081 0.0
C1174 C 0.80939 0.18089 0.73672 0.0
H1175 H 0.86689 0.25764 0.68024 0.0
H1176 H 0.83618 0.2271 0.79615 0.0
C1177 C 0.80438 0.16541 0.66415 0.0
C1178 C 0.82365 0.62746 0.73173 0.0
C1179 C 0.8572 0.6385 0.72555 0.0
H1180 H 0.7803 0.62079 0.67435 0.0
C1181 C 0.87212 0.64907 0.65247 0.0
H1182 H 0.81165 0.62003 0.78778 0.0
C1183 C 0.85424 0.64921 0.58742 0.0
C1184 C 0.82101 0.63983 0.5938 0.0
H1185 H 0.89805 0.65824 0.64615 0.0
H1186 H 0.86684 0.65746 0.53241 0.0
C1187 C 0.80579 0.62828 0.66675 0.0
C1188 C 0.84859 0.61984 0.17221 0.0
C1189 C 0.84693 0.63379 0.10092 0.0
H1190 H 0.83362 0.61071 0.29286 0.0
C1191 C 0.82599 0.64684 0.09661 0.0
H1192 H 0.8643 0.60943 0.17786 0.0
C1193 C 0.80872 0.6476 0.16187 0.0
C1194 C 0.81115 0.63477 0.23362 0.0
H1195 H 0.82356 0.6575 0.04319 0.0
H1196 H 0.7941 0.65927 0.1568 0.0
C1197 C 0.83074 0.6202 0.2379 0.0
C1198 C 0.4107 0.21429 0.23279 0.0
C1199 C 0.3975 0.18034 0.23003 0.0
H1200 H 0.42029 0.25763 0.17057 0.0
C1201 C 0.38638 0.16451 0.15805 0.0
H1202 H 0.41909 0.22709 0.28765 0.0
C1203 C 0.38783 0.18198 0.0907 0.0
C1204 C 0.39907 0.21567 0.09378 0.0
H1205 H 0.37605 0.13836 0.15408 0.0
H1206 H 0.37923 0.16875 0.03659 0.0
C1207 C 0.41119 0.23171 0.16562 0.0
C1208 C 0.79998 0.18584 0.17155 0.0
C1209 C 0.81582 0.18949 0.09946 0.0
H1210 H 0.80501 0.19833 0.2937 0.0
C1211 C 0.84961 0.21167 0.09612 0.0
H1212 H 0.77402 0.16921 0.17681 0.0
C1213 C 0.86731 0.22768 0.16327 0.0
C1214 C 0.85172 0.22316 0.23558 0.0
H1215 H 0.86279 0.21594 0.04197 0.0
H1216 H 0.89351 0.24322 0.15896 0.0
C1217 C 0.81768 0.20267 0.23864 0.0
C1218 C 0.62907 0.82324 0.28304 0.0
C1219 C 0.64167 0.80195 0.28605 0.0
H1220 H 0.62016 0.85756 0.34495 0.0
C1221 C 0.6522 0.79676 0.35839 0.0
H1222 H 0.62124 0.82814 0.22792 0.0
C1223 C 0.65101 0.81299 0.42565 0.0
C1224 C 0.64046 0.83603 0.42228 0.0
H1225 H 0.66224 0.78066 0.36254 0.0
H1226 H 0.6597 0.80841 0.47977 0.0
C1227 C 0.62865 0.84024 0.35022 0.0
C1228 C 0.19261 0.79353 0.35252 0.0
C1229 C 0.19563 0.80944 0.42413 0.0
H1230 H 0.20558 0.79856 0.23071 0.0
C1231 C 0.21671 0.84339 0.42702 0.0
H1232 H 0.1769 0.7674 0.34785 0.0
C1233 C 0.23235 0.86115 0.35978 0.0
C1234 C 0.22857 0.84543 0.28802 0.0
H1235 H 0.22079 0.85654 0.48109 0.0
H1236 H 0.24724 0.88742 0.36374 0.0
C1237 C 0.20918 0.81131 0.28539 0.0
C1238 C 0.17404 0.37952 0.35237 0.0
C1239 C 0.18898 0.39041 0.27946 0.0
H1240 H 0.17925 0.37139 0.47221 0.0
C1241 C 0.22291 0.4033 0.27409 0.0
H1242 H 0.14791 0.36918 0.3583 0.0
C1243 C 0.24114 0.40387 0.33996 0.0
C1244 C 0.22578 0.39175 0.41251 0.0
H1245 H 0.235 0.41126 0.21828 0.0
H1246 H 0.267 0.41285 0.33348 0.0
C1247 C 0.19212 0.38052 0.4178 0.0
C1248 C 0.27575 0.25067 0.1459 0.0
C1249 C 0.26388 0.26857 0.1059 0.0
H1250 H 0.31207 0.23642 0.15153 0.0
C1251 C 0.28219 0.28856 0.04345 0.0
H1252 H 0.26269 0.23556 0.19531 0.0
C1253 C 0.31052 0.28893 0.01845 0.0
C1254 C 0.32084 0.26908 0.05493 0.0
H1255 H 0.27372 0.30254 0.01114 0.0
H1256 H 0.32323 0.30333 0.96787 0.0
C1257 C 0.30394 0.251 0.12071 0.0
C1258 C 0.73739 0.026 0.01854 0.0
C1259 C 0.75696 0.05581 0.05659 0.0
H1260 H 0.72416 0.97579 1.00818 0.0
C1261 C 0.77455 0.05628 0.12278 0.0
H1262 H 0.72332 0.02482 0.96772 0.0
C1263 C 0.77461 0.02815 0.14701 0.0
C1264 C 0.75731 0.99882 0.10506 0.0
H1265 H 0.78911 0.07872 0.15456 0.0
H1266 H 0.78915 0.02974 0.19726 0.0
C1267 C 0.73777 0.99783 0.04207 0.0
C1268 C 0.97794 0.72879 0.12192 0.0
C1269 C 0.97855 0.71299 0.05342 0.0
H1270 H 1.00388 0.76971 0.19749 0.0
C1271 C 1.00816 0.72484 0.01306 0.0
H1272 H 0.95578 0.71943 0.15577 0.0
C1273 C 0.03594 0.75348 0.03733 0.0
C1274 C 0.03464 0.7707 0.10266 0.0
H1275 H 1.00945 0.71301 0.96037 0.0
H1276 H 0.05791 0.76304 1.00254 0.0
C1277 C 1.00557 0.75745 0.14602 0.0
C1278 C 0.26314 0.26898 0.36754 0.0
C1279 C 0.27844 0.25543 0.41186 0.0
H1280 H 0.25123 0.30693 0.35759 0.0
C1281 C 0.29599 0.27214 0.47877 0.0
H1282 H 0.24998 0.2572 0.31484 0.0
C1283 C 0.29656 0.30061 0.50319 0.0
C1284 C 0.27937 0.31277 0.46161 0.0
H1285 H 0.30793 0.26236 0.51452 0.0
H1286 H 0.30899 0.31207 0.55683 0.0
C1287 C 0.26373 0.2974 0.39206 0.0
C1288 C 0.72737 1.00059 0.50479 0.0
C1289 C 0.71708 0.97065 0.46735 0.0
H1290 H 0.76428 0.05087 0.51374 0.0
C1291 C 0.7341 0.96989 0.40125 0.0
H1292 H 0.71461 1.00195 0.55565 0.0
C1293 C 0.76225 0.99789 0.37649 0.0
C1294 C 0.77424 0.02738 0.41763 0.0
H1295 H 0.72619 0.94732 0.37001 0.0
H1296 H 0.77519 0.9961 0.32646 0.0
C1297 C 0.75582 0.02867 0.48052 0.0
C1298 C 1.00713 0.7369 0.4753 0.0
C1299 C 1.00845 0.75479 0.40868 0.0
H1300 H 0.03361 0.72398 0.55493 0.0
C1301 C 0.03782 0.77087 0.3664 0.0
H1302 H 0.985 0.72433 0.50945 0.0
C1303 C 0.06569 0.77085 0.39301 0.0
C1304 C 0.06489 0.75499 0.46255 0.0
H1305 H 0.03957 0.78428 0.31386 0.0
H1306 H 0.08809 0.78387 0.3601 0.0
C1307 C 0.03505 0.73683 0.50167 0.0
C1308 C 0.73581 0.76935 0.89599 0.0
C1309 C 0.71756 0.75218 0.96154 0.0
H1310 H 0.77194 0.77556 0.81177 0.0
C1311 C 0.72264 0.7277 0.99336 0.0
H1312 H 0.73213 0.78796 0.86945 0.0
C1313 C 0.74545 0.72061 0.96066 0.0
C1314 C 0.76351 0.7375 0.89456 0.0
H1315 H 0.70912 0.71412 0.04416 0.0
H1316 H 0.7484 0.70132 0.98615 0.0
C1317 C 0.75842 0.76202 0.86263 0.0
C1318 C 0.29866 0.02812 0.97894 0.0
C1319 C 0.27947 0.02669 0.91476 0.0
H1320 H 0.31256 1.00161 0.0564 0.0
C1321 C 0.26221 0.99706 0.87403 0.0
H1322 H 0.31221 0.05044 0.01188 0.0
C1323 C 0.26216 0.96911 0.90024 0.0
C1324 C 0.2794 0.97004 0.96754 0.0
H1325 H 0.24788 0.99516 0.82309 0.0
H1326 H 0.24786 0.94649 0.869 0.0
C1327 C 0.29879 1.00009 1.00473 0.0
C1328 C 0.03958 0.30552 0.9242 0.0
C1329 C 0.05734 0.30414 0.98801 0.0
H1330 H 0.99808 0.27836 0.84923 0.0
C1331 C 0.04433 0.27556 0.03227 0.0
H1332 H 0.04866 0.32776 0.89071 0.0
C1333 C 1.0162 0.24757 0.00861 0.0
C1334 C 0.99968 0.24798 0.94141 0.0
H1335 H 0.05599 0.27476 0.08519 0.0
H1336 H 1.00756 0.22542 0.04233 0.0
C1337 C 1.01078 0.27745 0.9008 0.0
C1338 C 0.78211 0.77706 0.50864 0.0
C1339 C 0.76452 0.77643 0.57477 0.0
H1340 H 0.79552 0.75022 0.43322 0.0
C1341 C 0.74555 0.74675 0.61412 0.0
H1342 H 0.79613 0.79937 0.47581 0.0
C1343 C 0.74646 0.71872 0.59096 0.0
C1344 C 0.76627 0.72032 0.52838 0.0
H1345 H 0.73148 0.74567 0.66493 0.0
H1346 H 0.73295 0.69636 0.62385 0.0
C1347 C 0.78241 0.74913 0.48516 0.0
C1348 C 0.28036 0.02888 0.64503 0.0
C1349 C 0.26793 0.99964 0.60255 0.0
H1350 H 0.31687 0.07932 0.65295 0.0
C1351 C 0.28589 0.99875 0.53813 0.0
H1352 H 0.26787 0.03037 0.69633 0.0
C1353 C 0.31429 0.02689 0.51402 0.0
C1354 C 0.32498 0.05663 0.55283 0.0
H1355 H 0.27716 0.9768 0.50375 0.0
H1356 H 0.32677 0.02573 0.4624 0.0
C1357 C 0.30847 0.05701 0.62029 0.0
C1358 C 0.98008 0.25709 0.62252 0.0
C1359 C 0.97859 0.27405 0.55697 0.0
H1360 H 1.01062 0.25153 0.70626 0.0
C1361 C 1.00789 0.29851 0.52421 0.0
H1362 H 0.95796 0.23836 0.64947 0.0
C1363 C 0.03799 0.30583 0.55603 0.0
C1364 C 0.03955 0.28925 0.62225 0.0
H1365 H 1.00762 0.3119 0.47334 0.0
H1366 H 0.06006 0.32504 0.52979 0.0
C1367 C 1.01023 0.26477 0.65521 0.0
loop_
_geom_bond_atom_site_label_1
_geom_bond_atom_site_label_2
_geom_bond_distance
_geom_bond_site_symmetry_2
_ccdc_geom_bond_type
Tb0 N29 2.617 . S
Tb0 N35 2.572 . S
Tb0 O44 2.465 . S
Tb0 O45 2.387 . S
Tb0 O47 2.428 . S
Tb0 O48 2.308 . S
Tb0 O52 2.349 . S
Tb0 O55 2.393 1_554 S
Tb0 C64 2.802 . S
C1 N2 1.379 . S
C1 C4 1.416 . S
C1 C8 1.424 . S
N2 C1 1.379 . S
N2 C5 1.334 . S
N2 Tb11 2.617 . S
C3 C5 1.390 . S
C3 C6 1.339 . S
C3 H23 0.930 . S
C4 C1 1.416 . S
C4 C6 1.416 . S
C4 C10 1.448 . S
C5 N2 1.334 . S
C5 C3 1.390 . S
C5 H16 0.930 . S
C6 C3 1.339 . S
C6 C4 1.416 . S
C6 H27 0.930 1_455 S
C7 C8 1.413 1_556 S
C7 C9 1.427 . S
C7 C13 1.416 . S
C8 C1 1.424 . S
C8 C7 1.413 1_554 S
C8 N12 1.361 . S
C9 C7 1.427 . S
C9 C10 1.328 1_556 S
C9 H24 0.929 . S
C10 C4 1.448 . S
C10 C9 1.328 1_554 S
C10 H25 0.930 1_455 S
Tb11 N2 2.617 . S
Tb11 N12 2.572 . S
Tb11 O46 2.349 . S
Tb11 O49 2.393 . S
Tb11 O50 2.465 . S
Tb11 O51 2.387 . S
Tb11 O53 2.428 . S
Tb11 O54 2.308 . S
Tb11 C75 2.802 . S
N12 C8 1.361 . S
N12 Tb11 2.572 . S
N12 C14 1.340 1_554 S
C13 C7 1.416 . S
C13 C15 1.332 . S
C13 H21 0.931 . S
C14 N12 1.340 1_556 S
C14 C15 1.407 . S
C14 H20 0.930 . S
C15 C13 1.332 . S
C15 C14 1.407 . S
C15 H17 0.929 . S
H16 C5 0.930 . S
H17 C15 0.929 . S
H18 C33 0.930 . S
H19 C40 0.929 . S
H20 C14 0.930 . S
H21 C13 0.931 . S
H22 C36 0.930 . S
H23 C3 0.930 . S
H24 C9 0.929 . S
H25 C10 0.930 1_655 S
H26 C31 0.930 . S
H27 C6 0.930 1_655 S
H28 C39 0.931 . S
N29 Tb0 2.617 . S
N29 C30 1.379 . S
N29 C33 1.334 1_554 S
C30 N29 1.379 . S
C30 C32 1.416 . S
C30 C38 1.424 . S
C31 H26 0.930 . S
C31 C33 1.390 . S
C31 C34 1.339 1_556 S
C32 C30 1.416 . S
C32 C34 1.416 . S
C32 C65 1.448 . S
C33 H18 0.930 . S
C33 N29 1.334 1_556 S
C33 C31 1.390 . S
C34 C31 1.339 1_554 S
C34 C32 1.416 . S
C34 H41 0.930 . S
N35 Tb0 2.572 . S
N35 C36 1.340 . S
N35 C38 1.361 . S
C36 H22 0.930 . S
C36 N35 1.340 . S
C36 C40 1.407 . S
C37 C38 1.413 . S
C37 C39 1.416 . S
C37 C66 1.427 . S
C38 C30 1.424 . S
C38 N35 1.361 . S
C38 C37 1.413 . S
C39 H28 0.931 . S
C39 C37 1.416 . S
C39 C40 1.332 . S
C40 H19 0.929 . S
C40 C36 1.407 . S
C40 C39 1.332 . S
H41 C34 0.930 . S
H42 C65 0.930 . S
H43 C66 0.929 . S
O44 Tb0 2.465 . S
O44 C64 1.264 . S
O45 Tb0 2.387 . S
O45 C56 1.264 . S
O46 Tb11 2.349 . S
O46 C56 1.243 . S
O47 Tb0 2.428 . S
O47 C64 1.256 . S
O48 Tb0 2.308 . S
O48 C63 1.266 . S
O49 Tb11 2.393 . S
O49 C63 1.248 . S
O50 Tb11 2.465 . S
O50 C75 1.264 . S
O51 Tb11 2.387 . S
O51 C67 1.264 . S
O52 Tb0 2.349 . S
O52 C67 1.243 . S
O53 Tb11 2.428 . S
O53 C75 1.256 . S
O54 Tb11 2.308 . S
O54 C74 1.266 1_554 S
O55 Tb0 2.393 1_556 S
O55 C74 1.248 . S
C56 O45 1.264 . S
C56 O46 1.243 . S
C57 C60 1.399 1_554 S
C57 C62 1.383 . S
C57 C64 1.496 . S
C58 C59 1.399 1_554 S
C58 C62 1.389 . S
C59 C58 1.399 1_556 S
C59 C61 1.380 . S
C59 H76 0.929 . S
C60 C57 1.399 1_556 S
C60 C61 1.392 . S
C60 H77 0.929 . S
C61 C59 1.380 . S
C61 C60 1.392 . S
C61 H78 0.929 . S
C62 C57 1.383 . S
C62 C58 1.389 . S
C62 H79 0.931 . S
C63 O48 1.266 . S
C63 O49 1.248 . S
C64 Tb0 2.802 . S
C64 O44 1.264 . S
C64 O47 1.256 . S
C64 C57 1.496 . S
C65 C32 1.448 . S
C65 H42 0.930 . S
C65 C66 1.328 . S
C66 C37 1.427 . S
C66 H43 0.929 . S
C66 C65 1.328 . S
C67 O51 1.264 . S
C67 O52 1.243 . S
C68 C71 1.399 . S
C68 C72 1.383 . S
C68 C75 1.496 . S
C69 C70 1.399 . S
C69 C72 1.389 . S
C70 C69 1.399 . S
C70 C73 1.380 . S
C70 H80 0.929 . S
C71 C68 1.399 . S
C71 C73 1.392 . S
C71 H81 0.929 . S
C72 C68 1.383 . S
C72 C69 1.389 . S
C72 H82 0.931 . S
C73 C70 1.380 . S
C73 C71 1.392 . S
C73 H83 0.929 . S
C74 O54 1.266 1_556 S
C74 O55 1.248 . S
C75 Tb11 2.802 . S
C75 O50 1.264 . S
C75 O53 1.256 . S
C75 C68 1.496 . S
H76 C59 0.929 . S
H77 C60 0.929 . S
H78 C61 0.929 . S
H79 C62 0.931 . S
H80 C70 0.929 . S
H81 C71 0.929 . S
H82 C72 0.931 . S
H83 C73 0.929 . S
Tb84 N113 2.617 . S
Tb84 N119 2.572 . S
Tb84 O128 2.465 . S
Tb84 O129 2.387 . S
Tb84 O131 2.428 . S
Tb84 O132 2.308 . S
Tb84 O136 2.349 . S
Tb84 O139 2.393 1_554 S
Tb84 C148 2.802 . S
C85 N86 1.379 . S
C85 C88 1.416 . S
C85 C92 1.424 . S
N86 C85 1.379 . S
N86 C89 1.334 . S
N86 Tb95 2.617 . S
C87 C89 1.390 . S
C87 C90 1.339 . S
C87 H107 0.930 . S
C88 C85 1.416 . S
C88 C90 1.416 . S
C88 C94 1.448 . S
C89 N86 1.334 . S
C89 C87 1.390 . S
C89 H100 0.930 . S
C90 C87 1.339 . S
C90 C88 1.416 . S
C90 H111 0.930 . S
C91 C92 1.413 1_556 S
C91 C93 1.427 . S
C91 C97 1.416 . S
C92 C85 1.424 . S
C92 C91 1.413 1_554 S
C92 N96 1.361 . S
C93 C91 1.427 . S
C93 C94 1.328 1_556 S
C93 H108 0.929 . S
C94 C88 1.448 . S
C94 C93 1.328 1_554 S
C94 H109 0.930 . S
Tb95 N86 2.617 . S
Tb95 N96 2.572 . S
Tb95 O130 2.349 . S
Tb95 O133 2.393 . S
Tb95 O134 2.465 . S
Tb95 O135 2.387 . S
Tb95 O137 2.428 . S
Tb95 O138 2.308 . S
Tb95 C159 2.802 . S
N96 C92 1.361 . S
N96 Tb95 2.572 . S
N96 C98 1.340 1_554 S
C97 C91 1.416 . S
C97 C99 1.332 . S
C97 H105 0.931 . S
C98 N96 1.340 1_556 S
C98 C99 1.407 . S
C98 H104 0.930 . S
C99 C97 1.332 . S
C99 C98 1.407 . S
C99 H101 0.929 . S
H100 C89 0.930 . S
H101 C99 0.929 . S
H102 C117 0.930 . S
H103 C124 0.929 . S
H104 C98 0.930 . S
H105 C97 0.931 . S
H106 C120 0.930 . S
H107 C87 0.930 . S
H108 C93 0.929 . S
H109 C94 0.930 . S
H110 C115 0.930 . S
H111 C90 0.930 . S
H112 C123 0.931 . S
N113 Tb84 2.617 . S
N113 C114 1.379 . S
N113 C117 1.334 1_554 S
C114 N113 1.379 . S
C114 C116 1.416 . S
C114 C122 1.424 . S
C115 H110 0.930 . S
C115 C117 1.390 . S
C115 C118 1.339 1_556 S
C116 C114 1.416 . S
C116 C118 1.416 . S
C116 C149 1.448 . S
C117 H102 0.930 . S
C117 N113 1.334 1_556 S
C117 C115 1.390 . S
C118 C115 1.339 1_554 S
C118 C116 1.416 . S
C118 H125 0.930 . S
N119 Tb84 2.572 . S
N119 C120 1.340 . S
N119 C122 1.361 . S
C120 H106 0.930 . S
C120 N119 1.340 . S
C120 C124 1.407 . S
C121 C122 1.413 . S
C121 C123 1.416 . S
C121 C150 1.427 . S
C122 C114 1.424 . S
C122 N119 1.361 . S
C122 C121 1.413 . S
C123 H112 0.931 . S
C123 C121 1.416 . S
C123 C124 1.332 . S
C124 H103 0.929 . S
C124 C120 1.407 . S
C124 C123 1.332 . S
H125 C118 0.930 . S
H126 C149 0.930 . S
H127 C150 0.929 . S
O128 Tb84 2.465 . S
O128 C148 1.264 . S
O129 Tb84 2.387 . S
O129 C140 1.264 . S
O130 Tb95 2.349 . S
O130 C140 1.243 . S
O131 Tb84 2.428 . S
O131 C148 1.256 . S
O132 Tb84 2.308 . S
O132 C147 1.266 . S
O133 Tb95 2.393 . S
O133 C147 1.248 . S
O134 Tb95 2.465 . S
O134 C159 1.264 . S
O135 Tb95 2.387 . S
O135 C151 1.264 . S
O136 Tb84 2.349 . S
O136 C151 1.243 . S
O137 Tb95 2.428 . S
O137 C159 1.256 . S
O138 Tb95 2.308 . S
O138 C158 1.266 1_554 S
O139 Tb84 2.393 1_556 S
O139 C158 1.248 . S
C140 O129 1.264 . S
C140 O130 1.243 . S
C141 C144 1.399 1_554 S
C141 C146 1.383 . S
C141 C148 1.496 . S
C142 C143 1.399 1_554 S
C142 C146 1.389 . S
C143 C142 1.399 1_556 S
C143 C145 1.380 . S
C143 H160 0.929 . S
C144 C141 1.399 1_556 S
C144 C145 1.392 . S
C144 H161 0.929 . S
C145 C143 1.380 . S
C145 C144 1.392 . S
C145 H162 0.929 . S
C146 C141 1.383 . S
C146 C142 1.389 . S
C146 H163 0.931 . S
C147 O132 1.266 . S
C147 O133 1.248 . S
C148 Tb84 2.802 . S
C148 O128 1.264 . S
C148 O131 1.256 . S
C148 C141 1.496 . S
C149 C116 1.448 . S
C149 H126 0.930 . S
C149 C150 1.328 . S
C150 C121 1.427 . S
C150 H127 0.929 . S
C150 C149 1.328 . S
C151 O135 1.264 . S
C151 O136 1.243 . S
C152 C155 1.399 . S
C152 C156 1.383 . S
C152 C159 1.496 . S
C153 C154 1.399 . S
C153 C156 1.389 . S
C154 C153 1.399 . S
C154 C157 1.380 . S
C154 H164 0.929 . S
C155 C152 1.399 . S
C155 C157 1.392 . S
C155 H165 0.929 . S
C156 C152 1.383 . S
C156 C153 1.389 . S
C156 H166 0.931 . S
C157 C154 1.380 . S
C157 C155 1.392 . S
C157 H167 0.929 . S
C158 O138 1.266 1_556 S
C158 O139 1.248 . S
C159 Tb95 2.802 . S
C159 O134 1.264 . S
C159 O137 1.256 . S
C159 C152 1.496 . S
H160 C143 0.929 . S
H161 C144 0.929 . S
H162 C145 0.929 . S
H163 C146 0.931 . S
H164 C154 0.929 . S
H165 C155 0.929 . S
H166 C156 0.931 . S
H167 C157 0.929 . S
Tb168 N197 2.617 . S
Tb168 N203 2.572 . S
Tb168 O212 2.465 . S
Tb168 O213 2.387 . S
Tb168 O215 2.428 . S
Tb168 O216 2.308 . S
Tb168 O220 2.349 . S
Tb168 O223 2.393 1_554 S
Tb168 C232 2.802 . S
C169 N170 1.379 . S
C169 C172 1.416 . S
C169 C176 1.424 . S
N170 C169 1.379 . S
N170 C173 1.334 . S
N170 Tb179 2.617 . S
C171 C173 1.390 . S
C171 C174 1.339 . S
C171 H191 0.930 . S
C172 C169 1.416 . S
C172 C174 1.416 . S
C172 C178 1.448 . S
C173 N170 1.334 . S
C173 C171 1.390 . S
C173 H184 0.930 . S
C174 C171 1.339 . S
C174 C172 1.416 . S
C174 H195 0.930 1_565 S
C175 C176 1.413 1_556 S
C175 C177 1.427 . S
C175 C181 1.416 . S
C176 C169 1.424 . S
C176 C175 1.413 1_554 S
C176 N180 1.361 . S
C177 C175 1.427 . S
C177 C178 1.328 1_556 S
C177 H192 0.929 . S
C178 C172 1.448 . S
C178 C177 1.328 1_554 S
C178 H193 0.930 1_565 S
Tb179 N170 2.617 . S
Tb179 N180 2.572 . S
Tb179 O214 2.349 . S
Tb179 O217 2.393 . S
Tb179 O218 2.465 . S
Tb179 O219 2.387 . S
Tb179 O221 2.428 . S
Tb179 O222 2.308 . S
Tb179 C243 2.802 . S
N180 C176 1.361 . S
N180 Tb179 2.572 . S
N180 C182 1.340 1_554 S
C181 C175 1.416 . S
C181 C183 1.332 . S
C181 H189 0.931 . S
C182 N180 1.340 1_556 S
C182 C183 1.407 . S
C182 H188 0.930 . S
C183 C181 1.332 . S
C183 C182 1.407 . S
C183 H185 0.929 . S
H184 C173 0.930 . S
H185 C183 0.929 . S
H186 C201 0.930 . S
H187 C208 0.929 . S
H188 C182 0.930 . S
H189 C181 0.931 . S
H190 C204 0.930 . S
H191 C171 0.930 . S
H192 C177 0.929 . S
H193 C178 0.930 1_545 S
H194 C199 0.930 . S
H195 C174 0.930 1_545 S
H196 C207 0.931 . S
N197 Tb168 2.617 . S
N197 C198 1.379 . S
N197 C201 1.334 1_554 S
C198 N197 1.379 . S
C198 C200 1.416 . S
C198 C206 1.424 . S
C199 H194 0.930 . S
C199 C201 1.390 . S
C199 C202 1.339 1_556 S
C200 C198 1.416 . S
C200 C202 1.416 . S
C200 C233 1.448 . S
C201 H186 0.930 . S
C201 N197 1.334 1_556 S
C201 C199 1.390 . S
C202 C199 1.339 1_554 S
C202 C200 1.416 . S
C202 H209 0.930 . S
N203 Tb168 2.572 . S
N203 C204 1.340 . S
N203 C206 1.361 . S
C204 H190 0.930 . S
C204 N203 1.340 . S
C204 C208 1.407 . S
C205 C206 1.413 . S
C205 C207 1.416 . S
C205 C234 1.427 . S
C206 C198 1.424 . S
C206 N203 1.361 . S
C206 C205 1.413 . S
C207 H196 0.931 . S
C207 C205 1.416 . S
C207 C208 1.332 . S
C208 H187 0.929 . S
C208 C204 1.407 . S
C208 C207 1.332 . S
H209 C202 0.930 . S
H210 C233 0.930 . S
H211 C234 0.929 . S
O212 Tb168 2.465 . S
O212 C232 1.264 . S
O213 Tb168 2.387 . S
O213 C224 1.264 . S
O214 Tb179 2.349 . S
O214 C224 1.243 . S
O215 Tb168 2.428 . S
O215 C232 1.256 . S
O216 Tb168 2.308 . S
O216 C231 1.266 . S
O217 Tb179 2.393 . S
O217 C231 1.248 . S
O218 Tb179 2.465 . S
O218 C243 1.264 . S
O219 Tb179 2.387 . S
O219 C235 1.264 . S
O220 Tb168 2.349 . S
O220 C235 1.243 . S
O221 Tb179 2.428 . S
O221 C243 1.256 . S
O222 Tb179 2.308 . S
O222 C242 1.266 1_554 S
O223 Tb168 2.393 1_556 S
O223 C242 1.248 . S
C224 O213 1.264 . S
C224 O214 1.243 . S
C225 C228 1.399 1_554 S
C225 C230 1.383 . S
C225 C232 1.496 . S
C226 C227 1.400 1_554 S
C226 C230 1.389 . S
C227 C226 1.400 1_556 S
C227 C229 1.379 . S
C227 H244 0.929 . S
C228 C225 1.399 1_556 S
C228 C229 1.392 . S
C228 H245 0.929 . S
C229 C227 1.379 . S
C229 C228 1.392 . S
C229 H246 0.929 . S
C230 C225 1.383 . S
C230 C226 1.389 . S
C230 H247 0.931 . S
C231 O216 1.266 . S
C231 O217 1.248 . S
C232 Tb168 2.802 . S
C232 O212 1.264 . S
C232 O215 1.256 . S
C232 C225 1.496 . S
C233 C200 1.448 . S
C233 H210 0.930 . S
C233 C234 1.328 . S
C234 C205 1.427 . S
C234 H211 0.929 . S
C234 C233 1.328 . S
C235 O219 1.264 . S
C235 O220 1.243 . S
C236 C239 1.399 . S
C236 C240 1.383 . S
C236 C243 1.496 . S
C237 C238 1.399 . S
C237 C240 1.389 . S
C238 C237 1.399 . S
C238 C241 1.380 . S
C238 H248 0.929 . S
C239 C236 1.399 . S
C239 C241 1.392 . S
C239 H249 0.929 . S
C240 C236 1.383 . S
C240 C237 1.389 . S
C240 H250 0.931 . S
C241 C238 1.380 . S
C241 C239 1.392 . S
C241 H251 0.929 . S
C242 O222 1.266 1_556 S
C242 O223 1.248 . S
C243 Tb179 2.802 . S
C243 O218 1.264 . S
C243 O221 1.256 . S
C243 C236 1.496 . S
H244 C227 0.929 . S
H245 C228 0.929 . S
H246 C229 0.929 . S
H247 C230 0.931 . S
H248 C238 0.929 . S
H249 C239 0.929 . S
H250 C240 0.931 . S
H251 C241 0.929 . S
Tb252 N281 2.617 . S
Tb252 N287 2.572 . S
Tb252 O296 2.465 . S
Tb252 O297 2.387 . S
Tb252 O299 2.428 . S
Tb252 O300 2.308 . S
Tb252 O304 2.349 . S
Tb252 O307 2.393 . S
Tb252 C316 2.802 . S
C253 N254 1.379 . S
C253 C256 1.416 . S
C253 C260 1.424 . S
N254 C253 1.379 . S
N254 C257 1.334 . S
N254 Tb263 2.617 . S
C255 C257 1.390 . S
C255 C258 1.339 . S
C255 H275 0.930 . S
C256 C253 1.416 . S
C256 C258 1.416 . S
C256 C262 1.448 . S
C257 N254 1.334 . S
C257 C255 1.390 . S
C257 H268 0.930 . S
C258 C255 1.339 . S
C258 C256 1.416 . S
C258 H279 0.930 1_545 S
C259 C260 1.413 . S
C259 C261 1.427 . S
C259 C265 1.416 . S
C260 C253 1.424 . S
C260 C259 1.413 . S
C260 N264 1.361 . S
C261 C259 1.427 . S
C261 C262 1.328 . S
C261 H276 0.929 . S
C262 C256 1.448 . S
C262 C261 1.328 . S
C262 H277 0.930 1_545 S
Tb263 N254 2.617 . S
Tb263 N264 2.572 . S
Tb263 O298 2.349 . S
Tb263 O301 2.393 . S
Tb263 O302 2.465 . S
Tb263 O303 2.387 . S
Tb263 O305 2.428 . S
Tb263 O306 2.308 . S
Tb263 C327 2.802 . S
N264 C260 1.361 . S
N264 Tb263 2.572 . S
N264 C266 1.340 . S
C265 C259 1.416 . S
C265 C267 1.332 . S
C265 H273 0.931 . S
C266 N264 1.340 . S
C266 C267 1.407 . S
C266 H272 0.930 . S
C267 C265 1.332 . S
C267 C266 1.407 . S
C267 H269 0.929 . S
H268 C257 0.930 . S
H269 C267 0.929 . S
H270 C285 0.930 . S
H271 C292 0.929 . S
H272 C266 0.930 . S
H273 C265 0.931 . S
H274 C288 0.930 . S
H275 C255 0.930 . S
H276 C261 0.929 . S
H277 C262 0.930 1_565 S
H278 C283 0.930 . S
H279 C258 0.930 1_565 S
H280 C291 0.931 . S
N281 Tb252 2.617 . S
N281 C282 1.379 . S
N281 C285 1.334 . S
C282 N281 1.379 . S
C282 C284 1.416 . S
C282 C290 1.424 . S
C283 H278 0.930 . S
C283 C285 1.390 . S
C283 C286 1.339 . S
C284 C282 1.416 . S
C284 C286 1.416 . S
C284 C317 1.448 . S
C285 H270 0.930 . S
C285 N281 1.334 . S
C285 C283 1.390 . S
C286 C283 1.339 . S
C286 C284 1.416 . S
C286 H293 0.930 . S
N287 Tb252 2.572 . S
N287 C288 1.340 . S
N287 C290 1.361 . S
C288 H274 0.930 . S
C288 N287 1.340 . S
C288 C292 1.407 . S
C289 C290 1.413 . S
C289 C291 1.416 . S
C289 C318 1.427 . S
C290 C282 1.424 . S
C290 N287 1.361 . S
C290 C289 1.413 . S
C291 H280 0.931 . S
C291 C289 1.416 . S
C291 C292 1.332 . S
C292 H271 0.929 . S
C292 C288 1.407 . S
C292 C291 1.332 . S
H293 C286 0.930 . S
H294 C317 0.930 . S
H295 C318 0.929 . S
O296 Tb252 2.465 . S
O296 C316 1.264 . S
O297 Tb252 2.387 . S
O297 C308 1.264 . S
O298 Tb263 2.349 . S
O298 C308 1.243 . S
O299 Tb252 2.428 . S
O299 C316 1.256 . S
O300 Tb252 2.308 . S
O300 C315 1.266 . S
O301 Tb263 2.393 . S
O301 C315 1.248 . S
O302 Tb263 2.465 . S
O302 C327 1.264 . S
O303 Tb263 2.387 . S
O303 C319 1.264 . S
O304 Tb252 2.349 . S
O304 C319 1.243 . S
O305 Tb263 2.428 . S
O305 C327 1.256 . S
O306 Tb263 2.308 . S
O306 C326 1.266 . S
O307 Tb252 2.393 . S
O307 C326 1.248 . S
C308 O297 1.264 . S
C308 O298 1.243 . S
C309 C312 1.399 . S
C309 C314 1.383 . S
C309 C316 1.496 . S
C310 C311 1.399 . S
C310 C314 1.389 . S
C311 C310 1.399 . S
C311 C313 1.380 . S
C311 H328 0.929 . S
C312 C309 1.399 . S
C312 C313 1.392 . S
C312 H329 0.929 . S
C313 C311 1.380 . S
C313 C312 1.392 . S
C313 H330 0.929 . S
C314 C309 1.383 . S
C314 C310 1.389 . S
C314 H331 0.931 . S
C315 O300 1.266 . S
C315 O301 1.248 . S
C316 Tb252 2.802 . S
C316 O296 1.264 . S
C316 O299 1.256 . S
C316 C309 1.496 . S
C317 C284 1.448 . S
C317 H294 0.930 . S
C317 C318 1.328 . S
C318 C289 1.427 . S
C318 H295 0.929 . S
C318 C317 1.328 . S
C319 O303 1.264 . S
C319 O304 1.243 . S
C320 C323 1.399 . S
C320 C324 1.383 . S
C320 C327 1.496 . S
C321 C322 1.399 . S
C321 C324 1.389 . S
C322 C321 1.399 . S
C322 C325 1.380 . S
C322 H332 0.929 . S
C323 C320 1.399 . S
C323 C325 1.392 . S
C323 H333 0.929 . S
C324 C320 1.383 . S
C324 C321 1.389 . S
C324 H334 0.931 . S
C325 C322 1.380 . S
C325 C323 1.392 . S
C325 H335 0.929 . S
C326 O306 1.266 . S
C326 O307 1.248 . S
C327 Tb263 2.802 . S
C327 O302 1.264 . S
C327 O305 1.256 . S
C327 C320 1.496 . S
H328 C311 0.929 . S
H329 C312 0.929 . S
H330 C313 0.929 . S
H331 C314 0.931 . S
H332 C322 0.929 . S
H333 C323 0.929 . S
H334 C324 0.931 . S
H335 C325 0.929 . S
Tb336 N365 2.617 . S
Tb336 N371 2.572 . S
Tb336 O380 2.465 . S
Tb336 O381 2.387 . S
Tb336 O383 2.428 . S
Tb336 O384 2.308 . S
Tb336 O388 2.349 . S
Tb336 O391 2.393 . S
Tb336 C400 2.802 . S
C337 N338 1.379 . S
C337 C340 1.416 . S
C337 C344 1.424 . S
N338 C337 1.379 . S
N338 C341 1.334 . S
N338 Tb347 2.617 . S
C339 C341 1.390 . S
C339 C342 1.339 . S
C339 H359 0.930 . S
C340 C337 1.416 . S
C340 C342 1.416 . S
C340 C346 1.448 . S
C341 N338 1.334 . S
C341 C339 1.390 . S
C341 H352 0.930 . S
C342 C339 1.339 . S
C342 C340 1.416 . S
C342 H363 0.930 1_655 S
C343 C344 1.413 . S
C343 C345 1.427 . S
C343 C349 1.416 . S
C344 C337 1.424 . S
C344 C343 1.413 . S
C344 N348 1.361 . S
C345 C343 1.427 . S
C345 C346 1.328 . S
C345 H360 0.929 . S
C346 C340 1.448 . S
C346 C345 1.328 . S
C346 H361 0.930 1_655 S
Tb347 N338 2.617 . S
Tb347 N348 2.572 . S
Tb347 O382 2.349 . S
Tb347 O385 2.393 . S
Tb347 O386 2.465 . S
Tb347 O387 2.387 . S
Tb347 O389 2.428 . S
Tb347 O390 2.308 . S
Tb347 C411 2.802 . S
N348 C344 1.361 . S
N348 Tb347 2.572 . S
N348 C350 1.340 . S
C349 C343 1.416 . S
C349 C351 1.332 . S
C349 H357 0.931 . S
C350 N348 1.340 . S
C350 C351 1.407 . S
C350 H356 0.930 . S
C351 C349 1.332 . S
C351 C350 1.407 . S
C351 H353 0.929 . S
H352 C341 0.930 . S
H353 C351 0.929 . S
H354 C369 0.930 . S
H355 C376 0.929 . S
H356 C350 0.930 . S
H357 C349 0.931 . S
H358 C372 0.930 . S
H359 C339 0.930 . S
H360 C345 0.929 . S
H361 C346 0.930 1_455 S
H362 C367 0.930 . S
H363 C342 0.930 1_455 S
H364 C375 0.931 . S
N365 Tb336 2.617 . S
N365 C366 1.379 . S
N365 C369 1.334 . S
C366 N365 1.379 . S
C366 C368 1.416 . S
C366 C374 1.424 . S
C367 H362 0.930 . S
C367 C369 1.390 . S
C367 C370 1.339 . S
C368 C366 1.416 . S
C368 C370 1.416 . S
C368 C401 1.448 . S
C369 H354 0.930 . S
C369 N365 1.334 . S
C369 C367 1.390 . S
C370 C367 1.339 . S
C370 C368 1.416 . S
C370 H377 0.930 . S
N371 Tb336 2.572 . S
N371 C372 1.340 . S
N371 C374 1.361 . S
C372 H358 0.930 . S
C372 N371 1.340 . S
C372 C376 1.407 . S
C373 C374 1.413 . S
C373 C375 1.416 . S
C373 C402 1.427 . S
C374 C366 1.424 . S
C374 N371 1.361 . S
C374 C373 1.413 . S
C375 H364 0.931 . S
C375 C373 1.416 . S
C375 C376 1.332 . S
C376 H355 0.929 . S
C376 C372 1.407 . S
C376 C375 1.332 . S
H377 C370 0.930 . S
H378 C401 0.930 . S
H379 C402 0.929 . S
O380 Tb336 2.465 . S
O380 C400 1.264 . S
O381 Tb336 2.387 . S
O381 C392 1.264 . S
O382 Tb347 2.349 . S
O382 C392 1.243 . S
O383 Tb336 2.428 . S
O383 C400 1.256 . S
O384 Tb336 2.308 . S
O384 C399 1.266 . S
O385 Tb347 2.393 . S
O385 C399 1.248 . S
O386 Tb347 2.465 . S
O386 C411 1.264 . S
O387 Tb347 2.387 . S
O387 C403 1.264 . S
O388 Tb336 2.349 . S
O388 C403 1.243 . S
O389 Tb347 2.428 . S
O389 C411 1.256 . S
O390 Tb347 2.308 . S
O390 C410 1.266 . S
O391 Tb336 2.393 . S
O391 C410 1.248 . S
C392 O381 1.264 . S
C392 O382 1.243 . S
C393 C396 1.399 . S
C393 C398 1.383 . S
C393 C400 1.496 . S
C394 C395 1.399 . S
C394 C398 1.389 . S
C395 C394 1.399 . S
C395 C397 1.380 . S
C395 H412 0.929 . S
C396 C393 1.399 . S
C396 C397 1.392 . S
C396 H413 0.929 . S
C397 C395 1.380 . S
C397 C396 1.392 . S
C397 H414 0.929 . S
C398 C393 1.383 . S
C398 C394 1.389 . S
C398 H415 0.931 . S
C399 O384 1.266 . S
C399 O385 1.248 . S
C400 Tb336 2.802 . S
C400 O380 1.264 . S
C400 O383 1.256 . S
C400 C393 1.496 . S
C401 C368 1.448 . S
C401 H378 0.930 . S
C401 C402 1.328 . S
C402 C373 1.427 . S
C402 H379 0.929 . S
C402 C401 1.328 . S
C403 O387 1.264 . S
C403 O388 1.243 . S
C404 C407 1.399 . S
C404 C408 1.383 . S
C404 C411 1.496 . S
C405 C406 1.399 . S
C405 C408 1.389 . S
C406 C405 1.399 . S
C406 C409 1.380 . S
C406 H416 0.929 . S
C407 C404 1.399 . S
C407 C409 1.392 . S
C407 H417 0.929 . S
C408 C404 1.383 . S
C408 C405 1.389 . S
C408 H418 0.931 . S
C409 C406 1.380 . S
C409 C407 1.392 . S
C409 H419 0.929 . S
C410 O390 1.266 . S
C410 O391 1.248 . S
C411 Tb347 2.802 . S
C411 O386 1.264 . S
C411 O389 1.256 . S
C411 C404 1.496 . S
H412 C395 0.929 . S
H413 C396 0.929 . S
H414 C397 0.929 . S
H415 C398 0.931 . S
H416 C406 0.929 . S
H417 C407 0.929 . S
H418 C408 0.931 . S
H419 C409 0.929 . S
Tb420 N449 2.617 . S
Tb420 N455 2.572 . S
Tb420 O464 2.465 . S
Tb420 O465 2.387 . S
Tb420 O467 2.428 . S
Tb420 O468 2.308 . S
Tb420 O472 2.349 . S
Tb420 O475 2.393 . S
Tb420 C484 2.802 . S
C421 N422 1.379 . S
C421 C424 1.416 . S
C421 C428 1.424 . S
N422 C421 1.379 . S
N422 C425 1.334 . S
N422 Tb431 2.617 . S
C423 C425 1.390 . S
C423 C426 1.339 . S
C423 H443 0.930 . S
C424 C421 1.416 . S
C424 C426 1.416 . S
C424 C430 1.448 . S
C425 N422 1.334 . S
C425 C423 1.390 . S
C425 H436 0.930 . S
C426 C423 1.339 . S
C426 C424 1.416 . S
C426 H447 0.930 . S
C427 C428 1.413 . S
C427 C429 1.427 . S
C427 C433 1.416 . S
C428 C421 1.424 . S
C428 C427 1.413 . S
C428 N432 1.361 . S
C429 C427 1.427 . S
C429 C430 1.328 . S
C429 H444 0.929 . S
C430 C424 1.448 . S
C430 C429 1.328 . S
C430 H445 0.930 . S
Tb431 N422 2.617 . S
Tb431 N432 2.572 . S
Tb431 O466 2.349 . S
Tb431 O469 2.393 . S
Tb431 O470 2.465 . S
Tb431 O471 2.387 . S
Tb431 O473 2.428 . S
Tb431 O474 2.308 . S
Tb431 C495 2.802 . S
N432 C428 1.361 . S
N432 Tb431 2.572 . S
N432 C434 1.340 . S
C433 C427 1.416 . S
C433 C435 1.332 . S
C433 H441 0.931 . S
C434 N432 1.340 . S
C434 C435 1.407 . S
C434 H440 0.930 . S
C435 C433 1.332 . S
C435 C434 1.407 . S
C435 H437 0.929 . S
H436 C425 0.930 . S
H437 C435 0.929 . S
H438 C453 0.930 . S
H439 C460 0.929 . S
H440 C434 0.930 . S
H441 C433 0.931 . S
H442 C456 0.930 . S
H443 C423 0.930 . S
H444 C429 0.929 . S
H445 C430 0.930 . S
H446 C451 0.930 . S
H447 C426 0.930 . S
H448 C459 0.931 . S
N449 Tb420 2.617 . S
N449 C450 1.379 . S
N449 C453 1.334 . S
C450 N449 1.379 . S
C450 C452 1.416 . S
C450 C458 1.424 . S
C451 H446 0.930 . S
C451 C453 1.390 . S
C451 C454 1.339 . S
C452 C450 1.416 . S
C452 C454 1.416 . S
C452 C485 1.448 . S
C453 H438 0.930 . S
C453 N449 1.334 . S
C453 C451 1.390 . S
C454 C451 1.339 . S
C454 C452 1.416 . S
C454 H461 0.930 . S
N455 Tb420 2.572 . S
N455 C456 1.340 . S
N455 C458 1.361 . S
C456 H442 0.930 . S
C456 N455 1.340 . S
C456 C460 1.407 . S
C457 C458 1.413 . S
C457 C459 1.416 . S
C457 C486 1.427 . S
C458 C450 1.424 . S
C458 N455 1.361 . S
C458 C457 1.413 . S
C459 H448 0.931 . S
C459 C457 1.416 . S
C459 C460 1.332 . S
C460 H439 0.929 . S
C460 C456 1.407 . S
C460 C459 1.332 . S
H461 C454 0.930 . S
H462 C485 0.930 . S
H463 C486 0.929 . S
O464 Tb420 2.465 . S
O464 C484 1.264 . S
O465 Tb420 2.387 . S
O465 C476 1.264 . S
O466 Tb431 2.349 . S
O466 C476 1.243 . S
O467 Tb420 2.428 . S
O467 C484 1.256 . S
O468 Tb420 2.308 . S
O468 C483 1.266 . S
O469 Tb431 2.393 . S
O469 C483 1.248 . S
O470 Tb431 2.465 . S
O470 C495 1.264 . S
O471 Tb431 2.387 . S
O471 C487 1.264 . S
O472 Tb420 2.349 . S
O472 C487 1.243 . S
O473 Tb431 2.428 . S
O473 C495 1.256 . S
O474 Tb431 2.308 . S
O474 C494 1.266 . S
O475 Tb420 2.393 . S
O475 C494 1.248 . S
C476 O465 1.264 . S
C476 O466 1.243 . S
C477 C480 1.399 . S
C477 C482 1.383 . S
C477 C484 1.496 . S
C478 C479 1.399 . S
C478 C482 1.389 . S
C479 C478 1.399 . S
C479 C481 1.380 . S
C479 H496 0.929 . S
C480 C477 1.399 . S
C480 C481 1.392 . S
C480 H497 0.929 . S
C481 C479 1.380 . S
C481 C480 1.392 . S
C481 H498 0.929 . S
C482 C477 1.383 . S
C482 C478 1.389 . S
C482 H499 0.931 . S
C483 O468 1.266 . S
C483 O469 1.248 . S
C484 Tb420 2.802 . S
C484 O464 1.264 . S
C484 O467 1.256 . S
C484 C477 1.496 . S
C485 C452 1.448 . S
C485 H462 0.930 . S
C485 C486 1.328 . S
C486 C457 1.427 . S
C486 H463 0.929 . S
C486 C485 1.328 . S
C487 O471 1.264 . S
C487 O472 1.243 . S
C488 C491 1.399 . S
C488 C492 1.383 . S
C488 C495 1.496 . S
C489 C490 1.399 . S
C489 C492 1.389 . S
C490 C489 1.399 . S
C490 C493 1.380 . S
C490 H500 0.929 . S
C491 C488 1.399 . S
C491 C493 1.392 . S
C491 H501 0.929 . S
C492 C488 1.383 . S
C492 C489 1.389 . S
C492 H502 0.931 . S
C493 C490 1.380 . S
C493 C491 1.392 . S
C493 H503 0.929 . S
C494 O474 1.266 . S
C494 O475 1.248 . S
C495 Tb431 2.802 . S
C495 O470 1.264 . S
C495 O473 1.256 . S
C495 C488 1.496 . S
H496 C479 0.929 . S
H497 C480 0.929 . S
H498 C481 0.929 . S
H499 C482 0.931 . S
H500 C490 0.929 . S
H501 C491 0.929 . S
H502 C492 0.931 . S
H503 C493 0.929 . S
Tb504 N533 2.617 . S
Tb504 N539 2.572 . S
Tb504 O548 2.465 . S
Tb504 O549 2.387 . S
Tb504 O551 2.428 . S
Tb504 O552 2.308 . S
Tb504 O556 2.349 . S
Tb504 O559 2.393 . S
Tb504 C568 2.802 . S
C505 N506 1.379 . S
C505 C508 1.416 . S
C505 C512 1.424 . S
N506 C505 1.379 . S
N506 C509 1.334 1_556 S
N506 Tb515 2.617 . S
C507 C509 1.390 . S
C507 C510 1.339 1_554 S
C507 H527 0.930 . S
C508 C505 1.416 . S
C508 C510 1.416 . S
C508 C514 1.448 . S
C509 N506 1.334 1_554 S
C509 C507 1.390 . S
C509 H520 0.930 . S
C510 C507 1.339 1_556 S
C510 C508 1.416 . S
C510 H531 0.930 . S
C511 C512 1.413 . S
C511 C513 1.427 . S
C511 C517 1.416 . S
C512 C505 1.424 . S
C512 C511 1.413 . S
C512 N516 1.361 . S
C513 C511 1.427 . S
C513 C514 1.328 . S
C513 H528 0.929 . S
C514 C508 1.448 . S
C514 C513 1.328 . S
C514 H529 0.930 . S
Tb515 N506 2.617 . S
Tb515 N516 2.572 . S
Tb515 O550 2.349 . S
Tb515 O553 2.393 1_556 S
Tb515 O554 2.465 . S
Tb515 O555 2.387 . S
Tb515 O557 2.428 . S
Tb515 O558 2.308 . S
Tb515 C579 2.802 . S
N516 C512 1.361 . S
N516 Tb515 2.572 . S
N516 C518 1.340 . S
C517 C511 1.416 . S
C517 C519 1.332 . S
C517 H525 0.931 . S
C518 N516 1.340 . S
C518 C519 1.407 . S
C518 H524 0.930 . S
C519 C517 1.332 . S
C519 C518 1.407 . S
C519 H521 0.929 . S
H520 C509 0.930 . S
H521 C519 0.929 . S
H522 C537 0.930 . S
H523 C544 0.929 . S
H524 C518 0.930 . S
H525 C517 0.931 . S
H526 C540 0.930 . S
H527 C507 0.930 . S
H528 C513 0.929 . S
H529 C514 0.930 . S
H530 C535 0.930 . S
H531 C510 0.930 . S
H532 C543 0.931 . S
N533 Tb504 2.617 . S
N533 C534 1.379 . S
N533 C537 1.334 . S
C534 N533 1.379 . S
C534 C536 1.416 . S
C534 C542 1.424 . S
C535 H530 0.930 . S
C535 C537 1.390 . S
C535 C538 1.339 . S
C536 C534 1.416 . S
C536 C538 1.416 . S
C536 C569 1.448 . S
C537 H522 0.930 . S
C537 N533 1.334 . S
C537 C535 1.390 . S
C538 C535 1.339 . S
C538 C536 1.416 . S
C538 H545 0.930 1_655 S
N539 Tb504 2.572 . S
N539 C540 1.340 1_556 S
N539 C542 1.361 . S
C540 H526 0.930 . S
C540 N539 1.340 1_554 S
C540 C544 1.407 . S
C541 C542 1.413 1_554 S
C541 C543 1.416 . S
C541 C570 1.427 . S
C542 C534 1.424 . S
C542 N539 1.361 . S
C542 C541 1.413 1_556 S
C543 H532 0.931 . S
C543 C541 1.416 . S
C543 C544 1.332 . S
C544 H523 0.929 . S
C544 C540 1.407 . S
C544 C543 1.332 . S
H545 C538 0.930 1_455 S
H546 C569 0.930 1_455 S
H547 C570 0.929 . S
O548 Tb504 2.465 . S
O548 C568 1.264 . S
O549 Tb504 2.387 . S
O549 C560 1.264 . S
O550 Tb515 2.349 . S
O550 C560 1.243 . S
O551 Tb504 2.428 . S
O551 C568 1.256 . S
O552 Tb504 2.308 . S
O552 C567 1.266 1_556 S
O553 Tb515 2.393 1_554 S
O553 C567 1.248 . S
O554 Tb515 2.465 . S
O554 C579 1.264 . S
O555 Tb515 2.387 . S
O555 C571 1.264 . S
O556 Tb504 2.349 . S
O556 C571 1.243 . S
O557 Tb515 2.428 . S
O557 C579 1.256 . S
O558 Tb515 2.308 . S
O558 C578 1.266 . S
O559 Tb504 2.393 . S
O559 C578 1.248 . S
C560 O549 1.264 . S
C560 O550 1.243 . S
C561 C564 1.399 . S
C561 C566 1.383 . S
C561 C568 1.496 . S
C562 C563 1.399 . S
C562 C566 1.389 . S
C563 C562 1.399 . S
C563 C565 1.380 . S
C563 H580 0.929 . S
C564 C561 1.399 . S
C564 C565 1.392 . S
C564 H581 0.929 . S
C565 C563 1.380 . S
C565 C564 1.392 . S
C565 H582 0.929 . S
C566 C561 1.383 . S
C566 C562 1.389 . S
C566 H583 0.931 . S
C567 O552 1.266 1_554 S
C567 O553 1.248 . S
C568 Tb504 2.802 . S
C568 O548 1.264 . S
C568 O551 1.256 . S
C568 C561 1.496 . S
C569 C536 1.448 . S
C569 H546 0.930 1_655 S
C569 C570 1.328 1_556 S
C570 C541 1.427 . S
C570 H547 0.929 . S
C570 C569 1.328 1_554 S
C571 O555 1.264 . S
C571 O556 1.243 . S
C572 C575 1.399 1_556 S
C572 C576 1.383 . S
C572 C579 1.496 . S
C573 C574 1.399 1_556 S
C573 C576 1.389 . S
C574 C573 1.399 1_554 S
C574 C577 1.380 . S
C574 H584 0.929 . S
C575 C572 1.399 1_554 S
C575 C577 1.392 . S
C575 H585 0.929 . S
C576 C572 1.383 . S
C576 C573 1.389 . S
C576 H586 0.931 . S
C577 C574 1.380 . S
C577 C575 1.392 . S
C577 H587 0.929 . S
C578 O558 1.266 . S
C578 O559 1.248 . S
C579 Tb515 2.802 . S
C579 O554 1.264 . S
C579 O557 1.256 . S
C579 C572 1.496 . S
H580 C563 0.929 . S
H581 C564 0.929 . S
H582 C565 0.929 . S
H583 C566 0.931 . S
H584 C574 0.929 . S
H585 C575 0.929 . S
H586 C576 0.931 . S
H587 C577 0.929 . S
Tb588 N617 2.617 . S
Tb588 N623 2.572 . S
Tb588 O632 2.465 . S
Tb588 O633 2.387 . S
Tb588 O635 2.428 . S
Tb588 O636 2.308 . S
Tb588 O640 2.349 . S
Tb588 O643 2.393 . S
Tb588 C652 2.802 . S
C589 N590 1.379 . S
C589 C592 1.416 . S
C589 C596 1.424 . S
N590 C589 1.379 . S
N590 C593 1.334 1_556 S
N590 Tb599 2.617 . S
C591 C593 1.390 . S
C591 C594 1.339 1_554 S
C591 H611 0.930 . S
C592 C589 1.416 . S
C592 C594 1.416 . S
C592 C598 1.448 . S
C593 N590 1.334 1_554 S
C593 C591 1.390 . S
C593 H604 0.930 . S
C594 C591 1.339 1_556 S
C594 C592 1.416 . S
C594 H615 0.930 . S
C595 C596 1.413 . S
C595 C597 1.427 . S
C595 C601 1.416 . S
C596 C589 1.424 . S
C596 C595 1.413 . S
C596 N600 1.361 . S
C597 C595 1.427 . S
C597 C598 1.328 . S
C597 H612 0.929 . S
C598 C592 1.448 . S
C598 C597 1.328 . S
C598 H613 0.930 . S
Tb599 N590 2.617 . S
Tb599 N600 2.572 . S
Tb599 O634 2.349 . S
Tb599 O637 2.393 1_556 S
Tb599 O638 2.465 . S
Tb599 O639 2.387 . S
Tb599 O641 2.428 . S
Tb599 O642 2.308 . S
Tb599 C663 2.802 . S
N600 C596 1.361 . S
N600 Tb599 2.572 . S
N600 C602 1.340 . S
C601 C595 1.416 . S
C601 C603 1.332 . S
C601 H609 0.931 . S
C602 N600 1.340 . S
C602 C603 1.407 . S
C602 H608 0.930 . S
C603 C601 1.332 . S
C603 C602 1.407 . S
C603 H605 0.929 . S
H604 C593 0.930 . S
H605 C603 0.929 . S
H606 C621 0.930 . S
H607 C628 0.929 . S
H608 C602 0.930 . S
H609 C601 0.931 . S
H610 C624 0.930 . S
H611 C591 0.930 . S
H612 C597 0.929 . S
H613 C598 0.930 . S
H614 C619 0.930 . S
H615 C594 0.930 . S
H616 C627 0.931 . S
N617 Tb588 2.617 . S
N617 C618 1.379 . S
N617 C621 1.334 . S
C618 N617 1.379 . S
C618 C620 1.416 . S
C618 C626 1.424 . S
C619 H614 0.930 . S
C619 C621 1.390 . S
C619 C622 1.339 . S
C620 C618 1.416 . S
C620 C622 1.416 . S
C620 C653 1.448 . S
C621 H606 0.930 . S
C621 N617 1.334 . S
C621 C619 1.390 . S
C622 C619 1.339 . S
C622 C620 1.416 . S
C622 H629 0.930 . S
N623 Tb588 2.572 . S
N623 C624 1.340 1_556 S
N623 C626 1.361 . S
C624 H610 0.930 . S
C624 N623 1.340 1_554 S
C624 C628 1.407 . S
C625 C626 1.413 1_554 S
C625 C627 1.416 . S
C625 C654 1.427 . S
C626 C618 1.424 . S
C626 N623 1.361 . S
C626 C625 1.413 1_556 S
C627 H616 0.931 . S
C627 C625 1.416 . S
C627 C628 1.332 . S
C628 H607 0.929 . S
C628 C624 1.407 . S
C628 C627 1.332 . S
H629 C622 0.930 . S
H630 C653 0.930 . S
H631 C654 0.929 . S
O632 Tb588 2.465 . S
O632 C652 1.264 . S
O633 Tb588 2.387 . S
O633 C644 1.264 . S
O634 Tb599 2.349 . S
O634 C644 1.243 . S
O635 Tb588 2.428 . S
O635 C652 1.256 . S
O636 Tb588 2.308 . S
O636 C651 1.266 1_556 S
O637 Tb599 2.393 1_554 S
O637 C651 1.248 . S
O638 Tb599 2.465 . S
O638 C663 1.264 . S
O639 Tb599 2.387 . S
O639 C655 1.264 . S
O640 Tb588 2.349 . S
O640 C655 1.243 . S
O641 Tb599 2.428 . S
O641 C663 1.256 . S
O642 Tb599 2.308 . S
O642 C662 1.266 . S
O643 Tb588 2.393 . S
O643 C662 1.248 . S
C644 O633 1.264 . S
C644 O634 1.243 . S
C645 C648 1.399 . S
C645 C650 1.383 . S
C645 C652 1.496 . S
C646 C647 1.399 . S
C646 C650 1.389 . S
C647 C646 1.399 . S
C647 C649 1.380 . S
C647 H664 0.929 . S
C648 C645 1.399 . S
C648 C649 1.392 . S
C648 H665 0.929 . S
C649 C647 1.380 . S
C649 C648 1.392 . S
C649 H666 0.929 . S
C650 C645 1.383 . S
C650 C646 1.389 . S
C650 H667 0.931 . S
C651 O636 1.266 1_554 S
C651 O637 1.248 . S
C652 Tb588 2.802 . S
C652 O632 1.264 . S
C652 O635 1.256 . S
C652 C645 1.496 . S
C653 C620 1.448 . S
C653 H630 0.930 . S
C653 C654 1.328 1_556 S
C654 C625 1.427 . S
C654 H631 0.929 . S
C654 C653 1.328 1_554 S
C655 O639 1.264 . S
C655 O640 1.243 . S
C656 C659 1.399 1_556 S
C656 C660 1.383 . S
C656 C663 1.496 . S
C657 C658 1.399 1_556 S
C657 C660 1.389 . S
C658 C657 1.399 1_554 S
C658 C661 1.380 . S
C658 H668 0.929 . S
C659 C656 1.399 1_554 S
C659 C661 1.392 . S
C659 H669 0.929 . S
C660 C656 1.383 . S
C660 C657 1.389 . S
C660 H670 0.931 . S
C661 C658 1.380 . S
C661 C659 1.392 . S
C661 H671 0.929 . S
C662 O642 1.266 . S
C662 O643 1.248 . S
C663 Tb599 2.802 . S
C663 O638 1.264 . S
C663 O641 1.256 . S
C663 C656 1.496 . S
H664 C647 0.929 . S
H665 C648 0.929 . S
H666 C649 0.929 . S
H667 C650 0.931 . S
H668 C658 0.929 . S
H669 C659 0.929 . S
H670 C660 0.931 . S
H671 C661 0.929 . S
Tb672 N701 2.617 . S
Tb672 N707 2.572 . S
Tb672 O716 2.465 . S
Tb672 O717 2.387 . S
Tb672 O719 2.428 . S
Tb672 O720 2.308 . S
Tb672 O724 2.349 . S
Tb672 O727 2.393 . S
Tb672 C736 2.802 . S
C673 N674 1.379 . S
C673 C676 1.416 . S
C673 C680 1.424 . S
N674 C673 1.379 . S
N674 C677 1.334 1_556 S
N674 Tb683 2.617 . S
C675 C677 1.390 . S
C675 C678 1.339 1_554 S
C675 H695 0.930 . S
C676 C673 1.416 . S
C676 C678 1.416 . S
C676 C682 1.448 . S
C677 N674 1.334 1_554 S
C677 C675 1.390 . S
C677 H688 0.930 . S
C678 C675 1.339 1_556 S
C678 C676 1.416 . S
C678 H699 0.930 . S
C679 C680 1.413 . S
C679 C681 1.427 . S
C679 C685 1.416 . S
C680 C673 1.424 . S
C680 C679 1.413 . S
C680 N684 1.361 . S
C681 C679 1.427 . S
C681 C682 1.328 . S
C681 H696 0.929 . S
C682 C676 1.448 . S
C682 C681 1.328 . S
C682 H697 0.930 . S
Tb683 N674 2.617 . S
Tb683 N684 2.572 . S
Tb683 O718 2.349 . S
Tb683 O721 2.393 1_556 S
Tb683 O722 2.465 . S
Tb683 O723 2.387 . S
Tb683 O725 2.428 . S
Tb683 O726 2.308 . S
Tb683 C747 2.802 . S
N684 C680 1.361 . S
N684 Tb683 2.572 . S
N684 C686 1.340 . S
C685 C679 1.416 . S
C685 C687 1.332 . S
C685 H693 0.931 . S
C686 N684 1.340 . S
C686 C687 1.407 . S
C686 H692 0.930 . S
C687 C685 1.332 . S
C687 C686 1.407 . S
C687 H689 0.929 . S
H688 C677 0.930 . S
H689 C687 0.929 . S
H690 C705 0.930 . S
H691 C712 0.929 . S
H692 C686 0.930 . S
H693 C685 0.931 . S
H694 C708 0.930 . S
H695 C675 0.930 . S
H696 C681 0.929 . S
H697 C682 0.930 . S
H698 C703 0.930 . S
H699 C678 0.930 . S
H700 C711 0.931 . S
N701 Tb672 2.617 . S
N701 C702 1.379 . S
N701 C705 1.334 . S
C702 N701 1.379 . S
C702 C704 1.416 . S
C702 C710 1.424 . S
C703 H698 0.930 . S
C703 C705 1.390 . S
C703 C706 1.339 . S
C704 C702 1.416 . S
C704 C706 1.416 . S
C704 C737 1.448 . S
C705 H690 0.930 . S
C705 N701 1.334 . S
C705 C703 1.390 . S
C706 C703 1.339 . S
C706 C704 1.416 . S
C706 H713 0.930 1_545 S
N707 Tb672 2.572 . S
N707 C708 1.340 1_556 S
N707 C710 1.361 . S
C708 H694 0.930 . S
C708 N707 1.340 1_554 S
C708 C712 1.407 . S
C709 C710 1.413 1_554 S
C709 C711 1.416 . S
C709 C738 1.427 . S
C710 C702 1.424 . S
C710 N707 1.361 . S
C710 C709 1.413 1_556 S
C711 H700 0.931 . S
C711 C709 1.416 . S
C711 C712 1.332 . S
C712 H691 0.929 . S
C712 C708 1.407 . S
C712 C711 1.332 . S
H713 C706 0.930 1_565 S
H714 C737 0.930 1_565 S
H715 C738 0.929 . S
O716 Tb672 2.465 . S
O716 C736 1.264 . S
O717 Tb672 2.387 . S
O717 C728 1.264 . S
O718 Tb683 2.349 . S
O718 C728 1.243 . S
O719 Tb672 2.428 . S
O719 C736 1.256 . S
O720 Tb672 2.308 . S
O720 C735 1.266 1_556 S
O721 Tb683 2.393 1_554 S
O721 C735 1.248 . S
O722 Tb683 2.465 . S
O722 C747 1.264 . S
O723 Tb683 2.387 . S
O723 C739 1.264 . S
O724 Tb672 2.349 . S
O724 C739 1.243 . S
O725 Tb683 2.428 . S
O725 C747 1.256 . S
O726 Tb683 2.308 . S
O726 C746 1.266 . S
O727 Tb672 2.393 . S
O727 C746 1.248 . S
C728 O717 1.264 . S
C728 O718 1.243 . S
C729 C732 1.399 . S
C729 C734 1.383 . S
C729 C736 1.496 . S
C730 C731 1.399 . S
C730 C734 1.389 . S
C731 C730 1.399 . S
C731 C733 1.380 . S
C731 H748 0.929 . S
C732 C729 1.399 . S
C732 C733 1.392 . S
C732 H749 0.929 . S
C733 C731 1.380 . S
C733 C732 1.392 . S
C733 H750 0.929 . S
C734 C729 1.383 . S
C734 C730 1.389 . S
C734 H751 0.931 . S
C735 O720 1.266 1_554 S
C735 O721 1.248 . S
C736 Tb672 2.802 . S
C736 O716 1.264 . S
C736 O719 1.256 . S
C736 C729 1.496 . S
C737 C704 1.448 . S
C737 H714 0.930 1_545 S
C737 C738 1.328 1_556 S
C738 C709 1.427 . S
C738 H715 0.929 . S
C738 C737 1.328 1_554 S
C739 O723 1.264 . S
C739 O724 1.243 . S
C740 C743 1.399 1_556 S
C740 C744 1.383 . S
C740 C747 1.496 . S
C741 C742 1.400 1_556 S
C741 C744 1.389 . S
C742 C741 1.400 1_554 S
C742 C745 1.379 . S
C742 H752 0.929 . S
C743 C740 1.399 1_554 S
C743 C745 1.392 . S
C743 H753 0.929 . S
C744 C740 1.383 . S
C744 C741 1.389 . S
C744 H754 0.931 . S
C745 C742 1.379 . S
C745 C743 1.392 . S
C745 H755 0.929 . S
C746 O726 1.266 . S
C746 O727 1.248 . S
C747 Tb683 2.802 . S
C747 O722 1.264 . S
C747 O725 1.256 . S
C747 C740 1.496 . S
H748 C731 0.929 . S
H749 C732 0.929 . S
H750 C733 0.929 . S
H751 C734 0.931 . S
H752 C742 0.929 . S
H753 C743 0.929 . S
H754 C744 0.931 . S
H755 C745 0.929 . S
Tb756 N785 2.617 . S
Tb756 N791 2.572 . S
Tb756 O800 2.465 . S
Tb756 O801 2.387 . S
Tb756 O803 2.428 . S
Tb756 O804 2.308 . S
Tb756 O808 2.349 . S
Tb756 O811 2.393 . S
Tb756 C820 2.802 . S
C757 N758 1.379 . S
C757 C760 1.416 . S
C757 C764 1.424 . S
N758 C757 1.379 . S
N758 C761 1.334 . S
N758 Tb767 2.617 . S
C759 C761 1.390 . S
C759 C762 1.339 . S
C759 H779 0.930 . S
C760 C757 1.416 . S
C760 C762 1.416 . S
C760 C766 1.448 . S
C761 N758 1.334 . S
C761 C759 1.390 . S
C761 H772 0.930 . S
C762 C759 1.339 . S
C762 C760 1.416 . S
C762 H783 0.930 . S
C763 C764 1.413 . S
C763 C765 1.427 . S
C763 C769 1.416 . S
C764 C757 1.424 . S
C764 C763 1.413 . S
C764 N768 1.361 . S
C765 C763 1.427 . S
C765 C766 1.328 . S
C765 H780 0.929 . S
C766 C760 1.448 . S
C766 C765 1.328 . S
C766 H781 0.930 . S
Tb767 N758 2.617 . S
Tb767 N768 2.572 . S
Tb767 O802 2.349 . S
Tb767 O805 2.393 . S
Tb767 O806 2.465 . S
Tb767 O807 2.387 . S
Tb767 O809 2.428 . S
Tb767 O810 2.308 . S
Tb767 C831 2.802 . S
N768 C764 1.361 . S
N768 Tb767 2.572 . S
N768 C770 1.340 . S
C769 C763 1.416 . S
C769 C771 1.332 . S
C769 H777 0.931 . S
C770 N768 1.340 . S
C770 C771 1.407 . S
C770 H776 0.930 . S
C771 C769 1.332 . S
C771 C770 1.407 . S
C771 H773 0.929 . S
H772 C761 0.930 . S
H773 C771 0.929 . S
H774 C789 0.930 . S
H775 C796 0.929 . S
H776 C770 0.930 . S
H777 C769 0.931 . S
H778 C792 0.930 . S
H779 C759 0.930 . S
H780 C765 0.929 . S
H781 C766 0.930 . S
H782 C787 0.930 . S
H783 C762 0.930 . S
H784 C795 0.931 . S
N785 Tb756 2.617 . S
N785 C786 1.379 . S
N785 C789 1.334 . S
C786 N785 1.379 . S
C786 C788 1.416 . S
C786 C794 1.424 . S
C787 H782 0.930 . S
C787 C789 1.390 . S
C787 C790 1.339 . S
C788 C786 1.416 . S
C788 C790 1.416 . S
C788 C821 1.448 . S
C789 H774 0.930 . S
C789 N785 1.334 . S
C789 C787 1.390 . S
C790 C787 1.339 . S
C790 C788 1.416 . S
C790 H797 0.930 1_565 S
N791 Tb756 2.572 . S
N791 C792 1.340 . S
N791 C794 1.361 . S
C792 H778 0.930 . S
C792 N791 1.340 . S
C792 C796 1.407 . S
C793 C794 1.413 . S
C793 C795 1.416 . S
C793 C822 1.427 . S
C794 C786 1.424 . S
C794 N791 1.361 . S
C794 C793 1.413 . S
C795 H784 0.931 . S
C795 C793 1.416 . S
C795 C796 1.332 . S
C796 H775 0.929 . S
C796 C792 1.407 . S
C796 C795 1.332 . S
H797 C790 0.930 1_545 S
H798 C821 0.930 1_545 S
H799 C822 0.929 . S
O800 Tb756 2.465 . S
O800 C820 1.264 . S
O801 Tb756 2.387 . S
O801 C812 1.264 . S
O802 Tb767 2.349 . S
O802 C812 1.243 . S
O803 Tb756 2.428 . S
O803 C820 1.256 . S
O804 Tb756 2.308 . S
O804 C819 1.266 . S
O805 Tb767 2.393 . S
O805 C819 1.248 . S
O806 Tb767 2.465 . S
O806 C831 1.264 . S
O807 Tb767 2.387 . S
O807 C823 1.264 . S
O808 Tb756 2.349 . S
O808 C823 1.243 . S
O809 Tb767 2.428 . S
O809 C831 1.256 . S
O810 Tb767 2.308 . S
O810 C830 1.266 . S
O811 Tb756 2.393 . S
O811 C830 1.248 . S
C812 O801 1.264 . S
C812 O802 1.243 . S
C813 C816 1.399 . S
C813 C818 1.383 . S
C813 C820 1.496 . S
C814 C815 1.399 . S
C814 C818 1.389 . S
C815 C814 1.399 . S
C815 C817 1.380 . S
C815 H832 0.929 . S
C816 C813 1.399 . S
C816 C817 1.392 . S
C816 H833 0.929 . S
C817 C815 1.380 . S
C817 C816 1.392 . S
C817 H834 0.929 . S
C818 C813 1.383 . S
C818 C814 1.389 . S
C818 H835 0.931 . S
C819 O804 1.266 . S
C819 O805 1.248 . S
C820 Tb756 2.802 . S
C820 O800 1.264 . S
C820 O803 1.256 . S
C820 C813 1.496 . S
C821 C788 1.448 . S
C821 H798 0.930 1_565 S
C821 C822 1.328 . S
C822 C793 1.427 . S
C822 H799 0.929 . S
C822 C821 1.328 . S
C823 O807 1.264 . S
C823 O808 1.243 . S
C824 C827 1.399 . S
C824 C828 1.383 . S
C824 C831 1.496 . S
C825 C826 1.399 . S
C825 C828 1.389 . S
C826 C825 1.399 . S
C826 C829 1.380 . S
C826 H836 0.929 . S
C827 C824 1.399 . S
C827 C829 1.392 . S
C827 H837 0.929 . S
C828 C824 1.383 . S
C828 C825 1.389 . S
C828 H838 0.931 . S
C829 C826 1.380 . S
C829 C827 1.392 . S
C829 H839 0.929 . S
C830 O810 1.266 . S
C830 O811 1.248 . S
C831 Tb767 2.802 . S
C831 O806 1.264 . S
C831 O809 1.256 . S
C831 C824 1.496 . S
H832 C815 0.929 . S
H833 C816 0.929 . S
H834 C817 0.929 . S
H835 C818 0.931 . S
H836 C826 0.929 . S
H837 C827 0.929 . S
H838 C828 0.931 . S
H839 C829 0.929 . S
Tb840 N869 2.617 . S
Tb840 N875 2.572 . S
Tb840 O884 2.465 . S
Tb840 O885 2.387 . S
Tb840 O887 2.428 . S
Tb840 O888 2.308 . S
Tb840 O892 2.349 . S
Tb840 O895 2.393 . S
Tb840 C904 2.802 . S
C841 N842 1.379 . S
C841 C844 1.416 . S
C841 C848 1.424 . S
N842 C841 1.379 . S
N842 C845 1.334 . S
N842 Tb851 2.617 . S
C843 C845 1.390 . S
C843 C846 1.339 . S
C843 H863 0.930 . S
C844 C841 1.416 . S
C844 C846 1.416 . S
C844 C850 1.448 . S
C845 N842 1.334 . S
C845 C843 1.390 . S
C845 H856 0.930 . S
C846 C843 1.339 . S
C846 C844 1.416 . S
C846 H867 0.930 . S
C847 C848 1.413 . S
C847 C849 1.427 . S
C847 C853 1.416 . S
C848 C841 1.424 . S
C848 C847 1.413 . S
C848 N852 1.361 . S
C849 C847 1.427 . S
C849 C850 1.328 . S
C849 H864 0.929 . S
C850 C844 1.448 . S
C850 C849 1.328 . S
C850 H865 0.930 . S
Tb851 N842 2.617 . S
Tb851 N852 2.572 . S
Tb851 O886 2.349 . S
Tb851 O889 2.393 . S
Tb851 O890 2.465 . S
Tb851 O891 2.387 . S
Tb851 O893 2.428 . S
Tb851 O894 2.308 . S
Tb851 C915 2.802 . S
N852 C848 1.361 . S
N852 Tb851 2.572 . S
N852 C854 1.340 . S
C853 C847 1.416 . S
C853 C855 1.332 . S
C853 H861 0.931 . S
C854 N852 1.340 . S
C854 C855 1.407 . S
C854 H860 0.930 . S
C855 C853 1.332 . S
C855 C854 1.407 . S
C855 H857 0.929 . S
H856 C845 0.930 . S
H857 C855 0.929 . S
H858 C873 0.930 . S
H859 C880 0.929 . S
H860 C854 0.930 . S
H861 C853 0.931 . S
H862 C876 0.930 . S
H863 C843 0.930 . S
H864 C849 0.929 . S
H865 C850 0.930 . S
H866 C871 0.930 . S
H867 C846 0.930 . S
H868 C879 0.931 . S
N869 Tb840 2.617 . S
N869 C870 1.379 . S
N869 C873 1.334 . S
C870 N869 1.379 . S
C870 C872 1.416 . S
C870 C878 1.424 . S
C871 H866 0.930 . S
C871 C873 1.390 . S
C871 C874 1.339 . S
C872 C870 1.416 . S
C872 C874 1.416 . S
C872 C905 1.448 . S
C873 H858 0.930 . S
C873 N869 1.334 . S
C873 C871 1.390 . S
C874 C871 1.339 . S
C874 C872 1.416 . S
C874 H881 0.930 1_455 S
N875 Tb840 2.572 . S
N875 C876 1.340 . S
N875 C878 1.361 . S
C876 H862 0.930 . S
C876 N875 1.340 . S
C876 C880 1.407 . S
C877 C878 1.413 . S
C877 C879 1.416 . S
C877 C906 1.427 . S
C878 C870 1.424 . S
C878 N875 1.361 . S
C878 C877 1.413 . S
C879 H868 0.931 . S
C879 C877 1.416 . S
C879 C880 1.332 . S
C880 H859 0.929 . S
C880 C876 1.407 . S
C880 C879 1.332 . S
H881 C874 0.930 1_655 S
H882 C905 0.930 1_655 S
H883 C906 0.929 . S
O884 Tb840 2.465 . S
O884 C904 1.264 . S
O885 Tb840 2.387 . S
O885 C896 1.264 . S
O886 Tb851 2.349 . S
O886 C896 1.243 . S
O887 Tb840 2.428 . S
O887 C904 1.256 . S
O888 Tb840 2.308 . S
O888 C903 1.266 . S
O889 Tb851 2.393 . S
O889 C903 1.248 . S
O890 Tb851 2.465 . S
O890 C915 1.264 . S
O891 Tb851 2.387 . S
O891 C907 1.264 . S
O892 Tb840 2.349 . S
O892 C907 1.243 . S
O893 Tb851 2.428 . S
O893 C915 1.256 . S
O894 Tb851 2.308 . S
O894 C914 1.266 . S
O895 Tb840 2.393 . S
O895 C914 1.248 . S
C896 O885 1.264 . S
C896 O886 1.243 . S
C897 C900 1.399 . S
C897 C902 1.383 . S
C897 C904 1.496 . S
C898 C899 1.399 . S
C898 C902 1.389 . S
C899 C898 1.399 . S
C899 C901 1.380 . S
C899 H916 0.929 . S
C900 C897 1.399 . S
C900 C901 1.392 . S
C900 H917 0.929 . S
C901 C899 1.380 . S
C901 C900 1.392 . S
C901 H918 0.929 . S
C902 C897 1.383 . S
C902 C898 1.389 . S
C902 H919 0.931 . S
C903 O888 1.266 . S
C903 O889 1.248 . S
C904 Tb840 2.802 . S
C904 O884 1.264 . S
C904 O887 1.256 . S
C904 C897 1.496 . S
C905 C872 1.448 . S
C905 H882 0.930 1_455 S
C905 C906 1.328 . S
C906 C877 1.427 . S
C906 H883 0.929 . S
C906 C905 1.328 . S
C907 O891 1.264 . S
C907 O892 1.243 . S
C908 C911 1.399 . S
C908 C912 1.383 . S
C908 C915 1.496 . S
C909 C910 1.399 . S
C909 C912 1.389 . S
C910 C909 1.399 . S
C910 C913 1.380 . S
C910 H920 0.929 . S
C911 C908 1.399 . S
C911 C913 1.392 . S
C911 H921 0.929 . S
C912 C908 1.383 . S
C912 C909 1.389 . S
C912 H922 0.931 . S
C913 C910 1.380 . S
C913 C911 1.392 . S
C913 H923 0.929 . S
C914 O894 1.266 . S
C914 O895 1.248 . S
C915 Tb851 2.802 . S
C915 O890 1.264 . S
C915 O893 1.256 . S
C915 C908 1.496 . S
H916 C899 0.929 . S
H917 C900 0.929 . S
H918 C901 0.929 . S
H919 C902 0.931 . S
H920 C910 0.929 . S
H921 C911 0.929 . S
H922 C912 0.931 . S
H923 C913 0.929 . S
Tb924 N953 2.617 . S
Tb924 N959 2.572 . S
Tb924 O968 2.465 . S
Tb924 O969 2.387 . S
Tb924 O971 2.428 . S
Tb924 O972 2.308 . S
Tb924 O976 2.349 . S
Tb924 O979 2.393 . S
Tb924 C988 2.802 . S
C925 N926 1.379 . S
C925 C928 1.416 . S
C925 C932 1.424 . S
N926 C925 1.379 . S
N926 C929 1.334 . S
N926 Tb935 2.617 . S
C927 C929 1.390 . S
C927 C930 1.339 . S
C927 H947 0.930 . S
C928 C925 1.416 . S
C928 C930 1.416 . S
C928 C934 1.448 . S
C929 N926 1.334 . S
C929 C927 1.390 . S
C929 H940 0.930 . S
C930 C927 1.339 . S
C930 C928 1.416 . S
C930 H951 0.930 . S
C931 C932 1.413 . S
C931 C933 1.427 . S
C931 C937 1.416 . S
C932 C925 1.424 . S
C932 C931 1.413 . S
C932 N936 1.361 . S
C933 C931 1.427 . S
C933 C934 1.328 . S
C933 H948 0.929 . S
C934 C928 1.448 . S
C934 C933 1.328 . S
C934 H949 0.930 . S
Tb935 N926 2.617 . S
Tb935 N936 2.572 . S
Tb935 O970 2.349 . S
Tb935 O973 2.393 . S
Tb935 O974 2.465 . S
Tb935 O975 2.387 . S
Tb935 O977 2.428 . S
Tb935 O978 2.308 . S
Tb935 C999 2.802 . S
N936 C932 1.361 . S
N936 Tb935 2.572 . S
N936 C938 1.340 . S
C937 C931 1.416 . S
C937 C939 1.332 . S
C937 H945 0.931 . S
C938 N936 1.340 . S
C938 C939 1.407 . S
C938 H944 0.930 . S
C939 C937 1.332 . S
C939 C938 1.407 . S
C939 H941 0.929 . S
H940 C929 0.930 . S
H941 C939 0.929 . S
H942 C957 0.930 . S
H943 C964 0.929 . S
H944 C938 0.930 . S
H945 C937 0.931 . S
H946 C960 0.930 . S
H947 C927 0.930 . S
H948 C933 0.929 . S
H949 C934 0.930 . S
H950 C955 0.930 . S
H951 C930 0.930 . S
H952 C963 0.931 . S
N953 Tb924 2.617 . S
N953 C954 1.379 . S
N953 C957 1.334 . S
C954 N953 1.379 . S
C954 C956 1.416 . S
C954 C962 1.424 . S
C955 H950 0.930 . S
C955 C957 1.390 . S
C955 C958 1.339 . S
C956 C954 1.416 . S
C956 C958 1.416 . S
C956 C989 1.448 . S
C957 H942 0.930 . S
C957 N953 1.334 . S
C957 C955 1.390 . S
C958 C955 1.339 . S
C958 C956 1.416 . S
C958 H965 0.930 . S
N959 Tb924 2.572 . S
N959 C960 1.340 . S
N959 C962 1.361 . S
C960 H946 0.930 . S
C960 N959 1.340 . S
C960 C964 1.407 . S
C961 C962 1.413 . S
C961 C963 1.416 . S
C961 C990 1.427 . S
C962 C954 1.424 . S
C962 N959 1.361 . S
C962 C961 1.413 . S
C963 H952 0.931 . S
C963 C961 1.416 . S
C963 C964 1.332 . S
C964 H943 0.929 . S
C964 C960 1.407 . S
C964 C963 1.332 . S
H965 C958 0.930 . S
H966 C989 0.930 . S
H967 C990 0.929 . S
O968 Tb924 2.465 . S
O968 C988 1.264 . S
O969 Tb924 2.387 . S
O969 C980 1.264 . S
O970 Tb935 2.349 . S
O970 C980 1.243 . S
O971 Tb924 2.428 . S
O971 C988 1.256 . S
O972 Tb924 2.308 . S
O972 C987 1.266 . S
O973 Tb935 2.393 . S
O973 C987 1.248 . S
O974 Tb935 2.465 . S
O974 C999 1.264 . S
O975 Tb935 2.387 . S
O975 C991 1.264 . S
O976 Tb924 2.349 . S
O976 C991 1.243 . S
O977 Tb935 2.428 . S
O977 C999 1.256 . S
O978 Tb935 2.308 . S
O978 C998 1.266 . S
O979 Tb924 2.393 . S
O979 C998 1.248 . S
C980 O969 1.264 . S
C980 O970 1.243 . S
C981 C984 1.399 . S
C981 C986 1.383 . S
C981 C988 1.496 . S
C982 C983 1.399 . S
C982 C986 1.389 . S
C983 C982 1.399 . S
C983 C985 1.380 . S
C983 H1000 0.929 . S
C984 C981 1.399 . S
C984 C985 1.392 . S
C984 H1001 0.929 . S
C985 C983 1.380 . S
C985 C984 1.392 . S
C985 H1002 0.929 . S
C986 C981 1.383 . S
C986 C982 1.389 . S
C986 H1003 0.931 . S
C987 O972 1.266 . S
C987 O973 1.248 . S
C988 Tb924 2.802 . S
C988 O968 1.264 . S
C988 O971 1.256 . S
C988 C981 1.496 . S
C989 C956 1.448 . S
C989 H966 0.930 . S
C989 C990 1.328 . S
C990 C961 1.427 . S
C990 H967 0.929 . S
C990 C989 1.328 . S
C991 O975 1.264 . S
C991 O976 1.243 . S
C992 C995 1.399 . S
C992 C996 1.383 . S
C992 C999 1.496 . S
C993 C994 1.399 . S
C993 C996 1.389 . S
C994 C993 1.399 . S
C994 C997 1.380 . S
C994 H1004 0.929 . S
C995 C992 1.399 . S
C995 C997 1.392 . S
C995 H1005 0.929 . S
C996 C992 1.383 . S
C996 C993 1.389 . S
C996 H1006 0.931 . S
C997 C994 1.380 . S
C997 C995 1.392 . S
C997 H1007 0.929 . S
C998 O978 1.266 . S
C998 O979 1.248 . S
C999 Tb935 2.802 . S
C999 O974 1.264 . S
C999 O977 1.256 . S
C999 C992 1.496 . S
H1000 C983 0.929 . S
H1001 C984 0.929 . S
H1002 C985 0.929 . S
H1003 C986 0.931 . S
H1004 C994 0.929 . S
H1005 C995 0.929 . S
H1006 C996 0.931 . S
H1007 C997 0.929 . S
C1008 C1009 1.370 . S
C1008 H1012 0.950 . S
C1008 C1017 1.409 . S
C1009 C1008 1.370 . S
C1009 C1011 1.388 1_454 S
H1010 C1017 0.933 . S
C1011 C1009 1.388 1_656 S
C1011 C1013 1.409 . S
C1011 H1015 0.933 . S
H1012 C1008 0.950 . S
C1013 C1011 1.409 . S
C1013 C1014 1.370 . S
C1013 H1016 0.950 . S
C1014 C1013 1.370 . S
C1014 C1017 1.388 1_656 S
H1015 C1011 0.933 . S
H1016 C1013 0.950 . S
C1017 C1008 1.409 . S
C1017 H1010 0.933 . S
C1017 C1014 1.388 1_454 S
C1018 C1019 1.387 1_554 S
C1018 H1022 0.950 . S
C1018 C1027 1.390 . S
C1019 C1018 1.387 1_556 S
C1019 C1021 1.387 . S
H1020 C1027 0.950 . S
C1021 C1019 1.387 . S
C1021 C1023 1.390 . S
C1021 H1025 0.950 . S
H1022 C1018 0.950 . S
C1023 C1021 1.390 . S
C1023 C1024 1.387 1_556 S
C1023 H1026 0.950 . S
C1024 C1023 1.387 1_554 S
C1024 C1027 1.387 . S
H1025 C1021 0.950 . S
H1026 C1023 0.950 . S
C1027 C1018 1.390 . S
C1027 H1020 0.950 . S
C1027 C1024 1.387 . S
C1028 C1029 1.387 . S
C1028 H1032 0.950 . S
C1028 C1037 1.390 1_556 S
C1029 C1028 1.387 . S
C1029 C1031 1.387 1_545 S
H1030 C1037 0.950 . S
C1031 C1029 1.387 1_565 S
C1031 C1033 1.390 1_556 S
C1031 H1035 0.950 . S
H1032 C1028 0.950 . S
C1033 C1031 1.390 1_554 S
C1033 C1034 1.387 . S
C1033 H1036 0.950 . S
C1034 C1033 1.387 . S
C1034 C1037 1.387 1_565 S
H1035 C1031 0.950 . S
H1036 C1033 0.950 . S
C1037 C1028 1.390 1_554 S
C1037 H1030 0.950 . S
C1037 C1034 1.387 1_545 S
C1038 C1039 1.387 1_565 S
C1038 H1042 0.950 . S
C1038 C1047 1.390 . S
C1039 C1038 1.387 1_545 S
C1039 C1041 1.387 . S
H1040 C1047 0.950 . S
C1041 C1039 1.387 . S
C1041 C1043 1.390 . S
C1041 H1045 0.950 . S
H1042 C1038 0.950 . S
C1043 C1041 1.390 . S
C1043 C1044 1.387 1_545 S
C1043 H1046 0.950 . S
C1044 C1043 1.387 1_565 S
C1044 C1047 1.387 . S
H1045 C1041 0.950 . S
H1046 C1043 0.950 . S
C1047 C1038 1.390 . S
C1047 H1040 0.950 . S
C1047 C1044 1.387 . S
C1048 C1049 1.397 . S
C1048 H1052 0.950 . S
C1048 C1057 1.390 . S
C1049 C1048 1.397 . S
C1049 C1051 1.396 1_455 S
H1050 C1057 0.950 . S
C1051 C1049 1.396 1_655 S
C1051 C1053 1.390 . S
C1051 H1055 0.950 . S
H1052 C1048 0.950 . S
C1053 C1051 1.390 . S
C1053 C1054 1.397 . S
C1053 H1056 0.950 . S
C1054 C1053 1.397 . S
C1054 C1057 1.396 1_655 S
H1055 C1051 0.950 . S
H1056 C1053 0.950 . S
C1057 C1048 1.390 . S
C1057 H1050 0.950 . S
C1057 C1054 1.396 1_455 S
C1058 C1059 1.387 . S
C1058 H1062 0.950 . S
C1058 C1067 1.390 . S
C1059 C1058 1.387 . S
C1059 C1061 1.387 . S
H1060 C1067 0.950 . S
C1061 C1059 1.387 . S
C1061 C1063 1.390 . S
C1061 H1065 0.950 . S
H1062 C1058 0.950 . S
C1063 C1061 1.390 . S
C1063 C1064 1.387 . S
C1063 H1066 0.950 . S
C1064 C1063 1.387 . S
C1064 C1067 1.387 . S
H1065 C1061 0.950 . S
H1066 C1063 0.950 . S
C1067 C1058 1.390 . S
C1067 H1060 0.950 . S
C1067 C1064 1.387 . S
C1068 C1069 1.387 . S
C1068 H1072 0.950 . S
C1068 C1077 1.390 1_655 S
C1069 C1068 1.387 . S
C1069 C1071 1.387 . S
H1070 C1077 0.950 . S
C1071 C1069 1.387 . S
C1071 C1073 1.390 1_655 S
C1071 H1075 0.950 . S
H1072 C1068 0.950 . S
C1073 C1071 1.390 1_455 S
C1073 C1074 1.387 . S
C1073 H1076 0.950 . S
C1074 C1073 1.387 . S
C1074 C1077 1.387 . S
H1075 C1071 0.950 . S
H1076 C1073 0.950 . S
C1077 C1068 1.390 1_455 S
C1077 H1070 0.950 . S
C1077 C1074 1.387 . S
C1078 C1079 1.387 . S
C1078 H1082 0.950 . S
C1078 C1087 1.390 . S
C1079 C1078 1.387 . S
C1079 C1081 1.387 . S
H1080 C1087 0.950 . S
C1081 C1079 1.387 . S
C1081 C1083 1.390 . S
C1081 H1085 0.950 . S
H1082 C1078 0.950 . S
C1083 C1081 1.390 . S
C1083 C1084 1.387 . S
C1083 H1086 0.950 . S
C1084 C1083 1.387 . S
C1084 C1087 1.387 . S
H1085 C1081 0.950 . S
H1086 C1083 0.950 . S
C1087 C1078 1.390 . S
C1087 H1080 0.950 . S
C1087 C1084 1.387 . S
C1088 C1089 1.387 . S
C1088 H1092 0.950 . S
C1088 C1097 1.390 1_545 S
C1089 C1088 1.387 . S
C1089 C1091 1.387 . S
H1090 C1097 0.950 . S
C1091 C1089 1.387 . S
C1091 C1093 1.390 1_545 S
C1091 H1095 0.950 . S
H1092 C1088 0.950 . S
C1093 C1091 1.390 1_565 S
C1093 C1094 1.387 . S
C1093 H1096 0.950 . S
C1094 C1093 1.387 . S
C1094 C1097 1.387 . S
H1095 C1091 0.950 . S
H1096 C1093 0.950 . S
C1097 C1088 1.390 1_565 S
C1097 H1090 0.950 . S
C1097 C1094 1.387 . S
C1098 C1099 1.387 . S
C1098 H1102 0.950 . S
C1098 C1107 1.390 1_455 S
C1099 C1098 1.387 . S
C1099 C1101 1.387 . S
H1100 C1107 0.950 . S
C1101 C1099 1.387 . S
C1101 C1103 1.390 1_455 S
C1101 H1105 0.950 . S
H1102 C1098 0.950 . S
C1103 C1101 1.390 1_655 S
C1103 C1104 1.387 . S
C1103 H1106 0.950 . S
C1104 C1103 1.387 . S
C1104 C1107 1.387 . S
H1105 C1101 0.950 . S
H1106 C1103 0.950 . S
C1107 C1098 1.390 1_655 S
C1107 H1100 0.950 . S
C1107 C1104 1.387 . S
C1108 C1109 1.387 . S
C1108 H1112 0.950 . S
C1108 C1117 1.390 . S
C1109 C1108 1.387 . S
C1109 C1111 1.387 . S
H1110 C1117 0.950 . S
C1111 C1109 1.387 . S
C1111 C1113 1.390 . S
C1111 H1115 0.950 . S
H1112 C1108 0.950 . S
C1113 C1111 1.390 . S
C1113 C1114 1.387 . S
C1113 H1116 0.950 . S
C1114 C1113 1.387 . S
C1114 C1117 1.387 . S
H1115 C1111 0.950 . S
H1116 C1113 0.950 . S
C1117 C1108 1.390 . S
C1117 H1110 0.950 . S
C1117 C1114 1.387 . S
C1118 C1119 1.387 . S
C1118 H1122 0.950 . S
C1118 C1127 1.390 1_545 S
C1119 C1118 1.387 . S
C1119 C1121 1.387 . S
H1120 C1127 0.950 . S
C1121 C1119 1.387 . S
C1121 C1123 1.390 1_545 S
C1121 H1125 0.950 . S
H1122 C1118 0.950 . S
C1123 C1121 1.390 1_565 S
C1123 C1124 1.387 . S
C1123 H1126 0.950 . S
C1124 C1123 1.387 . S
C1124 C1127 1.387 . S
H1125 C1121 0.950 . S
H1126 C1123 0.950 . S
C1127 C1118 1.390 1_565 S
C1127 H1120 0.950 . S
C1127 C1124 1.387 . S
C1128 C1129 1.387 . S
C1128 H1132 0.950 . S
C1128 C1137 1.390 . S
C1129 C1128 1.387 . S
C1129 C1131 1.387 . S
H1130 C1137 0.950 . S
C1131 C1129 1.387 . S
C1131 C1133 1.390 . S
C1131 H1135 0.950 . S
H1132 C1128 0.950 . S
C1133 C1131 1.390 . S
C1133 C1134 1.387 . S
C1133 H1136 0.950 . S
C1134 C1133 1.387 . S
C1134 C1137 1.387 . S
H1135 C1131 0.950 . S
H1136 C1133 0.950 . S
C1137 C1128 1.390 . S
C1137 H1130 0.950 . S
C1137 C1134 1.387 . S
C1138 C1139 1.387 . S
C1138 H1142 0.950 . S
C1138 C1147 1.390 . S
C1139 C1138 1.387 . S
C1139 C1141 1.387 . S
H1140 C1147 0.950 . S
C1141 C1139 1.387 . S
C1141 C1143 1.390 . S
C1141 H1145 0.950 . S
H1142 C1138 0.950 . S
C1143 C1141 1.390 . S
C1143 C1144 1.387 . S
C1143 H1146 0.950 . S
C1144 C1143 1.387 . S
C1144 C1147 1.387 . S
H1145 C1141 0.950 . S
H1146 C1143 0.950 . S
C1147 C1138 1.390 . S
C1147 H1140 0.950 . S
C1147 C1144 1.387 . S
C1148 C1149 1.387 . S
C1148 H1152 0.950 . S
C1148 C1157 1.390 . S
C1149 C1148 1.387 . S
C1149 C1151 1.387 . S
H1150 C1157 0.950 . S
C1151 C1149 1.387 . S
C1151 C1153 1.390 . S
C1151 H1155 0.950 . S
H1152 C1148 0.950 . S
C1153 C1151 1.390 . S
C1153 C1154 1.387 . S
C1153 H1156 0.950 . S
C1154 C1153 1.387 . S
C1154 C1157 1.387 . S
H1155 C1151 0.950 . S
H1156 C1153 0.950 . S
C1157 C1148 1.390 . S
C1157 H1150 0.950 . S
C1157 C1154 1.387 . S
C1158 C1159 1.387 . S
C1158 H1162 0.950 . S
C1158 C1167 1.390 . S
C1159 C1158 1.387 . S
C1159 C1161 1.387 . S
H1160 C1167 0.950 . S
C1161 C1159 1.387 . S
C1161 C1163 1.390 . S
C1161 H1165 0.950 . S
H1162 C1158 0.950 . S
C1163 C1161 1.390 . S
C1163 C1164 1.387 . S
C1163 H1166 0.950 . S
C1164 C1163 1.387 . S
C1164 C1167 1.387 . S
H1165 C1161 0.950 . S
H1166 C1163 0.950 . S
C1167 C1158 1.390 . S
C1167 H1160 0.950 . S
C1167 C1164 1.387 . S
C1168 C1169 1.387 . S
C1168 H1172 0.950 . S
C1168 C1177 1.390 . S
C1169 C1168 1.387 . S
C1169 C1171 1.387 . S
H1170 C1177 0.950 . S
C1171 C1169 1.387 . S
C1171 C1173 1.390 . S
C1171 H1175 0.950 . S
H1172 C1168 0.950 . S
C1173 C1171 1.390 . S
C1173 C1174 1.387 . S
C1173 H1176 0.950 . S
C1174 C1173 1.387 . S
C1174 C1177 1.387 . S
H1175 C1171 0.950 . S
H1176 C1173 0.950 . S
C1177 C1168 1.390 . S
C1177 H1170 0.950 . S
C1177 C1174 1.387 . S
C1178 C1179 1.387 . S
C1178 H1182 0.950 . S
C1178 C1187 1.390 . S
C1179 C1178 1.387 . S
C1179 C1181 1.387 . S
H1180 C1187 0.950 . S
C1181 C1179 1.387 . S
C1181 C1183 1.390 . S
C1181 H1185 0.950 . S
H1182 C1178 0.950 . S
C1183 C1181 1.390 . S
C1183 C1184 1.387 . S
C1183 H1186 0.950 . S
C1184 C1183 1.387 . S
C1184 C1187 1.387 . S
H1185 C1181 0.950 . S
H1186 C1183 0.950 . S
C1187 C1178 1.390 . S
C1187 H1180 0.950 . S
C1187 C1184 1.387 . S
C1188 C1189 1.387 . S
C1188 H1192 0.950 . S
C1188 C1197 1.390 . S
C1189 C1188 1.387 . S
C1189 C1191 1.387 . S
H1190 C1197 0.950 . S
C1191 C1189 1.387 . S
C1191 C1193 1.390 . S
C1191 H1195 0.950 . S
H1192 C1188 0.950 . S
C1193 C1191 1.390 . S
C1193 C1194 1.387 . S
C1193 H1196 0.950 . S
C1194 C1193 1.387 . S
C1194 C1197 1.387 . S
H1195 C1191 0.950 . S
H1196 C1193 0.950 . S
C1197 C1188 1.390 . S
C1197 H1190 0.950 . S
C1197 C1194 1.387 . S
C1198 C1199 1.387 . S
C1198 H1202 0.950 . S
C1198 C1207 1.390 . S
C1199 C1198 1.387 . S
C1199 C1201 1.387 . S
H1200 C1207 0.950 . S
C1201 C1199 1.387 . S
C1201 C1203 1.390 . S
C1201 H1205 0.950 . S
H1202 C1198 0.950 . S
C1203 C1201 1.390 . S
C1203 C1204 1.387 . S
C1203 H1206 0.950 . S
C1204 C1203 1.387 . S
C1204 C1207 1.387 . S
H1205 C1201 0.950 . S
H1206 C1203 0.950 . S
C1207 C1198 1.390 . S
C1207 H1200 0.950 . S
C1207 C1204 1.387 . S
C1208 C1209 1.387 . S
C1208 H1212 0.950 . S
C1208 C1217 1.390 . S
C1209 C1208 1.387 . S
C1209 C1211 1.387 . S
H1210 C1217 0.950 . S
C1211 C1209 1.387 . S
C1211 C1213 1.390 . S
C1211 H1215 0.950 . S
H1212 C1208 0.950 . S
C1213 C1211 1.390 . S
C1213 C1214 1.387 . S
C1213 H1216 0.950 . S
C1214 C1213 1.387 . S
C1214 C1217 1.387 . S
H1215 C1211 0.950 . S
H1216 C1213 0.950 . S
C1217 C1208 1.390 . S
C1217 H1210 0.950 . S
C1217 C1214 1.387 . S
C1218 C1219 1.387 . S
C1218 H1222 0.950 . S
C1218 C1227 1.390 . S
C1219 C1218 1.387 . S
C1219 C1221 1.387 . S
H1220 C1227 0.950 . S
C1221 C1219 1.387 . S
C1221 C1223 1.390 . S
C1221 H1225 0.950 . S
H1222 C1218 0.950 . S
C1223 C1221 1.390 . S
C1223 C1224 1.387 . S
C1223 H1226 0.950 . S
C1224 C1223 1.387 . S
C1224 C1227 1.387 . S
H1225 C1221 0.950 . S
H1226 C1223 0.950 . S
C1227 C1218 1.390 . S
C1227 H1220 0.950 . S
C1227 C1224 1.387 . S
C1228 C1229 1.387 . S
C1228 H1232 0.950 . S
C1228 C1237 1.390 . S
C1229 C1228 1.387 . S
C1229 C1231 1.387 . S
H1230 C1237 0.950 . S
C1231 C1229 1.387 . S
C1231 C1233 1.390 . S
C1231 H1235 0.950 . S
H1232 C1228 0.950 . S
C1233 C1231 1.390 . S
C1233 C1234 1.387 . S
C1233 H1236 0.950 . S
C1234 C1233 1.387 . S
C1234 C1237 1.387 . S
H1235 C1231 0.950 . S
H1236 C1233 0.950 . S
C1237 C1228 1.390 . S
C1237 H1230 0.950 . S
C1237 C1234 1.387 . S
C1238 C1239 1.387 . S
C1238 H1242 0.950 . S
C1238 C1247 1.390 . S
C1239 C1238 1.387 . S
C1239 C1241 1.387 . S
H1240 C1247 0.950 . S
C1241 C1239 1.387 . S
C1241 C1243 1.390 . S
C1241 H1245 0.950 . S
H1242 C1238 0.950 . S
C1243 C1241 1.390 . S
C1243 C1244 1.387 . S
C1243 H1246 0.950 . S
C1244 C1243 1.387 . S
C1244 C1247 1.387 . S
H1245 C1241 0.950 . S
H1246 C1243 0.950 . S
C1247 C1238 1.390 . S
C1247 H1240 0.950 . S
C1247 C1244 1.387 . S
C1248 C1249 1.387 . S
C1248 H1252 0.950 . S
C1248 C1257 1.390 . S
C1249 C1248 1.387 . S
C1249 C1251 1.387 . S
H1250 C1257 0.950 . S
C1251 C1249 1.387 . S
C1251 C1253 1.390 . S
C1251 H1255 0.950 . S
H1252 C1248 0.950 . S
C1253 C1251 1.390 . S
C1253 C1254 1.387 . S
C1253 H1256 0.950 . S
C1254 C1253 1.387 . S
C1254 C1257 1.387 . S
H1255 C1251 0.950 . S
H1256 C1253 0.950 . S
C1257 C1248 1.390 . S
C1257 H1250 0.950 . S
C1257 C1254 1.387 . S
C1258 C1259 1.387 1_556 S
C1258 H1262 0.950 . S
C1258 C1267 1.390 1_546 S
C1259 C1258 1.387 1_554 S
C1259 C1261 1.387 . S
H1260 C1267 0.950 1_556 S
C1261 C1259 1.387 . S
C1261 C1263 1.390 . S
C1261 H1265 0.950 . S
H1262 C1258 0.950 . S
C1263 C1261 1.390 . S
C1263 C1264 1.387 1_545 S
C1263 H1266 0.955 . S
C1264 C1263 1.387 1_565 S
C1264 C1267 1.387 . S
H1265 C1261 0.950 . S
H1266 C1263 0.955 . S
C1267 C1258 1.390 1_564 S
C1267 H1260 0.950 1_554 S
C1267 C1264 1.387 . S
C1268 C1269 1.387 . S
C1268 H1272 0.950 . S
C1268 C1277 1.390 . S
C1269 C1268 1.387 . S
C1269 C1271 1.387 1_554 S
H1270 C1277 0.950 1_455 S
C1271 C1269 1.387 1_556 S
C1271 C1273 1.390 1_656 S
C1271 H1275 0.950 . S
H1272 C1268 0.950 . S
C1273 C1271 1.390 1_454 S
C1273 C1274 1.387 . S
C1273 H1276 0.950 1_554 S
C1274 C1273 1.387 . S
C1274 C1277 1.387 1_455 S
H1275 C1271 0.950 . S
H1276 C1273 0.950 1_556 S
C1277 C1268 1.390 . S
C1277 H1270 0.950 1_655 S
C1277 C1274 1.387 1_655 S
C1278 C1279 1.387 . S
C1278 H1282 0.950 . S
C1278 C1287 1.390 . S
C1279 C1278 1.387 . S
C1279 C1281 1.387 . S
H1280 C1287 0.950 . S
C1281 C1279 1.387 . S
C1281 C1283 1.390 . S
C1281 H1285 0.950 . S
H1282 C1278 0.950 . S
C1283 C1281 1.390 . S
C1283 C1284 1.387 . S
C1283 H1286 0.950 . S
C1284 C1283 1.387 . S
C1284 C1287 1.387 . S
H1285 C1281 0.950 . S
H1286 C1283 0.950 . S
C1287 C1278 1.390 . S
C1287 H1280 0.950 . S
C1287 C1284 1.387 . S
C1288 C1289 1.387 . S
C1288 H1292 0.929 1_565 S
C1288 C1297 1.390 1_565 S
C1289 C1288 1.387 . S
C1289 C1291 1.387 . S
H1290 C1297 0.950 . S
C1291 C1289 1.387 . S
C1291 C1293 1.390 . S
C1291 H1295 0.950 . S
H1292 C1288 0.929 1_545 S
C1293 C1291 1.390 . S
C1293 C1294 1.387 1_565 S
C1293 H1296 0.950 . S
C1294 C1293 1.387 1_545 S
C1294 C1297 1.387 . S
H1295 C1291 0.950 . S
H1296 C1293 0.950 . S
C1297 C1288 1.390 1_545 S
C1297 H1290 0.950 . S
C1297 C1294 1.387 . S
C1298 C1299 1.387 1_455 S
C1298 H1302 0.950 . S
C1298 C1307 1.390 . S
C1299 C1298 1.387 1_655 S
C1299 C1301 1.387 . S
H1300 C1307 0.950 . S
C1301 C1299 1.387 . S
C1301 C1303 1.390 1_655 S
C1301 H1305 0.950 . S
H1302 C1298 0.950 . S
C1303 C1301 1.390 1_455 S
C1303 C1304 1.387 . S
C1303 H1306 0.950 . S
C1304 C1303 1.387 . S
C1304 C1307 1.387 . S
H1305 C1301 0.950 . S
H1306 C1303 0.950 . S
C1307 C1298 1.390 . S
C1307 H1300 0.950 . S
C1307 C1304 1.387 . S
C1308 C1309 1.387 . S
C1308 H1312 0.950 . S
C1308 C1317 1.390 . S
C1309 C1308 1.387 . S
C1309 C1311 1.387 . S
H1310 C1317 0.950 . S
C1311 C1309 1.387 . S
C1311 C1313 1.390 . S
C1311 H1315 0.950 . S
H1312 C1308 0.950 . S
C1313 C1311 1.390 . S
C1313 C1314 1.387 . S
C1313 H1316 0.950 . S
C1314 C1313 1.387 . S
C1314 C1317 1.387 . S
H1315 C1311 0.950 . S
H1316 C1313 0.950 . S
C1317 C1308 1.390 . S
C1317 H1310 0.950 . S
C1317 C1314 1.387 . S
C1318 C1319 1.387 . S
C1318 H1322 0.950 1_556 S
C1318 C1327 1.390 1_546 S
C1319 C1318 1.387 . S
C1319 C1321 1.387 . S
H1320 C1327 0.950 . S
C1321 C1319 1.387 . S
C1321 C1323 1.390 1_545 S
C1321 H1325 0.950 . S
H1322 C1318 0.950 1_554 S
C1323 C1321 1.390 1_565 S
C1323 C1324 1.387 . S
C1323 H1326 0.950 . S
C1324 C1323 1.387 . S
C1324 C1327 1.387 1_556 S
H1325 C1321 0.950 . S
H1326 C1323 0.950 . S
C1327 C1318 1.390 1_564 S
C1327 H1320 0.950 . S
C1327 C1324 1.387 1_554 S
C1328 C1329 1.387 . S
C1328 H1332 0.950 . S
C1328 C1337 1.383 1_455 S
C1329 C1328 1.387 . S
C1329 C1331 1.387 1_556 S
H1330 C1337 0.950 . S
C1331 C1329 1.387 1_554 S
C1331 C1333 1.390 1_454 S
C1331 H1335 0.950 . S
H1332 C1328 0.950 . S
C1333 C1331 1.390 1_656 S
C1333 C1334 1.387 . S
C1333 H1336 0.950 1_556 S
C1334 C1333 1.387 . S
C1334 C1337 1.395 . S
H1335 C1331 0.950 . S
H1336 C1333 0.950 1_554 S
C1337 C1328 1.383 1_655 S
C1337 H1330 0.950 . S
C1337 C1334 1.395 . S
C1338 C1339 1.387 . S
C1338 H1342 0.950 . S
C1338 C1347 1.390 . S
C1339 C1338 1.387 . S
C1339 C1341 1.387 . S
H1340 C1347 0.950 . S
C1341 C1339 1.387 . S
C1341 C1343 1.390 . S
C1341 H1345 0.950 . S
H1342 C1338 0.950 . S
C1343 C1341 1.390 . S
C1343 C1344 1.387 . S
C1343 H1346 0.950 . S
C1344 C1343 1.387 . S
C1344 C1347 1.387 . S
H1345 C1341 0.950 . S
H1346 C1343 0.950 . S
C1347 C1338 1.390 . S
C1347 H1340 0.950 . S
C1347 C1344 1.387 . S
C1348 C1349 1.387 1_545 S
C1348 H1352 0.950 1_545 S
C1348 C1357 1.390 . S
C1349 C1348 1.387 1_565 S
C1349 C1351 1.387 . S
H1350 C1357 0.950 . S
C1351 C1349 1.387 . S
C1351 C1353 1.390 1_565 S
C1351 H1355 0.950 . S
H1352 C1348 0.950 1_565 S
C1353 C1351 1.390 1_545 S
C1353 C1354 1.387 . S
C1353 H1356 0.950 . S
C1354 C1353 1.387 . S
C1354 C1357 1.387 . S
H1355 C1351 0.950 . S
H1356 C1353 0.950 . S
C1357 C1348 1.390 . S
C1357 H1350 0.950 . S
C1357 C1354 1.387 . S
C1358 C1359 1.387 . S
C1358 H1362 0.950 . S
C1358 C1367 1.390 . S
C1359 C1358 1.387 . S
C1359 C1361 1.387 . S
H1360 C1367 0.950 . S
C1361 C1359 1.387 . S
C1361 C1363 1.390 1_655 S
C1361 H1365 0.950 . S
H1362 C1358 0.950 . S
C1363 C1361 1.390 1_455 S
C1363 C1364 1.387 . S
C1363 H1366 0.950 . S
C1364 C1363 1.387 . S
C1364 C1367 1.387 1_455 S
H1365 C1361 0.950 . S
H1366 C1363 0.950 . S
C1367 C1358 1.390 . S
C1367 H1360 0.950 . S
C1367 C1364 1.387 1_655 S
C1009 C58 1.580 . S
C1014 C573 1.580 . S
C1019 C657 1.544 . S
C1024 C142 1.544 . S
C1029 C741 1.542 . S
C1034 C226 1.542 . S
C1039 C310 1.541 . S
C1044 C825 1.541 . S
C1049 C909 1.542 . S
C1054 C394 1.542 . S
C1059 C993 1.546 . S
C1064 C478 1.546 . S
C1069 C399 1.971 . S
C1074 C63 1.973 . S
C1079 C147 1.973 . S
C1084 C483 1.974 . S
C1089 C315 1.971 . S
C1094 C231 1.971 . S
C1099 C914 1.973 . S
C1104 C578 1.972 . S
C1109 C998 1.972 . S
C1114 C662 1.973 . S
C1119 C746 1.971 . S
C1124 C830 1.971 . S
C1129 C991 1.618 . S
C1134 C74 1.627 . S
C1139 C158 1.628 . S
C1144 C823 1.620 . S
C1149 C242 1.630 . S
C1154 C907 1.619 . S
C1159 C326 1.628 . S
C1164 C655 1.620 . S
C1169 C410 1.629 . S
C1174 C739 1.618 . S
C1179 C571 1.619 . S
C1184 C494 1.627 . S
C1189 C567 1.627 . S
C1194 C476 1.618 . S
C1199 C308 1.618 . S
C1204 C651 1.628 . S
C1209 C735 1.628 . S
C1214 C392 1.619 . S
C1219 C140 1.618 . S
C1224 C819 1.629 . S
C1229 C903 1.629 . S
C1234 C224 1.618 . S
C1239 C56 1.620 . S
C1244 C987 1.630 . S
C1249 C69 1.875 . S
C1254 C644 1.792 1_554 S
C1259 C728 1.794 1_554 S
C1264 C153 1.875 . S
C1269 C560 1.792 1_554 S
C1274 C237 1.876 . S
C1279 C321 1.875 . S
C1284 C980 1.791 . S
C1289 C812 1.794 . S
C1294 C405 1.876 . S
C1299 C489 1.875 . S
C1304 C896 1.792 . S
C1309 C151 1.794 1_556 S
C1314 C562 1.876 . S
C1319 C646 1.876 . S
C1324 C235 1.792 1_556 S
C1329 C67 1.794 1_556 S
C1334 C730 1.875 . S
C1339 C814 1.876 . S
C1344 C487 1.793 . S
C1349 C898 1.875 . S
C1354 C319 1.794 . S
C1359 C403 1.794 . S
C1364 C982 1.876 . S
