# Generated by pormake.
# Topology uni, (4)-cn, num edge types: 1
# Building blocks:
#     Node 0, Type 0, BuildingBlock: GALJAG_clean_sbu_0, # of connection points: 4
#     Node 1, Type 0, BuildingBlock: GALJAG_clean_sbu_0, # of connection points: 4
#     Node 2, Type 0, BuildingBlock: GALJAG_clean_sbu_0, # of connection points: 4
#     Node 3, Type 0, BuildingBlock: GALJAG_clean_sbu_0, # of connection points: 4
#     Node 4, Type 0, BuildingBlock: GALJAG_clean_sbu_0, # of connection points: 4
#     Node 5, Type 0, BuildingBlock: GALJAG_clean_sbu_0, # of connection points: 4
#     Edge 6, Type (0, 0), BuildingBlock: TEMPAE_clean_linker_10, # of connection points: 2
#     Edge 7, Type (0, 0), BuildingBlock: TEMPAE_clean_linker_10, # of connection points: 2
#     Edge 8, Type (0, 0), BuildingBlock: TEMPAE_clean_linker_10, # of connection points: 2
#     Edge 9, Type (0, 0), BuildingBlock: TEMPAE_clean_linker_10, # of connection points: 2
#     Edge 10, Type (0, 0), BuildingBlock: TEMPAE_clean_linker_10, # of connection points: 2
#     Edge 11, Type (0, 0), BuildingBlock: TEMPAE_clean_linker_10, # of connection points: 2
#     Edge 12, Type (0, 0), BuildingBlock: TEMPAE_clean_linker_10, # of connection points: 2
#     Edge 13, Type (0, 0), BuildingBlock: TEMPAE_clean_linker_10, # of connection points: 2
#     Edge 14, Type (0, 0), BuildingBlock: TEMPAE_clean_linker_10, # of connection points: 2
#     Edge 15, Type (0, 0), BuildingBlock: TEMPAE_clean_linker_10, # of connection points: 2
#     Edge 16, Type (0, 0), BuildingBlock: TEMPAE_clean_linker_10, # of connection points: 2
#     Edge 17, Type (0, 0), BuildingBlock: TEMPAE_clean_linker_10, # of connection points: 2
# Relax obj value: 0.070
# Max RMSD: 0.134
# Mean RMSD: 0.134
data_MOF--net-uni--node1-GALJAG_clean_sbu_0--edge1-TEMPAE_clean_linker_10
_symmetry_space_group_name_H-M    P1
_symmetry_Int_Tables_number       1
_symmetry_cell_setting            triclinic
loop_
_symmetry_equiv_pos_as_xyz
'x, y, z'
_cell_length_a     38.145325
_cell_length_b     38.146748
_cell_length_c     25.865244
_cell_angle_alpha  89.977495
_cell_angle_beta   89.99341
_cell_angle_gamma 120.00361
loop_
_atom_site_label
_atom_site_type_symbol
_atom_site_fract_x
_atom_site_fract_y
_atom_site_fract_z
_atom_type_partial_charge
In0 In 0.63311 0.01416 0.04944 0.0
O1 O 0.61476 0.99466 0.96586 0.0
O2 O 0.59197 0.02925 0.00178 0.0
C3 C 0.63821 0.94807 0.07405 0.0
C4 C 0.70477 0.08048 0.02693 0.0
C5 C 0.59467 0.0164 0.13593 0.0
O6 O 0.61177 0.94679 0.04364 0.0
O7 O 0.66245 0.9828 0.09154 0.0
O8 O 0.6326 0.03696 0.13069 0.0
O9 O 0.57602 0.99502 0.09724 0.0
C10 C 0.59357 0.01141 0.96154 0.0
O11 O 0.67695 0.08223 0.05102 0.0
O12 O 0.69666 0.04521 0.0147 0.0
In13 In 0.62179 0.6195 0.21509 0.0
O14 O 0.62131 0.59556 0.13418 0.0
O15 O 0.56466 0.58 0.16789 0.0
C16 C 0.69403 0.62859 0.24313 0.0
C17 C 0.63005 0.69187 0.18912 0.0
C18 C 0.57957 0.57965 0.30007 0.0
O19 O 0.67109 0.60256 0.21064 0.0
O20 O 0.6807 0.65036 0.26128 0.0
O21 O 0.59114 0.61646 0.29191 0.0
O22 O 0.58898 0.56278 0.26509 0.0
C23 C 0.58337 0.57732 0.12928 0.0
O24 O 0.6018 0.66672 0.21759 0.0
O25 O 0.65441 0.68072 0.17416 0.0
In26 In 0.01445 0.62863 0.38369 0.0
O27 O 0.03705 0.6289 0.30202 0.0
O28 O 0.99629 0.57193 0.33546 0.0
C29 C 0.07977 0.7004 0.40833 0.0
C30 C 0.94879 0.63465 0.35963 0.0
C31 C 0.01205 0.58771 0.47011 0.0
O32 O 0.08192 0.67438 0.38056 0.0
O33 O 0.04453 0.69042 0.42334 0.0
O34 O 0.99127 0.60482 0.46477 0.0
O35 O 0.03382 0.59095 0.43165 0.0
C36 C 0.01731 0.59097 0.29671 0.0
O37 O 0.94686 0.60647 0.38721 0.0
O38 O 0.98395 0.6601 0.34458 0.0
In39 In 0.40859 0.01119 0.54961 0.0
O40 O 0.35795 0.94552 0.55607 0.0
O41 O 0.34917 0.9836 0.50436 0.0
C42 C 0.45032 0.00921 0.63286 0.0
C43 C 0.4512 0.01403 0.46458 0.0
C44 C 0.39813 0.07343 0.57827 0.0
O45 O 0.41382 0.98302 0.62473 0.0
O46 O 0.46608 0.0363 0.59859 0.0
O47 O 0.42201 0.07625 0.54272 0.0
O48 O 0.37915 0.03903 0.59926 0.0
C49 C 0.33513 0.94874 0.52354 0.0
O50 O 0.43827 0.03821 0.47214 0.0
O51 O 0.44303 0.98851 0.50024 0.0
In52 In 0.40002 0.39525 0.71534 0.0
O53 O 0.4242 0.35142 0.71509 0.0
O54 O 0.36608 0.33103 0.68263 0.0
C55 C 0.44121 0.43403 0.80131 0.0
C56 C 0.43736 0.43585 0.6281 0.0
C57 C 0.32862 0.38927 0.74088 0.0
O58 O 0.42751 0.39671 0.79405 0.0
O59 O 0.43443 0.45192 0.76494 0.0
O60 O 0.35232 0.41425 0.70792 0.0
O61 O 0.34068 0.3669 0.76056 0.0
C62 C 0.39368 0.32312 0.69309 0.0
O63 O 0.39946 0.41384 0.63161 0.0
O64 O 0.45646 0.43762 0.66871 0.0
In65 In 0.0178 0.40728 0.88388 0.0
O66 O 0.08496 0.4271 0.88518 0.0
O67 O 0.04573 0.37377 0.84349 0.0
C68 C 0.02016 0.44959 0.96874 0.0
C69 C 0.01421 0.44587 0.79815 0.0
C70 C 0.95428 0.33527 0.91191 0.0
O71 O 0.04373 0.43575 0.96221 0.0
O72 O 0.99561 0.44247 0.93215 0.0
O73 O 0.95168 0.35773 0.87817 0.0
O74 O 0.98907 0.34892 0.93122 0.0
C75 C 0.08144 0.39832 0.85753 0.0
O76 O 0.99238 0.40818 0.80443 0.0
O77 O 0.03767 0.46424 0.83536 0.0
C78 C 0.59634 0.03989 0.22651 0.0
C79 C 0.5739 0.0167 0.18403 0.0
C80 C 0.57713 0.0399 0.27278 0.0
C81 C 0.53447 0.0162 0.27657 0.0
C82 C 0.51164 0.99285 0.23373 0.0
C83 C 0.53165 0.99336 0.18794 0.0
C84 C 0.60249 0.06518 0.31765 0.0
C85 C 0.46608 0.96729 0.23629 0.0
C86 C 0.48639 0.987 0.40984 0.0
C87 C 0.47329 0.01505 0.41713 0.0
C88 C 0.50653 0.98714 0.36434 0.0
C89 C 0.51367 0.016 0.32529 0.0
C90 C 0.50074 0.04455 0.33262 0.0
C91 C 0.4807 0.04373 0.37848 0.0
C92 C 0.51995 0.95626 0.35789 0.0
C93 C 0.50783 0.07579 0.29187 0.0
H94 H 0.62902 0.05794 0.22371 0.0
H95 H 0.51417 0.97537 0.15522 0.0
H96 H 0.59313 0.08738 0.32887 0.0
H97 H 0.59753 0.04555 0.35171 0.0
H98 H 0.63534 0.08188 0.30845 0.0
H99 H 0.45278 0.95091 0.19954 0.0
H100 H 0.45715 0.94478 0.26796 0.0
H101 H 0.45278 0.98665 0.24517 0.0
H102 H 0.48071 0.96476 0.43961 0.0
H103 H 0.47062 0.06548 0.38392 0.0
H104 H 0.55312 0.97178 0.35136 0.0
H105 H 0.50521 0.93726 0.32338 0.0
H106 H 0.51248 0.93616 0.39213 0.0
H107 H 0.54067 0.09456 0.28362 0.0
H108 H 0.4962 0.09609 0.30377 0.0
H109 H 0.49275 0.06054 0.25528 0.0
C110 C 0.54871 0.51851 0.357 0.0
C111 C 0.55753 0.55827 0.34741 0.0
C112 C 0.52879 0.49827 0.40248 0.0
C113 C 0.51725 0.51824 0.43905 0.0
C114 C 0.5257 0.55825 0.4293 0.0
C115 C 0.54585 0.57783 0.38363 0.0
C116 C 0.52041 0.45566 0.41163 0.0
C117 C 0.51367 0.58044 0.46726 0.0
C118 C 0.43496 0.454 0.53584 0.0
C119 C 0.45774 0.45736 0.58002 0.0
C120 C 0.45393 0.47377 0.48971 0.0
C121 C 0.49667 0.49741 0.48777 0.0
C122 C 0.51982 0.50103 0.53232 0.0
C123 C 0.50005 0.48096 0.57796 0.0
C124 C 0.42825 0.46925 0.443 0.0
C125 C 0.56547 0.52597 0.53172 0.0
H126 H 0.55775 0.50329 0.32915 0.0
H127 H 0.55254 0.60856 0.37635 0.0
H128 H 0.53564 0.45454 0.44762 0.0
H129 H 0.48746 0.4349 0.41698 0.0
H130 H 0.53103 0.44428 0.37915 0.0
H131 H 0.52184 0.6112 0.45349 0.0
H132 H 0.48053 0.56297 0.47415 0.0
H133 H 0.52872 0.58331 0.50498 0.0
H134 H 0.40223 0.43577 0.53724 0.0
H135 H 0.51779 0.48364 0.61201 0.0
H136 H 0.43634 0.45556 0.41062 0.0
H137 H 0.43424 0.49945 0.42985 0.0
H138 H 0.39536 0.45007 0.45103 0.0
H139 H 0.57779 0.51412 0.50194 0.0
H140 H 0.579 0.52584 0.56969 0.0
H141 H 0.5752 0.55775 0.52119 0.0
C142 C 0.03864 0.50848 0.74484 0.0
C143 C 0.01291 0.46665 0.75057 0.0
C144 C 0.03833 0.5284 0.69936 0.0
C145 C 0.0116 0.50592 0.65874 0.0
C146 C 0.98535 0.46372 0.66448 0.0
C147 C 0.98633 0.44458 0.71035 0.0
C148 C 0.06677 0.57345 0.69461 0.0
C149 C 0.95638 0.43876 0.62205 0.0
C150 C 0.98586 0.56266 0.55901 0.0
C151 C 0.01144 0.56622 0.51795 0.0
C152 C 0.98546 0.54294 0.60501 0.0
C153 C 0.01135 0.52651 0.61004 0.0
C154 C 0.03714 0.52989 0.56863 0.0
C155 C 0.03683 0.54967 0.52301 0.0
C156 C 0.95744 0.5398 0.64828 0.0
C157 C 0.06522 0.5128 0.57262 0.0
H158 H 0.05925 0.52567 0.77581 0.0
H159 H 0.96637 0.41223 0.7146 0.0
H160 H 0.08733 0.57985 0.66117 0.0
H161 H 0.04931 0.58906 0.68726 0.0
H162 H 0.0854 0.58658 0.72992 0.0
H163 H 0.9376 0.40635 0.63287 0.0
H164 H 0.93599 0.45078 0.61265 0.0
H165 H 0.97351 0.44089 0.58638 0.0
H166 H 0.96615 0.57539 0.55527 0.0
H167 H 0.0567 0.55238 0.4914 0.0
H168 H 0.97529 0.55488 0.68345 0.0
H169 H 0.93679 0.50755 0.65823 0.0
H170 H 0.93892 0.55382 0.63802 0.0
H171 H 0.08635 0.52702 0.60551 0.0
H172 H 0.08323 0.51781 0.53683 0.0
H173 H 0.04752 0.47981 0.58043 0.0
C174 C 0.57707 0.99184 0.86876 0.0
C175 C 0.57279 0.01065 0.91297 0.0
C176 C 0.55789 0.99127 0.82221 0.0
C177 C 0.5338 0.00988 0.81991 0.0
C178 C 0.52935 0.02888 0.86444 0.0
C179 C 0.54894 0.02907 0.91046 0.0
C180 C 0.56337 0.97073 0.77551 0.0
C181 C 0.50384 0.04897 0.86349 0.0
C182 C 0.51182 0.04025 0.68923 0.0
C183 C 0.47231 0.00876 0.67968 0.0
C184 C 0.53236 0.04086 0.73457 0.0
C185 C 0.51291 0.00915 0.77105 0.0
C186 C 0.47323 0.977 0.76124 0.0
C187 C 0.45338 0.97723 0.7157 0.0
C188 C 0.57466 0.07566 0.74373 0.0
C189 C 0.45157 0.94258 0.79913 0.0
H190 H 0.59555 0.97763 0.87048 0.0
H191 H 0.54555 0.04367 0.94452 0.0
H192 H 0.53353 0.94596 0.76224 0.0
H193 H 0.57666 0.99266 0.74319 0.0
H194 H 0.58329 0.95789 0.78363 0.0
H195 H 0.50363 0.0626 0.90136 0.0
H196 H 0.51542 0.07307 0.8336 0.0
H197 H 0.4722 0.02652 0.85293 0.0
H198 H 0.52656 0.06471 0.66152 0.0
H199 H 0.42285 0.95277 0.70847 0.0
H200 H 0.59587 0.06407 0.7495 0.0
H201 H 0.5753 0.09201 0.77951 0.0
H202 H 0.5858 0.09753 0.71109 0.0
H203 H 0.46971 0.92765 0.80618 0.0
H204 H 0.42108 0.91946 0.78522 0.0
H205 H 0.44814 0.95446 0.8368 0.0
C206 C 0.52031 0.53515 0.07827 0.0
C207 C 0.56265 0.55534 0.08165 0.0
C208 C 0.50036 0.51494 0.03282 0.0
C209 C 0.52334 0.51504 0.98978 0.0
C210 C 0.56609 0.53517 0.99309 0.0
C211 C 0.58524 0.55506 0.03904 0.0
C212 C 0.45471 0.49371 0.03074 0.0
C213 C 0.5916 0.53593 0.94798 0.0
C214 C 0.47077 0.43386 0.88741 0.0
C215 C 0.46282 0.45493 0.84905 0.0
C216 C 0.49063 0.4531 0.93334 0.0
C217 C 0.50266 0.49434 0.94109 0.0
C218 C 0.49484 0.51581 0.9024 0.0
C219 C 0.47505 0.49584 0.85676 0.0
C220 C 0.49859 0.42928 0.97365 0.0
C221 C 0.50718 0.5598 0.90934 0.0
H222 H 0.50273 0.53527 0.11113 0.0
H223 H 0.61798 0.57066 0.04144 0.0
H224 H 0.445 0.50691 0.99947 0.0
H225 H 0.44226 0.46121 0.02152 0.0
H226 H 0.44128 0.49609 0.06777 0.0
H227 H 0.62447 0.55255 0.95704 0.0
H228 H 0.58277 0.50457 0.93646 0.0
H229 H 0.58624 0.55053 0.91415 0.0
H230 H 0.4614 0.40223 0.88159 0.0
H231 H 0.46891 0.51223 0.82724 0.0
H232 H 0.48347 0.4289 0.01046 0.0
H233 H 0.53153 0.44402 0.98163 0.0
H234 H 0.48761 0.39753 0.96147 0.0
H235 H 0.4923 0.5634 0.94418 0.0
H236 H 0.49905 0.57219 0.87545 0.0
H237 H 0.54035 0.57814 0.91556 0.0
C238 C 0.04854 0.47836 0.0556 0.0
C239 C 0.02066 0.47151 0.0161 0.0
C240 C 0.04873 0.49818 0.10136 0.0
C241 C 0.02031 0.5114 0.10774 0.0
C242 C 0.99227 0.50483 0.06783 0.0
C243 C 0.9928 0.48496 0.02242 0.0
C244 C 0.07914 0.50472 0.14304 0.0
C245 C 0.96152 0.51851 0.07326 0.0
C246 C 0.99508 0.52837 0.24419 0.0
C247 C 0.01837 0.57058 0.24865 0.0
C248 C 0.99543 0.5087 0.19852 0.0
C249 C 0.0197 0.53183 0.1564 0.0
C250 C 0.04339 0.57445 0.16075 0.0
C251 C 0.04242 0.59333 0.20686 0.0
C252 C 0.96976 0.46318 0.19528 0.0
C253 C 0.06969 0.60011 0.11668 0.0
H254 H 0.07015 0.46802 0.05089 0.0
H255 H 0.97117 0.47971 0.99201 0.0
H256 H 0.09785 0.53747 0.15186 0.0
H257 H 0.06315 0.48932 0.17915 0.0
H258 H 0.09955 0.49308 0.13175 0.0
H259 H 0.94211 0.51148 0.03842 0.0
H260 H 0.94182 0.50357 0.1072 0.0
H261 H 0.97711 0.55163 0.0802 0.0
H262 H 0.97642 0.51065 0.27639 0.0
H263 H 0.06048 0.62598 0.21011 0.0
H264 H 0.98918 0.44981 0.18712 0.0
H265 H 0.94792 0.45461 0.16289 0.0
H266 H 0.95262 0.44962 0.23151 0.0
H267 H 0.09194 0.59064 0.10624 0.0
H268 H 0.08639 0.63287 0.12636 0.0
H269 H 0.05079 0.59562 0.08199 0.0
C270 C 0.6624 0.75528 0.13646 0.0
C271 C 0.63357 0.73072 0.17334 0.0
C272 C 0.66494 0.79146 0.11962 0.0
C273 C 0.63822 0.80342 0.1405 0.0
C274 C 0.60952 0.77906 0.17839 0.0
C275 C 0.60743 0.74289 0.19422 0.0
C276 C 0.69576 0.81655 0.07891 0.0
C277 C 0.58073 0.791 0.20185 0.0
C278 C 0.66486 0.91331 0.13004 0.0
C279 C 0.63968 0.91155 0.08946 0.0
C280 C 0.66499 0.87838 0.14681 0.0
C281 C 0.63963 0.84098 0.12199 0.0
C282 C 0.61479 0.83923 0.08026 0.0
C283 C 0.61495 0.87453 0.06467 0.0
C284 C 0.69163 0.88134 0.19172 0.0
C285 C 0.58765 0.79995 0.05252 0.0
H286 H 0.68261 0.74593 0.12015 0.0
H287 H 0.58517 0.72403 0.22284 0.0
H288 H 0.68014 0.81905 0.04411 0.0
H289 H 0.71582 0.8477 0.09347 0.0
H290 H 0.71479 0.80338 0.06727 0.0
H291 H 0.5611 0.76937 0.23207 0.0
H292 H 0.59799 0.82159 0.21929 0.0
H293 H 0.56113 0.79248 0.17126 0.0
H294 H 0.68393 0.94187 0.14942 0.0
H295 H 0.59554 0.87308 0.03315 0.0
H296 H 0.71213 0.86994 0.18017 0.0
H297 H 0.67264 0.86202 0.22402 0.0
H298 H 0.71025 0.91286 0.20605 0.0
H299 H 0.60574 0.78662 0.0378 0.0
H300 H 0.57138 0.80404 0.01952 0.0
H301 H 0.56496 0.77781 0.07986 0.0
C302 C 0.87458 0.60914 0.36534 0.0
C303 C 0.91252 0.63675 0.34468 0.0
C304 C 0.83956 0.60952 0.3498 0.0
C305 C 0.84256 0.63802 0.31242 0.0
C306 C 0.88088 0.66641 0.29202 0.0
C307 C 0.91547 0.66552 0.30855 0.0
C308 C 0.79924 0.57897 0.37271 0.0
C309 C 0.88521 0.69709 0.2519 0.0
C310 C 0.74772 0.60981 0.23481 0.0
C311 C 0.73286 0.6324 0.25959 0.0
C312 C 0.78381 0.61196 0.25105 0.0
C313 C 0.80535 0.63706 0.29337 0.0
C314 C 0.79073 0.66031 0.31819 0.0
C315 C 0.75468 0.65782 0.30084 0.0
C316 C 0.79862 0.58695 0.22335 0.0
C317 C 0.81278 0.68722 0.36363 0.0
H318 H 0.87218 0.58694 0.39342 0.0
H319 H 0.94476 0.6869 0.29244 0.0
H320 H 0.78414 0.59464 0.38988 0.0
H321 H 0.77909 0.55875 0.34184 0.0
H322 H 0.80233 0.56005 0.40303 0.0
H323 H 0.91731 0.71797 0.24125 0.0
H324 H 0.86826 0.68127 0.21649 0.0
H325 H 0.87192 0.71527 0.26645 0.0
H326 H 0.73101 0.59022 0.20278 0.0
H327 H 0.74325 0.67529 0.32016 0.0
H328 H 0.79938 0.56486 0.25057 0.0
H329 H 0.82997 0.60674 0.2092 0.0
H330 H 0.77911 0.57011 0.18998 0.0
H331 H 0.81402 0.66867 0.39585 0.0
H332 H 0.79797 0.70414 0.37779 0.0
H333 H 0.84446 0.70928 0.35275 0.0
C334 C 0.11266 0.76493 0.45876 0.0
C335 C 0.11591 0.73882 0.42345 0.0
C336 C 0.14714 0.8005 0.47535 0.0
C337 C 0.18564 0.81016 0.45592 0.0
C338 C 0.18896 0.78433 0.4194 0.0
C339 C 0.15404 0.7489 0.40371 0.0
C340 C 0.14248 0.82726 0.51447 0.0
C341 C 0.22949 0.79375 0.39759 0.0
C342 C 0.27426 0.91751 0.46621 0.0
C343 C 0.29579 0.91405 0.50793 0.0
C344 C 0.23793 0.88408 0.44931 0.0
C345 C 0.22275 0.84649 0.47505 0.0
C346 C 0.24388 0.84312 0.51801 0.0
C347 C 0.28026 0.87693 0.5338 0.0
C348 C 0.21633 0.88873 0.40319 0.0
C349 C 0.22845 0.80361 0.54671 0.0
H350 H 0.08322 0.75723 0.47413 0.0
H351 H 0.15669 0.72887 0.37628 0.0
H352 H 0.15894 0.82857 0.55044 0.0
H353 H 0.15609 0.85862 0.49942 0.0
H354 H 0.11028 0.81626 0.52431 0.0
H355 H 0.22666 0.77143 0.36793 0.0
H356 H 0.24486 0.82436 0.3799 0.0
H357 H 0.24925 0.79392 0.42916 0.0
H358 H 0.28621 0.94617 0.44607 0.0
H359 H 0.29673 0.87417 0.56622 0.0
H360 H 0.18452 0.8791 0.41337 0.0
H361 H 0.21547 0.86882 0.37136 0.0
H362 H 0.23125 0.92039 0.38876 0.0
H363 H 0.19694 0.79236 0.56 0.0
H364 H 0.24746 0.80654 0.58078 0.0
H365 H 0.22791 0.78038 0.5204 0.0
C366 C 0.42197 0.27665 0.6941 0.0
C367 C 0.3912 0.28441 0.6791 0.0
C368 C 0.42114 0.24092 0.67907 0.0
C369 C 0.38887 0.21244 0.64802 0.0
C370 C 0.3573 0.21975 0.63356 0.0
C371 C 0.35878 0.25566 0.64942 0.0
C372 C 0.45522 0.23405 0.69555 0.0
C373 C 0.32251 0.19014 0.60028 0.0
C374 C 0.41167 0.14393 0.56587 0.0
C375 C 0.39385 0.10812 0.59491 0.0
C376 C 0.40941 0.1778 0.58215 0.0
C377 C 0.38922 0.17589 0.62889 0.0
C378 C 0.37068 0.13961 0.65805 0.0
C379 C 0.37304 0.10602 0.64053 0.0
C380 C 0.4292 0.21584 0.54973 0.0
C381 C 0.34918 0.1366 0.70829 0.0
H382 H 0.44702 0.29872 0.71721 0.0
H383 H 0.33492 0.26155 0.63774 0.0
H384 H 0.44289 0.20446 0.71552 0.0
H385 H 0.47192 0.23302 0.661 0.0
H386 H 0.47698 0.25819 0.7218 0.0
H387 H 0.29951 0.19949 0.59425 0.0
H388 H 0.33407 0.18743 0.562 0.0
H389 H 0.30753 0.15964 0.61825 0.0
H390 H 0.42762 0.1456 0.53043 0.0
H391 H 0.35931 0.07839 0.66315 0.0
H392 H 0.45386 0.24083 0.57204 0.0
H393 H 0.40685 0.22535 0.53998 0.0
H394 H 0.4421 0.21175 0.51324 0.0
H395 H 0.37095 0.15857 0.73656 0.0
H396 H 0.33515 0.1058 0.72543 0.0
H397 H 0.32524 0.14457 0.70207 0.0
C398 C 0.15526 0.42151 0.86058 0.0
C399 C 0.11653 0.3944 0.84168 0.0
C400 C 0.18912 0.41911 0.84456 0.0
C401 C 0.1841 0.389 0.80855 0.0
C402 C 0.14499 0.36124 0.78977 0.0
C403 C 0.11161 0.3642 0.80669 0.0
C404 C 0.23034 0.44911 0.86569 0.0
C405 C 0.13853 0.32885 0.75116 0.0
C406 C 0.2769 0.41053 0.73027 0.0
C407 C 0.29053 0.38748 0.75658 0.0
C408 C 0.24177 0.4106 0.74614 0.0
C409 C 0.22002 0.38733 0.78963 0.0
C410 C 0.23333 0.36354 0.81591 0.0
C411 C 0.26839 0.36377 0.79891 0.0
C412 C 0.22831 0.43609 0.71686 0.0
C413 C 0.21104 0.33855 0.86263 0.0
H414 H 0.15919 0.44485 0.88774 0.0
H415 H 0.0817 0.34319 0.79194 0.0
H416 H 0.24444 0.43285 0.88397 0.0
H417 H 0.25049 0.46758 0.83368 0.0
H418 H 0.22888 0.4698 0.89472 0.0
H419 H 0.10607 0.30901 0.74131 0.0
H420 H 0.1555 0.3431 0.71512 0.0
H421 H 0.15047 0.30978 0.76676 0.0
H422 H 0.29386 0.4288 0.6974 0.0
H423 H 0.27889 0.34597 0.81943 0.0
H424 H 0.22926 0.45976 0.7427 0.0
H425 H 0.19653 0.41705 0.7038 0.0
H426 H 0.24762 0.45109 0.68258 0.0
H427 H 0.21139 0.35867 0.89385 0.0
H428 H 0.22462 0.32075 0.87774 0.0
H429 H 0.17889 0.31741 0.85281 0.0
C430 C 0.92174 0.27605 0.97187 0.0
C431 C 0.91907 0.29661 0.92846 0.0
C432 C 0.88797 0.24018 0.98924 0.0
C433 C 0.85086 0.22439 0.96218 0.0
C434 C 0.84824 0.24465 0.91775 0.0
C435 C 0.88236 0.28066 0.90159 0.0
C436 C 0.89178 0.21957 0.03702 0.0
C437 C 0.80929 0.22852 0.8876 0.0
C438 C 0.77052 0.11397 0.97922 0.0
C439 C 0.74313 0.11697 0.01249 0.0
C440 C 0.80604 0.14867 0.96301 0.0
C441 C 0.81442 0.18717 0.98089 0.0
C442 C 0.78731 0.19027 0.01543 0.0
C443 C 0.75187 0.15511 0.03064 0.0
C444 C 0.83413 0.14423 0.92588 0.0
C445 C 0.79542 0.23078 0.03568 0.0
H446 H 0.95007 0.28836 0.99285 0.0
H447 H 0.88022 0.2964 0.86789 0.0
H448 H 0.87062 0.21848 0.06725 0.0
H449 H 0.88323 0.18785 0.02801 0.0
H450 H 0.92297 0.23533 0.05305 0.0
H451 H 0.81269 0.24714 0.85289 0.0
H452 H 0.79874 0.19698 0.87505 0.0
H453 H 0.78532 0.2278 0.91263 0.0
H454 H 0.76384 0.08452 0.96502 0.0
H455 H 0.73083 0.15755 0.05651 0.0
H456 H 0.8651 0.15837 0.94232 0.0
H457 H 0.83613 0.16029 0.88926 0.0
H458 H 0.82384 0.11205 0.91684 0.0
H459 H 0.82559 0.24688 0.05446 0.0
H460 H 0.77222 0.22782 0.06405 0.0
H461 H 0.7959 0.24996 0.00312 0.0
loop_
_geom_bond_atom_site_label_1
_geom_bond_atom_site_label_2
_geom_bond_distance
_geom_bond_site_symmetry_2
_ccdc_geom_bond_type
In0 O1 2.294 1_544 S
In0 O2 2.326 1_554 S
In0 O6 2.266 1_545 S
In0 O7 2.326 1_545 S
In0 O8 2.266 . S
In0 O9 2.326 1_545 S
In0 O11 2.294 . S
In0 O12 2.326 1_554 S
O1 In0 2.294 1_566 S
O1 C10 1.240 1_565 S
O2 In0 2.326 1_556 S
O2 C10 1.252 . S
C3 O6 1.252 . S
C3 O7 1.260 . S
C4 O11 1.240 . S
C4 O12 1.252 1_554 S
C5 O8 1.252 . S
C5 O9 1.260 1_545 S
O6 In0 2.266 1_565 S
O6 C3 1.252 . S
O7 In0 2.326 1_565 S
O7 C3 1.260 . S
O8 In0 2.266 . S
O8 C5 1.252 . S
O9 In0 2.326 1_565 S
O9 C5 1.260 1_565 S
C10 O1 1.240 1_545 S
C10 O2 1.252 . S
O11 In0 2.294 . S
O11 C4 1.240 . S
O12 In0 2.326 1_556 S
O12 C4 1.252 1_556 S
In13 O14 2.294 . S
In13 O15 2.326 . S
In13 O19 2.266 . S
In13 O20 2.326 . S
In13 O21 2.266 . S
In13 O22 2.326 . S
In13 O24 2.294 . S
In13 O25 2.326 . S
O14 In13 2.294 . S
O14 C23 1.240 . S
O15 In13 2.326 . S
O15 C23 1.252 . S
C16 O19 1.252 . S
C16 O20 1.260 . S
C17 O24 1.240 . S
C17 O25 1.252 . S
C18 O21 1.252 . S
C18 O22 1.260 . S
O19 In13 2.266 . S
O19 C16 1.252 . S
O20 In13 2.326 . S
O20 C16 1.260 . S
O21 In13 2.266 . S
O21 C18 1.252 . S
O22 In13 2.326 . S
O22 C18 1.260 . S
C23 O14 1.240 . S
C23 O15 1.252 . S
O24 In13 2.294 . S
O24 C17 1.240 . S
O25 In13 2.326 . S
O25 C17 1.252 . S
In26 O27 2.294 . S
In26 O28 2.326 1_455 S
In26 O32 2.266 . S
In26 O33 2.326 . S
In26 O34 2.266 1_455 S
In26 O35 2.326 . S
In26 O37 2.294 1_455 S
In26 O38 2.326 1_455 S
O27 In26 2.294 . S
O27 C36 1.240 . S
O28 In26 2.326 1_655 S
O28 C36 1.252 1_655 S
C29 O32 1.252 . S
C29 O33 1.260 . S
C30 O37 1.240 . S
C30 O38 1.252 . S
C31 O34 1.252 1_455 S
C31 O35 1.260 . S
O32 In26 2.266 . S
O32 C29 1.252 . S
O33 In26 2.326 . S
O33 C29 1.260 . S
O34 In26 2.266 1_655 S
O34 C31 1.252 1_655 S
O35 In26 2.326 . S
O35 C31 1.260 . S
C36 O27 1.240 . S
C36 O28 1.252 1_455 S
O37 In26 2.294 1_655 S
O37 C30 1.240 . S
O38 In26 2.326 1_655 S
O38 C30 1.252 . S
In39 O40 2.294 1_545 S
In39 O41 2.326 1_545 S
In39 O45 2.266 1_545 S
In39 O46 2.326 . S
In39 O47 2.266 . S
In39 O48 2.326 . S
In39 O50 2.294 . S
In39 O51 2.326 1_545 S
O40 In39 2.294 1_565 S
O40 C49 1.240 . S
O41 In39 2.326 1_565 S
O41 C49 1.252 . S
C42 O45 1.252 1_545 S
C42 O46 1.260 . S
C43 O50 1.240 . S
C43 O51 1.252 1_545 S
C44 O47 1.252 . S
C44 O48 1.260 . S
O45 In39 2.266 1_565 S
O45 C42 1.252 1_565 S
O46 In39 2.326 . S
O46 C42 1.260 . S
O47 In39 2.266 . S
O47 C44 1.252 . S
O48 In39 2.326 . S
O48 C44 1.260 . S
C49 O40 1.240 . S
C49 O41 1.252 . S
O50 In39 2.294 . S
O50 C43 1.240 . S
O51 In39 2.326 1_565 S
O51 C43 1.252 1_565 S
In52 O53 2.294 . S
In52 O54 2.326 . S
In52 O58 2.266 . S
In52 O59 2.326 . S
In52 O60 2.266 . S
In52 O61 2.326 . S
In52 O63 2.294 . S
In52 O64 2.326 . S
O53 In52 2.294 . S
O53 C62 1.240 . S
O54 In52 2.326 . S
O54 C62 1.252 . S
C55 O58 1.252 . S
C55 O59 1.260 . S
C56 O63 1.240 . S
C56 O64 1.252 . S
C57 O60 1.252 . S
C57 O61 1.260 . S
O58 In52 2.266 . S
O58 C55 1.252 . S
O59 In52 2.326 . S
O59 C55 1.260 . S
O60 In52 2.266 . S
O60 C57 1.252 . S
O61 In52 2.326 . S
O61 C57 1.260 . S
C62 O53 1.240 . S
C62 O54 1.252 . S
O63 In52 2.294 . S
O63 C56 1.240 . S
O64 In52 2.326 . S
O64 C56 1.252 . S
In65 O66 2.294 . S
In65 O67 2.326 . S
In65 O71 2.266 . S
In65 O72 2.326 1_455 S
In65 O73 2.266 1_455 S
In65 O74 2.326 1_455 S
In65 O76 2.294 1_455 S
In65 O77 2.326 . S
O66 In65 2.294 . S
O66 C75 1.240 . S
O67 In65 2.326 . S
O67 C75 1.252 . S
C68 O71 1.252 . S
C68 O72 1.260 1_455 S
C69 O76 1.240 1_455 S
C69 O77 1.252 . S
C70 O73 1.252 . S
C70 O74 1.260 . S
O71 In65 2.266 . S
O71 C68 1.252 . S
O72 In65 2.326 1_655 S
O72 C68 1.260 1_655 S
O73 In65 2.266 1_655 S
O73 C70 1.252 . S
O74 In65 2.326 1_655 S
O74 C70 1.260 . S
C75 O66 1.240 . S
C75 O67 1.252 . S
O76 In65 2.294 1_655 S
O76 C69 1.240 1_655 S
O77 In65 2.326 . S
O77 C69 1.252 . S
C78 C79 1.391 . S
C78 C80 1.394 . S
C78 H94 0.931 . S
C79 C78 1.391 . S
C79 C83 1.376 1_545 S
C80 C78 1.394 . S
C80 C81 1.369 . S
C80 C84 1.531 . S
C81 C80 1.369 . S
C81 C82 1.410 1_545 S
C81 C89 1.503 . S
C82 C81 1.410 1_565 S
C82 C83 1.392 . S
C82 C85 1.511 . S
C83 C79 1.376 1_565 S
C83 C82 1.392 . S
C83 H95 0.929 . S
C84 C80 1.531 . S
C84 H96 0.960 . S
C84 H97 0.962 . S
C84 H98 0.960 . S
C85 C82 1.511 . S
C85 H99 0.961 . S
C85 H100 0.961 . S
C85 H101 0.961 . S
C86 C87 1.370 1_565 S
C86 C88 1.363 . S
C86 H102 0.931 . S
C87 C86 1.370 1_545 S
C87 C91 1.408 . S
C88 C86 1.363 . S
C88 C89 1.370 1_565 S
C88 C92 1.524 . S
C89 C81 1.503 . S
C89 C88 1.370 1_545 S
C89 C90 1.403 . S
C90 C89 1.403 . S
C90 C91 1.404 . S
C90 C93 1.539 . S
C91 C87 1.408 . S
C91 C90 1.404 . S
C91 H103 0.930 . S
C92 C88 1.524 . S
C92 H104 0.956 . S
C92 H105 0.961 . S
C92 H106 0.961 . S
C93 C90 1.539 . S
C93 H107 0.958 . S
C93 H108 0.961 . S
C93 H109 0.960 . S
H94 C78 0.931 . S
H95 C83 0.929 . S
H96 C84 0.960 . S
H97 C84 0.962 . S
H98 C84 0.960 . S
H99 C85 0.961 . S
H100 C85 0.961 . S
H101 C85 0.961 . S
H102 C86 0.931 . S
H103 C91 0.930 . S
H104 C92 0.956 . S
H105 C92 0.961 . S
H106 C92 0.961 . S
H107 C93 0.958 . S
H108 C93 0.961 . S
H109 C93 0.960 . S
C110 C111 1.391 . S
C110 C112 1.394 . S
C110 H126 0.931 . S
C111 C110 1.391 . S
C111 C115 1.376 . S
C112 C110 1.394 . S
C112 C113 1.369 . S
C112 C116 1.531 . S
C113 C112 1.369 . S
C113 C114 1.410 . S
C113 C121 1.503 . S
C114 C113 1.410 . S
C114 C115 1.392 . S
C114 C117 1.511 . S
C115 C111 1.376 . S
C115 C114 1.392 . S
C115 H127 0.929 . S
C116 C112 1.531 . S
C116 H128 0.960 . S
C116 H129 0.962 . S
C116 H130 0.960 . S
C117 C114 1.511 . S
C117 H131 0.961 . S
C117 H132 0.961 . S
C117 H133 0.961 . S
C118 C119 1.370 . S
C118 C120 1.363 . S
C118 H134 0.931 . S
C119 C118 1.370 . S
C119 C123 1.408 . S
C120 C118 1.363 . S
C120 C121 1.370 . S
C120 C124 1.524 . S
C121 C113 1.503 . S
C121 C120 1.370 . S
C121 C122 1.403 . S
C122 C121 1.403 . S
C122 C123 1.404 . S
C122 C125 1.539 . S
C123 C119 1.408 . S
C123 C122 1.404 . S
C123 H135 0.930 . S
C124 C120 1.524 . S
C124 H136 0.956 . S
C124 H137 0.961 . S
C124 H138 0.961 . S
C125 C122 1.539 . S
C125 H139 0.958 . S
C125 H140 0.961 . S
C125 H141 0.960 . S
H126 C110 0.931 . S
H127 C115 0.929 . S
H128 C116 0.960 . S
H129 C116 0.962 . S
H130 C116 0.960 . S
H131 C117 0.961 . S
H132 C117 0.961 . S
H133 C117 0.961 . S
H134 C118 0.931 . S
H135 C123 0.930 . S
H136 C124 0.956 . S
H137 C124 0.961 . S
H138 C124 0.961 . S
H139 C125 0.958 . S
H140 C125 0.961 . S
H141 C125 0.960 . S
C142 C143 1.391 . S
C142 C144 1.394 . S
C142 H158 0.931 . S
C143 C142 1.391 . S
C143 C147 1.376 . S
C144 C142 1.394 . S
C144 C145 1.369 . S
C144 C148 1.531 . S
C145 C144 1.369 . S
C145 C146 1.410 . S
C145 C153 1.503 . S
C146 C145 1.410 . S
C146 C147 1.392 . S
C146 C149 1.511 . S
C147 C143 1.376 . S
C147 C146 1.392 . S
C147 H159 0.929 . S
C148 C144 1.531 . S
C148 H160 0.960 . S
C148 H161 0.962 . S
C148 H162 0.960 . S
C149 C146 1.511 . S
C149 H163 0.961 1_455 S
C149 H164 0.983 . S
C149 H165 0.961 . S
C150 C151 1.370 1_655 S
C150 C152 1.363 1_655 S
C150 H166 0.931 . S
C151 C150 1.370 1_455 S
C151 C155 1.408 . S
C152 C150 1.363 1_455 S
C152 C153 1.370 . S
C152 C156 1.524 1_455 S
C153 C145 1.503 . S
C153 C152 1.370 . S
C153 C154 1.403 . S
C154 C153 1.403 . S
C154 C155 1.404 . S
C154 C157 1.539 . S
C155 C151 1.408 . S
C155 C154 1.404 . S
C155 H167 0.930 . S
C156 C152 1.524 1_655 S
C156 H168 0.956 . S
C156 H169 0.961 . S
C156 H170 0.961 . S
C157 C154 1.539 . S
C157 H171 0.958 . S
C157 H172 0.961 . S
C157 H173 0.960 . S
H158 C142 0.931 . S
H159 C147 0.929 . S
H160 C148 0.960 . S
H161 C148 0.962 . S
H162 C148 0.960 . S
H163 C149 0.961 1_655 S
H164 C149 0.983 . S
H165 C149 0.961 . S
H166 C150 0.931 . S
H167 C155 0.930 . S
H168 C156 0.956 . S
H169 C156 0.961 . S
H170 C156 0.961 . S
H171 C157 0.958 . S
H172 C157 0.961 . S
H173 C157 0.960 . S
C174 C175 1.391 . S
C174 C176 1.394 . S
C174 H190 0.931 . S
C175 C174 1.391 . S
C175 C179 1.376 . S
C176 C174 1.394 . S
C176 C177 1.369 . S
C176 C180 1.531 . S
C177 C176 1.369 . S
C177 C178 1.410 . S
C177 C185 1.503 . S
C178 C177 1.410 . S
C178 C179 1.392 . S
C178 C181 1.517 1_545 S
C179 C175 1.376 . S
C179 C178 1.392 . S
C179 H191 0.929 . S
C180 C176 1.531 . S
C180 H192 0.960 . S
C180 H193 0.962 . S
C180 H194 0.960 . S
C181 C178 1.517 1_565 S
C181 H195 0.952 1_565 S
C181 H196 0.949 1_565 S
C181 H197 0.975 . S
C182 C183 1.370 . S
C182 C184 1.363 . S
C182 H198 0.931 . S
C183 C182 1.370 . S
C183 C187 1.408 1_545 S
C184 C182 1.363 . S
C184 C185 1.370 . S
C184 C188 1.524 . S
C185 C177 1.503 . S
C185 C184 1.370 . S
C185 C186 1.403 1_545 S
C186 C185 1.403 1_565 S
C186 C187 1.404 . S
C186 C189 1.539 . S
C187 C183 1.408 1_565 S
C187 C186 1.404 . S
C187 H199 0.930 . S
C188 C184 1.524 . S
C188 H200 0.956 . S
C188 H201 0.961 . S
C188 H202 0.961 . S
C189 C186 1.539 . S
C189 H203 0.958 . S
C189 H204 0.961 . S
C189 H205 0.960 . S
H190 C174 0.931 . S
H191 C179 0.929 . S
H192 C180 0.960 . S
H193 C180 0.962 . S
H194 C180 0.960 . S
H195 C181 0.952 1_545 S
H196 C181 0.949 1_545 S
H197 C181 0.975 . S
H198 C182 0.931 . S
H199 C187 0.930 . S
H200 C188 0.956 . S
H201 C188 0.961 . S
H202 C188 0.961 . S
H203 C189 0.958 . S
H204 C189 0.961 . S
H205 C189 0.960 . S
C206 C207 1.391 . S
C206 C208 1.394 . S
C206 H222 0.931 . S
C207 C206 1.391 . S
C207 C211 1.376 . S
C208 C206 1.394 . S
C208 C209 1.369 1_554 S
C208 C212 1.531 . S
C209 C208 1.369 1_556 S
C209 C210 1.410 . S
C209 C217 1.503 . S
C210 C209 1.410 . S
C210 C211 1.392 1_556 S
C210 C213 1.511 . S
C211 C207 1.376 . S
C211 C210 1.392 1_554 S
C211 H223 0.929 . S
C212 C208 1.531 . S
C212 H224 0.960 . S
C212 H225 0.962 . S
C212 H226 0.960 . S
C213 C210 1.511 . S
C213 H227 0.961 . S
C213 H228 0.961 . S
C213 H229 0.961 . S
C214 C215 1.370 . S
C214 C216 1.363 . S
C214 H230 0.931 . S
C215 C214 1.370 . S
C215 C219 1.408 . S
C216 C214 1.363 . S
C216 C217 1.370 . S
C216 C220 1.524 . S
C217 C209 1.503 . S
C217 C216 1.370 . S
C217 C218 1.403 . S
C218 C217 1.403 . S
C218 C219 1.404 . S
C218 C221 1.539 . S
C219 C215 1.408 . S
C219 C218 1.404 . S
C219 H231 0.930 . S
C220 C216 1.524 . S
C220 H232 0.956 . S
C220 H233 0.961 . S
C220 H234 0.961 . S
C221 C218 1.539 . S
C221 H235 0.958 . S
C221 H236 0.961 . S
C221 H237 0.960 . S
H222 C206 0.931 . S
H223 C211 0.929 . S
H224 C212 0.960 . S
H225 C212 0.962 . S
H226 C212 0.960 . S
H227 C213 0.961 . S
H228 C213 0.961 . S
H229 C213 0.961 . S
H230 C214 0.931 . S
H231 C219 0.930 . S
H232 C220 0.956 . S
H233 C220 0.961 . S
H234 C220 0.961 . S
H235 C221 0.958 . S
H236 C221 0.961 . S
H237 C221 0.960 . S
C238 C239 1.391 . S
C238 C240 1.394 . S
C238 H254 0.931 . S
C239 C238 1.391 . S
C239 C243 1.376 1_455 S
C240 C238 1.394 . S
C240 C241 1.369 . S
C240 C244 1.531 . S
C241 C240 1.369 . S
C241 C242 1.410 1_455 S
C241 C249 1.503 . S
C242 C241 1.410 1_655 S
C242 C243 1.392 . S
C242 C245 1.511 . S
C243 C239 1.376 1_655 S
C243 C242 1.392 . S
C243 H255 0.929 1_554 S
C244 C240 1.531 . S
C244 H256 0.960 . S
C244 H257 0.962 . S
C244 H258 0.960 . S
C245 C242 1.511 . S
C245 H259 0.961 . S
C245 H260 0.961 . S
C245 H261 0.961 . S
C246 C247 1.370 1_655 S
C246 C248 1.363 . S
C246 H262 0.931 . S
C247 C246 1.370 1_455 S
C247 C251 1.408 . S
C248 C246 1.363 . S
C248 C249 1.370 1_655 S
C248 C252 1.524 . S
C249 C241 1.503 . S
C249 C248 1.370 1_455 S
C249 C250 1.403 . S
C250 C249 1.403 . S
C250 C251 1.404 . S
C250 C253 1.539 . S
C251 C247 1.408 . S
C251 C250 1.404 . S
C251 H263 0.930 . S
C252 C248 1.524 . S
C252 H264 0.956 . S
C252 H265 0.961 . S
C252 H266 0.961 . S
C253 C250 1.539 . S
C253 H267 0.958 . S
C253 H268 0.961 . S
C253 H269 0.960 . S
H254 C238 0.931 . S
H255 C243 0.929 1_556 S
H256 C244 0.960 . S
H257 C244 0.962 . S
H258 C244 0.960 . S
H259 C245 0.961 . S
H260 C245 0.961 . S
H261 C245 0.961 . S
H262 C246 0.931 . S
H263 C251 0.930 . S
H264 C252 0.956 . S
H265 C252 0.961 . S
H266 C252 0.961 . S
H267 C253 0.958 . S
H268 C253 0.961 . S
H269 C253 0.960 . S
C270 C271 1.391 . S
C270 C272 1.394 . S
C270 H286 0.931 . S
C271 C270 1.391 . S
C271 C275 1.376 . S
C272 C270 1.394 . S
C272 C273 1.369 . S
C272 C276 1.531 . S
C273 C272 1.369 . S
C273 C274 1.410 . S
C273 C281 1.503 . S
C274 C273 1.410 . S
C274 C275 1.392 . S
C274 C277 1.511 . S
C275 C271 1.376 . S
C275 C274 1.392 . S
C275 H287 0.929 . S
C276 C272 1.531 . S
C276 H288 0.960 . S
C276 H289 0.962 . S
C276 H290 0.960 . S
C277 C274 1.511 . S
C277 H291 0.961 . S
C277 H292 0.961 . S
C277 H293 0.961 . S
C278 C279 1.370 . S
C278 C280 1.363 . S
C278 H294 0.931 . S
C279 C278 1.370 . S
C279 C283 1.408 . S
C280 C278 1.363 . S
C280 C281 1.370 . S
C280 C284 1.524 . S
C281 C273 1.503 . S
C281 C280 1.370 . S
C281 C282 1.403 . S
C282 C281 1.403 . S
C282 C283 1.404 . S
C282 C285 1.539 . S
C283 C279 1.408 . S
C283 C282 1.404 . S
C283 H295 0.930 . S
C284 C280 1.524 . S
C284 H296 0.956 . S
C284 H297 0.961 . S
C284 H298 0.961 . S
C285 C282 1.539 . S
C285 H299 0.958 . S
C285 H300 0.961 . S
C285 H301 0.960 . S
H286 C270 0.931 . S
H287 C275 0.929 . S
H288 C276 0.960 . S
H289 C276 0.962 . S
H290 C276 0.960 . S
H291 C277 0.961 . S
H292 C277 0.961 . S
H293 C277 0.961 . S
H294 C278 0.931 . S
H295 C283 0.930 . S
H296 C284 0.956 . S
H297 C284 0.961 . S
H298 C284 0.961 . S
H299 C285 0.958 . S
H300 C285 0.961 . S
H301 C285 0.960 . S
C302 C303 1.391 . S
C302 C304 1.394 . S
C302 H318 0.931 . S
C303 C302 1.391 . S
C303 C307 1.376 . S
C304 C302 1.394 . S
C304 C305 1.369 . S
C304 C308 1.531 . S
C305 C304 1.369 . S
C305 C306 1.410 . S
C305 C313 1.503 . S
C306 C305 1.410 . S
C306 C307 1.392 . S
C306 C309 1.511 . S
C307 C303 1.376 . S
C307 C306 1.392 . S
C307 H319 0.929 . S
C308 C304 1.531 . S
C308 H320 0.960 . S
C308 H321 0.962 . S
C308 H322 0.960 . S
C309 C306 1.511 . S
C309 H323 0.961 . S
C309 H324 0.961 . S
C309 H325 0.961 . S
C310 C311 1.370 . S
C310 C312 1.363 . S
C310 H326 0.931 . S
C311 C310 1.370 . S
C311 C315 1.408 . S
C312 C310 1.363 . S
C312 C313 1.370 . S
C312 C316 1.524 . S
C313 C305 1.503 . S
C313 C312 1.370 . S
C313 C314 1.403 . S
C314 C313 1.403 . S
C314 C315 1.404 . S
C314 C317 1.539 . S
C315 C311 1.408 . S
C315 C314 1.404 . S
C315 H327 0.930 . S
C316 C312 1.524 . S
C316 H328 0.956 . S
C316 H329 0.961 . S
C316 H330 0.961 . S
C317 C314 1.539 . S
C317 H331 0.958 . S
C317 H332 0.961 . S
C317 H333 0.960 . S
H318 C302 0.931 . S
H319 C307 0.929 . S
H320 C308 0.960 . S
H321 C308 0.962 . S
H322 C308 0.960 . S
H323 C309 0.961 . S
H324 C309 0.961 . S
H325 C309 0.961 . S
H326 C310 0.931 . S
H327 C315 0.930 . S
H328 C316 0.956 . S
H329 C316 0.961 . S
H330 C316 0.961 . S
H331 C317 0.958 . S
H332 C317 0.961 . S
H333 C317 0.960 . S
C334 C335 1.391 . S
C334 C336 1.394 . S
C334 H350 0.931 . S
C335 C334 1.391 . S
C335 C339 1.376 . S
C336 C334 1.394 . S
C336 C337 1.369 . S
C336 C340 1.531 . S
C337 C336 1.369 . S
C337 C338 1.410 . S
C337 C345 1.503 . S
C338 C337 1.410 . S
C338 C339 1.392 . S
C338 C341 1.511 . S
C339 C335 1.376 . S
C339 C338 1.392 . S
C339 H351 0.929 . S
C340 C336 1.531 . S
C340 H352 0.960 . S
C340 H353 0.962 . S
C340 H354 0.960 . S
C341 C338 1.511 . S
C341 H355 0.961 . S
C341 H356 0.961 . S
C341 H357 0.961 . S
C342 C343 1.370 . S
C342 C344 1.363 . S
C342 H358 0.931 . S
C343 C342 1.370 . S
C343 C347 1.408 . S
C344 C342 1.363 . S
C344 C345 1.370 . S
C344 C348 1.524 . S
C345 C337 1.503 . S
C345 C344 1.370 . S
C345 C346 1.403 . S
C346 C345 1.403 . S
C346 C347 1.404 . S
C346 C349 1.539 . S
C347 C343 1.408 . S
C347 C346 1.404 . S
C347 H359 0.930 . S
C348 C344 1.524 . S
C348 H360 0.956 . S
C348 H361 0.961 . S
C348 H362 0.961 . S
C349 C346 1.539 . S
C349 H363 0.958 . S
C349 H364 0.961 . S
C349 H365 0.960 . S
H350 C334 0.931 . S
H351 C339 0.929 . S
H352 C340 0.960 . S
H353 C340 0.962 . S
H354 C340 0.960 . S
H355 C341 0.961 . S
H356 C341 0.961 . S
H357 C341 0.961 . S
H358 C342 0.931 . S
H359 C347 0.930 . S
H360 C348 0.956 . S
H361 C348 0.961 . S
H362 C348 0.961 . S
H363 C349 0.958 . S
H364 C349 0.961 . S
H365 C349 0.960 . S
C366 C367 1.391 . S
C366 C368 1.394 . S
C366 H382 0.931 . S
C367 C366 1.391 . S
C367 C371 1.376 . S
C368 C366 1.394 . S
C368 C369 1.369 . S
C368 C372 1.531 . S
C369 C368 1.369 . S
C369 C370 1.410 . S
C369 C377 1.503 . S
C370 C369 1.410 . S
C370 C371 1.392 . S
C370 C373 1.511 . S
C371 C367 1.376 . S
C371 C370 1.392 . S
C371 H383 0.929 . S
C372 C368 1.531 . S
C372 H384 0.960 . S
C372 H385 0.962 . S
C372 H386 0.960 . S
C373 C370 1.511 . S
C373 H387 0.961 . S
C373 H388 0.961 . S
C373 H389 0.961 . S
C374 C375 1.370 . S
C374 C376 1.363 . S
C374 H390 0.931 . S
C375 C374 1.370 . S
C375 C379 1.408 . S
C376 C374 1.363 . S
C376 C377 1.370 . S
C376 C380 1.524 . S
C377 C369 1.503 . S
C377 C376 1.370 . S
C377 C378 1.403 . S
C378 C377 1.403 . S
C378 C379 1.404 . S
C378 C381 1.539 . S
C379 C375 1.408 . S
C379 C378 1.404 . S
C379 H391 0.930 . S
C380 C376 1.524 . S
C380 H392 0.956 . S
C380 H393 0.961 . S
C380 H394 0.961 . S
C381 C378 1.539 . S
C381 H395 0.958 . S
C381 H396 0.961 . S
C381 H397 0.960 . S
H382 C366 0.931 . S
H383 C371 0.929 . S
H384 C372 0.960 . S
H385 C372 0.962 . S
H386 C372 0.960 . S
H387 C373 0.961 . S
H388 C373 0.961 . S
H389 C373 0.961 . S
H390 C374 0.931 . S
H391 C379 0.930 . S
H392 C380 0.956 . S
H393 C380 0.961 . S
H394 C380 0.961 . S
H395 C381 0.958 . S
H396 C381 0.961 . S
H397 C381 0.960 . S
C398 C399 1.391 . S
C398 C400 1.394 . S
C398 H414 0.931 . S
C399 C398 1.391 . S
C399 C403 1.376 . S
C400 C398 1.394 . S
C400 C401 1.369 . S
C400 C404 1.531 . S
C401 C400 1.369 . S
C401 C402 1.410 . S
C401 C409 1.503 . S
C402 C401 1.410 . S
C402 C403 1.392 . S
C402 C405 1.511 . S
C403 C399 1.376 . S
C403 C402 1.392 . S
C403 H415 0.929 . S
C404 C400 1.531 . S
C404 H416 0.960 . S
C404 H417 0.962 . S
C404 H418 0.960 . S
C405 C402 1.511 . S
C405 H419 0.961 . S
C405 H420 0.961 . S
C405 H421 0.961 . S
C406 C407 1.370 . S
C406 C408 1.363 . S
C406 H422 0.931 . S
C407 C406 1.370 . S
C407 C411 1.408 . S
C408 C406 1.363 . S
C408 C409 1.370 . S
C408 C412 1.524 . S
C409 C401 1.503 . S
C409 C408 1.370 . S
C409 C410 1.403 . S
C410 C409 1.403 . S
C410 C411 1.404 . S
C410 C413 1.539 . S
C411 C407 1.408 . S
C411 C410 1.404 . S
C411 H423 0.930 . S
C412 C408 1.524 . S
C412 H424 0.956 . S
C412 H425 0.961 . S
C412 H426 0.961 . S
C413 C410 1.539 . S
C413 H427 0.958 . S
C413 H428 0.961 . S
C413 H429 0.960 . S
H414 C398 0.931 . S
H415 C403 0.929 . S
H416 C404 0.960 . S
H417 C404 0.962 . S
H418 C404 0.960 . S
H419 C405 0.961 . S
H420 C405 0.961 . S
H421 C405 0.961 . S
H422 C406 0.931 . S
H423 C411 0.930 . S
H424 C412 0.956 . S
H425 C412 0.961 . S
H426 C412 0.961 . S
H427 C413 0.958 . S
H428 C413 0.961 . S
H429 C413 0.960 . S
C430 C431 1.391 . S
C430 C432 1.394 . S
C430 H446 0.931 1_556 S
C431 C430 1.391 . S
C431 C435 1.376 . S
C432 C430 1.394 . S
C432 C433 1.369 . S
C432 C436 1.531 1_556 S
C433 C432 1.369 . S
C433 C434 1.410 . S
C433 C441 1.503 . S
C434 C433 1.410 . S
C434 C435 1.392 . S
C434 C437 1.511 . S
C435 C431 1.376 . S
C435 C434 1.392 . S
C435 H447 0.929 . S
C436 C432 1.531 1_554 S
C436 H448 0.960 . S
C436 H449 0.962 . S
C436 H450 0.960 . S
C437 C434 1.511 . S
C437 H451 0.961 . S
C437 H452 0.961 . S
C437 H453 0.961 . S
C438 C439 1.370 . S
C438 C440 1.363 . S
C438 H454 0.931 . S
C439 C438 1.370 . S
C439 C443 1.408 1_556 S
C440 C438 1.363 . S
C440 C441 1.370 . S
C440 C444 1.524 . S
C441 C433 1.503 . S
C441 C440 1.370 . S
C441 C442 1.403 1_556 S
C442 C441 1.403 1_554 S
C442 C443 1.404 . S
C442 C445 1.539 . S
C443 C439 1.408 1_554 S
C443 C442 1.404 . S
C443 H455 0.930 . S
C444 C440 1.524 . S
C444 H456 0.956 . S
C444 H457 0.961 . S
C444 H458 0.961 . S
C445 C442 1.539 . S
C445 H459 0.958 . S
C445 H460 0.961 . S
C445 H461 0.960 . S
H446 C430 0.931 1_554 S
H447 C435 0.929 . S
H448 C436 0.960 . S
H449 C436 0.962 . S
H450 C436 0.960 . S
H451 C437 0.961 . S
H452 C437 0.961 . S
H453 C437 0.961 . S
H454 C438 0.931 . S
H455 C443 0.930 . S
H456 C444 0.956 . S
H457 C444 0.961 . S
H458 C444 0.961 . S
H459 C445 0.958 . S
H460 C445 0.961 . S
H461 C445 0.960 . S
C79 C5 1.768 . S
C87 C43 1.771 . S
C111 C18 1.767 . S
C119 C56 1.773 . S
C143 C69 1.771 . S
C151 C31 1.776 . S
C175 C10 1.764 . S
C183 C42 1.773 . S
C207 C23 1.772 . S
C215 C55 1.776 . S
C239 C68 1.768 1_554 S
C247 C36 1.771 . S
C271 C17 1.426 . S
C279 C3 1.425 . S
C303 C30 1.419 . S
C311 C16 1.433 . S
C335 C29 1.430 . S
C343 C49 1.422 . S
C367 C62 1.415 . S
C375 C44 1.433 . S
C399 C75 1.421 . S
C407 C57 1.433 . S
C431 C70 1.423 . S
C439 C4 1.421 1_556 S
