# Generated by pormake.
# Topology upc, (4)-cn, num edge types: 1
# Building blocks:
#     Node 0, Type 0, BuildingBlock: GALJAG_clean_sbu_0, # of connection points: 4
#     Node 1, Type 0, BuildingBlock: GALJAG_clean_sbu_0, # of connection points: 4
#     Node 2, Type 0, BuildingBlock: GALJAG_clean_sbu_0, # of connection points: 4
#     Node 3, Type 0, BuildingBlock: GALJAG_clean_sbu_0, # of connection points: 4
#     Node 4, Type 0, BuildingBlock: GALJAG_clean_sbu_0, # of connection points: 4
#     Node 5, Type 0, BuildingBlock: GALJAG_clean_sbu_0, # of connection points: 4
#     Node 6, Type 0, BuildingBlock: GALJAG_clean_sbu_0, # of connection points: 4
#     Node 7, Type 0, BuildingBlock: GALJAG_clean_sbu_0, # of connection points: 4
#     Node 8, Type 0, BuildingBlock: GALJAG_clean_sbu_0, # of connection points: 4
#     Node 9, Type 0, BuildingBlock: GALJAG_clean_sbu_0, # of connection points: 4
#     Node 10, Type 0, BuildingBlock: GALJAG_clean_sbu_0, # of connection points: 4
#     Node 11, Type 0, BuildingBlock: GALJAG_clean_sbu_0, # of connection points: 4
#     Node 12, Type 0, BuildingBlock: GALJAG_clean_sbu_0, # of connection points: 4
#     Node 13, Type 0, BuildingBlock: GALJAG_clean_sbu_0, # of connection points: 4
#     Node 14, Type 0, BuildingBlock: GALJAG_clean_sbu_0, # of connection points: 4
#     Node 15, Type 0, BuildingBlock: GALJAG_clean_sbu_0, # of connection points: 4
#     Edge 16, Type (0, 0), BuildingBlock: CIFDUS_clean_linker_0, # of connection points: 2
#     Edge 17, Type (0, 0), BuildingBlock: CIFDUS_clean_linker_0, # of connection points: 2
#     Edge 18, Type (0, 0), BuildingBlock: CIFDUS_clean_linker_0, # of connection points: 2
#     Edge 19, Type (0, 0), BuildingBlock: CIFDUS_clean_linker_0, # of connection points: 2
#     Edge 20, Type (0, 0), BuildingBlock: CIFDUS_clean_linker_0, # of connection points: 2
#     Edge 21, Type (0, 0), BuildingBlock: CIFDUS_clean_linker_0, # of connection points: 2
#     Edge 22, Type (0, 0), BuildingBlock: CIFDUS_clean_linker_0, # of connection points: 2
#     Edge 23, Type (0, 0), BuildingBlock: CIFDUS_clean_linker_0, # of connection points: 2
#     Edge 24, Type (0, 0), BuildingBlock: CIFDUS_clean_linker_0, # of connection points: 2
#     Edge 25, Type (0, 0), BuildingBlock: CIFDUS_clean_linker_0, # of connection points: 2
#     Edge 26, Type (0, 0), BuildingBlock: CIFDUS_clean_linker_0, # of connection points: 2
#     Edge 27, Type (0, 0), BuildingBlock: CIFDUS_clean_linker_0, # of connection points: 2
#     Edge 28, Type (0, 0), BuildingBlock: CIFDUS_clean_linker_0, # of connection points: 2
#     Edge 29, Type (0, 0), BuildingBlock: CIFDUS_clean_linker_0, # of connection points: 2
#     Edge 30, Type (0, 0), BuildingBlock: CIFDUS_clean_linker_0, # of connection points: 2
#     Edge 31, Type (0, 0), BuildingBlock: CIFDUS_clean_linker_0, # of connection points: 2
#     Edge 32, Type (0, 0), BuildingBlock: CIFDUS_clean_linker_0, # of connection points: 2
#     Edge 33, Type (0, 0), BuildingBlock: CIFDUS_clean_linker_0, # of connection points: 2
#     Edge 34, Type (0, 0), BuildingBlock: CIFDUS_clean_linker_0, # of connection points: 2
#     Edge 35, Type (0, 0), BuildingBlock: CIFDUS_clean_linker_0, # of connection points: 2
#     Edge 36, Type (0, 0), BuildingBlock: CIFDUS_clean_linker_0, # of connection points: 2
#     Edge 37, Type (0, 0), BuildingBlock: CIFDUS_clean_linker_0, # of connection points: 2
#     Edge 38, Type (0, 0), BuildingBlock: CIFDUS_clean_linker_0, # of connection points: 2
#     Edge 39, Type (0, 0), BuildingBlock: CIFDUS_clean_linker_0, # of connection points: 2
#     Edge 40, Type (0, 0), BuildingBlock: CIFDUS_clean_linker_0, # of connection points: 2
#     Edge 41, Type (0, 0), BuildingBlock: CIFDUS_clean_linker_0, # of connection points: 2
#     Edge 42, Type (0, 0), BuildingBlock: CIFDUS_clean_linker_0, # of connection points: 2
#     Edge 43, Type (0, 0), BuildingBlock: CIFDUS_clean_linker_0, # of connection points: 2
#     Edge 44, Type (0, 0), BuildingBlock: CIFDUS_clean_linker_0, # of connection points: 2
#     Edge 45, Type (0, 0), BuildingBlock: CIFDUS_clean_linker_0, # of connection points: 2
#     Edge 46, Type (0, 0), BuildingBlock: CIFDUS_clean_linker_0, # of connection points: 2
#     Edge 47, Type (0, 0), BuildingBlock: CIFDUS_clean_linker_0, # of connection points: 2
# Relax obj value: 0.220
# Max RMSD: 0.228
# Mean RMSD: 0.228
data_MOF--net-upc--node1-GALJAG_clean_sbu_0--edge1-CIFDUS_clean_linker_0
_symmetry_space_group_name_H-M    P1
_symmetry_Int_Tables_number       1
_symmetry_cell_setting            triclinic
loop_
_symmetry_equiv_pos_as_xyz
'x, y, z'
_cell_length_a     31.079585
_cell_length_b     31.076199
_cell_length_c     35.565602
_cell_angle_alpha  89.812531
_cell_angle_beta   90.001396
_cell_angle_gamma 90.154013
loop_
_atom_site_label
_atom_site_type_symbol
_atom_site_fract_x
_atom_site_fract_y
_atom_site_fract_z
_atom_type_partial_charge
In0 In 0.09556 0.60867 0.12681 0.0
O1 O 0.11576 0.5737 0.18093 0.0
O2 O 0.0938 0.53601 0.13527 0.0
C3 C 0.15873 0.66789 0.11529 0.0
C4 C 0.06468 0.57428 0.06326 0.0
C5 C 0.03677 0.65341 0.1662 0.0
O6 O 0.16733 0.62958 0.12464 0.0
O7 O 0.11937 0.67509 0.11054 0.0
O8 O 0.04017 0.65666 0.13095 0.0
O9 O 0.06176 0.62639 0.18107 0.0
C10 C 0.10545 0.53674 0.16915 0.0
O11 O 0.0408 0.58794 0.0893 0.0
O12 O 0.10457 0.57997 0.06842 0.0
In13 In 0.88559 0.07961 0.12945 0.0
O14 O 0.89192 0.02748 0.08547 0.0
O15 O 0.92155 0.08813 0.07426 0.0
C16 C 0.84442 0.03059 0.18059 0.0
C17 C 0.96084 0.08248 0.16707 0.0
C18 C 0.82666 0.14237 0.11661 0.0
O19 O 0.83928 0.02508 0.14571 0.0
O20 O 0.87045 0.06005 0.18915 0.0
O21 O 0.86529 0.1511 0.12497 0.0
O22 O 0.81894 0.10281 0.11327 0.0
C23 C 0.91548 0.04968 0.0639 0.0
O24 O 0.93248 0.11132 0.17116 0.0
O25 O 0.95167 0.05417 0.14306 0.0
In26 In 0.42056 0.89029 0.13109 0.0
O27 O 0.40316 0.93238 0.18174 0.0
O28 O 0.4108 0.96288 0.12878 0.0
C29 C 0.35719 0.83209 0.11635 0.0
C30 C 0.46409 0.92067 0.07139 0.0
C31 C 0.47116 0.84682 0.1794 0.0
O32 O 0.34905 0.86869 0.12988 0.0
O33 O 0.3962 0.82618 0.10894 0.0
O34 O 0.47147 0.83983 0.14447 0.0
O35 O 0.44693 0.87711 0.18954 0.0
C36 C 0.40493 0.96736 0.16359 0.0
O37 O 0.4829 0.90681 0.10047 0.0
O38 O 0.42357 0.91715 0.07184 0.0
In39 In 0.60332 0.40241 0.13889 0.0
O40 O 0.55514 0.37228 0.18085 0.0
O41 O 0.53246 0.41847 0.14167 0.0
C42 C 0.66369 0.34115 0.12598 0.0
C43 C 0.58018 0.43668 0.07256 0.0
C44 C 0.63979 0.45046 0.1933 0.0
O45 O 0.62456 0.3315 0.13135 0.0
O46 O 0.67141 0.38091 0.12621 0.0
O47 O 0.64616 0.45805 0.15881 0.0
O48 O 0.6146 0.41956 0.1999 0.0
C49 C 0.52391 0.39497 0.16954 0.0
O50 O 0.59482 0.45913 0.09929 0.0
O51 O 0.5796 0.39652 0.07865 0.0
In52 In 0.08517 0.87786 0.35515 0.0
O53 O 0.02866 0.89067 0.39394 0.0
O54 O 0.08867 0.91964 0.40771 0.0
C55 C 0.03242 0.82191 0.31995 0.0
C56 C 0.09047 0.94296 0.30469 0.0
C57 C 0.15744 0.8317 0.37062 0.0
O58 O 0.041 0.81901 0.35452 0.0
O59 O 0.04925 0.85382 0.30361 0.0
O60 O 0.15901 0.87048 0.36006 0.0
O61 O 0.11994 0.81731 0.37483 0.0
C62 C 0.04919 0.91552 0.41542 0.0
O63 O 0.10789 0.9068 0.29916 0.0
O64 O 0.07189 0.94644 0.33603 0.0
In65 In 0.59856 0.10919 0.33822 0.0
O66 O 0.59382 0.05083 0.37652 0.0
O67 O 0.55976 0.10722 0.39265 0.0
C68 C 0.64785 0.05052 0.30302 0.0
C69 C 0.52343 0.11509 0.30032 0.0
C70 C 0.64825 0.1817 0.34282 0.0
O71 O 0.65917 0.06848 0.33323 0.0
O72 O 0.61138 0.06162 0.29108 0.0
O73 O 0.6239 0.17373 0.31542 0.0
O74 O 0.64522 0.15484 0.36928 0.0
C75 C 0.56811 0.06812 0.39935 0.0
O76 O 0.55956 0.11453 0.2841 0.0
O77 O 0.52547 0.1168 0.33571 0.0
In78 In 0.40949 0.60144 0.35543 0.0
O79 O 0.38841 0.55456 0.30871 0.0
O80 O 0.42841 0.53108 0.35245 0.0
C81 C 0.33786 0.64947 0.36829 0.0
C82 C 0.44853 0.58046 0.42023 0.0
C83 C 0.45761 0.64793 0.30696 0.0
O84 O 0.33581 0.60962 0.36171 0.0
O85 O 0.37548 0.66427 0.36916 0.0
O86 O 0.45761 0.65485 0.34188 0.0
O87 O 0.43399 0.61712 0.29666 0.0
C88 C 0.40938 0.52316 0.32202 0.0
O89 O 0.46739 0.60089 0.39427 0.0
O90 O 0.40915 0.5727 0.41429 0.0
In91 In 0.89285 0.41991 0.35737 0.0
O92 O 0.94827 0.39482 0.31944 0.0
O93 O 0.95178 0.45786 0.34241 0.0
C94 C 0.84562 0.34633 0.36153 0.0
C95 C 0.92558 0.44321 0.42381 0.0
C96 C 0.836 0.47116 0.32157 0.0
O97 O 0.86106 0.36032 0.331 0.0
O98 O 0.85655 0.3676 0.39012 0.0
O99 O 0.83088 0.4599 0.35543 0.0
O100 O 0.87029 0.45803 0.30679 0.0
C101 C 0.96954 0.42949 0.32272 0.0
O102 O 0.89932 0.46665 0.40586 0.0
O103 O 0.93232 0.40654 0.40963 0.0
In104 In 0.90951 0.38735 0.85764 0.0
O105 O 0.96436 0.40656 0.89573 0.0
O106 O 0.90053 0.41609 0.91597 0.0
C107 C 0.96809 0.34389 0.81693 0.0
C108 C 0.90061 0.46006 0.8162 0.0
C109 C 0.84567 0.32856 0.86856 0.0
O110 O 0.96463 0.33908 0.85205 0.0
O111 O 0.9431 0.37145 0.80295 0.0
O112 O 0.83774 0.36656 0.85786 0.0
O113 O 0.88476 0.32141 0.8749 0.0
C114 C 0.94048 0.42072 0.92157 0.0
O115 O 0.89022 0.42335 0.8039 0.0
O116 O 0.91156 0.46025 0.85028 0.0
In117 In 0.13058 0.92714 0.86142 0.0
O118 O 0.1168 0.98339 0.9002 0.0
O119 O 0.08733 0.92329 0.91308 0.0
C120 C 0.18843 0.97836 0.82647 0.0
C121 C 0.06751 0.92337 0.80922 0.0
C122 C 0.17533 0.85436 0.87759 0.0
O123 O 0.19239 0.9674 0.86047 0.0
O124 O 0.15453 0.96509 0.81095 0.0
O125 O 0.1374 0.85313 0.86489 0.0
O126 O 0.18935 0.89167 0.8835 0.0
C127 C 0.0912 0.96269 0.92102 0.0
O128 O 0.10344 0.90506 0.80469 0.0
O129 O 0.06302 0.94148 0.84063 0.0
In130 In 0.58452 0.10518 0.8462 0.0
O131 O 0.52806 0.09593 0.88542 0.0
O132 O 0.58959 0.0749 0.90448 0.0
C133 C 0.53268 0.14571 0.79689 0.0
C134 C 0.59284 0.02966 0.80931 0.0
C135 C 0.64659 0.16503 0.85963 0.0
O136 O 0.5297 0.15132 0.83192 0.0
O137 O 0.56064 0.11872 0.78712 0.0
O138 O 0.65586 0.12596 0.85398 0.0
O139 O 0.60695 0.17277 0.85968 0.0
C140 C 0.54962 0.07747 0.91085 0.0
O141 O 0.61284 0.06326 0.79913 0.0
O142 O 0.5716 0.03382 0.8392 0.0
In143 In 0.40467 0.60308 0.86335 0.0
O144 O 0.44156 0.62868 0.81178 0.0
O145 O 0.47051 0.58005 0.84525 0.0
C146 C 0.35773 0.67444 0.87816 0.0
C147 C 0.44052 0.57142 0.92646 0.0
C148 C 0.34743 0.55474 0.82499 0.0
O149 O 0.39676 0.67667 0.86824 0.0
O150 O 0.34347 0.63674 0.88178 0.0
O151 O 0.34688 0.55732 0.86041 0.0
O152 O 0.37773 0.575 0.80939 0.0
C153 C 0.47312 0.60359 0.81646 0.0
O154 O 0.42113 0.54813 0.90287 0.0
O155 O 0.43983 0.61127 0.91929 0.0
In156 In 0.92671 0.12544 0.61976 0.0
O157 O 0.97781 0.11826 0.57476 0.0
O158 O 0.91947 0.08327 0.56775 0.0
C159 C 0.97576 0.1824 0.65763 0.0
C160 C 0.93305 0.05697 0.66638 0.0
C161 C 0.8522 0.16927 0.60837 0.0
O162 O 0.97038 0.18485 0.62254 0.0
O163 O 0.95721 0.15096 0.67314 0.0
O164 O 0.85258 0.13065 0.61956 0.0
O165 O 0.88886 0.18464 0.60157 0.0
C166 C 0.95694 0.09114 0.55573 0.0
O167 O 0.90446 0.08546 0.67065 0.0
O168 O 0.95721 0.06273 0.63834 0.0
In169 In 0.39054 0.92095 0.61379 0.0
O170 O 0.38791 0.97432 0.57021 0.0
O171 O 0.42262 0.91767 0.5562 0.0
C172 C 0.34591 0.97092 0.66153 0.0
C173 C 0.4681 0.92392 0.64842 0.0
C174 C 0.34027 0.84969 0.60482 0.0
O175 O 0.34014 0.97214 0.62642 0.0
O176 O 0.37461 0.94508 0.67233 0.0
O177 O 0.38081 0.84744 0.60667 0.0
O178 O 0.32583 0.88736 0.6063 0.0
C179 C 0.41185 0.95544 0.54689 0.0
O180 O 0.43904 0.89777 0.6586 0.0
O181 O 0.45822 0.94693 0.62057 0.0
In182 In 0.59735 0.3959 0.63275 0.0
O183 O 0.53904 0.40201 0.59488 0.0
O184 O 0.59633 0.43393 0.57766 0.0
C185 C 0.54497 0.34635 0.67504 0.0
C186 C 0.60425 0.46527 0.67807 0.0
C187 C 0.66804 0.34766 0.61635 0.0
O188 O 0.55018 0.34011 0.64029 0.0
O189 O 0.5658 0.37772 0.68819 0.0
O190 O 0.63089 0.33229 0.62019 0.0
O191 O 0.66995 0.38801 0.61995 0.0
C192 C 0.557 0.42657 0.57138 0.0
O193 O 0.62384 0.43045 0.68477 0.0
O194 O 0.58322 0.46543 0.64778 0.0
In195 In 0.11256 0.59484 0.62912 0.0
O196 O 0.05766 0.61123 0.67069 0.0
O197 O 0.05858 0.54995 0.64387 0.0
C198 C 0.15755 0.66848 0.61783 0.0
C199 C 0.07886 0.57232 0.56262 0.0
C200 C 0.17059 0.55292 0.67159 0.0
O201 O 0.12124 0.66832 0.63407 0.0
O202 O 0.16979 0.63218 0.6064 0.0
O203 O 0.16999 0.54977 0.63617 0.0
O204 O 0.14143 0.57625 0.68531 0.0
C205 C 0.03945 0.57504 0.66597 0.0
O206 O 0.10483 0.54856 0.58045 0.0
O207 O 0.07281 0.60903 0.57688 0.0
H208 H 0.24634 0.66139 0.11029 0.0
H209 H 0.14301 0.75361 0.11544 0.0
H210 H 0.19471 0.81269 0.11567 0.0
H211 H 0.26965 0.83856 0.1167 0.0
H212 H 0.373 0.74678 0.10816 0.0
H213 H 0.32128 0.68761 0.10676 0.0
C214 C 0.23525 0.69443 0.11126 0.0
C215 C 0.19095 0.70301 0.11304 0.0
C216 C 0.26522 0.72852 0.11083 0.0
C217 C 0.17698 0.74604 0.11399 0.0
C218 C 0.20652 0.77996 0.11423 0.0
C219 C 0.28073 0.80562 0.11428 0.0
C220 C 0.32503 0.79712 0.11269 0.0
C221 C 0.25075 0.77163 0.11299 0.0
C222 C 0.339 0.75426 0.10931 0.0
C223 C 0.30945 0.72031 0.10865 0.0
H224 H 0.8338 0.23004 0.11962 0.0
H225 H 0.74092 0.12743 0.10866 0.0
H226 H 0.68225 0.17933 0.10991 0.0
H227 H 0.65671 0.25398 0.11675 0.0
H228 H 0.74973 0.35669 0.1261 0.0
H229 H 0.80843 0.30499 0.12276 0.0
C230 C 0.80074 0.21913 0.11718 0.0
C231 C 0.79188 0.1749 0.11416 0.0
C232 C 0.76694 0.24924 0.11782 0.0
C233 C 0.74879 0.1613 0.11096 0.0
C234 C 0.71508 0.19097 0.1118 0.0
C235 C 0.68983 0.265 0.11785 0.0
C236 C 0.6987 0.30912 0.12183 0.0
C237 C 0.72369 0.23502 0.11565 0.0
C238 C 0.74187 0.3229 0.12303 0.0
C239 C 0.77558 0.29333 0.12119 0.0
H240 H 0.15891 0.7448 0.37738 0.0
H241 H 0.24209 0.85597 0.37106 0.0
H242 H 0.30531 0.80914 0.372 0.0
H243 H 0.33665 0.73662 0.37134 0.0
H244 H 0.25337 0.62535 0.37426 0.0
H245 H 0.19033 0.67225 0.378 0.0
C246 C 0.19089 0.75883 0.37662 0.0
C247 C 0.19583 0.80385 0.37426 0.0
C248 C 0.22698 0.73167 0.37632 0.0
C249 C 0.23745 0.82147 0.37293 0.0
C250 C 0.27357 0.79469 0.37338 0.0
C251 C 0.30472 0.72258 0.37309 0.0
C252 C 0.29968 0.67751 0.37255 0.0
C253 C 0.26868 0.74975 0.37457 0.0
C254 C 0.2581 0.65989 0.3746 0.0
C255 C 0.22208 0.68671 0.37672 0.0
H256 H 0.79007 0.32223 0.30662 0.0
H257 H 0.82595 0.29459 0.42123 0.0
H258 H 0.76732 0.24203 0.42617 0.0
H259 H 0.70516 0.20438 0.39795 0.0
H260 H 0.66721 0.23534 0.28436 0.0
H261 H 0.72668 0.2865 0.2792 0.0
C262 C 0.78538 0.30424 0.33249 0.0
C263 C 0.81274 0.31174 0.36332 0.0
C264 C 0.75073 0.27514 0.3355 0.0
C265 C 0.80559 0.28903 0.39699 0.0
C266 C 0.77192 0.25916 0.39988 0.0
C267 C 0.70967 0.22263 0.37221 0.0
C268 C 0.68161 0.21604 0.34163 0.0
C269 C 0.74404 0.25217 0.36941 0.0
C270 C 0.68807 0.2399 0.30843 0.0
C271 C 0.7223 0.269 0.30534 0.0
H272 H 0.75821 0.33538 0.86306 0.0
H273 H 0.8602 0.24313 0.8786 0.0
H274 H 0.80817 0.18428 0.87778 0.0
H275 H 0.73357 0.15835 0.8703 0.0
H276 H 0.63143 0.2509 0.85697 0.0
H277 H 0.68328 0.30977 0.85938 0.0
C278 C 0.76895 0.30242 0.86652 0.0
C279 C 0.81302 0.29375 0.87073 0.0
C280 C 0.73875 0.26854 0.86628 0.0
C281 C 0.82642 0.25081 0.87535 0.0
C282 C 0.79669 0.21701 0.87477 0.0
C283 C 0.72273 0.19141 0.86813 0.0
C284 C 0.67874 0.2001 0.86332 0.0
C285 C 0.75278 0.2254 0.86989 0.0
C286 C 0.66514 0.2432 0.86075 0.0
C287 C 0.69478 0.277 0.86203 0.0
H288 H 0.27065 0.67528 0.88072 0.0
H289 H 0.38159 0.75892 0.88424 0.0
H290 H 0.33444 0.82183 0.88736 0.0
H291 H 0.26189 0.853 0.88576 0.0
H292 H 0.15108 0.76963 0.87773 0.0
H293 H 0.19801 0.70645 0.87992 0.0
C294 C 0.28453 0.70727 0.88255 0.0
C295 C 0.32958 0.71248 0.88238 0.0
C296 C 0.25723 0.74322 0.88339 0.0
C297 C 0.34706 0.7541 0.88433 0.0
C298 C 0.3201 0.79003 0.88609 0.0
C299 C 0.24794 0.82098 0.88491 0.0
C300 C 0.20302 0.81595 0.88175 0.0
C301 C 0.27518 0.78498 0.88518 0.0
C302 C 0.18551 0.77431 0.88022 0.0
C303 C 0.21234 0.73823 0.88141 0.0
H304 H 0.67126 0.26045 0.61907 0.0
H305 H 0.75048 0.37272 0.60036 0.0
H306 H 0.81393 0.32689 0.59359 0.0
H307 H 0.84733 0.25532 0.59607 0.0
H308 H 0.76865 0.14334 0.61768 0.0
H309 H 0.70441 0.18866 0.62 0.0
C310 C 0.70236 0.2749 0.61322 0.0
C311 C 0.70616 0.31999 0.61024 0.0
C312 C 0.73875 0.2484 0.60997 0.0
C313 C 0.74671 0.33817 0.60285 0.0
C314 C 0.78298 0.31196 0.599 0.0
C315 C 0.81607 0.24074 0.6009 0.0
C316 C 0.81277 0.19595 0.60663 0.0
C317 C 0.77945 0.2671 0.60292 0.0
C318 C 0.77206 0.17766 0.61312 0.0
C319 C 0.73535 0.2036 0.61455 0.0
H320 H 0.24228 0.67119 0.59966 0.0
H321 H 0.13532 0.75266 0.62899 0.0
H322 H 0.1822 0.81605 0.62569 0.0
H323 H 0.25402 0.84792 0.6164 0.0
H324 H 0.36178 0.76595 0.59057 0.0
H325 H 0.31411 0.70304 0.59048 0.0
C326 C 0.22912 0.70287 0.60506 0.0
C327 C 0.18526 0.70724 0.61438 0.0
C328 C 0.25646 0.73898 0.60385 0.0
C329 C 0.16888 0.74843 0.62172 0.0
C330 C 0.19571 0.78466 0.61985 0.0
C331 C 0.26706 0.81631 0.61049 0.0
C332 C 0.31141 0.81163 0.60333 0.0
C333 C 0.2396 0.78027 0.61121 0.0
C334 C 0.32782 0.77042 0.59612 0.0
C335 C 0.30056 0.73447 0.59609 0.0
H336 H 0.9959 0.40117 0.25383 0.0
H337 H 0.03278 0.48195 0.34679 0.0
H338 H 0.08759 0.51677 0.30826 0.0
H339 H 0.1129 0.53514 0.24515 0.0
H340 H 0.07339 0.45767 0.15082 0.0
H341 H 0.03311 0.41008 0.19276 0.0
C342 C 0.01708 0.42524 0.2659 0.0
C343 C 0.00994 0.43956 0.30277 0.0
C344 C 0.0477 0.44631 0.24309 0.0
C345 C 0.0374 0.47088 0.3182 0.0
C346 C 0.06865 0.49096 0.29616 0.0
C347 C 0.09676 0.50698 0.23392 0.0
C348 C 0.09527 0.5006 0.19489 0.0
C349 C 0.07235 0.48066 0.25802 0.0
C350 C 0.07456 0.46368 0.18079 0.0
C351 C 0.05115 0.4366 0.20474 0.0
H352 H 0.03014 0.03153 0.15747 0.0
H353 H 0.96959 0.11566 0.23771 0.0
H354 H 0.01247 0.08405 0.28832 0.0
H355 H 0.05453 0.02213 0.31083 0.0
H356 H 0.11175 0.93554 0.23059 0.0
H357 H 0.08349 0.97888 0.17887 0.0
C358 C 0.02738 0.0439 0.18587 0.0
C359 C 0.9962 0.07522 0.19405 0.0
C360 C 0.05098 0.02451 0.21492 0.0
C361 C 0.99326 0.09143 0.23076 0.0
C362 C 0.01744 0.07299 0.25978 0.0
C363 C 0.06181 0.01342 0.28202 0.0
C364 C 0.08432 0.97515 0.2745 0.0
C365 C 0.04447 0.03786 0.25243 0.0
C366 C 0.09409 0.96459 0.2371 0.0
C367 C 0.07772 0.98923 0.2075 0.0
H368 H 0.50478 0.12323 0.22606 0.0
H369 H 0.455 0.0728 0.33048 0.0
H370 H 0.40574 0.02603 0.29614 0.0
H371 H 0.38986 0.98815 0.23684 0.0
H372 H 0.43843 0.04001 0.13242 0.0
H373 H 0.47407 0.09805 0.1662 0.0
C374 C 0.48192 0.10324 0.24124 0.0
C375 C 0.48413 0.10076 0.28062 0.0
C376 C 0.45394 0.07604 0.22129 0.0
C377 C 0.45408 0.07514 0.30009 0.0
C378 C 0.42618 0.04797 0.28045 0.0
C379 C 0.40693 0.01306 0.22141 0.0
C380 C 0.41244 0.00911 0.18235 0.0
C381 C 0.42773 0.04634 0.24108 0.0
C382 C 0.43408 0.04196 0.16259 0.0
C383 C 0.45484 0.07507 0.18192 0.0
H384 H 0.51243 0.37865 0.24396 0.0
H385 H 0.44991 0.43336 0.14679 0.0
H386 H 0.40078 0.47304 0.18727 0.0
H387 H 0.38806 0.50503 0.24944 0.0
H388 H 0.45341 0.45291 0.34636 0.0
H389 H 0.48816 0.3991 0.30712 0.0
C390 C 0.48687 0.3978 0.23166 0.0
C391 C 0.48535 0.40379 0.19252 0.0
C392 C 0.45983 0.42196 0.25517 0.0
C393 C 0.45204 0.42868 0.17693 0.0
C394 C 0.42417 0.45174 0.20009 0.0
C395 C 0.40877 0.48098 0.26213 0.0
C396 C 0.41898 0.48365 0.30053 0.0
C397 C 0.42964 0.45074 0.23919 0.0
C398 C 0.44557 0.45202 0.31668 0.0
C399 C 0.46565 0.42127 0.29423 0.0
H400 H 0.01038 0.59957 0.73527 0.0
H401 H 0.98154 0.51696 0.64134 0.0
H402 H 0.92706 0.4794 0.67822 0.0
H403 H 0.89832 0.46099 0.74007 0.0
H404 H 0.93029 0.53977 0.83572 0.0
H405 H 0.97144 0.58845 0.79531 0.0
C406 C 0.99121 0.57421 0.72269 0.0
C407 C 1.00038 0.56053 0.68595 0.0
C408 C 0.96068 0.55169 0.74453 0.0
C409 C 0.97545 0.52758 0.66985 0.0
C410 C 0.9443 0.50603 0.6909 0.0
C411 C 0.91305 0.4896 0.75189 0.0
C412 C 0.91189 0.49627 0.7909 0.0
C413 C 0.93815 0.51641 0.72878 0.0
C414 C 0.93101 0.53365 0.80576 0.0
C415 C 0.95494 0.56133 0.7827 0.0
H416 H 0.98975 0.96244 0.813 0.0
H417 H 0.07838 0.90422 0.73498 0.0
H418 H 0.03892 0.93557 0.68225 0.0
H419 H 0.98779 0.98986 0.65958 0.0
H420 H 0.9012 0.05066 0.73779 0.0
H421 H 0.9308 0.00742 0.78914 0.0
C422 C 0.99976 0.95568 0.78441 0.0
C423 C 0.03738 0.9317 0.7779 0.0
C424 C 0.97763 0.9748 0.7543 0.0
C425 C 0.0497 0.9228 0.74074 0.0
C426 C 0.02733 0.94101 0.71057 0.0
C427 C 0.97471 0.99292 0.68773 0.0
C428 C 0.94294 0.02395 0.69507 0.0
C429 C 0.99256 0.9687 0.71718 0.0
C430 C 0.92586 0.0272 0.7315 0.0
C431 C 0.94298 1.00267 0.7609 0.0
H432 H 0.60855 0.0256 0.7343 0.0
H433 H 0.55536 0.95294 0.82685 0.0
H434 H 0.51721 0.90623 0.783 0.0
H435 H 0.48626 0.89743 0.71977 0.0
H436 H 0.53645 0.97323 0.62782 0.0
H437 H 0.58879 0.00659 0.66969 0.0
C438 C 0.58998 0.99851 0.74481 0.0
C439 C 0.58406 0.99329 0.78372 0.0
C440 C 0.56669 0.97285 0.71946 0.0
C441 C 0.55999 0.95796 0.79695 0.0
C442 C 0.53782 0.93143 0.77189 0.0
C443 C 0.5096 0.92017 0.7087 0.0
C444 C 0.50686 0.93356 0.671 0.0
C445 C 0.53886 0.94027 0.73323 0.0
C446 C 0.53746 0.9629 0.65694 0.0
C447 C 0.56734 0.98215 0.6809 0.0
H448 H 0.56109 0.54047 0.67011 0.0
H449 H 0.63137 0.46447 0.75107 0.0
H450 H 0.60235 0.50795 0.80213 0.0
H451 H 0.54605 0.55712 0.82391 0.0
H452 H 0.47264 0.6303 0.74317 0.0
H453 H 0.51447 0.59909 0.69188 0.0
C454 C 0.57102 0.53421 0.69885 0.0
C455 C 0.59762 0.49875 0.7069 0.0
C456 C 0.55313 0.55849 0.72814 0.0
C457 C 0.61065 0.49133 0.74417 0.0
C458 C 0.59379 0.516 0.77342 0.0
C459 C 0.54001 0.56713 0.79514 0.0
C460 C 0.50578 0.59528 0.78722 0.0
C461 C 0.56328 0.54809 0.76581 0.0
C462 C 0.49865 0.60847 0.74994 0.0
C463 C 0.52233 0.59034 0.72058 0.0
H464 H 0.01697 0.64742 0.24004 0.0
H465 H 0.0066 0.73162 0.14383 0.0
H466 H 0.99398 0.79283 0.18515 0.0
H467 H 0.00432 0.82388 0.24793 0.0
H468 H 0.01784 0.73986 0.34398 0.0
H469 H 0.00967 0.67707 0.30359 0.0
C470 C 0.01044 0.67893 0.22814 0.0
C471 C 0.01391 0.68538 0.18915 0.0
C472 C 0.00451 0.71413 0.25209 0.0
C473 C 0.00459 0.72603 0.17386 0.0
C474 C 0.99777 0.76113 0.1975 0.0
C475 C 0.00405 0.79183 0.26014 0.0
C476 C 0.01293 0.78633 0.29858 0.0
C477 C 1.00051 0.75591 0.23661 0.0
C478 C 0.01164 0.74483 0.31431 0.0
C479 C 0.00731 0.70888 0.29119 0.0
H480 H 0.76381 1.00009 0.17021 0.0
H481 H 0.86047 0.02154 0.25511 0.0
H482 H 0.80569 0.01849 0.30415 0.0
H483 H 0.72996 0.02943 0.31996 0.0
H484 H 0.63295 0.01539 0.23407 0.0
H485 H 0.68788 0.99485 0.18859 0.0
C486 C 0.773 1.00224 0.19958 0.0
C487 C 0.81569 0.01205 0.20916 0.0
C488 C 0.74103 1.00288 0.22738 0.0
C489 C 0.82749 0.01465 0.24721 0.0
C490 C 0.79616 0.01327 0.2752 0.0
C491 C 0.72072 0.02056 0.2916 0.0
C492 C 0.67785 0.02525 0.27996 0.0
C493 C 0.75263 0.01055 0.26526 0.0
C494 C 0.66603 0.01287 0.24342 0.0
C495 C 0.69744 1.00131 0.21734 0.0
H496 H 0.48349 0.72972 0.31956 0.0
H497 H 0.47472 0.63305 0.23313 0.0
H498 H 0.48986 0.68729 0.18501 0.0
H499 H 0.48987 0.76338 0.16721 0.0
H500 H 0.48896 0.86073 0.25332 0.0
H501 H 0.49465 0.80525 0.30192 0.0
C502 C 0.48618 0.72037 0.29029 0.0
C503 C 0.47738 0.67774 0.27971 0.0
C504 C 0.49275 0.75206 0.26271 0.0
C505 C 0.48089 0.6659 0.24178 0.0
C506 C 0.4894 0.6969 0.21428 0.0
C507 C 0.49248 0.77248 0.19655 0.0
C508 C 0.48849 0.81588 0.20684 0.0
C509 C 0.49309 0.74035 0.22429 0.0
C510 C 0.49166 0.82738 0.24489 0.0
C511 C 0.49456 0.79566 0.27265 0.0
H512 H 0.71426 0.49537 0.18628 0.0
H513 H 0.62332 0.44818 0.26831 0.0
H514 H 0.67507 0.46117 0.31863 0.0
H515 H 0.75067 0.4701 0.33665 0.0
H516 H 0.84346 0.51037 0.25347 0.0
H517 H 0.78651 0.51718 0.20659 0.0
C518 C 0.70533 0.48931 0.21531 0.0
C519 C 0.66551 0.47007 0.22358 0.0
C520 C 0.73591 0.49511 0.24389 0.0
C521 C 0.65415 0.46243 0.26127 0.0
C522 C 0.68378 0.46968 0.29004 0.0
C523 C 0.75812 0.48191 0.30865 0.0
C524 C 0.80114 0.48901 0.29826 0.0
C525 C 0.72554 0.48365 0.28138 0.0
C526 C 0.81051 0.50425 0.26192 0.0
C527 C 0.77801 0.50784 0.23503 0.0
H528 H 0.00386 0.17798 0.72934 0.0
H529 H 0.98796 0.26578 0.63624 0.0
H530 H 0.99491 0.32696 0.67875 0.0
H531 H 0.98746 0.35356 0.74333 0.0
H532 H 0.99983 0.26533 0.83657 0.0
H533 H 0.01368 0.20634 0.79311 0.0
C534 C 0.00334 0.21056 0.71826 0.0
C535 C 0.99426 0.21757 0.68005 0.0
C536 C 0.00616 0.24543 0.74299 0.0
C537 C 0.99447 0.25971 0.6657 0.0
C538 C 0.99808 0.29468 0.69005 0.0
C539 C 0.99465 0.32168 0.75412 0.0
C540 C 0.99142 0.31338 0.79288 0.0
C541 C 1.00119 0.28775 0.72895 0.0
C542 C 1.00163 0.2723 0.80674 0.0
C543 C 0.00914 0.23848 0.78189 0.0
H544 H 0.3575 0.98066 0.73644 0.0
H545 H 0.26818 0.00737 0.64653 0.0
H546 H 0.21167 0.02241 0.69226 0.0
H547 H 0.18452 0.01175 0.75636 0.0
H548 H 0.27314 0.98206 0.84604 0.0
H549 H 0.33334 0.98575 0.80205 0.0
C550 C 0.32597 0.99095 0.72694 0.0
C551 C 0.31654 0.99179 0.68831 0.0
C552 C 0.29344 0.99861 0.75335 0.0
C553 C 0.27597 0.00597 0.6762 0.0
C554 C 0.24358 0.01433 0.70232 0.0
C555 C 0.21719 0.00751 0.76645 0.0
C556 C 0.22441 0.99556 0.80404 0.0
C557 C 0.25139 0.00833 0.74081 0.0
C558 C 0.2668 0.99089 0.81708 0.0
C559 C 0.3012 0.99255 0.79186 0.0
H560 H 0.50531 0.22662 0.80954 0.0
H561 H 0.51995 0.13182 0.72226 0.0
H562 H 0.51411 0.18788 0.67425 0.0
H563 H 0.5232 0.26423 0.65871 0.0
H564 H 0.51819 0.35897 0.74694 0.0
H565 H 0.5011 0.30292 0.79286 0.0
C566 C 0.50551 0.2181 0.77998 0.0
C567 C 0.51378 0.17548 0.7693 0.0
C568 C 0.50486 0.25077 0.75272 0.0
C569 C 0.51406 0.16466 0.731 0.0
C570 C 0.5111 0.19673 0.70358 0.0
C571 C 0.51698 0.27271 0.68777 0.0
C572 C 0.52281 0.31534 0.69971 0.0
C573 C 0.50937 0.24007 0.71427 0.0
C574 C 0.51453 0.32611 0.73733 0.0
C575 C 0.50491 0.29408 0.76359 0.0
H576 H 0.34736 0.53318 0.75136 0.0
H577 H 0.26573 0.53938 0.84926 0.0
H578 H 0.20198 0.53216 0.80959 0.0
H579 H 0.16994 0.53831 0.74658 0.0
H580 H 0.25153 0.53255 0.64865 0.0
H581 H 0.31486 0.5246 0.68879 0.0
C582 C 0.31564 0.5317 0.76404 0.0
C583 C 0.31107 0.53764 0.80299 0.0
C584 C 0.27917 0.52825 0.74102 0.0
C585 C 0.26998 0.53507 0.81928 0.0
C586 C 0.2335 0.53134 0.79658 0.0
C587 C 0.20151 0.5342 0.73408 0.0
C588 C 0.20634 0.53687 0.69487 0.0
C589 C 0.23773 0.53011 0.75732 0.0
C590 C 0.24715 0.53083 0.67884 0.0
C591 C 0.28338 0.52659 0.70177 0.0
H592 H 0.9832 0.54519 0.05557 0.0
H593 H 0.10815 0.54278 0.00266 0.0
H594 H 0.08106 0.49268 0.95527 0.0
H595 H 0.02215 0.44926 0.92951 0.0
H596 H 0.89718 0.45184 0.98237 0.0
H597 H 0.92437 0.50168 0.02991 0.0
C598 C 0.0044 0.53407 0.03343 0.0
C599 C 0.04752 0.54784 0.03238 0.0
C600 C 0.98884 0.50481 0.0068 0.0
C601 C 0.07475 0.53282 0.00383 0.0
C602 C 0.05936 0.50399 0.97694 0.0
C603 C 1.00098 0.46034 0.95169 0.0
C604 C 0.95781 0.44675 0.95264 0.0
C605 C 0.01659 0.48952 0.97838 0.0
C606 C 0.93061 0.4617 0.98124 0.0
C607 C 0.94605 0.49038 0.00823 0.0
H608 H 0.01908 0.93093 0.9537 0.0
H609 H 0.10026 0.04366 0.94892 0.0
H610 H 0.05065 0.0821 0.99014 0.0
H611 H 0.98472 0.08329 0.02803 0.0
H612 H 0.90369 0.97046 0.03304 0.0
H613 H 0.9522 0.93273 0.99037 0.0
C614 C 0.02612 0.96375 0.96203 0.0
C615 C 0.06345 0.98431 0.9487 0.0
C616 C 0.99711 0.98586 0.98514 0.0
C617 C 0.07186 0.02707 0.95914 0.0
C618 C 0.04339 0.04914 0.98247 0.0
C619 C 0.97729 0.05071 0.01925 0.0
C620 C 0.94061 0.02974 0.03346 0.0
C621 C 0.00583 0.02891 -0.00452 0.0
C622 C 0.93165 0.98733 0.02227 0.0
C623 C 0.95954 0.96564 -0.00185 0.0
H624 H 0.42911 0.97698 0.02257 0.0
H625 H 0.55017 0.92113 0.05596 0.0
H626 H 0.58813 0.96707 0.01063 0.0
H627 H 0.58645 0.02286 0.96125 0.0
H628 H 0.46498 0.07956 0.92968 0.0
H629 H 0.42767 0.03414 0.97528 0.0
C630 C 0.46376 0.97451 0.01962 0.0
C631 C 0.48682 0.94537 0.04207 0.0
C632 C 0.48531 1.00167 -0.00565 0.0
C633 C 0.53177 0.94312 0.03861 0.0
C634 C 0.55345 0.96952 0.01292 0.0
C635 C 0.5519 0.02567 0.96477 0.0
C636 C 0.5285 0.05452 0.94218 0.0
C637 C 0.53054 0.99907 0.99077 0.0
C638 C 0.48373 0.05766 0.94682 0.0
C639 C 0.46231 0.0315 0.97269 0.0
H640 H 0.46345 0.48813 0.93523 0.0
H641 H 0.47752 0.61354 0.98551 0.0
H642 H 0.52502 0.58332 0.03366 0.0
H643 H 0.56161 0.52104 0.06178 0.0
H644 H 0.54751 0.39576 0.01117 0.0
H645 H 0.50167 0.4264 0.96217 0.0
C646 C 0.47661 0.50879 0.95692 0.0
C647 C 0.46664 0.5529 0.95712 0.0
C648 C 0.5044 0.49136 0.98401 0.0
C649 C 0.48448 0.57941 0.985 0.0
C650 C 0.5118 0.5622 0.01236 0.0
C651 C 0.54904 0.50056 0.0397 0.0
C652 C 0.55804 0.45621 0.04001 0.0
C653 C 0.52207 0.51825 0.01206 0.0
C654 C 0.54119 0.43002 0.01144 0.0
C655 C 0.51473 0.44746 0.98359 0.0
H656 H 0.07829 0.98961 0.44603 0.0
H657 H 0.96994 0.90259 0.44602 0.0
H658 H 0.93027 0.95105 0.48743 0.0
H659 H 0.92655 0.01814 0.52359 0.0
H660 H 0.03472 0.10549 0.52285 0.0
H661 H 0.07395 0.05739 0.48097 0.0
C662 C 0.04621 0.98104 0.45551 0.0
C663 C 0.0272 0.94243 0.44345 0.0
C664 C 0.02328 0.00947 0.47853 0.0
C665 C 0.98531 0.93204 0.45526 0.0
C666 C 0.96254 0.95984 0.47869 0.0
C667 C 0.95844 0.02694 0.51378 0.0
C668 C 0.97766 0.06535 0.52613 0.0
C669 C 0.98109 0.99878 0.49027 0.0
C670 C 0.01918 0.07615 0.51357 0.0
C671 C 0.04176 0.04853 0.48987 0.0
H672 H 0.49394 0.0892 0.43471 0.0
H673 H 0.58919 0.98895 0.42639 0.0
H674 H 0.54694 0.94332 0.4687 0.0
H675 H 0.48332 0.93228 0.50849 0.0
H676 H 0.38821 0.03263 0.51707 0.0
H677 H 0.42944 0.07746 0.47338 0.0
C678 C 0.50567 0.05757 0.44256 0.0
C679 C 0.54483 0.04262 0.42789 0.0
C680 C 0.48083 0.03123 0.46628 0.0
C681 C 0.55928 1.00127 0.43765 0.0
C682 C 0.53502 0.97507 0.46159 0.0
C683 C 0.47123 0.96363 0.50023 0.0
C684 C 0.43267 0.97904 0.51575 0.0
C685 C 0.49563 0.98962 0.47589 0.0
C686 C 0.41771 0.01998 0.50528 0.0
C687 C 0.44144 0.04577 0.48058 0.0
H688 H 0.58205 0.49643 0.53099 0.0
H689 H 0.47557 0.40911 0.54808 0.0
H690 H 0.4312 0.45156 0.50525 0.0
H691 H 0.42271 0.51324 0.46294 0.0
H692 H 0.52927 0.60006 0.44472 0.0
H693 H 0.57331 0.55867 0.48883 0.0
C694 C 0.5493 0.48646 0.52495 0.0
C695 C 0.53217 0.44956 0.54237 0.0
C696 C 0.52377 0.51137 0.50076 0.0
C697 C 0.48952 0.43729 0.53478 0.0
C698 C 0.46404 0.46168 0.51052 0.0
C699 C 0.45533 0.52352 0.46913 0.0
C700 C 0.47267 0.55978 0.45094 0.0
C701 C 0.48073 0.49894 0.49361 0.0
C702 C 0.51519 0.57236 0.45867 0.0
C703 C 0.54046 0.54853 0.4836 0.0
H704 H 0.93707 0.52682 0.44264 0.0
H705 H 0.97715 0.39807 0.47155 0.0
H706 H 0.03065 0.42705 0.51511 0.0
H707 H 0.06685 0.48889 0.54393 0.0
H708 H 0.02681 0.61771 0.51525 0.0
H709 H 0.97314 0.58877 0.47174 0.0
C710 C 0.95702 0.5051 0.45896 0.0
C711 C 0.95291 0.46036 0.45421 0.0
C712 C 0.98837 0.522 0.48321 0.0
C713 C 0.97949 0.43262 0.475 0.0
C714 C 0.01032 0.44917 0.49963 0.0
C715 C 0.04685 0.51066 0.52771 0.0
C716 C 0.05108 0.55538 0.53243 0.0
C717 C 0.01543 0.49379 0.50354 0.0
C718 C 0.02441 0.58316 0.51178 0.0
C719 C 0.99348 0.56664 0.48719 0.0
loop_
_geom_bond_atom_site_label_1
_geom_bond_atom_site_label_2
_geom_bond_distance
_geom_bond_site_symmetry_2
_ccdc_geom_bond_type
In0 O1 2.294 . S
In0 O2 2.326 . S
In0 O6 2.266 . S
In0 O7 2.326 . S
In0 O8 2.266 . S
In0 O9 2.326 . S
In0 O11 2.294 . S
In0 O12 2.326 . S
O1 In0 2.294 . S
O1 C10 1.240 . S
O2 In0 2.326 . S
O2 C10 1.252 . S
C3 O6 1.252 . S
C3 O7 1.260 . S
C4 O11 1.240 . S
C4 O12 1.252 . S
C5 O8 1.252 . S
C5 O9 1.260 . S
O6 In0 2.266 . S
O6 C3 1.252 . S
O7 In0 2.326 . S
O7 C3 1.260 . S
O8 In0 2.266 . S
O8 C5 1.252 . S
O9 In0 2.326 . S
O9 C5 1.260 . S
C10 O1 1.240 . S
C10 O2 1.252 . S
O11 In0 2.294 . S
O11 C4 1.240 . S
O12 In0 2.326 . S
O12 C4 1.252 . S
In13 O14 2.294 . S
In13 O15 2.326 . S
In13 O19 2.266 . S
In13 O20 2.326 . S
In13 O21 2.266 . S
In13 O22 2.326 . S
In13 O24 2.294 . S
In13 O25 2.326 . S
O14 In13 2.294 . S
O14 C23 1.240 . S
O15 In13 2.326 . S
O15 C23 1.252 . S
C16 O19 1.252 . S
C16 O20 1.260 . S
C17 O24 1.240 . S
C17 O25 1.252 . S
C18 O21 1.252 . S
C18 O22 1.260 . S
O19 In13 2.266 . S
O19 C16 1.252 . S
O20 In13 2.326 . S
O20 C16 1.260 . S
O21 In13 2.266 . S
O21 C18 1.252 . S
O22 In13 2.326 . S
O22 C18 1.260 . S
C23 O14 1.240 . S
C23 O15 1.252 . S
O24 In13 2.294 . S
O24 C17 1.240 . S
O25 In13 2.326 . S
O25 C17 1.252 . S
In26 O27 2.294 . S
In26 O28 2.326 . S
In26 O32 2.266 . S
In26 O33 2.326 . S
In26 O34 2.266 . S
In26 O35 2.326 . S
In26 O37 2.294 . S
In26 O38 2.326 . S
O27 In26 2.294 . S
O27 C36 1.240 . S
O28 In26 2.326 . S
O28 C36 1.252 . S
C29 O32 1.252 . S
C29 O33 1.260 . S
C30 O37 1.240 . S
C30 O38 1.252 . S
C31 O34 1.252 . S
C31 O35 1.260 . S
O32 In26 2.266 . S
O32 C29 1.252 . S
O33 In26 2.326 . S
O33 C29 1.260 . S
O34 In26 2.266 . S
O34 C31 1.252 . S
O35 In26 2.326 . S
O35 C31 1.260 . S
C36 O27 1.240 . S
C36 O28 1.252 . S
O37 In26 2.294 . S
O37 C30 1.240 . S
O38 In26 2.326 . S
O38 C30 1.252 . S
In39 O40 2.294 . S
In39 O41 2.326 . S
In39 O45 2.266 . S
In39 O46 2.326 . S
In39 O47 2.266 . S
In39 O48 2.326 . S
In39 O50 2.294 . S
In39 O51 2.326 . S
O40 In39 2.294 . S
O40 C49 1.240 . S
O41 In39 2.326 . S
O41 C49 1.252 . S
C42 O45 1.252 . S
C42 O46 1.260 . S
C43 O50 1.240 . S
C43 O51 1.252 . S
C44 O47 1.252 . S
C44 O48 1.260 . S
O45 In39 2.266 . S
O45 C42 1.252 . S
O46 In39 2.326 . S
O46 C42 1.260 . S
O47 In39 2.266 . S
O47 C44 1.252 . S
O48 In39 2.326 . S
O48 C44 1.260 . S
C49 O40 1.240 . S
C49 O41 1.252 . S
O50 In39 2.294 . S
O50 C43 1.240 . S
O51 In39 2.326 . S
O51 C43 1.252 . S
In52 O53 2.294 . S
In52 O54 2.326 . S
In52 O58 2.266 . S
In52 O59 2.326 . S
In52 O60 2.266 . S
In52 O61 2.326 . S
In52 O63 2.294 . S
In52 O64 2.326 . S
O53 In52 2.294 . S
O53 C62 1.240 . S
O54 In52 2.326 . S
O54 C62 1.252 . S
C55 O58 1.252 . S
C55 O59 1.260 . S
C56 O63 1.240 . S
C56 O64 1.252 . S
C57 O60 1.252 . S
C57 O61 1.260 . S
O58 In52 2.266 . S
O58 C55 1.252 . S
O59 In52 2.326 . S
O59 C55 1.260 . S
O60 In52 2.266 . S
O60 C57 1.252 . S
O61 In52 2.326 . S
O61 C57 1.260 . S
C62 O53 1.240 . S
C62 O54 1.252 . S
O63 In52 2.294 . S
O63 C56 1.240 . S
O64 In52 2.326 . S
O64 C56 1.252 . S
In65 O66 2.294 . S
In65 O67 2.326 . S
In65 O71 2.266 . S
In65 O72 2.326 . S
In65 O73 2.266 . S
In65 O74 2.326 . S
In65 O76 2.294 . S
In65 O77 2.326 . S
O66 In65 2.294 . S
O66 C75 1.240 . S
O67 In65 2.326 . S
O67 C75 1.252 . S
C68 O71 1.252 . S
C68 O72 1.260 . S
C69 O76 1.240 . S
C69 O77 1.252 . S
C70 O73 1.252 . S
C70 O74 1.260 . S
O71 In65 2.266 . S
O71 C68 1.252 . S
O72 In65 2.326 . S
O72 C68 1.260 . S
O73 In65 2.266 . S
O73 C70 1.252 . S
O74 In65 2.326 . S
O74 C70 1.260 . S
C75 O66 1.240 . S
C75 O67 1.252 . S
O76 In65 2.294 . S
O76 C69 1.240 . S
O77 In65 2.326 . S
O77 C69 1.252 . S
In78 O79 2.294 . S
In78 O80 2.326 . S
In78 O84 2.266 . S
In78 O85 2.326 . S
In78 O86 2.266 . S
In78 O87 2.326 . S
In78 O89 2.294 . S
In78 O90 2.326 . S
O79 In78 2.294 . S
O79 C88 1.240 . S
O80 In78 2.326 . S
O80 C88 1.252 . S
C81 O84 1.252 . S
C81 O85 1.260 . S
C82 O89 1.240 . S
C82 O90 1.252 . S
C83 O86 1.252 . S
C83 O87 1.260 . S
O84 In78 2.266 . S
O84 C81 1.252 . S
O85 In78 2.326 . S
O85 C81 1.260 . S
O86 In78 2.266 . S
O86 C83 1.252 . S
O87 In78 2.326 . S
O87 C83 1.260 . S
C88 O79 1.240 . S
C88 O80 1.252 . S
O89 In78 2.294 . S
O89 C82 1.240 . S
O90 In78 2.326 . S
O90 C82 1.252 . S
In91 O92 2.294 . S
In91 O93 2.326 . S
In91 O97 2.266 . S
In91 O98 2.326 . S
In91 O99 2.266 . S
In91 O100 2.326 . S
In91 O102 2.294 . S
In91 O103 2.326 . S
O92 In91 2.294 . S
O92 C101 1.240 . S
O93 In91 2.326 . S
O93 C101 1.252 . S
C94 O97 1.252 . S
C94 O98 1.260 . S
C95 O102 1.240 . S
C95 O103 1.252 . S
C96 O99 1.252 . S
C96 O100 1.260 . S
O97 In91 2.266 . S
O97 C94 1.252 . S
O98 In91 2.326 . S
O98 C94 1.260 . S
O99 In91 2.266 . S
O99 C96 1.252 . S
O100 In91 2.326 . S
O100 C96 1.260 . S
C101 O92 1.240 . S
C101 O93 1.252 . S
O102 In91 2.294 . S
O102 C95 1.240 . S
O103 In91 2.326 . S
O103 C95 1.252 . S
In104 O105 2.294 . S
In104 O106 2.326 . S
In104 O110 2.266 . S
In104 O111 2.326 . S
In104 O112 2.266 . S
In104 O113 2.326 . S
In104 O115 2.294 . S
In104 O116 2.326 . S
O105 In104 2.294 . S
O105 C114 1.240 . S
O106 In104 2.326 . S
O106 C114 1.252 . S
C107 O110 1.252 . S
C107 O111 1.260 . S
C108 O115 1.240 . S
C108 O116 1.252 . S
C109 O112 1.252 . S
C109 O113 1.260 . S
O110 In104 2.266 . S
O110 C107 1.252 . S
O111 In104 2.326 . S
O111 C107 1.260 . S
O112 In104 2.266 . S
O112 C109 1.252 . S
O113 In104 2.326 . S
O113 C109 1.260 . S
C114 O105 1.240 . S
C114 O106 1.252 . S
O115 In104 2.294 . S
O115 C108 1.240 . S
O116 In104 2.326 . S
O116 C108 1.252 . S
In117 O118 2.294 . S
In117 O119 2.326 . S
In117 O123 2.266 . S
In117 O124 2.326 . S
In117 O125 2.266 . S
In117 O126 2.326 . S
In117 O128 2.294 . S
In117 O129 2.326 . S
O118 In117 2.294 . S
O118 C127 1.240 . S
O119 In117 2.326 . S
O119 C127 1.252 . S
C120 O123 1.252 . S
C120 O124 1.260 . S
C121 O128 1.240 . S
C121 O129 1.252 . S
C122 O125 1.252 . S
C122 O126 1.260 . S
O123 In117 2.266 . S
O123 C120 1.252 . S
O124 In117 2.326 . S
O124 C120 1.260 . S
O125 In117 2.266 . S
O125 C122 1.252 . S
O126 In117 2.326 . S
O126 C122 1.260 . S
C127 O118 1.240 . S
C127 O119 1.252 . S
O128 In117 2.294 . S
O128 C121 1.240 . S
O129 In117 2.326 . S
O129 C121 1.252 . S
In130 O131 2.294 . S
In130 O132 2.326 . S
In130 O136 2.266 . S
In130 O137 2.326 . S
In130 O138 2.266 . S
In130 O139 2.326 . S
In130 O141 2.294 . S
In130 O142 2.326 . S
O131 In130 2.294 . S
O131 C140 1.240 . S
O132 In130 2.326 . S
O132 C140 1.252 . S
C133 O136 1.252 . S
C133 O137 1.260 . S
C134 O141 1.240 . S
C134 O142 1.252 . S
C135 O138 1.252 . S
C135 O139 1.260 . S
O136 In130 2.266 . S
O136 C133 1.252 . S
O137 In130 2.326 . S
O137 C133 1.260 . S
O138 In130 2.266 . S
O138 C135 1.252 . S
O139 In130 2.326 . S
O139 C135 1.260 . S
C140 O131 1.240 . S
C140 O132 1.252 . S
O141 In130 2.294 . S
O141 C134 1.240 . S
O142 In130 2.326 . S
O142 C134 1.252 . S
In143 O144 2.294 . S
In143 O145 2.326 . S
In143 O149 2.266 . S
In143 O150 2.326 . S
In143 O151 2.266 . S
In143 O152 2.326 . S
In143 O154 2.294 . S
In143 O155 2.326 . S
O144 In143 2.294 . S
O144 C153 1.240 . S
O145 In143 2.326 . S
O145 C153 1.252 . S
C146 O149 1.252 . S
C146 O150 1.260 . S
C147 O154 1.240 . S
C147 O155 1.252 . S
C148 O151 1.252 . S
C148 O152 1.260 . S
O149 In143 2.266 . S
O149 C146 1.252 . S
O150 In143 2.326 . S
O150 C146 1.260 . S
O151 In143 2.266 . S
O151 C148 1.252 . S
O152 In143 2.326 . S
O152 C148 1.260 . S
C153 O144 1.240 . S
C153 O145 1.252 . S
O154 In143 2.294 . S
O154 C147 1.240 . S
O155 In143 2.326 . S
O155 C147 1.252 . S
In156 O157 2.294 . S
In156 O158 2.326 . S
In156 O162 2.266 . S
In156 O163 2.326 . S
In156 O164 2.266 . S
In156 O165 2.326 . S
In156 O167 2.294 . S
In156 O168 2.326 . S
O157 In156 2.294 . S
O157 C166 1.240 . S
O158 In156 2.326 . S
O158 C166 1.252 . S
C159 O162 1.252 . S
C159 O163 1.260 . S
C160 O167 1.240 . S
C160 O168 1.252 . S
C161 O164 1.252 . S
C161 O165 1.260 . S
O162 In156 2.266 . S
O162 C159 1.252 . S
O163 In156 2.326 . S
O163 C159 1.260 . S
O164 In156 2.266 . S
O164 C161 1.252 . S
O165 In156 2.326 . S
O165 C161 1.260 . S
C166 O157 1.240 . S
C166 O158 1.252 . S
O167 In156 2.294 . S
O167 C160 1.240 . S
O168 In156 2.326 . S
O168 C160 1.252 . S
In169 O170 2.294 . S
In169 O171 2.326 . S
In169 O175 2.266 . S
In169 O176 2.326 . S
In169 O177 2.266 . S
In169 O178 2.326 . S
In169 O180 2.294 . S
In169 O181 2.326 . S
O170 In169 2.294 . S
O170 C179 1.240 . S
O171 In169 2.326 . S
O171 C179 1.252 . S
C172 O175 1.252 . S
C172 O176 1.260 . S
C173 O180 1.240 . S
C173 O181 1.252 . S
C174 O177 1.252 . S
C174 O178 1.260 . S
O175 In169 2.266 . S
O175 C172 1.252 . S
O176 In169 2.326 . S
O176 C172 1.260 . S
O177 In169 2.266 . S
O177 C174 1.252 . S
O178 In169 2.326 . S
O178 C174 1.260 . S
C179 O170 1.240 . S
C179 O171 1.252 . S
O180 In169 2.294 . S
O180 C173 1.240 . S
O181 In169 2.326 . S
O181 C173 1.252 . S
In182 O183 2.294 . S
In182 O184 2.326 . S
In182 O188 2.266 . S
In182 O189 2.326 . S
In182 O190 2.266 . S
In182 O191 2.326 . S
In182 O193 2.294 . S
In182 O194 2.326 . S
O183 In182 2.294 . S
O183 C192 1.240 . S
O184 In182 2.326 . S
O184 C192 1.252 . S
C185 O188 1.252 . S
C185 O189 1.260 . S
C186 O193 1.240 . S
C186 O194 1.252 . S
C187 O190 1.252 . S
C187 O191 1.260 . S
O188 In182 2.266 . S
O188 C185 1.252 . S
O189 In182 2.326 . S
O189 C185 1.260 . S
O190 In182 2.266 . S
O190 C187 1.252 . S
O191 In182 2.326 . S
O191 C187 1.260 . S
C192 O183 1.240 . S
C192 O184 1.252 . S
O193 In182 2.294 . S
O193 C186 1.240 . S
O194 In182 2.326 . S
O194 C186 1.252 . S
In195 O196 2.294 . S
In195 O197 2.326 . S
In195 O201 2.266 . S
In195 O202 2.326 . S
In195 O203 2.266 . S
In195 O204 2.326 . S
In195 O206 2.294 . S
In195 O207 2.326 . S
O196 In195 2.294 . S
O196 C205 1.240 . S
O197 In195 2.326 . S
O197 C205 1.252 . S
C198 O201 1.252 . S
C198 O202 1.260 . S
C199 O206 1.240 . S
C199 O207 1.252 . S
C200 O203 1.252 . S
C200 O204 1.260 . S
O201 In195 2.266 . S
O201 C198 1.252 . S
O202 In195 2.326 . S
O202 C198 1.260 . S
O203 In195 2.266 . S
O203 C200 1.252 . S
O204 In195 2.326 . S
O204 C200 1.260 . S
C205 O196 1.240 . S
C205 O197 1.252 . S
O206 In195 2.294 . S
O206 C199 1.240 . S
O207 In195 2.326 . S
O207 C199 1.252 . S
H208 C214 0.930 . S
H209 C217 0.930 . S
H210 C218 0.930 . S
H211 C219 0.930 . S
H212 C222 0.930 . S
H213 C223 0.930 . S
C214 H208 0.930 . S
C214 C215 1.355 . S
C214 C216 1.415 . S
C215 C214 1.355 . S
C215 C217 1.419 . S
C216 C214 1.415 . S
C216 C221 1.425 . S
C216 C223 1.409 . S
C217 H209 0.930 . S
C217 C215 1.419 . S
C217 C218 1.362 . S
C218 H210 0.930 . S
C218 C217 1.362 . S
C218 C221 1.409 . S
C219 H211 0.930 . S
C219 C220 1.355 . S
C219 C221 1.415 . S
C220 C219 1.355 . S
C220 C222 1.419 . S
C221 C216 1.425 . S
C221 C218 1.409 . S
C221 C219 1.415 . S
C222 H212 0.930 . S
C222 C220 1.419 . S
C222 C223 1.362 . S
C223 H213 0.930 . S
C223 C216 1.409 . S
C223 C222 1.362 . S
H224 C230 0.930 . S
H225 C233 0.930 . S
H226 C234 0.930 . S
H227 C235 0.930 . S
H228 C238 0.930 . S
H229 C239 0.930 . S
C230 H224 0.930 . S
C230 C231 1.355 . S
C230 C232 1.415 . S
C231 C230 1.355 . S
C231 C233 1.419 . S
C232 C230 1.415 . S
C232 C237 1.425 . S
C232 C239 1.409 . S
C233 H225 0.930 . S
C233 C231 1.419 . S
C233 C234 1.362 . S
C234 H226 0.930 . S
C234 C233 1.362 . S
C234 C237 1.409 . S
C235 H227 0.930 . S
C235 C236 1.355 . S
C235 C237 1.415 . S
C236 C235 1.355 . S
C236 C238 1.419 . S
C237 C232 1.425 . S
C237 C234 1.409 . S
C237 C235 1.415 . S
C238 H228 0.930 . S
C238 C236 1.419 . S
C238 C239 1.362 . S
C239 H229 0.930 . S
C239 C232 1.409 . S
C239 C238 1.362 . S
H240 C246 0.930 . S
H241 C249 0.930 . S
H242 C250 0.930 . S
H243 C251 0.930 . S
H244 C254 0.930 . S
H245 C255 0.930 . S
C246 H240 0.930 . S
C246 C247 1.355 . S
C246 C248 1.415 . S
C247 C246 1.355 . S
C247 C249 1.419 . S
C248 C246 1.415 . S
C248 C253 1.425 . S
C248 C255 1.409 . S
C249 H241 0.930 . S
C249 C247 1.419 . S
C249 C250 1.362 . S
C250 H242 0.930 . S
C250 C249 1.362 . S
C250 C253 1.409 . S
C251 H243 0.930 . S
C251 C252 1.355 . S
C251 C253 1.415 . S
C252 C251 1.355 . S
C252 C254 1.419 . S
C253 C248 1.425 . S
C253 C250 1.409 . S
C253 C251 1.415 . S
C254 H244 0.930 . S
C254 C252 1.419 . S
C254 C255 1.362 . S
C255 H245 0.930 . S
C255 C248 1.409 . S
C255 C254 1.362 . S
H256 C262 0.930 . S
H257 C265 0.930 . S
H258 C266 0.930 . S
H259 C267 0.930 . S
H260 C270 0.930 . S
H261 C271 0.930 . S
C262 H256 0.930 . S
C262 C263 1.355 . S
C262 C264 1.415 . S
C263 C262 1.355 . S
C263 C265 1.419 . S
C264 C262 1.415 . S
C264 C269 1.425 . S
C264 C271 1.409 . S
C265 H257 0.930 . S
C265 C263 1.419 . S
C265 C266 1.362 . S
C266 H258 0.930 . S
C266 C265 1.362 . S
C266 C269 1.409 . S
C267 H259 0.930 . S
C267 C268 1.355 . S
C267 C269 1.415 . S
C268 C267 1.355 . S
C268 C270 1.419 . S
C269 C264 1.425 . S
C269 C266 1.409 . S
C269 C267 1.415 . S
C270 H260 0.930 . S
C270 C268 1.419 . S
C270 C271 1.362 . S
C271 H261 0.930 . S
C271 C264 1.409 . S
C271 C270 1.362 . S
H272 C278 0.930 . S
H273 C281 0.930 . S
H274 C282 0.930 . S
H275 C283 0.930 . S
H276 C286 0.930 . S
H277 C287 0.930 . S
C278 H272 0.930 . S
C278 C279 1.355 . S
C278 C280 1.415 . S
C279 C278 1.355 . S
C279 C281 1.419 . S
C280 C278 1.415 . S
C280 C285 1.425 . S
C280 C287 1.409 . S
C281 H273 0.930 . S
C281 C279 1.419 . S
C281 C282 1.362 . S
C282 H274 0.930 . S
C282 C281 1.362 . S
C282 C285 1.409 . S
C283 H275 0.930 . S
C283 C284 1.355 . S
C283 C285 1.415 . S
C284 C283 1.355 . S
C284 C286 1.419 . S
C285 C280 1.425 . S
C285 C282 1.409 . S
C285 C283 1.415 . S
C286 H276 0.930 . S
C286 C284 1.419 . S
C286 C287 1.362 . S
C287 H277 0.930 . S
C287 C280 1.409 . S
C287 C286 1.362 . S
H288 C294 0.930 . S
H289 C297 0.930 . S
H290 C298 0.930 . S
H291 C299 0.930 . S
H292 C302 0.930 . S
H293 C303 0.930 . S
C294 H288 0.930 . S
C294 C295 1.355 . S
C294 C296 1.415 . S
C295 C294 1.355 . S
C295 C297 1.419 . S
C296 C294 1.415 . S
C296 C301 1.425 . S
C296 C303 1.409 . S
C297 H289 0.930 . S
C297 C295 1.419 . S
C297 C298 1.362 . S
C298 H290 0.930 . S
C298 C297 1.362 . S
C298 C301 1.409 . S
C299 H291 0.930 . S
C299 C300 1.355 . S
C299 C301 1.415 . S
C300 C299 1.355 . S
C300 C302 1.419 . S
C301 C296 1.425 . S
C301 C298 1.409 . S
C301 C299 1.415 . S
C302 H292 0.930 . S
C302 C300 1.419 . S
C302 C303 1.362 . S
C303 H293 0.930 . S
C303 C296 1.409 . S
C303 C302 1.362 . S
H304 C310 0.930 . S
H305 C313 0.930 . S
H306 C314 0.930 . S
H307 C315 0.930 . S
H308 C318 0.930 . S
H309 C319 0.930 . S
C310 H304 0.930 . S
C310 C311 1.355 . S
C310 C312 1.415 . S
C311 C310 1.355 . S
C311 C313 1.419 . S
C312 C310 1.415 . S
C312 C317 1.425 . S
C312 C319 1.409 . S
C313 H305 0.930 . S
C313 C311 1.419 . S
C313 C314 1.362 . S
C314 H306 0.930 . S
C314 C313 1.362 . S
C314 C317 1.409 . S
C315 H307 0.930 . S
C315 C316 1.355 . S
C315 C317 1.415 . S
C316 C315 1.355 . S
C316 C318 1.419 . S
C317 C312 1.425 . S
C317 C314 1.409 . S
C317 C315 1.415 . S
C318 H308 0.930 . S
C318 C316 1.419 . S
C318 C319 1.362 . S
C319 H309 0.930 . S
C319 C312 1.409 . S
C319 C318 1.362 . S
H320 C326 0.930 . S
H321 C329 0.930 . S
H322 C330 0.930 . S
H323 C331 0.930 . S
H324 C334 0.930 . S
H325 C335 0.930 . S
C326 H320 0.930 . S
C326 C327 1.355 . S
C326 C328 1.415 . S
C327 C326 1.355 . S
C327 C329 1.419 . S
C328 C326 1.415 . S
C328 C333 1.425 . S
C328 C335 1.409 . S
C329 H321 0.930 . S
C329 C327 1.419 . S
C329 C330 1.362 . S
C330 H322 0.930 . S
C330 C329 1.362 . S
C330 C333 1.409 . S
C331 H323 0.930 . S
C331 C332 1.355 . S
C331 C333 1.415 . S
C332 C331 1.355 . S
C332 C334 1.419 . S
C333 C328 1.425 . S
C333 C330 1.409 . S
C333 C331 1.415 . S
C334 H324 0.930 . S
C334 C332 1.419 . S
C334 C335 1.362 . S
C335 H325 0.930 . S
C335 C328 1.409 . S
C335 C334 1.362 . S
H336 C342 0.930 . S
H337 C345 0.930 . S
H338 C346 0.930 . S
H339 C347 0.930 . S
H340 C350 0.930 . S
H341 C351 0.930 . S
C342 H336 0.930 . S
C342 C343 1.355 . S
C342 C344 1.415 1_655 S
C343 C342 1.355 . S
C343 C345 1.419 . S
C344 C342 1.415 1_455 S
C344 C349 1.425 . S
C344 C351 1.409 . S
C345 H337 0.930 . S
C345 C343 1.419 . S
C345 C346 1.362 . S
C346 H338 0.930 . S
C346 C345 1.362 . S
C346 C349 1.409 1_655 S
C347 H339 0.930 . S
C347 C348 1.355 . S
C347 C349 1.415 . S
C348 C347 1.355 . S
C348 C350 1.419 . S
C349 C344 1.425 . S
C349 C346 1.409 1_455 S
C349 C347 1.415 . S
C350 H340 0.930 . S
C350 C348 1.419 . S
C350 C351 1.362 . S
C351 H341 0.930 . S
C351 C344 1.409 . S
C351 C350 1.362 . S
H352 C358 0.930 . S
H353 C361 0.930 . S
H354 C362 0.930 . S
H355 C363 0.930 1_655 S
H356 C366 0.930 . S
H357 C367 0.930 . S
C358 H352 0.930 . S
C358 C359 1.355 1_455 S
C358 C360 1.415 . S
C359 C358 1.355 1_655 S
C359 C361 1.419 . S
C360 C358 1.415 . S
C360 C365 1.425 1_455 S
C360 C367 1.409 1_545 S
C361 H353 0.930 . S
C361 C359 1.419 . S
C361 C362 1.362 . S
C362 H354 0.930 . S
C362 C361 1.362 . S
C362 C365 1.409 . S
C363 H355 0.930 1_455 S
C363 C364 1.355 . S
C363 C365 1.415 1_465 S
C364 C363 1.355 . S
C364 C366 1.419 . S
C365 C360 1.425 1_655 S
C365 C362 1.409 . S
C365 C363 1.415 1_645 S
C366 H356 0.930 . S
C366 C364 1.419 . S
C366 C367 1.362 . S
C367 H357 0.930 . S
C367 C360 1.409 1_565 S
C367 C366 1.362 . S
H368 C374 0.930 . S
H369 C377 0.930 . S
H370 C378 0.930 . S
H371 C379 0.930 . S
H372 C382 0.930 . S
H373 C383 0.930 . S
C374 H368 0.930 . S
C374 C375 1.355 . S
C374 C376 1.415 . S
C375 C374 1.355 . S
C375 C377 1.419 . S
C376 C374 1.415 . S
C376 C381 1.425 1_545 S
C376 C383 1.409 . S
C377 H369 0.930 . S
C377 C375 1.419 . S
C377 C378 1.362 1_545 S
C378 H370 0.930 . S
C378 C377 1.362 1_565 S
C378 C381 1.409 . S
C379 H371 0.930 . S
C379 C380 1.355 . S
C379 C381 1.415 . S
C380 C379 1.355 . S
C380 C382 1.419 . S
C381 C376 1.425 1_565 S
C381 C378 1.409 . S
C381 C379 1.415 . S
C382 H372 0.930 . S
C382 C380 1.419 . S
C382 C383 1.362 1_565 S
C383 H373 0.930 . S
C383 C376 1.409 . S
C383 C382 1.362 1_545 S
H384 C390 0.930 . S
H385 C393 0.930 . S
H386 C394 0.930 . S
H387 C395 0.930 . S
H388 C398 0.930 . S
H389 C399 0.930 . S
C390 H384 0.930 . S
C390 C391 1.355 . S
C390 C392 1.415 . S
C391 C390 1.355 . S
C391 C393 1.419 . S
C392 C390 1.415 . S
C392 C397 1.425 . S
C392 C399 1.409 . S
C393 H385 0.930 . S
C393 C391 1.419 . S
C393 C394 1.362 . S
C394 H386 0.930 . S
C394 C393 1.362 . S
C394 C397 1.409 . S
C395 H387 0.930 . S
C395 C396 1.355 . S
C395 C397 1.415 . S
C396 C395 1.355 . S
C396 C398 1.419 . S
C397 C392 1.425 . S
C397 C394 1.409 . S
C397 C395 1.415 . S
C398 H388 0.930 . S
C398 C396 1.419 . S
C398 C399 1.362 . S
C399 H389 0.930 . S
C399 C392 1.409 . S
C399 C398 1.362 . S
H400 C406 0.930 . S
H401 C409 0.930 . S
H402 C410 0.930 . S
H403 C411 0.930 . S
H404 C414 0.930 1_455 S
H405 C415 0.930 . S
C406 H400 0.930 . S
C406 C407 1.355 . S
C406 C408 1.415 . S
C407 C406 1.355 . S
C407 C409 1.419 1_455 S
C408 C406 1.415 . S
C408 C413 1.425 1_455 S
C408 C415 1.409 . S
C409 H401 0.930 . S
C409 C407 1.419 1_655 S
C409 C410 1.362 . S
C410 H402 0.930 . S
C410 C409 1.362 . S
C410 C413 1.409 . S
C411 H403 0.930 . S
C411 C412 1.355 . S
C411 C413 1.415 . S
C412 C411 1.355 . S
C412 C414 1.419 . S
C413 C408 1.425 1_655 S
C413 C410 1.409 . S
C413 C411 1.415 . S
C414 H404 0.930 1_655 S
C414 C412 1.419 . S
C414 C415 1.362 1_655 S
C415 H405 0.930 . S
C415 C408 1.409 . S
C415 C414 1.362 1_455 S
H416 C422 0.930 . S
H417 C425 0.930 . S
H418 C426 0.930 . S
H419 C427 0.930 1_455 S
H420 C430 0.928 1_565 S
H421 C431 0.930 . S
C422 H416 0.930 . S
C422 C423 1.355 1_655 S
C422 C424 1.415 . S
C423 C422 1.355 1_455 S
C423 C425 1.419 . S
C424 C422 1.415 . S
C424 C429 1.425 1_665 S
C424 C431 1.409 . S
C425 H417 0.930 . S
C425 C423 1.419 . S
C425 C426 1.362 1_565 S
C426 H418 0.930 . S
C426 C425 1.362 1_545 S
C426 C429 1.409 . S
C427 H419 0.930 1_655 S
C427 C428 1.355 . S
C427 C429 1.415 1_655 S
C428 C427 1.355 . S
C428 C430 1.431 . S
C429 C424 1.425 1_445 S
C429 C426 1.409 . S
C429 C427 1.415 1_455 S
C430 H420 0.928 1_545 S
C430 C428 1.431 . S
C430 C431 1.352 1_545 S
C431 H421 0.930 . S
C431 C424 1.409 . S
C431 C430 1.352 1_565 S
H432 C438 0.930 . S
H433 C441 0.930 . S
H434 C442 0.930 . S
H435 C443 0.930 . S
H436 C446 0.930 . S
H437 C447 0.930 . S
C438 H432 0.930 . S
C438 C439 1.355 . S
C438 C440 1.415 . S
C439 C438 1.355 . S
C439 C441 1.419 1_545 S
C440 C438 1.415 . S
C440 C445 1.425 1_545 S
C440 C447 1.409 . S
C441 H433 0.930 . S
C441 C439 1.419 1_565 S
C441 C442 1.362 . S
C442 H434 0.930 . S
C442 C441 1.362 . S
C442 C445 1.409 . S
C443 H435 0.930 . S
C443 C444 1.355 . S
C443 C445 1.415 . S
C444 C443 1.355 . S
C444 C446 1.419 1_565 S
C445 C440 1.425 1_565 S
C445 C442 1.409 . S
C445 C443 1.415 . S
C446 H436 0.930 . S
C446 C444 1.419 1_545 S
C446 C447 1.362 . S
C447 H437 0.930 . S
C447 C440 1.409 . S
C447 C446 1.362 . S
H448 C454 0.930 . S
H449 C457 0.930 . S
H450 C458 0.930 . S
H451 C459 0.930 . S
H452 C462 0.930 . S
H453 C463 0.930 . S
C454 H448 0.930 . S
C454 C455 1.355 . S
C454 C456 1.415 . S
C455 C454 1.355 . S
C455 C457 1.419 . S
C456 C454 1.415 . S
C456 C461 1.425 . S
C456 C463 1.409 . S
C457 H449 0.930 . S
C457 C455 1.419 . S
C457 C458 1.362 . S
C458 H450 0.930 . S
C458 C457 1.362 . S
C458 C461 1.409 . S
C459 H451 0.930 . S
C459 C460 1.355 . S
C459 C461 1.415 . S
C460 C459 1.355 . S
C460 C462 1.419 . S
C461 C456 1.425 . S
C461 C458 1.409 . S
C461 C459 1.415 . S
C462 H452 0.930 . S
C462 C460 1.419 . S
C462 C463 1.362 . S
C463 H453 0.930 . S
C463 C456 1.409 . S
C463 C462 1.362 . S
H464 C470 0.930 . S
H465 C473 0.930 . S
H466 C474 0.930 . S
H467 C475 0.930 . S
H468 C478 0.930 . S
H469 C479 0.930 . S
C470 H464 0.930 . S
C470 C471 1.355 . S
C470 C472 1.415 . S
C471 C470 1.355 . S
C471 C473 1.419 . S
C472 C470 1.415 . S
C472 C477 1.425 . S
C472 C479 1.409 . S
C473 H465 0.930 . S
C473 C471 1.419 . S
C473 C474 1.362 . S
C474 H466 0.930 . S
C474 C473 1.362 . S
C474 C477 1.409 . S
C475 H467 0.930 . S
C475 C476 1.355 . S
C475 C477 1.415 . S
C476 C475 1.355 . S
C476 C478 1.419 . S
C477 C472 1.425 . S
C477 C474 1.409 . S
C477 C475 1.415 . S
C478 H468 0.930 . S
C478 C476 1.419 . S
C478 C479 1.362 . S
C479 H469 0.930 . S
C479 C472 1.409 . S
C479 C478 1.362 . S
H480 C486 0.930 . S
H481 C489 0.930 . S
H482 C490 0.930 . S
H483 C491 0.930 . S
H484 C494 0.930 . S
H485 C495 0.930 . S
C486 H480 0.930 . S
C486 C487 1.355 . S
C486 C488 1.415 . S
C487 C486 1.355 . S
C487 C489 1.419 . S
C488 C486 1.415 . S
C488 C493 1.425 . S
C488 C495 1.409 . S
C489 H481 0.930 . S
C489 C487 1.419 . S
C489 C490 1.362 . S
C490 H482 0.930 . S
C490 C489 1.362 . S
C490 C493 1.409 . S
C491 H483 0.930 . S
C491 C492 1.355 . S
C491 C493 1.415 . S
C492 C491 1.355 . S
C492 C494 1.419 . S
C493 C488 1.425 . S
C493 C490 1.409 . S
C493 C491 1.415 . S
C494 H484 0.930 . S
C494 C492 1.419 . S
C494 C495 1.362 . S
C495 H485 0.930 . S
C495 C488 1.409 . S
C495 C494 1.362 . S
H496 C502 0.930 . S
H497 C505 0.930 . S
H498 C506 0.930 . S
H499 C507 0.930 . S
H500 C510 0.930 . S
H501 C511 0.930 . S
C502 H496 0.930 . S
C502 C503 1.355 . S
C502 C504 1.415 . S
C503 C502 1.355 . S
C503 C505 1.419 . S
C504 C502 1.415 . S
C504 C509 1.425 . S
C504 C511 1.409 . S
C505 H497 0.930 . S
C505 C503 1.419 . S
C505 C506 1.362 . S
C506 H498 0.930 . S
C506 C505 1.362 . S
C506 C509 1.409 . S
C507 H499 0.930 . S
C507 C508 1.355 . S
C507 C509 1.415 . S
C508 C507 1.355 . S
C508 C510 1.419 . S
C509 C504 1.425 . S
C509 C506 1.409 . S
C509 C507 1.415 . S
C510 H500 0.930 . S
C510 C508 1.419 . S
C510 C511 1.362 . S
C511 H501 0.930 . S
C511 C504 1.409 . S
C511 C510 1.362 . S
H512 C518 0.930 . S
H513 C521 0.930 . S
H514 C522 0.930 . S
H515 C523 0.930 . S
H516 C526 0.930 . S
H517 C527 0.930 . S
C518 H512 0.930 . S
C518 C519 1.355 . S
C518 C520 1.415 . S
C519 C518 1.355 . S
C519 C521 1.419 . S
C520 C518 1.415 . S
C520 C525 1.425 . S
C520 C527 1.409 . S
C521 H513 0.930 . S
C521 C519 1.419 . S
C521 C522 1.362 . S
C522 H514 0.930 . S
C522 C521 1.362 . S
C522 C525 1.409 . S
C523 H515 0.930 . S
C523 C524 1.355 . S
C523 C525 1.415 . S
C524 C523 1.355 . S
C524 C526 1.419 . S
C525 C520 1.425 . S
C525 C522 1.409 . S
C525 C523 1.415 . S
C526 H516 0.930 . S
C526 C524 1.419 . S
C526 C527 1.362 . S
C527 H517 0.930 . S
C527 C520 1.409 . S
C527 C526 1.362 . S
H528 C534 0.930 . S
H529 C537 0.930 . S
H530 C538 0.930 . S
H531 C539 0.930 . S
H532 C542 0.930 . S
H533 C543 0.930 . S
C534 H528 0.930 . S
C534 C535 1.355 . S
C534 C536 1.415 . S
C535 C534 1.355 . S
C535 C537 1.419 . S
C536 C534 1.415 . S
C536 C541 1.425 . S
C536 C543 1.409 . S
C537 H529 0.930 . S
C537 C535 1.419 . S
C537 C538 1.362 . S
C538 H530 0.930 . S
C538 C537 1.362 . S
C538 C541 1.409 . S
C539 H531 0.930 . S
C539 C540 1.355 . S
C539 C541 1.415 . S
C540 C539 1.355 . S
C540 C542 1.419 . S
C541 C536 1.425 . S
C541 C538 1.409 . S
C541 C539 1.415 . S
C542 H532 0.930 . S
C542 C540 1.419 . S
C542 C543 1.362 . S
C543 H533 0.930 . S
C543 C536 1.409 . S
C543 C542 1.362 . S
H544 C550 0.930 . S
H545 C553 0.930 . S
H546 C554 0.930 . S
H547 C555 0.930 . S
H548 C558 0.930 . S
H549 C559 0.930 . S
C550 H544 0.930 . S
C550 C551 1.355 . S
C550 C552 1.415 . S
C551 C550 1.355 . S
C551 C553 1.419 . S
C552 C550 1.415 . S
C552 C557 1.425 . S
C552 C559 1.409 . S
C553 H545 0.930 . S
C553 C551 1.419 . S
C553 C554 1.362 . S
C554 H546 0.930 . S
C554 C553 1.362 . S
C554 C557 1.409 . S
C555 H547 0.930 . S
C555 C556 1.355 . S
C555 C557 1.415 . S
C556 C555 1.355 . S
C556 C558 1.419 . S
C557 C552 1.425 . S
C557 C554 1.409 . S
C557 C555 1.415 . S
C558 H548 0.930 . S
C558 C556 1.419 . S
C558 C559 1.362 . S
C559 H549 0.930 . S
C559 C552 1.409 . S
C559 C558 1.362 . S
H560 C566 0.930 . S
H561 C569 0.930 . S
H562 C570 0.930 . S
H563 C571 0.930 . S
H564 C574 0.930 . S
H565 C575 0.930 . S
C566 H560 0.930 . S
C566 C567 1.355 . S
C566 C568 1.415 . S
C567 C566 1.355 . S
C567 C569 1.419 . S
C568 C566 1.415 . S
C568 C573 1.425 . S
C568 C575 1.409 . S
C569 H561 0.930 . S
C569 C567 1.419 . S
C569 C570 1.362 . S
C570 H562 0.930 . S
C570 C569 1.362 . S
C570 C573 1.409 . S
C571 H563 0.930 . S
C571 C572 1.355 . S
C571 C573 1.415 . S
C572 C571 1.355 . S
C572 C574 1.419 . S
C573 C568 1.425 . S
C573 C570 1.409 . S
C573 C571 1.415 . S
C574 H564 0.930 . S
C574 C572 1.419 . S
C574 C575 1.362 . S
C575 H565 0.930 . S
C575 C568 1.409 . S
C575 C574 1.362 . S
H576 C582 0.930 . S
H577 C585 0.930 . S
H578 C586 0.930 . S
H579 C587 0.930 . S
H580 C590 0.930 . S
H581 C591 0.930 . S
C582 H576 0.930 . S
C582 C583 1.355 . S
C582 C584 1.415 . S
C583 C582 1.355 . S
C583 C585 1.419 . S
C584 C582 1.415 . S
C584 C589 1.425 . S
C584 C591 1.409 . S
C585 H577 0.930 . S
C585 C583 1.419 . S
C585 C586 1.362 . S
C586 H578 0.930 . S
C586 C585 1.362 . S
C586 C589 1.409 . S
C587 H579 0.930 . S
C587 C588 1.355 . S
C587 C589 1.415 . S
C588 C587 1.355 . S
C588 C590 1.419 . S
C589 C584 1.425 . S
C589 C586 1.409 . S
C589 C587 1.415 . S
C590 H580 0.930 . S
C590 C588 1.419 . S
C590 C591 1.362 . S
C591 H581 0.930 . S
C591 C584 1.409 . S
C591 C590 1.362 . S
H592 C598 0.930 . S
H593 C601 0.930 . S
H594 C602 0.930 . S
H595 C603 0.930 . S
H596 C606 0.930 . S
H597 C607 0.930 . S
C598 H592 0.930 . S
C598 C599 1.355 . S
C598 C600 1.415 1_454 S
C599 C598 1.355 . S
C599 C601 1.419 . S
C600 C598 1.415 1_656 S
C600 C605 1.425 1_656 S
C600 C607 1.409 . S
C601 H593 0.930 . S
C601 C599 1.419 . S
C601 C602 1.362 . S
C602 H594 0.930 . S
C602 C601 1.362 . S
C602 C605 1.409 . S
C603 H595 0.930 . S
C603 C604 1.355 . S
C603 C605 1.415 1_656 S
C604 C603 1.355 . S
C604 C606 1.419 . S
C605 C600 1.425 1_454 S
C605 C602 1.409 . S
C605 C603 1.415 1_454 S
C606 H596 0.930 . S
C606 C604 1.419 . S
C606 C607 1.362 . S
C607 H597 0.930 . S
C607 C600 1.409 . S
C607 C606 1.362 . S
H608 C614 0.930 1_554 S
H609 C617 0.930 . S
H610 C618 0.930 . S
H611 C619 0.930 1_556 S
H612 C622 0.930 . S
H613 C623 0.930 . S
C614 H608 0.930 1_556 S
C614 C615 1.355 . S
C614 C616 1.415 1_556 S
C615 C614 1.355 . S
C615 C617 1.419 1_565 S
C616 C614 1.415 1_554 S
C616 C621 1.425 1_464 S
C616 C623 1.409 1_455 S
C617 H609 0.930 . S
C617 C615 1.419 1_545 S
C617 C618 1.362 . S
C618 H610 0.930 . S
C618 C617 1.362 . S
C618 C621 1.409 1_455 S
C619 H611 0.930 1_554 S
C619 C620 1.355 . S
C619 C621 1.415 1_554 S
C620 C619 1.355 . S
C620 C622 1.419 1_545 S
C621 C616 1.425 1_646 S
C621 C618 1.409 1_655 S
C621 C619 1.415 1_556 S
C622 H612 0.930 . S
C622 C620 1.419 1_565 S
C622 C623 1.362 . S
C623 H613 0.930 . S
C623 C616 1.409 1_655 S
C623 C622 1.362 . S
H624 C630 0.930 . S
H625 C633 0.930 . S
H626 C634 0.930 1_556 S
H627 C635 0.930 . S
H628 C638 0.930 . S
H629 C639 0.930 1_554 S
C630 H624 0.930 . S
C630 C631 1.355 . S
C630 C632 1.415 1_565 S
C631 C630 1.355 . S
C631 C633 1.419 . S
C632 C630 1.415 1_545 S
C632 C637 1.425 1_544 S
C632 C639 1.409 1_554 S
C633 H625 0.930 . S
C633 C631 1.419 . S
C633 C634 1.362 . S
C634 H626 0.930 1_554 S
C634 C633 1.362 . S
C634 C637 1.409 1_554 S
C635 H627 0.930 . S
C635 C636 1.355 . S
C635 C637 1.415 1_545 S
C636 C635 1.355 . S
C636 C638 1.419 . S
C637 C632 1.425 1_566 S
C637 C634 1.409 1_556 S
C637 C635 1.415 1_565 S
C638 H628 0.930 . S
C638 C636 1.419 . S
C638 C639 1.362 . S
C639 H629 0.930 1_556 S
C639 C632 1.409 1_556 S
C639 C638 1.362 . S
H640 C646 0.930 . S
H641 C649 0.930 . S
H642 C650 0.930 . S
H643 C651 0.930 . S
H644 C654 0.930 . S
H645 C655 0.930 . S
C646 H640 0.930 . S
C646 C647 1.355 . S
C646 C648 1.415 1_556 S
C647 C646 1.355 . S
C647 C649 1.419 . S
C648 C646 1.415 1_554 S
C648 C653 1.425 1_554 S
C648 C655 1.409 . S
C649 H641 0.930 . S
C649 C647 1.419 . S
C649 C650 1.362 . S
C650 H642 0.930 . S
C650 C649 1.362 . S
C650 C653 1.409 . S
C651 H643 0.930 . S
C651 C652 1.355 . S
C651 C653 1.415 1_554 S
C652 C651 1.355 . S
C652 C654 1.419 . S
C653 C648 1.425 1_556 S
C653 C650 1.409 . S
C653 C651 1.415 1_556 S
C654 H644 0.930 . S
C654 C652 1.419 . S
C654 C655 1.362 . S
C655 H645 0.930 . S
C655 C648 1.409 . S
C655 C654 1.362 . S
H656 C662 0.930 . S
H657 C665 0.930 . S
H658 C666 0.930 . S
H659 C667 0.930 . S
H660 C670 0.930 . S
H661 C671 0.930 . S
C662 H656 0.930 . S
C662 C663 1.355 . S
C662 C664 1.415 1_565 S
C663 C662 1.355 . S
C663 C665 1.419 1_455 S
C664 C662 1.415 1_545 S
C664 C669 1.425 1_445 S
C664 C671 1.409 . S
C665 H657 0.930 . S
C665 C663 1.419 1_655 S
C665 C666 1.362 . S
C666 H658 0.930 . S
C666 C665 1.362 . S
C666 C669 1.409 . S
C667 H659 0.930 . S
C667 C668 1.355 . S
C667 C669 1.415 1_545 S
C668 C667 1.355 . S
C668 C670 1.419 1_655 S
C669 C664 1.425 1_665 S
C669 C666 1.409 . S
C669 C667 1.415 1_565 S
C670 H660 0.930 . S
C670 C668 1.419 1_455 S
C670 C671 1.362 . S
C671 H661 0.930 . S
C671 C664 1.409 . S
C671 C670 1.362 . S
H672 C678 0.930 . S
H673 C681 0.930 . S
H674 C682 0.930 . S
H675 C683 0.930 . S
H676 C686 0.930 . S
H677 C687 0.930 . S
C678 H672 0.930 . S
C678 C679 1.355 . S
C678 C680 1.415 . S
C679 C678 1.355 . S
C679 C681 1.419 . S
C680 C678 1.415 . S
C680 C685 1.425 1_545 S
C680 C687 1.409 1_545 S
C681 H673 0.930 . S
C681 C679 1.419 . S
C681 C682 1.362 . S
C682 H674 0.930 . S
C682 C681 1.362 . S
C682 C685 1.409 1_545 S
C683 H675 0.930 . S
C683 C684 1.355 . S
C683 C685 1.415 . S
C684 C683 1.355 . S
C684 C686 1.419 . S
C685 C680 1.425 1_565 S
C685 C682 1.409 1_565 S
C685 C683 1.415 . S
C686 H676 0.930 . S
C686 C684 1.419 . S
C686 C687 1.362 . S
C687 H677 0.930 . S
C687 C680 1.409 1_565 S
C687 C686 1.362 . S
H688 C694 0.930 . S
H689 C697 0.930 . S
H690 C698 0.930 . S
H691 C699 0.930 . S
H692 C702 0.930 . S
H693 C703 0.930 . S
C694 H688 0.930 . S
C694 C695 1.355 . S
C694 C696 1.415 . S
C695 C694 1.355 . S
C695 C697 1.419 . S
C696 C694 1.415 . S
C696 C701 1.425 . S
C696 C703 1.409 . S
C697 H689 0.930 . S
C697 C695 1.419 . S
C697 C698 1.362 . S
C698 H690 0.930 . S
C698 C697 1.362 . S
C698 C701 1.409 . S
C699 H691 0.930 . S
C699 C700 1.355 . S
C699 C701 1.415 . S
C700 C699 1.355 . S
C700 C702 1.419 . S
C701 C696 1.425 . S
C701 C698 1.409 . S
C701 C699 1.415 . S
C702 H692 0.930 . S
C702 C700 1.419 . S
C702 C703 1.362 . S
C703 H693 0.930 . S
C703 C696 1.409 . S
C703 C702 1.362 . S
H704 C710 0.930 . S
H705 C713 0.930 . S
H706 C714 0.930 . S
H707 C715 0.930 . S
H708 C718 0.930 . S
H709 C719 0.930 . S
C710 H704 0.930 . S
C710 C711 1.355 . S
C710 C712 1.415 . S
C711 C710 1.355 . S
C711 C713 1.419 . S
C712 C710 1.415 . S
C712 C717 1.425 1_655 S
C712 C719 1.409 1_655 S
C713 H705 0.930 . S
C713 C711 1.419 . S
C713 C714 1.362 . S
C714 H706 0.930 . S
C714 C713 1.362 . S
C714 C717 1.409 1_655 S
C715 H707 0.930 . S
C715 C716 1.355 . S
C715 C717 1.415 . S
C716 C715 1.355 . S
C716 C718 1.419 . S
C717 C712 1.425 1_455 S
C717 C714 1.409 1_455 S
C717 C715 1.415 . S
C718 H708 0.930 . S
C718 C716 1.419 . S
C718 C719 1.362 . S
C719 H709 0.930 . S
C719 C712 1.409 1_455 S
C719 C718 1.362 . S
C215 C3 1.515 . S
C220 C29 1.522 . S
C231 C18 1.519 . S
C236 C42 1.516 . S
C247 C57 1.600 . S
C252 C81 1.590 . S
C263 C94 1.544 . S
C268 C70 1.522 . S
C279 C109 1.531 . S
C284 C135 1.516 . S
C295 C146 1.600 . S
C300 C122 1.593 . S
C311 C187 1.561 . S
C316 C161 1.534 . S
C327 C198 1.578 . S
C332 C174 1.596 . S
C343 C101 1.209 . S
C348 C10 1.229 . S
C359 C17 1.175 . S
C364 C56 1.205 . S
C375 C69 1.230 . S
C380 C36 1.205 . S
C391 C49 1.229 . S
C396 C88 1.209 . S
C407 C205 1.221 . S
C412 C108 1.222 . S
C423 C121 1.175 . S
C428 C160 1.211 . S
C439 C134 1.231 . S
C444 C173 1.196 . S
C455 C186 1.226 . S
C460 C153 1.183 . S
C471 C5 0.861 . S
C476 C55 0.818 . S
C487 C16 0.747 . S
C492 C68 0.756 . S
C503 C83 0.755 . S
C508 C31 0.790 . S
C519 C44 0.749 . S
C524 C96 0.753 . S
C535 C159 0.865 . S
C540 C107 0.888 . S
C551 C172 0.849 . S
C556 C120 0.881 . S
C567 C133 0.757 . S
C572 C185 0.747 . S
C583 C148 0.883 . S
C588 C200 0.888 . S
C599 C4 1.543 . S
C604 C114 1.543 . S
C615 C127 1.546 . S
C620 C23 1.546 . S
C631 C30 1.589 . S
C636 C140 1.589 . S
C647 C147 1.564 . S
C652 C43 1.564 . S
C663 C62 1.593 . S
C668 C166 1.593 . S
C679 C75 1.599 . S
C684 C179 1.599 . S
C695 C192 1.580 . S
C700 C82 1.580 . S
C711 C95 1.585 . S
C716 C199 1.585 . S
