# Generated by pormake.
# Topology unv, (4)-cn, num edge types: 1
# Building blocks:
#     Node 0, Type 0, BuildingBlock: CEKHIL_clean_sbu_0, # of connection points: 4
#     Node 1, Type 0, BuildingBlock: CEKHIL_clean_sbu_0, # of connection points: 4
#     Node 2, Type 0, BuildingBlock: CEKHIL_clean_sbu_0, # of connection points: 4
#     Node 3, Type 0, BuildingBlock: CEKHIL_clean_sbu_0, # of connection points: 4
#     Node 4, Type 0, BuildingBlock: CEKHIL_clean_sbu_0, # of connection points: 4
#     Node 5, Type 0, BuildingBlock: CEKHIL_clean_sbu_0, # of connection points: 4
#     Node 6, Type 0, BuildingBlock: CEKHIL_clean_sbu_0, # of connection points: 4
#     Node 7, Type 0, BuildingBlock: CEKHIL_clean_sbu_0, # of connection points: 4
#     Node 8, Type 0, BuildingBlock: CEKHIL_clean_sbu_0, # of connection points: 4
#     Node 9, Type 0, BuildingBlock: CEKHIL_clean_sbu_0, # of connection points: 4
#     Node 10, Type 0, BuildingBlock: CEKHIL_clean_sbu_0, # of connection points: 4
#     Node 11, Type 0, BuildingBlock: CEKHIL_clean_sbu_0, # of connection points: 4
#     Node 12, Type 0, BuildingBlock: CEKHIL_clean_sbu_0, # of connection points: 4
#     Node 13, Type 0, BuildingBlock: CEKHIL_clean_sbu_0, # of connection points: 4
#     Node 14, Type 0, BuildingBlock: CEKHIL_clean_sbu_0, # of connection points: 4
#     Node 15, Type 0, BuildingBlock: CEKHIL_clean_sbu_0, # of connection points: 4
#     Node 16, Type 0, BuildingBlock: CEKHIL_clean_sbu_0, # of connection points: 4
#     Node 17, Type 0, BuildingBlock: CEKHIL_clean_sbu_0, # of connection points: 4
#     Node 18, Type 0, BuildingBlock: CEKHIL_clean_sbu_0, # of connection points: 4
#     Node 19, Type 0, BuildingBlock: CEKHIL_clean_sbu_0, # of connection points: 4
#     Node 20, Type 0, BuildingBlock: CEKHIL_clean_sbu_0, # of connection points: 4
#     Node 21, Type 0, BuildingBlock: CEKHIL_clean_sbu_0, # of connection points: 4
#     Node 22, Type 0, BuildingBlock: CEKHIL_clean_sbu_0, # of connection points: 4
#     Node 23, Type 0, BuildingBlock: CEKHIL_clean_sbu_0, # of connection points: 4
#     Edge 24, Type (0, 0), BuildingBlock: UVAHIK_clean_linker_0, # of connection points: 2
#     Edge 25, Type (0, 0), BuildingBlock: UVAHIK_clean_linker_0, # of connection points: 2
#     Edge 26, Type (0, 0), BuildingBlock: UVAHIK_clean_linker_0, # of connection points: 2
#     Edge 27, Type (0, 0), BuildingBlock: UVAHIK_clean_linker_0, # of connection points: 2
#     Edge 28, Type (0, 0), BuildingBlock: UVAHIK_clean_linker_0, # of connection points: 2
#     Edge 29, Type (0, 0), BuildingBlock: UVAHIK_clean_linker_0, # of connection points: 2
#     Edge 30, Type (0, 0), BuildingBlock: UVAHIK_clean_linker_0, # of connection points: 2
#     Edge 31, Type (0, 0), BuildingBlock: UVAHIK_clean_linker_0, # of connection points: 2
#     Edge 32, Type (0, 0), BuildingBlock: UVAHIK_clean_linker_0, # of connection points: 2
#     Edge 33, Type (0, 0), BuildingBlock: UVAHIK_clean_linker_0, # of connection points: 2
#     Edge 34, Type (0, 0), BuildingBlock: UVAHIK_clean_linker_0, # of connection points: 2
#     Edge 35, Type (0, 0), BuildingBlock: UVAHIK_clean_linker_0, # of connection points: 2
#     Edge 36, Type (0, 0), BuildingBlock: UVAHIK_clean_linker_0, # of connection points: 2
#     Edge 37, Type (0, 0), BuildingBlock: UVAHIK_clean_linker_0, # of connection points: 2
#     Edge 38, Type (0, 0), BuildingBlock: UVAHIK_clean_linker_0, # of connection points: 2
#     Edge 39, Type (0, 0), BuildingBlock: UVAHIK_clean_linker_0, # of connection points: 2
#     Edge 40, Type (0, 0), BuildingBlock: UVAHIK_clean_linker_0, # of connection points: 2
#     Edge 41, Type (0, 0), BuildingBlock: UVAHIK_clean_linker_0, # of connection points: 2
#     Edge 42, Type (0, 0), BuildingBlock: UVAHIK_clean_linker_0, # of connection points: 2
#     Edge 43, Type (0, 0), BuildingBlock: UVAHIK_clean_linker_0, # of connection points: 2
#     Edge 44, Type (0, 0), BuildingBlock: UVAHIK_clean_linker_0, # of connection points: 2
#     Edge 45, Type (0, 0), BuildingBlock: UVAHIK_clean_linker_0, # of connection points: 2
#     Edge 46, Type (0, 0), BuildingBlock: UVAHIK_clean_linker_0, # of connection points: 2
#     Edge 47, Type (0, 0), BuildingBlock: UVAHIK_clean_linker_0, # of connection points: 2
#     Edge 48, Type (0, 0), BuildingBlock: UVAHIK_clean_linker_0, # of connection points: 2
#     Edge 49, Type (0, 0), BuildingBlock: UVAHIK_clean_linker_0, # of connection points: 2
#     Edge 50, Type (0, 0), BuildingBlock: UVAHIK_clean_linker_0, # of connection points: 2
#     Edge 51, Type (0, 0), BuildingBlock: UVAHIK_clean_linker_0, # of connection points: 2
#     Edge 52, Type (0, 0), BuildingBlock: UVAHIK_clean_linker_0, # of connection points: 2
#     Edge 53, Type (0, 0), BuildingBlock: UVAHIK_clean_linker_0, # of connection points: 2
#     Edge 54, Type (0, 0), BuildingBlock: UVAHIK_clean_linker_0, # of connection points: 2
#     Edge 55, Type (0, 0), BuildingBlock: UVAHIK_clean_linker_0, # of connection points: 2
#     Edge 56, Type (0, 0), BuildingBlock: UVAHIK_clean_linker_0, # of connection points: 2
#     Edge 57, Type (0, 0), BuildingBlock: UVAHIK_clean_linker_0, # of connection points: 2
#     Edge 58, Type (0, 0), BuildingBlock: UVAHIK_clean_linker_0, # of connection points: 2
#     Edge 59, Type (0, 0), BuildingBlock: UVAHIK_clean_linker_0, # of connection points: 2
#     Edge 60, Type (0, 0), BuildingBlock: UVAHIK_clean_linker_0, # of connection points: 2
#     Edge 61, Type (0, 0), BuildingBlock: UVAHIK_clean_linker_0, # of connection points: 2
#     Edge 62, Type (0, 0), BuildingBlock: UVAHIK_clean_linker_0, # of connection points: 2
#     Edge 63, Type (0, 0), BuildingBlock: UVAHIK_clean_linker_0, # of connection points: 2
#     Edge 64, Type (0, 0), BuildingBlock: UVAHIK_clean_linker_0, # of connection points: 2
#     Edge 65, Type (0, 0), BuildingBlock: UVAHIK_clean_linker_0, # of connection points: 2
#     Edge 66, Type (0, 0), BuildingBlock: UVAHIK_clean_linker_0, # of connection points: 2
#     Edge 67, Type (0, 0), BuildingBlock: UVAHIK_clean_linker_0, # of connection points: 2
#     Edge 68, Type (0, 0), BuildingBlock: UVAHIK_clean_linker_0, # of connection points: 2
#     Edge 69, Type (0, 0), BuildingBlock: UVAHIK_clean_linker_0, # of connection points: 2
#     Edge 70, Type (0, 0), BuildingBlock: UVAHIK_clean_linker_0, # of connection points: 2
#     Edge 71, Type (0, 0), BuildingBlock: UVAHIK_clean_linker_0, # of connection points: 2
# Relax obj value: 0.330
# Max RMSD: 0.240
# Mean RMSD: 0.214
data_MOF--net-unv--node1-CEKHIL_clean_sbu_0--edge1-UVAHIK_clean_linker_0
_symmetry_space_group_name_H-M    P1
_symmetry_Int_Tables_number       1
_symmetry_cell_setting            triclinic
loop_
_symmetry_equiv_pos_as_xyz
'x, y, z'
_cell_length_a     61.898266
_cell_length_b     61.860194
_cell_length_c     61.869907
_cell_angle_alpha  89.993354
_cell_angle_beta   89.988714
_cell_angle_gamma 89.998958
loop_
_atom_site_label
_atom_site_type_symbol
_atom_site_fract_x
_atom_site_fract_y
_atom_site_fract_z
_atom_type_partial_charge
Co0 Co 0.02542 0.10599 0.37865 0.0
O1 O 0.0356 0.13055 0.36248 0.0
O2 O 0.00116 0.12177 0.36693 0.0
C3 C 0.04629 0.11077 0.40819 0.0
O4 O 0.0088 0.08259 0.39472 0.0
Co5 Co 0.0567 0.06865 0.39156 0.0
O6 O 0.03224 0.05961 0.41033 0.0
C7 C 0.04082 0.07206 0.34666 0.0
C8 C 0.01541 0.13508 0.35907 0.0
C9 C 0.0131 0.06669 0.40744 0.0
O10 O 0.02729 0.08696 0.35206 0.0
O11 O 0.05516 0.06447 0.3595 0.0
O12 O 0.02854 0.12178 0.40599 0.0
O13 O 0.05183 0.09942 0.39164 0.0
Co14 Co 0.96718 0.38396 0.36782 0.0
O15 O 0.95611 0.36056 0.35049 0.0
O16 O 0.99074 0.36895 0.35399 0.0
C17 C 0.94782 0.37689 0.39793 0.0
O18 O 0.98484 0.4058 0.38491 0.0
Co19 Co 0.9372 0.42052 0.38502 0.0
O20 O 0.96241 0.42729 0.40373 0.0
C21 C 0.95106 0.42071 0.33931 0.0
C22 C 0.97615 0.35593 0.34629 0.0
C23 C 0.98131 0.42032 0.39938 0.0
O24 O 0.9643 0.40499 0.34284 0.0
O25 O 0.93761 0.42767 0.35341 0.0
O26 O 0.96528 0.36602 0.39378 0.0
O27 O 0.94147 0.3897 0.38273 0.0
Co28 Co 0.02201 0.89254 0.1367 0.0
O29 O 0.03336 0.86828 0.15256 0.0
O30 O 0.99862 0.87655 0.14983 0.0
C31 C 0.04138 0.88751 0.10619 0.0
O32 O 0.00425 0.91557 0.12129 0.0
Co33 Co 0.05212 0.93014 0.1219 0.0
O34 O 0.02663 0.93869 0.10436 0.0
C35 C 0.03818 0.92726 0.1675 0.0
C36 C 0.01344 0.86346 0.15698 0.0
C37 C 0.00773 0.93146 0.10831 0.0
O38 O 0.02493 0.91186 0.16292 0.0
O39 O 0.05169 0.93511 0.15392 0.0
O40 O 0.02391 0.87637 0.10955 0.0
O41 O 0.04765 0.8993 0.12219 0.0
Co42 Co 0.96753 0.61501 0.14243 0.0
O43 O 0.95729 0.63864 0.15987 0.0
O44 O 0.99157 0.62877 0.15682 0.0
C45 C 0.94906 0.62341 0.11208 0.0
O46 O 0.98419 0.59229 0.1254 0.0
Co47 Co 0.93546 0.58046 0.12469 0.0
O48 O 0.96058 0.57214 0.10651 0.0
C49 C 0.94947 0.57858 0.17032 0.0
C50 C 0.97741 0.64228 0.16452 0.0
C51 C 0.97986 0.57785 0.11106 0.0
O52 O 0.96332 0.59383 0.1671 0.0
O53 O 0.93569 0.57253 0.1561 0.0
O54 O 0.96697 0.6333 0.11664 0.0
O55 O 0.94177 0.61087 0.12707 0.0
Co56 Co 0.37786 0.02806 0.10871 0.0
O57 O 0.36132 0.039 0.13255 0.0
O58 O 0.36389 0.0044 0.12381 0.0
C59 C 0.40827 0.04705 0.11531 0.0
O60 O 0.39426 0.01101 0.08573 0.0
Co61 Co 0.39362 0.05975 0.07279 0.0
O62 O 0.41294 0.03507 0.06579 0.0
C63 C 0.3482 0.04526 0.07334 0.0
C64 C 0.35649 0.01909 0.13696 0.0
C65 C 0.40885 0.01572 0.07162 0.0
O66 O 0.35234 0.0316 0.08852 0.0
O67 O 0.3619 0.05911 0.06636 0.0
O68 O 0.40442 0.02933 0.12588 0.0
O69 O 0.39263 0.05382 0.10333 0.0
Co70 Co 0.61794 0.48777 0.10617 0.0
O71 O 0.63519 0.47555 0.12888 0.0
O72 O 0.63239 0.51061 0.12196 0.0
C73 C 0.58757 0.4687 0.1127 0.0
O74 O 0.60112 0.50603 0.08449 0.0
Co75 Co 0.60083 0.45802 0.06924 0.0
O76 O 0.58168 0.48322 0.06384 0.0
C77 C 0.64637 0.47226 0.06908 0.0
C78 C 0.64022 0.49524 0.13401 0.0
C79 C 0.58623 0.50222 0.07045 0.0
O80 O 0.64282 0.48511 0.0851 0.0
O81 O 0.63233 0.45889 0.06184 0.0
O82 O 0.59188 0.48585 0.12402 0.0
O83 O 0.60282 0.46239 0.09998 0.0
Co84 Co 0.37315 0.968 0.38408 0.0
O85 O 0.3569 0.95508 0.36096 0.0
O86 O 0.35655 0.9899 0.36916 0.0
C87 C 0.40482 0.95165 0.37634 0.0
O88 O 0.38861 0.9873 0.40577 0.0
Co89 Co 0.3938 0.93967 0.42015 0.0
O90 O 0.40991 0.96667 0.42677 0.0
C91 C 0.34708 0.94955 0.42161 0.0
C92 C 0.3504 0.97446 0.35626 0.0
C93 C 0.40354 0.98511 0.42009 0.0
O94 O 0.34894 0.96268 0.40551 0.0
O95 O 0.36254 0.93756 0.42838 0.0
O96 O 0.39894 0.96882 0.3658 0.0
O97 O 0.3906 0.94383 0.38943 0.0
Co98 Co 0.62758 0.50871 0.38402 0.0
O99 O 0.64409 0.52246 0.36159 0.0
O100 O 0.64329 0.48716 0.3677 0.0
C101 C 0.59622 0.52613 0.37763 0.0
O102 O 0.6118 0.48879 0.40496 0.0
Co103 Co 0.60842 0.53597 0.42172 0.0
O104 O 0.59134 0.50927 0.42695 0.0
C105 C 0.65485 0.52492 0.42166 0.0
C106 C 0.65002 0.50319 0.35584 0.0
C107 C 0.597 0.49092 0.41943 0.0
O108 O 0.65219 0.5123 0.40529 0.0
O109 O 0.63994 0.53714 0.4292 0.0
O110 O 0.60161 0.50947 0.36607 0.0
O111 O 0.61085 0.53302 0.3908 0.0
Co112 Co 0.10721 0.37563 0.02856 0.0
O113 O 0.13187 0.35954 0.03856 0.0
O114 O 0.12202 0.3628 0.00426 0.0
C115 C 0.11298 0.40596 0.048 0.0
O116 O 0.08349 0.3914 0.01211 0.0
Co117 Co 0.07111 0.39007 0.06059 0.0
O118 O 0.06157 0.40815 0.03579 0.0
C119 C 0.07332 0.34466 0.04611 0.0
C120 C 0.1357 0.35534 0.01837 0.0
C121 C 0.06794 0.40451 0.01652 0.0
O122 O 0.08793 0.34941 0.03202 0.0
O123 O 0.06631 0.35806 0.06023 0.0
O124 O 0.12344 0.40281 0.03006 0.0
O125 O 0.10168 0.38976 0.05465 0.0
Co126 Co 0.10281 0.61861 0.49072 0.0
O127 O 0.12508 0.63309 0.47475 0.0
O128 O 0.12126 0.63475 0.51028 0.0
C129 C 0.10657 0.58631 0.47421 0.0
O130 O 0.08211 0.60517 0.51254 0.0
Co131 Co 0.06269 0.5999 0.46661 0.0
O132 O 0.05882 0.584 0.49427 0.0
C133 C 0.06574 0.64686 0.47521 0.0
C134 C 0.13225 0.6401 0.49314 0.0
C135 C 0.06721 0.59065 0.51188 0.0
O136 O 0.08269 0.6441 0.487 0.0
O137 O 0.05677 0.6317 0.46432 0.0
O138 O 0.11927 0.59149 0.4901 0.0
O139 O 0.09372 0.60135 0.46774 0.0
Co140 Co 0.89221 0.862 0.49385 0.0
O141 O 0.86775 0.84752 0.48157 0.0
O142 O 0.87584 0.8476 0.51641 0.0
C143 C 0.88783 0.8937 0.47637 0.0
O144 O 0.91583 0.87601 0.51208 0.0
Co145 Co 0.92956 0.87682 0.46338 0.0
O146 O 0.9375 0.89422 0.48917 0.0
C147 C 0.92612 0.83098 0.47597 0.0
C148 C 0.86271 0.8417 0.50105 0.0
C149 C 0.93111 0.88964 0.50824 0.0
O150 O 0.91089 0.83553 0.48943 0.0
O151 O 0.93421 0.84475 0.4628 0.0
O152 O 0.87669 0.8896 0.49369 0.0
O153 O 0.89898 0.87772 0.469 0.0
Co154 Co 0.38303 0.62549 0.50985 0.0
O155 O 0.36017 0.64061 0.52431 0.0
O156 O 0.36699 0.64288 0.48928 0.0
C157 C 0.37616 0.59309 0.525 0.0
O158 O 0.40468 0.61148 0.48938 0.0
Co159 Co 0.4201 0.60427 0.53641 0.0
O160 O 0.42493 0.58837 0.50889 0.0
C161 C 0.42062 0.65141 0.52823 0.0
C162 C 0.35467 0.64809 0.50553 0.0
C163 C 0.41834 0.59586 0.49087 0.0
O164 O 0.40403 0.64984 0.51574 0.0
O165 O 0.42822 0.63558 0.53921 0.0
O166 O 0.36529 0.59937 0.50821 0.0
O167 O 0.38926 0.60713 0.53309 0.0
Co168 Co 0.50782 0.61129 0.85391 0.0
O169 O 0.52225 0.63418 0.83864 0.0
O170 O 0.48675 0.62962 0.83991 0.0
C171 C 0.52623 0.61446 0.88525 0.0
O172 O 0.48731 0.59017 0.86867 0.0
Co173 Co 0.53381 0.57105 0.86961 0.0
O174 O 0.50724 0.56575 0.88683 0.0
C175 C 0.52217 0.57534 0.82357 0.0
C176 C 0.50315 0.64116 0.83356 0.0
C177 C 0.48914 0.5745 0.88226 0.0
O178 O 0.50991 0.59167 0.82777 0.0
O179 O 0.53451 0.56641 0.83757 0.0
O180 O 0.51017 0.62732 0.88113 0.0
O181 O 0.53201 0.60214 0.86946 0.0
Co182 Co 0.49681 0.89757 0.85939 0.0
O183 O 0.48278 0.87286 0.84694 0.0
O184 O 0.51815 0.87857 0.84662 0.0
C185 C 0.47924 0.89735 0.8914 0.0
O186 O 0.51677 0.92103 0.87108 0.0
Co187 Co 0.46867 0.93809 0.8705 0.0
O188 O 0.4965 0.94954 0.88153 0.0
C189 C 0.4797 0.9286 0.82531 0.0
C190 C 0.5019 0.86621 0.84156 0.0
C191 C 0.51465 0.94003 0.87931 0.0
O192 O 0.49344 0.91415 0.83134 0.0
O193 O 0.46647 0.93783 0.83824 0.0
O194 O 0.49565 0.88462 0.88836 0.0
O195 O 0.47266 0.90748 0.87444 0.0
Co196 Co 0.5115 0.38432 0.62439 0.0
O197 O 0.52587 0.36285 0.64168 0.0
O198 O 0.49043 0.36784 0.64051 0.0
C199 C 0.52955 0.37744 0.59344 0.0
O200 O 0.49094 0.40411 0.60805 0.0
Co201 Co 0.53711 0.42229 0.60344 0.0
O202 O 0.51026 0.42576 0.58615 0.0
C203 C 0.52608 0.42361 0.65003 0.0
C204 C 0.50675 0.35668 0.64767 0.0
C205 C 0.4923 0.41799 0.59261 0.0
O206 O 0.51426 0.40653 0.64825 0.0
O207 O 0.53778 0.43107 0.63466 0.0
O208 O 0.51318 0.36553 0.59896 0.0
O209 O 0.53559 0.39147 0.60762 0.0
Co210 Co 0.49137 0.10834 0.61581 0.0
O211 O 0.47944 0.13071 0.63373 0.0
O212 O 0.51444 0.12405 0.62993 0.0
C213 C 0.4714 0.11522 0.58608 0.0
O214 O 0.50942 0.08711 0.59822 0.0
Co215 Co 0.46181 0.07134 0.59858 0.0
O216 O 0.48653 0.06676 0.5786 0.0
C217 C 0.47669 0.07076 0.64397 0.0
C218 C 0.49921 0.13587 0.63835 0.0
C219 C 0.50551 0.07346 0.583 0.0
O220 O 0.48939 0.0869 0.64045 0.0
O221 O 0.46322 0.06357 0.63 0.0
O222 O 0.4886 0.12657 0.59006 0.0
O223 O 0.46569 0.10211 0.60125 0.0
Co224 Co 0.85444 0.50853 0.61284 0.0
O225 O 0.83825 0.52145 0.63596 0.0
O226 O 0.83872 0.48643 0.62846 0.0
C227 C 0.88586 0.52555 0.61992 0.0
O228 O 0.86979 0.48943 0.59087 0.0
Co229 Co 0.87367 0.53726 0.5763 0.0
O230 O 0.89007 0.51055 0.56931 0.0
C231 C 0.82718 0.52626 0.5759 0.0
C232 C 0.83225 0.50202 0.64102 0.0
C233 C 0.88422 0.49197 0.57609 0.0
O234 O 0.82971 0.51316 0.59192 0.0
O235 O 0.84217 0.53864 0.56879 0.0
O236 O 0.88058 0.50827 0.63056 0.0
O237 O 0.87127 0.53307 0.60707 0.0
Co238 Co 0.14881 0.96472 0.61508 0.0
O239 O 0.1645 0.95421 0.63975 0.0
O240 O 0.16222 0.9886 0.63018 0.0
C241 C 0.11812 0.94585 0.62104 0.0
O242 O 0.13319 0.98158 0.59148 0.0
Co243 Co 0.13397 0.93285 0.57899 0.0
O244 O 0.11572 0.95779 0.57025 0.0
C245 C 0.17938 0.9473 0.58049 0.0
C246 C 0.1689 0.97426 0.64405 0.0
C247 C 0.11959 0.9771 0.57637 0.0
O248 O 0.17492 0.96097 0.59559 0.0
O249 O 0.16582 0.9334 0.57332 0.0
O250 O 0.12177 0.96366 0.63151 0.0
O251 O 0.13407 0.93892 0.60953 0.0
Co252 Co 0.86151 0.49206 0.89517 0.0
O253 O 0.84711 0.47783 0.87162 0.0
O254 O 0.8479 0.5133 0.87664 0.0
C255 C 0.89298 0.47382 0.89288 0.0
O256 O 0.8753 0.51227 0.91724 0.0
Co257 Co 0.87567 0.46527 0.93549 0.0
O258 O 0.89248 0.49185 0.94199 0.0
C259 C 0.82985 0.47705 0.92965 0.0
C260 C 0.84182 0.49695 0.86487 0.0
C261 C 0.88817 0.51014 0.93347 0.0
O262 O 0.8347 0.48953 0.9137 0.0
O263 O 0.84347 0.46456 0.93897 0.0
O264 O 0.88933 0.49014 0.88019 0.0
O265 O 0.87678 0.46774 0.90448 0.0
Co266 Co 0.13744 0.02748 0.89473 0.0
O267 O 0.15135 0.04037 0.87014 0.0
O268 O 0.15189 0.00542 0.87783 0.0
C269 C 0.10537 0.04449 0.89111 0.0
O270 O 0.12414 0.00843 0.91809 0.0
Co271 Co 0.1222 0.0565 0.93306 0.0
O272 O 0.10628 0.02989 0.94143 0.0
C273 C 0.16837 0.04556 0.92849 0.0
C274 C 0.15726 0.02099 0.86472 0.0
C275 C 0.11114 0.01122 0.93412 0.0
O276 O 0.16407 0.0321 0.91318 0.0
O277 O 0.15429 0.05821 0.93688 0.0
O278 O 0.10963 0.02746 0.87959 0.0
O279 O 0.12132 0.05188 0.90229 0.0
Co280 Co 0.61061 0.85313 0.51407 0.0
O281 O 0.63198 0.83955 0.53201 0.0
O282 O 0.63009 0.83611 0.49644 0.0
C283 C 0.61334 0.88643 0.52879 0.0
O284 O 0.59138 0.8655 0.49037 0.0
Co285 Co 0.56909 0.87293 0.53479 0.0
O286 O 0.56725 0.88768 0.50629 0.0
C287 C 0.57272 0.82564 0.52914 0.0
C288 C 0.64028 0.83186 0.51436 0.0
C289 C 0.5768 0.88032 0.48958 0.0
O290 O 0.59016 0.82783 0.51795 0.0
O291 O 0.56324 0.8413 0.5388 0.0
O292 O 0.62713 0.88021 0.51425 0.0
O293 O 0.60016 0.8717 0.5354 0.0
Co294 Co 0.61401 0.1475 0.97256 0.0
O295 O 0.63777 0.16441 0.96168 0.0
O296 O 0.62856 0.16174 0.99619 0.0
C297 C 0.62141 0.11703 0.9539 0.0
O298 O 0.59148 0.1311 0.98998 0.0
Co299 Co 0.57818 0.13002 0.94188 0.0
O300 O 0.56992 0.11244 0.96747 0.0
C301 C 0.57805 0.176 0.95485 0.0
C302 C 0.64188 0.16913 0.98171 0.0
C303 C 0.5765 0.11711 0.98644 0.0
O304 O 0.59334 0.17258 0.9686 0.0
O305 O 0.57137 0.16171 0.94145 0.0
O306 O 0.63172 0.12129 0.97167 0.0
O307 O 0.60885 0.13218 0.94699 0.0
Co308 Co 0.3825 0.37148 0.96885 0.0
O309 O 0.35938 0.35381 0.95778 0.0
O310 O 0.36829 0.35673 0.99235 0.0
C311 C 0.37429 0.40177 0.95023 0.0
O312 O 0.40431 0.38858 0.9865 0.0
Co313 Co 0.41801 0.39034 0.9386 0.0
O314 O 0.42555 0.40801 0.96435 0.0
C315 C 0.4197 0.34436 0.95154 0.0
C316 C 0.35527 0.34897 0.97778 0.0
C317 C 0.41891 0.40302 0.98322 0.0
O318 O 0.40407 0.34714 0.96505 0.0
O319 O 0.42603 0.35893 0.93827 0.0
O320 O 0.36393 0.39706 0.96785 0.0
O321 O 0.38738 0.38706 0.94336 0.0
Co322 Co 0.8903 0.13794 0.02761 0.0
O323 O 0.86608 0.15407 0.0386 0.0
O324 O 0.87538 0.15201 0.00406 0.0
C325 C 0.88417 0.10696 0.04584 0.0
O326 O 0.91354 0.1224 0.01024 0.0
Co327 Co 0.92656 0.12189 0.05866 0.0
O328 O 0.9354 0.10452 0.03314 0.0
C329 C 0.92517 0.16773 0.04548 0.0
C330 C 0.86201 0.15912 0.01865 0.0
C331 C 0.92892 0.10891 0.01406 0.0
O332 O 0.91006 0.16367 0.03174 0.0
O333 O 0.93235 0.15378 0.05898 0.0
O334 O 0.87354 0.11114 0.02823 0.0
O335 O 0.89592 0.1226 0.05305 0.0
C336 C 0.09207 0.99032 0.54995 0.0
C337 C 0.10902 0.99493 0.56436 0.0
C338 C 0.08396 0.0063 0.53631 0.0
C339 C 0.08136 0.06453 0.52427 0.0
H340 H 0.08151 0.0444 0.46489 0.0
C341 C 0.07638 0.09632 0.43028 0.0
C342 C 0.05593 0.10608 0.42947 0.0
C343 C 0.08367 0.08668 0.44926 0.0
C344 C 0.0815 0.05032 0.48137 0.0
H345 H 0.12958 0.02045 0.57687 0.0
H346 H 0.11538 0.04846 0.55275 0.0
H347 H 0.09081 0.01953 0.49379 0.0
H348 H 0.02782 0.1151 0.44834 0.0
H349 H 0.04067 0.09805 0.48177 0.0
H350 H 0.07185 0.09546 0.51147 0.0
C351 C 0.10845 0.03239 0.55213 0.0
C352 C 0.08658 0.03601 0.49794 0.0
C353 C 0.11662 0.01633 0.56585 0.0
C354 C 0.0437 0.10775 0.44855 0.0
C355 C 0.05103 0.09799 0.46766 0.0
C356 C 0.07595 0.0789 0.50756 0.0
C357 C 0.09257 0.0273 0.53673 0.0
C358 C 0.08659 0.0429 0.51956 0.0
C359 C 0.07064 0.08652 0.46783 0.0
C360 C 0.0762 0.07191 0.48594 0.0
H361 H 0.08551 0.97414 0.54864 0.0
H362 H 0.07142 0.00204 0.52486 0.0
H363 H 0.08123 0.07021 0.54082 0.0
H364 H 0.08621 0.09498 0.41585 0.0
H365 H 0.09901 0.07824 0.44908 0.0
C366 C 0.95051 0.37035 0.43781 0.0
C367 C 0.93909 0.37873 0.42006 0.0
C368 C 0.94407 0.37532 0.45892 0.0
C369 C 0.89969 0.39999 0.49136 0.0
H370 H 0.94656 0.42379 0.52544 0.0
C371 C 0.88245 0.45267 0.56595 0.0
C372 C 0.89316 0.47271 0.56503 0.0
C373 C 0.88913 0.4355 0.55281 0.0
C374 C 0.9333 0.41703 0.51623 0.0
H375 H 0.9112 0.3976 0.41042 0.0
H376 H 0.90006 0.40634 0.44705 0.0
H377 H 0.95468 0.4032 0.49288 0.0
H378 H 0.92028 0.48986 0.55089 0.0
H379 H 0.93176 0.46014 0.52803 0.0
H380 H 0.87829 0.41511 0.51388 0.0
C381 C 0.91389 0.39584 0.44483 0.0
C382 C 0.93795 0.40503 0.49768 0.0
C383 C 0.92037 0.39097 0.42379 0.0
C384 C 0.91152 0.47472 0.55183 0.0
C385 C 0.91825 0.45757 0.53885 0.0
C386 C 0.89504 0.412 0.50991 0.0
C387 C 0.92602 0.38862 0.46263 0.0
C388 C 0.92117 0.39712 0.48456 0.0
C389 C 0.90676 0.43797 0.53869 0.0
C390 C 0.91179 0.4214 0.52205 0.0
H391 H 0.965 0.36082 0.43542 0.0
H392 H 0.95362 0.36933 0.47232 0.0
H393 H 0.88642 0.39382 0.48176 0.0
H394 H 0.86829 0.45056 0.57602 0.0
H395 H 0.88008 0.42051 0.5532 0.0
C396 C 0.03902 0.88426 0.06586 0.0
C397 C 0.05051 0.89063 0.08437 0.0
C398 C 0.04607 0.89058 0.0453 0.0
C399 C 0.09216 0.91547 0.01549 0.0
H400 H 0.04708 0.94441 0.983 0.0
C401 C 0.08458 0.99459 0.95956 0.0
C402 C 0.10223 0.99213 0.94549 0.0
C403 C 0.07736 0.97729 0.97206 0.0
C404 C 0.05983 0.93624 0.99177 0.0
H405 H 0.07912 0.90725 0.09586 0.0
H406 H 0.09135 0.91828 0.06021 0.0
H407 H 0.03744 0.92181 0.01377 0.0
H408 H 0.12559 0.96924 0.93285 0.0
H409 H 0.113 0.93891 0.95494 0.0
H410 H 0.11463 0.93107 0.99431 0.0
C411 C 0.07698 0.90835 0.0614 0.0
C412 C 0.0543 0.92309 0.00927 0.0
C413 C 0.06988 0.90217 0.08188 0.0
C414 C 0.11196 0.97167 0.94356 0.0
C415 C 0.10483 0.95434 0.95627 0.0
C416 C 0.09769 0.92861 0.99795 0.0
C417 C 0.06482 0.9032 0.04292 0.0
C418 C 0.07046 0.91322 0.02183 0.0
C419 C 0.08767 0.95709 0.97091 0.0
C420 C 0.08162 0.93981 0.98644 0.0
H421 H 0.02403 0.87533 0.0673 0.0
H422 H 0.03647 0.88619 0.03134 0.0
H423 H 0.10495 0.90784 0.02468 0.0
H424 H 0.07659 0.01008 0.96133 0.0
H425 H 0.0643 0.98006 0.98338 0.0
C426 C 0.95262 0.63073 0.07239 0.0
C427 C 0.9407 0.6222 0.08975 0.0
C428 C 0.94652 0.62632 0.05106 0.0
C429 C 0.90254 0.60266 0.01724 0.0
H430 H 0.94999 0.57891 0.98394 0.0
C431 C 0.88657 0.5497 0.94254 0.0
C432 C 0.89711 0.52962 0.94406 0.0
C433 C 0.89309 0.56706 0.95553 0.0
C434 C 0.93658 0.58568 0.99291 0.0
H435 H 0.91224 0.60374 0.09843 0.0
H436 H 0.90172 0.59591 0.06143 0.0
H437 H 0.95753 0.59916 0.01682 0.0
H438 H 0.92381 0.51253 0.959 0.0
H439 H 0.93509 0.54257 0.98154 0.0
H440 H 0.88153 0.5878 0.99417 0.0
C441 C 0.91568 0.60611 0.06413 0.0
C442 C 0.94089 0.59749 0.01166 0.0
C443 C 0.9218 0.61045 0.0854 0.0
C444 C 0.91521 0.52772 0.95762 0.0
C445 C 0.92182 0.54505 0.97041 0.0
C446 C 0.89822 0.59082 0.99849 0.0
C447 C 0.92833 0.61342 0.04671 0.0
C448 C 0.92388 0.60532 0.02454 0.0
C449 C 0.91043 0.56471 0.97004 0.0
C450 C 0.91517 0.5814 0.98665 0.0
H451 H 0.96723 0.63993 0.07526 0.0
H452 H 0.95646 0.6324 0.03799 0.0
H453 H 0.88909 0.6088 0.02662 0.0
H454 H 0.87259 0.55167 0.93219 0.0
H455 H 0.88413 0.58208 0.95476 0.0
C456 C 0.44842 0.04215 0.11606 0.0
C457 C 0.43037 0.05534 0.11209 0.0
C458 C 0.46888 0.04835 0.10868 0.0
C459 C 0.50001 0.09427 0.08536 0.0
H460 H 0.52635 0.05001 0.04964 0.0
C461 C 0.55018 0.09051 0.0019 0.0
C462 C 0.56544 0.10703 0.00515 0.0
C463 C 0.53815 0.08244 0.01918 0.0
C464 C 0.51929 0.06251 0.05966 0.0
H465 H 0.41972 0.08595 0.09883 0.0
H466 H 0.45526 0.09682 0.08612 0.0
H467 H 0.49674 0.04045 0.0738 0.0
H468 H 0.58074 0.12724 0.02941 0.0
H469 H 0.55965 0.1131 0.05961 0.0
H470 H 0.52162 0.11658 0.0702 0.0
C471 C 0.45378 0.08174 0.09491 0.0
C472 C 0.50249 0.05699 0.0737 0.0
C473 C 0.43337 0.07547 0.10209 0.0
C474 C 0.56904 0.1146 0.02629 0.0
C475 C 0.55691 0.10657 0.04359 0.0
C476 C 0.51682 0.09978 0.07133 0.0
C477 C 0.47163 0.06794 0.09746 0.0
C478 C 0.49217 0.07296 0.08614 0.0
C479 C 0.54103 0.0907 0.04015 0.0
C480 C 0.52612 0.0841 0.05777 0.0
H481 H 0.44655 0.02649 0.12366 0.0
H482 H 0.48239 0.03747 0.11103 0.0
H483 H 0.49252 0.10688 0.09492 0.0
H484 H 0.54707 0.08418 0.98588 0.0
H485 H 0.52587 0.0704 0.01591 0.0
C486 C 0.54754 0.47435 0.11396 0.0
C487 C 0.56529 0.46089 0.10955 0.0
C488 C 0.52691 0.46875 0.10658 0.0
C489 C 0.49468 0.424 0.08262 0.0
H490 H 0.46921 0.46933 0.04761 0.0
C491 C 0.4449 0.42967 0.99918 0.0
C492 C 0.4296 0.41313 0.00213 0.0
C493 C 0.45682 0.43753 0.01665 0.0
C494 C 0.47602 0.45654 0.05744 0.0
H495 H 0.57525 0.43044 0.09545 0.0
H496 H 0.5394 0.42057 0.0828 0.0
H497 H 0.49906 0.4779 0.07186 0.0
H498 H 0.41396 0.3928 0.02609 0.0
H499 H 0.4348 0.40658 0.05659 0.0
H500 H 0.47261 0.40237 0.0672 0.0
C501 C 0.54125 0.4354 0.09193 0.0
C502 C 0.49296 0.46149 0.07153 0.0
C503 C 0.56183 0.44109 0.09908 0.0
C504 C 0.42572 0.40543 0.02318 0.0
C505 C 0.43772 0.41326 0.04067 0.0
C506 C 0.47774 0.41905 0.06856 0.0
C507 C 0.52369 0.44949 0.09494 0.0
C508 C 0.50298 0.44511 0.08368 0.0
C509 C 0.45375 0.42903 0.03751 0.0
C510 C 0.46875 0.43512 0.05524 0.0
H511 H 0.54978 0.48979 0.1219 0.0
H512 H 0.51364 0.47985 0.10926 0.0
H513 H 0.50195 0.41109 0.09196 0.0
H514 H 0.44822 0.43611 0.98324 0.0
H515 H 0.4692 0.44951 0.01358 0.0
C516 C 0.56978 0.90986 0.46337 0.0
C517 C 0.56893 0.88783 0.46854 0.0
C518 C 0.55827 0.91785 0.44567 0.0
C519 C 0.5208 0.90095 0.40047 0.0
H520 H 0.4928 0.95498 0.41545 0.0
C521 C 0.43226 0.92328 0.38395 0.0
C522 C 0.42745 0.94437 0.3771 0.0
C523 C 0.45359 0.91718 0.38797 0.0
C524 C 0.50076 0.94011 0.41075 0.0
H525 H 0.5564 0.85664 0.45911 0.0
H526 H 0.53521 0.87052 0.42907 0.0
H527 H 0.52375 0.94302 0.43609 0.0
H528 H 0.4411 0.97539 0.36821 0.0
H529 H 0.47849 0.96489 0.37605 0.0
H530 H 0.49609 0.89738 0.37637 0.0
C531 C 0.54536 0.88173 0.43785 0.0
C532 C 0.51869 0.9332 0.42254 0.0
C533 C 0.55742 0.87368 0.45517 0.0
C534 C 0.44441 0.95898 0.37335 0.0
C535 C 0.46575 0.95302 0.37786 0.0
C536 C 0.50251 0.90767 0.389 0.0
C537 C 0.54494 0.90408 0.43334 0.0
C538 C 0.52859 0.91317 0.41806 0.0
C539 C 0.47043 0.93221 0.38566 0.0
C540 C 0.49202 0.92702 0.39446 0.0
H541 H 0.57868 0.921 0.47355 0.0
H542 H 0.55904 0.93501 0.44235 0.0
H543 H 0.52826 0.88576 0.39607 0.0
H544 H 0.41944 0.91174 0.38695 0.0
H545 H 0.45676 0.90113 0.39423 0.0
C546 C 0.4305 0.56516 0.46798 0.0
C547 C 0.42863 0.5875 0.47119 0.0
C548 C 0.44344 0.55708 0.45134 0.0
C549 C 0.47949 0.57422 0.40507 0.0
H550 H 0.51143 0.5233 0.42281 0.0
C551 C 0.56901 0.55415 0.3872 0.0
C552 C 0.57363 0.53328 0.37962 0.0
C553 C 0.54782 0.55999 0.39231 0.0
C554 C 0.50239 0.53731 0.41744 0.0
H555 H 0.43793 0.61901 0.4593 0.0
H556 H 0.46169 0.60515 0.43125 0.0
H557 H 0.48021 0.53458 0.4435 0.0
H558 H 0.55983 0.50231 0.3708 0.0
H559 H 0.52277 0.51231 0.38063 0.0
H560 H 0.50341 0.57776 0.38013 0.0
C561 C 0.45258 0.59364 0.44075 0.0
C562 C 0.48431 0.54379 0.42922 0.0
C563 C 0.43904 0.60169 0.45695 0.0
C564 C 0.55663 0.51858 0.37641 0.0
C565 C 0.5355 0.52425 0.38205 0.0
C566 C 0.49799 0.56801 0.39363 0.0
C567 C 0.45553 0.57117 0.43813 0.0
C568 C 0.47281 0.56264 0.42354 0.0
C569 C 0.53103 0.54486 0.39041 0.0
C570 C 0.50975 0.54972 0.39999 0.0
H571 H 0.42242 0.55394 0.47874 0.0
H572 H 0.44454 0.53972 0.44943 0.0
H573 H 0.47085 0.58847 0.39975 0.0
H574 H 0.58188 0.56572 0.38986 0.0
H575 H 0.54475 0.57589 0.39898 0.0
C576 C 0.09837 0.42986 0.07664 0.0
C577 C 0.10847 0.42779 0.05644 0.0
C578 C 0.0888 0.44933 0.08264 0.0
C579 C 0.05278 0.48156 0.07741 0.0
H580 H 0.07351 0.5407 0.07532 0.0
C581 C 0.99348 0.55117 0.08392 0.0
C582 C 0.99782 0.56582 0.10074 0.0
C583 C 0.00951 0.53723 0.07645 0.0
C584 C 0.06758 0.52424 0.07591 0.0
H585 H 0.11827 0.44497 0.0275 0.0
H586 H 0.10143 0.47925 0.03812 0.0
H587 H 0.09864 0.51064 0.0681 0.0
H588 H 0.023 0.57851 0.12162 0.0
H589 H 0.05105 0.55392 0.10853 0.0
H590 H 0.02187 0.49476 0.08508 0.0
C591 C 0.10099 0.46574 0.04925 0.0
C592 C 0.08189 0.50713 0.07176 0.0
C593 C 0.11063 0.44615 0.0432 0.0
C594 C 0.01906 0.56732 0.10876 0.0
C595 C 0.03517 0.55332 0.10121 0.0
C596 C 0.03853 0.49852 0.08124 0.0
C597 C 0.08914 0.46713 0.06857 0.0
C598 C 0.07459 0.48564 0.07274 0.0
C599 C 0.03028 0.53761 0.08556 0.0
C600 C 0.04574 0.52002 0.08059 0.0
H601 H 0.09665 0.41602 0.08724 0.0
H602 H 0.08003 0.45011 0.09778 0.0
H603 H 0.04665 0.46516 0.07795 0.0
H604 H 0.97743 0.54983 0.07708 0.0
H605 H 0.00543 0.52552 0.06408 0.0
C606 C 0.99659 0.445 0.42759 0.0
C607 C -3e-05 0.43026 0.41063 0.0
C608 C 0.01395 0.45602 0.43685 0.0
C609 C 0.05398 0.47355 0.45865 0.0
H610 H 0.09087 0.50058 0.41581 0.0
C611 C 0.10807 0.54625 0.48025 0.0
C612 C 0.10365 0.56392 0.4667 0.0
C613 C 0.10155 0.5254 0.47426 0.0
C614 C 0.0809 0.49296 0.42802 0.0
H615 H 0.02449 0.41462 0.391 0.0
H616 H 0.05481 0.43394 0.40721 0.0
H617 H 0.06671 0.47145 0.40503 0.0
H618 H 0.09031 0.57365 0.43583 0.0
H619 H 0.07923 0.53751 0.42528 0.0
H620 H 0.0671 0.49618 0.48129 0.0
C621 C 0.03865 0.4371 0.41315 0.0
C622 C 0.06717 0.47613 0.4219 0.0
C623 C 0.02126 0.426 0.4039 0.0
C624 C 0.09391 0.56029 0.44657 0.0
C625 C 0.0877 0.53953 0.44047 0.0
C626 C 0.06774 0.49039 0.46477 0.0
C627 C 0.03513 0.45259 0.4294 0.0
C628 C 0.05288 0.46688 0.43694 0.0
C629 C 0.09087 0.52194 0.45448 0.0
C630 C 0.08063 0.50089 0.4493 0.0
H631 H 0.98045 0.44856 0.43333 0.0
H632 H 0.01059 0.46803 0.44914 0.0
H633 H 0.04342 0.46649 0.47069 0.0
H634 H 0.11544 0.54869 0.49594 0.0
H635 H 0.10423 0.51212 0.48534 0.0
C636 C 0.88783 0.93377 0.4823 0.0
C637 C 0.89192 0.91595 0.46883 0.0
C638 C 0.89527 0.95436 0.47656 0.0
C639 C 0.91771 0.98654 0.43111 0.0
H640 H 0.95307 0.01338 0.47534 0.0
C641 C -0.00078 0.03959 0.43413 0.0
C642 C 0.99503 0.05506 0.41802 0.0
C643 C 0.98256 0.02686 0.44244 0.0
C644 C 0.94313 0.00618 0.46287 0.0
H645 H 0.90575 0.90581 0.43829 0.0
H646 H 0.91853 0.9416 0.42821 0.0
H647 H 0.93001 0.98278 0.48471 0.0
H648 H 0.96975 0.07006 0.39887 0.0
H649 H 0.94065 0.04771 0.4134 0.0
H650 H 0.93173 0.00911 0.40901 0.0
C651 C 0.90959 0.93981 0.44315 0.0
C652 C 0.92974 0.9888 0.46828 0.0
C653 C 0.90237 0.91927 0.44898 0.0
C654 C 0.97358 0.05822 0.41119 0.0
C655 C 0.95691 0.04536 0.41943 0.0
C656 C 0.93102 0.00396 0.42572 0.0
C657 C 0.90666 0.95747 0.45714 0.0
C658 C 0.91746 0.97834 0.45229 0.0
C659 C 0.96131 0.02923 0.43481 0.0
C660 C 0.94443 0.01349 0.44139 0.0
H661 H 0.87989 0.93164 0.49776 0.0
H662 H 0.89268 0.96771 0.48758 0.0
H663 H 0.90824 0.97893 0.41851 0.0
H664 H 0.01551 0.03685 0.43991 0.0
H665 H 0.98656 0.01443 0.45411 0.0
C666 C 0.38267 0.55447 0.51617 0.0
C667 C 0.37739 0.57032 0.53144 0.0
C668 C 0.38837 0.53366 0.5229 0.0
C669 C 0.4089 0.50655 0.57261 0.0
H670 H 0.41105 0.45688 0.53444 0.0
C671 C 0.45393 0.42974 0.59693 0.0
C672 C 0.47228 0.42743 0.58373 0.0
C673 C 0.43663 0.4426 0.59021 0.0
C674 C 0.41025 0.47057 0.54533 0.0
H675 H 0.37191 0.5768 0.56531 0.0
H676 H 0.37978 0.54006 0.57705 0.0
H677 H 0.3896 0.48846 0.5242 0.0
H678 H 0.48605 0.43495 0.5524 0.0
H679 H 0.4555 0.45699 0.54046 0.0
H680 H 0.4294 0.48847 0.59374 0.0
C681 C 0.38096 0.54374 0.56 0.0
C682 C 0.3982 0.48879 0.53942 0.0
C683 C 0.37613 0.56474 0.55331 0.0
C684 C 0.47218 0.4366 0.56295 0.0
C685 C 0.45466 0.44906 0.55606 0.0
C686 C 0.42039 0.48817 0.57873 0.0
C687 C 0.38825 0.52816 0.54503 0.0
C688 C 0.39794 0.50736 0.55266 0.0
C689 C 0.43717 0.45287 0.56998 0.0
C690 C 0.42169 0.4703 0.5649 0.0
H691 H 0.38391 0.55858 0.49919 0.0
H692 H 0.3941 0.52243 0.51079 0.0
H693 H 0.40974 0.52048 0.58314 0.0
H694 H 0.45359 0.4229 0.61305 0.0
H695 H 0.4233 0.4454 0.60121 0.0
C696 C 0.55476 0.51733 0.05051 0.0
C697 C 0.57535 0.52042 0.05951 0.0
C698 C 0.54634 0.53228 0.03591 0.0
C699 C 0.54603 0.55146 0.99154 0.0
H700 H 0.55265 0.61377 0.98885 0.0
C701 C 0.5498 0.59461 0.91104 0.0
C702 C 0.53357 0.61007 0.90753 0.0
C703 C 0.55426 0.58728 0.93184 0.0
C704 C 0.5506 0.59639 0.98953 0.0
H705 H 0.60239 0.54253 0.06199 0.0
H706 H 0.58786 0.56853 0.03598 0.0
H707 H 0.55927 0.59464 0.02315 0.0
H708 H 0.51044 0.63124 0.92322 0.0
H709 H 0.51855 0.61845 0.95992 0.0
H710 H 0.53802 0.55297 0.95799 0.0
C711 C 0.57813 0.55466 0.04039 0.0
C712 C 0.55443 0.58548 0.00904 0.0
C713 C 0.58649 0.53975 0.05524 0.0
C714 C 0.523 0.61926 0.92545 0.0
C715 C 0.52762 0.612 0.94641 0.0
C716 C 0.54248 0.56227 0.97215 0.0
C717 C 0.55847 0.55049 0.02978 0.0
C718 C 0.55236 0.56284 0.01015 0.0
C719 C 0.54274 0.5954 0.94961 0.0
C720 C 0.54509 0.58474 0.97085 0.0
H721 H 0.54564 0.50275 0.05387 0.0
H722 H 0.5309 0.52891 0.02839 0.0
H723 H 0.54463 0.534 0.99169 0.0
H724 H 0.5584 0.5874 0.89761 0.0
H725 H 0.56618 0.57464 0.93399 0.0
C726 C 0.44049 0.00247 0.05061 0.0
C727 C 0.42033 0.99822 0.06012 0.0
C728 C 0.44969 0.98775 0.03626 0.0
C729 C 0.44601 0.9329 0.01225 0.0
H730 H 0.4606 0.96372 0.95962 0.0
C731 C 0.4544 0.91825 0.91506 0.0
C732 C 0.47147 0.90342 0.91313 0.0
C733 C 0.44888 0.92676 0.93515 0.0
C734 C 0.45665 0.95489 0.97422 0.0
H735 H 0.39489 0.97439 0.06361 0.0
H736 H 0.41084 0.9487 0.03806 0.0
H737 H 0.45149 0.98394 0.99198 0.0
H738 H 0.4952 0.88475 0.93092 0.0
H739 H 0.48528 0.89966 0.96638 0.0
H740 H 0.45089 0.90374 0.9939 0.0
C741 C 0.41958 0.96338 0.04186 0.0
C742 C 0.45165 0.96645 0.99284 0.0
C743 C 0.41042 0.97811 0.05643 0.0
C744 C 0.48201 0.89621 0.93194 0.0
C745 C 0.47634 0.90467 0.95219 0.0
C746 C 0.4513 0.92124 0.99353 0.0
C747 C 0.43884 0.96852 0.03094 0.0
C748 C 0.44602 0.95565 0.01201 0.0
C749 C 0.46018 0.92054 0.95379 0.0
C750 C 0.45622 0.93222 0.97426 0.0
H751 H 0.44874 0.01765 0.05352 0.0
H752 H 0.46481 0.99191 0.02847 0.0
H753 H 0.44176 0.92417 0.02683 0.0
H754 H 0.44578 0.92394 0.90093 0.0
H755 H 0.43615 0.93876 0.93603 0.0
C756 C 0.55688 0.38977 0.56675 0.0
C757 C 0.5378 0.37833 0.5711 0.0
C758 C 0.56328 0.39367 0.54552 0.0
C759 C 0.53917 0.40276 0.49295 0.0
H760 H 0.59917 0.41047 0.47668 0.0
C761 C 0.59716 0.45103 0.42719 0.0
C762 C 0.58718 0.47136 0.42913 0.0
C763 C 0.58955 0.43334 0.43909 0.0
C764 C 0.5823 0.40799 0.4806 0.0
H765 H 0.51101 0.36096 0.55671 0.0
H766 H 0.52218 0.36795 0.51934 0.0
H767 H 0.59022 0.38905 0.50844 0.0
H768 H 0.56029 0.48859 0.44362 0.0
H769 H 0.54726 0.45805 0.46442 0.0
H770 H 0.53129 0.42237 0.46555 0.0
C771 C 0.53214 0.3739 0.53244 0.0
C772 C 0.57719 0.39589 0.49896 0.0
C773 C 0.52581 0.36982 0.55379 0.0
C774 C 0.56854 0.47324 0.44197 0.0
C775 C 0.5609 0.4556 0.45373 0.0
C776 C 0.54427 0.41483 0.47455 0.0
C777 C 0.55068 0.38633 0.5281 0.0
C778 C 0.55565 0.39406 0.50593 0.0
C779 C 0.5717 0.43562 0.45299 0.0
C780 C 0.56595 0.41847 0.4688 0.0
H781 H 0.56646 0.39647 0.57979 0.0
H782 H 0.57747 0.40356 0.54281 0.0
H783 H 0.52241 0.40167 0.49787 0.0
H784 H 0.61148 0.449 0.41733 0.0
H785 H 0.59807 0.41809 0.438 0.0
C786 C 0.47526 0.11778 0.54585 0.0
C787 C 0.46271 0.1126 0.56405 0.0
C788 C 0.46887 0.11089 0.52527 0.0
C789 C 0.46106 0.07666 0.49071 0.0
H790 H 0.40118 0.06969 0.47369 0.0
C791 C 0.43045 0.00284 0.44456 0.0
C792 C 0.41286 0.00469 0.43031 0.0
C793 C 0.43794 0.0208 0.45594 0.0
C794 C 0.41804 0.07182 0.47786 0.0
H795 H 0.43296 0.09771 0.57492 0.0
H796 H 0.42178 0.0858 0.53923 0.0
H797 H 0.4104 0.0947 0.50267 0.0
H798 H 0.39012 0.02724 0.41598 0.0
H799 H 0.40329 0.05867 0.43592 0.0
H800 H 0.46864 0.05332 0.46632 0.0
C801 C 0.43648 0.09519 0.54064 0.0
C802 C 0.42329 0.08601 0.49462 0.0
C803 C 0.44294 0.1019 0.56115 0.0
C804 C 0.40361 0.02519 0.42694 0.0
C805 C 0.41109 0.0432 0.43842 0.0
C806 C 0.45581 0.06249 0.47392 0.0
C807 C 0.44972 0.09892 0.52256 0.0
C808 C 0.44475 0.08792 0.50181 0.0
C809 C 0.42806 0.0411 0.45339 0.0
C810 C 0.43414 0.05926 0.4679 0.0
H811 H 0.49063 0.12595 0.54765 0.0
H812 H 0.47931 0.11416 0.51161 0.0
H813 H 0.47774 0.07765 0.4959 0.0
H814 H 0.4381 0.98736 0.44744 0.0
H815 H 0.45086 0.0185 0.46753 0.0
C816 C 0.04873 0.56221 0.53361 0.0
C817 C 0.05718 0.58324 0.53218 0.0
C818 C 0.03513 0.55651 0.55069 0.0
C819 C 0.99229 0.5806 0.5787 0.0
H820 H 0.9909 0.52924 0.61454 0.0
C821 C 0.91267 0.55537 0.61803 0.0
C822 C 0.90827 0.53319 0.61872 0.0
C823 C 0.93364 0.56272 0.61407 0.0
C824 C 0.99088 0.54356 0.60449 0.0
H825 H 0.05923 0.61437 0.5481 0.0
H826 H 0.03466 0.60459 0.57762 0.0
H827 H 0.02413 0.539 0.59553 0.0
H828 H 0.92204 0.50116 0.61625 0.0
H829 H 0.95827 0.51372 0.60773 0.0
H830 H 0.95887 0.58434 0.5855 0.0
C831 C 0.03896 0.59246 0.56573 0.0
C832 C 0.01003 0.54924 0.59386 0.0
C833 C 0.05302 0.59801 0.54891 0.0
C834 C 0.92519 0.51839 0.61604 0.0
C835 C 0.94604 0.52569 0.61128 0.0
C836 C 0.97305 0.57465 0.58878 0.0
C837 C 0.02939 0.57189 0.56634 0.0
C838 C 0.01074 0.56762 0.58061 0.0
C839 C 0.95049 0.548 0.60972 0.0
C840 C 0.97186 0.55577 0.60149 0.0
H841 H 0.05177 0.55052 0.52092 0.0
H842 H 0.02777 0.54061 0.55073 0.0
H843 H 0.99236 0.59466 0.56825 0.0
H844 H 0.89979 0.56704 0.62023 0.0
H845 H 0.9364 0.57998 0.6138 0.0
C846 C 0.95508 0.9183 0.52308 0.0
C847 C 0.94349 0.89906 0.52636 0.0
C848 C 0.97053 0.925 0.53801 0.0
C849 C 0.99468 0.91716 0.59186 0.0
H850 H 0.04835 0.92457 0.56027 0.0
C851 C 0.07788 0.94916 0.62482 0.0
C852 C 0.09603 0.93751 0.61762 0.0
C853 C 0.05714 0.94349 0.61775 0.0
C854 C 0.0335 0.92248 0.56933 0.0
H855 H 0.93745 0.87286 0.54885 0.0
H856 H 0.96484 0.88454 0.575 0.0
H857 H 0.01489 0.9189 0.54055 0.0
H858 H 0.10655 0.90969 0.59906 0.0
H859 H 0.0705 0.90002 0.58661 0.0
H860 H 0.01374 0.92088 0.62074 0.0
C861 C 0.96184 0.89441 0.56085 0.0
C862 C 0.01431 0.91948 0.55805 0.0
C863 C 0.94621 0.88772 0.54588 0.0
C864 C 0.09292 0.91914 0.60467 0.0
C865 C 0.07231 0.91359 0.59753 0.0
C866 C 0.01401 0.92052 0.60324 0.0
C867 C 0.97481 0.91255 0.5565 0.0
C868 C 0.9947 0.91672 0.56913 0.0
C869 C 0.05436 0.92619 0.60333 0.0
C870 C 0.03359 0.92293 0.59199 0.0
H871 H 0.95302 0.92762 0.50839 0.0
H872 H 0.98002 0.93929 0.53449 0.0
H873 H 0.97975 0.91503 0.60075 0.0
H874 H 0.0798 0.96337 0.63487 0.0
H875 H 0.04352 0.95346 0.62238 0.0
C876 C 0.05788 0.40683 0.97727 0.0
C877 C 0.0559 0.4147 0.99851 0.0
C878 C 0.04458 0.41478 0.96081 0.0
C879 C 0.00225 0.42138 0.93656 0.0
H880 H 0.98351 0.48112 0.93322 0.0
C881 C 0.91769 0.44676 0.90938 0.0
C882 C 0.91497 0.46589 0.8975 0.0
C883 C 0.93813 0.44058 0.91657 0.0
C884 C 0.98883 0.46444 0.93362 0.0
H885 H 0.03938 0.4381 0.01877 0.0
H886 H 0.01621 0.45184 0.99016 0.0
H887 H 0.01459 0.47162 0.95561 0.0
H888 H 0.93156 0.49319 0.88309 0.0
H889 H 0.96745 0.48243 0.8959 0.0
H890 H 0.97605 0.4141 0.91518 0.0
C891 C 0.02803 0.43955 0.98618 0.0
C892 C 0.00648 0.45898 0.94661 0.0
C893 C 0.04119 0.43152 0.00265 0.0
C894 C 0.93322 0.4783 0.89215 0.0
C895 C 0.95371 0.47223 0.89958 0.0
C896 C 0.98455 0.42683 0.92367 0.0
C897 C 0.02919 0.43091 0.96521 0.0
C898 C 0.01297 0.4373 0.94872 0.0
C899 C 0.95628 0.4535 0.91221 0.0
C900 C 0.97725 0.44831 0.92259 0.0
H901 H 0.0691 0.39394 0.9735 0.0
H902 H 0.04598 0.40796 0.94475 0.0
H903 H 0.00675 0.40452 0.93793 0.0
H904 H 0.9039 0.4369 0.91375 0.0
H905 H 0.93952 0.42621 0.92648 0.0
C906 C 0.06526 0.03889 0.88986 0.0
C907 C 0.08308 0.05189 0.89524 0.0
C908 C 0.0445 0.04452 0.89687 0.0
C909 C 0.01224 0.08937 0.92058 0.0
H910 H 0.9826 0.04361 0.95149 0.0
C911 C 0.95539 0.08217 0.99923 0.0
C912 C 0.94076 0.09917 0.99565 0.0
C913 C 0.96855 0.07463 0.98254 0.0
C914 C 0.99059 0.05653 0.94279 0.0
H915 H 0.09306 0.0815 0.91107 0.0
H916 H 0.05703 0.09133 0.92321 0.0
H917 H 0.01408 0.03498 0.9294 0.0
H918 H 0.92762 0.12076 0.97132 0.0
H919 H 0.9507 0.10757 0.94212 0.0
H920 H 0.98958 0.11111 0.93499 0.0
C921 C 0.05893 0.07687 0.91353 0.0
C922 C 0.00849 0.05156 0.92995 0.0
C923 C 0.07963 0.07116 0.90669 0.0
C924 C 0.9388 0.10771 0.97467 0.0
C925 C 0.95208 0.10023 0.95796 0.0
C926 C 0.99433 0.09434 0.93339 0.0
C927 C 0.0412 0.06336 0.90917 0.0
C928 C 0.01996 0.06804 0.9193 0.0
C929 C 0.96744 0.08394 0.96185 0.0
C930 C 0.98376 0.07807 0.94523 0.0
H931 H 0.06747 0.0239 0.88109 0.0
H932 H 0.03112 0.03388 0.89314 0.0
H933 H 0.02059 0.10238 0.91235 0.0
H934 H 0.95721 0.07507 0.01514 0.0
H935 H 0.98035 0.06223 0.98617 0.0
C936 C 0.54286 0.05802 0.58257 0.0
C937 C 0.52364 0.06302 0.57158 0.0
C938 C 0.55768 0.04351 0.57354 0.0
C939 C 0.58812 0.01239 0.54982 0.0
H940 H 0.55497 0.96314 0.52968 0.0
C941 C 0.61966 0.92605 0.52204 0.0
C942 C 0.60936 0.90945 0.5337 0.0
C943 C 0.61311 0.9476 0.52464 0.0
C944 C 0.56447 0.97685 0.53503 0.0
H945 H 0.50611 0.05913 0.54153 0.0
H946 H 0.53224 0.0344 0.52548 0.0
H947 H 0.53688 0.99735 0.53589 0.0
H948 H 0.58524 0.90252 0.5582 0.0
H949 H 0.57373 0.93987 0.56241 0.0
H950 H 0.61558 0.99102 0.54975 0.0
C951 C 0.53555 0.04099 0.54136 0.0
C952 C 0.55418 0.99655 0.5384 0.0
C953 C 0.52061 0.05518 0.55051 0.0
C954 C 0.59334 0.91489 0.54882 0.0
C955 C 0.58673 0.93624 0.55124 0.0
C956 C 0.5985 0.99255 0.54624 0.0
C957 C 0.55359 0.034 0.55328 0.0
C958 C 0.56571 0.01444 0.54637 0.0
C959 C 0.59612 0.95268 0.53878 0.0
C960 C 0.58654 0.97451 0.53945 0.0
H961 H 0.54558 0.06388 0.59884 0.0
H962 H 0.57137 0.03845 0.58318 0.0
H963 H 0.59745 0.02591 0.55586 0.0
H964 H 0.63206 0.9223 0.51028 0.0
H965 H 0.62053 0.9601 0.51488 0.0
C966 C 0.61068 0.09194 0.92439 0.0
C967 C 0.62066 0.09512 0.94449 0.0
C968 C 0.6074 0.07113 0.91642 0.0
C969 C 0.59773 0.01648 0.93576 0.0
H970 H 0.59585 0.00471 0.87422 0.0
C971 C 0.55014 0.94431 0.89855 0.0
C972 C 0.53407 0.95256 0.88481 0.0
C973 C 0.5673 0.95759 0.90517 0.0
C974 C 0.59662 0.00758 0.89148 0.0
H975 H 0.63587 0.07908 0.97167 0.0
H976 H 0.62997 0.04246 0.95774 0.0
H977 H 0.61527 0.03641 0.88743 0.0
H978 H 0.52369 0.98037 0.8663 0.0
H979 H 0.55381 0.00321 0.87721 0.0
H980 H 0.57809 0.98817 0.93959 0.0
C981 C 0.62468 0.05614 0.94818 0.0
C982 C 0.60762 0.02576 0.89904 0.0
C983 C 0.62814 0.07708 0.9561 0.0
C984 C 0.53588 0.97374 0.87698 0.0
C985 C 0.55319 0.98672 0.88309 0.0
C986 C 0.58682 0.99817 0.92817 0.0
C987 C 0.61392 0.05295 0.92842 0.0
C988 C 0.60732 0.03103 0.92114 0.0
C989 C 0.56886 0.97896 0.89754 0.0
C990 C 0.58528 0.99421 0.90588 0.0
H991 H 0.60477 0.10554 0.91507 0.0
H992 H 0.59874 0.06929 0.90133 0.0
H993 H 0.59712 0.0201 0.95287 0.0
H994 H 0.54893 0.92801 0.90483 0.0
H995 H 0.57915 0.95133 0.91643 0.0
C996 C 0.44918 0.5673 0.88197 0.0
C997 C 0.46947 0.56497 0.89194 0.0
C998 C 0.43137 0.55546 0.8894 0.0
C999 C 0.41233 0.52006 0.93441 0.0
H1000 H 0.3865 0.48628 0.8884 0.0
C1001 C 0.36688 0.44149 0.95342 0.0
C1002 C 0.37509 0.42397 0.94152 0.0
C1003 C 0.37102 0.46274 0.9468 0.0
C1004 C 0.39337 0.49572 0.90145 0.0
H1005 H 0.48655 0.54985 0.91857 0.0
H1006 H 0.45575 0.52927 0.93137 0.0
H1007 H 0.40827 0.51785 0.87948 0.0
H1008 H 0.39262 0.41483 0.91261 0.0
H1009 H 0.39992 0.45165 0.90115 0.0
H1010 H 0.39887 0.49696 0.95629 0.0
C1011 C 0.45344 0.54018 0.91786 0.0
C1012 C 0.40566 0.51397 0.89635 0.0
C1013 C 0.47121 0.55181 0.91036 0.0
C1014 C 0.38618 0.42802 0.92216 0.0
C1015 C 0.3902 0.44917 0.9155 0.0
C1016 C 0.40008 0.50179 0.93951 0.0
C1017 C 0.43349 0.54132 0.90708 0.0
C1018 C 0.41614 0.52571 0.91274 0.0
C1019 C 0.38327 0.46679 0.92808 0.0
C1020 C 0.39133 0.48884 0.92301 0.0
H1021 H 0.44731 0.57738 0.86778 0.0
H1022 H 0.41615 0.55682 0.88088 0.0
H1023 H 0.4199 0.52901 0.94741 0.0
H1024 H 0.35822 0.43884 0.96841 0.0
H1025 H 0.3653 0.47597 0.95673 0.0
C1026 C 0.88175 0.06686 0.04072 0.0
C1027 C 0.88739 0.08465 0.05366 0.0
C1028 C 0.88848 0.04602 0.0464 0.0
C1029 C 0.91271 0.01342 0.09078 0.0
H1030 H 0.94368 0.98487 0.04436 0.0
C1031 C 0.99228 0.9582 0.08218 0.0
C1032 C 0.98905 0.94307 0.09883 0.0
C1033 C 0.97529 0.97117 0.07501 0.0
C1034 C 0.93495 0.99254 0.05746 0.0
H1035 H 0.90308 0.09447 0.08339 0.0
H1036 H 0.91475 0.05827 0.0933 0.0
H1037 H 0.92103 0.01611 0.03635 0.0
H1038 H 0.96509 0.92892 0.12019 0.0
H1039 H 0.93538 0.95172 0.10764 0.0
H1040 H 0.92767 0.99066 0.11207 0.0
C1041 C 0.90512 0.06027 0.07882 0.0
C1042 C 0.92179 0.0103 0.05284 0.0
C1043 C 0.89855 0.08106 0.07308 0.0
C1044 C 0.96815 0.94046 0.10738 0.0
C1045 C 0.95115 0.95359 0.10029 0.0
C1046 C 0.92583 0.99562 0.09539 0.0
C1047 C 0.90076 0.0426 0.06521 0.0
C1048 C 0.91112 0.02139 0.06956 0.0
C1049 C 0.95466 0.9694 0.08435 0.0
C1050 C 0.9377 0.98547 0.07888 0.0
H1051 H 0.87315 0.06914 0.02565 0.0
H1052 H 0.8847 0.03268 0.0357 0.0
H1053 H 0.90449 0.02149 0.10396 0.0
H1054 H 0.00812 0.96052 0.07511 0.0
H1055 H 0.97862 0.98334 0.06287 0.0
C1056 C 0.02318 0.16572 0.33397 0.0
C1057 C 0.00915 0.15557 0.34861 0.0
C1058 C 0.01875 0.18654 0.32637 0.0
C1059 C 0.9768 0.23079 0.32804 0.0
H1060 H 0.02723 0.26728 0.3216 0.0
C1061 C 0.00181 0.32524 0.34188 0.0
C1062 C 0.982 0.33491 0.33662 0.0
C1063 C 0.00555 0.30348 0.33713 0.0
C1064 C 0.01291 0.25744 0.32354 0.0
H1065 H 0.97918 0.15883 0.36631 0.0
H1066 H 0.97199 0.19546 0.35425 0.0
H1067 H 0.03181 0.22879 0.32607 0.0
H1068 H 0.95136 0.33008 0.32047 0.0
H1069 H 0.95836 0.29252 0.31084 0.0
H1070 H 0.95803 0.25966 0.32768 0.0
C1071 C 0.98603 0.18729 0.34778 0.0
C1072 C 0.01551 0.2351 0.32568 0.0
C1073 C 0.99018 0.16624 0.35487 0.0
C1074 C 0.96672 0.32295 0.32488 0.0
C1075 C 0.97066 0.3013 0.31963 0.0
C1076 C 0.97423 0.25319 0.3265 0.0
C1077 C 0.0005 0.19799 0.33378 0.0
C1078 C 0.99752 0.22144 0.32853 0.0
C1079 C 0.98974 0.29095 0.32654 0.0
C1080 C 0.99229 0.26694 0.3248 0.0
H1081 H 0.03784 0.15771 0.32872 0.0
H1082 H 0.02997 0.1938 0.3151 0.0
H1083 H 0.96244 0.22091 0.32952 0.0
H1084 H 0.01384 0.33401 0.35109 0.0
H1085 H 0.02033 0.29628 0.34306 0.0
C1086 C 0.96919 0.67419 0.18783 0.0
C1087 C 0.98385 0.66282 0.17479 0.0
C1088 C 0.9733 0.69564 0.1937 0.0
C1089 C 0.01475 0.74018 0.18874 0.0
H1090 H 0.96352 0.7761 0.18741 0.0
C1091 C 0.98881 0.83197 0.1621 0.0
C1092 C 0.00801 0.84273 0.16746 0.0
C1093 C 0.9854 0.81065 0.1688 0.0
C1094 C 0.97807 0.76641 0.18759 0.0
H1095 H 0.01478 0.66448 0.15856 0.0
H1096 H 0.0215 0.70197 0.16765 0.0
H1097 H 0.95975 0.73728 0.18807 0.0
H1098 H 0.03792 0.84043 0.18542 0.0
H1099 H 0.03141 0.80383 0.19841 0.0
H1100 H 0.03305 0.76922 0.18606 0.0
C1101 C 0.00714 0.69442 0.17415 0.0
C1102 C 0.97591 0.74393 0.18846 0.0
C1103 C 0.00328 0.67281 0.16881 0.0
C1104 C 0.02305 0.83237 0.1809 0.0
C1105 C 0.01939 0.81126 0.18811 0.0
C1106 C 0.01691 0.76263 0.18728 0.0
C1107 C 0.99186 0.70642 0.18608 0.0
C1108 C 0.99422 0.7304 0.18848 0.0
C1109 C 0.00088 0.79975 0.1815 0.0
C1110 C 0.99859 0.7761 0.18611 0.0
H1111 H 0.95413 0.66677 0.1928 0.0
H1112 H 0.96146 0.70395 0.20353 0.0
H1113 H 0.0293 0.7305 0.18938 0.0
H1114 H 0.97703 0.83952 0.15158 0.0
H1115 H 0.9711 0.80247 0.16296 0.0
C1116 C 0.34555 0.99251 0.16565 0.0
C1117 C 0.34534 0.01367 0.15741 0.0
C1118 C 0.33872 0.98843 0.18687 0.0
C1119 C 0.31754 0.98374 0.23168 0.0
H1120 H 0.34459 0.02395 0.2714 0.0
C1121 C 0.33425 0.00019 0.3294 0.0
C1122 C 0.33968 0.97897 0.33535 0.0
C1123 C 0.32839 0.00494 0.30806 0.0
C1124 C 0.33638 0.01281 0.26069 0.0
H1125 H 0.33604 0.0468 0.1642 0.0
H1126 H 0.32401 0.03966 0.20097 0.0
H1127 H 0.34601 0.0309 0.23292 0.0
H1128 H 0.34162 0.94584 0.32402 0.0
H1129 H 0.3321 0.95413 0.28694 0.0
H1130 H 0.30823 0.96544 0.25957 0.0
C1131 C 0.32984 0.02629 0.19128 0.0
C1132 C 0.33729 0.01678 0.23852 0.0
C1133 C 0.33667 0.03035 0.17017 0.0
C1134 C 0.33759 0.96239 0.31996 0.0
C1135 C 0.33198 0.96715 0.29862 0.0
C1136 C 0.31644 0.97985 0.25397 0.0
C1137 C 0.33155 0.00546 0.20015 0.0
C1138 C 0.32826 0.00211 0.22372 0.0
C1139 C 0.32809 0.98861 0.29218 0.0
C1140 C 0.32629 0.99411 0.26876 0.0
H1141 H 0.35215 0.97933 0.15621 0.0
H1142 H 0.3403 0.97222 0.19327 0.0
H1143 H 0.31025 0.97225 0.22067 0.0
H1144 H 0.33553 0.0133 0.34093 0.0
H1145 H 0.32495 0.02157 0.30384 0.0
C1146 C 0.64605 0.51703 0.16738 0.0
C1147 C 0.652 0.49957 0.15424 0.0
C1148 C 0.65345 0.51827 0.1887 0.0
C1149 C 0.67456 0.48159 0.23157 0.0
H1150 H 0.6726 0.53457 0.26477 0.0
C1151 C 0.6556 0.4817 0.32227 0.0
C1152 C 0.66078 0.49981 0.33485 0.0
C1153 C 0.66116 0.48106 0.30038 0.0
C1154 C 0.67378 0.51956 0.25588 0.0
H1155 H 0.67188 0.47087 0.15215 0.0
H1156 H 0.6861 0.47381 0.18873 0.0
H1157 H 0.67169 0.53631 0.22578 0.0
H1158 H 0.67768 0.53044 0.33519 0.0
H1159 H 0.68877 0.52872 0.29744 0.0
H1160 H 0.67753 0.46488 0.26161 0.0
C1161 C 0.67481 0.48597 0.18319 0.0
C1162 C 0.67279 0.52057 0.23333 0.0
C1163 C 0.66691 0.48441 0.16209 0.0
C1164 C 0.67333 0.51636 0.32573 0.0
C1165 C 0.67941 0.51547 0.30399 0.0
C1166 C 0.67611 0.48061 0.25408 0.0
C1167 C 0.66741 0.50234 0.19717 0.0
C1168 C 0.6723 0.50157 0.22085 0.0
C1169 C 0.67248 0.49833 0.29069 0.0
C1170 C 0.67487 0.49952 0.26666 0.0
H1171 H 0.63438 0.52881 0.16175 0.0
H1172 H 0.64706 0.53102 0.19883 0.0
H1173 H 0.6741 0.46649 0.22277 0.0
H1174 H 0.64574 0.46882 0.32886 0.0
H1175 H 0.65524 0.46765 0.29085 0.0
C1176 C 0.32328 0.3261 0.96849 0.0
C1177 C 0.33476 0.33836 0.98374 0.0
C1178 C 0.30195 0.31981 0.97256 0.0
C1179 C 0.25817 0.32189 0.01505 0.0
H1180 H 0.22126 0.32619 0.96469 0.0
C1181 C 0.1663 0.35076 0.99259 0.0
C1182 C 0.15601 0.34472 0.01185 0.0
C1183 C 0.18737 0.34387 0.98827 0.0
C1184 C 0.23124 0.32517 0.97901 0.0
H1185 H 0.3334 0.35271 0.01562 0.0
H1186 H 0.29615 0.34294 0.02232 0.0
H1187 H 0.25999 0.32576 0.96011 0.0
H1188 H 0.15876 0.32535 0.04084 0.0
H1189 H 0.19486 0.31198 0.03266 0.0
H1190 H 0.22957 0.32358 0.03408 0.0
C1191 C 0.30352 0.33736 0.00748 0.0
C1192 C 0.25366 0.32443 0.97635 0.0
C1193 C 0.32499 0.34312 0.00362 0.0
C1194 C 0.16649 0.33041 0.02596 0.0
C1195 C 0.18732 0.32297 0.02134 0.0
C1196 C 0.23579 0.32326 0.01774 0.0
C1197 C 0.29141 0.3262 0.99172 0.0
C1198 C 0.26753 0.32341 0.99437 0.0
C1199 C 0.19845 0.33028 0.00286 0.0
C1200 C 0.22198 0.32554 -0.00021 0.0
H1201 H 0.33053 0.32205 0.95307 0.0
H1202 H 0.29354 0.31062 0.96029 0.0
H1203 H 0.26812 0.3204 0.02935 0.0
H1204 H 0.15863 0.36196 0.98153 0.0
H1205 H 0.19526 0.35026 0.97404 0.0
C1206 C 0.16323 0.65838 0.47503 0.0
C1207 C 0.1532 0.65156 0.49424 0.0
C1208 C 0.18459 0.66558 0.47516 0.0
C1209 C 0.23054 0.68233 0.50981 0.0
H1210 H 0.26447 0.65146 0.46712 0.0
C1211 C 0.32047 0.66281 0.52087 0.0
C1212 C 0.3336 0.65905 0.50272 0.0
C1213 C 0.29881 0.66855 0.5184 0.0
C1214 C 0.25534 0.66073 0.47882 0.0
H1215 H 0.15718 0.64842 0.52889 0.0
H1216 H 0.1947 0.6609 0.52912 0.0
H1217 H 0.22541 0.64939 0.46594 0.0
H1218 H 0.33487 0.66039 0.46775 0.0
H1219 H 0.2971 0.67105 0.46338 0.0
H1220 H 0.26061 0.69329 0.52297 0.0
C1221 C 0.18596 0.66077 0.51396 0.0
C1222 C 0.23284 0.65946 0.47819 0.0
C1223 C 0.16448 0.65356 0.51384 0.0
C1224 C 0.32512 0.663 0.48205 0.0
C1225 C 0.3034 0.66891 0.47956 0.0
C1226 C 0.25312 0.68377 0.51034 0.0
C1227 C 0.19646 0.66611 0.49449 0.0
C1228 C 0.22018 0.66983 0.49394 0.0
C1229 C 0.28975 0.67085 0.4977 0.0
C1230 C 0.26584 0.67251 0.49517 0.0
H1231 H 0.15488 0.65729 0.45968 0.0
H1232 H 0.19209 0.66998 0.45996 0.0
H1233 H 0.2212 0.69071 0.52202 0.0
H1234 H 0.32653 0.66004 0.53706 0.0
H1235 H 0.28889 0.66972 0.53277 0.0
C1236 C 0.67359 0.81853 0.49547 0.0
C1237 C 0.66186 0.82157 0.51468 0.0
C1238 C 0.69555 0.81315 0.49624 0.0
C1239 C 0.74157 0.8224 0.53183 0.0
H1240 H 0.77282 0.78794 0.4899 0.0
C1241 C 0.83409 0.82791 0.52642 0.0
C1242 C 0.84191 0.8307 0.50529 0.0
C1243 C 0.81295 0.82056 0.52991 0.0
C1244 C 0.76434 0.79766 0.50173 0.0
H1245 H 0.66342 0.81943 0.54965 0.0
H1246 H 0.70157 0.80989 0.55093 0.0
H1247 H 0.7334 0.78613 0.49118 0.0
H1248 H 0.83423 0.8266 0.47132 0.0
H1249 H 0.79758 0.81434 0.47731 0.0
H1250 H 0.77219 0.83487 0.54166 0.0
C1251 C 0.69396 0.81208 0.53531 0.0
C1252 C 0.74177 0.79658 0.50247 0.0
C1253 C 0.67206 0.81745 0.53455 0.0
C1254 C 0.82868 0.82475 0.48782 0.0
C1255 C 0.80763 0.8175 0.49128 0.0
C1256 C 0.76408 0.82361 0.53099 0.0
C1257 C 0.70615 0.8107 0.51622 0.0
C1258 C 0.73011 0.80933 0.5172 0.0
C1259 C 0.79924 0.8159 0.51233 0.0
C1260 C 0.77575 0.8117 0.51555 0.0
H1261 H 0.66618 0.8216 0.47991 0.0
H1262 H 0.70451 0.8123 0.48122 0.0
H1263 H 0.7331 0.83268 0.54318 0.0
H1264 H 0.84395 0.83225 0.54022 0.0
H1265 H 0.80714 0.81917 0.54636 0.0
C1266 C 0.52187 0.83136 0.83787 0.0
C1267 C 0.50472 0.84476 0.83163 0.0
C1268 C 0.52224 0.80964 0.83158 0.0
C1269 C 0.52321 0.76439 0.81347 0.0
H1270 H 0.46702 0.73707 0.80964 0.0
C1271 C 0.51715 0.67193 0.81159 0.0
C1272 C 0.50047 0.66281 0.82395 0.0
C1273 C 0.51677 0.69388 0.80623 0.0
C1274 C 0.48289 0.74432 0.81085 0.0
H1275 H 0.47551 0.84673 0.81253 0.0
H1276 H 0.4769 0.80941 0.80017 0.0
H1277 H 0.46934 0.77588 0.81301 0.0
H1278 H 0.46983 0.66911 0.83957 0.0
H1279 H 0.46958 0.70745 0.83137 0.0
H1280 H 0.53666 0.73269 0.81344 0.0
C1281 C 0.4895 0.81508 0.81089 0.0
C1282 C 0.48427 0.76682 0.81235 0.0
C1283 C 0.4888 0.83658 0.81773 0.0
C1284 C 0.4828 0.6757 0.82983 0.0
C1285 C 0.48268 0.69778 0.82501 0.0
C1286 C 0.5218 0.74186 0.81254 0.0
C1287 C 0.50573 0.801 0.81841 0.0
C1288 C 0.50445 0.77721 0.81415 0.0
C1289 C 0.50002 0.70737 0.81372 0.0
C1290 C 0.50158 0.73142 0.81171 0.0
H1291 H 0.53423 0.83728 0.84877 0.0
H1292 H 0.53489 0.79945 0.83805 0.0
H1293 H 0.5391 0.77167 0.81422 0.0
H1294 H 0.53089 0.66224 0.8067 0.0
H1295 H 0.53005 0.70037 0.79689 0.0
C1296 C 0.48567 0.32311 0.6546 0.0
C1297 C 0.50387 0.33587 0.65895 0.0
C1298 C 0.48529 0.30134 0.66064 0.0
C1299 C 0.52431 0.25724 0.67277 0.0
H1300 H 0.47138 0.22399 0.67466 0.0
C1301 C 0.48901 0.1635 0.6658 0.0
C1302 C 0.50379 0.1559 0.65038 0.0
C1303 C 0.49082 0.18444 0.67408 0.0
C1304 C 0.48647 0.23282 0.67469 0.0
H1305 H 0.53497 0.33668 0.67492 0.0
H1306 H 0.53375 0.29914 0.68682 0.0
H1307 H 0.46979 0.26282 0.67814 0.0
H1308 H 0.53264 0.16368 0.63225 0.0
H1309 H 0.53522 0.20051 0.64554 0.0
H1310 H 0.54107 0.22718 0.67023 0.0
C1311 C 0.5202 0.30545 0.67775 0.0
C1312 C 0.48548 0.25533 0.67626 0.0
C1313 C 0.52081 0.32708 0.67119 0.0
C1314 C 0.52114 0.16911 0.64428 0.0
C1315 C 0.52262 0.19029 0.65206 0.0
C1316 C 0.52535 0.23468 0.67179 0.0
C1317 C 0.50292 0.29196 0.67163 0.0
C1318 C 0.50428 0.26796 0.67435 0.0
C1319 C 0.50704 0.19854 0.66654 0.0
C1320 C 0.50638 0.22215 0.67177 0.0
H1321 H 0.47245 0.32943 0.64501 0.0
H1322 H 0.47174 0.29165 0.65532 0.0
H1323 H 0.53924 0.26617 0.67113 0.0
H1324 H 0.47558 0.15349 0.6709 0.0
H1325 H 0.47895 0.18979 0.68575 0.0
C1326 C 0.81775 0.48336 0.8356 0.0
C1327 C 0.83127 0.49966 0.84368 0.0
C1328 C 0.81054 0.48399 0.8142 0.0
C1329 C 0.81102 0.51832 0.76388 0.0
H1330 H 0.8089 0.46236 0.73585 0.0
C1331 C 0.82816 0.48008 0.6745 0.0
C1332 C 0.82189 0.49797 0.66209 0.0
C1333 C 0.82319 0.47919 0.69653 0.0
C1334 C 0.80961 0.47817 0.7433 0.0
H1335 H 0.84733 0.52978 0.83611 0.0
H1336 H 0.83591 0.53041 0.79853 0.0
H1337 H 0.81275 0.4643 0.77465 0.0
H1338 H 0.80368 0.52782 0.66222 0.0
H1339 H 0.79353 0.52555 0.70019 0.0
H1340 H 0.81003 0.5322 0.7324 0.0
C1341 C 0.83003 0.51746 0.80871 0.0
C1342 C 0.8114 0.47932 0.7658 0.0
C1343 C 0.83672 0.51712 0.83031 0.0
C1344 C 0.80884 0.51392 0.67153 0.0
C1345 C 0.80332 0.51273 0.69341 0.0
C1346 C 0.8098 0.51717 0.74135 0.0
C1347 C 0.81727 0.5006 0.80015 0.0
C1348 C 0.81263 0.49943 0.77643 0.0
C1349 C 0.81137 0.49594 0.70653 0.0
C1350 C 0.80956 0.49707 0.73064 0.0
H1351 H 0.81317 0.4698 0.8457 0.0
H1352 H 0.80018 0.47107 0.80858 0.0
H1353 H 0.81131 0.53414 0.77135 0.0
H1354 H 0.83846 0.46768 0.66764 0.0
H1355 H 0.82996 0.46606 0.70589 0.0
C1356 C 0.18169 0.96448 0.68105 0.0
C1357 C 0.17804 0.98043 0.66528 0.0
C1358 C 0.18603 0.97023 0.70244 0.0
C1359 C 0.17503 0.01535 0.7396 0.0
H1360 H 0.20643 0.9796 0.78042 0.0
C1361 C 0.17306 0.03444 0.83011 0.0
C1362 C 0.16756 0.01692 0.8435 0.0
C1363 C 0.17959 0.03099 0.80879 0.0
C1364 C 0.19761 0.98973 0.76919 0.0
H1365 H 0.17794 0.01493 0.6592 0.0
H1366 H 0.18618 0.02502 0.69645 0.0
H1367 H 0.20951 0.97241 0.74168 0.0
H1368 H 0.16588 0.98198 0.84543 0.0
H1369 H 0.17722 0.97594 0.80804 0.0
H1370 H 0.16283 0.03241 0.76702 0.0
C1371 C 0.18502 0.00803 0.69242 0.0
C1372 C 0.19933 0.98561 0.747 0.0
C1373 C 0.1805 0.00225 0.67101 0.0
C1374 C 0.17 0.9958 0.83551 0.0
C1375 C 0.17657 0.99235 0.81411 0.0
C1376 C 0.17344 0.01954 0.76171 0.0
C1377 C 0.18701 0.99209 0.70858 0.0
C1378 C 0.18771 0.99811 0.73192 0.0
C1379 C 0.18079 0.00995 0.80033 0.0
C1380 C 0.18439 0.00656 0.7768 0.0
H1381 H 0.17997 0.94749 0.67718 0.0
H1382 H 0.18728 0.95747 0.71436 0.0
H1383 H 0.16545 0.02505 0.72863 0.0
H1384 H 0.17155 0.05092 0.83582 0.0
H1385 H 0.1831 0.04487 0.7987 0.0
C1386 C 0.83159 0.18403 0.02771 0.0
C1387 C 0.84174 0.17023 0.01286 0.0
C1388 C 0.81075 0.19182 0.02373 0.0
C1389 C 0.76221 0.19213 0.02083 0.0
H1390 H 0.73719 0.19205 0.9635 0.0
C1391 C 0.67253 0.17381 0.00733 0.0
C1392 C 0.66259 0.17929 0.98773 0.0
C1393 C 0.69413 0.17919 0.01108 0.0
C1394 C 0.74375 0.1927 0.97969 0.0
H1395 H 0.83853 0.15429 0.98191 0.0
H1396 H 0.8019 0.16659 0.97546 0.0
H1397 H 0.77596 0.19114 0.96749 0.0
H1398 H 0.66664 0.19648 0.95752 0.0
H1399 H 0.70383 0.20729 0.96462 0.0
H1400 H 0.73007 0.19483 0.03301 0.0
C1401 C 0.81005 0.17232 0.98982 0.0
C1402 C 0.7662 0.19168 0.982 0.0
C1403 C 0.83112 0.16509 0.99354 0.0
C1404 C 0.67403 0.19187 0.97272 0.0
C1405 C 0.69547 0.19781 0.97671 0.0
C1406 C 0.73981 0.1938 0.01852 0.0
C1407 C 0.79929 0.18537 0.00512 0.0
C1408 C 0.77575 0.19042 0.0026 0.0
C1409 C 0.70619 0.19069 0.99552 0.0
C1410 C 0.73014 0.19314 0.99794 0.0
H1411 H 0.83956 0.18839 0.04267 0.0
H1412 H 0.80347 0.20238 0.03561 0.0
H1413 H 0.76866 0.19114 0.03704 0.0
H1414 H 0.66415 0.16394 0.01913 0.0
H1415 H 0.70161 0.17306 0.02565 0.0
C1416 C 0.0554 0.94764 0.1976 0.0
C1417 C 0.03686 0.93801 0.18877 0.0
C1418 C 0.0539 0.96081 0.21582 0.0
C1419 C 0.01739 0.99791 0.24257 0.0
H1420 H 0.05908 0.9947 0.28919 0.0
C1421 C 0.01836 0.05618 0.31695 0.0
C1422 C 0.03877 0.06119 0.32553 0.0
C1423 C 0.01648 0.04141 0.29985 0.0
C1424 C 0.04748 0.99603 0.27615 0.0
H1425 H 0.00224 0.93415 0.19236 0.0
H1426 H -0.00044 0.95762 0.22427 0.0
H1427 H 0.0585 0.96661 0.26169 0.0
H1428 H 0.07323 0.05634 0.32184 0.0
H1429 H 0.07008 0.03151 0.29155 0.0
H1430 H 0.00681 0.02775 0.2567 0.0
C1431 C 0.01525 0.95478 0.21706 0.0
C1432 C 0.04705 0.9798 0.26052 0.0
C1433 C 0.01682 0.9412 0.19899 0.0
C1434 C 0.05728 0.05258 0.31566 0.0
C1435 C 0.05544 0.03814 0.29848 0.0
C1436 C 0.01793 0.01432 0.25817 0.0
C1437 C 0.03376 0.96494 0.22543 0.0
C1438 C 0.03228 0.98075 0.24337 0.0
C1439 C 0.03501 0.03163 0.29097 0.0
C1440 C 0.03332 0.01379 0.2749 0.0
H1441 H 0.07104 0.94548 0.19003 0.0
H1442 H 0.06841 0.96855 0.22183 0.0
H1443 H 0.00594 0.99911 0.22938 0.0
H1444 H 0.00382 0.06245 0.32441 0.0
H1445 H 0.00051 0.03679 0.29443 0.0
C1446 C 0.93353 0.44253 0.31037 0.0
C1447 C 0.95227 0.43287 0.31877 0.0
C1448 C 0.93481 0.45702 0.29313 0.0
C1449 C 0.9704 0.49715 0.2697 0.0
H1450 H 0.93015 0.49573 0.22175 0.0
C1451 C 0.97061 0.56061 0.19988 0.0
C1452 C 0.95061 0.56553 0.19033 0.0
C1453 C 0.97205 0.54457 0.21585 0.0
C1454 C 0.94131 0.49661 0.2352 0.0
H1455 H 0.98702 0.43037 0.31538 0.0
H1456 H 0.98931 0.45617 0.28525 0.0
H1457 H 0.93076 0.46602 0.24752 0.0
H1458 H 0.91627 0.55884 0.19115 0.0
H1459 H 0.91855 0.53182 0.21957 0.0
H1460 H 0.98045 0.52812 0.25785 0.0
C1461 C 0.97363 0.45231 0.29201 0.0
C1462 C 0.94177 0.47944 0.24983 0.0
C1463 C 0.97229 0.43741 0.30905 0.0
C1464 C 0.93194 0.55524 0.19807 0.0
C1465 C 0.93331 0.53952 0.21419 0.0
C1466 C 0.96977 0.51452 0.25516 0.0
C1467 C 0.9549 0.46249 0.28412 0.0
C1468 C 0.95612 0.47964 0.26739 0.0
C1469 C 0.95346 0.53335 0.22272 0.0
C1470 C 0.95496 0.51463 0.2379 0.0
H1471 H 0.91789 0.43937 0.31759 0.0
H1472 H 0.92013 0.4647 0.28748 0.0
H1473 H 0.98148 0.49781 0.28324 0.0
H1474 H 0.98531 0.56813 0.19407 0.0
H1475 H 0.98785 0.54026 0.22199 0.0
C1476 C 0.19808 0.06389 0.94844 0.0
C1477 C 0.18979 0.04502 0.93899 0.0
C1478 C 0.21575 0.06289 0.96239 0.0
C1479 C 0.25938 0.02713 0.98368 0.0
H1480 H 0.25448 0.0654 0.03313 0.0
C1481 C 0.31747 0.02407 0.05761 0.0
C1482 C 0.32732 0.0441 0.06185 0.0
C1483 C 0.29977 0.02281 0.04353 0.0
C1484 C 0.25604 0.05461 0.01942 0.0
H1485 H 0.19412 0.01043 0.93577 0.0
H1486 H 0.22474 0.00851 0.96063 0.0
H1487 H 0.22672 0.06596 0.00532 0.0
H1488 H 0.32581 0.07855 0.05566 0.0
H1489 H 0.29456 0.07644 0.03176 0.0
H1490 H 0.28868 0.01563 0.99827 0.0
C1491 C 0.21785 0.02418 0.95701 0.0
C1492 C 0.24026 0.05506 0.00333 0.0
C1493 C 0.20033 0.02526 0.9427 0.0
C1494 C 0.31851 0.06291 0.05269 0.0
C1495 C 0.30062 0.06171 0.03904 0.0
C1496 C 0.27507 0.02651 -1e-05 0.0
C1497 C 0.22529 0.04291 0.96761 0.0
C1498 C 0.24192 0.04165 0.98501 0.0
C1499 C 0.29139 0.04162 0.03392 0.0
C1500 C 0.2737 0.04052 0.01782 0.0
H1501 H 0.19037 0.07937 0.94569 0.0
H1502 H 0.22149 0.07775 0.96962 0.0
H1503 H 0.26126 0.01665 0.9698 0.0
H1504 H 0.32409 0.0093 0.06427 0.0
H1505 H 0.29283 0.00715 0.03991 0.0
C1506 C 0.67691 0.49413 0.05388 0.0
C1507 C 0.66683 0.47401 0.05692 0.0
C1508 C 0.69394 0.49627 0.03909 0.0
C1509 C 0.71704 0.46783 0.99133 0.0
H1510 H 0.76572 0.50635 -0.00028 0.0
C1511 C 0.7987 0.4595 0.94803 0.0
C1512 C 0.80805 0.47818 0.93918 0.0
C1513 C 0.77971 0.46083 0.96008 0.0
C1514 C 0.75202 0.49578 0.99706 0.0
H1515 H 0.66758 0.44011 0.04815 0.0
H1516 H 0.69781 0.44354 0.02335 0.0
H1517 H 0.73718 0.50474 0.02702 0.0
H1518 H 0.80473 0.51287 0.93557 0.0
H1519 H 0.77158 0.51528 0.95731 0.0
H1520 H 0.7325 0.45815 0.96189 0.0
C1521 C 0.69208 0.45792 0.03152 0.0
C1522 C 0.73568 0.49482 0.01268 0.0
C1523 C 0.6749 0.45587 0.04595 0.0
C1524 C 0.79768 0.49819 0.94203 0.0
C1525 C 0.77889 0.49961 0.95458 0.0
C1526 C 0.7335 0.46856 0.97594 0.0
C1527 C 0.70135 0.47825 0.02731 0.0
C1528 C 0.71818 0.4805 0.01021 0.0
C1529 C 0.76995 0.48095 0.96394 0.0
C1530 C 0.75129 0.48228 0.97882 0.0
H1531 H 0.67086 0.50842 0.06198 0.0
H1532 H 0.70062 0.51219 0.03626 0.0
H1533 H 0.7035 0.45713 0.98847 0.0
H1534 H 0.80642 0.44389 0.94611 0.0
H1535 H 0.77319 0.44624 0.96724 0.0
C1536 C 0.31618 0.9691 0.43904 0.0
C1537 C 0.32713 0.94967 0.43477 0.0
C1538 C 0.30034 0.96999 0.45523 0.0
C1539 C 0.28363 0.93968 0.50454 0.0
H1540 H 0.23343 0.97709 0.50275 0.0
C1541 C 0.20945 0.93012 0.55995 0.0
C1542 C 0.20018 0.94884 0.56885 0.0
C1543 C 0.2266 0.93163 0.54537 0.0
C1544 C 0.24756 0.96679 0.50357 0.0
H1545 H 0.32897 0.91565 0.4428 0.0
H1546 H 0.3007 0.91687 0.47005 0.0
H1547 H 0.25833 0.97637 0.47208 0.0
H1548 H 0.20198 0.9838 0.56999 0.0
H1549 H 0.23192 0.98646 0.54408 0.0
H1550 H 0.27235 0.92953 0.53567 0.0
C1551 C 0.30489 0.93169 0.46173 0.0
C1552 C 0.26183 0.96635 0.48599 0.0
C1553 C 0.32091 0.93089 0.44588 0.0
C1554 C 0.20901 0.9691 0.56358 0.0
C1555 C 0.22594 0.97064 0.54859 0.0
C1556 C 0.26923 0.93993 0.52192 0.0
C1557 C 0.29497 0.9514 0.46726 0.0
C1558 C 0.27992 0.95255 0.48611 0.0
C1559 C 0.2346 0.95192 0.53905 0.0
C1560 C 0.25094 0.9533 0.52154 0.0
H1561 H 0.32082 0.98389 0.43089 0.0
H1562 H 0.29314 0.98549 0.45902 0.0
H1563 H 0.2977 0.92934 0.5056 0.0
H1564 H 0.20289 0.91431 0.56365 0.0
H1565 H 0.23288 0.91694 0.53819 0.0
C1566 C 0.79653 0.50596 0.55901 0.0
C1567 C 0.80691 0.52568 0.56331 0.0
C1568 C 0.78015 0.50481 0.5434 0.0
C1569 C 0.76012 0.53575 0.49568 0.0
H1570 H 0.71193 0.49582 0.4983 0.0
C1571 C 0.68297 0.54301 0.44407 0.0
C1572 C 0.67537 0.52425 0.4338 0.0
C1573 C 0.70045 0.54201 0.45829 0.0
C1574 C 0.72549 0.50686 0.49728 0.0
H1575 H 0.80728 0.5599 0.55597 0.0
H1576 H 0.77801 0.55824 0.52982 0.0
H1577 H 0.73802 0.49687 0.52795 0.0
H1578 H 0.68028 0.48978 0.43002 0.0
H1579 H 0.71071 0.48793 0.45547 0.0
H1580 H 0.74695 0.54633 0.46544 0.0
C1581 C 0.78307 0.5434 0.5376 0.0
C1582 C 0.74045 0.50748 0.51425 0.0
C1583 C 0.79966 0.54445 0.55283 0.0
C1584 C 0.686 0.50452 0.43754 0.0
C1585 C 0.70322 0.50342 0.45221 0.0
C1586 C 0.74499 0.53536 0.47895 0.0
C1587 C 0.77363 0.52345 0.53203 0.0
C1588 C 0.75785 0.52216 0.51382 0.0
C1589 C 0.71039 0.52214 0.46291 0.0
C1590 C 0.72744 0.52106 0.47967 0.0
H1591 H 0.80198 0.49119 0.56667 0.0
H1592 H 0.7734 0.48914 0.53954 0.0
H1593 H 0.77363 0.54679 0.49432 0.0
H1594 H 0.67503 0.55841 0.44152 0.0
H1595 H 0.7056 0.55664 0.46641 0.0
C1596 C 0.05666 0.31459 0.02476 0.0
C1597 C 0.06204 0.32368 0.04486 0.0
C1598 C 0.0417 0.29762 0.02354 0.0
C1599 C 0.99673 0.27467 0.0559 0.0
H1600 H 0.99829 0.2281 0.01402 0.0
C1601 C 0.94648 0.19692 0.06327 0.0
C1602 C 0.93649 0.18874 0.0446 0.0
C1603 C 0.96011 0.21483 0.06204 0.0
C1604 C 0.99753 0.24122 0.0256 0.0
H1605 H 0.05756 0.32105 0.07947 0.0
H1606 H 0.03244 0.2909 0.0775 0.0
H1607 H 0.02737 0.25489 0.01454 0.0
H1608 H 0.93242 0.19325 0.01009 0.0
H1609 H 0.95667 0.22456 0.00791 0.0
H1610 H 0.96729 0.26058 0.06738 0.0
C1611 C 0.03891 0.29736 0.06258 0.0
C1612 C 0.01419 0.25654 0.02594 0.0
C1613 C 0.05353 0.31446 0.06375 0.0
C1614 C 0.93976 0.19934 0.02477 0.0
C1615 C 0.95378 0.21708 0.02347 0.0
C1616 C 0.98027 0.25927 0.0557 0.0
C1617 C 0.03208 0.28932 0.04244 0.0
C1618 C 0.01416 0.27328 0.04134 0.0
C1619 C 0.96433 0.22475 0.04207 0.0
C1620 C 0.98063 0.24225 0.04074 0.0
H1621 H 0.06284 0.32155 0.00993 0.0
H1622 H 0.03684 0.29186 0.00776 0.0
H1623 H 0.99576 0.2877 0.06755 0.0
H1624 H 0.94425 0.18906 0.07876 0.0
H1625 H 0.96812 0.22033 0.07661 0.0
C1626 C 0.05213 0.67943 0.49493 0.0
C1627 C 0.05451 0.66788 0.47554 0.0
C1628 C 0.03783 0.69695 0.49611 0.0
C1629 C 0.99012 0.71921 0.4668 0.0
H1630 H 0.99891 0.76902 0.50378 0.0
C1631 C 0.94528 0.8004 0.45807 0.0
C1632 C 0.93646 0.80951 0.4769 0.0
C1633 C 0.95795 0.78178 0.45923 0.0
C1634 C 0.99618 0.75504 0.49359 0.0
H1635 H 0.04518 0.66643 0.44185 0.0
H1636 H 0.02136 0.69764 0.44347 0.0
H1637 H 0.02624 0.74051 0.50262 0.0
H1638 H 0.93359 0.80612 0.51165 0.0
H1639 H 0.95635 0.77366 0.51372 0.0
H1640 H 0.96053 0.73435 0.45708 0.0
C1641 C 0.0296 0.6927 0.45809 0.0
C1642 C 0.01181 0.73869 0.49291 0.0
C1643 C 0.04349 0.67498 0.45705 0.0
C1644 C 0.94001 0.79927 0.49687 0.0
C1645 C 0.95315 0.78088 0.49809 0.0
C1646 C 0.97475 0.73571 0.46721 0.0
C1647 C 0.02593 0.70344 0.47781 0.0
C1648 C 0.00912 0.72067 0.47926 0.0
C1649 C 0.96244 0.77218 0.47929 0.0
C1650 C 0.97773 0.75384 0.48045 0.0
H1651 H 0.06027 0.67411 0.50949 0.0
H1652 H 0.0354 0.70471 0.5116 0.0
H1653 H 0.98706 0.70531 0.45662 0.0
H1654 H 0.94284 0.80802 0.4425 0.0
H1655 H 0.96502 0.77541 0.44453 0.0
C1656 C 0.55148 0.79755 0.54845 0.0
C1657 C 0.5614 0.80468 0.52937 0.0
C1658 C 0.53695 0.7803 0.54805 0.0
C1659 C 0.51397 0.7366 0.51289 0.0
H1660 H 0.46579 0.7422 0.55264 0.0
C1661 C 0.43638 0.68353 0.50937 0.0
C1662 C 0.43311 0.67175 0.52852 0.0
C1663 C 0.45133 0.70052 0.5088 0.0
C1664 C 0.47915 0.74049 0.54145 0.0
H1665 H 0.56454 0.79908 0.495 0.0
H1666 H 0.53848 0.76947 0.49399 0.0
H1667 H 0.49437 0.7692 0.55286 0.0
H1668 H 0.44203 0.6691 0.56228 0.0
H1669 H 0.46739 0.69941 0.56151 0.0
H1670 H 0.49799 0.70814 0.50109 0.0
C1671 C 0.54231 0.77667 0.50947 0.0
C1672 C 0.49573 0.7558 0.5417 0.0
C1673 C 0.55731 0.79364 0.50999 0.0
C1674 C 0.44419 0.67797 0.54734 0.0
C1675 C 0.45869 0.69526 0.5469 0.0
C1676 C 0.49711 0.72151 0.51236 0.0
C1677 C 0.53143 0.7702 0.52842 0.0
C1678 C 0.51359 0.75392 0.52768 0.0
C1679 C 0.46279 0.70632 0.52752 0.0
C1680 C 0.47971 0.72321 0.52683 0.0
H1681 H 0.55445 0.8058 0.56361 0.0
H1682 H 0.52958 0.77535 0.56313 0.0
H1683 H 0.52747 0.7344 0.50199 0.0
H1684 H 0.42825 0.67889 0.49457 0.0
H1685 H 0.45419 0.70892 0.4937 0.0
C1686 C 0.53966 0.55609 0.79295 0.0
C1687 C 0.52088 0.56477 0.80226 0.0
C1688 C 0.53832 0.54262 0.77492 0.0
C1689 C 0.50413 0.50212 0.75138 0.0
H1690 H 0.54111 0.50801 0.70118 0.0
C1691 C 0.50516 0.43978 0.68072 0.0
C1692 C 0.52489 0.43677 0.66992 0.0
C1693 C 0.50323 0.45562 0.69682 0.0
C1694 C 0.5309 0.50589 0.71523 0.0
H1695 H 0.48602 0.56664 0.79982 0.0
H1696 H 0.48363 0.54246 0.76836 0.0
H1697 H 0.53996 0.53679 0.72799 0.0
H1698 H 0.5584 0.4467 0.66849 0.0
H1699 H 0.55544 0.47333 0.69721 0.0
H1700 H 0.4958 0.47079 0.73925 0.0
C1701 C 0.49936 0.54641 0.77493 0.0
C1702 C 0.53008 0.52254 0.73044 0.0
C1703 C 0.50075 0.56037 0.79273 0.0
C1704 C 0.54294 0.44883 0.67643 0.0
C1705 C 0.54114 0.46432 0.69271 0.0
C1706 C 0.50518 0.48526 0.73631 0.0
C1707 C 0.51814 0.53715 0.76613 0.0
C1708 C 0.51693 0.5207 0.74879 0.0
C1709 C 0.52109 0.46851 0.70259 0.0
C1710 C 0.5189 0.48676 0.71822 0.0
H1711 H 0.55534 0.55915 0.80009 0.0
H1712 H 0.55302 0.53559 0.76851 0.0
H1713 H 0.49401 0.50024 0.76555 0.0
H1714 H 0.49092 0.43085 0.67584 0.0
H1715 H 0.48751 0.45839 0.70399 0.0
C1716 C 0.50082 0.94262 0.79389 0.0
C1717 C 0.48078 0.9375 0.80324 0.0
C1718 C 0.50185 0.95642 0.77595 0.0
C1719 C 0.4688 -0.00033 0.7512 0.0
H1720 H 0.51077 0.99753 0.70473 0.0
C1721 C 0.46011 0.04795 0.67266 0.0
C1722 C 0.47834 0.05875 0.66454 0.0
C1723 C 0.46188 0.03429 0.69049 0.0
C1724 C 0.49916 0.99843 0.71781 0.0
H1725 H 0.44613 0.94093 0.80011 0.0
H1726 H 0.44778 0.96394 0.76826 0.0
H1727 H 0.51073 0.9692 0.73242 0.0
H1728 H 0.51268 0.06403 0.66889 0.0
H1729 H 0.51585 0.03968 0.70012 0.0
H1730 H 0.45687 0.0285 0.7363 0.0
C1731 C 0.46278 0.9582 0.77521 0.0
C1732 C 0.49909 0.98221 0.73362 0.0
C1733 C 0.46178 0.94477 0.79327 0.0
C1734 C 0.49834 0.05605 0.67497 0.0
C1735 C 0.50019 0.042 0.69265 0.0
C1736 C 0.46875 0.01568 0.73536 0.0
C1737 C 0.48282 0.96508 0.76698 0.0
C1738 C 0.48364 0.98244 0.75031 0.0
C1739 C 0.48198 0.03086 0.70042 0.0
C1740 C 0.48371 0.01508 0.71834 0.0
H1741 H 0.51573 0.9374 0.80145 0.0
H1742 H 0.51756 0.96135 0.77003 0.0
H1743 H 0.45714 0.00083 0.7642 0.0
H1744 H 0.4445 0.04972 0.66495 0.0
H1745 H 0.44762 0.02581 0.69606 0.0
C1746 C 0.43761 0.31466 0.97248 0.0
C1747 C 0.4328 0.32441 0.95255 0.0
C1748 C 0.45367 0.29874 0.97386 0.0
C1749 C 0.50179 0.27966 0.94317 0.0
H1750 H 0.50063 0.23176 0.98354 0.0
C1751 C 0.5564 0.20462 0.93656 0.0
C1752 C 0.56592 0.19657 0.95554 0.0
C1753 C 0.54184 0.22182 0.93744 0.0
C1754 C 0.50127 0.24526 0.9724 0.0
H1755 H 0.43972 0.32401 0.91823 0.0
H1756 H 0.46677 0.2956 0.92038 0.0
H1757 H 0.4702 0.25692 0.98222 0.0
H1758 H 0.56816 0.20058 0.99026 0.0
H1759 H 0.54225 0.23061 0.99183 0.0
H1760 H 0.53249 0.26747 0.93284 0.0
C1761 C 0.45897 0.30081 0.93516 0.0
C1762 C 0.48383 0.25967 0.97161 0.0
C1763 C 0.44324 0.31691 0.93385 0.0
C1764 C 0.56122 0.20662 0.97536 0.0
C1765 C 0.54626 0.22361 0.97629 0.0
C1766 C 0.51903 0.26512 0.94378 0.0
C1767 C 0.46502 0.29208 0.95527 0.0
C1768 C 0.48373 0.27692 0.95676 0.0
C1769 C 0.53617 0.2311 0.95736 0.0
C1770 C 0.51886 0.24765 0.95823 0.0
H1771 H 0.42996 0.3203 0.98719 0.0
H1772 H 0.45789 0.29247 0.98964 0.0
H1773 H 0.50268 0.29309 0.93198 0.0
H1774 H 0.55969 0.19714 0.92107 0.0
H1775 H 0.53423 0.22719 0.92261 0.0
loop_
_geom_bond_atom_site_label_1
_geom_bond_atom_site_label_2
_geom_bond_distance
_geom_bond_site_symmetry_2
_ccdc_geom_bond_type
Co0 O1 2.216 1_655 S
Co0 O2 2.091 . S
Co0 O4 2.004 . S
Co0 O10 2.021 . S
Co0 O12 2.137 1_655 S
Co0 O13 2.244 1_655 S
O1 Co0 2.216 1_455 S
O1 C8 1.247 1_455 S
O2 Co0 2.091 . S
O2 C8 1.261 . S
C3 O12 1.247 . S
C3 O13 1.272 . S
O4 Co0 2.004 . S
O4 C9 1.259 . S
Co5 O6 2.061 1_455 S
Co5 O11 2.052 . S
Co5 O13 2.135 . S
O6 Co5 2.061 1_655 S
O6 C9 1.235 . S
C7 O10 1.238 1_455 S
C7 O11 1.241 . S
C8 O1 1.247 1_655 S
C8 O2 1.261 . S
C9 O4 1.259 . S
C9 O6 1.235 . S
O10 Co0 2.021 . S
O10 C7 1.238 1_655 S
O11 Co5 2.052 . S
O11 C7 1.241 . S
O12 Co0 2.137 1_455 S
O12 C3 1.247 . S
O13 Co0 2.244 1_455 S
O13 C3 1.272 . S
O13 Co5 2.135 . S
Co14 O15 2.216 1_455 S
Co14 O16 2.091 . S
Co14 O18 2.004 . S
Co14 O24 2.021 . S
Co14 O26 2.137 1_455 S
Co14 O27 2.244 1_455 S
O15 Co14 2.216 1_655 S
O15 C22 1.247 1_655 S
O16 Co14 2.091 . S
O16 C22 1.261 . S
C17 O26 1.247 . S
C17 O27 1.272 . S
O18 Co14 2.004 . S
O18 C23 1.259 . S
Co19 O20 2.061 1_655 S
Co19 O25 2.052 . S
Co19 O27 2.135 . S
O20 Co19 2.061 1_455 S
O20 C23 1.235 . S
C21 O24 1.238 1_655 S
C21 O25 1.241 . S
C22 O15 1.247 1_455 S
C22 O16 1.261 . S
C23 O18 1.259 . S
C23 O20 1.235 . S
O24 Co14 2.021 . S
O24 C21 1.238 1_455 S
O25 Co19 2.052 . S
O25 C21 1.241 . S
O26 Co14 2.137 1_655 S
O26 C17 1.247 . S
O27 Co14 2.244 1_655 S
O27 C17 1.272 . S
O27 Co19 2.135 . S
Co28 O29 2.216 1_655 S
Co28 O30 2.091 . S
Co28 O32 2.004 . S
Co28 O38 2.021 . S
Co28 O40 2.137 1_655 S
Co28 O41 2.244 1_655 S
O29 Co28 2.216 1_455 S
O29 C36 1.247 1_455 S
O30 Co28 2.091 . S
O30 C36 1.261 . S
C31 O40 1.247 . S
C31 O41 1.272 . S
O32 Co28 2.004 . S
O32 C37 1.259 . S
Co33 O34 2.061 1_455 S
Co33 O39 2.052 . S
Co33 O41 2.135 . S
O34 Co33 2.061 1_655 S
O34 C37 1.235 . S
C35 O38 1.238 1_455 S
C35 O39 1.241 . S
C36 O29 1.247 1_655 S
C36 O30 1.261 . S
C37 O32 1.259 . S
C37 O34 1.235 . S
O38 Co28 2.021 . S
O38 C35 1.238 1_655 S
O39 Co33 2.052 . S
O39 C35 1.241 . S
O40 Co28 2.137 1_455 S
O40 C31 1.247 . S
O41 Co28 2.244 1_455 S
O41 C31 1.272 . S
O41 Co33 2.135 . S
Co42 O43 2.216 1_455 S
Co42 O44 2.091 . S
Co42 O46 2.004 . S
Co42 O52 2.021 . S
Co42 O54 2.137 1_455 S
Co42 O55 2.244 1_455 S
O43 Co42 2.216 1_655 S
O43 C50 1.247 1_655 S
O44 Co42 2.091 . S
O44 C50 1.261 . S
C45 O54 1.247 . S
C45 O55 1.272 . S
O46 Co42 2.004 . S
O46 C51 1.259 . S
Co47 O48 2.061 1_655 S
Co47 O53 2.052 . S
Co47 O55 2.135 . S
O48 Co47 2.061 1_455 S
O48 C51 1.235 . S
C49 O52 1.238 1_655 S
C49 O53 1.241 . S
C50 O43 1.247 1_455 S
C50 O44 1.261 . S
C51 O46 1.259 . S
C51 O48 1.235 . S
O52 Co42 2.021 . S
O52 C49 1.238 1_455 S
O53 Co47 2.052 . S
O53 C49 1.241 . S
O54 Co42 2.137 1_655 S
O54 C45 1.247 . S
O55 Co42 2.244 1_655 S
O55 C45 1.272 . S
O55 Co47 2.135 . S
Co56 O57 2.216 1_565 S
Co56 O58 2.091 . S
Co56 O60 2.004 . S
Co56 O66 2.021 . S
Co56 O68 2.137 1_565 S
Co56 O69 2.244 1_565 S
O57 Co56 2.216 1_545 S
O57 C64 1.247 1_545 S
O58 Co56 2.091 . S
O58 C64 1.261 . S
C59 O68 1.247 . S
C59 O69 1.272 . S
O60 Co56 2.004 . S
O60 C65 1.259 . S
Co61 O62 2.061 1_545 S
Co61 O67 2.052 . S
Co61 O69 2.135 . S
O62 Co61 2.061 1_565 S
O62 C65 1.235 . S
C63 O66 1.238 1_545 S
C63 O67 1.241 . S
C64 O57 1.247 1_565 S
C64 O58 1.261 . S
C65 O60 1.259 . S
C65 O62 1.235 . S
O66 Co56 2.021 . S
O66 C63 1.238 1_565 S
O67 Co61 2.052 . S
O67 C63 1.241 . S
O68 Co56 2.137 1_545 S
O68 C59 1.247 . S
O69 Co56 2.244 1_545 S
O69 C59 1.272 . S
O69 Co61 2.135 . S
Co70 O71 2.216 . S
Co70 O72 2.091 . S
Co70 O74 2.004 . S
Co70 O80 2.021 . S
Co70 O82 2.137 . S
Co70 O83 2.244 . S
O71 Co70 2.216 . S
O71 C78 1.247 . S
O72 Co70 2.091 . S
O72 C78 1.261 . S
C73 O82 1.247 . S
C73 O83 1.272 . S
O74 Co70 2.004 . S
O74 C79 1.259 . S
Co75 O76 2.061 . S
Co75 O81 2.052 . S
Co75 O83 2.135 . S
O76 Co75 2.061 . S
O76 C79 1.235 . S
C77 O80 1.238 . S
C77 O81 1.241 . S
C78 O71 1.247 . S
C78 O72 1.261 . S
C79 O74 1.259 . S
C79 O76 1.235 . S
O80 Co70 2.021 . S
O80 C77 1.238 . S
O81 Co75 2.052 . S
O81 C77 1.241 . S
O82 Co70 2.137 . S
O82 C73 1.247 . S
O83 Co70 2.244 . S
O83 C73 1.272 . S
O83 Co75 2.135 . S
Co84 O85 2.216 1_545 S
Co84 O86 2.091 . S
Co84 O88 2.004 . S
Co84 O94 2.021 . S
Co84 O96 2.137 1_545 S
Co84 O97 2.244 1_545 S
O85 Co84 2.216 1_565 S
O85 C92 1.247 1_565 S
O86 Co84 2.091 . S
O86 C92 1.261 . S
C87 O96 1.247 . S
C87 O97 1.272 . S
O88 Co84 2.004 . S
O88 C93 1.259 . S
Co89 O90 2.061 1_565 S
Co89 O95 2.052 . S
Co89 O97 2.135 . S
O90 Co89 2.061 1_545 S
O90 C93 1.235 . S
C91 O94 1.238 1_565 S
C91 O95 1.241 . S
C92 O85 1.247 1_545 S
C92 O86 1.261 . S
C93 O88 1.259 . S
C93 O90 1.235 . S
O94 Co84 2.021 . S
O94 C91 1.238 1_545 S
O95 Co89 2.052 . S
O95 C91 1.241 . S
O96 Co84 2.137 1_565 S
O96 C87 1.247 . S
O97 Co84 2.244 1_565 S
O97 C87 1.272 . S
O97 Co89 2.135 . S
Co98 O99 2.216 . S
Co98 O100 2.091 . S
Co98 O102 2.004 . S
Co98 O108 2.021 . S
Co98 O110 2.137 . S
Co98 O111 2.244 . S
O99 Co98 2.216 . S
O99 C106 1.247 . S
O100 Co98 2.091 . S
O100 C106 1.261 . S
C101 O110 1.247 . S
C101 O111 1.272 . S
O102 Co98 2.004 . S
O102 C107 1.259 . S
Co103 O104 2.061 . S
Co103 O109 2.052 . S
Co103 O111 2.135 . S
O104 Co103 2.061 . S
O104 C107 1.235 . S
C105 O108 1.238 . S
C105 O109 1.241 . S
C106 O99 1.247 . S
C106 O100 1.261 . S
C107 O102 1.259 . S
C107 O104 1.235 . S
O108 Co98 2.021 . S
O108 C105 1.238 . S
O109 Co103 2.052 . S
O109 C105 1.241 . S
O110 Co98 2.137 . S
O110 C101 1.247 . S
O111 Co98 2.244 . S
O111 C101 1.272 . S
O111 Co103 2.135 . S
Co112 O113 2.216 1_556 S
Co112 O114 2.091 . S
Co112 O116 2.004 . S
Co112 O122 2.021 . S
Co112 O124 2.137 1_556 S
Co112 O125 2.244 1_556 S
O113 Co112 2.216 1_554 S
O113 C120 1.247 1_554 S
O114 Co112 2.091 . S
O114 C120 1.261 . S
C115 O124 1.247 . S
C115 O125 1.272 . S
O116 Co112 2.004 . S
O116 C121 1.259 . S
Co117 O118 2.061 1_554 S
Co117 O123 2.052 . S
Co117 O125 2.135 . S
O118 Co117 2.061 1_556 S
O118 C121 1.235 . S
C119 O122 1.238 1_554 S
C119 O123 1.241 . S
C120 O113 1.247 1_556 S
C120 O114 1.261 . S
C121 O116 1.259 . S
C121 O118 1.235 . S
O122 Co112 2.021 . S
O122 C119 1.238 1_556 S
O123 Co117 2.052 . S
O123 C119 1.241 . S
O124 Co112 2.137 1_554 S
O124 C115 1.247 . S
O125 Co112 2.244 1_554 S
O125 C115 1.272 . S
O125 Co117 2.135 . S
Co126 O127 2.216 . S
Co126 O128 2.091 . S
Co126 O130 2.004 . S
Co126 O136 2.021 . S
Co126 O138 2.137 . S
Co126 O139 2.244 . S
O127 Co126 2.216 . S
O127 C134 1.247 . S
O128 Co126 2.091 . S
O128 C134 1.261 . S
C129 O138 1.247 . S
C129 O139 1.272 . S
O130 Co126 2.004 . S
O130 C135 1.259 . S
Co131 O132 2.061 . S
Co131 O137 2.052 . S
Co131 O139 2.135 . S
O132 Co131 2.061 . S
O132 C135 1.235 . S
C133 O136 1.238 . S
C133 O137 1.241 . S
C134 O127 1.247 . S
C134 O128 1.261 . S
C135 O130 1.259 . S
C135 O132 1.235 . S
O136 Co126 2.021 . S
O136 C133 1.238 . S
O137 Co131 2.052 . S
O137 C133 1.241 . S
O138 Co126 2.137 . S
O138 C129 1.247 . S
O139 Co126 2.244 . S
O139 C129 1.272 . S
O139 Co131 2.135 . S
Co140 O141 2.216 . S
Co140 O142 2.091 . S
Co140 O144 2.004 . S
Co140 O150 2.021 . S
Co140 O152 2.137 . S
Co140 O153 2.244 . S
O141 Co140 2.216 . S
O141 C148 1.247 . S
O142 Co140 2.091 . S
O142 C148 1.261 . S
C143 O152 1.247 . S
C143 O153 1.272 . S
O144 Co140 2.004 . S
O144 C149 1.259 . S
Co145 O146 2.061 . S
Co145 O151 2.052 . S
Co145 O153 2.135 . S
O146 Co145 2.061 . S
O146 C149 1.235 . S
C147 O150 1.238 . S
C147 O151 1.241 . S
C148 O141 1.247 . S
C148 O142 1.261 . S
C149 O144 1.259 . S
C149 O146 1.235 . S
O150 Co140 2.021 . S
O150 C147 1.238 . S
O151 Co145 2.052 . S
O151 C147 1.241 . S
O152 Co140 2.137 . S
O152 C143 1.247 . S
O153 Co140 2.244 . S
O153 C143 1.272 . S
O153 Co145 2.135 . S
Co154 O155 2.216 . S
Co154 O156 2.091 . S
Co154 O158 2.004 . S
Co154 O164 2.021 . S
Co154 O166 2.137 . S
Co154 O167 2.244 . S
O155 Co154 2.216 . S
O155 C162 1.247 . S
O156 Co154 2.091 . S
O156 C162 1.261 . S
C157 O166 1.247 . S
C157 O167 1.272 . S
O158 Co154 2.004 . S
O158 C163 1.259 . S
Co159 O160 2.061 . S
Co159 O165 2.052 . S
Co159 O167 2.135 . S
O160 Co159 2.061 . S
O160 C163 1.235 . S
C161 O164 1.238 . S
C161 O165 1.241 . S
C162 O155 1.247 . S
C162 O156 1.261 . S
C163 O158 1.259 . S
C163 O160 1.235 . S
O164 Co154 2.021 . S
O164 C161 1.238 . S
O165 Co159 2.052 . S
O165 C161 1.241 . S
O166 Co154 2.137 . S
O166 C157 1.247 . S
O167 Co154 2.244 . S
O167 C157 1.272 . S
O167 Co159 2.135 . S
Co168 O169 2.216 . S
Co168 O170 2.091 . S
Co168 O172 2.004 . S
Co168 O178 2.021 . S
Co168 O180 2.137 . S
Co168 O181 2.244 . S
O169 Co168 2.216 . S
O169 C176 1.247 . S
O170 Co168 2.091 . S
O170 C176 1.261 . S
C171 O180 1.247 . S
C171 O181 1.272 . S
O172 Co168 2.004 . S
O172 C177 1.259 . S
Co173 O174 2.061 . S
Co173 O179 2.052 . S
Co173 O181 2.135 . S
O174 Co173 2.061 . S
O174 C177 1.235 . S
C175 O178 1.238 . S
C175 O179 1.241 . S
C176 O169 1.247 . S
C176 O170 1.261 . S
C177 O172 1.259 . S
C177 O174 1.235 . S
O178 Co168 2.021 . S
O178 C175 1.238 . S
O179 Co173 2.052 . S
O179 C175 1.241 . S
O180 Co168 2.137 . S
O180 C171 1.247 . S
O181 Co168 2.244 . S
O181 C171 1.272 . S
O181 Co173 2.135 . S
Co182 O183 2.216 . S
Co182 O184 2.091 . S
Co182 O186 2.004 . S
Co182 O192 2.021 . S
Co182 O194 2.137 . S
Co182 O195 2.244 . S
O183 Co182 2.216 . S
O183 C190 1.247 . S
O184 Co182 2.091 . S
O184 C190 1.261 . S
C185 O194 1.247 . S
C185 O195 1.272 . S
O186 Co182 2.004 . S
O186 C191 1.259 . S
Co187 O188 2.061 . S
Co187 O193 2.052 . S
Co187 O195 2.135 . S
O188 Co187 2.061 . S
O188 C191 1.235 . S
C189 O192 1.238 . S
C189 O193 1.241 . S
C190 O183 1.247 . S
C190 O184 1.261 . S
C191 O186 1.259 . S
C191 O188 1.235 . S
O192 Co182 2.021 . S
O192 C189 1.238 . S
O193 Co187 2.052 . S
O193 C189 1.241 . S
O194 Co182 2.137 . S
O194 C185 1.247 . S
O195 Co182 2.244 . S
O195 C185 1.272 . S
O195 Co187 2.135 . S
Co196 O197 2.216 . S
Co196 O198 2.091 . S
Co196 O200 2.004 . S
Co196 O206 2.021 . S
Co196 O208 2.137 . S
Co196 O209 2.244 . S
O197 Co196 2.216 . S
O197 C204 1.247 . S
O198 Co196 2.091 . S
O198 C204 1.261 . S
C199 O208 1.247 . S
C199 O209 1.272 . S
O200 Co196 2.004 . S
O200 C205 1.259 . S
Co201 O202 2.061 . S
Co201 O207 2.052 . S
Co201 O209 2.135 . S
O202 Co201 2.061 . S
O202 C205 1.235 . S
C203 O206 1.238 . S
C203 O207 1.241 . S
C204 O197 1.247 . S
C204 O198 1.261 . S
C205 O200 1.259 . S
C205 O202 1.235 . S
O206 Co196 2.021 . S
O206 C203 1.238 . S
O207 Co201 2.052 . S
O207 C203 1.241 . S
O208 Co196 2.137 . S
O208 C199 1.247 . S
O209 Co196 2.244 . S
O209 C199 1.272 . S
O209 Co201 2.135 . S
Co210 O211 2.216 . S
Co210 O212 2.091 . S
Co210 O214 2.004 . S
Co210 O220 2.021 . S
Co210 O222 2.137 . S
Co210 O223 2.244 . S
O211 Co210 2.216 . S
O211 C218 1.247 . S
O212 Co210 2.091 . S
O212 C218 1.261 . S
C213 O222 1.247 . S
C213 O223 1.272 . S
O214 Co210 2.004 . S
O214 C219 1.259 . S
Co215 O216 2.061 . S
Co215 O221 2.052 . S
Co215 O223 2.135 . S
O216 Co215 2.061 . S
O216 C219 1.235 . S
C217 O220 1.238 . S
C217 O221 1.241 . S
C218 O211 1.247 . S
C218 O212 1.261 . S
C219 O214 1.259 . S
C219 O216 1.235 . S
O220 Co210 2.021 . S
O220 C217 1.238 . S
O221 Co215 2.052 . S
O221 C217 1.241 . S
O222 Co210 2.137 . S
O222 C213 1.247 . S
O223 Co210 2.244 . S
O223 C213 1.272 . S
O223 Co215 2.135 . S
Co224 O225 2.216 . S
Co224 O226 2.091 . S
Co224 O228 2.004 . S
Co224 O234 2.021 . S
Co224 O236 2.137 . S
Co224 O237 2.244 . S
O225 Co224 2.216 . S
O225 C232 1.247 . S
O226 Co224 2.091 . S
O226 C232 1.261 . S
C227 O236 1.247 . S
C227 O237 1.272 . S
O228 Co224 2.004 . S
O228 C233 1.259 . S
Co229 O230 2.061 . S
Co229 O235 2.052 . S
Co229 O237 2.135 . S
O230 Co229 2.061 . S
O230 C233 1.235 . S
C231 O234 1.238 . S
C231 O235 1.241 . S
C232 O225 1.247 . S
C232 O226 1.261 . S
C233 O228 1.259 . S
C233 O230 1.235 . S
O234 Co224 2.021 . S
O234 C231 1.238 . S
O235 Co229 2.052 . S
O235 C231 1.241 . S
O236 Co224 2.137 . S
O236 C227 1.247 . S
O237 Co224 2.244 . S
O237 C227 1.272 . S
O237 Co229 2.135 . S
Co238 O239 2.216 1_545 S
Co238 O240 2.091 . S
Co238 O242 2.004 . S
Co238 O248 2.021 . S
Co238 O250 2.137 1_545 S
Co238 O251 2.244 1_545 S
O239 Co238 2.216 1_565 S
O239 C246 1.247 1_565 S
O240 Co238 2.091 . S
O240 C246 1.261 . S
C241 O250 1.247 . S
C241 O251 1.272 . S
O242 Co238 2.004 . S
O242 C247 1.259 . S
Co243 O244 2.061 1_565 S
Co243 O249 2.052 . S
Co243 O251 2.135 . S
O244 Co243 2.061 1_545 S
O244 C247 1.235 . S
C245 O248 1.238 1_565 S
C245 O249 1.241 . S
C246 O239 1.247 1_545 S
C246 O240 1.261 . S
C247 O242 1.259 . S
C247 O244 1.235 . S
O248 Co238 2.021 . S
O248 C245 1.238 1_545 S
O249 Co243 2.052 . S
O249 C245 1.241 . S
O250 Co238 2.137 1_565 S
O250 C241 1.247 . S
O251 Co238 2.244 1_565 S
O251 C241 1.272 . S
O251 Co243 2.135 . S
Co252 O253 2.216 . S
Co252 O254 2.091 . S
Co252 O256 2.004 . S
Co252 O262 2.021 . S
Co252 O264 2.137 . S
Co252 O265 2.244 . S
O253 Co252 2.216 . S
O253 C260 1.247 . S
O254 Co252 2.091 . S
O254 C260 1.261 . S
C255 O264 1.247 . S
C255 O265 1.272 . S
O256 Co252 2.004 . S
O256 C261 1.259 . S
Co257 O258 2.061 . S
Co257 O263 2.052 . S
Co257 O265 2.135 . S
O258 Co257 2.061 . S
O258 C261 1.235 . S
C259 O262 1.238 . S
C259 O263 1.241 . S
C260 O253 1.247 . S
C260 O254 1.261 . S
C261 O256 1.259 . S
C261 O258 1.235 . S
O262 Co252 2.021 . S
O262 C259 1.238 . S
O263 Co257 2.052 . S
O263 C259 1.241 . S
O264 Co252 2.137 . S
O264 C255 1.247 . S
O265 Co252 2.244 . S
O265 C255 1.272 . S
O265 Co257 2.135 . S
Co266 O267 2.216 1_565 S
Co266 O268 2.091 . S
Co266 O270 2.004 . S
Co266 O276 2.021 . S
Co266 O278 2.137 1_565 S
Co266 O279 2.244 1_565 S
O267 Co266 2.216 1_545 S
O267 C274 1.247 1_545 S
O268 Co266 2.091 . S
O268 C274 1.261 . S
C269 O278 1.247 . S
C269 O279 1.272 . S
O270 Co266 2.004 . S
O270 C275 1.259 . S
Co271 O272 2.061 1_545 S
Co271 O277 2.052 . S
Co271 O279 2.135 . S
O272 Co271 2.061 1_565 S
O272 C275 1.235 . S
C273 O276 1.238 1_545 S
C273 O277 1.241 . S
C274 O267 1.247 1_565 S
C274 O268 1.261 . S
C275 O270 1.259 . S
C275 O272 1.235 . S
O276 Co266 2.021 . S
O276 C273 1.238 1_565 S
O277 Co271 2.052 . S
O277 C273 1.241 . S
O278 Co266 2.137 1_545 S
O278 C269 1.247 . S
O279 Co266 2.244 1_545 S
O279 C269 1.272 . S
O279 Co271 2.135 . S
Co280 O281 2.216 . S
Co280 O282 2.091 . S
Co280 O284 2.004 . S
Co280 O290 2.021 . S
Co280 O292 2.137 . S
Co280 O293 2.244 . S
O281 Co280 2.216 . S
O281 C288 1.247 . S
O282 Co280 2.091 . S
O282 C288 1.261 . S
C283 O292 1.247 . S
C283 O293 1.272 . S
O284 Co280 2.004 . S
O284 C289 1.259 . S
Co285 O286 2.061 . S
Co285 O291 2.052 . S
Co285 O293 2.135 . S
O286 Co285 2.061 . S
O286 C289 1.235 . S
C287 O290 1.238 . S
C287 O291 1.241 . S
C288 O281 1.247 . S
C288 O282 1.261 . S
C289 O284 1.259 . S
C289 O286 1.235 . S
O290 Co280 2.021 . S
O290 C287 1.238 . S
O291 Co285 2.052 . S
O291 C287 1.241 . S
O292 Co280 2.137 . S
O292 C283 1.247 . S
O293 Co280 2.244 . S
O293 C283 1.272 . S
O293 Co285 2.135 . S
Co294 O295 2.216 1_554 S
Co294 O296 2.091 . S
Co294 O298 2.004 . S
Co294 O304 2.021 . S
Co294 O306 2.137 1_554 S
Co294 O307 2.244 1_554 S
O295 Co294 2.216 1_556 S
O295 C302 1.247 1_556 S
O296 Co294 2.091 . S
O296 C302 1.261 . S
C297 O306 1.247 . S
C297 O307 1.272 . S
O298 Co294 2.004 . S
O298 C303 1.259 . S
Co299 O300 2.061 1_556 S
Co299 O305 2.052 . S
Co299 O307 2.135 . S
O300 Co299 2.061 1_554 S
O300 C303 1.235 . S
C301 O304 1.238 1_556 S
C301 O305 1.241 . S
C302 O295 1.247 1_554 S
C302 O296 1.261 . S
C303 O298 1.259 . S
C303 O300 1.235 . S
O304 Co294 2.021 . S
O304 C301 1.238 1_554 S
O305 Co299 2.052 . S
O305 C301 1.241 . S
O306 Co294 2.137 1_556 S
O306 C297 1.247 . S
O307 Co294 2.244 1_556 S
O307 C297 1.272 . S
O307 Co299 2.135 . S
Co308 O309 2.216 1_554 S
Co308 O310 2.091 . S
Co308 O312 2.004 . S
Co308 O318 2.021 . S
Co308 O320 2.137 1_554 S
Co308 O321 2.244 1_554 S
O309 Co308 2.216 1_556 S
O309 C316 1.247 1_556 S
O310 Co308 2.091 . S
O310 C316 1.261 . S
C311 O320 1.247 . S
C311 O321 1.272 . S
O312 Co308 2.004 . S
O312 C317 1.259 . S
Co313 O314 2.061 1_556 S
Co313 O319 2.052 . S
Co313 O321 2.135 . S
O314 Co313 2.061 1_554 S
O314 C317 1.235 . S
C315 O318 1.238 1_556 S
C315 O319 1.241 . S
C316 O309 1.247 1_554 S
C316 O310 1.261 . S
C317 O312 1.259 . S
C317 O314 1.235 . S
O318 Co308 2.021 . S
O318 C315 1.238 1_554 S
O319 Co313 2.052 . S
O319 C315 1.241 . S
O320 Co308 2.137 1_556 S
O320 C311 1.247 . S
O321 Co308 2.244 1_556 S
O321 C311 1.272 . S
O321 Co313 2.135 . S
Co322 O323 2.216 1_556 S
Co322 O324 2.091 . S
Co322 O326 2.004 . S
Co322 O332 2.021 . S
Co322 O334 2.137 1_556 S
Co322 O335 2.244 1_556 S
O323 Co322 2.216 1_554 S
O323 C330 1.247 1_554 S
O324 Co322 2.091 . S
O324 C330 1.261 . S
C325 O334 1.247 . S
C325 O335 1.272 . S
O326 Co322 2.004 . S
O326 C331 1.259 . S
Co327 O328 2.061 1_554 S
Co327 O333 2.052 . S
Co327 O335 2.135 . S
O328 Co327 2.061 1_556 S
O328 C331 1.235 . S
C329 O332 1.238 1_554 S
C329 O333 1.241 . S
C330 O323 1.247 1_556 S
C330 O324 1.261 . S
C331 O326 1.259 . S
C331 O328 1.235 . S
O332 Co322 2.021 . S
O332 C329 1.238 1_556 S
O333 Co327 2.052 . S
O333 C329 1.241 . S
O334 Co322 2.137 1_554 S
O334 C325 1.247 . S
O335 Co322 2.244 1_554 S
O335 C325 1.272 . S
O335 Co327 2.135 . S
C336 C337 1.349 . S
C336 C338 1.327 . S
C336 H361 0.950 . S
C337 C336 1.349 . S
C337 C353 1.349 . S
C338 C336 1.327 . S
C338 C357 1.429 . S
C338 H362 0.950 . S
C339 C356 1.574 . S
C339 C358 1.368 . S
C339 H363 0.949 . S
H340 C344 0.949 . S
C341 C342 1.349 . S
C341 C343 1.327 . S
C341 H364 0.950 . S
C342 C341 1.349 . S
C342 C354 1.349 . S
C343 C341 1.327 . S
C343 C359 1.429 . S
C343 H365 0.950 . S
C344 H340 0.949 . S
C344 C352 1.574 . S
C344 C360 1.368 . S
H345 C353 0.950 . S
H346 C351 0.950 . S
H347 C352 0.949 . S
H348 C354 0.950 . S
H349 C355 0.950 . S
H350 C356 0.949 . S
C351 H346 0.950 . S
C351 C353 1.327 . S
C351 C357 1.429 . S
C352 C344 1.574 . S
C352 H347 0.949 . S
C352 C358 1.368 . S
C353 C337 1.349 . S
C353 H345 0.950 . S
C353 C351 1.327 . S
C354 C342 1.349 . S
C354 H348 0.950 . S
C354 C355 1.327 . S
C355 H349 0.950 . S
C355 C354 1.327 . S
C355 C359 1.429 . S
C356 C339 1.574 . S
C356 H350 0.949 . S
C356 C360 1.368 . S
C357 C338 1.429 . S
C357 C351 1.429 . S
C357 C358 1.523 . S
C358 C339 1.368 . S
C358 C352 1.368 . S
C358 C357 1.523 . S
C359 C343 1.429 . S
C359 C355 1.429 . S
C359 C360 1.523 . S
C360 C344 1.368 . S
C360 C356 1.368 . S
C360 C359 1.523 . S
H361 C336 0.950 . S
H362 C338 0.950 . S
H363 C339 0.949 . S
H364 C341 0.950 . S
H365 C343 0.950 . S
C366 C367 1.349 . S
C366 C368 1.327 . S
C366 H391 0.950 . S
C367 C366 1.349 . S
C367 C383 1.349 . S
C368 C366 1.327 . S
C368 C387 1.429 . S
C368 H392 0.950 . S
C369 C386 1.574 . S
C369 C388 1.368 . S
C369 H393 0.949 . S
H370 C374 0.949 . S
C371 C372 1.349 . S
C371 C373 1.327 . S
C371 H394 0.950 . S
C372 C371 1.349 . S
C372 C384 1.349 . S
C373 C371 1.327 . S
C373 C389 1.429 . S
C373 H395 0.950 . S
C374 H370 0.949 . S
C374 C382 1.574 . S
C374 C390 1.368 . S
H375 C383 0.950 . S
H376 C381 0.950 . S
H377 C382 0.949 . S
H378 C384 0.950 . S
H379 C385 0.950 . S
H380 C386 0.949 . S
C381 H376 0.950 . S
C381 C383 1.327 . S
C381 C387 1.429 . S
C382 C374 1.574 . S
C382 H377 0.949 . S
C382 C388 1.368 . S
C383 C367 1.349 . S
C383 H375 0.950 . S
C383 C381 1.327 . S
C384 C372 1.349 . S
C384 H378 0.950 . S
C384 C385 1.327 . S
C385 H379 0.950 . S
C385 C384 1.327 . S
C385 C389 1.429 . S
C386 C369 1.574 . S
C386 H380 0.949 . S
C386 C390 1.368 . S
C387 C368 1.429 . S
C387 C381 1.429 . S
C387 C388 1.523 . S
C388 C369 1.368 . S
C388 C382 1.368 . S
C388 C387 1.523 . S
C389 C373 1.429 . S
C389 C385 1.429 . S
C389 C390 1.523 . S
C390 C374 1.368 . S
C390 C386 1.368 . S
C390 C389 1.523 . S
H391 C366 0.950 . S
H392 C368 0.950 . S
H393 C369 0.949 . S
H394 C371 0.950 . S
H395 C373 0.950 . S
C396 C397 1.349 . S
C396 C398 1.327 . S
C396 H421 0.950 . S
C397 C396 1.349 . S
C397 C413 1.349 . S
C398 C396 1.327 . S
C398 C417 1.429 . S
C398 H422 0.950 . S
C399 C416 1.574 . S
C399 C418 1.368 . S
C399 H423 0.949 . S
H400 C404 0.949 . S
C401 C402 1.349 . S
C401 C403 1.327 . S
C401 H424 0.950 . S
C402 C401 1.349 . S
C402 C414 1.349 . S
C403 C401 1.327 . S
C403 C419 1.429 . S
C403 H425 0.950 . S
C404 H400 0.949 . S
C404 C412 1.574 . S
C404 C420 1.368 . S
H405 C413 0.950 . S
H406 C411 0.950 . S
H407 C412 0.949 . S
H408 C414 0.950 . S
H409 C415 0.950 . S
H410 C416 0.949 . S
C411 H406 0.950 . S
C411 C413 1.327 . S
C411 C417 1.429 . S
C412 C404 1.574 . S
C412 H407 0.949 . S
C412 C418 1.368 . S
C413 C397 1.349 . S
C413 H405 0.950 . S
C413 C411 1.327 . S
C414 C402 1.349 . S
C414 H408 0.950 . S
C414 C415 1.327 . S
C415 H409 0.950 . S
C415 C414 1.327 . S
C415 C419 1.429 . S
C416 C399 1.574 . S
C416 H410 0.949 . S
C416 C420 1.368 . S
C417 C398 1.429 . S
C417 C411 1.429 . S
C417 C418 1.523 . S
C418 C399 1.368 . S
C418 C412 1.368 . S
C418 C417 1.523 . S
C419 C403 1.429 . S
C419 C415 1.429 . S
C419 C420 1.523 1_556 S
C420 C404 1.368 . S
C420 C416 1.368 . S
C420 C419 1.523 1_554 S
H421 C396 0.950 . S
H422 C398 0.950 . S
H423 C399 0.949 . S
H424 C401 0.950 . S
H425 C403 0.950 . S
C426 C427 1.349 . S
C426 C428 1.327 . S
C426 H451 0.950 . S
C427 C426 1.349 . S
C427 C443 1.349 . S
C428 C426 1.327 . S
C428 C447 1.429 . S
C428 H452 0.950 . S
C429 C446 1.574 . S
C429 C448 1.368 . S
C429 H453 0.949 . S
H430 C434 0.949 1_556 S
C431 C432 1.349 . S
C431 C433 1.327 . S
C431 H454 0.950 . S
C432 C431 1.349 . S
C432 C444 1.349 . S
C433 C431 1.327 . S
C433 C449 1.429 . S
C433 H455 0.950 . S
C434 H430 0.949 1_554 S
C434 C442 1.574 . S
C434 C450 1.368 . S
H435 C443 0.950 . S
H436 C441 0.950 . S
H437 C442 0.949 . S
H438 C444 0.950 . S
H439 C445 0.950 . S
H440 C446 0.949 . S
C441 H436 0.950 . S
C441 C443 1.327 . S
C441 C447 1.429 . S
C442 C434 1.574 . S
C442 H437 0.949 . S
C442 C448 1.368 . S
C443 C427 1.349 . S
C443 H435 0.950 . S
C443 C441 1.327 . S
C444 C432 1.349 . S
C444 H438 0.950 . S
C444 C445 1.327 . S
C445 H439 0.950 . S
C445 C444 1.327 . S
C445 C449 1.429 . S
C446 C429 1.574 . S
C446 H440 0.949 . S
C446 C450 1.368 . S
C447 C428 1.429 . S
C447 C441 1.429 . S
C447 C448 1.523 . S
C448 C429 1.368 . S
C448 C442 1.368 . S
C448 C447 1.523 . S
C449 C433 1.429 . S
C449 C445 1.429 . S
C449 C450 1.523 1_556 S
C450 C434 1.368 . S
C450 C446 1.368 . S
C450 C449 1.523 1_554 S
H451 C426 0.950 . S
H452 C428 0.950 . S
H453 C429 0.949 . S
H454 C431 0.950 . S
H455 C433 0.950 . S
C456 C457 1.349 . S
C456 C458 1.327 . S
C456 H481 0.950 . S
C457 C456 1.349 . S
C457 C473 1.349 . S
C458 C456 1.327 . S
C458 C477 1.429 . S
C458 H482 0.950 . S
C459 C476 1.574 . S
C459 C478 1.368 . S
C459 H483 0.949 . S
H460 C464 0.949 . S
C461 C462 1.349 . S
C461 C463 1.327 . S
C461 H484 0.950 . S
C462 C461 1.349 . S
C462 C474 1.349 . S
C463 C461 1.327 . S
C463 C479 1.429 . S
C463 H485 0.950 . S
C464 H460 0.949 . S
C464 C472 1.574 . S
C464 C480 1.368 . S
H465 C473 0.950 . S
H466 C471 0.950 . S
H467 C472 0.949 . S
H468 C474 0.950 . S
H469 C475 0.950 . S
H470 C476 0.949 . S
C471 H466 0.950 . S
C471 C473 1.327 . S
C471 C477 1.429 . S
C472 C464 1.574 . S
C472 H467 0.949 . S
C472 C478 1.368 . S
C473 C457 1.349 . S
C473 H465 0.950 . S
C473 C471 1.327 . S
C474 C462 1.349 . S
C474 H468 0.950 . S
C474 C475 1.327 . S
C475 H469 0.950 . S
C475 C474 1.327 . S
C475 C479 1.429 . S
C476 C459 1.574 . S
C476 H470 0.949 . S
C476 C480 1.368 . S
C477 C458 1.429 . S
C477 C471 1.429 . S
C477 C478 1.523 . S
C478 C459 1.368 . S
C478 C472 1.368 . S
C478 C477 1.523 . S
C479 C463 1.429 . S
C479 C475 1.429 . S
C479 C480 1.523 . S
C480 C464 1.368 . S
C480 C476 1.368 . S
C480 C479 1.523 . S
H481 C456 0.950 . S
H482 C458 0.950 . S
H483 C459 0.949 . S
H484 C461 0.950 . S
H485 C463 0.950 . S
C486 C487 1.349 . S
C486 C488 1.327 . S
C486 H511 0.950 . S
C487 C486 1.349 . S
C487 C503 1.349 . S
C488 C486 1.327 . S
C488 C507 1.429 . S
C488 H512 0.950 . S
C489 C506 1.574 . S
C489 C508 1.368 . S
C489 H513 0.949 . S
H490 C494 0.949 . S
C491 C492 1.349 . S
C491 C493 1.327 . S
C491 H514 0.950 . S
C492 C491 1.349 . S
C492 C504 1.349 . S
C493 C491 1.327 . S
C493 C509 1.429 . S
C493 H515 0.950 . S
C494 H490 0.949 . S
C494 C502 1.574 . S
C494 C510 1.368 . S
H495 C503 0.950 . S
H496 C501 0.950 . S
H497 C502 0.949 . S
H498 C504 0.950 . S
H499 C505 0.950 . S
H500 C506 0.949 . S
C501 H496 0.950 . S
C501 C503 1.327 . S
C501 C507 1.429 . S
C502 C494 1.574 . S
C502 H497 0.949 . S
C502 C508 1.368 . S
C503 C487 1.349 . S
C503 H495 0.950 . S
C503 C501 1.327 . S
C504 C492 1.349 . S
C504 H498 0.950 . S
C504 C505 1.327 . S
C505 H499 0.950 . S
C505 C504 1.327 . S
C505 C509 1.429 . S
C506 C489 1.574 . S
C506 H500 0.949 . S
C506 C510 1.368 . S
C507 C488 1.429 . S
C507 C501 1.429 . S
C507 C508 1.523 . S
C508 C489 1.368 . S
C508 C502 1.368 . S
C508 C507 1.523 . S
C509 C493 1.429 . S
C509 C505 1.429 . S
C509 C510 1.523 . S
C510 C494 1.368 . S
C510 C506 1.368 . S
C510 C509 1.523 . S
H511 C486 0.950 . S
H512 C488 0.950 . S
H513 C489 0.949 . S
H514 C491 0.950 . S
H515 C493 0.950 . S
C516 C517 1.349 . S
C516 C518 1.327 . S
C516 H541 0.950 . S
C517 C516 1.349 . S
C517 C533 1.349 . S
C518 C516 1.327 . S
C518 C537 1.429 . S
C518 H542 0.950 . S
C519 C536 1.574 . S
C519 C538 1.368 . S
C519 H543 0.949 . S
H520 C524 0.949 . S
C521 C522 1.349 . S
C521 C523 1.327 . S
C521 H544 0.950 . S
C522 C521 1.349 . S
C522 C534 1.349 . S
C523 C521 1.327 . S
C523 C539 1.429 . S
C523 H545 0.950 . S
C524 H520 0.949 . S
C524 C532 1.574 . S
C524 C540 1.368 . S
H525 C533 0.950 . S
H526 C531 0.950 . S
H527 C532 0.949 . S
H528 C534 0.950 . S
H529 C535 0.950 . S
H530 C536 0.949 . S
C531 H526 0.950 . S
C531 C533 1.327 . S
C531 C537 1.429 . S
C532 C524 1.574 . S
C532 H527 0.949 . S
C532 C538 1.368 . S
C533 C517 1.349 . S
C533 H525 0.950 . S
C533 C531 1.327 . S
C534 C522 1.349 . S
C534 H528 0.950 . S
C534 C535 1.327 . S
C535 H529 0.950 . S
C535 C534 1.327 . S
C535 C539 1.429 . S
C536 C519 1.574 . S
C536 H530 0.949 . S
C536 C540 1.368 . S
C537 C518 1.429 . S
C537 C531 1.429 . S
C537 C538 1.523 . S
C538 C519 1.368 . S
C538 C532 1.368 . S
C538 C537 1.523 . S
C539 C523 1.429 . S
C539 C535 1.429 . S
C539 C540 1.523 . S
C540 C524 1.368 . S
C540 C536 1.368 . S
C540 C539 1.523 . S
H541 C516 0.950 . S
H542 C518 0.950 . S
H543 C519 0.949 . S
H544 C521 0.950 . S
H545 C523 0.950 . S
C546 C547 1.349 . S
C546 C548 1.327 . S
C546 H571 0.950 . S
C547 C546 1.349 . S
C547 C563 1.349 . S
C548 C546 1.327 . S
C548 C567 1.429 . S
C548 H572 0.950 . S
C549 C566 1.574 . S
C549 C568 1.368 . S
C549 H573 0.949 . S
H550 C554 0.949 . S
C551 C552 1.349 . S
C551 C553 1.327 . S
C551 H574 0.950 . S
C552 C551 1.349 . S
C552 C564 1.349 . S
C553 C551 1.327 . S
C553 C569 1.429 . S
C553 H575 0.950 . S
C554 H550 0.949 . S
C554 C562 1.574 . S
C554 C570 1.368 . S
H555 C563 0.950 . S
H556 C561 0.950 . S
H557 C562 0.949 . S
H558 C564 0.950 . S
H559 C565 0.950 . S
H560 C566 0.949 . S
C561 H556 0.950 . S
C561 C563 1.327 . S
C561 C567 1.429 . S
C562 C554 1.574 . S
C562 H557 0.949 . S
C562 C568 1.368 . S
C563 C547 1.349 . S
C563 H555 0.950 . S
C563 C561 1.327 . S
C564 C552 1.349 . S
C564 H558 0.950 . S
C564 C565 1.327 . S
C565 H559 0.950 . S
C565 C564 1.327 . S
C565 C569 1.429 . S
C566 C549 1.574 . S
C566 H560 0.949 . S
C566 C570 1.368 . S
C567 C548 1.429 . S
C567 C561 1.429 . S
C567 C568 1.523 . S
C568 C549 1.368 . S
C568 C562 1.368 . S
C568 C567 1.523 . S
C569 C553 1.429 . S
C569 C565 1.429 . S
C569 C570 1.523 . S
C570 C554 1.368 . S
C570 C566 1.368 . S
C570 C569 1.523 . S
H571 C546 0.950 . S
H572 C548 0.950 . S
H573 C549 0.949 . S
H574 C551 0.950 . S
H575 C553 0.950 . S
C576 C577 1.349 . S
C576 C578 1.327 . S
C576 H601 0.950 . S
C577 C576 1.349 . S
C577 C593 1.349 . S
C578 C576 1.327 . S
C578 C597 1.429 . S
C578 H602 0.950 . S
C579 C596 1.574 . S
C579 C598 1.368 . S
C579 H603 0.949 . S
H580 C584 0.949 . S
C581 C582 1.349 . S
C581 C583 1.327 . S
C581 H604 0.950 . S
C582 C581 1.349 . S
C582 C594 1.349 . S
C583 C581 1.327 . S
C583 C599 1.429 . S
C583 H605 0.950 . S
C584 H580 0.949 . S
C584 C592 1.574 . S
C584 C600 1.368 . S
H585 C593 0.950 . S
H586 C591 0.950 . S
H587 C592 0.949 . S
H588 C594 0.950 . S
H589 C595 0.950 . S
H590 C596 0.949 . S
C591 H586 0.950 . S
C591 C593 1.327 . S
C591 C597 1.429 . S
C592 C584 1.574 . S
C592 H587 0.949 . S
C592 C598 1.368 . S
C593 C577 1.349 . S
C593 H585 0.950 . S
C593 C591 1.327 . S
C594 C582 1.349 . S
C594 H588 0.950 . S
C594 C595 1.327 . S
C595 H589 0.950 . S
C595 C594 1.327 . S
C595 C599 1.429 . S
C596 C579 1.574 . S
C596 H590 0.949 . S
C596 C600 1.368 . S
C597 C578 1.429 . S
C597 C591 1.429 . S
C597 C598 1.523 . S
C598 C579 1.368 . S
C598 C592 1.368 . S
C598 C597 1.523 . S
C599 C583 1.429 . S
C599 C595 1.429 . S
C599 C600 1.523 . S
C600 C584 1.368 . S
C600 C596 1.368 . S
C600 C599 1.523 . S
H601 C576 0.950 . S
H602 C578 0.950 . S
H603 C579 0.949 . S
H604 C581 0.950 . S
H605 C583 0.950 . S
C606 C607 1.349 . S
C606 C608 1.327 . S
C606 H631 0.950 . S
C607 C606 1.349 . S
C607 C623 1.349 . S
C608 C606 1.327 . S
C608 C627 1.429 . S
C608 H632 0.950 . S
C609 C626 1.574 . S
C609 C628 1.368 . S
C609 H633 0.949 . S
H610 C614 0.949 . S
C611 C612 1.349 . S
C611 C613 1.327 . S
C611 H634 0.950 . S
C612 C611 1.349 . S
C612 C624 1.349 . S
C613 C611 1.327 . S
C613 C629 1.429 . S
C613 H635 0.950 . S
C614 H610 0.949 . S
C614 C622 1.574 . S
C614 C630 1.368 . S
H615 C623 0.950 . S
H616 C621 0.950 . S
H617 C622 0.949 . S
H618 C624 0.950 . S
H619 C625 0.950 . S
H620 C626 0.949 . S
C621 H616 0.950 . S
C621 C623 1.327 . S
C621 C627 1.429 . S
C622 C614 1.574 . S
C622 H617 0.949 . S
C622 C628 1.368 . S
C623 C607 1.349 . S
C623 H615 0.950 . S
C623 C621 1.327 . S
C624 C612 1.349 . S
C624 H618 0.950 . S
C624 C625 1.327 . S
C625 H619 0.950 . S
C625 C624 1.327 . S
C625 C629 1.429 . S
C626 C609 1.574 . S
C626 H620 0.949 . S
C626 C630 1.368 . S
C627 C608 1.429 . S
C627 C621 1.429 . S
C627 C628 1.523 . S
C628 C609 1.368 . S
C628 C622 1.368 . S
C628 C627 1.523 . S
C629 C613 1.429 . S
C629 C625 1.429 . S
C629 C630 1.523 . S
C630 C614 1.368 . S
C630 C626 1.368 . S
C630 C629 1.523 . S
H631 C606 0.950 . S
H632 C608 0.950 . S
H633 C609 0.949 . S
H634 C611 0.950 . S
H635 C613 0.950 . S
C636 C637 1.349 . S
C636 C638 1.327 . S
C636 H661 0.950 . S
C637 C636 1.349 . S
C637 C653 1.349 . S
C638 C636 1.327 . S
C638 C657 1.429 . S
C638 H662 0.950 . S
C639 C656 1.574 . S
C639 C658 1.368 . S
C639 H663 0.949 . S
H640 C644 0.949 . S
C641 C642 1.349 . S
C641 C643 1.327 . S
C641 H664 0.950 . S
C642 C641 1.349 . S
C642 C654 1.349 . S
C643 C641 1.327 . S
C643 C659 1.429 . S
C643 H665 0.923 1_545 S
C644 H640 0.949 . S
C644 C652 1.574 . S
C644 C660 1.368 . S
H645 C653 0.950 . S
H646 C651 0.950 . S
H647 C652 0.949 . S
H648 C654 0.950 . S
H649 C655 0.950 . S
H650 C656 0.949 . S
C651 H646 0.950 . S
C651 C653 1.327 . S
C651 C657 1.429 . S
C652 C644 1.574 . S
C652 H647 0.949 . S
C652 C658 1.368 . S
C653 C637 1.349 . S
C653 H645 0.950 . S
C653 C651 1.327 . S
C654 C642 1.349 . S
C654 H648 0.950 . S
C654 C655 1.327 . S
C655 H649 0.950 . S
C655 C654 1.327 . S
C655 C659 1.429 . S
C656 C639 1.574 . S
C656 H650 0.949 . S
C656 C660 1.368 . S
C657 C638 1.429 . S
C657 C651 1.429 . S
C657 C658 1.523 . S
C658 C639 1.368 . S
C658 C652 1.368 . S
C658 C657 1.523 . S
C659 C643 1.429 . S
C659 C655 1.429 . S
C659 C660 1.523 1_545 S
C660 C644 1.368 . S
C660 C656 1.368 . S
C660 C659 1.523 1_565 S
H661 C636 0.950 . S
H662 C638 0.950 . S
H663 C639 0.949 . S
H664 C641 0.950 . S
H665 C643 0.923 1_565 S
C666 C667 1.349 . S
C666 C668 1.327 . S
C666 H691 0.950 . S
C667 C666 1.349 . S
C667 C683 1.349 . S
C668 C666 1.327 . S
C668 C687 1.429 . S
C668 H692 0.950 . S
C669 C686 1.574 . S
C669 C688 1.368 . S
C669 H693 0.949 . S
H670 C674 0.949 . S
C671 C672 1.349 . S
C671 C673 1.327 . S
C671 H694 0.950 . S
C672 C671 1.349 . S
C672 C684 1.349 . S
C673 C671 1.327 . S
C673 C689 1.429 . S
C673 H695 0.950 . S
C674 H670 0.949 . S
C674 C682 1.574 . S
C674 C690 1.368 . S
H675 C683 0.950 . S
H676 C681 0.950 . S
H677 C682 0.949 . S
H678 C684 0.950 . S
H679 C685 0.950 . S
H680 C686 0.949 . S
C681 H676 0.950 . S
C681 C683 1.327 . S
C681 C687 1.429 . S
C682 C674 1.574 . S
C682 H677 0.949 . S
C682 C688 1.368 . S
C683 C667 1.349 . S
C683 H675 0.950 . S
C683 C681 1.327 . S
C684 C672 1.349 . S
C684 H678 0.950 . S
C684 C685 1.327 . S
C685 H679 0.950 . S
C685 C684 1.327 . S
C685 C689 1.429 . S
C686 C669 1.574 . S
C686 H680 0.949 . S
C686 C690 1.368 . S
C687 C668 1.429 . S
C687 C681 1.429 . S
C687 C688 1.523 . S
C688 C669 1.368 . S
C688 C682 1.368 . S
C688 C687 1.523 . S
C689 C673 1.429 . S
C689 C685 1.429 . S
C689 C690 1.523 . S
C690 C674 1.368 . S
C690 C686 1.368 . S
C690 C689 1.523 . S
H691 C666 0.950 . S
H692 C668 0.950 . S
H693 C669 0.949 . S
H694 C671 0.950 . S
H695 C673 0.950 . S
C696 C697 1.349 . S
C696 C698 1.327 . S
C696 H721 0.950 . S
C697 C696 1.349 . S
C697 C713 1.349 . S
C698 C696 1.327 . S
C698 C717 1.429 . S
C698 H722 0.950 . S
C699 C716 1.574 . S
C699 C718 1.368 . S
C699 H723 0.949 . S
H700 C704 0.949 . S
C701 C702 1.349 . S
C701 C703 1.327 . S
C701 H724 0.950 . S
C702 C701 1.349 . S
C702 C714 1.349 . S
C703 C701 1.327 . S
C703 C719 1.429 . S
C703 H725 0.950 . S
C704 H700 0.949 . S
C704 C712 1.574 . S
C704 C720 1.368 . S
H705 C713 0.950 . S
H706 C711 0.919 1_556 S
H707 C712 0.949 1_554 S
H708 C714 0.950 . S
H709 C715 0.950 . S
H710 C716 0.949 . S
C711 H706 0.919 1_554 S
C711 C713 1.327 . S
C711 C717 1.429 . S
C712 C704 1.574 . S
C712 H707 0.949 1_556 S
C712 C718 1.368 . S
C713 C697 1.349 . S
C713 H705 0.950 . S
C713 C711 1.327 . S
C714 C702 1.349 . S
C714 H708 0.950 . S
C714 C715 1.327 . S
C715 H709 0.950 . S
C715 C714 1.327 . S
C715 C719 1.429 . S
C716 C699 1.574 . S
C716 H710 0.949 . S
C716 C720 1.368 . S
C717 C698 1.429 . S
C717 C711 1.429 . S
C717 C718 1.523 1_554 S
C718 C699 1.368 . S
C718 C712 1.368 . S
C718 C717 1.523 1_556 S
C719 C703 1.429 . S
C719 C715 1.429 . S
C719 C720 1.523 . S
C720 C704 1.368 . S
C720 C716 1.368 . S
C720 C719 1.523 . S
H721 C696 0.950 . S
H722 C698 0.950 . S
H723 C699 0.949 . S
H724 C701 0.950 . S
H725 C703 0.950 . S
C726 C727 1.349 . S
C726 C728 1.327 . S
C726 H751 0.950 . S
C727 C726 1.349 . S
C727 C743 1.349 . S
C728 C726 1.327 . S
C728 C747 1.429 . S
C728 H752 0.950 . S
C729 C746 1.574 . S
C729 C748 1.368 . S
C729 H753 0.949 . S
H730 C734 0.949 . S
C731 C732 1.349 . S
C731 C733 1.327 . S
C731 H754 0.950 . S
C732 C731 1.349 . S
C732 C744 1.349 . S
C733 C731 1.327 . S
C733 C749 1.429 . S
C733 H755 0.950 . S
C734 H730 0.949 . S
C734 C742 1.574 . S
C734 C750 1.368 . S
H735 C743 0.950 . S
H736 C741 0.950 . S
H737 C742 0.949 . S
H738 C744 0.950 . S
H739 C745 0.950 . S
H740 C746 0.949 . S
C741 H736 0.950 . S
C741 C743 1.327 . S
C741 C747 1.429 . S
C742 C734 1.574 . S
C742 H737 0.949 . S
C742 C748 1.368 . S
C743 C727 1.349 . S
C743 H735 0.950 . S
C743 C741 1.327 . S
C744 C732 1.349 . S
C744 H738 0.950 . S
C744 C745 1.327 . S
C745 H739 0.950 . S
C745 C744 1.327 . S
C745 C749 1.429 . S
C746 C729 1.574 . S
C746 H740 0.949 . S
C746 C750 1.368 . S
C747 C728 1.429 . S
C747 C741 1.429 . S
C747 C748 1.523 1_554 S
C748 C729 1.368 . S
C748 C742 1.368 . S
C748 C747 1.523 1_556 S
C749 C733 1.429 . S
C749 C745 1.429 . S
C749 C750 1.523 . S
C750 C734 1.368 . S
C750 C746 1.368 . S
C750 C749 1.523 . S
H751 C726 0.950 . S
H752 C728 0.950 . S
H753 C729 0.949 . S
H754 C731 0.950 . S
H755 C733 0.950 . S
C756 C757 1.349 . S
C756 C758 1.327 . S
C756 H781 0.950 . S
C757 C756 1.349 . S
C757 C773 1.349 . S
C758 C756 1.327 . S
C758 C777 1.429 . S
C758 H782 0.950 . S
C759 C776 1.574 . S
C759 C778 1.368 . S
C759 H783 0.949 . S
H760 C764 0.949 . S
C761 C762 1.349 . S
C761 C763 1.327 . S
C761 H784 0.950 . S
C762 C761 1.349 . S
C762 C774 1.349 . S
C763 C761 1.327 . S
C763 C779 1.429 . S
C763 H785 0.950 . S
C764 H760 0.949 . S
C764 C772 1.574 . S
C764 C780 1.368 . S
H765 C773 0.950 . S
H766 C771 0.950 . S
H767 C772 0.949 . S
H768 C774 0.950 . S
H769 C775 0.950 . S
H770 C776 0.949 . S
C771 H766 0.950 . S
C771 C773 1.327 . S
C771 C777 1.429 . S
C772 C764 1.574 . S
C772 H767 0.949 . S
C772 C778 1.368 . S
C773 C757 1.349 . S
C773 H765 0.950 . S
C773 C771 1.327 . S
C774 C762 1.349 . S
C774 H768 0.950 . S
C774 C775 1.327 . S
C775 H769 0.950 . S
C775 C774 1.327 . S
C775 C779 1.429 . S
C776 C759 1.574 . S
C776 H770 0.949 . S
C776 C780 1.368 . S
C777 C758 1.429 . S
C777 C771 1.429 . S
C777 C778 1.523 . S
C778 C759 1.368 . S
C778 C772 1.368 . S
C778 C777 1.523 . S
C779 C763 1.429 . S
C779 C775 1.429 . S
C779 C780 1.523 . S
C780 C764 1.368 . S
C780 C776 1.368 . S
C780 C779 1.523 . S
H781 C756 0.950 . S
H782 C758 0.950 . S
H783 C759 0.949 . S
H784 C761 0.950 . S
H785 C763 0.950 . S
C786 C787 1.349 . S
C786 C788 1.327 . S
C786 H811 0.950 . S
C787 C786 1.349 . S
C787 C803 1.349 . S
C788 C786 1.327 . S
C788 C807 1.429 . S
C788 H812 0.950 . S
C789 C806 1.574 . S
C789 C808 1.368 . S
C789 H813 0.949 . S
H790 C794 0.949 . S
C791 C792 1.349 . S
C791 C793 1.327 . S
C791 H814 0.950 . S
C792 C791 1.349 . S
C792 C804 1.349 . S
C793 C791 1.327 . S
C793 C809 1.429 . S
C793 H815 0.950 . S
C794 H790 0.949 . S
C794 C802 1.574 . S
C794 C810 1.368 . S
H795 C803 0.950 . S
H796 C801 0.950 . S
H797 C802 0.949 . S
H798 C804 0.950 . S
H799 C805 0.950 . S
H800 C806 0.949 . S
C801 H796 0.950 . S
C801 C803 1.327 . S
C801 C807 1.429 . S
C802 C794 1.574 . S
C802 H797 0.949 . S
C802 C808 1.368 . S
C803 C787 1.349 . S
C803 H795 0.950 . S
C803 C801 1.327 . S
C804 C792 1.349 . S
C804 H798 0.950 . S
C804 C805 1.327 . S
C805 H799 0.950 . S
C805 C804 1.327 . S
C805 C809 1.429 . S
C806 C789 1.574 . S
C806 H800 0.949 . S
C806 C810 1.368 . S
C807 C788 1.429 . S
C807 C801 1.429 . S
C807 C808 1.523 . S
C808 C789 1.368 . S
C808 C802 1.368 . S
C808 C807 1.523 . S
C809 C793 1.429 . S
C809 C805 1.429 . S
C809 C810 1.523 . S
C810 C794 1.368 . S
C810 C806 1.368 . S
C810 C809 1.523 . S
H811 C786 0.950 . S
H812 C788 0.950 . S
H813 C789 0.949 . S
H814 C791 0.950 . S
H815 C793 0.950 . S
C816 C817 1.349 . S
C816 C818 1.327 . S
C816 H841 0.950 . S
C817 C816 1.349 . S
C817 C833 1.349 . S
C818 C816 1.327 . S
C818 C837 1.429 . S
C818 H842 0.950 . S
C819 C836 1.574 . S
C819 C838 1.368 . S
C819 H843 0.949 . S
H820 C824 0.949 . S
C821 C822 1.349 . S
C821 C823 1.327 . S
C821 H844 0.950 . S
C822 C821 1.349 . S
C822 C834 1.349 . S
C823 C821 1.327 . S
C823 C839 1.429 . S
C823 H845 0.950 . S
C824 H820 0.949 . S
C824 C832 1.574 . S
C824 C840 1.368 . S
H825 C833 0.950 . S
H826 C831 0.950 1_655 S
H827 C832 0.949 1_455 S
H828 C834 0.950 . S
H829 C835 0.950 . S
H830 C836 0.949 . S
C831 H826 0.950 1_455 S
C831 C833 1.327 . S
C831 C837 1.429 . S
C832 C824 1.574 . S
C832 H827 0.949 1_655 S
C832 C838 1.368 . S
C833 C817 1.349 . S
C833 H825 0.950 . S
C833 C831 1.327 . S
C834 C822 1.349 . S
C834 H828 0.950 . S
C834 C835 1.327 . S
C835 H829 0.950 . S
C835 C834 1.327 . S
C835 C839 1.429 . S
C836 C819 1.574 . S
C836 H830 0.949 . S
C836 C840 1.368 . S
C837 C818 1.429 . S
C837 C831 1.429 . S
C837 C838 1.523 1_455 S
C838 C819 1.368 . S
C838 C832 1.368 . S
C838 C837 1.523 1_655 S
C839 C823 1.429 . S
C839 C835 1.429 . S
C839 C840 1.523 . S
C840 C824 1.368 . S
C840 C836 1.368 . S
C840 C839 1.523 . S
H841 C816 0.950 . S
H842 C818 0.950 . S
H843 C819 0.949 . S
H844 C821 0.950 . S
H845 C823 0.950 . S
C846 C847 1.349 . S
C846 C848 1.327 . S
C846 H871 0.950 . S
C847 C846 1.349 . S
C847 C863 1.349 . S
C848 C846 1.327 . S
C848 C867 1.429 . S
C848 H872 0.950 . S
C849 C866 1.574 . S
C849 C868 1.368 . S
C849 H873 0.949 . S
H850 C854 0.949 . S
C851 C852 1.349 . S
C851 C853 1.327 . S
C851 H874 0.950 . S
C852 C851 1.349 . S
C852 C864 1.349 . S
C853 C851 1.327 . S
C853 C869 1.429 . S
C853 H875 0.950 . S
C854 H850 0.949 . S
C854 C862 1.574 . S
C854 C870 1.368 . S
H855 C863 0.950 . S
H856 C861 0.950 . S
H857 C862 0.940 1_655 S
H858 C864 0.950 . S
H859 C865 0.950 . S
H860 C866 0.949 . S
C861 H856 0.950 . S
C861 C863 1.327 . S
C861 C867 1.429 . S
C862 C854 1.574 . S
C862 H857 0.940 1_455 S
C862 C868 1.368 . S
C863 C847 1.349 . S
C863 H855 0.950 . S
C863 C861 1.327 . S
C864 C852 1.349 . S
C864 H858 0.950 . S
C864 C865 1.327 . S
C865 H859 0.950 . S
C865 C864 1.327 . S
C865 C869 1.429 . S
C866 C849 1.574 . S
C866 H860 0.949 . S
C866 C870 1.368 . S
C867 C848 1.429 . S
C867 C861 1.429 . S
C867 C868 1.523 1_655 S
C868 C849 1.368 . S
C868 C862 1.368 . S
C868 C867 1.523 1_455 S
C869 C853 1.429 . S
C869 C865 1.429 . S
C869 C870 1.523 . S
C870 C854 1.368 . S
C870 C866 1.368 . S
C870 C869 1.523 . S
H871 C846 0.950 . S
H872 C848 0.950 . S
H873 C849 0.949 . S
H874 C851 0.950 . S
H875 C853 0.950 . S
C876 C877 1.349 . S
C876 C878 1.327 . S
C876 H901 0.950 . S
C877 C876 1.349 . S
C877 C893 1.349 . S
C878 C876 1.327 . S
C878 C897 1.429 . S
C878 H902 0.950 . S
C879 C896 1.574 . S
C879 C898 1.368 . S
C879 H903 0.949 . S
H880 C884 0.949 . S
C881 C882 1.349 . S
C881 C883 1.327 . S
C881 H904 0.950 . S
C882 C881 1.349 . S
C882 C894 1.349 . S
C883 C881 1.327 . S
C883 C899 1.429 . S
C883 H905 0.950 . S
C884 H880 0.949 . S
C884 C892 1.574 . S
C884 C900 1.368 . S
H885 C893 0.950 . S
H886 C891 0.950 1_655 S
H887 C892 0.967 . S
H888 C894 0.950 . S
H889 C895 0.950 . S
H890 C896 0.949 . S
C891 H886 0.950 1_455 S
C891 C893 1.327 . S
C891 C897 1.429 . S
C892 C884 1.574 . S
C892 H887 0.967 . S
C892 C898 1.368 . S
C893 C877 1.349 . S
C893 H885 0.950 . S
C893 C891 1.327 . S
C894 C882 1.349 . S
C894 H888 0.950 . S
C894 C895 1.327 . S
C895 H889 0.950 . S
C895 C894 1.327 . S
C895 C899 1.429 . S
C896 C879 1.574 . S
C896 H890 0.949 . S
C896 C900 1.368 . S
C897 C878 1.429 . S
C897 C891 1.429 . S
C897 C898 1.523 1_455 S
C898 C879 1.368 . S
C898 C892 1.368 . S
C898 C897 1.523 1_655 S
C899 C883 1.429 . S
C899 C895 1.429 . S
C899 C900 1.523 . S
C900 C884 1.368 . S
C900 C896 1.368 . S
C900 C899 1.523 . S
H901 C876 0.950 . S
H902 C878 0.950 . S
H903 C879 0.949 . S
H904 C881 0.950 . S
H905 C883 0.950 . S
C906 C907 1.349 . S
C906 C908 1.327 . S
C906 H931 0.950 . S
C907 C906 1.349 . S
C907 C923 1.349 . S
C908 C906 1.327 . S
C908 C927 1.429 . S
C908 H932 0.950 . S
C909 C926 1.574 . S
C909 C928 1.368 . S
C909 H933 0.949 . S
H910 C914 0.949 . S
C911 C912 1.349 . S
C911 C913 1.327 . S
C911 H934 0.950 . S
C912 C911 1.349 . S
C912 C924 1.349 . S
C913 C911 1.327 . S
C913 C929 1.429 . S
C913 H935 0.950 . S
C914 H910 0.949 . S
C914 C922 1.574 . S
C914 C930 1.368 . S
H915 C923 0.950 . S
H916 C921 0.950 . S
H917 C922 0.949 . S
H918 C924 0.950 . S
H919 C925 0.950 . S
H920 C926 0.949 . S
C921 H916 0.950 . S
C921 C923 1.327 . S
C921 C927 1.429 . S
C922 C914 1.574 . S
C922 H917 0.949 . S
C922 C928 1.368 . S
C923 C907 1.349 . S
C923 H915 0.950 . S
C923 C921 1.327 . S
C924 C912 1.349 . S
C924 H918 0.950 . S
C924 C925 1.327 . S
C925 H919 0.950 . S
C925 C924 1.327 . S
C925 C929 1.429 . S
C926 C909 1.574 . S
C926 H920 0.949 . S
C926 C930 1.368 . S
C927 C908 1.429 . S
C927 C921 1.429 . S
C927 C928 1.523 . S
C928 C909 1.368 . S
C928 C922 1.368 . S
C928 C927 1.523 . S
C929 C913 1.429 . S
C929 C925 1.429 . S
C929 C930 1.523 1_655 S
C930 C914 1.368 . S
C930 C926 1.368 . S
C930 C929 1.523 1_455 S
H931 C906 0.950 . S
H932 C908 0.950 . S
H933 C909 0.949 . S
H934 C911 0.950 . S
H935 C913 0.950 . S
C936 C937 1.349 . S
C936 C938 1.327 . S
C936 H961 0.950 . S
C937 C936 1.349 . S
C937 C953 1.349 . S
C938 C936 1.327 . S
C938 C957 1.429 . S
C938 H962 0.950 1_545 S
C939 C956 1.574 . S
C939 C958 1.368 . S
C939 H963 0.949 1_565 S
H940 C944 0.949 . S
C941 C942 1.349 . S
C941 C943 1.327 . S
C941 H964 0.950 . S
C942 C941 1.349 . S
C942 C954 1.349 . S
C943 C941 1.327 . S
C943 C959 1.429 . S
C943 H965 0.950 . S
C944 H940 0.949 . S
C944 C952 1.574 . S
C944 C960 1.368 . S
H945 C953 0.950 . S
H946 C951 0.950 . S
H947 C952 0.949 . S
H948 C954 0.950 . S
H949 C955 0.950 . S
H950 C956 0.949 . S
C951 H946 0.950 . S
C951 C953 1.327 . S
C951 C957 1.429 . S
C952 C944 1.574 . S
C952 H947 0.949 . S
C952 C958 1.368 . S
C953 C937 1.349 . S
C953 H945 0.950 . S
C953 C951 1.327 . S
C954 C942 1.349 . S
C954 H948 0.950 . S
C954 C955 1.327 . S
C955 H949 0.950 . S
C955 C954 1.327 . S
C955 C959 1.429 . S
C956 C939 1.574 . S
C956 H950 0.949 . S
C956 C960 1.368 . S
C957 C938 1.429 . S
C957 C951 1.429 . S
C957 C958 1.523 1_545 S
C958 C939 1.368 . S
C958 C952 1.368 . S
C958 C957 1.523 1_565 S
C959 C943 1.429 . S
C959 C955 1.429 . S
C959 C960 1.523 . S
C960 C944 1.368 . S
C960 C956 1.368 . S
C960 C959 1.523 . S
H961 C936 0.950 . S
H962 C938 0.950 1_565 S
H963 C939 0.949 1_545 S
H964 C941 0.950 . S
H965 C943 0.950 . S
C966 C967 1.349 . S
C966 C968 1.327 . S
C966 H991 0.950 . S
C967 C966 1.349 . S
C967 C983 1.349 . S
C968 C966 1.327 . S
C968 C987 1.429 . S
C968 H992 0.950 . S
C969 C986 1.574 . S
C969 C988 1.368 . S
C969 H993 0.949 . S
H970 C974 0.949 . S
C971 C972 1.349 . S
C971 C973 1.327 . S
C971 H994 0.950 . S
C972 C971 1.349 . S
C972 C984 1.349 . S
C973 C971 1.327 . S
C973 C989 1.429 . S
C973 H995 0.950 . S
C974 H970 0.949 . S
C974 C982 1.574 . S
C974 C990 1.368 . S
H975 C983 0.950 . S
H976 C981 0.950 . S
H977 C982 0.949 . S
H978 C984 0.950 . S
H979 C985 0.950 . S
H980 C986 0.949 1_565 S
C981 H976 0.950 . S
C981 C983 1.327 . S
C981 C987 1.429 . S
C982 C974 1.574 . S
C982 H977 0.949 . S
C982 C988 1.368 . S
C983 C967 1.349 . S
C983 H975 0.950 . S
C983 C981 1.327 . S
C984 C972 1.349 . S
C984 H978 0.950 . S
C984 C985 1.327 . S
C985 H979 0.950 . S
C985 C984 1.327 . S
C985 C989 1.429 . S
C986 C969 1.574 . S
C986 H980 0.949 1_545 S
C986 C990 1.368 . S
C987 C968 1.429 . S
C987 C981 1.429 . S
C987 C988 1.523 . S
C988 C969 1.368 . S
C988 C982 1.368 . S
C988 C987 1.523 . S
C989 C973 1.429 . S
C989 C985 1.429 . S
C989 C990 1.523 1_565 S
C990 C974 1.368 . S
C990 C986 1.368 . S
C990 C989 1.523 1_545 S
H991 C966 0.950 . S
H992 C968 0.950 . S
H993 C969 0.949 . S
H994 C971 0.950 . S
H995 C973 0.950 . S
C996 C997 1.349 . S
C996 C998 1.327 . S
C996 H1021 0.950 . S
C997 C996 1.349 . S
C997 C1013 1.349 . S
C998 C996 1.327 . S
C998 C1017 1.429 . S
C998 H1022 0.950 . S
C999 C1016 1.574 . S
C999 C1018 1.368 . S
C999 H1023 0.949 . S
H1000 C1004 0.949 . S
C1001 C1002 1.349 . S
C1001 C1003 1.327 . S
C1001 H1024 0.950 . S
C1002 C1001 1.349 . S
C1002 C1014 1.349 . S
C1003 C1001 1.327 . S
C1003 C1019 1.429 . S
C1003 H1025 0.950 . S
C1004 H1000 0.949 . S
C1004 C1012 1.574 . S
C1004 C1020 1.368 . S
H1005 C1013 0.950 . S
H1006 C1011 0.950 . S
H1007 C1012 0.949 . S
H1008 C1014 0.950 . S
H1009 C1015 0.950 . S
H1010 C1016 0.949 . S
C1011 H1006 0.950 . S
C1011 C1013 1.327 . S
C1011 C1017 1.429 . S
C1012 C1004 1.574 . S
C1012 H1007 0.949 . S
C1012 C1018 1.368 . S
C1013 C997 1.349 . S
C1013 H1005 0.950 . S
C1013 C1011 1.327 . S
C1014 C1002 1.349 . S
C1014 H1008 0.950 . S
C1014 C1015 1.327 . S
C1015 H1009 0.950 . S
C1015 C1014 1.327 . S
C1015 C1019 1.429 . S
C1016 C999 1.574 . S
C1016 H1010 0.949 . S
C1016 C1020 1.368 . S
C1017 C998 1.429 . S
C1017 C1011 1.429 . S
C1017 C1018 1.523 . S
C1018 C999 1.368 . S
C1018 C1012 1.368 . S
C1018 C1017 1.523 . S
C1019 C1003 1.429 . S
C1019 C1015 1.429 . S
C1019 C1020 1.523 . S
C1020 C1004 1.368 . S
C1020 C1016 1.368 . S
C1020 C1019 1.523 . S
H1021 C996 0.950 . S
H1022 C998 0.950 . S
H1023 C999 0.949 . S
H1024 C1001 0.950 . S
H1025 C1003 0.950 . S
C1026 C1027 1.349 . S
C1026 C1028 1.327 . S
C1026 H1051 0.950 . S
C1027 C1026 1.349 . S
C1027 C1043 1.349 . S
C1028 C1026 1.327 . S
C1028 C1047 1.429 . S
C1028 H1052 0.950 . S
C1029 C1046 1.574 . S
C1029 C1048 1.368 . S
C1029 H1053 0.949 . S
H1030 C1034 0.949 . S
C1031 C1032 1.349 . S
C1031 C1033 1.327 . S
C1031 H1054 0.950 . S
C1032 C1031 1.349 . S
C1032 C1044 1.349 . S
C1033 C1031 1.327 . S
C1033 C1049 1.429 . S
C1033 H1055 0.950 . S
C1034 H1030 0.949 . S
C1034 C1042 1.574 . S
C1034 C1050 1.368 . S
H1035 C1043 0.950 . S
H1036 C1041 0.950 . S
H1037 C1042 0.949 . S
H1038 C1044 0.950 . S
H1039 C1045 0.950 . S
H1040 C1046 0.949 . S
C1041 H1036 0.950 . S
C1041 C1043 1.327 . S
C1041 C1047 1.429 . S
C1042 C1034 1.574 . S
C1042 H1037 0.949 . S
C1042 C1048 1.368 . S
C1043 C1027 1.349 . S
C1043 H1035 0.950 . S
C1043 C1041 1.327 . S
C1044 C1032 1.349 . S
C1044 H1038 0.950 . S
C1044 C1045 1.327 . S
C1045 H1039 0.950 . S
C1045 C1044 1.327 . S
C1045 C1049 1.429 . S
C1046 C1029 1.574 . S
C1046 H1040 0.949 . S
C1046 C1050 1.368 . S
C1047 C1028 1.429 . S
C1047 C1041 1.429 . S
C1047 C1048 1.523 . S
C1048 C1029 1.368 . S
C1048 C1042 1.368 . S
C1048 C1047 1.523 . S
C1049 C1033 1.429 . S
C1049 C1045 1.429 . S
C1049 C1050 1.523 1_565 S
C1050 C1034 1.368 . S
C1050 C1046 1.368 . S
C1050 C1049 1.523 1_545 S
H1051 C1026 0.950 . S
H1052 C1028 0.950 . S
H1053 C1029 0.949 . S
H1054 C1031 0.950 . S
H1055 C1033 0.950 . S
C1056 C1057 1.349 . S
C1056 C1058 1.327 . S
C1056 H1081 0.950 . S
C1057 C1056 1.349 . S
C1057 C1073 1.349 1_655 S
C1058 C1056 1.327 . S
C1058 C1077 1.429 . S
C1058 H1082 0.950 . S
C1059 C1076 1.574 . S
C1059 C1078 1.365 1_455 S
C1059 H1083 0.949 . S
H1060 C1064 0.949 . S
C1061 C1062 1.349 . S
C1061 C1063 1.327 . S
C1061 H1084 0.950 . S
C1062 C1061 1.349 . S
C1062 C1074 1.349 1_455 S
C1063 C1061 1.327 . S
C1063 C1079 1.429 . S
C1063 H1085 0.950 . S
C1064 H1060 0.949 . S
C1064 C1072 1.574 . S
C1064 C1080 1.368 1_655 S
H1065 C1073 0.950 . S
H1066 C1071 0.950 . S
H1067 C1072 0.949 . S
H1068 C1074 0.950 . S
H1069 C1075 0.950 . S
H1070 C1076 0.949 . S
C1071 H1066 0.950 . S
C1071 C1073 1.327 . S
C1071 C1077 1.429 1_455 S
C1072 C1064 1.574 . S
C1072 H1067 0.949 . S
C1072 C1078 1.371 . S
C1073 C1057 1.349 1_455 S
C1073 H1065 0.950 . S
C1073 C1071 1.327 . S
C1074 C1062 1.349 1_655 S
C1074 H1068 0.950 . S
C1074 C1075 1.327 . S
C1075 H1069 0.950 . S
C1075 C1074 1.327 . S
C1075 C1079 1.429 1_655 S
C1076 C1059 1.574 . S
C1076 H1070 0.949 . S
C1076 C1080 1.368 . S
C1077 C1058 1.429 . S
C1077 C1071 1.429 1_655 S
C1077 C1078 1.523 . S
C1078 C1059 1.365 1_655 S
C1078 C1072 1.371 . S
C1078 C1077 1.523 . S
C1079 C1063 1.429 . S
C1079 C1075 1.429 1_455 S
C1079 C1080 1.523 . S
C1080 C1064 1.368 1_455 S
C1080 C1076 1.368 . S
C1080 C1079 1.523 . S
H1081 C1056 0.950 . S
H1082 C1058 0.950 . S
H1083 C1059 0.949 . S
H1084 C1061 0.950 . S
H1085 C1063 0.950 . S
C1086 C1087 1.349 . S
C1086 C1088 1.327 . S
C1086 H1111 0.950 . S
C1087 C1086 1.349 . S
C1087 C1103 1.349 1_455 S
C1088 C1086 1.327 . S
C1088 C1107 1.429 . S
C1088 H1112 0.950 . S
C1089 C1106 1.574 . S
C1089 C1108 1.368 1_655 S
C1089 H1113 0.949 . S
H1090 C1094 0.949 . S
C1091 C1092 1.349 . S
C1091 C1093 1.327 . S
C1091 H1114 0.950 . S
C1092 C1091 1.349 . S
C1092 C1104 1.349 1_655 S
C1093 C1091 1.327 . S
C1093 C1109 1.429 . S
C1093 H1115 0.950 . S
C1094 H1090 0.949 . S
C1094 C1102 1.574 . S
C1094 C1110 1.353 1_455 S
H1095 C1103 0.950 . S
H1096 C1101 0.950 . S
H1097 C1102 0.949 . S
H1098 C1104 0.950 . S
H1099 C1105 0.950 . S
H1100 C1106 0.949 . S
C1101 H1096 0.950 . S
C1101 C1103 1.327 . S
C1101 C1107 1.429 1_655 S
C1102 C1094 1.574 . S
C1102 H1097 0.949 . S
C1102 C1108 1.368 . S
C1103 C1087 1.349 1_655 S
C1103 H1095 0.950 . S
C1103 C1101 1.327 . S
C1104 C1092 1.349 1_455 S
C1104 H1098 0.950 . S
C1104 C1105 1.327 . S
C1105 H1099 0.950 . S
C1105 C1104 1.327 . S
C1105 C1109 1.429 1_455 S
C1106 C1089 1.574 . S
C1106 H1100 0.949 . S
C1106 C1110 1.383 . S
C1107 C1088 1.429 . S
C1107 C1101 1.429 1_455 S
C1107 C1108 1.523 . S
C1108 C1089 1.368 1_455 S
C1108 C1102 1.368 . S
C1108 C1107 1.523 . S
C1109 C1093 1.429 . S
C1109 C1105 1.429 1_655 S
C1109 C1110 1.525 . S
C1110 C1094 1.353 1_655 S
C1110 C1106 1.383 . S
C1110 C1109 1.525 . S
H1111 C1086 0.950 . S
H1112 C1088 0.950 . S
H1113 C1089 0.949 . S
H1114 C1091 0.950 . S
H1115 C1093 0.950 . S
C1116 C1117 1.349 . S
C1116 C1118 1.327 . S
C1116 H1141 0.950 . S
C1117 C1116 1.349 . S
C1117 C1133 1.349 1_565 S
C1118 C1116 1.327 . S
C1118 C1137 1.429 . S
C1118 H1142 0.950 . S
C1119 C1136 1.574 . S
C1119 C1138 1.363 1_545 S
C1119 H1143 0.949 . S
H1120 C1124 0.949 . S
C1121 C1122 1.349 . S
C1121 C1123 1.327 . S
C1121 H1144 0.950 . S
C1122 C1121 1.349 . S
C1122 C1134 1.349 1_545 S
C1123 C1121 1.327 . S
C1123 C1139 1.429 . S
C1123 H1145 0.950 . S
C1124 H1120 0.949 . S
C1124 C1132 1.574 . S
C1124 C1140 1.368 1_565 S
H1125 C1133 0.950 . S
H1126 C1131 0.950 . S
H1127 C1132 0.949 . S
H1128 C1134 0.950 . S
H1129 C1135 0.950 . S
H1130 C1136 0.949 . S
C1131 H1126 0.950 . S
C1131 C1133 1.327 . S
C1131 C1137 1.429 1_545 S
C1132 C1124 1.574 . S
C1132 H1127 0.949 . S
C1132 C1138 1.373 . S
C1133 C1117 1.349 1_545 S
C1133 H1125 0.950 . S
C1133 C1131 1.327 . S
C1134 C1122 1.349 1_565 S
C1134 H1128 0.950 . S
C1134 C1135 1.327 . S
C1135 H1129 0.950 . S
C1135 C1134 1.327 . S
C1135 C1139 1.429 1_565 S
C1136 C1119 1.574 . S
C1136 H1130 0.949 . S
C1136 C1140 1.368 . S
C1137 C1118 1.429 . S
C1137 C1131 1.429 1_565 S
C1137 C1138 1.523 . S
C1138 C1119 1.363 1_565 S
C1138 C1132 1.373 . S
C1138 C1137 1.523 . S
C1139 C1123 1.429 . S
C1139 C1135 1.429 1_545 S
C1139 C1140 1.523 . S
C1140 C1124 1.368 1_545 S
C1140 C1136 1.368 . S
C1140 C1139 1.523 . S
H1141 C1116 0.950 . S
H1142 C1118 0.950 . S
H1143 C1119 0.949 . S
H1144 C1121 0.950 . S
H1145 C1123 0.950 . S
C1146 C1147 1.349 . S
C1146 C1148 1.327 . S
C1146 H1171 0.950 . S
C1147 C1146 1.349 . S
C1147 C1163 1.349 . S
C1148 C1146 1.327 . S
C1148 C1167 1.429 . S
C1148 H1172 0.950 . S
C1149 C1166 1.574 . S
C1149 C1168 1.368 . S
C1149 H1173 0.949 . S
H1150 C1154 0.949 . S
C1151 C1152 1.349 . S
C1151 C1153 1.327 . S
C1151 H1174 0.950 . S
C1152 C1151 1.349 . S
C1152 C1164 1.349 . S
C1153 C1151 1.327 . S
C1153 C1169 1.429 . S
C1153 H1175 0.950 . S
C1154 H1150 0.949 . S
C1154 C1162 1.574 . S
C1154 C1170 1.368 . S
H1155 C1163 0.950 . S
H1156 C1161 0.950 . S
H1157 C1162 0.949 . S
H1158 C1164 0.950 . S
H1159 C1165 0.950 . S
H1160 C1166 0.949 . S
C1161 H1156 0.950 . S
C1161 C1163 1.327 . S
C1161 C1167 1.429 . S
C1162 C1154 1.574 . S
C1162 H1157 0.949 . S
C1162 C1168 1.368 . S
C1163 C1147 1.349 . S
C1163 H1155 0.950 . S
C1163 C1161 1.327 . S
C1164 C1152 1.349 . S
C1164 H1158 0.950 . S
C1164 C1165 1.327 . S
C1165 H1159 0.950 . S
C1165 C1164 1.327 . S
C1165 C1169 1.429 . S
C1166 C1149 1.574 . S
C1166 H1160 0.949 . S
C1166 C1170 1.368 . S
C1167 C1148 1.429 . S
C1167 C1161 1.429 . S
C1167 C1168 1.523 . S
C1168 C1149 1.368 . S
C1168 C1162 1.368 . S
C1168 C1167 1.523 . S
C1169 C1153 1.429 . S
C1169 C1165 1.429 . S
C1169 C1170 1.523 . S
C1170 C1154 1.368 . S
C1170 C1166 1.368 . S
C1170 C1169 1.523 . S
H1171 C1146 0.950 . S
H1172 C1148 0.950 . S
H1173 C1149 0.949 . S
H1174 C1151 0.950 . S
H1175 C1153 0.950 . S
C1176 C1177 1.349 . S
C1176 C1178 1.327 . S
C1176 H1201 0.950 . S
C1177 C1176 1.349 . S
C1177 C1193 1.360 . S
C1178 C1176 1.327 . S
C1178 C1197 1.429 . S
C1178 H1202 0.950 . S
C1179 C1196 1.574 . S
C1179 C1198 1.368 1_556 S
C1179 H1203 0.949 . S
H1180 C1184 0.949 . S
C1181 C1182 1.349 . S
C1181 C1183 1.327 . S
C1181 H1204 0.950 . S
C1182 C1181 1.349 . S
C1182 C1194 1.347 1_556 S
C1183 C1181 1.327 . S
C1183 C1199 1.429 . S
C1183 H1205 0.950 . S
C1184 H1180 0.949 . S
C1184 C1192 1.574 . S
C1184 C1200 1.365 1_554 S
H1185 C1193 0.944 1_556 S
H1186 C1191 0.950 . S
H1187 C1192 0.949 . S
H1188 C1194 0.951 . S
H1189 C1195 0.950 . S
H1190 C1196 0.949 . S
C1191 H1186 0.950 . S
C1191 C1193 1.325 1_556 S
C1191 C1197 1.428 1_556 S
C1192 C1184 1.574 . S
C1192 H1187 0.949 . S
C1192 C1198 1.368 . S
C1193 C1177 1.360 . S
C1193 H1185 0.944 1_554 S
C1193 C1191 1.325 1_554 S
C1194 C1182 1.347 1_554 S
C1194 H1188 0.951 . S
C1194 C1195 1.328 . S
C1195 H1189 0.950 . S
C1195 C1194 1.328 . S
C1195 C1199 1.429 1_554 S
C1196 C1179 1.574 . S
C1196 H1190 0.949 . S
C1196 C1200 1.371 . S
C1197 C1178 1.429 . S
C1197 C1191 1.428 1_554 S
C1197 C1198 1.523 . S
C1198 C1179 1.368 1_554 S
C1198 C1192 1.368 . S
C1198 C1197 1.523 . S
C1199 C1183 1.429 . S
C1199 C1195 1.429 1_556 S
C1199 C1200 1.524 . S
C1200 C1184 1.365 1_556 S
C1200 C1196 1.371 . S
C1200 C1199 1.524 . S
H1201 C1176 0.950 . S
H1202 C1178 0.950 . S
H1203 C1179 0.949 . S
H1204 C1181 0.950 . S
H1205 C1183 0.950 . S
C1206 C1207 1.349 . S
C1206 C1208 1.327 . S
C1206 H1231 0.950 . S
C1207 C1206 1.349 . S
C1207 C1223 1.349 . S
C1208 C1206 1.327 . S
C1208 C1227 1.429 . S
C1208 H1232 0.950 . S
C1209 C1226 1.574 . S
C1209 C1228 1.368 . S
C1209 H1233 0.949 . S
H1210 C1214 0.949 . S
C1211 C1212 1.349 . S
C1211 C1213 1.327 . S
C1211 H1234 0.950 . S
C1212 C1211 1.349 . S
C1212 C1224 1.349 . S
C1213 C1211 1.327 . S
C1213 C1229 1.429 . S
C1213 H1235 0.950 . S
C1214 H1210 0.949 . S
C1214 C1222 1.574 . S
C1214 C1230 1.368 . S
H1215 C1223 0.950 . S
H1216 C1221 0.950 . S
H1217 C1222 0.949 . S
H1218 C1224 0.950 . S
H1219 C1225 0.950 . S
H1220 C1226 0.949 . S
C1221 H1216 0.950 . S
C1221 C1223 1.327 . S
C1221 C1227 1.429 . S
C1222 C1214 1.574 . S
C1222 H1217 0.949 . S
C1222 C1228 1.368 . S
C1223 C1207 1.349 . S
C1223 H1215 0.950 . S
C1223 C1221 1.327 . S
C1224 C1212 1.349 . S
C1224 H1218 0.950 . S
C1224 C1225 1.327 . S
C1225 H1219 0.950 . S
C1225 C1224 1.327 . S
C1225 C1229 1.429 . S
C1226 C1209 1.574 . S
C1226 H1220 0.949 . S
C1226 C1230 1.368 . S
C1227 C1208 1.429 . S
C1227 C1221 1.429 . S
C1227 C1228 1.523 . S
C1228 C1209 1.368 . S
C1228 C1222 1.368 . S
C1228 C1227 1.523 . S
C1229 C1213 1.429 . S
C1229 C1225 1.429 . S
C1229 C1230 1.523 . S
C1230 C1214 1.368 . S
C1230 C1226 1.368 . S
C1230 C1229 1.523 . S
H1231 C1206 0.950 . S
H1232 C1208 0.950 . S
H1233 C1209 0.949 . S
H1234 C1211 0.950 . S
H1235 C1213 0.950 . S
C1236 C1237 1.349 . S
C1236 C1238 1.327 . S
C1236 H1261 0.950 . S
C1237 C1236 1.349 . S
C1237 C1253 1.349 . S
C1238 C1236 1.327 . S
C1238 C1257 1.429 . S
C1238 H1262 0.950 . S
C1239 C1256 1.574 . S
C1239 C1258 1.368 . S
C1239 H1263 0.949 . S
H1240 C1244 0.949 . S
C1241 C1242 1.349 . S
C1241 C1243 1.327 . S
C1241 H1264 0.950 . S
C1242 C1241 1.349 . S
C1242 C1254 1.349 . S
C1243 C1241 1.327 . S
C1243 C1259 1.429 . S
C1243 H1265 0.950 . S
C1244 H1240 0.949 . S
C1244 C1252 1.574 . S
C1244 C1260 1.368 . S
H1245 C1253 0.950 . S
H1246 C1251 0.950 . S
H1247 C1252 0.949 . S
H1248 C1254 0.950 . S
H1249 C1255 0.950 . S
H1250 C1256 0.949 . S
C1251 H1246 0.950 . S
C1251 C1253 1.327 . S
C1251 C1257 1.429 . S
C1252 C1244 1.574 . S
C1252 H1247 0.949 . S
C1252 C1258 1.368 . S
C1253 C1237 1.349 . S
C1253 H1245 0.950 . S
C1253 C1251 1.327 . S
C1254 C1242 1.349 . S
C1254 H1248 0.950 . S
C1254 C1255 1.327 . S
C1255 H1249 0.950 . S
C1255 C1254 1.327 . S
C1255 C1259 1.429 . S
C1256 C1239 1.574 . S
C1256 H1250 0.949 . S
C1256 C1260 1.368 . S
C1257 C1238 1.429 . S
C1257 C1251 1.429 . S
C1257 C1258 1.523 . S
C1258 C1239 1.368 . S
C1258 C1252 1.368 . S
C1258 C1257 1.523 . S
C1259 C1243 1.429 . S
C1259 C1255 1.429 . S
C1259 C1260 1.523 . S
C1260 C1244 1.368 . S
C1260 C1256 1.368 . S
C1260 C1259 1.523 . S
H1261 C1236 0.950 . S
H1262 C1238 0.950 . S
H1263 C1239 0.949 . S
H1264 C1241 0.950 . S
H1265 C1243 0.950 . S
C1266 C1267 1.349 . S
C1266 C1268 1.327 . S
C1266 H1291 0.950 . S
C1267 C1266 1.349 . S
C1267 C1283 1.349 . S
C1268 C1266 1.327 . S
C1268 C1287 1.429 . S
C1268 H1292 0.950 . S
C1269 C1286 1.574 . S
C1269 C1288 1.368 . S
C1269 H1293 0.949 . S
H1270 C1274 0.949 . S
C1271 C1272 1.349 . S
C1271 C1273 1.327 . S
C1271 H1294 0.950 . S
C1272 C1271 1.349 . S
C1272 C1284 1.349 . S
C1273 C1271 1.327 . S
C1273 C1289 1.429 . S
C1273 H1295 0.950 . S
C1274 H1270 0.949 . S
C1274 C1282 1.574 . S
C1274 C1290 1.368 . S
H1275 C1283 0.950 . S
H1276 C1281 0.950 . S
H1277 C1282 0.949 . S
H1278 C1284 0.950 . S
H1279 C1285 0.950 . S
H1280 C1286 0.949 . S
C1281 H1276 0.950 . S
C1281 C1283 1.327 . S
C1281 C1287 1.429 . S
C1282 C1274 1.574 . S
C1282 H1277 0.949 . S
C1282 C1288 1.368 . S
C1283 C1267 1.349 . S
C1283 H1275 0.950 . S
C1283 C1281 1.327 . S
C1284 C1272 1.349 . S
C1284 H1278 0.950 . S
C1284 C1285 1.327 . S
C1285 H1279 0.950 . S
C1285 C1284 1.327 . S
C1285 C1289 1.429 . S
C1286 C1269 1.574 . S
C1286 H1280 0.949 . S
C1286 C1290 1.368 . S
C1287 C1268 1.429 . S
C1287 C1281 1.429 . S
C1287 C1288 1.523 . S
C1288 C1269 1.368 . S
C1288 C1282 1.368 . S
C1288 C1287 1.523 . S
C1289 C1273 1.429 . S
C1289 C1285 1.429 . S
C1289 C1290 1.523 . S
C1290 C1274 1.368 . S
C1290 C1286 1.368 . S
C1290 C1289 1.523 . S
H1291 C1266 0.950 . S
H1292 C1268 0.950 . S
H1293 C1269 0.949 . S
H1294 C1271 0.950 . S
H1295 C1273 0.950 . S
C1296 C1297 1.349 . S
C1296 C1298 1.327 . S
C1296 H1321 0.950 . S
C1297 C1296 1.349 . S
C1297 C1313 1.349 . S
C1298 C1296 1.327 . S
C1298 C1317 1.429 . S
C1298 H1322 0.950 . S
C1299 C1316 1.574 . S
C1299 C1318 1.368 . S
C1299 H1323 0.949 . S
H1300 C1304 0.949 . S
C1301 C1302 1.349 . S
C1301 C1303 1.327 . S
C1301 H1324 0.950 . S
C1302 C1301 1.349 . S
C1302 C1314 1.349 . S
C1303 C1301 1.327 . S
C1303 C1319 1.429 . S
C1303 H1325 0.950 . S
C1304 H1300 0.949 . S
C1304 C1312 1.574 . S
C1304 C1320 1.368 . S
H1305 C1313 0.950 . S
H1306 C1311 0.950 . S
H1307 C1312 0.949 . S
H1308 C1314 0.950 . S
H1309 C1315 0.950 . S
H1310 C1316 0.949 . S
C1311 H1306 0.950 . S
C1311 C1313 1.327 . S
C1311 C1317 1.429 . S
C1312 C1304 1.574 . S
C1312 H1307 0.949 . S
C1312 C1318 1.368 . S
C1313 C1297 1.349 . S
C1313 H1305 0.950 . S
C1313 C1311 1.327 . S
C1314 C1302 1.349 . S
C1314 H1308 0.950 . S
C1314 C1315 1.327 . S
C1315 H1309 0.950 . S
C1315 C1314 1.327 . S
C1315 C1319 1.429 . S
C1316 C1299 1.574 . S
C1316 H1310 0.949 . S
C1316 C1320 1.368 . S
C1317 C1298 1.429 . S
C1317 C1311 1.429 . S
C1317 C1318 1.523 . S
C1318 C1299 1.368 . S
C1318 C1312 1.368 . S
C1318 C1317 1.523 . S
C1319 C1303 1.429 . S
C1319 C1315 1.429 . S
C1319 C1320 1.523 . S
C1320 C1304 1.368 . S
C1320 C1316 1.368 . S
C1320 C1319 1.523 . S
H1321 C1296 0.950 . S
H1322 C1298 0.950 . S
H1323 C1299 0.949 . S
H1324 C1301 0.950 . S
H1325 C1303 0.950 . S
C1326 C1327 1.349 . S
C1326 C1328 1.327 . S
C1326 H1351 0.950 . S
C1327 C1326 1.349 . S
C1327 C1343 1.349 . S
C1328 C1326 1.327 . S
C1328 C1347 1.429 . S
C1328 H1352 0.950 . S
C1329 C1346 1.574 . S
C1329 C1348 1.368 . S
C1329 H1353 0.949 . S
H1330 C1334 0.949 . S
C1331 C1332 1.349 . S
C1331 C1333 1.327 . S
C1331 H1354 0.950 . S
C1332 C1331 1.349 . S
C1332 C1344 1.349 . S
C1333 C1331 1.327 . S
C1333 C1349 1.429 . S
C1333 H1355 0.950 . S
C1334 H1330 0.949 . S
C1334 C1342 1.574 . S
C1334 C1350 1.368 . S
H1335 C1343 0.950 . S
H1336 C1341 0.950 . S
H1337 C1342 0.949 . S
H1338 C1344 0.950 . S
H1339 C1345 0.950 . S
H1340 C1346 0.949 . S
C1341 H1336 0.950 . S
C1341 C1343 1.327 . S
C1341 C1347 1.429 . S
C1342 C1334 1.574 . S
C1342 H1337 0.949 . S
C1342 C1348 1.368 . S
C1343 C1327 1.349 . S
C1343 H1335 0.950 . S
C1343 C1341 1.327 . S
C1344 C1332 1.349 . S
C1344 H1338 0.950 . S
C1344 C1345 1.327 . S
C1345 H1339 0.950 . S
C1345 C1344 1.327 . S
C1345 C1349 1.429 . S
C1346 C1329 1.574 . S
C1346 H1340 0.949 . S
C1346 C1350 1.368 . S
C1347 C1328 1.429 . S
C1347 C1341 1.429 . S
C1347 C1348 1.523 . S
C1348 C1329 1.368 . S
C1348 C1342 1.368 . S
C1348 C1347 1.523 . S
C1349 C1333 1.429 . S
C1349 C1345 1.429 . S
C1349 C1350 1.523 . S
C1350 C1334 1.368 . S
C1350 C1346 1.368 . S
C1350 C1349 1.523 . S
H1351 C1326 0.950 . S
H1352 C1328 0.950 . S
H1353 C1329 0.949 . S
H1354 C1331 0.950 . S
H1355 C1333 0.950 . S
C1356 C1357 1.349 1_565 S
C1356 C1358 1.327 . S
C1356 H1381 0.950 . S
C1357 C1356 1.349 1_545 S
C1357 C1373 1.349 . S
C1358 C1356 1.327 . S
C1358 C1377 1.429 1_565 S
C1358 H1382 0.950 . S
C1359 C1376 1.574 . S
C1359 C1378 1.368 . S
C1359 H1383 0.949 . S
H1360 C1364 0.949 . S
C1361 C1362 1.349 1_545 S
C1361 C1363 1.327 . S
C1361 H1384 0.950 . S
C1362 C1361 1.349 1_565 S
C1362 C1374 1.349 . S
C1363 C1361 1.327 . S
C1363 C1379 1.429 1_545 S
C1363 H1385 0.950 . S
C1364 H1360 0.949 . S
C1364 C1372 1.574 . S
C1364 C1380 1.390 . S
H1365 C1373 0.950 . S
H1366 C1371 0.950 . S
H1367 C1372 0.949 . S
H1368 C1374 0.950 . S
H1369 C1375 0.950 . S
H1370 C1376 0.949 . S
C1371 H1366 0.950 . S
C1371 C1373 1.327 . S
C1371 C1377 1.429 . S
C1372 C1364 1.574 . S
C1372 H1367 0.949 . S
C1372 C1378 1.368 1_565 S
C1373 C1357 1.349 . S
C1373 H1365 0.950 . S
C1373 C1371 1.327 . S
C1374 C1362 1.349 . S
C1374 H1368 0.950 . S
C1374 C1375 1.327 . S
C1375 H1369 0.950 . S
C1375 C1374 1.327 . S
C1375 C1379 1.429 . S
C1376 C1359 1.574 . S
C1376 H1370 0.949 . S
C1376 C1380 1.346 1_545 S
C1377 C1358 1.429 1_545 S
C1377 C1371 1.429 . S
C1377 C1378 1.523 . S
C1378 C1359 1.368 . S
C1378 C1372 1.368 1_545 S
C1378 C1377 1.523 . S
C1379 C1363 1.429 1_565 S
C1379 C1375 1.429 . S
C1379 C1380 1.525 . S
C1380 C1364 1.390 . S
C1380 C1376 1.346 1_565 S
C1380 C1379 1.525 . S
H1381 C1356 0.950 . S
H1382 C1358 0.950 . S
H1383 C1359 0.949 . S
H1384 C1361 0.950 . S
H1385 C1363 0.950 . S
C1386 C1387 1.345 1_554 S
C1386 C1388 1.328 . S
C1386 H1411 0.953 . S
C1387 C1386 1.345 1_556 S
C1387 C1403 1.349 . S
C1388 C1386 1.328 . S
C1388 C1407 1.429 1_554 S
C1388 H1412 0.950 . S
C1389 C1406 1.574 . S
C1389 C1408 1.371 . S
C1389 H1413 0.949 . S
H1390 C1394 0.949 . S
C1391 C1392 1.349 . S
C1391 C1393 1.327 1_554 S
C1391 H1414 0.950 1_554 S
C1392 C1391 1.349 . S
C1392 C1404 1.349 . S
C1393 C1391 1.327 1_556 S
C1393 C1409 1.428 1_556 S
C1393 H1415 0.950 . S
C1394 H1390 0.949 . S
C1394 C1402 1.574 . S
C1394 C1410 1.368 . S
H1395 C1403 0.950 . S
H1396 C1401 0.950 . S
H1397 C1402 0.949 . S
H1398 C1404 0.950 . S
H1399 C1405 0.950 . S
H1400 C1406 0.949 . S
C1401 H1396 0.950 . S
C1401 C1403 1.327 . S
C1401 C1407 1.429 . S
C1402 C1394 1.574 . S
C1402 H1397 0.949 . S
C1402 C1408 1.365 1_554 S
C1403 C1387 1.349 . S
C1403 H1395 0.950 . S
C1403 C1401 1.327 . S
C1404 C1392 1.349 . S
C1404 H1398 0.950 . S
C1404 C1405 1.327 . S
C1405 H1399 0.950 . S
C1405 C1404 1.327 . S
C1405 C1409 1.429 . S
C1406 C1389 1.574 . S
C1406 H1400 0.949 . S
C1406 C1410 1.368 1_556 S
C1407 C1388 1.429 1_556 S
C1407 C1401 1.429 . S
C1407 C1408 1.524 . S
C1408 C1389 1.371 . S
C1408 C1402 1.365 1_556 S
C1408 C1407 1.524 . S
C1409 C1393 1.428 1_554 S
C1409 C1405 1.429 . S
C1409 C1410 1.523 . S
C1410 C1394 1.368 . S
C1410 C1406 1.368 1_554 S
C1410 C1409 1.523 . S
H1411 C1386 0.953 . S
H1412 C1388 0.950 . S
H1413 C1389 0.949 . S
H1414 C1391 0.950 1_556 S
H1415 C1393 0.950 . S
C1416 C1417 1.349 . S
C1416 C1418 1.327 . S
C1416 H1441 0.950 . S
C1417 C1416 1.349 . S
C1417 C1433 1.349 1_455 S
C1418 C1416 1.327 . S
C1418 C1437 1.429 . S
C1418 H1442 0.950 . S
C1419 C1436 1.570 . S
C1419 C1438 1.373 1_645 S
C1419 H1443 0.948 . S
H1420 C1424 0.949 . S
C1421 C1422 1.334 1_655 S
C1421 C1423 1.327 . S
C1421 H1444 0.950 . S
C1422 C1421 1.334 1_455 S
C1422 C1434 1.364 . S
C1423 C1421 1.327 . S
C1423 C1439 1.399 1_655 S
C1423 H1445 0.950 . S
C1424 H1420 0.949 . S
C1424 C1432 1.574 . S
C1424 C1440 1.368 1_565 S
H1425 C1433 0.950 . S
H1426 C1431 0.950 . S
H1427 C1432 0.949 . S
H1428 C1434 0.950 . S
H1429 C1435 0.950 . S
H1430 C1436 0.949 . S
C1431 H1426 0.950 . S
C1431 C1433 1.327 . S
C1431 C1437 1.429 1_655 S
C1432 C1424 1.574 . S
C1432 H1427 0.949 . S
C1432 C1438 1.368 . S
C1433 C1417 1.349 1_655 S
C1433 H1425 0.950 . S
C1433 C1431 1.327 . S
C1434 C1422 1.364 . S
C1434 H1428 0.950 . S
C1434 C1435 1.327 . S
C1435 H1429 0.950 . S
C1435 C1434 1.327 . S
C1435 C1439 1.458 . S
C1436 C1419 1.570 . S
C1436 H1430 0.949 . S
C1436 C1440 1.368 1_655 S
C1437 C1418 1.429 . S
C1437 C1431 1.429 1_455 S
C1437 C1438 1.523 . S
C1438 C1419 1.373 1_465 S
C1438 C1432 1.368 . S
C1438 C1437 1.523 . S
C1439 C1423 1.399 1_455 S
C1439 C1435 1.458 . S
C1439 C1440 1.524 . S
C1440 C1424 1.368 1_545 S
C1440 C1436 1.368 1_455 S
C1440 C1439 1.524 . S
H1441 C1416 0.950 . S
H1442 C1418 0.950 . S
H1443 C1419 0.948 . S
H1444 C1421 0.950 . S
H1445 C1423 0.950 . S
C1446 C1447 1.349 . S
C1446 C1448 1.327 . S
C1446 H1471 0.950 . S
C1447 C1446 1.349 . S
C1447 C1463 1.349 1_655 S
C1448 C1446 1.327 . S
C1448 C1467 1.429 . S
C1448 H1472 0.950 . S
C1449 C1466 1.574 . S
C1449 C1468 1.368 1_455 S
C1449 H1473 0.949 . S
H1450 C1454 0.949 . S
C1451 C1452 1.349 1_455 S
C1451 C1453 1.327 . S
C1451 H1474 0.950 . S
C1452 C1451 1.349 1_655 S
C1452 C1464 1.349 . S
C1453 C1451 1.327 . S
C1453 C1469 1.429 1_455 S
C1453 H1475 0.950 . S
C1454 H1450 0.949 . S
C1454 C1462 1.574 . S
C1454 C1470 1.368 . S
H1455 C1463 0.950 . S
H1456 C1461 0.950 . S
H1457 C1462 0.949 . S
H1458 C1464 0.950 . S
H1459 C1465 0.950 . S
H1460 C1466 0.949 . S
C1461 H1456 0.950 . S
C1461 C1463 1.327 . S
C1461 C1467 1.429 1_455 S
C1462 C1454 1.574 . S
C1462 H1457 0.949 . S
C1462 C1468 1.368 . S
C1463 C1447 1.349 1_455 S
C1463 H1455 0.950 . S
C1463 C1461 1.327 . S
C1464 C1452 1.349 . S
C1464 H1458 0.950 . S
C1464 C1465 1.327 . S
C1465 H1459 0.950 . S
C1465 C1464 1.327 . S
C1465 C1469 1.429 . S
C1466 C1449 1.574 . S
C1466 H1460 0.949 . S
C1466 C1470 1.368 1_455 S
C1467 C1448 1.429 . S
C1467 C1461 1.429 1_655 S
C1467 C1468 1.523 . S
C1468 C1449 1.368 1_655 S
C1468 C1462 1.368 . S
C1468 C1467 1.523 . S
C1469 C1453 1.429 1_655 S
C1469 C1465 1.429 . S
C1469 C1470 1.523 . S
C1470 C1454 1.368 . S
C1470 C1466 1.368 1_655 S
C1470 C1469 1.523 . S
H1471 C1446 0.950 . S
H1472 C1448 0.950 . S
H1473 C1449 0.949 . S
H1474 C1451 0.950 . S
H1475 C1453 0.950 . S
C1476 C1477 1.349 . S
C1476 C1478 1.327 . S
C1476 H1501 0.950 . S
C1477 C1476 1.349 . S
C1477 C1493 1.349 1_545 S
C1478 C1476 1.327 . S
C1478 C1497 1.429 . S
C1478 H1502 0.950 . S
C1479 C1496 1.574 . S
C1479 C1498 1.368 1_565 S
C1479 H1503 0.949 . S
H1480 C1484 0.949 . S
C1481 C1482 1.332 1_565 S
C1481 C1483 1.327 . S
C1481 H1504 0.950 . S
C1482 C1481 1.332 1_545 S
C1482 C1494 1.367 . S
C1483 C1481 1.327 . S
C1483 C1499 1.395 1_565 S
C1483 H1505 0.950 . S
C1484 H1480 0.949 . S
C1484 C1492 1.574 1_554 S
C1484 C1500 1.368 . S
H1485 C1493 0.950 . S
H1486 C1491 0.950 . S
H1487 C1492 0.949 . S
H1488 C1494 0.950 . S
H1489 C1495 0.950 . S
H1490 C1496 0.949 . S
C1491 H1486 0.950 . S
C1491 C1493 1.327 . S
C1491 C1497 1.429 1_565 S
C1492 C1484 1.574 1_556 S
C1492 H1487 0.949 . S
C1492 C1498 1.368 . S
C1493 C1477 1.349 1_565 S
C1493 H1485 0.950 . S
C1493 C1491 1.327 . S
C1494 C1482 1.367 . S
C1494 H1488 0.950 . S
C1494 C1495 1.327 . S
C1495 H1489 0.950 . S
C1495 C1494 1.327 . S
C1495 C1499 1.463 . S
C1496 C1479 1.574 . S
C1496 H1490 0.949 . S
C1496 C1500 1.368 1_566 S
C1497 C1478 1.429 . S
C1497 C1491 1.429 1_545 S
C1497 C1498 1.523 . S
C1498 C1479 1.368 1_545 S
C1498 C1492 1.368 . S
C1498 C1497 1.523 . S
C1499 C1483 1.395 1_545 S
C1499 C1495 1.463 . S
C1499 C1500 1.524 . S
C1500 C1484 1.368 . S
C1500 C1496 1.368 1_544 S
C1500 C1499 1.524 . S
H1501 C1476 0.950 . S
H1502 C1478 0.950 . S
H1503 C1479 0.949 . S
H1504 C1481 0.950 . S
H1505 C1483 0.950 . S
C1506 C1507 1.349 . S
C1506 C1508 1.327 . S
C1506 H1531 0.950 . S
C1507 C1506 1.349 . S
C1507 C1523 1.349 . S
C1508 C1506 1.327 . S
C1508 C1527 1.429 . S
C1508 H1532 0.950 . S
C1509 C1526 1.605 . S
C1509 C1528 1.341 1_556 S
C1509 H1533 0.948 1_556 S
H1510 C1514 0.949 . S
C1511 C1512 1.349 . S
C1511 C1513 1.327 . S
C1511 H1534 0.950 . S
C1512 C1511 1.349 . S
C1512 C1524 1.349 . S
C1513 C1511 1.327 . S
C1513 C1529 1.429 . S
C1513 H1535 0.950 . S
C1514 H1510 0.949 . S
C1514 C1522 1.574 1_556 S
C1514 C1530 1.368 . S
H1515 C1523 0.950 . S
H1516 C1521 0.950 . S
H1517 C1522 0.949 . S
H1518 C1524 0.950 . S
H1519 C1525 0.950 . S
H1520 C1526 0.949 . S
C1521 H1516 0.950 . S
C1521 C1523 1.327 . S
C1521 C1527 1.429 . S
C1522 C1514 1.574 1_554 S
C1522 H1517 0.949 . S
C1522 C1528 1.368 . S
C1523 C1507 1.349 . S
C1523 H1515 0.950 . S
C1523 C1521 1.327 . S
C1524 C1512 1.349 . S
C1524 H1518 0.950 . S
C1524 C1525 1.327 . S
C1525 H1519 0.950 . S
C1525 C1524 1.327 . S
C1525 C1529 1.429 . S
C1526 C1509 1.605 . S
C1526 H1520 0.949 . S
C1526 C1530 1.368 . S
C1527 C1508 1.429 . S
C1527 C1521 1.429 . S
C1527 C1528 1.523 . S
C1528 C1509 1.341 1_554 S
C1528 C1522 1.368 . S
C1528 C1527 1.523 . S
C1529 C1513 1.429 . S
C1529 C1525 1.429 . S
C1529 C1530 1.523 . S
C1530 C1514 1.368 . S
C1530 C1526 1.368 . S
C1530 C1529 1.523 . S
H1531 C1506 0.950 . S
H1532 C1508 0.950 . S
H1533 C1509 0.948 1_554 S
H1534 C1511 0.950 . S
H1535 C1513 0.950 . S
C1536 C1537 1.349 1_545 S
C1536 C1538 1.327 . S
C1536 H1561 0.950 . S
C1537 C1536 1.349 1_565 S
C1537 C1553 1.349 . S
C1538 C1536 1.327 . S
C1538 C1557 1.429 1_545 S
C1538 H1562 0.950 . S
C1539 C1556 1.574 . S
C1539 C1558 1.368 . S
C1539 H1563 0.949 . S
H1540 C1544 0.949 . S
C1541 C1542 1.349 . S
C1541 C1543 1.327 . S
C1541 H1564 0.950 . S
C1542 C1541 1.349 . S
C1542 C1554 1.349 1_565 S
C1543 C1541 1.327 . S
C1543 C1559 1.429 . S
C1543 H1565 0.950 . S
C1544 H1540 0.949 . S
C1544 C1552 1.574 . S
C1544 C1560 1.368 1_545 S
H1545 C1553 0.950 . S
H1546 C1551 0.950 . S
H1547 C1552 0.949 . S
H1548 C1554 0.950 . S
H1549 C1555 0.950 . S
H1550 C1556 0.949 . S
C1551 H1546 0.950 . S
C1551 C1553 1.327 . S
C1551 C1557 1.429 . S
C1552 C1544 1.574 . S
C1552 H1547 0.949 . S
C1552 C1558 1.368 1_545 S
C1553 C1537 1.349 . S
C1553 H1545 0.950 . S
C1553 C1551 1.327 . S
C1554 C1542 1.349 1_545 S
C1554 H1548 0.950 . S
C1554 C1555 1.327 . S
C1555 H1549 0.950 . S
C1555 C1554 1.327 . S
C1555 C1559 1.429 1_545 S
C1556 C1539 1.574 . S
C1556 H1550 0.949 . S
C1556 C1560 1.368 . S
C1557 C1538 1.429 1_565 S
C1557 C1551 1.429 . S
C1557 C1558 1.523 . S
C1558 C1539 1.368 . S
C1558 C1552 1.368 1_565 S
C1558 C1557 1.523 . S
C1559 C1543 1.429 . S
C1559 C1555 1.429 1_565 S
C1559 C1560 1.523 . S
C1560 C1544 1.368 1_565 S
C1560 C1556 1.368 . S
C1560 C1559 1.523 . S
H1561 C1536 0.950 . S
H1562 C1538 0.950 . S
H1563 C1539 0.949 . S
H1564 C1541 0.950 . S
H1565 C1543 0.950 . S
C1566 C1567 1.349 . S
C1566 C1568 1.327 . S
C1566 H1591 0.950 . S
C1567 C1566 1.349 . S
C1567 C1583 1.349 . S
C1568 C1566 1.327 . S
C1568 C1587 1.429 . S
C1568 H1592 0.950 . S
C1569 C1586 1.574 . S
C1569 C1588 1.368 . S
C1569 H1593 0.949 . S
H1570 C1574 0.949 . S
C1571 C1572 1.349 . S
C1571 C1573 1.327 . S
C1571 H1594 0.950 . S
C1572 C1571 1.349 . S
C1572 C1584 1.349 . S
C1573 C1571 1.327 . S
C1573 C1589 1.429 . S
C1573 H1595 0.950 . S
C1574 H1570 0.949 . S
C1574 C1582 1.574 . S
C1574 C1590 1.368 . S
H1575 C1583 0.950 . S
H1576 C1581 0.950 . S
H1577 C1582 0.949 . S
H1578 C1584 0.950 . S
H1579 C1585 0.950 . S
H1580 C1586 0.949 . S
C1581 H1576 0.950 . S
C1581 C1583 1.327 . S
C1581 C1587 1.429 . S
C1582 C1574 1.574 . S
C1582 H1577 0.949 . S
C1582 C1588 1.368 . S
C1583 C1567 1.349 . S
C1583 H1575 0.950 . S
C1583 C1581 1.327 . S
C1584 C1572 1.349 . S
C1584 H1578 0.950 . S
C1584 C1585 1.327 . S
C1585 H1579 0.950 . S
C1585 C1584 1.327 . S
C1585 C1589 1.429 . S
C1586 C1569 1.574 . S
C1586 H1580 0.949 . S
C1586 C1590 1.368 . S
C1587 C1568 1.429 . S
C1587 C1581 1.429 . S
C1587 C1588 1.523 . S
C1588 C1569 1.368 . S
C1588 C1582 1.368 . S
C1588 C1587 1.523 . S
C1589 C1573 1.429 . S
C1589 C1585 1.429 . S
C1589 C1590 1.523 . S
C1590 C1574 1.368 . S
C1590 C1586 1.368 . S
C1590 C1589 1.523 . S
H1591 C1566 0.950 . S
H1592 C1568 0.950 . S
H1593 C1569 0.949 . S
H1594 C1571 0.950 . S
H1595 C1573 0.950 . S
C1596 C1597 1.331 1_556 S
C1596 C1598 1.327 . S
C1596 H1621 0.950 . S
C1597 C1596 1.331 1_554 S
C1597 C1613 1.367 . S
C1598 C1596 1.327 . S
C1598 C1617 1.394 1_556 S
C1598 H1622 0.950 . S
C1599 C1616 1.574 . S
C1599 C1618 1.368 1_655 S
C1599 H1623 0.952 . S
H1600 C1604 0.949 . S
C1601 C1602 1.349 . S
C1601 C1603 1.327 . S
C1601 H1624 0.950 . S
C1602 C1601 1.349 . S
C1602 C1614 1.349 1_554 S
C1603 C1601 1.327 . S
C1603 C1619 1.429 . S
C1603 H1625 0.950 . S
C1604 H1600 0.949 . S
C1604 C1612 1.574 1_655 S
C1604 C1620 1.368 1_556 S
H1605 C1613 0.950 . S
H1606 C1611 0.950 . S
H1607 C1612 0.949 . S
H1608 C1614 0.950 . S
H1609 C1615 0.950 . S
H1610 C1616 0.949 . S
C1611 H1606 0.950 . S
C1611 C1613 1.327 . S
C1611 C1617 1.463 . S
C1612 C1604 1.574 1_455 S
C1612 H1607 0.949 . S
C1612 C1618 1.368 1_556 S
C1613 C1597 1.367 . S
C1613 H1605 0.950 . S
C1613 C1611 1.327 . S
C1614 C1602 1.349 1_556 S
C1614 H1608 0.950 . S
C1614 C1615 1.327 . S
C1615 H1609 0.950 . S
C1615 C1614 1.327 . S
C1615 C1619 1.429 1_556 S
C1616 C1599 1.574 . S
C1616 H1610 0.949 . S
C1616 C1620 1.368 . S
C1617 C1598 1.394 1_554 S
C1617 C1611 1.463 . S
C1617 C1618 1.524 . S
C1618 C1599 1.368 1_455 S
C1618 C1612 1.368 1_554 S
C1618 C1617 1.524 . S
C1619 C1603 1.429 . S
C1619 C1615 1.429 1_554 S
C1619 C1620 1.523 . S
C1620 C1604 1.368 1_554 S
C1620 C1616 1.368 . S
C1620 C1619 1.523 . S
H1621 C1596 0.950 . S
H1622 C1598 0.950 . S
H1623 C1599 0.952 . S
H1624 C1601 0.950 . S
H1625 C1603 0.950 . S
C1626 C1627 1.349 . S
C1626 C1628 1.327 . S
C1626 H1651 0.950 . S
C1627 C1626 1.349 . S
C1627 C1643 1.349 . S
C1628 C1626 1.327 . S
C1628 C1647 1.429 . S
C1628 H1652 0.950 . S
C1629 C1646 1.574 . S
C1629 C1648 1.368 1_655 S
C1629 H1653 0.949 . S
H1630 C1634 0.949 . S
C1631 C1632 1.349 . S
C1631 C1633 1.327 . S
C1631 H1654 0.950 . S
C1632 C1631 1.349 . S
C1632 C1644 1.349 . S
C1633 C1631 1.327 . S
C1633 C1649 1.429 . S
C1633 H1655 0.950 . S
C1634 H1630 0.949 . S
C1634 C1642 1.574 1_655 S
C1634 C1650 1.368 . S
H1635 C1643 0.950 . S
H1636 C1641 0.950 . S
H1637 C1642 0.949 . S
H1638 C1644 0.950 . S
H1639 C1645 0.950 . S
H1640 C1646 0.949 . S
C1641 H1636 0.950 . S
C1641 C1643 1.327 . S
C1641 C1647 1.429 . S
C1642 C1634 1.574 1_455 S
C1642 H1637 0.949 . S
C1642 C1648 1.368 . S
C1643 C1627 1.349 . S
C1643 H1635 0.950 . S
C1643 C1641 1.327 . S
C1644 C1632 1.349 . S
C1644 H1638 0.950 . S
C1644 C1645 1.327 . S
C1645 H1639 0.950 . S
C1645 C1644 1.327 . S
C1645 C1649 1.429 . S
C1646 C1629 1.574 . S
C1646 H1640 0.949 . S
C1646 C1650 1.368 . S
C1647 C1628 1.429 . S
C1647 C1641 1.429 . S
C1647 C1648 1.523 . S
C1648 C1629 1.368 1_455 S
C1648 C1642 1.368 . S
C1648 C1647 1.523 . S
C1649 C1633 1.429 . S
C1649 C1645 1.429 . S
C1649 C1650 1.523 . S
C1650 C1634 1.368 . S
C1650 C1646 1.368 . S
C1650 C1649 1.523 . S
H1651 C1626 0.950 . S
H1652 C1628 0.950 . S
H1653 C1629 0.949 . S
H1654 C1631 0.950 . S
H1655 C1633 0.950 . S
C1656 C1657 1.349 . S
C1656 C1658 1.327 . S
C1656 H1681 0.950 . S
C1657 C1656 1.349 . S
C1657 C1673 1.349 . S
C1658 C1656 1.327 . S
C1658 C1677 1.429 . S
C1658 H1682 0.950 . S
C1659 C1676 1.574 . S
C1659 C1678 1.368 . S
C1659 H1683 0.949 . S
H1660 C1664 0.949 . S
C1661 C1662 1.349 . S
C1661 C1663 1.327 . S
C1661 H1684 0.950 . S
C1662 C1661 1.349 . S
C1662 C1674 1.349 . S
C1663 C1661 1.327 . S
C1663 C1679 1.429 . S
C1663 H1685 0.950 . S
C1664 H1660 0.949 . S
C1664 C1672 1.574 . S
C1664 C1680 1.368 . S
H1665 C1673 0.950 . S
H1666 C1671 0.950 . S
H1667 C1672 0.949 . S
H1668 C1674 0.950 . S
H1669 C1675 0.950 . S
H1670 C1676 0.949 . S
C1671 H1666 0.950 . S
C1671 C1673 1.327 . S
C1671 C1677 1.429 . S
C1672 C1664 1.574 . S
C1672 H1667 0.949 . S
C1672 C1678 1.368 . S
C1673 C1657 1.349 . S
C1673 H1665 0.950 . S
C1673 C1671 1.327 . S
C1674 C1662 1.349 . S
C1674 H1668 0.950 . S
C1674 C1675 1.327 . S
C1675 H1669 0.950 . S
C1675 C1674 1.327 . S
C1675 C1679 1.429 . S
C1676 C1659 1.574 . S
C1676 H1670 0.949 . S
C1676 C1680 1.368 . S
C1677 C1658 1.429 . S
C1677 C1671 1.429 . S
C1677 C1678 1.523 . S
C1678 C1659 1.368 . S
C1678 C1672 1.368 . S
C1678 C1677 1.523 . S
C1679 C1663 1.429 . S
C1679 C1675 1.429 . S
C1679 C1680 1.523 . S
C1680 C1664 1.368 . S
C1680 C1676 1.368 . S
C1680 C1679 1.523 . S
H1681 C1656 0.950 . S
H1682 C1658 0.950 . S
H1683 C1659 0.949 . S
H1684 C1661 0.950 . S
H1685 C1663 0.950 . S
C1686 C1687 1.349 . S
C1686 C1688 1.327 . S
C1686 H1711 0.950 . S
C1687 C1686 1.349 . S
C1687 C1703 1.349 . S
C1688 C1686 1.327 . S
C1688 C1707 1.429 . S
C1688 H1712 0.950 . S
C1689 C1706 1.574 . S
C1689 C1708 1.368 . S
C1689 H1713 0.949 . S
H1690 C1694 0.949 . S
C1691 C1692 1.349 . S
C1691 C1693 1.327 . S
C1691 H1714 0.950 . S
C1692 C1691 1.349 . S
C1692 C1704 1.349 . S
C1693 C1691 1.327 . S
C1693 C1709 1.429 . S
C1693 H1715 0.950 . S
C1694 H1690 0.949 . S
C1694 C1702 1.574 . S
C1694 C1710 1.368 . S
H1695 C1703 0.950 . S
H1696 C1701 0.950 . S
H1697 C1702 0.949 . S
H1698 C1704 0.950 . S
H1699 C1705 0.950 . S
H1700 C1706 0.949 . S
C1701 H1696 0.950 . S
C1701 C1703 1.327 . S
C1701 C1707 1.429 . S
C1702 C1694 1.574 . S
C1702 H1697 0.949 . S
C1702 C1708 1.368 . S
C1703 C1687 1.349 . S
C1703 H1695 0.950 . S
C1703 C1701 1.327 . S
C1704 C1692 1.349 . S
C1704 H1698 0.950 . S
C1704 C1705 1.327 . S
C1705 H1699 0.950 . S
C1705 C1704 1.327 . S
C1705 C1709 1.429 . S
C1706 C1689 1.574 . S
C1706 H1700 0.949 . S
C1706 C1710 1.368 . S
C1707 C1688 1.429 . S
C1707 C1701 1.429 . S
C1707 C1708 1.523 . S
C1708 C1689 1.368 . S
C1708 C1702 1.368 . S
C1708 C1707 1.523 . S
C1709 C1693 1.429 . S
C1709 C1705 1.429 . S
C1709 C1710 1.523 . S
C1710 C1694 1.368 . S
C1710 C1706 1.368 . S
C1710 C1709 1.523 . S
H1711 C1686 0.950 . S
H1712 C1688 0.950 . S
H1713 C1689 0.949 . S
H1714 C1691 0.950 . S
H1715 C1693 0.950 . S
C1716 C1717 1.349 . S
C1716 C1718 1.327 . S
C1716 H1741 0.950 . S
C1717 C1716 1.349 . S
C1717 C1733 1.349 . S
C1718 C1716 1.327 . S
C1718 C1737 1.429 . S
C1718 H1742 0.950 . S
C1719 C1736 1.574 . S
C1719 C1738 1.368 . S
C1719 H1743 0.949 . S
H1720 C1724 0.949 . S
C1721 C1722 1.349 . S
C1721 C1723 1.327 . S
C1721 H1744 0.950 . S
C1722 C1721 1.349 . S
C1722 C1734 1.349 . S
C1723 C1721 1.327 . S
C1723 C1739 1.429 . S
C1723 H1745 0.950 . S
C1724 H1720 0.949 . S
C1724 C1732 1.574 . S
C1724 C1740 1.368 . S
H1725 C1733 0.950 . S
H1726 C1731 0.950 . S
H1727 C1732 0.949 . S
H1728 C1734 0.950 . S
H1729 C1735 0.950 . S
H1730 C1736 0.949 . S
C1731 H1726 0.950 . S
C1731 C1733 1.327 . S
C1731 C1737 1.429 . S
C1732 C1724 1.574 . S
C1732 H1727 0.949 . S
C1732 C1738 1.368 1_545 S
C1733 C1717 1.349 . S
C1733 H1725 0.950 . S
C1733 C1731 1.327 . S
C1734 C1722 1.349 . S
C1734 H1728 0.950 . S
C1734 C1735 1.327 . S
C1735 H1729 0.950 . S
C1735 C1734 1.327 . S
C1735 C1739 1.429 . S
C1736 C1719 1.574 . S
C1736 H1730 0.949 . S
C1736 C1740 1.368 1_565 S
C1737 C1718 1.429 . S
C1737 C1731 1.429 . S
C1737 C1738 1.523 . S
C1738 C1719 1.368 . S
C1738 C1732 1.368 1_565 S
C1738 C1737 1.523 . S
C1739 C1723 1.429 . S
C1739 C1735 1.429 . S
C1739 C1740 1.523 . S
C1740 C1724 1.368 . S
C1740 C1736 1.368 1_545 S
C1740 C1739 1.523 . S
H1741 C1716 0.950 . S
H1742 C1718 0.950 . S
H1743 C1719 0.949 . S
H1744 C1721 0.950 . S
H1745 C1723 0.950 . S
C1746 C1747 1.349 1_554 S
C1746 C1748 1.327 . S
C1746 H1771 0.950 . S
C1747 C1746 1.349 1_556 S
C1747 C1763 1.349 . S
C1748 C1746 1.327 . S
C1748 C1767 1.429 1_554 S
C1748 H1772 0.950 . S
C1749 C1766 1.574 . S
C1749 C1768 1.368 . S
C1749 H1773 0.949 . S
H1750 C1754 0.949 . S
C1751 C1752 1.349 . S
C1751 C1753 1.327 . S
C1751 H1774 0.950 . S
C1752 C1751 1.349 . S
C1752 C1764 1.349 1_556 S
C1753 C1751 1.327 . S
C1753 C1769 1.429 . S
C1753 H1775 0.950 . S
C1754 H1750 0.949 . S
C1754 C1762 1.574 . S
C1754 C1770 1.368 1_554 S
H1755 C1763 0.950 . S
H1756 C1761 0.950 . S
H1757 C1762 0.949 . S
H1758 C1764 0.950 . S
H1759 C1765 0.950 . S
H1760 C1766 0.949 . S
C1761 H1756 0.950 . S
C1761 C1763 1.327 . S
C1761 C1767 1.429 . S
C1762 C1754 1.574 . S
C1762 H1757 0.949 . S
C1762 C1768 1.368 1_554 S
C1763 C1747 1.349 . S
C1763 H1755 0.950 . S
C1763 C1761 1.327 . S
C1764 C1752 1.349 1_554 S
C1764 H1758 0.950 . S
C1764 C1765 1.327 . S
C1765 H1759 0.950 . S
C1765 C1764 1.327 . S
C1765 C1769 1.429 1_554 S
C1766 C1749 1.574 . S
C1766 H1760 0.949 . S
C1766 C1770 1.368 . S
C1767 C1748 1.429 1_556 S
C1767 C1761 1.429 . S
C1767 C1768 1.523 . S
C1768 C1749 1.368 . S
C1768 C1762 1.368 1_556 S
C1768 C1767 1.523 . S
C1769 C1753 1.429 . S
C1769 C1765 1.429 1_556 S
C1769 C1770 1.523 . S
C1770 C1754 1.368 1_556 S
C1770 C1766 1.368 . S
C1770 C1769 1.523 . S
H1771 C1746 0.950 . S
H1772 C1748 0.950 . S
H1773 C1749 0.949 . S
H1774 C1751 0.950 . S
H1775 C1753 0.950 . S
C337 C247 0.461 . S
C342 C3 0.328 . S
C367 C17 0.360 . S
C372 C233 0.584 . S
C397 C31 0.501 . S
C402 C275 0.560 . S
C427 C45 0.535 . S
C432 C261 0.627 . S
C457 C59 0.335 . S
C462 C303 0.467 . S
C487 C73 0.472 . S
C492 C317 0.548 . S
C517 C289 0.585 . S
C522 C87 0.354 . S
C547 C163 0.611 . S
C552 C101 0.496 . S
C577 C115 0.335 . S
C582 C51 0.467 . S
C607 C23 0.542 . S
C612 C129 0.473 . S
C637 C143 0.687 . S
C642 C9 0.704 . S
C667 C157 0.496 . S
C672 C205 0.611 . S
C697 C79 0.724 . S
C702 C171 0.710 . S
C727 C65 0.699 . S
C732 C185 0.688 . S
C757 C199 0.496 . S
C762 C107 0.611 . S
C787 C213 0.472 . S
C792 C93 0.548 . S
C817 C135 0.724 . S
C822 C227 0.710 . S
C847 C149 0.629 . S
C852 C241 0.530 . S
C877 C121 0.699 . S
C882 C255 0.688 . S
C907 C269 0.501 . S
C912 C331 0.560 . S
C937 C219 0.724 . S
C942 C283 0.710 . S
C967 C297 0.535 . S
C972 C191 0.627 . S
C997 C177 0.585 . S
C1002 C311 0.354 . S
C1027 C325 0.501 . S
C1032 C37 0.560 . S
C1057 C8 1.816 . S
C1062 C22 1.805 . S
C1087 C50 1.685 . S
C1092 C36 1.696 . S
C1117 C64 1.816 . S
C1122 C92 1.805 . S
C1147 C78 2.028 . S
C1152 C106 2.012 . S
C1177 C316 1.805 . S
C1182 C120 1.816 . S
C1207 C134 2.028 . S
C1212 C162 2.012 . S
C1237 C288 1.912 . S
C1242 C148 1.927 . S
C1267 C190 1.927 . S
C1272 C176 1.912 . S
C1297 C204 2.012 . S
C1302 C218 2.028 . S
C1327 C260 1.927 . S
C1332 C232 1.912 . S
C1357 C246 1.685 . S
C1362 C274 1.696 . S
C1387 C330 1.696 . S
C1392 C302 1.685 . S
C1417 C35 1.008 . S
C1422 C7 1.011 . S
C1447 C21 1.274 . S
C1452 C49 1.272 . S
C1477 C273 1.008 . S
C1482 C63 1.011 . S
C1507 C77 1.209 . S
C1512 C259 1.208 . S
C1537 C91 1.274 . S
C1542 C245 1.272 . S
C1567 C231 1.481 . S
C1572 C105 1.483 . S
C1597 C119 1.011 . S
C1602 C329 1.008 . S
C1627 C133 1.209 . S
C1632 C147 1.208 . S
C1657 C287 1.481 . S
C1662 C161 1.483 . S
C1687 C175 1.481 . S
C1692 C203 1.483 . S
C1717 C189 1.208 . S
C1722 C217 1.209 . S
C1747 C315 1.274 . S
C1752 C301 1.272 . S
