# Generated by pormake.
# Topology wkh, (6)-cn, num edge types: 1
# Building blocks:
#     Node 0, Type 0, BuildingBlock: OJICUG_clean_sbu_0, # of connection points: 6
#     Node 1, Type 0, BuildingBlock: OJICUG_clean_sbu_0, # of connection points: 6
#     Node 2, Type 0, BuildingBlock: OJICUG_clean_sbu_0, # of connection points: 6
#     Node 3, Type 0, BuildingBlock: OJICUG_clean_sbu_0, # of connection points: 6
#     Node 4, Type 0, BuildingBlock: OJICUG_clean_sbu_0, # of connection points: 6
#     Node 5, Type 0, BuildingBlock: OJICUG_clean_sbu_0, # of connection points: 6
#     Node 6, Type 0, BuildingBlock: OJICUG_clean_sbu_0, # of connection points: 6
#     Node 7, Type 0, BuildingBlock: OJICUG_clean_sbu_0, # of connection points: 6
#     Node 8, Type 0, BuildingBlock: OJICUG_clean_sbu_0, # of connection points: 6
#     Node 9, Type 0, BuildingBlock: OJICUG_clean_sbu_0, # of connection points: 6
#     Node 10, Type 0, BuildingBlock: OJICUG_clean_sbu_0, # of connection points: 6
#     Node 11, Type 0, BuildingBlock: OJICUG_clean_sbu_0, # of connection points: 6
#     Edge 12, Type (0, 0), BuildingBlock: XIVTED_clean_linker_0, # of connection points: 2
#     Edge 13, Type (0, 0), BuildingBlock: XIVTED_clean_linker_0, # of connection points: 2
#     Edge 14, Type (0, 0), BuildingBlock: XIVTED_clean_linker_0, # of connection points: 2
#     Edge 15, Type (0, 0), BuildingBlock: XIVTED_clean_linker_0, # of connection points: 2
#     Edge 16, Type (0, 0), BuildingBlock: XIVTED_clean_linker_0, # of connection points: 2
#     Edge 17, Type (0, 0), BuildingBlock: XIVTED_clean_linker_0, # of connection points: 2
#     Edge 18, Type (0, 0), BuildingBlock: XIVTED_clean_linker_0, # of connection points: 2
#     Edge 19, Type (0, 0), BuildingBlock: XIVTED_clean_linker_0, # of connection points: 2
#     Edge 20, Type (0, 0), BuildingBlock: XIVTED_clean_linker_0, # of connection points: 2
#     Edge 21, Type (0, 0), BuildingBlock: XIVTED_clean_linker_0, # of connection points: 2
#     Edge 22, Type (0, 0), BuildingBlock: XIVTED_clean_linker_0, # of connection points: 2
#     Edge 23, Type (0, 0), BuildingBlock: XIVTED_clean_linker_0, # of connection points: 2
#     Edge 24, Type (0, 0), BuildingBlock: XIVTED_clean_linker_0, # of connection points: 2
#     Edge 25, Type (0, 0), BuildingBlock: XIVTED_clean_linker_0, # of connection points: 2
#     Edge 26, Type (0, 0), BuildingBlock: XIVTED_clean_linker_0, # of connection points: 2
#     Edge 27, Type (0, 0), BuildingBlock: XIVTED_clean_linker_0, # of connection points: 2
#     Edge 28, Type (0, 0), BuildingBlock: XIVTED_clean_linker_0, # of connection points: 2
#     Edge 29, Type (0, 0), BuildingBlock: XIVTED_clean_linker_0, # of connection points: 2
#     Edge 30, Type (0, 0), BuildingBlock: XIVTED_clean_linker_0, # of connection points: 2
#     Edge 31, Type (0, 0), BuildingBlock: XIVTED_clean_linker_0, # of connection points: 2
#     Edge 32, Type (0, 0), BuildingBlock: XIVTED_clean_linker_0, # of connection points: 2
#     Edge 33, Type (0, 0), BuildingBlock: XIVTED_clean_linker_0, # of connection points: 2
#     Edge 34, Type (0, 0), BuildingBlock: XIVTED_clean_linker_0, # of connection points: 2
#     Edge 35, Type (0, 0), BuildingBlock: XIVTED_clean_linker_0, # of connection points: 2
#     Edge 36, Type (0, 0), BuildingBlock: XIVTED_clean_linker_0, # of connection points: 2
#     Edge 37, Type (0, 0), BuildingBlock: XIVTED_clean_linker_0, # of connection points: 2
#     Edge 38, Type (0, 0), BuildingBlock: XIVTED_clean_linker_0, # of connection points: 2
#     Edge 39, Type (0, 0), BuildingBlock: XIVTED_clean_linker_0, # of connection points: 2
#     Edge 40, Type (0, 0), BuildingBlock: XIVTED_clean_linker_0, # of connection points: 2
#     Edge 41, Type (0, 0), BuildingBlock: XIVTED_clean_linker_0, # of connection points: 2
#     Edge 42, Type (0, 0), BuildingBlock: XIVTED_clean_linker_0, # of connection points: 2
#     Edge 43, Type (0, 0), BuildingBlock: XIVTED_clean_linker_0, # of connection points: 2
#     Edge 44, Type (0, 0), BuildingBlock: XIVTED_clean_linker_0, # of connection points: 2
#     Edge 45, Type (0, 0), BuildingBlock: XIVTED_clean_linker_0, # of connection points: 2
#     Edge 46, Type (0, 0), BuildingBlock: XIVTED_clean_linker_0, # of connection points: 2
#     Edge 47, Type (0, 0), BuildingBlock: XIVTED_clean_linker_0, # of connection points: 2
# Relax obj value: 0.288
# Max RMSD: 0.268
# Mean RMSD: 0.268
data_MOF--net-wkh--node1-OJICUG_clean_sbu_0--edge1-XIVTED_clean_linker_0
_symmetry_space_group_name_H-M    P1
_symmetry_Int_Tables_number       1
_symmetry_cell_setting            triclinic
loop_
_symmetry_equiv_pos_as_xyz
'x, y, z'
_cell_length_a     27.020127
_cell_length_b     26.971472
_cell_length_c     84.391508
_cell_angle_alpha  90.048624
_cell_angle_beta   89.940761
_cell_angle_gamma 119.8239
loop_
_atom_site_label
_atom_site_type_symbol
_atom_site_fract_x
_atom_site_fract_y
_atom_site_fract_z
_atom_type_partial_charge
Sc0 Sc 0.28588 0.26554 1.0093 0.0
Sc1 Sc 0.20583 0.33217 1.00362 0.0
Sc2 Sc 0.30397 0.37432 0.03461 0.0
O3 O 0.2648 0.32366 0.01582 0.0
C4 C 0.28921 0.2549 0.04568 0.0
C5 C 0.15186 0.2019 1.00187 0.0
C6 C 0.17681 0.33761 0.04068 0.0
C7 C 0.27694 0.31101 0.976 0.0
C8 C 0.40628 0.37279 0.01907 0.0
C9 C 0.27879 0.45624 0.01278 0.0
O10 O 0.26794 0.22901 0.0327 0.0
O11 O 0.14473 0.24388 1.00479 0.0
O12 O 0.22342 0.3432 0.04588 0.0
O13 O 0.30515 0.29885 0.98574 0.0
O14 O 0.38703 0.40474 0.02403 0.0
O15 O 0.26425 0.4215 1.00134 0.0
O16 O 0.37411 0.32054 0.01535 0.0
O17 O 0.23632 0.31959 0.98038 0.0
O18 O 0.29424 0.4453 0.02595 0.0
O19 O 0.2003 0.20476 1.002 0.0
O20 O 0.3131 0.30902 0.04697 0.0
O21 O 0.16731 0.34104 0.02592 0.0
Sc22 Sc 0.91214 0.2815 0.19913 0.0
Sc23 Sc 0.9089 0.17279 0.174 0.0
Sc24 Sc 0.04005 0.31517 0.18089 0.0
O25 O 0.95291 0.25551 0.1841 0.0
C26 C -0.00391 0.39751 0.18021 0.0
C27 C 0.82155 0.2234 0.17245 0.0
C28 C -0.00058 0.25197 0.14715 0.0
C29 C 0.84757 0.14545 0.20725 0.0
C30 C 0.02643 0.32639 0.21729 0.0
C31 C 0.01454 0.21708 0.19304 0.0
O32 O 0.963 0.37171 0.19189 0.0
O33 O 0.83918 0.18842 0.16951 0.0
O34 O 0.03698 0.28584 0.15695 0.0
O35 O 0.85813 0.19682 0.20882 0.0
O36 O 0.05295 0.3511 0.20465 0.0
O37 O 0.97553 0.22812 0.18879 0.0
O38 O 0.9727 0.29362 0.21739 0.0
O39 O 0.8667 0.12921 0.19575 0.0
O40 O 0.06434 0.257 0.19069 0.0
O41 O 0.84748 0.26593 0.1818 0.0
O42 O 0.0168 0.37369 0.17169 0.0
O43 O 0.94982 0.21215 0.15135 0.0
Sc44 Sc 0.7219 0.01742 0.34158 0.0
Sc45 Sc 0.66775 0.87062 0.3399 0.0
Sc46 Sc 0.60797 0.92756 0.36618 0.0
O47 O 0.6654 0.93835 0.34918 0.0
C48 C 0.72382 0.03674 0.37826 0.0
C49 C 0.7964 0.95539 0.34126 0.0
C50 C 0.64574 0.83932 0.37711 0.0
C51 C 0.68986 0.95207 0.30942 0.0
C52 C 0.61056 0.02875 0.34732 0.0
C53 C 0.53604 0.81984 0.34324 0.0
O54 O 0.75095 0.0447 0.36531 0.0
O55 O 0.75567 0.9062 0.34435 0.0
O56 O 0.63093 0.8762 0.38012 0.0
O57 O 0.69571 0.99421 0.3176 0.0
O58 O 0.58088 0.98036 0.35398 0.0
O59 O 0.57887 0.82867 0.33496 0.0
O60 O 0.66243 0.04833 0.34344 0.0
O61 O 0.68448 0.9064 0.31569 0.0
O62 O 0.53981 0.85006 0.35533 0.0
O63 O 0.78998 -0.00188 0.33839 0.0
O64 O 0.67075 0.00063 0.37967 0.0
O65 O 0.65569 0.82879 0.36306 0.0
Sc66 Sc 0.70449 0.62036 0.53491 0.0
Sc67 Sc 0.81129 0.72597 0.50967 0.0
Sc68 Sc 0.67053 0.71663 0.51818 0.0
O69 O 0.72985 0.68801 0.52037 0.0
C70 C 0.5887 0.59109 0.51612 0.0
C71 C 0.76183 0.58851 0.50767 0.0
C72 C 0.73198 0.74215 0.48418 0.0
C73 C 0.84063 0.69143 0.54254 0.0
C74 C 0.65952 0.6881 0.55397 0.0
C75 C 0.76934 0.78756 0.5301 0.0
O76 O 0.61434 0.58221 0.5276 0.0
O77 O 0.7963 0.64105 0.50472 0.0
O78 O 0.70125 0.74815 0.49465 0.0
O79 O 0.78948 0.65076 0.54432 0.0
O80 O 0.63328 0.68866 0.54154 0.0
O81 O 0.75793 0.7381 0.52512 0.0
O82 O 0.69308 0.66792 0.55371 0.0
O83 O 0.85621 0.72655 0.53101 0.0
O84 O 0.72851 0.79699 0.52908 0.0
O85 O 0.71977 0.5719 0.51718 0.0
O86 O 0.61258 0.63663 0.50803 0.0
O87 O 0.76967 0.72815 0.48753 0.0
Sc88 Sc 0.97128 0.7037 0.6788 0.0
Sc89 Sc 0.11776 0.80053 0.67482 0.0
Sc90 Sc 0.06877 0.68543 0.70216 0.0
O91 O 0.05279 0.72949 0.68518 0.0
C92 C 0.95597 0.68134 0.71595 0.0
C93 C 0.02741 0.83906 0.68083 0.0
C94 C 0.15738 0.81505 0.71142 0.0
C95 C 0.0341 0.74244 0.64531 0.0
C96 C 0.96754 0.58433 0.68226 0.0
C97 C 0.17215 0.72046 0.67769 0.0
O98 O 0.94058 0.69013 0.70258 0.0
O99 O 0.07786 0.85042 0.67798 0.0
O100 O 0.1264 0.76232 0.71477 0.0
O101 O 0.99106 0.71375 0.6541 0.0
O102 O 0.01057 0.60298 0.6915 0.0
O103 O 0.16549 0.75865 0.67091 0.0
O104 O 0.94962 0.61603 0.6765 0.0
O105 O 0.08352 0.7766 0.65081 0.0
O106 O 0.14117 0.69038 0.68923 0.0
O107 O 0.98495 0.78869 0.68125 0.0
O108 O 0.00118 0.67827 0.71778 0.0
O109 O 0.15947 0.83489 0.69756 0.0
Sc110 Sc 0.3692 0.0626 0.87171 0.0
Sc111 Sc 0.33367 0.12021 0.83964 0.0
Sc112 Sc 0.26011 0.97408 0.84628 0.0
O113 O 0.31991 0.0523 0.85266 0.0
C114 C 0.36474 0.95628 0.85624 0.0
C115 C 0.45428 0.16549 0.84941 0.0
C116 C 0.30741 0.02505 0.81272 0.0
C117 C 0.34072 0.15971 0.8764 0.0
C118 C 0.24798 0.95861 0.88251 0.0
C119 C 0.20314 0.0512 0.83827 0.0
O120 O 0.39712 0.00684 0.86153 0.0
O121 O 0.42079 0.142 0.83792 0.0
O122 O 0.29293 0.98518 0.82276 0.0
O123 O 0.34105 0.11641 0.88229 0.0
O124 O 0.22294 0.95627 0.86956 0.0
O125 O 0.24701 0.09948 0.84043 0.0
O126 O 0.30187 0.98939 0.88411 0.0
O127 O 0.34603 0.17089 0.86149 0.0
O128 O 0.20274 0.00381 0.83903 0.0
O129 O 0.44223 0.14162 0.86296 0.0
O130 O 0.31286 0.93765 0.85236 0.0
O131 O 0.31881 0.07547 0.81669 0.0
Sc132 Sc 0.7308 0.70412 0.84578 0.0
Sc133 Sc 0.68312 0.80246 0.85126 0.0
Sc134 Sc 0.61602 0.69076 0.82291 0.0
O135 O 0.67606 0.73208 0.84005 0.0
C136 C 0.7232 0.68505 0.8085 0.0
C137 C 0.81156 0.83909 0.84536 0.0
C138 C 0.66029 0.82222 0.8148 0.0
C139 C 0.70534 0.73804 0.87991 0.0
C140 C 0.6143 0.58666 0.84174 0.0
C141 C 0.54874 0.72597 0.84776 0.0
O142 O 0.74741 0.69246 0.82181 0.0
O143 O 0.77304 0.85077 0.84884 0.0
O144 O 0.63678 0.76955 0.81113 0.0
O145 O 0.72106 0.7116 0.87061 0.0
O146 O 0.59038 0.60697 0.83287 0.0
O147 O 0.59369 0.76316 0.85462 0.0
O148 O 0.66404 0.61692 0.84745 0.0
O149 O 0.68996 0.7731 0.87501 0.0
O150 O 0.54917 0.69593 0.83612 0.0
O151 O 0.80283 0.78852 0.84391 0.0
O152 O 0.67544 0.68326 0.80688 0.0
O153 O 0.67883 0.84076 0.82874 0.0
Sc154 Sc 0.01696 0.7328 0.0119 0.0
Sc155 Sc 0.87389 0.68676 0.01876 0.0
Sc156 Sc 0.91357 0.61492 0.99106 0.0
O157 O 0.93447 0.67682 1.00749 0.0
C158 C 0.02171 0.716 0.97471 0.0
C159 C 0.96337 0.81185 1.0095 0.0
C160 C 0.82672 0.66037 0.98336 0.0
C161 C 0.96077 0.71745 0.04647 0.0
C162 C 0.02063 0.61942 1.00979 0.0
C163 C 0.81636 0.55069 0.01636 0.0
O164 O 0.04536 0.73587 0.98796 0.0
O165 O 0.9201 0.77816 0.01761 0.0
O166 O 0.84775 0.62805 0.98068 0.0
O167 O 0.00214 0.74038 0.03674 0.0
O168 O 0.98019 0.59815 0.9996 0.0
O169 O 0.81969 0.597 0.02099 0.0
O170 O 0.03465 0.66552 0.01732 0.0
O171 O 0.90908 0.68788 0.04201 0.0
O172 O 0.85065 0.54877 1.00632 0.0
O173 O 0.00207 0.80075 1.00548 0.0
O174 O 0.97094 0.67464 0.9736 0.0
O175 O 0.83511 0.68804 0.99628 0.0
Sc176 Sc 0.28782 0.02594 0.17841 0.0
Sc177 Sc 0.19297 0.88268 0.18544 0.0
Sc178 Sc 0.28738 0.92402 0.15364 0.0
O179 O 0.25596 0.94422 0.17258 0.0
C180 C 0.28734 0.03597 0.14194 0.0
C181 C 0.15486 0.97225 0.18639 0.0
C182 C 0.15682 0.84589 0.14911 0.0
C183 C 0.27399 0.97364 0.21207 0.0
C184 C 0.39903 0.02018 0.16761 0.0
C185 C 0.25286 0.81752 0.17678 0.0
O186 O 0.27069 0.04559 0.1551 0.0
O187 O 0.14086 0.92086 0.1836 0.0
O188 O 0.20447 0.88351 0.14348 0.0
O189 O 0.30618 0.01032 0.2019 0.0
O190 O 0.37262 0.9679 0.16325 0.0
O191 O 0.24261 0.84178 0.18812 0.0
O192 O 0.37317 0.04715 0.17145 0.0
O193 O 0.22855 0.92754 0.20814 0.0
O194 O 0.26813 0.8413 0.16324 0.0
O195 O 0.20623 0.01322 0.18638 0.0
O196 O 0.30509 0.00037 0.14061 0.0
O197 O 0.14883 0.83332 0.1639 0.0
Sc198 Sc 0.25202 0.28201 0.3459 0.0
Sc199 Sc 0.32306 0.20546 0.35003 0.0
Sc200 Sc 0.36422 0.30885 0.32051 0.0
O201 O 0.31233 0.26485 0.33872 0.0
C202 C 0.245 0.29706 0.30962 0.0
C203 C 0.19216 0.1457 0.34915 0.0
C204 C 0.33635 0.1851 0.31272 0.0
C205 C 0.29331 0.26436 0.37903 0.0
C206 C 0.35853 0.40641 0.33845 0.0
C207 C 0.4464 0.2849 0.3426 0.0
O208 O 0.21872 0.27242 0.32228 0.0
O209 O 0.23659 0.14207 0.3471 0.0
O210 O 0.3381 0.23076 0.308 0.0
O211 O 0.28052 0.29386 0.36998 0.0
O212 O 0.39071 0.38924 0.33235 0.0
O213 O 0.41016 0.26806 0.35367 0.0
O214 O 0.30678 0.37267 0.34235 0.0
O215 O 0.30478 0.22679 0.37373 0.0
O216 O 0.43598 0.30048 0.32936 0.0
O217 O 0.1919 0.19271 0.35024 0.0
O218 O 0.2988 0.31859 0.30816 0.0
O219 O 0.33875 0.17416 0.32741 0.0
Sc220 Sc 0.96141 0.25143 0.51134 0.0
Sc221 Sc 0.1044 0.29886 0.51819 0.0
Sc222 Sc 0.06341 0.35387 0.48666 0.0
O223 O 0.04304 0.30095 0.50533 0.0
C224 C 0.95025 0.24218 0.47481 0.0
C225 C 0.01577 0.17164 0.51853 0.0
C226 C 0.14683 0.3074 0.48183 0.0
C227 C 0.01352 0.28741 0.54507 0.0
C228 C 0.9656 0.36794 0.50094 0.0
C229 C 0.16822 0.42467 0.5104 0.0
O230 O 0.94044 0.21568 0.48793 0.0
O231 O 0.06701 0.20882 0.51564 0.0
O232 O 0.10836 0.31591 0.47599 0.0
O233 O 0.97728 0.28448 0.53498 0.0
O234 O 0.01752 0.39359 0.49637 0.0
O235 O 0.14412 0.389 0.52149 0.0
O236 O 0.93923 0.31539 0.50489 0.0
O237 O 0.05914 0.28729 0.54096 0.0
O238 O 0.14469 0.41751 0.49686 0.0
O239 O 0.97491 0.18242 0.51882 0.0
O240 O 0.98805 0.29472 0.47335 0.0
O241 O 0.15551 0.30771 0.49678 0.0
Sc242 Sc 0.68406 0.05668 0.65381 0.0
Sc243 Sc 0.78259 0.11673 0.68454 0.0
Sc244 Sc 0.70574 0.97012 0.67984 0.0
O245 O 0.72507 0.04782 0.67261 0.0
C246 C 0.58366 0.95414 0.67055 0.0
C247 C 0.70763 0.16387 0.67535 0.0
C248 C 0.71604 0.02678 0.71281 0.0
C249 C 0.8091 0.15008 0.64721 0.0
C250 C 0.69705 0.9488 0.64385 0.0
C251 C 0.8405 0.04452 0.68644 0.0
O252 O 0.60191 0.00441 0.665 0.0
O253 O 0.71974 0.14193 0.68683 0.0
O254 O 0.68727 0.98597 0.70328 0.0
O255 O 0.76398 0.1067 0.64212 0.0
O256 O 0.72184 0.94848 0.65662 0.0
O257 O 0.8462 0.09282 0.6832 0.0
O258 O 0.6744 0.9802 0.64211 0.0
O259 O 0.81801 0.16352 0.66197 0.0
O260 O 0.79272 -0.00179 0.6867 0.0
O261 O 0.69369 0.13837 0.66201 0.0
O262 O 0.61663 0.93494 0.67433 0.0
O263 O 0.75595 0.0756 0.7081 0.0
H264 H 0.75908 0.52465 0.0443 0.0
H265 H 0.46337 0.33818 0.99956 0.0
H266 H 0.74837 0.46298 0.99658 0.0
H267 H 0.48913 0.45279 0.03838 0.0
H268 H 0.56364 0.3637 1.00123 0.0
H269 H 0.65511 0.47181 0.04601 0.0
C270 C 0.73484 0.49773 0.03444 0.0
C271 C 0.76215 0.49898 0.02016 0.0
C272 C 0.54731 0.3832 1.00937 0.0
C273 C 0.64361 0.44019 0.02186 0.0
C274 C 0.49033 0.36909 1.00837 0.0
C275 C 0.46816 0.39393 0.01877 0.0
C276 C 0.58222 0.42178 0.02101 0.0
C277 C 0.50476 0.4334 0.02999 0.0
C278 C 0.67554 0.46854 0.03532 0.0
C279 C 0.72892 0.46336 1.00777 0.0
N280 N 0.56005 0.44595 0.03086 0.0
N281 N 0.67105 0.43644 1.00874 0.0
H282 H 0.21586 0.75066 0.20338 0.0
H283 H 0.04227 0.46193 0.15377 0.0
H284 H 0.22876 0.74087 0.15257 0.0
H285 H 0.01708 0.47542 0.20374 0.0
H286 H 0.111 0.56405 0.15306 0.0
H287 H 0.14864 0.64821 0.204 0.0
C288 C 0.20568 0.72681 0.19238 0.0
C289 C 0.22759 0.75476 0.17787 0.0
C290 C 0.08997 0.54492 0.16415 0.0
C291 C 0.14945 0.63756 0.17849 0.0
C292 C 0.05022 0.48677 0.16452 0.0
C293 C 0.02397 0.4602 0.17884 0.0
C294 C 0.10401 0.57673 0.17824 0.0
C295 C 0.03596 0.49427 0.19242 0.0
C296 C 0.16665 0.66838 0.19274 0.0
C297 C 0.21295 0.7214 0.16404 0.0
N298 N 0.07573 0.55073 0.19183 0.0
N299 N 0.17422 0.66469 0.16467 0.0
H300 H 0.5076 0.27293 0.31818 0.0
H301 H 0.52809 0.03205 0.36527 0.0
H302 H 0.48053 0.25029 0.36873 0.0
H303 H 0.64024 0.11428 0.32558 0.0
H304 H 0.49899 0.10464 0.36441 0.0
H305 H 0.55166 0.21243 0.31887 0.0
C306 C 0.51245 0.25686 0.32949 0.0
C307 C 0.4894 0.26607 0.34339 0.0
C308 C 0.52989 0.10664 0.35587 0.0
C309 C 0.53761 0.19531 0.34408 0.0
C310 C 0.54586 0.06479 0.35621 0.0
C311 C 0.58655 0.06713 0.34547 0.0
C312 C 0.55395 0.15051 0.34453 0.0
C313 C 0.60879 0.11107 0.3341 0.0
C314 C 0.53701 0.2218 0.32982 0.0
C315 C 0.49679 0.24371 0.35767 0.0
N316 N 0.59198 0.15096 0.33386 0.0
N317 N 0.51898 0.20832 0.35758 0.0
H318 H 0.24467 0.48283 0.48658 0.0
H319 H 0.51048 0.52674 0.53887 0.0
H320 H 0.23505 0.44952 0.53688 0.0
H321 H 0.52449 0.57994 0.49007 0.0
H322 H 0.40784 0.49189 0.53783 0.0
H323 H 0.34724 0.51925 0.48757 0.0
C324 C 0.2642 0.48456 0.49792 0.0
C325 C 0.23082 0.46243 0.51164 0.0
C326 C 0.43332 0.51068 0.5273 0.0
C327 C 0.34821 0.5025 0.51274 0.0
C328 C 0.49175 0.52966 0.52782 0.0
C329 C 0.52608 0.55641 0.51455 0.0
C330 C 0.40917 0.51834 0.51341 0.0
C331 C 0.4996 0.55982 0.5006 0.0
C332 C 0.32278 0.50464 0.49843 0.0
C333 C 0.25884 0.46561 0.52596 0.0
N334 N 0.44285 0.54147 0.50043 0.0
N335 N 0.31572 0.48443 0.52609 0.0
H336 H 0.73688 0.23108 0.70173 0.0
H337 H 0.89851 0.52981 0.65688 0.0
H338 H 0.73467 0.24027 0.65068 0.0
H339 H 0.95245 0.49731 0.70191 0.0
H340 H 0.82743 0.42788 0.65482 0.0
H341 H 0.80077 0.33416 0.70272 0.0
C342 C 0.74863 0.25489 0.69073 0.0
C343 C 0.73075 0.2266 0.67608 0.0
C344 C 0.85521 0.44311 0.66506 0.0
C345 C 0.80473 0.34488 0.67718 0.0
C346 C 0.89593 0.5011 0.66623 0.0
C347 C 0.93169 0.52204 0.67956 0.0
C348 C 0.84928 0.40611 0.6775 0.0
C349 C 0.92629 0.483 0.69135 0.0
C350 C 0.78572 0.31369 0.69131 0.0
C351 C 0.74727 0.26007 0.66224 0.0
N352 N 0.88537 0.42708 0.69013 0.0
N353 N 0.78384 0.31748 0.66311 0.0
H354 H 0.51779 0.74999 0.87616 0.0
H355 H 0.33084 0.86812 0.83543 0.0
H356 H 0.46642 0.71684 0.82715 0.0
H357 H 0.44465 0.94964 0.87481 0.0
H358 H 0.35943 0.79507 0.83494 0.0
H359 H 0.46434 0.80054 0.87905 0.0
C360 C 0.49322 0.75122 0.86618 0.0
C361 C 0.49739 0.73007 0.85131 0.0
C362 C 0.37799 0.82888 0.84369 0.0
C363 C 0.43742 0.78898 0.85447 0.0
C364 C 0.362 0.87071 0.84396 0.0
C365 C 0.38584 0.91529 0.85512 0.0
C366 C 0.41727 0.83094 0.85486 0.0
C367 C 0.42586 0.9165 0.86589 0.0
C368 C 0.46358 0.78094 0.86778 0.0
C369 C 0.46453 0.73265 0.83881 0.0
N370 N 0.44012 0.87471 0.86555 0.0
N371 N 0.43683 0.76288 0.84057 0.0
H372 H 0.53691 0.50158 0.82253 0.0
H373 H 0.50949 0.24189 0.8737 0.0
H374 H 0.63125 0.52952 0.86601 0.0
H375 H 0.48323 0.23311 0.82305 0.0
H376 H 0.54846 0.3455 0.87248 0.0
H377 H 0.50519 0.39951 0.82439 0.0
C378 C 0.55006 0.48612 0.83262 0.0
C379 C 0.58682 0.52413 0.84412 0.0
C380 C 0.53491 0.32081 0.86163 0.0
C381 C 0.5514 0.40763 0.84619 0.0
C382 C 0.51322 0.26171 0.86227 0.0
C383 C 0.49241 0.22836 0.84847 0.0
C384 C 0.53507 0.3465 0.84714 0.0
C385 C 0.49812 0.25675 0.83404 0.0
C386 C 0.53263 0.42802 0.83355 0.0
C387 C 0.60308 0.5017 0.85685 0.0
N388 N 0.51792 0.3139 0.83379 0.0
N389 N 0.58524 0.44489 0.85756 0.0
H390 H 0.03127 0.54674 0.9893 0.0
H391 H 0.26415 0.51392 0.03768 0.0
H392 H 0.09783 0.63693 0.0334 0.0
H393 H 0.24355 0.49154 0.98697 0.0
H394 H 0.2027 0.55676 0.03746 0.0
H395 H 0.10344 0.51762 0.98982 0.0
C396 C 0.06043 0.5597 0.99923 0.0
C397 C 0.05834 0.59434 1.01133 0.0
C398 C 0.21264 0.54342 0.02637 0.0
C399 C 0.14184 0.56174 0.01186 0.0
C400 C 0.24827 0.51954 0.02644 0.0
C401 C 0.25852 0.49824 0.01234 0.0
C402 C 0.1867 0.54536 0.01215 0.0
C403 C 0.23631 0.50654 0.99817 0.0
C404 C 0.1022 0.54372 0.9994 0.0
C405 C 0.09789 0.61028 0.02381 0.0
N406 N 0.20059 0.52833 0.99849 0.0
N407 N 0.13797 0.59372 0.02378 0.0
H408 H 0.46842 0.12565 0.18029 0.0
H409 H 0.75669 0.14246 0.15041 0.0
H410 H 0.47379 0.99101 0.15395 0.0
H411 H 0.75138 0.26306 0.18309 0.0
H412 H 0.65334 0.09574 0.14771 0.0
H413 H 0.57174 0.1829 0.17841 0.0
C414 C 0.49129 0.10793 0.17413 0.0
C415 C 0.46218 0.05313 0.16731 0.0
C416 C 0.67486 0.13289 0.1553 0.0
C417 C 0.58102 0.11921 0.165 0.0
C418 C 0.73402 0.16001 0.15676 0.0
C419 C 0.76287 0.20628 0.16723 0.0
C420 C 0.6442 0.15217 0.16434 0.0
C421 C 0.73111 0.22736 0.17497 0.0
C422 C 0.5504 0.14089 0.17302 0.0
C423 C 0.49437 0.03273 0.15949 0.0
N424 N 0.67336 0.19959 0.17355 0.0
N425 N 0.55211 0.06582 0.15854 0.0
H426 H 0.32618 0.46064 0.35994 0.0
H427 H 0.49812 0.76019 0.31568 0.0
H428 H 0.43529 0.49208 0.31938 0.0
H429 H 0.46047 0.74935 0.36566 0.0
H430 H 0.44565 0.65604 0.31415 0.0
H431 H 0.35258 0.56186 0.35999 0.0
C432 C 0.35598 0.48896 0.35112 0.0
C433 C 0.37917 0.46821 0.33973 0.0
C434 C 0.44768 0.67654 0.32536 0.0
C435 C 0.40755 0.58294 0.33941 0.0
C436 C 0.47679 0.73595 0.32621 0.0
C437 C 0.48474 0.76343 0.34089 0.0
C438 C 0.42589 0.64449 0.33926 0.0
C439 C 0.45577 0.72992 0.35412 0.0
C440 C 0.37061 0.54642 0.35111 0.0
C441 C 0.41719 0.50651 0.32851 0.0
N442 N 0.42859 0.6719 0.35309 0.0
N443 N 0.42991 0.56199 0.32857 0.0
H444 H 0.86051 0.33205 0.51392 0.0
H445 H 0.84261 0.60496 0.48547 0.0
H446 H -0.00591 0.47215 0.48763 0.0
H447 H 0.72298 0.47857 0.51803 0.0
H448 H 0.88949 0.54823 0.48237 0.0
H449 H 0.80333 0.37873 0.51258 0.0
C450 C 0.87801 0.37277 0.50788 0.0
C451 C 0.93252 0.39831 0.50092 0.0
C452 C 0.85251 0.53252 0.49002 0.0
C453 C 0.86649 0.4518 0.49924 0.0
C454 C 0.8253 0.56463 0.49171 0.0
C455 C 0.7792 0.54707 0.50225 0.0
C456 C 0.83353 0.48234 0.49889 0.0
C457 C 0.7585 0.4941 0.50985 0.0
C458 C 0.84509 0.39929 0.50709 0.0
C459 C 0.95261 0.45109 0.49327 0.0
N460 N 0.78634 0.46403 0.5082 0.0
N461 N 0.91956 0.47608 0.49263 0.0
H462 H 0.52981 0.86846 0.692 0.0
H463 H 0.22774 0.74308 0.64944 0.0
H464 H 0.49761 0.9457 0.65147 0.0
H465 H 0.24417 0.71139 0.6987 0.0
H466 H 0.33154 0.79511 0.64702 0.0
H467 H 0.42919 0.79406 0.69219 0.0
C468 C 0.50139 0.86992 0.68319 0.0
C469 C 0.52186 0.91361 0.67177 0.0
C470 C 0.31239 0.77547 0.65825 0.0
C471 C 0.40736 0.82764 0.67167 0.0
C472 C 0.25317 0.74483 0.65958 0.0
C473 C 0.22735 0.72385 0.67438 0.0
C474 C 0.34589 0.78453 0.67178 0.0
C475 C 0.26229 0.72712 0.68709 0.0
C476 C 0.44419 0.82728 0.68327 0.0
C477 C 0.48338 0.91333 0.66061 0.0
N478 N 0.32004 0.75829 0.68561 0.0
N479 N 0.42795 0.87076 0.66078 0.0
H480 H 0.20302 0.2769 0.95045 0.0
H481 H 0.42122 0.22921 0.89735 0.0
H482 H 0.37853 0.33598 0.9627 0.0
H483 H 0.2503 0.17697 0.882 0.0
H484 H 0.40897 0.28002 0.91967 0.0
H485 H 0.22138 0.2519 0.92385 0.0
C486 C 0.24574 0.28614 0.94742 0.0
C487 C 0.28919 0.30828 0.95889 0.0
C488 C 0.37426 0.25836 0.91132 0.0
C489 C 0.3103 0.27888 0.92859 0.0
C490 C 0.38148 0.22964 0.89853 0.0
C491 C 0.33696 0.1995 0.88777 0.0
C492 C 0.3215 0.25594 0.91367 0.0
C493 C 0.28592 0.20048 0.88995 0.0
C494 C 0.2561 0.27137 0.93227 0.0
C495 C 0.34354 0.31855 0.95433 0.0
N496 N 0.27925 0.22759 0.90277 0.0
N497 N 0.35228 0.30329 0.93969 0.0
H498 H 0.95513 0.17801 0.1214 0.0
H499 H 0.17733 0.41511 0.06109 0.0
H500 H 0.0787 0.3518 0.13367 0.0
H501 H 0.08275 0.2366 0.04894 0.0
H502 H 0.12477 0.39412 0.08608 0.0
H503 H 0.9869 0.19941 0.09355 0.0
C504 C 0.98853 0.2206 0.11826 0.0
C505 C 0.01477 0.26284 0.13 0.0
C506 C 0.11441 0.35949 0.07785 0.0
C507 C 0.05058 0.28783 0.0982 0.0
C508 C 0.14391 0.37171 0.06348 0.0
C509 C 0.13351 0.32772 0.05285 0.0
C510 C 0.07483 0.30254 0.08183 0.0
C511 C 0.09102 0.27185 0.05671 0.0
C512 C 0.00665 0.23278 0.10238 0.0
C513 C 0.05774 0.3174 0.12518 0.0
N514 N 0.06362 0.26066 0.07098 0.0
N515 N 0.07415 0.32812 0.10977 0.0
H516 H 0.76492 0.14737 0.22512 0.0
H517 H 0.7431 0.91636 0.28804 0.0
H518 H 0.85066 0.05027 0.21818 0.0
H519 H 0.65377 0.01118 0.29139 0.0
H520 H 0.77292 0.9533 0.26095 0.0
H521 H 0.71488 0.08773 0.24777 0.0
C522 C 0.77293 0.11309 0.22831 0.0
C523 C 0.81247 0.10421 0.2198 0.0
C524 C 0.74581 0.965 0.26751 0.0
C525 C 0.75544 0.03554 0.2461 0.0
C526 C 0.72831 0.94347 0.28291 0.0
C527 C 0.69615 0.96099 0.29202 0.0
C528 C 0.73085 0.00413 0.26124 0.0
C529 C 0.67892 -0.0031 0.28487 0.0
C530 C 0.74417 0.07882 0.24128 0.0
C531 C 0.82049 0.05859 0.22441 0.0
N532 N 0.6969 0.0176 0.27004 0.0
N533 N 0.79286 0.02643 0.23741 0.0
H534 H 0.57669 0.79868 0.40264 0.0
H535 H 0.79459 0.75242 0.45681 0.0
H536 H 0.73227 0.81558 0.38351 0.0
H537 H 0.64091 0.74844 0.47294 0.0
H538 H 0.7712 0.76637 0.42947 0.0
H539 H 0.59642 0.76811 0.42777 0.0
C540 C 0.61469 0.79496 0.40369 0.0
C541 C 0.65282 0.80966 0.39097 0.0
C542 C 0.74272 0.76221 0.43906 0.0
C543 C 0.67708 0.77616 0.42009 0.0
C544 C 0.75607 0.75433 0.45466 0.0
C545 C 0.72015 0.74987 0.46734 0.0
C546 C 0.69287 0.76505 0.43614 0.0
C547 C 0.67062 0.75238 0.46375 0.0
C548 C 0.62627 0.77783 0.41811 0.0
C549 C 0.70151 0.8041 0.393 0.0
N550 N 0.65874 0.7598 0.44863 0.0
N551 N 0.71274 0.78852 0.40739 0.0
H552 H 0.83906 0.60874 0.56126 0.0
H553 H 0.07501 0.82539 0.62201 0.0
H554 H 0.9362 0.79022 0.5526 0.0
H555 H 0.96677 0.64441 0.62947 0.0
H556 H 0.03821 0.81347 0.5947 0.0
H557 H 0.89847 0.62092 0.58418 0.0
C558 C 0.87334 0.65124 0.56412 0.0
C559 C 0.88221 0.69858 0.55508 0.0
C560 C 0.02343 0.77629 0.60225 0.0
C561 C 0.95048 0.71321 0.58166 0.0
C562 C 0.04479 0.78302 0.61776 0.0
C563 C 0.0236 0.73583 0.62801 0.0
C564 C 0.98102 0.72196 0.59703 0.0
C565 C 0.98391 0.682 0.622 0.0
C566 C 0.90741 0.65824 0.57725 0.0
C567 C 0.92786 0.75255 0.55926 0.0
N568 N 0.9637 0.67668 0.60702 0.0
N569 N 0.95982 0.75857 0.57241 0.0
H570 H 0.32763 0.94355 0.80061 0.0
H571 H 0.19331 0.93006 0.71493 0.0
H572 H 0.27753 0.0658 0.78639 0.0
H573 H 0.19807 0.7897 0.73791 0.0
H574 H 0.2417 0.99062 0.73813 0.0
H575 H 0.30092 0.89924 0.77456 0.0
C576 C 0.312 0.96185 0.79187 0.0
C577 C 0.30441 0.00827 0.79578 0.0
C578 C 0.23253 0.94671 0.73797 0.0
C579 C 0.27244 0.9566 0.76579 0.0
C580 C 0.20519 0.9122 0.72473 0.0
C581 C 0.19126 0.85451 0.7245 0.0
C582 C 0.24697 0.92362 0.75092 0.0
C583 C 0.20738 0.83364 0.73758 0.0
C584 C 0.29635 0.9362 0.777 0.0
C585 C 0.28428 0.03024 0.78388 0.0
N586 N 0.23423 0.86803 0.75017 0.0
N587 N 0.2682 0.00371 0.76946 0.0
H588 H 0.73879 0.81261 0.90549 0.0
H589 H 0.76603 0.58498 0.95993 0.0
H590 H 0.67599 0.63606 0.89322 0.0
H591 H 0.81528 0.75442 0.97668 0.0
H592 H 0.72441 0.60217 0.93649 0.0
H593 H 0.7581 0.79206 0.93258 0.0
C594 C 0.72772 0.76935 0.9086 0.0
C595 C 0.70622 0.72608 0.89706 0.0
C596 C 0.74371 0.63562 0.94531 0.0
C597 C 0.72878 0.70244 0.9278 0.0
C598 C 0.76756 0.62572 0.95875 0.0
C599 C 0.79447 0.66835 0.97028 0.0
C600 C 0.74746 0.68908 0.9431 0.0
C601 C 0.79476 0.72024 0.96811 0.0
C602 C 0.73914 0.7577 0.92401 0.0
C603 C 0.69322 0.6709 0.90168 0.0
N604 N 0.77239 0.72951 0.95467 0.0
N605 N 0.70514 0.66091 0.91655 0.0
H606 H 0.92783 0.64416 0.07222 0.0
H607 H 0.12041 0.90279 0.13098 0.0
H608 H 0.02667 0.82172 0.05913 0.0
H609 H 0.08795 0.73234 0.1406 0.0
H610 H 0.05985 0.86746 0.10758 0.0
H611 H 0.96317 0.67035 0.09976 0.0
C612 C 0.95603 0.6886 0.07522 0.0
C613 C 0.97461 0.73094 0.06345 0.0
C614 C 0.065 0.83737 0.11491 0.0
C615 C 0.0142 0.761 0.09464 0.0
C616 C 0.09919 0.85746 0.12834 0.0
C617 C 0.10905 0.82039 0.13771 0.0
C618 C 0.04083 0.7797 0.11057 0.0
C619 C 0.08089 0.76211 0.13372 0.0
C620 C 0.97636 0.70342 0.09084 0.0
C621 C 0.01157 0.78778 0.06784 0.0
N622 N 0.04851 0.7435 0.12026 0.0
N623 N 0.02996 0.80106 0.08302 0.0
H624 H 0.37706 0.05045 0.22454 0.0
H625 H 0.26204 0.06908 0.31067 0.0
H626 H 0.20238 0.93685 0.23829 0.0
H627 H 0.40097 0.20966 0.28624 0.0
H628 H 0.24888 0.00717 0.28758 0.0
H629 H 0.39599 0.09413 0.2507 0.0
C630 C 0.34277 0.03389 0.23315 0.0
C631 C 0.28773 0.99027 0.22905 0.0
C632 C 0.28272 0.05135 0.28743 0.0
C633 C 0.30937 0.04097 0.25923 0.0
C634 C 0.29053 0.08647 0.30061 0.0
C635 C 0.33273 0.14448 0.30032 0.0
C636 C 0.31824 0.07433 0.27409 0.0
C637 C 0.36791 0.16523 0.28692 0.0
C638 C 0.35366 0.05915 0.24811 0.0
C639 C 0.2454 0.97038 0.24088 0.0
N640 N 0.35995 0.13029 0.27441 0.0
N641 N 0.25688 -0.00361 0.25539 0.0
H642 H 0.25915 0.18356 0.4028 0.0
H643 H 0.23239 0.39316 0.46544 0.0
H644 H 0.31584 0.36171 0.39465 0.0
H645 H 0.14575 0.21052 0.47137 0.0
H646 H 0.28143 0.38416 0.44215 0.0
H647 H 0.23503 0.1944 0.43027 0.0
C648 C 0.26789 0.22522 0.40689 0.0
C649 C 0.28927 0.27173 0.39637 0.0
C650 C 0.25255 0.34598 0.44867 0.0
C651 C 0.2615 0.28436 0.4277 0.0
C652 C 0.22498 0.35125 0.46204 0.0
C653 C 0.18563 0.3026 0.47039 0.0
C654 C 0.24007 0.29146 0.44339 0.0
C655 C 0.17652 0.24909 0.46534 0.0
C656 C 0.25367 0.23128 0.42253 0.0
C657 C 0.29904 0.32456 0.40228 0.0
N658 N 0.20309 0.24483 0.45206 0.0
N659 N 0.28482 0.32929 0.41744 0.0
H660 H 0.93906 0.31659 0.55801 0.0
H661 H 0.92131 0.1778 0.64343 0.0
H662 H 0.04947 0.25033 0.57102 0.0
H663 H 0.78962 0.20256 0.62271 0.0
H664 H 0.98147 0.22292 0.61985 0.0
H665 H 0.89824 0.29531 0.58452 0.0
C666 C 0.95542 0.29826 0.56651 0.0
C667 C -0.00251 0.2847 0.56212 0.0
C668 C 0.93982 0.21937 0.62063 0.0
C669 C 0.94989 0.25938 0.59275 0.0
C670 C 0.9058 0.1942 0.63412 0.0
C671 C 0.85066 0.18692 0.63502 0.0
C672 C 0.91861 0.23788 0.6081 0.0
C673 C 0.83198 0.20763 0.6225 0.0
C674 C 0.93182 0.2859 0.58169 0.0
C675 C 0.01717 0.26153 0.57383 0.0
N676 N 0.8657 0.23198 0.60962 0.0
N677 N 0.9927 0.24891 0.58856 0.0
H678 H 0.74571 0.93442 0.81022 0.0
H679 H 0.61479 0.95359 0.7266 0.0
H680 H 0.58916 0.80188 0.78984 0.0
H681 H 0.79207 0.06514 0.73798 0.0
H682 H 0.59929 0.9121 0.753 0.0
H683 H 0.75833 0.99496 0.7869 0.0
C684 C 0.71358 0.91843 0.801 0.0
C685 C 0.66642 0.8628 0.80196 0.0
C686 C 0.64152 0.94617 0.74987 0.0
C687 C 0.68035 0.93181 0.7754 0.0
C688 C 0.65035 0.97025 0.7348 0.0
C689 C 0.70492 0.01276 0.72998 0.0
C690 C 0.68761 0.9641 0.76037 0.0
C691 C 0.74924 0.03267 0.7412 0.0
C692 C 0.72098 0.95285 0.78767 0.0
C693 C 0.62641 0.84417 0.78959 0.0
N694 N 0.73983 0.0076 0.75582 0.0
N695 N 0.63431 0.87841 0.77692 0.0
H696 H 0.2947 0.01041 0.11095 0.0
H697 H 0.30475 0.29007 0.07651 0.0
H698 H 0.27742 0.13227 0.14026 0.0
H699 H 0.26848 0.1443 0.04731 0.0
H700 H 0.30268 0.23612 0.09991 0.0
H701 H 0.29302 0.06224 0.08742 0.0
C702 C 0.29074 0.04817 0.11246 0.0
C703 C 0.28645 0.06718 0.12763 0.0
C704 C 0.295 0.21586 0.08839 0.0
C705 C 0.28459 0.12664 0.10071 0.0
C706 C 0.29644 0.2467 0.075 0.0
C707 C 0.287 0.22175 0.05989 0.0
C708 C 0.28474 0.15979 0.08671 0.0
C709 C 0.27594 0.16521 0.05871 0.0
C710 C 0.28947 0.07752 0.099 0.0
C711 C 0.28085 0.11607 0.12882 0.0
N712 N 0.2755 0.13623 0.07195 0.0
N713 N 0.28043 0.14431 0.11553 0.0
H714 H 0.14282 0.38432 0.22123 0.0
H715 H 0.12924 0.25423 0.30755 0.0
H716 H 0.9858 0.27668 0.24632 0.0
H717 H 0.28565 0.35378 0.28137 0.0
H718 H 0.07651 0.26644 0.28586 0.0
H719 H 0.19625 0.37964 0.24397 0.0
C720 C 0.1195 0.36035 0.23159 0.0
C721 C 0.05956 0.33078 0.23179 0.0
C722 C 0.12237 0.28566 0.28486 0.0
C723 C 0.12073 0.32463 0.25785 0.0
C724 C 0.1526 0.27861 0.29725 0.0
C725 C 0.21214 0.30287 0.29633 0.0
C726 C 0.15173 0.31732 0.2714 0.0
C727 C 0.23984 0.33408 0.28264 0.0
C728 C 0.15012 0.35742 0.24455 0.0
C729 C 0.0319 0.30021 0.24557 0.0
N730 N 0.20944 0.34038 0.27074 0.0
N731 N 0.06265 0.29768 0.25797 0.0
H732 H 0.83012 0.13173 0.37931 0.0
H733 H 0.85236 0.1375 0.4737 0.0
H734 H 0.6913 0.01588 0.40949 0.0
H735 H 0.96943 0.27671 0.44381 0.0
H736 H 0.79585 0.08846 0.45027 0.0
H737 H 0.88458 0.18199 0.40282 0.0
C738 C 0.81094 0.11694 0.39087 0.0
C739 C 0.75594 0.06946 0.3924 0.0
C740 C 0.83384 0.1298 0.44887 0.0
C741 C 0.81846 0.12667 0.4194 0.0
C742 C 0.8663 0.15774 0.46223 0.0
C743 C 0.91578 0.2114 0.46075 0.0
C744 C 0.85128 0.15537 0.43389 0.0
C745 C 0.93155 0.23555 0.44556 0.0
C746 C 0.84209 0.14576 0.40429 0.0
C747 C 0.73338 0.05242 0.40772 0.0
N748 N 0.89954 0.20728 0.43273 0.0
N749 N 0.76488 0.08078 0.42063 0.0
H750 H 0.59859 0.74355 0.55838 0.0
H751 H 0.74231 0.87737 0.64222 0.0
H752 H 0.71595 0.7038 0.58221 0.0
H753 H 0.63742 0.92798 0.61601 0.0
H754 H 0.72853 0.80913 0.62124 0.0
H755 H 0.60591 0.80497 0.58056 0.0
C756 C 0.62528 0.74701 0.56837 0.0
C757 C 0.65679 0.7184 0.56836 0.0
C758 C 0.70855 0.8352 0.62009 0.0
C759 C 0.66598 0.78957 0.59378 0.0
C760 C 0.71651 0.87434 0.63206 0.0
C761 C 0.69113 0.90877 0.63092 0.0
C762 C 0.67478 0.83013 0.60687 0.0
C763 C 0.65806 0.90265 0.61743 0.0
C764 C 0.62973 0.78247 0.581 0.0
C765 C 0.69082 0.7249 0.58166 0.0
N766 N 0.65082 0.86412 0.60598 0.0
N767 N 0.69476 0.76002 0.59377 0.0
H768 H 0.97519 0.67202 0.74766 0.0
H769 H 0.6958 0.6798 0.77674 0.0
H770 H 0.85374 0.67934 0.71588 0.0
H771 H 0.82027 0.67734 0.80834 0.0
H772 H 0.75029 0.67448 0.75418 0.0
H773 H 0.91598 0.66865 0.77008 0.0
C774 C 0.93605 0.6726 0.74537 0.0
C775 C 0.91976 0.67621 0.72982 0.0
C776 C 0.76546 0.67491 0.76608 0.0
C777 C 0.85176 0.67256 0.75544 0.0
C778 C 0.73428 0.67786 0.77896 0.0
C779 C 0.75342 0.67931 0.7945 0.0
C780 C 0.81607 0.6733 0.76876 0.0
C781 C 0.80377 0.67669 0.79661 0.0
C782 C 0.90225 0.67078 0.75818 0.0
C783 C 0.86841 0.67685 0.72762 0.0
N784 N 0.83326 0.67398 0.78393 0.0
N785 N 0.83647 0.67524 0.74026 0.0
H786 H 0.98204 0.70865 0.94418 0.0
H787 H 0.28567 0.95348 0.91222 0.0
H788 H 0.13572 0.7916 0.97229 0.0
H789 H 0.13303 0.87987 0.88358 0.0
H790 H 0.23084 0.89106 0.93395 0.0
H791 H 0.03642 0.76628 0.9213 0.0
C792 C 0.02724 0.73838 0.94551 0.0
C793 C 0.05423 0.74539 0.96022 0.0
C794 C 0.20918 0.88847 0.92293 0.0
C795 C 0.11644 0.8117 0.93419 0.0
C796 C 0.24054 0.92431 0.91048 0.0
C797 C 0.21406 0.92215 0.89599 0.0
C798 C 0.15068 0.84985 0.92098 0.0
C799 C 0.15532 0.88321 0.89453 0.0
C800 C 0.05816 0.77151 0.93248 0.0
C801 C 0.11286 0.78488 0.96125 0.0
N802 N 0.1256 0.84856 0.90686 0.0
N803 N 0.14178 0.81653 0.94847 0.0
H804 H 0.04693 0.15043 0.01585 0.0
H805 H 0.0056 0.86361 0.98141 0.0
H806 H 0.14445 0.13152 0.97824 0.0
H807 H 0.92743 0.87819 0.02444 0.0
H808 H 0.02344 0.95774 0.97335 0.0
H809 H 0.97278 0.05026 0.01218 0.0
C810 C 0.05182 0.12539 1.00657 0.0
C811 C 0.10231 0.14749 0.99777 0.0
C812 C 0.00163 0.94012 0.98446 0.0
C813 C 0.01879 0.03481 0.99344 0.0
C814 C 0.99219 0.88688 0.98914 0.0
C815 C 0.96779 0.86504 1.00394 0.0
C816 C 0.98857 0.97236 0.99497 0.0
C817 C 0.94834 0.89499 0.01318 0.0
C818 C 0.00964 0.0686 1.00443 0.0
C819 C 0.10678 0.11466 0.98566 0.0
N820 N 0.96074 0.94825 1.00876 0.0
N821 N 0.06586 0.05944 0.98401 0.0
H822 H 0.0534 0.93844 0.17152 0.0
H823 H 0.02953 0.17468 0.22015 0.0
H824 H 0.15507 0.03281 0.21172 0.0
H825 H 0.97479 0.1299 0.17175 0.0
H826 H 0.03371 0.08655 0.22285 0.0
H827 H 0.98732 0.97418 0.17723 0.0
C828 C 0.06086 0.96564 0.18174 0.0
C829 C 0.11025 0.98481 0.19088 0.0
C830 C 0.01909 0.09509 0.21178 0.0
C831 C 0.0353 0.02394 0.19765 0.0
C832 C 0.017 0.14524 0.21024 0.0
C833 C 0.0033 0.15929 0.19562 0.0
C834 C 0.00943 0.0605 0.19839 0.0
C835 C 0.98639 0.12021 0.18313 0.0
C836 C 0.02321 0.98558 0.18504 0.0
C837 C 0.11818 0.01896 0.20413 0.0
N838 N 0.9914 0.07286 0.18465 0.0
N839 N 0.08137 0.03808 0.20703 0.0
H840 H 0.11578 0.10386 0.37304 0.0
H841 H 0.8794 0.01359 0.31964 0.0
H842 H 0.14607 0.07089 0.32504 0.0
H843 H 0.84129 0.91275 0.36226 0.0
H844 H 0.97783 0.03262 0.3209 0.0
H845 H 0.01583 0.02893 0.37047 0.0
C846 C 0.10138 0.07944 0.36215 0.0
C847 C 0.13774 0.09332 0.34912 0.0
C848 C 0.94741 0.00501 0.32971 0.0
C849 C 0.02507 0.01007 0.34597 0.0
C850 C 0.89192 0.99514 0.32915 0.0
C851 C 0.85348 0.96292 0.34107 0.0
C852 C 0.96441 0.9842 0.3426 0.0
C853 C 0.87061 0.9386 0.35301 0.0
C854 C 0.0449 0.03659 0.36072 0.0
C855 C 0.11827 0.06109 0.33522 0.0
N856 N 0.92575 0.95128 0.35378 0.0
N857 N 0.06222 0.0219 0.33377 0.0
H858 H 0.04348 0.09954 0.50318 0.0
H859 H 0.81517 0.85077 0.55621 0.0
H860 H 0.96196 0.11674 0.5451 0.0
H861 H 0.85341 0.83059 0.50785 0.0
H862 H 0.90343 0.94294 0.55734 0.0
H863 H 0.00711 -0.00167 0.50982 0.0
C864 C 0.019 0.08208 0.51394 0.0
C865 C 0.00353 0.11491 0.52336 0.0
C866 C 0.89342 0.91762 0.54662 0.0
C867 C 0.96353 0.00149 0.53114 0.0
C868 C 0.84318 0.86541 0.54598 0.0
C869 C 0.82729 0.83454 0.53184 0.0
C870 C 0.92625 0.93949 0.5328 0.0
C871 C 0.8646 0.85398 0.51891 0.0
C872 C -0.00135 0.02483 0.51776 0.0
C873 C 0.97286 0.09163 0.53731 0.0
N874 N 0.91201 0.90633 0.51955 0.0
N875 N 0.95318 0.03597 0.5407 0.0
H876 H 0.08263 0.94844 0.66956 0.0
H877 H 0.85523 -0.00049 0.71316 0.0
H878 H 0.95547 0.83718 0.70324 0.0
H879 H 0.93941 0.08405 0.66984 0.0
H880 H 0.92817 0.97281 0.71751 0.0
H881 H 0.06232 0.02486 0.67675 0.0
C882 C 0.05088 0.94049 0.67856 0.0
C883 C 0.01873 0.88623 0.68538 0.0
C884 C 0.9316 -0.00157 0.70724 0.0
C885 C -0.00275 0.97285 0.69398 0.0
C886 C 0.88997 0.01326 0.70475 0.0
C887 C 0.89081 0.04162 0.69083 0.0
C888 C 0.97221 0.00989 0.69534 0.0
C889 C 0.93708 0.06053 0.68048 0.0
C890 C 0.03989 0.98404 0.68276 0.0
C891 C 0.97933 0.87793 0.69726 0.0
N892 N 0.97537 0.04259 0.68266 0.0
N893 N 0.96927 0.92073 0.70108 0.0
H894 H 0.14297 0.00888 0.81153 0.0
H895 H 0.86477 0.94742 0.85744 0.0
H896 H 0.14391 0.08841 0.85591 0.0
H897 H 0.88301 0.8391 0.82301 0.0
H898 H 0.96035 0.02514 0.85035 0.0
H899 H 0.04221 0.97899 0.80823 0.0
C900 C 0.12193 0.02125 0.82034 0.0
C901 C 0.15008 0.04912 0.83423 0.0
C902 C 0.94274 0.98462 0.84419 0.0
C903 C 0.0358 0.01351 0.83095 0.0
C904 C 0.88886 0.9403 0.84833 0.0
C905 C 0.86754 0.88654 0.84119 0.0
C906 C 0.97439 0.9748 0.83269 0.0
C907 C 0.89915 0.8794 0.82921 0.0
C908 C 0.06477 0.0044 0.81848 0.0
C909 C 0.12239 0.06564 0.84523 0.0
N910 N 0.95131 0.923 0.82542 0.0
N911 N 0.06568 0.04587 0.84362 0.0
loop_
_geom_bond_atom_site_label_1
_geom_bond_atom_site_label_2
_geom_bond_distance
_geom_bond_site_symmetry_2
_ccdc_geom_bond_type
Sc0 O3 2.025 . S
Sc0 O10 2.105 . S
Sc0 O13 2.105 1_554 S
Sc0 O16 2.105 . S
Sc0 O19 2.105 . S
Sc1 O3 2.025 . S
Sc1 O11 2.105 . S
Sc1 O15 2.105 . S
Sc1 O17 2.105 1_554 S
Sc1 O21 2.105 . S
Sc2 O3 2.025 . S
Sc2 O12 2.105 . S
Sc2 O14 2.105 . S
Sc2 O18 2.105 . S
Sc2 O20 2.105 . S
O3 Sc0 2.025 . S
O3 Sc1 2.025 . S
O3 Sc2 2.025 . S
C4 O10 1.268 . S
C4 O20 1.268 . S
C5 O11 1.268 . S
C5 O19 1.268 . S
C6 O12 1.268 . S
C6 O21 1.268 . S
C7 O13 1.268 . S
C7 O17 1.268 . S
C8 O14 1.268 . S
C8 O16 1.268 . S
C9 O15 1.268 . S
C9 O18 1.268 . S
O10 Sc0 2.105 . S
O10 C4 1.268 . S
O11 Sc1 2.105 . S
O11 C5 1.268 . S
O12 Sc2 2.105 . S
O12 C6 1.268 . S
O13 Sc0 2.105 1_556 S
O13 C7 1.268 . S
O14 Sc2 2.105 . S
O14 C8 1.268 . S
O15 Sc1 2.105 . S
O15 C9 1.268 . S
O16 Sc0 2.105 . S
O16 C8 1.268 . S
O17 Sc1 2.105 1_556 S
O17 C7 1.268 . S
O18 Sc2 2.105 . S
O18 C9 1.268 . S
O19 Sc0 2.105 . S
O19 C5 1.268 . S
O20 Sc2 2.105 . S
O20 C4 1.268 . S
O21 Sc1 2.105 . S
O21 C6 1.268 . S
Sc22 O25 2.025 . S
Sc22 O32 2.105 . S
Sc22 O35 2.105 . S
Sc22 O38 2.105 . S
Sc22 O41 2.105 . S
Sc23 O25 2.025 . S
Sc23 O33 2.105 . S
Sc23 O37 2.105 . S
Sc23 O39 2.105 . S
Sc23 O43 2.105 . S
Sc24 O25 2.025 . S
Sc24 O34 2.105 . S
Sc24 O36 2.105 1_655 S
Sc24 O40 2.105 . S
Sc24 O42 2.105 . S
O25 Sc22 2.025 . S
O25 Sc23 2.025 . S
O25 Sc24 2.025 . S
C26 O32 1.268 . S
C26 O42 1.268 . S
C27 O33 1.268 . S
C27 O41 1.268 . S
C28 O34 1.268 . S
C28 O43 1.268 . S
C29 O35 1.268 . S
C29 O39 1.268 . S
C30 O36 1.268 1_655 S
C30 O38 1.268 . S
C31 O37 1.268 . S
C31 O40 1.268 . S
O32 Sc22 2.105 . S
O32 C26 1.268 . S
O33 Sc23 2.105 . S
O33 C27 1.268 . S
O34 Sc24 2.105 . S
O34 C28 1.268 . S
O35 Sc22 2.105 . S
O35 C29 1.268 . S
O36 Sc24 2.105 1_455 S
O36 C30 1.268 1_455 S
O37 Sc23 2.105 . S
O37 C31 1.268 . S
O38 Sc22 2.105 . S
O38 C30 1.268 . S
O39 Sc23 2.105 . S
O39 C29 1.268 . S
O40 Sc24 2.105 . S
O40 C31 1.268 . S
O41 Sc22 2.105 . S
O41 C27 1.268 . S
O42 Sc24 2.105 . S
O42 C26 1.268 . S
O43 Sc23 2.105 . S
O43 C28 1.268 . S
Sc44 O47 2.025 . S
Sc44 O54 2.105 1_565 S
Sc44 O57 2.105 . S
Sc44 O60 2.105 . S
Sc44 O63 2.105 . S
Sc45 O47 2.025 . S
Sc45 O55 2.105 . S
Sc45 O59 2.105 . S
Sc45 O61 2.105 . S
Sc45 O65 2.105 . S
Sc46 O47 2.025 . S
Sc46 O56 2.105 . S
Sc46 O58 2.105 . S
Sc46 O62 2.105 . S
Sc46 O64 2.105 . S
O47 Sc44 2.025 . S
O47 Sc45 2.025 . S
O47 Sc46 2.025 . S
C48 O54 1.268 1_565 S
C48 O64 1.268 . S
C49 O55 1.268 . S
C49 O63 1.268 . S
C50 O56 1.268 . S
C50 O65 1.268 . S
C51 O57 1.268 . S
C51 O61 1.268 . S
C52 O58 1.268 . S
C52 O60 1.268 . S
C53 O59 1.268 . S
C53 O62 1.268 . S
O54 Sc44 2.105 1_545 S
O54 C48 1.268 1_545 S
O55 Sc45 2.105 . S
O55 C49 1.268 . S
O56 Sc46 2.105 . S
O56 C50 1.268 . S
O57 Sc44 2.105 . S
O57 C51 1.268 . S
O58 Sc46 2.105 . S
O58 C52 1.268 . S
O59 Sc45 2.105 . S
O59 C53 1.268 . S
O60 Sc44 2.105 . S
O60 C52 1.268 . S
O61 Sc45 2.105 . S
O61 C51 1.268 . S
O62 Sc46 2.105 . S
O62 C53 1.268 . S
O63 Sc44 2.105 . S
O63 C49 1.268 . S
O64 Sc46 2.105 . S
O64 C48 1.268 . S
O65 Sc45 2.105 . S
O65 C50 1.268 . S
Sc66 O69 2.025 . S
Sc66 O76 2.105 . S
Sc66 O79 2.105 . S
Sc66 O82 2.105 . S
Sc66 O85 2.105 . S
Sc67 O69 2.025 . S
Sc67 O77 2.105 . S
Sc67 O81 2.105 . S
Sc67 O83 2.105 . S
Sc67 O87 2.105 . S
Sc68 O69 2.025 . S
Sc68 O78 2.105 . S
Sc68 O80 2.105 . S
Sc68 O84 2.105 . S
Sc68 O86 2.105 . S
O69 Sc66 2.025 . S
O69 Sc67 2.025 . S
O69 Sc68 2.025 . S
C70 O76 1.268 . S
C70 O86 1.268 . S
C71 O77 1.268 . S
C71 O85 1.268 . S
C72 O78 1.268 . S
C72 O87 1.268 . S
C73 O79 1.268 . S
C73 O83 1.268 . S
C74 O80 1.268 . S
C74 O82 1.268 . S
C75 O81 1.268 . S
C75 O84 1.268 . S
O76 Sc66 2.105 . S
O76 C70 1.268 . S
O77 Sc67 2.105 . S
O77 C71 1.268 . S
O78 Sc68 2.105 . S
O78 C72 1.268 . S
O79 Sc66 2.105 . S
O79 C73 1.268 . S
O80 Sc68 2.105 . S
O80 C74 1.268 . S
O81 Sc67 2.105 . S
O81 C75 1.268 . S
O82 Sc66 2.105 . S
O82 C74 1.268 . S
O83 Sc67 2.105 . S
O83 C73 1.268 . S
O84 Sc68 2.105 . S
O84 C75 1.268 . S
O85 Sc66 2.105 . S
O85 C71 1.268 . S
O86 Sc68 2.105 . S
O86 C70 1.268 . S
O87 Sc67 2.105 . S
O87 C72 1.268 . S
Sc88 O91 2.025 . S
Sc88 O98 2.105 1_455 S
Sc88 O101 2.105 . S
Sc88 O104 2.105 . S
Sc88 O107 2.105 . S
Sc89 O91 2.025 . S
Sc89 O99 2.105 . S
Sc89 O103 2.105 . S
Sc89 O105 2.105 . S
Sc89 O109 2.105 . S
Sc90 O91 2.025 . S
Sc90 O100 2.105 . S
Sc90 O102 2.105 . S
Sc90 O106 2.105 . S
Sc90 O108 2.105 . S
O91 Sc88 2.025 . S
O91 Sc89 2.025 . S
O91 Sc90 2.025 . S
C92 O98 1.268 1_455 S
C92 O108 1.268 . S
C93 O99 1.268 . S
C93 O107 1.268 . S
C94 O100 1.268 . S
C94 O109 1.268 . S
C95 O101 1.268 . S
C95 O105 1.268 . S
C96 O102 1.268 . S
C96 O104 1.268 . S
C97 O103 1.268 . S
C97 O106 1.268 . S
O98 Sc88 2.105 1_655 S
O98 C92 1.268 1_655 S
O99 Sc89 2.105 . S
O99 C93 1.268 . S
O100 Sc90 2.105 . S
O100 C94 1.268 . S
O101 Sc88 2.105 . S
O101 C95 1.268 . S
O102 Sc90 2.105 . S
O102 C96 1.268 . S
O103 Sc89 2.105 . S
O103 C97 1.268 . S
O104 Sc88 2.105 . S
O104 C96 1.268 . S
O105 Sc89 2.105 . S
O105 C95 1.268 . S
O106 Sc90 2.105 . S
O106 C97 1.268 . S
O107 Sc88 2.105 . S
O107 C93 1.268 . S
O108 Sc90 2.105 . S
O108 C92 1.268 . S
O109 Sc89 2.105 . S
O109 C94 1.268 . S
Sc110 O113 2.025 . S
Sc110 O120 2.105 . S
Sc110 O123 2.105 . S
Sc110 O126 2.105 . S
Sc110 O129 2.105 . S
Sc111 O113 2.025 . S
Sc111 O121 2.105 . S
Sc111 O125 2.105 . S
Sc111 O127 2.105 . S
Sc111 O131 2.105 . S
Sc112 O113 2.025 . S
Sc112 O122 2.105 . S
Sc112 O124 2.105 1_545 S
Sc112 O128 2.105 . S
Sc112 O130 2.105 . S
O113 Sc110 2.025 . S
O113 Sc111 2.025 . S
O113 Sc112 2.025 . S
C114 O120 1.268 . S
C114 O130 1.268 . S
C115 O121 1.268 . S
C115 O129 1.268 . S
C116 O122 1.268 . S
C116 O131 1.268 . S
C117 O123 1.268 . S
C117 O127 1.268 . S
C118 O124 1.268 1_545 S
C118 O126 1.268 . S
C119 O125 1.268 . S
C119 O128 1.268 . S
O120 Sc110 2.105 . S
O120 C114 1.268 . S
O121 Sc111 2.105 . S
O121 C115 1.268 . S
O122 Sc112 2.105 . S
O122 C116 1.268 . S
O123 Sc110 2.105 . S
O123 C117 1.268 . S
O124 Sc112 2.105 1_565 S
O124 C118 1.268 1_565 S
O125 Sc111 2.105 . S
O125 C119 1.268 . S
O126 Sc110 2.105 . S
O126 C118 1.268 . S
O127 Sc111 2.105 . S
O127 C117 1.268 . S
O128 Sc112 2.105 . S
O128 C119 1.268 . S
O129 Sc110 2.105 . S
O129 C115 1.268 . S
O130 Sc112 2.105 . S
O130 C114 1.268 . S
O131 Sc111 2.105 . S
O131 C116 1.268 . S
Sc132 O135 2.025 . S
Sc132 O142 2.105 . S
Sc132 O145 2.105 . S
Sc132 O148 2.105 . S
Sc132 O151 2.105 . S
Sc133 O135 2.025 . S
Sc133 O143 2.105 . S
Sc133 O147 2.105 . S
Sc133 O149 2.105 . S
Sc133 O153 2.105 . S
Sc134 O135 2.025 . S
Sc134 O144 2.105 . S
Sc134 O146 2.105 . S
Sc134 O150 2.105 . S
Sc134 O152 2.105 . S
O135 Sc132 2.025 . S
O135 Sc133 2.025 . S
O135 Sc134 2.025 . S
C136 O142 1.268 . S
C136 O152 1.268 . S
C137 O143 1.268 . S
C137 O151 1.268 . S
C138 O144 1.268 . S
C138 O153 1.268 . S
C139 O145 1.268 . S
C139 O149 1.268 . S
C140 O146 1.268 . S
C140 O148 1.268 . S
C141 O147 1.268 . S
C141 O150 1.268 . S
O142 Sc132 2.105 . S
O142 C136 1.268 . S
O143 Sc133 2.105 . S
O143 C137 1.268 . S
O144 Sc134 2.105 . S
O144 C138 1.268 . S
O145 Sc132 2.105 . S
O145 C139 1.268 . S
O146 Sc134 2.105 . S
O146 C140 1.268 . S
O147 Sc133 2.105 . S
O147 C141 1.268 . S
O148 Sc132 2.105 . S
O148 C140 1.268 . S
O149 Sc133 2.105 . S
O149 C139 1.268 . S
O150 Sc134 2.105 . S
O150 C141 1.268 . S
O151 Sc132 2.105 . S
O151 C137 1.268 . S
O152 Sc134 2.105 . S
O152 C136 1.268 . S
O153 Sc133 2.105 . S
O153 C138 1.268 . S
Sc154 O157 2.025 . S
Sc154 O164 2.105 1_655 S
Sc154 O167 2.105 1_556 S
Sc154 O170 2.105 . S
Sc154 O173 2.105 . S
Sc155 O157 2.025 . S
Sc155 O165 2.105 . S
Sc155 O169 2.105 . S
Sc155 O171 2.105 1_556 S
Sc155 O175 2.105 . S
Sc156 O157 2.025 . S
Sc156 O166 2.105 . S
Sc156 O168 2.105 . S
Sc156 O172 2.105 . S
Sc156 O174 2.105 . S
O157 Sc154 2.025 . S
O157 Sc155 2.025 . S
O157 Sc156 2.025 . S
C158 O164 1.268 1_655 S
C158 O174 1.268 . S
C159 O165 1.268 . S
C159 O173 1.268 . S
C160 O166 1.268 . S
C160 O175 1.268 . S
C161 O167 1.268 . S
C161 O171 1.268 . S
C162 O168 1.268 . S
C162 O170 1.268 . S
C163 O169 1.268 . S
C163 O172 1.268 . S
O164 Sc154 2.105 1_455 S
O164 C158 1.268 1_455 S
O165 Sc155 2.105 . S
O165 C159 1.268 . S
O166 Sc156 2.105 . S
O166 C160 1.268 . S
O167 Sc154 2.105 1_554 S
O167 C161 1.268 . S
O168 Sc156 2.105 . S
O168 C162 1.268 . S
O169 Sc155 2.105 . S
O169 C163 1.268 . S
O170 Sc154 2.105 . S
O170 C162 1.268 . S
O171 Sc155 2.105 1_554 S
O171 C161 1.268 . S
O172 Sc156 2.105 . S
O172 C163 1.268 . S
O173 Sc154 2.105 . S
O173 C159 1.268 . S
O174 Sc156 2.105 . S
O174 C158 1.268 . S
O175 Sc155 2.105 . S
O175 C160 1.268 . S
Sc176 O179 2.025 . S
Sc176 O186 2.105 1_565 S
Sc176 O189 2.105 . S
Sc176 O192 2.105 . S
Sc176 O195 2.105 . S
Sc177 O179 2.025 . S
Sc177 O187 2.105 . S
Sc177 O191 2.105 . S
Sc177 O193 2.105 . S
Sc177 O197 2.105 . S
Sc178 O179 2.025 . S
Sc178 O188 2.105 . S
Sc178 O190 2.105 . S
Sc178 O194 2.105 . S
Sc178 O196 2.105 . S
O179 Sc176 2.025 . S
O179 Sc177 2.025 . S
O179 Sc178 2.025 . S
C180 O186 1.268 1_565 S
C180 O196 1.268 . S
C181 O187 1.268 . S
C181 O195 1.268 . S
C182 O188 1.268 . S
C182 O197 1.268 . S
C183 O189 1.268 . S
C183 O193 1.268 . S
C184 O190 1.268 . S
C184 O192 1.268 . S
C185 O191 1.268 . S
C185 O194 1.268 . S
O186 Sc176 2.105 1_545 S
O186 C180 1.268 1_545 S
O187 Sc177 2.105 . S
O187 C181 1.268 . S
O188 Sc178 2.105 . S
O188 C182 1.268 . S
O189 Sc176 2.105 . S
O189 C183 1.268 . S
O190 Sc178 2.105 . S
O190 C184 1.268 . S
O191 Sc177 2.105 . S
O191 C185 1.268 . S
O192 Sc176 2.105 . S
O192 C184 1.268 . S
O193 Sc177 2.105 . S
O193 C183 1.268 . S
O194 Sc178 2.105 . S
O194 C185 1.268 . S
O195 Sc176 2.105 . S
O195 C181 1.268 . S
O196 Sc178 2.105 . S
O196 C180 1.268 . S
O197 Sc177 2.105 . S
O197 C182 1.268 . S
Sc198 O201 2.025 . S
Sc198 O208 2.105 . S
Sc198 O211 2.105 . S
Sc198 O214 2.105 . S
Sc198 O217 2.105 . S
Sc199 O201 2.025 . S
Sc199 O209 2.105 . S
Sc199 O213 2.105 . S
Sc199 O215 2.105 . S
Sc199 O219 2.105 . S
Sc200 O201 2.025 . S
Sc200 O210 2.105 . S
Sc200 O212 2.105 . S
Sc200 O216 2.105 . S
Sc200 O218 2.105 . S
O201 Sc198 2.025 . S
O201 Sc199 2.025 . S
O201 Sc200 2.025 . S
C202 O208 1.268 . S
C202 O218 1.268 . S
C203 O209 1.268 . S
C203 O217 1.268 . S
C204 O210 1.268 . S
C204 O219 1.268 . S
C205 O211 1.268 . S
C205 O215 1.268 . S
C206 O212 1.268 . S
C206 O214 1.268 . S
C207 O213 1.268 . S
C207 O216 1.268 . S
O208 Sc198 2.105 . S
O208 C202 1.268 . S
O209 Sc199 2.105 . S
O209 C203 1.268 . S
O210 Sc200 2.105 . S
O210 C204 1.268 . S
O211 Sc198 2.105 . S
O211 C205 1.268 . S
O212 Sc200 2.105 . S
O212 C206 1.268 . S
O213 Sc199 2.105 . S
O213 C207 1.268 . S
O214 Sc198 2.105 . S
O214 C206 1.268 . S
O215 Sc199 2.105 . S
O215 C205 1.268 . S
O216 Sc200 2.105 . S
O216 C207 1.268 . S
O217 Sc198 2.105 . S
O217 C203 1.268 . S
O218 Sc200 2.105 . S
O218 C202 1.268 . S
O219 Sc199 2.105 . S
O219 C204 1.268 . S
Sc220 O223 2.025 . S
Sc220 O230 2.105 1_455 S
Sc220 O233 2.105 . S
Sc220 O236 2.105 . S
Sc220 O239 2.105 . S
Sc221 O223 2.025 . S
Sc221 O231 2.105 . S
Sc221 O235 2.105 . S
Sc221 O237 2.105 . S
Sc221 O241 2.105 . S
Sc222 O223 2.025 . S
Sc222 O232 2.105 . S
Sc222 O234 2.105 . S
Sc222 O238 2.105 . S
Sc222 O240 2.105 . S
O223 Sc220 2.025 . S
O223 Sc221 2.025 . S
O223 Sc222 2.025 . S
C224 O230 1.268 1_455 S
C224 O240 1.268 . S
C225 O231 1.268 . S
C225 O239 1.268 . S
C226 O232 1.268 . S
C226 O241 1.268 . S
C227 O233 1.268 . S
C227 O237 1.268 . S
C228 O234 1.268 . S
C228 O236 1.268 . S
C229 O235 1.268 . S
C229 O238 1.268 . S
O230 Sc220 2.105 1_655 S
O230 C224 1.268 1_655 S
O231 Sc221 2.105 . S
O231 C225 1.268 . S
O232 Sc222 2.105 . S
O232 C226 1.268 . S
O233 Sc220 2.105 . S
O233 C227 1.268 . S
O234 Sc222 2.105 . S
O234 C228 1.268 . S
O235 Sc221 2.105 . S
O235 C229 1.268 . S
O236 Sc220 2.105 . S
O236 C228 1.268 . S
O237 Sc221 2.105 . S
O237 C227 1.268 . S
O238 Sc222 2.105 . S
O238 C229 1.268 . S
O239 Sc220 2.105 . S
O239 C225 1.268 . S
O240 Sc222 2.105 . S
O240 C224 1.268 . S
O241 Sc221 2.105 . S
O241 C226 1.268 . S
Sc242 O245 2.025 . S
Sc242 O252 2.105 . S
Sc242 O255 2.105 . S
Sc242 O258 2.105 . S
Sc242 O261 2.105 . S
Sc243 O245 2.025 . S
Sc243 O253 2.105 . S
Sc243 O257 2.105 . S
Sc243 O259 2.105 . S
Sc243 O263 2.105 . S
Sc244 O245 2.025 . S
Sc244 O254 2.105 . S
Sc244 O256 2.105 1_545 S
Sc244 O260 2.105 . S
Sc244 O262 2.105 . S
O245 Sc242 2.025 . S
O245 Sc243 2.025 . S
O245 Sc244 2.025 . S
C246 O252 1.268 . S
C246 O262 1.268 . S
C247 O253 1.268 . S
C247 O261 1.268 . S
C248 O254 1.268 . S
C248 O263 1.268 . S
C249 O255 1.268 . S
C249 O259 1.268 . S
C250 O256 1.268 1_545 S
C250 O258 1.268 . S
C251 O257 1.268 . S
C251 O260 1.268 . S
O252 Sc242 2.105 . S
O252 C246 1.268 . S
O253 Sc243 2.105 . S
O253 C247 1.268 . S
O254 Sc244 2.105 . S
O254 C248 1.268 . S
O255 Sc242 2.105 . S
O255 C249 1.268 . S
O256 Sc244 2.105 1_565 S
O256 C250 1.268 1_565 S
O257 Sc243 2.105 . S
O257 C251 1.268 . S
O258 Sc242 2.105 . S
O258 C250 1.268 . S
O259 Sc243 2.105 . S
O259 C249 1.268 . S
O260 Sc244 2.105 . S
O260 C251 1.268 . S
O261 Sc242 2.105 . S
O261 C247 1.268 . S
O262 Sc244 2.105 . S
O262 C246 1.268 . S
O263 Sc243 2.105 . S
O263 C248 1.268 . S
H264 C270 0.930 . S
H265 C274 0.930 . S
H266 C279 0.929 . S
H267 C277 0.929 . S
H268 C272 0.929 . S
H269 C278 0.929 . S
C270 H264 0.930 . S
C270 C271 1.367 1_554 S
C270 C278 1.378 . S
C271 C270 1.367 1_556 S
C271 C279 1.433 . S
C272 H268 0.929 . S
C272 C274 1.378 . S
C272 C276 1.350 1_556 S
C273 C276 1.463 . S
C273 C278 1.350 . S
C273 N281 1.427 1_554 S
C274 H265 0.930 . S
C274 C272 1.378 . S
C274 C275 1.367 1_556 S
C275 C274 1.367 1_554 S
C275 C277 1.433 . S
C276 C272 1.350 1_554 S
C276 C273 1.463 . S
C276 N280 1.427 . S
C277 H267 0.929 . S
C277 C275 1.433 . S
C277 N280 1.384 . S
C278 H269 0.929 . S
C278 C270 1.378 . S
C278 C273 1.350 . S
C279 H266 0.929 . S
C279 C271 1.433 . S
C279 N281 1.384 . S
N280 C276 1.427 . S
N280 C277 1.384 . S
N281 C273 1.427 1_556 S
N281 C279 1.384 . S
H282 C288 0.930 . S
H283 C292 0.930 . S
H284 C297 0.929 . S
H285 C295 0.929 . S
H286 C290 0.929 . S
H287 C296 0.929 . S
C288 H282 0.930 . S
C288 C289 1.367 . S
C288 C296 1.378 . S
C289 C288 1.367 . S
C289 C297 1.433 . S
C290 H286 0.929 . S
C290 C292 1.378 . S
C290 C294 1.350 1_655 S
C291 C294 1.463 . S
C291 C296 1.350 . S
C291 N299 1.427 . S
C292 H283 0.930 . S
C292 C290 1.378 . S
C292 C293 1.367 . S
C293 C292 1.367 . S
C293 C295 1.433 1_655 S
C294 C290 1.350 1_455 S
C294 C291 1.463 . S
C294 N298 1.427 . S
C295 H285 0.929 . S
C295 C293 1.433 1_455 S
C295 N298 1.384 . S
C296 H287 0.929 . S
C296 C288 1.378 . S
C296 C291 1.350 . S
C297 H284 0.929 . S
C297 C289 1.433 . S
C297 N299 1.384 . S
N298 C294 1.427 . S
N298 C295 1.384 . S
N299 C291 1.427 . S
N299 C297 1.384 . S
H300 C306 0.930 . S
H301 C310 0.930 . S
H302 C315 0.929 . S
H303 C313 0.929 . S
H304 C308 0.929 . S
H305 C314 0.929 . S
C306 H300 0.930 . S
C306 C307 1.367 . S
C306 C314 1.378 . S
C307 C306 1.367 . S
C307 C315 1.433 . S
C308 H304 0.929 . S
C308 C310 1.378 . S
C308 C312 1.350 1_565 S
C309 C312 1.463 . S
C309 C314 1.350 . S
C309 N317 1.427 . S
C310 H301 0.930 . S
C310 C308 1.378 . S
C310 C311 1.367 . S
C311 C310 1.367 . S
C311 C313 1.433 1_565 S
C312 C308 1.350 1_545 S
C312 C309 1.463 . S
C312 N316 1.427 . S
C313 H303 0.929 . S
C313 C311 1.433 1_545 S
C313 N316 1.384 . S
C314 H305 0.929 . S
C314 C306 1.378 . S
C314 C309 1.350 . S
C315 H302 0.929 . S
C315 C307 1.433 . S
C315 N317 1.384 . S
N316 C312 1.427 . S
N316 C313 1.384 . S
N317 C309 1.427 . S
N317 C315 1.384 . S
H318 C324 0.930 . S
H319 C328 0.930 . S
H320 C333 0.929 . S
H321 C331 0.929 . S
H322 C326 0.929 . S
H323 C332 0.929 . S
C324 H318 0.930 . S
C324 C325 1.367 . S
C324 C332 1.378 . S
C325 C324 1.367 . S
C325 C333 1.433 . S
C326 H322 0.929 . S
C326 C328 1.378 . S
C326 C330 1.350 . S
C327 C330 1.463 . S
C327 C332 1.350 . S
C327 N335 1.427 . S
C328 H319 0.930 . S
C328 C326 1.378 . S
C328 C329 1.367 . S
C329 C328 1.367 . S
C329 C331 1.433 . S
C330 C326 1.350 . S
C330 C327 1.463 . S
C330 N334 1.427 . S
C331 H321 0.929 . S
C331 C329 1.433 . S
C331 N334 1.384 . S
C332 H323 0.929 . S
C332 C324 1.378 . S
C332 C327 1.350 . S
C333 H320 0.929 . S
C333 C325 1.433 . S
C333 N335 1.384 . S
N334 C330 1.427 . S
N334 C331 1.384 . S
N335 C327 1.427 . S
N335 C333 1.384 . S
H336 C342 0.930 . S
H337 C346 0.930 . S
H338 C351 0.929 . S
H339 C349 0.929 . S
H340 C344 0.929 . S
H341 C350 0.929 . S
C342 H336 0.930 . S
C342 C343 1.367 . S
C342 C350 1.378 . S
C343 C342 1.367 . S
C343 C351 1.433 . S
C344 H340 0.929 . S
C344 C346 1.378 . S
C344 C348 1.350 . S
C345 C348 1.463 . S
C345 C350 1.350 . S
C345 N353 1.427 . S
C346 H337 0.930 . S
C346 C344 1.378 . S
C346 C347 1.367 1_655 S
C347 C346 1.367 1_455 S
C347 C349 1.433 . S
C348 C344 1.350 . S
C348 C345 1.463 . S
C348 N352 1.427 . S
C349 H339 0.929 . S
C349 C347 1.433 . S
C349 N352 1.384 1_455 S
C350 H341 0.929 . S
C350 C342 1.378 . S
C350 C345 1.350 . S
C351 H338 0.929 . S
C351 C343 1.433 . S
C351 N353 1.384 . S
N352 C348 1.427 . S
N352 C349 1.384 1_655 S
N353 C345 1.427 . S
N353 C351 1.384 . S
H354 C360 0.930 . S
H355 C364 0.930 . S
H356 C369 0.929 . S
H357 C367 0.929 . S
H358 C362 0.929 . S
H359 C368 0.929 . S
C360 H354 0.930 . S
C360 C361 1.367 . S
C360 C368 1.378 . S
C361 C360 1.367 . S
C361 C369 1.433 . S
C362 H358 0.929 . S
C362 C364 1.378 . S
C362 C366 1.350 1_545 S
C363 C366 1.463 . S
C363 C368 1.350 . S
C363 N371 1.427 . S
C364 H355 0.930 . S
C364 C362 1.378 . S
C364 C365 1.367 . S
C365 C364 1.367 . S
C365 C367 1.433 1_545 S
C366 C362 1.350 1_565 S
C366 C363 1.463 . S
C366 N370 1.427 . S
C367 H357 0.929 . S
C367 C365 1.433 1_565 S
C367 N370 1.384 . S
C368 H359 0.929 . S
C368 C360 1.378 . S
C368 C363 1.350 . S
C369 H356 0.929 . S
C369 C361 1.433 . S
C369 N371 1.384 . S
N370 C366 1.427 . S
N370 C367 1.384 . S
N371 C363 1.427 . S
N371 C369 1.384 . S
H372 C378 0.930 . S
H373 C382 0.930 . S
H374 C387 0.929 . S
H375 C385 0.929 . S
H376 C380 0.929 . S
H377 C386 0.929 . S
C378 H372 0.930 . S
C378 C379 1.367 . S
C378 C386 1.378 . S
C379 C378 1.367 . S
C379 C387 1.433 . S
C380 H376 0.929 . S
C380 C382 1.378 . S
C380 C384 1.350 . S
C381 C384 1.463 . S
C381 C386 1.350 . S
C381 N389 1.427 . S
C382 H373 0.930 . S
C382 C380 1.378 . S
C382 C383 1.367 . S
C383 C382 1.367 . S
C383 C385 1.433 . S
C384 C380 1.350 . S
C384 C381 1.463 . S
C384 N388 1.427 . S
C385 H375 0.929 . S
C385 C383 1.433 . S
C385 N388 1.384 . S
C386 H377 0.929 . S
C386 C378 1.378 . S
C386 C381 1.350 . S
C387 H374 0.929 . S
C387 C379 1.433 . S
C387 N389 1.384 . S
N388 C384 1.427 . S
N388 C385 1.384 . S
N389 C381 1.427 . S
N389 C387 1.384 . S
H390 C396 0.930 . S
H391 C400 0.930 . S
H392 C405 0.929 . S
H393 C403 0.929 . S
H394 C398 0.925 1_556 S
H395 C404 0.929 . S
C396 H390 0.930 . S
C396 C397 1.367 . S
C396 C404 1.378 . S
C397 C396 1.367 . S
C397 C405 1.433 1_655 S
C398 H394 0.925 1_554 S
C398 C400 1.382 . S
C398 C402 1.349 1_554 S
C399 C402 1.464 . S
C399 C404 1.350 1_455 S
C399 N407 1.427 . S
C400 H391 0.930 . S
C400 C398 1.382 . S
C400 C401 1.367 . S
C401 C400 1.367 . S
C401 C403 1.433 . S
C402 C398 1.349 1_556 S
C402 C399 1.464 . S
C402 N406 1.426 1_556 S
C403 H393 0.929 . S
C403 C401 1.433 . S
C403 N406 1.384 . S
C404 H395 0.929 . S
C404 C396 1.378 . S
C404 C399 1.350 1_655 S
C405 H392 0.929 . S
C405 C397 1.433 1_455 S
C405 N407 1.384 . S
N406 C402 1.426 1_554 S
N406 C403 1.384 . S
N407 C399 1.427 . S
N407 C405 1.384 . S
H408 C414 0.930 . S
H409 C418 0.930 . S
H410 C423 0.929 . S
H411 C421 0.929 . S
H412 C416 0.929 . S
H413 C422 0.929 . S
C414 H408 0.930 . S
C414 C415 1.367 1_545 S
C414 C422 1.378 . S
C415 C414 1.367 1_565 S
C415 C423 1.433 . S
C416 H412 0.929 . S
C416 C418 1.378 . S
C416 C420 1.350 . S
C417 C420 1.463 . S
C417 C422 1.350 . S
C417 N425 1.427 1_545 S
C418 H409 0.930 . S
C418 C416 1.378 . S
C418 C419 1.367 . S
C419 C418 1.367 . S
C419 C421 1.433 . S
C420 C416 1.350 . S
C420 C417 1.463 . S
C420 N424 1.427 . S
C421 H411 0.929 . S
C421 C419 1.433 . S
C421 N424 1.384 . S
C422 H413 0.929 . S
C422 C414 1.378 . S
C422 C417 1.350 . S
C423 H410 0.929 . S
C423 C415 1.433 . S
C423 N425 1.384 . S
N424 C420 1.427 . S
N424 C421 1.384 . S
N425 C417 1.427 1_565 S
N425 C423 1.384 . S
H426 C432 0.930 . S
H427 C436 0.930 . S
H428 C441 0.929 . S
H429 C439 0.929 . S
H430 C434 0.929 . S
H431 C440 0.929 . S
C432 H426 0.930 . S
C432 C433 1.367 . S
C432 C440 1.378 . S
C433 C432 1.367 . S
C433 C441 1.433 . S
C434 H430 0.929 . S
C434 C436 1.378 . S
C434 C438 1.350 . S
C435 C438 1.463 . S
C435 C440 1.350 . S
C435 N443 1.427 . S
C436 H427 0.930 . S
C436 C434 1.378 . S
C436 C437 1.367 . S
C437 C436 1.367 . S
C437 C439 1.433 . S
C438 C434 1.350 . S
C438 C435 1.463 . S
C438 N442 1.427 . S
C439 H429 0.929 . S
C439 C437 1.433 . S
C439 N442 1.384 . S
C440 H431 0.929 . S
C440 C432 1.378 . S
C440 C435 1.350 . S
C441 H428 0.929 . S
C441 C433 1.433 . S
C441 N443 1.384 . S
N442 C438 1.427 . S
N442 C439 1.384 . S
N443 C435 1.427 . S
N443 C441 1.384 . S
H444 C450 0.930 . S
H445 C454 0.930 . S
H446 C459 0.929 . S
H447 C457 0.929 . S
H448 C452 0.929 . S
H449 C458 0.929 . S
C450 H444 0.930 . S
C450 C451 1.367 1_655 S
C450 C458 1.378 . S
C451 C450 1.367 1_455 S
C451 C459 1.433 . S
C452 H448 0.929 . S
C452 C454 1.378 . S
C452 C456 1.350 . S
C453 C456 1.463 . S
C453 C458 1.350 . S
C453 N461 1.427 1_655 S
C454 H445 0.930 . S
C454 C452 1.378 . S
C454 C455 1.367 . S
C455 C454 1.367 . S
C455 C457 1.433 . S
C456 C452 1.350 . S
C456 C453 1.463 . S
C456 N460 1.427 . S
C457 H447 0.929 . S
C457 C455 1.433 . S
C457 N460 1.384 . S
C458 H449 0.929 . S
C458 C450 1.378 . S
C458 C453 1.350 . S
C459 H446 0.929 . S
C459 C451 1.433 . S
C459 N461 1.384 . S
N460 C456 1.427 . S
N460 C457 1.384 . S
N461 C453 1.427 1_455 S
N461 C459 1.384 . S
H462 C468 0.930 . S
H463 C472 0.930 . S
H464 C477 0.929 . S
H465 C475 0.929 . S
H466 C470 0.929 . S
H467 C476 0.929 . S
C468 H462 0.930 . S
C468 C469 1.367 . S
C468 C476 1.378 1_545 S
C469 C468 1.367 . S
C469 C477 1.433 . S
C470 H466 0.929 . S
C470 C472 1.378 . S
C470 C474 1.350 . S
C471 C474 1.463 . S
C471 C476 1.350 . S
C471 N479 1.427 . S
C472 H463 0.930 . S
C472 C470 1.378 . S
C472 C473 1.367 . S
C473 C472 1.367 . S
C473 C475 1.433 . S
C474 C470 1.350 . S
C474 C471 1.463 . S
C474 N478 1.427 . S
C475 H465 0.929 . S
C475 C473 1.433 . S
C475 N478 1.384 . S
C476 H467 0.929 . S
C476 C468 1.378 1_565 S
C476 C471 1.350 . S
C477 H464 0.929 . S
C477 C469 1.433 . S
C477 N479 1.384 1_545 S
N478 C474 1.427 . S
N478 C475 1.384 . S
N479 C471 1.427 . S
N479 C477 1.384 1_565 S
H480 C486 0.930 . S
H481 C490 0.930 . S
H482 C495 0.929 . S
H483 C493 0.929 . S
H484 C488 0.929 . S
H485 C494 0.929 . S
C486 H480 0.930 . S
C486 C487 1.367 . S
C486 C494 1.378 . S
C487 C486 1.367 . S
C487 C495 1.433 . S
C488 H484 0.929 . S
C488 C490 1.378 . S
C488 C492 1.350 . S
C489 C492 1.463 . S
C489 C494 1.350 . S
C489 N497 1.427 . S
C490 H481 0.930 . S
C490 C488 1.378 . S
C490 C491 1.367 . S
C491 C490 1.367 . S
C491 C493 1.433 . S
C492 C488 1.350 . S
C492 C489 1.463 . S
C492 N496 1.427 . S
C493 H483 0.929 . S
C493 C491 1.433 . S
C493 N496 1.384 . S
C494 H485 0.929 . S
C494 C486 1.378 . S
C494 C489 1.350 . S
C495 H482 0.929 . S
C495 C487 1.433 . S
C495 N497 1.384 . S
N496 C492 1.427 . S
N496 C493 1.384 . S
N497 C489 1.427 . S
N497 C495 1.384 . S
H498 C504 0.930 . S
H499 C508 0.930 . S
H500 C513 0.929 . S
H501 C511 0.929 1_655 S
H502 C506 0.929 . S
H503 C512 0.929 . S
C504 H498 0.930 . S
C504 C505 1.367 . S
C504 C512 1.378 . S
C505 C504 1.367 . S
C505 C513 1.433 . S
C506 H502 0.929 . S
C506 C508 1.378 . S
C506 C510 1.350 . S
C507 C510 1.463 1_655 S
C507 C512 1.350 . S
C507 N515 1.427 . S
C508 H499 0.930 . S
C508 C506 1.378 . S
C508 C509 1.367 . S
C509 C508 1.367 . S
C509 C511 1.438 . S
C510 C506 1.350 . S
C510 C507 1.463 1_455 S
C510 N514 1.427 1_455 S
C511 H501 0.929 1_455 S
C511 C509 1.438 . S
C511 N514 1.379 1_455 S
C512 H503 0.929 . S
C512 C504 1.378 . S
C512 C507 1.350 . S
C513 H500 0.929 . S
C513 C505 1.433 . S
C513 N515 1.384 . S
N514 C510 1.427 1_655 S
N514 C511 1.379 1_655 S
N515 C507 1.427 . S
N515 C513 1.384 . S
H516 C522 0.930 . S
H517 C526 0.930 . S
H518 C531 0.927 1_565 S
H519 C529 0.929 . S
H520 C524 0.929 . S
H521 C530 0.929 . S
C522 H516 0.930 . S
C522 C523 1.367 . S
C522 C530 1.378 . S
C523 C522 1.367 . S
C523 C531 1.436 . S
C524 H520 0.929 . S
C524 C526 1.378 . S
C524 C528 1.350 . S
C525 C528 1.463 1_545 S
C525 C530 1.350 . S
C525 N533 1.427 1_545 S
C526 H517 0.930 . S
C526 C524 1.378 . S
C526 C527 1.367 . S
C527 C526 1.367 . S
C527 C529 1.433 . S
C528 C524 1.350 . S
C528 C525 1.463 1_565 S
C528 N532 1.427 . S
C529 H519 0.929 . S
C529 C527 1.433 . S
C529 N532 1.384 . S
C530 H521 0.929 . S
C530 C522 1.378 . S
C530 C525 1.350 . S
C531 H518 0.927 1_545 S
C531 C523 1.436 . S
C531 N533 1.383 1_545 S
N532 C528 1.427 . S
N532 C529 1.384 . S
N533 C525 1.427 1_565 S
N533 C531 1.383 1_565 S
H534 C540 0.930 . S
H535 C544 0.930 . S
H536 C549 0.929 . S
H537 C547 0.929 . S
H538 C542 0.929 . S
H539 C548 0.929 . S
C540 H534 0.930 . S
C540 C541 1.367 . S
C540 C548 1.378 . S
C541 C540 1.367 . S
C541 C549 1.433 . S
C542 H538 0.929 . S
C542 C544 1.378 . S
C542 C546 1.350 . S
C543 C546 1.463 . S
C543 C548 1.350 . S
C543 N551 1.427 . S
C544 H535 0.930 . S
C544 C542 1.378 . S
C544 C545 1.367 . S
C545 C544 1.367 . S
C545 C547 1.433 . S
C546 C542 1.350 . S
C546 C543 1.463 . S
C546 N550 1.427 . S
C547 H537 0.929 . S
C547 C545 1.433 . S
C547 N550 1.384 . S
C548 H539 0.929 . S
C548 C540 1.378 . S
C548 C543 1.350 . S
C549 H536 0.929 . S
C549 C541 1.433 . S
C549 N551 1.384 . S
N550 C546 1.427 . S
N550 C547 1.384 . S
N551 C543 1.427 . S
N551 C549 1.384 . S
H552 C558 0.930 . S
H553 C562 0.930 . S
H554 C567 0.929 . S
H555 C565 0.928 1_655 S
H556 C560 0.929 . S
H557 C566 0.929 . S
C558 H552 0.930 . S
C558 C559 1.367 . S
C558 C566 1.378 . S
C559 C558 1.367 . S
C559 C567 1.433 1_655 S
C560 H556 0.929 . S
C560 C562 1.378 . S
C560 C564 1.350 . S
C561 C564 1.463 1_655 S
C561 C566 1.350 . S
C561 N569 1.427 1_655 S
C562 H553 0.930 . S
C562 C560 1.378 . S
C562 C563 1.367 . S
C563 C562 1.367 . S
C563 C565 1.433 . S
C564 C560 1.350 . S
C564 C561 1.463 1_455 S
C564 N568 1.427 1_455 S
C565 H555 0.928 1_455 S
C565 C563 1.433 . S
C565 N568 1.384 1_455 S
C566 H557 0.929 . S
C566 C558 1.378 . S
C566 C561 1.350 . S
C567 H554 0.929 . S
C567 C559 1.433 1_455 S
C567 N569 1.384 . S
N568 C564 1.427 1_655 S
N568 C565 1.384 1_655 S
N569 C561 1.427 1_455 S
N569 C567 1.384 . S
H570 C576 0.930 . S
H571 C580 0.930 . S
H572 C585 0.929 . S
H573 C583 0.929 . S
H574 C578 0.929 . S
H575 C584 0.929 . S
C576 H570 0.930 . S
C576 C577 1.367 . S
C576 C584 1.378 . S
C577 C576 1.367 . S
C577 C585 1.433 . S
C578 H574 0.929 . S
C578 C580 1.378 . S
C578 C582 1.350 . S
C579 C582 1.463 1_545 S
C579 C584 1.350 . S
C579 N587 1.427 1_545 S
C580 H571 0.930 . S
C580 C578 1.378 . S
C580 C581 1.367 . S
C581 C580 1.367 . S
C581 C583 1.433 1_565 S
C582 C578 1.350 . S
C582 C579 1.463 1_565 S
C582 N586 1.427 1_565 S
C583 H573 0.929 . S
C583 C581 1.433 1_545 S
C583 N586 1.384 . S
C584 H575 0.929 . S
C584 C576 1.378 . S
C584 C579 1.350 . S
C585 H572 0.929 . S
C585 C577 1.433 . S
C585 N587 1.382 1_545 S
N586 C582 1.427 1_545 S
N586 C583 1.384 . S
N587 C579 1.427 1_565 S
N587 C585 1.382 1_565 S
H588 C594 0.930 . S
H589 C598 0.930 . S
H590 C603 0.929 . S
H591 C601 0.929 . S
H592 C596 0.929 . S
H593 C602 0.929 . S
C594 H588 0.930 . S
C594 C595 1.367 . S
C594 C602 1.378 . S
C595 C594 1.367 . S
C595 C603 1.433 . S
C596 H592 0.929 . S
C596 C598 1.378 . S
C596 C600 1.350 . S
C597 C600 1.463 . S
C597 C602 1.350 . S
C597 N605 1.427 . S
C598 H589 0.930 . S
C598 C596 1.378 . S
C598 C599 1.367 . S
C599 C598 1.367 . S
C599 C601 1.433 . S
C600 C596 1.350 . S
C600 C597 1.463 . S
C600 N604 1.427 . S
C601 H591 0.929 . S
C601 C599 1.433 . S
C601 N604 1.384 . S
C602 H593 0.929 . S
C602 C594 1.378 . S
C602 C597 1.350 . S
C603 H590 0.929 . S
C603 C595 1.433 . S
C603 N605 1.384 . S
N604 C600 1.427 . S
N604 C601 1.384 . S
N605 C597 1.427 . S
N605 C603 1.384 . S
H606 C612 0.930 . S
H607 C616 0.930 . S
H608 C621 0.929 1_455 S
H609 C619 0.929 . S
H610 C614 0.929 . S
H611 C620 0.929 . S
C612 H606 0.930 . S
C612 C613 1.367 . S
C612 C620 1.378 . S
C613 C612 1.367 . S
C613 C621 1.433 . S
C614 H610 0.929 . S
C614 C616 1.378 . S
C614 C618 1.350 . S
C615 C618 1.463 1_655 S
C615 C620 1.350 . S
C615 N623 1.427 1_655 S
C616 H607 0.930 . S
C616 C614 1.378 . S
C616 C617 1.367 . S
C617 C616 1.367 . S
C617 C619 1.433 1_455 S
C618 C614 1.350 . S
C618 C615 1.463 1_455 S
C618 N622 1.427 1_455 S
C619 H609 0.929 . S
C619 C617 1.433 1_655 S
C619 N622 1.384 . S
C620 H611 0.929 . S
C620 C612 1.378 . S
C620 C615 1.350 . S
C621 H608 0.929 1_655 S
C621 C613 1.433 . S
C621 N623 1.384 1_655 S
N622 C618 1.427 1_655 S
N622 C619 1.384 . S
N623 C615 1.427 1_455 S
N623 C621 1.384 1_455 S
H624 C630 0.930 . S
H625 C634 0.930 . S
H626 C639 0.929 . S
H627 C637 0.929 1_565 S
H628 C632 0.929 . S
H629 C638 0.929 . S
C630 H624 0.930 . S
C630 C631 1.367 . S
C630 C638 1.378 . S
C631 C630 1.367 . S
C631 C639 1.433 . S
C632 H628 0.929 . S
C632 C634 1.378 . S
C632 C636 1.350 . S
C633 C636 1.463 1_565 S
C633 C638 1.350 . S
C633 N641 1.427 . S
C634 H625 0.930 . S
C634 C632 1.378 . S
C634 C635 1.367 . S
C635 C634 1.367 . S
C635 C637 1.433 . S
C636 C632 1.350 . S
C636 C633 1.463 1_545 S
C636 N640 1.427 1_545 S
C637 H627 0.929 1_545 S
C637 C635 1.433 . S
C637 N640 1.384 1_545 S
C638 H629 0.929 . S
C638 C630 1.378 . S
C638 C633 1.350 . S
C639 H626 0.929 . S
C639 C631 1.433 . S
C639 N641 1.384 . S
N640 C636 1.427 1_565 S
N640 C637 1.384 1_565 S
N641 C633 1.427 . S
N641 C639 1.384 . S
H642 C648 0.930 . S
H643 C652 0.930 . S
H644 C657 0.929 . S
H645 C655 0.929 . S
H646 C650 0.929 . S
H647 C656 0.929 . S
C648 H642 0.930 . S
C648 C649 1.367 . S
C648 C656 1.378 . S
C649 C648 1.367 . S
C649 C657 1.433 . S
C650 H646 0.929 . S
C650 C652 1.378 . S
C650 C654 1.350 . S
C651 C654 1.463 . S
C651 C656 1.350 . S
C651 N659 1.427 . S
C652 H643 0.930 . S
C652 C650 1.378 . S
C652 C653 1.367 . S
C653 C652 1.367 . S
C653 C655 1.433 . S
C654 C650 1.350 . S
C654 C651 1.463 . S
C654 N658 1.427 . S
C655 H645 0.929 . S
C655 C653 1.433 . S
C655 N658 1.384 . S
C656 H647 0.929 . S
C656 C648 1.378 . S
C656 C651 1.350 . S
C657 H644 0.929 . S
C657 C649 1.433 . S
C657 N659 1.384 . S
N658 C654 1.427 . S
N658 C655 1.384 . S
N659 C651 1.427 . S
N659 C657 1.384 . S
H660 C666 0.930 . S
H661 C670 0.930 . S
H662 C675 0.929 . S
H663 C673 0.929 . S
H664 C668 0.929 . S
H665 C674 0.929 . S
C666 H660 0.930 . S
C666 C667 1.367 . S
C666 C674 1.378 . S
C667 C666 1.367 . S
C667 C675 1.433 . S
C668 H664 0.929 . S
C668 C670 1.378 1_455 S
C668 C672 1.355 . S
C669 C672 1.466 . S
C669 C674 1.350 . S
C669 N677 1.427 . S
C670 H661 0.930 . S
C670 C668 1.378 1_655 S
C670 C671 1.367 . S
C671 C670 1.367 . S
C671 C673 1.433 . S
C672 C668 1.355 . S
C672 C669 1.466 . S
C672 N676 1.418 1_455 S
C673 H663 0.929 . S
C673 C671 1.433 . S
C673 N676 1.384 . S
C674 H665 0.929 . S
C674 C666 1.378 . S
C674 C669 1.350 . S
C675 H662 0.929 . S
C675 C667 1.433 . S
C675 N677 1.384 . S
N676 C672 1.418 1_655 S
N676 C673 1.384 . S
N677 C669 1.427 . S
N677 C675 1.384 . S
H678 C684 0.930 . S
H679 C688 0.930 1_565 S
H680 C693 0.929 . S
H681 C691 0.929 . S
H682 C686 0.929 . S
H683 C692 0.929 . S
C684 H678 0.930 . S
C684 C685 1.367 1_545 S
C684 C692 1.378 . S
C685 C684 1.367 1_565 S
C685 C693 1.433 . S
C686 H682 0.929 . S
C686 C688 1.378 1_565 S
C686 C690 1.350 1_565 S
C687 C690 1.463 . S
C687 C692 1.350 . S
C687 N695 1.427 1_545 S
C688 H679 0.930 1_545 S
C688 C686 1.378 1_545 S
C688 C689 1.367 . S
C689 C688 1.367 . S
C689 C691 1.433 . S
C690 C686 1.350 1_545 S
C690 C687 1.463 . S
C690 N694 1.427 . S
C691 H681 0.929 . S
C691 C689 1.433 . S
C691 N694 1.384 . S
C692 H683 0.929 . S
C692 C684 1.378 . S
C692 C687 1.350 . S
C693 H680 0.929 . S
C693 C685 1.433 . S
C693 N695 1.384 . S
N694 C690 1.427 . S
N694 C691 1.384 . S
N695 C687 1.427 1_565 S
N695 C693 1.384 . S
H696 C702 0.930 . S
H697 C706 0.930 . S
H698 C711 0.929 . S
H699 C709 0.929 . S
H700 C704 0.929 . S
H701 C710 0.929 . S
C702 H696 0.930 . S
C702 C703 1.367 . S
C702 C710 1.378 . S
C703 C702 1.367 . S
C703 C711 1.433 . S
C704 H700 0.929 . S
C704 C706 1.378 . S
C704 C708 1.350 . S
C705 C708 1.463 . S
C705 C710 1.350 . S
C705 N713 1.427 . S
C706 H697 0.930 . S
C706 C704 1.378 . S
C706 C707 1.367 . S
C707 C706 1.367 . S
C707 C709 1.433 . S
C708 C704 1.350 . S
C708 C705 1.463 . S
C708 N712 1.427 . S
C709 H699 0.929 . S
C709 C707 1.433 . S
C709 N712 1.384 . S
C710 H701 0.929 . S
C710 C702 1.378 . S
C710 C705 1.350 . S
C711 H698 0.929 . S
C711 C703 1.433 . S
C711 N713 1.384 . S
N712 C708 1.427 . S
N712 C709 1.384 . S
N713 C705 1.427 . S
N713 C711 1.384 . S
H714 C720 0.930 . S
H715 C724 0.930 . S
H716 C729 0.929 1_655 S
H717 C727 0.929 . S
H718 C722 0.929 . S
H719 C728 0.929 . S
C720 H714 0.930 . S
C720 C721 1.367 . S
C720 C728 1.378 . S
C721 C720 1.367 . S
C721 C729 1.433 . S
C722 H718 0.929 . S
C722 C724 1.378 . S
C722 C726 1.350 . S
C723 C726 1.463 . S
C723 C728 1.350 . S
C723 N731 1.427 . S
C724 H715 0.930 . S
C724 C722 1.378 . S
C724 C725 1.367 . S
C725 C724 1.367 . S
C725 C727 1.433 . S
C726 C722 1.350 . S
C726 C723 1.463 . S
C726 N730 1.427 . S
C727 H717 0.929 . S
C727 C725 1.433 . S
C727 N730 1.384 . S
C728 H719 0.929 . S
C728 C720 1.378 . S
C728 C723 1.350 . S
C729 H716 0.929 1_455 S
C729 C721 1.433 . S
C729 N731 1.384 . S
N730 C726 1.427 . S
N730 C727 1.384 . S
N731 C723 1.427 . S
N731 C729 1.384 . S
H732 C738 0.930 1_565 S
H733 C742 0.930 . S
H734 C747 0.929 . S
H735 C745 0.929 . S
H736 C740 0.929 . S
H737 C746 0.929 . S
C738 H732 0.930 1_545 S
C738 C739 1.367 . S
C738 C746 1.378 . S
C739 C738 1.367 . S
C739 C747 1.433 . S
C740 H736 0.929 . S
C740 C742 1.378 . S
C740 C744 1.350 . S
C741 C744 1.463 . S
C741 C746 1.350 . S
C741 N749 1.427 . S
C742 H733 0.930 . S
C742 C740 1.378 . S
C742 C743 1.367 . S
C743 C742 1.367 . S
C743 C745 1.433 . S
C744 C740 1.350 . S
C744 C741 1.463 . S
C744 N748 1.427 . S
C745 H735 0.929 . S
C745 C743 1.433 . S
C745 N748 1.384 . S
C746 H737 0.929 . S
C746 C738 1.378 . S
C746 C741 1.350 . S
C747 H734 0.929 . S
C747 C739 1.433 . S
C747 N749 1.384 . S
N748 C744 1.427 . S
N748 C745 1.384 . S
N749 C741 1.427 . S
N749 C747 1.384 . S
H750 C756 0.930 . S
H751 C760 0.930 . S
H752 C765 0.929 . S
H753 C763 0.929 1_545 S
H754 C758 0.929 . S
H755 C764 0.929 . S
C756 H750 0.930 . S
C756 C757 1.367 . S
C756 C764 1.378 . S
C757 C756 1.367 . S
C757 C765 1.433 . S
C758 H754 0.929 . S
C758 C760 1.378 . S
C758 C762 1.350 . S
C759 C762 1.463 . S
C759 C764 1.350 . S
C759 N767 1.427 . S
C760 H751 0.930 . S
C760 C758 1.378 . S
C760 C761 1.367 . S
C761 C760 1.367 . S
C761 C763 1.433 . S
C762 C758 1.350 . S
C762 C759 1.463 . S
C762 N766 1.427 . S
C763 H753 0.929 1_565 S
C763 C761 1.433 . S
C763 N766 1.384 . S
C764 H755 0.929 . S
C764 C756 1.378 . S
C764 C759 1.350 . S
C765 H752 0.929 . S
C765 C757 1.433 . S
C765 N767 1.384 . S
N766 C762 1.427 . S
N766 C763 1.384 . S
N767 C759 1.427 . S
N767 C765 1.384 . S
H768 C774 0.930 . S
H769 C778 0.930 . S
H770 C783 0.929 . S
H771 C781 0.929 . S
H772 C776 0.929 . S
H773 C782 0.929 . S
C774 H768 0.930 . S
C774 C775 1.367 . S
C774 C782 1.378 . S
C775 C774 1.367 . S
C775 C783 1.433 . S
C776 H772 0.929 . S
C776 C778 1.378 . S
C776 C780 1.350 . S
C777 C780 1.463 . S
C777 C782 1.350 . S
C777 N785 1.427 . S
C778 H769 0.930 . S
C778 C776 1.378 . S
C778 C779 1.367 . S
C779 C778 1.367 . S
C779 C781 1.433 . S
C780 C776 1.350 . S
C780 C777 1.463 . S
C780 N784 1.427 . S
C781 H771 0.929 . S
C781 C779 1.433 . S
C781 N784 1.384 . S
C782 H773 0.929 . S
C782 C774 1.378 . S
C782 C777 1.350 . S
C783 H770 0.929 . S
C783 C775 1.433 . S
C783 N785 1.384 . S
N784 C780 1.427 . S
N784 C781 1.384 . S
N785 C777 1.427 . S
N785 C783 1.384 . S
H786 C792 0.930 . S
H787 C796 0.930 1_545 S
H788 C801 0.929 . S
H789 C799 0.929 . S
H790 C794 0.929 . S
H791 C800 0.929 . S
C792 H786 0.930 . S
C792 C793 1.367 . S
C792 C800 1.378 . S
C793 C792 1.367 . S
C793 C801 1.433 . S
C794 H790 0.929 . S
C794 C796 1.378 . S
C794 C798 1.350 . S
C795 C798 1.463 . S
C795 C800 1.350 . S
C795 N803 1.427 . S
C796 H787 0.930 1_565 S
C796 C794 1.378 . S
C796 C797 1.367 . S
C797 C796 1.367 . S
C797 C799 1.433 . S
C798 C794 1.350 . S
C798 C795 1.463 . S
C798 N802 1.427 . S
C799 H789 0.929 . S
C799 C797 1.433 . S
C799 N802 1.384 . S
C800 H791 0.929 . S
C800 C792 1.378 . S
C800 C795 1.350 . S
C801 H788 0.929 . S
C801 C793 1.433 . S
C801 N803 1.384 . S
N802 C798 1.427 . S
N802 C799 1.384 . S
N803 C795 1.427 . S
N803 C801 1.384 . S
H804 C810 0.930 . S
H805 C814 0.931 . S
H806 C819 0.929 . S
H807 C817 0.929 . S
H808 C812 0.929 . S
H809 C818 0.929 . S
C810 H804 0.930 . S
C810 C811 1.367 . S
C810 C818 1.378 . S
C811 C810 1.367 . S
C811 C819 1.433 1_554 S
C812 H808 0.929 . S
C812 C814 1.378 1_455 S
C812 C816 1.350 . S
C813 C816 1.463 1_544 S
C813 C818 1.350 . S
C813 N821 1.427 1_554 S
C814 H805 0.931 . S
C814 C812 1.378 1_655 S
C814 C815 1.367 . S
C815 C814 1.367 . S
C815 C817 1.433 1_556 S
C816 C812 1.350 . S
C816 C813 1.463 1_566 S
C816 N820 1.427 1_456 S
C817 H807 0.929 . S
C817 C815 1.433 1_554 S
C817 N820 1.384 . S
C818 H809 0.929 . S
C818 C810 1.378 . S
C818 C813 1.350 . S
C819 H806 0.929 . S
C819 C811 1.433 1_556 S
C819 N821 1.384 . S
N820 C816 1.427 1_654 S
N820 C817 1.384 . S
N821 C813 1.427 1_556 S
N821 C819 1.384 . S
H822 C828 0.930 . S
H823 C832 0.930 . S
H824 C837 0.929 . S
H825 C835 0.929 . S
H826 C830 0.929 . S
H827 C836 0.929 . S
C828 H822 0.930 . S
C828 C829 1.367 . S
C828 C836 1.378 . S
C829 C828 1.367 . S
C829 C837 1.433 . S
C830 H826 0.929 . S
C830 C832 1.390 . S
C830 C834 1.350 . S
C831 C834 1.463 . S
C831 C836 1.350 1_545 S
C831 N839 1.427 . S
C832 H823 0.930 . S
C832 C830 1.390 . S
C832 C833 1.355 1_455 S
C833 C832 1.355 1_655 S
C833 C835 1.433 . S
C834 C830 1.350 . S
C834 C831 1.463 . S
C834 N838 1.427 1_455 S
C835 H825 0.929 . S
C835 C833 1.433 . S
C835 N838 1.384 . S
C836 H827 0.929 . S
C836 C828 1.378 . S
C836 C831 1.350 1_565 S
C837 H824 0.929 . S
C837 C829 1.433 . S
C837 N839 1.384 1_565 S
N838 C834 1.427 1_655 S
N838 C835 1.384 . S
N839 C831 1.427 . S
N839 C837 1.384 1_545 S
H840 C846 0.930 . S
H841 C850 0.930 . S
H842 C855 0.929 . S
H843 C853 0.929 . S
H844 C848 0.929 . S
H845 C854 0.929 . S
C846 H840 0.930 . S
C846 C847 1.367 . S
C846 C854 1.378 . S
C847 C846 1.367 . S
C847 C855 1.433 . S
C848 H844 0.929 . S
C848 C850 1.378 . S
C848 C852 1.350 1_565 S
C849 C852 1.463 1_455 S
C849 C854 1.350 . S
C849 N857 1.427 . S
C850 H841 0.930 . S
C850 C848 1.378 . S
C850 C851 1.367 . S
C851 C850 1.367 . S
C851 C853 1.433 1_565 S
C852 C848 1.350 1_545 S
C852 C849 1.463 1_655 S
C852 N856 1.427 . S
C853 H843 0.929 . S
C853 C851 1.433 1_545 S
C853 N856 1.384 . S
C854 H845 0.929 . S
C854 C846 1.378 . S
C854 C849 1.350 . S
C855 H842 0.929 . S
C855 C847 1.433 . S
C855 N857 1.384 . S
N856 C852 1.427 . S
N856 C853 1.384 . S
N857 C849 1.427 . S
N857 C855 1.384 . S
H858 C864 0.930 . S
H859 C868 0.930 . S
H860 C873 0.929 . S
H861 C871 0.929 . S
H862 C866 0.929 . S
H863 C872 0.929 . S
C864 H858 0.930 . S
C864 C865 1.367 . S
C864 C872 1.378 . S
C865 C864 1.367 . S
C865 C873 1.433 . S
C866 H862 0.929 . S
C866 C868 1.378 . S
C866 C870 1.350 . S
C867 C870 1.463 1_545 S
C867 C872 1.350 1_655 S
C867 N875 1.427 . S
C868 H859 0.930 . S
C868 C866 1.378 . S
C868 C869 1.367 . S
C869 C868 1.367 . S
C869 C871 1.433 . S
C870 C866 1.350 . S
C870 C867 1.463 1_565 S
C870 N874 1.427 . S
C871 H861 0.929 . S
C871 C869 1.433 . S
C871 N874 1.384 . S
C872 H863 0.929 . S
C872 C864 1.378 . S
C872 C867 1.350 1_455 S
C873 H860 0.929 . S
C873 C865 1.433 . S
C873 N875 1.384 1_455 S
N874 C870 1.427 . S
N874 C871 1.384 . S
N875 C867 1.427 . S
N875 C873 1.384 1_655 S
H876 C882 0.930 . S
H877 C886 0.930 . S
H878 C891 0.929 . S
H879 C889 0.929 . S
H880 C884 0.929 1_565 S
H881 C890 0.929 . S
C882 H876 0.930 . S
C882 C883 1.367 . S
C882 C890 1.378 . S
C883 C882 1.367 . S
C883 C891 1.433 . S
C884 H880 0.929 1_545 S
C884 C886 1.378 . S
C884 C888 1.350 1_545 S
C885 C888 1.463 . S
C885 C890 1.350 1_655 S
C885 N893 1.427 . S
C886 H877 0.930 . S
C886 C884 1.378 . S
C886 C887 1.367 . S
C887 C886 1.367 . S
C887 C889 1.433 . S
C888 C884 1.350 1_565 S
C888 C885 1.463 . S
C888 N892 1.427 . S
C889 H879 0.929 . S
C889 C887 1.433 . S
C889 N892 1.384 1_545 S
C890 H881 0.929 . S
C890 C882 1.378 . S
C890 C885 1.350 1_455 S
C891 H878 0.929 . S
C891 C883 1.433 . S
C891 N893 1.384 1_455 S
N892 C888 1.427 . S
N892 C889 1.384 1_565 S
N893 C885 1.427 . S
N893 C891 1.384 1_655 S
H894 C900 0.930 . S
H895 C904 0.930 . S
H896 C909 0.929 . S
H897 C907 0.929 . S
H898 C902 0.929 . S
H899 C908 0.929 . S
C900 H894 0.930 . S
C900 C901 1.367 . S
C900 C908 1.378 1_545 S
C901 C900 1.367 . S
C901 C909 1.433 . S
C902 H898 0.929 . S
C902 C904 1.378 . S
C902 C906 1.350 . S
C903 C906 1.463 1_455 S
C903 C908 1.350 . S
C903 N911 1.427 1_565 S
C904 H895 0.930 . S
C904 C902 1.378 . S
C904 C905 1.367 . S
C905 C904 1.367 . S
C905 C907 1.433 . S
C906 C902 1.350 . S
C906 C903 1.463 1_655 S
C906 N910 1.427 . S
C907 H897 0.929 . S
C907 C905 1.433 . S
C907 N910 1.384 . S
C908 H899 0.929 . S
C908 C900 1.378 1_565 S
C908 C903 1.350 . S
C909 H896 0.929 . S
C909 C901 1.433 . S
C909 N911 1.384 . S
N910 C906 1.427 . S
N910 C907 1.384 . S
N911 C903 1.427 1_545 S
N911 C909 1.384 . S
C271 C163 1.838 . S
C275 C8 1.901 . S
C289 C185 1.844 . S
C293 C26 1.905 . S
C307 C207 1.840 . S
C311 C52 1.903 . S
C325 C229 1.836 . S
C329 C70 1.900 . S
C343 C247 1.836 . S
C347 C96 1.900 . S
C361 C141 1.843 . S
C365 C114 1.905 . S
C379 C140 1.896 . S
C383 C115 1.831 . S
C397 C162 1.904 . S
C401 C9 1.842 . S
C415 C184 1.894 . S
C419 C27 1.828 . S
C433 C206 1.904 . S
C437 C53 1.842 . S
C451 C228 1.894 . S
C455 C71 1.828 . S
C469 C246 1.902 . S
C473 C97 1.839 . S
C487 C7 1.429 . S
C491 C117 1.465 . S
C505 C28 1.428 . S
C509 C6 1.466 . S
C523 C29 1.465 . S
C527 C51 1.428 . S
C541 C50 1.471 . S
C545 C72 1.418 . S
C559 C73 1.465 . S
C563 C95 1.430 . S
C577 C116 1.435 . S
C581 C94 1.468 . S
C595 C139 1.431 . S
C599 C160 1.465 . S
C613 C161 1.434 . S
C617 C182 1.466 . S
C631 C183 1.436 . S
C635 C204 1.469 . S
C649 C205 1.429 . S
C653 C226 1.465 . S
C667 C227 1.430 . S
C671 C249 1.473 . S
C685 C138 1.475 . S
C689 C248 1.423 . S
C703 C180 1.346 1_545 S
C707 C4 1.345 . S
C721 C30 1.342 1_455 S
C725 C202 1.342 . S
C739 C48 1.344 1_545 S
C743 C224 1.345 1_655 S
C757 C74 1.342 . S
C761 C250 1.342 1_565 S
C775 C92 1.346 1_655 S
C779 C136 1.345 . S
C793 C158 1.346 1_455 S
C797 C118 1.346 1_565 S
C811 C5 0.452 . S
C815 C159 0.449 . S
C829 C181 0.451 . S
C833 C31 0.447 . S
C847 C203 0.411 . S
C851 C49 0.420 . S
C865 C225 0.451 . S
C869 C75 0.447 . S
C883 C93 0.401 . S
C887 C251 0.400 . S
C901 C119 0.400 . S
C905 C137 0.403 . S
