# Generated by pormake.
# Topology wnd, (6)-cn, num edge types: 1
# Building blocks:
#     Node 0, Type 0, BuildingBlock: CUKXOW_clean_sbu_0, # of connection points: 6
#     Node 1, Type 0, BuildingBlock: CUKXOW_clean_sbu_0, # of connection points: 6
#     Node 2, Type 0, BuildingBlock: CUKXOW_clean_sbu_0, # of connection points: 6
#     Node 3, Type 0, BuildingBlock: CUKXOW_clean_sbu_0, # of connection points: 6
#     Node 4, Type 0, BuildingBlock: CUKXOW_clean_sbu_0, # of connection points: 6
#     Node 5, Type 0, BuildingBlock: CUKXOW_clean_sbu_0, # of connection points: 6
#     Node 6, Type 0, BuildingBlock: CUKXOW_clean_sbu_0, # of connection points: 6
#     Node 7, Type 0, BuildingBlock: CUKXOW_clean_sbu_0, # of connection points: 6
#     Node 8, Type 0, BuildingBlock: CUKXOW_clean_sbu_0, # of connection points: 6
#     Node 9, Type 0, BuildingBlock: CUKXOW_clean_sbu_0, # of connection points: 6
#     Node 10, Type 0, BuildingBlock: CUKXOW_clean_sbu_0, # of connection points: 6
#     Node 11, Type 0, BuildingBlock: CUKXOW_clean_sbu_0, # of connection points: 6
#     Node 12, Type 0, BuildingBlock: CUKXOW_clean_sbu_0, # of connection points: 6
#     Node 13, Type 0, BuildingBlock: CUKXOW_clean_sbu_0, # of connection points: 6
#     Node 14, Type 0, BuildingBlock: CUKXOW_clean_sbu_0, # of connection points: 6
#     Node 15, Type 0, BuildingBlock: CUKXOW_clean_sbu_0, # of connection points: 6
#     Node 16, Type 0, BuildingBlock: CUKXOW_clean_sbu_0, # of connection points: 6
#     Node 17, Type 0, BuildingBlock: CUKXOW_clean_sbu_0, # of connection points: 6
#     Node 18, Type 0, BuildingBlock: CUKXOW_clean_sbu_0, # of connection points: 6
#     Node 19, Type 0, BuildingBlock: CUKXOW_clean_sbu_0, # of connection points: 6
#     Node 20, Type 0, BuildingBlock: CUKXOW_clean_sbu_0, # of connection points: 6
#     Node 21, Type 0, BuildingBlock: CUKXOW_clean_sbu_0, # of connection points: 6
#     Node 22, Type 0, BuildingBlock: CUKXOW_clean_sbu_0, # of connection points: 6
#     Node 23, Type 0, BuildingBlock: CUKXOW_clean_sbu_0, # of connection points: 6
#     Node 24, Type 0, BuildingBlock: CUKXOW_clean_sbu_0, # of connection points: 6
#     Node 25, Type 0, BuildingBlock: CUKXOW_clean_sbu_0, # of connection points: 6
#     Node 26, Type 0, BuildingBlock: CUKXOW_clean_sbu_0, # of connection points: 6
#     Node 27, Type 0, BuildingBlock: CUKXOW_clean_sbu_0, # of connection points: 6
#     Node 28, Type 0, BuildingBlock: CUKXOW_clean_sbu_0, # of connection points: 6
#     Node 29, Type 0, BuildingBlock: CUKXOW_clean_sbu_0, # of connection points: 6
#     Node 30, Type 0, BuildingBlock: CUKXOW_clean_sbu_0, # of connection points: 6
#     Node 31, Type 0, BuildingBlock: CUKXOW_clean_sbu_0, # of connection points: 6
#     Node 32, Type 0, BuildingBlock: CUKXOW_clean_sbu_0, # of connection points: 6
#     Node 33, Type 0, BuildingBlock: CUKXOW_clean_sbu_0, # of connection points: 6
#     Node 34, Type 0, BuildingBlock: CUKXOW_clean_sbu_0, # of connection points: 6
#     Node 35, Type 0, BuildingBlock: CUKXOW_clean_sbu_0, # of connection points: 6
#     Edge 36, Type (0, 0), None
#     Edge 37, Type (0, 0), None
#     Edge 38, Type (0, 0), None
#     Edge 39, Type (0, 0), None
#     Edge 40, Type (0, 0), None
#     Edge 41, Type (0, 0), None
#     Edge 42, Type (0, 0), None
#     Edge 43, Type (0, 0), None
#     Edge 44, Type (0, 0), None
#     Edge 45, Type (0, 0), None
#     Edge 46, Type (0, 0), None
#     Edge 47, Type (0, 0), None
#     Edge 48, Type (0, 0), None
#     Edge 49, Type (0, 0), None
#     Edge 50, Type (0, 0), None
#     Edge 51, Type (0, 0), None
#     Edge 52, Type (0, 0), None
#     Edge 53, Type (0, 0), None
#     Edge 54, Type (0, 0), None
#     Edge 55, Type (0, 0), None
#     Edge 56, Type (0, 0), None
#     Edge 57, Type (0, 0), None
#     Edge 58, Type (0, 0), None
#     Edge 59, Type (0, 0), None
#     Edge 60, Type (0, 0), None
#     Edge 61, Type (0, 0), None
#     Edge 62, Type (0, 0), None
#     Edge 63, Type (0, 0), None
#     Edge 64, Type (0, 0), None
#     Edge 65, Type (0, 0), None
#     Edge 66, Type (0, 0), None
#     Edge 67, Type (0, 0), None
#     Edge 68, Type (0, 0), None
#     Edge 69, Type (0, 0), None
#     Edge 70, Type (0, 0), None
#     Edge 71, Type (0, 0), None
#     Edge 72, Type (0, 0), None
#     Edge 73, Type (0, 0), None
#     Edge 74, Type (0, 0), None
#     Edge 75, Type (0, 0), None
#     Edge 76, Type (0, 0), None
#     Edge 77, Type (0, 0), None
#     Edge 78, Type (0, 0), None
#     Edge 79, Type (0, 0), None
#     Edge 80, Type (0, 0), None
#     Edge 81, Type (0, 0), None
#     Edge 82, Type (0, 0), None
#     Edge 83, Type (0, 0), None
#     Edge 84, Type (0, 0), None
#     Edge 85, Type (0, 0), None
#     Edge 86, Type (0, 0), None
#     Edge 87, Type (0, 0), None
#     Edge 88, Type (0, 0), None
#     Edge 89, Type (0, 0), None
#     Edge 90, Type (0, 0), None
#     Edge 91, Type (0, 0), None
#     Edge 92, Type (0, 0), None
#     Edge 93, Type (0, 0), None
#     Edge 94, Type (0, 0), None
#     Edge 95, Type (0, 0), None
#     Edge 96, Type (0, 0), None
#     Edge 97, Type (0, 0), None
#     Edge 98, Type (0, 0), None
#     Edge 99, Type (0, 0), None
#     Edge 100, Type (0, 0), None
#     Edge 101, Type (0, 0), None
#     Edge 102, Type (0, 0), None
#     Edge 103, Type (0, 0), None
#     Edge 104, Type (0, 0), None
#     Edge 105, Type (0, 0), None
#     Edge 106, Type (0, 0), None
#     Edge 107, Type (0, 0), None
#     Edge 108, Type (0, 0), None
#     Edge 109, Type (0, 0), None
#     Edge 110, Type (0, 0), None
#     Edge 111, Type (0, 0), None
#     Edge 112, Type (0, 0), None
#     Edge 113, Type (0, 0), None
#     Edge 114, Type (0, 0), None
#     Edge 115, Type (0, 0), None
#     Edge 116, Type (0, 0), None
#     Edge 117, Type (0, 0), None
#     Edge 118, Type (0, 0), None
#     Edge 119, Type (0, 0), None
#     Edge 120, Type (0, 0), None
#     Edge 121, Type (0, 0), None
#     Edge 122, Type (0, 0), None
#     Edge 123, Type (0, 0), None
#     Edge 124, Type (0, 0), None
#     Edge 125, Type (0, 0), None
#     Edge 126, Type (0, 0), None
#     Edge 127, Type (0, 0), None
#     Edge 128, Type (0, 0), None
#     Edge 129, Type (0, 0), None
#     Edge 130, Type (0, 0), None
#     Edge 131, Type (0, 0), None
#     Edge 132, Type (0, 0), None
#     Edge 133, Type (0, 0), None
#     Edge 134, Type (0, 0), None
#     Edge 135, Type (0, 0), None
#     Edge 136, Type (0, 0), None
#     Edge 137, Type (0, 0), None
#     Edge 138, Type (0, 0), None
#     Edge 139, Type (0, 0), None
#     Edge 140, Type (0, 0), None
#     Edge 141, Type (0, 0), None
#     Edge 142, Type (0, 0), None
#     Edge 143, Type (0, 0), None
# Relax obj value: 0.052
# Max RMSD: 0.151
# Mean RMSD: 0.151
data_MOF--net-wnd--node1-CUKXOW_clean_sbu_0--edge1-none
_symmetry_space_group_name_H-M    P1
_symmetry_Int_Tables_number       1
_symmetry_cell_setting            triclinic
loop_
_symmetry_equiv_pos_as_xyz
'x, y, z'
_cell_length_a     15.254754
_cell_length_b     15.255153
_cell_length_c     77.728017
_cell_angle_alpha  89.998741
_cell_angle_beta   90.001177
_cell_angle_gamma 120.00224
loop_
_atom_site_label
_atom_site_type_symbol
_atom_site_fract_x
_atom_site_fract_y
_atom_site_fract_z
_atom_type_partial_charge
Tb0 Tb 0.66071 0.14704 0.04185 0.0
C1 C 0.56798 0.05846 0.00564 0.0
Tb2 Tb 0.43897 0.98218 0.0402 0.0
O3 O 0.70257 0.03809 0.03344 0.0
O4 O 0.57458 0.98901 0.04892 0.0
O5 O 0.63714 0.13924 0.01407 0.0
C6 C 0.26831 0.80312 0.03985 0.0
O7 O 0.48979 0.98159 0.0136 0.0
C8 C 0.47452 0.16806 0.03725 0.0
C9 C 0.51103 0.12669 0.07247 0.0
O10 O 0.28628 0.88203 0.03083 0.0
O11 O 0.34707 0.82395 0.04914 0.0
O12 O 0.38902 0.0948 0.04304 0.0
O13 O 0.52705 0.13186 0.03205 0.0
O14 O 0.44553 0.03498 0.06649 0.0
O15 O 0.60209 0.18466 0.06531 0.0
C16 C 0.85426 0.28535 0.04062 0.0
O17 O 0.81658 0.20553 0.05031 0.0
O18 O 0.78245 0.29329 0.03313 0.0
C19 C 0.62679 0.96093 0.04032 0.0
Tb20 Tb 0.98259 0.55906 0.04185 0.0
C21 C 0.07117 0.55491 0.00564 0.0
Tb22 Tb 0.14744 0.50218 0.0402 0.0
O23 O 0.09154 0.70987 0.03344 0.0
O24 O 0.1406 0.63094 0.04893 0.0
O25 O 0.9904 0.54329 0.01408 0.0
C26 C 0.3265 0.51056 0.03986 0.0
O27 O 0.14804 0.55359 0.0136 0.0
C28 C 0.96156 0.35188 0.03727 0.0
C29 C 1.00295 0.42976 0.07248 0.0
O30 O 0.24759 0.44962 0.03084 0.0
O31 O 0.30569 0.56853 0.04914 0.0
O32 O 1.03483 0.33959 0.04305 0.0
O33 O 0.99775 0.44058 0.03205 0.0
O34 O 0.09465 0.45596 0.0665 0.0
O35 O 0.94498 0.46285 0.06531 0.0
C36 C 0.84427 0.61428 0.04062 0.0
O37 O 0.92411 0.65645 0.05031 0.0
O38 O 0.83633 0.53453 0.03314 0.0
C39 C 0.16867 0.71126 0.04034 0.0
Tb40 Tb 0.57056 0.46889 0.04185 0.0
C41 C 0.57473 0.56165 0.00564 0.0
Tb42 Tb 0.62747 0.69065 0.0402 0.0
O43 O 0.41974 0.42704 0.03345 0.0
O44 O 0.4987 0.55505 0.04893 0.0
O45 O 0.58632 0.49248 0.01408 0.0
C46 C 0.6192 0.86137 0.03987 0.0
O47 O 0.57607 0.63984 0.0136 0.0
C48 C 0.77775 0.65506 0.03727 0.0
C49 C 0.69987 0.61856 0.07248 0.0
O50 O 0.68015 0.84341 0.03086 0.0
O51 O 0.56108 0.78253 0.04913 0.0
O52 O 0.79005 0.74061 0.04304 0.0
O53 O 0.68905 0.60255 0.03205 0.0
O54 O 0.67366 0.68406 0.0665 0.0
O55 O 0.66679 0.5275 0.06531 0.0
C56 C 0.51534 0.27535 0.04062 0.0
O57 O 0.47319 0.31301 0.05031 0.0
O58 O 0.5951 0.34718 0.03313 0.0
C59 C 0.41836 0.50278 0.04034 0.0
Tb60 Tb 0.16008 0.64765 0.45065 0.0
C61 C 0.07149 0.55494 0.48686 0.0
Tb62 Tb 0.99522 0.42592 0.4523 0.0
O63 O 0.05114 0.68951 0.45906 0.0
O64 O 1.00205 0.56153 0.44358 0.0
O65 O 0.15228 0.62409 0.47843 0.0
C66 C 0.81615 0.25526 0.45264 0.0
O67 O 0.99463 0.47675 0.4789 0.0
C68 C 0.18111 0.46147 0.45525 0.0
C69 C 0.13974 0.49799 0.42003 0.0
O70 O 0.89505 0.27323 0.46166 0.0
O71 O 0.83698 0.33403 0.44336 0.0
O72 O 0.10784 0.37598 0.44946 0.0
O73 O 0.14489 0.51399 0.46045 0.0
O74 O 0.04803 0.43248 0.42601 0.0
O75 O 0.19771 0.58904 0.42719 0.0
C76 C 0.29839 0.8412 0.45188 0.0
O77 O 0.21856 0.80352 0.44219 0.0
O78 O 0.30633 0.7694 0.45937 0.0
C79 C 0.97398 0.61374 0.45218 0.0
Tb80 Tb 0.48196 0.55755 0.45065 0.0
C81 C 0.57469 0.56169 0.48686 0.0
Tb82 Tb 0.70371 0.61445 0.45229 0.0
O83 O 0.44009 0.40674 0.45905 0.0
O84 O 0.5681 0.48566 0.44358 0.0
O85 O 0.50553 0.57331 0.47842 0.0
C86 C 0.87442 0.60616 0.45263 0.0
O87 O 0.6529 0.56305 0.4789 0.0
C88 C 0.66814 0.76477 0.45525 0.0
C89 C 0.63163 0.68689 0.42003 0.0
O90 O 0.85645 0.6671 0.46164 0.0
O91 O 0.79558 0.54806 0.44337 0.0
O92 O 0.75364 0.77701 0.44946 0.0
O93 O 0.61562 0.67603 0.46045 0.0
O94 O 0.69713 0.66067 0.42601 0.0
O95 O 0.54057 0.6538 0.42719 0.0
C96 C 0.2884 0.5023 0.45189 0.0
O97 O 0.32607 0.46017 0.44219 0.0
O98 O 0.36023 0.58206 0.45937 0.0
C99 C 0.51588 0.40536 0.45218 0.0
Tb100 Tb 0.57208 0.96953 0.45065 0.0
C101 C 0.56795 0.05814 0.48686 0.0
Tb102 Tb 0.51518 0.13439 0.45229 0.0
O103 O 0.7229 0.07849 0.45905 0.0
O104 O 0.64395 0.12755 0.44357 0.0
O105 O 0.55634 0.97737 0.47842 0.0
C106 C 0.52347 0.31339 0.45263 0.0
O107 O 0.5666 0.13498 0.4789 0.0
C108 C 0.3649 0.9485 0.45523 0.0
C109 C 0.44276 0.98989 0.42002 0.0
O110 O 0.46251 0.23447 0.46164 0.0
O111 O 0.58158 0.29266 0.44337 0.0
O112 O 0.3526 1.02176 0.44945 0.0
O113 O 0.45361 0.9847 0.46045 0.0
O114 O 0.46898 0.0816 0.426 0.0
O115 O 0.47585 0.93192 0.42719 0.0
C116 C 0.62731 0.83122 0.45188 0.0
O117 O 0.66946 0.91103 0.44219 0.0
O118 O 0.54755 0.82328 0.45936 0.0
C119 C 0.72429 0.15562 0.45216 0.0
Tb120 Tb 0.70329 0.13442 0.95227 0.0
C121 C 0.63135 0.98985 0.92002 0.0
Tb122 Tb 0.48171 0.9697 0.95063 0.0
O123 O 0.75355 1.02216 0.94943 0.0
O124 O 0.61527 0.98456 0.96046 0.0
O125 O 0.69683 0.08159 0.92599 0.0
C126 C 0.28811 0.83148 0.95188 0.0
O127 O 0.54029 0.93193 0.92718 0.0
C128 C 0.51606 0.15606 0.95221 0.0
C129 C 0.57438 0.05816 0.98684 0.0
O130 O 0.32576 0.91134 0.9422 0.0
O131 O 0.35995 0.82348 0.95934 0.0
O132 O 0.44031 0.07899 0.95911 0.0
O133 O 0.56771 0.12754 0.94355 0.0
O134 O 0.50525 0.97738 0.9784 0.0
O135 O 0.65254 0.13503 0.97888 0.0
C136 C 0.87392 0.31352 0.95264 0.0
O137 O 0.85582 0.23467 0.96169 0.0
O138 O 0.79529 0.29263 0.94331 0.0
C139 C 0.66816 0.94879 0.95523 0.0
Tb140 Tb 0.99521 0.61423 0.95227 0.0
C141 C 0.13977 0.68682 0.92001 0.0
Tb142 Tb 0.15993 0.55736 0.95064 0.0
O143 O 0.10746 0.77676 0.94943 0.0
O144 O 0.14508 0.67607 0.96045 0.0
O145 O 0.04803 0.66056 0.92599 0.0
C146 C 0.29816 0.50201 0.95188 0.0
O147 O 0.1977 0.6537 0.92718 0.0
C148 C 0.97359 0.40534 0.95219 0.0
C149 C 0.07147 0.56159 0.98685 0.0
O150 O 0.21828 0.45978 0.94221 0.0
O151 O 0.30616 0.58185 0.95934 0.0
O152 O 0.05063 0.40667 0.95911 0.0
O153 O 1.00211 0.48555 0.94355 0.0
O154 O 0.15224 0.57323 0.97841 0.0
O155 O 0.99459 0.56286 0.97888 0.0
C156 C 0.81611 0.60577 0.95264 0.0
O157 O 0.89497 0.66653 0.96168 0.0
O158 O 0.83698 0.548 0.94331 0.0
C159 C 0.18084 0.7647 0.95521 0.0
Tb160 Tb 0.51539 0.42634 0.95227 0.0
C161 C 0.44278 0.49829 0.92001 0.0
Tb162 Tb 0.57227 0.64795 0.95063 0.0
O163 O 0.35285 0.37607 0.94943 0.0
O164 O 0.45357 0.5144 0.96045 0.0
O165 O 0.46906 0.43283 0.92599 0.0
C166 C 0.62762 0.84153 0.95188 0.0
O167 O 0.47591 0.58935 0.92718 0.0
C168 C 0.72429 0.61363 0.95218 0.0
C169 C 0.56805 0.55526 0.98684 0.0
O170 O 0.66984 0.8039 0.9422 0.0
O171 O 0.54778 0.76968 0.95934 0.0
O172 O 0.72298 0.68935 0.9591 0.0
O173 O 0.64407 0.56192 0.94355 0.0
O174 O 0.55643 0.6244 0.9784 0.0
O175 O 0.56675 0.47709 0.97888 0.0
C176 C 0.52373 0.25566 0.95263 0.0
O177 O 0.46296 0.27375 0.96167 0.0
O178 O 0.58165 0.33437 0.94333 0.0
C179 C 0.36493 0.46152 0.95521 0.0
Tb180 Tb 0.14746 0.69026 0.54023 0.0
C181 C 1.00288 0.61833 0.57248 0.0
Tb182 Tb 0.98273 0.46868 0.54187 0.0
O183 O 1.03519 0.74052 0.54307 0.0
O184 O 0.9976 0.60224 0.53204 0.0
O185 O 0.09462 0.6838 0.56651 0.0
C186 C 0.84452 0.27509 0.54062 0.0
O187 O 0.94495 0.52727 0.56532 0.0
C188 C 0.1691 0.50304 0.54029 0.0
C189 C 0.07119 0.56134 0.50566 0.0
O190 O 0.92438 0.31275 0.5503 0.0
O191 O 0.83652 0.34693 0.53316 0.0
O192 O 0.09202 0.42729 0.53339 0.0
O193 O 0.14058 0.55468 0.54895 0.0
O194 O 0.99041 0.49222 0.5141 0.0
O195 O 0.14807 0.6395 0.51362 0.0
C196 C 0.32657 0.86089 0.53986 0.0
O197 O 0.24772 0.84279 0.53081 0.0
O198 O 0.30568 0.78226 0.54919 0.0
C199 C 0.96182 0.65513 0.53727 0.0
Tb200 Tb 0.43937 0.50233 0.54023 0.0
C201 C 0.5113 0.42969 0.57248 0.0
Tb202 Tb 0.66096 0.55921 0.54187 0.0
O203 O 0.38912 0.33981 0.54307 0.0
O204 O 0.5274 0.44051 0.53204 0.0
O205 O 0.44584 0.45597 0.56651 0.0
C206 C 0.85455 0.61458 0.54062 0.0
O207 O 0.60236 0.46282 0.56532 0.0
C208 C 0.62661 0.71121 0.5403 0.0
C209 C 0.56829 0.555 0.50565 0.0
O210 O 0.81691 0.65677 0.5503 0.0
O211 O 0.78271 0.53474 0.53316 0.0
O212 O 0.70237 0.7099 0.53339 0.0
O213 O 0.57495 0.63103 0.54895 0.0
O214 O 0.63742 0.54336 0.5141 0.0
O215 O 0.49012 0.55369 0.51362 0.0
C216 C 0.26869 0.51069 0.53987 0.0
O217 O 0.28678 0.44993 0.53083 0.0
O218 O 0.3474 0.56859 0.54918 0.0
C219 C 0.47451 0.35184 0.53727 0.0
Tb220 Tb 0.6273 0.98219 0.54023 0.0
C221 C 0.69989 0.12675 0.57248 0.0
Tb222 Tb 0.57041 0.1469 0.54187 0.0
O223 O 0.78983 0.09446 0.54307 0.0
O224 O 0.68912 0.13206 0.53205 0.0
O225 O 0.67362 0.03501 0.56651 0.0
C226 C 0.51506 0.28512 0.54061 0.0
O227 O 0.66677 0.18468 0.56532 0.0
C228 C 0.41839 0.96056 0.54032 0.0
C229 C 0.57464 0.05843 0.50565 0.0
O230 O 0.47284 0.20528 0.55029 0.0
O231 O 0.5949 0.29313 0.53316 0.0
O232 O 0.41972 0.0376 0.53339 0.0
O233 O 0.49861 0.98908 0.54895 0.0
O234 O 0.58627 0.1392 0.51409 0.0
O235 O 0.57594 0.98157 0.51362 0.0
C236 C 0.61895 0.80315 0.53987 0.0
O237 O 0.67973 0.88202 0.53084 0.0
O238 O 0.56102 0.82394 0.54917 0.0
C239 C 0.77775 0.16782 0.53729 0.0
Tb240 Tb 0.32744 0.48028 0.37518 0.0
C241 C 0.2347 0.39171 0.33897 0.0
Tb242 Tb 0.1057 0.31543 0.37354 0.0
O243 O 0.3693 0.37134 0.36677 0.0
O244 O 0.24131 0.32225 0.38225 0.0
O245 O 0.30385 0.47249 0.34741 0.0
C246 C 0.93504 0.13637 0.37319 0.0
O247 O 0.15651 0.31485 0.34694 0.0
C248 C 0.14126 0.50131 0.37059 0.0
C249 C 0.17779 0.45993 0.40581 0.0
O250 O 0.95301 0.21528 0.36417 0.0
O251 O 1.0138 0.15719 0.38248 0.0
O252 O 0.05576 0.42805 0.37638 0.0
O253 O 0.19378 0.4651 0.36538 0.0
O254 O 0.11228 0.36822 0.39983 0.0
O255 O 0.26884 0.5179 0.39864 0.0
C256 C 0.521 0.6186 0.37395 0.0
O257 O 0.48332 0.53877 0.38364 0.0
O258 O 0.44919 0.62653 0.36647 0.0
C259 C 0.29352 0.29418 0.37365 0.0
Tb260 Tb 0.64932 0.89231 0.37518 0.0
C261 C 0.73788 0.88815 0.33897 0.0
Tb262 Tb 0.81418 0.83542 0.37353 0.0
O263 O 0.75828 0.04312 0.36678 0.0
O264 O 0.80734 0.96418 0.38226 0.0
O265 O 0.65711 0.87653 0.34741 0.0
C266 C 0.99324 0.84381 0.37319 0.0
O267 O 0.81475 0.88683 0.34693 0.0
C268 C 0.6283 0.68513 0.3706 0.0
C269 C 0.6697 0.76302 0.40581 0.0
O270 O 0.91432 0.78287 0.36417 0.0
O271 O 0.97243 0.90178 0.38247 0.0
O272 O 0.70157 0.67284 0.37638 0.0
O273 O 0.66448 0.77382 0.36538 0.0
O274 O 0.7614 0.78921 0.39982 0.0
O275 O 0.61172 0.79609 0.39865 0.0
C276 C 0.511 0.94753 0.37395 0.0
O277 O 0.59084 0.98969 0.38364 0.0
O278 O 0.50306 0.86778 0.36647 0.0
C279 C 0.8354 0.04451 0.37367 0.0
Tb280 Tb 0.2373 0.80214 0.37518 0.0
C281 C 0.24144 0.8949 0.33897 0.0
Tb282 Tb 0.29421 1.0239 0.37354 0.0
O283 O 0.08647 0.76028 0.36678 0.0
O284 O 0.16544 0.8883 0.38226 0.0
O285 O 0.25304 0.82573 0.34741 0.0
C286 C 0.28593 0.19462 0.3732 0.0
O287 O 0.24279 0.97309 0.34693 0.0
C288 C 0.44448 0.9883 0.3706 0.0
C289 C 0.36661 0.95181 0.40581 0.0
O290 O 0.34688 0.17665 0.36419 0.0
O291 O 0.22782 0.11578 0.38246 0.0
O292 O 0.45678 0.07386 0.37638 0.0
O293 O 0.35578 0.9358 0.36538 0.0
O294 O 0.34041 1.01732 0.39983 0.0
O295 O 0.33353 0.86076 0.39864 0.0
C296 C 0.18207 0.6086 0.37395 0.0
O297 O 0.13993 0.64626 0.38364 0.0
O298 O 0.26183 0.68043 0.36647 0.0
C299 C 0.0851 0.83603 0.37367 0.0
Tb300 Tb 0.82668 0.98102 0.78399 0.0
C301 C 0.73809 0.88832 0.8202 0.0
Tb302 Tb 0.66182 0.75929 0.78563 0.0
O303 O 0.71774 1.02289 0.79239 0.0
O304 O 0.66864 0.8949 0.77691 0.0
O305 O 0.81888 0.95746 0.81176 0.0
C306 C 0.48275 0.58863 0.78598 0.0
O307 O 0.66123 0.81012 0.81223 0.0
C308 C 0.84771 0.79485 0.78858 0.0
C309 C 0.80633 0.83135 0.75336 0.0
O310 O 0.56165 0.60661 0.795 0.0
O311 O 0.50358 0.6674 0.77669 0.0
O312 O 0.77444 0.70935 0.78279 0.0
O313 O 0.81149 0.84737 0.79379 0.0
O314 O 0.71463 0.76585 0.75934 0.0
O315 O 0.8643 0.92241 0.76052 0.0
C316 C 0.96498 0.17457 0.78521 0.0
O317 O 0.88516 0.13689 0.77553 0.0
O318 O 0.97293 0.10277 0.7927 0.0
C319 C 0.64057 0.94711 0.78551 0.0
Tb320 Tb 0.14855 0.89092 0.78399 0.0
C321 C 0.24128 0.89507 0.8202 0.0
Tb322 Tb 0.3703 0.94782 0.78563 0.0
O323 O 0.10669 0.74011 0.79239 0.0
O324 O 0.23469 0.81903 0.77691 0.0
O325 O 0.17212 0.90668 0.81176 0.0
C326 C 0.54102 0.93953 0.78596 0.0
O327 O 0.31949 0.89642 0.81223 0.0
C328 C 0.33474 0.09814 0.78858 0.0
C329 C 0.29824 1.02027 0.75336 0.0
O330 O 0.52305 1.00047 0.79498 0.0
O331 O 0.46218 0.88143 0.7767 0.0
O332 O 0.42024 0.11038 0.78279 0.0
O333 O 0.28221 1.0094 0.79379 0.0
O334 O 0.36373 0.99405 0.75934 0.0
O335 O 0.20718 0.98718 0.76052 0.0
C336 C 0.955 0.83568 0.78522 0.0
O337 O 0.99267 0.79355 0.77553 0.0
O338 O 1.02682 0.91543 0.7927 0.0
C339 C 0.18248 0.73874 0.78551 0.0
Tb340 Tb 0.23868 0.30291 0.78399 0.0
C341 C 0.23454 0.39151 0.8202 0.0
Tb342 Tb 0.18178 0.46776 0.78563 0.0
O343 O 0.3895 0.41187 0.79239 0.0
O344 O 0.31055 0.46092 0.7769 0.0
O345 O 0.22293 0.31074 0.81176 0.0
C346 C 0.19006 0.64676 0.78596 0.0
O347 O 0.23319 0.46836 0.81223 0.0
C348 C 1.0315 0.28187 0.78856 0.0
C349 C 0.10937 0.32326 0.75336 0.0
O350 O 0.1291 0.56784 0.79497 0.0
O351 O 0.24818 0.62603 0.7767 0.0
O352 O 1.0192 0.35513 0.78279 0.0
O353 O 0.1202 0.31808 0.79378 0.0
O354 O 0.13558 0.41497 0.75934 0.0
O355 O 0.14246 0.26529 0.76052 0.0
C356 C 0.29391 0.1646 0.78522 0.0
O357 O 0.33606 0.24441 0.77553 0.0
O358 O 0.21415 0.15666 0.7927 0.0
C359 C 0.39088 0.48899 0.78549 0.0
Tb360 Tb 0.36996 0.46768 0.2856 0.0
C361 C 0.298 0.32311 0.25335 0.0
Tb362 Tb 0.14838 0.30296 0.28397 0.0
O363 O 0.42022 0.35542 0.28276 0.0
O364 O 0.28195 0.31782 0.29379 0.0
O365 O 0.36347 0.41485 0.25932 0.0
C366 C 0.95478 0.16473 0.28521 0.0
O367 O 0.20695 0.26518 0.26052 0.0
C368 C 0.18274 0.48932 0.28554 0.0
C369 C 0.24107 0.39142 0.32018 0.0
O370 O 0.99243 0.2446 0.27554 0.0
O371 O 1.02662 0.15674 0.29267 0.0
O372 O 0.10699 0.41225 0.29245 0.0
O373 O 0.23438 0.4608 0.27689 0.0
O374 O 0.17194 0.31064 0.31174 0.0
O375 O 0.31922 0.46829 0.31221 0.0
C376 C 0.5406 0.64678 0.28597 0.0
O377 O 0.5225 0.56792 0.29502 0.0
O378 O 0.46196 0.62589 0.27664 0.0
C379 C 0.33484 0.28205 0.28856 0.0
Tb380 Tb 0.66188 0.94748 0.28561 0.0
C381 C 0.80643 1.02011 0.25335 0.0
Tb382 Tb 0.82661 0.89062 0.28396 0.0
O383 O 0.77413 0.11002 0.28276 0.0
O384 O 0.81176 1.00932 0.29379 0.0
O385 O 0.7147 0.99384 0.25932 0.0
C386 C 0.96484 0.83528 0.28521 0.0
O387 O 0.86437 0.98698 0.26051 0.0
C388 C 0.64027 0.73859 0.28551 0.0
C389 C 0.73816 0.89482 0.32018 0.0
O390 O 0.88497 0.79304 0.27553 0.0
O391 O 0.97284 0.91511 0.29267 0.0
O392 O 0.71731 0.73992 0.29244 0.0
O393 O 0.66878 0.81881 0.27688 0.0
O394 O 0.81893 0.90648 0.31173 0.0
O395 O 0.66128 0.8961 0.31221 0.0
C396 C 0.48278 0.93901 0.28598 0.0
O397 O 0.56164 0.99977 0.29502 0.0
O398 O 0.50366 0.88125 0.27665 0.0
C399 C 0.84751 0.09795 0.28854 0.0
Tb400 Tb 0.18206 0.7596 0.2856 0.0
C401 C 0.10945 0.83157 0.25335 0.0
Tb402 Tb 0.23895 0.98121 0.28396 0.0
O403 O 1.01953 0.70933 0.28276 0.0
O404 O 0.12024 0.84765 0.29379 0.0
O405 O 0.13573 0.7661 0.25932 0.0
C406 C 0.2943 0.17479 0.28521 0.0
O407 O 0.14259 0.92262 0.26051 0.0
C408 C 0.39097 0.94689 0.28551 0.0
C409 C 0.23474 0.88851 0.32018 0.0
O410 O 0.33651 0.13716 0.27553 0.0
O411 O 0.21446 0.10294 0.29267 0.0
O412 O 0.38966 1.02261 0.29243 0.0
O413 O 0.31074 0.89518 0.27688 0.0
O414 O 0.22311 0.95765 0.31174 0.0
O415 O 0.23343 0.81034 0.31221 0.0
C416 C 0.1904 0.58891 0.28596 0.0
O417 O 0.12962 0.60701 0.295 0.0
O418 O 0.24832 0.66762 0.27666 0.0
C419 C 1.03161 0.79478 0.28854 0.0
Tb420 Tb 0.81406 1.02365 0.87356 0.0
C421 C 0.66949 0.95172 0.90582 0.0
Tb422 Tb 0.64933 0.80208 0.8752 0.0
O423 O 0.70179 0.07391 0.8764 0.0
O424 O 0.6642 0.93563 0.86537 0.0
O425 O 0.76122 1.01719 0.89984 0.0
C426 C 0.51111 0.60849 0.87396 0.0
O427 O 0.61155 0.86067 0.89865 0.0
C428 C 0.83569 0.83643 0.87363 0.0
C429 C 0.73779 0.89473 0.83899 0.0
O430 O 0.59098 0.64614 0.88363 0.0
O431 O 0.50311 0.68032 0.8665 0.0
O432 O 0.75862 0.76068 0.86672 0.0
O433 O 0.80718 0.88807 0.88228 0.0
O434 O 0.65701 0.82561 0.84743 0.0
O435 O 0.81466 0.97289 0.84696 0.0
C436 C 0.99317 0.19428 0.87319 0.0
O437 O 0.91432 0.17618 0.86415 0.0
O438 O 0.97227 0.11565 0.88252 0.0
C439 C 0.62842 0.98852 0.8706 0.0
Tb440 Tb 0.10596 0.83572 0.87356 0.0
C441 C 0.17791 0.7631 0.90582 0.0
Tb442 Tb 0.32756 0.8926 0.8752 0.0
O443 O 0.05572 0.6732 0.8764 0.0
O444 O 0.194 0.7739 0.86538 0.0
O445 O 0.11245 0.78937 0.89985 0.0
C446 C 0.52115 0.94797 0.87395 0.0
O447 O 0.26897 0.79622 0.89865 0.0
C448 C 0.2932 0.0446 0.87363 0.0
C449 C 0.23488 0.88838 0.83899 0.0
O450 O 0.48352 0.99017 0.88363 0.0
O451 O 0.4493 0.86813 0.86649 0.0
O452 O 0.36896 0.04329 0.86672 0.0
O453 O 0.24155 0.96443 0.88228 0.0
O454 O 0.30402 0.87674 0.84743 0.0
O455 O 0.15671 0.88707 0.84696 0.0
C456 C 0.93528 0.84408 0.87321 0.0
O457 O 0.95337 0.78331 0.86417 0.0
O458 O 1.01399 0.90199 0.88251 0.0
C459 C 0.14111 0.68523 0.8706 0.0
Tb460 Tb 0.2939 0.31558 0.87356 0.0
C461 C 0.36648 0.46014 0.90582 0.0
Tb462 Tb 0.23701 0.48029 0.8752 0.0
O463 O 0.45643 0.42785 0.87641 0.0
O464 O 0.35572 0.46545 0.86538 0.0
O465 O 0.34021 0.3684 0.89985 0.0
C466 C 0.18166 0.61851 0.87395 0.0
O467 O 0.33336 0.51807 0.89865 0.0
C468 C 0.08499 0.29396 0.87365 0.0
C469 C 0.24123 0.39181 0.83899 0.0
O470 O 0.13944 0.53867 0.88363 0.0
O471 O 0.2615 0.62652 0.8665 0.0
O472 O 0.08631 0.37099 0.86673 0.0
O473 O 0.16521 0.32247 0.88229 0.0
O474 O 0.25286 0.47259 0.84743 0.0
O475 O 0.24253 0.31496 0.84696 0.0
C476 C 0.28554 0.13654 0.87321 0.0
O477 O 0.34633 0.21541 0.86417 0.0
O478 O 0.22762 0.15733 0.88251 0.0
C479 C 0.44435 0.50121 0.87063 0.0
Tb480 Tb 0.99406 0.81364 0.70851 0.0
C481 C 0.90135 0.72506 0.6723 0.0
Tb482 Tb 0.77233 0.64879 0.70687 0.0
O483 O 1.03593 0.7047 0.70011 0.0
O484 O 0.90793 0.65561 0.71559 0.0
O485 O 0.9705 0.80584 0.68074 0.0
C486 C 0.60166 0.46973 0.70652 0.0
O487 O 0.82315 0.64821 0.68027 0.0
C488 C 0.80788 0.83468 0.70392 0.0
C489 C 0.84439 0.79329 0.73914 0.0
O490 O 0.61965 0.54864 0.6975 0.0
O491 O 0.68043 0.49056 0.71581 0.0
O492 O 0.72238 0.76141 0.70971 0.0
O493 O 0.8604 0.79847 0.69871 0.0
O494 O 0.77888 0.70159 0.73316 0.0
O495 O 0.93545 0.85127 0.73198 0.0
C496 C 0.18762 0.95196 0.70729 0.0
O497 O 0.14994 0.87214 0.71697 0.0
O498 O 0.11581 0.95989 0.6998 0.0
C499 C 0.96014 0.62754 0.70698 0.0
Tb500 Tb 0.31595 0.22567 0.70851 0.0
C501 C 0.40454 0.22151 0.6723 0.0
Tb502 Tb 0.4808 0.16878 0.70687 0.0
O503 O 0.42491 0.37648 0.70011 0.0
O504 O 0.47396 0.29755 0.71559 0.0
O505 O 0.32376 0.20989 0.68074 0.0
C506 C 0.65986 0.17717 0.70652 0.0
O507 O 0.4814 0.22019 0.68027 0.0
C508 C 0.29492 1.01849 0.70394 0.0
C509 C 0.33631 0.0964 0.73914 0.0
O510 O 0.58094 0.11622 0.69751 0.0
O511 O 0.63905 0.23514 0.71581 0.0
O512 O 0.36819 1.0062 0.70971 0.0
O513 O 0.33111 0.10718 0.69872 0.0
O514 O 0.42801 0.12259 0.73316 0.0
O515 O 0.27833 0.12947 0.73198 0.0
C516 C 0.17763 0.2809 0.70729 0.0
O517 O 0.25747 0.32306 0.71697 0.0
O518 O 0.16969 0.20115 0.6998 0.0
C519 C 0.50203 0.37787 0.707 0.0
Tb520 Tb 0.90392 0.1355 0.70852 0.0
C521 C 0.90809 0.22825 0.6723 0.0
Tb522 Tb 0.96083 0.35726 0.70687 0.0
O523 O 0.7531 0.09364 0.70012 0.0
O524 O 0.83206 0.22166 0.7156 0.0
O525 O 0.91968 0.15908 0.68074 0.0
C526 C 0.95255 0.52798 0.70653 0.0
O527 O 0.90943 0.30645 0.68027 0.0
C528 C 0.11111 0.32167 0.70394 0.0
C529 C 1.03322 0.28518 0.73914 0.0
O530 O 1.01351 0.51002 0.69752 0.0
O531 O 0.89443 0.44913 0.71579 0.0
O532 O 0.12341 0.40722 0.70971 0.0
O533 O 1.0224 0.26916 0.69872 0.0
O534 O 1.00702 0.35068 0.73316 0.0
O535 O 1.00015 0.19412 0.73198 0.0
C536 C 0.8487 0.94196 0.70728 0.0
O537 O 0.80655 0.97962 0.71697 0.0
O538 O 0.92846 1.01379 0.6998 0.0
C539 C 0.75172 0.16939 0.70701 0.0
Tb540 Tb 0.49332 0.31439 0.11732 0.0
C541 C 0.40474 0.22166 0.15353 0.0
Tb542 Tb 0.32846 0.09266 0.11896 0.0
O543 O 0.38437 0.35624 0.12573 0.0
O544 O 0.33528 0.22826 0.11025 0.0
O545 O 0.48552 0.29081 0.14509 0.0
C546 C 0.14939 0.92199 0.11931 0.0
O547 O 0.32787 0.14347 0.14556 0.0
C548 C 0.51435 0.12821 0.12191 0.0
C549 C 0.47297 0.16474 0.08669 0.0
O550 O 0.2283 0.93997 0.12833 0.0
O551 O 0.17021 1.00076 0.11002 0.0
O552 O 0.44109 0.04272 0.11612 0.0
O553 O 0.47813 0.18073 0.12712 0.0
O554 O 0.38126 0.09923 0.09267 0.0
O555 O 0.53095 0.25579 0.09386 0.0
C556 C 0.63162 0.50794 0.11855 0.0
O557 O 0.5518 0.47026 0.10886 0.0
O558 O 0.63957 0.43613 0.12603 0.0
C559 C 0.30721 0.28047 0.11885 0.0
Tb560 Tb 0.8152 0.22428 0.11732 0.0
C561 C 0.90792 0.2284 0.15353 0.0
Tb562 Tb 1.03694 0.28118 0.11896 0.0
O563 O 0.77333 0.07347 0.12572 0.0
O564 O 0.90134 0.15239 0.11024 0.0
O565 O 0.83876 0.24002 0.14509 0.0
C566 C 0.20766 0.27289 0.1193 0.0
O567 O 0.98613 0.22976 0.14556 0.0
C568 C 1.00138 0.4315 0.12192 0.0
C569 C 0.96488 0.35363 0.08669 0.0
O570 O 0.18969 0.33383 0.12831 0.0
O571 O 0.12882 0.2148 0.11003 0.0
O572 O 0.08688 0.44374 0.11613 0.0
O573 O 0.94886 0.34276 0.12712 0.0
O574 O 1.03038 0.32742 0.09267 0.0
O575 O 0.87382 0.32054 0.09386 0.0
C576 C 0.62165 0.16904 0.11855 0.0
O577 O 0.65932 0.12692 0.10886 0.0
O578 O 0.69346 0.24879 0.12604 0.0
C579 C 0.84912 0.0721 0.11885 0.0
Tb580 Tb 0.90532 0.63627 0.11732 0.0
C581 C 0.90117 0.72485 0.15353 0.0
Tb582 Tb 0.84842 0.80112 0.11896 0.0
O583 O 0.05614 0.74523 0.12572 0.0
O584 O 0.97718 0.79428 0.11024 0.0
O585 O 0.88957 0.64408 0.14509 0.0
C586 C 0.85671 0.98013 0.1193 0.0
O587 O 0.89982 0.8017 0.14557 0.0
C588 C 0.69814 0.61524 0.1219 0.0
C589 C 0.77602 0.65664 0.08669 0.0
O590 O 0.79575 0.9012 0.12831 0.0
O591 O 0.91482 0.95939 0.11004 0.0
O592 O 0.68584 0.68849 0.11612 0.0
O593 O 0.78684 0.65144 0.12711 0.0
O594 O 0.80222 0.74834 0.09267 0.0
O595 O 0.8091 0.59866 0.09385 0.0
C596 C 0.96055 0.49796 0.11855 0.0
O597 O 1.0027 0.57776 0.10886 0.0
O598 O 0.88079 0.49001 0.12603 0.0
C599 C 0.05752 0.82235 0.11883 0.0
Tb600 Tb 1.03667 0.80102 0.61894 0.0
C601 C 0.96474 0.65646 0.58668 0.0
Tb602 Tb 0.81509 0.6363 0.6173 0.0
O603 O 0.08694 0.68876 0.6161 0.0
O604 O 0.94865 0.65116 0.62712 0.0
O605 O 1.03022 0.74819 0.59266 0.0
C606 C 0.6215 0.49807 0.61854 0.0
O607 O 0.87369 0.59853 0.59385 0.0
C608 C 0.84945 0.82266 0.61887 0.0
C609 C 0.90775 0.72476 0.65351 0.0
O610 O 0.65915 0.57793 0.60887 0.0
O611 O 0.69333 0.49008 0.626 0.0
O612 O 0.77369 0.74559 0.62578 0.0
O613 O 0.90109 0.79414 0.61022 0.0
O614 O 0.83863 0.64398 0.64507 0.0
O615 O 0.98591 0.80163 0.64554 0.0
C616 C 0.2073 0.98012 0.61931 0.0
O617 O 0.1892 0.90127 0.62836 0.0
O618 O 0.12867 0.95923 0.60998 0.0
C619 C 1.00154 0.61539 0.6219 0.0
Tb620 Tb 0.32859 0.28082 0.61893 0.0
C621 C 0.47315 0.3534 0.58668 0.0
Tb622 Tb 0.49331 0.22396 0.6173 0.0
O623 O 0.44085 0.44336 0.61609 0.0
O624 O 0.47847 0.34267 0.62712 0.0
O625 O 0.38142 0.32715 0.59265 0.0
C626 C 0.63154 0.16861 0.61854 0.0
O627 O 0.53108 0.32029 0.59384 0.0
C628 C 0.30698 0.07194 0.61885 0.0
C629 C 0.40484 0.22818 0.65351 0.0
O630 O 0.55167 0.12637 0.60887 0.0
O631 O 0.63954 0.24844 0.626 0.0
O632 O 0.38401 0.07327 0.62578 0.0
O633 O 0.33549 0.15215 0.61021 0.0
O634 O 0.48562 0.23983 0.64507 0.0
O635 O 0.32797 0.22946 0.64554 0.0
C636 C 0.14949 0.27237 0.61931 0.0
O637 O 0.22836 0.33314 0.62835 0.0
O638 O 0.17037 0.2146 0.60998 0.0
C639 C 0.51422 0.43129 0.62187 0.0
Tb640 Tb 0.84877 0.09294 0.61894 0.0
C641 C 0.77618 0.1649 0.58668 0.0
Tb642 Tb 0.90566 0.31455 0.6173 0.0
O643 O 0.68624 0.04267 0.61609 0.0
O644 O 0.78695 0.18099 0.62712 0.0
O645 O 0.80245 0.09943 0.59265 0.0
C646 C 0.96101 0.50813 0.61855 0.0
O647 O 0.8093 0.25596 0.59384 0.0
C648 C 0.05768 0.28023 0.61885 0.0
C649 C 0.90142 0.22186 0.65351 0.0
O650 O 1.00323 0.47051 0.60887 0.0
O651 O 0.88116 0.43627 0.626 0.0
O652 O 0.05636 0.35595 0.62577 0.0
O653 O 0.97745 0.22852 0.61021 0.0
O654 O 0.8898 0.291 0.64507 0.0
O655 O 0.90012 0.14369 0.64554 0.0
C656 C 0.85711 0.92226 0.61929 0.0
O657 O 0.79633 0.94034 0.62833 0.0
O658 O 0.91504 1.00097 0.60999 0.0
C659 C 0.69832 0.12812 0.62187 0.0
Tb660 Tb 0.48071 0.35695 0.2069 0.0
C661 C 0.33613 0.28499 0.23915 0.0
Tb662 Tb 0.31598 0.13537 0.20853 0.0
O663 O 0.36844 0.4072 0.20974 0.0
O664 O 0.33084 0.26893 0.19871 0.0
O665 O 0.42787 0.35046 0.23318 0.0
C666 C 0.17776 0.94178 0.20729 0.0
O667 O 0.2782 0.19394 0.23198 0.0
C668 C 0.50234 0.16972 0.20696 0.0
C669 C 0.40444 0.22805 0.17232 0.0
O670 O 0.25763 0.97943 0.21696 0.0
O671 O 0.16976 1.01361 0.19983 0.0
O672 O 0.42527 0.09397 0.20005 0.0
O673 O 0.47382 0.22136 0.21561 0.0
O674 O 0.32365 0.15892 0.18076 0.0
O675 O 0.48131 0.3062 0.18029 0.0
C676 C 0.65982 0.52758 0.20653 0.0
O677 O 0.58096 0.50948 0.19748 0.0
O678 O 0.63893 0.44894 0.21586 0.0
C679 C 0.29507 0.32181 0.20394 0.0
Tb680 Tb 0.77261 0.16901 0.2069 0.0
C681 C 0.84457 0.09639 0.23915 0.0
Tb682 Tb 0.99421 0.2259 0.20853 0.0
O683 O 0.72237 1.0065 0.20974 0.0
O684 O 0.86064 0.10719 0.19871 0.0
O685 O 0.7791 0.12266 0.23318 0.0
C686 C 0.1878 0.28127 0.20728 0.0
O687 O 0.93562 0.12952 0.23198 0.0
C688 C 0.95984 0.3779 0.20696 0.0
C689 C 0.90152 0.22169 0.17232 0.0
O690 O 0.15016 0.32346 0.21697 0.0
O691 O 0.11595 0.20143 0.19982 0.0
O692 O 1.0356 0.37659 0.20006 0.0
O693 O 0.9082 0.29772 0.21561 0.0
O694 O 0.97066 0.21005 0.18076 0.0
O695 O 0.82335 0.22037 0.18029 0.0
C696 C 0.60193 0.17737 0.20654 0.0
O697 O 0.62002 0.1166 0.1975 0.0
O698 O 0.68063 0.23527 0.21585 0.0
C699 C 0.80776 1.01852 0.20394 0.0
Tb700 Tb 0.96054 0.64887 0.2069 0.0
C701 C 1.03315 0.79342 0.23915 0.0
Tb702 Tb 0.90366 0.81359 0.20854 0.0
O703 O 0.12307 0.76114 0.20974 0.0
O704 O 1.02235 0.79874 0.19871 0.0
O705 O 1.00688 0.70169 0.23318 0.0
C706 C 0.84831 0.95182 0.20729 0.0
O707 O 1.00003 0.85136 0.23199 0.0
C708 C 0.75163 0.62726 0.20699 0.0
C709 C 0.90786 0.72513 0.17232 0.0
O710 O 0.8061 0.87197 0.21697 0.0
O711 O 0.92815 0.95981 0.19983 0.0
O712 O 0.75295 0.7043 0.20007 0.0
O713 O 0.83186 0.65577 0.21562 0.0
O714 O 0.9195 0.8059 0.18077 0.0
O715 O 0.90916 0.64826 0.18029 0.0
C716 C 0.95218 0.46983 0.20654 0.0
O717 O 1.01295 0.54869 0.1975 0.0
O718 O 0.89426 0.49062 0.21584 0.0
C719 C 0.11099 0.8345 0.20396 0.0
loop_
_geom_bond_atom_site_label_1
_geom_bond_atom_site_label_2
_geom_bond_distance
_geom_bond_site_symmetry_2
_ccdc_geom_bond_type
Tb0 O3 2.453 1_545 S
Tb0 O4 2.596 1_545 S
Tb0 O5 2.374 . S
Tb0 O13 2.343 . S
Tb0 O15 2.353 . S
Tb0 O17 2.427 . S
Tb0 O18 2.513 . S
C1 O5 1.251 . S
C1 O7 1.263 . S
Tb2 O4 2.343 . S
Tb2 O7 2.353 1_565 S
Tb2 O10 2.427 . S
Tb2 O11 2.513 . S
Tb2 O12 2.453 1_565 S
Tb2 O13 2.596 1_565 S
Tb2 O14 2.374 1_565 S
O3 Tb0 2.453 1_565 S
O3 C19 1.245 . S
O4 Tb0 2.596 1_565 S
O4 Tb2 2.343 . S
O4 C19 1.259 . S
O5 Tb0 2.374 . S
O5 C1 1.251 . S
C6 O10 1.275 . S
C6 O11 1.246 . S
O7 C1 1.263 . S
O7 Tb2 2.353 1_545 S
C8 O12 1.245 . S
C8 O13 1.259 . S
C9 O14 1.250 . S
C9 O15 1.263 . S
O10 Tb2 2.427 . S
O10 C6 1.275 . S
O11 Tb2 2.513 . S
O11 C6 1.246 . S
O12 Tb2 2.453 1_545 S
O12 C8 1.245 . S
O13 Tb0 2.343 . S
O13 Tb2 2.596 1_545 S
O13 C8 1.259 . S
O14 Tb2 2.374 1_545 S
O14 C9 1.250 . S
O15 Tb0 2.353 . S
O15 C9 1.263 . S
C16 O17 1.275 . S
C16 O18 1.246 . S
O17 Tb0 2.427 . S
O17 C16 1.275 . S
O18 Tb0 2.513 . S
O18 C16 1.246 . S
C19 O3 1.245 . S
C19 O4 1.259 . S
Tb20 O23 2.453 1_655 S
Tb20 O24 2.596 1_655 S
Tb20 O25 2.374 . S
Tb20 O33 2.343 . S
Tb20 O35 2.353 . S
Tb20 O37 2.427 . S
Tb20 O38 2.513 . S
C21 O25 1.249 1_455 S
C21 O27 1.263 . S
Tb22 O24 2.343 . S
Tb22 O27 2.353 . S
Tb22 O30 2.427 . S
Tb22 O31 2.513 . S
Tb22 O32 2.453 1_455 S
Tb22 O33 2.596 1_455 S
Tb22 O34 2.374 . S
O23 Tb20 2.453 1_455 S
O23 C39 1.245 . S
O24 Tb20 2.596 1_455 S
O24 Tb22 2.343 . S
O24 C39 1.259 . S
O25 Tb20 2.374 . S
O25 C21 1.249 1_655 S
C26 O30 1.275 . S
C26 O31 1.246 . S
O27 C21 1.263 . S
O27 Tb22 2.353 . S
C28 O32 1.245 . S
C28 O33 1.259 . S
C29 O34 1.250 1_655 S
C29 O35 1.263 . S
O30 Tb22 2.427 . S
O30 C26 1.275 . S
O31 Tb22 2.513 . S
O31 C26 1.246 . S
O32 Tb22 2.453 1_655 S
O32 C28 1.245 . S
O33 Tb20 2.343 . S
O33 Tb22 2.596 1_655 S
O33 C28 1.259 . S
O34 Tb22 2.374 . S
O34 C29 1.250 1_455 S
O35 Tb20 2.353 . S
O35 C29 1.263 . S
C36 O37 1.275 . S
C36 O38 1.246 . S
O37 Tb20 2.427 . S
O37 C36 1.275 . S
O38 Tb20 2.513 . S
O38 C36 1.246 . S
C39 O23 1.245 . S
C39 O24 1.259 . S
Tb40 O43 2.453 . S
Tb40 O44 2.596 . S
Tb40 O45 2.374 . S
Tb40 O53 2.343 . S
Tb40 O55 2.353 . S
Tb40 O57 2.427 . S
Tb40 O58 2.513 . S
C41 O45 1.251 . S
C41 O47 1.263 . S
Tb42 O44 2.343 . S
Tb42 O47 2.353 . S
Tb42 O50 2.427 . S
Tb42 O51 2.513 . S
Tb42 O52 2.453 . S
Tb42 O53 2.596 . S
Tb42 O54 2.374 . S
O43 Tb40 2.453 . S
O43 C59 1.245 . S
O44 Tb40 2.596 . S
O44 Tb42 2.343 . S
O44 C59 1.259 . S
O45 Tb40 2.374 . S
O45 C41 1.251 . S
C46 O50 1.275 . S
C46 O51 1.246 . S
O47 C41 1.263 . S
O47 Tb42 2.353 . S
C48 O52 1.245 . S
C48 O53 1.259 . S
C49 O54 1.250 . S
C49 O55 1.263 . S
O50 Tb42 2.427 . S
O50 C46 1.275 . S
O51 Tb42 2.513 . S
O51 C46 1.246 . S
O52 Tb42 2.453 . S
O52 C48 1.245 . S
O53 Tb40 2.343 . S
O53 Tb42 2.596 . S
O53 C48 1.259 . S
O54 Tb42 2.374 . S
O54 C49 1.250 . S
O55 Tb40 2.353 . S
O55 C49 1.263 . S
C56 O57 1.275 . S
C56 O58 1.246 . S
O57 Tb40 2.427 . S
O57 C56 1.275 . S
O58 Tb40 2.513 . S
O58 C56 1.246 . S
C59 O43 1.245 . S
C59 O44 1.259 . S
Tb60 O63 2.453 1_455 S
Tb60 O64 2.596 1_455 S
Tb60 O65 2.374 . S
Tb60 O73 2.343 . S
Tb60 O75 2.353 . S
Tb60 O77 2.427 . S
Tb60 O78 2.513 . S
C61 O65 1.251 . S
C61 O67 1.263 . S
Tb62 O64 2.343 . S
Tb62 O67 2.353 1_655 S
Tb62 O70 2.427 . S
Tb62 O71 2.513 . S
Tb62 O72 2.453 1_655 S
Tb62 O73 2.596 1_655 S
Tb62 O74 2.374 1_655 S
O63 Tb60 2.453 1_655 S
O63 C79 1.245 . S
O64 Tb60 2.596 1_655 S
O64 Tb62 2.343 . S
O64 C79 1.259 . S
O65 Tb60 2.374 . S
O65 C61 1.251 . S
C66 O70 1.275 . S
C66 O71 1.246 . S
O67 C61 1.263 . S
O67 Tb62 2.353 1_455 S
C68 O72 1.245 . S
C68 O73 1.259 . S
C69 O74 1.250 . S
C69 O75 1.263 . S
O70 Tb62 2.427 . S
O70 C66 1.275 . S
O71 Tb62 2.513 . S
O71 C66 1.246 . S
O72 Tb62 2.453 1_455 S
O72 C68 1.245 . S
O73 Tb60 2.343 . S
O73 Tb62 2.596 1_455 S
O73 C68 1.259 . S
O74 Tb62 2.374 1_455 S
O74 C69 1.250 . S
O75 Tb60 2.353 . S
O75 C69 1.263 . S
C76 O77 1.275 . S
C76 O78 1.246 . S
O77 Tb60 2.427 . S
O77 C76 1.275 . S
O78 Tb60 2.513 . S
O78 C76 1.246 . S
C79 O63 1.245 . S
C79 O64 1.259 . S
Tb80 O83 2.453 . S
Tb80 O84 2.596 . S
Tb80 O85 2.374 . S
Tb80 O93 2.343 . S
Tb80 O95 2.353 . S
Tb80 O97 2.427 . S
Tb80 O98 2.513 . S
C81 O85 1.251 . S
C81 O87 1.263 . S
Tb82 O84 2.343 . S
Tb82 O87 2.353 . S
Tb82 O90 2.427 . S
Tb82 O91 2.513 . S
Tb82 O92 2.453 . S
Tb82 O93 2.596 . S
Tb82 O94 2.374 . S
O83 Tb80 2.453 . S
O83 C99 1.245 . S
O84 Tb80 2.596 . S
O84 Tb82 2.343 . S
O84 C99 1.259 . S
O85 Tb80 2.374 . S
O85 C81 1.251 . S
C86 O90 1.275 . S
C86 O91 1.246 . S
O87 C81 1.263 . S
O87 Tb82 2.353 . S
C88 O92 1.245 . S
C88 O93 1.259 . S
C89 O94 1.250 . S
C89 O95 1.263 . S
O90 Tb82 2.427 . S
O90 C86 1.275 . S
O91 Tb82 2.513 . S
O91 C86 1.246 . S
O92 Tb82 2.453 . S
O92 C88 1.245 . S
O93 Tb80 2.343 . S
O93 Tb82 2.596 . S
O93 C88 1.259 . S
O94 Tb82 2.374 . S
O94 C89 1.250 . S
O95 Tb80 2.353 . S
O95 C89 1.263 . S
C96 O97 1.275 . S
C96 O98 1.246 . S
O97 Tb80 2.427 . S
O97 C96 1.275 . S
O98 Tb80 2.513 . S
O98 C96 1.246 . S
C99 O83 1.245 . S
C99 O84 1.259 . S
Tb100 O103 2.453 1_565 S
Tb100 O104 2.596 1_565 S
Tb100 O105 2.374 . S
Tb100 O113 2.343 . S
Tb100 O115 2.353 . S
Tb100 O117 2.427 . S
Tb100 O118 2.513 . S
C101 O105 1.249 1_545 S
C101 O107 1.263 . S
Tb102 O104 2.343 . S
Tb102 O107 2.353 . S
Tb102 O110 2.427 . S
Tb102 O111 2.513 . S
Tb102 O112 2.453 1_545 S
Tb102 O113 2.596 1_545 S
Tb102 O114 2.374 . S
O103 Tb100 2.453 1_545 S
O103 C119 1.245 . S
O104 Tb100 2.596 1_545 S
O104 Tb102 2.343 . S
O104 C119 1.259 . S
O105 Tb100 2.374 . S
O105 C101 1.249 1_565 S
C106 O110 1.275 . S
C106 O111 1.246 . S
O107 C101 1.263 . S
O107 Tb102 2.353 . S
C108 O112 1.245 . S
C108 O113 1.259 . S
C109 O114 1.250 1_565 S
C109 O115 1.263 . S
O110 Tb102 2.427 . S
O110 C106 1.275 . S
O111 Tb102 2.513 . S
O111 C106 1.246 . S
O112 Tb102 2.453 1_565 S
O112 C108 1.245 . S
O113 Tb100 2.343 . S
O113 Tb102 2.596 1_565 S
O113 C108 1.259 . S
O114 Tb102 2.374 . S
O114 C109 1.250 1_545 S
O115 Tb100 2.353 . S
O115 C109 1.263 . S
C116 O117 1.275 . S
C116 O118 1.246 . S
O117 Tb100 2.427 . S
O117 C116 1.275 . S
O118 Tb100 2.513 . S
O118 C116 1.246 . S
C119 O103 1.245 . S
C119 O104 1.259 . S
Tb120 O123 2.453 1_545 S
Tb120 O124 2.596 1_545 S
Tb120 O125 2.374 . S
Tb120 O133 2.343 . S
Tb120 O135 2.353 . S
Tb120 O137 2.427 . S
Tb120 O138 2.513 . S
C121 O125 1.251 1_565 S
C121 O127 1.263 . S
Tb122 O124 2.343 . S
Tb122 O127 2.353 . S
Tb122 O130 2.427 . S
Tb122 O131 2.513 . S
Tb122 O132 2.453 1_565 S
Tb122 O133 2.596 1_565 S
Tb122 O134 2.374 . S
O123 Tb120 2.453 1_565 S
O123 C139 1.245 . S
O124 Tb120 2.596 1_565 S
O124 Tb122 2.343 . S
O124 C139 1.259 . S
O125 Tb120 2.374 . S
O125 C121 1.251 1_545 S
C126 O130 1.275 . S
C126 O131 1.246 . S
O127 C121 1.263 . S
O127 Tb122 2.353 . S
C128 O132 1.245 . S
C128 O133 1.259 . S
C129 O134 1.250 1_545 S
C129 O135 1.263 . S
O130 Tb122 2.427 . S
O130 C126 1.275 . S
O131 Tb122 2.513 . S
O131 C126 1.246 . S
O132 Tb122 2.453 1_545 S
O132 C128 1.245 . S
O133 Tb120 2.343 . S
O133 Tb122 2.596 1_545 S
O133 C128 1.259 . S
O134 Tb122 2.374 . S
O134 C129 1.250 1_565 S
O135 Tb120 2.353 . S
O135 C129 1.263 . S
C136 O137 1.275 . S
C136 O138 1.246 . S
O137 Tb120 2.427 . S
O137 C136 1.275 . S
O138 Tb120 2.513 . S
O138 C136 1.246 . S
C139 O123 1.245 . S
C139 O124 1.259 . S
Tb140 O143 2.453 1_655 S
Tb140 O144 2.596 1_655 S
Tb140 O145 2.374 1_655 S
Tb140 O153 2.343 . S
Tb140 O155 2.353 1_655 S
Tb140 O157 2.427 . S
Tb140 O158 2.513 . S
C141 O145 1.251 . S
C141 O147 1.263 . S
Tb142 O144 2.343 . S
Tb142 O147 2.353 . S
Tb142 O150 2.427 . S
Tb142 O151 2.513 . S
Tb142 O152 2.453 1_455 S
Tb142 O153 2.596 1_455 S
Tb142 O154 2.374 . S
O143 Tb140 2.453 1_455 S
O143 C159 1.245 . S
O144 Tb140 2.596 1_455 S
O144 Tb142 2.343 . S
O144 C159 1.259 . S
O145 Tb140 2.374 1_455 S
O145 C141 1.251 . S
C146 O150 1.275 . S
C146 O151 1.246 . S
O147 C141 1.263 . S
O147 Tb142 2.353 . S
C148 O152 1.245 . S
C148 O153 1.259 . S
C149 O154 1.250 . S
C149 O155 1.263 . S
O150 Tb142 2.427 . S
O150 C146 1.275 . S
O151 Tb142 2.513 . S
O151 C146 1.246 . S
O152 Tb142 2.453 1_655 S
O152 C148 1.245 . S
O153 Tb140 2.343 . S
O153 Tb142 2.596 1_655 S
O153 C148 1.259 . S
O154 Tb142 2.374 . S
O154 C149 1.250 . S
O155 Tb140 2.353 1_455 S
O155 C149 1.263 . S
C156 O157 1.275 . S
C156 O158 1.246 . S
O157 Tb140 2.427 . S
O157 C156 1.275 . S
O158 Tb140 2.513 . S
O158 C156 1.246 . S
C159 O143 1.245 . S
C159 O144 1.259 . S
Tb160 O163 2.453 . S
Tb160 O164 2.596 . S
Tb160 O165 2.374 . S
Tb160 O173 2.343 . S
Tb160 O175 2.353 . S
Tb160 O177 2.427 . S
Tb160 O178 2.513 . S
C161 O165 1.251 . S
C161 O167 1.263 . S
Tb162 O164 2.343 . S
Tb162 O167 2.353 . S
Tb162 O170 2.427 . S
Tb162 O171 2.513 . S
Tb162 O172 2.453 . S
Tb162 O173 2.596 . S
Tb162 O174 2.374 . S
O163 Tb160 2.453 . S
O163 C179 1.245 . S
O164 Tb160 2.596 . S
O164 Tb162 2.343 . S
O164 C179 1.259 . S
O165 Tb160 2.374 . S
O165 C161 1.251 . S
C166 O170 1.275 . S
C166 O171 1.246 . S
O167 C161 1.263 . S
O167 Tb162 2.353 . S
C168 O172 1.245 . S
C168 O173 1.259 . S
C169 O174 1.250 . S
C169 O175 1.263 . S
O170 Tb162 2.427 . S
O170 C166 1.275 . S
O171 Tb162 2.513 . S
O171 C166 1.246 . S
O172 Tb162 2.453 . S
O172 C168 1.245 . S
O173 Tb160 2.343 . S
O173 Tb162 2.596 . S
O173 C168 1.259 . S
O174 Tb162 2.374 . S
O174 C169 1.250 . S
O175 Tb160 2.353 . S
O175 C169 1.263 . S
C176 O177 1.275 . S
C176 O178 1.246 . S
O177 Tb160 2.427 . S
O177 C176 1.275 . S
O178 Tb160 2.513 . S
O178 C176 1.246 . S
C179 O163 1.245 . S
C179 O164 1.259 . S
Tb180 O183 2.453 1_455 S
Tb180 O184 2.596 1_455 S
Tb180 O185 2.374 . S
Tb180 O193 2.343 . S
Tb180 O195 2.353 . S
Tb180 O197 2.427 . S
Tb180 O198 2.513 . S
C181 O185 1.251 1_655 S
C181 O187 1.263 . S
Tb182 O184 2.343 . S
Tb182 O187 2.353 . S
Tb182 O190 2.427 . S
Tb182 O191 2.513 . S
Tb182 O192 2.453 1_655 S
Tb182 O193 2.596 1_655 S
Tb182 O194 2.374 . S
O183 Tb180 2.453 1_655 S
O183 C199 1.245 . S
O184 Tb180 2.596 1_655 S
O184 Tb182 2.343 . S
O184 C199 1.259 . S
O185 Tb180 2.374 . S
O185 C181 1.251 1_455 S
C186 O190 1.275 . S
C186 O191 1.246 . S
O187 C181 1.263 . S
O187 Tb182 2.353 . S
C188 O192 1.245 . S
C188 O193 1.259 . S
C189 O194 1.250 1_455 S
C189 O195 1.263 . S
O190 Tb182 2.427 . S
O190 C186 1.275 . S
O191 Tb182 2.513 . S
O191 C186 1.246 . S
O192 Tb182 2.453 1_455 S
O192 C188 1.245 . S
O193 Tb180 2.343 . S
O193 Tb182 2.596 1_455 S
O193 C188 1.259 . S
O194 Tb182 2.374 . S
O194 C189 1.250 1_655 S
O195 Tb180 2.353 . S
O195 C189 1.263 . S
C196 O197 1.275 . S
C196 O198 1.246 . S
O197 Tb180 2.427 . S
O197 C196 1.275 . S
O198 Tb180 2.513 . S
O198 C196 1.246 . S
C199 O183 1.245 . S
C199 O184 1.259 . S
Tb200 O203 2.453 . S
Tb200 O204 2.596 . S
Tb200 O205 2.374 . S
Tb200 O213 2.343 . S
Tb200 O215 2.353 . S
Tb200 O217 2.427 . S
Tb200 O218 2.513 . S
C201 O205 1.251 . S
C201 O207 1.263 . S
Tb202 O204 2.343 . S
Tb202 O207 2.353 . S
Tb202 O210 2.427 . S
Tb202 O211 2.513 . S
Tb202 O212 2.453 . S
Tb202 O213 2.596 . S
Tb202 O214 2.374 . S
O203 Tb200 2.453 . S
O203 C219 1.245 . S
O204 Tb200 2.596 . S
O204 Tb202 2.343 . S
O204 C219 1.259 . S
O205 Tb200 2.374 . S
O205 C201 1.251 . S
C206 O210 1.275 . S
C206 O211 1.246 . S
O207 C201 1.263 . S
O207 Tb202 2.353 . S
C208 O212 1.245 . S
C208 O213 1.259 . S
C209 O214 1.250 . S
C209 O215 1.263 . S
O210 Tb202 2.427 . S
O210 C206 1.275 . S
O211 Tb202 2.513 . S
O211 C206 1.246 . S
O212 Tb202 2.453 . S
O212 C208 1.245 . S
O213 Tb200 2.343 . S
O213 Tb202 2.596 . S
O213 C208 1.259 . S
O214 Tb202 2.374 . S
O214 C209 1.250 . S
O215 Tb200 2.353 . S
O215 C209 1.263 . S
C216 O217 1.275 . S
C216 O218 1.246 . S
O217 Tb200 2.427 . S
O217 C216 1.275 . S
O218 Tb200 2.513 . S
O218 C216 1.246 . S
C219 O203 1.245 . S
C219 O204 1.259 . S
Tb220 O223 2.453 1_565 S
Tb220 O224 2.596 1_565 S
Tb220 O225 2.374 1_565 S
Tb220 O233 2.343 . S
Tb220 O235 2.353 1_565 S
Tb220 O237 2.427 . S
Tb220 O238 2.513 . S
C221 O225 1.251 . S
C221 O227 1.263 . S
Tb222 O224 2.343 . S
Tb222 O227 2.353 . S
Tb222 O230 2.427 . S
Tb222 O231 2.513 . S
Tb222 O232 2.453 1_545 S
Tb222 O233 2.596 1_545 S
Tb222 O234 2.374 . S
O223 Tb220 2.453 1_545 S
O223 C239 1.245 . S
O224 Tb220 2.596 1_545 S
O224 Tb222 2.343 . S
O224 C239 1.259 . S
O225 Tb220 2.374 1_545 S
O225 C221 1.251 . S
C226 O230 1.275 . S
C226 O231 1.246 . S
O227 C221 1.263 . S
O227 Tb222 2.353 . S
C228 O232 1.245 . S
C228 O233 1.259 . S
C229 O234 1.250 . S
C229 O235 1.263 . S
O230 Tb222 2.427 . S
O230 C226 1.275 . S
O231 Tb222 2.513 . S
O231 C226 1.246 . S
O232 Tb222 2.453 1_565 S
O232 C228 1.245 . S
O233 Tb220 2.343 . S
O233 Tb222 2.596 1_565 S
O233 C228 1.259 . S
O234 Tb222 2.374 . S
O234 C229 1.250 . S
O235 Tb220 2.353 1_545 S
O235 C229 1.263 . S
C236 O237 1.275 . S
C236 O238 1.246 . S
O237 Tb220 2.427 . S
O237 C236 1.275 . S
O238 Tb220 2.513 . S
O238 C236 1.246 . S
C239 O223 1.245 . S
C239 O224 1.259 . S
Tb240 O243 2.453 . S
Tb240 O244 2.596 . S
Tb240 O245 2.374 . S
Tb240 O253 2.343 . S
Tb240 O255 2.353 . S
Tb240 O257 2.427 . S
Tb240 O258 2.513 . S
C241 O245 1.251 . S
C241 O247 1.263 . S
Tb242 O244 2.343 . S
Tb242 O247 2.353 . S
Tb242 O250 2.427 1_455 S
Tb242 O251 2.513 1_455 S
Tb242 O252 2.453 . S
Tb242 O253 2.596 . S
Tb242 O254 2.374 . S
O243 Tb240 2.453 . S
O243 C259 1.245 . S
O244 Tb240 2.596 . S
O244 Tb242 2.343 . S
O244 C259 1.259 . S
O245 Tb240 2.374 . S
O245 C241 1.251 . S
C246 O250 1.275 . S
C246 O251 1.246 . S
O247 C241 1.263 . S
O247 Tb242 2.353 . S
C248 O252 1.245 . S
C248 O253 1.259 . S
C249 O254 1.250 . S
C249 O255 1.263 . S
O250 Tb242 2.427 1_655 S
O250 C246 1.275 . S
O251 Tb242 2.513 1_655 S
O251 C246 1.246 . S
O252 Tb242 2.453 . S
O252 C248 1.245 . S
O253 Tb240 2.343 . S
O253 Tb242 2.596 . S
O253 C248 1.259 . S
O254 Tb242 2.374 . S
O254 C249 1.250 . S
O255 Tb240 2.353 . S
O255 C249 1.263 . S
C256 O257 1.275 . S
C256 O258 1.246 . S
O257 Tb240 2.427 . S
O257 C256 1.275 . S
O258 Tb240 2.513 . S
O258 C256 1.246 . S
C259 O243 1.245 . S
C259 O244 1.259 . S
Tb260 O263 2.453 1_565 S
Tb260 O264 2.596 . S
Tb260 O265 2.374 . S
Tb260 O273 2.343 . S
Tb260 O275 2.353 . S
Tb260 O277 2.427 . S
Tb260 O278 2.513 . S
C261 O265 1.251 . S
C261 O267 1.263 . S
Tb262 O264 2.343 . S
Tb262 O267 2.353 . S
Tb262 O270 2.427 . S
Tb262 O271 2.513 . S
Tb262 O272 2.453 . S
Tb262 O273 2.596 . S
Tb262 O274 2.374 . S
O263 Tb260 2.453 1_545 S
O263 C279 1.245 . S
O264 Tb260 2.596 . S
O264 Tb262 2.343 . S
O264 C279 1.259 1_565 S
O265 Tb260 2.374 . S
O265 C261 1.251 . S
C266 O270 1.275 . S
C266 O271 1.246 . S
O267 C261 1.263 . S
O267 Tb262 2.353 . S
C268 O272 1.245 . S
C268 O273 1.259 . S
C269 O274 1.250 . S
C269 O275 1.263 . S
O270 Tb262 2.427 . S
O270 C266 1.275 . S
O271 Tb262 2.513 . S
O271 C266 1.246 . S
O272 Tb262 2.453 . S
O272 C268 1.245 . S
O273 Tb260 2.343 . S
O273 Tb262 2.596 . S
O273 C268 1.259 . S
O274 Tb262 2.374 . S
O274 C269 1.250 . S
O275 Tb260 2.353 . S
O275 C269 1.263 . S
C276 O277 1.275 . S
C276 O278 1.246 . S
O277 Tb260 2.427 . S
O277 C276 1.275 . S
O278 Tb260 2.513 . S
O278 C276 1.246 . S
C279 O263 1.245 . S
C279 O264 1.259 1_545 S
Tb280 O283 2.453 . S
Tb280 O284 2.596 . S
Tb280 O285 2.374 . S
Tb280 O293 2.343 . S
Tb280 O295 2.353 . S
Tb280 O297 2.427 . S
Tb280 O298 2.513 . S
C281 O285 1.251 . S
C281 O287 1.263 . S
Tb282 O284 2.343 1_545 S
Tb282 O287 2.353 1_545 S
Tb282 O290 2.427 . S
Tb282 O291 2.513 . S
Tb282 O292 2.453 1_545 S
Tb282 O293 2.596 1_545 S
Tb282 O294 2.374 1_545 S
O283 Tb280 2.453 . S
O283 C299 1.245 . S
O284 Tb280 2.596 . S
O284 Tb282 2.343 1_565 S
O284 C299 1.259 . S
O285 Tb280 2.374 . S
O285 C281 1.251 . S
C286 O290 1.275 . S
C286 O291 1.246 . S
O287 C281 1.263 . S
O287 Tb282 2.353 1_565 S
C288 O292 1.245 . S
C288 O293 1.259 . S
C289 O294 1.250 . S
C289 O295 1.263 . S
O290 Tb282 2.427 . S
O290 C286 1.275 . S
O291 Tb282 2.513 . S
O291 C286 1.246 . S
O292 Tb282 2.453 1_565 S
O292 C288 1.245 . S
O293 Tb280 2.343 . S
O293 Tb282 2.596 1_565 S
O293 C288 1.259 . S
O294 Tb282 2.374 1_565 S
O294 C289 1.250 . S
O295 Tb280 2.353 . S
O295 C289 1.263 . S
C296 O297 1.275 . S
C296 O298 1.246 . S
O297 Tb280 2.427 . S
O297 C296 1.275 . S
O298 Tb280 2.513 . S
O298 C296 1.246 . S
C299 O283 1.245 . S
C299 O284 1.259 . S
Tb300 O303 2.453 . S
Tb300 O304 2.596 . S
Tb300 O305 2.374 . S
Tb300 O313 2.343 . S
Tb300 O315 2.353 . S
Tb300 O317 2.427 1_565 S
Tb300 O318 2.513 1_565 S
C301 O305 1.251 . S
C301 O307 1.263 . S
Tb302 O304 2.343 . S
Tb302 O307 2.353 . S
Tb302 O310 2.427 . S
Tb302 O311 2.513 . S
Tb302 O312 2.453 . S
Tb302 O313 2.596 . S
Tb302 O314 2.374 . S
O303 Tb300 2.453 . S
O303 C319 1.245 . S
O304 Tb300 2.596 . S
O304 Tb302 2.343 . S
O304 C319 1.259 . S
O305 Tb300 2.374 . S
O305 C301 1.251 . S
C306 O310 1.275 . S
C306 O311 1.246 . S
O307 C301 1.263 . S
O307 Tb302 2.353 . S
C308 O312 1.245 . S
C308 O313 1.259 . S
C309 O314 1.250 . S
C309 O315 1.263 . S
O310 Tb302 2.427 . S
O310 C306 1.275 . S
O311 Tb302 2.513 . S
O311 C306 1.246 . S
O312 Tb302 2.453 . S
O312 C308 1.245 . S
O313 Tb300 2.343 . S
O313 Tb302 2.596 . S
O313 C308 1.259 . S
O314 Tb302 2.374 . S
O314 C309 1.250 . S
O315 Tb300 2.353 . S
O315 C309 1.263 . S
C316 O317 1.275 . S
C316 O318 1.246 . S
O317 Tb300 2.427 1_545 S
O317 C316 1.275 . S
O318 Tb300 2.513 1_545 S
O318 C316 1.246 . S
C319 O303 1.245 . S
C319 O304 1.259 . S
Tb320 O323 2.453 . S
Tb320 O324 2.596 . S
Tb320 O325 2.374 . S
Tb320 O333 2.343 . S
Tb320 O335 2.353 . S
Tb320 O337 2.427 1_455 S
Tb320 O338 2.513 1_455 S
C321 O325 1.251 . S
C321 O327 1.263 . S
Tb322 O324 2.343 . S
Tb322 O327 2.353 . S
Tb322 O330 2.427 . S
Tb322 O331 2.513 . S
Tb322 O332 2.453 1_565 S
Tb322 O333 2.596 . S
Tb322 O334 2.374 . S
O323 Tb320 2.453 . S
O323 C339 1.245 . S
O324 Tb320 2.596 . S
O324 Tb322 2.343 . S
O324 C339 1.259 . S
O325 Tb320 2.374 . S
O325 C321 1.251 . S
C326 O330 1.275 . S
C326 O331 1.246 . S
O327 C321 1.263 . S
O327 Tb322 2.353 . S
C328 O332 1.245 . S
C328 O333 1.259 1_545 S
C329 O334 1.250 . S
C329 O335 1.263 . S
O330 Tb322 2.427 . S
O330 C326 1.275 . S
O331 Tb322 2.513 . S
O331 C326 1.246 . S
O332 Tb322 2.453 1_545 S
O332 C328 1.245 . S
O333 Tb320 2.343 . S
O333 Tb322 2.596 . S
O333 C328 1.259 1_565 S
O334 Tb322 2.374 . S
O334 C329 1.250 . S
O335 Tb320 2.353 . S
O335 C329 1.263 . S
C336 O337 1.275 . S
C336 O338 1.246 . S
O337 Tb320 2.427 1_655 S
O337 C336 1.275 . S
O338 Tb320 2.513 1_655 S
O338 C336 1.246 . S
C339 O323 1.245 . S
C339 O324 1.259 . S
Tb340 O343 2.453 . S
Tb340 O344 2.596 . S
Tb340 O345 2.374 . S
Tb340 O353 2.343 . S
Tb340 O355 2.353 . S
Tb340 O357 2.427 . S
Tb340 O358 2.513 . S
C341 O345 1.251 . S
C341 O347 1.263 . S
Tb342 O344 2.343 . S
Tb342 O347 2.353 . S
Tb342 O350 2.427 . S
Tb342 O351 2.513 . S
Tb342 O352 2.453 1_455 S
Tb342 O353 2.596 . S
Tb342 O354 2.374 . S
O343 Tb340 2.453 . S
O343 C359 1.245 . S
O344 Tb340 2.596 . S
O344 Tb342 2.343 . S
O344 C359 1.259 . S
O345 Tb340 2.374 . S
O345 C341 1.251 . S
C346 O350 1.275 . S
C346 O351 1.246 . S
O347 C341 1.263 . S
O347 Tb342 2.353 . S
C348 O352 1.245 1_455 S
C348 O353 1.259 . S
C349 O354 1.250 . S
C349 O355 1.263 . S
O350 Tb342 2.427 . S
O350 C346 1.275 . S
O351 Tb342 2.513 . S
O351 C346 1.246 . S
O352 Tb342 2.453 1_655 S
O352 C348 1.245 1_655 S
O353 Tb340 2.343 . S
O353 Tb342 2.596 . S
O353 C348 1.259 . S
O354 Tb342 2.374 . S
O354 C349 1.250 . S
O355 Tb340 2.353 . S
O355 C349 1.263 . S
C356 O357 1.275 . S
C356 O358 1.246 . S
O357 Tb340 2.427 . S
O357 C356 1.275 . S
O358 Tb340 2.513 . S
O358 C356 1.246 . S
C359 O343 1.245 . S
C359 O344 1.259 . S
Tb360 O363 2.453 . S
Tb360 O364 2.596 . S
Tb360 O365 2.374 . S
Tb360 O373 2.343 . S
Tb360 O375 2.353 . S
Tb360 O377 2.427 . S
Tb360 O378 2.513 . S
C361 O365 1.251 . S
C361 O367 1.263 . S
Tb362 O364 2.343 . S
Tb362 O367 2.353 . S
Tb362 O370 2.427 1_455 S
Tb362 O371 2.513 1_455 S
Tb362 O372 2.453 . S
Tb362 O373 2.596 . S
Tb362 O374 2.374 . S
O363 Tb360 2.453 . S
O363 C379 1.245 . S
O364 Tb360 2.596 . S
O364 Tb362 2.343 . S
O364 C379 1.259 . S
O365 Tb360 2.374 . S
O365 C361 1.251 . S
C366 O370 1.275 . S
C366 O371 1.246 . S
O367 C361 1.263 . S
O367 Tb362 2.353 . S
C368 O372 1.245 . S
C368 O373 1.259 . S
C369 O374 1.250 . S
C369 O375 1.263 . S
O370 Tb362 2.427 1_655 S
O370 C366 1.275 . S
O371 Tb362 2.513 1_655 S
O371 C366 1.246 . S
O372 Tb362 2.453 . S
O372 C368 1.245 . S
O373 Tb360 2.343 . S
O373 Tb362 2.596 . S
O373 C368 1.259 . S
O374 Tb362 2.374 . S
O374 C369 1.250 . S
O375 Tb360 2.353 . S
O375 C369 1.263 . S
C376 O377 1.275 . S
C376 O378 1.246 . S
O377 Tb360 2.427 . S
O377 C376 1.275 . S
O378 Tb360 2.513 . S
O378 C376 1.246 . S
C379 O363 1.245 . S
C379 O364 1.259 . S
Tb380 O383 2.453 1_565 S
Tb380 O384 2.596 . S
Tb380 O385 2.374 . S
Tb380 O393 2.343 . S
Tb380 O395 2.353 . S
Tb380 O397 2.427 . S
Tb380 O398 2.513 . S
C381 O385 1.251 . S
C381 O387 1.263 . S
Tb382 O384 2.343 . S
Tb382 O387 2.353 . S
Tb382 O390 2.427 . S
Tb382 O391 2.513 . S
Tb382 O392 2.453 . S
Tb382 O393 2.596 . S
Tb382 O394 2.374 . S
O383 Tb380 2.453 1_545 S
O383 C399 1.245 . S
O384 Tb380 2.596 . S
O384 Tb382 2.343 . S
O384 C399 1.259 1_565 S
O385 Tb380 2.374 . S
O385 C381 1.251 . S
C386 O390 1.275 . S
C386 O391 1.246 . S
O387 C381 1.263 . S
O387 Tb382 2.353 . S
C388 O392 1.245 . S
C388 O393 1.259 . S
C389 O394 1.250 . S
C389 O395 1.263 . S
O390 Tb382 2.427 . S
O390 C386 1.275 . S
O391 Tb382 2.513 . S
O391 C386 1.246 . S
O392 Tb382 2.453 . S
O392 C388 1.245 . S
O393 Tb380 2.343 . S
O393 Tb382 2.596 . S
O393 C388 1.259 . S
O394 Tb382 2.374 . S
O394 C389 1.250 . S
O395 Tb380 2.353 . S
O395 C389 1.263 . S
C396 O397 1.275 . S
C396 O398 1.246 . S
O397 Tb380 2.427 . S
O397 C396 1.275 . S
O398 Tb380 2.513 . S
O398 C396 1.246 . S
C399 O383 1.245 . S
C399 O384 1.259 1_545 S
Tb400 O403 2.453 1_455 S
Tb400 O404 2.596 . S
Tb400 O405 2.374 . S
Tb400 O413 2.343 . S
Tb400 O415 2.353 . S
Tb400 O417 2.427 . S
Tb400 O418 2.513 . S
C401 O405 1.251 . S
C401 O407 1.263 . S
Tb402 O404 2.343 . S
Tb402 O407 2.353 . S
Tb402 O410 2.427 1_565 S
Tb402 O411 2.513 1_565 S
Tb402 O412 2.453 . S
Tb402 O413 2.596 . S
Tb402 O414 2.374 . S
O403 Tb400 2.453 1_655 S
O403 C419 1.245 1_655 S
O404 Tb400 2.596 . S
O404 Tb402 2.343 . S
O404 C419 1.259 . S
O405 Tb400 2.374 . S
O405 C401 1.251 . S
C406 O410 1.275 . S
C406 O411 1.246 . S
O407 C401 1.263 . S
O407 Tb402 2.353 . S
C408 O412 1.245 . S
C408 O413 1.259 . S
C409 O414 1.250 . S
C409 O415 1.263 . S
O410 Tb402 2.427 1_545 S
O410 C406 1.275 . S
O411 Tb402 2.513 1_545 S
O411 C406 1.246 . S
O412 Tb402 2.453 . S
O412 C408 1.245 . S
O413 Tb400 2.343 . S
O413 Tb402 2.596 . S
O413 C408 1.259 . S
O414 Tb402 2.374 . S
O414 C409 1.250 . S
O415 Tb400 2.353 . S
O415 C409 1.263 . S
C416 O417 1.275 . S
C416 O418 1.246 . S
O417 Tb400 2.427 . S
O417 C416 1.275 . S
O418 Tb400 2.513 . S
O418 C416 1.246 . S
C419 O403 1.245 1_455 S
C419 O404 1.259 . S
Tb420 O423 2.453 1_545 S
Tb420 O424 2.596 1_545 S
Tb420 O425 2.374 1_545 S
Tb420 O433 2.343 1_545 S
Tb420 O435 2.353 1_545 S
Tb420 O437 2.427 . S
Tb420 O438 2.513 . S
C421 O425 1.251 . S
C421 O427 1.263 . S
Tb422 O424 2.343 . S
Tb422 O427 2.353 . S
Tb422 O430 2.427 . S
Tb422 O431 2.513 . S
Tb422 O432 2.453 . S
Tb422 O433 2.596 . S
Tb422 O434 2.374 . S
O423 Tb420 2.453 1_565 S
O423 C439 1.245 . S
O424 Tb420 2.596 1_565 S
O424 Tb422 2.343 . S
O424 C439 1.259 . S
O425 Tb420 2.374 1_565 S
O425 C421 1.251 . S
C426 O430 1.275 . S
C426 O431 1.246 . S
O427 C421 1.263 . S
O427 Tb422 2.353 . S
C428 O432 1.245 . S
C428 O433 1.259 . S
C429 O434 1.250 . S
C429 O435 1.263 . S
O430 Tb422 2.427 . S
O430 C426 1.275 . S
O431 Tb422 2.513 . S
O431 C426 1.246 . S
O432 Tb422 2.453 . S
O432 C428 1.245 . S
O433 Tb420 2.343 1_565 S
O433 Tb422 2.596 . S
O433 C428 1.259 . S
O434 Tb422 2.374 . S
O434 C429 1.250 . S
O435 Tb420 2.353 1_565 S
O435 C429 1.263 . S
C436 O437 1.275 . S
C436 O438 1.246 . S
O437 Tb420 2.427 . S
O437 C436 1.275 . S
O438 Tb420 2.513 . S
O438 C436 1.246 . S
C439 O423 1.245 . S
C439 O424 1.259 . S
Tb440 O443 2.453 . S
Tb440 O444 2.596 . S
Tb440 O445 2.374 . S
Tb440 O453 2.343 . S
Tb440 O455 2.353 . S
Tb440 O457 2.427 1_455 S
Tb440 O458 2.513 1_455 S
C441 O445 1.251 . S
C441 O447 1.263 . S
Tb442 O444 2.343 . S
Tb442 O447 2.353 . S
Tb442 O450 2.427 . S
Tb442 O451 2.513 . S
Tb442 O452 2.453 1_565 S
Tb442 O453 2.596 . S
Tb442 O454 2.374 . S
O443 Tb440 2.453 . S
O443 C459 1.245 . S
O444 Tb440 2.596 . S
O444 Tb442 2.343 . S
O444 C459 1.259 . S
O445 Tb440 2.374 . S
O445 C441 1.251 . S
C446 O450 1.275 . S
C446 O451 1.246 . S
O447 C441 1.263 . S
O447 Tb442 2.353 . S
C448 O452 1.245 . S
C448 O453 1.259 1_545 S
C449 O454 1.250 . S
C449 O455 1.263 . S
O450 Tb442 2.427 . S
O450 C446 1.275 . S
O451 Tb442 2.513 . S
O451 C446 1.246 . S
O452 Tb442 2.453 1_545 S
O452 C448 1.245 . S
O453 Tb440 2.343 . S
O453 Tb442 2.596 . S
O453 C448 1.259 1_565 S
O454 Tb442 2.374 . S
O454 C449 1.250 . S
O455 Tb440 2.353 . S
O455 C449 1.263 . S
C456 O457 1.275 . S
C456 O458 1.246 . S
O457 Tb440 2.427 1_655 S
O457 C456 1.275 . S
O458 Tb440 2.513 1_655 S
O458 C456 1.246 . S
C459 O443 1.245 . S
C459 O444 1.259 . S
Tb460 O463 2.453 . S
Tb460 O464 2.596 . S
Tb460 O465 2.374 . S
Tb460 O473 2.343 . S
Tb460 O475 2.353 . S
Tb460 O477 2.427 . S
Tb460 O478 2.513 . S
C461 O465 1.251 . S
C461 O467 1.263 . S
Tb462 O464 2.343 . S
Tb462 O467 2.353 . S
Tb462 O470 2.427 . S
Tb462 O471 2.513 . S
Tb462 O472 2.453 . S
Tb462 O473 2.596 . S
Tb462 O474 2.374 . S
O463 Tb460 2.453 . S
O463 C479 1.245 . S
O464 Tb460 2.596 . S
O464 Tb462 2.343 . S
O464 C479 1.259 . S
O465 Tb460 2.374 . S
O465 C461 1.251 . S
C466 O470 1.275 . S
C466 O471 1.246 . S
O467 C461 1.263 . S
O467 Tb462 2.353 . S
C468 O472 1.245 . S
C468 O473 1.259 . S
C469 O474 1.250 . S
C469 O475 1.263 . S
O470 Tb462 2.427 . S
O470 C466 1.275 . S
O471 Tb462 2.513 . S
O471 C466 1.246 . S
O472 Tb462 2.453 . S
O472 C468 1.245 . S
O473 Tb460 2.343 . S
O473 Tb462 2.596 . S
O473 C468 1.259 . S
O474 Tb462 2.374 . S
O474 C469 1.250 . S
O475 Tb460 2.353 . S
O475 C469 1.263 . S
C476 O477 1.275 . S
C476 O478 1.246 . S
O477 Tb460 2.427 . S
O477 C476 1.275 . S
O478 Tb460 2.513 . S
O478 C476 1.246 . S
C479 O463 1.245 . S
C479 O464 1.259 . S
Tb480 O483 2.453 . S
Tb480 O484 2.596 . S
Tb480 O485 2.374 . S
Tb480 O493 2.343 . S
Tb480 O495 2.353 . S
Tb480 O497 2.427 1_655 S
Tb480 O498 2.513 1_655 S
C481 O485 1.251 . S
C481 O487 1.263 . S
Tb482 O484 2.343 . S
Tb482 O487 2.353 . S
Tb482 O490 2.427 . S
Tb482 O491 2.513 . S
Tb482 O492 2.453 . S
Tb482 O493 2.596 . S
Tb482 O494 2.374 . S
O483 Tb480 2.453 . S
O483 C499 1.245 . S
O484 Tb480 2.596 . S
O484 Tb482 2.343 . S
O484 C499 1.259 . S
O485 Tb480 2.374 . S
O485 C481 1.251 . S
C486 O490 1.275 . S
C486 O491 1.246 . S
O487 C481 1.263 . S
O487 Tb482 2.353 . S
C488 O492 1.245 . S
C488 O493 1.259 . S
C489 O494 1.250 . S
C489 O495 1.263 . S
O490 Tb482 2.427 . S
O490 C486 1.275 . S
O491 Tb482 2.513 . S
O491 C486 1.246 . S
O492 Tb482 2.453 . S
O492 C488 1.245 . S
O493 Tb480 2.343 . S
O493 Tb482 2.596 . S
O493 C488 1.259 . S
O494 Tb482 2.374 . S
O494 C489 1.250 . S
O495 Tb480 2.353 . S
O495 C489 1.263 . S
C496 O497 1.275 . S
C496 O498 1.246 . S
O497 Tb480 2.427 1_455 S
O497 C496 1.275 . S
O498 Tb480 2.513 1_455 S
O498 C496 1.246 . S
C499 O483 1.245 . S
C499 O484 1.259 . S
Tb500 O503 2.453 . S
Tb500 O504 2.596 . S
Tb500 O505 2.374 . S
Tb500 O513 2.343 . S
Tb500 O515 2.353 . S
Tb500 O517 2.427 . S
Tb500 O518 2.513 . S
C501 O505 1.251 . S
C501 O507 1.263 . S
Tb502 O504 2.343 . S
Tb502 O507 2.353 . S
Tb502 O510 2.427 . S
Tb502 O511 2.513 . S
Tb502 O512 2.453 1_545 S
Tb502 O513 2.596 . S
Tb502 O514 2.374 . S
O503 Tb500 2.453 . S
O503 C519 1.245 . S
O504 Tb500 2.596 . S
O504 Tb502 2.343 . S
O504 C519 1.259 . S
O505 Tb500 2.374 . S
O505 C501 1.251 . S
C506 O510 1.275 . S
C506 O511 1.246 . S
O507 C501 1.263 . S
O507 Tb502 2.353 . S
C508 O512 1.245 1_545 S
C508 O513 1.259 . S
C509 O514 1.250 . S
C509 O515 1.263 . S
O510 Tb502 2.427 . S
O510 C506 1.275 . S
O511 Tb502 2.513 . S
O511 C506 1.246 . S
O512 Tb502 2.453 1_565 S
O512 C508 1.245 1_565 S
O513 Tb500 2.343 . S
O513 Tb502 2.596 . S
O513 C508 1.259 . S
O514 Tb502 2.374 . S
O514 C509 1.250 . S
O515 Tb500 2.353 . S
O515 C509 1.263 . S
C516 O517 1.275 . S
C516 O518 1.246 . S
O517 Tb500 2.427 . S
O517 C516 1.275 . S
O518 Tb500 2.513 . S
O518 C516 1.246 . S
C519 O503 1.245 . S
C519 O504 1.259 . S
Tb520 O523 2.453 . S
Tb520 O524 2.596 . S
Tb520 O525 2.374 . S
Tb520 O533 2.343 . S
Tb520 O535 2.353 . S
Tb520 O537 2.427 1_545 S
Tb520 O538 2.513 1_545 S
C521 O525 1.251 . S
C521 O527 1.263 . S
Tb522 O524 2.343 . S
Tb522 O527 2.353 . S
Tb522 O530 2.427 . S
Tb522 O531 2.513 . S
Tb522 O532 2.453 1_655 S
Tb522 O533 2.596 . S
Tb522 O534 2.374 . S
O523 Tb520 2.453 . S
O523 C539 1.245 . S
O524 Tb520 2.596 . S
O524 Tb522 2.343 . S
O524 C539 1.259 . S
O525 Tb520 2.374 . S
O525 C521 1.251 . S
C526 O530 1.275 . S
C526 O531 1.246 . S
O527 C521 1.263 . S
O527 Tb522 2.353 . S
C528 O532 1.245 . S
C528 O533 1.259 1_455 S
C529 O534 1.250 . S
C529 O535 1.263 . S
O530 Tb522 2.427 . S
O530 C526 1.275 . S
O531 Tb522 2.513 . S
O531 C526 1.246 . S
O532 Tb522 2.453 1_455 S
O532 C528 1.245 . S
O533 Tb520 2.343 . S
O533 Tb522 2.596 . S
O533 C528 1.259 1_655 S
O534 Tb522 2.374 . S
O534 C529 1.250 . S
O535 Tb520 2.353 . S
O535 C529 1.263 . S
C536 O537 1.275 . S
C536 O538 1.246 . S
O537 Tb520 2.427 1_565 S
O537 C536 1.275 . S
O538 Tb520 2.513 1_565 S
O538 C536 1.246 . S
C539 O523 1.245 . S
C539 O524 1.259 . S
Tb540 O543 2.453 . S
Tb540 O544 2.596 . S
Tb540 O545 2.374 . S
Tb540 O553 2.343 . S
Tb540 O555 2.353 . S
Tb540 O557 2.427 . S
Tb540 O558 2.513 . S
C541 O545 1.251 . S
C541 O547 1.263 . S
Tb542 O544 2.343 . S
Tb542 O547 2.353 . S
Tb542 O550 2.427 1_545 S
Tb542 O551 2.513 1_545 S
Tb542 O552 2.453 . S
Tb542 O553 2.596 . S
Tb542 O554 2.374 . S
O543 Tb540 2.453 . S
O543 C559 1.245 . S
O544 Tb540 2.596 . S
O544 Tb542 2.343 . S
O544 C559 1.259 . S
O545 Tb540 2.374 . S
O545 C541 1.251 . S
C546 O550 1.275 . S
C546 O551 1.246 . S
O547 C541 1.263 . S
O547 Tb542 2.353 . S
C548 O552 1.245 . S
C548 O553 1.259 . S
C549 O554 1.250 . S
C549 O555 1.263 . S
O550 Tb542 2.427 1_565 S
O550 C546 1.275 . S
O551 Tb542 2.513 1_565 S
O551 C546 1.246 . S
O552 Tb542 2.453 . S
O552 C548 1.245 . S
O553 Tb540 2.343 . S
O553 Tb542 2.596 . S
O553 C548 1.259 . S
O554 Tb542 2.374 . S
O554 C549 1.250 . S
O555 Tb540 2.353 . S
O555 C549 1.263 . S
C556 O557 1.275 . S
C556 O558 1.246 . S
O557 Tb540 2.427 . S
O557 C556 1.275 . S
O558 Tb540 2.513 . S
O558 C556 1.246 . S
C559 O543 1.245 . S
C559 O544 1.259 . S
Tb560 O563 2.453 . S
Tb560 O564 2.596 . S
Tb560 O565 2.374 . S
Tb560 O573 2.343 . S
Tb560 O575 2.353 . S
Tb560 O577 2.427 . S
Tb560 O578 2.513 . S
C561 O565 1.251 . S
C561 O567 1.263 . S
Tb562 O564 2.343 1_455 S
Tb562 O567 2.353 1_455 S
Tb562 O570 2.427 . S
Tb562 O571 2.513 . S
Tb562 O572 2.453 1_455 S
Tb562 O573 2.596 1_455 S
Tb562 O574 2.374 1_455 S
O563 Tb560 2.453 . S
O563 C579 1.245 . S
O564 Tb560 2.596 . S
O564 Tb562 2.343 1_655 S
O564 C579 1.259 . S
O565 Tb560 2.374 . S
O565 C561 1.251 . S
C566 O570 1.275 . S
C566 O571 1.246 . S
O567 C561 1.263 . S
O567 Tb562 2.353 1_655 S
C568 O572 1.245 . S
C568 O573 1.259 . S
C569 O574 1.250 . S
C569 O575 1.263 . S
O570 Tb562 2.427 . S
O570 C566 1.275 . S
O571 Tb562 2.513 . S
O571 C566 1.246 . S
O572 Tb562 2.453 1_655 S
O572 C568 1.245 . S
O573 Tb560 2.343 . S
O573 Tb562 2.596 1_655 S
O573 C568 1.259 . S
O574 Tb562 2.374 1_655 S
O574 C569 1.250 . S
O575 Tb560 2.353 . S
O575 C569 1.263 . S
C576 O577 1.275 . S
C576 O578 1.246 . S
O577 Tb560 2.427 . S
O577 C576 1.275 . S
O578 Tb560 2.513 . S
O578 C576 1.246 . S
C579 O563 1.245 . S
C579 O564 1.259 . S
Tb580 O583 2.453 1_655 S
Tb580 O584 2.596 . S
Tb580 O585 2.374 . S
Tb580 O593 2.343 . S
Tb580 O595 2.353 . S
Tb580 O597 2.427 . S
Tb580 O598 2.513 . S
C581 O585 1.251 . S
C581 O587 1.263 . S
Tb582 O584 2.343 . S
Tb582 O587 2.353 . S
Tb582 O590 2.427 . S
Tb582 O591 2.513 . S
Tb582 O592 2.453 . S
Tb582 O593 2.596 . S
Tb582 O594 2.374 . S
O583 Tb580 2.453 1_455 S
O583 C599 1.245 . S
O584 Tb580 2.596 . S
O584 Tb582 2.343 . S
O584 C599 1.259 1_655 S
O585 Tb580 2.374 . S
O585 C581 1.251 . S
C586 O590 1.275 . S
C586 O591 1.246 . S
O587 C581 1.263 . S
O587 Tb582 2.353 . S
C588 O592 1.245 . S
C588 O593 1.259 . S
C589 O594 1.250 . S
C589 O595 1.263 . S
O590 Tb582 2.427 . S
O590 C586 1.275 . S
O591 Tb582 2.513 . S
O591 C586 1.246 . S
O592 Tb582 2.453 . S
O592 C588 1.245 . S
O593 Tb580 2.343 . S
O593 Tb582 2.596 . S
O593 C588 1.259 . S
O594 Tb582 2.374 . S
O594 C589 1.250 . S
O595 Tb580 2.353 . S
O595 C589 1.263 . S
C596 O597 1.275 . S
C596 O598 1.246 . S
O597 Tb580 2.427 . S
O597 C596 1.275 . S
O598 Tb580 2.513 . S
O598 C596 1.246 . S
C599 O583 1.245 . S
C599 O584 1.259 1_455 S
Tb600 O603 2.453 1_455 S
Tb600 O604 2.596 1_455 S
Tb600 O605 2.374 1_455 S
Tb600 O613 2.343 1_455 S
Tb600 O615 2.353 1_455 S
Tb600 O617 2.427 . S
Tb600 O618 2.513 . S
C601 O605 1.251 . S
C601 O607 1.263 . S
Tb602 O604 2.343 . S
Tb602 O607 2.353 . S
Tb602 O610 2.427 . S
Tb602 O611 2.513 . S
Tb602 O612 2.453 . S
Tb602 O613 2.596 . S
Tb602 O614 2.374 . S
O603 Tb600 2.453 1_655 S
O603 C619 1.245 . S
O604 Tb600 2.596 1_655 S
O604 Tb602 2.343 . S
O604 C619 1.259 . S
O605 Tb600 2.374 1_655 S
O605 C601 1.251 . S
C606 O610 1.275 . S
C606 O611 1.246 . S
O607 C601 1.263 . S
O607 Tb602 2.353 . S
C608 O612 1.245 . S
C608 O613 1.259 . S
C609 O614 1.250 . S
C609 O615 1.263 . S
O610 Tb602 2.427 . S
O610 C606 1.275 . S
O611 Tb602 2.513 . S
O611 C606 1.246 . S
O612 Tb602 2.453 . S
O612 C608 1.245 . S
O613 Tb600 2.343 1_655 S
O613 Tb602 2.596 . S
O613 C608 1.259 . S
O614 Tb602 2.374 . S
O614 C609 1.250 . S
O615 Tb600 2.353 1_655 S
O615 C609 1.263 . S
C616 O617 1.275 . S
C616 O618 1.246 . S
O617 Tb600 2.427 . S
O617 C616 1.275 . S
O618 Tb600 2.513 . S
O618 C616 1.246 . S
C619 O603 1.245 . S
C619 O604 1.259 . S
Tb620 O623 2.453 . S
Tb620 O624 2.596 . S
Tb620 O625 2.374 . S
Tb620 O633 2.343 . S
Tb620 O635 2.353 . S
Tb620 O637 2.427 . S
Tb620 O638 2.513 . S
C621 O625 1.251 . S
C621 O627 1.263 . S
Tb622 O624 2.343 . S
Tb622 O627 2.353 . S
Tb622 O630 2.427 . S
Tb622 O631 2.513 . S
Tb622 O632 2.453 . S
Tb622 O633 2.596 . S
Tb622 O634 2.374 . S
O623 Tb620 2.453 . S
O623 C639 1.245 . S
O624 Tb620 2.596 . S
O624 Tb622 2.343 . S
O624 C639 1.259 . S
O625 Tb620 2.374 . S
O625 C621 1.251 . S
C626 O630 1.275 . S
C626 O631 1.246 . S
O627 C621 1.263 . S
O627 Tb622 2.353 . S
C628 O632 1.245 . S
C628 O633 1.259 . S
C629 O634 1.250 . S
C629 O635 1.263 . S
O630 Tb622 2.427 . S
O630 C626 1.275 . S
O631 Tb622 2.513 . S
O631 C626 1.246 . S
O632 Tb622 2.453 . S
O632 C628 1.245 . S
O633 Tb620 2.343 . S
O633 Tb622 2.596 . S
O633 C628 1.259 . S
O634 Tb622 2.374 . S
O634 C629 1.250 . S
O635 Tb620 2.353 . S
O635 C629 1.263 . S
C636 O637 1.275 . S
C636 O638 1.246 . S
O637 Tb620 2.427 . S
O637 C636 1.275 . S
O638 Tb620 2.513 . S
O638 C636 1.246 . S
C639 O623 1.245 . S
C639 O624 1.259 . S
Tb640 O643 2.453 . S
Tb640 O644 2.596 . S
Tb640 O645 2.374 . S
Tb640 O653 2.343 . S
Tb640 O655 2.353 . S
Tb640 O657 2.427 1_545 S
Tb640 O658 2.513 1_545 S
C641 O645 1.251 . S
C641 O647 1.263 . S
Tb642 O644 2.343 . S
Tb642 O647 2.353 . S
Tb642 O650 2.427 . S
Tb642 O651 2.513 . S
Tb642 O652 2.453 1_655 S
Tb642 O653 2.596 . S
Tb642 O654 2.374 . S
O643 Tb640 2.453 . S
O643 C659 1.245 . S
O644 Tb640 2.596 . S
O644 Tb642 2.343 . S
O644 C659 1.259 . S
O645 Tb640 2.374 . S
O645 C641 1.251 . S
C646 O650 1.275 . S
C646 O651 1.246 . S
O647 C641 1.263 . S
O647 Tb642 2.353 . S
C648 O652 1.245 . S
C648 O653 1.259 1_455 S
C649 O654 1.250 . S
C649 O655 1.263 . S
O650 Tb642 2.427 . S
O650 C646 1.275 . S
O651 Tb642 2.513 . S
O651 C646 1.246 . S
O652 Tb642 2.453 1_455 S
O652 C648 1.245 . S
O653 Tb640 2.343 . S
O653 Tb642 2.596 . S
O653 C648 1.259 1_655 S
O654 Tb642 2.374 . S
O654 C649 1.250 . S
O655 Tb640 2.353 . S
O655 C649 1.263 . S
C656 O657 1.275 . S
C656 O658 1.246 . S
O657 Tb640 2.427 1_565 S
O657 C656 1.275 . S
O658 Tb640 2.513 1_565 S
O658 C656 1.246 . S
C659 O643 1.245 . S
C659 O644 1.259 . S
Tb660 O663 2.453 . S
Tb660 O664 2.596 . S
Tb660 O665 2.374 . S
Tb660 O673 2.343 . S
Tb660 O675 2.353 . S
Tb660 O677 2.427 . S
Tb660 O678 2.513 . S
C661 O665 1.251 . S
C661 O667 1.263 . S
Tb662 O664 2.343 . S
Tb662 O667 2.353 . S
Tb662 O670 2.427 1_545 S
Tb662 O671 2.513 1_545 S
Tb662 O672 2.453 . S
Tb662 O673 2.596 . S
Tb662 O674 2.374 . S
O663 Tb660 2.453 . S
O663 C679 1.245 . S
O664 Tb660 2.596 . S
O664 Tb662 2.343 . S
O664 C679 1.259 . S
O665 Tb660 2.374 . S
O665 C661 1.251 . S
C666 O670 1.275 . S
C666 O671 1.246 . S
O667 C661 1.263 . S
O667 Tb662 2.353 . S
C668 O672 1.245 . S
C668 O673 1.259 . S
C669 O674 1.250 . S
C669 O675 1.263 . S
O670 Tb662 2.427 1_565 S
O670 C666 1.275 . S
O671 Tb662 2.513 1_565 S
O671 C666 1.246 . S
O672 Tb662 2.453 . S
O672 C668 1.245 . S
O673 Tb660 2.343 . S
O673 Tb662 2.596 . S
O673 C668 1.259 . S
O674 Tb662 2.374 . S
O674 C669 1.250 . S
O675 Tb660 2.353 . S
O675 C669 1.263 . S
C676 O677 1.275 . S
C676 O678 1.246 . S
O677 Tb660 2.427 . S
O677 C676 1.275 . S
O678 Tb660 2.513 . S
O678 C676 1.246 . S
C679 O663 1.245 . S
C679 O664 1.259 . S
Tb680 O683 2.453 1_545 S
Tb680 O684 2.596 . S
Tb680 O685 2.374 . S
Tb680 O693 2.343 . S
Tb680 O695 2.353 . S
Tb680 O697 2.427 . S
Tb680 O698 2.513 . S
C681 O685 1.251 . S
C681 O687 1.263 . S
Tb682 O684 2.343 . S
Tb682 O687 2.353 . S
Tb682 O690 2.427 1_655 S
Tb682 O691 2.513 1_655 S
Tb682 O692 2.453 . S
Tb682 O693 2.596 . S
Tb682 O694 2.374 . S
O683 Tb680 2.453 1_565 S
O683 C699 1.245 1_565 S
O684 Tb680 2.596 . S
O684 Tb682 2.343 . S
O684 C699 1.259 . S
O685 Tb680 2.374 . S
O685 C681 1.251 . S
C686 O690 1.275 . S
C686 O691 1.246 . S
O687 C681 1.263 . S
O687 Tb682 2.353 . S
C688 O692 1.245 . S
C688 O693 1.259 . S
C689 O694 1.250 . S
C689 O695 1.263 . S
O690 Tb682 2.427 1_455 S
O690 C686 1.275 . S
O691 Tb682 2.513 1_455 S
O691 C686 1.246 . S
O692 Tb682 2.453 . S
O692 C688 1.245 . S
O693 Tb680 2.343 . S
O693 Tb682 2.596 . S
O693 C688 1.259 . S
O694 Tb682 2.374 . S
O694 C689 1.250 . S
O695 Tb680 2.353 . S
O695 C689 1.263 . S
C696 O697 1.275 . S
C696 O698 1.246 . S
O697 Tb680 2.427 . S
O697 C696 1.275 . S
O698 Tb680 2.513 . S
O698 C696 1.246 . S
C699 O683 1.245 1_545 S
C699 O684 1.259 . S
Tb700 O703 2.453 1_655 S
Tb700 O704 2.596 . S
Tb700 O705 2.374 . S
Tb700 O713 2.343 . S
Tb700 O715 2.353 . S
Tb700 O717 2.427 . S
Tb700 O718 2.513 . S
C701 O705 1.251 . S
C701 O707 1.263 . S
Tb702 O704 2.343 . S
Tb702 O707 2.353 . S
Tb702 O710 2.427 . S
Tb702 O711 2.513 . S
Tb702 O712 2.453 . S
Tb702 O713 2.596 . S
Tb702 O714 2.374 . S
O703 Tb700 2.453 1_455 S
O703 C719 1.245 . S
O704 Tb700 2.596 . S
O704 Tb702 2.343 . S
O704 C719 1.259 1_655 S
O705 Tb700 2.374 . S
O705 C701 1.251 . S
C706 O710 1.275 . S
C706 O711 1.246 . S
O707 C701 1.263 . S
O707 Tb702 2.353 . S
C708 O712 1.245 . S
C708 O713 1.259 . S
C709 O714 1.250 . S
C709 O715 1.263 . S
O710 Tb702 2.427 . S
O710 C706 1.275 . S
O711 Tb702 2.513 . S
O711 C706 1.246 . S
O712 Tb702 2.453 . S
O712 C708 1.245 . S
O713 Tb700 2.343 . S
O713 Tb702 2.596 . S
O713 C708 1.259 . S
O714 Tb702 2.374 . S
O714 C709 1.250 . S
O715 Tb700 2.353 . S
O715 C709 1.263 . S
C716 O717 1.275 . S
C716 O718 1.246 . S
O717 Tb700 2.427 . S
O717 C716 1.275 . S
O718 Tb700 2.513 . S
O718 C716 1.246 . S
C719 O703 1.245 . S
C719 O704 1.259 1_455 S
C549 C9 2.517 . S
C569 C29 2.516 . S
C49 C589 2.516 . S
C69 C249 2.517 . S
C89 C269 2.516 . S
C289 C109 2.516 . S
C121 C421 2.517 . S
C441 C141 2.516 . S
C161 C461 2.516 . S
C601 C181 2.517 . S
C201 C621 2.516 . S
C641 C221 2.516 . S
C489 C309 2.517 . S
C329 C509 2.516 1_565 S
C529 C349 2.516 1_655 S
C361 C661 2.516 . S
C381 C681 2.516 1_565 S
C701 C401 2.516 1_655 S
C1 C129 1.868 1_554 S
C149 C21 1.868 1_556 S
C41 C169 1.868 1_554 S
C189 C61 1.868 . S
C81 C209 1.868 . S
C229 C101 1.868 . S
C369 C241 1.868 . S
C261 C389 1.868 . S
C409 C281 1.868 . S
C301 C429 1.868 . S
C449 C321 1.868 . S
C341 C469 1.868 . S
C481 C609 1.868 . S
C629 C501 1.868 . S
C649 C521 1.868 . S
C669 C541 1.868 . S
C561 C689 1.868 . S
C581 C709 1.868 . S
C19 C46 1.710 . S
C39 C6 1.709 . S
C26 C59 1.710 . S
C79 C86 1.710 . S
C106 C99 1.710 . S
C66 C119 1.709 . S
C176 C128 1.710 . S
C148 C136 1.709 . S
C168 C156 1.710 . S
C216 C188 1.710 . S
C208 C236 1.710 . S
C228 C196 1.709 . S
C286 C259 1.710 . S
C246 C279 1.709 . S
C266 C299 1.710 1_655 S
C326 C319 1.710 . S
C339 C346 1.710 . S
C306 C359 1.709 . S
C368 C416 1.710 . S
C376 C388 1.709 . S
C408 C396 1.710 . S
C456 C428 1.710 . S
C476 C448 1.709 . S
C436 C468 1.709 1_655 S
C526 C499 1.710 . S
C519 C486 1.709 . S
C506 C539 1.710 . S
C559 C566 1.710 . S
C579 C586 1.710 1_545 S
C546 C599 1.709 . S
C608 C656 1.710 . S
C628 C616 1.709 1_545 S
C636 C648 1.709 . S
C668 C696 1.710 . S
C716 C688 1.710 . S
C676 C708 1.709 . S
C56 C8 1.312 . S
C28 C16 1.312 . S
C36 C48 1.312 . S
C96 C68 1.312 . S
C88 C116 1.312 . S
C108 C76 1.312 . S
C166 C139 1.312 . S
C159 C126 1.312 . S
C146 C179 1.312 . S
C206 C199 1.312 . S
C226 C219 1.312 . S
C186 C239 1.312 . S
C248 C296 1.312 . S
C268 C256 1.312 . S
C288 C276 1.312 . S
C336 C308 1.312 . S
C328 C356 1.312 . S
C348 C316 1.312 1_455 S
C406 C379 1.312 . S
C366 C399 1.312 . S
C419 C386 1.312 1_455 S
C446 C439 1.312 . S
C459 C466 1.312 . S
C479 C426 1.312 . S
C488 C536 1.312 . S
C496 C508 1.312 1_565 S
C516 C528 1.312 . S
C576 C548 1.312 . S
C568 C596 1.312 . S
C588 C556 1.312 . S
C646 C619 1.312 . S
C606 C639 1.312 . S
C659 C626 1.312 . S
C686 C679 1.312 . S
C699 C706 1.312 1_545 S
C719 C666 1.312 . S
