# Generated by pormake.
# Topology smd, (6)-cn, num edge types: 1
# Building blocks:
#     Node 0, Type 0, BuildingBlock: OJICUG_clean_sbu_0, # of connection points: 6
#     Node 1, Type 0, BuildingBlock: OJICUG_clean_sbu_0, # of connection points: 6
#     Node 2, Type 0, BuildingBlock: OJICUG_clean_sbu_0, # of connection points: 6
#     Node 3, Type 0, BuildingBlock: OJICUG_clean_sbu_0, # of connection points: 6
#     Node 4, Type 0, BuildingBlock: OJICUG_clean_sbu_0, # of connection points: 6
#     Node 5, Type 0, BuildingBlock: OJICUG_clean_sbu_0, # of connection points: 6
#     Node 6, Type 0, BuildingBlock: OJICUG_clean_sbu_0, # of connection points: 6
#     Node 7, Type 0, BuildingBlock: OJICUG_clean_sbu_0, # of connection points: 6
#     Node 8, Type 0, BuildingBlock: OJICUG_clean_sbu_0, # of connection points: 6
#     Node 9, Type 0, BuildingBlock: OJICUG_clean_sbu_0, # of connection points: 6
#     Node 10, Type 0, BuildingBlock: OJICUG_clean_sbu_0, # of connection points: 6
#     Node 11, Type 0, BuildingBlock: OJICUG_clean_sbu_0, # of connection points: 6
#     Node 12, Type 0, BuildingBlock: OJICUG_clean_sbu_0, # of connection points: 6
#     Node 13, Type 0, BuildingBlock: OJICUG_clean_sbu_0, # of connection points: 6
#     Node 14, Type 0, BuildingBlock: OJICUG_clean_sbu_0, # of connection points: 6
#     Node 15, Type 0, BuildingBlock: OJICUG_clean_sbu_0, # of connection points: 6
#     Node 16, Type 0, BuildingBlock: OJICUG_clean_sbu_0, # of connection points: 6
#     Node 17, Type 0, BuildingBlock: OJICUG_clean_sbu_0, # of connection points: 6
#     Edge 18, Type (0, 0), BuildingBlock: KIFKEQ_clean_linker_1, # of connection points: 2
#     Edge 19, Type (0, 0), BuildingBlock: KIFKEQ_clean_linker_1, # of connection points: 2
#     Edge 20, Type (0, 0), BuildingBlock: KIFKEQ_clean_linker_1, # of connection points: 2
#     Edge 21, Type (0, 0), BuildingBlock: KIFKEQ_clean_linker_1, # of connection points: 2
#     Edge 22, Type (0, 0), BuildingBlock: KIFKEQ_clean_linker_1, # of connection points: 2
#     Edge 23, Type (0, 0), BuildingBlock: KIFKEQ_clean_linker_1, # of connection points: 2
#     Edge 24, Type (0, 0), BuildingBlock: KIFKEQ_clean_linker_1, # of connection points: 2
#     Edge 25, Type (0, 0), BuildingBlock: KIFKEQ_clean_linker_1, # of connection points: 2
#     Edge 26, Type (0, 0), BuildingBlock: KIFKEQ_clean_linker_1, # of connection points: 2
#     Edge 27, Type (0, 0), BuildingBlock: KIFKEQ_clean_linker_1, # of connection points: 2
#     Edge 28, Type (0, 0), BuildingBlock: KIFKEQ_clean_linker_1, # of connection points: 2
#     Edge 29, Type (0, 0), BuildingBlock: KIFKEQ_clean_linker_1, # of connection points: 2
#     Edge 30, Type (0, 0), BuildingBlock: KIFKEQ_clean_linker_1, # of connection points: 2
#     Edge 31, Type (0, 0), BuildingBlock: KIFKEQ_clean_linker_1, # of connection points: 2
#     Edge 32, Type (0, 0), BuildingBlock: KIFKEQ_clean_linker_1, # of connection points: 2
#     Edge 33, Type (0, 0), BuildingBlock: KIFKEQ_clean_linker_1, # of connection points: 2
#     Edge 34, Type (0, 0), BuildingBlock: KIFKEQ_clean_linker_1, # of connection points: 2
#     Edge 35, Type (0, 0), BuildingBlock: KIFKEQ_clean_linker_1, # of connection points: 2
#     Edge 36, Type (0, 0), BuildingBlock: KIFKEQ_clean_linker_1, # of connection points: 2
#     Edge 37, Type (0, 0), BuildingBlock: KIFKEQ_clean_linker_1, # of connection points: 2
#     Edge 38, Type (0, 0), BuildingBlock: KIFKEQ_clean_linker_1, # of connection points: 2
#     Edge 39, Type (0, 0), BuildingBlock: KIFKEQ_clean_linker_1, # of connection points: 2
#     Edge 40, Type (0, 0), BuildingBlock: KIFKEQ_clean_linker_1, # of connection points: 2
#     Edge 41, Type (0, 0), BuildingBlock: KIFKEQ_clean_linker_1, # of connection points: 2
#     Edge 42, Type (0, 0), BuildingBlock: KIFKEQ_clean_linker_1, # of connection points: 2
#     Edge 43, Type (0, 0), BuildingBlock: KIFKEQ_clean_linker_1, # of connection points: 2
#     Edge 44, Type (0, 0), BuildingBlock: KIFKEQ_clean_linker_1, # of connection points: 2
#     Edge 45, Type (0, 0), BuildingBlock: KIFKEQ_clean_linker_1, # of connection points: 2
#     Edge 46, Type (0, 0), BuildingBlock: KIFKEQ_clean_linker_1, # of connection points: 2
#     Edge 47, Type (0, 0), BuildingBlock: KIFKEQ_clean_linker_1, # of connection points: 2
#     Edge 48, Type (0, 0), BuildingBlock: KIFKEQ_clean_linker_1, # of connection points: 2
#     Edge 49, Type (0, 0), BuildingBlock: KIFKEQ_clean_linker_1, # of connection points: 2
#     Edge 50, Type (0, 0), BuildingBlock: KIFKEQ_clean_linker_1, # of connection points: 2
#     Edge 51, Type (0, 0), BuildingBlock: KIFKEQ_clean_linker_1, # of connection points: 2
#     Edge 52, Type (0, 0), BuildingBlock: KIFKEQ_clean_linker_1, # of connection points: 2
#     Edge 53, Type (0, 0), BuildingBlock: KIFKEQ_clean_linker_1, # of connection points: 2
#     Edge 54, Type (0, 0), BuildingBlock: KIFKEQ_clean_linker_1, # of connection points: 2
#     Edge 55, Type (0, 0), BuildingBlock: KIFKEQ_clean_linker_1, # of connection points: 2
#     Edge 56, Type (0, 0), BuildingBlock: KIFKEQ_clean_linker_1, # of connection points: 2
#     Edge 57, Type (0, 0), BuildingBlock: KIFKEQ_clean_linker_1, # of connection points: 2
#     Edge 58, Type (0, 0), BuildingBlock: KIFKEQ_clean_linker_1, # of connection points: 2
#     Edge 59, Type (0, 0), BuildingBlock: KIFKEQ_clean_linker_1, # of connection points: 2
#     Edge 60, Type (0, 0), BuildingBlock: KIFKEQ_clean_linker_1, # of connection points: 2
#     Edge 61, Type (0, 0), BuildingBlock: KIFKEQ_clean_linker_1, # of connection points: 2
#     Edge 62, Type (0, 0), BuildingBlock: KIFKEQ_clean_linker_1, # of connection points: 2
#     Edge 63, Type (0, 0), BuildingBlock: KIFKEQ_clean_linker_1, # of connection points: 2
#     Edge 64, Type (0, 0), BuildingBlock: KIFKEQ_clean_linker_1, # of connection points: 2
#     Edge 65, Type (0, 0), BuildingBlock: KIFKEQ_clean_linker_1, # of connection points: 2
#     Edge 66, Type (0, 0), BuildingBlock: KIFKEQ_clean_linker_1, # of connection points: 2
#     Edge 67, Type (0, 0), BuildingBlock: KIFKEQ_clean_linker_1, # of connection points: 2
#     Edge 68, Type (0, 0), BuildingBlock: KIFKEQ_clean_linker_1, # of connection points: 2
#     Edge 69, Type (0, 0), BuildingBlock: KIFKEQ_clean_linker_1, # of connection points: 2
#     Edge 70, Type (0, 0), BuildingBlock: KIFKEQ_clean_linker_1, # of connection points: 2
#     Edge 71, Type (0, 0), BuildingBlock: KIFKEQ_clean_linker_1, # of connection points: 2
# Relax obj value: 0.160
# Max RMSD: 0.216
# Mean RMSD: 0.216
data_MOF--net-smd--node1-OJICUG_clean_sbu_0--edge1-KIFKEQ_clean_linker_1
_symmetry_space_group_name_H-M    P1
_symmetry_Int_Tables_number       1
_symmetry_cell_setting            triclinic
loop_
_symmetry_equiv_pos_as_xyz
'x, y, z'
_cell_length_a     77.593533
_cell_length_b     77.702607
_cell_length_c     16.084785
_cell_angle_alpha  89.992639
_cell_angle_beta   89.95085
_cell_angle_gamma 119.98745
loop_
_atom_site_label
_atom_site_type_symbol
_atom_site_fract_x
_atom_site_fract_y
_atom_site_fract_z
_atom_type_partial_charge
Sc0 Sc 0.98967 0.22861 0.43373 0.0
Sc1 Sc 0.00356 0.19646 0.52059 0.0
Sc2 Sc 0.02074 0.24324 0.60748 0.0
O3 O 0.0047 0.2229 0.52059 0.0
C4 C 0.02996 0.27071 0.45214 0.0
C5 C 0.0037 0.205 0.32544 0.0
C6 C 0.04854 0.22551 0.55157 0.0
C7 C 0.95935 0.18376 0.48878 0.0
C8 C 0.98196 0.2478 0.59012 0.0
C9 C 0.00437 0.20519 0.71569 0.0
O10 O 0.01314 0.25928 0.41858 0.0
O11 O 0.00118 0.19315 0.38505 0.0
O12 O 0.0449 0.2365 0.59914 0.0
O13 O 0.96419 0.19852 0.44036 0.0
O14 O -0.0013 0.25247 0.62302 0.0
O15 O 0.00577 0.19521 0.6559 0.0
O16 O 0.97542 0.23711 0.52537 0.0
O17 O 0.97194 0.18169 0.5319 0.0
O18 O 0.0064 0.22228 0.70576 0.0
O19 O 0.00315 0.22088 0.33563 0.0
O20 O 0.03598 0.26599 0.51693 0.0
O21 O 0.03517 0.21118 0.50958 0.0
Sc22 Sc 0.78686 0.77084 0.42443 0.0
Sc23 Sc 0.81642 0.81973 0.49548 0.0
Sc24 Sc 0.76898 0.78914 0.58032 0.0
O25 O 0.79085 0.79323 0.5005 0.0
C26 C 0.74374 0.76719 0.42394 0.0
C27 C 0.80766 0.80745 0.30294 0.0
C28 C 0.78512 0.83379 0.51909 0.0
C29 C 0.83296 0.79034 0.47497 0.0
C30 C 0.7667 0.7466 0.58505 0.0
C31 C 0.80661 0.81359 0.69183 0.0
O32 O 0.75576 0.76142 0.40073 0.0
O33 O 0.81811 0.81969 0.35977 0.0
O34 O 0.77348 0.81873 0.56256 0.0
O35 O 0.81731 0.7771 0.43875 0.0
O36 O 0.76093 0.75861 0.60813 0.0
O37 O 0.81788 0.8232 0.63085 0.0
O38 O 0.77865 0.75029 0.52493 0.0
O39 O 0.83428 0.80601 0.50572 0.0
O40 O 0.78895 0.79925 0.68318 0.0
O41 O 0.7945 0.78958 0.31778 0.0
O42 O 0.7475 0.77928 0.48332 0.0
O43 O 0.80056 0.83559 0.48367 0.0
Sc44 Sc 0.24222 0.024 0.42161 0.0
Sc45 Sc 0.19711 0.0125 0.51657 0.0
Sc46 Sc 0.22636 -0.00621 0.59872 0.0
O47 O 0.22191 0.01002 0.51242 0.0
C48 C 0.24366 0.98361 0.44113 0.0
C49 C 0.20324 0.00984 0.31998 0.0
C50 C 0.17986 0.96697 0.55214 0.0
C51 C 0.22963 0.05601 0.47388 0.0
C52 C 0.26998 0.03211 0.57691 0.0
C53 C 0.2064 0.01224 0.7109 0.0
O54 O 0.24817 -0.00022 0.40393 0.0
O55 O 0.19413 0.01235 0.38067 0.0
O56 O 0.19561 0.96962 0.58894 0.0
O57 O 0.23931 0.05046 0.42771 0.0
O58 O 0.25753 0.01631 0.61514 0.0
O59 O 0.19582 0.0131 0.65236 0.0
O60 O 0.26602 0.0376 0.50868 0.0
O61 O 0.21483 0.04409 0.51791 0.0
O62 O 0.21948 0.0073 0.69878 0.0
O63 O 0.22006 0.01105 0.32777 0.0
O64 O 0.23421 0.97862 0.50932 0.0
O65 O 0.17854 0.98095 0.51711 0.0
Sc66 Sc 0.02422 0.79048 0.58252 0.0
Sc67 Sc 0.00757 0.82068 0.49603 0.0
Sc68 Sc -0.00934 0.77315 0.4179 0.0
O69 O 0.00746 0.79475 0.49903 0.0
C70 C 0.03042 0.77007 0.42866 0.0
C71 C 0.05251 0.83581 0.52661 0.0
C72 C 0.00628 0.8101 0.30245 0.0
C73 C 0.00942 0.81343 0.69191 0.0
C74 C 0.98444 0.74752 0.57469 0.0
C75 C 0.9625 0.79061 0.46966 0.0
O76 O 0.03811 0.78251 0.48748 0.0
O77 O 0.03927 0.83691 0.4842 0.0
O78 O 0.00384 0.79292 0.31546 0.0
O79 O 0.01155 0.79835 0.68332 0.0
O80 O 0.9767 0.752 0.51514 0.0
O81 O 0.97597 0.80548 0.50864 0.0
O82 O 0.00203 0.75923 0.60103 0.0
O83 O 0.00991 0.8242 0.63113 0.0
O84 O 0.96614 0.77927 0.42472 0.0
O85 O 0.04866 0.82098 0.57295 0.0
O86 O 0.01277 0.76394 0.40244 0.0
O87 O 0.00539 0.82088 0.36022 0.0
Sc88 Sc 0.22344 0.24264 0.57886 0.0
Sc89 Sc 0.19332 0.19509 0.49509 0.0
Sc90 Sc 0.24053 0.22699 0.41046 0.0
O91 O 0.21908 0.22157 0.49479 0.0
C92 C 0.24267 0.26936 0.42248 0.0
C93 C 0.17724 0.22425 0.53188 0.0
C94 C 0.20213 0.20458 0.30011 0.0
C95 C 0.20259 0.20421 0.68988 0.0
C96 C 0.26691 0.24695 0.56684 0.0
C97 C 0.22447 0.18139 0.45919 0.0
O98 O 0.2314 0.2649 0.48553 0.0
O99 O 0.17576 0.20918 0.49449 0.0
O100 O 0.2198 0.2187 0.31087 0.0
O101 O 0.21606 0.22215 0.67882 0.0
O102 O 0.263 0.23602 0.50307 0.0
O103 O 0.20902 0.17911 0.49627 0.0
O104 O 0.25459 0.25151 0.59792 0.0
O105 O 0.19179 0.19303 0.631 0.0
O106 O 0.23623 0.19716 0.41945 0.0
O107 O 0.19296 0.23672 0.57013 0.0
O108 O 0.24819 0.25773 0.39215 0.0
O109 O 0.19129 0.19346 0.35917 0.0
Sc110 Sc 0.76969 0.99156 0.58624 0.0
Sc111 Sc 0.81804 0.0096 0.50647 0.0
Sc112 Sc 0.7867 0.0259 0.42101 0.0
O113 O 0.79146 0.00899 0.50431 0.0
C114 C 0.74465 0.98556 0.42128 0.0
C115 C 0.78755 0.96376 0.53269 0.0
C116 C 0.81251 0.01311 0.31095 0.0
C117 C 0.80786 0.00754 0.70096 0.0
C118 C 0.76439 0.02974 0.57991 0.0
C119 C 0.83129 0.05525 0.48208 0.0
O120 O 0.74742 0.98024 0.49227 0.0
O121 O 0.80397 0.978 0.50678 0.0
O122 O 0.79996 0.01886 0.32021 0.0
O123 O 0.78956 0.00146 0.68942 0.0
O124 O 0.77303 0.03551 0.51027 0.0
O125 O 0.83423 0.04134 0.50618 0.0
O126 O 0.76236 0.01435 0.61692 0.0
O127 O 0.81997 0.01049 0.64188 0.0
O128 O 0.81502 0.05212 0.44929 0.0
O129 O 0.77399 0.96633 0.56486 0.0
O130 O 0.75762 0.00146 0.38532 0.0
O131 O 0.8203 0.00891 0.37153 0.0
Sc132 Sc 0.6544 0.56019 0.75903 0.0
Sc133 Sc 0.67345 0.5305 0.8306 0.0
Sc134 Sc 0.68907 0.577 0.92047 0.0
O135 O 0.67221 0.55583 0.83703 0.0
C136 C 0.69343 0.6036 0.76758 0.0
C137 C 0.67081 0.54005 0.63822 0.0
C138 C 0.71842 0.56197 0.85799 0.0
C139 C 0.62777 0.51384 0.80599 0.0
C140 C 0.64841 0.57856 0.92103 0.0
C141 C 0.67593 0.53897 0.02774 0.0
O142 O 0.67593 0.59165 0.74106 0.0
O143 O 0.67167 0.52904 0.69497 0.0
O144 O 0.71444 0.57278 0.90445 0.0
O145 O 0.63044 0.52944 0.76829 0.0
O146 O 0.66606 0.58443 0.94624 0.0
O147 O 0.6755 0.52851 0.96576 0.0
O148 O 0.64082 0.56716 0.85889 0.0
O149 O 0.64186 0.5126 0.8403 0.0
O150 O 0.67833 0.55629 0.02069 0.0
O151 O 0.66682 0.55373 0.65305 0.0
O152 O 0.70138 0.5993 0.82683 0.0
O153 O 0.70518 0.54693 0.81911 0.0
Sc154 Sc 0.45413 0.10939 0.76961 0.0
Sc155 Sc 0.4852 0.15514 0.86441 0.0
Sc156 Sc 0.43757 0.12392 0.94466 0.0
O157 O 0.45885 0.12944 0.85946 0.0
C158 C 0.41119 0.10591 0.78434 0.0
C159 C 0.4784 0.14827 0.66726 0.0
C160 C 0.45491 0.16997 0.89598 0.0
C161 C 0.49902 0.12442 0.82818 0.0
C162 C 0.43424 0.08122 0.92386 0.0
C163 C 0.47523 0.14584 0.05828 0.0
O164 O 0.42364 0.10221 0.74851 0.0
O165 O 0.48903 0.15782 0.72944 0.0
O166 O 0.44274 0.15421 0.93537 0.0
O167 O 0.48411 0.11392 0.78134 0.0
O168 O 0.43003 0.09316 0.96105 0.0
O169 O 0.4861 0.15703 0.99977 0.0
O170 O 0.44426 0.08566 0.85698 0.0
O171 O 0.50078 0.13902 0.87063 0.0
O172 O 0.45783 0.13141 0.04632 0.0
O173 O 0.4632 0.13114 0.67335 0.0
O174 O 0.41485 0.11523 0.85274 0.0
O175 O 0.47035 0.17195 0.8594 0.0
Sc176 Sc 0.90622 0.35781 0.76449 0.0
Sc177 Sc 0.86018 0.34251 0.85965 0.0
Sc178 Sc 0.89113 0.32489 0.93214 0.0
O179 O 0.88583 0.3417 0.85225 0.0
C180 C 0.90952 0.31826 0.7703 0.0
C181 C 0.86691 0.34201 0.66259 0.0
C182 C 0.84487 0.29703 0.88757 0.0
C183 C 0.89095 0.38718 0.82443 0.0
C184 C 0.93389 0.36471 0.91712 0.0
C185 C 0.87039 0.34108 0.05228 0.0
O186 O 0.91437 0.33531 0.74097 0.0
O187 O 0.85704 0.34299 0.72411 0.0
O188 O 0.86088 0.30014 0.92292 0.0
O189 O 0.90148 0.38298 0.777 0.0
O190 O 0.9221 0.34777 0.94912 0.0
O191 O 0.85943 0.34207 0.99564 0.0
O192 O 0.92941 0.37143 0.85385 0.0
O193 O 0.87625 0.37417 0.8658 0.0
O194 O 0.88385 0.3368 0.03692 0.0
O195 O 0.88444 0.3449 0.6692 0.0
O196 O 0.899 0.31131 0.83524 0.0
O197 O 0.84279 0.31084 0.85548 0.0
Sc198 Sc 0.68819 0.12204 0.94291 0.0
Sc199 Sc 0.67398 0.15375 0.8503 0.0
Sc200 Sc 0.65531 0.1056 0.77455 0.0
O201 O 0.67244 0.12706 0.85611 0.0
C202 C 0.69369 0.10016 0.79073 0.0
C203 C 0.71846 0.16641 0.88173 0.0
C204 C 0.67223 0.14259 0.65726 0.0
C205 C 0.67504 0.14724 0.04739 0.0
C206 C 0.64734 0.08017 0.93569 0.0
C207 C 0.62855 0.12518 0.82187 0.0
O208 O 0.70098 0.11159 0.85296 0.0
O209 O 0.70561 0.16839 0.84043 0.0
O210 O 0.66873 0.12505 0.67083 0.0
O211 O 0.67664 0.13184 0.04096 0.0
O212 O 0.64072 0.08432 0.8712 0.0
O213 O 0.64242 0.14015 0.85889 0.0
O214 O 0.66459 0.09174 0.96534 0.0
O215 O 0.67588 0.15781 0.98525 0.0
O216 O 0.63144 0.11263 0.78204 0.0
O217 O 0.714 0.15163 0.92934 0.0
O218 O 0.67693 0.09579 0.75886 0.0
O219 O 0.67237 0.15393 0.71475 0.0
Sc220 Sc 0.89335 0.58123 0.91736 0.0
Sc221 Sc 0.86294 0.53241 0.84527 0.0
Sc222 Sc 0.91127 0.56194 0.76442 0.0
O223 O 0.88914 0.55851 0.84202 0.0
C224 C 0.91369 0.6045 0.7535 0.0
C225 C 0.84769 0.56299 0.86365 0.0
C226 C 0.87346 0.53771 0.65011 0.0
C227 C 0.87148 0.54445 0.03843 0.0
C228 C 0.93636 0.58463 0.92161 0.0
C229 C 0.89366 0.51707 0.8269 0.0
O230 O 0.90279 0.60171 0.81665 0.0
O231 O 0.84585 0.54685 0.83645 0.0
O232 O 0.89167 0.55057 0.66049 0.0
O233 O 0.88439 0.56244 0.02404 0.0
O234 O 0.93296 0.57306 0.86064 0.0
O235 O 0.87749 0.51533 0.85389 0.0
O236 O 0.92405 0.5899 0.94594 0.0
O237 O 0.86146 0.53208 0.98121 0.0
O238 O 0.90687 0.53264 0.79033 0.0
O239 O 0.86348 0.57624 0.89877 0.0
O240 O 0.91887 0.59206 0.72972 0.0
O241 O 0.86125 0.52944 0.70996 0.0
Sc242 Sc 0.43515 0.32652 0.93391 0.0
Sc243 Sc 0.48153 0.34052 0.8458 0.0
Sc244 Sc 0.4513 0.35735 0.75889 0.0
O245 O 0.45594 0.34148 0.84617 0.0
C246 C 0.40792 0.31853 0.77766 0.0
C247 C 0.45015 0.29621 0.88272 0.0
C248 C 0.47275 0.3402 0.65059 0.0
C249 C 0.47356 0.34171 0.0412 0.0
C250 C 0.43282 0.36651 0.91457 0.0
C251 C 0.49715 0.38555 0.81045 0.0
O252 O 0.41192 0.31251 0.84437 0.0
O253 O 0.46512 0.30884 0.84129 0.0
O254 O 0.45853 0.34357 0.66115 0.0
O255 O 0.45646 0.3397 0.03095 0.0
O256 O 0.44302 0.37221 0.84822 0.0
O257 O 0.49863 0.37219 0.85009 0.0
O258 O 0.42813 0.35009 0.95021 0.0
O259 O 0.48349 0.34001 0.98178 0.0
O260 O 0.48189 0.38196 0.76727 0.0
O261 O 0.43944 0.30085 0.92718 0.0
O262 O 0.42026 0.33475 0.74195 0.0
O263 O 0.48395 0.34085 0.70989 0.0
Sc264 Sc 0.32568 0.89583 0.09212 0.0
Sc265 Sc 0.34116 0.86487 0.18051 0.0
Sc266 Sc 0.35557 0.91104 0.26962 0.0
O267 O 0.34082 0.89068 0.18076 0.0
C268 C 0.36458 0.9389 0.11499 0.0
C269 C 0.34229 0.87399 0.98522 0.0
C270 C 0.38556 0.89562 0.21744 0.0
C271 C 0.2966 0.85027 0.14326 0.0
C272 C 0.31568 0.91361 0.24777 0.0
C273 C 0.33992 0.87257 0.37596 0.0
O274 O 0.34843 0.92686 0.07808 0.0
O275 O 0.34051 0.8623 0.04444 0.0
O276 O 0.38104 0.90625 0.26312 0.0
O277 O 0.30085 0.86532 0.09748 0.0
O278 O 0.332 0.91825 0.28457 0.0
O279 O 0.34188 0.86283 0.3165 0.0
O280 O 0.31036 0.9037 0.18071 0.0
O281 O 0.30949 0.84859 0.18577 0.0
O282 O 0.34175 0.88956 0.36569 0.0
O283 O 0.34011 0.88895 0.99589 0.0
O284 O 0.37026 0.9345 0.1816 0.0
O285 O 0.37283 0.88088 0.17532 0.0
Sc286 Sc 0.11815 0.43933 0.09289 0.0
Sc287 Sc 0.14989 0.4856 0.18113 0.0
Sc288 Sc 0.10346 0.45448 0.27086 0.0
O289 O 0.12373 0.45973 0.18163 0.0
C290 C 0.07545 0.43592 0.11623 0.0
C291 C 0.1407 0.47768 0.98585 0.0
C292 C 0.11953 0.49987 0.21776 0.0
C293 C 0.16346 0.45482 0.14405 0.0
C294 C 0.10018 0.41181 0.24959 0.0
C295 C 0.14216 0.47694 0.37671 0.0
O296 O 0.08738 0.43177 0.07869 0.0
O297 O 0.15245 0.48747 0.04505 0.0
O298 O 0.10862 0.48476 0.26313 0.0
O299 O 0.14837 0.4443 0.09819 0.0
O300 O 0.09599 0.42375 0.28687 0.0
O301 O 0.15209 0.48842 0.317 0.0
O302 O 0.10973 0.41607 0.18155 0.0
O303 O 0.16557 0.46959 0.18626 0.0
O304 O 0.12494 0.46207 0.36682 0.0
O305 O 0.12554 0.46069 0.99653 0.0
O306 O 0.07987 0.44574 0.18349 0.0
O307 O 0.13435 0.50176 0.17629 0.0
Sc308 Sc 0.57503 0.69119 0.08229 0.0
Sc309 Sc 0.52693 0.67333 0.15974 0.0
Sc310 Sc 0.55828 0.6585 0.24915 0.0
O311 O 0.55342 0.67442 0.16357 0.0
C312 C 0.57797 0.65136 0.09573 0.0
C313 C 0.53758 0.67405 0.96624 0.0
C314 C 0.5131 0.6291 0.19863 0.0
C315 C 0.55615 0.71862 0.12711 0.0
C316 C 0.60115 0.69798 0.23751 0.0
C317 C 0.53609 0.67469 0.35552 0.0
O318 O 0.58411 0.66892 0.06825 0.0
O319 O 0.52611 0.67385 0.02363 0.0
O320 O 0.52793 0.63381 0.24603 0.0
O321 O 0.56867 0.71545 0.0885 0.0
O322 O 0.58952 0.68047 0.26416 0.0
O323 O 0.5243 0.67272 0.2961 0.0
O324 O 0.59647 0.70563 0.17835 0.0
O325 O 0.54098 0.70496 0.16411 0.0
O326 O 0.55119 0.67261 0.34581 0.0
O327 O 0.55529 0.67797 0.97995 0.0
O328 O 0.56573 0.64393 0.15557 0.0
O329 O 0.51154 0.64165 0.15351 0.0
Sc330 Sc 0.35454 0.45646 0.27298 0.0
Sc331 Sc 0.33758 0.48693 0.18842 0.0
Sc332 Sc 0.32199 0.43985 0.10397 0.0
O333 O 0.33805 0.46109 0.18844 0.0
C334 C 0.36204 0.43721 0.11677 0.0
C335 C 0.38273 0.50233 0.22323 0.0
C336 C 0.33818 0.47813 0.99343 0.0
C337 C 0.33743 0.47783 0.3834 0.0
C338 C 0.31504 0.41348 0.26119 0.0
C339 C 0.29276 0.4564 0.15251 0.0
O340 O 0.36865 0.44813 0.18072 0.0
O341 O 0.36914 0.50392 0.18632 0.0
O342 O 0.3347 0.4605 1.00431 0.0
O343 O 0.34154 0.46411 0.3726 0.0
O344 O 0.30818 0.41755 0.19731 0.0
O345 O 0.30597 0.47159 0.19056 0.0
O346 O 0.33207 0.42544 0.29184 0.0
O347 O 0.3373 0.48871 0.3243 0.0
O348 O 0.29666 0.4446 0.1124 0.0
O349 O 0.37939 0.48676 0.26305 0.0
O350 O 0.34507 0.43206 0.08527 0.0
O351 O 0.33779 0.4889 0.05244 0.0
Sc352 Sc 0.55901 0.91007 0.25199 0.0
Sc353 Sc 0.52823 0.86237 0.17386 0.0
Sc354 Sc 0.57387 0.89385 0.07873 0.0
O355 O 0.55374 0.88878 0.16837 0.0
C356 C 0.57609 0.93616 0.09309 0.0
C357 C 0.51248 0.89154 0.21115 0.0
C358 C 0.53469 0.87062 0.97728 0.0
C359 C 0.53896 0.87272 0.36729 0.0
C360 C 0.60236 0.91447 0.22785 0.0
C361 C 0.55895 0.84886 0.13323 0.0
O362 O 0.56527 0.93169 0.15755 0.0
O363 O 0.51082 0.87663 0.17146 0.0
O364 O 0.55182 0.88577 0.9851 0.0
O365 O 0.55322 0.89014 0.35312 0.0
O366 O 0.59745 0.90286 0.16589 0.0
O367 O 0.54465 0.84712 0.17782 0.0
O368 O 0.59052 0.91931 0.26207 0.0
O369 O 0.5273 0.86164 0.31013 0.0
O370 O 0.56908 0.86371 0.08559 0.0
O371 O 0.52827 0.90365 0.2502 0.0
O372 O 0.58167 0.92467 0.06175 0.0
O373 O 0.52526 0.85911 0.03793 0.0
Sc374 Sc 0.1053 0.65864 0.26201 0.0
Sc375 Sc 0.15274 0.67511 0.17851 0.0
Sc376 Sc 0.12238 0.69276 0.09982 0.0
O377 O 0.12687 0.67549 0.18007 0.0
C378 C 0.07909 0.65343 0.10854 0.0
C379 C 0.12249 0.63008 0.21247 0.0
C380 C 0.14287 0.6756 0.98462 0.0
C381 C 0.1435 0.67496 0.37342 0.0
C382 C 0.10289 0.69881 0.25675 0.0
C383 C 0.16856 0.72034 0.14514 0.0
O384 O 0.08355 0.64527 0.16643 0.0
O385 O 0.13761 0.64348 0.17461 0.0
O386 O 0.12923 0.67981 0.99746 0.0
O387 O 0.12573 0.67115 0.36252 0.0
O388 O 0.1152 0.70666 0.19749 0.0
O389 O 0.17002 0.70672 0.18227 0.0
O390 O 0.09669 0.68107 0.28141 0.0
O391 O 0.15454 0.67495 0.3145 0.0
O392 O 0.15291 0.71711 0.10649 0.0
O393 O 0.11051 0.63369 0.25275 0.0
O394 O 0.09097 0.67105 0.08325 0.0
O395 O 0.15399 0.67526 0.04234 0.0
H396 H 0.08426 0.39749 0.40381 0.0
H397 H 0.09793 0.37991 0.16883 0.0
H398 H 0.06873 0.36304 0.45187 0.0
H399 H 0.08233 0.34568 0.21695 0.0
H400 H 0.02715 0.28531 0.30073 0.0
H401 H 0.04587 0.31978 0.25308 0.0
H402 H 0.0791 0.33665 0.48257 0.0
H403 H 0.06064 0.30232 0.53027 0.0
C404 C 0.08411 0.38637 0.36277 0.0
C405 C 0.09229 0.39146 0.28249 0.0
C406 C 0.07529 0.3667 0.39034 0.0
C407 C 0.07427 0.35178 0.33771 0.0
C408 C 0.08278 0.35691 0.25828 0.0
C409 C 0.09182 0.37655 0.23115 0.0
C410 C 0.03858 0.29633 0.34063 0.0
C411 C 0.04238 0.29106 0.41924 0.0
C412 C 0.04931 0.31601 0.3133 0.0
C413 C 0.0638 0.3308 0.36456 0.0
C414 C 0.06786 0.32552 0.44234 0.0
C415 C 0.05737 0.30583 0.46918 0.0
H416 H 0.72343 0.73202 0.33937 0.0
H417 H 0.71879 0.7823 0.42484 0.0
H418 H 0.68869 0.71566 0.2943 0.0
H419 H 0.6842 0.76591 0.38052 0.0
H420 H 0.62841 0.73723 0.21416 0.0
H421 H 0.66348 0.75449 0.25232 0.0
H422 H 0.65575 0.70113 0.37001 0.0
H423 H 0.62065 0.68372 0.33146 0.0
C424 C 0.71511 0.7397 0.34732 0.0
C425 C 0.7238 0.75839 0.38596 0.0
C426 C 0.6952 0.73025 0.32242 0.0
C427 C 0.68374 0.73945 0.33483 0.0
C428 C 0.69269 0.75851 0.37002 0.0
C429 C 0.71249 0.76785 0.39557 0.0
C430 C 0.63412 0.7292 0.24886 0.0
C431 C 0.62172 0.70908 0.26973 0.0
C432 C 0.6542 0.7391 0.27064 0.0
C433 C 0.66235 0.72906 0.31321 0.0
C434 C 0.6499 0.70911 0.33591 0.0
C435 C 0.62976 0.69923 0.31475 0.0
H436 H 0.26009 0.98515 0.28812 0.0
H437 H 0.24521 0.95361 0.52254 0.0
H438 H 0.2761 0.96648 0.24272 0.0
H439 H 0.26135 0.93524 0.47708 0.0
H440 H 0.31746 0.93064 0.39959 0.0
H441 H 0.29814 0.94599 0.44503 0.0
H442 H 0.26635 0.93004 0.21204 0.0
H443 H 0.28535 0.9146 0.16659 0.0
C444 C 0.26004 0.97413 0.32953 0.0
C445 C 0.2514 0.97093 0.40895 0.0
C446 C 0.26917 0.96344 0.30352 0.0
C447 C 0.27006 0.94958 0.35686 0.0
C448 C 0.26103 0.94601 0.43526 0.0
C449 C 0.25166 0.95645 0.46082 0.0
C450 C 0.30622 0.93023 0.35845 0.0
C451 C 0.303 0.92141 0.27949 0.0
C452 C 0.29514 0.93895 0.38451 0.0
C453 C 0.28088 0.93926 0.33163 0.0
C454 C 0.2774 0.93015 0.25354 0.0
C455 C 0.28822 0.9212 0.22796 0.0
H456 H 0.30225 0.06116 0.49539 0.0
H457 H 0.28428 0.03034 0.73122 0.0
H458 H 0.33638 0.08003 0.54422 0.0
H459 H 0.31871 0.04949 0.78001 0.0
H460 H 0.37848 0.10321 0.86069 0.0
H461 H 0.34425 0.08597 0.81152 0.0
H462 H 0.36318 0.07151 0.58251 0.0
H463 H 0.39759 0.08869 0.63154 0.0
C464 C 0.30551 0.05848 0.55796 0.0
C465 C 0.29047 0.04419 0.60949 0.0
C466 C 0.32513 0.06923 0.58553 0.0
C467 C 0.33016 0.06615 0.66558 0.0
C468 C 0.31515 0.0522 0.71802 0.0
C469 C 0.29549 0.04121 0.69003 0.0
C470 C 0.37547 0.09657 0.79938 0.0
C471 C 0.39084 0.09734 0.75001 0.0
C472 C 0.3558 0.08655 0.77173 0.0
C473 C 0.35109 0.0773 0.69369 0.0
C474 C 0.36646 0.07859 0.64297 0.0
C475 C 0.38614 0.08841 0.67105 0.0
H476 H 0.89575 0.27848 0.78394 0.0
H477 H 0.94331 0.33244 0.6767 0.0
H478 H 0.9128 0.26062 0.74226 0.0
H479 H 0.96036 0.3145 0.6355 0.0
H480 H -0.00462 0.2817 0.68193 0.0
H481 H 0.97681 0.29831 0.72035 0.0
H482 H 0.92377 0.25054 0.60947 0.0
H483 H 0.94226 0.23394 0.57065 0.0
C484 C 0.9097 0.28646 0.75047 0.0
C485 C 0.91822 0.30688 0.73373 0.0
C486 C 0.91943 0.27623 0.72669 0.0
C487 C 0.93798 0.28628 0.68676 0.0
C488 C 0.94618 0.30651 0.66736 0.0
C489 C 0.93631 0.31669 0.69005 0.0
C490 C 0.97969 0.2746 0.66688 0.0
C491 C 0.97028 0.25654 0.6232 0.0
C492 C 0.96915 0.28421 0.68798 0.0
C493 C 0.94895 0.27578 0.66691 0.0
C494 C 0.93934 0.25734 0.62633 0.0
C495 C 0.94993 0.24788 0.60416 0.0
H496 H 0.73211 0.72732 0.67486 0.0
H497 H 0.77994 0.72009 0.57598 0.0
H498 H 0.71443 0.69237 0.71634 0.0
H499 H 0.76219 0.68527 0.61649 0.0
H500 H 0.73322 0.62936 0.77993 0.0
H501 H 0.75133 0.66429 0.74168 0.0
H502 H 0.69736 0.65941 0.64238 0.0
H503 H 0.67901 0.62428 0.68181 0.0
C504 C 0.739 0.71839 0.66321 0.0
C505 C 0.75743 0.72649 0.62206 0.0
C506 C 0.72875 0.69833 0.68591 0.0
C507 C 0.73683 0.68605 0.66868 0.0
C508 C 0.75561 0.69437 0.63075 0.0
C509 C 0.76577 0.71433 0.60754 0.0
C510 C 0.7252 0.63564 0.74927 0.0
C511 C 0.70465 0.62403 0.734 0.0
C512 C 0.73561 0.65567 0.72725 0.0
C513 C 0.72573 0.66461 0.68974 0.0
C514 C 0.70529 0.65294 0.67241 0.0
C515 C 0.69485 0.63279 0.69396 0.0
H516 H -0.00128 0.72713 0.66317 0.0
H517 H 0.94488 0.72109 0.556 0.0
H518 H 0.98088 0.6918 0.69844 0.0
H519 H 0.92728 0.68589 0.59002 0.0
H520 H 0.89873 0.62952 0.75362 0.0
H521 H 0.91566 0.66425 0.71221 0.0
H522 H 0.96547 0.6592 0.62295 0.0
H523 H 0.94856 0.62429 0.66572 0.0
C524 C 0.98305 0.71836 0.64817 0.0
C525 C 0.97323 0.72695 0.60687 0.0
C526 C 0.97292 0.69808 0.66723 0.0
C527 C 0.95276 0.68605 0.646 0.0
C528 C 0.9428 0.69478 0.60731 0.0
C529 C 0.95291 0.71497 0.58786 0.0
C530 C 0.91316 0.63571 0.72394 0.0
C531 C 0.92235 0.62418 0.71318 0.0
C532 C 0.92285 0.65562 0.70016 0.0
C533 C 0.94199 0.66451 0.66534 0.0
C534 C 0.95085 0.65279 0.65098 0.0
C535 C 0.94106 0.63275 0.6743 0.0
H536 H 0.28059 0.26562 0.71725 0.0
H537 H 0.29953 0.24907 0.49293 0.0
H538 H 0.31497 0.28241 0.76769 0.0
H539 H 0.33365 0.26593 0.54321 0.0
H540 H 0.39421 0.32074 0.62297 0.0
H541 H 0.35978 0.30263 0.57351 0.0
H542 H 0.34094 0.27224 0.80923 0.0
H543 H 0.37515 0.29005 0.85866 0.0
C544 C 0.29201 0.26546 0.67902 0.0
C545 C 0.28729 0.25597 0.60121 0.0
C546 C 0.31164 0.27502 0.7079 0.0
C547 C 0.3269 0.27553 0.65891 0.0
C548 C 0.32217 0.26591 0.5817 0.0
C549 C 0.30258 0.25612 0.5534 0.0
C550 C 0.38275 0.3101 0.66397 0.0
C551 C 0.38746 0.30682 0.7446 0.0
C552 C 0.36309 0.29973 0.63565 0.0
C553 C 0.34777 0.28615 0.68791 0.0
C554 C 0.35247 0.28277 0.76812 0.0
C555 C 0.37211 0.29287 0.79597 0.0
H556 H 0.68858 0.08088 0.64203 0.0
H557 H 0.72329 0.09713 0.86829 0.0
H558 H 0.70594 0.06372 0.59367 0.0
H559 H 0.7404 0.07993 0.81993 0.0
H560 H 0.74826 0.02651 0.73579 0.0
H561 H 0.73111 0.04369 0.78731 0.0
H562 H 0.74194 0.07464 0.55331 0.0
H563 H 0.75905 0.05783 0.50194 0.0
C564 C 0.69991 0.08085 0.68124 0.0
C565 C 0.70461 0.09047 0.7587 0.0
C566 C 0.70984 0.07106 0.65359 0.0
C567 C 0.72442 0.07047 0.70341 0.0
C568 C 0.72908 0.08001 0.7808 0.0
C569 C 0.71939 0.09002 0.80792 0.0
C570 C 0.74708 0.03707 0.69565 0.0
C571 C 0.75505 0.04077 0.61483 0.0
C572 C 0.7373 0.04689 0.72511 0.0
C573 C 0.73509 0.06032 0.67381 0.0
C574 C 0.74321 0.06415 0.59363 0.0
C575 C 0.75317 0.0546 0.56465 0.0
H576 H 0.61793 0.93216 0.37801 0.0
H577 H 0.63421 0.91872 0.13961 0.0
H578 H 0.65296 0.94894 0.42006 0.0
H579 H 0.66905 0.93569 0.18151 0.0
H580 H 0.73068 0.99037 0.27025 0.0
H581 H 0.69609 0.97267 0.22154 0.0
H582 H 0.67849 0.93658 0.44326 0.0
H583 H 0.71263 0.95368 0.49141 0.0
C584 C 0.62893 0.93274 0.3348 0.0
C585 C 0.62327 0.92397 0.25588 0.0
C586 C 0.64892 0.94232 0.35878 0.0
C587 C 0.66361 0.9436 0.30369 0.0
C588 C 0.65801 0.935 0.22472 0.0
C589 C 0.63803 0.92513 0.20129 0.0
C590 C 0.71949 0.97847 0.30794 0.0
C591 C 0.7245 0.97358 0.3849 0.0
C592 C 0.69973 0.9684 0.28017 0.0
C593 C 0.68469 0.95352 0.32951 0.0
C594 C 0.68978 0.94822 0.40484 0.0
C595 C 0.70944 0.95799 0.43191 0.0
H596 H 0.0164 0.73531 0.34183 0.0
H597 H 0.07026 0.78406 0.4439 0.0
H598 H 0.03472 0.71843 0.30433 0.0
H599 H 0.08842 0.7671 0.40699 0.0
H600 H 0.11671 0.73862 0.24348 0.0
H601 H 0.09945 0.75642 0.28156 0.0
H602 H 0.05107 0.70241 0.38379 0.0
H603 H 0.06824 0.68446 0.34517 0.0
C604 C 0.03217 0.74255 0.35523 0.0
C605 C 0.04186 0.761 0.39599 0.0
C606 C 0.04259 0.73277 0.33469 0.0
C607 C 0.06292 0.74136 0.35371 0.0
C608 C 0.07277 0.76015 0.3915 0.0
C609 C 0.06234 0.76983 0.41269 0.0
C610 C 0.1025 0.73057 0.27498 0.0
C611 C 0.09382 0.7101 0.29108 0.0
C612 C 0.09264 0.74078 0.29681 0.0
C613 C 0.07382 0.73073 0.33466 0.0
C614 C 0.06542 0.71043 0.35338 0.0
C615 C 0.07537 0.70023 0.33221 0.0
H616 H 0.32874 0.39271 0.34979 0.0
H617 H 0.2752 0.38801 0.24579 0.0
H618 H 0.31028 0.35739 0.38549 0.0
H619 H 0.25686 0.3528 0.28148 0.0
H620 H 0.2287 0.29512 0.44195 0.0
H621 H 0.24584 0.33044 0.40782 0.0
H622 H 0.29405 0.32554 0.29862 0.0
H623 H 0.27696 0.29016 0.33267 0.0
C624 C 0.31298 0.38424 0.33597 0.0
C625 C 0.30343 0.39311 0.29482 0.0
C626 C 0.3025 0.364 0.35544 0.0
C627 C 0.28223 0.35236 0.33517 0.0
C628 C 0.27247 0.36143 0.29774 0.0
C629 C 0.28298 0.38158 0.27734 0.0
C630 C 0.24283 0.30151 0.40963 0.0
C631 C 0.2515 0.28985 0.39011 0.0
C632 C 0.25262 0.32172 0.39019 0.0
C633 C 0.27137 0.33073 0.3517 0.0
C634 C 0.27974 0.31898 0.32958 0.0
C635 C 0.26984 0.2987 0.34809 0.0
H636 H 0.94863 0.36031 0.06584 0.0
H637 H 0.9655 0.39596 0.8419 0.0
H638 H 0.98317 0.3789 0.11382 0.0
H639 H -0.00023 0.41422 0.88981 0.0
H640 H 0.06113 0.42051 0.96186 0.0
H641 H 0.02649 0.40412 0.91561 0.0
H642 H 0.00871 0.41544 0.15435 0.0
H643 H 0.04319 0.43194 0.20072 0.0
C644 C 0.95962 0.37214 0.02721 0.0
C645 C 0.9543 0.37663 0.95012 0.0
C646 C 0.97932 0.38279 0.05473 0.0
C647 C -0.00596 0.39786 1.00505 0.0
C648 C 0.9887 0.40253 0.92874 0.0
C649 C 0.96903 0.39213 0.90179 0.0
C650 C 0.04987 0.41967 1.00416 0.0
C651 C 0.05492 0.42754 0.08484 0.0
C652 C 0.03009 0.41033 0.97768 0.0
C653 C 0.01502 0.40846 0.03182 0.0
C654 C 0.02007 0.41656 0.11188 0.0
C655 C 0.03984 0.42614 0.13796 0.0
H656 H 0.60854 0.56477 0.90835 0.0
H657 H 0.66263 0.61229 0.01477 0.0
H658 H 0.59081 0.582 0.94832 0.0
H659 H 0.64476 0.62943 0.05507 0.0
H660 H 0.61284 0.66498 1.00983 0.0
H661 H 0.62941 0.6463 0.97327 0.0
H662 H 0.57999 0.59295 0.07474 0.0
H663 H 0.56336 0.61148 0.11087 0.0
C664 C 0.61657 0.57873 0.94145 0.0
C665 C 0.63702 0.58722 0.95805 0.0
C666 C 0.6064 0.58858 0.96431 0.0
C667 C 0.61651 0.60716 1.00361 0.0
C668 C 0.63673 0.61526 0.02347 0.0
C669 C 0.64687 0.60533 1.00133 0.0
C670 C 0.60538 0.64921 0.02315 0.0
C671 C 0.58682 0.63972 0.06339 0.0
C672 C 0.61497 0.63859 1.00319 0.0
C673 C 0.60607 0.61826 0.02225 0.0
C674 C 0.58718 0.60861 0.05939 0.0
C675 C 0.57768 0.61924 0.08007 0.0
H676 H 0.41683 0.06607 0.07538 0.0
H677 H 0.43239 0.04963 0.84197 0.0
H678 H 0.40092 0.03137 0.12063 0.0
H679 H 0.41643 0.01519 0.88724 0.0
H680 H 0.36211 0.95381 0.96351 0.0
H681 H 0.38012 0.98856 0.91875 0.0
H682 H 0.41151 0.00536 0.15262 0.0
H683 H 0.39379 0.97083 0.19745 0.0
C684 C 0.41699 0.05514 0.03407 0.0
C685 C 0.42589 0.06066 0.95514 0.0
C686 C 0.40794 0.03533 0.06 0.0
C687 C 0.40738 0.02067 1.00702 0.0
C688 C 0.41649 0.0262 0.9288 0.0
C689 C 0.42576 0.04598 0.90334 0.0
C690 C 0.37298 0.96489 1.00503 0.0
C691 C 0.37649 0.95952 0.08396 0.0
C692 C 0.38329 0.98474 0.97939 0.0
C693 C 0.39707 -0.00042 0.03264 0.0
C694 C 0.4008 -0.00579 0.11087 0.0
C695 C 0.39074 0.97439 0.13605 0.0
H696 H 0.66046 0.05948 0.0278 0.0
H697 H 0.60743 0.05481 0.9181 0.0
H698 H 0.64197 0.02413 0.06185 0.0
H699 H 0.58902 0.01948 0.95248 0.0
H700 H 0.56115 0.9611 0.11237 0.0
H701 H 0.57766 -0.00353 0.07901 0.0
H702 H 0.62661 0.9929 0.96968 0.0
H703 H 0.61014 0.9575 1.00274 0.0
C704 C 0.64478 0.05103 0.01254 0.0
C705 C 0.63542 0.05991 0.97 0.0
C706 C 0.63429 0.03076 0.03107 0.0
C707 C 0.61419 0.01909 1.00847 0.0
C708 C 0.60452 0.02817 0.97029 0.0
C709 C 0.61507 0.04837 0.95077 0.0
C710 C 0.5753 0.9678 0.08006 0.0
C711 C 0.58439 0.95654 0.06039 0.0
C712 C 0.58472 0.98802 0.06108 0.0
C713 C 0.60352 -0.00259 0.02307 0.0
C714 C 0.61225 0.98603 1.00033 0.0
C715 C 0.60271 0.96574 0.01829 0.0
H716 H 0.05183 0.61407 0.12686 0.0
H717 H 0.0595 0.66851 0.01964 0.0
H718 H 0.01678 0.59711 0.08922 0.0
H719 H 0.02435 0.65135 0.98112 0.0
H720 H 0.95635 0.61949 1.00907 0.0
H721 H -0.00886 0.63599 0.05407 0.0
H722 H -0.0038 0.58644 0.96251 0.0
H723 H 0.96162 0.56993 0.91861 0.0
C724 C 0.0461 0.62238 0.09443 0.0
C725 C 0.05849 0.64266 0.07621 0.0
C726 C 0.02601 0.61264 0.07289 0.0
C727 C 0.0178 0.62296 0.033 0.0
C728 C 0.03023 0.64312 0.01309 0.0
C729 C 0.05041 0.65286 0.03413 0.0
C730 C 0.96481 0.61199 1.00004 0.0
C731 C 0.95627 0.59345 0.96009 0.0
C732 C 0.98476 0.62153 0.02481 0.0
C733 C -0.00359 0.61257 0.01094 0.0
C734 C 0.98759 0.59367 0.97429 0.0
C735 C 0.96778 0.58425 0.94898 0.0
H736 H 0.39317 0.43652 0.19162 0.0
H737 H 0.35789 0.41857 0.96679 0.0
H738 H 0.41128 0.42038 0.1432 0.0
H739 H 0.37637 0.40254 0.91817 0.0
H740 H 0.42953 0.39536 0.83185 0.0
H741 H 0.41317 0.41342 0.87874 0.0
H742 H 0.40068 0.38337 0.1155 0.0
H743 H 0.4169 0.36498 0.06859 0.0
C744 C 0.38941 0.42934 0.13136 0.0
C745 C 0.37403 0.42882 0.08299 0.0
C746 C 0.39971 0.41998 0.10413 0.0
C747 C 0.39511 0.41016 0.02741 0.0
C748 C 0.3802 0.41011 0.9776 0.0
C749 C 0.36963 0.41923 1.00545 0.0
C750 C 0.4235 0.3927 0.89431 0.0
C751 C 0.42454 0.37871 0.94664 0.0
C752 C 0.41399 0.40295 0.92067 0.0
C753 C 0.40561 0.39967 1.00033 0.0
C754 C 0.40712 0.38616 0.05374 0.0
C755 C 0.41636 0.37565 0.0269 0.0
H756 H 0.07829 0.24178 0.66821 0.0
H757 H 0.06508 0.2174 0.41993 0.0
H758 H 0.11078 0.24375 0.66134 0.0
H759 H 0.09755 0.22004 0.41174 0.0
H760 H 0.14043 0.19861 0.47096 0.0
H761 H 0.11092 0.20155 0.47474 0.0
H762 H 0.14383 0.25853 0.5966 0.0
H763 H 0.17369 0.25534 0.59502 0.0
C764 C 0.08249 0.23721 0.61173 0.0
C765 C 0.06905 0.22908 0.54524 0.0
C766 C 0.1011 0.23841 0.60761 0.0
C767 C 0.1066 0.2317 0.53654 0.0
C768 C 0.09356 0.22479 0.46831 0.0
C769 C 0.07497 0.22333 0.47288 0.0
C770 C 0.14156 0.21187 0.49829 0.0
C771 C 0.15953 0.22678 0.53247 0.0
C772 C 0.12457 0.21361 0.49992 0.0
C773 C 0.12504 0.23039 0.53505 0.0
C774 C 0.14298 0.24537 0.56941 0.0
C775 C 0.16008 0.24359 0.56813 0.0
H776 H 0.8144 0.9535 0.4784 0.0
H777 H 0.7542 0.92798 0.57147 0.0
H778 H 0.81066 0.92083 0.46955 0.0
H779 H 0.75029 0.89477 0.56027 0.0
H780 H 0.76475 0.8442 0.62801 0.0
H781 H 0.76269 0.87457 0.62578 0.0
H782 H 0.794 0.89089 0.39093 0.0
H783 H 0.79671 0.86105 0.39487 0.0
C784 C 0.80023 0.94089 0.49621 0.0
C785 C 0.78458 0.94344 0.52568 0.0
C786 C 0.79804 0.92205 0.49037 0.0
C787 C 0.78009 0.90514 0.51316 0.0
C788 C 0.76434 0.90755 0.54249 0.0
C789 C 0.76655 0.92655 0.54866 0.0
C790 C 0.77093 0.85417 0.57542 0.0
C791 C 0.78123 0.85049 0.51239 0.0
C792 C 0.76966 0.87151 0.57394 0.0
C793 C 0.7785 0.88531 0.50893 0.0
C794 C 0.78752 0.88083 0.44307 0.0
C795 C 0.78903 0.86371 0.44515 0.0
H796 H 0.08196 0.84647 0.64296 0.0
H797 H 0.06914 0.8643 0.40718 0.0
H798 H 0.11392 0.87744 0.64822 0.0
H799 H 0.10114 0.89478 0.41122 0.0
H800 H 0.14259 0.95704 0.50128 0.0
H801 H 0.1134 0.9244 0.49315 0.0
H802 H 0.14719 0.89812 0.58671 0.0
H803 H 0.17672 0.93123 0.59682 0.0
C804 C 0.08613 0.8568 0.59155 0.0
C805 C 0.07291 0.85311 0.5253 0.0
C806 C 0.10446 0.87451 0.59445 0.0
C807 C 0.1099 0.88872 0.53086 0.0
C808 C 0.09716 0.88439 0.46232 0.0
C809 C 0.07884 0.86687 0.45982 0.0
C810 C 0.14395 0.94438 0.52006 0.0
C811 C 0.1621 0.94681 0.54928 0.0
C812 C 0.12716 0.92558 0.5148 0.0
C813 C 0.12802 0.90861 0.53801 0.0
C814 C 0.14606 0.91094 0.56849 0.0
C815 C 0.16296 0.92989 0.5741 0.0
H816 H 0.25494 0.17841 0.38461 0.0
H817 H 0.20313 0.14641 0.5418 0.0
H818 H 0.26077 0.15019 0.3913 0.0
H819 H 0.2087 0.11856 0.54674 0.0
H820 H 0.22857 0.07685 0.60611 0.0
H821 H 0.23163 0.10956 0.60548 0.0
H822 H 0.24488 0.11505 0.34253 0.0
H823 H 0.24258 0.0824 0.34422 0.0
C824 C 0.24485 0.16546 0.4206 0.0
C825 C 0.22859 0.16473 0.46275 0.0
C826 C 0.24817 0.14931 0.42418 0.0
C827 C 0.23535 0.13227 0.4704 0.0
C828 C 0.21916 0.13164 0.51226 0.0
C829 C 0.21586 0.14763 0.5087 0.0
C830 C 0.23252 0.08522 0.54854 0.0
C831 C 0.235 0.07704 0.47492 0.0
C832 C 0.23421 0.10391 0.54805 0.0
C833 C 0.23798 0.11465 0.4735 0.0
C834 C 0.24196 0.10712 0.40092 0.0
C835 C 0.24059 0.08844 0.40176 0.0
H836 H 0.866 0.06731 0.56473 0.0
H837 H 0.83475 0.08986 0.41885 0.0
H838 H 0.89481 0.10011 0.57037 0.0
H839 H 0.86387 0.12331 0.42682 0.0
H840 H 0.93102 0.17075 0.36662 0.0
H841 H 0.89788 0.14116 0.37118 0.0
H842 H 0.90719 0.13224 0.62889 0.0
H843 H 0.94043 0.16111 0.62297 0.0
C844 C 0.86515 0.07933 0.53462 0.0
C845 C 0.84804 0.07586 0.49081 0.0
C846 C 0.88169 0.09828 0.53865 0.0
C847 C 0.88163 0.1144 0.49954 0.0
C848 C 0.8644 0.11114 0.45718 0.0
C849 C 0.8477 0.09203 0.45305 0.0
C850 C 0.9258 0.16256 0.42439 0.0
C851 C 0.93838 0.16789 0.49389 0.0
C852 C 0.9068 0.14571 0.42722 0.0
C853 C 0.90005 0.13413 0.49997 0.0
C854 C 0.91215 0.1405 0.57119 0.0
C855 C 0.93117 0.15705 0.56792 0.0
H856 H 0.93215 0.77218 0.35674 0.0
H857 H 0.94642 0.8006 0.59743 0.0
H858 H 0.89954 0.76988 0.36207 0.0
H859 H 0.91378 0.79764 0.60435 0.0
H860 H 0.8696 0.81699 0.53481 0.0
H861 H 0.89937 0.81446 0.53623 0.0
H862 H 0.86693 0.75584 0.42775 0.0
H863 H 0.83687 0.7586 0.42388 0.0
C864 C 0.92816 0.77758 0.41136 0.0
C865 C 0.94194 0.7869 0.47594 0.0
C866 C 0.90946 0.77619 0.41464 0.0
C867 C 0.90418 0.78389 0.48303 0.0
C868 C 0.91757 0.79207 0.54969 0.0
C869 C 0.93626 0.79371 0.54588 0.0
C870 C 0.86865 0.80346 0.5116 0.0
C871 C 0.85076 0.78799 0.47922 0.0
C872 C 0.88577 0.80195 0.513 0.0
C873 C 0.88553 0.78487 0.48281 0.0
C874 C 0.86764 0.76926 0.45095 0.0
C875 C 0.85041 0.77081 0.44916 0.0
H876 H 0.8118 0.53744 0.79504 0.0
H877 H 0.84397 0.5949 0.91444 0.0
H878 H 0.78245 0.54053 0.7883 0.0
H879 H 0.81428 0.59826 0.90513 0.0
H880 H 0.74827 0.58032 0.97219 0.0
H881 H 0.78125 0.5836 0.96705 0.0
H882 H 0.76859 0.55793 0.72071 0.0
H883 H 0.73546 0.5539 0.72755 0.0
C884 C 0.81273 0.55091 0.81902 0.0
C885 C 0.8303 0.5659 0.85566 0.0
C886 C 0.79585 0.55276 0.81435 0.0
C887 C 0.79603 0.56973 0.84547 0.0
C888 C 0.81365 0.58494 0.88103 0.0
C889 C 0.83066 0.58305 0.88604 0.0
C890 C 0.75269 0.57564 0.91663 0.0
C891 C 0.73921 0.5665 0.85094 0.0
C892 C 0.77161 0.57762 0.91345 0.0
C893 C 0.77742 0.57071 0.84404 0.0
C894 C 0.76437 0.56289 0.77605 0.0
C895 C 0.74541 0.56062 0.77981 0.0
H896 H 0.4556 0.27729 0.75306 0.0
H897 H 0.43478 0.26833 1.00701 0.0
H898 H 0.45315 0.24487 0.75312 0.0
H899 H 0.43305 0.23594 1.00838 0.0
H900 H 0.42343 0.17284 0.9604 0.0
H901 H 0.41848 0.20161 0.95363 0.0
H902 H 0.47396 0.23443 0.81992 0.0
H903 H 0.47867 0.20604 0.82471 0.0
C904 C 0.45037 0.26828 0.80882 0.0
C905 C 0.44571 0.27542 0.88048 0.0
C906 C 0.44904 0.24974 0.80901 0.0
C907 C 0.44338 0.23805 0.88142 0.0
C908 C 0.43744 0.2446 0.95162 0.0
C909 C 0.43849 0.26314 0.95097 0.0
C910 C 0.43448 0.18619 0.92922 0.0
C911 C 0.4514 0.18704 0.89279 0.0
C912 C 0.43167 0.20266 0.92561 0.0
C913 C 0.44569 0.22021 0.88529 0.0
C914 C 0.46259 0.221 0.84959 0.0
C915 C 0.46537 0.20468 0.853 0.0
H916 H 0.73649 0.19055 0.75008 0.0
H917 H 0.74721 0.17904 1.00198 0.0
H918 H 0.76894 0.22056 0.74695 0.0
H919 H 0.77961 0.20962 0.99998 0.0
H920 H 0.84227 0.26255 0.94694 0.0
H921 H 0.81346 0.22894 0.94034 0.0
H922 H 0.77996 0.25194 0.81492 0.0
H923 H 0.80848 0.28507 0.81966 0.0
C924 C 0.7459 0.1944 0.80461 0.0
C925 C 0.73925 0.18269 0.87674 0.0
C926 C 0.76444 0.21161 0.80295 0.0
C927 C 0.77663 0.21769 0.87386 0.0
C928 C 0.77056 0.20529 0.94432 0.0
C929 C 0.75202 0.18784 0.94559 0.0
C930 C 0.82877 0.26037 0.91759 0.0
C931 C 0.82773 0.27653 0.88372 0.0
C932 C 0.81228 0.24115 0.91408 0.0
C933 C 0.79452 0.23776 0.87636 0.0
C934 C 0.79356 0.25394 0.8427 0.0
C935 C 0.80992 0.27303 0.84611 0.0
H936 H 0.8686 0.4817 0.90088 0.0
H937 H 0.92492 0.51283 0.77118 0.0
H938 H 0.87119 0.45205 0.90473 0.0
H939 H 0.92781 0.4829 0.77762 0.0
H940 H 0.90829 0.41678 0.70812 0.0
H941 H 0.91201 0.44991 0.71551 0.0
H942 H 0.88878 0.43769 0.96627 0.0
H943 H 0.88429 0.40448 0.95733 0.0
C944 C 0.88173 0.48235 0.87417 0.0
C945 C 0.89651 0.49968 0.83528 0.0
C946 C 0.8833 0.4653 0.87707 0.0
C947 C 0.89977 0.4651 0.84189 0.0
C948 C 0.91485 0.48255 0.80467 0.0
C949 C 0.91325 0.4997 0.80144 0.0
C950 C 0.9042 0.42133 0.76498 0.0
C951 C 0.89561 0.40797 0.83148 0.0
C952 C 0.90644 0.44033 0.76949 0.0
C953 C 0.90037 0.44632 0.84101 0.0
C954 C 0.89308 0.43335 0.90942 0.0
C955 C 0.89054 0.41434 0.90441 0.0
H956 H 0.52404 0.4019 0.93508 0.0
H957 H 0.50893 0.41536 0.69462 0.0
H958 H 0.55421 0.43411 0.93736 0.0
H959 H 0.53975 0.44758 0.69539 0.0
H960 H 0.59227 0.51026 0.754 0.0
H961 H 0.55926 0.48049 0.75861 0.0
H962 H 0.58504 0.44746 0.8654 0.0
H963 H 0.61755 0.47695 0.86311 0.0
C964 C 0.52719 0.41179 0.88259 0.0
C965 C 0.51428 0.406 0.81408 0.0
C966 C 0.54454 0.43023 0.88372 0.0
C967 C 0.54964 0.44326 0.81577 0.0
C968 C 0.53624 0.43791 0.74883 0.0
C969 C 0.51864 0.41944 0.7482 0.0
C970 C 0.59082 0.49664 0.77882 0.0
C971 C 0.60758 0.49607 0.80863 0.0
C972 C 0.57193 0.47958 0.78109 0.0
C973 C 0.56946 0.46163 0.81313 0.0
C974 C 0.58627 0.46112 0.84219 0.0
C975 C 0.60501 0.47808 0.84034 0.0
H976 H 0.59349 0.09418 0.76153 0.0
H977 H 0.61785 0.15075 0.88769 0.0
H978 H 0.56038 0.09079 0.76695 0.0
H979 H 0.58527 0.14758 0.89102 0.0
H980 H 0.5241 0.13145 0.95722 0.0
H981 H 0.55388 0.12859 0.95906 0.0
H982 H 0.54162 0.10574 0.70802 0.0
H983 H 0.51123 0.10795 0.70745 0.0
C984 C 0.59182 0.10587 0.79028 0.0
C985 C 0.60834 0.12269 0.82451 0.0
C986 C 0.57289 0.10395 0.79309 0.0
C987 C 0.57016 0.11881 0.83024 0.0
C988 C 0.58672 0.13562 0.8638 0.0
C989 C 0.6055 0.1375 0.86128 0.0
C990 C 0.52763 0.12559 0.90274 0.0
C991 C 0.51554 0.12021 0.83172 0.0
C992 C 0.54473 0.12402 0.90364 0.0
C993 C 0.55035 0.11735 0.83302 0.0
C994 C 0.53767 0.11089 0.76348 0.0
C995 C 0.52032 0.11221 0.76301 0.0
H996 H 0.50945 0.92237 0.28076 0.0
H997 H 0.47591 0.86742 0.1444 0.0
H998 H 0.48034 0.92684 0.28018 0.0
H999 H 0.44714 0.87168 0.14559 0.0
H1000 H 0.40408 0.89057 0.08538 0.0
H1001 H 0.43641 0.89275 0.08216 0.0
H1002 H 0.44613 0.91181 0.3387 0.0
H1003 H 0.41376 0.91026 0.34082 0.0
C1004 C 0.49593 0.91126 0.25082 0.0
C1005 C 0.49509 0.89459 0.2122 0.0
C1006 C 0.47927 0.9138 0.25079 0.0
C1007 C 0.46153 0.89975 0.21191 0.0
C1008 C 0.46071 0.88305 0.17429 0.0
C1009 C 0.47724 0.88054 0.17416 0.0
C1010 C 0.41323 0.89549 0.1408 0.0
C1011 C 0.40632 0.89993 0.21379 0.0
C1012 C 0.43172 0.89666 0.13909 0.0
C1013 C 0.44361 0.90197 0.21079 0.0
C1014 C 0.43729 0.90767 0.28246 0.0
C1015 C 0.41878 0.90674 0.2838 0.0
H1016 H 0.0915 0.59594 0.27992 0.0
H1017 H 0.14641 0.61787 0.1418 0.0
H1018 H 0.08722 0.56248 0.27765 0.0
H1019 H 0.14241 0.58503 0.14167 0.0
H1020 H 0.12505 0.52346 0.08522 0.0
H1021 H 0.12222 0.55319 0.08019 0.0
H1022 H 0.10234 0.54376 0.33587 0.0
H1023 H 0.10442 0.5133 0.33955 0.0
C1024 C 0.10261 0.59366 0.24907 0.0
C1025 C 0.11925 0.60961 0.21077 0.0
C1026 C 0.1002 0.57453 0.24811 0.0
C1027 C 0.11436 0.57105 0.20871 0.0
C1028 C 0.13095 0.58704 0.17078 0.0
C1029 C 0.13332 0.60599 0.17146 0.0
C1030 C 0.11984 0.5276 0.14005 0.0
C1031 C 0.11528 0.51632 0.21323 0.0
C1032 C 0.11828 0.54466 0.13731 0.0
C1033 C 0.11251 0.5511 0.20825 0.0
C1034 C 0.1068 0.53917 0.28014 0.0
C1035 C 0.10805 0.52181 0.28243 0.0
H1036 H 0.50123 0.60154 0.32366 0.0
H1037 H 0.48761 0.61008 0.07189 0.0
H1038 H 0.47076 0.56907 0.32781 0.0
H1039 H 0.45775 0.57755 0.07486 0.0
H1040 H 0.39405 0.53846 0.15546 0.0
H1041 H 0.42696 0.56709 0.14758 0.0
H1042 H 0.45115 0.53462 0.27258 0.0
H1043 H 0.41762 0.50556 0.28238 0.0
C1044 C 0.49195 0.59627 0.26871 0.0
C1045 C 0.4965 0.60845 0.19808 0.0
C1046 C 0.47459 0.57767 0.27094 0.0
C1047 C 0.46169 0.57096 0.20222 0.0
C1048 C 0.46712 0.58257 0.1296 0.0
C1049 C 0.48423 0.60117 0.12781 0.0
C1050 C 0.40629 0.53723 0.18118 0.0
C1051 C 0.40314 0.5196 0.21931 0.0
C1052 C 0.42525 0.55368 0.17599 0.0
C1053 C 0.44171 0.55302 0.2082 0.0
C1054 C 0.43871 0.53553 0.24717 0.0
C1055 C 0.41955 0.51891 0.25259 0.0
H1056 H 0.53139 0.73018 0.19486 0.0
H1057 H 0.58716 0.75311 0.0624 0.0
H1058 H 0.53524 0.763 0.19716 0.0
H1059 H 0.59121 0.78645 0.06654 0.0
H1060 H 0.57415 0.83605 1.00916 0.0
H1061 H 0.57598 0.80545 1.00888 0.0
H1062 H 0.55572 0.79451 0.26393 0.0
H1063 H 0.55329 0.82448 0.26318 0.0
C1064 C 0.5446 0.74225 0.16674 0.0
C1065 C 0.559 0.73895 0.12867 0.0
C1066 C 0.54687 0.76117 0.16863 0.0
C1067 C 0.56367 0.7774 0.13304 0.0
C1068 C 0.57808 0.77421 0.09434 0.0
C1069 C 0.57579 0.75514 0.09227 0.0
C1070 C 0.57041 0.82721 0.06537 0.0
C1071 C 0.56321 0.83238 0.13563 0.0
C1072 C 0.5715 0.80975 0.06533 0.0
C1073 C 0.56559 0.79737 0.13585 0.0
C1074 C 0.55983 0.80343 0.20786 0.0
C1075 C 0.5585 0.82063 0.20754 0.0
H1076 H 0.27863 0.82567 0.27339 0.0
H1077 H 0.26799 0.83744 0.0218 0.0
H1078 H 0.24612 0.79584 0.27659 0.0
H1079 H 0.23545 0.80693 0.02378 0.0
H1080 H 0.17206 0.75493 0.08174 0.0
H1081 H 0.2016 0.78815 0.0841 0.0
H1082 H 0.23426 0.76432 0.2103 0.0
H1083 H 0.20506 0.73166 0.20995 0.0
C1084 C 0.26927 0.82186 0.21874 0.0
C1085 C 0.27594 0.83364 0.14682 0.0
C1086 C 0.25067 0.80474 0.22046 0.0
C1087 C 0.2384 0.79877 0.14979 0.0
C1088 C 0.24456 0.81116 0.07925 0.0
C1089 C 0.26318 0.82856 0.07796 0.0
C1090 C 0.18554 0.75686 0.11033 0.0
C1091 C 0.18612 0.74062 0.14607 0.0
C1092 C 0.20246 0.77585 0.11135 0.0
C1093 C 0.22019 0.7789 0.14825 0.0
C1094 C 0.22072 0.76261 0.18321 0.0
C1095 C 0.20393 0.74379 0.18245 0.0
H1096 H 0.25903 0.42603 0.07963 0.0
H1097 H 0.27992 0.47917 0.22849 0.0
H1098 H 0.22544 0.4216 0.08125 0.0
H1099 H 0.24705 0.47505 0.22798 0.0
H1100 H 0.18554 0.45796 0.2788 0.0
H1101 H 0.21475 0.45415 0.28497 0.0
H1102 H 0.20736 0.43776 0.02515 0.0
H1103 H 0.17737 0.44073 0.0203 0.0
C1104 C 0.25649 0.4367 0.11276 0.0
C1105 C 0.27219 0.45292 0.15405 0.0
C1106 C 0.2373 0.4342 0.11338 0.0
C1107 C 0.23354 0.44785 0.15553 0.0
C1108 C 0.24927 0.46396 0.19669 0.0
C1109 C 0.26825 0.46642 0.19629 0.0
C1110 C 0.19002 0.45329 0.22332 0.0
C1111 C 0.17951 0.45001 0.14867 0.0
C1112 C 0.20675 0.45113 0.22673 0.0
C1113 C 0.21364 0.44613 0.15502 0.0
C1114 C 0.20239 0.44161 0.08147 0.0
C1115 C 0.18533 0.44341 0.0785 0.0
H1116 H 0.03253 0.22737 0.21422 0.0
H1117 H 0.97824 0.17123 0.242 0.0
H1118 H 0.0321 0.22175 0.06411 0.0
H1119 H 0.97735 0.16599 0.09077 0.0
H1120 H 0.97564 0.19958 0.82613 0.0
H1121 H 0.97574 0.19428 0.97637 0.0
H1122 H 0.02955 0.19134 0.95091 0.0
H1123 H 0.02896 0.1958 0.79965 0.0
C1124 C 0.02082 0.21359 0.18827 0.0
C1125 C 0.00554 0.19962 0.23934 0.0
C1126 C 0.02058 0.21038 0.10266 0.0
C1127 C 0.00473 0.19342 0.06633 0.0
C1128 C 0.9898 0.17908 0.1177 0.0
C1129 C 0.99036 0.18202 0.2039 0.0
C1130 C 0.98705 0.19705 0.8524 0.0
C1131 C 0.00216 0.19785 0.80171 0.0
C1132 C 0.9871 0.19402 0.93807 0.0
C1133 C 0.00261 0.19234 0.97475 0.0
C1134 C 0.01735 0.19241 0.9237 0.0
C1135 C 0.01696 0.19486 0.83749 0.0
H1136 H 0.84244 0.83297 0.22085 0.0
H1137 H 0.77905 0.79585 0.18653 0.0
H1138 H 0.8464 0.83994 0.07024 0.0
H1139 H 0.78291 0.80288 0.03854 0.0
H1140 H 0.78991 0.82852 0.79254 0.0
H1141 H 0.79354 0.83247 0.943 0.0
H1142 H 0.83978 0.817 0.93632 0.0
H1143 H 0.83627 0.81335 0.7841 0.0
C1144 C 0.82938 0.82664 0.18145 0.0
C1145 C 0.81044 0.81387 0.2151 0.0
C1146 C 0.83166 0.8305 0.09556 0.0
C1147 C 0.81496 0.82204 0.04291 0.0
C1148 C 0.79604 0.80984 0.07758 0.0
C1149 C 0.79383 0.80571 0.16233 0.0
C1150 C 0.8013 0.82661 0.82302 0.0
C1151 C 0.81277 0.82058 0.77743 0.0
C1152 C 0.80333 0.8288 0.90898 0.0
C1153 C 0.81673 0.82477 0.95137 0.0
C1154 C 0.82942 0.82031 0.90503 0.0
C1155 C 0.82743 0.8182 0.81824 0.0
H1156 H 0.20314 0.98452 0.20538 0.0
H1157 H 0.18694 0.02969 0.24061 0.0
H1158 H 0.2001 0.98648 0.05538 0.0
H1159 H 0.184 0.03171 0.0887 0.0
H1160 H 0.17125 0.00475 0.78576 0.0
H1161 H 0.16498 0.00325 0.93678 0.0
H1162 H 0.22723 0.02504 0.98328 0.0
H1163 H 0.23355 0.02662 0.83459 0.0
C1164 C 0.19823 -0.00563 0.18105 0.0
C1165 C 0.19537 0.00701 0.23443 0.0
C1166 C 0.19653 -0.00449 0.0953 0.0
C1167 C 0.19201 0.00936 0.0609 0.0
C1168 C 0.18738 0.02083 0.11412 0.0
C1169 C 0.18899 0.01961 0.20077 0.0
C1170 C 0.18365 0.0098 0.82839 0.0
C1171 C 0.20285 0.01556 0.79846 0.0
C1172 C 0.18004 0.00888 0.91449 0.0
C1173 C 0.19561 0.01379 0.97104 0.0
C1174 C 0.21497 0.021 0.94073 0.0
C1175 C 0.21856 0.02189 0.85561 0.0
H1176 H 0.04168 0.83609 0.78477 0.0
H1177 H 0.97757 0.80457 0.79166 0.0
H1178 H 0.04274 0.84085 0.93547 0.0
H1179 H 0.97852 0.80935 0.94305 0.0
H1180 H 0.98953 0.8289 0.21905 0.0
H1181 H -0.00905 0.83493 0.06817 0.0
H1182 H 0.03155 0.8125 0.04057 0.0
H1183 H 0.02979 0.80617 0.18947 0.0
C1184 C 0.02784 0.83078 0.81854 0.0
C1185 C 0.00956 0.8201 0.77737 0.0
C1186 C 0.02843 0.83342 0.90456 0.0
C1187 C 0.01072 0.82539 0.95091 0.0
C1188 C -0.00761 0.81587 0.90871 0.0
C1189 C -0.00819 0.81311 0.82239 0.0
C1190 C -0.00092 0.82573 0.18062 0.0
C1191 C 0.00957 0.8171 0.21552 0.0
C1192 C -0.00022 0.82904 0.09455 0.0
C1193 C 0.01139 0.82423 0.04283 0.0
C1194 C 0.02266 0.81658 0.07889 0.0
C1195 C 0.0216 0.81288 0.16405 0.0
H1196 H 0.17985 0.16857 0.22132 0.0
H1197 H 0.20912 0.232 0.18253 0.0
H1198 H 0.17625 0.16341 0.06951 0.0
H1199 H 0.20547 0.22684 0.03292 0.0
H1200 H 0.23045 0.21296 0.8075 0.0
H1201 H 0.22534 0.20908 0.95711 0.0
H1202 H 0.16178 0.17636 0.92072 0.0
H1203 H 0.16689 0.1802 0.76888 0.0
C1204 C 0.18482 0.18131 0.18067 0.0
C1205 C 0.19496 0.2007 0.21335 0.0
C1206 C 0.18282 0.17835 0.09414 0.0
C1207 C 0.19087 0.19477 0.04012 0.0
C1208 C 0.19935 0.21397 0.07347 0.0
C1209 C 0.20141 0.21691 0.15901 0.0
C1210 C 0.21538 0.20445 0.83105 0.0
C1211 C 0.19907 0.19707 0.77675 0.0
C1212 C 0.21247 0.20227 0.91661 0.0
C1213 C 0.19319 0.19271 0.95001 0.0
C1214 C 0.17678 0.18378 0.89604 0.0
C1215 C 0.17971 0.18592 0.8095 0.0
H1216 H 0.82957 0.04515 0.21265 0.0
H1217 H 0.81078 0.98272 0.21669 0.0
H1218 H 0.83432 0.04598 0.06265 0.0
H1219 H 0.81519 0.98339 0.06473 0.0
H1220 H 0.83214 -0.00339 0.78208 0.0
H1221 H 0.83882 -0.001 0.93291 0.0
H1222 H 0.80525 0.0292 0.96421 0.0
H1223 H 0.79847 0.02656 0.81597 0.0
C1224 C 0.82697 0.03171 0.18134 0.0
C1225 C 0.81969 0.01385 0.22558 0.0
C1226 C 0.82965 0.03217 0.09559 0.0
C1227 C 0.82483 0.0147 0.05191 0.0
C1228 C 0.81911 -0.0029 0.097 0.0
C1229 C 0.81656 -0.00332 0.18366 0.0
C1230 C 0.82663 0.00411 0.82146 0.0
C1231 C 0.81487 0.01149 0.78778 0.0
C1232 C 0.83028 0.00532 0.90747 0.0
C1233 C 0.82263 0.01436 0.96014 0.0
C1234 C 0.81158 0.02239 0.92524 0.0
C1235 C 0.80765 0.02084 0.84037 0.0
H1236 H 0.64525 0.51137 0.12309 0.0
H1237 H 0.70822 0.55337 0.1245 0.0
H1238 H 0.64585 0.50833 0.27529 0.0
H1239 H 0.70891 0.55036 0.27543 0.0
H1240 H 0.6892 0.56827 0.5205 0.0
H1241 H 0.69182 0.56366 0.37237 0.0
H1242 H 0.6618 0.50009 0.4074 0.0
H1243 H 0.6595 0.50478 0.55771 0.0
C1244 C 0.65931 0.51927 0.15572 0.0
C1245 C 0.67671 0.53251 0.1128 0.0
C1246 C 0.65967 0.51758 0.24253 0.0
C1247 C 0.6774 0.52927 0.287 0.0
C1248 C 0.69504 0.54129 0.24276 0.0
C1249 C 0.69467 0.54294 0.15655 0.0
C1250 C 0.68343 0.55331 0.49694 0.0
C1251 C 0.67417 0.53689 0.55049 0.0
C1252 C 0.68501 0.55067 0.41219 0.0
C1253 C 0.67707 0.53152 0.37849 0.0
C1254 C 0.66805 0.51501 0.43199 0.0
C1255 C 0.66686 0.51769 0.51773 0.0
H1256 H 0.50568 0.14433 0.57879 0.0
H1257 H 0.46492 0.16671 0.56403 0.0
H1258 H 0.51013 0.1474 0.4275 0.0
H1259 H 0.46977 0.17033 0.41271 0.0
H1260 H 0.49264 0.18167 0.13806 0.0
H1261 H 0.49853 0.18733 0.28857 0.0
H1262 H 0.47925 0.12523 0.32337 0.0
H1263 H 0.47271 0.11947 0.17438 0.0
C1264 C 0.49839 0.15074 0.54336 0.0
C1265 C 0.48521 0.15558 0.58254 0.0
C1266 C 0.50084 0.15238 0.45703 0.0
C1267 C 0.49032 0.15913 0.40874 0.0
C1268 C 0.47824 0.16534 0.44877 0.0
C1269 C 0.47549 0.16333 0.53507 0.0
C1270 C 0.49014 0.16939 0.1779 0.0
C1271 C 0.4823 0.15015 0.145 0.0
C1272 C 0.49339 0.1726 0.26371 0.0
C1273 C 0.48942 0.15672 0.31719 0.0
C1274 C 0.48264 0.13775 0.28334 0.0
C1275 C 0.47886 0.13445 0.19829 0.0
H1276 H 0.8366 0.33756 0.12712 0.0
H1277 H 0.89648 0.35019 0.17908 0.0
H1278 H 0.83012 0.3363 0.27784 0.0
H1279 H 0.88989 0.34873 0.32701 0.0
H1280 H 0.86487 0.31433 0.55688 0.0
H1281 H 0.86182 0.31448 0.40614 0.0
H1282 H 0.84896 0.36233 0.42385 0.0
H1283 H 0.85185 0.36203 0.57645 0.0
C1284 C 0.84845 0.34044 0.17031 0.0
C1285 C 0.86695 0.34364 0.14106 0.0
C1286 C 0.8447 0.33967 0.25625 0.0
C1287 C 0.85941 0.34203 0.31346 0.0
C1288 C 0.8782 0.3465 0.28401 0.0
C1289 C 0.88195 0.34734 0.19913 0.0
C1290 C 0.86058 0.32432 0.52891 0.0
C1291 C 0.85862 0.33817 0.57789 0.0
C1292 C 0.85892 0.32447 0.44277 0.0
C1293 C 0.85542 0.33859 0.40371 0.0
C1294 C 0.85157 0.35125 0.45283 0.0
C1295 C 0.85314 0.35103 0.53986 0.0
H1296 H 0.70736 0.1703 0.13942 0.0
H1297 H 0.64325 0.13845 0.14716 0.0
H1298 H 0.70848 0.17435 0.29064 0.0
H1299 H 0.64429 0.14272 0.29887 0.0
H1300 H 0.65692 0.16299 0.57649 0.0
H1301 H 0.65821 0.16943 0.42603 0.0
H1302 H 0.69582 0.14371 0.39237 0.0
H1303 H 0.69403 0.13678 0.54109 0.0
C1304 C 0.69353 0.1649 0.1734 0.0
C1305 C 0.67523 0.1543 0.13223 0.0
C1306 C 0.69416 0.1671 0.25972 0.0
C1307 C 0.67648 0.15881 0.30626 0.0
C1308 C 0.65813 0.14946 0.26426 0.0
C1309 C 0.65751 0.14704 0.17773 0.0
C1310 C 0.66576 0.15911 0.53685 0.0
C1311 C 0.6754 0.14942 0.57004 0.0
C1312 C 0.6664 0.16269 0.45105 0.0
C1313 C 0.67718 0.15713 0.39788 0.0
C1314 C 0.68758 0.14834 0.43205 0.0
C1315 C 0.68651 0.14432 0.51701 0.0
H1316 H 0.90011 0.55652 0.15461 0.0
H1317 H 0.83682 0.51849 0.12085 0.0
H1318 H 0.89645 0.54953 0.30247 0.0
H1319 H 0.83306 0.51151 0.2716 0.0
H1320 H 0.84321 0.53746 0.55965 0.0
H1321 H 0.8394 0.53403 0.40738 0.0
H1322 H 0.88655 0.5199 0.39621 0.0
H1323 H 0.89057 0.52373 0.54639 0.0
C1324 C 0.88539 0.54647 0.17892 0.0
C1325 C 0.86875 0.53804 0.12629 0.0
C1326 C 0.8833 0.54238 0.26365 0.0
C1327 C 0.86448 0.52989 0.29855 0.0
C1328 C 0.84773 0.52118 0.24611 0.0
C1329 C 0.8499 0.52503 0.16014 0.0
C1330 C 0.85225 0.53301 0.52448 0.0
C1331 C 0.86733 0.53108 0.56396 0.0
C1332 C 0.85007 0.53101 0.43765 0.0
C1333 C 0.8629 0.527 0.39005 0.0
C1334 C 0.87667 0.52329 0.43116 0.0
C1335 C 0.87895 0.52545 0.51701 0.0
H1336 H 0.49425 0.32597 0.1187 0.0
H1337 H 0.46858 0.36338 0.15979 0.0
H1338 H 0.49815 0.32427 0.27022 0.0
H1339 H 0.47253 0.36172 0.30922 0.0
H1340 H 0.44543 0.32026 0.53176 0.0
H1341 H 0.45098 0.32158 0.38234 0.0
H1342 H 0.51442 0.35461 0.42141 0.0
H1343 H 0.5089 0.35327 0.57297 0.0
C1344 C 0.49016 0.3344 0.15971 0.0
C1345 C 0.48094 0.34465 0.12773 0.0
C1346 C 0.49234 0.33338 0.2461 0.0
C1347 C 0.48546 0.34274 0.30077 0.0
C1348 C 0.47785 0.35432 0.26812 0.0
C1349 C 0.4756 0.35526 0.18268 0.0
C1350 C 0.4606 0.32733 0.5089 0.0
C1351 C 0.47673 0.33683 0.5639 0.0
C1352 C 0.46375 0.32807 0.42345 0.0
C1353 C 0.48309 0.33834 0.39084 0.0
C1354 C 0.49938 0.34652 0.44551 0.0
C1355 C 0.49621 0.3457 0.53192 0.0
H1356 H 0.31819 0.87739 0.49507 0.0
H1357 H 0.35586 0.85202 0.45316 0.0
H1358 H 0.31994 0.87342 0.64449 0.0
H1359 H 0.35764 0.84811 0.60462 0.0
H1360 H 0.32766 0.8376 0.90856 0.0
H1361 H 0.32602 0.83179 0.75724 0.0
H1362 H 0.36136 0.89494 0.71595 0.0
H1363 H 0.363 0.90079 0.86523 0.0
C1364 C 0.32638 0.87042 0.51776 0.0
C1365 C 0.33702 0.86517 0.46255 0.0
C1366 C 0.32735 0.86815 0.6032 0.0
C1367 C 0.33901 0.86059 0.63558 0.0
C1368 C 0.34845 0.85384 0.58069 0.0
C1369 C 0.34738 0.85604 0.49433 0.0
C1370 C 0.33566 0.85014 0.86712 0.0
C1371 C 0.3453 0.86966 0.89849 0.0
C1372 C 0.33467 0.84681 0.78083 0.0
C1373 C 0.34347 0.86297 0.72558 0.0
C1374 C 0.35444 0.88228 0.75752 0.0
C1375 C 0.35534 0.8856 0.8429 0.0
H1376 H 0.11404 0.472 0.86584 0.0
H1377 H 0.17723 0.49904 0.90918 0.0
H1378 H 0.11998 0.4762 0.71658 0.0
H1379 H 0.18314 0.50319 0.75786 0.0
H1380 H 0.16316 0.51333 0.45398 0.0
H1381 H 0.16717 0.51893 0.60545 0.0
H1382 H 0.14113 0.45589 0.64483 0.0
H1383 H 0.13706 0.45025 0.49537 0.0
C1384 C 0.12926 0.47935 0.84353 0.0
C1385 C 0.14516 0.48502 0.89912 0.0
C1386 C 0.13264 0.48176 0.75815 0.0
C1387 C 0.15197 0.48989 0.7262 0.0
C1388 C 0.16811 0.49701 0.78146 0.0
C1389 C 0.16473 0.49467 0.86775 0.0
C1390 C 0.15901 0.5008 0.49503 0.0
C1391 C 0.14965 0.48133 0.46313 0.0
C1392 C 0.16126 0.50401 0.5814 0.0
C1393 C 0.15433 0.48779 0.63617 0.0
C1394 C 0.14655 0.46859 0.60363 0.0
C1395 C 0.14421 0.46539 0.51818 0.0
H1396 H 0.51073 0.68237 0.88946 0.0
H1397 H 0.55027 0.65929 0.84363 0.0
H1398 H 0.50625 0.68372 0.73819 0.0
H1399 H 0.54584 0.66073 0.69478 0.0
H1400 H 0.56278 0.69903 0.4682 0.0
H1401 H 0.5584 0.69794 0.61841 0.0
H1402 H 0.49581 0.656 0.58991 0.0
H1403 H 0.50017 0.65716 0.43768 0.0
C1404 C 0.51799 0.67709 0.84744 0.0
C1405 C 0.5311 0.67101 0.87827 0.0
C1406 C 0.51546 0.67791 0.76121 0.0
C1407 C 0.52597 0.67261 0.70546 0.0
C1408 C 0.53779 0.66513 0.7367 0.0
C1409 C 0.54031 0.66432 0.82193 0.0
C1410 C 0.54794 0.69007 0.49364 0.0
C1411 C 0.53184 0.67806 0.44157 0.0
C1412 C 0.54546 0.68943 0.57949 0.0
C1413 C 0.52684 0.6767 0.6153 0.0
C1414 C 0.51028 0.66598 0.56337 0.0
C1415 C 0.51277 0.6667 0.47658 0.0
H1416 H 0.32479 0.50076 0.91488 0.0
H1417 H 0.3584 0.47087 0.87548 0.0
H1418 H 0.32333 0.50453 0.76313 0.0
H1419 H 0.35697 0.47469 0.72593 0.0
H1420 H 0.31766 0.45018 0.50109 0.0
H1421 H 0.31892 0.45532 0.65069 0.0
H1422 H 0.35129 0.5188 0.61389 0.0
H1423 H 0.34998 0.51366 0.46209 0.0
C1424 C 0.33245 0.49567 0.87412 0.0
C1425 C 0.34152 0.48532 0.90663 0.0
C1426 C 0.33155 0.49778 0.78762 0.0
C1427 C 0.33981 0.48963 0.73345 0.0
C1428 C 0.35033 0.4809 0.76661 0.0
C1429 C 0.35116 0.47875 0.85213 0.0
C1430 C 0.32457 0.46525 0.52455 0.0
C1431 C 0.3339 0.48152 0.47017 0.0
C1432 C 0.3253 0.46818 0.61009 0.0
C1433 C 0.33544 0.48742 0.64337 0.0
C1434 C 0.34337 0.50383 0.5893 0.0
C1435 C 0.34255 0.50088 0.50278 0.0
H1436 H 0.51815 0.83484 0.89523 0.0
H1437 H 0.53478 0.89643 0.86553 0.0
H1438 H 0.51546 0.83063 0.74294 0.0
H1439 H 0.53203 0.89221 0.71512 0.0
H1440 H 0.56575 0.88626 0.49305 0.0
H1441 H 0.55907 0.88152 0.64136 0.0
H1442 H 0.49715 0.84027 0.59255 0.0
H1443 H 0.50374 0.8451 0.44186 0.0
C1444 C 0.52033 0.84717 0.8565 0.0
C1445 C 0.52676 0.86598 0.89179 0.0
C1446 C 0.51888 0.84479 0.76963 0.0
C1447 C 0.52376 0.86118 0.71786 0.0
C1448 C 0.52829 0.8794 0.7539 0.0
C1449 C 0.52981 0.88178 0.83987 0.0
C1450 C 0.55074 0.8759 0.51336 0.0
C1451 C 0.53522 0.86629 0.45552 0.0
C1452 C 0.54695 0.87319 0.59836 0.0
C1453 C 0.52758 0.86076 0.62794 0.0
C1454 C 0.5122 0.84994 0.57084 0.0
C1455 C 0.51601 0.85268 0.48489 0.0
H1456 H 0.13714 0.69645 0.48768 0.0
H1457 H 0.16518 0.66091 0.45503 0.0
H1458 H 0.14068 0.6956 0.63766 0.0
H1459 H 0.16863 0.65996 0.60724 0.0
H1460 H 0.17827 0.68587 0.90533 0.0
H1461 H 0.18339 0.68691 0.75355 0.0
H1462 H 0.11999 0.65915 0.71654 0.0
H1463 H 0.11486 0.65812 0.86597 0.0
C1464 C 0.14457 0.6889 0.51266 0.0
C1465 C 0.1507 0.67857 0.46004 0.0
C1466 C 0.14656 0.68839 0.59839 0.0
C1467 C 0.15462 0.67745 0.6336 0.0
C1468 C 0.16238 0.6685 0.58117 0.0
C1469 C 0.16046 0.6691 0.49443 0.0
C1470 C 0.16545 0.67946 0.86457 0.0
C1471 C 0.14619 0.67218 0.89714 0.0
C1472 C 0.16839 0.6801 0.77807 0.0
C1473 C 0.15208 0.67342 0.72395 0.0
C1474 C 0.13281 0.66465 0.75715 0.0
C1475 C 0.12989 0.66406 0.84264 0.0
loop_
_geom_bond_atom_site_label_1
_geom_bond_atom_site_label_2
_geom_bond_distance
_geom_bond_site_symmetry_2
_ccdc_geom_bond_type
Sc0 O3 2.025 1_655 S
Sc0 O10 2.105 1_655 S
Sc0 O13 2.105 . S
Sc0 O16 2.105 . S
Sc0 O19 2.105 1_655 S
Sc1 O3 2.025 . S
Sc1 O11 2.105 . S
Sc1 O15 2.105 . S
Sc1 O17 2.105 1_455 S
Sc1 O21 2.105 . S
Sc2 O3 2.025 . S
Sc2 O12 2.105 . S
Sc2 O14 2.105 . S
Sc2 O18 2.105 . S
Sc2 O20 2.105 . S
O3 Sc0 2.025 1_455 S
O3 Sc1 2.025 . S
O3 Sc2 2.025 . S
C4 O10 1.268 . S
C4 O20 1.268 . S
C5 O11 1.268 . S
C5 O19 1.268 . S
C6 O12 1.268 . S
C6 O21 1.268 . S
C7 O13 1.268 . S
C7 O17 1.268 . S
C8 O14 1.268 1_655 S
C8 O16 1.268 . S
C9 O15 1.268 . S
C9 O18 1.268 . S
O10 Sc0 2.105 1_455 S
O10 C4 1.268 . S
O11 Sc1 2.105 . S
O11 C5 1.268 . S
O12 Sc2 2.105 . S
O12 C6 1.268 . S
O13 Sc0 2.105 . S
O13 C7 1.268 . S
O14 Sc2 2.105 . S
O14 C8 1.268 1_455 S
O15 Sc1 2.105 . S
O15 C9 1.268 . S
O16 Sc0 2.105 . S
O16 C8 1.268 . S
O17 Sc1 2.105 1_655 S
O17 C7 1.268 . S
O18 Sc2 2.105 . S
O18 C9 1.268 . S
O19 Sc0 2.105 1_455 S
O19 C5 1.268 . S
O20 Sc2 2.105 . S
O20 C4 1.268 . S
O21 Sc1 2.105 . S
O21 C6 1.268 . S
Sc22 O25 2.025 . S
Sc22 O32 2.105 . S
Sc22 O35 2.105 . S
Sc22 O38 2.105 . S
Sc22 O41 2.105 . S
Sc23 O25 2.025 . S
Sc23 O33 2.105 . S
Sc23 O37 2.105 . S
Sc23 O39 2.105 . S
Sc23 O43 2.105 . S
Sc24 O25 2.025 . S
Sc24 O34 2.105 . S
Sc24 O36 2.105 . S
Sc24 O40 2.105 . S
Sc24 O42 2.105 . S
O25 Sc22 2.025 . S
O25 Sc23 2.025 . S
O25 Sc24 2.025 . S
C26 O32 1.268 . S
C26 O42 1.268 . S
C27 O33 1.268 . S
C27 O41 1.268 . S
C28 O34 1.268 . S
C28 O43 1.268 . S
C29 O35 1.268 . S
C29 O39 1.268 . S
C30 O36 1.268 . S
C30 O38 1.268 . S
C31 O37 1.268 . S
C31 O40 1.268 . S
O32 Sc22 2.105 . S
O32 C26 1.268 . S
O33 Sc23 2.105 . S
O33 C27 1.268 . S
O34 Sc24 2.105 . S
O34 C28 1.268 . S
O35 Sc22 2.105 . S
O35 C29 1.268 . S
O36 Sc24 2.105 . S
O36 C30 1.268 . S
O37 Sc23 2.105 . S
O37 C31 1.268 . S
O38 Sc22 2.105 . S
O38 C30 1.268 . S
O39 Sc23 2.105 . S
O39 C29 1.268 . S
O40 Sc24 2.105 . S
O40 C31 1.268 . S
O41 Sc22 2.105 . S
O41 C27 1.268 . S
O42 Sc24 2.105 . S
O42 C26 1.268 . S
O43 Sc23 2.105 . S
O43 C28 1.268 . S
Sc44 O47 2.025 . S
Sc44 O54 2.105 . S
Sc44 O57 2.105 . S
Sc44 O60 2.105 . S
Sc44 O63 2.105 . S
Sc45 O47 2.025 . S
Sc45 O55 2.105 . S
Sc45 O59 2.105 . S
Sc45 O61 2.105 . S
Sc45 O65 2.105 1_545 S
Sc46 O47 2.025 1_565 S
Sc46 O56 2.105 . S
Sc46 O58 2.105 1_565 S
Sc46 O62 2.105 1_565 S
Sc46 O64 2.105 . S
O47 Sc44 2.025 . S
O47 Sc45 2.025 . S
O47 Sc46 2.025 1_545 S
C48 O54 1.268 1_565 S
C48 O64 1.268 . S
C49 O55 1.268 . S
C49 O63 1.268 . S
C50 O56 1.268 . S
C50 O65 1.268 . S
C51 O57 1.268 . S
C51 O61 1.268 . S
C52 O58 1.268 . S
C52 O60 1.268 . S
C53 O59 1.268 . S
C53 O62 1.268 . S
O54 Sc44 2.105 . S
O54 C48 1.268 1_545 S
O55 Sc45 2.105 . S
O55 C49 1.268 . S
O56 Sc46 2.105 . S
O56 C50 1.268 . S
O57 Sc44 2.105 . S
O57 C51 1.268 . S
O58 Sc46 2.105 1_545 S
O58 C52 1.268 . S
O59 Sc45 2.105 . S
O59 C53 1.268 . S
O60 Sc44 2.105 . S
O60 C52 1.268 . S
O61 Sc45 2.105 . S
O61 C51 1.268 . S
O62 Sc46 2.105 1_545 S
O62 C53 1.268 . S
O63 Sc44 2.105 . S
O63 C49 1.268 . S
O64 Sc46 2.105 . S
O64 C48 1.268 . S
O65 Sc45 2.105 1_565 S
O65 C50 1.268 . S
Sc66 O69 2.025 . S
Sc66 O76 2.105 . S
Sc66 O79 2.105 . S
Sc66 O82 2.105 . S
Sc66 O85 2.105 . S
Sc67 O69 2.025 . S
Sc67 O77 2.105 . S
Sc67 O81 2.105 1_455 S
Sc67 O83 2.105 . S
Sc67 O87 2.105 . S
Sc68 O69 2.025 1_655 S
Sc68 O78 2.105 1_655 S
Sc68 O80 2.105 . S
Sc68 O84 2.105 . S
Sc68 O86 2.105 1_655 S
O69 Sc66 2.025 . S
O69 Sc67 2.025 . S
O69 Sc68 2.025 1_455 S
C70 O76 1.268 . S
C70 O86 1.268 . S
C71 O77 1.268 . S
C71 O85 1.268 . S
C72 O78 1.268 . S
C72 O87 1.268 . S
C73 O79 1.268 . S
C73 O83 1.268 . S
C74 O80 1.268 . S
C74 O82 1.268 1_655 S
C75 O81 1.268 . S
C75 O84 1.268 . S
O76 Sc66 2.105 . S
O76 C70 1.268 . S
O77 Sc67 2.105 . S
O77 C71 1.268 . S
O78 Sc68 2.105 1_455 S
O78 C72 1.268 . S
O79 Sc66 2.105 . S
O79 C73 1.268 . S
O80 Sc68 2.105 . S
O80 C74 1.268 . S
O81 Sc67 2.105 1_655 S
O81 C75 1.268 . S
O82 Sc66 2.105 . S
O82 C74 1.268 1_455 S
O83 Sc67 2.105 . S
O83 C73 1.268 . S
O84 Sc68 2.105 . S
O84 C75 1.268 . S
O85 Sc66 2.105 . S
O85 C71 1.268 . S
O86 Sc68 2.105 1_455 S
O86 C70 1.268 . S
O87 Sc67 2.105 . S
O87 C72 1.268 . S
Sc88 O91 2.025 . S
Sc88 O98 2.105 . S
Sc88 O101 2.105 . S
Sc88 O104 2.105 . S
Sc88 O107 2.105 . S
Sc89 O91 2.025 . S
Sc89 O99 2.105 . S
Sc89 O103 2.105 . S
Sc89 O105 2.105 . S
Sc89 O109 2.105 . S
Sc90 O91 2.025 . S
Sc90 O100 2.105 . S
Sc90 O102 2.105 . S
Sc90 O106 2.105 . S
Sc90 O108 2.105 . S
O91 Sc88 2.025 . S
O91 Sc89 2.025 . S
O91 Sc90 2.025 . S
C92 O98 1.268 . S
C92 O108 1.268 . S
C93 O99 1.268 . S
C93 O107 1.268 . S
C94 O100 1.268 . S
C94 O109 1.268 . S
C95 O101 1.268 . S
C95 O105 1.268 . S
C96 O102 1.268 . S
C96 O104 1.268 . S
C97 O103 1.268 . S
C97 O106 1.268 . S
O98 Sc88 2.105 . S
O98 C92 1.268 . S
O99 Sc89 2.105 . S
O99 C93 1.268 . S
O100 Sc90 2.105 . S
O100 C94 1.268 . S
O101 Sc88 2.105 . S
O101 C95 1.268 . S
O102 Sc90 2.105 . S
O102 C96 1.268 . S
O103 Sc89 2.105 . S
O103 C97 1.268 . S
O104 Sc88 2.105 . S
O104 C96 1.268 . S
O105 Sc89 2.105 . S
O105 C95 1.268 . S
O106 Sc90 2.105 . S
O106 C97 1.268 . S
O107 Sc88 2.105 . S
O107 C93 1.268 . S
O108 Sc90 2.105 . S
O108 C92 1.268 . S
O109 Sc89 2.105 . S
O109 C94 1.268 . S
Sc110 O113 2.025 1_565 S
Sc110 O120 2.105 . S
Sc110 O123 2.105 1_565 S
Sc110 O126 2.105 1_565 S
Sc110 O129 2.105 . S
Sc111 O113 2.025 . S
Sc111 O121 2.105 1_545 S
Sc111 O125 2.105 . S
Sc111 O127 2.105 . S
Sc111 O131 2.105 . S
Sc112 O113 2.025 . S
Sc112 O122 2.105 . S
Sc112 O124 2.105 . S
Sc112 O128 2.105 . S
Sc112 O130 2.105 . S
O113 Sc110 2.025 1_545 S
O113 Sc111 2.025 . S
O113 Sc112 2.025 . S
C114 O120 1.268 . S
C114 O130 1.268 1_565 S
C115 O121 1.268 . S
C115 O129 1.268 . S
C116 O122 1.268 . S
C116 O131 1.268 . S
C117 O123 1.268 . S
C117 O127 1.268 . S
C118 O124 1.268 . S
C118 O126 1.268 . S
C119 O125 1.268 . S
C119 O128 1.268 . S
O120 Sc110 2.105 . S
O120 C114 1.268 . S
O121 Sc111 2.105 1_565 S
O121 C115 1.268 . S
O122 Sc112 2.105 . S
O122 C116 1.268 . S
O123 Sc110 2.105 1_545 S
O123 C117 1.268 . S
O124 Sc112 2.105 . S
O124 C118 1.268 . S
O125 Sc111 2.105 . S
O125 C119 1.268 . S
O126 Sc110 2.105 1_545 S
O126 C118 1.268 . S
O127 Sc111 2.105 . S
O127 C117 1.268 . S
O128 Sc112 2.105 . S
O128 C119 1.268 . S
O129 Sc110 2.105 . S
O129 C115 1.268 . S
O130 Sc112 2.105 . S
O130 C114 1.268 1_545 S
O131 Sc111 2.105 . S
O131 C116 1.268 . S
Sc132 O135 2.025 . S
Sc132 O142 2.105 . S
Sc132 O145 2.105 . S
Sc132 O148 2.105 . S
Sc132 O151 2.105 . S
Sc133 O135 2.025 . S
Sc133 O143 2.105 . S
Sc133 O147 2.105 . S
Sc133 O149 2.105 . S
Sc133 O153 2.105 . S
Sc134 O135 2.025 . S
Sc134 O144 2.105 . S
Sc134 O146 2.105 . S
Sc134 O150 2.105 1_556 S
Sc134 O152 2.105 . S
O135 Sc132 2.025 . S
O135 Sc133 2.025 . S
O135 Sc134 2.025 . S
C136 O142 1.268 . S
C136 O152 1.268 . S
C137 O143 1.268 . S
C137 O151 1.268 . S
C138 O144 1.268 . S
C138 O153 1.268 . S
C139 O145 1.268 . S
C139 O149 1.268 . S
C140 O146 1.268 . S
C140 O148 1.268 . S
C141 O147 1.268 1_554 S
C141 O150 1.268 . S
O142 Sc132 2.105 . S
O142 C136 1.268 . S
O143 Sc133 2.105 . S
O143 C137 1.268 . S
O144 Sc134 2.105 . S
O144 C138 1.268 . S
O145 Sc132 2.105 . S
O145 C139 1.268 . S
O146 Sc134 2.105 . S
O146 C140 1.268 . S
O147 Sc133 2.105 . S
O147 C141 1.268 1_556 S
O148 Sc132 2.105 . S
O148 C140 1.268 . S
O149 Sc133 2.105 . S
O149 C139 1.268 . S
O150 Sc134 2.105 1_554 S
O150 C141 1.268 . S
O151 Sc132 2.105 . S
O151 C137 1.268 . S
O152 Sc134 2.105 . S
O152 C136 1.268 . S
O153 Sc133 2.105 . S
O153 C138 1.268 . S
Sc154 O157 2.025 . S
Sc154 O164 2.105 . S
Sc154 O167 2.105 . S
Sc154 O170 2.105 . S
Sc154 O173 2.105 . S
Sc155 O157 2.025 . S
Sc155 O165 2.105 . S
Sc155 O169 2.105 . S
Sc155 O171 2.105 . S
Sc155 O175 2.105 . S
Sc156 O157 2.025 . S
Sc156 O166 2.105 . S
Sc156 O168 2.105 . S
Sc156 O172 2.105 1_556 S
Sc156 O174 2.105 . S
O157 Sc154 2.025 . S
O157 Sc155 2.025 . S
O157 Sc156 2.025 . S
C158 O164 1.268 . S
C158 O174 1.268 . S
C159 O165 1.268 . S
C159 O173 1.268 . S
C160 O166 1.268 . S
C160 O175 1.268 . S
C161 O167 1.268 . S
C161 O171 1.268 . S
C162 O168 1.268 . S
C162 O170 1.268 . S
C163 O169 1.268 1_554 S
C163 O172 1.268 . S
O164 Sc154 2.105 . S
O164 C158 1.268 . S
O165 Sc155 2.105 . S
O165 C159 1.268 . S
O166 Sc156 2.105 . S
O166 C160 1.268 . S
O167 Sc154 2.105 . S
O167 C161 1.268 . S
O168 Sc156 2.105 . S
O168 C162 1.268 . S
O169 Sc155 2.105 . S
O169 C163 1.268 1_556 S
O170 Sc154 2.105 . S
O170 C162 1.268 . S
O171 Sc155 2.105 . S
O171 C161 1.268 . S
O172 Sc156 2.105 1_554 S
O172 C163 1.268 . S
O173 Sc154 2.105 . S
O173 C159 1.268 . S
O174 Sc156 2.105 . S
O174 C158 1.268 . S
O175 Sc155 2.105 . S
O175 C160 1.268 . S
Sc176 O179 2.025 . S
Sc176 O186 2.105 . S
Sc176 O189 2.105 . S
Sc176 O192 2.105 . S
Sc176 O195 2.105 . S
Sc177 O179 2.025 . S
Sc177 O187 2.105 . S
Sc177 O191 2.105 . S
Sc177 O193 2.105 . S
Sc177 O197 2.105 . S
Sc178 O179 2.025 . S
Sc178 O188 2.105 . S
Sc178 O190 2.105 . S
Sc178 O194 2.105 1_556 S
Sc178 O196 2.105 . S
O179 Sc176 2.025 . S
O179 Sc177 2.025 . S
O179 Sc178 2.025 . S
C180 O186 1.268 . S
C180 O196 1.268 . S
C181 O187 1.268 . S
C181 O195 1.268 . S
C182 O188 1.268 . S
C182 O197 1.268 . S
C183 O189 1.268 . S
C183 O193 1.268 . S
C184 O190 1.268 . S
C184 O192 1.268 . S
C185 O191 1.268 1_554 S
C185 O194 1.268 . S
O186 Sc176 2.105 . S
O186 C180 1.268 . S
O187 Sc177 2.105 . S
O187 C181 1.268 . S
O188 Sc178 2.105 . S
O188 C182 1.268 . S
O189 Sc176 2.105 . S
O189 C183 1.268 . S
O190 Sc178 2.105 . S
O190 C184 1.268 . S
O191 Sc177 2.105 . S
O191 C185 1.268 1_556 S
O192 Sc176 2.105 . S
O192 C184 1.268 . S
O193 Sc177 2.105 . S
O193 C183 1.268 . S
O194 Sc178 2.105 1_554 S
O194 C185 1.268 . S
O195 Sc176 2.105 . S
O195 C181 1.268 . S
O196 Sc178 2.105 . S
O196 C180 1.268 . S
O197 Sc177 2.105 . S
O197 C182 1.268 . S
Sc198 O201 2.025 . S
Sc198 O208 2.105 . S
Sc198 O211 2.105 1_556 S
Sc198 O214 2.105 . S
Sc198 O217 2.105 . S
Sc199 O201 2.025 . S
Sc199 O209 2.105 . S
Sc199 O213 2.105 . S
Sc199 O215 2.105 . S
Sc199 O219 2.105 . S
Sc200 O201 2.025 . S
Sc200 O210 2.105 . S
Sc200 O212 2.105 . S
Sc200 O216 2.105 . S
Sc200 O218 2.105 . S
O201 Sc198 2.025 . S
O201 Sc199 2.025 . S
O201 Sc200 2.025 . S
C202 O208 1.268 . S
C202 O218 1.268 . S
C203 O209 1.268 . S
C203 O217 1.268 . S
C204 O210 1.268 . S
C204 O219 1.268 . S
C205 O211 1.268 . S
C205 O215 1.268 1_554 S
C206 O212 1.268 . S
C206 O214 1.268 . S
C207 O213 1.268 . S
C207 O216 1.268 . S
O208 Sc198 2.105 . S
O208 C202 1.268 . S
O209 Sc199 2.105 . S
O209 C203 1.268 . S
O210 Sc200 2.105 . S
O210 C204 1.268 . S
O211 Sc198 2.105 1_554 S
O211 C205 1.268 . S
O212 Sc200 2.105 . S
O212 C206 1.268 . S
O213 Sc199 2.105 . S
O213 C207 1.268 . S
O214 Sc198 2.105 . S
O214 C206 1.268 . S
O215 Sc199 2.105 . S
O215 C205 1.268 1_556 S
O216 Sc200 2.105 . S
O216 C207 1.268 . S
O217 Sc198 2.105 . S
O217 C203 1.268 . S
O218 Sc200 2.105 . S
O218 C202 1.268 . S
O219 Sc199 2.105 . S
O219 C204 1.268 . S
Sc220 O223 2.025 . S
Sc220 O230 2.105 . S
Sc220 O233 2.105 1_556 S
Sc220 O236 2.105 . S
Sc220 O239 2.105 . S
Sc221 O223 2.025 . S
Sc221 O231 2.105 . S
Sc221 O235 2.105 . S
Sc221 O237 2.105 . S
Sc221 O241 2.105 . S
Sc222 O223 2.025 . S
Sc222 O232 2.105 . S
Sc222 O234 2.105 . S
Sc222 O238 2.105 . S
Sc222 O240 2.105 . S
O223 Sc220 2.025 . S
O223 Sc221 2.025 . S
O223 Sc222 2.025 . S
C224 O230 1.268 . S
C224 O240 1.268 . S
C225 O231 1.268 . S
C225 O239 1.268 . S
C226 O232 1.268 . S
C226 O241 1.268 . S
C227 O233 1.268 . S
C227 O237 1.268 1_554 S
C228 O234 1.268 . S
C228 O236 1.268 . S
C229 O235 1.268 . S
C229 O238 1.268 . S
O230 Sc220 2.105 . S
O230 C224 1.268 . S
O231 Sc221 2.105 . S
O231 C225 1.268 . S
O232 Sc222 2.105 . S
O232 C226 1.268 . S
O233 Sc220 2.105 1_554 S
O233 C227 1.268 . S
O234 Sc222 2.105 . S
O234 C228 1.268 . S
O235 Sc221 2.105 . S
O235 C229 1.268 . S
O236 Sc220 2.105 . S
O236 C228 1.268 . S
O237 Sc221 2.105 . S
O237 C227 1.268 1_556 S
O238 Sc222 2.105 . S
O238 C229 1.268 . S
O239 Sc220 2.105 . S
O239 C225 1.268 . S
O240 Sc222 2.105 . S
O240 C224 1.268 . S
O241 Sc221 2.105 . S
O241 C226 1.268 . S
Sc242 O245 2.025 . S
Sc242 O252 2.105 . S
Sc242 O255 2.105 1_556 S
Sc242 O258 2.105 . S
Sc242 O261 2.105 . S
Sc243 O245 2.025 . S
Sc243 O253 2.105 . S
Sc243 O257 2.105 . S
Sc243 O259 2.105 . S
Sc243 O263 2.105 . S
Sc244 O245 2.025 . S
Sc244 O254 2.105 . S
Sc244 O256 2.105 . S
Sc244 O260 2.105 . S
Sc244 O262 2.105 . S
O245 Sc242 2.025 . S
O245 Sc243 2.025 . S
O245 Sc244 2.025 . S
C246 O252 1.268 . S
C246 O262 1.268 . S
C247 O253 1.268 . S
C247 O261 1.268 . S
C248 O254 1.268 . S
C248 O263 1.268 . S
C249 O255 1.268 . S
C249 O259 1.268 1_554 S
C250 O256 1.268 . S
C250 O258 1.268 . S
C251 O257 1.268 . S
C251 O260 1.268 . S
O252 Sc242 2.105 . S
O252 C246 1.268 . S
O253 Sc243 2.105 . S
O253 C247 1.268 . S
O254 Sc244 2.105 . S
O254 C248 1.268 . S
O255 Sc242 2.105 1_554 S
O255 C249 1.268 . S
O256 Sc244 2.105 . S
O256 C250 1.268 . S
O257 Sc243 2.105 . S
O257 C251 1.268 . S
O258 Sc242 2.105 . S
O258 C250 1.268 . S
O259 Sc243 2.105 . S
O259 C249 1.268 1_556 S
O260 Sc244 2.105 . S
O260 C251 1.268 . S
O261 Sc242 2.105 . S
O261 C247 1.268 . S
O262 Sc244 2.105 . S
O262 C246 1.268 . S
O263 Sc243 2.105 . S
O263 C248 1.268 . S
Sc264 O267 2.025 . S
Sc264 O274 2.105 . S
Sc264 O277 2.105 . S
Sc264 O280 2.105 . S
Sc264 O283 2.105 1_554 S
Sc265 O267 2.025 . S
Sc265 O275 2.105 . S
Sc265 O279 2.105 . S
Sc265 O281 2.105 . S
Sc265 O285 2.105 . S
Sc266 O267 2.025 . S
Sc266 O276 2.105 . S
Sc266 O278 2.105 . S
Sc266 O282 2.105 . S
Sc266 O284 2.105 . S
O267 Sc264 2.025 . S
O267 Sc265 2.025 . S
O267 Sc266 2.025 . S
C268 O274 1.268 . S
C268 O284 1.268 . S
C269 O275 1.268 1_556 S
C269 O283 1.268 . S
C270 O276 1.268 . S
C270 O285 1.268 . S
C271 O277 1.268 . S
C271 O281 1.268 . S
C272 O278 1.268 . S
C272 O280 1.268 . S
C273 O279 1.268 . S
C273 O282 1.268 . S
O274 Sc264 2.105 . S
O274 C268 1.268 . S
O275 Sc265 2.105 . S
O275 C269 1.268 1_554 S
O276 Sc266 2.105 . S
O276 C270 1.268 . S
O277 Sc264 2.105 . S
O277 C271 1.268 . S
O278 Sc266 2.105 . S
O278 C272 1.268 . S
O279 Sc265 2.105 . S
O279 C273 1.268 . S
O280 Sc264 2.105 . S
O280 C272 1.268 . S
O281 Sc265 2.105 . S
O281 C271 1.268 . S
O282 Sc266 2.105 . S
O282 C273 1.268 . S
O283 Sc264 2.105 1_556 S
O283 C269 1.268 . S
O284 Sc266 2.105 . S
O284 C268 1.268 . S
O285 Sc265 2.105 . S
O285 C270 1.268 . S
Sc286 O289 2.025 . S
Sc286 O296 2.105 . S
Sc286 O299 2.105 . S
Sc286 O302 2.105 . S
Sc286 O305 2.105 1_554 S
Sc287 O289 2.025 . S
Sc287 O297 2.105 . S
Sc287 O301 2.105 . S
Sc287 O303 2.105 . S
Sc287 O307 2.105 . S
Sc288 O289 2.025 . S
Sc288 O298 2.105 . S
Sc288 O300 2.105 . S
Sc288 O304 2.105 . S
Sc288 O306 2.105 . S
O289 Sc286 2.025 . S
O289 Sc287 2.025 . S
O289 Sc288 2.025 . S
C290 O296 1.268 . S
C290 O306 1.268 . S
C291 O297 1.268 1_556 S
C291 O305 1.268 . S
C292 O298 1.268 . S
C292 O307 1.268 . S
C293 O299 1.268 . S
C293 O303 1.268 . S
C294 O300 1.268 . S
C294 O302 1.268 . S
C295 O301 1.268 . S
C295 O304 1.268 . S
O296 Sc286 2.105 . S
O296 C290 1.268 . S
O297 Sc287 2.105 . S
O297 C291 1.268 1_554 S
O298 Sc288 2.105 . S
O298 C292 1.268 . S
O299 Sc286 2.105 . S
O299 C293 1.268 . S
O300 Sc288 2.105 . S
O300 C294 1.268 . S
O301 Sc287 2.105 . S
O301 C295 1.268 . S
O302 Sc286 2.105 . S
O302 C294 1.268 . S
O303 Sc287 2.105 . S
O303 C293 1.268 . S
O304 Sc288 2.105 . S
O304 C295 1.268 . S
O305 Sc286 2.105 1_556 S
O305 C291 1.268 . S
O306 Sc288 2.105 . S
O306 C290 1.268 . S
O307 Sc287 2.105 . S
O307 C292 1.268 . S
Sc308 O311 2.025 . S
Sc308 O318 2.105 . S
Sc308 O321 2.105 . S
Sc308 O324 2.105 . S
Sc308 O327 2.105 1_554 S
Sc309 O311 2.025 . S
Sc309 O319 2.105 . S
Sc309 O323 2.105 . S
Sc309 O325 2.105 . S
Sc309 O329 2.105 . S
Sc310 O311 2.025 . S
Sc310 O320 2.105 . S
Sc310 O322 2.105 . S
Sc310 O326 2.105 . S
Sc310 O328 2.105 . S
O311 Sc308 2.025 . S
O311 Sc309 2.025 . S
O311 Sc310 2.025 . S
C312 O318 1.268 . S
C312 O328 1.268 . S
C313 O319 1.268 1_556 S
C313 O327 1.268 . S
C314 O320 1.268 . S
C314 O329 1.268 . S
C315 O321 1.268 . S
C315 O325 1.268 . S
C316 O322 1.268 . S
C316 O324 1.268 . S
C317 O323 1.268 . S
C317 O326 1.268 . S
O318 Sc308 2.105 . S
O318 C312 1.268 . S
O319 Sc309 2.105 . S
O319 C313 1.268 1_554 S
O320 Sc310 2.105 . S
O320 C314 1.268 . S
O321 Sc308 2.105 . S
O321 C315 1.268 . S
O322 Sc310 2.105 . S
O322 C316 1.268 . S
O323 Sc309 2.105 . S
O323 C317 1.268 . S
O324 Sc308 2.105 . S
O324 C316 1.268 . S
O325 Sc309 2.105 . S
O325 C315 1.268 . S
O326 Sc310 2.105 . S
O326 C317 1.268 . S
O327 Sc308 2.105 1_556 S
O327 C313 1.268 . S
O328 Sc310 2.105 . S
O328 C312 1.268 . S
O329 Sc309 2.105 . S
O329 C314 1.268 . S
Sc330 O333 2.025 . S
Sc330 O340 2.105 . S
Sc330 O343 2.105 . S
Sc330 O346 2.105 . S
Sc330 O349 2.105 . S
Sc331 O333 2.025 . S
Sc331 O341 2.105 . S
Sc331 O345 2.105 . S
Sc331 O347 2.105 . S
Sc331 O351 2.105 . S
Sc332 O333 2.025 . S
Sc332 O342 2.105 1_554 S
Sc332 O344 2.105 . S
Sc332 O348 2.105 . S
Sc332 O350 2.105 . S
O333 Sc330 2.025 . S
O333 Sc331 2.025 . S
O333 Sc332 2.025 . S
C334 O340 1.268 . S
C334 O350 1.268 . S
C335 O341 1.268 . S
C335 O349 1.268 . S
C336 O342 1.268 . S
C336 O351 1.268 1_556 S
C337 O343 1.268 . S
C337 O347 1.268 . S
C338 O344 1.268 . S
C338 O346 1.268 . S
C339 O345 1.268 . S
C339 O348 1.268 . S
O340 Sc330 2.105 . S
O340 C334 1.268 . S
O341 Sc331 2.105 . S
O341 C335 1.268 . S
O342 Sc332 2.105 1_556 S
O342 C336 1.268 . S
O343 Sc330 2.105 . S
O343 C337 1.268 . S
O344 Sc332 2.105 . S
O344 C338 1.268 . S
O345 Sc331 2.105 . S
O345 C339 1.268 . S
O346 Sc330 2.105 . S
O346 C338 1.268 . S
O347 Sc331 2.105 . S
O347 C337 1.268 . S
O348 Sc332 2.105 . S
O348 C339 1.268 . S
O349 Sc330 2.105 . S
O349 C335 1.268 . S
O350 Sc332 2.105 . S
O350 C334 1.268 . S
O351 Sc331 2.105 . S
O351 C336 1.268 1_554 S
Sc352 O355 2.025 . S
Sc352 O362 2.105 . S
Sc352 O365 2.105 . S
Sc352 O368 2.105 . S
Sc352 O371 2.105 . S
Sc353 O355 2.025 . S
Sc353 O363 2.105 . S
Sc353 O367 2.105 . S
Sc353 O369 2.105 . S
Sc353 O373 2.105 . S
Sc354 O355 2.025 . S
Sc354 O364 2.105 1_554 S
Sc354 O366 2.105 . S
Sc354 O370 2.105 . S
Sc354 O372 2.105 . S
O355 Sc352 2.025 . S
O355 Sc353 2.025 . S
O355 Sc354 2.025 . S
C356 O362 1.268 . S
C356 O372 1.268 . S
C357 O363 1.268 . S
C357 O371 1.268 . S
C358 O364 1.268 . S
C358 O373 1.268 1_556 S
C359 O365 1.268 . S
C359 O369 1.268 . S
C360 O366 1.268 . S
C360 O368 1.268 . S
C361 O367 1.268 . S
C361 O370 1.268 . S
O362 Sc352 2.105 . S
O362 C356 1.268 . S
O363 Sc353 2.105 . S
O363 C357 1.268 . S
O364 Sc354 2.105 1_556 S
O364 C358 1.268 . S
O365 Sc352 2.105 . S
O365 C359 1.268 . S
O366 Sc354 2.105 . S
O366 C360 1.268 . S
O367 Sc353 2.105 . S
O367 C361 1.268 . S
O368 Sc352 2.105 . S
O368 C360 1.268 . S
O369 Sc353 2.105 . S
O369 C359 1.268 . S
O370 Sc354 2.105 . S
O370 C361 1.268 . S
O371 Sc352 2.105 . S
O371 C357 1.268 . S
O372 Sc354 2.105 . S
O372 C356 1.268 . S
O373 Sc353 2.105 . S
O373 C358 1.268 1_554 S
Sc374 O377 2.025 . S
Sc374 O384 2.105 . S
Sc374 O387 2.105 . S
Sc374 O390 2.105 . S
Sc374 O393 2.105 . S
Sc375 O377 2.025 . S
Sc375 O385 2.105 . S
Sc375 O389 2.105 . S
Sc375 O391 2.105 . S
Sc375 O395 2.105 . S
Sc376 O377 2.025 . S
Sc376 O386 2.105 1_554 S
Sc376 O388 2.105 . S
Sc376 O392 2.105 . S
Sc376 O394 2.105 . S
O377 Sc374 2.025 . S
O377 Sc375 2.025 . S
O377 Sc376 2.025 . S
C378 O384 1.268 . S
C378 O394 1.268 . S
C379 O385 1.268 . S
C379 O393 1.268 . S
C380 O386 1.268 . S
C380 O395 1.268 1_556 S
C381 O387 1.268 . S
C381 O391 1.268 . S
C382 O388 1.268 . S
C382 O390 1.268 . S
C383 O389 1.268 . S
C383 O392 1.268 . S
O384 Sc374 2.105 . S
O384 C378 1.268 . S
O385 Sc375 2.105 . S
O385 C379 1.268 . S
O386 Sc376 2.105 1_556 S
O386 C380 1.268 . S
O387 Sc374 2.105 . S
O387 C381 1.268 . S
O388 Sc376 2.105 . S
O388 C382 1.268 . S
O389 Sc375 2.105 . S
O389 C383 1.268 . S
O390 Sc374 2.105 . S
O390 C382 1.268 . S
O391 Sc375 2.105 . S
O391 C381 1.268 . S
O392 Sc376 2.105 . S
O392 C383 1.268 . S
O393 Sc374 2.105 . S
O393 C379 1.268 . S
O394 Sc376 2.105 . S
O394 C378 1.268 . S
O395 Sc375 2.105 . S
O395 C380 1.268 1_554 S
H396 C404 0.950 . S
H397 C409 0.950 . S
H398 C406 0.950 . S
H399 C408 0.950 . S
H400 C410 0.950 . S
H401 C412 0.950 . S
H402 C414 0.950 . S
H403 C415 0.950 . S
C404 H396 0.950 . S
C404 C405 1.386 . S
C404 C406 1.391 . S
C405 C404 1.386 . S
C405 C409 1.393 . S
C406 H398 0.950 . S
C406 C404 1.391 . S
C406 C407 1.400 . S
C407 C406 1.400 . S
C407 C408 1.398 . S
C407 C413 1.491 . S
C408 H399 0.950 . S
C408 C407 1.398 . S
C408 C409 1.391 . S
C409 H397 0.950 . S
C409 C405 1.393 . S
C409 C408 1.391 . S
C410 H400 0.950 . S
C410 C411 1.386 . S
C410 C412 1.391 . S
C411 C410 1.386 . S
C411 C415 1.393 . S
C412 H401 0.950 . S
C412 C410 1.391 . S
C412 C413 1.400 . S
C413 C407 1.491 . S
C413 C412 1.400 . S
C413 C414 1.398 . S
C414 H402 0.950 . S
C414 C413 1.398 . S
C414 C415 1.391 . S
C415 H403 0.950 . S
C415 C411 1.393 . S
C415 C414 1.391 . S
H416 C424 0.950 . S
H417 C429 0.950 . S
H418 C426 0.950 . S
H419 C428 0.950 . S
H420 C430 0.950 . S
H421 C432 0.950 . S
H422 C434 0.950 . S
H423 C435 0.950 . S
C424 H416 0.950 . S
C424 C425 1.386 . S
C424 C426 1.391 . S
C425 C424 1.386 . S
C425 C429 1.393 . S
C426 H418 0.950 . S
C426 C424 1.391 . S
C426 C427 1.400 . S
C427 C426 1.400 . S
C427 C428 1.398 . S
C427 C433 1.491 . S
C428 H419 0.950 . S
C428 C427 1.398 . S
C428 C429 1.391 . S
C429 H417 0.950 . S
C429 C425 1.393 . S
C429 C428 1.391 . S
C430 H420 0.950 . S
C430 C431 1.386 . S
C430 C432 1.391 . S
C431 C430 1.386 . S
C431 C435 1.393 . S
C432 H421 0.950 . S
C432 C430 1.391 . S
C432 C433 1.400 . S
C433 C427 1.491 . S
C433 C432 1.400 . S
C433 C434 1.398 . S
C434 H422 0.950 . S
C434 C433 1.398 . S
C434 C435 1.391 . S
C435 H423 0.950 . S
C435 C431 1.393 . S
C435 C434 1.391 . S
H436 C444 0.950 1_545 S
H437 C449 0.950 . S
H438 C446 0.950 . S
H439 C448 0.950 . S
H440 C450 0.950 . S
H441 C452 0.950 . S
H442 C454 0.950 . S
H443 C455 0.950 . S
C444 H436 0.950 1_565 S
C444 C445 1.386 . S
C444 C446 1.391 . S
C445 C444 1.386 . S
C445 C449 1.393 . S
C446 H438 0.950 . S
C446 C444 1.391 . S
C446 C447 1.400 . S
C447 C446 1.400 . S
C447 C448 1.398 . S
C447 C453 1.491 . S
C448 H439 0.950 . S
C448 C447 1.398 . S
C448 C449 1.391 . S
C449 H437 0.950 . S
C449 C445 1.393 . S
C449 C448 1.391 . S
C450 H440 0.950 . S
C450 C451 1.386 . S
C450 C452 1.391 . S
C451 C450 1.386 . S
C451 C455 1.393 . S
C452 H441 0.950 . S
C452 C450 1.391 . S
C452 C453 1.400 . S
C453 C447 1.491 . S
C453 C452 1.400 . S
C453 C454 1.398 . S
C454 H442 0.950 . S
C454 C453 1.398 . S
C454 C455 1.391 . S
C455 H443 0.950 . S
C455 C451 1.393 . S
C455 C454 1.391 . S
H456 C464 0.950 . S
H457 C469 0.950 . S
H458 C466 0.950 . S
H459 C468 0.950 . S
H460 C470 0.950 . S
H461 C472 0.950 . S
H462 C474 0.950 . S
H463 C475 0.950 . S
C464 H456 0.950 . S
C464 C465 1.386 . S
C464 C466 1.391 . S
C465 C464 1.386 . S
C465 C469 1.393 . S
C466 H458 0.950 . S
C466 C464 1.391 . S
C466 C467 1.400 . S
C467 C466 1.400 . S
C467 C468 1.398 . S
C467 C473 1.491 . S
C468 H459 0.950 . S
C468 C467 1.398 . S
C468 C469 1.391 . S
C469 H457 0.950 . S
C469 C465 1.393 . S
C469 C468 1.391 . S
C470 H460 0.950 . S
C470 C471 1.386 . S
C470 C472 1.391 . S
C471 C470 1.386 . S
C471 C475 1.393 . S
C472 H461 0.950 . S
C472 C470 1.391 . S
C472 C473 1.400 . S
C473 C467 1.491 . S
C473 C472 1.400 . S
C473 C474 1.398 . S
C474 H462 0.950 . S
C474 C473 1.398 . S
C474 C475 1.391 . S
C475 H463 0.950 . S
C475 C471 1.393 . S
C475 C474 1.391 . S
H476 C484 0.950 . S
H477 C489 0.950 . S
H478 C486 0.950 . S
H479 C488 0.950 . S
H480 C490 0.950 1_455 S
H481 C492 0.950 . S
H482 C494 0.950 . S
H483 C495 0.950 . S
C484 H476 0.950 . S
C484 C485 1.386 . S
C484 C486 1.391 . S
C485 C484 1.386 . S
C485 C489 1.393 . S
C486 H478 0.950 . S
C486 C484 1.391 . S
C486 C487 1.400 . S
C487 C486 1.400 . S
C487 C488 1.398 . S
C487 C493 1.491 . S
C488 H479 0.950 . S
C488 C487 1.398 . S
C488 C489 1.391 . S
C489 H477 0.950 . S
C489 C485 1.393 . S
C489 C488 1.391 . S
C490 H480 0.950 1_655 S
C490 C491 1.386 . S
C490 C492 1.391 . S
C491 C490 1.386 . S
C491 C495 1.393 . S
C492 H481 0.950 . S
C492 C490 1.391 . S
C492 C493 1.400 . S
C493 C487 1.491 . S
C493 C492 1.400 . S
C493 C494 1.398 . S
C494 H482 0.950 . S
C494 C493 1.398 . S
C494 C495 1.391 . S
C495 H483 0.950 . S
C495 C491 1.393 . S
C495 C494 1.391 . S
H496 C504 0.950 . S
H497 C509 0.950 . S
H498 C506 0.950 . S
H499 C508 0.950 . S
H500 C510 0.950 . S
H501 C512 0.950 . S
H502 C514 0.950 . S
H503 C515 0.950 . S
C504 H496 0.950 . S
C504 C505 1.386 . S
C504 C506 1.391 . S
C505 C504 1.386 . S
C505 C509 1.393 . S
C506 H498 0.950 . S
C506 C504 1.391 . S
C506 C507 1.400 . S
C507 C506 1.400 . S
C507 C508 1.398 . S
C507 C513 1.491 . S
C508 H499 0.950 . S
C508 C507 1.398 . S
C508 C509 1.391 . S
C509 H497 0.950 . S
C509 C505 1.393 . S
C509 C508 1.391 . S
C510 H500 0.950 . S
C510 C511 1.386 . S
C510 C512 1.391 . S
C511 C510 1.386 . S
C511 C515 1.393 . S
C512 H501 0.950 . S
C512 C510 1.391 . S
C512 C513 1.400 . S
C513 C507 1.491 . S
C513 C512 1.400 . S
C513 C514 1.398 . S
C514 H502 0.950 . S
C514 C513 1.398 . S
C514 C515 1.391 . S
C515 H503 0.950 . S
C515 C511 1.393 . S
C515 C514 1.391 . S
H516 C524 0.950 . S
H517 C529 0.950 . S
H518 C526 0.950 . S
H519 C528 0.950 . S
H520 C530 0.950 . S
H521 C532 0.950 . S
H522 C534 0.950 . S
H523 C535 0.950 . S
C524 H516 0.950 . S
C524 C525 1.386 . S
C524 C526 1.391 . S
C525 C524 1.386 . S
C525 C529 1.393 . S
C526 H518 0.950 . S
C526 C524 1.391 . S
C526 C527 1.400 . S
C527 C526 1.400 . S
C527 C528 1.398 . S
C527 C533 1.491 . S
C528 H519 0.950 . S
C528 C527 1.398 . S
C528 C529 1.391 . S
C529 H517 0.950 . S
C529 C525 1.393 . S
C529 C528 1.391 . S
C530 H520 0.950 . S
C530 C531 1.386 . S
C530 C532 1.391 . S
C531 C530 1.386 . S
C531 C535 1.393 . S
C532 H521 0.950 . S
C532 C530 1.391 . S
C532 C533 1.400 . S
C533 C527 1.491 . S
C533 C532 1.400 . S
C533 C534 1.398 . S
C534 H522 0.950 . S
C534 C533 1.398 . S
C534 C535 1.391 . S
C535 H523 0.950 . S
C535 C531 1.393 . S
C535 C534 1.391 . S
H536 C544 0.950 . S
H537 C549 0.950 . S
H538 C546 0.950 . S
H539 C548 0.950 . S
H540 C550 0.950 . S
H541 C552 0.950 . S
H542 C554 0.950 . S
H543 C555 0.950 . S
C544 H536 0.950 . S
C544 C545 1.386 . S
C544 C546 1.391 . S
C545 C544 1.386 . S
C545 C549 1.393 . S
C546 H538 0.950 . S
C546 C544 1.391 . S
C546 C547 1.400 . S
C547 C546 1.400 . S
C547 C548 1.398 . S
C547 C553 1.491 . S
C548 H539 0.950 . S
C548 C547 1.398 . S
C548 C549 1.391 . S
C549 H537 0.950 . S
C549 C545 1.393 . S
C549 C548 1.391 . S
C550 H540 0.950 . S
C550 C551 1.386 . S
C550 C552 1.391 . S
C551 C550 1.386 . S
C551 C555 1.393 . S
C552 H541 0.950 . S
C552 C550 1.391 . S
C552 C553 1.400 . S
C553 C547 1.491 . S
C553 C552 1.400 . S
C553 C554 1.398 . S
C554 H542 0.950 . S
C554 C553 1.398 . S
C554 C555 1.391 . S
C555 H543 0.950 . S
C555 C551 1.393 . S
C555 C554 1.391 . S
H556 C564 0.950 . S
H557 C569 0.950 . S
H558 C566 0.950 . S
H559 C568 0.950 . S
H560 C570 0.950 . S
H561 C572 0.950 . S
H562 C574 0.950 . S
H563 C575 0.950 . S
C564 H556 0.950 . S
C564 C565 1.386 . S
C564 C566 1.391 . S
C565 C564 1.386 . S
C565 C569 1.393 . S
C566 H558 0.950 . S
C566 C564 1.391 . S
C566 C567 1.400 . S
C567 C566 1.400 . S
C567 C568 1.398 . S
C567 C573 1.491 . S
C568 H559 0.950 . S
C568 C567 1.398 . S
C568 C569 1.391 . S
C569 H557 0.950 . S
C569 C565 1.393 . S
C569 C568 1.391 . S
C570 H560 0.950 . S
C570 C571 1.386 . S
C570 C572 1.391 . S
C571 C570 1.386 . S
C571 C575 1.393 . S
C572 H561 0.950 . S
C572 C570 1.391 . S
C572 C573 1.400 . S
C573 C567 1.491 . S
C573 C572 1.400 . S
C573 C574 1.398 . S
C574 H562 0.950 . S
C574 C573 1.398 . S
C574 C575 1.391 . S
C575 H563 0.950 . S
C575 C571 1.393 . S
C575 C574 1.391 . S
H576 C584 0.950 . S
H577 C589 0.950 . S
H578 C586 0.950 . S
H579 C588 0.950 . S
H580 C590 0.950 . S
H581 C592 0.950 . S
H582 C594 0.950 . S
H583 C595 0.950 . S
C584 H576 0.950 . S
C584 C585 1.386 . S
C584 C586 1.391 . S
C585 C584 1.386 . S
C585 C589 1.393 . S
C586 H578 0.950 . S
C586 C584 1.391 . S
C586 C587 1.400 . S
C587 C586 1.400 . S
C587 C588 1.398 . S
C587 C593 1.491 . S
C588 H579 0.950 . S
C588 C587 1.398 . S
C588 C589 1.391 . S
C589 H577 0.950 . S
C589 C585 1.393 . S
C589 C588 1.391 . S
C590 H580 0.950 . S
C590 C591 1.386 . S
C590 C592 1.391 . S
C591 C590 1.386 . S
C591 C595 1.393 . S
C592 H581 0.950 . S
C592 C590 1.391 . S
C592 C593 1.400 . S
C593 C587 1.491 . S
C593 C592 1.400 . S
C593 C594 1.398 . S
C594 H582 0.950 . S
C594 C593 1.398 . S
C594 C595 1.391 . S
C595 H583 0.950 . S
C595 C591 1.393 . S
C595 C594 1.391 . S
H596 C604 0.950 . S
H597 C609 0.950 . S
H598 C606 0.950 . S
H599 C608 0.950 . S
H600 C610 0.950 . S
H601 C612 0.950 . S
H602 C614 0.950 . S
H603 C615 0.950 . S
C604 H596 0.950 . S
C604 C605 1.386 . S
C604 C606 1.391 . S
C605 C604 1.386 . S
C605 C609 1.393 . S
C606 H598 0.950 . S
C606 C604 1.391 . S
C606 C607 1.400 . S
C607 C606 1.400 . S
C607 C608 1.398 . S
C607 C613 1.491 . S
C608 H599 0.950 . S
C608 C607 1.398 . S
C608 C609 1.391 . S
C609 H597 0.950 . S
C609 C605 1.393 . S
C609 C608 1.391 . S
C610 H600 0.950 . S
C610 C611 1.386 . S
C610 C612 1.391 . S
C611 C610 1.386 . S
C611 C615 1.393 . S
C612 H601 0.950 . S
C612 C610 1.391 . S
C612 C613 1.400 . S
C613 C607 1.491 . S
C613 C612 1.400 . S
C613 C614 1.398 . S
C614 H602 0.950 . S
C614 C613 1.398 . S
C614 C615 1.391 . S
C615 H603 0.950 . S
C615 C611 1.393 . S
C615 C614 1.391 . S
H616 C624 0.950 . S
H617 C629 0.950 . S
H618 C626 0.950 . S
H619 C628 0.950 . S
H620 C630 0.950 . S
H621 C632 0.950 . S
H622 C634 0.950 . S
H623 C635 0.950 . S
C624 H616 0.950 . S
C624 C625 1.386 . S
C624 C626 1.391 . S
C625 C624 1.386 . S
C625 C629 1.393 . S
C626 H618 0.950 . S
C626 C624 1.391 . S
C626 C627 1.400 . S
C627 C626 1.400 . S
C627 C628 1.398 . S
C627 C633 1.491 . S
C628 H619 0.950 . S
C628 C627 1.398 . S
C628 C629 1.391 . S
C629 H617 0.950 . S
C629 C625 1.393 . S
C629 C628 1.391 . S
C630 H620 0.950 . S
C630 C631 1.386 . S
C630 C632 1.391 . S
C631 C630 1.386 . S
C631 C635 1.393 . S
C632 H621 0.950 . S
C632 C630 1.391 . S
C632 C633 1.400 . S
C633 C627 1.491 . S
C633 C632 1.400 . S
C633 C634 1.398 . S
C634 H622 0.950 . S
C634 C633 1.398 . S
C634 C635 1.391 . S
C635 H623 0.950 . S
C635 C631 1.393 . S
C635 C634 1.391 . S
H636 C644 0.950 . S
H637 C649 0.950 . S
H638 C646 0.950 . S
H639 C648 0.950 1_455 S
H640 C650 0.950 . S
H641 C652 0.950 . S
H642 C654 0.950 . S
H643 C655 0.950 . S
C644 H636 0.950 . S
C644 C645 1.386 1_554 S
C644 C646 1.391 . S
C645 C644 1.386 1_556 S
C645 C649 1.393 . S
C646 H638 0.950 . S
C646 C644 1.391 . S
C646 C647 1.400 1_654 S
C647 C646 1.400 1_456 S
C647 C648 1.398 1_455 S
C647 C653 1.491 1_556 S
C648 H639 0.950 1_655 S
C648 C647 1.398 1_655 S
C648 C649 1.391 . S
C649 H637 0.950 . S
C649 C645 1.393 . S
C649 C648 1.391 . S
C650 H640 0.950 . S
C650 C651 1.386 1_556 S
C650 C652 1.391 . S
C651 C650 1.386 1_554 S
C651 C655 1.393 . S
C652 H641 0.950 . S
C652 C650 1.391 . S
C652 C653 1.400 1_556 S
C653 C647 1.491 1_554 S
C653 C652 1.400 1_554 S
C653 C654 1.398 . S
C654 H642 0.950 . S
C654 C653 1.398 . S
C654 C655 1.391 . S
C655 H643 0.950 . S
C655 C651 1.393 . S
C655 C654 1.391 . S
H656 C664 0.950 . S
H657 C669 0.950 . S
H658 C666 0.950 . S
H659 C668 0.950 . S
H660 C670 0.950 . S
H661 C672 0.950 . S
H662 C674 0.950 . S
H663 C675 0.950 . S
C664 H656 0.950 . S
C664 C665 1.386 . S
C664 C666 1.391 . S
C665 C664 1.386 . S
C665 C669 1.393 . S
C666 H658 0.950 . S
C666 C664 1.391 . S
C666 C667 1.400 . S
C667 C666 1.400 . S
C667 C668 1.398 . S
C667 C673 1.491 1_556 S
C668 H659 0.950 . S
C668 C667 1.398 . S
C668 C669 1.391 . S
C669 H657 0.950 . S
C669 C665 1.393 . S
C669 C668 1.391 . S
C670 H660 0.950 . S
C670 C671 1.386 . S
C670 C672 1.391 . S
C671 C670 1.386 . S
C671 C675 1.393 . S
C672 H661 0.950 . S
C672 C670 1.391 . S
C672 C673 1.400 . S
C673 C667 1.491 1_554 S
C673 C672 1.400 . S
C673 C674 1.398 . S
C674 H662 0.950 . S
C674 C673 1.398 . S
C674 C675 1.391 . S
C675 H663 0.950 . S
C675 C671 1.393 . S
C675 C674 1.391 . S
H676 C684 0.950 . S
H677 C689 0.950 . S
H678 C686 0.950 . S
H679 C688 0.950 . S
H680 C690 0.950 . S
H681 C692 0.950 . S
H682 C694 0.950 1_545 S
H683 C695 0.950 . S
C684 H676 0.950 . S
C684 C685 1.386 1_554 S
C684 C686 1.391 . S
C685 C684 1.386 1_556 S
C685 C689 1.393 . S
C686 H678 0.950 . S
C686 C684 1.391 . S
C686 C687 1.400 1_554 S
C687 C686 1.400 1_556 S
C687 C688 1.398 . S
C687 C693 1.491 1_556 S
C688 H679 0.950 . S
C688 C687 1.398 . S
C688 C689 1.391 . S
C689 H677 0.950 . S
C689 C685 1.393 . S
C689 C688 1.391 . S
C690 H680 0.950 . S
C690 C691 1.386 1_556 S
C690 C692 1.391 . S
C691 C690 1.386 1_554 S
C691 C695 1.393 . S
C692 H681 0.950 . S
C692 C690 1.391 . S
C692 C693 1.400 1_566 S
C693 C687 1.491 1_554 S
C693 C692 1.400 1_544 S
C693 C694 1.398 1_545 S
C694 H682 0.950 1_565 S
C694 C693 1.398 1_565 S
C694 C695 1.391 . S
C695 H683 0.950 . S
C695 C691 1.393 . S
C695 C694 1.391 . S
H696 C704 0.950 . S
H697 C709 0.950 . S
H698 C706 0.950 . S
H699 C708 0.950 . S
H700 C710 0.950 . S
H701 C712 0.918 1_545 S
H702 C714 0.951 1_545 S
H703 C715 0.950 . S
C704 H696 0.950 . S
C704 C705 1.386 . S
C704 C706 1.391 . S
C705 C704 1.386 . S
C705 C709 1.393 . S
C706 H698 0.950 . S
C706 C704 1.391 . S
C706 C707 1.400 . S
C707 C706 1.400 . S
C707 C708 1.398 . S
C707 C713 1.491 1_556 S
C708 H699 0.950 . S
C708 C707 1.398 . S
C708 C709 1.391 . S
C709 H697 0.950 . S
C709 C705 1.393 . S
C709 C708 1.391 . S
C710 H700 0.950 . S
C710 C711 1.386 . S
C710 C712 1.391 . S
C711 C710 1.386 . S
C711 C715 1.393 . S
C712 H701 0.918 1_565 S
C712 C710 1.391 . S
C712 C713 1.400 1_565 S
C713 C707 1.491 1_554 S
C713 C712 1.400 1_545 S
C713 C714 1.398 1_545 S
C714 H702 0.951 1_565 S
C714 C713 1.398 1_565 S
C714 C715 1.391 . S
C715 H703 0.950 . S
C715 C711 1.393 . S
C715 C714 1.391 . S
H716 C724 0.950 . S
H717 C729 0.950 . S
H718 C726 0.950 . S
H719 C728 0.950 . S
H720 C730 0.950 . S
H721 C732 0.951 1_455 S
H722 C734 0.950 1_455 S
H723 C735 0.950 . S
C724 H716 0.950 . S
C724 C725 1.386 . S
C724 C726 1.391 . S
C725 C724 1.386 . S
C725 C729 1.393 . S
C726 H718 0.950 . S
C726 C724 1.391 . S
C726 C727 1.400 . S
C727 C726 1.400 . S
C727 C728 1.398 . S
C727 C733 1.491 1_554 S
C728 H719 0.950 . S
C728 C727 1.398 . S
C728 C729 1.391 . S
C729 H717 0.950 . S
C729 C725 1.393 . S
C729 C728 1.391 . S
C730 H720 0.950 . S
C730 C731 1.386 . S
C730 C732 1.391 . S
C731 C730 1.386 . S
C731 C735 1.393 . S
C732 H721 0.951 1_655 S
C732 C730 1.391 . S
C732 C733 1.400 1_655 S
C733 C727 1.491 1_556 S
C733 C732 1.400 1_455 S
C733 C734 1.398 1_455 S
C734 H722 0.950 1_655 S
C734 C733 1.398 1_655 S
C734 C735 1.391 . S
C735 H723 0.950 . S
C735 C731 1.393 . S
C735 C734 1.391 . S
H736 C744 0.950 . S
H737 C749 0.950 . S
H738 C746 0.950 . S
H739 C748 0.950 . S
H740 C750 0.950 . S
H741 C752 0.950 . S
H742 C754 0.950 . S
H743 C755 0.950 . S
C744 H736 0.950 . S
C744 C745 1.386 . S
C744 C746 1.391 . S
C745 C744 1.386 . S
C745 C749 1.393 1_554 S
C746 H738 0.950 . S
C746 C744 1.391 . S
C746 C747 1.400 . S
C747 C746 1.400 . S
C747 C748 1.398 1_554 S
C747 C753 1.491 1_554 S
C748 H739 0.950 . S
C748 C747 1.398 1_556 S
C748 C749 1.391 . S
C749 H737 0.950 . S
C749 C745 1.393 1_556 S
C749 C748 1.391 . S
C750 H740 0.950 . S
C750 C751 1.386 . S
C750 C752 1.391 . S
C751 C750 1.386 . S
C751 C755 1.393 1_556 S
C752 H741 0.950 . S
C752 C750 1.391 . S
C752 C753 1.400 . S
C753 C747 1.491 1_556 S
C753 C752 1.400 . S
C753 C754 1.398 1_556 S
C754 H742 0.950 . S
C754 C753 1.398 1_554 S
C754 C755 1.391 . S
C755 H743 0.950 . S
C755 C751 1.393 1_554 S
C755 C754 1.391 . S
H756 C764 0.950 . S
H757 C769 0.950 . S
H758 C766 0.950 . S
H759 C768 0.950 . S
H760 C770 0.950 . S
H761 C772 0.950 . S
H762 C774 0.950 . S
H763 C775 0.950 . S
C764 H756 0.950 . S
C764 C765 1.386 . S
C764 C766 1.391 . S
C765 C764 1.386 . S
C765 C769 1.393 . S
C766 H758 0.950 . S
C766 C764 1.391 . S
C766 C767 1.400 . S
C767 C766 1.400 . S
C767 C768 1.398 . S
C767 C773 1.491 . S
C768 H759 0.950 . S
C768 C767 1.398 . S
C768 C769 1.391 . S
C769 H757 0.950 . S
C769 C765 1.393 . S
C769 C768 1.391 . S
C770 H760 0.950 . S
C770 C771 1.386 . S
C770 C772 1.391 . S
C771 C770 1.386 . S
C771 C775 1.393 . S
C772 H761 0.950 . S
C772 C770 1.391 . S
C772 C773 1.400 . S
C773 C767 1.491 . S
C773 C772 1.400 . S
C773 C774 1.398 . S
C774 H762 0.950 . S
C774 C773 1.398 . S
C774 C775 1.391 . S
C775 H763 0.950 . S
C775 C771 1.393 . S
C775 C774 1.391 . S
H776 C784 0.950 . S
H777 C789 0.950 . S
H778 C786 0.950 . S
H779 C788 0.950 . S
H780 C790 0.950 . S
H781 C792 0.950 . S
H782 C794 0.950 . S
H783 C795 0.950 . S
C784 H776 0.950 . S
C784 C785 1.386 . S
C784 C786 1.391 . S
C785 C784 1.386 . S
C785 C789 1.393 . S
C786 H778 0.950 . S
C786 C784 1.391 . S
C786 C787 1.400 . S
C787 C786 1.400 . S
C787 C788 1.398 . S
C787 C793 1.491 . S
C788 H779 0.950 . S
C788 C787 1.398 . S
C788 C789 1.391 . S
C789 H777 0.950 . S
C789 C785 1.393 . S
C789 C788 1.391 . S
C790 H780 0.950 . S
C790 C791 1.386 . S
C790 C792 1.391 . S
C791 C790 1.386 . S
C791 C795 1.393 . S
C792 H781 0.950 . S
C792 C790 1.391 . S
C792 C793 1.400 . S
C793 C787 1.491 . S
C793 C792 1.400 . S
C793 C794 1.398 . S
C794 H782 0.950 . S
C794 C793 1.398 . S
C794 C795 1.391 . S
C795 H783 0.950 . S
C795 C791 1.393 . S
C795 C794 1.391 . S
H796 C804 0.950 . S
H797 C809 0.950 . S
H798 C806 0.950 . S
H799 C808 0.950 . S
H800 C810 0.950 . S
H801 C812 0.950 . S
H802 C814 0.950 . S
H803 C815 0.950 . S
C804 H796 0.950 . S
C804 C805 1.386 . S
C804 C806 1.391 . S
C805 C804 1.386 . S
C805 C809 1.393 . S
C806 H798 0.950 . S
C806 C804 1.391 . S
C806 C807 1.400 . S
C807 C806 1.400 . S
C807 C808 1.398 . S
C807 C813 1.491 . S
C808 H799 0.950 . S
C808 C807 1.398 . S
C808 C809 1.391 . S
C809 H797 0.950 . S
C809 C805 1.393 . S
C809 C808 1.391 . S
C810 H800 0.950 . S
C810 C811 1.386 . S
C810 C812 1.391 . S
C811 C810 1.386 . S
C811 C815 1.393 . S
C812 H801 0.950 . S
C812 C810 1.391 . S
C812 C813 1.400 . S
C813 C807 1.491 . S
C813 C812 1.400 . S
C813 C814 1.398 . S
C814 H802 0.950 . S
C814 C813 1.398 . S
C814 C815 1.391 . S
C815 H803 0.950 . S
C815 C811 1.393 . S
C815 C814 1.391 . S
H816 C824 0.950 . S
H817 C829 0.950 . S
H818 C826 0.950 . S
H819 C828 0.950 . S
H820 C830 0.950 . S
H821 C832 0.950 . S
H822 C834 0.950 . S
H823 C835 0.950 . S
C824 H816 0.950 . S
C824 C825 1.386 . S
C824 C826 1.391 . S
C825 C824 1.386 . S
C825 C829 1.393 . S
C826 H818 0.950 . S
C826 C824 1.391 . S
C826 C827 1.400 . S
C827 C826 1.400 . S
C827 C828 1.398 . S
C827 C833 1.491 . S
C828 H819 0.950 . S
C828 C827 1.398 . S
C828 C829 1.391 . S
C829 H817 0.950 . S
C829 C825 1.393 . S
C829 C828 1.391 . S
C830 H820 0.950 . S
C830 C831 1.386 . S
C830 C832 1.391 . S
C831 C830 1.386 . S
C831 C835 1.393 . S
C832 H821 0.950 . S
C832 C830 1.391 . S
C832 C833 1.400 . S
C833 C827 1.491 . S
C833 C832 1.400 . S
C833 C834 1.398 . S
C834 H822 0.950 . S
C834 C833 1.398 . S
C834 C835 1.391 . S
C835 H823 0.950 . S
C835 C831 1.393 . S
C835 C834 1.391 . S
H836 C844 0.950 . S
H837 C849 0.950 . S
H838 C846 0.950 . S
H839 C848 0.950 . S
H840 C850 0.950 . S
H841 C852 0.950 . S
H842 C854 0.950 . S
H843 C855 0.950 . S
C844 H836 0.950 . S
C844 C845 1.386 . S
C844 C846 1.391 . S
C845 C844 1.386 . S
C845 C849 1.393 . S
C846 H838 0.950 . S
C846 C844 1.391 . S
C846 C847 1.400 . S
C847 C846 1.400 . S
C847 C848 1.398 . S
C847 C853 1.491 . S
C848 H839 0.950 . S
C848 C847 1.398 . S
C848 C849 1.391 . S
C849 H837 0.950 . S
C849 C845 1.393 . S
C849 C848 1.391 . S
C850 H840 0.950 . S
C850 C851 1.386 . S
C850 C852 1.391 . S
C851 C850 1.386 . S
C851 C855 1.393 . S
C852 H841 0.950 . S
C852 C850 1.391 . S
C852 C853 1.400 . S
C853 C847 1.491 . S
C853 C852 1.400 . S
C853 C854 1.398 . S
C854 H842 0.950 . S
C854 C853 1.398 . S
C854 C855 1.391 . S
C855 H843 0.950 . S
C855 C851 1.393 . S
C855 C854 1.391 . S
H856 C864 0.950 . S
H857 C869 0.950 . S
H858 C866 0.950 . S
H859 C868 0.950 . S
H860 C870 0.950 . S
H861 C872 0.950 . S
H862 C874 0.950 . S
H863 C875 0.950 . S
C864 H856 0.950 . S
C864 C865 1.386 . S
C864 C866 1.391 . S
C865 C864 1.386 . S
C865 C869 1.393 . S
C866 H858 0.950 . S
C866 C864 1.391 . S
C866 C867 1.400 . S
C867 C866 1.400 . S
C867 C868 1.398 . S
C867 C873 1.491 . S
C868 H859 0.950 . S
C868 C867 1.398 . S
C868 C869 1.391 . S
C869 H857 0.950 . S
C869 C865 1.393 . S
C869 C868 1.391 . S
C870 H860 0.950 . S
C870 C871 1.386 . S
C870 C872 1.391 . S
C871 C870 1.386 . S
C871 C875 1.393 . S
C872 H861 0.950 . S
C872 C870 1.391 . S
C872 C873 1.400 . S
C873 C867 1.491 . S
C873 C872 1.400 . S
C873 C874 1.398 . S
C874 H862 0.950 . S
C874 C873 1.398 . S
C874 C875 1.391 . S
C875 H863 0.950 . S
C875 C871 1.393 . S
C875 C874 1.391 . S
H876 C884 0.950 . S
H877 C889 0.950 . S
H878 C886 0.950 . S
H879 C888 0.950 . S
H880 C890 0.950 . S
H881 C892 0.950 . S
H882 C894 0.950 . S
H883 C895 0.950 . S
C884 H876 0.950 . S
C884 C885 1.386 . S
C884 C886 1.391 . S
C885 C884 1.386 . S
C885 C889 1.393 . S
C886 H878 0.950 . S
C886 C884 1.391 . S
C886 C887 1.400 . S
C887 C886 1.400 . S
C887 C888 1.398 . S
C887 C893 1.491 . S
C888 H879 0.950 . S
C888 C887 1.398 . S
C888 C889 1.391 . S
C889 H877 0.950 . S
C889 C885 1.393 . S
C889 C888 1.391 . S
C890 H880 0.950 . S
C890 C891 1.386 . S
C890 C892 1.391 . S
C891 C890 1.386 . S
C891 C895 1.393 . S
C892 H881 0.950 . S
C892 C890 1.391 . S
C892 C893 1.400 . S
C893 C887 1.491 . S
C893 C892 1.400 . S
C893 C894 1.398 . S
C894 H882 0.950 . S
C894 C893 1.398 . S
C894 C895 1.391 . S
C895 H883 0.950 . S
C895 C891 1.393 . S
C895 C894 1.391 . S
H896 C904 0.950 . S
H897 C909 0.950 . S
H898 C906 0.950 . S
H899 C908 0.950 . S
H900 C910 0.950 . S
H901 C912 0.950 . S
H902 C914 0.950 . S
H903 C915 0.950 . S
C904 H896 0.950 . S
C904 C905 1.386 . S
C904 C906 1.391 . S
C905 C904 1.386 . S
C905 C909 1.393 . S
C906 H898 0.950 . S
C906 C904 1.391 . S
C906 C907 1.400 . S
C907 C906 1.400 . S
C907 C908 1.398 . S
C907 C913 1.491 . S
C908 H899 0.950 . S
C908 C907 1.398 . S
C908 C909 1.391 . S
C909 H897 0.950 . S
C909 C905 1.393 . S
C909 C908 1.391 . S
C910 H900 0.950 . S
C910 C911 1.386 . S
C910 C912 1.391 . S
C911 C910 1.386 . S
C911 C915 1.393 . S
C912 H901 0.950 . S
C912 C910 1.391 . S
C912 C913 1.400 . S
C913 C907 1.491 . S
C913 C912 1.400 . S
C913 C914 1.398 . S
C914 H902 0.950 . S
C914 C913 1.398 . S
C914 C915 1.391 . S
C915 H903 0.950 . S
C915 C911 1.393 . S
C915 C914 1.391 . S
H916 C924 0.950 . S
H917 C929 0.950 . S
H918 C926 0.950 . S
H919 C928 0.950 . S
H920 C930 0.950 . S
H921 C932 0.950 . S
H922 C934 0.950 . S
H923 C935 0.950 . S
C924 H916 0.950 . S
C924 C925 1.386 . S
C924 C926 1.391 . S
C925 C924 1.386 . S
C925 C929 1.393 . S
C926 H918 0.950 . S
C926 C924 1.391 . S
C926 C927 1.400 . S
C927 C926 1.400 . S
C927 C928 1.398 . S
C927 C933 1.491 . S
C928 H919 0.950 . S
C928 C927 1.398 . S
C928 C929 1.391 . S
C929 H917 0.950 . S
C929 C925 1.393 . S
C929 C928 1.391 . S
C930 H920 0.950 . S
C930 C931 1.386 . S
C930 C932 1.391 . S
C931 C930 1.386 . S
C931 C935 1.393 . S
C932 H921 0.950 . S
C932 C930 1.391 . S
C932 C933 1.400 . S
C933 C927 1.491 . S
C933 C932 1.400 . S
C933 C934 1.398 . S
C934 H922 0.950 . S
C934 C933 1.398 . S
C934 C935 1.391 . S
C935 H923 0.950 . S
C935 C931 1.393 . S
C935 C934 1.391 . S
H936 C944 0.950 . S
H937 C949 0.950 . S
H938 C946 0.950 . S
H939 C948 0.950 . S
H940 C950 0.950 . S
H941 C952 0.950 . S
H942 C954 0.950 . S
H943 C955 0.950 . S
C944 H936 0.950 . S
C944 C945 1.386 . S
C944 C946 1.391 . S
C945 C944 1.386 . S
C945 C949 1.393 . S
C946 H938 0.950 . S
C946 C944 1.391 . S
C946 C947 1.400 . S
C947 C946 1.400 . S
C947 C948 1.398 . S
C947 C953 1.491 . S
C948 H939 0.950 . S
C948 C947 1.398 . S
C948 C949 1.391 . S
C949 H937 0.950 . S
C949 C945 1.393 . S
C949 C948 1.391 . S
C950 H940 0.950 . S
C950 C951 1.386 . S
C950 C952 1.391 . S
C951 C950 1.386 . S
C951 C955 1.393 . S
C952 H941 0.950 . S
C952 C950 1.391 . S
C952 C953 1.400 . S
C953 C947 1.491 . S
C953 C952 1.400 . S
C953 C954 1.398 . S
C954 H942 0.950 . S
C954 C953 1.398 . S
C954 C955 1.391 . S
C955 H943 0.950 . S
C955 C951 1.393 . S
C955 C954 1.391 . S
H956 C964 0.950 . S
H957 C969 0.950 . S
H958 C966 0.950 . S
H959 C968 0.950 . S
H960 C970 0.950 . S
H961 C972 0.950 . S
H962 C974 0.950 . S
H963 C975 0.950 . S
C964 H956 0.950 . S
C964 C965 1.386 . S
C964 C966 1.391 . S
C965 C964 1.386 . S
C965 C969 1.393 . S
C966 H958 0.950 . S
C966 C964 1.391 . S
C966 C967 1.400 . S
C967 C966 1.400 . S
C967 C968 1.398 . S
C967 C973 1.491 . S
C968 H959 0.950 . S
C968 C967 1.398 . S
C968 C969 1.391 . S
C969 H957 0.950 . S
C969 C965 1.393 . S
C969 C968 1.391 . S
C970 H960 0.950 . S
C970 C971 1.386 . S
C970 C972 1.391 . S
C971 C970 1.386 . S
C971 C975 1.393 . S
C972 H961 0.950 . S
C972 C970 1.391 . S
C972 C973 1.400 . S
C973 C967 1.491 . S
C973 C972 1.400 . S
C973 C974 1.398 . S
C974 H962 0.950 . S
C974 C973 1.398 . S
C974 C975 1.391 . S
C975 H963 0.950 . S
C975 C971 1.393 . S
C975 C974 1.391 . S
H976 C984 0.950 . S
H977 C989 0.950 . S
H978 C986 0.950 . S
H979 C988 0.950 . S
H980 C990 0.950 . S
H981 C992 0.950 . S
H982 C994 0.950 . S
H983 C995 0.950 . S
C984 H976 0.950 . S
C984 C985 1.386 . S
C984 C986 1.391 . S
C985 C984 1.386 . S
C985 C989 1.393 . S
C986 H978 0.950 . S
C986 C984 1.391 . S
C986 C987 1.400 . S
C987 C986 1.400 . S
C987 C988 1.398 . S
C987 C993 1.491 . S
C988 H979 0.950 . S
C988 C987 1.398 . S
C988 C989 1.391 . S
C989 H977 0.950 . S
C989 C985 1.393 . S
C989 C988 1.391 . S
C990 H980 0.950 . S
C990 C991 1.386 . S
C990 C992 1.391 . S
C991 C990 1.386 . S
C991 C995 1.393 . S
C992 H981 0.950 . S
C992 C990 1.391 . S
C992 C993 1.400 . S
C993 C987 1.491 . S
C993 C992 1.400 . S
C993 C994 1.398 . S
C994 H982 0.950 . S
C994 C993 1.398 . S
C994 C995 1.391 . S
C995 H983 0.950 . S
C995 C991 1.393 . S
C995 C994 1.391 . S
H996 C1004 0.950 . S
H997 C1009 0.950 . S
H998 C1006 0.950 . S
H999 C1008 0.950 . S
H1000 C1010 0.950 . S
H1001 C1012 0.950 . S
H1002 C1014 0.950 . S
H1003 C1015 0.950 . S
C1004 H996 0.950 . S
C1004 C1005 1.386 . S
C1004 C1006 1.391 . S
C1005 C1004 1.386 . S
C1005 C1009 1.393 . S
C1006 H998 0.950 . S
C1006 C1004 1.391 . S
C1006 C1007 1.400 . S
C1007 C1006 1.400 . S
C1007 C1008 1.398 . S
C1007 C1013 1.491 . S
C1008 H999 0.950 . S
C1008 C1007 1.398 . S
C1008 C1009 1.391 . S
C1009 H997 0.950 . S
C1009 C1005 1.393 . S
C1009 C1008 1.391 . S
C1010 H1000 0.950 . S
C1010 C1011 1.386 . S
C1010 C1012 1.391 . S
C1011 C1010 1.386 . S
C1011 C1015 1.393 . S
C1012 H1001 0.950 . S
C1012 C1010 1.391 . S
C1012 C1013 1.400 . S
C1013 C1007 1.491 . S
C1013 C1012 1.400 . S
C1013 C1014 1.398 . S
C1014 H1002 0.950 . S
C1014 C1013 1.398 . S
C1014 C1015 1.391 . S
C1015 H1003 0.950 . S
C1015 C1011 1.393 . S
C1015 C1014 1.391 . S
H1016 C1024 0.950 . S
H1017 C1029 0.950 . S
H1018 C1026 0.950 . S
H1019 C1028 0.950 . S
H1020 C1030 0.950 . S
H1021 C1032 0.950 . S
H1022 C1034 0.950 . S
H1023 C1035 0.950 . S
C1024 H1016 0.950 . S
C1024 C1025 1.386 . S
C1024 C1026 1.391 . S
C1025 C1024 1.386 . S
C1025 C1029 1.393 . S
C1026 H1018 0.950 . S
C1026 C1024 1.391 . S
C1026 C1027 1.400 . S
C1027 C1026 1.400 . S
C1027 C1028 1.398 . S
C1027 C1033 1.491 . S
C1028 H1019 0.950 . S
C1028 C1027 1.398 . S
C1028 C1029 1.391 . S
C1029 H1017 0.950 . S
C1029 C1025 1.393 . S
C1029 C1028 1.391 . S
C1030 H1020 0.950 . S
C1030 C1031 1.386 . S
C1030 C1032 1.391 . S
C1031 C1030 1.386 . S
C1031 C1035 1.393 . S
C1032 H1021 0.950 . S
C1032 C1030 1.391 . S
C1032 C1033 1.400 . S
C1033 C1027 1.491 . S
C1033 C1032 1.400 . S
C1033 C1034 1.398 . S
C1034 H1022 0.950 . S
C1034 C1033 1.398 . S
C1034 C1035 1.391 . S
C1035 H1023 0.950 . S
C1035 C1031 1.393 . S
C1035 C1034 1.391 . S
H1036 C1044 0.950 . S
H1037 C1049 0.950 . S
H1038 C1046 0.950 . S
H1039 C1048 0.950 . S
H1040 C1050 0.950 . S
H1041 C1052 0.950 . S
H1042 C1054 0.950 . S
H1043 C1055 0.950 . S
C1044 H1036 0.950 . S
C1044 C1045 1.386 . S
C1044 C1046 1.391 . S
C1045 C1044 1.386 . S
C1045 C1049 1.393 . S
C1046 H1038 0.950 . S
C1046 C1044 1.391 . S
C1046 C1047 1.400 . S
C1047 C1046 1.400 . S
C1047 C1048 1.398 . S
C1047 C1053 1.491 . S
C1048 H1039 0.950 . S
C1048 C1047 1.398 . S
C1048 C1049 1.391 . S
C1049 H1037 0.950 . S
C1049 C1045 1.393 . S
C1049 C1048 1.391 . S
C1050 H1040 0.950 . S
C1050 C1051 1.386 . S
C1050 C1052 1.391 . S
C1051 C1050 1.386 . S
C1051 C1055 1.393 . S
C1052 H1041 0.950 . S
C1052 C1050 1.391 . S
C1052 C1053 1.400 . S
C1053 C1047 1.491 . S
C1053 C1052 1.400 . S
C1053 C1054 1.398 . S
C1054 H1042 0.950 . S
C1054 C1053 1.398 . S
C1054 C1055 1.391 . S
C1055 H1043 0.950 . S
C1055 C1051 1.393 . S
C1055 C1054 1.391 . S
H1056 C1064 0.950 . S
H1057 C1069 0.950 . S
H1058 C1066 0.950 . S
H1059 C1068 0.950 . S
H1060 C1070 0.950 . S
H1061 C1072 0.950 . S
H1062 C1074 0.950 . S
H1063 C1075 0.950 . S
C1064 H1056 0.950 . S
C1064 C1065 1.386 . S
C1064 C1066 1.391 . S
C1065 C1064 1.386 . S
C1065 C1069 1.393 . S
C1066 H1058 0.950 . S
C1066 C1064 1.391 . S
C1066 C1067 1.400 . S
C1067 C1066 1.400 . S
C1067 C1068 1.398 . S
C1067 C1073 1.491 . S
C1068 H1059 0.950 . S
C1068 C1067 1.398 . S
C1068 C1069 1.391 . S
C1069 H1057 0.950 . S
C1069 C1065 1.393 . S
C1069 C1068 1.391 . S
C1070 H1060 0.950 . S
C1070 C1071 1.386 . S
C1070 C1072 1.391 . S
C1071 C1070 1.386 . S
C1071 C1075 1.393 . S
C1072 H1061 0.950 . S
C1072 C1070 1.391 . S
C1072 C1073 1.400 . S
C1073 C1067 1.491 . S
C1073 C1072 1.400 . S
C1073 C1074 1.398 . S
C1074 H1062 0.950 . S
C1074 C1073 1.398 . S
C1074 C1075 1.391 . S
C1075 H1063 0.950 . S
C1075 C1071 1.393 . S
C1075 C1074 1.391 . S
H1076 C1084 0.950 . S
H1077 C1089 0.950 . S
H1078 C1086 0.950 . S
H1079 C1088 0.950 . S
H1080 C1090 0.950 . S
H1081 C1092 0.950 . S
H1082 C1094 0.950 . S
H1083 C1095 0.950 . S
C1084 H1076 0.950 . S
C1084 C1085 1.386 . S
C1084 C1086 1.391 . S
C1085 C1084 1.386 . S
C1085 C1089 1.393 . S
C1086 H1078 0.950 . S
C1086 C1084 1.391 . S
C1086 C1087 1.400 . S
C1087 C1086 1.400 . S
C1087 C1088 1.398 . S
C1087 C1093 1.491 . S
C1088 H1079 0.950 . S
C1088 C1087 1.398 . S
C1088 C1089 1.391 . S
C1089 H1077 0.950 . S
C1089 C1085 1.393 . S
C1089 C1088 1.391 . S
C1090 H1080 0.950 . S
C1090 C1091 1.386 . S
C1090 C1092 1.391 . S
C1091 C1090 1.386 . S
C1091 C1095 1.393 . S
C1092 H1081 0.950 . S
C1092 C1090 1.391 . S
C1092 C1093 1.400 . S
C1093 C1087 1.491 . S
C1093 C1092 1.400 . S
C1093 C1094 1.398 . S
C1094 H1082 0.950 . S
C1094 C1093 1.398 . S
C1094 C1095 1.391 . S
C1095 H1083 0.950 . S
C1095 C1091 1.393 . S
C1095 C1094 1.391 . S
H1096 C1104 0.950 . S
H1097 C1109 0.950 . S
H1098 C1106 0.950 . S
H1099 C1108 0.950 . S
H1100 C1110 0.950 . S
H1101 C1112 0.950 . S
H1102 C1114 0.950 . S
H1103 C1115 0.950 . S
C1104 H1096 0.950 . S
C1104 C1105 1.386 . S
C1104 C1106 1.391 . S
C1105 C1104 1.386 . S
C1105 C1109 1.393 . S
C1106 H1098 0.950 . S
C1106 C1104 1.391 . S
C1106 C1107 1.400 . S
C1107 C1106 1.400 . S
C1107 C1108 1.398 . S
C1107 C1113 1.491 . S
C1108 H1099 0.950 . S
C1108 C1107 1.398 . S
C1108 C1109 1.391 . S
C1109 H1097 0.950 . S
C1109 C1105 1.393 . S
C1109 C1108 1.391 . S
C1110 H1100 0.950 . S
C1110 C1111 1.386 . S
C1110 C1112 1.391 . S
C1111 C1110 1.386 . S
C1111 C1115 1.393 . S
C1112 H1101 0.950 . S
C1112 C1110 1.391 . S
C1112 C1113 1.400 . S
C1113 C1107 1.491 . S
C1113 C1112 1.400 . S
C1113 C1114 1.398 . S
C1114 H1102 0.950 . S
C1114 C1113 1.398 . S
C1114 C1115 1.391 . S
C1115 H1103 0.950 . S
C1115 C1111 1.393 . S
C1115 C1114 1.391 . S
H1116 C1124 0.950 . S
H1117 C1129 0.950 1_655 S
H1118 C1126 0.950 . S
H1119 C1128 0.950 1_655 S
H1120 C1130 0.950 . S
H1121 C1132 0.958 . S
H1122 C1134 0.950 . S
H1123 C1135 0.950 . S
C1124 H1116 0.950 . S
C1124 C1125 1.386 . S
C1124 C1126 1.391 . S
C1125 C1124 1.386 . S
C1125 C1129 1.393 . S
C1126 H1118 0.950 . S
C1126 C1124 1.391 . S
C1126 C1127 1.400 . S
C1127 C1126 1.400 . S
C1127 C1128 1.398 . S
C1127 C1133 1.491 1_554 S
C1128 H1119 0.950 1_455 S
C1128 C1127 1.398 . S
C1128 C1129 1.391 . S
C1129 H1117 0.950 1_455 S
C1129 C1125 1.393 . S
C1129 C1128 1.391 . S
C1130 H1120 0.950 . S
C1130 C1131 1.386 1_655 S
C1130 C1132 1.392 . S
C1131 C1130 1.386 1_455 S
C1131 C1135 1.393 . S
C1132 H1121 0.958 . S
C1132 C1130 1.392 . S
C1132 C1133 1.392 1_655 S
C1133 C1127 1.491 1_556 S
C1133 C1132 1.392 1_455 S
C1133 C1134 1.398 . S
C1134 H1122 0.950 . S
C1134 C1133 1.398 . S
C1134 C1135 1.391 . S
C1135 H1123 0.950 . S
C1135 C1131 1.393 . S
C1135 C1134 1.391 . S
H1136 C1144 0.950 . S
H1137 C1149 0.950 . S
H1138 C1146 0.950 . S
H1139 C1148 0.950 . S
H1140 C1150 0.950 . S
H1141 C1152 0.950 . S
H1142 C1154 0.950 . S
H1143 C1155 0.950 . S
C1144 H1136 0.950 . S
C1144 C1145 1.386 . S
C1144 C1146 1.391 . S
C1145 C1144 1.386 . S
C1145 C1149 1.393 . S
C1146 H1138 0.950 . S
C1146 C1144 1.391 . S
C1146 C1147 1.400 . S
C1147 C1146 1.400 . S
C1147 C1148 1.398 . S
C1147 C1153 1.491 1_554 S
C1148 H1139 0.950 . S
C1148 C1147 1.398 . S
C1148 C1149 1.391 . S
C1149 H1137 0.950 . S
C1149 C1145 1.393 . S
C1149 C1148 1.391 . S
C1150 H1140 0.950 . S
C1150 C1151 1.386 . S
C1150 C1152 1.391 . S
C1151 C1150 1.386 . S
C1151 C1155 1.393 . S
C1152 H1141 0.950 . S
C1152 C1150 1.391 . S
C1152 C1153 1.400 . S
C1153 C1147 1.491 1_556 S
C1153 C1152 1.400 . S
C1153 C1154 1.398 . S
C1154 H1142 0.950 . S
C1154 C1153 1.398 . S
C1154 C1155 1.391 . S
C1155 H1143 0.950 . S
C1155 C1151 1.393 . S
C1155 C1154 1.391 . S
H1156 C1164 0.950 . S
H1157 C1169 0.950 . S
H1158 C1166 0.950 . S
H1159 C1168 0.950 . S
H1160 C1170 0.950 . S
H1161 C1172 0.950 . S
H1162 C1174 0.950 . S
H1163 C1175 0.950 . S
C1164 H1156 0.950 . S
C1164 C1165 1.386 . S
C1164 C1166 1.391 . S
C1165 C1164 1.386 . S
C1165 C1169 1.393 . S
C1166 H1158 0.950 . S
C1166 C1164 1.391 . S
C1166 C1167 1.400 . S
C1167 C1166 1.400 . S
C1167 C1168 1.398 . S
C1167 C1173 1.491 1_554 S
C1168 H1159 0.950 . S
C1168 C1167 1.398 . S
C1168 C1169 1.391 . S
C1169 H1157 0.950 . S
C1169 C1165 1.393 . S
C1169 C1168 1.391 . S
C1170 H1160 0.950 . S
C1170 C1171 1.386 . S
C1170 C1172 1.391 . S
C1171 C1170 1.386 . S
C1171 C1175 1.393 . S
C1172 H1161 0.950 . S
C1172 C1170 1.391 . S
C1172 C1173 1.400 . S
C1173 C1167 1.491 1_556 S
C1173 C1172 1.400 . S
C1173 C1174 1.398 . S
C1174 H1162 0.950 . S
C1174 C1173 1.398 . S
C1174 C1175 1.391 . S
C1175 H1163 0.950 . S
C1175 C1171 1.393 . S
C1175 C1174 1.391 . S
H1176 C1184 0.950 . S
H1177 C1189 0.894 1_655 S
H1178 C1186 0.950 . S
H1179 C1188 0.950 1_655 S
H1180 C1190 0.950 1_655 S
H1181 C1192 0.950 1_655 S
H1182 C1194 0.950 . S
H1183 C1195 0.950 . S
C1184 H1176 0.950 . S
C1184 C1185 1.386 . S
C1184 C1186 1.391 . S
C1185 C1184 1.386 . S
C1185 C1189 1.448 . S
C1186 H1178 0.950 . S
C1186 C1184 1.391 . S
C1186 C1187 1.400 . S
C1187 C1186 1.400 . S
C1187 C1188 1.398 . S
C1187 C1193 1.491 1_556 S
C1188 H1179 0.950 1_455 S
C1188 C1187 1.398 . S
C1188 C1189 1.395 . S
C1189 H1177 0.894 1_455 S
C1189 C1185 1.448 . S
C1189 C1188 1.395 . S
C1190 H1180 0.950 1_455 S
C1190 C1191 1.386 . S
C1190 C1192 1.391 . S
C1191 C1190 1.386 . S
C1191 C1195 1.393 . S
C1192 H1181 0.950 1_455 S
C1192 C1190 1.391 . S
C1192 C1193 1.400 . S
C1193 C1187 1.491 1_554 S
C1193 C1192 1.400 . S
C1193 C1194 1.398 . S
C1194 H1182 0.950 . S
C1194 C1193 1.398 . S
C1194 C1195 1.391 . S
C1195 H1183 0.950 . S
C1195 C1191 1.393 . S
C1195 C1194 1.391 . S
H1196 C1204 0.950 . S
H1197 C1209 0.950 . S
H1198 C1206 0.950 . S
H1199 C1208 0.950 . S
H1200 C1210 0.950 . S
H1201 C1212 0.950 . S
H1202 C1214 0.950 . S
H1203 C1215 0.950 . S
C1204 H1196 0.950 . S
C1204 C1205 1.386 . S
C1204 C1206 1.391 . S
C1205 C1204 1.386 . S
C1205 C1209 1.393 . S
C1206 H1198 0.950 . S
C1206 C1204 1.391 . S
C1206 C1207 1.400 . S
C1207 C1206 1.400 . S
C1207 C1208 1.398 . S
C1207 C1213 1.491 1_554 S
C1208 H1199 0.950 . S
C1208 C1207 1.398 . S
C1208 C1209 1.391 . S
C1209 H1197 0.950 . S
C1209 C1205 1.393 . S
C1209 C1208 1.391 . S
C1210 H1200 0.950 . S
C1210 C1211 1.386 . S
C1210 C1212 1.391 . S
C1211 C1210 1.386 . S
C1211 C1215 1.393 . S
C1212 H1201 0.950 . S
C1212 C1210 1.391 . S
C1212 C1213 1.400 . S
C1213 C1207 1.491 1_556 S
C1213 C1212 1.400 . S
C1213 C1214 1.398 . S
C1214 H1202 0.950 . S
C1214 C1213 1.398 . S
C1214 C1215 1.391 . S
C1215 H1203 0.950 . S
C1215 C1211 1.393 . S
C1215 C1214 1.391 . S
H1216 C1224 0.950 . S
H1217 C1229 0.950 . S
H1218 C1226 0.950 . S
H1219 C1228 0.950 . S
H1220 C1230 0.975 . S
H1221 C1232 0.950 . S
H1222 C1234 0.950 . S
H1223 C1235 0.950 . S
C1224 H1216 0.950 . S
C1224 C1225 1.386 . S
C1224 C1226 1.391 . S
C1225 C1224 1.386 . S
C1225 C1229 1.393 1_545 S
C1226 H1218 0.950 . S
C1226 C1224 1.391 . S
C1226 C1227 1.400 . S
C1227 C1226 1.400 . S
C1227 C1228 1.398 1_545 S
C1227 C1233 1.491 1_554 S
C1228 H1219 0.950 . S
C1228 C1227 1.398 1_565 S
C1228 C1229 1.391 . S
C1229 H1217 0.950 . S
C1229 C1225 1.393 1_565 S
C1229 C1228 1.391 . S
C1230 H1220 0.975 . S
C1230 C1231 1.360 1_565 S
C1230 C1232 1.393 . S
C1231 C1230 1.360 1_545 S
C1231 C1235 1.393 . S
C1232 H1221 0.950 . S
C1232 C1230 1.393 . S
C1232 C1233 1.400 1_565 S
C1233 C1227 1.491 1_556 S
C1233 C1232 1.400 1_545 S
C1233 C1234 1.398 . S
C1234 H1222 0.950 . S
C1234 C1233 1.398 . S
C1234 C1235 1.391 . S
C1235 H1223 0.950 . S
C1235 C1231 1.393 . S
C1235 C1234 1.391 . S
H1236 C1244 0.950 . S
H1237 C1249 0.950 . S
H1238 C1246 0.950 . S
H1239 C1248 0.950 . S
H1240 C1250 0.950 . S
H1241 C1252 0.950 . S
H1242 C1254 0.950 . S
H1243 C1255 0.950 . S
C1244 H1236 0.950 . S
C1244 C1245 1.386 . S
C1244 C1246 1.391 . S
C1245 C1244 1.386 . S
C1245 C1249 1.393 . S
C1246 H1238 0.950 . S
C1246 C1244 1.391 . S
C1246 C1247 1.400 . S
C1247 C1246 1.400 . S
C1247 C1248 1.398 . S
C1247 C1253 1.491 . S
C1248 H1239 0.950 . S
C1248 C1247 1.398 . S
C1248 C1249 1.391 . S
C1249 H1237 0.950 . S
C1249 C1245 1.393 . S
C1249 C1248 1.391 . S
C1250 H1240 0.950 . S
C1250 C1251 1.386 . S
C1250 C1252 1.391 . S
C1251 C1250 1.386 . S
C1251 C1255 1.393 . S
C1252 H1241 0.950 . S
C1252 C1250 1.391 . S
C1252 C1253 1.400 . S
C1253 C1247 1.491 . S
C1253 C1252 1.400 . S
C1253 C1254 1.398 . S
C1254 H1242 0.950 . S
C1254 C1253 1.398 . S
C1254 C1255 1.391 . S
C1255 H1243 0.950 . S
C1255 C1251 1.393 . S
C1255 C1254 1.391 . S
H1256 C1264 0.950 . S
H1257 C1269 0.950 . S
H1258 C1266 0.950 . S
H1259 C1268 0.950 . S
H1260 C1270 0.950 . S
H1261 C1272 0.950 . S
H1262 C1274 0.950 . S
H1263 C1275 0.950 . S
C1264 H1256 0.950 . S
C1264 C1265 1.386 . S
C1264 C1266 1.391 . S
C1265 C1264 1.386 . S
C1265 C1269 1.393 . S
C1266 H1258 0.950 . S
C1266 C1264 1.391 . S
C1266 C1267 1.400 . S
C1267 C1266 1.400 . S
C1267 C1268 1.398 . S
C1267 C1273 1.491 . S
C1268 H1259 0.950 . S
C1268 C1267 1.398 . S
C1268 C1269 1.391 . S
C1269 H1257 0.950 . S
C1269 C1265 1.393 . S
C1269 C1268 1.391 . S
C1270 H1260 0.950 . S
C1270 C1271 1.386 . S
C1270 C1272 1.391 . S
C1271 C1270 1.386 . S
C1271 C1275 1.393 . S
C1272 H1261 0.950 . S
C1272 C1270 1.391 . S
C1272 C1273 1.400 . S
C1273 C1267 1.491 . S
C1273 C1272 1.400 . S
C1273 C1274 1.398 . S
C1274 H1262 0.950 . S
C1274 C1273 1.398 . S
C1274 C1275 1.391 . S
C1275 H1263 0.950 . S
C1275 C1271 1.393 . S
C1275 C1274 1.391 . S
H1276 C1284 0.950 . S
H1277 C1289 0.950 . S
H1278 C1286 0.950 . S
H1279 C1288 0.950 . S
H1280 C1290 0.950 . S
H1281 C1292 0.950 . S
H1282 C1294 0.950 . S
H1283 C1295 0.950 . S
C1284 H1276 0.950 . S
C1284 C1285 1.386 . S
C1284 C1286 1.391 . S
C1285 C1284 1.386 . S
C1285 C1289 1.393 . S
C1286 H1278 0.950 . S
C1286 C1284 1.391 . S
C1286 C1287 1.400 . S
C1287 C1286 1.400 . S
C1287 C1288 1.398 . S
C1287 C1293 1.491 . S
C1288 H1279 0.950 . S
C1288 C1287 1.398 . S
C1288 C1289 1.391 . S
C1289 H1277 0.950 . S
C1289 C1285 1.393 . S
C1289 C1288 1.391 . S
C1290 H1280 0.950 . S
C1290 C1291 1.386 . S
C1290 C1292 1.391 . S
C1291 C1290 1.386 . S
C1291 C1295 1.393 . S
C1292 H1281 0.950 . S
C1292 C1290 1.391 . S
C1292 C1293 1.400 . S
C1293 C1287 1.491 . S
C1293 C1292 1.400 . S
C1293 C1294 1.398 . S
C1294 H1282 0.950 . S
C1294 C1293 1.398 . S
C1294 C1295 1.391 . S
C1295 H1283 0.950 . S
C1295 C1291 1.393 . S
C1295 C1294 1.391 . S
H1296 C1304 0.950 . S
H1297 C1309 0.950 . S
H1298 C1306 0.950 . S
H1299 C1308 0.950 . S
H1300 C1310 0.950 . S
H1301 C1312 0.950 . S
H1302 C1314 0.950 . S
H1303 C1315 0.950 . S
C1304 H1296 0.950 . S
C1304 C1305 1.386 . S
C1304 C1306 1.391 . S
C1305 C1304 1.386 . S
C1305 C1309 1.393 . S
C1306 H1298 0.950 . S
C1306 C1304 1.391 . S
C1306 C1307 1.400 . S
C1307 C1306 1.400 . S
C1307 C1308 1.398 . S
C1307 C1313 1.491 . S
C1308 H1299 0.950 . S
C1308 C1307 1.398 . S
C1308 C1309 1.391 . S
C1309 H1297 0.950 . S
C1309 C1305 1.393 . S
C1309 C1308 1.391 . S
C1310 H1300 0.950 . S
C1310 C1311 1.386 . S
C1310 C1312 1.391 . S
C1311 C1310 1.386 . S
C1311 C1315 1.393 . S
C1312 H1301 0.950 . S
C1312 C1310 1.391 . S
C1312 C1313 1.400 . S
C1313 C1307 1.491 . S
C1313 C1312 1.400 . S
C1313 C1314 1.398 . S
C1314 H1302 0.950 . S
C1314 C1313 1.398 . S
C1314 C1315 1.391 . S
C1315 H1303 0.950 . S
C1315 C1311 1.393 . S
C1315 C1314 1.391 . S
H1316 C1324 0.950 . S
H1317 C1329 0.950 . S
H1318 C1326 0.950 . S
H1319 C1328 0.950 . S
H1320 C1330 0.950 . S
H1321 C1332 0.950 . S
H1322 C1334 0.950 . S
H1323 C1335 0.950 . S
C1324 H1316 0.950 . S
C1324 C1325 1.386 . S
C1324 C1326 1.391 . S
C1325 C1324 1.386 . S
C1325 C1329 1.393 . S
C1326 H1318 0.950 . S
C1326 C1324 1.391 . S
C1326 C1327 1.400 . S
C1327 C1326 1.400 . S
C1327 C1328 1.398 . S
C1327 C1333 1.491 . S
C1328 H1319 0.950 . S
C1328 C1327 1.398 . S
C1328 C1329 1.391 . S
C1329 H1317 0.950 . S
C1329 C1325 1.393 . S
C1329 C1328 1.391 . S
C1330 H1320 0.950 . S
C1330 C1331 1.386 . S
C1330 C1332 1.391 . S
C1331 C1330 1.386 . S
C1331 C1335 1.393 . S
C1332 H1321 0.950 . S
C1332 C1330 1.391 . S
C1332 C1333 1.400 . S
C1333 C1327 1.491 . S
C1333 C1332 1.400 . S
C1333 C1334 1.398 . S
C1334 H1322 0.950 . S
C1334 C1333 1.398 . S
C1334 C1335 1.391 . S
C1335 H1323 0.950 . S
C1335 C1331 1.393 . S
C1335 C1334 1.391 . S
H1336 C1344 0.950 . S
H1337 C1349 0.950 . S
H1338 C1346 0.950 . S
H1339 C1348 0.950 . S
H1340 C1350 0.950 . S
H1341 C1352 0.950 . S
H1342 C1354 0.950 . S
H1343 C1355 0.950 . S
C1344 H1336 0.950 . S
C1344 C1345 1.386 . S
C1344 C1346 1.391 . S
C1345 C1344 1.386 . S
C1345 C1349 1.393 . S
C1346 H1338 0.950 . S
C1346 C1344 1.391 . S
C1346 C1347 1.400 . S
C1347 C1346 1.400 . S
C1347 C1348 1.398 . S
C1347 C1353 1.491 . S
C1348 H1339 0.950 . S
C1348 C1347 1.398 . S
C1348 C1349 1.391 . S
C1349 H1337 0.950 . S
C1349 C1345 1.393 . S
C1349 C1348 1.391 . S
C1350 H1340 0.950 . S
C1350 C1351 1.386 . S
C1350 C1352 1.391 . S
C1351 C1350 1.386 . S
C1351 C1355 1.393 . S
C1352 H1341 0.950 . S
C1352 C1350 1.391 . S
C1352 C1353 1.400 . S
C1353 C1347 1.491 . S
C1353 C1352 1.400 . S
C1353 C1354 1.398 . S
C1354 H1342 0.950 . S
C1354 C1353 1.398 . S
C1354 C1355 1.391 . S
C1355 H1343 0.950 . S
C1355 C1351 1.393 . S
C1355 C1354 1.391 . S
H1356 C1364 0.950 . S
H1357 C1369 0.950 . S
H1358 C1366 0.950 . S
H1359 C1368 0.950 . S
H1360 C1370 0.950 . S
H1361 C1372 0.950 . S
H1362 C1374 0.950 . S
H1363 C1375 0.950 . S
C1364 H1356 0.950 . S
C1364 C1365 1.386 . S
C1364 C1366 1.391 . S
C1365 C1364 1.386 . S
C1365 C1369 1.393 . S
C1366 H1358 0.950 . S
C1366 C1364 1.391 . S
C1366 C1367 1.400 . S
C1367 C1366 1.400 . S
C1367 C1368 1.398 . S
C1367 C1373 1.491 . S
C1368 H1359 0.950 . S
C1368 C1367 1.398 . S
C1368 C1369 1.391 . S
C1369 H1357 0.950 . S
C1369 C1365 1.393 . S
C1369 C1368 1.391 . S
C1370 H1360 0.950 . S
C1370 C1371 1.386 . S
C1370 C1372 1.391 . S
C1371 C1370 1.386 . S
C1371 C1375 1.393 . S
C1372 H1361 0.950 . S
C1372 C1370 1.391 . S
C1372 C1373 1.400 . S
C1373 C1367 1.491 . S
C1373 C1372 1.400 . S
C1373 C1374 1.398 . S
C1374 H1362 0.950 . S
C1374 C1373 1.398 . S
C1374 C1375 1.391 . S
C1375 H1363 0.950 . S
C1375 C1371 1.393 . S
C1375 C1374 1.391 . S
H1376 C1384 0.950 . S
H1377 C1389 0.950 . S
H1378 C1386 0.950 . S
H1379 C1388 0.950 . S
H1380 C1390 0.950 . S
H1381 C1392 0.950 . S
H1382 C1394 0.950 . S
H1383 C1395 0.950 . S
C1384 H1376 0.950 . S
C1384 C1385 1.386 . S
C1384 C1386 1.391 . S
C1385 C1384 1.386 . S
C1385 C1389 1.393 . S
C1386 H1378 0.950 . S
C1386 C1384 1.391 . S
C1386 C1387 1.400 . S
C1387 C1386 1.400 . S
C1387 C1388 1.398 . S
C1387 C1393 1.491 . S
C1388 H1379 0.950 . S
C1388 C1387 1.398 . S
C1388 C1389 1.391 . S
C1389 H1377 0.950 . S
C1389 C1385 1.393 . S
C1389 C1388 1.391 . S
C1390 H1380 0.950 . S
C1390 C1391 1.386 . S
C1390 C1392 1.391 . S
C1391 C1390 1.386 . S
C1391 C1395 1.393 . S
C1392 H1381 0.950 . S
C1392 C1390 1.391 . S
C1392 C1393 1.400 . S
C1393 C1387 1.491 . S
C1393 C1392 1.400 . S
C1393 C1394 1.398 . S
C1394 H1382 0.950 . S
C1394 C1393 1.398 . S
C1394 C1395 1.391 . S
C1395 H1383 0.950 . S
C1395 C1391 1.393 . S
C1395 C1394 1.391 . S
H1396 C1404 0.950 . S
H1397 C1409 0.950 . S
H1398 C1406 0.950 . S
H1399 C1408 0.950 . S
H1400 C1410 0.950 . S
H1401 C1412 0.950 . S
H1402 C1414 0.950 . S
H1403 C1415 0.950 . S
C1404 H1396 0.950 . S
C1404 C1405 1.386 . S
C1404 C1406 1.391 . S
C1405 C1404 1.386 . S
C1405 C1409 1.393 . S
C1406 H1398 0.950 . S
C1406 C1404 1.391 . S
C1406 C1407 1.400 . S
C1407 C1406 1.400 . S
C1407 C1408 1.398 . S
C1407 C1413 1.491 . S
C1408 H1399 0.950 . S
C1408 C1407 1.398 . S
C1408 C1409 1.391 . S
C1409 H1397 0.950 . S
C1409 C1405 1.393 . S
C1409 C1408 1.391 . S
C1410 H1400 0.950 . S
C1410 C1411 1.386 . S
C1410 C1412 1.391 . S
C1411 C1410 1.386 . S
C1411 C1415 1.393 . S
C1412 H1401 0.950 . S
C1412 C1410 1.391 . S
C1412 C1413 1.400 . S
C1413 C1407 1.491 . S
C1413 C1412 1.400 . S
C1413 C1414 1.398 . S
C1414 H1402 0.950 . S
C1414 C1413 1.398 . S
C1414 C1415 1.391 . S
C1415 H1403 0.950 . S
C1415 C1411 1.393 . S
C1415 C1414 1.391 . S
H1416 C1424 0.950 . S
H1417 C1429 0.950 . S
H1418 C1426 0.950 . S
H1419 C1428 0.950 . S
H1420 C1430 0.950 . S
H1421 C1432 0.950 . S
H1422 C1434 0.950 . S
H1423 C1435 0.950 . S
C1424 H1416 0.950 . S
C1424 C1425 1.386 . S
C1424 C1426 1.391 . S
C1425 C1424 1.386 . S
C1425 C1429 1.393 . S
C1426 H1418 0.950 . S
C1426 C1424 1.391 . S
C1426 C1427 1.400 . S
C1427 C1426 1.400 . S
C1427 C1428 1.398 . S
C1427 C1433 1.491 . S
C1428 H1419 0.950 . S
C1428 C1427 1.398 . S
C1428 C1429 1.391 . S
C1429 H1417 0.950 . S
C1429 C1425 1.393 . S
C1429 C1428 1.391 . S
C1430 H1420 0.950 . S
C1430 C1431 1.386 . S
C1430 C1432 1.391 . S
C1431 C1430 1.386 . S
C1431 C1435 1.393 . S
C1432 H1421 0.950 . S
C1432 C1430 1.391 . S
C1432 C1433 1.400 . S
C1433 C1427 1.491 . S
C1433 C1432 1.400 . S
C1433 C1434 1.398 . S
C1434 H1422 0.950 . S
C1434 C1433 1.398 . S
C1434 C1435 1.391 . S
C1435 H1423 0.950 . S
C1435 C1431 1.393 . S
C1435 C1434 1.391 . S
H1436 C1444 0.950 . S
H1437 C1449 0.950 . S
H1438 C1446 0.950 . S
H1439 C1448 0.950 . S
H1440 C1450 0.950 . S
H1441 C1452 0.950 . S
H1442 C1454 0.950 . S
H1443 C1455 0.950 . S
C1444 H1436 0.950 . S
C1444 C1445 1.386 . S
C1444 C1446 1.391 . S
C1445 C1444 1.386 . S
C1445 C1449 1.393 . S
C1446 H1438 0.950 . S
C1446 C1444 1.391 . S
C1446 C1447 1.400 . S
C1447 C1446 1.400 . S
C1447 C1448 1.398 . S
C1447 C1453 1.491 . S
C1448 H1439 0.950 . S
C1448 C1447 1.398 . S
C1448 C1449 1.391 . S
C1449 H1437 0.950 . S
C1449 C1445 1.393 . S
C1449 C1448 1.391 . S
C1450 H1440 0.950 . S
C1450 C1451 1.386 . S
C1450 C1452 1.391 . S
C1451 C1450 1.386 . S
C1451 C1455 1.393 . S
C1452 H1441 0.950 . S
C1452 C1450 1.391 . S
C1452 C1453 1.400 . S
C1453 C1447 1.491 . S
C1453 C1452 1.400 . S
C1453 C1454 1.398 . S
C1454 H1442 0.950 . S
C1454 C1453 1.398 . S
C1454 C1455 1.391 . S
C1455 H1443 0.950 . S
C1455 C1451 1.393 . S
C1455 C1454 1.391 . S
H1456 C1464 0.950 . S
H1457 C1469 0.950 . S
H1458 C1466 0.950 . S
H1459 C1468 0.950 . S
H1460 C1470 0.950 . S
H1461 C1472 0.950 . S
H1462 C1474 0.950 . S
H1463 C1475 0.950 . S
C1464 H1456 0.950 . S
C1464 C1465 1.386 . S
C1464 C1466 1.391 . S
C1465 C1464 1.386 . S
C1465 C1469 1.393 . S
C1466 H1458 0.950 . S
C1466 C1464 1.391 . S
C1466 C1467 1.400 . S
C1467 C1466 1.400 . S
C1467 C1468 1.398 . S
C1467 C1473 1.491 . S
C1468 H1459 0.950 . S
C1468 C1467 1.398 . S
C1468 C1469 1.391 . S
C1469 H1457 0.950 . S
C1469 C1465 1.393 . S
C1469 C1468 1.391 . S
C1470 H1460 0.950 . S
C1470 C1471 1.386 . S
C1470 C1472 1.391 . S
C1471 C1470 1.386 . S
C1471 C1475 1.393 . S
C1472 H1461 0.950 . S
C1472 C1470 1.391 . S
C1472 C1473 1.400 . S
C1473 C1467 1.491 . S
C1473 C1472 1.400 . S
C1473 C1474 1.398 . S
C1474 H1462 0.950 . S
C1474 C1473 1.398 . S
C1474 C1475 1.391 . S
C1475 H1463 0.950 . S
C1475 C1471 1.393 . S
C1475 C1474 1.391 . S
C405 C294 1.174 . S
C411 C4 1.191 . S
C425 C26 1.184 . S
C431 C316 1.172 . S
C445 C48 1.171 . S
C451 C272 1.183 . S
C465 C52 1.197 . S
C471 C158 1.178 . S
C485 C180 1.195 . S
C491 C8 1.203 . S
C505 C30 1.175 . S
C511 C136 1.175 . S
C525 C74 1.192 . S
C531 C224 1.203 . S
C545 C96 1.185 . S
C551 C246 1.172 . S
C565 C202 1.188 . S
C571 C118 1.173 . S
C585 C360 1.198 . S
C591 C114 1.179 . S
C605 C70 1.201 . S
C611 C382 1.199 . S
C625 C338 1.203 . S
C631 C92 1.194 . S
C645 C184 1.181 . S
C651 C290 1.199 . S
C665 C140 1.198 . S
C671 C312 1.201 . S
C685 C162 1.176 . S
C691 C268 1.194 . S
C705 C206 1.201 . S
C711 C356 1.199 . S
C725 C378 1.174 . S
C731 C228 1.175 . S
C745 C334 1.173 . S
C751 C250 1.189 . S
C765 C6 1.606 . S
C771 C93 1.612 . S
C785 C115 1.605 . S
C791 C28 1.614 . S
C805 C71 1.611 . S
C811 C50 1.608 . S
C825 C97 1.617 . S
C831 C51 1.602 . S
C845 C119 1.601 . S
C851 C7 1.618 . S
C865 C75 1.617 . S
C871 C29 1.602 . S
C885 C225 1.601 . S
C891 C138 1.618 . S
C905 C247 1.605 . S
C911 C160 1.614 . S
C925 C203 1.601 . S
C931 C182 1.618 . S
C945 C229 1.608 . S
C951 C183 1.611 . S
C965 C251 1.602 . S
C971 C139 1.618 . S
C985 C207 1.617 . S
C991 C161 1.601 . S
C1005 C357 1.614 . S
C1011 C270 1.605 . S
C1025 C379 1.618 . S
C1031 C292 1.601 . S
C1045 C314 1.606 . S
C1051 C335 1.613 . S
C1065 C315 1.616 . S
C1071 C361 1.603 . S
C1085 C271 1.618 . S
C1091 C383 1.601 . S
C1105 C339 1.614 . S
C1111 C293 1.605 . S
C1125 C5 1.637 . S
C1131 C9 1.627 . S
C1145 C27 1.621 . S
C1151 C31 1.633 . S
C1165 C49 1.637 . S
C1171 C53 1.636 . S
C1185 C73 1.628 . S
C1191 C72 1.619 . S
C1205 C94 1.636 . S
C1211 C95 1.637 . S
C1225 C116 1.633 . S
C1231 C117 1.622 . S
C1245 C141 1.631 . S
C1251 C137 1.620 . S
C1265 C159 1.630 . S
C1271 C163 1.638 . S
C1285 C185 1.622 . S
C1291 C181 1.619 . S
C1305 C205 1.635 . S
C1311 C204 1.623 . S
C1325 C227 1.618 . S
C1331 C226 1.626 . S
C1345 C249 1.638 . S
C1351 C248 1.635 . S
C1365 C273 1.636 . S
C1371 C269 1.637 . S
C1385 C291 1.637 . S
C1391 C295 1.636 . S
C1405 C313 1.622 . S
C1411 C317 1.619 . S
C1425 C336 1.636 . S
C1431 C337 1.637 . S
C1445 C358 1.632 . S
C1451 C359 1.638 . S
C1465 C381 1.622 . S
C1471 C380 1.619 . S
