# Generated by pormake.
# Topology atn, (4)-cn, num edge types: 1
# Building blocks:
#     Node 0, Type 0, BuildingBlock: GALJAG_clean_sbu_0, # of connection points: 4
#     Node 1, Type 0, BuildingBlock: GALJAG_clean_sbu_0, # of connection points: 4
#     Node 2, Type 0, BuildingBlock: GALJAG_clean_sbu_0, # of connection points: 4
#     Node 3, Type 0, BuildingBlock: GALJAG_clean_sbu_0, # of connection points: 4
#     Node 4, Type 0, BuildingBlock: GALJAG_clean_sbu_0, # of connection points: 4
#     Node 5, Type 0, BuildingBlock: GALJAG_clean_sbu_0, # of connection points: 4
#     Node 6, Type 0, BuildingBlock: GALJAG_clean_sbu_0, # of connection points: 4
#     Node 7, Type 0, BuildingBlock: GALJAG_clean_sbu_0, # of connection points: 4
#     Node 8, Type 0, BuildingBlock: GALJAG_clean_sbu_0, # of connection points: 4
#     Node 9, Type 0, BuildingBlock: GALJAG_clean_sbu_0, # of connection points: 4
#     Node 10, Type 0, BuildingBlock: GALJAG_clean_sbu_0, # of connection points: 4
#     Node 11, Type 0, BuildingBlock: GALJAG_clean_sbu_0, # of connection points: 4
#     Node 12, Type 0, BuildingBlock: GALJAG_clean_sbu_0, # of connection points: 4
#     Node 13, Type 0, BuildingBlock: GALJAG_clean_sbu_0, # of connection points: 4
#     Node 14, Type 0, BuildingBlock: GALJAG_clean_sbu_0, # of connection points: 4
#     Node 15, Type 0, BuildingBlock: GALJAG_clean_sbu_0, # of connection points: 4
#     Edge 16, Type (0, 0), BuildingBlock: CIFDUS_clean_linker_0, # of connection points: 2
#     Edge 17, Type (0, 0), BuildingBlock: CIFDUS_clean_linker_0, # of connection points: 2
#     Edge 18, Type (0, 0), BuildingBlock: CIFDUS_clean_linker_0, # of connection points: 2
#     Edge 19, Type (0, 0), BuildingBlock: CIFDUS_clean_linker_0, # of connection points: 2
#     Edge 20, Type (0, 0), BuildingBlock: CIFDUS_clean_linker_0, # of connection points: 2
#     Edge 21, Type (0, 0), BuildingBlock: CIFDUS_clean_linker_0, # of connection points: 2
#     Edge 22, Type (0, 0), BuildingBlock: CIFDUS_clean_linker_0, # of connection points: 2
#     Edge 23, Type (0, 0), BuildingBlock: CIFDUS_clean_linker_0, # of connection points: 2
#     Edge 24, Type (0, 0), BuildingBlock: CIFDUS_clean_linker_0, # of connection points: 2
#     Edge 25, Type (0, 0), BuildingBlock: CIFDUS_clean_linker_0, # of connection points: 2
#     Edge 26, Type (0, 0), BuildingBlock: CIFDUS_clean_linker_0, # of connection points: 2
#     Edge 27, Type (0, 0), BuildingBlock: CIFDUS_clean_linker_0, # of connection points: 2
#     Edge 28, Type (0, 0), BuildingBlock: CIFDUS_clean_linker_0, # of connection points: 2
#     Edge 29, Type (0, 0), BuildingBlock: CIFDUS_clean_linker_0, # of connection points: 2
#     Edge 30, Type (0, 0), BuildingBlock: CIFDUS_clean_linker_0, # of connection points: 2
#     Edge 31, Type (0, 0), BuildingBlock: CIFDUS_clean_linker_0, # of connection points: 2
#     Edge 32, Type (0, 0), BuildingBlock: CIFDUS_clean_linker_0, # of connection points: 2
#     Edge 33, Type (0, 0), BuildingBlock: CIFDUS_clean_linker_0, # of connection points: 2
#     Edge 34, Type (0, 0), BuildingBlock: CIFDUS_clean_linker_0, # of connection points: 2
#     Edge 35, Type (0, 0), BuildingBlock: CIFDUS_clean_linker_0, # of connection points: 2
#     Edge 36, Type (0, 0), BuildingBlock: CIFDUS_clean_linker_0, # of connection points: 2
#     Edge 37, Type (0, 0), BuildingBlock: CIFDUS_clean_linker_0, # of connection points: 2
#     Edge 38, Type (0, 0), BuildingBlock: CIFDUS_clean_linker_0, # of connection points: 2
#     Edge 39, Type (0, 0), BuildingBlock: CIFDUS_clean_linker_0, # of connection points: 2
#     Edge 40, Type (0, 0), BuildingBlock: CIFDUS_clean_linker_0, # of connection points: 2
#     Edge 41, Type (0, 0), BuildingBlock: CIFDUS_clean_linker_0, # of connection points: 2
#     Edge 42, Type (0, 0), BuildingBlock: CIFDUS_clean_linker_0, # of connection points: 2
#     Edge 43, Type (0, 0), BuildingBlock: CIFDUS_clean_linker_0, # of connection points: 2
#     Edge 44, Type (0, 0), BuildingBlock: CIFDUS_clean_linker_0, # of connection points: 2
#     Edge 45, Type (0, 0), BuildingBlock: CIFDUS_clean_linker_0, # of connection points: 2
#     Edge 46, Type (0, 0), BuildingBlock: CIFDUS_clean_linker_0, # of connection points: 2
#     Edge 47, Type (0, 0), BuildingBlock: CIFDUS_clean_linker_0, # of connection points: 2
# Relax obj value: 0.083
# Max RMSD: 0.111
# Mean RMSD: 0.111
data_MOF--net-atn--node1-GALJAG_clean_sbu_0--edge1-CIFDUS_clean_linker_0
_symmetry_space_group_name_H-M    P1
_symmetry_Int_Tables_number       1
_symmetry_cell_setting            triclinic
loop_
_symmetry_equiv_pos_as_xyz
'x, y, z'
_cell_length_a     51.534943
_cell_length_b     51.657168
_cell_length_c     24.932414
_cell_angle_alpha  89.979977
_cell_angle_beta   89.851881
_cell_angle_gamma 89.967776
loop_
_atom_site_label
_atom_site_type_symbol
_atom_site_fract_x
_atom_site_fract_y
_atom_site_fract_z
_atom_type_partial_charge
In0 In 0.17362 0.36567 1.00057 0.0
O1 O 0.14144 0.34981 0.05492 0.0
O2 O 0.17512 0.36629 0.09089 0.0
C3 C 0.15767 0.36271 0.89835 0.0
C4 C 0.17427 0.41718 0.00782 0.0
C5 C 0.2104 0.32888 0.99822 0.0
O6 O 0.14432 0.35342 0.93651 0.0
O7 O 0.17858 0.37345 0.91216 0.0
O8 O 0.21602 0.35257 0.00384 0.0
O9 O 0.18652 0.32411 0.99378 0.0
C10 C 0.15342 0.35549 0.09764 0.0
O11 O 0.19498 0.40397 0.00625 0.0
O12 O 0.15346 0.40426 0.00599 0.0
In13 In 0.62138 0.18431 0.00814 0.0
O14 O 0.63698 0.15537 0.07136 0.0
O15 O 0.61687 0.18908 0.09769 0.0
C16 C 0.62802 0.16725 0.90631 0.0
C17 C 0.56974 0.18112 0.00944 0.0
C18 C 0.65391 0.22489 0.00548 0.0
O19 O 0.6379 0.15532 0.94585 0.0
O20 O 0.6152 0.18717 0.91869 0.0
O21 O 0.62955 0.22776 0.00574 0.0
O22 O 0.66159 0.20168 0.00674 0.0
C23 C 0.62843 0.16851 0.11065 0.0
O24 O 0.58154 0.20261 0.00912 0.0
O25 O 0.58412 0.16126 0.00912 0.0
In26 In 0.80245 0.61761 0.00275 0.0
O27 O 0.77748 0.58106 0.00215 0.0
O28 O 0.81839 0.57704 0.99417 0.0
C29 C 0.76182 0.64994 0.01162 0.0
C30 C 0.82595 0.62688 0.09795 0.0
C31 C 0.82134 0.62729 0.90317 0.0
O32 O 0.75903 0.6257 0.00796 0.0
O33 O 0.78506 0.6577 0.01111 0.0
O34 O 0.83581 0.62036 0.94133 0.0
O35 O 0.79775 0.62965 0.91549 0.0
C36 C 0.7966 0.566 0.99654 0.0
O37 O 0.83314 0.63762 0.0549 0.0
O38 O 0.8073 0.61134 0.09268 0.0
In39 In 0.36416 0.81427 0.00337 0.0
O40 O 0.34781 0.84618 0.05805 0.0
O41 O 0.36401 0.81245 0.09406 0.0
C42 C 0.35877 0.82903 0.90018 0.0
C43 C 0.41602 0.81515 0.00933 0.0
C44 C 0.32847 0.77646 0.00285 0.0
O45 O 0.34991 0.84255 0.93849 0.0
O46 O 0.37054 0.80874 0.9143 0.0
O47 O 0.35245 0.77148 0.00659 0.0
O48 O 0.32294 0.80017 0.99942 0.0
C49 C 0.35296 0.834 0.10087 0.0
O50 O 0.40331 0.79417 0.00978 0.0
O51 O 0.40246 0.83549 0.00606 0.0
In52 In 0.19296 0.62152 0.00826 0.0
O53 O 0.16071 0.63719 0.95491 0.0
O54 O 0.19202 0.61742 0.9173 0.0
C55 C 0.17096 0.63001 0.10486 0.0
C56 C 0.19524 0.56971 0.00887 0.0
C57 C 0.23286 0.65532 0.00757 0.0
O58 O 0.16085 0.63772 0.0617 0.0
O59 O 0.1922 0.61816 0.09932 0.0
O60 O 0.23641 0.6312 0.01008 0.0
O61 O 0.20943 0.66213 0.0055 0.0
C62 C 0.17078 0.62925 0.91178 0.0
O63 O 0.21542 0.58356 0.00672 0.0
O64 O 0.17412 0.58207 0.01053 0.0
In65 In 0.36436 0.19191 1.0002 0.0
O66 O 0.40165 0.21482 0.00681 0.0
O67 O 0.40432 0.17366 0.00177 0.0
C68 C 0.33008 0.23124 0.00242 0.0
C69 C 0.36057 0.17593 0.89703 0.0
C70 C 0.35464 0.16887 0.09576 0.0
O71 O 0.35418 0.23476 0.00714 0.0
O72 O 0.32336 0.20792 0.99681 0.0
O73 O 0.34716 0.15913 0.05188 0.0
O74 O 0.36683 0.18987 0.09106 0.0
C75 C 0.41607 0.19504 0.0056 0.0
O76 O 0.35267 0.16212 0.93571 0.0
O77 O 0.3701 0.19738 0.91069 0.0
In78 In 0.80923 0.36077 0.98821 0.0
O79 O 0.84079 0.34547 0.93318 0.0
O80 O 0.80696 0.36198 0.89775 0.0
C81 C 0.83069 0.35389 0.08468 0.0
C82 C 0.80946 0.41257 0.98517 0.0
C83 C 0.77208 0.32424 0.99232 0.0
O84 O 0.84183 0.3468 0.04197 0.0
O85 O 0.80887 0.36459 0.07847 0.0
O86 O 0.76643 0.34807 0.99043 0.0
O87 O 0.79602 0.31935 0.99193 0.0
C88 C 0.82878 0.35137 0.8908 0.0
O89 O 0.78847 0.39992 0.98847 0.0
O90 O 0.82981 0.39901 0.98344 0.0
In91 In 0.62152 0.80124 0.00823 0.0
O92 O 0.63385 0.83013 0.94275 0.0
O93 O 0.61648 0.79455 0.91909 0.0
C94 C 0.62948 0.82387 0.10426 0.0
C95 C 0.56969 0.7978 0.01277 0.0
C96 C 0.65981 0.76594 0.01214 0.0
O97 O 0.63474 0.83531 0.0606 0.0
O98 O 0.62005 0.80149 0.09899 0.0
O99 O 0.63616 0.75945 0.01396 0.0
O100 O 0.66381 0.78994 0.00827 0.0
C101 C 0.62641 0.81575 0.90464 0.0
O102 O 0.5841 0.77796 0.01464 0.0
O103 O 0.58153 0.81913 0.00879 0.0
In104 In 0.68417 0.86383 0.50549 0.0
O105 O 0.65673 0.84801 0.57081 0.0
O106 O 0.69066 0.86825 0.59488 0.0
C107 C 0.66123 0.85363 0.4106 0.0
C108 C 0.68083 0.91552 0.50356 0.0
C109 C 0.72574 0.83248 0.4968 0.0
O110 O 0.65236 0.84496 0.45447 0.0
O111 O 0.68126 0.86747 0.41504 0.0
O112 O 0.72796 0.85682 0.49842 0.0
O113 O 0.70276 0.82423 0.49995 0.0
C114 C 0.67036 0.85652 0.60912 0.0
O115 O 0.70231 0.90378 0.49992 0.0
O116 O 0.66113 0.9011 0.50774 0.0
In117 In 0.12194 0.66886 0.50851 0.0
O118 O 0.0827 0.68953 0.50905 0.0
O119 O 0.08323 0.64828 0.51103 0.0
C120 C 0.15723 0.70731 0.5077 0.0
C121 C 0.13213 0.6495 0.60626 0.0
C122 C 0.13138 0.64924 0.4105 0.0
O123 O 0.13313 0.71197 0.50718 0.0
O124 O 0.16307 0.68364 0.50868 0.0
O125 O 0.13744 0.63731 0.45292 0.0
O126 O 0.12007 0.67061 0.41776 0.0
C127 C 0.06979 0.66872 0.5107 0.0
O128 O 0.13782 0.63743 0.56374 0.0
O129 O 0.12091 0.67096 0.59925 0.0
In130 In 0.31042 0.11989 0.49976 0.0
O131 O 0.29075 0.08095 0.49337 0.0
O132 O 0.33213 0.08163 0.49707 0.0
C133 C 0.26876 0.15121 0.50001 0.0
C134 C 0.32586 0.12608 0.60266 0.0
C135 C 0.3308 0.13188 0.40277 0.0
O136 O 0.26673 0.12694 0.49604 0.0
O137 O 0.29169 0.15948 0.50386 0.0
O138 O 0.34205 0.13795 0.44607 0.0
O139 O 0.30984 0.11968 0.40883 0.0
C140 C 0.31168 0.0682 0.49387 0.0
O141 O 0.33816 0.13619 0.56391 0.0
O142 O 0.30641 0.11287 0.58913 0.0
In143 In 0.86828 0.30399 0.48702 0.0
O144 O 0.8499 0.33434 0.54115 0.0
O145 O 0.87141 0.30383 0.57746 0.0
C146 C 0.85859 0.32479 0.39074 0.0
C147 C 0.92009 0.30636 0.48666 0.0
C148 C 0.83708 0.26225 0.48811 0.0
O149 O 0.85079 0.33511 0.43371 0.0
O150 O 0.87117 0.30404 0.39651 0.0
O151 O 0.86148 0.26018 0.48856 0.0
O152 O 0.82874 0.28516 0.48665 0.0
C153 C 0.85804 0.32405 0.58382 0.0
O154 O 0.90804 0.28508 0.4851 0.0
O155 O 0.90594 0.32629 0.48844 0.0
In156 In 0.68809 0.12054 0.50763 0.0
O157 O 0.71233 0.08394 0.50708 0.0
O158 O 0.67095 0.08038 0.50861 0.0
C159 C 0.72239 0.15942 0.50436 0.0
C160 C 0.67066 0.12492 0.40578 0.0
C161 C 0.67219 0.12561 0.61065 0.0
O162 O 0.72948 0.13597 0.50516 0.0
O163 O 0.69817 0.16301 0.50556 0.0
O164 O 0.65751 0.13171 0.5718 0.0
O165 O 0.69419 0.11715 0.597 0.0
C166 C 0.69277 0.06911 0.50772 0.0
O167 O 0.65702 0.13244 0.44534 0.0
O168 O 0.69232 0.11532 0.41821 0.0
In169 In 0.86412 0.68052 0.4992 0.0
O170 O 0.84959 0.64679 0.44748 0.0
O171 O 0.86998 0.67749 0.40921 0.0
C172 C 0.85084 0.66683 0.6001 0.0
C173 C 0.91597 0.68549 0.50696 0.0
C174 C 0.82737 0.71653 0.48373 0.0
O175 O 0.8567 0.65005 0.56519 0.0
O176 O 0.852 0.68994 0.58429 0.0
O177 O 0.85088 0.72264 0.49133 0.0
O178 O 0.82284 0.69251 0.48321 0.0
C179 C 0.85805 0.65634 0.40406 0.0
O180 O 0.90136 0.70474 0.49871 0.0
O181 O 0.90433 0.66414 0.51182 0.0
In182 In 0.29075 0.86417 0.50314 0.0
O183 O 0.32344 0.84685 0.45144 0.0
O184 O 0.29262 0.86662 0.41229 0.0
C185 C 0.30694 0.86073 0.60606 0.0
C186 C 0.28961 0.91583 0.4964 0.0
C187 C 0.25157 0.82964 0.50208 0.0
O188 O 0.32048 0.85226 0.56743 0.0
O189 O 0.28554 0.87054 0.59252 0.0
O190 O 0.24762 0.85371 0.49868 0.0
O191 O 0.27511 0.82321 0.5058 0.0
C192 C 0.3137 0.85444 0.4076 0.0
O193 O 0.26915 0.90232 0.49514 0.0
O194 O 0.31047 0.90318 0.50101 0.0
In195 In 0.12489 0.29875 0.50106 0.0
O196 O 0.08874 0.27383 0.493 0.0
O197 O 0.08456 0.31497 0.49746 0.0
C198 C 0.16427 0.26476 0.50193 0.0
C199 C 0.13259 0.32152 0.4054 0.0
C200 C 0.12546 0.31505 0.60343 0.0
O201 O 0.14095 0.25759 0.49717 0.0
O202 O 0.16749 0.28887 0.5061 0.0
O203 O 0.13324 0.3293 0.56532 0.0
O204 O 0.11774 0.29288 0.58961 0.0
C205 C 0.07364 0.29318 0.49337 0.0
O206 O 0.13856 0.33265 0.44889 0.0
O207 O 0.12305 0.29919 0.4106 0.0
H208 H 0.15441 0.53719 0.01464 0.0
H209 H 0.238 0.53848 0.00416 0.0
H210 H 0.23899 0.49111 0.00404 0.0
H211 H 0.2159 0.44941 0.00568 0.0
H212 H 0.13225 0.4487 0.01553 0.0
H213 H 0.13151 0.49587 0.01731 0.0
C214 C 0.17286 0.52711 0.01238 0.0
C215 C 0.19608 0.54122 0.00931 0.0
C216 C 0.17327 0.50003 0.01225 0.0
C217 C 0.21985 0.52796 0.00649 0.0
C218 C 0.22043 0.50092 0.00643 0.0
C219 C 0.19754 0.45962 0.00839 0.0
C220 C 0.17418 0.44565 0.01041 0.0
C221 C 0.19724 0.48677 0.00914 0.0
C222 C 0.15051 0.45905 0.01385 0.0
C223 C 0.15005 0.48601 0.01484 0.0
H224 H 0.45041 0.15539 0.00535 0.0
H225 H 0.44547 0.23876 0.01098 0.0
H226 H 0.49274 0.24178 0.01321 0.0
H227 H 0.53538 0.22074 0.01243 0.0
H228 H 0.54031 0.13737 0.00692 0.0
H229 H 0.49303 0.13433 0.00583 0.0
C230 C 0.45969 0.17421 0.00714 0.0
C231 C 0.44455 0.19681 0.00789 0.0
C232 C 0.48681 0.1758 0.00838 0.0
C233 C 0.45677 0.22108 0.01032 0.0
C234 C 0.48377 0.22283 0.01157 0.0
C235 C 0.52609 0.20192 0.01105 0.0
C236 C 0.54124 0.17933 0.00964 0.0
C237 C 0.49897 0.20032 0.01043 0.0
C238 C 0.52901 0.15505 0.00799 0.0
C239 C 0.50201 0.15329 0.00734 0.0
H240 H 0.76939 0.44682 0.99474 0.0
H241 H 0.85244 0.44215 0.97333 0.0
H242 H 0.85554 0.48913 0.97395 0.0
H243 H 0.83509 0.53141 0.98233 0.0
H244 H 0.75223 0.5371 0.00439 0.0
H245 H 0.7486 0.48983 0.00165 0.0
C246 C 0.78811 0.45615 0.99004 0.0
C247 C 0.81064 0.44106 0.98414 0.0
C248 C 0.78981 0.48329 0.99065 0.0
C249 C 0.8348 0.45334 0.97809 0.0
C250 C 0.83662 0.48021 0.97843 0.0
C251 C 0.81621 0.52233 0.98645 0.0
C252 C 0.79398 0.53764 0.99369 0.0
C253 C 0.81431 0.49534 0.985 0.0
C254 C 0.76964 0.52564 0.99883 0.0
C255 C 0.76756 0.49866 0.9973 0.0
H256 H 0.53599 0.83788 0.01126 0.0
H257 H 0.5393 0.75447 0.0176 0.0
H258 H 0.49185 0.7524 0.01798 0.0
H259 H 0.44945 0.77443 0.01496 0.0
H260 H 0.44671 0.85791 0.00839 0.0
H261 H 0.49397 0.85979 0.00975 0.0
C262 C 0.52635 0.81923 0.01283 0.0
C263 C 0.54109 0.79636 0.01428 0.0
C264 C 0.49918 0.81821 0.01295 0.0
C265 C 0.52834 0.77235 0.01642 0.0
C266 C 0.50123 0.77116 0.0166 0.0
C267 C 0.45922 0.79302 0.01396 0.0
C268 C 0.44462 0.81598 0.01147 0.0
C269 C 0.48646 0.79397 0.01464 0.0
C270 C 0.45751 0.83994 0.01025 0.0
C271 C 0.48454 0.84105 0.011 0.0
H272 H 0.65367 0.03426 0.50916 0.0
H273 H 0.73716 0.04033 0.50406 0.0
H274 H 0.74086 -0.00684 0.50166 0.0
H275 H 0.72028 0.95025 0.50116 0.0
H276 H 0.63676 0.94447 0.50683 0.0
H277 H 0.63317 0.99157 0.50872 0.0
C278 C 0.67268 0.02526 0.50756 0.0
C279 C 0.6951 0.04069 0.50681 0.0
C280 C 0.67465 -0.00177 0.5062 0.0
C281 C 0.71961 0.02881 0.50472 0.0
C282 C 0.72174 0.00187 0.5033 0.0
C283 C 0.70131 0.95933 0.50269 0.0
C284 C 0.67883 0.94396 0.50381 0.0
C285 C 0.69938 0.9864 0.504 0.0
C286 C 0.65436 0.95592 0.50594 0.0
C287 C 0.65228 0.98283 0.50705 0.0
H288 H 0.94987 0.64601 0.5175 0.0
H289 H 0.94614 0.72903 0.50034 0.0
H290 H 0.99362 0.73136 0.50083 0.0
H291 H 0.03623 0.70947 0.50455 0.0
H292 H 0.03912 0.62628 0.52013 0.0
H293 H 0.99189 0.62437 0.5218 0.0
C294 C 0.95942 0.66465 0.51407 0.0
C295 C 0.94455 0.68731 0.50893 0.0
C296 C 0.98657 0.66579 0.51393 0.0
C297 C 0.9572 0.7113 0.50437 0.0
C298 C 0.98432 0.71263 0.50459 0.0
C299 C 0.02648 0.69096 0.50841 0.0
C300 C 0.04115 0.66806 0.51215 0.0
C301 C -0.00078 0.68997 0.50908 0.0
C302 C 0.02829 0.64419 0.51707 0.0
C303 C 0.00127 0.64306 0.51807 0.0
H304 H 0.27029 0.03612 0.48829 0.0
H305 H 0.35396 0.03649 0.4961 0.0
H306 H 0.35444 0.98919 0.49654 0.0
H307 H 0.33105 0.94791 0.49673 0.0
H308 H 0.24738 0.9475 0.48942 0.0
H309 H 0.24693 -0.00521 0.48668 0.0
C310 C 0.28864 0.02584 0.48991 0.0
C311 C 0.31205 0.03971 0.49228 0.0
C312 C 0.28875 -0.00128 0.49036 0.0
C313 C 0.33568 0.02619 0.49431 0.0
C314 C 0.33597 -0.00082 0.49461 0.0
C315 C 0.31272 0.95817 0.49443 0.0
C316 C 0.28928 0.9443 0.49343 0.0
C317 C 0.31262 0.98528 0.49298 0.0
C318 C 0.26568 0.9578 0.49031 0.0
C319 C 0.26541 0.98481 0.48876 0.0
H320 H 0.03904 0.3322 0.4927 0.0
H321 H 0.04473 0.24889 0.48681 0.0
H322 H -0.00264 0.24556 0.48348 0.0
H323 H 0.95445 0.26653 0.48369 0.0
H324 H 0.94946 0.34993 0.49005 0.0
H325 H -0.00336 0.35301 0.49174 0.0
C326 C 0.02994 0.31329 0.49059 0.0
C327 C 0.04525 0.29082 0.4901 0.0
C328 C 0.0029 0.31156 0.48886 0.0
C329 C 0.03325 0.26646 0.48727 0.0
C330 C 0.00623 0.26456 0.48541 0.0
C331 C 0.96373 0.28536 0.48536 0.0
C332 C 0.94857 0.30796 0.48685 0.0
C333 C 0.99087 0.287 0.48642 0.0
C334 C 0.96076 0.33225 0.48895 0.0
C335 C 0.9877 0.33404 0.48992 0.0
H336 H 0.26278 0.33335 0.00972 0.0
H337 H 0.20168 0.27754 0.98454 0.0
H338 H 0.23333 0.24253 0.98369 0.0
H339 H 0.27815 0.22762 0.99043 0.0
H340 H 0.33968 0.28286 0.01556 0.0
H341 H 0.30808 0.31824 0.01617 0.0
C342 C 0.25646 0.31353 0.004 0.0
C343 C 0.22996 0.30805 0.99725 0.0
C344 C 0.27479 0.29339 0.00362 0.0
C345 C 0.22199 0.28228 0.98988 0.0
C346 C 0.24006 0.26222 0.98939 0.0
C347 C 0.28466 0.2474 0.99607 0.0
C348 C 0.31115 0.25265 0.00299 0.0
C349 C 0.26647 0.26754 0.99631 0.0
C350 C 0.31933 0.27836 0.01017 0.0
C351 C 0.30129 0.29858 0.01051 0.0
H352 H 0.71913 0.32846 0.99413 0.0
H353 H 0.78169 0.27281 0.9967 0.0
H354 H 0.75067 0.23747 0.00133 0.0
H355 H 0.7061 0.22212 0.0044 0.0
H356 H 0.6428 0.27676 0.00179 0.0
H357 H 0.67375 0.31272 0.9975 0.0
C358 C 0.72589 0.30859 0.99569 0.0
C359 C 0.75266 0.3033 0.99502 0.0
C360 C 0.70786 0.28818 0.99837 0.0
C361 C 0.76119 0.27746 0.99712 0.0
C362 C 0.74348 0.25718 0.99979 0.0
C363 C 0.69903 0.24189 0.00293 0.0
C364 C 0.67225 0.2468 0.0034 0.0
C365 C 0.71682 0.26231 1.00041 0.0
C366 C 0.66339 0.27252 0.00148 0.0
C367 C 0.68106 0.29306 0.99901 0.0
H368 H 0.76385 0.70216 0.01444 0.0
H369 H 0.71011 0.63816 0.01451 0.0
H370 H 0.67353 0.6684 0.0158 0.0
H371 H 0.65692 0.71324 0.01489 0.0
H372 H 0.71128 0.7768 0.0135 0.0
H373 H 0.74749 0.7465 0.01477 0.0
C374 C 0.74414 0.6948 0.01495 0.0
C375 C 0.73967 0.668 0.01433 0.0
C376 C 0.72331 0.71223 0.0153 0.0
C377 C 0.71403 0.65875 0.01494 0.0
C378 C 0.69312 0.67602 0.01563 0.0
C379 C 0.6767 0.7204 0.01501 0.0
C380 C 0.68141 0.7472 0.01398 0.0
C381 C 0.69753 0.70283 0.01549 0.0
C382 C 0.70712 0.75625 0.01414 0.0
C383 C 0.72787 0.73895 0.01489 0.0
H384 H 0.22835 0.70712 1.00039 0.0
H385 H 0.28516 0.64611 0.01365 0.0
H386 H 0.32015 0.67825 0.01322 0.0
H387 H 0.33437 0.72397 0.00939 0.0
H388 H 0.27665 0.78426 0.99596 0.0
H389 H 0.24225 0.75206 0.99613 0.0
C390 C 0.24839 0.70081 0.00319 0.0
C391 C 0.2542 0.67434 0.0071 0.0
C392 C 0.26823 0.71927 0.00289 0.0
C393 C 0.28024 0.66645 0.01061 0.0
C394 C 0.30021 0.68479 0.01038 0.0
C395 C 0.31426 0.72998 0.00648 0.0
C396 C 0.30808 0.75644 0.00271 0.0
C397 C 0.29443 0.7113 0.00658 0.0
C398 C 0.28195 0.76401 0.99892 0.0
C399 C 0.26222 0.74562 0.99902 0.0
H400 H 0.83064 0.76914 0.49232 0.0
H401 H 0.77645 0.7067 0.46619 0.0
H402 H 0.74047 0.73724 0.46655 0.0
H403 H 0.72408 0.78113 0.47831 0.0
H404 H 0.77745 0.84416 0.50413 0.0
H405 H 0.8141 0.81396 0.49974 0.0
C406 C 0.81097 0.76231 0.48624 0.0
C407 C 0.80622 0.7357 0.47952 0.0
C408 C 0.79023 0.78001 0.48677 0.0
C409 C 0.78064 0.72708 0.47164 0.0
C410 C 0.76002 0.74451 0.47193 0.0
C411 C 0.74373 0.7883 0.48287 0.0
C412 C 0.74808 0.81476 0.49197 0.0
C413 C 0.76455 0.77093 0.4802 0.0
C414 C 0.77365 0.82381 0.49724 0.0
C415 C 0.79457 0.80657 0.49478 0.0
H416 H 0.25671 0.77776 0.5074 0.0
H417 H 0.19915 0.83818 0.49696 0.0
H418 H 0.16452 0.80569 0.49794 0.0
H419 H 0.15076 0.75981 0.50201 0.0
H420 H 0.2092 0.70007 0.5121 0.0
H421 H 0.24328 0.73261 0.51106 0.0
C422 C 0.23659 0.78386 0.50532 0.0
C423 C 0.23048 0.8103 0.50214 0.0
C424 C 0.21693 0.76517 0.50588 0.0
C425 C 0.20433 0.81789 0.49941 0.0
C426 C 0.18454 0.79934 0.5 0.0
C427 C 0.17096 0.75399 0.50401 0.0
C428 C 0.17742 0.72758 0.50717 0.0
C429 C 0.19062 0.77288 0.50328 0.0
C430 C 0.20367 0.72027 0.50964 0.0
C431 C 0.22322 0.73886 0.50905 0.0
H432 H 0.26951 0.20325 0.50841 0.0
H433 H 0.21748 0.13839 0.49132 0.0
H434 H 0.18027 0.16786 0.4905 0.0
H435 H 0.1627 0.21223 0.49427 0.0
H436 H 0.21532 0.2767 0.51135 0.0
H437 H 0.25217 0.24715 0.51253 0.0
C438 C 0.25003 0.19554 0.50453 0.0
C439 C 0.2462 0.16874 0.49989 0.0
C440 C 0.22886 0.21252 0.50405 0.0
C441 C 0.22087 0.159 0.49493 0.0
C442 C 0.19962 0.17583 0.49445 0.0
C443 C 0.18224 0.21976 0.49825 0.0
C444 C 0.1863 0.24657 0.50266 0.0
C445 C 0.2034 0.20264 0.49891 0.0
C446 C 0.21169 0.25611 0.50785 0.0
C447 C 0.23279 0.23925 0.50854 0.0
H448 H 0.78487 0.26365 0.49122 0.0
H449 H 0.84971 0.21078 0.49018 0.0
H450 H 0.81984 0.17398 0.49526 0.0
H451 H 0.77513 0.15705 0.5004 0.0
H452 H 0.71079 0.21063 0.50185 0.0
H453 H 0.74072 0.24701 0.49632 0.0
C454 C 0.7925 0.24407 0.492 0.0
C455 C 0.8194 0.23988 0.49027 0.0
C456 C 0.77532 0.22318 0.49512 0.0
C457 C 0.82902 0.21444 0.49143 0.0
C458 C 0.81197 0.19343 0.49438 0.0
C459 C 0.76772 0.1767 0.49955 0.0
C460 C 0.74082 0.18116 0.50155 0.0
C461 C 0.78507 0.19759 0.49634 0.0
C462 C 0.73143 0.20669 0.50039 0.0
C463 C 0.74851 0.22751 0.49719 0.0
H464 H 0.11058 0.30709 0.31183 0.0
H465 H 0.16448 0.36184 0.37964 0.0
H466 H 0.1746 0.37824 0.28985 0.0
H467 H 0.17016 0.37492 0.19201 0.0
H468 H 0.11546 0.32092 0.12431 0.0
H469 H 0.10334 0.30641 0.21444 0.0
C470 C 0.12443 0.32272 0.30693 0.0
C471 C 0.13703 0.33308 0.35207 0.0
C472 C 0.12999 0.3321 0.25537 0.0
C473 C 0.15462 0.35355 0.34539 0.0
C474 C 0.16045 0.36286 0.29411 0.0
C475 C 0.15542 0.36012 0.19704 0.0
C476 C 0.14388 0.34878 0.15171 0.0
C477 C 0.14856 0.35197 0.24882 0.0
C478 C 0.12461 0.32989 0.15867 0.0
C479 C 0.11777 0.32152 0.21013 0.0
H480 H 0.63366 0.15686 0.36317 0.0
H481 H 0.69119 0.09986 0.31999 0.0
H482 H 0.68235 0.10695 0.22504 0.0
H483 H 0.66006 0.13121 0.15342 0.0
H484 H 0.60397 0.18963 0.19672 0.0
H485 H 0.61035 0.18012 0.29154 0.0
C486 C 0.64399 0.14579 0.33295 0.0
C487 C 0.66305 0.1279 0.34873 0.0
C488 C 0.63921 0.15036 0.27807 0.0
C489 C 0.67646 0.11385 0.30899 0.0
C490 C 0.67145 0.1179 0.25456 0.0
C491 C 0.64911 0.14168 0.18363 0.0
C492 C 0.63166 0.16115 0.16786 0.0
C493 C 0.65317 0.13641 0.23849 0.0
C494 C 0.61767 0.17463 0.20763 0.0
C495 C 0.62127 0.1692 0.26202 0.0
H496 H 0.87577 0.67313 0.30766 0.0
H497 H 0.82755 0.61457 0.38066 0.0
H498 H 0.81456 0.59924 0.29187 0.0
H499 H 0.81452 0.60456 0.19379 0.0
H500 H 0.86248 0.66341 0.12106 0.0
H501 H 0.87808 0.67646 0.20953 0.0
C502 C 0.86262 0.65683 0.30416 0.0
C503 C 0.8525 0.64511 0.3507 0.0
C504 C 0.85508 0.64829 0.25306 0.0
C505 C 0.83559 0.62394 0.34548 0.0
C506 C 0.82809 0.61524 0.29472 0.0
C507 C 0.82856 0.6201 0.19727 0.0
C508 C 0.83718 0.63314 0.15095 0.0
C509 C 0.83733 0.62759 0.24828 0.0
C510 C 0.85549 0.65312 0.15608 0.0
C511 C 0.86437 0.66062 0.20667 0.0
H512 H 0.30195 0.8774 0.31291 0.0
H513 H 0.35199 0.81975 0.38331 0.0
H514 H 0.36942 0.80919 0.29455 0.0
H515 H 0.3688 0.81489 0.19662 0.0
H516 H 0.31958 0.87329 0.12638 0.0
H517 H 0.30361 0.88523 0.21556 0.0
C518 C 0.31676 0.86259 0.30883 0.0
C519 C 0.32551 0.84918 0.35453 0.0
C520 C 0.32681 0.85679 0.25778 0.0
C521 C 0.34491 0.83029 0.34874 0.0
C522 C 0.35483 0.82422 0.298 0.0
C523 C 0.35472 0.83038 0.20086 0.0
C524 C 0.34524 0.84308 0.15492 0.0
C525 C 0.34569 0.83714 0.2522 0.0
C526 C 0.32718 0.86323 0.16109 0.0
C527 C 0.31797 0.86998 0.21205 0.0
H528 H 0.1155 0.66802 0.70179 0.0
H529 H 0.16585 0.61061 0.63102 0.0
H530 H 0.18179 0.59863 0.71997 0.0
H531 H 0.18322 0.60638 0.81729 0.0
H532 H 0.13204 0.66311 0.88792 0.0
H533 H 0.11452 0.67344 0.79949 0.0
C534 C 0.12981 0.65274 0.70591 0.0
C535 C 0.13967 0.64035 0.66003 0.0
C536 C 0.13882 0.64597 0.75704 0.0
C537 C 0.158 0.62042 0.66586 0.0
C538 C 0.16719 0.61365 0.71663 0.0
C539 C 0.16815 0.62091 0.81327 0.0
C540 C 0.1591 0.63417 0.85885 0.0
C541 C 0.15805 0.6266 0.7624 0.0
C542 C 0.13935 0.65271 0.85331 0.0
C543 C 0.12937 0.65866 0.8028 0.0
H544 H 0.35781 0.16279 0.64505 0.0
H545 H 0.30813 0.09896 0.68863 0.0
H546 H 0.31552 0.10768 0.78358 0.0
H547 H 0.33418 0.13497 0.85471 0.0
H548 H 0.38234 0.19995 0.81097 0.0
H549 H 0.37754 0.18927 0.71621 0.0
C550 C 0.34887 0.15064 0.67537 0.0
C551 C 0.33244 0.1303 0.65979 0.0
C552 C 0.35277 0.15609 0.73009 0.0
C553 C 0.32081 0.11482 0.69956 0.0
C554 C 0.32499 0.1198 0.75393 0.0
C555 C 0.34376 0.14665 0.82442 0.0
C556 C 0.35851 0.16825 0.83993 0.0
C557 C 0.34062 0.14063 0.76974 0.0
C558 C 0.37075 0.18327 0.80016 0.0
C559 C 0.36805 0.17718 0.74587 0.0
H560 H 0.81125 0.36994 0.79635 0.0
H561 H 0.86931 0.31984 0.86536 0.0
H562 H 0.88436 0.30784 0.77572 0.0
H563 H 0.87936 0.30986 0.67812 0.0
H564 H 0.82183 0.36053 0.60899 0.0
H565 H 0.80829 0.37427 0.69861 0.0
C566 C 0.82727 0.35649 0.79169 0.0
C567 C 0.83901 0.34556 0.8371 0.0
C568 C 0.83584 0.34979 0.74022 0.0
C569 C 0.85995 0.32842 0.83079 0.0
C570 C 0.86851 0.32152 0.77965 0.0
C571 C 0.86397 0.32403 0.68272 0.0
C572 C 0.85141 0.33401 0.63731 0.0
C573 C 0.85635 0.33182 0.73415 0.0
C574 C 0.83171 0.35256 0.64356 0.0
C575 C 0.82392 0.36035 0.6947 0.0
H576 H 0.65854 0.85202 0.86126 0.0
H577 H 0.60231 0.79369 0.81932 0.0
H578 H 0.60983 0.80195 0.7241 0.0
H579 H 0.63387 0.8244 0.65234 0.0
H580 H 0.69175 0.88108 0.69455 0.0
H581 H 0.68213 0.87488 0.78956 0.0
C582 C 0.64777 0.84133 0.83123 0.0
C583 C 0.62989 0.82231 0.8473 0.0
C584 C 0.65262 0.84577 0.77642 0.0
C585 C 0.61624 0.80841 0.80796 0.0
C586 C 0.62054 0.8131 0.75346 0.0
C587 C 0.64423 0.83548 0.68237 0.0
C588 C 0.66351 0.85312 0.66639 0.0
C589 C 0.63891 0.8315 0.73716 0.0
C590 C 0.67689 0.86727 0.70578 0.0
C591 C 0.67139 0.86377 0.76018 0.0
H592 H 0.87287 0.63403 0.67263 0.0
H593 H 0.80867 0.68627 0.64912 0.0
H594 H 0.79344 0.67813 0.74049 0.0
H595 H 0.79879 0.65692 0.82749 0.0
H596 H 0.86508 0.60787 0.85547 0.0
H597 H 0.87934 0.61411 0.76239 0.0
C598 C 0.85545 0.64336 0.68767 0.0
C599 C 0.84164 0.66043 0.65441 0.0
C600 C 0.84739 0.63937 0.74108 0.0
C601 C 0.81944 0.67295 0.67424 0.0
C602 C 0.81078 0.66835 0.7264 0.0
C603 C 0.81637 0.6476 0.81317 0.0
C604 C 0.83082 0.63188 0.84802 0.0
C605 C 0.82468 0.65175 0.76026 0.0
C606 C 0.85371 0.62016 0.82928 0.0
C607 C 0.86178 0.62363 0.77606 0.0
H608 H 0.34783 0.83415 0.6483 0.0
H609 H 0.28393 0.88396 0.69168 0.0
H610 H 0.29553 0.8804 0.78621 0.0
H611 H 0.32248 0.8613 0.85741 0.0
H612 H 0.38501 0.80976 0.8144 0.0
H613 H 0.37553 0.81601 0.71936 0.0
C614 C 0.33658 0.84434 0.67845 0.0
C615 C 0.31501 0.8592 0.66295 0.0
C616 C 0.34312 0.8419 0.733 0.0
C617 C 0.30056 0.87226 0.70253 0.0
C618 C 0.30719 0.87027 0.75667 0.0
C619 C 0.33421 0.85173 0.82716 0.0
C620 C 0.35441 0.83512 0.8429 0.0
C621 C 0.32825 0.85491 0.77249 0.0
C622 C 0.3693 0.82262 0.80329 0.0
C623 C 0.36387 0.82613 0.7489 0.0
H624 H 0.15074 0.35614 0.64687 0.0
H625 H 0.10145 0.29151 0.68737 0.0
H626 H 0.1048 0.3022 0.78243 0.0
H627 H 0.12446 0.32788 0.85463 0.0
H628 H 0.17593 0.3908 0.81437 0.0
H629 H 0.16879 0.38306 0.71893 0.0
C630 C 0.14053 0.3446 0.67652 0.0
C631 C 0.12602 0.32301 0.66024 0.0
C632 C 0.14298 0.35051 0.73125 0.0
C633 C 0.11293 0.30814 0.69901 0.0
C634 C 0.1148 0.31423 0.75338 0.0
C635 C 0.13376 0.34011 0.8249 0.0
C636 C 0.15071 0.3598 0.84135 0.0
C637 C 0.13016 0.33508 0.77006 0.0
C638 C 0.16287 0.37541 0.80254 0.0
C639 C 0.15884 0.37098 0.74798 0.0
H640 H 0.66347 0.13351 0.86342 0.0
H641 H 0.60007 0.18399 0.82095 0.0
H642 H 0.60675 0.17441 0.72616 0.0
H643 H 0.63217 0.15354 0.65419 0.0
H644 H 0.69681 0.10463 0.69645 0.0
H645 H 0.68805 0.11157 0.79153 0.0
C646 C 0.65098 0.14217 0.83341 0.0
C647 C 0.63136 0.15947 0.84936 0.0
C648 C 0.65523 0.13696 0.77854 0.0
C649 C 0.61543 0.17069 0.80986 0.0
C650 C 0.61922 0.16523 0.7555 0.0
C651 C 0.64414 0.14422 0.68425 0.0
C652 C 0.66512 0.12865 0.66811 0.0
C653 C 0.63929 0.14868 0.7392 0.0
C654 C 0.68058 0.11683 0.70766 0.0
C655 C 0.6756 0.12078 0.76219 0.0
H656 H 0.88055 0.31134 0.29643 0.0
H657 H 0.82326 0.36218 0.36638 0.0
H658 H 0.81063 0.37703 0.27707 0.0
H659 H 0.81386 0.37315 0.17927 0.0
H660 H 0.8715 0.32266 0.10943 0.0
H661 H 0.88626 0.31021 0.19886 0.0
C662 C 0.86541 0.32579 0.29206 0.0
C663 C 0.8526 0.33545 0.33759 0.0
C664 C 0.85832 0.33422 0.24081 0.0
C665 C 0.8333 0.35442 0.3317 0.0
C666 C 0.82604 0.36285 0.28074 0.0
C667 C 0.82979 0.35959 0.18369 0.0
C668 C 0.84141 0.34858 0.1381 0.0
C669 C 0.8381 0.35252 0.23505 0.0
C670 C 0.86223 0.33129 0.14412 0.0
C671 C 0.8706 0.32411 0.19515 0.0
H672 H 0.61272 0.80618 0.20062 0.0
H673 H 0.65931 0.86607 0.12785 0.0
H674 H 0.67225 0.88139 0.21674 0.0
H675 H 0.67248 0.87592 0.3148 0.0
H676 H 0.62531 0.81645 0.38751 0.0
H677 H 0.61026 0.80288 0.29887 0.0
C678 C 0.62555 0.82272 0.20422 0.0
C679 C 0.63524 0.83484 0.15773 0.0
C680 C 0.63286 0.8314 0.25538 0.0
C681 C 0.65162 0.8564 0.16301 0.0
C682 C 0.65909 0.86509 0.21382 0.0
C683 C 0.65875 0.86011 0.31126 0.0
C684 C 0.65019 0.84704 0.35761 0.0
C685 C 0.65017 0.85246 0.26022 0.0
C686 C 0.63221 0.82678 0.35246 0.0
C687 C 0.62367 0.81897 0.30178 0.0
H688 H 0.11508 0.6682 0.3152 0.0
H689 H 0.16479 0.61012 0.38514 0.0
H690 H 0.181 0.59849 0.29608 0.0
H691 H 0.18293 0.60675 0.199 0.0
H692 H 0.13245 0.66416 0.12906 0.0
H693 H 0.11459 0.67416 0.21758 0.0
C694 C 0.12929 0.65284 0.31087 0.0
C695 C 0.13889 0.64017 0.35658 0.0
C696 C 0.1385 0.6463 0.25968 0.0
C697 C 0.15712 0.62015 0.35046 0.0
C698 C 0.16648 0.61359 0.29962 0.0
C699 C 0.16795 0.62138 0.2032 0.0
C700 C 0.1592 0.63491 0.15782 0.0
C701 C 0.15764 0.62685 0.25408 0.0
C702 C 0.13955 0.65356 0.16354 0.0
C703 C 0.12936 0.6593 0.21409 0.0
H704 H 0.31334 0.11488 0.30651 0.0
H705 H 0.36945 0.16618 0.37818 0.0
H706 H 0.38235 0.18151 0.2891 0.0
H707 H 0.37604 0.18192 0.19128 0.0
H708 H 0.32053 0.12999 0.11955 0.0
H709 H 0.30907 0.11322 0.20834 0.0
C710 C 0.32852 0.1293 0.30263 0.0
C711 C 0.34031 0.13953 0.34893 0.0
C712 C 0.33584 0.13797 0.25135 0.0
C713 C 0.36008 0.15802 0.34321 0.0
C714 C 0.36739 0.16685 0.2923 0.0
C715 C 0.36152 0.16683 0.19506 0.0
C716 C 0.34898 0.15735 0.14893 0.0
C717 C 0.35514 0.15722 0.24616 0.0
C718 C 0.33042 0.13763 0.15441 0.0
C719 C 0.32383 0.12808 0.20517 0.0
loop_
_geom_bond_atom_site_label_1
_geom_bond_atom_site_label_2
_geom_bond_distance
_geom_bond_site_symmetry_2
_ccdc_geom_bond_type
In0 O1 2.294 . S
In0 O2 2.326 . S
In0 O6 2.266 1_554 S
In0 O7 2.326 1_554 S
In0 O8 2.266 1_554 S
In0 O9 2.326 1_554 S
In0 O11 2.294 . S
In0 O12 2.326 . S
O1 In0 2.294 . S
O1 C10 1.240 . S
O2 In0 2.326 . S
O2 C10 1.252 . S
C3 O6 1.252 . S
C3 O7 1.260 . S
C4 O11 1.240 . S
C4 O12 1.252 . S
C5 O8 1.252 . S
C5 O9 1.260 . S
O6 In0 2.266 1_556 S
O6 C3 1.252 . S
O7 In0 2.326 1_556 S
O7 C3 1.260 . S
O8 In0 2.266 1_556 S
O8 C5 1.252 . S
O9 In0 2.326 1_556 S
O9 C5 1.260 . S
C10 O1 1.240 . S
C10 O2 1.252 . S
O11 In0 2.294 . S
O11 C4 1.240 . S
O12 In0 2.326 . S
O12 C4 1.252 . S
In13 O14 2.294 . S
In13 O15 2.326 . S
In13 O19 2.266 1_554 S
In13 O20 2.326 1_554 S
In13 O21 2.266 1_554 S
In13 O22 2.326 1_554 S
In13 O24 2.294 . S
In13 O25 2.326 . S
O14 In13 2.294 . S
O14 C23 1.240 . S
O15 In13 2.326 . S
O15 C23 1.252 . S
C16 O19 1.252 . S
C16 O20 1.260 . S
C17 O24 1.240 . S
C17 O25 1.252 . S
C18 O21 1.252 . S
C18 O22 1.260 . S
O19 In13 2.266 1_556 S
O19 C16 1.252 . S
O20 In13 2.326 1_556 S
O20 C16 1.260 . S
O21 In13 2.266 1_556 S
O21 C18 1.252 . S
O22 In13 2.326 1_556 S
O22 C18 1.260 . S
C23 O14 1.240 . S
C23 O15 1.252 . S
O24 In13 2.294 . S
O24 C17 1.240 . S
O25 In13 2.326 . S
O25 C17 1.252 . S
In26 O27 2.294 . S
In26 O28 2.326 . S
In26 O32 2.266 1_554 S
In26 O33 2.326 1_554 S
In26 O34 2.266 1_554 S
In26 O35 2.326 1_554 S
In26 O37 2.294 . S
In26 O38 2.326 . S
O27 In26 2.294 . S
O27 C36 1.240 . S
O28 In26 2.326 . S
O28 C36 1.252 . S
C29 O32 1.252 . S
C29 O33 1.260 . S
C30 O37 1.240 . S
C30 O38 1.252 . S
C31 O34 1.252 . S
C31 O35 1.260 . S
O32 In26 2.266 1_556 S
O32 C29 1.252 . S
O33 In26 2.326 1_556 S
O33 C29 1.260 . S
O34 In26 2.266 1_556 S
O34 C31 1.252 . S
O35 In26 2.326 1_556 S
O35 C31 1.260 . S
C36 O27 1.240 . S
C36 O28 1.252 . S
O37 In26 2.294 . S
O37 C30 1.240 . S
O38 In26 2.326 . S
O38 C30 1.252 . S
In39 O40 2.294 . S
In39 O41 2.326 . S
In39 O45 2.266 1_554 S
In39 O46 2.326 1_554 S
In39 O47 2.266 1_554 S
In39 O48 2.326 1_554 S
In39 O50 2.294 . S
In39 O51 2.326 . S
O40 In39 2.294 . S
O40 C49 1.240 . S
O41 In39 2.326 . S
O41 C49 1.252 . S
C42 O45 1.252 . S
C42 O46 1.260 . S
C43 O50 1.240 . S
C43 O51 1.252 . S
C44 O47 1.252 . S
C44 O48 1.260 . S
O45 In39 2.266 1_556 S
O45 C42 1.252 . S
O46 In39 2.326 1_556 S
O46 C42 1.260 . S
O47 In39 2.266 1_556 S
O47 C44 1.252 . S
O48 In39 2.326 1_556 S
O48 C44 1.260 . S
C49 O40 1.240 . S
C49 O41 1.252 . S
O50 In39 2.294 . S
O50 C43 1.240 . S
O51 In39 2.326 . S
O51 C43 1.252 . S
In52 O53 2.284 1_554 S
In52 O54 2.310 1_554 S
In52 O58 2.276 . S
In52 O59 2.341 . S
In52 O60 2.268 . S
In52 O61 2.327 . S
In52 O63 2.292 1_554 S
In52 O64 2.325 1_554 S
O53 In52 2.284 1_556 S
O53 C62 1.240 . S
O54 In52 2.310 1_556 S
O54 C62 1.252 . S
C55 O58 1.252 . S
C55 O59 1.260 . S
C56 O63 1.240 . S
C56 O64 1.252 . S
C57 O60 1.252 . S
C57 O61 1.260 . S
O58 In52 2.276 . S
O58 C55 1.252 . S
O59 In52 2.341 . S
O59 C55 1.260 . S
O60 In52 2.268 . S
O60 C57 1.252 . S
O61 In52 2.327 . S
O61 C57 1.260 . S
C62 O53 1.240 . S
C62 O54 1.252 . S
O63 In52 2.292 1_556 S
O63 C56 1.240 . S
O64 In52 2.325 1_556 S
O64 C56 1.252 . S
In65 O66 2.292 1_554 S
In65 O67 2.325 1_554 S
In65 O71 2.268 . S
In65 O72 2.327 . S
In65 O73 2.276 . S
In65 O74 2.341 . S
In65 O76 2.284 1_554 S
In65 O77 2.310 1_554 S
O66 In65 2.292 1_556 S
O66 C75 1.240 . S
O67 In65 2.325 1_556 S
O67 C75 1.252 . S
C68 O71 1.252 . S
C68 O72 1.260 . S
C69 O76 1.240 . S
C69 O77 1.252 . S
C70 O73 1.252 . S
C70 O74 1.260 . S
O71 In65 2.268 . S
O71 C68 1.252 . S
O72 In65 2.327 . S
O72 C68 1.260 . S
O73 In65 2.276 . S
O73 C70 1.252 . S
O74 In65 2.341 . S
O74 C70 1.260 . S
C75 O66 1.240 . S
C75 O67 1.252 . S
O76 In65 2.284 1_556 S
O76 C69 1.240 . S
O77 In65 2.310 1_556 S
O77 C69 1.252 . S
In78 O79 2.284 1_554 S
In78 O80 2.310 1_554 S
In78 O84 2.276 . S
In78 O85 2.341 . S
In78 O86 2.268 . S
In78 O87 2.327 . S
In78 O89 2.292 1_554 S
In78 O90 2.325 1_554 S
O79 In78 2.284 1_556 S
O79 C88 1.240 . S
O80 In78 2.310 1_556 S
O80 C88 1.252 . S
C81 O84 1.252 . S
C81 O85 1.260 . S
C82 O89 1.240 . S
C82 O90 1.252 . S
C83 O86 1.252 . S
C83 O87 1.260 . S
O84 In78 2.276 . S
O84 C81 1.252 . S
O85 In78 2.341 . S
O85 C81 1.260 . S
O86 In78 2.268 . S
O86 C83 1.252 . S
O87 In78 2.327 . S
O87 C83 1.260 . S
C88 O79 1.240 . S
C88 O80 1.252 . S
O89 In78 2.292 1_556 S
O89 C82 1.240 . S
O90 In78 2.325 1_556 S
O90 C82 1.252 . S
In91 O92 2.284 1_554 S
In91 O93 2.310 1_554 S
In91 O97 2.276 . S
In91 O98 2.341 . S
In91 O99 2.268 . S
In91 O100 2.327 . S
In91 O102 2.292 1_554 S
In91 O103 2.325 1_554 S
O92 In91 2.284 1_556 S
O92 C101 1.240 . S
O93 In91 2.310 1_556 S
O93 C101 1.252 . S
C94 O97 1.252 . S
C94 O98 1.260 . S
C95 O102 1.240 . S
C95 O103 1.252 . S
C96 O99 1.252 . S
C96 O100 1.260 . S
O97 In91 2.276 . S
O97 C94 1.252 . S
O98 In91 2.341 . S
O98 C94 1.260 . S
O99 In91 2.268 . S
O99 C96 1.252 . S
O100 In91 2.327 . S
O100 C96 1.260 . S
C101 O92 1.240 . S
C101 O93 1.252 . S
O102 In91 2.292 1_556 S
O102 C95 1.240 . S
O103 In91 2.325 1_556 S
O103 C95 1.252 . S
In104 O105 2.294 . S
In104 O106 2.326 . S
In104 O110 2.266 . S
In104 O111 2.326 . S
In104 O112 2.266 . S
In104 O113 2.326 . S
In104 O115 2.294 . S
In104 O116 2.326 . S
O105 In104 2.294 . S
O105 C114 1.240 . S
O106 In104 2.326 . S
O106 C114 1.252 . S
C107 O110 1.252 . S
C107 O111 1.260 . S
C108 O115 1.240 . S
C108 O116 1.252 . S
C109 O112 1.252 . S
C109 O113 1.260 . S
O110 In104 2.266 . S
O110 C107 1.252 . S
O111 In104 2.326 . S
O111 C107 1.260 . S
O112 In104 2.266 . S
O112 C109 1.252 . S
O113 In104 2.326 . S
O113 C109 1.260 . S
C114 O105 1.240 . S
C114 O106 1.252 . S
O115 In104 2.294 . S
O115 C108 1.240 . S
O116 In104 2.326 . S
O116 C108 1.252 . S
In117 O118 2.294 . S
In117 O119 2.326 . S
In117 O123 2.266 . S
In117 O124 2.326 . S
In117 O125 2.266 . S
In117 O126 2.326 . S
In117 O128 2.294 . S
In117 O129 2.326 . S
O118 In117 2.294 . S
O118 C127 1.240 . S
O119 In117 2.326 . S
O119 C127 1.252 . S
C120 O123 1.252 . S
C120 O124 1.260 . S
C121 O128 1.240 . S
C121 O129 1.252 . S
C122 O125 1.252 . S
C122 O126 1.260 . S
O123 In117 2.266 . S
O123 C120 1.252 . S
O124 In117 2.326 . S
O124 C120 1.260 . S
O125 In117 2.266 . S
O125 C122 1.252 . S
O126 In117 2.326 . S
O126 C122 1.260 . S
C127 O118 1.240 . S
C127 O119 1.252 . S
O128 In117 2.294 . S
O128 C121 1.240 . S
O129 In117 2.326 . S
O129 C121 1.252 . S
In130 O131 2.294 . S
In130 O132 2.326 . S
In130 O136 2.266 . S
In130 O137 2.326 . S
In130 O138 2.266 . S
In130 O139 2.326 . S
In130 O141 2.294 . S
In130 O142 2.326 . S
O131 In130 2.294 . S
O131 C140 1.240 . S
O132 In130 2.326 . S
O132 C140 1.252 . S
C133 O136 1.252 . S
C133 O137 1.260 . S
C134 O141 1.240 . S
C134 O142 1.252 . S
C135 O138 1.252 . S
C135 O139 1.260 . S
O136 In130 2.266 . S
O136 C133 1.252 . S
O137 In130 2.326 . S
O137 C133 1.260 . S
O138 In130 2.266 . S
O138 C135 1.252 . S
O139 In130 2.326 . S
O139 C135 1.260 . S
C140 O131 1.240 . S
C140 O132 1.252 . S
O141 In130 2.294 . S
O141 C134 1.240 . S
O142 In130 2.326 . S
O142 C134 1.252 . S
In143 O144 2.294 . S
In143 O145 2.326 . S
In143 O149 2.266 . S
In143 O150 2.326 . S
In143 O151 2.266 . S
In143 O152 2.326 . S
In143 O154 2.294 . S
In143 O155 2.326 . S
O144 In143 2.294 . S
O144 C153 1.240 . S
O145 In143 2.326 . S
O145 C153 1.252 . S
C146 O149 1.252 . S
C146 O150 1.260 . S
C147 O154 1.240 . S
C147 O155 1.252 . S
C148 O151 1.252 . S
C148 O152 1.260 . S
O149 In143 2.266 . S
O149 C146 1.252 . S
O150 In143 2.326 . S
O150 C146 1.260 . S
O151 In143 2.266 . S
O151 C148 1.252 . S
O152 In143 2.326 . S
O152 C148 1.260 . S
C153 O144 1.240 . S
C153 O145 1.252 . S
O154 In143 2.294 . S
O154 C147 1.240 . S
O155 In143 2.326 . S
O155 C147 1.252 . S
In156 O157 2.294 . S
In156 O158 2.326 . S
In156 O162 2.266 . S
In156 O163 2.326 . S
In156 O164 2.266 . S
In156 O165 2.326 . S
In156 O167 2.294 . S
In156 O168 2.326 . S
O157 In156 2.294 . S
O157 C166 1.240 . S
O158 In156 2.326 . S
O158 C166 1.252 . S
C159 O162 1.252 . S
C159 O163 1.260 . S
C160 O167 1.240 . S
C160 O168 1.252 . S
C161 O164 1.252 . S
C161 O165 1.260 . S
O162 In156 2.266 . S
O162 C159 1.252 . S
O163 In156 2.326 . S
O163 C159 1.260 . S
O164 In156 2.266 . S
O164 C161 1.252 . S
O165 In156 2.326 . S
O165 C161 1.260 . S
C166 O157 1.240 . S
C166 O158 1.252 . S
O167 In156 2.294 . S
O167 C160 1.240 . S
O168 In156 2.326 . S
O168 C160 1.252 . S
In169 O170 2.294 . S
In169 O171 2.326 . S
In169 O175 2.266 . S
In169 O176 2.326 . S
In169 O177 2.266 . S
In169 O178 2.326 . S
In169 O180 2.294 . S
In169 O181 2.326 . S
O170 In169 2.294 . S
O170 C179 1.240 . S
O171 In169 2.326 . S
O171 C179 1.252 . S
C172 O175 1.252 . S
C172 O176 1.260 . S
C173 O180 1.240 . S
C173 O181 1.252 . S
C174 O177 1.252 . S
C174 O178 1.260 . S
O175 In169 2.266 . S
O175 C172 1.252 . S
O176 In169 2.326 . S
O176 C172 1.260 . S
O177 In169 2.266 . S
O177 C174 1.252 . S
O178 In169 2.326 . S
O178 C174 1.260 . S
C179 O170 1.240 . S
C179 O171 1.252 . S
O180 In169 2.294 . S
O180 C173 1.240 . S
O181 In169 2.326 . S
O181 C173 1.252 . S
In182 O183 2.294 . S
In182 O184 2.326 . S
In182 O188 2.266 . S
In182 O189 2.326 . S
In182 O190 2.266 . S
In182 O191 2.326 . S
In182 O193 2.294 . S
In182 O194 2.326 . S
O183 In182 2.294 . S
O183 C192 1.240 . S
O184 In182 2.326 . S
O184 C192 1.252 . S
C185 O188 1.252 . S
C185 O189 1.260 . S
C186 O193 1.240 . S
C186 O194 1.252 . S
C187 O190 1.252 . S
C187 O191 1.260 . S
O188 In182 2.266 . S
O188 C185 1.252 . S
O189 In182 2.326 . S
O189 C185 1.260 . S
O190 In182 2.266 . S
O190 C187 1.252 . S
O191 In182 2.326 . S
O191 C187 1.260 . S
C192 O183 1.240 . S
C192 O184 1.252 . S
O193 In182 2.294 . S
O193 C186 1.240 . S
O194 In182 2.326 . S
O194 C186 1.252 . S
In195 O196 2.294 . S
In195 O197 2.326 . S
In195 O201 2.266 . S
In195 O202 2.326 . S
In195 O203 2.266 . S
In195 O204 2.326 . S
In195 O206 2.294 . S
In195 O207 2.326 . S
O196 In195 2.294 . S
O196 C205 1.240 . S
O197 In195 2.326 . S
O197 C205 1.252 . S
C198 O201 1.252 . S
C198 O202 1.260 . S
C199 O206 1.240 . S
C199 O207 1.252 . S
C200 O203 1.252 . S
C200 O204 1.260 . S
O201 In195 2.266 . S
O201 C198 1.252 . S
O202 In195 2.326 . S
O202 C198 1.260 . S
O203 In195 2.266 . S
O203 C200 1.252 . S
O204 In195 2.326 . S
O204 C200 1.260 . S
C205 O196 1.240 . S
C205 O197 1.252 . S
O206 In195 2.294 . S
O206 C199 1.240 . S
O207 In195 2.326 . S
O207 C199 1.252 . S
H208 C214 0.930 . S
H209 C217 0.930 . S
H210 C218 0.930 . S
H211 C219 0.930 . S
H212 C222 0.930 . S
H213 C223 0.930 . S
C214 H208 0.930 . S
C214 C215 1.355 1_554 S
C214 C216 1.415 . S
C215 C214 1.355 1_556 S
C215 C217 1.419 . S
C216 C214 1.415 . S
C216 C221 1.425 1_554 S
C216 C223 1.409 . S
C217 H209 0.930 . S
C217 C215 1.419 . S
C217 C218 1.362 . S
C218 H210 0.930 . S
C218 C217 1.362 . S
C218 C221 1.409 . S
C219 H211 0.930 . S
C219 C220 1.355 1_556 S
C219 C221 1.415 . S
C220 C219 1.355 1_554 S
C220 C222 1.419 . S
C221 C216 1.425 1_556 S
C221 C218 1.409 . S
C221 C219 1.415 . S
C222 H212 0.930 . S
C222 C220 1.419 . S
C222 C223 1.362 . S
C223 H213 0.930 . S
C223 C216 1.409 . S
C223 C222 1.362 . S
H224 C230 0.930 . S
H225 C233 0.930 . S
H226 C234 0.930 . S
H227 C235 0.930 . S
H228 C238 0.930 . S
H229 C239 0.930 . S
C230 H224 0.930 . S
C230 C231 1.355 . S
C230 C232 1.415 . S
C231 C230 1.355 . S
C231 C233 1.419 1_556 S
C232 C230 1.415 . S
C232 C237 1.425 1_556 S
C232 C239 1.409 . S
C233 H225 0.930 . S
C233 C231 1.419 1_554 S
C233 C234 1.362 . S
C234 H226 0.930 . S
C234 C233 1.362 . S
C234 C237 1.409 . S
C235 H227 0.930 . S
C235 C236 1.355 . S
C235 C237 1.415 . S
C236 C235 1.355 . S
C236 C238 1.419 1_554 S
C237 C232 1.425 1_554 S
C237 C234 1.409 . S
C237 C235 1.415 . S
C238 H228 0.930 . S
C238 C236 1.419 1_556 S
C238 C239 1.362 . S
C239 H229 0.930 . S
C239 C232 1.409 . S
C239 C238 1.362 . S
H240 C246 0.930 . S
H241 C249 0.930 . S
H242 C250 0.930 . S
H243 C251 0.930 . S
H244 C254 0.930 . S
H245 C255 0.930 . S
C246 H240 0.930 . S
C246 C247 1.355 1_554 S
C246 C248 1.415 . S
C247 C246 1.355 1_556 S
C247 C249 1.419 . S
C248 C246 1.415 . S
C248 C253 1.425 1_554 S
C248 C255 1.409 . S
C249 H241 0.930 . S
C249 C247 1.419 . S
C249 C250 1.362 . S
C250 H242 0.930 . S
C250 C249 1.362 . S
C250 C253 1.409 . S
C251 H243 0.930 . S
C251 C252 1.355 1_556 S
C251 C253 1.415 . S
C252 C251 1.355 1_554 S
C252 C254 1.419 . S
C253 C248 1.425 1_556 S
C253 C250 1.409 . S
C253 C251 1.415 . S
C254 H244 0.930 . S
C254 C252 1.419 . S
C254 C255 1.362 . S
C255 H245 0.930 . S
C255 C248 1.409 . S
C255 C254 1.362 . S
H256 C262 0.930 . S
H257 C265 0.930 . S
H258 C266 0.930 . S
H259 C267 0.930 . S
H260 C270 0.930 . S
H261 C271 0.930 . S
C262 H256 0.930 . S
C262 C263 1.355 1_554 S
C262 C264 1.415 . S
C263 C262 1.355 1_556 S
C263 C265 1.419 . S
C264 C262 1.415 . S
C264 C269 1.425 1_554 S
C264 C271 1.409 . S
C265 H257 0.930 . S
C265 C263 1.419 . S
C265 C266 1.362 . S
C266 H258 0.930 . S
C266 C265 1.362 . S
C266 C269 1.409 . S
C267 H259 0.930 . S
C267 C268 1.355 1_556 S
C267 C269 1.415 . S
C268 C267 1.355 1_554 S
C268 C270 1.419 . S
C269 C264 1.425 1_556 S
C269 C266 1.409 . S
C269 C267 1.415 . S
C270 H260 0.930 . S
C270 C268 1.419 . S
C270 C271 1.362 . S
C271 H261 0.930 . S
C271 C264 1.409 . S
C271 C270 1.362 . S
H272 C278 0.930 . S
H273 C281 0.930 . S
H274 C282 0.930 . S
H275 C283 0.930 . S
H276 C286 0.930 . S
H277 C287 0.930 . S
C278 H272 0.930 . S
C278 C279 1.355 . S
C278 C280 1.415 . S
C279 C278 1.355 . S
C279 C281 1.419 . S
C280 C278 1.415 . S
C280 C285 1.425 1_545 S
C280 C287 1.409 1_545 S
C281 H273 0.930 . S
C281 C279 1.419 . S
C281 C282 1.362 . S
C282 H274 0.930 . S
C282 C281 1.362 . S
C282 C285 1.409 1_545 S
C283 H275 0.930 . S
C283 C284 1.355 . S
C283 C285 1.415 . S
C284 C283 1.355 . S
C284 C286 1.419 . S
C285 C280 1.425 1_565 S
C285 C282 1.409 1_565 S
C285 C283 1.415 . S
C286 H276 0.930 . S
C286 C284 1.419 . S
C286 C287 1.362 . S
C287 H277 0.930 . S
C287 C280 1.409 1_565 S
C287 C286 1.362 . S
H288 C294 0.930 . S
H289 C297 0.930 . S
H290 C298 0.930 . S
H291 C299 0.930 . S
H292 C302 0.930 . S
H293 C303 0.930 . S
C294 H288 0.930 . S
C294 C295 1.355 . S
C294 C296 1.415 . S
C295 C294 1.355 . S
C295 C297 1.419 . S
C296 C294 1.415 . S
C296 C301 1.425 1_655 S
C296 C303 1.409 1_655 S
C297 H289 0.930 . S
C297 C295 1.419 . S
C297 C298 1.362 . S
C298 H290 0.930 . S
C298 C297 1.362 . S
C298 C301 1.409 1_655 S
C299 H291 0.930 . S
C299 C300 1.355 . S
C299 C301 1.415 . S
C300 C299 1.355 . S
C300 C302 1.419 . S
C301 C296 1.425 1_455 S
C301 C298 1.409 1_455 S
C301 C299 1.415 . S
C302 H292 0.930 . S
C302 C300 1.419 . S
C302 C303 1.362 . S
C303 H293 0.930 . S
C303 C296 1.409 1_455 S
C303 C302 1.362 . S
H304 C310 0.930 . S
H305 C313 0.930 . S
H306 C314 0.930 . S
H307 C315 0.930 . S
H308 C318 0.930 . S
H309 C319 0.930 . S
C310 H304 0.930 . S
C310 C311 1.355 . S
C310 C312 1.415 . S
C311 C310 1.355 . S
C311 C313 1.419 . S
C312 C310 1.415 . S
C312 C317 1.425 1_545 S
C312 C319 1.409 1_545 S
C313 H305 0.930 . S
C313 C311 1.419 . S
C313 C314 1.362 . S
C314 H306 0.930 . S
C314 C313 1.362 . S
C314 C317 1.409 1_545 S
C315 H307 0.930 . S
C315 C316 1.355 . S
C315 C317 1.415 . S
C316 C315 1.355 . S
C316 C318 1.419 . S
C317 C312 1.425 1_565 S
C317 C314 1.409 1_565 S
C317 C315 1.415 . S
C318 H308 0.930 . S
C318 C316 1.419 . S
C318 C319 1.362 . S
C319 H309 0.930 . S
C319 C312 1.409 1_565 S
C319 C318 1.362 . S
H320 C326 0.930 . S
H321 C329 0.930 . S
H322 C330 0.930 . S
H323 C331 0.930 . S
H324 C334 0.930 . S
H325 C335 0.930 . S
C326 H320 0.930 . S
C326 C327 1.355 . S
C326 C328 1.415 . S
C327 C326 1.355 . S
C327 C329 1.419 . S
C328 C326 1.415 . S
C328 C333 1.425 1_455 S
C328 C335 1.409 1_455 S
C329 H321 0.930 . S
C329 C327 1.419 . S
C329 C330 1.362 . S
C330 H322 0.930 . S
C330 C329 1.362 . S
C330 C333 1.409 1_455 S
C331 H323 0.930 . S
C331 C332 1.355 . S
C331 C333 1.415 . S
C332 C331 1.355 . S
C332 C334 1.419 . S
C333 C328 1.425 1_655 S
C333 C330 1.409 1_655 S
C333 C331 1.415 . S
C334 H324 0.930 . S
C334 C332 1.419 . S
C334 C335 1.362 . S
C335 H325 0.930 . S
C335 C328 1.409 1_655 S
C335 C334 1.362 . S
H336 C342 0.930 . S
H337 C345 0.930 . S
H338 C346 0.930 . S
H339 C347 0.930 . S
H340 C350 0.930 . S
H341 C351 0.930 . S
C342 H336 0.930 . S
C342 C343 1.355 1_554 S
C342 C344 1.415 . S
C343 C342 1.355 1_556 S
C343 C345 1.419 . S
C344 C342 1.415 . S
C344 C349 1.425 1_554 S
C344 C351 1.409 . S
C345 H337 0.930 . S
C345 C343 1.419 . S
C345 C346 1.362 . S
C346 H338 0.930 . S
C346 C345 1.362 . S
C346 C349 1.409 . S
C347 H339 0.930 . S
C347 C348 1.355 1_556 S
C347 C349 1.415 . S
C348 C347 1.355 1_554 S
C348 C350 1.419 . S
C349 C344 1.425 1_556 S
C349 C346 1.409 . S
C349 C347 1.415 . S
C350 H340 0.930 . S
C350 C348 1.419 . S
C350 C351 1.362 . S
C351 H341 0.930 . S
C351 C344 1.409 . S
C351 C350 1.362 . S
H352 C358 0.930 . S
H353 C361 0.930 . S
H354 C362 0.930 . S
H355 C363 0.930 . S
H356 C366 0.930 . S
H357 C367 0.930 . S
C358 H352 0.930 . S
C358 C359 1.355 . S
C358 C360 1.415 . S
C359 C358 1.355 . S
C359 C361 1.419 1_554 S
C360 C358 1.415 . S
C360 C365 1.425 1_554 S
C360 C367 1.409 . S
C361 H353 0.930 . S
C361 C359 1.419 1_556 S
C361 C362 1.362 . S
C362 H354 0.930 . S
C362 C361 1.362 . S
C362 C365 1.409 . S
C363 H355 0.930 . S
C363 C364 1.355 . S
C363 C365 1.415 . S
C364 C363 1.355 . S
C364 C366 1.419 1_556 S
C365 C360 1.425 1_556 S
C365 C362 1.409 . S
C365 C363 1.415 . S
C366 H356 0.930 . S
C366 C364 1.419 1_554 S
C366 C367 1.362 . S
C367 H357 0.930 . S
C367 C360 1.409 . S
C367 C366 1.362 . S
H368 C374 0.930 . S
H369 C377 0.930 . S
H370 C378 0.930 . S
H371 C379 0.930 . S
H372 C382 0.930 . S
H373 C383 0.930 . S
C374 H368 0.930 . S
C374 C375 1.355 1_554 S
C374 C376 1.415 . S
C375 C374 1.355 1_556 S
C375 C377 1.419 . S
C376 C374 1.415 . S
C376 C381 1.425 1_554 S
C376 C383 1.409 . S
C377 H369 0.930 . S
C377 C375 1.419 . S
C377 C378 1.362 . S
C378 H370 0.930 . S
C378 C377 1.362 . S
C378 C381 1.409 . S
C379 H371 0.930 . S
C379 C380 1.354 1_556 S
C379 C381 1.415 . S
C380 C379 1.354 1_554 S
C380 C382 1.419 . S
C381 C376 1.425 1_556 S
C381 C378 1.409 . S
C381 C379 1.415 . S
C382 H372 0.930 . S
C382 C380 1.419 . S
C382 C383 1.362 . S
C383 H373 0.930 . S
C383 C376 1.409 . S
C383 C382 1.362 . S
H384 C390 0.930 . S
H385 C393 0.930 . S
H386 C394 0.930 . S
H387 C395 0.930 . S
H388 C398 0.930 . S
H389 C399 0.930 . S
C390 H384 0.930 . S
C390 C391 1.355 . S
C390 C392 1.415 . S
C391 C390 1.355 . S
C391 C393 1.419 1_554 S
C392 C390 1.415 . S
C392 C397 1.425 1_554 S
C392 C399 1.409 . S
C393 H385 0.930 . S
C393 C391 1.419 1_556 S
C393 C394 1.362 . S
C394 H386 0.930 . S
C394 C393 1.362 . S
C394 C397 1.409 . S
C395 H387 0.930 . S
C395 C396 1.355 . S
C395 C397 1.415 . S
C396 C395 1.355 . S
C396 C398 1.419 1_556 S
C397 C392 1.425 1_556 S
C397 C394 1.409 . S
C397 C395 1.415 . S
C398 H388 0.930 . S
C398 C396 1.419 1_554 S
C398 C399 1.362 . S
C399 H389 0.930 . S
C399 C392 1.409 . S
C399 C398 1.362 . S
H400 C406 0.930 . S
H401 C409 0.930 . S
H402 C410 0.930 . S
H403 C411 0.930 . S
H404 C414 0.930 . S
H405 C415 0.930 . S
C406 H400 0.930 . S
C406 C407 1.355 . S
C406 C408 1.415 . S
C407 C406 1.355 . S
C407 C409 1.419 . S
C408 C406 1.415 . S
C408 C413 1.425 . S
C408 C415 1.409 . S
C409 H401 0.930 . S
C409 C407 1.419 . S
C409 C410 1.362 . S
C410 H402 0.930 . S
C410 C409 1.362 . S
C410 C413 1.409 . S
C411 H403 0.930 . S
C411 C412 1.355 . S
C411 C413 1.415 . S
C412 C411 1.355 . S
C412 C414 1.419 . S
C413 C408 1.425 . S
C413 C410 1.409 . S
C413 C411 1.415 . S
C414 H404 0.930 . S
C414 C412 1.419 . S
C414 C415 1.362 . S
C415 H405 0.930 . S
C415 C408 1.409 . S
C415 C414 1.362 . S
H416 C422 0.930 . S
H417 C425 0.930 . S
H418 C426 0.930 . S
H419 C427 0.930 . S
H420 C430 0.930 . S
H421 C431 0.930 . S
C422 H416 0.930 . S
C422 C423 1.355 . S
C422 C424 1.415 . S
C423 C422 1.355 . S
C423 C425 1.419 . S
C424 C422 1.415 . S
C424 C429 1.425 . S
C424 C431 1.409 . S
C425 H417 0.930 . S
C425 C423 1.419 . S
C425 C426 1.362 . S
C426 H418 0.930 . S
C426 C425 1.362 . S
C426 C429 1.409 . S
C427 H419 0.930 . S
C427 C428 1.355 . S
C427 C429 1.415 . S
C428 C427 1.355 . S
C428 C430 1.419 . S
C429 C424 1.425 . S
C429 C426 1.409 . S
C429 C427 1.415 . S
C430 H420 0.930 . S
C430 C428 1.419 . S
C430 C431 1.362 . S
C431 H421 0.930 . S
C431 C424 1.409 . S
C431 C430 1.362 . S
H432 C438 0.930 . S
H433 C441 0.930 . S
H434 C442 0.930 . S
H435 C443 0.930 . S
H436 C446 0.930 . S
H437 C447 0.930 . S
C438 H432 0.930 . S
C438 C439 1.355 . S
C438 C440 1.415 . S
C439 C438 1.355 . S
C439 C441 1.419 . S
C440 C438 1.415 . S
C440 C445 1.425 . S
C440 C447 1.409 . S
C441 H433 0.930 . S
C441 C439 1.419 . S
C441 C442 1.362 . S
C442 H434 0.930 . S
C442 C441 1.362 . S
C442 C445 1.409 . S
C443 H435 0.930 . S
C443 C444 1.355 . S
C443 C445 1.415 . S
C444 C443 1.355 . S
C444 C446 1.419 . S
C445 C440 1.425 . S
C445 C442 1.409 . S
C445 C443 1.415 . S
C446 H436 0.930 . S
C446 C444 1.419 . S
C446 C447 1.362 . S
C447 H437 0.930 . S
C447 C440 1.409 . S
C447 C446 1.362 . S
H448 C454 0.930 . S
H449 C457 0.930 . S
H450 C458 0.930 . S
H451 C459 0.930 . S
H452 C462 0.930 . S
H453 C463 0.930 . S
C454 H448 0.930 . S
C454 C455 1.355 . S
C454 C456 1.415 . S
C455 C454 1.355 . S
C455 C457 1.419 . S
C456 C454 1.415 . S
C456 C461 1.425 . S
C456 C463 1.409 . S
C457 H449 0.930 . S
C457 C455 1.419 . S
C457 C458 1.362 . S
C458 H450 0.930 . S
C458 C457 1.362 . S
C458 C461 1.409 . S
C459 H451 0.930 . S
C459 C460 1.355 . S
C459 C461 1.415 . S
C460 C459 1.355 . S
C460 C462 1.419 . S
C461 C456 1.425 . S
C461 C458 1.409 . S
C461 C459 1.415 . S
C462 H452 0.930 . S
C462 C460 1.419 . S
C462 C463 1.362 . S
C463 H453 0.930 . S
C463 C456 1.409 . S
C463 C462 1.362 . S
H464 C470 0.930 . S
H465 C473 0.930 . S
H466 C474 0.930 . S
H467 C475 0.930 . S
H468 C478 0.930 . S
H469 C479 0.930 . S
C470 H464 0.930 . S
C470 C471 1.355 . S
C470 C472 1.415 . S
C471 C470 1.355 . S
C471 C473 1.419 . S
C472 C470 1.415 . S
C472 C477 1.425 . S
C472 C479 1.409 . S
C473 H465 0.930 . S
C473 C471 1.419 . S
C473 C474 1.362 . S
C474 H466 0.930 . S
C474 C473 1.362 . S
C474 C477 1.409 . S
C475 H467 0.930 . S
C475 C476 1.355 . S
C475 C477 1.415 . S
C476 C475 1.355 . S
C476 C478 1.419 . S
C477 C472 1.425 . S
C477 C474 1.409 . S
C477 C475 1.415 . S
C478 H468 0.930 . S
C478 C476 1.419 . S
C478 C479 1.362 . S
C479 H469 0.930 . S
C479 C472 1.409 . S
C479 C478 1.362 . S
H480 C486 0.930 . S
H481 C489 0.930 . S
H482 C490 0.930 . S
H483 C491 0.930 . S
H484 C494 0.930 . S
H485 C495 0.930 . S
C486 H480 0.930 . S
C486 C487 1.355 . S
C486 C488 1.415 . S
C487 C486 1.355 . S
C487 C489 1.419 . S
C488 C486 1.415 . S
C488 C493 1.425 . S
C488 C495 1.409 . S
C489 H481 0.930 . S
C489 C487 1.419 . S
C489 C490 1.362 . S
C490 H482 0.930 . S
C490 C489 1.362 . S
C490 C493 1.409 . S
C491 H483 0.930 . S
C491 C492 1.355 . S
C491 C493 1.415 . S
C492 C491 1.355 . S
C492 C494 1.419 . S
C493 C488 1.425 . S
C493 C490 1.409 . S
C493 C491 1.415 . S
C494 H484 0.930 . S
C494 C492 1.419 . S
C494 C495 1.362 . S
C495 H485 0.930 . S
C495 C488 1.409 . S
C495 C494 1.362 . S
H496 C502 0.930 . S
H497 C505 0.930 . S
H498 C506 0.930 . S
H499 C507 0.930 . S
H500 C510 0.930 . S
H501 C511 0.930 . S
C502 H496 0.930 . S
C502 C503 1.355 . S
C502 C504 1.415 . S
C503 C502 1.355 . S
C503 C505 1.419 . S
C504 C502 1.415 . S
C504 C509 1.425 . S
C504 C511 1.409 . S
C505 H497 0.930 . S
C505 C503 1.419 . S
C505 C506 1.362 . S
C506 H498 0.930 . S
C506 C505 1.362 . S
C506 C509 1.409 . S
C507 H499 0.930 . S
C507 C508 1.355 . S
C507 C509 1.415 . S
C508 C507 1.355 . S
C508 C510 1.419 . S
C509 C504 1.425 . S
C509 C506 1.409 . S
C509 C507 1.415 . S
C510 H500 0.930 . S
C510 C508 1.419 . S
C510 C511 1.362 . S
C511 H501 0.930 . S
C511 C504 1.409 . S
C511 C510 1.362 . S
H512 C518 0.930 . S
H513 C521 0.930 . S
H514 C522 0.930 . S
H515 C523 0.930 . S
H516 C526 0.930 . S
H517 C527 0.930 . S
C518 H512 0.930 . S
C518 C519 1.355 . S
C518 C520 1.415 . S
C519 C518 1.355 . S
C519 C521 1.419 . S
C520 C518 1.415 . S
C520 C525 1.425 . S
C520 C527 1.409 . S
C521 H513 0.930 . S
C521 C519 1.419 . S
C521 C522 1.362 . S
C522 H514 0.930 . S
C522 C521 1.362 . S
C522 C525 1.409 . S
C523 H515 0.930 . S
C523 C524 1.355 . S
C523 C525 1.415 . S
C524 C523 1.355 . S
C524 C526 1.419 . S
C525 C520 1.425 . S
C525 C522 1.409 . S
C525 C523 1.415 . S
C526 H516 0.930 . S
C526 C524 1.419 . S
C526 C527 1.362 . S
C527 H517 0.930 . S
C527 C520 1.409 . S
C527 C526 1.362 . S
H528 C534 0.930 . S
H529 C537 0.930 . S
H530 C538 0.930 . S
H531 C539 0.930 . S
H532 C542 0.930 . S
H533 C543 0.930 . S
C534 H528 0.930 . S
C534 C535 1.355 . S
C534 C536 1.415 . S
C535 C534 1.355 . S
C535 C537 1.419 . S
C536 C534 1.415 . S
C536 C541 1.425 . S
C536 C543 1.409 . S
C537 H529 0.930 . S
C537 C535 1.419 . S
C537 C538 1.362 . S
C538 H530 0.930 . S
C538 C537 1.362 . S
C538 C541 1.409 . S
C539 H531 0.930 . S
C539 C540 1.355 . S
C539 C541 1.415 . S
C540 C539 1.355 . S
C540 C542 1.419 . S
C541 C536 1.425 . S
C541 C538 1.409 . S
C541 C539 1.415 . S
C542 H532 0.930 . S
C542 C540 1.419 . S
C542 C543 1.362 . S
C543 H533 0.930 . S
C543 C536 1.409 . S
C543 C542 1.362 . S
H544 C550 0.930 . S
H545 C553 0.930 . S
H546 C554 0.930 . S
H547 C555 0.930 . S
H548 C558 0.930 . S
H549 C559 0.930 . S
C550 H544 0.930 . S
C550 C551 1.355 . S
C550 C552 1.415 . S
C551 C550 1.355 . S
C551 C553 1.419 . S
C552 C550 1.415 . S
C552 C557 1.425 . S
C552 C559 1.409 . S
C553 H545 0.930 . S
C553 C551 1.419 . S
C553 C554 1.362 . S
C554 H546 0.930 . S
C554 C553 1.362 . S
C554 C557 1.409 . S
C555 H547 0.930 . S
C555 C556 1.355 . S
C555 C557 1.415 . S
C556 C555 1.355 . S
C556 C558 1.419 . S
C557 C552 1.425 . S
C557 C554 1.409 . S
C557 C555 1.415 . S
C558 H548 0.930 . S
C558 C556 1.419 . S
C558 C559 1.362 . S
C559 H549 0.930 . S
C559 C552 1.409 . S
C559 C558 1.362 . S
H560 C566 0.930 . S
H561 C569 0.930 . S
H562 C570 0.930 . S
H563 C571 0.930 . S
H564 C574 0.930 . S
H565 C575 0.930 . S
C566 H560 0.930 . S
C566 C567 1.355 . S
C566 C568 1.415 . S
C567 C566 1.355 . S
C567 C569 1.419 . S
C568 C566 1.415 . S
C568 C573 1.425 . S
C568 C575 1.409 . S
C569 H561 0.930 . S
C569 C567 1.419 . S
C569 C570 1.362 . S
C570 H562 0.930 . S
C570 C569 1.362 . S
C570 C573 1.409 . S
C571 H563 0.930 . S
C571 C572 1.355 . S
C571 C573 1.415 . S
C572 C571 1.355 . S
C572 C574 1.419 . S
C573 C568 1.425 . S
C573 C570 1.409 . S
C573 C571 1.415 . S
C574 H564 0.930 . S
C574 C572 1.419 . S
C574 C575 1.362 . S
C575 H565 0.930 . S
C575 C568 1.409 . S
C575 C574 1.362 . S
H576 C582 0.930 . S
H577 C585 0.930 . S
H578 C586 0.930 . S
H579 C587 0.930 . S
H580 C590 0.930 . S
H581 C591 0.930 . S
C582 H576 0.930 . S
C582 C583 1.355 . S
C582 C584 1.415 . S
C583 C582 1.355 . S
C583 C585 1.419 . S
C584 C582 1.415 . S
C584 C589 1.425 . S
C584 C591 1.409 . S
C585 H577 0.930 . S
C585 C583 1.419 . S
C585 C586 1.362 . S
C586 H578 0.930 . S
C586 C585 1.362 . S
C586 C589 1.409 . S
C587 H579 0.930 . S
C587 C588 1.355 . S
C587 C589 1.415 . S
C588 C587 1.355 . S
C588 C590 1.419 . S
C589 C584 1.425 . S
C589 C586 1.409 . S
C589 C587 1.415 . S
C590 H580 0.930 . S
C590 C588 1.419 . S
C590 C591 1.362 . S
C591 H581 0.930 . S
C591 C584 1.409 . S
C591 C590 1.362 . S
H592 C598 0.930 . S
H593 C601 0.930 . S
H594 C602 0.930 . S
H595 C603 0.930 . S
H596 C606 0.930 . S
H597 C607 0.930 . S
C598 H592 0.930 . S
C598 C599 1.355 . S
C598 C600 1.415 . S
C599 C598 1.355 . S
C599 C601 1.419 . S
C600 C598 1.415 . S
C600 C605 1.425 . S
C600 C607 1.409 . S
C601 H593 0.930 . S
C601 C599 1.419 . S
C601 C602 1.362 . S
C602 H594 0.930 . S
C602 C601 1.362 . S
C602 C605 1.409 . S
C603 H595 0.930 . S
C603 C604 1.355 . S
C603 C605 1.415 . S
C604 C603 1.355 . S
C604 C606 1.419 . S
C605 C600 1.425 . S
C605 C602 1.409 . S
C605 C603 1.415 . S
C606 H596 0.930 . S
C606 C604 1.419 . S
C606 C607 1.362 . S
C607 H597 0.930 . S
C607 C600 1.409 . S
C607 C606 1.362 . S
H608 C614 0.930 . S
H609 C617 0.930 . S
H610 C618 0.930 . S
H611 C619 0.930 . S
H612 C622 0.930 . S
H613 C623 0.930 . S
C614 H608 0.930 . S
C614 C615 1.355 . S
C614 C616 1.415 . S
C615 C614 1.355 . S
C615 C617 1.419 . S
C616 C614 1.415 . S
C616 C621 1.425 . S
C616 C623 1.409 . S
C617 H609 0.930 . S
C617 C615 1.419 . S
C617 C618 1.362 . S
C618 H610 0.930 . S
C618 C617 1.362 . S
C618 C621 1.409 . S
C619 H611 0.930 . S
C619 C620 1.355 . S
C619 C621 1.415 . S
C620 C619 1.355 . S
C620 C622 1.419 . S
C621 C616 1.425 . S
C621 C618 1.409 . S
C621 C619 1.415 . S
C622 H612 0.930 . S
C622 C620 1.419 . S
C622 C623 1.362 . S
C623 H613 0.930 . S
C623 C616 1.409 . S
C623 C622 1.362 . S
H624 C630 0.930 . S
H625 C633 0.930 . S
H626 C634 0.930 . S
H627 C635 0.930 . S
H628 C638 0.930 . S
H629 C639 0.930 . S
C630 H624 0.930 . S
C630 C631 1.355 . S
C630 C632 1.415 . S
C631 C630 1.355 . S
C631 C633 1.419 . S
C632 C630 1.415 . S
C632 C637 1.425 . S
C632 C639 1.409 . S
C633 H625 0.930 . S
C633 C631 1.419 . S
C633 C634 1.362 . S
C634 H626 0.930 . S
C634 C633 1.362 . S
C634 C637 1.409 . S
C635 H627 0.930 . S
C635 C636 1.355 . S
C635 C637 1.415 . S
C636 C635 1.355 . S
C636 C638 1.419 . S
C637 C632 1.425 . S
C637 C634 1.409 . S
C637 C635 1.415 . S
C638 H628 0.930 . S
C638 C636 1.419 . S
C638 C639 1.362 . S
C639 H629 0.930 . S
C639 C632 1.409 . S
C639 C638 1.362 . S
H640 C646 0.930 . S
H641 C649 0.930 . S
H642 C650 0.930 . S
H643 C651 0.930 . S
H644 C654 0.930 . S
H645 C655 0.930 . S
C646 H640 0.930 . S
C646 C647 1.355 . S
C646 C648 1.415 . S
C647 C646 1.355 . S
C647 C649 1.419 . S
C648 C646 1.415 . S
C648 C653 1.425 . S
C648 C655 1.409 . S
C649 H641 0.930 . S
C649 C647 1.419 . S
C649 C650 1.362 . S
C650 H642 0.930 . S
C650 C649 1.362 . S
C650 C653 1.409 . S
C651 H643 0.930 . S
C651 C652 1.355 . S
C651 C653 1.415 . S
C652 C651 1.355 . S
C652 C654 1.419 . S
C653 C648 1.425 . S
C653 C650 1.409 . S
C653 C651 1.415 . S
C654 H644 0.930 . S
C654 C652 1.419 . S
C654 C655 1.362 . S
C655 H645 0.930 . S
C655 C648 1.409 . S
C655 C654 1.362 . S
H656 C662 0.930 . S
H657 C665 0.930 . S
H658 C666 0.930 . S
H659 C667 0.930 . S
H660 C670 0.930 . S
H661 C671 0.930 . S
C662 H656 0.930 . S
C662 C663 1.355 . S
C662 C664 1.415 . S
C663 C662 1.355 . S
C663 C665 1.419 . S
C664 C662 1.415 . S
C664 C669 1.425 . S
C664 C671 1.409 . S
C665 H657 0.930 . S
C665 C663 1.419 . S
C665 C666 1.362 . S
C666 H658 0.930 . S
C666 C665 1.362 . S
C666 C669 1.409 . S
C667 H659 0.930 . S
C667 C668 1.355 . S
C667 C669 1.415 . S
C668 C667 1.355 . S
C668 C670 1.419 . S
C669 C664 1.425 . S
C669 C666 1.409 . S
C669 C667 1.415 . S
C670 H660 0.930 . S
C670 C668 1.419 . S
C670 C671 1.362 . S
C671 H661 0.930 . S
C671 C664 1.409 . S
C671 C670 1.362 . S
H672 C678 0.930 . S
H673 C681 0.930 . S
H674 C682 0.930 . S
H675 C683 0.930 . S
H676 C686 0.930 . S
H677 C687 0.930 . S
C678 H672 0.930 . S
C678 C679 1.355 . S
C678 C680 1.415 . S
C679 C678 1.355 . S
C679 C681 1.419 . S
C680 C678 1.415 . S
C680 C685 1.425 . S
C680 C687 1.409 . S
C681 H673 0.930 . S
C681 C679 1.419 . S
C681 C682 1.362 . S
C682 H674 0.930 . S
C682 C681 1.362 . S
C682 C685 1.409 . S
C683 H675 0.930 . S
C683 C684 1.355 . S
C683 C685 1.415 . S
C684 C683 1.355 . S
C684 C686 1.419 . S
C685 C680 1.425 . S
C685 C682 1.409 . S
C685 C683 1.415 . S
C686 H676 0.930 . S
C686 C684 1.419 . S
C686 C687 1.362 . S
C687 H677 0.930 . S
C687 C680 1.409 . S
C687 C686 1.362 . S
H688 C694 0.930 . S
H689 C697 0.930 . S
H690 C698 0.930 . S
H691 C699 0.930 . S
H692 C702 0.930 . S
H693 C703 0.930 . S
C694 H688 0.930 . S
C694 C695 1.355 . S
C694 C696 1.415 . S
C695 C694 1.355 . S
C695 C697 1.419 . S
C696 C694 1.415 . S
C696 C701 1.425 . S
C696 C703 1.409 . S
C697 H689 0.930 . S
C697 C695 1.419 . S
C697 C698 1.362 . S
C698 H690 0.930 . S
C698 C697 1.362 . S
C698 C701 1.409 . S
C699 H691 0.930 . S
C699 C700 1.355 . S
C699 C701 1.415 . S
C700 C699 1.355 . S
C700 C702 1.419 . S
C701 C696 1.425 . S
C701 C698 1.409 . S
C701 C699 1.415 . S
C702 H692 0.930 . S
C702 C700 1.419 . S
C702 C703 1.362 . S
C703 H693 0.930 . S
C703 C696 1.409 . S
C703 C702 1.362 . S
H704 C710 0.930 . S
H705 C713 0.930 . S
H706 C714 0.930 . S
H707 C715 0.930 . S
H708 C718 0.930 . S
H709 C719 0.930 . S
C710 H704 0.930 . S
C710 C711 1.355 . S
C710 C712 1.415 . S
C711 C710 1.355 . S
C711 C713 1.419 . S
C712 C710 1.415 . S
C712 C717 1.425 . S
C712 C719 1.409 . S
C713 H705 0.930 . S
C713 C711 1.419 . S
C713 C714 1.362 . S
C714 H706 0.930 . S
C714 C713 1.362 . S
C714 C717 1.409 . S
C715 H707 0.930 . S
C715 C716 1.355 . S
C715 C717 1.415 . S
C716 C715 1.355 . S
C716 C718 1.419 . S
C717 C712 1.425 . S
C717 C714 1.409 . S
C717 C715 1.415 . S
C718 H708 0.930 . S
C718 C716 1.419 . S
C718 C719 1.362 . S
C719 H709 0.930 . S
C719 C712 1.409 . S
C719 C718 1.362 . S
C215 C56 1.505 . S
C220 C4 1.507 . S
C231 C75 1.489 . S
C236 C17 1.490 . S
C247 C82 1.507 . S
C252 C36 1.507 . S
C263 C95 1.498 . S
C268 C43 1.501 . S
C279 C166 1.489 . S
C284 C108 1.490 . S
C295 C173 1.494 . S
C300 C127 1.497 . S
C311 C140 1.494 . S
C316 C186 1.492 . S
C327 C205 1.497 . S
C332 C147 1.500 . S
C343 C5 1.543 . S
C348 C68 1.550 . S
C359 C83 1.531 . S
C364 C18 1.539 . S
C375 C29 1.540 . S
C380 C96 1.532 . S
C391 C57 1.527 . S
C396 C44 1.526 . S
C407 C174 1.528 . S
C412 C109 1.535 . S
C423 C187 1.535 . S
C428 C120 1.528 . S
C439 C133 1.537 . S
C444 C198 1.529 . S
C455 C148 1.529 . S
C460 C159 1.525 . S
C471 C199 1.450 . S
C476 C10 1.429 . S
C487 C160 1.424 . S
C492 C23 1.436 . S
C503 C179 1.448 . S
C508 C30 1.438 . S
C519 C192 1.428 . S
C524 C49 1.450 . S
C535 C121 1.446 . S
C540 C62 1.441 . S
C551 C134 1.428 . S
C556 C69 1.431 . S
C567 C88 1.437 . S
C572 C153 1.448 . S
C583 C101 1.445 . S
C588 C114 1.423 . S
C599 C172 1.405 . S
C604 C31 1.414 . S
C615 C185 1.389 . S
C620 C42 1.397 . S
C631 C200 1.387 . S
C636 C3 1.393 . S
C647 C16 1.393 . S
C652 C161 1.387 . S
C663 C146 1.419 . S
C668 C81 1.412 . S
C679 C94 1.404 . S
C684 C107 1.394 . S
C695 C122 1.416 . S
C700 C55 1.407 . S
C711 C135 1.397 . S
C716 C70 1.389 . S
