# Generated by pormake.
# Topology vbk, (5)-cn, num edge types: 1
# Building blocks:
#     Node 0, Type 0, BuildingBlock: BEQFEK_clean_sbu_0, # of connection points: 5
#     Node 1, Type 0, BuildingBlock: BEQFEK_clean_sbu_0, # of connection points: 5
#     Node 2, Type 0, BuildingBlock: BEQFEK_clean_sbu_0, # of connection points: 5
#     Node 3, Type 0, BuildingBlock: BEQFEK_clean_sbu_0, # of connection points: 5
#     Node 4, Type 0, BuildingBlock: BEQFEK_clean_sbu_0, # of connection points: 5
#     Node 5, Type 0, BuildingBlock: BEQFEK_clean_sbu_0, # of connection points: 5
#     Node 6, Type 0, BuildingBlock: BEQFEK_clean_sbu_0, # of connection points: 5
#     Node 7, Type 0, BuildingBlock: BEQFEK_clean_sbu_0, # of connection points: 5
#     Node 8, Type 0, BuildingBlock: BEQFEK_clean_sbu_0, # of connection points: 5
#     Node 9, Type 0, BuildingBlock: BEQFEK_clean_sbu_0, # of connection points: 5
#     Node 10, Type 0, BuildingBlock: BEQFEK_clean_sbu_0, # of connection points: 5
#     Node 11, Type 0, BuildingBlock: BEQFEK_clean_sbu_0, # of connection points: 5
#     Node 12, Type 0, BuildingBlock: BEQFEK_clean_sbu_0, # of connection points: 5
#     Node 13, Type 0, BuildingBlock: BEQFEK_clean_sbu_0, # of connection points: 5
#     Node 14, Type 0, BuildingBlock: BEQFEK_clean_sbu_0, # of connection points: 5
#     Node 15, Type 0, BuildingBlock: BEQFEK_clean_sbu_0, # of connection points: 5
#     Edge 16, Type (0, 0), BuildingBlock: KIFKEQ_clean_linker_1, # of connection points: 2
#     Edge 17, Type (0, 0), BuildingBlock: KIFKEQ_clean_linker_1, # of connection points: 2
#     Edge 18, Type (0, 0), BuildingBlock: KIFKEQ_clean_linker_1, # of connection points: 2
#     Edge 19, Type (0, 0), BuildingBlock: KIFKEQ_clean_linker_1, # of connection points: 2
#     Edge 20, Type (0, 0), BuildingBlock: KIFKEQ_clean_linker_1, # of connection points: 2
#     Edge 21, Type (0, 0), BuildingBlock: KIFKEQ_clean_linker_1, # of connection points: 2
#     Edge 22, Type (0, 0), BuildingBlock: KIFKEQ_clean_linker_1, # of connection points: 2
#     Edge 23, Type (0, 0), BuildingBlock: KIFKEQ_clean_linker_1, # of connection points: 2
#     Edge 24, Type (0, 0), BuildingBlock: KIFKEQ_clean_linker_1, # of connection points: 2
#     Edge 25, Type (0, 0), BuildingBlock: KIFKEQ_clean_linker_1, # of connection points: 2
#     Edge 26, Type (0, 0), BuildingBlock: KIFKEQ_clean_linker_1, # of connection points: 2
#     Edge 27, Type (0, 0), BuildingBlock: KIFKEQ_clean_linker_1, # of connection points: 2
#     Edge 28, Type (0, 0), BuildingBlock: KIFKEQ_clean_linker_1, # of connection points: 2
#     Edge 29, Type (0, 0), BuildingBlock: KIFKEQ_clean_linker_1, # of connection points: 2
#     Edge 30, Type (0, 0), BuildingBlock: KIFKEQ_clean_linker_1, # of connection points: 2
#     Edge 31, Type (0, 0), BuildingBlock: KIFKEQ_clean_linker_1, # of connection points: 2
#     Edge 32, Type (0, 0), BuildingBlock: KIFKEQ_clean_linker_1, # of connection points: 2
#     Edge 33, Type (0, 0), BuildingBlock: KIFKEQ_clean_linker_1, # of connection points: 2
#     Edge 34, Type (0, 0), BuildingBlock: KIFKEQ_clean_linker_1, # of connection points: 2
#     Edge 35, Type (0, 0), BuildingBlock: KIFKEQ_clean_linker_1, # of connection points: 2
#     Edge 36, Type (0, 0), BuildingBlock: KIFKEQ_clean_linker_1, # of connection points: 2
#     Edge 37, Type (0, 0), BuildingBlock: KIFKEQ_clean_linker_1, # of connection points: 2
#     Edge 38, Type (0, 0), BuildingBlock: KIFKEQ_clean_linker_1, # of connection points: 2
#     Edge 39, Type (0, 0), BuildingBlock: KIFKEQ_clean_linker_1, # of connection points: 2
#     Edge 40, Type (0, 0), BuildingBlock: KIFKEQ_clean_linker_1, # of connection points: 2
#     Edge 41, Type (0, 0), BuildingBlock: KIFKEQ_clean_linker_1, # of connection points: 2
#     Edge 42, Type (0, 0), BuildingBlock: KIFKEQ_clean_linker_1, # of connection points: 2
#     Edge 43, Type (0, 0), BuildingBlock: KIFKEQ_clean_linker_1, # of connection points: 2
#     Edge 44, Type (0, 0), BuildingBlock: KIFKEQ_clean_linker_1, # of connection points: 2
#     Edge 45, Type (0, 0), BuildingBlock: KIFKEQ_clean_linker_1, # of connection points: 2
#     Edge 46, Type (0, 0), BuildingBlock: KIFKEQ_clean_linker_1, # of connection points: 2
#     Edge 47, Type (0, 0), BuildingBlock: KIFKEQ_clean_linker_1, # of connection points: 2
#     Edge 48, Type (0, 0), BuildingBlock: KIFKEQ_clean_linker_1, # of connection points: 2
#     Edge 49, Type (0, 0), BuildingBlock: KIFKEQ_clean_linker_1, # of connection points: 2
#     Edge 50, Type (0, 0), BuildingBlock: KIFKEQ_clean_linker_1, # of connection points: 2
#     Edge 51, Type (0, 0), BuildingBlock: KIFKEQ_clean_linker_1, # of connection points: 2
#     Edge 52, Type (0, 0), BuildingBlock: KIFKEQ_clean_linker_1, # of connection points: 2
#     Edge 53, Type (0, 0), BuildingBlock: KIFKEQ_clean_linker_1, # of connection points: 2
#     Edge 54, Type (0, 0), BuildingBlock: KIFKEQ_clean_linker_1, # of connection points: 2
#     Edge 55, Type (0, 0), BuildingBlock: KIFKEQ_clean_linker_1, # of connection points: 2
# Relax obj value: 0.035
# Max RMSD: 0.067
# Mean RMSD: 0.067
data_MOF--net-vbk--node1-BEQFEK_clean_sbu_0--edge1-KIFKEQ_clean_linker_1
_symmetry_space_group_name_H-M    P1
_symmetry_Int_Tables_number       1
_symmetry_cell_setting            triclinic
loop_
_symmetry_equiv_pos_as_xyz
'x, y, z'
_cell_length_a     77.63481
_cell_length_b     42.791295
_cell_length_c     27.295026
_cell_angle_alpha  89.957208
_cell_angle_beta   89.99497
_cell_angle_gamma 90.006841
loop_
_atom_site_label
_atom_site_type_symbol
_atom_site_fract_x
_atom_site_fract_y
_atom_site_fract_z
_atom_type_partial_charge
Co0 Co 0.10462 0.14458 0.14507 0.0
Co1 Co 0.14519 0.1514 0.14455 0.0
C2 C 0.12852 0.09386 0.10718 0.0
O3 O 0.11367 0.105 0.11692 0.0
O4 O 0.14225 0.10904 0.11663 0.0
C5 C 0.07078 0.11571 0.15142 0.0
O6 O 0.07882 0.09009 0.13809 0.0
C7 C 0.18258 0.14528 0.1695 0.0
C8 C 0.19073 0.19418 0.15772 0.0
C9 C 0.19662 0.16537 0.17367 0.0
N10 N 0.16902 0.16183 0.15268 0.0
N11 N 0.17414 0.19085 0.14493 0.0
C12 C 0.18152 0.11193 0.18558 0.0
H13 H 0.16789 0.10479 0.19061 0.0
H14 H 0.18879 0.1085 0.22018 0.0
H15 H 0.18741 0.09687 0.15704 0.0
C16 C 0.10977 0.16461 0.24732 0.0
N17 N 0.11604 0.15488 0.20394 0.0
N18 N 0.13297 0.15655 0.20459 0.0
C19 C 0.13801 0.16689 0.24896 0.0
C20 C 0.1235 0.17267 0.27738 0.0
C21 C 0.091 0.17007 0.25671 0.0
H22 H 0.08528 0.18283 0.22527 0.0
H23 H 0.08436 0.14719 0.2597 0.0
H24 H 0.08876 0.18368 0.29065 0.0
O25 O 0.10797 0.17828 0.09651 0.0
O26 O 0.13647 0.18194 0.09578 0.0
H27 H 0.16168 0.19219 0.24277 0.0
H28 H 0.15766 0.1766 0.30333 0.0
C29 C 0.15638 0.17207 0.26349 0.0
H30 H 0.16401 0.15103 0.2545 0.0
H31 H 0.1661 0.20874 0.13262 0.0
O32 O 0.07933 0.14083 0.15677 0.0
C33 C 0.12176 0.19059 0.08025 0.0
Co34 Co 0.40538 0.84824 0.63957 0.0
Co35 Co 0.36474 0.84481 0.64313 0.0
C36 C 0.38261 0.89976 0.59991 0.0
O37 O 0.39714 0.88691 0.60789 0.0
O38 O 0.36857 0.88695 0.61358 0.0
C39 C 0.43949 0.87536 0.64512 0.0
O40 O 0.43134 0.90193 0.63848 0.0
C41 C 0.32872 0.85373 0.67852 0.0
C42 C 0.31708 0.80952 0.65304 0.0
C43 C 0.31357 0.83633 0.67962 0.0
N44 N 0.34063 0.83757 0.65304 0.0
N45 N 0.33343 0.81146 0.63727 0.0
C46 C 0.33238 0.88369 0.70468 0.0
H47 H 0.34649 0.88749 0.70787 0.0
H48 H 0.32636 0.88352 0.74156 0.0
H49 H 0.32675 0.90333 0.68351 0.0
C50 C 0.40111 0.83423 0.74436 0.0
N51 N 0.39438 0.84161 0.70046 0.0
N52 N 0.37749 0.83886 0.70231 0.0
C53 C 0.37301 0.82873 0.74743 0.0
C54 C 0.38784 0.82569 0.77564 0.0
C55 C 0.42002 0.83414 0.75517 0.0
H56 H 0.42579 0.85642 0.74247 0.0
H57 H 0.42259 0.83138 0.79492 0.0
H58 H 0.42625 0.81479 0.73474 0.0
O59 O 0.40058 0.81315 0.59461 0.0
O60 O 0.37201 0.81312 0.59451 0.0
H61 H 0.34958 0.8047 0.72955 0.0
H62 H 0.35567 0.80146 0.79285 0.0
C63 C 0.35537 0.81739 0.7608 0.0
H64 H 0.34712 0.83769 0.76992 0.0
H65 H 0.33989 0.79432 0.61726 0.0
O66 O 0.43088 0.85012 0.64744 0.0
C67 C 0.38631 0.80235 0.57915 0.0
Co68 Co 0.10396 0.85097 0.85457 0.0
Co69 Co 0.14462 0.84457 0.85598 0.0
C70 C 0.12715 0.90174 0.89386 0.0
O71 O 0.1123 0.89092 0.8833 0.0
O72 O 0.14083 0.88638 0.88475 0.0
C73 C 0.07018 0.87902 0.84016 0.0
O74 O 0.07839 0.9057 0.84469 0.0
C75 C 0.18194 0.85461 0.83301 0.0
C76 C 0.19225 0.80818 0.85279 0.0
C77 C 0.19707 0.83717 0.83487 0.0
N78 N 0.16882 0.83648 0.84868 0.0
N79 N 0.17516 0.80885 0.86059 0.0
C80 C 0.18004 0.88814 0.81837 0.0
H81 H 0.16832 0.89844 0.83495 0.0
H82 H 0.1788 0.88972 0.77797 0.0
H83 H 0.19157 0.90172 0.82957 0.0
C84 C 0.10963 0.83125 0.75224 0.0
N85 N 0.11571 0.84113 0.79577 0.0
N86 N 0.13264 0.83925 0.79576 0.0
C87 C 0.13787 0.82846 0.75187 0.0
C88 C 0.12348 0.82278 0.72288 0.0
C89 C 0.0909 0.82581 0.74226 0.0
H90 H 0.08511 0.81266 0.77321 0.0
H91 H 0.08423 0.84869 0.7398 0.0
H92 H 0.08875 0.81258 0.70791 0.0
O93 O 0.10768 0.81732 0.90318 0.0
O94 O 0.13619 0.81326 0.90391 0.0
H95 H 0.16119 0.80248 0.76101 0.0
H96 H 0.15785 0.81689 0.69932 0.0
C97 C 0.15629 0.82229 0.7388 0.0
H98 H 0.1641 0.8432 0.74734 0.0
H99 H 0.16779 0.79031 0.8739 0.0
O100 O 0.07861 0.85359 0.84277 0.0
C101 C 0.12143 0.80474 0.9193 0.0
Co102 Co 0.40788 0.14619 0.35333 0.0
Co103 Co 0.36728 0.15089 0.34922 0.0
C104 C 0.38437 0.09489 0.39098 0.0
O105 O 0.39907 0.10734 0.38369 0.0
O106 O 0.3705 0.10834 0.37741 0.0
C107 C 0.44195 0.11821 0.34747 0.0
O108 O 0.43388 0.09186 0.35659 0.0
C109 C 0.33078 0.14417 0.31585 0.0
C110 C 0.3207 0.19019 0.33869 0.0
C111 C 0.31618 0.16302 0.31437 0.0
N112 N 0.34336 0.15988 0.3394 0.0
N113 N 0.33708 0.18711 0.35358 0.0
C114 C 0.33326 0.11312 0.29185 0.0
H115 H 0.3472 0.10781 0.2879 0.0
H116 H 0.32687 0.11277 0.25547 0.0
H117 H 0.32725 0.09477 0.31494 0.0
C118 C 0.40387 0.16192 0.24891 0.0
N119 N 0.39703 0.15413 0.29253 0.0
N120 N 0.38015 0.15695 0.29041 0.0
C121 C 0.37577 0.16728 0.24536 0.0
C122 C 0.39066 0.17062 0.21751 0.0
C123 C 0.42279 0.16213 0.2384 0.0
H124 H 0.42846 0.13944 0.24958 0.0
H125 H 0.42547 0.16601 0.19894 0.0
H126 H 0.42904 0.1808 0.2603 0.0
O127 O 0.40351 0.1809 0.39953 0.0
O128 O 0.37495 0.18153 0.39896 0.0
H129 H 0.35812 0.19242 0.19776 0.0
H130 H 0.34966 0.15758 0.22591 0.0
C131 C 0.35807 0.17817 0.23168 0.0
H132 H 0.35262 0.19246 0.2617 0.0
H133 H 0.3442 0.20415 0.37193 0.0
O134 O 0.43333 0.14343 0.34457 0.0
C135 C 0.38926 0.19176 0.41506 0.0
Co136 Co 0.90642 0.85073 0.85478 0.0
Co137 Co 0.86567 0.84739 0.85285 0.0
C138 C 0.88397 0.90323 0.89209 0.0
O139 O 0.89865 0.89126 0.88276 0.0
O140 O 0.87003 0.88896 0.88176 0.0
C141 C 0.93995 0.87523 0.82756 0.0
O142 O 0.93113 0.89913 0.81067 0.0
C143 C 0.82885 0.85974 0.82642 0.0
C144 C 0.81727 0.81433 0.84644 0.0
C145 C 0.81333 0.84342 0.82726 0.0
N146 N 0.84136 0.84087 0.84379 0.0
N147 N 0.83426 0.81388 0.85588 0.0
C148 C 0.83161 0.89298 0.81128 0.0
H149 H 0.84344 0.90253 0.82837 0.0
H150 H 0.83316 0.8942 0.77094 0.0
H151 H 0.82031 0.90746 0.82154 0.0
C152 C 0.90134 0.831 0.75181 0.0
N153 N 0.89513 0.8415 0.79488 0.0
N154 N 0.87817 0.84099 0.79362 0.0
C155 C 0.87307 0.83056 0.74938 0.0
C156 C 0.88755 0.82368 0.72148 0.0
C157 C 0.91996 0.82395 0.74288 0.0
H158 H 0.92574 0.81338 0.77615 0.0
H159 H 0.92687 0.84609 0.73499 0.0
H160 H 0.92176 0.80777 0.71158 0.0
O161 O 0.90154 0.81735 0.90299 0.0
O162 O 0.87296 0.81587 0.90182 0.0
H163 H 0.84899 0.80672 0.75697 0.0
H164 H 0.85331 0.8205 0.6954 0.0
C165 C 0.85465 0.82595 0.73493 0.0
H166 H 0.84735 0.84757 0.74256 0.0
H167 H 0.84106 0.79498 0.87039 0.0
O168 O 0.93193 0.85236 0.84669 0.0
C169 C 0.88734 0.80611 0.91829 0.0
Co170 Co 0.60544 0.14771 0.35789 0.0
Co171 Co 0.64616 0.1486 0.35671 0.0
C172 C 0.62709 0.0943 0.39692 0.0
O173 O 0.61276 0.10771 0.38818 0.0
O174 O 0.64137 0.10692 0.38517 0.0
C175 C 0.57203 0.1228 0.33224 0.0
O176 O 0.58089 0.09822 0.31821 0.0
C177 C 0.68293 0.13531 0.33107 0.0
C178 C 0.69475 0.1806 0.35053 0.0
C179 C 0.69854 0.15135 0.33176 0.0
N180 N 0.67051 0.15448 0.34812 0.0
N181 N 0.67776 0.1814 0.35991 0.0
C182 C 0.67999 0.10204 0.31635 0.0
H183 H 0.66817 0.09272 0.33373 0.0
H184 H 0.67836 0.10068 0.27605 0.0
H185 H 0.69125 0.08743 0.32661 0.0
C186 C 0.61098 0.16597 0.25468 0.0
N187 N 0.61698 0.15559 0.29804 0.0
N188 N 0.63394 0.15538 0.29706 0.0
C189 C 0.63925 0.16526 0.25268 0.0
C190 C 0.6249 0.17248 0.22439 0.0
C191 C 0.59245 0.17374 0.24545 0.0
H192 H 0.58684 0.18507 0.27832 0.0
H193 H 0.58524 0.15181 0.23852 0.0
H194 H 0.59087 0.18953 0.21354 0.0
O195 O 0.61043 0.18151 0.4046 0.0
O196 O 0.63901 0.18051 0.40567 0.0
H197 H 0.66359 0.1882 0.26033 0.0
H198 H 0.65921 0.17437 0.19886 0.0
C199 C 0.65774 0.16912 0.23843 0.0
H200 H 0.66478 0.14725 0.24641 0.0
H201 H 0.67106 0.20049 0.37407 0.0
O202 O 0.58 0.1464 0.34915 0.0
C203 C 0.62474 0.1916 0.42083 0.0
Co204 Co 0.90717 0.14537 0.14636 0.0
Co205 Co 0.86661 0.15055 0.14874 0.0
C206 C 0.88455 0.09387 0.10908 0.0
O207 O 0.89936 0.10525 0.1182 0.0
O208 O 0.87081 0.10869 0.11967 0.0
C209 C 0.94072 0.11869 0.1645 0.0
O210 O 0.93195 0.09289 0.17221 0.0
C211 C 0.83099 0.13808 0.18337 0.0
C212 C 0.81701 0.17749 0.14936 0.0
C213 C 0.81471 0.15139 0.1787 0.0
N214 N 0.84232 0.15574 0.1582 0.0
N215 N 0.83383 0.17918 0.13792 0.0
C216 C 0.83559 0.10813 0.20847 0.0
H217 H 0.84807 0.0991 0.19462 0.0
H218 H 0.83686 0.11225 0.24839 0.0
H219 H 0.82529 0.09051 0.20282 0.0
C220 C 0.90262 0.1624 0.25042 0.0
N221 N 0.89606 0.15398 0.20674 0.0
N222 N 0.87919 0.15721 0.20777 0.0
C223 C 0.87455 0.1686 0.25192 0.0
C224 C 0.88923 0.17201 0.28055 0.0
C225 C 0.92145 0.16233 0.26213 0.0
H226 H 0.92689 0.13901 0.25365 0.0
H227 H 0.92391 0.16757 0.3013 0.0
H228 H 0.92812 0.17981 0.23881 0.0
O229 O 0.90225 0.17916 0.09831 0.0
O230 O 0.87369 0.18192 0.09977 0.0
H231 H 0.8573 0.19826 0.29361 0.0
H232 H 0.84859 0.16117 0.27519 0.0
C233 C 0.85693 0.18082 0.26359 0.0
H234 H 0.8512 0.19192 0.23076 0.0
H235 H 0.83952 0.19637 0.11618 0.0
O236 O 0.93266 0.14371 0.15414 0.0
C237 C 0.88817 0.19102 0.08315 0.0
Co238 Co 0.60384 0.84881 0.64767 0.0
Co239 Co 0.64445 0.84436 0.64878 0.0
C240 C 0.62622 0.89996 0.60724 0.0
O241 O 0.61164 0.88782 0.61671 0.0
O242 O 0.64022 0.8863 0.61897 0.0
C243 C 0.56917 0.86449 0.62484 0.0
O244 O 0.57658 0.87568 0.58527 0.0
C245 C 0.68027 0.85668 0.68218 0.0
C246 C 0.69399 0.81688 0.64852 0.0
C247 C 0.69649 0.84313 0.67732 0.0
N248 N 0.66879 0.83901 0.65763 0.0
N249 N 0.67712 0.81533 0.63757 0.0
C250 C 0.67588 0.88685 0.70684 0.0
H251 H 0.66336 0.89589 0.69333 0.0
H252 H 0.67482 0.88307 0.7469 0.0
H253 H 0.6862 0.90433 0.70036 0.0
C254 C 0.60875 0.83399 0.75181 0.0
N255 N 0.61525 0.84167 0.70777 0.0
N256 N 0.63212 0.83842 0.70858 0.0
C257 C 0.63681 0.8276 0.7531 0.0
C258 C 0.62215 0.82465 0.78206 0.0
C259 C 0.58992 0.83422 0.76361 0.0
H260 H 0.58412 0.85644 0.75071 0.0
H261 H 0.58762 0.83182 0.80356 0.0
H262 H 0.5835 0.81472 0.74401 0.0
O263 O 0.60843 0.8141 0.60171 0.0
O264 O 0.63703 0.81218 0.60089 0.0
H265 H 0.66017 0.80419 0.73228 0.0
H266 H 0.65401 0.79809 0.79519 0.0
C267 C 0.65441 0.81541 0.76496 0.0
H268 H 0.66275 0.8351 0.7764 0.0
H269 H 0.67129 0.79807 0.61631 0.0
O270 O 0.57846 0.85152 0.65737 0.0
C271 C 0.62245 0.80236 0.58592 0.0
Co272 Co 0.6037 0.64477 0.14859 0.0
Co273 Co 0.64427 0.65187 0.1489 0.0
C274 C 0.62679 0.59444 0.10992 0.0
O275 O 0.61191 0.60504 0.12023 0.0
O276 O 0.6404 0.60997 0.11938 0.0
C277 C 0.56888 0.62328 0.13476 0.0
O278 O 0.57614 0.60521 0.10181 0.0
C279 C 0.68011 0.64056 0.18239 0.0
C280 C 0.69362 0.68043 0.14815 0.0
C281 C 0.69625 0.65441 0.17744 0.0
N282 N 0.66855 0.65784 0.15748 0.0
N283 N 0.67676 0.68157 0.13704 0.0
C284 C 0.67587 0.61045 0.20756 0.0
H285 H 0.66345 0.60102 0.19393 0.0
H286 H 0.67465 0.6145 0.2475 0.0
H287 H 0.68633 0.59318 0.20169 0.0
C288 C 0.60874 0.66059 0.25267 0.0
N289 N 0.61516 0.65335 0.20832 0.0
N290 N 0.63197 0.65752 0.20861 0.0
C291 C 0.63669 0.66855 0.25292 0.0
C292 C 0.62214 0.67057 0.28246 0.0
C293 C 0.59001 0.65892 0.2654 0.0
H294 H 0.58459 0.63647 0.2522 0.0
H295 H 0.58792 0.66073 0.30551 0.0
H296 H 0.58308 0.67819 0.24664 0.0
O297 O 0.608 0.67894 0.10049 0.0
O298 O 0.63651 0.68344 0.10114 0.0
H299 H 0.65968 0.69282 0.23099 0.0
H300 H 0.65349 0.69951 0.29365 0.0
C301 C 0.65413 0.68176 0.26411 0.0
H302 H 0.66276 0.66268 0.27629 0.0
H303 H 0.67084 0.69859 0.11547 0.0
O304 O 0.57825 0.64207 0.15916 0.0
C305 C 0.62181 0.6918 0.08516 0.0
Co306 Co 0.90654 0.35191 0.64696 0.0
Co307 Co 0.86591 0.34583 0.64659 0.0
C308 C 0.8835 0.40297 0.60868 0.0
O309 O 0.89829 0.39206 0.61935 0.0
O310 O 0.86981 0.38759 0.6175 0.0
C311 C 0.94113 0.37413 0.63381 0.0
O312 O 0.93378 0.39189 0.60058 0.0
C313 C 0.82949 0.35805 0.67453 0.0
C314 C 0.81724 0.31379 0.65172 0.0
C315 C 0.8138 0.34238 0.67335 0.0
N316 N 0.84165 0.33929 0.65512 0.0
N317 N 0.83416 0.313 0.64127 0.0
C318 C 0.83274 0.39067 0.69205 0.0
H319 H 0.84462 0.40026 0.67534 0.0
H320 H 0.83444 0.39061 0.73237 0.0
H321 H 0.82159 0.4059 0.68322 0.0
C322 C 0.9013 0.33202 0.7493 0.0
N323 N 0.89502 0.34201 0.70604 0.0
N324 N 0.8781 0.33991 0.70645 0.0
C325 C 0.87307 0.32855 0.75025 0.0
C326 C 0.88759 0.32305 0.77882 0.0
C327 C 0.92009 0.32697 0.75882 0.0
H328 H 0.92574 0.31322 0.72836 0.0
H329 H 0.92671 0.34994 0.75969 0.0
H330 H 0.92243 0.31452 0.79381 0.0
O331 O 0.90243 0.31845 0.5981 0.0
O332 O 0.87388 0.31439 0.59837 0.0
H333 H 0.84976 0.30289 0.73875 0.0
H334 H 0.85343 0.31379 0.80206 0.0
C335 C 0.85477 0.32137 0.7634 0.0
H336 H 0.84686 0.34257 0.75831 0.0
H337 H 0.84065 0.29434 0.62503 0.0
O338 O 0.93189 0.35517 0.65829 0.0
C339 C 0.88858 0.30593 0.58241 0.0
Co340 Co 0.6053 0.35028 0.85736 0.0
Co341 Co 0.64604 0.3469 0.85651 0.0
C342 C 0.62762 0.40264 0.89565 0.0
O343 O 0.61296 0.39066 0.88613 0.0
O344 O 0.64157 0.38841 0.88542 0.0
C345 C 0.57142 0.37687 0.84263 0.0
O346 O 0.57981 0.40354 0.8421 0.0
C347 C 0.68251 0.35976 0.82861 0.0
C348 C 0.69475 0.31544 0.85123 0.0
C349 C 0.69819 0.34409 0.82979 0.0
N350 N 0.67034 0.34093 0.84787 0.0
N351 N 0.67783 0.3146 0.86159 0.0
C352 C 0.67928 0.39245 0.81136 0.0
H353 H 0.66715 0.40168 0.82711 0.0
H354 H 0.6781 0.39274 0.77089 0.0
H355 H 0.69024 0.40778 0.82154 0.0
C356 C 0.61069 0.33168 0.75427 0.0
N357 N 0.61683 0.34162 0.7977 0.0
N358 N 0.63379 0.34054 0.797 0.0
C359 C 0.63896 0.32991 0.75294 0.0
C360 C 0.62452 0.32381 0.72444 0.0
C361 C 0.59199 0.32574 0.74463 0.0
H362 H 0.58653 0.31153 0.7749 0.0
H363 H 0.58503 0.34838 0.74398 0.0
H364 H 0.58987 0.3134 0.70943 0.0
O365 O 0.61009 0.31662 0.90541 0.0
O366 O 0.63868 0.3152 0.90491 0.0
H367 H 0.66276 0.30563 0.76372 0.0
H368 H 0.65875 0.31667 0.70064 0.0
C369 C 0.65735 0.32394 0.7394 0.0
H370 H 0.66486 0.34561 0.74461 0.0
H371 H 0.67134 0.29587 0.87767 0.0
O372 O 0.57982 0.35155 0.8477 0.0
C373 C 0.62426 0.30534 0.92093 0.0
Co374 Co 0.90604 0.64591 0.35397 0.0
Co375 Co 0.86526 0.65035 0.3537 0.0
C376 C 0.88325 0.5943 0.3931 0.0
O377 O 0.89796 0.60595 0.38326 0.0
O378 O 0.86938 0.60878 0.3829 0.0
C379 C 0.93977 0.61782 0.34299 0.0
O380 O 0.93134 0.59149 0.3491 0.0
C381 C 0.82842 0.63855 0.32798 0.0
C382 C 0.81695 0.68395 0.34842 0.0
C383 C 0.81294 0.65497 0.32899 0.0
N384 N 0.84098 0.65726 0.34543 0.0
N385 N 0.83395 0.68425 0.35782 0.0
C386 C 0.83112 0.60535 0.31254 0.0
H387 H 0.84283 0.59556 0.32993 0.0
H388 H 0.83286 0.60434 0.27225 0.0
H389 H 0.81972 0.59095 0.32223 0.0
C390 C 0.90059 0.66487 0.25117 0.0
N391 N 0.89443 0.6549 0.29458 0.0
N392 N 0.87748 0.65617 0.29396 0.0
C393 C 0.87233 0.66679 0.24986 0.0
C394 C 0.88678 0.67286 0.22133 0.0
C395 C 0.91931 0.67081 0.24169 0.0
H396 H 0.92481 0.6845 0.27244 0.0
H397 H 0.92621 0.64813 0.24021 0.0
H398 H 0.92146 0.68369 0.20697 0.0
O399 O 0.90172 0.67979 0.40192 0.0
O400 O 0.87313 0.68182 0.40187 0.0
H401 H 0.8487 0.69183 0.25923 0.0
H402 H 0.8525 0.67882 0.19701 0.0
C403 C 0.85393 0.67267 0.23627 0.0
H404 H 0.84629 0.65135 0.24338 0.0
H405 H 0.8408 0.70304 0.37242 0.0
O406 O 0.93148 0.64348 0.34314 0.0
C407 C 0.88765 0.69136 0.41765 0.0
Co408 Co 0.40695 0.3511 0.85126 0.0
Co409 Co 0.36631 0.34434 0.85325 0.0
C410 C 0.3836 0.40176 0.89041 0.0
O411 O 0.39842 0.39097 0.87951 0.0
O412 O 0.36991 0.3863 0.88188 0.0
C413 C 0.44166 0.37125 0.86719 0.0
O414 O 0.43452 0.38582 0.90436 0.0
C415 C 0.32881 0.35343 0.8313 0.0
C416 C 0.31902 0.30649 0.85033 0.0
C417 C 0.31386 0.33547 0.83313 0.0
N418 N 0.34215 0.3356 0.84631 0.0
N419 N 0.33611 0.30767 0.85776 0.0
C420 C 0.33033 0.38714 0.81735 0.0
H421 H 0.34199 0.39768 0.83386 0.0
H422 H 0.33143 0.3891 0.77695 0.0
H423 H 0.3187 0.40022 0.82912 0.0
C424 C 0.40118 0.33145 0.74899 0.0
N425 N 0.39514 0.34105 0.79271 0.0
N426 N 0.37821 0.33916 0.79285 0.0
C427 C 0.37293 0.32866 0.74884 0.0
C428 C 0.38729 0.32319 0.71962 0.0
C429 C 0.41991 0.32622 0.7387 0.0
H430 H 0.42585 0.31351 0.76984 0.0
H431 H 0.42645 0.34918 0.73545 0.0
H432 H 0.422 0.31265 0.70464 0.0
O433 O 0.40355 0.31743 0.90003 0.0
O434 O 0.37504 0.31322 0.90106 0.0
H435 H 0.34959 0.30264 0.75735 0.0
H436 H 0.35288 0.31787 0.69612 0.0
C437 C 0.3545 0.32274 0.73576 0.0
H438 H 0.34672 0.34355 0.74508 0.0
H439 H 0.34371 0.28927 0.87051 0.0
O440 O 0.4322 0.35504 0.83889 0.0
C441 C 0.38983 0.30478 0.91629 0.0
Co442 Co 0.10386 0.644 0.35671 0.0
Co443 Co 0.14439 0.6506 0.35225 0.0
C444 C 0.12761 0.59279 0.39116 0.0
O445 O 0.11263 0.60397 0.38349 0.0
O446 O 0.14118 0.60802 0.37997 0.0
C447 C 0.07009 0.61707 0.33837 0.0
O448 O 0.0787 0.59141 0.32847 0.0
C449 C 0.18034 0.64259 0.31623 0.0
C450 C 0.19184 0.68694 0.34163 0.0
C451 C 0.19545 0.66014 0.31512 0.0
N452 N 0.1684 0.65863 0.34172 0.0
N453 N 0.17549 0.68484 0.35741 0.0
C454 C 0.17676 0.61257 0.29016 0.0
H455 H 0.16267 0.60874 0.28674 0.0
H456 H 0.18286 0.61269 0.25336 0.0
H457 H 0.18236 0.59298 0.31152 0.0
C458 C 0.10754 0.66191 0.25259 0.0
N459 N 0.11445 0.65369 0.29597 0.0
N460 N 0.1313 0.65714 0.29393 0.0
C461 C 0.13559 0.66826 0.24927 0.0
C462 C 0.12068 0.67141 0.2215 0.0
C463 C 0.08864 0.66146 0.24188 0.0
H464 H 0.08353 0.63772 0.24913 0.0
H465 H 0.08584 0.66763 0.20322 0.0
H466 H 0.08194 0.67802 0.26667 0.0
O467 O 0.10853 0.67759 0.40507 0.0
O468 O 0.13704 0.68088 0.40253 0.0
H469 H 0.15279 0.69571 0.20362 0.0
H470 H 0.16158 0.65985 0.22728 0.0
C471 C 0.15315 0.67999 0.23591 0.0
H472 H 0.15878 0.69301 0.26708 0.0
H473 H 0.16898 0.70188 0.3775 0.0
O474 O 0.07831 0.64165 0.35016 0.0
C475 C 0.12261 0.68958 0.41991 0.0
Co476 Co 0.40537 0.64647 0.14152 0.0
Co477 Co 0.36466 0.65142 0.14005 0.0
C478 C 0.38273 0.59514 0.10133 0.0
O479 O 0.39743 0.60653 0.1121 0.0
O480 O 0.36884 0.60987 0.11056 0.0
C481 C 0.43907 0.61931 0.15918 0.0
O482 O 0.43061 0.59275 0.1613 0.0
C483 C 0.32725 0.64087 0.16231 0.0
C484 C 0.31704 0.68766 0.1442 0.0
C485 C 0.31215 0.65843 0.16097 0.0
N486 N 0.34042 0.65916 0.14743 0.0
N487 N 0.33413 0.687 0.13652 0.0
C488 C 0.32906 0.60711 0.17567 0.0
H489 H 0.34084 0.59706 0.15904 0.0
H490 H 0.33013 0.60487 0.21603 0.0
H491 H 0.31755 0.59378 0.16359 0.0
C492 C 0.39947 0.66445 0.24461 0.0
N493 N 0.39354 0.65524 0.20055 0.0
N494 N 0.37659 0.65651 0.20046 0.0
C495 C 0.37119 0.66622 0.2448 0.0
C496 C 0.38548 0.6718 0.2742 0.0
C497 C 0.41813 0.67013 0.25522 0.0
H498 H 0.42401 0.68332 0.22447 0.0
H499 H 0.42486 0.64732 0.258 0.0
H500 H 0.42005 0.68339 0.28966 0.0
O501 O 0.40132 0.68041 0.0938 0.0
O502 O 0.37279 0.68336 0.09273 0.0
H503 H 0.34753 0.6913 0.23685 0.0
H504 H 0.35105 0.6758 0.29781 0.0
C505 C 0.3527 0.67128 0.25808 0.0
H506 H 0.34519 0.65021 0.24847 0.0
H507 H 0.34155 0.70571 0.12402 0.0
O508 O 0.43077 0.64454 0.15215 0.0
C509 C 0.38746 0.69259 0.07775 0.0
Co510 Co 0.10469 0.35108 0.64373 0.0
Co511 Co 0.14521 0.3443 0.64717 0.0
C512 C 0.12839 0.40184 0.60741 0.0
O513 O 0.11344 0.3907 0.61573 0.0
O514 O 0.14201 0.38673 0.61856 0.0
C515 C 0.07089 0.37897 0.65614 0.0
O516 O 0.07937 0.40552 0.65744 0.0
C517 C 0.1813 0.35187 0.6824 0.0
C518 C 0.19253 0.30736 0.65674 0.0
C519 C 0.19633 0.3341 0.68318 0.0
N520 N 0.16922 0.33601 0.65716 0.0
N521 N 0.17615 0.30969 0.64133 0.0
C522 C 0.17793 0.38194 0.70855 0.0
H523 H 0.16386 0.38597 0.71228 0.0
H524 H 0.18413 0.38174 0.7452 0.0
H525 H 0.18355 0.40145 0.68705 0.0
C526 C 0.10861 0.33424 0.74787 0.0
N527 N 0.11547 0.34203 0.70426 0.0
N528 N 0.1323 0.33833 0.706 0.0
C529 C 0.13662 0.32735 0.75072 0.0
C530 C 0.12176 0.32462 0.77881 0.0
C531 C 0.08973 0.335 0.7588 0.0
H532 H 0.08445 0.35816 0.74849 0.0
H533 H 0.08708 0.33079 0.79819 0.0
H534 H 0.08308 0.31702 0.73644 0.0
O535 O 0.10907 0.31701 0.59607 0.0
O536 O 0.13758 0.31365 0.5978 0.0
H537 H 0.15371 0.29945 0.79601 0.0
H538 H 0.1627 0.33519 0.77244 0.0
C539 C 0.15413 0.31523 0.7638 0.0
H540 H 0.15964 0.30218 0.73248 0.0
H541 H 0.16951 0.29275 0.6214 0.0
O542 O 0.07921 0.35354 0.65139 0.0
C543 C 0.12307 0.30483 0.58107 0.0
H544 H 0.2136 0.20532 0.23257 0.0
H545 H 0.21835 0.1143 0.16578 0.0
H546 H 0.24261 0.20102 0.26459 0.0
H547 H 0.24789 0.11008 0.19766 0.0
H548 H 0.29561 0.11039 0.30918 0.0
H549 H 0.26638 0.10732 0.27467 0.0
H550 H 0.2707 0.2031 0.2261 0.0
H551 H 0.29937 0.20623 0.26102 0.0
C552 C 0.22087 0.18429 0.22479 0.0
C553 C 0.21372 0.16024 0.19641 0.0
C554 C 0.23756 0.18187 0.24299 0.0
C555 C 0.24772 0.15549 0.2328 0.0
C556 C 0.24037 0.1307 0.20611 0.0
C557 C 0.22347 0.13307 0.188 0.0
C558 C 0.29036 0.13049 0.29028 0.0
C559 C 0.29967 0.15864 0.28814 0.0
C560 C 0.27364 0.12877 0.27064 0.0
C561 C 0.26608 0.15519 0.2486 0.0
C562 C 0.27592 0.1826 0.24407 0.0
C563 C 0.2924 0.18437 0.26388 0.0
H564 H 0.22682 0.81848 0.87736 0.0
H565 H 0.20748 0.87263 0.75569 0.0
H566 H 0.25596 0.82329 0.84518 0.0
H567 H 0.23674 0.87751 0.72348 0.0
H568 H 0.29524 0.891 0.69333 0.0
H569 H 0.26764 0.89691 0.73654 0.0
H570 H 0.26815 0.79842 0.77118 0.0
H571 H 0.29547 0.79268 0.72889 0.0
C572 C 0.22883 0.83195 0.84422 0.0
C573 C 0.21482 0.84525 0.81922 0.0
C574 C 0.24552 0.83465 0.82574 0.0
C575 C 0.24862 0.8505 0.78152 0.0
C576 C 0.23477 0.86542 0.7579 0.0
C577 C 0.21799 0.86273 0.77651 0.0
C578 C 0.28957 0.87084 0.71103 0.0
C579 C 0.29756 0.84142 0.70806 0.0
C580 C 0.27372 0.87415 0.73533 0.0
C581 C 0.26579 0.84818 0.75761 0.0
C582 C 0.27403 0.819 0.75518 0.0
C583 C 0.28963 0.81565 0.73056 0.0
H584 H 0.72789 0.83943 0.6344 0.0
H585 H 0.70306 0.86609 0.76954 0.0
H586 H 0.75599 0.84679 0.67242 0.0
H587 H 0.73124 0.87404 0.80748 0.0
H588 H 0.78245 0.82921 0.86784 0.0
H589 H 0.75391 0.83642 0.83232 0.0
H590 H 0.77659 0.88438 0.70888 0.0
H591 H 0.8052 0.8766 0.7441 0.0
C592 C 0.72845 0.84758 0.67194 0.0
C593 C 0.71325 0.85246 0.69879 0.0
C594 C 0.74456 0.85201 0.69364 0.0
C595 C 0.74587 0.86103 0.743 0.0
C596 C 0.73065 0.86701 0.76941 0.0
C597 C 0.71449 0.86285 0.74747 0.0
C598 C 0.7813 0.84185 0.83359 0.0
C599 C 0.79607 0.85259 0.80905 0.0
C600 C 0.76493 0.84618 0.81338 0.0
C601 C 0.76296 0.86098 0.76774 0.0
C602 C 0.77769 0.8728 0.74404 0.0
C603 C 0.79408 0.86871 0.76454 0.0
H604 H 0.72954 0.16534 0.37166 0.0
H605 H 0.70635 0.11776 0.24888 0.0
H606 H 0.75795 0.15792 0.33548 0.0
H607 H 0.73484 0.1097 0.21306 0.0
H608 H 0.78315 0.15463 0.13671 0.0
H609 H 0.75522 0.14714 0.17567 0.0
H610 H 0.78057 0.12049 0.31021 0.0
H611 H 0.80857 0.12865 0.27135 0.0
C612 C 0.73057 0.15258 0.33751 0.0
C613 C 0.71572 0.14188 0.3134 0.0
C614 C 0.74687 0.14814 0.31693 0.0
C615 C 0.74867 0.13322 0.27135 0.0
C616 C 0.73386 0.12137 0.24815 0.0
C617 C 0.71754 0.12562 0.26901 0.0
C618 C 0.78276 0.1466 0.17434 0.0
C619 C 0.79807 0.14196 0.20078 0.0
C620 C 0.76674 0.14207 0.19659 0.0
C621 C 0.76565 0.13318 0.24607 0.0
C622 C 0.78099 0.12742 0.27206 0.0
C623 C 0.79704 0.1317 0.2496 0.0
H624 H 0.7277 0.65862 0.13493 0.0
H625 H 0.70278 0.63195 0.27002 0.0
H626 H 0.75578 0.65174 0.17336 0.0
H627 H 0.73093 0.62444 0.30834 0.0
H628 H 0.782 0.66934 0.36913 0.0
H629 H 0.75351 0.66218 0.33325 0.0
H630 H 0.77636 0.6143 0.2101 0.0
H631 H 0.80491 0.62207 0.2456 0.0
C632 C 0.72824 0.65059 0.17256 0.0
C633 C 0.71302 0.64553 0.19926 0.0
C634 C 0.74433 0.64643 0.19449 0.0
C635 C 0.7456 0.6375 0.24392 0.0
C636 C 0.73037 0.6314 0.27022 0.0
C637 C 0.71423 0.63531 0.24806 0.0
C638 C 0.7809 0.65674 0.33485 0.0
C639 C 0.79569 0.64599 0.3105 0.0
C640 C 0.76456 0.65245 0.31444 0.0
C641 C 0.76266 0.63766 0.26881 0.0
C642 C 0.77741 0.62587 0.24526 0.0
C643 C 0.79377 0.62995 0.26594 0.0
H644 H 0.7823 0.33225 0.63357 0.0
H645 H 0.80717 0.37159 0.76078 0.0
H646 H 0.75423 0.34009 0.67196 0.0
H647 H 0.77908 0.37985 0.79897 0.0
H648 H 0.7296 0.33438 0.8702 0.0
H649 H 0.7577 0.34121 0.83157 0.0
H650 H 0.73306 0.37971 0.70318 0.0
H651 H 0.70492 0.37251 0.74174 0.0
C652 C 0.78172 0.34325 0.66927 0.0
C653 C 0.79691 0.35165 0.69388 0.0
C654 C 0.76565 0.34793 0.69113 0.0
C655 C 0.76444 0.36065 0.73847 0.0
C656 C 0.77962 0.37 0.76246 0.0
C657 C 0.79571 0.36562 0.74031 0.0
C658 C 0.73024 0.34495 0.83416 0.0
C659 C 0.71509 0.35326 0.80925 0.0
C660 C 0.74633 0.34903 0.81213 0.0
C661 C 0.7476 0.36102 0.76432 0.0
C662 C 0.73247 0.37038 0.74004 0.0
C663 C 0.71636 0.36664 0.76238 0.0
H664 H 0.21484 0.29015 0.73065 0.0
H665 H 0.21478 0.38869 0.69654 0.0
H666 H 0.24244 0.29572 0.77148 0.0
H667 H 0.24263 0.39443 0.73839 0.0
H668 H 0.30284 0.3713 0.75504 0.0
H669 H 0.27341 0.37575 0.72398 0.0
H670 H 0.25512 0.31985 0.84502 0.0
H671 H 0.28444 0.31545 0.87602 0.0
C672 C 0.22067 0.31313 0.73233 0.0
C673 C 0.21256 0.33902 0.71072 0.0
C674 C 0.23644 0.31638 0.75613 0.0
C675 C 0.24467 0.34558 0.7586 0.0
C676 C 0.23657 0.37164 0.73714 0.0
C677 C 0.22057 0.36843 0.71365 0.0
C678 C 0.29249 0.3609 0.77597 0.0
C679 C 0.29598 0.34311 0.81815 0.0
C680 C 0.27561 0.36334 0.75801 0.0
C681 C 0.26197 0.34787 0.78176 0.0
C682 C 0.26539 0.33163 0.82545 0.0
C683 C 0.28218 0.32918 0.84327 0.0
H684 H 0.2139 0.70379 0.26683 0.0
H685 H 0.21367 0.60533 0.30143 0.0
H686 H 0.24127 0.69784 0.22491 0.0
H687 H 0.24131 0.5992 0.25852 0.0
H688 H 0.30159 0.62239 0.23931 0.0
H689 H 0.2723 0.61785 0.27156 0.0
H690 H 0.25335 0.67316 0.15071 0.0
H691 H 0.28251 0.67767 0.11858 0.0
C692 C 0.21965 0.68075 0.26504 0.0
C693 C 0.21155 0.65499 0.28709 0.0
C694 C 0.23529 0.67728 0.24062 0.0
C695 C 0.24339 0.64798 0.23794 0.0
C696 C 0.23533 0.62205 0.2599 0.0
C697 C 0.21945 0.62549 0.284 0.0
C698 C 0.29111 0.63261 0.21869 0.0
C699 C 0.29437 0.65034 0.17628 0.0
C700 C 0.27432 0.63012 0.23732 0.0
C701 C 0.26055 0.64547 0.21399 0.0
C702 C 0.26373 0.6615 0.16997 0.0
C703 C 0.28042 0.66401 0.15149 0.0
H704 H 0.96281 0.16637 0.14191 0.0
H705 H 0.96183 0.07068 0.19245 0.0
H706 H 0.99415 0.16534 0.14182 0.0
H707 H 0.99322 0.06993 0.1938 0.0
H708 H 0.04822 0.06831 0.13171 0.0
H709 H 0.01694 0.06922 0.13784 0.0
H710 H 0.01912 0.16375 0.19317 0.0
H711 H 0.05041 0.16312 0.18571 0.0
C712 C 0.96928 0.1452 0.1535 0.0
C713 C 0.9598 0.11855 0.16693 0.0
C714 C 0.98729 0.14467 0.15376 0.0
C715 C 0.99627 0.11753 0.16772 0.0
C716 C 0.98675 0.09107 0.18207 0.0
C717 C 0.96874 0.09155 0.18157 0.0
C718 C 0.04204 0.08925 0.14541 0.0
C719 C 0.05182 0.1157 0.15791 0.0
C720 C 0.02408 0.08971 0.14921 0.0
C721 C 0.01545 0.1166 0.16588 0.0
C722 C 0.02529 0.14283 0.1794 0.0
C723 C 0.04326 0.14241 0.17537 0.0
H724 H 0.54639 0.8957 0.56652 0.0
H725 H 0.54911 0.83875 0.69713 0.0
H726 H 0.51524 0.89896 0.5752 0.0
H727 H 0.51782 0.84225 0.70594 0.0
H728 H 0.4603 0.82513 0.66418 0.0
H729 H 0.49172 0.82327 0.66235 0.0
H730 H 0.49327 0.92199 0.6296 0.0
H731 H 0.46188 0.92385 0.63091 0.0
C732 C 0.54036 0.88395 0.59721 0.0
C733 C 0.55025 0.86688 0.63105 0.0
C734 C 0.52249 0.88602 0.60236 0.0
C735 C 0.51406 0.87092 0.64131 0.0
C736 C 0.52394 0.85392 0.67531 0.0
C737 C 0.54186 0.85203 0.67036 0.0
C738 C 0.46734 0.84648 0.65685 0.0
C739 C 0.45856 0.87459 0.64731 0.0
C740 C 0.48535 0.84544 0.6561 0.0
C741 C 0.49498 0.87244 0.64554 0.0
C742 C 0.48621 0.90069 0.63717 0.0
C743 C 0.46821 0.90178 0.63819 0.0
H744 H 0.962 0.83163 0.86546 0.0
H745 H 0.9612 0.91877 0.78545 0.0
H746 H 0.99333 0.83262 0.86574 0.0
H747 H 0.99262 0.91933 0.7845 0.0
H748 H 0.04778 0.92832 0.8446 0.0
H749 H 0.01648 0.92703 0.83896 0.0
H750 H 0.01826 0.82727 0.81497 0.0
H751 H 0.04955 0.82846 0.82194 0.0
C752 C 0.9685 0.85087 0.8475 0.0
C753 C 0.95905 0.87519 0.82562 0.0
C754 C 0.98651 0.85134 0.84737 0.0
C755 C 0.99557 0.87607 0.82516 0.0
C756 C 0.9861 0.90015 0.8026 0.0
C757 C 0.96806 0.89974 0.80289 0.0
C758 C 0.04151 0.90612 0.83791 0.0
C759 C 0.05118 0.87846 0.83405 0.0
C760 C 0.02353 0.9054 0.83438 0.0
C761 C 0.01477 0.87702 0.82667 0.0
C762 C 0.02452 0.84947 0.82178 0.0
C763 C 0.04249 0.85017 0.82552 0.0
H764 H 0.54995 0.16837 0.36355 0.0
H765 H 0.55086 0.07683 0.2969 0.0
H766 H 0.51862 0.16706 0.36465 0.0
H767 H 0.51944 0.07586 0.29683 0.0
H768 H 0.4646 0.06993 0.36041 0.0
H769 H 0.49589 0.07132 0.3539 0.0
H770 H 0.49354 0.16883 0.31321 0.0
H771 H 0.46228 0.16763 0.32089 0.0
C772 C 0.54347 0.14807 0.34867 0.0
C773 C 0.55294 0.12263 0.33034 0.0
C774 C 0.52546 0.1474 0.34902 0.0
C775 C 0.51646 0.12133 0.3309 0.0
C776 C 0.52594 0.09612 0.31177 0.0
C777 C 0.54397 0.09675 0.31153 0.0
C778 C 0.47075 0.09165 0.34992 0.0
C779 C 0.46093 0.11872 0.3415 0.0
C780 C 0.48871 0.0924 0.34588 0.0
C781 C 0.49729 0.12021 0.33314 0.0
C782 C 0.48741 0.14714 0.32387 0.0
C783 C 0.46946 0.14641 0.32806 0.0
H784 H 0.46046 0.67022 0.15895 0.0
H785 H 0.46096 0.5693 0.16469 0.0
H786 H 0.49187 0.67067 0.15673 0.0
H787 H 0.49238 0.56983 0.16312 0.0
H788 H 0.54579 0.58348 0.09239 0.0
H789 H 0.51465 0.58233 0.10262 0.0
H790 H 0.51787 0.65891 0.2052 0.0
H791 H 0.54913 0.66032 0.1946 0.0
C792 C 0.46726 0.64813 0.1602 0.0
C793 C 0.45817 0.61971 0.16162 0.0
C794 C 0.48528 0.64842 0.15922 0.0
C795 C 0.49464 0.62028 0.15946 0.0
C796 C 0.48555 0.5919 0.16217 0.0
C797 C 0.46754 0.59161 0.16335 0.0
C798 C 0.5399 0.60004 0.11728 0.0
C799 C 0.54998 0.62208 0.14251 0.0
C800 C 0.52204 0.59922 0.1234 0.0
C801 C 0.51376 0.6205 0.15477 0.0
C802 C 0.52383 0.64239 0.18039 0.0
C803 C 0.54175 0.64311 0.17447 0.0
H804 H 0.04952 0.3281 0.65579 0.0
H805 H 0.04903 0.42902 0.66152 0.0
H806 H 0.01813 0.32763 0.65426 0.0
H807 H 0.01761 0.42847 0.66079 0.0
H808 H 0.96392 0.41465 0.59174 0.0
H809 H 0.99507 0.41617 0.60138 0.0
H810 H 0.99238 0.33909 0.70337 0.0
H811 H 0.96112 0.33728 0.69329 0.0
C812 C 0.04273 0.35019 0.65715 0.0
C813 C 0.05181 0.37862 0.65838 0.0
C814 C 0.02471 0.34989 0.6566 0.0
C815 C 0.01535 0.37802 0.65718 0.0
C816 C 0.02444 0.40641 0.6596 0.0
C817 C 0.04245 0.40671 0.66027 0.0
C818 C 0.96993 0.39807 0.61638 0.0
C819 C 0.96002 0.37573 0.64154 0.0
C820 C 0.9878 0.3991 0.62217 0.0
C821 C 0.99623 0.37775 0.65314 0.0
C822 C 0.9863 0.35564 0.67883 0.0
C823 C 0.96838 0.35471 0.67322 0.0
H824 H 0.4648 0.40778 0.91603 0.0
H825 H 0.46133 0.33862 0.80117 0.0
H826 H 0.49595 0.40948 0.90601 0.0
H827 H 0.49261 0.34051 0.79097 0.0
H828 H 0.5501 0.32599 0.83619 0.0
H829 H 0.51866 0.32532 0.83853 0.0
H830 H 0.51807 0.42609 0.84648 0.0
H831 H 0.54947 0.42683 0.84457 0.0
C832 C 0.47066 0.39305 0.88844 0.0
C833 C 0.46055 0.373 0.8595 0.0
C834 C 0.48853 0.39417 0.88249 0.0
C835 C 0.49677 0.37515 0.84766 0.0
C836 C 0.48666 0.35525 0.81842 0.0
C837 C 0.46874 0.35429 0.82411 0.0
C838 C 0.54327 0.34802 0.83814 0.0
C839 C 0.55232 0.37645 0.84054 0.0
C840 C 0.52524 0.34763 0.83918 0.0
C841 C 0.51587 0.37564 0.84297 0.0
C842 C 0.52492 0.40409 0.84421 0.0
C843 C 0.54293 0.4045 0.84284 0.0
H844 H 0.96099 0.66665 0.31898 0.0
H845 H 0.96165 0.56859 0.35661 0.0
H846 H 0.99235 0.66657 0.3141 0.0
H847 H 0.99296 0.5687 0.35339 0.0
H848 H 0.04864 0.57132 0.30388 0.0
H849 H 0.01726 0.5718 0.30088 0.0
H850 H 0.01698 0.66396 0.36561 0.0
H851 H 0.04832 0.66387 0.36697 0.0
C852 C 0.96783 0.64509 0.32634 0.0
C853 C 0.9588 0.61765 0.33832 0.0
C854 C 0.98584 0.64507 0.32382 0.0
C855 C 0.99527 0.61766 0.33356 0.0
C856 C 0.98618 0.59014 0.34493 0.0
C857 C 0.96818 0.59012 0.34708 0.0
C858 C 0.04187 0.59173 0.3173 0.0
C859 C 0.051 0.61751 0.33578 0.0
C860 C 0.02385 0.59195 0.31584 0.0
C861 C 0.0145 0.61788 0.33316 0.0
C862 C 0.02369 0.64377 0.35124 0.0
C863 C 0.0417 0.64363 0.35235 0.0
H864 H 0.15574 0.07124 0.05433 0.0
H865 H 0.10358 0.04938 0.09756 0.0
H866 H 0.156 0.02583 0.0005 0.0
H867 H 0.10402 0.00343 0.0453 0.0
H868 H 0.10192 0.94532 0.90843 0.0
H869 H 0.10313 0.99132 0.96059 0.0
H870 H 0.15614 0.97036 0.99628 0.0
H871 H 0.15512 0.92502 0.94256 0.0
C872 C 0.14445 0.0564 0.05308 0.0
C873 C 0.12959 0.06405 0.07994 0.0
C874 C 0.14459 0.03033 0.02221 0.0
C875 C 0.12993 0.01118 0.01793 0.0
C876 C 0.11537 0.01813 0.04657 0.0
C877 C 0.11516 0.04433 0.07696 0.0
C878 C 0.11389 0.95071 0.92699 0.0
C879 C 0.1284 0.93141 0.92147 0.0
C880 C 0.11454 0.97693 0.95733 0.0
C881 C 0.12965 0.98432 0.98335 0.0
C882 C 0.14432 0.96554 0.9766 0.0
C883 C 0.14373 0.93948 0.94582 0.0
H884 H 0.40857 0.92362 0.54478 0.0
H885 H 0.35581 0.94119 0.58707 0.0
H886 H 0.40818 0.9692 0.49258 0.0
H887 H 0.35566 0.98829 0.53606 0.0
H888 H 0.35691 0.05484 0.403 0.0
H889 H 0.35588 0.00761 0.45358 0.0
H890 H 0.40871 0.02335 0.49724 0.0
H891 H 0.40996 0.06909 0.44544 0.0
C892 C 0.39693 0.93756 0.5436 0.0
C893 C 0.38226 0.92886 0.57051 0.0
C894 C 0.39673 0.9639 0.51366 0.0
C895 C 0.38195 0.98277 0.51034 0.0
C896 C 0.36721 0.97415 0.53729 0.0
C897 C 0.36734 0.94734 0.56688 0.0
C898 C 0.36832 0.04792 0.42309 0.0
C899 C 0.38357 0.06554 0.41969 0.0
C900 C 0.36769 0.02104 0.45245 0.0
C901 C 0.38224 0.01147 0.47939 0.0
C902 C 0.39737 0.02941 0.47618 0.0
C903 C 0.39808 0.05584 0.44646 0.0
H904 H 0.90973 0.94579 0.90665 0.0
H905 H 0.85643 0.92717 0.94178 0.0
H906 H 0.90917 0.99154 0.95955 0.0
H907 H 0.85607 0.97202 0.99638 0.0
H908 H 0.85708 0.07162 0.05713 0.0
H909 H 0.85651 0.02683 0.00227 0.0
H910 H 0.90883 0.00423 0.04352 0.0
H911 H 0.90962 0.04983 0.09664 0.0
C912 C 0.89788 0.95151 0.9256 0.0
C913 C 0.88314 0.9328 0.92005 0.0
C914 C 0.8976 0.97756 0.9564 0.0
C915 C 0.88265 0.9853 0.98295 0.0
C916 C 0.86777 0.96703 0.97627 0.0
C917 C 0.86798 0.94122 0.94495 0.0
C918 C 0.86839 0.05688 0.05488 0.0
C919 C 0.88342 0.06436 0.08107 0.0
C920 C 0.86807 0.03113 0.0234 0.0
C921 C 0.8827 0.01203 0.01789 0.0
C922 C 0.89748 0.01886 0.04574 0.0
C923 C 0.89788 0.04482 0.07667 0.0
H924 H 0.65355 0.0524 0.4088 0.0
H925 H 0.60077 0.07016 0.45069 0.0
H926 H 0.65368 0.00544 0.45976 0.0
H927 H 0.60114 0.02455 0.50317 0.0
H928 H 0.60013 0.925 0.55387 0.0
H929 H 0.60082 0.9704 0.50123 0.0
H930 H 0.65385 0.98721 0.54202 0.0
H931 H 0.65337 0.94031 0.59328 0.0
C932 C 0.64199 0.04628 0.42888 0.0
C933 C 0.6271 0.06485 0.42535 0.0
C934 C 0.64211 0.01955 0.4585 0.0
C935 C 0.62742 0.01108 0.48569 0.0
C936 C 0.61259 0.02982 0.48205 0.0
C937 C 0.61238 0.05614 0.45196 0.0
C938 C 0.61194 0.93843 0.55201 0.0
C939 C 0.62668 0.92911 0.57808 0.0
C940 C 0.61232 0.96467 0.52182 0.0
C941 C 0.62735 0.98276 0.51746 0.0
C942 C 0.64211 0.97362 0.5439 0.0
C943 C 0.6418 0.94693 0.57366 0.0
H944 H 0.60218 0.54941 0.09966 0.0
H945 H 0.65413 0.57297 0.05646 0.0
H946 H 0.60306 0.50356 0.04717 0.0
H947 H 0.65479 0.52779 0.00229 0.0
H948 H 0.65528 0.42738 0.94393 0.0
H949 H 0.65566 0.47267 0.99772 0.0
H950 H 0.60225 0.4908 0.96303 0.0
H951 H 0.60168 0.44472 0.9109 0.0
C952 C 0.61381 0.54475 0.079 0.0
C953 C 0.62807 0.56487 0.08216 0.0
C954 C 0.61426 0.51862 0.04845 0.0
C955 C 0.62889 0.51218 0.01978 0.0
C956 C 0.64335 0.53183 0.02406 0.0
C957 C 0.64297 0.55779 0.05513 0.0
C958 C 0.64365 0.4412 0.94742 0.0
C959 C 0.62841 0.43232 0.92336 0.0
C960 C 0.64389 0.46726 0.97824 0.0
C961 C 0.62893 0.48525 0.98527 0.0
C962 C 0.61388 0.47703 0.95957 0.0
C963 C 0.61359 0.45077 0.92923 0.0
H964 H 0.9085 0.44733 0.59752 0.0
H965 H 0.85615 0.42529 0.55629 0.0
H966 H 0.90776 0.49323 0.54495 0.0
H967 H 0.85563 0.47044 0.50208 0.0
H968 H 0.90892 0.55163 0.40785 0.0
H969 H 0.90827 0.50583 0.46064 0.0
H970 H 0.85518 0.52552 0.49727 0.0
H971 H 0.85564 0.57053 0.44282 0.0
C972 C 0.89681 0.45233 0.57731 0.0
C973 C 0.8824 0.43262 0.581 0.0
C974 C 0.89644 0.47848 0.54672 0.0
C975 C 0.88172 0.48533 0.51858 0.0
C976 C 0.86713 0.46609 0.52345 0.0
C977 C 0.86743 0.44013 0.55453 0.0
C978 C 0.89705 0.54598 0.42675 0.0
C979 C 0.88235 0.56478 0.4212 0.0
C980 C 0.89672 0.51989 0.45748 0.0
C981 C 0.88174 0.51218 0.4839 0.0
C982 C 0.86689 0.53053 0.47725 0.0
C983 C 0.86717 0.55642 0.44603 0.0
H984 H 0.40873 0.44582 0.90207 0.0
H985 H 0.35605 0.42481 0.94128 0.0
H986 H 0.40784 0.49223 0.95337 0.0
H987 H 0.35538 0.47052 0.99425 0.0
H988 H 0.35539 0.57135 0.05042 0.0
H989 H 0.35511 0.52574 0.99723 0.0
H990 H 0.40785 0.50575 0.03735 0.0
H991 H 0.40834 0.55208 0.08889 0.0
C992 C 0.39694 0.45115 0.92158 0.0
C993 C 0.38248 0.43157 0.91766 0.0
C994 C 0.39648 0.4776 0.95145 0.0
C995 C 0.38162 0.48494 0.97862 0.0
C996 C 0.36699 0.4658 0.97359 0.0
C997 C 0.36739 0.43952 0.94324 0.0
C998 C 0.36688 0.55706 0.04822 0.0
C999 C 0.38192 0.56546 0.07368 0.0
C1000 C 0.36671 0.53083 0.01774 0.0
C1001 C 0.38152 0.51219 0.01247 0.0
C1002 C 0.39635 0.51999 0.03947 0.0
C1003 C 0.39658 0.54641 0.06946 0.0
H1004 H 0.15572 0.56995 0.44009 0.0
H1005 H 0.10281 0.54843 0.40447 0.0
H1006 H 0.15678 0.52477 0.49448 0.0
H1007 H 0.10404 0.50268 0.45719 0.0
H1008 H 0.10358 0.44626 0.59538 0.0
H1009 H 0.10442 0.49176 0.54216 0.0
H1010 H 0.15675 0.46921 0.50114 0.0
H1011 H 0.1561 0.42421 0.55605 0.0
C1012 C 0.14443 0.55521 0.44307 0.0
C1013 C 0.12913 0.56293 0.41826 0.0
C1014 C 0.14503 0.52926 0.47428 0.0
C1015 C 0.1304 0.51032 0.48097 0.0
C1016 C 0.1154 0.51724 0.45413 0.0
C1017 C 0.11474 0.54332 0.42344 0.0
C1018 C 0.11534 0.4512 0.57546 0.0
C1019 C 0.12975 0.43152 0.5798 0.0
C1020 C 0.11577 0.47713 0.54447 0.0
C1021 C 0.13053 0.48387 0.51648 0.0
C1022 C 0.14518 0.46485 0.52224 0.0
C1023 C 0.14482 0.43903 0.55375 0.0
H1024 H 0.13888 0.33816 0.86314 0.0
H1025 H 0.10124 0.27531 0.80159 0.0
H1026 H 0.13785 0.30931 0.94067 0.0
H1027 H 0.10019 0.24636 0.87853 0.0
H1028 H 0.09299 0.21286 0.03369 0.0
H1029 H 0.0918 0.24903 0.96468 0.0
H1030 H 0.14723 0.25775 0.96815 0.0
H1031 H 0.14844 0.22218 0.03755 0.0
C1032 C 0.13027 0.31835 0.86654 0.0
C1033 C 0.12007 0.30898 0.8268 0.0
C1034 C 0.12972 0.30179 0.91068 0.0
C1035 C 0.11894 0.27555 0.91573 0.0
C1036 C 0.10841 0.26677 0.87616 0.0
C1037 C 0.109 0.28329 0.8321 0.0
C1038 C 0.10491 0.22274 0.02009 0.0
C1039 C 0.12082 0.21439 0.04093 0.0
C1040 C 0.10423 0.24336 0.9804 0.0
C1041 C 0.11943 0.25612 0.96078 0.0
C1042 C 0.13527 0.24861 0.98271 0.0
C1043 C 0.13596 0.228 0.02232 0.0
H1044 H 0.35842 0.77875 0.53084 0.0
H1045 H 0.41396 0.77201 0.53835 0.0
H1046 H 0.35836 0.74428 0.45999 0.0
H1047 H 0.41377 0.73738 0.46712 0.0
H1048 H 0.40241 0.65523 0.35812 0.0
H1049 H 0.40279 0.6837 0.43636 0.0
H1050 H 0.36955 0.75419 0.37395 0.0
H1051 H 0.36955 0.72632 0.29614 0.0
C1052 C 0.37061 0.76965 0.51783 0.0
C1053 C 0.38622 0.77847 0.53995 0.0
C1054 C 0.37055 0.74998 0.47713 0.0
C1055 C 0.38607 0.73849 0.45787 0.0
C1056 C 0.40162 0.74588 0.4814 0.0
C1057 C 0.40171 0.76581 0.522 0.0
C1058 C 0.39525 0.67685 0.36142 0.0
C1059 C 0.38576 0.68844 0.32158 0.0
C1060 C 0.39546 0.69306 0.40595 0.0
C1061 C 0.38602 0.72088 0.41126 0.0
C1062 C 0.37664 0.73245 0.37117 0.0
C1063 C 0.37662 0.71651 0.32672 0.0
H1064 H 0.14791 0.77241 0.96169 0.0
H1065 H 0.09255 0.78321 0.96616 0.0
H1066 H 0.1465 0.73702 0.03136 0.0
H1067 H 0.09117 0.7473 0.03545 0.0
H1068 H 0.10069 0.72143 0.19877 0.0
H1069 H 0.09981 0.75021 0.12161 0.0
H1070 H 0.13661 0.6857 0.05928 0.0
H1071 H 0.13745 0.65701 0.13697 0.0
C1072 C 0.13541 0.76694 0.97709 0.0
C1073 C 0.12036 0.78092 0.95858 0.0
C1074 C 0.1346 0.74646 0.01686 0.0
C1075 C 0.11873 0.73947 0.03907 0.0
C1076 C 0.10361 0.75257 0.01952 0.0
C1077 C 0.10441 0.77303 0.97966 0.0
C1078 C 0.10829 0.71309 0.16817 0.0
C1079 C 0.11905 0.68698 0.17344 0.0
C1080 C 0.10779 0.72951 0.124 0.0
C1081 C 0.11813 0.72022 0.0843 0.0
C1082 C 0.12862 0.6936 0.08935 0.0
C1083 C 0.12907 0.67713 0.13358 0.0
H1084 H 0.40428 0.33941 0.63564 0.0
H1085 H 0.3718 0.26805 0.69855 0.0
H1086 H 0.40512 0.31022 0.5581 0.0
H1087 H 0.37223 0.23949 0.62132 0.0
H1088 H 0.36132 0.2148 0.46369 0.0
H1089 H 0.36109 0.24902 0.53478 0.0
H1090 H 0.4165 0.25621 0.52849 0.0
H1091 H 0.41687 0.22173 0.457 0.0
C1092 C 0.3973 0.31757 0.63271 0.0
C1093 C 0.38779 0.30611 0.67261 0.0
C1094 C 0.39778 0.30094 0.58857 0.0
C1095 C 0.38857 0.27283 0.58368 0.0
C1096 C 0.37917 0.2614 0.62381 0.0
C1097 C 0.37888 0.27775 0.66791 0.0
C1098 C 0.37348 0.22386 0.47698 0.0
C1099 C 0.38914 0.21522 0.45491 0.0
C1100 C 0.37332 0.24339 0.51783 0.0
C1101 C 0.38878 0.25496 0.53731 0.0
C1102 C 0.4044 0.24764 0.51402 0.0
C1103 C 0.40459 0.2278 0.47328 0.0
H1104 H 0.9036 0.65753 0.13672 0.0
H1105 H 0.87154 0.72847 0.20224 0.0
H1106 H 0.90405 0.68734 0.05965 0.0
H1107 H 0.87162 0.75771 0.12554 0.0
H1108 H 0.85967 0.78331 0.96858 0.0
H1109 H 0.85988 0.74885 0.03957 0.0
H1110 H 0.91522 0.74132 0.02997 0.0
H1111 H 0.91513 0.77597 0.95866 0.0
C1112 C 0.89665 0.67944 0.13447 0.0
C1113 C 0.88732 0.69057 0.1749 0.0
C1114 C 0.89691 0.69642 0.0906 0.0
C1115 C 0.88768 0.72457 0.08658 0.0
C1116 C 0.87855 0.73576 0.12735 0.0
C1117 C 0.87848 0.71905 0.17115 0.0
C1118 C 0.8719 0.77411 0.98115 0.0
C1119 C 0.88741 0.78268 0.95821 0.0
C1120 C 0.872 0.75447 0.02194 0.0
C1121 C 0.88758 0.74272 0.04043 0.0
C1122 C 0.90303 0.75002 0.01628 0.0
C1123 C 0.90296 0.76997 0.97565 0.0
H1124 H 0.59724 0.22378 0.45849 0.0
H1125 H 0.65237 0.2126 0.47331 0.0
H1126 H 0.59705 0.25816 0.5299 0.0
H1127 H 0.65207 0.24695 0.54443 0.0
H1128 H 0.63923 0.26771 0.706 0.0
H1129 H 0.63953 0.23887 0.62899 0.0
H1130 H 0.60843 0.31072 0.56162 0.0
H1131 H 0.60843 0.34 0.63914 0.0
C1132 C 0.60934 0.22892 0.47656 0.0
C1133 C 0.6248 0.21515 0.46051 0.0
C1134 C 0.60921 0.24872 0.51726 0.0
C1135 C 0.62451 0.2549 0.54288 0.0
C1136 C 0.64006 0.24219 0.52568 0.0
C1137 C 0.64022 0.22263 0.48482 0.0
C1138 C 0.63263 0.27748 0.67455 0.0
C1139 C 0.62404 0.30622 0.67799 0.0
C1140 C 0.63281 0.26104 0.63054 0.0
C1141 C 0.6242 0.2728 0.58923 0.0
C1142 C 0.61519 0.3012 0.59297 0.0
C1143 C 0.61517 0.31788 0.63708 0.0
H1144 H 0.91617 0.22077 0.04292 0.0
H1145 H 0.86072 0.21369 0.03194 0.0
H1146 H 0.91648 0.255 0.97097 0.0
H1147 H 0.86117 0.24755 0.96032 0.0
H1148 H 0.87345 0.26639 0.79744 0.0
H1149 H 0.87375 0.23728 0.87433 0.0
H1150 H 0.90466 0.30959 0.9409 0.0
H1151 H 0.90392 0.33932 0.86373 0.0
C1152 C 0.90406 0.22674 0.02557 0.0
C1153 C 0.88844 0.21425 0.04293 0.0
C1154 C 0.90425 0.24641 0.98458 0.0
C1155 C 0.88887 0.25358 0.95999 0.0
C1156 C 0.87323 0.24204 0.97835 0.0
C1157 C 0.87299 0.22274 0.01951 0.0
C1158 C 0.88012 0.27623 0.8287 0.0
C1159 C 0.8884 0.30528 0.82517 0.0
C1160 C 0.88032 0.25959 0.87256 0.0
C1161 C 0.88906 0.27141 0.91357 0.0
C1162 C 0.89782 0.30005 0.90973 0.0
C1163 C 0.8974 0.31698 0.86582 0.0
H1164 H 0.6496 0.77366 0.54048 0.0
H1165 H 0.59392 0.77653 0.54306 0.0
H1166 H 0.64863 0.7384 0.47065 0.0
H1167 H 0.593 0.74071 0.47377 0.0
H1168 H 0.60058 0.71756 0.30933 0.0
H1169 H 0.59994 0.74552 0.38705 0.0
H1170 H 0.64067 0.68627 0.44215 0.0
H1171 H 0.64127 0.65835 0.36383 0.0
C1172 C 0.63714 0.76642 0.52667 0.0
C1173 C 0.62184 0.77822 0.54709 0.0
C1174 C 0.63659 0.74602 0.48678 0.0
C1175 C 0.62074 0.73693 0.46645 0.0
C1176 C 0.60543 0.74769 0.48814 0.0
C1177 C 0.60596 0.7681 0.52801 0.0
C1178 C 0.60912 0.71011 0.33847 0.0
C1179 C 0.62088 0.68571 0.33094 0.0
C1180 C 0.60876 0.72609 0.38299 0.0
C1181 C 0.62023 0.71807 0.42085 0.0
C1182 C 0.63178 0.69319 0.41354 0.0
C1183 C 0.63211 0.67716 0.36893 0.0
H1184 H 0.59315 0.71438 0.03817 0.0
H1185 H 0.64862 0.7232 0.04289 0.0
H1186 H 0.59224 0.75021 0.96866 0.0
H1187 H 0.6477 0.7583 0.97297 0.0
H1188 H 0.64 0.83763 0.86546 0.0
H1189 H 0.63891 0.80931 0.94346 0.0
H1190 H 0.60055 0.74706 0.88305 0.0
H1191 H 0.60161 0.77553 0.80578 0.0
C1192 C 0.60513 0.7241 0.02467 0.0
C1193 C 0.62096 0.71568 0.04591 0.0
C1194 C 0.60461 0.74451 0.98467 0.0
C1195 C 0.61991 0.75694 0.96505 0.0
C1196 C 0.63566 0.74943 0.98746 0.0
C1197 C 0.63619 0.72908 0.02742 0.0
C1198 C 0.63126 0.81805 0.86932 0.0
C1199 C 0.62079 0.80885 0.83003 0.0
C1200 C 0.63065 0.80179 0.91375 0.0
C1201 C 0.61961 0.77596 0.91952 0.0
C1202 C 0.60894 0.7672 0.88023 0.0
C1203 C 0.60956 0.78345 0.83594 0.0
H1204 H 0.87151 0.15903 0.36412 0.0
H1205 H 0.90939 0.22181 0.30343 0.0
H1206 H 0.87221 0.18801 0.4415 0.0
H1207 H 0.91011 0.25089 0.38021 0.0
H1208 H 0.9173 0.28362 0.53567 0.0
H1209 H 0.91841 0.24784 0.46627 0.0
H1210 H 0.86297 0.23943 0.46967 0.0
H1211 H 0.86183 0.27462 0.53951 0.0
C1212 C 0.88008 0.17889 0.36766 0.0
C1213 C 0.89052 0.18809 0.32827 0.0
C1214 C 0.88045 0.19552 0.41172 0.0
C1215 C 0.89125 0.22171 0.41703 0.0
C1216 C 0.9019 0.23049 0.37768 0.0
C1217 C 0.90149 0.21389 0.33371 0.0
C1218 C 0.90536 0.27389 0.52198 0.0
C1219 C 0.88947 0.28222 0.54296 0.0
C1220 C 0.906 0.2535 0.48204 0.0
C1221 C 0.89077 0.24096 0.46226 0.0
C1222 C 0.87495 0.24842 0.48433 0.0
C1223 C 0.8743 0.2688 0.52421 0.0
H1224 H 0.60666 0.15857 0.14163 0.0
H1225 H 0.64209 0.22583 0.20251 0.0
H1226 H 0.60619 0.18805 0.06429 0.0
H1227 H 0.64194 0.25475 0.12557 0.0
H1228 H 0.65199 0.28019 0.96808 0.0
H1229 H 0.65191 0.24557 0.03879 0.0
H1230 H 0.59635 0.24234 0.03511 0.0
H1231 H 0.59632 0.2771 0.96395 0.0
C1232 C 0.61438 0.17955 0.13826 0.0
C1233 C 0.62463 0.18973 0.17749 0.0
C1234 C 0.6141 0.19637 0.09425 0.0
C1235 C 0.6242 0.22343 0.08884 0.0
C1236 C 0.63432 0.23361 0.12837 0.0
C1237 C 0.63444 0.21706 0.17232 0.0
C1238 C 0.63973 0.27192 0.98189 0.0
C1239 C 0.62414 0.28173 0.96063 0.0
C1240 C 0.63971 0.25216 0.02253 0.0
C1241 C 0.62412 0.24158 0.04266 0.0
C1242 C 0.60855 0.25011 0.02016 0.0
C1243 C 0.60855 0.27012 0.97959 0.0
H1244 H 0.86017 0.71657 0.46584 0.0
H1245 H 0.91584 0.71924 0.45997 0.0
H1246 H 0.86061 0.75079 0.53691 0.0
H1247 H 0.91616 0.75367 0.53148 0.0
H1248 H 0.90575 0.83772 0.6386 0.0
H1249 H 0.90626 0.80822 0.56131 0.0
H1250 H 0.87112 0.74071 0.62344 0.0
H1251 H 0.87096 0.76961 0.70034 0.0
C1252 C 0.87251 0.72468 0.47932 0.0
C1253 C 0.88799 0.71484 0.45747 0.0
C1254 C 0.87274 0.7442 0.52017 0.0
C1255 C 0.88842 0.75456 0.53993 0.0
C1256 C 0.90389 0.74605 0.51684 0.0
C1257 C 0.90369 0.72624 0.47606 0.0
C1258 C 0.8982 0.81652 0.63546 0.0
C1259 C 0.88808 0.80616 0.67487 0.0
C1260 C 0.8985 0.7997 0.59148 0.0
C1261 C 0.88854 0.77247 0.58629 0.0
C1262 C 0.87862 0.762 0.62608 0.0
C1263 C 0.8785 0.77854 0.67 0.0
H1264 H 0.41875 0.28365 0.96344 0.0
H1265 H 0.36346 0.27178 0.95795 0.0
H1266 H 0.42019 0.24744 0.03237 0.0
H1267 H 0.36493 0.23611 0.02723 0.0
H1268 H 0.37421 0.15595 0.13247 0.0
H1269 H 0.37509 0.18482 0.05491 0.0
H1270 H 0.4113 0.24998 0.11837 0.0
H1271 H 0.41037 0.22108 0.19535 0.0
C1272 C 0.40692 0.27317 0.97664 0.0
C1273 C 0.39097 0.28085 0.95539 0.0
C1274 C 0.40775 0.25253 0.01627 0.0
C1275 C 0.39267 0.23905 0.03542 0.0
C1276 C 0.37681 0.24584 0.01303 0.0
C1277 C 0.37596 0.2665 0.9735 0.0
C1278 C 0.38246 0.17627 0.12936 0.0
C1279 C 0.39227 0.1863 0.16951 0.0
C1280 C 0.38293 0.19283 0.08521 0.0
C1281 C 0.39327 0.21968 0.08051 0.0
C1282 C 0.40343 0.22911 0.12048 0.0
C1283 C 0.4029 0.21262 0.16457 0.0
H1284 H 0.10658 0.83804 0.63831 0.0
H1285 H 0.13879 0.7672 0.70371 0.0
H1286 H 0.10584 0.80797 0.56157 0.0
H1287 H 0.13849 0.7378 0.62723 0.0
H1288 H 0.15022 0.7131 0.46941 0.0
H1289 H 0.15002 0.74739 0.54044 0.0
H1290 H 0.09457 0.75304 0.53323 0.0
H1291 H 0.09464 0.71841 0.46184 0.0
C1292 C 0.11351 0.81612 0.63611 0.0
C1293 C 0.12294 0.80508 0.67645 0.0
C1294 C 0.11308 0.79898 0.59244 0.0
C1295 C 0.12227 0.7708 0.58847 0.0
C1296 C 0.13156 0.75975 0.62906 0.0
C1297 C 0.13177 0.77659 0.6727 0.0
C1298 C 0.13796 0.72181 0.48251 0.0
C1299 C 0.12242 0.71274 0.46017 0.0
C1300 C 0.13787 0.74137 0.52332 0.0
C1301 C 0.12228 0.75259 0.54244 0.0
C1302 C 0.10677 0.74474 0.51901 0.0
C1303 C 0.10682 0.72482 0.47836 0.0
H1304 H 0.37058 0.83997 0.85957 0.0
H1305 H 0.40806 0.7762 0.79951 0.0
H1306 H 0.37138 0.81159 0.9376 0.0
H1307 H 0.40894 0.74789 0.87697 0.0
H1308 H 0.41621 0.71574 0.03227 0.0
H1309 H 0.41737 0.75189 0.9633 0.0
H1310 H 0.36191 0.75973 0.9657 0.0
H1311 H 0.3607 0.72406 0.0351 0.0
C1312 C 0.3791 0.82008 0.8634 0.0
C1313 C 0.38934 0.81033 0.82392 0.0
C1314 C 0.37954 0.80381 0.90782 0.0
C1315 C 0.39025 0.77754 0.91346 0.0
C1316 C 0.40079 0.76835 0.87414 0.0
C1317 C 0.40029 0.78453 0.82978 0.0
C1318 C 0.40427 0.72544 0.0185 0.0
C1319 C 0.38835 0.71674 0.03894 0.0
C1320 C 0.40494 0.74605 0.97884 0.0
C1321 C 0.38973 0.75847 0.95884 0.0
C1322 C 0.37387 0.75079 0.98055 0.0
C1323 C 0.37318 0.73014 0.02014 0.0
H1324 H 0.13922 0.22758 0.29798 0.0
H1325 H 0.10595 0.15747 0.36102 0.0
H1326 H 0.13894 0.25643 0.37492 0.0
H1327 H 0.10524 0.18702 0.4383 0.0
H1328 H 0.09487 0.27694 0.53881 0.0
H1329 H 0.09458 0.24234 0.4674 0.0
H1330 H 0.1501 0.24552 0.46174 0.0
H1331 H 0.15053 0.27979 0.53275 0.0
C1332 C 0.13197 0.21824 0.32856 0.0
C1333 C 0.12284 0.1901 0.32403 0.0
C1334 C 0.13177 0.23476 0.37248 0.0
C1335 C 0.12222 0.22373 0.41259 0.0
C1336 C 0.1127 0.19596 0.40782 0.0
C1337 C 0.1131 0.17913 0.36384 0.0
C1338 C 0.10702 0.26996 0.52268 0.0
C1339 C 0.12271 0.28142 0.54119 0.0
C1340 C 0.10683 0.25006 0.482 0.0
C1341 C 0.12231 0.24159 0.45894 0.0
C1342 C 0.13798 0.25205 0.47856 0.0
C1343 C 0.1382 0.27161 0.51935 0.0
loop_
_geom_bond_atom_site_label_1
_geom_bond_atom_site_label_2
_geom_bond_distance
_geom_bond_site_symmetry_2
_ccdc_geom_bond_type
Co0 O3 1.970 . S
Co0 N17 1.989 . S
Co0 O25 1.967 . S
Co0 O32 1.920 . S
Co1 O4 1.966 . S
Co1 N10 2.022 . S
Co1 N18 1.993 . S
Co1 O26 1.941 . S
C2 O3 1.258 . S
C2 O4 1.263 . S
O3 Co0 1.970 . S
O3 C2 1.258 . S
O4 Co1 1.966 . S
O4 C2 1.263 . S
C5 O6 1.235 . S
C5 O32 1.289 . S
O6 C5 1.235 . S
C7 C9 1.400 . S
C7 N10 1.351 . S
C7 C12 1.501 . S
C8 C9 1.387 . S
C8 N11 1.341 . S
C9 C7 1.400 . S
C9 C8 1.387 . S
N10 Co1 2.022 . S
N10 C7 1.351 . S
N10 N11 1.365 . S
N11 C8 1.341 . S
N11 N10 1.365 . S
N11 H31 0.862 . S
C12 C7 1.501 . S
C12 H13 0.961 . S
C12 H14 0.961 . S
C12 H15 0.960 . S
H13 C12 0.961 . S
H14 C12 0.961 . S
H15 C12 0.960 . S
C16 N17 1.342 . S
C16 C20 1.401 . S
C16 C21 1.499 . S
N17 Co0 1.989 . S
N17 C16 1.342 . S
N17 N18 1.388 . S
N18 Co1 1.993 . S
N18 N17 1.388 . S
N18 C19 1.346 . S
C19 N18 1.346 . S
C19 C20 1.396 . S
C19 C29 1.510 . S
C20 C16 1.401 . S
C20 C19 1.396 . S
C21 C16 1.499 . S
C21 H22 0.959 . S
C21 H23 0.960 . S
C21 H24 0.961 . S
H22 C21 0.959 . S
H23 C21 0.960 . S
H24 C21 0.961 . S
O25 Co0 1.967 . S
O25 C33 1.258 . S
O26 Co1 1.941 . S
O26 C33 1.266 . S
H27 C29 0.959 . S
H28 C29 0.961 . S
C29 C19 1.510 . S
C29 H27 0.959 . S
C29 H28 0.961 . S
C29 H30 0.960 . S
H30 C29 0.960 . S
H31 N11 0.862 . S
O32 Co0 1.920 . S
O32 C5 1.289 . S
C33 O25 1.258 . S
C33 O26 1.266 . S
Co34 O37 1.970 . S
Co34 N51 1.989 . S
Co34 O59 1.967 . S
Co34 O66 1.920 . S
Co35 O38 1.966 . S
Co35 N44 2.022 . S
Co35 N52 1.993 . S
Co35 O60 1.941 . S
C36 O37 1.258 . S
C36 O38 1.263 . S
O37 Co34 1.970 . S
O37 C36 1.258 . S
O38 Co35 1.966 . S
O38 C36 1.263 . S
C39 O40 1.235 . S
C39 O66 1.289 . S
O40 C39 1.235 . S
C41 C43 1.400 . S
C41 N44 1.351 . S
C41 C46 1.501 . S
C42 C43 1.387 . S
C42 N45 1.341 . S
C43 C41 1.400 . S
C43 C42 1.387 . S
N44 Co35 2.022 . S
N44 C41 1.351 . S
N44 N45 1.365 . S
N45 C42 1.341 . S
N45 N44 1.365 . S
N45 H65 0.862 . S
C46 C41 1.501 . S
C46 H47 0.961 . S
C46 H48 0.961 . S
C46 H49 0.960 . S
H47 C46 0.961 . S
H48 C46 0.961 . S
H49 C46 0.960 . S
C50 N51 1.342 . S
C50 C54 1.401 . S
C50 C55 1.499 . S
N51 Co34 1.989 . S
N51 C50 1.342 . S
N51 N52 1.388 . S
N52 Co35 1.993 . S
N52 N51 1.388 . S
N52 C53 1.346 . S
C53 N52 1.346 . S
C53 C54 1.396 . S
C53 C63 1.510 . S
C54 C50 1.401 . S
C54 C53 1.396 . S
C55 C50 1.499 . S
C55 H56 0.959 . S
C55 H57 0.960 . S
C55 H58 0.961 . S
H56 C55 0.959 . S
H57 C55 0.960 . S
H58 C55 0.961 . S
O59 Co34 1.967 . S
O59 C67 1.258 . S
O60 Co35 1.941 . S
O60 C67 1.266 . S
H61 C63 0.959 . S
H62 C63 0.961 . S
C63 C53 1.510 . S
C63 H61 0.959 . S
C63 H62 0.961 . S
C63 H64 0.960 . S
H64 C63 0.960 . S
H65 N45 0.862 . S
O66 Co34 1.920 . S
O66 C39 1.289 . S
C67 O59 1.258 . S
C67 O60 1.266 . S
Co68 O71 1.970 . S
Co68 N85 1.989 . S
Co68 O93 1.967 . S
Co68 O100 1.920 . S
Co69 O72 1.966 . S
Co69 N78 2.022 . S
Co69 N86 1.993 . S
Co69 O94 1.941 . S
C70 O71 1.258 . S
C70 O72 1.263 . S
O71 Co68 1.970 . S
O71 C70 1.258 . S
O72 Co69 1.966 . S
O72 C70 1.263 . S
C73 O74 1.235 . S
C73 O100 1.289 . S
O74 C73 1.235 . S
C75 C77 1.400 . S
C75 N78 1.351 . S
C75 C80 1.501 . S
C76 C77 1.387 . S
C76 N79 1.341 . S
C77 C75 1.400 . S
C77 C76 1.387 . S
N78 Co69 2.022 . S
N78 C75 1.351 . S
N78 N79 1.365 . S
N79 C76 1.341 . S
N79 N78 1.365 . S
N79 H99 0.862 . S
C80 C75 1.501 . S
C80 H81 0.961 . S
C80 H82 0.961 . S
C80 H83 0.960 . S
H81 C80 0.961 . S
H82 C80 0.961 . S
H83 C80 0.960 . S
C84 N85 1.342 . S
C84 C88 1.401 . S
C84 C89 1.499 . S
N85 Co68 1.989 . S
N85 C84 1.342 . S
N85 N86 1.388 . S
N86 Co69 1.993 . S
N86 N85 1.388 . S
N86 C87 1.346 . S
C87 N86 1.346 . S
C87 C88 1.396 . S
C87 C97 1.510 . S
C88 C84 1.401 . S
C88 C87 1.396 . S
C89 C84 1.499 . S
C89 H90 0.959 . S
C89 H91 0.960 . S
C89 H92 0.961 . S
H90 C89 0.959 . S
H91 C89 0.960 . S
H92 C89 0.961 . S
O93 Co68 1.967 . S
O93 C101 1.258 . S
O94 Co69 1.941 . S
O94 C101 1.266 . S
H95 C97 0.959 . S
H96 C97 0.961 . S
C97 C87 1.510 . S
C97 H95 0.959 . S
C97 H96 0.961 . S
C97 H98 0.960 . S
H98 C97 0.960 . S
H99 N79 0.862 . S
O100 Co68 1.920 . S
O100 C73 1.289 . S
C101 O93 1.258 . S
C101 O94 1.266 . S
Co102 O105 1.970 . S
Co102 N119 1.989 . S
Co102 O127 1.967 . S
Co102 O134 1.920 . S
Co103 O106 1.966 . S
Co103 N112 2.022 . S
Co103 N120 1.993 . S
Co103 O128 1.941 . S
C104 O105 1.258 . S
C104 O106 1.263 . S
O105 Co102 1.970 . S
O105 C104 1.258 . S
O106 Co103 1.966 . S
O106 C104 1.263 . S
C107 O108 1.235 . S
C107 O134 1.289 . S
O108 C107 1.235 . S
C109 C111 1.400 . S
C109 N112 1.351 . S
C109 C114 1.501 . S
C110 C111 1.387 . S
C110 N113 1.341 . S
C111 C109 1.400 . S
C111 C110 1.387 . S
N112 Co103 2.022 . S
N112 C109 1.351 . S
N112 N113 1.365 . S
N113 C110 1.341 . S
N113 N112 1.365 . S
N113 H133 0.862 . S
C114 C109 1.501 . S
C114 H115 0.961 . S
C114 H116 0.961 . S
C114 H117 0.960 . S
H115 C114 0.961 . S
H116 C114 0.961 . S
H117 C114 0.960 . S
C118 N119 1.342 . S
C118 C122 1.401 . S
C118 C123 1.499 . S
N119 Co102 1.989 . S
N119 C118 1.342 . S
N119 N120 1.388 . S
N120 Co103 1.993 . S
N120 N119 1.388 . S
N120 C121 1.346 . S
C121 N120 1.346 . S
C121 C122 1.396 . S
C121 C131 1.510 . S
C122 C118 1.401 . S
C122 C121 1.396 . S
C123 C118 1.499 . S
C123 H124 0.959 . S
C123 H125 0.960 . S
C123 H126 0.961 . S
H124 C123 0.959 . S
H125 C123 0.960 . S
H126 C123 0.961 . S
O127 Co102 1.967 . S
O127 C135 1.258 . S
O128 Co103 1.941 . S
O128 C135 1.266 . S
H129 C131 0.959 . S
H130 C131 0.961 . S
C131 C121 1.510 . S
C131 H129 0.959 . S
C131 H130 0.961 . S
C131 H132 0.960 . S
H132 C131 0.960 . S
H133 N113 0.862 . S
O134 Co102 1.920 . S
O134 C107 1.289 . S
C135 O127 1.258 . S
C135 O128 1.266 . S
Co136 O139 1.970 . S
Co136 N153 1.989 . S
Co136 O161 1.967 . S
Co136 O168 1.920 . S
Co137 O140 1.966 . S
Co137 N146 2.022 . S
Co137 N154 1.993 . S
Co137 O162 1.941 . S
C138 O139 1.258 . S
C138 O140 1.263 . S
O139 Co136 1.970 . S
O139 C138 1.258 . S
O140 Co137 1.966 . S
O140 C138 1.263 . S
C141 O142 1.235 . S
C141 O168 1.289 . S
O142 C141 1.235 . S
C143 C145 1.400 . S
C143 N146 1.351 . S
C143 C148 1.501 . S
C144 C145 1.387 . S
C144 N147 1.341 . S
C145 C143 1.400 . S
C145 C144 1.387 . S
N146 Co137 2.022 . S
N146 C143 1.351 . S
N146 N147 1.365 . S
N147 C144 1.341 . S
N147 N146 1.365 . S
N147 H167 0.862 . S
C148 C143 1.501 . S
C148 H149 0.961 . S
C148 H150 0.961 . S
C148 H151 0.960 . S
H149 C148 0.961 . S
H150 C148 0.961 . S
H151 C148 0.960 . S
C152 N153 1.342 . S
C152 C156 1.401 . S
C152 C157 1.499 . S
N153 Co136 1.989 . S
N153 C152 1.342 . S
N153 N154 1.388 . S
N154 Co137 1.993 . S
N154 N153 1.388 . S
N154 C155 1.346 . S
C155 N154 1.346 . S
C155 C156 1.396 . S
C155 C165 1.510 . S
C156 C152 1.401 . S
C156 C155 1.396 . S
C157 C152 1.499 . S
C157 H158 0.959 . S
C157 H159 0.960 . S
C157 H160 0.961 . S
H158 C157 0.959 . S
H159 C157 0.960 . S
H160 C157 0.961 . S
O161 Co136 1.967 . S
O161 C169 1.258 . S
O162 Co137 1.941 . S
O162 C169 1.266 . S
H163 C165 0.959 . S
H164 C165 0.961 . S
C165 C155 1.510 . S
C165 H163 0.959 . S
C165 H164 0.961 . S
C165 H166 0.960 . S
H166 C165 0.960 . S
H167 N147 0.862 . S
O168 Co136 1.920 . S
O168 C141 1.289 . S
C169 O161 1.258 . S
C169 O162 1.266 . S
Co170 O173 1.970 . S
Co170 N187 1.989 . S
Co170 O195 1.967 . S
Co170 O202 1.920 . S
Co171 O174 1.966 . S
Co171 N180 2.022 . S
Co171 N188 1.993 . S
Co171 O196 1.941 . S
C172 O173 1.258 . S
C172 O174 1.263 . S
O173 Co170 1.970 . S
O173 C172 1.258 . S
O174 Co171 1.966 . S
O174 C172 1.263 . S
C175 O176 1.235 . S
C175 O202 1.289 . S
O176 C175 1.235 . S
C177 C179 1.400 . S
C177 N180 1.351 . S
C177 C182 1.501 . S
C178 C179 1.387 . S
C178 N181 1.341 . S
C179 C177 1.400 . S
C179 C178 1.387 . S
N180 Co171 2.022 . S
N180 C177 1.351 . S
N180 N181 1.365 . S
N181 C178 1.341 . S
N181 N180 1.365 . S
N181 H201 0.862 . S
C182 C177 1.501 . S
C182 H183 0.961 . S
C182 H184 0.961 . S
C182 H185 0.960 . S
H183 C182 0.961 . S
H184 C182 0.961 . S
H185 C182 0.960 . S
C186 N187 1.342 . S
C186 C190 1.401 . S
C186 C191 1.499 . S
N187 Co170 1.989 . S
N187 C186 1.342 . S
N187 N188 1.388 . S
N188 Co171 1.993 . S
N188 N187 1.388 . S
N188 C189 1.346 . S
C189 N188 1.346 . S
C189 C190 1.396 . S
C189 C199 1.510 . S
C190 C186 1.401 . S
C190 C189 1.396 . S
C191 C186 1.499 . S
C191 H192 0.959 . S
C191 H193 0.960 . S
C191 H194 0.961 . S
H192 C191 0.959 . S
H193 C191 0.960 . S
H194 C191 0.961 . S
O195 Co170 1.967 . S
O195 C203 1.258 . S
O196 Co171 1.941 . S
O196 C203 1.266 . S
H197 C199 0.959 . S
H198 C199 0.961 . S
C199 C189 1.510 . S
C199 H197 0.959 . S
C199 H198 0.961 . S
C199 H200 0.960 . S
H200 C199 0.960 . S
H201 N181 0.862 . S
O202 Co170 1.920 . S
O202 C175 1.289 . S
C203 O195 1.258 . S
C203 O196 1.266 . S
Co204 O207 1.970 . S
Co204 N221 1.989 . S
Co204 O229 1.967 . S
Co204 O236 1.920 . S
Co205 O208 1.966 . S
Co205 N214 2.022 . S
Co205 N222 1.993 . S
Co205 O230 1.941 . S
C206 O207 1.258 . S
C206 O208 1.263 . S
O207 Co204 1.970 . S
O207 C206 1.258 . S
O208 Co205 1.966 . S
O208 C206 1.263 . S
C209 O210 1.235 . S
C209 O236 1.289 . S
O210 C209 1.235 . S
C211 C213 1.400 . S
C211 N214 1.351 . S
C211 C216 1.501 . S
C212 C213 1.387 . S
C212 N215 1.341 . S
C213 C211 1.400 . S
C213 C212 1.387 . S
N214 Co205 2.022 . S
N214 C211 1.351 . S
N214 N215 1.365 . S
N215 C212 1.341 . S
N215 N214 1.365 . S
N215 H235 0.862 . S
C216 C211 1.501 . S
C216 H217 0.961 . S
C216 H218 0.961 . S
C216 H219 0.960 . S
H217 C216 0.961 . S
H218 C216 0.961 . S
H219 C216 0.960 . S
C220 N221 1.342 . S
C220 C224 1.401 . S
C220 C225 1.499 . S
N221 Co204 1.989 . S
N221 C220 1.342 . S
N221 N222 1.388 . S
N222 Co205 1.993 . S
N222 N221 1.388 . S
N222 C223 1.346 . S
C223 N222 1.346 . S
C223 C224 1.396 . S
C223 C233 1.510 . S
C224 C220 1.401 . S
C224 C223 1.396 . S
C225 C220 1.499 . S
C225 H226 0.959 . S
C225 H227 0.960 . S
C225 H228 0.961 . S
H226 C225 0.959 . S
H227 C225 0.960 . S
H228 C225 0.961 . S
O229 Co204 1.967 . S
O229 C237 1.258 . S
O230 Co205 1.941 . S
O230 C237 1.266 . S
H231 C233 0.959 . S
H232 C233 0.961 . S
C233 C223 1.510 . S
C233 H231 0.959 . S
C233 H232 0.961 . S
C233 H234 0.960 . S
H234 C233 0.960 . S
H235 N215 0.862 . S
O236 Co204 1.920 . S
O236 C209 1.289 . S
C237 O229 1.258 . S
C237 O230 1.266 . S
Co238 O241 1.970 . S
Co238 N255 1.989 . S
Co238 O263 1.967 . S
Co238 O270 1.920 . S
Co239 O242 1.966 . S
Co239 N248 2.022 . S
Co239 N256 1.993 . S
Co239 O264 1.941 . S
C240 O241 1.258 . S
C240 O242 1.263 . S
O241 Co238 1.970 . S
O241 C240 1.258 . S
O242 Co239 1.966 . S
O242 C240 1.263 . S
C243 O244 1.235 . S
C243 O270 1.289 . S
O244 C243 1.235 . S
C245 C247 1.400 . S
C245 N248 1.351 . S
C245 C250 1.501 . S
C246 C247 1.387 . S
C246 N249 1.341 . S
C247 C245 1.400 . S
C247 C246 1.387 . S
N248 Co239 2.022 . S
N248 C245 1.351 . S
N248 N249 1.365 . S
N249 C246 1.341 . S
N249 N248 1.365 . S
N249 H269 0.862 . S
C250 C245 1.501 . S
C250 H251 0.961 . S
C250 H252 0.961 . S
C250 H253 0.960 . S
H251 C250 0.961 . S
H252 C250 0.961 . S
H253 C250 0.960 . S
C254 N255 1.342 . S
C254 C258 1.401 . S
C254 C259 1.499 . S
N255 Co238 1.989 . S
N255 C254 1.342 . S
N255 N256 1.388 . S
N256 Co239 1.993 . S
N256 N255 1.388 . S
N256 C257 1.346 . S
C257 N256 1.346 . S
C257 C258 1.396 . S
C257 C267 1.510 . S
C258 C254 1.401 . S
C258 C257 1.396 . S
C259 C254 1.499 . S
C259 H260 0.959 . S
C259 H261 0.960 . S
C259 H262 0.961 . S
H260 C259 0.959 . S
H261 C259 0.960 . S
H262 C259 0.961 . S
O263 Co238 1.967 . S
O263 C271 1.258 . S
O264 Co239 1.941 . S
O264 C271 1.266 . S
H265 C267 0.959 . S
H266 C267 0.961 . S
C267 C257 1.510 . S
C267 H265 0.959 . S
C267 H266 0.961 . S
C267 H268 0.960 . S
H268 C267 0.960 . S
H269 N249 0.862 . S
O270 Co238 1.920 . S
O270 C243 1.289 . S
C271 O263 1.258 . S
C271 O264 1.266 . S
Co272 O275 1.970 . S
Co272 N289 1.989 . S
Co272 O297 1.967 . S
Co272 O304 1.920 . S
Co273 O276 1.966 . S
Co273 N282 2.022 . S
Co273 N290 1.993 . S
Co273 O298 1.941 . S
C274 O275 1.258 . S
C274 O276 1.263 . S
O275 Co272 1.970 . S
O275 C274 1.258 . S
O276 Co273 1.966 . S
O276 C274 1.263 . S
C277 O278 1.235 . S
C277 O304 1.289 . S
O278 C277 1.235 . S
C279 C281 1.400 . S
C279 N282 1.351 . S
C279 C284 1.501 . S
C280 C281 1.387 . S
C280 N283 1.341 . S
C281 C279 1.400 . S
C281 C280 1.387 . S
N282 Co273 2.022 . S
N282 C279 1.351 . S
N282 N283 1.365 . S
N283 C280 1.341 . S
N283 N282 1.365 . S
N283 H303 0.862 . S
C284 C279 1.501 . S
C284 H285 0.961 . S
C284 H286 0.961 . S
C284 H287 0.960 . S
H285 C284 0.961 . S
H286 C284 0.961 . S
H287 C284 0.960 . S
C288 N289 1.342 . S
C288 C292 1.401 . S
C288 C293 1.499 . S
N289 Co272 1.989 . S
N289 C288 1.342 . S
N289 N290 1.388 . S
N290 Co273 1.993 . S
N290 N289 1.388 . S
N290 C291 1.346 . S
C291 N290 1.346 . S
C291 C292 1.396 . S
C291 C301 1.510 . S
C292 C288 1.401 . S
C292 C291 1.396 . S
C293 C288 1.499 . S
C293 H294 0.959 . S
C293 H295 0.960 . S
C293 H296 0.961 . S
H294 C293 0.959 . S
H295 C293 0.960 . S
H296 C293 0.961 . S
O297 Co272 1.967 . S
O297 C305 1.258 . S
O298 Co273 1.941 . S
O298 C305 1.266 . S
H299 C301 0.959 . S
H300 C301 0.961 . S
C301 C291 1.510 . S
C301 H299 0.959 . S
C301 H300 0.961 . S
C301 H302 0.960 . S
H302 C301 0.960 . S
H303 N283 0.862 . S
O304 Co272 1.920 . S
O304 C277 1.289 . S
C305 O297 1.258 . S
C305 O298 1.266 . S
Co306 O309 1.970 . S
Co306 N323 1.989 . S
Co306 O331 1.967 . S
Co306 O338 1.920 . S
Co307 O310 1.966 . S
Co307 N316 2.022 . S
Co307 N324 1.993 . S
Co307 O332 1.941 . S
C308 O309 1.258 . S
C308 O310 1.263 . S
O309 Co306 1.970 . S
O309 C308 1.258 . S
O310 Co307 1.966 . S
O310 C308 1.263 . S
C311 O312 1.235 . S
C311 O338 1.289 . S
O312 C311 1.235 . S
C313 C315 1.400 . S
C313 N316 1.351 . S
C313 C318 1.501 . S
C314 C315 1.387 . S
C314 N317 1.341 . S
C315 C313 1.400 . S
C315 C314 1.387 . S
N316 Co307 2.022 . S
N316 C313 1.351 . S
N316 N317 1.365 . S
N317 C314 1.341 . S
N317 N316 1.365 . S
N317 H337 0.862 . S
C318 C313 1.501 . S
C318 H319 0.961 . S
C318 H320 0.961 . S
C318 H321 0.960 . S
H319 C318 0.961 . S
H320 C318 0.961 . S
H321 C318 0.960 . S
C322 N323 1.342 . S
C322 C326 1.401 . S
C322 C327 1.499 . S
N323 Co306 1.989 . S
N323 C322 1.342 . S
N323 N324 1.388 . S
N324 Co307 1.993 . S
N324 N323 1.388 . S
N324 C325 1.346 . S
C325 N324 1.346 . S
C325 C326 1.396 . S
C325 C335 1.510 . S
C326 C322 1.401 . S
C326 C325 1.396 . S
C327 C322 1.499 . S
C327 H328 0.959 . S
C327 H329 0.960 . S
C327 H330 0.961 . S
H328 C327 0.959 . S
H329 C327 0.960 . S
H330 C327 0.961 . S
O331 Co306 1.967 . S
O331 C339 1.258 . S
O332 Co307 1.941 . S
O332 C339 1.266 . S
H333 C335 0.959 . S
H334 C335 0.961 . S
C335 C325 1.510 . S
C335 H333 0.959 . S
C335 H334 0.961 . S
C335 H336 0.960 . S
H336 C335 0.960 . S
H337 N317 0.862 . S
O338 Co306 1.920 . S
O338 C311 1.289 . S
C339 O331 1.258 . S
C339 O332 1.266 . S
Co340 O343 1.970 . S
Co340 N357 1.989 . S
Co340 O365 1.967 . S
Co340 O372 1.920 . S
Co341 O344 1.966 . S
Co341 N350 2.022 . S
Co341 N358 1.993 . S
Co341 O366 1.941 . S
C342 O343 1.258 . S
C342 O344 1.263 . S
O343 Co340 1.970 . S
O343 C342 1.258 . S
O344 Co341 1.966 . S
O344 C342 1.263 . S
C345 O346 1.235 . S
C345 O372 1.289 . S
O346 C345 1.235 . S
C347 C349 1.400 . S
C347 N350 1.351 . S
C347 C352 1.501 . S
C348 C349 1.387 . S
C348 N351 1.341 . S
C349 C347 1.400 . S
C349 C348 1.387 . S
N350 Co341 2.022 . S
N350 C347 1.351 . S
N350 N351 1.365 . S
N351 C348 1.341 . S
N351 N350 1.365 . S
N351 H371 0.862 . S
C352 C347 1.501 . S
C352 H353 0.961 . S
C352 H354 0.961 . S
C352 H355 0.960 . S
H353 C352 0.961 . S
H354 C352 0.961 . S
H355 C352 0.960 . S
C356 N357 1.342 . S
C356 C360 1.401 . S
C356 C361 1.499 . S
N357 Co340 1.989 . S
N357 C356 1.342 . S
N357 N358 1.388 . S
N358 Co341 1.993 . S
N358 N357 1.388 . S
N358 C359 1.346 . S
C359 N358 1.346 . S
C359 C360 1.396 . S
C359 C369 1.510 . S
C360 C356 1.401 . S
C360 C359 1.396 . S
C361 C356 1.499 . S
C361 H362 0.959 . S
C361 H363 0.960 . S
C361 H364 0.961 . S
H362 C361 0.959 . S
H363 C361 0.960 . S
H364 C361 0.961 . S
O365 Co340 1.967 . S
O365 C373 1.258 . S
O366 Co341 1.941 . S
O366 C373 1.266 . S
H367 C369 0.959 . S
H368 C369 0.961 . S
C369 C359 1.510 . S
C369 H367 0.959 . S
C369 H368 0.961 . S
C369 H370 0.960 . S
H370 C369 0.960 . S
H371 N351 0.862 . S
O372 Co340 1.920 . S
O372 C345 1.289 . S
C373 O365 1.258 . S
C373 O366 1.266 . S
Co374 O377 1.970 . S
Co374 N391 1.989 . S
Co374 O399 1.967 . S
Co374 O406 1.920 . S
Co375 O378 1.966 . S
Co375 N384 2.022 . S
Co375 N392 1.993 . S
Co375 O400 1.941 . S
C376 O377 1.258 . S
C376 O378 1.263 . S
O377 Co374 1.970 . S
O377 C376 1.258 . S
O378 Co375 1.966 . S
O378 C376 1.263 . S
C379 O380 1.235 . S
C379 O406 1.289 . S
O380 C379 1.235 . S
C381 C383 1.400 . S
C381 N384 1.351 . S
C381 C386 1.501 . S
C382 C383 1.387 . S
C382 N385 1.341 . S
C383 C381 1.400 . S
C383 C382 1.387 . S
N384 Co375 2.022 . S
N384 C381 1.351 . S
N384 N385 1.365 . S
N385 C382 1.341 . S
N385 N384 1.365 . S
N385 H405 0.862 . S
C386 C381 1.501 . S
C386 H387 0.961 . S
C386 H388 0.961 . S
C386 H389 0.960 . S
H387 C386 0.961 . S
H388 C386 0.961 . S
H389 C386 0.960 . S
C390 N391 1.342 . S
C390 C394 1.401 . S
C390 C395 1.499 . S
N391 Co374 1.989 . S
N391 C390 1.342 . S
N391 N392 1.388 . S
N392 Co375 1.993 . S
N392 N391 1.388 . S
N392 C393 1.346 . S
C393 N392 1.346 . S
C393 C394 1.396 . S
C393 C403 1.510 . S
C394 C390 1.401 . S
C394 C393 1.396 . S
C395 C390 1.499 . S
C395 H396 0.959 . S
C395 H397 0.960 . S
C395 H398 0.961 . S
H396 C395 0.959 . S
H397 C395 0.960 . S
H398 C395 0.961 . S
O399 Co374 1.967 . S
O399 C407 1.258 . S
O400 Co375 1.941 . S
O400 C407 1.266 . S
H401 C403 0.959 . S
H402 C403 0.961 . S
C403 C393 1.510 . S
C403 H401 0.959 . S
C403 H402 0.961 . S
C403 H404 0.960 . S
H404 C403 0.960 . S
H405 N385 0.862 . S
O406 Co374 1.920 . S
O406 C379 1.289 . S
C407 O399 1.258 . S
C407 O400 1.266 . S
Co408 O411 1.970 . S
Co408 N425 1.989 . S
Co408 O433 1.967 . S
Co408 O440 1.920 . S
Co409 O412 1.966 . S
Co409 N418 2.022 . S
Co409 N426 1.993 . S
Co409 O434 1.941 . S
C410 O411 1.258 . S
C410 O412 1.263 . S
O411 Co408 1.970 . S
O411 C410 1.258 . S
O412 Co409 1.966 . S
O412 C410 1.263 . S
C413 O414 1.235 . S
C413 O440 1.289 . S
O414 C413 1.235 . S
C415 C417 1.400 . S
C415 N418 1.351 . S
C415 C420 1.501 . S
C416 C417 1.387 . S
C416 N419 1.341 . S
C417 C415 1.400 . S
C417 C416 1.387 . S
N418 Co409 2.022 . S
N418 C415 1.351 . S
N418 N419 1.365 . S
N419 C416 1.341 . S
N419 N418 1.365 . S
N419 H439 0.862 . S
C420 C415 1.501 . S
C420 H421 0.961 . S
C420 H422 0.961 . S
C420 H423 0.960 . S
H421 C420 0.961 . S
H422 C420 0.961 . S
H423 C420 0.960 . S
C424 N425 1.342 . S
C424 C428 1.401 . S
C424 C429 1.499 . S
N425 Co408 1.989 . S
N425 C424 1.342 . S
N425 N426 1.388 . S
N426 Co409 1.993 . S
N426 N425 1.388 . S
N426 C427 1.346 . S
C427 N426 1.346 . S
C427 C428 1.396 . S
C427 C437 1.510 . S
C428 C424 1.401 . S
C428 C427 1.396 . S
C429 C424 1.499 . S
C429 H430 0.959 . S
C429 H431 0.960 . S
C429 H432 0.961 . S
H430 C429 0.959 . S
H431 C429 0.960 . S
H432 C429 0.961 . S
O433 Co408 1.967 . S
O433 C441 1.258 . S
O434 Co409 1.941 . S
O434 C441 1.266 . S
H435 C437 0.959 . S
H436 C437 0.961 . S
C437 C427 1.510 . S
C437 H435 0.959 . S
C437 H436 0.961 . S
C437 H438 0.960 . S
H438 C437 0.960 . S
H439 N419 0.862 . S
O440 Co408 1.920 . S
O440 C413 1.289 . S
C441 O433 1.258 . S
C441 O434 1.266 . S
Co442 O445 1.970 . S
Co442 N459 1.989 . S
Co442 O467 1.967 . S
Co442 O474 1.920 . S
Co443 O446 1.966 . S
Co443 N452 2.022 . S
Co443 N460 1.993 . S
Co443 O468 1.941 . S
C444 O445 1.258 . S
C444 O446 1.263 . S
O445 Co442 1.970 . S
O445 C444 1.258 . S
O446 Co443 1.966 . S
O446 C444 1.263 . S
C447 O448 1.235 . S
C447 O474 1.289 . S
O448 C447 1.235 . S
C449 C451 1.400 . S
C449 N452 1.351 . S
C449 C454 1.501 . S
C450 C451 1.387 . S
C450 N453 1.341 . S
C451 C449 1.400 . S
C451 C450 1.387 . S
N452 Co443 2.022 . S
N452 C449 1.351 . S
N452 N453 1.365 . S
N453 C450 1.341 . S
N453 N452 1.365 . S
N453 H473 0.862 . S
C454 C449 1.501 . S
C454 H455 0.961 . S
C454 H456 0.961 . S
C454 H457 0.960 . S
H455 C454 0.961 . S
H456 C454 0.961 . S
H457 C454 0.960 . S
C458 N459 1.342 . S
C458 C462 1.401 . S
C458 C463 1.499 . S
N459 Co442 1.989 . S
N459 C458 1.342 . S
N459 N460 1.388 . S
N460 Co443 1.993 . S
N460 N459 1.388 . S
N460 C461 1.346 . S
C461 N460 1.346 . S
C461 C462 1.396 . S
C461 C471 1.510 . S
C462 C458 1.401 . S
C462 C461 1.396 . S
C463 C458 1.499 . S
C463 H464 0.959 . S
C463 H465 0.960 . S
C463 H466 0.961 . S
H464 C463 0.959 . S
H465 C463 0.960 . S
H466 C463 0.961 . S
O467 Co442 1.967 . S
O467 C475 1.258 . S
O468 Co443 1.941 . S
O468 C475 1.266 . S
H469 C471 0.959 . S
H470 C471 0.961 . S
C471 C461 1.510 . S
C471 H469 0.959 . S
C471 H470 0.961 . S
C471 H472 0.960 . S
H472 C471 0.960 . S
H473 N453 0.862 . S
O474 Co442 1.920 . S
O474 C447 1.289 . S
C475 O467 1.258 . S
C475 O468 1.266 . S
Co476 O479 1.970 . S
Co476 N493 1.989 . S
Co476 O501 1.967 . S
Co476 O508 1.920 . S
Co477 O480 1.966 . S
Co477 N486 2.022 . S
Co477 N494 1.993 . S
Co477 O502 1.941 . S
C478 O479 1.258 . S
C478 O480 1.263 . S
O479 Co476 1.970 . S
O479 C478 1.258 . S
O480 Co477 1.966 . S
O480 C478 1.263 . S
C481 O482 1.235 . S
C481 O508 1.289 . S
O482 C481 1.235 . S
C483 C485 1.400 . S
C483 N486 1.351 . S
C483 C488 1.501 . S
C484 C485 1.387 . S
C484 N487 1.341 . S
C485 C483 1.400 . S
C485 C484 1.387 . S
N486 Co477 2.022 . S
N486 C483 1.351 . S
N486 N487 1.365 . S
N487 C484 1.341 . S
N487 N486 1.365 . S
N487 H507 0.862 . S
C488 C483 1.501 . S
C488 H489 0.961 . S
C488 H490 0.961 . S
C488 H491 0.960 . S
H489 C488 0.961 . S
H490 C488 0.961 . S
H491 C488 0.960 . S
C492 N493 1.342 . S
C492 C496 1.401 . S
C492 C497 1.499 . S
N493 Co476 1.989 . S
N493 C492 1.342 . S
N493 N494 1.388 . S
N494 Co477 1.993 . S
N494 N493 1.388 . S
N494 C495 1.346 . S
C495 N494 1.346 . S
C495 C496 1.396 . S
C495 C505 1.510 . S
C496 C492 1.401 . S
C496 C495 1.396 . S
C497 C492 1.499 . S
C497 H498 0.959 . S
C497 H499 0.960 . S
C497 H500 0.961 . S
H498 C497 0.959 . S
H499 C497 0.960 . S
H500 C497 0.961 . S
O501 Co476 1.967 . S
O501 C509 1.258 . S
O502 Co477 1.941 . S
O502 C509 1.266 . S
H503 C505 0.959 . S
H504 C505 0.961 . S
C505 C495 1.510 . S
C505 H503 0.959 . S
C505 H504 0.961 . S
C505 H506 0.960 . S
H506 C505 0.960 . S
H507 N487 0.862 . S
O508 Co476 1.920 . S
O508 C481 1.289 . S
C509 O501 1.258 . S
C509 O502 1.266 . S
Co510 O513 1.970 . S
Co510 N527 1.989 . S
Co510 O535 1.967 . S
Co510 O542 1.920 . S
Co511 O514 1.966 . S
Co511 N520 2.022 . S
Co511 N528 1.993 . S
Co511 O536 1.941 . S
C512 O513 1.258 . S
C512 O514 1.263 . S
O513 Co510 1.970 . S
O513 C512 1.258 . S
O514 Co511 1.966 . S
O514 C512 1.263 . S
C515 O516 1.235 . S
C515 O542 1.289 . S
O516 C515 1.235 . S
C517 C519 1.400 . S
C517 N520 1.351 . S
C517 C522 1.501 . S
C518 C519 1.387 . S
C518 N521 1.341 . S
C519 C517 1.400 . S
C519 C518 1.387 . S
N520 Co511 2.022 . S
N520 C517 1.351 . S
N520 N521 1.365 . S
N521 C518 1.341 . S
N521 N520 1.365 . S
N521 H541 0.862 . S
C522 C517 1.501 . S
C522 H523 0.961 . S
C522 H524 0.961 . S
C522 H525 0.960 . S
H523 C522 0.961 . S
H524 C522 0.961 . S
H525 C522 0.960 . S
C526 N527 1.342 . S
C526 C530 1.401 . S
C526 C531 1.499 . S
N527 Co510 1.989 . S
N527 C526 1.342 . S
N527 N528 1.388 . S
N528 Co511 1.993 . S
N528 N527 1.388 . S
N528 C529 1.346 . S
C529 N528 1.346 . S
C529 C530 1.396 . S
C529 C539 1.510 . S
C530 C526 1.401 . S
C530 C529 1.396 . S
C531 C526 1.499 . S
C531 H532 0.959 . S
C531 H533 0.960 . S
C531 H534 0.961 . S
H532 C531 0.959 . S
H533 C531 0.960 . S
H534 C531 0.961 . S
O535 Co510 1.967 . S
O535 C543 1.258 . S
O536 Co511 1.941 . S
O536 C543 1.266 . S
H537 C539 0.959 . S
H538 C539 0.961 . S
C539 C529 1.510 . S
C539 H537 0.959 . S
C539 H538 0.961 . S
C539 H540 0.960 . S
H540 C539 0.960 . S
H541 N521 0.862 . S
O542 Co510 1.920 . S
O542 C515 1.289 . S
C543 O535 1.258 . S
C543 O536 1.266 . S
H544 C552 0.950 . S
H545 C557 0.950 . S
H546 C554 0.950 . S
H547 C556 0.950 . S
H548 C558 0.950 . S
H549 C560 0.950 . S
H550 C562 0.950 . S
H551 C563 0.950 . S
C552 H544 0.950 . S
C552 C553 1.386 . S
C552 C554 1.391 . S
C553 C552 1.386 . S
C553 C557 1.393 . S
C554 H546 0.950 . S
C554 C552 1.391 . S
C554 C555 1.400 . S
C555 C554 1.400 . S
C555 C556 1.398 . S
C555 C561 1.491 . S
C556 H547 0.950 . S
C556 C555 1.398 . S
C556 C557 1.391 . S
C557 H545 0.950 . S
C557 C553 1.393 . S
C557 C556 1.391 . S
C558 H548 0.950 . S
C558 C559 1.386 . S
C558 C560 1.391 . S
C559 C558 1.386 . S
C559 C563 1.393 . S
C560 H549 0.950 . S
C560 C558 1.391 . S
C560 C561 1.400 . S
C561 C555 1.491 . S
C561 C560 1.400 . S
C561 C562 1.398 . S
C562 H550 0.950 . S
C562 C561 1.398 . S
C562 C563 1.391 . S
C563 H551 0.950 . S
C563 C559 1.393 . S
C563 C562 1.391 . S
H564 C572 0.950 . S
H565 C577 0.950 . S
H566 C574 0.950 . S
H567 C576 0.950 . S
H568 C578 0.950 . S
H569 C580 0.950 . S
H570 C582 0.950 . S
H571 C583 0.950 . S
C572 H564 0.950 . S
C572 C573 1.386 . S
C572 C574 1.391 . S
C573 C572 1.386 . S
C573 C577 1.393 . S
C574 H566 0.950 . S
C574 C572 1.391 . S
C574 C575 1.400 . S
C575 C574 1.400 . S
C575 C576 1.398 . S
C575 C581 1.491 . S
C576 H567 0.950 . S
C576 C575 1.398 . S
C576 C577 1.391 . S
C577 H565 0.950 . S
C577 C573 1.393 . S
C577 C576 1.391 . S
C578 H568 0.950 . S
C578 C579 1.386 . S
C578 C580 1.391 . S
C579 C578 1.386 . S
C579 C583 1.393 . S
C580 H569 0.950 . S
C580 C578 1.391 . S
C580 C581 1.400 . S
C581 C575 1.491 . S
C581 C580 1.400 . S
C581 C582 1.398 . S
C582 H570 0.950 . S
C582 C581 1.398 . S
C582 C583 1.391 . S
C583 H571 0.950 . S
C583 C579 1.393 . S
C583 C582 1.391 . S
H584 C592 0.950 . S
H585 C597 0.950 . S
H586 C594 0.950 . S
H587 C596 0.950 . S
H588 C598 0.950 . S
H589 C600 0.950 . S
H590 C602 0.950 . S
H591 C603 0.950 . S
C592 H584 0.950 . S
C592 C593 1.386 . S
C592 C594 1.391 . S
C593 C592 1.386 . S
C593 C597 1.393 . S
C594 H586 0.950 . S
C594 C592 1.391 . S
C594 C595 1.400 . S
C595 C594 1.400 . S
C595 C596 1.398 . S
C595 C601 1.491 . S
C596 H587 0.950 . S
C596 C595 1.398 . S
C596 C597 1.391 . S
C597 H585 0.950 . S
C597 C593 1.393 . S
C597 C596 1.391 . S
C598 H588 0.950 . S
C598 C599 1.386 . S
C598 C600 1.391 . S
C599 C598 1.386 . S
C599 C603 1.393 . S
C600 H589 0.950 . S
C600 C598 1.391 . S
C600 C601 1.400 . S
C601 C595 1.491 . S
C601 C600 1.400 . S
C601 C602 1.398 . S
C602 H590 0.950 . S
C602 C601 1.398 . S
C602 C603 1.391 . S
C603 H591 0.950 . S
C603 C599 1.393 . S
C603 C602 1.391 . S
H604 C612 0.950 . S
H605 C617 0.950 . S
H606 C614 0.950 . S
H607 C616 0.950 . S
H608 C618 0.950 . S
H609 C620 0.950 . S
H610 C622 0.950 . S
H611 C623 0.950 . S
C612 H604 0.950 . S
C612 C613 1.386 . S
C612 C614 1.391 . S
C613 C612 1.386 . S
C613 C617 1.393 . S
C614 H606 0.950 . S
C614 C612 1.391 . S
C614 C615 1.400 . S
C615 C614 1.400 . S
C615 C616 1.398 . S
C615 C621 1.491 . S
C616 H607 0.950 . S
C616 C615 1.398 . S
C616 C617 1.391 . S
C617 H605 0.950 . S
C617 C613 1.393 . S
C617 C616 1.391 . S
C618 H608 0.950 . S
C618 C619 1.386 . S
C618 C620 1.391 . S
C619 C618 1.386 . S
C619 C623 1.393 . S
C620 H609 0.950 . S
C620 C618 1.391 . S
C620 C621 1.400 . S
C621 C615 1.491 . S
C621 C620 1.400 . S
C621 C622 1.398 . S
C622 H610 0.950 . S
C622 C621 1.398 . S
C622 C623 1.391 . S
C623 H611 0.950 . S
C623 C619 1.393 . S
C623 C622 1.391 . S
H624 C632 0.950 . S
H625 C637 0.950 . S
H626 C634 0.950 . S
H627 C636 0.950 . S
H628 C638 0.950 . S
H629 C640 0.950 . S
H630 C642 0.950 . S
H631 C643 0.950 . S
C632 H624 0.950 . S
C632 C633 1.386 . S
C632 C634 1.391 . S
C633 C632 1.386 . S
C633 C637 1.393 . S
C634 H626 0.950 . S
C634 C632 1.391 . S
C634 C635 1.400 . S
C635 C634 1.400 . S
C635 C636 1.398 . S
C635 C641 1.491 . S
C636 H627 0.950 . S
C636 C635 1.398 . S
C636 C637 1.391 . S
C637 H625 0.950 . S
C637 C633 1.393 . S
C637 C636 1.391 . S
C638 H628 0.950 . S
C638 C639 1.386 . S
C638 C640 1.391 . S
C639 C638 1.386 . S
C639 C643 1.393 . S
C640 H629 0.950 . S
C640 C638 1.391 . S
C640 C641 1.400 . S
C641 C635 1.491 . S
C641 C640 1.400 . S
C641 C642 1.398 . S
C642 H630 0.950 . S
C642 C641 1.398 . S
C642 C643 1.391 . S
C643 H631 0.950 . S
C643 C639 1.393 . S
C643 C642 1.391 . S
H644 C652 0.950 . S
H645 C657 0.950 . S
H646 C654 0.950 . S
H647 C656 0.950 . S
H648 C658 0.950 . S
H649 C660 0.950 . S
H650 C662 0.950 . S
H651 C663 0.950 . S
C652 H644 0.950 . S
C652 C653 1.386 . S
C652 C654 1.391 . S
C653 C652 1.386 . S
C653 C657 1.393 . S
C654 H646 0.950 . S
C654 C652 1.391 . S
C654 C655 1.400 . S
C655 C654 1.400 . S
C655 C656 1.398 . S
C655 C661 1.491 . S
C656 H647 0.950 . S
C656 C655 1.398 . S
C656 C657 1.391 . S
C657 H645 0.950 . S
C657 C653 1.393 . S
C657 C656 1.391 . S
C658 H648 0.950 . S
C658 C659 1.386 . S
C658 C660 1.391 . S
C659 C658 1.386 . S
C659 C663 1.393 . S
C660 H649 0.950 . S
C660 C658 1.391 . S
C660 C661 1.400 . S
C661 C655 1.491 . S
C661 C660 1.400 . S
C661 C662 1.398 . S
C662 H650 0.950 . S
C662 C661 1.398 . S
C662 C663 1.391 . S
C663 H651 0.950 . S
C663 C659 1.393 . S
C663 C662 1.391 . S
H664 C672 0.950 . S
H665 C677 0.950 . S
H666 C674 0.950 . S
H667 C676 0.950 . S
H668 C678 0.950 . S
H669 C680 0.950 . S
H670 C682 0.950 . S
H671 C683 0.950 . S
C672 H664 0.950 . S
C672 C673 1.386 . S
C672 C674 1.391 . S
C673 C672 1.386 . S
C673 C677 1.393 . S
C674 H666 0.950 . S
C674 C672 1.391 . S
C674 C675 1.400 . S
C675 C674 1.400 . S
C675 C676 1.398 . S
C675 C681 1.491 . S
C676 H667 0.950 . S
C676 C675 1.398 . S
C676 C677 1.391 . S
C677 H665 0.950 . S
C677 C673 1.393 . S
C677 C676 1.391 . S
C678 H668 0.950 . S
C678 C679 1.386 . S
C678 C680 1.391 . S
C679 C678 1.386 . S
C679 C683 1.393 . S
C680 H669 0.950 . S
C680 C678 1.391 . S
C680 C681 1.400 . S
C681 C675 1.491 . S
C681 C680 1.400 . S
C681 C682 1.398 . S
C682 H670 0.950 . S
C682 C681 1.398 . S
C682 C683 1.391 . S
C683 H671 0.950 . S
C683 C679 1.393 . S
C683 C682 1.391 . S
H684 C692 0.950 . S
H685 C697 0.950 . S
H686 C694 0.950 . S
H687 C696 0.950 . S
H688 C698 0.950 . S
H689 C700 0.950 . S
H690 C702 0.950 . S
H691 C703 0.950 . S
C692 H684 0.950 . S
C692 C693 1.386 . S
C692 C694 1.391 . S
C693 C692 1.386 . S
C693 C697 1.393 . S
C694 H686 0.950 . S
C694 C692 1.391 . S
C694 C695 1.400 . S
C695 C694 1.400 . S
C695 C696 1.398 . S
C695 C701 1.491 . S
C696 H687 0.950 . S
C696 C695 1.398 . S
C696 C697 1.391 . S
C697 H685 0.950 . S
C697 C693 1.393 . S
C697 C696 1.391 . S
C698 H688 0.950 . S
C698 C699 1.386 . S
C698 C700 1.391 . S
C699 C698 1.386 . S
C699 C703 1.393 . S
C700 H689 0.950 . S
C700 C698 1.391 . S
C700 C701 1.400 . S
C701 C695 1.491 . S
C701 C700 1.400 . S
C701 C702 1.398 . S
C702 H690 0.950 . S
C702 C701 1.398 . S
C702 C703 1.391 . S
C703 H691 0.950 . S
C703 C699 1.393 . S
C703 C702 1.391 . S
H704 C712 0.950 . S
H705 C717 0.950 . S
H706 C714 0.950 . S
H707 C716 0.950 . S
H708 C718 0.950 . S
H709 C720 0.950 . S
H710 C722 0.950 . S
H711 C723 0.950 . S
C712 H704 0.950 . S
C712 C713 1.386 . S
C712 C714 1.391 . S
C713 C712 1.386 . S
C713 C717 1.393 . S
C714 H706 0.950 . S
C714 C712 1.391 . S
C714 C715 1.400 . S
C715 C714 1.400 . S
C715 C716 1.398 . S
C715 C721 1.491 1_655 S
C716 H707 0.950 . S
C716 C715 1.398 . S
C716 C717 1.391 . S
C717 H705 0.950 . S
C717 C713 1.393 . S
C717 C716 1.391 . S
C718 H708 0.950 . S
C718 C719 1.386 . S
C718 C720 1.391 . S
C719 C718 1.386 . S
C719 C723 1.393 . S
C720 H709 0.950 . S
C720 C718 1.391 . S
C720 C721 1.400 . S
C721 C715 1.491 1_455 S
C721 C720 1.400 . S
C721 C722 1.398 . S
C722 H710 0.950 . S
C722 C721 1.398 . S
C722 C723 1.391 . S
C723 H711 0.950 . S
C723 C719 1.393 . S
C723 C722 1.391 . S
H724 C732 0.950 . S
H725 C737 0.950 . S
H726 C734 0.950 . S
H727 C736 0.950 . S
H728 C738 0.950 . S
H729 C740 0.950 . S
H730 C742 0.950 . S
H731 C743 0.950 . S
C732 H724 0.950 . S
C732 C733 1.386 . S
C732 C734 1.391 . S
C733 C732 1.386 . S
C733 C737 1.393 . S
C734 H726 0.950 . S
C734 C732 1.391 . S
C734 C735 1.400 . S
C735 C734 1.400 . S
C735 C736 1.398 . S
C735 C741 1.491 . S
C736 H727 0.950 . S
C736 C735 1.398 . S
C736 C737 1.391 . S
C737 H725 0.950 . S
C737 C733 1.393 . S
C737 C736 1.391 . S
C738 H728 0.950 . S
C738 C739 1.386 . S
C738 C740 1.391 . S
C739 C738 1.386 . S
C739 C743 1.393 . S
C740 H729 0.950 . S
C740 C738 1.391 . S
C740 C741 1.400 . S
C741 C735 1.491 . S
C741 C740 1.400 . S
C741 C742 1.398 . S
C742 H730 0.950 . S
C742 C741 1.398 . S
C742 C743 1.391 . S
C743 H731 0.950 . S
C743 C739 1.393 . S
C743 C742 1.391 . S
H744 C752 0.950 . S
H745 C757 0.950 . S
H746 C754 0.950 . S
H747 C756 0.950 . S
H748 C758 0.950 . S
H749 C760 0.950 . S
H750 C762 0.950 . S
H751 C763 0.950 . S
C752 H744 0.950 . S
C752 C753 1.386 . S
C752 C754 1.391 . S
C753 C752 1.386 . S
C753 C757 1.393 . S
C754 H746 0.950 . S
C754 C752 1.391 . S
C754 C755 1.400 . S
C755 C754 1.400 . S
C755 C756 1.398 . S
C755 C761 1.491 1_655 S
C756 H747 0.950 . S
C756 C755 1.398 . S
C756 C757 1.391 . S
C757 H745 0.950 . S
C757 C753 1.393 . S
C757 C756 1.391 . S
C758 H748 0.950 . S
C758 C759 1.386 . S
C758 C760 1.391 . S
C759 C758 1.386 . S
C759 C763 1.393 . S
C760 H749 0.950 . S
C760 C758 1.391 . S
C760 C761 1.400 . S
C761 C755 1.491 1_455 S
C761 C760 1.400 . S
C761 C762 1.398 . S
C762 H750 0.950 . S
C762 C761 1.398 . S
C762 C763 1.391 . S
C763 H751 0.950 . S
C763 C759 1.393 . S
C763 C762 1.391 . S
H764 C772 0.950 . S
H765 C777 0.950 . S
H766 C774 0.950 . S
H767 C776 0.950 . S
H768 C778 0.950 . S
H769 C780 0.950 . S
H770 C782 0.950 . S
H771 C783 0.950 . S
C772 H764 0.950 . S
C772 C773 1.386 . S
C772 C774 1.391 . S
C773 C772 1.386 . S
C773 C777 1.393 . S
C774 H766 0.950 . S
C774 C772 1.391 . S
C774 C775 1.400 . S
C775 C774 1.400 . S
C775 C776 1.398 . S
C775 C781 1.491 . S
C776 H767 0.950 . S
C776 C775 1.398 . S
C776 C777 1.391 . S
C777 H765 0.950 . S
C777 C773 1.393 . S
C777 C776 1.391 . S
C778 H768 0.950 . S
C778 C779 1.386 . S
C778 C780 1.391 . S
C779 C778 1.386 . S
C779 C783 1.393 . S
C780 H769 0.950 . S
C780 C778 1.391 . S
C780 C781 1.400 . S
C781 C775 1.491 . S
C781 C780 1.400 . S
C781 C782 1.398 . S
C782 H770 0.950 . S
C782 C781 1.398 . S
C782 C783 1.391 . S
C783 H771 0.950 . S
C783 C779 1.393 . S
C783 C782 1.391 . S
H784 C792 0.950 . S
H785 C797 0.950 . S
H786 C794 0.950 . S
H787 C796 0.950 . S
H788 C798 0.950 . S
H789 C800 0.950 . S
H790 C802 0.950 . S
H791 C803 0.950 . S
C792 H784 0.950 . S
C792 C793 1.386 . S
C792 C794 1.391 . S
C793 C792 1.386 . S
C793 C797 1.393 . S
C794 H786 0.950 . S
C794 C792 1.391 . S
C794 C795 1.400 . S
C795 C794 1.400 . S
C795 C796 1.398 . S
C795 C801 1.491 . S
C796 H787 0.950 . S
C796 C795 1.398 . S
C796 C797 1.391 . S
C797 H785 0.950 . S
C797 C793 1.393 . S
C797 C796 1.391 . S
C798 H788 0.950 . S
C798 C799 1.386 . S
C798 C800 1.391 . S
C799 C798 1.386 . S
C799 C803 1.393 . S
C800 H789 0.950 . S
C800 C798 1.391 . S
C800 C801 1.400 . S
C801 C795 1.491 . S
C801 C800 1.400 . S
C801 C802 1.398 . S
C802 H790 0.950 . S
C802 C801 1.398 . S
C802 C803 1.391 . S
C803 H791 0.950 . S
C803 C799 1.393 . S
C803 C802 1.391 . S
H804 C812 0.950 . S
H805 C817 0.950 . S
H806 C814 0.950 . S
H807 C816 0.950 . S
H808 C818 0.950 . S
H809 C820 0.950 . S
H810 C822 0.950 . S
H811 C823 0.950 . S
C812 H804 0.950 . S
C812 C813 1.386 . S
C812 C814 1.391 . S
C813 C812 1.386 . S
C813 C817 1.393 . S
C814 H806 0.950 . S
C814 C812 1.391 . S
C814 C815 1.400 . S
C815 C814 1.400 . S
C815 C816 1.398 . S
C815 C821 1.491 1_455 S
C816 H807 0.950 . S
C816 C815 1.398 . S
C816 C817 1.391 . S
C817 H805 0.950 . S
C817 C813 1.393 . S
C817 C816 1.391 . S
C818 H808 0.950 . S
C818 C819 1.386 . S
C818 C820 1.391 . S
C819 C818 1.386 . S
C819 C823 1.393 . S
C820 H809 0.950 . S
C820 C818 1.391 . S
C820 C821 1.400 . S
C821 C815 1.491 1_655 S
C821 C820 1.400 . S
C821 C822 1.398 . S
C822 H810 0.950 . S
C822 C821 1.398 . S
C822 C823 1.391 . S
C823 H811 0.950 . S
C823 C819 1.393 . S
C823 C822 1.391 . S
H824 C832 0.950 . S
H825 C837 0.950 . S
H826 C834 0.950 . S
H827 C836 0.950 . S
H828 C838 0.950 . S
H829 C840 0.950 . S
H830 C842 0.950 . S
H831 C843 0.950 . S
C832 H824 0.950 . S
C832 C833 1.386 . S
C832 C834 1.391 . S
C833 C832 1.386 . S
C833 C837 1.393 . S
C834 H826 0.950 . S
C834 C832 1.391 . S
C834 C835 1.400 . S
C835 C834 1.400 . S
C835 C836 1.398 . S
C835 C841 1.491 . S
C836 H827 0.950 . S
C836 C835 1.398 . S
C836 C837 1.391 . S
C837 H825 0.950 . S
C837 C833 1.393 . S
C837 C836 1.391 . S
C838 H828 0.950 . S
C838 C839 1.386 . S
C838 C840 1.391 . S
C839 C838 1.386 . S
C839 C843 1.393 . S
C840 H829 0.950 . S
C840 C838 1.391 . S
C840 C841 1.400 . S
C841 C835 1.491 . S
C841 C840 1.400 . S
C841 C842 1.398 . S
C842 H830 0.950 . S
C842 C841 1.398 . S
C842 C843 1.391 . S
C843 H831 0.950 . S
C843 C839 1.393 . S
C843 C842 1.391 . S
H844 C852 0.950 . S
H845 C857 0.950 . S
H846 C854 0.950 . S
H847 C856 0.950 . S
H848 C858 0.950 . S
H849 C860 0.950 . S
H850 C862 0.950 . S
H851 C863 0.950 . S
C852 H844 0.950 . S
C852 C853 1.386 . S
C852 C854 1.391 . S
C853 C852 1.386 . S
C853 C857 1.393 . S
C854 H846 0.950 . S
C854 C852 1.391 . S
C854 C855 1.400 . S
C855 C854 1.400 . S
C855 C856 1.398 . S
C855 C861 1.491 1_655 S
C856 H847 0.950 . S
C856 C855 1.398 . S
C856 C857 1.391 . S
C857 H845 0.950 . S
C857 C853 1.393 . S
C857 C856 1.391 . S
C858 H848 0.950 . S
C858 C859 1.386 . S
C858 C860 1.391 . S
C859 C858 1.386 . S
C859 C863 1.393 . S
C860 H849 0.950 . S
C860 C858 1.391 . S
C860 C861 1.400 . S
C861 C855 1.491 1_455 S
C861 C860 1.400 . S
C861 C862 1.398 . S
C862 H850 0.950 . S
C862 C861 1.398 . S
C862 C863 1.391 . S
C863 H851 0.950 . S
C863 C859 1.393 . S
C863 C862 1.391 . S
H864 C872 0.950 . S
H865 C877 0.950 . S
H866 C874 0.950 1_565 S
H867 C876 0.950 1_556 S
H868 C878 0.950 . S
H869 C880 0.950 1_545 S
H870 C882 0.950 1_554 S
H871 C883 0.950 . S
C872 H864 0.950 . S
C872 C873 1.386 . S
C872 C874 1.391 . S
C873 C872 1.386 . S
C873 C877 1.393 . S
C874 H866 0.950 1_545 S
C874 C872 1.391 . S
C874 C875 1.400 . S
C875 C874 1.400 . S
C875 C876 1.398 . S
C875 C881 1.491 1_544 S
C876 H867 0.950 1_554 S
C876 C875 1.398 . S
C876 C877 1.391 . S
C877 H865 0.950 . S
C877 C873 1.393 . S
C877 C876 1.391 . S
C878 H868 0.950 . S
C878 C879 1.386 . S
C878 C880 1.391 . S
C879 C878 1.386 . S
C879 C883 1.393 . S
C880 H869 0.950 1_565 S
C880 C878 1.391 . S
C880 C881 1.400 . S
C881 C875 1.491 1_566 S
C881 C880 1.400 . S
C881 C882 1.398 . S
C882 H870 0.950 1_556 S
C882 C881 1.398 . S
C882 C883 1.391 . S
C883 H871 0.950 . S
C883 C879 1.393 . S
C883 C882 1.391 . S
H884 C892 0.950 . S
H885 C897 0.950 . S
H886 C894 0.950 1_545 S
H887 C896 0.950 . S
H888 C898 0.950 . S
H889 C900 0.950 1_565 S
H890 C902 0.950 . S
H891 C903 0.950 . S
C892 H884 0.950 . S
C892 C893 1.386 . S
C892 C894 1.391 . S
C893 C892 1.386 . S
C893 C897 1.393 . S
C894 H886 0.950 1_565 S
C894 C892 1.391 . S
C894 C895 1.400 . S
C895 C894 1.400 . S
C895 C896 1.398 . S
C895 C901 1.491 1_565 S
C896 H887 0.950 . S
C896 C895 1.398 . S
C896 C897 1.391 . S
C897 H885 0.950 . S
C897 C893 1.393 . S
C897 C896 1.391 . S
C898 H888 0.950 . S
C898 C899 1.386 . S
C898 C900 1.391 . S
C899 C898 1.386 . S
C899 C903 1.393 . S
C900 H889 0.950 1_545 S
C900 C898 1.391 . S
C900 C901 1.400 . S
C901 C895 1.491 1_545 S
C901 C900 1.400 . S
C901 C902 1.398 . S
C902 H890 0.950 . S
C902 C901 1.398 . S
C902 C903 1.391 . S
C903 H891 0.950 . S
C903 C899 1.393 . S
C903 C902 1.391 . S
H904 C912 0.950 . S
H905 C917 0.950 . S
H906 C914 0.950 . S
H907 C916 0.950 . S
H908 C918 0.950 . S
H909 C920 0.950 . S
H910 C922 0.950 . S
H911 C923 0.950 . S
C912 H904 0.950 . S
C912 C913 1.386 . S
C912 C914 1.391 . S
C913 C912 1.386 . S
C913 C917 1.393 . S
C914 H906 0.950 . S
C914 C912 1.391 . S
C914 C915 1.400 . S
C915 C914 1.400 . S
C915 C916 1.398 . S
C915 C921 1.491 1_566 S
C916 H907 0.950 . S
C916 C915 1.398 . S
C916 C917 1.391 . S
C917 H905 0.950 . S
C917 C913 1.393 . S
C917 C916 1.391 . S
C918 H908 0.950 . S
C918 C919 1.386 . S
C918 C920 1.391 . S
C919 C918 1.386 . S
C919 C923 1.393 . S
C920 H909 0.950 . S
C920 C918 1.391 . S
C920 C921 1.400 . S
C921 C915 1.491 1_544 S
C921 C920 1.400 . S
C921 C922 1.398 . S
C922 H910 0.950 . S
C922 C921 1.398 . S
C922 C923 1.391 . S
C923 H911 0.950 . S
C923 C919 1.393 . S
C923 C922 1.391 . S
H924 C932 0.950 . S
H925 C937 0.950 . S
H926 C934 0.950 1_565 S
H927 C936 0.950 . S
H928 C938 0.950 . S
H929 C940 0.950 1_545 S
H930 C942 0.950 . S
H931 C943 0.950 . S
C932 H924 0.950 . S
C932 C933 1.386 . S
C932 C934 1.391 . S
C933 C932 1.386 . S
C933 C937 1.393 . S
C934 H926 0.950 1_545 S
C934 C932 1.391 . S
C934 C935 1.400 . S
C935 C934 1.400 . S
C935 C936 1.398 . S
C935 C941 1.491 1_545 S
C936 H927 0.950 . S
C936 C935 1.398 . S
C936 C937 1.391 . S
C937 H925 0.950 . S
C937 C933 1.393 . S
C937 C936 1.391 . S
C938 H928 0.950 . S
C938 C939 1.386 . S
C938 C940 1.391 . S
C939 C938 1.386 . S
C939 C943 1.393 . S
C940 H929 0.950 1_565 S
C940 C938 1.391 . S
C940 C941 1.400 . S
C941 C935 1.491 1_565 S
C941 C940 1.400 . S
C941 C942 1.398 . S
C942 H930 0.950 . S
C942 C941 1.398 . S
C942 C943 1.391 . S
C943 H931 0.950 . S
C943 C939 1.393 . S
C943 C942 1.391 . S
H944 C952 0.950 . S
H945 C957 0.950 . S
H946 C954 0.950 . S
H947 C956 0.950 . S
H948 C958 0.950 . S
H949 C960 0.950 . S
H950 C962 0.950 . S
H951 C963 0.950 . S
C952 H944 0.950 . S
C952 C953 1.386 . S
C952 C954 1.391 . S
C953 C952 1.386 . S
C953 C957 1.393 . S
C954 H946 0.950 . S
C954 C952 1.391 . S
C954 C955 1.400 . S
C955 C954 1.400 . S
C955 C956 1.398 . S
C955 C961 1.491 1_554 S
C956 H947 0.950 . S
C956 C955 1.398 . S
C956 C957 1.391 . S
C957 H945 0.950 . S
C957 C953 1.393 . S
C957 C956 1.391 . S
C958 H948 0.950 . S
C958 C959 1.386 . S
C958 C960 1.391 . S
C959 C958 1.386 . S
C959 C963 1.393 . S
C960 H949 0.950 . S
C960 C958 1.391 . S
C960 C961 1.400 . S
C961 C955 1.491 1_556 S
C961 C960 1.400 . S
C961 C962 1.398 . S
C962 H950 0.950 . S
C962 C961 1.398 . S
C962 C963 1.391 . S
C963 H951 0.950 . S
C963 C959 1.393 . S
C963 C962 1.391 . S
H964 C972 0.950 . S
H965 C977 0.950 . S
H966 C974 0.950 . S
H967 C976 0.950 . S
H968 C978 0.950 . S
H969 C980 0.950 . S
H970 C982 0.950 . S
H971 C983 0.950 . S
C972 H964 0.950 . S
C972 C973 1.386 . S
C972 C974 1.391 . S
C973 C972 1.386 . S
C973 C977 1.393 . S
C974 H966 0.950 . S
C974 C972 1.391 . S
C974 C975 1.400 . S
C975 C974 1.400 . S
C975 C976 1.398 . S
C975 C981 1.491 . S
C976 H967 0.950 . S
C976 C975 1.398 . S
C976 C977 1.391 . S
C977 H965 0.950 . S
C977 C973 1.393 . S
C977 C976 1.391 . S
C978 H968 0.950 . S
C978 C979 1.386 . S
C978 C980 1.391 . S
C979 C978 1.386 . S
C979 C983 1.393 . S
C980 H969 0.950 . S
C980 C978 1.391 . S
C980 C981 1.400 . S
C981 C975 1.491 . S
C981 C980 1.400 . S
C981 C982 1.398 . S
C982 H970 0.950 . S
C982 C981 1.398 . S
C982 C983 1.391 . S
C983 H971 0.950 . S
C983 C979 1.393 . S
C983 C982 1.391 . S
H984 C992 0.950 . S
H985 C997 0.950 . S
H986 C994 0.950 . S
H987 C996 0.950 . S
H988 C998 0.950 . S
H989 C1000 0.950 . S
H990 C1002 0.950 . S
H991 C1003 0.950 . S
C992 H984 0.950 . S
C992 C993 1.386 . S
C992 C994 1.391 . S
C993 C992 1.386 . S
C993 C997 1.393 . S
C994 H986 0.950 . S
C994 C992 1.391 . S
C994 C995 1.400 . S
C995 C994 1.400 . S
C995 C996 1.398 . S
C995 C1001 1.491 1_556 S
C996 H987 0.950 . S
C996 C995 1.398 . S
C996 C997 1.391 . S
C997 H985 0.950 . S
C997 C993 1.393 . S
C997 C996 1.391 . S
C998 H988 0.950 . S
C998 C999 1.386 . S
C998 C1000 1.391 . S
C999 C998 1.386 . S
C999 C1003 1.393 . S
C1000 H989 0.950 . S
C1000 C998 1.391 . S
C1000 C1001 1.400 . S
C1001 C995 1.491 1_554 S
C1001 C1000 1.400 . S
C1001 C1002 1.398 . S
C1002 H990 0.950 . S
C1002 C1001 1.398 . S
C1002 C1003 1.391 . S
C1003 H991 0.950 . S
C1003 C999 1.393 . S
C1003 C1002 1.391 . S
H1004 C1012 0.950 . S
H1005 C1017 0.950 . S
H1006 C1014 0.950 . S
H1007 C1016 0.950 . S
H1008 C1018 0.950 . S
H1009 C1020 0.950 . S
H1010 C1022 0.950 . S
H1011 C1023 0.950 . S
C1012 H1004 0.950 . S
C1012 C1013 1.386 . S
C1012 C1014 1.391 . S
C1013 C1012 1.386 . S
C1013 C1017 1.393 . S
C1014 H1006 0.950 . S
C1014 C1012 1.391 . S
C1014 C1015 1.400 . S
C1015 C1014 1.400 . S
C1015 C1016 1.398 . S
C1015 C1021 1.491 . S
C1016 H1007 0.950 . S
C1016 C1015 1.398 . S
C1016 C1017 1.391 . S
C1017 H1005 0.950 . S
C1017 C1013 1.393 . S
C1017 C1016 1.391 . S
C1018 H1008 0.950 . S
C1018 C1019 1.386 . S
C1018 C1020 1.391 . S
C1019 C1018 1.386 . S
C1019 C1023 1.393 . S
C1020 H1009 0.950 . S
C1020 C1018 1.391 . S
C1020 C1021 1.400 . S
C1021 C1015 1.491 . S
C1021 C1020 1.400 . S
C1021 C1022 1.398 . S
C1022 H1010 0.950 . S
C1022 C1021 1.398 . S
C1022 C1023 1.391 . S
C1023 H1011 0.950 . S
C1023 C1019 1.393 . S
C1023 C1022 1.391 . S
H1024 C1032 0.950 . S
H1025 C1037 0.950 . S
H1026 C1034 0.950 . S
H1027 C1036 0.950 . S
H1028 C1038 0.950 . S
H1029 C1040 0.950 . S
H1030 C1042 0.950 . S
H1031 C1043 0.950 . S
C1032 H1024 0.950 . S
C1032 C1033 1.386 . S
C1032 C1034 1.391 . S
C1033 C1032 1.386 . S
C1033 C1037 1.393 . S
C1034 H1026 0.950 . S
C1034 C1032 1.391 . S
C1034 C1035 1.400 . S
C1035 C1034 1.400 . S
C1035 C1036 1.398 . S
C1035 C1041 1.491 . S
C1036 H1027 0.950 . S
C1036 C1035 1.398 . S
C1036 C1037 1.391 . S
C1037 H1025 0.950 . S
C1037 C1033 1.393 . S
C1037 C1036 1.391 . S
C1038 H1028 0.950 . S
C1038 C1039 1.386 . S
C1038 C1040 1.391 1_554 S
C1039 C1038 1.386 . S
C1039 C1043 1.393 . S
C1040 H1029 0.950 . S
C1040 C1038 1.391 1_556 S
C1040 C1041 1.400 . S
C1041 C1035 1.491 . S
C1041 C1040 1.400 . S
C1041 C1042 1.398 . S
C1042 H1030 0.950 . S
C1042 C1041 1.398 . S
C1042 C1043 1.391 1_556 S
C1043 H1031 0.950 . S
C1043 C1039 1.393 . S
C1043 C1042 1.391 1_554 S
H1044 C1052 0.950 . S
H1045 C1057 0.950 . S
H1046 C1054 0.950 . S
H1047 C1056 0.950 . S
H1048 C1058 0.950 . S
H1049 C1060 0.950 . S
H1050 C1062 0.950 . S
H1051 C1063 0.950 . S
C1052 H1044 0.950 . S
C1052 C1053 1.386 . S
C1052 C1054 1.391 . S
C1053 C1052 1.386 . S
C1053 C1057 1.393 . S
C1054 H1046 0.950 . S
C1054 C1052 1.391 . S
C1054 C1055 1.400 . S
C1055 C1054 1.400 . S
C1055 C1056 1.398 . S
C1055 C1061 1.491 . S
C1056 H1047 0.950 . S
C1056 C1055 1.398 . S
C1056 C1057 1.391 . S
C1057 H1045 0.950 . S
C1057 C1053 1.393 . S
C1057 C1056 1.391 . S
C1058 H1048 0.950 . S
C1058 C1059 1.386 . S
C1058 C1060 1.391 . S
C1059 C1058 1.386 . S
C1059 C1063 1.393 . S
C1060 H1049 0.950 . S
C1060 C1058 1.391 . S
C1060 C1061 1.400 . S
C1061 C1055 1.491 . S
C1061 C1060 1.400 . S
C1061 C1062 1.398 . S
C1062 H1050 0.950 . S
C1062 C1061 1.398 . S
C1062 C1063 1.391 . S
C1063 H1051 0.950 . S
C1063 C1059 1.393 . S
C1063 C1062 1.391 . S
H1064 C1072 0.950 . S
H1065 C1077 0.950 1_556 S
H1066 C1074 0.950 . S
H1067 C1076 0.950 . S
H1068 C1078 0.950 . S
H1069 C1080 0.950 . S
H1070 C1082 0.950 . S
H1071 C1083 0.950 . S
C1072 H1064 0.950 . S
C1072 C1073 1.386 . S
C1072 C1074 1.391 1_556 S
C1073 C1072 1.386 . S
C1073 C1077 1.393 1_556 S
C1074 H1066 0.950 . S
C1074 C1072 1.391 1_554 S
C1074 C1075 1.400 . S
C1075 C1074 1.400 . S
C1075 C1076 1.398 . S
C1075 C1081 1.491 . S
C1076 H1067 0.950 . S
C1076 C1075 1.398 . S
C1076 C1077 1.391 . S
C1077 H1065 0.950 1_554 S
C1077 C1073 1.393 1_554 S
C1077 C1076 1.391 . S
C1078 H1068 0.950 . S
C1078 C1079 1.386 . S
C1078 C1080 1.391 . S
C1079 C1078 1.386 . S
C1079 C1083 1.393 . S
C1080 H1069 0.950 . S
C1080 C1078 1.391 . S
C1080 C1081 1.400 . S
C1081 C1075 1.491 . S
C1081 C1080 1.400 . S
C1081 C1082 1.398 . S
C1082 H1070 0.950 . S
C1082 C1081 1.398 . S
C1082 C1083 1.391 . S
C1083 H1071 0.950 . S
C1083 C1079 1.393 . S
C1083 C1082 1.391 . S
H1084 C1092 0.950 . S
H1085 C1097 0.950 . S
H1086 C1094 0.950 . S
H1087 C1096 0.950 . S
H1088 C1098 0.950 . S
H1089 C1100 0.950 . S
H1090 C1102 0.950 . S
H1091 C1103 0.950 . S
C1092 H1084 0.950 . S
C1092 C1093 1.386 . S
C1092 C1094 1.391 . S
C1093 C1092 1.386 . S
C1093 C1097 1.393 . S
C1094 H1086 0.950 . S
C1094 C1092 1.391 . S
C1094 C1095 1.400 . S
C1095 C1094 1.400 . S
C1095 C1096 1.398 . S
C1095 C1101 1.491 . S
C1096 H1087 0.950 . S
C1096 C1095 1.398 . S
C1096 C1097 1.391 . S
C1097 H1085 0.950 . S
C1097 C1093 1.393 . S
C1097 C1096 1.391 . S
C1098 H1088 0.950 . S
C1098 C1099 1.386 . S
C1098 C1100 1.391 . S
C1099 C1098 1.386 . S
C1099 C1103 1.393 . S
C1100 H1089 0.950 . S
C1100 C1098 1.391 . S
C1100 C1101 1.400 . S
C1101 C1095 1.491 . S
C1101 C1100 1.400 . S
C1101 C1102 1.398 . S
C1102 H1090 0.950 . S
C1102 C1101 1.398 . S
C1102 C1103 1.391 . S
C1103 H1091 0.950 . S
C1103 C1099 1.393 . S
C1103 C1102 1.391 . S
H1104 C1112 0.950 . S
H1105 C1117 0.950 . S
H1106 C1114 0.950 . S
H1107 C1116 0.950 . S
H1108 C1118 0.950 . S
H1109 C1120 0.950 . S
H1110 C1122 0.950 . S
H1111 C1123 0.950 . S
C1112 H1104 0.950 . S
C1112 C1113 1.386 . S
C1112 C1114 1.391 . S
C1113 C1112 1.386 . S
C1113 C1117 1.393 . S
C1114 H1106 0.950 . S
C1114 C1112 1.391 . S
C1114 C1115 1.400 . S
C1115 C1114 1.400 . S
C1115 C1116 1.398 . S
C1115 C1121 1.491 . S
C1116 H1107 0.950 . S
C1116 C1115 1.398 . S
C1116 C1117 1.391 . S
C1117 H1105 0.950 . S
C1117 C1113 1.393 . S
C1117 C1116 1.391 . S
C1118 H1108 0.950 . S
C1118 C1119 1.386 1_554 S
C1118 C1120 1.391 . S
C1119 C1118 1.386 1_556 S
C1119 C1123 1.393 . S
C1120 H1109 0.950 . S
C1120 C1118 1.391 . S
C1120 C1121 1.400 . S
C1121 C1115 1.491 . S
C1121 C1120 1.400 . S
C1121 C1122 1.398 . S
C1122 H1110 0.950 . S
C1122 C1121 1.398 . S
C1122 C1123 1.391 1_554 S
C1123 H1111 0.950 . S
C1123 C1119 1.393 . S
C1123 C1122 1.391 1_556 S
H1124 C1132 0.950 . S
H1125 C1137 0.950 . S
H1126 C1134 0.950 . S
H1127 C1136 0.950 . S
H1128 C1138 0.950 . S
H1129 C1140 0.950 . S
H1130 C1142 0.950 . S
H1131 C1143 0.950 . S
C1132 H1124 0.950 . S
C1132 C1133 1.386 . S
C1132 C1134 1.391 . S
C1133 C1132 1.386 . S
C1133 C1137 1.393 . S
C1134 H1126 0.950 . S
C1134 C1132 1.391 . S
C1134 C1135 1.400 . S
C1135 C1134 1.400 . S
C1135 C1136 1.398 . S
C1135 C1141 1.491 . S
C1136 H1127 0.950 . S
C1136 C1135 1.398 . S
C1136 C1137 1.391 . S
C1137 H1125 0.950 . S
C1137 C1133 1.393 . S
C1137 C1136 1.391 . S
C1138 H1128 0.950 . S
C1138 C1139 1.386 . S
C1138 C1140 1.391 . S
C1139 C1138 1.386 . S
C1139 C1143 1.393 . S
C1140 H1129 0.950 . S
C1140 C1138 1.391 . S
C1140 C1141 1.400 . S
C1141 C1135 1.491 . S
C1141 C1140 1.400 . S
C1141 C1142 1.398 . S
C1142 H1130 0.950 . S
C1142 C1141 1.398 . S
C1142 C1143 1.391 . S
C1143 H1131 0.950 . S
C1143 C1139 1.393 . S
C1143 C1142 1.391 . S
H1144 C1152 0.950 . S
H1145 C1157 0.950 . S
H1146 C1154 0.950 . S
H1147 C1156 0.950 . S
H1148 C1158 0.950 . S
H1149 C1160 0.950 . S
H1150 C1162 0.950 . S
H1151 C1163 0.950 . S
C1152 H1144 0.950 . S
C1152 C1153 1.386 . S
C1152 C1154 1.391 1_554 S
C1153 C1152 1.386 . S
C1153 C1157 1.393 1_554 S
C1154 H1146 0.950 . S
C1154 C1152 1.391 1_556 S
C1154 C1155 1.400 . S
C1155 C1154 1.400 . S
C1155 C1156 1.398 . S
C1155 C1161 1.491 . S
C1156 H1147 0.950 . S
C1156 C1155 1.398 . S
C1156 C1157 1.391 . S
C1157 H1145 0.950 . S
C1157 C1153 1.393 1_556 S
C1157 C1156 1.391 . S
C1158 H1148 0.950 . S
C1158 C1159 1.386 . S
C1158 C1160 1.391 . S
C1159 C1158 1.386 . S
C1159 C1163 1.393 . S
C1160 H1149 0.950 . S
C1160 C1158 1.391 . S
C1160 C1161 1.400 . S
C1161 C1155 1.491 . S
C1161 C1160 1.400 . S
C1161 C1162 1.398 . S
C1162 H1150 0.950 . S
C1162 C1161 1.398 . S
C1162 C1163 1.391 . S
C1163 H1151 0.950 . S
C1163 C1159 1.393 . S
C1163 C1162 1.391 . S
H1164 C1172 0.950 . S
H1165 C1177 0.950 . S
H1166 C1174 0.950 . S
H1167 C1176 0.950 . S
H1168 C1178 0.950 . S
H1169 C1180 0.950 . S
H1170 C1182 0.950 . S
H1171 C1183 0.950 . S
C1172 H1164 0.950 . S
C1172 C1173 1.386 . S
C1172 C1174 1.391 . S
C1173 C1172 1.386 . S
C1173 C1177 1.393 . S
C1174 H1166 0.950 . S
C1174 C1172 1.391 . S
C1174 C1175 1.400 . S
C1175 C1174 1.400 . S
C1175 C1176 1.398 . S
C1175 C1181 1.491 . S
C1176 H1167 0.950 . S
C1176 C1175 1.398 . S
C1176 C1177 1.391 . S
C1177 H1165 0.950 . S
C1177 C1173 1.393 . S
C1177 C1176 1.391 . S
C1178 H1168 0.950 . S
C1178 C1179 1.386 . S
C1178 C1180 1.391 . S
C1179 C1178 1.386 . S
C1179 C1183 1.393 . S
C1180 H1169 0.950 . S
C1180 C1178 1.391 . S
C1180 C1181 1.400 . S
C1181 C1175 1.491 . S
C1181 C1180 1.400 . S
C1181 C1182 1.398 . S
C1182 H1170 0.950 . S
C1182 C1181 1.398 . S
C1182 C1183 1.391 . S
C1183 H1171 0.950 . S
C1183 C1179 1.393 . S
C1183 C1182 1.391 . S
H1184 C1192 0.950 . S
H1185 C1197 0.950 . S
H1186 C1194 0.950 . S
H1187 C1196 0.950 . S
H1188 C1198 0.950 . S
H1189 C1200 0.950 . S
H1190 C1202 0.950 . S
H1191 C1203 0.950 . S
C1192 H1184 0.950 . S
C1192 C1193 1.386 1_556 S
C1192 C1194 1.391 . S
C1193 C1192 1.386 1_554 S
C1193 C1197 1.393 . S
C1194 H1186 0.950 . S
C1194 C1192 1.391 . S
C1194 C1195 1.400 . S
C1195 C1194 1.400 . S
C1195 C1196 1.398 . S
C1195 C1201 1.491 . S
C1196 H1187 0.950 . S
C1196 C1195 1.398 . S
C1196 C1197 1.391 1_556 S
C1197 H1185 0.950 . S
C1197 C1193 1.393 . S
C1197 C1196 1.391 1_554 S
C1198 H1188 0.950 . S
C1198 C1199 1.386 . S
C1198 C1200 1.391 . S
C1199 C1198 1.386 . S
C1199 C1203 1.393 . S
C1200 H1189 0.950 . S
C1200 C1198 1.391 . S
C1200 C1201 1.400 . S
C1201 C1195 1.491 . S
C1201 C1200 1.400 . S
C1201 C1202 1.398 . S
C1202 H1190 0.950 . S
C1202 C1201 1.398 . S
C1202 C1203 1.391 . S
C1203 H1191 0.950 . S
C1203 C1199 1.393 . S
C1203 C1202 1.391 . S
H1204 C1212 0.950 . S
H1205 C1217 0.950 . S
H1206 C1214 0.950 . S
H1207 C1216 0.950 . S
H1208 C1218 0.950 . S
H1209 C1220 0.950 . S
H1210 C1222 0.950 . S
H1211 C1223 0.950 . S
C1212 H1204 0.950 . S
C1212 C1213 1.386 . S
C1212 C1214 1.391 . S
C1213 C1212 1.386 . S
C1213 C1217 1.393 . S
C1214 H1206 0.950 . S
C1214 C1212 1.391 . S
C1214 C1215 1.400 . S
C1215 C1214 1.400 . S
C1215 C1216 1.398 . S
C1215 C1221 1.491 . S
C1216 H1207 0.950 . S
C1216 C1215 1.398 . S
C1216 C1217 1.391 . S
C1217 H1205 0.950 . S
C1217 C1213 1.393 . S
C1217 C1216 1.391 . S
C1218 H1208 0.950 . S
C1218 C1219 1.386 . S
C1218 C1220 1.391 . S
C1219 C1218 1.386 . S
C1219 C1223 1.393 . S
C1220 H1209 0.950 . S
C1220 C1218 1.391 . S
C1220 C1221 1.400 . S
C1221 C1215 1.491 . S
C1221 C1220 1.400 . S
C1221 C1222 1.398 . S
C1222 H1210 0.950 . S
C1222 C1221 1.398 . S
C1222 C1223 1.391 . S
C1223 H1211 0.950 . S
C1223 C1219 1.393 . S
C1223 C1222 1.391 . S
H1224 C1232 0.950 . S
H1225 C1237 0.950 . S
H1226 C1234 0.950 . S
H1227 C1236 0.950 . S
H1228 C1238 0.950 . S
H1229 C1240 0.950 . S
H1230 C1242 0.950 . S
H1231 C1243 0.950 . S
C1232 H1224 0.950 . S
C1232 C1233 1.386 . S
C1232 C1234 1.391 . S
C1233 C1232 1.386 . S
C1233 C1237 1.393 . S
C1234 H1226 0.950 . S
C1234 C1232 1.391 . S
C1234 C1235 1.400 . S
C1235 C1234 1.400 . S
C1235 C1236 1.398 . S
C1235 C1241 1.491 . S
C1236 H1227 0.950 . S
C1236 C1235 1.398 . S
C1236 C1237 1.391 . S
C1237 H1225 0.950 . S
C1237 C1233 1.393 . S
C1237 C1236 1.391 . S
C1238 H1228 0.950 . S
C1238 C1239 1.386 1_554 S
C1238 C1240 1.391 . S
C1239 C1238 1.386 1_556 S
C1239 C1243 1.393 . S
C1240 H1229 0.950 . S
C1240 C1238 1.391 . S
C1240 C1241 1.400 . S
C1241 C1235 1.491 . S
C1241 C1240 1.400 . S
C1241 C1242 1.398 . S
C1242 H1230 0.950 . S
C1242 C1241 1.398 . S
C1242 C1243 1.391 1_554 S
C1243 H1231 0.950 . S
C1243 C1239 1.393 . S
C1243 C1242 1.391 1_556 S
H1244 C1252 0.950 . S
H1245 C1257 0.950 . S
H1246 C1254 0.950 . S
H1247 C1256 0.950 . S
H1248 C1258 0.950 . S
H1249 C1260 0.950 . S
H1250 C1262 0.950 . S
H1251 C1263 0.950 . S
C1252 H1244 0.950 . S
C1252 C1253 1.386 . S
C1252 C1254 1.391 . S
C1253 C1252 1.386 . S
C1253 C1257 1.393 . S
C1254 H1246 0.950 . S
C1254 C1252 1.391 . S
C1254 C1255 1.400 . S
C1255 C1254 1.400 . S
C1255 C1256 1.398 . S
C1255 C1261 1.491 . S
C1256 H1247 0.950 . S
C1256 C1255 1.398 . S
C1256 C1257 1.391 . S
C1257 H1245 0.950 . S
C1257 C1253 1.393 . S
C1257 C1256 1.391 . S
C1258 H1248 0.950 . S
C1258 C1259 1.386 . S
C1258 C1260 1.391 . S
C1259 C1258 1.386 . S
C1259 C1263 1.393 . S
C1260 H1249 0.950 . S
C1260 C1258 1.391 . S
C1260 C1261 1.400 . S
C1261 C1255 1.491 . S
C1261 C1260 1.400 . S
C1261 C1262 1.398 . S
C1262 H1250 0.950 . S
C1262 C1261 1.398 . S
C1262 C1263 1.391 . S
C1263 H1251 0.950 . S
C1263 C1259 1.393 . S
C1263 C1262 1.391 . S
H1264 C1272 0.947 1_556 S
H1265 C1277 0.950 . S
H1266 C1274 0.950 . S
H1267 C1276 0.950 . S
H1268 C1278 0.950 . S
H1269 C1280 0.950 . S
H1270 C1282 0.950 . S
H1271 C1283 0.950 . S
C1272 H1264 0.947 1_554 S
C1272 C1273 1.379 1_554 S
C1272 C1274 1.401 . S
C1273 C1272 1.379 1_556 S
C1273 C1277 1.393 . S
C1274 H1266 0.950 . S
C1274 C1272 1.401 . S
C1274 C1275 1.400 . S
C1275 C1274 1.400 . S
C1275 C1276 1.398 . S
C1275 C1281 1.491 . S
C1276 H1267 0.950 . S
C1276 C1275 1.398 . S
C1276 C1277 1.391 1_554 S
C1277 H1265 0.950 . S
C1277 C1273 1.393 . S
C1277 C1276 1.391 1_556 S
C1278 H1268 0.950 . S
C1278 C1279 1.386 . S
C1278 C1280 1.391 . S
C1279 C1278 1.386 . S
C1279 C1283 1.393 . S
C1280 H1269 0.950 . S
C1280 C1278 1.391 . S
C1280 C1281 1.400 . S
C1281 C1275 1.491 . S
C1281 C1280 1.400 . S
C1281 C1282 1.398 . S
C1282 H1270 0.950 . S
C1282 C1281 1.398 . S
C1282 C1283 1.391 . S
C1283 H1271 0.950 . S
C1283 C1279 1.393 . S
C1283 C1282 1.391 . S
H1284 C1292 0.950 . S
H1285 C1297 0.950 . S
H1286 C1294 0.950 . S
H1287 C1296 0.950 . S
H1288 C1298 0.950 . S
H1289 C1300 0.950 . S
H1290 C1302 0.950 . S
H1291 C1303 0.950 . S
C1292 H1284 0.950 . S
C1292 C1293 1.386 . S
C1292 C1294 1.391 . S
C1293 C1292 1.386 . S
C1293 C1297 1.393 . S
C1294 H1286 0.950 . S
C1294 C1292 1.391 . S
C1294 C1295 1.400 . S
C1295 C1294 1.400 . S
C1295 C1296 1.398 . S
C1295 C1301 1.491 . S
C1296 H1287 0.950 . S
C1296 C1295 1.398 . S
C1296 C1297 1.391 . S
C1297 H1285 0.950 . S
C1297 C1293 1.393 . S
C1297 C1296 1.391 . S
C1298 H1288 0.950 . S
C1298 C1299 1.386 . S
C1298 C1300 1.391 . S
C1299 C1298 1.386 . S
C1299 C1303 1.393 . S
C1300 H1289 0.950 . S
C1300 C1298 1.391 . S
C1300 C1301 1.400 . S
C1301 C1295 1.491 . S
C1301 C1300 1.400 . S
C1301 C1302 1.398 . S
C1302 H1290 0.950 . S
C1302 C1301 1.398 . S
C1302 C1303 1.391 . S
C1303 H1291 0.950 . S
C1303 C1299 1.393 . S
C1303 C1302 1.391 . S
H1304 C1312 0.950 . S
H1305 C1317 0.950 . S
H1306 C1314 0.950 . S
H1307 C1316 0.950 . S
H1308 C1318 0.949 1_554 S
H1309 C1320 0.950 . S
H1310 C1322 0.950 . S
H1311 C1323 0.950 . S
C1312 H1304 0.950 . S
C1312 C1313 1.386 . S
C1312 C1314 1.391 . S
C1313 C1312 1.386 . S
C1313 C1317 1.393 . S
C1314 H1306 0.950 . S
C1314 C1312 1.391 . S
C1314 C1315 1.400 . S
C1315 C1314 1.400 . S
C1315 C1316 1.398 . S
C1315 C1321 1.491 . S
C1316 H1307 0.950 . S
C1316 C1315 1.398 . S
C1316 C1317 1.391 . S
C1317 H1305 0.950 . S
C1317 C1313 1.393 . S
C1317 C1316 1.391 . S
C1318 H1308 0.949 1_556 S
C1318 C1319 1.386 1_556 S
C1318 C1320 1.391 . S
C1319 C1318 1.386 1_554 S
C1319 C1323 1.393 . S
C1320 H1309 0.950 . S
C1320 C1318 1.391 . S
C1320 C1321 1.400 . S
C1321 C1315 1.491 . S
C1321 C1320 1.400 . S
C1321 C1322 1.398 . S
C1322 H1310 0.950 . S
C1322 C1321 1.398 . S
C1322 C1323 1.391 1_556 S
C1323 H1311 0.950 . S
C1323 C1319 1.393 . S
C1323 C1322 1.391 1_554 S
H1324 C1332 0.950 . S
H1325 C1337 0.950 . S
H1326 C1334 0.950 . S
H1327 C1336 0.950 . S
H1328 C1338 0.950 . S
H1329 C1340 0.950 . S
H1330 C1342 0.950 . S
H1331 C1343 0.950 . S
C1332 H1324 0.950 . S
C1332 C1333 1.386 . S
C1332 C1334 1.391 . S
C1333 C1332 1.386 . S
C1333 C1337 1.393 . S
C1334 H1326 0.950 . S
C1334 C1332 1.391 . S
C1334 C1335 1.400 . S
C1335 C1334 1.400 . S
C1335 C1336 1.398 . S
C1335 C1341 1.491 . S
C1336 H1327 0.950 . S
C1336 C1335 1.398 . S
C1336 C1337 1.391 . S
C1337 H1325 0.950 . S
C1337 C1333 1.393 . S
C1337 C1336 1.391 . S
C1338 H1328 0.950 . S
C1338 C1339 1.386 . S
C1338 C1340 1.391 . S
C1339 C1338 1.386 . S
C1339 C1343 1.393 . S
C1340 H1329 0.950 . S
C1340 C1338 1.391 . S
C1340 C1341 1.400 . S
C1341 C1335 1.491 . S
C1341 C1340 1.400 . S
C1341 C1342 1.398 . S
C1342 H1330 0.950 . S
C1342 C1341 1.398 . S
C1342 C1343 1.391 . S
C1343 H1331 0.950 . S
C1343 C1339 1.393 . S
C1343 C1342 1.391 . S
C553 C9 1.478 . S
C559 C111 1.468 . S
C573 C77 1.461 . S
C579 C43 1.483 . S
C593 C247 1.481 . S
C599 C145 1.464 . S
C613 C179 1.480 . S
C619 C213 1.466 . S
C633 C281 1.469 . S
C639 C383 1.477 . S
C653 C315 1.464 . S
C659 C349 1.481 . S
C673 C519 1.456 . S
C679 C417 1.478 . S
C693 C451 1.457 . S
C699 C485 1.476 . S
C713 C209 1.497 . S
C719 C5 1.490 . S
C733 C243 1.498 . S
C739 C39 1.488 . S
C753 C141 1.493 . S
C759 C73 1.493 . S
C773 C175 1.491 . S
C779 C107 1.495 . S
C793 C481 1.488 . S
C799 C277 1.498 . S
C813 C515 1.489 . S
C819 C311 1.498 . S
C833 C413 1.499 . S
C839 C345 1.488 . S
C853 C379 1.489 . S
C859 C447 1.498 . S
C873 C2 1.545 . S
C879 C70 1.548 . S
C893 C36 1.537 . S
C899 C104 1.540 . S
C913 C138 1.549 . S
C919 C206 1.549 . S
C933 C172 1.543 . S
C939 C240 1.539 . S
C953 C274 1.537 . S
C959 C342 1.538 . S
C973 C308 1.541 . S
C979 C376 1.545 . S
C993 C410 1.549 . S
C999 C478 1.549 . S
C1013 C444 1.537 . S
C1019 C512 1.539 . S
C1033 C530 1.360 . S
C1039 C33 1.358 . S
C1053 C67 1.359 . S
C1059 C496 1.359 . S
C1073 C101 1.358 . S
C1079 C462 1.360 . S
C1093 C428 1.357 . S
C1099 C135 1.359 . S
C1113 C394 1.357 . S
C1119 C169 1.360 . S
C1133 C203 1.360 . S
C1139 C360 1.359 . S
C1153 C237 1.360 . S
C1159 C326 1.359 . S
C1173 C271 1.360 . S
C1179 C292 1.357 . S
C1193 C305 1.360 . S
C1199 C258 1.357 . S
C1213 C224 1.360 . S
C1219 C339 1.358 . S
C1233 C190 1.357 . S
C1239 C373 1.358 . S
C1253 C407 1.359 . S
C1259 C156 1.359 . S
C1273 C441 1.358 . S
C1279 C122 1.360 . S
C1293 C88 1.357 . S
C1299 C475 1.360 . S
C1313 C54 1.356 . S
C1319 C509 1.359 . S
C1333 C20 1.359 . S
C1339 C543 1.357 . S
