# Generated by pormake.
# Topology wiu, (6)-cn, num edge types: 1
# Building blocks:
#     Node 0, Type 0, BuildingBlock: GEDQOX_clean_sbu_0, # of connection points: 6
#     Node 1, Type 0, BuildingBlock: GEDQOX_clean_sbu_0, # of connection points: 6
#     Node 2, Type 0, BuildingBlock: GEDQOX_clean_sbu_0, # of connection points: 6
#     Node 3, Type 0, BuildingBlock: GEDQOX_clean_sbu_0, # of connection points: 6
#     Node 4, Type 0, BuildingBlock: GEDQOX_clean_sbu_0, # of connection points: 6
#     Node 5, Type 0, BuildingBlock: GEDQOX_clean_sbu_0, # of connection points: 6
#     Node 6, Type 0, BuildingBlock: GEDQOX_clean_sbu_0, # of connection points: 6
#     Node 7, Type 0, BuildingBlock: GEDQOX_clean_sbu_0, # of connection points: 6
#     Node 8, Type 0, BuildingBlock: GEDQOX_clean_sbu_0, # of connection points: 6
#     Node 9, Type 0, BuildingBlock: GEDQOX_clean_sbu_0, # of connection points: 6
#     Node 10, Type 0, BuildingBlock: GEDQOX_clean_sbu_0, # of connection points: 6
#     Node 11, Type 0, BuildingBlock: GEDQOX_clean_sbu_0, # of connection points: 6
#     Node 12, Type 0, BuildingBlock: GEDQOX_clean_sbu_0, # of connection points: 6
#     Node 13, Type 0, BuildingBlock: GEDQOX_clean_sbu_0, # of connection points: 6
#     Node 14, Type 0, BuildingBlock: GEDQOX_clean_sbu_0, # of connection points: 6
#     Node 15, Type 0, BuildingBlock: GEDQOX_clean_sbu_0, # of connection points: 6
#     Edge 16, Type (0, 0), BuildingBlock: KIFKEQ_clean_linker_1, # of connection points: 2
#     Edge 17, Type (0, 0), BuildingBlock: KIFKEQ_clean_linker_1, # of connection points: 2
#     Edge 18, Type (0, 0), BuildingBlock: KIFKEQ_clean_linker_1, # of connection points: 2
#     Edge 19, Type (0, 0), BuildingBlock: KIFKEQ_clean_linker_1, # of connection points: 2
#     Edge 20, Type (0, 0), BuildingBlock: KIFKEQ_clean_linker_1, # of connection points: 2
#     Edge 21, Type (0, 0), BuildingBlock: KIFKEQ_clean_linker_1, # of connection points: 2
#     Edge 22, Type (0, 0), BuildingBlock: KIFKEQ_clean_linker_1, # of connection points: 2
#     Edge 23, Type (0, 0), BuildingBlock: KIFKEQ_clean_linker_1, # of connection points: 2
#     Edge 24, Type (0, 0), BuildingBlock: KIFKEQ_clean_linker_1, # of connection points: 2
#     Edge 25, Type (0, 0), BuildingBlock: KIFKEQ_clean_linker_1, # of connection points: 2
#     Edge 26, Type (0, 0), BuildingBlock: KIFKEQ_clean_linker_1, # of connection points: 2
#     Edge 27, Type (0, 0), BuildingBlock: KIFKEQ_clean_linker_1, # of connection points: 2
#     Edge 28, Type (0, 0), BuildingBlock: KIFKEQ_clean_linker_1, # of connection points: 2
#     Edge 29, Type (0, 0), BuildingBlock: KIFKEQ_clean_linker_1, # of connection points: 2
#     Edge 30, Type (0, 0), BuildingBlock: KIFKEQ_clean_linker_1, # of connection points: 2
#     Edge 31, Type (0, 0), BuildingBlock: KIFKEQ_clean_linker_1, # of connection points: 2
#     Edge 32, Type (0, 0), BuildingBlock: KIFKEQ_clean_linker_1, # of connection points: 2
#     Edge 33, Type (0, 0), BuildingBlock: KIFKEQ_clean_linker_1, # of connection points: 2
#     Edge 34, Type (0, 0), BuildingBlock: KIFKEQ_clean_linker_1, # of connection points: 2
#     Edge 35, Type (0, 0), BuildingBlock: KIFKEQ_clean_linker_1, # of connection points: 2
#     Edge 36, Type (0, 0), BuildingBlock: KIFKEQ_clean_linker_1, # of connection points: 2
#     Edge 37, Type (0, 0), BuildingBlock: KIFKEQ_clean_linker_1, # of connection points: 2
#     Edge 38, Type (0, 0), BuildingBlock: KIFKEQ_clean_linker_1, # of connection points: 2
#     Edge 39, Type (0, 0), BuildingBlock: KIFKEQ_clean_linker_1, # of connection points: 2
#     Edge 40, Type (0, 0), BuildingBlock: KIFKEQ_clean_linker_1, # of connection points: 2
#     Edge 41, Type (0, 0), BuildingBlock: KIFKEQ_clean_linker_1, # of connection points: 2
#     Edge 42, Type (0, 0), BuildingBlock: KIFKEQ_clean_linker_1, # of connection points: 2
#     Edge 43, Type (0, 0), BuildingBlock: KIFKEQ_clean_linker_1, # of connection points: 2
#     Edge 44, Type (0, 0), BuildingBlock: KIFKEQ_clean_linker_1, # of connection points: 2
#     Edge 45, Type (0, 0), BuildingBlock: KIFKEQ_clean_linker_1, # of connection points: 2
#     Edge 46, Type (0, 0), BuildingBlock: KIFKEQ_clean_linker_1, # of connection points: 2
#     Edge 47, Type (0, 0), BuildingBlock: KIFKEQ_clean_linker_1, # of connection points: 2
#     Edge 48, Type (0, 0), BuildingBlock: KIFKEQ_clean_linker_1, # of connection points: 2
#     Edge 49, Type (0, 0), BuildingBlock: KIFKEQ_clean_linker_1, # of connection points: 2
#     Edge 50, Type (0, 0), BuildingBlock: KIFKEQ_clean_linker_1, # of connection points: 2
#     Edge 51, Type (0, 0), BuildingBlock: KIFKEQ_clean_linker_1, # of connection points: 2
#     Edge 52, Type (0, 0), BuildingBlock: KIFKEQ_clean_linker_1, # of connection points: 2
#     Edge 53, Type (0, 0), BuildingBlock: KIFKEQ_clean_linker_1, # of connection points: 2
#     Edge 54, Type (0, 0), BuildingBlock: KIFKEQ_clean_linker_1, # of connection points: 2
#     Edge 55, Type (0, 0), BuildingBlock: KIFKEQ_clean_linker_1, # of connection points: 2
#     Edge 56, Type (0, 0), BuildingBlock: KIFKEQ_clean_linker_1, # of connection points: 2
#     Edge 57, Type (0, 0), BuildingBlock: KIFKEQ_clean_linker_1, # of connection points: 2
#     Edge 58, Type (0, 0), BuildingBlock: KIFKEQ_clean_linker_1, # of connection points: 2
#     Edge 59, Type (0, 0), BuildingBlock: KIFKEQ_clean_linker_1, # of connection points: 2
#     Edge 60, Type (0, 0), BuildingBlock: KIFKEQ_clean_linker_1, # of connection points: 2
#     Edge 61, Type (0, 0), BuildingBlock: KIFKEQ_clean_linker_1, # of connection points: 2
#     Edge 62, Type (0, 0), BuildingBlock: KIFKEQ_clean_linker_1, # of connection points: 2
#     Edge 63, Type (0, 0), BuildingBlock: KIFKEQ_clean_linker_1, # of connection points: 2
# Relax obj value: 0.231
# Max RMSD: 0.311
# Mean RMSD: 0.266
data_MOF--net-wiu--node1-GEDQOX_clean_sbu_0--edge1-KIFKEQ_clean_linker_1
_symmetry_space_group_name_H-M    P1
_symmetry_Int_Tables_number       1
_symmetry_cell_setting            triclinic
loop_
_symmetry_equiv_pos_as_xyz
'x, y, z'
_cell_length_a     29.966199
_cell_length_b     28.859092
_cell_length_c     88.470446
_cell_angle_alpha  77.854955
_cell_angle_beta   78.527123
_cell_angle_gamma 77.586353
loop_
_atom_site_label
_atom_site_type_symbol
_atom_site_fract_x
_atom_site_fract_y
_atom_site_fract_z
_atom_type_partial_charge
Nd0 Nd 0.35807 0.02241 0.12817 0.0
Nd1 Nd 0.30268 0.07697 0.10179 0.0
C2 C 0.39057 0.97558 0.15455 0.0
C3 C 0.38798 -0.01499 0.17116 0.0
C4 C 0.34651 -0.0118 0.18212 0.0
C5 C 0.3455 -0.00541 0.19771 0.0
C6 C 0.38592 -0.00194 0.20317 0.0
C7 C 0.42712 -0.00428 0.19203 0.0
C8 C 0.4281 -0.0107 0.17648 0.0
C9 C 0.38365 0.10634 0.11218 0.0
C10 C 0.28196 0.11897 0.13459 0.0
C11 C 0.27378 0.14159 0.07838 0.0
C12 C 0.25983 0.13778 0.06378 0.0
C13 C 0.28952 0.14767 0.04956 0.0
C14 C 0.27964 0.13908 0.03579 0.0
C15 C 0.23961 0.12095 0.03602 0.0
C16 C 0.20934 0.11212 0.05018 0.0
C17 C 0.21937 0.12038 0.06397 0.0
C18 C 0.24917 0.01282 0.11997 0.0
C19 C 0.39328 0.00082 0.08914 0.0
O20 O 0.35355 0.96775 0.15037 0.0
O21 O 0.41459 0.00061 0.14292 0.0
O22 O 0.38204 0.09348 0.12719 0.0
O23 O 0.37284 0.07467 0.10665 0.0
O24 O 0.30234 0.07614 0.14103 0.0
O25 O 0.28317 0.13006 0.1193 0.0
O26 O 0.31753 0.12541 0.07929 0.0
O27 O 0.2464 0.12927 0.09145 0.0
O28 O 0.24303 0.03631 0.10615 0.0
O29 O 0.28829 0.01625 0.12293 0.0
O30 O 0.35309 0.02724 0.08611 0.0
O31 O 0.40257 -0.00812 0.10417 0.0
H32 H 0.3146 -0.01477 0.17872 0.0
H33 H 0.31281 -0.00433 0.20558 0.0
H34 H 0.45911 -0.00079 0.19522 0.0
H35 H 0.4608 -0.0127 0.16858 0.0
H36 H 0.32103 0.16088 0.04917 0.0
H37 H 0.30367 0.1459 1.02503 0.0
H38 H 0.17775 0.09905 0.05059 0.0
H39 H 0.1958 0.11237 0.07476 0.0
Nd40 Nd 0.62998 0.57333 0.36412 0.0
Nd41 Nd 0.61898 0.51442 0.34444 0.0
C42 C 0.64474 0.61128 0.38691 0.0
C43 C 0.64281 0.60257 0.40388 0.0
C44 C 0.65286 0.55586 0.41247 0.0
C45 C 0.65554 0.54945 0.42839 0.0
C46 C 0.64766 0.58965 0.43582 0.0
C47 C 0.63522 0.63603 0.4273 0.0
C48 C 0.63299 0.6424 0.41143 0.0
C49 C 0.57678 0.6238 0.34191 0.0
C50 C 0.53836 0.52044 0.3742 0.0
C51 C 0.61409 0.46409 0.32355 0.0
C52 C 0.61722 0.46946 0.3067 0.0
C53 C 0.59188 0.50945 0.29806 0.0
C54 C 0.59269 0.51113 0.28217 0.0
C55 C 0.61956 0.47341 0.27488 0.0
C56 C 0.64651 0.43479 0.28338 0.0
C57 C 0.6451 0.43271 0.29926 0.0
C58 C 0.65709 0.46026 0.36986 0.0
C59 C 0.68433 0.59821 0.32858 0.0
O60 O 0.67703 0.58327 0.379 0.0
O61 O 0.60516 0.62098 0.38183 0.0
O62 O 0.60763 0.64058 0.34648 0.0
O63 O 0.5734 0.58262 0.34953 0.0
O64 O 0.56894 0.53722 0.37958 0.0
O65 O 0.54684 0.51421 0.35948 0.0
O66 O 0.57779 0.48909 0.33091 0.0
O67 O 0.65259 0.46287 0.32856 0.0
O68 O 0.62346 0.45159 0.3645 0.0
O69 O 0.67049 0.49841 0.3619 0.0
O70 O 0.66066 0.56778 0.32585 0.0
O71 O 0.68301 0.60273 0.34323 0.0
H72 H 0.66004 0.52464 0.4068 0.0
H73 H 0.66502 0.51337 0.43478 0.0
H74 H 0.6297 0.66763 0.4327 0.0
H75 H 0.62517 0.67863 0.40491 0.0
H76 H 0.5705 0.53848 0.30364 0.0
H77 H 0.57151 0.54094 0.27569 0.0
H78 H 0.6667 0.40496 0.27793 0.0
H79 H 0.66474 0.40171 0.30582 0.0
Nd80 Nd 0.13348 0.86234 0.60248 0.0
Nd81 Nd 0.20604 0.83056 0.57643 0.0
C82 C 0.08669 0.88974 0.62837 0.0
C83 C 0.09316 0.88187 0.64465 0.0
C84 C 0.13664 0.88028 0.64859 0.0
C85 C 0.1406 0.87897 0.66409 0.0
C86 C 0.10117 0.87877 0.67569 0.0
C87 C 0.05881 0.87546 0.67191 0.0
C88 C 0.05481 0.87719 0.65641 0.0
C89 C 0.10214 0.81553 0.58429 0.0
C90 C 0.20501 0.76001 0.61069 0.0
C91 C 0.25708 0.79015 0.55309 0.0
C92 C 0.26215 0.80491 0.53592 0.0
C93 C 0.22349 0.81692 0.52809 0.0
C94 C 0.22892 0.83339 0.5119 0.0
C95 C 0.27301 0.83769 0.50335 0.0
C96 C 0.31146 0.82561 0.51116 0.0
C97 C 0.30605 0.80946 0.52731 0.0
C98 C 0.23057 0.89588 0.59105 0.0
C99 C 0.12072 0.9184 0.56741 0.0
O100 O 0.11365 0.91597 0.61815 0.0
O101 O 0.0808 0.85194 0.62357 0.0
O102 O 0.07733 0.85203 0.59022 0.0
O103 O 0.14108 0.80376 0.58873 0.0
O104 O 0.16728 0.78956 0.61573 0.0
O105 O 0.22785 0.76861 0.59627 0.0
O106 O 0.21736 0.77873 0.56025 0.0
O107 O 0.27295 0.81607 0.56057 0.0
O108 O 0.23893 0.89686 0.57599 0.0
O109 O 0.20997 0.86142 0.59753 0.0
O110 O 0.15276 0.88329 0.56245 0.0
O111 O 0.11413 0.92419 0.5822 0.0
H112 H 0.16694 0.88227 0.63966 0.0
H113 H 0.17356 0.88167 0.66681 0.0
H114 H 0.02822 0.8747 0.6808 0.0
H115 H 0.02134 0.87709 0.65353 0.0
H116 H 0.18905 0.8141 0.53444 0.0
H117 H 0.19889 0.84236 0.50605 0.0
H118 H 0.34568 0.82922 0.50475 0.0
H119 H 0.33615 0.80099 0.53311 0.0
Nd120 Nd 0.8082 0.4828 0.85328 0.0
Nd121 Nd 0.89645 0.51995 0.85407 0.0
C122 C 0.74341 0.44234 0.84758 0.0
C123 C 0.74127 0.41116 0.83667 0.0
C124 C 0.77748 0.4036 0.8242 0.0
C125 C 0.7773 0.37101 0.81457 0.0
C126 C 0.7403 0.34604 0.81708 0.0
C127 C 0.70355 0.35445 0.82942 0.0
C128 C 0.70423 0.38653 0.8392 0.0
C129 C 0.79227 0.56777 0.86463 0.0
C130 C 0.87265 0.51759 0.81955 0.0
C131 C 0.95825 0.55739 0.86343 0.0
C132 C 0.9845 0.54821 0.87693 0.0
C133 C 0.96993 0.57567 0.88904 0.0
C134 C -0.00305 0.57073 0.9008 0.0
C135 C 0.03905 0.53784 0.90091 0.0
C136 C 0.05296 0.50912 0.88921 0.0
C137 C 0.02624 0.51442 0.87733 0.0
C138 C 0.91199 0.42951 0.84746 0.0
C139 C 0.84189 0.45771 0.88643 0.0
O140 O 0.7697 0.42249 0.85822 0.0
O141 O 0.74851 0.48674 0.84143 0.0
O142 O 0.7669 0.53482 0.86931 0.0
O143 O 0.82276 0.55789 0.85296 0.0
O144 O 0.84533 0.48797 0.82781 0.0
O145 O 0.89199 0.54269 0.82684 0.0
O146 O 0.91362 0.57375 0.86587 0.0
O147 O 0.96927 0.52652 0.85382 0.0
O148 O 0.94133 0.45849 0.84218 0.0
O149 O 0.87949 0.44622 0.85724 0.0
O150 O 0.87105 0.48806 0.88029 0.0
O151 O 0.81809 0.44407 0.87768 0.0
H152 H 0.8059 0.42286 0.82194 0.0
H153 H 0.80584 0.36581 0.80506 0.0
H154 H 0.67475 0.33547 0.83171 0.0
H155 H 0.67608 0.39171 0.84883 0.0
H156 H 0.9382 0.60208 0.88918 0.0
H157 H 0.98542 0.59341 0.90967 0.0
H158 H 0.08549 0.4839 0.88888 0.0
H159 H 0.03902 0.49282 0.86821 0.0
Nd160 Nd 0.68763 0.87483 0.9619 0.0
Nd161 Nd 0.63037 0.93378 0.93933 0.0
C162 C 0.73661 0.82691 0.98375 0.0
C163 C 0.73934 0.82563 1.0001 0.0
C164 C 0.69969 0.82901 1.01165 0.0
C165 C 0.70354 0.83306 1.02678 0.0
C166 C 0.74689 0.83406 1.03027 0.0
C167 C 0.78639 0.82978 1.01882 0.0
C168 C 0.78265 0.82545 1.00382 0.0
C169 C 0.73833 0.92772 0.93747 0.0
C170 C 0.59841 0.95134 0.97741 0.0
C171 C 0.60116 0.97314 0.91154 0.0
C172 C 0.60456 0.9639 0.89483 0.0
C173 C 0.64264 0.97164 0.88287 0.0
C174 C 0.64305 0.9662 0.8672 0.0
C175 C 0.60522 0.95318 0.86263 0.0
C176 C 0.5675 0.94491 0.8747 0.0
C177 C 0.56721 0.95014 0.89033 0.0
C178 C 0.58638 0.86871 0.96021 0.0
C179 C 0.6957 0.82712 0.93214 0.0
O180 O 0.70188 0.8117 0.98062 0.0
O181 O 0.74631 0.86605 0.97433 0.0
O182 O 0.74875 0.88241 0.94285 0.0
O183 O 0.69876 0.94594 0.94456 0.0
O184 O 0.63171 0.91366 0.97986 0.0
O185 O 0.5936 0.97126 0.9623 0.0
O186 O 0.63589 -0.01526 0.91602 0.0
O187 O 0.579 0.94615 0.923 0.0
O188 O 0.56614 0.9121 0.9551 0.0
O189 O 0.62771 0.86002 0.95355 0.0
O190 O 0.67456 0.87083 0.92643 0.0
O191 O 0.69925 0.81604 0.94711 0.0
H192 H 0.66587 0.82976 1.0089 0.0
H193 H 0.67286 0.8364 0.03562 0.0
H194 H 0.81999 0.83077 1.02144 0.0
H195 H 0.81341 0.82343 0.99497 0.0
H196 H 0.67212 -0.01738 0.88555 0.0
H197 H 0.6729 0.9735 0.85855 0.0
H198 H 0.53783 0.93401 0.87215 0.0
H199 H 0.53697 0.94392 0.89895 0.0
Nd200 Nd 0.36641 0.44 0.72002 0.0
Nd201 Nd 0.35386 0.37951 0.70116 0.0
C202 C 0.37245 0.49248 0.74012 0.0
C203 C 0.37352 0.48766 0.75667 0.0
C204 C 0.3955 0.44497 0.76517 0.0
C205 C 0.3979 0.44267 0.78087 0.0
C206 C 0.37771 0.48273 0.78799 0.0
C207 C 0.35475 0.52468 0.77961 0.0
C208 C 0.35279 0.52718 0.76395 0.0
C209 C 0.32786 0.49302 0.69452 0.0
C210 C 0.30085 0.35802 0.73688 0.0
C211 C 0.33749 0.34136 0.67868 0.0
C212 C 0.34022 0.35086 0.66165 0.0
C213 C 0.3238 0.3968 0.65354 0.0
C214 C 0.32115 0.40314 0.63765 0.0
C215 C 0.33574 0.36385 0.62977 0.0
C216 C 0.35494 0.31881 0.63762 0.0
C217 C 0.35701 0.31231 0.65352 0.0
C218 C 0.40671 0.32949 0.72347 0.0
C219 C 0.44719 0.42949 0.69064 0.0
O220 O 0.40853 0.46947 0.73204 0.0
O221 O 0.33299 0.49001 0.73644 0.0
O222 O 0.3619 0.50186 0.69959 0.0
O223 O 0.3144 0.45529 0.70275 0.0
O224 O 0.3272 0.38649 0.73917 0.0
O225 O 0.29919 0.35474 0.72233 0.0
O226 O 0.30586 0.37003 0.68656 0.0
O227 O 0.37678 0.32993 0.68398 0.0
O228 O 0.37534 0.31284 0.71911 0.0
O229 O 0.41068 0.37033 0.71561 0.0
O230 O 0.41716 0.41141 0.68545 0.0
O231 O 0.43807 0.43838 0.70504 0.0
H232 H 0.4113 0.41398 0.75963 0.0
H233 H 0.41567 0.41018 0.78738 0.0
H234 H 0.3392 0.55579 0.78512 0.0
H235 H 0.33567 0.56015 0.75746 0.0
H236 H 0.31128 0.42718 0.65958 0.0
H237 H 0.30588 0.43801 0.6317 0.0
H238 H 0.36569 0.28806 0.63166 0.0
H239 H 0.36992 0.27672 0.65962 0.0
Nd240 Nd 0.78458 0.13163 0.48824 0.0
Nd241 Nd 0.84769 0.08812 0.4634 0.0
C242 C 0.74642 0.16898 0.51354 0.0
C243 C 0.73842 0.14989 0.53046 0.0
C244 C 0.77225 0.1465 0.53983 0.0
C245 C 0.76405 0.12819 0.55586 0.0
C246 C 0.72186 0.11323 0.56276 0.0
C247 C 0.68862 0.11583 0.5533 0.0
C248 C 0.69663 0.13432 0.53738 0.0
C249 C 0.7407 0.08118 0.47441 0.0
C250 C 0.8687 0.03924 0.49795 0.0
C251 C 0.89326 0.0549 0.43823 0.0
C252 C 0.88863 0.0622 0.42185 0.0
C253 C 0.8453 0.06791 0.41726 0.0
C254 C 0.84266 0.07108 0.40154 0.0
C255 C 0.88328 0.06882 0.39046 0.0
C256 C 0.9259 0.06737 0.39493 0.0
C257 C 0.92855 0.06398 0.41061 0.0
C258 C 0.88324 0.14718 0.47615 0.0
C259 C 0.77911 0.19019 0.45343 0.0
O260 O 0.78934 0.16993 0.50691 0.0
O261 O 0.72269 0.15516 0.50494 0.0
O262 O 0.72182 0.12054 0.47972 0.0
O263 O 0.78165 0.06613 0.47758 0.0
O264 O 0.83478 0.07342 0.50262 0.0
O265 O 0.87739 0.03303 0.48325 0.0
O266 O 0.86339 0.03244 0.44843 0.0
O267 O 0.90175 0.09213 0.44259 0.0
O268 O 0.90594 0.10587 0.47316 0.0
O269 O 0.84418 0.15681 0.47206 0.0
O270 O 0.79921 0.14811 0.44937 0.0
O271 O 0.7756 0.1962 0.46805 0.0
H272 H 0.80487 0.15824 0.53483 0.0
H273 H 0.79021 0.12683 0.5629 0.0
H274 H 0.65618 0.10361 0.55822 0.0
H275 H 0.66995 0.13634 0.53049 0.0
H276 H 0.81396 0.06803 0.42582 0.0
H277 H 0.80954 0.07189 0.39822 0.0
H278 H 0.95744 0.06589 0.38642 0.0
H279 H 0.96198 0.06094 0.41404 0.0
Nd280 Nd 0.08766 0.43301 0.2106 0.0
Nd281 Nd 0.17445 0.47298 0.20994 0.0
C282 C 0.02461 0.39554 0.20205 0.0
C283 C -0.00011 0.40361 0.18824 0.0
C284 C 0.01426 0.37375 0.17682 0.0
C285 C 0.98862 0.37843 0.16471 0.0
C286 C 0.94761 0.41297 0.16365 0.0
C287 C 0.93435 0.44414 0.17468 0.0
C288 C 0.95994 0.43942 0.18681 0.0
C289 C 0.07144 0.5241 0.21677 0.0
C290 C 0.13781 0.49636 0.17761 0.0
C291 C 0.23681 0.51711 0.21528 0.0
C292 C 0.23619 0.54981 0.22608 0.0
C293 C 0.19504 0.58036 0.23116 0.0
C294 C 0.195 0.61172 0.24126 0.0
C295 C 0.23591 0.61236 0.24663 0.0
C296 C 0.27679 0.58131 0.24171 0.0
C297 C 0.27697 0.55047 0.23143 0.0
C298 C 0.19164 0.38768 0.19871 0.0
C299 C 0.11424 0.43611 0.24442 0.0
O300 O 0.06876 0.37664 0.20037 0.0
O301 O 0.01437 0.42891 0.21075 0.0
O302 O 0.04527 0.49309 0.22391 0.0
O303 O 0.10234 0.50756 0.20656 0.0
O304 O 0.11137 0.46355 0.18405 0.0
O305 O 0.16057 0.5124 0.18608 0.0
O306 O 0.21142 0.53448 0.20424 0.0
O307 O 0.23366 0.47242 0.22167 0.0
O308 O 0.21564 0.42175 0.19356 0.0
O309 O 0.16231 0.39669 0.21073 0.0
O310 O 0.13981 0.46694 0.23574 0.0
O311 O 0.09485 0.41008 0.23751 0.0
H312 H 0.04484 0.34591 0.17743 0.0
H313 H 0.00059 0.35429 0.15629 0.0
H314 H 0.90295 0.47094 0.17439 0.0
H315 H 0.94756 0.46317 0.19533 0.0
H316 H 0.16304 0.58012 0.22727 0.0
H317 H 0.16301 0.63515 0.24499 0.0
H318 H 0.30877 0.5815 0.24562 0.0
H319 H 0.30897 0.52721 0.22763 0.0
Nd320 Nd 0.85585 0.51803 0.62588 0.0
Nd321 Nd 0.79964 0.57914 0.60348 0.0
C322 C 0.88165 0.47822 0.65417 0.0
C323 C 0.87735 0.48912 0.67075 0.0
C324 C 0.84114 0.47725 0.68302 0.0
C325 C 0.84032 0.48346 0.69865 0.0
C326 C 0.87546 0.5021 0.70271 0.0
C327 C 0.91109 0.51476 0.69046 0.0
C328 C 0.91215 0.50822 0.6749 0.0
C329 C 0.90307 0.58085 0.60544 0.0
C330 C 0.79443 0.62703 0.63267 0.0
C331 C 0.7502 0.62604 0.58163 0.0
C332 C 0.74747 0.62884 0.56519 0.0
C333 C 0.78717 0.62002 0.55398 0.0
C334 C 0.78256 0.61764 0.53875 0.0
C335 C 0.7383 0.62441 0.53473 0.0
C336 C 0.69889 0.63402 0.54593 0.0
C337 C 0.70347 0.63607 0.56107 0.0
C338 C 0.74743 0.52835 0.628 0.0
C339 C 0.88784 0.5031 0.58763 0.0
O340 O 0.84642 0.46856 0.64942 0.0
O341 O 0.9063 0.50262 0.64268 0.0
O342 O 0.92197 0.53718 0.61088 0.0
O343 O 0.86136 0.59127 0.61162 0.0
O344 O 0.81502 0.58301 0.63834 0.0
O345 O 0.78969 0.63831 0.61783 0.0
O346 O 0.78387 0.64248 0.58498 0.0
O347 O 0.74219 0.58568 0.59066 0.0
O348 O 0.73958 0.57401 0.6229 0.0
O349 O 0.7862 0.50871 0.62077 0.0
O350 O 0.85498 0.54129 0.58562 0.0
O351 O 0.89215 0.48106 0.60262 0.0
H352 H 0.81369 0.46219 0.68063 0.0
H353 H 0.81223 0.47313 0.70765 0.0
H354 H 0.93906 0.52874 0.69299 0.0
H355 H 0.94114 0.51735 0.66611 0.0
H356 H 0.8214 0.61381 0.55708 0.0
H357 H 0.81328 0.61 0.5302 0.0
H358 H 0.6645 0.63835 0.5431 0.0
H359 H 0.67259 0.64193 0.56972 0.0
Nd360 Nd 0.1338 0.07433 0.86414 0.0
Nd361 Nd 0.11913 0.01476 0.84477 0.0
C362 C 0.15309 0.10778 0.8871 0.0
C363 C 0.14727 0.09798 0.90428 0.0
C364 C 0.17551 0.05909 0.91227 0.0
C365 C 0.17454 0.05493 0.9283 0.0
C366 C 0.14508 0.08936 0.93661 0.0
C367 C 0.11388 0.12557 0.92881 0.0
C368 C 0.11546 0.13023 0.91275 0.0
C369 C 0.08171 0.12641 0.84215 0.0
C370 C 0.03957 0.02435 0.87462 0.0
C371 C 0.11114 0.96419 0.82436 0.0
C372 C 0.1143 0.96861 0.80755 0.0
C373 C 0.09384 0.01077 0.7984 0.0
C374 C 0.09608 0.01258 0.78241 0.0
C375 C 0.11957 0.97269 0.77556 0.0
C376 C 0.1412 0.93138 0.78467 0.0
C377 C 0.13834 0.92929 0.80061 0.0
C378 C 0.16132 0.96303 0.86965 0.0
C379 C 0.18596 0.09611 0.82823 0.0
O380 O 0.1825 0.07643 0.87961 0.0
O381 O 0.11553 0.12499 0.88089 0.0
O382 O 0.11328 0.14219 0.84674 0.0
O383 O 0.07671 0.08528 0.84972 0.0
O384 O 0.06982 0.0424 0.87978 0.0
O385 O 0.0485 0.01571 0.8602 0.0
O386 O 0.07586 -0.0089 0.8315 0.0
O387 O 0.15008 0.96153 0.82929 0.0
O388 O 0.12682 0.95219 0.86537 0.0
O389 O 0.17319 0.00055 0.86091 0.0
O390 O 0.15923 0.06806 0.82588 0.0
O391 O 0.18803 0.09911 0.8428 0.0
H392 H 0.20004 0.03325 0.90607 0.0
H393 H 0.19921 0.02662 0.93387 0.0
H394 H 0.08977 0.15183 0.93494 0.0
H395 H 0.09303 0.16027 0.90685 0.0
H396 H 0.07551 0.04171 0.80362 0.0
H397 H 0.07894 0.04452 0.77547 0.0
H398 H 0.15861 0.89993 0.77957 0.0
H399 H 0.15422 0.89663 0.80759 0.0
Nd400 Nd 0.64246 0.37122 0.10046 0.0
Nd401 Nd 0.70632 0.31939 0.0768 0.0
C402 C 0.60642 0.41334 0.12472 0.0
C403 C 0.60886 0.40041 0.14148 0.0
C404 C 0.64974 0.39937 0.14713 0.0
C405 C 0.6499 0.39133 0.16318 0.0
C406 C 0.60924 0.38426 0.17371 0.0
C407 C 0.5697 0.38108 0.16805 0.0
C408 C 0.56941 0.38948 0.15203 0.0
C409 C 0.60438 0.31018 0.08968 0.0
C410 C 0.70499 0.26298 0.11219 0.0
C411 C 0.74731 0.28213 0.05172 0.0
C412 C 0.75398 0.30232 0.03482 0.0
C413 C 0.72237 0.29953 1.02537 0.0
C414 C 0.72859 0.31953 1.00945 0.0
C415 C 0.76631 0.34282 1.00277 0.0
C416 C 0.79744 0.34617 1.01223 0.0
C417 C 0.79156 0.32582 1.02806 0.0
C418 C 0.74788 0.37555 0.08944 0.0
C419 C 0.62244 0.41062 0.06548 0.0
O420 O 0.64397 0.42349 0.11525 0.0
O421 O 0.58461 0.38709 0.11942 0.0
O422 O 0.58174 0.35195 0.09249 0.0
O423 O 0.64407 0.30088 0.09334 0.0
O424 O 0.68179 0.30487 0.11593 0.0
O425 O 0.71396 0.25661 0.09745 0.0
O426 O 0.70506 0.27796 0.05848 0.0
O427 O 0.7695 0.29792 0.06032 0.0
O428 O 0.76666 0.3331 0.08641 0.0
O429 O 0.7082 0.38829 0.08526 0.0
O430 O 0.65351 0.37237 0.06221 0.0
O431 O 0.61664 0.42366 0.07928 0.0
H432 H 0.68096 0.40682 0.13923 0.0
H433 H 0.68074 0.3943 0.16729 0.0
H434 H 0.53816 0.37515 0.17604 0.0
H435 H 0.53777 0.38924 0.14789 0.0
H436 H 0.69295 0.28184 1.03025 0.0
H437 H 0.70405 0.31671 1.00233 0.0
H438 H 0.82714 0.36337 1.00727 0.0
H439 H 0.81663 0.32848 0.03499 0.0
Nd440 Nd 0.30988 -0.0187 0.35419 0.0
Nd441 Nd 0.39876 0.01655 0.35613 0.0
C442 C 0.24772 0.93735 0.34862 0.0
C443 C 0.24712 0.90638 0.33744 0.0
C444 C 0.28847 0.88639 0.32865 0.0
C445 C 0.28807 0.8543 0.31885 0.0
C446 C 0.24611 0.84257 0.31738 0.0
C447 C 0.20468 0.86356 0.326 0.0
C448 C 0.20525 0.89499 0.33599 0.0
C449 C 0.29374 0.06314 0.36738 0.0
C450 C 0.37254 0.01996 0.32051 0.0
C451 C 0.46473 0.05717 0.36128 0.0
C452 C 0.49351 0.04963 0.37404 0.0
C453 C 0.47651 0.07008 0.38768 0.0
C454 C 0.50411 0.06423 0.39935 0.0
C455 C 0.54982 0.03808 0.39773 0.0
C456 C 0.56661 0.01718 0.38419 0.0
C457 C 0.53894 0.02283 0.37256 0.0
C458 C 0.40836 0.91961 0.35759 0.0
C459 C 0.34274 0.95872 0.38749 0.0
O460 O 0.27509 0.91846 0.35903 0.0
O461 O 0.24969 -0.01726 0.34283 0.0
O462 O 0.26778 0.03064 0.37112 0.0
O463 O 0.32471 0.05466 0.35574 0.0
O464 O 0.33524 0.00276 0.32796 0.0
O465 O 0.40229 0.02997 0.32838 0.0
O466 O 0.42042 0.07461 0.3645 0.0
O467 O 0.47289 0.02404 0.35247 0.0
O468 O 0.43001 0.93838 0.3654 0.0
O469 O 0.38534 0.95172 0.34878 0.0
O470 O 0.36595 -0.00541 0.38204 0.0
O471 O 0.32525 0.94016 0.37809 0.0
H472 H 0.32106 0.89559 0.32935 0.0
H473 H 0.3205 0.83929 0.31224 0.0
H474 H 0.17183 0.85497 0.32524 0.0
H475 H 0.17303 0.91006 0.3427 0.0
H476 H 0.4419 0.09117 0.38932 0.0
H477 H 0.48992 0.08138 0.40947 0.0
H478 H 0.60129 -0.00375 0.38256 0.0
H479 H 0.55339 0.00643 0.36229 0.0
Nd480 Nd 0.18617 0.37408 0.46373 0.0
Nd481 Nd 0.13061 0.42812 0.43741 0.0
C482 C 0.21642 0.31053 0.48718 0.0
C483 C 0.22961 0.31509 0.50187 0.0
C484 C 0.19561 0.32099 0.51512 0.0
C485 C 0.20742 0.32885 0.52868 0.0
C486 C 0.25338 0.33085 0.52923 0.0
C487 C 0.28754 0.32439 0.51612 0.0
C488 C 0.27581 0.31625 0.50255 0.0
C489 C 0.24016 0.43733 0.44526 0.0
C490 C 0.09552 0.44965 0.47641 0.0
C491 C 0.09783 0.47328 0.41091 0.0
C492 C 0.10169 0.46347 0.39425 0.0
C493 C 0.13699 0.47741 0.38201 0.0
C494 C 0.1388 0.47079 0.36642 0.0
C495 C 0.1051 0.45031 0.36212 0.0
C496 C 0.07024 0.43562 0.3745 0.0
C497 C 0.0686 0.44204 0.39011 0.0
C498 C 0.10426 0.34515 0.45404 0.0
C499 C 0.20617 0.33091 0.43149 0.0
O500 O 0.17256 0.32436 0.48604 0.0
O501 O 0.2436 0.32429 0.47423 0.0
O502 O 0.24572 0.41454 0.45919 0.0
O503 O 0.20093 0.43426 0.44228 0.0
O504 O 0.13536 0.42247 0.4794 0.0
O505 O 0.08654 0.4601 0.4613 0.0
O506 O 0.13373 0.48321 0.41521 0.0
O507 O 0.07474 0.44718 0.42248 0.0
O508 O 0.10597 0.3567 0.439 0.0
O509 O 0.11551 0.3773 0.45918 0.0
O510 O 0.18716 0.37408 0.42482 0.0
O511 O 0.20367 0.32007 0.4468 0.0
H512 H 0.15969 0.32029 0.51498 0.0
H513 H 0.18051 0.33404 0.53867 0.0
H514 H 0.32333 0.32522 0.51642 0.0
H515 H 0.30277 0.31152 0.49255 0.0
H516 H 0.16336 0.49398 0.38444 0.0
H517 H 0.1672 0.48185 0.35774 0.0
H518 H 0.04304 0.42013 0.37216 0.0
H519 H 0.04058 0.4308 0.39896 0.0
Nd520 Nd 0.86927 0.93871 0.22006 0.0
Nd521 Nd 0.85823 0.87954 0.2006 0.0
C522 C 0.87538 -0.01005 0.24055 0.0
C523 C 0.87051 -0.01295 0.25732 0.0
C524 C 0.88583 0.94395 0.26713 0.0
C525 C 0.8826 0.94338 0.28308 0.0
C526 C 0.86325 -0.0144 0.28921 0.0
C527 C 0.84667 0.02807 0.27941 0.0
C528 C 0.85048 0.0288 0.26351 0.0
C529 C 0.82684 -0.0076 0.19546 0.0
C530 C 0.80619 0.85324 0.23641 0.0
C531 C 0.84248 0.84057 0.17822 0.0
C532 C 0.84426 0.84818 0.16133 0.0
C533 C 0.83766 0.89457 0.1523 0.0
C534 C 0.83525 0.90029 0.13639 0.0
C535 C 0.83966 0.85966 0.12942 0.0
C536 C 0.84849 0.81336 0.13844 0.0
C537 C 0.85075 0.80775 0.15427 0.0
C538 C 0.91533 0.83051 0.22171 0.0
C539 C 0.94746 0.9362 0.1895 0.0
O540 O 0.91087 0.96174 0.23404 0.0
O541 O 0.83716 -0.00723 0.23517 0.0
O542 O 0.86096 0.00218 0.20026 0.0
O543 O 0.81557 0.95325 0.20341 0.0
O544 O 0.82945 0.88432 0.23894 0.0
O545 O 0.80734 0.84816 0.22184 0.0
O546 O 0.81065 0.86949 0.18594 0.0
O547 O 0.88217 0.83088 0.18321 0.0
O548 O 0.88364 0.81296 0.21794 0.0
O549 O 0.9168 0.87215 0.21414 0.0
O550 O 0.91769 0.91701 0.18455 0.0
O551 O 0.93932 0.9433 0.20411 0.0
H552 H 0.90101 0.91126 0.26245 0.0
H553 H 0.89578 0.91048 0.29057 0.0
H554 H 0.83251 0.06118 0.28396 0.0
H555 H 0.83859 0.06219 0.25599 0.0
H556 H 0.83314 0.92617 0.15762 0.0
H557 H 0.82881 0.93633 0.12965 0.0
H558 H 0.85128 0.78138 0.13349 0.0
H559 H 0.856 0.77175 0.16114 0.0
Nd560 Nd 0.27922 0.63221 0.98814 0.0
Nd561 Nd 0.34279 0.58419 0.96372 0.0
C562 C 0.23949 0.66976 1.01325 0.0
C563 C 0.23257 0.6496 1.03011 0.0
C564 C 0.2618 0.65628 0.03979 0.0
C565 C 0.25563 0.63655 0.05572 0.0
C566 C 0.22048 0.60958 0.06209 0.0
C567 C 0.19178 0.60224 0.05245 0.0
C568 C 0.19753 0.62235 0.03661 0.0
C569 C 0.23695 0.57615 0.97568 0.0
C570 C 0.36319 0.54114 0.9988 0.0
C571 C 0.3854 0.54603 0.93907 0.0
C572 C 0.3806 0.55513 0.92257 0.0
C573 C 0.33733 0.55956 0.91815 0.0
C574 C 0.3335 0.56566 0.90249 0.0
C575 C 0.37323 0.56604 0.89109 0.0
C576 C 0.41607 0.56534 0.89532 0.0
C577 C 0.4197 0.55995 0.91107 0.0
C578 C 0.38095 0.64204 0.97589 0.0
C579 C 0.27662 0.68967 0.95312 0.0
O580 O 0.28212 0.67228 1.0066 0.0
O581 O 0.21648 0.65526 1.00459 0.0
O582 O 0.21742 0.61751 0.97948 0.0
O583 O 0.27778 0.56412 0.97895 0.0
O584 O 0.33072 0.57751 1.00276 0.0
O585 O 0.36997 0.53092 0.98455 0.0
O586 O 0.35246 0.52803 0.94921 0.0
O587 O 0.39908 0.58026 0.94351 0.0
O588 O 0.40283 0.60059 0.97267 0.0
O589 O 0.34144 0.65289 0.97195 0.0
O590 O 0.29834 0.64788 0.94907 0.0
O591 O 0.27076 0.69572 0.96781 0.0
H592 H 0.28922 0.67694 0.03507 0.0
H593 H 0.27792 0.64263 0.06309 0.0
H594 H 0.16401 0.58212 0.05729 0.0
H595 H 0.17433 0.61661 1.0295 0.0
H596 H 0.3069 0.55572 0.92676 0.0
H597 H 0.30019 0.56611 0.89937 0.0
H598 H 0.44715 0.56515 0.88662 0.0
H599 H 0.45329 0.55739 0.91431 0.0
Nd600 Nd 0.58494 0.93833 0.70975 0.0
Nd601 Nd 0.67514 0.97289 0.71073 0.0
C602 C 0.51694 0.90024 0.70469 0.0
C603 C 0.49062 0.90659 0.69128 0.0
C604 C 0.51043 0.88681 0.67766 0.0
C605 C 0.48504 0.89173 0.66541 0.0
C606 C 0.4386 0.91625 0.66634 0.0
C607 C 0.41915 0.93656 0.67992 0.0
C608 C 0.44467 0.93187 0.69212 0.0
C609 C 0.57718 0.03548 0.70735 0.0
C610 C 0.64155 -0.00739 0.67794 0.0
C611 C 0.73846 0.01558 0.71611 0.0
C612 C 0.73895 0.04612 0.72741 0.0
C613 C 0.69759 0.06414 0.73664 0.0
C614 C 0.69731 0.09656 0.74638 0.0
C615 C 0.73875 0.10985 0.74751 0.0
C616 C 0.78042 0.09021 0.73877 0.0
C617 C 0.78043 0.05895 0.72863 0.0
C618 C 0.69024 0.89003 0.69832 0.0
C619 C 0.61306 0.93704 0.74498 0.0
O620 O 0.56054 0.87928 0.70283 0.0
O621 O 0.50965 0.93589 0.71245 0.0
O622 O 0.55525 0.01634 0.69976 0.0
O623 O 0.60005 0.00373 0.71631 0.0
O624 O 0.6187 0.95671 0.68379 0.0
O625 O 0.65922 0.01267 0.68685 0.0
O626 O 0.71122 0.03491 0.70568 0.0
O627 O 0.73592 0.97032 0.72189 0.0
O628 O 0.71741 0.92134 0.69459 0.0
O629 O 0.65909 0.89939 0.70985 0.0
O630 O 0.64951 0.95463 0.73692 0.0
O631 O 0.58279 0.92565 0.73758 0.0
H632 H 0.54573 0.86724 0.67642 0.0
H633 H 0.50222 0.8763 0.65517 0.0
H634 H 0.38358 0.95517 0.68145 0.0
H635 H 0.42802 0.9476 0.70236 0.0
H636 H 0.6655 0.05333 0.73626 0.0
H637 H 0.66488 0.11083 0.75316 0.0
H638 H 0.81277 0.09996 0.73952 0.0
H639 H 0.81268 0.04514 0.72166 0.0
H640 H 0.47099 0.06851 0.10197 0.0
H641 H 0.37336 0.20227 0.10192 0.0
H642 H 0.53331 0.11249 0.08901 0.0
H643 H 0.43536 0.24684 0.08925 0.0
H644 H 0.54414 0.32414 0.06956 0.0
H645 H 0.49626 0.26724 0.06785 0.0
H646 H 0.56682 0.16036 0.10162 0.0
H647 H 0.6162 0.21607 0.10243 0.0
C648 C 0.46311 0.10745 0.09888 0.0
C649 C 0.41849 0.13282 0.10309 0.0
C650 C 0.49842 0.13242 0.09143 0.0
C651 C 0.48918 0.18294 0.08824 0.0
C652 C 0.4434 0.20783 0.09142 0.0
C653 C 0.40811 0.18273 0.09889 0.0
C654 C 0.55012 0.28782 0.07614 0.0
C655 C 0.58267 0.27416 0.08632 0.0
C656 C 0.52303 0.25542 0.07516 0.0
C657 C 0.52732 0.20991 0.0848 0.0
C658 C 0.56309 0.19497 0.09389 0.0
C659 C 0.591 0.22693 0.09451 0.0
H660 H 0.48584 0.62294 0.35286 0.0
H661 H 0.58038 0.69965 0.31839 0.0
H662 H 0.42932 0.69733 0.3535 0.0
H663 H 0.52289 0.77346 0.31845 0.0
H664 H 0.49367 0.86586 0.35743 0.0
H665 H 0.52132 0.79057 0.34754 0.0
H666 H 0.38265 0.78715 0.34137 0.0
H667 H 0.35482 0.86306 0.35162 0.0
C668 C 0.49312 0.65496 0.34459 0.0
C669 C 0.53766 0.65679 0.33601 0.0
C670 C 0.46067 0.69741 0.34493 0.0
C671 C 0.473 0.74084 0.33647 0.0
C672 C 0.51345 0.74013 0.32528 0.0
C673 C 0.54626 0.6981 0.32524 0.0
C674 C 0.46904 0.84873 0.35416 0.0
C675 C 0.42249 0.87038 0.35475 0.0
C676 C 0.48485 0.80631 0.34825 0.0
C677 C 0.45423 0.7849 0.34298 0.0
C678 C 0.4069 0.80431 0.34483 0.0
C679 C 0.39114 0.8473 0.35063 0.0
H680 H 0.0214 0.83518 0.57302 0.0
H681 H 0.1327 0.71953 0.58594 0.0
H682 H 0.97222 0.7763 0.57458 0.0
H683 H 0.0837 0.661 0.58741 0.0
H684 H 0.96092 0.60431 0.62058 0.0
H685 H 0.01323 0.66163 0.61024 0.0
H686 H 0.96029 0.6963 0.56639 0.0
H687 H 0.90691 0.63876 0.57703 0.0
C688 C 0.03581 0.7971 0.57554 0.0
C689 C 0.08006 0.78153 0.57975 0.0
C690 C 0.00786 0.76362 0.57637 0.0
C691 C 0.02426 0.71468 0.58142 0.0
C692 C 0.07053 0.69887 0.58364 0.0
C693 C 0.09851 0.73223 0.58273 0.0
C694 C 0.96075 0.6242 0.60873 0.0
C695 C 0.93119 0.61733 0.59937 0.0
C696 C 0.99064 0.65648 0.6028 0.0
C697 C 0.99153 0.68172 0.58738 0.0
C698 C 0.96041 0.67634 0.57821 0.0
C699 C 0.93012 0.64396 0.58424 0.0
H700 H 0.09125 0.20515 0.82026 0.0
H701 H 0.98956 0.12481 0.84922 0.0
H702 H 0.03231 0.27788 0.81841 0.0
H703 H 0.93091 0.19829 0.84776 0.0
H704 H 0.87611 0.38813 0.82923 0.0
H705 H 0.9042 0.30693 0.82274 0.0
H706 H -0.00081 0.27804 0.85584 0.0
H707 H 0.97196 0.35944 0.86188 0.0
C708 C 0.05568 0.20259 0.82543 0.0
C709 C 0.04477 0.16038 0.83523 0.0
C710 C 0.02203 0.24397 0.82431 0.0
C711 C 0.97782 0.24312 0.83317 0.0
C712 C 0.96497 0.1992 0.84082 0.0
C713 C -0.00148 0.15741 0.8417 0.0
C714 C 0.90223 0.36381 0.83524 0.0
C715 C 0.92253 0.37931 0.8458 0.0
C716 C 0.91801 0.31774 0.83161 0.0
C717 C 0.95365 0.2872 0.83879 0.0
C718 C 0.97151 0.30161 0.85023 0.0
C719 C 0.95624 0.34776 0.85364 0.0
H720 H 0.54514 0.83424 0.94222 0.0
H721 H 0.56764 0.82024 0.98981 0.0
H722 H 0.49002 0.77923 0.951 0.0
H723 H 0.51182 0.76457 0.99876 0.0
H724 H 0.45662 0.62042 0.98996 0.0
H725 H 0.50711 0.67657 0.99012 0.0
H726 H 0.40737 0.795 0.97104 0.0
H727 H 0.35683 0.73917 0.9709 0.0
C728 C 0.53828 0.8188 0.95455 0.0
C729 C 0.55935 0.83115 0.96549 0.0
C730 C 0.50677 0.78798 0.95956 0.0
C731 C 0.49614 0.76946 0.97555 0.0
C732 C 0.51932 0.77952 0.98643 0.0
C733 C 0.55097 0.81079 0.98137 0.0
C734 C 0.445 0.6587 0.98631 0.0
C735 C 0.40388 0.67587 0.98003 0.0
C736 C 0.47351 0.69058 0.98656 0.0
C737 C 0.46087 0.7394 0.98041 0.0
C738 C 0.41735 0.75716 0.9758 0.0
C739 C 0.38868 0.72541 0.97569 0.0
H740 H 0.63002 0.08908 0.71525 0.0
H741 H 0.49528 0.09417 0.70404 0.0
H742 H 0.60139 0.16478 0.72561 0.0
H743 H 0.46707 0.16956 0.71387 0.0
H744 H 0.40258 0.25089 0.74594 0.0
H745 H 0.4611 0.17805 0.74524 0.0
H746 H 0.55574 0.25928 0.71264 0.0
H747 H 0.49798 0.33265 0.71384 0.0
C748 C 0.59447 0.1066 0.71504 0.0
C749 C 0.5642 0.0854 0.70958 0.0
C750 C 0.5783 0.14953 0.72085 0.0
C751 C 0.53169 0.17096 0.7212 0.0
C752 C 0.50278 0.15214 0.71427 0.0
C753 C 0.51899 0.10961 0.70844 0.0
C754 C 0.437 0.25368 0.73953 0.0
C755 C 0.44562 0.29627 0.72947 0.0
C756 C 0.47042 0.21219 0.73914 0.0
C757 C 0.51168 0.21346 0.72841 0.0
C758 C 0.52377 0.2578 0.72085 0.0
C759 C 0.49061 0.29964 0.7215 0.0
H760 H 0.11118 0.24864 0.45965 0.0
H761 H 0.02255 0.38133 0.46967 0.0
H762 H 0.04994 0.20403 0.4733 0.0
H763 H 0.96072 0.3371 0.48319 0.0
H764 H 0.86734 0.24393 0.46725 0.0
H765 H 0.91834 0.29716 0.46903 0.0
H766 H -0.00434 0.18055 0.49813 0.0
H767 H 0.94541 0.12694 0.49584 0.0
C768 C 0.07875 0.26779 0.46507 0.0
C769 C 0.07058 0.31777 0.46357 0.0
C770 C 0.04406 0.24253 0.47307 0.0
C771 C 0.0008 0.26739 0.47933 0.0
C772 C -0.00612 0.31734 0.47855 0.0
C773 C 0.02888 0.34243 0.47077 0.0
C774 C 0.89415 0.23039 0.47451 0.0
C775 C 0.90396 0.18147 0.481 0.0
C776 C 0.92301 0.26085 0.47567 0.0
C777 C 0.9613 0.24236 0.48349 0.0
C778 C 0.96672 0.19509 0.49185 0.0
C779 C 0.93839 0.1645 0.49045 0.0
H780 H 0.07292 0.60504 0.19518 0.0
H781 H 0.05855 0.55145 0.24486 0.0
H782 H 0.05494 0.68742 0.20004 0.0
H783 H 0.0456 0.63373 0.24991 0.0
H784 H 0.91677 0.75902 0.2465 0.0
H785 H 0.97541 0.68708 0.24827 0.0
H786 H 0.06438 0.75627 0.2092 0.0
H787 H 0.0045 0.82856 0.20747 0.0
C788 C 0.06735 0.61124 0.20714 0.0
C789 C 0.0657 0.5728 0.21973 0.0
C790 C 0.05806 0.65829 0.20995 0.0
C791 C 0.04843 0.66723 0.22544 0.0
C792 C 0.05183 0.62801 0.2379 0.0
C793 C 0.05901 0.58111 0.23508 0.0
C794 C 0.94979 0.75946 0.23883 0.0
C795 C 0.9561 0.79817 0.22668 0.0
C796 C 0.98376 0.71834 0.23985 0.0
C797 C 0.02407 0.71539 0.22851 0.0
C798 C 0.03319 0.75719 0.21786 0.0
C799 C -0.00084 0.79862 0.21694 0.0
H800 H 0.38774 0.9423 0.06815 0.0
H801 H 0.47619 0.03368 0.07401 0.0
H802 H 0.4323 0.93356 0.04229 0.0
H803 H 0.52127 0.02557 0.048 0.0
H804 H 0.59208 0.02429 0.99553 0.0
H805 H 0.54716 0.03375 1.02151 0.0
H806 H 0.48428 0.91276 1.02157 0.0
H807 H 0.52852 0.90453 0.99567 0.0
C808 C 0.41772 0.95959 0.06424 0.0
C809 C 0.42847 -0.01315 0.07427 0.0
C810 C 0.44388 0.9549 0.04891 0.0
C811 C 0.48238 -0.0216 0.04198 0.0
C812 C 0.49287 0.00609 0.05206 0.0
C813 C 0.46697 0.01018 0.06753 0.0
C814 C 0.56768 0.00043 1.00079 0.0
C815 C 0.56378 0.96462 0.99248 0.0
C816 C 0.54176 0.00531 1.01623 0.0
C817 C 0.51026 0.97431 1.02473 0.0
C818 C 0.50651 0.93869 1.01623 0.0
C819 C 0.5324 0.93388 1.00088 0.0
H820 H 0.72922 0.58575 0.29854 0.0
H821 H 0.68391 0.69413 0.3278 0.0
H822 H 0.7572 0.64588 0.27679 0.0
H823 H 0.71165 0.75441 0.30626 0.0
H824 H 0.73466 0.86704 0.26148 0.0
H825 H 0.7055 0.80651 0.28293 0.0
H826 H 0.80869 0.69512 0.26393 0.0
H827 H 0.83513 0.75535 0.24211 0.0
C828 C 0.72543 0.62239 0.30041 0.0
C829 C 0.7046 0.63433 0.31518 0.0
C830 C 0.7418 0.65739 0.28783 0.0
C831 C 0.7372 0.70633 0.28932 0.0
C832 C 0.71598 0.71797 0.30418 0.0
C833 C 0.70042 0.68283 0.31679 0.0
C834 C 0.75095 0.82957 0.26186 0.0
C835 C 0.78734 0.81655 0.24987 0.0
C836 C 0.73442 0.79438 0.27435 0.0
C837 C 0.7543 0.74462 0.27563 0.0
C838 C 0.7911 0.73212 0.26358 0.0
C839 C 0.80679 0.76711 0.25096 0.0
H840 H 0.13148 0.93983 0.53538 0.0
H841 H 0.02749 0.94787 0.57652 0.0
H842 H 0.07179 0.96492 0.51891 0.0
H843 H 0.96719 0.97489 0.56018 0.0
H844 H 0.85973 -0.00941 0.52869 0.0
H845 H 0.92023 0.96178 0.54517 0.0
H846 H 0.01951 0.01754 0.50673 0.0
H847 H 0.96057 0.04038 0.49016 0.0
C848 C 0.09575 0.94819 0.5409 0.0
C849 C 0.08469 0.94265 0.5573 0.0
C850 C 0.06096 0.96286 0.5314 0.0
C851 C 0.01346 0.97242 0.53792 0.0
C852 C 0.00269 0.96758 0.55442 0.0
C853 C 0.03763 0.95299 0.56391 0.0
C854 C 0.89483 -0.00444 0.52377 0.0
C855 C 0.90522 0.0173 0.50803 0.0
C856 C 0.92976 -0.02025 0.5333 0.0
C857 C 0.97586 -0.01283 0.5276 0.0
C858 C 0.98557 0.00934 0.51178 0.0
C859 C 0.95126 0.02305 0.50215 0.0
H860 H 0.66815 0.33661 0.80404 0.0
H861 H 0.81189 0.27739 0.80698 0.0
H862 H 0.66703 0.27903 0.78765 0.0
H863 H 0.81172 0.22133 0.78992 0.0
H864 H 0.78615 0.09522 0.77177 0.0
H865 H 0.78559 0.15162 0.78888 0.0
H866 H 0.69185 0.25934 0.76269 0.0
H867 H 0.69067 0.20156 0.74625 0.0
C868 C 0.69953 0.31121 0.80117 0.0
C869 C 0.74002 0.31142 0.80685 0.0
C870 C 0.69913 0.27855 0.79158 0.0
C871 C 0.7393 0.24532 0.78738 0.0
C872 C 0.7799 0.24578 0.79305 0.0
C873 C 0.78022 0.27837 0.80268 0.0
C874 C 0.76545 0.131 0.76977 0.0
C875 C 0.73849 0.14424 0.75777 0.0
C876 C 0.7653 0.16351 0.77947 0.0
C877 C 0.73885 0.21035 0.77718 0.0
C878 C 0.712 0.22344 0.76504 0.0
C879 C 0.71148 0.19054 0.75554 0.0
H880 H 0.2448 0.29315 0.73692 0.0
H881 H 0.31325 0.33965 0.76792 0.0
H882 H 0.21976 0.23104 0.75774 0.0
H883 H 0.28805 0.27838 0.78907 0.0
H884 H 0.2463 0.15732 0.82775 0.0
H885 H 0.27258 0.21862 0.80677 0.0
H886 H 0.19411 0.17962 0.77665 0.0
H887 H 0.16969 0.11781 0.79764 0.0
C888 C 0.25413 0.29054 0.74832 0.0
C889 C 0.28095 0.32243 0.75051 0.0
C890 C 0.23962 0.25405 0.76061 0.0
C891 C 0.2512 0.24722 0.77586 0.0
C892 C 0.2777 0.28013 0.77795 0.0
C893 C 0.29219 0.31656 0.76562 0.0
C894 C 0.23519 0.16148 0.81654 0.0
C895 C 0.20602 0.13156 0.8146 0.0
C896 C 0.2501 0.19772 0.80421 0.0
C897 C 0.23606 0.20664 0.78926 0.0
C898 C 0.207 0.17583 0.78746 0.0
C899 C 0.19263 0.13929 0.79974 0.0
H900 H 0.30557 0.7577 0.31346 0.0
H901 H 0.1849 0.8515 0.29739 0.0
H902 H 0.30384 0.70286 0.29616 0.0
H903 H 0.18123 0.79555 0.28086 0.0
H904 H 0.21004 0.7099 0.24153 0.0
H905 H 0.2145 0.76575 0.25814 0.0
H906 H 0.26513 0.64528 0.29247 0.0
H907 H 0.26314 0.59006 0.27526 0.0
C908 C 0.27865 0.7666 0.30623 0.0
C909 C 0.2453 0.80895 0.30683 0.0
C910 C 0.27721 0.73478 0.29645 0.0
C911 C 0.24224 0.7444 0.28708 0.0
C912 C 0.20908 0.78697 0.28769 0.0
C913 C 0.21073 0.81886 0.29737 0.0
C914 C 0.22201 0.69561 0.25266 0.0
C915 C 0.23633 0.64586 0.25714 0.0
C916 C 0.22437 0.72751 0.26226 0.0
C917 C 0.24017 0.71029 0.27675 0.0
C918 C 0.25375 0.66018 0.28129 0.0
C919 C 0.25227 0.6284 0.27152 0.0
H920 H 0.03319 0.53493 0.48539 0.0
H921 H 0.0776 0.38552 0.50364 0.0
H922 H 0.98748 0.5458 0.51108 0.0
H923 H 0.03226 0.3954 0.52906 0.0
H924 H 0.94987 0.41673 0.57868 0.0
H925 H -0.00473 0.40512 0.55292 0.0
H926 H 0.94655 0.55401 0.53425 0.0
H927 H 0.90249 0.56489 0.55952 0.0
C928 C 0.0328 0.50382 0.49468 0.0
C929 C 0.05992 0.45895 0.49166 0.0
C930 C 0.00624 0.51 0.50994 0.0
C931 C 0.00453 0.47178 0.52333 0.0
C932 C 0.03113 0.42692 0.51996 0.0
C933 C 0.05775 0.42099 0.50489 0.0
C934 C 0.94886 0.44722 0.56916 0.0
C935 C 0.92075 0.49194 0.57196 0.0
C936 C 0.97536 0.4406 0.55389 0.0
C937 C 0.97608 0.47824 0.54031 0.0
C938 C 0.94855 0.52286 0.54347 0.0
C939 C 0.92222 0.52925 0.55851 0.0
H940 H 0.56492 0.50018 0.06314 0.0
H941 H 0.59783 0.36885 0.04416 0.0
H942 H 0.50337 0.53103 0.04725 0.0
H943 H 0.53468 0.39733 1.02931 0.0
H944 H 0.43989 0.47038 0.99396 0.0
H945 H 0.50304 0.44237 1.00893 0.0
H946 H 0.43107 0.53266 0.04278 0.0
H947 H 0.36912 0.56238 1.02723 0.0
C948 C 0.55918 0.47792 0.05552 0.0
C949 C 0.58728 0.43234 0.05477 0.0
C950 C 0.52314 0.49529 0.0465 0.0
C951 C 0.51297 0.4671 0.03674 0.0
C952 C 0.5413 0.42136 0.03615 0.0
C953 C 0.57795 0.40468 0.0448 0.0
C954 C 0.43714 0.48385 1.00471 0.0
C955 C 0.3986 0.51829 1.00938 0.0
C956 C 0.47371 0.46755 1.01346 0.0
C957 C 0.47319 0.48467 1.02736 0.0
C958 C 0.43404 0.51865 1.03214 0.0
C959 C 0.39765 0.53527 1.02329 0.0
H960 H 0.23074 0.20896 0.12617 0.0
H961 H 0.2866 0.11565 0.16556 0.0
H962 H 0.20177 0.27273 0.1418 0.0
H963 H 0.25864 0.17975 0.18107 0.0
H964 H 0.17693 0.29415 0.20962 0.0
H965 H 0.1928 0.22852 0.19442 0.0
H966 H 0.23091 0.3279 0.15224 0.0
H967 H 0.21503 0.39259 0.16736 0.0
C968 C 0.23673 0.20186 0.13819 0.0
C969 C 0.26118 0.15687 0.14453 0.0
C970 C 0.22027 0.23868 0.14717 0.0
C971 C 0.22782 0.23182 0.16279 0.0
C972 C 0.25136 0.18642 0.16922 0.0
C973 C 0.26769 0.14955 0.16025 0.0
C974 C 0.18806 0.30186 0.19707 0.0
C975 C 0.1952 0.34837 0.18974 0.0
C976 C 0.1976 0.26423 0.18834 0.0
C977 C 0.2137 0.27244 0.17203 0.0
C978 C 0.21848 0.31977 0.16469 0.0
C979 C 0.20966 0.35697 0.17342 0.0
H980 H 0.4659 0.49144 0.36605 0.0
H981 H 0.50868 0.52623 0.40543 0.0
H982 H 0.39347 0.4745 0.38235 0.0
H983 H 0.43571 0.51145 0.4216 0.0
H984 H 0.32389 0.43736 0.45218 0.0
H985 H 0.39341 0.45582 0.4352 0.0
H986 H 0.31946 0.4987 0.39579 0.0
H987 H 0.24914 0.47672 0.41309 0.0
C988 C 0.45986 0.4957 0.37821 0.0
C989 C 0.49368 0.51013 0.38436 0.0
C990 C 0.41774 0.48638 0.3876 0.0
C991 C 0.40769 0.49124 0.40352 0.0
C992 C 0.44166 0.50608 0.40958 0.0
C993 C 0.48382 0.51511 0.40021 0.0
C994 C 0.32183 0.45124 0.43992 0.0
C995 C 0.28011 0.456 0.43418 0.0
C996 C 0.36228 0.46233 0.43006 0.0
C997 C 0.36304 0.47974 0.41392 0.0
C998 C 0.32103 0.48516 0.40808 0.0
C999 C 0.28022 0.47321 0.41805 0.0
H1000 H 0.15615 0.69397 0.62962 0.0
H1001 H 0.29321 0.72841 0.61669 0.0
H1002 H 0.18385 0.62569 0.64929 0.0
H1003 H 0.32098 0.66085 0.63639 0.0
H1004 H 0.339 0.58535 0.68545 0.0
H1005 H 0.30931 0.64549 0.66469 0.0
H1006 H 0.23518 0.54516 0.65492 0.0
H1007 H 0.26458 0.48406 0.67647 0.0
C1008 C 0.19227 0.68671 0.63097 0.0
C1009 C 0.2225 0.71661 0.62173 0.0
C1010 C 0.20823 0.64741 0.64215 0.0
C1011 C 0.25454 0.63792 0.64461 0.0
C1012 C 0.28494 0.6673 0.635 0.0
C1013 C 0.2692 0.70588 0.62362 0.0
C1014 C 0.31627 0.57572 0.67897 0.0
C1015 C 0.30461 0.52946 0.68256 0.0
C1016 C 0.29952 0.61037 0.66689 0.0
C1017 C 0.27064 0.60011 0.65782 0.0
C1018 C 0.2575 0.55429 0.66166 0.0
C1019 C 0.27428 0.51926 0.67397 0.0
H1020 H 0.06533 0.46536 0.92507 0.0
H1021 H 0.08377 0.60881 0.90219 0.0
H1022 H 0.11751 0.46589 0.94332 0.0
H1023 H 0.13569 0.60958 0.92011 0.0
H1024 H 0.25504 0.59117 0.94423 0.0
H1025 H 0.21155 0.5746 0.92612 0.0
H1026 H 0.12347 0.50553 0.96525 0.0
H1027 H 0.16948 0.52058 0.98326 0.0
C1028 C 0.08067 0.49691 0.92393 0.0
C1029 C 0.07042 0.53714 0.91221 0.0
C1030 C 0.11043 0.49732 0.9344 0.0
C1031 C 0.13141 0.5376 0.93316 0.0
C1032 C 0.12104 0.57755 0.92134 0.0
C1033 C 0.09087 0.57739 0.91111 0.0
C1034 C 0.22824 0.57007 0.94886 0.0
C1035 C 0.21734 0.55528 0.96504 0.0
C1036 C 0.20223 0.56163 0.93852 0.0
C1037 C 0.16333 0.5392 0.94414 0.0
C1038 C 0.15336 0.52249 0.96041 0.0
C1039 C 0.17983 0.53089 0.97075 0.0
H1040 H 0.80686 0.66181 0.85473 0.0
H1041 H 0.7699 0.55928 0.89603 0.0
H1042 H 0.78911 0.72568 0.87075 0.0
H1043 H 0.75216 0.62205 0.91191 0.0
H1044 H 0.74768 0.73739 0.93965 0.0
H1045 H 0.77938 0.67653 0.92313 0.0
H1046 H 0.72089 0.77171 0.88453 0.0
H1047 H 0.68996 0.83322 0.90102 0.0
C1048 C 0.79576 0.6528 0.86724 0.0
C1049 C 0.78933 0.60569 0.87407 0.0
C1050 C 0.78509 0.68941 0.87643 0.0
C1051 C 0.76854 0.67946 0.89268 0.0
C1052 C 0.76486 0.6315 0.89953 0.0
C1053 C 0.77481 0.59538 0.89036 0.0
C1054 C 0.74154 0.74554 0.92763 0.0
C1055 C 0.71567 0.79029 0.92178 0.0
C1056 C 0.75976 0.71041 0.91812 0.0
C1057 C 0.75266 0.71875 0.90242 0.0
C1058 C 0.72768 0.76396 0.89646 0.0
C1059 C 0.7095 0.79921 0.90599 0.0
H1060 H 0.49048 0.50164 0.69136 0.0
H1061 H 0.50561 0.38086 0.66805 0.0
H1062 H 0.56494 0.51829 0.67741 0.0
H1063 H 0.58119 0.39833 0.65346 0.0
H1064 H 0.73629 0.43046 0.63888 0.0
H1065 H 0.66472 0.40255 0.65389 0.0
H1066 H 0.59564 0.55066 0.65234 0.0
H1067 H 0.6649 0.57755 0.63881 0.0
C1068 C 0.50974 0.47868 0.68312 0.0
C1069 C 0.49168 0.44021 0.68076 0.0
C1070 C 0.55269 0.48837 0.67498 0.0
C1071 C 0.57957 0.46006 0.66404 0.0
C1072 C 0.56182 0.42094 0.66176 0.0
C1073 C 0.51817 0.41133 0.66995 0.0
C1074 C 0.70586 0.45673 0.64196 0.0
C1075 C 0.70714 0.50637 0.63755 0.0
C1076 C 0.66463 0.44084 0.65045 0.0
C1077 C 0.62403 0.47428 0.65462 0.0
C1078 C 0.6259 0.52342 0.64992 0.0
C1079 C 0.66634 0.53895 0.64186 0.0
H1080 H 0.75257 0.28648 0.45554 0.0
H1081 H 0.77053 0.18735 0.4235 0.0
H1082 H 0.72762 0.35366 0.43513 0.0
H1083 H 0.74641 0.25403 0.40322 0.0
H1084 H 0.64424 0.36859 0.37863 0.0
H1085 H 0.67474 0.30655 0.39868 0.0
H1086 H 0.75264 0.40317 0.40863 0.0
H1087 H 0.72083 0.46715 0.38816 0.0
C1088 C 0.75122 0.27897 0.44417 0.0
C1089 C 0.76329 0.23135 0.44122 0.0
C1090 C 0.73741 0.3176 0.43241 0.0
C1091 C 0.73492 0.30944 0.4175 0.0
C1092 C 0.74741 0.26179 0.41459 0.0
C1093 C 0.7614 0.2234 0.42625 0.0
C1094 C 0.66813 0.37704 0.38493 0.0
C1095 C 0.68028 0.42305 0.38165 0.0
C1096 C 0.68591 0.341 0.39646 0.0
C1097 C 0.71664 0.34937 0.40522 0.0
C1098 C 0.72898 0.39549 0.40208 0.0
C1099 C 0.71118 0.43199 0.39029 0.0
H1100 H 0.7485 0.33559 0.11984 0.0
H1101 H 0.78904 0.45497 0.0854 0.0
H1102 H 0.79291 0.35108 0.13764 0.0
H1103 H 0.83612 0.46977 0.1032 0.0
H1104 H 0.89702 0.49152 0.14646 0.0
H1105 H 0.84282 0.4907 0.12904 0.0
H1106 H 0.8754 0.3353 0.13684 0.0
H1107 H 0.92788 0.33598 0.15436 0.0
C1108 C 0.76563 0.36631 0.11625 0.0
C1109 C 0.76428 0.39456 0.1013 0.0
C1110 C 0.79211 0.37467 0.12639 0.0
C1111 C 0.81935 0.41084 0.12177 0.0
C1112 C 0.81572 0.44147 0.10718 0.0
C1113 C 0.78852 0.43325 0.097 0.0
C1114 C 0.89248 0.45717 0.14448 0.0
C1115 C 0.91699 0.41375 0.15196 0.0
C1116 C 0.86158 0.45677 0.13439 0.0
C1117 C 0.85393 0.41292 0.13169 0.0
C1118 C 0.87941 0.36981 0.13885 0.0
C1119 C 0.91026 0.37021 0.14879 0.0
H1120 H 0.81068 0.62332 0.66235 0.0
H1121 H 0.7355 0.71331 0.62666 0.0
H1122 H 0.7814 0.68391 0.67917 0.0
H1123 H 0.70633 0.77404 0.6435 0.0
H1124 H 0.63334 0.85625 0.68397 0.0
H1125 H 0.6554 0.79113 0.66851 0.0
H1126 H 0.79435 0.76523 0.67895 0.0
H1127 H 0.77187 0.82957 0.69444 0.0
C1128 C 0.78788 0.65598 0.65808 0.0
C1129 C 0.77597 0.66359 0.64306 0.0
C1130 C 0.77115 0.69083 0.66772 0.0
C1131 C 0.74166 0.73405 0.66269 0.0
C1132 C 0.72871 0.74112 0.64782 0.0
C1133 C 0.74584 0.70643 0.6381 0.0
C1134 C 0.66793 0.83525 0.68347 0.0
C1135 C 0.70031 0.84645 0.69101 0.0
C1136 C 0.68094 0.79862 0.67434 0.0
C1137 C 0.72659 0.77234 0.67265 0.0
C1138 C 0.75868 0.78376 0.68028 0.0
C1139 C 0.74581 0.82058 0.68919 0.0
H1140 H 0.80529 0.88528 0.91759 0.0
H1141 H 0.75866 0.02166 0.93346 0.0
H1142 H 0.8764 0.90958 0.90415 0.0
H1143 H 0.83065 0.04848 0.91857 0.0
H1144 H 0.99109 0.0564 0.90222 0.0
H1145 H 0.91522 0.03952 0.91668 0.0
H1146 H 0.90958 0.95451 0.88254 0.0
H1147 H 0.9844 0.96909 0.86897 0.0
C1148 C 0.80961 0.92145 0.91783 0.0
C1149 C 0.77556 0.95143 0.92663 0.0
C1150 C 0.85091 0.93572 0.90991 0.0
C1151 C 0.86005 -0.01847 0.90991 0.0
C1152 C 0.82538 0.01273 0.91831 0.0
C1153 C 0.78358 -0.00219 0.92662 0.0
C1154 C 0.9737 0.03359 0.898 0.0
C1155 C -0.00558 0.01397 0.8844 0.0
C1156 C 0.92979 0.02436 0.90618 0.0
C1157 C 0.90562 -0.00493 0.90102 0.0
C1158 C 0.92671 0.97619 0.88733 0.0
C1159 C 0.97005 -0.01494 0.87933 0.0
H1160 H 0.82258 0.08803 0.19149 0.0
H1161 H 0.77281 -0.01798 0.17454 0.0
H1162 H 0.79067 0.1509 0.17179 0.0
H1163 H 0.73967 0.04629 0.15448 0.0
H1164 H 0.74281 0.16864 0.10958 0.0
H1165 H 0.76593 0.10188 0.13025 0.0
H1166 H 0.72007 0.19712 0.16415 0.0
H1167 H 0.69783 0.26382 0.14353 0.0
C1168 C 0.80403 0.07818 0.18366 0.0
C1169 C 0.80017 0.02983 0.18466 0.0
C1170 C 0.78541 0.11457 0.17234 0.0
C1171 C 0.76229 0.10409 0.16149 0.0
C1172 C 0.75746 0.05572 0.1626 0.0
C1173 C 0.77593 0.01894 0.17418 0.0
C1174 C 0.7376 0.17537 0.12145 0.0
C1175 C 0.71859 0.2219 0.12482 0.0
C1176 C 0.75047 0.13684 0.13335 0.0
C1177 C 0.74495 0.14382 0.14893 0.0
C1178 C 0.72537 0.19028 0.15229 0.0
C1179 C 0.71241 0.22867 0.14043 0.0
H1180 H 0.64828 0.09362 0.4763 0.0
H1181 H 0.77502 0.02304 0.45168 0.0
H1182 H 0.60449 0.07598 0.4587 0.0
H1183 H 0.73074 0.00421 0.43383 0.0
H1184 H 0.64243 0.04374 0.39317 0.0
H1185 H 0.6899 0.04366 0.41261 0.0
H1186 H 0.57397 0.02182 0.44943 0.0
H1187 H 0.52635 0.0231 0.42994 0.0
C1188 C 0.66683 0.07325 0.46727 0.0
C1189 C 0.71536 0.06007 0.46538 0.0
C1190 C 0.64147 0.06281 0.45713 0.0
C1191 C 0.66364 0.03882 0.4446 0.0
C1192 C 0.71223 0.02341 0.44315 0.0
C1193 C 0.73776 0.03367 0.45348 0.0
C1194 C 0.62714 0.03831 0.40543 0.0
C1195 C 0.58011 0.03405 0.40986 0.0
C1196 C 0.65459 0.03806 0.41666 0.0
C1197 C 0.63607 0.03324 0.43274 0.0
C1198 C 0.58953 0.02687 0.4372 0.0
C1199 C 0.56202 0.02756 0.42597 0.0
H1200 H 0.2359 0.23499 0.44198 0.0
H1201 H 0.22305 0.33852 0.39933 0.0
H1202 H 0.26389 0.17037 0.42678 0.0
H1203 H 0.25082 0.27343 0.38407 0.0
H1204 H 0.33108 0.14652 0.35993 0.0
H1205 H 0.31643 0.21109 0.37554 0.0
H1206 H 0.23038 0.12959 0.4119 0.0
H1207 H 0.24518 0.06587 0.39651 0.0
C1208 C 0.23941 0.24418 0.42933 0.0
C1209 C 0.22687 0.29223 0.42193 0.0
C1210 C 0.25529 0.20688 0.4206 0.0
C1211 C 0.25943 0.21641 0.40415 0.0
C1212 C 0.2485 0.26467 0.39669 0.0
C1213 C 0.23225 0.30204 0.40546 0.0
C1214 C 0.30933 0.14249 0.3713 0.0
C1215 C 0.2887 0.10149 0.37684 0.0
C1216 C 0.3007 0.17951 0.38022 0.0
C1217 C 0.27185 0.17593 0.39497 0.0
C1218 C 0.25295 0.13379 0.40069 0.0
C1219 C 0.26112 0.09731 0.39176 0.0
H1220 H 0.98619 0.911 0.16069 0.0
H1221 H 0.01013 -0.01483 0.19502 0.0
H1222 H 0.0606 0.92334 0.14506 0.0
H1223 H 0.08357 -7e-05 0.17908 0.0
H1224 H 0.23228 -0.00655 0.15274 0.0
H1225 H 0.16068 0.97379 0.16958 0.0
H1226 H 0.10358 0.97347 0.12842 0.0
H1227 H 0.17495 -0.00973 0.11207 0.0
C1228 C 0.00705 0.93055 0.16483 0.0
C1229 C 0.99178 0.94685 0.1792 0.0
C1230 C 0.05008 0.93803 0.15577 0.0
C1231 C 0.07929 0.96283 0.1606 0.0
C1232 C 0.06336 -0.02021 0.17492 0.0
C1233 C 0.0206 0.97173 0.18406 0.0
C1234 C 0.20488 -0.0124 0.1474 0.0
C1235 C 0.21003 -0.00729 0.13099 0.0
C1236 C 0.16316 -0.02281 0.15705 0.0
C1237 C 0.12524 0.97178 0.15058 0.0
C1238 C 0.1314 0.97602 0.13416 0.0
C1239 C 0.17281 -0.01399 0.12465 0.0
H1240 H 0.22883 0.88541 0.86512 0.0
H1241 H 0.14734 0.96302 0.90083 0.0
H1242 H 0.25844 0.82046 0.8852 0.0
H1243 H 0.17472 0.8975 0.9211 0.0
H1244 H 0.25423 0.78556 0.95514 0.0
H1245 H 0.23174 0.8536 0.93503 0.0
H1246 H 0.23825 0.75546 0.90351 0.0
H1247 H 0.26318 0.68768 0.92345 0.0
C1248 C 0.21823 0.88898 0.87732 0.0
C1249 C 0.18695 0.92976 0.88145 0.0
C1250 C 0.23436 0.85125 0.88891 0.0
C1251 C 0.21884 0.85286 0.90498 0.0
C1252 C 0.18832 0.89469 0.90898 0.0
C1253 C 0.1726 0.93256 0.89736 0.0
C1254 C 0.25092 0.77849 0.9439 0.0
C1255 C 0.2609 0.73102 0.94092 0.0
C1256 C 0.23768 0.81771 0.93231 0.0
C1257 C 0.23326 0.81074 0.91741 0.0
C1258 C 0.24237 0.76294 0.91459 0.0
C1259 C 0.25635 0.72376 0.92611 0.0
H1260 H 0.36561 -0.01235 0.65704 0.0
H1261 H 0.44635 0.85206 0.64609 0.0
H1262 H 0.31695 -0.01073 0.63782 0.0
H1263 H 0.39889 0.85533 0.62642 0.0
H1264 H 0.32451 0.89244 0.58358 0.0
H1265 H 0.37662 0.90177 0.6005 0.0
H1266 H 0.25859 0.9411 0.63516 0.0
H1267 H 0.20688 0.93137 0.61825 0.0
C1268 C 0.37327 0.95802 0.65066 0.0
C1269 C 0.41031 0.91939 0.65353 0.0
C1270 C 0.3453 0.95925 0.63948 0.0
C1271 C 0.35374 0.92242 0.63051 0.0
C1272 C 0.39153 0.88469 0.63293 0.0
C1273 C 0.41905 0.88299 0.64429 0.0
C1274 C 0.30971 0.90428 0.59464 0.0
C1275 C 0.26148 0.91137 0.59958 0.0
C1276 C 0.33961 0.90905 0.60444 0.0
C1277 C 0.32202 0.92184 0.61932 0.0
C1278 C 0.27356 0.93142 0.62381 0.0
C1279 C 0.24382 0.92577 0.61414 0.0
H1280 H 0.24682 0.17922 1.00753 0.0
H1281 H 0.2076 0.04394 1.03171 0.0
H1282 H 0.22386 0.16855 0.98395 0.0
H1283 H 0.18017 0.03518 1.00862 0.0
H1284 H 0.16779 0.01436 0.9603 0.0
H1285 H 0.19453 0.01943 0.98391 0.0
H1286 H 0.15972 0.17514 0.97331 0.0
H1287 H 0.13899 0.17006 0.9489 0.0
C1288 C 0.23329 0.14711 1.00776 0.0
C1289 C 0.22844 0.11267 1.02145 0.0
C1290 C 0.21914 0.14137 0.99433 0.0
C1291 C 0.19878 0.10162 0.99441 0.0
C1292 C 0.1956 0.06627 1.00802 0.0
C1293 C 0.2107 0.07156 1.02136 0.0
C1294 C 0.16629 0.04965 0.96297 0.0
C1295 C 0.15186 0.09171 0.95254 0.0
C1296 C 0.18105 0.05263 0.97666 0.0
C1297 C 0.18035 0.09779 0.98044 0.0
C1298 C 0.16256 0.13969 0.97056 0.0
C1299 C 0.14927 0.13674 0.95668 0.0
H1300 H 0.66949 0.34252 0.19429 0.0
H1301 H 0.54138 0.44282 0.18914 0.0
H1302 H 0.66965 0.36711 0.21911 0.0
H1303 H 0.5421 0.46814 0.21347 0.0
H1304 H 0.54106 0.47076 0.26503 0.0
H1305 H 0.53558 0.44411 0.24121 0.0
H1306 H 0.6826 0.44006 0.22582 0.0
H1307 H 0.68802 0.46487 0.25005 0.0
C1308 C 0.64109 0.36912 0.19863 0.0
C1309 C 0.60537 0.39068 0.18994 0.0
C1310 C 0.64139 0.38358 0.21266 0.0
C1311 C 0.60626 0.42009 0.218 0.0
C1312 C 0.56937 0.43966 0.20969 0.0
C1313 C 0.56885 0.42494 0.1958 0.0
C1314 C 0.5718 0.46539 0.2563 0.0
C1315 C 0.6149 0.46983 0.25912 0.0
C1316 C 0.56881 0.44983 0.24277 0.0
C1317 C 0.60886 0.43918 0.23186 0.0
C1318 C 0.65147 0.44673 0.23428 0.0
C1319 C 0.65452 0.46167 0.24792 0.0
H1320 H 0.32571 0.78863 0.48124 0.0
H1321 H 0.23574 0.92408 0.48723 0.0
H1322 H 0.3426 0.81772 0.45305 0.0
H1323 H 0.25289 0.95371 0.45894 0.0
H1324 H 0.34453 0.00387 0.41158 0.0
H1325 H 0.32494 0.97431 0.4397 0.0
H1326 H 0.30116 0.84224 0.42974 0.0
H1327 H 0.32063 0.87156 0.40174 0.0
C1328 C 0.30941 0.82456 0.47643 0.0
C1329 C 0.27963 0.85427 0.48626 0.0
C1330 C 0.31891 0.84116 0.46035 0.0
C1331 C 0.29933 0.88809 0.45385 0.0
C1332 C 0.26884 0.91758 0.46369 0.0
C1333 C 0.25873 0.90061 0.47979 0.0
C1334 C 0.33548 0.96839 0.41542 0.0
C1335 C 0.33409 0.94004 0.40448 0.0
C1336 C 0.32381 0.95172 0.43148 0.0
C1337 C 0.31125 0.90614 0.43686 0.0
C1338 C 0.31083 0.87745 0.42591 0.0
C1339 C 0.32186 0.89432 0.40989 0.0
H1340 H 0.90207 0.43014 0.72679 0.0
H1341 H 0.85241 0.58286 0.71725 0.0
H1342 H 0.90755 0.4351 0.75345 0.0
H1343 H 0.85506 0.58824 0.74437 0.0
H1344 H 0.88525 0.59294 0.79356 0.0
H1345 H 0.88755 0.59047 0.76573 0.0
H1346 H 0.87775 0.43956 0.77815 0.0
H1347 H 0.87813 0.44199 0.80507 0.0
C1348 C 0.8916 0.46492 0.73046 0.0
C1349 C 0.87655 0.5059 0.71964 0.0
C1350 C 0.89435 0.468 0.74604 0.0
C1351 C 0.88135 0.51223 0.75179 0.0
C1352 C 0.86615 0.55335 0.74083 0.0
C1353 C 0.86414 0.55028 0.72512 0.0
C1354 C 0.88484 0.55904 0.79023 0.0
C1355 C 0.88162 0.51769 0.80191 0.0
C1356 C 0.88536 0.55757 0.77413 0.0
C1357 C 0.88273 0.51468 0.76902 0.0
C1358 C 0.88072 0.47346 0.78086 0.0
C1359 C 0.88044 0.47495 0.79671 0.0
H1360 H 0.88625 0.80791 0.10677 0.0
H1361 H 0.77012 0.92187 0.11615 0.0
H1362 H 0.8599 0.80429 0.08276 0.0
H1363 H 0.74423 0.91862 0.09202 0.0
H1364 H 0.74177 0.9189 0.03923 0.0
H1365 H 0.7664 0.9305 0.06278 0.0
H1366 H 0.79037 0.77624 0.07863 0.0
H1367 H 0.76632 0.76506 0.05495 0.0
C1368 C 0.85551 0.83262 0.10357 0.0
C1369 C 0.82987 0.8647 0.11341 0.0
C1370 C 0.84033 0.83037 0.08991 0.0
C1371 C 0.7995 0.86043 0.08581 0.0
C1372 C 0.77575 0.89498 0.095 0.0
C1373 C 0.79079 0.89705 0.10873 0.0
C1374 C 0.75122 0.88783 0.04802 0.0
C1375 C 0.75188 0.84123 0.04562 0.0
C1376 C 0.76546 0.89434 0.06137 0.0
C1377 C 0.78086 0.8542 0.07233 0.0
C1378 C 0.77945 0.80768 0.07017 0.0
C1379 C 0.76516 0.80124 0.05684 0.0
H1380 H 0.34196 0.4912 0.88637 0.0
H1381 H 0.40364 0.61416 0.86202 0.0
H1382 H 0.34661 0.46495 0.86176 0.0
H1383 H 0.40689 0.58869 0.83697 0.0
H1384 H 0.45003 0.50156 0.79782 0.0
H1385 H 0.44918 0.52221 0.82335 0.0
H1386 H 0.31096 0.49005 0.83863 0.0
H1387 H 0.31277 0.46847 0.81327 0.0
C1388 C 0.35545 0.51322 0.87561 0.0
C1389 C 0.37186 0.55495 0.87588 0.0
C1390 C 0.35826 0.49812 0.86158 0.0
C1391 C 0.37711 0.52478 0.84755 0.0
C1392 C 0.39287 0.56717 0.84774 0.0
C1393 C 0.39061 0.58202 0.86192 0.0
C1394 C 0.42038 0.49743 0.80694 0.0
C1395 C 0.38175 0.48293 0.804 0.0
C1396 C 0.41946 0.51001 0.82133 0.0
C1397 C 0.37979 0.50824 0.83279 0.0
C1398 C 0.34208 0.49135 0.83 0.0
C1399 C 0.34308 0.47877 0.81563 0.0
H1400 H 0.68665 0.93989 0.65573 0.0
H1401 H 0.61778 0.08313 0.66255 0.0
H1402 H 0.7085 0.96994 0.6277 0.0
H1403 H 0.63898 0.11337 0.6346 0.0
H1404 H 0.64062 0.13595 0.58193 0.0
H1405 H 0.62054 0.10547 0.60967 0.0
H1406 H 0.75948 0.0243 0.61033 0.0
H1407 H 0.77918 0.05331 0.58219 0.0
C1408 C 0.6756 -0.02238 0.65109 0.0
C1409 C 0.65018 0.00931 0.66103 0.0
C1410 C 0.68855 -0.00507 0.63518 0.0
C1411 C 0.67549 0.04398 0.62901 0.0
C1412 C 0.64925 0.07535 0.63902 0.0
C1413 C 0.6371 0.0582 0.65495 0.0
C1414 C 0.66681 0.11122 0.58793 0.0
C1415 C 0.71128 0.0965 0.57985 0.0
C1416 C 0.65545 0.09424 0.60387 0.0
C1417 C 0.68838 0.06241 0.61213 0.0
C1418 C 0.73324 0.04832 0.60416 0.0
C1419 C 0.74465 0.06531 0.58814 0.0
H1420 H 0.1443 0.50301 0.33417 0.0
H1421 H 0.06739 0.38663 0.35008 0.0
H1422 H 0.1462 0.49609 0.30745 0.0
H1423 H 0.06567 0.38251 0.32301 0.0
H1424 H 0.09228 0.36373 0.27044 0.0
H1425 H 0.09047 0.36476 0.29832 0.0
H1426 H 0.11577 0.51099 0.286 0.0
H1427 H 0.12071 0.50826 0.25885 0.0
C1428 C 0.12752 0.47572 0.33217 0.0
C1429 C 0.10569 0.44558 0.34497 0.0
C1430 C 0.12766 0.47236 0.31642 0.0
C1431 C 0.10513 0.4393 0.31235 0.0
C1432 C 0.08364 0.40867 0.32513 0.0
C1433 C 0.08407 0.4116 0.34097 0.0
C1434 C 0.09732 0.39604 0.27376 0.0
C1435 C 0.10687 0.43571 0.26203 0.0
C1436 C 0.09628 0.39687 0.28993 0.0
C1437 C 0.10408 0.43768 0.29505 0.0
C1438 C 0.11145 0.47775 0.28317 0.0
C1439 C 0.11345 0.4765 0.26723 0.0
H1440 H 0.59432 0.63031 0.46005 0.0
H1441 H 0.7251 0.53923 0.44708 0.0
H1442 H 0.61865 0.63584 0.4842 0.0
H1443 H 0.75046 0.54619 0.47085 0.0
H1444 H 0.76814 0.54467 0.52133 0.0
H1445 H 0.74393 0.52972 0.49826 0.0
H1446 H 0.67026 0.67696 0.49047 0.0
H1447 H 0.69263 0.69052 0.51396 0.0
C1448 C 0.62804 0.61098 0.46252 0.0
C1449 C 0.65801 0.58464 0.45173 0.0
C1450 C 0.64228 0.61459 0.47621 0.0
C1451 C 0.68706 0.59257 0.47924 0.0
C1452 C 0.71578 0.56357 0.46891 0.0
C1453 C 0.70123 0.55943 0.45531 0.0
C1454 C 0.74747 0.57385 0.51444 0.0
C1455 C 0.73204 0.61862 0.51926 0.0
C1456 C 0.73346 0.56536 0.50129 0.0
C1457 C 0.70431 0.60183 0.4927 0.0
C1458 C 0.69137 0.64755 0.49711 0.0
C1459 C 0.70474 0.65569 0.51037 0.0
H1460 H 0.04471 0.95157 0.68809 0.0
H1461 H 0.16084 0.83686 0.69644 0.0
H1462 H 0.05017 -0.01892 0.71124 0.0
H1463 H 0.16529 0.86516 0.72023 0.0
H1464 H 0.19128 0.95384 0.75241 0.0
H1465 H 0.1865 0.93209 0.72762 0.0
H1466 H 0.03691 0.96062 0.73882 0.0
H1467 H 0.04211 -0.0158 0.76315 0.0
C1468 C 0.07066 0.93198 0.69518 0.0
C1469 C 0.10202 0.89172 0.69073 0.0
C1470 C 0.07388 0.94893 0.70839 0.0
C1471 C 0.1082 0.92553 0.71749 0.0
C1472 C 0.13905 0.88444 0.71322 0.0
C1473 C 0.13625 0.86788 0.6998 0.0
C1474 C 0.15757 0.95671 0.74922 0.0
C1475 C 0.11705 0.97075 0.75943 0.0
C1476 C 0.15476 0.94362 0.73524 0.0
C1477 C 0.11136 0.94387 0.73146 0.0
C1478 C 0.07083 0.96048 0.74136 0.0
C1479 C 0.0737 0.9742 0.75522 0.0
H1480 H 0.7848 0.39558 0.90199 0.0
H1481 H 0.88097 0.47753 0.90952 0.0
H1482 H 0.76587 0.36959 0.92984 0.0
H1483 H 0.86354 0.44916 0.93775 0.0
H1484 H 0.7844 0.43134 0.98792 0.0
H1485 H 0.80474 0.45847 0.95976 0.0
H1486 H 0.79242 0.31949 0.9515 0.0
H1487 H 0.77001 0.29378 0.97948 0.0
C1488 C 0.80251 0.40761 0.90959 0.0
C1489 C 0.83433 0.43891 0.90347 0.0
C1490 C 0.79183 0.39226 0.92566 0.0
C1491 C 0.81312 0.40714 0.93613 0.0
C1492 C 0.84586 0.4376 0.93004 0.0
C1493 C 0.85626 0.45348 0.91385 0.0
C1494 C 0.78572 0.40698 0.97998 0.0
C1495 C 0.7754 0.36067 0.98576 0.0
C1496 C 0.79783 0.42223 0.96388 0.0
C1497 C 0.80048 0.39116 0.9533 0.0
C1498 C 0.78994 0.34482 0.95921 0.0
C1499 C 0.7771 0.32996 0.97525 0.0
H1500 H 0.45141 -0.00806 0.29914 0.0
H1501 H 0.30747 0.05622 0.3016 0.0
H1502 H 0.45569 -0.01258 0.27169 0.0
H1503 H 0.31041 0.0524 0.27459 0.0
H1504 H 0.314 0.04013 0.22433 0.0
H1505 H 0.31252 0.04836 0.25085 0.0
H1506 H 0.45598 -0.02257 0.24814 0.0
H1507 H 0.4565 0.96876 0.2216 0.0
C1508 C 0.42085 0.00653 0.29369 0.0
C1509 C 0.37935 0.02553 0.30275 0.0
C1510 C 0.42282 0.00331 0.27769 0.0
C1511 C 0.38333 0.01904 0.26993 0.0
C1512 C 0.34233 0.03926 0.27921 0.0
C1513 C 0.34044 0.04202 0.29509 0.0
C1514 C 0.34533 0.02572 0.22934 0.0
C1515 C 0.38534 0.00364 0.22022 0.0
C1516 C 0.34476 0.03073 0.245 0.0
C1517 C 0.38423 0.01392 0.25267 0.0
C1518 C 0.42429 -0.00826 0.24342 0.0
C1519 C 0.4248 -0.01318 0.22773 0.0
H1520 H 0.25191 0.36255 0.62397 0.0
H1521 H 0.39234 0.37026 0.6015 0.0
H1522 H 0.23124 0.35788 0.59908 0.0
H1523 H 0.372 0.36534 0.57639 0.0
H1524 H 0.30338 0.39611 0.53205 0.0
H1525 H 0.32312 0.40921 0.5562 0.0
H1526 H 0.25121 0.29551 0.58267 0.0
H1527 H 0.23099 0.28315 0.55866 0.0
C1528 C 0.27801 0.36411 0.61355 0.0
C1529 C 0.3234 0.36714 0.61439 0.0
C1530 C 0.26643 0.36099 0.5994 0.0
C1531 C 0.30014 0.36093 0.58588 0.0
C1532 C 0.34535 0.36565 0.58664 0.0
C1533 C 0.35703 0.36838 0.6009 0.0
C1534 C 0.29207 0.37395 0.54307 0.0
C1535 C 0.26567 0.33875 0.54363 0.0
C1536 C 0.30334 0.38137 0.55682 0.0
C1537 C 0.28846 0.35354 0.57126 0.0
C1538 C 0.26234 0.31811 0.57173 0.0
C1539 C 0.25088 0.31092 0.55803 0.0
H1540 H 0.8324 0.12065 0.36813 0.0
H1541 H 0.93141 -0.0093 0.37917 0.0
H1542 H 0.82752 0.09615 0.3437 0.0
H1543 H 0.9252 0.96507 0.35538 0.0
H1544 H 0.93907 0.96346 0.30312 0.0
H1545 H 0.94523 -0.0151 0.32771 0.0
H1546 H 0.79705 0.03523 0.33592 0.0
H1547 H 0.79152 0.01533 0.31094 0.0
C1548 C 0.85316 0.08709 0.36521 0.0
C1549 C 0.8827 0.05771 0.3752 0.0
C1550 C 0.85008 0.07279 0.35143 0.0
C1551 C 0.87581 0.02855 0.34777 0.0
C1552 C 0.90559 -0.00037 0.35779 0.0
C1553 C 0.9092 0.01427 0.37135 0.0
C1554 C 0.90782 -0.02209 0.31045 0.0
C1555 C 0.86486 -0.01217 0.30538 0.0
C1556 C 0.91128 -0.00959 0.32443 0.0
C1557 C 0.87164 0.01233 0.33356 0.0
C1558 C 0.82823 0.01946 0.32888 0.0
C1559 C 0.82491 0.0075 0.3148 0.0
H1560 H 0.17294 0.57595 0.1628 0.0
H1561 H 0.11688 0.45973 0.15409 0.0
H1562 H 0.19368 0.60216 0.13501 0.0
H1563 H 0.13585 0.48774 0.12585 0.0
H1564 H 0.2259 0.51708 0.07759 0.0
H1565 H 0.20241 0.49032 0.10569 0.0
H1566 H 0.16459 0.63924 0.11205 0.0
H1567 H 0.19062 0.66511 0.08426 0.0
C1568 C 0.16436 0.55634 0.15491 0.0
C1569 C 0.14362 0.51544 0.16065 0.0
C1570 C 0.17597 0.57172 0.13891 0.0
C1571 C 0.16664 0.547 0.12815 0.0
C1572 C 0.14422 0.50709 0.13385 0.0
C1573 C 0.13278 0.49141 0.14999 0.0
C1574 C 0.21312 0.54369 0.08517 0.0
C1575 C 0.21038 0.59292 0.07902 0.0
C1576 C 0.1991 0.52858 0.10116 0.0
C1577 C 0.18131 0.56263 0.11113 0.0
C1578 C 0.17882 0.61197 0.1048 0.0
C1579 C 0.19367 0.6269 0.08892 0.0
H1580 H 0.67879 0.92473 0.83966 0.0
H1581 H 0.53066 0.9704 0.84611 0.0
H1582 H 0.67871 0.9166 0.81306 0.0
H1583 H 0.53038 0.96397 0.81913 0.0
H1584 H 0.53566 0.93054 0.76949 0.0
H1585 H 0.5326 0.93243 0.79739 0.0
H1586 H 0.67781 0.94191 0.78811 0.0
H1587 H 0.68104 0.93691 0.76132 0.0
C1588 C 0.64596 0.93387 0.83543 0.0
C1589 C 0.60484 0.94852 0.84557 0.0
C1590 C 0.64577 0.9294 0.81978 0.0
C1591 C 0.60449 0.94012 0.81311 0.0
C1592 C 0.56325 0.9546 0.82331 0.0
C1593 C 0.56341 0.95846 0.83909 0.0
C1594 C 0.56711 0.93176 0.77355 0.0
C1595 C 0.60866 0.93295 0.76275 0.0
C1596 C 0.5654 0.93363 0.78971 0.0
C1597 C 0.6051 0.93701 0.79577 0.0
C1598 C 0.64626 0.93797 0.78476 0.0
C1599 C 0.64801 0.93559 0.76891 0.0
loop_
_geom_bond_atom_site_label_1
_geom_bond_atom_site_label_2
_geom_bond_distance
_geom_bond_site_symmetry_2
_ccdc_geom_bond_type
Nd0 C2 2.836 . S
Nd0 O20 2.500 . S
Nd0 O21 2.492 . S
Nd0 O22 2.487 . S
Nd0 O23 2.682 . S
Nd0 O24 2.410 . S
Nd0 O29 2.414 . S
Nd0 O31 2.424 . S
Nd1 C11 2.836 . S
Nd1 O23 2.414 . S
Nd1 O25 2.424 . S
Nd1 O26 2.500 . S
Nd1 O27 2.492 . S
Nd1 O28 2.487 . S
Nd1 O29 2.682 . S
Nd1 O30 2.410 . S
C2 Nd0 2.836 . S
C2 C3 1.498 . S
C2 O20 1.258 . S
C2 O21 1.239 . S
C3 C2 1.498 . S
C3 C4 1.366 . S
C3 C8 1.407 . S
C4 C3 1.366 . S
C4 C5 1.392 . S
C4 H32 0.930 . S
C5 C4 1.392 . S
C5 C6 1.398 . S
C5 H33 0.929 . S
C6 C5 1.398 . S
C6 C7 1.352 . S
C7 C6 1.352 . S
C7 C8 1.384 . S
C7 H34 0.930 . S
C8 C3 1.407 . S
C8 C7 1.384 . S
C8 H35 0.929 . S
C9 O22 1.241 . S
C9 O23 1.273 . S
C10 O24 1.251 . S
C10 O25 1.268 . S
C11 Nd1 2.836 . S
C11 C12 1.498 . S
C11 O26 1.258 . S
C11 O27 1.239 . S
C12 C11 1.498 . S
C12 C13 1.366 . S
C12 C17 1.407 . S
C13 C12 1.366 . S
C13 C14 1.452 . S
C13 H36 0.930 . S
C14 C13 1.452 . S
C14 C15 1.371 1_554 S
C14 H37 0.901 1_554 S
C15 C14 1.371 1_556 S
C15 C16 1.352 1_556 S
C16 C15 1.352 1_554 S
C16 C17 1.384 . S
C16 H38 0.930 . S
C17 C12 1.407 . S
C17 C16 1.384 . S
C17 H39 0.929 . S
C18 O28 1.241 . S
C18 O29 1.273 . S
C19 O30 1.251 . S
C19 O31 1.268 . S
O20 Nd0 2.500 . S
O20 C2 1.258 . S
O21 Nd0 2.492 . S
O21 C2 1.239 . S
O22 Nd0 2.487 . S
O22 C9 1.241 . S
O23 Nd0 2.682 . S
O23 Nd1 2.414 . S
O23 C9 1.273 . S
O24 Nd0 2.410 . S
O24 C10 1.251 . S
O25 Nd1 2.424 . S
O25 C10 1.268 . S
O26 Nd1 2.500 . S
O26 C11 1.258 . S
O27 Nd1 2.492 . S
O27 C11 1.239 . S
O28 Nd1 2.487 . S
O28 C18 1.241 . S
O29 Nd0 2.414 . S
O29 Nd1 2.682 . S
O29 C18 1.273 . S
O30 Nd1 2.410 . S
O30 C19 1.251 . S
O31 Nd0 2.424 . S
O31 C19 1.268 . S
H32 C4 0.930 . S
H33 C5 0.929 . S
H34 C7 0.930 . S
H35 C8 0.929 . S
H36 C13 0.930 . S
H37 C14 0.901 1_556 S
H38 C16 0.930 . S
H39 C17 0.929 . S
Nd40 C42 2.836 . S
Nd40 O60 2.500 . S
Nd40 O61 2.492 . S
Nd40 O62 2.487 . S
Nd40 O63 2.682 . S
Nd40 O64 2.410 . S
Nd40 O69 2.414 . S
Nd40 O71 2.424 . S
Nd41 C51 2.836 . S
Nd41 O63 2.414 . S
Nd41 O65 2.424 . S
Nd41 O66 2.500 . S
Nd41 O67 2.492 . S
Nd41 O68 2.487 . S
Nd41 O69 2.682 . S
Nd41 O70 2.410 . S
C42 Nd40 2.836 . S
C42 C43 1.498 . S
C42 O60 1.258 . S
C42 O61 1.239 . S
C43 C42 1.498 . S
C43 C44 1.366 . S
C43 C48 1.407 . S
C44 C43 1.366 . S
C44 C45 1.392 . S
C44 H72 0.930 . S
C45 C44 1.392 . S
C45 C46 1.398 . S
C45 H73 0.929 . S
C46 C45 1.398 . S
C46 C47 1.352 . S
C47 C46 1.352 . S
C47 C48 1.384 . S
C47 H74 0.930 . S
C48 C43 1.407 . S
C48 C47 1.384 . S
C48 H75 0.929 . S
C49 O62 1.241 . S
C49 O63 1.273 . S
C50 O64 1.251 . S
C50 O65 1.268 . S
C51 Nd41 2.836 . S
C51 C52 1.498 . S
C51 O66 1.258 . S
C51 O67 1.239 . S
C52 C51 1.498 . S
C52 C53 1.366 . S
C52 C57 1.407 . S
C53 C52 1.366 . S
C53 C54 1.392 . S
C53 H76 0.930 . S
C54 C53 1.392 . S
C54 C55 1.398 . S
C54 H77 0.929 . S
C55 C54 1.398 . S
C55 C56 1.352 . S
C56 C55 1.352 . S
C56 C57 1.384 . S
C56 H78 0.930 . S
C57 C52 1.407 . S
C57 C56 1.384 . S
C57 H79 0.929 . S
C58 O68 1.241 . S
C58 O69 1.273 . S
C59 O70 1.251 . S
C59 O71 1.268 . S
O60 Nd40 2.500 . S
O60 C42 1.258 . S
O61 Nd40 2.492 . S
O61 C42 1.239 . S
O62 Nd40 2.487 . S
O62 C49 1.241 . S
O63 Nd40 2.682 . S
O63 Nd41 2.414 . S
O63 C49 1.273 . S
O64 Nd40 2.410 . S
O64 C50 1.251 . S
O65 Nd41 2.424 . S
O65 C50 1.268 . S
O66 Nd41 2.500 . S
O66 C51 1.258 . S
O67 Nd41 2.492 . S
O67 C51 1.239 . S
O68 Nd41 2.487 . S
O68 C58 1.241 . S
O69 Nd40 2.414 . S
O69 Nd41 2.682 . S
O69 C58 1.273 . S
O70 Nd41 2.410 . S
O70 C59 1.251 . S
O71 Nd40 2.424 . S
O71 C59 1.268 . S
H72 C44 0.930 . S
H73 C45 0.929 . S
H74 C47 0.930 . S
H75 C48 0.929 . S
H76 C53 0.930 . S
H77 C54 0.929 . S
H78 C56 0.930 . S
H79 C57 0.929 . S
Nd80 C82 2.836 . S
Nd80 O100 2.500 . S
Nd80 O101 2.492 . S
Nd80 O102 2.487 . S
Nd80 O103 2.682 . S
Nd80 O104 2.410 . S
Nd80 O109 2.414 . S
Nd80 O111 2.424 . S
Nd81 C91 2.836 . S
Nd81 O103 2.414 . S
Nd81 O105 2.424 . S
Nd81 O106 2.500 . S
Nd81 O107 2.492 . S
Nd81 O108 2.487 . S
Nd81 O109 2.682 . S
Nd81 O110 2.410 . S
C82 Nd80 2.836 . S
C82 C83 1.498 . S
C82 O100 1.258 . S
C82 O101 1.239 . S
C83 C82 1.498 . S
C83 C84 1.366 . S
C83 C88 1.407 . S
C84 C83 1.366 . S
C84 C85 1.392 . S
C84 H112 0.930 . S
C85 C84 1.392 . S
C85 C86 1.398 . S
C85 H113 0.929 . S
C86 C85 1.398 . S
C86 C87 1.352 . S
C87 C86 1.352 . S
C87 C88 1.384 . S
C87 H114 0.930 . S
C88 C83 1.407 . S
C88 C87 1.384 . S
C88 H115 0.929 . S
C89 O102 1.241 . S
C89 O103 1.273 . S
C90 O104 1.251 . S
C90 O105 1.268 . S
C91 Nd81 2.836 . S
C91 C92 1.498 . S
C91 O106 1.258 . S
C91 O107 1.239 . S
C92 C91 1.498 . S
C92 C93 1.366 . S
C92 C97 1.407 . S
C93 C92 1.366 . S
C93 C94 1.392 . S
C93 H116 0.930 . S
C94 C93 1.392 . S
C94 C95 1.398 . S
C94 H117 0.929 . S
C95 C94 1.398 . S
C95 C96 1.352 . S
C96 C95 1.352 . S
C96 C97 1.384 . S
C96 H118 0.930 . S
C97 C92 1.407 . S
C97 C96 1.384 . S
C97 H119 0.929 . S
C98 O108 1.241 . S
C98 O109 1.273 . S
C99 O110 1.251 . S
C99 O111 1.268 . S
O100 Nd80 2.500 . S
O100 C82 1.258 . S
O101 Nd80 2.492 . S
O101 C82 1.239 . S
O102 Nd80 2.487 . S
O102 C89 1.241 . S
O103 Nd80 2.682 . S
O103 Nd81 2.414 . S
O103 C89 1.273 . S
O104 Nd80 2.410 . S
O104 C90 1.251 . S
O105 Nd81 2.424 . S
O105 C90 1.268 . S
O106 Nd81 2.500 . S
O106 C91 1.258 . S
O107 Nd81 2.492 . S
O107 C91 1.239 . S
O108 Nd81 2.487 . S
O108 C98 1.241 . S
O109 Nd80 2.414 . S
O109 Nd81 2.682 . S
O109 C98 1.273 . S
O110 Nd81 2.410 . S
O110 C99 1.251 . S
O111 Nd80 2.424 . S
O111 C99 1.268 . S
H112 C84 0.930 . S
H113 C85 0.929 . S
H114 C87 0.930 . S
H115 C88 0.929 . S
H116 C93 0.930 . S
H117 C94 0.929 . S
H118 C96 0.930 . S
H119 C97 0.929 . S
Nd120 C122 2.836 . S
Nd120 O140 2.500 . S
Nd120 O141 2.492 . S
Nd120 O142 2.487 . S
Nd120 O143 2.682 . S
Nd120 O144 2.410 . S
Nd120 O149 2.414 . S
Nd120 O151 2.424 . S
Nd121 C131 2.836 1_655 S
Nd121 O143 2.414 . S
Nd121 O145 2.424 . S
Nd121 O146 2.500 . S
Nd121 O147 2.492 1_655 S
Nd121 O148 2.493 . S
Nd121 O149 2.682 . S
Nd121 O150 2.410 . S
C122 Nd120 2.836 . S
C122 C123 1.498 . S
C122 O140 1.258 . S
C122 O141 1.239 . S
C123 C122 1.498 . S
C123 C124 1.366 . S
C123 C128 1.407 . S
C124 C123 1.366 . S
C124 C125 1.392 . S
C124 H152 0.930 . S
C125 C124 1.392 . S
C125 C126 1.398 . S
C125 H153 0.929 . S
C126 C125 1.398 . S
C126 C127 1.352 . S
C127 C126 1.352 . S
C127 C128 1.384 . S
C127 H154 0.930 . S
C128 C123 1.407 . S
C128 C127 1.384 . S
C128 H155 0.929 . S
C129 O142 1.241 . S
C129 O143 1.273 . S
C130 O144 1.251 . S
C130 O145 1.268 . S
C131 Nd121 2.836 1_455 S
C131 C132 1.498 . S
C131 O146 1.258 1_455 S
C131 O147 1.239 . S
C132 C131 1.498 . S
C132 C133 1.366 . S
C132 C137 1.407 . S
C133 C132 1.366 . S
C133 C134 1.392 . S
C133 H156 0.930 1_455 S
C134 C133 1.392 . S
C134 C135 1.398 . S
C134 H157 0.929 . S
C135 C134 1.398 . S
C135 C136 1.352 . S
C136 C135 1.352 . S
C136 C137 1.384 . S
C136 H158 0.930 . S
C137 C132 1.407 . S
C137 C136 1.384 . S
C137 H159 0.929 . S
C138 O148 1.260 . S
C138 O149 1.273 . S
C139 O150 1.251 . S
C139 O151 1.268 . S
O140 Nd120 2.500 . S
O140 C122 1.258 . S
O141 Nd120 2.492 . S
O141 C122 1.239 . S
O142 Nd120 2.487 . S
O142 C129 1.241 . S
O143 Nd120 2.682 . S
O143 Nd121 2.414 . S
O143 C129 1.273 . S
O144 Nd120 2.410 . S
O144 C130 1.251 . S
O145 Nd121 2.424 . S
O145 C130 1.268 . S
O146 Nd121 2.500 . S
O146 C131 1.258 1_655 S
O147 Nd121 2.492 1_455 S
O147 C131 1.239 . S
O148 Nd121 2.493 . S
O148 C138 1.260 . S
O149 Nd120 2.414 . S
O149 Nd121 2.682 . S
O149 C138 1.273 . S
O150 Nd121 2.410 . S
O150 C139 1.251 . S
O151 Nd120 2.424 . S
O151 C139 1.268 . S
H152 C124 0.930 . S
H153 C125 0.929 . S
H154 C127 0.930 . S
H155 C128 0.929 . S
H156 C133 0.930 1_655 S
H157 C134 0.929 . S
H158 C136 0.930 . S
H159 C137 0.929 . S
Nd160 C162 2.836 . S
Nd160 O180 2.500 . S
Nd160 O181 2.492 . S
Nd160 O182 2.487 . S
Nd160 O183 2.682 . S
Nd160 O184 2.410 . S
Nd160 O189 2.414 . S
Nd160 O191 2.424 . S
Nd161 C171 2.836 . S
Nd161 O183 2.414 . S
Nd161 O185 2.424 . S
Nd161 O186 2.500 . S
Nd161 O187 2.492 . S
Nd161 O188 2.487 . S
Nd161 O189 2.682 . S
Nd161 O190 2.410 . S
C162 Nd160 2.836 . S
C162 C163 1.498 . S
C162 O180 1.258 . S
C162 O181 1.239 . S
C163 C162 1.498 . S
C163 C164 1.366 . S
C163 C168 1.407 . S
C164 C163 1.366 . S
C164 C165 1.451 . S
C164 H192 0.930 . S
C165 C164 1.451 . S
C165 C166 1.371 1_556 S
C165 H193 0.901 1_556 S
C166 C165 1.371 1_554 S
C166 C167 1.352 1_554 S
C167 C166 1.352 1_556 S
C167 C168 1.384 . S
C167 H194 0.930 . S
C168 C163 1.407 . S
C168 C167 1.384 . S
C168 H195 0.929 . S
C169 O182 1.241 . S
C169 O183 1.273 . S
C170 O184 1.251 . S
C170 O185 1.268 . S
C171 Nd161 2.836 . S
C171 C172 1.498 . S
C171 O186 1.258 . S
C171 O187 1.239 . S
C172 C171 1.498 . S
C172 C173 1.366 . S
C172 C177 1.407 . S
C173 C172 1.366 . S
C173 C174 1.392 . S
C173 H196 0.930 . S
C174 C173 1.392 . S
C174 C175 1.398 . S
C174 H197 0.929 . S
C175 C174 1.398 . S
C175 C176 1.352 . S
C176 C175 1.352 . S
C176 C177 1.384 . S
C176 H198 0.930 . S
C177 C172 1.407 . S
C177 C176 1.384 . S
C177 H199 0.929 . S
C178 O188 1.241 . S
C178 O189 1.273 . S
C179 O190 1.251 . S
C179 O191 1.268 . S
O180 Nd160 2.500 . S
O180 C162 1.258 . S
O181 Nd160 2.492 . S
O181 C162 1.239 . S
O182 Nd160 2.487 . S
O182 C169 1.241 . S
O183 Nd160 2.682 . S
O183 Nd161 2.414 . S
O183 C169 1.273 . S
O184 Nd160 2.410 . S
O184 C170 1.251 . S
O185 Nd161 2.424 . S
O185 C170 1.268 . S
O186 Nd161 2.500 . S
O186 C171 1.258 . S
O187 Nd161 2.492 . S
O187 C171 1.239 . S
O188 Nd161 2.487 . S
O188 C178 1.241 . S
O189 Nd160 2.414 . S
O189 Nd161 2.682 . S
O189 C178 1.273 . S
O190 Nd161 2.410 . S
O190 C179 1.251 . S
O191 Nd160 2.424 . S
O191 C179 1.268 . S
H192 C164 0.930 . S
H193 C165 0.901 1_554 S
H194 C167 0.930 . S
H195 C168 0.929 . S
H196 C173 0.930 . S
H197 C174 0.929 . S
H198 C176 0.930 . S
H199 C177 0.929 . S
Nd200 C202 2.836 . S
Nd200 O220 2.500 . S
Nd200 O221 2.492 . S
Nd200 O222 2.487 . S
Nd200 O223 2.682 . S
Nd200 O224 2.410 . S
Nd200 O229 2.414 . S
Nd200 O231 2.424 . S
Nd201 C211 2.836 . S
Nd201 O223 2.414 . S
Nd201 O225 2.424 . S
Nd201 O226 2.500 . S
Nd201 O227 2.492 . S
Nd201 O228 2.487 . S
Nd201 O229 2.682 . S
Nd201 O230 2.410 . S
C202 Nd200 2.836 . S
C202 C203 1.498 . S
C202 O220 1.258 . S
C202 O221 1.239 . S
C203 C202 1.498 . S
C203 C204 1.366 . S
C203 C208 1.407 . S
C204 C203 1.366 . S
C204 C205 1.392 . S
C204 H232 0.930 . S
C205 C204 1.392 . S
C205 C206 1.398 . S
C205 H233 0.929 . S
C206 C205 1.398 . S
C206 C207 1.352 . S
C207 C206 1.352 . S
C207 C208 1.384 . S
C207 H234 0.930 . S
C208 C203 1.407 . S
C208 C207 1.384 . S
C208 H235 0.929 . S
C209 O222 1.241 . S
C209 O223 1.273 . S
C210 O224 1.251 . S
C210 O225 1.268 . S
C211 Nd201 2.836 . S
C211 C212 1.498 . S
C211 O226 1.258 . S
C211 O227 1.239 . S
C212 C211 1.498 . S
C212 C213 1.366 . S
C212 C217 1.407 . S
C213 C212 1.366 . S
C213 C214 1.392 . S
C213 H236 0.930 . S
C214 C213 1.392 . S
C214 C215 1.398 . S
C214 H237 0.929 . S
C215 C214 1.398 . S
C215 C216 1.352 . S
C216 C215 1.352 . S
C216 C217 1.384 . S
C216 H238 0.930 . S
C217 C212 1.407 . S
C217 C216 1.384 . S
C217 H239 0.929 . S
C218 O228 1.241 . S
C218 O229 1.273 . S
C219 O230 1.251 . S
C219 O231 1.268 . S
O220 Nd200 2.500 . S
O220 C202 1.258 . S
O221 Nd200 2.492 . S
O221 C202 1.239 . S
O222 Nd200 2.487 . S
O222 C209 1.241 . S
O223 Nd200 2.682 . S
O223 Nd201 2.414 . S
O223 C209 1.273 . S
O224 Nd200 2.410 . S
O224 C210 1.251 . S
O225 Nd201 2.424 . S
O225 C210 1.268 . S
O226 Nd201 2.500 . S
O226 C211 1.258 . S
O227 Nd201 2.492 . S
O227 C211 1.239 . S
O228 Nd201 2.487 . S
O228 C218 1.241 . S
O229 Nd200 2.414 . S
O229 Nd201 2.682 . S
O229 C218 1.273 . S
O230 Nd201 2.410 . S
O230 C219 1.251 . S
O231 Nd200 2.424 . S
O231 C219 1.268 . S
H232 C204 0.930 . S
H233 C205 0.929 . S
H234 C207 0.930 . S
H235 C208 0.929 . S
H236 C213 0.930 . S
H237 C214 0.929 . S
H238 C216 0.930 . S
H239 C217 0.929 . S
Nd240 C242 2.836 . S
Nd240 O260 2.500 . S
Nd240 O261 2.492 . S
Nd240 O262 2.487 . S
Nd240 O263 2.682 . S
Nd240 O264 2.410 . S
Nd240 O269 2.414 . S
Nd240 O271 2.424 . S
Nd241 C251 2.836 . S
Nd241 O263 2.414 . S
Nd241 O265 2.424 . S
Nd241 O266 2.500 . S
Nd241 O267 2.492 . S
Nd241 O268 2.487 . S
Nd241 O269 2.682 . S
Nd241 O270 2.410 . S
C242 Nd240 2.836 . S
C242 C243 1.498 . S
C242 O260 1.258 . S
C242 O261 1.239 . S
C243 C242 1.498 . S
C243 C244 1.366 . S
C243 C248 1.407 . S
C244 C243 1.366 . S
C244 C245 1.392 . S
C244 H272 0.930 . S
C245 C244 1.392 . S
C245 C246 1.398 . S
C245 H273 0.929 . S
C246 C245 1.398 . S
C246 C247 1.352 . S
C247 C246 1.352 . S
C247 C248 1.384 . S
C247 H274 0.930 . S
C248 C243 1.407 . S
C248 C247 1.384 . S
C248 H275 0.929 . S
C249 O262 1.241 . S
C249 O263 1.273 . S
C250 O264 1.251 . S
C250 O265 1.268 . S
C251 Nd241 2.836 . S
C251 C252 1.498 . S
C251 O266 1.258 . S
C251 O267 1.239 . S
C252 C251 1.498 . S
C252 C253 1.366 . S
C252 C257 1.407 . S
C253 C252 1.366 . S
C253 C254 1.392 . S
C253 H276 0.930 . S
C254 C253 1.392 . S
C254 C255 1.398 . S
C254 H277 0.929 . S
C255 C254 1.398 . S
C255 C256 1.352 . S
C256 C255 1.352 . S
C256 C257 1.384 . S
C256 H278 0.930 . S
C257 C252 1.407 . S
C257 C256 1.384 . S
C257 H279 0.929 . S
C258 O268 1.241 . S
C258 O269 1.273 . S
C259 O270 1.251 . S
C259 O271 1.268 . S
O260 Nd240 2.500 . S
O260 C242 1.258 . S
O261 Nd240 2.492 . S
O261 C242 1.239 . S
O262 Nd240 2.487 . S
O262 C249 1.241 . S
O263 Nd240 2.682 . S
O263 Nd241 2.414 . S
O263 C249 1.273 . S
O264 Nd240 2.410 . S
O264 C250 1.251 . S
O265 Nd241 2.424 . S
O265 C250 1.268 . S
O266 Nd241 2.500 . S
O266 C251 1.258 . S
O267 Nd241 2.492 . S
O267 C251 1.239 . S
O268 Nd241 2.487 . S
O268 C258 1.241 . S
O269 Nd240 2.414 . S
O269 Nd241 2.682 . S
O269 C258 1.273 . S
O270 Nd241 2.410 . S
O270 C259 1.251 . S
O271 Nd240 2.424 . S
O271 C259 1.268 . S
H272 C244 0.930 . S
H273 C245 0.929 . S
H274 C247 0.930 . S
H275 C248 0.929 . S
H276 C253 0.930 . S
H277 C254 0.929 . S
H278 C256 0.930 . S
H279 C257 0.929 . S
Nd280 C282 2.836 1_455 S
Nd280 O300 2.500 . S
Nd280 O301 2.492 1_455 S
Nd280 O302 2.493 . S
Nd280 O303 2.682 . S
Nd280 O304 2.410 . S
Nd280 O309 2.414 . S
Nd280 O311 2.424 . S
Nd281 C291 2.836 . S
Nd281 O303 2.414 . S
Nd281 O305 2.424 . S
Nd281 O306 2.500 . S
Nd281 O307 2.492 . S
Nd281 O308 2.487 . S
Nd281 O309 2.682 . S
Nd281 O310 2.410 . S
C282 Nd280 2.836 1_655 S
C282 C283 1.498 . S
C282 O300 1.258 1_655 S
C282 O301 1.239 . S
C283 C282 1.498 . S
C283 C284 1.366 . S
C283 C288 1.407 . S
C284 C283 1.366 . S
C284 C285 1.392 . S
C284 H312 0.930 1_655 S
C285 C284 1.392 . S
C285 C286 1.398 . S
C285 H313 0.929 . S
C286 C285 1.398 . S
C286 C287 1.352 . S
C287 C286 1.352 . S
C287 C288 1.384 . S
C287 H314 0.930 . S
C288 C283 1.407 . S
C288 C287 1.384 . S
C288 H315 0.929 . S
C289 O302 1.260 . S
C289 O303 1.273 . S
C290 O304 1.251 . S
C290 O305 1.268 . S
C291 Nd281 2.836 . S
C291 C292 1.498 . S
C291 O306 1.258 . S
C291 O307 1.239 . S
C292 C291 1.498 . S
C292 C293 1.366 . S
C292 C297 1.407 . S
C293 C292 1.366 . S
C293 C294 1.392 . S
C293 H316 0.930 . S
C294 C293 1.392 . S
C294 C295 1.398 . S
C294 H317 0.929 . S
C295 C294 1.398 . S
C295 C296 1.352 . S
C296 C295 1.352 . S
C296 C297 1.384 . S
C296 H318 0.930 . S
C297 C292 1.407 . S
C297 C296 1.384 . S
C297 H319 0.929 . S
C298 O308 1.241 . S
C298 O309 1.273 . S
C299 O310 1.251 . S
C299 O311 1.268 . S
O300 Nd280 2.500 . S
O300 C282 1.258 1_455 S
O301 Nd280 2.492 1_655 S
O301 C282 1.239 . S
O302 Nd280 2.493 . S
O302 C289 1.260 . S
O303 Nd280 2.682 . S
O303 Nd281 2.414 . S
O303 C289 1.273 . S
O304 Nd280 2.410 . S
O304 C290 1.251 . S
O305 Nd281 2.424 . S
O305 C290 1.268 . S
O306 Nd281 2.500 . S
O306 C291 1.258 . S
O307 Nd281 2.492 . S
O307 C291 1.239 . S
O308 Nd281 2.487 . S
O308 C298 1.241 . S
O309 Nd280 2.414 . S
O309 Nd281 2.682 . S
O309 C298 1.273 . S
O310 Nd281 2.410 . S
O310 C299 1.251 . S
O311 Nd280 2.424 . S
O311 C299 1.268 . S
H312 C284 0.930 1_455 S
H313 C285 0.929 . S
H314 C287 0.930 . S
H315 C288 0.929 . S
H316 C293 0.930 . S
H317 C294 0.929 . S
H318 C296 0.930 . S
H319 C297 0.929 . S
Nd320 C322 2.836 . S
Nd320 O340 2.500 . S
Nd320 O341 2.492 . S
Nd320 O342 2.487 . S
Nd320 O343 2.682 . S
Nd320 O344 2.410 . S
Nd320 O349 2.414 . S
Nd320 O351 2.424 . S
Nd321 C331 2.836 . S
Nd321 O343 2.414 . S
Nd321 O345 2.424 . S
Nd321 O346 2.500 . S
Nd321 O347 2.492 . S
Nd321 O348 2.487 . S
Nd321 O349 2.682 . S
Nd321 O350 2.410 . S
C322 Nd320 2.836 . S
C322 C323 1.498 . S
C322 O340 1.258 . S
C322 O341 1.239 . S
C323 C322 1.498 . S
C323 C324 1.366 . S
C323 C328 1.407 . S
C324 C323 1.366 . S
C324 C325 1.392 . S
C324 H352 0.930 . S
C325 C324 1.392 . S
C325 C326 1.398 . S
C325 H353 0.929 . S
C326 C325 1.398 . S
C326 C327 1.352 . S
C327 C326 1.352 . S
C327 C328 1.384 . S
C327 H354 0.930 . S
C328 C323 1.407 . S
C328 C327 1.384 . S
C328 H355 0.929 . S
C329 O342 1.241 . S
C329 O343 1.273 . S
C330 O344 1.251 . S
C330 O345 1.268 . S
C331 Nd321 2.836 . S
C331 C332 1.498 . S
C331 O346 1.258 . S
C331 O347 1.239 . S
C332 C331 1.498 . S
C332 C333 1.366 . S
C332 C337 1.407 . S
C333 C332 1.366 . S
C333 C334 1.392 . S
C333 H356 0.930 . S
C334 C333 1.392 . S
C334 C335 1.398 . S
C334 H357 0.929 . S
C335 C334 1.398 . S
C335 C336 1.352 . S
C336 C335 1.352 . S
C336 C337 1.384 . S
C336 H358 0.930 . S
C337 C332 1.407 . S
C337 C336 1.384 . S
C337 H359 0.929 . S
C338 O348 1.241 . S
C338 O349 1.273 . S
C339 O350 1.251 . S
C339 O351 1.268 . S
O340 Nd320 2.500 . S
O340 C322 1.258 . S
O341 Nd320 2.492 . S
O341 C322 1.239 . S
O342 Nd320 2.487 . S
O342 C329 1.241 . S
O343 Nd320 2.682 . S
O343 Nd321 2.414 . S
O343 C329 1.273 . S
O344 Nd320 2.410 . S
O344 C330 1.251 . S
O345 Nd321 2.424 . S
O345 C330 1.268 . S
O346 Nd321 2.500 . S
O346 C331 1.258 . S
O347 Nd321 2.492 . S
O347 C331 1.239 . S
O348 Nd321 2.487 . S
O348 C338 1.241 . S
O349 Nd320 2.414 . S
O349 Nd321 2.682 . S
O349 C338 1.273 . S
O350 Nd321 2.410 . S
O350 C339 1.251 . S
O351 Nd320 2.424 . S
O351 C339 1.268 . S
H352 C324 0.930 . S
H353 C325 0.929 . S
H354 C327 0.930 . S
H355 C328 0.929 . S
H356 C333 0.930 . S
H357 C334 0.929 . S
H358 C336 0.930 . S
H359 C337 0.929 . S
Nd360 C362 2.836 . S
Nd360 O380 2.500 . S
Nd360 O381 2.492 . S
Nd360 O382 2.487 . S
Nd360 O383 2.682 . S
Nd360 O384 2.410 . S
Nd360 O389 2.414 . S
Nd360 O391 2.424 . S
Nd361 C371 2.836 . S
Nd361 O383 2.414 . S
Nd361 O385 2.424 . S
Nd361 O386 2.500 . S
Nd361 O387 2.492 . S
Nd361 O388 2.487 1_545 S
Nd361 O389 2.682 . S
Nd361 O390 2.410 . S
C362 Nd360 2.836 . S
C362 C363 1.498 . S
C362 O380 1.258 . S
C362 O381 1.239 . S
C363 C362 1.498 . S
C363 C364 1.366 . S
C363 C368 1.407 . S
C364 C363 1.366 . S
C364 C365 1.392 . S
C364 H392 0.930 . S
C365 C364 1.392 . S
C365 C366 1.398 . S
C365 H393 0.929 . S
C366 C365 1.398 . S
C366 C367 1.352 . S
C367 C366 1.352 . S
C367 C368 1.384 . S
C367 H394 0.930 . S
C368 C363 1.407 . S
C368 C367 1.384 . S
C368 H395 0.929 . S
C369 O382 1.241 . S
C369 O383 1.273 . S
C370 O384 1.251 . S
C370 O385 1.268 . S
C371 Nd361 2.836 . S
C371 C372 1.498 . S
C371 O386 1.258 . S
C371 O387 1.239 . S
C372 C371 1.498 . S
C372 C373 1.366 . S
C372 C377 1.407 . S
C373 C372 1.366 . S
C373 C374 1.392 . S
C373 H396 0.930 . S
C374 C373 1.392 . S
C374 C375 1.398 . S
C374 H397 0.929 . S
C375 C374 1.398 . S
C375 C376 1.352 . S
C376 C375 1.352 . S
C376 C377 1.384 . S
C376 H398 0.930 1_545 S
C377 C372 1.407 . S
C377 C376 1.384 . S
C377 H399 0.929 1_545 S
C378 O388 1.241 . S
C378 O389 1.273 1_565 S
C379 O390 1.251 . S
C379 O391 1.268 . S
O380 Nd360 2.500 . S
O380 C362 1.258 . S
O381 Nd360 2.492 . S
O381 C362 1.239 . S
O382 Nd360 2.487 . S
O382 C369 1.241 . S
O383 Nd360 2.682 . S
O383 Nd361 2.414 . S
O383 C369 1.273 . S
O384 Nd360 2.410 . S
O384 C370 1.251 . S
O385 Nd361 2.424 . S
O385 C370 1.268 . S
O386 Nd361 2.500 . S
O386 C371 1.258 . S
O387 Nd361 2.492 . S
O387 C371 1.239 . S
O388 Nd361 2.487 1_565 S
O388 C378 1.241 . S
O389 Nd360 2.414 . S
O389 Nd361 2.682 . S
O389 C378 1.273 1_545 S
O390 Nd361 2.410 . S
O390 C379 1.251 . S
O391 Nd360 2.424 . S
O391 C379 1.268 . S
H392 C364 0.930 . S
H393 C365 0.929 . S
H394 C367 0.930 . S
H395 C368 0.929 . S
H396 C373 0.930 . S
H397 C374 0.929 . S
H398 C376 0.930 1_565 S
H399 C377 0.929 1_565 S
Nd400 C402 2.836 . S
Nd400 O420 2.500 . S
Nd400 O421 2.492 . S
Nd400 O422 2.487 . S
Nd400 O423 2.682 . S
Nd400 O424 2.410 . S
Nd400 O429 2.414 . S
Nd400 O431 2.424 . S
Nd401 C411 2.836 . S
Nd401 O423 2.414 . S
Nd401 O425 2.424 . S
Nd401 O426 2.500 . S
Nd401 O427 2.492 . S
Nd401 O428 2.487 . S
Nd401 O429 2.682 . S
Nd401 O430 2.410 . S
C402 Nd400 2.836 . S
C402 C403 1.498 . S
C402 O420 1.258 . S
C402 O421 1.239 . S
C403 C402 1.498 . S
C403 C404 1.366 . S
C403 C408 1.407 . S
C404 C403 1.366 . S
C404 C405 1.392 . S
C404 H432 0.930 . S
C405 C404 1.392 . S
C405 C406 1.398 . S
C405 H433 0.929 . S
C406 C405 1.398 . S
C406 C407 1.352 . S
C407 C406 1.352 . S
C407 C408 1.384 . S
C407 H434 0.930 . S
C408 C403 1.407 . S
C408 C407 1.384 . S
C408 H435 0.929 . S
C409 O422 1.241 . S
C409 O423 1.273 . S
C410 O424 1.251 . S
C410 O425 1.268 . S
C411 Nd401 2.836 . S
C411 C412 1.498 . S
C411 O426 1.258 . S
C411 O427 1.239 . S
C412 C411 1.498 . S
C412 C413 1.366 1_554 S
C412 C417 1.407 1_554 S
C413 C412 1.366 1_556 S
C413 C414 1.392 . S
C413 H436 0.937 . S
C414 C413 1.392 . S
C414 C415 1.398 . S
C414 H437 0.929 . S
C415 C414 1.398 . S
C415 C416 1.352 . S
C416 C415 1.352 . S
C416 C417 1.384 . S
C416 H438 0.930 . S
C417 C412 1.407 1_556 S
C417 C416 1.384 . S
C417 H439 0.929 . S
C418 O428 1.241 . S
C418 O429 1.273 . S
C419 O430 1.251 . S
C419 O431 1.268 . S
O420 Nd400 2.500 . S
O420 C402 1.258 . S
O421 Nd400 2.492 . S
O421 C402 1.239 . S
O422 Nd400 2.487 . S
O422 C409 1.241 . S
O423 Nd400 2.682 . S
O423 Nd401 2.414 . S
O423 C409 1.273 . S
O424 Nd400 2.410 . S
O424 C410 1.251 . S
O425 Nd401 2.424 . S
O425 C410 1.268 . S
O426 Nd401 2.500 . S
O426 C411 1.258 . S
O427 Nd401 2.492 . S
O427 C411 1.239 . S
O428 Nd401 2.487 . S
O428 C418 1.241 . S
O429 Nd400 2.414 . S
O429 Nd401 2.682 . S
O429 C418 1.273 . S
O430 Nd401 2.410 . S
O430 C419 1.251 . S
O431 Nd400 2.424 . S
O431 C419 1.268 . S
H432 C404 0.930 . S
H433 C405 0.929 . S
H434 C407 0.930 . S
H435 C408 0.929 . S
H436 C413 0.937 . S
H437 C414 0.929 . S
H438 C416 0.930 . S
H439 C417 0.929 . S
Nd440 C442 2.836 . S
Nd440 O460 2.500 . S
Nd440 O461 2.492 . S
Nd440 O462 2.487 1_565 S
Nd440 O463 2.682 1_565 S
Nd440 O464 2.410 . S
Nd440 O469 2.414 . S
Nd440 O471 2.424 . S
Nd441 C451 2.836 1_565 S
Nd441 O463 2.414 1_565 S
Nd441 O465 2.421 . S
Nd441 O466 2.500 1_565 S
Nd441 O467 2.492 . S
Nd441 O468 2.487 . S
Nd441 O469 2.682 . S
Nd441 O470 2.410 . S
C442 Nd440 2.836 . S
C442 C443 1.498 . S
C442 O460 1.258 . S
C442 O461 1.239 . S
C443 C442 1.498 . S
C443 C444 1.366 . S
C443 C448 1.407 . S
C444 C443 1.366 . S
C444 C445 1.392 . S
C444 H472 0.930 . S
C445 C444 1.392 . S
C445 C446 1.398 . S
C445 H473 0.929 . S
C446 C445 1.398 . S
C446 C447 1.352 . S
C447 C446 1.352 . S
C447 C448 1.384 . S
C447 H474 0.930 . S
C448 C443 1.407 . S
C448 C447 1.384 . S
C448 H475 0.929 . S
C449 O462 1.241 . S
C449 O463 1.273 . S
C450 O464 1.251 . S
C450 O465 1.277 . S
C451 Nd441 2.836 1_545 S
C451 C452 1.498 . S
C451 O466 1.258 . S
C451 O467 1.239 1_545 S
C452 C451 1.498 . S
C452 C453 1.366 . S
C452 C457 1.407 . S
C453 C452 1.366 . S
C453 C454 1.392 . S
C453 H476 0.930 . S
C454 C453 1.392 . S
C454 C455 1.398 . S
C454 H477 0.929 . S
C455 C454 1.398 . S
C455 C456 1.352 . S
C456 C455 1.352 . S
C456 C457 1.384 . S
C456 H478 0.930 . S
C457 C452 1.407 . S
C457 C456 1.384 . S
C457 H479 0.929 1_545 S
C458 O468 1.241 . S
C458 O469 1.273 . S
C459 O470 1.251 . S
C459 O471 1.268 . S
O460 Nd440 2.500 . S
O460 C442 1.258 . S
O461 Nd440 2.492 . S
O461 C442 1.239 . S
O462 Nd440 2.487 1_545 S
O462 C449 1.241 . S
O463 Nd440 2.682 1_545 S
O463 Nd441 2.414 1_545 S
O463 C449 1.273 . S
O464 Nd440 2.410 . S
O464 C450 1.251 . S
O465 Nd441 2.421 . S
O465 C450 1.277 . S
O466 Nd441 2.500 1_545 S
O466 C451 1.258 . S
O467 Nd441 2.492 . S
O467 C451 1.239 1_565 S
O468 Nd441 2.487 . S
O468 C458 1.241 . S
O469 Nd440 2.414 . S
O469 Nd441 2.682 . S
O469 C458 1.273 . S
O470 Nd441 2.410 . S
O470 C459 1.251 . S
O471 Nd440 2.424 . S
O471 C459 1.268 . S
H472 C444 0.930 . S
H473 C445 0.929 . S
H474 C447 0.930 . S
H475 C448 0.929 . S
H476 C453 0.930 . S
H477 C454 0.929 . S
H478 C456 0.930 . S
H479 C457 0.929 1_565 S
Nd480 C482 2.836 . S
Nd480 O500 2.500 . S
Nd480 O501 2.492 . S
Nd480 O502 2.487 . S
Nd480 O503 2.682 . S
Nd480 O504 2.410 . S
Nd480 O509 2.414 . S
Nd480 O511 2.424 . S
Nd481 C491 2.836 . S
Nd481 O503 2.414 . S
Nd481 O505 2.424 . S
Nd481 O506 2.500 . S
Nd481 O507 2.492 . S
Nd481 O508 2.487 . S
Nd481 O509 2.682 . S
Nd481 O510 2.410 . S
C482 Nd480 2.836 . S
C482 C483 1.498 . S
C482 O500 1.258 . S
C482 O501 1.239 . S
C483 C482 1.498 . S
C483 C484 1.366 . S
C483 C488 1.407 . S
C484 C483 1.366 . S
C484 C485 1.392 . S
C484 H512 0.930 . S
C485 C484 1.392 . S
C485 C486 1.398 . S
C485 H513 0.929 . S
C486 C485 1.398 . S
C486 C487 1.352 . S
C487 C486 1.352 . S
C487 C488 1.384 . S
C487 H514 0.930 . S
C488 C483 1.407 . S
C488 C487 1.384 . S
C488 H515 0.929 . S
C489 O502 1.241 . S
C489 O503 1.273 . S
C490 O504 1.251 . S
C490 O505 1.268 . S
C491 Nd481 2.836 . S
C491 C492 1.498 . S
C491 O506 1.258 . S
C491 O507 1.239 . S
C492 C491 1.498 . S
C492 C493 1.366 . S
C492 C497 1.407 . S
C493 C492 1.366 . S
C493 C494 1.392 . S
C493 H516 0.930 . S
C494 C493 1.392 . S
C494 C495 1.398 . S
C494 H517 0.929 . S
C495 C494 1.398 . S
C495 C496 1.352 . S
C496 C495 1.352 . S
C496 C497 1.384 . S
C496 H518 0.930 . S
C497 C492 1.407 . S
C497 C496 1.384 . S
C497 H519 0.929 . S
C498 O508 1.241 . S
C498 O509 1.273 . S
C499 O510 1.251 . S
C499 O511 1.268 . S
O500 Nd480 2.500 . S
O500 C482 1.258 . S
O501 Nd480 2.492 . S
O501 C482 1.239 . S
O502 Nd480 2.487 . S
O502 C489 1.241 . S
O503 Nd480 2.682 . S
O503 Nd481 2.414 . S
O503 C489 1.273 . S
O504 Nd480 2.410 . S
O504 C490 1.251 . S
O505 Nd481 2.424 . S
O505 C490 1.268 . S
O506 Nd481 2.500 . S
O506 C491 1.258 . S
O507 Nd481 2.492 . S
O507 C491 1.239 . S
O508 Nd481 2.487 . S
O508 C498 1.241 . S
O509 Nd480 2.414 . S
O509 Nd481 2.682 . S
O509 C498 1.273 . S
O510 Nd481 2.410 . S
O510 C499 1.251 . S
O511 Nd480 2.424 . S
O511 C499 1.268 . S
H512 C484 0.930 . S
H513 C485 0.929 . S
H514 C487 0.930 . S
H515 C488 0.929 . S
H516 C493 0.930 . S
H517 C494 0.929 . S
H518 C496 0.930 . S
H519 C497 0.929 . S
Nd520 C522 2.836 . S
Nd520 O540 2.500 . S
Nd520 O541 2.492 . S
Nd520 O542 2.487 1_565 S
Nd520 O543 2.682 . S
Nd520 O544 2.410 . S
Nd520 O549 2.414 . S
Nd520 O551 2.424 . S
Nd521 C531 2.836 . S
Nd521 O543 2.414 . S
Nd521 O545 2.424 . S
Nd521 O546 2.500 . S
Nd521 O547 2.492 . S
Nd521 O548 2.487 . S
Nd521 O549 2.682 . S
Nd521 O550 2.410 . S
C522 Nd520 2.836 . S
C522 C523 1.498 . S
C522 O540 1.258 . S
C522 O541 1.239 . S
C523 C522 1.498 . S
C523 C524 1.366 . S
C523 C528 1.407 . S
C524 C523 1.366 . S
C524 C525 1.392 . S
C524 H552 0.930 . S
C525 C524 1.392 . S
C525 C526 1.398 . S
C525 H553 0.929 . S
C526 C525 1.398 . S
C526 C527 1.352 . S
C527 C526 1.352 . S
C527 C528 1.384 . S
C527 H554 0.930 1_565 S
C528 C523 1.407 . S
C528 C527 1.384 . S
C528 H555 0.929 1_565 S
C529 O542 1.241 . S
C529 O543 1.273 1_545 S
C530 O544 1.251 . S
C530 O545 1.268 . S
C531 Nd521 2.836 . S
C531 C532 1.498 . S
C531 O546 1.258 . S
C531 O547 1.239 . S
C532 C531 1.498 . S
C532 C533 1.366 . S
C532 C537 1.407 . S
C533 C532 1.366 . S
C533 C534 1.392 . S
C533 H556 0.930 . S
C534 C533 1.392 . S
C534 C535 1.398 . S
C534 H557 0.929 . S
C535 C534 1.398 . S
C535 C536 1.352 . S
C536 C535 1.352 . S
C536 C537 1.384 . S
C536 H558 0.930 . S
C537 C532 1.407 . S
C537 C536 1.384 . S
C537 H559 0.929 . S
C538 O548 1.241 . S
C538 O549 1.273 . S
C539 O550 1.251 . S
C539 O551 1.268 . S
O540 Nd520 2.500 . S
O540 C522 1.258 . S
O541 Nd520 2.492 . S
O541 C522 1.239 . S
O542 Nd520 2.487 1_545 S
O542 C529 1.241 . S
O543 Nd520 2.682 . S
O543 Nd521 2.414 . S
O543 C529 1.273 1_565 S
O544 Nd520 2.410 . S
O544 C530 1.251 . S
O545 Nd521 2.424 . S
O545 C530 1.268 . S
O546 Nd521 2.500 . S
O546 C531 1.258 . S
O547 Nd521 2.492 . S
O547 C531 1.239 . S
O548 Nd521 2.487 . S
O548 C538 1.241 . S
O549 Nd520 2.414 . S
O549 Nd521 2.682 . S
O549 C538 1.273 . S
O550 Nd521 2.410 . S
O550 C539 1.251 . S
O551 Nd520 2.424 . S
O551 C539 1.268 . S
H552 C524 0.930 . S
H553 C525 0.929 . S
H554 C527 0.930 1_545 S
H555 C528 0.929 1_545 S
H556 C533 0.930 . S
H557 C534 0.929 . S
H558 C536 0.930 . S
H559 C537 0.929 . S
Nd560 C562 2.836 . S
Nd560 O580 2.500 . S
Nd560 O581 2.492 . S
Nd560 O582 2.487 . S
Nd560 O583 2.682 . S
Nd560 O584 2.410 . S
Nd560 O589 2.414 . S
Nd560 O591 2.424 . S
Nd561 C571 2.836 . S
Nd561 O583 2.414 . S
Nd561 O585 2.424 . S
Nd561 O586 2.500 . S
Nd561 O587 2.492 . S
Nd561 O588 2.487 . S
Nd561 O589 2.682 . S
Nd561 O590 2.410 . S
C562 Nd560 2.836 . S
C562 C563 1.498 . S
C562 O580 1.258 . S
C562 O581 1.239 . S
C563 C562 1.498 . S
C563 C564 1.366 1_556 S
C563 C568 1.407 1_556 S
C564 C563 1.366 1_554 S
C564 C565 1.392 . S
C564 H592 0.937 . S
C565 C564 1.392 . S
C565 C566 1.398 . S
C565 H593 0.929 . S
C566 C565 1.398 . S
C566 C567 1.352 . S
C567 C566 1.352 . S
C567 C568 1.384 . S
C567 H594 0.930 . S
C568 C563 1.407 1_554 S
C568 C567 1.384 . S
C568 H595 0.929 . S
C569 O582 1.241 . S
C569 O583 1.273 . S
C570 O584 1.251 . S
C570 O585 1.268 . S
C571 Nd561 2.836 . S
C571 C572 1.498 . S
C571 O586 1.258 . S
C571 O587 1.239 . S
C572 C571 1.498 . S
C572 C573 1.366 . S
C572 C577 1.407 . S
C573 C572 1.366 . S
C573 C574 1.392 . S
C573 H596 0.930 . S
C574 C573 1.392 . S
C574 C575 1.398 . S
C574 H597 0.929 . S
C575 C574 1.398 . S
C575 C576 1.352 . S
C576 C575 1.352 . S
C576 C577 1.384 . S
C576 H598 0.930 . S
C577 C572 1.407 . S
C577 C576 1.384 . S
C577 H599 0.929 . S
C578 O588 1.241 . S
C578 O589 1.273 . S
C579 O590 1.251 . S
C579 O591 1.268 . S
O580 Nd560 2.500 . S
O580 C562 1.258 . S
O581 Nd560 2.492 . S
O581 C562 1.239 . S
O582 Nd560 2.487 . S
O582 C569 1.241 . S
O583 Nd560 2.682 . S
O583 Nd561 2.414 . S
O583 C569 1.273 . S
O584 Nd560 2.410 . S
O584 C570 1.251 . S
O585 Nd561 2.424 . S
O585 C570 1.268 . S
O586 Nd561 2.500 . S
O586 C571 1.258 . S
O587 Nd561 2.492 . S
O587 C571 1.239 . S
O588 Nd561 2.487 . S
O588 C578 1.241 . S
O589 Nd560 2.414 . S
O589 Nd561 2.682 . S
O589 C578 1.273 . S
O590 Nd561 2.410 . S
O590 C579 1.251 . S
O591 Nd560 2.424 . S
O591 C579 1.268 . S
H592 C564 0.937 . S
H593 C565 0.929 . S
H594 C567 0.930 . S
H595 C568 0.929 . S
H596 C573 0.930 . S
H597 C574 0.929 . S
H598 C576 0.930 . S
H599 C577 0.929 . S
Nd600 C602 2.836 1_545 S
Nd600 O620 2.500 1_545 S
Nd600 O621 2.492 . S
Nd600 O622 2.487 . S
Nd600 O623 2.682 . S
Nd600 O624 2.410 . S
Nd600 O629 2.414 1_545 S
Nd600 O631 2.421 . S
Nd601 C611 2.836 . S
Nd601 O623 2.414 . S
Nd601 O625 2.424 . S
Nd601 O626 2.500 . S
Nd601 O627 2.492 . S
Nd601 O628 2.487 1_545 S
Nd601 O629 2.682 1_545 S
Nd601 O630 2.410 . S
C602 Nd600 2.836 1_565 S
C602 C603 1.498 . S
C602 O620 1.258 . S
C602 O621 1.239 1_565 S
C603 C602 1.498 . S
C603 C604 1.366 . S
C603 C608 1.407 . S
C604 C603 1.366 . S
C604 C605 1.392 . S
C604 H632 0.930 . S
C605 C604 1.392 . S
C605 C606 1.398 . S
C605 H633 0.929 . S
C606 C605 1.398 . S
C606 C607 1.352 . S
C607 C606 1.352 . S
C607 C608 1.384 . S
C607 H634 0.930 . S
C608 C603 1.407 . S
C608 C607 1.384 . S
C608 H635 0.929 1_565 S
C609 O622 1.241 . S
C609 O623 1.273 . S
C610 O624 1.251 . S
C610 O625 1.268 . S
C611 Nd601 2.836 . S
C611 C612 1.498 . S
C611 O626 1.258 . S
C611 O627 1.239 . S
C612 C611 1.498 . S
C612 C613 1.366 . S
C612 C617 1.407 . S
C613 C612 1.366 . S
C613 C614 1.392 . S
C613 H636 0.930 . S
C614 C613 1.392 . S
C614 C615 1.398 . S
C614 H637 0.929 . S
C615 C614 1.398 . S
C615 C616 1.352 . S
C616 C615 1.352 . S
C616 C617 1.384 . S
C616 H638 0.930 . S
C617 C612 1.407 . S
C617 C616 1.384 . S
C617 H639 0.929 . S
C618 O628 1.241 . S
C618 O629 1.273 . S
C619 O630 1.251 . S
C619 O631 1.277 . S
O620 Nd600 2.500 1_565 S
O620 C602 1.258 . S
O621 Nd600 2.492 . S
O621 C602 1.239 1_545 S
O622 Nd600 2.487 . S
O622 C609 1.241 . S
O623 Nd600 2.682 . S
O623 Nd601 2.414 . S
O623 C609 1.273 . S
O624 Nd600 2.410 . S
O624 C610 1.251 . S
O625 Nd601 2.424 . S
O625 C610 1.268 . S
O626 Nd601 2.500 . S
O626 C611 1.258 . S
O627 Nd601 2.492 . S
O627 C611 1.239 . S
O628 Nd601 2.487 1_565 S
O628 C618 1.241 . S
O629 Nd600 2.414 1_565 S
O629 Nd601 2.682 1_565 S
O629 C618 1.273 . S
O630 Nd601 2.410 . S
O630 C619 1.251 . S
O631 Nd600 2.421 . S
O631 C619 1.277 . S
H632 C604 0.930 . S
H633 C605 0.929 . S
H634 C607 0.930 . S
H635 C608 0.929 1_545 S
H636 C613 0.930 . S
H637 C614 0.929 . S
H638 C616 0.930 . S
H639 C617 0.929 . S
H640 C648 0.950 . S
H641 C653 0.950 . S
H642 C650 0.950 . S
H643 C652 0.950 . S
H644 C654 0.950 . S
H645 C656 0.950 . S
H646 C658 0.950 . S
H647 C659 0.950 . S
C648 H640 0.950 . S
C648 C649 1.386 . S
C648 C650 1.391 . S
C649 C648 1.386 . S
C649 C653 1.393 . S
C650 H642 0.950 . S
C650 C648 1.391 . S
C650 C651 1.400 . S
C651 C650 1.400 . S
C651 C652 1.398 . S
C651 C657 1.491 . S
C652 H643 0.950 . S
C652 C651 1.398 . S
C652 C653 1.391 . S
C653 H641 0.950 . S
C653 C649 1.393 . S
C653 C652 1.391 . S
C654 H644 0.950 . S
C654 C655 1.386 . S
C654 C656 1.391 . S
C655 C654 1.386 . S
C655 C659 1.393 . S
C656 H645 0.950 . S
C656 C654 1.391 . S
C656 C657 1.400 . S
C657 C651 1.491 . S
C657 C656 1.400 . S
C657 C658 1.398 . S
C658 H646 0.950 . S
C658 C657 1.398 . S
C658 C659 1.391 . S
C659 H647 0.950 . S
C659 C655 1.393 . S
C659 C658 1.391 . S
H660 C668 0.950 . S
H661 C673 0.950 . S
H662 C670 0.950 . S
H663 C672 0.950 . S
H664 C674 0.950 . S
H665 C676 0.950 . S
H666 C678 0.950 . S
H667 C679 0.950 . S
C668 H660 0.950 . S
C668 C669 1.386 . S
C668 C670 1.391 . S
C669 C668 1.386 . S
C669 C673 1.393 . S
C670 H662 0.950 . S
C670 C668 1.391 . S
C670 C671 1.400 . S
C671 C670 1.400 . S
C671 C672 1.398 . S
C671 C677 1.491 . S
C672 H663 0.950 . S
C672 C671 1.398 . S
C672 C673 1.391 . S
C673 H661 0.950 . S
C673 C669 1.393 . S
C673 C672 1.391 . S
C674 H664 0.950 . S
C674 C675 1.386 . S
C674 C676 1.391 . S
C675 C674 1.386 . S
C675 C679 1.393 . S
C676 H665 0.950 . S
C676 C674 1.391 . S
C676 C677 1.400 . S
C677 C671 1.491 . S
C677 C676 1.400 . S
C677 C678 1.398 . S
C678 H666 0.950 . S
C678 C677 1.398 . S
C678 C679 1.391 . S
C679 H667 0.950 . S
C679 C675 1.393 . S
C679 C678 1.391 . S
H680 C688 0.950 . S
H681 C693 0.950 . S
H682 C690 0.959 . S
H683 C692 0.950 . S
H684 C694 0.950 . S
H685 C696 0.948 . S
H686 C698 0.950 . S
H687 C699 0.950 . S
C688 H680 0.950 . S
C688 C689 1.386 . S
C688 C690 1.391 . S
C689 C688 1.386 . S
C689 C693 1.393 . S
C690 H682 0.959 . S
C690 C688 1.391 . S
C690 C691 1.400 . S
C691 C690 1.400 . S
C691 C692 1.398 . S
C691 C697 1.491 1_455 S
C692 H683 0.950 . S
C692 C691 1.398 . S
C692 C693 1.391 . S
C693 H681 0.950 . S
C693 C689 1.393 . S
C693 C692 1.391 . S
C694 H684 0.950 . S
C694 C695 1.386 . S
C694 C696 1.391 . S
C695 C694 1.386 . S
C695 C699 1.393 . S
C696 H685 0.948 . S
C696 C694 1.391 . S
C696 C697 1.400 . S
C697 C691 1.491 1_655 S
C697 C696 1.400 . S
C697 C698 1.398 . S
C698 H686 0.950 . S
C698 C697 1.398 . S
C698 C699 1.391 . S
C699 H687 0.950 . S
C699 C695 1.393 . S
C699 C698 1.391 . S
H700 C708 0.950 . S
H701 C713 0.950 . S
H702 C710 0.950 . S
H703 C712 0.950 1_655 S
H704 C714 0.950 . S
H705 C716 0.950 . S
H706 C718 0.950 . S
H707 C719 0.950 1_455 S
C708 H700 0.950 . S
C708 C709 1.386 . S
C708 C710 1.391 . S
C709 C708 1.386 . S
C709 C713 1.393 . S
C710 H702 0.950 . S
C710 C708 1.391 . S
C710 C711 1.400 . S
C711 C710 1.400 . S
C711 C712 1.398 . S
C711 C717 1.491 1_455 S
C712 H703 0.950 1_455 S
C712 C711 1.398 . S
C712 C713 1.391 . S
C713 H701 0.950 . S
C713 C709 1.393 . S
C713 C712 1.391 . S
C714 H704 0.950 . S
C714 C715 1.386 . S
C714 C716 1.391 . S
C715 C714 1.386 . S
C715 C719 1.393 . S
C716 H705 0.950 . S
C716 C714 1.391 . S
C716 C717 1.400 . S
C717 C711 1.491 1_655 S
C717 C716 1.400 . S
C717 C718 1.398 1_655 S
C718 H706 0.950 . S
C718 C717 1.398 1_455 S
C718 C719 1.391 1_455 S
C719 H707 0.950 1_655 S
C719 C715 1.393 . S
C719 C718 1.391 1_655 S
H720 C728 0.950 . S
H721 C733 0.950 . S
H722 C730 0.950 . S
H723 C732 0.950 . S
H724 C734 0.950 . S
H725 C736 0.950 . S
H726 C738 0.950 . S
H727 C739 0.950 . S
C728 H720 0.950 . S
C728 C729 1.386 . S
C728 C730 1.391 . S
C729 C728 1.386 . S
C729 C733 1.393 . S
C730 H722 0.950 . S
C730 C728 1.391 . S
C730 C731 1.400 . S
C731 C730 1.400 . S
C731 C732 1.398 . S
C731 C737 1.491 . S
C732 H723 0.950 . S
C732 C731 1.398 . S
C732 C733 1.391 . S
C733 H721 0.950 . S
C733 C729 1.393 . S
C733 C732 1.391 . S
C734 H724 0.950 . S
C734 C735 1.386 . S
C734 C736 1.391 . S
C735 C734 1.386 . S
C735 C739 1.393 . S
C736 H725 0.950 . S
C736 C734 1.391 . S
C736 C737 1.400 . S
C737 C731 1.491 . S
C737 C736 1.400 . S
C737 C738 1.398 . S
C738 H726 0.950 . S
C738 C737 1.398 . S
C738 C739 1.391 . S
C739 H727 0.950 . S
C739 C735 1.393 . S
C739 C738 1.391 . S
H740 C748 0.950 . S
H741 C753 0.950 . S
H742 C750 0.950 . S
H743 C752 0.950 . S
H744 C754 0.950 . S
H745 C756 0.950 . S
H746 C758 0.950 . S
H747 C759 0.950 . S
C748 H740 0.950 . S
C748 C749 1.386 . S
C748 C750 1.391 . S
C749 C748 1.386 . S
C749 C753 1.393 . S
C750 H742 0.950 . S
C750 C748 1.391 . S
C750 C751 1.400 . S
C751 C750 1.400 . S
C751 C752 1.398 . S
C751 C757 1.491 . S
C752 H743 0.950 . S
C752 C751 1.398 . S
C752 C753 1.391 . S
C753 H741 0.950 . S
C753 C749 1.393 . S
C753 C752 1.391 . S
C754 H744 0.950 . S
C754 C755 1.386 . S
C754 C756 1.391 . S
C755 C754 1.386 . S
C755 C759 1.393 . S
C756 H745 0.950 . S
C756 C754 1.391 . S
C756 C757 1.400 . S
C757 C751 1.491 . S
C757 C756 1.400 . S
C757 C758 1.398 . S
C758 H746 0.950 . S
C758 C757 1.398 . S
C758 C759 1.391 . S
C759 H747 0.950 . S
C759 C755 1.393 . S
C759 C758 1.391 . S
H760 C768 0.950 . S
H761 C773 0.950 . S
H762 C770 0.950 . S
H763 C772 0.950 1_655 S
H764 C774 0.950 . S
H765 C776 0.950 . S
H766 C778 0.950 1_455 S
H767 C779 0.950 . S
C768 H760 0.950 . S
C768 C769 1.386 . S
C768 C770 1.391 . S
C769 C768 1.386 . S
C769 C773 1.393 . S
C770 H762 0.950 . S
C770 C768 1.391 . S
C770 C771 1.400 . S
C771 C770 1.400 . S
C771 C772 1.398 . S
C771 C777 1.491 1_455 S
C772 H763 0.950 1_455 S
C772 C771 1.398 . S
C772 C773 1.391 . S
C773 H761 0.950 . S
C773 C769 1.393 . S
C773 C772 1.391 . S
C774 H764 0.950 . S
C774 C775 1.386 . S
C774 C776 1.391 . S
C775 C774 1.386 . S
C775 C779 1.393 . S
C776 H765 0.950 . S
C776 C774 1.391 . S
C776 C777 1.400 . S
C777 C771 1.491 1_655 S
C777 C776 1.400 . S
C777 C778 1.398 . S
C778 H766 0.950 1_655 S
C778 C777 1.398 . S
C778 C779 1.391 . S
C779 H767 0.950 . S
C779 C775 1.393 . S
C779 C778 1.391 . S
H780 C788 0.950 . S
H781 C793 0.950 . S
H782 C790 0.950 . S
H783 C792 0.950 . S
H784 C794 0.950 . S
H785 C796 0.950 . S
H786 C798 0.950 . S
H787 C799 0.950 . S
C788 H780 0.950 . S
C788 C789 1.386 . S
C788 C790 1.391 . S
C789 C788 1.386 . S
C789 C793 1.393 . S
C790 H782 0.950 . S
C790 C788 1.391 . S
C790 C791 1.400 1_455 S
C791 C790 1.400 1_655 S
C791 C792 1.398 1_655 S
C791 C797 1.490 . S
C792 H783 0.950 . S
C792 C791 1.398 1_455 S
C792 C793 1.391 . S
C793 H781 0.950 . S
C793 C789 1.393 . S
C793 C792 1.391 . S
C794 H784 0.950 . S
C794 C795 1.386 . S
C794 C796 1.391 . S
C795 C794 1.386 . S
C795 C799 1.393 . S
C796 H785 0.950 . S
C796 C794 1.391 . S
C796 C797 1.400 . S
C797 C791 1.490 . S
C797 C796 1.400 . S
C797 C798 1.398 . S
C798 H786 0.950 . S
C798 C797 1.398 . S
C798 C799 1.391 . S
C799 H787 0.950 . S
C799 C795 1.393 . S
C799 C798 1.391 . S
H800 C808 0.950 . S
H801 C813 0.950 . S
H802 C810 0.950 . S
H803 C812 0.950 . S
H804 C814 0.950 . S
H805 C816 0.950 . S
H806 C818 0.950 . S
H807 C819 0.950 . S
C808 H800 0.950 . S
C808 C809 1.386 1_565 S
C808 C810 1.391 . S
C809 C808 1.386 1_545 S
C809 C813 1.393 . S
C810 H802 0.950 . S
C810 C808 1.391 . S
C810 C811 1.400 1_565 S
C811 C810 1.400 1_545 S
C811 C812 1.398 . S
C811 C817 1.491 1_544 S
C812 H803 0.950 . S
C812 C811 1.398 . S
C812 C813 1.391 . S
C813 H801 0.950 . S
C813 C809 1.393 . S
C813 C812 1.391 . S
C814 H804 0.950 . S
C814 C815 1.386 1_545 S
C814 C816 1.391 . S
C815 C814 1.386 1_565 S
C815 C819 1.393 . S
C816 H805 0.950 . S
C816 C814 1.391 . S
C816 C817 1.400 1_545 S
C817 C811 1.491 1_566 S
C817 C816 1.400 1_565 S
C817 C818 1.398 . S
C818 H806 0.950 . S
C818 C817 1.398 . S
C818 C819 1.391 . S
C819 H807 0.950 . S
C819 C815 1.393 . S
C819 C818 1.391 . S
H820 C828 0.950 . S
H821 C833 0.950 . S
H822 C830 0.950 . S
H823 C832 0.950 . S
H824 C834 0.950 . S
H825 C836 0.950 . S
H826 C838 0.950 . S
H827 C839 0.950 . S
C828 H820 0.950 . S
C828 C829 1.386 . S
C828 C830 1.391 . S
C829 C828 1.386 . S
C829 C833 1.393 . S
C830 H822 0.950 . S
C830 C828 1.391 . S
C830 C831 1.400 . S
C831 C830 1.400 . S
C831 C832 1.398 . S
C831 C837 1.491 . S
C832 H823 0.950 . S
C832 C831 1.398 . S
C832 C833 1.391 . S
C833 H821 0.950 . S
C833 C829 1.393 . S
C833 C832 1.391 . S
C834 H824 0.950 . S
C834 C835 1.386 . S
C834 C836 1.391 . S
C835 C834 1.386 . S
C835 C839 1.393 . S
C836 H825 0.950 . S
C836 C834 1.391 . S
C836 C837 1.400 . S
C837 C831 1.491 . S
C837 C836 1.400 . S
C837 C838 1.398 . S
C838 H826 0.950 . S
C838 C837 1.398 . S
C838 C839 1.391 . S
C839 H827 0.950 . S
C839 C835 1.393 . S
C839 C838 1.391 . S
H840 C848 0.950 1_545 S
H841 C853 0.950 . S
H842 C850 0.950 . S
H843 C852 0.950 1_655 S
H844 C854 0.950 1_565 S
H845 C856 0.950 . S
H846 C858 0.950 1_455 S
H847 C859 0.950 . S
C848 H840 0.950 1_565 S
C848 C849 1.386 . S
C848 C850 1.391 1_565 S
C849 C848 1.386 . S
C849 C853 1.393 . S
C850 H842 0.950 . S
C850 C848 1.391 1_545 S
C850 C851 1.400 1_545 S
C851 C850 1.400 1_565 S
C851 C852 1.398 . S
C851 C857 1.491 1_465 S
C852 H843 0.950 1_455 S
C852 C851 1.398 . S
C852 C853 1.391 . S
C853 H841 0.950 . S
C853 C849 1.393 . S
C853 C852 1.391 . S
C854 H844 0.950 1_545 S
C854 C855 1.386 . S
C854 C856 1.391 1_545 S
C855 C854 1.386 . S
C855 C859 1.393 . S
C856 H845 0.950 . S
C856 C854 1.391 1_565 S
C856 C857 1.400 1_565 S
C857 C851 1.491 1_645 S
C857 C856 1.400 1_545 S
C857 C858 1.398 . S
C858 H846 0.950 1_655 S
C858 C857 1.398 . S
C858 C859 1.391 . S
C859 H847 0.950 . S
C859 C855 1.393 . S
C859 C858 1.391 . S
H860 C868 0.950 . S
H861 C873 0.950 . S
H862 C870 0.950 . S
H863 C872 0.950 . S
H864 C874 0.950 . S
H865 C876 0.950 . S
H866 C878 0.950 . S
H867 C879 0.950 . S
C868 H860 0.950 . S
C868 C869 1.386 . S
C868 C870 1.391 . S
C869 C868 1.386 . S
C869 C873 1.393 . S
C870 H862 0.950 . S
C870 C868 1.391 . S
C870 C871 1.400 . S
C871 C870 1.400 . S
C871 C872 1.398 . S
C871 C877 1.491 . S
C872 H863 0.950 . S
C872 C871 1.398 . S
C872 C873 1.391 . S
C873 H861 0.950 . S
C873 C869 1.393 . S
C873 C872 1.391 . S
C874 H864 0.950 . S
C874 C875 1.386 . S
C874 C876 1.391 . S
C875 C874 1.386 . S
C875 C879 1.393 . S
C876 H865 0.950 . S
C876 C874 1.391 . S
C876 C877 1.400 . S
C877 C871 1.491 . S
C877 C876 1.400 . S
C877 C878 1.398 . S
C878 H866 0.950 . S
C878 C877 1.398 . S
C878 C879 1.391 . S
C879 H867 0.950 . S
C879 C875 1.393 . S
C879 C878 1.391 . S
H880 C888 0.950 . S
H881 C893 0.950 . S
H882 C890 0.950 . S
H883 C892 0.950 . S
H884 C894 0.950 . S
H885 C896 0.950 . S
H886 C898 0.950 . S
H887 C899 0.950 . S
C888 H880 0.950 . S
C888 C889 1.386 . S
C888 C890 1.391 . S
C889 C888 1.386 . S
C889 C893 1.393 . S
C890 H882 0.950 . S
C890 C888 1.391 . S
C890 C891 1.400 . S
C891 C890 1.400 . S
C891 C892 1.398 . S
C891 C897 1.491 . S
C892 H883 0.950 . S
C892 C891 1.398 . S
C892 C893 1.391 . S
C893 H881 0.950 . S
C893 C889 1.393 . S
C893 C892 1.391 . S
C894 H884 0.950 . S
C894 C895 1.386 . S
C894 C896 1.391 . S
C895 C894 1.386 . S
C895 C899 1.393 . S
C896 H885 0.950 . S
C896 C894 1.391 . S
C896 C897 1.400 . S
C897 C891 1.491 . S
C897 C896 1.400 . S
C897 C898 1.398 . S
C898 H886 0.950 . S
C898 C897 1.398 . S
C898 C899 1.391 . S
C899 H887 0.950 . S
C899 C895 1.393 . S
C899 C898 1.391 . S
H900 C908 0.950 . S
H901 C913 0.950 . S
H902 C910 0.950 . S
H903 C912 0.950 . S
H904 C914 0.950 . S
H905 C916 0.950 . S
H906 C918 0.950 . S
H907 C919 0.950 . S
C908 H900 0.950 . S
C908 C909 1.386 . S
C908 C910 1.391 . S
C909 C908 1.386 . S
C909 C913 1.393 . S
C910 H902 0.950 . S
C910 C908 1.391 . S
C910 C911 1.400 . S
C911 C910 1.400 . S
C911 C912 1.398 . S
C911 C917 1.491 . S
C912 H903 0.950 . S
C912 C911 1.398 . S
C912 C913 1.391 . S
C913 H901 0.950 . S
C913 C909 1.393 . S
C913 C912 1.391 . S
C914 H904 0.950 . S
C914 C915 1.386 . S
C914 C916 1.391 . S
C915 C914 1.386 . S
C915 C919 1.393 . S
C916 H905 0.950 . S
C916 C914 1.391 . S
C916 C917 1.400 . S
C917 C911 1.491 . S
C917 C916 1.400 . S
C917 C918 1.398 . S
C918 H906 0.950 . S
C918 C917 1.398 . S
C918 C919 1.391 . S
C919 H907 0.950 . S
C919 C915 1.393 . S
C919 C918 1.391 . S
H920 C928 0.950 . S
H921 C933 0.950 . S
H922 C930 0.950 . S
H923 C932 0.950 . S
H924 C934 0.950 . S
H925 C936 0.950 . S
H926 C938 0.950 . S
H927 C939 0.950 . S
C928 H920 0.950 . S
C928 C929 1.386 . S
C928 C930 1.391 . S
C929 C928 1.386 . S
C929 C933 1.393 . S
C930 H922 0.950 . S
C930 C928 1.391 . S
C930 C931 1.400 . S
C931 C930 1.400 . S
C931 C932 1.398 . S
C931 C937 1.491 1_455 S
C932 H923 0.950 . S
C932 C931 1.398 . S
C932 C933 1.391 . S
C933 H921 0.950 . S
C933 C929 1.393 . S
C933 C932 1.391 . S
C934 H924 0.950 . S
C934 C935 1.386 . S
C934 C936 1.391 . S
C935 C934 1.386 . S
C935 C939 1.393 . S
C936 H925 0.950 . S
C936 C934 1.391 . S
C936 C937 1.400 . S
C937 C931 1.491 1_655 S
C937 C936 1.400 . S
C937 C938 1.398 . S
C938 H926 0.950 . S
C938 C937 1.398 . S
C938 C939 1.391 . S
C939 H927 0.950 . S
C939 C935 1.393 . S
C939 C938 1.391 . S
H940 C948 0.950 . S
H941 C953 0.950 . S
H942 C950 0.950 . S
H943 C952 0.950 . S
H944 C954 0.950 . S
H945 C956 0.950 . S
H946 C958 0.950 . S
H947 C959 0.950 . S
C948 H940 0.950 . S
C948 C949 1.386 . S
C948 C950 1.391 . S
C949 C948 1.386 . S
C949 C953 1.393 . S
C950 H942 0.950 . S
C950 C948 1.391 . S
C950 C951 1.400 . S
C951 C950 1.400 . S
C951 C952 1.398 . S
C951 C957 1.491 1_554 S
C952 H943 0.950 . S
C952 C951 1.398 . S
C952 C953 1.391 . S
C953 H941 0.950 . S
C953 C949 1.393 . S
C953 C952 1.391 . S
C954 H944 0.950 . S
C954 C955 1.386 . S
C954 C956 1.391 . S
C955 C954 1.386 . S
C955 C959 1.393 . S
C956 H945 0.950 . S
C956 C954 1.391 . S
C956 C957 1.400 . S
C957 C951 1.491 1_556 S
C957 C956 1.400 . S
C957 C958 1.398 . S
C958 H946 0.950 . S
C958 C957 1.398 . S
C958 C959 1.391 . S
C959 H947 0.950 . S
C959 C955 1.393 . S
C959 C958 1.391 . S
H960 C968 0.950 . S
H961 C973 0.950 . S
H962 C970 0.950 . S
H963 C972 0.950 . S
H964 C974 0.950 . S
H965 C976 0.950 . S
H966 C978 0.950 . S
H967 C979 0.950 . S
C968 H960 0.950 . S
C968 C969 1.386 . S
C968 C970 1.391 . S
C969 C968 1.386 . S
C969 C973 1.393 . S
C970 H962 0.950 . S
C970 C968 1.391 . S
C970 C971 1.400 . S
C971 C970 1.400 . S
C971 C972 1.398 . S
C971 C977 1.491 . S
C972 H963 0.950 . S
C972 C971 1.398 . S
C972 C973 1.391 . S
C973 H961 0.950 . S
C973 C969 1.393 . S
C973 C972 1.391 . S
C974 H964 0.950 . S
C974 C975 1.386 . S
C974 C976 1.391 . S
C975 C974 1.386 . S
C975 C979 1.393 . S
C976 H965 0.950 . S
C976 C974 1.391 . S
C976 C977 1.400 . S
C977 C971 1.491 . S
C977 C976 1.400 . S
C977 C978 1.398 . S
C978 H966 0.950 . S
C978 C977 1.398 . S
C978 C979 1.391 . S
C979 H967 0.950 . S
C979 C975 1.393 . S
C979 C978 1.391 . S
H980 C988 0.950 . S
H981 C993 0.950 . S
H982 C990 0.950 . S
H983 C992 0.950 . S
H984 C994 0.950 . S
H985 C996 0.950 . S
H986 C998 0.950 . S
H987 C999 0.950 . S
C988 H980 0.950 . S
C988 C989 1.386 . S
C988 C990 1.391 . S
C989 C988 1.386 . S
C989 C993 1.393 . S
C990 H982 0.950 . S
C990 C988 1.391 . S
C990 C991 1.400 . S
C991 C990 1.400 . S
C991 C992 1.398 . S
C991 C997 1.491 . S
C992 H983 0.950 . S
C992 C991 1.398 . S
C992 C993 1.391 . S
C993 H981 0.950 . S
C993 C989 1.393 . S
C993 C992 1.391 . S
C994 H984 0.950 . S
C994 C995 1.386 . S
C994 C996 1.391 . S
C995 C994 1.386 . S
C995 C999 1.393 . S
C996 H985 0.950 . S
C996 C994 1.391 . S
C996 C997 1.400 . S
C997 C991 1.491 . S
C997 C996 1.400 . S
C997 C998 1.398 . S
C998 H986 0.950 . S
C998 C997 1.398 . S
C998 C999 1.391 . S
C999 H987 0.950 . S
C999 C995 1.393 . S
C999 C998 1.391 . S
H1000 C1008 0.950 . S
H1001 C1013 0.950 . S
H1002 C1010 0.950 . S
H1003 C1012 0.950 . S
H1004 C1014 0.950 . S
H1005 C1016 0.950 . S
H1006 C1018 0.950 . S
H1007 C1019 0.950 . S
C1008 H1000 0.950 . S
C1008 C1009 1.386 . S
C1008 C1010 1.391 . S
C1009 C1008 1.386 . S
C1009 C1013 1.393 . S
C1010 H1002 0.950 . S
C1010 C1008 1.391 . S
C1010 C1011 1.400 . S
C1011 C1010 1.400 . S
C1011 C1012 1.398 . S
C1011 C1017 1.491 . S
C1012 H1003 0.950 . S
C1012 C1011 1.398 . S
C1012 C1013 1.391 . S
C1013 H1001 0.950 . S
C1013 C1009 1.393 . S
C1013 C1012 1.391 . S
C1014 H1004 0.950 . S
C1014 C1015 1.386 . S
C1014 C1016 1.391 . S
C1015 C1014 1.386 . S
C1015 C1019 1.393 . S
C1016 H1005 0.950 . S
C1016 C1014 1.391 . S
C1016 C1017 1.400 . S
C1017 C1011 1.491 . S
C1017 C1016 1.400 . S
C1017 C1018 1.398 . S
C1018 H1006 0.950 . S
C1018 C1017 1.398 . S
C1018 C1019 1.391 . S
C1019 H1007 0.950 . S
C1019 C1015 1.393 . S
C1019 C1018 1.391 . S
H1020 C1028 0.950 . S
H1021 C1033 0.950 . S
H1022 C1030 0.950 . S
H1023 C1032 0.950 . S
H1024 C1034 0.950 . S
H1025 C1036 0.950 . S
H1026 C1038 0.950 . S
H1027 C1039 0.950 . S
C1028 H1020 0.950 . S
C1028 C1029 1.386 . S
C1028 C1030 1.391 . S
C1029 C1028 1.386 . S
C1029 C1033 1.393 . S
C1030 H1022 0.950 . S
C1030 C1028 1.391 . S
C1030 C1031 1.400 . S
C1031 C1030 1.400 . S
C1031 C1032 1.398 . S
C1031 C1037 1.491 . S
C1032 H1023 0.950 . S
C1032 C1031 1.398 . S
C1032 C1033 1.391 . S
C1033 H1021 0.950 . S
C1033 C1029 1.393 . S
C1033 C1032 1.391 . S
C1034 H1024 0.950 . S
C1034 C1035 1.386 . S
C1034 C1036 1.391 . S
C1035 C1034 1.386 . S
C1035 C1039 1.393 . S
C1036 H1025 0.950 . S
C1036 C1034 1.391 . S
C1036 C1037 1.400 . S
C1037 C1031 1.491 . S
C1037 C1036 1.400 . S
C1037 C1038 1.398 . S
C1038 H1026 0.950 . S
C1038 C1037 1.398 . S
C1038 C1039 1.391 . S
C1039 H1027 0.950 . S
C1039 C1035 1.393 . S
C1039 C1038 1.391 . S
H1040 C1048 0.950 . S
H1041 C1053 0.950 . S
H1042 C1050 0.950 . S
H1043 C1052 0.950 . S
H1044 C1054 0.950 . S
H1045 C1056 0.950 . S
H1046 C1058 0.950 . S
H1047 C1059 0.950 . S
C1048 H1040 0.950 . S
C1048 C1049 1.386 . S
C1048 C1050 1.391 . S
C1049 C1048 1.386 . S
C1049 C1053 1.393 . S
C1050 H1042 0.950 . S
C1050 C1048 1.391 . S
C1050 C1051 1.400 . S
C1051 C1050 1.400 . S
C1051 C1052 1.398 . S
C1051 C1057 1.491 . S
C1052 H1043 0.950 . S
C1052 C1051 1.398 . S
C1052 C1053 1.391 . S
C1053 H1041 0.950 . S
C1053 C1049 1.393 . S
C1053 C1052 1.391 . S
C1054 H1044 0.950 . S
C1054 C1055 1.386 . S
C1054 C1056 1.391 . S
C1055 C1054 1.386 . S
C1055 C1059 1.393 . S
C1056 H1045 0.950 . S
C1056 C1054 1.391 . S
C1056 C1057 1.400 . S
C1057 C1051 1.491 . S
C1057 C1056 1.400 . S
C1057 C1058 1.398 . S
C1058 H1046 0.950 . S
C1058 C1057 1.398 . S
C1058 C1059 1.391 . S
C1059 H1047 0.950 . S
C1059 C1055 1.393 . S
C1059 C1058 1.391 . S
H1060 C1068 0.950 . S
H1061 C1073 0.950 . S
H1062 C1070 0.950 . S
H1063 C1072 0.950 . S
H1064 C1074 0.950 . S
H1065 C1076 0.950 . S
H1066 C1078 0.950 . S
H1067 C1079 0.950 . S
C1068 H1060 0.950 . S
C1068 C1069 1.386 . S
C1068 C1070 1.391 . S
C1069 C1068 1.386 . S
C1069 C1073 1.393 . S
C1070 H1062 0.950 . S
C1070 C1068 1.391 . S
C1070 C1071 1.400 . S
C1071 C1070 1.400 . S
C1071 C1072 1.398 . S
C1071 C1077 1.491 . S
C1072 H1063 0.950 . S
C1072 C1071 1.398 . S
C1072 C1073 1.391 . S
C1073 H1061 0.950 . S
C1073 C1069 1.393 . S
C1073 C1072 1.391 . S
C1074 H1064 0.950 . S
C1074 C1075 1.386 . S
C1074 C1076 1.391 . S
C1075 C1074 1.386 . S
C1075 C1079 1.393 . S
C1076 H1065 0.950 . S
C1076 C1074 1.391 . S
C1076 C1077 1.400 . S
C1077 C1071 1.491 . S
C1077 C1076 1.400 . S
C1077 C1078 1.398 . S
C1078 H1066 0.950 . S
C1078 C1077 1.398 . S
C1078 C1079 1.391 . S
C1079 H1067 0.950 . S
C1079 C1075 1.393 . S
C1079 C1078 1.391 . S
H1080 C1088 0.950 . S
H1081 C1093 0.950 . S
H1082 C1090 0.950 . S
H1083 C1092 0.950 . S
H1084 C1094 0.950 . S
H1085 C1096 0.950 . S
H1086 C1098 0.950 . S
H1087 C1099 0.950 . S
C1088 H1080 0.950 . S
C1088 C1089 1.386 . S
C1088 C1090 1.391 . S
C1089 C1088 1.386 . S
C1089 C1093 1.393 . S
C1090 H1082 0.950 . S
C1090 C1088 1.391 . S
C1090 C1091 1.400 . S
C1091 C1090 1.400 . S
C1091 C1092 1.398 . S
C1091 C1097 1.491 . S
C1092 H1083 0.950 . S
C1092 C1091 1.398 . S
C1092 C1093 1.391 . S
C1093 H1081 0.950 . S
C1093 C1089 1.393 . S
C1093 C1092 1.391 . S
C1094 H1084 0.950 . S
C1094 C1095 1.386 . S
C1094 C1096 1.391 . S
C1095 C1094 1.386 . S
C1095 C1099 1.393 . S
C1096 H1085 0.950 . S
C1096 C1094 1.391 . S
C1096 C1097 1.400 . S
C1097 C1091 1.491 . S
C1097 C1096 1.400 . S
C1097 C1098 1.398 . S
C1098 H1086 0.950 . S
C1098 C1097 1.398 . S
C1098 C1099 1.391 . S
C1099 H1087 0.950 . S
C1099 C1095 1.393 . S
C1099 C1098 1.391 . S
H1100 C1108 0.950 . S
H1101 C1113 0.950 . S
H1102 C1110 0.950 . S
H1103 C1112 0.950 . S
H1104 C1114 0.950 . S
H1105 C1116 0.950 . S
H1106 C1118 0.950 . S
H1107 C1119 0.950 . S
C1108 H1100 0.950 . S
C1108 C1109 1.386 . S
C1108 C1110 1.391 . S
C1109 C1108 1.386 . S
C1109 C1113 1.393 . S
C1110 H1102 0.950 . S
C1110 C1108 1.391 . S
C1110 C1111 1.400 . S
C1111 C1110 1.400 . S
C1111 C1112 1.398 . S
C1111 C1117 1.491 . S
C1112 H1103 0.950 . S
C1112 C1111 1.398 . S
C1112 C1113 1.391 . S
C1113 H1101 0.950 . S
C1113 C1109 1.393 . S
C1113 C1112 1.391 . S
C1114 H1104 0.950 . S
C1114 C1115 1.386 . S
C1114 C1116 1.391 . S
C1115 C1114 1.386 . S
C1115 C1119 1.393 . S
C1116 H1105 0.950 . S
C1116 C1114 1.391 . S
C1116 C1117 1.400 . S
C1117 C1111 1.491 . S
C1117 C1116 1.400 . S
C1117 C1118 1.398 . S
C1118 H1106 0.950 . S
C1118 C1117 1.398 . S
C1118 C1119 1.391 . S
C1119 H1107 0.950 . S
C1119 C1115 1.393 . S
C1119 C1118 1.391 . S
H1120 C1128 0.950 . S
H1121 C1133 0.950 . S
H1122 C1130 0.950 . S
H1123 C1132 0.950 . S
H1124 C1134 0.950 . S
H1125 C1136 0.950 . S
H1126 C1138 0.950 . S
H1127 C1139 0.950 . S
C1128 H1120 0.950 . S
C1128 C1129 1.386 . S
C1128 C1130 1.391 . S
C1129 C1128 1.386 . S
C1129 C1133 1.393 . S
C1130 H1122 0.950 . S
C1130 C1128 1.391 . S
C1130 C1131 1.400 . S
C1131 C1130 1.400 . S
C1131 C1132 1.398 . S
C1131 C1137 1.491 . S
C1132 H1123 0.950 . S
C1132 C1131 1.398 . S
C1132 C1133 1.391 . S
C1133 H1121 0.950 . S
C1133 C1129 1.393 . S
C1133 C1132 1.391 . S
C1134 H1124 0.950 . S
C1134 C1135 1.386 . S
C1134 C1136 1.391 . S
C1135 C1134 1.386 . S
C1135 C1139 1.393 . S
C1136 H1125 0.950 . S
C1136 C1134 1.391 . S
C1136 C1137 1.400 . S
C1137 C1131 1.491 . S
C1137 C1136 1.400 . S
C1137 C1138 1.398 . S
C1138 H1126 0.950 . S
C1138 C1137 1.398 . S
C1138 C1139 1.391 . S
C1139 H1127 0.950 . S
C1139 C1135 1.393 . S
C1139 C1138 1.391 . S
H1140 C1148 0.950 . S
H1141 C1153 0.950 . S
H1142 C1150 0.950 . S
H1143 C1152 0.950 . S
H1144 C1154 0.950 . S
H1145 C1156 0.950 . S
H1146 C1158 0.950 . S
H1147 C1159 0.950 1_455 S
C1148 H1140 0.950 . S
C1148 C1149 1.386 . S
C1148 C1150 1.391 . S
C1149 C1148 1.386 . S
C1149 C1153 1.393 1_565 S
C1150 H1142 0.950 . S
C1150 C1148 1.391 . S
C1150 C1151 1.400 . S
C1151 C1150 1.400 . S
C1151 C1152 1.398 1_565 S
C1151 C1157 1.491 . S
C1152 H1143 0.950 . S
C1152 C1151 1.398 1_545 S
C1152 C1153 1.391 . S
C1153 H1141 0.950 . S
C1153 C1149 1.393 1_545 S
C1153 C1152 1.391 . S
C1154 H1144 0.950 . S
C1154 C1155 1.386 1_655 S
C1154 C1156 1.391 . S
C1155 C1154 1.386 1_455 S
C1155 C1159 1.393 1_445 S
C1156 H1145 0.950 . S
C1156 C1154 1.391 . S
C1156 C1157 1.400 1_545 S
C1157 C1151 1.491 . S
C1157 C1156 1.400 1_565 S
C1157 C1158 1.398 . S
C1158 H1146 0.950 . S
C1158 C1157 1.398 . S
C1158 C1159 1.391 . S
C1159 H1147 0.950 1_655 S
C1159 C1155 1.393 1_665 S
C1159 C1158 1.391 . S
H1160 C1168 0.950 . S
H1161 C1173 0.950 . S
H1162 C1170 0.950 . S
H1163 C1172 0.950 . S
H1164 C1174 0.950 . S
H1165 C1176 0.950 . S
H1166 C1178 0.950 . S
H1167 C1179 0.950 . S
C1168 H1160 0.950 . S
C1168 C1169 1.386 . S
C1168 C1170 1.391 . S
C1169 C1168 1.386 . S
C1169 C1173 1.393 . S
C1170 H1162 0.950 . S
C1170 C1168 1.391 . S
C1170 C1171 1.400 . S
C1171 C1170 1.400 . S
C1171 C1172 1.398 . S
C1171 C1177 1.491 . S
C1172 H1163 0.950 . S
C1172 C1171 1.398 . S
C1172 C1173 1.391 . S
C1173 H1161 0.950 . S
C1173 C1169 1.393 . S
C1173 C1172 1.391 . S
C1174 H1164 0.950 . S
C1174 C1175 1.386 . S
C1174 C1176 1.391 . S
C1175 C1174 1.386 . S
C1175 C1179 1.393 . S
C1176 H1165 0.950 . S
C1176 C1174 1.391 . S
C1176 C1177 1.400 . S
C1177 C1171 1.491 . S
C1177 C1176 1.400 . S
C1177 C1178 1.398 . S
C1178 H1166 0.950 . S
C1178 C1177 1.398 . S
C1178 C1179 1.391 . S
C1179 H1167 0.950 . S
C1179 C1175 1.393 . S
C1179 C1178 1.391 . S
H1180 C1188 0.950 . S
H1181 C1193 0.950 . S
H1182 C1190 0.950 . S
H1183 C1192 0.950 . S
H1184 C1194 0.950 . S
H1185 C1196 0.950 . S
H1186 C1198 0.950 . S
H1187 C1199 0.950 . S
C1188 H1180 0.950 . S
C1188 C1189 1.386 . S
C1188 C1190 1.391 . S
C1189 C1188 1.386 . S
C1189 C1193 1.393 . S
C1190 H1182 0.950 . S
C1190 C1188 1.391 . S
C1190 C1191 1.400 . S
C1191 C1190 1.400 . S
C1191 C1192 1.398 . S
C1191 C1197 1.491 . S
C1192 H1183 0.950 . S
C1192 C1191 1.398 . S
C1192 C1193 1.391 . S
C1193 H1181 0.950 . S
C1193 C1189 1.393 . S
C1193 C1192 1.391 . S
C1194 H1184 0.950 . S
C1194 C1195 1.386 . S
C1194 C1196 1.391 . S
C1195 C1194 1.386 . S
C1195 C1199 1.393 . S
C1196 H1185 0.950 . S
C1196 C1194 1.391 . S
C1196 C1197 1.400 . S
C1197 C1191 1.491 . S
C1197 C1196 1.400 . S
C1197 C1198 1.398 . S
C1198 H1186 0.950 . S
C1198 C1197 1.398 . S
C1198 C1199 1.391 . S
C1199 H1187 0.950 . S
C1199 C1195 1.393 . S
C1199 C1198 1.391 . S
H1200 C1208 0.950 . S
H1201 C1213 0.950 . S
H1202 C1210 0.950 . S
H1203 C1212 0.950 . S
H1204 C1214 0.950 . S
H1205 C1216 0.950 . S
H1206 C1218 0.950 . S
H1207 C1219 0.950 . S
C1208 H1200 0.950 . S
C1208 C1209 1.386 . S
C1208 C1210 1.391 . S
C1209 C1208 1.386 . S
C1209 C1213 1.393 . S
C1210 H1202 0.950 . S
C1210 C1208 1.391 . S
C1210 C1211 1.400 . S
C1211 C1210 1.400 . S
C1211 C1212 1.398 . S
C1211 C1217 1.491 . S
C1212 H1203 0.950 . S
C1212 C1211 1.398 . S
C1212 C1213 1.391 . S
C1213 H1201 0.950 . S
C1213 C1209 1.393 . S
C1213 C1212 1.391 . S
C1214 H1204 0.950 . S
C1214 C1215 1.386 . S
C1214 C1216 1.391 . S
C1215 C1214 1.386 . S
C1215 C1219 1.393 . S
C1216 H1205 0.950 . S
C1216 C1214 1.391 . S
C1216 C1217 1.400 . S
C1217 C1211 1.491 . S
C1217 C1216 1.400 . S
C1217 C1218 1.398 . S
C1218 H1206 0.950 . S
C1218 C1217 1.398 . S
C1218 C1219 1.391 . S
C1219 H1207 0.950 . S
C1219 C1215 1.393 . S
C1219 C1218 1.391 . S
H1220 C1228 0.950 1_655 S
H1221 C1233 0.950 . S
H1222 C1230 0.950 . S
H1223 C1232 0.950 . S
H1224 C1234 0.950 . S
H1225 C1236 0.950 . S
H1226 C1238 0.950 . S
H1227 C1239 0.950 . S
C1228 H1220 0.950 1_455 S
C1228 C1229 1.386 1_455 S
C1228 C1230 1.391 . S
C1229 C1228 1.386 1_655 S
C1229 C1233 1.393 1_655 S
C1230 H1222 0.950 . S
C1230 C1228 1.391 . S
C1230 C1231 1.400 1_565 S
C1231 C1230 1.400 1_545 S
C1231 C1232 1.398 . S
C1231 C1237 1.491 . S
C1232 H1223 0.950 . S
C1232 C1231 1.398 . S
C1232 C1233 1.391 1_545 S
C1233 H1221 0.950 . S
C1233 C1229 1.393 1_455 S
C1233 C1232 1.391 1_565 S
C1234 H1224 0.950 . S
C1234 C1235 1.386 . S
C1234 C1236 1.391 . S
C1235 C1234 1.386 . S
C1235 C1239 1.393 . S
C1236 H1225 0.950 . S
C1236 C1234 1.391 . S
C1236 C1237 1.400 . S
C1237 C1231 1.491 . S
C1237 C1236 1.400 . S
C1237 C1238 1.398 . S
C1238 H1226 0.950 . S
C1238 C1237 1.398 . S
C1238 C1239 1.391 . S
C1239 H1227 0.950 . S
C1239 C1235 1.393 . S
C1239 C1238 1.391 . S
H1240 C1248 0.950 . S
H1241 C1253 0.950 . S
H1242 C1250 0.950 . S
H1243 C1252 0.950 . S
H1244 C1254 0.950 . S
H1245 C1256 0.950 . S
H1246 C1258 0.950 . S
H1247 C1259 0.950 . S
C1248 H1240 0.950 . S
C1248 C1249 1.386 . S
C1248 C1250 1.391 . S
C1249 C1248 1.386 . S
C1249 C1253 1.393 . S
C1250 H1242 0.950 . S
C1250 C1248 1.391 . S
C1250 C1251 1.400 . S
C1251 C1250 1.400 . S
C1251 C1252 1.398 . S
C1251 C1257 1.491 . S
C1252 H1243 0.950 . S
C1252 C1251 1.398 . S
C1252 C1253 1.391 . S
C1253 H1241 0.950 . S
C1253 C1249 1.393 . S
C1253 C1252 1.391 . S
C1254 H1244 0.950 . S
C1254 C1255 1.386 . S
C1254 C1256 1.391 . S
C1255 C1254 1.386 . S
C1255 C1259 1.393 . S
C1256 H1245 0.950 . S
C1256 C1254 1.391 . S
C1256 C1257 1.400 . S
C1257 C1251 1.491 . S
C1257 C1256 1.400 . S
C1257 C1258 1.398 . S
C1258 H1246 0.950 . S
C1258 C1257 1.398 . S
C1258 C1259 1.391 . S
C1259 H1247 0.950 . S
C1259 C1255 1.393 . S
C1259 C1258 1.391 . S
H1260 C1268 0.950 . S
H1261 C1273 0.950 . S
H1262 C1270 0.950 . S
H1263 C1272 0.950 . S
H1264 C1274 0.950 . S
H1265 C1276 0.950 . S
H1266 C1278 0.950 . S
H1267 C1279 0.950 . S
C1268 H1260 0.950 . S
C1268 C1269 1.386 . S
C1268 C1270 1.391 . S
C1269 C1268 1.386 . S
C1269 C1273 1.393 . S
C1270 H1262 0.950 . S
C1270 C1268 1.391 . S
C1270 C1271 1.400 . S
C1271 C1270 1.400 . S
C1271 C1272 1.398 . S
C1271 C1277 1.491 . S
C1272 H1263 0.950 . S
C1272 C1271 1.398 . S
C1272 C1273 1.391 . S
C1273 H1261 0.950 . S
C1273 C1269 1.393 . S
C1273 C1272 1.391 . S
C1274 H1264 0.950 . S
C1274 C1275 1.386 . S
C1274 C1276 1.391 . S
C1275 C1274 1.386 . S
C1275 C1279 1.393 . S
C1276 H1265 0.950 . S
C1276 C1274 1.391 . S
C1276 C1277 1.400 . S
C1277 C1271 1.491 . S
C1277 C1276 1.400 . S
C1277 C1278 1.398 . S
C1278 H1266 0.950 . S
C1278 C1277 1.398 . S
C1278 C1279 1.391 . S
C1279 H1267 0.950 . S
C1279 C1275 1.393 . S
C1279 C1278 1.391 . S
H1280 C1288 0.950 . S
H1281 C1293 0.950 . S
H1282 C1290 0.950 . S
H1283 C1292 0.950 . S
H1284 C1294 0.950 . S
H1285 C1296 0.950 . S
H1286 C1298 0.950 . S
H1287 C1299 0.950 . S
C1288 H1280 0.950 . S
C1288 C1289 1.386 . S
C1288 C1290 1.391 . S
C1289 C1288 1.386 . S
C1289 C1293 1.393 . S
C1290 H1282 0.950 . S
C1290 C1288 1.391 . S
C1290 C1291 1.400 . S
C1291 C1290 1.400 . S
C1291 C1292 1.398 . S
C1291 C1297 1.491 . S
C1292 H1283 0.950 . S
C1292 C1291 1.398 . S
C1292 C1293 1.391 . S
C1293 H1281 0.950 . S
C1293 C1289 1.393 . S
C1293 C1292 1.391 . S
C1294 H1284 0.950 . S
C1294 C1295 1.386 . S
C1294 C1296 1.391 . S
C1295 C1294 1.386 . S
C1295 C1299 1.393 . S
C1296 H1285 0.950 . S
C1296 C1294 1.391 . S
C1296 C1297 1.400 . S
C1297 C1291 1.491 . S
C1297 C1296 1.400 . S
C1297 C1298 1.398 . S
C1298 H1286 0.950 . S
C1298 C1297 1.398 . S
C1298 C1299 1.391 . S
C1299 H1287 0.950 . S
C1299 C1295 1.393 . S
C1299 C1298 1.391 . S
H1300 C1308 0.950 . S
H1301 C1313 0.950 . S
H1302 C1310 0.950 . S
H1303 C1312 0.950 . S
H1304 C1314 0.950 . S
H1305 C1316 0.950 . S
H1306 C1318 0.950 . S
H1307 C1319 0.950 . S
C1308 H1300 0.950 . S
C1308 C1309 1.386 . S
C1308 C1310 1.391 . S
C1309 C1308 1.386 . S
C1309 C1313 1.393 . S
C1310 H1302 0.950 . S
C1310 C1308 1.391 . S
C1310 C1311 1.400 . S
C1311 C1310 1.400 . S
C1311 C1312 1.398 . S
C1311 C1317 1.491 . S
C1312 H1303 0.950 . S
C1312 C1311 1.398 . S
C1312 C1313 1.391 . S
C1313 H1301 0.950 . S
C1313 C1309 1.393 . S
C1313 C1312 1.391 . S
C1314 H1304 0.950 . S
C1314 C1315 1.386 . S
C1314 C1316 1.391 . S
C1315 C1314 1.386 . S
C1315 C1319 1.393 . S
C1316 H1305 0.950 . S
C1316 C1314 1.391 . S
C1316 C1317 1.400 . S
C1317 C1311 1.491 . S
C1317 C1316 1.400 . S
C1317 C1318 1.398 . S
C1318 H1306 0.950 . S
C1318 C1317 1.398 . S
C1318 C1319 1.391 . S
C1319 H1307 0.950 . S
C1319 C1315 1.393 . S
C1319 C1318 1.391 . S
H1320 C1328 0.950 . S
H1321 C1333 0.950 . S
H1322 C1330 0.950 . S
H1323 C1332 0.950 . S
H1324 C1334 0.950 1_545 S
H1325 C1336 0.950 . S
H1326 C1338 0.950 . S
H1327 C1339 0.950 . S
C1328 H1320 0.950 . S
C1328 C1329 1.386 . S
C1328 C1330 1.391 . S
C1329 C1328 1.386 . S
C1329 C1333 1.393 . S
C1330 H1322 0.950 . S
C1330 C1328 1.391 . S
C1330 C1331 1.400 . S
C1331 C1330 1.400 . S
C1331 C1332 1.398 . S
C1331 C1337 1.491 . S
C1332 H1323 0.950 . S
C1332 C1331 1.398 . S
C1332 C1333 1.391 . S
C1333 H1321 0.950 . S
C1333 C1329 1.393 . S
C1333 C1332 1.391 . S
C1334 H1324 0.950 1_565 S
C1334 C1335 1.386 . S
C1334 C1336 1.391 . S
C1335 C1334 1.386 . S
C1335 C1339 1.393 . S
C1336 H1325 0.950 . S
C1336 C1334 1.391 . S
C1336 C1337 1.400 . S
C1337 C1331 1.491 . S
C1337 C1336 1.400 . S
C1337 C1338 1.398 . S
C1338 H1326 0.950 . S
C1338 C1337 1.398 . S
C1338 C1339 1.391 . S
C1339 H1327 0.950 . S
C1339 C1335 1.393 . S
C1339 C1338 1.391 . S
H1340 C1348 0.950 . S
H1341 C1353 0.950 . S
H1342 C1350 0.950 . S
H1343 C1352 0.950 . S
H1344 C1354 0.950 . S
H1345 C1356 0.950 . S
H1346 C1358 0.950 . S
H1347 C1359 0.950 . S
C1348 H1340 0.950 . S
C1348 C1349 1.386 . S
C1348 C1350 1.391 . S
C1349 C1348 1.386 . S
C1349 C1353 1.393 . S
C1350 H1342 0.950 . S
C1350 C1348 1.391 . S
C1350 C1351 1.400 . S
C1351 C1350 1.400 . S
C1351 C1352 1.398 . S
C1351 C1357 1.491 . S
C1352 H1343 0.950 . S
C1352 C1351 1.398 . S
C1352 C1353 1.391 . S
C1353 H1341 0.950 . S
C1353 C1349 1.393 . S
C1353 C1352 1.391 . S
C1354 H1344 0.950 . S
C1354 C1355 1.386 . S
C1354 C1356 1.391 . S
C1355 C1354 1.386 . S
C1355 C1359 1.393 . S
C1356 H1345 0.950 . S
C1356 C1354 1.391 . S
C1356 C1357 1.400 . S
C1357 C1351 1.491 . S
C1357 C1356 1.400 . S
C1357 C1358 1.398 . S
C1358 H1346 0.950 . S
C1358 C1357 1.398 . S
C1358 C1359 1.391 . S
C1359 H1347 0.950 . S
C1359 C1355 1.393 . S
C1359 C1358 1.391 . S
H1360 C1368 0.950 . S
H1361 C1373 0.950 . S
H1362 C1370 0.950 . S
H1363 C1372 0.950 . S
H1364 C1374 0.950 . S
H1365 C1376 0.950 . S
H1366 C1378 0.950 . S
H1367 C1379 0.950 . S
C1368 H1360 0.950 . S
C1368 C1369 1.386 . S
C1368 C1370 1.391 . S
C1369 C1368 1.386 . S
C1369 C1373 1.393 . S
C1370 H1362 0.950 . S
C1370 C1368 1.391 . S
C1370 C1371 1.400 . S
C1371 C1370 1.400 . S
C1371 C1372 1.398 . S
C1371 C1377 1.491 . S
C1372 H1363 0.950 . S
C1372 C1371 1.398 . S
C1372 C1373 1.391 . S
C1373 H1361 0.950 . S
C1373 C1369 1.393 . S
C1373 C1372 1.391 . S
C1374 H1364 0.950 . S
C1374 C1375 1.386 . S
C1374 C1376 1.391 . S
C1375 C1374 1.386 . S
C1375 C1379 1.393 . S
C1376 H1365 0.950 . S
C1376 C1374 1.391 . S
C1376 C1377 1.400 . S
C1377 C1371 1.491 . S
C1377 C1376 1.400 . S
C1377 C1378 1.398 . S
C1378 H1366 0.950 . S
C1378 C1377 1.398 . S
C1378 C1379 1.391 . S
C1379 H1367 0.950 . S
C1379 C1375 1.393 . S
C1379 C1378 1.391 . S
H1380 C1388 0.950 . S
H1381 C1393 0.950 . S
H1382 C1390 0.950 . S
H1383 C1392 0.950 . S
H1384 C1394 0.950 . S
H1385 C1396 0.950 . S
H1386 C1398 0.950 . S
H1387 C1399 0.950 . S
C1388 H1380 0.950 . S
C1388 C1389 1.386 . S
C1388 C1390 1.391 . S
C1389 C1388 1.386 . S
C1389 C1393 1.393 . S
C1390 H1382 0.950 . S
C1390 C1388 1.391 . S
C1390 C1391 1.400 . S
C1391 C1390 1.400 . S
C1391 C1392 1.398 . S
C1391 C1397 1.491 . S
C1392 H1383 0.950 . S
C1392 C1391 1.398 . S
C1392 C1393 1.391 . S
C1393 H1381 0.950 . S
C1393 C1389 1.393 . S
C1393 C1392 1.391 . S
C1394 H1384 0.950 . S
C1394 C1395 1.386 . S
C1394 C1396 1.391 . S
C1395 C1394 1.386 . S
C1395 C1399 1.393 . S
C1396 H1385 0.950 . S
C1396 C1394 1.391 . S
C1396 C1397 1.400 . S
C1397 C1391 1.491 . S
C1397 C1396 1.400 . S
C1397 C1398 1.398 . S
C1398 H1386 0.950 . S
C1398 C1397 1.398 . S
C1398 C1399 1.391 . S
C1399 H1387 0.950 . S
C1399 C1395 1.393 . S
C1399 C1398 1.391 . S
H1400 C1408 0.950 . S
H1401 C1413 0.950 . S
H1402 C1410 0.950 . S
H1403 C1412 0.950 . S
H1404 C1414 0.950 . S
H1405 C1416 0.950 . S
H1406 C1418 0.950 . S
H1407 C1419 0.950 . S
C1408 H1400 0.950 . S
C1408 C1409 1.386 . S
C1408 C1410 1.391 . S
C1409 C1408 1.386 . S
C1409 C1413 1.393 . S
C1410 H1402 0.950 . S
C1410 C1408 1.391 . S
C1410 C1411 1.400 . S
C1411 C1410 1.400 . S
C1411 C1412 1.398 . S
C1411 C1417 1.491 . S
C1412 H1403 0.950 . S
C1412 C1411 1.398 . S
C1412 C1413 1.391 . S
C1413 H1401 0.950 . S
C1413 C1409 1.393 . S
C1413 C1412 1.391 . S
C1414 H1404 0.950 . S
C1414 C1415 1.386 . S
C1414 C1416 1.391 . S
C1415 C1414 1.386 . S
C1415 C1419 1.393 . S
C1416 H1405 0.950 . S
C1416 C1414 1.391 . S
C1416 C1417 1.400 . S
C1417 C1411 1.491 . S
C1417 C1416 1.400 . S
C1417 C1418 1.398 . S
C1418 H1406 0.950 . S
C1418 C1417 1.398 . S
C1418 C1419 1.391 . S
C1419 H1407 0.950 . S
C1419 C1415 1.393 . S
C1419 C1418 1.391 . S
H1420 C1428 0.950 . S
H1421 C1433 0.950 . S
H1422 C1430 0.950 . S
H1423 C1432 0.950 . S
H1424 C1434 0.950 . S
H1425 C1436 0.950 . S
H1426 C1438 0.950 . S
H1427 C1439 0.950 . S
C1428 H1420 0.950 . S
C1428 C1429 1.386 . S
C1428 C1430 1.391 . S
C1429 C1428 1.386 . S
C1429 C1433 1.393 . S
C1430 H1422 0.950 . S
C1430 C1428 1.391 . S
C1430 C1431 1.400 . S
C1431 C1430 1.400 . S
C1431 C1432 1.398 . S
C1431 C1437 1.491 . S
C1432 H1423 0.950 . S
C1432 C1431 1.398 . S
C1432 C1433 1.391 . S
C1433 H1421 0.950 . S
C1433 C1429 1.393 . S
C1433 C1432 1.391 . S
C1434 H1424 0.950 . S
C1434 C1435 1.386 . S
C1434 C1436 1.391 . S
C1435 C1434 1.386 . S
C1435 C1439 1.393 . S
C1436 H1425 0.950 . S
C1436 C1434 1.391 . S
C1436 C1437 1.400 . S
C1437 C1431 1.491 . S
C1437 C1436 1.400 . S
C1437 C1438 1.398 . S
C1438 H1426 0.950 . S
C1438 C1437 1.398 . S
C1438 C1439 1.391 . S
C1439 H1427 0.950 . S
C1439 C1435 1.393 . S
C1439 C1438 1.391 . S
H1440 C1448 0.950 . S
H1441 C1453 0.950 . S
H1442 C1450 0.950 . S
H1443 C1452 0.950 . S
H1444 C1454 0.950 . S
H1445 C1456 0.950 . S
H1446 C1458 0.950 . S
H1447 C1459 0.950 . S
C1448 H1440 0.950 . S
C1448 C1449 1.386 . S
C1448 C1450 1.391 . S
C1449 C1448 1.386 . S
C1449 C1453 1.393 . S
C1450 H1442 0.950 . S
C1450 C1448 1.391 . S
C1450 C1451 1.400 . S
C1451 C1450 1.400 . S
C1451 C1452 1.398 . S
C1451 C1457 1.491 . S
C1452 H1443 0.950 . S
C1452 C1451 1.398 . S
C1452 C1453 1.391 . S
C1453 H1441 0.950 . S
C1453 C1449 1.393 . S
C1453 C1452 1.391 . S
C1454 H1444 0.950 . S
C1454 C1455 1.386 . S
C1454 C1456 1.391 . S
C1455 C1454 1.386 . S
C1455 C1459 1.393 . S
C1456 H1445 0.950 . S
C1456 C1454 1.391 . S
C1456 C1457 1.400 . S
C1457 C1451 1.491 . S
C1457 C1456 1.400 . S
C1457 C1458 1.398 . S
C1458 H1446 0.950 . S
C1458 C1457 1.398 . S
C1458 C1459 1.391 . S
C1459 H1447 0.950 . S
C1459 C1455 1.393 . S
C1459 C1458 1.391 . S
H1460 C1468 0.950 . S
H1461 C1473 0.950 . S
H1462 C1470 0.950 . S
H1463 C1472 0.950 . S
H1464 C1474 0.950 . S
H1465 C1476 0.950 . S
H1466 C1478 0.950 . S
H1467 C1479 0.950 . S
C1468 H1460 0.950 . S
C1468 C1469 1.386 . S
C1468 C1470 1.391 . S
C1469 C1468 1.386 . S
C1469 C1473 1.393 . S
C1470 H1462 0.950 . S
C1470 C1468 1.391 . S
C1470 C1471 1.400 . S
C1471 C1470 1.400 . S
C1471 C1472 1.398 . S
C1471 C1477 1.491 . S
C1472 H1463 0.950 . S
C1472 C1471 1.398 . S
C1472 C1473 1.391 . S
C1473 H1461 0.950 . S
C1473 C1469 1.393 . S
C1473 C1472 1.391 . S
C1474 H1464 0.950 . S
C1474 C1475 1.386 1_565 S
C1474 C1476 1.391 . S
C1475 C1474 1.386 1_545 S
C1475 C1479 1.393 . S
C1476 H1465 0.950 . S
C1476 C1474 1.391 . S
C1476 C1477 1.400 . S
C1477 C1471 1.491 . S
C1477 C1476 1.400 . S
C1477 C1478 1.398 1_565 S
C1478 H1466 0.950 . S
C1478 C1477 1.398 1_545 S
C1478 C1479 1.391 . S
C1479 H1467 0.950 . S
C1479 C1475 1.393 . S
C1479 C1478 1.391 . S
H1480 C1488 0.950 . S
H1481 C1493 0.950 . S
H1482 C1490 0.950 . S
H1483 C1492 0.950 . S
H1484 C1494 0.950 . S
H1485 C1496 0.950 . S
H1486 C1498 0.950 . S
H1487 C1499 0.950 . S
C1488 H1480 0.950 . S
C1488 C1489 1.386 . S
C1488 C1490 1.391 . S
C1489 C1488 1.386 . S
C1489 C1493 1.393 . S
C1490 H1482 0.950 . S
C1490 C1488 1.391 . S
C1490 C1491 1.400 . S
C1491 C1490 1.400 . S
C1491 C1492 1.398 . S
C1491 C1497 1.491 . S
C1492 H1483 0.950 . S
C1492 C1491 1.398 . S
C1492 C1493 1.391 . S
C1493 H1481 0.950 . S
C1493 C1489 1.393 . S
C1493 C1492 1.391 . S
C1494 H1484 0.950 . S
C1494 C1495 1.386 . S
C1494 C1496 1.391 . S
C1495 C1494 1.386 . S
C1495 C1499 1.393 . S
C1496 H1485 0.950 . S
C1496 C1494 1.391 . S
C1496 C1497 1.400 . S
C1497 C1491 1.491 . S
C1497 C1496 1.400 . S
C1497 C1498 1.398 . S
C1498 H1486 0.950 . S
C1498 C1497 1.398 . S
C1498 C1499 1.391 . S
C1499 H1487 0.950 . S
C1499 C1495 1.393 . S
C1499 C1498 1.391 . S
H1500 C1508 0.950 . S
H1501 C1513 0.950 . S
H1502 C1510 0.950 . S
H1503 C1512 0.950 . S
H1504 C1514 0.950 . S
H1505 C1516 0.950 . S
H1506 C1518 0.950 1_565 S
H1507 C1519 0.950 . S
C1508 H1500 0.950 . S
C1508 C1509 1.386 1_565 S
C1508 C1510 1.391 . S
C1509 C1508 1.386 1_545 S
C1509 C1513 1.393 . S
C1510 H1502 0.950 . S
C1510 C1508 1.391 . S
C1510 C1511 1.400 1_565 S
C1511 C1510 1.400 1_545 S
C1511 C1512 1.398 . S
C1511 C1517 1.491 . S
C1512 H1503 0.950 . S
C1512 C1511 1.398 . S
C1512 C1513 1.391 . S
C1513 H1501 0.950 . S
C1513 C1509 1.393 . S
C1513 C1512 1.391 . S
C1514 H1504 0.950 . S
C1514 C1515 1.386 . S
C1514 C1516 1.391 . S
C1515 C1514 1.386 . S
C1515 C1519 1.393 . S
C1516 H1505 0.950 . S
C1516 C1514 1.391 . S
C1516 C1517 1.400 . S
C1517 C1511 1.491 . S
C1517 C1516 1.400 . S
C1517 C1518 1.398 . S
C1518 H1506 0.950 1_545 S
C1518 C1517 1.398 . S
C1518 C1519 1.391 . S
C1519 H1507 0.950 . S
C1519 C1515 1.393 . S
C1519 C1518 1.391 . S
H1520 C1528 0.950 . S
H1521 C1533 0.950 . S
H1522 C1530 0.950 . S
H1523 C1532 0.950 . S
H1524 C1534 0.950 . S
H1525 C1536 0.950 . S
H1526 C1538 0.950 . S
H1527 C1539 0.950 . S
C1528 H1520 0.950 . S
C1528 C1529 1.386 . S
C1528 C1530 1.391 . S
C1529 C1528 1.386 . S
C1529 C1533 1.393 . S
C1530 H1522 0.950 . S
C1530 C1528 1.391 . S
C1530 C1531 1.400 . S
C1531 C1530 1.400 . S
C1531 C1532 1.398 . S
C1531 C1537 1.491 . S
C1532 H1523 0.950 . S
C1532 C1531 1.398 . S
C1532 C1533 1.391 . S
C1533 H1521 0.950 . S
C1533 C1529 1.393 . S
C1533 C1532 1.391 . S
C1534 H1524 0.950 . S
C1534 C1535 1.386 . S
C1534 C1536 1.391 . S
C1535 C1534 1.386 . S
C1535 C1539 1.393 . S
C1536 H1525 0.950 . S
C1536 C1534 1.391 . S
C1536 C1537 1.400 . S
C1537 C1531 1.491 . S
C1537 C1536 1.400 . S
C1537 C1538 1.398 . S
C1538 H1526 0.950 . S
C1538 C1537 1.398 . S
C1538 C1539 1.391 . S
C1539 H1527 0.950 . S
C1539 C1535 1.393 . S
C1539 C1538 1.391 . S
H1540 C1548 0.950 . S
H1541 C1553 0.950 . S
H1542 C1550 0.950 . S
H1543 C1552 0.950 . S
H1544 C1554 0.950 . S
H1545 C1556 0.950 . S
H1546 C1558 0.950 . S
H1547 C1559 0.950 . S
C1548 H1540 0.950 . S
C1548 C1549 1.386 . S
C1548 C1550 1.391 . S
C1549 C1548 1.386 . S
C1549 C1553 1.393 . S
C1550 H1542 0.950 . S
C1550 C1548 1.391 . S
C1550 C1551 1.400 . S
C1551 C1550 1.400 . S
C1551 C1552 1.398 . S
C1551 C1557 1.491 . S
C1552 H1543 0.950 . S
C1552 C1551 1.398 . S
C1552 C1553 1.391 . S
C1553 H1541 0.950 . S
C1553 C1549 1.393 . S
C1553 C1552 1.391 . S
C1554 H1544 0.950 . S
C1554 C1555 1.386 . S
C1554 C1556 1.391 . S
C1555 C1554 1.386 . S
C1555 C1559 1.393 1_565 S
C1556 H1545 0.950 . S
C1556 C1554 1.391 . S
C1556 C1557 1.400 1_565 S
C1557 C1551 1.491 . S
C1557 C1556 1.400 1_545 S
C1557 C1558 1.398 . S
C1558 H1546 0.950 . S
C1558 C1557 1.398 . S
C1558 C1559 1.391 . S
C1559 H1547 0.950 . S
C1559 C1555 1.393 1_545 S
C1559 C1558 1.391 . S
H1560 C1568 0.950 . S
H1561 C1573 0.950 . S
H1562 C1570 0.950 . S
H1563 C1572 0.950 . S
H1564 C1574 0.950 . S
H1565 C1576 0.950 . S
H1566 C1578 0.950 . S
H1567 C1579 0.950 . S
C1568 H1560 0.950 . S
C1568 C1569 1.386 . S
C1568 C1570 1.391 . S
C1569 C1568 1.386 . S
C1569 C1573 1.393 . S
C1570 H1562 0.950 . S
C1570 C1568 1.391 . S
C1570 C1571 1.400 . S
C1571 C1570 1.400 . S
C1571 C1572 1.398 . S
C1571 C1577 1.491 . S
C1572 H1563 0.950 . S
C1572 C1571 1.398 . S
C1572 C1573 1.391 . S
C1573 H1561 0.950 . S
C1573 C1569 1.393 . S
C1573 C1572 1.391 . S
C1574 H1564 0.950 . S
C1574 C1575 1.386 . S
C1574 C1576 1.391 . S
C1575 C1574 1.386 . S
C1575 C1579 1.393 . S
C1576 H1565 0.950 . S
C1576 C1574 1.391 . S
C1576 C1577 1.400 . S
C1577 C1571 1.491 . S
C1577 C1576 1.400 . S
C1577 C1578 1.398 . S
C1578 H1566 0.950 . S
C1578 C1577 1.398 . S
C1578 C1579 1.391 . S
C1579 H1567 0.950 . S
C1579 C1575 1.393 . S
C1579 C1578 1.391 . S
H1580 C1588 0.950 . S
H1581 C1593 0.950 . S
H1582 C1590 0.950 . S
H1583 C1592 0.950 . S
H1584 C1594 0.950 . S
H1585 C1596 0.950 . S
H1586 C1598 0.950 . S
H1587 C1599 0.950 . S
C1588 H1580 0.950 . S
C1588 C1589 1.386 . S
C1588 C1590 1.391 . S
C1589 C1588 1.386 . S
C1589 C1593 1.393 . S
C1590 H1582 0.950 . S
C1590 C1588 1.391 . S
C1590 C1591 1.400 . S
C1591 C1590 1.400 . S
C1591 C1592 1.398 . S
C1591 C1597 1.491 . S
C1592 H1583 0.950 . S
C1592 C1591 1.398 . S
C1592 C1593 1.391 . S
C1593 H1581 0.950 . S
C1593 C1589 1.393 . S
C1593 C1592 1.391 . S
C1594 H1584 0.950 . S
C1594 C1595 1.385 1_545 S
C1594 C1596 1.391 1_545 S
C1595 C1594 1.385 1_565 S
C1595 C1599 1.394 . S
C1596 H1585 0.950 . S
C1596 C1594 1.391 1_565 S
C1596 C1597 1.400 . S
C1597 C1591 1.491 . S
C1597 C1596 1.400 . S
C1597 C1598 1.398 . S
C1598 H1586 0.950 . S
C1598 C1597 1.398 . S
C1598 C1599 1.391 . S
C1599 H1587 0.950 . S
C1599 C1595 1.394 . S
C1599 C1598 1.391 . S
C649 C9 0.691 . S
C655 C409 0.654 . S
C669 C49 0.731 . S
C675 C458 0.299 . S
C689 C89 0.712 . S
C695 C329 0.679 . S
C709 C369 0.781 . S
C715 C138 0.301 . S
C729 C178 0.682 . S
C735 C578 0.710 . S
C749 C609 0.269 . S
C755 C218 0.804 . S
C769 C498 0.695 . S
C775 C258 0.652 . S
C789 C289 0.247 . S
C795 C538 0.783 . S
C809 C19 3.580 . S
C815 C170 3.580 . S
C829 C59 2.907 . S
C835 C530 2.907 . S
C849 C99 2.374 . S
C855 C250 2.374 . S
C869 C126 1.621 . S
C875 C615 1.621 . S
C889 C210 2.903 . S
C895 C379 2.903 . S
C909 C446 1.631 . S
C915 C295 1.631 . S
C929 C490 3.581 . S
C935 C339 3.581 . S
C949 C419 2.377 . S
C955 C570 2.377 . S
C969 C10 1.546 . S
C975 C298 1.531 . S
C989 C50 1.781 . S
C995 C489 1.794 . S
C1009 C90 1.607 . S
C1015 C209 1.605 . S
C1029 C135 0.696 . S
C1035 C569 0.692 . S
C1049 C129 1.532 . S
C1055 C179 1.546 . S
C1069 C219 1.766 . S
C1075 C338 1.778 . S
C1089 C259 1.608 . S
C1095 C58 1.594 . S
C1109 C418 0.698 . S
C1115 C286 0.696 . S
C1129 C330 1.528 . S
C1135 C618 1.549 . S
C1149 C169 1.798 . S
C1155 C370 1.791 . S
C1169 C529 1.593 . S
C1175 C410 1.606 . S
C1189 C249 0.690 . S
C1195 C455 0.704 . S
C1209 C499 1.536 . S
C1215 C449 1.541 . S
C1229 C539 1.784 . S
C1235 C18 1.796 . S
C1249 C378 1.608 . S
C1255 C579 1.613 . S
C1269 C606 0.710 . S
C1275 C98 0.700 . S
C1289 C15 1.586 . S
C1295 C366 1.555 . S
C1309 C406 1.625 . S
C1315 C55 1.661 . S
C1329 C95 1.748 . S
C1335 C459 1.727 . S
C1349 C326 2.256 . S
C1355 C130 2.238 . S
C1369 C535 1.522 . S
C1375 C166 1.558 . S
C1389 C575 1.648 . S
C1395 C206 1.681 . S
C1409 C610 1.729 . S
C1415 C246 1.748 . S
C1429 C495 2.258 . S
C1435 C299 2.244 . S
C1449 C46 1.554 . S
C1455 C335 1.587 . S
C1469 C86 1.656 . S
C1475 C375 1.688 . S
C1489 C139 1.723 . S
C1495 C415 1.745 . S
C1509 C450 2.240 1_545 S
C1515 C6 2.257 . S
C1529 C215 1.538 . S
C1535 C486 1.574 . S
C1549 C255 1.653 . S
C1555 C526 1.685 . S
C1569 C290 1.708 . S
C1575 C566 1.730 . S
C1589 C175 2.259 . S
C1595 C619 2.244 1_565 S
