# Generated by pormake.
# Topology smb, (6)-cn, num edge types: 1
# Building blocks:
#     Node 0, Type 0, BuildingBlock: IZENUY_clean_sbu_0, # of connection points: 6
#     Node 1, Type 0, BuildingBlock: IZENUY_clean_sbu_0, # of connection points: 6
#     Node 2, Type 0, BuildingBlock: IZENUY_clean_sbu_0, # of connection points: 6
#     Node 3, Type 0, BuildingBlock: IZENUY_clean_sbu_0, # of connection points: 6
#     Node 4, Type 0, BuildingBlock: IZENUY_clean_sbu_0, # of connection points: 6
#     Node 5, Type 0, BuildingBlock: IZENUY_clean_sbu_0, # of connection points: 6
#     Node 6, Type 0, BuildingBlock: IZENUY_clean_sbu_0, # of connection points: 6
#     Node 7, Type 0, BuildingBlock: IZENUY_clean_sbu_0, # of connection points: 6
#     Node 8, Type 0, BuildingBlock: IZENUY_clean_sbu_0, # of connection points: 6
#     Edge 9, Type (0, 0), BuildingBlock: KIFKEQ_clean_linker_1, # of connection points: 2
#     Edge 10, Type (0, 0), BuildingBlock: KIFKEQ_clean_linker_1, # of connection points: 2
#     Edge 11, Type (0, 0), BuildingBlock: KIFKEQ_clean_linker_1, # of connection points: 2
#     Edge 12, Type (0, 0), BuildingBlock: KIFKEQ_clean_linker_1, # of connection points: 2
#     Edge 13, Type (0, 0), BuildingBlock: KIFKEQ_clean_linker_1, # of connection points: 2
#     Edge 14, Type (0, 0), BuildingBlock: KIFKEQ_clean_linker_1, # of connection points: 2
#     Edge 15, Type (0, 0), BuildingBlock: KIFKEQ_clean_linker_1, # of connection points: 2
#     Edge 16, Type (0, 0), BuildingBlock: KIFKEQ_clean_linker_1, # of connection points: 2
#     Edge 17, Type (0, 0), BuildingBlock: KIFKEQ_clean_linker_1, # of connection points: 2
#     Edge 18, Type (0, 0), BuildingBlock: KIFKEQ_clean_linker_1, # of connection points: 2
#     Edge 19, Type (0, 0), BuildingBlock: KIFKEQ_clean_linker_1, # of connection points: 2
#     Edge 20, Type (0, 0), BuildingBlock: KIFKEQ_clean_linker_1, # of connection points: 2
#     Edge 21, Type (0, 0), BuildingBlock: KIFKEQ_clean_linker_1, # of connection points: 2
#     Edge 22, Type (0, 0), BuildingBlock: KIFKEQ_clean_linker_1, # of connection points: 2
#     Edge 23, Type (0, 0), BuildingBlock: KIFKEQ_clean_linker_1, # of connection points: 2
#     Edge 24, Type (0, 0), BuildingBlock: KIFKEQ_clean_linker_1, # of connection points: 2
#     Edge 25, Type (0, 0), BuildingBlock: KIFKEQ_clean_linker_1, # of connection points: 2
#     Edge 26, Type (0, 0), BuildingBlock: KIFKEQ_clean_linker_1, # of connection points: 2
#     Edge 27, Type (0, 0), BuildingBlock: KIFKEQ_clean_linker_1, # of connection points: 2
#     Edge 28, Type (0, 0), BuildingBlock: KIFKEQ_clean_linker_1, # of connection points: 2
#     Edge 29, Type (0, 0), BuildingBlock: KIFKEQ_clean_linker_1, # of connection points: 2
#     Edge 30, Type (0, 0), BuildingBlock: KIFKEQ_clean_linker_1, # of connection points: 2
#     Edge 31, Type (0, 0), BuildingBlock: KIFKEQ_clean_linker_1, # of connection points: 2
#     Edge 32, Type (0, 0), BuildingBlock: KIFKEQ_clean_linker_1, # of connection points: 2
#     Edge 33, Type (0, 0), BuildingBlock: KIFKEQ_clean_linker_1, # of connection points: 2
#     Edge 34, Type (0, 0), BuildingBlock: KIFKEQ_clean_linker_1, # of connection points: 2
#     Edge 35, Type (0, 0), BuildingBlock: KIFKEQ_clean_linker_1, # of connection points: 2
# Relax obj value: 0.326
# Max RMSD: 0.238
# Mean RMSD: 0.238
data_MOF--net-smb--node1-IZENUY_clean_sbu_0--edge1-KIFKEQ_clean_linker_1
_symmetry_space_group_name_H-M    P1
_symmetry_Int_Tables_number       1
_symmetry_cell_setting            triclinic
loop_
_symmetry_equiv_pos_as_xyz
'x, y, z'
_cell_length_a     39.230506
_cell_length_b     39.213357
_cell_length_c     29.90356
_cell_angle_alpha  89.873459
_cell_angle_beta   90.253737
_cell_angle_gamma 119.94297
loop_
_atom_site_label
_atom_site_type_symbol
_atom_site_fract_x
_atom_site_fract_y
_atom_site_fract_z
_atom_type_partial_charge
Fe0 Fe 0.42016 0.20209 0.96282 0.0
Fe1 Fe 0.35836 0.17182 0.03852 0.0
O2 O 0.40801 0.19637 0.02042 0.0
Fe3 Fe 0.44626 0.21528 0.06053 0.0
O4 O 0.48177 0.25532 0.02554 0.0
O5 O 0.44788 0.25544 0.9674 0.0
O6 O 0.37818 0.20729 0.94551 0.0
C7 C 0.35503 0.21476 0.96718 0.0
C8 C 0.47382 0.18203 1.00177 0.0
O9 O 0.34768 0.20565 1.00799 0.0
C10 C 0.39058 0.14446 0.10038 0.0
O11 O 0.39331 0.14958 0.9538 0.0
O12 O 0.34015 0.13625 0.99199 0.0
O13 O 0.46305 0.1824 0.04143 0.0
O14 O 0.46443 0.19761 0.97032 0.0
C15 C 0.39735 0.23834 0.09589 0.0
O16 O 0.36521 0.13558 0.0699 0.0
O17 O 0.4185 0.17936 0.10407 0.0
C18 C 0.3578 0.12659 0.96361 0.0
O19 O 0.36847 0.20404 0.08824 0.0
O20 O 0.43112 0.24885 0.08086 0.0
C21 C 0.47605 0.27354 0.99426 0.0
Fe22 Fe 0.82287 0.16552 0.0489 0.0
Fe23 Fe 0.78587 0.21621 0.06969 0.0
O24 O 0.80304 0.19494 0.03032 0.0
Fe25 Fe 0.80008 0.20369 0.97272 0.0
O26 O 0.79221 0.15575 0.95423 0.0
O27 O 0.78744 0.12353 0.01632 0.0
O28 O 0.788 0.1439 0.0967 0.0
C29 C 0.75534 0.14265 0.10394 0.0
C30 C 0.87324 0.21103 0.97724 0.0
O31 O 0.74872 0.16854 0.08802 0.0
C32 C 0.82462 0.27766 0.01324 0.0
O33 O 0.86027 0.20575 0.08279 0.0
O34 O 0.81875 0.21965 0.11494 0.0
O35 O 0.85265 0.22627 0.96664 0.0
O36 O 0.86024 0.18191 1.00399 0.0
C37 C 0.72964 0.19261 1.00193 0.0
O38 O 0.82259 0.26511 0.05259 0.0
O39 O 0.80816 0.25375 0.9811 0.0
C40 C 0.85219 0.22269 0.11329 0.0
O41 O 0.74892 0.21647 0.03277 0.0
O42 O 0.74667 0.1812 0.97524 0.0
C43 C 0.78092 0.12372 0.97497 0.0
Fe44 Fe 0.79793 0.57613 0.96002 0.0
Fe45 Fe 0.82235 0.6356 0.03748 0.0
O46 O 0.79957 0.58644 0.01793 0.0
Fe47 Fe 0.77885 0.54709 0.05634 0.0
O48 O 0.81251 0.53087 0.03913 0.0
O49 O 0.80072 0.53098 0.96739 0.0
O50 O 0.85088 0.60246 0.95658 0.0
C51 C 0.87268 0.63791 0.96767 0.0
C52 C 0.72448 0.52069 0.98533 0.0
O53 O 0.86019 0.65508 0.99333 0.0
C54 C 0.75478 0.59427 0.09348 0.0
O55 O 0.79508 0.61931 0.9424 0.0
O56 O 0.78909 0.64572 1.00456 0.0
O57 O 0.74001 0.51319 0.01824 0.0
O58 O 0.74465 0.5492 0.95971 0.0
C59 C 0.84786 0.6023 0.10042 0.0
O60 O 0.78818 0.62422 0.08532 0.0
O61 O 0.74469 0.56146 0.07584 0.0
C62 C 0.78389 0.64023 0.96283 0.0
O63 O 0.85749 0.62879 0.0712 0.0
O64 O 0.8132 0.57356 0.10184 0.0
C65 C 0.81531 0.52151 0.99967 0.0
Fe66 Fe 0.08111 0.52553 0.29545 0.0
Fe67 Fe 0.02371 0.50603 0.37395 0.0
O68 O 0.07233 0.52792 0.3531 0.0
Fe69 Fe 0.11241 0.55215 0.39018 0.0
O70 O 0.14519 0.58841 0.34919 0.0
O71 O 0.10789 0.57868 0.29019 0.0
O72 O 0.03725 0.52731 0.27676 0.0
C73 C 0.01713 0.53991 0.2965 0.0
C74 C 0.13882 0.51342 0.33844 0.0
O75 O 0.01284 0.53701 0.33844 0.0
C76 C 0.05911 0.48553 0.43947 0.0
O77 O 0.05505 0.47246 0.29677 0.0
O78 O 0.00312 0.46546 0.33258 0.0
O79 O 0.12958 0.51852 0.37709 0.0
O80 O 0.12662 0.52337 0.30417 0.0
C81 C 0.06489 0.5779 0.42274 0.0
O82 O 0.03189 0.47355 0.41067 0.0
O83 O 0.08725 0.52065 0.43838 0.0
C84 C 0.01977 0.45135 0.30852 0.0
O85 O 0.03577 0.54314 0.41892 0.0
O86 O 0.09734 0.58693 0.40505 0.0
C87 C 0.13708 0.60092 0.31405 0.0
Fe88 Fe 0.46381 0.5318 0.30182 0.0
Fe89 Fe 0.49417 0.50137 0.37881 0.0
O90 O 0.4714 0.52805 0.35964 0.0
Fe91 Fe 0.45556 0.55081 0.39872 0.0
O92 O 0.40499 0.52033 0.38104 0.0
O93 O 0.4173 0.53181 0.30923 0.0
O94 O 0.43467 0.47898 0.29622 0.0
C95 C 0.44598 0.45496 0.30617 0.0
C96 C 0.48576 0.60608 0.32912 0.0
O97 O 0.47432 0.4645 0.33335 0.0
C98 C 0.52645 0.5694 0.43423 0.0
O99 O 0.50877 0.53239 0.28461 0.0
O100 O 0.53867 0.53288 0.34736 0.0
O101 O 0.46284 0.59107 0.36187 0.0
O102 O 0.49261 0.58513 0.30303 0.0
C103 C 0.43556 0.47938 0.4407 0.0
O104 O 0.51842 0.53412 0.42754 0.0
O105 O 0.50516 0.58208 0.41824 0.0
C106 C 0.53983 0.54076 0.30617 0.0
O107 O 0.45065 0.4679 0.41133 0.0
O108 O 0.44561 0.51528 0.44329 0.0
C109 C 0.39319 0.51882 0.34143 0.0
Fe110 Fe 0.43698 0.87486 0.39098 0.0
Fe111 Fe 0.4578 0.90375 0.29458 0.0
O112 O 0.4583 0.91405 0.35236 0.0
Fe113 Fe 0.48005 0.96314 0.37185 0.0
O114 O 0.51475 0.957 0.40695 0.0
O115 O 0.46987 0.90199 0.43746 0.0
O116 O 0.47131 0.85882 0.37584 0.0
C117 C 0.47506 0.84929 0.33666 0.0
C118 C 0.41063 0.92195 0.42381 0.0
O119 O 0.46216 0.85958 0.30332 0.0
C120 C 0.44241 0.96722 0.29605 0.0
O121 O 0.39974 0.84025 0.35232 0.0
O122 O 0.4043 0.87532 0.29312 0.0
O123 O 0.44487 0.95143 0.41852 0.0
O124 O 0.40166 0.88886 0.40771 0.0
C125 C 0.53212 0.96673 0.30361 0.0
O126 O 0.45366 0.94619 0.27585 0.0
O127 O 0.44707 0.97251 0.33782 0.0
C128 C 0.38416 0.84675 0.31879 0.0
O129 O 0.51095 0.9313 0.29203 0.0
O130 O 0.51858 0.98323 0.3287 0.0
C131 C 0.50435 0.93112 0.43701 0.0
Fe132 Fe 0.74214 0.87705 0.63138 0.0
Fe133 Fe 0.68664 0.83923 0.71119 0.0
O134 O 0.73468 0.86782 0.68941 0.0
Fe135 Fe 0.77566 0.8875 0.72564 0.0
O136 O 0.78925 0.93724 0.70968 0.0
O137 O 0.78638 0.92589 0.63756 0.0
O138 O 0.71379 0.90185 0.63129 0.0
C139 C 0.67845 0.88614 0.64365 0.0
C140 C 0.80104 0.86234 0.65179 0.0
O141 O 0.66363 0.85602 0.66893 0.0
C142 C 0.73223 0.81419 0.76094 0.0
O143 O 0.69938 0.8302 0.61469 0.0
O144 O 0.67771 0.79691 0.6773 0.0
O145 O 0.8091 0.88523 0.68476 0.0
O146 O 0.77085 0.85243 0.62826 0.0
C147 C 0.72001 0.89724 0.77447 0.0
O148 O 0.70162 0.81739 0.75712 0.0
O149 O 0.76419 0.83899 0.7432 0.0
C150 C 0.68114 0.79771 0.63524 0.0
O151 O 0.69262 0.87996 0.74623 0.0
O152 O 0.74988 0.89303 0.77342 0.0
C153 C 0.79742 0.9498 0.67009 0.0
Fe154 Fe 0.11611 0.86696 0.62642 0.0
Fe155 Fe 0.15063 0.8419 0.7042 0.0
O156 O 0.12419 0.86466 0.68436 0.0
Fe157 Fe 0.10575 0.88568 0.72248 0.0
O158 O 0.05549 0.85231 0.70483 0.0
O159 O 0.06845 0.86438 0.63332 0.0
O160 O 0.08935 0.81375 0.62208 0.0
C161 C 0.103 0.79185 0.63339 0.0
C162 C 0.13477 0.94061 0.65357 0.0
O163 O 0.13221 0.80416 0.65993 0.0
C164 C 0.17862 0.91054 0.75756 0.0
O165 O 0.16187 0.86959 0.60919 0.0
O166 O 0.19399 0.87495 0.67155 0.0
O167 O 0.11013 0.92392 0.68445 0.0
O168 O 0.143 0.92069 0.62727 0.0
C169 C 0.09262 0.81714 0.76729 0.0
O170 O 0.17362 0.87623 0.75177 0.0
O171 O 0.15478 0.92006 0.7416 0.0
C172 C 0.19381 0.88053 0.62992 0.0
O173 O 0.10908 0.80704 0.73815 0.0
O174 O 0.09836 0.85177 0.76797 0.0
C175 C 0.04387 0.85068 0.66501 0.0
Fe176 Fe 0.15764 0.30804 0.70821 0.0
Fe177 Fe 0.11668 0.21987 0.72956 0.0
O178 O 0.13312 0.25846 0.68998 0.0
Fe179 Fe 0.12507 0.24656 0.63221 0.0
O180 O 0.17725 0.27315 0.62081 0.0
O181 O 0.19184 0.32616 0.66054 0.0
O182 O 0.1953 0.30207 0.7376 0.0
C183 C 0.18818 0.27677 0.76755 0.0
C184 C 0.11309 0.31198 0.639 0.0
O185 O 0.15428 0.24742 0.77174 0.0
C186 C 0.05519 0.191 0.66714 0.0
O187 O 0.12693 0.29751 0.75906 0.0
O188 O 0.08379 0.23388 0.75448 0.0
O189 O 0.12009 0.28891 0.61653 0.0
O190 O 0.12249 0.31836 0.67986 0.0
C191 C 0.14749 0.19354 0.6662 0.0
O192 O 0.07517 0.18464 0.69572 0.0
O193 O 0.07195 0.21918 0.63995 0.0
C194 C 0.09411 0.26767 0.76948 0.0
O195 O 0.14922 0.20408 0.70641 0.0
O196 O 0.12922 0.20204 0.63725 0.0
C197 C 0.20092 0.30835 0.63163 0.0
H198 H 0.28568 0.06247 0.982 0.0
H199 H 0.37886 0.10884 0.88396 0.0
H200 H 0.24598 0.00615 0.93288 0.0
H201 H 0.33883 0.05319 0.83502 0.0
H202 H 0.22122 0.98924 0.74648 0.0
H203 H 0.26819 0.03806 0.7987 0.0
H204 H 0.2519 0.94533 0.88928 0.0
H205 H 0.20543 0.89598 0.83604 0.0
C206 C 0.29786 0.06043 0.95034 0.0
C207 C 0.33528 0.0903 0.93676 0.0
C208 C 0.27527 0.02813 0.92246 0.0
C209 C 0.2895 0.02558 0.88032 0.0
C210 C 0.32734 0.05462 0.86742 0.0
C211 C 0.35017 0.08642 0.89552 0.0
C212 C 0.22816 0.97925 0.77721 0.0
C213 C 0.20992 0.93896 0.78728 0.0
C214 C 0.25501 0.00712 0.80696 0.0
C215 C 0.26347 0.9953 0.84785 0.0
C216 C 0.24571 0.95499 0.85786 0.0
C217 C 0.21947 0.9269 0.82741 0.0
H218 H 0.91343 0.27798 0.92777 0.0
H219 H 0.91884 0.17593 0.97255 0.0
H220 H 0.9716 0.29818 0.88226 0.0
H221 H 0.97683 0.19582 0.92606 0.0
H222 H 0.09495 0.25246 0.85756 0.0
H223 H 0.04548 0.24343 0.91327 0.0
H224 H 0.98603 0.2756 0.81403 0.0
H225 H 0.03611 0.28534 0.75909 0.0
C226 C 0.92713 0.25987 0.9281 0.0
C227 C 0.91113 0.22502 0.95351 0.0
C228 C 0.96047 0.27144 0.90177 0.0
C229 C 0.97873 0.24846 0.9 0.0
C230 C 0.96375 0.21446 0.92688 0.0
C231 C 0.93037 0.20291 0.95343 0.0
C232 C 0.07185 0.25868 0.84834 0.0
C233 C 0.06949 0.2703 0.80458 0.0
C234 C 0.04327 0.25302 0.87994 0.0
C235 C 0.01159 0.25856 0.86816 0.0
C236 C 0.01028 0.27164 0.82456 0.0
C237 C 0.03892 0.27733 0.79305 0.0
H238 H 0.68583 0.77682 0.83416 0.0
H239 H 0.78096 0.78437 0.75453 0.0
H240 H 0.69265 0.7315 0.88578 0.0
H241 H 0.7874 0.73946 0.80519 0.0
H242 H 0.76452 0.62968 0.87463 0.0
H243 H 0.74563 0.66774 0.82716 0.0
H244 H 0.74861 0.73671 0.9409 0.0
H245 H 0.76772 0.69824 0.98929 0.0
C246 C 0.70771 0.76838 0.82735 0.0
C247 C 0.7328 0.78404 0.79026 0.0
C248 C 0.71183 0.74281 0.85702 0.0
C249 C 0.74049 0.73194 0.84937 0.0
C250 C 0.76479 0.74697 0.81171 0.0
C251 C 0.76114 0.7728 0.78273 0.0
C252 C 0.76097 0.65274 0.88989 0.0
C253 C 0.76845 0.66138 0.93575 0.0
C254 C 0.75004 0.67449 0.86256 0.0
C255 C 0.7461 0.70544 0.88023 0.0
C256 C 0.75135 0.71288 0.92648 0.0
C257 C 0.7625 0.69104 0.95407 0.0
H258 H 0.05475 0.83253 0.83293 0.0
H259 H 0.07131 0.73917 0.78044 0.0
H260 H 0.00729 0.78757 0.88547 0.0
H261 H 0.02415 0.69371 0.83525 0.0
H262 H 0.89664 0.61911 0.89065 0.0
H263 H 0.95512 0.66076 0.84722 0.0
H264 H 0.99473 0.7499 0.95022 0.0
H265 H 0.93497 0.70885 0.99259 0.0
C266 C 0.04883 0.80243 0.83311 0.0
C267 C 0.06676 0.78945 0.80209 0.0
C268 C 0.02172 0.77658 0.86384 0.0
C269 C 0.01184 0.7369 0.86498 0.0
C270 C 0.03075 0.72402 0.83502 0.0
C271 C 0.05792 0.75005 0.80376 0.0
C272 C 0.91805 0.64743 0.90431 0.0
C273 C 0.91083 0.66106 0.94467 0.0
C274 C 0.95186 0.67124 0.8795 0.0
C275 C 0.97952 0.70902 0.89478 0.0
C276 C 0.97355 0.72141 0.93677 0.0
C277 C 0.93939 0.69787 0.96121 0.0
H278 H 0.18509 0.27564 0.8579 0.0
H279 H 0.2587 0.2834 0.74739 0.0
H280 H 0.22919 0.26851 0.90978 0.0
H281 H 0.30147 0.27316 0.79828 0.0
H282 H 0.38285 0.26715 0.89863 0.0
H283 H 0.34745 0.29139 0.85383 0.0
H284 H 0.24319 0.22153 0.93325 0.0
H285 H 0.27983 0.19985 0.97975 0.0
C286 C 0.21121 0.27636 0.84494 0.0
C287 C 0.21888 0.28046 0.79889 0.0
C288 C 0.23621 0.27159 0.87452 0.0
C289 C 0.26879 0.26937 0.85855 0.0
C290 C 0.2772 0.27522 0.81236 0.0
C291 C 0.25271 0.28111 0.78295 0.0
C292 C 0.35247 0.25749 0.90674 0.0
C293 C 0.33401 0.23154 0.94255 0.0
C294 C 0.33196 0.27111 0.88079 0.0
C295 C 0.29205 0.25829 0.8892 0.0
C296 C 0.27398 0.2329 0.92589 0.0
C297 C 0.29487 0.22011 0.95256 0.0
H298 H 0.7602 0.9185 0.85307 0.0
H299 H 0.67715 0.93527 0.7743 0.0
H300 H 0.76718 0.96929 0.90464 0.0
H301 H 0.68381 0.98627 0.82674 0.0
H302 H 0.76121 0.11312 0.88626 0.0
H303 H 0.73788 0.05348 0.84215 0.0
H304 H 0.73616 0.98968 0.96083 0.0
H305 H 0.7602 0.04966 1.00511 0.0
C306 C 0.74279 0.93255 0.84725 0.0
C307 C 0.71836 0.92309 0.80936 0.0
C308 C 0.74659 0.96153 0.87709 0.0
C309 C 0.72623 0.98204 0.86973 0.0
C310 C 0.70021 0.97125 0.83305 0.0
C311 C 0.69613 0.94186 0.80325 0.0
C312 C 0.75557 0.08634 0.90314 0.0
C313 C 0.7632 0.0864 0.94918 0.0
C314 C 0.74176 0.05199 0.87784 0.0
C315 C 0.73528 0.01682 0.89789 0.0
C316 C 0.74131 0.01643 0.94428 0.0
C317 C 0.75503 0.0508 0.96967 0.0
H318 H 0.93078 0.27459 0.10302 0.0
H319 H 0.83791 0.22681 0.20087 0.0
H320 H 0.97314 0.32623 0.15581 0.0
H321 H 0.88039 0.27703 0.25429 0.0
H322 H 0.93961 0.4051 0.30361 0.0
H323 H 0.90208 0.34481 0.26085 0.0
H324 H 0.00983 0.34757 0.22389 0.0
H325 H 0.04744 0.40863 0.26558 0.0
C326 C 0.92003 0.2743 0.13641 0.0
C327 C 0.8811 0.24699 0.14783 0.0
C328 C 0.9442 0.3039 0.16673 0.0
C329 C 0.92993 0.30635 0.20915 0.0
C330 C 0.89201 0.27683 0.22157 0.0
C331 C 0.8678 0.24776 0.19115 0.0
C332 C 0.95526 0.39256 0.28693 0.0
C333 C 0.99652 0.41192 0.28773 0.0
C334 C 0.93373 0.35778 0.26248 0.0
C335 C 0.95289 0.34124 0.23861 0.0
C336 C 0.9941 0.35975 0.24113 0.0
C337 C 0.01564 0.39468 0.26529 0.0
H338 H 0.55648 0.57774 0.22556 0.0
H339 H 0.60786 0.54146 0.33025 0.0
H340 H 0.61508 0.59909 0.18015 0.0
H341 H 0.66671 0.56289 0.28442 0.0
H342 H 0.71777 0.53712 0.15469 0.0
H343 H 0.67208 0.53228 0.21218 0.0
H344 H 0.68981 0.64631 0.17413 0.0
H345 H 0.73663 0.65142 0.11614 0.0
C346 C 0.58049 0.5747 0.23909 0.0
C347 C 0.57725 0.55721 0.28118 0.0
C348 C 0.61425 0.58741 0.21325 0.0
C349 C 0.64538 0.58257 0.22869 0.0
C350 C 0.64299 0.56679 0.27166 0.0
C351 C 0.60934 0.5545 0.29784 0.0
C352 C 0.71232 0.56144 0.15886 0.0
C353 C 0.73031 0.59447 0.13066 0.0
C354 C 0.68646 0.55882 0.19215 0.0
C355 C 0.67744 0.58893 0.19772 0.0
C356 C 0.69631 0.62267 0.17045 0.0
C357 C 0.72303 0.62566 0.13745 0.0
H358 H 0.35149 0.06377 0.09207 0.0
H359 H 0.42619 0.15842 0.18166 0.0
H360 H 0.35694 0.01682 0.14177 0.0
H361 H 0.43203 0.11213 0.23045 0.0
H362 H 0.41942 0.01875 0.32615 0.0
H363 H 0.39848 0.05727 0.28156 0.0
H364 H 0.41017 0.00344 0.16112 0.0
H365 H 0.43038 0.96445 0.20556 0.0
C366 C 0.36843 0.07443 0.12268 0.0
C367 C 0.38856 0.11482 0.13277 0.0
C368 C 0.37185 0.04764 0.15095 0.0
C369 C 0.39509 0.06072 0.19003 0.0
C370 C 0.41355 0.10087 0.201 0.0
C371 C 0.4104 0.12752 0.17274 0.0
C372 C 0.41721 0.01486 0.2902 0.0
C373 C 0.42712 0.98883 0.26948 0.0
C374 C 0.40526 0.03701 0.26461 0.0
C375 C 0.40285 0.03364 0.21769 0.0
C376 C 0.41127 0.00649 0.19716 0.0
C377 C 0.42325 0.98438 0.22271 0.0
H378 H 0.68863 0.14077 0.13132 0.0
H379 H 0.75475 0.08038 0.14906 0.0
H380 H 0.64084 0.09769 0.185 0.0
H381 H 0.70536 0.03614 0.20362 0.0
H382 H 0.5697 0.94222 0.24564 0.0
H383 H 0.62865 0.98363 0.20167 0.0
H384 H 0.64162 0.08666 0.26906 0.0
H385 H 0.58282 0.04569 0.31279 0.0
C386 C 0.69317 0.1183 0.14669 0.0
C387 C 0.72595 0.11434 0.13593 0.0
C388 C 0.6657 0.09372 0.17784 0.0
C389 C 0.66976 0.06408 0.19907 0.0
C390 C 0.70181 0.05907 0.18785 0.0
C391 C 0.72996 0.08429 0.15671 0.0
C392 C 0.58548 0.97366 0.25163 0.0
C393 C 0.571 0.99074 0.28207 0.0
C394 C 0.61941 0.99725 0.22668 0.0
C395 C 0.63934 0.0383 0.23163 0.0
C396 C 0.62647 0.05506 0.26425 0.0
C397 C 0.59275 0.03157 0.28926 0.0
H398 H 0.01832 0.54938 0.20562 0.0
H399 H 0.96866 0.56659 0.32643 0.0
H400 H 0.98151 0.57235 0.1612 0.0
H401 H 0.93233 0.59012 0.28191 0.0
H402 H 0.83204 0.56745 0.18198 0.0
H403 H 0.87643 0.55842 0.23091 0.0
H404 H 0.97323 0.62944 0.14252 0.0
H405 H 0.92823 0.63819 0.09281 0.0
C406 C -0.0002 0.55833 0.22278 0.0
C407 C 0.99606 0.55557 0.26963 0.0
C408 C 0.97901 0.57191 0.19728 0.0
C409 C 0.95393 0.58302 0.21798 0.0
C410 C 0.95107 0.58136 0.2649 0.0
C411 C 0.97191 0.56786 0.29042 0.0
C412 C 0.86293 0.58176 0.17329 0.0
C413 C 0.87662 0.60339 0.1334 0.0
C414 C 0.88846 0.57675 0.20154 0.0
C415 C 0.92836 0.59301 0.19054 0.0
C416 C 0.94253 0.61621 0.15165 0.0
C417 C 0.91691 0.62157 0.12344 0.0
H418 H 0.42421 0.31549 0.0826 0.0
H419 H 0.36476 0.22281 0.17959 0.0
H420 H 0.42841 0.36383 0.13699 0.0
H421 H 0.37013 0.27176 0.23501 0.0
H422 H 0.45746 0.39196 0.32002 0.0
H423 H 0.43698 0.33487 0.27093 0.0
H424 H 0.37841 0.37745 0.18394 0.0
H425 H 0.39796 0.43385 0.23283 0.0
C426 C 0.41141 0.30547 0.11541 0.0
C427 C 0.39379 0.26553 0.12689 0.0
C428 C 0.41384 0.33307 0.1465 0.0
C429 C 0.39962 0.32146 0.19012 0.0
C430 C 0.38127 0.28134 0.20152 0.0
C431 C 0.37789 0.25342 0.16985 0.0
C432 C 0.43962 0.38877 0.29087 0.0
C433 C 0.42978 0.41778 0.28018 0.0
C434 C 0.42772 0.35599 0.26299 0.0
C435 C 0.40627 0.35196 0.22366 0.0
C436 C 0.39502 0.37998 0.21402 0.0
C437 C 0.4063 0.41229 0.24212 0.0
H438 H 0.64461 0.72093 0.66506 0.0
H439 H 0.67323 0.79102 0.54471 0.0
H440 H 0.61271 0.66095 0.61968 0.0
H441 H 0.6408 0.73181 0.5 0.0
H442 H 0.60272 0.62454 0.42119 0.0
H443 H 0.64482 0.67696 0.47332 0.0
H444 H 0.55452 0.62452 0.57434 0.0
H445 H 0.5134 0.57159 0.52241 0.0
C446 C 0.64402 0.72358 0.62904 0.0
C447 C 0.66141 0.76084 0.60862 0.0
C448 C 0.62575 0.68922 0.60302 0.0
C449 C 0.62445 0.69143 0.55605 0.0
C450 C 0.64202 0.72877 0.53589 0.0
C451 C 0.66033 0.7629 0.56172 0.0
C452 C 0.59276 0.62358 0.45516 0.0
C453 C 0.55531 0.59398 0.46825 0.0
C454 C 0.61649 0.65383 0.48484 0.0
C455 C 0.60282 0.65542 0.52789 0.0
C456 C 0.56622 0.62417 0.54173 0.0
C457 C 0.54265 0.59379 0.51208 0.0
H458 H 0.33158 0.87913 0.41716 0.0
H459 H 0.42471 0.96826 0.49827 0.0
H460 H 0.28293 0.87618 0.46953 0.0
H461 H 0.3754 0.96491 0.55155 0.0
H462 H 0.26622 0.89043 0.65464 0.0
H463 H 0.32255 0.90802 0.60521 0.0
H464 H 0.25955 0.92338 0.49561 0.0
H465 H 0.20388 0.90613 0.54416 0.0
C466 C 0.34159 0.8984 0.44605 0.0
C467 C 0.38186 0.92402 0.45361 0.0
C468 C 0.31374 0.89677 0.47597 0.0
C469 C 0.32546 0.92035 0.51452 0.0
C470 C 0.36572 0.94639 0.52207 0.0
C471 C 0.39377 0.94854 0.49149 0.0
C472 C 0.26475 0.89822 0.6202 0.0
C473 C 0.23024 0.89601 0.60311 0.0
C474 C 0.297 0.90845 0.59204 0.0
C475 C 0.29506 0.91653 0.54654 0.0
C476 C 0.26156 0.91672 0.53039 0.0
C477 C 0.22963 0.90669 0.55829 0.0
H478 H 0.10731 0.37539 0.66891 0.0
H479 H 0.08311 0.29949 0.55442 0.0
H480 H 0.08704 0.41542 0.62571 0.0
H481 H 0.06376 0.33962 0.51141 0.0
H482 H 0.01037 0.40551 0.44752 0.0
H483 H 0.0164 0.36142 0.50088 0.0
H484 H 0.11488 0.46127 0.56377 0.0
H485 H 0.10842 0.50511 0.51142 0.0
C486 C 0.09734 0.367 0.63477 0.0
C487 C 0.0973 0.33446 0.61506 0.0
C488 C 0.08589 0.39004 0.60992 0.0
C489 C 0.07392 0.38089 0.56494 0.0
C490 C 0.07232 0.34736 0.54602 0.0
C491 C 0.08384 0.32451 0.57069 0.0
C492 C 0.03282 0.41807 0.47326 0.0
C493 C 0.05905 0.45885 0.4749 0.0
C494 C 0.03646 0.39279 0.50368 0.0
C495 C 0.06633 0.40774 0.5365 0.0
C496 C 0.09128 0.44868 0.53936 0.0
C497 C 0.08772 0.47385 0.50898 0.0
H498 H 0.21975 0.29086 0.5501 0.0
H499 H 0.26748 0.3748 0.65829 0.0
H500 H 0.27981 0.32966 0.50743 0.0
H501 H 0.32833 0.4126 0.61674 0.0
H502 H 0.40139 0.49812 0.5076 0.0
H503 H 0.348 0.45471 0.55541 0.0
H504 H 0.34842 0.35424 0.49674 0.0
H505 H 0.4017 0.39842 0.44663 0.0
C506 C 0.24336 0.3173 0.56508 0.0
C507 C 0.23861 0.33017 0.60726 0.0
C508 C 0.27801 0.3394 0.54073 0.0
C509 C 0.30894 0.3746 0.55828 0.0
C510 C 0.30481 0.38624 0.60154 0.0
C511 C 0.26995 0.36453 0.62551 0.0
C512 C 0.39057 0.46681 0.50492 0.0
C513 C 0.40592 0.45182 0.473 0.0
C514 C 0.35994 0.44177 0.53288 0.0
C515 C 0.34379 0.40081 0.53034 0.0
C516 C 0.35984 0.38564 0.49933 0.0
C517 C 0.39058 0.41092 0.47086 0.0
H518 H 0.48587 0.9049 0.52234 0.0
H519 H 0.58419 0.96339 0.43229 0.0
H520 H 0.52847 0.90038 0.57849 0.0
H521 H 0.62677 0.95719 0.48761 0.0
H522 H 0.7007 0.95607 0.60172 0.0
H523 H 0.65974 0.97389 0.55721 0.0
H524 H 0.55777 0.86165 0.58882 0.0
H525 H 0.59845 0.84474 0.63466 0.0
C526 C 0.51678 0.91707 0.51474 0.0
C527 C 0.53173 0.93425 0.47288 0.0
C528 C 0.54117 0.91419 0.54679 0.0
C529 C 0.58099 0.92769 0.53745 0.0
C530 C 0.59638 0.94674 0.49629 0.0
C531 C 0.57201 0.95026 0.46444 0.0
C532 C 0.66939 0.9355 0.59968 0.0
C533 C 0.65283 0.89888 0.62153 0.0
C534 C 0.64594 0.9456 0.57387 0.0
C535 C 0.60542 0.91915 0.56891 0.0
C536 C 0.5887 0.88314 0.59227 0.0
C537 C 0.61208 0.87327 0.61851 0.0
H538 H 0.00355 0.57066 0.4752 0.0
H539 H 0.12483 0.65154 0.44065 0.0
H540 H 0.00646 0.61832 0.53092 0.0
H541 H 0.12754 0.69763 0.49612 0.0
H542 H 0.13576 0.74464 0.63489 0.0
H543 H 0.12037 0.68914 0.586 0.0
H544 H 0.02413 0.69776 0.52794 0.0
H545 H 0.03957 0.75389 0.57668 0.0
C546 C 0.03059 0.59845 0.47921 0.0
C547 C 0.06402 0.60698 0.45374 0.0
C548 C 0.03222 0.62558 0.51104 0.0
C549 C 0.06746 0.66117 0.51818 0.0
C550 C 0.10027 0.67006 0.4918 0.0
C551 C 0.09853 0.64354 0.45985 0.0
C552 C 0.11084 0.7344 0.6124 0.0
C553 C 0.08934 0.7542 0.60921 0.0
C554 C 0.10206 0.70259 0.58444 0.0
C555 C 0.07129 0.68952 0.55312 0.0
C556 C 0.0479 0.70729 0.55199 0.0
C557 C 0.05696 0.73952 0.57969 0.0
H558 H 0.49068 0.13561 0.05454 0.0
H559 H 0.52455 0.20202 0.93131 0.0
H560 H 0.54739 0.12621 0.04891 0.0
H561 H 0.58201 0.1937 0.92648 0.0
H562 H 0.68239 0.16686 0.92654 0.0
H563 H 0.61386 0.15253 0.92073 0.0
H564 H 0.6149 0.17653 0.0619 0.0
H565 H 0.68195 0.19017 0.06761 0.0
C566 C 0.50995 0.14774 0.02593 0.0
C567 C 0.50373 0.17035 0.99395 0.0
C568 C 0.54241 0.14236 0.02269 0.0
C569 C 0.56962 0.15994 0.98776 0.0
C570 C 0.56155 0.17968 0.95371 0.0
C571 C 0.52876 0.18469 0.95668 0.0
C572 C 0.66754 0.16843 0.95625 0.0
C573 C 0.68759 0.1802 0.99734 0.0
C574 C 0.62849 0.16035 0.95295 0.0
C575 C 0.60892 0.16325 0.99089 0.0
C576 C 0.62872 0.17332 0.03216 0.0
C577 C 0.66746 0.1817 0.0353 0.0
H578 H 0.79148 0.46422 0.93634 0.0
H579 H 0.87133 0.51638 0.04774 0.0
H580 H 0.80602 0.4108 0.93443 0.0
H581 H 0.88788 0.46424 0.04437 0.0
H582 H 0.83595 0.31696 0.93405 0.0
H583 H 0.84685 0.3834 0.92389 0.0
H584 H 0.85284 0.39883 0.06748 0.0
H585 H 0.84393 0.33376 0.07735 0.0
C586 C 0.81312 0.46484 0.95948 0.0
C587 C 0.82966 0.49376 0.9928 0.0
C588 C 0.82176 0.43438 0.95823 0.0
C589 C 0.84768 0.43278 0.98979 0.0
C590 C 0.86694 0.46392 0.02041 0.0
C591 C 0.85762 0.49385 0.02227 0.0
C592 C 0.84049 0.33499 0.96333 0.0
C593 C 0.83822 0.31982 1.00652 0.0
C594 C 0.84655 0.37298 0.95752 0.0
C595 C 0.85002 0.39631 0.99482 0.0
C596 C 0.8507 0.38206 0.03784 0.0
C597 C 0.84517 0.34439 0.04359 0.0
H598 H 0.66353 0.51165 0.03455 0.0
H599 H 0.69268 0.4688 0.91647 0.0
H600 H 0.59568 0.4577 0.0299 0.0
H601 H 0.62507 0.41342 0.91266 0.0
H602 H 0.49713 0.31659 0.91612 0.0
H603 H 0.55235 0.38401 0.90643 0.0
H604 H 0.5757 0.39067 0.04853 0.0
H605 H 0.52113 0.32464 0.05799 0.0
C606 C 0.65495 0.49104 1.00698 0.0
C607 C 0.68285 0.49385 0.97599 0.0
C608 C 0.61629 0.46014 1.00436 0.0
C609 C 0.60524 0.43087 0.97145 0.0
C610 C 0.63259 0.4356 0.93823 0.0
C611 C 0.67125 0.46708 0.94045 0.0
C612 C 0.51374 0.33299 0.9452 0.0
C613 C 0.50532 0.31536 0.9877 0.0
C614 C 0.54533 0.37138 0.93967 0.0
C615 C 0.56834 0.3927 0.9767 0.0
C616 C 0.5583 0.37548 0.01936 0.0
C617 C 0.52725 0.33736 0.02475 0.0
H618 H 0.36351 0.54538 0.27628 0.0
H619 H 0.32977 0.4667 0.38945 0.0
H620 H 0.29684 0.5343 0.27087 0.0
H621 H 0.26236 0.45354 0.38255 0.0
H622 H 0.17547 0.49751 0.40596 0.0
H623 H 0.23275 0.49013 0.40115 0.0
H624 H 0.22881 0.49493 0.25677 0.0
H625 H 0.17196 0.50441 0.26181 0.0
C626 C 0.34147 0.52486 0.29922 0.0
C627 C 0.3518 0.50748 0.33383 0.0
C628 C 0.30311 0.5182 0.29593 0.0
C629 C 0.27421 0.49344 0.3267 0.0
C630 C 0.28408 0.47367 0.35909 0.0
C631 C 0.32261 0.48104 0.36299 0.0
C632 C 0.18642 0.49658 0.37305 0.0
C633 C 0.16959 0.50238 0.33428 0.0
C634 C 0.2192 0.49186 0.37025 0.0
C635 C 0.23575 0.49219 0.32854 0.0
C636 C 0.21731 0.49534 0.2895 0.0
C637 C 0.1846 0.50053 0.29234 0.0
H638 H 0.49382 0.81225 0.40139 0.0
H639 H 0.48746 0.82162 0.25787 0.0
H640 H 0.50752 0.75902 0.39195 0.0
H641 H 0.50272 0.76889 0.24827 0.0
H642 H 0.54022 0.66977 0.37365 0.0
H643 H 0.54998 0.73627 0.36898 0.0
H644 H 0.46683 0.69941 0.2592 0.0
H645 H 0.45904 0.63369 0.26277 0.0
C646 C 0.49615 0.80349 0.36772 0.0
C647 C 0.48881 0.82071 0.33042 0.0
C648 C 0.50447 0.77311 0.36224 0.0
C649 C 0.5061 0.75945 0.31927 0.0
C650 C 0.50106 0.77827 0.28183 0.0
C651 C 0.49242 0.80855 0.28735 0.0
C652 C 0.52538 0.67662 0.34746 0.0
C653 C 0.49914 0.64718 0.31837 0.0
C654 C 0.53053 0.71444 0.34506 0.0
C655 C 0.50856 0.72302 0.31436 0.0
C656 C 0.48452 0.69407 0.283 0.0
C657 C 0.47995 0.6564 0.28496 0.0
H658 H 0.3269 0.81055 0.37939 0.0
H659 H 0.34815 0.81879 0.23722 0.0
H660 H 0.26085 0.75619 0.36758 0.0
H661 H 0.28104 0.76349 0.22499 0.0
H662 H 0.19551 0.62471 0.25302 0.0
H663 H 0.25112 0.69169 0.24468 0.0
H664 H 0.19563 0.73411 0.33621 0.0
H665 H 0.14086 0.66695 0.34531 0.0
C666 C 0.31701 0.80106 0.34542 0.0
C667 C 0.3426 0.81843 0.30925 0.0
C668 C 0.27898 0.77015 0.33855 0.0
C669 C 0.26565 0.75553 0.2953 0.0
C670 C 0.29062 0.77416 0.25868 0.0
C671 C 0.32881 0.80578 0.2656 0.0
C672 C 0.19479 0.64874 0.26996 0.0
C673 C 0.16435 0.64118 0.29975 0.0
C674 C 0.22643 0.68704 0.26511 0.0
C675 C 0.22792 0.71808 0.29021 0.0
C676 C 0.19549 0.7107 0.31689 0.0
C677 C 0.16413 0.67245 0.32197 0.0
H678 H 0.98277 0.82364 0.72445 0.0
H679 H 0.01169 0.85422 0.58526 0.0
H680 H 0.91827 0.81704 0.71157 0.0
H681 H 0.9473 0.84761 0.57269 0.0
H682 H 0.86875 0.90543 0.60678 0.0
H683 H 0.92356 0.89257 0.60272 0.0
H684 H 0.85305 0.78095 0.66912 0.0
H685 H 0.79798 0.79388 0.67238 0.0
C686 C 0.97514 0.82821 0.69099 0.0
C687 C 0.00267 0.84023 0.65613 0.0
C688 C 0.93809 0.82414 0.68354 0.0
C689 C 0.92804 0.83217 0.6412 0.0
C690 C 0.95453 0.84165 0.60573 0.0
C691 C 0.99139 0.84542 0.61304 0.0
C692 C 0.86467 0.87755 0.61884 0.0
C693 C 0.82945 0.85037 0.63938 0.0
C694 C 0.89589 0.87015 0.61662 0.0
C695 C 0.8925 0.83579 0.63576 0.0
C696 C 0.85638 0.80766 0.65426 0.0
C697 C 0.82494 0.81487 0.65586 0.0
H698 H 0.15455 0.98541 0.57659 0.0
H699 H 0.15368 0.99206 0.72061 0.0
H700 H 0.17209 0.05496 0.57193 0.0
H701 H 0.17019 0.06 0.71636 0.0
H702 H 0.20129 0.18098 0.71015 0.0
H703 H 0.21394 0.12673 0.69879 0.0
H704 H 0.13355 0.08655 0.5864 0.0
H705 H 0.12247 0.14174 0.5965 0.0
C706 C 0.15899 0.00198 0.60709 0.0
C707 C 0.15207 0.98342 0.64889 0.0
C708 C 0.16882 0.04161 0.60452 0.0
C709 C 0.1723 0.06304 0.64376 0.0
C710 C 0.16832 0.04485 0.68541 0.0
C711 C 0.1583 0.0056 0.68789 0.0
C712 C 0.18702 0.16099 0.68247 0.0
C713 C 0.16011 0.16492 0.65496 0.0
C714 C 0.19427 0.12995 0.67589 0.0
C715 C 0.17405 0.10175 0.64232 0.0
C716 C 0.14979 0.10775 0.61243 0.0
C717 C 0.14309 0.13921 0.61853 0.0
H718 H 0.84499 0.98272 0.5975 0.0
H719 H 0.81673 0.01128 0.72655 0.0
H720 H 0.9028 0.04819 0.59317 0.0
H721 H 0.8738 0.07718 0.72153 0.0
H722 H 0.00924 0.14487 0.73368 0.0
H723 H 0.94133 0.09303 0.72978 0.0
H724 H 0.9358 0.12105 0.591 0.0
H725 H 0.00509 0.17348 0.5949 0.0
C726 C 0.85044 0.00339 0.62431 0.0
C727 C 0.82695 0.9916 0.66291 0.0
C728 C 0.88346 0.04104 0.62167 0.0
C729 C 0.89329 0.06758 0.65741 0.0
C730 C 0.86748 0.05701 0.69393 0.0
C731 C 0.8348 0.01931 0.6968 0.0
C732 C 0.99354 0.14032 0.70235 0.0
C733 C 0.01262 0.16278 0.66439 0.0
C734 C 0.95434 0.11086 0.70027 0.0
C735 C 0.93304 0.10294 0.66011 0.0
C736 C 0.95158 0.12642 0.62237 0.0
C737 C 0.99108 0.15641 0.6246 0.0
loop_
_geom_bond_atom_site_label_1
_geom_bond_atom_site_label_2
_geom_bond_distance
_geom_bond_site_symmetry_2
_ccdc_geom_bond_type
Fe0 O2 1.918 1_556 S
Fe0 O5 1.997 . S
Fe0 O6 2.002 . S
Fe0 O11 1.976 . S
Fe0 O14 1.996 . S
Fe1 O2 1.918 . S
Fe1 O9 1.997 1_554 S
Fe1 O12 1.996 1_554 S
Fe1 O16 1.976 . S
Fe1 O19 2.002 . S
O2 Fe0 1.918 1_554 S
O2 Fe1 1.918 . S
O2 Fe3 1.918 . S
Fe3 O2 1.918 . S
Fe3 O4 2.002 . S
Fe3 O13 1.976 . S
Fe3 O17 1.996 . S
Fe3 O20 1.997 . S
O4 Fe3 2.002 . S
O4 C21 1.295 1_554 S
O5 Fe0 1.997 . S
O5 C21 1.235 . S
O6 Fe0 2.002 . S
O6 C7 1.295 . S
C7 O6 1.295 . S
C7 O9 1.235 . S
C8 O13 1.287 1_556 S
C8 O14 1.255 . S
O9 Fe1 1.997 1_556 S
O9 C7 1.235 . S
C10 O16 1.287 . S
C10 O17 1.255 . S
O11 Fe0 1.976 . S
O11 C18 1.287 . S
O12 Fe1 1.996 1_556 S
O12 C18 1.255 . S
O13 Fe3 1.976 . S
O13 C8 1.287 1_554 S
O14 Fe0 1.996 . S
O14 C8 1.255 . S
C15 O19 1.295 . S
C15 O20 1.235 . S
O16 Fe1 1.976 . S
O16 C10 1.287 . S
O17 Fe3 1.996 . S
O17 C10 1.255 . S
C18 O11 1.287 . S
C18 O12 1.255 . S
O19 Fe1 2.002 . S
O19 C15 1.295 . S
O20 Fe3 1.997 . S
O20 C15 1.235 . S
C21 O4 1.295 1_556 S
C21 O5 1.235 . S
Fe22 O24 1.918 . S
Fe22 O27 1.997 1_554 S
Fe22 O28 2.002 . S
Fe22 O33 1.976 . S
Fe22 O36 1.996 1_554 S
Fe23 O24 1.918 . S
Fe23 O31 1.997 . S
Fe23 O34 1.996 . S
Fe23 O38 1.976 . S
Fe23 O41 2.002 . S
O24 Fe22 1.918 . S
O24 Fe23 1.918 . S
O24 Fe25 1.918 1_554 S
Fe25 O24 1.918 1_556 S
Fe25 O26 2.002 . S
Fe25 O35 1.976 . S
Fe25 O39 1.996 . S
Fe25 O42 1.997 . S
O26 Fe25 2.002 . S
O26 C43 1.295 . S
O27 Fe22 1.997 1_556 S
O27 C43 1.235 . S
O28 Fe22 2.002 . S
O28 C29 1.295 . S
C29 O28 1.295 . S
C29 O31 1.235 . S
C30 O35 1.287 . S
C30 O36 1.255 . S
O31 Fe23 1.997 . S
O31 C29 1.235 . S
C32 O38 1.287 1_556 S
C32 O39 1.255 . S
O33 Fe22 1.976 . S
O33 C40 1.287 . S
O34 Fe23 1.996 . S
O34 C40 1.255 . S
O35 Fe25 1.976 . S
O35 C30 1.287 . S
O36 Fe22 1.996 1_556 S
O36 C30 1.255 . S
C37 O41 1.295 1_556 S
C37 O42 1.235 . S
O38 Fe23 1.976 . S
O38 C32 1.287 1_554 S
O39 Fe25 1.996 . S
O39 C32 1.255 . S
C40 O33 1.287 . S
C40 O34 1.255 . S
O41 Fe23 2.002 . S
O41 C37 1.295 1_554 S
O42 Fe25 1.997 . S
O42 C37 1.235 . S
C43 O26 1.295 . S
C43 O27 1.235 . S
Fe44 O46 1.918 1_556 S
Fe44 O49 1.997 . S
Fe44 O50 2.002 . S
Fe44 O55 1.976 . S
Fe44 O58 1.996 . S
Fe45 O46 1.918 . S
Fe45 O53 1.997 1_554 S
Fe45 O56 1.996 1_554 S
Fe45 O60 1.976 . S
Fe45 O63 2.002 . S
O46 Fe44 1.918 1_554 S
O46 Fe45 1.918 . S
O46 Fe47 1.918 . S
Fe47 O46 1.918 . S
Fe47 O48 2.002 . S
Fe47 O57 1.976 . S
Fe47 O61 1.996 . S
Fe47 O64 1.997 . S
O48 Fe47 2.002 . S
O48 C65 1.295 1_554 S
O49 Fe44 1.997 . S
O49 C65 1.235 . S
O50 Fe44 2.002 . S
O50 C51 1.295 . S
C51 O50 1.295 . S
C51 O53 1.235 . S
C52 O57 1.287 1_556 S
C52 O58 1.255 . S
O53 Fe45 1.997 1_556 S
O53 C51 1.235 . S
C54 O60 1.287 . S
C54 O61 1.255 . S
O55 Fe44 1.976 . S
O55 C62 1.287 . S
O56 Fe45 1.996 1_556 S
O56 C62 1.255 . S
O57 Fe47 1.976 . S
O57 C52 1.287 1_554 S
O58 Fe44 1.996 . S
O58 C52 1.255 . S
C59 O63 1.295 . S
C59 O64 1.235 . S
O60 Fe45 1.976 . S
O60 C54 1.287 . S
O61 Fe47 1.996 . S
O61 C54 1.255 . S
C62 O55 1.287 . S
C62 O56 1.255 . S
O63 Fe45 2.002 . S
O63 C59 1.295 . S
O64 Fe47 1.997 . S
O64 C59 1.235 . S
C65 O48 1.295 1_556 S
C65 O49 1.235 . S
Fe66 O68 1.918 . S
Fe66 O71 1.997 . S
Fe66 O72 2.002 . S
Fe66 O77 1.976 . S
Fe66 O80 1.996 . S
Fe67 O68 1.918 . S
Fe67 O75 1.997 . S
Fe67 O78 1.996 . S
Fe67 O82 1.976 . S
Fe67 O85 2.002 . S
O68 Fe66 1.918 . S
O68 Fe67 1.918 . S
O68 Fe69 1.918 . S
Fe69 O68 1.918 . S
Fe69 O70 2.002 . S
Fe69 O79 1.976 . S
Fe69 O83 1.996 . S
Fe69 O86 1.997 . S
O70 Fe69 2.002 . S
O70 C87 1.295 . S
O71 Fe66 1.997 . S
O71 C87 1.235 . S
O72 Fe66 2.002 . S
O72 C73 1.295 . S
C73 O72 1.295 . S
C73 O75 1.235 . S
C74 O79 1.287 . S
C74 O80 1.255 . S
O75 Fe67 1.997 . S
O75 C73 1.235 . S
C76 O82 1.287 . S
C76 O83 1.255 . S
O77 Fe66 1.976 . S
O77 C84 1.287 . S
O78 Fe67 1.996 . S
O78 C84 1.255 . S
O79 Fe69 1.976 . S
O79 C74 1.287 . S
O80 Fe66 1.996 . S
O80 C74 1.255 . S
C81 O85 1.295 . S
C81 O86 1.235 . S
O82 Fe67 1.976 . S
O82 C76 1.287 . S
O83 Fe69 1.996 . S
O83 C76 1.255 . S
C84 O77 1.287 . S
C84 O78 1.255 . S
O85 Fe67 2.002 . S
O85 C81 1.295 . S
O86 Fe69 1.997 . S
O86 C81 1.235 . S
C87 O70 1.295 . S
C87 O71 1.235 . S
Fe88 O90 1.918 . S
Fe88 O93 1.997 . S
Fe88 O94 2.002 . S
Fe88 O99 1.976 . S
Fe88 O102 1.996 . S
Fe89 O90 1.918 . S
Fe89 O97 1.997 . S
Fe89 O100 1.996 . S
Fe89 O104 1.976 . S
Fe89 O107 2.002 . S
O90 Fe88 1.918 . S
O90 Fe89 1.918 . S
O90 Fe91 1.918 . S
Fe91 O90 1.918 . S
Fe91 O92 2.002 . S
Fe91 O101 1.976 . S
Fe91 O105 1.996 . S
Fe91 O108 1.997 . S
O92 Fe91 2.002 . S
O92 C109 1.295 . S
O93 Fe88 1.997 . S
O93 C109 1.235 . S
O94 Fe88 2.002 . S
O94 C95 1.295 . S
C95 O94 1.295 . S
C95 O97 1.235 . S
C96 O101 1.287 . S
C96 O102 1.255 . S
O97 Fe89 1.997 . S
O97 C95 1.235 . S
C98 O104 1.287 . S
C98 O105 1.255 . S
O99 Fe88 1.976 . S
O99 C106 1.287 . S
O100 Fe89 1.996 . S
O100 C106 1.255 . S
O101 Fe91 1.976 . S
O101 C96 1.287 . S
O102 Fe88 1.996 . S
O102 C96 1.255 . S
C103 O107 1.295 . S
C103 O108 1.235 . S
O104 Fe89 1.976 . S
O104 C98 1.287 . S
O105 Fe91 1.996 . S
O105 C98 1.255 . S
C106 O99 1.287 . S
C106 O100 1.255 . S
O107 Fe89 2.002 . S
O107 C103 1.295 . S
O108 Fe91 1.997 . S
O108 C103 1.235 . S
C109 O92 1.295 . S
C109 O93 1.235 . S
Fe110 O112 1.918 . S
Fe110 O115 1.997 . S
Fe110 O116 2.002 . S
Fe110 O121 1.976 . S
Fe110 O124 1.996 . S
Fe111 O112 1.918 . S
Fe111 O119 1.997 . S
Fe111 O122 1.996 . S
Fe111 O126 1.976 . S
Fe111 O129 2.002 . S
O112 Fe110 1.918 . S
O112 Fe111 1.918 . S
O112 Fe113 1.918 . S
Fe113 O112 1.918 . S
Fe113 O114 2.002 . S
Fe113 O123 1.976 . S
Fe113 O127 1.996 . S
Fe113 O130 1.997 . S
O114 Fe113 2.002 . S
O114 C131 1.295 . S
O115 Fe110 1.997 . S
O115 C131 1.235 . S
O116 Fe110 2.002 . S
O116 C117 1.295 . S
C117 O116 1.295 . S
C117 O119 1.235 . S
C118 O123 1.287 . S
C118 O124 1.255 . S
O119 Fe111 1.997 . S
O119 C117 1.235 . S
C120 O126 1.287 . S
C120 O127 1.255 . S
O121 Fe110 1.976 . S
O121 C128 1.287 . S
O122 Fe111 1.996 . S
O122 C128 1.255 . S
O123 Fe113 1.976 . S
O123 C118 1.287 . S
O124 Fe110 1.996 . S
O124 C118 1.255 . S
C125 O129 1.295 . S
C125 O130 1.235 . S
O126 Fe111 1.976 . S
O126 C120 1.287 . S
O127 Fe113 1.996 . S
O127 C120 1.255 . S
C128 O121 1.287 . S
C128 O122 1.255 . S
O129 Fe111 2.002 . S
O129 C125 1.295 . S
O130 Fe113 1.997 . S
O130 C125 1.235 . S
C131 O114 1.295 . S
C131 O115 1.235 . S
Fe132 O134 1.918 . S
Fe132 O137 1.997 . S
Fe132 O138 2.002 . S
Fe132 O143 1.976 . S
Fe132 O146 1.996 . S
Fe133 O134 1.918 . S
Fe133 O141 1.997 . S
Fe133 O144 1.996 . S
Fe133 O148 1.976 . S
Fe133 O151 2.002 . S
O134 Fe132 1.918 . S
O134 Fe133 1.918 . S
O134 Fe135 1.918 . S
Fe135 O134 1.918 . S
Fe135 O136 2.002 . S
Fe135 O145 1.976 . S
Fe135 O149 1.996 . S
Fe135 O152 1.997 . S
O136 Fe135 2.002 . S
O136 C153 1.295 . S
O137 Fe132 1.997 . S
O137 C153 1.235 . S
O138 Fe132 2.002 . S
O138 C139 1.295 . S
C139 O138 1.295 . S
C139 O141 1.235 . S
C140 O145 1.287 . S
C140 O146 1.255 . S
O141 Fe133 1.997 . S
O141 C139 1.235 . S
C142 O148 1.287 . S
C142 O149 1.255 . S
O143 Fe132 1.976 . S
O143 C150 1.287 . S
O144 Fe133 1.996 . S
O144 C150 1.255 . S
O145 Fe135 1.976 . S
O145 C140 1.287 . S
O146 Fe132 1.996 . S
O146 C140 1.255 . S
C147 O151 1.295 . S
C147 O152 1.235 . S
O148 Fe133 1.976 . S
O148 C142 1.287 . S
O149 Fe135 1.996 . S
O149 C142 1.255 . S
C150 O143 1.287 . S
C150 O144 1.255 . S
O151 Fe133 2.002 . S
O151 C147 1.295 . S
O152 Fe135 1.997 . S
O152 C147 1.235 . S
C153 O136 1.295 . S
C153 O137 1.235 . S
Fe154 O156 1.918 . S
Fe154 O159 1.997 . S
Fe154 O160 2.002 . S
Fe154 O165 1.976 . S
Fe154 O168 1.996 . S
Fe155 O156 1.918 . S
Fe155 O163 1.997 . S
Fe155 O166 1.996 . S
Fe155 O170 1.976 . S
Fe155 O173 2.002 . S
O156 Fe154 1.918 . S
O156 Fe155 1.918 . S
O156 Fe157 1.918 . S
Fe157 O156 1.918 . S
Fe157 O158 2.002 . S
Fe157 O167 1.976 . S
Fe157 O171 1.996 . S
Fe157 O174 1.997 . S
O158 Fe157 2.002 . S
O158 C175 1.295 . S
O159 Fe154 1.997 . S
O159 C175 1.235 . S
O160 Fe154 2.002 . S
O160 C161 1.295 . S
C161 O160 1.295 . S
C161 O163 1.235 . S
C162 O167 1.287 . S
C162 O168 1.255 . S
O163 Fe155 1.997 . S
O163 C161 1.235 . S
C164 O170 1.287 . S
C164 O171 1.255 . S
O165 Fe154 1.976 . S
O165 C172 1.287 . S
O166 Fe155 1.996 . S
O166 C172 1.255 . S
O167 Fe157 1.976 . S
O167 C162 1.287 . S
O168 Fe154 1.996 . S
O168 C162 1.255 . S
C169 O173 1.295 . S
C169 O174 1.235 . S
O170 Fe155 1.976 . S
O170 C164 1.287 . S
O171 Fe157 1.996 . S
O171 C164 1.255 . S
C172 O165 1.287 . S
C172 O166 1.255 . S
O173 Fe155 2.002 . S
O173 C169 1.295 . S
O174 Fe157 1.997 . S
O174 C169 1.235 . S
C175 O158 1.295 . S
C175 O159 1.235 . S
Fe176 O178 1.918 . S
Fe176 O181 1.997 . S
Fe176 O182 2.002 . S
Fe176 O187 1.976 . S
Fe176 O190 1.996 . S
Fe177 O178 1.918 . S
Fe177 O185 1.997 . S
Fe177 O188 1.996 . S
Fe177 O192 1.976 . S
Fe177 O195 2.002 . S
O178 Fe176 1.918 . S
O178 Fe177 1.918 . S
O178 Fe179 1.918 . S
Fe179 O178 1.918 . S
Fe179 O180 2.002 . S
Fe179 O189 1.976 . S
Fe179 O193 1.996 . S
Fe179 O196 1.997 . S
O180 Fe179 2.002 . S
O180 C197 1.295 . S
O181 Fe176 1.997 . S
O181 C197 1.235 . S
O182 Fe176 2.002 . S
O182 C183 1.295 . S
C183 O182 1.295 . S
C183 O185 1.235 . S
C184 O189 1.287 . S
C184 O190 1.255 . S
O185 Fe177 1.997 . S
O185 C183 1.235 . S
C186 O192 1.287 . S
C186 O193 1.255 . S
O187 Fe176 1.976 . S
O187 C194 1.287 . S
O188 Fe177 1.996 . S
O188 C194 1.255 . S
O189 Fe179 1.976 . S
O189 C184 1.287 . S
O190 Fe176 1.996 . S
O190 C184 1.255 . S
C191 O195 1.295 . S
C191 O196 1.235 . S
O192 Fe177 1.976 . S
O192 C186 1.287 . S
O193 Fe179 1.996 . S
O193 C186 1.255 . S
C194 O187 1.287 . S
C194 O188 1.255 . S
O195 Fe177 2.002 . S
O195 C191 1.295 . S
O196 Fe179 1.997 . S
O196 C191 1.235 . S
C197 O180 1.295 . S
C197 O181 1.235 . S
H198 C206 0.950 . S
H199 C211 0.950 . S
H200 C208 0.950 . S
H201 C210 0.950 . S
H202 C212 0.950 . S
H203 C214 0.950 1_545 S
H204 C216 0.950 . S
H205 C217 0.950 . S
C206 H198 0.950 . S
C206 C207 1.386 . S
C206 C208 1.391 . S
C207 C206 1.386 . S
C207 C211 1.393 . S
C208 H200 0.950 . S
C208 C206 1.391 . S
C208 C209 1.400 . S
C209 C208 1.400 . S
C209 C210 1.398 . S
C209 C215 1.491 1_545 S
C210 H201 0.950 . S
C210 C209 1.398 . S
C210 C211 1.391 . S
C211 H199 0.950 . S
C211 C207 1.393 . S
C211 C210 1.391 . S
C212 H202 0.950 . S
C212 C213 1.386 . S
C212 C214 1.391 . S
C213 C212 1.386 . S
C213 C217 1.393 . S
C214 H203 0.950 1_565 S
C214 C212 1.391 . S
C214 C215 1.400 . S
C215 C209 1.491 1_565 S
C215 C214 1.400 . S
C215 C216 1.398 . S
C216 H204 0.950 . S
C216 C215 1.398 . S
C216 C217 1.391 . S
C217 H205 0.950 . S
C217 C213 1.393 . S
C217 C216 1.391 . S
H218 C226 0.950 . S
H219 C231 0.950 . S
H220 C228 0.950 . S
H221 C230 0.950 . S
H222 C232 0.950 . S
H223 C234 0.950 . S
H224 C236 0.950 1_655 S
H225 C237 0.950 . S
C226 H218 0.950 . S
C226 C227 1.386 . S
C226 C228 1.391 . S
C227 C226 1.386 . S
C227 C231 1.393 . S
C228 H220 0.950 . S
C228 C226 1.391 . S
C228 C229 1.400 . S
C229 C228 1.400 . S
C229 C230 1.398 . S
C229 C235 1.491 1_655 S
C230 H221 0.950 . S
C230 C229 1.398 . S
C230 C231 1.391 . S
C231 H219 0.950 . S
C231 C227 1.393 . S
C231 C230 1.391 . S
C232 H222 0.950 . S
C232 C233 1.386 . S
C232 C234 1.391 . S
C233 C232 1.386 . S
C233 C237 1.393 . S
C234 H223 0.950 . S
C234 C232 1.391 . S
C234 C235 1.400 . S
C235 C229 1.491 1_455 S
C235 C234 1.400 . S
C235 C236 1.398 . S
C236 H224 0.950 1_455 S
C236 C235 1.398 . S
C236 C237 1.391 . S
C237 H225 0.950 . S
C237 C233 1.393 . S
C237 C236 1.391 . S
H238 C246 0.950 . S
H239 C251 0.950 . S
H240 C248 0.950 . S
H241 C250 0.950 . S
H242 C252 0.950 . S
H243 C254 0.950 . S
H244 C256 0.950 . S
H245 C257 0.950 . S
C246 H238 0.950 . S
C246 C247 1.386 . S
C246 C248 1.391 . S
C247 C246 1.386 . S
C247 C251 1.393 . S
C248 H240 0.950 . S
C248 C246 1.391 . S
C248 C249 1.400 . S
C249 C248 1.400 . S
C249 C250 1.398 . S
C249 C255 1.491 . S
C250 H241 0.950 . S
C250 C249 1.398 . S
C250 C251 1.391 . S
C251 H239 0.950 . S
C251 C247 1.393 . S
C251 C250 1.391 . S
C252 H242 0.950 . S
C252 C253 1.386 . S
C252 C254 1.391 . S
C253 C252 1.386 . S
C253 C257 1.393 . S
C254 H243 0.950 . S
C254 C252 1.391 . S
C254 C255 1.400 . S
C255 C249 1.491 . S
C255 C254 1.400 . S
C255 C256 1.398 . S
C256 H244 0.950 . S
C256 C255 1.398 . S
C256 C257 1.391 . S
C257 H245 0.950 . S
C257 C253 1.393 . S
C257 C256 1.391 . S
H258 C266 0.950 . S
H259 C271 0.950 . S
H260 C268 0.950 1_655 S
H261 C270 0.950 . S
H262 C272 0.950 . S
H263 C274 0.950 . S
H264 C276 0.950 . S
H265 C277 0.950 . S
C266 H258 0.950 . S
C266 C267 1.386 . S
C266 C268 1.391 . S
C267 C266 1.386 . S
C267 C271 1.393 . S
C268 H260 0.950 1_455 S
C268 C266 1.391 . S
C268 C269 1.400 . S
C269 C268 1.400 . S
C269 C270 1.398 . S
C269 C275 1.491 1_455 S
C270 H261 0.950 . S
C270 C269 1.398 . S
C270 C271 1.391 . S
C271 H259 0.950 . S
C271 C267 1.393 . S
C271 C270 1.391 . S
C272 H262 0.950 . S
C272 C273 1.386 . S
C272 C274 1.391 . S
C273 C272 1.386 . S
C273 C277 1.393 . S
C274 H263 0.950 . S
C274 C272 1.391 . S
C274 C275 1.400 . S
C275 C269 1.491 1_655 S
C275 C274 1.400 . S
C275 C276 1.398 . S
C276 H264 0.950 . S
C276 C275 1.398 . S
C276 C277 1.391 . S
C277 H265 0.950 . S
C277 C273 1.393 . S
C277 C276 1.391 . S
H278 C286 0.950 . S
H279 C291 0.950 . S
H280 C288 0.950 . S
H281 C290 0.950 . S
H282 C292 0.950 . S
H283 C294 0.950 . S
H284 C296 0.950 . S
H285 C297 0.950 . S
C286 H278 0.950 . S
C286 C287 1.386 . S
C286 C288 1.391 . S
C287 C286 1.386 . S
C287 C291 1.393 . S
C288 H280 0.950 . S
C288 C286 1.391 . S
C288 C289 1.400 . S
C289 C288 1.400 . S
C289 C290 1.398 . S
C289 C295 1.491 . S
C290 H281 0.950 . S
C290 C289 1.398 . S
C290 C291 1.391 . S
C291 H279 0.950 . S
C291 C287 1.393 . S
C291 C290 1.391 . S
C292 H282 0.950 . S
C292 C293 1.386 . S
C292 C294 1.391 . S
C293 C292 1.386 . S
C293 C297 1.393 . S
C294 H283 0.950 . S
C294 C292 1.391 . S
C294 C295 1.400 . S
C295 C289 1.491 . S
C295 C294 1.400 . S
C295 C296 1.398 . S
C296 H284 0.950 . S
C296 C295 1.398 . S
C296 C297 1.391 . S
C297 H285 0.950 . S
C297 C293 1.393 . S
C297 C296 1.391 . S
H298 C306 0.950 . S
H299 C311 0.950 . S
H300 C308 0.950 . S
H301 C310 0.950 . S
H302 C312 0.950 . S
H303 C314 0.950 . S
H304 C316 0.950 . S
H305 C317 0.950 . S
C306 H298 0.950 . S
C306 C307 1.386 . S
C306 C308 1.391 . S
C307 C306 1.386 . S
C307 C311 1.393 . S
C308 H300 0.950 . S
C308 C306 1.391 . S
C308 C309 1.400 . S
C309 C308 1.400 . S
C309 C310 1.398 . S
C309 C315 1.491 1_565 S
C310 H301 0.950 . S
C310 C309 1.398 . S
C310 C311 1.391 . S
C311 H299 0.950 . S
C311 C307 1.393 . S
C311 C310 1.391 . S
C312 H302 0.950 . S
C312 C313 1.386 . S
C312 C314 1.391 . S
C313 C312 1.386 . S
C313 C317 1.393 . S
C314 H303 0.950 . S
C314 C312 1.391 . S
C314 C315 1.400 . S
C315 C309 1.491 1_545 S
C315 C314 1.400 . S
C315 C316 1.398 . S
C316 H304 0.950 . S
C316 C315 1.398 . S
C316 C317 1.391 . S
C317 H305 0.950 . S
C317 C313 1.393 . S
C317 C316 1.391 . S
H318 C326 0.950 . S
H319 C331 0.950 . S
H320 C328 0.950 . S
H321 C330 0.950 . S
H322 C332 0.950 . S
H323 C334 0.950 . S
H324 C336 0.950 . S
H325 C337 0.950 . S
C326 H318 0.950 . S
C326 C327 1.386 . S
C326 C328 1.391 . S
C327 C326 1.386 . S
C327 C331 1.393 . S
C328 H320 0.950 . S
C328 C326 1.391 . S
C328 C329 1.400 . S
C329 C328 1.400 . S
C329 C330 1.398 . S
C329 C335 1.491 . S
C330 H321 0.950 . S
C330 C329 1.398 . S
C330 C331 1.391 . S
C331 H319 0.950 . S
C331 C327 1.393 . S
C331 C330 1.391 . S
C332 H322 0.950 . S
C332 C333 1.386 1_655 S
C332 C334 1.391 . S
C333 C332 1.386 1_455 S
C333 C337 1.393 . S
C334 H323 0.950 . S
C334 C332 1.391 . S
C334 C335 1.400 . S
C335 C329 1.491 . S
C335 C334 1.400 . S
C335 C336 1.398 . S
C336 H324 0.950 . S
C336 C335 1.398 . S
C336 C337 1.391 1_655 S
C337 H325 0.950 . S
C337 C333 1.393 . S
C337 C336 1.391 1_455 S
H338 C346 0.950 . S
H339 C351 0.950 . S
H340 C348 0.950 . S
H341 C350 0.950 . S
H342 C352 0.950 . S
H343 C354 0.950 . S
H344 C356 0.950 . S
H345 C357 0.950 . S
C346 H338 0.950 . S
C346 C347 1.386 . S
C346 C348 1.391 . S
C347 C346 1.386 . S
C347 C351 1.393 . S
C348 H340 0.950 . S
C348 C346 1.391 . S
C348 C349 1.400 . S
C349 C348 1.400 . S
C349 C350 1.398 . S
C349 C355 1.491 . S
C350 H341 0.950 . S
C350 C349 1.398 . S
C350 C351 1.391 . S
C351 H339 0.950 . S
C351 C347 1.393 . S
C351 C350 1.391 . S
C352 H342 0.950 . S
C352 C353 1.386 . S
C352 C354 1.391 . S
C353 C352 1.386 . S
C353 C357 1.393 . S
C354 H343 0.950 . S
C354 C352 1.391 . S
C354 C355 1.400 . S
C355 C349 1.491 . S
C355 C354 1.400 . S
C355 C356 1.398 . S
C356 H344 0.950 . S
C356 C355 1.398 . S
C356 C357 1.391 . S
C357 H345 0.950 . S
C357 C353 1.393 . S
C357 C356 1.391 . S
H358 C366 0.950 . S
H359 C371 0.950 . S
H360 C368 0.950 . S
H361 C370 0.950 . S
H362 C372 0.949 1_565 S
H363 C374 0.950 . S
H364 C376 0.950 . S
H365 C377 0.950 . S
C366 H358 0.950 . S
C366 C367 1.386 . S
C366 C368 1.391 . S
C367 C366 1.386 . S
C367 C371 1.393 . S
C368 H360 0.950 . S
C368 C366 1.391 . S
C368 C369 1.400 . S
C369 C368 1.400 . S
C369 C370 1.398 . S
C369 C375 1.491 . S
C370 H361 0.950 . S
C370 C369 1.398 . S
C370 C371 1.391 . S
C371 H359 0.950 . S
C371 C367 1.393 . S
C371 C370 1.391 . S
C372 H362 0.949 1_545 S
C372 C373 1.384 1_545 S
C372 C374 1.394 . S
C373 C372 1.384 1_565 S
C373 C377 1.393 1_565 S
C374 H363 0.950 . S
C374 C372 1.394 . S
C374 C375 1.400 . S
C375 C369 1.491 . S
C375 C374 1.400 . S
C375 C376 1.398 . S
C376 H364 0.950 . S
C376 C375 1.398 . S
C376 C377 1.391 . S
C377 H365 0.950 . S
C377 C373 1.393 1_545 S
C377 C376 1.391 . S
H378 C386 0.950 . S
H379 C391 0.950 . S
H380 C388 0.950 . S
H381 C390 0.950 . S
H382 C392 0.938 1_565 S
H383 C394 0.950 . S
H384 C396 0.950 . S
H385 C397 0.950 . S
C386 H378 0.950 . S
C386 C387 1.386 . S
C386 C388 1.391 . S
C387 C386 1.386 . S
C387 C391 1.393 . S
C388 H380 0.950 . S
C388 C386 1.391 . S
C388 C389 1.400 . S
C389 C388 1.400 . S
C389 C390 1.398 . S
C389 C395 1.491 . S
C390 H381 0.950 . S
C390 C389 1.398 . S
C390 C391 1.391 . S
C391 H379 0.950 . S
C391 C387 1.393 . S
C391 C390 1.391 . S
C392 H382 0.938 1_545 S
C392 C393 1.386 1_545 S
C392 C394 1.391 . S
C393 C392 1.386 1_565 S
C393 C397 1.393 1_565 S
C394 H383 0.950 . S
C394 C392 1.391 . S
C394 C395 1.400 . S
C395 C389 1.491 . S
C395 C394 1.400 . S
C395 C396 1.398 . S
C396 H384 0.950 . S
C396 C395 1.398 . S
C396 C397 1.391 . S
C397 H385 0.950 . S
C397 C393 1.393 1_545 S
C397 C396 1.391 . S
H398 C406 0.950 . S
H399 C411 0.950 . S
H400 C408 0.950 . S
H401 C410 0.950 . S
H402 C412 0.950 . S
H403 C414 0.950 . S
H404 C416 0.950 . S
H405 C417 0.950 . S
C406 H398 0.950 . S
C406 C407 1.386 1_655 S
C406 C408 1.391 . S
C407 C406 1.386 1_455 S
C407 C411 1.393 . S
C408 H400 0.950 . S
C408 C406 1.391 . S
C408 C409 1.400 . S
C409 C408 1.400 . S
C409 C410 1.398 . S
C409 C415 1.491 . S
C410 H401 0.950 . S
C410 C409 1.398 . S
C410 C411 1.391 1_655 S
C411 H399 0.950 . S
C411 C407 1.393 . S
C411 C410 1.391 1_455 S
C412 H402 0.950 . S
C412 C413 1.386 . S
C412 C414 1.391 . S
C413 C412 1.386 . S
C413 C417 1.393 . S
C414 H403 0.950 . S
C414 C412 1.391 . S
C414 C415 1.400 . S
C415 C409 1.491 . S
C415 C414 1.400 . S
C415 C416 1.398 . S
C416 H404 0.950 . S
C416 C415 1.398 . S
C416 C417 1.391 . S
C417 H405 0.950 . S
C417 C413 1.393 . S
C417 C416 1.391 . S
H418 C426 0.950 . S
H419 C431 0.950 . S
H420 C428 0.950 . S
H421 C430 0.950 . S
H422 C432 0.950 . S
H423 C434 0.950 . S
H424 C436 0.950 . S
H425 C437 0.950 . S
C426 H418 0.950 . S
C426 C427 1.386 . S
C426 C428 1.391 . S
C427 C426 1.386 . S
C427 C431 1.393 . S
C428 H420 0.950 . S
C428 C426 1.391 . S
C428 C429 1.400 . S
C429 C428 1.400 . S
C429 C430 1.398 . S
C429 C435 1.491 . S
C430 H421 0.950 . S
C430 C429 1.398 . S
C430 C431 1.391 . S
C431 H419 0.950 . S
C431 C427 1.393 . S
C431 C430 1.391 . S
C432 H422 0.950 . S
C432 C433 1.386 . S
C432 C434 1.391 . S
C433 C432 1.386 . S
C433 C437 1.393 . S
C434 H423 0.950 . S
C434 C432 1.391 . S
C434 C435 1.400 . S
C435 C429 1.491 . S
C435 C434 1.400 . S
C435 C436 1.398 . S
C436 H424 0.950 . S
C436 C435 1.398 . S
C436 C437 1.391 . S
C437 H425 0.950 . S
C437 C433 1.393 . S
C437 C436 1.391 . S
H438 C446 0.950 . S
H439 C451 0.950 . S
H440 C448 0.950 . S
H441 C450 0.950 . S
H442 C452 0.950 . S
H443 C454 0.950 . S
H444 C456 0.950 . S
H445 C457 0.950 . S
C446 H438 0.950 . S
C446 C447 1.386 . S
C446 C448 1.391 . S
C447 C446 1.386 . S
C447 C451 1.393 . S
C448 H440 0.950 . S
C448 C446 1.391 . S
C448 C449 1.400 . S
C449 C448 1.400 . S
C449 C450 1.398 . S
C449 C455 1.491 . S
C450 H441 0.950 . S
C450 C449 1.398 . S
C450 C451 1.391 . S
C451 H439 0.950 . S
C451 C447 1.393 . S
C451 C450 1.391 . S
C452 H442 0.950 . S
C452 C453 1.386 . S
C452 C454 1.391 . S
C453 C452 1.386 . S
C453 C457 1.393 . S
C454 H443 0.950 . S
C454 C452 1.391 . S
C454 C455 1.400 . S
C455 C449 1.491 . S
C455 C454 1.400 . S
C455 C456 1.398 . S
C456 H444 0.950 . S
C456 C455 1.398 . S
C456 C457 1.391 . S
C457 H445 0.950 . S
C457 C453 1.393 . S
C457 C456 1.391 . S
H458 C466 0.950 . S
H459 C471 0.950 . S
H460 C468 0.950 . S
H461 C470 0.950 . S
H462 C472 0.950 . S
H463 C474 0.950 . S
H464 C476 0.950 . S
H465 C477 0.950 . S
C466 H458 0.950 . S
C466 C467 1.386 . S
C466 C468 1.391 . S
C467 C466 1.386 . S
C467 C471 1.393 . S
C468 H460 0.950 . S
C468 C466 1.391 . S
C468 C469 1.400 . S
C469 C468 1.400 . S
C469 C470 1.398 . S
C469 C475 1.491 . S
C470 H461 0.950 . S
C470 C469 1.398 . S
C470 C471 1.391 . S
C471 H459 0.950 . S
C471 C467 1.393 . S
C471 C470 1.391 . S
C472 H462 0.950 . S
C472 C473 1.386 . S
C472 C474 1.391 . S
C473 C472 1.386 . S
C473 C477 1.393 . S
C474 H463 0.950 . S
C474 C472 1.391 . S
C474 C475 1.400 . S
C475 C469 1.491 . S
C475 C474 1.400 . S
C475 C476 1.398 . S
C476 H464 0.950 . S
C476 C475 1.398 . S
C476 C477 1.391 . S
C477 H465 0.950 . S
C477 C473 1.393 . S
C477 C476 1.391 . S
H478 C486 0.950 . S
H479 C491 0.950 . S
H480 C488 0.950 . S
H481 C490 0.950 . S
H482 C492 0.950 . S
H483 C494 0.950 . S
H484 C496 0.950 . S
H485 C497 0.950 . S
C486 H478 0.950 . S
C486 C487 1.386 . S
C486 C488 1.391 . S
C487 C486 1.386 . S
C487 C491 1.393 . S
C488 H480 0.950 . S
C488 C486 1.391 . S
C488 C489 1.400 . S
C489 C488 1.400 . S
C489 C490 1.398 . S
C489 C495 1.491 . S
C490 H481 0.950 . S
C490 C489 1.398 . S
C490 C491 1.391 . S
C491 H479 0.950 . S
C491 C487 1.393 . S
C491 C490 1.391 . S
C492 H482 0.950 . S
C492 C493 1.386 . S
C492 C494 1.391 . S
C493 C492 1.386 . S
C493 C497 1.393 . S
C494 H483 0.950 . S
C494 C492 1.391 . S
C494 C495 1.400 . S
C495 C489 1.491 . S
C495 C494 1.400 . S
C495 C496 1.398 . S
C496 H484 0.950 . S
C496 C495 1.398 . S
C496 C497 1.391 . S
C497 H485 0.950 . S
C497 C493 1.393 . S
C497 C496 1.391 . S
H498 C506 0.950 . S
H499 C511 0.950 . S
H500 C508 0.950 . S
H501 C510 0.950 . S
H502 C512 0.950 . S
H503 C514 0.950 . S
H504 C516 0.950 . S
H505 C517 0.950 . S
C506 H498 0.950 . S
C506 C507 1.386 . S
C506 C508 1.391 . S
C507 C506 1.386 . S
C507 C511 1.393 . S
C508 H500 0.950 . S
C508 C506 1.391 . S
C508 C509 1.400 . S
C509 C508 1.400 . S
C509 C510 1.398 . S
C509 C515 1.491 . S
C510 H501 0.950 . S
C510 C509 1.398 . S
C510 C511 1.391 . S
C511 H499 0.950 . S
C511 C507 1.393 . S
C511 C510 1.391 . S
C512 H502 0.950 . S
C512 C513 1.386 . S
C512 C514 1.391 . S
C513 C512 1.386 . S
C513 C517 1.393 . S
C514 H503 0.950 . S
C514 C512 1.391 . S
C514 C515 1.400 . S
C515 C509 1.491 . S
C515 C514 1.400 . S
C515 C516 1.398 . S
C516 H504 0.950 . S
C516 C515 1.398 . S
C516 C517 1.391 . S
C517 H505 0.950 . S
C517 C513 1.393 . S
C517 C516 1.391 . S
H518 C526 0.950 . S
H519 C531 0.950 . S
H520 C528 0.950 . S
H521 C530 0.950 . S
H522 C532 0.950 . S
H523 C534 0.950 . S
H524 C536 0.950 . S
H525 C537 0.950 . S
C526 H518 0.950 . S
C526 C527 1.386 . S
C526 C528 1.391 . S
C527 C526 1.386 . S
C527 C531 1.393 . S
C528 H520 0.950 . S
C528 C526 1.391 . S
C528 C529 1.400 . S
C529 C528 1.400 . S
C529 C530 1.398 . S
C529 C535 1.491 . S
C530 H521 0.950 . S
C530 C529 1.398 . S
C530 C531 1.391 . S
C531 H519 0.950 . S
C531 C527 1.393 . S
C531 C530 1.391 . S
C532 H522 0.950 . S
C532 C533 1.386 . S
C532 C534 1.391 . S
C533 C532 1.386 . S
C533 C537 1.393 . S
C534 H523 0.950 . S
C534 C532 1.391 . S
C534 C535 1.400 . S
C535 C529 1.491 . S
C535 C534 1.400 . S
C535 C536 1.398 . S
C536 H524 0.950 . S
C536 C535 1.398 . S
C536 C537 1.391 . S
C537 H525 0.950 . S
C537 C533 1.393 . S
C537 C536 1.391 . S
H538 C546 0.950 . S
H539 C551 0.950 . S
H540 C548 0.950 . S
H541 C550 0.950 . S
H542 C552 0.950 . S
H543 C554 0.950 . S
H544 C556 0.950 . S
H545 C557 0.950 . S
C546 H538 0.950 . S
C546 C547 1.386 . S
C546 C548 1.391 . S
C547 C546 1.386 . S
C547 C551 1.393 . S
C548 H540 0.950 . S
C548 C546 1.391 . S
C548 C549 1.400 . S
C549 C548 1.400 . S
C549 C550 1.398 . S
C549 C555 1.491 . S
C550 H541 0.950 . S
C550 C549 1.398 . S
C550 C551 1.391 . S
C551 H539 0.950 . S
C551 C547 1.393 . S
C551 C550 1.391 . S
C552 H542 0.950 . S
C552 C553 1.386 . S
C552 C554 1.391 . S
C553 C552 1.386 . S
C553 C557 1.393 . S
C554 H543 0.950 . S
C554 C552 1.391 . S
C554 C555 1.400 . S
C555 C549 1.491 . S
C555 C554 1.400 . S
C555 C556 1.398 . S
C556 H544 0.950 . S
C556 C555 1.398 . S
C556 C557 1.391 . S
C557 H545 0.950 . S
C557 C553 1.393 . S
C557 C556 1.391 . S
H558 C566 0.950 1_554 S
H559 C571 0.950 . S
H560 C568 0.947 1_554 S
H561 C570 0.950 . S
H562 C572 0.950 . S
H563 C574 0.950 . S
H564 C576 0.950 . S
H565 C577 0.950 . S
C566 H558 0.950 1_556 S
C566 C567 1.386 . S
C566 C568 1.391 . S
C567 C566 1.386 . S
C567 C571 1.393 . S
C568 H560 0.947 1_556 S
C568 C566 1.391 . S
C568 C569 1.400 . S
C569 C568 1.400 . S
C569 C570 1.398 . S
C569 C575 1.491 . S
C570 H561 0.950 . S
C570 C569 1.398 . S
C570 C571 1.391 . S
C571 H559 0.950 . S
C571 C567 1.393 . S
C571 C570 1.391 . S
C572 H562 0.950 . S
C572 C573 1.386 . S
C572 C574 1.391 . S
C573 C572 1.386 . S
C573 C577 1.393 . S
C574 H563 0.950 . S
C574 C572 1.391 . S
C574 C575 1.400 . S
C575 C569 1.491 . S
C575 C574 1.400 . S
C575 C576 1.398 . S
C576 H564 0.950 . S
C576 C575 1.398 . S
C576 C577 1.391 . S
C577 H565 0.950 . S
C577 C573 1.393 . S
C577 C576 1.391 . S
H578 C586 0.950 . S
H579 C591 0.950 . S
H580 C588 0.950 . S
H581 C590 0.950 . S
H582 C592 0.950 . S
H583 C594 0.950 . S
H584 C596 0.950 . S
H585 C597 0.950 . S
C586 H578 0.950 . S
C586 C587 1.386 1_554 S
C586 C588 1.391 . S
C587 C586 1.386 1_556 S
C587 C591 1.393 . S
C588 H580 0.950 . S
C588 C586 1.391 . S
C588 C589 1.400 1_554 S
C589 C588 1.400 1_556 S
C589 C590 1.398 . S
C589 C595 1.491 . S
C590 H581 0.950 . S
C590 C589 1.398 . S
C590 C591 1.391 . S
C591 H579 0.950 . S
C591 C587 1.393 . S
C591 C590 1.391 . S
C592 H582 0.950 . S
C592 C593 1.386 . S
C592 C594 1.391 . S
C593 C592 1.386 . S
C593 C597 1.393 1_556 S
C594 H583 0.950 . S
C594 C592 1.391 . S
C594 C595 1.400 . S
C595 C589 1.491 . S
C595 C594 1.400 . S
C595 C596 1.398 1_556 S
C596 H584 0.950 . S
C596 C595 1.398 1_554 S
C596 C597 1.391 . S
C597 H585 0.950 . S
C597 C593 1.393 1_554 S
C597 C596 1.391 . S
H598 C606 0.950 . S
H599 C611 0.950 . S
H600 C608 0.950 . S
H601 C610 0.950 . S
H602 C612 0.950 . S
H603 C614 0.950 . S
H604 C616 0.950 . S
H605 C617 0.950 . S
C606 H598 0.950 . S
C606 C607 1.386 1_554 S
C606 C608 1.391 . S
C607 C606 1.386 1_556 S
C607 C611 1.393 . S
C608 H600 0.950 . S
C608 C606 1.391 . S
C608 C609 1.400 1_554 S
C609 C608 1.400 1_556 S
C609 C610 1.398 . S
C609 C615 1.491 . S
C610 H601 0.950 . S
C610 C609 1.398 . S
C610 C611 1.391 . S
C611 H599 0.950 . S
C611 C607 1.393 . S
C611 C610 1.391 . S
C612 H602 0.950 . S
C612 C613 1.386 . S
C612 C614 1.391 . S
C613 C612 1.386 . S
C613 C617 1.393 1_556 S
C614 H603 0.950 . S
C614 C612 1.391 . S
C614 C615 1.400 . S
C615 C609 1.491 . S
C615 C614 1.400 . S
C615 C616 1.398 1_556 S
C616 H604 0.950 . S
C616 C615 1.398 1_554 S
C616 C617 1.391 . S
C617 H605 0.950 . S
C617 C613 1.393 1_554 S
C617 C616 1.391 . S
H618 C626 0.950 . S
H619 C631 0.950 . S
H620 C628 0.950 . S
H621 C630 0.950 . S
H622 C632 0.950 . S
H623 C634 0.950 . S
H624 C636 0.950 . S
H625 C637 0.950 . S
C626 H618 0.950 . S
C626 C627 1.386 . S
C626 C628 1.391 . S
C627 C626 1.386 . S
C627 C631 1.393 . S
C628 H620 0.950 . S
C628 C626 1.391 . S
C628 C629 1.400 . S
C629 C628 1.400 . S
C629 C630 1.398 . S
C629 C635 1.491 . S
C630 H621 0.950 . S
C630 C629 1.398 . S
C630 C631 1.391 . S
C631 H619 0.950 . S
C631 C627 1.393 . S
C631 C630 1.391 . S
C632 H622 0.950 . S
C632 C633 1.386 . S
C632 C634 1.391 . S
C633 C632 1.386 . S
C633 C637 1.393 . S
C634 H623 0.950 . S
C634 C632 1.391 . S
C634 C635 1.400 . S
C635 C629 1.491 . S
C635 C634 1.400 . S
C635 C636 1.398 . S
C636 H624 0.950 . S
C636 C635 1.398 . S
C636 C637 1.391 . S
C637 H625 0.950 . S
C637 C633 1.393 . S
C637 C636 1.391 . S
H638 C646 0.950 . S
H639 C651 0.950 . S
H640 C648 0.950 . S
H641 C650 0.950 . S
H642 C652 0.950 . S
H643 C654 0.950 . S
H644 C656 0.950 . S
H645 C657 0.950 . S
C646 H638 0.950 . S
C646 C647 1.386 . S
C646 C648 1.391 . S
C647 C646 1.386 . S
C647 C651 1.393 . S
C648 H640 0.950 . S
C648 C646 1.391 . S
C648 C649 1.400 . S
C649 C648 1.400 . S
C649 C650 1.398 . S
C649 C655 1.491 . S
C650 H641 0.950 . S
C650 C649 1.398 . S
C650 C651 1.391 . S
C651 H639 0.950 . S
C651 C647 1.393 . S
C651 C650 1.391 . S
C652 H642 0.950 . S
C652 C653 1.386 . S
C652 C654 1.391 . S
C653 C652 1.386 . S
C653 C657 1.393 . S
C654 H643 0.950 . S
C654 C652 1.391 . S
C654 C655 1.400 . S
C655 C649 1.491 . S
C655 C654 1.400 . S
C655 C656 1.398 . S
C656 H644 0.950 . S
C656 C655 1.398 . S
C656 C657 1.391 . S
C657 H645 0.950 . S
C657 C653 1.393 . S
C657 C656 1.391 . S
H658 C666 0.950 . S
H659 C671 0.950 . S
H660 C668 0.950 . S
H661 C670 0.950 . S
H662 C672 0.950 . S
H663 C674 0.950 . S
H664 C676 0.950 . S
H665 C677 0.950 . S
C666 H658 0.950 . S
C666 C667 1.386 . S
C666 C668 1.391 . S
C667 C666 1.386 . S
C667 C671 1.393 . S
C668 H660 0.950 . S
C668 C666 1.391 . S
C668 C669 1.400 . S
C669 C668 1.400 . S
C669 C670 1.398 . S
C669 C675 1.491 . S
C670 H661 0.950 . S
C670 C669 1.398 . S
C670 C671 1.391 . S
C671 H659 0.950 . S
C671 C667 1.393 . S
C671 C670 1.391 . S
C672 H662 0.950 . S
C672 C673 1.386 . S
C672 C674 1.391 . S
C673 C672 1.386 . S
C673 C677 1.393 . S
C674 H663 0.950 . S
C674 C672 1.391 . S
C674 C675 1.400 . S
C675 C669 1.491 . S
C675 C674 1.400 . S
C675 C676 1.398 . S
C676 H664 0.950 . S
C676 C675 1.398 . S
C676 C677 1.391 . S
C677 H665 0.950 . S
C677 C673 1.393 . S
C677 C676 1.391 . S
H678 C686 0.950 . S
H679 C691 0.950 . S
H680 C688 0.950 . S
H681 C690 0.950 . S
H682 C692 0.950 . S
H683 C694 0.950 . S
H684 C696 0.950 . S
H685 C697 0.950 . S
C686 H678 0.950 . S
C686 C687 1.386 . S
C686 C688 1.391 1_455 S
C687 C686 1.386 . S
C687 C691 1.393 . S
C688 H680 0.950 . S
C688 C686 1.391 1_655 S
C688 C689 1.400 . S
C689 C688 1.400 . S
C689 C690 1.398 . S
C689 C695 1.491 . S
C690 H681 0.950 . S
C690 C689 1.398 . S
C690 C691 1.391 1_655 S
C691 H679 0.950 . S
C691 C687 1.393 . S
C691 C690 1.391 1_455 S
C692 H682 0.950 . S
C692 C693 1.386 . S
C692 C694 1.391 . S
C693 C692 1.386 . S
C693 C697 1.393 . S
C694 H683 0.950 . S
C694 C692 1.391 . S
C694 C695 1.400 . S
C695 C689 1.491 . S
C695 C694 1.400 . S
C695 C696 1.398 . S
C696 H684 0.950 . S
C696 C695 1.398 . S
C696 C697 1.391 . S
C697 H685 0.950 . S
C697 C693 1.393 . S
C697 C696 1.391 . S
H698 C706 0.950 . S
H699 C711 0.950 1_565 S
H700 C708 0.950 . S
H701 C710 0.950 . S
H702 C712 0.950 . S
H703 C714 0.950 . S
H704 C716 0.950 . S
H705 C717 0.950 . S
C706 H698 0.950 . S
C706 C707 1.386 . S
C706 C708 1.391 1_565 S
C707 C706 1.386 . S
C707 C711 1.393 1_565 S
C708 H700 0.950 . S
C708 C706 1.391 1_545 S
C708 C709 1.400 . S
C709 C708 1.400 . S
C709 C710 1.398 . S
C709 C715 1.491 . S
C710 H701 0.950 . S
C710 C709 1.398 . S
C710 C711 1.391 . S
C711 H699 0.950 1_545 S
C711 C707 1.393 1_545 S
C711 C710 1.391 . S
C712 H702 0.950 . S
C712 C713 1.386 . S
C712 C714 1.391 . S
C713 C712 1.386 . S
C713 C717 1.393 . S
C714 H703 0.950 . S
C714 C712 1.391 . S
C714 C715 1.400 . S
C715 C709 1.491 . S
C715 C714 1.400 . S
C715 C716 1.398 . S
C716 H704 0.950 . S
C716 C715 1.398 . S
C716 C717 1.391 . S
C717 H705 0.950 . S
C717 C713 1.393 . S
C717 C716 1.391 . S
H718 C726 0.950 . S
H719 C731 0.949 . S
H720 C728 0.950 . S
H721 C730 0.950 . S
H722 C732 0.950 1_455 S
H723 C734 0.950 . S
H724 C736 0.950 . S
H725 C737 0.950 . S
C726 H718 0.950 . S
C726 C727 1.386 . S
C726 C728 1.391 1_565 S
C727 C726 1.386 . S
C727 C731 1.393 1_565 S
C728 H720 0.950 . S
C728 C726 1.391 1_545 S
C728 C729 1.400 . S
C729 C728 1.400 . S
C729 C730 1.398 . S
C729 C735 1.491 . S
C730 H721 0.950 . S
C730 C729 1.398 . S
C730 C731 1.391 . S
C731 H719 0.949 . S
C731 C727 1.393 1_545 S
C731 C730 1.391 . S
C732 H722 0.950 1_655 S
C732 C733 1.386 1_655 S
C732 C734 1.391 . S
C733 C732 1.386 1_455 S
C733 C737 1.393 . S
C734 H723 0.950 . S
C734 C732 1.391 . S
C734 C735 1.400 . S
C735 C729 1.491 . S
C735 C734 1.400 . S
C735 C736 1.398 . S
C736 H724 0.950 . S
C736 C735 1.398 . S
C736 C737 1.391 1_655 S
C737 H725 0.950 . S
C737 C733 1.393 . S
C737 C736 1.391 1_455 S
C207 C18 1.256 . S
C213 C164 1.245 . S
C227 C30 1.264 . S
C233 C194 1.220 . S
C247 C142 1.244 . S
C253 C62 1.256 . S
C267 C169 1.351 . S
C273 C51 1.345 . S
C287 C183 1.338 . S
C293 C7 1.350 . S
C307 C147 1.344 . S
C313 C43 1.351 . S
C327 C40 1.220 . S
C333 C84 1.264 . S
C347 C106 1.263 . S
C353 C54 1.222 . S
C367 C10 1.230 . S
C373 C120 1.261 . S
C387 C29 1.353 . S
C393 C125 1.341 . S
C407 C73 1.347 . S
C413 C59 1.348 . S
C427 C15 1.353 . S
C433 C95 1.336 . S
C447 C150 1.259 . S
C453 C98 1.233 . S
C467 C118 1.223 . S
C473 C172 1.264 . S
C487 C184 1.256 . S
C493 C76 1.244 . S
C507 C197 1.339 . S
C513 C103 1.348 . S
C527 C131 1.339 . S
C533 C139 1.354 . S
C547 C81 1.341 . S
C553 C161 1.347 . S
C567 C8 0.890 . S
C573 C37 0.888 . S
C587 C65 0.888 . S
C593 C32 0.890 . S
C607 C52 0.903 . S
C613 C21 0.869 . S
C627 C109 0.888 . S
C633 C74 0.894 . S
C647 C117 0.894 . S
C653 C96 0.886 . S
C667 C128 0.902 . S
C673 C87 0.875 . S
C687 C175 0.869 . S
C693 C140 0.903 . S
C707 C162 0.881 . S
C713 C191 0.903 . S
C727 C153 0.904 . S
C733 C186 0.882 . S
