# Generated by pormake.
# Topology upc, (4)-cn, num edge types: 1
# Building blocks:
#     Node 0, Type 0, BuildingBlock: KOZSID_clean_sbu_0, # of connection points: 4
#     Node 1, Type 0, BuildingBlock: KOZSID_clean_sbu_0, # of connection points: 4
#     Node 2, Type 0, BuildingBlock: KOZSID_clean_sbu_0, # of connection points: 4
#     Node 3, Type 0, BuildingBlock: KOZSID_clean_sbu_0, # of connection points: 4
#     Node 4, Type 0, BuildingBlock: KOZSID_clean_sbu_0, # of connection points: 4
#     Node 5, Type 0, BuildingBlock: KOZSID_clean_sbu_0, # of connection points: 4
#     Node 6, Type 0, BuildingBlock: KOZSID_clean_sbu_0, # of connection points: 4
#     Node 7, Type 0, BuildingBlock: KOZSID_clean_sbu_0, # of connection points: 4
#     Node 8, Type 0, BuildingBlock: KOZSID_clean_sbu_0, # of connection points: 4
#     Node 9, Type 0, BuildingBlock: KOZSID_clean_sbu_0, # of connection points: 4
#     Node 10, Type 0, BuildingBlock: KOZSID_clean_sbu_0, # of connection points: 4
#     Node 11, Type 0, BuildingBlock: KOZSID_clean_sbu_0, # of connection points: 4
#     Node 12, Type 0, BuildingBlock: KOZSID_clean_sbu_0, # of connection points: 4
#     Node 13, Type 0, BuildingBlock: KOZSID_clean_sbu_0, # of connection points: 4
#     Node 14, Type 0, BuildingBlock: KOZSID_clean_sbu_0, # of connection points: 4
#     Node 15, Type 0, BuildingBlock: KOZSID_clean_sbu_0, # of connection points: 4
#     Edge 16, Type (0, 0), BuildingBlock: EZIPEK_clean_linker_0, # of connection points: 2
#     Edge 17, Type (0, 0), BuildingBlock: EZIPEK_clean_linker_0, # of connection points: 2
#     Edge 18, Type (0, 0), BuildingBlock: EZIPEK_clean_linker_0, # of connection points: 2
#     Edge 19, Type (0, 0), BuildingBlock: EZIPEK_clean_linker_0, # of connection points: 2
#     Edge 20, Type (0, 0), BuildingBlock: EZIPEK_clean_linker_0, # of connection points: 2
#     Edge 21, Type (0, 0), BuildingBlock: EZIPEK_clean_linker_0, # of connection points: 2
#     Edge 22, Type (0, 0), BuildingBlock: EZIPEK_clean_linker_0, # of connection points: 2
#     Edge 23, Type (0, 0), BuildingBlock: EZIPEK_clean_linker_0, # of connection points: 2
#     Edge 24, Type (0, 0), BuildingBlock: EZIPEK_clean_linker_0, # of connection points: 2
#     Edge 25, Type (0, 0), BuildingBlock: EZIPEK_clean_linker_0, # of connection points: 2
#     Edge 26, Type (0, 0), BuildingBlock: EZIPEK_clean_linker_0, # of connection points: 2
#     Edge 27, Type (0, 0), BuildingBlock: EZIPEK_clean_linker_0, # of connection points: 2
#     Edge 28, Type (0, 0), BuildingBlock: EZIPEK_clean_linker_0, # of connection points: 2
#     Edge 29, Type (0, 0), BuildingBlock: EZIPEK_clean_linker_0, # of connection points: 2
#     Edge 30, Type (0, 0), BuildingBlock: EZIPEK_clean_linker_0, # of connection points: 2
#     Edge 31, Type (0, 0), BuildingBlock: EZIPEK_clean_linker_0, # of connection points: 2
#     Edge 32, Type (0, 0), BuildingBlock: EZIPEK_clean_linker_0, # of connection points: 2
#     Edge 33, Type (0, 0), BuildingBlock: EZIPEK_clean_linker_0, # of connection points: 2
#     Edge 34, Type (0, 0), BuildingBlock: EZIPEK_clean_linker_0, # of connection points: 2
#     Edge 35, Type (0, 0), BuildingBlock: EZIPEK_clean_linker_0, # of connection points: 2
#     Edge 36, Type (0, 0), BuildingBlock: EZIPEK_clean_linker_0, # of connection points: 2
#     Edge 37, Type (0, 0), BuildingBlock: EZIPEK_clean_linker_0, # of connection points: 2
#     Edge 38, Type (0, 0), BuildingBlock: EZIPEK_clean_linker_0, # of connection points: 2
#     Edge 39, Type (0, 0), BuildingBlock: EZIPEK_clean_linker_0, # of connection points: 2
#     Edge 40, Type (0, 0), BuildingBlock: EZIPEK_clean_linker_0, # of connection points: 2
#     Edge 41, Type (0, 0), BuildingBlock: EZIPEK_clean_linker_0, # of connection points: 2
#     Edge 42, Type (0, 0), BuildingBlock: EZIPEK_clean_linker_0, # of connection points: 2
#     Edge 43, Type (0, 0), BuildingBlock: EZIPEK_clean_linker_0, # of connection points: 2
#     Edge 44, Type (0, 0), BuildingBlock: EZIPEK_clean_linker_0, # of connection points: 2
#     Edge 45, Type (0, 0), BuildingBlock: EZIPEK_clean_linker_0, # of connection points: 2
#     Edge 46, Type (0, 0), BuildingBlock: EZIPEK_clean_linker_0, # of connection points: 2
#     Edge 47, Type (0, 0), BuildingBlock: EZIPEK_clean_linker_0, # of connection points: 2
# Relax obj value: 0.200
# Max RMSD: 0.236
# Mean RMSD: 0.229
data_MOF--net-upc--node1-KOZSID_clean_sbu_0--edge1-EZIPEK_clean_linker_0
_symmetry_space_group_name_H-M    P1
_symmetry_Int_Tables_number       1
_symmetry_cell_setting            triclinic
loop_
_symmetry_equiv_pos_as_xyz
'x, y, z'
_cell_length_a     34.430222
_cell_length_b     34.602841
_cell_length_c     35.939072
_cell_angle_alpha  89.726125
_cell_angle_beta   89.754692
_cell_angle_gamma 90.068348
loop_
_atom_site_label
_atom_site_type_symbol
_atom_site_fract_x
_atom_site_fract_y
_atom_site_fract_z
_atom_type_partial_charge
C0 C 0.26008 0.65314 0.13021 0.0
C1 C 0.2992 0.64521 0.13464 0.0
C2 C 0.30211 0.60691 0.14455 0.0
C3 C 0.26472 0.59289 0.14561 0.0
N4 N 0.23832 0.61981 0.13631 0.0
Co5 Co 0.18059 0.61041 0.13899 0.0
N6 N 0.18384 0.56381 0.17243 0.0
C7 C 0.21754 0.54588 0.18038 0.0
C8 C 0.21374 0.51933 0.20864 0.0
C9 C 0.17522 0.5201 0.21877 0.0
C10 C 0.1567 0.5462 0.19531 0.0
N11 N 0.12307 0.60202 0.14153 0.0
C12 C 0.10006 0.57756 0.16264 0.0
C13 C 0.06181 0.58001 0.15079 0.0
C14 C 0.06072 0.60699 0.12255 0.0
C15 C 0.09835 0.61932 0.11776 0.0
N16 N 0.17824 0.65974 0.10871 0.0
C17 C 0.14603 0.67165 0.09092 0.0
C18 C 0.15015 0.70813 0.07593 0.0
C19 C 0.18699 0.72024 0.0853 0.0
C20 C 0.20389 0.69068 0.10558 0.0
N21 N 0.17979 0.5766 0.09326 0.0
C22 C 0.13755 0.53346 0.03961 0.0
C23 C 0.15006 0.5714 0.03204 0.0
C24 C 0.17237 0.59184 0.05858 0.0
C25 C 0.1519 0.51599 0.07179 0.0
C26 C 0.17318 0.53753 0.09764 0.0
N27 N 0.17821 0.64113 0.18277 0.0
C28 C 0.14357 0.68878 0.21589 0.0
C29 C 0.16628 0.68114 0.24696 0.0
C30 C 0.1944 0.65245 0.24632 0.0
C31 C 0.20113 0.63368 0.21296 0.0
C32 C 0.14954 0.66798 0.18442 0.0
H33 H 0.22446 0.6132 0.21184 0.0
H34 H 0.13073 0.67385 0.16155 0.0
H35 H 0.18129 0.62077 0.05149 0.0
H36 H 0.18134 0.52196 0.12213 0.0
C37 C 0.25286 0.55973 0.16549 0.0
C38 C 0.24507 0.69282 0.11995 0.0
C39 C 0.11314 0.55095 0.19348 0.0
C40 C 0.11092 0.6507 0.09522 0.0
H41 H 0.32315 0.66528 0.13216 0.0
H42 H 0.32824 0.59203 0.15314 0.0
H43 H 0.23662 0.50283 0.22178 0.0
H44 H 0.1625 0.50322 0.24106 0.0
H45 H 0.03711 0.56401 0.16141 0.0
H46 H 0.03526 0.61694 0.10779 0.0
H47 H 0.12822 0.72492 0.06169 0.0
H48 H 0.19985 0.74796 0.07858 0.0
H49 H 0.1414 0.58572 0.00654 0.0
H50 H 0.14466 0.48619 0.07816 0.0
H51 H 0.12188 0.71147 0.21556 0.0
H52 H 0.21197 0.64626 0.27049 0.0
C53 C 0.85623 0.22113 0.12464 0.0
C54 C 0.86961 0.2588 0.12133 0.0
C55 C 0.90936 0.25723 0.11772 0.0
C56 C 0.91915 0.21881 0.12008 0.0
N57 N 0.88783 0.19567 0.12455 0.0
Co58 Co 0.89214 0.13999 0.14205 0.0
N59 N 0.94928 0.14114 0.1525 0.0
C60 C 0.97311 0.16947 0.14042 0.0
C61 C 1.0107 0.16429 0.15234 0.0
C62 C 1.01045 0.13083 0.1733 0.0
C63 C 0.97262 0.11719 0.17348 0.0
N64 N 0.89372 0.08585 0.16299 0.0
C65 C 0.92096 0.06686 0.18407 0.0
C66 C 0.90724 0.03094 0.19531 0.0
C67 C 0.87045 0.02725 0.18131 0.0
C68 C 0.86342 0.06111 0.16249 0.0
N69 N 0.83442 0.13909 0.13138 0.0
C70 C 0.81334 0.10627 0.13034 0.0
C71 C 0.77519 0.11237 0.12103 0.0
C72 C 0.77138 0.15154 0.11662 0.0
C73 C 0.80726 0.16781 0.12429 0.0
N74 N 0.90608 0.1196 0.09056 0.0
C75 C 0.95728 0.08236 0.03868 0.0
C76 C 0.92849 0.06176 0.058 0.0
C77 C 0.903 0.08077 0.08277 0.0
C78 C 0.95607 0.12277 0.04198 0.0
C79 C 0.92968 0.14064 0.06696 0.0
N80 N 0.88316 0.15851 0.19205 0.0
C81 C 0.8543 0.15032 0.25182 0.0
C82 C 0.87739 0.18059 0.2659 0.0
C83 C 0.90633 0.19603 0.24351 0.0
C84 C 0.90785 0.18556 0.20657 0.0
C85 C 0.85693 0.1406 0.21462 0.0
H86 H 0.92899 0.20026 0.1902 0.0
H87 H 0.83737 0.11912 0.2041 0.0
H88 H 0.88212 0.06283 0.09633 0.0
H89 H 0.9301 0.1715 0.06781 0.0
C90 C 0.95721 0.20427 0.12615 0.0
C91 C 0.81296 0.21093 0.12651 0.0
C92 C 0.96016 0.08143 0.19397 0.0
C93 C 0.82818 0.07194 0.14575 0.0
H94 H 0.85244 0.28494 0.12206 0.0
H95 H 0.92903 0.28162 0.11631 0.0
H96 H 0.03495 0.18382 0.14838 0.0
H97 H 0.03503 0.11843 0.18772 0.0
H98 H 0.92213 1.00973 0.21224 0.0
H99 H 0.85076 1.00317 0.18534 0.0
H100 H 0.75215 0.09109 0.11997 0.0
H101 H 0.74467 0.16663 0.11035 0.0
H102 H 0.92654 0.03068 0.05508 0.0
H103 H 0.97626 0.14052 0.02624 0.0
H104 H 0.83176 0.13648 0.26805 0.0
H105 H 0.92512 0.21887 0.25335 0.0
C106 C 0.34174 0.88069 0.12397 0.0
C107 C 0.30397 0.89194 0.11655 0.0
C108 C 0.30219 0.93114 0.122 0.0
C109 C 0.33899 0.94237 0.13205 0.0
N110 N 0.36443 0.91277 0.1326 0.0
Co111 Co 0.42052 0.91869 0.14909 0.0
N112 N 0.41372 0.97157 0.1715 0.0
C113 C 0.38031 0.9918 0.16994 0.0
C114 C 0.38217 0.0263 0.18862 0.0
C115 C 0.41887 0.0279 0.20338 0.0
C116 C 0.43776 0.99432 0.19285 0.0
N117 N 0.4764 0.92377 0.16477 0.0
C118 C 0.4959 0.95109 0.18531 0.0
C119 C 0.53488 0.94167 0.18821 0.0
C120 C 0.54012 0.90771 0.1693 0.0
C121 C 0.50419 0.89806 0.15569 0.0
N122 N 0.42537 0.86389 0.12936 0.0
C123 C 0.4595 0.84487 0.12748 0.0
C124 C 0.45574 0.80723 0.11631 0.0
C125 C 0.41671 0.80124 0.11187 0.0
C126 C 0.39802 0.83561 0.12057 0.0
N127 N 0.43635 0.94283 0.09962 0.0
C128 C 0.47877 0.98674 0.04538 0.0
C129 C 0.48536 0.94712 0.05034 0.0
C130 C 0.46365 0.92581 0.07691 0.0
C131 C 0.44779 1.00283 0.06514 0.0
C132 C 0.42675 0.98049 0.0912 0.0
N133 N 0.40703 0.89685 0.1975 0.0
C134 C 0.35413 0.87497 0.23486 0.0
C135 C 0.37639 0.84301 0.24462 0.0
C136 C 0.4166 0.84459 0.24026 0.0
C137 C 0.43144 0.8716 0.21519 0.0
C138 C 0.37066 0.90253 0.21173 0.0
H139 H 0.46125 0.86844 0.20723 0.0
H140 H 0.35226 0.92528 0.20204 0.0
H141 H 0.47043 0.89585 0.07922 0.0
H142 H 0.40366 0.99506 0.10497 0.0
C143 C 0.34813 0.97727 0.15018 0.0
C144 C 0.35409 0.83883 0.12271 0.0
C145 C 0.47895 0.98614 0.20295 0.0
C146 C 0.4941 0.86261 0.13933 0.0
H147 H 0.27981 0.87338 0.10948 0.0
H148 H 0.27629 0.94884 0.12153 0.0
H149 H 0.35949 0.04774 0.19132 0.0
H150 H 0.43056 0.05125 0.21987 0.0
H151 H 0.55711 0.9574 0.20304 0.0
H152 H 0.5667 0.89121 0.16706 0.0
H153 H 0.47857 0.78593 0.1136 0.0
H154 H 0.40357 0.77378 0.10525 0.0
H155 H 0.50807 0.93286 0.03464 0.0
H156 H 0.44045 0.03301 0.06125 0.0
H157 H 0.32322 0.87595 0.24064 0.0
H158 H 0.43484 0.82104 0.24969 0.0
C159 C 0.62706 0.30715 0.13965 0.0
C160 C 0.61818 0.26808 0.13879 0.0
C161 C 0.58013 0.26437 0.14985 0.0
C162 C 0.56713 0.30129 0.15629 0.0
N163 N 0.59435 0.32828 0.14939 0.0
Co164 Co 0.58443 0.38531 0.15553 0.0
N165 N 0.53774 0.37894 0.18859 0.0
C166 C 0.52085 0.34451 0.19543 0.0
C167 C 0.49624 0.34549 0.22551 0.0
C168 C 0.49688 0.383 0.23775 0.0
C169 C 0.52032 0.40394 0.21334 0.0
N170 N 0.57473 0.44202 0.16069 0.0
C171 C 0.54761 0.46278 0.18074 0.0
C172 C 0.54727 0.50084 0.16818 0.0
C173 C 0.57569 0.50429 0.14135 0.0
C174 C 0.59118 0.46801 0.13749 0.0
N175 N 0.6342 0.39012 0.12568 0.0
C176 C 0.64595 0.42371 0.11028 0.0
C177 C 0.68362 0.42205 0.09754 0.0
C178 C 0.69652 0.38523 0.1054 0.0
C179 C 0.66594 0.36535 0.12194 0.0
N180 N 0.55071 0.38882 0.10969 0.0
C181 C 0.5092 0.43158 0.05445 0.0
C182 C 0.54685 0.4174 0.04755 0.0
C183 C 0.56653 0.39519 0.07496 0.0
C184 C 0.49128 0.41936 0.08742 0.0
C185 C 0.512 0.39802 0.11411 0.0
N186 N 0.61565 0.38577 0.19974 0.0
C187 C 0.66782 0.41582 0.23133 0.0
C188 C 0.66548 0.38796 0.2594 0.0
C189 C 0.63464 0.36166 0.25953 0.0
C190 C 0.6109 0.35984 0.22824 0.0
C191 C 0.64211 0.41479 0.20256 0.0
H192 H 0.58967 0.33711 0.22681 0.0
H193 H 0.64519 0.43669 0.18173 0.0
H194 H 0.59553 0.3856 0.06853 0.0
H195 H 0.49642 0.39217 0.13936 0.0
C196 C 0.53445 0.31088 0.17787 0.0
C197 C 0.66741 0.32235 0.13167 0.0
C198 C 0.52146 0.44759 0.21142 0.0
C199 C 0.62361 0.45762 0.11534 0.0
H200 H 0.63769 0.24452 0.13236 0.0
H201 H 0.56475 0.23762 0.15531 0.0
H202 H 0.48129 0.32134 0.23842 0.0
H203 H 0.48147 0.39346 0.26192 0.0
H204 H 0.52836 0.52391 0.17722 0.0
H205 H 0.58391 0.53025 0.12635 0.0
H206 H 0.70067 0.44557 0.08604 0.0
H207 H 0.72548 0.37459 0.09998 0.0
H208 H 0.56164 0.42472 0.02182 0.0
H209 H 0.46182 0.4283 0.09365 0.0
H210 H 0.69087 0.43716 0.23019 0.0
H211 H 0.63113 0.34072 0.2818 0.0
C212 C 0.20445 0.8787 0.361 0.0
C213 C 0.24272 0.88025 0.34898 0.0
C214 C 0.24754 0.91465 0.33058 0.0
C215 C 0.21198 0.93254 0.33168 0.0
N216 N 0.18467 0.91179 0.34985 0.0
Co217 Co 0.12808 0.92782 0.3525 0.0
N218 N 0.13234 0.96757 0.31173 0.0
C219 C 0.16632 0.98083 0.29809 0.0
C220 C 0.16184 1.00793 0.27042 0.0
C221 C 0.1225 1.01232 0.26635 0.0
C222 C 0.10488 0.98755 0.29177 0.0
N223 N 0.07209 0.94298 0.35529 0.0
C224 C 0.04916 0.96512 0.33216 0.0
C225 C 1.01149 0.96633 0.34584 0.0
C226 C 1.01095 0.94493 0.37831 0.0
C227 C 0.04833 0.93187 0.38322 0.0
N228 N 0.12503 0.88517 0.39136 0.0
C229 C 0.09446 0.88095 0.41455 0.0
C230 C 0.09822 0.84941 0.43772 0.0
C231 C 0.13314 0.83242 0.42848 0.0
C232 C 0.14929 0.85409 0.39981 0.0
N233 N 0.13765 0.96824 0.39153 0.0
C234 C 0.10333 1.01893 0.444 0.0
C235 C 0.11756 0.98256 0.4549 0.0
C236 C 0.13634 0.95854 0.42865 0.0
C237 C 0.11311 0.03171 0.40823 0.0
C238 C 0.13042 1.00635 0.38276 0.0
N239 N 0.11461 0.89022 0.31555 0.0
C240 C 0.08632 0.82836 0.31004 0.0
C241 C 0.11336 0.82022 0.28236 0.0
C242 C 0.13198 0.85107 0.26394 0.0
C243 C 0.13443 0.88601 0.2829 0.0
C244 C 0.08587 0.86475 0.3246 0.0
H245 H 0.15529 0.90724 0.27365 0.0
H246 H 0.0664 0.86942 0.34726 0.0
H247 H 0.14668 0.93086 0.43818 0.0
H248 H 0.13438 1.01773 0.35528 0.0
C249 C 0.20137 0.96404 0.3093 0.0
C250 C 0.18868 0.84477 0.3828 0.0
C251 C 0.06221 0.98661 0.29793 0.0
C252 C 0.06089 0.90417 0.40979 0.0
H253 H 0.26472 0.8583 0.35221 0.0
H254 H 0.27333 0.92422 0.31584 0.0
H255 H 0.18447 0.02229 0.25456 0.0
H256 H 0.10838 0.03196 0.2472 0.0
H257 H 0.987 0.98123 0.33366 0.0
H258 H 0.98597 0.93894 0.3958 0.0
H259 H 0.07737 0.83904 0.45806 0.0
H260 H 0.14528 0.80671 0.44112 0.0
H261 H 0.11273 0.97205 0.48297 0.0
H262 H 0.10459 0.06031 0.39897 0.0
H263 H 0.07007 0.80612 0.3246 0.0
H264 H 0.15142 0.8459 0.2407 0.0
C265 C 0.67204 0.22435 0.39605 0.0
C266 C 0.65784 0.25965 0.40815 0.0
C267 C 0.61938 0.26128 0.39792 0.0
C268 C 0.61128 0.22634 0.38154 0.0
N269 N 0.64185 0.20229 0.38184 0.0
Co270 Co 0.63885 0.14758 0.36279 0.0
N271 N 0.59055 0.1554 0.33259 0.0
C272 C 0.57011 0.18858 0.33271 0.0
C273 C 0.5381 0.18715 0.31001 0.0
C274 C 0.53827 0.15081 0.29461 0.0
C275 C 0.57024 0.13159 0.30889 0.0
N276 N 0.63582 0.09235 0.34626 0.0
C277 C 0.61069 0.07284 0.32328 0.0
C278 C 0.61932 0.03372 0.323 0.0
C279 C 0.65018 0.02841 0.34655 0.0
C280 C 0.65889 0.06444 0.36007 0.0
N281 N 0.69011 0.14268 0.38971 0.0
C282 C 0.70705 0.10835 0.39651 0.0
C283 C 0.743 0.11179 0.41222 0.0
C284 C 0.75046 0.15075 0.41353 0.0
C285 C 0.71831 0.17002 0.39921 0.0
N286 N 0.60655 0.13039 0.40789 0.0
C287 C 0.55977 0.08521 0.4587 0.0
C288 C 0.6003 0.08808 0.46259 0.0
C289 C 0.62274 0.11132 0.43781 0.0
C290 C 0.54314 0.10813 0.43091 0.0
C291 C 0.56647 0.13018 0.40641 0.0
N292 N 0.66935 0.16196 0.31853 0.0
C293 C 0.72883 0.14707 0.28682 0.0
C294 C 0.74055 0.18524 0.29265 0.0
C295 C 0.71171 0.21266 0.29937 0.0
C296 C 0.67499 0.20012 0.31036 0.0
C297 C 0.69314 0.13549 0.30167 0.0
H298 H 0.65349 0.22155 0.31722 0.0
H299 H 0.68772 0.10498 0.30318 0.0
H300 H 0.65328 0.11267 0.44306 0.0
H301 H 0.55069 0.14575 0.38578 0.0
C302 C 0.58005 0.21863 0.3574 0.0
C303 C 0.71492 0.21418 0.39606 0.0
C304 C 0.57794 0.08975 0.30172 0.0
C305 C 0.69062 0.07409 0.38269 0.0
H306 H 0.67444 0.28301 0.4202 0.0
H307 H 0.60058 0.28628 0.39945 0.0
H308 H 0.51644 0.2094 0.30604 0.0
H309 H 0.5165 0.13922 0.2761 0.0
H310 H 0.60475 1.01133 0.30742 0.0
H311 H 0.66495 1.00151 0.35255 0.0
H312 H 0.76321 0.08873 0.41843 0.0
H313 H 0.77841 0.16234 0.42061 0.0
H314 H 0.61478 0.07199 0.4844 0.0
H315 H 0.51193 0.10798 0.42716 0.0
H316 H 0.74949 0.12539 0.27785 0.0
H317 H 0.71841 0.24308 0.29892 0.0
C318 C 0.2851 0.65628 0.39754 0.0
C319 C 0.24897 0.64432 0.41044 0.0
C320 C 0.24618 0.60533 0.40345 0.0
C321 C 0.28122 0.59479 0.38806 0.0
N322 N 0.30633 0.62445 0.38585 0.0
Co323 Co 0.36184 0.61748 0.36913 0.0
N324 N 0.35375 0.56644 0.3441 0.0
C325 C 0.31887 0.54881 0.34325 0.0
C326 C 0.31682 0.52095 0.31631 0.0
C327 C 0.35272 0.52071 0.29939 0.0
C328 C 0.37597 0.5471 0.31803 0.0
N329 N 0.41779 0.61022 0.35525 0.0
C330 C 0.43726 0.58074 0.33762 0.0
C331 C 0.47691 0.58407 0.34407 0.0
C332 C 0.48252 0.6176 0.36362 0.0
C333 C 0.44609 0.63238 0.36958 0.0
N334 N 0.36768 0.6718 0.38914 0.0
C335 C 0.40242 0.68973 0.39075 0.0
C336 C 0.39926 0.72923 0.39187 0.0
C337 C 0.36023 0.73707 0.39064 0.0
C338 C 0.34074 0.70194 0.3905 0.0
N339 N 0.37584 0.59147 0.41766 0.0
C340 C 0.4233 0.54913 0.46816 0.0
C341 C 0.42223 0.58966 0.46873 0.0
C342 C 0.39781 0.61015 0.44394 0.0
C343 C 0.39666 0.53047 0.44521 0.0
C344 C 0.37291 0.55191 0.421 0.0
N345 N 0.35047 0.64139 0.3218 0.0
C346 C 0.36807 0.69255 0.28089 0.0
C347 C 0.32891 0.69793 0.27279 0.0
C348 C 0.30184 0.67025 0.28368 0.0
C349 C 0.31354 0.64131 0.30797 0.0
C350 C 0.37832 0.66385 0.30541 0.0
H351 H 0.29181 0.62154 0.31805 0.0
H352 H 0.4081 0.66328 0.31377 0.0
H353 H 0.39874 0.6411 0.44511 0.0
H354 H 0.3539 0.53534 0.40386 0.0
C355 C 0.28813 0.56162 0.36632 0.0
C356 C 0.29657 0.69847 0.39366 0.0
C357 C 0.41959 0.55063 0.31281 0.0
C358 C 0.43701 0.66907 0.38396 0.0
H359 H 0.22594 0.66243 0.42115 0.0
H360 H 0.22044 0.58757 0.40644 0.0
H361 H 0.29175 0.50381 0.30881 0.0
H362 H 0.36057 0.50287 0.27596 0.0
H363 H 0.4997 0.56485 0.33487 0.0
H364 H 0.51002 0.63011 0.37173 0.0
H365 H 0.42268 0.7501 0.3908 0.0
H366 H 0.34783 0.76568 0.38909 0.0
H367 H 0.4413 0.60549 0.48708 0.0
H368 H 0.39526 0.4992 0.44481 0.0
H369 H 0.39003 0.71301 0.27168 0.0
H370 H 0.2717 0.6729 0.27651 0.0
C371 C 0.89316 0.3103 0.35874 0.0
C372 C 0.89724 0.2715 0.35081 0.0
C373 C 0.93073 0.26739 0.33054 0.0
C374 C 0.94556 0.30398 0.32665 0.0
N375 N 0.92439 0.33094 0.34432 0.0
Co376 Co 0.93958 0.38733 0.34526 0.0
N377 N 0.97582 0.38414 0.30136 0.0
C378 C 0.98586 0.3506 0.28514 0.0
C379 C 1.00624 0.35559 0.25264 0.0
C380 C 1.01029 0.39474 0.2484 0.0
C381 C 0.99345 0.4119 0.27941 0.0
N382 N 0.95523 0.44322 0.34701 0.0
C383 C 0.97925 0.46573 0.3247 0.0
C384 C 0.98376 0.50194 0.34061 0.0
C385 C 0.96241 0.50216 0.37311 0.0
C386 C 0.94643 0.4659 0.37625 0.0
N387 N 0.89981 0.38939 0.38697 0.0
C388 C 0.89676 0.41968 0.41012 0.0
C389 C 0.86623 0.41574 0.43471 0.0
C390 C 0.84865 0.38099 0.42638 0.0
C391 C 0.86901 0.36508 0.39687 0.0
N392 N 0.98332 0.3781 0.38115 0.0
C393 C 0.03685 0.41273 0.43083 0.0
C394 C 1.00138 0.39738 0.44364 0.0
C395 C 0.97612 0.37836 0.41878 0.0
C396 C 0.04773 0.40341 0.39431 0.0
C397 C 1.02076 0.38633 0.37007 0.0
N398 N 0.89776 0.40001 0.31167 0.0
C399 C 0.83602 0.43023 0.3123 0.0
C400 C 0.82269 0.40398 0.28605 0.0
C401 C 0.85007 0.38083 0.26731 0.0
C402 C 0.8874 0.3775 0.28226 0.0
C403 C 0.87433 0.42972 0.32221 0.0
H404 H 0.90641 0.35509 0.27219 0.0
H405 H 0.88275 0.45013 0.34274 0.0
H406 H 0.94922 0.36719 0.42987 0.0
H407 H 0.02994 0.38335 0.34168 0.0
C408 C 0.97271 0.31525 0.29961 0.0
C409 C 0.85933 0.32561 0.38073 0.0
C410 C 0.99974 0.45358 0.28927 0.0
C411 C 0.92004 0.45299 0.40414 0.0
H412 H 0.87756 0.24858 0.35833 0.0
H413 H 0.94127 0.24118 0.3177 0.0
H414 H 1.0164 0.33341 0.23383 0.0
H415 H 0.02514 0.4088 0.22549 0.0
H416 H 1.00149 0.52557 0.33046 0.0
H417 H 0.95939 0.52589 0.3924 0.0
H418 H 0.85684 0.43636 0.45542 0.0
H419 H 0.82344 0.36882 0.44018 0.0
H420 H 0.99238 0.40155 0.47225 0.0
H421 H 0.07569 0.41257 0.38349 0.0
H422 H 0.81674 0.44901 0.32772 0.0
H423 H 0.8412 0.36146 0.24534 0.0
C424 C 0.9465 0.34739 0.82811 0.0
C425 C 0.91219 0.35545 0.80934 0.0
C426 C 0.8936 0.38398 0.82894 0.0
C427 C 0.91724 0.39154 0.85868 0.0
N428 N 0.94965 0.36975 0.85869 0.0
Co429 Co 0.98683 0.36654 0.90019 0.0
N430 N 0.96995 0.41694 0.9208 0.0
C431 C 0.93673 0.43548 0.91287 0.0
C432 C 0.93503 0.47148 0.92892 0.0
C433 C 0.96951 0.47577 0.9478 0.0
C434 C 0.99035 0.44203 0.9423 0.0
N435 N 0.02294 0.36335 0.94288 0.0
C436 C 0.03801 0.39226 0.96374 0.0
C437 C 0.06364 0.37785 0.98998 0.0
C438 C 0.06505 0.33858 0.98479 0.0
C439 C 0.04022 0.33116 0.95579 0.0
N440 N 1.00646 0.31739 0.87928 0.0
C441 C 0.02859 0.29122 0.89717 0.0
C442 C 0.04177 0.26259 0.87407 0.0
C443 C 0.02635 0.27095 0.83982 0.0
C444 C 1.00363 0.30385 0.84411 0.0
N445 N 0.02629 0.39379 0.87007 0.0
C446 C 0.07592 0.42047 0.81328 0.0
C447 C 0.08866 0.39276 0.83901 0.0
C448 C 0.06344 0.37991 0.8673 0.0
C449 C 0.03908 0.43664 0.81828 0.0
C450 C 1.01488 0.42315 0.84692 0.0
N451 N 0.94489 0.33786 0.92794 0.0
C452 C 0.89455 0.28891 0.92182 0.0
C453 C 0.87155 0.30628 0.94885 0.0
C454 C 0.88735 0.3383 0.96768 0.0
C455 C 0.9243 0.35334 0.95712 0.0
C456 C 0.93043 0.30481 0.91193 0.0
H457 H 0.93497 0.37869 0.9712 0.0
H458 H 0.94432 0.29135 0.88879 0.0
H459 H 0.07335 0.35733 0.8857 0.0
H460 H 0.98606 0.43507 0.849 0.0
C461 C 0.91234 0.42142 0.88473 0.0
C462 C 0.97478 0.31765 0.81682 0.0
C463 C 0.02846 0.43338 0.95921 0.0
C464 C 0.04157 0.2981 0.93348 0.0
H465 H 0.90148 0.34196 0.78429 0.0
H466 H 0.86642 0.39787 0.82199 0.0
H467 H 0.91247 0.49296 0.92561 0.0
H468 H 0.97842 0.50082 0.96353 0.0
H469 H 0.08042 0.39415 0.00991 0.0
H470 H 0.08444 0.31843 0.99839 0.0
H471 H 0.06136 0.2392 0.8809 0.0
H472 H 0.03056 0.25396 0.81496 0.0
H473 H 0.11725 0.38004 0.8363 0.0
H474 H 0.02847 0.45855 0.79925 0.0
H475 H 0.88375 0.26419 0.90658 0.0
H476 H 0.87062 0.35259 0.98914 0.0
C477 C 0.17666 0.92998 0.81641 0.0
C478 C 0.16131 0.91031 0.78626 0.0
C479 C 0.12493 0.8983 0.79648 0.0
C480 C 0.11964 0.91182 0.83193 0.0
N481 N 0.15059 0.93146 0.84505 0.0
Co482 Co 0.15168 0.96215 0.89219 0.0
N483 N 0.0963 0.94897 0.90528 0.0
C484 C 0.07383 0.92283 0.88766 0.0
C485 C 0.03659 0.92112 0.90141 0.0
C486 C 0.03497 0.9483 0.9289 0.0
C487 C 0.07134 0.96538 0.93031 0.0
N488 N 0.15157 0.99527 0.93808 0.0
C489 C 0.12129 1.0089 0.95898 0.0
C490 C 0.13388 0.03514 0.98538 0.0
C491 C 0.17311 0.03871 0.98078 0.0
C492 C 0.18231 1.01475 0.95178 0.0
N493 N 0.20737 0.97436 0.88065 0.0
C494 C 0.23217 0.99349 0.90302 0.0
C495 C 0.26954 0.99461 0.88982 0.0
C496 C 0.26846 0.97529 0.85681 0.0
C497 C 0.23015 0.96402 0.85142 0.0
N498 N 0.13414 1.00745 0.86221 0.0
C499 C 0.11759 0.05997 0.80421 0.0
C500 C 0.15107 0.06427 0.82577 0.0
C501 C 0.15841 0.03817 0.85508 0.0
C502 C 0.09116 0.03123 0.81419 0.0
C503 C 0.09981 1.00559 0.84302 0.0
N504 N 0.1707 0.91503 0.92038 0.0
C505 C 0.22194 0.88415 0.95669 0.0
C506 C 0.21296 0.84768 0.94217 0.0
C507 C 0.18016 0.84517 0.91961 0.0
C508 C 0.15948 0.87863 0.90956 0.0
C509 C 0.20024 0.91706 0.94597 0.0
H510 H 0.13539 0.87423 0.89171 0.0
H511 H 0.20874 0.94398 0.95783 0.0
H512 H 0.18464 0.04221 0.87063 0.0
H513 H 0.07897 0.98332 0.84789 0.0
C514 C 0.08561 0.90785 0.85322 0.0
C515 C 0.2164 0.94598 0.81704 0.0
C516 C 0.08009 0.9986 0.95433 0.0
C517 C 0.21874 1.01242 0.93476 0.0
H518 H 0.17483 0.90518 0.75952 0.0
H519 H 0.10444 0.88233 0.77973 0.0
H520 H 1.01257 0.90433 0.89073 0.0
H521 H 1.00943 0.95606 0.94486 0.0
H522 H 0.11641 0.05085 0.00529 0.0
H523 H 0.19239 0.05779 0.99576 0.0
H524 H 0.29443 1.00856 0.90227 0.0
H525 H 0.29295 0.97091 0.83835 0.0
H526 H 0.17197 0.08675 0.81926 0.0
H527 H 0.06462 0.02739 0.79852 0.0
H528 H 0.24634 0.88746 0.97533 0.0
H529 H 0.17124 0.81749 0.90856 0.0
C530 C 0.6451 0.20611 0.83013 0.0
C531 C 0.67944 0.20191 0.81021 0.0
C532 C 0.69876 0.17116 0.82571 0.0
C533 C 0.67544 0.15852 0.85439 0.0
N534 N 0.64269 0.17953 0.8579 0.0
Co535 Co 0.60363 0.17351 0.8984 0.0
N536 N 0.62285 0.12093 0.91255 0.0
C537 C 0.65512 0.10379 0.89916 0.0
C538 C 0.65947 0.06647 0.91173 0.0
C539 C 0.62766 0.05941 0.93398 0.0
C540 C 0.60572 0.09295 0.93397 0.0
N541 N 0.56604 0.16855 0.94062 0.0
C542 C 0.55534 0.13723 0.96124 0.0
C543 C 0.52811 0.14706 0.98813 0.0
C544 C 0.52116 0.18573 0.98397 0.0
C545 C 0.54446 0.19739 0.95493 0.0
N546 N 0.58121 0.22393 0.88225 0.0
C547 C 0.55367 0.24416 0.90048 0.0
C548 C 0.53886 0.27416 0.88 0.0
C549 C 0.55815 0.27283 0.8467 0.0
C550 C 0.58466 0.24262 0.8491 0.0
N551 N 0.56723 0.14804 0.86396 0.0
C552 C 0.51971 0.11849 0.80701 0.0
C553 C 0.50335 0.13793 0.83756 0.0
C554 C 0.52777 0.1534 0.86527 0.0
C555 C 0.55997 0.11339 0.80651 0.0
C556 C 0.58261 0.12668 0.83561 0.0
N557 N 0.64287 0.20005 0.93134 0.0
C558 C 0.68072 0.25865 0.94159 0.0
C559 C 0.71467 0.23736 0.94844 0.0
C560 C 0.71015 0.19714 0.95149 0.0
C561 C 0.67376 0.17969 0.94553 0.0
C562 C 0.64581 0.23973 0.93225 0.0
H563 H 0.67201 0.14928 0.9509 0.0
H564 H 0.62228 0.25813 0.92425 0.0
H565 H 0.51471 0.16992 0.88737 0.0
H566 H 0.61297 0.12012 0.8343 0.0
C567 C 0.67946 0.1234 0.87383 0.0
C568 C 0.61457 0.23423 0.82077 0.0
C569 C 0.56965 0.09776 0.95585 0.0
C570 C 0.53959 0.23165 0.93494 0.0
H571 H 0.68897 0.21859 0.78631 0.0
H572 H 0.7256 0.15839 0.81598 0.0
H573 H 0.68261 0.04651 0.90501 0.0
H574 H 0.62136 0.03276 0.9487 0.0
H575 H 0.51387 0.12805 0.00792 0.0
H576 H 0.49959 0.20266 0.9986 0.0
H577 H 0.51571 0.2937 0.88774 0.0
H578 H 0.55301 0.29211 0.82351 0.0
H579 H 0.47222 0.1418 0.83961 0.0
H580 H 0.57406 0.0982 0.78386 0.0
H581 H 0.68181 0.28993 0.94063 0.0
H582 H 0.73475 0.1789 0.95806 0.0
C583 C 0.34615 0.61367 0.82194 0.0
C584 C 0.3629 0.64047 0.79784 0.0
C585 C 0.39063 0.66004 0.8178 0.0
C586 C 0.38977 0.64396 0.85283 0.0
N587 N 0.36354 0.61522 0.85571 0.0
Co588 Co 0.35467 0.58309 0.90046 0.0
N589 N 0.40474 0.59833 0.92326 0.0
C590 C 0.42586 0.62968 0.91416 0.0
C591 C 0.46094 0.63033 0.93244 0.0
C592 C 0.4618 0.59721 0.95395 0.0
C593 C 0.42714 0.57803 0.94766 0.0
N594 N 0.34646 0.55065 0.94533 0.0
C595 C 0.3732 0.53444 0.96823 0.0
C596 C 0.35535 0.5121 0.99547 0.0
C597 C 0.31608 0.51417 0.98895 0.0
C598 C 0.31213 0.53764 0.9582 0.0
N599 N 0.30442 0.5666 0.87901 0.0
C600 C 0.27435 0.55171 0.8985 0.0
C601 C 0.24227 0.54514 0.8769 0.0
C602 C 0.25269 0.5571 0.8418 0.0
C603 C 0.29082 0.57019 0.84391 0.0
N604 N 0.38121 0.54024 0.87495 0.0
C605 C 0.412 0.48991 0.82147 0.0
C606 C 0.37724 0.48084 0.84012 0.0
C607 C 0.36266 0.50614 0.8674 0.0
C608 C 0.43247 0.52269 0.83231 0.0
C609 C 0.41651 0.54754 0.85858 0.0
N610 N 0.32774 0.62844 0.92326 0.0
C611 C 0.28379 0.68221 0.91242 0.0
C612 C 0.29571 0.70076 0.94464 0.0
C613 C 0.32355 0.6818 0.96687 0.0
C614 C 0.33885 0.64539 0.95597 0.0
C615 C 0.3001 0.64692 0.90222 0.0
H616 H 0.36067 0.63181 0.97315 0.0
H617 H 0.29128 0.63601 0.87581 0.0
H618 H 0.3353 0.49929 0.88065 0.0
H619 H 0.43184 0.57404 0.86345 0.0
C620 C 0.41695 0.6504 0.88144 0.0
C621 C 0.31141 0.59008 0.81336 0.0
C622 C 0.41534 0.54115 0.96561 0.0
C623 C 0.27908 0.53997 0.93564 0.0
H624 H 0.3555 0.64581 0.76905 0.0
H625 H 0.40998 0.68239 0.80755 0.0
H626 H 0.48448 0.6507 0.92839 0.0
H627 H 0.48548 0.5878 0.97148 0.0
H628 H 0.36929 0.49564 0.01733 0.0
H629 H 0.29343 0.49829 0.00338 0.0
H630 H 0.2148 0.53263 0.88546 0.0
H631 H 0.23394 0.55714 0.81771 0.0
H632 H 0.36077 0.4554 0.8326 0.0
H633 H 0.45946 0.53053 0.81859 0.0
H634 H 0.26278 0.69575 0.89416 0.0
H635 H 0.3343 0.69552 0.99163 0.0
C636 C 0.933 0.21022 0.66553 0.0
C637 C 0.90003 0.20324 0.68699 0.0
C638 C 0.87843 0.17607 0.66843 0.0
C639 C 0.89908 0.16819 0.63659 0.0
N640 N 0.93237 0.18857 0.63432 0.0
Co641 Co 0.96664 0.19064 0.59029 0.0
N642 N 0.94636 0.14113 0.5708 0.0
C643 C 0.91292 0.12392 0.58085 0.0
C644 C 0.90882 0.08805 0.56491 0.0
C645 C 0.9419 0.08254 0.54381 0.0
C646 C 0.96436 0.11549 0.54794 0.0
N647 N 0.99989 0.19298 0.54531 0.0
C648 C 1.01217 0.16384 0.52323 0.0
C649 C 0.03606 0.17758 0.49497 0.0
C650 C 0.03922 0.21675 0.50012 0.0
C651 C 1.01707 0.22471 0.53107 0.0
N652 N 0.98933 0.23902 0.60973 0.0
C653 C 1.01097 0.26464 0.59034 0.0
C654 C 0.0277 0.29199 0.61267 0.0
C655 C 1.01524 0.28334 0.64803 0.0
C656 C 0.99045 0.2517 0.64524 0.0
N657 N 1.00663 0.16156 0.61765 0.0
C658 C 0.05705 0.13111 0.67148 0.0
C659 C 0.07004 0.15933 0.64617 0.0
C660 C 0.04436 0.17407 0.61926 0.0
C661 C 1.01956 0.11638 0.66736 0.0
C662 C 0.995 0.13173 0.64025 0.0
N663 N 0.92426 0.22056 0.56538 0.0
C664 C 0.87434 0.26908 0.57518 0.0
C665 C 0.85023 0.2522 0.54881 0.0
C666 C 0.86523 0.22085 0.52845 0.0
C667 C 0.9026 0.20591 0.5367 0.0
C668 C 0.91067 0.25307 0.583 0.0
H669 H 0.91272 0.18104 0.52145 0.0
H670 H 0.92583 0.26567 0.6059 0.0
H671 H 0.05435 0.19699 0.60115 0.0
H672 H 0.96572 0.12089 0.63918 0.0
C673 C 0.89104 0.13876 0.61072 0.0
C674 C 0.96382 0.23816 0.67494 0.0
C675 C 1.00155 0.12313 0.52851 0.0
C676 C 1.02104 0.25768 0.55315 0.0
H677 H 0.89232 0.21641 0.71324 0.0
H678 H 0.85138 0.16307 0.67751 0.0
H679 H 0.88569 0.06738 0.56968 0.0
H680 H 0.9488 0.05724 0.52751 0.0
H681 H 0.05056 0.1609 0.47364 0.0
H682 H 0.05803 0.23642 0.48496 0.0
H683 H 0.04802 0.31442 0.60454 0.0
H684 H 0.02309 0.29918 0.67274 0.0
H685 H 0.09914 0.17099 0.64822 0.0
H686 H 1.00872 0.09418 0.68607 0.0
H687 H 0.86412 0.2933 0.59151 0.0
H688 H 0.84751 0.20684 0.50769 0.0
C689 C 0.35227 0.91984 0.67916 0.0
C690 C 0.36275 0.89014 0.70322 0.0
C691 C 0.39028 0.86837 0.68507 0.0
C692 C 0.39575 0.88611 0.65117 0.0
N693 N 0.37377 0.91806 0.64735 0.0
Co694 Co 0.37498 0.95314 0.60353 0.0
N695 N 0.4258 0.93321 0.58549 0.0
C696 C 0.44179 0.89935 0.59553 0.0
C697 C 0.47829 0.89457 0.58043 0.0
C698 C 0.48551 0.92751 0.55979 0.0
C699 C 0.45301 0.95076 0.56335 0.0
N700 N 0.37635 0.98803 0.55947 0.0
C701 C 0.40705 1.00067 0.53876 0.0
C702 C 0.39494 0.02582 0.51101 0.0
C703 C 0.35539 0.02914 0.51469 0.0
C704 C 0.34552 1.0059 0.54439 0.0
N705 N 0.32455 0.97448 0.62083 0.0
C706 C 0.29933 0.99407 0.5993 0.0
C707 C 0.26543 1.00304 0.61743 0.0
C708 C 0.26932 0.98778 0.65245 0.0
C709 C 0.30572 0.97044 0.6539 0.0
N710 N 0.40309 0.99149 0.63342 0.0
C711 C 0.44443 0.04122 0.68235 0.0
C712 C 0.41227 0.05447 0.66111 0.0
C713 C 0.39252 0.02941 0.63649 0.0
C714 C 0.45119 1.00115 0.68066 0.0
C715 C 0.43226 0.97791 0.65533 0.0
N716 N 0.34674 0.91213 0.57557 0.0
C717 C 0.30003 0.85972 0.58039 0.0
C718 C 0.31578 0.84126 0.54946 0.0
C719 C 0.34582 0.86045 0.52997 0.0
C720 C 0.36085 0.89594 0.54345 0.0
C721 C 0.31555 0.89468 0.59272 0.0
H722 H 0.38504 0.90921 0.52899 0.0
H723 H 0.30354 0.90584 0.61801 0.0
H724 H 0.36825 0.04036 0.62069 0.0
H725 H 0.44062 0.94811 0.6548 0.0
C726 C 0.42587 0.87818 0.62555 0.0
C727 C 0.31915 0.94655 0.68546 0.0
C728 C 0.4476 0.98825 0.54374 0.0
C729 C 0.31014 1.00683 0.56367 0.0
H730 H 0.3513 0.88431 0.73075 0.0
H731 H 0.40554 0.84346 0.69595 0.0
H732 H 0.49831 0.87108 0.58562 0.0
H733 H 0.5117 0.93385 0.54415 0.0
H734 H 0.41286 0.04052 0.49056 0.0
H735 H 0.33647 0.04805 0.49898 0.0
H736 H 0.2409 1.01903 0.60663 0.0
H737 H 0.24729 0.98836 0.67399 0.0
H738 H 0.40071 0.08321 0.66415 0.0
H739 H 0.47023 0.98614 0.69951 0.0
H740 H 0.27668 0.84627 0.5961 0.0
H741 H 0.3586 0.84739 0.5055 0.0
C742 C 0.62706 0.35447 0.67053 0.0
C743 C 0.66076 0.36486 0.68907 0.0
C744 C 0.67398 0.39819 0.67262 0.0
C745 C 0.64801 0.40608 0.64476 0.0
N746 N 0.6192 0.37973 0.64255 0.0
Co747 Co 0.57911 0.37759 0.60286 0.0
N748 N 0.59107 0.43135 0.58506 0.0
C749 C 0.62039 0.45399 0.59696 0.0
C750 C 0.61879 0.49099 0.58303 0.0
C751 C 0.58583 0.49221 0.56176 0.0
C752 C 0.56926 0.45575 0.56376 0.0
N753 N 0.54002 0.37521 0.56197 0.0
C754 C 0.52402 0.40406 0.54125 0.0
C755 C 0.49686 0.38973 0.51652 0.0
C756 C 0.49515 0.35066 0.52244 0.0
C757 C 0.52131 0.34327 0.55033 0.0
N758 N 0.56413 0.3254 0.62228 0.0
C759 C 0.53803 0.30123 0.60677 0.0
C760 C 0.52876 0.27024 0.62894 0.0
C761 C 0.55015 0.27507 0.66053 0.0
C762 C 0.57226 0.30837 0.65544 0.0
N763 N 0.54005 0.3999 0.637 0.0
C764 C 0.48913 0.42429 0.69352 0.0
C765 C 0.47743 0.39658 0.66764 0.0
C766 C 0.50314 0.38514 0.63936 0.0
C767 C 0.52599 0.44067 0.68971 0.0
C768 C 0.55087 0.42817 0.66142 0.0
N769 N 0.62063 0.35391 0.56982 0.0
C770 C 0.65816 0.29595 0.55569 0.0
C771 C 0.69223 0.31746 0.5504 0.0
C772 C 0.68831 0.35775 0.54984 0.0
C773 C 0.65228 0.37512 0.55812 0.0
C774 C 0.62311 0.31448 0.56523 0.0
H775 H 0.65139 0.40587 0.55611 0.0
H776 H 0.59896 0.2958 0.57019 0.0
H777 H 0.49329 0.3636 0.62016 0.0
H778 H 0.57928 0.44084 0.66024 0.0
C779 C 0.64687 0.44012 0.62341 0.0
C780 C 0.60242 0.32152 0.68145 0.0
C781 C 0.53271 0.44537 0.54515 0.0
C782 C 0.52102 0.31 0.57249 0.0
H783 H 0.67394 0.35035 0.71256 0.0
H784 H 0.69883 0.41528 0.68083 0.0
H785 H 0.63838 0.51468 0.5888 0.0
H786 H 0.57483 0.51719 0.54697 0.0
H787 H 0.47903 0.40602 0.49733 0.0
H788 H 0.47484 0.33061 0.51009 0.0
H789 H 0.50806 0.24745 0.62331 0.0
H790 H 0.54941 0.25598 0.68441 0.0
H791 H 0.44885 0.38361 0.66953 0.0
H792 H 0.53588 0.46243 0.70908 0.0
H793 H 0.6591 0.26468 0.55474 0.0
H794 H 0.71329 0.37594 0.54414 0.0
C795 C 0.19364 0.60658 0.66335 0.0
C796 C 0.17161 0.62555 0.69002 0.0
C797 C 0.13651 0.63367 0.67401 0.0
C798 C 0.13878 0.61874 0.63878 0.0
N799 N 0.17342 0.60218 0.63124 0.0
Co800 Co 0.18606 0.5703 0.58654 0.0
N801 N 0.13279 0.57684 0.56503 0.0
C802 C 0.10506 0.60132 0.57732 0.0
C803 C 0.0705 0.5973 0.55873 0.0
C804 C 0.07632 0.56791 0.53392 0.0
C805 C 0.1142 0.55549 0.53875 0.0
N806 N 0.19762 0.53561 0.54336 0.0
C807 C 0.17278 0.51697 0.52017 0.0
C808 C 0.19232 0.49212 0.49644 0.0
C809 C 0.23072 0.4943 0.50561 0.0
C810 C 0.23239 0.52018 0.53436 0.0
N811 N 0.24002 0.565 0.60605 0.0
C812 C 0.27059 0.54908 0.58813 0.0
C813 C 0.30492 0.55239 0.60702 0.0
C814 C 0.29556 0.57128 0.63909 0.0
C815 C 0.25581 0.57801 0.63801 0.0
N816 N 0.16813 0.52474 0.61626 0.0
C817 C 0.14649 0.47741 0.67697 0.0
C818 C 0.18388 0.47503 0.66156 0.0
C819 C 0.19396 0.49857 0.63084 0.0
C820 C 0.11927 0.50042 0.65903 0.0
C821 C 0.13043 0.5234 0.6289 0.0
N822 N 0.20445 0.61819 0.55895 0.0
C823 C 0.25606 0.65309 0.52615 0.0
C824 C 0.24318 0.6887 0.5402 0.0
C825 C 0.20828 0.68848 0.56004 0.0
C826 C 0.18924 0.65361 0.56818 0.0
C827 C 0.23634 0.61846 0.53571 0.0
H828 H 0.16295 0.65632 0.58341 0.0
H829 H 0.24811 0.59227 0.52487 0.0
H830 H 0.22326 0.49682 0.62047 0.0
H831 H 0.10825 0.5416 0.618 0.0
C832 C 0.1088 0.61862 0.61239 0.0
C833 C 0.23375 0.5935 0.66931 0.0
C834 C 0.1305 0.52132 0.52022 0.0
C835 C 0.26526 0.52789 0.55564 0.0
H836 H 0.17986 0.63261 0.71818 0.0
H837 H 0.11196 0.64793 0.68686 0.0
H838 H 0.04318 0.61136 0.56497 0.0
H839 H 0.05452 0.55548 0.51595 0.0
H840 H 0.17993 0.47362 0.47538 0.0
H841 H 0.25435 0.47768 0.49386 0.0
H842 H 0.3331 0.54123 0.59905 0.0
H843 H 0.31546 0.57812 0.66136 0.0
H844 H 0.20553 0.45652 0.67415 0.0
H845 H 0.08979 0.50231 0.66957 0.0
H846 H 0.28216 0.65181 0.50927 0.0
H847 H 0.19616 0.71528 0.57036 0.0
C848 C 0.26624 0.76263 0.1453 0.0
C849 C 0.27153 0.73163 0.11921 0.0
C850 C 0.32466 0.77444 0.09105 0.0
C851 C 0.32391 0.80243 0.12061 0.0
N852 N 0.29123 0.81976 0.17749 0.0
N853 N 0.3101 0.70979 0.06765 0.0
C854 C 0.29348 0.79554 0.14777 0.0
C855 C 0.30208 0.73829 0.09248 0.0
N856 N 0.23447 0.76105 0.16808 0.0
N857 N 0.34472 0.78368 0.05941 0.0
H858 H 0.29264 0.68534 0.06473 0.0
H859 H 0.33596 0.70927 0.05256 0.0
H860 H 0.35922 0.80998 0.05621 0.0
H861 H 0.34344 0.76729 0.03519 0.0
H862 H 0.22492 0.78436 0.18386 0.0
H863 H 0.21571 0.73737 0.16883 0.0
H864 H 0.27379 0.8146 0.20073 0.0
H865 H 0.30958 0.84338 0.18044 0.0
C866 C 0.76816 0.26982 0.09972 0.0
C867 C 0.77615 0.24088 0.12789 0.0
C868 C 0.71399 0.26642 0.15889 0.0
C869 C 0.70545 0.29422 0.13003 0.0
N870 N 0.71973 0.30776 0.0658 0.0
N871 N 0.74704 0.20768 0.18004 0.0
C872 C 0.73161 0.29203 0.09871 0.0
C873 C 0.74591 0.2381 0.15586 0.0
N874 N 0.79494 0.27584 0.07238 0.0
N875 N 0.69197 0.26753 0.19054 0.0
H876 H 0.77165 0.19067 0.18387 0.0
H877 H 0.72296 0.19861 0.19544 0.0
H878 H 0.67168 0.2892 0.1956 0.0
H879 H 0.69539 0.24894 0.21306 0.0
H880 H 0.794 0.29951 0.05435 0.0
H881 H 0.81881 0.2579 0.06873 0.0
H882 H 0.73458 0.30393 0.04076 0.0
H883 H 0.69248 0.32049 0.06275 0.0
C884 C 0.20162 0.76791 0.37793 0.0
C885 C 0.21375 0.80561 0.39016 0.0
C886 C 0.27289 0.76991 0.41544 0.0
C887 C 0.26584 0.73461 0.39523 0.0
N888 N 0.21885 0.70333 0.35576 0.0
N889 N 0.26224 0.83835 0.42654 0.0
C890 C 0.22835 0.73452 0.37691 0.0
C891 C 0.25 0.80516 0.41003 0.0
N892 N 0.16399 0.76352 0.36713 0.0
N893 N 0.29948 0.77026 0.44326 0.0
H894 H 0.24568 0.86357 0.42658 0.0
H895 H 0.28881 0.84023 0.44033 0.0
H896 H 0.31392 0.74558 0.45263 0.0
H897 H 0.31392 0.74558 0.45263 0.0
H898 H 0.15078 0.73671 0.36383 0.0
H899 H 0.14491 0.7867 0.3646 0.0
H900 H 0.19223 0.69964 0.34296 0.0
H901 H 0.23901 0.6825 0.34793 0.0
C902 C 0.82062 0.26469 0.41097 0.0
C903 C 0.82067 0.29987 0.38936 0.0
C904 C 0.75003 0.28264 0.37585 0.0
C905 C 0.75049 0.24611 0.39606 0.0
N906 N 0.78334 0.22356 0.45149 0.0
N907 N 0.77623 0.34831 0.36786 0.0
C908 C 0.78507 0.24266 0.41845 0.0
C909 C 0.78247 0.31061 0.37717 0.0
N910 N 0.85397 0.25347 0.42807 0.0
N911 N 0.71881 0.29137 0.35433 0.0
H912 H 0.79857 0.36857 0.36627 0.0
H913 H 0.7486 0.36006 0.36462 0.0
H914 H 0.69645 0.27222 0.34904 0.0
H915 H 0.71632 0.31675 0.33915 0.0
H916 H 0.85564 0.22767 0.44315 0.0
H917 H 0.87938 0.26989 0.42694 0.0
H918 H 0.75759 0.21214 0.4624 0.0
H919 H 0.75759 0.21214 0.4624 0.0
C920 C 0.80175 0.30522 0.92748 0.0
C921 C 0.83005 0.29241 0.95335 0.0
C922 C 0.78138 0.24693 0.97954 0.0
C923 C 0.75445 0.25684 0.95087 0.0
N924 N 0.7462 0.28713 0.89055 0.0
N925 N 0.84891 0.24598 0.99986 0.0
C926 C 0.76645 0.28399 0.92306 0.0
C927 C 0.82048 0.26158 0.97809 0.0
N928 N 0.80886 0.3374 0.90634 0.0
N929 N 0.76932 0.2244 0.00871 0.0
H930 H 0.87699 0.25729 1.00083 0.0
H931 H 0.84543 0.22052 0.01508 0.0
H932 H 0.74015 0.21806 0.01364 0.0
H933 H 0.78739 0.21447 0.02977 0.0
H934 H 0.78778 0.3503 0.88968 0.0
H935 H 0.83456 0.35328 0.90818 0.0
H936 H 0.75572 0.30375 0.86804 0.0
H937 H 0.72279 0.26936 0.88396 0.0
C938 C 0.24447 0.74528 0.97258 0.0
C939 C 0.27977 0.74072 0.95236 0.0
C940 C 0.27367 0.80778 0.92892 0.0
C941 C 0.23813 0.81236 0.94884 0.0
N942 N 0.19347 0.78829 0.99505 0.0
N943 N 0.33241 0.77012 0.91847 0.0
C944 C 0.22482 0.78191 0.97247 0.0
C945 C 0.2958 0.77296 0.93301 0.0
N946 N 0.22907 0.71404 0.99081 0.0
N947 N 0.28521 0.83581 0.90428 0.0
H948 H 0.34905 0.74505 0.92083 0.0
H949 H 0.34765 0.79341 0.90718 0.0
H950 H 0.27022 0.86169 0.90057 0.0
H951 H 0.30807 0.83243 0.88554 0.0
H952 H 0.20131 0.71342 0.00231 0.0
H953 H 0.24375 0.68777 0.99305 0.0
H954 H 0.18344 0.76869 0.01489 0.0
H955 H 0.1789 0.8147 0.99577 0.0
C956 C 0.74541 0.27471 0.57802 0.0
C957 C 0.73175 0.29811 0.54798 0.0
C958 C 0.79609 0.29157 0.51798 0.0
C959 C 0.80851 0.26555 0.54625 0.0
N960 N 0.79131 0.22624 0.59933 0.0
N961 N 0.74376 0.32394 0.48631 0.0
C962 C 0.78187 0.25512 0.57493 0.0
C963 C 0.7569 0.30473 0.51702 0.0
N964 N 0.72505 0.27331 0.61076 0.0
N965 N 0.82126 0.3053 0.49183 0.0
H966 H 0.71491 0.33252 0.48333 0.0
H967 H 0.76138 0.32912 0.46308 0.0
H968 H 0.85077 0.2985 0.49112 0.0
H969 H 0.85077 0.2985 0.49112 0.0
H970 H 0.73561 0.26013 0.63478 0.0
H971 H 0.69959 0.28884 0.6154 0.0
H972 H 0.7716 0.21452 0.61836 0.0
H973 H 0.81767 0.21142 0.59816 0.0
C974 C 0.24866 0.75844 0.51807 0.0
C975 C 0.26592 0.72608 0.53606 0.0
C976 C 0.32114 0.76813 0.5539 0.0
C977 C 0.30132 0.8012 0.53997 0.0
N978 N 0.24474 0.82666 0.50823 0.0
N979 N 0.31685 0.7017 0.57574 0.0
C980 C 0.26494 0.79603 0.52202 0.0
C981 C 0.30208 0.7312 0.55468 0.0
N982 N 0.21609 0.7536 0.49703 0.0
N983 N 0.35817 0.77204 0.56689 0.0
H984 H 0.30379 0.67462 0.57798 0.0
H985 H 0.34031 0.70491 0.59365 0.0
H986 H 0.37244 0.79859 0.56816 0.0
H987 H 0.37594 0.74868 0.57346 0.0
H988 H 0.20243 0.77657 0.48345 0.0
H989 H 0.20413 0.72647 0.49172 0.0
H990 H 0.25445 0.85522 0.50926 0.0
H991 H 0.25445 0.85522 0.50926 0.0
C992 C 1.02044 0.51884 0.254 0.0
C993 C 0.02925 0.48025 0.26625 0.0
C994 C 0.088 0.48593 0.22502 0.0
C995 C 0.08348 0.52653 0.21847 0.0
N996 N 0.04647 0.58234 0.23766 0.0
N997 N 0.08268 0.43531 0.27159 0.0
C998 C 0.04998 0.54315 0.23629 0.0
C999 C 0.06654 0.46648 0.25435 0.0
N1000 N 0.98341 0.53223 0.2574 0.0
N1001 N 0.11102 0.46471 0.20196 0.0
H1002 H 0.06983 0.42221 0.29479 0.0
H1003 H 0.11061 0.42567 0.26514 0.0
H1004 H 0.12403 0.47663 0.17826 0.0
H1005 H 0.11322 0.43473 0.20438 0.0
H1006 H 0.97471 0.55875 0.24634 0.0
H1007 H 0.96083 0.51505 0.26762 0.0
H1008 H 0.0244 0.59595 0.25261 0.0
H1009 H 0.06788 0.60088 0.22732 0.0
C1010 C 0.99271 0.06867 0.25873 0.0
C1011 C 0.98742 0.05781 0.2207 0.0
C1012 C 0.027 0.99848 0.23466 0.0
C1013 C 0.03446 1.01059 0.27198 0.0
N1014 N 0.02853 0.06139 0.31704 0.0
N1015 N 1.00478 1.01401 0.17176 0.0
C1016 C 1.01827 0.04684 0.28321 0.0
C1017 C 1.00613 0.02311 0.20866 0.0
N1018 N 0.97231 0.09954 0.27197 0.0
N1019 N 0.03897 0.9625 0.22419 0.0
H1020 H 0.9895 0.03057 0.15246 0.0
H1021 H 1.02108 0.99203 0.15972 0.0
H1022 H 0.05416 0.94404 0.24196 0.0
H1023 H 0.03123 0.94959 0.1992 0.0
H1024 H 0.97078 0.10675 0.30003 0.0
H1025 H 0.95447 0.11645 0.25508 0.0
H1026 H 1.02171 0.08923 0.32573 0.0
H1027 H 0.04657 0.04657 0.33547 0.0
C1028 C 0.5566 0.06333 0.23654 0.0
C1029 C 0.55137 0.06415 0.27607 0.0
C1030 C 0.49987 1.01313 0.26805 0.0
C1031 C 0.50366 1.01381 0.22835 0.0
N1032 N 0.53277 0.04456 0.17504 0.0
N1033 N 0.51338 0.04275 0.32845 0.0
C1034 C 0.53132 0.04039 0.21284 0.0
C1035 C 0.52163 0.03977 0.29136 0.0
N1036 N 0.58679 0.08381 0.22147 0.0
N1037 N 0.47614 0.9859 0.28381 0.0
H1038 H 0.52866 0.06112 0.34609 0.0
H1039 H 0.48972 0.02944 0.34129 0.0
H1040 H 0.45955 0.96681 0.26805 0.0
H1041 H 0.47489 0.98023 0.31225 0.0
H1042 H 0.59564 0.08151 0.19386 0.0
H1043 H 0.60492 0.10128 0.23741 0.0
H1044 H 0.54878 0.06592 0.16143 0.0
H1045 H 0.51545 0.02835 0.15718 0.0
C1046 C 0.45602 0.46492 0.24789 0.0
C1047 C 0.49481 0.47487 0.23661 0.0
C1048 C 0.47934 0.53847 0.26662 0.0
C1049 C 0.44538 0.52435 0.28586 0.0
N1050 N 0.41563 0.4632 0.30296 0.0
N1051 N 0.54547 0.52153 0.2497 0.0
C1052 C 0.43772 0.48432 0.27888 0.0
C1053 C 0.50715 0.51183 0.25029 0.0
N1054 N 0.43496 0.43903 0.228 0.0
N1055 N 0.48479 0.57716 0.26198 0.0
H1056 H 0.56698 0.50194 0.24189 0.0
H1057 H 0.55554 0.54734 0.26109 0.0
H1058 H 0.46372 0.59729 0.26964 0.0
H1059 H 0.50812 0.58825 0.24665 0.0
H1060 H 0.40623 0.43242 0.23501 0.0
H1061 H 0.44504 0.42792 0.20279 0.0
H1062 H 0.41089 0.43369 0.29901 0.0
H1063 H 0.40627 0.47437 0.32838 0.0
C1064 C 0.13859 0.48061 0.74679 0.0
C1065 C 0.13559 0.45901 0.7133 0.0
C1066 C 0.09861 0.40902 0.74704 0.0
C1067 C 0.09988 0.4316 0.78004 0.0
N1068 N 0.1243 0.48767 0.81209 0.0
N1069 N 0.11456 0.40112 0.68213 0.0
C1070 C 0.12114 0.46673 0.78012 0.0
C1071 C 0.11656 0.42265 0.71382 0.0
N1072 N 0.15706 0.51544 0.74767 0.0
N1073 N 0.07957 0.37451 0.74601 0.0
H1074 H 0.1276 0.40972 0.65715 0.0
H1075 H 0.10033 0.37448 0.68118 0.0
H1076 H 0.06538 0.36199 0.76879 0.0
H1077 H 0.06538 0.36199 0.76879 0.0
H1078 H 0.17047 0.52839 0.72468 0.0
H1079 H 0.17047 0.52839 0.72468 0.0
H1080 H 0.13949 0.51377 0.81327 0.0
H1081 H 0.11237 0.47854 0.83737 0.0
C1082 C 0.1169 0.06528 0.73424 0.0
C1083 C 0.11067 0.08284 0.76947 0.0
C1084 C 0.0787 0.13747 0.73834 0.0
C1085 C 0.08104 0.11782 0.70371 0.0
N1086 N 0.10597 0.06435 0.6681 0.0
N1087 N 0.08807 0.13762 0.80476 0.0
C1088 C 0.10153 0.08239 0.70154 0.0
C1089 C 0.09278 0.11967 0.77129 0.0
N1090 N 0.13699 0.03155 0.73098 0.0
N1091 N 0.06229 0.17313 0.74103 0.0
H1092 H 0.09792 0.12577 0.82974 0.0
H1093 H 0.07446 0.16445 0.80728 0.0
H1094 H 0.05169 0.18879 0.71835 0.0
H1095 H 0.05169 0.18879 0.71835 0.0
H1096 H 0.15001 1.01715 0.75327 0.0
H1097 H 0.15001 1.01715 0.75327 0.0
H1098 H 0.12039 0.03797 0.66538 0.0
H1099 H 0.09564 0.07608 0.64326 0.0
C1100 C 0.47527 0.12359 0.74985 0.0
C1101 C 0.49654 0.10074 0.77602 0.0
C1102 C 0.4978 0.04869 0.731 0.0
C1103 C 0.46819 0.06609 0.70945 0.0
N1104 N 0.45156 0.12917 0.68632 0.0
N1105 N 0.51987 0.03716 0.79308 0.0
C1106 C 0.46224 0.10637 0.7156 0.0
C1107 C 0.50448 0.06173 0.76728 0.0
N1108 N 0.46848 0.1617 0.75707 0.0
N1109 N 0.52451 0.02504 0.71475 0.0
H1110 H 0.52382 0.04506 0.82082 0.0
H1111 H 0.52489 1.00806 0.78717 0.0
H1112 H 0.52492 0.02054 0.68602 0.0
H1113 H 0.54849 1.01433 0.72918 0.0
H1114 H 0.44947 0.17872 0.74167 0.0
H1115 H 0.48036 0.17602 0.77975 0.0
H1116 H 0.44845 0.15902 0.68762 0.0
H1117 H 0.45214 0.11878 0.65912 0.0
C1118 C 0.43657 0.46642 0.72024 0.0
C1119 C 0.46364 0.43603 0.72526 0.0
C1120 C 0.44867 0.43451 0.79238 0.0
C1121 C 0.42571 0.46826 0.788 0.0
N1122 N 0.39934 0.51817 0.74832 0.0
N1123 N 0.49594 0.39043 0.76536 0.0
C1124 C 0.4197 0.48444 0.75198 0.0
C1125 C 0.46949 0.41956 0.76113 0.0
N1126 N 0.42702 0.47802 0.68504 0.0
N1127 N 0.45066 0.41698 0.82649 0.0
H1128 H 0.51002 0.37749 0.74287 0.0
H1129 H 0.5053 0.38001 0.79099 0.0
H1130 H 0.43659 0.42784 0.84997 0.0
H1131 H 0.46388 0.3904 0.83122 0.0
H1132 H 0.40456 0.49715 0.67911 0.0
H1133 H 0.43944 0.46593 0.6613 0.0
H1134 H 0.39776 0.53403 0.7237 0.0
H1135 H 0.38587 0.53192 0.77063 0.0
C1136 C 0.18734 0.74168 0.27309 0.0
C1137 C 0.16338 0.70874 0.27665 0.0
C1138 C 0.10697 0.74788 0.28572 0.0
C1139 C 0.13061 0.78141 0.28223 0.0
N1140 N 0.1959 0.80656 0.29334 0.0
N1141 N 0.10615 0.6802 0.30307 0.0
C1142 C 0.17177 0.77736 0.28285 0.0
C1143 C 0.12563 0.71222 0.29116 0.0
N1144 N 0.22265 0.7401 0.25589 0.0
N1145 N 0.06789 0.74916 0.27963 0.0
H1146 H 0.11991 0.65331 0.30425 0.0
H1147 H 0.07825 0.68154 0.31441 0.0
H1148 H 0.05386 0.77407 0.27032 0.0
H1149 H 0.05055 0.72443 0.27954 0.0
H1150 H 0.2382 0.76498 0.24882 0.0
H1151 H 0.23476 0.71464 0.24602 0.0
H1152 H 0.22593 0.80328 0.29487 0.0
H1153 H 0.18574 0.83165 0.30563 0.0
C1154 C 0.8389 0.23428 0.28074 0.0
C1155 C 0.86184 0.20488 0.29592 0.0
C1156 C 0.80601 0.17539 0.32417 0.0
C1157 C 0.78224 0.19554 0.29751 0.0
N1158 N 0.7791 0.24349 0.24821 0.0
N1159 N 0.87048 0.16918 0.35159 0.0
C1160 C 0.79914 0.22606 0.27607 0.0
C1161 C 0.84612 0.18408 0.32551 0.0
N1162 N 0.85619 0.26601 0.26537 0.0
N1163 N 0.79234 0.14465 0.34396 0.0
H1164 H 0.90039 0.17414 0.34981 0.0
H1165 H 0.86076 0.15547 0.37578 0.0
H1166 H 0.76364 0.13595 0.34376 0.0
H1167 H 0.81021 0.1261 0.35904 0.0
H1168 H 0.84085 0.28844 0.25288 0.0
H1169 H 0.88604 0.27056 0.26745 0.0
H1170 H 0.79174 0.26226 0.22889 0.0
H1171 H 0.75034 0.23698 0.24293 0.0
C1172 C 0.33424 0.74443 0.22388 0.0
C1173 C 0.31795 0.73578 0.25835 0.0
C1174 C 0.33365 0.7998 0.28198 0.0
C1175 C 0.35648 0.80586 0.24975 0.0
N1176 N 0.38181 0.78169 0.19099 0.0
N1177 N 0.28818 0.7581 0.31403 0.0
C1178 C 0.35725 0.77789 0.22054 0.0
C1179 C 0.31281 0.76483 0.28524 0.0
N1180 N 0.33008 0.71849 0.19573 0.0
N1181 N 0.33462 0.82582 0.31052 0.0
H1182 H 0.2729 0.73227 0.31556 0.0
H1183 H 0.27978 0.77919 0.3329 0.0
H1184 H 0.35033 0.85158 0.30917 0.0
H1185 H 0.32251 0.8207 0.33665 0.0
H1186 H 0.33989 0.72322 0.16867 0.0
H1187 H 0.31343 0.69348 0.19946 0.0
H1188 H 0.38752 0.75944 0.1724 0.0
H1189 H 0.39894 0.80578 0.18646 0.0
C1190 C 0.72567 0.35328 0.27601 0.0
C1191 C 0.69979 0.38409 0.2832 0.0
C1192 C 0.75369 0.42797 0.28833 0.0
C1193 C 0.78028 0.39694 0.28376 0.0
N1194 N 0.78787 0.32749 0.29158 0.0
N1195 N 0.69033 0.44592 0.3117 0.0
C1196 C 0.76547 0.35867 0.28284 0.0
C1197 C 0.71473 0.41915 0.29678 0.0
N1198 N 0.71326 0.31919 0.26157 0.0
N1199 N 0.76438 0.46525 0.28107 0.0
H1200 H 0.66088 0.43984 0.31585 0.0
H1201 H 0.70036 0.47202 0.3225 0.0
H1202 H 0.79153 0.47235 0.26996 0.0
H1203 H 0.74468 0.48812 0.28188 0.0
H1204 H 0.73279 0.29981 0.25 0.0
H1205 H 0.68444 0.31062 0.26021 0.0
H1206 H 0.77585 0.30006 0.29479 0.0
H1207 H 0.81575 0.32969 0.30244 0.0
C1208 C 0.95892 0.299 0.71355 0.0
C1209 C 0.96278 0.25821 0.71185 0.0
C1210 C 0.96186 0.25668 0.77975 0.0
C1211 C 0.96918 0.2971 0.78059 0.0
N1212 N 0.97988 0.35625 0.74579 0.0
N1213 N 0.97212 0.19796 0.74513 0.0
C1214 C 0.96928 0.31822 0.74671 0.0
C1215 C 0.96546 0.23683 0.74551 0.0
N1216 N 0.94451 0.31928 0.68405 0.0
N1217 N 0.95019 0.23746 0.81109 0.0
H1218 H 0.97591 0.18233 0.72065 0.0
H1219 H 0.97752 0.18212 0.76932 0.0
H1220 H 0.94494 0.25157 0.83616 0.0
H1221 H 0.94173 0.20852 0.81089 0.0
H1222 H 0.93876 0.34883 0.68529 0.0
H1223 H 0.93451 0.30573 0.66006 0.0
H1224 H 0.98326 0.37157 0.72092 0.0
H1225 H 0.98881 0.37125 0.76937 0.0
C1226 C 0.28749 0.97966 0.74084 0.0
C1227 C 0.29436 0.94514 0.72049 0.0
C1228 C 0.25428 0.9098 0.76629 0.0
C1229 C 0.24293 0.94503 0.78318 0.0
N1230 N 0.24211 1.01367 0.78153 0.0
N1231 N 0.27312 0.87968 0.70846 0.0
C1232 C 0.25775 0.98016 0.76866 0.0
C1233 C 0.27458 0.91077 0.73164 0.0
N1234 N 0.30989 1.01159 0.73421 0.0
N1235 N 0.24663 0.87541 0.78355 0.0
H1236 H 0.28522 0.88 0.68183 0.0
H1237 H 0.25628 0.8553 0.71429 0.0
H1238 H 0.23309 0.87371 0.80954 0.0
H1239 H 0.25721 0.84916 0.77363 0.0
H1240 H 0.30877 0.03624 0.7507 0.0
H1241 H 0.33235 1.01191 0.71463 0.0
H1242 H 0.24875 0.04099 0.77087 0.0
H1243 H 0.24875 0.04099 0.77087 0.0
C1244 C 0.61815 0.29773 0.7849 0.0
C1245 C 0.61625 0.25673 0.78464 0.0
C1246 C 0.61874 0.25956 0.71646 0.0
C1247 C 0.61008 0.29968 0.71719 0.0
N1248 N 0.59583 0.35597 0.75452 0.0
N1249 N 0.60934 0.19852 0.74819 0.0
C1250 C 0.60834 0.31864 0.75213 0.0
C1251 C 0.61526 0.23749 0.74981 0.0
N1252 N 0.62961 0.31671 0.81619 0.0
N1253 N 0.6306 0.24257 0.68416 0.0
H1254 H 0.60502 0.18143 0.7718 0.0
H1255 H 0.605 0.18402 0.72318 0.0
H1256 H 0.63477 0.25827 0.65959 0.0
H1257 H 0.63999 0.21396 0.68301 0.0
H1258 H 0.63408 0.34651 0.81674 0.0
H1259 H 0.63838 0.30209 0.8402 0.0
H1260 H 0.591 0.36961 0.77994 0.0
H1261 H 0.58666 0.37189 0.73148 0.0
C1262 C 0.28682 0.55713 0.7555 0.0
C1263 C 0.2921 0.59178 0.77596 0.0
C1264 C 0.26114 0.62854 0.72556 0.0
C1265 C 0.25234 0.5936 0.70706 0.0
N1266 N 0.25059 0.52509 0.70619 0.0
N1267 N 0.27367 0.65859 0.78483 0.0
C1268 C 0.2635 0.55789 0.7229 0.0
C1269 C 0.27619 0.62702 0.76229 0.0
N1270 N 0.30461 0.52385 0.76687 0.0
N1271 N 0.2564 0.66313 0.70774 0.0
H1272 H 0.28276 0.65832 0.81245 0.0
H1273 H 0.25898 0.6837 0.77719 0.0
H1274 H 0.24622 0.66525 0.6805 0.0
H1275 H 0.26598 0.68924 0.7188 0.0
H1276 H 0.30599 0.49893 0.75081 0.0
H1277 H 0.32099 0.52203 0.79112 0.0
H1278 H 0.25437 0.49725 0.71678 0.0
H1279 H 0.25437 0.49725 0.71678 0.0
C1280 C 0.1168 0.4983 0.98018 0.0
C1281 C 0.10766 0.51235 0.01631 0.0
C1282 C 0.04533 0.47658 0.01433 0.0
C1283 C 0.05369 0.46384 0.97764 0.0
N1284 N 0.09392 0.46867 0.92295 0.0
N1285 N 0.05905 0.52205 0.0638 0.0
C1286 C 0.08837 0.47673 0.95975 0.0
C1287 C 0.07058 0.50364 0.03208 0.0
N1288 N 0.15327 0.50395 0.96602 0.0
N1289 N 1.01407 0.46155 0.03298 0.0
H1290 H 0.07646 0.54221 0.07726 0.0
H1291 H 0.03104 0.52021 0.07471 0.0
H1292 H 0.99465 0.4422 0.02091 0.0
H1293 H 1.009 0.46595 0.06123 0.0
H1294 H 0.16337 0.49089 0.94181 0.0
H1295 H 0.17461 0.51955 0.97997 0.0
H1296 H 0.11659 0.48011 0.90712 0.0
H1297 H 0.07372 0.45326 0.90736 0.0
C1298 C 0.02303 0.04657 0.95726 0.0
C1299 C 0.04793 1.01985 0.97575 0.0
C1300 C 1.01627 0.03741 0.03542 0.0
C1301 C 0.98893 0.06142 0.01661 0.0
N1302 N 0.963 0.08378 0.95824 0.0
N1303 N 0.06285 0.98475 0.03186 0.0
C1304 C 0.99152 0.06464 0.9771 0.0
C1305 C 0.04283 1.01379 0.01467 0.0
N1306 N 0.0301 0.05553 0.9208 0.0
N1307 N 1.01819 0.03848 0.07337 0.0
H1308 H 0.08248 0.96707 0.01776 0.0
H1309 H 0.05747 0.976 0.05917 0.0
H1310 H 1.00037 0.05618 0.08946 0.0
H1311 H 0.03997 0.02493 0.08863 0.0
H1312 H 1.01606 0.07779 0.90666 0.0
H1313 H 0.05231 0.04269 0.90539 0.0
H1314 H 0.96068 0.08377 0.92936 0.0
H1315 H 0.93961 0.09699 0.97158 0.0
C1316 C 0.5392 0.0282 0.0356 0.0
C1317 C 0.50463 1.01173 0.0208 0.0
C1318 C 0.51791 0.04523 0.96092 0.0
C1319 C 0.55021 0.06459 0.97691 0.0
N1320 N 0.59066 0.07635 0.03007 0.0
N1321 N 0.4598 1.00587 0.96998 0.0
C1322 C 0.5608 0.05621 0.01434 0.0
C1323 C 0.49381 0.02047 0.98349 0.0
N1324 N 0.55151 1.01684 0.0701 0.0
N1325 N 0.51059 0.0503 0.92385 0.0
H1326 H 0.44243 0.98661 0.98507 0.0
H1327 H 0.44757 1.01424 0.94479 0.0
H1328 H 0.5274 0.06833 0.90687 0.0
H1329 H 0.48995 0.03466 0.90916 0.0
H1330 H 0.57834 0.02425 0.08122 0.0
H1331 H 0.5359 0.99769 0.08696 0.0
H1332 H 0.59715 0.07563 0.0583 0.0
H1333 H 0.60796 0.09571 0.01504 0.0
C1334 C 0.45484 0.4788 0.97114 0.0
C1335 C 0.44337 0.51489 0.98666 0.0
C1336 C 0.48131 0.4989 0.04296 0.0
C1337 C 0.48896 0.46096 0.02939 0.0
N1338 N 0.479 0.41351 0.98159 0.0
N1339 N 0.44146 0.55675 0.03994 0.0
C1340 C 0.47489 0.4507 0.99357 0.0
C1341 C 0.45563 0.52426 0.02324 0.0
N1342 N 0.44692 0.47153 0.93463 0.0
N1343 N 0.4996 0.51121 0.0744 0.0
H1344 H 0.42305 0.57617 0.02648 0.0
H1345 H 0.44541 0.5629 0.06801 0.0
H1346 H 0.51885 0.49379 0.08914 0.0
H1347 H 0.49871 0.53963 0.08376 0.0
H1348 H 0.45782 0.44784 0.92023 0.0
H1349 H 0.43204 0.49106 0.91776 0.0
H1350 H 0.46572 0.4028 0.9578 0.0
H1351 H 0.49338 0.39237 0.99702 0.0
C1352 C 0.08835 0.05921 0.5021 0.0
C1353 C 0.07594 0.04259 0.46795 0.0
C1354 C 1.01367 0.07797 0.47364 0.0
C1355 C 0.02505 0.09236 0.50879 0.0
N1356 N 0.06939 0.09399 0.55878 0.0
N1357 N 0.02324 0.03021 0.42548 0.0
C1358 C 0.06149 0.08176 0.52366 0.0
C1359 C 0.0375 0.05025 0.45508 0.0
N1360 N 0.12622 0.05533 0.5127 0.0
N1361 N 0.98103 0.0922 0.457 0.0
H1362 H 0.03952 1.00965 0.41133 0.0
H1363 H 0.99432 0.03129 0.41718 0.0
H1364 H 0.96291 0.11241 0.46969 0.0
H1365 H 0.97365 0.08644 0.42951 0.0
H1366 H 0.13857 0.07005 0.53487 0.0
H1367 H 0.1465 0.03963 0.49736 0.0
H1368 H 0.09409 0.08651 0.57382 0.0
H1369 H 0.09409 0.08651 0.57382 0.0
C1370 C 0.52549 0.06636 0.52005 0.0
C1371 C 0.5345 0.05783 0.48217 0.0
C1372 C 0.49127 1.00009 0.48653 0.0
C1373 C 0.48045 1.01005 0.52359 0.0
N1374 N 0.48609 0.0532 0.57545 0.0
N1375 N 0.52638 1.01621 0.42928 0.0
C1376 C 0.49761 0.04318 0.54033 0.0
C1377 C 0.51757 0.02439 0.46556 0.0
N1378 N 0.54368 0.09683 0.53669 0.0
N1379 N 0.47631 0.96708 0.47144 0.0
H1380 H 0.54753 0.03119 0.41415 0.0
H1381 H 0.51241 0.99538 0.41345 0.0
H1382 H 0.4561 0.94969 0.48529 0.0
H1383 H 0.48488 0.95553 0.44607 0.0
H1384 H 0.5421 0.1028 0.56498 0.0
H1385 H 0.56227 0.11555 0.5224 0.0
H1386 H 0.49342 0.07896 0.58844 0.0
H1387 H 0.46754 0.03605 0.59155 0.0
C1388 C 0.47453 0.49105 0.54617 0.0
C1389 C 0.50689 0.4755 0.52658 0.0
C1390 C 0.48785 0.51361 0.47109 0.0
C1391 C 0.4533 0.52593 0.48946 0.0
N1392 N 0.41211 0.52411 0.54366 0.0
N1393 N 0.54315 0.46979 0.4695 0.0
C1394 C 0.44636 0.5142 0.5269 0.0
C1395 C 0.51331 0.48643 0.48882 0.0
N1396 N 0.47107 0.48415 0.5835 0.0
N1397 N 0.49667 0.52851 0.43676 0.0
H1398 H 0.56307 0.45104 0.48182 0.0
H1399 H 0.54692 0.47256 0.44087 0.0
H1400 H 0.47861 0.54786 0.42279 0.0
H1401 H 0.5231 0.52421 0.42327 0.0
H1402 H 0.45084 0.49788 0.60045 0.0
H1403 H 0.49062 0.46693 0.59823 0.0
H1404 H 0.40287 0.513 0.56917 0.0
H1405 H 0.39154 0.54181 0.53088 0.0
C1406 C 0.06895 0.47868 0.44089 0.0
C1407 C 0.06108 0.44041 0.45411 0.0
C1408 C 0.09502 0.45698 0.5126 0.0
C1409 C 0.10544 0.49381 0.49785 0.0
N1410 N 0.10841 0.5367 0.44503 0.0
N1411 N 0.07353 0.39128 0.5003 0.0
C1412 C 0.09416 0.5037 0.46114 0.0
C1413 C 0.0759 0.42913 0.4895 0.0
N1414 N 0.05093 0.49203 0.40965 0.0
N1415 N 0.103 0.44875 0.54899 0.0
H1416 H 0.0611 0.36996 0.48374 0.0
H1417 H 0.08708 0.38029 0.52392 0.0
H1418 H 0.11757 0.46799 0.56632 0.0
H1419 H 0.09255 0.42431 0.5628 0.0
H1420 H 0.05159 0.52085 0.40114 0.0
H1421 H 0.0323 0.4751 0.39403 0.0
H1422 H 0.1053 0.54317 0.41686 0.0
H1423 H 0.12622 0.55615 0.45906 0.0
loop_
_geom_bond_atom_site_label_1
_geom_bond_atom_site_label_2
_geom_bond_distance
_geom_bond_site_symmetry_2
_ccdc_geom_bond_type
C0 C1 1.443 . S
C0 N4 1.376 . S
C0 C38 1.389 . S
C1 C0 1.443 . S
C1 C2 1.340 . S
C1 H41 0.951 . S
C2 C1 1.340 . S
C2 C3 1.439 . S
C2 H42 0.950 . S
C3 C2 1.439 . S
C3 N4 1.374 . S
C3 C37 1.395 . S
N4 C0 1.376 . S
N4 C3 1.374 . S
N4 Co5 2.008 . S
Co5 N4 2.008 . S
Co5 N6 1.995 . S
Co5 N11 2.008 . S
Co5 N16 1.995 . S
Co5 N21 2.282 . S
Co5 N27 2.282 . S
N6 Co5 1.995 . S
N6 C7 1.376 . S
N6 C10 1.383 . S
C7 N6 1.376 . S
C7 C8 1.446 . S
C7 C37 1.391 . S
C8 C7 1.446 . S
C8 C9 1.339 . S
C8 H43 0.949 . S
C9 C8 1.339 . S
C9 C10 1.439 . S
C9 H44 0.950 . S
C10 N6 1.383 . S
C10 C9 1.439 . S
C10 C39 1.392 . S
N11 Co5 2.008 . S
N11 C12 1.376 . S
N11 C15 1.374 . S
C12 N11 1.376 . S
C12 C13 1.443 . S
C12 C39 1.389 . S
C13 C12 1.443 . S
C13 C14 1.340 . S
C13 H45 0.951 1_455 S
C14 C13 1.340 . S
C14 C15 1.439 . S
C14 H46 0.950 1_455 S
C15 N11 1.374 . S
C15 C14 1.439 . S
C15 C40 1.395 . S
N16 Co5 1.995 . S
N16 C17 1.376 . S
N16 C20 1.383 . S
C17 N16 1.376 . S
C17 C18 1.446 . S
C17 C40 1.391 . S
C18 C17 1.446 . S
C18 C19 1.339 . S
C18 H47 0.949 . S
C19 C18 1.339 . S
C19 C20 1.439 . S
C19 H48 0.950 . S
C20 N16 1.383 . S
C20 C19 1.439 . S
C20 C38 1.392 . S
N21 Co5 2.282 . S
N21 C24 1.332 . S
N21 C26 1.332 . S
C22 C23 1.386 . S
C22 C25 1.388 . S
C23 C22 1.386 . S
C23 C24 1.382 . S
C23 H49 0.950 . S
C24 N21 1.332 . S
C24 C23 1.382 . S
C24 H35 0.952 . S
C25 C22 1.388 . S
C25 C26 1.382 . S
C25 H50 0.950 . S
C26 N21 1.332 . S
C26 C25 1.382 . S
C26 H36 0.948 . S
N27 Co5 2.282 . S
N27 C31 1.332 . S
N27 C32 1.332 . S
C28 C29 1.388 . S
C28 C32 1.382 . S
C28 H51 0.950 . S
C29 C28 1.388 . S
C29 C30 1.386 . S
C30 C29 1.386 . S
C30 C31 1.382 . S
C30 H52 0.950 . S
C31 N27 1.332 . S
C31 C30 1.382 . S
C31 H33 0.952 . S
C32 N27 1.332 . S
C32 C28 1.382 . S
C32 H34 0.948 . S
H33 C31 0.952 . S
H34 C32 0.948 . S
H35 C24 0.952 . S
H36 C26 0.948 . S
C37 C3 1.395 . S
C37 C7 1.391 . S
C38 C0 1.389 . S
C38 C20 1.392 . S
C39 C10 1.392 . S
C39 C12 1.389 . S
C40 C15 1.395 . S
C40 C17 1.391 . S
H41 C1 0.951 . S
H42 C2 0.950 . S
H43 C8 0.949 . S
H44 C9 0.950 . S
H45 C13 0.951 1_655 S
H46 C14 0.950 1_655 S
H47 C18 0.949 . S
H48 C19 0.950 . S
H49 C23 0.950 . S
H50 C25 0.950 . S
H51 C28 0.950 . S
H52 C30 0.950 . S
C53 C54 1.443 . S
C53 N57 1.376 . S
C53 C91 1.389 . S
C54 C53 1.443 . S
C54 C55 1.340 . S
C54 H94 0.951 . S
C55 C54 1.340 . S
C55 C56 1.439 . S
C55 H95 0.950 . S
C56 C55 1.439 . S
C56 N57 1.374 . S
C56 C90 1.395 . S
N57 C53 1.376 . S
N57 C56 1.374 . S
N57 Co58 2.008 . S
Co58 N57 2.008 . S
Co58 N59 1.995 . S
Co58 N64 2.008 . S
Co58 N69 1.995 . S
Co58 N74 2.282 . S
Co58 N80 2.282 . S
N59 Co58 1.995 . S
N59 C60 1.376 . S
N59 C63 1.383 . S
C60 N59 1.376 . S
C60 C61 1.446 . S
C60 C90 1.391 . S
C61 C60 1.446 . S
C61 C62 1.339 1_655 S
C61 H96 0.949 1_655 S
C62 C61 1.339 1_455 S
C62 C63 1.439 1_455 S
C62 H97 0.950 . S
C63 N59 1.383 . S
C63 C62 1.439 1_655 S
C63 C92 1.392 . S
N64 Co58 2.008 . S
N64 C65 1.376 . S
N64 C68 1.374 . S
C65 N64 1.376 . S
C65 C66 1.443 . S
C65 C92 1.389 . S
C66 C65 1.443 . S
C66 C67 1.340 . S
C66 H98 0.951 1_545 S
C67 C66 1.340 . S
C67 C68 1.439 . S
C67 H99 0.950 1_545 S
C68 N64 1.374 . S
C68 C67 1.439 . S
C68 C93 1.395 . S
N69 Co58 1.995 . S
N69 C70 1.376 . S
N69 C73 1.383 . S
C70 N69 1.376 . S
C70 C71 1.446 . S
C70 C93 1.391 . S
C71 C70 1.446 . S
C71 C72 1.339 . S
C71 H100 0.949 . S
C72 C71 1.339 . S
C72 C73 1.439 . S
C72 H101 0.950 . S
C73 N69 1.383 . S
C73 C72 1.439 . S
C73 C91 1.392 . S
N74 Co58 2.282 . S
N74 C77 1.332 . S
N74 C79 1.332 . S
C75 C76 1.386 . S
C75 C78 1.388 1_655 S
C76 C75 1.386 . S
C76 C77 1.382 . S
C76 H102 0.950 . S
C77 N74 1.332 . S
C77 C76 1.382 . S
C77 H88 0.952 . S
C78 C75 1.388 1_455 S
C78 C79 1.382 1_455 S
C78 H103 0.950 . S
C79 N74 1.332 . S
C79 C78 1.382 1_655 S
C79 H89 0.948 . S
N80 Co58 2.282 . S
N80 C84 1.332 . S
N80 C85 1.332 . S
C81 C82 1.388 . S
C81 C85 1.382 . S
C81 H104 0.950 . S
C82 C81 1.388 . S
C82 C83 1.386 . S
C83 C82 1.386 . S
C83 C84 1.382 . S
C83 H105 0.950 . S
C84 N80 1.332 . S
C84 C83 1.382 . S
C84 H86 0.952 . S
C85 N80 1.332 . S
C85 C81 1.382 . S
C85 H87 0.948 . S
H86 C84 0.952 . S
H87 C85 0.948 . S
H88 C77 0.952 . S
H89 C79 0.948 . S
C90 C56 1.395 . S
C90 C60 1.391 . S
C91 C53 1.389 . S
C91 C73 1.392 . S
C92 C63 1.392 . S
C92 C65 1.389 . S
C93 C68 1.395 . S
C93 C70 1.391 . S
H94 C54 0.951 . S
H95 C55 0.950 . S
H96 C61 0.949 1_455 S
H97 C62 0.950 . S
H98 C66 0.951 1_565 S
H99 C67 0.950 1_565 S
H100 C71 0.949 . S
H101 C72 0.950 . S
H102 C76 0.950 . S
H103 C78 0.950 . S
H104 C81 0.950 . S
H105 C83 0.950 . S
C106 C107 1.443 . S
C106 N110 1.376 . S
C106 C144 1.389 . S
C107 C106 1.443 . S
C107 C108 1.340 . S
C107 H147 0.951 . S
C108 C107 1.340 . S
C108 C109 1.439 . S
C108 H148 0.950 . S
C109 C108 1.439 . S
C109 N110 1.374 . S
C109 C143 1.395 . S
N110 C106 1.376 . S
N110 C109 1.374 . S
N110 Co111 2.008 . S
Co111 N110 2.008 . S
Co111 N112 1.995 . S
Co111 N117 2.008 . S
Co111 N122 1.995 . S
Co111 N127 2.282 . S
Co111 N133 2.282 . S
N112 Co111 1.995 . S
N112 C113 1.376 . S
N112 C116 1.383 . S
C113 N112 1.376 . S
C113 C114 1.446 . S
C113 C143 1.391 . S
C114 C113 1.446 . S
C114 C115 1.339 1_565 S
C114 H149 0.949 1_565 S
C115 C114 1.339 1_545 S
C115 C116 1.439 1_545 S
C115 H150 0.950 . S
C116 N112 1.383 . S
C116 C115 1.439 1_565 S
C116 C145 1.392 . S
N117 Co111 2.008 . S
N117 C118 1.376 . S
N117 C121 1.374 . S
C118 N117 1.376 . S
C118 C119 1.443 . S
C118 C145 1.389 . S
C119 C118 1.443 . S
C119 C120 1.340 . S
C119 H151 0.951 . S
C120 C119 1.340 . S
C120 C121 1.439 . S
C120 H152 0.950 . S
C121 N117 1.374 . S
C121 C120 1.439 . S
C121 C146 1.395 . S
N122 Co111 1.995 . S
N122 C123 1.376 . S
N122 C126 1.383 . S
C123 N122 1.376 . S
C123 C124 1.446 . S
C123 C146 1.391 . S
C124 C123 1.446 . S
C124 C125 1.339 . S
C124 H153 0.949 . S
C125 C124 1.339 . S
C125 C126 1.439 . S
C125 H154 0.950 . S
C126 N122 1.383 . S
C126 C125 1.439 . S
C126 C144 1.392 . S
N127 Co111 2.282 . S
N127 C130 1.332 . S
N127 C132 1.332 . S
C128 C129 1.386 . S
C128 C131 1.388 1_565 S
C129 C128 1.386 . S
C129 C130 1.382 . S
C129 H155 0.950 . S
C130 N127 1.332 . S
C130 C129 1.382 . S
C130 H141 0.952 . S
C131 C128 1.388 1_545 S
C131 C132 1.382 1_545 S
C131 H156 0.950 . S
C132 N127 1.332 . S
C132 C131 1.382 1_565 S
C132 H142 0.948 . S
N133 Co111 2.282 . S
N133 C137 1.332 . S
N133 C138 1.332 . S
C134 C135 1.388 . S
C134 C138 1.382 . S
C134 H157 0.950 . S
C135 C134 1.388 . S
C135 C136 1.386 . S
C136 C135 1.386 . S
C136 C137 1.382 . S
C136 H158 0.950 . S
C137 N133 1.332 . S
C137 C136 1.382 . S
C137 H139 0.952 . S
C138 N133 1.332 . S
C138 C134 1.382 . S
C138 H140 0.948 . S
H139 C137 0.952 . S
H140 C138 0.948 . S
H141 C130 0.952 . S
H142 C132 0.948 . S
C143 C109 1.395 . S
C143 C113 1.391 . S
C144 C106 1.389 . S
C144 C126 1.392 . S
C145 C116 1.392 . S
C145 C118 1.389 . S
C146 C121 1.395 . S
C146 C123 1.391 . S
H147 C107 0.951 . S
H148 C108 0.950 . S
H149 C114 0.949 1_545 S
H150 C115 0.950 . S
H151 C119 0.951 . S
H152 C120 0.950 . S
H153 C124 0.949 . S
H154 C125 0.950 . S
H155 C129 0.950 . S
H156 C131 0.950 . S
H157 C134 0.950 . S
H158 C136 0.950 . S
C159 C160 1.443 . S
C159 N163 1.376 . S
C159 C197 1.389 . S
C160 C159 1.443 . S
C160 C161 1.340 . S
C160 H200 0.951 . S
C161 C160 1.340 . S
C161 C162 1.439 . S
C161 H201 0.950 . S
C162 C161 1.439 . S
C162 N163 1.374 . S
C162 C196 1.395 . S
N163 C159 1.376 . S
N163 C162 1.374 . S
N163 Co164 2.008 . S
Co164 N163 2.008 . S
Co164 N165 1.995 . S
Co164 N170 2.008 . S
Co164 N175 1.995 . S
Co164 N180 2.282 . S
Co164 N186 2.282 . S
N165 Co164 1.995 . S
N165 C166 1.376 . S
N165 C169 1.383 . S
C166 N165 1.376 . S
C166 C167 1.446 . S
C166 C196 1.391 . S
C167 C166 1.446 . S
C167 C168 1.339 . S
C167 H202 0.949 . S
C168 C167 1.339 . S
C168 C169 1.439 . S
C168 H203 0.950 . S
C169 N165 1.383 . S
C169 C168 1.439 . S
C169 C198 1.392 . S
N170 Co164 2.008 . S
N170 C171 1.376 . S
N170 C174 1.374 . S
C171 N170 1.376 . S
C171 C172 1.443 . S
C171 C198 1.389 . S
C172 C171 1.443 . S
C172 C173 1.340 . S
C172 H204 0.951 . S
C173 C172 1.340 . S
C173 C174 1.439 . S
C173 H205 0.950 . S
C174 N170 1.374 . S
C174 C173 1.439 . S
C174 C199 1.395 . S
N175 Co164 1.995 . S
N175 C176 1.376 . S
N175 C179 1.383 . S
C176 N175 1.376 . S
C176 C177 1.446 . S
C176 C199 1.391 . S
C177 C176 1.446 . S
C177 C178 1.339 . S
C177 H206 0.949 . S
C178 C177 1.339 . S
C178 C179 1.439 . S
C178 H207 0.950 . S
C179 N175 1.383 . S
C179 C178 1.439 . S
C179 C197 1.392 . S
N180 Co164 2.282 . S
N180 C183 1.332 . S
N180 C185 1.332 . S
C181 C182 1.386 . S
C181 C184 1.388 . S
C182 C181 1.386 . S
C182 C183 1.382 . S
C182 H208 0.950 . S
C183 N180 1.332 . S
C183 C182 1.382 . S
C183 H194 0.952 . S
C184 C181 1.388 . S
C184 C185 1.382 . S
C184 H209 0.950 . S
C185 N180 1.332 . S
C185 C184 1.382 . S
C185 H195 0.948 . S
N186 Co164 2.282 . S
N186 C190 1.332 . S
N186 C191 1.332 . S
C187 C188 1.388 . S
C187 C191 1.382 . S
C187 H210 0.950 . S
C188 C187 1.388 . S
C188 C189 1.386 . S
C189 C188 1.386 . S
C189 C190 1.382 . S
C189 H211 0.950 . S
C190 N186 1.332 . S
C190 C189 1.382 . S
C190 H192 0.952 . S
C191 N186 1.332 . S
C191 C187 1.382 . S
C191 H193 0.948 . S
H192 C190 0.952 . S
H193 C191 0.948 . S
H194 C183 0.952 . S
H195 C185 0.948 . S
C196 C162 1.395 . S
C196 C166 1.391 . S
C197 C159 1.389 . S
C197 C179 1.392 . S
C198 C169 1.392 . S
C198 C171 1.389 . S
C199 C174 1.395 . S
C199 C176 1.391 . S
H200 C160 0.951 . S
H201 C161 0.950 . S
H202 C167 0.949 . S
H203 C168 0.950 . S
H204 C172 0.951 . S
H205 C173 0.950 . S
H206 C177 0.949 . S
H207 C178 0.950 . S
H208 C182 0.950 . S
H209 C184 0.950 . S
H210 C187 0.950 . S
H211 C189 0.950 . S
C212 C213 1.443 . S
C212 N216 1.376 . S
C212 C250 1.389 . S
C213 C212 1.443 . S
C213 C214 1.340 . S
C213 H253 0.951 . S
C214 C213 1.340 . S
C214 C215 1.439 . S
C214 H254 0.950 . S
C215 C214 1.439 . S
C215 N216 1.374 . S
C215 C249 1.395 . S
N216 C212 1.376 . S
N216 C215 1.374 . S
N216 Co217 2.008 . S
Co217 N216 2.008 . S
Co217 N218 1.995 . S
Co217 N223 2.008 . S
Co217 N228 1.995 . S
Co217 N233 2.282 . S
Co217 N239 2.282 . S
N218 Co217 1.995 . S
N218 C219 1.376 . S
N218 C222 1.383 . S
C219 N218 1.376 . S
C219 C220 1.446 . S
C219 C249 1.391 . S
C220 C219 1.446 . S
C220 C221 1.339 1_565 S
C220 H255 0.949 1_565 S
C221 C220 1.339 1_545 S
C221 C222 1.439 1_545 S
C221 H256 0.950 . S
C222 N218 1.383 . S
C222 C221 1.439 1_565 S
C222 C251 1.392 . S
N223 Co217 2.008 . S
N223 C224 1.376 . S
N223 C227 1.374 . S
C224 N223 1.376 . S
C224 C225 1.443 . S
C224 C251 1.389 . S
C225 C224 1.443 . S
C225 C226 1.340 . S
C225 H257 0.951 1_455 S
C226 C225 1.340 . S
C226 C227 1.439 . S
C226 H258 0.950 1_455 S
C227 N223 1.374 . S
C227 C226 1.439 . S
C227 C252 1.395 . S
N228 Co217 1.995 . S
N228 C229 1.376 . S
N228 C232 1.383 . S
C229 N228 1.376 . S
C229 C230 1.446 . S
C229 C252 1.391 . S
C230 C229 1.446 . S
C230 C231 1.339 . S
C230 H259 0.949 . S
C231 C230 1.339 . S
C231 C232 1.439 . S
C231 H260 0.950 . S
C232 N228 1.383 . S
C232 C231 1.439 . S
C232 C250 1.392 . S
N233 Co217 2.282 . S
N233 C236 1.332 . S
N233 C238 1.332 . S
C234 C235 1.386 . S
C234 C237 1.388 1_565 S
C235 C234 1.386 . S
C235 C236 1.382 . S
C235 H261 0.950 . S
C236 N233 1.332 . S
C236 C235 1.382 . S
C236 H247 0.952 . S
C237 C234 1.388 1_545 S
C237 C238 1.382 1_545 S
C237 H262 0.950 . S
C238 N233 1.332 . S
C238 C237 1.382 1_565 S
C238 H248 0.948 . S
N239 Co217 2.282 . S
N239 C243 1.332 . S
N239 C244 1.332 . S
C240 C241 1.388 . S
C240 C244 1.382 . S
C240 H263 0.950 . S
C241 C240 1.388 . S
C241 C242 1.386 . S
C242 C241 1.386 . S
C242 C243 1.382 . S
C242 H264 0.950 . S
C243 N239 1.332 . S
C243 C242 1.382 . S
C243 H245 0.952 . S
C244 N239 1.332 . S
C244 C240 1.382 . S
C244 H246 0.948 . S
H245 C243 0.952 . S
H246 C244 0.948 . S
H247 C236 0.952 . S
H248 C238 0.948 . S
C249 C215 1.395 . S
C249 C219 1.391 . S
C250 C212 1.389 . S
C250 C232 1.392 . S
C251 C222 1.392 . S
C251 C224 1.389 . S
C252 C227 1.395 . S
C252 C229 1.391 . S
H253 C213 0.951 . S
H254 C214 0.950 . S
H255 C220 0.949 1_545 S
H256 C221 0.950 . S
H257 C225 0.951 1_655 S
H258 C226 0.950 1_655 S
H259 C230 0.949 . S
H260 C231 0.950 . S
H261 C235 0.950 . S
H262 C237 0.950 . S
H263 C240 0.950 . S
H264 C242 0.950 . S
C265 C266 1.443 . S
C265 N269 1.376 . S
C265 C303 1.389 . S
C266 C265 1.443 . S
C266 C267 1.340 . S
C266 H306 0.951 . S
C267 C266 1.340 . S
C267 C268 1.439 . S
C267 H307 0.950 . S
C268 C267 1.439 . S
C268 N269 1.374 . S
C268 C302 1.395 . S
N269 C265 1.376 . S
N269 C268 1.374 . S
N269 Co270 2.008 . S
Co270 N269 2.008 . S
Co270 N271 1.995 . S
Co270 N276 2.008 . S
Co270 N281 1.995 . S
Co270 N286 2.282 . S
Co270 N292 2.282 . S
N271 Co270 1.995 . S
N271 C272 1.376 . S
N271 C275 1.383 . S
C272 N271 1.376 . S
C272 C273 1.446 . S
C272 C302 1.391 . S
C273 C272 1.446 . S
C273 C274 1.339 . S
C273 H308 0.949 . S
C274 C273 1.339 . S
C274 C275 1.439 . S
C274 H309 0.950 . S
C275 N271 1.383 . S
C275 C274 1.439 . S
C275 C304 1.392 . S
N276 Co270 2.008 . S
N276 C277 1.376 . S
N276 C280 1.374 . S
C277 N276 1.376 . S
C277 C278 1.443 . S
C277 C304 1.389 . S
C278 C277 1.443 . S
C278 C279 1.340 . S
C278 H310 0.951 1_545 S
C279 C278 1.340 . S
C279 C280 1.439 . S
C279 H311 0.950 1_545 S
C280 N276 1.374 . S
C280 C279 1.439 . S
C280 C305 1.395 . S
N281 Co270 1.995 . S
N281 C282 1.376 . S
N281 C285 1.383 . S
C282 N281 1.376 . S
C282 C283 1.446 . S
C282 C305 1.391 . S
C283 C282 1.446 . S
C283 C284 1.339 . S
C283 H312 0.949 . S
C284 C283 1.339 . S
C284 C285 1.439 . S
C284 H313 0.950 . S
C285 N281 1.383 . S
C285 C284 1.439 . S
C285 C303 1.392 . S
N286 Co270 2.282 . S
N286 C289 1.332 . S
N286 C291 1.332 . S
C287 C288 1.386 . S
C287 C290 1.388 . S
C288 C287 1.386 . S
C288 C289 1.382 . S
C288 H314 0.950 . S
C289 N286 1.332 . S
C289 C288 1.382 . S
C289 H300 0.952 . S
C290 C287 1.388 . S
C290 C291 1.382 . S
C290 H315 0.950 . S
C291 N286 1.332 . S
C291 C290 1.382 . S
C291 H301 0.948 . S
N292 Co270 2.282 . S
N292 C296 1.332 . S
N292 C297 1.332 . S
C293 C294 1.388 . S
C293 C297 1.382 . S
C293 H316 0.950 . S
C294 C293 1.388 . S
C294 C295 1.386 . S
C295 C294 1.386 . S
C295 C296 1.382 . S
C295 H317 0.950 . S
C296 N292 1.332 . S
C296 C295 1.382 . S
C296 H298 0.952 . S
C297 N292 1.332 . S
C297 C293 1.382 . S
C297 H299 0.948 . S
H298 C296 0.952 . S
H299 C297 0.948 . S
H300 C289 0.952 . S
H301 C291 0.948 . S
C302 C268 1.395 . S
C302 C272 1.391 . S
C303 C265 1.389 . S
C303 C285 1.392 . S
C304 C275 1.392 . S
C304 C277 1.389 . S
C305 C280 1.395 . S
C305 C282 1.391 . S
H306 C266 0.951 . S
H307 C267 0.950 . S
H308 C273 0.949 . S
H309 C274 0.950 . S
H310 C278 0.951 1_565 S
H311 C279 0.950 1_565 S
H312 C283 0.949 . S
H313 C284 0.950 . S
H314 C288 0.950 . S
H315 C290 0.950 . S
H316 C293 0.950 . S
H317 C295 0.950 . S
C318 C319 1.443 . S
C318 N322 1.376 . S
C318 C356 1.389 . S
C319 C318 1.443 . S
C319 C320 1.340 . S
C319 H359 0.951 . S
C320 C319 1.340 . S
C320 C321 1.439 . S
C320 H360 0.950 . S
C321 C320 1.439 . S
C321 N322 1.374 . S
C321 C355 1.395 . S
N322 C318 1.376 . S
N322 C321 1.374 . S
N322 Co323 2.008 . S
Co323 N322 2.008 . S
Co323 N324 1.995 . S
Co323 N329 2.008 . S
Co323 N334 1.995 . S
Co323 N339 2.282 . S
Co323 N345 2.282 . S
N324 Co323 1.995 . S
N324 C325 1.376 . S
N324 C328 1.383 . S
C325 N324 1.376 . S
C325 C326 1.446 . S
C325 C355 1.391 . S
C326 C325 1.446 . S
C326 C327 1.339 . S
C326 H361 0.949 . S
C327 C326 1.339 . S
C327 C328 1.439 . S
C327 H362 0.950 . S
C328 N324 1.383 . S
C328 C327 1.439 . S
C328 C357 1.392 . S
N329 Co323 2.008 . S
N329 C330 1.376 . S
N329 C333 1.374 . S
C330 N329 1.376 . S
C330 C331 1.443 . S
C330 C357 1.389 . S
C331 C330 1.443 . S
C331 C332 1.340 . S
C331 H363 0.951 . S
C332 C331 1.340 . S
C332 C333 1.439 . S
C332 H364 0.950 . S
C333 N329 1.374 . S
C333 C332 1.439 . S
C333 C358 1.395 . S
N334 Co323 1.995 . S
N334 C335 1.376 . S
N334 C338 1.383 . S
C335 N334 1.376 . S
C335 C336 1.446 . S
C335 C358 1.391 . S
C336 C335 1.446 . S
C336 C337 1.339 . S
C336 H365 0.949 . S
C337 C336 1.339 . S
C337 C338 1.439 . S
C337 H366 0.950 . S
C338 N334 1.383 . S
C338 C337 1.439 . S
C338 C356 1.392 . S
N339 Co323 2.282 . S
N339 C342 1.332 . S
N339 C344 1.332 . S
C340 C341 1.386 . S
C340 C343 1.388 . S
C341 C340 1.386 . S
C341 C342 1.382 . S
C341 H367 0.950 . S
C342 N339 1.332 . S
C342 C341 1.382 . S
C342 H353 0.952 . S
C343 C340 1.388 . S
C343 C344 1.382 . S
C343 H368 0.950 . S
C344 N339 1.332 . S
C344 C343 1.382 . S
C344 H354 0.948 . S
N345 Co323 2.282 . S
N345 C349 1.332 . S
N345 C350 1.332 . S
C346 C347 1.388 . S
C346 C350 1.382 . S
C346 H369 0.950 . S
C347 C346 1.388 . S
C347 C348 1.386 . S
C348 C347 1.386 . S
C348 C349 1.382 . S
C348 H370 0.950 . S
C349 N345 1.332 . S
C349 C348 1.382 . S
C349 H351 0.952 . S
C350 N345 1.332 . S
C350 C346 1.382 . S
C350 H352 0.948 . S
H351 C349 0.952 . S
H352 C350 0.948 . S
H353 C342 0.952 . S
H354 C344 0.948 . S
C355 C321 1.395 . S
C355 C325 1.391 . S
C356 C318 1.389 . S
C356 C338 1.392 . S
C357 C328 1.392 . S
C357 C330 1.389 . S
C358 C333 1.395 . S
C358 C335 1.391 . S
H359 C319 0.951 . S
H360 C320 0.950 . S
H361 C326 0.949 . S
H362 C327 0.950 . S
H363 C331 0.951 . S
H364 C332 0.950 . S
H365 C336 0.949 . S
H366 C337 0.950 . S
H367 C341 0.950 . S
H368 C343 0.950 . S
H369 C346 0.950 . S
H370 C348 0.950 . S
C371 C372 1.443 . S
C371 N375 1.376 . S
C371 C409 1.389 . S
C372 C371 1.443 . S
C372 C373 1.340 . S
C372 H412 0.951 . S
C373 C372 1.340 . S
C373 C374 1.439 . S
C373 H413 0.950 . S
C374 C373 1.439 . S
C374 N375 1.374 . S
C374 C408 1.395 . S
N375 C371 1.376 . S
N375 C374 1.374 . S
N375 Co376 2.008 . S
Co376 N375 2.008 . S
Co376 N377 1.995 . S
Co376 N382 2.008 . S
Co376 N387 1.995 . S
Co376 N392 2.282 . S
Co376 N398 2.282 . S
N377 Co376 1.995 . S
N377 C378 1.376 . S
N377 C381 1.383 . S
C378 N377 1.376 . S
C378 C379 1.446 . S
C378 C408 1.391 . S
C379 C378 1.446 . S
C379 C380 1.339 1_655 S
C379 H414 0.949 1_655 S
C380 C379 1.339 1_455 S
C380 C381 1.439 1_455 S
C380 H415 0.950 . S
C381 N377 1.383 . S
C381 C380 1.439 1_655 S
C381 C410 1.392 . S
N382 Co376 2.008 . S
N382 C383 1.376 . S
N382 C386 1.374 . S
C383 N382 1.376 . S
C383 C384 1.443 . S
C383 C410 1.389 . S
C384 C383 1.443 . S
C384 C385 1.340 . S
C384 H416 0.951 . S
C385 C384 1.340 . S
C385 C386 1.439 . S
C385 H417 0.950 . S
C386 N382 1.374 . S
C386 C385 1.439 . S
C386 C411 1.395 . S
N387 Co376 1.995 . S
N387 C388 1.376 . S
N387 C391 1.383 . S
C388 N387 1.376 . S
C388 C389 1.446 . S
C388 C411 1.391 . S
C389 C388 1.446 . S
C389 C390 1.339 . S
C389 H418 0.949 . S
C390 C389 1.339 . S
C390 C391 1.439 . S
C390 H419 0.950 . S
C391 N387 1.383 . S
C391 C390 1.439 . S
C391 C409 1.392 . S
N392 Co376 2.282 . S
N392 C395 1.332 . S
N392 C397 1.332 . S
C393 C394 1.386 . S
C393 C396 1.388 1_655 S
C394 C393 1.386 . S
C394 C395 1.382 . S
C394 H420 0.950 . S
C395 N392 1.332 . S
C395 C394 1.382 . S
C395 H406 0.952 . S
C396 C393 1.388 1_455 S
C396 C397 1.382 1_455 S
C396 H421 0.950 . S
C397 N392 1.332 . S
C397 C396 1.382 1_655 S
C397 H407 0.948 . S
N398 Co376 2.282 . S
N398 C402 1.332 . S
N398 C403 1.332 . S
C399 C400 1.388 . S
C399 C403 1.382 . S
C399 H422 0.950 . S
C400 C399 1.388 . S
C400 C401 1.386 . S
C401 C400 1.386 . S
C401 C402 1.382 . S
C401 H423 0.950 . S
C402 N398 1.332 . S
C402 C401 1.382 . S
C402 H404 0.952 . S
C403 N398 1.332 . S
C403 C399 1.382 . S
C403 H405 0.948 . S
H404 C402 0.952 . S
H405 C403 0.948 . S
H406 C395 0.952 . S
H407 C397 0.948 . S
C408 C374 1.395 . S
C408 C378 1.391 . S
C409 C371 1.389 . S
C409 C391 1.392 . S
C410 C381 1.392 . S
C410 C383 1.389 . S
C411 C386 1.395 . S
C411 C388 1.391 . S
H412 C372 0.951 . S
H413 C373 0.950 . S
H414 C379 0.949 1_455 S
H415 C380 0.950 . S
H416 C384 0.951 . S
H417 C385 0.950 . S
H418 C389 0.949 . S
H419 C390 0.950 . S
H420 C394 0.950 . S
H421 C396 0.950 . S
H422 C399 0.950 . S
H423 C401 0.950 . S
C424 C425 1.443 . S
C424 N428 1.376 . S
C424 C462 1.389 . S
C425 C424 1.443 . S
C425 C426 1.340 . S
C425 H465 0.951 . S
C426 C425 1.340 . S
C426 C427 1.439 . S
C426 H466 0.950 . S
C427 C426 1.439 . S
C427 N428 1.374 . S
C427 C461 1.395 . S
N428 C424 1.376 . S
N428 C427 1.374 . S
N428 Co429 2.008 . S
Co429 N428 2.008 . S
Co429 N430 1.995 . S
Co429 N435 2.008 . S
Co429 N440 1.995 . S
Co429 N445 2.282 . S
Co429 N451 2.282 . S
N430 Co429 1.995 . S
N430 C431 1.376 . S
N430 C434 1.383 . S
C431 N430 1.376 . S
C431 C432 1.446 . S
C431 C461 1.391 . S
C432 C431 1.446 . S
C432 C433 1.339 . S
C432 H467 0.949 . S
C433 C432 1.339 . S
C433 C434 1.439 . S
C433 H468 0.950 . S
C434 N430 1.383 . S
C434 C433 1.439 . S
C434 C463 1.392 . S
N435 Co429 2.008 . S
N435 C436 1.376 . S
N435 C439 1.374 . S
C436 N435 1.376 . S
C436 C437 1.443 . S
C436 C463 1.389 . S
C437 C436 1.443 . S
C437 C438 1.340 1_655 S
C437 H469 0.959 . S
C438 C437 1.340 1_455 S
C438 C439 1.439 1_455 S
C438 H470 0.950 . S
C439 N435 1.374 . S
C439 C438 1.439 1_655 S
C439 C464 1.395 . S
N440 Co429 1.995 . S
N440 C441 1.376 . S
N440 C444 1.383 . S
C441 N440 1.376 . S
C441 C442 1.446 . S
C441 C464 1.391 . S
C442 C441 1.446 . S
C442 C443 1.339 . S
C442 H471 0.949 . S
C443 C442 1.339 . S
C443 C444 1.439 . S
C443 H472 0.950 . S
C444 N440 1.383 . S
C444 C443 1.439 . S
C444 C462 1.392 . S
N445 Co429 2.282 . S
N445 C448 1.332 . S
N445 C450 1.332 . S
C446 C447 1.386 . S
C446 C449 1.388 1_455 S
C447 C446 1.386 . S
C447 C448 1.382 1_455 S
C447 H473 0.950 . S
C448 N445 1.332 . S
C448 C447 1.382 1_655 S
C448 H459 0.952 . S
C449 C446 1.388 1_655 S
C449 C450 1.382 . S
C449 H474 0.950 . S
C450 N445 1.332 . S
C450 C449 1.382 . S
C450 H460 0.948 . S
N451 Co429 2.282 . S
N451 C455 1.332 . S
N451 C456 1.332 . S
C452 C453 1.388 . S
C452 C456 1.382 . S
C452 H475 0.950 . S
C453 C452 1.388 . S
C453 C454 1.386 . S
C454 C453 1.386 . S
C454 C455 1.382 . S
C454 H476 0.950 . S
C455 N451 1.332 . S
C455 C454 1.382 . S
C455 H457 0.952 . S
C456 N451 1.332 . S
C456 C452 1.382 . S
C456 H458 0.948 . S
H457 C455 0.952 . S
H458 C456 0.948 . S
H459 C448 0.952 . S
H460 C450 0.948 . S
C461 C427 1.395 . S
C461 C431 1.391 . S
C462 C424 1.389 . S
C462 C444 1.392 . S
C463 C434 1.392 . S
C463 C436 1.389 . S
C464 C439 1.395 . S
C464 C441 1.391 . S
H465 C425 0.951 . S
H466 C426 0.950 . S
H467 C432 0.949 . S
H468 C433 0.950 . S
H469 C437 0.959 . S
H470 C438 0.950 . S
H471 C442 0.949 . S
H472 C443 0.950 . S
H473 C447 0.950 . S
H474 C449 0.950 . S
H475 C452 0.950 . S
H476 C454 0.950 . S
C477 C478 1.443 . S
C477 N481 1.376 . S
C477 C515 1.389 . S
C478 C477 1.443 . S
C478 C479 1.340 . S
C478 H518 0.951 . S
C479 C478 1.340 . S
C479 C480 1.439 . S
C479 H519 0.950 . S
C480 C479 1.439 . S
C480 N481 1.374 . S
C480 C514 1.395 . S
N481 C477 1.376 . S
N481 C480 1.374 . S
N481 Co482 2.008 . S
Co482 N481 2.008 . S
Co482 N483 1.995 . S
Co482 N488 2.008 . S
Co482 N493 1.995 . S
Co482 N498 2.282 . S
Co482 N504 2.282 . S
N483 Co482 1.995 . S
N483 C484 1.376 . S
N483 C487 1.383 . S
C484 N483 1.376 . S
C484 C485 1.446 . S
C484 C514 1.391 . S
C485 C484 1.446 . S
C485 C486 1.339 . S
C485 H520 0.949 . S
C486 C485 1.339 . S
C486 C487 1.439 . S
C486 H521 0.950 . S
C487 N483 1.383 . S
C487 C486 1.439 . S
C487 C516 1.392 . S
N488 Co482 2.008 . S
N488 C489 1.376 . S
N488 C492 1.374 . S
C489 N488 1.376 . S
C489 C490 1.443 . S
C489 C516 1.389 . S
C490 C489 1.443 . S
C490 C491 1.340 1_565 S
C490 H522 0.959 . S
C491 C490 1.340 1_545 S
C491 C492 1.439 1_545 S
C491 H523 0.950 . S
C492 N488 1.374 . S
C492 C491 1.439 1_565 S
C492 C517 1.395 . S
N493 Co482 1.995 . S
N493 C494 1.376 . S
N493 C497 1.383 . S
C494 N493 1.376 . S
C494 C495 1.446 . S
C494 C517 1.391 . S
C495 C494 1.446 . S
C495 C496 1.339 . S
C495 H524 0.949 . S
C496 C495 1.339 . S
C496 C497 1.439 . S
C496 H525 0.950 . S
C497 N493 1.383 . S
C497 C496 1.439 . S
C497 C515 1.392 . S
N498 Co482 2.282 . S
N498 C501 1.332 . S
N498 C503 1.332 . S
C499 C500 1.386 . S
C499 C502 1.388 1_545 S
C500 C499 1.386 . S
C500 C501 1.382 1_545 S
C500 H526 0.950 . S
C501 N498 1.332 . S
C501 C500 1.382 1_565 S
C501 H512 0.952 . S
C502 C499 1.388 1_565 S
C502 C503 1.382 . S
C502 H527 0.950 . S
C503 N498 1.332 . S
C503 C502 1.382 . S
C503 H513 0.948 . S
N504 Co482 2.282 . S
N504 C508 1.332 . S
N504 C509 1.332 . S
C505 C506 1.388 . S
C505 C509 1.382 . S
C505 H528 0.950 . S
C506 C505 1.388 . S
C506 C507 1.386 . S
C507 C506 1.386 . S
C507 C508 1.382 . S
C507 H529 0.950 . S
C508 N504 1.332 . S
C508 C507 1.382 . S
C508 H510 0.952 . S
C509 N504 1.332 . S
C509 C505 1.382 . S
C509 H511 0.948 . S
H510 C508 0.952 . S
H511 C509 0.948 . S
H512 C501 0.952 . S
H513 C503 0.948 . S
C514 C480 1.395 . S
C514 C484 1.391 . S
C515 C477 1.389 . S
C515 C497 1.392 . S
C516 C487 1.392 . S
C516 C489 1.389 . S
C517 C492 1.395 . S
C517 C494 1.391 . S
H518 C478 0.951 . S
H519 C479 0.950 . S
H520 C485 0.949 . S
H521 C486 0.950 . S
H522 C490 0.959 . S
H523 C491 0.950 . S
H524 C495 0.949 . S
H525 C496 0.950 . S
H526 C500 0.950 . S
H527 C502 0.950 . S
H528 C505 0.950 . S
H529 C507 0.950 . S
C530 C531 1.443 . S
C530 N534 1.376 . S
C530 C568 1.389 . S
C531 C530 1.443 . S
C531 C532 1.340 . S
C531 H571 0.951 . S
C532 C531 1.340 . S
C532 C533 1.439 . S
C532 H572 0.950 . S
C533 C532 1.439 . S
C533 N534 1.374 . S
C533 C567 1.395 . S
N534 C530 1.376 . S
N534 C533 1.374 . S
N534 Co535 2.008 . S
Co535 N534 2.008 . S
Co535 N536 1.995 . S
Co535 N541 2.008 . S
Co535 N546 1.995 . S
Co535 N551 2.282 . S
Co535 N557 2.282 . S
N536 Co535 1.995 . S
N536 C537 1.376 . S
N536 C540 1.383 . S
C537 N536 1.376 . S
C537 C538 1.446 . S
C537 C567 1.391 . S
C538 C537 1.446 . S
C538 C539 1.339 . S
C538 H573 0.949 . S
C539 C538 1.339 . S
C539 C540 1.439 . S
C539 H574 0.950 . S
C540 N536 1.383 . S
C540 C539 1.439 . S
C540 C569 1.392 . S
N541 Co535 2.008 . S
N541 C542 1.376 . S
N541 C545 1.374 . S
C542 N541 1.376 . S
C542 C543 1.443 . S
C542 C569 1.389 . S
C543 C542 1.443 . S
C543 C544 1.340 . S
C543 H575 0.951 . S
C544 C543 1.340 . S
C544 C545 1.439 . S
C544 H576 0.950 . S
C545 N541 1.374 . S
C545 C544 1.439 . S
C545 C570 1.395 . S
N546 Co535 1.995 . S
N546 C547 1.376 . S
N546 C550 1.383 . S
C547 N546 1.376 . S
C547 C548 1.446 . S
C547 C570 1.391 . S
C548 C547 1.446 . S
C548 C549 1.339 . S
C548 H577 0.949 . S
C549 C548 1.339 . S
C549 C550 1.439 . S
C549 H578 0.950 . S
C550 N546 1.383 . S
C550 C549 1.439 . S
C550 C568 1.392 . S
N551 Co535 2.282 . S
N551 C554 1.332 . S
N551 C556 1.332 . S
C552 C553 1.386 . S
C552 C555 1.388 . S
C553 C552 1.386 . S
C553 C554 1.382 . S
C553 H579 0.950 . S
C554 N551 1.332 . S
C554 C553 1.382 . S
C554 H565 0.952 . S
C555 C552 1.388 . S
C555 C556 1.382 . S
C555 H580 0.950 . S
C556 N551 1.332 . S
C556 C555 1.382 . S
C556 H566 0.948 . S
N557 Co535 2.282 . S
N557 C561 1.332 . S
N557 C562 1.332 . S
C558 C559 1.388 . S
C558 C562 1.382 . S
C558 H581 0.950 . S
C559 C558 1.388 . S
C559 C560 1.386 . S
C560 C559 1.386 . S
C560 C561 1.382 . S
C560 H582 0.950 . S
C561 N557 1.332 . S
C561 C560 1.382 . S
C561 H563 0.952 . S
C562 N557 1.332 . S
C562 C558 1.382 . S
C562 H564 0.948 . S
H563 C561 0.952 . S
H564 C562 0.948 . S
H565 C554 0.952 . S
H566 C556 0.948 . S
C567 C533 1.395 . S
C567 C537 1.391 . S
C568 C530 1.389 . S
C568 C550 1.392 . S
C569 C540 1.392 . S
C569 C542 1.389 . S
C570 C545 1.395 . S
C570 C547 1.391 . S
H571 C531 0.951 . S
H572 C532 0.950 . S
H573 C538 0.949 . S
H574 C539 0.950 . S
H575 C543 0.951 . S
H576 C544 0.950 . S
H577 C548 0.949 . S
H578 C549 0.950 . S
H579 C553 0.950 . S
H580 C555 0.950 . S
H581 C558 0.950 . S
H582 C560 0.950 . S
C583 C584 1.443 . S
C583 N587 1.376 . S
C583 C621 1.389 . S
C584 C583 1.443 . S
C584 C585 1.340 . S
C584 H624 0.951 . S
C585 C584 1.340 . S
C585 C586 1.439 . S
C585 H625 0.950 . S
C586 C585 1.439 . S
C586 N587 1.374 . S
C586 C620 1.395 . S
N587 C583 1.376 . S
N587 C586 1.374 . S
N587 Co588 2.008 . S
Co588 N587 2.008 . S
Co588 N589 1.995 . S
Co588 N594 2.008 . S
Co588 N599 1.995 . S
Co588 N604 2.282 . S
Co588 N610 2.282 . S
N589 Co588 1.995 . S
N589 C590 1.376 . S
N589 C593 1.383 . S
C590 N589 1.376 . S
C590 C591 1.446 . S
C590 C620 1.391 . S
C591 C590 1.446 . S
C591 C592 1.339 . S
C591 H626 0.949 . S
C592 C591 1.339 . S
C592 C593 1.439 . S
C592 H627 0.950 . S
C593 N589 1.383 . S
C593 C592 1.439 . S
C593 C622 1.392 . S
N594 Co588 2.008 . S
N594 C595 1.376 . S
N594 C598 1.374 . S
C595 N594 1.376 . S
C595 C596 1.443 . S
C595 C622 1.389 . S
C596 C595 1.443 . S
C596 C597 1.340 . S
C596 H628 0.951 . S
C597 C596 1.340 . S
C597 C598 1.439 . S
C597 H629 0.950 . S
C598 N594 1.374 . S
C598 C597 1.439 . S
C598 C623 1.395 . S
N599 Co588 1.995 . S
N599 C600 1.376 . S
N599 C603 1.383 . S
C600 N599 1.376 . S
C600 C601 1.446 . S
C600 C623 1.391 . S
C601 C600 1.446 . S
C601 C602 1.339 . S
C601 H630 0.949 . S
C602 C601 1.339 . S
C602 C603 1.439 . S
C602 H631 0.950 . S
C603 N599 1.383 . S
C603 C602 1.439 . S
C603 C621 1.392 . S
N604 Co588 2.282 . S
N604 C607 1.332 . S
N604 C609 1.332 . S
C605 C606 1.386 . S
C605 C608 1.388 . S
C606 C605 1.386 . S
C606 C607 1.382 . S
C606 H632 0.950 . S
C607 N604 1.332 . S
C607 C606 1.382 . S
C607 H618 0.952 . S
C608 C605 1.388 . S
C608 C609 1.382 . S
C608 H633 0.950 . S
C609 N604 1.332 . S
C609 C608 1.382 . S
C609 H619 0.948 . S
N610 Co588 2.282 . S
N610 C614 1.332 . S
N610 C615 1.332 . S
C611 C612 1.388 . S
C611 C615 1.382 . S
C611 H634 0.950 . S
C612 C611 1.388 . S
C612 C613 1.386 . S
C613 C612 1.386 . S
C613 C614 1.382 . S
C613 H635 0.950 . S
C614 N610 1.332 . S
C614 C613 1.382 . S
C614 H616 0.952 . S
C615 N610 1.332 . S
C615 C611 1.382 . S
C615 H617 0.948 . S
H616 C614 0.952 . S
H617 C615 0.948 . S
H618 C607 0.952 . S
H619 C609 0.948 . S
C620 C586 1.395 . S
C620 C590 1.391 . S
C621 C583 1.389 . S
C621 C603 1.392 . S
C622 C593 1.392 . S
C622 C595 1.389 . S
C623 C598 1.395 . S
C623 C600 1.391 . S
H624 C584 0.951 . S
H625 C585 0.950 . S
H626 C591 0.949 . S
H627 C592 0.950 . S
H628 C596 0.951 . S
H629 C597 0.950 . S
H630 C601 0.949 . S
H631 C602 0.950 . S
H632 C606 0.950 . S
H633 C608 0.950 . S
H634 C611 0.950 . S
H635 C613 0.950 . S
C636 C637 1.443 . S
C636 N640 1.376 . S
C636 C674 1.389 . S
C637 C636 1.443 . S
C637 C638 1.340 . S
C637 H677 0.951 . S
C638 C637 1.340 . S
C638 C639 1.439 . S
C638 H678 0.950 . S
C639 C638 1.439 . S
C639 N640 1.374 . S
C639 C673 1.395 . S
N640 C636 1.376 . S
N640 C639 1.374 . S
N640 Co641 2.008 . S
Co641 N640 2.008 . S
Co641 N642 1.995 . S
Co641 N647 2.008 . S
Co641 N652 1.995 . S
Co641 N657 2.282 . S
Co641 N663 2.282 . S
N642 Co641 1.995 . S
N642 C643 1.376 . S
N642 C646 1.383 . S
C643 N642 1.376 . S
C643 C644 1.446 . S
C643 C673 1.391 . S
C644 C643 1.446 . S
C644 C645 1.339 . S
C644 H679 0.949 . S
C645 C644 1.339 . S
C645 C646 1.439 . S
C645 H680 0.950 . S
C646 N642 1.383 . S
C646 C645 1.439 . S
C646 C675 1.392 . S
N647 Co641 2.008 . S
N647 C648 1.376 . S
N647 C651 1.374 . S
C648 N647 1.376 . S
C648 C649 1.443 . S
C648 C675 1.389 . S
C649 C648 1.443 . S
C649 C650 1.340 1_655 S
C649 H681 0.959 . S
C650 C649 1.340 1_455 S
C650 C651 1.439 1_455 S
C650 H682 0.950 . S
C651 N647 1.374 . S
C651 C650 1.439 1_655 S
C651 C676 1.395 . S
N652 Co641 1.995 . S
N652 C653 1.376 . S
N652 C656 1.383 . S
C653 N652 1.376 . S
C653 C654 1.446 . S
C653 C676 1.391 . S
C654 C653 1.446 . S
C654 C655 1.339 . S
C654 H683 0.949 . S
C655 C654 1.339 . S
C655 C656 1.439 . S
C655 H684 0.950 . S
C656 N652 1.383 . S
C656 C655 1.439 . S
C656 C674 1.392 . S
N657 Co641 2.282 . S
N657 C660 1.332 . S
N657 C662 1.332 . S
C658 C659 1.386 . S
C658 C661 1.388 1_455 S
C659 C658 1.386 . S
C659 C660 1.382 1_455 S
C659 H685 0.950 . S
C660 N657 1.332 . S
C660 C659 1.382 1_655 S
C660 H671 0.952 . S
C661 C658 1.388 1_655 S
C661 C662 1.382 . S
C661 H686 0.950 . S
C662 N657 1.332 . S
C662 C661 1.382 . S
C662 H672 0.948 . S
N663 Co641 2.282 . S
N663 C667 1.332 . S
N663 C668 1.332 . S
C664 C665 1.388 . S
C664 C668 1.382 . S
C664 H687 0.950 . S
C665 C664 1.388 . S
C665 C666 1.386 . S
C666 C665 1.386 . S
C666 C667 1.382 . S
C666 H688 0.950 . S
C667 N663 1.332 . S
C667 C666 1.382 . S
C667 H669 0.952 . S
C668 N663 1.332 . S
C668 C664 1.382 . S
C668 H670 0.948 . S
H669 C667 0.952 . S
H670 C668 0.948 . S
H671 C660 0.952 . S
H672 C662 0.948 . S
C673 C639 1.395 . S
C673 C643 1.391 . S
C674 C636 1.389 . S
C674 C656 1.392 . S
C675 C646 1.392 . S
C675 C648 1.389 . S
C676 C651 1.395 . S
C676 C653 1.391 . S
H677 C637 0.951 . S
H678 C638 0.950 . S
H679 C644 0.949 . S
H680 C645 0.950 . S
H681 C649 0.959 . S
H682 C650 0.950 . S
H683 C654 0.949 . S
H684 C655 0.950 . S
H685 C659 0.950 . S
H686 C661 0.950 . S
H687 C664 0.950 . S
H688 C666 0.950 . S
C689 C690 1.443 . S
C689 N693 1.376 . S
C689 C727 1.389 . S
C690 C689 1.443 . S
C690 C691 1.340 . S
C690 H730 0.951 . S
C691 C690 1.340 . S
C691 C692 1.439 . S
C691 H731 0.950 . S
C692 C691 1.439 . S
C692 N693 1.374 . S
C692 C726 1.395 . S
N693 C689 1.376 . S
N693 C692 1.374 . S
N693 Co694 2.008 . S
Co694 N693 2.008 . S
Co694 N695 1.995 . S
Co694 N700 2.008 . S
Co694 N705 1.995 . S
Co694 N710 2.282 . S
Co694 N716 2.282 . S
N695 Co694 1.995 . S
N695 C696 1.376 . S
N695 C699 1.383 . S
C696 N695 1.376 . S
C696 C697 1.446 . S
C696 C726 1.391 . S
C697 C696 1.446 . S
C697 C698 1.339 . S
C697 H732 0.949 . S
C698 C697 1.339 . S
C698 C699 1.439 . S
C698 H733 0.950 . S
C699 N695 1.383 . S
C699 C698 1.439 . S
C699 C728 1.392 . S
N700 Co694 2.008 . S
N700 C701 1.376 . S
N700 C704 1.374 . S
C701 N700 1.376 . S
C701 C702 1.443 . S
C701 C728 1.389 . S
C702 C701 1.443 . S
C702 C703 1.340 1_565 S
C702 H734 0.959 . S
C703 C702 1.340 1_545 S
C703 C704 1.439 1_545 S
C703 H735 0.950 . S
C704 N700 1.374 . S
C704 C703 1.439 1_565 S
C704 C729 1.395 . S
N705 Co694 1.995 . S
N705 C706 1.376 . S
N705 C709 1.383 . S
C706 N705 1.376 . S
C706 C707 1.446 . S
C706 C729 1.391 . S
C707 C706 1.446 . S
C707 C708 1.339 . S
C707 H736 0.949 . S
C708 C707 1.339 . S
C708 C709 1.439 . S
C708 H737 0.950 . S
C709 N705 1.383 . S
C709 C708 1.439 . S
C709 C727 1.392 . S
N710 Co694 2.282 . S
N710 C713 1.332 . S
N710 C715 1.332 . S
C711 C712 1.386 . S
C711 C714 1.388 1_545 S
C712 C711 1.386 . S
C712 C713 1.382 1_545 S
C712 H738 0.950 . S
C713 N710 1.332 . S
C713 C712 1.382 1_565 S
C713 H724 0.952 . S
C714 C711 1.388 1_565 S
C714 C715 1.382 . S
C714 H739 0.950 . S
C715 N710 1.332 . S
C715 C714 1.382 . S
C715 H725 0.948 . S
N716 Co694 2.282 . S
N716 C720 1.332 . S
N716 C721 1.332 . S
C717 C718 1.388 . S
C717 C721 1.382 . S
C717 H740 0.950 . S
C718 C717 1.388 . S
C718 C719 1.386 . S
C719 C718 1.386 . S
C719 C720 1.382 . S
C719 H741 0.950 . S
C720 N716 1.332 . S
C720 C719 1.382 . S
C720 H722 0.952 . S
C721 N716 1.332 . S
C721 C717 1.382 . S
C721 H723 0.948 . S
H722 C720 0.952 . S
H723 C721 0.948 . S
H724 C713 0.952 . S
H725 C715 0.948 . S
C726 C692 1.395 . S
C726 C696 1.391 . S
C727 C689 1.389 . S
C727 C709 1.392 . S
C728 C699 1.392 . S
C728 C701 1.389 . S
C729 C704 1.395 . S
C729 C706 1.391 . S
H730 C690 0.951 . S
H731 C691 0.950 . S
H732 C697 0.949 . S
H733 C698 0.950 . S
H734 C702 0.959 . S
H735 C703 0.950 . S
H736 C707 0.949 . S
H737 C708 0.950 . S
H738 C712 0.950 . S
H739 C714 0.950 . S
H740 C717 0.950 . S
H741 C719 0.950 . S
C742 C743 1.443 . S
C742 N746 1.376 . S
C742 C780 1.389 . S
C743 C742 1.443 . S
C743 C744 1.340 . S
C743 H783 0.951 . S
C744 C743 1.340 . S
C744 C745 1.439 . S
C744 H784 0.950 . S
C745 C744 1.439 . S
C745 N746 1.374 . S
C745 C779 1.395 . S
N746 C742 1.376 . S
N746 C745 1.374 . S
N746 Co747 2.008 . S
Co747 N746 2.008 . S
Co747 N748 1.995 . S
Co747 N753 2.008 . S
Co747 N758 1.995 . S
Co747 N763 2.282 . S
Co747 N769 2.282 . S
N748 Co747 1.995 . S
N748 C749 1.376 . S
N748 C752 1.383 . S
C749 N748 1.376 . S
C749 C750 1.446 . S
C749 C779 1.391 . S
C750 C749 1.446 . S
C750 C751 1.339 . S
C750 H785 0.949 . S
C751 C750 1.339 . S
C751 C752 1.439 . S
C751 H786 0.950 . S
C752 N748 1.383 . S
C752 C751 1.439 . S
C752 C781 1.392 . S
N753 Co747 2.008 . S
N753 C754 1.376 . S
N753 C757 1.374 . S
C754 N753 1.376 . S
C754 C755 1.443 . S
C754 C781 1.389 . S
C755 C754 1.443 . S
C755 C756 1.340 . S
C755 H787 0.951 . S
C756 C755 1.340 . S
C756 C757 1.439 . S
C756 H788 0.950 . S
C757 N753 1.374 . S
C757 C756 1.439 . S
C757 C782 1.395 . S
N758 Co747 1.995 . S
N758 C759 1.376 . S
N758 C762 1.383 . S
C759 N758 1.376 . S
C759 C760 1.446 . S
C759 C782 1.391 . S
C760 C759 1.446 . S
C760 C761 1.339 . S
C760 H789 0.949 . S
C761 C760 1.339 . S
C761 C762 1.439 . S
C761 H790 0.950 . S
C762 N758 1.383 . S
C762 C761 1.439 . S
C762 C780 1.392 . S
N763 Co747 2.282 . S
N763 C766 1.332 . S
N763 C768 1.332 . S
C764 C765 1.386 . S
C764 C767 1.388 . S
C765 C764 1.386 . S
C765 C766 1.382 . S
C765 H791 0.950 . S
C766 N763 1.332 . S
C766 C765 1.382 . S
C766 H777 0.952 . S
C767 C764 1.388 . S
C767 C768 1.382 . S
C767 H792 0.950 . S
C768 N763 1.332 . S
C768 C767 1.382 . S
C768 H778 0.948 . S
N769 Co747 2.282 . S
N769 C773 1.332 . S
N769 C774 1.332 . S
C770 C771 1.388 . S
C770 C774 1.382 . S
C770 H793 0.950 . S
C771 C770 1.388 . S
C771 C772 1.386 . S
C772 C771 1.386 . S
C772 C773 1.382 . S
C772 H794 0.950 . S
C773 N769 1.332 . S
C773 C772 1.382 . S
C773 H775 0.952 . S
C774 N769 1.332 . S
C774 C770 1.382 . S
C774 H776 0.948 . S
H775 C773 0.952 . S
H776 C774 0.948 . S
H777 C766 0.952 . S
H778 C768 0.948 . S
C779 C745 1.395 . S
C779 C749 1.391 . S
C780 C742 1.389 . S
C780 C762 1.392 . S
C781 C752 1.392 . S
C781 C754 1.389 . S
C782 C757 1.395 . S
C782 C759 1.391 . S
H783 C743 0.951 . S
H784 C744 0.950 . S
H785 C750 0.949 . S
H786 C751 0.950 . S
H787 C755 0.951 . S
H788 C756 0.950 . S
H789 C760 0.949 . S
H790 C761 0.950 . S
H791 C765 0.950 . S
H792 C767 0.950 . S
H793 C770 0.950 . S
H794 C772 0.950 . S
C795 C796 1.443 . S
C795 N799 1.376 . S
C795 C833 1.389 . S
C796 C795 1.443 . S
C796 C797 1.340 . S
C796 H836 0.951 . S
C797 C796 1.340 . S
C797 C798 1.439 . S
C797 H837 0.950 . S
C798 C797 1.439 . S
C798 N799 1.374 . S
C798 C832 1.395 . S
N799 C795 1.376 . S
N799 C798 1.374 . S
N799 Co800 2.008 . S
Co800 N799 2.008 . S
Co800 N801 1.995 . S
Co800 N806 2.008 . S
Co800 N811 1.995 . S
Co800 N816 2.282 . S
Co800 N822 2.282 . S
N801 Co800 1.995 . S
N801 C802 1.376 . S
N801 C805 1.383 . S
C802 N801 1.376 . S
C802 C803 1.446 . S
C802 C832 1.391 . S
C803 C802 1.446 . S
C803 C804 1.339 . S
C803 H838 0.949 . S
C804 C803 1.339 . S
C804 C805 1.439 . S
C804 H839 0.950 . S
C805 N801 1.383 . S
C805 C804 1.439 . S
C805 C834 1.392 . S
N806 Co800 2.008 . S
N806 C807 1.376 . S
N806 C810 1.374 . S
C807 N806 1.376 . S
C807 C808 1.443 . S
C807 C834 1.389 . S
C808 C807 1.443 . S
C808 C809 1.340 . S
C808 H840 0.951 . S
C809 C808 1.340 . S
C809 C810 1.439 . S
C809 H841 0.950 . S
C810 N806 1.374 . S
C810 C809 1.439 . S
C810 C835 1.395 . S
N811 Co800 1.995 . S
N811 C812 1.376 . S
N811 C815 1.383 . S
C812 N811 1.376 . S
C812 C813 1.446 . S
C812 C835 1.391 . S
C813 C812 1.446 . S
C813 C814 1.339 . S
C813 H842 0.949 . S
C814 C813 1.339 . S
C814 C815 1.439 . S
C814 H843 0.950 . S
C815 N811 1.383 . S
C815 C814 1.439 . S
C815 C833 1.392 . S
N816 Co800 2.282 . S
N816 C819 1.332 . S
N816 C821 1.332 . S
C817 C818 1.386 . S
C817 C820 1.388 . S
C818 C817 1.386 . S
C818 C819 1.382 . S
C818 H844 0.950 . S
C819 N816 1.332 . S
C819 C818 1.382 . S
C819 H830 0.952 . S
C820 C817 1.388 . S
C820 C821 1.382 . S
C820 H845 0.950 . S
C821 N816 1.332 . S
C821 C820 1.382 . S
C821 H831 0.948 . S
N822 Co800 2.282 . S
N822 C826 1.332 . S
N822 C827 1.332 . S
C823 C824 1.388 . S
C823 C827 1.382 . S
C823 H846 0.950 . S
C824 C823 1.388 . S
C824 C825 1.386 . S
C825 C824 1.386 . S
C825 C826 1.382 . S
C825 H847 0.950 . S
C826 N822 1.332 . S
C826 C825 1.382 . S
C826 H828 0.952 . S
C827 N822 1.332 . S
C827 C823 1.382 . S
C827 H829 0.948 . S
H828 C826 0.952 . S
H829 C827 0.948 . S
H830 C819 0.952 . S
H831 C821 0.948 . S
C832 C798 1.395 . S
C832 C802 1.391 . S
C833 C795 1.389 . S
C833 C815 1.392 . S
C834 C805 1.392 . S
C834 C807 1.389 . S
C835 C810 1.395 . S
C835 C812 1.391 . S
H836 C796 0.951 . S
H837 C797 0.950 . S
H838 C803 0.949 . S
H839 C804 0.950 . S
H840 C808 0.951 . S
H841 C809 0.950 . S
H842 C813 0.949 . S
H843 C814 0.950 . S
H844 C818 0.950 . S
H845 C820 0.950 . S
H846 C823 0.950 . S
H847 C825 0.950 . S
C848 C849 1.363 . S
C848 C854 1.379 . S
C848 N856 1.356 . S
C849 C848 1.363 . S
C849 C855 1.363 . S
C850 C851 1.363 . S
C850 C855 1.379 . S
C850 N857 1.356 . S
C851 C850 1.363 . S
C851 C854 1.363 . S
N852 C854 1.356 . S
N852 H864 0.984 . S
N852 H865 0.985 . S
N853 C855 1.356 . S
N853 H858 0.984 . S
N853 H859 0.985 . S
C854 C848 1.379 . S
C854 C851 1.363 . S
C854 N852 1.356 . S
C855 C849 1.363 . S
C855 C850 1.379 . S
C855 N853 1.356 . S
N856 C848 1.356 . S
N856 H862 0.984 . S
N856 H863 0.984 . S
N857 C850 1.356 . S
N857 H860 0.984 . S
N857 H861 0.985 . S
H858 N853 0.984 . S
H859 N853 0.985 . S
H860 N857 0.984 . S
H861 N857 0.985 . S
H862 N856 0.984 . S
H863 N856 0.984 . S
H864 N852 0.984 . S
H865 N852 0.985 . S
C866 C867 1.363 . S
C866 C872 1.379 . S
C866 N874 1.356 . S
C867 C866 1.363 . S
C867 C873 1.363 . S
C868 C869 1.363 . S
C868 C873 1.379 . S
C868 N875 1.356 . S
C869 C868 1.363 . S
C869 C872 1.363 . S
N870 C872 1.356 . S
N870 H882 0.984 . S
N870 H883 0.985 . S
N871 C873 1.356 . S
N871 H876 0.984 . S
N871 H877 0.985 . S
C872 C866 1.379 . S
C872 C869 1.363 . S
C872 N870 1.356 . S
C873 C867 1.363 . S
C873 C868 1.379 . S
C873 N871 1.356 . S
N874 C866 1.356 . S
N874 H880 0.984 . S
N874 H881 0.984 . S
N875 C868 1.356 . S
N875 H878 0.984 . S
N875 H879 0.985 . S
H876 N871 0.984 . S
H877 N871 0.985 . S
H878 N875 0.984 . S
H879 N875 0.985 . S
H880 N874 0.984 . S
H881 N874 0.984 . S
H882 N870 0.984 . S
H883 N870 0.985 . S
C884 C885 1.363 . S
C884 C890 1.379 . S
C884 N892 1.356 . S
C885 C884 1.363 . S
C885 C891 1.363 . S
C886 C887 1.363 . S
C886 C891 1.379 . S
C886 N893 1.356 . S
C887 C886 1.363 . S
C887 C890 1.363 . S
N888 C890 1.356 . S
N888 H900 0.984 . S
N888 H901 0.985 . S
N889 C891 1.356 . S
N889 H894 0.984 . S
N889 H895 0.985 . S
C890 C884 1.379 . S
C890 C887 1.363 . S
C890 N888 1.356 . S
C891 C885 1.363 . S
C891 C886 1.379 . S
C891 N889 1.356 . S
N892 C884 1.356 . S
N892 H898 0.984 . S
N892 H899 0.984 . S
N893 C886 1.356 . S
N893 H896 0.984 . S
N893 H897 0.985 . S
H894 N889 0.984 . S
H895 N889 0.985 . S
H896 N893 0.984 . S
H897 N893 0.985 . S
H898 N892 0.984 . S
H899 N892 0.984 . S
H900 N888 0.984 . S
H901 N888 0.985 . S
C902 C903 1.363 . S
C902 C908 1.379 . S
C902 N910 1.356 . S
C903 C902 1.363 . S
C903 C909 1.363 . S
C904 C905 1.363 . S
C904 C909 1.379 . S
C904 N911 1.356 . S
C905 C904 1.363 . S
C905 C908 1.363 . S
N906 C908 1.356 . S
N906 H918 0.984 . S
N906 H919 0.985 . S
N907 C909 1.356 . S
N907 H912 0.984 . S
N907 H913 0.985 . S
C908 C902 1.379 . S
C908 C905 1.363 . S
C908 N906 1.356 . S
C909 C903 1.363 . S
C909 C904 1.379 . S
C909 N907 1.356 . S
N910 C902 1.356 . S
N910 H916 0.984 . S
N910 H917 0.984 . S
N911 C904 1.356 . S
N911 H914 0.984 . S
N911 H915 0.985 . S
H912 N907 0.984 . S
H913 N907 0.985 . S
H914 N911 0.984 . S
H915 N911 0.985 . S
H916 N910 0.984 . S
H917 N910 0.984 . S
H918 N906 0.984 . S
H919 N906 0.985 . S
C920 C921 1.363 . S
C920 C926 1.379 . S
C920 N928 1.356 . S
C921 C920 1.363 . S
C921 C927 1.363 . S
C922 C923 1.363 . S
C922 C927 1.379 . S
C922 N929 1.356 . S
C923 C922 1.363 . S
C923 C926 1.363 . S
N924 C926 1.356 . S
N924 H936 0.984 . S
N924 H937 0.985 . S
N925 C927 1.356 . S
N925 H930 0.984 . S
N925 H931 0.991 . S
C926 C920 1.379 . S
C926 C923 1.363 . S
C926 N924 1.356 . S
C927 C921 1.363 . S
C927 C922 1.379 . S
C927 N925 1.356 . S
N928 C920 1.356 . S
N928 H934 0.984 . S
N928 H935 0.984 . S
N929 C922 1.356 . S
N929 H932 0.984 . S
N929 H933 0.991 . S
H930 N925 0.984 . S
H931 N925 0.991 . S
H932 N929 0.984 . S
H933 N929 0.991 . S
H934 N928 0.984 . S
H935 N928 0.984 . S
H936 N924 0.984 . S
H937 N924 0.985 . S
C938 C939 1.363 . S
C938 C944 1.379 . S
C938 N946 1.356 . S
C939 C938 1.363 . S
C939 C945 1.363 . S
C940 C941 1.363 . S
C940 C945 1.379 . S
C940 N947 1.356 . S
C941 C940 1.363 . S
C941 C944 1.363 . S
N942 C944 1.356 . S
N942 H954 0.991 . S
N942 H955 0.985 . S
N943 C945 1.356 . S
N943 H948 0.984 . S
N943 H949 0.985 . S
C944 C938 1.379 . S
C944 C941 1.363 . S
C944 N942 1.356 . S
C945 C939 1.363 . S
C945 C940 1.379 . S
C945 N943 1.356 . S
N946 C938 1.356 . S
N946 H952 0.991 . S
N946 H953 0.984 . S
N947 C940 1.356 . S
N947 H950 0.984 . S
N947 H951 0.985 . S
H948 N943 0.984 . S
H949 N943 0.985 . S
H950 N947 0.984 . S
H951 N947 0.985 . S
H952 N946 0.991 . S
H953 N946 0.984 . S
H954 N942 0.991 . S
H955 N942 0.985 . S
C956 C957 1.363 . S
C956 C962 1.379 . S
C956 N964 1.356 . S
C957 C956 1.363 . S
C957 C963 1.363 . S
C958 C959 1.363 . S
C958 C963 1.379 . S
C958 N965 1.356 . S
C959 C958 1.363 . S
C959 C962 1.363 . S
N960 C962 1.356 . S
N960 H972 0.984 . S
N960 H973 0.985 . S
N961 C963 1.356 . S
N961 H966 0.984 . S
N961 H967 0.985 . S
C962 C956 1.379 . S
C962 C959 1.363 . S
C962 N960 1.356 . S
C963 C957 1.363 . S
C963 C958 1.379 . S
C963 N961 1.356 . S
N964 C956 1.356 . S
N964 H970 0.984 . S
N964 H971 0.984 . S
N965 C958 1.356 . S
N965 H968 0.984 . S
N965 H969 0.985 . S
H966 N961 0.984 . S
H967 N961 0.985 . S
H968 N965 0.984 . S
H969 N965 0.985 . S
H970 N964 0.984 . S
H971 N964 0.984 . S
H972 N960 0.984 . S
H973 N960 0.985 . S
C974 C975 1.363 . S
C974 C980 1.379 . S
C974 N982 1.356 . S
C975 C974 1.363 . S
C975 C981 1.363 . S
C976 C977 1.363 . S
C976 C981 1.379 . S
C976 N983 1.356 . S
C977 C976 1.363 . S
C977 C980 1.363 . S
N978 C980 1.356 . S
N978 H990 0.984 . S
N978 H991 0.985 . S
N979 C981 1.356 . S
N979 H984 0.984 . S
N979 H985 0.985 . S
C980 C974 1.379 . S
C980 C977 1.363 . S
C980 N978 1.356 . S
C981 C975 1.363 . S
C981 C976 1.379 . S
C981 N979 1.356 . S
N982 C974 1.356 . S
N982 H988 0.984 . S
N982 H989 0.984 . S
N983 C976 1.356 . S
N983 H986 0.984 . S
N983 H987 0.985 . S
H984 N979 0.984 . S
H985 N979 0.985 . S
H986 N983 0.984 . S
H987 N983 0.985 . S
H988 N982 0.984 . S
H989 N982 0.984 . S
H990 N978 0.984 . S
H991 N978 0.985 . S
C992 C993 1.363 1_655 S
C992 C998 1.379 1_655 S
C992 N1000 1.356 . S
C993 C992 1.363 1_455 S
C993 C999 1.363 . S
C994 C995 1.363 . S
C994 C999 1.379 . S
C994 N1001 1.356 . S
C995 C994 1.363 . S
C995 C998 1.363 . S
N996 C998 1.356 . S
N996 H1008 0.984 1_455 S
N996 H1009 0.985 . S
N997 C999 1.356 . S
N997 H1002 0.984 . S
N997 H1003 0.985 . S
C998 C992 1.379 1_455 S
C998 C995 1.363 . S
C998 N996 1.356 . S
C999 C993 1.363 . S
C999 C994 1.379 . S
C999 N997 1.356 . S
N1000 C992 1.356 . S
N1000 H1006 0.984 . S
N1000 H1007 0.984 . S
N1001 C994 1.356 . S
N1001 H1004 0.984 . S
N1001 H1005 0.985 . S
H1002 N997 0.984 . S
H1003 N997 0.985 . S
H1004 N1001 0.984 . S
H1005 N1001 0.985 . S
H1006 N1000 0.984 . S
H1007 N1000 0.984 . S
H1008 N996 0.984 1_655 S
H1009 N996 0.985 . S
C1010 C1011 1.363 1_655 S
C1010 C1016 1.379 . S
C1010 N1018 1.356 . S
C1011 C1010 1.363 1_455 S
C1011 C1017 1.363 . S
C1012 C1013 1.363 . S
C1012 C1017 1.379 . S
C1012 N1019 1.356 . S
C1013 C1012 1.363 . S
C1013 C1016 1.363 1_455 S
N1014 C1016 1.356 1_565 S
N1014 H1026 0.984 . S
N1014 H1027 0.985 1_655 S
N1015 C1017 1.356 . S
N1015 H1020 0.984 . S
N1015 H1021 0.985 . S
C1016 C1010 1.379 . S
C1016 C1013 1.363 1_655 S
C1016 N1014 1.356 1_545 S
C1017 C1011 1.363 . S
C1017 C1012 1.379 . S
C1017 N1015 1.356 . S
N1018 C1010 1.356 . S
N1018 H1024 0.984 . S
N1018 H1025 0.984 . S
N1019 C1012 1.356 . S
N1019 H1022 0.986 . S
N1019 H1023 0.985 . S
H1020 N1015 0.984 . S
H1021 N1015 0.985 . S
H1022 N1019 0.986 . S
H1023 N1019 0.985 . S
H1024 N1018 0.984 . S
H1025 N1018 0.984 . S
H1026 N1014 0.984 . S
H1027 N1014 0.985 1_455 S
C1028 C1029 1.363 . S
C1028 C1034 1.379 . S
C1028 N1036 1.356 . S
C1029 C1028 1.363 . S
C1029 C1035 1.363 1_545 S
C1030 C1031 1.363 1_565 S
C1030 C1035 1.379 . S
C1030 N1037 1.356 . S
C1031 C1030 1.363 1_545 S
C1031 C1034 1.363 . S
N1032 C1034 1.356 . S
N1032 H1044 0.984 . S
N1032 H1045 0.985 . S
N1033 C1035 1.356 . S
N1033 H1038 0.984 1_565 S
N1033 H1039 0.985 . S
C1034 C1028 1.379 . S
C1034 C1031 1.363 . S
C1034 N1032 1.356 . S
C1035 C1029 1.363 1_565 S
C1035 C1030 1.379 . S
C1035 N1033 1.356 . S
N1036 C1028 1.356 . S
N1036 H1042 0.984 . S
N1036 H1043 0.984 . S
N1037 C1030 1.356 . S
N1037 H1040 0.984 . S
N1037 H1041 0.985 . S
H1038 N1033 0.984 1_545 S
H1039 N1033 0.985 . S
H1040 N1037 0.984 . S
H1041 N1037 0.985 . S
H1042 N1036 0.984 . S
H1043 N1036 0.984 . S
H1044 N1032 0.984 . S
H1045 N1032 0.985 . S
C1046 C1047 1.363 . S
C1046 C1052 1.379 . S
C1046 N1054 1.356 . S
C1047 C1046 1.363 . S
C1047 C1053 1.363 . S
C1048 C1049 1.363 . S
C1048 C1053 1.379 . S
C1048 N1055 1.356 . S
C1049 C1048 1.363 . S
C1049 C1052 1.363 . S
N1050 C1052 1.356 . S
N1050 H1062 0.984 . S
N1050 H1063 0.985 . S
N1051 C1053 1.356 . S
N1051 H1056 0.984 . S
N1051 H1057 0.985 . S
C1052 C1046 1.379 . S
C1052 C1049 1.363 . S
C1052 N1050 1.356 . S
C1053 C1047 1.363 . S
C1053 C1048 1.379 . S
C1053 N1051 1.356 . S
N1054 C1046 1.356 . S
N1054 H1060 0.984 . S
N1054 H1061 0.984 . S
N1055 C1048 1.356 . S
N1055 H1058 0.984 . S
N1055 H1059 0.985 . S
H1056 N1051 0.984 . S
H1057 N1051 0.985 . S
H1058 N1055 0.984 . S
H1059 N1055 0.985 . S
H1060 N1054 0.984 . S
H1061 N1054 0.984 . S
H1062 N1050 0.984 . S
H1063 N1050 0.985 . S
C1064 C1065 1.363 . S
C1064 C1070 1.379 . S
C1064 N1072 1.356 . S
C1065 C1064 1.363 . S
C1065 C1071 1.363 . S
C1066 C1067 1.363 . S
C1066 C1071 1.379 . S
C1066 N1073 1.356 1_455 S
C1067 C1066 1.363 . S
C1067 C1070 1.363 . S
N1068 C1070 1.356 . S
N1068 H1080 0.984 . S
N1068 H1081 0.985 . S
N1069 C1071 1.357 . S
N1069 H1074 0.985 . S
N1069 H1075 0.983 1_455 S
C1070 C1064 1.379 . S
C1070 C1067 1.363 . S
C1070 N1068 1.356 . S
C1071 C1065 1.363 . S
C1071 C1066 1.379 . S
C1071 N1069 1.357 . S
N1072 C1064 1.356 . S
N1072 H1078 0.984 . S
N1072 H1079 0.984 . S
N1073 C1066 1.356 1_655 S
N1073 H1076 0.984 . S
N1073 H1077 0.985 . S
H1074 N1069 0.985 . S
H1075 N1069 0.983 1_655 S
H1076 N1073 0.984 . S
H1077 N1073 0.985 . S
H1078 N1072 0.984 . S
H1079 N1072 0.984 . S
H1080 N1068 0.984 . S
H1081 N1068 0.985 . S
C1082 C1083 1.363 . S
C1082 C1088 1.379 . S
C1082 N1090 1.356 1_545 S
C1083 C1082 1.363 . S
C1083 C1089 1.363 . S
C1084 C1085 1.363 . S
C1084 C1089 1.379 . S
C1084 N1091 1.356 1_455 S
C1085 C1084 1.363 . S
C1085 C1088 1.363 . S
N1086 C1088 1.356 1_565 S
N1086 H1098 0.984 . S
N1086 H1099 0.985 . S
N1087 C1089 1.356 . S
N1087 H1092 0.984 . S
N1087 H1093 0.985 1_455 S
C1088 C1082 1.379 . S
C1088 C1085 1.363 . S
C1088 N1086 1.356 1_545 S
C1089 C1083 1.363 . S
C1089 C1084 1.379 . S
C1089 N1087 1.356 . S
N1090 C1082 1.356 1_565 S
N1090 H1096 0.984 . S
N1090 H1097 0.984 . S
N1091 C1084 1.356 1_655 S
N1091 H1094 0.984 . S
N1091 H1095 0.985 . S
H1092 N1087 0.984 . S
H1093 N1087 0.985 1_655 S
H1094 N1091 0.984 . S
H1095 N1091 0.985 . S
H1096 N1090 0.984 . S
H1097 N1090 0.984 . S
H1098 N1086 0.984 . S
H1099 N1086 0.985 . S
C1100 C1101 1.363 . S
C1100 C1106 1.379 . S
C1100 N1108 1.356 . S
C1101 C1100 1.363 . S
C1101 C1107 1.363 . S
C1102 C1103 1.363 . S
C1102 C1107 1.379 . S
C1102 N1109 1.356 1_545 S
C1103 C1102 1.363 . S
C1103 C1106 1.363 . S
N1104 C1106 1.356 . S
N1104 H1116 0.984 . S
N1104 H1117 0.985 . S
N1105 C1107 1.356 1_565 S
N1105 H1110 0.984 . S
N1105 H1111 0.985 . S
C1106 C1100 1.379 . S
C1106 C1103 1.363 . S
C1106 N1104 1.356 . S
C1107 C1101 1.363 . S
C1107 C1102 1.379 . S
C1107 N1105 1.356 1_545 S
N1108 C1100 1.356 . S
N1108 H1114 0.984 . S
N1108 H1115 0.984 . S
N1109 C1102 1.356 1_565 S
N1109 H1112 0.984 . S
N1109 H1113 0.985 . S
H1110 N1105 0.984 . S
H1111 N1105 0.985 . S
H1112 N1109 0.984 . S
H1113 N1109 0.985 . S
H1114 N1108 0.984 . S
H1115 N1108 0.984 . S
H1116 N1104 0.984 . S
H1117 N1104 0.985 . S
C1118 C1119 1.363 . S
C1118 C1124 1.379 . S
C1118 N1126 1.356 . S
C1119 C1118 1.363 . S
C1119 C1125 1.363 . S
C1120 C1121 1.363 . S
C1120 C1125 1.379 . S
C1120 N1127 1.356 . S
C1121 C1120 1.363 . S
C1121 C1124 1.363 . S
N1122 C1124 1.356 . S
N1122 H1134 0.984 . S
N1122 H1135 0.985 . S
N1123 C1125 1.356 . S
N1123 H1128 0.984 . S
N1123 H1129 0.985 . S
C1124 C1118 1.379 . S
C1124 C1121 1.363 . S
C1124 N1122 1.356 . S
C1125 C1119 1.363 . S
C1125 C1120 1.379 . S
C1125 N1123 1.356 . S
N1126 C1118 1.356 . S
N1126 H1132 0.984 . S
N1126 H1133 0.984 . S
N1127 C1120 1.356 . S
N1127 H1130 0.984 . S
N1127 H1131 0.985 . S
H1128 N1123 0.984 . S
H1129 N1123 0.985 . S
H1130 N1127 0.984 . S
H1131 N1127 0.985 . S
H1132 N1126 0.984 . S
H1133 N1126 0.984 . S
H1134 N1122 0.984 . S
H1135 N1122 0.985 . S
C1136 C1137 1.363 . S
C1136 C1142 1.379 . S
C1136 N1144 1.356 . S
C1137 C1136 1.363 . S
C1137 C1143 1.363 . S
C1138 C1139 1.363 . S
C1138 C1143 1.379 . S
C1138 N1145 1.356 . S
C1139 C1138 1.363 . S
C1139 C1142 1.363 . S
N1140 C1142 1.356 . S
N1140 H1152 0.984 . S
N1140 H1153 0.985 . S
N1141 C1143 1.356 . S
N1141 H1146 0.984 . S
N1141 H1147 0.985 . S
C1142 C1136 1.379 . S
C1142 C1139 1.363 . S
C1142 N1140 1.356 . S
C1143 C1137 1.363 . S
C1143 C1138 1.379 . S
C1143 N1141 1.356 . S
N1144 C1136 1.356 . S
N1144 H1150 0.984 . S
N1144 H1151 0.984 . S
N1145 C1138 1.356 . S
N1145 H1148 0.984 . S
N1145 H1149 0.985 . S
H1146 N1141 0.984 . S
H1147 N1141 0.985 . S
H1148 N1145 0.984 . S
H1149 N1145 0.985 . S
H1150 N1144 0.984 . S
H1151 N1144 0.984 . S
H1152 N1140 0.984 . S
H1153 N1140 0.985 . S
C1154 C1155 1.363 . S
C1154 C1160 1.379 . S
C1154 N1162 1.356 . S
C1155 C1154 1.363 . S
C1155 C1161 1.363 . S
C1156 C1157 1.363 . S
C1156 C1161 1.379 . S
C1156 N1163 1.356 . S
C1157 C1156 1.363 . S
C1157 C1160 1.363 . S
N1158 C1160 1.356 . S
N1158 H1170 0.984 . S
N1158 H1171 0.985 . S
N1159 C1161 1.356 . S
N1159 H1164 0.984 . S
N1159 H1165 0.985 . S
C1160 C1154 1.379 . S
C1160 C1157 1.363 . S
C1160 N1158 1.356 . S
C1161 C1155 1.363 . S
C1161 C1156 1.379 . S
C1161 N1159 1.356 . S
N1162 C1154 1.356 . S
N1162 H1168 0.984 . S
N1162 H1169 0.984 . S
N1163 C1156 1.356 . S
N1163 H1166 0.984 . S
N1163 H1167 0.985 . S
H1164 N1159 0.984 . S
H1165 N1159 0.985 . S
H1166 N1163 0.984 . S
H1167 N1163 0.985 . S
H1168 N1162 0.984 . S
H1169 N1162 0.984 . S
H1170 N1158 0.984 . S
H1171 N1158 0.985 . S
C1172 C1173 1.363 . S
C1172 C1178 1.379 . S
C1172 N1180 1.356 . S
C1173 C1172 1.363 . S
C1173 C1179 1.363 . S
C1174 C1175 1.363 . S
C1174 C1179 1.379 . S
C1174 N1181 1.356 . S
C1175 C1174 1.363 . S
C1175 C1178 1.363 . S
N1176 C1178 1.356 . S
N1176 H1188 0.984 . S
N1176 H1189 0.985 . S
N1177 C1179 1.356 . S
N1177 H1182 0.984 . S
N1177 H1183 0.985 . S
C1178 C1172 1.379 . S
C1178 C1175 1.363 . S
C1178 N1176 1.356 . S
C1179 C1173 1.363 . S
C1179 C1174 1.379 . S
C1179 N1177 1.356 . S
N1180 C1172 1.356 . S
N1180 H1186 0.984 . S
N1180 H1187 0.984 . S
N1181 C1174 1.356 . S
N1181 H1184 0.984 . S
N1181 H1185 0.985 . S
H1182 N1177 0.984 . S
H1183 N1177 0.985 . S
H1184 N1181 0.984 . S
H1185 N1181 0.985 . S
H1186 N1180 0.984 . S
H1187 N1180 0.984 . S
H1188 N1176 0.984 . S
H1189 N1176 0.985 . S
C1190 C1191 1.363 . S
C1190 C1196 1.379 . S
C1190 N1198 1.356 . S
C1191 C1190 1.363 . S
C1191 C1197 1.363 . S
C1192 C1193 1.363 . S
C1192 C1197 1.379 . S
C1192 N1199 1.356 . S
C1193 C1192 1.363 . S
C1193 C1196 1.363 . S
N1194 C1196 1.356 . S
N1194 H1206 0.984 . S
N1194 H1207 0.985 . S
N1195 C1197 1.356 . S
N1195 H1200 0.984 . S
N1195 H1201 0.985 . S
C1196 C1190 1.379 . S
C1196 C1193 1.363 . S
C1196 N1194 1.356 . S
C1197 C1191 1.363 . S
C1197 C1192 1.379 . S
C1197 N1195 1.356 . S
N1198 C1190 1.356 . S
N1198 H1204 0.984 . S
N1198 H1205 0.984 . S
N1199 C1192 1.356 . S
N1199 H1202 0.984 . S
N1199 H1203 0.985 . S
H1200 N1195 0.984 . S
H1201 N1195 0.985 . S
H1202 N1199 0.984 . S
H1203 N1199 0.985 . S
H1204 N1198 0.984 . S
H1205 N1198 0.984 . S
H1206 N1194 0.984 . S
H1207 N1194 0.985 . S
C1208 C1209 1.363 . S
C1208 C1214 1.379 . S
C1208 N1216 1.356 . S
C1209 C1208 1.363 . S
C1209 C1215 1.363 . S
C1210 C1211 1.363 . S
C1210 C1215 1.379 . S
C1210 N1217 1.356 . S
C1211 C1210 1.363 . S
C1211 C1214 1.363 . S
N1212 C1214 1.356 . S
N1212 H1224 0.984 . S
N1212 H1225 0.985 . S
N1213 C1215 1.356 . S
N1213 H1218 0.984 . S
N1213 H1219 0.985 . S
C1214 C1208 1.379 . S
C1214 C1211 1.363 . S
C1214 N1212 1.356 . S
C1215 C1209 1.363 . S
C1215 C1210 1.379 . S
C1215 N1213 1.356 . S
N1216 C1208 1.356 . S
N1216 H1222 0.984 . S
N1216 H1223 0.984 . S
N1217 C1210 1.356 . S
N1217 H1220 0.984 . S
N1217 H1221 0.985 . S
H1218 N1213 0.984 . S
H1219 N1213 0.985 . S
H1220 N1217 0.984 . S
H1221 N1217 0.985 . S
H1222 N1216 0.984 . S
H1223 N1216 0.984 . S
H1224 N1212 0.984 . S
H1225 N1212 0.985 . S
C1226 C1227 1.363 . S
C1226 C1232 1.379 . S
C1226 N1234 1.356 . S
C1227 C1226 1.363 . S
C1227 C1233 1.363 . S
C1228 C1229 1.363 . S
C1228 C1233 1.379 . S
C1228 N1235 1.356 . S
C1229 C1228 1.363 . S
C1229 C1232 1.363 . S
N1230 C1232 1.356 . S
N1230 H1242 0.984 . S
N1230 H1243 0.985 . S
N1231 C1233 1.356 . S
N1231 H1236 0.984 . S
N1231 H1237 0.985 . S
C1232 C1226 1.379 . S
C1232 C1229 1.363 . S
C1232 N1230 1.356 . S
C1233 C1227 1.363 . S
C1233 C1228 1.379 . S
C1233 N1231 1.356 . S
N1234 C1226 1.356 . S
N1234 H1240 0.984 . S
N1234 H1241 0.984 . S
N1235 C1228 1.356 . S
N1235 H1238 0.984 . S
N1235 H1239 0.985 . S
H1236 N1231 0.984 . S
H1237 N1231 0.985 . S
H1238 N1235 0.984 . S
H1239 N1235 0.985 . S
H1240 N1234 0.984 . S
H1241 N1234 0.984 . S
H1242 N1230 0.984 . S
H1243 N1230 0.985 . S
C1244 C1245 1.363 . S
C1244 C1250 1.379 . S
C1244 N1252 1.356 . S
C1245 C1244 1.363 . S
C1245 C1251 1.363 . S
C1246 C1247 1.363 . S
C1246 C1251 1.379 . S
C1246 N1253 1.356 . S
C1247 C1246 1.363 . S
C1247 C1250 1.363 . S
N1248 C1250 1.356 . S
N1248 H1260 0.984 . S
N1248 H1261 0.985 . S
N1249 C1251 1.356 . S
N1249 H1254 0.984 . S
N1249 H1255 0.985 . S
C1250 C1244 1.379 . S
C1250 C1247 1.363 . S
C1250 N1248 1.356 . S
C1251 C1245 1.363 . S
C1251 C1246 1.379 . S
C1251 N1249 1.356 . S
N1252 C1244 1.356 . S
N1252 H1258 0.984 . S
N1252 H1259 0.984 . S
N1253 C1246 1.356 . S
N1253 H1256 0.984 . S
N1253 H1257 0.985 . S
H1254 N1249 0.984 . S
H1255 N1249 0.985 . S
H1256 N1253 0.984 . S
H1257 N1253 0.985 . S
H1258 N1252 0.984 . S
H1259 N1252 0.984 . S
H1260 N1248 0.984 . S
H1261 N1248 0.985 . S
C1262 C1263 1.363 . S
C1262 C1268 1.379 . S
C1262 N1270 1.356 . S
C1263 C1262 1.363 . S
C1263 C1269 1.363 . S
C1264 C1265 1.363 . S
C1264 C1269 1.379 . S
C1264 N1271 1.356 . S
C1265 C1264 1.363 . S
C1265 C1268 1.363 . S
N1266 C1268 1.356 . S
N1266 H1278 0.984 . S
N1266 H1279 0.985 . S
N1267 C1269 1.356 . S
N1267 H1272 0.984 . S
N1267 H1273 0.985 . S
C1268 C1262 1.379 . S
C1268 C1265 1.363 . S
C1268 N1266 1.356 . S
C1269 C1263 1.363 . S
C1269 C1264 1.379 . S
C1269 N1267 1.356 . S
N1270 C1262 1.356 . S
N1270 H1276 0.984 . S
N1270 H1277 0.984 . S
N1271 C1264 1.356 . S
N1271 H1274 0.984 . S
N1271 H1275 0.985 . S
H1272 N1267 0.984 . S
H1273 N1267 0.985 . S
H1274 N1271 0.984 . S
H1275 N1271 0.985 . S
H1276 N1270 0.984 . S
H1277 N1270 0.984 . S
H1278 N1266 0.984 . S
H1279 N1266 0.985 . S
C1280 C1281 1.361 1_556 S
C1280 C1286 1.379 . S
C1280 N1288 1.356 . S
C1281 C1280 1.361 1_554 S
C1281 C1287 1.364 . S
C1282 C1283 1.363 . S
C1282 C1287 1.379 1_656 S
C1282 N1289 1.356 . S
C1283 C1282 1.363 . S
C1283 C1286 1.363 1_655 S
N1284 C1286 1.358 . S
N1284 H1296 0.988 . S
N1284 H1297 0.979 1_455 S
N1285 C1287 1.356 . S
N1285 H1290 0.984 . S
N1285 H1291 0.985 . S
C1286 C1280 1.379 . S
C1286 C1283 1.363 1_455 S
C1286 N1284 1.358 . S
C1287 C1281 1.364 . S
C1287 C1282 1.379 1_454 S
C1287 N1285 1.356 . S
N1288 C1280 1.356 . S
N1288 H1294 0.984 . S
N1288 H1295 0.984 . S
N1289 C1282 1.356 . S
N1289 H1292 0.984 . S
N1289 H1293 0.985 1_556 S
H1290 N1285 0.984 . S
H1291 N1285 0.985 . S
H1292 N1289 0.984 . S
H1293 N1289 0.985 1_554 S
H1294 N1288 0.984 . S
H1295 N1288 0.984 . S
H1296 N1284 0.988 . S
H1297 N1284 0.979 1_655 S
C1298 C1299 1.363 1_545 S
C1298 C1304 1.379 . S
C1298 N1306 1.359 . S
C1299 C1298 1.363 1_565 S
C1299 C1305 1.363 1_556 S
C1300 C1301 1.365 . S
C1300 C1305 1.379 1_545 S
C1300 N1307 1.356 . S
C1301 C1300 1.365 . S
C1301 C1304 1.359 1_554 S
N1302 C1304 1.356 . S
N1302 H1314 0.984 . S
N1302 H1315 0.985 . S
N1303 C1305 1.356 . S
N1303 H1308 0.984 . S
N1303 H1309 0.985 . S
C1304 C1298 1.379 . S
C1304 C1301 1.359 1_556 S
C1304 N1302 1.356 . S
C1305 C1299 1.363 1_554 S
C1305 C1300 1.379 1_565 S
C1305 N1303 1.356 . S
N1306 C1298 1.359 . S
N1306 H1312 0.990 . S
N1306 H1313 0.976 1_545 S
N1307 C1300 1.356 . S
N1307 H1310 0.984 . S
N1307 H1311 0.985 . S
H1308 N1303 0.984 . S
H1309 N1303 0.985 . S
H1310 N1307 0.984 . S
H1311 N1307 0.985 . S
H1312 N1306 0.990 . S
H1313 N1306 0.976 1_565 S
H1314 N1302 0.984 . S
H1315 N1302 0.985 . S
C1316 C1317 1.364 . S
C1316 C1322 1.379 1_554 S
C1316 N1324 1.356 1_545 S
C1317 C1316 1.364 . S
C1317 C1323 1.360 1_554 S
C1318 C1319 1.363 . S
C1318 C1323 1.379 . S
C1318 N1325 1.356 . S
C1319 C1318 1.363 . S
C1319 C1322 1.363 . S
N1320 C1322 1.356 1_554 S
N1320 H1332 0.984 1_545 S
N1320 H1333 0.985 1_554 S
N1321 C1323 1.356 . S
N1321 H1326 0.984 . S
N1321 H1327 0.985 . S
C1322 C1316 1.379 1_556 S
C1322 C1319 1.363 . S
C1322 N1320 1.356 1_556 S
C1323 C1317 1.360 1_556 S
C1323 C1318 1.379 . S
C1323 N1321 1.356 . S
N1324 C1316 1.356 1_565 S
N1324 H1330 0.984 . S
N1324 H1331 0.984 . S
N1325 C1318 1.356 . S
N1325 H1328 0.984 . S
N1325 H1329 0.985 . S
H1326 N1321 0.984 . S
H1327 N1321 0.985 . S
H1328 N1325 0.984 . S
H1329 N1325 0.985 . S
H1330 N1324 0.984 . S
H1331 N1324 0.984 . S
H1332 N1320 0.984 1_565 S
H1333 N1320 0.985 1_556 S
C1334 C1335 1.363 . S
C1334 C1340 1.379 . S
C1334 N1342 1.356 . S
C1335 C1334 1.363 . S
C1335 C1341 1.363 1_556 S
C1336 C1337 1.365 . S
C1336 C1341 1.379 . S
C1336 N1343 1.356 . S
C1337 C1336 1.365 . S
C1337 C1340 1.359 1_554 S
N1338 C1340 1.356 . S
N1338 H1350 0.984 . S
N1338 H1351 0.985 . S
N1339 C1341 1.356 . S
N1339 H1344 0.984 . S
N1339 H1345 0.985 . S
C1340 C1334 1.379 . S
C1340 C1337 1.359 1_556 S
C1340 N1338 1.356 . S
C1341 C1335 1.363 1_554 S
C1341 C1336 1.379 . S
C1341 N1339 1.356 . S
N1342 C1334 1.356 . S
N1342 H1348 0.984 . S
N1342 H1349 0.984 . S
N1343 C1336 1.356 . S
N1343 H1346 0.984 . S
N1343 H1347 0.985 . S
H1344 N1339 0.984 . S
H1345 N1339 0.985 . S
H1346 N1343 0.984 . S
H1347 N1343 0.985 . S
H1348 N1342 0.984 . S
H1349 N1342 0.984 . S
H1350 N1338 0.984 . S
H1351 N1338 0.985 . S
C1352 C1353 1.363 . S
C1352 C1358 1.379 . S
C1352 N1360 1.356 . S
C1353 C1352 1.363 . S
C1353 C1359 1.376 . S
C1354 C1355 1.363 . S
C1354 C1359 1.384 1_655 S
C1354 N1361 1.356 1_545 S
C1355 C1354 1.363 . S
C1355 C1358 1.363 1_655 S
N1356 C1358 1.356 1_655 S
N1356 H1368 0.984 1_655 S
N1356 H1369 0.985 . S
N1357 C1359 1.341 1_565 S
N1357 H1362 0.984 . S
N1357 H1363 0.985 . S
C1358 C1352 1.379 . S
C1358 C1355 1.363 1_455 S
C1358 N1356 1.356 1_455 S
C1359 C1353 1.376 . S
C1359 C1354 1.384 1_455 S
C1359 N1357 1.341 1_545 S
N1360 C1352 1.356 . S
N1360 H1366 0.984 . S
N1360 H1367 0.984 . S
N1361 C1354 1.356 1_565 S
N1361 H1364 0.984 1_565 S
N1361 H1365 0.985 . S
H1362 N1357 0.984 . S
H1363 N1357 0.985 . S
H1364 N1361 0.984 1_545 S
H1365 N1361 0.985 . S
H1366 N1360 0.984 . S
H1367 N1360 0.984 . S
H1368 N1356 0.984 1_455 S
H1369 N1356 0.985 . S
C1370 C1371 1.363 . S
C1370 C1376 1.379 . S
C1370 N1378 1.356 . S
C1371 C1370 1.363 . S
C1371 C1377 1.363 . S
C1372 C1373 1.363 . S
C1372 C1377 1.379 1_565 S
C1372 N1379 1.356 . S
C1373 C1372 1.363 . S
C1373 C1376 1.363 1_565 S
N1374 C1376 1.356 1_565 S
N1374 H1386 0.984 1_565 S
N1374 H1387 0.985 . S
N1375 C1377 1.356 . S
N1375 H1380 0.984 . S
N1375 H1381 0.985 . S
C1376 C1370 1.379 . S
C1376 C1373 1.363 1_545 S
C1376 N1374 1.356 1_545 S
C1377 C1371 1.363 . S
C1377 C1372 1.379 1_545 S
C1377 N1375 1.356 . S
N1378 C1370 1.356 . S
N1378 H1384 0.984 . S
N1378 H1385 0.984 . S
N1379 C1372 1.356 . S
N1379 H1382 0.984 . S
N1379 H1383 0.985 . S
H1380 N1375 0.984 . S
H1381 N1375 0.985 . S
H1382 N1379 0.984 . S
H1383 N1379 0.985 . S
H1384 N1378 0.984 . S
H1385 N1378 0.984 . S
H1386 N1374 0.984 1_545 S
H1387 N1374 0.985 . S
C1388 C1389 1.363 . S
C1388 C1394 1.379 . S
C1388 N1396 1.356 . S
C1389 C1388 1.363 . S
C1389 C1395 1.363 . S
C1390 C1391 1.363 . S
C1390 C1395 1.379 . S
C1390 N1397 1.356 . S
C1391 C1390 1.363 . S
C1391 C1394 1.363 . S
N1392 C1394 1.356 . S
N1392 H1404 0.984 . S
N1392 H1405 0.985 . S
N1393 C1395 1.356 . S
N1393 H1398 0.984 . S
N1393 H1399 0.985 . S
C1394 C1388 1.379 . S
C1394 C1391 1.363 . S
C1394 N1392 1.356 . S
C1395 C1389 1.363 . S
C1395 C1390 1.379 . S
C1395 N1393 1.356 . S
N1396 C1388 1.356 . S
N1396 H1402 0.984 . S
N1396 H1403 0.984 . S
N1397 C1390 1.356 . S
N1397 H1400 0.984 . S
N1397 H1401 0.985 . S
H1398 N1393 0.984 . S
H1399 N1393 0.985 . S
H1400 N1397 0.984 . S
H1401 N1397 0.985 . S
H1402 N1396 0.984 . S
H1403 N1396 0.984 . S
H1404 N1392 0.984 . S
H1405 N1392 0.985 . S
C1406 C1407 1.363 . S
C1406 C1412 1.379 . S
C1406 N1414 1.356 . S
C1407 C1406 1.363 . S
C1407 C1413 1.363 . S
C1408 C1409 1.363 . S
C1408 C1413 1.379 . S
C1408 N1415 1.356 . S
C1409 C1408 1.363 . S
C1409 C1412 1.363 . S
N1410 C1412 1.356 . S
N1410 H1422 0.984 . S
N1410 H1423 0.985 . S
N1411 C1413 1.356 1_655 S
N1411 H1416 0.984 . S
N1411 H1417 0.985 . S
C1412 C1406 1.379 . S
C1412 C1409 1.363 . S
C1412 N1410 1.356 . S
C1413 C1407 1.363 . S
C1413 C1408 1.379 . S
C1413 N1411 1.356 1_455 S
N1414 C1406 1.356 . S
N1414 H1420 0.984 . S
N1414 H1421 0.984 . S
N1415 C1408 1.356 . S
N1415 H1418 0.984 . S
N1415 H1419 0.985 1_455 S
H1416 N1411 0.984 . S
H1417 N1411 0.985 . S
H1418 N1415 0.984 . S
H1419 N1415 0.985 1_655 S
H1420 N1414 0.984 . S
H1421 N1414 0.984 . S
H1422 N1410 0.984 . S
H1423 N1410 0.985 . S
C849 C38 2.615 . S
C851 C144 2.615 . S
C867 C91 2.615 . S
C869 C197 2.615 . S
C885 C250 2.615 . S
C887 C356 2.615 . S
C903 C409 2.615 . S
C905 C303 2.615 . S
C921 C453 1.177 . S
C923 C559 1.177 . S
C939 C612 1.177 . S
C941 C506 1.177 . S
C957 C771 1.177 . S
C959 C665 1.177 . S
C975 C824 1.177 . S
C977 C718 1.177 . S
C993 C410 2.469 1_455 S
C995 C39 2.469 . S
C1011 C92 2.469 1_455 S
C1013 C251 2.469 1_545 S
C1029 C304 2.469 . S
C1031 C145 2.469 1_545 S
C1047 C198 2.469 . S
C1049 C357 2.469 . S
C1065 C817 1.301 . S
C1067 C446 1.301 . S
C1083 C499 1.301 . S
C1085 C658 1.301 . S
C1101 C552 1.301 . S
C1103 C711 1.301 . S
C1119 C764 1.301 . S
C1121 C605 1.301 . S
C1137 C29 0.921 . S
C1139 C241 0.921 . S
C1155 C82 0.921 . S
C1157 C294 0.921 . S
C1173 C347 0.921 . S
C1175 C135 0.921 . S
C1191 C188 0.921 . S
C1193 C400 0.921 . S
C1209 C674 1.366 . S
C1211 C462 1.366 . S
C1227 C727 1.366 . S
C1229 C515 1.366 . S
C1245 C568 1.366 . S
C1247 C780 1.366 . S
C1263 C621 1.366 . S
C1265 C833 1.366 . S
C1281 C22 2.266 . S
C1283 C463 2.271 . S
C1299 C516 2.271 . S
C1301 C75 2.266 1_455 S
C1317 C128 2.266 1_545 S
C1319 C569 2.271 . S
C1335 C622 2.271 . S
C1337 C181 2.266 . S
C1353 C234 2.264 1_545 S
C1355 C675 2.271 . S
C1371 C287 2.264 . S
C1373 C728 2.271 . S
C1389 C781 2.271 . S
C1391 C340 2.264 . S
C1407 C393 2.264 1_455 S
C1409 C834 2.271 . S
