# Generated by pormake.
# Topology whr, (6)-cn, num edge types: 1
# Building blocks:
#     Node 0, Type 0, BuildingBlock: IZENUY_clean_sbu_0, # of connection points: 6
#     Node 1, Type 0, BuildingBlock: IZENUY_clean_sbu_0, # of connection points: 6
#     Node 2, Type 0, BuildingBlock: IZENUY_clean_sbu_0, # of connection points: 6
#     Node 3, Type 0, BuildingBlock: IZENUY_clean_sbu_0, # of connection points: 6
#     Node 4, Type 0, BuildingBlock: IZENUY_clean_sbu_0, # of connection points: 6
#     Node 5, Type 0, BuildingBlock: IZENUY_clean_sbu_0, # of connection points: 6
#     Node 6, Type 0, BuildingBlock: IZENUY_clean_sbu_0, # of connection points: 6
#     Node 7, Type 0, BuildingBlock: IZENUY_clean_sbu_0, # of connection points: 6
#     Node 8, Type 0, BuildingBlock: IZENUY_clean_sbu_0, # of connection points: 6
#     Node 9, Type 0, BuildingBlock: IZENUY_clean_sbu_0, # of connection points: 6
#     Node 10, Type 0, BuildingBlock: IZENUY_clean_sbu_0, # of connection points: 6
#     Node 11, Type 0, BuildingBlock: IZENUY_clean_sbu_0, # of connection points: 6
#     Node 12, Type 0, BuildingBlock: IZENUY_clean_sbu_0, # of connection points: 6
#     Node 13, Type 0, BuildingBlock: IZENUY_clean_sbu_0, # of connection points: 6
#     Node 14, Type 0, BuildingBlock: IZENUY_clean_sbu_0, # of connection points: 6
#     Node 15, Type 0, BuildingBlock: IZENUY_clean_sbu_0, # of connection points: 6
#     Edge 16, Type (0, 0), BuildingBlock: ZUJKAS_clean_linker_0, # of connection points: 2
#     Edge 17, Type (0, 0), BuildingBlock: ZUJKAS_clean_linker_0, # of connection points: 2
#     Edge 18, Type (0, 0), BuildingBlock: ZUJKAS_clean_linker_0, # of connection points: 2
#     Edge 19, Type (0, 0), BuildingBlock: ZUJKAS_clean_linker_0, # of connection points: 2
#     Edge 20, Type (0, 0), BuildingBlock: ZUJKAS_clean_linker_0, # of connection points: 2
#     Edge 21, Type (0, 0), BuildingBlock: ZUJKAS_clean_linker_0, # of connection points: 2
#     Edge 22, Type (0, 0), BuildingBlock: ZUJKAS_clean_linker_0, # of connection points: 2
#     Edge 23, Type (0, 0), BuildingBlock: ZUJKAS_clean_linker_0, # of connection points: 2
#     Edge 24, Type (0, 0), BuildingBlock: ZUJKAS_clean_linker_0, # of connection points: 2
#     Edge 25, Type (0, 0), BuildingBlock: ZUJKAS_clean_linker_0, # of connection points: 2
#     Edge 26, Type (0, 0), BuildingBlock: ZUJKAS_clean_linker_0, # of connection points: 2
#     Edge 27, Type (0, 0), BuildingBlock: ZUJKAS_clean_linker_0, # of connection points: 2
#     Edge 28, Type (0, 0), BuildingBlock: ZUJKAS_clean_linker_0, # of connection points: 2
#     Edge 29, Type (0, 0), BuildingBlock: ZUJKAS_clean_linker_0, # of connection points: 2
#     Edge 30, Type (0, 0), BuildingBlock: ZUJKAS_clean_linker_0, # of connection points: 2
#     Edge 31, Type (0, 0), BuildingBlock: ZUJKAS_clean_linker_0, # of connection points: 2
#     Edge 32, Type (0, 0), BuildingBlock: ZUJKAS_clean_linker_0, # of connection points: 2
#     Edge 33, Type (0, 0), BuildingBlock: ZUJKAS_clean_linker_0, # of connection points: 2
#     Edge 34, Type (0, 0), BuildingBlock: ZUJKAS_clean_linker_0, # of connection points: 2
#     Edge 35, Type (0, 0), BuildingBlock: ZUJKAS_clean_linker_0, # of connection points: 2
#     Edge 36, Type (0, 0), BuildingBlock: ZUJKAS_clean_linker_0, # of connection points: 2
#     Edge 37, Type (0, 0), BuildingBlock: ZUJKAS_clean_linker_0, # of connection points: 2
#     Edge 38, Type (0, 0), BuildingBlock: ZUJKAS_clean_linker_0, # of connection points: 2
#     Edge 39, Type (0, 0), BuildingBlock: ZUJKAS_clean_linker_0, # of connection points: 2
#     Edge 40, Type (0, 0), BuildingBlock: ZUJKAS_clean_linker_0, # of connection points: 2
#     Edge 41, Type (0, 0), BuildingBlock: ZUJKAS_clean_linker_0, # of connection points: 2
#     Edge 42, Type (0, 0), BuildingBlock: ZUJKAS_clean_linker_0, # of connection points: 2
#     Edge 43, Type (0, 0), BuildingBlock: ZUJKAS_clean_linker_0, # of connection points: 2
#     Edge 44, Type (0, 0), BuildingBlock: ZUJKAS_clean_linker_0, # of connection points: 2
#     Edge 45, Type (0, 0), BuildingBlock: ZUJKAS_clean_linker_0, # of connection points: 2
#     Edge 46, Type (0, 0), BuildingBlock: ZUJKAS_clean_linker_0, # of connection points: 2
#     Edge 47, Type (0, 0), BuildingBlock: ZUJKAS_clean_linker_0, # of connection points: 2
#     Edge 48, Type (0, 0), BuildingBlock: ZUJKAS_clean_linker_0, # of connection points: 2
#     Edge 49, Type (0, 0), BuildingBlock: ZUJKAS_clean_linker_0, # of connection points: 2
#     Edge 50, Type (0, 0), BuildingBlock: ZUJKAS_clean_linker_0, # of connection points: 2
#     Edge 51, Type (0, 0), BuildingBlock: ZUJKAS_clean_linker_0, # of connection points: 2
#     Edge 52, Type (0, 0), BuildingBlock: ZUJKAS_clean_linker_0, # of connection points: 2
#     Edge 53, Type (0, 0), BuildingBlock: ZUJKAS_clean_linker_0, # of connection points: 2
#     Edge 54, Type (0, 0), BuildingBlock: ZUJKAS_clean_linker_0, # of connection points: 2
#     Edge 55, Type (0, 0), BuildingBlock: ZUJKAS_clean_linker_0, # of connection points: 2
#     Edge 56, Type (0, 0), BuildingBlock: ZUJKAS_clean_linker_0, # of connection points: 2
#     Edge 57, Type (0, 0), BuildingBlock: ZUJKAS_clean_linker_0, # of connection points: 2
#     Edge 58, Type (0, 0), BuildingBlock: ZUJKAS_clean_linker_0, # of connection points: 2
#     Edge 59, Type (0, 0), BuildingBlock: ZUJKAS_clean_linker_0, # of connection points: 2
#     Edge 60, Type (0, 0), BuildingBlock: ZUJKAS_clean_linker_0, # of connection points: 2
#     Edge 61, Type (0, 0), BuildingBlock: ZUJKAS_clean_linker_0, # of connection points: 2
#     Edge 62, Type (0, 0), BuildingBlock: ZUJKAS_clean_linker_0, # of connection points: 2
#     Edge 63, Type (0, 0), BuildingBlock: ZUJKAS_clean_linker_0, # of connection points: 2
# Relax obj value: 0.339
# Max RMSD: 0.260
# Mean RMSD: 0.260
data_MOF--net-whr--node1-IZENUY_clean_sbu_0--edge1-ZUJKAS_clean_linker_0
_symmetry_space_group_name_H-M    P1
_symmetry_Int_Tables_number       1
_symmetry_cell_setting            triclinic
loop_
_symmetry_equiv_pos_as_xyz
'x, y, z'
_cell_length_a     61.388618
_cell_length_b     61.380552
_cell_length_c     36.226836
_cell_angle_alpha  89.980493
_cell_angle_beta   89.987362
_cell_angle_gamma 90.00861
loop_
_atom_site_label
_atom_site_type_symbol
_atom_site_fract_x
_atom_site_fract_y
_atom_site_fract_z
_atom_type_partial_charge
Fe0 Fe 0.1999 0.05948 0.09413 0.0
Fe1 Fe 0.24191 0.04318 0.0584 0.0
O2 O 0.22249 0.06424 0.06504 0.0
Fe3 Fe 0.22552 0.08982 0.04286 0.0
O4 O 0.19911 0.08789 0.02048 0.0
O5 O 0.18118 0.07775 0.06979 0.0
O6 O 0.1903 0.03768 0.06475 0.0
C7 C 0.2013 0.02079 0.05794 0.0
C8 C 0.21121 0.10048 0.11576 0.0
O9 O 0.22184 0.02078 0.06252 0.0
C10 C 0.26817 0.08171 0.05895 0.0
O11 O 0.21418 0.04047 0.1246 0.0
O12 O 0.24841 0.0421 0.10743 0.0
O13 O 0.21433 0.10569 0.08214 0.0
O14 O 0.20829 0.08088 0.12493 0.0
C15 C 0.23797 0.05871 0.98796 0.0
O16 O 0.26545 0.06165 0.05187 0.0
O17 O 0.25202 0.09405 0.06329 0.0
C18 C 0.23421 0.03817 0.13178 0.0
O19 O 0.23659 0.04272 0.00963 0.0
O20 O 0.23734 0.07818 1.00001 0.0
C21 C 0.18138 0.08558 0.03754 0.0
Fe22 Fe 0.0439 0.76278 0.94794 0.0
Fe23 Fe 0.09011 0.78001 0.96512 0.0
O24 O 0.06487 0.78234 0.94162 0.0
Fe25 Fe 0.06057 0.80443 0.91123 0.0
O26 O 0.03837 0.81446 0.93928 0.0
O27 O 0.02154 0.78283 0.94301 0.0
O28 O 0.04279 0.76809 0.99662 0.0
C29 C 0.05853 0.76698 0.01877 0.0
C30 C 0.03924 0.76983 0.87432 0.0
O31 O 0.07813 0.76837 0.00772 0.0
C32 C 0.10185 0.79287 0.89232 0.0
O33 O 0.06256 0.7395 0.9552 0.0
O34 O 0.0951 0.75337 0.94556 0.0
O35 O 0.04184 0.78989 0.88073 0.0
O36 O 0.04323 0.75592 0.89904 0.0
C37 C 0.08547 0.82403 0.96832 0.0
O38 O 0.1064 0.79119 0.92644 0.0
O39 O 0.08244 0.79528 0.88171 0.0
C40 C 0.08274 0.73712 0.94878 0.0
O41 O 0.08724 0.80663 0.98651 0.0
O42 O 0.07855 0.82355 0.93547 0.0
C43 C 0.0215 0.80347 0.94649 0.0
Fe44 Fe 0.78127 0.91569 0.04106 0.0
Fe45 Fe 0.80648 0.94605 0.09278 0.0
O46 O 0.78404 0.94123 0.06342 0.0
Fe47 Fe 0.76454 0.9622 0.0567 0.0
O48 O 0.77013 0.96283 0.00805 0.0
O49 O 0.76966 0.92741 0.99803 0.0
O50 O 0.80778 0.91778 0.01908 0.0
C51 C 0.8254 0.92002 0.03644 0.0
C52 C 0.73849 0.92351 0.05657 0.0
O53 O 0.82541 0.92788 0.06866 0.0
C54 C 0.7719 0.96709 0.13017 0.0
O55 O 0.79236 0.89978 0.08047 0.0
O56 O 0.79803 0.92458 0.12338 0.0
O57 O 0.74112 0.94361 0.04969 0.0
O58 O 0.7547 0.91128 0.06109 0.0
C59 C 0.80502 0.98476 0.05672 0.0
O60 O 0.79197 0.96494 0.12314 0.0
O61 O 0.75781 0.96313 0.10567 0.0
C62 C 0.79538 0.90496 0.11414 0.0
O63 O 0.81608 0.96792 0.06356 0.0
O64 O 0.78448 0.98468 0.06121 0.0
C65 C 0.76913 0.94693 0.98616 0.0
Fe66 Fe 0.94605 0.20024 0.90867 0.0
Fe67 Fe 0.96319 0.24176 0.94516 0.0
O68 O 0.94202 0.22242 0.93896 0.0
Fe69 Fe 0.91694 0.22504 0.96278 0.0
O70 O 0.91963 0.19844 0.98429 0.0
O71 O 0.92816 0.18127 0.93339 0.0
O72 O 0.96837 0.19014 0.93642 0.0
C73 C 0.98533 0.20103 0.94332 0.0
C74 C 0.90467 0.21183 0.89027 0.0
O75 O 0.9854 0.22164 0.93966 0.0
C76 C 0.92454 0.26783 0.94673 0.0
O77 O 0.96461 0.21475 0.8778 0.0
O78 O 0.96367 0.24875 0.89627 0.0
O79 O 0.90037 0.21397 0.92443 0.0
O80 O 0.92403 0.2093 0.87943 0.0
C81 C 0.94884 0.23715 0.01627 0.0
O82 O 0.94474 0.26521 0.95288 0.0
O83 O 0.91214 0.25164 0.94317 0.0
C84 C 0.96727 0.23482 0.87136 0.0
O85 O 0.96445 0.23604 0.99382 0.0
O86 O 0.92922 0.23665 0.00512 0.0
C87 C 0.92127 0.18096 0.96627 0.0
Fe88 Fe 0.8027 0.06242 0.59698 0.0
Fe89 Fe 0.76183 0.04507 0.55881 0.0
O90 O 0.78107 0.06627 0.56557 0.0
Fe91 Fe 0.77891 0.09124 0.54121 0.0
O92 O 0.80583 0.0883 0.521 0.0
O93 O 0.82209 0.08026 0.57297 0.0
O94 O 0.81332 0.04003 0.57005 0.0
C95 C 0.80257 0.02303 0.56275 0.0
C96 C 0.79061 0.10379 0.61417 0.0
O97 O 0.78191 0.02292 0.56541 0.0
C98 C 0.73586 0.08378 0.55557 0.0
O99 O 0.78778 0.04395 0.62739 0.0
O100 O 0.75408 0.04471 0.60742 0.0
O101 O 0.78943 0.10801 0.57986 0.0
O102 O 0.79298 0.0845 0.62541 0.0
C103 C 0.76767 0.05907 0.48768 0.0
O104 O 0.73851 0.06352 0.54993 0.0
O105 O 0.752 0.09621 0.55944 0.0
C106 C 0.76763 0.04127 0.63298 0.0
O107 O 0.7683 0.04359 0.51045 0.0
O108 O 0.76795 0.07876 0.49851 0.0
C109 C 0.823 0.08673 0.53987 0.0
Fe110 Fe 0.06005 0.19766 0.40943 0.0
Fe111 Fe 0.04379 0.23931 0.44639 0.0
O112 O 0.06477 0.21988 0.43934 0.0
Fe113 Fe 0.09023 0.22246 0.46194 0.0
O114 O 0.08794 0.19577 0.48339 0.0
O115 O 0.07835 0.17863 0.43305 0.0
O116 O 0.03817 0.18774 0.43843 0.0
C117 C 0.02134 0.19876 0.44567 0.0
C118 C 0.1011 0.20912 0.38857 0.0
O119 O 0.02138 0.21933 0.44156 0.0
C120 C 0.08247 0.26534 0.44704 0.0
O121 O 0.04107 0.2123 0.37943 0.0
O122 O 0.04286 0.24633 0.39754 0.0
O123 O 0.10619 0.21167 0.42239 0.0
O124 O 0.08152 0.20646 0.37907 0.0
C125 C 0.05901 0.23446 0.51688 0.0
O126 O 0.06235 0.2627 0.45372 0.0
O127 O 0.09474 0.24916 0.44248 0.0
C128 C 0.03884 0.23241 0.37281 0.0
O129 O 0.04312 0.23349 0.49498 0.0
O130 O 0.07852 0.23384 0.50505 0.0
C131 C 0.08598 0.17833 0.46542 0.0
Fe132 Fe 0.20438 0.94481 0.60104 0.0
Fe133 Fe 0.24451 0.96277 0.56111 0.0
O134 O 0.22576 0.94127 0.56897 0.0
Fe135 Fe 0.22823 0.91621 0.54501 0.0
O136 O 0.20116 0.91866 0.52513 0.0
O137 O 0.18508 0.92677 0.57735 0.0
O138 O 0.19311 0.96708 0.57462 0.0
C139 C 0.20348 0.98416 0.5664 0.0
C140 C 0.21672 0.90351 0.61808 0.0
O141 O 0.22417 0.98463 0.56783 0.0
C142 C 0.27113 0.92454 0.55858 0.0
O143 O 0.21939 0.96348 0.63088 0.0
O144 O 0.25281 0.96361 0.60942 0.0
O145 O 0.21803 0.89942 0.58377 0.0
O146 O 0.21458 0.92282 0.62932 0.0
C147 C 0.23844 0.94814 0.49058 0.0
O148 O 0.26804 0.94462 0.55182 0.0
O149 O 0.25526 0.91184 0.56324 0.0
C150 C 0.23953 0.96676 0.63551 0.0
O151 O 0.23744 0.96378 0.51297 0.0
O152 O 0.23888 0.92858 0.50198 0.0
C153 C 0.18408 0.92021 0.54428 0.0
Fe154 Fe 0.94718 0.80999 0.41792 0.0
Fe155 Fe 0.96284 0.76738 0.45216 0.0
O156 O 0.94194 0.787 0.44584 0.0
Fe157 Fe 0.91615 0.78378 0.46712 0.0
O158 O 0.91775 0.80996 0.49032 0.0
O159 O 0.92871 0.82846 0.44219 0.0
O160 O 0.96863 0.81897 0.44855 0.0
C161 C 0.98542 0.80777 0.45506 0.0
C162 C 0.90642 0.79911 0.39433 0.0
O163 O 0.98538 0.78736 0.44917 0.0
C164 C 0.92423 0.74124 0.45088 0.0
O165 O 0.96651 0.79604 0.38767 0.0
O166 O 0.9641 0.76153 0.40281 0.0
O167 O 0.90075 0.79531 0.42755 0.0
O168 O 0.92612 0.80222 0.38601 0.0
C169 C 0.94685 0.77085 0.5224 0.0
O170 O 0.94428 0.74386 0.45794 0.0
O171 O 0.91211 0.75748 0.44588 0.0
C172 C 0.96871 0.77613 0.37946 0.0
O173 O 0.963 0.77217 0.50104 0.0
O174 O 0.92744 0.77164 0.51004 0.0
C175 C 0.92037 0.82788 0.47402 0.0
Fe176 Fe 0.74295 0.54924 0.55193 0.0
Fe177 Fe 0.72335 0.59343 0.52973 0.0
O178 O 0.72201 0.5691 0.55625 0.0
Fe179 Fe 0.69976 0.56476 0.5866 0.0
O180 O 0.69814 0.5354 0.57843 0.0
O181 O 0.72365 0.52838 0.53735 0.0
O182 O 0.74781 0.55472 0.50291 0.0
C183 C 0.73583 0.56332 0.47844 0.0
C184 C 0.73268 0.54758 0.62855 0.0
O185 O 0.72214 0.57794 0.4868 0.0
C186 C 0.71123 0.60893 0.59773 0.0
O187 O 0.76405 0.56871 0.56586 0.0
O188 O 0.75308 0.5943 0.52784 0.0
O189 O 0.71746 0.56122 0.626 0.0
O190 O 0.74164 0.53986 0.59998 0.0
C191 C 0.67804 0.58463 0.53001 0.0
O192 O 0.72464 0.6102 0.57127 0.0
O193 O 0.69776 0.59337 0.60016 0.0
C194 C 0.76767 0.58606 0.54806 0.0
O195 O 0.69392 0.5975 0.52622 0.0
O196 O 0.67978 0.56794 0.54999 0.0
C197 C 0.70621 0.52325 0.55375 0.0
Fe198 Fe 0.54477 0.26683 0.44589 0.0
Fe199 Fe 0.59133 0.28283 0.46336 0.0
O200 O 0.56619 0.2859 0.43979 0.0
Fe201 Fe 0.56235 0.3082 0.40964 0.0
O202 O 0.54028 0.3186 0.43772 0.0
O203 O 0.52288 0.28728 0.44064 0.0
O204 O 0.54365 0.27242 0.49457 0.0
C205 C 0.55926 0.27115 0.51703 0.0
C206 C 0.54067 0.27405 0.37212 0.0
O207 O 0.57891 0.2715 0.50591 0.0
C208 C 0.60334 0.29547 0.39063 0.0
O209 O 0.56281 0.24306 0.45343 0.0
O210 O 0.59563 0.25609 0.44388 0.0
O211 O 0.54342 0.29407 0.37887 0.0
O212 O 0.54415 0.25999 0.39689 0.0
C213 C 0.58799 0.327 0.46674 0.0
O214 O 0.60794 0.29353 0.42469 0.0
O215 O 0.58403 0.29872 0.38013 0.0
C216 C 0.58297 0.24012 0.44745 0.0
O217 O 0.58934 0.3095 0.48477 0.0
O218 O 0.58069 0.3269 0.4341 0.0
C219 C 0.52321 0.30786 0.44466 0.0
Fe220 Fe 0.26273 0.4604 0.55518 0.0
Fe221 Fe 0.28053 0.41395 0.54195 0.0
O222 O 0.28267 0.43996 0.56298 0.0
Fe223 Fe 0.30494 0.44569 0.59243 0.0
O224 O 0.31436 0.46702 0.56209 0.0
O225 O 0.28247 0.48328 0.55766 0.0
O226 O 0.26766 0.46014 0.50636 0.0
C227 C 0.26701 0.44371 0.48561 0.0
C228 C 0.27024 0.46762 0.62782 0.0
O229 O 0.26893 0.42449 0.49822 0.0
C230 C 0.29422 0.40492 0.61587 0.0
O231 O 0.23965 0.4413 0.54989 0.0
O232 O 0.25391 0.40926 0.56165 0.0
O233 O 0.29029 0.46532 0.6212 0.0
O234 O 0.25621 0.46223 0.60415 0.0
C235 C 0.32459 0.41922 0.5377 0.0
O236 O 0.29164 0.3991 0.5824 0.0
O237 O 0.2966 0.42473 0.62426 0.0
C238 C 0.23747 0.4212 0.55706 0.0
O239 O 0.30711 0.41628 0.52025 0.0
O240 O 0.32422 0.42726 0.56977 0.0
C241 C 0.30312 0.48358 0.55413 0.0
Fe242 Fe 0.46246 0.73977 0.4436 0.0
Fe243 Fe 0.41514 0.7258 0.46011 0.0
O244 O 0.44002 0.72213 0.4361 0.0
Fe245 Fe 0.44245 0.70058 0.40416 0.0
O246 O 0.46374 0.68805 0.43127 0.0
O247 O 0.4831 0.71808 0.43737 0.0
O248 O 0.46311 0.73309 0.49194 0.0
C249 C 0.44759 0.73507 0.51438 0.0
C250 C 0.46634 0.73414 0.36926 0.0
O251 O 0.428 0.73586 0.50313 0.0
C252 C 0.40221 0.71571 0.38676 0.0
O253 O 0.44557 0.76429 0.45236 0.0
O254 O 0.41208 0.75304 0.442 0.0
O255 O 0.46228 0.71421 0.37453 0.0
O256 O 0.46377 0.74773 0.39505 0.0
C257 C 0.41649 0.68156 0.46034 0.0
O258 O 0.39794 0.7166 0.42107 0.0
O259 O 0.42137 0.71228 0.37564 0.0
C260 C 0.42562 0.76826 0.44592 0.0
O261 O 0.41625 0.69854 0.47993 0.0
O262 O 0.42299 0.68246 0.42727 0.0
C263 C 0.48134 0.69746 0.43973 0.0
Fe264 Fe 0.30822 0.56165 0.09404 0.0
Fe265 Fe 0.26717 0.54351 0.05733 0.0
O266 O 0.28612 0.56505 0.06335 0.0
Fe267 Fe 0.28317 0.59 0.03926 0.0
O268 O 0.30996 0.58765 0.01809 0.0
O269 O 0.32683 0.58005 0.06966 0.0
O270 O 0.31902 0.53952 0.06667 0.0
C271 C 0.30848 0.52236 0.05949 0.0
C272 C 0.29549 0.60275 0.11185 0.0
O273 O 0.28784 0.5218 0.06269 0.0
C274 C 0.24047 0.58164 0.05549 0.0
O275 O 0.2942 0.5427 0.12466 0.0
O276 O 0.26022 0.54299 0.10635 0.0
O277 O 0.29371 0.60688 0.07759 0.0
O278 O 0.29836 0.58349 0.12298 0.0
C279 C 0.27139 0.55776 0.9861 0.0
O280 O 0.24338 0.56148 0.04954 0.0
O281 O 0.25638 0.59443 0.05855 0.0
C282 C 0.27424 0.53962 0.13121 0.0
O283 O 0.27269 0.54221 0.00863 0.0
O284 O 0.27198 0.57743 0.99696 0.0
C285 C 0.32729 0.58664 0.03662 0.0
Fe286 Fe 0.56311 0.70084 0.90213 0.0
Fe287 Fe 0.54572 0.7414 0.94138 0.0
O288 O 0.56693 0.72224 0.93408 0.0
Fe289 Fe 0.59195 0.72426 0.95833 0.0
O290 O 0.58904 0.6972 0.97795 0.0
O291 O 0.58104 0.68133 0.92563 0.0
O292 O 0.54075 0.68989 0.92874 0.0
C293 C 0.52379 0.70055 0.93665 0.0
C294 C 0.60442 0.71319 0.88496 0.0
O295 O 0.52361 0.72126 0.93485 0.0
C296 C 0.58444 0.76743 0.9449 0.0
O297 O 0.54454 0.7159 0.87223 0.0
O298 O 0.54518 0.74943 0.89287 0.0
O299 O 0.6087 0.71403 0.91929 0.0
O300 O 0.58511 0.7109 0.87381 0.0
C301 C 0.55988 0.7353 0.01239 0.0
O302 O 0.56417 0.76472 0.95039 0.0
O303 O 0.59687 0.75131 0.94067 0.0
C304 C 0.54178 0.73605 0.86705 0.0
O305 O 0.54438 0.73473 0.98968 0.0
O306 O 0.57955 0.73491 0.00142 0.0
C307 C 0.5875 0.68019 0.95871 0.0
Fe308 Fe 0.69964 0.44379 0.08718 0.0
Fe309 Fe 0.74156 0.46003 0.05099 0.0
O310 O 0.72187 0.43916 0.05715 0.0
Fe311 Fe 0.72403 0.4138 0.03405 0.0
O312 O 0.69724 0.41652 0.01304 0.0
O313 O 0.68068 0.42523 0.0642 0.0
O314 O 0.68966 0.46546 0.05785 0.0
C315 C 0.70072 0.48226 0.05028 0.0
C316 C 0.7115 0.40287 0.10766 0.0
O317 O 0.72133 0.48236 0.05455 0.0
C318 C 0.76717 0.42107 0.05003 0.0
O319 O 0.71371 0.46326 0.11677 0.0
O320 O 0.74785 0.46098 0.10024 0.0
O321 O 0.71331 0.39794 0.07364 0.0
O322 O 0.70888 0.42242 0.11762 0.0
C323 C 0.73704 0.44504 0.98003 0.0
O324 O 0.76489 0.44138 0.04492 0.0
O325 O 0.75085 0.40874 0.0527 0.0
C326 C 0.73362 0.46592 0.1239 0.0
O327 O 0.73696 0.46088 0.00204 0.0
O328 O 0.73517 0.4255 0.99106 0.0
C329 C 0.68 0.41811 0.03159 0.0
Fe330 Fe 0.46082 0.263 0.94409 0.0
Fe331 Fe 0.41453 0.28001 0.96089 0.0
O332 O 0.43956 0.2821 0.93668 0.0
Fe333 Fe 0.44344 0.30355 0.90482 0.0
O334 O 0.46578 0.31442 0.93147 0.0
O335 O 0.48294 0.28308 0.93725 0.0
O336 O 0.46217 0.26987 0.99225 0.0
C337 C 0.44669 0.26945 0.01501 0.0
C338 C 0.4646 0.26821 0.86976 0.0
O339 O 0.427 0.26957 0.00411 0.0
C340 C 0.40208 0.29163 0.88735 0.0
O341 O 0.44245 0.23967 0.95345 0.0
O342 O 0.40973 0.2529 0.94343 0.0
O343 O 0.46195 0.2884 0.87488 0.0
O344 O 0.4613 0.25485 0.89568 0.0
C345 C 0.41893 0.32416 0.96119 0.0
O346 O 0.39774 0.29 0.92164 0.0
O347 O 0.42148 0.29371 0.87653 0.0
C348 C 0.42222 0.23685 0.94785 0.0
O349 O 0.41731 0.30715 0.98041 0.0
O350 O 0.42551 0.32305 0.9282 0.0
C351 C 0.48276 0.30377 0.93912 0.0
H352 H 0.21812 0.14487 0.11085 0.0
H353 H 0.21001 0.17244 0.15809 0.0
H354 H 0.18736 0.1218 0.2313 0.0
H355 H 0.19622 0.09451 0.18566 0.0
H356 H 0.1735 0.18425 0.18543 0.0
H357 H 0.22103 0.15557 0.30358 0.0
H358 H 0.22578 0.14519 0.25766 0.0
H359 H 0.2056 0.1328 0.28735 0.0
C360 C 0.21181 0.13965 0.13734 0.0
C361 C 0.2079 0.11745 0.14442 0.0
C362 C 0.2072 0.15541 0.16434 0.0
C363 C 0.19858 0.14923 0.1988 0.0
C364 C 0.19482 0.12705 0.20572 0.0
H365 H 0.09542 0.19454 0.31837 0.0
H366 H 0.12289 0.18597 0.27288 0.0
C367 C 0.19967 0.11139 0.17919 0.0
C368 C 0.19107 0.16565 0.22626 0.0
H369 H 0.18522 0.17201 0.31929 0.0
C370 C 0.17657 0.18196 0.21466 0.0
C371 C 0.1956 0.16351 0.26445 0.0
C372 C 0.21309 0.14847 0.27879 0.0
C373 C 0.16473 0.19437 0.24029 0.0
C374 C 0.16672 0.18969 0.27846 0.0
C375 C 0.18304 0.1752 0.29007 0.0
C376 C 0.15018 0.19704 0.30583 0.0
C377 C 0.14969 0.21188 0.22597 0.0
C378 C 0.15621 0.20548 0.34049 0.0
C379 C 0.14034 0.20991 0.3674 0.0
C380 C 0.11818 0.20602 0.36003 0.0
C381 C 0.11227 0.19798 0.32507 0.0
C382 C 0.12804 0.1933 0.29862 0.0
H383 H 0.15688 0.21996 0.20136 0.0
H384 H 0.1341 0.20437 0.21712 0.0
H385 H 0.14628 0.22446 0.2472 0.0
H386 H 0.17321 0.20827 0.34696 0.0
H387 H 0.14544 0.21606 0.39404 0.0
H388 H 0.14049 0.81422 0.90185 0.0
H389 H 0.1653 0.82649 0.853 0.0
H390 H 0.12746 0.79122 0.77238 0.0
H391 H 0.10207 0.77987 0.82078 0.0
H392 H 0.19129 0.8092 0.79967 0.0
H393 H 0.1216 0.85253 0.73534 0.0
H394 H 0.1197 0.83988 0.78009 0.0
H395 H 0.11738 0.82371 0.73881 0.0
C396 C 0.13776 0.80875 0.87379 0.0
C397 C 0.11925 0.79637 0.86489 0.0
C398 C 0.15191 0.81578 0.8459 0.0
C399 C 0.14786 0.81029 0.80888 0.0
C400 C 0.1305 0.79624 0.80057 0.0
H401 H 0.20131 0.86249 0.60409 0.0
H402 H 0.18784 0.83621 0.64964 0.0
C403 C 0.11611 0.78963 0.82823 0.0
C404 C 0.16053 0.82077 0.77879 0.0
H405 H 0.15493 0.85358 0.7032 0.0
C406 C 0.18335 0.81882 0.77849 0.0
C407 C 0.15016 0.83356 0.75134 0.0
C408 C 0.1259 0.83776 0.75152 0.0
C409 C 0.19601 0.82932 0.75144 0.0
C410 C 0.18556 0.84192 0.72406 0.0
C411 C 0.16281 0.84359 0.72399 0.0
C412 C 0.19776 0.85521 0.697 0.0
C413 C 0.22045 0.82706 0.7523 0.0
C414 C 0.20817 0.87433 0.70867 0.0
C415 C 0.21562 0.88947 0.6828 0.0
C416 C 0.21287 0.88569 0.64479 0.0
C417 C 0.20378 0.86582 0.63315 0.0
C418 C 0.19606 0.85079 0.65911 0.0
H419 H 0.22577 0.81356 0.77065 0.0
H420 H 0.22689 0.82415 0.72408 0.0
H421 H 0.22772 0.84246 0.76263 0.0
H422 H 0.20933 0.87816 0.7378 0.0
H423 H 0.22261 0.90462 0.69259 0.0
H424 H 0.9124 0.8201 0.32917 0.0
H425 H 0.88565 0.82875 0.28235 0.0
H426 H 0.83617 0.795 0.3448 0.0
H427 H 0.86304 0.78707 0.39335 0.0
H428 H 0.8618 0.80533 0.23775 0.0
H429 H 0.80664 0.85218 0.33043 0.0
H430 H 0.833 0.84284 0.34546 0.0
H431 H 0.81064 0.82402 0.34191 0.0
C432 C 0.89586 0.81441 0.33315 0.0
C433 C 0.88985 0.80302 0.36527 0.0
C434 C 0.88053 0.81933 0.30613 0.0
C435 C 0.85875 0.81279 0.31004 0.0
C436 C 0.85273 0.80071 0.34148 0.0
H437 H 0.79056 0.86024 0.10886 0.0
H438 H 0.80019 0.83296 0.15581 0.0
C439 C 0.86812 0.79608 0.36911 0.0
C440 C 0.84277 0.81964 0.28135 0.0
H441 H 0.79977 0.85391 0.26723 0.0
C442 C 0.84801 0.81571 0.24415 0.0
C443 C 0.82466 0.83304 0.28973 0.0
C444 C 0.8184 0.83845 0.32897 0.0
C445 C 0.8371 0.82644 0.21529 0.0
C446 C 0.81975 0.84079 0.22379 0.0
C447 C 0.81313 0.843 0.26077 0.0
C448 C 0.81106 0.85659 0.19625 0.0
C449 C 0.84555 0.82368 0.17642 0.0
C450 C 0.81283 0.87891 0.20392 0.0
C451 C 0.80691 0.89439 0.17772 0.0
C452 C 0.79926 0.88803 0.14271 0.0
C453 C 0.79664 0.86567 0.13536 0.0
C454 C 0.80229 0.85007 0.16209 0.0
H455 H 0.86147 0.81509 0.17567 0.0
H456 H 0.83373 0.81395 0.16016 0.0
H457 H 0.84754 0.83975 0.16273 0.0
H458 H 0.81954 0.88446 0.22995 0.0
H459 H 0.80908 0.91142 0.18466 0.0
H460 H 0.77649 0.1044 0.685 0.0
H461 H 0.78755 0.12962 0.73369 0.0
H462 H 0.82441 0.16683 0.65412 0.0
H463 H 0.81244 0.14218 0.60507 0.0
H464 H 0.82758 0.13255 0.75453 0.0
H465 H 0.80135 0.21549 0.71538 0.0
H466 H 0.79054 0.19144 0.6933 0.0
H467 H 0.81626 0.20273 0.67877 0.0
C468 C 0.78635 0.11841 0.67777 0.0
C469 C 0.79362 0.1214 0.64136 0.0
C470 C 0.7927 0.13279 0.70558 0.0
C471 C 0.80674 0.15025 0.69769 0.0
C472 C 0.81312 0.15388 0.66089 0.0
H473 H 0.90723 0.21422 0.81528 0.0
H474 H 0.88003 0.20211 0.77052 0.0
C475 C 0.80636 0.13972 0.63284 0.0
C476 C 0.81723 0.16239 0.72846 0.0
H477 H 0.83126 0.21322 0.75889 0.0
C478 C 0.82793 0.1502 0.75583 0.0
C479 C 0.81787 0.18544 0.73017 0.0
C480 C 0.80568 0.19951 0.703 0.0
C481 C 0.8399 0.16032 0.78393 0.0
C482 C 0.84121 0.18328 0.7848 0.0
C483 C 0.83015 0.19559 0.75808 0.0
C484 C 0.85563 0.19439 0.8115 0.0
C485 C 0.85186 0.14637 0.81166 0.0
C486 C 0.85056 0.19472 0.84928 0.0
C487 C 0.86607 0.20169 0.87503 0.0
C488 C 0.88693 0.20821 0.8633 0.0
C489 C 0.89139 0.20909 0.82523 0.0
C490 C 0.87584 0.2023 0.79957 0.0
H491 H 0.85121 0.12878 0.80457 0.0
H492 H 0.86919 0.15144 0.81348 0.0
H493 H 0.84445 0.14859 0.83935 0.0
H494 H 0.835 0.18866 0.85892 0.0
H495 H 0.86213 0.20082 0.90414 0.0
H496 H 0.6063 0.73101 0.81662 0.0
H497 H 0.63114 0.72116 0.76651 0.0
H498 H 0.66562 0.67792 0.84002 0.0
H499 H 0.64147 0.68874 0.89082 0.0
H500 H 0.69328 0.69585 0.79093 0.0
H501 H 0.62087 0.66413 0.71663 0.0
H502 H 0.61924 0.69279 0.72564 0.0
H503 H 0.61944 0.67376 0.76351 0.0
C504 C 0.61955 0.71983 0.82225 0.0
C505 C 0.62194 0.71052 0.85743 0.0
C506 C 0.6336 0.71405 0.79354 0.0
C507 C 0.64978 0.69821 0.79911 0.0
C508 C 0.65314 0.69003 0.83494 0.0
H509 H 0.71482 0.60373 0.67112 0.0
H510 H 0.70393 0.62959 0.71908 0.0
C511 C 0.63939 0.69625 0.86398 0.0
C512 C 0.66186 0.68886 0.76718 0.0
H513 H 0.65441 0.66207 0.6854 0.0
C514 C 0.68477 0.68859 0.76777 0.0
C515 C 0.65078 0.67914 0.737 0.0
C516 C 0.62625 0.67723 0.73573 0.0
C517 C 0.6968 0.67876 0.73919 0.0
C518 C 0.68567 0.66915 0.70922 0.0
C519 C 0.66287 0.66985 0.70815 0.0
C520 C 0.69693 0.65581 0.681 0.0
C521 C 0.72132 0.67835 0.74135 0.0
C522 C 0.69711 0.66218 0.64371 0.0
C523 C 0.70373 0.64749 0.61623 0.0
C524 C 0.70974 0.62617 0.62581 0.0
C525 C 0.71049 0.62021 0.66321 0.0
C526 C 0.70432 0.63495 0.69059 0.0
H527 H 0.72764 0.69009 0.76208 0.0
H528 H 0.72673 0.66175 0.74931 0.0
H529 H 0.72856 0.68216 0.714 0.0
H530 H 0.69113 0.67811 0.63577 0.0
H531 H 0.70264 0.65225 0.58749 0.0
H532 H 0.60254 0.28138 0.31988 0.0
H533 H 0.62779 0.29112 0.27042 0.0
H534 H 0.66745 0.32636 0.34861 0.0
H535 H 0.64272 0.31567 0.39847 0.0
H536 H 0.63228 0.33102 0.24946 0.0
H537 H 0.71434 0.30086 0.28593 0.0
H538 H 0.69005 0.29122 0.30882 0.0
H539 H 0.70264 0.31643 0.32277 0.0
C540 C 0.61705 0.29061 0.32663 0.0
C541 C 0.62073 0.2978 0.36287 0.0
C542 C 0.63146 0.29618 0.29839 0.0
C543 C 0.64963 0.3094 0.30569 0.0
C544 C 0.65391 0.31569 0.34231 0.0
H545 H 0.71497 0.40667 0.18235 0.0
H546 H 0.70299 0.38042 0.22887 0.0
C547 C 0.63971 0.30968 0.37081 0.0
C548 C 0.6619 0.31924 0.27447 0.0
H549 H 0.71295 0.33048 0.2418 0.0
C550 C 0.6499 0.33046 0.24746 0.0
C551 C 0.68492 0.3187 0.27188 0.0
C552 C 0.6987 0.30595 0.29873 0.0
C553 C 0.66023 0.34173 0.21877 0.0
C554 C 0.6832 0.34181 0.21694 0.0
C555 C 0.69531 0.33029 0.24335 0.0
C556 C 0.69459 0.35541 0.18937 0.0
C557 C 0.64655 0.35424 0.19136 0.0
C558 C 0.6945 0.34966 0.15189 0.0
C559 C 0.70138 0.36462 0.12515 0.0
C560 C 0.70819 0.38561 0.13561 0.0
C561 C 0.70958 0.39071 0.1734 0.0
C562 C 0.70289 0.37571 0.20004 0.0
H563 H 0.62901 0.3543 0.19886 0.0
H564 H 0.6523 0.37136 0.1894 0.0
H565 H 0.64827 0.34677 0.16361 0.0
H566 H 0.68807 0.33403 0.14324 0.0
H567 H 0.70012 0.36019 0.09629 0.0
H568 H 0.35744 0.29005 0.89724 0.0
H569 H 0.3293 0.29959 0.85178 0.0
H570 H 0.37936 0.31186 0.77073 0.0
H571 H 0.40701 0.30141 0.81461 0.0
H572 H 0.32143 0.3361 0.82185 0.0
H573 H 0.33832 0.28167 0.70587 0.0
H574 H 0.35007 0.27694 0.75082 0.0
H575 H 0.36362 0.29429 0.71765 0.0
C576 C 0.36233 0.29425 0.86941 0.0
C577 C 0.38452 0.29494 0.8597 0.0
C578 C 0.34625 0.29973 0.84344 0.0
C579 C 0.35207 0.30602 0.80737 0.0
C580 C 0.3742 0.30628 0.7977 0.0
H581 H 0.31352 0.41108 0.68255 0.0
H582 H 0.32182 0.38418 0.72936 0.0
C583 C 0.39014 0.30053 0.82324 0.0
C584 C 0.33575 0.31495 0.78093 0.0
H585 H 0.32636 0.31899 0.68834 0.0
C586 C 0.32207 0.3319 0.7928 0.0
C587 C 0.33569 0.30912 0.74308 0.0
C588 C 0.34755 0.2893 0.72886 0.0
C589 C 0.31028 0.34457 0.76745 0.0
C590 C 0.31302 0.34086 0.7291 0.0
C591 C 0.32475 0.32243 0.71757 0.0
C592 C 0.30635 0.35725 0.70093 0.0
C593 C 0.29548 0.36216 0.78218 0.0
C594 C 0.29563 0.3511 0.66819 0.0
C595 C 0.29139 0.36654 0.64049 0.0
C596 C 0.29765 0.38841 0.6452 0.0
C597 C 0.30813 0.39448 0.67813 0.0
C598 C 0.31269 0.37907 0.7053 0.0
H599 H 0.28774 0.35687 0.80843 0.0
H600 H 0.30524 0.37693 0.78837 0.0
H601 H 0.28246 0.36646 0.7622 0.0
H602 H 0.29079 0.33433 0.66386 0.0
H603 H 0.28332 0.36135 0.6154 0.0
H604 H 0.30488 0.64559 0.09743 0.0
H605 H 0.31625 0.67328 0.14221 0.0
H606 H 0.30451 0.6282 0.23125 0.0
H607 H 0.2932 0.60042 0.18691 0.0
H608 H 0.29239 0.67798 0.24122 0.0
H609 H 0.37683 0.65689 0.19683 0.0
H610 H 0.35679 0.66276 0.16192 0.0
H611 H 0.35425 0.63859 0.18937 0.0
C612 C 0.30419 0.64174 0.12659 0.0
C613 C 0.29846 0.62071 0.13862 0.0
C614 C 0.31066 0.65758 0.15208 0.0
C615 C 0.31127 0.65267 0.18989 0.0
C616 C 0.30406 0.63226 0.20215 0.0
H617 H 0.36294 0.69558 0.39541 0.0
H618 H 0.33804 0.68474 0.34607 0.0
C619 C 0.29775 0.61639 0.17674 0.0
C620 C 0.32234 0.66736 0.21613 0.0
H621 H 0.37308 0.68064 0.24663 0.0
C622 C 0.31003 0.6789 0.24223 0.0
C623 C 0.3453 0.66842 0.21721 0.0
C624 C 0.35921 0.65598 0.19003 0.0
C625 C 0.32021 0.69135 0.26988 0.0
C626 C 0.34325 0.69168 0.27193 0.0
C627 C 0.35544 0.68055 0.24505 0.0
C628 C 0.35538 0.70196 0.30285 0.0
C629 C 0.30618 0.704 0.29649 0.0
C630 C 0.37332 0.71545 0.29526 0.0
C631 C 0.38787 0.72112 0.32324 0.0
C632 C 0.38453 0.71375 0.35949 0.0
C633 C 0.36569 0.70172 0.36775 0.0
C634 C 0.35137 0.69562 0.33954 0.0
H635 H 0.29043 0.70864 0.28358 0.0
H636 H 0.30246 0.6936 0.32075 0.0
H637 H 0.3145 0.71899 0.30624 0.0
H638 H 0.37678 0.72055 0.26722 0.0
H639 H 0.40228 0.73044 0.31624 0.0
H640 H 0.15745 0.01471 0.04879 0.0
H641 H 0.13819 0.98061 0.03714 0.0
H642 H 0.19924 0.94592 0.03641 0.0
H643 H 0.21879 0.98007 0.0477 0.0
H644 H 0.17207 0.93452 0.9784 0.0
H645 H 0.12729 0.93148 0.11122 0.0
H646 H 0.12366 0.95659 0.08654 0.0
H647 H 0.1502 0.94938 0.10361 0.0
C648 C 0.16685 0.99986 0.04621 0.0
C649 C 0.1897 1.00015 0.04946 0.0
C650 C 0.15576 0.98033 0.03981 0.0
C651 C 0.16723 0.96065 0.0367 0.0
C652 C 0.19006 0.96091 0.03909 0.0
H653 H 0.10927 0.83019 0.03189 0.0
H654 H 0.12927 0.86308 0.0501 0.0
C655 C 0.2012 0.98045 0.0455 0.0
C656 C 0.1554 0.93994 0.02986 0.0
H657 H 0.11559 0.90671 0.06441 0.0
C658 C 0.15983 0.92837 0.99732 0.0
C659 C 0.13964 0.93175 0.05483 0.0
C660 C 0.13503 0.9428 0.09119 0.0
C661 C 0.14846 0.90921 0.98851 0.0
C662 C 0.13199 0.9016 0.01262 0.0
C663 C 0.12803 0.91274 0.04575 0.0
C664 C 0.11852 0.88226 0.00343 0.0
C665 C 0.15426 0.89723 0.95348 0.0
C666 C 0.10524 0.88244 0.97195 0.0
C667 C 0.0938 0.86377 0.96152 0.0
C668 C 0.09532 0.8445 0.98245 0.0
C669 C 0.10778 0.84471 0.01507 0.0
C670 C 0.11926 0.86346 0.02548 0.0
H671 H 0.17074 0.90176 0.94337 0.0
H672 H 0.1537 0.87932 0.95773 0.0
H673 H 0.14232 0.90149 0.93165 0.0
H674 H 0.10405 0.89694 0.95501 0.0
H675 H 0.0842 0.8643 0.93645 0.0
H676 H 0.83076 0.89496 0.97411 0.0
H677 H 0.86346 0.87475 0.95569 0.0
H678 H 0.89856 0.90206 0.04775 0.0
H679 H 0.86611 0.92214 0.06653 0.0
H680 H 0.90686 0.88844 0.93881 0.0
H681 H 0.90375 0.83556 0.06294 0.0
H682 H 0.88104 0.85219 0.04849 0.0
H683 H 0.90347 0.8642 0.07307 0.0
C684 C 0.8455 0.89686 0.99021 0.0
C685 C 0.84571 0.90999 0.02207 0.0
C686 C 0.86415 0.88527 0.97967 0.0
C687 C 0.88326 0.88655 1.00085 0.0
C688 C 0.88383 0.90046 0.03151 0.0
H689 H 0.01524 0.84745 0.95324 0.0
H690 H 0.98113 0.86672 0.96474 0.0
C691 C 0.86526 0.91203 0.04207 0.0
C692 C 0.9025 0.87299 0.99163 0.0
H693 H 0.93602 0.83366 0.02666 0.0
C694 C 0.91318 0.87637 0.95787 0.0
C695 C 0.91049 0.85699 0.0163 0.0
C696 C 0.899 0.85181 0.05209 0.0
C697 C 0.9321 0.86467 0.94867 0.0
C698 C 0.94067 0.84941 0.97414 0.0
C699 C 0.92956 0.84553 0.00735 0.0
C700 C 0.96135 0.83758 0.96718 0.0
C701 C 0.94267 0.86866 0.91168 0.0
C702 C 0.9617 0.81473 0.9659 0.0
C703 C 0.98125 0.80358 0.95956 0.0
C704 C 1.00085 0.81511 0.95458 0.0
C705 C 1.00046 0.83802 0.95663 0.0
C706 C 0.98093 0.84911 0.96295 0.0
H707 H 0.93107 0.876 0.8917 0.0
H708 H 0.95648 0.88014 0.91523 0.0
H709 H 0.94913 0.85328 0.89981 0.0
H710 H 0.9468 0.80551 0.96945 0.0
H711 H 0.98094 0.78596 0.95829 0.0
H712 H 0.92255 0.14053 0.9351 0.0
H713 H 0.90246 0.10809 0.95396 0.0
H714 H 0.87705 0.14255 0.04825 0.0
H715 H 0.89728 0.17524 0.02975 0.0
H716 H 0.89048 0.09891 0.0633 0.0
H717 H 0.83576 0.10366 0.94172 0.0
H718 H 0.86422 0.10375 0.93022 0.0
H719 H 0.85286 0.12606 0.95595 0.0
C720 C 0.91286 0.14123 0.96006 0.0
C721 C 0.91135 0.16061 0.98067 0.0
C722 C 0.90129 0.12268 0.97066 0.0
C723 C 0.88788 0.12309 0.00198 0.0
C724 C 0.88716 0.142 0.02376 0.0
H725 H 0.78741 0.02542 0.04636 0.0
H726 H 0.80687 0.05962 0.03508 0.0
C727 C 0.89877 0.16063 0.01318 0.0
C728 C 0.87428 0.10389 0.01131 0.0
H729 H 0.83422 0.07097 0.97706 0.0
C730 C 0.87808 0.09286 0.0446 0.0
C731 C 0.85786 0.09626 0.98712 0.0
C732 C 0.85223 0.10814 0.95191 0.0
C733 C 0.8664 0.07393 0.05377 0.0
C734 C 0.85072 0.06569 0.02872 0.0
C735 C 0.84641 0.07717 0.99603 0.0
C736 C 0.83893 0.04497 0.03556 0.0
C737 C 0.87086 0.06296 0.09027 0.0
C738 C 0.85045 0.02533 0.03876 0.0
C739 C 0.83942 0.00579 0.04515 0.0
C740 C 0.81656 0.00543 0.04829 0.0
C741 C 0.80501 0.02509 0.04425 0.0
C742 C 0.8161 0.04466 0.03784 0.0
H743 H 0.87851 0.07434 0.11028 0.0
H744 H 0.85563 0.05642 0.10258 0.0
H745 H 0.88224 0.04917 0.08586 0.0
H746 H 0.86803 0.02511 0.03617 0.0
H747 H 0.84885 0.99096 0.04779 0.0
H748 H 0.9913 0.15709 0.95141 0.0
H749 H 0.0252 0.13774 0.96444 0.0
H750 H 0.05997 0.19876 0.96662 0.0
H751 H 0.02606 0.21837 0.95399 0.0
H752 H 0.0643 0.13714 0.9238 0.0
H753 H 0.07651 0.17011 0.06517 0.0
H754 H 0.05092 0.17239 0.04096 0.0
H755 H 0.0731 0.19031 0.02974 0.0
C756 C 0.00611 0.16646 0.95476 0.0
C757 C 0.0059 0.18933 0.95177 0.0
C758 C 0.0255 0.15534 0.9621 0.0
C759 C 0.04506 0.16682 0.96682 0.0
C760 C 0.04499 0.18961 0.96364 0.0
H761 H 0.17607 0.11022 0.97465 0.0
H762 H 0.14311 0.12952 0.95493 0.0
C763 C 0.02559 0.20078 0.95631 0.0
C764 C 0.06547 0.15483 0.97509 0.0
H765 H 0.10458 0.14795 0.04105 0.0
C766 C 0.07317 0.13951 0.94939 0.0
C767 C 0.07686 0.15783 0.00863 0.0
C768 C 0.06889 0.1734 0.03791 0.0
C769 C 0.09198 0.12712 0.95635 0.0
C770 C 0.10348 0.13031 0.98973 0.0
C771 C 0.09579 0.14564 0.01537 0.0
C772 C 0.12303 0.11734 0.99949 0.0
C773 C 0.09911 0.11034 0.92844 0.0
C774 C 0.12265 0.10402 0.03093 0.0
C775 C 0.14139 0.09303 0.04229 0.0
C776 C 0.16104 0.09524 0.02259 0.0
C777 C 0.16122 0.10808 0.99039 0.0
C778 C 0.14239 0.1191 0.97902 0.0
H779 H 0.08607 0.10669 0.9081 0.0
H780 H 0.11348 0.11659 0.91316 0.0
H781 H 0.10393 0.09496 0.94236 0.0
H782 H 0.10788 0.10242 0.04709 0.0
H783 H 0.14058 0.08324 0.06714 0.0
H784 H 0.84667 0.01698 0.55879 0.0
H785 H 0.86631 0.9831 0.547 0.0
H786 H 0.80537 0.94857 0.53809 0.0
H787 H 0.78547 0.98247 0.54956 0.0
H788 H 0.86496 0.94341 0.58719 0.0
H789 H 0.83778 0.93318 0.44182 0.0
H790 H 0.83492 0.95857 0.46647 0.0
H791 H 0.81631 0.93656 0.47507 0.0
C792 C 0.83738 1.00222 0.55424 0.0
C793 C 0.81445 1.00249 0.55503 0.0
C794 C 0.84866 0.98285 0.54761 0.0
C795 C 0.8373 0.96338 0.5414 0.0
C796 C 0.81444 0.9635 0.54233 0.0
H797 H 0.89356 0.83226 0.53447 0.0
H798 H 0.87374 0.86503 0.55365 0.0
C799 C 0.80311 0.98288 0.54899 0.0
C800 C 0.84948 0.94302 0.53386 0.0
H801 H 0.85903 0.90486 0.4673 0.0
C802 C 0.86365 0.93491 0.56104 0.0
C803 C 0.84786 0.93213 0.49959 0.0
C804 C 0.83355 0.94059 0.46887 0.0
C805 C 0.87626 0.91617 0.55481 0.0
C806 C 0.87448 0.90519 0.52065 0.0
C807 C 0.86027 0.91327 0.49355 0.0
C808 C 0.88781 0.88578 0.51163 0.0
C809 C 0.89181 0.90857 0.58438 0.0
C810 C 0.90238 0.88663 0.48188 0.0
C811 C 0.91366 0.86801 0.47082 0.0
C812 C 0.9105 0.84804 0.48915 0.0
C813 C 0.89645 0.84738 0.51984 0.0
C814 C 0.88513 0.8661 0.53089 0.0
H815 H 0.89457 0.92127 0.60571 0.0
H816 H 0.88493 0.89396 0.59818 0.0
H817 H 0.90774 0.90394 0.57217 0.0
H818 H 0.90472 0.90167 0.4667 0.0
H819 H 0.92441 0.86917 0.44719 0.0
H820 H 0.86295 0.08549 0.57285 0.0
H821 H 0.89612 0.10429 0.55379 0.0
H822 H 0.86342 0.12832 0.45668 0.0
H823 H 0.83005 0.10933 0.47534 0.0
H824 H 0.9065 0.1137 0.44351 0.0
H825 H 0.90269 0.17078 0.56202 0.0
H826 H 0.90195 0.14258 0.57513 0.0
H827 H 0.87995 0.15391 0.54858 0.0
C828 C 0.86279 0.09462 0.54726 0.0
C829 C 0.84371 0.09609 0.52585 0.0
C830 C 0.88176 0.10546 0.53653 0.0
C831 C 0.88208 0.1181 0.50429 0.0
C832 C 0.86344 0.1188 0.48186 0.0
H833 H 0.98077 0.21644 0.45603 0.0
H834 H 0.94663 0.19717 0.46831 0.0
C835 C 0.84439 0.10791 0.49256 0.0
C836 C 0.90175 0.13095 0.4946 0.0
H837 H 0.93542 0.17096 0.52687 0.0
C838 C 0.91278 0.1263 0.4616 0.0
C839 C 0.90971 0.14763 0.51796 0.0
C840 C 0.89787 0.15422 0.55273 0.0
C841 C 0.93194 0.13746 0.45188 0.0
C842 C 0.94044 0.15346 0.47608 0.0
C843 C 0.92904 0.15853 0.50854 0.0
C844 C 0.96118 0.16506 0.4684 0.0
C845 C 0.94279 0.13217 0.41559 0.0
C846 C 0.98077 0.15346 0.46506 0.0
C847 C 1.00032 0.16441 0.45802 0.0
C848 C 1.0007 0.18724 0.45441 0.0
C849 C 0.98109 0.19886 0.45851 0.0
C850 C 0.96154 0.18787 0.4655 0.0
H851 H 0.93128 0.12432 0.39603 0.0
H852 H 0.94953 0.14707 0.40246 0.0
H853 H 0.95642 0.12067 0.42056 0.0
H854 H 0.98099 0.13591 0.46813 0.0
H855 H 0.01511 0.15493 0.45536 0.0
H856 H 0.09874 0.16849 0.5363 0.0
H857 H 0.11749 0.13547 0.55739 0.0
H858 H 0.11587 0.10989 0.4465 0.0
H859 H 0.09641 0.14215 0.42573 0.0
H860 H 0.10665 0.07905 0.49279 0.0
H861 H 0.18048 0.12164 0.54339 0.0
H862 H 0.15602 0.13035 0.56606 0.0
H863 H 0.15953 0.13539 0.51746 0.0
C864 C 0.10228 0.15574 0.51653 0.0
C865 C 0.09612 0.15801 0.47933 0.0
C866 C 0.11319 0.13696 0.52853 0.0
C867 C 0.11858 0.12036 0.50338 0.0
C868 C 0.11199 0.12246 0.46645 0.0
H869 H 0.21738 0.02019 0.52867 0.0
H870 H 0.19639 0.05303 0.51403 0.0
C871 C 0.10082 0.14097 0.45461 0.0
C872 C 0.13096 0.10067 0.51503 0.0
H873 H 0.17847 0.08368 0.55488 0.0
C874 C 0.12236 0.08009 0.50636 0.0
C875 C 0.15166 0.10198 0.53218 0.0
C876 C 0.16259 0.12351 0.53999 0.0
C877 C 0.13386 0.06085 0.51404 0.0
C878 C 0.15421 0.06211 0.53235 0.0
C879 C 0.1628 0.08268 0.54117 0.0
C880 C 0.16704 0.04233 0.54187 0.0
C881 C 0.12436 0.03947 0.50118 0.0
C882 C 0.15771 0.02551 0.56288 0.0
C883 C 0.16952 0.0066 0.57062 0.0
C884 C 0.19115 0.00434 0.5584 0.0
C885 C 0.20075 0.02147 0.53845 0.0
C886 C 0.18877 0.04025 0.53011 0.0
H887 H 0.11272 0.04185 0.47803 0.0
H888 H 0.1373 0.02806 0.49196 0.0
H889 H 0.11529 0.0318 0.52427 0.0
H890 H 0.14126 0.02699 0.57333 0.0
H891 H 0.16176 0.99384 0.58655 0.0
H892 H 0.17669 0.89727 0.48021 0.0
H893 H 0.14311 0.87847 0.4622 0.0
H894 H 0.11102 0.90296 0.55959 0.0
H895 H 0.14438 0.92158 0.57797 0.0
H896 H 0.10701 0.85795 0.55048 0.0
H897 H 0.08507 0.90253 0.42219 0.0
H898 H 0.11244 0.89217 0.42386 0.0
H899 H 0.10422 0.91316 0.45545 0.0
C900 C 0.16239 0.89893 0.49751 0.0
C901 C 0.16329 0.91087 0.53064 0.0
C902 C 0.1432 0.88821 0.48711 0.0
C903 C 0.12455 0.8894 0.5095 0.0
C904 C 0.12524 0.90181 0.54195 0.0
H905 H 0.99156 0.85133 0.46731 0.0
H906 H 0.02572 0.87021 0.48041 0.0
C907 C 0.14434 0.91248 0.55236 0.0
C908 C 0.10464 0.87678 0.50049 0.0
H909 H 0.06371 0.87165 0.43726 0.0
C910 C 0.09755 0.86091 0.5257 0.0
C911 C 0.09227 0.88081 0.46828 0.0
C912 C 0.09871 0.8982 0.44096 0.0
C913 C 0.07837 0.84897 0.51965 0.0
C914 C 0.06613 0.8528 0.48723 0.0
C915 C 0.07322 0.86866 0.46198 0.0
C916 C 0.04549 0.84105 0.47964 0.0
C917 C 0.07108 0.83277 0.54847 0.0
C918 C 0.04527 0.81835 0.47484 0.0
C919 C 0.02573 0.80745 0.46747 0.0
C920 C 0.00605 0.81908 0.46449 0.0
C921 C 0.00638 0.84183 0.46941 0.0
C922 C 0.02591 0.85268 0.47679 0.0
H923 H 0.07939 0.83545 0.57534 0.0
H924 H 0.05321 0.83374 0.55286 0.0
H925 H 0.07504 0.81606 0.53895 0.0
H926 H 0.06026 0.8091 0.47638 0.0
H927 H 0.0261 0.78996 0.46366 0.0
H928 H 0.66471 0.51163 0.57161 0.0
H929 H 0.64611 0.47743 0.55884 0.0
H930 H 0.70374 0.45284 0.50496 0.0
H931 H 0.72237 0.48755 0.51663 0.0
H932 H 0.66861 0.44299 0.46616 0.0
H933 H 0.65258 0.4206 0.61133 0.0
H934 H 0.6416 0.44693 0.60079 0.0
H935 H 0.67062 0.4426 0.59885 0.0
C936 C 0.67355 0.49893 0.55723 0.0
C937 C 0.69515 0.50228 0.54549 0.0
C938 C 0.66289 0.47927 0.55018 0.0
C939 C 0.67367 0.46225 0.53187 0.0
C940 C 0.69514 0.46563 0.51951 0.0
H941 H 0.61874 0.33054 0.52142 0.0
H942 H 0.64018 0.36282 0.53745 0.0
C943 C 0.70577 0.48548 0.52618 0.0
C944 C 0.66215 0.44133 0.52452 0.0
H945 H 0.63148 0.40165 0.56566 0.0
C946 C 0.66068 0.43385 0.48799 0.0
C947 C 0.65211 0.42908 0.55302 0.0
C948 C 0.65451 0.43509 0.59321 0.0
C949 C 0.64888 0.41495 0.47903 0.0
C950 C 0.63761 0.40355 0.50722 0.0
C951 C 0.63972 0.41058 0.54392 0.0
C952 C 0.62364 0.38427 0.49916 0.0
C953 C 0.64892 0.40726 0.43945 0.0
C954 C 0.60663 0.38571 0.47337 0.0
C955 C 0.59449 0.36725 0.46392 0.0
C956 C 0.59879 0.34702 0.48062 0.0
C957 C 0.61497 0.34587 0.50807 0.0
C958 C 0.62731 0.36431 0.51716 0.0
H959 H 0.66347 0.41329 0.42432 0.0
H960 H 0.64863 0.3892 0.43776 0.0
H961 H 0.63427 0.41371 0.4252 0.0
H962 H 0.60293 0.40106 0.46004 0.0
H963 H 0.58198 0.36875 0.44298 0.0
H964 H 0.36512 0.42364 0.56762 0.0
H965 H 0.39875 0.40584 0.54831 0.0
H966 H 0.36501 0.37606 0.45695 0.0
H967 H 0.33116 0.39403 0.47586 0.0
H968 H 0.40463 0.36104 0.54431 0.0
H969 H 0.42062 0.40038 0.40884 0.0
H970 H 0.40194 0.41164 0.44229 0.0
H971 H 0.39382 0.38899 0.41407 0.0
C972 C 0.36483 0.41353 0.54311 0.0
C973 C 0.34537 0.41021 0.52338 0.0
C974 C 0.38411 0.40335 0.53216 0.0
C975 C 0.38442 0.38971 0.50113 0.0
C976 C 0.36521 0.38679 0.48068 0.0
H977 H 0.48282 0.29055 0.45803 0.0
H978 H 0.44901 0.31012 0.47119 0.0
C979 C 0.34585 0.39702 0.49161 0.0
C980 C 0.40458 0.37754 0.49184 0.0
H981 H 0.44332 0.37062 0.42518 0.0
C982 C 0.4131 0.36313 0.51826 0.0
C983 C 0.41567 0.38044 0.45798 0.0
C984 C 0.40771 0.39633 0.42922 0.0
C985 C 0.43238 0.35147 0.51171 0.0
C986 C 0.44326 0.35405 0.47758 0.0
C987 C 0.43483 0.36856 0.45122 0.0
C988 C 0.46368 0.34215 0.4691 0.0
C989 C 0.44118 0.33683 0.54168 0.0
C990 C 0.48308 0.35368 0.46294 0.0
C991 C 0.50244 0.34256 0.45531 0.0
C992 C 0.50275 0.31966 0.45343 0.0
C993 C 0.48322 0.30817 0.45941 0.0
C994 C 0.46387 0.31932 0.46706 0.0
H995 H 0.43391 0.34064 0.56902 0.0
H996 H 0.43722 0.31964 0.53494 0.0
H997 H 0.45916 0.33831 0.54379 0.0
H998 H 0.48326 0.37132 0.46435 0.0
H999 H 0.51714 0.35195 0.45081 0.0
H1000 H 0.34524 0.49382 0.57029 0.0
H1001 H 0.36418 0.52806 0.55931 0.0
H1002 H 0.30649 0.55439 0.50791 0.0
H1003 H 0.28703 0.52029 0.52048 0.0
H1004 H 0.37507 0.54708 0.49904 0.0
H1005 H 0.3211 0.60355 0.57519 0.0
H1006 H 0.31849 0.57436 0.57873 0.0
H1007 H 0.30663 0.58874 0.54031 0.0
C1008 C 0.33649 0.5069 0.55676 0.0
C1009 C 0.31458 0.50434 0.5463 0.0
C1010 C 0.34737 0.52654 0.55055 0.0
C1011 C 0.33672 0.54404 0.53334 0.0
C1012 C 0.31491 0.54142 0.52227 0.0
H1013 H 0.40342 0.64712 0.41864 0.0
H1014 H 0.38461 0.61433 0.43851 0.0
C1015 C 0.30385 0.52184 0.52911 0.0
C1016 C 0.34893 0.56452 0.52558 0.0
H1017 H 0.34729 0.61993 0.53482 0.0
C1018 C 0.36902 0.56297 0.50718 0.0
C1019 C 0.34137 0.58531 0.5368 0.0
C1020 C 0.32084 0.5881 0.5592 0.0
C1021 C 0.38147 0.58152 0.49899 0.0
C1022 C 0.37327 0.60239 0.50812 0.0
C1023 C 0.35347 0.60397 0.52739 0.0
C1024 C 0.38458 0.62272 0.49653 0.0
C1025 C 0.40346 0.57844 0.48107 0.0
C1026 C 0.39015 0.6389 0.52233 0.0
C1027 C 0.40067 0.65806 0.5109 0.0
C1028 C 0.40585 0.66128 0.47346 0.0
C1029 C 0.40006 0.64507 0.44779 0.0
C1030 C 0.38935 0.62619 0.45913 0.0
H1031 H 0.41044 0.56221 0.48777 0.0
H1032 H 0.40162 0.57935 0.45064 0.0
H1033 H 0.41519 0.59117 0.48995 0.0
H1034 H 0.38646 0.63667 0.55133 0.0
H1035 H 0.40479 0.67027 0.53131 0.0
H1036 H 0.48502 0.65304 0.43709 0.0
H1037 H 0.5169 0.63086 0.45194 0.0
H1038 H 0.55324 0.6889 0.47826 0.0
H1039 H 0.52142 0.71133 0.4635 0.0
H1040 H 0.55958 0.63368 0.41878 0.0
H1041 H 0.56061 0.64851 0.57006 0.0
H1042 H 0.5369 0.65363 0.54183 0.0
H1043 H 0.55918 0.6726 0.54192 0.0
C1044 C 0.49975 0.66115 0.44614 0.0
C1045 C 0.50065 0.68401 0.44909 0.0
C1046 C 0.51796 0.64841 0.45456 0.0
C1047 C 0.53732 0.65823 0.46652 0.0
C1048 C 0.53833 0.68101 0.46954 0.0
H1049 H 0.66957 0.61529 0.47759 0.0
H1050 H 0.63423 0.63046 0.46048 0.0
C1051 C 0.52016 0.6938 0.46091 0.0
C1052 C 0.55664 0.64466 0.47501 0.0
H1053 H 0.59144 0.63059 0.54453 0.0
C1054 C 0.56648 0.63287 0.4463 0.0
C1055 C 0.5654 0.64341 0.51104 0.0
C1056 C 0.55492 0.65504 0.54313 0.0
C1057 C 0.58534 0.62043 0.45246 0.0
C1058 C 0.59459 0.61988 0.48818 0.0
C1059 C 0.58433 0.63109 0.51714 0.0
C1060 C 0.61563 0.60892 0.49571 0.0
C1061 C 0.59529 0.60804 0.42071 0.0
C1062 C 0.61687 0.59164 0.52102 0.0
C1063 C 0.63711 0.58282 0.5308 0.0
C1064 C 0.65644 0.59144 0.51587 0.0
C1065 C 0.65501 0.6083 0.48965 0.0
C1066 C 0.63481 0.61693 0.47969 0.0
H1067 H 0.58339 0.60549 0.398 0.0
H1068 H 0.60923 0.61746 0.40951 0.0
H1069 H 0.60148 0.59194 0.42997 0.0
H1070 H 0.60223 0.58531 0.5338 0.0
H1071 H 0.63766 0.56993 0.55121 0.0
H1072 H 0.40846 0.36008 0.92076 0.0
H1073 H 0.39144 0.39359 0.94196 0.0
H1074 H 0.39206 0.36955 0.05387 0.0
H1075 H 0.40845 0.33535 0.0325 0.0
H1076 H 0.354 0.38714 0.03871 0.0
H1077 H 0.41754 0.44471 0.9928 0.0
H1078 H 0.40826 0.42841 0.95493 0.0
H1079 H 0.42188 0.41565 0.99337 0.0
C1080 C 0.40524 0.36195 0.94999 0.0
C1081 C 0.40995 0.34505 0.97499 0.0
C1082 C 0.39561 0.38125 0.96212 0.0
C1083 C 0.39091 0.38438 0.99965 0.0
C1084 C 0.39568 0.36759 0.0248 0.0
H1085 H 0.35094 0.51324 0.0759 0.0
H1086 H 0.37072 0.47939 0.06464 0.0
C1087 C 0.40508 0.34807 0.01258 0.0
C1088 C 0.37999 0.40473 0.01205 0.0
H1089 H 0.38219 0.46013 0.00453 0.0
C1090 C 0.36031 0.40311 0.03164 0.0
C1091 C 0.38836 0.42563 0.00348 0.0
C1092 C 0.41029 0.42871 0.98536 0.0
C1093 C 0.34843 0.42175 0.04177 0.0
C1094 C 0.35604 0.44257 0.03087 0.0
C1095 C 0.37609 0.44419 0.01237 0.0
C1096 C 0.34363 0.46292 0.03845 0.0
C1097 C 0.32802 0.41885 0.06449 0.0
C1098 C 0.32183 0.46512 0.02714 0.0
C1099 C 0.31035 0.48438 0.03415 0.0
C1100 C 0.32061 0.50202 0.05172 0.0
C1101 C 0.34257 0.49998 0.06221 0.0
C1102 C 0.3539 0.4806 0.05582 0.0
H1103 H 0.32852 0.40345 0.08061 0.0
H1104 H 0.32564 0.43262 0.08394 0.0
H1105 H 0.31373 0.41799 0.04581 0.0
H1106 H 0.31373 0.45204 0.01257 0.0
H1107 H 0.29353 0.48557 0.02532 0.0
H1108 H 0.36272 0.59889 0.07661 0.0
H1109 H 0.39516 0.61777 0.05536 0.0
H1110 H 0.37103 0.61593 0.94354 0.0
H1111 H 0.33777 0.59768 0.96505 0.0
H1112 H 0.4264 0.60643 0.01098 0.0
H1113 H 0.38559 0.67927 0.95233 0.0
H1114 H 0.37122 0.65936 0.97968 0.0
H1115 H 0.37691 0.65415 0.93175 0.0
C1116 C 0.36423 0.60243 0.04743 0.0
C1117 C 0.34756 0.59682 0.02253 0.0
C1118 C 0.38286 0.61328 0.03531 0.0
C1119 C 0.38546 0.61865 0.99792 0.0
C1120 C 0.36916 0.61253 0.97268 0.0
H1121 H 0.51393 0.65857 0.91818 0.0
H1122 H 0.48027 0.63872 0.93058 0.0
C1123 C 0.35025 0.60191 0.98494 0.0
C1124 C 0.40547 0.63041 0.98596 0.0
H1125 H 0.42374 0.67671 0.94362 0.0
C1126 C 0.42579 0.6218 0.99621 0.0
C1127 C 0.40472 0.65065 0.96719 0.0
C1128 C 0.38345 0.66154 0.95739 0.0
C1129 C 0.44529 0.63288 0.9887 0.0
C1130 C 0.4446 0.6528 0.96898 0.0
C1131 C 0.4243 0.66136 0.95845 0.0
C1132 C 0.4647 0.66523 0.95984 0.0
C1133 C 0.46633 0.62347 0.00328 0.0
C1134 C 0.46686 0.68712 0.97067 0.0
C1135 C 0.48597 0.69871 0.96286 0.0
C1136 C 0.50334 0.68856 0.94433 0.0
C1137 C 0.50099 0.66676 0.93303 0.0
C1138 C 0.48178 0.65533 0.94028 0.0
H1139 H 0.46341 0.61229 0.02691 0.0
H1140 H 0.47436 0.61392 0.98113 0.0
H1141 H 0.47765 0.6365 0.0124 0.0
H1142 H 0.45388 0.69516 0.98565 0.0
H1143 H 0.48728 0.71548 0.97189 0.0
H1144 H 0.61024 0.67286 0.02293 0.0
H1145 H 0.62946 0.6395 0.04083 0.0
H1146 H 0.60537 0.60724 0.94334 0.0
H1147 H 0.58635 0.64043 0.92499 0.0
H1148 H 0.61522 0.59644 0.05352 0.0
H1149 H 0.67177 0.60102 0.93432 0.0
H1150 H 0.65478 0.62359 0.94813 0.0
H1151 H 0.64352 0.60157 0.92154 0.0
C1152 C 0.60885 0.65861 0.00546 0.0
C1153 C 0.59696 0.65943 0.97227 0.0
C1154 C 0.61988 0.63958 0.01572 0.0
C1155 C 0.61923 0.62108 0.99296 0.0
C1156 C 0.60651 0.62151 0.96083 0.0
H1157 H 0.65692 0.4882 0.0401 0.0
H1158 H 0.63773 0.52224 0.0275 0.0
C1159 C 0.59554 0.64049 0.95052 0.0
C1160 C 0.63221 0.60145 0.00224 0.0
H1161 H 0.6723 0.56816 0.96917 0.0
C1162 C 0.62777 0.59029 0.0352 0.0
C1163 C 0.64884 0.59369 0.97858 0.0
C1164 C 0.65521 0.60568 0.94384 0.0
C1165 C 0.6391 0.57119 0.04463 0.0
C1166 C 0.65504 0.5629 0.02013 0.0
C1167 C 0.6599 0.57441 0.9877 0.0
C1168 C 0.66678 0.54221 0.02749 0.0
C1169 C 0.63405 0.5602 0.08089 0.0
C1170 C 0.68958 0.542 0.03043 0.0
C1171 C 0.70067 0.5225 0.03735 0.0
C1172 C 0.68915 0.50282 0.0413 0.0
C1173 C 0.66632 0.50306 0.03755 0.0
C1174 C 0.65528 0.52254 0.0306 0.0
H1175 H 0.62615 0.57158 0.10063 0.0
H1176 H 0.62267 0.54646 0.07595 0.0
H1177 H 0.64906 0.55358 0.09379 0.0
H1178 H 0.69878 0.55698 0.02779 0.0
H1179 H 0.71824 0.52293 0.03996 0.0
H1180 H 0.51927 0.28912 0.97461 0.0
H1181 H 0.55279 0.30949 0.98733 0.0
H1182 H 0.52641 0.36533 0.93044 0.0
H1183 H 0.49265 0.34546 0.91913 0.0
H1184 H 0.58278 0.32725 0.94421 0.0
H1185 H 0.54375 0.3929 0.0255 0.0
H1186 H 0.52933 0.36858 0.0121 0.0
H1187 H 0.53255 0.39076 0.97997 0.0
C1188 C 0.52062 0.30577 0.96499 0.0
C1189 C 0.50324 0.31576 0.94627 0.0
C1190 C 0.53978 0.31739 0.9722 0.0
C1191 C 0.54197 0.33912 0.96052 0.0
C1192 C 0.52487 0.34885 0.94078 0.0
H1193 H 0.66904 0.40623 0.96067 0.0
H1194 H 0.63556 0.38786 0.94051 0.0
C1195 C 0.5056 0.33741 0.93416 0.0
C1196 C 0.56214 0.35158 0.9689 0.0
H1197 H 0.58066 0.39851 0.00851 0.0
C1198 C 0.58234 0.3428 0.95839 0.0
C1199 C 0.56159 0.37178 0.98777 0.0
C1200 C 0.54067 0.38145 0.00233 0.0
C1201 C 0.60199 0.35359 0.96632 0.0
C1202 C 0.60138 0.37411 0.98418 0.0
C1203 C 0.58115 0.38293 0.99442 0.0
C1204 C 0.62146 0.38597 0.99526 0.0
C1205 C 0.62318 0.34249 0.95668 0.0
C1206 C 0.6243 0.39185 0.03236 0.0
C1207 C 0.64304 0.40278 0.04369 0.0
C1208 C 0.65958 0.40792 0.01826 0.0
C1209 C 0.65666 0.40234 0.98094 0.0
C1210 C 0.63763 0.39167 0.96947 0.0
H1211 H 0.62096 0.3247 0.95245 0.0
H1212 H 0.62961 0.34948 0.93061 0.0
H1213 H 0.63553 0.34497 0.97867 0.0
H1214 H 0.6121 0.38769 0.05281 0.0
H1215 H 0.64475 0.4067 0.07269 0.0
H1216 H 0.21751 0.96738 0.70014 0.0
H1217 H 0.22471 0.98965 0.75425 0.0
H1218 H 0.2837 0.01372 0.70412 0.0
H1219 H 0.2765 0.99128 0.64899 0.0
H1220 H 0.28585 1.00117 0.78384 0.0
H1221 H 0.21828 0.05778 0.75191 0.0
H1222 H 0.21046 0.02966 0.74838 0.0
H1223 H 0.2307 0.04046 0.71745 0.0
C1224 C 0.23213 0.97726 0.70054 0.0
C1225 C 0.2463 0.97776 0.67003 0.0
C1226 C 0.23616 0.99006 0.73147 0.0
C1227 C 0.2544 0.00373 0.73272 0.0
C1228 C 0.26935 0.00345 0.70335 0.0
H1229 H 0.24597 0.08768 0.931 0.0
H1230 H 0.25452 0.07866 0.86636 0.0
C1231 C 0.2653 0.99054 0.67206 0.0
C1232 C 0.25726 0.01817 0.76509 0.0
H1233 H 0.22888 0.05533 0.81607 0.0
C1234 C 0.27378 0.01346 0.79054 0.0
C1235 C 0.24175 0.03449 0.77349 0.0
C1236 C 0.22441 0.04108 0.74618 0.0
C1237 C 0.27396 0.02322 0.8256 0.0
C1238 C 0.25699 0.03774 0.83546 0.0
C1239 C 0.24173 0.04401 0.8087 0.0
C1240 C 0.25283 0.04376 0.87447 0.0
C1241 C 0.29173 0.01712 0.8524 0.0
C1242 C 0.24847 0.02721 0.90003 0.0
C1243 C 0.24345 0.03224 0.9365 0.0
C1244 C 0.24255 0.05404 0.94849 0.0
C1245 C 0.24658 0.07074 0.92272 0.0
C1246 C 0.25157 0.06562 0.88588 0.0
H1247 H 0.30696 0.01268 0.83761 0.0
H1248 H 0.29529 0.03064 0.87184 0.0
H1249 H 0.28649 1.0027 0.86863 0.0
H1250 H 0.24865 0.01027 0.89163 0.0
H1251 H 0.24026 0.01889 0.95531 0.0
H1252 H 0.97738 0.73564 0.34899 0.0
H1253 H 0.99513 0.72827 0.28926 0.0
H1254 H 1.00257 0.79731 0.27118 0.0
H1255 H 0.98483 0.8048 0.32947 0.0
H1256 H 0.98321 0.7754 0.21283 0.0
H1257 H 0.06022 0.73556 0.25795 0.0
H1258 H 0.03509 0.7246 0.27568 0.0
H1259 H 0.04354 0.75144 0.289 0.0
C1260 C 0.98289 0.74919 0.33227 0.0
C1261 C 0.97958 0.77079 0.34403 0.0
C1262 C 0.99316 0.74496 0.29835 0.0
C1263 C 1.00033 0.76228 0.27602 0.0
C1264 C 0.99721 0.78372 0.288 0.0
H1265 H 0.07942 0.78135 0.08134 0.0
H1266 H 0.06645 0.77723 0.14536 0.0
C1267 C 0.98697 0.78794 0.32145 0.0
C1268 C 0.00988 0.7587 0.23896 0.0
H1269 H 0.05542 0.74087 0.19382 0.0
C1270 C 0.99891 0.76767 0.20862 0.0
C1271 C 0.0305 0.7489 0.23375 0.0
C1272 C 0.0432 0.73966 0.26575 0.0
C1273 C 0.00812 0.76754 0.17329 0.0
C1274 C 0.02868 0.75761 0.16788 0.0
C1275 C 0.03963 0.74836 0.1981 0.0
C1276 C 0.03884 0.75703 0.13081 0.0
C1277 C 0.99604 0.77872 0.14228 0.0
C1278 C 0.02812 0.74634 0.10191 0.0
C1279 C 0.0352 0.74898 0.06567 0.0
C1280 C 0.05344 0.76201 0.05766 0.0
C1281 C 0.06528 0.7713 0.08685 0.0
C1282 C 0.05792 0.76891 0.12331 0.0
H1283 H 0.98347 0.79017 0.15281 0.0
H1284 H 0.00742 0.78791 0.12424 0.0
H1285 H 0.98768 0.76627 0.12518 0.0
H1286 H 0.01363 0.73675 0.10721 0.0
H1287 H 0.02601 0.74129 0.04372 0.0
H1288 H 0.75938 0.91861 0.92897 0.0
H1289 H 0.7521 0.92828 0.86412 0.0
H1290 H 0.76322 0.99599 0.88951 0.0
H1291 H 0.77035 0.98672 0.95341 0.0
H1292 H 0.72465 0.98783 0.84716 0.0
H1293 H 0.79908 0.94884 0.78859 0.0
H1294 H 0.7812 0.93258 0.81677 0.0
H1295 H 0.79648 0.95432 0.83734 0.0
C1296 C 0.76035 0.93552 0.92061 0.0
C1297 C 0.76545 0.95185 0.94649 0.0
C1298 C 0.75616 0.94101 0.88361 0.0
C1299 C 0.75708 0.96288 0.87208 0.0
C1300 C 0.76222 0.97906 0.89785 0.0
H1301 H 0.78972 0.04173 0.69746 0.0
H1302 H 0.78296 0.0199 0.75236 0.0
C1303 C 0.76639 0.97365 0.93448 0.0
C1304 C 0.75338 0.96948 0.83319 0.0
H1305 H 0.77948 0.9724 0.75016 0.0
C1306 C 0.73628 0.98404 0.82555 0.0
C1307 C 0.76866 0.96457 0.80522 0.0
C1308 C 0.78749 0.94931 0.81213 0.0
C1309 C 0.7349 0.99491 0.79147 0.0
C1310 C 0.75096 0.99098 0.76437 0.0
C1311 C 0.76718 0.97532 0.77109 0.0
C1312 C 0.75338 0.00522 0.73157 0.0
C1313 C 0.71729 0.01168 0.7856 0.0
C1314 C 0.73859 0.00469 0.70197 0.0
C1315 C 0.74237 0.01738 0.67031 0.0
C1316 C 0.76108 0.03056 0.66789 0.0
C1317 C 0.77526 0.03162 0.6983 0.0
C1318 C 0.77146 0.01909 0.72969 0.0
H1319 H 0.7069 0.01385 0.81043 0.0
H1320 H 0.72468 0.02762 0.77828 0.0
H1321 H 0.70677 0.00661 0.76222 0.0
H1322 H 0.72456 0.99401 0.70289 0.0
H1323 H 0.73125 0.0161 0.6472 0.0
H1324 H 0.92064 0.24499 0.07415 0.0
H1325 H 0.93033 0.25194 0.13896 0.0
H1326 H 0.99834 0.24447 0.11201 0.0
H1327 H 0.98902 0.23777 0.04796 0.0
H1328 H 0.95196 0.22514 0.18724 0.0
H1329 H 0.99897 0.30102 0.16983 0.0
H1330 H 0.9809 0.29073 0.13453 0.0
H1331 H 0.00833 0.28053 0.13835 0.0
C1332 C 0.93765 0.24495 0.08207 0.0
C1333 C 0.95403 0.24095 0.05574 0.0
C1334 C 0.94315 0.24901 0.11903 0.0
C1335 C 0.9651 0.24933 0.13008 0.0
C1336 C 0.98136 0.24504 0.10393 0.0
H1337 H 0.03556 0.20799 0.31088 0.0
H1338 H 0.01458 0.21564 0.25548 0.0
C1339 C 0.97593 0.24099 0.06726 0.0
C1340 C 0.97137 0.25239 0.16928 0.0
H1341 H 0.00878 0.27866 0.22304 0.0
C1342 C 0.96396 0.2372 0.19533 0.0
C1343 C 0.9867 0.2684 0.18014 0.0
C1344 C 0.99398 0.28623 0.15428 0.0
C1345 C 0.97294 0.23637 0.23091 0.0
C1346 C 0.98999 0.25085 0.24037 0.0
C1347 C 0.99599 0.26731 0.21552 0.0
C1348 C 0.00347 0.2473 0.27374 0.0
C1349 C 0.96471 0.21937 0.25758 0.0
C1350 C 0.00513 0.26309 0.30167 0.0
C1351 C 0.01737 0.25882 0.3336 0.0
C1352 C 0.02812 0.23872 0.3378 0.0
C1353 C 0.0272 0.22349 0.30885 0.0
C1354 C 0.01509 0.22777 0.2772 0.0
H1355 H 0.94757 0.21481 0.25141 0.0
H1356 H 0.97482 0.20447 0.25499 0.0
H1357 H 0.96569 0.22521 0.28654 0.0
H1358 H 0.99652 0.27842 0.29918 0.0
H1359 H 0.0178 0.27088 0.3554 0.0
H1360 H 0.79622 0.96868 0.19234 0.0
H1361 H 0.7891 0.98909 0.24859 0.0
H1362 H 0.72722 0.01009 0.20491 0.0
H1363 H 0.73421 0.98933 0.14797 0.0
H1364 H 0.78214 0.03481 0.25161 0.0
H1365 H 0.7129 0.98735 0.31034 0.0
H1366 H 0.73046 0.97628 0.27504 0.0
H1367 H 0.71074 0.9967 0.26337 0.0
C1368 C 0.78097 0.97746 0.19468 0.0
C1369 C 0.76582 0.97747 0.16559 0.0
C1370 C 0.77696 0.98917 0.22687 0.0
C1371 C 0.75771 1.00118 0.23088 0.0
C1372 C 0.74214 1.00079 0.20244 0.0
H1373 H 0.75835 0.08652 0.42931 0.0
H1374 H 0.75264 0.07616 0.36444 0.0
C1375 C 0.74612 0.98891 0.17001 0.0
C1376 C 0.75471 0.01439 0.26476 0.0
H1377 H 0.72804 0.01478 0.3474 0.0
C1378 C 0.77004 0.03078 0.27235 0.0
C1379 C 0.73893 0.00901 0.29165 0.0
C1380 C 0.72233 0.99132 0.28503 0.0
C1381 C 0.77088 0.04102 0.30697 0.0
C1382 C 0.75574 0.03491 0.33451 0.0
C1383 C 0.73958 0.01946 0.32614 0.0
C1384 C 0.75842 0.04178 0.3735 0.0
C1385 C 0.78885 0.05718 0.31464 0.0
C1386 C 0.76336 0.02592 0.40001 0.0
C1387 C 0.76656 0.03171 0.43676 0.0
C1388 C 0.76485 0.05358 0.44808 0.0
C1389 C 0.75991 0.06956 0.42148 0.0
C1390 C 0.75664 0.06368 0.38445 0.0
H1391 H 0.80104 0.05779 0.29199 0.0
H1392 H 0.78173 0.07368 0.31787 0.0
H1393 H 0.79737 0.05299 0.34074 0.0
H1394 H 0.76496 0.00895 0.39215 0.0
H1395 H 0.77041 0.01893 0.45633 0.0
H1396 H 0.01911 0.2355 0.54939 0.0
H1397 H 0.01018 0.24312 0.61324 0.0
H1398 H 0.07838 0.25017 0.63902 0.0
H1399 H 0.0877 0.2424 0.57422 0.0
H1400 H 0.05553 0.22387 0.68883 0.0
H1401 H 0.01136 0.30118 0.66804 0.0
H1402 H 1.0018 0.28063 0.63682 0.0
H1403 H 0.02956 0.28999 0.63372 0.0
C1404 C 0.03234 0.23879 0.56835 0.0
C1405 C 0.05418 0.23847 0.55646 0.0
C1406 C 0.02714 0.24336 0.60492 0.0
C1407 C 0.04355 0.24784 0.63067 0.0
C1408 C 0.06544 0.24711 0.61936 0.0
H1409 H 0.98998 0.27246 0.85468 0.0
H1410 H 0.01209 0.27918 0.79904 0.0
C1411 C 0.07074 0.24258 0.58243 0.0
C1412 C 0.03736 0.25167 0.6697 0.0
H1413 H 1.00039 0.27975 0.72171 0.0
C1414 C 0.04394 0.23645 0.69632 0.0
C1415 C 0.02253 0.26833 0.67973 0.0
C1416 C 0.0161 0.28609 0.65311 0.0
C1417 C 0.03453 0.23624 0.73163 0.0
C1418 C 0.01793 0.25142 0.74022 0.0
C1419 C 0.01285 0.2679 0.71486 0.0
C1420 C 0.00384 0.24852 0.77307 0.0
C1421 C 0.04172 0.21911 0.75889 0.0
C1422 C 0.9912 0.2296 0.77598 0.0
C1423 C 0.97859 0.22582 0.80726 0.0
C1424 C 0.97821 0.24094 0.83641 0.0
C1425 C 0.98995 0.26051 0.8327 0.0
C1426 C 1.00268 0.2643 0.80111 0.0
H1427 H 0.05868 0.21371 0.75329 0.0
H1428 H 0.04073 0.22523 0.78768 0.0
H1429 H 0.03094 0.20467 0.75638 0.0
H1430 H 0.99137 0.21752 0.75418 0.0
H1431 H 0.9695 0.21072 0.80895 0.0
H1432 H 0.23357 0.98772 0.45796 0.0
H1433 H 0.23915 0.99737 0.39364 0.0
H1434 H 0.25537 0.93068 0.36827 0.0
H1435 H 0.24958 0.92065 0.43329 0.0
H1436 H 0.27717 0.99287 0.35056 0.0
H1437 H 0.20699 0.94612 0.29349 0.0
H1438 H 0.20966 0.95161 0.34221 0.0
H1439 H 0.22659 0.93144 0.32076 0.0
C1440 C 0.2383 0.97499 0.43886 0.0
C1441 C 0.24111 0.95336 0.45087 0.0
C1442 C 0.24156 0.9806 0.40204 0.0
C1443 C 0.24767 0.96478 0.37617 0.0
C1444 C 0.25047 0.94311 0.38779 0.0
H1445 H 0.27236 0.01703 0.15063 0.0
H1446 H 0.27946 0.99655 0.20784 0.0
C1447 C 0.24714 0.93741 0.42489 0.0
C1448 C 0.25056 0.97144 0.33714 0.0
H1449 H 0.22527 0.96978 0.25334 0.0
C1450 C 0.26614 0.98753 0.329 0.0
C1451 C 0.23609 0.96445 0.30922 0.0
C1452 C 0.21877 0.94755 0.31664 0.0
C1453 C 0.26678 0.99774 0.2943 0.0
C1454 C 0.25159 0.99148 0.267 0.0
C1455 C 0.23691 0.97448 0.27441 0.0
C1456 C 0.2484 0.00438 0.23284 0.0
C1457 C 0.28266 0.01611 0.28788 0.0
C1458 C 0.22876 0.01566 0.2282 0.0
C1459 C 0.22469 0.02722 0.19588 0.0
C1460 C 0.24016 0.02776 0.16726 0.0
C1461 C 0.26018 0.017 0.17227 0.0
C1462 C 0.26424 0.00528 0.20485 0.0
H1463 H 0.29168 0.02058 0.31336 0.0
H1464 H 0.29466 0.01117 0.26656 0.0
H1465 H 0.27397 0.03075 0.2775 0.0
H1466 H 0.21642 0.01533 0.24959 0.0
H1467 H 0.20917 0.03547 0.19311 0.0
H1468 H 0.03538 0.79417 0.81234 0.0
H1469 H 0.0128 0.78705 0.75855 0.0
H1470 H 0.99423 0.72477 0.80375 0.0
H1471 H 0.01707 0.73179 0.85837 0.0
H1472 H 0.0047 0.72435 0.72664 0.0
H1473 H 0.94565 0.78944 0.75929 0.0
H1474 H 0.97318 0.79917 0.76145 0.0
H1475 H 0.96423 0.77844 0.79322 0.0
C1476 C 0.0266 0.77887 0.81094 0.0
C1477 C 0.02782 0.76365 0.83988 0.0
C1478 C 0.01356 0.77491 0.78024 0.0
C1479 C 1.00133 0.75571 0.77774 0.0
C1480 C 0.0033 0.73987 0.80555 0.0
H1481 H 0.91765 0.76208 0.57873 0.0
H1482 H 0.92645 0.75366 0.64354 0.0
C1483 C 0.01645 0.74383 0.83654 0.0
C1484 C 0.98695 0.75251 0.74536 0.0
H1485 H 0.94884 0.77967 0.69448 0.0
C1486 C 0.99206 0.73606 0.71998 0.0
C1487 C 0.97009 0.76746 0.73704 0.0
C1488 C 0.96279 0.78447 0.76441 0.0
C1489 C 0.98224 0.73554 0.68499 0.0
C1490 C 0.96727 0.7521 0.67511 0.0
C1491 C 0.96056 0.76718 0.70184 0.0
C1492 C 0.96134 0.75618 0.63606 0.0
C1493 C 0.98879 0.71789 0.65826 0.0
C1494 C 0.97795 0.76098 0.61084 0.0
C1495 C 0.97304 0.76592 0.57432 0.0
C1496 C 0.9513 0.76631 0.56192 0.0
C1497 C 0.93454 0.76186 0.58735 0.0
C1498 C 0.93953 0.75694 0.62427 0.0
H1499 H 0.99351 0.70277 0.67311 0.0
H1500 H 0.97541 0.71404 0.6387 0.0
H1501 H 1.00315 0.72343 0.64217 0.0
H1502 H 0.99483 0.7612 0.61956 0.0
H1503 H 0.98643 0.76947 0.5558 0.0
H1504 H 0.70861 0.56904 0.41893 0.0
H1505 H 0.71387 0.55482 0.35614 0.0
H1506 H 0.77669 0.52944 0.38753 0.0
H1507 H 0.77148 0.54312 0.45 0.0
H1508 H 0.74691 0.56136 0.30257 0.0
H1509 H 0.74466 0.47537 0.3507 0.0
H1510 H 0.73627 0.49782 0.37951 0.0
H1511 H 0.76472 0.49207 0.37304 0.0
C1512 C 0.72359 0.56059 0.41229 0.0
C1513 C 0.73945 0.55692 0.43955 0.0
C1514 C 0.72658 0.55247 0.37649 0.0
C1515 C 0.74548 0.54067 0.36749 0.0
C1516 C 0.76177 0.53801 0.39415 0.0
H1517 H 0.77216 0.46622 0.16329 0.0
H1518 H 0.77929 0.48599 0.22141 0.0
C1519 C 0.75875 0.54591 0.42984 0.0
C1520 C 0.74789 0.53046 0.33067 0.0
H1521 H 0.75169 0.48113 0.2875 0.0
C1522 C 0.74808 0.54384 0.29927 0.0
C1523 C 0.74958 0.50757 0.32648 0.0
C1524 C 0.74862 0.49231 0.35915 0.0
C1525 C 0.7495 0.53489 0.26369 0.0
C1526 C 0.75056 0.51201 0.25951 0.0
C1527 C 0.75115 0.49868 0.2909 0.0
C1528 C 0.74763 0.50149 0.22313 0.0
C1529 C 0.74945 0.54993 0.23077 0.0
C1530 C 0.72754 0.50362 0.2053 0.0
C1531 C 0.72339 0.49227 0.17287 0.0
C1532 C 0.73927 0.47852 0.15732 0.0
C1533 C 0.75968 0.47675 0.17464 0.0
C1534 C 0.76374 0.48799 0.20769 0.0
H1535 H 0.75508 0.56655 0.23832 0.0
H1536 H 0.76 0.54352 0.20836 0.0
H1537 H 0.73259 0.55129 0.21994 0.0
H1538 H 0.71477 0.51363 0.21709 0.0
H1539 H 0.70754 0.49418 0.1601 0.0
H1540 H 0.51919 0.27277 0.54889 0.0
H1541 H 0.50935 0.26517 0.61248 0.0
H1542 H 0.57669 0.25271 0.63887 0.0
H1543 H 0.58692 0.26049 0.57449 0.0
H1544 H 0.51644 0.2262 0.65398 0.0
H1545 H 0.55679 0.29912 0.71528 0.0
H1546 H 0.55163 0.29703 0.66636 0.0
H1547 H 0.57294 0.28121 0.68704 0.0
C1548 C 0.53204 0.26844 0.56802 0.0
C1549 C 0.55391 0.26727 0.55645 0.0
C1550 C 0.52631 0.264 0.60443 0.0
C1551 C 0.54224 0.25834 0.63038 0.0
C1552 C 0.56415 0.25718 0.61926 0.0
H1553 H 0.49017 0.23205 0.85596 0.0
H1554 H 0.51187 0.2252 0.79985 0.0
C1555 C 0.56996 0.26166 0.58253 0.0
C1556 C 0.5354 0.25435 0.66906 0.0
H1557 H 0.53318 0.27922 0.7532 0.0
C1558 C 0.52051 0.23743 0.67604 0.0
C1559 C 0.54068 0.2691 0.69763 0.0
C1560 C 0.55629 0.28774 0.69145 0.0
C1561 C 0.50974 0.23572 0.71016 0.0
C1562 C 0.51407 0.25127 0.73789 0.0
C1563 C 0.52999 0.26729 0.73177 0.0
C1564 C 0.49987 0.25354 0.7707 0.0
C1565 C 0.49266 0.21834 0.71552 0.0
C1566 C 0.48565 0.27135 0.77235 0.0
C1567 C 0.47334 0.27522 0.80393 0.0
C1568 C 0.47499 0.26139 0.83475 0.0
C1569 C 0.48847 0.24289 0.83254 0.0
C1570 C 0.50093 0.23903 0.80066 0.0
H1571 H 0.49084 0.20778 0.69082 0.0
H1572 H 0.49709 0.20798 0.73949 0.0
H1573 H 0.4767 0.22603 0.72172 0.0
H1574 H 0.48448 0.28261 0.74939 0.0
H1575 H 0.46298 0.2895 0.80461 0.0
H1576 H 0.30117 0.53213 0.18904 0.0
H1577 H 0.29355 0.51291 0.24592 0.0
H1578 H 0.2267 0.50406 0.21255 0.0
H1579 H 0.23439 0.52312 0.15409 0.0
H1580 H 0.26467 0.52414 0.29968 0.0
H1581 H 0.24594 0.44201 0.24277 0.0
H1582 H 0.25896 0.46298 0.21562 0.0
H1583 H 0.23031 0.46449 0.22506 0.0
C1584 C 0.28478 0.52612 0.19345 0.0
C1585 C 0.2684 0.52911 0.16674 0.0
C1586 C 0.28048 0.51509 0.22615 0.0
C1587 C 0.25966 0.50679 0.23332 0.0
C1588 C 0.24301 0.51 0.20722 0.0
H1589 H 0.23453 0.46906 0.4603 0.0
H1590 H 0.22903 0.48185 0.39713 0.0
C1591 C 0.24736 0.52107 0.17405 0.0
C1592 C 0.25586 0.49549 0.26894 0.0
H1593 H 0.24626 0.44557 0.30767 0.0
C1594 C 0.2604 0.50702 0.30145 0.0
C1595 C 0.25061 0.47306 0.27106 0.0
C1596 C 0.2463 0.45976 0.23684 0.0
C1597 C 0.26047 0.4967 0.33591 0.0
C1598 C 0.25517 0.47429 0.33817 0.0
C1599 C 0.25019 0.46276 0.3058 0.0
C1600 C 0.25537 0.46278 0.37415 0.0
C1601 C 0.26713 0.50974 0.36944 0.0
C1602 C 0.27108 0.44669 0.38168 0.0
C1603 C 0.27399 0.43901 0.41784 0.0
C1604 C 0.26136 0.44758 0.44668 0.0
C1605 C 0.24463 0.46242 0.43849 0.0
C1606 C 0.2415 0.46975 0.40249 0.0
H1607 H 0.27584 0.52495 0.36173 0.0
H1608 H 0.25236 0.51438 0.38525 0.0
H1609 H 0.27785 0.50003 0.38785 0.0
H1610 H 0.28191 0.44106 0.36008 0.0
H1611 H 0.28701 0.4276 0.42362 0.0
H1612 H 0.42006 0.74538 0.5722 0.0
H1613 H 0.43048 0.75346 0.63637 0.0
H1614 H 0.49781 0.74152 0.60927 0.0
H1615 H 0.48778 0.73348 0.54595 0.0
H1616 H 0.45277 0.7263 0.68708 0.0
H1617 H 0.5001 0.8012 0.66026 0.0
H1618 H 0.48076 0.7903 0.6275 0.0
H1619 H 0.50798 0.77946 0.62998 0.0
C1620 C 0.43707 0.74447 0.57999 0.0
C1621 C 0.45306 0.73892 0.55377 0.0
C1622 C 0.44299 0.7492 0.61656 0.0
C1623 C 0.46499 0.74868 0.62728 0.0
C1624 C 0.48082 0.74268 0.60136 0.0
H1625 H 0.54103 0.71349 0.80301 0.0
H1626 H 0.51924 0.72069 0.74832 0.0
C1627 C 0.47498 0.7379 0.56513 0.0
C1628 C 0.47177 0.75301 0.66588 0.0
H1629 H 0.51006 0.78089 0.71544 0.0
C1630 C 0.46483 0.73863 0.69358 0.0
C1631 C 0.48729 0.7693 0.67453 0.0
C1632 C 0.49429 0.78609 0.64655 0.0
C1633 C 0.47447 0.73887 0.72871 0.0
C1634 C 0.49155 0.75373 0.73611 0.0
C1635 C 0.49712 0.76936 0.70955 0.0
C1636 C 0.50579 0.75091 0.76873 0.0
C1637 C 0.46714 0.72244 0.75707 0.0
C1638 C 0.50621 0.76611 0.79772 0.0
C1639 C 0.51881 0.76205 0.82938 0.0
C1640 C 0.53113 0.74278 0.83217 0.0
C1641 C 0.5315 0.72834 0.80203 0.0
C1642 C 0.51899 0.73237 0.77075 0.0
H1643 H 0.45032 0.71665 0.75146 0.0
H1644 H 0.47818 0.70812 0.7562 0.0
H1645 H 0.46777 0.72944 0.78532 0.0
H1646 H 0.49627 0.78067 0.79638 0.0
H1647 H 0.51819 0.77347 0.85215 0.0
H1648 H 0.25862 0.51882 0.95753 0.0
H1649 H 0.25385 0.50909 0.89285 0.0
H1650 H 0.27064 0.57453 0.8604 0.0
H1651 H 0.27532 0.58467 0.92565 0.0
H1652 H 0.22616 0.53651 0.83016 0.0
H1653 H 0.31572 0.52384 0.81492 0.0
H1654 H 0.30251 0.52045 0.8591 0.0
H1655 H 0.30547 0.54716 0.83979 0.0
C1656 C 0.26118 0.53127 0.93679 0.0
C1657 C 0.26754 0.55252 0.94675 0.0
C1658 C 0.25828 0.52568 0.89985 0.0
C1659 C 0.26182 0.54111 0.87209 0.0
C1660 C 0.26771 0.56247 0.88168 0.0
H1661 H 0.2867 0.50694 0.64454 0.0
H1662 H 0.28146 0.52776 0.70124 0.0
C1663 C 0.27043 0.56819 0.91885 0.0
C1664 C 0.26108 0.53406 0.83319 0.0
H1665 H 0.29351 0.51324 0.76562 0.0
C1666 C 0.24085 0.53169 0.81566 0.0
C1667 C 0.28028 0.52774 0.81473 0.0
C1668 C 0.30232 0.52982 0.83287 0.0
C1669 C 0.23934 0.52292 0.77989 0.0
C1670 C 0.25854 0.51585 0.76184 0.0
C1671 C 0.27878 0.51867 0.77936 0.0
C1672 C 0.25836 0.50511 0.72511 0.0
C1673 C 0.21727 0.52145 0.76179 0.0
C1674 C 0.24657 0.48575 0.71904 0.0
C1675 C 0.24924 0.47403 0.68613 0.0
C1676 C 0.26411 0.48129 0.65944 0.0
C1677 C 0.27519 0.50102 0.66492 0.0
C1678 C 0.27222 0.5129 0.69727 0.0
H1679 H 0.20576 0.53357 0.77356 0.0
H1680 H 0.21842 0.5241 0.73153 0.0
H1681 H 0.21036 0.505 0.76671 0.0
H1682 H 0.23619 0.47912 0.74042 0.0
H1683 H 0.24074 0.45871 0.68251 0.0
H1684 H 0.58759 0.74249 0.07138 0.0
H1685 H 0.57731 0.74835 0.13629 0.0
H1686 H 0.50959 0.74073 0.10752 0.0
H1687 H 0.5195 0.73504 0.04338 0.0
H1688 H 0.51808 0.77716 0.15362 0.0
H1689 H 0.55477 0.70033 0.20712 0.0
H1690 H 0.57211 0.71849 0.18146 0.0
H1691 H 0.55019 0.70473 0.15848 0.0
C1692 C 0.57054 0.74199 0.07897 0.0
C1693 C 0.55442 0.73825 0.05206 0.0
C1694 C 0.56469 0.74535 0.11604 0.0
C1695 C 0.54267 0.74495 0.12672 0.0
C1696 C 0.52666 0.74126 0.0999 0.0
H1697 H 0.46496 0.71176 0.30504 0.0
H1698 H 0.486 0.71808 0.24917 0.0
C1699 C 0.53242 0.73791 0.06314 0.0
C1700 C 0.53579 0.74775 0.16575 0.0
H1701 H 0.53299 0.72046 0.24774 0.0
C1702 C 0.52169 0.76504 0.17453 0.0
C1703 C 0.54045 0.73184 0.19285 0.0
C1704 C 0.5551 0.71269 0.18472 0.0
C1705 C 0.51123 0.7662 0.20902 0.0
C1706 C 0.5151 0.74971 0.23542 0.0
C1707 C 0.53013 0.73311 0.2274 0.0
C1708 C 0.50149 0.74745 0.26908 0.0
C1709 C 0.49504 0.78419 0.21616 0.0
C1710 C 0.50279 0.76222 0.29866 0.0
C1711 C 0.49058 0.75869 0.33096 0.0
C1712 C 0.47708 0.74023 0.33407 0.0
C1713 C 0.47534 0.72602 0.30376 0.0
C1714 C 0.4874 0.72957 0.27176 0.0
H1715 H 0.49242 0.79461 0.19147 0.0
H1716 H 0.47915 0.7772 0.2248 0.0
H1717 H 0.50103 0.79463 0.23902 0.0
H1718 H 0.51367 0.77608 0.29719 0.0
H1719 H 0.49236 0.76985 0.35391 0.0
H1720 H 0.71199 0.43462 0.92041 0.0
H1721 H 0.71558 0.44979 0.85795 0.0
H1722 H 0.77538 0.4816 0.89012 0.0
H1723 H 0.77111 0.4674 0.95273 0.0
H1724 H 0.74936 0.5097 0.86105 0.0
H1725 H 0.75152 0.43816 0.76835 0.0
H1726 H 0.72804 0.43778 0.79777 0.0
H1727 H 0.75486 0.43575 0.81767 0.0
C1728 C 0.72616 0.44435 0.91363 0.0
C1729 C 0.74132 0.44987 0.94101 0.0
C1730 C 0.72828 0.45296 0.87797 0.0
C1731 C 0.74588 0.46672 0.86914 0.0
C1732 C 0.76166 0.47108 0.89619 0.0
H1733 H 0.76514 0.51871 0.64626 0.0
H1734 H 0.7705 0.49987 0.70513 0.0
C1735 C 0.75929 0.46291 0.93186 0.0
C1736 C 0.74662 0.47867 0.83347 0.0
H1737 H 0.74329 0.4726 0.73997 0.0
C1738 C 0.74832 0.5015 0.83458 0.0
C1739 C 0.74549 0.46807 0.79885 0.0
C1740 C 0.74511 0.44358 0.79552 0.0
C1741 C 0.74843 0.51403 0.80223 0.0
C1742 C 0.74601 0.50353 0.76774 0.0
C1743 C 0.74491 0.48067 0.76645 0.0
C1744 C 0.74377 0.51601 0.73285 0.0
C1745 C 0.75134 0.53838 0.80546 0.0
C1746 C 0.72709 0.53148 0.72895 0.0
C1747 C 0.72418 0.54249 0.69561 0.0
C1748 C 0.73763 0.53795 0.66511 0.0
C1749 C 0.75453 0.52265 0.6692 0.0
C1750 C 0.75756 0.51178 0.70277 0.0
H1751 H 0.76025 0.54277 0.8311 0.0
H1752 H 0.76037 0.54511 0.78147 0.0
H1753 H 0.7351 0.54627 0.80671 0.0
H1754 H 0.7159 0.53463 0.75143 0.0
H1755 H 0.71087 0.554 0.69341 0.0
H1756 H 0.51762 0.23677 0.35447 0.0
H1757 H 0.49656 0.23018 0.29771 0.0
H1758 H 0.51868 0.29161 0.25372 0.0
H1759 H 0.53941 0.29833 0.30978 0.0
H1760 H 0.47286 0.28562 0.25073 0.0
H1761 H 0.51861 0.21522 0.19224 0.0
H1762 H 0.50933 0.21327 0.23926 0.0
H1763 H 0.5301 0.23259 0.22742 0.0
C1764 C 0.51824 0.24866 0.3324 0.0
C1765 C 0.5301 0.26812 0.33671 0.0
C1766 C 0.50617 0.24491 0.30006 0.0
C1767 C 0.506 0.26047 0.27156 0.0
C1768 C 0.51842 0.27948 0.27546 0.0
H1769 H 0.48694 0.27234 0.04588 0.0
H1770 H 0.49722 0.26739 0.10999 0.0
C1771 C 0.53032 0.28325 0.30755 0.0
C1772 C 0.49263 0.2577 0.23774 0.0
H1773 H 0.49113 0.23059 0.15553 0.0
C1774 C 0.47652 0.27333 0.23012 0.0
C1775 C 0.4975 0.24168 0.21099 0.0
C1776 C 0.51488 0.22474 0.21754 0.0
C1777 C 0.46603 0.27415 0.19568 0.0
C1778 C 0.47161 0.25873 0.1683 0.0
C1779 C 0.48683 0.24234 0.17667 0.0
C1780 C 0.46447 0.26127 0.12937 0.0
C1781 C 0.45016 0.29236 0.18799 0.0
C1782 C 0.44249 0.2596 0.1188 0.0
C1783 C 0.43642 0.26254 0.08173 0.0
C1784 C 0.45228 0.26708 0.05472 0.0
C1785 C 0.47422 0.26877 0.06572 0.0
C1786 C 0.4802 0.26587 0.10247 0.0
H1787 H 0.44982 0.30463 0.21052 0.0
H1788 H 0.4544 0.30072 0.16176 0.0
H1789 H 0.43353 0.28551 0.18496 0.0
H1790 H 0.43009 0.25588 0.13911 0.0
H1791 H 0.41941 0.26102 0.07419 0.0
H1792 H 0.43955 0.20057 0.98159 0.0
H1793 H 0.42003 0.1673 0.99959 0.0
H1794 H 0.36203 0.19131 0.94619 0.0
H1795 H 0.38136 0.22418 0.92773 0.0
H1796 H 0.38475 0.16597 0.04518 0.0
H1797 H 0.36239 0.1288 0.9118 0.0
H1798 H 0.38314 0.14954 0.91561 0.0
H1799 H 0.35478 0.15698 0.91315 0.0
C1800 C 0.42283 0.19846 0.97278 0.0
C1801 C 0.41205 0.21508 0.95319 0.0
C1802 C 0.41164 0.17949 0.98329 0.0
C1803 C 0.38959 0.17664 0.97395 0.0
C1804 C 0.37913 0.19282 0.95309 0.0
H1805 H 0.28041 0.12256 0.08017 0.0
H1806 H 0.31326 0.14222 0.06256 0.0
C1807 C 0.39022 0.21174 0.94273 0.0
C1808 C 0.37671 0.15802 0.98887 0.0
H1809 H 0.33927 0.11959 0.96379 0.0
C1810 C 0.37514 0.15552 0.02734 0.0
C1811 C 0.3644 0.14409 0.96576 0.0
C1812 C 0.36644 0.14483 0.92429 0.0
C1813 C 0.36055 0.14054 0.04324 0.0
C1814 C 0.34687 0.12796 0.0201 0.0
C1815 C 0.34952 0.12939 0.98165 0.0
C1816 C 0.32836 0.11486 0.0349 0.0
C1817 C 0.35966 0.13866 0.08472 0.0
C1818 C 0.32579 0.0928 0.02541 0.0
C1819 C 0.30683 0.08143 0.03541 0.0
C1820 C 0.28996 0.09203 0.05466 0.0
C1821 C 0.29306 0.11384 0.06544 0.0
C1822 C 0.31196 0.12512 0.05556 0.0
H1823 H 0.3756 0.14292 0.09735 0.0
H1824 H 0.34736 0.15025 0.09557 0.0
H1825 H 0.35508 0.12195 0.09355 0.0
H1826 H 0.33815 0.08456 0.00928 0.0
H1827 H 0.30494 0.06473 0.02636 0.0
H1828 H 0.20893 0.57036 0.00584 0.0
H1829 H 0.1778 0.59284 0.98703 0.0
H1830 H 0.1918 0.63789 0.07525 0.0
H1831 H 0.2235 0.61609 0.09286 0.0
H1832 H 0.1405 0.60967 0.01442 0.0
H1833 H 0.19876 0.67657 0.987 0.0
H1834 H 0.20758 0.64944 0.99869 0.0
H1835 H 0.19931 0.66816 0.03436 0.0
C1836 C 0.20499 0.58476 0.0218 0.0
C1837 C 0.21871 0.5916 0.05063 0.0
C1838 C 0.18725 0.59767 0.01091 0.0
C1839 C 0.18285 0.61746 0.02895 0.0
C1840 C 0.19529 0.6231 0.06008 0.0
H1841 H 0.07272 0.70519 0.99836 0.0
H1842 H 0.09549 0.674 0.0151 0.0
C1843 C 0.21326 0.61051 0.07041 0.0
C1844 C 0.16662 0.63308 0.0135 0.0
H1845 H 0.1613 0.68566 0.98417 0.0
C1846 C 0.14504 0.62626 0.0076 0.0
C1847 C 0.17262 0.6546 0.00359 0.0
C1848 C 0.19587 0.66256 0.00583 0.0
C1849 C 0.12923 0.64052 0.99298 0.0
C1850 C 0.135 0.66239 0.985 0.0
C1851 C 0.15669 0.66899 0.99037 0.0
C1852 C 0.11911 0.67902 0.97144 0.0
C1853 C 0.10668 0.63181 0.98555 0.0
C1854 C 0.12456 0.69234 0.9412 0.0
C1855 C 0.11188 0.71051 0.93229 0.0
C1856 C 0.09317 0.71553 0.95289 0.0
C1857 C 0.08683 0.70144 0.98154 0.0
C1858 C 0.09984 0.68352 0.99106 0.0
H1859 H 0.10699 0.61393 0.98071 0.0
H1860 H 0.09623 0.63485 0.01 0.0
H1861 H 0.09916 0.63982 0.96121 0.0
H1862 H 0.13926 0.68927 0.92548 0.0
H1863 H 0.11719 0.72117 0.9102 0.0
H1864 H 0.72677 0.88219 0.07592 0.0
H1865 H 0.69426 0.86233 0.05716 0.0
H1866 H 0.66834 0.92065 0.00742 0.0
H1867 H 0.70127 0.94068 0.02545 0.0
H1868 H 0.65034 0.86622 0.06868 0.0
H1869 H 0.67046 0.87867 0.92038 0.0
H1870 H 0.68929 0.88536 0.95685 0.0
H1871 H 0.66663 0.90298 0.94721 0.0
C1872 C 0.71406 0.89096 0.06145 0.0
C1873 C 0.71682 0.91301 0.0518 0.0
C1874 C 0.69541 0.87954 0.05076 0.0
C1875 C 0.67903 0.88983 0.03012 0.0
C1876 C 0.68098 0.91222 0.0226 0.0
H1877 H 0.56672 0.80442 0.97599 0.0
H1878 H 0.58629 0.83757 0.99446 0.0
C1879 C 0.69973 0.92372 0.03329 0.0
C1880 C 0.66087 0.87649 0.01479 0.0
H1881 H 0.64083 0.85596 0.93387 0.0
C1882 C 0.64799 0.86422 0.0392 0.0
C1883 C 0.65798 0.8737 0.97627 0.0
C1884 C 0.67189 0.8857 0.94853 0.0
C1885 C 0.63297 0.84867 0.02628 0.0
C1886 C 0.63041 0.84557 0.98776 0.0
C1887 C 0.64265 0.85847 0.96334 0.0
C1888 C 0.61738 0.82717 0.97246 0.0
C1889 C 0.62096 0.83478 0.05402 0.0
C1890 C 0.62799 0.81086 0.95215 0.0
C1891 C 0.61685 0.7921 0.94124 0.0
C1892 C 0.59474 0.78914 0.95031 0.0
C1893 C 0.58372 0.80612 0.96859 0.0
C1894 C 0.59496 0.82499 0.97953 0.0
H1895 H 0.6278 0.83645 0.08227 0.0
H1896 H 0.60362 0.83983 0.05493 0.0
H1897 H 0.62158 0.81733 0.04599 0.0
H1898 H 0.64523 0.81218 0.94611 0.0
H1899 H 0.62585 0.77948 0.92695 0.0
H1900 H 0.77875 0.3797 0.06946 0.0
H1901 H 0.81211 0.36042 0.05345 0.0
H1902 H 0.83838 0.41914 0.00555 0.0
H1903 H 0.80472 0.43862 0.02112 0.0
H1904 H 0.84057 0.3845 0.95823 0.0
H1905 H 0.87362 0.3598 0.09366 0.0
H1906 H 0.84542 0.3526 0.0894 0.0
H1907 H 0.85327 0.38088 0.08891 0.0
C1908 C 0.79178 0.38871 0.05625 0.0
C1909 C 0.78899 0.41074 0.04656 0.0
C1910 C 0.81096 0.37765 0.0473 0.0
C1911 C 0.82792 0.38834 0.02863 0.0
C1912 C 0.82558 0.41057 0.02017 0.0
H1913 H 0.94103 0.30428 0.98095 0.0
H1914 H 0.9209 0.33738 0.99781 0.0
C1915 C 0.80637 0.42173 0.0293 0.0
C1916 C 0.84687 0.37559 0.01477 0.0
H1917 H 0.88445 0.33768 0.04142 0.0
C1918 C 0.85047 0.3746 0.9765 0.0
C1919 C 0.86007 0.36288 0.0385 0.0
C1920 C 0.85806 0.36426 0.07993 0.0
C1921 C 0.86585 0.3602 0.96126 0.0
C1922 C 0.87773 0.34617 0.98484 0.0
C1923 C 0.8752 0.34823 0.02323 0.0
C1924 C 0.89109 0.32781 0.97035 0.0
C1925 C 0.86886 0.35985 0.91994 0.0
C1926 C 0.8812 0.3116 0.94877 0.0
C1927 C 0.89263 0.29277 0.9391 0.0
C1928 C 0.91423 0.28959 0.95093 0.0
C1929 C 0.9245 0.30629 0.97108 0.0
C1930 C 0.91297 0.32516 0.98094 0.0
H1931 H 0.86485 0.37591 0.90753 0.0
H1932 H 0.88582 0.35546 0.91232 0.0
H1933 H 0.85768 0.34759 0.90778 0.0
H1934 H 0.86425 0.31299 0.94088 0.0
H1935 H 0.88418 0.28025 0.92365 0.0
H1936 H 0.72346 0.12452 0.57671 0.0
H1937 H 0.69065 0.14414 0.55891 0.0
H1938 H 0.66616 0.08661 0.50469 0.0
H1939 H 0.69936 0.06679 0.52204 0.0
H1940 H 0.66512 0.12214 0.45966 0.0
H1941 H 0.62814 0.14411 0.59339 0.0
H1942 H 0.65639 0.15147 0.59219 0.0
H1943 H 0.64869 0.12319 0.58925 0.0
C1944 C 0.71092 0.11583 0.5617 0.0
C1945 C 0.7141 0.09405 0.55079 0.0
C1946 C 0.69203 0.12707 0.55172 0.0
C1947 C 0.67574 0.11684 0.53079 0.0
C1948 C 0.67843 0.09482 0.52106 0.0
H1949 H 0.56518 0.20347 0.47928 0.0
H1950 H 0.58434 0.16978 0.49596 0.0
C1951 C 0.69736 0.08347 0.5312 0.0
C1952 C 0.65724 0.12994 0.5161 0.0
H1953 H 0.61929 0.16772 0.54179 0.0
C1954 C 0.65478 0.13176 0.47766 0.0
C1955 C 0.64344 0.14228 0.53941 0.0
C1956 C 0.64413 0.13999 0.58085 0.0
C1957 C 0.64002 0.14665 0.462 0.0
C1958 C 0.62762 0.16036 0.48536 0.0
C1959 C 0.62896 0.15744 0.52377 0.0
C1960 C 0.61492 0.17921 0.47087 0.0
C1961 C 0.6382 0.14783 0.42053 0.0
C1962 C 0.62556 0.19558 0.45069 0.0
C1963 C 0.61468 0.21474 0.44108 0.0
C1964 C 0.59288 0.21814 0.45162 0.0
C1965 C 0.58189 0.20133 0.47042 0.0
C1966 C 0.59287 0.18211 0.48018 0.0
H1967 H 0.64221 0.13191 0.40763 0.0
H1968 H 0.62158 0.15274 0.41176 0.0
H1969 H 0.65 0.16002 0.40993 0.0
H1970 H 0.64267 0.19402 0.44385 0.0
H1971 H 0.62369 0.22733 0.42668 0.0
H1972 H 0.12369 0.27728 0.42752 0.0
H1973 H 0.1435 0.30976 0.44661 0.0
H1974 H 0.08528 0.33519 0.49736 0.0
H1975 H 0.0653 0.3023 0.47895 0.0
H1976 H 0.13911 0.35385 0.43567 0.0
H1977 H 0.12788 0.33265 0.58382 0.0
H1978 H 0.12118 0.31397 0.54712 0.0
H1979 H 0.10337 0.33636 0.55747 0.0
C1980 C 0.11493 0.28988 0.44227 0.0
C1981 C 0.09293 0.287 0.45207 0.0
C1982 C 0.12632 0.3085 0.45316 0.0
C1983 C 0.11604 0.32473 0.47416 0.0
C1984 C 0.09369 0.32266 0.48188 0.0
H1985 H 0.19964 0.43811 0.52786 0.0
H1986 H 0.1668 0.41782 0.51037 0.0
C1987 C 0.08222 0.30395 0.47097 0.0
C1988 C 0.12934 0.34288 0.48957 0.0
H1989 H 0.15018 0.36265 0.57045 0.0
C1990 C 0.14129 0.35604 0.46515 0.0
C1991 C 0.13236 0.34553 0.52808 0.0
C1992 C 0.12069 0.33132 0.55577 0.0
C1993 C 0.15672 0.37117 0.47804 0.0
C1994 C 0.16003 0.37354 0.51654 0.0
C1995 C 0.1475 0.36096 0.541 0.0
C1996 C 0.17821 0.38692 0.53168 0.0
C1997 C 0.17026 0.38353 0.45024 0.0
C1998 C 0.19498 0.37663 0.5514 0.0
C1999 C 0.2136 0.38819 0.5618 0.0
C2000 C 0.21592 0.41038 0.55276 0.0
C2001 C 0.19845 0.42104 0.53521 0.0
C2002 C 0.17974 0.40941 0.52482 0.0
H2003 H 0.16859 0.37675 0.42195 0.0
H2004 H 0.16487 0.40077 0.44954 0.0
H2005 H 0.18775 0.38323 0.45804 0.0
H2006 H 0.19414 0.35934 0.55727 0.0
H2007 H 0.22661 0.37944 0.57552 0.0
H2008 H 0.39378 0.78755 0.40562 0.0
H2009 H 0.37282 0.81994 0.42225 0.0
H2010 H 0.4144 0.82987 0.51681 0.0
H2011 H 0.43609 0.79808 0.49895 0.0
H2012 H 0.34938 0.82171 0.48041 0.0
H2013 H 0.40582 0.89176 0.48757 0.0
H2014 H 0.4132 0.86642 0.46562 0.0
H2015 H 0.41517 0.86931 0.51499 0.0
C2016 C 0.39894 0.79718 0.42911 0.0
C2017 C 0.41666 0.79044 0.45079 0.0
C2018 C 0.38688 0.81563 0.43878 0.0
C2019 C 0.39195 0.82753 0.47082 0.0
C2020 C 0.41038 0.82143 0.49149 0.0
H2021 H 0.28786 0.88922 0.59389 0.0
H2022 H 0.31939 0.86754 0.57514 0.0
C2023 C 0.4228 0.80319 0.48129 0.0
C2024 C 0.37624 0.84415 0.48497 0.0
H2025 H 0.37147 0.89604 0.51872 0.0
C2026 C 0.35428 0.83802 0.48839 0.0
C2027 C 0.38243 0.86555 0.49532 0.0
C2028 C 0.4054 0.87373 0.49033 0.0
C2029 C 0.33847 0.85241 0.50202 0.0
C2030 C 0.3448 0.87342 0.51411 0.0
C2031 C 0.36667 0.87982 0.51013 0.0
C2032 C 0.32865 0.88887 0.53022 0.0
C2033 C 0.315 0.84501 0.50253 0.0
C2034 C 0.32439 0.909 0.51317 0.0
C2035 C 0.30664 0.92177 0.52455 0.0
C2036 C 0.29281 0.91447 0.55294 0.0
C2037 C 0.29815 0.89517 0.57176 0.0
C2038 C 0.31605 0.88267 0.56085 0.0
H2039 H 0.3121 0.83152 0.48267 0.0
H2040 H 0.31088 0.8389 0.53051 0.0
H2041 H 0.30377 0.8586 0.49568 0.0
H2042 H 0.33396 0.91423 0.48966 0.0
H2043 H 0.30284 0.93649 0.50935 0.0
H2044 H 0.88283 0.7293 0.43235 0.0
H2045 H 0.86264 0.69763 0.45442 0.0
H2046 H 0.92055 0.67304 0.50713 0.0
H2047 H 0.94106 0.70488 0.48518 0.0
H2048 H 0.89205 0.64033 0.46864 0.0
H2049 H 0.84836 0.69326 0.56819 0.0
H2050 H 0.84836 0.70332 0.52159 0.0
H2051 H 0.87362 0.70123 0.54641 0.0
C2052 C 0.89146 0.717 0.44804 0.0
C2053 C 0.91357 0.71979 0.45724 0.0
C2054 C 0.87983 0.69894 0.4608 0.0
C2055 C 0.88998 0.68324 0.48306 0.0
C2056 C 0.91238 0.68509 0.49022 0.0
H2057 H 0.79774 0.59737 0.60132 0.0
H2058 H 0.83188 0.61779 0.59096 0.0
C2059 C 0.9241 0.70324 0.47744 0.0
C2060 C 0.87668 0.66573 0.50023 0.0
H2061 H 0.83276 0.65824 0.55672 0.0
C2062 C 0.87932 0.64413 0.48837 0.0
C2063 C 0.86039 0.67061 0.5266 0.0
C2064 C 0.85758 0.69332 0.54179 0.0
C2065 C 0.86506 0.62759 0.50029 0.0
C2066 C 0.84764 0.63285 0.52436 0.0
C2067 C 0.84602 0.65415 0.53818 0.0
C2068 C 0.82925 0.61758 0.53133 0.0
C2069 C 0.86844 0.60472 0.48623 0.0
C2070 C 0.81663 0.6105 0.5014 0.0
C2071 C 0.79727 0.59915 0.50729 0.0
C2072 C 0.79005 0.59448 0.54326 0.0
C2073 C 0.80312 0.60055 0.57335 0.0
C2074 C 0.82252 0.61226 0.56742 0.0
H2075 H 0.88587 0.60169 0.47971 0.0
H2076 H 0.86288 0.59243 0.50666 0.0
H2077 H 0.85898 0.60248 0.46041 0.0
H2078 H 0.82111 0.61479 0.47341 0.0
H2079 H 0.78745 0.5947 0.4836 0.0
loop_
_geom_bond_atom_site_label_1
_geom_bond_atom_site_label_2
_geom_bond_distance
_geom_bond_site_symmetry_2
_ccdc_geom_bond_type
Fe0 O2 1.918 . S
Fe0 O5 1.997 . S
Fe0 O6 2.002 . S
Fe0 O11 1.976 . S
Fe0 O14 1.996 . S
Fe1 O2 1.918 . S
Fe1 O9 1.997 . S
Fe1 O12 1.996 . S
Fe1 O16 1.976 . S
Fe1 O19 2.002 1_554 S
O2 Fe0 1.918 . S
O2 Fe1 1.918 . S
O2 Fe3 1.918 . S
Fe3 O2 1.918 . S
Fe3 O4 2.002 . S
Fe3 O13 1.976 . S
Fe3 O17 1.996 . S
Fe3 O20 1.997 1_554 S
O4 Fe3 2.002 . S
O4 C21 1.295 . S
O5 Fe0 1.997 . S
O5 C21 1.235 . S
O6 Fe0 2.002 . S
O6 C7 1.295 . S
C7 O6 1.295 . S
C7 O9 1.235 . S
C8 O13 1.287 . S
C8 O14 1.255 . S
O9 Fe1 1.997 . S
O9 C7 1.235 . S
C10 O16 1.287 . S
C10 O17 1.255 . S
O11 Fe0 1.976 . S
O11 C18 1.287 . S
O12 Fe1 1.996 . S
O12 C18 1.255 . S
O13 Fe3 1.976 . S
O13 C8 1.287 . S
O14 Fe0 1.996 . S
O14 C8 1.255 . S
C15 O19 1.295 . S
C15 O20 1.235 . S
O16 Fe1 1.976 . S
O16 C10 1.287 . S
O17 Fe3 1.996 . S
O17 C10 1.255 . S
C18 O11 1.287 . S
C18 O12 1.255 . S
O19 Fe1 2.002 1_556 S
O19 C15 1.295 . S
O20 Fe3 1.997 1_556 S
O20 C15 1.235 . S
C21 O4 1.295 . S
C21 O5 1.235 . S
Fe22 O24 1.918 . S
Fe22 O27 1.997 . S
Fe22 O28 2.002 1_556 S
Fe22 O33 1.976 . S
Fe22 O36 1.996 . S
Fe23 O24 1.918 . S
Fe23 O31 1.997 1_556 S
Fe23 O34 1.996 . S
Fe23 O38 1.976 . S
Fe23 O41 2.002 . S
O24 Fe22 1.918 . S
O24 Fe23 1.918 . S
O24 Fe25 1.918 . S
Fe25 O24 1.918 . S
Fe25 O26 2.002 . S
Fe25 O35 1.976 . S
Fe25 O39 1.996 . S
Fe25 O42 1.997 . S
O26 Fe25 2.002 . S
O26 C43 1.295 . S
O27 Fe22 1.997 . S
O27 C43 1.235 . S
O28 Fe22 2.002 1_554 S
O28 C29 1.295 . S
C29 O28 1.295 . S
C29 O31 1.235 . S
C30 O35 1.287 . S
C30 O36 1.255 . S
O31 Fe23 1.997 1_554 S
O31 C29 1.235 . S
C32 O38 1.287 . S
C32 O39 1.255 . S
O33 Fe22 1.976 . S
O33 C40 1.287 . S
O34 Fe23 1.996 . S
O34 C40 1.255 . S
O35 Fe25 1.976 . S
O35 C30 1.287 . S
O36 Fe22 1.996 . S
O36 C30 1.255 . S
C37 O41 1.295 . S
C37 O42 1.235 . S
O38 Fe23 1.976 . S
O38 C32 1.287 . S
O39 Fe25 1.996 . S
O39 C32 1.255 . S
C40 O33 1.287 . S
C40 O34 1.255 . S
O41 Fe23 2.002 . S
O41 C37 1.295 . S
O42 Fe25 1.997 . S
O42 C37 1.235 . S
C43 O26 1.295 . S
C43 O27 1.235 . S
Fe44 O46 1.918 . S
Fe44 O49 1.997 1_554 S
Fe44 O50 2.002 . S
Fe44 O55 1.976 . S
Fe44 O58 1.996 . S
Fe45 O46 1.918 . S
Fe45 O53 1.997 . S
Fe45 O56 1.996 . S
Fe45 O60 1.976 . S
Fe45 O63 2.002 . S
O46 Fe44 1.918 . S
O46 Fe45 1.918 . S
O46 Fe47 1.918 . S
Fe47 O46 1.918 . S
Fe47 O48 2.002 1_554 S
Fe47 O57 1.976 . S
Fe47 O61 1.996 . S
Fe47 O64 1.997 . S
O48 Fe47 2.002 1_556 S
O48 C65 1.295 . S
O49 Fe44 1.997 1_556 S
O49 C65 1.235 . S
O50 Fe44 2.002 . S
O50 C51 1.295 . S
C51 O50 1.295 . S
C51 O53 1.235 . S
C52 O57 1.287 . S
C52 O58 1.255 . S
O53 Fe45 1.997 . S
O53 C51 1.235 . S
C54 O60 1.287 . S
C54 O61 1.255 . S
O55 Fe44 1.976 . S
O55 C62 1.287 . S
O56 Fe45 1.996 . S
O56 C62 1.255 . S
O57 Fe47 1.976 . S
O57 C52 1.287 . S
O58 Fe44 1.996 . S
O58 C52 1.255 . S
C59 O63 1.295 . S
C59 O64 1.235 . S
O60 Fe45 1.976 . S
O60 C54 1.287 . S
O61 Fe47 1.996 . S
O61 C54 1.255 . S
C62 O55 1.287 . S
C62 O56 1.255 . S
O63 Fe45 2.002 . S
O63 C59 1.295 . S
O64 Fe47 1.997 . S
O64 C59 1.235 . S
C65 O48 1.295 . S
C65 O49 1.235 . S
Fe66 O68 1.918 . S
Fe66 O71 1.997 . S
Fe66 O72 2.002 . S
Fe66 O77 1.976 . S
Fe66 O80 1.996 . S
Fe67 O68 1.918 . S
Fe67 O75 1.997 . S
Fe67 O78 1.996 . S
Fe67 O82 1.976 . S
Fe67 O85 2.002 1_556 S
O68 Fe66 1.918 . S
O68 Fe67 1.918 . S
O68 Fe69 1.918 . S
Fe69 O68 1.918 . S
Fe69 O70 2.002 . S
Fe69 O79 1.976 . S
Fe69 O83 1.996 . S
Fe69 O86 1.997 1_556 S
O70 Fe69 2.002 . S
O70 C87 1.295 . S
O71 Fe66 1.997 . S
O71 C87 1.235 . S
O72 Fe66 2.002 . S
O72 C73 1.295 . S
C73 O72 1.295 . S
C73 O75 1.235 . S
C74 O79 1.287 . S
C74 O80 1.255 . S
O75 Fe67 1.997 . S
O75 C73 1.235 . S
C76 O82 1.287 . S
C76 O83 1.255 . S
O77 Fe66 1.976 . S
O77 C84 1.287 . S
O78 Fe67 1.996 . S
O78 C84 1.255 . S
O79 Fe69 1.976 . S
O79 C74 1.287 . S
O80 Fe66 1.996 . S
O80 C74 1.255 . S
C81 O85 1.295 . S
C81 O86 1.235 . S
O82 Fe67 1.976 . S
O82 C76 1.287 . S
O83 Fe69 1.996 . S
O83 C76 1.255 . S
C84 O77 1.287 . S
C84 O78 1.255 . S
O85 Fe67 2.002 1_554 S
O85 C81 1.295 . S
O86 Fe69 1.997 1_554 S
O86 C81 1.235 . S
C87 O70 1.295 . S
C87 O71 1.235 . S
Fe88 O90 1.918 . S
Fe88 O93 1.997 . S
Fe88 O94 2.002 . S
Fe88 O99 1.976 . S
Fe88 O102 1.996 . S
Fe89 O90 1.918 . S
Fe89 O97 1.997 . S
Fe89 O100 1.996 . S
Fe89 O104 1.976 . S
Fe89 O107 2.002 . S
O90 Fe88 1.918 . S
O90 Fe89 1.918 . S
O90 Fe91 1.918 . S
Fe91 O90 1.918 . S
Fe91 O92 2.002 . S
Fe91 O101 1.976 . S
Fe91 O105 1.996 . S
Fe91 O108 1.997 . S
O92 Fe91 2.002 . S
O92 C109 1.295 . S
O93 Fe88 1.997 . S
O93 C109 1.235 . S
O94 Fe88 2.002 . S
O94 C95 1.295 . S
C95 O94 1.295 . S
C95 O97 1.235 . S
C96 O101 1.287 . S
C96 O102 1.255 . S
O97 Fe89 1.997 . S
O97 C95 1.235 . S
C98 O104 1.287 . S
C98 O105 1.255 . S
O99 Fe88 1.976 . S
O99 C106 1.287 . S
O100 Fe89 1.996 . S
O100 C106 1.255 . S
O101 Fe91 1.976 . S
O101 C96 1.287 . S
O102 Fe88 1.996 . S
O102 C96 1.255 . S
C103 O107 1.295 . S
C103 O108 1.235 . S
O104 Fe89 1.976 . S
O104 C98 1.287 . S
O105 Fe91 1.996 . S
O105 C98 1.255 . S
C106 O99 1.287 . S
C106 O100 1.255 . S
O107 Fe89 2.002 . S
O107 C103 1.295 . S
O108 Fe91 1.997 . S
O108 C103 1.235 . S
C109 O92 1.295 . S
C109 O93 1.235 . S
Fe110 O112 1.918 . S
Fe110 O115 1.997 . S
Fe110 O116 2.002 . S
Fe110 O121 1.976 . S
Fe110 O124 1.996 . S
Fe111 O112 1.918 . S
Fe111 O119 1.997 . S
Fe111 O122 1.996 . S
Fe111 O126 1.976 . S
Fe111 O129 2.002 . S
O112 Fe110 1.918 . S
O112 Fe111 1.918 . S
O112 Fe113 1.918 . S
Fe113 O112 1.918 . S
Fe113 O114 2.002 . S
Fe113 O123 1.976 . S
Fe113 O127 1.996 . S
Fe113 O130 1.997 . S
O114 Fe113 2.002 . S
O114 C131 1.295 . S
O115 Fe110 1.997 . S
O115 C131 1.235 . S
O116 Fe110 2.002 . S
O116 C117 1.295 . S
C117 O116 1.295 . S
C117 O119 1.235 . S
C118 O123 1.287 . S
C118 O124 1.255 . S
O119 Fe111 1.997 . S
O119 C117 1.235 . S
C120 O126 1.287 . S
C120 O127 1.255 . S
O121 Fe110 1.976 . S
O121 C128 1.287 . S
O122 Fe111 1.996 . S
O122 C128 1.255 . S
O123 Fe113 1.976 . S
O123 C118 1.287 . S
O124 Fe110 1.996 . S
O124 C118 1.255 . S
C125 O129 1.295 . S
C125 O130 1.235 . S
O126 Fe111 1.976 . S
O126 C120 1.287 . S
O127 Fe113 1.996 . S
O127 C120 1.255 . S
C128 O121 1.287 . S
C128 O122 1.255 . S
O129 Fe111 2.002 . S
O129 C125 1.295 . S
O130 Fe113 1.997 . S
O130 C125 1.235 . S
C131 O114 1.295 . S
C131 O115 1.235 . S
Fe132 O134 1.918 . S
Fe132 O137 1.997 . S
Fe132 O138 2.002 . S
Fe132 O143 1.976 . S
Fe132 O146 1.996 . S
Fe133 O134 1.918 . S
Fe133 O141 1.997 . S
Fe133 O144 1.996 . S
Fe133 O148 1.976 . S
Fe133 O151 2.002 . S
O134 Fe132 1.918 . S
O134 Fe133 1.918 . S
O134 Fe135 1.918 . S
Fe135 O134 1.918 . S
Fe135 O136 2.002 . S
Fe135 O145 1.976 . S
Fe135 O149 1.996 . S
Fe135 O152 1.997 . S
O136 Fe135 2.002 . S
O136 C153 1.295 . S
O137 Fe132 1.997 . S
O137 C153 1.235 . S
O138 Fe132 2.002 . S
O138 C139 1.295 . S
C139 O138 1.295 . S
C139 O141 1.235 . S
C140 O145 1.287 . S
C140 O146 1.255 . S
O141 Fe133 1.997 . S
O141 C139 1.235 . S
C142 O148 1.287 . S
C142 O149 1.255 . S
O143 Fe132 1.976 . S
O143 C150 1.287 . S
O144 Fe133 1.996 . S
O144 C150 1.255 . S
O145 Fe135 1.976 . S
O145 C140 1.287 . S
O146 Fe132 1.996 . S
O146 C140 1.255 . S
C147 O151 1.295 . S
C147 O152 1.235 . S
O148 Fe133 1.976 . S
O148 C142 1.287 . S
O149 Fe135 1.996 . S
O149 C142 1.255 . S
C150 O143 1.287 . S
C150 O144 1.255 . S
O151 Fe133 2.002 . S
O151 C147 1.295 . S
O152 Fe135 1.997 . S
O152 C147 1.235 . S
C153 O136 1.295 . S
C153 O137 1.235 . S
Fe154 O156 1.918 . S
Fe154 O159 1.997 . S
Fe154 O160 2.002 . S
Fe154 O165 1.976 . S
Fe154 O168 1.996 . S
Fe155 O156 1.918 . S
Fe155 O163 1.997 . S
Fe155 O166 1.996 . S
Fe155 O170 1.976 . S
Fe155 O173 2.002 . S
O156 Fe154 1.918 . S
O156 Fe155 1.918 . S
O156 Fe157 1.918 . S
Fe157 O156 1.918 . S
Fe157 O158 2.002 . S
Fe157 O167 1.976 . S
Fe157 O171 1.996 . S
Fe157 O174 1.997 . S
O158 Fe157 2.002 . S
O158 C175 1.295 . S
O159 Fe154 1.997 . S
O159 C175 1.235 . S
O160 Fe154 2.002 . S
O160 C161 1.295 . S
C161 O160 1.295 . S
C161 O163 1.235 . S
C162 O167 1.287 . S
C162 O168 1.255 . S
O163 Fe155 1.997 . S
O163 C161 1.235 . S
C164 O170 1.287 . S
C164 O171 1.255 . S
O165 Fe154 1.976 . S
O165 C172 1.287 . S
O166 Fe155 1.996 . S
O166 C172 1.255 . S
O167 Fe157 1.976 . S
O167 C162 1.287 . S
O168 Fe154 1.996 . S
O168 C162 1.255 . S
C169 O173 1.295 . S
C169 O174 1.235 . S
O170 Fe155 1.976 . S
O170 C164 1.287 . S
O171 Fe157 1.996 . S
O171 C164 1.255 . S
C172 O165 1.287 . S
C172 O166 1.255 . S
O173 Fe155 2.002 . S
O173 C169 1.295 . S
O174 Fe157 1.997 . S
O174 C169 1.235 . S
C175 O158 1.295 . S
C175 O159 1.235 . S
Fe176 O178 1.918 . S
Fe176 O181 1.997 . S
Fe176 O182 2.002 . S
Fe176 O187 1.976 . S
Fe176 O190 1.996 . S
Fe177 O178 1.918 . S
Fe177 O185 1.997 . S
Fe177 O188 1.996 . S
Fe177 O192 1.976 . S
Fe177 O195 2.002 . S
O178 Fe176 1.918 . S
O178 Fe177 1.918 . S
O178 Fe179 1.918 . S
Fe179 O178 1.918 . S
Fe179 O180 2.002 . S
Fe179 O189 1.976 . S
Fe179 O193 1.996 . S
Fe179 O196 1.997 . S
O180 Fe179 2.002 . S
O180 C197 1.295 . S
O181 Fe176 1.997 . S
O181 C197 1.235 . S
O182 Fe176 2.002 . S
O182 C183 1.295 . S
C183 O182 1.295 . S
C183 O185 1.235 . S
C184 O189 1.287 . S
C184 O190 1.255 . S
O185 Fe177 1.997 . S
O185 C183 1.235 . S
C186 O192 1.287 . S
C186 O193 1.255 . S
O187 Fe176 1.976 . S
O187 C194 1.287 . S
O188 Fe177 1.996 . S
O188 C194 1.255 . S
O189 Fe179 1.976 . S
O189 C184 1.287 . S
O190 Fe176 1.996 . S
O190 C184 1.255 . S
C191 O195 1.295 . S
C191 O196 1.235 . S
O192 Fe177 1.976 . S
O192 C186 1.287 . S
O193 Fe179 1.996 . S
O193 C186 1.255 . S
C194 O187 1.287 . S
C194 O188 1.255 . S
O195 Fe177 2.002 . S
O195 C191 1.295 . S
O196 Fe179 1.997 . S
O196 C191 1.235 . S
C197 O180 1.295 . S
C197 O181 1.235 . S
Fe198 O200 1.918 . S
Fe198 O203 1.997 . S
Fe198 O204 2.002 . S
Fe198 O209 1.976 . S
Fe198 O212 1.996 . S
Fe199 O200 1.918 . S
Fe199 O207 1.997 . S
Fe199 O210 1.996 . S
Fe199 O214 1.976 . S
Fe199 O217 2.002 . S
O200 Fe198 1.918 . S
O200 Fe199 1.918 . S
O200 Fe201 1.918 . S
Fe201 O200 1.918 . S
Fe201 O202 2.002 . S
Fe201 O211 1.976 . S
Fe201 O215 1.996 . S
Fe201 O218 1.997 . S
O202 Fe201 2.002 . S
O202 C219 1.295 . S
O203 Fe198 1.997 . S
O203 C219 1.235 . S
O204 Fe198 2.002 . S
O204 C205 1.295 . S
C205 O204 1.295 . S
C205 O207 1.235 . S
C206 O211 1.287 . S
C206 O212 1.255 . S
O207 Fe199 1.997 . S
O207 C205 1.235 . S
C208 O214 1.287 . S
C208 O215 1.255 . S
O209 Fe198 1.976 . S
O209 C216 1.287 . S
O210 Fe199 1.996 . S
O210 C216 1.255 . S
O211 Fe201 1.976 . S
O211 C206 1.287 . S
O212 Fe198 1.996 . S
O212 C206 1.255 . S
C213 O217 1.295 . S
C213 O218 1.235 . S
O214 Fe199 1.976 . S
O214 C208 1.287 . S
O215 Fe201 1.996 . S
O215 C208 1.255 . S
C216 O209 1.287 . S
C216 O210 1.255 . S
O217 Fe199 2.002 . S
O217 C213 1.295 . S
O218 Fe201 1.997 . S
O218 C213 1.235 . S
C219 O202 1.295 . S
C219 O203 1.235 . S
Fe220 O222 1.918 . S
Fe220 O225 1.997 . S
Fe220 O226 2.002 . S
Fe220 O231 1.976 . S
Fe220 O234 1.996 . S
Fe221 O222 1.918 . S
Fe221 O229 1.997 . S
Fe221 O232 1.996 . S
Fe221 O236 1.976 . S
Fe221 O239 2.002 . S
O222 Fe220 1.918 . S
O222 Fe221 1.918 . S
O222 Fe223 1.918 . S
Fe223 O222 1.918 . S
Fe223 O224 2.002 . S
Fe223 O233 1.976 . S
Fe223 O237 1.996 . S
Fe223 O240 1.997 . S
O224 Fe223 2.002 . S
O224 C241 1.295 . S
O225 Fe220 1.997 . S
O225 C241 1.235 . S
O226 Fe220 2.002 . S
O226 C227 1.295 . S
C227 O226 1.295 . S
C227 O229 1.235 . S
C228 O233 1.287 . S
C228 O234 1.255 . S
O229 Fe221 1.997 . S
O229 C227 1.235 . S
C230 O236 1.287 . S
C230 O237 1.255 . S
O231 Fe220 1.976 . S
O231 C238 1.287 . S
O232 Fe221 1.996 . S
O232 C238 1.255 . S
O233 Fe223 1.976 . S
O233 C228 1.287 . S
O234 Fe220 1.996 . S
O234 C228 1.255 . S
C235 O239 1.295 . S
C235 O240 1.235 . S
O236 Fe221 1.976 . S
O236 C230 1.287 . S
O237 Fe223 1.996 . S
O237 C230 1.255 . S
C238 O231 1.287 . S
C238 O232 1.255 . S
O239 Fe221 2.002 . S
O239 C235 1.295 . S
O240 Fe223 1.997 . S
O240 C235 1.235 . S
C241 O224 1.295 . S
C241 O225 1.235 . S
Fe242 O244 1.918 . S
Fe242 O247 1.997 . S
Fe242 O248 2.002 . S
Fe242 O253 1.976 . S
Fe242 O256 1.996 . S
Fe243 O244 1.918 . S
Fe243 O251 1.997 . S
Fe243 O254 1.996 . S
Fe243 O258 1.976 . S
Fe243 O261 2.002 . S
O244 Fe242 1.918 . S
O244 Fe243 1.918 . S
O244 Fe245 1.918 . S
Fe245 O244 1.918 . S
Fe245 O246 2.002 . S
Fe245 O255 1.976 . S
Fe245 O259 1.996 . S
Fe245 O262 1.997 . S
O246 Fe245 2.002 . S
O246 C263 1.295 . S
O247 Fe242 1.997 . S
O247 C263 1.235 . S
O248 Fe242 2.002 . S
O248 C249 1.295 . S
C249 O248 1.295 . S
C249 O251 1.235 . S
C250 O255 1.287 . S
C250 O256 1.255 . S
O251 Fe243 1.997 . S
O251 C249 1.235 . S
C252 O258 1.287 . S
C252 O259 1.255 . S
O253 Fe242 1.976 . S
O253 C260 1.287 . S
O254 Fe243 1.996 . S
O254 C260 1.255 . S
O255 Fe245 1.976 . S
O255 C250 1.287 . S
O256 Fe242 1.996 . S
O256 C250 1.255 . S
C257 O261 1.295 . S
C257 O262 1.235 . S
O258 Fe243 1.976 . S
O258 C252 1.287 . S
O259 Fe245 1.996 . S
O259 C252 1.255 . S
C260 O253 1.287 . S
C260 O254 1.255 . S
O261 Fe243 2.002 . S
O261 C257 1.295 . S
O262 Fe245 1.997 . S
O262 C257 1.235 . S
C263 O246 1.295 . S
C263 O247 1.235 . S
Fe264 O266 1.918 . S
Fe264 O269 1.997 . S
Fe264 O270 2.002 . S
Fe264 O275 1.976 . S
Fe264 O278 1.996 . S
Fe265 O266 1.918 . S
Fe265 O273 1.997 . S
Fe265 O276 1.996 . S
Fe265 O280 1.976 . S
Fe265 O283 2.002 1_554 S
O266 Fe264 1.918 . S
O266 Fe265 1.918 . S
O266 Fe267 1.918 . S
Fe267 O266 1.918 . S
Fe267 O268 2.002 . S
Fe267 O277 1.976 . S
Fe267 O281 1.996 . S
Fe267 O284 1.997 1_554 S
O268 Fe267 2.002 . S
O268 C285 1.295 . S
O269 Fe264 1.997 . S
O269 C285 1.235 . S
O270 Fe264 2.002 . S
O270 C271 1.295 . S
C271 O270 1.295 . S
C271 O273 1.235 . S
C272 O277 1.287 . S
C272 O278 1.255 . S
O273 Fe265 1.997 . S
O273 C271 1.235 . S
C274 O280 1.287 . S
C274 O281 1.255 . S
O275 Fe264 1.976 . S
O275 C282 1.287 . S
O276 Fe265 1.996 . S
O276 C282 1.255 . S
O277 Fe267 1.976 . S
O277 C272 1.287 . S
O278 Fe264 1.996 . S
O278 C272 1.255 . S
C279 O283 1.295 . S
C279 O284 1.235 . S
O280 Fe265 1.976 . S
O280 C274 1.287 . S
O281 Fe267 1.996 . S
O281 C274 1.255 . S
C282 O275 1.287 . S
C282 O276 1.255 . S
O283 Fe265 2.002 1_556 S
O283 C279 1.295 . S
O284 Fe267 1.997 1_556 S
O284 C279 1.235 . S
C285 O268 1.295 . S
C285 O269 1.235 . S
Fe286 O288 1.918 . S
Fe286 O291 1.997 . S
Fe286 O292 2.002 . S
Fe286 O297 1.976 . S
Fe286 O300 1.996 . S
Fe287 O288 1.918 . S
Fe287 O295 1.997 . S
Fe287 O298 1.996 . S
Fe287 O302 1.976 . S
Fe287 O305 2.002 1_556 S
O288 Fe286 1.918 . S
O288 Fe287 1.918 . S
O288 Fe289 1.918 . S
Fe289 O288 1.918 . S
Fe289 O290 2.002 . S
Fe289 O299 1.976 . S
Fe289 O303 1.996 . S
Fe289 O306 1.997 1_556 S
O290 Fe289 2.002 . S
O290 C307 1.295 . S
O291 Fe286 1.997 . S
O291 C307 1.235 . S
O292 Fe286 2.002 . S
O292 C293 1.295 . S
C293 O292 1.295 . S
C293 O295 1.235 . S
C294 O299 1.287 . S
C294 O300 1.255 . S
O295 Fe287 1.997 . S
O295 C293 1.235 . S
C296 O302 1.287 . S
C296 O303 1.255 . S
O297 Fe286 1.976 . S
O297 C304 1.287 . S
O298 Fe287 1.996 . S
O298 C304 1.255 . S
O299 Fe289 1.976 . S
O299 C294 1.287 . S
O300 Fe286 1.996 . S
O300 C294 1.255 . S
C301 O305 1.295 . S
C301 O306 1.235 . S
O302 Fe287 1.976 . S
O302 C296 1.287 . S
O303 Fe289 1.996 . S
O303 C296 1.255 . S
C304 O297 1.287 . S
C304 O298 1.255 . S
O305 Fe287 2.002 1_554 S
O305 C301 1.295 . S
O306 Fe289 1.997 1_554 S
O306 C301 1.235 . S
C307 O290 1.295 . S
C307 O291 1.235 . S
Fe308 O310 1.918 . S
Fe308 O313 1.997 . S
Fe308 O314 2.002 . S
Fe308 O319 1.976 . S
Fe308 O322 1.996 . S
Fe309 O310 1.918 . S
Fe309 O317 1.997 . S
Fe309 O320 1.996 . S
Fe309 O324 1.976 . S
Fe309 O327 2.002 1_554 S
O310 Fe308 1.918 . S
O310 Fe309 1.918 . S
O310 Fe311 1.918 . S
Fe311 O310 1.918 . S
Fe311 O312 2.002 . S
Fe311 O321 1.976 . S
Fe311 O325 1.996 . S
Fe311 O328 1.997 1_554 S
O312 Fe311 2.002 . S
O312 C329 1.295 . S
O313 Fe308 1.997 . S
O313 C329 1.235 . S
O314 Fe308 2.002 . S
O314 C315 1.295 . S
C315 O314 1.295 . S
C315 O317 1.235 . S
C316 O321 1.287 . S
C316 O322 1.255 . S
O317 Fe309 1.997 . S
O317 C315 1.235 . S
C318 O324 1.287 . S
C318 O325 1.255 . S
O319 Fe308 1.976 . S
O319 C326 1.287 . S
O320 Fe309 1.996 . S
O320 C326 1.255 . S
O321 Fe311 1.976 . S
O321 C316 1.287 . S
O322 Fe308 1.996 . S
O322 C316 1.255 . S
C323 O327 1.295 . S
C323 O328 1.235 . S
O324 Fe309 1.976 . S
O324 C318 1.287 . S
O325 Fe311 1.996 . S
O325 C318 1.255 . S
C326 O319 1.287 . S
C326 O320 1.255 . S
O327 Fe309 2.002 1_556 S
O327 C323 1.295 . S
O328 Fe311 1.997 1_556 S
O328 C323 1.235 . S
C329 O312 1.295 . S
C329 O313 1.235 . S
Fe330 O332 1.918 . S
Fe330 O335 1.997 . S
Fe330 O336 2.002 1_556 S
Fe330 O341 1.976 . S
Fe330 O344 1.996 . S
Fe331 O332 1.918 . S
Fe331 O339 1.997 1_556 S
Fe331 O342 1.996 . S
Fe331 O346 1.976 . S
Fe331 O349 2.002 . S
O332 Fe330 1.918 . S
O332 Fe331 1.918 . S
O332 Fe333 1.918 . S
Fe333 O332 1.918 . S
Fe333 O334 2.002 . S
Fe333 O343 1.976 . S
Fe333 O347 1.996 . S
Fe333 O350 1.997 . S
O334 Fe333 2.002 . S
O334 C351 1.295 . S
O335 Fe330 1.997 . S
O335 C351 1.235 . S
O336 Fe330 2.002 1_554 S
O336 C337 1.295 . S
C337 O336 1.295 . S
C337 O339 1.235 . S
C338 O343 1.287 . S
C338 O344 1.255 . S
O339 Fe331 1.997 1_554 S
O339 C337 1.235 . S
C340 O346 1.287 . S
C340 O347 1.255 . S
O341 Fe330 1.976 . S
O341 C348 1.287 . S
O342 Fe331 1.996 . S
O342 C348 1.255 . S
O343 Fe333 1.976 . S
O343 C338 1.287 . S
O344 Fe330 1.996 . S
O344 C338 1.255 . S
C345 O349 1.295 . S
C345 O350 1.235 . S
O346 Fe331 1.976 . S
O346 C340 1.287 . S
O347 Fe333 1.996 . S
O347 C340 1.255 . S
C348 O341 1.287 . S
C348 O342 1.255 . S
O349 Fe331 2.002 . S
O349 C345 1.295 . S
O350 Fe333 1.997 . S
O350 C345 1.235 . S
C351 O334 1.295 . S
C351 O335 1.235 . S
H352 C360 0.929 . S
H353 C362 0.930 . S
H354 C364 0.930 . S
H355 C367 0.929 . S
H356 C370 0.930 . S
H357 C372 0.960 . S
H358 C372 0.960 . S
H359 C372 0.960 . S
C360 H352 0.929 . S
C360 C361 1.377 . S
C360 C362 1.384 . S
C361 C360 1.377 . S
C361 C367 1.390 . S
C362 H353 0.930 . S
C362 C360 1.384 . S
C362 C363 1.372 . S
C363 C362 1.372 . S
C363 C364 1.400 . S
C363 C368 1.490 . S
C364 H354 0.930 . S
C364 C363 1.400 . S
C364 C367 1.386 . S
H365 C381 0.930 . S
H366 C382 0.931 . S
C367 H355 0.929 . S
C367 C361 1.390 . S
C367 C364 1.386 . S
C368 C363 1.490 . S
C368 C370 1.395 . S
C368 C371 1.403 . S
H369 C375 0.930 . S
C370 H356 0.930 . S
C370 C368 1.395 . S
C370 C373 1.403 . S
C371 C368 1.403 . S
C371 C372 1.524 . S
C371 C375 1.400 . S
C372 H357 0.960 . S
C372 H358 0.960 . S
C372 H359 0.960 . S
C372 C371 1.524 . S
C373 C370 1.403 . S
C373 C374 1.392 . S
C373 C377 1.495 . S
C374 C373 1.392 . S
C374 C375 1.385 . S
C374 C376 1.478 . S
C375 H369 0.930 . S
C375 C371 1.400 . S
C375 C374 1.385 . S
C376 C374 1.478 . S
C376 C378 1.381 . S
C376 C382 1.383 . S
C377 C373 1.495 . S
C377 H383 0.959 . S
C377 H384 0.961 . S
C377 H385 0.960 . S
C378 C376 1.381 . S
C378 C379 1.394 . S
C378 H386 0.930 . S
C379 C378 1.394 . S
C379 C380 1.383 . S
C379 H387 0.929 . S
C380 C379 1.383 . S
C380 C381 1.377 . S
C381 H365 0.930 . S
C381 C380 1.377 . S
C381 C382 1.379 . S
C382 H366 0.931 . S
C382 C376 1.383 . S
C382 C381 1.379 . S
H383 C377 0.959 . S
H384 C377 0.961 . S
H385 C377 0.960 . S
H386 C378 0.930 . S
H387 C379 0.929 . S
H388 C396 0.929 . S
H389 C398 0.930 . S
H390 C400 0.930 . S
H391 C403 0.929 . S
H392 C406 0.930 . S
H393 C408 0.960 . S
H394 C408 0.960 . S
H395 C408 0.960 . S
C396 H388 0.929 . S
C396 C397 1.377 . S
C396 C398 1.384 . S
C397 C396 1.377 . S
C397 C403 1.390 . S
C398 H389 0.930 . S
C398 C396 1.384 . S
C398 C399 1.372 . S
C399 C398 1.372 . S
C399 C400 1.400 . S
C399 C404 1.490 . S
C400 H390 0.930 . S
C400 C399 1.400 . S
C400 C403 1.386 . S
H401 C417 0.930 . S
H402 C418 0.931 . S
C403 H391 0.929 . S
C403 C397 1.390 . S
C403 C400 1.386 . S
C404 C399 1.490 . S
C404 C406 1.395 . S
C404 C407 1.403 . S
H405 C411 0.930 . S
C406 H392 0.930 . S
C406 C404 1.395 . S
C406 C409 1.403 . S
C407 C404 1.403 . S
C407 C408 1.524 . S
C407 C411 1.400 . S
C408 H393 0.960 . S
C408 H394 0.960 . S
C408 H395 0.960 . S
C408 C407 1.524 . S
C409 C406 1.403 . S
C409 C410 1.392 . S
C409 C413 1.495 . S
C410 C409 1.392 . S
C410 C411 1.385 . S
C410 C412 1.478 . S
C411 H405 0.930 . S
C411 C407 1.400 . S
C411 C410 1.385 . S
C412 C410 1.478 . S
C412 C414 1.381 . S
C412 C418 1.383 . S
C413 C409 1.495 . S
C413 H419 0.959 . S
C413 H420 0.961 . S
C413 H421 0.960 . S
C414 C412 1.381 . S
C414 C415 1.394 . S
C414 H422 0.930 . S
C415 C414 1.394 . S
C415 C416 1.383 . S
C415 H423 0.929 . S
C416 C415 1.383 . S
C416 C417 1.377 . S
C417 H401 0.930 . S
C417 C416 1.377 . S
C417 C418 1.379 . S
C418 H402 0.931 . S
C418 C412 1.383 . S
C418 C417 1.379 . S
H419 C413 0.959 . S
H420 C413 0.961 . S
H421 C413 0.960 . S
H422 C414 0.930 . S
H423 C415 0.929 . S
H424 C432 0.929 . S
H425 C434 0.930 . S
H426 C436 0.930 . S
H427 C439 0.929 . S
H428 C442 0.930 . S
H429 C444 0.960 . S
H430 C444 0.960 . S
H431 C444 0.960 . S
C432 H424 0.929 . S
C432 C433 1.377 . S
C432 C434 1.384 . S
C433 C432 1.377 . S
C433 C439 1.390 . S
C434 H425 0.930 . S
C434 C432 1.384 . S
C434 C435 1.372 . S
C435 C434 1.372 . S
C435 C436 1.400 . S
C435 C440 1.490 . S
C436 H426 0.930 . S
C436 C435 1.400 . S
C436 C439 1.386 . S
H437 C453 0.930 . S
H438 C454 0.931 . S
C439 H427 0.929 . S
C439 C433 1.390 . S
C439 C436 1.386 . S
C440 C435 1.490 . S
C440 C442 1.395 . S
C440 C443 1.403 . S
H441 C447 0.930 . S
C442 H428 0.930 . S
C442 C440 1.395 . S
C442 C445 1.403 . S
C443 C440 1.403 . S
C443 C444 1.524 . S
C443 C447 1.400 . S
C444 H429 0.960 . S
C444 H430 0.960 . S
C444 H431 0.960 . S
C444 C443 1.524 . S
C445 C442 1.403 . S
C445 C446 1.392 . S
C445 C449 1.495 . S
C446 C445 1.392 . S
C446 C447 1.385 . S
C446 C448 1.478 . S
C447 H441 0.930 . S
C447 C443 1.400 . S
C447 C446 1.385 . S
C448 C446 1.478 . S
C448 C450 1.381 . S
C448 C454 1.383 . S
C449 C445 1.495 . S
C449 H455 0.959 . S
C449 H456 0.961 . S
C449 H457 0.960 . S
C450 C448 1.381 . S
C450 C451 1.394 . S
C450 H458 0.930 . S
C451 C450 1.394 . S
C451 C452 1.383 . S
C451 H459 0.929 . S
C452 C451 1.383 . S
C452 C453 1.377 . S
C453 H437 0.930 . S
C453 C452 1.377 . S
C453 C454 1.379 . S
C454 H438 0.931 . S
C454 C448 1.383 . S
C454 C453 1.379 . S
H455 C449 0.959 . S
H456 C449 0.961 . S
H457 C449 0.960 . S
H458 C450 0.930 . S
H459 C451 0.929 . S
H460 C468 0.929 . S
H461 C470 0.930 . S
H462 C472 0.930 . S
H463 C475 0.929 . S
H464 C478 0.930 . S
H465 C480 0.960 . S
H466 C480 0.960 . S
H467 C480 0.960 . S
C468 H460 0.929 . S
C468 C469 1.377 . S
C468 C470 1.384 . S
C469 C468 1.377 . S
C469 C475 1.390 . S
C470 H461 0.930 . S
C470 C468 1.384 . S
C470 C471 1.372 . S
C471 C470 1.372 . S
C471 C472 1.400 . S
C471 C476 1.490 . S
C472 H462 0.930 . S
C472 C471 1.400 . S
C472 C475 1.386 . S
H473 C489 0.930 . S
H474 C490 0.931 . S
C475 H463 0.929 . S
C475 C469 1.390 . S
C475 C472 1.386 . S
C476 C471 1.490 . S
C476 C478 1.395 . S
C476 C479 1.403 . S
H477 C483 0.930 . S
C478 H464 0.930 . S
C478 C476 1.395 . S
C478 C481 1.403 . S
C479 C476 1.403 . S
C479 C480 1.524 . S
C479 C483 1.400 . S
C480 H465 0.960 . S
C480 H466 0.960 . S
C480 H467 0.960 . S
C480 C479 1.524 . S
C481 C478 1.403 . S
C481 C482 1.392 . S
C481 C485 1.495 . S
C482 C481 1.392 . S
C482 C483 1.385 . S
C482 C484 1.478 . S
C483 H477 0.930 . S
C483 C479 1.400 . S
C483 C482 1.385 . S
C484 C482 1.478 . S
C484 C486 1.381 . S
C484 C490 1.383 . S
C485 C481 1.495 . S
C485 H491 0.959 . S
C485 H492 0.961 . S
C485 H493 0.960 . S
C486 C484 1.381 . S
C486 C487 1.394 . S
C486 H494 0.930 . S
C487 C486 1.394 . S
C487 C488 1.383 . S
C487 H495 0.929 . S
C488 C487 1.383 . S
C488 C489 1.377 . S
C489 H473 0.930 . S
C489 C488 1.377 . S
C489 C490 1.379 . S
C490 H474 0.931 . S
C490 C484 1.383 . S
C490 C489 1.379 . S
H491 C485 0.959 . S
H492 C485 0.961 . S
H493 C485 0.960 . S
H494 C486 0.930 . S
H495 C487 0.929 . S
H496 C504 0.929 . S
H497 C506 0.930 . S
H498 C508 0.930 . S
H499 C511 0.929 . S
H500 C514 0.930 . S
H501 C516 0.960 . S
H502 C516 0.960 . S
H503 C516 0.960 . S
C504 H496 0.929 . S
C504 C505 1.377 . S
C504 C506 1.384 . S
C505 C504 1.377 . S
C505 C511 1.390 . S
C506 H497 0.930 . S
C506 C504 1.384 . S
C506 C507 1.372 . S
C507 C506 1.372 . S
C507 C508 1.400 . S
C507 C512 1.490 . S
C508 H498 0.930 . S
C508 C507 1.400 . S
C508 C511 1.386 . S
H509 C525 0.930 . S
H510 C526 0.931 . S
C511 H499 0.929 . S
C511 C505 1.390 . S
C511 C508 1.386 . S
C512 C507 1.490 . S
C512 C514 1.395 . S
C512 C515 1.403 . S
H513 C519 0.930 . S
C514 H500 0.930 . S
C514 C512 1.395 . S
C514 C517 1.403 . S
C515 C512 1.403 . S
C515 C516 1.524 . S
C515 C519 1.400 . S
C516 H501 0.960 . S
C516 H502 0.960 . S
C516 H503 0.960 . S
C516 C515 1.524 . S
C517 C514 1.403 . S
C517 C518 1.392 . S
C517 C521 1.495 . S
C518 C517 1.392 . S
C518 C519 1.385 . S
C518 C520 1.478 . S
C519 H513 0.930 . S
C519 C515 1.400 . S
C519 C518 1.385 . S
C520 C518 1.478 . S
C520 C522 1.381 . S
C520 C526 1.383 . S
C521 C517 1.495 . S
C521 H527 0.959 . S
C521 H528 0.961 . S
C521 H529 0.960 . S
C522 C520 1.381 . S
C522 C523 1.394 . S
C522 H530 0.930 . S
C523 C522 1.394 . S
C523 C524 1.383 . S
C523 H531 0.929 . S
C524 C523 1.383 . S
C524 C525 1.377 . S
C525 H509 0.930 . S
C525 C524 1.377 . S
C525 C526 1.379 . S
C526 H510 0.931 . S
C526 C520 1.383 . S
C526 C525 1.379 . S
H527 C521 0.959 . S
H528 C521 0.961 . S
H529 C521 0.960 . S
H530 C522 0.930 . S
H531 C523 0.929 . S
H532 C540 0.929 . S
H533 C542 0.930 . S
H534 C544 0.930 . S
H535 C547 0.929 . S
H536 C550 0.930 . S
H537 C552 0.960 . S
H538 C552 0.960 . S
H539 C552 0.960 . S
C540 H532 0.929 . S
C540 C541 1.377 . S
C540 C542 1.384 . S
C541 C540 1.377 . S
C541 C547 1.390 . S
C542 H533 0.930 . S
C542 C540 1.384 . S
C542 C543 1.372 . S
C543 C542 1.372 . S
C543 C544 1.400 . S
C543 C548 1.490 . S
C544 H534 0.930 . S
C544 C543 1.400 . S
C544 C547 1.386 . S
H545 C561 0.930 . S
H546 C562 0.931 . S
C547 H535 0.929 . S
C547 C541 1.390 . S
C547 C544 1.386 . S
C548 C543 1.490 . S
C548 C550 1.395 . S
C548 C551 1.403 . S
H549 C555 0.930 . S
C550 H536 0.930 . S
C550 C548 1.395 . S
C550 C553 1.403 . S
C551 C548 1.403 . S
C551 C552 1.524 . S
C551 C555 1.400 . S
C552 H537 0.960 . S
C552 H538 0.960 . S
C552 H539 0.960 . S
C552 C551 1.524 . S
C553 C550 1.403 . S
C553 C554 1.392 . S
C553 C557 1.495 . S
C554 C553 1.392 . S
C554 C555 1.385 . S
C554 C556 1.478 . S
C555 H549 0.930 . S
C555 C551 1.400 . S
C555 C554 1.385 . S
C556 C554 1.478 . S
C556 C558 1.381 . S
C556 C562 1.383 . S
C557 C553 1.495 . S
C557 H563 0.959 . S
C557 H564 0.961 . S
C557 H565 0.960 . S
C558 C556 1.381 . S
C558 C559 1.394 . S
C558 H566 0.930 . S
C559 C558 1.394 . S
C559 C560 1.383 . S
C559 H567 0.929 . S
C560 C559 1.383 . S
C560 C561 1.377 . S
C561 H545 0.930 . S
C561 C560 1.377 . S
C561 C562 1.379 . S
C562 H546 0.931 . S
C562 C556 1.383 . S
C562 C561 1.379 . S
H563 C557 0.959 . S
H564 C557 0.961 . S
H565 C557 0.960 . S
H566 C558 0.930 . S
H567 C559 0.929 . S
H568 C576 0.929 . S
H569 C578 0.930 . S
H570 C580 0.930 . S
H571 C583 0.929 . S
H572 C586 0.930 . S
H573 C588 0.960 . S
H574 C588 0.960 . S
H575 C588 0.960 . S
C576 H568 0.929 . S
C576 C577 1.377 . S
C576 C578 1.384 . S
C577 C576 1.377 . S
C577 C583 1.390 . S
C578 H569 0.930 . S
C578 C576 1.384 . S
C578 C579 1.372 . S
C579 C578 1.372 . S
C579 C580 1.400 . S
C579 C584 1.490 . S
C580 H570 0.930 . S
C580 C579 1.400 . S
C580 C583 1.386 . S
H581 C597 0.930 . S
H582 C598 0.931 . S
C583 H571 0.929 . S
C583 C577 1.390 . S
C583 C580 1.386 . S
C584 C579 1.490 . S
C584 C586 1.395 . S
C584 C587 1.403 . S
H585 C591 0.930 . S
C586 H572 0.930 . S
C586 C584 1.395 . S
C586 C589 1.403 . S
C587 C584 1.403 . S
C587 C588 1.524 . S
C587 C591 1.400 . S
C588 H573 0.960 . S
C588 H574 0.960 . S
C588 H575 0.960 . S
C588 C587 1.524 . S
C589 C586 1.403 . S
C589 C590 1.392 . S
C589 C593 1.495 . S
C590 C589 1.392 . S
C590 C591 1.385 . S
C590 C592 1.478 . S
C591 H585 0.930 . S
C591 C587 1.400 . S
C591 C590 1.385 . S
C592 C590 1.478 . S
C592 C594 1.381 . S
C592 C598 1.383 . S
C593 C589 1.495 . S
C593 H599 0.959 . S
C593 H600 0.961 . S
C593 H601 0.960 . S
C594 C592 1.381 . S
C594 C595 1.394 . S
C594 H602 0.930 . S
C595 C594 1.394 . S
C595 C596 1.383 . S
C595 H603 0.929 . S
C596 C595 1.383 . S
C596 C597 1.377 . S
C597 H581 0.930 . S
C597 C596 1.377 . S
C597 C598 1.379 . S
C598 H582 0.931 . S
C598 C592 1.383 . S
C598 C597 1.379 . S
H599 C593 0.959 . S
H600 C593 0.961 . S
H601 C593 0.960 . S
H602 C594 0.930 . S
H603 C595 0.929 . S
H604 C612 0.929 . S
H605 C614 0.930 . S
H606 C616 0.930 . S
H607 C619 0.929 . S
H608 C622 0.930 . S
H609 C624 0.960 . S
H610 C624 0.960 . S
H611 C624 0.960 . S
C612 H604 0.929 . S
C612 C613 1.377 . S
C612 C614 1.384 . S
C613 C612 1.377 . S
C613 C619 1.390 . S
C614 H605 0.930 . S
C614 C612 1.384 . S
C614 C615 1.372 . S
C615 C614 1.372 . S
C615 C616 1.400 . S
C615 C620 1.490 . S
C616 H606 0.930 . S
C616 C615 1.400 . S
C616 C619 1.386 . S
H617 C633 0.930 . S
H618 C634 0.931 . S
C619 H607 0.929 . S
C619 C613 1.390 . S
C619 C616 1.386 . S
C620 C615 1.490 . S
C620 C622 1.395 . S
C620 C623 1.403 . S
H621 C627 0.930 . S
C622 H608 0.930 . S
C622 C620 1.395 . S
C622 C625 1.403 . S
C623 C620 1.403 . S
C623 C624 1.524 . S
C623 C627 1.400 . S
C624 H609 0.960 . S
C624 H610 0.960 . S
C624 H611 0.960 . S
C624 C623 1.524 . S
C625 C622 1.403 . S
C625 C626 1.392 . S
C625 C629 1.495 . S
C626 C625 1.392 . S
C626 C627 1.385 . S
C626 C628 1.478 . S
C627 H621 0.930 . S
C627 C623 1.400 . S
C627 C626 1.385 . S
C628 C626 1.478 . S
C628 C630 1.381 . S
C628 C634 1.383 . S
C629 C625 1.495 . S
C629 H635 0.959 . S
C629 H636 0.961 . S
C629 H637 0.960 . S
C630 C628 1.381 . S
C630 C631 1.394 . S
C630 H638 0.930 . S
C631 C630 1.394 . S
C631 C632 1.383 . S
C631 H639 0.929 . S
C632 C631 1.383 . S
C632 C633 1.377 . S
C633 H617 0.930 . S
C633 C632 1.377 . S
C633 C634 1.379 . S
C634 H618 0.931 . S
C634 C628 1.383 . S
C634 C633 1.379 . S
H635 C629 0.959 . S
H636 C629 0.961 . S
H637 C629 0.960 . S
H638 C630 0.930 . S
H639 C631 0.929 . S
H640 C648 0.926 1_546 S
H641 C650 0.930 1_556 S
H642 C652 0.930 . S
H643 C655 0.929 . S
H644 C658 0.930 . S
H645 C660 0.960 . S
H646 C660 0.960 . S
H647 C660 0.960 . S
C648 H640 0.926 1_564 S
C648 C649 1.377 . S
C648 C650 1.384 . S
C649 C648 1.377 . S
C649 C655 1.390 . S
C650 H641 0.930 1_554 S
C650 C648 1.384 . S
C650 C651 1.372 . S
C651 C650 1.372 . S
C651 C652 1.400 . S
C651 C656 1.490 . S
C652 H642 0.930 . S
C652 C651 1.400 . S
C652 C655 1.386 . S
H653 C669 0.930 . S
H654 C670 0.931 . S
C655 H643 0.929 . S
C655 C649 1.390 . S
C655 C652 1.386 . S
C656 C651 1.490 . S
C656 C658 1.395 1_554 S
C656 C659 1.403 . S
H657 C663 0.930 . S
C658 H644 0.930 . S
C658 C656 1.395 1_556 S
C658 C661 1.403 . S
C659 C656 1.403 . S
C659 C660 1.524 . S
C659 C663 1.400 . S
C660 H645 0.960 . S
C660 H646 0.960 . S
C660 H647 0.960 . S
C660 C659 1.524 . S
C661 C658 1.403 . S
C661 C662 1.392 . S
C661 C665 1.495 . S
C662 C661 1.392 . S
C662 C663 1.385 1_556 S
C662 C664 1.478 . S
C663 H657 0.930 . S
C663 C659 1.400 . S
C663 C662 1.385 1_554 S
C664 C662 1.478 . S
C664 C666 1.381 . S
C664 C670 1.383 1_556 S
C665 C661 1.495 . S
C665 H671 0.959 . S
C665 H672 0.961 . S
C665 H673 0.960 . S
C666 C664 1.381 . S
C666 C667 1.394 . S
C666 H674 0.930 . S
C667 C666 1.394 . S
C667 C668 1.383 . S
C667 H675 0.929 . S
C668 C667 1.383 . S
C668 C669 1.377 1_556 S
C669 H653 0.930 . S
C669 C668 1.377 1_554 S
C669 C670 1.379 . S
C670 H654 0.931 . S
C670 C664 1.383 1_554 S
C670 C669 1.379 . S
H671 C665 0.959 . S
H672 C665 0.961 . S
H673 C665 0.960 . S
H674 C666 0.930 . S
H675 C667 0.929 . S
H676 C684 0.929 . S
H677 C686 0.930 . S
H678 C688 0.930 . S
H679 C691 0.929 . S
H680 C694 0.930 . S
H681 C696 0.960 . S
H682 C696 0.960 . S
H683 C696 0.960 . S
C684 H676 0.929 . S
C684 C685 1.377 1_556 S
C684 C686 1.384 . S
C685 C684 1.377 1_554 S
C685 C691 1.390 . S
C686 H677 0.930 . S
C686 C684 1.384 . S
C686 C687 1.372 1_556 S
C687 C686 1.372 1_554 S
C687 C688 1.400 . S
C687 C692 1.490 1_554 S
C688 H678 0.930 . S
C688 C687 1.400 . S
C688 C691 1.386 . S
H689 C705 0.930 1_454 S
H690 C706 0.931 1_554 S
C691 H679 0.929 . S
C691 C685 1.390 . S
C691 C688 1.386 . S
C692 C687 1.490 1_556 S
C692 C694 1.395 . S
C692 C695 1.403 1_556 S
H693 C699 0.930 . S
C694 H680 0.930 . S
C694 C692 1.395 . S
C694 C697 1.403 . S
C695 C692 1.403 1_554 S
C695 C696 1.524 . S
C695 C699 1.400 . S
C696 H681 0.960 . S
C696 H682 0.960 . S
C696 H683 0.960 . S
C696 C695 1.524 . S
C697 C694 1.403 . S
C697 C698 1.392 . S
C697 C701 1.495 . S
C698 C697 1.392 . S
C698 C699 1.385 1_556 S
C698 C700 1.478 . S
C699 H693 0.930 . S
C699 C695 1.400 . S
C699 C698 1.385 1_554 S
C700 C698 1.478 . S
C700 C702 1.381 . S
C700 C706 1.383 . S
C701 C697 1.495 . S
C701 H707 0.959 . S
C701 H708 0.961 . S
C701 H709 0.960 . S
C702 C700 1.381 . S
C702 C703 1.394 . S
C702 H710 0.930 . S
C703 C702 1.394 . S
C703 C704 1.383 . S
C703 H711 0.929 . S
C704 C703 1.383 . S
C704 C705 1.377 . S
C705 H689 0.930 1_656 S
C705 C704 1.377 . S
C705 C706 1.379 . S
C706 H690 0.931 1_556 S
C706 C700 1.383 . S
C706 C705 1.379 . S
H707 C701 0.959 . S
H708 C701 0.961 . S
H709 C701 0.960 . S
H710 C702 0.930 . S
H711 C703 0.929 . S
H712 C720 0.929 . S
H713 C722 0.930 . S
H714 C724 0.930 . S
H715 C727 0.929 . S
H716 C730 0.930 . S
H717 C732 0.960 1_554 S
H718 C732 0.960 . S
H719 C732 0.960 1_554 S
C720 H712 0.929 . S
C720 C721 1.377 . S
C720 C722 1.384 . S
C721 C720 1.377 . S
C721 C727 1.390 1_556 S
C722 H713 0.930 . S
C722 C720 1.384 . S
C722 C723 1.372 . S
C723 C722 1.372 . S
C723 C724 1.400 1_556 S
C723 C728 1.490 1_556 S
C724 H714 0.930 . S
C724 C723 1.400 1_554 S
C724 C727 1.386 . S
H725 C741 0.930 . S
H726 C742 0.931 . S
C727 H715 0.929 . S
C727 C721 1.390 1_554 S
C727 C724 1.386 . S
C728 C723 1.490 1_554 S
C728 C730 1.395 . S
C728 C731 1.403 . S
H729 C735 0.930 . S
C730 H716 0.930 . S
C730 C728 1.395 . S
C730 C733 1.403 . S
C731 C728 1.403 . S
C731 C732 1.524 1_554 S
C731 C735 1.400 . S
C732 H717 0.960 1_556 S
C732 H718 0.960 . S
C732 H719 0.960 1_556 S
C732 C731 1.524 1_556 S
C733 C730 1.403 . S
C733 C734 1.392 . S
C733 C737 1.495 . S
C734 C733 1.392 . S
C734 C735 1.385 . S
C734 C736 1.478 . S
C735 H729 0.930 . S
C735 C731 1.400 . S
C735 C734 1.385 . S
C736 C734 1.478 . S
C736 C738 1.381 . S
C736 C742 1.383 . S
C737 C733 1.495 . S
C737 H743 0.959 . S
C737 H744 0.961 . S
C737 H745 0.960 . S
C738 C736 1.381 . S
C738 C739 1.394 . S
C738 H746 0.930 1_554 S
C739 C738 1.394 . S
C739 C740 1.383 . S
C739 H747 0.929 1_544 S
C740 C739 1.383 . S
C740 C741 1.377 . S
C741 H725 0.930 . S
C741 C740 1.377 . S
C741 C742 1.379 . S
C742 H726 0.931 . S
C742 C736 1.383 . S
C742 C741 1.379 . S
H743 C737 0.959 . S
H744 C737 0.961 . S
H745 C737 0.960 . S
H746 C738 0.930 1_556 S
H747 C739 0.929 1_566 S
H748 C756 0.929 1_554 S
H749 C758 0.919 1_554 S
H750 C760 0.930 . S
H751 C763 0.929 . S
H752 C766 0.924 1_554 S
H753 C768 0.960 . S
H754 C768 0.960 . S
H755 C768 0.960 . S
C756 H748 0.929 1_556 S
C756 C757 1.377 . S
C756 C758 1.387 . S
C757 C756 1.377 . S
C757 C763 1.390 . S
C758 H749 0.919 1_556 S
C758 C756 1.387 . S
C758 C759 1.380 . S
C759 C758 1.380 . S
C759 C760 1.400 . S
C759 C764 1.490 . S
C760 H750 0.930 . S
C760 C759 1.400 . S
C760 C763 1.386 . S
H761 C777 0.930 . S
H762 C778 0.931 . S
C763 H751 0.929 . S
C763 C757 1.390 . S
C763 C760 1.386 . S
C764 C759 1.490 . S
C764 C766 1.409 . S
C764 C767 1.403 . S
H765 C771 0.930 . S
C766 H752 0.924 1_556 S
C766 C764 1.409 . S
C766 C769 1.396 1_556 S
C767 C764 1.403 . S
C767 C768 1.524 . S
C767 C771 1.400 . S
C768 H753 0.960 . S
C768 H754 0.960 . S
C768 H755 0.960 . S
C768 C767 1.524 . S
C769 C766 1.396 1_554 S
C769 C770 1.396 . S
C769 C773 1.495 . S
C770 C769 1.396 . S
C770 C771 1.378 1_554 S
C770 C772 1.481 . S
C771 H765 0.930 . S
C771 C767 1.400 . S
C771 C770 1.378 1_556 S
C772 C770 1.481 . S
C772 C774 1.381 . S
C772 C778 1.383 1_554 S
C773 C769 1.495 . S
C773 H779 0.959 . S
C773 H780 0.961 . S
C773 H781 0.960 . S
C774 C772 1.381 . S
C774 C775 1.394 . S
C774 H782 0.930 . S
C775 C774 1.394 . S
C775 C776 1.383 . S
C775 H783 0.929 . S
C776 C775 1.383 . S
C776 C777 1.377 1_554 S
C777 H761 0.930 . S
C777 C776 1.377 1_556 S
C777 C778 1.379 . S
C778 H762 0.931 . S
C778 C772 1.383 1_556 S
C778 C777 1.379 . S
H779 C773 0.959 . S
H780 C773 0.961 . S
H781 C773 0.960 . S
H782 C774 0.930 . S
H783 C775 0.929 . S
H784 C792 0.929 1_545 S
H785 C794 0.930 . S
H786 C796 0.930 . S
H787 C799 0.929 . S
H788 C802 0.930 . S
H789 C804 0.960 . S
H790 C804 0.960 . S
H791 C804 0.960 . S
C792 H784 0.929 1_565 S
C792 C793 1.377 . S
C792 C794 1.384 . S
C793 C792 1.377 . S
C793 C799 1.390 . S
C794 H785 0.930 . S
C794 C792 1.384 . S
C794 C795 1.372 . S
C795 C794 1.372 . S
C795 C796 1.400 . S
C795 C800 1.490 . S
C796 H786 0.930 . S
C796 C795 1.400 . S
C796 C799 1.386 . S
H797 C813 0.930 . S
H798 C814 0.931 . S
C799 H787 0.929 . S
C799 C793 1.390 . S
C799 C796 1.386 . S
C800 C795 1.490 . S
C800 C802 1.395 . S
C800 C803 1.403 . S
H801 C807 0.930 . S
C802 H788 0.930 . S
C802 C800 1.395 . S
C802 C805 1.403 . S
C803 C800 1.403 . S
C803 C804 1.524 . S
C803 C807 1.400 . S
C804 H789 0.960 . S
C804 H790 0.960 . S
C804 H791 0.960 . S
C804 C803 1.524 . S
C805 C802 1.403 . S
C805 C806 1.392 . S
C805 C809 1.495 . S
C806 C805 1.392 . S
C806 C807 1.385 . S
C806 C808 1.478 . S
C807 H801 0.930 . S
C807 C803 1.400 . S
C807 C806 1.385 . S
C808 C806 1.478 . S
C808 C810 1.381 . S
C808 C814 1.383 . S
C809 C805 1.495 . S
C809 H815 0.959 . S
C809 H816 0.961 . S
C809 H817 0.960 . S
C810 C808 1.381 . S
C810 C811 1.394 . S
C810 H818 0.930 . S
C811 C810 1.394 . S
C811 C812 1.383 . S
C811 H819 0.929 . S
C812 C811 1.383 . S
C812 C813 1.377 . S
C813 H797 0.930 . S
C813 C812 1.377 . S
C813 C814 1.379 . S
C814 H798 0.931 . S
C814 C808 1.383 . S
C814 C813 1.379 . S
H815 C809 0.959 . S
H816 C809 0.961 . S
H817 C809 0.960 . S
H818 C810 0.930 . S
H819 C811 0.929 . S
H820 C828 0.929 . S
H821 C830 0.930 . S
H822 C832 0.930 . S
H823 C835 0.929 . S
H824 C838 0.930 . S
H825 C840 0.960 . S
H826 C840 0.960 . S
H827 C840 0.960 . S
C828 H820 0.929 . S
C828 C829 1.377 . S
C828 C830 1.384 . S
C829 C828 1.377 . S
C829 C835 1.390 . S
C830 H821 0.930 . S
C830 C828 1.384 . S
C830 C831 1.372 . S
C831 C830 1.372 . S
C831 C832 1.400 . S
C831 C836 1.490 . S
C832 H822 0.930 . S
C832 C831 1.400 . S
C832 C835 1.386 . S
H833 C849 0.930 . S
H834 C850 0.931 . S
C835 H823 0.929 . S
C835 C829 1.390 . S
C835 C832 1.386 . S
C836 C831 1.490 . S
C836 C838 1.395 . S
C836 C839 1.403 . S
H837 C843 0.930 . S
C838 H824 0.930 . S
C838 C836 1.395 . S
C838 C841 1.403 . S
C839 C836 1.403 . S
C839 C840 1.524 . S
C839 C843 1.400 . S
C840 H825 0.960 . S
C840 H826 0.960 . S
C840 H827 0.960 . S
C840 C839 1.524 . S
C841 C838 1.403 . S
C841 C842 1.392 . S
C841 C845 1.495 . S
C842 C841 1.392 . S
C842 C843 1.385 . S
C842 C844 1.478 . S
C843 H837 0.930 . S
C843 C839 1.400 . S
C843 C842 1.385 . S
C844 C842 1.478 . S
C844 C846 1.381 . S
C844 C850 1.383 . S
C845 C841 1.495 . S
C845 H851 0.959 . S
C845 H852 0.961 . S
C845 H853 0.960 . S
C846 C844 1.381 . S
C846 C847 1.394 . S
C846 H854 0.930 . S
C847 C846 1.394 . S
C847 C848 1.383 . S
C847 H855 0.949 . S
C848 C847 1.383 . S
C848 C849 1.377 . S
C849 H833 0.930 . S
C849 C848 1.377 . S
C849 C850 1.379 . S
C850 H834 0.931 . S
C850 C844 1.383 . S
C850 C849 1.379 . S
H851 C845 0.959 . S
H852 C845 0.961 . S
H853 C845 0.960 . S
H854 C846 0.930 . S
H855 C847 0.949 . S
H856 C864 0.929 . S
H857 C866 0.930 . S
H858 C868 0.930 . S
H859 C871 0.929 . S
H860 C874 0.930 . S
H861 C876 0.960 . S
H862 C876 0.960 . S
H863 C876 0.960 . S
C864 H856 0.929 . S
C864 C865 1.377 . S
C864 C866 1.384 . S
C865 C864 1.377 . S
C865 C871 1.390 . S
C866 H857 0.930 . S
C866 C864 1.384 . S
C866 C867 1.372 . S
C867 C866 1.372 . S
C867 C868 1.400 . S
C867 C872 1.490 . S
C868 H858 0.930 . S
C868 C867 1.400 . S
C868 C871 1.386 . S
H869 C885 0.930 . S
H870 C886 0.931 . S
C871 H859 0.929 . S
C871 C865 1.390 . S
C871 C868 1.386 . S
C872 C867 1.490 . S
C872 C874 1.395 . S
C872 C875 1.403 . S
H873 C879 0.930 . S
C874 H860 0.930 . S
C874 C872 1.395 . S
C874 C877 1.403 . S
C875 C872 1.403 . S
C875 C876 1.524 . S
C875 C879 1.400 . S
C876 H861 0.960 . S
C876 H862 0.960 . S
C876 H863 0.960 . S
C876 C875 1.524 . S
C877 C874 1.403 . S
C877 C878 1.392 . S
C877 C881 1.495 . S
C878 C877 1.392 . S
C878 C879 1.385 . S
C878 C880 1.478 . S
C879 H873 0.930 . S
C879 C875 1.400 . S
C879 C878 1.385 . S
C880 C878 1.478 . S
C880 C882 1.381 . S
C880 C886 1.383 . S
C881 C877 1.495 . S
C881 H887 0.959 . S
C881 H888 0.961 . S
C881 H889 0.960 . S
C882 C880 1.381 . S
C882 C883 1.394 . S
C882 H890 0.930 . S
C883 C882 1.394 . S
C883 C884 1.383 . S
C883 H891 0.929 . S
C884 C883 1.383 . S
C884 C885 1.377 . S
C885 H869 0.930 . S
C885 C884 1.377 . S
C885 C886 1.379 . S
C886 H870 0.931 . S
C886 C880 1.383 . S
C886 C885 1.379 . S
H887 C881 0.959 . S
H888 C881 0.961 . S
H889 C881 0.960 . S
H890 C882 0.930 . S
H891 C883 0.929 . S
H892 C900 0.929 . S
H893 C902 0.930 . S
H894 C904 0.930 . S
H895 C907 0.929 . S
H896 C910 0.930 . S
H897 C912 0.960 . S
H898 C912 0.960 . S
H899 C912 0.960 . S
C900 H892 0.929 . S
C900 C901 1.377 . S
C900 C902 1.384 . S
C901 C900 1.377 . S
C901 C907 1.390 . S
C902 H893 0.930 . S
C902 C900 1.384 . S
C902 C903 1.372 . S
C903 C902 1.372 . S
C903 C904 1.400 . S
C903 C908 1.490 . S
C904 H894 0.930 . S
C904 C903 1.400 . S
C904 C907 1.386 . S
H905 C921 0.930 . S
H906 C922 0.931 . S
C907 H895 0.929 . S
C907 C901 1.390 . S
C907 C904 1.386 . S
C908 C903 1.490 . S
C908 C910 1.395 . S
C908 C911 1.403 . S
H909 C915 0.930 . S
C910 H896 0.930 . S
C910 C908 1.395 . S
C910 C913 1.403 . S
C911 C908 1.403 . S
C911 C912 1.524 . S
C911 C915 1.400 . S
C912 H897 0.960 . S
C912 H898 0.960 . S
C912 H899 0.960 . S
C912 C911 1.524 . S
C913 C910 1.403 . S
C913 C914 1.392 . S
C913 C917 1.495 . S
C914 C913 1.392 . S
C914 C915 1.385 . S
C914 C916 1.478 . S
C915 H909 0.930 . S
C915 C911 1.400 . S
C915 C914 1.385 . S
C916 C914 1.478 . S
C916 C918 1.381 . S
C916 C922 1.383 . S
C917 C913 1.495 . S
C917 H923 0.959 . S
C917 H924 0.961 . S
C917 H925 0.960 . S
C918 C916 1.381 . S
C918 C919 1.394 . S
C918 H926 0.930 . S
C919 C918 1.394 . S
C919 C920 1.383 . S
C919 H927 0.929 . S
C920 C919 1.383 . S
C920 C921 1.377 . S
C921 H905 0.930 . S
C921 C920 1.377 . S
C921 C922 1.379 . S
C922 H906 0.931 . S
C922 C916 1.383 . S
C922 C921 1.379 . S
H923 C917 0.959 . S
H924 C917 0.961 . S
H925 C917 0.960 . S
H926 C918 0.930 . S
H927 C919 0.929 . S
H928 C936 0.929 . S
H929 C938 0.930 . S
H930 C940 0.930 . S
H931 C943 0.929 . S
H932 C946 0.930 . S
H933 C948 0.960 . S
H934 C948 0.960 . S
H935 C948 0.960 . S
C936 H928 0.929 . S
C936 C937 1.377 . S
C936 C938 1.384 . S
C937 C936 1.377 . S
C937 C943 1.390 . S
C938 H929 0.930 . S
C938 C936 1.384 . S
C938 C939 1.372 . S
C939 C938 1.372 . S
C939 C940 1.400 . S
C939 C944 1.490 . S
C940 H930 0.930 . S
C940 C939 1.400 . S
C940 C943 1.386 . S
H941 C957 0.930 . S
H942 C958 0.931 . S
C943 H931 0.929 . S
C943 C937 1.390 . S
C943 C940 1.386 . S
C944 C939 1.490 . S
C944 C946 1.395 . S
C944 C947 1.403 . S
H945 C951 0.930 . S
C946 H932 0.930 . S
C946 C944 1.395 . S
C946 C949 1.403 . S
C947 C944 1.403 . S
C947 C948 1.524 . S
C947 C951 1.400 . S
C948 H933 0.960 . S
C948 H934 0.960 . S
C948 H935 0.960 . S
C948 C947 1.524 . S
C949 C946 1.403 . S
C949 C950 1.392 . S
C949 C953 1.495 . S
C950 C949 1.392 . S
C950 C951 1.385 . S
C950 C952 1.478 . S
C951 H945 0.930 . S
C951 C947 1.400 . S
C951 C950 1.385 . S
C952 C950 1.478 . S
C952 C954 1.381 . S
C952 C958 1.383 . S
C953 C949 1.495 . S
C953 H959 0.959 . S
C953 H960 0.961 . S
C953 H961 0.960 . S
C954 C952 1.381 . S
C954 C955 1.394 . S
C954 H962 0.930 . S
C955 C954 1.394 . S
C955 C956 1.383 . S
C955 H963 0.929 . S
C956 C955 1.383 . S
C956 C957 1.377 . S
C957 H941 0.930 . S
C957 C956 1.377 . S
C957 C958 1.379 . S
C958 H942 0.931 . S
C958 C952 1.383 . S
C958 C957 1.379 . S
H959 C953 0.959 . S
H960 C953 0.961 . S
H961 C953 0.960 . S
H962 C954 0.930 . S
H963 C955 0.929 . S
H964 C972 0.929 . S
H965 C974 0.930 . S
H966 C976 0.930 . S
H967 C979 0.929 . S
H968 C982 0.930 . S
H969 C984 0.960 . S
H970 C984 0.960 . S
H971 C984 0.960 . S
C972 H964 0.929 . S
C972 C973 1.377 . S
C972 C974 1.384 . S
C973 C972 1.377 . S
C973 C979 1.390 . S
C974 H965 0.930 . S
C974 C972 1.384 . S
C974 C975 1.372 . S
C975 C974 1.372 . S
C975 C976 1.400 . S
C975 C980 1.490 . S
C976 H966 0.930 . S
C976 C975 1.400 . S
C976 C979 1.386 . S
H977 C993 0.930 . S
H978 C994 0.931 . S
C979 H967 0.929 . S
C979 C973 1.390 . S
C979 C976 1.386 . S
C980 C975 1.490 . S
C980 C982 1.395 . S
C980 C983 1.403 . S
H981 C987 0.930 . S
C982 H968 0.930 . S
C982 C980 1.395 . S
C982 C985 1.403 . S
C983 C980 1.403 . S
C983 C984 1.524 . S
C983 C987 1.400 . S
C984 H969 0.960 . S
C984 H970 0.960 . S
C984 H971 0.960 . S
C984 C983 1.524 . S
C985 C982 1.403 . S
C985 C986 1.392 . S
C985 C989 1.495 . S
C986 C985 1.392 . S
C986 C987 1.385 . S
C986 C988 1.478 . S
C987 H981 0.930 . S
C987 C983 1.400 . S
C987 C986 1.385 . S
C988 C986 1.478 . S
C988 C990 1.381 . S
C988 C994 1.383 . S
C989 C985 1.495 . S
C989 H995 0.959 . S
C989 H996 0.961 . S
C989 H997 0.960 . S
C990 C988 1.381 . S
C990 C991 1.394 . S
C990 H998 0.930 . S
C991 C990 1.394 . S
C991 C992 1.383 . S
C991 H999 0.929 . S
C992 C991 1.383 . S
C992 C993 1.377 . S
C993 H977 0.930 . S
C993 C992 1.377 . S
C993 C994 1.379 . S
C994 H978 0.931 . S
C994 C988 1.383 . S
C994 C993 1.379 . S
H995 C989 0.959 . S
H996 C989 0.961 . S
H997 C989 0.960 . S
H998 C990 0.930 . S
H999 C991 0.929 . S
H1000 C1008 0.929 . S
H1001 C1010 0.930 . S
H1002 C1012 0.930 . S
H1003 C1015 0.929 . S
H1004 C1018 0.930 . S
H1005 C1020 0.960 . S
H1006 C1020 0.960 . S
H1007 C1020 0.960 . S
C1008 H1000 0.929 . S
C1008 C1009 1.377 . S
C1008 C1010 1.384 . S
C1009 C1008 1.377 . S
C1009 C1015 1.390 . S
C1010 H1001 0.930 . S
C1010 C1008 1.384 . S
C1010 C1011 1.372 . S
C1011 C1010 1.372 . S
C1011 C1012 1.400 . S
C1011 C1016 1.490 . S
C1012 H1002 0.930 . S
C1012 C1011 1.400 . S
C1012 C1015 1.386 . S
H1013 C1029 0.930 . S
H1014 C1030 0.931 . S
C1015 H1003 0.929 . S
C1015 C1009 1.390 . S
C1015 C1012 1.386 . S
C1016 C1011 1.490 . S
C1016 C1018 1.395 . S
C1016 C1019 1.403 . S
H1017 C1023 0.930 . S
C1018 H1004 0.930 . S
C1018 C1016 1.395 . S
C1018 C1021 1.403 . S
C1019 C1016 1.403 . S
C1019 C1020 1.524 . S
C1019 C1023 1.400 . S
C1020 H1005 0.960 . S
C1020 H1006 0.960 . S
C1020 H1007 0.960 . S
C1020 C1019 1.524 . S
C1021 C1018 1.403 . S
C1021 C1022 1.392 . S
C1021 C1025 1.495 . S
C1022 C1021 1.392 . S
C1022 C1023 1.385 . S
C1022 C1024 1.478 . S
C1023 H1017 0.930 . S
C1023 C1019 1.400 . S
C1023 C1022 1.385 . S
C1024 C1022 1.478 . S
C1024 C1026 1.381 . S
C1024 C1030 1.383 . S
C1025 C1021 1.495 . S
C1025 H1031 0.959 . S
C1025 H1032 0.961 . S
C1025 H1033 0.960 . S
C1026 C1024 1.381 . S
C1026 C1027 1.394 . S
C1026 H1034 0.930 . S
C1027 C1026 1.394 . S
C1027 C1028 1.383 . S
C1027 H1035 0.929 . S
C1028 C1027 1.383 . S
C1028 C1029 1.377 . S
C1029 H1013 0.930 . S
C1029 C1028 1.377 . S
C1029 C1030 1.379 . S
C1030 H1014 0.931 . S
C1030 C1024 1.383 . S
C1030 C1029 1.379 . S
H1031 C1025 0.959 . S
H1032 C1025 0.961 . S
H1033 C1025 0.960 . S
H1034 C1026 0.930 . S
H1035 C1027 0.929 . S
H1036 C1044 0.929 . S
H1037 C1046 0.930 . S
H1038 C1048 0.930 . S
H1039 C1051 0.929 . S
H1040 C1054 0.930 . S
H1041 C1056 0.960 . S
H1042 C1056 0.960 . S
H1043 C1056 0.960 . S
C1044 H1036 0.929 . S
C1044 C1045 1.377 . S
C1044 C1046 1.384 . S
C1045 C1044 1.377 . S
C1045 C1051 1.390 . S
C1046 H1037 0.930 . S
C1046 C1044 1.384 . S
C1046 C1047 1.372 . S
C1047 C1046 1.372 . S
C1047 C1048 1.400 . S
C1047 C1052 1.490 . S
C1048 H1038 0.930 . S
C1048 C1047 1.400 . S
C1048 C1051 1.386 . S
H1049 C1065 0.930 . S
H1050 C1066 0.931 . S
C1051 H1039 0.929 . S
C1051 C1045 1.390 . S
C1051 C1048 1.386 . S
C1052 C1047 1.490 . S
C1052 C1054 1.395 . S
C1052 C1055 1.403 . S
H1053 C1059 0.930 . S
C1054 H1040 0.930 . S
C1054 C1052 1.395 . S
C1054 C1057 1.403 . S
C1055 C1052 1.403 . S
C1055 C1056 1.524 . S
C1055 C1059 1.400 . S
C1056 H1041 0.960 . S
C1056 H1042 0.960 . S
C1056 H1043 0.960 . S
C1056 C1055 1.524 . S
C1057 C1054 1.403 . S
C1057 C1058 1.392 . S
C1057 C1061 1.495 . S
C1058 C1057 1.392 . S
C1058 C1059 1.385 . S
C1058 C1060 1.478 . S
C1059 H1053 0.930 . S
C1059 C1055 1.400 . S
C1059 C1058 1.385 . S
C1060 C1058 1.478 . S
C1060 C1062 1.381 . S
C1060 C1066 1.383 . S
C1061 C1057 1.495 . S
C1061 H1067 0.959 . S
C1061 H1068 0.961 . S
C1061 H1069 0.960 . S
C1062 C1060 1.381 . S
C1062 C1063 1.394 . S
C1062 H1070 0.930 . S
C1063 C1062 1.394 . S
C1063 C1064 1.383 . S
C1063 H1071 0.929 . S
C1064 C1063 1.383 . S
C1064 C1065 1.377 . S
C1065 H1049 0.930 . S
C1065 C1064 1.377 . S
C1065 C1066 1.379 . S
C1066 H1050 0.931 . S
C1066 C1060 1.383 . S
C1066 C1065 1.379 . S
H1067 C1061 0.959 . S
H1068 C1061 0.961 . S
H1069 C1061 0.960 . S
H1070 C1062 0.930 . S
H1071 C1063 0.929 . S
H1072 C1080 0.929 . S
H1073 C1082 0.930 . S
H1074 C1084 0.930 . S
H1075 C1087 0.929 1_554 S
H1076 C1090 0.930 . S
H1077 C1092 0.960 . S
H1078 C1092 0.960 . S
H1079 C1092 0.960 . S
C1080 H1072 0.929 . S
C1080 C1081 1.377 . S
C1080 C1082 1.384 . S
C1081 C1080 1.377 . S
C1081 C1087 1.390 . S
C1082 H1073 0.930 . S
C1082 C1080 1.384 . S
C1082 C1083 1.372 . S
C1083 C1082 1.372 . S
C1083 C1084 1.400 1_556 S
C1083 C1088 1.490 1_556 S
C1084 H1074 0.930 . S
C1084 C1083 1.400 1_554 S
C1084 C1087 1.386 1_554 S
H1085 C1101 0.930 . S
H1086 C1102 0.931 . S
C1087 H1075 0.929 1_556 S
C1087 C1081 1.390 . S
C1087 C1084 1.386 1_556 S
C1088 C1083 1.490 1_554 S
C1088 C1090 1.395 . S
C1088 C1091 1.403 1_554 S
H1089 C1095 0.930 1_556 S
C1090 H1076 0.930 . S
C1090 C1088 1.395 . S
C1090 C1093 1.403 . S
C1091 C1088 1.403 1_556 S
C1091 C1092 1.524 . S
C1091 C1095 1.400 1_556 S
C1092 H1077 0.960 . S
C1092 H1078 0.960 . S
C1092 H1079 0.960 . S
C1092 C1091 1.524 . S
C1093 C1090 1.403 . S
C1093 C1094 1.392 . S
C1093 C1097 1.495 . S
C1094 C1093 1.392 . S
C1094 C1095 1.385 . S
C1094 C1096 1.478 . S
C1095 H1089 0.930 1_554 S
C1095 C1091 1.400 1_554 S
C1095 C1094 1.385 . S
C1096 C1094 1.478 . S
C1096 C1098 1.381 . S
C1096 C1102 1.383 . S
C1097 C1093 1.495 . S
C1097 H1103 0.959 . S
C1097 H1104 0.961 . S
C1097 H1105 0.960 . S
C1098 C1096 1.381 . S
C1098 C1099 1.394 . S
C1098 H1106 0.930 . S
C1099 C1098 1.394 . S
C1099 C1100 1.383 . S
C1099 H1107 0.929 . S
C1100 C1099 1.383 . S
C1100 C1101 1.377 . S
C1101 H1085 0.930 . S
C1101 C1100 1.377 . S
C1101 C1102 1.379 . S
C1102 H1086 0.931 . S
C1102 C1096 1.383 . S
C1102 C1101 1.379 . S
H1103 C1097 0.959 . S
H1104 C1097 0.961 . S
H1105 C1097 0.960 . S
H1106 C1098 0.930 . S
H1107 C1099 0.929 . S
H1108 C1116 0.929 . S
H1109 C1118 0.930 . S
H1110 C1120 0.930 . S
H1111 C1123 0.929 . S
H1112 C1126 0.930 . S
H1113 C1128 0.960 . S
H1114 C1128 0.960 . S
H1115 C1128 0.960 . S
C1116 H1108 0.929 . S
C1116 C1117 1.377 . S
C1116 C1118 1.384 . S
C1117 C1116 1.377 . S
C1117 C1123 1.390 1_554 S
C1118 H1109 0.930 . S
C1118 C1116 1.384 . S
C1118 C1119 1.372 . S
C1119 C1118 1.372 . S
C1119 C1120 1.400 1_554 S
C1119 C1124 1.485 1_554 S
C1120 H1110 0.930 . S
C1120 C1119 1.400 1_556 S
C1120 C1123 1.386 . S
H1121 C1137 0.930 . S
H1122 C1138 0.931 . S
C1123 H1111 0.929 . S
C1123 C1117 1.390 1_556 S
C1123 C1120 1.386 . S
C1124 C1119 1.485 1_556 S
C1124 C1126 1.375 1_556 S
C1124 C1127 1.428 . S
H1125 C1131 0.930 . S
C1126 H1112 0.930 . S
C1126 C1124 1.375 1_554 S
C1126 C1129 1.403 . S
C1127 C1124 1.428 . S
C1127 C1128 1.524 . S
C1127 C1131 1.400 . S
C1128 H1113 0.960 . S
C1128 H1114 0.960 . S
C1128 H1115 0.960 . S
C1128 C1127 1.524 . S
C1129 C1126 1.403 . S
C1129 C1130 1.392 1_554 S
C1129 C1133 1.495 . S
C1130 C1129 1.392 1_556 S
C1130 C1131 1.385 . S
C1130 C1132 1.478 . S
C1131 H1125 0.930 . S
C1131 C1127 1.400 . S
C1131 C1130 1.385 . S
C1132 C1130 1.478 . S
C1132 C1134 1.381 . S
C1132 C1138 1.383 . S
C1133 C1129 1.495 . S
C1133 H1139 0.959 . S
C1133 H1140 0.961 . S
C1133 H1141 0.960 . S
C1134 C1132 1.381 . S
C1134 C1135 1.394 . S
C1134 H1142 0.930 1_556 S
C1135 C1134 1.394 . S
C1135 C1136 1.383 . S
C1135 H1143 0.929 . S
C1136 C1135 1.383 . S
C1136 C1137 1.377 . S
C1137 H1121 0.930 . S
C1137 C1136 1.377 . S
C1137 C1138 1.379 . S
C1138 H1122 0.931 . S
C1138 C1132 1.383 . S
C1138 C1137 1.379 . S
H1139 C1133 0.959 . S
H1140 C1133 0.961 . S
H1141 C1133 0.960 . S
H1142 C1134 0.930 1_554 S
H1143 C1135 0.929 . S
H1144 C1152 0.929 . S
H1145 C1154 0.930 . S
H1146 C1156 0.930 1_554 S
H1147 C1159 0.929 . S
H1148 C1162 0.930 . S
H1149 C1164 0.960 . S
H1150 C1164 0.960 . S
H1151 C1164 0.960 . S
C1152 H1144 0.929 . S
C1152 C1153 1.377 . S
C1152 C1154 1.384 . S
C1153 C1152 1.377 . S
C1153 C1159 1.390 . S
C1154 H1145 0.930 . S
C1154 C1152 1.384 . S
C1154 C1155 1.372 . S
C1155 C1154 1.372 . S
C1155 C1156 1.400 . S
C1155 C1160 1.490 1_556 S
C1156 H1146 0.930 1_556 S
C1156 C1155 1.400 . S
C1156 C1159 1.386 . S
H1157 C1173 0.930 . S
H1158 C1174 0.931 . S
C1159 H1147 0.929 . S
C1159 C1153 1.390 . S
C1159 C1156 1.386 . S
C1160 C1155 1.490 1_554 S
C1160 C1162 1.395 . S
C1160 C1163 1.403 1_554 S
H1161 C1167 0.930 . S
C1162 H1148 0.930 . S
C1162 C1160 1.395 . S
C1162 C1165 1.403 . S
C1163 C1160 1.403 1_556 S
C1163 C1164 1.524 . S
C1163 C1167 1.400 . S
C1164 H1149 0.960 . S
C1164 H1150 0.960 . S
C1164 H1151 0.960 . S
C1164 C1163 1.524 . S
C1165 C1162 1.403 . S
C1165 C1166 1.392 . S
C1165 C1169 1.495 . S
C1166 C1165 1.392 . S
C1166 C1167 1.385 1_554 S
C1166 C1168 1.478 . S
C1167 H1161 0.930 . S
C1167 C1163 1.400 . S
C1167 C1166 1.385 1_556 S
C1168 C1166 1.478 . S
C1168 C1170 1.381 . S
C1168 C1174 1.383 . S
C1169 C1165 1.495 . S
C1169 H1175 0.959 . S
C1169 H1176 0.961 . S
C1169 H1177 0.960 . S
C1170 C1168 1.381 . S
C1170 C1171 1.394 . S
C1170 H1178 0.930 . S
C1171 C1170 1.394 . S
C1171 C1172 1.383 . S
C1171 H1179 0.929 . S
C1172 C1171 1.383 . S
C1172 C1173 1.377 . S
C1173 H1157 0.930 . S
C1173 C1172 1.377 . S
C1173 C1174 1.379 . S
C1174 H1158 0.931 . S
C1174 C1168 1.383 . S
C1174 C1173 1.379 . S
H1175 C1169 0.959 . S
H1176 C1169 0.961 . S
H1177 C1169 0.960 . S
H1178 C1170 0.930 . S
H1179 C1171 0.929 . S
H1180 C1188 0.929 . S
H1181 C1190 0.930 1_554 S
H1182 C1192 0.930 . S
H1183 C1195 0.929 . S
H1184 C1198 0.930 . S
H1185 C1200 0.960 . S
H1186 C1200 0.960 . S
H1187 C1200 0.960 1_556 S
C1188 H1180 0.929 . S
C1188 C1189 1.377 . S
C1188 C1190 1.384 . S
C1189 C1188 1.377 . S
C1189 C1195 1.390 . S
C1190 H1181 0.930 1_556 S
C1190 C1188 1.384 . S
C1190 C1191 1.372 . S
C1191 C1190 1.372 . S
C1191 C1192 1.400 . S
C1191 C1196 1.490 . S
C1192 H1182 0.930 . S
C1192 C1191 1.400 . S
C1192 C1195 1.386 . S
H1193 C1209 0.930 . S
H1194 C1210 0.931 . S
C1195 H1183 0.929 . S
C1195 C1189 1.390 . S
C1195 C1192 1.386 . S
C1196 C1191 1.490 . S
C1196 C1198 1.395 . S
C1196 C1199 1.403 . S
H1197 C1203 0.930 . S
C1198 H1184 0.930 . S
C1198 C1196 1.395 . S
C1198 C1201 1.403 . S
C1199 C1196 1.403 . S
C1199 C1200 1.524 1_556 S
C1199 C1203 1.400 1_556 S
C1200 H1185 0.960 . S
C1200 H1186 0.960 . S
C1200 H1187 0.960 1_554 S
C1200 C1199 1.524 1_554 S
C1201 C1198 1.403 . S
C1201 C1202 1.392 . S
C1201 C1205 1.495 . S
C1202 C1201 1.392 . S
C1202 C1203 1.385 1_556 S
C1202 C1204 1.478 1_556 S
C1203 H1197 0.930 . S
C1203 C1199 1.400 1_554 S
C1203 C1202 1.385 1_554 S
C1204 C1202 1.478 1_554 S
C1204 C1206 1.381 . S
C1204 C1210 1.383 1_554 S
C1205 C1201 1.495 . S
C1205 H1211 0.959 . S
C1205 H1212 0.961 . S
C1205 H1213 0.960 . S
C1206 C1204 1.381 . S
C1206 C1207 1.394 . S
C1206 H1214 0.930 . S
C1207 C1206 1.394 . S
C1207 C1208 1.383 . S
C1207 H1215 0.929 . S
C1208 C1207 1.383 . S
C1208 C1209 1.377 1_554 S
C1209 H1193 0.930 . S
C1209 C1208 1.377 1_556 S
C1209 C1210 1.379 . S
C1210 H1194 0.931 . S
C1210 C1204 1.383 1_556 S
C1210 C1209 1.379 . S
H1211 C1205 0.959 . S
H1212 C1205 0.961 . S
H1213 C1205 0.960 . S
H1214 C1206 0.930 . S
H1215 C1207 0.929 . S
H1216 C1224 0.929 . S
H1217 C1226 0.930 . S
H1218 C1228 0.930 1_545 S
H1219 C1231 0.929 . S
H1220 C1234 0.930 . S
H1221 C1236 0.960 . S
H1222 C1236 0.960 . S
H1223 C1236 0.960 . S
C1224 H1216 0.929 . S
C1224 C1225 1.377 . S
C1224 C1226 1.384 . S
C1225 C1224 1.377 . S
C1225 C1231 1.390 . S
C1226 H1217 0.930 . S
C1226 C1224 1.384 . S
C1226 C1227 1.372 . S
C1227 C1226 1.372 . S
C1227 C1228 1.400 . S
C1227 C1232 1.490 1_565 S
C1228 H1218 0.930 1_565 S
C1228 C1227 1.400 . S
C1228 C1231 1.386 . S
H1229 C1245 0.930 . S
H1230 C1246 0.931 . S
C1231 H1219 0.929 . S
C1231 C1225 1.390 . S
C1231 C1228 1.386 . S
C1232 C1227 1.490 1_545 S
C1232 C1234 1.395 1_545 S
C1232 C1235 1.403 . S
H1233 C1239 0.930 . S
C1234 H1220 0.930 . S
C1234 C1232 1.395 1_565 S
C1234 C1237 1.403 . S
C1235 C1232 1.403 . S
C1235 C1236 1.524 . S
C1235 C1239 1.400 . S
C1236 H1221 0.960 . S
C1236 H1222 0.960 . S
C1236 H1223 0.960 . S
C1236 C1235 1.524 . S
C1237 C1234 1.403 . S
C1237 C1238 1.392 1_565 S
C1237 C1241 1.495 . S
C1238 C1237 1.392 1_545 S
C1238 C1239 1.385 . S
C1238 C1240 1.478 . S
C1239 H1233 0.930 . S
C1239 C1235 1.400 . S
C1239 C1238 1.385 . S
C1240 C1238 1.478 . S
C1240 C1242 1.381 . S
C1240 C1246 1.383 . S
C1241 C1237 1.495 . S
C1241 H1247 0.959 . S
C1241 H1248 0.961 . S
C1241 H1249 0.960 . S
C1242 C1240 1.381 . S
C1242 C1243 1.394 . S
C1242 H1250 0.930 . S
C1243 C1242 1.394 . S
C1243 C1244 1.383 . S
C1243 H1251 0.929 . S
C1244 C1243 1.383 . S
C1244 C1245 1.377 . S
C1245 H1229 0.930 . S
C1245 C1244 1.377 . S
C1245 C1246 1.379 . S
C1246 H1230 0.931 . S
C1246 C1240 1.383 . S
C1246 C1245 1.379 . S
H1247 C1241 0.959 . S
H1248 C1241 0.961 . S
H1249 C1241 0.960 . S
H1250 C1242 0.930 . S
H1251 C1243 0.929 . S
H1252 C1260 0.929 . S
H1253 C1262 0.930 . S
H1254 C1264 0.930 1_455 S
H1255 C1267 0.929 . S
H1256 C1270 0.930 . S
H1257 C1272 0.960 . S
H1258 C1272 0.960 . S
H1259 C1272 0.960 . S
C1260 H1252 0.929 . S
C1260 C1261 1.377 . S
C1260 C1262 1.384 . S
C1261 C1260 1.377 . S
C1261 C1267 1.390 . S
C1262 H1253 0.930 . S
C1262 C1260 1.384 . S
C1262 C1263 1.372 . S
C1263 C1262 1.372 . S
C1263 C1264 1.400 . S
C1263 C1268 1.490 1_655 S
C1264 H1254 0.930 1_655 S
C1264 C1263 1.400 . S
C1264 C1267 1.386 . S
H1265 C1281 0.930 . S
H1266 C1282 0.931 . S
C1267 H1255 0.929 . S
C1267 C1261 1.390 . S
C1267 C1264 1.386 . S
C1268 C1263 1.490 1_455 S
C1268 C1270 1.395 1_455 S
C1268 C1271 1.403 . S
H1269 C1275 0.930 . S
C1270 H1256 0.930 . S
C1270 C1268 1.395 1_655 S
C1270 C1273 1.403 . S
C1271 C1268 1.403 . S
C1271 C1272 1.524 . S
C1271 C1275 1.400 . S
C1272 H1257 0.960 . S
C1272 H1258 0.960 . S
C1272 H1259 0.960 . S
C1272 C1271 1.524 . S
C1273 C1270 1.403 . S
C1273 C1274 1.392 1_655 S
C1273 C1277 1.495 . S
C1274 C1273 1.392 1_455 S
C1274 C1275 1.385 . S
C1274 C1276 1.478 . S
C1275 H1269 0.930 . S
C1275 C1271 1.400 . S
C1275 C1274 1.385 . S
C1276 C1274 1.478 . S
C1276 C1278 1.381 . S
C1276 C1282 1.383 . S
C1277 C1273 1.495 . S
C1277 H1283 0.959 . S
C1277 H1284 0.961 . S
C1277 H1285 0.960 . S
C1278 C1276 1.381 . S
C1278 C1279 1.394 . S
C1278 H1286 0.930 . S
C1279 C1278 1.394 . S
C1279 C1280 1.383 . S
C1279 H1287 0.929 . S
C1280 C1279 1.383 . S
C1280 C1281 1.377 . S
C1281 H1265 0.930 . S
C1281 C1280 1.377 . S
C1281 C1282 1.379 . S
C1282 H1266 0.931 . S
C1282 C1276 1.383 . S
C1282 C1281 1.379 . S
H1283 C1277 0.959 . S
H1284 C1277 0.961 . S
H1285 C1277 0.960 . S
H1286 C1278 0.930 . S
H1287 C1279 0.929 . S
H1288 C1296 0.929 . S
H1289 C1298 0.930 . S
H1290 C1300 0.930 . S
H1291 C1303 0.929 . S
H1292 C1306 0.930 . S
H1293 C1308 0.960 . S
H1294 C1308 0.960 . S
H1295 C1308 0.960 . S
C1296 H1288 0.929 . S
C1296 C1297 1.377 . S
C1296 C1298 1.384 . S
C1297 C1296 1.377 . S
C1297 C1303 1.390 . S
C1298 H1289 0.930 . S
C1298 C1296 1.384 . S
C1298 C1299 1.372 . S
C1299 C1298 1.372 . S
C1299 C1300 1.400 . S
C1299 C1304 1.490 . S
C1300 H1290 0.930 . S
C1300 C1299 1.400 . S
C1300 C1303 1.386 . S
H1301 C1317 0.930 . S
H1302 C1318 0.931 . S
C1303 H1291 0.929 . S
C1303 C1297 1.390 . S
C1303 C1300 1.386 . S
C1304 C1299 1.490 . S
C1304 C1306 1.395 . S
C1304 C1307 1.403 . S
H1305 C1311 0.930 . S
C1306 H1292 0.930 . S
C1306 C1304 1.395 . S
C1306 C1309 1.403 . S
C1307 C1304 1.403 . S
C1307 C1308 1.524 . S
C1307 C1311 1.400 . S
C1308 H1293 0.960 . S
C1308 H1294 0.960 . S
C1308 H1295 0.960 . S
C1308 C1307 1.524 . S
C1309 C1306 1.403 . S
C1309 C1310 1.392 . S
C1309 C1313 1.495 1_565 S
C1310 C1309 1.392 . S
C1310 C1311 1.385 . S
C1310 C1312 1.478 1_565 S
C1311 H1305 0.930 . S
C1311 C1307 1.400 . S
C1311 C1310 1.385 . S
C1312 C1310 1.478 1_545 S
C1312 C1314 1.379 1_545 S
C1312 C1318 1.383 . S
C1313 C1309 1.495 1_545 S
C1313 H1319 0.959 . S
C1313 H1320 0.961 . S
C1313 H1321 0.960 . S
C1314 C1312 1.379 1_565 S
C1314 C1315 1.392 1_565 S
C1314 H1322 0.934 . S
C1315 C1314 1.392 1_545 S
C1315 C1316 1.383 . S
C1315 H1323 0.929 . S
C1316 C1315 1.383 . S
C1316 C1317 1.377 . S
C1317 H1301 0.930 . S
C1317 C1316 1.377 . S
C1317 C1318 1.379 . S
C1318 H1302 0.931 . S
C1318 C1312 1.383 . S
C1318 C1317 1.379 . S
H1319 C1313 0.959 . S
H1320 C1313 0.961 . S
H1321 C1313 0.960 . S
H1322 C1314 0.934 . S
H1323 C1315 0.929 . S
H1324 C1332 0.929 . S
H1325 C1334 0.930 . S
H1326 C1336 0.930 . S
H1327 C1339 0.929 . S
H1328 C1342 0.930 . S
H1329 C1344 0.960 1_455 S
H1330 C1344 0.960 . S
H1331 C1344 0.960 1_455 S
C1332 H1324 0.929 . S
C1332 C1333 1.377 . S
C1332 C1334 1.384 . S
C1333 C1332 1.377 . S
C1333 C1339 1.390 . S
C1334 H1325 0.930 . S
C1334 C1332 1.384 . S
C1334 C1335 1.372 . S
C1335 C1334 1.372 . S
C1335 C1336 1.400 . S
C1335 C1340 1.490 . S
C1336 H1326 0.930 . S
C1336 C1335 1.400 . S
C1336 C1339 1.386 . S
H1337 C1353 0.930 . S
H1338 C1354 0.931 . S
C1339 H1327 0.929 . S
C1339 C1333 1.390 . S
C1339 C1336 1.386 . S
C1340 C1335 1.490 . S
C1340 C1342 1.395 . S
C1340 C1343 1.403 . S
H1341 C1347 0.895 1_455 S
C1342 H1328 0.930 . S
C1342 C1340 1.395 . S
C1342 C1345 1.403 . S
C1343 C1340 1.403 . S
C1343 C1344 1.524 . S
C1343 C1347 1.421 . S
C1344 H1329 0.960 1_655 S
C1344 H1330 0.960 . S
C1344 H1331 0.960 1_655 S
C1344 C1343 1.524 . S
C1345 C1342 1.403 . S
C1345 C1346 1.392 . S
C1345 C1349 1.495 . S
C1346 C1345 1.392 . S
C1346 C1347 1.400 . S
C1346 C1348 1.478 1_655 S
C1347 H1341 0.895 1_655 S
C1347 C1343 1.421 . S
C1347 C1346 1.400 . S
C1348 C1346 1.478 1_455 S
C1348 C1350 1.381 1_455 S
C1348 C1354 1.383 . S
C1349 C1345 1.495 . S
C1349 H1355 0.959 . S
C1349 H1356 0.961 . S
C1349 H1357 0.960 . S
C1350 C1348 1.381 1_655 S
C1350 C1351 1.394 1_655 S
C1350 H1358 0.930 . S
C1351 C1350 1.394 1_455 S
C1351 C1352 1.383 . S
C1351 H1359 0.929 1_455 S
C1352 C1351 1.383 . S
C1352 C1353 1.377 . S
C1353 H1337 0.930 . S
C1353 C1352 1.377 . S
C1353 C1354 1.379 . S
C1354 H1338 0.931 . S
C1354 C1348 1.383 . S
C1354 C1353 1.379 . S
H1355 C1349 0.959 . S
H1356 C1349 0.961 . S
H1357 C1349 0.960 . S
H1358 C1350 0.930 . S
H1359 C1351 0.929 1_655 S
H1360 C1368 0.929 . S
H1361 C1370 0.930 . S
H1362 C1372 0.896 1_545 S
H1363 C1375 0.929 . S
H1364 C1378 0.930 . S
H1365 C1380 0.960 . S
H1366 C1380 0.960 . S
H1367 C1380 0.960 . S
C1368 H1360 0.929 . S
C1368 C1369 1.377 . S
C1368 C1370 1.384 . S
C1369 C1368 1.377 . S
C1369 C1375 1.390 . S
C1370 H1361 0.930 . S
C1370 C1368 1.384 . S
C1370 C1371 1.372 . S
C1371 C1370 1.372 . S
C1371 C1372 1.414 . S
C1371 C1376 1.490 1_565 S
C1372 H1362 0.896 1_565 S
C1372 C1371 1.414 . S
C1372 C1375 1.407 . S
H1373 C1389 0.930 . S
H1374 C1390 0.931 . S
C1375 H1363 0.929 . S
C1375 C1369 1.390 . S
C1375 C1372 1.407 . S
C1376 C1371 1.490 1_545 S
C1376 C1378 1.395 . S
C1376 C1379 1.403 . S
H1377 C1383 0.930 . S
C1378 H1364 0.930 . S
C1378 C1376 1.395 . S
C1378 C1381 1.403 . S
C1379 C1376 1.403 . S
C1379 C1380 1.524 1_545 S
C1379 C1383 1.400 . S
C1380 H1365 0.960 . S
C1380 H1366 0.960 . S
C1380 H1367 0.960 . S
C1380 C1379 1.524 1_565 S
C1381 C1378 1.403 . S
C1381 C1382 1.392 . S
C1381 C1385 1.495 . S
C1382 C1381 1.392 . S
C1382 C1383 1.385 . S
C1382 C1384 1.478 . S
C1383 H1377 0.930 . S
C1383 C1379 1.400 . S
C1383 C1382 1.385 . S
C1384 C1382 1.478 . S
C1384 C1386 1.381 . S
C1384 C1390 1.383 . S
C1385 C1381 1.495 . S
C1385 H1391 0.959 . S
C1385 H1392 0.961 . S
C1385 H1393 0.960 . S
C1386 C1384 1.381 . S
C1386 C1387 1.394 . S
C1386 H1394 0.930 . S
C1387 C1386 1.394 . S
C1387 C1388 1.383 . S
C1387 H1395 0.929 . S
C1388 C1387 1.383 . S
C1388 C1389 1.377 . S
C1389 H1373 0.930 . S
C1389 C1388 1.377 . S
C1389 C1390 1.379 . S
C1390 H1374 0.931 . S
C1390 C1384 1.383 . S
C1390 C1389 1.379 . S
H1391 C1385 0.959 . S
H1392 C1385 0.961 . S
H1393 C1385 0.960 . S
H1394 C1386 0.930 . S
H1395 C1387 0.929 . S
H1396 C1404 0.929 . S
H1397 C1406 0.930 . S
H1398 C1408 0.930 . S
H1399 C1411 0.929 . S
H1400 C1414 0.930 . S
H1401 C1416 0.960 1_655 S
H1402 C1416 0.960 1_655 S
H1403 C1416 0.960 . S
C1404 H1396 0.929 . S
C1404 C1405 1.377 . S
C1404 C1406 1.384 . S
C1405 C1404 1.377 . S
C1405 C1411 1.390 . S
C1406 H1397 0.930 . S
C1406 C1404 1.384 . S
C1406 C1407 1.372 . S
C1407 C1406 1.372 . S
C1407 C1408 1.400 . S
C1407 C1412 1.490 . S
C1408 H1398 0.930 . S
C1408 C1407 1.400 . S
C1408 C1411 1.386 . S
H1409 C1425 0.930 . S
H1410 C1426 0.931 . S
C1411 H1399 0.929 . S
C1411 C1405 1.390 . S
C1411 C1408 1.386 . S
C1412 C1407 1.490 . S
C1412 C1414 1.395 . S
C1412 C1415 1.403 . S
H1413 C1419 0.903 1_655 S
C1414 H1400 0.930 . S
C1414 C1412 1.395 . S
C1414 C1417 1.403 . S
C1415 C1412 1.403 . S
C1415 C1416 1.524 . S
C1415 C1419 1.417 . S
C1416 H1401 0.960 1_455 S
C1416 H1402 0.960 1_455 S
C1416 H1403 0.960 . S
C1416 C1415 1.524 . S
C1417 C1414 1.403 . S
C1417 C1418 1.392 . S
C1417 C1421 1.495 . S
C1418 C1417 1.392 . S
C1418 C1419 1.396 . S
C1418 C1420 1.478 1_455 S
C1419 H1413 0.903 1_455 S
C1419 C1415 1.417 . S
C1419 C1418 1.396 . S
C1420 C1418 1.478 1_655 S
C1420 C1422 1.381 . S
C1420 C1426 1.383 1_655 S
C1421 C1417 1.495 . S
C1421 H1427 0.959 . S
C1421 H1428 0.961 . S
C1421 H1429 0.960 . S
C1422 C1420 1.381 . S
C1422 C1423 1.394 . S
C1422 H1430 0.930 . S
C1423 C1422 1.394 . S
C1423 C1424 1.383 . S
C1423 H1431 0.929 . S
C1424 C1423 1.383 . S
C1424 C1425 1.377 . S
C1425 H1409 0.930 . S
C1425 C1424 1.377 . S
C1425 C1426 1.379 1_655 S
C1426 H1410 0.931 . S
C1426 C1420 1.383 1_455 S
C1426 C1425 1.379 1_455 S
H1427 C1421 0.959 . S
H1428 C1421 0.961 . S
H1429 C1421 0.960 . S
H1430 C1422 0.930 . S
H1431 C1423 0.929 . S
H1432 C1440 0.929 . S
H1433 C1442 0.930 . S
H1434 C1444 0.930 . S
H1435 C1447 0.929 . S
H1436 C1450 0.930 1_545 S
H1437 C1452 0.960 . S
H1438 C1452 0.960 . S
H1439 C1452 0.960 . S
C1440 H1432 0.929 . S
C1440 C1441 1.377 . S
C1440 C1442 1.384 . S
C1441 C1440 1.377 . S
C1441 C1447 1.390 . S
C1442 H1433 0.930 . S
C1442 C1440 1.384 . S
C1442 C1443 1.372 . S
C1443 C1442 1.372 . S
C1443 C1444 1.400 . S
C1443 C1448 1.490 . S
C1444 H1434 0.930 . S
C1444 C1443 1.400 . S
C1444 C1447 1.386 . S
H1445 C1461 0.950 . S
H1446 C1462 0.950 . S
C1447 H1435 0.929 . S
C1447 C1441 1.390 . S
C1447 C1444 1.386 . S
C1448 C1443 1.490 . S
C1448 C1450 1.395 . S
C1448 C1451 1.403 . S
H1449 C1455 0.930 . S
C1450 H1436 0.930 1_565 S
C1450 C1448 1.395 . S
C1450 C1453 1.403 1_565 S
C1451 C1448 1.403 . S
C1451 C1452 1.524 . S
C1451 C1455 1.400 . S
C1452 H1437 0.960 . S
C1452 H1438 0.960 . S
C1452 H1439 0.960 . S
C1452 C1451 1.524 . S
C1453 C1450 1.403 1_545 S
C1453 C1454 1.384 1_545 S
C1453 C1457 1.495 . S
C1454 C1453 1.384 1_565 S
C1454 C1455 1.403 . S
C1454 C1456 1.469 1_565 S
C1455 H1449 0.930 . S
C1455 C1451 1.400 . S
C1455 C1454 1.403 . S
C1456 C1454 1.469 1_545 S
C1456 C1458 1.381 . S
C1456 C1462 1.372 1_545 S
C1457 C1453 1.495 . S
C1457 H1463 0.959 . S
C1457 H1464 0.961 . S
C1457 H1465 0.960 . S
C1458 C1456 1.381 . S
C1458 C1459 1.394 . S
C1458 H1466 0.930 . S
C1459 C1458 1.394 . S
C1459 C1460 1.383 . S
C1459 H1467 0.929 . S
C1460 C1459 1.383 . S
C1460 C1461 1.377 . S
C1461 H1445 0.950 . S
C1461 C1460 1.377 . S
C1461 C1462 1.371 1_545 S
C1462 H1446 0.950 . S
C1462 C1456 1.372 1_565 S
C1462 C1461 1.371 1_565 S
H1463 C1457 0.959 . S
H1464 C1457 0.961 . S
H1465 C1457 0.960 . S
H1466 C1458 0.930 . S
H1467 C1459 0.929 . S
H1468 C1476 0.929 . S
H1469 C1478 0.930 . S
H1470 C1480 0.930 . S
H1471 C1483 0.911 1_655 S
H1472 C1486 0.930 . S
H1473 C1488 0.960 . S
H1474 C1488 0.960 . S
H1475 C1488 0.960 . S
C1476 H1468 0.929 . S
C1476 C1477 1.377 . S
C1476 C1478 1.384 . S
C1477 C1476 1.377 . S
C1477 C1483 1.390 . S
C1478 H1469 0.930 . S
C1478 C1476 1.384 . S
C1478 C1479 1.372 . S
C1479 C1478 1.372 . S
C1479 C1480 1.400 1_455 S
C1479 C1484 1.490 1_455 S
C1480 H1470 0.930 . S
C1480 C1479 1.400 1_655 S
C1480 C1483 1.386 1_655 S
H1481 C1497 0.930 . S
H1482 C1498 0.931 . S
C1483 H1471 0.911 1_455 S
C1483 C1477 1.390 . S
C1483 C1480 1.386 1_455 S
C1484 C1479 1.490 1_655 S
C1484 C1486 1.395 1_655 S
C1484 C1487 1.403 . S
H1485 C1491 0.930 . S
C1486 H1472 0.930 . S
C1486 C1484 1.395 1_455 S
C1486 C1489 1.403 . S
C1487 C1484 1.403 . S
C1487 C1488 1.524 . S
C1487 C1491 1.400 . S
C1488 H1473 0.960 . S
C1488 H1474 0.960 . S
C1488 H1475 0.960 . S
C1488 C1487 1.524 . S
C1489 C1486 1.403 . S
C1489 C1490 1.392 1_455 S
C1489 C1493 1.495 . S
C1490 C1489 1.392 1_655 S
C1490 C1491 1.385 . S
C1490 C1492 1.478 . S
C1491 H1485 0.930 . S
C1491 C1487 1.400 . S
C1491 C1490 1.385 . S
C1492 C1490 1.478 . S
C1492 C1494 1.381 . S
C1492 C1498 1.383 . S
C1493 C1489 1.495 . S
C1493 H1499 0.959 . S
C1493 H1500 0.961 . S
C1493 H1501 0.960 . S
C1494 C1492 1.381 . S
C1494 C1495 1.394 . S
C1494 H1502 0.930 . S
C1495 C1494 1.394 . S
C1495 C1496 1.383 . S
C1495 H1503 0.929 . S
C1496 C1495 1.383 . S
C1496 C1497 1.377 . S
C1497 H1481 0.930 . S
C1497 C1496 1.377 . S
C1497 C1498 1.379 . S
C1498 H1482 0.931 . S
C1498 C1492 1.383 . S
C1498 C1497 1.379 . S
H1499 C1493 0.959 . S
H1500 C1493 0.961 . S
H1501 C1493 0.960 . S
H1502 C1494 0.930 . S
H1503 C1495 0.929 . S
H1504 C1512 0.929 . S
H1505 C1514 0.930 . S
H1506 C1516 0.930 . S
H1507 C1519 0.929 . S
H1508 C1522 0.930 . S
H1509 C1524 0.960 . S
H1510 C1524 0.960 . S
H1511 C1524 0.960 . S
C1512 H1504 0.929 . S
C1512 C1513 1.377 . S
C1512 C1514 1.384 . S
C1513 C1512 1.377 . S
C1513 C1519 1.390 . S
C1514 H1505 0.930 . S
C1514 C1512 1.384 . S
C1514 C1515 1.372 . S
C1515 C1514 1.372 . S
C1515 C1516 1.400 . S
C1515 C1520 1.490 . S
C1516 H1506 0.930 . S
C1516 C1515 1.400 . S
C1516 C1519 1.386 . S
H1517 C1533 0.930 . S
H1518 C1534 0.931 . S
C1519 H1507 0.929 . S
C1519 C1513 1.390 . S
C1519 C1516 1.386 . S
C1520 C1515 1.490 . S
C1520 C1522 1.395 . S
C1520 C1523 1.403 . S
H1521 C1527 0.930 . S
C1522 H1508 0.930 . S
C1522 C1520 1.395 . S
C1522 C1525 1.403 . S
C1523 C1520 1.403 . S
C1523 C1524 1.524 . S
C1523 C1527 1.400 . S
C1524 H1509 0.960 . S
C1524 H1510 0.960 . S
C1524 H1511 0.960 . S
C1524 C1523 1.524 . S
C1525 C1522 1.403 . S
C1525 C1526 1.392 . S
C1525 C1529 1.495 . S
C1526 C1525 1.392 . S
C1526 C1527 1.385 . S
C1526 C1528 1.478 . S
C1527 H1521 0.930 . S
C1527 C1523 1.400 . S
C1527 C1526 1.385 . S
C1528 C1526 1.478 . S
C1528 C1530 1.381 . S
C1528 C1534 1.383 . S
C1529 C1525 1.495 . S
C1529 H1535 0.959 . S
C1529 H1536 0.961 . S
C1529 H1537 0.960 . S
C1530 C1528 1.381 . S
C1530 C1531 1.394 . S
C1530 H1538 0.930 . S
C1531 C1530 1.394 . S
C1531 C1532 1.383 . S
C1531 H1539 0.929 . S
C1532 C1531 1.383 . S
C1532 C1533 1.377 . S
C1533 H1517 0.930 . S
C1533 C1532 1.377 . S
C1533 C1534 1.379 . S
C1534 H1518 0.931 . S
C1534 C1528 1.383 . S
C1534 C1533 1.379 . S
H1535 C1529 0.959 . S
H1536 C1529 0.961 . S
H1537 C1529 0.960 . S
H1538 C1530 0.930 . S
H1539 C1531 0.929 . S
H1540 C1548 0.929 . S
H1541 C1550 0.930 . S
H1542 C1552 0.930 . S
H1543 C1555 0.929 . S
H1544 C1558 0.930 . S
H1545 C1560 0.960 . S
H1546 C1560 0.960 . S
H1547 C1560 0.960 . S
C1548 H1540 0.929 . S
C1548 C1549 1.377 . S
C1548 C1550 1.384 . S
C1549 C1548 1.377 . S
C1549 C1555 1.390 . S
C1550 H1541 0.930 . S
C1550 C1548 1.384 . S
C1550 C1551 1.372 . S
C1551 C1550 1.372 . S
C1551 C1552 1.400 . S
C1551 C1556 1.490 . S
C1552 H1542 0.930 . S
C1552 C1551 1.400 . S
C1552 C1555 1.386 . S
H1553 C1569 0.930 . S
H1554 C1570 0.931 . S
C1555 H1543 0.929 . S
C1555 C1549 1.390 . S
C1555 C1552 1.386 . S
C1556 C1551 1.490 . S
C1556 C1558 1.395 . S
C1556 C1559 1.403 . S
H1557 C1563 0.930 . S
C1558 H1544 0.930 . S
C1558 C1556 1.395 . S
C1558 C1561 1.403 . S
C1559 C1556 1.403 . S
C1559 C1560 1.524 . S
C1559 C1563 1.400 . S
C1560 H1545 0.960 . S
C1560 H1546 0.960 . S
C1560 H1547 0.960 . S
C1560 C1559 1.524 . S
C1561 C1558 1.403 . S
C1561 C1562 1.392 . S
C1561 C1565 1.495 . S
C1562 C1561 1.392 . S
C1562 C1563 1.385 . S
C1562 C1564 1.478 . S
C1563 H1557 0.930 . S
C1563 C1559 1.400 . S
C1563 C1562 1.385 . S
C1564 C1562 1.478 . S
C1564 C1566 1.381 . S
C1564 C1570 1.383 . S
C1565 C1561 1.495 . S
C1565 H1571 0.959 . S
C1565 H1572 0.961 . S
C1565 H1573 0.960 . S
C1566 C1564 1.381 . S
C1566 C1567 1.394 . S
C1566 H1574 0.930 . S
C1567 C1566 1.394 . S
C1567 C1568 1.383 . S
C1567 H1575 0.929 . S
C1568 C1567 1.383 . S
C1568 C1569 1.377 . S
C1569 H1553 0.930 . S
C1569 C1568 1.377 . S
C1569 C1570 1.379 . S
C1570 H1554 0.931 . S
C1570 C1564 1.383 . S
C1570 C1569 1.379 . S
H1571 C1565 0.959 . S
H1572 C1565 0.961 . S
H1573 C1565 0.960 . S
H1574 C1566 0.930 . S
H1575 C1567 0.929 . S
H1576 C1584 0.929 . S
H1577 C1586 0.930 . S
H1578 C1588 0.930 . S
H1579 C1591 0.929 . S
H1580 C1594 0.930 . S
H1581 C1596 0.960 . S
H1582 C1596 0.960 . S
H1583 C1596 0.960 . S
C1584 H1576 0.929 . S
C1584 C1585 1.377 . S
C1584 C1586 1.384 . S
C1585 C1584 1.377 . S
C1585 C1591 1.390 . S
C1586 H1577 0.930 . S
C1586 C1584 1.384 . S
C1586 C1587 1.372 . S
C1587 C1586 1.372 . S
C1587 C1588 1.400 . S
C1587 C1592 1.490 . S
C1588 H1578 0.930 . S
C1588 C1587 1.400 . S
C1588 C1591 1.386 . S
H1589 C1605 0.930 . S
H1590 C1606 0.931 . S
C1591 H1579 0.929 . S
C1591 C1585 1.390 . S
C1591 C1588 1.386 . S
C1592 C1587 1.490 . S
C1592 C1594 1.395 . S
C1592 C1595 1.403 . S
H1593 C1599 0.930 . S
C1594 H1580 0.930 . S
C1594 C1592 1.395 . S
C1594 C1597 1.403 . S
C1595 C1592 1.403 . S
C1595 C1596 1.524 . S
C1595 C1599 1.400 . S
C1596 H1581 0.960 . S
C1596 H1582 0.960 . S
C1596 H1583 0.960 . S
C1596 C1595 1.524 . S
C1597 C1594 1.403 . S
C1597 C1598 1.392 . S
C1597 C1601 1.495 . S
C1598 C1597 1.392 . S
C1598 C1599 1.385 . S
C1598 C1600 1.478 . S
C1599 H1593 0.930 . S
C1599 C1595 1.400 . S
C1599 C1598 1.385 . S
C1600 C1598 1.478 . S
C1600 C1602 1.381 . S
C1600 C1606 1.383 . S
C1601 C1597 1.495 . S
C1601 H1607 0.959 . S
C1601 H1608 0.961 . S
C1601 H1609 0.960 . S
C1602 C1600 1.381 . S
C1602 C1603 1.394 . S
C1602 H1610 0.930 . S
C1603 C1602 1.394 . S
C1603 C1604 1.383 . S
C1603 H1611 0.929 . S
C1604 C1603 1.383 . S
C1604 C1605 1.377 . S
C1605 H1589 0.930 . S
C1605 C1604 1.377 . S
C1605 C1606 1.379 . S
C1606 H1590 0.931 . S
C1606 C1600 1.383 . S
C1606 C1605 1.379 . S
H1607 C1601 0.959 . S
H1608 C1601 0.961 . S
H1609 C1601 0.960 . S
H1610 C1602 0.930 . S
H1611 C1603 0.929 . S
H1612 C1620 0.929 . S
H1613 C1622 0.930 . S
H1614 C1624 0.930 . S
H1615 C1627 0.929 . S
H1616 C1630 0.930 . S
H1617 C1632 0.960 . S
H1618 C1632 0.960 . S
H1619 C1632 0.960 . S
C1620 H1612 0.929 . S
C1620 C1621 1.377 . S
C1620 C1622 1.384 . S
C1621 C1620 1.377 . S
C1621 C1627 1.390 . S
C1622 H1613 0.930 . S
C1622 C1620 1.384 . S
C1622 C1623 1.372 . S
C1623 C1622 1.372 . S
C1623 C1624 1.400 . S
C1623 C1628 1.490 . S
C1624 H1614 0.930 . S
C1624 C1623 1.400 . S
C1624 C1627 1.386 . S
H1625 C1641 0.930 . S
H1626 C1642 0.931 . S
C1627 H1615 0.929 . S
C1627 C1621 1.390 . S
C1627 C1624 1.386 . S
C1628 C1623 1.490 . S
C1628 C1630 1.395 . S
C1628 C1631 1.403 . S
H1629 C1635 0.930 . S
C1630 H1616 0.930 . S
C1630 C1628 1.395 . S
C1630 C1633 1.403 . S
C1631 C1628 1.403 . S
C1631 C1632 1.524 . S
C1631 C1635 1.400 . S
C1632 H1617 0.960 . S
C1632 H1618 0.960 . S
C1632 H1619 0.960 . S
C1632 C1631 1.524 . S
C1633 C1630 1.403 . S
C1633 C1634 1.392 . S
C1633 C1637 1.495 . S
C1634 C1633 1.392 . S
C1634 C1635 1.385 . S
C1634 C1636 1.478 . S
C1635 H1629 0.930 . S
C1635 C1631 1.400 . S
C1635 C1634 1.385 . S
C1636 C1634 1.478 . S
C1636 C1638 1.381 . S
C1636 C1642 1.383 . S
C1637 C1633 1.495 . S
C1637 H1643 0.959 . S
C1637 H1644 0.961 . S
C1637 H1645 0.960 . S
C1638 C1636 1.381 . S
C1638 C1639 1.394 . S
C1638 H1646 0.930 . S
C1639 C1638 1.394 . S
C1639 C1640 1.383 . S
C1639 H1647 0.929 . S
C1640 C1639 1.383 . S
C1640 C1641 1.377 . S
C1641 H1625 0.930 . S
C1641 C1640 1.377 . S
C1641 C1642 1.379 . S
C1642 H1626 0.931 . S
C1642 C1636 1.383 . S
C1642 C1641 1.379 . S
H1643 C1637 0.959 . S
H1644 C1637 0.961 . S
H1645 C1637 0.960 . S
H1646 C1638 0.930 . S
H1647 C1639 0.929 . S
H1648 C1656 0.929 . S
H1649 C1658 0.930 . S
H1650 C1660 0.930 . S
H1651 C1663 0.929 . S
H1652 C1666 0.930 . S
H1653 C1668 0.960 . S
H1654 C1668 0.960 . S
H1655 C1668 0.960 . S
C1656 H1648 0.929 . S
C1656 C1657 1.377 . S
C1656 C1658 1.384 . S
C1657 C1656 1.377 . S
C1657 C1663 1.390 . S
C1658 H1649 0.930 . S
C1658 C1656 1.384 . S
C1658 C1659 1.372 . S
C1659 C1658 1.372 . S
C1659 C1660 1.400 . S
C1659 C1664 1.490 . S
C1660 H1650 0.930 . S
C1660 C1659 1.400 . S
C1660 C1663 1.386 . S
H1661 C1677 0.930 . S
H1662 C1678 0.931 . S
C1663 H1651 0.929 . S
C1663 C1657 1.390 . S
C1663 C1660 1.386 . S
C1664 C1659 1.490 . S
C1664 C1666 1.395 . S
C1664 C1667 1.403 . S
H1665 C1671 0.930 . S
C1666 H1652 0.930 . S
C1666 C1664 1.395 . S
C1666 C1669 1.403 . S
C1667 C1664 1.403 . S
C1667 C1668 1.524 . S
C1667 C1671 1.400 . S
C1668 H1653 0.960 . S
C1668 H1654 0.960 . S
C1668 H1655 0.960 . S
C1668 C1667 1.524 . S
C1669 C1666 1.403 . S
C1669 C1670 1.392 . S
C1669 C1673 1.495 . S
C1670 C1669 1.392 . S
C1670 C1671 1.385 . S
C1670 C1672 1.478 . S
C1671 H1665 0.930 . S
C1671 C1667 1.400 . S
C1671 C1670 1.385 . S
C1672 C1670 1.478 . S
C1672 C1674 1.381 . S
C1672 C1678 1.383 . S
C1673 C1669 1.495 . S
C1673 H1679 0.959 . S
C1673 H1680 0.961 . S
C1673 H1681 0.960 . S
C1674 C1672 1.381 . S
C1674 C1675 1.394 . S
C1674 H1682 0.930 . S
C1675 C1674 1.394 . S
C1675 C1676 1.383 . S
C1675 H1683 0.929 . S
C1676 C1675 1.383 . S
C1676 C1677 1.377 . S
C1677 H1661 0.930 . S
C1677 C1676 1.377 . S
C1677 C1678 1.379 . S
C1678 H1662 0.931 . S
C1678 C1672 1.383 . S
C1678 C1677 1.379 . S
H1679 C1673 0.959 . S
H1680 C1673 0.961 . S
H1681 C1673 0.960 . S
H1682 C1674 0.930 . S
H1683 C1675 0.929 . S
H1684 C1692 0.929 . S
H1685 C1694 0.930 . S
H1686 C1696 0.930 . S
H1687 C1699 0.929 . S
H1688 C1702 0.930 . S
H1689 C1704 0.960 . S
H1690 C1704 0.960 . S
H1691 C1704 0.960 . S
C1692 H1684 0.929 . S
C1692 C1693 1.377 . S
C1692 C1694 1.384 . S
C1693 C1692 1.377 . S
C1693 C1699 1.390 . S
C1694 H1685 0.930 . S
C1694 C1692 1.384 . S
C1694 C1695 1.372 . S
C1695 C1694 1.372 . S
C1695 C1696 1.400 . S
C1695 C1700 1.490 . S
C1696 H1686 0.930 . S
C1696 C1695 1.400 . S
C1696 C1699 1.386 . S
H1697 C1713 0.930 . S
H1698 C1714 0.931 . S
C1699 H1687 0.929 . S
C1699 C1693 1.390 . S
C1699 C1696 1.386 . S
C1700 C1695 1.490 . S
C1700 C1702 1.395 . S
C1700 C1703 1.403 . S
H1701 C1707 0.930 . S
C1702 H1688 0.930 . S
C1702 C1700 1.395 . S
C1702 C1705 1.403 . S
C1703 C1700 1.403 . S
C1703 C1704 1.524 . S
C1703 C1707 1.400 . S
C1704 H1689 0.960 . S
C1704 H1690 0.960 . S
C1704 H1691 0.960 . S
C1704 C1703 1.524 . S
C1705 C1702 1.403 . S
C1705 C1706 1.392 . S
C1705 C1709 1.495 . S
C1706 C1705 1.392 . S
C1706 C1707 1.385 . S
C1706 C1708 1.478 . S
C1707 H1701 0.930 . S
C1707 C1703 1.400 . S
C1707 C1706 1.385 . S
C1708 C1706 1.478 . S
C1708 C1710 1.381 . S
C1708 C1714 1.383 . S
C1709 C1705 1.495 . S
C1709 H1715 0.959 . S
C1709 H1716 0.961 . S
C1709 H1717 0.960 . S
C1710 C1708 1.381 . S
C1710 C1711 1.394 . S
C1710 H1718 0.930 . S
C1711 C1710 1.394 . S
C1711 C1712 1.383 . S
C1711 H1719 0.929 . S
C1712 C1711 1.383 . S
C1712 C1713 1.377 . S
C1713 H1697 0.930 . S
C1713 C1712 1.377 . S
C1713 C1714 1.379 . S
C1714 H1698 0.931 . S
C1714 C1708 1.383 . S
C1714 C1713 1.379 . S
H1715 C1709 0.959 . S
H1716 C1709 0.961 . S
H1717 C1709 0.960 . S
H1718 C1710 0.930 . S
H1719 C1711 0.929 . S
H1720 C1728 0.929 . S
H1721 C1730 0.930 . S
H1722 C1732 0.930 . S
H1723 C1735 0.929 . S
H1724 C1738 0.930 . S
H1725 C1740 0.960 . S
H1726 C1740 0.960 . S
H1727 C1740 0.960 . S
C1728 H1720 0.929 . S
C1728 C1729 1.377 . S
C1728 C1730 1.384 . S
C1729 C1728 1.377 . S
C1729 C1735 1.390 . S
C1730 H1721 0.930 . S
C1730 C1728 1.384 . S
C1730 C1731 1.372 . S
C1731 C1730 1.372 . S
C1731 C1732 1.400 . S
C1731 C1736 1.490 . S
C1732 H1722 0.930 . S
C1732 C1731 1.400 . S
C1732 C1735 1.386 . S
H1733 C1749 0.930 . S
H1734 C1750 0.931 . S
C1735 H1723 0.929 . S
C1735 C1729 1.390 . S
C1735 C1732 1.386 . S
C1736 C1731 1.490 . S
C1736 C1738 1.395 . S
C1736 C1739 1.403 . S
H1737 C1743 0.930 . S
C1738 H1724 0.930 . S
C1738 C1736 1.395 . S
C1738 C1741 1.403 . S
C1739 C1736 1.403 . S
C1739 C1740 1.524 . S
C1739 C1743 1.400 . S
C1740 H1725 0.960 . S
C1740 H1726 0.960 . S
C1740 H1727 0.960 . S
C1740 C1739 1.524 . S
C1741 C1738 1.403 . S
C1741 C1742 1.392 . S
C1741 C1745 1.495 . S
C1742 C1741 1.392 . S
C1742 C1743 1.385 . S
C1742 C1744 1.478 . S
C1743 H1737 0.930 . S
C1743 C1739 1.400 . S
C1743 C1742 1.385 . S
C1744 C1742 1.478 . S
C1744 C1746 1.381 . S
C1744 C1750 1.383 . S
C1745 C1741 1.495 . S
C1745 H1751 0.959 . S
C1745 H1752 0.961 . S
C1745 H1753 0.960 . S
C1746 C1744 1.381 . S
C1746 C1747 1.394 . S
C1746 H1754 0.930 . S
C1747 C1746 1.394 . S
C1747 C1748 1.383 . S
C1747 H1755 0.929 . S
C1748 C1747 1.383 . S
C1748 C1749 1.377 . S
C1749 H1733 0.930 . S
C1749 C1748 1.377 . S
C1749 C1750 1.379 . S
C1750 H1734 0.931 . S
C1750 C1744 1.383 . S
C1750 C1749 1.379 . S
H1751 C1745 0.959 . S
H1752 C1745 0.961 . S
H1753 C1745 0.960 . S
H1754 C1746 0.930 . S
H1755 C1747 0.929 . S
H1756 C1764 0.929 . S
H1757 C1766 0.930 . S
H1758 C1768 0.930 . S
H1759 C1771 0.929 . S
H1760 C1774 0.930 . S
H1761 C1776 0.960 . S
H1762 C1776 0.960 . S
H1763 C1776 0.960 . S
C1764 H1756 0.929 . S
C1764 C1765 1.377 . S
C1764 C1766 1.384 . S
C1765 C1764 1.377 . S
C1765 C1771 1.390 . S
C1766 H1757 0.930 . S
C1766 C1764 1.384 . S
C1766 C1767 1.372 . S
C1767 C1766 1.372 . S
C1767 C1768 1.400 . S
C1767 C1772 1.490 . S
C1768 H1758 0.930 . S
C1768 C1767 1.400 . S
C1768 C1771 1.386 . S
H1769 C1785 0.930 . S
H1770 C1786 0.931 . S
C1771 H1759 0.929 . S
C1771 C1765 1.390 . S
C1771 C1768 1.386 . S
C1772 C1767 1.490 . S
C1772 C1774 1.395 . S
C1772 C1775 1.403 . S
H1773 C1779 0.930 . S
C1774 H1760 0.930 . S
C1774 C1772 1.395 . S
C1774 C1777 1.403 . S
C1775 C1772 1.403 . S
C1775 C1776 1.524 . S
C1775 C1779 1.400 . S
C1776 H1761 0.960 . S
C1776 H1762 0.960 . S
C1776 H1763 0.960 . S
C1776 C1775 1.524 . S
C1777 C1774 1.403 . S
C1777 C1778 1.392 . S
C1777 C1781 1.495 . S
C1778 C1777 1.392 . S
C1778 C1779 1.385 . S
C1778 C1780 1.478 . S
C1779 H1773 0.930 . S
C1779 C1775 1.400 . S
C1779 C1778 1.385 . S
C1780 C1778 1.478 . S
C1780 C1782 1.381 . S
C1780 C1786 1.383 . S
C1781 C1777 1.495 . S
C1781 H1787 0.959 . S
C1781 H1788 0.961 . S
C1781 H1789 0.960 . S
C1782 C1780 1.381 . S
C1782 C1783 1.394 . S
C1782 H1790 0.930 . S
C1783 C1782 1.394 . S
C1783 C1784 1.383 . S
C1783 H1791 0.929 . S
C1784 C1783 1.383 . S
C1784 C1785 1.377 . S
C1785 H1769 0.930 . S
C1785 C1784 1.377 . S
C1785 C1786 1.379 . S
C1786 H1770 0.931 . S
C1786 C1780 1.383 . S
C1786 C1785 1.379 . S
H1787 C1781 0.959 . S
H1788 C1781 0.961 . S
H1789 C1781 0.960 . S
H1790 C1782 0.930 . S
H1791 C1783 0.929 . S
H1792 C1800 0.929 . S
H1793 C1802 0.930 . S
H1794 C1804 0.930 . S
H1795 C1807 0.929 . S
H1796 C1810 0.930 . S
H1797 C1812 0.960 . S
H1798 C1812 0.960 . S
H1799 C1812 0.960 . S
C1800 H1792 0.929 . S
C1800 C1801 1.377 . S
C1800 C1802 1.384 . S
C1801 C1800 1.377 . S
C1801 C1807 1.390 . S
C1802 H1793 0.930 . S
C1802 C1800 1.384 . S
C1802 C1803 1.372 . S
C1803 C1802 1.372 . S
C1803 C1804 1.400 . S
C1803 C1808 1.490 . S
C1804 H1794 0.930 . S
C1804 C1803 1.400 . S
C1804 C1807 1.386 . S
H1805 C1821 0.930 . S
H1806 C1822 0.931 . S
C1807 H1795 0.929 . S
C1807 C1801 1.390 . S
C1807 C1804 1.386 . S
C1808 C1803 1.490 . S
C1808 C1810 1.395 1_556 S
C1808 C1811 1.403 . S
H1809 C1815 0.930 . S
C1810 H1796 0.930 . S
C1810 C1808 1.395 1_554 S
C1810 C1813 1.403 . S
C1811 C1808 1.403 . S
C1811 C1812 1.524 . S
C1811 C1815 1.400 . S
C1812 H1797 0.960 . S
C1812 H1798 0.960 . S
C1812 H1799 0.960 . S
C1812 C1811 1.524 . S
C1813 C1810 1.403 . S
C1813 C1814 1.392 . S
C1813 C1817 1.495 . S
C1814 C1813 1.392 . S
C1814 C1815 1.385 1_554 S
C1814 C1816 1.478 . S
C1815 H1809 0.930 . S
C1815 C1811 1.400 . S
C1815 C1814 1.385 1_556 S
C1816 C1814 1.478 . S
C1816 C1818 1.381 . S
C1816 C1822 1.383 . S
C1817 C1813 1.495 . S
C1817 H1823 0.959 . S
C1817 H1824 0.961 . S
C1817 H1825 0.960 . S
C1818 C1816 1.381 . S
C1818 C1819 1.394 . S
C1818 H1826 0.930 . S
C1819 C1818 1.394 . S
C1819 C1820 1.383 . S
C1819 H1827 0.929 . S
C1820 C1819 1.383 . S
C1820 C1821 1.377 . S
C1821 H1805 0.930 . S
C1821 C1820 1.377 . S
C1821 C1822 1.379 . S
C1822 H1806 0.931 . S
C1822 C1816 1.383 . S
C1822 C1821 1.379 . S
H1823 C1817 0.959 . S
H1824 C1817 0.961 . S
H1825 C1817 0.960 . S
H1826 C1818 0.930 . S
H1827 C1819 0.929 . S
H1828 C1836 0.933 . S
H1829 C1838 0.930 1_556 S
H1830 C1840 0.930 . S
H1831 C1843 0.929 . S
H1832 C1846 0.930 . S
H1833 C1848 0.960 . S
H1834 C1848 0.960 1_556 S
H1835 C1848 0.960 . S
C1836 H1828 0.933 . S
C1836 C1837 1.377 . S
C1836 C1838 1.384 . S
C1837 C1836 1.377 . S
C1837 C1843 1.390 . S
C1838 H1829 0.930 1_554 S
C1838 C1836 1.384 . S
C1838 C1839 1.372 . S
C1839 C1838 1.372 . S
C1839 C1840 1.400 . S
C1839 C1844 1.490 . S
C1840 H1830 0.930 . S
C1840 C1839 1.400 . S
C1840 C1843 1.386 . S
H1841 C1857 0.930 1_554 S
H1842 C1858 0.931 1_554 S
C1843 H1831 0.929 . S
C1843 C1837 1.390 . S
C1843 C1840 1.386 . S
C1844 C1839 1.490 . S
C1844 C1846 1.395 . S
C1844 C1847 1.403 . S
H1845 C1851 0.930 . S
C1846 H1832 0.930 . S
C1846 C1844 1.395 . S
C1846 C1849 1.403 1_554 S
C1847 C1844 1.403 . S
C1847 C1848 1.524 . S
C1847 C1851 1.400 1_554 S
C1848 H1833 0.960 . S
C1848 H1834 0.960 1_554 S
C1848 H1835 0.960 . S
C1848 C1847 1.524 . S
C1849 C1846 1.403 1_556 S
C1849 C1850 1.392 . S
C1849 C1853 1.495 . S
C1850 C1849 1.392 . S
C1850 C1851 1.385 . S
C1850 C1852 1.478 . S
C1851 H1845 0.930 . S
C1851 C1847 1.400 1_556 S
C1851 C1850 1.385 . S
C1852 C1850 1.478 . S
C1852 C1854 1.381 . S
C1852 C1858 1.383 . S
C1853 C1849 1.495 . S
C1853 H1859 0.959 . S
C1853 H1860 0.961 . S
C1853 H1861 0.960 . S
C1854 C1852 1.381 . S
C1854 C1855 1.394 . S
C1854 H1862 0.930 . S
C1855 C1854 1.394 . S
C1855 C1856 1.383 . S
C1855 H1863 0.929 . S
C1856 C1855 1.383 . S
C1856 C1857 1.377 . S
C1857 H1841 0.930 1_556 S
C1857 C1856 1.377 . S
C1857 C1858 1.379 . S
C1858 H1842 0.931 1_556 S
C1858 C1852 1.383 . S
C1858 C1857 1.379 . S
H1859 C1853 0.959 . S
H1860 C1853 0.961 . S
H1861 C1853 0.960 . S
H1862 C1854 0.930 . S
H1863 C1855 0.929 . S
H1864 C1872 0.929 . S
H1865 C1874 0.930 . S
H1866 C1876 0.930 1_556 S
H1867 C1879 0.929 . S
H1868 C1882 0.930 . S
H1869 C1884 0.960 . S
H1870 C1884 0.960 . S
H1871 C1884 0.960 . S
C1872 H1864 0.929 . S
C1872 C1873 1.377 . S
C1872 C1874 1.384 . S
C1873 C1872 1.377 . S
C1873 C1879 1.390 . S
C1874 H1865 0.930 . S
C1874 C1872 1.384 . S
C1874 C1875 1.372 . S
C1875 C1874 1.372 . S
C1875 C1876 1.400 . S
C1875 C1880 1.490 . S
C1876 H1866 0.930 1_554 S
C1876 C1875 1.400 . S
C1876 C1879 1.386 . S
H1877 C1893 0.930 . S
H1878 C1894 0.931 . S
C1879 H1867 0.929 . S
C1879 C1873 1.390 . S
C1879 C1876 1.386 . S
C1880 C1875 1.490 . S
C1880 C1882 1.395 . S
C1880 C1883 1.403 1_554 S
H1881 C1887 0.930 . S
C1882 H1868 0.930 . S
C1882 C1880 1.395 . S
C1882 C1885 1.403 . S
C1883 C1880 1.403 1_556 S
C1883 C1884 1.524 . S
C1883 C1887 1.400 . S
C1884 H1869 0.960 . S
C1884 H1870 0.960 . S
C1884 H1871 0.960 . S
C1884 C1883 1.524 . S
C1885 C1882 1.403 . S
C1885 C1886 1.392 1_554 S
C1885 C1889 1.495 . S
C1886 C1885 1.392 1_556 S
C1886 C1887 1.385 . S
C1886 C1888 1.478 . S
C1887 H1881 0.930 . S
C1887 C1883 1.400 . S
C1887 C1886 1.385 . S
C1888 C1886 1.478 . S
C1888 C1890 1.381 . S
C1888 C1894 1.383 . S
C1889 C1885 1.495 . S
C1889 H1895 0.959 . S
C1889 H1896 0.961 . S
C1889 H1897 0.960 . S
C1890 C1888 1.381 . S
C1890 C1891 1.394 . S
C1890 H1898 0.930 1_556 S
C1891 C1890 1.394 . S
C1891 C1892 1.383 . S
C1891 H1899 0.929 . S
C1892 C1891 1.383 . S
C1892 C1893 1.377 . S
C1893 H1877 0.930 . S
C1893 C1892 1.377 . S
C1893 C1894 1.379 . S
C1894 H1878 0.931 . S
C1894 C1888 1.383 . S
C1894 C1893 1.379 . S
H1895 C1889 0.959 . S
H1896 C1889 0.961 . S
H1897 C1889 0.960 . S
H1898 C1890 0.930 1_554 S
H1899 C1891 0.929 . S
H1900 C1908 0.929 . S
H1901 C1910 0.930 . S
H1902 C1912 0.930 1_556 S
H1903 C1915 0.929 . S
H1904 C1918 0.930 . S
H1905 C1920 0.960 . S
H1906 C1920 0.960 . S
H1907 C1920 0.960 . S
C1908 H1900 0.929 . S
C1908 C1909 1.377 . S
C1908 C1910 1.384 . S
C1909 C1908 1.377 . S
C1909 C1915 1.390 . S
C1910 H1901 0.930 . S
C1910 C1908 1.384 . S
C1910 C1911 1.372 . S
C1911 C1910 1.372 . S
C1911 C1912 1.400 . S
C1911 C1916 1.490 . S
C1912 H1902 0.930 1_554 S
C1912 C1911 1.400 . S
C1912 C1915 1.386 . S
H1913 C1929 0.930 . S
H1914 C1930 0.931 . S
C1915 H1903 0.929 . S
C1915 C1909 1.390 . S
C1915 C1912 1.386 . S
C1916 C1911 1.490 . S
C1916 C1918 1.395 1_554 S
C1916 C1919 1.403 . S
H1917 C1923 0.930 . S
C1918 H1904 0.930 . S
C1918 C1916 1.395 1_556 S
C1918 C1921 1.403 . S
C1919 C1916 1.403 . S
C1919 C1920 1.524 . S
C1919 C1923 1.400 . S
C1920 H1905 0.960 . S
C1920 H1906 0.960 . S
C1920 H1907 0.960 . S
C1920 C1919 1.524 . S
C1921 C1918 1.403 . S
C1921 C1922 1.392 . S
C1921 C1925 1.495 . S
C1922 C1921 1.392 . S
C1922 C1923 1.385 1_556 S
C1922 C1924 1.478 . S
C1923 H1917 0.930 . S
C1923 C1919 1.400 . S
C1923 C1922 1.385 1_554 S
C1924 C1922 1.478 . S
C1924 C1926 1.381 . S
C1924 C1930 1.383 . S
C1925 C1921 1.495 . S
C1925 H1931 0.959 . S
C1925 H1932 0.961 . S
C1925 H1933 0.960 . S
C1926 C1924 1.381 . S
C1926 C1927 1.394 . S
C1926 H1934 0.930 1_556 S
C1927 C1926 1.394 . S
C1927 C1928 1.383 . S
C1927 H1935 0.929 . S
C1928 C1927 1.383 . S
C1928 C1929 1.377 . S
C1929 H1913 0.930 . S
C1929 C1928 1.377 . S
C1929 C1930 1.379 . S
C1930 H1914 0.931 . S
C1930 C1924 1.383 . S
C1930 C1929 1.379 . S
H1931 C1925 0.959 . S
H1932 C1925 0.961 . S
H1933 C1925 0.960 . S
H1934 C1926 0.930 1_554 S
H1935 C1927 0.929 . S
H1936 C1944 0.929 . S
H1937 C1946 0.930 . S
H1938 C1948 0.930 . S
H1939 C1951 0.929 . S
H1940 C1954 0.930 . S
H1941 C1956 0.960 . S
H1942 C1956 0.960 . S
H1943 C1956 0.960 . S
C1944 H1936 0.929 . S
C1944 C1945 1.377 . S
C1944 C1946 1.384 . S
C1945 C1944 1.377 . S
C1945 C1951 1.390 . S
C1946 H1937 0.930 . S
C1946 C1944 1.384 . S
C1946 C1947 1.372 . S
C1947 C1946 1.372 . S
C1947 C1948 1.400 . S
C1947 C1952 1.490 . S
C1948 H1938 0.930 . S
C1948 C1947 1.400 . S
C1948 C1951 1.386 . S
H1949 C1965 0.930 . S
H1950 C1966 0.931 . S
C1951 H1939 0.929 . S
C1951 C1945 1.390 . S
C1951 C1948 1.386 . S
C1952 C1947 1.490 . S
C1952 C1954 1.395 . S
C1952 C1955 1.403 . S
H1953 C1959 0.930 . S
C1954 H1940 0.930 . S
C1954 C1952 1.395 . S
C1954 C1957 1.403 . S
C1955 C1952 1.403 . S
C1955 C1956 1.524 . S
C1955 C1959 1.400 . S
C1956 H1941 0.960 . S
C1956 H1942 0.960 . S
C1956 H1943 0.960 . S
C1956 C1955 1.524 . S
C1957 C1954 1.403 . S
C1957 C1958 1.392 . S
C1957 C1961 1.495 . S
C1958 C1957 1.392 . S
C1958 C1959 1.385 . S
C1958 C1960 1.478 . S
C1959 H1953 0.930 . S
C1959 C1955 1.400 . S
C1959 C1958 1.385 . S
C1960 C1958 1.478 . S
C1960 C1962 1.381 . S
C1960 C1966 1.383 . S
C1961 C1957 1.495 . S
C1961 H1967 0.959 . S
C1961 H1968 0.961 . S
C1961 H1969 0.960 . S
C1962 C1960 1.381 . S
C1962 C1963 1.394 . S
C1962 H1970 0.930 . S
C1963 C1962 1.394 . S
C1963 C1964 1.383 . S
C1963 H1971 0.929 . S
C1964 C1963 1.383 . S
C1964 C1965 1.377 . S
C1965 H1949 0.930 . S
C1965 C1964 1.377 . S
C1965 C1966 1.379 . S
C1966 H1950 0.931 . S
C1966 C1960 1.383 . S
C1966 C1965 1.379 . S
H1967 C1961 0.959 . S
H1968 C1961 0.961 . S
H1969 C1961 0.960 . S
H1970 C1962 0.930 . S
H1971 C1963 0.929 . S
H1972 C1980 0.929 . S
H1973 C1982 0.930 . S
H1974 C1984 0.930 . S
H1975 C1987 0.929 . S
H1976 C1990 0.930 . S
H1977 C1992 0.960 . S
H1978 C1992 0.960 . S
H1979 C1992 0.960 . S
C1980 H1972 0.929 . S
C1980 C1981 1.377 . S
C1980 C1982 1.384 . S
C1981 C1980 1.377 . S
C1981 C1987 1.390 . S
C1982 H1973 0.930 . S
C1982 C1980 1.384 . S
C1982 C1983 1.372 . S
C1983 C1982 1.372 . S
C1983 C1984 1.400 . S
C1983 C1988 1.490 . S
C1984 H1974 0.930 . S
C1984 C1983 1.400 . S
C1984 C1987 1.386 . S
H1985 C2001 0.930 . S
H1986 C2002 0.931 . S
C1987 H1975 0.929 . S
C1987 C1981 1.390 . S
C1987 C1984 1.386 . S
C1988 C1983 1.490 . S
C1988 C1990 1.395 . S
C1988 C1991 1.403 . S
H1989 C1995 0.930 . S
C1990 H1976 0.930 . S
C1990 C1988 1.395 . S
C1990 C1993 1.403 . S
C1991 C1988 1.403 . S
C1991 C1992 1.524 . S
C1991 C1995 1.400 . S
C1992 H1977 0.960 . S
C1992 H1978 0.960 . S
C1992 H1979 0.960 . S
C1992 C1991 1.524 . S
C1993 C1990 1.403 . S
C1993 C1994 1.392 . S
C1993 C1997 1.495 . S
C1994 C1993 1.392 . S
C1994 C1995 1.385 . S
C1994 C1996 1.478 . S
C1995 H1989 0.930 . S
C1995 C1991 1.400 . S
C1995 C1994 1.385 . S
C1996 C1994 1.478 . S
C1996 C1998 1.381 . S
C1996 C2002 1.383 . S
C1997 C1993 1.495 . S
C1997 H2003 0.959 . S
C1997 H2004 0.961 . S
C1997 H2005 0.960 . S
C1998 C1996 1.381 . S
C1998 C1999 1.394 . S
C1998 H2006 0.930 . S
C1999 C1998 1.394 . S
C1999 C2000 1.383 . S
C1999 H2007 0.929 . S
C2000 C1999 1.383 . S
C2000 C2001 1.377 . S
C2001 H1985 0.930 . S
C2001 C2000 1.377 . S
C2001 C2002 1.379 . S
C2002 H1986 0.931 . S
C2002 C1996 1.383 . S
C2002 C2001 1.379 . S
H2003 C1997 0.959 . S
H2004 C1997 0.961 . S
H2005 C1997 0.960 . S
H2006 C1998 0.930 . S
H2007 C1999 0.929 . S
H2008 C2016 0.929 . S
H2009 C2018 0.930 . S
H2010 C2020 0.930 . S
H2011 C2023 0.929 . S
H2012 C2026 0.930 . S
H2013 C2028 0.960 . S
H2014 C2028 0.960 . S
H2015 C2028 0.960 . S
C2016 H2008 0.929 . S
C2016 C2017 1.377 . S
C2016 C2018 1.384 . S
C2017 C2016 1.377 . S
C2017 C2023 1.390 . S
C2018 H2009 0.930 . S
C2018 C2016 1.384 . S
C2018 C2019 1.372 . S
C2019 C2018 1.372 . S
C2019 C2020 1.400 . S
C2019 C2024 1.490 . S
C2020 H2010 0.930 . S
C2020 C2019 1.400 . S
C2020 C2023 1.386 . S
H2021 C2037 0.930 . S
H2022 C2038 0.931 . S
C2023 H2011 0.929 . S
C2023 C2017 1.390 . S
C2023 C2020 1.386 . S
C2024 C2019 1.490 . S
C2024 C2026 1.395 . S
C2024 C2027 1.403 . S
H2025 C2031 0.930 . S
C2026 H2012 0.930 . S
C2026 C2024 1.395 . S
C2026 C2029 1.403 . S
C2027 C2024 1.403 . S
C2027 C2028 1.524 . S
C2027 C2031 1.400 . S
C2028 H2013 0.960 . S
C2028 H2014 0.960 . S
C2028 H2015 0.960 . S
C2028 C2027 1.524 . S
C2029 C2026 1.403 . S
C2029 C2030 1.392 . S
C2029 C2033 1.495 . S
C2030 C2029 1.392 . S
C2030 C2031 1.385 . S
C2030 C2032 1.478 . S
C2031 H2025 0.930 . S
C2031 C2027 1.400 . S
C2031 C2030 1.385 . S
C2032 C2030 1.478 . S
C2032 C2034 1.381 . S
C2032 C2038 1.383 . S
C2033 C2029 1.495 . S
C2033 H2039 0.959 . S
C2033 H2040 0.961 . S
C2033 H2041 0.960 . S
C2034 C2032 1.381 . S
C2034 C2035 1.394 . S
C2034 H2042 0.930 . S
C2035 C2034 1.394 . S
C2035 C2036 1.383 . S
C2035 H2043 0.929 . S
C2036 C2035 1.383 . S
C2036 C2037 1.377 . S
C2037 H2021 0.930 . S
C2037 C2036 1.377 . S
C2037 C2038 1.379 . S
C2038 H2022 0.931 . S
C2038 C2032 1.383 . S
C2038 C2037 1.379 . S
H2039 C2033 0.959 . S
H2040 C2033 0.961 . S
H2041 C2033 0.960 . S
H2042 C2034 0.930 . S
H2043 C2035 0.929 . S
H2044 C2052 0.929 . S
H2045 C2054 0.930 . S
H2046 C2056 0.930 . S
H2047 C2059 0.929 . S
H2048 C2062 0.930 . S
H2049 C2064 0.960 . S
H2050 C2064 0.960 . S
H2051 C2064 0.960 . S
C2052 H2044 0.929 . S
C2052 C2053 1.377 . S
C2052 C2054 1.384 . S
C2053 C2052 1.377 . S
C2053 C2059 1.390 . S
C2054 H2045 0.930 . S
C2054 C2052 1.384 . S
C2054 C2055 1.372 . S
C2055 C2054 1.372 . S
C2055 C2056 1.400 . S
C2055 C2060 1.490 . S
C2056 H2046 0.930 . S
C2056 C2055 1.400 . S
C2056 C2059 1.386 . S
H2057 C2073 0.930 . S
H2058 C2074 0.931 . S
C2059 H2047 0.929 . S
C2059 C2053 1.390 . S
C2059 C2056 1.386 . S
C2060 C2055 1.490 . S
C2060 C2062 1.395 . S
C2060 C2063 1.403 . S
H2061 C2067 0.930 . S
C2062 H2048 0.930 . S
C2062 C2060 1.395 . S
C2062 C2065 1.403 . S
C2063 C2060 1.403 . S
C2063 C2064 1.524 . S
C2063 C2067 1.400 . S
C2064 H2049 0.960 . S
C2064 H2050 0.960 . S
C2064 H2051 0.960 . S
C2064 C2063 1.524 . S
C2065 C2062 1.403 . S
C2065 C2066 1.392 . S
C2065 C2069 1.495 . S
C2066 C2065 1.392 . S
C2066 C2067 1.385 . S
C2066 C2068 1.478 . S
C2067 H2061 0.930 . S
C2067 C2063 1.400 . S
C2067 C2066 1.385 . S
C2068 C2066 1.478 . S
C2068 C2070 1.381 . S
C2068 C2074 1.383 . S
C2069 C2065 1.495 . S
C2069 H2075 0.959 . S
C2069 H2076 0.961 . S
C2069 H2077 0.960 . S
C2070 C2068 1.381 . S
C2070 C2071 1.394 . S
C2070 H2078 0.930 . S
C2071 C2070 1.394 . S
C2071 C2072 1.383 . S
C2071 H2079 0.929 . S
C2072 C2071 1.383 . S
C2072 C2073 1.377 . S
C2073 H2057 0.930 . S
C2073 C2072 1.377 . S
C2073 C2074 1.379 . S
C2074 H2058 0.931 . S
C2074 C2068 1.383 . S
C2074 C2073 1.379 . S
H2075 C2069 0.959 . S
H2076 C2069 0.961 . S
H2077 C2069 0.960 . S
H2078 C2070 0.930 . S
H2079 C2071 0.929 . S
C361 C8 1.078 . S
C380 C118 1.056 . S
C397 C32 1.066 . S
C416 C140 1.094 . S
C433 C162 1.067 . S
C452 C62 1.067 . S
C469 C96 1.078 . S
C488 C74 1.057 . S
C505 C294 1.073 . S
C524 C186 1.092 . S
C541 C208 1.078 . S
C560 C316 1.054 . S
C577 C340 1.075 . S
C596 C230 1.083 . S
C613 C272 1.070 . S
C632 C252 1.101 . S
C649 C7 1.448 1_565 S
C668 C37 1.371 . S
C685 C51 1.399 . S
C704 C43 1.435 1_655 S
C721 C87 1.398 . S
C740 C59 1.437 1_545 S
C757 C73 1.451 1_455 S
C776 C21 1.418 . S
C793 C95 1.449 1_565 S
C812 C175 1.425 . S
C829 C109 1.397 . S
C848 C117 1.438 1_655 S
C865 C131 1.403 . S
C884 C139 1.438 1_545 S
C901 C153 1.408 . S
C920 C161 1.452 1_455 S
C937 C197 1.447 . S
C956 C213 1.391 . S
C973 C235 1.408 . S
C992 C219 1.451 . S
C1009 C241 1.449 . S
C1028 C257 1.425 . S
C1045 C263 1.448 . S
C1064 C191 1.410 . S
C1081 C345 1.398 . S
C1100 C271 1.449 . S
C1117 C285 1.398 . S
C1136 C293 1.448 . S
C1153 C307 1.397 . S
C1172 C315 1.446 . S
C1189 C351 1.450 . S
C1208 C329 1.383 . S
C1225 C150 1.194 . S
C1244 C15 1.183 . S
C1261 C172 1.203 . S
C1280 C29 1.183 . S
C1297 C65 1.208 . S
C1316 C106 1.217 . S
C1333 C81 1.206 . S
C1352 C128 1.176 . S
C1369 C54 1.199 . S
C1388 C103 1.212 . S
C1405 C125 1.200 . S
C1424 C84 1.177 . S
C1441 C147 1.204 . S
C1460 C18 1.210 . S
C1477 C30 1.194 . S
C1496 C169 1.185 . S
C1513 C183 1.205 . S
C1532 C326 1.210 . S
C1549 C205 1.203 . S
C1568 C338 1.212 . S
C1585 C282 1.196 . S
C1604 C227 1.187 . S
C1621 C249 1.204 . S
C1640 C304 1.185 . S
C1657 C279 1.200 . S
C1676 C228 1.217 . S
C1693 C301 1.208 . S
C1712 C250 1.218 . S
C1729 C323 1.208 . S
C1748 C184 1.180 . S
C1765 C206 1.203 . S
C1784 C337 1.214 . S
C1801 C348 1.294 . S
C1820 C10 1.317 . S
C1837 C274 1.283 . S
C1856 C40 1.308 . S
C1873 C52 1.285 . S
C1892 C296 1.283 . S
C1909 C318 1.294 . S
C1928 C76 1.274 . S
C1945 C98 1.289 . S
C1964 C216 1.300 . S
C1981 C120 1.285 . S
C2000 C238 1.282 . S
C2017 C260 1.295 . S
C2036 C142 1.260 . S
C2053 C164 1.288 . S
C2072 C194 1.298 . S
