# Generated by pormake.
# Topology neb, (4)-cn, num edge types: 1
# Building blocks:
#     Node 0, Type 0, BuildingBlock: KUFVIS_clean_sbu_0, # of connection points: 4
#     Node 1, Type 0, BuildingBlock: KUFVIS_clean_sbu_0, # of connection points: 4
#     Node 2, Type 0, BuildingBlock: KUFVIS_clean_sbu_0, # of connection points: 4
#     Node 3, Type 0, BuildingBlock: KUFVIS_clean_sbu_0, # of connection points: 4
#     Node 4, Type 0, BuildingBlock: KUFVIS_clean_sbu_0, # of connection points: 4
#     Node 5, Type 0, BuildingBlock: KUFVIS_clean_sbu_0, # of connection points: 4
#     Node 6, Type 0, BuildingBlock: KUFVIS_clean_sbu_0, # of connection points: 4
#     Node 7, Type 0, BuildingBlock: KUFVIS_clean_sbu_0, # of connection points: 4
#     Node 8, Type 0, BuildingBlock: KUFVIS_clean_sbu_0, # of connection points: 4
#     Node 9, Type 0, BuildingBlock: KUFVIS_clean_sbu_0, # of connection points: 4
#     Node 10, Type 0, BuildingBlock: KUFVIS_clean_sbu_0, # of connection points: 4
#     Node 11, Type 0, BuildingBlock: KUFVIS_clean_sbu_0, # of connection points: 4
#     Node 12, Type 0, BuildingBlock: KUFVIS_clean_sbu_0, # of connection points: 4
#     Node 13, Type 0, BuildingBlock: KUFVIS_clean_sbu_0, # of connection points: 4
#     Node 14, Type 0, BuildingBlock: KUFVIS_clean_sbu_0, # of connection points: 4
#     Node 15, Type 0, BuildingBlock: KUFVIS_clean_sbu_0, # of connection points: 4
#     Edge 16, Type (0, 0), None
#     Edge 17, Type (0, 0), None
#     Edge 18, Type (0, 0), None
#     Edge 19, Type (0, 0), None
#     Edge 20, Type (0, 0), None
#     Edge 21, Type (0, 0), None
#     Edge 22, Type (0, 0), None
#     Edge 23, Type (0, 0), None
#     Edge 24, Type (0, 0), None
#     Edge 25, Type (0, 0), None
#     Edge 26, Type (0, 0), None
#     Edge 27, Type (0, 0), None
#     Edge 28, Type (0, 0), None
#     Edge 29, Type (0, 0), None
#     Edge 30, Type (0, 0), None
#     Edge 31, Type (0, 0), None
#     Edge 32, Type (0, 0), None
#     Edge 33, Type (0, 0), None
#     Edge 34, Type (0, 0), None
#     Edge 35, Type (0, 0), None
#     Edge 36, Type (0, 0), None
#     Edge 37, Type (0, 0), None
#     Edge 38, Type (0, 0), None
#     Edge 39, Type (0, 0), None
#     Edge 40, Type (0, 0), None
#     Edge 41, Type (0, 0), None
#     Edge 42, Type (0, 0), None
#     Edge 43, Type (0, 0), None
#     Edge 44, Type (0, 0), None
#     Edge 45, Type (0, 0), None
#     Edge 46, Type (0, 0), None
#     Edge 47, Type (0, 0), None
# Relax obj value: 0.011
# Max RMSD: 0.055
# Mean RMSD: 0.055
data_MOF--net-neb--node1-KUFVIS_clean_sbu_0--edge1-none
_symmetry_space_group_name_H-M    P1
_symmetry_Int_Tables_number       1
_symmetry_cell_setting            triclinic
loop_
_symmetry_equiv_pos_as_xyz
'x, y, z'
_cell_length_a     18.748182
_cell_length_b     10.457448
_cell_length_c     35.540532
_cell_angle_alpha  105.22562
_cell_angle_beta   90.000041
_cell_angle_gamma 89.999478
loop_
_atom_site_label
_atom_site_type_symbol
_atom_site_fract_x
_atom_site_fract_y
_atom_site_fract_z
_atom_type_partial_charge
Mn0 Mn 0.10745 0.11757 0.43796 0.0
Mn1 Mn 0.25607 0.14285 0.38969 0.0
C2 C 0.13037 0.93659 0.38386 0.0
C3 C 0.03951 0.02313 0.48606 0.0
C4 C 0.13829 0.32249 0.39027 0.0
O5 O 0.17897 0.22888 0.48024 0.0
O6 O 0.28404 0.18884 0.44745 0.0
C7 C 0.3422 0.93377 0.40235 0.0
N8 N 0.32343 0.01517 0.37472 0.0
C9 C 0.41572 0.88789 0.30809 0.0
C10 C 0.46232 0.7749 0.32636 0.0
C11 C 0.44238 0.75714 0.37212 0.0
C12 C 0.35066 -0.00161 0.33255 0.0
H13 H 0.3125 0.95815 0.42912 0.0
C14 C 0.24831 0.2212 0.47993 0.0
O15 O 1.01789 0.12515 0.4749 0.0
O16 O 0.10037 0.98605 0.47153 0.0
N17 N 0.2353 0.08762 0.33462 0.0
C18 C 0.16714 0.07272 0.32143 0.0
C19 C 0.1508 0.98 0.28734 0.0
C20 C 0.20385 0.89793 0.26621 0.0
C21 C 0.27469 0.91488 0.27837 0.0
C22 C 0.29005 0.01558 0.31257 0.0
H23 H 0.12294 0.11865 0.33866 0.0
O24 O 0.06716 0.98148 0.39464 0.0
O25 O 0.18303 0.01223 0.40201 0.0
O26 O 0.08801 0.26086 0.40282 0.0
O27 O 0.19899 0.30484 0.40252 0.0
C28 C 0.3282 0.83038 0.25695 0.0
C29 C 0.39972 0.8338 0.26901 0.0
H30 H 0.49714 0.70322 0.30755 0.0
H31 H 0.46681 0.67802 0.3825 0.0
H32 H 0.0962 0.9723 0.27795 0.0
H33 H 0.18987 0.82477 0.23947 0.0
H34 H 0.31412 0.75976 0.22976 0.0
H35 H 0.43613 0.7631 0.25099 0.0
Mn36 Mn 0.10745 0.10644 0.81074 0.0
Mn37 Mn 0.25607 0.0812 0.85903 0.0
C38 C 0.13036 0.28744 0.86484 0.0
C39 C 0.0395 0.20082 0.76264 0.0
C40 C 0.1383 0.90155 0.85843 0.0
O41 O 0.179 -0.00483 0.76847 0.0
O42 O 0.28406 0.03519 0.80127 0.0
C43 C 0.3422 0.29021 0.84635 0.0
N44 N 0.32342 0.20887 0.87399 0.0
C45 C 0.41571 0.33622 0.94062 0.0
C46 C 0.46231 0.44917 0.92234 0.0
C47 C 0.44238 0.46686 0.87657 0.0
C48 C 0.35065 0.22569 0.91616 0.0
H49 H 0.31249 0.26582 0.81959 0.0
C50 C 0.24834 0.00288 0.76878 0.0
O51 O 1.0179 0.09877 0.77378 0.0
O52 O 0.10035 0.23794 0.77717 0.0
N53 N 0.23528 0.13647 0.91409 0.0
C54 C 0.16712 0.15136 0.92728 0.0
C55 C 0.15077 0.24408 0.96137 0.0
C56 C 0.20382 0.32616 0.9825 0.0
C57 C 0.27465 0.30927 0.97034 0.0
C58 C 0.29002 0.20855 0.93614 0.0
H59 H 0.12293 0.1054 0.91005 0.0
O60 O 0.06715 0.24254 0.85405 0.0
O61 O 0.18303 0.21179 0.84669 0.0
O62 O 0.08802 0.96316 0.84588 0.0
O63 O 0.199 0.91922 0.84618 0.0
C64 C 0.32816 0.39378 0.99175 0.0
C65 C 0.39969 0.39038 0.9797 0.0
H66 H 0.49713 0.52087 0.94114 0.0
H67 H 0.4668 0.54597 0.86618 0.0
H68 H 0.09618 0.25176 0.97076 0.0
H69 H 0.18983 0.3993 0.00925 0.0
H70 H 0.31408 0.46437 0.01896 0.0
H71 H 0.4361 0.4611 0.99771 0.0
Mn72 Mn 0.93052 0.85646 0.56074 0.0
Mn73 Mn 0.7819 0.83118 0.60901 0.0
C74 C 0.90759 0.03744 0.61484 0.0
C75 C 0.99846 0.95091 0.51264 0.0
C76 C 0.89967 0.65154 0.60843 0.0
O77 O 0.859 0.74515 0.51845 0.0
O78 O 0.75393 0.78518 0.55124 0.0
C79 C 0.69577 0.04025 0.59634 0.0
N80 N 0.71454 0.95886 0.62398 0.0
C81 C 0.62224 0.08614 0.6906 0.0
C82 C 0.57565 0.19913 0.67233 0.0
C83 C 0.59559 0.21688 0.62658 0.0
C84 C 0.68731 0.97563 0.66614 0.0
H85 H 0.72547 0.01587 0.56958 0.0
C86 C 0.78966 0.75283 0.51876 0.0
O87 O 0.02008 0.84888 0.52379 0.0
O88 O 0.9376 -0.01202 0.52716 0.0
N89 N 0.80267 0.8864 0.66407 0.0
C90 C 0.87083 0.90131 0.67727 0.0
C91 C 0.88717 -0.00597 0.71136 0.0
C92 C 0.83412 0.0761 0.73248 0.0
C93 C 0.76328 0.05915 0.72033 0.0
C94 C 0.74792 0.95845 0.68612 0.0
H95 H 0.91502 0.85538 0.66004 0.0
O96 O 0.97081 -0.00745 0.60406 0.0
O97 O 0.85493 0.96179 0.59669 0.0
O98 O 0.94996 0.71317 0.59588 0.0
O99 O 0.83898 0.66919 0.59617 0.0
C100 C 0.70977 0.14365 0.74174 0.0
C101 C 0.63824 0.14023 0.72969 0.0
H102 H 0.54083 0.27081 0.69115 0.0
H103 H 0.57116 0.29601 0.61619 0.0
H104 H 0.94176 0.00173 0.72075 0.0
H105 H 0.8481 0.14926 0.75922 0.0
H106 H 0.72385 0.21426 0.76894 0.0
H107 H 0.60183 0.21093 0.74771 0.0
Mn108 Mn 0.93052 0.86758 0.18795 0.0
Mn109 Mn 0.7819 0.89282 0.13967 0.0
C110 C 0.9076 0.68659 0.13386 0.0
C111 C 0.99847 0.7732 0.23605 0.0
C112 C 0.89967 0.07247 0.14026 0.0
O113 O 0.85896 0.97885 0.23023 0.0
O114 O 0.7539 0.93883 0.19743 0.0
C115 C 0.69577 0.68381 0.15235 0.0
N116 N 0.71454 0.76516 0.1247 0.0
C117 C 0.62226 0.6378 0.05808 0.0
C118 C 0.57566 0.52486 0.07636 0.0
C119 C 0.59559 0.50717 0.12212 0.0
C120 C 0.68732 0.74833 0.08253 0.0
H121 H 0.72547 0.70821 0.17911 0.0
C122 C 0.78962 0.97115 0.22991 0.0
O123 O 0.02007 0.87526 0.22491 0.0
O124 O 0.93762 0.73608 0.22153 0.0
N125 N 0.80269 0.83756 0.08461 0.0
C126 C 0.87085 0.82267 0.07142 0.0
C127 C 0.8872 0.72995 0.03732 0.0
C128 C 0.83415 0.64786 0.01619 0.0
C129 C 0.76332 0.66476 0.02836 0.0
C130 C 0.74795 0.76547 0.06256 0.0
H131 H 0.91503 0.86863 0.08864 0.0
O132 O 0.97082 0.73149 0.14464 0.0
O133 O 0.85494 0.76223 0.152 0.0
O134 O 0.94995 0.01087 0.15282 0.0
O135 O 0.83897 0.05481 0.15251 0.0
C136 C 0.70981 0.58024 0.00694 0.0
C137 C 0.63828 0.58364 0.019 0.0
H138 H 0.54084 0.45316 0.05755 0.0
H139 H 0.57116 0.42806 0.13252 0.0
H140 H 0.94179 0.72227 0.02794 0.0
H141 H 0.84814 0.57473 0.98945 0.0
H142 H 0.72389 0.50965 0.97974 0.0
H143 H 0.60187 0.51292 0.00098 0.0
Mn144 Mn 0.10745 0.61749 0.93796 0.0
Mn145 Mn 0.256 0.6427 0.88965 0.0
C146 C 0.13034 0.43645 0.88391 0.0
C147 C 0.03952 0.52313 0.98607 0.0
C148 C 0.13828 0.82239 0.89029 0.0
O149 O 0.17904 0.72878 0.98021 0.0
O150 O 0.28409 0.68865 0.9474 0.0
C151 C 0.34228 0.43369 0.90223 0.0
N152 N 0.32334 0.51502 0.8746 0.0
C153 C 0.41541 0.38769 0.80787 0.0
C154 C 0.46215 0.27479 0.8261 0.0
C155 C 0.44242 0.2571 0.87189 0.0
C156 C 0.3504 0.4982 0.8324 0.0
H157 H 0.31271 0.45812 0.92903 0.0
C158 C 0.24838 0.72104 0.97989 0.0
O159 O 1.01792 0.62518 0.97492 0.0
O160 O 0.10038 0.48602 0.97155 0.0
N161 N 0.23504 0.5875 0.83459 0.0
C162 C 0.16684 0.57271 0.82145 0.0
C163 C 0.1504 0.4802 0.78734 0.0
C164 C 0.20338 0.39813 0.76614 0.0
C165 C 0.27423 0.41475 0.77829 0.0
C166 C 0.28971 0.51538 0.81249 0.0
H167 H 0.12269 0.61857 0.83873 0.0
O168 O 0.06712 0.48137 0.89466 0.0
O169 O 0.18303 0.5121 0.90201 0.0
O170 O 0.08798 0.76081 0.90284 0.0
O171 O 0.19894 0.8047 0.90257 0.0
C172 C 0.32766 0.33014 0.75683 0.0
C173 C 0.39922 0.33341 0.76882 0.0
H174 H 0.49693 0.20311 0.80726 0.0
H175 H 0.46695 0.17802 0.88225 0.0
H176 H 0.09578 0.47259 0.77801 0.0
H177 H 0.18932 0.32515 0.73938 0.0
H178 H 0.31349 0.2596 0.72963 0.0
H179 H 0.43556 0.26263 0.75077 0.0
Mn180 Mn 0.10745 0.60655 0.31073 0.0
Mn181 Mn 0.256 0.58129 0.35903 0.0
C182 C 0.13035 0.78758 0.36479 0.0
C183 C 0.03953 0.70098 0.26263 0.0
C184 C 0.13827 0.40161 0.35839 0.0
O185 O 0.17901 0.49522 0.26847 0.0
O186 O 0.28407 0.53536 0.30128 0.0
C187 C 0.34229 0.79036 0.34647 0.0
N188 N 0.32334 0.70898 0.37408 0.0
C189 C 0.41541 0.83623 0.44082 0.0
C190 C 0.46215 0.94916 0.4226 0.0
C191 C 0.44243 0.96692 0.37682 0.0
C192 C 0.3504 0.72574 0.41628 0.0
H193 H 0.31272 0.76594 0.31966 0.0
C194 C 0.24835 0.50293 0.26879 0.0
O195 O 1.01791 0.59895 0.27378 0.0
O196 O 0.1004 0.73803 0.27714 0.0
N197 N 0.23505 0.63644 0.41408 0.0
C198 C 0.16685 0.65124 0.42723 0.0
C199 C 0.15041 0.74376 0.46134 0.0
C200 C 0.2034 0.82581 0.48253 0.0
C201 C 0.27425 0.80913 0.4704 0.0
C202 C 0.28972 0.70852 0.43619 0.0
H203 H 0.1227 0.60543 0.40995 0.0
O204 O 0.06713 0.74267 0.35403 0.0
O205 O 0.18303 0.71192 0.34668 0.0
O206 O 0.08797 0.46322 0.34586 0.0
O207 O 0.19893 0.41929 0.34611 0.0
C208 C 0.32768 0.89373 0.49186 0.0
C209 C 0.39924 0.89044 0.47987 0.0
H210 H 0.49693 0.02082 0.44145 0.0
H211 H 0.46696 0.04602 0.36647 0.0
H212 H 0.09579 0.75139 0.47067 0.0
H213 H 0.18935 0.89881 0.50929 0.0
H214 H 0.3135 0.9643 0.51905 0.0
H215 H 0.43558 0.9612 0.49793 0.0
Mn216 Mn 0.93052 0.35653 0.06073 0.0
Mn217 Mn 0.78197 0.33132 0.10905 0.0
C218 C 0.90762 0.53758 0.11479 0.0
C219 C 0.99845 0.4509 0.01263 0.0
C220 C 0.89969 0.15164 0.1084 0.0
O221 O 0.85893 0.24525 0.01848 0.0
O222 O 0.75388 0.28538 0.0513 0.0
C223 C 0.69569 0.54034 0.09647 0.0
N224 N 0.71463 0.45901 0.1241 0.0
C225 C 0.62256 0.58634 0.19082 0.0
C226 C 0.57581 0.69923 0.17259 0.0
C227 C 0.59554 0.71693 0.12681 0.0
C228 C 0.68757 0.47582 0.1663 0.0
H229 H 0.72526 0.5159 0.06967 0.0
C230 C 0.78959 0.25298 0.01881 0.0
O231 O 0.02005 0.34885 0.02377 0.0
O232 O 0.93759 0.488 0.02715 0.0
N233 N 0.80293 0.38653 0.1641 0.0
C234 C 0.87112 0.40131 0.17724 0.0
C235 C 0.88756 0.49383 0.21136 0.0
C236 C 0.83458 0.5759 0.23255 0.0
C237 C 0.76373 0.55928 0.22041 0.0
C238 C 0.74826 0.45864 0.1862 0.0
H239 H 0.91527 0.35546 0.15997 0.0
O240 O 0.97085 0.49266 0.10403 0.0
O241 O 0.85494 0.46192 0.09668 0.0
O242 O 0.94999 0.21321 0.09586 0.0
O243 O 0.83902 0.16933 0.09613 0.0
C244 C 0.71031 0.64388 0.24187 0.0
C245 C 0.63875 0.64061 0.22988 0.0
H246 H 0.54104 0.77091 0.19144 0.0
H247 H 0.57102 0.79601 0.11644 0.0
H248 H 0.94219 0.50143 0.22069 0.0
H249 H 0.84864 0.64887 0.25932 0.0
H250 H 0.72448 0.71443 0.26907 0.0
H251 H 0.60241 0.71139 0.24793 0.0
Mn252 Mn 0.93052 0.36748 0.68797 0.0
Mn253 Mn 0.78197 0.39274 0.63966 0.0
C254 C 0.90761 0.18645 0.63391 0.0
C255 C 0.99844 0.27305 0.73607 0.0
C256 C 0.8997 0.57242 0.6403 0.0
O257 O 0.85896 0.47881 0.73023 0.0
O258 O 0.7539 0.43866 0.69742 0.0
C259 C 0.69568 0.18367 0.65223 0.0
N260 N 0.71462 0.26504 0.62461 0.0
C261 C 0.62256 0.13779 0.55788 0.0
C262 C 0.57581 0.02486 0.57609 0.0
C263 C 0.59554 0.0071 0.62187 0.0
C264 C 0.68756 0.24828 0.58241 0.0
H265 H 0.72525 0.20808 0.67903 0.0
C266 C 0.78962 0.47109 0.72991 0.0
O267 O 0.02006 0.37507 0.72492 0.0
O268 O 0.93757 0.23599 0.72156 0.0
N269 N 0.80292 0.33758 0.58461 0.0
C270 C 0.87112 0.32279 0.57147 0.0
C271 C 0.88755 0.23027 0.53735 0.0
C272 C 0.83457 0.14821 0.51616 0.0
C273 C 0.76372 0.1649 0.52829 0.0
C274 C 0.74825 0.26551 0.5625 0.0
H275 H 0.91527 0.3686 0.58875 0.0
O276 O 0.97084 0.23136 0.64466 0.0
O277 O 0.85493 0.26211 0.65202 0.0
O278 O 0.95 0.51081 0.65284 0.0
O279 O 0.83903 0.55474 0.65258 0.0
C280 C 0.71029 0.08029 0.50683 0.0
C281 C 0.63873 0.08358 0.51882 0.0
H282 H 0.54104 0.9532 0.55724 0.0
H283 H 0.57101 0.928 0.63223 0.0
H284 H 0.94218 0.22264 0.52802 0.0
H285 H 0.84862 0.07522 0.4894 0.0
H286 H 0.72447 0.00972 0.47964 0.0
H287 H 0.60239 0.01282 0.50076 0.0
Mn288 Mn 0.60745 0.11757 0.93796 0.0
Mn289 Mn 0.75607 0.14285 0.88969 0.0
C290 C 0.63038 0.93658 0.88386 0.0
C291 C 0.53951 0.02313 0.98606 0.0
C292 C 0.63829 0.32249 0.89027 0.0
O293 O 0.67897 0.22888 0.98024 0.0
O294 O 0.78404 0.18884 0.94745 0.0
C295 C 0.84221 0.93377 0.90235 0.0
N296 N 0.82343 0.01517 0.87471 0.0
C297 C 0.91571 0.88789 0.80809 0.0
C298 C 0.96231 0.7749 0.82635 0.0
C299 C 0.94238 0.75715 0.87211 0.0
C300 C 0.85065 -0.00161 0.83255 0.0
H301 H 0.81251 0.95815 0.92911 0.0
C302 C 0.74831 0.2212 0.97993 0.0
O303 O 0.51789 0.12515 0.9749 0.0
O304 O 0.60037 0.98605 0.97153 0.0
N305 N 0.73529 0.08763 0.83462 0.0
C306 C 0.66713 0.07273 0.82143 0.0
C307 C 0.65078 0.98001 0.78734 0.0
C308 C 0.70383 0.89794 0.76621 0.0
C309 C 0.77467 0.91489 0.77836 0.0
C310 C 0.79004 0.01558 0.81257 0.0
H311 H 0.62294 0.11865 0.83866 0.0
O312 O 0.56716 0.98147 0.89464 0.0
O313 O 0.68303 0.01223 0.90201 0.0
O314 O 0.58801 0.26086 0.90282 0.0
O315 O 0.69899 0.30484 0.90253 0.0
C316 C 0.82818 0.83038 0.75695 0.0
C317 C 0.89971 0.8338 0.769 0.0
H318 H 0.99713 0.70322 0.80753 0.0
H319 H 0.96682 0.67802 0.88249 0.0
H320 H 0.59619 0.97231 0.77795 0.0
H321 H 0.68985 0.82479 0.73947 0.0
H322 H 0.8141 0.75976 0.72975 0.0
H323 H 0.93612 0.76309 0.75098 0.0
Mn324 Mn 0.60745 0.10645 0.31074 0.0
Mn325 Mn 0.75607 0.08121 0.35903 0.0
C326 C 0.63036 0.28745 0.36484 0.0
C327 C 0.5395 0.20083 0.26264 0.0
C328 C 0.6383 0.90156 0.35844 0.0
O329 O 0.679 -0.00482 0.26847 0.0
O330 O 0.78406 0.0352 0.30127 0.0
C331 C 0.8422 0.29022 0.34635 0.0
N332 N 0.82342 0.20888 0.37399 0.0
C333 C 0.91571 0.33623 0.44061 0.0
C334 C 0.96231 0.44918 0.42233 0.0
C335 C 0.94237 0.46687 0.37657 0.0
C336 C 0.85065 0.2257 0.41616 0.0
H337 H 0.81249 0.26583 0.31959 0.0
C338 C 0.74834 0.00288 0.26878 0.0
O339 O 0.5179 0.09878 0.27379 0.0
O340 O 0.60035 0.23795 0.27717 0.0
N341 N 0.73528 0.13648 0.41409 0.0
C342 C 0.66712 0.15137 0.42728 0.0
C343 C 0.65078 0.24409 0.46137 0.0
C344 C 0.70382 0.32617 0.4825 0.0
C345 C 0.77466 0.30928 0.47034 0.0
C346 C 0.79003 0.20856 0.43614 0.0
H347 H 0.62294 0.10541 0.41005 0.0
O348 O 0.56715 0.24255 0.35406 0.0
O349 O 0.68303 0.2118 0.34669 0.0
O350 O 0.58801 0.96317 0.34588 0.0
O351 O 0.699 0.91923 0.34618 0.0
C352 C 0.82817 0.39379 0.49175 0.0
C353 C 0.89969 0.39039 0.47969 0.0
H354 H 0.99713 0.52088 0.44114 0.0
H355 H 0.9668 0.54598 0.36617 0.0
H356 H 0.59618 0.25176 0.47076 0.0
H357 H 0.68983 0.39931 0.50925 0.0
H358 H 0.81409 0.46438 0.51896 0.0
H359 H 0.9361 0.46111 0.49771 0.0
Mn360 Mn 0.43052 0.85646 0.06074 0.0
Mn361 Mn 0.2819 0.83118 0.10901 0.0
C362 C 0.40759 0.03744 0.11484 0.0
C363 C 0.49846 0.95091 0.01264 0.0
C364 C 0.39967 0.65154 0.10843 0.0
O365 O 0.359 0.74515 0.01845 0.0
O366 O 0.25393 0.78519 0.05124 0.0
C367 C 0.19576 0.04025 0.09635 0.0
N368 N 0.21454 0.95886 0.12398 0.0
C369 C 0.12225 0.08614 0.19061 0.0
C370 C 0.07565 0.19913 0.17234 0.0
C371 C 0.09558 0.21688 0.12659 0.0
C372 C 0.18732 0.97563 0.16615 0.0
H373 H 0.22546 0.01587 0.06958 0.0
C374 C 0.28966 0.75283 0.01876 0.0
O375 O 0.52008 0.84888 0.02379 0.0
O376 O 0.4376 -0.01203 0.02716 0.0
N377 N 0.30268 0.8864 0.16407 0.0
C378 C 0.37084 0.9013 0.17726 0.0
C379 C 0.38718 -0.00598 0.21136 0.0
C380 C 0.33413 0.07608 0.23248 0.0
C381 C 0.26329 0.05914 0.22033 0.0
C382 C 0.24793 0.95845 0.18612 0.0
H383 H 0.41503 0.85537 0.16004 0.0
O384 O 0.47081 -0.00745 0.10405 0.0
O385 O 0.35493 0.96179 0.09669 0.0
O386 O 0.44996 0.71317 0.09588 0.0
O387 O 0.33898 0.66919 0.09617 0.0
C388 C 0.20978 0.14364 0.24175 0.0
C389 C 0.13826 0.14023 0.22969 0.0
H390 H 0.04083 0.2708 0.19116 0.0
H391 H 0.07115 0.29601 0.1162 0.0
H392 H 0.44178 0.00172 0.22075 0.0
H393 H 0.34811 0.14924 0.25923 0.0
H394 H 0.22387 0.21426 0.26894 0.0
H395 H 0.10185 0.21093 0.24772 0.0
Mn396 Mn 0.43052 0.86758 0.68795 0.0
Mn397 Mn 0.2819 0.89281 0.63967 0.0
C398 C 0.40761 0.68658 0.63386 0.0
C399 C 0.49847 0.77319 0.73605 0.0
C400 C 0.39967 0.07246 0.64026 0.0
O401 O 0.35897 0.97884 0.73023 0.0
O402 O 0.2539 0.93883 0.69743 0.0
C403 C 0.19577 0.6838 0.65235 0.0
N404 N 0.21454 0.76515 0.6247 0.0
C405 C 0.12226 0.63779 0.55808 0.0
C406 C 0.07566 0.52484 0.57636 0.0
C407 C 0.09559 0.50716 0.62213 0.0
C408 C 0.18732 0.74832 0.58253 0.0
H409 H 0.22548 0.7082 0.67911 0.0
C410 C 0.28963 0.97114 0.72991 0.0
O411 O 0.52007 0.87525 0.72491 0.0
O412 O 0.43762 0.73608 0.72153 0.0
N413 N 0.30268 0.83755 0.58461 0.0
C414 C 0.37085 0.82265 0.57142 0.0
C415 C 0.38719 0.72994 0.53732 0.0
C416 C 0.33415 0.64785 0.51619 0.0
C417 C 0.26331 0.66474 0.52836 0.0
C418 C 0.24794 0.76546 0.56256 0.0
H419 H 0.41503 0.86862 0.58864 0.0
O420 O 0.47082 0.73148 0.64464 0.0
O421 O 0.35494 0.76222 0.652 0.0
O422 O 0.44995 0.01086 0.65282 0.0
O423 O 0.33897 0.0548 0.65251 0.0
C424 C 0.2098 0.58023 0.50694 0.0
C425 C 0.13828 0.58363 0.519 0.0
H426 H 0.04084 0.45315 0.55755 0.0
H427 H 0.07117 0.42805 0.63252 0.0
H428 H 0.44179 0.72227 0.52793 0.0
H429 H 0.34814 0.57472 0.48945 0.0
H430 H 0.22388 0.50964 0.47974 0.0
H431 H 0.10187 0.51291 0.50098 0.0
Mn432 Mn 0.60745 0.6175 0.43796 0.0
Mn433 Mn 0.75599 0.64271 0.38965 0.0
C434 C 0.63034 0.43645 0.38391 0.0
C435 C 0.53952 0.52313 0.48607 0.0
C436 C 0.63827 0.8224 0.39029 0.0
O437 O 0.67904 0.72878 0.48021 0.0
O438 O 0.78409 0.68865 0.4474 0.0
C439 C 0.84228 0.4337 0.40222 0.0
N440 N 0.82334 0.51502 0.3746 0.0
C441 C 0.9154 0.3877 0.30787 0.0
C442 C 0.96215 0.2748 0.3261 0.0
C443 C 0.94242 0.25711 0.37189 0.0
C444 C 0.85039 0.49821 0.3324 0.0
H445 H 0.81271 0.45813 0.42903 0.0
C446 C 0.74838 0.72104 0.47989 0.0
O447 O 0.51792 0.62519 0.47492 0.0
O448 O 0.60038 0.48603 0.47155 0.0
N449 N 0.73503 0.58751 0.33459 0.0
C450 C 0.66684 0.57272 0.32145 0.0
C451 C 0.65039 0.48021 0.28734 0.0
C452 C 0.70337 0.39814 0.26614 0.0
C453 C 0.77423 0.41476 0.27828 0.0
C454 C 0.7897 0.51539 0.31249 0.0
H455 H 0.62269 0.61858 0.33873 0.0
O456 O 0.56712 0.48137 0.39466 0.0
O457 O 0.68303 0.51211 0.40201 0.0
O458 O 0.58797 0.76082 0.40284 0.0
O459 O 0.69894 0.8047 0.40257 0.0
C460 C 0.82765 0.33015 0.25682 0.0
C461 C 0.89921 0.33342 0.26882 0.0
H462 H 0.99692 0.20312 0.30725 0.0
H463 H 0.96695 0.17803 0.38225 0.0
H464 H 0.59577 0.47261 0.27801 0.0
H465 H 0.68931 0.32517 0.23938 0.0
H466 H 0.81348 0.25961 0.22963 0.0
H467 H 0.93555 0.26264 0.25076 0.0
Mn468 Mn 0.60745 0.60654 0.81073 0.0
Mn469 Mn 0.756 0.58128 0.85903 0.0
C470 C 0.63036 0.78757 0.86479 0.0
C471 C 0.53953 0.70097 0.76263 0.0
C472 C 0.63827 0.40161 0.8584 0.0
O473 O 0.67901 0.49522 0.76847 0.0
O474 O 0.78407 0.53536 0.80127 0.0
C475 C 0.84229 0.79036 0.84646 0.0
N476 N 0.82335 0.70898 0.87408 0.0
C477 C 0.91543 0.83623 0.94081 0.0
C478 C 0.96216 0.94916 0.92259 0.0
C479 C 0.94243 0.96692 0.87681 0.0
C480 C 0.85042 0.72574 0.91627 0.0
H481 H 0.81271 0.76594 0.81966 0.0
C482 C 0.74835 0.50293 0.76878 0.0
O483 O 0.51791 0.59895 0.77378 0.0
O484 O 0.6004 0.73803 0.77714 0.0
N485 N 0.73506 0.63644 0.91408 0.0
C486 C 0.66686 0.65125 0.92723 0.0
C487 C 0.65043 0.74377 0.96134 0.0
C488 C 0.70342 0.82583 0.98253 0.0
C489 C 0.77427 0.80914 0.9704 0.0
C490 C 0.78974 0.70852 0.93619 0.0
H491 H 0.62271 0.60543 0.90995 0.0
O492 O 0.56713 0.74267 0.85403 0.0
O493 O 0.68304 0.71191 0.84668 0.0
O494 O 0.58797 0.46322 0.84586 0.0
O495 O 0.69894 0.41929 0.84611 0.0
C496 C 0.8277 0.89373 0.99186 0.0
C497 C 0.89926 0.89044 0.97987 0.0
H498 H 0.99694 0.02082 0.94144 0.0
H499 H 0.96695 0.04602 0.86646 0.0
H500 H 0.59581 0.75141 0.97068 0.0
H501 H 0.68937 0.89883 0.00929 0.0
H502 H 0.81353 0.9643 0.01905 0.0
H503 H 0.9356 0.9612 0.99792 0.0
Mn504 Mn 0.43052 0.35653 0.56073 0.0
Mn505 Mn 0.28197 0.33131 0.60905 0.0
C506 C 0.40762 0.53757 0.61479 0.0
C507 C 0.49845 0.4509 0.51263 0.0
C508 C 0.39969 0.15163 0.6084 0.0
O509 O 0.35893 0.24525 0.51848 0.0
O510 O 0.25388 0.28537 0.5513 0.0
C511 C 0.19569 0.54033 0.59647 0.0
N512 N 0.21463 0.459 0.6241 0.0
C513 C 0.12256 0.58633 0.69083 0.0
C514 C 0.07582 0.69922 0.67259 0.0
C515 C 0.09555 0.71691 0.62681 0.0
C516 C 0.18757 0.47581 0.6663 0.0
H517 H 0.22526 0.51589 0.56967 0.0
C518 C 0.28959 0.25298 0.51881 0.0
O519 O 0.52005 0.34884 0.52377 0.0
O520 O 0.43759 0.488 0.52715 0.0
N521 N 0.30293 0.38651 0.6641 0.0
C522 C 0.37113 0.4013 0.67724 0.0
C523 C 0.38757 0.49382 0.71136 0.0
C524 C 0.33459 0.57589 0.73255 0.0
C525 C 0.26374 0.55926 0.72041 0.0
C526 C 0.24826 0.45863 0.68621 0.0
H527 H 0.41528 0.35545 0.65996 0.0
O528 O 0.47085 0.49265 0.60403 0.0
O529 O 0.35494 0.46192 0.59668 0.0
O530 O 0.44999 0.2132 0.59586 0.0
O531 O 0.33903 0.16932 0.59612 0.0
C532 C 0.21032 0.64388 0.74187 0.0
C533 C 0.13876 0.64061 0.72988 0.0
H534 H 0.04104 0.7709 0.69144 0.0
H535 H 0.07102 0.796 0.61644 0.0
H536 H 0.44219 0.50142 0.72069 0.0
H537 H 0.34865 0.64886 0.75932 0.0
H538 H 0.22449 0.71442 0.76907 0.0
H539 H 0.10242 0.71139 0.74793 0.0
Mn540 Mn 0.43052 0.36748 0.18797 0.0
Mn541 Mn 0.28197 0.39274 0.13966 0.0
C542 C 0.40761 0.18645 0.13391 0.0
C543 C 0.49844 0.27305 0.23607 0.0
C544 C 0.3997 0.57241 0.1403 0.0
O545 O 0.35896 0.47881 0.23023 0.0
O546 O 0.2539 0.43867 0.19742 0.0
C547 C 0.19568 0.18367 0.15223 0.0
N548 N 0.21462 0.26505 0.12462 0.0
C549 C 0.12254 0.13779 0.05789 0.0
C550 C 0.07581 0.02486 0.0761 0.0
C551 C 0.09554 0.0071 0.12188 0.0
C552 C 0.18755 0.24828 0.08242 0.0
H553 H 0.22525 0.20808 0.17904 0.0
C554 C 0.28962 0.47109 0.22991 0.0
O555 O 0.52005 0.37507 0.22492 0.0
O556 O 0.43756 0.23599 0.22156 0.0
N557 N 0.30291 0.33758 0.08461 0.0
C558 C 0.3711 0.32278 0.07147 0.0
C559 C 0.38754 0.23026 0.03735 0.0
C560 C 0.33455 0.1482 0.01616 0.0
C561 C 0.2637 0.16489 0.0283 0.0
C562 C 0.24823 0.2655 0.06251 0.0
H563 H 0.41526 0.3686 0.08874 0.0
O564 O 0.47083 0.23136 0.14466 0.0
O565 O 0.35493 0.26211 0.15202 0.0
O566 O 0.44999 0.51081 0.15284 0.0
O567 O 0.33903 0.55474 0.15258 0.0
C568 C 0.21027 0.08029 0.00684 0.0
C569 C 0.13871 0.08359 0.01883 0.0
H570 H 0.04103 0.9532 0.05725 0.0
H571 H 0.07101 0.928 0.13224 0.0
H572 H 0.44216 0.22262 0.02802 0.0
H573 H 0.3486 0.0752 0.9894 0.0
H574 H 0.22444 0.00972 0.97965 0.0
H575 H 0.10237 0.01283 0.00077 0.0
loop_
_geom_bond_atom_site_label_1
_geom_bond_atom_site_label_2
_geom_bond_distance
_geom_bond_site_symmetry_2
_ccdc_geom_bond_type
Mn0 O5 2.095 . S
Mn0 O15 2.162 . S
Mn0 O16 2.297 1_545 S
Mn0 O24 2.385 1_545 S
Mn0 O25 2.209 1_545 S
Mn0 O26 2.094 . S
Mn1 O6 2.121 . S
Mn1 N8 2.257 1_545 S
Mn1 N17 2.282 . S
Mn1 O25 2.215 1_545 S
Mn1 O27 2.117 . S
C2 O24 1.234 . S
C2 O25 1.283 . S
C3 O15 1.281 . S
C3 O16 1.236 1_545 S
C4 O26 1.240 . S
C4 O27 1.264 . S
O5 Mn0 2.095 . S
O5 C14 1.250 . S
O6 Mn1 2.121 . S
O6 C14 1.258 . S
C7 N8 1.326 . S
C7 C11 1.460 . S
C7 H13 0.929 . S
N8 Mn1 2.257 1_565 S
N8 C7 1.326 . S
N8 C12 1.362 . S
C9 C10 1.258 . S
C9 C12 1.431 . S
C9 C29 1.449 . S
C10 C9 1.258 . S
C10 C11 1.477 . S
C10 H30 0.931 . S
C11 C7 1.460 . S
C11 C10 1.477 . S
C11 H31 0.930 . S
C12 N8 1.362 . S
C12 C9 1.431 . S
C12 C22 1.476 . S
H13 C7 0.929 . S
C14 O5 1.250 . S
C14 O6 1.258 . S
O15 Mn0 2.162 . S
O15 C3 1.281 . S
O16 Mn0 2.297 1_565 S
O16 C3 1.236 1_565 S
N17 Mn1 2.282 . S
N17 C18 1.328 . S
N17 C22 1.318 1_545 S
C18 N17 1.328 . S
C18 C19 1.457 1_545 S
C18 H23 0.929 . S
C19 C18 1.457 1_565 S
C19 C20 1.291 . S
C19 H32 0.931 1_565 S
C20 C19 1.291 . S
C20 C21 1.373 . S
C20 H33 0.929 . S
C21 C20 1.373 . S
C21 C22 1.396 . S
C21 C28 1.403 . S
C22 C12 1.476 . S
C22 N17 1.318 1_565 S
C22 C21 1.396 . S
H23 C18 0.929 . S
O24 Mn0 2.385 1_565 S
O24 C2 1.234 . S
O25 Mn0 2.209 1_565 S
O25 Mn1 2.215 1_565 S
O25 C2 1.283 . S
O26 Mn0 2.094 . S
O26 C4 1.240 . S
O27 Mn1 2.117 . S
O27 C4 1.264 . S
C28 C21 1.403 . S
C28 C29 1.399 . S
C28 H34 0.929 . S
C29 C9 1.449 . S
C29 C28 1.399 . S
C29 H35 0.930 . S
H30 C10 0.931 . S
H31 C11 0.930 . S
H32 C19 0.931 1_545 S
H33 C20 0.929 . S
H34 C28 0.929 . S
H35 C29 0.930 . S
Mn36 O41 2.095 . S
Mn36 O51 2.162 . S
Mn36 O52 2.297 . S
Mn36 O60 2.385 . S
Mn36 O61 2.209 . S
Mn36 O62 2.094 1_545 S
Mn37 O42 2.121 . S
Mn37 N44 2.257 . S
Mn37 N53 2.282 . S
Mn37 O61 2.215 . S
Mn37 O63 2.117 1_545 S
C38 O60 1.234 . S
C38 O61 1.283 . S
C39 O51 1.281 . S
C39 O52 1.236 . S
C40 O62 1.240 . S
C40 O63 1.264 . S
O41 Mn36 2.095 . S
O41 C50 1.250 . S
O42 Mn37 2.121 . S
O42 C50 1.258 . S
C43 N44 1.326 . S
C43 C47 1.460 . S
C43 H49 0.929 . S
N44 Mn37 2.257 . S
N44 C43 1.326 . S
N44 C48 1.362 . S
C45 C46 1.258 . S
C45 C48 1.431 . S
C45 C65 1.449 . S
C46 C45 1.258 . S
C46 C47 1.477 . S
C46 H66 0.931 . S
C47 C43 1.460 . S
C47 C46 1.477 . S
C47 H67 0.930 . S
C48 N44 1.362 . S
C48 C45 1.431 . S
C48 C58 1.476 . S
H49 C43 0.929 . S
C50 O41 1.250 . S
C50 O42 1.258 . S
O51 Mn36 2.162 . S
O51 C39 1.281 . S
O52 Mn36 2.297 . S
O52 C39 1.236 . S
N53 Mn37 2.282 . S
N53 C54 1.328 . S
N53 C58 1.318 . S
C54 N53 1.328 . S
C54 C55 1.457 . S
C54 H59 0.929 . S
C55 C54 1.457 . S
C55 C56 1.291 . S
C55 H68 0.931 1_556 S
C56 C55 1.291 . S
C56 C57 1.373 . S
C56 H69 0.929 1_556 S
C57 C56 1.373 . S
C57 C58 1.396 . S
C57 C64 1.403 . S
C58 C48 1.476 . S
C58 N53 1.318 . S
C58 C57 1.396 . S
H59 C54 0.929 . S
O60 Mn36 2.385 . S
O60 C38 1.234 . S
O61 Mn36 2.209 . S
O61 Mn37 2.215 . S
O61 C38 1.283 . S
O62 Mn36 2.094 1_565 S
O62 C40 1.240 . S
O63 Mn37 2.117 1_565 S
O63 C40 1.264 . S
C64 C57 1.403 . S
C64 C65 1.399 . S
C64 H70 0.929 1_556 S
C65 C45 1.449 . S
C65 C64 1.399 . S
C65 H71 0.930 . S
H66 C46 0.931 . S
H67 C47 0.930 . S
H68 C55 0.931 1_554 S
H69 C56 0.929 1_554 S
H70 C64 0.929 1_554 S
H71 C65 0.930 . S
Mn72 O77 2.095 . S
Mn72 O87 2.162 . S
Mn72 O88 2.297 1_565 S
Mn72 O96 2.385 1_565 S
Mn72 O97 2.209 1_565 S
Mn72 O98 2.094 . S
Mn73 O78 2.121 . S
Mn73 N80 2.257 1_565 S
Mn73 N89 2.282 . S
Mn73 O97 2.215 1_565 S
Mn73 O99 2.117 . S
C74 O96 1.234 . S
C74 O97 1.283 . S
C75 O87 1.281 . S
C75 O88 1.236 1_565 S
C76 O98 1.240 . S
C76 O99 1.264 . S
O77 Mn72 2.095 . S
O77 C86 1.250 . S
O78 Mn73 2.121 . S
O78 C86 1.258 . S
C79 N80 1.326 . S
C79 C83 1.460 . S
C79 H85 0.929 . S
N80 Mn73 2.257 1_545 S
N80 C79 1.326 . S
N80 C84 1.362 . S
C81 C82 1.258 . S
C81 C84 1.431 . S
C81 C101 1.449 . S
C82 C81 1.258 . S
C82 C83 1.477 . S
C82 H102 0.931 . S
C83 C79 1.460 . S
C83 C82 1.477 . S
C83 H103 0.930 . S
C84 N80 1.362 . S
C84 C81 1.431 . S
C84 C94 1.476 . S
H85 C79 0.929 . S
C86 O77 1.250 . S
C86 O78 1.258 . S
O87 Mn72 2.162 . S
O87 C75 1.281 . S
O88 Mn72 2.297 1_545 S
O88 C75 1.236 1_545 S
N89 Mn73 2.282 . S
N89 C90 1.328 . S
N89 C94 1.318 1_565 S
C90 N89 1.328 . S
C90 C91 1.457 1_565 S
C90 H95 0.929 . S
C91 C90 1.457 1_545 S
C91 C92 1.291 . S
C91 H104 0.931 1_545 S
C92 C91 1.291 . S
C92 C93 1.373 . S
C92 H105 0.929 . S
C93 C92 1.373 . S
C93 C94 1.396 . S
C93 C100 1.403 . S
C94 C84 1.476 . S
C94 N89 1.318 1_545 S
C94 C93 1.396 . S
H95 C90 0.929 . S
O96 Mn72 2.385 1_545 S
O96 C74 1.234 . S
O97 Mn72 2.209 1_545 S
O97 Mn73 2.215 1_545 S
O97 C74 1.283 . S
O98 Mn72 2.094 . S
O98 C76 1.240 . S
O99 Mn73 2.117 . S
O99 C76 1.264 . S
C100 C93 1.403 . S
C100 C101 1.399 . S
C100 H106 0.929 . S
C101 C81 1.449 . S
C101 C100 1.399 . S
C101 H107 0.930 . S
H102 C82 0.931 . S
H103 C83 0.930 . S
H104 C91 0.931 1_565 S
H105 C92 0.929 . S
H106 C100 0.929 . S
H107 C101 0.930 . S
Mn108 O113 2.095 . S
Mn108 O123 2.162 . S
Mn108 O124 2.297 . S
Mn108 O132 2.385 . S
Mn108 O133 2.209 . S
Mn108 O134 2.094 1_565 S
Mn109 O114 2.121 . S
Mn109 N116 2.257 . S
Mn109 N125 2.282 . S
Mn109 O133 2.215 . S
Mn109 O135 2.117 1_565 S
C110 O132 1.234 . S
C110 O133 1.283 . S
C111 O123 1.281 . S
C111 O124 1.236 . S
C112 O134 1.240 . S
C112 O135 1.264 . S
O113 Mn108 2.095 . S
O113 C122 1.250 . S
O114 Mn109 2.121 . S
O114 C122 1.258 . S
C115 N116 1.326 . S
C115 C119 1.460 . S
C115 H121 0.929 . S
N116 Mn109 2.257 . S
N116 C115 1.326 . S
N116 C120 1.362 . S
C117 C118 1.258 . S
C117 C120 1.431 . S
C117 C137 1.449 . S
C118 C117 1.258 . S
C118 C119 1.477 . S
C118 H138 0.931 . S
C119 C115 1.460 . S
C119 C118 1.477 . S
C119 H139 0.930 . S
C120 N116 1.362 . S
C120 C117 1.431 . S
C120 C130 1.476 . S
H121 C115 0.929 . S
C122 O113 1.250 . S
C122 O114 1.258 . S
O123 Mn108 2.162 . S
O123 C111 1.281 . S
O124 Mn108 2.297 . S
O124 C111 1.236 . S
N125 Mn109 2.282 . S
N125 C126 1.328 . S
N125 C130 1.318 . S
C126 N125 1.328 . S
C126 C127 1.457 . S
C126 H131 0.929 . S
C127 C126 1.457 . S
C127 C128 1.291 . S
C127 H140 0.931 1_554 S
C128 C127 1.291 . S
C128 C129 1.373 . S
C128 H141 0.929 1_554 S
C129 C128 1.373 . S
C129 C130 1.396 . S
C129 C136 1.403 . S
C130 C120 1.476 . S
C130 N125 1.318 . S
C130 C129 1.396 . S
H131 C126 0.929 . S
O132 Mn108 2.385 . S
O132 C110 1.234 . S
O133 Mn108 2.209 . S
O133 Mn109 2.215 . S
O133 C110 1.283 . S
O134 Mn108 2.094 1_545 S
O134 C112 1.240 . S
O135 Mn109 2.117 1_545 S
O135 C112 1.264 . S
C136 C129 1.403 . S
C136 C137 1.399 . S
C136 H142 0.929 1_554 S
C137 C117 1.449 . S
C137 C136 1.399 . S
C137 H143 0.930 . S
H138 C118 0.931 . S
H139 C119 0.930 . S
H140 C127 0.931 1_556 S
H141 C128 0.929 1_556 S
H142 C136 0.929 1_556 S
H143 C137 0.930 . S
Mn144 O149 2.095 . S
Mn144 O159 2.162 . S
Mn144 O160 2.297 . S
Mn144 O168 2.385 . S
Mn144 O169 2.209 . S
Mn144 O170 2.094 . S
Mn145 O150 2.121 . S
Mn145 N152 2.257 . S
Mn145 N161 2.282 . S
Mn145 O169 2.215 . S
Mn145 O171 2.117 . S
C146 O168 1.234 . S
C146 O169 1.283 . S
C147 O159 1.281 . S
C147 O160 1.236 . S
C148 O170 1.240 . S
C148 O171 1.264 . S
O149 Mn144 2.095 . S
O149 C158 1.250 . S
O150 Mn145 2.121 . S
O150 C158 1.258 . S
C151 N152 1.326 . S
C151 C155 1.460 . S
C151 H157 0.929 . S
N152 Mn145 2.257 . S
N152 C151 1.326 . S
N152 C156 1.362 . S
C153 C154 1.258 . S
C153 C156 1.431 . S
C153 C173 1.449 . S
C154 C153 1.258 . S
C154 C155 1.477 . S
C154 H174 0.931 . S
C155 C151 1.460 . S
C155 C154 1.477 . S
C155 H175 0.930 . S
C156 N152 1.362 . S
C156 C153 1.431 . S
C156 C166 1.476 . S
H157 C151 0.929 . S
C158 O149 1.250 . S
C158 O150 1.258 . S
O159 Mn144 2.162 . S
O159 C147 1.281 . S
O160 Mn144 2.297 . S
O160 C147 1.236 . S
N161 Mn145 2.282 . S
N161 C162 1.328 . S
N161 C166 1.318 . S
C162 N161 1.328 . S
C162 C163 1.457 . S
C162 H167 0.929 . S
C163 C162 1.457 . S
C163 C164 1.291 . S
C163 H176 0.931 . S
C164 C163 1.291 . S
C164 C165 1.373 . S
C164 H177 0.929 . S
C165 C164 1.373 . S
C165 C166 1.396 . S
C165 C172 1.403 . S
C166 C156 1.476 . S
C166 N161 1.318 . S
C166 C165 1.396 . S
H167 C162 0.929 . S
O168 Mn144 2.385 . S
O168 C146 1.234 . S
O169 Mn144 2.209 . S
O169 Mn145 2.215 . S
O169 C146 1.283 . S
O170 Mn144 2.094 . S
O170 C148 1.240 . S
O171 Mn145 2.117 . S
O171 C148 1.264 . S
C172 C165 1.403 . S
C172 C173 1.399 . S
C172 H178 0.929 . S
C173 C153 1.449 . S
C173 C172 1.399 . S
C173 H179 0.930 . S
H174 C154 0.931 . S
H175 C155 0.930 . S
H176 C163 0.931 . S
H177 C164 0.929 . S
H178 C172 0.929 . S
H179 C173 0.930 . S
Mn180 O185 2.095 . S
Mn180 O195 2.162 . S
Mn180 O196 2.297 . S
Mn180 O204 2.385 . S
Mn180 O205 2.209 . S
Mn180 O206 2.094 . S
Mn181 O186 2.121 . S
Mn181 N188 2.257 . S
Mn181 N197 2.282 . S
Mn181 O205 2.215 . S
Mn181 O207 2.117 . S
C182 O204 1.234 . S
C182 O205 1.283 . S
C183 O195 1.281 . S
C183 O196 1.236 . S
C184 O206 1.240 . S
C184 O207 1.264 . S
O185 Mn180 2.095 . S
O185 C194 1.250 . S
O186 Mn181 2.121 . S
O186 C194 1.258 . S
C187 N188 1.326 . S
C187 C191 1.460 . S
C187 H193 0.929 . S
N188 Mn181 2.257 . S
N188 C187 1.326 . S
N188 C192 1.362 . S
C189 C190 1.258 . S
C189 C192 1.431 . S
C189 C209 1.449 1_565 S
C190 C189 1.258 . S
C190 C191 1.477 . S
C190 H210 0.931 1_565 S
C191 C187 1.460 . S
C191 C190 1.477 . S
C191 H211 0.930 . S
C192 N188 1.362 . S
C192 C189 1.431 . S
C192 C202 1.476 . S
H193 C187 0.929 . S
C194 O185 1.250 . S
C194 O186 1.258 . S
O195 Mn180 2.162 . S
O195 C183 1.281 . S
O196 Mn180 2.297 . S
O196 C183 1.236 . S
N197 Mn181 2.282 . S
N197 C198 1.328 . S
N197 C202 1.318 . S
C198 N197 1.328 . S
C198 C199 1.457 . S
C198 H203 0.929 . S
C199 C198 1.457 . S
C199 C200 1.291 . S
C199 H212 0.931 . S
C200 C199 1.291 . S
C200 C201 1.373 . S
C200 H213 0.929 . S
C201 C200 1.373 . S
C201 C202 1.396 . S
C201 C208 1.403 . S
C202 C192 1.476 . S
C202 N197 1.318 . S
C202 C201 1.396 . S
H203 C198 0.929 . S
O204 Mn180 2.385 . S
O204 C182 1.234 . S
O205 Mn180 2.209 . S
O205 Mn181 2.215 . S
O205 C182 1.283 . S
O206 Mn180 2.094 . S
O206 C184 1.240 . S
O207 Mn181 2.117 . S
O207 C184 1.264 . S
C208 C201 1.403 . S
C208 C209 1.399 1_565 S
C208 H214 0.929 1_565 S
C209 C189 1.449 1_545 S
C209 C208 1.399 1_545 S
C209 H215 0.930 . S
H210 C190 0.931 1_545 S
H211 C191 0.930 . S
H212 C199 0.931 . S
H213 C200 0.929 . S
H214 C208 0.929 1_545 S
H215 C209 0.930 . S
Mn216 O221 2.095 . S
Mn216 O231 2.162 . S
Mn216 O232 2.297 . S
Mn216 O240 2.385 . S
Mn216 O241 2.209 . S
Mn216 O242 2.094 . S
Mn217 O222 2.121 . S
Mn217 N224 2.257 . S
Mn217 N233 2.282 . S
Mn217 O241 2.215 . S
Mn217 O243 2.117 . S
C218 O240 1.234 . S
C218 O241 1.283 . S
C219 O231 1.281 . S
C219 O232 1.236 . S
C220 O242 1.240 . S
C220 O243 1.264 . S
O221 Mn216 2.095 . S
O221 C230 1.250 . S
O222 Mn217 2.121 . S
O222 C230 1.258 . S
C223 N224 1.326 . S
C223 C227 1.460 . S
C223 H229 0.929 . S
N224 Mn217 2.257 . S
N224 C223 1.326 . S
N224 C228 1.362 . S
C225 C226 1.258 . S
C225 C228 1.431 . S
C225 C245 1.449 . S
C226 C225 1.258 . S
C226 C227 1.477 . S
C226 H246 0.931 . S
C227 C223 1.460 . S
C227 C226 1.477 . S
C227 H247 0.930 . S
C228 N224 1.362 . S
C228 C225 1.431 . S
C228 C238 1.476 . S
H229 C223 0.929 . S
C230 O221 1.250 . S
C230 O222 1.258 . S
O231 Mn216 2.162 . S
O231 C219 1.281 . S
O232 Mn216 2.297 . S
O232 C219 1.236 . S
N233 Mn217 2.282 . S
N233 C234 1.328 . S
N233 C238 1.318 . S
C234 N233 1.328 . S
C234 C235 1.457 . S
C234 H239 0.929 . S
C235 C234 1.457 . S
C235 C236 1.291 . S
C235 H248 0.931 . S
C236 C235 1.291 . S
C236 C237 1.373 . S
C236 H249 0.929 . S
C237 C236 1.373 . S
C237 C238 1.396 . S
C237 C244 1.403 . S
C238 C228 1.476 . S
C238 N233 1.318 . S
C238 C237 1.396 . S
H239 C234 0.929 . S
O240 Mn216 2.385 . S
O240 C218 1.234 . S
O241 Mn216 2.209 . S
O241 Mn217 2.215 . S
O241 C218 1.283 . S
O242 Mn216 2.094 . S
O242 C220 1.240 . S
O243 Mn217 2.117 . S
O243 C220 1.264 . S
C244 C237 1.403 . S
C244 C245 1.399 . S
C244 H250 0.929 . S
C245 C225 1.449 . S
C245 C244 1.399 . S
C245 H251 0.930 . S
H246 C226 0.931 . S
H247 C227 0.930 . S
H248 C235 0.931 . S
H249 C236 0.929 . S
H250 C244 0.929 . S
H251 C245 0.930 . S
Mn252 O257 2.095 . S
Mn252 O267 2.162 . S
Mn252 O268 2.297 . S
Mn252 O276 2.385 . S
Mn252 O277 2.209 . S
Mn252 O278 2.094 . S
Mn253 O258 2.121 . S
Mn253 N260 2.257 . S
Mn253 N269 2.282 . S
Mn253 O277 2.215 . S
Mn253 O279 2.117 . S
C254 O276 1.234 . S
C254 O277 1.283 . S
C255 O267 1.281 . S
C255 O268 1.236 . S
C256 O278 1.240 . S
C256 O279 1.264 . S
O257 Mn252 2.095 . S
O257 C266 1.250 . S
O258 Mn253 2.121 . S
O258 C266 1.258 . S
C259 N260 1.326 . S
C259 C263 1.460 . S
C259 H265 0.929 . S
N260 Mn253 2.257 . S
N260 C259 1.326 . S
N260 C264 1.362 . S
C261 C262 1.258 . S
C261 C264 1.431 . S
C261 C281 1.449 1_545 S
C262 C261 1.258 . S
C262 C263 1.477 . S
C262 H282 0.931 1_545 S
C263 C259 1.460 . S
C263 C262 1.477 . S
C263 H283 0.930 . S
C264 N260 1.362 . S
C264 C261 1.431 . S
C264 C274 1.476 . S
H265 C259 0.929 . S
C266 O257 1.250 . S
C266 O258 1.258 . S
O267 Mn252 2.162 . S
O267 C255 1.281 . S
O268 Mn252 2.297 . S
O268 C255 1.236 . S
N269 Mn253 2.282 . S
N269 C270 1.328 . S
N269 C274 1.318 . S
C270 N269 1.328 . S
C270 C271 1.457 . S
C270 H275 0.929 . S
C271 C270 1.457 . S
C271 C272 1.291 . S
C271 H284 0.931 . S
C272 C271 1.291 . S
C272 C273 1.373 . S
C272 H285 0.929 . S
C273 C272 1.373 . S
C273 C274 1.396 . S
C273 C280 1.403 . S
C274 C264 1.476 . S
C274 N269 1.318 . S
C274 C273 1.396 . S
H275 C270 0.929 . S
O276 Mn252 2.385 . S
O276 C254 1.234 . S
O277 Mn252 2.209 . S
O277 Mn253 2.215 . S
O277 C254 1.283 . S
O278 Mn252 2.094 . S
O278 C256 1.240 . S
O279 Mn253 2.117 . S
O279 C256 1.264 . S
C280 C273 1.403 . S
C280 C281 1.399 1_545 S
C280 H286 0.929 1_545 S
C281 C261 1.449 1_565 S
C281 C280 1.399 1_565 S
C281 H287 0.930 . S
H282 C262 0.931 1_565 S
H283 C263 0.930 . S
H284 C271 0.931 . S
H285 C272 0.929 . S
H286 C280 0.929 1_565 S
H287 C281 0.930 . S
Mn288 O293 2.095 . S
Mn288 O303 2.162 . S
Mn288 O304 2.297 1_545 S
Mn288 O312 2.385 1_545 S
Mn288 O313 2.209 1_545 S
Mn288 O314 2.094 . S
Mn289 O294 2.121 . S
Mn289 N296 2.257 1_545 S
Mn289 N305 2.282 . S
Mn289 O313 2.215 1_545 S
Mn289 O315 2.117 . S
C290 O312 1.234 . S
C290 O313 1.283 . S
C291 O303 1.281 . S
C291 O304 1.236 1_545 S
C292 O314 1.240 . S
C292 O315 1.264 . S
O293 Mn288 2.095 . S
O293 C302 1.250 . S
O294 Mn289 2.121 . S
O294 C302 1.258 . S
C295 N296 1.326 . S
C295 C299 1.460 . S
C295 H301 0.929 . S
N296 Mn289 2.257 1_565 S
N296 C295 1.326 . S
N296 C300 1.362 . S
C297 C298 1.258 . S
C297 C300 1.431 . S
C297 C317 1.449 . S
C298 C297 1.258 . S
C298 C299 1.477 . S
C298 H318 0.931 . S
C299 C295 1.460 . S
C299 C298 1.477 . S
C299 H319 0.930 . S
C300 N296 1.362 . S
C300 C297 1.431 . S
C300 C310 1.476 . S
H301 C295 0.929 . S
C302 O293 1.250 . S
C302 O294 1.258 . S
O303 Mn288 2.162 . S
O303 C291 1.281 . S
O304 Mn288 2.297 1_565 S
O304 C291 1.236 1_565 S
N305 Mn289 2.282 . S
N305 C306 1.328 . S
N305 C310 1.318 1_545 S
C306 N305 1.328 . S
C306 C307 1.457 1_545 S
C306 H311 0.929 . S
C307 C306 1.457 1_565 S
C307 C308 1.291 . S
C307 H320 0.931 1_565 S
C308 C307 1.291 . S
C308 C309 1.373 . S
C308 H321 0.929 . S
C309 C308 1.373 . S
C309 C310 1.396 . S
C309 C316 1.403 . S
C310 C300 1.476 . S
C310 N305 1.318 1_565 S
C310 C309 1.396 . S
H311 C306 0.929 . S
O312 Mn288 2.385 1_565 S
O312 C290 1.234 . S
O313 Mn288 2.209 1_565 S
O313 Mn289 2.215 1_565 S
O313 C290 1.283 . S
O314 Mn288 2.094 . S
O314 C292 1.240 . S
O315 Mn289 2.117 . S
O315 C292 1.264 . S
C316 C309 1.403 . S
C316 C317 1.399 . S
C316 H322 0.929 . S
C317 C297 1.449 . S
C317 C316 1.399 . S
C317 H323 0.930 . S
H318 C298 0.931 . S
H319 C299 0.930 . S
H320 C307 0.931 1_545 S
H321 C308 0.929 . S
H322 C316 0.929 . S
H323 C317 0.930 . S
Mn324 O329 2.095 . S
Mn324 O339 2.162 . S
Mn324 O340 2.297 . S
Mn324 O348 2.385 . S
Mn324 O349 2.209 . S
Mn324 O350 2.094 1_545 S
Mn325 O330 2.121 . S
Mn325 N332 2.257 . S
Mn325 N341 2.282 . S
Mn325 O349 2.215 . S
Mn325 O351 2.117 1_545 S
C326 O348 1.234 . S
C326 O349 1.283 . S
C327 O339 1.281 . S
C327 O340 1.236 . S
C328 O350 1.240 . S
C328 O351 1.264 . S
O329 Mn324 2.095 . S
O329 C338 1.250 . S
O330 Mn325 2.121 . S
O330 C338 1.258 . S
C331 N332 1.326 . S
C331 C335 1.460 . S
C331 H337 0.929 . S
N332 Mn325 2.257 . S
N332 C331 1.326 . S
N332 C336 1.362 . S
C333 C334 1.258 . S
C333 C336 1.431 . S
C333 C353 1.449 . S
C334 C333 1.258 . S
C334 C335 1.477 . S
C334 H354 0.931 . S
C335 C331 1.460 . S
C335 C334 1.477 . S
C335 H355 0.930 . S
C336 N332 1.362 . S
C336 C333 1.431 . S
C336 C346 1.476 . S
H337 C331 0.929 . S
C338 O329 1.250 . S
C338 O330 1.258 . S
O339 Mn324 2.162 . S
O339 C327 1.281 . S
O340 Mn324 2.297 . S
O340 C327 1.236 . S
N341 Mn325 2.282 . S
N341 C342 1.328 . S
N341 C346 1.318 . S
C342 N341 1.328 . S
C342 C343 1.457 . S
C342 H347 0.929 . S
C343 C342 1.457 . S
C343 C344 1.291 . S
C343 H356 0.931 . S
C344 C343 1.291 . S
C344 C345 1.373 . S
C344 H357 0.929 . S
C345 C344 1.373 . S
C345 C346 1.396 . S
C345 C352 1.403 . S
C346 C336 1.476 . S
C346 N341 1.318 . S
C346 C345 1.396 . S
H347 C342 0.929 . S
O348 Mn324 2.385 . S
O348 C326 1.234 . S
O349 Mn324 2.209 . S
O349 Mn325 2.215 . S
O349 C326 1.283 . S
O350 Mn324 2.094 1_565 S
O350 C328 1.240 . S
O351 Mn325 2.117 1_565 S
O351 C328 1.264 . S
C352 C345 1.403 . S
C352 C353 1.399 . S
C352 H358 0.929 . S
C353 C333 1.449 . S
C353 C352 1.399 . S
C353 H359 0.930 . S
H354 C334 0.931 . S
H355 C335 0.930 . S
H356 C343 0.931 . S
H357 C344 0.929 . S
H358 C352 0.929 . S
H359 C353 0.930 . S
Mn360 O365 2.095 . S
Mn360 O375 2.162 . S
Mn360 O376 2.297 1_565 S
Mn360 O384 2.385 1_565 S
Mn360 O385 2.209 1_565 S
Mn360 O386 2.094 . S
Mn361 O366 2.121 . S
Mn361 N368 2.257 1_565 S
Mn361 N377 2.282 . S
Mn361 O385 2.215 1_565 S
Mn361 O387 2.117 . S
C362 O384 1.234 . S
C362 O385 1.283 . S
C363 O375 1.281 . S
C363 O376 1.236 1_565 S
C364 O386 1.240 . S
C364 O387 1.264 . S
O365 Mn360 2.095 . S
O365 C374 1.250 . S
O366 Mn361 2.121 . S
O366 C374 1.258 . S
C367 N368 1.326 . S
C367 C371 1.460 . S
C367 H373 0.929 . S
N368 Mn361 2.257 1_545 S
N368 C367 1.326 . S
N368 C372 1.362 . S
C369 C370 1.258 . S
C369 C372 1.431 . S
C369 C389 1.449 . S
C370 C369 1.258 . S
C370 C371 1.477 . S
C370 H390 0.931 . S
C371 C367 1.460 . S
C371 C370 1.477 . S
C371 H391 0.930 . S
C372 N368 1.362 . S
C372 C369 1.431 . S
C372 C382 1.476 . S
H373 C367 0.929 . S
C374 O365 1.250 . S
C374 O366 1.258 . S
O375 Mn360 2.162 . S
O375 C363 1.281 . S
O376 Mn360 2.297 1_545 S
O376 C363 1.236 1_545 S
N377 Mn361 2.282 . S
N377 C378 1.328 . S
N377 C382 1.318 1_565 S
C378 N377 1.328 . S
C378 C379 1.457 1_565 S
C378 H383 0.929 . S
C379 C378 1.457 1_545 S
C379 C380 1.291 . S
C379 H392 0.931 1_545 S
C380 C379 1.291 . S
C380 C381 1.373 . S
C380 H393 0.929 . S
C381 C380 1.373 . S
C381 C382 1.396 . S
C381 C388 1.403 . S
C382 C372 1.476 . S
C382 N377 1.318 1_545 S
C382 C381 1.396 . S
H383 C378 0.929 . S
O384 Mn360 2.385 1_545 S
O384 C362 1.234 . S
O385 Mn360 2.209 1_545 S
O385 Mn361 2.215 1_545 S
O385 C362 1.283 . S
O386 Mn360 2.094 . S
O386 C364 1.240 . S
O387 Mn361 2.117 . S
O387 C364 1.264 . S
C388 C381 1.403 . S
C388 C389 1.399 . S
C388 H394 0.929 . S
C389 C369 1.449 . S
C389 C388 1.399 . S
C389 H395 0.930 . S
H390 C370 0.931 . S
H391 C371 0.930 . S
H392 C379 0.931 1_565 S
H393 C380 0.929 . S
H394 C388 0.929 . S
H395 C389 0.930 . S
Mn396 O401 2.095 . S
Mn396 O411 2.162 . S
Mn396 O412 2.297 . S
Mn396 O420 2.385 . S
Mn396 O421 2.209 . S
Mn396 O422 2.094 1_565 S
Mn397 O402 2.121 . S
Mn397 N404 2.257 . S
Mn397 N413 2.282 . S
Mn397 O421 2.215 . S
Mn397 O423 2.117 1_565 S
C398 O420 1.234 . S
C398 O421 1.283 . S
C399 O411 1.281 . S
C399 O412 1.236 . S
C400 O422 1.240 . S
C400 O423 1.264 . S
O401 Mn396 2.095 . S
O401 C410 1.250 . S
O402 Mn397 2.121 . S
O402 C410 1.258 . S
C403 N404 1.326 . S
C403 C407 1.460 . S
C403 H409 0.929 . S
N404 Mn397 2.257 . S
N404 C403 1.326 . S
N404 C408 1.362 . S
C405 C406 1.258 . S
C405 C408 1.431 . S
C405 C425 1.449 . S
C406 C405 1.258 . S
C406 C407 1.477 . S
C406 H426 0.931 . S
C407 C403 1.460 . S
C407 C406 1.477 . S
C407 H427 0.930 . S
C408 N404 1.362 . S
C408 C405 1.431 . S
C408 C418 1.476 . S
H409 C403 0.929 . S
C410 O401 1.250 . S
C410 O402 1.258 . S
O411 Mn396 2.162 . S
O411 C399 1.281 . S
O412 Mn396 2.297 . S
O412 C399 1.236 . S
N413 Mn397 2.282 . S
N413 C414 1.328 . S
N413 C418 1.318 . S
C414 N413 1.328 . S
C414 C415 1.457 . S
C414 H419 0.929 . S
C415 C414 1.457 . S
C415 C416 1.291 . S
C415 H428 0.931 . S
C416 C415 1.291 . S
C416 C417 1.373 . S
C416 H429 0.929 . S
C417 C416 1.373 . S
C417 C418 1.396 . S
C417 C424 1.403 . S
C418 C408 1.476 . S
C418 N413 1.318 . S
C418 C417 1.396 . S
H419 C414 0.929 . S
O420 Mn396 2.385 . S
O420 C398 1.234 . S
O421 Mn396 2.209 . S
O421 Mn397 2.215 . S
O421 C398 1.283 . S
O422 Mn396 2.094 1_545 S
O422 C400 1.240 . S
O423 Mn397 2.117 1_545 S
O423 C400 1.264 . S
C424 C417 1.403 . S
C424 C425 1.399 . S
C424 H430 0.929 . S
C425 C405 1.449 . S
C425 C424 1.399 . S
C425 H431 0.930 . S
H426 C406 0.931 . S
H427 C407 0.930 . S
H428 C415 0.931 . S
H429 C416 0.929 . S
H430 C424 0.929 . S
H431 C425 0.930 . S
Mn432 O437 2.095 . S
Mn432 O447 2.162 . S
Mn432 O448 2.297 . S
Mn432 O456 2.385 . S
Mn432 O457 2.209 . S
Mn432 O458 2.094 . S
Mn433 O438 2.121 . S
Mn433 N440 2.257 . S
Mn433 N449 2.282 . S
Mn433 O457 2.215 . S
Mn433 O459 2.117 . S
C434 O456 1.234 . S
C434 O457 1.283 . S
C435 O447 1.281 . S
C435 O448 1.236 . S
C436 O458 1.240 . S
C436 O459 1.264 . S
O437 Mn432 2.095 . S
O437 C446 1.250 . S
O438 Mn433 2.121 . S
O438 C446 1.258 . S
C439 N440 1.326 . S
C439 C443 1.460 . S
C439 H445 0.929 . S
N440 Mn433 2.257 . S
N440 C439 1.326 . S
N440 C444 1.362 . S
C441 C442 1.258 . S
C441 C444 1.431 . S
C441 C461 1.449 . S
C442 C441 1.258 . S
C442 C443 1.477 . S
C442 H462 0.931 . S
C443 C439 1.460 . S
C443 C442 1.477 . S
C443 H463 0.930 . S
C444 N440 1.362 . S
C444 C441 1.431 . S
C444 C454 1.476 . S
H445 C439 0.929 . S
C446 O437 1.250 . S
C446 O438 1.258 . S
O447 Mn432 2.162 . S
O447 C435 1.281 . S
O448 Mn432 2.297 . S
O448 C435 1.236 . S
N449 Mn433 2.282 . S
N449 C450 1.328 . S
N449 C454 1.318 . S
C450 N449 1.328 . S
C450 C451 1.457 . S
C450 H455 0.929 . S
C451 C450 1.457 . S
C451 C452 1.291 . S
C451 H464 0.931 . S
C452 C451 1.291 . S
C452 C453 1.373 . S
C452 H465 0.929 . S
C453 C452 1.373 . S
C453 C454 1.396 . S
C453 C460 1.403 . S
C454 C444 1.476 . S
C454 N449 1.318 . S
C454 C453 1.396 . S
H455 C450 0.929 . S
O456 Mn432 2.385 . S
O456 C434 1.234 . S
O457 Mn432 2.209 . S
O457 Mn433 2.215 . S
O457 C434 1.283 . S
O458 Mn432 2.094 . S
O458 C436 1.240 . S
O459 Mn433 2.117 . S
O459 C436 1.264 . S
C460 C453 1.403 . S
C460 C461 1.399 . S
C460 H466 0.929 . S
C461 C441 1.449 . S
C461 C460 1.399 . S
C461 H467 0.930 . S
H462 C442 0.931 . S
H463 C443 0.930 . S
H464 C451 0.931 . S
H465 C452 0.929 . S
H466 C460 0.929 . S
H467 C461 0.930 . S
Mn468 O473 2.095 . S
Mn468 O483 2.162 . S
Mn468 O484 2.297 . S
Mn468 O492 2.385 . S
Mn468 O493 2.209 . S
Mn468 O494 2.094 . S
Mn469 O474 2.121 . S
Mn469 N476 2.257 . S
Mn469 N485 2.282 . S
Mn469 O493 2.215 . S
Mn469 O495 2.117 . S
C470 O492 1.234 . S
C470 O493 1.283 . S
C471 O483 1.281 . S
C471 O484 1.236 . S
C472 O494 1.240 . S
C472 O495 1.264 . S
O473 Mn468 2.095 . S
O473 C482 1.250 . S
O474 Mn469 2.121 . S
O474 C482 1.258 . S
C475 N476 1.326 . S
C475 C479 1.460 . S
C475 H481 0.929 . S
N476 Mn469 2.257 . S
N476 C475 1.326 . S
N476 C480 1.362 . S
C477 C478 1.258 . S
C477 C480 1.431 . S
C477 C497 1.449 1_565 S
C478 C477 1.258 . S
C478 C479 1.477 . S
C478 H498 0.931 1_565 S
C479 C475 1.460 . S
C479 C478 1.477 . S
C479 H499 0.930 . S
C480 N476 1.362 . S
C480 C477 1.431 . S
C480 C490 1.476 . S
H481 C475 0.929 . S
C482 O473 1.250 . S
C482 O474 1.258 . S
O483 Mn468 2.162 . S
O483 C471 1.281 . S
O484 Mn468 2.297 . S
O484 C471 1.236 . S
N485 Mn469 2.282 . S
N485 C486 1.328 . S
N485 C490 1.318 . S
C486 N485 1.328 . S
C486 C487 1.457 . S
C486 H491 0.929 . S
C487 C486 1.457 . S
C487 C488 1.291 . S
C487 H500 0.931 1_556 S
C488 C487 1.291 . S
C488 C489 1.373 . S
C488 H501 0.929 1_556 S
C489 C488 1.373 . S
C489 C490 1.396 . S
C489 C496 1.403 . S
C490 C480 1.476 . S
C490 N485 1.318 . S
C490 C489 1.396 . S
H491 C486 0.929 . S
O492 Mn468 2.385 . S
O492 C470 1.234 . S
O493 Mn468 2.209 . S
O493 Mn469 2.215 . S
O493 C470 1.283 . S
O494 Mn468 2.094 . S
O494 C472 1.240 . S
O495 Mn469 2.117 . S
O495 C472 1.264 . S
C496 C489 1.403 . S
C496 C497 1.399 1_565 S
C496 H502 0.929 1_566 S
C497 C477 1.449 1_545 S
C497 C496 1.399 1_545 S
C497 H503 0.930 . S
H498 C478 0.931 1_545 S
H499 C479 0.930 . S
H500 C487 0.931 1_554 S
H501 C488 0.929 1_554 S
H502 C496 0.929 1_544 S
H503 C497 0.930 . S
Mn504 O509 2.095 . S
Mn504 O519 2.162 . S
Mn504 O520 2.297 . S
Mn504 O528 2.385 . S
Mn504 O529 2.209 . S
Mn504 O530 2.094 . S
Mn505 O510 2.121 . S
Mn505 N512 2.257 . S
Mn505 N521 2.282 . S
Mn505 O529 2.215 . S
Mn505 O531 2.117 . S
C506 O528 1.234 . S
C506 O529 1.283 . S
C507 O519 1.281 . S
C507 O520 1.236 . S
C508 O530 1.240 . S
C508 O531 1.264 . S
O509 Mn504 2.095 . S
O509 C518 1.250 . S
O510 Mn505 2.121 . S
O510 C518 1.258 . S
C511 N512 1.326 . S
C511 C515 1.460 . S
C511 H517 0.929 . S
N512 Mn505 2.257 . S
N512 C511 1.326 . S
N512 C516 1.362 . S
C513 C514 1.258 . S
C513 C516 1.431 . S
C513 C533 1.449 . S
C514 C513 1.258 . S
C514 C515 1.477 . S
C514 H534 0.931 . S
C515 C511 1.460 . S
C515 C514 1.477 . S
C515 H535 0.930 . S
C516 N512 1.362 . S
C516 C513 1.431 . S
C516 C526 1.476 . S
H517 C511 0.929 . S
C518 O509 1.250 . S
C518 O510 1.258 . S
O519 Mn504 2.162 . S
O519 C507 1.281 . S
O520 Mn504 2.297 . S
O520 C507 1.236 . S
N521 Mn505 2.282 . S
N521 C522 1.328 . S
N521 C526 1.318 . S
C522 N521 1.328 . S
C522 C523 1.457 . S
C522 H527 0.929 . S
C523 C522 1.457 . S
C523 C524 1.291 . S
C523 H536 0.931 . S
C524 C523 1.291 . S
C524 C525 1.373 . S
C524 H537 0.929 . S
C525 C524 1.373 . S
C525 C526 1.396 . S
C525 C532 1.403 . S
C526 C516 1.476 . S
C526 N521 1.318 . S
C526 C525 1.396 . S
H527 C522 0.929 . S
O528 Mn504 2.385 . S
O528 C506 1.234 . S
O529 Mn504 2.209 . S
O529 Mn505 2.215 . S
O529 C506 1.283 . S
O530 Mn504 2.094 . S
O530 C508 1.240 . S
O531 Mn505 2.117 . S
O531 C508 1.264 . S
C532 C525 1.403 . S
C532 C533 1.399 . S
C532 H538 0.929 . S
C533 C513 1.449 . S
C533 C532 1.399 . S
C533 H539 0.930 . S
H534 C514 0.931 . S
H535 C515 0.930 . S
H536 C523 0.931 . S
H537 C524 0.929 . S
H538 C532 0.929 . S
H539 C533 0.930 . S
Mn540 O545 2.095 . S
Mn540 O555 2.162 . S
Mn540 O556 2.297 . S
Mn540 O564 2.385 . S
Mn540 O565 2.209 . S
Mn540 O566 2.094 . S
Mn541 O546 2.121 . S
Mn541 N548 2.257 . S
Mn541 N557 2.282 . S
Mn541 O565 2.215 . S
Mn541 O567 2.117 . S
C542 O564 1.234 . S
C542 O565 1.283 . S
C543 O555 1.281 . S
C543 O556 1.236 . S
C544 O566 1.240 . S
C544 O567 1.264 . S
O545 Mn540 2.095 . S
O545 C554 1.250 . S
O546 Mn541 2.121 . S
O546 C554 1.258 . S
C547 N548 1.326 . S
C547 C551 1.460 . S
C547 H553 0.929 . S
N548 Mn541 2.257 . S
N548 C547 1.326 . S
N548 C552 1.362 . S
C549 C550 1.258 . S
C549 C552 1.431 . S
C549 C569 1.449 1_545 S
C550 C549 1.258 . S
C550 C551 1.477 . S
C550 H570 0.931 1_545 S
C551 C547 1.460 . S
C551 C550 1.477 . S
C551 H571 0.930 . S
C552 N548 1.362 . S
C552 C549 1.431 . S
C552 C562 1.476 . S
H553 C547 0.929 . S
C554 O545 1.250 . S
C554 O546 1.258 . S
O555 Mn540 2.162 . S
O555 C543 1.281 . S
O556 Mn540 2.297 . S
O556 C543 1.236 . S
N557 Mn541 2.282 . S
N557 C558 1.328 . S
N557 C562 1.318 . S
C558 N557 1.328 . S
C558 C559 1.457 . S
C558 H563 0.929 . S
C559 C558 1.457 . S
C559 C560 1.291 . S
C559 H572 0.931 1_554 S
C560 C559 1.291 . S
C560 C561 1.373 . S
C560 H573 0.929 1_554 S
C561 C560 1.373 . S
C561 C562 1.396 . S
C561 C568 1.403 . S
C562 C552 1.476 . S
C562 N557 1.318 . S
C562 C561 1.396 . S
H563 C558 0.929 . S
O564 Mn540 2.385 . S
O564 C542 1.234 . S
O565 Mn540 2.209 . S
O565 Mn541 2.215 . S
O565 C542 1.283 . S
O566 Mn540 2.094 . S
O566 C544 1.240 . S
O567 Mn541 2.117 . S
O567 C544 1.264 . S
C568 C561 1.403 . S
C568 C569 1.399 1_545 S
C568 H574 0.929 1_544 S
C569 C549 1.449 1_565 S
C569 C568 1.399 1_565 S
C569 H575 0.930 . S
H570 C550 0.931 1_565 S
H571 C551 0.930 . S
H572 C559 0.931 1_556 S
H573 C560 0.929 1_556 S
H574 C568 0.929 1_566 S
H575 C569 0.930 . S
C518 C14 1.564 . S
C75 C3 1.545 1_665 S
C410 C50 1.564 1_565 S
C39 C255 1.545 1_455 S
C86 C446 1.564 . S
C338 C122 1.564 1_545 S
C111 C183 1.545 1_655 S
C374 C158 1.564 1_554 S
C147 C219 1.545 1_456 S
C554 C194 1.564 . S
C302 C230 1.564 1_556 S
C482 C266 1.564 . S
C291 C363 1.545 1_546 S
C543 C327 1.545 . S
C399 C471 1.545 . S
C507 C435 1.545 . S
C182 C2 1.300 . S
C4 C184 1.374 . S
C38 C146 1.300 . S
C148 C40 1.374 . S
C254 C74 1.300 . S
C256 C76 1.374 . S
C218 C110 1.300 . S
C112 C220 1.374 . S
C470 C290 1.300 . S
C292 C472 1.374 . S
C326 C434 1.300 . S
C436 C328 1.374 . S
C542 C362 1.300 . S
C544 C364 1.374 . S
C398 C506 1.300 . S
C508 C400 1.374 . S
