# Generated by pormake.
# Topology ukk, (4)-cn, num edge types: 1
# Building blocks:
#     Node 0, Type 0, BuildingBlock: CEKHIL_clean_sbu_0, # of connection points: 4
#     Node 1, Type 0, BuildingBlock: CEKHIL_clean_sbu_0, # of connection points: 4
#     Node 2, Type 0, BuildingBlock: CEKHIL_clean_sbu_0, # of connection points: 4
#     Node 3, Type 0, BuildingBlock: CEKHIL_clean_sbu_0, # of connection points: 4
#     Node 4, Type 0, BuildingBlock: CEKHIL_clean_sbu_0, # of connection points: 4
#     Node 5, Type 0, BuildingBlock: CEKHIL_clean_sbu_0, # of connection points: 4
#     Node 6, Type 0, BuildingBlock: CEKHIL_clean_sbu_0, # of connection points: 4
#     Node 7, Type 0, BuildingBlock: CEKHIL_clean_sbu_0, # of connection points: 4
#     Node 8, Type 0, BuildingBlock: CEKHIL_clean_sbu_0, # of connection points: 4
#     Node 9, Type 0, BuildingBlock: CEKHIL_clean_sbu_0, # of connection points: 4
#     Node 10, Type 0, BuildingBlock: CEKHIL_clean_sbu_0, # of connection points: 4
#     Node 11, Type 0, BuildingBlock: CEKHIL_clean_sbu_0, # of connection points: 4
#     Node 12, Type 0, BuildingBlock: CEKHIL_clean_sbu_0, # of connection points: 4
#     Node 13, Type 0, BuildingBlock: CEKHIL_clean_sbu_0, # of connection points: 4
#     Node 14, Type 0, BuildingBlock: CEKHIL_clean_sbu_0, # of connection points: 4
#     Node 15, Type 0, BuildingBlock: CEKHIL_clean_sbu_0, # of connection points: 4
#     Edge 16, Type (0, 0), BuildingBlock: EZIPEK_clean_linker_0, # of connection points: 2
#     Edge 17, Type (0, 0), BuildingBlock: EZIPEK_clean_linker_0, # of connection points: 2
#     Edge 18, Type (0, 0), BuildingBlock: EZIPEK_clean_linker_0, # of connection points: 2
#     Edge 19, Type (0, 0), BuildingBlock: EZIPEK_clean_linker_0, # of connection points: 2
#     Edge 20, Type (0, 0), BuildingBlock: EZIPEK_clean_linker_0, # of connection points: 2
#     Edge 21, Type (0, 0), BuildingBlock: EZIPEK_clean_linker_0, # of connection points: 2
#     Edge 22, Type (0, 0), BuildingBlock: EZIPEK_clean_linker_0, # of connection points: 2
#     Edge 23, Type (0, 0), BuildingBlock: EZIPEK_clean_linker_0, # of connection points: 2
#     Edge 24, Type (0, 0), BuildingBlock: EZIPEK_clean_linker_0, # of connection points: 2
#     Edge 25, Type (0, 0), BuildingBlock: EZIPEK_clean_linker_0, # of connection points: 2
#     Edge 26, Type (0, 0), BuildingBlock: EZIPEK_clean_linker_0, # of connection points: 2
#     Edge 27, Type (0, 0), BuildingBlock: EZIPEK_clean_linker_0, # of connection points: 2
#     Edge 28, Type (0, 0), BuildingBlock: EZIPEK_clean_linker_0, # of connection points: 2
#     Edge 29, Type (0, 0), BuildingBlock: EZIPEK_clean_linker_0, # of connection points: 2
#     Edge 30, Type (0, 0), BuildingBlock: EZIPEK_clean_linker_0, # of connection points: 2
#     Edge 31, Type (0, 0), BuildingBlock: EZIPEK_clean_linker_0, # of connection points: 2
#     Edge 32, Type (0, 0), BuildingBlock: EZIPEK_clean_linker_0, # of connection points: 2
#     Edge 33, Type (0, 0), BuildingBlock: EZIPEK_clean_linker_0, # of connection points: 2
#     Edge 34, Type (0, 0), BuildingBlock: EZIPEK_clean_linker_0, # of connection points: 2
#     Edge 35, Type (0, 0), BuildingBlock: EZIPEK_clean_linker_0, # of connection points: 2
#     Edge 36, Type (0, 0), BuildingBlock: EZIPEK_clean_linker_0, # of connection points: 2
#     Edge 37, Type (0, 0), BuildingBlock: EZIPEK_clean_linker_0, # of connection points: 2
#     Edge 38, Type (0, 0), BuildingBlock: EZIPEK_clean_linker_0, # of connection points: 2
#     Edge 39, Type (0, 0), BuildingBlock: EZIPEK_clean_linker_0, # of connection points: 2
#     Edge 40, Type (0, 0), BuildingBlock: EZIPEK_clean_linker_0, # of connection points: 2
#     Edge 41, Type (0, 0), BuildingBlock: EZIPEK_clean_linker_0, # of connection points: 2
#     Edge 42, Type (0, 0), BuildingBlock: EZIPEK_clean_linker_0, # of connection points: 2
#     Edge 43, Type (0, 0), BuildingBlock: EZIPEK_clean_linker_0, # of connection points: 2
#     Edge 44, Type (0, 0), BuildingBlock: EZIPEK_clean_linker_0, # of connection points: 2
#     Edge 45, Type (0, 0), BuildingBlock: EZIPEK_clean_linker_0, # of connection points: 2
#     Edge 46, Type (0, 0), BuildingBlock: EZIPEK_clean_linker_0, # of connection points: 2
#     Edge 47, Type (0, 0), BuildingBlock: EZIPEK_clean_linker_0, # of connection points: 2
# Relax obj value: 0.118
# Max RMSD: 0.292
# Mean RMSD: 0.292
data_MOF--net-ukk--node1-CEKHIL_clean_sbu_0--edge1-EZIPEK_clean_linker_0
_symmetry_space_group_name_H-M    P1
_symmetry_Int_Tables_number       1
_symmetry_cell_setting            triclinic
loop_
_symmetry_equiv_pos_as_xyz
'x, y, z'
_cell_length_a     39.2
_cell_length_b     39.2
_cell_length_c     12.088
_cell_angle_alpha  90.0
_cell_angle_beta   90.0
_cell_angle_gamma 90.0
loop_
_atom_site_label
_atom_site_type_symbol
_atom_site_fract_x
_atom_site_fract_y
_atom_site_fract_z
_atom_type_partial_charge
Co0 Co 0.34537 0.10799 0.13842 0.0
O1 O 0.29745 0.09908 0.11914 0.0
O2 O 0.33488 0.10324 0.98255 0.0
C3 C 0.35514 0.06955 0.27384 0.0
O4 O 0.39712 0.11612 0.12864 0.0
Co5 Co 0.36823 0.14049 0.35641 0.0
O6 O 0.41443 0.13743 0.29237 0.0
C7 C 0.34203 0.18518 0.18297 0.0
C8 C 0.30337 0.09876 0.01368 0.0
C9 C 0.42062 0.12692 0.19482 0.0
O10 O 0.33663 0.15851 0.12432 0.0
O11 O 0.35331 0.18389 0.28207 0.0
O12 O 0.35427 0.06063 0.17072 0.0
O13 O 0.34537 0.10059 0.29491 0.0
Co14 Co 0.10855 0.6422 0.87969 0.0
O15 O 0.09969 0.68984 0.90143 0.0
O16 O 0.10565 0.6519 0.03646 0.0
C17 C 0.06923 0.63348 0.74651 0.0
O18 O 0.11696 0.5907 0.88719 0.0
Co19 Co 0.13953 0.61988 0.66047 0.0
O20 O 0.13392 0.57317 0.71858 0.0
C21 C 0.18509 0.64737 0.82824 0.0
C22 C 0.10124 0.68352 0.00647 0.0
C23 C 0.12548 0.56712 0.81826 0.0
O24 O 0.15881 0.65141 0.88936 0.0
O25 O 0.18339 0.63622 0.72909 0.0
O26 O 0.06107 0.63314 0.85043 0.0
O27 O 0.10017 0.6433 0.72417 0.0
Co28 Co 0.64866 0.88747 0.11581 0.0
O29 O 0.69726 0.8899 0.10039 0.0
O30 O 0.66062 0.88937 0.96038 0.0
C31 C 0.64353 0.92782 0.24798 0.0
O32 O 0.59654 0.88662 0.10312 0.0
Co33 Co 0.62193 0.85911 0.334 0.0
O34 O 0.57687 0.87031 0.27002 0.0
C35 C 0.648 0.81093 0.17331 0.0
C36 C 0.69213 0.89028 0.99465 0.0
C37 C 0.57203 0.8804 0.17118 0.0
O38 O 0.65089 0.83619 0.1068 0.0
O39 O 0.63862 0.81432 0.27388 0.0
O40 O 0.64592 0.9358 0.14423 0.0
O41 O 0.64923 0.89596 0.27138 0.0
Co42 Co 0.89243 0.35816 0.85324 0.0
O43 O 0.89761 0.30957 0.86622 0.0
O44 O 0.8936 0.3454 0.0078 0.0
C45 C 0.93335 0.36625 0.72492 0.0
O46 O 0.88801 0.40983 0.87051 0.0
Co47 Co 0.8655 0.38628 0.63383 0.0
O48 O 0.87121 0.43125 0.70635 0.0
C49 C 0.81707 0.35568 0.78606 0.0
C50 C 0.89666 0.31418 0.97225 0.0
C51 C 0.88004 0.43494 0.80697 0.0
O52 O 0.84142 0.35321 0.85616 0.0
O53 O 0.82151 0.36547 0.68624 0.0
O54 O 0.94076 0.36388 0.82917 0.0
O55 O 0.90202 0.35925 0.69883 0.0
Co56 Co 0.35634 0.3944 0.12652 0.0
O57 O 0.3083 0.4027 0.14092 0.0
O58 O 0.34284 0.38939 0.27976 0.0
C59 C 0.36813 0.4404 0.02024 0.0
O60 O 0.40724 0.38466 0.1415 0.0
Co61 Co 0.38275 0.37656 0.89476 0.0
O62 O 0.42738 0.3726 0.9712 0.0
C63 C 0.3485 0.32359 0.02144 0.0
C64 C 0.31214 0.3965 0.24538 0.0
C65 C 0.43151 0.37641 0.07501 0.0
O66 O 0.34776 0.34423 0.1037 0.0
O67 O 0.35747 0.33281 0.9242 0.0
O68 O 0.36597 0.44293 0.12691 0.0
O69 O 0.3589 0.41126 0.97926 0.0
Co70 Co 0.39518 0.65414 0.91937 0.0
O71 O 0.39861 0.70294 0.90683 0.0
O72 O 0.39221 0.66758 0.76526 0.0
C73 C 0.43944 0.64628 0.03648 0.0
O74 O 0.39134 0.6024 0.90262 0.0
Co75 Co 0.37448 0.62575 0.14745 0.0
O76 O 0.37467 0.58145 0.06794 0.0
C77 C 0.32173 0.6544 0.00662 0.0
C78 C 0.39519 0.69878 0.8011 0.0
C79 C 0.38262 0.57759 0.96658 0.0
O80 O 0.34406 0.65724 0.92974 0.0
O81 O 0.32936 0.64642 0.10616 0.0
O82 O 0.44436 0.64975 0.93101 0.0
O83 O 0.4087 0.6525 0.07034 0.0
Co84 Co 0.64833 0.6026 0.09669 0.0
O85 O 0.69697 0.59536 0.09485 0.0
O86 O 0.6667 0.60713 0.24489 0.0
C87 C 0.63419 0.55679 0.99179 0.0
O88 O 0.59795 0.61067 0.13087 0.0
Co89 Co 0.61304 0.62022 0.87627 0.0
O90 O 0.57157 0.62318 0.97017 0.0
C91 C 0.64839 0.67445 0.99422 0.0
C92 C 0.69627 0.60056 0.20069 0.0
C93 C 0.57128 0.61878 0.07462 0.0
O94 O 0.65426 0.65336 0.07344 0.0
O95 O 0.63626 0.66529 0.90061 0.0
O96 O 0.64016 0.55366 0.09679 0.0
O97 O 0.64107 0.58644 0.95011 0.0
Co98 Co 0.60856 0.34328 0.90122 0.0
O99 O 0.60631 0.29436 0.89344 0.0
O100 O 0.6103 0.32873 0.74808 0.0
C101 C 0.56498 0.35041 0.02103 0.0
O102 O 0.61054 0.39496 0.87913 0.0
Co103 Co 0.62984 0.37474 0.1238 0.0
O104 O 0.62444 0.41847 0.04335 0.0
C105 C 0.68283 0.34751 0.98021 0.0
C106 C 0.60805 0.29786 0.78713 0.0
C107 C 0.61695 0.42088 0.94122 0.0
O108 O 0.65982 0.34173 0.90727 0.0
O109 O 0.67608 0.35761 0.07838 0.0
O110 O 0.55955 0.34628 0.91616 0.0
O111 O 0.59616 0.34557 0.05342 0.0
Co112 Co 0.85997 0.60779 0.59679 0.0
O113 O 0.81237 0.5979 0.57703 0.0
O114 O 0.84945 0.60484 0.44037 0.0
C115 C 0.87036 0.56821 0.72797 0.0
O116 O 0.91135 0.61753 0.58785 0.0
Co117 Co 0.88223 0.63825 0.81794 0.0
O118 O 0.92869 0.6352 0.75608 0.0
C119 C 0.85439 0.68407 0.65062 0.0
C120 C 0.81807 0.59954 0.47164 0.0
C121 C 0.93479 0.62708 0.65613 0.0
O122 O 0.84972 0.65796 0.589 0.0
O123 O 0.86596 0.68206 0.74921 0.0
O124 O 0.87027 0.56038 0.62383 0.0
O125 O 0.85983 0.59877 0.75197 0.0
Co126 Co 0.60502 0.13516 0.38738 0.0
O127 O 0.5979 0.18307 0.41066 0.0
O128 O 0.61025 0.14587 0.54308 0.0
C129 C 0.55882 0.12728 0.2776 0.0
O130 O 0.6137 0.08377 0.3934 0.0
Co131 Co 0.62206 0.11157 0.15167 0.0
O132 O 0.62347 0.0655 0.2195 0.0
C133 C 0.67543 0.1441 0.2825 0.0
C134 C 0.60409 0.17728 0.51416 0.0
C135 C 0.62042 0.06006 0.32296 0.0
O136 O 0.65523 0.14325 0.36586 0.0
O137 O 0.66584 0.13655 0.18431 0.0
O138 O 0.55614 0.12693 0.38453 0.0
O139 O 0.58854 0.13579 0.23976 0.0
Co140 Co 0.1437 0.3895 0.62227 0.0
O141 O 0.19208 0.39738 0.61759 0.0
O142 O 0.15922 0.38995 0.47006 0.0
C143 C 0.13142 0.43097 0.74494 0.0
O144 O 0.09259 0.38174 0.5961 0.0
Co145 Co 0.11256 0.36285 0.83649 0.0
O146 O 0.06865 0.36804 0.75956 0.0
C147 C 0.14414 0.31387 0.68679 0.0
C148 C 0.18957 0.39476 0.51113 0.0
C149 C 0.06652 0.37466 0.65688 0.0
O150 O 0.15212 0.33911 0.62507 0.0
O151 O 0.12879 0.3175 0.77933 0.0
O152 O 0.13473 0.43748 0.64033 0.0
O153 O 0.1395 0.40024 0.77556 0.0
Co154 Co 0.39214 0.86089 0.39382 0.0
O155 O 0.39648 0.81243 0.41434 0.0
O156 O 0.38567 0.8494 0.54865 0.0
C157 C 0.43914 0.86798 0.28781 0.0
O158 O 0.38668 0.91303 0.40014 0.0
Co159 Co 0.37765 0.88634 0.15446 0.0
O160 O 0.38039 0.93196 0.22463 0.0
C161 C 0.32122 0.85928 0.28677 0.0
C162 C 0.3909 0.81793 0.5184 0.0
C163 C 0.38261 0.9372 0.32847 0.0
O164 O 0.34167 0.85618 0.36892 0.0
O165 O 0.33075 0.86844 0.18993 0.0
O166 O 0.4415 0.86567 0.39459 0.0
O167 O 0.40913 0.86142 0.24819 0.0
Co168 Co 0.8589 0.89382 0.61126 0.0
O169 O 0.81042 0.89998 0.62003 0.0
O170 O 0.84403 0.88769 0.76245 0.0
C171 C 0.86968 0.94048 0.50749 0.0
O172 O 0.90981 0.88623 0.63283 0.0
Co173 Co 0.88938 0.87845 0.38183 0.0
O174 O 0.93301 0.87667 0.46499 0.0
C175 C 0.85544 0.82361 0.50152 0.0
C176 C 0.81349 0.89368 0.72475 0.0
C177 C 0.93537 0.87975 0.56966 0.0
O178 O 0.8529 0.84355 0.5852 0.0
O179 O 0.86508 0.83386 0.40603 0.0
O180 O 0.86628 0.94273 0.61393 0.0
O181 O 0.86251 0.911 0.46514 0.0
Co182 Co 0.89073 0.15495 0.38879 0.0
O183 O 0.89741 0.20306 0.36807 0.0
O184 O 0.89275 0.16537 0.23208 0.0
C185 C 0.93105 0.14736 0.51986 0.0
O186 O 0.88465 0.10305 0.38097 0.0
Co187 Co 0.86146 0.13137 0.60893 0.0
O188 O 0.86698 0.08503 0.54842 0.0
C189 C 0.81394 0.15452 0.43974 0.0
C190 C 0.89619 0.19704 0.26283 0.0
C191 C 0.8762 0.07927 0.44941 0.0
O192 O 0.83993 0.16146 0.37994 0.0
O193 O 0.81646 0.14323 0.53854 0.0
O194 O 0.93869 0.14806 0.41561 0.0
O195 O 0.89992 0.15604 0.54443 0.0
Co196 Co 0.13813 0.1023 0.61901 0.0
O197 O 0.18554 0.08942 0.6225 0.0
O198 O 0.15477 0.1021 0.77031 0.0
C199 C 0.12132 0.06117 0.49976 0.0
O200 O 0.08818 0.11573 0.64572 0.0
Co201 Co 0.10946 0.12962 0.40032 0.0
O202 O 0.0657 0.13077 0.48108 0.0
C203 C 0.15047 0.17566 0.53834 0.0
C204 C 0.18439 0.09422 0.72837 0.0
C205 C 0.06301 0.12549 0.58463 0.0
O206 O 0.15121 0.15179 0.61037 0.0
O207 O 0.13605 0.17135 0.44435 0.0
O208 O 0.12428 0.05497 0.60481 0.0
O209 O 0.1321 0.09082 0.46786 0.0
Co210 Co 0.10763 0.85072 0.38791 0.0
O211 O 0.10663 0.80177 0.38407 0.0
O212 O 0.10647 0.8352 0.2359 0.0
C213 C 0.06669 0.85697 0.51694 0.0
O214 O 0.10688 0.9023 0.36122 0.0
Co215 Co 0.13218 0.88543 0.60119 0.0
O216 O 0.11928 0.92787 0.52321 0.0
C217 C 0.18319 0.85769 0.45037 0.0
C218 C 0.10581 0.80455 0.27737 0.0
C219 C 0.11066 0.92905 0.42185 0.0
O220 O 0.15903 0.85032 0.38296 0.0
O221 O 0.17808 0.87014 0.54669 0.0
O222 O 0.05913 0.85219 0.41373 0.0
O223 O 0.09866 0.85367 0.54252 0.0
C224 C 0.40512 0.99725 0.3322 0.0
C225 C 0.37973 0.97337 0.36424 0.0
C226 C 0.33995 0.02073 0.39569 0.0
C227 C 0.36514 0.0437 0.35739 0.0
N228 N 0.42492 0.05527 0.35331 0.0
N229 N 0.32691 0.9636 0.46192 0.0
C230 C 0.39901 0.0323 0.34962 0.0
C231 C 0.34857 0.98557 0.40985 0.0
N232 N 0.43361 0.98713 0.27649 0.0
N233 N 0.3074 0.03213 0.41005 0.0
H234 H 0.33255 0.93779 0.47191 0.0
H235 H 0.30491 0.97155 0.50281 0.0
H236 H 0.30132 0.05798 0.40265 0.0
H237 H 0.28675 0.01607 0.42518 0.0
H238 H 0.45171 0.00425 0.24653 0.0
H239 H 0.43703 0.96223 0.24916 0.0
H240 H 0.45055 0.04813 0.35294 0.0
H241 H 0.42 0.08069 0.37229 0.0
C242 C 0.02577 0.59999 0.64218 0.0
C243 C 0.0414 0.63189 0.66365 0.0
C244 C 0.98769 0.66134 0.62756 0.0
C245 C 0.97102 0.62921 0.62151 0.0
N246 N 0.97478 0.56894 0.58652 0.0
N247 N 0.04132 0.69247 0.63693 0.0
C248 C 0.99044 0.59882 0.61475 0.0
C249 C 0.0237 0.66245 0.64079 0.0
N250 N 0.04449 0.57092 0.65449 0.0
N251 N 0.96868 0.69054 0.62901 0.0
H252 H 0.06773 0.6934 0.64711 0.0
H253 H 0.03053 0.71564 0.61366 0.0
H254 H 0.94231 0.69029 0.6183 0.0
H255 H 0.97858 0.71465 0.64541 0.0
H256 H 0.03434 0.5464 0.65333 0.0
H257 H 0.07073 0.57184 0.66754 0.0
H258 H 0.98761 0.54602 0.57438 0.0
H259 H 0.94891 0.56772 0.56689 0.0
C260 C 0.61054 0.96565 0.37381 0.0
C261 C 0.6425 0.95578 0.33052 0.0
C262 C 0.66308 0.01425 0.35226 0.0
C263 C 0.62878 0.02516 0.36149 0.0
N264 N 0.57027 0.01211 0.40297 0.0
N265 N 0.70166 0.96829 0.30104 0.0
C266 C 0.60262 0.00106 0.38172 0.0
C267 C 0.66986 0.97931 0.33011 0.0
N268 N 0.58816 0.94102 0.40596 0.0
N269 N 0.68871 0.03761 0.36245 0.0
H270 H 0.70693 0.94242 0.2891 0.0
H271 H 0.72229 0.98442 0.28692 0.0
H272 H 0.68369 0.06316 0.38076 0.0
H273 H 0.71451 0.03134 0.36269 0.0
H274 H 0.5648 0.94606 0.44354 0.0
H275 H 0.59514 0.91536 0.40459 0.0
H276 H 0.54932 0.99596 0.40988 0.0
H277 H 0.56453 0.03795 0.41234 0.0
C278 C 0.01641 0.33999 0.60606 0.0
C279 C 0.03191 0.37257 0.60907 0.0
C280 C 0.97567 0.39934 0.61641 0.0
C281 C 0.96161 0.36726 0.64396 0.0
N282 N 0.96587 0.30622 0.64616 0.0
N283 N 0.02716 0.4335 0.5972 0.0
C284 C 0.98099 0.33716 0.62907 0.0
C285 C 0.01165 0.40241 0.60461 0.0
N286 N 0.03619 0.31198 0.58631 0.0
N287 N 0.95443 0.42661 0.6046 0.0
H288 H 0.05341 0.43585 0.58475 0.0
H289 H 0.01442 0.45665 0.60567 0.0
H290 H 0.92806 0.42375 0.61059 0.0
H291 H 0.96239 0.45074 0.57971 0.0
H292 H 0.02663 0.28739 0.57684 0.0
H293 H 0.06229 0.31416 0.57087 0.0
H294 H 0.97913 0.28329 0.65064 0.0
H295 H 0.93962 0.30387 0.65855 0.0
C296 C 0.34376 0.49221 0.92971 0.0
C297 C 0.3727 0.47175 0.95325 0.0
C298 C 0.41027 0.52127 0.93246 0.0
C299 C 0.38102 0.54225 0.9242 0.0
N300 N 0.32195 0.54809 0.87699 0.0
N301 N 0.43317 0.46364 0.94029 0.0
C302 C 0.34839 0.52763 0.90872 0.0
C303 C 0.40597 0.48532 0.94138 0.0
N304 N 0.31191 0.47816 0.93507 0.0
N305 N 0.44178 0.53604 0.93829 0.0
H306 H 0.42985 0.4373 0.94376 0.0
H307 H 0.45824 0.47123 0.92636 0.0
H308 H 0.44531 0.56218 0.92646 0.0
H309 H 0.46408 0.52285 0.95699 0.0
H310 H 0.28942 0.49223 0.9316 0.0
H311 H 0.30805 0.45204 0.94605 0.0
H312 H 0.29768 0.53915 0.85769 0.0
H313 H 0.32543 0.57406 0.86116 0.0
C314 C 0.49293 0.66721 0.12435 0.0
C315 C 0.46904 0.64049 0.11041 0.0
C316 C 0.51408 0.5981 0.13545 0.0
C317 C 0.53829 0.62473 0.1306 0.0
N318 N 0.55097 0.68289 0.1741 0.0
N319 N 0.45425 0.58281 0.15372 0.0
C320 C 0.52764 0.65884 0.14418 0.0
C321 C 0.4788 0.60652 0.13366 0.0
N322 N 0.48274 0.70024 0.11102 0.0
N323 N 0.52498 0.56508 0.13699 0.0
H324 H 0.4288 0.59005 0.16049 0.0
H325 H 0.45931 0.55764 0.17578 0.0
H326 H 0.5508 0.55899 0.14507 0.0
H327 H 0.5088 0.54418 0.12839 0.0
H328 H 0.49962 0.72073 0.10747 0.0
H329 H 0.45711 0.70672 0.1002 0.0
H330 H 0.54451 0.70796 0.19353 0.0
H331 H 0.57645 0.67647 0.18867 0.0
C332 C 0.64772 0.47047 0.86305 0.0
C333 C 0.61636 0.45584 0.89564 0.0
C334 C 0.59295 0.51277 0.92621 0.0
C335 C 0.62652 0.52605 0.92453 0.0
N336 N 0.68577 0.51918 0.87743 0.0
N337 N 0.55719 0.46234 0.94171 0.0
C338 C 0.6538 0.50558 0.88557 0.0
C339 C 0.58807 0.47692 0.9195 0.0
N340 N 0.67165 0.45041 0.81334 0.0
N341 N 0.56606 0.5346 0.93426 0.0
H342 H 0.55301 0.43622 0.93145 0.0
H343 H 0.53634 0.47574 0.97264 0.0
H344 H 0.56975 0.56087 0.93473 0.0
H345 H 0.54066 0.52703 0.9288 0.0
H346 H 0.69435 0.45974 0.78042 0.0
H347 H 0.66705 0.42466 0.79682 0.0
H348 H 0.70756 0.50474 0.8621 0.0
H349 H 0.69048 0.54511 0.8897 0.0
C350 C 0.49002 0.39528 0.13172 0.0
C351 C 0.4659 0.36874 0.11848 0.0
C352 C 0.51162 0.32681 0.10008 0.0
C353 C 0.53537 0.35397 0.09621 0.0
N354 N 0.54977 0.41032 0.15575 0.0
N355 N 0.453 0.30909 0.13311 0.0
C356 C 0.52536 0.38708 0.12875 0.0
C357 C 0.47661 0.33428 0.1184 0.0
N358 N 0.4791 0.42821 0.14104 0.0
N359 N 0.5225 0.29436 0.079 0.0
H360 H 0.42734 0.31464 0.14793 0.0
H361 H 0.45909 0.28334 0.14019 0.0
H362 H 0.54836 0.28854 0.0702 0.0
H363 H 0.5062 0.27368 0.06789 0.0
H364 H 0.49532 0.44922 0.1382 0.0
H365 H 0.45329 0.43434 0.14877 0.0
H366 H 0.54452 0.43475 0.18494 0.0
H367 H 0.57533 0.4032 0.16031 0.0
C368 C 0.91118 0.48979 0.82991 0.0
C369 C 0.88135 0.47039 0.84846 0.0
C370 C 0.84646 0.52207 0.84703 0.0
C371 C 0.87535 0.54055 0.81005 0.0
N372 N 0.93616 0.54616 0.8086 0.0
N373 N 0.82422 0.46828 0.91786 0.0
C374 C 0.9082 0.5257 0.81692 0.0
C375 C 0.85017 0.48684 0.87287 0.0
N376 N 0.94175 0.47349 0.81823 0.0
N377 N 0.81529 0.53757 0.84898 0.0
H378 H 0.82739 0.44256 0.93814 0.0
H379 H 0.80117 0.47874 0.94378 0.0
H380 H 0.8124 0.56364 0.83429 0.0
H381 H 0.79245 0.5247 0.8627 0.0
H382 H 0.96409 0.48541 0.79238 0.0
H383 H 0.94433 0.44735 0.83273 0.0
H384 H 0.96116 0.53768 0.81778 0.0
H385 H 0.93366 0.57253 0.80285 0.0
C386 C 0.51042 0.09597 0.18722 0.0
C387 C 0.52749 0.12716 0.20864 0.0
C388 C 0.47507 0.15895 0.1702 0.0
C389 C 0.45714 0.12758 0.1615 0.0
N390 N 0.4593 0.06761 0.12018 0.0
N391 N 0.52958 0.18813 0.1862 0.0
C392 C 0.47546 0.09651 0.15499 0.0
C393 C 0.511 0.15864 0.18705 0.0
N394 N 0.52721 0.06588 0.20356 0.0
N395 N 0.45719 0.18888 0.16925 0.0
H396 H 0.55585 0.1885 0.19956 0.0
H397 H 0.51976 0.21173 0.16301 0.0
H398 H 0.43107 0.18968 0.15323 0.0
H399 H 0.46767 0.21257 0.18802 0.0
H400 H 0.51528 0.04214 0.20352 0.0
H401 H 0.55323 0.065 0.22113 0.0
H402 H 0.47195 0.0448 0.10413 0.0
H403 H 0.43368 0.0674 0.09712 0.0
C404 C 0.15854 0.51384 0.8537 0.0
C405 C 0.1266 0.53094 0.8531 0.0
C406 C 0.09684 0.47637 0.8357 0.0
C407 C 0.1288 0.46008 0.82231 0.0
N408 N 0.18886 0.45976 0.85964 0.0
N409 N 0.06576 0.52853 0.87818 0.0
C410 C 0.15925 0.47769 0.84725 0.0
C411 C 0.0958 0.51207 0.85753 0.0
N412 N 0.18807 0.53234 0.85196 0.0
N413 N 0.06774 0.45784 0.82122 0.0
H414 H 0.06462 0.55469 0.89343 0.0
H415 H 0.04247 0.5162 0.8883 0.0
H416 H 0.06848 0.43144 0.81168 0.0
H417 H 0.04338 0.46829 0.81718 0.0
H418 H 0.21214 0.52173 0.84007 0.0
H419 H 0.18825 0.55887 0.85674 0.0
H420 H 0.21175 0.47064 0.88542 0.0
H421 H 0.18951 0.4332 0.85432 0.0
C422 C 0.48923 0.90688 0.25668 0.0
C423 C 0.46921 0.8786 0.22045 0.0
C424 C 0.51583 0.86181 0.09521 0.0
C425 C 0.53614 0.88776 0.14199 0.0
N426 N 0.5372 0.94391 0.21692 0.0
N427 N 0.46036 0.83424 0.08338 0.0
C428 C 0.52074 0.91354 0.20449 0.0
C429 C 0.48119 0.85807 0.1307 0.0
N430 N 0.47967 0.92609 0.34572 0.0
N431 N 0.53043 0.84021 0.02063 0.0
H432 H 0.43546 0.82979 0.10915 0.0
H433 H 0.46688 0.82009 0.01373 0.0
H434 H 0.55495 0.84472 0.99012 0.0
H435 H 0.5188 0.81839 0.98948 0.0
H436 H 0.49586 0.94376 0.38313 0.0
H437 H 0.45597 0.92409 0.38397 0.0
H438 H 0.5258 0.96512 0.25348 0.0
H439 H 0.5608 0.94839 0.17934 0.0
C440 C 0.90507 0.98839 0.4337 0.0
C441 C 0.87292 0.97204 0.44114 0.0
C442 C 0.84363 0.02609 0.40973 0.0
C443 C 0.87559 0.04312 0.41458 0.0
N444 N 0.9368 0.04103 0.40327 0.0
N445 N 0.81307 0.97226 0.39894 0.0
C446 C 0.90644 0.02428 0.41537 0.0
C447 C 0.84271 0.98993 0.41489 0.0
N448 N 0.93396 0.96959 0.44923 0.0
N449 N 0.81414 0.04469 0.40898 0.0
H450 H 0.81199 0.94571 0.40336 0.0
H451 H 0.79051 0.98338 0.37129 0.0
H452 H 0.81407 0.07123 0.40537 0.0
H453 H 0.78992 0.03418 0.41811 0.0
H454 H 0.95835 0.97979 0.45648 0.0
H455 H 0.93313 0.94311 0.45557 0.0
H456 H 0.96038 0.02898 0.39798 0.0
H457 H 0.93817 0.06734 0.39113 0.0
C458 C 0.98219 0.17317 0.60649 0.0
C459 C 0.95937 0.14524 0.60103 0.0
C460 C 0.00558 0.1058 0.64862 0.0
C461 C 0.02905 0.1328 0.63299 0.0
N462 N 0.04033 0.19284 0.63839 0.0
N463 N 0.94595 0.08822 0.65576 0.0
C464 C 0.01733 0.16689 0.62756 0.0
C465 C 0.97003 0.11256 0.63665 0.0
N466 N 0.97045 0.2051 0.58245 0.0
N467 N 0.01759 0.07373 0.66889 0.0
H468 H 0.92009 0.09425 0.6527 0.0
H469 H 0.95118 0.06365 0.68348 0.0
H470 H 0.04346 0.06905 0.68252 0.0
H471 H 0.0024 0.05199 0.67147 0.0
H472 H 0.98612 0.22622 0.57114 0.0
H473 H 0.94449 0.21004 0.5714 0.0
H474 H 0.03371 0.21853 0.64106 0.0
H475 H 0.06614 0.18809 0.65364 0.0
C476 C 0.07658 0.98206 0.41626 0.0
C477 C 0.10494 0.96357 0.37647 0.0
C478 C 0.13863 0.01575 0.36415 0.0
C479 C 0.11245 0.03302 0.42287 0.0
N480 N 0.05273 0.03748 0.46263 0.0
N481 N 0.15546 0.96415 0.26598 0.0
C482 C 0.07991 0.01774 0.43382 0.0
C483 C 0.13337 0.98111 0.3334 0.0
N484 N 0.0475 0.96485 0.44335 0.0
N485 N 0.16921 0.03141 0.34583 0.0
H486 H 0.15127 0.93873 0.24394 0.0
H487 H 0.17559 0.97591 0.22469 0.0
H488 H 0.17338 0.05705 0.36413 0.0
H489 H 0.19062 0.01878 0.3155 0.0
H490 H 0.02674 0.97589 0.48321 0.0
H491 H 0.04474 0.93885 0.42641 0.0
H492 H 0.02774 0.02862 0.46722 0.0
H493 H 0.05521 0.0638 0.4716 0.0
C494 C 0.98037 0.83829 0.61866 0.0
C495 C 0.96911 0.87256 0.61843 0.0
C496 C 0.02807 0.89198 0.63272 0.0
C497 C 0.03866 0.85925 0.59837 0.0
N498 N 0.02744 0.79936 0.58327 0.0
N499 N 0.98081 0.93193 0.6491 0.0
C500 C 0.01561 0.83155 0.60282 0.0
C501 C 0.99258 0.89945 0.63562 0.0
N502 N 0.95706 0.81268 0.63025 0.0
N503 N 0.05213 0.91549 0.66055 0.0
H504 H 0.9548 0.93724 0.65619 0.0
H505 H 0.99649 0.95333 0.65202 0.0
H506 H 0.07779 0.90867 0.66498 0.0
H507 H 0.04657 0.93984 0.68976 0.0
H508 H 0.96345 0.78698 0.6364 0.0
H509 H 0.93118 0.81778 0.64266 0.0
H510 H 0.01182 0.77813 0.57309 0.0
H511 H 0.05351 0.79434 0.57541 0.0
C512 C 0.36863 0.26247 0.01631 0.0
C513 C 0.34317 0.28669 0.04571 0.0
C514 C 0.315 0.24336 0.16138 0.0
C515 C 0.33967 0.219 0.12774 0.0
N516 N 0.38396 0.20321 0.99743 0.0
N517 N 0.28767 0.29776 0.12363 0.0
C518 C 0.3642 0.22775 0.04594 0.0
C519 C 0.31492 0.27635 0.11147 0.0
N520 N 0.39867 0.27268 0.96896 0.0
N521 N 0.29185 0.23508 0.24148 0.0
H522 H 0.28651 0.32161 0.08546 0.0
H523 H 0.26504 0.29071 0.16254 0.0
H524 H 0.29002 0.21062 0.27499 0.0
H525 H 0.27577 0.25285 0.27872 0.0
H526 H 0.41953 0.25648 0.9592 0.0
H527 H 0.40468 0.2979 0.95072 0.0
H528 H 0.39904 0.20796 0.92808 0.0
H529 H 0.38351 0.17759 0.01974 0.0
C530 C 0.22938 0.62765 0.96288 0.0
C531 C 0.21893 0.65159 0.88138 0.0
C532 C 0.27291 0.68235 0.90593 0.0
C533 C 0.2853 0.65524 0.9729 0.0
N534 N 0.27703 0.59772 0.04219 0.0
N535 N 0.23122 0.70111 0.77022 0.0
C536 C 0.26395 0.62684 0.99628 0.0
C537 C 0.24089 0.67878 0.85113 0.0
N538 N 0.20657 0.60534 0.00858 0.0
N539 N 0.29127 0.71188 0.89771 0.0
H540 H 0.20729 0.70019 0.73255 0.0
H541 H 0.24762 0.71915 0.73594 0.0
H542 H 0.31431 0.71556 0.93932 0.0
H543 H 0.28228 0.73371 0.85824 0.0
H544 H 0.2124 0.59031 0.07719 0.0
H545 H 0.1811 0.60367 0.98508 0.0
H546 H 0.26318 0.5751 0.04826 0.0
H547 H 0.30264 0.59448 0.06234 0.0
C548 C 0.61883 0.7639 0.07174 0.0
C549 C 0.64879 0.77637 0.12381 0.0
C550 C 0.68043 0.72618 0.05952 0.0
C551 C 0.64954 0.71147 0.02159 0.0
N552 N 0.58859 0.71618 0.99111 0.0
N553 N 0.70787 0.76939 0.17294 0.0
C554 C 0.6186 0.73051 0.02577 0.0
C555 C 0.67961 0.75754 0.11906 0.0
N556 N 0.59044 0.78413 0.06666 0.0
N557 N 0.71064 0.7109 0.03312 0.0
H558 H 0.70814 0.79259 0.21528 0.0
H559 H 0.73017 0.75526 0.18217 0.0
H560 H 0.71167 0.68915 0.98341 0.0
H561 H 0.73441 0.72153 0.04989 0.0
H562 H 0.56947 0.77899 0.0167 0.0
H563 H 0.58851 0.80742 0.1077 0.0
H564 H 0.56476 0.72741 0.00108 0.0
H565 H 0.58651 0.69178 0.95833 0.0
C566 C 0.73346 0.38089 0.91844 0.0
C567 C 0.71857 0.34859 0.94064 0.0
C568 C 0.76893 0.32019 0.86214 0.0
C569 C 0.78197 0.35249 0.82993 0.0
N570 N 0.77417 0.41338 0.81164 0.0
N571 N 0.72018 0.28733 0.9263 0.0
C572 C 0.76347 0.38275 0.85332 0.0
C573 C 0.73575 0.31812 0.91022 0.0
N574 N 0.71934 0.40997 0.96106 0.0
N575 N 0.78844 0.29162 0.84793 0.0
H576 H 0.69674 0.28494 0.96655 0.0
H577 H 0.72947 0.26444 0.89471 0.0
H578 H 0.81207 0.29209 0.80825 0.0
H579 H 0.78218 0.26788 0.88079 0.0
H580 H 0.73164 0.43352 0.96028 0.0
H581 H 0.69649 0.41046 0.00487 0.0
H582 H 0.75935 0.43544 0.81372 0.0
H583 H 0.79669 0.4165 0.76708 0.0
C584 C 0.87516 0.72858 0.51855 0.0
C585 C 0.85085 0.7182 0.59894 0.0
C586 C 0.82354 0.77432 0.58551 0.0
C587 C 0.85167 0.78644 0.52253 0.0
N588 N 0.90839 0.77553 0.4496 0.0
N589 N 0.802 0.7313 0.71213 0.0
C590 C 0.8784 0.76366 0.49298 0.0
C591 C 0.82498 0.74112 0.6334 0.0
N592 N 0.89574 0.70528 0.46732 0.0
N593 N 0.79514 0.79421 0.59682 0.0
H594 H 0.80131 0.70661 0.74439 0.0
H595 H 0.78495 0.74809 0.7496 0.0
H596 H 0.793 0.81818 0.55986 0.0
H597 H 0.77266 0.78574 0.63364 0.0
H598 H 0.9109 0.71144 0.39931 0.0
H599 H 0.89586 0.67936 0.48574 0.0
H600 H 0.92988 0.76017 0.43967 0.0
H601 H 0.91365 0.80117 0.43555 0.0
C602 C 0.77185 0.13211 0.30108 0.0
C603 C 0.77979 0.15582 0.38639 0.0
C604 C 0.72162 0.17861 0.37364 0.0
C605 C 0.71216 0.15062 0.30543 0.0
N606 N 0.72817 0.09701 0.21955 0.0
N607 N 0.76229 0.20203 0.50487 0.0
C608 C 0.73727 0.12662 0.27172 0.0
C609 C 0.75465 0.17925 0.42299 0.0
N610 N 0.79704 0.11436 0.2481 0.0
N611 N 0.69934 0.20504 0.38825 0.0
H612 H 0.78675 0.20451 0.53793 0.0
H613 H 0.74405 0.21718 0.54375 0.0
H614 H 0.67541 0.2057 0.35043 0.0
H615 H 0.7057 0.22759 0.42882 0.0
H616 H 0.7926 0.10008 0.17677 0.0
H617 H 0.82274 0.11576 0.26887 0.0
H618 H 0.74514 0.07693 0.20667 0.0
H619 H 0.7032 0.09053 0.19937 0.0
C620 C 0.16761 0.25473 0.71756 0.0
C621 C 0.15239 0.27902 0.64593 0.0
C622 C 0.15702 0.23787 0.49468 0.0
C623 C 0.16157 0.2111 0.57163 0.0
N624 N 0.17979 0.19569 0.75743 0.0
N625 N 0.12902 0.29145 0.46379 0.0
C626 C 0.16966 0.21995 0.68354 0.0
C627 C 0.14649 0.27021 0.53328 0.0
N628 N 0.18185 0.26518 0.81513 0.0
N629 N 0.16364 0.23272 0.38516 0.0
H630 H 0.11817 0.31444 0.48855 0.0
H631 H 0.12195 0.28418 0.38403 0.0
H632 H 0.17467 0.21014 0.35649 0.0
H633 H 0.16279 0.25236 0.32696 0.0
H634 H 0.19627 0.24933 0.86609 0.0
H635 H 0.18251 0.29068 0.83964 0.0
H636 H 0.17949 0.19941 0.84276 0.0
H637 H 0.18957 0.17223 0.73353 0.0
C638 C 0.23656 0.82652 0.39457 0.0
C639 C 0.21839 0.85759 0.40613 0.0
C640 C 0.26643 0.88934 0.32625 0.0
C641 C 0.28433 0.85811 0.31251 0.0
N642 N 0.28472 0.79682 0.3121 0.0
N643 N 0.21339 0.91798 0.37139 0.0
C644 C 0.26883 0.8266 0.34037 0.0
C645 C 0.23258 0.88883 0.36831 0.0
N646 N 0.22351 0.79728 0.4393 0.0
N647 N 0.28232 0.91961 0.30316 0.0
H648 H 0.18911 0.91909 0.40628 0.0
H649 H 0.22048 0.9408 0.33401 0.0
H650 H 0.30665 0.92124 0.26888 0.0
H651 H 0.27242 0.94344 0.32305 0.0
H652 H 0.23685 0.77437 0.44359 0.0
H653 H 0.20003 0.79658 0.47994 0.0
H654 H 0.27361 0.77285 0.32061 0.0
H655 H 0.30819 0.79635 0.27131 0.0
C656 C 0.24322 0.11651 0.77226 0.0
C657 C 0.2161 0.09345 0.79617 0.0
C658 C 0.25016 0.0692 0.94766 0.0
C659 C 0.27472 0.09554 0.93371 0.0
N660 N 0.29045 0.14877 0.84653 0.0
N661 N 0.19288 0.04871 0.91078 0.0
C662 C 0.27037 0.12023 0.84911 0.0
C663 C 0.21924 0.07016 0.8856 0.0
N664 N 0.24329 0.13526 0.67686 0.0
N665 N 0.25709 0.04243 0.01663 0.0
H666 H 0.17097 0.04664 0.8623 0.0
H667 H 0.19191 0.03428 0.98306 0.0
H668 H 0.28001 0.04015 0.05985 0.0
H669 H 0.24177 0.0208 0.02259 0.0
H670 H 0.26456 0.14888 0.64989 0.0
H671 H 0.22333 0.1356 0.62021 0.0
H672 H 0.2856 0.16947 0.79479 0.0
H673 H 0.30971 0.15367 0.90368 0.0
C674 C 0.0747 0.76574 0.14682 0.0
C675 C 0.1047 0.77359 0.20745 0.0
C676 C 0.13171 0.72067 0.14326 0.0
C677 C 0.1012 0.71215 0.08615 0.0
N678 N 0.04208 0.72306 0.04625 0.0
N679 N 0.16052 0.75766 0.27394 0.0
C680 C 0.07225 0.73379 0.09132 0.0
C681 C 0.13274 0.75066 0.20926 0.0
N682 N 0.04859 0.78885 0.14224 0.0
N683 N 0.16037 0.70119 0.12933 0.0
H684 H 0.1638 0.78079 0.31502 0.0
H685 H 0.17964 0.74004 0.29136 0.0
H686 H 0.16063 0.67838 0.08533 0.0
H687 H 0.18456 0.70849 0.15571 0.0
H688 H 0.02771 0.78658 0.08962 0.0
H689 H 0.04858 0.81164 0.18673 0.0
H690 H 0.01902 0.73588 0.05556 0.0
H691 H 0.03941 0.69954 0.00677 0.0
C692 C 0.72946 0.91976 0.8564 0.0
C693 C 0.72159 0.89009 0.91836 0.0
C694 C 0.77363 0.86212 0.85072 0.0
C695 C 0.7829 0.89282 0.79629 0.0
N696 N 0.7728 0.95248 0.76017 0.0
N697 N 0.73676 0.83377 0.98268 0.0
C698 C 0.76154 0.92205 0.80195 0.0
C699 C 0.74392 0.86151 0.91806 0.0
N700 N 0.70635 0.94583 0.85013 0.0
N701 N 0.79227 0.83306 0.83377 0.0
H702 H 0.71387 0.83094 0.0255 0.0
H703 H 0.75408 0.81422 0.99829 0.0
H704 H 0.81436 0.83236 0.78591 0.0
H705 H 0.78458 0.80896 0.85989 0.0
H706 H 0.7088 0.96642 0.79634 0.0
H707 H 0.68327 0.94577 0.89299 0.0
H708 H 0.76016 0.97556 0.77146 0.0
H709 H 0.79656 0.95539 0.72242 0.0
C710 C 0.86781 0.2491 0.18578 0.0
C711 C 0.89562 0.22581 0.18337 0.0
C712 C 0.9254 0.26223 0.04945 0.0
C713 C 0.89684 0.28453 0.04793 0.0
N714 N 0.83818 0.29575 0.09626 0.0
N715 N 0.94887 0.20734 0.10362 0.0
C716 C 0.86735 0.27714 0.11143 0.0
C717 C 0.92374 0.23141 0.11175 0.0
N718 N 0.84175 0.24459 0.25959 0.0
N719 N 0.95464 0.27132 0.99508 0.0
H720 H 0.94931 0.18528 0.15177 0.0
H721 H 0.96806 0.20797 0.04418 0.0
H722 H 0.95689 0.29387 0.94981 0.0
H723 H 0.97756 0.2581 0.00167 0.0
H724 H 0.82338 0.26309 0.27607 0.0
H725 H 0.83935 0.22306 0.30937 0.0
H726 H 0.8146 0.28892 0.12914 0.0
H727 H 0.83663 0.31656 0.04289 0.0
C728 C 0.24348 0.3668 0.44653 0.0
C729 C 0.22063 0.39493 0.44162 0.0
C730 C 0.2608 0.42591 0.32315 0.0
C731 C 0.28211 0.3966 0.3197 0.0
N732 N 0.29107 0.3371 0.36271 0.0
N733 N 0.20522 0.44973 0.36648 0.0
C734 C 0.2729 0.36653 0.37786 0.0
C735 C 0.22854 0.42399 0.37682 0.0
N736 N 0.23717 0.34029 0.51716 0.0
N737 N 0.27213 0.45602 0.2793 0.0
H738 H 0.18194 0.44984 0.40824 0.0
H739 H 0.2078 0.46978 0.31062 0.0
H740 H 0.29604 0.45866 0.24236 0.0
H741 H 0.2594 0.47915 0.28855 0.0
H742 H 0.25495 0.32132 0.53492 0.0
H743 H 0.21498 0.33828 0.564 0.0
H744 H 0.28309 0.31339 0.39169 0.0
H745 H 0.31272 0.33555 0.31301 0.0
C746 C 0.41844 0.78398 0.66994 0.0
C747 C 0.39046 0.78897 0.59737 0.0
C748 C 0.36463 0.73532 0.66133 0.0
C749 C 0.3941 0.72884 0.72641 0.0
N750 N 0.45136 0.7441 0.78021 0.0
N751 N 0.338 0.76883 0.5164 0.0
C752 C 0.42156 0.75252 0.72795 0.0
C753 C 0.36392 0.76439 0.59072 0.0
N754 N 0.44211 0.80928 0.6832 0.0
N755 N 0.33664 0.71469 0.67106 0.0
H756 H 0.33511 0.79105 0.47002 0.0
H757 H 0.32033 0.74996 0.49666 0.0
H758 H 0.33604 0.69313 0.7214 0.0
H759 H 0.31301 0.72029 0.63628 0.0
H760 H 0.46088 0.8089 0.74411 0.0
H761 H 0.44149 0.83207 0.63876 0.0
H762 H 0.47357 0.75857 0.77507 0.0
H763 H 0.45503 0.7209 0.82074 0.0
C764 C 0.75348 0.625 0.25055 0.0
C765 C 0.72816 0.59958 0.26693 0.0
C766 C 0.76558 0.57055 0.3998 0.0
C767 C 0.78903 0.59811 0.39294 0.0
N768 N 0.80231 0.6547 0.32586 0.0
N769 N 0.70854 0.54933 0.36285 0.0
C770 C 0.78242 0.62604 0.32126 0.0
C771 C 0.73371 0.57274 0.34361 0.0
N772 N 0.74985 0.64838 0.16763 0.0
N773 N 0.77443 0.54172 0.45668 0.0
H774 H 0.68567 0.54885 0.31878 0.0
H775 H 0.70936 0.53166 0.4271 0.0
H776 H 0.79797 0.53888 0.49592 0.0
H777 H 0.76002 0.51942 0.45636 0.0
H778 H 0.76933 0.66474 0.14264 0.0
H779 H 0.72818 0.64976 0.11821 0.0
H780 H 0.79613 0.67738 0.28568 0.0
H781 H 0.82341 0.65717 0.37751 0.0
C782 C 0.63635 0.21819 0.63414 0.0
C783 C 0.60463 0.20604 0.59345 0.0
C784 C 0.57493 0.25368 0.68346 0.0
C785 C 0.60694 0.26747 0.71493 0.0
N786 N 0.66832 0.26584 0.7099 0.0
N787 N 0.54387 0.21283 0.57119 0.0
C788 C 0.63774 0.25051 0.68758 0.0
C789 C 0.57393 0.22399 0.61583 0.0
N790 N 0.66508 0.19876 0.62237 0.0
N791 N 0.54549 0.26852 0.72058 0.0
H792 H 0.54167 0.1899 0.52796 0.0
H793 H 0.52139 0.22698 0.57227 0.0
H794 H 0.54519 0.29102 0.76668 0.0
H795 H 0.52146 0.25755 0.71188 0.0
H796 H 0.68822 0.20441 0.66039 0.0
H797 H 0.66529 0.17541 0.58118 0.0
H798 H 0.69169 0.25666 0.68194 0.0
H799 H 0.67017 0.28948 0.74902 0.0
loop_
_geom_bond_atom_site_label_1
_geom_bond_atom_site_label_2
_geom_bond_distance
_geom_bond_site_symmetry_2
_ccdc_geom_bond_type
Co0 O1 2.216 . S
Co0 O2 2.091 1_554 S
Co0 O4 2.004 . S
Co0 O10 2.021 . S
Co0 O12 2.137 . S
Co0 O13 2.244 . S
O1 Co0 2.216 . S
O1 C8 1.247 1_554 S
O2 Co0 2.091 1_556 S
O2 C8 1.261 . S
C3 O12 1.247 . S
C3 O13 1.272 . S
O4 Co0 2.004 . S
O4 C9 1.259 . S
Co5 O6 2.061 . S
Co5 O11 2.052 . S
Co5 O13 2.135 . S
O6 Co5 2.061 . S
O6 C9 1.235 . S
C7 O10 1.238 . S
C7 O11 1.241 . S
C8 O1 1.247 1_556 S
C8 O2 1.261 . S
C9 O4 1.259 . S
C9 O6 1.235 . S
O10 Co0 2.021 . S
O10 C7 1.238 . S
O11 Co5 2.052 . S
O11 C7 1.241 . S
O12 Co0 2.137 . S
O12 C3 1.247 . S
O13 Co0 2.244 . S
O13 C3 1.272 . S
O13 Co5 2.135 . S
Co14 O15 2.216 . S
Co14 O16 2.091 1_556 S
Co14 O18 2.004 . S
Co14 O24 2.021 . S
Co14 O26 2.137 . S
Co14 O27 2.244 . S
O15 Co14 2.216 . S
O15 C22 1.247 1_556 S
O16 Co14 2.091 1_554 S
O16 C22 1.261 . S
C17 O26 1.247 . S
C17 O27 1.272 . S
O18 Co14 2.004 . S
O18 C23 1.259 . S
Co19 O20 2.061 . S
Co19 O25 2.052 . S
Co19 O27 2.135 . S
O20 Co19 2.061 . S
O20 C23 1.235 . S
C21 O24 1.238 . S
C21 O25 1.241 . S
C22 O15 1.247 1_554 S
C22 O16 1.261 . S
C23 O18 1.259 . S
C23 O20 1.235 . S
O24 Co14 2.021 . S
O24 C21 1.238 . S
O25 Co19 2.052 . S
O25 C21 1.241 . S
O26 Co14 2.137 . S
O26 C17 1.247 . S
O27 Co14 2.244 . S
O27 C17 1.272 . S
O27 Co19 2.135 . S
Co28 O29 2.216 . S
Co28 O30 2.091 1_554 S
Co28 O32 2.004 . S
Co28 O38 2.021 . S
Co28 O40 2.137 . S
Co28 O41 2.244 . S
O29 Co28 2.216 . S
O29 C36 1.247 1_554 S
O30 Co28 2.091 1_556 S
O30 C36 1.261 . S
C31 O40 1.247 . S
C31 O41 1.272 . S
O32 Co28 2.004 . S
O32 C37 1.259 . S
Co33 O34 2.061 . S
Co33 O39 2.052 . S
Co33 O41 2.135 . S
O34 Co33 2.061 . S
O34 C37 1.235 . S
C35 O38 1.238 . S
C35 O39 1.241 . S
C36 O29 1.247 1_556 S
C36 O30 1.261 . S
C37 O32 1.259 . S
C37 O34 1.235 . S
O38 Co28 2.021 . S
O38 C35 1.238 . S
O39 Co33 2.052 . S
O39 C35 1.241 . S
O40 Co28 2.137 . S
O40 C31 1.247 . S
O41 Co28 2.244 . S
O41 C31 1.272 . S
O41 Co33 2.135 . S
Co42 O43 2.216 . S
Co42 O44 2.091 1_556 S
Co42 O46 2.004 . S
Co42 O52 2.021 . S
Co42 O54 2.137 . S
Co42 O55 2.244 . S
O43 Co42 2.216 . S
O43 C50 1.247 1_556 S
O44 Co42 2.091 1_554 S
O44 C50 1.261 . S
C45 O54 1.247 . S
C45 O55 1.272 . S
O46 Co42 2.004 . S
O46 C51 1.259 . S
Co47 O48 2.061 . S
Co47 O53 2.052 . S
Co47 O55 2.135 . S
O48 Co47 2.061 . S
O48 C51 1.235 . S
C49 O52 1.238 . S
C49 O53 1.241 . S
C50 O43 1.247 1_554 S
C50 O44 1.261 . S
C51 O46 1.259 . S
C51 O48 1.235 . S
O52 Co42 2.021 . S
O52 C49 1.238 . S
O53 Co47 2.052 . S
O53 C49 1.241 . S
O54 Co42 2.137 . S
O54 C45 1.247 . S
O55 Co42 2.244 . S
O55 C45 1.272 . S
O55 Co47 2.135 . S
Co56 O57 2.216 . S
Co56 O58 2.091 . S
Co56 O60 2.004 . S
Co56 O66 2.021 . S
Co56 O68 2.137 . S
Co56 O69 2.244 1_554 S
O57 Co56 2.216 . S
O57 C64 1.247 . S
O58 Co56 2.091 . S
O58 C64 1.261 . S
C59 O68 1.247 1_556 S
C59 O69 1.272 . S
O60 Co56 2.004 . S
O60 C65 1.259 . S
Co61 O62 2.061 . S
Co61 O67 2.052 . S
Co61 O69 2.135 . S
O62 Co61 2.061 . S
O62 C65 1.235 1_556 S
C63 O66 1.238 . S
C63 O67 1.241 1_554 S
C64 O57 1.247 . S
C64 O58 1.261 . S
C65 O60 1.259 . S
C65 O62 1.235 1_554 S
O66 Co56 2.021 . S
O66 C63 1.238 . S
O67 Co61 2.052 . S
O67 C63 1.241 1_556 S
O68 Co56 2.137 . S
O68 C59 1.247 1_554 S
O69 Co56 2.244 1_556 S
O69 C59 1.272 . S
O69 Co61 2.135 . S
Co70 O71 2.216 . S
Co70 O72 2.091 . S
Co70 O74 2.004 . S
Co70 O80 2.021 . S
Co70 O82 2.137 . S
Co70 O83 2.244 1_556 S
O71 Co70 2.216 . S
O71 C78 1.247 . S
O72 Co70 2.091 . S
O72 C78 1.261 . S
C73 O82 1.247 1_554 S
C73 O83 1.272 . S
O74 Co70 2.004 . S
O74 C79 1.259 . S
Co75 O76 2.061 . S
Co75 O81 2.052 . S
Co75 O83 2.135 . S
O76 Co75 2.061 . S
O76 C79 1.235 1_554 S
C77 O80 1.238 . S
C77 O81 1.241 1_556 S
C78 O71 1.247 . S
C78 O72 1.261 . S
C79 O74 1.259 . S
C79 O76 1.235 1_556 S
O80 Co70 2.021 . S
O80 C77 1.238 . S
O81 Co75 2.052 . S
O81 C77 1.241 1_554 S
O82 Co70 2.137 . S
O82 C73 1.247 1_556 S
O83 Co70 2.244 1_554 S
O83 C73 1.272 . S
O83 Co75 2.135 . S
Co84 O85 2.216 . S
Co84 O86 2.091 . S
Co84 O88 2.004 . S
Co84 O94 2.021 . S
Co84 O96 2.137 . S
Co84 O97 2.244 1_554 S
O85 Co84 2.216 . S
O85 C92 1.247 . S
O86 Co84 2.091 . S
O86 C92 1.261 . S
C87 O96 1.247 1_556 S
C87 O97 1.272 . S
O88 Co84 2.004 . S
O88 C93 1.259 . S
Co89 O90 2.061 . S
Co89 O95 2.052 . S
Co89 O97 2.135 . S
O90 Co89 2.061 . S
O90 C93 1.235 1_556 S
C91 O94 1.238 . S
C91 O95 1.241 1_554 S
C92 O85 1.247 . S
C92 O86 1.261 . S
C93 O88 1.259 . S
C93 O90 1.235 1_554 S
O94 Co84 2.021 . S
O94 C91 1.238 . S
O95 Co89 2.052 . S
O95 C91 1.241 1_556 S
O96 Co84 2.137 . S
O96 C87 1.247 1_554 S
O97 Co84 2.244 1_556 S
O97 C87 1.272 . S
O97 Co89 2.135 . S
Co98 O99 2.216 . S
Co98 O100 2.091 . S
Co98 O102 2.004 . S
Co98 O108 2.021 . S
Co98 O110 2.137 . S
Co98 O111 2.244 1_556 S
O99 Co98 2.216 . S
O99 C106 1.247 . S
O100 Co98 2.091 . S
O100 C106 1.261 . S
C101 O110 1.247 1_554 S
C101 O111 1.272 . S
O102 Co98 2.004 . S
O102 C107 1.259 . S
Co103 O104 2.061 . S
Co103 O109 2.052 . S
Co103 O111 2.135 . S
O104 Co103 2.061 . S
O104 C107 1.235 1_554 S
C105 O108 1.238 . S
C105 O109 1.241 1_556 S
C106 O99 1.247 . S
C106 O100 1.261 . S
C107 O102 1.259 . S
C107 O104 1.235 1_556 S
O108 Co98 2.021 . S
O108 C105 1.238 . S
O109 Co103 2.052 . S
O109 C105 1.241 1_554 S
O110 Co98 2.137 . S
O110 C101 1.247 1_556 S
O111 Co98 2.244 1_554 S
O111 C101 1.272 . S
O111 Co103 2.135 . S
Co112 O113 2.216 . S
Co112 O114 2.091 . S
Co112 O116 2.004 . S
Co112 O122 2.021 . S
Co112 O124 2.137 . S
Co112 O125 2.244 . S
O113 Co112 2.216 . S
O113 C120 1.247 . S
O114 Co112 2.091 . S
O114 C120 1.261 . S
C115 O124 1.247 . S
C115 O125 1.272 . S
O116 Co112 2.004 . S
O116 C121 1.259 . S
Co117 O118 2.061 . S
Co117 O123 2.052 . S
Co117 O125 2.135 . S
O118 Co117 2.061 . S
O118 C121 1.235 . S
C119 O122 1.238 . S
C119 O123 1.241 . S
C120 O113 1.247 . S
C120 O114 1.261 . S
C121 O116 1.259 . S
C121 O118 1.235 . S
O122 Co112 2.021 . S
O122 C119 1.238 . S
O123 Co117 2.052 . S
O123 C119 1.241 . S
O124 Co112 2.137 . S
O124 C115 1.247 . S
O125 Co112 2.244 . S
O125 C115 1.272 . S
O125 Co117 2.135 . S
Co126 O127 2.216 . S
Co126 O128 2.091 . S
Co126 O130 2.004 . S
Co126 O136 2.021 . S
Co126 O138 2.137 . S
Co126 O139 2.244 . S
O127 Co126 2.216 . S
O127 C134 1.247 . S
O128 Co126 2.091 . S
O128 C134 1.261 . S
C129 O138 1.247 . S
C129 O139 1.272 . S
O130 Co126 2.004 . S
O130 C135 1.259 . S
Co131 O132 2.061 . S
Co131 O137 2.052 . S
Co131 O139 2.135 . S
O132 Co131 2.061 . S
O132 C135 1.235 . S
C133 O136 1.238 . S
C133 O137 1.241 . S
C134 O127 1.247 . S
C134 O128 1.261 . S
C135 O130 1.259 . S
C135 O132 1.235 . S
O136 Co126 2.021 . S
O136 C133 1.238 . S
O137 Co131 2.052 . S
O137 C133 1.241 . S
O138 Co126 2.137 . S
O138 C129 1.247 . S
O139 Co126 2.244 . S
O139 C129 1.272 . S
O139 Co131 2.135 . S
Co140 O141 2.216 . S
Co140 O142 2.091 . S
Co140 O144 2.004 . S
Co140 O150 2.021 . S
Co140 O152 2.137 . S
Co140 O153 2.244 . S
O141 Co140 2.216 . S
O141 C148 1.247 . S
O142 Co140 2.091 . S
O142 C148 1.261 . S
C143 O152 1.247 . S
C143 O153 1.272 . S
O144 Co140 2.004 . S
O144 C149 1.259 . S
Co145 O146 2.061 . S
Co145 O151 2.052 . S
Co145 O153 2.135 . S
O146 Co145 2.061 . S
O146 C149 1.235 . S
C147 O150 1.238 . S
C147 O151 1.241 . S
C148 O141 1.247 . S
C148 O142 1.261 . S
C149 O144 1.259 . S
C149 O146 1.235 . S
O150 Co140 2.021 . S
O150 C147 1.238 . S
O151 Co145 2.052 . S
O151 C147 1.241 . S
O152 Co140 2.137 . S
O152 C143 1.247 . S
O153 Co140 2.244 . S
O153 C143 1.272 . S
O153 Co145 2.135 . S
Co154 O155 2.216 . S
Co154 O156 2.091 . S
Co154 O158 2.004 . S
Co154 O164 2.021 . S
Co154 O166 2.137 . S
Co154 O167 2.244 . S
O155 Co154 2.216 . S
O155 C162 1.247 . S
O156 Co154 2.091 . S
O156 C162 1.261 . S
C157 O166 1.247 . S
C157 O167 1.272 . S
O158 Co154 2.004 . S
O158 C163 1.259 . S
Co159 O160 2.061 . S
Co159 O165 2.052 . S
Co159 O167 2.135 . S
O160 Co159 2.061 . S
O160 C163 1.235 . S
C161 O164 1.238 . S
C161 O165 1.241 . S
C162 O155 1.247 . S
C162 O156 1.261 . S
C163 O158 1.259 . S
C163 O160 1.235 . S
O164 Co154 2.021 . S
O164 C161 1.238 . S
O165 Co159 2.052 . S
O165 C161 1.241 . S
O166 Co154 2.137 . S
O166 C157 1.247 . S
O167 Co154 2.244 . S
O167 C157 1.272 . S
O167 Co159 2.135 . S
Co168 O169 2.216 . S
Co168 O170 2.091 . S
Co168 O172 2.004 . S
Co168 O178 2.021 . S
Co168 O180 2.137 . S
Co168 O181 2.244 . S
O169 Co168 2.216 . S
O169 C176 1.247 . S
O170 Co168 2.091 . S
O170 C176 1.261 . S
C171 O180 1.247 . S
C171 O181 1.272 . S
O172 Co168 2.004 . S
O172 C177 1.259 . S
Co173 O174 2.061 . S
Co173 O179 2.052 . S
Co173 O181 2.135 . S
O174 Co173 2.061 . S
O174 C177 1.235 . S
C175 O178 1.238 . S
C175 O179 1.241 . S
C176 O169 1.247 . S
C176 O170 1.261 . S
C177 O172 1.259 . S
C177 O174 1.235 . S
O178 Co168 2.021 . S
O178 C175 1.238 . S
O179 Co173 2.052 . S
O179 C175 1.241 . S
O180 Co168 2.137 . S
O180 C171 1.247 . S
O181 Co168 2.244 . S
O181 C171 1.272 . S
O181 Co173 2.135 . S
Co182 O183 2.216 . S
Co182 O184 2.091 . S
Co182 O186 2.004 . S
Co182 O192 2.021 . S
Co182 O194 2.137 . S
Co182 O195 2.244 . S
O183 Co182 2.216 . S
O183 C190 1.247 . S
O184 Co182 2.091 . S
O184 C190 1.261 . S
C185 O194 1.247 . S
C185 O195 1.272 . S
O186 Co182 2.004 . S
O186 C191 1.259 . S
Co187 O188 2.061 . S
Co187 O193 2.052 . S
Co187 O195 2.135 . S
O188 Co187 2.061 . S
O188 C191 1.235 . S
C189 O192 1.238 . S
C189 O193 1.241 . S
C190 O183 1.247 . S
C190 O184 1.261 . S
C191 O186 1.259 . S
C191 O188 1.235 . S
O192 Co182 2.021 . S
O192 C189 1.238 . S
O193 Co187 2.052 . S
O193 C189 1.241 . S
O194 Co182 2.137 . S
O194 C185 1.247 . S
O195 Co182 2.244 . S
O195 C185 1.272 . S
O195 Co187 2.135 . S
Co196 O197 2.216 . S
Co196 O198 2.091 . S
Co196 O200 2.004 . S
Co196 O206 2.021 . S
Co196 O208 2.137 . S
Co196 O209 2.244 . S
O197 Co196 2.216 . S
O197 C204 1.247 . S
O198 Co196 2.091 . S
O198 C204 1.261 . S
C199 O208 1.247 . S
C199 O209 1.272 . S
O200 Co196 2.004 . S
O200 C205 1.259 . S
Co201 O202 2.061 . S
Co201 O207 2.052 . S
Co201 O209 2.135 . S
O202 Co201 2.061 . S
O202 C205 1.235 . S
C203 O206 1.238 . S
C203 O207 1.241 . S
C204 O197 1.247 . S
C204 O198 1.261 . S
C205 O200 1.259 . S
C205 O202 1.235 . S
O206 Co196 2.021 . S
O206 C203 1.238 . S
O207 Co201 2.052 . S
O207 C203 1.241 . S
O208 Co196 2.137 . S
O208 C199 1.247 . S
O209 Co196 2.244 . S
O209 C199 1.272 . S
O209 Co201 2.135 . S
Co210 O211 2.216 . S
Co210 O212 2.091 . S
Co210 O214 2.004 . S
Co210 O220 2.021 . S
Co210 O222 2.137 . S
Co210 O223 2.244 . S
O211 Co210 2.216 . S
O211 C218 1.247 . S
O212 Co210 2.091 . S
O212 C218 1.261 . S
C213 O222 1.247 . S
C213 O223 1.272 . S
O214 Co210 2.004 . S
O214 C219 1.259 . S
Co215 O216 2.061 . S
Co215 O221 2.052 . S
Co215 O223 2.135 . S
O216 Co215 2.061 . S
O216 C219 1.235 . S
C217 O220 1.238 . S
C217 O221 1.241 . S
C218 O211 1.247 . S
C218 O212 1.261 . S
C219 O214 1.259 . S
C219 O216 1.235 . S
O220 Co210 2.021 . S
O220 C217 1.238 . S
O221 Co215 2.052 . S
O221 C217 1.241 . S
O222 Co210 2.137 . S
O222 C213 1.247 . S
O223 Co210 2.244 . S
O223 C213 1.272 . S
O223 Co215 2.135 . S
C224 C225 1.363 . S
C224 C230 1.379 1_565 S
C224 N232 1.356 . S
C225 C224 1.363 . S
C225 C231 1.363 . S
C226 C227 1.363 . S
C226 C231 1.379 1_545 S
C226 N233 1.356 . S
C227 C226 1.363 . S
C227 C230 1.363 . S
N228 C230 1.356 . S
N228 H240 0.984 . S
N228 H241 0.985 . S
N229 C231 1.356 . S
N229 H234 0.984 . S
N229 H235 0.985 . S
C230 C224 1.379 1_545 S
C230 C227 1.363 . S
C230 N228 1.356 . S
C231 C225 1.363 . S
C231 C226 1.379 1_565 S
C231 N229 1.356 . S
N232 C224 1.356 . S
N232 H238 0.984 . S
N232 H239 0.984 . S
N233 C226 1.356 . S
N233 H236 0.984 . S
N233 H237 0.985 . S
H234 N229 0.984 . S
H235 N229 0.985 . S
H236 N233 0.984 . S
H237 N233 0.985 . S
H238 N232 0.984 . S
H239 N232 0.984 . S
H240 N228 0.984 . S
H241 N228 0.985 . S
C242 C243 1.363 . S
C242 C248 1.379 1_455 S
C242 N250 1.356 . S
C243 C242 1.363 . S
C243 C249 1.363 . S
C244 C245 1.363 . S
C244 C249 1.379 1_655 S
C244 N251 1.356 . S
C245 C244 1.363 . S
C245 C248 1.363 . S
N246 C248 1.356 . S
N246 H258 0.984 . S
N246 H259 0.985 . S
N247 C249 1.356 . S
N247 H252 0.984 . S
N247 H253 0.985 . S
C248 C242 1.379 1_655 S
C248 C245 1.363 . S
C248 N246 1.356 . S
C249 C243 1.363 . S
C249 C244 1.379 1_455 S
C249 N247 1.356 . S
N250 C242 1.356 . S
N250 H256 0.984 . S
N250 H257 0.984 . S
N251 C244 1.356 . S
N251 H254 0.984 . S
N251 H255 0.985 . S
H252 N247 0.984 . S
H253 N247 0.985 . S
H254 N251 0.984 . S
H255 N251 0.985 . S
H256 N250 0.984 . S
H257 N250 0.984 . S
H258 N246 0.984 . S
H259 N246 0.985 . S
C260 C261 1.363 . S
C260 C266 1.379 1_565 S
C260 N268 1.356 . S
C261 C260 1.363 . S
C261 C267 1.363 . S
C262 C263 1.363 . S
C262 C267 1.379 1_545 S
C262 N269 1.356 . S
C263 C262 1.363 . S
C263 C266 1.363 . S
N264 C266 1.356 . S
N264 H276 0.984 . S
N264 H277 0.985 . S
N265 C267 1.356 . S
N265 H270 0.984 . S
N265 H271 0.985 . S
C266 C260 1.379 1_545 S
C266 C263 1.363 . S
C266 N264 1.356 . S
C267 C261 1.363 . S
C267 C262 1.379 1_565 S
C267 N265 1.356 . S
N268 C260 1.356 . S
N268 H274 0.984 . S
N268 H275 0.984 . S
N269 C262 1.356 . S
N269 H272 0.984 . S
N269 H273 0.985 . S
H270 N265 0.984 . S
H271 N265 0.985 . S
H272 N269 0.984 . S
H273 N269 0.985 . S
H274 N268 0.984 . S
H275 N268 0.984 . S
H276 N264 0.984 . S
H277 N264 0.985 . S
C278 C279 1.363 . S
C278 C284 1.379 1_455 S
C278 N286 1.356 . S
C279 C278 1.363 . S
C279 C285 1.363 . S
C280 C281 1.363 . S
C280 C285 1.379 1_655 S
C280 N287 1.356 . S
C281 C280 1.363 . S
C281 C284 1.363 . S
N282 C284 1.356 . S
N282 H294 0.984 . S
N282 H295 0.985 . S
N283 C285 1.356 . S
N283 H288 0.984 . S
N283 H289 0.985 . S
C284 C278 1.379 1_655 S
C284 C281 1.363 . S
C284 N282 1.356 . S
C285 C279 1.363 . S
C285 C280 1.379 1_455 S
C285 N283 1.356 . S
N286 C278 1.356 . S
N286 H292 0.984 . S
N286 H293 0.984 . S
N287 C280 1.356 . S
N287 H290 0.984 . S
N287 H291 0.985 . S
H288 N283 0.984 . S
H289 N283 0.985 . S
H290 N287 0.984 . S
H291 N287 0.985 . S
H292 N286 0.984 . S
H293 N286 0.984 . S
H294 N282 0.984 . S
H295 N282 0.985 . S
C296 C297 1.363 1_554 S
C296 C302 1.379 . S
C296 N304 1.356 . S
C297 C296 1.363 1_556 S
C297 C303 1.363 . S
C298 C299 1.363 . S
C298 C303 1.379 . S
C298 N305 1.356 . S
C299 C298 1.363 . S
C299 C302 1.363 1_556 S
N300 C302 1.356 . S
N300 H312 0.984 . S
N300 H313 0.985 . S
N301 C303 1.356 . S
N301 H306 0.984 . S
N301 H307 0.985 . S
C302 C296 1.379 . S
C302 C299 1.363 1_554 S
C302 N300 1.356 . S
C303 C297 1.363 . S
C303 C298 1.379 . S
C303 N301 1.356 . S
N304 C296 1.356 . S
N304 H310 0.984 . S
N304 H311 0.984 . S
N305 C298 1.356 . S
N305 H308 0.984 . S
N305 H309 0.985 . S
H306 N301 0.984 . S
H307 N301 0.985 . S
H308 N305 0.984 . S
H309 N305 0.985 . S
H310 N304 0.984 . S
H311 N304 0.984 . S
H312 N300 0.984 . S
H313 N300 0.985 . S
C314 C315 1.363 1_556 S
C314 C320 1.379 1_556 S
C314 N322 1.356 . S
C315 C314 1.363 1_554 S
C315 C321 1.363 . S
C316 C317 1.363 . S
C316 C321 1.379 . S
C316 N323 1.356 . S
C317 C316 1.363 . S
C317 C320 1.363 . S
N318 C320 1.356 1_556 S
N318 H330 0.984 . S
N318 H331 0.985 . S
N319 C321 1.356 . S
N319 H324 0.984 . S
N319 H325 0.985 . S
C320 C314 1.379 1_554 S
C320 C317 1.363 . S
C320 N318 1.356 1_554 S
C321 C315 1.363 . S
C321 C316 1.379 . S
C321 N319 1.356 . S
N322 C314 1.356 . S
N322 H328 0.984 . S
N322 H329 0.984 . S
N323 C316 1.356 . S
N323 H326 0.984 . S
N323 H327 0.985 . S
H324 N319 0.984 . S
H325 N319 0.985 . S
H326 N323 0.984 . S
H327 N323 0.985 . S
H328 N322 0.984 . S
H329 N322 0.984 . S
H330 N318 0.984 . S
H331 N318 0.985 . S
C332 C333 1.363 . S
C332 C338 1.379 . S
C332 N340 1.356 . S
C333 C332 1.363 . S
C333 C339 1.363 1_556 S
C334 C335 1.363 1_554 S
C334 C339 1.379 . S
C334 N341 1.356 . S
C335 C334 1.363 1_556 S
C335 C338 1.363 . S
N336 C338 1.356 . S
N336 H348 0.984 . S
N336 H349 0.985 . S
N337 C339 1.356 . S
N337 H342 0.984 . S
N337 H343 0.985 . S
C338 C332 1.379 . S
C338 C335 1.363 . S
C338 N336 1.356 . S
C339 C333 1.363 1_554 S
C339 C334 1.379 . S
C339 N337 1.356 . S
N340 C332 1.356 . S
N340 H346 0.984 . S
N340 H347 0.984 . S
N341 C334 1.356 . S
N341 H344 0.984 . S
N341 H345 0.985 . S
H342 N337 0.984 . S
H343 N337 0.985 . S
H344 N341 0.984 . S
H345 N341 0.985 . S
H346 N340 0.984 . S
H347 N340 0.984 . S
H348 N336 0.984 . S
H349 N336 0.985 . S
C350 C351 1.363 . S
C350 C356 1.379 . S
C350 N358 1.356 . S
C351 C350 1.363 . S
C351 C357 1.363 1_554 S
C352 C353 1.363 1_556 S
C352 C357 1.379 . S
C352 N359 1.356 . S
C353 C352 1.363 1_554 S
C353 C356 1.363 . S
N354 C356 1.356 . S
N354 H366 0.984 . S
N354 H367 0.985 . S
N355 C357 1.356 . S
N355 H360 0.984 . S
N355 H361 0.985 . S
C356 C350 1.379 . S
C356 C353 1.363 . S
C356 N354 1.356 . S
C357 C351 1.363 1_556 S
C357 C352 1.379 . S
C357 N355 1.356 . S
N358 C350 1.356 . S
N358 H364 0.984 . S
N358 H365 0.984 . S
N359 C352 1.356 . S
N359 H362 0.984 . S
N359 H363 0.985 . S
H360 N355 0.984 . S
H361 N355 0.985 . S
H362 N359 0.984 . S
H363 N359 0.985 . S
H364 N358 0.984 . S
H365 N358 0.984 . S
H366 N354 0.984 . S
H367 N354 0.985 . S
C368 C369 1.363 . S
C368 C374 1.379 . S
C368 N376 1.356 . S
C369 C368 1.363 . S
C369 C375 1.363 . S
C370 C371 1.363 . S
C370 C375 1.379 . S
C370 N377 1.356 . S
C371 C370 1.363 . S
C371 C374 1.363 . S
N372 C374 1.356 . S
N372 H384 0.984 . S
N372 H385 0.985 . S
N373 C375 1.356 . S
N373 H378 0.984 . S
N373 H379 0.985 . S
C374 C368 1.379 . S
C374 C371 1.363 . S
C374 N372 1.356 . S
C375 C369 1.363 . S
C375 C370 1.379 . S
C375 N373 1.356 . S
N376 C368 1.356 . S
N376 H382 0.984 . S
N376 H383 0.984 . S
N377 C370 1.356 . S
N377 H380 0.984 . S
N377 H381 0.985 . S
H378 N373 0.984 . S
H379 N373 0.985 . S
H380 N377 0.984 . S
H381 N377 0.985 . S
H382 N376 0.984 . S
H383 N376 0.984 . S
H384 N372 0.984 . S
H385 N372 0.985 . S
C386 C387 1.363 . S
C386 C392 1.379 . S
C386 N394 1.356 . S
C387 C386 1.363 . S
C387 C393 1.363 . S
C388 C389 1.363 . S
C388 C393 1.379 . S
C388 N395 1.356 . S
C389 C388 1.363 . S
C389 C392 1.363 . S
N390 C392 1.356 . S
N390 H402 0.984 . S
N390 H403 0.985 . S
N391 C393 1.356 . S
N391 H396 0.984 . S
N391 H397 0.985 . S
C392 C386 1.379 . S
C392 C389 1.363 . S
C392 N390 1.356 . S
C393 C387 1.363 . S
C393 C388 1.379 . S
C393 N391 1.356 . S
N394 C386 1.356 . S
N394 H400 0.984 . S
N394 H401 0.984 . S
N395 C388 1.356 . S
N395 H398 0.984 . S
N395 H399 0.985 . S
H396 N391 0.984 . S
H397 N391 0.985 . S
H398 N395 0.984 . S
H399 N395 0.985 . S
H400 N394 0.984 . S
H401 N394 0.984 . S
H402 N390 0.984 . S
H403 N390 0.985 . S
C404 C405 1.363 . S
C404 C410 1.379 . S
C404 N412 1.356 . S
C405 C404 1.363 . S
C405 C411 1.363 . S
C406 C407 1.363 . S
C406 C411 1.379 . S
C406 N413 1.356 . S
C407 C406 1.363 . S
C407 C410 1.363 . S
N408 C410 1.356 . S
N408 H420 0.984 . S
N408 H421 0.985 . S
N409 C411 1.356 . S
N409 H414 0.984 . S
N409 H415 0.985 . S
C410 C404 1.379 . S
C410 C407 1.363 . S
C410 N408 1.356 . S
C411 C405 1.363 . S
C411 C406 1.379 . S
C411 N409 1.356 . S
N412 C404 1.356 . S
N412 H418 0.984 . S
N412 H419 0.984 . S
N413 C406 1.356 . S
N413 H416 0.984 . S
N413 H417 0.985 . S
H414 N409 0.984 . S
H415 N409 0.985 . S
H416 N413 0.984 . S
H417 N413 0.985 . S
H418 N412 0.984 . S
H419 N412 0.984 . S
H420 N408 0.984 . S
H421 N408 0.985 . S
C422 C423 1.363 . S
C422 C428 1.379 . S
C422 N430 1.356 . S
C423 C422 1.363 . S
C423 C429 1.363 . S
C424 C425 1.363 . S
C424 C429 1.379 . S
C424 N431 1.356 . S
C425 C424 1.363 . S
C425 C428 1.363 . S
N426 C428 1.356 . S
N426 H438 0.984 . S
N426 H439 0.985 . S
N427 C429 1.356 . S
N427 H432 0.984 . S
N427 H433 0.985 . S
C428 C422 1.379 . S
C428 C425 1.363 . S
C428 N426 1.356 . S
C429 C423 1.363 . S
C429 C424 1.379 . S
C429 N427 1.356 . S
N430 C422 1.356 . S
N430 H436 0.984 . S
N430 H437 0.984 . S
N431 C424 1.356 . S
N431 H434 0.984 . S
N431 H435 0.985 . S
H432 N427 0.984 . S
H433 N427 0.985 . S
H434 N431 0.984 . S
H435 N431 0.985 . S
H436 N430 0.984 . S
H437 N430 0.984 . S
H438 N426 0.984 . S
H439 N426 0.985 . S
C440 C441 1.363 . S
C440 C446 1.379 1_565 S
C440 N448 1.356 . S
C441 C440 1.363 . S
C441 C447 1.363 . S
C442 C443 1.363 . S
C442 C447 1.379 1_545 S
C442 N449 1.356 . S
C443 C442 1.363 . S
C443 C446 1.363 . S
N444 C446 1.356 . S
N444 H456 0.984 . S
N444 H457 0.985 . S
N445 C447 1.356 . S
N445 H450 0.984 . S
N445 H451 0.985 . S
C446 C440 1.379 1_545 S
C446 C443 1.363 . S
C446 N444 1.356 . S
C447 C441 1.363 . S
C447 C442 1.379 1_565 S
C447 N445 1.356 . S
N448 C440 1.356 . S
N448 H454 0.984 . S
N448 H455 0.984 . S
N449 C442 1.356 . S
N449 H452 0.984 . S
N449 H453 0.985 . S
H450 N445 0.984 . S
H451 N445 0.985 . S
H452 N449 0.984 . S
H453 N449 0.985 . S
H454 N448 0.984 . S
H455 N448 0.984 . S
H456 N444 0.984 . S
H457 N444 0.985 . S
C458 C459 1.363 . S
C458 C464 1.379 1_655 S
C458 N466 1.356 . S
C459 C458 1.363 . S
C459 C465 1.363 . S
C460 C461 1.363 . S
C460 C465 1.379 1_455 S
C460 N467 1.356 . S
C461 C460 1.363 . S
C461 C464 1.363 . S
N462 C464 1.356 . S
N462 H474 0.984 . S
N462 H475 0.985 . S
N463 C465 1.356 . S
N463 H468 0.984 . S
N463 H469 0.985 . S
C464 C458 1.379 1_455 S
C464 C461 1.363 . S
C464 N462 1.356 . S
C465 C459 1.363 . S
C465 C460 1.379 1_655 S
C465 N463 1.356 . S
N466 C458 1.356 . S
N466 H472 0.984 . S
N466 H473 0.984 . S
N467 C460 1.356 . S
N467 H470 0.984 . S
N467 H471 0.985 . S
H468 N463 0.984 . S
H469 N463 0.985 . S
H470 N467 0.984 . S
H471 N467 0.985 . S
H472 N466 0.984 . S
H473 N466 0.984 . S
H474 N462 0.984 . S
H475 N462 0.985 . S
C476 C477 1.363 . S
C476 C482 1.379 1_565 S
C476 N484 1.356 . S
C477 C476 1.363 . S
C477 C483 1.363 . S
C478 C479 1.363 . S
C478 C483 1.379 1_545 S
C478 N485 1.356 . S
C479 C478 1.363 . S
C479 C482 1.363 . S
N480 C482 1.356 . S
N480 H492 0.984 . S
N480 H493 0.985 . S
N481 C483 1.356 . S
N481 H486 0.984 . S
N481 H487 0.985 . S
C482 C476 1.379 1_545 S
C482 C479 1.363 . S
C482 N480 1.356 . S
C483 C477 1.363 . S
C483 C478 1.379 1_565 S
C483 N481 1.356 . S
N484 C476 1.356 . S
N484 H490 0.984 . S
N484 H491 0.984 . S
N485 C478 1.356 . S
N485 H488 0.984 . S
N485 H489 0.985 . S
H486 N481 0.984 . S
H487 N481 0.985 . S
H488 N485 0.984 . S
H489 N485 0.985 . S
H490 N484 0.984 . S
H491 N484 0.984 . S
H492 N480 0.984 . S
H493 N480 0.985 . S
C494 C495 1.363 . S
C494 C500 1.379 1_655 S
C494 N502 1.356 . S
C495 C494 1.363 . S
C495 C501 1.363 . S
C496 C497 1.363 . S
C496 C501 1.379 1_455 S
C496 N503 1.356 . S
C497 C496 1.363 . S
C497 C500 1.363 . S
N498 C500 1.356 . S
N498 H510 0.984 . S
N498 H511 0.985 . S
N499 C501 1.356 . S
N499 H504 0.984 . S
N499 H505 0.985 . S
C500 C494 1.379 1_455 S
C500 C497 1.363 . S
C500 N498 1.356 . S
C501 C495 1.363 . S
C501 C496 1.379 1_655 S
C501 N499 1.356 . S
N502 C494 1.356 . S
N502 H508 0.984 . S
N502 H509 0.984 . S
N503 C496 1.356 . S
N503 H506 0.984 . S
N503 H507 0.985 . S
H504 N499 0.984 . S
H505 N499 0.985 . S
H506 N503 0.984 . S
H507 N503 0.985 . S
H508 N502 0.984 . S
H509 N502 0.984 . S
H510 N498 0.984 . S
H511 N498 0.985 . S
C512 C513 1.363 . S
C512 C518 1.379 . S
C512 N520 1.356 1_554 S
C513 C512 1.363 . S
C513 C519 1.363 . S
C514 C515 1.363 . S
C514 C519 1.379 . S
C514 N521 1.356 . S
C515 C514 1.363 . S
C515 C518 1.363 . S
N516 C518 1.356 . S
N516 H528 0.984 1_554 S
N516 H529 0.985 . S
N517 C519 1.356 . S
N517 H522 0.984 . S
N517 H523 0.985 . S
C518 C512 1.379 . S
C518 C515 1.363 . S
C518 N516 1.356 . S
C519 C513 1.363 . S
C519 C514 1.379 . S
C519 N517 1.356 . S
N520 C512 1.356 1_556 S
N520 H526 0.984 . S
N520 H527 0.984 . S
N521 C514 1.356 . S
N521 H524 0.984 . S
N521 H525 0.985 . S
H522 N517 0.984 . S
H523 N517 0.985 . S
H524 N521 0.984 . S
H525 N521 0.985 . S
H526 N520 0.984 . S
H527 N520 0.984 . S
H528 N516 0.984 1_556 S
H529 N516 0.985 . S
C530 C531 1.363 . S
C530 C536 1.379 . S
C530 N538 1.356 . S
C531 C530 1.363 . S
C531 C537 1.363 . S
C532 C533 1.363 . S
C532 C537 1.379 . S
C532 N539 1.356 . S
C533 C532 1.363 . S
C533 C536 1.363 . S
N534 C536 1.356 1_554 S
N534 H546 0.984 . S
N534 H547 0.985 . S
N535 C537 1.356 . S
N535 H540 0.984 . S
N535 H541 0.985 . S
C536 C530 1.379 . S
C536 C533 1.363 . S
C536 N534 1.356 1_556 S
C537 C531 1.363 . S
C537 C532 1.379 . S
C537 N535 1.356 . S
N538 C530 1.356 . S
N538 H544 0.984 . S
N538 H545 0.984 . S
N539 C532 1.356 . S
N539 H542 0.984 . S
N539 H543 0.985 . S
H540 N535 0.984 . S
H541 N535 0.985 . S
H542 N539 0.984 . S
H543 N539 0.985 . S
H544 N538 0.984 . S
H545 N538 0.984 . S
H546 N534 0.984 . S
H547 N534 0.985 . S
C548 C549 1.363 . S
C548 C554 1.379 . S
C548 N556 1.356 . S
C549 C548 1.363 . S
C549 C555 1.363 . S
C550 C551 1.363 . S
C550 C555 1.379 . S
C550 N557 1.356 . S
C551 C550 1.363 . S
C551 C554 1.363 . S
N552 C554 1.356 1_556 S
N552 H564 0.984 . S
N552 H565 0.985 . S
N553 C555 1.356 . S
N553 H558 0.984 . S
N553 H559 0.985 . S
C554 C548 1.379 . S
C554 C551 1.363 . S
C554 N552 1.356 1_554 S
C555 C549 1.363 . S
C555 C550 1.379 . S
C555 N553 1.356 . S
N556 C548 1.356 . S
N556 H562 0.984 . S
N556 H563 0.984 . S
N557 C550 1.356 . S
N557 H560 0.984 . S
N557 H561 0.985 . S
H558 N553 0.984 . S
H559 N553 0.985 . S
H560 N557 0.984 . S
H561 N557 0.985 . S
H562 N556 0.984 . S
H563 N556 0.984 . S
H564 N552 0.984 . S
H565 N552 0.985 . S
C566 C567 1.363 . S
C566 C572 1.379 . S
C566 N574 1.356 . S
C567 C566 1.363 . S
C567 C573 1.363 . S
C568 C569 1.363 . S
C568 C573 1.379 . S
C568 N575 1.356 . S
C569 C568 1.363 . S
C569 C572 1.363 . S
N570 C572 1.356 . S
N570 H582 0.984 . S
N570 H583 0.985 . S
N571 C573 1.356 1_554 S
N571 H576 0.984 . S
N571 H577 0.985 . S
C572 C566 1.379 . S
C572 C569 1.363 . S
C572 N570 1.356 . S
C573 C567 1.363 . S
C573 C568 1.379 . S
C573 N571 1.356 1_556 S
N574 C566 1.356 . S
N574 H580 0.984 . S
N574 H581 0.984 . S
N575 C568 1.356 . S
N575 H578 0.984 . S
N575 H579 0.985 . S
H576 N571 0.984 . S
H577 N571 0.985 . S
H578 N575 0.984 . S
H579 N575 0.985 . S
H580 N574 0.984 . S
H581 N574 0.984 . S
H582 N570 0.984 . S
H583 N570 0.985 . S
C584 C585 1.363 . S
C584 C590 1.379 . S
C584 N592 1.356 . S
C585 C584 1.363 . S
C585 C591 1.363 . S
C586 C587 1.363 . S
C586 C591 1.379 . S
C586 N593 1.356 . S
C587 C586 1.363 . S
C587 C590 1.363 . S
N588 C590 1.356 . S
N588 H600 0.984 . S
N588 H601 0.985 . S
N589 C591 1.356 . S
N589 H594 0.984 . S
N589 H595 0.985 . S
C590 C584 1.379 . S
C590 C587 1.363 . S
C590 N588 1.356 . S
C591 C585 1.363 . S
C591 C586 1.379 . S
C591 N589 1.356 . S
N592 C584 1.356 . S
N592 H598 0.984 . S
N592 H599 0.984 . S
N593 C586 1.356 . S
N593 H596 0.984 . S
N593 H597 0.985 . S
H594 N589 0.984 . S
H595 N589 0.985 . S
H596 N593 0.984 . S
H597 N593 0.985 . S
H598 N592 0.984 . S
H599 N592 0.984 . S
H600 N588 0.984 . S
H601 N588 0.985 . S
C602 C603 1.363 . S
C602 C608 1.379 . S
C602 N610 1.356 . S
C603 C602 1.363 . S
C603 C609 1.363 . S
C604 C605 1.363 . S
C604 C609 1.379 . S
C604 N611 1.356 . S
C605 C604 1.363 . S
C605 C608 1.363 . S
N606 C608 1.356 . S
N606 H618 0.984 . S
N606 H619 0.985 . S
N607 C609 1.356 . S
N607 H612 0.984 . S
N607 H613 0.985 . S
C608 C602 1.379 . S
C608 C605 1.363 . S
C608 N606 1.356 . S
C609 C603 1.363 . S
C609 C604 1.379 . S
C609 N607 1.356 . S
N610 C602 1.356 . S
N610 H616 0.984 . S
N610 H617 0.984 . S
N611 C604 1.356 . S
N611 H614 0.984 . S
N611 H615 0.985 . S
H612 N607 0.984 . S
H613 N607 0.985 . S
H614 N611 0.984 . S
H615 N611 0.985 . S
H616 N610 0.984 . S
H617 N610 0.984 . S
H618 N606 0.984 . S
H619 N606 0.985 . S
C620 C621 1.363 . S
C620 C626 1.379 . S
C620 N628 1.356 . S
C621 C620 1.363 . S
C621 C627 1.363 . S
C622 C623 1.363 . S
C622 C627 1.379 . S
C622 N629 1.356 . S
C623 C622 1.363 . S
C623 C626 1.363 . S
N624 C626 1.356 . S
N624 H636 0.984 . S
N624 H637 0.985 . S
N625 C627 1.356 . S
N625 H630 0.984 . S
N625 H631 0.985 . S
C626 C620 1.379 . S
C626 C623 1.363 . S
C626 N624 1.356 . S
C627 C621 1.363 . S
C627 C622 1.379 . S
C627 N625 1.356 . S
N628 C620 1.356 . S
N628 H634 0.984 . S
N628 H635 0.984 . S
N629 C622 1.356 . S
N629 H632 0.984 . S
N629 H633 0.985 . S
H630 N625 0.984 . S
H631 N625 0.985 . S
H632 N629 0.984 . S
H633 N629 0.985 . S
H634 N628 0.984 . S
H635 N628 0.984 . S
H636 N624 0.984 . S
H637 N624 0.985 . S
C638 C639 1.363 . S
C638 C644 1.379 . S
C638 N646 1.356 . S
C639 C638 1.363 . S
C639 C645 1.363 . S
C640 C641 1.363 . S
C640 C645 1.379 . S
C640 N647 1.356 . S
C641 C640 1.363 . S
C641 C644 1.363 . S
N642 C644 1.356 . S
N642 H654 0.984 . S
N642 H655 0.985 . S
N643 C645 1.356 . S
N643 H648 0.984 . S
N643 H649 0.985 . S
C644 C638 1.379 . S
C644 C641 1.363 . S
C644 N642 1.356 . S
C645 C639 1.363 . S
C645 C640 1.379 . S
C645 N643 1.356 . S
N646 C638 1.356 . S
N646 H652 0.984 . S
N646 H653 0.984 . S
N647 C640 1.356 . S
N647 H650 0.984 . S
N647 H651 0.985 . S
H648 N643 0.984 . S
H649 N643 0.985 . S
H650 N647 0.984 . S
H651 N647 0.985 . S
H652 N646 0.984 . S
H653 N646 0.984 . S
H654 N642 0.984 . S
H655 N642 0.985 . S
C656 C657 1.363 . S
C656 C662 1.379 . S
C656 N664 1.356 . S
C657 C656 1.363 . S
C657 C663 1.363 . S
C658 C659 1.363 . S
C658 C663 1.379 . S
C658 N665 1.356 1_556 S
C659 C658 1.363 . S
C659 C662 1.363 . S
N660 C662 1.356 . S
N660 H672 0.984 . S
N660 H673 0.985 . S
N661 C663 1.356 . S
N661 H666 0.984 . S
N661 H667 0.985 . S
C662 C656 1.379 . S
C662 C659 1.363 . S
C662 N660 1.356 . S
C663 C657 1.363 . S
C663 C658 1.379 . S
C663 N661 1.356 . S
N664 C656 1.356 . S
N664 H670 0.984 . S
N664 H671 0.984 . S
N665 C658 1.356 1_554 S
N665 H668 0.984 . S
N665 H669 0.985 . S
H666 N661 0.984 . S
H667 N661 0.985 . S
H668 N665 0.984 . S
H669 N665 0.985 . S
H670 N664 0.984 . S
H671 N664 0.984 . S
H672 N660 0.984 . S
H673 N660 0.985 . S
C674 C675 1.363 . S
C674 C680 1.379 . S
C674 N682 1.356 . S
C675 C674 1.363 . S
C675 C681 1.363 . S
C676 C677 1.363 . S
C676 C681 1.379 . S
C676 N683 1.356 . S
C677 C676 1.363 . S
C677 C680 1.363 . S
N678 C680 1.356 1_556 S
N678 H690 0.984 . S
N678 H691 0.985 . S
N679 C681 1.356 . S
N679 H684 0.984 . S
N679 H685 0.985 . S
C680 C674 1.379 . S
C680 C677 1.363 . S
C680 N678 1.356 1_554 S
C681 C675 1.363 . S
C681 C676 1.379 . S
C681 N679 1.356 . S
N682 C674 1.356 . S
N682 H688 0.984 1_554 S
N682 H689 0.984 . S
N683 C676 1.356 . S
N683 H686 0.984 . S
N683 H687 0.985 . S
H684 N679 0.984 . S
H685 N679 0.985 . S
H686 N683 0.984 . S
H687 N683 0.985 . S
H688 N682 0.984 1_556 S
H689 N682 0.984 . S
H690 N678 0.984 . S
H691 N678 0.985 . S
C692 C693 1.363 . S
C692 C698 1.379 . S
C692 N700 1.356 . S
C693 C692 1.363 . S
C693 C699 1.363 . S
C694 C695 1.363 . S
C694 C699 1.379 . S
C694 N701 1.356 . S
C695 C694 1.363 . S
C695 C698 1.363 . S
N696 C698 1.356 . S
N696 H708 0.984 . S
N696 H709 0.985 . S
N697 C699 1.356 1_554 S
N697 H702 0.984 . S
N697 H703 0.985 . S
C698 C692 1.379 . S
C698 C695 1.363 . S
C698 N696 1.356 . S
C699 C693 1.363 . S
C699 C694 1.379 . S
C699 N697 1.356 1_556 S
N700 C692 1.356 . S
N700 H706 0.984 . S
N700 H707 0.984 . S
N701 C694 1.356 . S
N701 H704 0.984 . S
N701 H705 0.985 . S
H702 N697 0.984 . S
H703 N697 0.985 . S
H704 N701 0.984 . S
H705 N701 0.985 . S
H706 N700 0.984 . S
H707 N700 0.984 . S
H708 N696 0.984 . S
H709 N696 0.985 . S
C710 C711 1.363 . S
C710 C716 1.379 . S
C710 N718 1.356 . S
C711 C710 1.363 . S
C711 C717 1.363 . S
C712 C713 1.363 . S
C712 C717 1.379 . S
C712 N719 1.356 1_554 S
C713 C712 1.363 . S
C713 C716 1.363 . S
N714 C716 1.356 . S
N714 H726 0.984 . S
N714 H727 0.985 . S
N715 C717 1.356 . S
N715 H720 0.984 . S
N715 H721 0.985 1_554 S
C716 C710 1.379 . S
C716 C713 1.363 . S
C716 N714 1.356 . S
C717 C711 1.363 . S
C717 C712 1.379 . S
C717 N715 1.356 . S
N718 C710 1.356 . S
N718 H724 0.984 . S
N718 H725 0.984 . S
N719 C712 1.356 1_556 S
N719 H722 0.984 . S
N719 H723 0.985 . S
H720 N715 0.984 . S
H721 N715 0.985 1_556 S
H722 N719 0.984 . S
H723 N719 0.985 . S
H724 N718 0.984 . S
H725 N718 0.984 . S
H726 N714 0.984 . S
H727 N714 0.985 . S
C728 C729 1.363 . S
C728 C734 1.379 . S
C728 N736 1.356 . S
C729 C728 1.363 . S
C729 C735 1.363 . S
C730 C731 1.363 . S
C730 C735 1.379 . S
C730 N737 1.356 . S
C731 C730 1.363 . S
C731 C734 1.363 . S
N732 C734 1.356 . S
N732 H744 0.984 . S
N732 H745 0.985 . S
N733 C735 1.356 . S
N733 H738 0.984 . S
N733 H739 0.985 . S
C734 C728 1.379 . S
C734 C731 1.363 . S
C734 N732 1.356 . S
C735 C729 1.363 . S
C735 C730 1.379 . S
C735 N733 1.356 . S
N736 C728 1.356 . S
N736 H742 0.984 . S
N736 H743 0.984 . S
N737 C730 1.356 . S
N737 H740 0.984 . S
N737 H741 0.985 . S
H738 N733 0.984 . S
H739 N733 0.985 . S
H740 N737 0.984 . S
H741 N737 0.985 . S
H742 N736 0.984 . S
H743 N736 0.984 . S
H744 N732 0.984 . S
H745 N732 0.985 . S
C746 C747 1.363 . S
C746 C752 1.379 . S
C746 N754 1.356 . S
C747 C746 1.363 . S
C747 C753 1.363 . S
C748 C749 1.363 . S
C748 C753 1.379 . S
C748 N755 1.356 . S
C749 C748 1.363 . S
C749 C752 1.363 . S
N750 C752 1.356 . S
N750 H762 0.984 . S
N750 H763 0.985 . S
N751 C753 1.356 . S
N751 H756 0.984 . S
N751 H757 0.985 . S
C752 C746 1.379 . S
C752 C749 1.363 . S
C752 N750 1.356 . S
C753 C747 1.363 . S
C753 C748 1.379 . S
C753 N751 1.356 . S
N754 C746 1.356 . S
N754 H760 0.984 . S
N754 H761 0.984 . S
N755 C748 1.356 . S
N755 H758 0.984 . S
N755 H759 0.985 . S
H756 N751 0.984 . S
H757 N751 0.985 . S
H758 N755 0.984 . S
H759 N755 0.985 . S
H760 N754 0.984 . S
H761 N754 0.984 . S
H762 N750 0.984 . S
H763 N750 0.985 . S
C764 C765 1.363 . S
C764 C770 1.379 . S
C764 N772 1.356 . S
C765 C764 1.363 . S
C765 C771 1.363 . S
C766 C767 1.363 . S
C766 C771 1.379 . S
C766 N773 1.356 . S
C767 C766 1.363 . S
C767 C770 1.363 . S
N768 C770 1.356 . S
N768 H780 0.984 . S
N768 H781 0.985 . S
N769 C771 1.356 . S
N769 H774 0.984 . S
N769 H775 0.985 . S
C770 C764 1.379 . S
C770 C767 1.363 . S
C770 N768 1.356 . S
C771 C765 1.363 . S
C771 C766 1.379 . S
C771 N769 1.356 . S
N772 C764 1.356 . S
N772 H778 0.984 . S
N772 H779 0.984 . S
N773 C766 1.356 . S
N773 H776 0.984 . S
N773 H777 0.985 . S
H774 N769 0.984 . S
H775 N769 0.985 . S
H776 N773 0.984 . S
H777 N773 0.985 . S
H778 N772 0.984 . S
H779 N772 0.984 . S
H780 N768 0.984 . S
H781 N768 0.985 . S
C782 C783 1.363 . S
C782 C788 1.379 . S
C782 N790 1.356 . S
C783 C782 1.363 . S
C783 C789 1.363 . S
C784 C785 1.363 . S
C784 C789 1.379 . S
C784 N791 1.356 . S
C785 C784 1.363 . S
C785 C788 1.363 . S
N786 C788 1.356 . S
N786 H798 0.984 . S
N786 H799 0.985 . S
N787 C789 1.356 . S
N787 H792 0.984 . S
N787 H793 0.985 . S
C788 C782 1.379 . S
C788 C785 1.363 . S
C788 N786 1.356 . S
C789 C783 1.363 . S
C789 C784 1.379 . S
C789 N787 1.356 . S
N790 C782 1.356 . S
N790 H796 0.984 . S
N790 H797 0.984 . S
N791 C784 1.356 . S
N791 H794 0.984 . S
N791 H795 0.985 . S
H792 N787 0.984 . S
H793 N787 0.985 . S
H794 N791 0.984 . S
H795 N791 0.985 . S
H796 N790 0.984 . S
H797 N790 0.984 . S
H798 N786 0.984 . S
H799 N786 0.985 . S
C225 C163 1.389 . S
C227 C3 1.363 . S
C243 C17 1.363 . S
C245 C121 1.389 . S
C261 C31 1.363 . S
C263 C135 1.389 . S
C279 C149 1.389 . S
C281 C45 1.363 . S
C297 C59 1.363 . S
C299 C79 1.389 . S
C315 C73 1.363 . S
C317 C93 1.389 . S
C333 C107 1.389 . S
C335 C87 1.363 . S
C351 C65 1.389 . S
C353 C101 1.363 . S
C369 C51 1.389 . S
C371 C115 1.363 . S
C387 C129 1.363 . S
C389 C9 1.389 . S
C405 C23 1.389 . S
C407 C143 1.363 . S
C423 C157 1.363 . S
C425 C37 1.389 . S
C441 C171 1.363 . S
C443 C191 1.389 . S
C459 C185 1.363 . S
C461 C205 1.389 . S
C477 C219 1.389 . S
C479 C199 1.363 . S
C495 C177 1.389 . S
C497 C213 1.363 . S
C513 C63 1.509 . S
C515 C7 1.509 . S
C531 C21 1.509 . S
C533 C77 1.509 . S
C549 C35 1.509 . S
C551 C91 1.509 . S
C567 C105 1.509 . S
C569 C49 1.509 . S
C585 C119 1.509 . S
C587 C175 1.509 . S
C603 C189 1.509 . S
C605 C133 1.509 . S
C621 C147 1.509 . S
C623 C203 1.509 . S
C639 C217 1.509 . S
C641 C161 1.509 . S
C657 C204 1.476 . S
C659 C8 1.476 . S
C675 C218 1.476 . S
C677 C22 1.476 . S
C693 C36 1.476 . S
C695 C176 1.476 . S
C711 C190 1.476 . S
C713 C50 1.476 . S
C729 C148 1.476 . S
C731 C64 1.476 . S
C747 C162 1.476 . S
C749 C78 1.476 . S
C765 C92 1.476 . S
C767 C120 1.476 . S
C783 C134 1.476 . S
C785 C106 1.476 . S
