# Generated by pormake.
# Topology snk, (6)-cn, num edge types: 1
# Building blocks:
#     Node 0, Type 0, BuildingBlock: BETFAJ_clean_sbu_0, # of connection points: 6
#     Node 1, Type 0, BuildingBlock: BETFAJ_clean_sbu_0, # of connection points: 6
#     Node 2, Type 0, BuildingBlock: BETFAJ_clean_sbu_0, # of connection points: 6
#     Node 3, Type 0, BuildingBlock: BETFAJ_clean_sbu_0, # of connection points: 6
#     Node 4, Type 0, BuildingBlock: BETFAJ_clean_sbu_0, # of connection points: 6
#     Node 5, Type 0, BuildingBlock: BETFAJ_clean_sbu_0, # of connection points: 6
#     Node 6, Type 0, BuildingBlock: BETFAJ_clean_sbu_0, # of connection points: 6
#     Node 7, Type 0, BuildingBlock: BETFAJ_clean_sbu_0, # of connection points: 6
#     Edge 8, Type (0, 0), BuildingBlock: TEMPAE_clean_linker_10, # of connection points: 2
#     Edge 9, Type (0, 0), BuildingBlock: TEMPAE_clean_linker_10, # of connection points: 2
#     Edge 10, Type (0, 0), BuildingBlock: TEMPAE_clean_linker_10, # of connection points: 2
#     Edge 11, Type (0, 0), BuildingBlock: TEMPAE_clean_linker_10, # of connection points: 2
#     Edge 12, Type (0, 0), BuildingBlock: TEMPAE_clean_linker_10, # of connection points: 2
#     Edge 13, Type (0, 0), BuildingBlock: TEMPAE_clean_linker_10, # of connection points: 2
#     Edge 14, Type (0, 0), BuildingBlock: TEMPAE_clean_linker_10, # of connection points: 2
#     Edge 15, Type (0, 0), BuildingBlock: TEMPAE_clean_linker_10, # of connection points: 2
#     Edge 16, Type (0, 0), BuildingBlock: TEMPAE_clean_linker_10, # of connection points: 2
#     Edge 17, Type (0, 0), BuildingBlock: TEMPAE_clean_linker_10, # of connection points: 2
#     Edge 18, Type (0, 0), BuildingBlock: TEMPAE_clean_linker_10, # of connection points: 2
#     Edge 19, Type (0, 0), BuildingBlock: TEMPAE_clean_linker_10, # of connection points: 2
#     Edge 20, Type (0, 0), BuildingBlock: TEMPAE_clean_linker_10, # of connection points: 2
#     Edge 21, Type (0, 0), BuildingBlock: TEMPAE_clean_linker_10, # of connection points: 2
#     Edge 22, Type (0, 0), BuildingBlock: TEMPAE_clean_linker_10, # of connection points: 2
#     Edge 23, Type (0, 0), BuildingBlock: TEMPAE_clean_linker_10, # of connection points: 2
#     Edge 24, Type (0, 0), BuildingBlock: TEMPAE_clean_linker_10, # of connection points: 2
#     Edge 25, Type (0, 0), BuildingBlock: TEMPAE_clean_linker_10, # of connection points: 2
#     Edge 26, Type (0, 0), BuildingBlock: TEMPAE_clean_linker_10, # of connection points: 2
#     Edge 27, Type (0, 0), BuildingBlock: TEMPAE_clean_linker_10, # of connection points: 2
#     Edge 28, Type (0, 0), BuildingBlock: TEMPAE_clean_linker_10, # of connection points: 2
#     Edge 29, Type (0, 0), BuildingBlock: TEMPAE_clean_linker_10, # of connection points: 2
#     Edge 30, Type (0, 0), BuildingBlock: TEMPAE_clean_linker_10, # of connection points: 2
#     Edge 31, Type (0, 0), BuildingBlock: TEMPAE_clean_linker_10, # of connection points: 2
# Relax obj value: 0.091
# Max RMSD: 0.154
# Mean RMSD: 0.126
data_MOF--net-snk--node1-BETFAJ_clean_sbu_0--edge1-TEMPAE_clean_linker_10
_symmetry_space_group_name_H-M    P1
_symmetry_Int_Tables_number       1
_symmetry_cell_setting            triclinic
loop_
_symmetry_equiv_pos_as_xyz
'x, y, z'
_cell_length_a     38.364956
_cell_length_b     38.380894
_cell_length_c     25.826075
_cell_angle_alpha  82.913649
_cell_angle_beta   97.088197
_cell_angle_gamma 89.039727
loop_
_atom_site_label
_atom_site_type_symbol
_atom_site_fract_x
_atom_site_fract_y
_atom_site_fract_z
_atom_type_partial_charge
Sm0 Sm 0.98925 0.99513 0.4559 0.0
Sm1 Sm 0.02242 0.01548 0.56554 0.0
C2 C 0.95777 0.99567 0.35863 0.0
C3 C 0.96658 0.99754 0.30422 0.0
C4 C 0.96157 0.02935 0.2705 0.0
C5 C 0.96901 0.03129 0.21864 0.0
C6 C 0.98135 1.00137 0.19922 0.0
C7 C 0.98623 0.96952 0.23293 0.0
C8 C 0.97889 0.9676 0.28483 0.0
C9 C 0.04886 0.95721 0.50073 0.0
C10 C 0.04999 0.05587 0.46132 0.0
C11 C 0.05351 0.01545 0.66297 0.0
C12 C 0.04457 0.01409 0.71727 0.0
C13 C 0.04724 0.98205 0.75059 0.0
C14 C 0.0398 0.98068 0.80239 0.0
C15 C 0.02986 0.01137 0.82215 0.0
C16 C 0.02731 0.04343 0.7889 0.0
C17 C 0.03464 0.0448 0.73705 0.0
C18 C 0.96275 0.05322 0.52024 0.0
C19 C 0.96191 0.95449 0.5601 0.0
O20 O 0.96235 0.02407 0.38169 0.0
O21 O 0.96677 0.96676 0.39043 0.0
O22 O 0.04293 0.98932 0.50196 0.0
O23 O 0.02414 0.94424 0.47051 0.0
O24 O 0.0226 0.04332 0.43383 0.0
O25 O 0.05875 0.04514 0.51205 0.0
O26 O 0.04884 0.98689 0.64033 0.0
O27 O 0.04477 0.04421 0.63071 0.0
O28 O 0.96883 0.02111 0.51963 0.0
O29 O 0.9875 0.06647 0.55007 0.0
O30 O 0.98919 0.96717 0.58766 0.0
O31 O 0.95315 0.96519 0.50938 0.0
H32 H 0.95178 0.05279 0.28417 0.0
H33 H 0.9653 0.0563 0.19384 0.0
H34 H 0.99515 0.94587 0.21893 0.0
H35 H 0.98262 0.94256 0.30954 0.0
H36 H 0.05539 0.95802 0.73678 0.0
H37 H 0.04248 0.95567 0.8273 0.0
H38 H 0.01943 0.06747 0.80289 0.0
H39 H 0.03264 0.06997 0.71261 0.0
Sm40 Sm 0.24158 0.73902 0.82071 0.0
Sm41 Sm 0.26423 0.77209 0.71258 0.0
C42 C 0.23421 0.70989 0.91713 0.0
C43 C 0.23772 0.71902 0.97144 0.0
C44 C 0.27061 0.72506 0.99882 0.0
C45 C 0.27327 0.73235 0.05087 0.0
C46 C 0.24309 0.73408 0.07653 0.0
C47 C 0.21018 0.72859 0.04862 0.0
C48 C 0.20759 0.7209 0.99687 0.0
C49 C 0.20257 0.79665 0.77009 0.0
C50 C 0.30112 0.80078 0.81875 0.0
C51 C 0.26374 0.80381 0.61535 0.0
C52 C 0.26196 0.7954 0.56069 0.0
C53 C 0.22947 0.79665 0.52859 0.0
C54 C 0.22767 0.78973 0.4765 0.0
C55 C 0.25837 0.78174 0.45509 0.0
C56 C 0.29089 0.78066 0.48713 0.0
C57 C 0.29268 0.78749 0.5393 0.0
C58 C 0.30543 0.71614 0.7608 0.0
C59 C 0.2067 0.70807 0.71607 0.0
O60 O 0.26292 0.70645 0.89543 0.0
O61 O 0.20832 0.72546 0.88432 0.0
O62 O 0.23525 0.79232 0.7732 0.0
O63 O 0.18894 0.77058 0.7966 0.0
O64 O 0.28774 0.77389 0.84619 0.0
O65 O 0.29205 0.80876 0.76739 0.0
O66 O 0.23536 0.79886 0.63837 0.0
O67 O 0.29267 0.79488 0.64716 0.0
O68 O 0.27268 0.71919 0.76114 0.0
O69 O 0.31694 0.74091 0.72906 0.0
O70 O 0.21939 0.73527 0.68845 0.0
O71 O 0.21539 0.70086 0.76747 0.0
H72 H 0.29433 0.72392 0.98029 0.0
H73 H 0.2991 0.73601 0.07126 0.0
H74 H 0.18629 0.73039 0.06665 0.0
H75 H 0.18191 0.71636 0.97667 0.0
H76 H 0.20534 0.80311 0.54365 0.0
H77 H 0.20217 0.79044 0.45307 0.0
H78 H 0.31508 0.77515 0.47162 0.0
H79 H 0.31819 0.78685 0.56268 0.0
Sm80 Sm 0.52297 0.98706 0.06818 0.0
Sm81 Sm 0.48953 0.01918 0.95769 0.0
C82 C 0.54948 0.97529 0.16914 0.0
C83 C 0.54077 0.98125 0.22205 0.0
C84 C 0.54233 0.01473 0.23906 0.0
C85 C 0.53564 0.01932 0.29005 0.0
C86 C 0.52721 0.9906 0.32529 0.0
C87 C 0.5255 0.95723 0.30802 0.0
C88 C 0.53232 0.95262 0.25722 0.0
C89 C 0.4735 0.94717 0.0189 0.0
C90 C 0.45477 0.04407 0.05444 0.0
C91 C 0.46309 0.03151 0.85678 0.0
C92 C 0.47184 0.02615 0.80374 0.0
C93 C 0.47562 0.99242 0.78865 0.0
C94 C 0.48231 0.98831 0.73747 0.0
C95 C 0.48538 0.01779 0.70012 0.0
C96 C 0.48204 0.05145 0.71573 0.0
C97 C 0.47524 0.05553 0.76672 0.0
C98 C 0.53847 0.05925 1.00771 0.0
C99 C 0.55773 0.96215 0.97135 0.0
O100 O 0.55712 1.00251 0.1372 0.0
O101 O 0.53092 0.95254 0.14478 0.0
O102 O 0.47101 0.97994 0.0192 0.0
O103 O 0.50211 0.93395 0.04714 0.0
O104 O 0.48363 0.03022 0.08377 0.0
O105 O 0.44753 0.03898 1.00453 0.0
O106 O 0.45565 0.00397 0.88828 0.0
O107 O 0.48152 0.05418 0.8815 0.0
O108 O 0.54128 0.02655 1.00686 0.0
O109 O 0.50985 0.07232 0.97935 0.0
O110 O 0.52891 0.97609 0.942 0.0
O111 O 0.56487 0.96706 0.02135 0.0
H112 H 0.54893 0.0374 0.21318 0.0
H113 H 0.53688 0.04545 0.30178 0.0
H114 H 0.51963 0.93442 0.33422 0.0
H115 H 0.53136 0.92643 0.24562 0.0
H116 H 0.47304 0.96917 0.81611 0.0
H117 H 0.48433 0.96198 0.72689 0.0
H118 H 0.48483 0.07478 0.68857 0.0
H119 H 0.47241 0.08183 0.77715 0.0
Sm120 Sm 0.24036 0.27054 0.20746 0.0
Sm121 Sm 0.27255 0.23705 0.31786 0.0
C122 C 0.2284 0.29708 0.10658 0.0
C123 C 0.23384 0.2882 0.05358 0.0
C124 C 0.26732 0.28845 0.03654 0.0
C125 C 0.27145 0.28171 0.98541 0.0
C126 C 0.24222 0.27463 0.94996 0.0
C127 C 0.20887 0.27402 0.96743 0.0
C128 C 0.20475 0.28085 0.0184 0.0
C129 C 0.20004 0.22178 0.2572 0.0
C130 C 0.29719 0.20216 0.221 0.0
C131 C 0.2846 0.21074 0.41889 0.0
C132 C 0.27852 0.21947 0.47176 0.0
C133 C 0.24595 0.21399 0.49083 0.0
C134 C 0.24129 0.22066 0.54179 0.0
C135 C 0.26906 0.23293 0.57503 0.0
C136 C 0.30152 0.23854 0.55575 0.0
C137 C 0.3062 0.23178 0.50495 0.0
C138 C 0.31244 0.28635 0.26808 0.0
C139 C 0.21557 0.3052 0.30427 0.0
O140 O 0.25595 0.30433 0.13823 0.0
O141 O 0.20548 0.27894 0.13121 0.0
O142 O 0.2328 0.21881 0.25674 0.0
O143 O 0.18711 0.25038 0.22867 0.0
O144 O 0.28312 0.23089 0.19162 0.0
O145 O 0.29251 0.19512 0.2711 0.0
O146 O 0.25747 0.20275 0.38704 0.0
O147 O 0.30715 0.22949 0.39434 0.0
O148 O 0.27973 0.28892 0.26891 0.0
O149 O 0.32566 0.2577 0.29617 0.0
O150 O 0.22933 0.27628 0.3335 0.0
O151 O 0.22071 0.31251 0.2544 0.0
H152 H 0.29033 0.29427 0.06241 0.0
H153 H 0.29748 0.28284 0.9733 0.0
H154 H 0.18582 0.26814 0.94174 0.0
H155 H 0.1786 0.28063 0.03018 0.0
H156 H 0.22407 0.20428 0.46659 0.0
H157 H 0.21584 0.21633 0.55509 0.0
H158 H 0.32365 0.24743 0.5804 0.0
H159 H 0.33177 0.23577 0.49188 0.0
Sm160 Sm 0.7463 0.23529 0.31655 0.0
Sm161 Sm 0.76571 0.26883 0.20636 0.0
C162 C 0.74767 0.20378 0.41393 0.0
C163 C 0.74884 0.21271 0.46815 0.0
C164 C 0.77915 0.20403 0.50419 0.0
C165 C 0.78055 0.21159 0.55596 0.0
C166 C 0.75152 0.22769 0.57285 0.0
C167 C 0.7212 0.23636 0.53677 0.0
C168 C 0.71986 0.229 0.48493 0.0
C169 C 0.70753 0.29439 0.27215 0.0
C170 C 0.80631 0.2968 0.30999 0.0
C171 C 0.76468 0.30008 0.10887 0.0
C172 C 0.76324 0.29123 0.05462 0.0
C173 C 0.73365 0.3019 0.01811 0.0
C174 C 0.73196 0.29451 0.96625 0.0
C175 C 0.75997 0.27649 0.94969 0.0
C176 C 0.78957 0.26577 0.98635 0.0
C177 C 0.7912 0.27303 0.03829 0.0
C178 C 0.80415 0.20945 0.25121 0.0
C179 C 0.70528 0.20789 0.21261 0.0
O180 O 0.77602 0.20954 0.39108 0.0
O181 O 0.71858 0.21156 0.38194 0.0
O182 O 0.73965 0.28887 0.27043 0.0
O183 O 0.69506 0.2696 0.30284 0.0
O184 O 0.79423 0.26927 0.33781 0.0
O185 O 0.79516 0.30546 0.25938 0.0
O186 O 0.73628 0.29467 0.13169 0.0
O187 O 0.7937 0.2919 0.14084 0.0
O188 O 0.77204 0.21529 0.2523 0.0
O189 O 0.81699 0.23428 0.22102 0.0
O190 O 0.71746 0.23544 0.18505 0.0
O191 O 0.71647 0.19897 0.26317 0.0
H192 H 0.80172 0.19117 0.49241 0.0
H193 H 0.80412 0.20424 0.58304 0.0
H194 H 0.69856 0.2491 0.54855 0.0
H195 H 0.69608 0.236 0.45817 0.0
H196 H 0.71179 0.31606 0.02969 0.0
H197 H 0.70858 0.30272 0.93922 0.0
H198 H 0.8118 0.25228 0.97471 0.0
H199 H 0.81446 0.26458 0.06542 0.0
Sm200 Sm 0.73999 0.76821 0.70915 0.0
Sm201 Sm 0.77556 0.73859 0.81952 0.0
C202 C 0.72634 0.79343 0.60791 0.0
C203 C 0.732 0.78462 0.55497 0.0
C204 C 0.76497 0.78814 0.53656 0.0
C205 C 0.76928 0.78165 0.48543 0.0
C206 C 0.74077 0.77151 0.45135 0.0
C207 C 0.70792 0.76773 0.47002 0.0
C208 C 0.70359 0.77433 0.52104 0.0
C209 C 0.70163 0.72067 0.76456 0.0
C210 C 0.79784 0.70019 0.72373 0.0
C211 C 0.79169 0.71502 0.92097 0.0
C212 C 0.78415 0.72183 0.97386 0.0
C213 C 0.74977 0.72276 0.98745 0.0
C214 C 0.74392 0.72816 0.03854 0.0
C215 C 0.77229 0.73275 0.07711 0.0
C216 C 0.80653 0.73227 0.06287 0.0
C217 C 0.81234 0.72678 1.01205 0.0
C218 C 0.81373 0.78584 0.76292 0.0
C219 C 0.7165 0.80478 0.80541 0.0
O220 O 0.75365 0.80209 0.6388 0.0
O221 O 0.70443 0.77438 0.63342 0.0
O222 O 0.7343 0.71786 0.76277 0.0
O223 O 0.68772 0.74831 0.73444 0.0
O224 O 0.77966 0.72578 0.6921 0.0
O225 O 0.79815 0.69682 0.77536 0.0
O226 O 0.76698 0.70181 0.89016 0.0
O227 O 0.80974 0.73851 0.89559 0.0
O228 O 0.78125 0.78884 0.76578 0.0
O229 O 0.82759 0.75804 0.7925 0.0
O230 O 0.7318 0.77695 0.83557 0.0
O231 O 0.72002 0.81084 0.75479 0.0
H232 H 0.78745 0.79622 0.56141 0.0
H233 H 0.79504 0.78446 0.47264 0.0
H234 H 0.68526 0.76047 0.44474 0.0
H235 H 0.67776 0.77185 0.53372 0.0
H236 H 0.72745 0.71905 0.95884 0.0
H237 H 0.71722 0.72806 0.04807 0.0
H238 H 0.82899 0.73638 0.09098 0.0
H239 H 0.83908 0.72626 1.00258 0.0
Sm240 Sm 0.48918 0.49259 0.96015 0.0
Sm241 Sm 0.52348 0.51398 0.06829 0.0
C242 C 0.45767 0.49203 0.86308 0.0
C243 C 0.46608 0.49559 0.80835 0.0
C244 C 0.47911 0.52678 0.7844 0.0
C245 C 0.48635 0.52939 0.73224 0.0
C246 C 0.48087 0.50085 0.70317 0.0
C247 C 0.46783 0.46975 0.72726 0.0
C248 C 0.4604 0.46723 0.77917 0.0
C249 C 0.5463 0.45202 1.00823 0.0
C250 C 0.55354 0.5498 0.96361 0.0
C251 C 0.55331 0.51653 0.16587 0.0
C252 C 0.54387 0.5151 0.21986 0.0
C253 C 0.5276 0.48587 0.24377 0.0
C254 C 0.5201 0.48478 0.29562 0.0
C255 C 0.52861 0.51291 0.32459 0.0
C256 C 0.54446 0.54227 0.30019 0.0
C257 C 0.55212 0.54326 0.24853 0.0
C258 C 0.4681 0.5555 0.01735 0.0
C259 C 0.45961 0.45627 0.0652 0.0
O260 O 0.45899 0.52015 0.8873 0.0
O261 O 0.46988 0.46357 0.89363 0.0
O262 O 0.54261 0.48465 1.00699 0.0
O263 O 0.52044 0.43954 0.97952 0.0
O264 O 0.52565 0.53794 0.93625 0.0
O265 O 0.56178 0.53969 0.01464 0.0
O266 O 0.55115 0.48758 0.14379 0.0
O267 O 0.54266 0.54457 0.1332 0.0
O268 O 0.47033 0.52261 0.02089 0.0
O269 O 0.49459 0.5677 0.04504 0.0
O270 O 0.48704 0.46887 0.09249 0.0
O271 O 0.45177 0.46538 0.01393 0.0
H272 H 0.48378 0.54914 0.80586 0.0
H273 H 0.49664 0.55359 0.71486 0.0
H274 H 0.46287 0.44749 0.7057 0.0
H275 H 0.45008 0.44303 0.79655 0.0
H276 H 0.52093 0.46369 0.22269 0.0
H277 H 0.50824 0.46158 0.3133 0.0
H278 H 0.55084 0.56465 0.32093 0.0
H279 H 0.56465 0.56608 0.23096 0.0
Sm280 Sm 0.02056 0.48587 0.56662 0.0
Sm281 Sm 0.99126 0.52178 0.4561 0.0
C282 C 0.04557 0.4716 0.66788 0.0
C283 C 0.03701 0.47718 0.72092 0.0
C284 C 0.03519 0.51096 0.73657 0.0
C285 C 0.02887 0.51528 0.7878 0.0
C286 C 0.02416 0.486 0.8246 0.0
C287 C 0.02565 0.45231 0.80859 0.0
C288 C 0.0321 0.44799 0.75751 0.0
C289 C 0.9738 0.44741 0.51009 0.0
C290 C 0.9527 0.5439 0.55185 0.0
C291 C 0.96794 0.53829 0.35461 0.0
C292 C 0.97451 0.53067 0.30173 0.0
C293 C 0.98062 0.49632 0.29051 0.0
C294 C 0.98606 0.49027 0.2395 0.0
C295 C 0.98556 0.51843 0.19873 0.0
C296 C 0.97991 0.55274 0.21064 0.0
C297 C 0.97439 0.55872 0.26139 0.0
C298 C 0.0385 0.5596 0.51333 0.0
C299 C 0.0575 0.46286 0.47035 0.0
O300 O 0.05466 0.49883 0.63722 0.0
O301 O 0.02601 0.45015 0.64223 0.0
O302 O 0.97057 0.48002 0.51214 0.0
O303 O 1.00132 0.43364 0.54064 0.0
O304 O 0.97813 0.52555 0.58356 0.0
O305 O 0.94948 0.54441 0.50019 0.0
O306 O 0.95442 0.51372 0.38526 0.0
O307 O 0.99184 0.55585 0.38005 0.0
O308 O 0.04138 0.52716 0.51028 0.0
O309 O 0.01079 0.57364 0.48368 0.0
O310 O 0.02973 0.47819 0.44008 0.0
O311 O 0.0634 0.46622 0.52105 0.0
H312 H 0.03887 0.53407 0.70943 0.0
H313 H 0.0275 0.54163 0.79851 0.0
H314 H 0.02262 0.42914 0.83596 0.0
H315 H 0.03371 0.42165 0.74677 0.0
H316 H 0.98099 0.47417 0.32097 0.0
H317 H 0.99008 0.46348 0.23184 0.0
H318 H 0.98004 0.57515 0.18077 0.0
H319 H 0.96996 0.58544 0.26915 0.0
C320 C 0.07062 0.08386 0.37831 0.0
C321 C 0.07275 0.08061 0.43334 0.0
C322 C 0.09242 0.1065 0.35103 0.0
C323 C 0.11658 0.12692 0.37929 0.0
C324 C 0.11873 0.12399 0.43482 0.0
C325 C 0.09699 0.10063 0.46124 0.0
C326 C 0.08964 0.10847 0.29188 0.0
C327 C 0.14371 0.14582 0.46624 0.0
C328 C 0.1927 0.16404 0.3106 0.0
C329 C 0.17943 0.19775 0.28975 0.0
C330 C 0.17272 0.14077 0.34041 0.0
C331 C 0.139 0.15182 0.35036 0.0
C332 C 0.12602 0.18628 0.33066 0.0
C333 C 0.14625 0.2087 0.30014 0.0
C334 C 0.18731 0.10413 0.36018 0.0
C335 C 0.09057 0.19936 0.34132 0.0
H336 H 0.05219 0.0683 0.35641 0.0
H337 H 0.0987 0.09838 0.50373 0.0
H338 H 0.08159 0.13552 0.27348 0.0
H339 H 0.11566 0.10235 0.27999 0.0
H340 H 0.07034 0.09 0.27595 0.0
H341 H 0.1423 0.14039 0.50918 0.0
H342 H 0.1711 0.14058 0.45899 0.0
H343 H 0.13759 0.17416 0.45341 0.0
H344 H 0.21842 0.1556 0.30269 0.0
H345 H 0.13613 0.23495 0.28462 0.0
H346 H 0.16997 0.08461 0.34279 0.0
H347 H 0.18789 0.09892 0.40349 0.0
H348 H 0.21429 0.09992 0.3502 0.0
H349 H 0.06955 0.18381 0.32261 0.0
H350 H 0.0853 0.22755 0.32609 0.0
H351 H 0.08892 0.19575 0.38423 0.0
C352 C 0.08154 0.90054 0.5324 0.0
C353 C 0.07644 0.93627 0.53605 0.0
C354 C 0.10498 0.87964 0.56998 0.0
C355 C 0.122 0.89464 0.61339 0.0
C356 C 0.11772 0.93098 0.61621 0.0
C357 C 0.09606 0.95163 0.57612 0.0
C358 C 0.11079 0.8414 0.564 0.0
C359 C 0.13407 0.94764 0.66307 0.0
C360 C 0.14599 0.82824 0.73389 0.0
C361 C 0.18235 0.82451 0.73432 0.0
C362 C 0.12621 0.85258 0.69629 0.0
C363 C 0.14311 0.87197 0.65681 0.0
C364 C 0.17997 0.86885 0.658 0.0
C365 C 0.19931 0.84623 0.69832 0.0
C366 C 0.0872 0.857 0.69815 0.0
C367 C 0.19872 0.88772 0.61514 0.0
H368 H 0.06692 0.88885 0.50061 0.0
H369 H 0.09312 0.97959 0.57761 0.0
H370 H 0.13932 0.83438 0.56988 0.0
H371 H 0.09848 0.82464 0.59439 0.0
H372 H 0.09938 0.83513 0.52469 0.0
H373 H 0.13001 0.97666 0.6574 0.0
H374 H 0.12212 0.93684 0.69844 0.0
H375 H 0.16265 0.94131 0.67128 0.0
H376 H 0.13301 0.812 0.76264 0.0
H377 H 0.22764 0.84424 0.70003 0.0
H378 H 0.07242 0.8462 0.66437 0.0
H379 H 0.07957 0.88529 0.6949 0.0
H380 H 0.07905 0.84336 0.73502 0.0
H381 H 0.18935 0.87819 0.57713 0.0
H382 H 0.22769 0.88334 0.62307 0.0
H383 H 0.19266 0.91636 0.61039 0.0
C384 C 0.34717 0.84642 0.81931 0.0
C385 C 0.32595 0.82335 0.84698 0.0
C386 C 0.37132 0.86733 0.84585 0.0
C387 C 0.37391 0.86554 0.90131 0.0
C388 C 0.3522 0.84266 0.92936 0.0
C389 C 0.32873 0.82165 0.90193 0.0
C390 C 0.39444 0.89095 0.81465 0.0
C391 C 0.3538 0.84033 0.98842 0.0
C392 C 0.45747 0.89269 0.97927 0.0
C393 C 0.44817 0.9267 0.98819 0.0
C394 C 0.4338 0.87279 0.95011 0.0
C395 C 0.39979 0.88703 0.93025 0.0
C396 C 0.39033 0.92147 0.93904 0.0
C397 C 0.41479 0.94103 0.96753 0.0
C398 C 0.44517 0.83649 0.94069 0.0
C399 C 0.35421 0.93742 0.91906 0.0
H400 H 0.34536 0.84774 0.7769 0.0
H401 H 0.31231 0.80405 0.92365 0.0
H402 H 0.39049 0.91861 0.82161 0.0
H403 H 0.42249 0.88352 0.82792 0.0
H404 H 0.38905 0.88949 0.77172 0.0
H405 H 0.33434 0.82209 1.00416 0.0
H406 H 0.38045 0.83116 1.00734 0.0
H407 H 0.34884 0.86672 0.99989 0.0
H408 H 0.48343 0.88171 0.99475 0.0
H409 H 0.40759 0.96737 0.97436 0.0
H410 H 0.44188 0.83445 0.89788 0.0
H411 H 0.42832 0.81662 0.95918 0.0
H412 H 0.47302 0.82987 0.95683 0.0
H413 H 0.34904 0.93806 0.87573 0.0
H414 H 0.35106 0.96456 0.92897 0.0
H415 H 0.33397 0.92096 0.93626 0.0
C416 C 0.39498 0.07107 0.05911 0.0
C417 C 0.43078 0.06652 0.07855 0.0
C418 C 0.3723 0.09199 0.08248 0.0
C419 C 0.38584 0.10962 0.12546 0.0
C420 C 0.42209 0.10541 0.14473 0.0
C421 C 0.44393 0.08364 0.12155 0.0
C422 C 0.33376 0.09509 0.06133 0.0
C423 C 0.43799 0.12435 0.18942 0.0
C424 C 0.33519 0.19078 0.15205 0.0
C425 C 0.31946 0.17808 0.19669 0.0
C426 C 0.35683 0.16891 0.12872 0.0
C427 C 0.36239 0.13305 0.14961 0.0
C428 C 0.34615 0.11992 0.19424 0.0
C429 C 0.32528 0.14265 0.21761 0.0
C430 C 0.37422 0.18439 0.08213 0.0
C431 C 0.35072 0.08177 0.2172 0.0
H432 H 0.38456 0.05779 0.02613 0.0
H433 H 0.47162 0.0806 0.13657 0.0
H434 H 0.3177 0.08712 0.09346 0.0
H435 H 0.32629 0.12282 0.04596 0.0
H436 H 0.32702 0.07859 0.02929 0.0
H437 H 0.46671 0.11875 0.19931 0.0
H438 H 0.43344 0.15312 0.17885 0.0
H439 H 0.4251 0.11654 0.22504 0.0
H440 H 0.33116 0.21818 0.13579 0.0
H441 H 0.3131 0.13254 0.25185 0.0
H442 H 0.36613 0.17037 0.04774 0.0
H443 H 0.40319 0.18093 0.09137 0.0
H444 H 0.36754 0.21281 0.0709 0.0
H445 H 0.3426 0.06477 0.18635 0.0
H446 H 0.33514 0.07525 0.25041 0.0
H447 H 0.37883 0.07535 0.23149 0.0
C448 C 0.94098 0.92641 0.64287 0.0
C449 C 0.93924 0.92955 0.5879 0.0
C450 C 0.91926 0.90351 0.66988 0.0
C451 C 0.89562 0.88271 0.64139 0.0
C452 C 0.89385 0.88559 0.58591 0.0
C453 C 0.91547 0.90921 0.55978 0.0
C454 C 0.92162 0.90161 0.72899 0.0
C455 C 0.86946 0.86337 0.55427 0.0
C456 C 0.8672 0.8001 0.71987 0.0
C457 C 0.83369 0.81028 0.72994 0.0
C458 C 0.88716 0.82306 0.68975 0.0
C459 C 0.87354 0.85729 0.67004 0.0
C460 C 0.83946 0.86755 0.67955 0.0
C461 C 0.81978 0.84376 0.70903 0.0
C462 C 0.92303 0.81081 0.67962 0.0
C463 C 0.82419 0.90395 0.65974 0.0
H464 H 0.95904 0.94223 0.66492 0.0
H465 H 0.91407 0.91138 0.51732 0.0
H466 H 0.89535 0.90715 0.74049 0.0
H467 H 0.93015 0.87472 0.74757 0.0
H468 H 0.94037 0.92051 0.74507 0.0
H469 H 0.87095 0.86897 0.51137 0.0
H470 H 0.87614 0.83512 0.56702 0.0
H471 H 0.84193 0.86799 0.56137 0.0
H472 H 0.87785 0.77405 0.73553 0.0
H473 H 0.79383 0.85162 0.71675 0.0
H474 H 0.94353 0.82679 0.69864 0.0
H475 H 0.92497 0.81457 0.63678 0.0
H476 H 0.92886 0.7827 0.69487 0.0
H477 H 0.84092 0.92376 0.67754 0.0
H478 H 0.797 0.9075 0.66926 0.0
H479 H 0.82391 0.90933 0.6165 0.0
C480 C 0.91462 0.05762 0.44623 0.0
C481 C 0.93501 0.07377 0.48469 0.0
C482 C 0.89228 0.07759 0.40623 0.0
C483 C 0.88839 0.11416 0.40732 0.0
C484 C 0.90654 0.13013 0.44891 0.0
C485 C 0.93039 0.10979 0.48659 0.0
C486 C 0.87452 0.05988 0.36138 0.0
C487 C 0.9014 0.16877 0.45285 0.0
C488 C 0.86107 0.17756 0.28437 0.0
C489 C 0.82509 0.18202 0.28682 0.0
C490 C 0.88177 0.154 0.32204 0.0
C491 C 0.86619 0.13599 0.36415 0.0
C492 C 0.82966 0.13972 0.36582 0.0
C493 C 0.80933 0.16178 0.32587 0.0
C494 C 0.92037 0.14904 0.31753 0.0
C495 C 0.81236 0.12205 0.41118 0.0
H496 H 0.91739 0.02951 0.44593 0.0
H497 H 0.94569 0.12212 0.51708 0.0
H498 H 0.84582 0.06575 0.35553 0.0
H499 H 0.88485 0.07027 0.32441 0.0
H500 H 0.87904 0.03092 0.36788 0.0
H501 H 0.91446 0.17617 0.4906 0.0
H502 H 0.91235 0.18459 0.4201 0.0
H503 H 0.87296 0.17587 0.44927 0.0
H504 H 0.8731 0.19276 0.25346 0.0
H505 H 0.78125 0.16444 0.32665 0.0
H506 H 0.92764 0.12063 0.32149 0.0
H507 H 0.93633 0.16032 0.34983 0.0
H508 H 0.92742 0.16188 0.27945 0.0
H509 H 0.81803 0.09332 0.41674 0.0
H510 H 0.78341 0.12675 0.40542 0.0
H511 H 0.82329 0.13221 0.44803 0.0
C512 C 0.67685 0.18753 0.12972 0.0
C513 C 0.6804 0.1852 0.18478 0.0
C514 C 0.65402 0.1659 0.10248 0.0
C515 C 0.63368 0.14171 0.13083 0.0
C516 C 0.63691 0.13934 0.1864 0.0
C517 C 0.66048 0.16092 0.21278 0.0
C518 C 0.65173 0.16891 0.04327 0.0
C519 C 0.61518 0.11431 0.2179 0.0
C520 C 0.55165 0.11259 0.05166 0.0
C521 C 0.56254 0.07956 0.04065 0.0
C522 C 0.57414 0.13255 0.08251 0.0
C523 C 0.60862 0.11944 0.10191 0.0
C524 C 0.61959 0.08586 0.0914 0.0
C525 C 0.59625 0.06614 0.06126 0.0
C526 C 0.56115 0.16787 0.09375 0.0
C527 C 0.65626 0.07115 0.11083 0.0
H528 H 0.69233 0.206 0.10775 0.0
H529 H 0.66296 0.15907 0.2553 0.0
H530 H 0.65768 0.14296 0.03106 0.0
H531 H 0.62462 0.17707 0.02523 0.0
H532 H 0.67017 0.18821 0.02727 0.0
H533 H 0.62084 0.11556 0.26086 0.0
H534 H 0.58681 0.12052 0.20541 0.0
H535 H 0.62028 0.08697 0.21035 0.0
H536 H 0.52539 0.1228 0.03632 0.0
H537 H 0.60464 0.04053 0.05289 0.0
H538 H 0.57657 0.18898 0.075 0.0
H539 H 0.56502 0.16933 0.13671 0.0
H540 H 0.53289 0.17316 0.07892 0.0
H541 H 0.67576 0.08848 0.09336 0.0
H542 H 0.66034 0.04421 0.10065 0.0
H543 H 0.66163 0.07045 0.15415 0.0
C544 C 0.67842 0.81612 0.87425 0.0
C545 C 0.69391 0.82875 0.82935 0.0
C546 C 0.65653 0.8379 0.89733 0.0
C547 C 0.65053 0.87364 0.876 0.0
C548 C 0.66653 0.88671 0.8311 0.0
C549 C 0.68759 0.86403 0.80791 0.0
C550 C 0.63936 0.82244 0.94415 0.0
C551 C 0.66156 0.92475 0.80771 0.0
C552 C 0.56873 0.9226 0.90423 0.0
C553 C 0.58181 0.93985 0.94715 0.0
C554 C 0.59067 0.90094 0.88102 0.0
C555 C 0.62697 0.89702 0.9001 0.0
C556 C 0.64045 0.91484 0.94291 0.0
C557 C 0.61766 0.93559 0.96637 0.0
C558 C 0.57481 0.88178 0.83657 0.0
C559 C 0.67905 0.91213 0.96376 0.0
H560 H 0.68284 0.78882 0.89088 0.0
H561 H 0.69959 0.87408 0.77346 0.0
H562 H 0.64749 0.83658 0.97839 0.0
H563 H 0.61037 0.82575 0.93513 0.0
H564 H 0.64621 0.79406 0.95552 0.0
H565 H 0.677 0.93125 0.77433 0.0
H566 H 0.63339 0.93088 0.79354 0.0
H567 H 0.66959 0.94198 0.83828 0.0
H568 H 0.541 0.92545 0.88935 0.0
H569 H 0.62805 0.94899 0.99924 0.0
H570 H 0.5796 0.85305 0.8473 0.0
H571 H 0.58755 0.88959 0.80081 0.0
H572 H 0.54605 0.88715 0.82682 0.0
H573 H 0.68677 0.88451 0.97945 0.0
H574 H 0.68574 0.92888 0.99549 0.0
H575 H 0.69494 0.92005 0.9314 0.0
C576 C 0.60025 0.59466 0.96386 0.0
C577 C 0.5767 0.5741 0.93577 0.0
C578 C 0.62161 0.61852 0.93772 0.0
C579 C 0.61981 0.62144 0.88224 0.0
C580 C 0.59652 0.6003 0.85378 0.0
C581 C 0.57502 0.57715 0.88082 0.0
C582 C 0.6456 0.6411 0.96935 0.0
C583 C 0.59418 0.60224 0.79468 0.0
C584 C 0.64754 0.70505 0.80534 0.0
C585 C 0.68143 0.69556 0.79606 0.0
C586 C 0.62755 0.68144 0.83438 0.0
C587 C 0.64154 0.64727 0.85371 0.0
C588 C 0.6759 0.63765 0.84472 0.0
C589 C 0.69561 0.66208 0.81642 0.0
C590 C 0.59134 0.693 0.84408 0.0
C591 C 0.69156 0.60135 0.86409 0.0
H592 H 0.60151 0.59263 1.00629 0.0
H593 H 0.55705 0.56121 0.85883 0.0
H594 H 0.67319 0.63699 0.96214 0.0
H595 H 0.63842 0.66926 0.95668 0.0
H596 H 0.64423 0.63536 1.01226 0.0
H597 H 0.57576 0.58304 0.77864 0.0
H598 H 0.58522 0.62902 0.7761 0.0
H599 H 0.62054 0.59716 0.78314 0.0
H600 H 0.63669 0.73108 0.79008 0.0
H601 H 0.72184 0.65474 0.80927 0.0
H602 H 0.58926 0.68926 0.88687 0.0
H603 H 0.57127 0.67659 0.82505 0.0
H604 H 0.58502 0.721 0.82862 0.0
H605 H 0.69203 0.59578 0.90735 0.0
H606 H 0.71874 0.59813 0.85432 0.0
H607 H 0.67498 0.58143 0.84628 0.0
C608 C 0.65033 0.32619 0.24113 0.0
C609 C 0.68608 0.32166 0.23702 0.0
C610 C 0.62903 0.34964 0.20412 0.0
C611 C 0.64368 0.36737 0.16089 0.0
C612 C 0.67997 0.36342 0.15737 0.0
C613 C 0.70101 0.34163 0.19682 0.0
C614 C 0.59079 0.35491 0.2107 0.0
C615 C 0.69623 0.38063 0.11065 0.0
C616 C 0.57709 0.39456 0.04152 0.0
C617 C 0.57371 0.43071 0.04329 0.0
C618 C 0.60123 0.37378 0.07819 0.0
C619 C 0.62083 0.38946 0.11884 0.0
C620 C 0.61794 0.42609 0.12002 0.0
C621 C 0.59539 0.44647 0.0808 0.0
C622 C 0.60531 0.33506 0.07399 0.0
C623 C 0.63721 0.44352 0.16405 0.0
H624 H 0.63897 0.31121 0.27294 0.0
H625 H 0.72895 0.33901 0.19488 0.0
H626 H 0.58371 0.38337 0.20657 0.0
H627 H 0.57397 0.34343 0.17947 0.0
H628 H 0.58464 0.34243 0.24952 0.0
H629 H 0.72505 0.37531 0.11456 0.0
H630 H 0.68393 0.37068 0.07435 0.0
H631 H 0.69123 0.40945 0.10538 0.0
H632 H 0.56078 0.38253 1.01172 0.0
H633 H 0.59367 0.47466 0.08083 0.0
H634 H 0.59484 0.31949 0.10741 0.0
H635 H 0.63354 0.32741 0.07617 0.0
H636 H 0.59121 0.32789 0.03677 0.0
H637 H 0.62877 0.43236 0.20208 0.0
H638 H 0.63215 0.47241 0.15876 0.0
H639 H 0.66592 0.43827 0.16689 0.0
C640 C 0.96019 0.3937 0.46739 0.0
C641 C 0.94962 0.42712 0.47724 0.0
C642 C 0.93744 0.37338 0.43757 0.0
C643 C 0.90301 0.38654 0.41801 0.0
C644 C 0.89237 0.42055 0.42722 0.0
C645 C 0.91599 0.44062 0.45634 0.0
C646 C 0.95009 0.33761 0.42766 0.0
C647 C 0.85576 0.43533 0.40757 0.0
C648 C 0.85112 0.34365 0.30875 0.0
C649 C 0.83112 0.31979 0.33732 0.0
C650 C 0.87465 0.36558 0.33441 0.0
C651 C 0.87776 0.36403 0.38988 0.0
C652 C 0.85732 0.34028 0.41883 0.0
C653 C 0.83451 0.31825 0.39228 0.0
C654 C 0.89651 0.39006 0.30228 0.0
C655 C 0.85949 0.33815 0.47794 0.0
H656 H 0.98638 0.3834 0.483 0.0
H657 H 0.90782 0.46651 0.46387 0.0
H658 H 0.93451 0.31696 0.44716 0.0
H659 H 0.94614 0.33545 0.3849 0.0
H660 H 0.97833 0.33223 0.44258 0.0
H661 H 0.85193 0.46256 0.41672 0.0
H662 H 0.85022 0.43531 0.3644 0.0
H663 H 0.83621 0.41847 0.42581 0.0
H664 H 0.84876 0.34489 0.2663 0.0
H665 H 0.81895 0.3001 0.41466 0.0
H666 H 0.92485 0.3838 0.31497 0.0
H667 H 0.89152 0.4176 0.30896 0.0
H668 H 0.89087 0.38824 0.25948 0.0
H669 H 0.88652 0.32997 0.4963 0.0
H670 H 0.84086 0.31924 0.49442 0.0
H671 H 0.85372 0.36442 0.48924 0.0
C672 C 0.80525 0.66074 0.65516 0.0
C673 C 0.81931 0.67534 0.70006 0.0
C674 C 0.8257 0.63805 0.63121 0.0
C675 C 0.86161 0.63104 0.65112 0.0
C676 C 0.876 0.64622 0.69613 0.0
C677 C 0.85449 0.66756 0.72066 0.0
C678 C 0.80881 0.62148 0.58468 0.0
C679 C 0.91439 0.64074 0.71752 0.0
C680 C 0.91211 0.55129 0.61893 0.0
C681 C 0.92803 0.5656 0.57544 0.0
C682 C 0.88962 0.57197 0.64288 0.0
C683 C 0.8842 0.60828 0.62451 0.0
C684 C 0.90076 0.6229 0.58099 0.0
C685 C 0.92185 0.60123 0.55633 0.0
C686 C 0.87155 0.5549 0.68774 0.0
C687 C 0.89701 0.66166 0.56135 0.0
H688 H 0.77803 0.66672 0.63919 0.0
H689 H 0.86555 0.67928 0.75489 0.0
H690 H 0.82108 0.63102 0.54911 0.0
H691 H 0.81319 0.59253 0.59195 0.0
H692 H 0.7801 0.62751 0.5764 0.0
H693 H 0.92182 0.65532 0.7516 0.0
H694 H 0.92066 0.61242 0.73001 0.0
H695 H 0.93087 0.64952 0.68622 0.0
H696 H 0.9169 0.52373 0.63376 0.0
H697 H 0.93462 0.61245 0.52323 0.0
H698 H 0.84277 0.56039 0.67933 0.0
H699 H 0.88089 0.56609 0.72436 0.0
H700 H 0.87646 0.52599 0.69484 0.0
H701 H 0.86904 0.66912 0.54773 0.0
H702 H 0.91261 0.66917 0.52845 0.0
H703 H 0.90575 0.67711 0.59392 0.0
C704 C 0.36671 0.30197 0.2276 0.0
C705 C 0.3328 0.31145 0.23676 0.0
C706 C 0.38653 0.32539 0.1979 0.0
C707 C 0.3723 0.35934 0.17769 0.0
C708 C 0.33794 0.36897 0.18667 0.0
C709 C 0.31846 0.34476 0.21575 0.0
C710 C 0.42277 0.31385 0.18836 0.0
C711 C 0.32199 0.40503 0.1663 0.0
C712 C 0.43815 0.42974 0.14845 0.0
C713 C 0.43656 0.43208 0.09355 0.0
C714 C 0.41688 0.40671 0.17612 0.0
C715 C 0.39381 0.38501 0.14839 0.0
C716 C 0.39201 0.38725 0.09295 0.0
C717 C 0.4132 0.41097 0.06615 0.0
C718 C 0.41923 0.40551 0.23513 0.0
C719 C 0.36817 0.36413 0.06208 0.0
H720 H 0.3777 0.27607 0.24335 0.0
H721 H 0.29219 0.35209 0.22275 0.0
H722 H 0.42469 0.31693 0.14553 0.0
H723 H 0.44274 0.33073 0.20655 0.0
H724 H 0.42936 0.28605 0.20475 0.0
H725 H 0.29486 0.40828 0.17623 0.0
H726 H 0.33849 0.42533 0.18321 0.0
H727 H 0.32131 0.40996 0.12295 0.0
H728 H 0.45592 0.44612 0.16995 0.0
H729 H 0.41195 0.41248 0.02377 0.0
H730 H 0.42837 0.37893 0.25441 0.0
H731 H 0.39284 0.41062 0.24655 0.0
H732 H 0.43752 0.42503 0.25057 0.0
H733 H 0.37562 0.3361 0.07537 0.0
H734 H 0.36942 0.36945 0.01909 0.0
H735 H 0.34057 0.36812 0.06936 0.0
C736 C 0.41174 0.56504 0.95869 0.0
C737 C 0.44473 0.5771 0.97642 0.0
C738 C 0.38902 0.5857 0.91985 0.0
C739 C 0.4002 0.61854 0.89763 0.0
C740 C 0.43426 0.62995 0.91375 0.0
C741 C 0.45599 0.60925 0.95371 0.0
C742 C 0.35261 0.5731 0.90419 0.0
C743 C 0.44738 0.66443 0.88986 0.0
C744 C 0.34811 0.66565 0.7738 0.0
C745 C 0.32847 0.69007 0.79508 0.0
C746 C 0.37162 0.64175 0.80676 0.0
C747 C 0.3751 0.64265 0.8618 0.0
C748 C 0.35539 0.66762 0.88306 0.0
C749 C 0.33283 0.69152 0.84911 0.0
C750 C 0.39315 0.61612 0.78284 0.0
C751 C 0.3585 0.66944 0.94156 0.0
H752 H 0.40341 0.5399 0.9762 0.0
H753 H 0.48193 0.61806 0.96682 0.0
H754 H 0.3328 0.59093 0.91606 0.0
H755 H 0.3474 0.57381 0.86086 0.0
H756 H 0.34886 0.54596 0.92276 0.0
H757 H 0.47586 0.66735 0.90223 0.0
H758 H 0.44277 0.66671 0.8463 0.0
H759 H 0.43267 0.68654 0.90199 0.0
H760 H 0.34522 0.66544 0.73154 0.0
H761 H 0.3196 0.71219 0.86463 0.0
H762 H 0.38863 0.5888 0.79966 0.0
H763 H 0.42154 0.62076 0.79259 0.0
H764 H 0.3868 0.61843 0.73938 0.0
H765 H 0.35255 0.64362 0.96247 0.0
H766 H 0.34044 0.68977 0.95157 0.0
H767 H 0.38578 0.67548 0.95659 0.0
C768 C 0.18018 0.68602 0.63322 0.0
C769 C 0.18292 0.68446 0.68814 0.0
C770 C 0.1575 0.66419 0.60606 0.0
C771 C 0.13659 0.64055 0.63436 0.0
C772 C 0.13932 0.63871 0.68982 0.0
C773 C 0.16264 0.66051 0.71608 0.0
C774 C 0.15569 0.66664 0.54696 0.0
C775 C 0.11707 0.61424 0.72129 0.0
C776 C 0.05343 0.61293 0.55629 0.0
C777 C 0.06327 0.57938 0.54606 0.0
C778 C 0.07673 0.63268 0.58622 0.0
C779 C 0.11094 0.61879 0.60555 0.0
C780 C 0.12087 0.5847 0.59581 0.0
C781 C 0.09674 0.56522 0.56654 0.0
C782 C 0.06485 0.6686 0.59663 0.0
C783 C 0.15722 0.56915 0.61525 0.0
H784 H 0.19592 0.70425 0.6113 0.0
H785 H 0.16446 0.65924 0.7585 0.0
H786 H 0.16088 0.64035 0.5353 0.0
H787 H 0.1289 0.67556 0.52833 0.0
H788 H 0.17487 0.68515 0.53109 0.0
H789 H 0.12298 0.61526 0.76428 0.0
H790 H 0.08883 0.62128 0.70903 0.0
H791 H 0.12131 0.58681 0.71348 0.0
H792 H 0.02739 0.62375 0.54095 0.0
H793 H 0.10434 0.53924 0.55867 0.0
H794 H 0.03678 0.67474 0.58136 0.0
H795 H 0.08105 0.68897 0.57783 0.0
H796 H 0.06862 0.67036 0.63951 0.0
H797 H 0.1771 0.58579 0.59744 0.0
H798 H 0.16053 0.542 0.60547 0.0
H799 H 0.16277 0.56869 0.65851 0.0
C800 C 0.17528 0.31575 0.37052 0.0
C801 C 0.1931 0.32912 0.32839 0.0
C802 C 0.15349 0.33755 0.39371 0.0
C803 C 0.15002 0.37396 0.37541 0.0
C804 C 0.16837 0.38771 0.33333 0.0
C805 C 0.18926 0.36508 0.30986 0.0
C806 C 0.13374 0.32144 0.43733 0.0
C807 C 0.16607 0.42642 0.31328 0.0
C808 C 0.06912 0.42545 0.40092 0.0
C809 C 0.08156 0.44042 0.44639 0.0
C810 C 0.09098 0.40375 0.37771 0.0
C811 C 0.12658 0.39737 0.39957 0.0
C812 C 0.13946 0.41282 0.44508 0.0
C813 C 0.1167 0.43374 0.46832 0.0
C814 C 0.07575 0.38718 0.33017 0.0
C815 C 0.17736 0.40738 0.46908 0.0
H816 H 0.17779 0.28793 0.38479 0.0
H817 H 0.20309 0.37565 0.27756 0.0
H818 H 0.1414 0.33367 0.47361 0.0
H819 H 0.10508 0.32661 0.42613 0.0
H820 H 0.13875 0.2926 0.44641 0.0
H821 H 0.1831 0.43328 0.28196 0.0
H822 H 0.13855 0.43445 0.29731 0.0
H823 H 0.1739 0.44192 0.34614 0.0
H824 H 0.04192 0.43014 0.38391 0.0
H825 H 0.1266 0.44534 0.50322 0.0
H826 H 0.0787 0.35815 0.33864 0.0
H827 H 0.09031 0.39544 0.29643 0.0
H828 H 0.04747 0.39439 0.31832 0.0
H829 H 0.18321 0.3791 0.48265 0.0
H830 H 0.18371 0.42238 0.50299 0.0
H831 H 0.19492 0.41561 0.43903 0.0
C832 C 0.03594 0.03555 0.90845 0.0
C833 C 0.02262 0.01005 0.8775 0.0
C834 C 0.02948 0.03456 0.96089 0.0
C835 C 0.00919 0.00742 0.98286 0.0
C836 C 0.99564 0.98161 0.95183 0.0
C837 C 1.00255 0.98322 0.89951 0.0
C838 C 0.04449 0.06246 0.99285 0.0
C839 C 0.97378 0.95235 0.97388 0.0
C840 C 0.01854 0.98593 0.1315 0.0
C841 C 0.98869 1.00322 0.1438 0.0
C842 C 0.02552 0.98706 0.07927 0.0
C843 C 1.00216 0.00603 0.03838 0.0
C844 C 0.97209 0.02368 0.05051 0.0
C845 C 0.96569 0.02201 0.10306 0.0
C846 C 0.0579 0.96796 0.06784 0.0
C847 C 0.94658 0.04417 1.00792 0.0
H848 H 0.05187 0.05607 0.89183 0.0
H849 H 0.99186 0.96368 0.87555 0.0
H850 H 0.02298 0.07667 1.00738 0.0
H851 H 0.06208 0.05007 0.02784 0.0
H852 H 0.05961 0.08185 0.96982 0.0
H853 H 0.96523 0.93433 0.94458 0.0
H854 H 0.98906 0.93684 1.00865 0.0
H855 H 0.95011 0.96352 0.98734 0.0
H856 H 0.03667 0.97176 0.16284 0.0
H857 H 0.94232 0.03501 0.11219 0.0
H858 H 0.07504 0.98679 0.04777 0.0
H859 H 0.05027 0.94827 0.04082 0.0
H860 H 0.07335 0.95432 0.1041 0.0
H861 H 0.96049 0.06496 0.98559 0.0
H862 H 0.92462 0.05667 0.02398 0.0
H863 H 0.93543 0.02652 0.97961 0.0
C864 C 0.2772 0.7478 0.38567 0.0
C865 C 0.25651 0.77488 0.3994 0.0
C866 C 0.27575 0.74111 0.33324 0.0
C867 C 0.25291 0.76187 0.29362 0.0
C868 C 0.23195 0.78922 0.30717 0.0
C869 C 0.23408 0.79547 0.35985 0.0
C870 C 0.29853 0.71172 0.32029 0.0
C871 C 0.20718 0.81184 0.26602 0.0
C872 C 0.26981 0.7653 0.15118 0.0
C873 C 0.24583 0.74116 0.1323 0.0
C874 C 0.27261 0.77208 0.2037 0.0
C875 C 0.2506 0.75467 0.23804 0.0
C876 C 0.22627 0.73041 0.21929 0.0
C877 C 0.22438 0.72375 0.16684 0.0
C878 C 0.29907 0.79794 0.22243 0.0
C879 C 0.20217 0.7115 0.25463 0.0
H880 H 0.29424 0.73148 0.41607 0.0
H881 H 0.2184 0.81678 0.37 0.0
H882 H 0.2818 0.69182 0.30273 0.0
H883 H 0.31561 0.7221 0.29066 0.0
H884 H 0.31542 0.6985 0.3555 0.0
H885 H 0.1926 0.83197 0.28306 0.0
H886 H 0.22207 0.82535 0.23564 0.0
H887 H 0.1879 0.79516 0.24585 0.0
H888 H 0.28615 0.77928 0.12472 0.0
H889 H 0.20624 0.70457 0.15304 0.0
H890 H 0.31729 0.78504 0.25634 0.0
H891 H 0.2854 0.82008 0.23624 0.0
H892 H 0.31476 0.80871 0.19109 0.0
H893 H 0.21791 0.69568 0.28865 0.0
H894 H 0.18434 0.69382 0.23375 0.0
H895 H 0.18596 0.73086 0.27057 0.0
C896 C 0.5143 0.98695 0.63479 0.0
C897 C 0.49155 0.01365 0.64497 0.0
C898 C 0.52034 0.98298 0.58309 0.0
C899 C 0.50334 0.00631 0.54023 0.0
C900 C 0.48037 0.0333 0.55018 0.0
C901 C 0.4747 0.03656 0.6022 0.0
C902 C 0.54502 0.95384 0.57432 0.0
C903 C 0.46164 0.05872 0.50578 0.0
C904 C 0.54211 0.01662 0.41005 0.0
C905 C 0.52074 0.99516 0.38009 0.0
C906 C 0.53683 0.02042 0.4621 0.0
C907 C 0.50941 1.00243 0.48497 0.0
C908 C 0.48761 0.98091 0.45486 0.0
C909 C 0.49354 0.97752 0.40297 0.0
C910 C 0.56075 0.04355 0.49275 0.0
C911 C 0.45793 0.96144 0.47745 0.0
H912 H 0.52785 0.96935 0.66737 0.0
H913 H 0.4566 0.05692 0.60927 0.0
H914 H 0.531 0.93631 0.54821 0.0
H915 H 0.56702 0.96505 0.55428 0.0
H916 H 0.55609 0.9378 0.61169 0.0
H917 H 0.44492 0.07849 0.52005 0.0
H918 H 0.48109 0.07272 0.48314 0.0
H919 H 0.44485 0.04418 0.4782 0.0
H920 H 0.56348 0.03001 0.3931 0.0
H921 H 0.47656 0.96125 0.38004 0.0
H922 H 0.57443 0.02791 0.52874 0.0
H923 H 0.54506 0.06468 0.50563 0.0
H924 H 0.5808 0.05581 0.46937 0.0
H925 H 0.46838 0.94362 0.51336 0.0
H926 H 0.44342 0.94567 0.44906 0.0
H927 H 0.43914 0.98035 0.48926 0.0
C928 C 0.22111 0.28219 0.85266 0.0
C929 C 0.24628 0.26846 0.8948 0.0
C930 C 0.22434 0.27651 0.80064 0.0
C931 C 0.25356 0.25672 0.79004 0.0
C932 C 0.27914 0.24288 0.83226 0.0
C933 C 0.27519 0.24886 0.88398 0.0
C934 C 0.19647 0.29181 0.75692 0.0
C935 C 0.3107 0.22165 0.82279 0.0
C936 C 0.2463 0.2157 0.66184 0.0
C937 C 0.26453 0.23933 0.62987 0.0
C938 C 0.24259 0.22097 0.71392 0.0
C939 C 0.25739 0.25067 0.73477 0.0
C940 C 0.27565 0.27472 0.70264 0.0
C941 C 0.27901 0.26877 0.65076 0.0
C942 C 0.22299 0.19462 0.74676 0.0
C943 C 0.29165 0.30683 0.72308 0.0
H944 H 0.19898 0.29788 0.86021 0.0
H945 H 0.29457 0.23772 0.91612 0.0
H946 H 0.20848 0.31007 0.72792 0.0
H947 H 0.18466 0.27056 0.73574 0.0
H948 H 0.17517 0.30627 0.77167 0.0
H949 H 0.32831 0.21281 0.85971 0.0
H950 H 0.30198 0.19821 0.80413 0.0
H951 H 0.326 0.23752 0.79521 0.0
H952 H 0.23541 0.19263 0.64645 0.0
H953 H 0.29274 0.28745 0.62627 0.0
H954 H 0.20046 0.20788 0.76023 0.0
H955 H 0.24051 0.18313 0.78241 0.0
H956 H 0.21295 0.17296 0.72479 0.0
H957 H 0.27092 0.32344 0.73522 0.0
H958 H 0.30513 0.32294 0.69326 0.0
H959 H 0.31093 0.29883 0.75841 0.0
C960 C 0.74505 0.29488 0.85274 0.0
C961 C 0.75849 0.26923 0.89423 0.0
C962 C 0.74367 0.28849 0.8002 0.0
C963 C 0.75619 0.25573 0.78885 0.0
C964 C 0.76981 0.22974 0.83048 0.0
C965 C 0.77072 0.23677 0.88266 0.0
C966 C 0.72895 0.31685 0.75683 0.0
C967 C 0.78337 0.19447 0.81988 0.0
C968 C 0.72416 0.22705 0.65609 0.0
C969 C 0.7527 0.23504 0.62811 0.0
C970 C 0.72496 0.2336 0.70847 0.0
C971 C 0.75498 0.24863 0.73337 0.0
C972 C 0.78384 0.25686 0.70529 0.0
C973 C 0.78238 0.24989 0.653 0.0
C974 C 0.69376 0.22432 0.73723 0.0
C975 C 0.81622 0.2731 0.73045 0.0
H976 H 0.73603 0.32021 0.8613 0.0
H977 H 0.78069 0.21665 0.9145 0.0
H978 H 0.74918 0.32426 0.73063 0.0
H979 H 0.70637 0.30688 0.73239 0.0
H980 H 0.72003 0.34079 0.7723 0.0
H981 H 0.79332 0.17718 0.85665 0.0
H982 H 0.76214 0.18095 0.79781 0.0
H983 H 0.80495 0.19812 0.79499 0.0
H984 H 0.70135 0.21515 0.6372 0.0
H985 H 0.80433 0.25647 0.6313 0.0
H986 H 0.68306 0.2481 0.75098 0.0
H987 H 0.70205 0.20515 0.7726 0.0
H988 H 0.67241 0.21285 0.71218 0.0
H989 H 0.80896 0.29841 0.74354 0.0
H990 H 0.83637 0.27795 0.70321 0.0
H991 H 0.82806 0.2556 0.7659 0.0
C992 C 0.76496 0.78818 0.3656 0.0
C993 C 0.74504 0.76548 0.39631 0.0
C994 C 0.76884 0.7831 0.31354 0.0
C995 C 0.75249 0.75458 0.29138 0.0
C996 C 0.73236 0.73157 0.32212 0.0
C997 C 0.72887 0.7373 0.37406 0.0
C998 C 0.79047 0.80831 0.2822 0.0
C999 C 0.71464 0.70074 0.30022 0.0
C1000 C 0.73814 0.75862 0.14167 0.0
C1001 C 0.76651 0.73775 0.13206 0.0
C1002 C 0.73309 0.76411 0.1932 0.0
C1003 C 0.757 0.74846 0.2364 0.0
C1004 C 0.78548 0.72716 0.22703 0.0
C1005 C 0.7898 0.72198 0.1752 0.0
C1006 C 0.70234 0.78696 0.2014 0.0
C1007 C 0.81157 0.70991 0.27181 0.0
H1008 H 0.77714 0.81032 0.38204 0.0
H1009 H 0.71378 0.71935 0.39756 0.0
H1010 H 0.81265 0.79384 0.26975 0.0
H1011 H 0.77417 0.82075 0.24595 0.0
H1012 H 0.80127 0.82932 0.30492 0.0
H1013 H 0.69947 0.68559 0.32884 0.0
H1014 H 0.69654 0.71003 0.26406 0.0
H1015 H 0.73462 0.68281 0.28901 0.0
H1016 H 0.72019 0.77127 0.10877 0.0
H1017 H 0.81143 0.70527 0.16852 0.0
H1018 H 0.71198 0.80991 0.22055 0.0
H1019 H 0.68576 0.77203 0.22809 0.0
H1020 H 0.68572 0.79664 0.16389 0.0
H1021 H 0.82447 0.73023 0.29389 0.0
H1022 H 0.83222 0.69401 0.25802 0.0
H1023 H 0.79777 0.69261 0.29977 0.0
C1024 C 0.47757 0.53315 0.61197 0.0
C1025 C 0.4885 0.50334 0.64778 0.0
C1026 C 0.48373 0.53531 0.55917 0.0
C1027 C 0.50145 0.50707 0.54185 0.0
C1028 C 0.51285 0.47707 0.57796 0.0
C1029 C 0.50618 0.47554 0.63042 0.0
C1030 C 0.47104 0.56768 0.5218 0.0
C1031 C 0.53208 0.44654 0.56116 0.0
C1032 C 0.4903 0.49747 0.39589 0.0
C1033 C 0.52146 0.51153 0.38023 0.0
C1034 C 0.48341 0.49592 0.4483 0.0
C1035 C 0.50817 0.5089 0.48599 0.0
C1036 C 0.53959 0.52323 0.47047 0.0
C1037 C 0.5459 0.52425 0.41791 0.0
C1038 C 0.44962 0.48038 0.46335 0.0
C1039 C 0.56667 0.5373 0.50948 0.0
H1040 H 0.46355 0.55454 0.62503 0.0
H1041 H 0.51508 0.45263 0.65808 0.0
H1042 H 0.4935 0.58008 0.50429 0.0
H1043 H 0.45232 0.56027 0.48898 0.0
H1044 H 0.45783 0.58739 0.5415 0.0
H1045 H 0.53933 0.4252 0.59412 0.0
H1046 H 0.51543 0.43556 0.52921 0.0
H1047 H 0.55639 0.45563 0.54523 0.0
H1048 H 0.47104 0.488 0.367 0.0
H1049 H 0.57031 0.53462 0.40648 0.0
H1050 H 0.43424 0.50009 0.47991 0.0
H1051 H 0.45555 0.45764 0.49438 0.0
H1052 H 0.43308 0.47146 0.42936 0.0
H1053 H 0.55457 0.55827 0.52804 0.0
H1054 H 0.58945 0.54817 0.49092 0.0
H1055 H 0.57642 0.51607 0.54138 0.0
C1056 C 0.03758 0.51447 0.90742 0.0
C1057 C 0.01823 0.49042 0.87965 0.0
C1058 C 0.03264 0.51851 0.9595 0.0
C1059 C 0.00764 0.49811 0.98467 0.0
C1060 C 0.98799 0.47382 0.95688 0.0
C1061 C 0.99353 0.47024 0.90488 0.0
C1062 C 0.05424 0.54464 0.98764 0.0
C1063 C 0.96092 0.4517 0.98199 0.0
C1064 C 0.01558 0.48727 0.13483 0.0
C1065 C 0.99071 0.51236 0.14393 0.0
C1066 C 0.02121 0.48218 0.08336 0.0
C1067 C 1.00158 0.50268 0.03968 0.0
C1068 C 0.97624 0.5278 0.04856 0.0
C1069 C 0.97105 0.53223 0.10035 0.0
C1070 C 0.04846 0.45508 0.07571 0.0
C1071 C 0.95464 0.55017 1.00327 0.0
H1072 H 0.05707 0.52983 0.88867 0.0
H1073 H 0.97813 0.4519 0.88366 0.0
H1074 H 0.03666 0.56465 0.99954 0.0
H1075 H 0.06947 0.5311 0.02408 0.0
H1076 H 0.07281 0.55827 0.96284 0.0
H1077 H 0.94817 0.43367 0.95544 0.0
H1078 H 0.97339 0.43586 0.01864 0.0
H1079 H 0.9403 0.46893 0.9931 0.0
H1080 H 0.03121 0.47203 0.16802 0.0
H1081 H 0.9513 0.55123 0.10669 0.0
H1082 H 0.06917 0.46796 0.05445 0.0
H1083 H 0.03621 0.4357 0.05116 0.0
H1084 H 0.06106 0.4408 0.11362 0.0
H1085 H 0.97222 0.56581 0.97907 0.0
H1086 H 0.9359 0.56844 0.01672 0.0
H1087 H 0.93959 0.53316 0.9774 0.0
loop_
_geom_bond_atom_site_label_1
_geom_bond_atom_site_label_2
_geom_bond_distance
_geom_bond_site_symmetry_2
_ccdc_geom_bond_type
Sm0 C2 2.846 1_655 S
Sm0 O20 2.543 1_565 S
Sm0 O21 2.450 1_655 S
Sm0 O22 2.681 1_655 S
Sm0 O23 2.464 1_655 S
Sm0 O24 2.396 1_665 S
Sm0 O28 2.386 1_565 S
Sm0 O31 2.408 . S
Sm1 C11 2.846 1_455 S
Sm1 O22 2.386 1_545 S
Sm1 O25 2.408 . S
Sm1 O26 2.543 1_545 S
Sm1 O27 2.450 1_455 S
Sm1 O28 2.681 1_455 S
Sm1 O29 2.464 1_455 S
Sm1 O30 2.396 1_445 S
C2 Sm0 2.846 1_455 S
C2 C3 1.506 . S
C2 O20 1.261 1_465 S
C2 O21 1.242 . S
C3 C2 1.506 . S
C3 C4 1.358 1_565 S
C3 C8 1.382 . S
C4 C3 1.358 1_545 S
C4 C5 1.385 . S
C4 H32 0.930 1_455 S
C5 C4 1.385 . S
C5 C6 1.403 . S
C5 H33 0.929 . S
C6 C5 1.403 . S
C6 C7 1.327 1_545 S
C7 C6 1.327 1_565 S
C7 C8 1.398 . S
C7 H34 0.930 . S
C8 C3 1.382 . S
C8 C7 1.398 . S
C8 H35 0.929 . S
C9 O22 1.271 . S
C9 O23 1.251 . S
C10 O24 1.252 . S
C10 O25 1.272 . S
C11 Sm1 2.846 1_655 S
C11 C12 1.506 . S
C11 O26 1.261 1_645 S
C11 O27 1.242 . S
C12 C11 1.506 . S
C12 C13 1.358 1_545 S
C12 C17 1.382 . S
C13 C12 1.358 1_565 S
C13 C14 1.385 . S
C13 H36 0.930 1_655 S
C14 C13 1.385 . S
C14 C15 1.397 . S
C14 H37 0.936 . S
C15 C14 1.397 . S
C15 C16 1.333 1_565 S
C16 C15 1.333 1_545 S
C16 C17 1.398 . S
C16 H38 0.930 . S
C17 C12 1.382 . S
C17 C16 1.398 . S
C17 H39 0.929 . S
C18 O28 1.271 . S
C18 O29 1.251 . S
C19 O30 1.252 . S
C19 O31 1.272 . S
O20 Sm0 2.543 1_545 S
O20 C2 1.261 1_645 S
O21 Sm0 2.450 1_455 S
O21 C2 1.242 . S
O22 Sm0 2.681 1_455 S
O22 Sm1 2.386 1_565 S
O22 C9 1.271 . S
O23 Sm0 2.464 1_455 S
O23 C9 1.251 . S
O24 Sm0 2.396 1_445 S
O24 C10 1.252 . S
O25 Sm1 2.408 . S
O25 C10 1.272 . S
O26 Sm1 2.543 1_565 S
O26 C11 1.261 1_465 S
O27 Sm1 2.450 1_655 S
O27 C11 1.242 . S
O28 Sm0 2.386 1_545 S
O28 Sm1 2.681 1_655 S
O28 C18 1.271 . S
O29 Sm1 2.464 1_655 S
O29 C18 1.251 . S
O30 Sm1 2.396 1_665 S
O30 C19 1.252 . S
O31 Sm0 2.408 . S
O31 C19 1.272 . S
H32 C4 0.930 1_655 S
H33 C5 0.929 . S
H34 C7 0.930 . S
H35 C8 0.929 . S
H36 C13 0.930 1_455 S
H37 C14 0.936 . S
H38 C16 0.930 . S
H39 C17 0.929 . S
Sm40 C42 2.846 . S
Sm40 O60 2.543 . S
Sm40 O61 2.450 . S
Sm40 O62 2.681 . S
Sm40 O63 2.464 . S
Sm40 O64 2.396 . S
Sm40 O68 2.386 . S
Sm40 O71 2.408 . S
Sm41 C51 2.846 . S
Sm41 O62 2.386 . S
Sm41 O65 2.408 . S
Sm41 O66 2.543 . S
Sm41 O67 2.450 . S
Sm41 O68 2.681 . S
Sm41 O69 2.464 . S
Sm41 O70 2.396 . S
C42 Sm40 2.846 . S
C42 C43 1.506 . S
C42 O60 1.261 . S
C42 O61 1.242 . S
C43 C42 1.506 . S
C43 C44 1.358 . S
C43 C48 1.382 . S
C44 C43 1.358 . S
C44 C45 1.385 1_556 S
C44 H72 0.930 . S
C45 C44 1.385 1_554 S
C45 C46 1.395 . S
C45 H73 0.929 . S
C46 C45 1.395 . S
C46 C47 1.335 . S
C47 C46 1.335 . S
C47 C48 1.398 1_554 S
C47 H74 0.930 . S
C48 C43 1.382 . S
C48 C47 1.398 1_556 S
C48 H75 0.929 . S
C49 O62 1.271 . S
C49 O63 1.251 . S
C50 O64 1.252 . S
C50 O65 1.272 . S
C51 Sm41 2.846 . S
C51 C52 1.506 . S
C51 O66 1.261 . S
C51 O67 1.242 . S
C52 C51 1.506 . S
C52 C53 1.358 . S
C52 C57 1.382 . S
C53 C52 1.358 . S
C53 C54 1.385 . S
C53 H76 0.930 . S
C54 C53 1.385 . S
C54 C55 1.395 . S
C54 H77 0.929 . S
C55 C54 1.395 . S
C55 C56 1.335 . S
C56 C55 1.335 . S
C56 C57 1.398 . S
C56 H78 0.930 . S
C57 C52 1.382 . S
C57 C56 1.398 . S
C57 H79 0.929 . S
C58 O68 1.271 . S
C58 O69 1.251 . S
C59 O70 1.252 . S
C59 O71 1.272 . S
O60 Sm40 2.543 . S
O60 C42 1.261 . S
O61 Sm40 2.450 . S
O61 C42 1.242 . S
O62 Sm40 2.681 . S
O62 Sm41 2.386 . S
O62 C49 1.271 . S
O63 Sm40 2.464 . S
O63 C49 1.251 . S
O64 Sm40 2.396 . S
O64 C50 1.252 . S
O65 Sm41 2.408 . S
O65 C50 1.272 . S
O66 Sm41 2.543 . S
O66 C51 1.261 . S
O67 Sm41 2.450 . S
O67 C51 1.242 . S
O68 Sm40 2.386 . S
O68 Sm41 2.681 . S
O68 C58 1.271 . S
O69 Sm41 2.464 . S
O69 C58 1.251 . S
O70 Sm41 2.396 . S
O70 C59 1.252 . S
O71 Sm40 2.408 . S
O71 C59 1.272 . S
H72 C44 0.930 . S
H73 C45 0.929 . S
H74 C47 0.930 . S
H75 C48 0.929 . S
H76 C53 0.930 . S
H77 C54 0.929 . S
H78 C56 0.930 . S
H79 C57 0.929 . S
Sm80 C82 2.846 . S
Sm80 O100 2.543 . S
Sm80 O101 2.450 . S
Sm80 O102 2.681 1_554 S
Sm80 O103 2.464 . S
Sm80 O104 2.396 1_565 S
Sm80 O108 2.386 1_565 S
Sm80 O111 2.408 . S
Sm81 C91 2.846 . S
Sm81 O102 2.386 1_545 S
Sm81 O105 2.408 . S
Sm81 O106 2.543 . S
Sm81 O107 2.450 . S
Sm81 O108 2.681 1_556 S
Sm81 O109 2.464 . S
Sm81 O110 2.396 1_545 S
C82 Sm80 2.846 . S
C82 C83 1.506 . S
C82 O100 1.261 . S
C82 O101 1.242 . S
C83 C82 1.506 . S
C83 C84 1.333 1_565 S
C83 C88 1.382 . S
C84 C83 1.333 1_545 S
C84 C85 1.391 . S
C84 H112 0.950 . S
C85 C84 1.391 . S
C85 C86 1.395 1_545 S
C85 H113 0.929 . S
C86 C85 1.395 1_565 S
C86 C87 1.335 . S
C87 C86 1.335 . S
C87 C88 1.398 . S
C87 H114 0.930 . S
C88 C83 1.382 . S
C88 C87 1.398 . S
C88 H115 0.929 . S
C89 O102 1.271 . S
C89 O103 1.251 1_556 S
C90 O104 1.252 . S
C90 O105 1.272 1_554 S
C91 Sm81 2.846 . S
C91 C92 1.506 . S
C91 O106 1.261 . S
C91 O107 1.242 . S
C92 C91 1.506 . S
C92 C93 1.340 1_545 S
C92 C97 1.382 . S
C93 C92 1.340 1_565 S
C93 C94 1.389 . S
C93 H116 0.945 . S
C94 C93 1.389 . S
C94 C95 1.395 1_565 S
C94 H117 0.929 . S
C95 C94 1.395 1_545 S
C95 C96 1.335 . S
C96 C95 1.335 . S
C96 C97 1.398 . S
C96 H118 0.930 . S
C97 C92 1.382 . S
C97 C96 1.398 . S
C97 H119 0.929 . S
C98 O108 1.271 . S
C98 O109 1.251 1_554 S
C99 O110 1.252 . S
C99 O111 1.272 1_556 S
O100 Sm80 2.543 . S
O100 C82 1.261 . S
O101 Sm80 2.450 . S
O101 C82 1.242 . S
O102 Sm80 2.681 1_556 S
O102 Sm81 2.386 1_565 S
O102 C89 1.271 . S
O103 Sm80 2.464 . S
O103 C89 1.251 1_554 S
O104 Sm80 2.396 1_545 S
O104 C90 1.252 . S
O105 Sm81 2.408 . S
O105 C90 1.272 1_556 S
O106 Sm81 2.543 . S
O106 C91 1.261 . S
O107 Sm81 2.450 . S
O107 C91 1.242 . S
O108 Sm80 2.386 1_545 S
O108 Sm81 2.681 1_554 S
O108 C98 1.271 . S
O109 Sm81 2.464 . S
O109 C98 1.251 1_556 S
O110 Sm81 2.396 1_565 S
O110 C99 1.252 . S
O111 Sm80 2.408 . S
O111 C99 1.272 1_554 S
H112 C84 0.950 . S
H113 C85 0.929 . S
H114 C87 0.930 . S
H115 C88 0.929 . S
H116 C93 0.945 . S
H117 C94 0.929 . S
H118 C96 0.930 . S
H119 C97 0.929 . S
Sm120 C122 2.846 . S
Sm120 O140 2.543 . S
Sm120 O141 2.450 . S
Sm120 O142 2.681 . S
Sm120 O143 2.464 . S
Sm120 O144 2.396 . S
Sm120 O148 2.386 . S
Sm120 O151 2.408 . S
Sm121 C131 2.846 . S
Sm121 O142 2.386 . S
Sm121 O145 2.408 . S
Sm121 O146 2.543 . S
Sm121 O147 2.450 . S
Sm121 O148 2.681 . S
Sm121 O149 2.464 . S
Sm121 O150 2.396 . S
C122 Sm120 2.846 . S
C122 C123 1.506 . S
C122 O140 1.261 . S
C122 O141 1.242 . S
C123 C122 1.506 . S
C123 C124 1.358 . S
C123 C128 1.382 . S
C124 C123 1.358 . S
C124 C125 1.385 1_554 S
C124 H152 0.930 . S
C125 C124 1.385 1_556 S
C125 C126 1.395 . S
C125 H153 0.929 . S
C126 C125 1.395 . S
C126 C127 1.335 . S
C127 C126 1.335 . S
C127 C128 1.398 1_556 S
C127 H154 0.930 . S
C128 C123 1.382 . S
C128 C127 1.398 1_554 S
C128 H155 0.929 . S
C129 O142 1.271 . S
C129 O143 1.251 . S
C130 O144 1.252 . S
C130 O145 1.272 . S
C131 Sm121 2.846 . S
C131 C132 1.506 . S
C131 O146 1.261 . S
C131 O147 1.242 . S
C132 C131 1.506 . S
C132 C133 1.358 . S
C132 C137 1.382 . S
C133 C132 1.358 . S
C133 C134 1.385 . S
C133 H156 0.930 . S
C134 C133 1.385 . S
C134 C135 1.395 . S
C134 H157 0.929 . S
C135 C134 1.395 . S
C135 C136 1.335 . S
C136 C135 1.335 . S
C136 C137 1.398 . S
C136 H158 0.930 . S
C137 C132 1.382 . S
C137 C136 1.398 . S
C137 H159 0.929 . S
C138 O148 1.271 . S
C138 O149 1.251 . S
C139 O150 1.252 . S
C139 O151 1.272 . S
O140 Sm120 2.543 . S
O140 C122 1.261 . S
O141 Sm120 2.450 . S
O141 C122 1.242 . S
O142 Sm120 2.681 . S
O142 Sm121 2.386 . S
O142 C129 1.271 . S
O143 Sm120 2.464 . S
O143 C129 1.251 . S
O144 Sm120 2.396 . S
O144 C130 1.252 . S
O145 Sm121 2.408 . S
O145 C130 1.272 . S
O146 Sm121 2.543 . S
O146 C131 1.261 . S
O147 Sm121 2.450 . S
O147 C131 1.242 . S
O148 Sm120 2.386 . S
O148 Sm121 2.681 . S
O148 C138 1.271 . S
O149 Sm121 2.464 . S
O149 C138 1.251 . S
O150 Sm121 2.396 . S
O150 C139 1.252 . S
O151 Sm120 2.408 . S
O151 C139 1.272 . S
H152 C124 0.930 . S
H153 C125 0.929 . S
H154 C127 0.930 . S
H155 C128 0.929 . S
H156 C133 0.930 . S
H157 C134 0.929 . S
H158 C136 0.930 . S
H159 C137 0.929 . S
Sm160 C162 2.846 . S
Sm160 O180 2.543 . S
Sm160 O181 2.450 . S
Sm160 O182 2.681 . S
Sm160 O183 2.464 . S
Sm160 O184 2.396 . S
Sm160 O188 2.386 . S
Sm160 O191 2.408 . S
Sm161 C171 2.846 . S
Sm161 O182 2.386 . S
Sm161 O185 2.408 . S
Sm161 O186 2.543 . S
Sm161 O187 2.450 . S
Sm161 O188 2.681 . S
Sm161 O189 2.464 . S
Sm161 O190 2.396 . S
C162 Sm160 2.846 . S
C162 C163 1.506 . S
C162 O180 1.261 . S
C162 O181 1.242 . S
C163 C162 1.506 . S
C163 C164 1.358 . S
C163 C168 1.382 . S
C164 C163 1.358 . S
C164 C165 1.385 . S
C164 H192 0.930 . S
C165 C164 1.385 . S
C165 C166 1.395 . S
C165 H193 0.929 . S
C166 C165 1.395 . S
C166 C167 1.335 . S
C167 C166 1.335 . S
C167 C168 1.398 . S
C167 H194 0.930 . S
C168 C163 1.382 . S
C168 C167 1.398 . S
C168 H195 0.929 . S
C169 O182 1.271 . S
C169 O183 1.251 . S
C170 O184 1.252 . S
C170 O185 1.272 . S
C171 Sm161 2.846 . S
C171 C172 1.506 . S
C171 O186 1.261 . S
C171 O187 1.242 . S
C172 C171 1.506 . S
C172 C173 1.358 . S
C172 C177 1.382 . S
C173 C172 1.358 . S
C173 C174 1.385 1_554 S
C173 H196 0.930 . S
C174 C173 1.385 1_556 S
C174 C175 1.395 . S
C174 H197 0.929 . S
C175 C174 1.395 . S
C175 C176 1.335 . S
C176 C175 1.335 . S
C176 C177 1.398 1_556 S
C176 H198 0.930 . S
C177 C172 1.382 . S
C177 C176 1.398 1_554 S
C177 H199 0.929 . S
C178 O188 1.271 . S
C178 O189 1.251 . S
C179 O190 1.252 . S
C179 O191 1.272 . S
O180 Sm160 2.543 . S
O180 C162 1.261 . S
O181 Sm160 2.450 . S
O181 C162 1.242 . S
O182 Sm160 2.681 . S
O182 Sm161 2.386 . S
O182 C169 1.271 . S
O183 Sm160 2.464 . S
O183 C169 1.251 . S
O184 Sm160 2.396 . S
O184 C170 1.252 . S
O185 Sm161 2.408 . S
O185 C170 1.272 . S
O186 Sm161 2.543 . S
O186 C171 1.261 . S
O187 Sm161 2.450 . S
O187 C171 1.242 . S
O188 Sm160 2.386 . S
O188 Sm161 2.681 . S
O188 C178 1.271 . S
O189 Sm161 2.464 . S
O189 C178 1.251 . S
O190 Sm161 2.396 . S
O190 C179 1.252 . S
O191 Sm160 2.408 . S
O191 C179 1.272 . S
H192 C164 0.930 . S
H193 C165 0.929 . S
H194 C167 0.930 . S
H195 C168 0.929 . S
H196 C173 0.930 . S
H197 C174 0.929 . S
H198 C176 0.930 . S
H199 C177 0.929 . S
Sm200 C202 2.846 . S
Sm200 O220 2.543 . S
Sm200 O221 2.450 . S
Sm200 O222 2.681 . S
Sm200 O223 2.464 . S
Sm200 O224 2.396 . S
Sm200 O228 2.386 . S
Sm200 O231 2.408 . S
Sm201 C211 2.846 . S
Sm201 O222 2.386 . S
Sm201 O225 2.408 . S
Sm201 O226 2.543 . S
Sm201 O227 2.450 . S
Sm201 O228 2.681 . S
Sm201 O229 2.464 . S
Sm201 O230 2.396 . S
C202 Sm200 2.846 . S
C202 C203 1.506 . S
C202 O220 1.261 . S
C202 O221 1.242 . S
C203 C202 1.506 . S
C203 C204 1.358 . S
C203 C208 1.382 . S
C204 C203 1.358 . S
C204 C205 1.385 . S
C204 H232 0.930 . S
C205 C204 1.385 . S
C205 C206 1.395 . S
C205 H233 0.929 . S
C206 C205 1.395 . S
C206 C207 1.335 . S
C207 C206 1.335 . S
C207 C208 1.398 . S
C207 H234 0.930 . S
C208 C203 1.382 . S
C208 C207 1.398 . S
C208 H235 0.929 . S
C209 O222 1.271 . S
C209 O223 1.251 . S
C210 O224 1.252 . S
C210 O225 1.272 . S
C211 Sm201 2.846 . S
C211 C212 1.506 . S
C211 O226 1.261 . S
C211 O227 1.242 . S
C212 C211 1.506 . S
C212 C213 1.358 . S
C212 C217 1.382 . S
C213 C212 1.358 . S
C213 C214 1.385 1_556 S
C213 H236 0.930 . S
C214 C213 1.385 1_554 S
C214 C215 1.395 . S
C214 H237 0.929 . S
C215 C214 1.395 . S
C215 C216 1.335 . S
C216 C215 1.335 . S
C216 C217 1.398 1_554 S
C216 H238 0.930 . S
C217 C212 1.382 . S
C217 C216 1.398 1_556 S
C217 H239 0.929 . S
C218 O228 1.271 . S
C218 O229 1.251 . S
C219 O230 1.252 . S
C219 O231 1.272 . S
O220 Sm200 2.543 . S
O220 C202 1.261 . S
O221 Sm200 2.450 . S
O221 C202 1.242 . S
O222 Sm200 2.681 . S
O222 Sm201 2.386 . S
O222 C209 1.271 . S
O223 Sm200 2.464 . S
O223 C209 1.251 . S
O224 Sm200 2.396 . S
O224 C210 1.252 . S
O225 Sm201 2.408 . S
O225 C210 1.272 . S
O226 Sm201 2.543 . S
O226 C211 1.261 . S
O227 Sm201 2.450 . S
O227 C211 1.242 . S
O228 Sm200 2.386 . S
O228 Sm201 2.681 . S
O228 C218 1.271 . S
O229 Sm201 2.464 . S
O229 C218 1.251 . S
O230 Sm201 2.396 . S
O230 C219 1.252 . S
O231 Sm200 2.408 . S
O231 C219 1.272 . S
H232 C204 0.930 . S
H233 C205 0.929 . S
H234 C207 0.930 . S
H235 C208 0.929 . S
H236 C213 0.930 . S
H237 C214 0.929 . S
H238 C216 0.930 . S
H239 C217 0.929 . S
Sm240 C242 2.846 . S
Sm240 O260 2.543 . S
Sm240 O261 2.450 . S
Sm240 O262 2.681 1_556 S
Sm240 O263 2.464 . S
Sm240 O264 2.396 . S
Sm240 O268 2.386 . S
Sm240 O271 2.408 1_556 S
Sm241 C251 2.846 . S
Sm241 O262 2.386 . S
Sm241 O265 2.408 1_554 S
Sm241 O266 2.543 . S
Sm241 O267 2.450 . S
Sm241 O268 2.681 1_554 S
Sm241 O269 2.464 . S
Sm241 O270 2.396 . S
C242 Sm240 2.846 . S
C242 C243 1.506 . S
C242 O260 1.261 . S
C242 O261 1.242 . S
C243 C242 1.506 . S
C243 C244 1.358 . S
C243 C248 1.382 . S
C244 C243 1.358 . S
C244 C245 1.385 . S
C244 H272 0.930 . S
C245 C244 1.385 . S
C245 C246 1.395 . S
C245 H273 0.929 . S
C246 C245 1.395 . S
C246 C247 1.335 . S
C247 C246 1.335 . S
C247 C248 1.398 . S
C247 H274 0.930 . S
C248 C243 1.382 . S
C248 C247 1.398 . S
C248 H275 0.929 . S
C249 O262 1.271 . S
C249 O263 1.251 1_554 S
C250 O264 1.252 . S
C250 O265 1.272 . S
C251 Sm241 2.846 . S
C251 C252 1.506 . S
C251 O266 1.261 . S
C251 O267 1.242 . S
C252 C251 1.506 . S
C252 C253 1.358 . S
C252 C257 1.382 . S
C253 C252 1.358 . S
C253 C254 1.385 . S
C253 H276 0.930 . S
C254 C253 1.385 . S
C254 C255 1.395 . S
C254 H277 0.929 . S
C255 C254 1.395 . S
C255 C256 1.335 . S
C256 C255 1.335 . S
C256 C257 1.398 . S
C256 H278 0.930 . S
C257 C252 1.382 . S
C257 C256 1.398 . S
C257 H279 0.929 . S
C258 O268 1.271 . S
C258 O269 1.251 1_556 S
C259 O270 1.252 . S
C259 O271 1.272 . S
O260 Sm240 2.543 . S
O260 C242 1.261 . S
O261 Sm240 2.450 . S
O261 C242 1.242 . S
O262 Sm240 2.681 1_554 S
O262 Sm241 2.386 . S
O262 C249 1.271 . S
O263 Sm240 2.464 . S
O263 C249 1.251 1_556 S
O264 Sm240 2.396 . S
O264 C250 1.252 . S
O265 Sm241 2.408 1_556 S
O265 C250 1.272 . S
O266 Sm241 2.543 . S
O266 C251 1.261 . S
O267 Sm241 2.450 . S
O267 C251 1.242 . S
O268 Sm240 2.386 . S
O268 Sm241 2.681 1_556 S
O268 C258 1.271 . S
O269 Sm241 2.464 . S
O269 C258 1.251 1_554 S
O270 Sm241 2.396 . S
O270 C259 1.252 . S
O271 Sm240 2.408 1_554 S
O271 C259 1.272 . S
H272 C244 0.930 . S
H273 C245 0.929 . S
H274 C247 0.930 . S
H275 C248 0.929 . S
H276 C253 0.930 . S
H277 C254 0.929 . S
H278 C256 0.930 . S
H279 C257 0.929 . S
Sm280 C282 2.846 1_455 S
Sm280 O300 2.543 . S
Sm280 O301 2.450 1_455 S
Sm280 O302 2.681 1_455 S
Sm280 O303 2.464 1_455 S
Sm280 O304 2.396 1_455 S
Sm280 O308 2.386 . S
Sm280 O311 2.408 . S
Sm281 C291 2.846 1_655 S
Sm281 O302 2.386 . S
Sm281 O305 2.408 . S
Sm281 O306 2.543 . S
Sm281 O307 2.450 1_655 S
Sm281 O308 2.681 1_655 S
Sm281 O309 2.464 1_655 S
Sm281 O310 2.396 1_655 S
C282 Sm280 2.846 1_655 S
C282 C283 1.506 . S
C282 O300 1.261 1_655 S
C282 O301 1.242 . S
C283 C282 1.506 . S
C283 C284 1.358 . S
C283 C288 1.382 . S
C284 C283 1.358 . S
C284 C285 1.385 . S
C284 H312 0.930 1_655 S
C285 C284 1.385 . S
C285 C286 1.395 . S
C285 H313 0.929 . S
C286 C285 1.395 . S
C286 C287 1.335 . S
C287 C286 1.335 . S
C287 C288 1.398 . S
C287 H314 0.930 . S
C288 C283 1.382 . S
C288 C287 1.398 . S
C288 H315 0.929 . S
C289 O302 1.271 . S
C289 O303 1.251 . S
C290 O304 1.252 . S
C290 O305 1.272 . S
C291 Sm281 2.846 1_455 S
C291 C292 1.506 . S
C291 O306 1.261 1_455 S
C291 O307 1.242 . S
C292 C291 1.506 . S
C292 C293 1.358 . S
C292 C297 1.382 . S
C293 C292 1.358 . S
C293 C294 1.385 . S
C293 H316 0.930 1_455 S
C294 C293 1.385 . S
C294 C295 1.395 . S
C294 H317 0.929 . S
C295 C294 1.395 . S
C295 C296 1.335 . S
C296 C295 1.335 . S
C296 C297 1.398 . S
C296 H318 0.930 . S
C297 C292 1.382 . S
C297 C296 1.398 . S
C297 H319 0.929 . S
C298 O308 1.271 . S
C298 O309 1.251 . S
C299 O310 1.252 . S
C299 O311 1.272 . S
O300 Sm280 2.543 . S
O300 C282 1.261 1_455 S
O301 Sm280 2.450 1_655 S
O301 C282 1.242 . S
O302 Sm280 2.681 1_655 S
O302 Sm281 2.386 . S
O302 C289 1.271 . S
O303 Sm280 2.464 1_655 S
O303 C289 1.251 . S
O304 Sm280 2.396 1_655 S
O304 C290 1.252 . S
O305 Sm281 2.408 . S
O305 C290 1.272 . S
O306 Sm281 2.543 . S
O306 C291 1.261 1_655 S
O307 Sm281 2.450 1_455 S
O307 C291 1.242 . S
O308 Sm280 2.386 . S
O308 Sm281 2.681 1_455 S
O308 C298 1.271 . S
O309 Sm281 2.464 1_455 S
O309 C298 1.251 . S
O310 Sm281 2.396 1_455 S
O310 C299 1.252 . S
O311 Sm280 2.408 . S
O311 C299 1.272 . S
H312 C284 0.930 1_455 S
H313 C285 0.929 . S
H314 C287 0.930 . S
H315 C288 0.929 . S
H316 C293 0.930 1_655 S
H317 C294 0.929 . S
H318 C296 0.930 . S
H319 C297 0.929 . S
C320 C321 1.391 . S
C320 C322 1.394 . S
C320 H336 0.931 . S
C321 C320 1.391 . S
C321 C325 1.376 . S
C322 C320 1.394 . S
C322 C323 1.369 . S
C322 C326 1.531 . S
C323 C322 1.369 . S
C323 C324 1.410 . S
C323 C331 1.503 . S
C324 C323 1.410 . S
C324 C325 1.392 . S
C324 C327 1.511 . S
C325 C321 1.376 . S
C325 C324 1.392 . S
C325 H337 0.929 . S
C326 C322 1.531 . S
C326 H338 0.960 . S
C326 H339 0.962 . S
C326 H340 0.960 . S
C327 C324 1.511 . S
C327 H341 0.961 . S
C327 H342 0.961 . S
C327 H343 0.961 . S
C328 C329 1.370 . S
C328 C330 1.363 . S
C328 H344 0.931 . S
C329 C328 1.370 . S
C329 C333 1.408 . S
C330 C328 1.363 . S
C330 C331 1.370 . S
C330 C334 1.524 . S
C331 C323 1.503 . S
C331 C330 1.370 . S
C331 C332 1.403 . S
C332 C331 1.403 . S
C332 C333 1.404 . S
C332 C335 1.539 . S
C333 C329 1.408 . S
C333 C332 1.404 . S
C333 H345 0.930 . S
C334 C330 1.524 . S
C334 H346 0.956 . S
C334 H347 0.961 . S
C334 H348 0.961 . S
C335 C332 1.539 . S
C335 H349 0.958 . S
C335 H350 0.961 . S
C335 H351 0.960 . S
H336 C320 0.931 . S
H337 C325 0.929 . S
H338 C326 0.960 . S
H339 C326 0.962 . S
H340 C326 0.960 . S
H341 C327 0.961 . S
H342 C327 0.961 . S
H343 C327 0.961 . S
H344 C328 0.931 . S
H345 C333 0.930 . S
H346 C334 0.956 . S
H347 C334 0.961 . S
H348 C334 0.961 . S
H349 C335 0.958 . S
H350 C335 0.961 . S
H351 C335 0.960 . S
C352 C353 1.391 . S
C352 C354 1.394 . S
C352 H368 0.931 . S
C353 C352 1.391 . S
C353 C357 1.376 . S
C354 C352 1.394 . S
C354 C355 1.369 . S
C354 C358 1.531 . S
C355 C354 1.369 . S
C355 C356 1.410 . S
C355 C363 1.503 . S
C356 C355 1.410 . S
C356 C357 1.392 . S
C356 C359 1.511 . S
C357 C353 1.376 . S
C357 C356 1.392 . S
C357 H369 0.929 . S
C358 C354 1.531 . S
C358 H370 0.960 . S
C358 H371 0.962 . S
C358 H372 0.960 . S
C359 C356 1.511 . S
C359 H373 0.961 . S
C359 H374 0.961 . S
C359 H375 0.961 . S
C360 C361 1.370 . S
C360 C362 1.363 . S
C360 H376 0.931 . S
C361 C360 1.370 . S
C361 C365 1.408 . S
C362 C360 1.363 . S
C362 C363 1.370 . S
C362 C366 1.524 . S
C363 C355 1.503 . S
C363 C362 1.370 . S
C363 C364 1.403 . S
C364 C363 1.403 . S
C364 C365 1.404 . S
C364 C367 1.539 . S
C365 C361 1.408 . S
C365 C364 1.404 . S
C365 H377 0.930 . S
C366 C362 1.524 . S
C366 H378 0.956 . S
C366 H379 0.961 . S
C366 H380 0.961 . S
C367 C364 1.539 . S
C367 H381 0.958 . S
C367 H382 0.961 . S
C367 H383 0.960 . S
H368 C352 0.931 . S
H369 C357 0.929 . S
H370 C358 0.960 . S
H371 C358 0.962 . S
H372 C358 0.960 . S
H373 C359 0.961 . S
H374 C359 0.961 . S
H375 C359 0.961 . S
H376 C360 0.931 . S
H377 C365 0.930 . S
H378 C366 0.956 . S
H379 C366 0.961 . S
H380 C366 0.961 . S
H381 C367 0.958 . S
H382 C367 0.961 . S
H383 C367 0.960 . S
C384 C385 1.391 . S
C384 C386 1.394 . S
C384 H400 0.931 . S
C385 C384 1.391 . S
C385 C389 1.376 . S
C386 C384 1.394 . S
C386 C387 1.369 . S
C386 C390 1.531 . S
C387 C386 1.369 . S
C387 C388 1.410 . S
C387 C395 1.503 . S
C388 C387 1.410 . S
C388 C389 1.392 . S
C388 C391 1.511 . S
C389 C385 1.376 . S
C389 C388 1.392 . S
C389 H401 0.929 . S
C390 C386 1.531 . S
C390 H402 0.960 . S
C390 H403 0.962 . S
C390 H404 0.960 . S
C391 C388 1.511 . S
C391 H405 0.961 . S
C391 H406 0.961 . S
C391 H407 0.961 . S
C392 C393 1.370 . S
C392 C394 1.363 . S
C392 H408 0.931 . S
C393 C392 1.370 . S
C393 C397 1.408 . S
C394 C392 1.363 . S
C394 C395 1.370 . S
C394 C398 1.524 . S
C395 C387 1.503 . S
C395 C394 1.370 . S
C395 C396 1.403 . S
C396 C395 1.403 . S
C396 C397 1.404 . S
C396 C399 1.539 . S
C397 C393 1.408 . S
C397 C396 1.404 . S
C397 H409 0.930 . S
C398 C394 1.524 . S
C398 H410 0.956 . S
C398 H411 0.961 . S
C398 H412 0.961 . S
C399 C396 1.539 . S
C399 H413 0.958 . S
C399 H414 0.961 . S
C399 H415 0.960 . S
H400 C384 0.931 . S
H401 C389 0.929 . S
H402 C390 0.960 . S
H403 C390 0.962 . S
H404 C390 0.960 . S
H405 C391 0.961 . S
H406 C391 0.961 . S
H407 C391 0.961 . S
H408 C392 0.931 . S
H409 C397 0.930 . S
H410 C398 0.956 . S
H411 C398 0.961 . S
H412 C398 0.961 . S
H413 C399 0.958 . S
H414 C399 0.961 . S
H415 C399 0.960 . S
C416 C417 1.391 . S
C416 C418 1.394 . S
C416 H432 0.931 . S
C417 C416 1.391 . S
C417 C421 1.376 . S
C418 C416 1.394 . S
C418 C419 1.369 . S
C418 C422 1.531 . S
C419 C418 1.369 . S
C419 C420 1.410 . S
C419 C427 1.503 . S
C420 C419 1.410 . S
C420 C421 1.392 . S
C420 C423 1.511 . S
C421 C417 1.376 . S
C421 C420 1.392 . S
C421 H433 0.929 . S
C422 C418 1.531 . S
C422 H434 0.960 . S
C422 H435 0.962 . S
C422 H436 0.960 . S
C423 C420 1.511 . S
C423 H437 0.961 . S
C423 H438 0.961 . S
C423 H439 0.961 . S
C424 C425 1.370 . S
C424 C426 1.363 . S
C424 H440 0.931 . S
C425 C424 1.370 . S
C425 C429 1.408 . S
C426 C424 1.363 . S
C426 C427 1.370 . S
C426 C430 1.524 . S
C427 C419 1.503 . S
C427 C426 1.370 . S
C427 C428 1.403 . S
C428 C427 1.403 . S
C428 C429 1.404 . S
C428 C431 1.539 . S
C429 C425 1.408 . S
C429 C428 1.404 . S
C429 H441 0.930 . S
C430 C426 1.524 . S
C430 H442 0.956 . S
C430 H443 0.961 . S
C430 H444 0.961 . S
C431 C428 1.539 . S
C431 H445 0.958 . S
C431 H446 0.961 . S
C431 H447 0.960 . S
H432 C416 0.931 . S
H433 C421 0.929 . S
H434 C422 0.960 . S
H435 C422 0.962 . S
H436 C422 0.960 . S
H437 C423 0.961 . S
H438 C423 0.961 . S
H439 C423 0.961 . S
H440 C424 0.931 . S
H441 C429 0.930 . S
H442 C430 0.956 . S
H443 C430 0.961 . S
H444 C430 0.961 . S
H445 C431 0.958 . S
H446 C431 0.961 . S
H447 C431 0.960 . S
C448 C449 1.391 . S
C448 C450 1.394 . S
C448 H464 0.931 . S
C449 C448 1.391 . S
C449 C453 1.376 . S
C450 C448 1.394 . S
C450 C451 1.369 . S
C450 C454 1.531 . S
C451 C450 1.369 . S
C451 C452 1.410 . S
C451 C459 1.503 . S
C452 C451 1.410 . S
C452 C453 1.392 . S
C452 C455 1.511 . S
C453 C449 1.376 . S
C453 C452 1.392 . S
C453 H465 0.929 . S
C454 C450 1.531 . S
C454 H466 0.960 . S
C454 H467 0.962 . S
C454 H468 0.960 . S
C455 C452 1.511 . S
C455 H469 0.961 . S
C455 H470 0.961 . S
C455 H471 0.961 . S
C456 C457 1.370 . S
C456 C458 1.363 . S
C456 H472 0.931 . S
C457 C456 1.370 . S
C457 C461 1.408 . S
C458 C456 1.363 . S
C458 C459 1.370 . S
C458 C462 1.524 . S
C459 C451 1.503 . S
C459 C458 1.370 . S
C459 C460 1.403 . S
C460 C459 1.403 . S
C460 C461 1.404 . S
C460 C463 1.539 . S
C461 C457 1.408 . S
C461 C460 1.404 . S
C461 H473 0.930 . S
C462 C458 1.524 . S
C462 H474 0.956 . S
C462 H475 0.961 . S
C462 H476 0.961 . S
C463 C460 1.539 . S
C463 H477 0.958 . S
C463 H478 0.961 . S
C463 H479 0.960 . S
H464 C448 0.931 . S
H465 C453 0.929 . S
H466 C454 0.960 . S
H467 C454 0.962 . S
H468 C454 0.960 . S
H469 C455 0.961 . S
H470 C455 0.961 . S
H471 C455 0.961 . S
H472 C456 0.931 . S
H473 C461 0.930 . S
H474 C462 0.956 . S
H475 C462 0.961 . S
H476 C462 0.961 . S
H477 C463 0.958 . S
H478 C463 0.961 . S
H479 C463 0.960 . S
C480 C481 1.391 . S
C480 C482 1.394 . S
C480 H496 0.931 . S
C481 C480 1.391 . S
C481 C485 1.376 . S
C482 C480 1.394 . S
C482 C483 1.369 . S
C482 C486 1.531 . S
C483 C482 1.369 . S
C483 C484 1.410 . S
C483 C491 1.503 . S
C484 C483 1.410 . S
C484 C485 1.392 . S
C484 C487 1.511 . S
C485 C481 1.376 . S
C485 C484 1.392 . S
C485 H497 0.929 . S
C486 C482 1.531 . S
C486 H498 0.960 . S
C486 H499 0.962 . S
C486 H500 0.960 . S
C487 C484 1.511 . S
C487 H501 0.961 . S
C487 H502 0.961 . S
C487 H503 0.961 . S
C488 C489 1.370 . S
C488 C490 1.363 . S
C488 H504 0.931 . S
C489 C488 1.370 . S
C489 C493 1.408 . S
C490 C488 1.363 . S
C490 C491 1.370 . S
C490 C494 1.524 . S
C491 C483 1.503 . S
C491 C490 1.370 . S
C491 C492 1.403 . S
C492 C491 1.403 . S
C492 C493 1.404 . S
C492 C495 1.539 . S
C493 C489 1.408 . S
C493 C492 1.404 . S
C493 H505 0.930 . S
C494 C490 1.524 . S
C494 H506 0.956 . S
C494 H507 0.961 . S
C494 H508 0.961 . S
C495 C492 1.539 . S
C495 H509 0.958 . S
C495 H510 0.961 . S
C495 H511 0.960 . S
H496 C480 0.931 . S
H497 C485 0.929 . S
H498 C486 0.960 . S
H499 C486 0.962 . S
H500 C486 0.960 . S
H501 C487 0.961 . S
H502 C487 0.961 . S
H503 C487 0.961 . S
H504 C488 0.931 . S
H505 C493 0.930 . S
H506 C494 0.956 . S
H507 C494 0.961 . S
H508 C494 0.961 . S
H509 C495 0.958 . S
H510 C495 0.961 . S
H511 C495 0.960 . S
C512 C513 1.391 . S
C512 C514 1.394 . S
C512 H528 0.931 . S
C513 C512 1.391 . S
C513 C517 1.376 . S
C514 C512 1.394 . S
C514 C515 1.369 . S
C514 C518 1.531 . S
C515 C514 1.369 . S
C515 C516 1.410 . S
C515 C523 1.503 . S
C516 C515 1.410 . S
C516 C517 1.392 . S
C516 C519 1.511 . S
C517 C513 1.376 . S
C517 C516 1.392 . S
C517 H529 0.929 . S
C518 C514 1.531 . S
C518 H530 0.960 . S
C518 H531 0.962 . S
C518 H532 0.960 . S
C519 C516 1.511 . S
C519 H533 0.961 . S
C519 H534 0.961 . S
C519 H535 0.961 . S
C520 C521 1.370 . S
C520 C522 1.363 . S
C520 H536 0.931 . S
C521 C520 1.370 . S
C521 C525 1.408 . S
C522 C520 1.363 . S
C522 C523 1.370 . S
C522 C526 1.524 . S
C523 C515 1.503 . S
C523 C522 1.370 . S
C523 C524 1.403 . S
C524 C523 1.403 . S
C524 C525 1.404 . S
C524 C527 1.539 . S
C525 C521 1.408 . S
C525 C524 1.404 . S
C525 H537 0.930 . S
C526 C522 1.524 . S
C526 H538 0.956 . S
C526 H539 0.961 . S
C526 H540 0.961 . S
C527 C524 1.539 . S
C527 H541 0.958 . S
C527 H542 0.961 . S
C527 H543 0.960 . S
H528 C512 0.931 . S
H529 C517 0.929 . S
H530 C518 0.960 . S
H531 C518 0.962 . S
H532 C518 0.960 . S
H533 C519 0.961 . S
H534 C519 0.961 . S
H535 C519 0.961 . S
H536 C520 0.931 . S
H537 C525 0.930 . S
H538 C526 0.956 . S
H539 C526 0.961 . S
H540 C526 0.961 . S
H541 C527 0.958 . S
H542 C527 0.961 . S
H543 C527 0.960 . S
C544 C545 1.391 . S
C544 C546 1.394 . S
C544 H560 0.931 . S
C545 C544 1.391 . S
C545 C549 1.376 . S
C546 C544 1.394 . S
C546 C547 1.369 . S
C546 C550 1.531 . S
C547 C546 1.369 . S
C547 C548 1.410 . S
C547 C555 1.503 . S
C548 C547 1.410 . S
C548 C549 1.392 . S
C548 C551 1.511 . S
C549 C545 1.376 . S
C549 C548 1.392 . S
C549 H561 0.929 . S
C550 C546 1.531 . S
C550 H562 0.960 . S
C550 H563 0.962 . S
C550 H564 0.960 . S
C551 C548 1.511 . S
C551 H565 0.961 . S
C551 H566 0.961 . S
C551 H567 0.961 . S
C552 C553 1.370 . S
C552 C554 1.363 . S
C552 H568 0.931 . S
C553 C552 1.370 . S
C553 C557 1.408 . S
C554 C552 1.363 . S
C554 C555 1.370 . S
C554 C558 1.524 . S
C555 C547 1.503 . S
C555 C554 1.370 . S
C555 C556 1.403 . S
C556 C555 1.403 . S
C556 C557 1.404 . S
C556 C559 1.539 . S
C557 C553 1.408 . S
C557 C556 1.404 . S
C557 H569 0.930 . S
C558 C554 1.524 . S
C558 H570 0.956 . S
C558 H571 0.961 . S
C558 H572 0.961 . S
C559 C556 1.539 . S
C559 H573 0.958 . S
C559 H574 0.961 . S
C559 H575 0.960 . S
H560 C544 0.931 . S
H561 C549 0.929 . S
H562 C550 0.960 . S
H563 C550 0.962 . S
H564 C550 0.960 . S
H565 C551 0.961 . S
H566 C551 0.961 . S
H567 C551 0.961 . S
H568 C552 0.931 . S
H569 C557 0.930 . S
H570 C558 0.956 . S
H571 C558 0.961 . S
H572 C558 0.961 . S
H573 C559 0.958 . S
H574 C559 0.961 . S
H575 C559 0.960 . S
C576 C577 1.391 . S
C576 C578 1.394 . S
C576 H592 0.931 . S
C577 C576 1.391 . S
C577 C581 1.376 . S
C578 C576 1.394 . S
C578 C579 1.369 . S
C578 C582 1.531 . S
C579 C578 1.369 . S
C579 C580 1.410 . S
C579 C587 1.503 . S
C580 C579 1.410 . S
C580 C581 1.392 . S
C580 C583 1.511 . S
C581 C577 1.376 . S
C581 C580 1.392 . S
C581 H593 0.929 . S
C582 C578 1.531 . S
C582 H594 0.960 . S
C582 H595 0.962 . S
C582 H596 0.960 . S
C583 C580 1.511 . S
C583 H597 0.961 . S
C583 H598 0.961 . S
C583 H599 0.961 . S
C584 C585 1.370 . S
C584 C586 1.363 . S
C584 H600 0.931 . S
C585 C584 1.370 . S
C585 C589 1.408 . S
C586 C584 1.363 . S
C586 C587 1.370 . S
C586 C590 1.524 . S
C587 C579 1.503 . S
C587 C586 1.370 . S
C587 C588 1.403 . S
C588 C587 1.403 . S
C588 C589 1.404 . S
C588 C591 1.539 . S
C589 C585 1.408 . S
C589 C588 1.404 . S
C589 H601 0.930 . S
C590 C586 1.524 . S
C590 H602 0.956 . S
C590 H603 0.961 . S
C590 H604 0.961 . S
C591 C588 1.539 . S
C591 H605 0.958 . S
C591 H606 0.961 . S
C591 H607 0.960 . S
H592 C576 0.931 . S
H593 C581 0.929 . S
H594 C582 0.960 . S
H595 C582 0.962 . S
H596 C582 0.960 . S
H597 C583 0.961 . S
H598 C583 0.961 . S
H599 C583 0.961 . S
H600 C584 0.931 . S
H601 C589 0.930 . S
H602 C590 0.956 . S
H603 C590 0.961 . S
H604 C590 0.961 . S
H605 C591 0.958 . S
H606 C591 0.961 . S
H607 C591 0.960 . S
C608 C609 1.391 . S
C608 C610 1.394 . S
C608 H624 0.931 . S
C609 C608 1.391 . S
C609 C613 1.376 . S
C610 C608 1.394 . S
C610 C611 1.369 . S
C610 C614 1.531 . S
C611 C610 1.369 . S
C611 C612 1.410 . S
C611 C619 1.503 . S
C612 C611 1.410 . S
C612 C613 1.392 . S
C612 C615 1.511 . S
C613 C609 1.376 . S
C613 C612 1.392 . S
C613 H625 0.929 . S
C614 C610 1.531 . S
C614 H626 0.960 . S
C614 H627 0.962 . S
C614 H628 0.960 . S
C615 C612 1.511 . S
C615 H629 0.961 . S
C615 H630 0.961 . S
C615 H631 0.961 . S
C616 C617 1.370 . S
C616 C618 1.363 . S
C616 H632 0.931 . S
C617 C616 1.370 . S
C617 C621 1.408 . S
C618 C616 1.363 . S
C618 C619 1.370 . S
C618 C622 1.524 . S
C619 C611 1.503 . S
C619 C618 1.370 . S
C619 C620 1.403 . S
C620 C619 1.403 . S
C620 C621 1.404 . S
C620 C623 1.539 . S
C621 C617 1.408 . S
C621 C620 1.404 . S
C621 H633 0.930 . S
C622 C618 1.524 . S
C622 H634 0.956 . S
C622 H635 0.961 . S
C622 H636 0.961 . S
C623 C620 1.539 . S
C623 H637 0.958 . S
C623 H638 0.961 . S
C623 H639 0.960 . S
H624 C608 0.931 . S
H625 C613 0.929 . S
H626 C614 0.960 . S
H627 C614 0.962 . S
H628 C614 0.960 . S
H629 C615 0.961 . S
H630 C615 0.961 . S
H631 C615 0.961 . S
H632 C616 0.931 . S
H633 C621 0.930 . S
H634 C622 0.956 . S
H635 C622 0.961 . S
H636 C622 0.961 . S
H637 C623 0.958 . S
H638 C623 0.961 . S
H639 C623 0.960 . S
C640 C641 1.391 . S
C640 C642 1.394 . S
C640 H656 0.931 . S
C641 C640 1.391 . S
C641 C645 1.376 . S
C642 C640 1.394 . S
C642 C643 1.369 . S
C642 C646 1.531 . S
C643 C642 1.369 . S
C643 C644 1.410 . S
C643 C651 1.503 . S
C644 C643 1.410 . S
C644 C645 1.392 . S
C644 C647 1.511 . S
C645 C641 1.376 . S
C645 C644 1.392 . S
C645 H657 0.929 . S
C646 C642 1.531 . S
C646 H658 0.960 . S
C646 H659 0.962 . S
C646 H660 0.960 . S
C647 C644 1.511 . S
C647 H661 0.961 . S
C647 H662 0.961 . S
C647 H663 0.961 . S
C648 C649 1.370 . S
C648 C650 1.363 . S
C648 H664 0.931 . S
C649 C648 1.370 . S
C649 C653 1.408 . S
C650 C648 1.363 . S
C650 C651 1.370 . S
C650 C654 1.524 . S
C651 C643 1.503 . S
C651 C650 1.370 . S
C651 C652 1.403 . S
C652 C651 1.403 . S
C652 C653 1.404 . S
C652 C655 1.539 . S
C653 C649 1.408 . S
C653 C652 1.404 . S
C653 H665 0.930 . S
C654 C650 1.524 . S
C654 H666 0.956 . S
C654 H667 0.961 . S
C654 H668 0.961 . S
C655 C652 1.539 . S
C655 H669 0.958 . S
C655 H670 0.961 . S
C655 H671 0.960 . S
H656 C640 0.931 . S
H657 C645 0.929 . S
H658 C646 0.960 . S
H659 C646 0.962 . S
H660 C646 0.960 . S
H661 C647 0.961 . S
H662 C647 0.961 . S
H663 C647 0.961 . S
H664 C648 0.931 . S
H665 C653 0.930 . S
H666 C654 0.956 . S
H667 C654 0.961 . S
H668 C654 0.961 . S
H669 C655 0.958 . S
H670 C655 0.961 . S
H671 C655 0.960 . S
C672 C673 1.391 . S
C672 C674 1.394 . S
C672 H688 0.931 . S
C673 C672 1.391 . S
C673 C677 1.376 . S
C674 C672 1.394 . S
C674 C675 1.369 . S
C674 C678 1.531 . S
C675 C674 1.369 . S
C675 C676 1.410 . S
C675 C683 1.503 . S
C676 C675 1.410 . S
C676 C677 1.392 . S
C676 C679 1.511 . S
C677 C673 1.376 . S
C677 C676 1.392 . S
C677 H689 0.929 . S
C678 C674 1.531 . S
C678 H690 0.960 . S
C678 H691 0.962 . S
C678 H692 0.960 . S
C679 C676 1.511 . S
C679 H693 0.961 . S
C679 H694 0.961 . S
C679 H695 0.961 . S
C680 C681 1.370 . S
C680 C682 1.363 . S
C680 H696 0.931 . S
C681 C680 1.370 . S
C681 C685 1.408 . S
C682 C680 1.363 . S
C682 C683 1.370 . S
C682 C686 1.524 . S
C683 C675 1.503 . S
C683 C682 1.370 . S
C683 C684 1.403 . S
C684 C683 1.403 . S
C684 C685 1.404 . S
C684 C687 1.539 . S
C685 C681 1.408 . S
C685 C684 1.404 . S
C685 H697 0.930 . S
C686 C682 1.524 . S
C686 H698 0.956 . S
C686 H699 0.961 . S
C686 H700 0.961 . S
C687 C684 1.539 . S
C687 H701 0.958 . S
C687 H702 0.961 . S
C687 H703 0.960 . S
H688 C672 0.931 . S
H689 C677 0.929 . S
H690 C678 0.960 . S
H691 C678 0.962 . S
H692 C678 0.960 . S
H693 C679 0.961 . S
H694 C679 0.961 . S
H695 C679 0.961 . S
H696 C680 0.931 . S
H697 C685 0.930 . S
H698 C686 0.956 . S
H699 C686 0.961 . S
H700 C686 0.961 . S
H701 C687 0.958 . S
H702 C687 0.961 . S
H703 C687 0.960 . S
C704 C705 1.391 . S
C704 C706 1.394 . S
C704 H720 0.931 . S
C705 C704 1.391 . S
C705 C709 1.376 . S
C706 C704 1.394 . S
C706 C707 1.369 . S
C706 C710 1.531 . S
C707 C706 1.369 . S
C707 C708 1.410 . S
C707 C715 1.503 . S
C708 C707 1.410 . S
C708 C709 1.392 . S
C708 C711 1.511 . S
C709 C705 1.376 . S
C709 C708 1.392 . S
C709 H721 0.929 . S
C710 C706 1.531 . S
C710 H722 0.960 . S
C710 H723 0.962 . S
C710 H724 0.960 . S
C711 C708 1.511 . S
C711 H725 0.961 . S
C711 H726 0.961 . S
C711 H727 0.961 . S
C712 C713 1.370 . S
C712 C714 1.363 . S
C712 H728 0.931 . S
C713 C712 1.370 . S
C713 C717 1.408 . S
C714 C712 1.363 . S
C714 C715 1.370 . S
C714 C718 1.524 . S
C715 C707 1.503 . S
C715 C714 1.370 . S
C715 C716 1.403 . S
C716 C715 1.403 . S
C716 C717 1.404 . S
C716 C719 1.539 . S
C717 C713 1.408 . S
C717 C716 1.404 . S
C717 H729 0.930 . S
C718 C714 1.524 . S
C718 H730 0.956 . S
C718 H731 0.961 . S
C718 H732 0.961 . S
C719 C716 1.539 . S
C719 H733 0.958 . S
C719 H734 0.961 . S
C719 H735 0.960 . S
H720 C704 0.931 . S
H721 C709 0.929 . S
H722 C710 0.960 . S
H723 C710 0.962 . S
H724 C710 0.960 . S
H725 C711 0.961 . S
H726 C711 0.961 . S
H727 C711 0.961 . S
H728 C712 0.931 . S
H729 C717 0.930 . S
H730 C718 0.956 . S
H731 C718 0.961 . S
H732 C718 0.961 . S
H733 C719 0.958 . S
H734 C719 0.961 . S
H735 C719 0.960 . S
C736 C737 1.391 . S
C736 C738 1.394 . S
C736 H752 0.931 . S
C737 C736 1.391 . S
C737 C741 1.376 . S
C738 C736 1.394 . S
C738 C739 1.369 . S
C738 C742 1.531 . S
C739 C738 1.369 . S
C739 C740 1.410 . S
C739 C747 1.503 . S
C740 C739 1.410 . S
C740 C741 1.392 . S
C740 C743 1.511 . S
C741 C737 1.376 . S
C741 C740 1.392 . S
C741 H753 0.929 . S
C742 C738 1.531 . S
C742 H754 0.960 . S
C742 H755 0.962 . S
C742 H756 0.960 . S
C743 C740 1.511 . S
C743 H757 0.961 . S
C743 H758 0.961 . S
C743 H759 0.961 . S
C744 C745 1.370 . S
C744 C746 1.363 . S
C744 H760 0.931 . S
C745 C744 1.370 . S
C745 C749 1.408 . S
C746 C744 1.363 . S
C746 C747 1.370 . S
C746 C750 1.524 . S
C747 C739 1.503 . S
C747 C746 1.370 . S
C747 C748 1.403 . S
C748 C747 1.403 . S
C748 C749 1.404 . S
C748 C751 1.539 . S
C749 C745 1.408 . S
C749 C748 1.404 . S
C749 H761 0.930 . S
C750 C746 1.524 . S
C750 H762 0.956 . S
C750 H763 0.961 . S
C750 H764 0.961 . S
C751 C748 1.539 . S
C751 H765 0.958 . S
C751 H766 0.961 . S
C751 H767 0.960 . S
H752 C736 0.931 . S
H753 C741 0.929 . S
H754 C742 0.960 . S
H755 C742 0.962 . S
H756 C742 0.960 . S
H757 C743 0.961 . S
H758 C743 0.961 . S
H759 C743 0.961 . S
H760 C744 0.931 . S
H761 C749 0.930 . S
H762 C750 0.956 . S
H763 C750 0.961 . S
H764 C750 0.961 . S
H765 C751 0.958 . S
H766 C751 0.961 . S
H767 C751 0.960 . S
C768 C769 1.391 . S
C768 C770 1.394 . S
C768 H784 0.931 . S
C769 C768 1.391 . S
C769 C773 1.376 . S
C770 C768 1.394 . S
C770 C771 1.369 . S
C770 C774 1.531 . S
C771 C770 1.369 . S
C771 C772 1.410 . S
C771 C779 1.503 . S
C772 C771 1.410 . S
C772 C773 1.392 . S
C772 C775 1.511 . S
C773 C769 1.376 . S
C773 C772 1.392 . S
C773 H785 0.929 . S
C774 C770 1.531 . S
C774 H786 0.960 . S
C774 H787 0.962 . S
C774 H788 0.960 . S
C775 C772 1.511 . S
C775 H789 0.961 . S
C775 H790 0.961 . S
C775 H791 0.961 . S
C776 C777 1.370 . S
C776 C778 1.363 . S
C776 H792 0.931 . S
C777 C776 1.370 . S
C777 C781 1.408 . S
C778 C776 1.363 . S
C778 C779 1.370 . S
C778 C782 1.524 . S
C779 C771 1.503 . S
C779 C778 1.370 . S
C779 C780 1.403 . S
C780 C779 1.403 . S
C780 C781 1.404 . S
C780 C783 1.539 . S
C781 C777 1.408 . S
C781 C780 1.404 . S
C781 H793 0.930 . S
C782 C778 1.524 . S
C782 H794 0.956 . S
C782 H795 0.961 . S
C782 H796 0.961 . S
C783 C780 1.539 . S
C783 H797 0.958 . S
C783 H798 0.961 . S
C783 H799 0.960 . S
H784 C768 0.931 . S
H785 C773 0.929 . S
H786 C774 0.960 . S
H787 C774 0.962 . S
H788 C774 0.960 . S
H789 C775 0.961 . S
H790 C775 0.961 . S
H791 C775 0.961 . S
H792 C776 0.931 . S
H793 C781 0.930 . S
H794 C782 0.956 . S
H795 C782 0.961 . S
H796 C782 0.961 . S
H797 C783 0.958 . S
H798 C783 0.961 . S
H799 C783 0.960 . S
C800 C801 1.391 . S
C800 C802 1.394 . S
C800 H816 0.931 . S
C801 C800 1.391 . S
C801 C805 1.376 . S
C802 C800 1.394 . S
C802 C803 1.369 . S
C802 C806 1.531 . S
C803 C802 1.369 . S
C803 C804 1.410 . S
C803 C811 1.503 . S
C804 C803 1.410 . S
C804 C805 1.392 . S
C804 C807 1.511 . S
C805 C801 1.376 . S
C805 C804 1.392 . S
C805 H817 0.929 . S
C806 C802 1.531 . S
C806 H818 0.960 . S
C806 H819 0.962 . S
C806 H820 0.960 . S
C807 C804 1.511 . S
C807 H821 0.961 . S
C807 H822 0.961 . S
C807 H823 0.961 . S
C808 C809 1.370 . S
C808 C810 1.363 . S
C808 H824 0.931 . S
C809 C808 1.370 . S
C809 C813 1.408 . S
C810 C808 1.363 . S
C810 C811 1.370 . S
C810 C814 1.524 . S
C811 C803 1.503 . S
C811 C810 1.370 . S
C811 C812 1.403 . S
C812 C811 1.403 . S
C812 C813 1.404 . S
C812 C815 1.539 . S
C813 C809 1.408 . S
C813 C812 1.404 . S
C813 H825 0.930 . S
C814 C810 1.524 . S
C814 H826 0.956 . S
C814 H827 0.961 . S
C814 H828 0.961 . S
C815 C812 1.539 . S
C815 H829 0.958 . S
C815 H830 0.961 . S
C815 H831 0.960 . S
H816 C800 0.931 . S
H817 C805 0.929 . S
H818 C806 0.960 . S
H819 C806 0.962 . S
H820 C806 0.960 . S
H821 C807 0.961 . S
H822 C807 0.961 . S
H823 C807 0.961 . S
H824 C808 0.931 . S
H825 C813 0.930 . S
H826 C814 0.956 . S
H827 C814 0.961 . S
H828 C814 0.961 . S
H829 C815 0.958 . S
H830 C815 0.961 . S
H831 C815 0.960 . S
C832 C833 1.390 1_455 S
C832 C834 1.394 . S
C832 H848 0.932 . S
C833 C832 1.390 1_655 S
C833 C837 1.376 1_545 S
C834 C832 1.394 . S
C834 C835 1.369 1_455 S
C834 C838 1.531 . S
C835 C834 1.369 1_655 S
C835 C836 1.410 1_545 S
C835 C843 1.503 1_656 S
C836 C835 1.410 1_565 S
C836 C837 1.392 . S
C836 C839 1.511 . S
C837 C833 1.376 1_565 S
C837 C836 1.392 . S
C837 H849 0.929 . S
C838 C834 1.531 . S
C838 H850 0.960 . S
C838 H851 0.962 . S
C838 H852 0.960 . S
C839 C836 1.511 . S
C839 H853 0.961 . S
C839 H854 0.961 1_556 S
C839 H855 0.961 . S
C840 C841 1.370 1_565 S
C840 C842 1.363 . S
C840 H856 0.931 . S
C841 C840 1.370 1_545 S
C841 C845 1.408 1_455 S
C842 C840 1.363 . S
C842 C843 1.370 1_565 S
C842 C846 1.524 . S
C843 C835 1.503 1_454 S
C843 C842 1.370 1_545 S
C843 C844 1.403 1_455 S
C844 C843 1.403 1_655 S
C844 C845 1.404 . S
C844 C847 1.539 . S
C845 C841 1.408 1_655 S
C845 C844 1.404 . S
C845 H857 0.930 . S
C846 C842 1.524 . S
C846 H858 0.956 . S
C846 H859 0.961 . S
C846 H860 0.961 . S
C847 C844 1.539 . S
C847 H861 0.958 . S
C847 H862 0.961 . S
C847 H863 0.960 1_554 S
H848 C832 0.932 . S
H849 C837 0.929 . S
H850 C838 0.960 . S
H851 C838 0.962 . S
H852 C838 0.960 . S
H853 C839 0.961 . S
H854 C839 0.961 1_554 S
H855 C839 0.961 . S
H856 C840 0.931 . S
H857 C845 0.930 . S
H858 C846 0.956 . S
H859 C846 0.961 . S
H860 C846 0.961 . S
H861 C847 0.958 . S
H862 C847 0.961 . S
H863 C847 0.960 1_556 S
C864 C865 1.391 . S
C864 C866 1.394 . S
C864 H880 0.931 . S
C865 C864 1.391 . S
C865 C869 1.376 . S
C866 C864 1.394 . S
C866 C867 1.369 . S
C866 C870 1.531 . S
C867 C866 1.369 . S
C867 C868 1.410 . S
C867 C875 1.503 . S
C868 C867 1.410 . S
C868 C869 1.392 . S
C868 C871 1.511 . S
C869 C865 1.376 . S
C869 C868 1.392 . S
C869 H881 0.929 . S
C870 C866 1.531 . S
C870 H882 0.960 . S
C870 H883 0.962 . S
C870 H884 0.960 . S
C871 C868 1.511 . S
C871 H885 0.961 . S
C871 H886 0.961 . S
C871 H887 0.961 . S
C872 C873 1.370 . S
C872 C874 1.363 . S
C872 H888 0.931 . S
C873 C872 1.370 . S
C873 C877 1.408 . S
C874 C872 1.363 . S
C874 C875 1.370 . S
C874 C878 1.524 . S
C875 C867 1.503 . S
C875 C874 1.370 . S
C875 C876 1.403 . S
C876 C875 1.403 . S
C876 C877 1.404 . S
C876 C879 1.539 . S
C877 C873 1.408 . S
C877 C876 1.404 . S
C877 H889 0.930 . S
C878 C874 1.524 . S
C878 H890 0.956 . S
C878 H891 0.961 . S
C878 H892 0.961 . S
C879 C876 1.539 . S
C879 H893 0.958 . S
C879 H894 0.961 . S
C879 H895 0.960 . S
H880 C864 0.931 . S
H881 C869 0.929 . S
H882 C870 0.960 . S
H883 C870 0.962 . S
H884 C870 0.960 . S
H885 C871 0.961 . S
H886 C871 0.961 . S
H887 C871 0.961 . S
H888 C872 0.931 . S
H889 C877 0.930 . S
H890 C878 0.956 . S
H891 C878 0.961 . S
H892 C878 0.961 . S
H893 C879 0.958 . S
H894 C879 0.961 . S
H895 C879 0.960 . S
C896 C897 1.391 1_565 S
C896 C898 1.394 . S
C896 H912 0.931 . S
C897 C896 1.391 1_545 S
C897 C901 1.376 . S
C898 C896 1.394 . S
C898 C899 1.379 . S
C898 C902 1.531 . S
C899 C898 1.379 . S
C899 C900 1.389 1_565 S
C899 C907 1.512 . S
C900 C899 1.389 1_545 S
C900 C901 1.392 . S
C900 C903 1.511 . S
C901 C897 1.376 . S
C901 C900 1.392 . S
C901 H913 0.929 . S
C902 C898 1.531 . S
C902 H914 0.960 . S
C902 H915 0.962 . S
C902 H916 0.960 . S
C903 C900 1.511 . S
C903 H917 0.961 . S
C903 H918 0.961 . S
C903 H919 0.961 . S
C904 C905 1.369 1_545 S
C904 C906 1.364 . S
C904 H920 0.931 . S
C905 C904 1.369 1_565 S
C905 C909 1.408 . S
C906 C904 1.364 . S
C906 C907 1.370 1_545 S
C906 C910 1.524 . S
C907 C899 1.512 . S
C907 C906 1.370 1_565 S
C907 C908 1.403 . S
C908 C907 1.403 . S
C908 C909 1.404 . S
C908 C911 1.539 . S
C909 C905 1.408 . S
C909 C908 1.404 . S
C909 H921 0.930 . S
C910 C906 1.524 . S
C910 H922 0.956 . S
C910 H923 0.961 . S
C910 H924 0.961 . S
C911 C908 1.539 . S
C911 H925 0.958 . S
C911 H926 0.961 . S
C911 H927 0.960 . S
H912 C896 0.931 . S
H913 C901 0.929 . S
H914 C902 0.960 . S
H915 C902 0.962 . S
H916 C902 0.960 . S
H917 C903 0.961 . S
H918 C903 0.961 . S
H919 C903 0.961 . S
H920 C904 0.931 . S
H921 C909 0.930 . S
H922 C910 0.956 . S
H923 C910 0.961 . S
H924 C910 0.961 . S
H925 C911 0.958 . S
H926 C911 0.961 . S
H927 C911 0.960 . S
C928 C929 1.391 . S
C928 C930 1.394 . S
C928 H944 0.931 . S
C929 C928 1.391 . S
C929 C933 1.376 . S
C930 C928 1.394 . S
C930 C931 1.369 . S
C930 C934 1.531 . S
C931 C930 1.369 . S
C931 C932 1.410 . S
C931 C939 1.503 . S
C932 C931 1.410 . S
C932 C933 1.392 . S
C932 C935 1.511 . S
C933 C929 1.376 . S
C933 C932 1.392 . S
C933 H945 0.929 . S
C934 C930 1.531 . S
C934 H946 0.960 . S
C934 H947 0.962 . S
C934 H948 0.960 . S
C935 C932 1.511 . S
C935 H949 0.961 . S
C935 H950 0.961 . S
C935 H951 0.961 . S
C936 C937 1.370 . S
C936 C938 1.363 . S
C936 H952 0.931 . S
C937 C936 1.370 . S
C937 C941 1.408 . S
C938 C936 1.363 . S
C938 C939 1.370 . S
C938 C942 1.524 . S
C939 C931 1.503 . S
C939 C938 1.370 . S
C939 C940 1.403 . S
C940 C939 1.403 . S
C940 C941 1.404 . S
C940 C943 1.539 . S
C941 C937 1.408 . S
C941 C940 1.404 . S
C941 H953 0.930 . S
C942 C938 1.524 . S
C942 H954 0.956 . S
C942 H955 0.961 . S
C942 H956 0.961 . S
C943 C940 1.539 . S
C943 H957 0.958 . S
C943 H958 0.961 . S
C943 H959 0.960 . S
H944 C928 0.931 . S
H945 C933 0.929 . S
H946 C934 0.960 . S
H947 C934 0.962 . S
H948 C934 0.960 . S
H949 C935 0.961 . S
H950 C935 0.961 . S
H951 C935 0.961 . S
H952 C936 0.931 . S
H953 C941 0.930 . S
H954 C942 0.956 . S
H955 C942 0.961 . S
H956 C942 0.961 . S
H957 C943 0.958 . S
H958 C943 0.961 . S
H959 C943 0.960 . S
C960 C961 1.391 . S
C960 C962 1.394 . S
C960 H976 0.931 . S
C961 C960 1.391 . S
C961 C965 1.376 . S
C962 C960 1.394 . S
C962 C963 1.369 . S
C962 C966 1.531 . S
C963 C962 1.369 . S
C963 C964 1.410 . S
C963 C971 1.503 . S
C964 C963 1.410 . S
C964 C965 1.392 . S
C964 C967 1.511 . S
C965 C961 1.376 . S
C965 C964 1.392 . S
C965 H977 0.929 . S
C966 C962 1.531 . S
C966 H978 0.960 . S
C966 H979 0.962 . S
C966 H980 0.960 . S
C967 C964 1.511 . S
C967 H981 0.961 . S
C967 H982 0.961 . S
C967 H983 0.961 . S
C968 C969 1.370 . S
C968 C970 1.363 . S
C968 H984 0.931 . S
C969 C968 1.370 . S
C969 C973 1.408 . S
C970 C968 1.363 . S
C970 C971 1.370 . S
C970 C974 1.524 . S
C971 C963 1.503 . S
C971 C970 1.370 . S
C971 C972 1.403 . S
C972 C971 1.403 . S
C972 C973 1.404 . S
C972 C975 1.539 . S
C973 C969 1.408 . S
C973 C972 1.404 . S
C973 H985 0.930 . S
C974 C970 1.524 . S
C974 H986 0.956 . S
C974 H987 0.961 . S
C974 H988 0.961 . S
C975 C972 1.539 . S
C975 H989 0.958 . S
C975 H990 0.961 . S
C975 H991 0.960 . S
H976 C960 0.931 . S
H977 C965 0.929 . S
H978 C966 0.960 . S
H979 C966 0.962 . S
H980 C966 0.960 . S
H981 C967 0.961 . S
H982 C967 0.961 . S
H983 C967 0.961 . S
H984 C968 0.931 . S
H985 C973 0.930 . S
H986 C974 0.956 . S
H987 C974 0.961 . S
H988 C974 0.961 . S
H989 C975 0.958 . S
H990 C975 0.961 . S
H991 C975 0.960 . S
C992 C993 1.391 . S
C992 C994 1.394 . S
C992 H1008 0.931 . S
C993 C992 1.391 . S
C993 C997 1.376 . S
C994 C992 1.394 . S
C994 C995 1.369 . S
C994 C998 1.531 . S
C995 C994 1.369 . S
C995 C996 1.410 . S
C995 C1003 1.503 . S
C996 C995 1.410 . S
C996 C997 1.392 . S
C996 C999 1.511 . S
C997 C993 1.376 . S
C997 C996 1.392 . S
C997 H1009 0.929 . S
C998 C994 1.531 . S
C998 H1010 0.960 . S
C998 H1011 0.962 . S
C998 H1012 0.960 . S
C999 C996 1.511 . S
C999 H1013 0.961 . S
C999 H1014 0.961 . S
C999 H1015 0.961 . S
C1000 C1001 1.370 . S
C1000 C1002 1.363 . S
C1000 H1016 0.931 . S
C1001 C1000 1.370 . S
C1001 C1005 1.408 . S
C1002 C1000 1.363 . S
C1002 C1003 1.370 . S
C1002 C1006 1.524 . S
C1003 C995 1.503 . S
C1003 C1002 1.370 . S
C1003 C1004 1.403 . S
C1004 C1003 1.403 . S
C1004 C1005 1.404 . S
C1004 C1007 1.539 . S
C1005 C1001 1.408 . S
C1005 C1004 1.404 . S
C1005 H1017 0.930 . S
C1006 C1002 1.524 . S
C1006 H1018 0.956 . S
C1006 H1019 0.961 . S
C1006 H1020 0.961 . S
C1007 C1004 1.539 . S
C1007 H1021 0.958 . S
C1007 H1022 0.961 . S
C1007 H1023 0.960 . S
H1008 C992 0.931 . S
H1009 C997 0.929 . S
H1010 C998 0.960 . S
H1011 C998 0.962 . S
H1012 C998 0.960 . S
H1013 C999 0.961 . S
H1014 C999 0.961 . S
H1015 C999 0.961 . S
H1016 C1000 0.931 . S
H1017 C1005 0.930 . S
H1018 C1006 0.956 . S
H1019 C1006 0.961 . S
H1020 C1006 0.961 . S
H1021 C1007 0.958 . S
H1022 C1007 0.961 . S
H1023 C1007 0.960 . S
C1024 C1025 1.391 . S
C1024 C1026 1.394 . S
C1024 H1040 0.931 . S
C1025 C1024 1.391 . S
C1025 C1029 1.376 . S
C1026 C1024 1.394 . S
C1026 C1027 1.369 . S
C1026 C1030 1.531 . S
C1027 C1026 1.369 . S
C1027 C1028 1.410 . S
C1027 C1035 1.503 . S
C1028 C1027 1.410 . S
C1028 C1029 1.392 . S
C1028 C1031 1.511 . S
C1029 C1025 1.376 . S
C1029 C1028 1.392 . S
C1029 H1041 0.929 . S
C1030 C1026 1.531 . S
C1030 H1042 0.960 . S
C1030 H1043 0.962 . S
C1030 H1044 0.960 . S
C1031 C1028 1.511 . S
C1031 H1045 0.961 . S
C1031 H1046 0.961 . S
C1031 H1047 0.961 . S
C1032 C1033 1.370 . S
C1032 C1034 1.363 . S
C1032 H1048 0.931 . S
C1033 C1032 1.370 . S
C1033 C1037 1.408 . S
C1034 C1032 1.363 . S
C1034 C1035 1.370 . S
C1034 C1038 1.524 . S
C1035 C1027 1.503 . S
C1035 C1034 1.370 . S
C1035 C1036 1.403 . S
C1036 C1035 1.403 . S
C1036 C1037 1.404 . S
C1036 C1039 1.539 . S
C1037 C1033 1.408 . S
C1037 C1036 1.404 . S
C1037 H1049 0.930 . S
C1038 C1034 1.524 . S
C1038 H1050 0.956 . S
C1038 H1051 0.961 . S
C1038 H1052 0.961 . S
C1039 C1036 1.539 . S
C1039 H1053 0.958 . S
C1039 H1054 0.961 . S
C1039 H1055 0.960 . S
H1040 C1024 0.931 . S
H1041 C1029 0.929 . S
H1042 C1030 0.960 . S
H1043 C1030 0.962 . S
H1044 C1030 0.960 . S
H1045 C1031 0.961 . S
H1046 C1031 0.961 . S
H1047 C1031 0.961 . S
H1048 C1032 0.931 . S
H1049 C1037 0.930 . S
H1050 C1038 0.956 . S
H1051 C1038 0.961 . S
H1052 C1038 0.961 . S
H1053 C1039 0.958 . S
H1054 C1039 0.961 . S
H1055 C1039 0.960 . S
C1056 C1057 1.378 1_455 S
C1056 C1058 1.395 . S
C1056 H1072 0.943 . S
C1057 C1056 1.378 1_655 S
C1057 C1061 1.376 . S
C1058 C1056 1.395 . S
C1058 C1059 1.369 1_455 S
C1058 C1062 1.531 . S
C1059 C1058 1.369 1_655 S
C1059 C1060 1.410 . S
C1059 C1067 1.503 1_656 S
C1060 C1059 1.410 . S
C1060 C1061 1.392 . S
C1060 C1063 1.511 1_556 S
C1061 C1057 1.376 . S
C1061 C1060 1.392 . S
C1061 H1073 0.929 . S
C1062 C1058 1.531 . S
C1062 H1074 0.960 . S
C1062 H1075 0.962 . S
C1062 H1076 0.960 . S
C1063 C1060 1.511 1_554 S
C1063 H1077 0.961 1_554 S
C1063 H1078 0.961 . S
C1063 H1079 0.961 . S
C1064 C1065 1.370 . S
C1064 C1066 1.363 . S
C1064 H1080 0.931 . S
C1065 C1064 1.370 . S
C1065 C1069 1.408 1_455 S
C1066 C1064 1.363 . S
C1066 C1067 1.370 . S
C1066 C1070 1.524 . S
C1067 C1059 1.503 1_454 S
C1067 C1066 1.370 . S
C1067 C1068 1.403 1_455 S
C1068 C1067 1.403 1_655 S
C1068 C1069 1.404 . S
C1068 C1071 1.539 . S
C1069 C1065 1.408 1_655 S
C1069 C1068 1.404 . S
C1069 H1081 0.930 . S
C1070 C1066 1.524 . S
C1070 H1082 0.956 . S
C1070 H1083 0.961 . S
C1070 H1084 0.961 . S
C1071 C1068 1.539 . S
C1071 H1085 0.958 1_554 S
C1071 H1086 0.961 . S
C1071 H1087 0.960 1_554 S
H1072 C1056 0.943 . S
H1073 C1061 0.929 . S
H1074 C1062 0.960 . S
H1075 C1062 0.962 . S
H1076 C1062 0.960 . S
H1077 C1063 0.961 1_556 S
H1078 C1063 0.961 . S
H1079 C1063 0.961 . S
H1080 C1064 0.931 . S
H1081 C1069 0.930 . S
H1082 C1070 0.956 . S
H1083 C1070 0.961 . S
H1084 C1070 0.961 . S
H1085 C1071 0.958 1_556 S
H1086 C1071 0.961 . S
H1087 C1071 0.960 1_556 S
C321 C10 1.533 . S
C329 C129 1.506 . S
C353 C9 0.864 . S
C361 C49 0.901 . S
C385 C50 1.512 . S
C393 C89 1.526 . S
C417 C90 2.055 . S
C425 C130 2.054 . S
C449 C19 1.511 . S
C457 C218 1.528 . S
C481 C18 0.908 . S
C489 C178 0.896 . S
C513 C179 1.518 . S
C521 C98 1.519 . S
C545 C219 2.050 . S
C553 C99 2.061 . S
C577 C250 1.523 . S
C585 C209 1.518 . S
C609 C169 0.886 . S
C617 C249 0.898 . S
C641 C289 1.498 . S
C649 C170 1.535 . S
C673 C210 2.063 . S
C681 C290 2.064 . S
C705 C138 1.519 . S
C713 C259 1.525 . S
C737 C258 0.853 . S
C745 C58 0.894 . S
C769 C59 1.536 . S
C777 C298 1.509 . S
C801 C139 2.056 . S
C809 C299 2.055 . S
C833 C15 1.439 1_545 S
C841 C6 1.424 . S
C865 C55 1.449 . S
C873 C46 1.424 . S
C897 C95 1.577 . S
C905 C86 1.618 . S
C929 C126 1.577 . S
C937 C135 1.618 . S
C961 C175 1.407 . S
C969 C166 1.439 . S
C993 C206 1.602 . S
C1001 C215 1.606 . S
C1025 C246 1.452 . S
C1033 C255 1.421 . S
C1057 C286 1.606 . S
C1065 C295 1.605 . S
