# Generated by pormake.
# Topology wmn, (6)-cn, num edge types: 1
# Building blocks:
#     Node 0, Type 0, BuildingBlock: KUMJIN_clean_sbu_1, # of connection points: 6
#     Node 1, Type 0, BuildingBlock: KUMJIN_clean_sbu_1, # of connection points: 6
#     Node 2, Type 0, BuildingBlock: KUMJIN_clean_sbu_1, # of connection points: 6
#     Node 3, Type 0, BuildingBlock: KUMJIN_clean_sbu_1, # of connection points: 6
#     Node 4, Type 0, BuildingBlock: KUMJIN_clean_sbu_1, # of connection points: 6
#     Node 5, Type 0, BuildingBlock: KUMJIN_clean_sbu_1, # of connection points: 6
#     Node 6, Type 0, BuildingBlock: KUMJIN_clean_sbu_1, # of connection points: 6
#     Node 7, Type 0, BuildingBlock: KUMJIN_clean_sbu_1, # of connection points: 6
#     Node 8, Type 0, BuildingBlock: KUMJIN_clean_sbu_1, # of connection points: 6
#     Node 9, Type 0, BuildingBlock: KUMJIN_clean_sbu_1, # of connection points: 6
#     Node 10, Type 0, BuildingBlock: KUMJIN_clean_sbu_1, # of connection points: 6
#     Node 11, Type 0, BuildingBlock: KUMJIN_clean_sbu_1, # of connection points: 6
#     Edge 12, Type (0, 0), BuildingBlock: TEMPAE_clean_linker_10, # of connection points: 2
#     Edge 13, Type (0, 0), BuildingBlock: TEMPAE_clean_linker_10, # of connection points: 2
#     Edge 14, Type (0, 0), BuildingBlock: TEMPAE_clean_linker_10, # of connection points: 2
#     Edge 15, Type (0, 0), BuildingBlock: TEMPAE_clean_linker_10, # of connection points: 2
#     Edge 16, Type (0, 0), BuildingBlock: TEMPAE_clean_linker_10, # of connection points: 2
#     Edge 17, Type (0, 0), BuildingBlock: TEMPAE_clean_linker_10, # of connection points: 2
#     Edge 18, Type (0, 0), BuildingBlock: TEMPAE_clean_linker_10, # of connection points: 2
#     Edge 19, Type (0, 0), BuildingBlock: TEMPAE_clean_linker_10, # of connection points: 2
#     Edge 20, Type (0, 0), BuildingBlock: TEMPAE_clean_linker_10, # of connection points: 2
#     Edge 21, Type (0, 0), BuildingBlock: TEMPAE_clean_linker_10, # of connection points: 2
#     Edge 22, Type (0, 0), BuildingBlock: TEMPAE_clean_linker_10, # of connection points: 2
#     Edge 23, Type (0, 0), BuildingBlock: TEMPAE_clean_linker_10, # of connection points: 2
#     Edge 24, Type (0, 0), BuildingBlock: TEMPAE_clean_linker_10, # of connection points: 2
#     Edge 25, Type (0, 0), BuildingBlock: TEMPAE_clean_linker_10, # of connection points: 2
#     Edge 26, Type (0, 0), BuildingBlock: TEMPAE_clean_linker_10, # of connection points: 2
#     Edge 27, Type (0, 0), BuildingBlock: TEMPAE_clean_linker_10, # of connection points: 2
#     Edge 28, Type (0, 0), BuildingBlock: TEMPAE_clean_linker_10, # of connection points: 2
#     Edge 29, Type (0, 0), BuildingBlock: TEMPAE_clean_linker_10, # of connection points: 2
#     Edge 30, Type (0, 0), BuildingBlock: TEMPAE_clean_linker_10, # of connection points: 2
#     Edge 31, Type (0, 0), BuildingBlock: TEMPAE_clean_linker_10, # of connection points: 2
#     Edge 32, Type (0, 0), BuildingBlock: TEMPAE_clean_linker_10, # of connection points: 2
#     Edge 33, Type (0, 0), BuildingBlock: TEMPAE_clean_linker_10, # of connection points: 2
#     Edge 34, Type (0, 0), BuildingBlock: TEMPAE_clean_linker_10, # of connection points: 2
#     Edge 35, Type (0, 0), BuildingBlock: TEMPAE_clean_linker_10, # of connection points: 2
#     Edge 36, Type (0, 0), BuildingBlock: TEMPAE_clean_linker_10, # of connection points: 2
#     Edge 37, Type (0, 0), BuildingBlock: TEMPAE_clean_linker_10, # of connection points: 2
#     Edge 38, Type (0, 0), BuildingBlock: TEMPAE_clean_linker_10, # of connection points: 2
#     Edge 39, Type (0, 0), BuildingBlock: TEMPAE_clean_linker_10, # of connection points: 2
#     Edge 40, Type (0, 0), BuildingBlock: TEMPAE_clean_linker_10, # of connection points: 2
#     Edge 41, Type (0, 0), BuildingBlock: TEMPAE_clean_linker_10, # of connection points: 2
#     Edge 42, Type (0, 0), BuildingBlock: TEMPAE_clean_linker_10, # of connection points: 2
#     Edge 43, Type (0, 0), BuildingBlock: TEMPAE_clean_linker_10, # of connection points: 2
#     Edge 44, Type (0, 0), BuildingBlock: TEMPAE_clean_linker_10, # of connection points: 2
#     Edge 45, Type (0, 0), BuildingBlock: TEMPAE_clean_linker_10, # of connection points: 2
#     Edge 46, Type (0, 0), BuildingBlock: TEMPAE_clean_linker_10, # of connection points: 2
#     Edge 47, Type (0, 0), BuildingBlock: TEMPAE_clean_linker_10, # of connection points: 2
# Relax obj value: 0.143
# Max RMSD: 0.301
# Mean RMSD: 0.301
data_MOF--net-wmn--node1-KUMJIN_clean_sbu_1--edge1-TEMPAE_clean_linker_10
_symmetry_space_group_name_H-M    P1
_symmetry_Int_Tables_number       1
_symmetry_cell_setting            triclinic
loop_
_symmetry_equiv_pos_as_xyz
'x, y, z'
_cell_length_a     59.845119
_cell_length_b     59.789286
_cell_length_c     24.056315
_cell_angle_alpha  90.049145
_cell_angle_beta   89.99731
_cell_angle_gamma 120.05848
loop_
_atom_site_label
_atom_site_type_symbol
_atom_site_fract_x
_atom_site_fract_y
_atom_site_fract_z
_atom_type_partial_charge
Eu0 Eu 0.12402 0.40876 0.06339 0.0
C1 C 0.0802 0.28052 0.05022 0.0
N2 N 0.09286 0.29731 0.09234 0.0
C3 C 0.06409 0.26626 0.15871 0.0
C4 C 0.05823 0.25621 0.06069 0.0
C5 C 0.08605 0.28992 0.14634 0.0
C6 C 0.04983 0.24952 0.11562 0.0
C7 C 0.07845 0.26936 0.95266 0.0
C8 C 0.09017 0.28697 0.99686 0.0
C9 C 0.05601 0.24556 0.96258 0.0
C10 C 0.0459 0.23902 0.01645 0.0
Eu11 Eu 0.12866 0.33757 0.06619 0.0
N12 N 0.1118 0.31016 0.98837 0.0
C13 C 0.08982 0.27609 0.89992 0.0
C14 C 0.12346 0.31648 0.93762 0.0
C15 C 0.11255 0.29969 0.89247 0.0
H16 H 0.09742 0.30229 0.1802 0.0
H17 H 0.12166 0.30497 0.85203 0.0
H18 H 0.17297 0.44032 0.97015 0.0
H19 H 0.11171 0.4381 0.27074 0.0
H20 H 0.14092 0.33464 0.93197 0.0
H21 H 0.08137 0.26311 0.86489 0.0
H22 H 0.10037 0.40878 0.19012 0.0
H23 H 0.05833 0.26086 0.2015 0.0
H24 H 0.04655 0.23191 0.92903 0.0
H25 H 0.02888 0.22036 0.02367 0.0
H26 H 0.21351 0.48152 0.96326 0.0
H27 H 0.03296 0.23109 0.12535 0.0
H28 H 0.15123 0.48113 0.26838 0.0
N29 N 0.16434 0.4471 0.05207 0.0
C30 C 0.17108 0.46469 0.09413 0.0
C31 C 0.20191 0.4769 1.00056 0.0
C32 C 0.19406 0.48884 0.09133 0.0
C33 C 0.17899 0.45321 0.00505 0.0
C34 C 0.20957 0.49473 0.04396 0.0
N35 N 0.13359 0.43459 0.14367 0.0
C36 C 0.11793 0.42727 0.1892 0.0
C37 C 0.16232 0.47574 0.18592 0.0
C38 C 0.15524 0.45835 0.14096 0.0
C39 C 0.14643 0.46828 0.23302 0.0
C40 C 0.12416 0.44396 0.23463 0.0
H41 H 0.22734 0.51309 0.04023 0.0
H42 H 0.21847 0.52498 0.13418 0.0
H43 H 0.19081 0.51346 0.21695 0.0
O44 O 0.09934 0.4257 0.07526 0.0
O45 O 0.15516 0.41384 0.12582 0.0
O46 O 0.13982 0.37588 0.09576 0.0
O47 O 0.11398 0.42579 0.9937 0.0
O48 O 0.09629 0.37576 0.12167 0.0
O49 O 0.10645 0.34249 0.13774 0.0
O50 O 0.16312 0.33525 0.04631 0.0
O51 O 0.10434 0.34294 1.00086 0.0
O52 O 0.08983 0.3685 0.04287 0.0
O53 O 0.14647 0.32491 0.12829 0.0
O54 O 0.15872 0.37425 0.02318 0.0
O55 O 0.13991 0.39709 0.98763 0.0
C56 C 0.156 0.39294 0.13032 0.0
C57 C 0.0731 0.42344 1.00042 0.0
C58 C 0.03757 0.43231 0.98684 0.0
C59 C 0.02265 0.40734 0.96429 0.0
C60 C 0.05772 0.39869 0.9778 0.0
C61 C 0.03269 0.39076 0.95975 0.0
C62 C 0.06302 0.44031 0.00453 0.0
C63 C 0.09365 0.35489 0.14791 0.0
C64 C 0.09891 0.43109 0.0232 0.0
C65 C 0.2009 0.50635 0.13574 0.0
C66 C 0.18511 0.49982 0.18287 0.0
C67 C 0.08591 0.34816 0.01297 0.0
C68 C 0.16664 0.30262 0.09315 0.0
C69 C 0.19444 0.28369 0.08566 0.0
C70 C 0.1724 0.25893 0.08922 0.0
C71 C 0.14491 0.27776 0.09593 0.0
C72 C 0.19135 0.30553 0.08804 0.0
C73 C 0.14785 0.25606 0.09427 0.0
C74 C 0.15487 0.38659 0.98221 0.0
C75 C 0.16377 0.32563 0.09438 0.0
H76 H 1.00318 0.40066 0.94971 0.0
H77 H 0.06498 0.3854 0.97451 0.0
H78 H 0.02094 0.3716 0.94245 0.0
H79 H 0.0747 0.4593 0.02279 0.0
H80 H 0.17414 0.24176 0.08838 0.0
H81 H 0.12569 0.27511 0.09938 0.0
H82 H 0.20804 0.32476 0.08477 0.0
H83 H 0.13104 0.23693 0.09676 0.0
Eu84 Eu 0.61876 0.72305 0.03336 0.0
C85 C 0.74539 0.81236 0.036 0.0
N86 N 0.72559 0.80733 0.07087 0.0
C87 C 0.75391 0.81948 0.14946 0.0
C88 C 0.77037 0.82075 0.05704 0.0
C89 C 0.72967 0.81187 0.12656 0.0
C90 C 0.77429 0.82362 0.11461 0.0
C91 C 0.76206 0.81902 0.94188 0.0
C92 C 0.74118 0.81131 0.97897 0.0
C93 C 0.78674 0.82641 0.96265 0.0
C94 C 0.79086 0.82717 0.02008 0.0
Eu95 Eu 0.68525 0.79381 0.02923 0.0
N96 N 0.71728 0.80491 0.95997 0.0
C97 C 0.75781 0.8202 0.88509 0.0
C98 C 0.71356 0.80788 0.90504 0.0
C99 C 0.73354 0.81489 0.86672 0.0
H100 H 0.71401 0.80909 0.15346 0.0
H101 H 0.73022 0.816 0.82299 0.0
H102 H 0.58171 0.7387 0.95585 0.0
H103 H 0.61133 0.69738 0.25372 0.0
H104 H 0.69487 0.80377 0.89043 0.0
H105 H 0.77329 0.82584 0.85526 0.0
H106 H 0.62919 0.70428 0.15925 0.0
H107 H 0.75691 0.82238 0.19386 0.0
H108 H 0.80289 0.83212 0.93468 0.0
H109 H 0.81013 0.83348 0.0355 0.0
H110 H 0.54407 0.74446 0.96827 0.0
H111 H 0.79316 0.8299 0.13236 0.0
H112 H 0.57377 0.70283 0.27326 0.0
N113 N 0.5832 0.72965 0.04065 0.0
C114 C 0.57149 0.72461 0.0913 0.0
C115 C 0.55175 0.73913 0.00333 0.0
C116 C 0.54984 0.72761 0.1002 0.0
C117 C 0.57333 0.73617 0.99655 0.0
C118 C 0.54006 0.73502 0.05544 0.0
N119 N 0.60284 0.71479 0.12548 0.0
C120 C 0.61319 0.70733 0.16709 0.0
C121 C 0.57064 0.71303 0.18841 0.0
C122 C 0.58168 0.71716 0.13492 0.0
C123 C 0.58164 0.70608 0.23156 0.0
C124 C 0.60291 0.70309 0.22075 0.0
H125 H 0.52342 0.73745 0.06057 0.0
H126 H 0.52221 0.72568 0.16099 0.0
H127 H 0.54052 0.71315 0.23823 0.0
O128 O 0.6014 0.68171 0.05113 0.0
O129 O 0.62423 0.75903 0.08199 0.0
O130 O 0.66616 0.78024 0.11217 0.0
O131 O 0.59225 0.69371 0.97428 0.0
O132 O 0.65316 0.72395 0.07558 0.0
O133 O 0.68588 0.76637 0.09511 0.0
O134 O 0.66866 0.819 0.03623 0.0
O135 O 0.67827 0.7655 0.95941 0.0
O136 O 0.65513 0.72509 0.99823 0.0
O137 O 0.70987 0.83589 0.03 0.0
O138 O 0.64693 0.78406 0.9899 0.0
O139 O 0.62517 0.74427 0.95083 0.0
C140 C 0.64164 0.77196 0.12093 0.0
C141 C 0.56134 0.6522 0.00991 0.0
C142 C 0.53078 0.60527 0.00922 0.0
C143 C 0.51064 0.6105 0.01918 0.0
C144 C 0.54081 0.65664 0.01975 0.0
C145 C 0.51566 0.63589 0.02435 0.0
C146 C 0.55628 0.62647 0.00493 0.0
C147 C 0.67479 0.74092 0.10062 0.0
C148 C 0.58811 0.67413 0.00539 0.0
C149 C 0.53876 0.72333 0.15337 0.0
C150 C 0.54918 0.71617 0.19736 0.0
C151 C 0.6742 0.74203 0.967 0.0
C152 C 0.69447 0.85862 0.08227 0.0
C153 C 0.70332 0.90154 0.11044 0.0
C154 C 0.70084 0.89383 0.16641 0.0
C155 C 0.6924 0.85138 0.13827 0.0
C156 C 0.70009 0.88371 0.0685 0.0
C157 C 0.69554 0.86892 0.18011 0.0
C158 C 0.63618 0.76953 0.9462 0.0
C159 C 0.69091 0.84023 0.03788 0.0
H160 H 0.49093 0.5949 0.02396 0.0
H161 H 0.54422 0.67613 0.02398 0.0
H162 H 0.49993 0.63949 0.03222 0.0
H163 H 0.57215 0.62303 0.99714 0.0
H164 H 0.7034 0.90718 0.19956 0.0
H165 H 0.68842 0.83223 0.14948 0.0
H166 H 0.70165 0.88925 0.02514 0.0
H167 H 0.69391 0.86323 0.22328 0.0
Eu168 Eu 0.29179 0.89862 0.04874 0.0
C169 C 0.2146 0.94716 0.03553 0.0
N170 N 0.21562 0.93095 0.07353 0.0
C171 C 0.20753 0.95296 0.14722 0.0
C172 C 0.21075 0.96759 0.05237 0.0
C173 C 0.21089 0.93272 0.1284 0.0
C174 C 0.20783 0.97072 0.10912 0.0
C175 C 0.21291 0.95774 0.93892 0.0
C176 C 0.21581 0.94234 0.97945 0.0
C177 C 0.21011 0.97873 0.95555 0.0
C178 C 0.20912 0.9837 0.01212 0.0
Eu179 Eu 0.22346 0.89867 0.03881 0.0
N180 N 0.21818 0.92168 0.96453 0.0
C181 C 0.21196 0.95103 0.8829 0.0
C182 C 0.21511 0.91383 0.91028 0.0
C183 C 0.21262 0.92874 0.86862 0.0
H184 H 0.21009 0.91864 0.15775 0.0
H185 H 0.21109 0.92303 0.82558 0.0
H186 H 0.27326 0.84299 0.98127 0.0
H187 H 0.3191 0.92401 0.26724 0.0
H188 H 0.2156 0.89659 0.89913 0.0
H189 H 0.20985 0.96243 0.85051 0.0
H190 H 0.31329 0.93247 0.17009 0.0
H191 H 0.20451 0.95473 0.191 0.0
H192 H 0.20807 0.99088 0.92496 0.0
H193 H 0.2064 0.99963 0.02428 0.0
H194 H 0.26576 0.7993 1.00168 0.0
H195 H 0.20496 0.98625 0.12371 0.0
H196 H 0.31077 0.88074 0.29531 0.0
N197 N 0.28338 0.85626 0.06433 0.0
C198 C 0.28818 0.85101 0.1166 0.0
C199 C 0.27188 0.81361 0.03444 0.0
C200 C 0.28411 0.82629 0.13013 0.0
C201 C 0.27591 0.83829 0.02307 0.0
C202 C 0.27585 0.80752 0.08825 0.0
N203 N 0.29971 0.89377 0.14324 0.0
C204 C 0.30856 0.9132 0.18165 0.0
C205 C 0.29985 0.86467 0.21248 0.0
C206 C 0.29609 0.8701 0.15731 0.0
C207 C 0.30777 0.88419 0.25248 0.0
C208 C 0.31236 0.90861 0.23686 0.0
H209 H 0.2725 0.78831 0.097 0.0
H210 H 0.28468 0.80198 0.19623 0.0
H211 H 0.2983 0.83548 0.26831 0.0
O212 O 0.3331 0.91596 0.06707 0.0
O213 O 0.25394 0.86732 0.08998 0.0
O214 O 0.23432 0.88939 0.12125 0.0
O215 O 0.31905 0.90017 0.98588 0.0
O216 O 0.29198 0.93361 0.08703 0.0
O217 O 0.24965 0.92128 0.11188 0.0
O218 O 0.18251 0.88663 0.04574 0.0
O219 O 0.25397 0.9187 0.97202 0.0
O220 O 0.29322 0.93485 0.01501 0.0
O221 O 0.19363 0.85781 0.03576 0.0
O222 O 0.22928 0.86748 0.99924 0.0
O223 O 0.27032 0.88303 0.96644 0.0
C224 C 0.24067 0.87155 0.1284 0.0
C225 C 0.36049 0.93793 0.99156 0.0
C226 C 0.4065 0.9702 0.98068 0.0
C227 C 0.39936 0.98553 0.94953 0.0
C228 C 0.35415 0.95373 0.96001 0.0
C229 C 0.37345 0.97728 0.93911 0.0
C230 C 0.38686 0.94614 1.00142 0.0
C231 C 0.27486 0.93724 0.1144 0.0
C232 C 0.33948 0.91383 0.01653 0.0
C233 C 0.2879 0.82092 0.185 0.0
C234 C 0.29562 0.84 0.22608 0.0
C235 C 0.27755 0.93757 0.98101 0.0
C236 C 0.15645 0.84645 0.08904 0.0
C237 C 0.11419 0.81072 0.11655 0.0
C238 C 0.12155 0.81664 0.17267 0.0
C239 C 0.16332 0.85202 0.14516 0.0
C240 C 0.13196 0.82582 0.07486 0.0
C241 C 0.14593 0.83715 0.1867 0.0
C242 C 0.24509 0.86967 0.95911 0.0
C243 C 0.17469 0.86207 0.04507 0.0
H244 H 0.41395 1.00396 0.93286 0.0
H245 H 0.3342 0.94796 0.95179 0.0
H246 H 0.36827 0.98931 0.915 0.0
H247 H 0.39201 0.93425 0.02612 0.0
H248 H 0.1083 0.8057 0.20581 0.0
H249 H 0.18205 0.86795 0.15672 0.0
H250 H 0.12688 0.82144 0.03138 0.0
H251 H 0.15129 0.84165 0.22997 0.0
Eu252 Eu 0.40829 0.11785 0.46043 0.0
C253 C 0.28977 0.07363 0.51064 0.0
N254 N 0.30291 0.08223 0.46187 0.0
C255 C 0.26851 0.04642 0.41342 0.0
C256 C 0.26558 0.05065 0.51259 0.0
C257 C 0.29208 0.06962 0.41328 0.0
C258 C 0.25528 0.0368 0.46334 0.0
C259 C 0.28607 0.08073 0.60897 0.0
C260 C 0.29984 0.08851 0.55842 0.0
C261 C 0.26223 0.05767 0.61107 0.0
C262 C 0.25203 0.04269 0.56306 0.0
Eu263 Eu 0.34212 0.12218 0.46693 0.0
N264 N 0.32291 0.11084 0.55535 0.0
C265 C 0.29652 0.09658 0.65578 0.0
C266 C 0.33221 0.12724 0.5996 0.0
C267 C 0.31959 0.12007 0.65091 0.0
H268 H 0.30093 0.0778 0.37397 0.0
H269 H 0.32738 0.13285 0.68634 0.0
H270 H 0.446 0.17498 0.52151 0.0
H271 H 0.41918 0.08091 0.25983 0.0
H272 H 0.34906 0.14604 0.59495 0.0
H273 H 0.28662 0.09119 0.69544 0.0
H274 H 0.40004 0.07815 0.3517 0.0
H275 H 0.26024 0.03636 0.37478 0.0
H276 H 0.2514 0.05137 0.64953 0.0
H277 H 0.23334 0.02527 0.5652 0.0
H278 H 0.48507 0.2166 0.49971 0.0
H279 H 0.23675 0.01909 0.46311 0.0
H280 H 0.45723 0.12177 0.22951 0.0
N281 N 0.4449 0.15839 0.44273 0.0
C282 C 0.45714 0.16084 0.3936 0.0
C283 C 0.47728 0.20116 0.46932 0.0
C284 C 0.47961 0.18416 0.37959 0.0
C285 C 0.45504 0.17769 0.48138 0.0
C286 C 0.4895 0.2045 0.41801 0.0
N287 N 0.42528 0.11775 0.37166 0.0
C288 C 0.41579 0.09645 0.3382 0.0
C289 C 0.45898 0.14224 0.30518 0.0
C290 C 0.44688 0.14006 0.35685 0.0
C291 C 0.44852 0.12084 0.26956 0.0
C292 C 0.42697 0.09779 0.2864 0.0
H293 H 0.50672 0.22272 0.40878 0.0
H294 H 0.50871 0.20423 0.31635 0.0
H295 H 0.49066 0.16757 0.25124 0.0
O296 O 0.43115 0.098 0.45839 0.0
O297 O 0.40811 0.15254 0.4189 0.0
O298 O 0.3661 0.13581 0.38885 0.0
O299 O 0.42796 0.11578 0.53506 0.0
O300 O 0.37364 0.08666 0.41298 0.0
O301 O 0.34635 0.10255 0.38904 0.0
O302 O 0.34321 0.15948 0.47155 0.0
O303 O 0.3506 0.09945 0.53167 0.0
O304 O 0.37103 0.08177 0.48393 0.0
O305 O 0.30883 0.12547 0.44294 0.0
O306 O 0.37914 0.15457 0.50428 0.0
O307 O 0.40029 0.1342 0.53862 0.0
C308 C 0.39072 0.15326 0.38623 0.0
C309 C 0.45427 0.09511 0.5404 0.0
C310 C 0.47652 0.07009 0.54806 0.0
C311 C 0.48578 0.08112 0.60052 0.0
C312 C 0.46392 0.10576 0.59311 0.0
C313 C 0.47956 0.09885 0.62273 0.0
C314 C 0.46079 0.07721 0.51769 0.0
C315 C 0.3552 0.08638 0.38211 0.0
C316 C 0.43755 0.10301 0.51048 0.0
C317 C 0.4915 0.18642 0.32795 0.0
C318 C 0.4812 0.16554 0.29085 0.0
C319 C 0.35312 0.07944 0.51892 0.0
C320 C 0.31568 0.1655 0.40918 0.0
C321 C 0.30763 0.20075 0.38658 0.0
C322 C 0.30412 0.19294 0.33058 0.0
C323 C 0.31208 0.15804 0.35302 0.0
C324 C 0.31338 0.18683 0.42574 0.0
C325 C 0.3062 0.17165 0.3141 0.0
C326 C 0.39379 0.15218 0.54175 0.0
C327 C 0.31999 0.15022 0.45156 0.0
H328 H 0.49782 0.07589 0.62446 0.0
H329 H 0.45943 0.11958 0.61158 0.0
H330 H 0.48685 0.10722 0.66326 0.0
H331 H 0.45348 0.06867 0.47725 0.0
H332 H 0.29939 0.20308 0.29964 0.0
H333 H 0.31364 0.1416 0.33934 0.0
H334 H 0.31596 0.1925 0.46914 0.0
H335 H 0.30336 0.16574 0.27092 0.0
Eu336 Eu 0.89886 0.29111 0.46237 0.0
C337 C 0.93638 0.20389 0.48946 0.0
N338 N 0.92609 0.20955 0.44501 0.0
C339 C 0.95287 0.20178 0.38309 0.0
C340 C 0.95573 0.19726 0.48232 0.0
C341 C 0.93322 0.20756 0.39215 0.0
C342 C 0.96437 0.19688 0.42842 0.0
C343 C 0.93466 0.19463 0.58813 0.0
C344 C 0.92605 0.20268 0.5418 0.0
C345 C 0.95469 0.18908 0.58157 0.0
C346 C 0.96519 0.19038 0.52881 0.0
Eu347 Eu 0.89377 0.21993 0.46522 0.0
N348 N 0.90628 0.20754 0.54675 0.0
C349 C 0.92216 0.19144 0.63922 0.0
C350 C 0.89254 0.20212 0.59483 0.0
C351 C 0.9007 0.19481 0.64226 0.0
H352 H 0.92387 0.21068 0.35693 0.0
H353 H 0.89011 0.19138 0.68064 0.0
H354 H 0.86053 0.28619 0.5725 0.0
H355 H 0.88785 0.30676 0.24324 0.0
H356 H 0.87516 0.20317 0.59613 0.0
H357 H 0.92827 0.18542 0.67586 0.0
H358 H 0.91026 0.30361 0.32656 0.0
H359 H 0.95894 0.20086 0.34119 0.0
H360 H 0.96173 0.1831 0.61677 0.0
H361 H 0.98015 0.18535 0.52418 0.0
H362 H 0.81729 0.27995 0.58811 0.0
H363 H 0.97936 0.19209 0.42125 0.0
H364 H 0.84393 0.30064 0.25193 0.0
N365 N 0.85783 0.28599 0.48397 0.0
C366 C 0.8443 0.28743 0.43987 0.0
C367 C 0.82447 0.28159 0.54614 0.0
C368 C 0.81966 0.28472 0.44729 0.0
C369 C 0.84886 0.28455 0.53688 0.0
C370 C 0.80962 0.28126 0.50112 0.0
N371 N 0.87935 0.29547 0.38113 0.0
C372 C 0.89119 0.30096 0.33058 0.0
C373 C 0.84197 0.29436 0.3409 0.0
C374 C 0.85547 0.29265 0.38724 0.0
C375 C 0.85375 0.29934 0.28857 0.0
C376 C 0.87853 0.30278 0.28346 0.0
H377 H 0.79079 0.27914 0.50852 0.0
H378 H 0.78704 0.28388 0.40607 0.0
H379 H 0.80643 0.29197 0.3129 0.0
O380 O 0.92174 0.33148 0.43492 0.0
O381 O 0.86886 0.25603 0.41019 0.0
O382 O 0.88848 0.23325 0.38209 0.0
O383 O 0.9091 0.32331 0.51979 0.0
O384 O 0.92879 0.28989 0.40615 0.0
O385 O 0.92431 0.24839 0.4042 0.0
O386 O 0.85238 0.19209 0.45977 0.0
O387 O 0.91612 0.24817 0.53387 0.0
O388 O 0.93351 0.28823 0.49316 0.0
O389 O 0.87991 0.17914 0.44912 0.0
O390 O 0.86494 0.22977 0.50371 0.0
O391 O 0.88711 0.2693 0.54421 0.0
C392 C 0.87285 0.24219 0.37252 0.0
C393 C 0.91598 0.36309 0.48248 0.0
C394 C 0.93139 0.40972 0.48832 0.0
C395 C 0.90556 0.40398 0.48501 0.0
C396 C 0.89053 0.35816 0.47929 0.0
C397 C 0.88541 0.37848 0.48044 0.0
C398 C 0.93647 0.38898 0.48653 0.0
C399 C 0.93563 0.27309 0.38917 0.0
C400 C 0.92119 0.34132 0.48277 0.0
C401 C 0.80606 0.28613 0.40111 0.0
C402 C 0.81715 0.29087 0.34807 0.0
C403 C 0.93583 0.2712 0.5238 0.0
C404 C 0.83991 0.155 0.40419 0.0
C405 C 0.80577 0.11213 0.37577 0.0
C406 C 0.8102 0.12034 0.32001 0.0
C407 C 0.84439 0.16271 0.34845 0.0
C408 C 0.82068 0.12978 0.41769 0.0
C409 C 0.82946 0.14547 0.3066 0.0
C410 C 0.86979 0.24465 0.54733 0.0
C411 C 0.85568 0.17258 0.4488 0.0
H412 H 0.9009 0.4193 0.48516 0.0
H413 H 0.87457 0.3386 0.47618 0.0
H414 H 0.86567 0.37444 0.4778 0.0
H415 H 0.95619 0.3929 0.48924 0.0
H416 H 0.79917 0.10719 0.28675 0.0
H417 H 0.85959 0.18189 0.33748 0.0
H418 H 0.81736 0.12391 0.46095 0.0
H419 H 0.83297 0.15155 0.26364 0.0
Eu420 Eu 0.72255 0.60898 0.45251 0.0
C421 C 0.80607 0.73549 0.46117 0.0
N422 N 0.80008 0.71822 0.41913 0.0
C423 C 0.79893 0.74832 0.35486 0.0
C424 C 0.80788 0.75966 0.45186 0.0
C425 C 0.79813 0.72498 0.36591 0.0
C426 C 0.80341 0.76559 0.39823 0.0
C427 C 0.82005 0.7479 0.55654 0.0
C428 C 0.81212 0.72975 0.51283 0.0
C429 C 0.82115 0.77164 0.54787 0.0
C430 C 0.81509 0.7775 0.49565 0.0
Eu431 Eu 0.79834 0.67884 0.44241 0.0
N432 N 0.81092 0.70666 0.52003 0.0
C433 C 0.82695 0.74174 0.60748 0.0
C434 C 0.81839 0.70089 0.56892 0.0
C435 C 0.82623 0.71816 0.61359 0.0
H436 H 0.79664 0.71277 0.33151 0.0
H437 H 0.83178 0.71331 0.6526 0.0
H438 H 0.74726 0.57605 0.51786 0.0
H439 H 0.66643 0.58627 0.26069 0.0
H440 H 0.8179 0.68279 0.5735 0.0
H441 H 0.83308 0.75514 0.6421 0.0
H442 H 0.69171 0.6137 0.33944 0.0
H443 H 0.7967 0.75323 0.31271 0.0
H444 H 0.82701 0.78575 0.58105 0.0
H445 H 0.8166 0.79615 0.48921 0.0
H446 H 0.7438 0.53333 0.51181 0.0
H447 H 0.80448 0.78387 0.38945 0.0
H448 H 0.65974 0.54214 0.25078 0.0
N449 N 0.72375 0.57018 0.44705 0.0
C450 C 0.70865 0.55342 0.40652 0.0
C451 C 0.73396 0.53882 0.48177 0.0
C452 C 0.706 0.52871 0.40182 0.0
C453 C 0.7361 0.56318 0.4848 0.0
C454 C 0.71883 0.5215 0.4402 0.0
N455 N 0.70038 0.58588 0.37228 0.0
C456 C 0.68963 0.5948 0.33469 0.0
C457 C 0.68209 0.54511 0.32406 0.0
C458 C 0.69676 0.56155 0.36798 0.0
C459 C 0.67114 0.55421 0.28511 0.0
C460 C 0.67498 0.57916 0.2904 0.0
H461 H 0.71724 0.50265 0.43803 0.0
H462 H 0.68855 0.49299 0.35474 0.0
H463 H 0.66768 0.50734 0.28674 0.0
O464 O 0.68118 0.59601 0.45572 0.0
O465 O 0.74654 0.60222 0.38705 0.0
O466 O 0.77077 0.64018 0.41509 0.0
O467 O 0.69908 0.58877 0.52549 0.0
O468 O 0.72735 0.64326 0.4 0.0
O469 O 0.77031 0.67052 0.36986 0.0
O470 O 0.83482 0.67941 0.45551 0.0
O471 O 0.77109 0.6746 0.51257 0.0
O472 O 0.72982 0.64947 0.47574 0.0
O473 O 0.82907 0.69542 0.38042 0.0
O474 O 0.79397 0.64358 0.48814 0.0
O475 O 0.75207 0.61947 0.52413 0.0
C476 C 0.76877 0.62246 0.38102 0.0
C477 C 0.65531 0.55708 0.50434 0.0
C478 C 0.60873 0.52595 0.4986 0.0
C479 C 0.61429 0.50574 0.49912 0.0
C480 C 0.66004 0.53633 0.50585 0.0
C481 C 0.63969 0.51092 0.50305 0.0
C482 C 0.62943 0.55176 0.50146 0.0
C483 C 0.74499 0.66131 0.36687 0.0
C484 C 0.6773 0.5841 0.50289 0.0
C485 C 0.6909 0.51211 0.3588 0.0
C486 C 0.67901 0.52028 0.32005 0.0
C487 C 0.74719 0.66957 0.50493 0.0
C488 C 0.87101 0.71608 0.4187 0.0
C489 C 0.91733 0.73587 0.43632 0.0
C490 C 0.91916 0.76028 0.43751 0.0
C491 C 0.8733 0.74062 0.42075 0.0
C492 C 0.89308 0.71378 0.42638 0.0
C493 C 0.89729 0.76257 0.42978 0.0
C494 C 0.77758 0.62954 0.52776 0.0
C495 C 0.84555 0.69279 0.41093 0.0
H496 H 0.59884 0.4858 0.49712 0.0
H497 H 0.67951 0.53968 0.50885 0.0
H498 H 0.64364 0.49512 0.5038 0.0
H499 H 0.62545 0.56756 0.50026 0.0
H500 H 0.93758 0.77766 0.4442 0.0
H501 H 0.85655 0.74286 0.41555 0.0
H502 H 0.89122 0.69479 0.42594 0.0
H503 H 0.89893 0.78143 0.43104 0.0
Eu504 Eu 0.8895 0.66945 0.94208 0.0
C505 C 0.84449 0.55665 0.93416 0.0
N506 N 0.85652 0.57345 0.97699 0.0
C507 C 0.81907 0.54918 0.0343 0.0
C508 C 0.81862 0.53648 0.93897 0.0
C509 C 0.84484 0.56853 0.02791 0.0
C510 C 0.80569 0.53347 0.98925 0.0
C511 C 0.84701 0.54057 0.84271 0.0
C512 C 0.85855 0.55836 0.88663 0.0
C513 C 0.82095 0.52129 0.84653 0.0
C514 C 0.8068 0.51925 0.89449 0.0
Eu515 Eu 0.90009 0.60606 0.95968 0.0
N516 N 0.88364 0.57754 0.88334 0.0
C517 C 0.86209 0.54256 0.79638 0.0
C518 C 0.8987 0.57916 0.83912 0.0
C519 C 0.8881 0.5618 0.79481 0.0
H520 H 0.85536 0.57874 0.06452 0.0
H521 H 0.89993 0.56335 0.75936 0.0
H522 H 0.93106 0.70488 0.83827 0.0
H523 H 0.87679 0.70204 0.14494 0.0
H524 H 0.91874 0.59427 0.83774 0.0
H525 H 0.8539 0.52923 0.76183 0.0
H526 H 0.86476 0.67246 0.06448 0.0
H527 H 0.80976 0.54596 0.07442 0.0
H528 H 0.81168 0.50756 0.81302 0.0
H529 H 0.78688 0.50384 0.89739 0.0
H530 H 0.9711 0.74653 0.82777 0.0
H531 H 0.78584 0.51823 0.9946 0.0
H532 H 0.91728 0.74426 0.14274 0.0
N533 N 0.92739 0.70966 0.92508 0.0
C534 C 0.93542 0.72687 0.96791 0.0
C535 C 0.9615 0.74108 0.8677 0.0
C536 C 0.95777 0.75143 0.96298 0.0
C537 C 0.93905 0.71712 0.87429 0.0
C538 C 0.97123 0.7581 0.91259 0.0
N539 N 0.89879 0.69693 0.0193 0.0
C540 C 0.8828 0.69045 0.06408 0.0
C541 C 0.92798 0.73818 0.06045 0.0
C542 C 0.92057 0.72047 0.01601 0.0
C543 C 0.91223 0.7312 0.1077 0.0
C544 C 0.88941 0.70733 0.10924 0.0
H545 H 0.98854 0.77673 0.90724 0.0
H546 H 0.9827 0.78776 0.00467 0.0
H547 H 0.95677 0.77605 0.09014 0.0
O548 O 0.85825 0.67804 0.95033 0.0
O549 O 0.9175 0.67267 0.00981 0.0
O550 O 0.93339 0.64539 0.98644 0.0
O551 O 0.87719 0.68343 0.87091 0.0
O552 O 0.86302 0.63526 0.99606 0.0
O553 O 0.88801 0.62052 0.03657 0.0
O554 O 0.92853 0.59358 0.94684 0.0
O555 O 0.88072 0.60993 0.88086 0.0
O556 O 0.86082 0.6277 0.92561 0.0
O557 O 0.90568 0.58207 0.02082 0.0
O558 O 0.93049 0.63901 0.9084 0.0
O559 O 0.91141 0.66203 0.87274 0.0
C560 C 0.93611 0.66703 0.00779 0.0
C561 C 0.8596 0.71036 0.8926 0.0
C562 C 0.83442 0.73228 0.89325 0.0
C563 C 0.85733 0.75597 0.88512 0.0
C564 C 0.88226 0.73416 0.88464 0.0
C565 C 0.88104 0.75683 0.88063 0.0
C566 C 0.83575 0.70949 0.89647 0.0
C567 C 0.87068 0.62804 0.0403 0.0
C568 C 0.86029 0.68631 0.89962 0.0
C569 C 0.96551 0.76888 0.00767 0.0
C570 C 0.95067 0.76227 0.05626 0.0
C571 C 0.86298 0.61661 0.88104 0.0
C572 C 0.91726 0.55259 0.98281 0.0
C573 C 0.93272 0.52163 0.97387 0.0
C574 C 0.90732 0.50221 0.9614 0.0
C575 C 0.89214 0.53267 0.97072 0.0
C576 C 0.93757 0.54694 0.98494 0.0
C577 C 0.88726 0.5077 0.96008 0.0
C578 C 0.93001 0.65614 0.87454 0.0
C579 C 0.92226 0.57928 0.99096 0.0
H580 H 0.85688 0.77382 0.88213 0.0
H581 H 0.90083 0.73527 0.88194 0.0
H582 H 0.89856 0.77516 0.8745 0.0
H583 H 0.81833 0.69113 0.90366 0.0
H584 H 0.90291 0.48259 0.95329 0.0
H585 H 0.87625 0.5364 0.96942 0.0
H586 H 0.95705 0.56222 0.99406 0.0
H587 H 0.8678 0.49251 0.95069 0.0
Eu588 Eu 0.34828 0.22921 0.97039 0.0
C589 C 0.459 0.29846 0.88829 0.0
N590 N 0.44765 0.29086 0.93909 0.0
C591 C 0.4761 0.2749 0.96222 0.0
C592 C 0.47873 0.29353 0.87168 0.0
C593 C 0.45654 0.28011 0.97678 0.0
C594 C 0.48705 0.28135 0.90924 0.0
C595 C 0.46188 0.31903 0.79961 0.0
C596 C 0.45064 0.31102 0.85268 0.0
C597 C 0.48098 0.31345 0.78226 0.0
C598 C 0.48941 0.30078 0.81825 0.0
Eu599 Eu 0.41449 0.30027 0.95943 0.0
N600 N 0.43216 0.31618 0.8706 0.0
C601 C 0.454 0.33294 0.76604 0.0
C602 C 0.42576 0.33124 0.83969 0.0
C603 C 0.43616 0.33944 0.78658 0.0
H604 H 0.44881 0.2757 0.01828 0.0
H605 H 0.43071 0.35108 0.76191 0.0
H606 H 0.30966 0.21537 0.85966 0.0
H607 H 0.32309 0.20946 0.19039 0.0
H608 H 0.41324 0.33761 0.85689 0.0
H609 H 0.46217 0.33945 0.72503 0.0
H610 H 0.35174 0.22214 0.1085 0.0
H611 H 0.48283 0.26602 0.99201 0.0
H612 H 0.48966 0.31925 0.74145 0.0
H613 H 0.50437 0.29687 0.80453 0.0
H614 H 0.26396 0.20164 0.83987 0.0
H615 H 0.50213 0.2772 0.89805 0.0
H616 H 0.27751 0.19802 0.17896 0.0
N617 N 0.3053 0.21618 0.94719 0.0
C618 C 0.28881 0.21063 0.99059 0.0
C619 C 0.27072 0.2042 0.88239 0.0
C620 C 0.26241 0.20177 0.98123 0.0
C621 C 0.29656 0.21217 0.89367 0.0
C622 C 0.25361 0.19922 0.92636 0.0
N623 N 0.32318 0.21909 0.05207 0.0
C624 C 0.33203 0.21741 0.1033 0.0
C625 C 0.28075 0.20421 0.08989 0.0
C626 C 0.29794 0.21192 0.04442 0.0
C627 C 0.2901 0.2038 0.14302 0.0
C628 C 0.31581 0.21021 0.14966 0.0
H629 H 0.23352 0.19272 0.91752 0.0
H630 H 0.2252 0.18841 0.02025 0.0
H631 H 0.24125 0.19055 0.11527 0.0
O632 O 0.36305 0.20271 0.95608 0.0
O633 O 0.358 0.25986 0.03644 0.0
O634 O 0.37832 0.29898 0.9922 0.0
O635 O 0.32232 0.18739 0.96781 0.0
O636 O 0.38707 0.23793 0.00467 0.0
O637 O 0.40886 0.27843 0.04093 0.0
O638 O 0.43559 0.34314 0.95515 0.0
O639 O 0.40827 0.26376 0.91262 0.0
O640 O 0.36577 0.24231 0.88606 0.0
O641 O 0.4398 0.3235 0.02724 0.0
O642 O 0.38042 0.29843 0.91059 0.0
O643 O 0.34449 0.25606 0.90766 0.0
C644 C 0.35999 0.28226 0.02509 0.0
C645 C 0.33451 0.16331 0.91095 0.0
C646 C 0.32353 0.1199 0.88035 0.0
C647 C 0.32047 0.12652 0.82589 0.0
C648 C 0.33112 0.16936 0.85649 0.0
C649 C 0.32425 0.15107 0.8142 0.0
C650 C 0.33085 0.13863 0.92274 0.0
C651 C 0.39943 0.25337 0.04613 0.0
C652 C 0.34031 0.18202 0.95625 0.0
C653 C 0.2455 0.19506 0.02665 0.0
C654 C 0.25465 0.1963 0.08078 0.0
C655 C 0.39012 0.25037 0.87536 0.0
C656 C 0.46473 0.37071 0.02971 0.0
C657 C 0.48432 0.41783 0.04008 0.0
C658 C 0.49851 0.41693 0.08562 0.0
C659 C 0.4794 0.37071 0.07535 0.0
C660 C 0.46752 0.39459 0.01153 0.0
C661 C 0.49617 0.39362 0.1028 0.0
C662 C 0.35681 0.2809 0.89344 0.0
C663 C 0.44635 0.34549 0.00334 0.0
H664 H 0.31512 0.11268 0.7923 0.0
H665 H 0.33338 0.18807 0.84698 0.0
H666 H 0.32157 0.15582 0.77228 0.0
H667 H 0.33287 0.13376 0.96514 0.0
H668 H 0.51151 0.43444 0.10804 0.0
H669 H 0.47788 0.35288 0.09012 0.0
H670 H 0.4563 0.39502 0.97666 0.0
H671 H 0.5073 0.39327 0.13793 0.0
Eu672 Eu 0.79584 0.12415 0.95114 0.0
C673 C 0.71598 0.16928 0.94555 0.0
N674 N 0.72258 0.15701 0.98447 0.0
C675 C 0.72944 0.1896 0.05162 0.0
C676 C 0.7172 0.19297 0.95776 0.0
C677 C 0.72745 0.16594 0.03796 0.0
C678 C 0.72479 0.20343 0.01108 0.0
C679 C 0.69826 0.16902 0.85425 0.0
C680 C 0.7062 0.15731 0.89446 0.0
C681 C 0.70045 0.19306 0.86568 0.0
C682 C 0.70989 0.20499 0.91726 0.0
Eu683 Eu 0.71858 0.11714 0.95545 0.0
N684 N 0.70471 0.13422 0.88387 0.0
C685 C 0.68819 0.1561 0.80382 0.0
C686 C 0.69417 0.12112 0.83559 0.0
C687 C 0.68596 0.13198 0.79464 0.0
H688 H 0.72924 0.1547 0.07089 0.0
H689 H 0.67794 0.12176 0.75604 0.0
H690 H 0.79566 0.0817 0.85791 0.0
H691 H 0.82964 0.14111 0.16543 0.0
H692 H 0.69251 0.10247 0.82867 0.0
H693 H 0.68184 0.16447 0.77193 0.0
H694 H 0.81708 0.15154 0.07529 0.0
H695 H 0.734 0.19686 0.09377 0.0
H696 H 0.69456 0.20243 0.8352 0.0
H697 H 0.71091 0.22328 0.92588 0.0
H698 H 0.79935 0.04246 0.85792 0.0
H699 H 0.72597 0.22157 0.02205 0.0
H700 H 0.83207 0.10122 0.17511 0.0
N701 N 0.80075 0.08732 0.94545 0.0
C702 C 0.80747 0.08012 0.99325 0.0
C703 C 0.80142 0.05271 0.89641 0.0
C704 C 0.81048 0.05819 0.99489 0.0
C705 C 0.79898 0.07478 0.89676 0.0
C706 C 0.80684 0.04416 0.94585 0.0
N707 N 0.8104 0.11692 0.0365 0.0
C708 C 0.81726 0.13372 0.07994 0.0
C709 C 0.82046 0.08909 0.08999 0.0
C710 C 0.8126 0.09545 0.04007 0.0
C711 C 0.82613 0.1055 0.13588 0.0
C712 C 0.82475 0.12805 0.13062 0.0
H713 H 0.80895 0.02718 0.94537 0.0
H714 H 0.82 0.03457 0.04699 0.0
H715 H 0.82853 0.06151 0.13038 0.0
O716 O 0.83364 0.16021 0.95553 0.0
O717 O 0.76795 0.10163 0.02015 0.0
O718 O 0.72673 0.08499 0.9822 0.0
O719 O 0.8234 0.13477 0.88315 0.0
O720 O 0.78969 0.15564 0.98925 0.0
O721 O 0.74837 0.13285 0.02719 0.0
O722 O 0.67819 0.08761 0.93953 0.0
O723 O 0.74247 0.14457 0.88514 0.0
O724 O 0.76727 0.13269 0.91946 0.0
O725 O 0.68868 0.10588 0.01939 0.0
O726 O 0.7237 0.0906 0.89332 0.0
O727 O 0.76596 0.09569 0.88796 0.0
C728 C 0.74445 0.0824 0.01017 0.0
C729 C 0.86618 0.17323 0.8814 0.0
C730 C 0.91011 0.21058 0.88378 0.0
C731 C 0.91432 0.20424 0.8301 0.0
C732 C 0.8713 0.16711 0.82826 0.0
C733 C 0.89516 0.18247 0.80301 0.0
C734 C 0.88592 0.19497 0.90957 0.0
C735 C 0.7726 0.15238 0.02796 0.0
C736 C 0.84084 0.15576 0.90764 0.0
C737 C 0.81774 0.05143 0.04485 0.0
C738 C 0.82269 0.06682 0.09231 0.0
C739 C 0.76487 0.14678 0.88185 0.0
C740 C 0.64657 0.0934 0.98602 0.0
C741 C 0.59954 0.07524 0.98119 0.0
C742 C 0.60363 0.1005 0.97848 0.0
C743 C 0.6498 0.11831 0.9842 0.0
C744 C 0.62122 0.07174 0.98522 0.0
C745 C 0.62852 0.1218 0.98029 0.0
C746 C 0.7411 0.08492 0.87313 0.0
C747 C 0.66967 0.09024 0.9873 0.0
H748 H 0.93284 0.21568 0.80986 0.0
H749 H 0.85699 0.15009 0.80641 0.0
H750 H 0.89901 0.17712 0.76276 0.0
H751 H 0.88267 0.19956 0.95129 0.0
H752 H 0.58742 0.10378 0.97566 0.0
H753 H 0.66881 0.13516 0.98591 0.0
H754 H 0.6184 0.05238 0.98679 0.0
H755 H 0.63135 0.14114 0.97868 0.0
Eu756 Eu 0.67819 0.88861 0.54768 0.0
C757 C 0.55385 0.84375 0.54037 0.0
N758 N 0.57358 0.85637 0.50344 0.0
C759 C 0.54938 0.82433 0.43402 0.0
C760 C 0.53176 0.82005 0.52615 0.0
C761 C 0.57062 0.84796 0.44961 0.0
C762 C 0.53012 0.81002 0.47279 0.0
C763 C 0.53411 0.84336 0.62913 0.0
C764 C 0.55473 0.8554 0.59114 0.0
C765 C 0.5127 0.81925 0.61592 0.0
C766 C 0.51152 0.80763 0.5646 0.0
Eu767 Eu 0.60867 0.89612 0.53563 0.0
N768 N 0.5758 0.87864 0.60335 0.0
C769 C 0.53548 0.85608 0.67906 0.0
C770 C 0.57687 0.89162 0.65098 0.0
C771 C 0.55685 0.88039 0.68981 0.0
H772 H 0.58419 0.8596 0.41783 0.0
H773 H 0.55792 0.89047 0.72799 0.0
H774 H 0.71969 0.93246 0.64037 0.0
H775 H 0.69743 0.86957 0.33664 0.0
H776 H 0.59352 0.91037 0.65928 0.0
H777 H 0.52 0.84744 0.70926 0.0
H778 H 0.674 0.85941 0.42635 0.0
H779 H 0.54759 0.81746 0.39169 0.0
H780 H 0.49673 0.80963 0.64472 0.0
H781 H 0.49456 0.78934 0.55446 0.0
H782 H 0.76193 0.97258 0.63953 0.0
H783 H 0.51349 0.7919 0.46031 0.0
H784 H 0.73908 0.91014 0.32628 0.0
N785 N 0.71961 0.92602 0.55323 0.0
C786 C 0.73382 0.93293 0.50581 0.0
C787 C 0.75412 0.96179 0.60144 0.0
C788 C 0.75837 0.95541 0.50371 0.0
C789 C 0.72999 0.9392 0.60153 0.0
C790 C 0.76819 0.9702 0.55208 0.0
N791 N 0.70105 0.89482 0.46401 0.0
C792 C 0.69173 0.87749 0.42139 0.0
C793 C 0.73878 0.92301 0.41033 0.0
C794 C 0.72432 0.9168 0.45991 0.0
C795 C 0.72868 0.90597 0.36527 0.0
C796 C 0.70515 0.883 0.371 0.0
H797 H 0.78695 0.98763 0.55218 0.0
H798 H 0.79142 0.97929 0.45153 0.0
H799 H 0.77412 0.95107 0.36956 0.0
O800 O 0.68539 0.85577 0.54808 0.0
O801 O 0.67462 0.91206 0.47806 0.0
O802 O 0.64933 0.92858 0.51255 0.0
O803 O 0.69031 0.87817 0.62387 0.0
O804 O 0.64174 0.85708 0.50556 0.0
O805 O 0.62395 0.88026 0.46597 0.0
O806 O 0.59671 0.925 0.54952 0.0
O807 O 0.60456 0.87054 0.61009 0.0
O808 O 0.6392 0.87763 0.57186 0.0
O809 O 0.59278 0.90863 0.46839 0.0
O810 O 0.63913 0.92221 0.60009 0.0
O811 O 0.67615 0.91721 0.60841 0.0
C812 C 0.67001 0.93117 0.48631 0.0
C813 C 0.70026 0.84352 0.63207 0.0
C814 C 0.70915 0.80777 0.63905 0.0
C815 C 0.7134 0.81258 0.6964 0.0
C816 C 0.70511 0.84808 0.68926 0.0
C817 C 0.71153 0.83269 0.72107 0.0
C818 C 0.70274 0.82352 0.60677 0.0
C819 C 0.62856 0.86065 0.46568 0.0
C820 C 0.69221 0.85954 0.60029 0.0
C821 C 0.77261 0.96199 0.45405 0.0
C822 C 0.76281 0.94587 0.40743 0.0
C823 C 0.62341 0.86611 0.61253 0.0
C824 C 0.56148 0.91996 0.49485 0.0
C825 C 0.53263 0.93813 0.48986 0.0
C826 C 0.51167 0.91298 0.48215 0.0
C827 C 0.54007 0.89517 0.48715 0.0
C828 C 0.55764 0.94147 0.49684 0.0
C829 C 0.5154 0.89175 0.48105 0.0
C830 C 0.66182 0.92774 0.62206 0.0
C831 C 0.58772 0.92332 0.49967 0.0
H832 H 0.71852 0.80094 0.72207 0.0
H833 H 0.70366 0.86343 0.70975 0.0
H834 H 0.71489 0.83635 0.76513 0.0
H835 H 0.69917 0.81983 0.56263 0.0
H836 H 0.49224 0.90967 0.47754 0.0
H837 H 0.54241 0.8784 0.48532 0.0
H838 H 0.57404 0.96071 0.50264 0.0
H839 H 0.49905 0.87251 0.4752 0.0
Eu840 Eu 0.13126 0.79248 0.56826 0.0
C841 C 0.16618 0.70342 0.57653 0.0
N842 N 0.16171 0.71791 0.53909 0.0
C843 C 0.20236 0.73068 0.49511 0.0
C844 C 0.18952 0.70295 0.57571 0.0
C845 C 0.17895 0.73052 0.49733 0.0
C846 C 0.2078 0.71706 0.53475 0.0
C847 C 0.15187 0.6746 0.65654 0.0
C848 C 0.14743 0.68909 0.61635 0.0
C849 C 0.17513 0.67423 0.65571 0.0
C850 C 0.19387 0.68832 0.61541 0.0
Eu851 Eu 0.12053 0.71447 0.54613 0.0
N852 N 0.12528 0.69023 0.61722 0.0
C853 C 0.13287 0.66111 0.69679 0.0
C854 C 0.1066 0.67699 0.65589 0.0
C855 C 0.11014 0.6623 0.69641 0.0
H856 H 0.17464 0.73982 0.46431 0.0
H857 H 0.09529 0.65181 0.72713 0.0
H858 H 0.09568 0.79309 0.67665 0.0
H859 H 0.13978 0.83211 0.36026 0.0
H860 H 0.0888 0.67745 0.65481 0.0
H861 H 0.13557 0.64975 0.72833 0.0
H862 H 0.15302 0.81576 0.44116 0.0
H863 H 0.21604 0.74096 0.46219 0.0
H864 H 0.17887 0.66317 0.68619 0.0
H865 H 0.21171 0.68779 0.61533 0.0
H866 H 0.05926 0.80049 0.69346 0.0
H867 H 0.22593 0.71715 0.53269 0.0
H868 H 0.10189 0.83796 0.36749 0.0
N869 N 0.09664 0.79952 0.58933 0.0
C870 C 0.08818 0.8084 0.54706 0.0
C871 C 0.06701 0.80251 0.65194 0.0
C872 C 0.06783 0.81356 0.55514 0.0
C873 C 0.08743 0.79799 0.64202 0.0
C874 C 0.05688 0.80994 0.60812 0.0
N875 N 0.12156 0.81036 0.49114 0.0
C876 C 0.13599 0.81749 0.44379 0.0
C877 C 0.09341 0.82424 0.4524 0.0
C878 C 0.10103 0.81403 0.49656 0.0
C879 C 0.10729 0.83032 0.40257 0.0
C880 C 0.12877 0.82707 0.39837 0.0
H881 H 0.0412 0.81365 0.616 0.0
H882 H 0.04404 0.827 0.51616 0.0
H883 H 0.06624 0.83605 0.42601 0.0
O884 O 0.16505 0.83204 0.56604 0.0
O885 O 0.1072 0.76726 0.4966 0.0
O886 O 0.08898 0.72438 0.52575 0.0
O887 O 0.14622 0.81422 0.64493 0.0
O888 O 0.16106 0.78693 0.5203 0.0
O889 O 0.13847 0.74614 0.47826 0.0
O890 O 0.09032 0.67294 0.53938 0.0
O891 O 0.14667 0.73375 0.62134 0.0
O892 O 0.14056 0.76265 0.5866 0.0
O893 O 0.11646 0.69282 0.4704 0.0
O894 O 0.09321 0.71833 0.60772 0.0
O895 O 0.10235 0.76128 0.62729 0.0
C896 C 0.08735 0.74371 0.50275 0.0
C897 C 0.18197 0.8584 0.65095 0.0
C898 C 0.21915 0.90231 0.65585 0.0
C899 C 0.2167 0.90158 0.71396 0.0
C900 C 0.17941 0.85874 0.70894 0.0
C901 C 0.1968 0.88003 0.74018 0.0
C902 C 0.20166 0.88059 0.62426 0.0
C903 C 0.15618 0.77118 0.47752 0.0
C904 C 0.16392 0.8348 0.61962 0.0
C905 C 0.05974 0.82309 0.51084 0.0
C906 C 0.07247 0.82837 0.45958 0.0
C907 C 0.15181 0.75723 0.62597 0.0
C908 C 0.08509 0.6474 0.45432 0.0
C909 C 0.05634 0.60061 0.4404 0.0
C910 C 0.06279 0.60403 0.38363 0.0
C911 C 0.09095 0.64985 0.39727 0.0
C912 C 0.06778 0.62249 0.47606 0.0
C913 C 0.07993 0.62837 0.36243 0.0
C914 C 0.08955 0.73575 0.63479 0.0
C915 C 0.0975 0.67119 0.4893 0.0
H916 H 0.2299 0.91801 0.73901 0.0
H917 H 0.16404 0.84236 0.73028 0.0
H918 H 0.19486 0.87978 0.78491 0.0
H919 H 0.20359 0.88089 0.57944 0.0
H920 H 0.05465 0.58768 0.35544 0.0
H921 H 0.10408 0.66851 0.37921 0.0
H922 H 0.06303 0.62019 0.51991 0.0
H923 H 0.08468 0.63061 0.31861 0.0
Eu924 Eu 0.22523 0.34243 0.56546 0.0
C925 C 0.29532 0.45563 0.57185 0.0
N926 N 0.2915 0.43858 0.53015 0.0
C927 C 0.28144 0.46349 0.46719 0.0
C928 C 0.29055 0.47625 0.56336 0.0
C929 C 0.28688 0.44369 0.4773 0.0
C930 C 0.28265 0.47946 0.51072 0.0
C931 C 0.31086 0.47166 0.6652 0.0
C932 C 0.30567 0.45363 0.62222 0.0
C933 C 0.30496 0.49139 0.65753 0.0
C934 C 0.29482 0.49367 0.6068 0.0
Eu935 Eu 0.30023 0.40501 0.55399 0.0
N936 N 0.31062 0.43396 0.62931 0.0
C937 C 0.32203 0.46944 0.71456 0.0
C938 C 0.32216 0.43205 0.67677 0.0
C939 C 0.32791 0.44969 0.72015 0.0
H940 H 0.28801 0.43315 0.4421 0.0
H941 H 0.33664 0.44791 0.75804 0.0
H942 H 0.22937 0.30651 0.67087 0.0
H943 H 0.18442 0.31104 0.35858 0.0
H944 H 0.32627 0.41647 0.68138 0.0
H945 H 0.32632 0.48294 0.74845 0.0
H946 H 0.20047 0.34031 0.43982 0.0
H947 H 0.27695 0.46682 0.42549 0.0
H948 H 0.3086 0.50528 0.69026 0.0
H949 H 0.29099 0.50942 0.60106 0.0
H950 H 0.2279 0.26499 0.68225 0.0
H951 H 0.2788 0.49503 0.50256 0.0
H952 H 0.18222 0.26865 0.36227 0.0
N953 N 0.22267 0.30221 0.58342 0.0
C954 C 0.2143 0.2852 0.54017 0.0
C955 C 0.22446 0.2706 0.6418 0.0
C956 C 0.21207 0.26066 0.54553 0.0
C957 C 0.22595 0.29452 0.63475 0.0
C958 C 0.21803 0.25381 0.59669 0.0
N959 N 0.20877 0.31545 0.48706 0.0
C960 C 0.20032 0.32222 0.44096 0.0
C961 C 0.19726 0.27429 0.44615 0.0
C962 C 0.20676 0.29182 0.49105 0.0
C963 C 0.18956 0.28155 0.39771 0.0
C964 C 0.19088 0.30553 0.39533 0.0
H965 H 0.21668 0.23519 0.60238 0.0
H966 H 0.20152 0.22456 0.50376 0.0
H967 H 0.1887 0.23655 0.41673 0.0
O968 O 0.18596 0.33475 0.55184 0.0
O969 O 0.25147 0.33936 0.50088 0.0
O970 O 0.294 0.36534 0.53036 0.0
O971 O 0.19669 0.32728 0.63255 0.0
O972 O 0.23494 0.37743 0.51259 0.0
O973 O 0.27504 0.39131 0.475 0.0
O974 O 0.34087 0.42025 0.57582 0.0
O975 O 0.27522 0.40175 0.62925 0.0
O976 O 0.23797 0.38413 0.58231 0.0
O977 O 0.33142 0.42578 0.49329 0.0
O978 O 0.29526 0.3713 0.60655 0.0
O979 O 0.25253 0.34989 0.63889 0.0
C980 C 0.27551 0.34445 0.50574 0.0
C981 C 0.15291 0.30136 0.60387 0.0
C982 C 0.10592 0.27995 0.59627 0.0
C983 C 0.10466 0.25594 0.60242 0.0
C984 C 0.15127 0.27725 0.60977 0.0
C985 C 0.12719 0.25467 0.60932 0.0
C986 C 0.13022 0.30264 0.59753 0.0
C987 C 0.25043 0.38443 0.46945 0.0
C988 C 0.178 0.32538 0.60125 0.0
C989 C 0.20318 0.24341 0.50043 0.0
C990 C 0.19576 0.25018 0.45095 0.0
C991 C 0.25088 0.39538 0.62719 0.0
C992 C 0.36922 0.42264 0.50541 0.0
C993 C 0.4144 0.43351 0.49416 0.0
C994 C 0.40555 0.40876 0.47148 0.0
C995 C 0.36108 0.39815 0.48259 0.0
C996 C 0.39597 0.44043 0.5107 0.0
C997 C 0.37916 0.39134 0.46561 0.0
C998 C 0.2767 0.35484 0.63981 0.0
C999 C 0.34988 0.42901 0.52678 0.0
H1000 H 0.08622 0.23814 0.60205 0.0
H1001 H 0.16851 0.27584 0.61428 0.0
H1002 H 0.126 0.23609 0.61389 0.0
H1003 H 0.13158 0.32128 0.59193 0.0
H1004 H 0.41913 0.40291 0.45792 0.0
H1005 H 0.34072 0.38421 0.47837 0.0
H1006 H 0.40238 0.45926 0.52898 0.0
H1007 H 0.37269 0.37236 0.44816 0.0
C1008 C 0.03938 0.47515 0.97334 0.0
C1009 C 0.02606 0.44943 0.99189 0.0
C1010 C 0.02734 0.49031 0.97226 0.0
C1011 C 1.00143 0.47962 0.99064 0.0
C1012 C 0.98842 0.45409 0.01193 0.0
C1013 C 1.00081 0.43936 0.01211 0.0
C1014 C 0.04195 0.51737 0.94913 0.0
C1015 C 0.96097 0.4419 0.03265 0.0
C1016 C 0.96931 0.51985 0.02198 0.0
C1017 C 0.95351 0.51473 0.97509 0.0
C1018 C 0.98594 0.50956 0.02678 0.0
C1019 C 0.98699 0.49398 0.98344 0.0
C1020 C 0.97218 0.4901 0.93467 0.0
C1021 C 0.95562 0.50038 0.93125 0.0
C1022 C 1.0013 0.51419 0.07951 0.0
C1023 C 0.97284 0.47398 0.88703 0.0
H1024 H 0.05884 0.48307 0.95745 0.0
H1025 H 0.99051 0.41967 0.02739 0.0
H1026 H 0.03325 0.51809 0.90891 0.0
H1027 H 0.04049 0.53116 0.97768 0.0
H1028 H 0.06267 0.52386 0.94217 0.0
H1029 H 0.95425 0.42267 0.05187 0.0
H1030 H 0.9592 0.45464 0.06374 0.0
H1031 H 0.94792 0.43949 0.99753 0.0
H1032 H 0.96767 0.53078 0.05616 0.0
H1033 H 0.94366 0.49656 0.89464 0.0
H1034 H 0.02167 0.52025 0.06977 0.0
H1035 H 0.9932 0.49593 0.10352 0.0
H1036 H 1.00089 0.52917 0.10618 0.0
H1037 H 0.99307 0.48063 0.87464 0.0
H1038 H 0.9621 0.47477 0.85012 0.0
H1039 H 0.96413 0.45353 0.90039 0.0
C1040 C 0.5011 0.45689 0.97803 0.0
C1041 C 0.48716 0.44335 0.02525 0.0
C1042 C 0.50837 0.4831 0.96998 0.0
C1043 C 0.50142 0.49605 0.00997 0.0
C1044 C 0.48639 0.48199 0.05648 0.0
C1045 C 0.47966 0.456 0.06372 0.0
C1046 C 0.52445 0.49724 0.91997 0.0
C1047 C 0.47817 0.49469 0.09984 0.0
C1048 C 0.54058 0.56949 0.03012 0.0
C1049 C 0.5248 0.5777 0.0046 0.0
C1050 C 0.53368 0.54317 0.03044 0.0
C1051 C 0.51042 0.52441 0.00464 0.0
C1052 C 0.49494 0.53271 0.97703 0.0
C1053 C 0.5023 0.5591 0.97724 0.0
C1054 C 0.55089 0.53533 0.06019 0.0
C1055 C 0.47008 0.51357 0.94876 0.0
H1056 H 0.50739 0.44735 0.94882 0.0
H1057 H 0.46917 0.44567 0.10062 0.0
H1058 H 0.51564 0.5071 0.89747 0.0
H1059 H 0.54393 0.51239 0.93376 0.0
H1060 H 0.52664 0.48409 0.89066 0.0
H1061 H 0.46533 0.48078 0.13181 0.0
H1062 H 0.49546 0.51032 0.12091 0.0
H1063 H 0.46789 0.5037 0.0799 0.0
H1064 H 0.55787 0.5835 0.05173 0.0
H1065 H 0.49017 0.56515 0.95636 0.0
H1066 H 0.55558 0.52342 0.03243 0.0
H1067 H 0.54061 0.52328 0.09682 0.0
H1068 H 0.5692 0.55227 0.07458 0.0
H1069 H 0.47361 0.50147 0.91906 0.0
H1070 H 0.46106 0.5232 0.92598 0.0
H1071 H 0.45615 0.5004 0.98022 0.0
C1072 C 0.56169 0.03654 0.02528 0.0
C1073 C 0.57238 0.05325 0.97976 0.0
C1074 C 0.53478 0.01937 0.02906 0.0
C1075 C 0.5182 0.01875 0.98608 0.0
C1076 C 0.52925 0.03443 0.93843 0.0
C1077 C 0.55606 0.05153 0.93608 0.0
C1078 C 0.52398 1.00314 0.08066 0.0
C1079 C 0.51259 0.03431 0.89116 0.0
C1080 C 0.4468 0.96686 0.97216 0.0
C1081 C 0.43456 0.98023 0.99111 0.0
C1082 C 0.47401 0.97858 0.97264 0.0
C1083 C 0.48933 1.00419 0.99303 0.0
C1084 C 0.47685 0.01704 0.01535 0.0
C1085 C 0.44976 1.00502 0.01376 0.0
C1086 C 0.48637 0.96414 0.94831 0.0
C1087 C 0.49217 0.04413 0.0383 0.0
H1088 H 0.57416 0.03799 0.05945 0.0
H1089 H 0.56424 0.06442 0.90081 0.0
H1090 H 0.51406 0.01102 0.10622 0.0
H1091 H 0.50944 0.98297 0.06959 0.0
H1092 H 0.53931 1.00294 0.10633 0.0
H1093 H 0.52423 0.04546 0.85472 0.0
H1094 H 0.49898 0.0142 0.87775 0.0
H1095 H 0.50089 0.0429 0.90538 0.0
H1096 H 0.43518 0.9478 0.95415 0.0
H1097 H 0.4404 0.01541 0.02864 0.0
H1098 H 0.5018 0.96554 0.97614 0.0
H1099 H 0.49553 0.97302 0.90801 0.0
H1100 H 0.4721 0.94342 0.9411 0.0
H1101 H 0.50669 0.0454 0.06873 0.0
H1102 H 0.47966 0.05047 0.05897 0.0
H1103 H 0.50279 0.0578 0.00405 0.0
C1104 C 0.46975 0.02539 0.5476 0.0
C1105 C 0.48324 0.05076 0.52745 0.0
C1106 C 0.47863 0.00793 0.5377 0.0
C1107 C 0.50176 0.01608 0.50728 0.0
C1108 C 0.51505 0.04155 0.48549 0.0
C1109 C 0.50568 0.05861 0.49604 0.0
C1110 C 0.46372 0.98102 0.56157 0.0
C1111 C 0.53968 0.05107 0.45273 0.0
C1112 C 0.53672 0.97824 0.53457 0.0
C1113 C 0.52768 0.9603 0.49083 0.0
C1114 C 0.52906 0.99697 0.5396 0.0
C1115 C 0.51217 0.99804 0.49958 0.0
C1116 C 0.50402 0.98075 0.45391 0.0
C1117 C 0.51174 0.9621 0.45026 0.0
C1118 C 0.53818 0.01493 0.58905 0.0
C1119 C 0.48636 0.98133 0.40983 0.0
H1120 H 0.4527 0.0195 0.57288 0.0
H1121 H 0.51644 0.07842 0.48155 0.0
H1122 H 0.45875 0.96645 0.5282 0.0
H1123 H 0.47587 0.97811 0.59229 0.0
H1124 H 0.44563 0.97735 0.58239 0.0
H1125 H 0.54675 0.07071 0.43544 0.0
H1126 H 0.55491 0.0516 0.47993 0.0
H1127 H 0.53667 0.03762 0.41802 0.0
H1128 H 0.54886 0.97688 0.56628 0.0
H1129 H 0.50488 0.94848 0.41597 0.0
H1130 H 0.52144 0.01091 0.61568 0.0
H1131 H 0.54708 0.0353 0.57511 0.0
H1132 H 0.55245 0.01277 0.61461 0.0
H1133 H 0.46729 0.97572 0.42839 0.0
H1134 H 0.4834 0.96802 0.37477 0.0
H1135 H 0.49438 1.0012 0.3932 0.0
C1136 C 0.01434 0.55919 0.43072 0.0
C1137 C 0.03753 0.5739 0.45999 0.0
C1138 C 0.99815 0.53267 0.44105 0.0
C1139 C 1.00517 0.5202 0.48181 0.0
C1140 C 0.02803 0.53516 0.5133 0.0
C1141 C 0.04393 0.56184 0.50209 0.0
C1142 C 0.97389 0.51779 0.40683 0.0
C1143 C 0.03623 0.52278 0.5573 0.0
C1144 C 0.94952 0.45468 0.52742 0.0
C1145 C 0.9525 0.43744 0.49257 0.0
C1146 C 0.96725 0.48143 0.52665 0.0
C1147 C 0.98864 0.49148 0.48999 0.0
C1148 C 0.99253 0.47405 0.45687 0.0
C1149 C 0.9745 0.44729 0.45866 0.0
C1150 C 0.96235 0.49907 0.56316 0.0
C1151 C 0.01504 0.48379 0.41726 0.0
H1152 H 1.00921 0.56839 0.39828 0.0
H1153 H 0.06194 0.57298 0.52445 0.0
H1154 H 0.97509 0.5028 0.3819 0.0
H1155 H 0.95685 0.50771 0.43448 0.0
H1156 H 0.97069 0.53046 0.37811 0.0
H1157 H 0.05317 0.53728 0.58141 0.0
H1158 H 0.02009 0.5114 0.58647 0.0
H1159 H 0.04131 0.50916 0.53743 0.0
H1160 H 0.93285 0.44727 0.55455 0.0
H1161 H 0.97699 0.43425 0.43144 0.0
H1162 H 0.95683 0.51079 0.53692 0.0
H1163 H 0.98014 0.51269 0.58603 0.0
H1164 H 0.94666 0.48816 0.59371 0.0
H1165 H 0.01251 0.49488 0.3833 0.0
H1166 H 0.01687 0.4678 0.39851 0.0
H1167 H 0.03331 0.49711 0.43902 0.0
C1168 C 0.45499 0.47673 0.47983 0.0
C1169 C 0.44286 0.45142 0.50079 0.0
C1170 C 0.48219 0.49241 0.47991 0.0
C1171 C 0.49766 0.48272 0.50213 0.0
C1172 C 0.48534 0.45763 0.52577 0.0
C1173 C 0.45825 0.44233 0.5245 0.0
C1174 C 0.4944 0.5189 0.45393 0.0
C1175 C 0.50082 0.44651 0.55075 0.0
C1176 C 0.5657 0.50372 0.45107 0.0
C1177 C 0.58114 0.51924 0.49497 0.0
C1178 C 0.53874 0.49312 0.45132 0.0
C1179 C 0.52662 0.49766 0.49715 0.0
C1180 C 0.54227 0.51435 0.54041 0.0
C1181 C 0.56935 0.52506 0.53863 0.0
C1182 C 0.52308 0.47588 0.40377 0.0
C1183 C 0.53031 0.51963 0.59025 0.0
H1184 H 0.44328 0.48386 0.46114 0.0
H1185 H 0.44903 0.42292 0.54139 0.0
H1186 H 0.50903 0.53355 0.48229 0.0
H1187 H 0.50454 0.51906 0.41519 0.0
H1188 H 0.4799 0.52468 0.44358 0.0
H1189 H 0.48838 0.42761 0.57134 0.0
H1190 H 0.51216 0.44374 0.51771 0.0
H1191 H 0.51474 0.4601 0.58173 0.0
H1192 H 0.57473 0.49916 0.41724 0.0
H1193 H 0.58114 0.53679 0.57296 0.0
H1194 H 0.50921 0.48162 0.38826 0.0
H1195 H 0.51168 0.45562 0.41851 0.0
H1196 H 0.53544 0.47654 0.36863 0.0
H1197 H 0.51583 0.52494 0.57697 0.0
H1198 H 0.545 0.53536 0.61675 0.0
H1199 H 0.52007 0.50184 0.61574 0.0
C1200 C 0.97637 0.27474 0.35934 0.0
C1201 C 0.95838 0.28301 0.35243 0.0
C1202 C 0.99904 0.28539 0.32736 0.0
C1203 C 1.00364 0.30461 0.28739 0.0
C1204 C 0.98528 0.31264 0.2796 0.0
C1205 C 0.96305 0.30198 0.31274 0.0
C1206 C 0.01819 0.27637 0.3369 0.0
C1207 C 0.98921 0.33266 0.23653 0.0
C1208 C 0.07121 0.35248 0.2368 0.0
C1209 C 0.07159 0.34173 0.18553 0.0
C1210 C 0.04947 0.34006 0.27149 0.0
C1211 C 0.0277 0.31662 0.25377 0.0
C1212 C 0.02836 0.30558 0.20215 0.0
C1213 C 0.05038 0.31831 0.16869 0.0
C1214 C 0.04973 0.35205 0.32688 0.0
C1215 C 1.00554 0.2809 0.18108 0.0
H1216 H 0.97319 0.26063 0.39115 0.0
H1217 H 0.94932 0.30852 0.30741 0.0
H1218 H 0.02231 0.26963 0.29729 0.0
H1219 H 0.03671 0.29274 0.35201 0.0
H1220 H 0.0111 0.26041 0.36766 0.0
H1221 H 0.97262 0.3361 0.23433 0.0
H1222 H 1.0069 0.35123 0.24633 0.0
H1223 H 0.99202 0.32642 0.19493 0.0
H1224 H 0.08788 0.37049 0.24973 0.0
H1225 H 0.0508 0.31024 0.12858 0.0
H1226 H 0.04749 0.33849 0.36071 0.0
H1227 H 0.03322 0.35554 0.32977 0.0
H1228 H 0.0679 0.37062 0.33387 0.0
H1229 H 0.99758 0.26603 0.21421 0.0
H1230 H 0.01073 0.27289 0.14486 0.0
H1231 H 0.99002 0.28482 0.16824 0.0
C1232 C 0.70534 0.74573 0.17744 0.0
C1233 C 0.68707 0.73027 0.13738 0.0
C1234 C 0.71639 0.73535 0.21319 0.0
C1235 C 0.70893 0.7089 0.20866 0.0
C1236 C 0.69087 0.69333 0.16767 0.0
C1237 C 0.67999 0.70412 0.13299 0.0
C1238 C 0.73545 0.75249 0.25682 0.0
C1239 C 0.68256 0.66507 0.16124 0.0
C1240 C 0.74942 0.68369 0.27606 0.0
C1241 C 0.7356 0.67282 0.32519 0.0
C1242 C 0.74119 0.69584 0.2379 0.0
C1243 C 0.71854 0.69694 0.24915 0.0
C1244 C 0.70432 0.68564 0.29825 0.0
C1245 C 0.7129 0.67352 0.33537 0.0
C1246 C 0.75662 0.70738 0.18552 0.0
C1247 C 0.68005 0.68641 0.31173 0.0
H1248 H 0.71048 0.76572 0.1821 0.0
H1249 H 0.66577 0.69189 0.10247 0.0
H1250 H 0.72708 0.74576 0.29879 0.0
H1251 H 0.75334 0.75129 0.25452 0.0
H1252 H 0.74066 0.77304 0.2522 0.0
H1253 H 0.66964 0.65609 0.12488 0.0
H1254 H 0.6997 0.66272 0.15632 0.0
H1255 H 0.67223 0.65437 0.19922 0.0
H1256 H 0.76657 0.68253 0.26723 0.0
H1257 H 0.70192 0.66486 0.37282 0.0
H1258 H 0.76286 0.72823 0.18317 0.0
H1259 H 0.74441 0.69794 0.14851 0.0
H1260 H 0.774 0.70523 0.18338 0.0
H1261 H 0.6845 0.70676 0.31445 0.0
H1262 H 0.67119 0.67659 0.35159 0.0
H1263 H 0.66562 0.67698 0.27806 0.0
C1264 C 0.34516 0.04355 0.34369 0.0
C1265 C 0.34288 0.06573 0.33967 0.0
C1266 C 0.33302 0.02328 0.30547 0.0
C1267 C 0.31822 0.02519 0.26184 0.0
C1268 C 0.31597 0.04757 0.257 0.0
C1269 C 0.3285 0.0677 0.2958 0.0
C1270 C 0.33605 0.99979 0.31188 0.0
C1271 C 0.30026 0.05018 0.211 0.0
C1272 C 0.309 0.982 0.13856 0.0
C1273 C 0.28487 0.96037 0.15018 0.0
C1274 C 0.31959 1.00374 0.17327 0.0
C1275 C 0.30571 1.00383 0.2208 0.0
C1276 C 0.28089 0.98244 0.23161 0.0
C1277 C 0.27081 0.96087 0.19625 0.0
C1278 C 0.34608 0.02618 0.16022 0.0
C1279 C 0.26544 0.98192 0.2817 0.0
H1280 H 0.35638 0.04187 0.37704 0.0
H1281 H 0.32703 0.08497 0.29176 0.0
H1282 H 0.31685 0.98225 0.31736 0.0
H1283 H 0.34477 0.99696 0.27373 0.0
H1284 H 0.34835 1.00143 0.348 0.0
H1285 H 0.30016 0.06868 0.21345 0.0
H1286 H 0.30809 0.04905 0.16995 0.0
H1287 H 0.28005 0.03396 0.213 0.0
H1288 H 0.31978 0.98185 0.10247 0.0
H1289 H 0.25232 0.94407 0.20582 0.0
H1290 H 0.35989 0.02786 0.193 0.0
H1291 H 0.34572 0.04454 0.15998 0.0
H1292 H 0.35341 0.02393 0.11937 0.0
H1293 H 0.27495 0.98057 0.32012 0.0
H1294 H 0.24538 0.9653 0.28062 0.0
H1295 H 0.26469 1.00007 0.28435 0.0
C1296 C 0.0484 0.73325 0.66374 0.0
C1297 C 0.0666 0.72529 0.67122 0.0
C1298 C 0.02577 0.72279 0.69578 0.0
C1299 C 0.02092 0.70343 0.73554 0.0
C1300 C 0.03916 0.69512 0.74288 0.0
C1301 C 0.06182 0.70619 0.71062 0.0
C1302 C 1.00708 0.73246 0.68701 0.0
C1303 C 0.03467 0.67444 0.78461 0.0
C1304 C 0.9746 0.69113 0.85514 0.0
C1305 C 0.95208 0.66934 0.83651 0.0
C1306 C 0.99691 0.70284 0.82211 0.0
C1307 C 0.99688 0.69198 0.76974 0.0
C1308 C 0.97402 0.66987 0.75074 0.0
C1309 C 0.9518 0.65883 0.78442 0.0
C1310 C 0.02062 0.72651 0.84386 0.0
C1311 C 0.97316 0.65766 0.69527 0.0
H1312 H 0.05148 0.74712 0.6315 0.0
H1313 H 0.07586 0.70002 0.71642 0.0
H1314 H 0.98794 0.71626 0.6745 0.0
H1315 H 1.00435 0.74039 0.72651 0.0
H1316 H 0.01386 0.74775 0.65473 0.0
H1317 H 0.03309 0.68084 0.827 0.0
H1318 H 0.01616 0.65656 0.77548 0.0
H1319 H 0.05044 0.66975 0.78445 0.0
H1320 H 0.97479 0.69895 0.89588 0.0
H1321 H 0.9344 0.64164 0.7707 0.0
H1322 H 0.02822 0.74212 0.81229 0.0
H1323 H 0.03599 0.72178 0.85251 0.0
H1324 H 0.01658 0.73391 0.88267 0.0
H1325 H 0.97652 0.6716 0.66148 0.0
H1326 H 0.95435 0.63982 0.6878 0.0
H1327 H 0.98878 0.65282 0.69281 0.0
C1328 C 0.28951 0.34954 0.73529 0.0
C1329 C 0.28395 0.34116 0.68016 0.0
C1330 C 0.29928 0.33827 0.77215 0.0
C1331 C 0.30295 0.3178 0.75345 0.0
C1332 C 0.29609 0.30856 0.69826 0.0
C1333 C 0.2872 0.32076 0.66198 0.0
C1334 C 0.3065 0.34881 0.83044 0.0
C1335 C 0.29887 0.28633 0.67688 0.0
C1336 C 0.35615 0.30943 0.81811 0.0
C1337 C 0.34275 0.28976 0.85694 0.0
C1338 C 0.34348 0.31898 0.78514 0.0
C1339 C 0.31638 0.30789 0.78944 0.0
C1340 C 0.30246 0.28734 0.82728 0.0
C1341 C 0.31588 0.27882 0.86126 0.0
C1342 C 0.35921 0.34106 0.74574 0.0
C1343 C 0.27349 0.2744 0.83211 0.0
H1344 H 0.28712 0.36552 0.74887 0.0
H1345 H 0.28281 0.31436 0.61917 0.0
H1346 H 0.29414 0.33361 0.86062 0.0
H1347 H 0.32684 0.35438 0.83935 0.0
H1348 H 0.30413 0.36589 0.83728 0.0
H1349 H 0.2891 0.27909 0.63617 0.0
H1350 H 0.31962 0.29267 0.67169 0.0
H1351 H 0.29068 0.27015 0.70712 0.0
H1352 H 0.37652 0.31715 0.81256 0.0
H1353 H 0.30534 0.26383 0.89174 0.0
H1354 H 0.35555 0.35723 0.75394 0.0
H1355 H 0.35333 0.3347 0.70222 0.0
H1356 H 0.38027 0.34844 0.74962 0.0
H1357 H 0.26828 0.28737 0.85448 0.0
H1358 H 0.26524 0.25584 0.85516 0.0
H1359 H 0.26439 0.27057 0.79037 0.0
C1360 C 0.71518 0.06089 0.78945 0.0
C1361 C 0.73102 0.06275 0.83419 0.0
C1362 C 0.70412 0.03899 0.75458 0.0
C1363 C 0.70853 0.01819 0.76547 0.0
C1364 C 0.72438 0.01998 0.81102 0.0
C1365 C 0.73543 0.04223 0.84465 0.0
C1366 C 0.68756 0.03804 0.70628 0.0
C1367 C 0.72929 0.9982 0.82495 0.0
C1368 C 0.66037 0.9517 0.70648 0.0
C1369 C 0.67381 0.95014 0.66037 0.0
C1370 C 0.67157 0.97356 0.74154 0.0
C1371 C 0.69653 0.99458 0.72936 0.0
C1372 C 0.70994 0.99311 0.6822 0.0
C1373 C 0.69843 0.97093 0.64848 0.0
C1374 C 0.65666 0.97421 0.79153 0.0
C1375 C 0.7363 0.01513 0.66677 0.0
H1376 H 0.71152 0.07662 0.78168 0.0
H1377 H 0.74672 0.04311 0.88061 0.0
H1378 H 0.6954 0.03511 0.66688 0.0
H1379 H 0.66772 0.0214 0.71114 0.0
H1380 H 0.68645 0.05598 0.70271 0.0
H1381 H 0.74231 1.00275 0.86136 0.0
H1382 H 0.71074 0.9804 0.83416 0.0
H1383 H 0.73805 0.99395 0.78876 0.0
H1384 H 0.64119 0.93575 0.71529 0.0
H1385 H 0.70837 0.97021 0.61153 0.0
H1386 H 0.65325 0.99076 0.7882 0.0
H1387 H 0.66809 0.9771 0.82992 0.0
H1388 H 0.63774 0.95616 0.7959 0.0
H1389 H 0.73525 0.03289 0.65928 0.0
H1390 H 0.74417 0.01089 0.6289 0.0
H1391 H 0.74999 0.01929 0.7016 0.0
C1392 C 0.21018 0.3838 0.67975 0.0
C1393 C 0.23724 0.39701 0.6776 0.0
C1394 C 0.19695 0.38297 0.72874 0.0
C1395 C 0.21101 0.39768 0.77567 0.0
C1396 C 0.23833 0.41283 0.7721 0.0
C1397 C 0.25106 0.41156 0.724 0.0
C1398 C 0.16795 0.36584 0.73019 0.0
C1399 C 0.25453 0.43034 0.81878 0.0
C1400 C 0.16884 0.40535 0.88545 0.0
C1401 C 0.16984 0.39054 0.92966 0.0
C1402 C 0.18307 0.40894 0.83622 0.0
C1403 C 0.19727 0.39592 0.82912 0.0
C1404 C 0.19781 0.38046 0.87312 0.0
C1405 C 0.18508 0.37889 0.92327 0.0
C1406 C 0.18249 0.42665 0.79231 0.0
C1407 C 0.21134 0.36497 0.86726 0.0
H1408 H 0.19921 0.37347 0.64348 0.0
H1409 H 0.27191 0.42224 0.72275 0.0
H1410 H 0.16146 0.35554 0.77052 0.0
H1411 H 0.15879 0.37786 0.72496 0.0
H1412 H 0.16087 0.35125 0.69624 0.0
H1413 H 0.27121 0.4482 0.80185 0.0
H1414 H 0.24337 0.43596 0.8466 0.0
H1415 H 0.26252 0.42038 0.84374 0.0
H1416 H 0.15713 0.41442 0.88924 0.0
H1417 H 0.18631 0.3675 0.95686 0.0
H1418 H 0.16415 0.41622 0.76868 0.0
H1419 H 0.19888 0.43368 0.76279 0.0
H1420 H 0.18287 0.44366 0.812 0.0
H1421 H 0.20814 0.35609 0.82534 0.0
H1422 H 0.20461 0.34935 0.89882 0.0
H1423 H 0.23239 0.37788 0.87304 0.0
C1424 C 0.65155 0.80805 0.88444 0.0
C1425 C 0.63392 0.78188 0.89437 0.0
C1426 C 0.65041 0.82048 0.83595 0.0
C1427 C 0.62971 0.80711 0.79795 0.0
C1428 C 0.61119 0.7808 0.80881 0.0
C1429 C 0.6141 0.7683 0.85569 0.0
C1430 C 0.67151 0.84814 0.82705 0.0
C1431 C 0.58768 0.76551 0.77272 0.0
C1432 C 0.61848 0.85432 0.71258 0.0
C1433 C 0.62648 0.85178 0.65936 0.0
C1434 C 0.61846 0.83921 0.7573 0.0
C1435 C 0.62706 0.82124 0.74909 0.0
C1436 C 0.63419 0.81786 0.69474 0.0
C1437 C 0.63369 0.83311 0.65049 0.0
C1438 C 0.60885 0.84232 0.81318 0.0
C1439 C 0.64147 0.79755 0.68288 0.0
H1440 H 0.66678 0.81894 0.9143 0.0
H1441 H 0.60018 0.74812 0.86301 0.0
H1442 H 0.67233 0.85503 0.78397 0.0
H1443 H 0.66851 0.86089 0.85591 0.0
H1444 H 0.69059 0.8503 0.83742 0.0
H1445 H 0.57019 0.75538 0.79921 0.0
H1446 H 0.58452 0.77748 0.74206 0.0
H1447 H 0.58961 0.75034 0.75024 0.0
H1448 H 0.61196 0.86809 0.71919 0.0
H1449 H 0.63814 0.82985 0.60865 0.0
H1450 H 0.62556 0.85456 0.84034 0.0
H1451 H 0.59714 0.82332 0.83387 0.0
H1452 H 0.59697 0.85177 0.80947 0.0
H1453 H 0.65553 0.7984 0.71406 0.0
H1454 H 0.64958 0.79948 0.64053 0.0
H1455 H 0.62405 0.77814 0.68567 0.0
C1456 C 0.2078 0.84507 0.89487 0.0
C1457 C 0.23367 0.85366 0.90818 0.0
C1458 C 0.19589 0.82956 0.84812 0.0
C1459 C 0.20985 0.82141 0.81391 0.0
C1460 C 0.2359 0.82941 0.82819 0.0
C1461 C 0.24765 0.84601 0.87405 0.0
C1462 C 0.16803 0.82184 0.83759 0.0
C1463 C 0.25162 0.82014 0.797 0.0
C1464 C 0.16258 0.76339 0.72686 0.0
C1465 C 0.16672 0.77393 0.67333 0.0
C1466 C 0.17749 0.77812 0.77233 0.0
C1467 C 0.19686 0.80433 0.76447 0.0
C1468 C 0.20233 0.81444 0.70953 0.0
C1469 C 0.18715 0.7991 0.66472 0.0
C1470 C 0.17228 0.76545 0.82875 0.0
C1471 C 0.22484 0.84097 0.69729 0.0
H1472 H 0.19662 0.85063 0.92099 0.0
H1473 H 0.26759 0.85224 0.8841 0.0
H1474 H 0.16044 0.81221 0.79708 0.0
H1475 H 0.15585 0.80858 0.87111 0.0
H1476 H 0.16571 0.83912 0.83995 0.0
H1477 H 0.26719 0.83657 0.7737 0.0
H1478 H 0.26122 0.8135 0.82691 0.0
H1479 H 0.24005 0.80413 0.76765 0.0
H1480 H 0.14755 0.74348 0.73327 0.0
H1481 H 0.1916 0.80662 0.62272 0.0
H1482 H 0.15827 0.76908 0.85141 0.0
H1483 H 0.19019 0.77327 0.85394 0.0
H1484 H 0.16372 0.74418 0.82501 0.0
H1485 H 0.22713 0.85517 0.7297 0.0
H1486 H 0.22303 0.84814 0.65598 0.0
H1487 H 0.2428 0.83992 0.69639 0.0
C1488 C 0.39646 0.15808 0.64472 0.0
C1489 C 0.40104 0.16896 0.59147 0.0
C1490 C 0.39801 0.17274 0.69188 0.0
C1491 C 0.40564 0.19923 0.68581 0.0
C1492 C 0.41255 0.21077 0.63247 0.0
C1493 C 0.40951 0.19533 0.58577 0.0
C1494 C 0.38928 0.1593 0.74731 0.0
C1495 C 0.42185 0.23911 0.6242 0.0
C1496 C 0.37649 0.2275 0.78411 0.0
C1497 C 0.39553 0.23914 0.82537 0.0
C1498 C 0.37954 0.21437 0.73907 0.0
C1499 C 0.40276 0.21374 0.73334 0.0
C1500 C 0.42263 0.22648 0.77335 0.0
C1501 C 0.41854 0.23855 0.81953 0.0
C1502 C 0.35763 0.20088 0.698 0.0
C1503 C 0.44812 0.22731 0.76749 0.0
H1504 H 0.38957 0.13759 0.64898 0.0
H1505 H 0.41325 0.20378 0.54454 0.0
H1506 H 0.40392 0.17007 0.77983 0.0
H1507 H 0.37124 0.15884 0.75997 0.0
H1508 H 0.38553 0.13913 0.74589 0.0
H1509 H 0.43156 0.24613 0.58338 0.0
H1510 H 0.40519 0.24238 0.62587 0.0
H1511 H 0.43548 0.25085 0.65769 0.0
H1512 H 0.35873 0.22809 0.78759 0.0
H1513 H 0.43311 0.24693 0.85157 0.0
H1514 H 0.35342 0.18084 0.6904 0.0
H1515 H 0.3632 0.21119 0.65764 0.0
H1516 H 0.33966 0.20016 0.71256 0.0
H1517 H 0.44511 0.20745 0.76923 0.0
H1518 H 0.46204 0.2391 0.80055 0.0
H1519 H 0.45678 0.2355 0.7264 0.0
C1520 C 0.8291 0.21454 0.59722 0.0
C1521 C 0.85528 0.23346 0.59951 0.0
C1522 C 0.81545 0.2018 0.64554 0.0
C1523 C 0.82858 0.20724 0.6972 0.0
C1524 C 0.8551 0.22639 0.69969 0.0
C1525 C 0.86796 0.23978 0.65103 0.0
C1526 C 0.787 0.18229 0.64109 0.0
C1527 C 0.87008 0.23205 0.75333 0.0
C1528 C 0.78709 0.18763 0.82802 0.0
C1529 C 0.78405 0.16329 0.83965 0.0
C1530 C 0.80215 0.20248 0.78293 0.0
C1531 C 0.81445 0.19272 0.74827 0.0
C1532 C 0.81166 0.16821 0.76029 0.0
C1533 C 0.79624 0.15367 0.80548 0.0
C1534 C 0.80389 0.22808 0.77086 0.0
C1535 C 0.82417 0.15694 0.72409 0.0
H1536 H 0.81926 0.20971 0.55742 0.0
H1537 H 0.88834 0.25411 0.65266 0.0
H1538 H 0.78352 0.16277 0.65187 0.0
H1539 H 0.77592 0.18707 0.67108 0.0
H1540 H 0.77933 0.18153 0.59865 0.0
H1541 H 0.89077 0.24682 0.74803 0.0
H1542 H 0.86155 0.23896 0.78522 0.0
H1543 H 0.86879 0.21407 0.76955 0.0
H1544 H 0.77705 0.19478 0.85353 0.0
H1545 H 0.79258 0.13422 0.81212 0.0
H1546 H 0.79502 0.22721 0.72982 0.0
H1547 H 0.82439 0.24363 0.76856 0.0
H1548 H 0.79397 0.23337 0.8029 0.0
H1549 H 0.8163 0.15391 0.68129 0.0
H1550 H 0.821 0.13816 0.74016 0.0
H1551 H 0.84523 0.17067 0.72121 0.0
C1552 C 0.83376 0.6276 0.82741 0.0
C1553 C 0.84826 0.61507 0.82973 0.0
C1554 C 0.82171 0.62855 0.77799 0.0
C1555 C 0.82214 0.61465 0.73064 0.0
C1556 C 0.83495 0.60014 0.73411 0.0
C1557 C 0.84854 0.60122 0.78288 0.0
C1558 C 0.80931 0.64519 0.77612 0.0
C1559 C 0.83447 0.58353 0.68633 0.0
C1560 C 0.77292 0.60612 0.6187 0.0
C1561 C 0.7887 0.62401 0.5782 0.0
C1562 C 0.78361 0.60169 0.66691 0.0
C1563 C 0.81057 0.61669 0.67684 0.0
C1564 C 0.82654 0.63471 0.63611 0.0
C1565 C 0.81558 0.63729 0.58661 0.0
C1566 C 0.76587 0.58113 0.70729 0.0
C1567 C 0.85516 0.65215 0.64566 0.0
H1568 H 0.8323 0.63729 0.86399 0.0
H1569 H 0.85918 0.591 0.78437 0.0
H1570 H 0.81681 0.65858 0.74013 0.0
H1571 H 0.78817 0.63289 0.77061 0.0
H1572 H 0.81294 0.6568 0.81461 0.0
H1573 H 0.84028 0.56938 0.69965 0.0
H1574 H 0.81488 0.57286 0.66769 0.0
H1575 H 0.848 0.59589 0.65349 0.0
H1576 H 0.75219 0.59537 0.6127 0.0
H1577 H 0.82821 0.6507 0.55537 0.0
H1578 H 0.76091 0.5902 0.74173 0.0
H1579 H 0.77528 0.57087 0.72554 0.0
H1580 H 0.74758 0.56672 0.68695 0.0
H1581 H 0.8585 0.66248 0.68588 0.0
H1582 H 0.86446 0.6667 0.61211 0.0
H1583 H 0.86485 0.64051 0.64801 0.0
C1584 C 0.86989 0.63015 0.14498 0.0
C1585 C 0.857 0.62528 0.09384 0.0
C1586 C 0.85749 0.62991 0.19514 0.0
C1587 C 0.83141 0.62416 0.19429 0.0
C1588 C 0.81816 0.61844 0.14277 0.0
C1589 C 0.83112 0.61926 0.09338 0.0
C1590 C 0.87248 0.63649 0.24886 0.0
C1591 C 0.79032 0.6119 0.1396 0.0
C1592 C 0.78857 0.60199 0.32374 0.0
C1593 C 0.78764 0.62426 0.33827 0.0
C1594 C 0.8035 0.60191 0.27847 0.0
C1595 C 0.81795 0.62467 0.24663 0.0
C1596 C 0.81754 0.64736 0.26197 0.0
C1597 C 0.80208 0.64671 0.30681 0.0
C1598 C 0.80289 0.57712 0.26327 0.0
C1599 C 0.83275 0.67217 0.22979 0.0
H1600 H 0.88995 0.63506 0.14553 0.0
H1601 H 0.82098 0.61533 0.05406 0.0
H1602 H 0.87407 0.65434 0.26677 0.0
H1603 H 0.86212 0.62081 0.27965 0.0
H1604 H 0.89223 0.63954 0.24299 0.0
H1605 H 0.7824 0.60671 0.09678 0.0
H1606 H 0.77824 0.59548 0.16763 0.0
H1607 H 0.78863 0.62865 0.1538 0.0
H1608 H 0.777 0.58433 0.34703 0.0
H1609 H 0.80022 0.66341 0.31473 0.0
H1610 H 0.82282 0.58049 0.25948 0.0
H1611 H 0.79343 0.57026 0.2222 0.0
H1612 H 0.79225 0.56161 0.29436 0.0
H1613 H 0.85347 0.67789 0.22962 0.0
H1614 H 0.83084 0.68828 0.24764 0.0
H1615 H 0.82616 0.66928 0.1859 0.0
C1616 C 0.38292 0.18495 0.33504 0.0
C1617 C 0.39853 0.17396 0.34392 0.0
C1618 C 0.38728 0.20165 0.29008 0.0
C1619 C 0.40747 0.20714 0.2521 0.0
C1620 C 0.42441 0.19753 0.26302 0.0
C1621 C 0.4197 0.18104 0.30878 0.0
C1622 C 0.36906 0.21188 0.28135 0.0
C1623 C 0.44654 0.20328 0.2245 0.0
C1624 C 0.39268 0.21527 0.10233 0.0
C1625 C 0.40412 0.24222 0.09726 0.0
C1626 C 0.39412 0.20379 0.15201 0.0
C1627 C 0.40829 0.21956 0.19752 0.0
C1628 C 0.42133 0.24682 0.19164 0.0
C1629 C 0.4188 0.25785 0.14185 0.0
C1630 C 0.37938 0.17466 0.15653 0.0
C1631 C 0.43723 0.26431 0.23857 0.0
H1632 H 0.3668 0.17993 0.36263 0.0
H1633 H 0.43167 0.17252 0.31475 0.0
H1634 H 0.37912 0.23176 0.26432 0.0
H1635 H 0.35402 0.19933 0.25095 0.0
H1636 H 0.35956 0.21206 0.32084 0.0
H1637 H 0.46106 0.1996 0.24479 0.0
H1638 H 0.43904 0.19071 0.18724 0.0
H1639 H 0.45624 0.22365 0.21022 0.0
H1640 H 0.38139 0.20291 0.06823 0.0
H1641 H 0.42801 0.27868 0.13822 0.0
H1642 H 0.36428 0.16865 0.18904 0.0
H1643 H 0.39252 0.16753 0.16925 0.0
H1644 H 0.36991 0.16514 0.11681 0.0
H1645 H 0.42434 0.26301 0.27308 0.0
H1646 H 0.44871 0.28482 0.22528 0.0
H1647 H 0.45055 0.25808 0.25519 0.0
C1648 C 0.80147 0.19436 0.07597 0.0
C1649 C 0.78286 0.16807 0.07941 0.0
C1650 C 0.81392 0.20879 0.12389 0.0
C1651 C 0.80861 0.19639 0.17642 0.0
C1652 C 0.78907 0.16996 0.18021 0.0
C1653 C 0.77607 0.15634 0.13184 0.0
C1654 C 0.83365 0.23708 0.11778 0.0
C1655 C 0.78214 0.15516 0.23427 0.0
C1656 C 0.86562 0.22376 0.2767 0.0
C1657 C 0.85707 0.233 0.32072 0.0
C1658 C 0.85017 0.2119 0.2299 0.0
C1659 C 0.8257 0.21012 0.22523 0.0
C1660 C 0.81756 0.22084 0.26799 0.0
C1661 C 0.83312 0.23176 0.31564 0.0
C1662 C 0.86056 0.20127 0.18628 0.0
C1663 C 0.79216 0.2203 0.26393 0.0
H1664 H 0.8066 0.20358 0.03553 0.0
H1665 H 0.76174 0.13599 0.13479 0.0
H1666 H 0.83218 0.24846 0.15265 0.0
H1667 H 0.85331 0.23958 0.11865 0.0
H1668 H 0.83131 0.24505 0.07791 0.0
H1669 H 0.78188 0.1366 0.2284 0.0
H1670 H 0.79538 0.16582 0.26904 0.0
H1671 H 0.7623 0.15028 0.24638 0.0
H1672 H 0.88432 0.22503 0.27945 0.0
H1673 H 0.82622 0.23871 0.34937 0.0
H1674 H 0.87542 0.21756 0.16138 0.0
H1675 H 0.84557 0.18732 0.1576 0.0
H1676 H 0.87021 0.19162 0.20634 0.0
H1677 H 0.79011 0.22711 0.22232 0.0
H1678 H 0.79024 0.23251 0.29628 0.0
H1679 H 0.7761 0.20014 0.26896 0.0
C1680 C 0.61224 0.78242 0.17747 0.0
C1681 C 0.63503 0.78131 0.1725 0.0
C1682 C 0.60753 0.79337 0.22496 0.0
C1683 C 0.62632 0.80411 0.2679 0.0
C1684 C 0.64901 0.80231 0.26352 0.0
C1685 C 0.65281 0.79069 0.21656 0.0
C1686 C 0.58267 0.79391 0.2288 0.0
C1687 C 0.66986 0.81262 0.30747 0.0
C1688 C 0.63016 0.85758 0.36191 0.0
C1689 C 0.62398 0.84536 0.41386 0.0
C1690 C 0.6301 0.84427 0.3135 0.0
C1691 C 0.62272 0.81769 0.31669 0.0
C1692 C 0.61466 0.80488 0.36865 0.0
C1693 C 0.6159 0.81896 0.41668 0.0
C1694 C 0.63964 0.85966 0.26044 0.0
C1695 C 0.606 0.77655 0.3741 0.0
H1696 H 0.59838 0.77533 0.14378 0.0
H1697 H 0.67031 0.78955 0.21398 0.0
H1698 H 0.57319 0.78593 0.2694 0.0
H1699 H 0.58689 0.8142 0.22655 0.0
H1700 H 0.569 0.78267 0.19488 0.0
H1701 H 0.68891 0.8254 0.28785 0.0
H1702 H 0.66691 0.82349 0.34118 0.0
H1703 H 0.67088 0.79621 0.32632 0.0
H1704 H 0.6367 0.87807 0.35951 0.0
H1705 H 0.61098 0.8094 0.45677 0.0
H1706 H 0.6377 0.84787 0.22327 0.0
H1707 H 0.6603 0.87454 0.26557 0.0
H1708 H 0.62898 0.87014 0.25283 0.0
H1709 H 0.59284 0.76537 0.33946 0.0
H1710 H 0.59599 0.76844 0.4142 0.0
H1711 H 0.62308 0.77396 0.37184 0.0
C1712 C 0.19694 0.80049 0.42571 0.0
C1713 C 0.17045 0.78241 0.42497 0.0
C1714 C 0.21019 0.81284 0.37657 0.0
C1715 C 0.19638 0.80789 0.32588 0.0
C1716 C 0.16966 0.78923 0.32494 0.0
C1717 C 0.15717 0.77635 0.37423 0.0
C1718 C 0.23879 0.83186 0.37938 0.0
C1719 C 0.15378 0.78425 0.27286 0.0
C1720 C 0.22133 0.86377 0.22332 0.0
C1721 C 0.23075 0.85532 0.17942 0.0
C1722 C 0.21007 0.84852 0.27062 0.0
C1723 C 0.20899 0.82441 0.2758 0.0
C1724 C 0.21935 0.8161 0.23265 0.0
C1725 C 0.22961 0.8314 0.18448 0.0
C1726 C 0.19937 0.85846 0.31494 0.0
C1727 C 0.21971 0.79114 0.23752 0.0
H1728 H 0.20729 0.80508 0.46486 0.0
H1729 H 0.13661 0.76264 0.37372 0.0
H1730 H 0.24893 0.82933 0.34338 0.0
H1731 H 0.24212 0.85183 0.37771 0.0
H1732 H 0.24751 0.82975 0.41837 0.0
H1733 H 0.13404 0.7673 0.27719 0.0
H1734 H 0.15206 0.80149 0.26368 0.0
H1735 H 0.16335 0.78106 0.23671 0.0
H1736 H 0.22235 0.88237 0.22054 0.0
H1737 H 0.23631 0.82441 0.15055 0.0
H1738 H 0.19585 0.87384 0.29886 0.0
H1739 H 0.21336 0.86668 0.3497 0.0
H1740 H 0.18104 0.84265 0.33193 0.0
H1741 H 0.23122 0.792 0.27447 0.0
H1742 H 0.22813 0.7872 0.20018 0.0
H1743 H 0.19985 0.77472 0.24379 0.0
C1744 C 0.16301 0.3682 0.2061 0.0
C1745 C 0.17276 0.38993 0.17161 0.0
C1746 C 0.17767 0.36688 0.25042 0.0
C1747 C 0.20239 0.38831 0.26224 0.0
C1748 C 0.21239 0.41034 0.22734 0.0
C1749 C 0.19747 0.41086 0.18258 0.0
C1750 C 0.16635 0.34277 0.28559 0.0
C1751 C 0.23831 0.43389 0.23894 0.0
C1752 C 0.22256 0.39633 0.41453 0.0
C1753 C 0.24044 0.38769 0.41529 0.0
C1754 C 0.2107 0.39726 0.36488 0.0
C1755 C 0.21634 0.3888 0.3145 0.0
C1756 C 0.23468 0.38035 0.31485 0.0
C1757 C 0.24677 0.3802 0.36519 0.0
C1758 C 0.19158 0.40675 0.36668 0.0
C1759 C 0.24088 0.37066 0.26246 0.0
H1760 H 0.14339 0.35272 0.20054 0.0
H1761 H 0.20484 0.42806 0.15704 0.0
H1762 H 0.17888 0.33407 0.28271 0.0
H1763 H 0.16568 0.34756 0.3299 0.0
H1764 H 0.14656 0.32813 0.27212 0.0
H1765 H 0.24425 0.44863 0.20559 0.0
H1766 H 0.23746 0.44278 0.27883 0.0
H1767 H 0.25335 0.42834 0.24341 0.0
H1768 H 0.21766 0.40221 0.45317 0.0
H1769 H 0.2603 0.37315 0.36579 0.0
H1770 H 0.1721 0.39079 0.35525 0.0
H1771 H 0.19699 0.42247 0.33594 0.0
H1772 H 0.19046 0.41406 0.40845 0.0
H1773 H 0.22338 0.35293 0.24786 0.0
H1774 H 0.25656 0.36611 0.26886 0.0
H1775 H 0.24671 0.38526 0.22893 0.0
C1776 C 0.24192 0.30533 0.10782 0.0
C1777 C 0.22043 0.2865 0.07835 0.0
C1778 C 0.26634 0.30755 0.10183 0.0
C1779 C 0.26927 0.29039 0.06597 0.0
C1780 C 0.24774 0.27173 0.03531 0.0
C1781 C 0.2237 0.27012 0.04168 0.0
C1782 C 0.289 0.32829 0.13369 0.0
C1783 C 0.24993 0.25378 0.99436 0.0
C1784 C 0.33345 0.30309 0.0073 0.0
C1785 C 0.33871 0.28696 0.04048 0.0
C1786 C 0.31154 0.30538 0.01669 0.0
C1787 C 0.29461 0.29147 0.0608 0.0
C1788 C 0.30062 0.27635 0.09644 0.0
C1789 C 0.32266 0.27435 0.0859 0.0
C1790 C 0.30589 0.32168 0.97768 0.0
C1791 C 0.28303 0.26119 0.14387 0.0
H1792 H 0.23956 0.31807 0.13623 0.0
H1793 H 0.20742 0.25606 0.01741 0.0
H1794 H 0.29672 0.31936 0.16259 0.0
H1795 H 0.30479 0.34061 0.1045 0.0
H1796 H 0.28375 0.34077 0.15808 0.0
H1797 H 0.25522 0.2633 0.95314 0.0
H1798 H 0.265 0.24916 0.00652 0.0
H1799 H 0.23127 0.23547 0.98965 0.0
H1800 H 0.34588 0.31317 0.97238 0.0
H1801 H 0.32707 0.26255 0.11269 0.0
H1802 H 0.30099 0.33456 1.00148 0.0
H1803 H 0.28893 0.30892 0.95159 0.0
H1804 H 0.32243 0.33367 0.94976 0.0
H1805 H 0.27892 0.2739 0.17034 0.0
H1806 H 0.29141 0.25205 0.17039 0.0
H1807 H 0.26429 0.24589 0.12697 0.0
C1808 C 0.72001 0.03467 0.99533 0.0
C1809 C 0.73807 0.05597 0.02637 0.0
C1810 C 0.7144 0.00951 0.00831 0.0
C1811 C 0.72695 1.00548 0.05387 0.0
C1812 C 0.74505 0.0269 0.08569 0.0
C1813 C 0.75033 0.05189 0.07163 0.0
C1814 C 0.69511 0.98726 0.97305 0.0
C1815 C 0.7589 0.02343 0.13445 0.0
C1816 C 0.69574 0.93894 0.12081 0.0
C1817 C 0.70934 0.92813 0.09586 0.0
C1818 C 0.70117 0.96402 0.10729 0.0
C1819 C 0.72094 0.97881 0.06845 0.0
C1820 C 0.73479 0.96801 0.04327 0.0
C1821 C 0.72875 0.94276 0.05711 0.0
C1822 C 0.68561 0.97464 0.13419 0.0
C1823 C 0.75635 0.98329 1.0026 0.0
H1824 H 0.71053 0.03769 0.96012 0.0
H1825 H 0.76389 0.06824 0.09639 0.0
H1826 H 0.70439 0.97696 0.95437 0.0
H1827 H 0.67895 0.97316 0.99937 0.0
H1828 H 0.6871 0.9937 0.93898 0.0
H1829 H 0.77202 0.042 0.15562 0.0
H1830 H 0.74472 0.01003 0.16524 0.0
H1831 H 0.77038 0.01461 0.1201 0.0
H1832 H 0.68054 0.92758 0.15035 0.0
H1833 H 0.73953 0.9346 0.03829 0.0
H1834 H 0.67587 0.97988 0.10173 0.0
H1835 H 0.69856 0.99252 0.15761 0.0
H1836 H 0.67075 0.96059 0.16314 0.0
H1837 H 0.74989 0.99166 0.96943 0.0
H1838 H 0.76367 0.97139 0.98294 0.0
H1839 H 0.77254 0.99961 0.0248 0.0
C1840 C 0.98419 0.68794 0.0054 0.0
C1841 C 0.962 0.68652 0.02856 0.0
C1842 C 1.00896 0.70795 0.0198 0.0
C1843 C 0.0117 0.72665 0.05955 0.0
C1844 C 0.98938 0.7248 0.08452 0.0
C1845 C 0.96481 0.7048 0.06861 0.0
C1846 C 0.03218 0.70934 0.99163 0.0
C1847 C 0.99145 0.7442 0.12738 0.0
C1848 C 0.07685 0.76573 0.13135 0.0
C1849 C 0.08797 0.7891 0.10173 0.0
C1850 C 0.05203 0.74534 0.11832 0.0
C1851 C 0.03791 0.74828 0.0745 0.0
C1852 C 0.04898 0.7718 0.04447 0.0
C1853 C 0.07383 0.79188 0.05839 0.0
C1854 C 0.04092 0.7206 0.1514 0.0
C1855 C 0.03465 0.77572 0.99734 0.0
H1856 H 0.98219 0.67391 0.97432 0.0
H1857 H 0.94777 0.70345 0.08756 0.0
H1858 H 0.04368 0.72831 0.97077 0.0
H1859 H 0.04485 0.70773 0.0231 0.0
H1860 H 0.0267 0.69383 0.96017 0.0
H1861 H 0.97233 0.73942 0.1446 0.0
H1862 H 1.0041 0.74515 0.16209 0.0
H1863 H 1.00044 0.76372 0.10841 0.0
H1864 H 0.08771 0.76324 0.16442 0.0
H1865 H 0.08206 0.80995 0.03574 0.0
H1866 H 0.03687 0.70422 0.12346 0.0
H1867 H 0.02231 0.71634 0.17042 0.0
H1868 H 0.05415 0.72155 0.18491 0.0
H1869 H 0.03218 0.76241 0.96277 0.0
H1870 H 0.04492 0.79583 0.98126 0.0
H1871 H 0.01509 0.77099 0.01107 0.0
C1872 C 0.28912 0.22071 0.44999 0.0
C1873 C 0.30455 0.22294 0.40407 0.0
C1874 C 0.28507 0.2411 0.46541 0.0
C1875 C 0.29704 0.26443 0.43465 0.0
C1876 C 0.31301 0.26696 0.38884 0.0
C1877 C 0.31642 0.24612 0.37386 0.0
C1878 C 0.26764 0.23752 0.51406 0.0
C1879 C 0.32643 0.29164 0.35552 0.0
C1880 C 0.26703 0.30743 0.44302 0.0
C1881 C 0.2822 0.3253 0.484 0.0
C1882 C 0.27183 0.28774 0.42602 0.0
C1883 C 0.29254 0.28604 0.45012 0.0
C1884 C 0.30855 0.30465 0.48999 0.0
C1885 C 0.30323 0.32407 0.5063 0.0
C1886 C 0.25438 0.26839 0.38317 0.0
C1887 C 0.33093 0.30371 0.51648 0.0
H1888 H 0.27967 0.20274 0.47307 0.0
H1889 H 0.32855 0.24801 0.33864 0.0
H1890 H 0.2784 0.25247 0.54607 0.0
H1891 H 0.25136 0.24002 0.50014 0.0
H1892 H 0.25967 0.21816 0.53353 0.0
H1893 H 0.33878 0.29076 0.32208 0.0
H1894 H 0.31192 0.29561 0.33631 0.0
H1895 H 0.33863 0.30816 0.38328 0.0
H1896 H 0.25132 0.30881 0.42426 0.0
H1897 H 0.31515 0.33785 0.53788 0.0
H1898 H 0.24384 0.24888 0.40217 0.0
H1899 H 0.26594 0.26737 0.34825 0.0
H1900 H 0.24007 0.27324 0.36615 0.0
H1901 H 0.32363 0.28582 0.54152 0.0
H1902 H 0.34251 0.32057 0.54402 0.0
H1903 H 0.34378 0.30314 0.48394 0.0
C1904 C 0.6924 0.97907 0.49688 0.0
C1905 C 0.68963 0.95742 0.46814 0.0
C1906 C 0.71144 1.00415 0.48181 0.0
C1907 C 0.72791 0.0077 0.43631 0.0
C1908 C 0.72506 0.98589 0.40679 0.0
C1909 C 0.70593 0.961 0.42309 0.0
C1910 C 0.71402 0.02681 0.51487 0.0
C1911 C 0.74226 0.98886 0.35812 0.0
C1912 C 0.76141 0.07345 0.36566 0.0
C1913 C 0.78593 0.08519 0.39035 0.0
C1914 C 0.74238 0.04819 0.38 0.0
C1915 C 0.74808 0.03426 0.41968 0.0
C1916 C 0.77288 0.04591 0.44431 0.0
C1917 C 0.79149 0.07122 0.4294 0.0
C1918 C 0.71606 0.03654 0.35329 0.0
C1919 C 0.77982 0.03157 0.48619 0.0
H1920 H 0.67992 0.97642 0.53194 0.0
H1921 H 0.70353 0.94433 0.40017 0.0
H1922 H 0.73369 0.03788 0.53289 0.0
H1923 H 0.71136 0.04012 0.48712 0.0
H1924 H 0.69976 0.02072 0.54927 0.0
H1925 H 0.73705 0.97002 0.3386 0.0
H1926 H 0.74102 1.00154 0.32611 0.0
H1927 H 0.76265 0.99827 0.37207 0.0
H1928 H 0.75692 0.08423 0.33586 0.0
H1929 H 0.81054 0.08003 0.44796 0.0
H1930 H 0.70115 0.03173 0.38574 0.0
H1931 H 0.71136 0.01825 0.33187 0.0
H1932 H 0.71482 0.04977 0.32266 0.0
H1933 H 0.76595 0.0248 0.52133 0.0
H1934 H 0.79964 0.04366 0.50299 0.0
H1935 H 0.77847 0.01421 0.46632 0.0
C1936 C 0.95794 0.74824 0.48901 0.0
C1937 C 0.94073 0.73375 0.44643 0.0
C1938 C 0.98091 0.74786 0.49752 0.0
C1939 C 0.98697 0.73256 0.46248 0.0
C1940 C 0.96921 0.71709 0.42069 0.0
C1941 C 0.9463 0.7179 0.41308 0.0
C1942 C 0.99828 0.76416 0.54429 0.0
C1943 C 0.97454 0.69991 0.38363 0.0
C1944 C 0.0583 0.75453 0.44843 0.0
C1945 C 0.06134 0.73915 0.48819 0.0
C1946 C 0.03401 0.752 0.43835 0.0
C1947 C 0.0122 0.73348 0.46843 0.0
C1948 C 0.01502 0.71729 0.50727 0.0
C1949 C 0.03952 0.7202 0.51641 0.0
C1950 C 0.03182 0.76976 0.39695 0.0
C1951 C 0.99239 0.69771 0.54097 0.0
H1952 H 0.95349 0.76003 0.51597 0.0
H1953 H 0.93307 0.70662 0.38011 0.0
H1954 H 0.98766 0.75747 0.58423 0.0
H1955 H 0.01648 0.76368 0.54787 0.0
H1956 H 1.00304 0.7845 0.53863 0.0
H1957 H 0.95811 0.68791 0.35543 0.0
H1958 H 0.99194 0.71188 0.35801 0.0
H1959 H 0.97862 0.68695 0.40929 0.0
H1960 H 0.07499 0.76877 0.42557 0.0
H1961 H 0.04169 0.70824 0.5473 0.0
H1962 H 0.02501 0.7817 0.41841 0.0
H1963 H 0.01731 0.75829 0.36469 0.0
H1964 H 0.05048 0.78278 0.37612 0.0
H1965 H 0.9856 0.70788 0.56884 0.0
H1966 H 0.99742 0.68544 0.56673 0.0
H1967 H 0.9761 0.68507 0.51312 0.0
C1968 C 0.70946 0.74804 0.90164 0.0
C1969 C 0.69407 0.73584 0.94814 0.0
C1970 C 0.73094 0.74539 0.88893 0.0
C1971 C 0.73696 0.72986 0.92327 0.0
C1972 C 0.72045 0.71613 0.96813 0.0
C1973 C 0.69913 0.71917 0.97972 0.0
C1974 C 0.74805 0.76038 0.84074 0.0
C1975 C 0.72604 0.69937 0.00592 0.0
C1976 C 0.78711 0.71306 0.87248 0.0
C1977 C 0.80936 0.73149 0.90049 0.0
C1978 C 0.76335 0.71217 0.87956 0.0
C1979 C 0.7618 0.7301 0.91562 0.0
C1980 C 0.78416 0.74849 0.94454 0.0
C1981 C 0.80762 0.74898 0.93652 0.0
C1982 C 0.73986 0.69195 0.8489 0.0
C1983 C 0.78336 0.76721 0.9855 0.0
H1984 H 0.70492 0.75999 0.87567 0.0
H1985 H 0.68711 0.70933 0.01516 0.0
H1986 H 0.76709 0.77549 0.85684 0.0
H1987 H 0.75154 0.74749 0.81341 0.0
H1988 H 0.73961 0.76984 0.81537 0.0
H1989 H 0.70937 0.68698 0.03322 0.0
H1990 H 0.73111 0.68684 0.98131 0.0
H1991 H 0.74282 0.71184 0.03277 0.0
H1992 H 0.78837 0.69947 0.8446 0.0
H1993 H 0.82458 0.76283 0.95937 0.0
H1994 H 0.7321 0.70138 0.82152 0.0
H1995 H 0.72444 0.67988 0.87904 0.0
H1996 H 0.74417 0.67915 0.82312 0.0
H1997 H 0.76956 0.77343 0.97248 0.0
H1998 H 0.80272 0.78459 0.99105 0.0
H1999 H 0.77695 0.75759 0.0265 0.0
C2000 C 0.33467 0.08895 0.9267 0.0
C2001 C 0.31799 0.09317 0.89305 0.0
C2002 C 0.32938 0.06373 0.93905 0.0
C2003 C 0.30655 0.04219 0.91828 0.0
C2004 C 0.28972 0.04638 0.88408 0.0
C2005 C 0.29577 0.07175 0.87149 0.0
C2006 C 0.34824 0.06013 0.97422 0.0
C2007 C 0.26526 0.02415 0.86055 0.0
C2008 C 0.29838 0.97459 0.91461 0.0
C2009 C 0.2847 0.96396 0.96383 0.0
C2010 C 0.3061 1.00023 0.8996 0.0
C2011 C 0.29964 0.01533 0.93442 0.0
C2012 C 0.2859 1.0045 0.98441 0.0
C2013 C 0.27896 0.9791 0.99879 0.0
C2014 C 0.32122 0.01116 0.84666 0.0
C2015 C 0.27814 0.01959 0.02236 0.0
H2016 H 0.35206 0.1054 0.94281 0.0
H2017 H 0.28271 0.07482 0.84563 0.0
H2018 H 0.33896 0.05043 0.01382 0.0
H2019 H 0.354 0.04746 0.9523 0.0
H2020 H 0.36588 0.07877 0.98408 0.0
H2021 H 0.25148 0.03034 0.84671 0.0
H2022 H 0.27011 0.01601 0.82412 0.0
H2023 H 0.25554 0.00849 0.89152 0.0
H2024 H 0.30321 0.96291 0.8882 0.0
H2025 H 0.26889 0.97098 0.03744 0.0
H2026 H 0.33886 0.02998 0.85509 0.0
H2027 H 0.3094 0.01473 0.81635 0.0
H2028 H 0.32696 0.99791 0.82728 0.0
H2029 H 0.29547 0.03758 0.03643 0.0
H2030 H 0.26751 0.00834 0.05965 0.0
H2031 H 0.26574 0.02533 0.99928 0.0
C2032 C 0.05384 0.31192 0.95259 0.0
C2033 C 0.0589 0.32927 0.99643 0.0
C2034 C 0.02841 0.29323 0.9383 0.0
C2035 C 1.00737 0.29197 0.96813 0.0
C2036 C 0.01233 0.30977 0.01183 0.0
C2037 C 0.03797 0.32824 0.02524 0.0
C2038 C 0.02407 0.27468 0.89139 0.0
C2039 C 0.99057 0.30942 0.04426 0.0
C2040 C 0.94354 0.25737 0.88978 0.0
C2041 C 0.93204 0.23252 0.9128 0.0
C2042 C 0.96732 0.27736 0.90973 0.0
C2043 C 0.98028 0.27219 0.95274 0.0
C2044 C 0.96816 0.24736 0.97767 0.0
C2045 C 0.94407 0.22787 0.95769 0.0
C2046 C 0.97921 0.30364 0.88272 0.0
C2047 C 0.98136 0.24095 0.02323 0.0
H2048 H 0.06979 0.31309 0.92903 0.0
H2049 H 0.04161 0.34165 0.05902 0.0
H2050 H 0.01413 0.25459 0.90745 0.0
H2051 H 0.01137 0.27583 0.8593 0.0
H2052 H 0.04239 0.27866 0.87123 0.0
H2053 H 0.99768 0.32339 0.07936 0.0
H2054 H 0.97888 0.31427 0.01622 0.0
H2055 H 0.97755 0.28981 0.06104 0.0
H2056 H 0.93432 0.2609 0.85475 0.0
H2057 H 0.93537 0.20854 0.97489 0.0
H2058 H 0.99643 0.3072 0.85837 0.0
H2059 H 0.98578 0.319 0.91482 0.0
H2060 H 0.96549 0.30537 0.85438 0.0
H2061 H 0.9689 0.22124 0.0403 0.0
H2062 H 0.98703 0.25515 0.05755 0.0
H2063 H 0.99929 0.24229 0.00675 0.0
C2064 C 0.69962 0.76189 0.63887 0.0
C2065 C 0.71179 0.78641 0.61399 0.0
C2066 C 0.70404 0.7422 0.61985 0.0
C2067 C 0.72141 0.7472 0.5753 0.0
C2068 C 0.73315 0.7717 0.54891 0.0
C2069 C 0.7281 0.79097 0.56838 0.0
C2070 C 0.69055 0.71622 0.64832 0.0
C2071 C 0.75215 0.7781 0.50205 0.0
C2072 C 0.75373 0.70608 0.56781 0.0
C2073 C 0.74004 0.6888 0.52465 0.0
C2074 C 0.74804 0.72528 0.58436 0.0
C2075 C 0.72785 0.72706 0.5577 0.0
C2076 C 0.71354 0.70925 0.51503 0.0
C2077 C 0.71975 0.69036 0.49922 0.0
C2078 C 0.76373 0.74378 0.63019 0.0
C2079 C 0.69174 0.71025 0.48576 0.0
H2080 H 0.68681 0.75822 0.67388 0.0
H2081 H 0.73779 0.80997 0.54945 0.0
H2082 H 0.6804 0.70061 0.61718 0.0
H2083 H 0.70497 0.71266 0.66938 0.0
H2084 H 0.67632 0.71487 0.67973 0.0
H2085 H 0.75659 0.7963 0.48056 0.0
H2086 H 0.77034 0.78039 0.51932 0.0
H2087 H 0.74483 0.76223 0.47105 0.0
H2088 H 0.76885 0.70452 0.58895 0.0
H2089 H 0.70881 0.67696 0.46634 0.0
H2090 H 0.75091 0.74294 0.6644 0.0
H2091 H 0.77373 0.76385 0.61399 0.0
H2092 H 0.77838 0.73952 0.64763 0.0
H2093 H 0.67729 0.70888 0.51653 0.0
H2094 H 0.68187 0.69445 0.45485 0.0
H2095 H 0.69929 0.72902 0.46399 0.0
C2096 C 0.26518 0.9377 0.64751 0.0
C2097 C 0.23952 0.92633 0.62927 0.0
C2098 C 0.28414 0.96204 0.62788 0.0
C2099 C 0.27715 0.97573 0.59022 0.0
C2100 C 0.25139 0.96382 0.57014 0.0
C2101 C 0.23294 0.93925 0.5898 0.0
C2102 C 0.31162 0.97318 0.64779 0.0
C2103 C 0.24249 0.97705 0.52981 0.0
C2104 C 0.32065 0.04915 0.58878 0.0
C2105 C 0.33398 0.05309 0.53857 0.0
C2106 C 0.30183 0.02413 0.60579 0.0
C2107 C 0.29678 1.00247 0.57254 0.0
C2108 C 0.31069 1.00636 0.52251 0.0
C2109 C 0.32899 0.03154 0.50617 0.0
C2110 C 0.2871 0.02087 0.65895 0.0
C2111 C 0.30602 0.98393 0.48578 0.0
H2112 H 0.27034 0.9276 0.67774 0.0
H2113 H 0.21306 0.93063 0.57602 0.0
H2114 H 0.32496 0.97923 0.61172 0.0
H2115 H 0.31724 0.99062 0.67345 0.0
H2116 H 0.31431 0.95915 0.67302 0.0
H2117 H 0.22895 0.96296 0.49891 0.0
H2118 H 0.2317 0.98461 0.55316 0.0
H2119 H 0.25855 0.99324 0.50719 0.0
H2120 H 0.32499 0.06561 0.61486 0.0
H2121 H 0.33925 0.03434 0.46749 0.0
H2122 H 0.29044 0.00868 0.68865 0.0
H2123 H 0.26607 0.01078 0.65001 0.0
H2124 H 0.29278 0.03965 0.67935 0.0
H2125 H 0.3081 0.96935 0.51028 0.0
H2126 H 0.31953 0.99006 0.44994 0.0
H2127 H 0.28598 0.97436 0.4695 0.0
C2128 C 0.98354 0.29361 0.50817 0.0
C2129 C 0.962 0.27668 0.54005 0.0
C2130 C 1.00796 0.29647 0.51836 0.0
C2131 C 0.011 0.28227 0.56183 0.0
C2132 C 0.98954 0.266 0.59567 0.0
C2133 C 0.96534 0.2635 0.58451 0.0
C2134 C 0.03021 0.31376 0.48093 0.0
C2135 C 0.99194 0.25041 0.64219 0.0
C2136 C 0.06366 0.26463 0.54799 0.0
C2137 C 0.082 0.28119 0.58674 0.0
C2138 C 0.04081 0.26517 0.53857 0.0
C2139 C 0.03595 0.28262 0.56902 0.0
C2140 C 0.05471 0.29988 0.60724 0.0
C2141 C 0.07751 0.29896 0.61566 0.0
C2142 C 0.02258 0.24734 0.49462 0.0
C2143 C 0.05075 0.31939 0.63906 0.0
H2144 H 0.98114 0.30385 0.47363 0.0
H2145 H 0.94887 0.2508 0.60996 0.0
H2146 H 0.04729 0.32716 0.50608 0.0
H2147 H 0.03574 0.30177 0.45565 0.0
H2148 H 0.02528 0.32525 0.45242 0.0
H2149 H 0.97355 0.23893 0.66522 0.0
H2150 H 0.99807 0.23708 0.62501 0.0
H2151 H 1.00704 0.26337 0.67201 0.0
H2152 H 0.06733 0.25137 0.52426 0.0
H2153 H 0.09168 0.31189 0.64552 0.0
H2154 H 1.00315 0.24528 0.49627 0.0
H2155 H 0.0206 0.22791 0.4982 0.0
H2156 H 0.03102 0.25501 0.45311 0.0
H2157 H 0.04708 0.33149 0.60968 0.0
H2158 H 0.06767 0.33222 0.66531 0.0
H2159 H 0.03352 0.3093 0.66618 0.0
loop_
_geom_bond_atom_site_label_1
_geom_bond_atom_site_label_2
_geom_bond_distance
_geom_bond_site_symmetry_2
_ccdc_geom_bond_type
Eu0 N29 2.600 . S
Eu0 N35 2.562 . S
Eu0 O44 2.462 . S
Eu0 O45 2.373 . S
Eu0 O47 2.432 . S
Eu0 O48 2.291 . S
Eu0 O52 2.335 . S
Eu0 O55 2.372 1_554 S
Eu0 C64 2.787 . S
C1 N2 1.365 . S
C1 C4 1.405 . S
C1 C8 1.448 . S
N2 C1 1.365 . S
N2 C5 1.319 . S
N2 Eu11 2.600 . S
C3 C5 1.397 . S
C3 C6 1.367 . S
C3 H23 0.931 . S
C4 C1 1.405 . S
C4 C6 1.403 . S
C4 C10 1.439 . S
C5 N2 1.319 . S
C5 C3 1.397 . S
C5 H16 0.930 . S
C6 C3 1.367 . S
C6 C4 1.403 . S
C6 H27 0.929 . S
C7 C8 1.430 1_556 S
C7 C9 1.387 . S
C7 C13 1.404 . S
C8 C1 1.448 . S
C8 C7 1.430 1_554 S
C8 N12 1.351 . S
C9 C7 1.387 . S
C9 C10 1.374 1_556 S
C9 H24 0.931 . S
C10 C4 1.439 . S
C10 C9 1.374 1_554 S
C10 H25 0.931 . S
Eu11 N2 2.600 . S
Eu11 N12 2.562 . S
Eu11 O46 2.335 . S
Eu11 O49 2.372 . S
Eu11 O50 2.462 . S
Eu11 O51 2.373 . S
Eu11 O53 2.432 . S
Eu11 O54 2.291 . S
Eu11 C75 2.787 . S
N12 C8 1.351 . S
N12 Eu11 2.562 . S
N12 C14 1.325 1_554 S
C13 C7 1.404 . S
C13 C15 1.366 . S
C13 H21 0.930 . S
C14 N12 1.325 1_556 S
C14 C15 1.416 . S
C14 H20 0.929 . S
C15 C13 1.366 . S
C15 C14 1.416 . S
C15 H17 0.930 . S
H16 C5 0.930 . S
H17 C15 0.930 . S
H18 C33 0.930 1_556 S
H19 C40 0.930 . S
H20 C14 0.929 . S
H21 C13 0.930 . S
H22 C36 0.929 . S
H23 C3 0.931 . S
H24 C9 0.931 . S
H25 C10 0.931 . S
H26 C31 0.931 . S
H27 C6 0.929 . S
H28 C39 0.930 . S
N29 Eu0 2.600 . S
N29 C30 1.365 . S
N29 C33 1.319 . S
C30 N29 1.365 . S
C30 C32 1.405 . S
C30 C38 1.448 . S
C31 H26 0.931 . S
C31 C33 1.397 1_556 S
C31 C34 1.367 1_556 S
C32 C30 1.405 . S
C32 C34 1.403 . S
C32 C65 1.439 . S
C33 H18 0.930 1_554 S
C33 N29 1.319 . S
C33 C31 1.397 1_554 S
C34 C31 1.367 1_554 S
C34 C32 1.403 . S
C34 H41 0.929 . S
N35 Eu0 2.562 . S
N35 C36 1.325 . S
N35 C38 1.351 . S
C36 H22 0.929 . S
C36 N35 1.325 . S
C36 C40 1.416 . S
C37 C38 1.430 . S
C37 C39 1.404 . S
C37 C66 1.387 . S
C38 C30 1.448 . S
C38 N35 1.351 . S
C38 C37 1.430 . S
C39 H28 0.930 . S
C39 C37 1.404 . S
C39 C40 1.366 . S
C40 H19 0.930 . S
C40 C36 1.416 . S
C40 C39 1.366 . S
H41 C34 0.929 . S
H42 C65 0.931 . S
H43 C66 0.931 . S
O44 Eu0 2.462 . S
O44 C64 1.252 . S
O45 Eu0 2.373 . S
O45 C56 1.249 . S
O46 Eu11 2.335 . S
O46 C56 1.264 . S
O47 Eu0 2.432 . S
O47 C64 1.268 . S
O48 Eu0 2.291 . S
O48 C63 1.255 . S
O49 Eu11 2.372 . S
O49 C63 1.257 . S
O50 Eu11 2.462 . S
O50 C75 1.252 . S
O51 Eu11 2.373 . S
O51 C67 1.249 . S
O52 Eu0 2.335 . S
O52 C67 1.264 . S
O53 Eu11 2.432 . S
O53 C75 1.268 . S
O54 Eu11 2.291 . S
O54 C74 1.255 1_554 S
O55 Eu0 2.372 1_556 S
O55 C74 1.257 . S
C56 O45 1.249 . S
C56 O46 1.264 . S
C57 C60 1.382 1_554 S
C57 C62 1.390 . S
C57 C64 1.506 . S
C58 C59 1.398 . S
C58 C62 1.392 . S
C59 C58 1.398 . S
C59 C61 1.372 1_554 S
C59 H76 0.931 . S
C60 C57 1.382 1_556 S
C60 C61 1.390 . S
C60 H77 0.931 . S
C61 C59 1.372 1_556 S
C61 C60 1.390 . S
C61 H78 0.929 . S
C62 C57 1.390 . S
C62 C58 1.392 . S
C62 H79 0.930 . S
C63 O48 1.255 . S
C63 O49 1.257 . S
C64 Eu0 2.787 . S
C64 O44 1.252 . S
C64 O47 1.268 . S
C64 C57 1.506 . S
C65 C32 1.439 . S
C65 H42 0.931 . S
C65 C66 1.374 . S
C66 C37 1.387 . S
C66 H43 0.931 . S
C66 C65 1.374 . S
C67 O51 1.249 . S
C67 O52 1.264 . S
C68 C71 1.382 . S
C68 C72 1.390 . S
C68 C75 1.506 . S
C69 C70 1.398 . S
C69 C72 1.392 . S
C70 C69 1.398 . S
C70 C73 1.372 . S
C70 H80 0.931 . S
C71 C68 1.382 . S
C71 C73 1.390 . S
C71 H81 0.931 . S
C72 C68 1.390 . S
C72 C69 1.392 . S
C72 H82 0.930 . S
C73 C70 1.372 . S
C73 C71 1.390 . S
C73 H83 0.929 . S
C74 O54 1.255 1_556 S
C74 O55 1.257 . S
C75 Eu11 2.787 . S
C75 O50 1.252 . S
C75 O53 1.268 . S
C75 C68 1.506 . S
H76 C59 0.931 . S
H77 C60 0.931 . S
H78 C61 0.929 . S
H79 C62 0.930 . S
H80 C70 0.931 . S
H81 C71 0.931 . S
H82 C72 0.930 . S
H83 C73 0.929 . S
Eu84 N113 2.600 . S
Eu84 N119 2.562 . S
Eu84 O128 2.462 . S
Eu84 O129 2.373 . S
Eu84 O131 2.432 . S
Eu84 O132 2.291 . S
Eu84 O136 2.335 . S
Eu84 O139 2.372 1_554 S
Eu84 C148 2.787 . S
C85 N86 1.365 . S
C85 C88 1.405 . S
C85 C92 1.448 . S
N86 C85 1.365 . S
N86 C89 1.319 . S
N86 Eu95 2.600 . S
C87 C89 1.397 . S
C87 C90 1.367 . S
C87 H107 0.931 . S
C88 C85 1.405 . S
C88 C90 1.403 . S
C88 C94 1.439 . S
C89 N86 1.319 . S
C89 C87 1.397 . S
C89 H100 0.930 . S
C90 C87 1.367 . S
C90 C88 1.403 . S
C90 H111 0.929 . S
C91 C92 1.430 1_556 S
C91 C93 1.387 . S
C91 C97 1.404 . S
C92 C85 1.448 . S
C92 C91 1.430 1_554 S
C92 N96 1.351 . S
C93 C91 1.387 . S
C93 C94 1.374 1_556 S
C93 H108 0.931 . S
C94 C88 1.439 . S
C94 C93 1.374 1_554 S
C94 H109 0.931 . S
Eu95 N86 2.600 . S
Eu95 N96 2.562 . S
Eu95 O130 2.335 . S
Eu95 O133 2.372 . S
Eu95 O134 2.462 . S
Eu95 O135 2.373 . S
Eu95 O137 2.432 . S
Eu95 O138 2.291 . S
Eu95 C159 2.787 . S
N96 C92 1.351 . S
N96 Eu95 2.562 . S
N96 C98 1.325 1_554 S
C97 C91 1.404 . S
C97 C99 1.366 . S
C97 H105 0.930 . S
C98 N96 1.325 1_556 S
C98 C99 1.416 . S
C98 H104 0.929 . S
C99 C97 1.366 . S
C99 C98 1.416 . S
C99 H101 0.930 . S
H100 C89 0.930 . S
H101 C99 0.930 . S
H102 C117 0.930 1_556 S
H103 C124 0.930 . S
H104 C98 0.929 . S
H105 C97 0.930 . S
H106 C120 0.929 . S
H107 C87 0.931 . S
H108 C93 0.931 . S
H109 C94 0.931 . S
H110 C115 0.931 . S
H111 C90 0.929 . S
H112 C123 0.930 . S
N113 Eu84 2.600 . S
N113 C114 1.365 . S
N113 C117 1.319 . S
C114 N113 1.365 . S
C114 C116 1.405 . S
C114 C122 1.448 . S
C115 H110 0.931 . S
C115 C117 1.397 1_556 S
C115 C118 1.367 1_556 S
C116 C114 1.405 . S
C116 C118 1.403 . S
C116 C149 1.439 . S
C117 H102 0.930 1_554 S
C117 N113 1.319 . S
C117 C115 1.397 1_554 S
C118 C115 1.367 1_554 S
C118 C116 1.403 . S
C118 H125 0.929 . S
N119 Eu84 2.562 . S
N119 C120 1.325 . S
N119 C122 1.351 . S
C120 H106 0.929 . S
C120 N119 1.325 . S
C120 C124 1.416 . S
C121 C122 1.430 . S
C121 C123 1.404 . S
C121 C150 1.387 . S
C122 C114 1.448 . S
C122 N119 1.351 . S
C122 C121 1.430 . S
C123 H112 0.930 . S
C123 C121 1.404 . S
C123 C124 1.366 . S
C124 H103 0.930 . S
C124 C120 1.416 . S
C124 C123 1.366 . S
H125 C118 0.929 . S
H126 C149 0.931 . S
H127 C150 0.931 . S
O128 Eu84 2.462 . S
O128 C148 1.252 . S
O129 Eu84 2.373 . S
O129 C140 1.249 . S
O130 Eu95 2.335 . S
O130 C140 1.264 . S
O131 Eu84 2.432 . S
O131 C148 1.268 . S
O132 Eu84 2.291 . S
O132 C147 1.255 . S
O133 Eu95 2.372 . S
O133 C147 1.257 . S
O134 Eu95 2.462 . S
O134 C159 1.252 . S
O135 Eu95 2.373 . S
O135 C151 1.249 . S
O136 Eu84 2.335 . S
O136 C151 1.264 . S
O137 Eu95 2.432 . S
O137 C159 1.268 . S
O138 Eu95 2.291 . S
O138 C158 1.255 1_554 S
O139 Eu84 2.372 1_556 S
O139 C158 1.257 . S
C140 O129 1.249 . S
C140 O130 1.264 . S
C141 C144 1.382 1_554 S
C141 C146 1.390 . S
C141 C148 1.506 . S
C142 C143 1.398 . S
C142 C146 1.392 . S
C143 C142 1.398 . S
C143 C145 1.372 1_554 S
C143 H160 0.931 . S
C144 C141 1.382 1_556 S
C144 C145 1.390 . S
C144 H161 0.931 . S
C145 C143 1.372 1_556 S
C145 C144 1.390 . S
C145 H162 0.929 . S
C146 C141 1.390 . S
C146 C142 1.392 . S
C146 H163 0.930 . S
C147 O132 1.255 . S
C147 O133 1.257 . S
C148 Eu84 2.787 . S
C148 O128 1.252 . S
C148 O131 1.268 . S
C148 C141 1.506 . S
C149 C116 1.439 . S
C149 H126 0.931 . S
C149 C150 1.374 . S
C150 C121 1.387 . S
C150 H127 0.931 . S
C150 C149 1.374 . S
C151 O135 1.249 . S
C151 O136 1.264 . S
C152 C155 1.382 . S
C152 C156 1.390 . S
C152 C159 1.506 . S
C153 C154 1.398 . S
C153 C156 1.392 . S
C154 C153 1.398 . S
C154 C157 1.372 . S
C154 H164 0.931 . S
C155 C152 1.382 . S
C155 C157 1.390 . S
C155 H165 0.931 . S
C156 C152 1.390 . S
C156 C153 1.392 . S
C156 H166 0.930 . S
C157 C154 1.372 . S
C157 C155 1.390 . S
C157 H167 0.929 . S
C158 O138 1.255 1_556 S
C158 O139 1.257 . S
C159 Eu95 2.787 . S
C159 O134 1.252 . S
C159 O137 1.268 . S
C159 C152 1.506 . S
H160 C143 0.931 . S
H161 C144 0.931 . S
H162 C145 0.929 . S
H163 C146 0.930 . S
H164 C154 0.931 . S
H165 C155 0.931 . S
H166 C156 0.930 . S
H167 C157 0.929 . S
Eu168 N197 2.600 . S
Eu168 N203 2.562 . S
Eu168 O212 2.462 . S
Eu168 O213 2.373 . S
Eu168 O215 2.432 . S
Eu168 O216 2.291 . S
Eu168 O220 2.335 . S
Eu168 O223 2.372 1_554 S
Eu168 C232 2.787 . S
C169 N170 1.365 . S
C169 C172 1.405 . S
C169 C176 1.448 . S
N170 C169 1.365 . S
N170 C173 1.319 . S
N170 Eu179 2.600 . S
C171 C173 1.397 . S
C171 C174 1.367 . S
C171 H191 0.931 . S
C172 C169 1.405 . S
C172 C174 1.403 . S
C172 C178 1.439 . S
C173 N170 1.319 . S
C173 C171 1.397 . S
C173 H184 0.930 . S
C174 C171 1.367 . S
C174 C172 1.403 . S
C174 H195 0.929 . S
C175 C176 1.430 1_556 S
C175 C177 1.387 . S
C175 C181 1.404 . S
C176 C169 1.448 . S
C176 C175 1.430 1_554 S
C176 N180 1.351 . S
C177 C175 1.387 . S
C177 C178 1.374 1_556 S
C177 H192 0.931 . S
C178 C172 1.439 . S
C178 C177 1.374 1_554 S
C178 H193 0.931 . S
Eu179 N170 2.600 . S
Eu179 N180 2.562 . S
Eu179 O214 2.335 . S
Eu179 O217 2.372 . S
Eu179 O218 2.462 . S
Eu179 O219 2.373 . S
Eu179 O221 2.432 . S
Eu179 O222 2.291 . S
Eu179 C243 2.787 . S
N180 C176 1.351 . S
N180 Eu179 2.562 . S
N180 C182 1.325 1_554 S
C181 C175 1.404 . S
C181 C183 1.366 . S
C181 H189 0.930 . S
C182 N180 1.325 1_556 S
C182 C183 1.416 . S
C182 H188 0.929 . S
C183 C181 1.366 . S
C183 C182 1.416 . S
C183 H185 0.930 . S
H184 C173 0.930 . S
H185 C183 0.930 . S
H186 C201 0.930 1_556 S
H187 C208 0.930 . S
H188 C182 0.929 . S
H189 C181 0.930 . S
H190 C204 0.929 . S
H191 C171 0.931 . S
H192 C177 0.931 . S
H193 C178 0.931 . S
H194 C199 0.931 . S
H195 C174 0.929 . S
H196 C207 0.930 . S
N197 Eu168 2.600 . S
N197 C198 1.365 . S
N197 C201 1.319 . S
C198 N197 1.365 . S
C198 C200 1.405 . S
C198 C206 1.448 . S
C199 H194 0.931 . S
C199 C201 1.397 1_556 S
C199 C202 1.367 1_556 S
C200 C198 1.405 . S
C200 C202 1.403 . S
C200 C233 1.439 . S
C201 H186 0.930 1_554 S
C201 N197 1.319 . S
C201 C199 1.397 1_554 S
C202 C199 1.367 1_554 S
C202 C200 1.403 . S
C202 H209 0.929 . S
N203 Eu168 2.562 . S
N203 C204 1.325 . S
N203 C206 1.351 . S
C204 H190 0.929 . S
C204 N203 1.325 . S
C204 C208 1.416 . S
C205 C206 1.430 . S
C205 C207 1.404 . S
C205 C234 1.387 . S
C206 C198 1.448 . S
C206 N203 1.351 . S
C206 C205 1.430 . S
C207 H196 0.930 . S
C207 C205 1.404 . S
C207 C208 1.366 . S
C208 H187 0.930 . S
C208 C204 1.416 . S
C208 C207 1.366 . S
H209 C202 0.929 . S
H210 C233 0.931 . S
H211 C234 0.931 . S
O212 Eu168 2.462 . S
O212 C232 1.252 . S
O213 Eu168 2.373 . S
O213 C224 1.249 . S
O214 Eu179 2.335 . S
O214 C224 1.264 . S
O215 Eu168 2.432 . S
O215 C232 1.268 . S
O216 Eu168 2.291 . S
O216 C231 1.255 . S
O217 Eu179 2.372 . S
O217 C231 1.257 . S
O218 Eu179 2.462 . S
O218 C243 1.252 . S
O219 Eu179 2.373 . S
O219 C235 1.249 . S
O220 Eu168 2.335 . S
O220 C235 1.264 . S
O221 Eu179 2.432 . S
O221 C243 1.268 . S
O222 Eu179 2.291 . S
O222 C242 1.255 1_554 S
O223 Eu168 2.372 1_556 S
O223 C242 1.257 . S
C224 O213 1.249 . S
C224 O214 1.264 . S
C225 C228 1.382 1_554 S
C225 C230 1.390 . S
C225 C232 1.506 . S
C226 C227 1.398 . S
C226 C230 1.392 . S
C227 C226 1.398 . S
C227 C229 1.372 1_554 S
C227 H244 0.931 . S
C228 C225 1.382 1_556 S
C228 C229 1.390 . S
C228 H245 0.931 . S
C229 C227 1.372 1_556 S
C229 C228 1.390 . S
C229 H246 0.929 . S
C230 C225 1.390 . S
C230 C226 1.392 . S
C230 H247 0.930 . S
C231 O216 1.255 . S
C231 O217 1.257 . S
C232 Eu168 2.787 . S
C232 O212 1.252 . S
C232 O215 1.268 . S
C232 C225 1.506 . S
C233 C200 1.439 . S
C233 H210 0.931 . S
C233 C234 1.374 . S
C234 C205 1.387 . S
C234 H211 0.931 . S
C234 C233 1.374 . S
C235 O219 1.249 . S
C235 O220 1.264 . S
C236 C239 1.382 . S
C236 C240 1.390 . S
C236 C243 1.506 . S
C237 C238 1.398 . S
C237 C240 1.392 . S
C238 C237 1.398 . S
C238 C241 1.372 . S
C238 H248 0.931 . S
C239 C236 1.382 . S
C239 C241 1.390 . S
C239 H249 0.931 . S
C240 C236 1.390 . S
C240 C237 1.392 . S
C240 H250 0.930 . S
C241 C238 1.372 . S
C241 C239 1.390 . S
C241 H251 0.929 . S
C242 O222 1.255 1_556 S
C242 O223 1.257 . S
C243 Eu179 2.787 . S
C243 O218 1.252 . S
C243 O221 1.268 . S
C243 C236 1.506 . S
H244 C227 0.931 . S
H245 C228 0.931 . S
H246 C229 0.929 . S
H247 C230 0.930 . S
H248 C238 0.931 . S
H249 C239 0.931 . S
H250 C240 0.930 . S
H251 C241 0.929 . S
Eu252 N281 2.600 . S
Eu252 N287 2.562 . S
Eu252 O296 2.462 . S
Eu252 O297 2.373 . S
Eu252 O299 2.432 . S
Eu252 O300 2.291 . S
Eu252 O304 2.335 . S
Eu252 O307 2.372 . S
Eu252 C316 2.787 . S
C253 N254 1.365 . S
C253 C256 1.405 . S
C253 C260 1.448 . S
N254 C253 1.365 . S
N254 C257 1.319 . S
N254 Eu263 2.600 . S
C255 C257 1.397 . S
C255 C258 1.367 . S
C255 H275 0.931 . S
C256 C253 1.405 . S
C256 C258 1.403 . S
C256 C262 1.439 . S
C257 N254 1.319 . S
C257 C255 1.397 . S
C257 H268 0.930 . S
C258 C255 1.367 . S
C258 C256 1.403 . S
C258 H279 0.929 . S
C259 C260 1.430 . S
C259 C261 1.387 . S
C259 C265 1.404 . S
C260 C253 1.448 . S
C260 C259 1.430 . S
C260 N264 1.351 . S
C261 C259 1.387 . S
C261 C262 1.374 . S
C261 H276 0.931 . S
C262 C256 1.439 . S
C262 C261 1.374 . S
C262 H277 0.931 . S
Eu263 N254 2.600 . S
Eu263 N264 2.562 . S
Eu263 O298 2.335 . S
Eu263 O301 2.372 . S
Eu263 O302 2.462 . S
Eu263 O303 2.373 . S
Eu263 O305 2.432 . S
Eu263 O306 2.291 . S
Eu263 C327 2.787 . S
N264 C260 1.351 . S
N264 Eu263 2.562 . S
N264 C266 1.325 . S
C265 C259 1.404 . S
C265 C267 1.366 . S
C265 H273 0.930 . S
C266 N264 1.325 . S
C266 C267 1.416 . S
C266 H272 0.929 . S
C267 C265 1.366 . S
C267 C266 1.416 . S
C267 H269 0.930 . S
H268 C257 0.930 . S
H269 C267 0.930 . S
H270 C285 0.930 . S
H271 C292 0.930 . S
H272 C266 0.929 . S
H273 C265 0.930 . S
H274 C288 0.929 . S
H275 C255 0.931 . S
H276 C261 0.931 . S
H277 C262 0.931 . S
H278 C283 0.931 . S
H279 C258 0.929 . S
H280 C291 0.930 . S
N281 Eu252 2.600 . S
N281 C282 1.365 . S
N281 C285 1.319 . S
C282 N281 1.365 . S
C282 C284 1.405 . S
C282 C290 1.448 . S
C283 H278 0.931 . S
C283 C285 1.397 . S
C283 C286 1.367 . S
C284 C282 1.405 . S
C284 C286 1.403 . S
C284 C317 1.439 . S
C285 H270 0.930 . S
C285 N281 1.319 . S
C285 C283 1.397 . S
C286 C283 1.367 . S
C286 C284 1.403 . S
C286 H293 0.929 . S
N287 Eu252 2.562 . S
N287 C288 1.325 . S
N287 C290 1.351 . S
C288 H274 0.929 . S
C288 N287 1.325 . S
C288 C292 1.416 . S
C289 C290 1.430 . S
C289 C291 1.404 . S
C289 C318 1.387 . S
C290 C282 1.448 . S
C290 N287 1.351 . S
C290 C289 1.430 . S
C291 H280 0.930 . S
C291 C289 1.404 . S
C291 C292 1.366 . S
C292 H271 0.930 . S
C292 C288 1.416 . S
C292 C291 1.366 . S
H293 C286 0.929 . S
H294 C317 0.931 . S
H295 C318 0.931 . S
O296 Eu252 2.462 . S
O296 C316 1.252 . S
O297 Eu252 2.373 . S
O297 C308 1.249 . S
O298 Eu263 2.335 . S
O298 C308 1.264 . S
O299 Eu252 2.432 . S
O299 C316 1.268 . S
O300 Eu252 2.291 . S
O300 C315 1.255 . S
O301 Eu263 2.372 . S
O301 C315 1.257 . S
O302 Eu263 2.462 . S
O302 C327 1.252 . S
O303 Eu263 2.373 . S
O303 C319 1.249 . S
O304 Eu252 2.335 . S
O304 C319 1.264 . S
O305 Eu263 2.432 . S
O305 C327 1.268 . S
O306 Eu263 2.291 . S
O306 C326 1.255 . S
O307 Eu252 2.372 . S
O307 C326 1.257 . S
C308 O297 1.249 . S
C308 O298 1.264 . S
C309 C312 1.382 . S
C309 C314 1.390 . S
C309 C316 1.506 . S
C310 C311 1.398 . S
C310 C314 1.392 . S
C311 C310 1.398 . S
C311 C313 1.372 . S
C311 H328 0.931 . S
C312 C309 1.382 . S
C312 C313 1.390 . S
C312 H329 0.931 . S
C313 C311 1.372 . S
C313 C312 1.390 . S
C313 H330 0.929 . S
C314 C309 1.390 . S
C314 C310 1.392 . S
C314 H331 0.930 . S
C315 O300 1.255 . S
C315 O301 1.257 . S
C316 Eu252 2.787 . S
C316 O296 1.252 . S
C316 O299 1.268 . S
C316 C309 1.506 . S
C317 C284 1.439 . S
C317 H294 0.931 . S
C317 C318 1.374 . S
C318 C289 1.387 . S
C318 H295 0.931 . S
C318 C317 1.374 . S
C319 O303 1.249 . S
C319 O304 1.264 . S
C320 C323 1.382 . S
C320 C324 1.390 . S
C320 C327 1.506 . S
C321 C322 1.398 . S
C321 C324 1.392 . S
C322 C321 1.398 . S
C322 C325 1.372 . S
C322 H332 0.931 . S
C323 C320 1.382 . S
C323 C325 1.390 . S
C323 H333 0.931 . S
C324 C320 1.390 . S
C324 C321 1.392 . S
C324 H334 0.930 . S
C325 C322 1.372 . S
C325 C323 1.390 . S
C325 H335 0.929 . S
C326 O306 1.255 . S
C326 O307 1.257 . S
C327 Eu263 2.787 . S
C327 O302 1.252 . S
C327 O305 1.268 . S
C327 C320 1.506 . S
H328 C311 0.931 . S
H329 C312 0.931 . S
H330 C313 0.929 . S
H331 C314 0.930 . S
H332 C322 0.931 . S
H333 C323 0.931 . S
H334 C324 0.930 . S
H335 C325 0.929 . S
Eu336 N365 2.600 . S
Eu336 N371 2.562 . S
Eu336 O380 2.462 . S
Eu336 O381 2.373 . S
Eu336 O383 2.432 . S
Eu336 O384 2.291 . S
Eu336 O388 2.335 . S
Eu336 O391 2.372 . S
Eu336 C400 2.787 . S
C337 N338 1.365 . S
C337 C340 1.405 . S
C337 C344 1.448 . S
N338 C337 1.365 . S
N338 C341 1.319 . S
N338 Eu347 2.600 . S
C339 C341 1.397 . S
C339 C342 1.367 . S
C339 H359 0.931 . S
C340 C337 1.405 . S
C340 C342 1.403 . S
C340 C346 1.439 . S
C341 N338 1.319 . S
C341 C339 1.397 . S
C341 H352 0.930 . S
C342 C339 1.367 . S
C342 C340 1.403 . S
C342 H363 0.929 . S
C343 C344 1.430 . S
C343 C345 1.387 . S
C343 C349 1.404 . S
C344 C337 1.448 . S
C344 C343 1.430 . S
C344 N348 1.351 . S
C345 C343 1.387 . S
C345 C346 1.374 . S
C345 H360 0.931 . S
C346 C340 1.439 . S
C346 C345 1.374 . S
C346 H361 0.931 . S
Eu347 N338 2.600 . S
Eu347 N348 2.562 . S
Eu347 O382 2.335 . S
Eu347 O385 2.372 . S
Eu347 O386 2.462 . S
Eu347 O387 2.373 . S
Eu347 O389 2.432 . S
Eu347 O390 2.291 . S
Eu347 C411 2.787 . S
N348 C344 1.351 . S
N348 Eu347 2.562 . S
N348 C350 1.325 . S
C349 C343 1.404 . S
C349 C351 1.366 . S
C349 H357 0.930 . S
C350 N348 1.325 . S
C350 C351 1.416 . S
C350 H356 0.929 . S
C351 C349 1.366 . S
C351 C350 1.416 . S
C351 H353 0.930 . S
H352 C341 0.930 . S
H353 C351 0.930 . S
H354 C369 0.930 . S
H355 C376 0.930 . S
H356 C350 0.929 . S
H357 C349 0.930 . S
H358 C372 0.929 . S
H359 C339 0.931 . S
H360 C345 0.931 . S
H361 C346 0.931 . S
H362 C367 0.931 . S
H363 C342 0.929 . S
H364 C375 0.930 . S
N365 Eu336 2.600 . S
N365 C366 1.365 . S
N365 C369 1.319 . S
C366 N365 1.365 . S
C366 C368 1.405 . S
C366 C374 1.448 . S
C367 H362 0.931 . S
C367 C369 1.397 . S
C367 C370 1.367 . S
C368 C366 1.405 . S
C368 C370 1.403 . S
C368 C401 1.439 . S
C369 H354 0.930 . S
C369 N365 1.319 . S
C369 C367 1.397 . S
C370 C367 1.367 . S
C370 C368 1.403 . S
C370 H377 0.929 . S
N371 Eu336 2.562 . S
N371 C372 1.325 . S
N371 C374 1.351 . S
C372 H358 0.929 . S
C372 N371 1.325 . S
C372 C376 1.416 . S
C373 C374 1.430 . S
C373 C375 1.404 . S
C373 C402 1.387 . S
C374 C366 1.448 . S
C374 N371 1.351 . S
C374 C373 1.430 . S
C375 H364 0.930 . S
C375 C373 1.404 . S
C375 C376 1.366 . S
C376 H355 0.930 . S
C376 C372 1.416 . S
C376 C375 1.366 . S
H377 C370 0.929 . S
H378 C401 0.931 . S
H379 C402 0.931 . S
O380 Eu336 2.462 . S
O380 C400 1.252 . S
O381 Eu336 2.373 . S
O381 C392 1.249 . S
O382 Eu347 2.335 . S
O382 C392 1.264 . S
O383 Eu336 2.432 . S
O383 C400 1.268 . S
O384 Eu336 2.291 . S
O384 C399 1.255 . S
O385 Eu347 2.372 . S
O385 C399 1.257 . S
O386 Eu347 2.462 . S
O386 C411 1.252 . S
O387 Eu347 2.373 . S
O387 C403 1.249 . S
O388 Eu336 2.335 . S
O388 C403 1.264 . S
O389 Eu347 2.432 . S
O389 C411 1.268 . S
O390 Eu347 2.291 . S
O390 C410 1.255 . S
O391 Eu336 2.372 . S
O391 C410 1.257 . S
C392 O381 1.249 . S
C392 O382 1.264 . S
C393 C396 1.382 . S
C393 C398 1.390 . S
C393 C400 1.506 . S
C394 C395 1.398 . S
C394 C398 1.392 . S
C395 C394 1.398 . S
C395 C397 1.372 . S
C395 H412 0.931 . S
C396 C393 1.382 . S
C396 C397 1.390 . S
C396 H413 0.931 . S
C397 C395 1.372 . S
C397 C396 1.390 . S
C397 H414 0.929 . S
C398 C393 1.390 . S
C398 C394 1.392 . S
C398 H415 0.930 . S
C399 O384 1.255 . S
C399 O385 1.257 . S
C400 Eu336 2.787 . S
C400 O380 1.252 . S
C400 O383 1.268 . S
C400 C393 1.506 . S
C401 C368 1.439 . S
C401 H378 0.931 . S
C401 C402 1.374 . S
C402 C373 1.387 . S
C402 H379 0.931 . S
C402 C401 1.374 . S
C403 O387 1.249 . S
C403 O388 1.264 . S
C404 C407 1.382 . S
C404 C408 1.390 . S
C404 C411 1.506 . S
C405 C406 1.398 . S
C405 C408 1.392 . S
C406 C405 1.398 . S
C406 C409 1.372 . S
C406 H416 0.931 . S
C407 C404 1.382 . S
C407 C409 1.390 . S
C407 H417 0.931 . S
C408 C404 1.390 . S
C408 C405 1.392 . S
C408 H418 0.930 . S
C409 C406 1.372 . S
C409 C407 1.390 . S
C409 H419 0.929 . S
C410 O390 1.255 . S
C410 O391 1.257 . S
C411 Eu347 2.787 . S
C411 O386 1.252 . S
C411 O389 1.268 . S
C411 C404 1.506 . S
H412 C395 0.931 . S
H413 C396 0.931 . S
H414 C397 0.929 . S
H415 C398 0.930 . S
H416 C406 0.931 . S
H417 C407 0.931 . S
H418 C408 0.930 . S
H419 C409 0.929 . S
Eu420 N449 2.600 . S
Eu420 N455 2.562 . S
Eu420 O464 2.462 . S
Eu420 O465 2.373 . S
Eu420 O467 2.432 . S
Eu420 O468 2.291 . S
Eu420 O472 2.335 . S
Eu420 O475 2.372 . S
Eu420 C484 2.787 . S
C421 N422 1.365 . S
C421 C424 1.405 . S
C421 C428 1.448 . S
N422 C421 1.365 . S
N422 C425 1.319 . S
N422 Eu431 2.600 . S
C423 C425 1.397 . S
C423 C426 1.367 . S
C423 H443 0.931 . S
C424 C421 1.405 . S
C424 C426 1.403 . S
C424 C430 1.439 . S
C425 N422 1.319 . S
C425 C423 1.397 . S
C425 H436 0.930 . S
C426 C423 1.367 . S
C426 C424 1.403 . S
C426 H447 0.929 . S
C427 C428 1.430 . S
C427 C429 1.387 . S
C427 C433 1.404 . S
C428 C421 1.448 . S
C428 C427 1.430 . S
C428 N432 1.351 . S
C429 C427 1.387 . S
C429 C430 1.374 . S
C429 H444 0.931 . S
C430 C424 1.439 . S
C430 C429 1.374 . S
C430 H445 0.931 . S
Eu431 N422 2.600 . S
Eu431 N432 2.562 . S
Eu431 O466 2.335 . S
Eu431 O469 2.372 . S
Eu431 O470 2.462 . S
Eu431 O471 2.373 . S
Eu431 O473 2.432 . S
Eu431 O474 2.291 . S
Eu431 C495 2.787 . S
N432 C428 1.351 . S
N432 Eu431 2.562 . S
N432 C434 1.325 . S
C433 C427 1.404 . S
C433 C435 1.366 . S
C433 H441 0.930 . S
C434 N432 1.325 . S
C434 C435 1.416 . S
C434 H440 0.929 . S
C435 C433 1.366 . S
C435 C434 1.416 . S
C435 H437 0.930 . S
H436 C425 0.930 . S
H437 C435 0.930 . S
H438 C453 0.930 . S
H439 C460 0.930 . S
H440 C434 0.929 . S
H441 C433 0.930 . S
H442 C456 0.929 . S
H443 C423 0.931 . S
H444 C429 0.931 . S
H445 C430 0.931 . S
H446 C451 0.931 . S
H447 C426 0.929 . S
H448 C459 0.930 . S
N449 Eu420 2.600 . S
N449 C450 1.365 . S
N449 C453 1.319 . S
C450 N449 1.365 . S
C450 C452 1.405 . S
C450 C458 1.448 . S
C451 H446 0.931 . S
C451 C453 1.397 . S
C451 C454 1.367 . S
C452 C450 1.405 . S
C452 C454 1.403 . S
C452 C485 1.439 . S
C453 H438 0.930 . S
C453 N449 1.319 . S
C453 C451 1.397 . S
C454 C451 1.367 . S
C454 C452 1.403 . S
C454 H461 0.929 . S
N455 Eu420 2.562 . S
N455 C456 1.325 . S
N455 C458 1.351 . S
C456 H442 0.929 . S
C456 N455 1.325 . S
C456 C460 1.416 . S
C457 C458 1.430 . S
C457 C459 1.404 . S
C457 C486 1.387 . S
C458 C450 1.448 . S
C458 N455 1.351 . S
C458 C457 1.430 . S
C459 H448 0.930 . S
C459 C457 1.404 . S
C459 C460 1.366 . S
C460 H439 0.930 . S
C460 C456 1.416 . S
C460 C459 1.366 . S
H461 C454 0.929 . S
H462 C485 0.931 . S
H463 C486 0.931 . S
O464 Eu420 2.462 . S
O464 C484 1.252 . S
O465 Eu420 2.373 . S
O465 C476 1.249 . S
O466 Eu431 2.335 . S
O466 C476 1.264 . S
O467 Eu420 2.432 . S
O467 C484 1.268 . S
O468 Eu420 2.291 . S
O468 C483 1.255 . S
O469 Eu431 2.372 . S
O469 C483 1.257 . S
O470 Eu431 2.462 . S
O470 C495 1.252 . S
O471 Eu431 2.373 . S
O471 C487 1.249 . S
O472 Eu420 2.335 . S
O472 C487 1.264 . S
O473 Eu431 2.432 . S
O473 C495 1.268 . S
O474 Eu431 2.291 . S
O474 C494 1.255 . S
O475 Eu420 2.372 . S
O475 C494 1.257 . S
C476 O465 1.249 . S
C476 O466 1.264 . S
C477 C480 1.382 . S
C477 C482 1.390 . S
C477 C484 1.506 . S
C478 C479 1.398 . S
C478 C482 1.392 . S
C479 C478 1.398 . S
C479 C481 1.372 . S
C479 H496 0.931 . S
C480 C477 1.382 . S
C480 C481 1.390 . S
C480 H497 0.931 . S
C481 C479 1.372 . S
C481 C480 1.390 . S
C481 H498 0.929 . S
C482 C477 1.390 . S
C482 C478 1.392 . S
C482 H499 0.930 . S
C483 O468 1.255 . S
C483 O469 1.257 . S
C484 Eu420 2.787 . S
C484 O464 1.252 . S
C484 O467 1.268 . S
C484 C477 1.506 . S
C485 C452 1.439 . S
C485 H462 0.931 . S
C485 C486 1.374 . S
C486 C457 1.387 . S
C486 H463 0.931 . S
C486 C485 1.374 . S
C487 O471 1.249 . S
C487 O472 1.264 . S
C488 C491 1.382 . S
C488 C492 1.390 . S
C488 C495 1.506 . S
C489 C490 1.398 . S
C489 C492 1.392 . S
C490 C489 1.398 . S
C490 C493 1.372 . S
C490 H500 0.931 . S
C491 C488 1.382 . S
C491 C493 1.390 . S
C491 H501 0.931 . S
C492 C488 1.390 . S
C492 C489 1.392 . S
C492 H502 0.930 . S
C493 C490 1.372 . S
C493 C491 1.390 . S
C493 H503 0.929 . S
C494 O474 1.255 . S
C494 O475 1.257 . S
C495 Eu431 2.787 . S
C495 O470 1.252 . S
C495 O473 1.268 . S
C495 C488 1.506 . S
H496 C479 0.931 . S
H497 C480 0.931 . S
H498 C481 0.929 . S
H499 C482 0.930 . S
H500 C490 0.931 . S
H501 C491 0.931 . S
H502 C492 0.930 . S
H503 C493 0.929 . S
Eu504 N533 2.600 . S
Eu504 N539 2.562 . S
Eu504 O548 2.462 . S
Eu504 O549 2.373 . S
Eu504 O551 2.432 . S
Eu504 O552 2.291 . S
Eu504 O556 2.335 . S
Eu504 O559 2.372 . S
Eu504 C568 2.787 . S
C505 N506 1.365 . S
C505 C508 1.405 . S
C505 C512 1.448 . S
N506 C505 1.365 . S
N506 C509 1.319 . S
N506 Eu515 2.600 . S
C507 C509 1.397 1_554 S
C507 C510 1.367 1_554 S
C507 H527 0.931 . S
C508 C505 1.405 . S
C508 C510 1.403 . S
C508 C514 1.439 . S
C509 N506 1.319 . S
C509 C507 1.397 1_556 S
C509 H520 0.930 1_556 S
C510 C507 1.367 1_556 S
C510 C508 1.403 . S
C510 H531 0.929 . S
C511 C512 1.430 . S
C511 C513 1.387 . S
C511 C517 1.404 . S
C512 C505 1.448 . S
C512 C511 1.430 . S
C512 N516 1.351 . S
C513 C511 1.387 . S
C513 C514 1.374 . S
C513 H528 0.931 . S
C514 C508 1.439 . S
C514 C513 1.374 . S
C514 H529 0.931 . S
Eu515 N506 2.600 . S
Eu515 N516 2.562 . S
Eu515 O550 2.335 . S
Eu515 O553 2.372 1_556 S
Eu515 O554 2.462 . S
Eu515 O555 2.373 . S
Eu515 O557 2.432 . S
Eu515 O558 2.291 . S
Eu515 C579 2.787 . S
N516 C512 1.351 . S
N516 Eu515 2.562 . S
N516 C518 1.325 . S
C517 C511 1.404 . S
C517 C519 1.366 . S
C517 H525 0.930 . S
C518 N516 1.325 . S
C518 C519 1.416 . S
C518 H524 0.929 . S
C519 C517 1.366 . S
C519 C518 1.416 . S
C519 H521 0.930 . S
H520 C509 0.930 1_554 S
H521 C519 0.930 . S
H522 C537 0.930 . S
H523 C544 0.930 . S
H524 C518 0.929 . S
H525 C517 0.930 . S
H526 C540 0.929 . S
H527 C507 0.931 . S
H528 C513 0.931 . S
H529 C514 0.931 . S
H530 C535 0.931 . S
H531 C510 0.929 . S
H532 C543 0.930 . S
N533 Eu504 2.600 . S
N533 C534 1.365 . S
N533 C537 1.319 . S
C534 N533 1.365 . S
C534 C536 1.405 . S
C534 C542 1.448 . S
C535 H530 0.931 . S
C535 C537 1.397 . S
C535 C538 1.367 . S
C536 C534 1.405 . S
C536 C538 1.403 . S
C536 C569 1.439 . S
C537 H522 0.930 . S
C537 N533 1.319 . S
C537 C535 1.397 . S
C538 C535 1.367 . S
C538 C536 1.403 . S
C538 H545 0.929 . S
N539 Eu504 2.562 . S
N539 C540 1.325 1_556 S
N539 C542 1.351 . S
C540 H526 0.929 . S
C540 N539 1.325 1_554 S
C540 C544 1.416 . S
C541 C542 1.430 1_554 S
C541 C543 1.404 . S
C541 C570 1.387 . S
C542 C534 1.448 . S
C542 N539 1.351 . S
C542 C541 1.430 1_556 S
C543 H532 0.930 . S
C543 C541 1.404 . S
C543 C544 1.366 . S
C544 H523 0.930 . S
C544 C540 1.416 . S
C544 C543 1.366 . S
H545 C538 0.929 . S
H546 C569 0.931 . S
H547 C570 0.931 . S
O548 Eu504 2.462 . S
O548 C568 1.252 . S
O549 Eu504 2.373 . S
O549 C560 1.249 . S
O550 Eu515 2.335 . S
O550 C560 1.264 . S
O551 Eu504 2.432 . S
O551 C568 1.268 . S
O552 Eu504 2.291 . S
O552 C567 1.255 1_556 S
O553 Eu515 2.372 1_554 S
O553 C567 1.257 . S
O554 Eu515 2.462 . S
O554 C579 1.252 . S
O555 Eu515 2.373 . S
O555 C571 1.249 . S
O556 Eu504 2.335 . S
O556 C571 1.264 . S
O557 Eu515 2.432 . S
O557 C579 1.268 . S
O558 Eu515 2.291 . S
O558 C578 1.255 . S
O559 Eu504 2.372 . S
O559 C578 1.257 . S
C560 O549 1.249 . S
C560 O550 1.264 . S
C561 C564 1.382 . S
C561 C566 1.390 . S
C561 C568 1.506 . S
C562 C563 1.398 . S
C562 C566 1.392 . S
C563 C562 1.398 . S
C563 C565 1.372 . S
C563 H580 0.931 . S
C564 C561 1.382 . S
C564 C565 1.390 . S
C564 H581 0.931 . S
C565 C563 1.372 . S
C565 C564 1.390 . S
C565 H582 0.929 . S
C566 C561 1.390 . S
C566 C562 1.392 . S
C566 H583 0.930 . S
C567 O552 1.255 1_554 S
C567 O553 1.257 . S
C568 Eu504 2.787 . S
C568 O548 1.252 . S
C568 O551 1.268 . S
C568 C561 1.506 . S
C569 C536 1.439 . S
C569 H546 0.931 . S
C569 C570 1.374 1_556 S
C570 C541 1.387 . S
C570 H547 0.931 . S
C570 C569 1.374 1_554 S
C571 O555 1.249 . S
C571 O556 1.264 . S
C572 C575 1.382 1_556 S
C572 C576 1.390 . S
C572 C579 1.506 . S
C573 C574 1.398 . S
C573 C576 1.392 . S
C574 C573 1.398 . S
C574 C577 1.372 1_556 S
C574 H584 0.931 . S
C575 C572 1.382 1_554 S
C575 C577 1.390 . S
C575 H585 0.931 . S
C576 C572 1.390 . S
C576 C573 1.392 . S
C576 H586 0.930 . S
C577 C574 1.372 1_554 S
C577 C575 1.390 . S
C577 H587 0.929 . S
C578 O558 1.255 . S
C578 O559 1.257 . S
C579 Eu515 2.787 . S
C579 O554 1.252 . S
C579 O557 1.268 . S
C579 C572 1.506 . S
H580 C563 0.931 . S
H581 C564 0.931 . S
H582 C565 0.929 . S
H583 C566 0.930 . S
H584 C574 0.931 . S
H585 C575 0.931 . S
H586 C576 0.930 . S
H587 C577 0.929 . S
Eu588 N617 2.600 . S
Eu588 N623 2.562 . S
Eu588 O632 2.462 . S
Eu588 O633 2.373 . S
Eu588 O635 2.432 . S
Eu588 O636 2.291 . S
Eu588 O640 2.335 . S
Eu588 O643 2.372 . S
Eu588 C652 2.787 . S
C589 N590 1.365 . S
C589 C592 1.405 . S
C589 C596 1.448 . S
N590 C589 1.365 . S
N590 C593 1.319 . S
N590 Eu599 2.600 . S
C591 C593 1.397 1_554 S
C591 C594 1.367 1_554 S
C591 H611 0.931 . S
C592 C589 1.405 . S
C592 C594 1.403 . S
C592 C598 1.439 . S
C593 N590 1.319 . S
C593 C591 1.397 1_556 S
C593 H604 0.930 1_556 S
C594 C591 1.367 1_556 S
C594 C592 1.403 . S
C594 H615 0.929 . S
C595 C596 1.430 . S
C595 C597 1.387 . S
C595 C601 1.404 . S
C596 C589 1.448 . S
C596 C595 1.430 . S
C596 N600 1.351 . S
C597 C595 1.387 . S
C597 C598 1.374 . S
C597 H612 0.931 . S
C598 C592 1.439 . S
C598 C597 1.374 . S
C598 H613 0.931 . S
Eu599 N590 2.600 . S
Eu599 N600 2.562 . S
Eu599 O634 2.335 . S
Eu599 O637 2.372 1_556 S
Eu599 O638 2.462 . S
Eu599 O639 2.373 . S
Eu599 O641 2.432 . S
Eu599 O642 2.291 . S
Eu599 C663 2.787 . S
N600 C596 1.351 . S
N600 Eu599 2.562 . S
N600 C602 1.325 . S
C601 C595 1.404 . S
C601 C603 1.366 . S
C601 H609 0.930 . S
C602 N600 1.325 . S
C602 C603 1.416 . S
C602 H608 0.929 . S
C603 C601 1.366 . S
C603 C602 1.416 . S
C603 H605 0.930 . S
H604 C593 0.930 1_554 S
H605 C603 0.930 . S
H606 C621 0.930 . S
H607 C628 0.930 . S
H608 C602 0.929 . S
H609 C601 0.930 . S
H610 C624 0.929 . S
H611 C591 0.931 . S
H612 C597 0.931 . S
H613 C598 0.931 . S
H614 C619 0.931 . S
H615 C594 0.929 . S
H616 C627 0.930 . S
N617 Eu588 2.600 . S
N617 C618 1.365 . S
N617 C621 1.319 . S
C618 N617 1.365 . S
C618 C620 1.405 . S
C618 C626 1.448 . S
C619 H614 0.931 . S
C619 C621 1.397 . S
C619 C622 1.367 . S
C620 C618 1.405 . S
C620 C622 1.403 . S
C620 C653 1.439 . S
C621 H606 0.930 . S
C621 N617 1.319 . S
C621 C619 1.397 . S
C622 C619 1.367 . S
C622 C620 1.403 . S
C622 H629 0.929 . S
N623 Eu588 2.562 . S
N623 C624 1.325 1_556 S
N623 C626 1.351 . S
C624 H610 0.929 . S
C624 N623 1.325 1_554 S
C624 C628 1.416 . S
C625 C626 1.430 1_554 S
C625 C627 1.404 . S
C625 C654 1.387 . S
C626 C618 1.448 . S
C626 N623 1.351 . S
C626 C625 1.430 1_556 S
C627 H616 0.930 . S
C627 C625 1.404 . S
C627 C628 1.366 . S
C628 H607 0.930 . S
C628 C624 1.416 . S
C628 C627 1.366 . S
H629 C622 0.929 . S
H630 C653 0.931 . S
H631 C654 0.931 . S
O632 Eu588 2.462 . S
O632 C652 1.252 . S
O633 Eu588 2.373 . S
O633 C644 1.249 . S
O634 Eu599 2.335 . S
O634 C644 1.264 . S
O635 Eu588 2.432 . S
O635 C652 1.268 . S
O636 Eu588 2.291 . S
O636 C651 1.255 1_556 S
O637 Eu599 2.372 1_554 S
O637 C651 1.257 . S
O638 Eu599 2.462 . S
O638 C663 1.252 . S
O639 Eu599 2.373 . S
O639 C655 1.249 . S
O640 Eu588 2.335 . S
O640 C655 1.264 . S
O641 Eu599 2.432 . S
O641 C663 1.268 . S
O642 Eu599 2.291 . S
O642 C662 1.255 . S
O643 Eu588 2.372 . S
O643 C662 1.257 . S
C644 O633 1.249 . S
C644 O634 1.264 . S
C645 C648 1.382 . S
C645 C650 1.390 . S
C645 C652 1.506 . S
C646 C647 1.398 . S
C646 C650 1.392 . S
C647 C646 1.398 . S
C647 C649 1.372 . S
C647 H664 0.931 . S
C648 C645 1.382 . S
C648 C649 1.390 . S
C648 H665 0.931 . S
C649 C647 1.372 . S
C649 C648 1.390 . S
C649 H666 0.929 . S
C650 C645 1.390 . S
C650 C646 1.392 . S
C650 H667 0.930 . S
C651 O636 1.255 1_554 S
C651 O637 1.257 . S
C652 Eu588 2.787 . S
C652 O632 1.252 . S
C652 O635 1.268 . S
C652 C645 1.506 . S
C653 C620 1.439 . S
C653 H630 0.931 . S
C653 C654 1.374 1_556 S
C654 C625 1.387 . S
C654 H631 0.931 . S
C654 C653 1.374 1_554 S
C655 O639 1.249 . S
C655 O640 1.264 . S
C656 C659 1.382 1_556 S
C656 C660 1.390 . S
C656 C663 1.506 . S
C657 C658 1.398 . S
C657 C660 1.392 . S
C658 C657 1.398 . S
C658 C661 1.372 1_556 S
C658 H668 0.931 . S
C659 C656 1.382 1_554 S
C659 C661 1.390 . S
C659 H669 0.931 . S
C660 C656 1.390 . S
C660 C657 1.392 . S
C660 H670 0.930 . S
C661 C658 1.372 1_554 S
C661 C659 1.390 . S
C661 H671 0.929 . S
C662 O642 1.255 . S
C662 O643 1.257 . S
C663 Eu599 2.787 . S
C663 O638 1.252 . S
C663 O641 1.268 . S
C663 C656 1.506 . S
H664 C647 0.931 . S
H665 C648 0.931 . S
H666 C649 0.929 . S
H667 C650 0.930 . S
H668 C658 0.931 . S
H669 C659 0.931 . S
H670 C660 0.930 . S
H671 C661 0.929 . S
Eu672 N701 2.600 . S
Eu672 N707 2.562 . S
Eu672 O716 2.462 . S
Eu672 O717 2.373 . S
Eu672 O719 2.432 . S
Eu672 O720 2.291 . S
Eu672 O724 2.335 . S
Eu672 O727 2.372 . S
Eu672 C736 2.787 . S
C673 N674 1.365 . S
C673 C676 1.405 . S
C673 C680 1.448 . S
N674 C673 1.365 . S
N674 C677 1.319 . S
N674 Eu683 2.600 . S
C675 C677 1.397 1_554 S
C675 C678 1.367 1_554 S
C675 H695 0.931 . S
C676 C673 1.405 . S
C676 C678 1.403 . S
C676 C682 1.439 . S
C677 N674 1.319 . S
C677 C675 1.397 1_556 S
C677 H688 0.930 1_556 S
C678 C675 1.367 1_556 S
C678 C676 1.403 . S
C678 H699 0.929 . S
C679 C680 1.430 . S
C679 C681 1.387 . S
C679 C685 1.404 . S
C680 C673 1.448 . S
C680 C679 1.430 . S
C680 N684 1.351 . S
C681 C679 1.387 . S
C681 C682 1.374 . S
C681 H696 0.931 . S
C682 C676 1.439 . S
C682 C681 1.374 . S
C682 H697 0.931 . S
Eu683 N674 2.600 . S
Eu683 N684 2.562 . S
Eu683 O718 2.335 . S
Eu683 O721 2.372 1_556 S
Eu683 O722 2.462 . S
Eu683 O723 2.373 . S
Eu683 O725 2.432 . S
Eu683 O726 2.291 . S
Eu683 C747 2.787 . S
N684 C680 1.351 . S
N684 Eu683 2.562 . S
N684 C686 1.325 . S
C685 C679 1.404 . S
C685 C687 1.366 . S
C685 H693 0.930 . S
C686 N684 1.325 . S
C686 C687 1.416 . S
C686 H692 0.929 . S
C687 C685 1.366 . S
C687 C686 1.416 . S
C687 H689 0.930 . S
H688 C677 0.930 1_554 S
H689 C687 0.930 . S
H690 C705 0.930 . S
H691 C712 0.930 . S
H692 C686 0.929 . S
H693 C685 0.930 . S
H694 C708 0.929 . S
H695 C675 0.931 . S
H696 C681 0.931 . S
H697 C682 0.931 . S
H698 C703 0.931 . S
H699 C678 0.929 . S
H700 C711 0.930 . S
N701 Eu672 2.600 . S
N701 C702 1.365 . S
N701 C705 1.319 . S
C702 N701 1.365 . S
C702 C704 1.405 . S
C702 C710 1.448 . S
C703 H698 0.931 . S
C703 C705 1.397 . S
C703 C706 1.367 . S
C704 C702 1.405 . S
C704 C706 1.403 . S
C704 C737 1.439 . S
C705 H690 0.930 . S
C705 N701 1.319 . S
C705 C703 1.397 . S
C706 C703 1.367 . S
C706 C704 1.403 . S
C706 H713 0.929 . S
N707 Eu672 2.562 . S
N707 C708 1.325 1_556 S
N707 C710 1.351 . S
C708 H694 0.929 . S
C708 N707 1.325 1_554 S
C708 C712 1.416 . S
C709 C710 1.430 1_554 S
C709 C711 1.404 . S
C709 C738 1.387 . S
C710 C702 1.448 . S
C710 N707 1.351 . S
C710 C709 1.430 1_556 S
C711 H700 0.930 . S
C711 C709 1.404 . S
C711 C712 1.366 . S
C712 H691 0.930 . S
C712 C708 1.416 . S
C712 C711 1.366 . S
H713 C706 0.929 . S
H714 C737 0.931 . S
H715 C738 0.931 . S
O716 Eu672 2.462 . S
O716 C736 1.252 . S
O717 Eu672 2.373 . S
O717 C728 1.249 . S
O718 Eu683 2.335 . S
O718 C728 1.264 . S
O719 Eu672 2.432 . S
O719 C736 1.268 . S
O720 Eu672 2.291 . S
O720 C735 1.255 1_556 S
O721 Eu683 2.372 1_554 S
O721 C735 1.257 . S
O722 Eu683 2.462 . S
O722 C747 1.252 . S
O723 Eu683 2.373 . S
O723 C739 1.249 . S
O724 Eu672 2.335 . S
O724 C739 1.264 . S
O725 Eu683 2.432 . S
O725 C747 1.268 . S
O726 Eu683 2.291 . S
O726 C746 1.255 . S
O727 Eu672 2.372 . S
O727 C746 1.257 . S
C728 O717 1.249 . S
C728 O718 1.264 . S
C729 C732 1.382 . S
C729 C734 1.390 . S
C729 C736 1.506 . S
C730 C731 1.398 . S
C730 C734 1.392 . S
C731 C730 1.398 . S
C731 C733 1.372 . S
C731 H748 0.931 . S
C732 C729 1.382 . S
C732 C733 1.390 . S
C732 H749 0.931 . S
C733 C731 1.372 . S
C733 C732 1.390 . S
C733 H750 0.929 . S
C734 C729 1.390 . S
C734 C730 1.392 . S
C734 H751 0.930 . S
C735 O720 1.255 1_554 S
C735 O721 1.257 . S
C736 Eu672 2.787 . S
C736 O716 1.252 . S
C736 O719 1.268 . S
C736 C729 1.506 . S
C737 C704 1.439 . S
C737 H714 0.931 . S
C737 C738 1.374 1_556 S
C738 C709 1.387 . S
C738 H715 0.931 . S
C738 C737 1.374 1_554 S
C739 O723 1.249 . S
C739 O724 1.264 . S
C740 C743 1.382 1_556 S
C740 C744 1.390 . S
C740 C747 1.506 . S
C741 C742 1.398 . S
C741 C744 1.392 . S
C742 C741 1.398 . S
C742 C745 1.372 1_556 S
C742 H752 0.931 . S
C743 C740 1.382 1_554 S
C743 C745 1.390 . S
C743 H753 0.931 . S
C744 C740 1.390 . S
C744 C741 1.392 . S
C744 H754 0.930 . S
C745 C742 1.372 1_554 S
C745 C743 1.390 . S
C745 H755 0.929 . S
C746 O726 1.255 . S
C746 O727 1.257 . S
C747 Eu683 2.787 . S
C747 O722 1.252 . S
C747 O725 1.268 . S
C747 C740 1.506 . S
H748 C731 0.931 . S
H749 C732 0.931 . S
H750 C733 0.929 . S
H751 C734 0.930 . S
H752 C742 0.931 . S
H753 C743 0.931 . S
H754 C744 0.930 . S
H755 C745 0.929 . S
Eu756 N785 2.600 . S
Eu756 N791 2.562 . S
Eu756 O800 2.462 . S
Eu756 O801 2.373 . S
Eu756 O803 2.432 . S
Eu756 O804 2.291 . S
Eu756 O808 2.335 . S
Eu756 O811 2.372 . S
Eu756 C820 2.787 . S
C757 N758 1.365 . S
C757 C760 1.405 . S
C757 C764 1.448 . S
N758 C757 1.365 . S
N758 C761 1.319 . S
N758 Eu767 2.600 . S
C759 C761 1.397 . S
C759 C762 1.367 . S
C759 H779 0.931 . S
C760 C757 1.405 . S
C760 C762 1.403 . S
C760 C766 1.439 . S
C761 N758 1.319 . S
C761 C759 1.397 . S
C761 H772 0.930 . S
C762 C759 1.367 . S
C762 C760 1.403 . S
C762 H783 0.929 . S
C763 C764 1.430 . S
C763 C765 1.387 . S
C763 C769 1.404 . S
C764 C757 1.448 . S
C764 C763 1.430 . S
C764 N768 1.351 . S
C765 C763 1.387 . S
C765 C766 1.374 . S
C765 H780 0.931 . S
C766 C760 1.439 . S
C766 C765 1.374 . S
C766 H781 0.931 . S
Eu767 N758 2.600 . S
Eu767 N768 2.562 . S
Eu767 O802 2.335 . S
Eu767 O805 2.372 . S
Eu767 O806 2.462 . S
Eu767 O807 2.373 . S
Eu767 O809 2.432 . S
Eu767 O810 2.291 . S
Eu767 C831 2.787 . S
N768 C764 1.351 . S
N768 Eu767 2.562 . S
N768 C770 1.325 . S
C769 C763 1.404 . S
C769 C771 1.366 . S
C769 H777 0.930 . S
C770 N768 1.325 . S
C770 C771 1.416 . S
C770 H776 0.929 . S
C771 C769 1.366 . S
C771 C770 1.416 . S
C771 H773 0.930 . S
H772 C761 0.930 . S
H773 C771 0.930 . S
H774 C789 0.930 . S
H775 C796 0.930 . S
H776 C770 0.929 . S
H777 C769 0.930 . S
H778 C792 0.929 . S
H779 C759 0.931 . S
H780 C765 0.931 . S
H781 C766 0.931 . S
H782 C787 0.931 . S
H783 C762 0.929 . S
H784 C795 0.930 . S
N785 Eu756 2.600 . S
N785 C786 1.365 . S
N785 C789 1.319 . S
C786 N785 1.365 . S
C786 C788 1.405 . S
C786 C794 1.448 . S
C787 H782 0.931 . S
C787 C789 1.397 . S
C787 C790 1.367 . S
C788 C786 1.405 . S
C788 C790 1.403 . S
C788 C821 1.439 . S
C789 H774 0.930 . S
C789 N785 1.319 . S
C789 C787 1.397 . S
C790 C787 1.367 . S
C790 C788 1.403 . S
C790 H797 0.929 . S
N791 Eu756 2.562 . S
N791 C792 1.325 . S
N791 C794 1.351 . S
C792 H778 0.929 . S
C792 N791 1.325 . S
C792 C796 1.416 . S
C793 C794 1.430 . S
C793 C795 1.404 . S
C793 C822 1.387 . S
C794 C786 1.448 . S
C794 N791 1.351 . S
C794 C793 1.430 . S
C795 H784 0.930 . S
C795 C793 1.404 . S
C795 C796 1.366 . S
C796 H775 0.930 . S
C796 C792 1.416 . S
C796 C795 1.366 . S
H797 C790 0.929 . S
H798 C821 0.931 . S
H799 C822 0.931 . S
O800 Eu756 2.462 . S
O800 C820 1.252 . S
O801 Eu756 2.373 . S
O801 C812 1.249 . S
O802 Eu767 2.335 . S
O802 C812 1.264 . S
O803 Eu756 2.432 . S
O803 C820 1.268 . S
O804 Eu756 2.291 . S
O804 C819 1.255 . S
O805 Eu767 2.372 . S
O805 C819 1.257 . S
O806 Eu767 2.462 . S
O806 C831 1.252 . S
O807 Eu767 2.373 . S
O807 C823 1.249 . S
O808 Eu756 2.335 . S
O808 C823 1.264 . S
O809 Eu767 2.432 . S
O809 C831 1.268 . S
O810 Eu767 2.291 . S
O810 C830 1.255 . S
O811 Eu756 2.372 . S
O811 C830 1.257 . S
C812 O801 1.249 . S
C812 O802 1.264 . S
C813 C816 1.382 . S
C813 C818 1.390 . S
C813 C820 1.506 . S
C814 C815 1.398 . S
C814 C818 1.392 . S
C815 C814 1.398 . S
C815 C817 1.372 . S
C815 H832 0.931 . S
C816 C813 1.382 . S
C816 C817 1.390 . S
C816 H833 0.931 . S
C817 C815 1.372 . S
C817 C816 1.390 . S
C817 H834 0.929 . S
C818 C813 1.390 . S
C818 C814 1.392 . S
C818 H835 0.930 . S
C819 O804 1.255 . S
C819 O805 1.257 . S
C820 Eu756 2.787 . S
C820 O800 1.252 . S
C820 O803 1.268 . S
C820 C813 1.506 . S
C821 C788 1.439 . S
C821 H798 0.931 . S
C821 C822 1.374 . S
C822 C793 1.387 . S
C822 H799 0.931 . S
C822 C821 1.374 . S
C823 O807 1.249 . S
C823 O808 1.264 . S
C824 C827 1.382 . S
C824 C828 1.390 . S
C824 C831 1.506 . S
C825 C826 1.398 . S
C825 C828 1.392 . S
C826 C825 1.398 . S
C826 C829 1.372 . S
C826 H836 0.931 . S
C827 C824 1.382 . S
C827 C829 1.390 . S
C827 H837 0.931 . S
C828 C824 1.390 . S
C828 C825 1.392 . S
C828 H838 0.930 . S
C829 C826 1.372 . S
C829 C827 1.390 . S
C829 H839 0.929 . S
C830 O810 1.255 . S
C830 O811 1.257 . S
C831 Eu767 2.787 . S
C831 O806 1.252 . S
C831 O809 1.268 . S
C831 C824 1.506 . S
H832 C815 0.931 . S
H833 C816 0.931 . S
H834 C817 0.929 . S
H835 C818 0.930 . S
H836 C826 0.931 . S
H837 C827 0.931 . S
H838 C828 0.930 . S
H839 C829 0.929 . S
Eu840 N869 2.600 . S
Eu840 N875 2.562 . S
Eu840 O884 2.462 . S
Eu840 O885 2.373 . S
Eu840 O887 2.432 . S
Eu840 O888 2.291 . S
Eu840 O892 2.335 . S
Eu840 O895 2.372 . S
Eu840 C904 2.787 . S
C841 N842 1.365 . S
C841 C844 1.405 . S
C841 C848 1.448 . S
N842 C841 1.365 . S
N842 C845 1.319 . S
N842 Eu851 2.600 . S
C843 C845 1.397 . S
C843 C846 1.367 . S
C843 H863 0.931 . S
C844 C841 1.405 . S
C844 C846 1.403 . S
C844 C850 1.439 . S
C845 N842 1.319 . S
C845 C843 1.397 . S
C845 H856 0.930 . S
C846 C843 1.367 . S
C846 C844 1.403 . S
C846 H867 0.929 . S
C847 C848 1.430 . S
C847 C849 1.387 . S
C847 C853 1.404 . S
C848 C841 1.448 . S
C848 C847 1.430 . S
C848 N852 1.351 . S
C849 C847 1.387 . S
C849 C850 1.374 . S
C849 H864 0.931 . S
C850 C844 1.439 . S
C850 C849 1.374 . S
C850 H865 0.931 . S
Eu851 N842 2.600 . S
Eu851 N852 2.562 . S
Eu851 O886 2.335 . S
Eu851 O889 2.372 . S
Eu851 O890 2.462 . S
Eu851 O891 2.373 . S
Eu851 O893 2.432 . S
Eu851 O894 2.291 . S
Eu851 C915 2.787 . S
N852 C848 1.351 . S
N852 Eu851 2.562 . S
N852 C854 1.325 . S
C853 C847 1.404 . S
C853 C855 1.366 . S
C853 H861 0.930 . S
C854 N852 1.325 . S
C854 C855 1.416 . S
C854 H860 0.929 . S
C855 C853 1.366 . S
C855 C854 1.416 . S
C855 H857 0.930 . S
H856 C845 0.930 . S
H857 C855 0.930 . S
H858 C873 0.930 . S
H859 C880 0.930 . S
H860 C854 0.929 . S
H861 C853 0.930 . S
H862 C876 0.929 . S
H863 C843 0.931 . S
H864 C849 0.931 . S
H865 C850 0.931 . S
H866 C871 0.931 . S
H867 C846 0.929 . S
H868 C879 0.930 . S
N869 Eu840 2.600 . S
N869 C870 1.365 . S
N869 C873 1.319 . S
C870 N869 1.365 . S
C870 C872 1.405 . S
C870 C878 1.448 . S
C871 H866 0.931 . S
C871 C873 1.397 . S
C871 C874 1.367 . S
C872 C870 1.405 . S
C872 C874 1.403 . S
C872 C905 1.439 . S
C873 H858 0.930 . S
C873 N869 1.319 . S
C873 C871 1.397 . S
C874 C871 1.367 . S
C874 C872 1.403 . S
C874 H881 0.929 . S
N875 Eu840 2.562 . S
N875 C876 1.325 . S
N875 C878 1.351 . S
C876 H862 0.929 . S
C876 N875 1.325 . S
C876 C880 1.416 . S
C877 C878 1.430 . S
C877 C879 1.404 . S
C877 C906 1.387 . S
C878 C870 1.448 . S
C878 N875 1.351 . S
C878 C877 1.430 . S
C879 H868 0.930 . S
C879 C877 1.404 . S
C879 C880 1.366 . S
C880 H859 0.930 . S
C880 C876 1.416 . S
C880 C879 1.366 . S
H881 C874 0.929 . S
H882 C905 0.931 . S
H883 C906 0.931 . S
O884 Eu840 2.462 . S
O884 C904 1.252 . S
O885 Eu840 2.373 . S
O885 C896 1.249 . S
O886 Eu851 2.335 . S
O886 C896 1.264 . S
O887 Eu840 2.432 . S
O887 C904 1.268 . S
O888 Eu840 2.291 . S
O888 C903 1.255 . S
O889 Eu851 2.372 . S
O889 C903 1.257 . S
O890 Eu851 2.462 . S
O890 C915 1.252 . S
O891 Eu851 2.373 . S
O891 C907 1.249 . S
O892 Eu840 2.335 . S
O892 C907 1.264 . S
O893 Eu851 2.432 . S
O893 C915 1.268 . S
O894 Eu851 2.291 . S
O894 C914 1.255 . S
O895 Eu840 2.372 . S
O895 C914 1.257 . S
C896 O885 1.249 . S
C896 O886 1.264 . S
C897 C900 1.382 . S
C897 C902 1.390 . S
C897 C904 1.506 . S
C898 C899 1.398 . S
C898 C902 1.392 . S
C899 C898 1.398 . S
C899 C901 1.372 . S
C899 H916 0.931 . S
C900 C897 1.382 . S
C900 C901 1.390 . S
C900 H917 0.931 . S
C901 C899 1.372 . S
C901 C900 1.390 . S
C901 H918 0.929 . S
C902 C897 1.390 . S
C902 C898 1.392 . S
C902 H919 0.930 . S
C903 O888 1.255 . S
C903 O889 1.257 . S
C904 Eu840 2.787 . S
C904 O884 1.252 . S
C904 O887 1.268 . S
C904 C897 1.506 . S
C905 C872 1.439 . S
C905 H882 0.931 . S
C905 C906 1.374 . S
C906 C877 1.387 . S
C906 H883 0.931 . S
C906 C905 1.374 . S
C907 O891 1.249 . S
C907 O892 1.264 . S
C908 C911 1.382 . S
C908 C912 1.390 . S
C908 C915 1.506 . S
C909 C910 1.398 . S
C909 C912 1.392 . S
C910 C909 1.398 . S
C910 C913 1.372 . S
C910 H920 0.931 . S
C911 C908 1.382 . S
C911 C913 1.390 . S
C911 H921 0.931 . S
C912 C908 1.390 . S
C912 C909 1.392 . S
C912 H922 0.930 . S
C913 C910 1.372 . S
C913 C911 1.390 . S
C913 H923 0.929 . S
C914 O894 1.255 . S
C914 O895 1.257 . S
C915 Eu851 2.787 . S
C915 O890 1.252 . S
C915 O893 1.268 . S
C915 C908 1.506 . S
H916 C899 0.931 . S
H917 C900 0.931 . S
H918 C901 0.929 . S
H919 C902 0.930 . S
H920 C910 0.931 . S
H921 C911 0.931 . S
H922 C912 0.930 . S
H923 C913 0.929 . S
Eu924 N953 2.600 . S
Eu924 N959 2.562 . S
Eu924 O968 2.462 . S
Eu924 O969 2.373 . S
Eu924 O971 2.432 . S
Eu924 O972 2.291 . S
Eu924 O976 2.335 . S
Eu924 O979 2.372 . S
Eu924 C988 2.787 . S
C925 N926 1.365 . S
C925 C928 1.405 . S
C925 C932 1.448 . S
N926 C925 1.365 . S
N926 C929 1.319 . S
N926 Eu935 2.600 . S
C927 C929 1.397 . S
C927 C930 1.367 . S
C927 H947 0.931 . S
C928 C925 1.405 . S
C928 C930 1.403 . S
C928 C934 1.439 . S
C929 N926 1.319 . S
C929 C927 1.397 . S
C929 H940 0.930 . S
C930 C927 1.367 . S
C930 C928 1.403 . S
C930 H951 0.929 . S
C931 C932 1.430 . S
C931 C933 1.387 . S
C931 C937 1.404 . S
C932 C925 1.448 . S
C932 C931 1.430 . S
C932 N936 1.351 . S
C933 C931 1.387 . S
C933 C934 1.374 . S
C933 H948 0.931 . S
C934 C928 1.439 . S
C934 C933 1.374 . S
C934 H949 0.931 . S
Eu935 N926 2.600 . S
Eu935 N936 2.562 . S
Eu935 O970 2.335 . S
Eu935 O973 2.372 . S
Eu935 O974 2.462 . S
Eu935 O975 2.373 . S
Eu935 O977 2.432 . S
Eu935 O978 2.291 . S
Eu935 C999 2.787 . S
N936 C932 1.351 . S
N936 Eu935 2.562 . S
N936 C938 1.325 . S
C937 C931 1.404 . S
C937 C939 1.366 . S
C937 H945 0.930 . S
C938 N936 1.325 . S
C938 C939 1.416 . S
C938 H944 0.929 . S
C939 C937 1.366 . S
C939 C938 1.416 . S
C939 H941 0.930 . S
H940 C929 0.930 . S
H941 C939 0.930 . S
H942 C957 0.930 . S
H943 C964 0.930 . S
H944 C938 0.929 . S
H945 C937 0.930 . S
H946 C960 0.929 . S
H947 C927 0.931 . S
H948 C933 0.931 . S
H949 C934 0.931 . S
H950 C955 0.931 . S
H951 C930 0.929 . S
H952 C963 0.930 . S
N953 Eu924 2.600 . S
N953 C954 1.365 . S
N953 C957 1.319 . S
C954 N953 1.365 . S
C954 C956 1.405 . S
C954 C962 1.448 . S
C955 H950 0.931 . S
C955 C957 1.397 . S
C955 C958 1.367 . S
C956 C954 1.405 . S
C956 C958 1.403 . S
C956 C989 1.439 . S
C957 H942 0.930 . S
C957 N953 1.319 . S
C957 C955 1.397 . S
C958 C955 1.367 . S
C958 C956 1.403 . S
C958 H965 0.929 . S
N959 Eu924 2.562 . S
N959 C960 1.325 . S
N959 C962 1.351 . S
C960 H946 0.929 . S
C960 N959 1.325 . S
C960 C964 1.416 . S
C961 C962 1.430 . S
C961 C963 1.404 . S
C961 C990 1.387 . S
C962 C954 1.448 . S
C962 N959 1.351 . S
C962 C961 1.430 . S
C963 H952 0.930 . S
C963 C961 1.404 . S
C963 C964 1.366 . S
C964 H943 0.930 . S
C964 C960 1.416 . S
C964 C963 1.366 . S
H965 C958 0.929 . S
H966 C989 0.931 . S
H967 C990 0.931 . S
O968 Eu924 2.462 . S
O968 C988 1.252 . S
O969 Eu924 2.373 . S
O969 C980 1.249 . S
O970 Eu935 2.335 . S
O970 C980 1.264 . S
O971 Eu924 2.432 . S
O971 C988 1.268 . S
O972 Eu924 2.291 . S
O972 C987 1.255 . S
O973 Eu935 2.372 . S
O973 C987 1.257 . S
O974 Eu935 2.462 . S
O974 C999 1.252 . S
O975 Eu935 2.373 . S
O975 C991 1.249 . S
O976 Eu924 2.335 . S
O976 C991 1.264 . S
O977 Eu935 2.432 . S
O977 C999 1.268 . S
O978 Eu935 2.291 . S
O978 C998 1.255 . S
O979 Eu924 2.372 . S
O979 C998 1.257 . S
C980 O969 1.249 . S
C980 O970 1.264 . S
C981 C984 1.382 . S
C981 C986 1.390 . S
C981 C988 1.506 . S
C982 C983 1.398 . S
C982 C986 1.392 . S
C983 C982 1.398 . S
C983 C985 1.372 . S
C983 H1000 0.931 . S
C984 C981 1.382 . S
C984 C985 1.390 . S
C984 H1001 0.931 . S
C985 C983 1.372 . S
C985 C984 1.390 . S
C985 H1002 0.929 . S
C986 C981 1.390 . S
C986 C982 1.392 . S
C986 H1003 0.930 . S
C987 O972 1.255 . S
C987 O973 1.257 . S
C988 Eu924 2.787 . S
C988 O968 1.252 . S
C988 O971 1.268 . S
C988 C981 1.506 . S
C989 C956 1.439 . S
C989 H966 0.931 . S
C989 C990 1.374 . S
C990 C961 1.387 . S
C990 H967 0.931 . S
C990 C989 1.374 . S
C991 O975 1.249 . S
C991 O976 1.264 . S
C992 C995 1.382 . S
C992 C996 1.390 . S
C992 C999 1.506 . S
C993 C994 1.398 . S
C993 C996 1.392 . S
C994 C993 1.398 . S
C994 C997 1.372 . S
C994 H1004 0.931 . S
C995 C992 1.382 . S
C995 C997 1.390 . S
C995 H1005 0.931 . S
C996 C992 1.390 . S
C996 C993 1.392 . S
C996 H1006 0.930 . S
C997 C994 1.372 . S
C997 C995 1.390 . S
C997 H1007 0.929 . S
C998 O978 1.255 . S
C998 O979 1.257 . S
C999 Eu935 2.787 . S
C999 O974 1.252 . S
C999 O977 1.268 . S
C999 C992 1.506 . S
H1000 C983 0.931 . S
H1001 C984 0.931 . S
H1002 C985 0.929 . S
H1003 C986 0.930 . S
H1004 C994 0.931 . S
H1005 C995 0.931 . S
H1006 C996 0.930 . S
H1007 C997 0.929 . S
C1008 C1009 1.391 . S
C1008 C1010 1.394 1_554 S
C1008 H1024 0.931 . S
C1009 C1008 1.391 . S
C1009 C1013 1.376 1_455 S
C1010 C1008 1.394 1_556 S
C1010 C1011 1.369 1_556 S
C1010 C1014 1.531 . S
C1011 C1010 1.369 1_554 S
C1011 C1012 1.410 1_455 S
C1011 C1019 1.503 1_454 S
C1012 C1011 1.410 1_655 S
C1012 C1013 1.392 . S
C1012 C1015 1.511 . S
C1013 C1009 1.376 1_655 S
C1013 C1012 1.392 . S
C1013 H1025 0.929 . S
C1014 C1010 1.531 . S
C1014 H1026 0.960 . S
C1014 H1027 0.962 . S
C1014 H1028 0.960 . S
C1015 C1012 1.511 . S
C1015 H1029 0.961 . S
C1015 H1030 0.961 . S
C1015 H1031 0.961 . S
C1016 C1017 1.370 . S
C1016 C1018 1.363 1_656 S
C1016 H1032 0.931 1_656 S
C1017 C1016 1.370 . S
C1017 C1021 1.408 . S
C1018 C1016 1.363 1_454 S
C1018 C1019 1.370 1_454 S
C1018 C1022 1.524 . S
C1019 C1011 1.503 1_656 S
C1019 C1018 1.370 1_656 S
C1019 C1020 1.403 . S
C1020 C1019 1.403 . S
C1020 C1021 1.404 . S
C1020 C1023 1.539 . S
C1021 C1017 1.408 . S
C1021 C1020 1.404 . S
C1021 H1033 0.930 . S
C1022 C1018 1.524 . S
C1022 H1034 0.956 . S
C1022 H1035 0.961 . S
C1022 H1036 0.961 . S
C1023 C1020 1.539 . S
C1023 H1037 0.958 . S
C1023 H1038 0.961 . S
C1023 H1039 0.960 . S
H1024 C1008 0.931 . S
H1025 C1013 0.929 . S
H1026 C1014 0.960 . S
H1027 C1014 0.962 . S
H1028 C1014 0.960 . S
H1029 C1015 0.961 . S
H1030 C1015 0.961 . S
H1031 C1015 0.961 . S
H1032 C1016 0.931 1_454 S
H1033 C1021 0.930 . S
H1034 C1022 0.956 . S
H1035 C1022 0.961 . S
H1036 C1022 0.961 . S
H1037 C1023 0.958 . S
H1038 C1023 0.961 . S
H1039 C1023 0.960 . S
C1040 C1041 1.391 . S
C1040 C1042 1.394 . S
C1040 H1056 0.931 . S
C1041 C1040 1.391 . S
C1041 C1045 1.376 . S
C1042 C1040 1.394 . S
C1042 C1043 1.369 . S
C1042 C1046 1.531 . S
C1043 C1042 1.369 . S
C1043 C1044 1.410 . S
C1043 C1051 1.503 1_556 S
C1044 C1043 1.410 . S
C1044 C1045 1.392 . S
C1044 C1047 1.511 1_556 S
C1045 C1041 1.376 . S
C1045 C1044 1.392 . S
C1045 H1057 0.929 . S
C1046 C1042 1.531 . S
C1046 H1058 0.960 . S
C1046 H1059 0.962 . S
C1046 H1060 0.960 . S
C1047 C1044 1.511 1_554 S
C1047 H1061 0.961 . S
C1047 H1062 0.961 . S
C1047 H1063 0.961 . S
C1048 C1049 1.370 . S
C1048 C1050 1.363 . S
C1048 H1064 0.931 . S
C1049 C1048 1.370 . S
C1049 C1053 1.408 . S
C1050 C1048 1.363 . S
C1050 C1051 1.370 . S
C1050 C1054 1.524 . S
C1051 C1043 1.503 1_554 S
C1051 C1050 1.370 . S
C1051 C1052 1.403 1_554 S
C1052 C1051 1.403 1_556 S
C1052 C1053 1.404 1_556 S
C1052 C1055 1.539 . S
C1053 C1049 1.408 . S
C1053 C1052 1.404 1_554 S
C1053 H1065 0.930 1_554 S
C1054 C1050 1.524 . S
C1054 H1066 0.956 . S
C1054 H1067 0.961 . S
C1054 H1068 0.961 . S
C1055 C1052 1.539 . S
C1055 H1069 0.958 . S
C1055 H1070 0.961 . S
C1055 H1071 0.960 . S
H1056 C1040 0.931 . S
H1057 C1045 0.929 . S
H1058 C1046 0.960 . S
H1059 C1046 0.962 . S
H1060 C1046 0.960 . S
H1061 C1047 0.961 . S
H1062 C1047 0.961 . S
H1063 C1047 0.961 . S
H1064 C1048 0.931 . S
H1065 C1053 0.930 1_556 S
H1066 C1054 0.956 . S
H1067 C1054 0.961 . S
H1068 C1054 0.961 . S
H1069 C1055 0.958 . S
H1070 C1055 0.961 . S
H1071 C1055 0.960 . S
C1072 C1073 1.387 1_565 S
C1072 C1074 1.392 1_556 S
C1072 H1088 0.936 . S
C1073 C1072 1.387 1_545 S
C1073 C1077 1.376 . S
C1074 C1072 1.392 1_554 S
C1074 C1075 1.369 1_564 S
C1074 C1078 1.531 . S
C1075 C1074 1.369 1_546 S
C1075 C1076 1.410 . S
C1075 C1083 1.512 1_546 S
C1076 C1075 1.410 . S
C1076 C1077 1.392 . S
C1076 C1079 1.511 . S
C1077 C1073 1.376 . S
C1077 C1076 1.392 . S
C1077 H1089 0.929 . S
C1078 C1074 1.531 . S
C1078 H1090 0.960 . S
C1078 H1091 0.962 . S
C1078 H1092 0.960 . S
C1079 C1076 1.511 . S
C1079 H1093 0.961 . S
C1079 H1094 0.961 . S
C1079 H1095 0.961 . S
C1080 C1081 1.370 . S
C1080 C1082 1.363 1_554 S
C1080 H1096 0.931 1_554 S
C1081 C1080 1.370 . S
C1081 C1085 1.408 1_565 S
C1082 C1080 1.363 1_556 S
C1082 C1083 1.385 1_556 S
C1082 C1086 1.524 . S
C1083 C1075 1.512 1_564 S
C1083 C1082 1.385 1_554 S
C1083 C1084 1.382 1_565 S
C1084 C1083 1.382 1_545 S
C1084 C1085 1.404 . S
C1084 C1087 1.539 . S
C1085 C1081 1.408 1_545 S
C1085 C1084 1.404 . S
C1085 H1097 0.930 . S
C1086 C1082 1.524 . S
C1086 H1098 0.956 . S
C1086 H1099 0.961 . S
C1086 H1100 0.961 . S
C1087 C1084 1.539 . S
C1087 H1101 0.958 . S
C1087 H1102 0.961 . S
C1087 H1103 0.960 . S
H1088 C1072 0.936 . S
H1089 C1077 0.929 . S
H1090 C1078 0.960 . S
H1091 C1078 0.962 . S
H1092 C1078 0.960 . S
H1093 C1079 0.961 . S
H1094 C1079 0.961 . S
H1095 C1079 0.961 . S
H1096 C1080 0.931 1_556 S
H1097 C1085 0.930 . S
H1098 C1086 0.956 . S
H1099 C1086 0.961 . S
H1100 C1086 0.961 . S
H1101 C1087 0.958 . S
H1102 C1087 0.961 . S
H1103 C1087 0.960 . S
C1104 C1105 1.391 1_565 S
C1104 C1106 1.394 . S
C1104 H1120 0.931 . S
C1105 C1104 1.391 1_545 S
C1105 C1109 1.376 . S
C1106 C1104 1.394 . S
C1106 C1107 1.369 1_565 S
C1106 C1110 1.531 . S
C1107 C1106 1.369 1_545 S
C1107 C1108 1.410 . S
C1107 C1115 1.503 1_545 S
C1108 C1107 1.410 . S
C1108 C1109 1.392 . S
C1108 C1111 1.511 . S
C1109 C1105 1.376 . S
C1109 C1108 1.392 . S
C1109 H1121 0.929 . S
C1110 C1106 1.531 . S
C1110 H1122 0.960 . S
C1110 H1123 0.962 . S
C1110 H1124 0.960 . S
C1111 C1108 1.511 . S
C1111 H1125 0.961 . S
C1111 H1126 0.961 . S
C1111 H1127 0.961 . S
C1112 C1113 1.370 . S
C1112 C1114 1.375 . S
C1112 H1128 0.931 . S
C1113 C1112 1.370 . S
C1113 C1117 1.408 . S
C1114 C1112 1.375 . S
C1114 C1115 1.372 . S
C1114 C1118 1.511 1_565 S
C1115 C1107 1.503 1_565 S
C1115 C1114 1.372 . S
C1115 C1116 1.403 . S
C1116 C1115 1.403 . S
C1116 C1117 1.404 . S
C1116 C1119 1.539 . S
C1117 C1113 1.408 . S
C1117 C1116 1.404 . S
C1117 H1129 0.930 . S
C1118 C1114 1.511 1_545 S
C1118 H1130 0.957 . S
C1118 H1131 0.961 . S
C1118 H1132 0.961 . S
C1119 C1116 1.539 . S
C1119 H1133 0.958 . S
C1119 H1134 0.961 . S
C1119 H1135 0.960 . S
H1120 C1104 0.931 . S
H1121 C1109 0.929 . S
H1122 C1110 0.960 . S
H1123 C1110 0.962 . S
H1124 C1110 0.960 . S
H1125 C1111 0.961 . S
H1126 C1111 0.961 . S
H1127 C1111 0.961 . S
H1128 C1112 0.931 . S
H1129 C1117 0.930 . S
H1130 C1118 0.957 . S
H1131 C1118 0.961 . S
H1132 C1118 0.961 . S
H1133 C1119 0.958 . S
H1134 C1119 0.961 . S
H1135 C1119 0.960 . S
C1136 C1137 1.391 1_655 S
C1136 C1138 1.394 . S
C1136 H1152 0.931 . S
C1137 C1136 1.391 1_455 S
C1137 C1141 1.376 . S
C1138 C1136 1.394 . S
C1138 C1139 1.369 1_655 S
C1138 C1142 1.531 . S
C1139 C1138 1.369 1_455 S
C1139 C1140 1.410 . S
C1139 C1147 1.503 1_455 S
C1140 C1139 1.410 . S
C1140 C1141 1.392 . S
C1140 C1143 1.511 . S
C1141 C1137 1.376 . S
C1141 C1140 1.392 . S
C1141 H1153 0.929 . S
C1142 C1138 1.531 . S
C1142 H1154 0.960 . S
C1142 H1155 0.962 . S
C1142 H1156 0.960 . S
C1143 C1140 1.511 . S
C1143 H1157 0.961 . S
C1143 H1158 0.961 . S
C1143 H1159 0.961 . S
C1144 C1145 1.370 . S
C1144 C1146 1.363 . S
C1144 H1160 0.931 . S
C1145 C1144 1.370 . S
C1145 C1149 1.408 . S
C1146 C1144 1.363 . S
C1146 C1147 1.370 . S
C1146 C1150 1.524 . S
C1147 C1139 1.503 1_655 S
C1147 C1146 1.370 . S
C1147 C1148 1.403 1_655 S
C1148 C1147 1.403 1_455 S
C1148 C1149 1.404 1_455 S
C1148 C1151 1.539 . S
C1149 C1145 1.408 . S
C1149 C1148 1.404 1_655 S
C1149 H1161 0.930 . S
C1150 C1146 1.524 . S
C1150 H1162 0.956 . S
C1150 H1163 0.961 . S
C1150 H1164 0.961 . S
C1151 C1148 1.539 . S
C1151 H1165 0.958 . S
C1151 H1166 0.961 . S
C1151 H1167 0.960 . S
H1152 C1136 0.931 . S
H1153 C1141 0.929 . S
H1154 C1142 0.960 . S
H1155 C1142 0.962 . S
H1156 C1142 0.960 . S
H1157 C1143 0.961 . S
H1158 C1143 0.961 . S
H1159 C1143 0.961 . S
H1160 C1144 0.931 . S
H1161 C1149 0.930 . S
H1162 C1150 0.956 . S
H1163 C1150 0.961 . S
H1164 C1150 0.961 . S
H1165 C1151 0.958 . S
H1166 C1151 0.961 . S
H1167 C1151 0.960 . S
C1168 C1169 1.391 . S
C1168 C1170 1.394 . S
C1168 H1184 0.931 . S
C1169 C1168 1.391 . S
C1169 C1173 1.376 . S
C1170 C1168 1.394 . S
C1170 C1171 1.369 . S
C1170 C1174 1.531 . S
C1171 C1170 1.369 . S
C1171 C1172 1.410 . S
C1171 C1179 1.503 . S
C1172 C1171 1.410 . S
C1172 C1173 1.392 . S
C1172 C1175 1.511 . S
C1173 C1169 1.376 . S
C1173 C1172 1.392 . S
C1173 H1185 0.929 . S
C1174 C1170 1.531 . S
C1174 H1186 0.960 . S
C1174 H1187 0.962 . S
C1174 H1188 0.960 . S
C1175 C1172 1.511 . S
C1175 H1189 0.961 . S
C1175 H1190 0.961 . S
C1175 H1191 0.961 . S
C1176 C1177 1.370 . S
C1176 C1178 1.363 . S
C1176 H1192 0.931 . S
C1177 C1176 1.370 . S
C1177 C1181 1.408 . S
C1178 C1176 1.363 . S
C1178 C1179 1.370 . S
C1178 C1182 1.524 . S
C1179 C1171 1.503 . S
C1179 C1178 1.370 . S
C1179 C1180 1.403 . S
C1180 C1179 1.403 . S
C1180 C1181 1.404 . S
C1180 C1183 1.539 . S
C1181 C1177 1.408 . S
C1181 C1180 1.404 . S
C1181 H1193 0.930 . S
C1182 C1178 1.524 . S
C1182 H1194 0.956 . S
C1182 H1195 0.961 . S
C1182 H1196 0.961 . S
C1183 C1180 1.539 . S
C1183 H1197 0.958 . S
C1183 H1198 0.961 . S
C1183 H1199 0.960 . S
H1184 C1168 0.931 . S
H1185 C1173 0.929 . S
H1186 C1174 0.960 . S
H1187 C1174 0.962 . S
H1188 C1174 0.960 . S
H1189 C1175 0.961 . S
H1190 C1175 0.961 . S
H1191 C1175 0.961 . S
H1192 C1176 0.931 . S
H1193 C1181 0.930 . S
H1194 C1182 0.956 . S
H1195 C1182 0.961 . S
H1196 C1182 0.961 . S
H1197 C1183 0.958 . S
H1198 C1183 0.961 . S
H1199 C1183 0.960 . S
C1200 C1201 1.391 . S
C1200 C1202 1.394 . S
C1200 H1216 0.931 . S
C1201 C1200 1.391 . S
C1201 C1205 1.376 . S
C1202 C1200 1.394 . S
C1202 C1203 1.369 . S
C1202 C1206 1.531 . S
C1203 C1202 1.369 . S
C1203 C1204 1.410 . S
C1203 C1211 1.503 1_655 S
C1204 C1203 1.410 . S
C1204 C1205 1.392 . S
C1204 C1207 1.511 . S
C1205 C1201 1.376 . S
C1205 C1204 1.392 . S
C1205 H1217 0.929 . S
C1206 C1202 1.531 . S
C1206 H1218 0.960 1_655 S
C1206 H1219 0.962 1_655 S
C1206 H1220 0.960 . S
C1207 C1204 1.511 . S
C1207 H1221 0.961 . S
C1207 H1222 0.961 . S
C1207 H1223 0.961 . S
C1208 C1209 1.370 . S
C1208 C1210 1.363 . S
C1208 H1224 0.931 . S
C1209 C1208 1.370 . S
C1209 C1213 1.408 . S
C1210 C1208 1.363 . S
C1210 C1211 1.370 . S
C1210 C1214 1.524 . S
C1211 C1203 1.503 1_455 S
C1211 C1210 1.370 . S
C1211 C1212 1.403 . S
C1212 C1211 1.403 . S
C1212 C1213 1.404 . S
C1212 C1215 1.523 1_455 S
C1213 C1209 1.408 . S
C1213 C1212 1.404 . S
C1213 H1225 0.930 . S
C1214 C1210 1.524 . S
C1214 H1226 0.956 . S
C1214 H1227 0.961 . S
C1214 H1228 0.961 . S
C1215 C1212 1.523 1_655 S
C1215 H1229 0.941 . S
C1215 H1230 0.955 1_655 S
C1215 H1231 1.001 . S
H1216 C1200 0.931 . S
H1217 C1205 0.929 . S
H1218 C1206 0.960 1_455 S
H1219 C1206 0.962 1_455 S
H1220 C1206 0.960 . S
H1221 C1207 0.961 . S
H1222 C1207 0.961 . S
H1223 C1207 0.961 . S
H1224 C1208 0.931 . S
H1225 C1213 0.930 . S
H1226 C1214 0.956 . S
H1227 C1214 0.961 . S
H1228 C1214 0.961 . S
H1229 C1215 0.941 . S
H1230 C1215 0.955 1_455 S
H1231 C1215 1.001 . S
C1232 C1233 1.391 . S
C1232 C1234 1.394 . S
C1232 H1248 0.931 . S
C1233 C1232 1.391 . S
C1233 C1237 1.376 . S
C1234 C1232 1.394 . S
C1234 C1235 1.369 . S
C1234 C1238 1.531 . S
C1235 C1234 1.369 . S
C1235 C1236 1.410 . S
C1235 C1243 1.503 . S
C1236 C1235 1.410 . S
C1236 C1237 1.392 . S
C1236 C1239 1.511 . S
C1237 C1233 1.376 . S
C1237 C1236 1.392 . S
C1237 H1249 0.929 . S
C1238 C1234 1.531 . S
C1238 H1250 0.960 . S
C1238 H1251 0.962 . S
C1238 H1252 0.960 . S
C1239 C1236 1.511 . S
C1239 H1253 0.961 . S
C1239 H1254 0.961 . S
C1239 H1255 0.961 . S
C1240 C1241 1.370 . S
C1240 C1242 1.363 . S
C1240 H1256 0.931 . S
C1241 C1240 1.370 . S
C1241 C1245 1.408 . S
C1242 C1240 1.363 . S
C1242 C1243 1.370 . S
C1242 C1246 1.524 . S
C1243 C1235 1.503 . S
C1243 C1242 1.370 . S
C1243 C1244 1.403 . S
C1244 C1243 1.403 . S
C1244 C1245 1.404 . S
C1244 C1247 1.539 . S
C1245 C1241 1.408 . S
C1245 C1244 1.404 . S
C1245 H1257 0.930 . S
C1246 C1242 1.524 . S
C1246 H1258 0.956 . S
C1246 H1259 0.961 . S
C1246 H1260 0.961 . S
C1247 C1244 1.539 . S
C1247 H1261 0.958 . S
C1247 H1262 0.961 . S
C1247 H1263 0.960 . S
H1248 C1232 0.931 . S
H1249 C1237 0.929 . S
H1250 C1238 0.960 . S
H1251 C1238 0.962 . S
H1252 C1238 0.960 . S
H1253 C1239 0.961 . S
H1254 C1239 0.961 . S
H1255 C1239 0.961 . S
H1256 C1240 0.931 . S
H1257 C1245 0.930 . S
H1258 C1246 0.956 . S
H1259 C1246 0.961 . S
H1260 C1246 0.961 . S
H1261 C1247 0.958 . S
H1262 C1247 0.961 . S
H1263 C1247 0.960 . S
C1264 C1265 1.391 . S
C1264 C1266 1.394 . S
C1264 H1280 0.931 . S
C1265 C1264 1.391 . S
C1265 C1269 1.376 . S
C1266 C1264 1.394 . S
C1266 C1267 1.369 . S
C1266 C1270 1.531 1_545 S
C1267 C1266 1.369 . S
C1267 C1268 1.410 . S
C1267 C1275 1.503 1_545 S
C1268 C1267 1.410 . S
C1268 C1269 1.392 . S
C1268 C1271 1.511 . S
C1269 C1265 1.376 . S
C1269 C1268 1.392 . S
C1269 H1281 0.929 . S
C1270 C1266 1.531 1_565 S
C1270 H1282 0.960 . S
C1270 H1283 0.962 . S
C1270 H1284 0.960 1_565 S
C1271 C1268 1.511 . S
C1271 H1285 0.961 . S
C1271 H1286 0.961 . S
C1271 H1287 0.961 . S
C1272 C1273 1.370 . S
C1272 C1274 1.363 . S
C1272 H1288 0.931 . S
C1273 C1272 1.370 . S
C1273 C1277 1.408 . S
C1274 C1272 1.363 . S
C1274 C1275 1.370 . S
C1274 C1278 1.524 . S
C1275 C1267 1.503 1_565 S
C1275 C1274 1.370 . S
C1275 C1276 1.403 . S
C1276 C1275 1.403 . S
C1276 C1277 1.404 . S
C1276 C1279 1.539 . S
C1277 C1273 1.408 . S
C1277 C1276 1.404 . S
C1277 H1289 0.930 . S
C1278 C1274 1.524 . S
C1278 H1290 0.956 . S
C1278 H1291 0.961 1_565 S
C1278 H1292 0.961 . S
C1279 C1276 1.539 . S
C1279 H1293 0.958 . S
C1279 H1294 0.961 . S
C1279 H1295 0.960 1_565 S
H1280 C1264 0.931 . S
H1281 C1269 0.929 . S
H1282 C1270 0.960 . S
H1283 C1270 0.962 . S
H1284 C1270 0.960 1_545 S
H1285 C1271 0.961 . S
H1286 C1271 0.961 . S
H1287 C1271 0.961 . S
H1288 C1272 0.931 . S
H1289 C1277 0.930 . S
H1290 C1278 0.956 . S
H1291 C1278 0.961 1_545 S
H1292 C1278 0.961 . S
H1293 C1279 0.958 . S
H1294 C1279 0.961 . S
H1295 C1279 0.960 1_545 S
C1296 C1297 1.391 . S
C1296 C1298 1.394 . S
C1296 H1312 0.931 . S
C1297 C1296 1.391 . S
C1297 C1301 1.376 . S
C1298 C1296 1.394 . S
C1298 C1299 1.369 . S
C1298 C1302 1.531 1_455 S
C1299 C1298 1.369 . S
C1299 C1300 1.410 . S
C1299 C1307 1.503 1_455 S
C1300 C1299 1.410 . S
C1300 C1301 1.392 . S
C1300 C1303 1.511 . S
C1301 C1297 1.376 . S
C1301 C1300 1.392 . S
C1301 H1313 0.929 . S
C1302 C1298 1.531 1_655 S
C1302 H1314 0.960 . S
C1302 H1315 0.962 . S
C1302 H1316 0.960 1_655 S
C1303 C1300 1.511 . S
C1303 H1317 0.961 . S
C1303 H1318 0.961 . S
C1303 H1319 0.961 . S
C1304 C1305 1.370 . S
C1304 C1306 1.363 . S
C1304 H1320 0.931 . S
C1305 C1304 1.370 . S
C1305 C1309 1.408 . S
C1306 C1304 1.363 . S
C1306 C1307 1.370 . S
C1306 C1310 1.535 . S
C1307 C1299 1.503 1_655 S
C1307 C1306 1.370 . S
C1307 C1308 1.403 . S
C1308 C1307 1.403 . S
C1308 C1309 1.404 . S
C1308 C1311 1.539 . S
C1309 C1305 1.408 . S
C1309 C1308 1.404 . S
C1309 H1321 0.930 . S
C1310 C1306 1.535 . S
C1310 H1322 0.960 1_655 S
C1310 H1323 0.922 1_655 S
C1310 H1324 0.987 . S
C1311 C1308 1.539 . S
C1311 H1325 0.958 . S
C1311 H1326 0.961 . S
C1311 H1327 0.960 . S
H1312 C1296 0.931 . S
H1313 C1301 0.929 . S
H1314 C1302 0.960 . S
H1315 C1302 0.962 . S
H1316 C1302 0.960 1_455 S
H1317 C1303 0.961 . S
H1318 C1303 0.961 . S
H1319 C1303 0.961 . S
H1320 C1304 0.931 . S
H1321 C1309 0.930 . S
H1322 C1310 0.960 1_455 S
H1323 C1310 0.922 1_455 S
H1324 C1310 0.987 . S
H1325 C1311 0.958 . S
H1326 C1311 0.961 . S
H1327 C1311 0.960 . S
C1328 C1329 1.391 . S
C1328 C1330 1.394 . S
C1328 H1344 0.931 . S
C1329 C1328 1.391 . S
C1329 C1333 1.376 . S
C1330 C1328 1.394 . S
C1330 C1331 1.369 . S
C1330 C1334 1.531 . S
C1331 C1330 1.369 . S
C1331 C1332 1.410 . S
C1331 C1339 1.503 . S
C1332 C1331 1.410 . S
C1332 C1333 1.392 . S
C1332 C1335 1.511 . S
C1333 C1329 1.376 . S
C1333 C1332 1.392 . S
C1333 H1345 0.929 . S
C1334 C1330 1.531 . S
C1334 H1346 0.960 . S
C1334 H1347 0.962 . S
C1334 H1348 0.960 . S
C1335 C1332 1.511 . S
C1335 H1349 0.961 . S
C1335 H1350 0.961 . S
C1335 H1351 0.961 . S
C1336 C1337 1.370 . S
C1336 C1338 1.363 . S
C1336 H1352 0.931 . S
C1337 C1336 1.370 . S
C1337 C1341 1.408 . S
C1338 C1336 1.363 . S
C1338 C1339 1.370 . S
C1338 C1342 1.524 . S
C1339 C1331 1.503 . S
C1339 C1338 1.370 . S
C1339 C1340 1.403 . S
C1340 C1339 1.403 . S
C1340 C1341 1.404 . S
C1340 C1343 1.539 . S
C1341 C1337 1.408 . S
C1341 C1340 1.404 . S
C1341 H1353 0.930 . S
C1342 C1338 1.524 . S
C1342 H1354 0.956 . S
C1342 H1355 0.961 . S
C1342 H1356 0.961 . S
C1343 C1340 1.539 . S
C1343 H1357 0.958 . S
C1343 H1358 0.961 . S
C1343 H1359 0.960 . S
H1344 C1328 0.931 . S
H1345 C1333 0.929 . S
H1346 C1334 0.960 . S
H1347 C1334 0.962 . S
H1348 C1334 0.960 . S
H1349 C1335 0.961 . S
H1350 C1335 0.961 . S
H1351 C1335 0.961 . S
H1352 C1336 0.931 . S
H1353 C1341 0.930 . S
H1354 C1342 0.956 . S
H1355 C1342 0.961 . S
H1356 C1342 0.961 . S
H1357 C1343 0.958 . S
H1358 C1343 0.961 . S
H1359 C1343 0.960 . S
C1360 C1361 1.391 . S
C1360 C1362 1.394 . S
C1360 H1376 0.931 . S
C1361 C1360 1.391 . S
C1361 C1365 1.376 . S
C1362 C1360 1.394 . S
C1362 C1363 1.369 . S
C1362 C1366 1.531 . S
C1363 C1362 1.369 . S
C1363 C1364 1.410 . S
C1363 C1371 1.503 1_545 S
C1364 C1363 1.410 . S
C1364 C1365 1.392 . S
C1364 C1367 1.511 . S
C1365 C1361 1.376 . S
C1365 C1364 1.392 . S
C1365 H1377 0.929 . S
C1366 C1362 1.531 . S
C1366 H1378 0.960 . S
C1366 H1379 0.962 . S
C1366 H1380 0.960 . S
C1367 C1364 1.511 . S
C1367 H1381 0.961 . S
C1367 H1382 0.961 1_545 S
C1367 H1383 0.961 . S
C1368 C1369 1.370 . S
C1368 C1370 1.363 . S
C1368 H1384 0.931 . S
C1369 C1368 1.370 . S
C1369 C1373 1.408 . S
C1370 C1368 1.363 . S
C1370 C1371 1.370 . S
C1370 C1374 1.524 . S
C1371 C1363 1.503 1_565 S
C1371 C1370 1.370 . S
C1371 C1372 1.403 . S
C1372 C1371 1.403 . S
C1372 C1373 1.404 . S
C1372 C1375 1.552 . S
C1373 C1369 1.408 . S
C1373 C1372 1.404 . S
C1373 H1385 0.930 . S
C1374 C1370 1.524 . S
C1374 H1386 0.956 . S
C1374 H1387 0.961 . S
C1374 H1388 0.961 . S
C1375 C1372 1.552 . S
C1375 H1389 0.930 1_565 S
C1375 H1390 1.000 . S
C1375 H1391 0.939 1_565 S
H1376 C1360 0.931 . S
H1377 C1365 0.929 . S
H1378 C1366 0.960 . S
H1379 C1366 0.962 . S
H1380 C1366 0.960 . S
H1381 C1367 0.961 . S
H1382 C1367 0.961 1_565 S
H1383 C1367 0.961 . S
H1384 C1368 0.931 . S
H1385 C1373 0.930 . S
H1386 C1374 0.956 . S
H1387 C1374 0.961 . S
H1388 C1374 0.961 . S
H1389 C1375 0.930 1_545 S
H1390 C1375 1.000 . S
H1391 C1375 0.939 1_545 S
C1392 C1393 1.391 . S
C1392 C1394 1.394 . S
C1392 H1408 0.931 . S
C1393 C1392 1.391 . S
C1393 C1397 1.376 . S
C1394 C1392 1.394 . S
C1394 C1395 1.369 . S
C1394 C1398 1.531 . S
C1395 C1394 1.369 . S
C1395 C1396 1.410 . S
C1395 C1403 1.503 . S
C1396 C1395 1.410 . S
C1396 C1397 1.392 . S
C1396 C1399 1.511 . S
C1397 C1393 1.376 . S
C1397 C1396 1.392 . S
C1397 H1409 0.929 . S
C1398 C1394 1.531 . S
C1398 H1410 0.960 . S
C1398 H1411 0.962 . S
C1398 H1412 0.960 . S
C1399 C1396 1.511 . S
C1399 H1413 0.961 . S
C1399 H1414 0.961 . S
C1399 H1415 0.961 . S
C1400 C1401 1.370 . S
C1400 C1402 1.363 . S
C1400 H1416 0.931 . S
C1401 C1400 1.370 . S
C1401 C1405 1.408 . S
C1402 C1400 1.363 . S
C1402 C1403 1.370 . S
C1402 C1406 1.524 . S
C1403 C1395 1.503 . S
C1403 C1402 1.370 . S
C1403 C1404 1.403 . S
C1404 C1403 1.403 . S
C1404 C1405 1.404 . S
C1404 C1407 1.539 . S
C1405 C1401 1.408 . S
C1405 C1404 1.404 . S
C1405 H1417 0.930 . S
C1406 C1402 1.524 . S
C1406 H1418 0.956 . S
C1406 H1419 0.961 . S
C1406 H1420 0.961 . S
C1407 C1404 1.539 . S
C1407 H1421 0.958 . S
C1407 H1422 0.961 . S
C1407 H1423 0.960 . S
H1408 C1392 0.931 . S
H1409 C1397 0.929 . S
H1410 C1398 0.960 . S
H1411 C1398 0.962 . S
H1412 C1398 0.960 . S
H1413 C1399 0.961 . S
H1414 C1399 0.961 . S
H1415 C1399 0.961 . S
H1416 C1400 0.931 . S
H1417 C1405 0.930 . S
H1418 C1406 0.956 . S
H1419 C1406 0.961 . S
H1420 C1406 0.961 . S
H1421 C1407 0.958 . S
H1422 C1407 0.961 . S
H1423 C1407 0.960 . S
C1424 C1425 1.391 . S
C1424 C1426 1.394 . S
C1424 H1440 0.931 . S
C1425 C1424 1.391 . S
C1425 C1429 1.376 . S
C1426 C1424 1.394 . S
C1426 C1427 1.369 . S
C1426 C1430 1.531 . S
C1427 C1426 1.369 . S
C1427 C1428 1.410 . S
C1427 C1435 1.503 . S
C1428 C1427 1.410 . S
C1428 C1429 1.392 . S
C1428 C1431 1.511 . S
C1429 C1425 1.376 . S
C1429 C1428 1.392 . S
C1429 H1441 0.929 . S
C1430 C1426 1.531 . S
C1430 H1442 0.960 . S
C1430 H1443 0.962 . S
C1430 H1444 0.960 . S
C1431 C1428 1.511 . S
C1431 H1445 0.961 . S
C1431 H1446 0.961 . S
C1431 H1447 0.961 . S
C1432 C1433 1.370 . S
C1432 C1434 1.363 . S
C1432 H1448 0.931 . S
C1433 C1432 1.370 . S
C1433 C1437 1.408 . S
C1434 C1432 1.363 . S
C1434 C1435 1.370 . S
C1434 C1438 1.524 . S
C1435 C1427 1.503 . S
C1435 C1434 1.370 . S
C1435 C1436 1.403 . S
C1436 C1435 1.403 . S
C1436 C1437 1.404 . S
C1436 C1439 1.539 . S
C1437 C1433 1.408 . S
C1437 C1436 1.404 . S
C1437 H1449 0.930 . S
C1438 C1434 1.524 . S
C1438 H1450 0.956 . S
C1438 H1451 0.961 . S
C1438 H1452 0.961 . S
C1439 C1436 1.539 . S
C1439 H1453 0.958 . S
C1439 H1454 0.961 . S
C1439 H1455 0.960 . S
H1440 C1424 0.931 . S
H1441 C1429 0.929 . S
H1442 C1430 0.960 . S
H1443 C1430 0.962 . S
H1444 C1430 0.960 . S
H1445 C1431 0.961 . S
H1446 C1431 0.961 . S
H1447 C1431 0.961 . S
H1448 C1432 0.931 . S
H1449 C1437 0.930 . S
H1450 C1438 0.956 . S
H1451 C1438 0.961 . S
H1452 C1438 0.961 . S
H1453 C1439 0.958 . S
H1454 C1439 0.961 . S
H1455 C1439 0.960 . S
C1456 C1457 1.391 . S
C1456 C1458 1.394 . S
C1456 H1472 0.931 . S
C1457 C1456 1.391 . S
C1457 C1461 1.376 . S
C1458 C1456 1.394 . S
C1458 C1459 1.369 . S
C1458 C1462 1.531 . S
C1459 C1458 1.369 . S
C1459 C1460 1.410 . S
C1459 C1467 1.503 . S
C1460 C1459 1.410 . S
C1460 C1461 1.392 . S
C1460 C1463 1.511 . S
C1461 C1457 1.376 . S
C1461 C1460 1.392 . S
C1461 H1473 0.929 . S
C1462 C1458 1.531 . S
C1462 H1474 0.960 . S
C1462 H1475 0.962 . S
C1462 H1476 0.960 . S
C1463 C1460 1.511 . S
C1463 H1477 0.961 . S
C1463 H1478 0.961 . S
C1463 H1479 0.961 . S
C1464 C1465 1.370 . S
C1464 C1466 1.363 . S
C1464 H1480 0.931 . S
C1465 C1464 1.370 . S
C1465 C1469 1.408 . S
C1466 C1464 1.363 . S
C1466 C1467 1.370 . S
C1466 C1470 1.524 . S
C1467 C1459 1.503 . S
C1467 C1466 1.370 . S
C1467 C1468 1.403 . S
C1468 C1467 1.403 . S
C1468 C1469 1.404 . S
C1468 C1471 1.539 . S
C1469 C1465 1.408 . S
C1469 C1468 1.404 . S
C1469 H1481 0.930 . S
C1470 C1466 1.524 . S
C1470 H1482 0.956 . S
C1470 H1483 0.961 . S
C1470 H1484 0.961 . S
C1471 C1468 1.539 . S
C1471 H1485 0.958 . S
C1471 H1486 0.961 . S
C1471 H1487 0.960 . S
H1472 C1456 0.931 . S
H1473 C1461 0.929 . S
H1474 C1462 0.960 . S
H1475 C1462 0.962 . S
H1476 C1462 0.960 . S
H1477 C1463 0.961 . S
H1478 C1463 0.961 . S
H1479 C1463 0.961 . S
H1480 C1464 0.931 . S
H1481 C1469 0.930 . S
H1482 C1470 0.956 . S
H1483 C1470 0.961 . S
H1484 C1470 0.961 . S
H1485 C1471 0.958 . S
H1486 C1471 0.961 . S
H1487 C1471 0.960 . S
C1488 C1489 1.391 . S
C1488 C1490 1.394 . S
C1488 H1504 0.931 . S
C1489 C1488 1.391 . S
C1489 C1493 1.376 . S
C1490 C1488 1.394 . S
C1490 C1491 1.369 . S
C1490 C1494 1.531 . S
C1491 C1490 1.369 . S
C1491 C1492 1.410 . S
C1491 C1499 1.503 . S
C1492 C1491 1.410 . S
C1492 C1493 1.392 . S
C1492 C1495 1.511 . S
C1493 C1489 1.376 . S
C1493 C1492 1.392 . S
C1493 H1505 0.929 . S
C1494 C1490 1.531 . S
C1494 H1506 0.960 . S
C1494 H1507 0.962 . S
C1494 H1508 0.960 . S
C1495 C1492 1.511 . S
C1495 H1509 0.961 . S
C1495 H1510 0.961 . S
C1495 H1511 0.961 . S
C1496 C1497 1.370 . S
C1496 C1498 1.363 . S
C1496 H1512 0.931 . S
C1497 C1496 1.370 . S
C1497 C1501 1.408 . S
C1498 C1496 1.363 . S
C1498 C1499 1.370 . S
C1498 C1502 1.524 . S
C1499 C1491 1.503 . S
C1499 C1498 1.370 . S
C1499 C1500 1.403 . S
C1500 C1499 1.403 . S
C1500 C1501 1.404 . S
C1500 C1503 1.539 . S
C1501 C1497 1.408 . S
C1501 C1500 1.404 . S
C1501 H1513 0.930 . S
C1502 C1498 1.524 . S
C1502 H1514 0.956 . S
C1502 H1515 0.961 . S
C1502 H1516 0.961 . S
C1503 C1500 1.539 . S
C1503 H1517 0.958 . S
C1503 H1518 0.961 . S
C1503 H1519 0.960 . S
H1504 C1488 0.931 . S
H1505 C1493 0.929 . S
H1506 C1494 0.960 . S
H1507 C1494 0.962 . S
H1508 C1494 0.960 . S
H1509 C1495 0.961 . S
H1510 C1495 0.961 . S
H1511 C1495 0.961 . S
H1512 C1496 0.931 . S
H1513 C1501 0.930 . S
H1514 C1502 0.956 . S
H1515 C1502 0.961 . S
H1516 C1502 0.961 . S
H1517 C1503 0.958 . S
H1518 C1503 0.961 . S
H1519 C1503 0.960 . S
C1520 C1521 1.391 . S
C1520 C1522 1.394 . S
C1520 H1536 0.931 . S
C1521 C1520 1.391 . S
C1521 C1525 1.376 . S
C1522 C1520 1.394 . S
C1522 C1523 1.369 . S
C1522 C1526 1.531 . S
C1523 C1522 1.369 . S
C1523 C1524 1.410 . S
C1523 C1531 1.503 . S
C1524 C1523 1.410 . S
C1524 C1525 1.392 . S
C1524 C1527 1.511 . S
C1525 C1521 1.376 . S
C1525 C1524 1.392 . S
C1525 H1537 0.929 . S
C1526 C1522 1.531 . S
C1526 H1538 0.960 . S
C1526 H1539 0.962 . S
C1526 H1540 0.960 . S
C1527 C1524 1.511 . S
C1527 H1541 0.961 . S
C1527 H1542 0.961 . S
C1527 H1543 0.961 . S
C1528 C1529 1.370 . S
C1528 C1530 1.363 . S
C1528 H1544 0.931 . S
C1529 C1528 1.370 . S
C1529 C1533 1.408 . S
C1530 C1528 1.363 . S
C1530 C1531 1.370 . S
C1530 C1534 1.524 . S
C1531 C1523 1.503 . S
C1531 C1530 1.370 . S
C1531 C1532 1.403 . S
C1532 C1531 1.403 . S
C1532 C1533 1.404 . S
C1532 C1535 1.539 . S
C1533 C1529 1.408 . S
C1533 C1532 1.404 . S
C1533 H1545 0.930 . S
C1534 C1530 1.524 . S
C1534 H1546 0.956 . S
C1534 H1547 0.961 . S
C1534 H1548 0.961 . S
C1535 C1532 1.539 . S
C1535 H1549 0.958 . S
C1535 H1550 0.961 . S
C1535 H1551 0.960 . S
H1536 C1520 0.931 . S
H1537 C1525 0.929 . S
H1538 C1526 0.960 . S
H1539 C1526 0.962 . S
H1540 C1526 0.960 . S
H1541 C1527 0.961 . S
H1542 C1527 0.961 . S
H1543 C1527 0.961 . S
H1544 C1528 0.931 . S
H1545 C1533 0.930 . S
H1546 C1534 0.956 . S
H1547 C1534 0.961 . S
H1548 C1534 0.961 . S
H1549 C1535 0.958 . S
H1550 C1535 0.961 . S
H1551 C1535 0.960 . S
C1552 C1553 1.391 . S
C1552 C1554 1.394 . S
C1552 H1568 0.931 . S
C1553 C1552 1.391 . S
C1553 C1557 1.376 . S
C1554 C1552 1.394 . S
C1554 C1555 1.369 . S
C1554 C1558 1.531 . S
C1555 C1554 1.369 . S
C1555 C1556 1.410 . S
C1555 C1563 1.503 . S
C1556 C1555 1.410 . S
C1556 C1557 1.392 . S
C1556 C1559 1.511 . S
C1557 C1553 1.376 . S
C1557 C1556 1.392 . S
C1557 H1569 0.929 . S
C1558 C1554 1.531 . S
C1558 H1570 0.960 . S
C1558 H1571 0.962 . S
C1558 H1572 0.960 . S
C1559 C1556 1.511 . S
C1559 H1573 0.961 . S
C1559 H1574 0.961 . S
C1559 H1575 0.961 . S
C1560 C1561 1.370 . S
C1560 C1562 1.363 . S
C1560 H1576 0.931 . S
C1561 C1560 1.370 . S
C1561 C1565 1.408 . S
C1562 C1560 1.363 . S
C1562 C1563 1.370 . S
C1562 C1566 1.524 . S
C1563 C1555 1.503 . S
C1563 C1562 1.370 . S
C1563 C1564 1.403 . S
C1564 C1563 1.403 . S
C1564 C1565 1.404 . S
C1564 C1567 1.539 . S
C1565 C1561 1.408 . S
C1565 C1564 1.404 . S
C1565 H1577 0.930 . S
C1566 C1562 1.524 . S
C1566 H1578 0.956 . S
C1566 H1579 0.961 . S
C1566 H1580 0.961 . S
C1567 C1564 1.539 . S
C1567 H1581 0.958 . S
C1567 H1582 0.961 . S
C1567 H1583 0.960 . S
H1568 C1552 0.931 . S
H1569 C1557 0.929 . S
H1570 C1558 0.960 . S
H1571 C1558 0.962 . S
H1572 C1558 0.960 . S
H1573 C1559 0.961 . S
H1574 C1559 0.961 . S
H1575 C1559 0.961 . S
H1576 C1560 0.931 . S
H1577 C1565 0.930 . S
H1578 C1566 0.956 . S
H1579 C1566 0.961 . S
H1580 C1566 0.961 . S
H1581 C1567 0.958 . S
H1582 C1567 0.961 . S
H1583 C1567 0.960 . S
C1584 C1585 1.391 . S
C1584 C1586 1.394 . S
C1584 H1600 0.931 . S
C1585 C1584 1.391 . S
C1585 C1589 1.376 . S
C1586 C1584 1.394 . S
C1586 C1587 1.369 . S
C1586 C1590 1.531 . S
C1587 C1586 1.369 . S
C1587 C1588 1.410 . S
C1587 C1595 1.503 . S
C1588 C1587 1.410 . S
C1588 C1589 1.392 . S
C1588 C1591 1.511 . S
C1589 C1585 1.376 . S
C1589 C1588 1.392 . S
C1589 H1601 0.929 . S
C1590 C1586 1.531 . S
C1590 H1602 0.960 . S
C1590 H1603 0.962 . S
C1590 H1604 0.960 . S
C1591 C1588 1.511 . S
C1591 H1605 0.961 . S
C1591 H1606 0.961 . S
C1591 H1607 0.961 . S
C1592 C1593 1.370 . S
C1592 C1594 1.363 . S
C1592 H1608 0.931 . S
C1593 C1592 1.370 . S
C1593 C1597 1.408 . S
C1594 C1592 1.363 . S
C1594 C1595 1.370 . S
C1594 C1598 1.524 . S
C1595 C1587 1.503 . S
C1595 C1594 1.370 . S
C1595 C1596 1.403 . S
C1596 C1595 1.403 . S
C1596 C1597 1.404 . S
C1596 C1599 1.539 . S
C1597 C1593 1.408 . S
C1597 C1596 1.404 . S
C1597 H1609 0.930 . S
C1598 C1594 1.524 . S
C1598 H1610 0.956 . S
C1598 H1611 0.961 . S
C1598 H1612 0.961 . S
C1599 C1596 1.539 . S
C1599 H1613 0.958 . S
C1599 H1614 0.961 . S
C1599 H1615 0.960 . S
H1600 C1584 0.931 . S
H1601 C1589 0.929 . S
H1602 C1590 0.960 . S
H1603 C1590 0.962 . S
H1604 C1590 0.960 . S
H1605 C1591 0.961 . S
H1606 C1591 0.961 . S
H1607 C1591 0.961 . S
H1608 C1592 0.931 . S
H1609 C1597 0.930 . S
H1610 C1598 0.956 . S
H1611 C1598 0.961 . S
H1612 C1598 0.961 . S
H1613 C1599 0.958 . S
H1614 C1599 0.961 . S
H1615 C1599 0.960 . S
C1616 C1617 1.391 . S
C1616 C1618 1.394 . S
C1616 H1632 0.931 . S
C1617 C1616 1.391 . S
C1617 C1621 1.376 . S
C1618 C1616 1.394 . S
C1618 C1619 1.369 . S
C1618 C1622 1.531 . S
C1619 C1618 1.369 . S
C1619 C1620 1.410 . S
C1619 C1627 1.503 . S
C1620 C1619 1.410 . S
C1620 C1621 1.392 . S
C1620 C1623 1.511 . S
C1621 C1617 1.376 . S
C1621 C1620 1.392 . S
C1621 H1633 0.929 . S
C1622 C1618 1.531 . S
C1622 H1634 0.960 . S
C1622 H1635 0.962 . S
C1622 H1636 0.960 . S
C1623 C1620 1.511 . S
C1623 H1637 0.961 . S
C1623 H1638 0.961 . S
C1623 H1639 0.961 . S
C1624 C1625 1.370 . S
C1624 C1626 1.363 . S
C1624 H1640 0.931 . S
C1625 C1624 1.370 . S
C1625 C1629 1.408 . S
C1626 C1624 1.363 . S
C1626 C1627 1.370 . S
C1626 C1630 1.524 . S
C1627 C1619 1.503 . S
C1627 C1626 1.370 . S
C1627 C1628 1.403 . S
C1628 C1627 1.403 . S
C1628 C1629 1.404 . S
C1628 C1631 1.539 . S
C1629 C1625 1.408 . S
C1629 C1628 1.404 . S
C1629 H1641 0.930 . S
C1630 C1626 1.524 . S
C1630 H1642 0.956 . S
C1630 H1643 0.961 . S
C1630 H1644 0.961 . S
C1631 C1628 1.539 . S
C1631 H1645 0.958 . S
C1631 H1646 0.961 . S
C1631 H1647 0.960 . S
H1632 C1616 0.931 . S
H1633 C1621 0.929 . S
H1634 C1622 0.960 . S
H1635 C1622 0.962 . S
H1636 C1622 0.960 . S
H1637 C1623 0.961 . S
H1638 C1623 0.961 . S
H1639 C1623 0.961 . S
H1640 C1624 0.931 . S
H1641 C1629 0.930 . S
H1642 C1630 0.956 . S
H1643 C1630 0.961 . S
H1644 C1630 0.961 . S
H1645 C1631 0.958 . S
H1646 C1631 0.961 . S
H1647 C1631 0.960 . S
C1648 C1649 1.391 . S
C1648 C1650 1.394 . S
C1648 H1664 0.931 . S
C1649 C1648 1.391 . S
C1649 C1653 1.376 . S
C1650 C1648 1.394 . S
C1650 C1651 1.369 . S
C1650 C1654 1.531 . S
C1651 C1650 1.369 . S
C1651 C1652 1.410 . S
C1651 C1659 1.503 . S
C1652 C1651 1.410 . S
C1652 C1653 1.392 . S
C1652 C1655 1.511 . S
C1653 C1649 1.376 . S
C1653 C1652 1.392 . S
C1653 H1665 0.929 . S
C1654 C1650 1.531 . S
C1654 H1666 0.960 . S
C1654 H1667 0.962 . S
C1654 H1668 0.960 . S
C1655 C1652 1.511 . S
C1655 H1669 0.961 . S
C1655 H1670 0.961 . S
C1655 H1671 0.961 . S
C1656 C1657 1.370 . S
C1656 C1658 1.363 . S
C1656 H1672 0.931 . S
C1657 C1656 1.370 . S
C1657 C1661 1.408 . S
C1658 C1656 1.363 . S
C1658 C1659 1.370 . S
C1658 C1662 1.524 . S
C1659 C1651 1.503 . S
C1659 C1658 1.370 . S
C1659 C1660 1.403 . S
C1660 C1659 1.403 . S
C1660 C1661 1.404 . S
C1660 C1663 1.539 . S
C1661 C1657 1.408 . S
C1661 C1660 1.404 . S
C1661 H1673 0.930 . S
C1662 C1658 1.524 . S
C1662 H1674 0.956 . S
C1662 H1675 0.961 . S
C1662 H1676 0.961 . S
C1663 C1660 1.539 . S
C1663 H1677 0.958 . S
C1663 H1678 0.961 . S
C1663 H1679 0.960 . S
H1664 C1648 0.931 . S
H1665 C1653 0.929 . S
H1666 C1654 0.960 . S
H1667 C1654 0.962 . S
H1668 C1654 0.960 . S
H1669 C1655 0.961 . S
H1670 C1655 0.961 . S
H1671 C1655 0.961 . S
H1672 C1656 0.931 . S
H1673 C1661 0.930 . S
H1674 C1662 0.956 . S
H1675 C1662 0.961 . S
H1676 C1662 0.961 . S
H1677 C1663 0.958 . S
H1678 C1663 0.961 . S
H1679 C1663 0.960 . S
C1680 C1681 1.391 . S
C1680 C1682 1.394 . S
C1680 H1696 0.931 . S
C1681 C1680 1.391 . S
C1681 C1685 1.376 . S
C1682 C1680 1.394 . S
C1682 C1683 1.369 . S
C1682 C1686 1.531 . S
C1683 C1682 1.369 . S
C1683 C1684 1.410 . S
C1683 C1691 1.503 . S
C1684 C1683 1.410 . S
C1684 C1685 1.392 . S
C1684 C1687 1.511 . S
C1685 C1681 1.376 . S
C1685 C1684 1.392 . S
C1685 H1697 0.929 . S
C1686 C1682 1.531 . S
C1686 H1698 0.960 . S
C1686 H1699 0.962 . S
C1686 H1700 0.960 . S
C1687 C1684 1.511 . S
C1687 H1701 0.961 . S
C1687 H1702 0.961 . S
C1687 H1703 0.961 . S
C1688 C1689 1.370 . S
C1688 C1690 1.363 . S
C1688 H1704 0.931 . S
C1689 C1688 1.370 . S
C1689 C1693 1.408 . S
C1690 C1688 1.363 . S
C1690 C1691 1.370 . S
C1690 C1694 1.524 . S
C1691 C1683 1.503 . S
C1691 C1690 1.370 . S
C1691 C1692 1.403 . S
C1692 C1691 1.403 . S
C1692 C1693 1.404 . S
C1692 C1695 1.539 . S
C1693 C1689 1.408 . S
C1693 C1692 1.404 . S
C1693 H1705 0.930 . S
C1694 C1690 1.524 . S
C1694 H1706 0.956 . S
C1694 H1707 0.961 . S
C1694 H1708 0.961 . S
C1695 C1692 1.539 . S
C1695 H1709 0.958 . S
C1695 H1710 0.961 . S
C1695 H1711 0.960 . S
H1696 C1680 0.931 . S
H1697 C1685 0.929 . S
H1698 C1686 0.960 . S
H1699 C1686 0.962 . S
H1700 C1686 0.960 . S
H1701 C1687 0.961 . S
H1702 C1687 0.961 . S
H1703 C1687 0.961 . S
H1704 C1688 0.931 . S
H1705 C1693 0.930 . S
H1706 C1694 0.956 . S
H1707 C1694 0.961 . S
H1708 C1694 0.961 . S
H1709 C1695 0.958 . S
H1710 C1695 0.961 . S
H1711 C1695 0.960 . S
C1712 C1713 1.391 . S
C1712 C1714 1.394 . S
C1712 H1728 0.931 . S
C1713 C1712 1.391 . S
C1713 C1717 1.376 . S
C1714 C1712 1.394 . S
C1714 C1715 1.369 . S
C1714 C1718 1.531 . S
C1715 C1714 1.369 . S
C1715 C1716 1.410 . S
C1715 C1723 1.503 . S
C1716 C1715 1.410 . S
C1716 C1717 1.392 . S
C1716 C1719 1.511 . S
C1717 C1713 1.376 . S
C1717 C1716 1.392 . S
C1717 H1729 0.929 . S
C1718 C1714 1.531 . S
C1718 H1730 0.960 . S
C1718 H1731 0.962 . S
C1718 H1732 0.960 . S
C1719 C1716 1.511 . S
C1719 H1733 0.961 . S
C1719 H1734 0.961 . S
C1719 H1735 0.961 . S
C1720 C1721 1.370 . S
C1720 C1722 1.363 . S
C1720 H1736 0.931 . S
C1721 C1720 1.370 . S
C1721 C1725 1.408 . S
C1722 C1720 1.363 . S
C1722 C1723 1.370 . S
C1722 C1726 1.524 . S
C1723 C1715 1.503 . S
C1723 C1722 1.370 . S
C1723 C1724 1.403 . S
C1724 C1723 1.403 . S
C1724 C1725 1.404 . S
C1724 C1727 1.539 . S
C1725 C1721 1.408 . S
C1725 C1724 1.404 . S
C1725 H1737 0.930 . S
C1726 C1722 1.524 . S
C1726 H1738 0.956 . S
C1726 H1739 0.961 . S
C1726 H1740 0.961 . S
C1727 C1724 1.539 . S
C1727 H1741 0.958 . S
C1727 H1742 0.961 . S
C1727 H1743 0.960 . S
H1728 C1712 0.931 . S
H1729 C1717 0.929 . S
H1730 C1718 0.960 . S
H1731 C1718 0.962 . S
H1732 C1718 0.960 . S
H1733 C1719 0.961 . S
H1734 C1719 0.961 . S
H1735 C1719 0.961 . S
H1736 C1720 0.931 . S
H1737 C1725 0.930 . S
H1738 C1726 0.956 . S
H1739 C1726 0.961 . S
H1740 C1726 0.961 . S
H1741 C1727 0.958 . S
H1742 C1727 0.961 . S
H1743 C1727 0.960 . S
C1744 C1745 1.391 . S
C1744 C1746 1.394 . S
C1744 H1760 0.931 . S
C1745 C1744 1.391 . S
C1745 C1749 1.376 . S
C1746 C1744 1.394 . S
C1746 C1747 1.369 . S
C1746 C1750 1.531 . S
C1747 C1746 1.369 . S
C1747 C1748 1.410 . S
C1747 C1755 1.503 . S
C1748 C1747 1.410 . S
C1748 C1749 1.392 . S
C1748 C1751 1.511 . S
C1749 C1745 1.376 . S
C1749 C1748 1.392 . S
C1749 H1761 0.929 . S
C1750 C1746 1.531 . S
C1750 H1762 0.960 . S
C1750 H1763 0.962 . S
C1750 H1764 0.960 . S
C1751 C1748 1.511 . S
C1751 H1765 0.961 . S
C1751 H1766 0.961 . S
C1751 H1767 0.961 . S
C1752 C1753 1.370 . S
C1752 C1754 1.363 . S
C1752 H1768 0.931 . S
C1753 C1752 1.370 . S
C1753 C1757 1.408 . S
C1754 C1752 1.363 . S
C1754 C1755 1.370 . S
C1754 C1758 1.524 . S
C1755 C1747 1.503 . S
C1755 C1754 1.370 . S
C1755 C1756 1.403 . S
C1756 C1755 1.403 . S
C1756 C1757 1.404 . S
C1756 C1759 1.539 . S
C1757 C1753 1.408 . S
C1757 C1756 1.404 . S
C1757 H1769 0.930 . S
C1758 C1754 1.524 . S
C1758 H1770 0.956 . S
C1758 H1771 0.961 . S
C1758 H1772 0.961 . S
C1759 C1756 1.539 . S
C1759 H1773 0.958 . S
C1759 H1774 0.961 . S
C1759 H1775 0.960 . S
H1760 C1744 0.931 . S
H1761 C1749 0.929 . S
H1762 C1750 0.960 . S
H1763 C1750 0.962 . S
H1764 C1750 0.960 . S
H1765 C1751 0.961 . S
H1766 C1751 0.961 . S
H1767 C1751 0.961 . S
H1768 C1752 0.931 . S
H1769 C1757 0.930 . S
H1770 C1758 0.956 . S
H1771 C1758 0.961 . S
H1772 C1758 0.961 . S
H1773 C1759 0.958 . S
H1774 C1759 0.961 . S
H1775 C1759 0.960 . S
C1776 C1777 1.391 . S
C1776 C1778 1.394 . S
C1776 H1792 0.931 . S
C1777 C1776 1.391 . S
C1777 C1781 1.376 . S
C1778 C1776 1.394 . S
C1778 C1779 1.369 . S
C1778 C1782 1.531 . S
C1779 C1778 1.369 . S
C1779 C1780 1.410 . S
C1779 C1787 1.503 . S
C1780 C1779 1.410 . S
C1780 C1781 1.392 . S
C1780 C1783 1.511 1_554 S
C1781 C1777 1.376 . S
C1781 C1780 1.392 . S
C1781 H1793 0.929 . S
C1782 C1778 1.531 . S
C1782 H1794 0.960 . S
C1782 H1795 0.962 . S
C1782 H1796 0.960 . S
C1783 C1780 1.511 1_556 S
C1783 H1797 0.961 . S
C1783 H1798 0.961 . S
C1783 H1799 0.961 1_556 S
C1784 C1785 1.370 1_556 S
C1784 C1786 1.363 1_556 S
C1784 H1800 0.931 . S
C1785 C1784 1.370 1_554 S
C1785 C1789 1.408 . S
C1786 C1784 1.363 1_554 S
C1786 C1787 1.370 . S
C1786 C1790 1.524 1_554 S
C1787 C1779 1.503 . S
C1787 C1786 1.370 . S
C1787 C1788 1.403 . S
C1788 C1787 1.403 . S
C1788 C1789 1.404 . S
C1788 C1791 1.539 . S
C1789 C1785 1.408 . S
C1789 C1788 1.404 . S
C1789 H1801 0.930 . S
C1790 C1786 1.524 1_556 S
C1790 H1802 0.956 . S
C1790 H1803 0.961 . S
C1790 H1804 0.961 . S
C1791 C1788 1.539 . S
C1791 H1805 0.958 . S
C1791 H1806 0.961 . S
C1791 H1807 0.960 . S
H1792 C1776 0.931 . S
H1793 C1781 0.929 . S
H1794 C1782 0.960 . S
H1795 C1782 0.962 . S
H1796 C1782 0.960 . S
H1797 C1783 0.961 . S
H1798 C1783 0.961 . S
H1799 C1783 0.961 1_554 S
H1800 C1784 0.931 . S
H1801 C1789 0.930 . S
H1802 C1790 0.956 . S
H1803 C1790 0.961 . S
H1804 C1790 0.961 . S
H1805 C1791 0.958 . S
H1806 C1791 0.961 . S
H1807 C1791 0.960 . S
C1808 C1809 1.391 1_556 S
C1808 C1810 1.394 1_545 S
C1808 H1824 0.931 . S
C1809 C1808 1.391 1_554 S
C1809 C1813 1.376 . S
C1810 C1808 1.394 1_565 S
C1810 C1811 1.369 1_556 S
C1810 C1814 1.531 . S
C1811 C1810 1.369 1_554 S
C1811 C1812 1.410 1_565 S
C1811 C1819 1.503 . S
C1812 C1811 1.410 1_545 S
C1812 C1813 1.392 . S
C1812 C1815 1.511 . S
C1813 C1809 1.376 . S
C1813 C1812 1.392 . S
C1813 H1825 0.929 . S
C1814 C1810 1.531 . S
C1814 H1826 0.960 . S
C1814 H1827 0.962 . S
C1814 H1828 0.960 . S
C1815 C1812 1.511 . S
C1815 H1829 0.961 . S
C1815 H1830 0.961 . S
C1815 H1831 0.961 . S
C1816 C1817 1.370 . S
C1816 C1818 1.363 . S
C1816 H1832 0.931 . S
C1817 C1816 1.370 . S
C1817 C1821 1.408 . S
C1818 C1816 1.363 . S
C1818 C1819 1.370 . S
C1818 C1822 1.524 . S
C1819 C1811 1.503 . S
C1819 C1818 1.370 . S
C1819 C1820 1.403 . S
C1820 C1819 1.403 . S
C1820 C1821 1.404 . S
C1820 C1823 1.539 1_554 S
C1821 C1817 1.408 . S
C1821 C1820 1.404 . S
C1821 H1833 0.930 . S
C1822 C1818 1.524 . S
C1822 H1834 0.956 . S
C1822 H1835 0.961 . S
C1822 H1836 0.961 . S
C1823 C1820 1.539 1_556 S
C1823 H1837 0.958 . S
C1823 H1838 0.961 . S
C1823 H1839 0.960 . S
H1824 C1808 0.931 . S
H1825 C1813 0.929 . S
H1826 C1814 0.960 . S
H1827 C1814 0.962 . S
H1828 C1814 0.960 . S
H1829 C1815 0.961 . S
H1830 C1815 0.961 . S
H1831 C1815 0.961 . S
H1832 C1816 0.931 . S
H1833 C1821 0.930 . S
H1834 C1822 0.956 . S
H1835 C1822 0.961 . S
H1836 C1822 0.961 . S
H1837 C1823 0.958 . S
H1838 C1823 0.961 . S
H1839 C1823 0.960 . S
C1840 C1841 1.391 1_556 S
C1840 C1842 1.395 . S
C1840 H1856 0.931 . S
C1841 C1840 1.391 1_554 S
C1841 C1845 1.376 . S
C1842 C1840 1.395 . S
C1842 C1843 1.369 1_656 S
C1842 C1846 1.529 1_655 S
C1843 C1842 1.369 1_454 S
C1843 C1844 1.410 1_455 S
C1843 C1851 1.503 . S
C1844 C1843 1.410 1_655 S
C1844 C1845 1.392 . S
C1844 C1847 1.511 . S
C1845 C1841 1.376 . S
C1845 C1844 1.392 . S
C1845 H1857 0.929 . S
C1846 C1842 1.529 1_455 S
C1846 H1858 0.960 . S
C1846 H1859 0.962 . S
C1846 H1860 0.960 . S
C1847 C1844 1.511 . S
C1847 H1861 0.961 . S
C1847 H1862 0.958 1_655 S
C1847 H1863 0.961 . S
C1848 C1849 1.370 . S
C1848 C1850 1.363 . S
C1848 H1864 0.931 . S
C1849 C1848 1.370 . S
C1849 C1853 1.408 . S
C1850 C1848 1.363 . S
C1850 C1851 1.370 . S
C1850 C1854 1.524 . S
C1851 C1843 1.503 . S
C1851 C1850 1.370 . S
C1851 C1852 1.403 . S
C1852 C1851 1.403 . S
C1852 C1853 1.404 . S
C1852 C1855 1.539 1_554 S
C1853 C1849 1.408 . S
C1853 C1852 1.404 . S
C1853 H1865 0.930 . S
C1854 C1850 1.524 . S
C1854 H1866 0.956 . S
C1854 H1867 0.961 . S
C1854 H1868 0.961 . S
C1855 C1852 1.539 1_556 S
C1855 H1869 0.958 . S
C1855 H1870 0.961 1_556 S
C1855 H1871 0.974 1_556 S
H1856 C1840 0.931 . S
H1857 C1845 0.929 . S
H1858 C1846 0.960 . S
H1859 C1846 0.962 . S
H1860 C1846 0.960 . S
H1861 C1847 0.961 . S
H1862 C1847 0.958 1_455 S
H1863 C1847 0.961 . S
H1864 C1848 0.931 . S
H1865 C1853 0.930 . S
H1866 C1854 0.956 . S
H1867 C1854 0.961 . S
H1868 C1854 0.961 . S
H1869 C1855 0.958 . S
H1870 C1855 0.961 1_554 S
H1871 C1855 0.974 1_554 S
C1872 C1873 1.391 . S
C1872 C1874 1.394 . S
C1872 H1888 0.931 . S
C1873 C1872 1.391 . S
C1873 C1877 1.376 . S
C1874 C1872 1.394 . S
C1874 C1875 1.369 . S
C1874 C1878 1.531 . S
C1875 C1874 1.369 . S
C1875 C1876 1.410 . S
C1875 C1883 1.503 . S
C1876 C1875 1.410 . S
C1876 C1877 1.392 . S
C1876 C1879 1.511 . S
C1877 C1873 1.376 . S
C1877 C1876 1.392 . S
C1877 H1889 0.929 . S
C1878 C1874 1.531 . S
C1878 H1890 0.960 . S
C1878 H1891 0.962 . S
C1878 H1892 0.960 . S
C1879 C1876 1.511 . S
C1879 H1893 0.961 . S
C1879 H1894 0.961 . S
C1879 H1895 0.961 . S
C1880 C1881 1.370 . S
C1880 C1882 1.363 . S
C1880 H1896 0.931 . S
C1881 C1880 1.370 . S
C1881 C1885 1.408 . S
C1882 C1880 1.363 . S
C1882 C1883 1.370 . S
C1882 C1886 1.524 . S
C1883 C1875 1.503 . S
C1883 C1882 1.370 . S
C1883 C1884 1.403 . S
C1884 C1883 1.403 . S
C1884 C1885 1.404 . S
C1884 C1887 1.539 . S
C1885 C1881 1.408 . S
C1885 C1884 1.404 . S
C1885 H1897 0.930 . S
C1886 C1882 1.524 . S
C1886 H1898 0.956 . S
C1886 H1899 0.961 . S
C1886 H1900 0.961 . S
C1887 C1884 1.539 . S
C1887 H1901 0.958 . S
C1887 H1902 0.961 . S
C1887 H1903 0.960 . S
H1888 C1872 0.931 . S
H1889 C1877 0.929 . S
H1890 C1878 0.960 . S
H1891 C1878 0.962 . S
H1892 C1878 0.960 . S
H1893 C1879 0.961 . S
H1894 C1879 0.961 . S
H1895 C1879 0.961 . S
H1896 C1880 0.931 . S
H1897 C1885 0.930 . S
H1898 C1886 0.956 . S
H1899 C1886 0.961 . S
H1900 C1886 0.961 . S
H1901 C1887 0.958 . S
H1902 C1887 0.961 . S
H1903 C1887 0.960 . S
C1904 C1905 1.391 . S
C1904 C1906 1.394 1_565 S
C1904 H1920 0.931 . S
C1905 C1904 1.391 . S
C1905 C1909 1.376 . S
C1906 C1904 1.394 1_545 S
C1906 C1907 1.369 . S
C1906 C1910 1.531 . S
C1907 C1906 1.369 . S
C1907 C1908 1.410 1_545 S
C1907 C1915 1.503 . S
C1908 C1907 1.410 1_565 S
C1908 C1909 1.392 . S
C1908 C1911 1.511 . S
C1909 C1905 1.376 . S
C1909 C1908 1.392 . S
C1909 H1921 0.929 . S
C1910 C1906 1.531 . S
C1910 H1922 0.960 . S
C1910 H1923 0.962 . S
C1910 H1924 0.960 . S
C1911 C1908 1.511 . S
C1911 H1925 0.961 . S
C1911 H1926 0.961 . S
C1911 H1927 0.961 . S
C1912 C1913 1.370 . S
C1912 C1914 1.363 . S
C1912 H1928 0.931 . S
C1913 C1912 1.370 . S
C1913 C1917 1.408 . S
C1914 C1912 1.363 . S
C1914 C1915 1.370 . S
C1914 C1918 1.524 . S
C1915 C1907 1.503 . S
C1915 C1914 1.370 . S
C1915 C1916 1.403 . S
C1916 C1915 1.403 . S
C1916 C1917 1.404 . S
C1916 C1919 1.539 . S
C1917 C1913 1.408 . S
C1917 C1916 1.404 . S
C1917 H1929 0.930 . S
C1918 C1914 1.524 . S
C1918 H1930 0.956 . S
C1918 H1931 0.961 . S
C1918 H1932 0.961 . S
C1919 C1916 1.539 . S
C1919 H1933 0.958 . S
C1919 H1934 0.961 . S
C1919 H1935 0.960 . S
H1920 C1904 0.931 . S
H1921 C1909 0.929 . S
H1922 C1910 0.960 . S
H1923 C1910 0.962 . S
H1924 C1910 0.960 . S
H1925 C1911 0.961 . S
H1926 C1911 0.961 . S
H1927 C1911 0.961 . S
H1928 C1912 0.931 . S
H1929 C1917 0.930 . S
H1930 C1918 0.956 . S
H1931 C1918 0.961 . S
H1932 C1918 0.961 . S
H1933 C1919 0.958 . S
H1934 C1919 0.961 . S
H1935 C1919 0.960 . S
C1936 C1937 1.391 . S
C1936 C1938 1.394 . S
C1936 H1952 0.931 . S
C1937 C1936 1.391 . S
C1937 C1941 1.376 . S
C1938 C1936 1.394 . S
C1938 C1939 1.369 . S
C1938 C1942 1.531 . S
C1939 C1938 1.369 . S
C1939 C1940 1.410 . S
C1939 C1947 1.503 . S
C1940 C1939 1.410 . S
C1940 C1941 1.392 . S
C1940 C1943 1.511 . S
C1941 C1937 1.376 . S
C1941 C1940 1.392 . S
C1941 H1953 0.929 . S
C1942 C1938 1.531 . S
C1942 H1954 0.960 . S
C1942 H1955 0.962 . S
C1942 H1956 0.960 . S
C1943 C1940 1.511 . S
C1943 H1957 0.961 . S
C1943 H1958 0.961 . S
C1943 H1959 0.961 . S
C1944 C1945 1.370 . S
C1944 C1946 1.363 . S
C1944 H1960 0.931 . S
C1945 C1944 1.370 . S
C1945 C1949 1.408 . S
C1946 C1944 1.363 . S
C1946 C1947 1.370 1_455 S
C1946 C1950 1.524 . S
C1947 C1939 1.503 . S
C1947 C1946 1.370 1_655 S
C1947 C1948 1.403 . S
C1948 C1947 1.403 . S
C1948 C1949 1.404 1_655 S
C1948 C1951 1.539 . S
C1949 C1945 1.408 . S
C1949 C1948 1.404 1_455 S
C1949 H1961 0.930 . S
C1950 C1946 1.524 . S
C1950 H1962 0.956 . S
C1950 H1963 0.961 . S
C1950 H1964 0.961 . S
C1951 C1948 1.539 . S
C1951 H1965 0.958 . S
C1951 H1966 0.961 . S
C1951 H1967 0.960 . S
H1952 C1936 0.931 . S
H1953 C1941 0.929 . S
H1954 C1942 0.960 . S
H1955 C1942 0.962 . S
H1956 C1942 0.960 . S
H1957 C1943 0.961 . S
H1958 C1943 0.961 . S
H1959 C1943 0.961 . S
H1960 C1944 0.931 . S
H1961 C1949 0.930 . S
H1962 C1950 0.956 . S
H1963 C1950 0.961 . S
H1964 C1950 0.961 . S
H1965 C1951 0.958 . S
H1966 C1951 0.961 . S
H1967 C1951 0.960 . S
C1968 C1969 1.391 . S
C1968 C1970 1.394 . S
C1968 H1984 0.931 . S
C1969 C1968 1.391 . S
C1969 C1973 1.376 1_556 S
C1970 C1968 1.394 . S
C1970 C1971 1.369 . S
C1970 C1974 1.531 . S
C1971 C1970 1.369 . S
C1971 C1972 1.410 . S
C1971 C1979 1.503 . S
C1972 C1971 1.410 . S
C1972 C1973 1.392 1_556 S
C1972 C1975 1.511 1_556 S
C1973 C1969 1.376 1_554 S
C1973 C1972 1.392 1_554 S
C1973 H1985 0.929 . S
C1974 C1970 1.531 . S
C1974 H1986 0.960 . S
C1974 H1987 0.962 . S
C1974 H1988 0.960 . S
C1975 C1972 1.511 1_554 S
C1975 H1989 0.961 . S
C1975 H1990 0.961 . S
C1975 H1991 0.961 1_554 S
C1976 C1977 1.370 . S
C1976 C1978 1.363 . S
C1976 H1992 0.931 . S
C1977 C1976 1.370 . S
C1977 C1981 1.408 . S
C1978 C1976 1.363 . S
C1978 C1979 1.370 . S
C1978 C1982 1.524 1_556 S
C1979 C1971 1.503 . S
C1979 C1978 1.370 . S
C1979 C1980 1.403 . S
C1980 C1979 1.403 . S
C1980 C1981 1.404 . S
C1980 C1983 1.539 . S
C1981 C1977 1.408 . S
C1981 C1980 1.404 . S
C1981 H1993 0.930 . S
C1982 C1978 1.524 1_554 S
C1982 H1994 0.956 . S
C1982 H1995 0.961 . S
C1982 H1996 0.961 . S
C1983 C1980 1.539 . S
C1983 H1997 0.958 . S
C1983 H1998 0.961 . S
C1983 H1999 0.960 . S
H1984 C1968 0.931 . S
H1985 C1973 0.929 . S
H1986 C1974 0.960 . S
H1987 C1974 0.962 . S
H1988 C1974 0.960 . S
H1989 C1975 0.961 . S
H1990 C1975 0.961 . S
H1991 C1975 0.961 1_556 S
H1992 C1976 0.931 . S
H1993 C1981 0.930 . S
H1994 C1982 0.956 . S
H1995 C1982 0.961 . S
H1996 C1982 0.961 . S
H1997 C1983 0.958 . S
H1998 C1983 0.961 . S
H1999 C1983 0.960 . S
C2000 C2001 1.391 . S
C2000 C2002 1.394 . S
C2000 H2016 0.931 . S
C2001 C2000 1.391 . S
C2001 C2005 1.376 . S
C2002 C2000 1.394 . S
C2002 C2003 1.369 . S
C2002 C2006 1.531 . S
C2003 C2002 1.369 . S
C2003 C2004 1.410 . S
C2003 C2011 1.503 . S
C2004 C2003 1.410 . S
C2004 C2005 1.392 . S
C2004 C2007 1.511 . S
C2005 C2001 1.376 . S
C2005 C2004 1.392 . S
C2005 H2017 0.929 . S
C2006 C2002 1.531 . S
C2006 H2018 0.960 1_556 S
C2006 H2019 0.962 . S
C2006 H2020 0.960 . S
C2007 C2004 1.511 . S
C2007 H2021 0.961 . S
C2007 H2022 0.961 1_545 S
C2007 H2023 0.961 . S
C2008 C2009 1.370 . S
C2008 C2010 1.363 . S
C2008 H2024 0.931 . S
C2009 C2008 1.370 . S
C2009 C2013 1.408 1_556 S
C2010 C2008 1.363 . S
C2010 C2011 1.370 1_565 S
C2010 C2014 1.512 1_565 S
C2011 C2003 1.503 . S
C2011 C2010 1.370 1_545 S
C2011 C2012 1.403 1_546 S
C2012 C2011 1.403 1_564 S
C2012 C2013 1.404 . S
C2012 C2015 1.539 1_565 S
C2013 C2009 1.408 1_554 S
C2013 C2012 1.404 . S
C2013 H2025 0.930 . S
C2014 C2010 1.512 1_545 S
C2014 H2026 0.973 . S
C2014 H2027 0.987 . S
C2014 H2028 0.931 1_545 S
C2015 C2012 1.539 1_545 S
C2015 H2029 0.958 . S
C2015 H2030 0.961 1_545 S
C2015 H2031 0.960 . S
H2016 C2000 0.931 . S
H2017 C2005 0.929 . S
H2018 C2006 0.960 1_554 S
H2019 C2006 0.962 . S
H2020 C2006 0.960 . S
H2021 C2007 0.961 . S
H2022 C2007 0.961 1_565 S
H2023 C2007 0.961 . S
H2024 C2008 0.931 . S
H2025 C2013 0.930 . S
H2026 C2014 0.973 . S
H2027 C2014 0.987 . S
H2028 C2014 0.931 1_565 S
H2029 C2015 0.958 . S
H2030 C2015 0.961 1_565 S
H2031 C2015 0.960 . S
C2032 C2033 1.391 . S
C2032 C2034 1.394 . S
C2032 H2048 0.931 . S
C2033 C2032 1.391 . S
C2033 C2037 1.376 1_556 S
C2034 C2032 1.394 . S
C2034 C2035 1.369 1_455 S
C2034 C2038 1.531 . S
C2035 C2034 1.369 1_655 S
C2035 C2036 1.410 1_556 S
C2035 C2043 1.503 . S
C2036 C2035 1.410 1_554 S
C2036 C2037 1.392 1_655 S
C2036 C2039 1.511 . S
C2037 C2033 1.376 1_554 S
C2037 C2036 1.392 1_455 S
C2037 H2049 0.929 . S
C2038 C2034 1.531 . S
C2038 H2050 0.960 . S
C2038 H2051 0.962 . S
C2038 H2052 0.960 . S
C2039 C2036 1.511 . S
C2039 H2053 0.961 . S
C2039 H2054 0.961 . S
C2039 H2055 0.961 . S
C2040 C2041 1.370 . S
C2040 C2042 1.363 . S
C2040 H2056 0.931 . S
C2041 C2040 1.370 . S
C2041 C2045 1.408 . S
C2042 C2040 1.363 . S
C2042 C2043 1.370 . S
C2042 C2046 1.524 . S
C2043 C2035 1.503 . S
C2043 C2042 1.370 . S
C2043 C2044 1.403 . S
C2044 C2043 1.403 . S
C2044 C2045 1.404 . S
C2044 C2047 1.539 1_556 S
C2045 C2041 1.408 . S
C2045 C2044 1.404 . S
C2045 H2057 0.930 . S
C2046 C2042 1.524 . S
C2046 H2058 0.956 . S
C2046 H2059 0.961 . S
C2046 H2060 0.961 . S
C2047 C2044 1.539 1_554 S
C2047 H2061 0.958 . S
C2047 H2062 0.961 . S
C2047 H2063 0.960 . S
H2048 C2032 0.931 . S
H2049 C2037 0.929 . S
H2050 C2038 0.960 . S
H2051 C2038 0.962 . S
H2052 C2038 0.960 . S
H2053 C2039 0.961 . S
H2054 C2039 0.961 . S
H2055 C2039 0.961 . S
H2056 C2040 0.931 . S
H2057 C2045 0.930 . S
H2058 C2046 0.956 . S
H2059 C2046 0.961 . S
H2060 C2046 0.961 . S
H2061 C2047 0.958 . S
H2062 C2047 0.961 . S
H2063 C2047 0.960 . S
C2064 C2065 1.391 . S
C2064 C2066 1.394 . S
C2064 H2080 0.931 . S
C2065 C2064 1.391 . S
C2065 C2069 1.376 . S
C2066 C2064 1.394 . S
C2066 C2067 1.369 . S
C2066 C2070 1.531 . S
C2067 C2066 1.369 . S
C2067 C2068 1.410 . S
C2067 C2075 1.503 . S
C2068 C2067 1.410 . S
C2068 C2069 1.392 . S
C2068 C2071 1.511 . S
C2069 C2065 1.376 . S
C2069 C2068 1.392 . S
C2069 H2081 0.929 . S
C2070 C2066 1.531 . S
C2070 H2082 0.960 . S
C2070 H2083 0.962 . S
C2070 H2084 0.960 . S
C2071 C2068 1.511 . S
C2071 H2085 0.961 . S
C2071 H2086 0.961 . S
C2071 H2087 0.961 . S
C2072 C2073 1.370 . S
C2072 C2074 1.363 . S
C2072 H2088 0.931 . S
C2073 C2072 1.370 . S
C2073 C2077 1.408 . S
C2074 C2072 1.363 . S
C2074 C2075 1.370 . S
C2074 C2078 1.524 . S
C2075 C2067 1.503 . S
C2075 C2074 1.370 . S
C2075 C2076 1.403 . S
C2076 C2075 1.403 . S
C2076 C2077 1.404 . S
C2076 C2079 1.539 . S
C2077 C2073 1.408 . S
C2077 C2076 1.404 . S
C2077 H2089 0.930 . S
C2078 C2074 1.524 . S
C2078 H2090 0.956 . S
C2078 H2091 0.961 . S
C2078 H2092 0.961 . S
C2079 C2076 1.539 . S
C2079 H2093 0.958 . S
C2079 H2094 0.961 . S
C2079 H2095 0.960 . S
H2080 C2064 0.931 . S
H2081 C2069 0.929 . S
H2082 C2070 0.960 . S
H2083 C2070 0.962 . S
H2084 C2070 0.960 . S
H2085 C2071 0.961 . S
H2086 C2071 0.961 . S
H2087 C2071 0.961 . S
H2088 C2072 0.931 . S
H2089 C2077 0.930 . S
H2090 C2078 0.956 . S
H2091 C2078 0.961 . S
H2092 C2078 0.961 . S
H2093 C2079 0.958 . S
H2094 C2079 0.961 . S
H2095 C2079 0.960 . S
C2096 C2097 1.391 . S
C2096 C2098 1.394 . S
C2096 H2112 0.931 . S
C2097 C2096 1.391 . S
C2097 C2101 1.376 . S
C2098 C2096 1.394 . S
C2098 C2099 1.369 . S
C2098 C2102 1.531 . S
C2099 C2098 1.369 . S
C2099 C2100 1.410 . S
C2099 C2107 1.503 . S
C2100 C2099 1.410 . S
C2100 C2101 1.392 . S
C2100 C2103 1.511 . S
C2101 C2097 1.376 . S
C2101 C2100 1.392 . S
C2101 H2113 0.929 . S
C2102 C2098 1.531 . S
C2102 H2114 0.960 . S
C2102 H2115 0.962 . S
C2102 H2116 0.960 . S
C2103 C2100 1.511 . S
C2103 H2117 0.961 . S
C2103 H2118 0.961 . S
C2103 H2119 0.961 . S
C2104 C2105 1.370 . S
C2104 C2106 1.363 . S
C2104 H2120 0.931 . S
C2105 C2104 1.370 . S
C2105 C2109 1.408 . S
C2106 C2104 1.363 . S
C2106 C2107 1.370 1_545 S
C2106 C2110 1.524 . S
C2107 C2099 1.503 . S
C2107 C2106 1.370 1_565 S
C2107 C2108 1.403 . S
C2108 C2107 1.403 . S
C2108 C2109 1.404 1_565 S
C2108 C2111 1.539 . S
C2109 C2105 1.408 . S
C2109 C2108 1.404 1_545 S
C2109 H2121 0.930 . S
C2110 C2106 1.524 . S
C2110 H2122 0.956 . S
C2110 H2123 0.961 . S
C2110 H2124 0.961 . S
C2111 C2108 1.539 . S
C2111 H2125 0.958 . S
C2111 H2126 0.961 . S
C2111 H2127 0.960 . S
H2112 C2096 0.931 . S
H2113 C2101 0.929 . S
H2114 C2102 0.960 . S
H2115 C2102 0.962 . S
H2116 C2102 0.960 . S
H2117 C2103 0.961 . S
H2118 C2103 0.961 . S
H2119 C2103 0.961 . S
H2120 C2104 0.931 . S
H2121 C2109 0.930 . S
H2122 C2110 0.956 . S
H2123 C2110 0.961 . S
H2124 C2110 0.961 . S
H2125 C2111 0.958 . S
H2126 C2111 0.961 . S
H2127 C2111 0.960 . S
C2128 C2129 1.391 . S
C2128 C2130 1.394 . S
C2128 H2144 0.931 . S
C2129 C2128 1.391 . S
C2129 C2133 1.376 . S
C2130 C2128 1.394 . S
C2130 C2131 1.369 1_655 S
C2130 C2134 1.531 1_655 S
C2131 C2130 1.369 1_455 S
C2131 C2132 1.410 1_455 S
C2131 C2139 1.503 . S
C2132 C2131 1.410 1_655 S
C2132 C2133 1.392 . S
C2132 C2135 1.512 . S
C2133 C2129 1.376 . S
C2133 C2132 1.392 . S
C2133 H2145 0.929 . S
C2134 C2130 1.531 1_455 S
C2134 H2146 0.960 . S
C2134 H2147 0.962 . S
C2134 H2148 0.960 . S
C2135 C2132 1.512 . S
C2135 H2149 0.964 . S
C2135 H2150 0.957 1_655 S
C2135 H2151 0.961 1_655 S
C2136 C2137 1.370 . S
C2136 C2138 1.363 . S
C2136 H2152 0.931 . S
C2137 C2136 1.370 . S
C2137 C2141 1.408 . S
C2138 C2136 1.363 . S
C2138 C2139 1.370 . S
C2138 C2142 1.524 . S
C2139 C2131 1.503 . S
C2139 C2138 1.370 . S
C2139 C2140 1.403 . S
C2140 C2139 1.403 . S
C2140 C2141 1.404 . S
C2140 C2143 1.539 . S
C2141 C2137 1.408 . S
C2141 C2140 1.404 . S
C2141 H2153 0.930 . S
C2142 C2138 1.524 . S
C2142 H2154 0.955 . S
C2142 H2155 0.961 1_455 S
C2142 H2156 0.961 . S
C2143 C2140 1.539 . S
C2143 H2157 0.958 . S
C2143 H2158 0.961 . S
C2143 H2159 0.960 . S
H2144 C2128 0.931 . S
H2145 C2133 0.929 . S
H2146 C2134 0.960 . S
H2147 C2134 0.962 . S
H2148 C2134 0.960 . S
H2149 C2135 0.964 . S
H2150 C2135 0.957 1_455 S
H2151 C2135 0.961 1_455 S
H2152 C2136 0.931 . S
H2153 C2141 0.930 . S
H2154 C2142 0.955 . S
H2155 C2142 0.961 1_655 S
H2156 C2142 0.961 . S
H2157 C2143 0.958 . S
H2158 C2143 0.961 . S
H2159 C2143 0.960 . S
C1009 C58 1.501 . S
C1017 C573 1.518 . S
C1041 C657 1.569 . S
C1049 C142 1.492 . S
C1073 C741 1.455 . S
C1081 C226 1.540 . S
C1105 C310 1.563 . S
C1113 C825 1.498 . S
C1137 C909 1.460 . S
C1145 C394 1.539 . S
C1169 C993 1.555 . S
C1177 C478 1.496 . S
C1201 C399 1.381 . S
C1209 C63 1.368 . S
C1233 C147 1.390 . S
C1241 C483 1.371 . S
C1265 C315 1.355 . S
C1273 C231 1.368 . S
C1297 C914 1.380 . S
C1305 C578 1.389 . S
C1329 C998 1.388 . S
C1337 C662 1.368 . S
C1361 C746 1.377 . S
C1369 C830 1.366 . S
C1393 C991 1.525 . S
C1401 C74 1.571 . S
C1425 C158 1.547 . S
C1433 C823 1.547 . S
C1457 C242 1.542 . S
C1465 C907 1.550 . S
C1489 C326 1.544 . S
C1497 C655 1.563 . S
C1521 C410 1.560 . S
C1529 C739 1.543 . S
C1553 C571 1.526 . S
C1561 C494 1.572 . S
C1585 C567 1.566 . S
C1593 C476 1.542 . S
C1617 C308 1.575 . S
C1625 C651 1.562 . S
C1649 C735 1.548 . S
C1657 C392 1.563 . S
C1681 C140 1.548 . S
C1689 C819 1.574 . S
C1713 C903 1.583 . S
C1721 C224 1.555 . S
C1745 C56 1.534 . S
C1753 C987 1.557 . S
C1777 C69 1.782 . S
C1785 C644 1.762 1_554 S
C1809 C728 1.725 1_554 S
C1817 C153 1.809 . S
C1841 C560 1.728 1_554 S
C1849 C237 1.807 . S
C1873 C321 1.819 . S
C1881 C980 1.763 . S
C1905 C812 1.724 . S
C1913 C405 1.814 . S
C1937 C489 1.823 . S
C1945 C896 1.759 . S
C1969 C151 1.768 1_556 S
C1977 C562 1.800 . S
C2001 C646 1.821 . S
C2009 C235 1.746 1_556 S
C2033 C67 1.725 1_556 S
C2041 C730 1.813 . S
C2065 C814 1.825 . S
C2073 C487 1.748 . S
C2097 C898 1.823 . S
C2105 C319 1.756 . S
C2129 C403 1.764 . S
C2137 C982 1.812 . S
