# Generated by pormake.
# Topology umv, (4)-cn, num edge types: 1
# Building blocks:
#     Node 0, Type 0, BuildingBlock: GALJAG_clean_sbu_0, # of connection points: 4
#     Node 1, Type 0, BuildingBlock: GALJAG_clean_sbu_0, # of connection points: 4
#     Node 2, Type 0, BuildingBlock: GALJAG_clean_sbu_0, # of connection points: 4
#     Node 3, Type 0, BuildingBlock: GALJAG_clean_sbu_0, # of connection points: 4
#     Node 4, Type 0, BuildingBlock: GALJAG_clean_sbu_0, # of connection points: 4
#     Node 5, Type 0, BuildingBlock: GALJAG_clean_sbu_0, # of connection points: 4
#     Node 6, Type 0, BuildingBlock: GALJAG_clean_sbu_0, # of connection points: 4
#     Node 7, Type 0, BuildingBlock: GALJAG_clean_sbu_0, # of connection points: 4
#     Node 8, Type 0, BuildingBlock: GALJAG_clean_sbu_0, # of connection points: 4
#     Node 9, Type 0, BuildingBlock: GALJAG_clean_sbu_0, # of connection points: 4
#     Node 10, Type 0, BuildingBlock: GALJAG_clean_sbu_0, # of connection points: 4
#     Node 11, Type 0, BuildingBlock: GALJAG_clean_sbu_0, # of connection points: 4
#     Node 12, Type 0, BuildingBlock: GALJAG_clean_sbu_0, # of connection points: 4
#     Node 13, Type 0, BuildingBlock: GALJAG_clean_sbu_0, # of connection points: 4
#     Node 14, Type 0, BuildingBlock: GALJAG_clean_sbu_0, # of connection points: 4
#     Node 15, Type 0, BuildingBlock: GALJAG_clean_sbu_0, # of connection points: 4
#     Node 16, Type 0, BuildingBlock: GALJAG_clean_sbu_0, # of connection points: 4
#     Node 17, Type 0, BuildingBlock: GALJAG_clean_sbu_0, # of connection points: 4
#     Node 18, Type 0, BuildingBlock: GALJAG_clean_sbu_0, # of connection points: 4
#     Node 19, Type 0, BuildingBlock: GALJAG_clean_sbu_0, # of connection points: 4
#     Node 20, Type 0, BuildingBlock: GALJAG_clean_sbu_0, # of connection points: 4
#     Node 21, Type 0, BuildingBlock: GALJAG_clean_sbu_0, # of connection points: 4
#     Node 22, Type 0, BuildingBlock: GALJAG_clean_sbu_0, # of connection points: 4
#     Node 23, Type 0, BuildingBlock: GALJAG_clean_sbu_0, # of connection points: 4
#     Node 24, Type 0, BuildingBlock: GALJAG_clean_sbu_0, # of connection points: 4
#     Node 25, Type 0, BuildingBlock: GALJAG_clean_sbu_0, # of connection points: 4
#     Node 26, Type 0, BuildingBlock: GALJAG_clean_sbu_0, # of connection points: 4
#     Node 27, Type 0, BuildingBlock: GALJAG_clean_sbu_0, # of connection points: 4
#     Node 28, Type 0, BuildingBlock: GALJAG_clean_sbu_0, # of connection points: 4
#     Node 29, Type 0, BuildingBlock: GALJAG_clean_sbu_0, # of connection points: 4
#     Node 30, Type 0, BuildingBlock: GALJAG_clean_sbu_0, # of connection points: 4
#     Node 31, Type 0, BuildingBlock: GALJAG_clean_sbu_0, # of connection points: 4
#     Edge 32, Type (0, 0), BuildingBlock: OJICUG_clean_linker_0, # of connection points: 2
#     Edge 33, Type (0, 0), BuildingBlock: OJICUG_clean_linker_0, # of connection points: 2
#     Edge 34, Type (0, 0), BuildingBlock: OJICUG_clean_linker_0, # of connection points: 2
#     Edge 35, Type (0, 0), BuildingBlock: OJICUG_clean_linker_0, # of connection points: 2
#     Edge 36, Type (0, 0), BuildingBlock: OJICUG_clean_linker_0, # of connection points: 2
#     Edge 37, Type (0, 0), BuildingBlock: OJICUG_clean_linker_0, # of connection points: 2
#     Edge 38, Type (0, 0), BuildingBlock: OJICUG_clean_linker_0, # of connection points: 2
#     Edge 39, Type (0, 0), BuildingBlock: OJICUG_clean_linker_0, # of connection points: 2
#     Edge 40, Type (0, 0), BuildingBlock: OJICUG_clean_linker_0, # of connection points: 2
#     Edge 41, Type (0, 0), BuildingBlock: OJICUG_clean_linker_0, # of connection points: 2
#     Edge 42, Type (0, 0), BuildingBlock: OJICUG_clean_linker_0, # of connection points: 2
#     Edge 43, Type (0, 0), BuildingBlock: OJICUG_clean_linker_0, # of connection points: 2
#     Edge 44, Type (0, 0), BuildingBlock: OJICUG_clean_linker_0, # of connection points: 2
#     Edge 45, Type (0, 0), BuildingBlock: OJICUG_clean_linker_0, # of connection points: 2
#     Edge 46, Type (0, 0), BuildingBlock: OJICUG_clean_linker_0, # of connection points: 2
#     Edge 47, Type (0, 0), BuildingBlock: OJICUG_clean_linker_0, # of connection points: 2
#     Edge 48, Type (0, 0), BuildingBlock: OJICUG_clean_linker_0, # of connection points: 2
#     Edge 49, Type (0, 0), BuildingBlock: OJICUG_clean_linker_0, # of connection points: 2
#     Edge 50, Type (0, 0), BuildingBlock: OJICUG_clean_linker_0, # of connection points: 2
#     Edge 51, Type (0, 0), BuildingBlock: OJICUG_clean_linker_0, # of connection points: 2
#     Edge 52, Type (0, 0), BuildingBlock: OJICUG_clean_linker_0, # of connection points: 2
#     Edge 53, Type (0, 0), BuildingBlock: OJICUG_clean_linker_0, # of connection points: 2
#     Edge 54, Type (0, 0), BuildingBlock: OJICUG_clean_linker_0, # of connection points: 2
#     Edge 55, Type (0, 0), BuildingBlock: OJICUG_clean_linker_0, # of connection points: 2
#     Edge 56, Type (0, 0), BuildingBlock: OJICUG_clean_linker_0, # of connection points: 2
#     Edge 57, Type (0, 0), BuildingBlock: OJICUG_clean_linker_0, # of connection points: 2
#     Edge 58, Type (0, 0), BuildingBlock: OJICUG_clean_linker_0, # of connection points: 2
#     Edge 59, Type (0, 0), BuildingBlock: OJICUG_clean_linker_0, # of connection points: 2
#     Edge 60, Type (0, 0), BuildingBlock: OJICUG_clean_linker_0, # of connection points: 2
#     Edge 61, Type (0, 0), BuildingBlock: OJICUG_clean_linker_0, # of connection points: 2
#     Edge 62, Type (0, 0), BuildingBlock: OJICUG_clean_linker_0, # of connection points: 2
#     Edge 63, Type (0, 0), BuildingBlock: OJICUG_clean_linker_0, # of connection points: 2
#     Edge 64, Type (0, 0), BuildingBlock: OJICUG_clean_linker_0, # of connection points: 2
#     Edge 65, Type (0, 0), BuildingBlock: OJICUG_clean_linker_0, # of connection points: 2
#     Edge 66, Type (0, 0), BuildingBlock: OJICUG_clean_linker_0, # of connection points: 2
#     Edge 67, Type (0, 0), BuildingBlock: OJICUG_clean_linker_0, # of connection points: 2
#     Edge 68, Type (0, 0), BuildingBlock: OJICUG_clean_linker_0, # of connection points: 2
#     Edge 69, Type (0, 0), BuildingBlock: OJICUG_clean_linker_0, # of connection points: 2
#     Edge 70, Type (0, 0), BuildingBlock: OJICUG_clean_linker_0, # of connection points: 2
#     Edge 71, Type (0, 0), BuildingBlock: OJICUG_clean_linker_0, # of connection points: 2
#     Edge 72, Type (0, 0), BuildingBlock: OJICUG_clean_linker_0, # of connection points: 2
#     Edge 73, Type (0, 0), BuildingBlock: OJICUG_clean_linker_0, # of connection points: 2
#     Edge 74, Type (0, 0), BuildingBlock: OJICUG_clean_linker_0, # of connection points: 2
#     Edge 75, Type (0, 0), BuildingBlock: OJICUG_clean_linker_0, # of connection points: 2
#     Edge 76, Type (0, 0), BuildingBlock: OJICUG_clean_linker_0, # of connection points: 2
#     Edge 77, Type (0, 0), BuildingBlock: OJICUG_clean_linker_0, # of connection points: 2
#     Edge 78, Type (0, 0), BuildingBlock: OJICUG_clean_linker_0, # of connection points: 2
#     Edge 79, Type (0, 0), BuildingBlock: OJICUG_clean_linker_0, # of connection points: 2
#     Edge 80, Type (0, 0), BuildingBlock: OJICUG_clean_linker_0, # of connection points: 2
#     Edge 81, Type (0, 0), BuildingBlock: OJICUG_clean_linker_0, # of connection points: 2
#     Edge 82, Type (0, 0), BuildingBlock: OJICUG_clean_linker_0, # of connection points: 2
#     Edge 83, Type (0, 0), BuildingBlock: OJICUG_clean_linker_0, # of connection points: 2
#     Edge 84, Type (0, 0), BuildingBlock: OJICUG_clean_linker_0, # of connection points: 2
#     Edge 85, Type (0, 0), BuildingBlock: OJICUG_clean_linker_0, # of connection points: 2
#     Edge 86, Type (0, 0), BuildingBlock: OJICUG_clean_linker_0, # of connection points: 2
#     Edge 87, Type (0, 0), BuildingBlock: OJICUG_clean_linker_0, # of connection points: 2
#     Edge 88, Type (0, 0), BuildingBlock: OJICUG_clean_linker_0, # of connection points: 2
#     Edge 89, Type (0, 0), BuildingBlock: OJICUG_clean_linker_0, # of connection points: 2
#     Edge 90, Type (0, 0), BuildingBlock: OJICUG_clean_linker_0, # of connection points: 2
#     Edge 91, Type (0, 0), BuildingBlock: OJICUG_clean_linker_0, # of connection points: 2
#     Edge 92, Type (0, 0), BuildingBlock: OJICUG_clean_linker_0, # of connection points: 2
#     Edge 93, Type (0, 0), BuildingBlock: OJICUG_clean_linker_0, # of connection points: 2
#     Edge 94, Type (0, 0), BuildingBlock: OJICUG_clean_linker_0, # of connection points: 2
#     Edge 95, Type (0, 0), BuildingBlock: OJICUG_clean_linker_0, # of connection points: 2
# Relax obj value: 0.083
# Max RMSD: 0.091
# Mean RMSD: 0.091
data_MOF--net-umv--node1-GALJAG_clean_sbu_0--edge1-OJICUG_clean_linker_0
_symmetry_space_group_name_H-M    P1
_symmetry_Int_Tables_number       1
_symmetry_cell_setting            triclinic
loop_
_symmetry_equiv_pos_as_xyz
'x, y, z'
_cell_length_a     78.034181
_cell_length_b     20.13926
_cell_length_c     37.064462
_cell_angle_alpha  90.002725
_cell_angle_beta   90.005023
_cell_angle_gamma 89.989502
loop_
_atom_site_label
_atom_site_type_symbol
_atom_site_fract_x
_atom_site_fract_y
_atom_site_fract_z
_atom_type_partial_charge
In0 In 0.05394 0.11861 0.31134 0.0
O1 O 0.05583 0.18732 0.35997 0.0
O2 O 0.06204 0.22536 0.30778 0.0
C3 C 0.04497 -0.0003 0.33873 0.0
C4 C 0.02569 0.16484 0.27857 0.0
C5 C 0.08695 0.0956 0.29498 0.0
O6 O 0.04692 0.05087 0.35808 0.0
O7 O 0.04697 0.00908 0.30519 0.0
O8 O 0.07621 0.10951 0.27042 0.0
O9 O 0.08076 0.0912 0.32629 0.0
C10 C 0.06042 0.2366 0.34105 0.0
O11 O 0.0384 0.14346 0.26064 0.0
O12 O 0.02684 0.15733 0.31228 0.0
In13 In 0.19414 0.12177 0.30768 0.0
O14 O 0.20814 0.09776 0.25487 0.0
O15 O 0.22258 0.1032 0.30357 0.0
C16 C 0.16021 0.11644 0.2951 0.0
C17 C 0.19489 0.00279 0.33873 0.0
C18 C 0.19867 0.24314 0.33684 0.0
O19 O 0.17052 0.13095 0.26983 0.0
O20 O 0.16706 0.10884 0.32557 0.0
O21 O 0.19885 0.19039 0.35522 0.0
O22 O 0.19654 0.23475 0.30328 0.0
C23 C 0.2224 0.08843 0.27051 0.0
O24 O 0.19721 0.05548 0.35678 0.0
O25 O 0.19202 0.01085 0.30553 0.0
In26 In 0.05395 0.12073 0.93744 0.0
O27 O 0.0509 0.05438 0.88836 0.0
O28 O 0.05608 0.00981 0.93963 0.0
C29 C 0.04936 0.24207 0.9083 0.0
C30 C 0.0257 0.08744 0.97459 0.0
C31 C 0.0879 0.11545 0.94987 0.0
O32 O 0.04919 0.18932 0.88992 0.0
O33 O 0.05152 0.2337 0.94184 0.0
O34 O 0.07761 0.12977 0.97521 0.0
O35 O 0.08103 0.10803 0.91941 0.0
C36 C 0.05321 0.00172 0.90643 0.0
O37 O 0.03995 0.09678 0.99024 0.0
O38 O 0.02552 0.10217 0.94152 0.0
In39 In 0.1942 0.11715 0.93368 0.0
O40 O 0.20969 0.14234 0.9844 0.0
O41 O 0.22129 0.15589 0.93279 0.0
C42 C 0.16117 0.09427 0.94992 0.0
C43 C 0.18773 0.23509 0.90393 0.0
C44 C 0.20317 -0.0018 0.90634 0.0
O45 O 0.1719 0.10792 0.97453 0.0
O46 O 0.16738 0.09002 0.91861 0.0
O47 O 0.20124 0.04936 0.88698 0.0
O48 O 0.20116 0.0076 0.93987 0.0
C49 C 0.22241 0.16367 0.96648 0.0
O50 O 0.19235 0.18581 0.88503 0.0
O51 O 0.18607 0.22386 0.93719 0.0
In52 In 0.9447 0.8642 0.6804 0.0
O53 O 0.94714 0.79737 0.63142 0.0
O54 O 0.9412 0.75392 0.68262 0.0
C55 C 0.95059 0.98491 0.65184 0.0
C56 C 0.97271 0.82617 0.71704 0.0
C57 C 0.91065 0.86539 0.69165 0.0
O58 O 0.95038 0.93234 0.63329 0.0
O59 O 0.94823 0.97658 0.68535 0.0
O60 O 0.92091 0.87558 0.71765 0.0
O61 O 0.91768 0.85861 0.6613 0.0
C62 C 0.94415 0.74526 0.6495 0.0
O63 O 0.95853 0.83654 0.73285 0.0
O64 O 0.97299 0.84226 0.68416 0.0
In65 In 0.80357 0.873 0.67878 0.0
O66 O 0.78885 0.90147 0.73 0.0
O67 O 0.77612 0.90773 0.67915 0.0
C68 C 0.83697 0.85189 0.69222 0.0
C69 C 0.8089 0.99117 0.64866 0.0
C70 C 0.7948 0.75386 0.65165 0.0
O71 O 0.82652 0.86118 0.71798 0.0
O72 O 0.83031 0.85126 0.66123 0.0
O73 O 0.79629 0.80534 0.63239 0.0
O74 O 0.79714 0.76296 0.68513 0.0
C75 C 0.77562 0.91936 0.71258 0.0
O76 O 0.80433 0.94143 0.63008 0.0
O77 O 0.8111 0.9803 0.68183 0.0
In78 In 0.94414 0.87464 0.06711 0.0
O79 O 0.94239 0.943 0.11588 0.0
O80 O 0.93592 0.98128 0.06389 0.0
C81 C 0.95309 0.75566 0.09441 0.0
C82 C 0.9723 0.9219 0.03441 0.0
C83 C 0.9112 0.8504 0.05071 0.0
O84 O 0.95113 0.80681 0.11377 0.0
O85 O 0.95117 0.76511 0.06085 0.0
O86 O 0.92195 0.86358 0.02608 0.0
O87 O 0.91733 0.8477 0.08215 0.0
C88 C 0.9377 0.99236 0.09714 0.0
O89 O 0.95938 0.90237 0.01651 0.0
O90 O 0.97142 0.91177 0.06794 0.0
In91 In 0.80388 0.86564 0.06282 0.0
O92 O 0.78992 0.83806 0.01054 0.0
O93 O 0.77544 0.84659 0.05906 0.0
C94 C 0.83782 0.86321 0.05022 0.0
C95 C 0.80365 0.74689 0.09403 0.0
C96 C 0.79891 0.98682 0.09174 0.0
O97 O 0.82744 0.87717 0.02496 0.0
O98 O 0.83101 0.85457 0.08064 0.0
O99 O 0.79903 0.93419 0.11023 0.0
O100 O 0.80093 0.97837 0.05815 0.0
C101 C 0.77567 0.82939 0.02635 0.0
O102 O 0.80108 0.79947 0.11201 0.0
O103 O 0.80659 0.755 0.06086 0.0
In104 In 0.05404 0.62276 0.81259 0.0
O105 O 0.05098 0.68879 0.86182 0.0
O106 O 0.05642 0.73356 0.81072 0.0
C107 C 0.04931 0.50145 0.84163 0.0
C108 C 0.02589 0.65781 0.7755 0.0
C109 C 0.08799 0.62653 0.79996 0.0
O110 O 0.0493 0.55414 0.86008 0.0
O111 O 0.05134 0.50988 0.80805 0.0
O112 O 0.07764 0.61179 0.77479 0.0
O113 O 0.08116 0.6353 0.83036 0.0
C114 C 0.05343 0.74151 0.84388 0.0
O115 O 0.04021 0.6492 0.75999 0.0
O116 O 0.02556 0.64123 0.80831 0.0
In117 In 0.19426 0.61689 0.81687 0.0
O118 O 0.19235 0.54852 0.86563 0.0
O119 O 0.18587 0.51048 0.81359 0.0
C120 C 0.20331 0.73586 0.84404 0.0
C121 C 0.22238 0.56892 0.78433 0.0
C122 C 0.16133 0.6413 0.80031 0.0
O123 O 0.2013 0.68483 0.86346 0.0
O124 O 0.20138 0.72628 0.81049 0.0
O125 O 0.17209 0.62762 0.77577 0.0
O126 O 0.16745 0.64453 0.83174 0.0
C127 C 0.1876 0.4993 0.84684 0.0
O128 O 0.20957 0.58927 0.76636 0.0
O129 O 0.22144 0.5786 0.81789 0.0
In130 In 0.05378 0.61834 0.42816 0.0
O131 O 0.03843 0.59065 0.4786 0.0
O132 O 0.0266 0.57998 0.42703 0.0
C133 C 0.08666 0.64291 0.44498 0.0
C134 C 0.06051 0.50082 0.39815 0.0
C135 C 0.04474 0.73734 0.401 0.0
O136 O 0.07587 0.62898 0.46943 0.0
O137 O 0.08059 0.64628 0.41352 0.0
O138 O 0.04678 0.68633 0.38156 0.0
O139 O 0.04662 0.72772 0.43455 0.0
C140 C 0.02564 0.57027 0.46059 0.0
O141 O 0.05575 0.55004 0.37937 0.0
O142 O 0.06223 0.51198 0.4314 0.0
In143 In 0.1939 0.62386 0.4326 0.0
O144 O 0.2078 0.65011 0.48515 0.0
O145 O 0.2224 0.64175 0.43679 0.0
C146 C 0.15997 0.62804 0.44541 0.0
C147 C 0.1946 0.74263 0.40134 0.0
C148 C 0.19855 0.50254 0.40351 0.0
O149 O 0.17033 0.61298 0.4705 0.0
O150 O 0.16678 0.63691 0.41499 0.0
O151 O 0.19855 0.55523 0.38507 0.0
O152 O 0.19655 0.51096 0.4371 0.0
C153 C 0.22212 0.65837 0.46959 0.0
O154 O 0.19696 0.68987 0.38338 0.0
O155 O 0.19166 0.73472 0.43452 0.0
In156 In 0.94402 0.37451 0.18436 0.0
O157 O 0.95948 0.34993 0.23523 0.0
O158 O 0.97118 0.33656 0.1837 0.0
C159 C 0.91088 0.39615 0.20016 0.0
C160 C 0.93787 0.2564 0.15454 0.0
C161 C 0.95285 0.49358 0.15701 0.0
O162 O 0.92157 0.38304 0.22493 0.0
O163 O 0.91719 0.4006 0.16894 0.0
O164 O 0.95106 0.44229 0.13769 0.0
O165 O 0.95075 0.48428 0.19053 0.0
C166 C 0.97227 0.32894 0.2174 0.0
O167 O 0.94239 0.30586 0.13569 0.0
O168 O 0.93618 0.26749 0.18781 0.0
In169 In 0.80368 0.36752 0.18724 0.0
O170 O 0.78953 0.39184 0.23982 0.0
O171 O 0.77529 0.38724 0.19082 0.0
C172 C 0.83762 0.3722 0.19965 0.0
C173 C 0.8033 0.48653 0.15629 0.0
C174 C 0.7989 0.24622 0.15827 0.0
O175 O 0.82731 0.35889 0.22512 0.0
O176 O 0.83077 0.37873 0.1691 0.0
O177 O 0.79877 0.29891 0.13984 0.0
O178 O 0.80111 0.25464 0.19181 0.0
C179 C 0.77537 0.40186 0.22391 0.0
O180 O 0.8009 0.43399 0.13817 0.0
O181 O 0.80607 0.4783 0.18952 0.0
In182 In 0.94478 0.36523 0.55731 0.0
O183 O 0.95873 0.39014 0.50451 0.0
O184 O 0.97297 0.38793 0.55359 0.0
C185 C 0.91066 0.36595 0.5471 0.0
C186 C 0.94437 0.48439 0.58797 0.0
C187 C 0.9506 0.24425 0.58561 0.0
O188 O 0.92072 0.35715 0.5206 0.0
O189 O 0.91791 0.37006 0.57737 0.0
O190 O 0.95072 0.29681 0.60416 0.0
O191 O 0.94793 0.25269 0.55221 0.0
C192 C 0.97282 0.40184 0.52042 0.0
O193 O 0.94735 0.43233 0.60613 0.0
O194 O 0.94144 0.4756 0.55485 0.0
In195 In 0.80356 0.37332 0.56085 0.0
O196 O 0.7886 0.34828 0.50935 0.0
O197 O 0.77619 0.33805 0.56036 0.0
C198 C 0.8371 0.39121 0.54758 0.0
C199 C 0.80858 0.2547 0.59069 0.0
C200 C 0.79501 0.49259 0.58822 0.0
O201 O 0.82663 0.38257 0.5218 0.0
O202 O 0.83038 0.39346 0.57848 0.0
O203 O 0.79634 0.44092 0.60738 0.0
O204 O 0.79746 0.48368 0.55477 0.0
C205 C 0.77548 0.32904 0.52671 0.0
O206 O 0.80424 0.30455 0.60943 0.0
O207 O 0.81062 0.26558 0.55747 0.0
In208 In 0.5541 0.11841 0.81298 0.0
O209 O 0.53862 0.14374 0.76232 0.0
O210 O 0.52698 0.15714 0.81391 0.0
C211 C 0.58711 0.09544 0.79658 0.0
C212 C 0.56064 0.23627 0.84272 0.0
C213 C 0.54514 -0.00055 0.84029 0.0
O214 O 0.57636 0.10918 0.77203 0.0
O215 O 0.58093 0.09111 0.82792 0.0
O216 O 0.54707 0.05058 0.85967 0.0
O217 O 0.54714 0.00889 0.80675 0.0
C218 C 0.52588 0.165 0.78023 0.0
O219 O 0.556 0.18705 0.86163 0.0
O220 O 0.56227 0.22503 0.80946 0.0
In221 In 0.69432 0.12158 0.80891 0.0
O222 O 0.69722 0.05518 0.85799 0.0
O223 O 0.69196 0.0108 0.8067 0.0
C224 C 0.69901 0.24292 0.83794 0.0
C225 C 0.72257 0.08723 0.77201 0.0
C226 C 0.66037 0.11684 0.79647 0.0
O227 O 0.69917 0.19021 0.85636 0.0
O228 O 0.69684 0.23449 0.80439 0.0
O229 O 0.67068 0.1308 0.7711 0.0
O230 O 0.66724 0.10961 0.82696 0.0
C231 C 0.6948 0.00261 0.8399 0.0
O232 O 0.70836 0.09701 0.75626 0.0
O233 O 0.72274 0.10215 0.80505 0.0
In234 In 0.55371 0.1229 0.43662 0.0
O235 O 0.5508 0.05637 0.38762 0.0
O236 O 0.5562 0.01216 0.43889 0.0
C237 C 0.54873 0.24416 0.40779 0.0
C238 C 0.52553 0.08822 0.47363 0.0
C239 C 0.58771 0.11875 0.44836 0.0
O240 O 0.54858 0.19149 0.38934 0.0
O241 O 0.55106 0.23574 0.44129 0.0
O242 O 0.5775 0.13166 0.47406 0.0
O243 O 0.58072 0.1123 0.41794 0.0
C244 C 0.55331 0.00387 0.40572 0.0
O245 O 0.53973 0.09827 0.48937 0.0
O246 O 0.52534 0.10299 0.44057 0.0
In247 In 0.69419 0.11767 0.43227 0.0
O248 O 0.70956 0.14292 0.48312 0.0
O249 O 0.72137 0.15565 0.43165 0.0
C250 C 0.66105 0.09588 0.44797 0.0
C251 C 0.68799 0.23573 0.40251 0.0
C252 C 0.70307 -0.00134 0.40492 0.0
O253 O 0.67175 0.10846 0.47281 0.0
O254 O 0.66735 0.09202 0.41672 0.0
O255 O 0.70126 0.04993 0.3856 0.0
O256 O 0.70098 0.00796 0.43844 0.0
C257 C 0.72238 0.16375 0.46534 0.0
O258 O 0.69256 0.18636 0.38363 0.0
O259 O 0.68628 0.22456 0.43577 0.0
In260 In 0.44421 0.86651 0.18127 0.0
O261 O 0.45807 0.83926 0.23373 0.0
O262 O 0.47265 0.84722 0.18531 0.0
C263 C 0.41025 0.86423 0.19365 0.0
C264 C 0.44446 0.74773 0.15007 0.0
C265 C 0.44921 0.98767 0.15235 0.0
O266 O 0.4206 0.87792 0.219 0.0
O267 O 0.4171 0.85575 0.16325 0.0
O268 O 0.44915 0.93502 0.13388 0.0
O269 O 0.44714 0.97925 0.18593 0.0
C270 C 0.47234 0.83035 0.21808 0.0
O271 O 0.44709 0.80029 0.1321 0.0
O272 O 0.44147 0.75588 0.18321 0.0
In273 In 0.3038 0.87516 0.17767 0.0
O274 O 0.28867 0.90308 0.2284 0.0
O275 O 0.27651 0.91214 0.17706 0.0
C276 C 0.33682 0.85119 0.1935 0.0
C277 C 0.31012 0.99295 0.14767 0.0
C278 C 0.29481 0.75616 0.15048 0.0
O279 O 0.32613 0.86387 0.21835 0.0
O280 O 0.33059 0.84879 0.16215 0.0
O281 O 0.2967 0.80733 0.13111 0.0
O282 O 0.29684 0.7656 0.18402 0.0
C283 C 0.27571 0.92248 0.21059 0.0
O284 O 0.30543 0.9436 0.12893 0.0
O285 O 0.31196 0.98184 0.1809 0.0
In286 In 0.44449 0.87359 0.56651 0.0
O287 O 0.45941 0.90179 0.51552 0.0
O288 O 0.47189 0.90914 0.56657 0.0
C289 C 0.41129 0.85104 0.55159 0.0
C290 C 0.43887 0.99145 0.59686 0.0
C291 C 0.4533 0.75475 0.594 0.0
O292 O 0.4219 0.86225 0.52638 0.0
O293 O 0.41768 0.84944 0.58281 0.0
O294 O 0.45148 0.80615 0.6132 0.0
O295 O 0.4513 0.7638 0.56043 0.0
C296 C 0.47252 0.92028 0.53311 0.0
O297 O 0.4435 0.9417 0.61535 0.0
O298 O 0.43669 0.98068 0.56369 0.0
In299 In 0.30377 0.86269 0.56423 0.0
O300 O 0.30146 0.79596 0.61327 0.0
O301 O 0.30695 0.75226 0.56191 0.0
C302 C 0.29801 0.98327 0.59314 0.0
C303 C 0.27564 0.82527 0.52782 0.0
C304 C 0.33775 0.86301 0.55202 0.0
O305 O 0.29839 0.93064 0.61163 0.0
O306 O 0.30019 0.97509 0.55958 0.0
O307 O 0.32736 0.87493 0.52648 0.0
O308 O 0.3309 0.85509 0.58247 0.0
C309 C 0.3042 0.74371 0.59511 0.0
O310 O 0.28981 0.83524 0.51191 0.0
O311 O 0.27543 0.84139 0.5607 0.0
In312 In 0.55367 0.62468 0.31235 0.0
O313 O 0.53978 0.65188 0.25994 0.0
O314 O 0.52524 0.64422 0.30843 0.0
C315 C 0.58763 0.627 0.29992 0.0
C316 C 0.55347 0.74346 0.34353 0.0
C317 C 0.54862 0.50355 0.34127 0.0
O318 O 0.57727 0.61349 0.27457 0.0
O319 O 0.58079 0.63521 0.33035 0.0
O320 O 0.54872 0.55619 0.35975 0.0
O321 O 0.5507 0.51196 0.30769 0.0
C322 C 0.52552 0.66096 0.27565 0.0
O323 O 0.55086 0.69093 0.36153 0.0
O324 O 0.55642 0.73529 0.31038 0.0
In325 In 0.69408 0.61755 0.3154 0.0
O326 O 0.69239 0.54914 0.36411 0.0
O327 O 0.68589 0.51096 0.3121 0.0
C328 C 0.70312 0.73654 0.34244 0.0
C329 C 0.7222 0.56973 0.28281 0.0
C330 C 0.66105 0.6414 0.2997 0.0
O331 O 0.70122 0.68546 0.36188 0.0
O332 O 0.70108 0.72703 0.30892 0.0
O333 O 0.67172 0.62881 0.2748 0.0
O334 O 0.66732 0.64386 0.33103 0.0
C335 C 0.6877 0.49982 0.34533 0.0
O336 O 0.70929 0.58922 0.26484 0.0
O337 O 0.72134 0.58027 0.31631 0.0
In338 In 0.55405 0.61804 0.9296 0.0
O339 O 0.53857 0.58999 0.97981 0.0
O340 O 0.52686 0.57999 0.92807 0.0
C341 C 0.5869 0.64261 0.94651 0.0
C342 C 0.56083 0.50051 0.89971 0.0
C343 C 0.54502 0.73704 0.90246 0.0
O344 O 0.5761 0.6287 0.97094 0.0
O345 O 0.58085 0.64599 0.91503 0.0
O346 O 0.5471 0.68608 0.883 0.0
O347 O 0.54687 0.72737 0.93602 0.0
C348 C 0.52581 0.56995 0.96159 0.0
O349 O 0.55613 0.54972 0.88085 0.0
O350 O 0.56246 0.51168 0.93298 0.0
In351 In 0.69408 0.62361 0.93353 0.0
O352 O 0.69689 0.68965 0.88426 0.0
O353 O 0.69159 0.73433 0.93545 0.0
C354 C 0.69887 0.50235 0.90452 0.0
C355 C 0.72236 0.65942 0.96992 0.0
C356 C 0.66019 0.62716 0.94661 0.0
O357 O 0.69874 0.55499 0.88603 0.0
O358 O 0.69693 0.5108 0.93812 0.0
O359 O 0.67061 0.61252 0.97166 0.0
O360 O 0.66692 0.63578 0.9161 0.0
C361 C 0.69445 0.74232 0.90225 0.0
O362 O 0.70812 0.65082 0.98576 0.0
O363 O 0.72256 0.64235 0.93719 0.0
In364 In 0.44465 0.37384 0.68448 0.0
O365 O 0.45951 0.34886 0.73612 0.0
O366 O 0.47207 0.33922 0.68521 0.0
C367 C 0.41099 0.39028 0.69672 0.0
C368 C 0.43982 0.25497 0.65485 0.0
C369 C 0.45309 0.49343 0.65741 0.0
O370 O 0.42133 0.3832 0.72289 0.0
O371 O 0.4179 0.39198 0.666 0.0
O372 O 0.45206 0.44172 0.6382 0.0
O373 O 0.45039 0.48443 0.69077 0.0
C374 C 0.47271 0.33002 0.71886 0.0
O375 O 0.4441 0.3048 0.63602 0.0
O376 O 0.43782 0.26594 0.68808 0.0
In377 In 0.30321 0.36376 0.6874 0.0
O378 O 0.30063 0.43091 0.63861 0.0
O379 O 0.30684 0.474 0.68976 0.0
C380 C 0.29738 0.24262 0.65939 0.0
C381 C 0.27521 0.40063 0.7243 0.0
C382 C 0.33736 0.36357 0.69713 0.0
O383 O 0.29712 0.2951 0.64078 0.0
O384 O 0.30014 0.25124 0.69275 0.0
O385 O 0.32736 0.35643 0.72388 0.0
O386 O 0.33001 0.36667 0.66692 0.0
C387 C 0.3038 0.48288 0.65669 0.0
O388 O 0.28928 0.38865 0.74022 0.0
O389 O 0.27505 0.3869 0.6911 0.0
In390 In 0.44418 0.36833 0.05687 0.0
O391 O 0.45833 0.39266 0.00426 0.0
O392 O 0.47257 0.38779 0.05326 0.0
C393 C 0.41022 0.37301 0.04471 0.0
C394 C 0.44463 0.48737 0.08779 0.0
C395 C 0.44902 0.24704 0.0858 0.0
O396 O 0.42049 0.35981 0.01915 0.0
O397 O 0.41713 0.37946 0.07521 0.0
O398 O 0.44914 0.29973 0.10424 0.0
O399 O 0.44677 0.25545 0.05227 0.0
C400 C 0.4725 0.40249 0.02018 0.0
O401 O 0.44702 0.43482 0.10592 0.0
O402 O 0.44184 0.47914 0.05457 0.0
In403 In 0.3038 0.37506 0.06045 0.0
O404 O 0.28837 0.35016 0.00959 0.0
O405 O 0.27665 0.33706 0.06111 0.0
C406 C 0.33694 0.3967 0.04464 0.0
C407 C 0.30995 0.25699 0.09029 0.0
C408 C 0.29496 0.49411 0.08785 0.0
O409 O 0.32623 0.38384 0.01986 0.0
O410 O 0.33065 0.4009 0.07588 0.0
O411 O 0.29677 0.44281 0.10715 0.0
O412 O 0.29703 0.48483 0.05432 0.0
C413 C 0.27558 0.32919 0.02742 0.0
O414 O 0.30542 0.30645 0.10913 0.0
O415 O 0.31167 0.26807 0.05703 0.0
C416 C 0.11547 0.06045 0.31645 0.0
C417 C 0.10567 0.09139 0.28959 0.0
H418 H 0.1402 0.04414 0.33886 0.0
C419 C 0.1141 0.1255 0.26158 0.0
H420 H 0.10937 0.03326 0.33818 0.0
C421 C 0.13207 0.132 0.26199 0.0
C422 C 0.14164 0.10475 0.29053 0.0
H423 H 0.10679 0.15015 0.24065 0.0
H424 H 0.13833 0.1608 0.24114 0.0
C425 C 0.13317 0.06712 0.31695 0.0
C426 C 0.13402 0.1239 0.98341 0.0
C427 C 0.14245 0.09019 0.95524 0.0
H428 H 0.10979 0.15896 0.00401 0.0
C429 C 0.13264 0.05974 0.92822 0.0
H430 H 0.14133 0.14815 0.00446 0.0
C431 C 0.11494 0.06652 0.92774 0.0
C432 C 0.10648 0.10374 0.95435 0.0
H433 H 0.13873 0.03287 0.90637 0.0
H434 H 0.10791 0.04391 0.90572 0.0
C435 C 0.11605 0.13049 0.98302 0.0
C436 C 0.88261 0.87795 0.72579 0.0
C437 C 0.89188 0.8573 0.69521 0.0
H438 H 0.85756 0.89219 0.74921 0.0
C439 C 0.88297 0.82859 0.66623 0.0
H440 H 0.88919 0.89972 0.74863 0.0
C441 C 0.86524 0.82359 0.66673 0.0
C442 C 0.85578 0.8474 0.69616 0.0
H443 H 0.88969 0.8108 0.64253 0.0
H444 H 0.85889 0.80284 0.6433 0.0
C445 C 0.86459 0.87318 0.72622 0.0
C446 C 0.88391 0.87731 0.01702 0.0
C447 C 0.89254 0.84429 0.04517 0.0
H448 H 0.85945 0.90982 0.99633 0.0
C449 C 0.88292 0.81232 0.07195 0.0
H450 H 0.89107 0.90268 0.99614 0.0
C451 C 0.86518 0.81692 0.07226 0.0
C452 C 0.85648 0.85351 0.04573 0.0
H453 H 0.88918 0.7859 0.09376 0.0
H454 H 0.85829 0.79318 0.09412 0.0
C455 C 0.86589 0.88178 0.01726 0.0
C456 C 0.11608 0.6083 0.76705 0.0
C457 C 0.10662 0.6368 0.79539 0.0
H458 H 0.14129 0.58768 0.74601 0.0
C459 C 0.11526 0.67415 0.8217 0.0
H460 H 0.1097 0.57967 0.74629 0.0
C461 C 0.13299 0.67926 0.82133 0.0
C462 C 0.14266 0.64704 0.79471 0.0
H463 H 0.10832 0.69807 0.84344 0.0
H464 H 0.13921 0.70623 0.84299 0.0
C465 C 0.13409 0.61328 0.76676 0.0
C466 C 0.11499 0.6815 0.42432 0.0
C467 C 0.10532 0.64874 0.45072 0.0
H468 H 0.13968 0.70069 0.40238 0.0
C469 C 0.11387 0.61446 0.47851 0.0
H470 H 0.10878 0.70887 0.4028 0.0
C471 C 0.13188 0.60947 0.47823 0.0
C472 C 0.14136 0.63848 0.45007 0.0
H473 H 0.10666 0.58844 0.49908 0.0
H474 H 0.13826 0.5804 0.49882 0.0
C475 C 0.13273 0.67639 0.42398 0.0
C476 C 0.88373 0.36616 0.23358 0.0
C477 C 0.89212 0.39935 0.20519 0.0
H478 H 0.85954 0.33091 0.25431 0.0
C479 C 0.8823 0.42845 0.17778 0.0
H480 H 0.89105 0.34294 0.25495 0.0
C481 C 0.86462 0.42093 0.17718 0.0
C482 C 0.85619 0.38431 0.20408 0.0
H483 H 0.88836 0.45491 0.15574 0.0
H484 H 0.85758 0.44258 0.15489 0.0
C485 C 0.86577 0.35885 0.23309 0.0
C486 C 0.88336 0.4032 0.57411 0.0
C487 C 0.89193 0.37622 0.5442 0.0
H488 H 0.85962 0.43075 0.59793 0.0
C489 C 0.88242 0.36011 0.51316 0.0
H490 H 0.89028 0.41749 0.59824 0.0
C491 C 0.86447 0.36786 0.51301 0.0
C492 C 0.85597 0.39225 0.5438 0.0
H493 H 0.88874 0.33982 0.48961 0.0
H494 H 0.85723 0.3525 0.48951 0.0
C495 C 0.86571 0.41129 0.57386 0.0
C496 C 0.63336 0.06765 0.81855 0.0
C497 C 0.6418 0.10509 0.792 0.0
H498 H 0.6096 0.03377 0.83992 0.0
C499 C 0.6322 0.13197 0.7634 0.0
H500 H 0.64042 0.04493 0.84051 0.0
C501 C 0.61423 0.12532 0.76305 0.0
C502 C 0.60583 0.0914 0.79118 0.0
H503 H 0.63844 0.1606 0.74245 0.0
H504 H 0.6069 0.14969 0.74207 0.0
C505 C 0.61566 0.06081 0.81811 0.0
C506 C 0.63391 0.12454 0.48184 0.0
C507 C 0.64229 0.09258 0.45301 0.0
H508 H 0.60972 0.15852 0.50321 0.0
C509 C 0.63244 0.06452 0.42531 0.0
H510 H 0.64125 0.14695 0.50344 0.0
C511 C 0.61475 0.07179 0.42495 0.0
C512 C 0.60633 0.10711 0.45237 0.0
H513 H 0.63848 0.03902 0.40292 0.0
H514 H 0.6077 0.0509 0.40247 0.0
C515 C 0.61595 0.1316 0.48158 0.0
C516 C 0.36417 0.87733 0.22717 0.0
C517 C 0.35551 0.84529 0.19874 0.0
H518 H 0.38865 0.90908 0.24807 0.0
C519 C 0.3651 0.81447 0.17151 0.0
H520 H 0.35704 0.90181 0.24841 0.0
C521 C 0.38284 0.81916 0.17112 0.0
C522 C 0.39158 0.8547 0.19801 0.0
H523 H 0.35882 0.78881 0.14946 0.0
H524 H 0.3897 0.79626 0.14894 0.0
C525 C 0.38219 0.88189 0.22685 0.0
C526 C 0.36576 0.87991 0.51841 0.0
C527 C 0.35647 0.85432 0.54782 0.0
H528 H 0.39084 0.8987 0.49617 0.0
C529 C 0.36533 0.8208 0.5753 0.0
H530 H 0.35921 0.90551 0.49674 0.0
C531 C 0.38307 0.81631 0.57478 0.0
C532 C 0.39256 0.84537 0.54684 0.0
H533 H 0.35856 0.79913 0.59795 0.0
H534 H 0.38942 0.79205 0.5972 0.0
C535 C 0.38379 0.87559 0.51797 0.0
C536 C 0.63275 0.67735 0.32196 0.0
C537 C 0.64234 0.64699 0.29458 0.0
H538 H 0.60816 0.69482 0.34473 0.0
C539 C 0.63368 0.61501 0.26613 0.0
H540 H 0.63903 0.70293 0.34404 0.0
C541 C 0.61567 0.61007 0.26654 0.0
C542 C 0.60629 0.63681 0.29551 0.0
H543 H 0.64082 0.59086 0.24478 0.0
H544 H 0.60922 0.58297 0.24529 0.0
C545 C 0.61502 0.67226 0.32245 0.0
C546 C 0.63297 0.67601 0.92548 0.0
C547 C 0.64159 0.63776 0.95143 0.0
H548 H 0.60902 0.70891 0.90449 0.0
C549 C 0.63212 0.60861 0.97957 0.0
H550 H 0.63991 0.70044 0.90392 0.0
C551 C 0.61412 0.61377 0.97993 0.0
C552 C 0.60556 0.64837 0.95226 0.0
H553 H 0.6385 0.57928 4e-05 0.0
H554 H 0.60691 0.5876 0.00045 0.0
C555 C 0.61523 0.6813 0.92592 0.0
C556 C 0.36556 0.36182 0.73143 0.0
C557 C 0.35613 0.37313 0.69963 0.0
H558 H 0.39065 0.35868 0.75581 0.0
C559 C 0.36481 0.39525 0.66871 0.0
H560 H 0.35916 0.34534 0.75575 0.0
C561 C 0.38244 0.40381 0.66891 0.0
C562 C 0.39209 0.39003 0.69994 0.0
H563 H 0.35799 0.40562 0.64387 0.0
H564 H 0.38857 0.4197 0.64413 0.0
C565 C 0.3835 0.36997 0.73154 0.0
C566 C 0.36407 0.3672 0.011 0.0
C567 C 0.35569 0.39992 0.03957 0.0
H568 H 0.38825 0.33239 0.98999 0.0
C569 C 0.36554 0.42861 0.06709 0.0
H570 H 0.35674 0.34431 0.98955 0.0
C571 C 0.38322 0.42115 0.06757 0.0
C572 C 0.39164 0.38502 0.04045 0.0
H573 H 0.35949 0.45471 0.08927 0.0
H574 H 0.39027 0.4425 0.08993 0.0
C575 C 0.38203 0.35995 0.01138 0.0
C576 C 0.99865 0.23074 0.28461 0.0
C577 C 0.01162 0.20421 0.26245 0.0
H578 H 0.97621 0.29194 0.28796 0.0
C579 C 0.01183 0.22094 0.22572 0.0
H580 H 0.99823 0.21932 0.31315 0.0
C581 C -0.00067 0.26323 0.21144 0.0
C582 C 0.98636 0.28973 0.23358 0.0
H583 H 0.02176 0.202 0.20807 0.0
H584 H -0.00025 0.27463 0.18289 0.0
C585 C 0.98615 0.27301 0.27032 0.0
C586 C 0.25069 0.03091 0.27532 0.0
C587 C 0.23662 0.05044 0.25401 0.0
H588 H 0.27383 0.97386 0.27869 0.0
C589 C 0.23534 0.02618 0.21862 0.0
H590 H 0.25196 0.04806 0.30289 0.0
C591 C 0.24783 0.98313 0.20491 0.0
C592 C 0.26179 0.96305 0.22637 0.0
H593 H 0.22456 0.03954 0.20172 0.0
H594 H 0.24655 0.96568 0.17739 0.0
C595 C 0.26311 0.98756 0.26169 0.0
C596 C 0.01269 0.02545 0.02649 0.0
C597 C 0.01145 0.04954 0.99106 0.0
H598 H 0.00141 0.96519 0.06775 0.0
C599 C 0.99741 0.02996 0.9697 0.0
H600 H 0.02345 0.03887 0.04344 0.0
C601 C 0.98498 0.98671 0.98332 0.0
C602 C 0.98625 0.96238 0.01868 0.0
H603 H 0.99618 0.04698 0.9421 0.0
H604 H 0.97427 0.97296 0.96627 0.0
C605 C 0.00018 0.98252 0.0402 0.0
C606 C 0.23615 0.22052 0.01923 0.0
C607 C 0.23643 0.20337 0.98256 0.0
H608 H 0.2481 0.27489 0.06195 0.0
C609 C 0.24939 0.22987 0.96039 0.0
H610 H 0.22622 0.20163 0.03688 0.0
C611 C 0.26183 0.27251 0.97461 0.0
C612 C 0.26155 0.28964 0.01129 0.0
H613 H 0.24986 0.21814 0.93189 0.0
H614 H 0.27176 0.29139 0.95697 0.0
C615 C 0.24858 0.26318 0.03345 0.0
C616 C 0.98471 0.75617 0.76693 0.0
C617 C 0.98672 0.78628 0.73305 0.0
H618 H 0.99531 0.69043 0.80644 0.0
C619 C 0.00137 0.77116 0.71246 0.0
H620 H 0.97345 0.76589 0.78318 0.0
C621 C 0.01377 0.72709 0.72549 0.0
C622 C 0.01179 0.69708 0.7594 0.0
H623 H 0.00319 0.79285 0.68599 0.0
H624 H 0.02504 0.71744 0.70925 0.0
C625 C 0.99712 0.71207 0.77996 0.0
C626 C 0.75089 0.02975 0.77689 0.0
C627 C 0.73673 0.04861 0.75567 0.0
H628 H 0.77406 0.97284 0.78032 0.0
C629 C 0.73527 0.02308 0.72058 0.0
H630 H 0.75229 0.04789 0.80424 0.0
C631 C 0.74767 0.97947 0.70706 0.0
C632 C 0.76175 0.96017 0.7284 0.0
H633 H 0.72441 0.03586 0.70376 0.0
H634 H 0.74625 0.96108 0.67976 0.0
C635 C 0.76324 0.98591 0.76343 0.0
C636 C 0.73452 0.73065 0.01908 0.0
C637 C 0.73647 0.69929 0.98552 0.0
H638 H 0.74515 0.79786 0.05779 0.0
C639 C 0.75112 0.71351 0.96471 0.0
H640 H 0.72327 0.72164 0.03547 0.0
C641 C 0.76353 0.75805 0.97719 0.0
C642 C 0.76158 0.78942 0.01074 0.0
H643 H 0.7529 0.69085 0.93847 0.0
H644 H 0.77479 0.76706 0.96079 0.0
C645 C 0.74693 0.7752 0.03155 0.0
C646 C 0.24998 0.50626 0.79021 0.0
C647 C 0.23625 0.52799 0.76857 0.0
H648 H 0.27296 0.44799 0.79348 0.0
C649 C 0.23504 0.50475 0.73299 0.0
H650 H 0.25116 0.52273 0.81792 0.0
C651 C 0.24732 0.46094 0.71929 0.0
C652 C 0.26115 0.43964 0.74078 0.0
H653 H 0.22449 0.51975 0.71582 0.0
H654 H 0.24612 0.44472 0.69154 0.0
C655 C 0.26235 0.46273 0.77642 0.0
C656 C 0.01298 0.50592 0.51185 0.0
C657 C 0.01178 0.52928 0.4763 0.0
H658 H 0.0019 0.44575 0.55323 0.0
C659 C 0.99804 0.50763 0.45462 0.0
H660 H 0.02353 0.52086 0.52904 0.0
C661 C 0.98568 0.46406 0.46836 0.0
C662 C 0.98687 0.44085 0.50397 0.0
H663 H 0.99687 0.52419 0.42693 0.0
H664 H 0.97507 0.44938 0.45128 0.0
C665 C 0.0007 0.46206 0.52549 0.0
C666 C 0.25097 0.71185 0.46502 0.0
C667 C 0.23629 0.69727 0.48565 0.0
H668 H 0.27472 0.76503 0.4617 0.0
C669 C 0.2344 0.72733 0.51957 0.0
H670 H 0.25272 0.69017 0.43853 0.0
C671 C 0.24689 0.77104 0.53256 0.0
C672 C 0.26155 0.78576 0.51189 0.0
H673 H 0.22313 0.71797 0.53586 0.0
H674 H 0.24513 0.79278 0.55903 0.0
C675 C 0.26346 0.75561 0.478 0.0
C676 C 0.74721 0.46027 0.21859 0.0
C677 C 0.76117 0.44039 0.24013 0.0
H678 H 0.7242 0.518 0.21478 0.0
C679 C 0.76238 0.46481 0.2755 0.0
H680 H 0.746 0.443 0.19102 0.0
C681 C 0.74995 0.50833 0.28896 0.0
C682 C 0.7361 0.52872 0.26726 0.0
H683 H 0.77309 0.4512 0.29259 0.0
H684 H 0.75117 0.52588 0.31647 0.0
C685 C 0.73485 0.50408 0.23196 0.0
C686 C 0.76205 0.27116 0.47388 0.0
C687 C 0.76147 0.28971 0.51034 0.0
H688 H 0.75032 0.21567 0.43127 0.0
C689 C 0.7482 0.26467 0.53222 0.0
H690 H 0.77221 0.28891 0.45647 0.0
C691 C 0.7358 0.22197 0.51797 0.0
C692 C 0.73638 0.2034 0.48152 0.0
H693 H 0.74749 0.27748 0.56056 0.0
H694 H 0.72565 0.20419 0.53541 0.0
C695 C 0.74962 0.22852 0.45961 0.0
C696 C 0.50001 0.26581 0.71339 0.0
C697 C 0.48674 0.29084 0.73527 0.0
H698 H 0.52256 0.20535 0.71018 0.0
C699 C 0.48619 0.27241 0.77176 0.0
H700 H 0.5007 0.27852 0.68504 0.0
C701 C 0.49864 0.22986 0.78603 0.0
C702 C 0.51187 0.20469 0.7641 0.0
H703 H 0.47603 0.29017 0.78917 0.0
H704 H 0.49797 0.21708 0.81439 0.0
C705 C 0.51242 0.22316 0.72764 0.0
C706 C 0.48497 0.98636 0.4822 0.0
C707 C 0.4864 0.96113 0.51735 0.0
H708 H 0.49594 0.04793 0.44127 0.0
C709 C 0.50039 0.98096 0.53878 0.0
H710 H 0.47421 0.97288 0.46523 0.0
C711 C 0.51279 0.02454 0.52522 0.0
C712 C 0.51139 0.04956 0.49001 0.0
H713 H 0.50176 0.96297 0.56617 0.0
H714 H 0.52359 0.03773 0.5421 0.0
C715 C 0.4973 0.03019 0.46871 0.0
C716 C 0.50108 0.77596 0.21332 0.0
C717 C 0.48641 0.79057 0.23395 0.0
H718 H 0.52475 0.72225 0.20982 0.0
C719 C 0.4844 0.75977 0.26765 0.0
H720 H 0.50291 0.79819 0.18698 0.0
C721 C 0.49679 0.71539 0.28043 0.0
C722 C 0.51146 0.70078 0.25979 0.0
H723 H 0.47312 0.76909 0.28392 0.0
H724 H 0.49496 0.69316 0.30676 0.0
C725 C 0.51347 0.73158 0.22609 0.0
C726 C 0.48561 0.46499 0.96855 0.0
C727 C 0.48673 0.44091 0.00401 0.0
H728 H 0.49696 0.52567 0.92757 0.0
C729 C 0.50061 0.46098 0.02568 0.0
H730 H 0.47496 0.4512 0.95137 0.0
C731 C 0.51301 0.50469 0.01236 0.0
C732 C 0.51186 0.529 0.97699 0.0
H733 H 0.50175 0.44398 0.05331 0.0
H734 H 0.52359 0.51879 0.02966 0.0
C735 C 0.49809 0.50838 0.95514 0.0
C736 C 0.06254 0.42315 0.34601 0.0
C737 C 0.06239 0.43361 0.38336 0.0
H738 H 0.06233 0.35189 0.30331 0.0
C739 C 0.06287 0.37878 0.40682 0.0
H740 H 0.06222 0.46464 0.32742 0.0
C741 C 0.06269 0.31433 0.39312 0.0
C742 C 0.06231 0.30385 0.35577 0.0
H743 H 0.06275 0.38557 0.43582 0.0
H744 H 0.06251 0.27284 0.41172 0.0
C745 C 0.06263 0.35869 0.3323 0.0
C746 C 0.19523 0.86539 0.40749 0.0
C747 C 0.19513 0.80897 0.38518 0.0
H748 H 0.19537 0.97152 0.41013 0.0
C749 C 0.19536 0.81665 0.34763 0.0
H750 H 0.19515 0.86066 0.4366 0.0
C751 C 0.19535 0.88 0.33256 0.0
C752 C 0.19531 0.93643 0.35487 0.0
H753 H 0.1953 0.77385 0.32993 0.0
H754 H 0.19537 0.88474 0.30345 0.0
C755 C 0.1954 0.92873 0.39242 0.0
C756 C 0.05272 0.92761 0.85276 0.0
C757 C 0.05279 0.93533 0.89032 0.0
H758 H 0.05296 0.8595 0.8086 0.0
C759 C 0.05271 0.87893 0.91263 0.0
H760 H 0.05278 0.97038 0.83504 0.0
C761 C 0.05269 0.81557 0.89758 0.0
C762 C 0.05293 0.80785 0.86003 0.0
H763 H 0.05268 0.8837 0.94175 0.0
H764 H 0.05271 0.77278 0.91529 0.0
C765 C 0.05288 0.86426 0.83771 0.0
C766 C 0.18558 0.42162 0.89896 0.0
C767 C 0.18576 0.43208 0.86161 0.0
H768 H 0.18576 0.35037 0.94166 0.0
C769 C 0.18531 0.37724 0.83814 0.0
H770 H 0.18586 0.46311 0.91755 0.0
C771 C 0.1855 0.31279 0.85184 0.0
C772 C 0.18585 0.30233 0.88919 0.0
H773 H 0.18547 0.38403 0.80915 0.0
H774 H 0.18572 0.2713 0.83324 0.0
C775 C 0.18548 0.35717 0.91267 0.0
C776 C 0.94438 0.67056 0.5961 0.0
C777 C 0.94426 0.67873 0.63362 0.0
H778 H 0.94439 0.60187 0.55219 0.0
C779 C 0.94427 0.62264 0.65616 0.0
H780 H 0.94437 0.71313 0.57823 0.0
C781 C 0.94445 0.55912 0.64135 0.0
C782 C 0.9444 0.55094 0.60383 0.0
H783 H 0.94426 0.62779 0.68525 0.0
H784 H 0.94447 0.51656 0.65923 0.0
C785 C 0.94435 0.60703 0.58129 0.0
C786 C 0.81065 0.11336 0.65696 0.0
C787 C 0.81027 0.05829 0.63367 0.0
H788 H 0.81027 0.21933 0.66148 0.0
C789 C 0.81028 0.06826 0.59628 0.0
H790 H 0.81061 0.10689 0.68597 0.0
C791 C 0.8103 0.1325 0.58235 0.0
C792 C 0.81005 0.18757 0.60564 0.0
H793 H 0.81002 0.02653 0.57784 0.0
H794 H 0.81 0.13897 0.55333 0.0
C795 C 0.81041 0.17761 0.64303 0.0
C796 C 0.93571 0.17888 0.10236 0.0
C797 C 0.93607 0.18919 0.13973 0.0
H798 H 0.93564 0.1078 0.05958 0.0
C799 C 0.93573 0.13427 0.16313 0.0
H800 H 0.93591 0.22044 0.08381 0.0
C801 C 0.9358 0.06988 0.14935 0.0
C802 C 0.93594 0.05956 0.11198 0.0
H803 H 0.93602 0.14095 0.19213 0.0
H804 H 0.93609 0.02831 0.16789 0.0
C805 C 0.93551 0.11449 0.08858 0.0
C806 C 0.80295 0.60927 0.16262 0.0
C807 C 0.80303 0.55295 0.14024 0.0
H808 H 0.80295 0.7154 0.16539 0.0
C809 C 0.80305 0.56079 0.1027 0.0
H810 H 0.80285 0.6044 0.19173 0.0
C811 C 0.80325 0.62418 0.08772 0.0
C812 C 0.80325 0.6805 0.1101 0.0
H813 H 0.80311 0.51806 0.08493 0.0
H814 H 0.80337 0.62903 0.05861 0.0
C815 C 0.80297 0.67267 0.14763 0.0
C816 C 0.56291 0.31401 0.89479 0.0
C817 C 0.56257 0.3035 0.85744 0.0
H818 H 0.56293 0.3853 0.93745 0.0
C819 C 0.56299 0.3583 0.83395 0.0
H820 H 0.56265 0.27254 0.9134 0.0
C821 C 0.56292 0.42276 0.84762 0.0
C822 C 0.56271 0.43327 0.88497 0.0
H823 H 0.56273 0.35146 0.80496 0.0
H824 H 0.56266 0.46423 0.82901 0.0
C825 C 0.56311 0.37847 0.90846 0.0
C826 C 0.695 0.86503 0.90851 0.0
C827 C 0.6949 0.80868 0.88615 0.0
H828 H 0.69519 0.97115 0.91126 0.0
C829 C 0.69509 0.81647 0.84861 0.0
H830 H 0.69494 0.86022 0.93762 0.0
C831 C 0.69511 0.87985 0.8336 0.0
C832 C 0.69511 0.93621 0.85596 0.0
H833 H 0.69503 0.77372 0.83086 0.0
H834 H 0.69512 0.88469 0.80449 0.0
C835 C 0.69519 0.9284 0.89351 0.0
C836 C 0.55291 0.81773 0.39713 0.0
C837 C 0.55311 0.80986 0.35959 0.0
H838 H 0.55291 0.88606 0.4412 0.0
C839 C 0.55309 0.86616 0.33719 0.0
H840 H 0.55292 0.77502 0.4149 0.0
C841 C 0.55294 0.92956 0.35215 0.0
C842 C 0.553 0.93744 0.38969 0.0
H843 H 0.55315 0.86126 0.30808 0.0
H844 H 0.55298 0.97226 0.33438 0.0
C845 C 0.55295 0.88115 0.41209 0.0
C846 C 0.6858 0.31332 0.3504 0.0
C847 C 0.68616 0.30293 0.38775 0.0
H848 H 0.6857 0.3845 0.30767 0.0
C849 C 0.68579 0.35779 0.41121 0.0
H850 H 0.68603 0.2718 0.33182 0.0
C851 C 0.68583 0.4222 0.39748 0.0
C852 C 0.68597 0.4326 0.36012 0.0
H853 H 0.68607 0.35103 0.4402 0.0
H854 H 0.68609 0.46373 0.41605 0.0
C855 C 0.68557 0.37774 0.33667 0.0
C856 C 0.44495 0.56163 0.14138 0.0
C857 C 0.44496 0.55379 0.10384 0.0
H858 H 0.44467 0.62988 0.18548 0.0
C859 C 0.44509 0.61011 0.08146 0.0
H860 H 0.44485 0.51891 0.15914 0.0
C861 C 0.44512 0.67351 0.09645 0.0
C862 C 0.44484 0.68134 0.13399 0.0
H863 H 0.44518 0.60524 0.05235 0.0
H864 H 0.44516 0.71624 0.0787 0.0
C865 C 0.4448 0.62502 0.15637 0.0
C866 C 0.312 0.07047 0.09547 0.0
C867 C 0.31185 0.06015 0.13283 0.0
H868 H 0.31179 0.14155 0.0527 0.0
C869 C 0.31228 0.11507 0.15624 0.0
H870 H 0.31172 0.02891 0.07692 0.0
C871 C 0.31209 0.17947 0.14247 0.0
C872 C 0.31174 0.18978 0.10511 0.0
H873 H 0.31215 0.10838 0.18524 0.0
H874 H 0.31189 0.22103 0.16102 0.0
C875 C 0.31208 0.13486 0.08169 0.0
C876 C 0.43798 0.1328 0.66322 0.0
C877 C 0.43823 0.18786 0.63993 0.0
H878 H 0.43807 0.02682 0.66772 0.0
C879 C 0.43765 0.17791 0.60255 0.0
H880 H 0.43844 0.13926 0.69223 0.0
C881 C 0.43719 0.11368 0.58863 0.0
C882 C 0.43758 0.05858 0.61189 0.0
H883 H 0.43777 0.21963 0.58411 0.0
H884 H 0.43708 0.10722 0.55961 0.0
C885 C 0.43779 0.06855 0.64929 0.0
C886 C 0.30418 0.60553 0.66335 0.0
C887 C 0.30384 0.54942 0.64082 0.0
H888 H 0.30443 0.71162 0.66639 0.0
C889 C 0.30354 0.55759 0.60331 0.0
H890 H 0.30435 0.60039 0.69244 0.0
C891 C 0.30375 0.62109 0.58848 0.0
C892 C 0.30405 0.6772 0.61101 0.0
H893 H 0.30329 0.51502 0.58544 0.0
H894 H 0.30356 0.62623 0.55939 0.0
C895 C 0.30419 0.66905 0.64853 0.0
C896 C 0.04182 0.8127 0.34756 0.0
C897 C 0.04226 0.80427 0.38522 0.0
H898 H 0.04221 0.88112 0.30329 0.0
C899 C 0.04187 0.86083 0.4074 0.0
H900 H 0.04207 0.7701 0.32972 0.0
C901 C 0.04194 0.92448 0.39222 0.0
C902 C 0.0424 0.93287 0.35456 0.0
H903 H 0.04218 0.85601 0.4365 0.0
H904 H 0.04228 0.96707 0.41005 0.0
C905 C 0.0419 0.87633 0.33239 0.0
C906 C 0.2001 0.37846 0.40782 0.0
C907 C 0.19983 0.43617 0.38658 0.0
H908 H 0.20009 0.27215 0.40869 0.0
C909 C 0.20002 0.42992 0.34878 0.0
H910 H 0.19997 0.38168 0.43699 0.0
C911 C 0.2 0.36722 0.33255 0.0
C912 C 0.19989 0.3095 0.35378 0.0
H913 H 0.19982 0.47351 0.33167 0.0
H914 H 0.1998 0.364 0.30338 0.0
C915 C 0.20018 0.31575 0.39158 0.0
C916 C 0.0478 0.37737 0.83732 0.0
C917 C 0.04804 0.43508 0.85856 0.0
H918 H 0.04788 0.27106 0.83645 0.0
C919 C 0.04786 0.42883 0.89636 0.0
H920 H 0.04791 0.38059 0.80815 0.0
C921 C 0.04793 0.36614 0.91259 0.0
C922 C 0.04808 0.30842 0.89136 0.0
H923 H 0.04805 0.47242 0.91347 0.0
H924 H 0.04815 0.36292 0.94176 0.0
C925 C 0.04777 0.31467 0.85356 0.0
C926 C 0.20621 0.8748 0.91267 0.0
C927 C 0.20573 0.93136 0.8905 0.0
H928 H 0.20599 0.76858 0.91532 0.0
C929 C 0.20619 0.92297 0.85284 0.0
H930 H 0.2059 0.8796 0.94177 0.0
C931 C 0.20622 0.85933 0.83765 0.0
C932 C 0.20581 0.80277 0.85982 0.0
H933 H 0.20586 0.96557 0.83501 0.0
H934 H 0.20591 0.85452 0.80855 0.0
C935 C 0.20626 0.81118 0.89748 0.0
C936 C 0.95273 0.17152 0.64015 0.0
C937 C 0.95224 0.17791 0.60237 0.0
H938 H 0.9526 0.10544 0.68549 0.0
C939 C 0.95233 0.12031 0.58105 0.0
H940 H 0.95269 0.21505 0.65733 0.0
C941 C 0.95239 0.05756 0.59722 0.0
C942 C 0.95224 0.05119 0.63501 0.0
H943 H 0.95199 0.12366 0.55189 0.0
H944 H 0.95207 0.01405 0.58005 0.0
C945 C 0.95267 0.10878 0.65632 0.0
C946 C 0.79205 0.56695 0.64202 0.0
C947 C 0.79254 0.55919 0.60432 0.0
H948 H 0.7923 0.63469 0.68664 0.0
C949 C 0.79208 0.61605 0.58241 0.0
H950 H 0.79236 0.52407 0.65965 0.0
C951 C 0.79197 0.6794 0.59789 0.0
C952 C 0.79239 0.68719 0.6356 0.0
H953 H 0.79239 0.6117 0.55329 0.0
H954 H 0.79223 0.72227 0.58025 0.0
C955 C 0.79201 0.63032 0.65751 0.0
C956 C 0.95592 0.5686 0.10345 0.0
C957 C 0.95539 0.56037 0.14112 0.0
H958 H 0.95573 0.63686 0.05908 0.0
C959 C 0.95583 0.61701 0.16322 0.0
H960 H 0.95563 0.52592 0.08567 0.0
C961 C 0.95592 0.68057 0.14796 0.0
C962 C 0.95555 0.68881 0.11029 0.0
H963 H 0.95548 0.61233 0.19233 0.0
H964 H 0.95563 0.72324 0.16574 0.0
C965 C 0.95598 0.63217 0.08819 0.0
C966 C 0.79745 0.12219 0.16264 0.0
C967 C 0.79757 0.17986 0.14138 0.0
H968 H 0.79761 0.01591 0.16356 0.0
C969 C 0.79721 0.17357 0.10358 0.0
H970 H 0.79769 0.12545 0.19181 0.0
C971 C 0.79726 0.11085 0.08737 0.0
C972 C 0.79755 0.05318 0.10863 0.0
H973 H 0.7973 0.21714 0.08645 0.0
H974 H 0.79736 0.10758 0.0582 0.0
C975 C 0.79739 0.05948 0.14643 0.0
C976 C 0.54208 0.86049 0.9089 0.0
C977 C 0.54251 0.80396 0.88671 0.0
H978 H 0.54242 0.96673 0.9116 0.0
C979 C 0.54208 0.81242 0.84905 0.0
H980 H 0.54238 0.85563 0.938 0.0
C981 C 0.54213 0.87607 0.8339 0.0
C982 C 0.54259 0.93259 0.85609 0.0
H983 H 0.54236 0.76985 0.8312 0.0
H984 H 0.54244 0.8809 0.8048 0.0
C985 C 0.54211 0.92415 0.89375 0.0
C986 C 0.70036 0.4297 0.84981 0.0
C987 C 0.7002 0.43599 0.88761 0.0
H988 H 0.7001 0.36373 0.80442 0.0
C989 C 0.70054 0.3783 0.90887 0.0
H990 H 0.70011 0.47326 0.83268 0.0
C991 C 0.70062 0.31559 0.89264 0.0
C992 C 0.70028 0.3093 0.85485 0.0
H993 H 0.70044 0.38156 0.93804 0.0
H994 H 0.70057 0.272 0.90977 0.0
C995 C 0.70034 0.36699 0.83359 0.0
C996 C 0.54694 0.37953 0.33691 0.0
C997 C 0.54726 0.4372 0.35817 0.0
H998 H 0.54699 0.27324 0.33599 0.0
C999 C 0.54713 0.43091 0.39597 0.0
H1000 H 0.54701 0.38279 0.30774 0.0
C1001 C 0.54722 0.3682 0.41218 0.0
C1002 C 0.54733 0.31052 0.39092 0.0
H1003 H 0.54737 0.47448 0.4131 0.0
H1004 H 0.5475 0.36494 0.44135 0.0
C1005 C 0.54692 0.31682 0.35312 0.0
C1006 C 0.70609 0.87527 0.41115 0.0
C1007 C 0.7056 0.93187 0.38903 0.0
H1008 H 0.70589 0.76906 0.41372 0.0
C1009 C 0.70602 0.92359 0.35136 0.0
H1010 H 0.70582 0.87999 0.44026 0.0
C1011 C 0.70603 0.86 0.33612 0.0
C1012 C 0.70565 0.8034 0.35825 0.0
H1013 H 0.70568 0.96624 0.33357 0.0
H1014 H 0.70569 0.85526 0.30702 0.0
C1015 C 0.70613 0.8117 0.39592 0.0
C1016 C 0.45078 0.17442 0.14049 0.0
C1017 C 0.4504 0.18069 0.10269 0.0
H1018 H 0.4507 0.10846 0.18588 0.0
C1019 C 0.45057 0.12301 0.08143 0.0
H1020 H 0.45066 0.218 0.15761 0.0
C1021 C 0.45069 0.06031 0.09765 0.0
C1022 C 0.45053 0.05402 0.13545 0.0
H1023 H 0.45032 0.12626 0.05227 0.0
H1024 H 0.45049 0.01673 0.08052 0.0
C1025 C 0.45079 0.11171 0.15671 0.0
C1026 C 0.29187 0.68108 0.09694 0.0
C1027 C 0.29233 0.68932 0.13462 0.0
H1028 H 0.29223 0.61287 0.05257 0.0
C1029 C 0.29195 0.63267 0.15671 0.0
H1030 H 0.29212 0.72376 0.07917 0.0
C1031 C 0.29199 0.5691 0.14144 0.0
C1032 C 0.29243 0.56089 0.10376 0.0
H1033 H 0.29227 0.63735 0.18582 0.0
H1034 H 0.29232 0.52642 0.15921 0.0
C1035 C 0.29194 0.61753 0.08167 0.0
C1036 C 0.4564 0.56792 0.60374 0.0
C1037 C 0.45555 0.56013 0.64142 0.0
H1038 H 0.45645 0.63567 0.55913 0.0
C1039 C 0.45564 0.617 0.66334 0.0
H1040 H 0.45638 0.52504 0.5861 0.0
C1041 C 0.45575 0.68035 0.64787 0.0
C1042 C 0.45571 0.68814 0.61015 0.0
H1043 H 0.45504 0.61263 0.69245 0.0
H1044 H 0.45521 0.72321 0.6655 0.0
C1045 C 0.45644 0.6313 0.58826 0.0
C1046 C 0.29548 0.10701 0.58875 0.0
C1047 C 0.29625 0.04945 0.61004 0.0
H1048 H 0.29503 0.21324 0.58774 0.0
C1049 C 0.29626 0.05582 0.64784 0.0
H1050 H 0.29542 0.10367 0.55958 0.0
C1051 C 0.29613 0.11857 0.66401 0.0
C1052 C 0.29588 0.17617 0.64269 0.0
H1053 H 0.29683 0.01233 0.66499 0.0
H1054 H 0.2966 0.12195 0.69316 0.0
C1055 C 0.29524 0.16973 0.60492 0.0
loop_
_geom_bond_atom_site_label_1
_geom_bond_atom_site_label_2
_geom_bond_distance
_geom_bond_site_symmetry_2
_ccdc_geom_bond_type
In0 O1 2.294 . S
In0 O2 2.326 . S
In0 O6 2.266 . S
In0 O7 2.326 . S
In0 O8 2.266 . S
In0 O9 2.326 . S
In0 O11 2.294 . S
In0 O12 2.326 . S
O1 In0 2.294 . S
O1 C10 1.240 . S
O2 In0 2.326 . S
O2 C10 1.252 . S
C3 O6 1.252 . S
C3 O7 1.260 . S
C4 O11 1.240 . S
C4 O12 1.252 . S
C5 O8 1.252 . S
C5 O9 1.260 . S
O6 In0 2.266 . S
O6 C3 1.252 . S
O7 In0 2.326 . S
O7 C3 1.260 . S
O8 In0 2.266 . S
O8 C5 1.252 . S
O9 In0 2.326 . S
O9 C5 1.260 . S
C10 O1 1.240 . S
C10 O2 1.252 . S
O11 In0 2.294 . S
O11 C4 1.240 . S
O12 In0 2.326 . S
O12 C4 1.252 . S
In13 O14 2.294 . S
In13 O15 2.326 . S
In13 O19 2.266 . S
In13 O20 2.326 . S
In13 O21 2.266 . S
In13 O22 2.326 . S
In13 O24 2.294 . S
In13 O25 2.326 1_545 S
O14 In13 2.294 . S
O14 C23 1.240 . S
O15 In13 2.326 . S
O15 C23 1.252 . S
C16 O19 1.252 . S
C16 O20 1.260 . S
C17 O24 1.240 1_565 S
C17 O25 1.252 . S
C18 O21 1.252 . S
C18 O22 1.260 . S
O19 In13 2.266 . S
O19 C16 1.252 . S
O20 In13 2.326 . S
O20 C16 1.260 . S
O21 In13 2.266 . S
O21 C18 1.252 . S
O22 In13 2.326 . S
O22 C18 1.260 . S
C23 O14 1.240 . S
C23 O15 1.252 . S
O24 In13 2.294 . S
O24 C17 1.240 1_545 S
O25 In13 2.326 1_565 S
O25 C17 1.252 . S
In26 O27 2.294 . S
In26 O28 2.326 1_545 S
In26 O32 2.266 . S
In26 O33 2.326 . S
In26 O34 2.266 . S
In26 O35 2.326 . S
In26 O37 2.294 . S
In26 O38 2.326 . S
O27 In26 2.294 . S
O27 C36 1.240 1_545 S
O28 In26 2.326 1_565 S
O28 C36 1.252 . S
C29 O32 1.252 . S
C29 O33 1.260 . S
C30 O37 1.240 . S
C30 O38 1.252 . S
C31 O34 1.252 . S
C31 O35 1.260 . S
O32 In26 2.266 . S
O32 C29 1.252 . S
O33 In26 2.326 . S
O33 C29 1.260 . S
O34 In26 2.266 . S
O34 C31 1.252 . S
O35 In26 2.326 . S
O35 C31 1.260 . S
C36 O27 1.240 1_565 S
C36 O28 1.252 . S
O37 In26 2.294 . S
O37 C30 1.240 . S
O38 In26 2.326 . S
O38 C30 1.252 . S
In39 O40 2.294 . S
In39 O41 2.326 . S
In39 O45 2.266 . S
In39 O46 2.326 . S
In39 O47 2.266 . S
In39 O48 2.326 . S
In39 O50 2.294 . S
In39 O51 2.326 . S
O40 In39 2.294 . S
O40 C49 1.240 . S
O41 In39 2.326 . S
O41 C49 1.252 . S
C42 O45 1.252 . S
C42 O46 1.260 . S
C43 O50 1.240 . S
C43 O51 1.252 . S
C44 O47 1.252 . S
C44 O48 1.260 . S
O45 In39 2.266 . S
O45 C42 1.252 . S
O46 In39 2.326 . S
O46 C42 1.260 . S
O47 In39 2.266 . S
O47 C44 1.252 . S
O48 In39 2.326 . S
O48 C44 1.260 . S
C49 O40 1.240 . S
C49 O41 1.252 . S
O50 In39 2.294 . S
O50 C43 1.240 . S
O51 In39 2.326 . S
O51 C43 1.252 . S
In52 O53 2.294 . S
In52 O54 2.326 . S
In52 O58 2.266 . S
In52 O59 2.326 . S
In52 O60 2.266 . S
In52 O61 2.326 . S
In52 O63 2.294 . S
In52 O64 2.326 . S
O53 In52 2.294 . S
O53 C62 1.240 . S
O54 In52 2.326 . S
O54 C62 1.252 . S
C55 O58 1.252 . S
C55 O59 1.260 . S
C56 O63 1.240 . S
C56 O64 1.252 . S
C57 O60 1.252 . S
C57 O61 1.260 . S
O58 In52 2.266 . S
O58 C55 1.252 . S
O59 In52 2.326 . S
O59 C55 1.260 . S
O60 In52 2.266 . S
O60 C57 1.252 . S
O61 In52 2.326 . S
O61 C57 1.260 . S
C62 O53 1.240 . S
C62 O54 1.252 . S
O63 In52 2.294 . S
O63 C56 1.240 . S
O64 In52 2.326 . S
O64 C56 1.252 . S
In65 O66 2.294 . S
In65 O67 2.326 . S
In65 O71 2.266 . S
In65 O72 2.326 . S
In65 O73 2.266 . S
In65 O74 2.326 . S
In65 O76 2.294 . S
In65 O77 2.326 1_565 S
O66 In65 2.294 . S
O66 C75 1.240 . S
O67 In65 2.326 . S
O67 C75 1.252 . S
C68 O71 1.252 . S
C68 O72 1.260 . S
C69 O76 1.240 1_545 S
C69 O77 1.252 . S
C70 O73 1.252 . S
C70 O74 1.260 . S
O71 In65 2.266 . S
O71 C68 1.252 . S
O72 In65 2.326 . S
O72 C68 1.260 . S
O73 In65 2.266 . S
O73 C70 1.252 . S
O74 In65 2.326 . S
O74 C70 1.260 . S
C75 O66 1.240 . S
C75 O67 1.252 . S
O76 In65 2.294 . S
O76 C69 1.240 1_565 S
O77 In65 2.326 1_545 S
O77 C69 1.252 . S
In78 O79 2.294 . S
In78 O80 2.326 1_565 S
In78 O84 2.266 . S
In78 O85 2.326 . S
In78 O86 2.266 . S
In78 O87 2.326 . S
In78 O89 2.294 . S
In78 O90 2.326 . S
O79 In78 2.294 . S
O79 C88 1.240 1_565 S
O80 In78 2.326 1_545 S
O80 C88 1.252 . S
C81 O84 1.252 . S
C81 O85 1.260 . S
C82 O89 1.240 . S
C82 O90 1.252 . S
C83 O86 1.252 . S
C83 O87 1.260 . S
O84 In78 2.266 . S
O84 C81 1.252 . S
O85 In78 2.326 . S
O85 C81 1.260 . S
O86 In78 2.266 . S
O86 C83 1.252 . S
O87 In78 2.326 . S
O87 C83 1.260 . S
C88 O79 1.240 1_545 S
C88 O80 1.252 . S
O89 In78 2.294 . S
O89 C82 1.240 . S
O90 In78 2.326 . S
O90 C82 1.252 . S
In91 O92 2.294 . S
In91 O93 2.326 . S
In91 O97 2.266 . S
In91 O98 2.326 . S
In91 O99 2.266 . S
In91 O100 2.326 . S
In91 O102 2.294 . S
In91 O103 2.326 . S
O92 In91 2.294 . S
O92 C101 1.240 . S
O93 In91 2.326 . S
O93 C101 1.252 . S
C94 O97 1.252 . S
C94 O98 1.260 . S
C95 O102 1.240 . S
C95 O103 1.252 . S
C96 O99 1.252 . S
C96 O100 1.260 . S
O97 In91 2.266 . S
O97 C94 1.252 . S
O98 In91 2.326 . S
O98 C94 1.260 . S
O99 In91 2.266 . S
O99 C96 1.252 . S
O100 In91 2.326 . S
O100 C96 1.260 . S
C101 O92 1.240 . S
C101 O93 1.252 . S
O102 In91 2.294 . S
O102 C95 1.240 . S
O103 In91 2.326 . S
O103 C95 1.252 . S
In104 O105 2.294 . S
In104 O106 2.326 . S
In104 O110 2.266 . S
In104 O111 2.326 . S
In104 O112 2.266 . S
In104 O113 2.326 . S
In104 O115 2.294 . S
In104 O116 2.326 . S
O105 In104 2.294 . S
O105 C114 1.240 . S
O106 In104 2.326 . S
O106 C114 1.252 . S
C107 O110 1.252 . S
C107 O111 1.260 . S
C108 O115 1.240 . S
C108 O116 1.252 . S
C109 O112 1.252 . S
C109 O113 1.260 . S
O110 In104 2.266 . S
O110 C107 1.252 . S
O111 In104 2.326 . S
O111 C107 1.260 . S
O112 In104 2.266 . S
O112 C109 1.252 . S
O113 In104 2.326 . S
O113 C109 1.260 . S
C114 O105 1.240 . S
C114 O106 1.252 . S
O115 In104 2.294 . S
O115 C108 1.240 . S
O116 In104 2.326 . S
O116 C108 1.252 . S
In117 O118 2.294 . S
In117 O119 2.326 . S
In117 O123 2.266 . S
In117 O124 2.326 . S
In117 O125 2.266 . S
In117 O126 2.326 . S
In117 O128 2.294 . S
In117 O129 2.326 . S
O118 In117 2.294 . S
O118 C127 1.240 . S
O119 In117 2.326 . S
O119 C127 1.252 . S
C120 O123 1.252 . S
C120 O124 1.260 . S
C121 O128 1.240 . S
C121 O129 1.252 . S
C122 O125 1.252 . S
C122 O126 1.260 . S
O123 In117 2.266 . S
O123 C120 1.252 . S
O124 In117 2.326 . S
O124 C120 1.260 . S
O125 In117 2.266 . S
O125 C122 1.252 . S
O126 In117 2.326 . S
O126 C122 1.260 . S
C127 O118 1.240 . S
C127 O119 1.252 . S
O128 In117 2.294 . S
O128 C121 1.240 . S
O129 In117 2.326 . S
O129 C121 1.252 . S
In130 O131 2.294 . S
In130 O132 2.326 . S
In130 O136 2.266 . S
In130 O137 2.326 . S
In130 O138 2.266 . S
In130 O139 2.326 . S
In130 O141 2.294 . S
In130 O142 2.326 . S
O131 In130 2.294 . S
O131 C140 1.240 . S
O132 In130 2.326 . S
O132 C140 1.252 . S
C133 O136 1.252 . S
C133 O137 1.260 . S
C134 O141 1.240 . S
C134 O142 1.252 . S
C135 O138 1.252 . S
C135 O139 1.260 . S
O136 In130 2.266 . S
O136 C133 1.252 . S
O137 In130 2.326 . S
O137 C133 1.260 . S
O138 In130 2.266 . S
O138 C135 1.252 . S
O139 In130 2.326 . S
O139 C135 1.260 . S
C140 O131 1.240 . S
C140 O132 1.252 . S
O141 In130 2.294 . S
O141 C134 1.240 . S
O142 In130 2.326 . S
O142 C134 1.252 . S
In143 O144 2.294 . S
In143 O145 2.326 . S
In143 O149 2.266 . S
In143 O150 2.326 . S
In143 O151 2.266 . S
In143 O152 2.326 . S
In143 O154 2.294 . S
In143 O155 2.326 . S
O144 In143 2.294 . S
O144 C153 1.240 . S
O145 In143 2.326 . S
O145 C153 1.252 . S
C146 O149 1.252 . S
C146 O150 1.260 . S
C147 O154 1.240 . S
C147 O155 1.252 . S
C148 O151 1.252 . S
C148 O152 1.260 . S
O149 In143 2.266 . S
O149 C146 1.252 . S
O150 In143 2.326 . S
O150 C146 1.260 . S
O151 In143 2.266 . S
O151 C148 1.252 . S
O152 In143 2.326 . S
O152 C148 1.260 . S
C153 O144 1.240 . S
C153 O145 1.252 . S
O154 In143 2.294 . S
O154 C147 1.240 . S
O155 In143 2.326 . S
O155 C147 1.252 . S
In156 O157 2.294 . S
In156 O158 2.326 . S
In156 O162 2.266 . S
In156 O163 2.326 . S
In156 O164 2.266 . S
In156 O165 2.326 . S
In156 O167 2.294 . S
In156 O168 2.326 . S
O157 In156 2.294 . S
O157 C166 1.240 . S
O158 In156 2.326 . S
O158 C166 1.252 . S
C159 O162 1.252 . S
C159 O163 1.260 . S
C160 O167 1.240 . S
C160 O168 1.252 . S
C161 O164 1.252 . S
C161 O165 1.260 . S
O162 In156 2.266 . S
O162 C159 1.252 . S
O163 In156 2.326 . S
O163 C159 1.260 . S
O164 In156 2.266 . S
O164 C161 1.252 . S
O165 In156 2.326 . S
O165 C161 1.260 . S
C166 O157 1.240 . S
C166 O158 1.252 . S
O167 In156 2.294 . S
O167 C160 1.240 . S
O168 In156 2.326 . S
O168 C160 1.252 . S
In169 O170 2.294 . S
In169 O171 2.326 . S
In169 O175 2.266 . S
In169 O176 2.326 . S
In169 O177 2.266 . S
In169 O178 2.326 . S
In169 O180 2.294 . S
In169 O181 2.326 . S
O170 In169 2.294 . S
O170 C179 1.240 . S
O171 In169 2.326 . S
O171 C179 1.252 . S
C172 O175 1.252 . S
C172 O176 1.260 . S
C173 O180 1.240 . S
C173 O181 1.252 . S
C174 O177 1.252 . S
C174 O178 1.260 . S
O175 In169 2.266 . S
O175 C172 1.252 . S
O176 In169 2.326 . S
O176 C172 1.260 . S
O177 In169 2.266 . S
O177 C174 1.252 . S
O178 In169 2.326 . S
O178 C174 1.260 . S
C179 O170 1.240 . S
C179 O171 1.252 . S
O180 In169 2.294 . S
O180 C173 1.240 . S
O181 In169 2.326 . S
O181 C173 1.252 . S
In182 O183 2.294 . S
In182 O184 2.326 . S
In182 O188 2.266 . S
In182 O189 2.326 . S
In182 O190 2.266 . S
In182 O191 2.326 . S
In182 O193 2.294 . S
In182 O194 2.326 . S
O183 In182 2.294 . S
O183 C192 1.240 . S
O184 In182 2.326 . S
O184 C192 1.252 . S
C185 O188 1.252 . S
C185 O189 1.260 . S
C186 O193 1.240 . S
C186 O194 1.252 . S
C187 O190 1.252 . S
C187 O191 1.260 . S
O188 In182 2.266 . S
O188 C185 1.252 . S
O189 In182 2.326 . S
O189 C185 1.260 . S
O190 In182 2.266 . S
O190 C187 1.252 . S
O191 In182 2.326 . S
O191 C187 1.260 . S
C192 O183 1.240 . S
C192 O184 1.252 . S
O193 In182 2.294 . S
O193 C186 1.240 . S
O194 In182 2.326 . S
O194 C186 1.252 . S
In195 O196 2.294 . S
In195 O197 2.326 . S
In195 O201 2.266 . S
In195 O202 2.326 . S
In195 O203 2.266 . S
In195 O204 2.326 . S
In195 O206 2.294 . S
In195 O207 2.326 . S
O196 In195 2.294 . S
O196 C205 1.240 . S
O197 In195 2.326 . S
O197 C205 1.252 . S
C198 O201 1.252 . S
C198 O202 1.260 . S
C199 O206 1.240 . S
C199 O207 1.252 . S
C200 O203 1.252 . S
C200 O204 1.260 . S
O201 In195 2.266 . S
O201 C198 1.252 . S
O202 In195 2.326 . S
O202 C198 1.260 . S
O203 In195 2.266 . S
O203 C200 1.252 . S
O204 In195 2.326 . S
O204 C200 1.260 . S
C205 O196 1.240 . S
C205 O197 1.252 . S
O206 In195 2.294 . S
O206 C199 1.240 . S
O207 In195 2.326 . S
O207 C199 1.252 . S
In208 O209 2.294 . S
In208 O210 2.326 . S
In208 O214 2.266 . S
In208 O215 2.326 . S
In208 O216 2.266 . S
In208 O217 2.326 . S
In208 O219 2.294 . S
In208 O220 2.326 . S
O209 In208 2.294 . S
O209 C218 1.240 . S
O210 In208 2.326 . S
O210 C218 1.252 . S
C211 O214 1.252 . S
C211 O215 1.260 . S
C212 O219 1.240 . S
C212 O220 1.252 . S
C213 O216 1.252 . S
C213 O217 1.260 . S
O214 In208 2.266 . S
O214 C211 1.252 . S
O215 In208 2.326 . S
O215 C211 1.260 . S
O216 In208 2.266 . S
O216 C213 1.252 . S
O217 In208 2.326 . S
O217 C213 1.260 . S
C218 O209 1.240 . S
C218 O210 1.252 . S
O219 In208 2.294 . S
O219 C212 1.240 . S
O220 In208 2.326 . S
O220 C212 1.252 . S
In221 O222 2.294 . S
In221 O223 2.326 1_545 S
In221 O227 2.266 . S
In221 O228 2.326 . S
In221 O229 2.266 . S
In221 O230 2.326 . S
In221 O232 2.294 . S
In221 O233 2.326 . S
O222 In221 2.294 . S
O222 C231 1.240 1_545 S
O223 In221 2.326 1_565 S
O223 C231 1.252 . S
C224 O227 1.252 . S
C224 O228 1.260 . S
C225 O232 1.240 . S
C225 O233 1.252 . S
C226 O229 1.252 . S
C226 O230 1.260 . S
O227 In221 2.266 . S
O227 C224 1.252 . S
O228 In221 2.326 . S
O228 C224 1.260 . S
O229 In221 2.266 . S
O229 C226 1.252 . S
O230 In221 2.326 . S
O230 C226 1.260 . S
C231 O222 1.240 1_565 S
C231 O223 1.252 . S
O232 In221 2.294 . S
O232 C225 1.240 . S
O233 In221 2.326 . S
O233 C225 1.252 . S
In234 O235 2.294 . S
In234 O236 2.326 1_545 S
In234 O240 2.266 . S
In234 O241 2.326 . S
In234 O242 2.266 . S
In234 O243 2.326 . S
In234 O245 2.294 . S
In234 O246 2.326 . S
O235 In234 2.294 . S
O235 C244 1.240 1_545 S
O236 In234 2.326 1_565 S
O236 C244 1.252 . S
C237 O240 1.252 . S
C237 O241 1.260 . S
C238 O245 1.240 . S
C238 O246 1.252 . S
C239 O242 1.252 . S
C239 O243 1.260 . S
O240 In234 2.266 . S
O240 C237 1.252 . S
O241 In234 2.326 . S
O241 C237 1.260 . S
O242 In234 2.266 . S
O242 C239 1.252 . S
O243 In234 2.326 . S
O243 C239 1.260 . S
C244 O235 1.240 1_565 S
C244 O236 1.252 . S
O245 In234 2.294 . S
O245 C238 1.240 . S
O246 In234 2.326 . S
O246 C238 1.252 . S
In247 O248 2.294 . S
In247 O249 2.326 . S
In247 O253 2.266 . S
In247 O254 2.326 . S
In247 O255 2.266 . S
In247 O256 2.326 . S
In247 O258 2.294 . S
In247 O259 2.326 . S
O248 In247 2.294 . S
O248 C257 1.240 . S
O249 In247 2.326 . S
O249 C257 1.252 . S
C250 O253 1.252 . S
C250 O254 1.260 . S
C251 O258 1.240 . S
C251 O259 1.252 . S
C252 O255 1.252 . S
C252 O256 1.260 . S
O253 In247 2.266 . S
O253 C250 1.252 . S
O254 In247 2.326 . S
O254 C250 1.260 . S
O255 In247 2.266 . S
O255 C252 1.252 . S
O256 In247 2.326 . S
O256 C252 1.260 . S
C257 O248 1.240 . S
C257 O249 1.252 . S
O258 In247 2.294 . S
O258 C251 1.240 . S
O259 In247 2.326 . S
O259 C251 1.252 . S
In260 O261 2.294 . S
In260 O262 2.326 . S
In260 O266 2.266 . S
In260 O267 2.326 . S
In260 O268 2.266 . S
In260 O269 2.326 . S
In260 O271 2.294 . S
In260 O272 2.326 . S
O261 In260 2.294 . S
O261 C270 1.240 . S
O262 In260 2.326 . S
O262 C270 1.252 . S
C263 O266 1.252 . S
C263 O267 1.260 . S
C264 O271 1.240 . S
C264 O272 1.252 . S
C265 O268 1.252 . S
C265 O269 1.260 . S
O266 In260 2.266 . S
O266 C263 1.252 . S
O267 In260 2.326 . S
O267 C263 1.260 . S
O268 In260 2.266 . S
O268 C265 1.252 . S
O269 In260 2.326 . S
O269 C265 1.260 . S
C270 O261 1.240 . S
C270 O262 1.252 . S
O271 In260 2.294 . S
O271 C264 1.240 . S
O272 In260 2.326 . S
O272 C264 1.252 . S
In273 O274 2.294 . S
In273 O275 2.326 . S
In273 O279 2.266 . S
In273 O280 2.326 . S
In273 O281 2.266 . S
In273 O282 2.326 . S
In273 O284 2.294 . S
In273 O285 2.326 1_565 S
O274 In273 2.294 . S
O274 C283 1.240 . S
O275 In273 2.326 . S
O275 C283 1.252 . S
C276 O279 1.252 . S
C276 O280 1.260 . S
C277 O284 1.240 1_545 S
C277 O285 1.252 . S
C278 O281 1.252 . S
C278 O282 1.260 . S
O279 In273 2.266 . S
O279 C276 1.252 . S
O280 In273 2.326 . S
O280 C276 1.260 . S
O281 In273 2.266 . S
O281 C278 1.252 . S
O282 In273 2.326 . S
O282 C278 1.260 . S
C283 O274 1.240 . S
C283 O275 1.252 . S
O284 In273 2.294 . S
O284 C277 1.240 1_565 S
O285 In273 2.326 1_545 S
O285 C277 1.252 . S
In286 O287 2.294 . S
In286 O288 2.326 . S
In286 O292 2.266 . S
In286 O293 2.326 . S
In286 O294 2.266 . S
In286 O295 2.326 . S
In286 O297 2.294 . S
In286 O298 2.326 1_565 S
O287 In286 2.294 . S
O287 C296 1.240 . S
O288 In286 2.326 . S
O288 C296 1.252 . S
C289 O292 1.252 . S
C289 O293 1.260 . S
C290 O297 1.240 1_545 S
C290 O298 1.252 . S
C291 O294 1.252 . S
C291 O295 1.260 . S
O292 In286 2.266 . S
O292 C289 1.252 . S
O293 In286 2.326 . S
O293 C289 1.260 . S
O294 In286 2.266 . S
O294 C291 1.252 . S
O295 In286 2.326 . S
O295 C291 1.260 . S
C296 O287 1.240 . S
C296 O288 1.252 . S
O297 In286 2.294 . S
O297 C290 1.240 1_565 S
O298 In286 2.326 1_545 S
O298 C290 1.252 . S
In299 O300 2.294 . S
In299 O301 2.326 . S
In299 O305 2.266 . S
In299 O306 2.326 . S
In299 O307 2.266 . S
In299 O308 2.326 . S
In299 O310 2.294 . S
In299 O311 2.326 . S
O300 In299 2.294 . S
O300 C309 1.240 . S
O301 In299 2.326 . S
O301 C309 1.252 . S
C302 O305 1.252 . S
C302 O306 1.260 . S
C303 O310 1.240 . S
C303 O311 1.252 . S
C304 O307 1.252 . S
C304 O308 1.260 . S
O305 In299 2.266 . S
O305 C302 1.252 . S
O306 In299 2.326 . S
O306 C302 1.260 . S
O307 In299 2.266 . S
O307 C304 1.252 . S
O308 In299 2.326 . S
O308 C304 1.260 . S
C309 O300 1.240 . S
C309 O301 1.252 . S
O310 In299 2.294 . S
O310 C303 1.240 . S
O311 In299 2.326 . S
O311 C303 1.252 . S
In312 O313 2.294 . S
In312 O314 2.326 . S
In312 O318 2.266 . S
In312 O319 2.326 . S
In312 O320 2.266 . S
In312 O321 2.326 . S
In312 O323 2.294 . S
In312 O324 2.326 . S
O313 In312 2.294 . S
O313 C322 1.240 . S
O314 In312 2.326 . S
O314 C322 1.252 . S
C315 O318 1.252 . S
C315 O319 1.260 . S
C316 O323 1.240 . S
C316 O324 1.252 . S
C317 O320 1.252 . S
C317 O321 1.260 . S
O318 In312 2.266 . S
O318 C315 1.252 . S
O319 In312 2.326 . S
O319 C315 1.260 . S
O320 In312 2.266 . S
O320 C317 1.252 . S
O321 In312 2.326 . S
O321 C317 1.260 . S
C322 O313 1.240 . S
C322 O314 1.252 . S
O323 In312 2.294 . S
O323 C316 1.240 . S
O324 In312 2.326 . S
O324 C316 1.252 . S
In325 O326 2.294 . S
In325 O327 2.326 . S
In325 O331 2.266 . S
In325 O332 2.326 . S
In325 O333 2.266 . S
In325 O334 2.326 . S
In325 O336 2.294 . S
In325 O337 2.326 . S
O326 In325 2.294 . S
O326 C335 1.240 . S
O327 In325 2.326 . S
O327 C335 1.252 . S
C328 O331 1.252 . S
C328 O332 1.260 . S
C329 O336 1.240 . S
C329 O337 1.252 . S
C330 O333 1.252 . S
C330 O334 1.260 . S
O331 In325 2.266 . S
O331 C328 1.252 . S
O332 In325 2.326 . S
O332 C328 1.260 . S
O333 In325 2.266 . S
O333 C330 1.252 . S
O334 In325 2.326 . S
O334 C330 1.260 . S
C335 O326 1.240 . S
C335 O327 1.252 . S
O336 In325 2.294 . S
O336 C329 1.240 . S
O337 In325 2.326 . S
O337 C329 1.252 . S
In338 O339 2.294 . S
In338 O340 2.326 . S
In338 O344 2.266 . S
In338 O345 2.326 . S
In338 O346 2.266 . S
In338 O347 2.326 . S
In338 O349 2.294 . S
In338 O350 2.326 . S
O339 In338 2.294 . S
O339 C348 1.240 . S
O340 In338 2.326 . S
O340 C348 1.252 . S
C341 O344 1.252 . S
C341 O345 1.260 . S
C342 O349 1.240 . S
C342 O350 1.252 . S
C343 O346 1.252 . S
C343 O347 1.260 . S
O344 In338 2.266 . S
O344 C341 1.252 . S
O345 In338 2.326 . S
O345 C341 1.260 . S
O346 In338 2.266 . S
O346 C343 1.252 . S
O347 In338 2.326 . S
O347 C343 1.260 . S
C348 O339 1.240 . S
C348 O340 1.252 . S
O349 In338 2.294 . S
O349 C342 1.240 . S
O350 In338 2.326 . S
O350 C342 1.252 . S
In351 O352 2.294 . S
In351 O353 2.326 . S
In351 O357 2.266 . S
In351 O358 2.326 . S
In351 O359 2.266 . S
In351 O360 2.326 . S
In351 O362 2.294 . S
In351 O363 2.326 . S
O352 In351 2.294 . S
O352 C361 1.240 . S
O353 In351 2.326 . S
O353 C361 1.252 . S
C354 O357 1.252 . S
C354 O358 1.260 . S
C355 O362 1.240 . S
C355 O363 1.252 . S
C356 O359 1.252 . S
C356 O360 1.260 . S
O357 In351 2.266 . S
O357 C354 1.252 . S
O358 In351 2.326 . S
O358 C354 1.260 . S
O359 In351 2.266 . S
O359 C356 1.252 . S
O360 In351 2.326 . S
O360 C356 1.260 . S
C361 O352 1.240 . S
C361 O353 1.252 . S
O362 In351 2.294 . S
O362 C355 1.240 . S
O363 In351 2.326 . S
O363 C355 1.252 . S
In364 O365 2.294 . S
In364 O366 2.326 . S
In364 O370 2.266 . S
In364 O371 2.326 . S
In364 O372 2.266 . S
In364 O373 2.326 . S
In364 O375 2.294 . S
In364 O376 2.326 . S
O365 In364 2.294 . S
O365 C374 1.240 . S
O366 In364 2.326 . S
O366 C374 1.252 . S
C367 O370 1.252 . S
C367 O371 1.260 . S
C368 O375 1.240 . S
C368 O376 1.252 . S
C369 O372 1.252 . S
C369 O373 1.260 . S
O370 In364 2.266 . S
O370 C367 1.252 . S
O371 In364 2.326 . S
O371 C367 1.260 . S
O372 In364 2.266 . S
O372 C369 1.252 . S
O373 In364 2.326 . S
O373 C369 1.260 . S
C374 O365 1.240 . S
C374 O366 1.252 . S
O375 In364 2.294 . S
O375 C368 1.240 . S
O376 In364 2.326 . S
O376 C368 1.252 . S
In377 O378 2.294 . S
In377 O379 2.326 . S
In377 O383 2.266 . S
In377 O384 2.326 . S
In377 O385 2.266 . S
In377 O386 2.326 . S
In377 O388 2.294 . S
In377 O389 2.326 . S
O378 In377 2.294 . S
O378 C387 1.240 . S
O379 In377 2.326 . S
O379 C387 1.252 . S
C380 O383 1.252 . S
C380 O384 1.260 . S
C381 O388 1.240 . S
C381 O389 1.252 . S
C382 O385 1.252 . S
C382 O386 1.260 . S
O383 In377 2.266 . S
O383 C380 1.252 . S
O384 In377 2.326 . S
O384 C380 1.260 . S
O385 In377 2.266 . S
O385 C382 1.252 . S
O386 In377 2.326 . S
O386 C382 1.260 . S
C387 O378 1.240 . S
C387 O379 1.252 . S
O388 In377 2.294 . S
O388 C381 1.240 . S
O389 In377 2.326 . S
O389 C381 1.252 . S
In390 O391 2.294 . S
In390 O392 2.326 . S
In390 O396 2.266 . S
In390 O397 2.326 . S
In390 O398 2.266 . S
In390 O399 2.326 . S
In390 O401 2.294 . S
In390 O402 2.326 . S
O391 In390 2.294 . S
O391 C400 1.240 . S
O392 In390 2.326 . S
O392 C400 1.252 . S
C393 O396 1.252 . S
C393 O397 1.260 . S
C394 O401 1.240 . S
C394 O402 1.252 . S
C395 O398 1.252 . S
C395 O399 1.260 . S
O396 In390 2.266 . S
O396 C393 1.252 . S
O397 In390 2.326 . S
O397 C393 1.260 . S
O398 In390 2.266 . S
O398 C395 1.252 . S
O399 In390 2.326 . S
O399 C395 1.260 . S
C400 O391 1.240 . S
C400 O392 1.252 . S
O401 In390 2.294 . S
O401 C394 1.240 . S
O402 In390 2.326 . S
O402 C394 1.252 . S
In403 O404 2.294 . S
In403 O405 2.326 . S
In403 O409 2.266 . S
In403 O410 2.326 . S
In403 O411 2.266 . S
In403 O412 2.326 . S
In403 O414 2.294 . S
In403 O415 2.326 . S
O404 In403 2.294 . S
O404 C413 1.240 . S
O405 In403 2.326 . S
O405 C413 1.252 . S
C406 O409 1.252 . S
C406 O410 1.260 . S
C407 O414 1.240 . S
C407 O415 1.252 . S
C408 O411 1.252 . S
C408 O412 1.260 . S
O409 In403 2.266 . S
O409 C406 1.252 . S
O410 In403 2.326 . S
O410 C406 1.260 . S
O411 In403 2.266 . S
O411 C408 1.252 . S
O412 In403 2.326 . S
O412 C408 1.260 . S
C413 O404 1.240 . S
C413 O405 1.252 . S
O414 In403 2.294 . S
O414 C407 1.240 . S
O415 In403 2.326 . S
O415 C407 1.252 . S
C416 C417 1.387 . S
C416 H420 0.950 . S
C416 C425 1.390 . S
C417 C416 1.387 . S
C417 C419 1.387 . S
H418 C425 0.950 . S
C419 C417 1.387 . S
C419 C421 1.390 . S
C419 H423 0.950 . S
H420 C416 0.950 . S
C421 C419 1.390 . S
C421 C422 1.387 . S
C421 H424 0.950 . S
C422 C421 1.387 . S
C422 C425 1.387 . S
H423 C419 0.950 . S
H424 C421 0.950 . S
C425 C416 1.390 . S
C425 H418 0.950 . S
C425 C422 1.387 . S
C426 C427 1.387 . S
C426 H430 0.950 . S
C426 C435 1.390 . S
C427 C426 1.387 . S
C427 C429 1.387 . S
H428 C435 0.950 . S
C429 C427 1.387 . S
C429 C431 1.390 . S
C429 H433 0.950 . S
H430 C426 0.950 . S
C431 C429 1.390 . S
C431 C432 1.387 . S
C431 H434 0.950 . S
C432 C431 1.387 . S
C432 C435 1.387 . S
H433 C429 0.950 . S
H434 C431 0.950 . S
C435 C426 1.390 . S
C435 H428 0.950 . S
C435 C432 1.387 . S
C436 C437 1.387 . S
C436 H440 0.950 . S
C436 C445 1.390 . S
C437 C436 1.387 . S
C437 C439 1.387 . S
H438 C445 0.950 . S
C439 C437 1.387 . S
C439 C441 1.390 . S
C439 H443 0.950 . S
H440 C436 0.950 . S
C441 C439 1.390 . S
C441 C442 1.387 . S
C441 H444 0.950 . S
C442 C441 1.387 . S
C442 C445 1.387 . S
H443 C439 0.950 . S
H444 C441 0.950 . S
C445 C436 1.390 . S
C445 H438 0.950 . S
C445 C442 1.387 . S
C446 C447 1.387 . S
C446 H450 0.950 . S
C446 C455 1.390 . S
C447 C446 1.387 . S
C447 C449 1.387 . S
H448 C455 0.950 . S
C449 C447 1.387 . S
C449 C451 1.390 . S
C449 H453 0.950 . S
H450 C446 0.950 . S
C451 C449 1.390 . S
C451 C452 1.387 . S
C451 H454 0.950 . S
C452 C451 1.387 . S
C452 C455 1.387 . S
H453 C449 0.950 . S
H454 C451 0.950 . S
C455 C446 1.390 . S
C455 H448 0.950 . S
C455 C452 1.387 . S
C456 C457 1.387 . S
C456 H460 0.950 . S
C456 C465 1.390 . S
C457 C456 1.387 . S
C457 C459 1.387 . S
H458 C465 0.950 . S
C459 C457 1.387 . S
C459 C461 1.390 . S
C459 H463 0.950 . S
H460 C456 0.950 . S
C461 C459 1.390 . S
C461 C462 1.387 . S
C461 H464 0.950 . S
C462 C461 1.387 . S
C462 C465 1.387 . S
H463 C459 0.950 . S
H464 C461 0.950 . S
C465 C456 1.390 . S
C465 H458 0.950 . S
C465 C462 1.387 . S
C466 C467 1.387 . S
C466 H470 0.950 . S
C466 C475 1.390 . S
C467 C466 1.387 . S
C467 C469 1.387 . S
H468 C475 0.950 . S
C469 C467 1.387 . S
C469 C471 1.390 . S
C469 H473 0.950 . S
H470 C466 0.950 . S
C471 C469 1.390 . S
C471 C472 1.387 . S
C471 H474 0.950 . S
C472 C471 1.387 . S
C472 C475 1.387 . S
H473 C469 0.950 . S
H474 C471 0.950 . S
C475 C466 1.390 . S
C475 H468 0.950 . S
C475 C472 1.387 . S
C476 C477 1.387 . S
C476 H480 0.950 . S
C476 C485 1.390 . S
C477 C476 1.387 . S
C477 C479 1.387 . S
H478 C485 0.950 . S
C479 C477 1.387 . S
C479 C481 1.390 . S
C479 H483 0.950 . S
H480 C476 0.950 . S
C481 C479 1.390 . S
C481 C482 1.387 . S
C481 H484 0.950 . S
C482 C481 1.387 . S
C482 C485 1.387 . S
H483 C479 0.950 . S
H484 C481 0.950 . S
C485 C476 1.390 . S
C485 H478 0.950 . S
C485 C482 1.387 . S
C486 C487 1.387 . S
C486 H490 0.950 . S
C486 C495 1.390 . S
C487 C486 1.387 . S
C487 C489 1.387 . S
H488 C495 0.950 . S
C489 C487 1.387 . S
C489 C491 1.390 . S
C489 H493 0.950 . S
H490 C486 0.950 . S
C491 C489 1.390 . S
C491 C492 1.387 . S
C491 H494 0.950 . S
C492 C491 1.387 . S
C492 C495 1.387 . S
H493 C489 0.950 . S
H494 C491 0.950 . S
C495 C486 1.390 . S
C495 H488 0.950 . S
C495 C492 1.387 . S
C496 C497 1.387 . S
C496 H500 0.950 . S
C496 C505 1.390 . S
C497 C496 1.387 . S
C497 C499 1.387 . S
H498 C505 0.950 . S
C499 C497 1.387 . S
C499 C501 1.390 . S
C499 H503 0.950 . S
H500 C496 0.950 . S
C501 C499 1.390 . S
C501 C502 1.387 . S
C501 H504 0.950 . S
C502 C501 1.387 . S
C502 C505 1.387 . S
H503 C499 0.950 . S
H504 C501 0.950 . S
C505 C496 1.390 . S
C505 H498 0.950 . S
C505 C502 1.387 . S
C506 C507 1.387 . S
C506 H510 0.950 . S
C506 C515 1.390 . S
C507 C506 1.387 . S
C507 C509 1.387 . S
H508 C515 0.950 . S
C509 C507 1.387 . S
C509 C511 1.390 . S
C509 H513 0.950 . S
H510 C506 0.950 . S
C511 C509 1.390 . S
C511 C512 1.387 . S
C511 H514 0.950 . S
C512 C511 1.387 . S
C512 C515 1.387 . S
H513 C509 0.950 . S
H514 C511 0.950 . S
C515 C506 1.390 . S
C515 H508 0.950 . S
C515 C512 1.387 . S
C516 C517 1.387 . S
C516 H520 0.950 . S
C516 C525 1.390 . S
C517 C516 1.387 . S
C517 C519 1.387 . S
H518 C525 0.950 . S
C519 C517 1.387 . S
C519 C521 1.390 . S
C519 H523 0.950 . S
H520 C516 0.950 . S
C521 C519 1.390 . S
C521 C522 1.387 . S
C521 H524 0.950 . S
C522 C521 1.387 . S
C522 C525 1.387 . S
H523 C519 0.950 . S
H524 C521 0.950 . S
C525 C516 1.390 . S
C525 H518 0.950 . S
C525 C522 1.387 . S
C526 C527 1.387 . S
C526 H530 0.950 . S
C526 C535 1.390 . S
C527 C526 1.387 . S
C527 C529 1.387 . S
H528 C535 0.950 . S
C529 C527 1.387 . S
C529 C531 1.390 . S
C529 H533 0.950 . S
H530 C526 0.950 . S
C531 C529 1.390 . S
C531 C532 1.387 . S
C531 H534 0.950 . S
C532 C531 1.387 . S
C532 C535 1.387 . S
H533 C529 0.950 . S
H534 C531 0.950 . S
C535 C526 1.390 . S
C535 H528 0.950 . S
C535 C532 1.387 . S
C536 C537 1.387 . S
C536 H540 0.950 . S
C536 C545 1.390 . S
C537 C536 1.387 . S
C537 C539 1.387 . S
H538 C545 0.950 . S
C539 C537 1.387 . S
C539 C541 1.390 . S
C539 H543 0.950 . S
H540 C536 0.950 . S
C541 C539 1.390 . S
C541 C542 1.387 . S
C541 H544 0.950 . S
C542 C541 1.387 . S
C542 C545 1.387 . S
H543 C539 0.950 . S
H544 C541 0.950 . S
C545 C536 1.390 . S
C545 H538 0.950 . S
C545 C542 1.387 . S
C546 C547 1.387 . S
C546 H550 0.950 . S
C546 C555 1.390 . S
C547 C546 1.387 . S
C547 C549 1.387 . S
H548 C555 0.950 . S
C549 C547 1.387 . S
C549 C551 1.390 . S
C549 H553 0.950 . S
H550 C546 0.950 . S
C551 C549 1.390 . S
C551 C552 1.387 . S
C551 H554 0.950 . S
C552 C551 1.387 . S
C552 C555 1.387 . S
H553 C549 0.950 . S
H554 C551 0.950 . S
C555 C546 1.390 . S
C555 H548 0.950 . S
C555 C552 1.387 . S
C556 C557 1.387 . S
C556 H560 0.950 . S
C556 C565 1.390 . S
C557 C556 1.387 . S
C557 C559 1.387 . S
H558 C565 0.950 . S
C559 C557 1.387 . S
C559 C561 1.390 . S
C559 H563 0.950 . S
H560 C556 0.950 . S
C561 C559 1.390 . S
C561 C562 1.387 . S
C561 H564 0.950 . S
C562 C561 1.387 . S
C562 C565 1.387 . S
H563 C559 0.950 . S
H564 C561 0.950 . S
C565 C556 1.390 . S
C565 H558 0.950 . S
C565 C562 1.387 . S
C566 C567 1.387 . S
C566 H570 0.950 . S
C566 C575 1.390 . S
C567 C566 1.387 . S
C567 C569 1.387 . S
H568 C575 0.950 . S
C569 C567 1.387 . S
C569 C571 1.390 . S
C569 H573 0.950 . S
H570 C566 0.950 . S
C571 C569 1.390 . S
C571 C572 1.387 . S
C571 H574 0.950 . S
C572 C571 1.387 . S
C572 C575 1.387 . S
H573 C569 0.950 . S
H574 C571 0.950 . S
C575 C566 1.390 . S
C575 H568 0.950 . S
C575 C572 1.387 . S
C576 C577 1.387 . S
C576 H580 0.950 . S
C576 C585 1.390 1_455 S
C577 C576 1.387 . S
C577 C579 1.387 . S
H578 C585 0.950 . S
C579 C577 1.387 . S
C579 C581 1.390 1_455 S
C579 H583 0.950 . S
H580 C576 0.950 . S
C581 C579 1.390 1_655 S
C581 C582 1.387 . S
C581 H584 0.950 . S
C582 C581 1.387 . S
C582 C585 1.387 . S
H583 C579 0.950 . S
H584 C581 0.950 . S
C585 C576 1.390 1_655 S
C585 H578 0.950 . S
C585 C582 1.387 . S
C586 C587 1.387 . S
C586 H590 0.950 . S
C586 C595 1.390 1_545 S
C587 C586 1.387 . S
C587 C589 1.387 . S
H588 C595 0.950 . S
C589 C587 1.387 . S
C589 C591 1.390 1_545 S
C589 H593 0.950 . S
H590 C586 0.950 . S
C591 C589 1.390 1_565 S
C591 C592 1.387 . S
C591 H594 0.950 . S
C592 C591 1.387 . S
C592 C595 1.387 . S
H593 C589 0.950 . S
H594 C591 0.950 . S
C595 C586 1.390 1_565 S
C595 H588 0.950 . S
C595 C592 1.387 . S
C596 C597 1.387 1_554 S
C596 H600 0.950 . S
C596 C605 1.390 1_445 S
C597 C596 1.387 1_556 S
C597 C599 1.387 . S
H598 C605 0.950 . S
C599 C597 1.387 . S
C599 C601 1.390 1_445 S
C599 H603 0.950 . S
H600 C596 0.950 . S
C601 C599 1.390 1_665 S
C601 C602 1.387 1_556 S
C601 H604 0.950 . S
C602 C601 1.387 1_554 S
C602 C605 1.387 . S
H603 C599 0.950 . S
H604 C601 0.950 . S
C605 C596 1.390 1_665 S
C605 H598 0.950 . S
C605 C602 1.387 . S
C606 C607 1.387 1_554 S
C606 H610 0.950 . S
C606 C615 1.390 . S
C607 C606 1.387 1_556 S
C607 C609 1.387 . S
H608 C615 0.950 . S
C609 C607 1.387 . S
C609 C611 1.390 . S
C609 H613 0.950 . S
H610 C606 0.950 . S
C611 C609 1.390 . S
C611 C612 1.387 1_556 S
C611 H614 0.950 . S
C612 C611 1.387 1_554 S
C612 C615 1.387 . S
H613 C609 0.950 . S
H614 C611 0.950 . S
C615 C606 1.390 . S
C615 H608 0.950 . S
C615 C612 1.387 . S
C616 C617 1.387 . S
C616 H620 0.950 . S
C616 C625 1.390 1_655 S
C617 C616 1.387 . S
C617 C619 1.387 . S
H618 C625 0.950 . S
C619 C617 1.387 . S
C619 C621 1.390 1_655 S
C619 H623 0.950 . S
H620 C616 0.950 . S
C621 C619 1.390 1_455 S
C621 C622 1.387 . S
C621 H624 0.950 . S
C622 C621 1.387 . S
C622 C625 1.387 . S
H623 C619 0.950 . S
H624 C621 0.950 . S
C625 C616 1.390 1_455 S
C625 H618 0.950 . S
C625 C622 1.387 . S
C626 C627 1.387 . S
C626 H630 0.950 . S
C626 C635 1.390 1_545 S
C627 C626 1.387 . S
C627 C629 1.387 . S
H628 C635 0.950 . S
C629 C627 1.387 . S
C629 C631 1.390 1_545 S
C629 H633 0.950 . S
H630 C626 0.950 . S
C631 C629 1.390 1_565 S
C631 C632 1.387 . S
C631 H634 0.950 . S
C632 C631 1.387 . S
C632 C635 1.387 . S
H633 C629 0.950 . S
H634 C631 0.950 . S
C635 C626 1.390 1_565 S
C635 H628 0.950 . S
C635 C632 1.387 . S
C636 C637 1.387 1_554 S
C636 H640 0.950 . S
C636 C645 1.390 . S
C637 C636 1.387 1_556 S
C637 C639 1.387 . S
H638 C645 0.950 . S
C639 C637 1.387 . S
C639 C641 1.390 . S
C639 H643 0.950 . S
H640 C636 0.950 . S
C641 C639 1.390 . S
C641 C642 1.387 1_556 S
C641 H644 0.950 . S
C642 C641 1.387 1_554 S
C642 C645 1.387 . S
H643 C639 0.950 . S
H644 C641 0.950 . S
C645 C636 1.390 . S
C645 H638 0.950 . S
C645 C642 1.387 . S
C646 C647 1.387 . S
C646 H650 0.950 . S
C646 C655 1.390 . S
C647 C646 1.387 . S
C647 C649 1.387 . S
H648 C655 0.950 . S
C649 C647 1.387 . S
C649 C651 1.390 . S
C649 H653 0.950 . S
H650 C646 0.950 . S
C651 C649 1.390 . S
C651 C652 1.387 . S
C651 H654 0.950 . S
C652 C651 1.387 . S
C652 C655 1.387 . S
H653 C649 0.950 . S
H654 C651 0.950 . S
C655 C646 1.390 . S
C655 H648 0.950 . S
C655 C652 1.387 . S
C656 C657 1.387 . S
C656 H660 0.950 . S
C656 C665 1.390 1_455 S
C657 C656 1.387 . S
C657 C659 1.387 . S
H658 C665 0.950 . S
C659 C657 1.387 . S
C659 C661 1.390 1_455 S
C659 H663 0.950 . S
H660 C656 0.950 . S
C661 C659 1.390 1_655 S
C661 C662 1.387 . S
C661 H664 0.950 . S
C662 C661 1.387 . S
C662 C665 1.387 . S
H663 C659 0.950 . S
H664 C661 0.950 . S
C665 C656 1.390 1_655 S
C665 H658 0.950 . S
C665 C662 1.387 . S
C666 C667 1.387 . S
C666 H670 0.950 . S
C666 C675 1.390 . S
C667 C666 1.387 . S
C667 C669 1.387 . S
H668 C675 0.950 . S
C669 C667 1.387 . S
C669 C671 1.390 . S
C669 H673 0.950 . S
H670 C666 0.950 . S
C671 C669 1.390 . S
C671 C672 1.387 . S
C671 H674 0.950 . S
C672 C671 1.387 . S
C672 C675 1.387 . S
H673 C669 0.950 . S
H674 C671 0.950 . S
C675 C666 1.390 . S
C675 H668 0.950 . S
C675 C672 1.387 . S
C676 C677 1.387 . S
C676 H680 0.950 . S
C676 C685 1.390 . S
C677 C676 1.387 . S
C677 C679 1.387 . S
H678 C685 0.950 . S
C679 C677 1.387 . S
C679 C681 1.390 . S
C679 H683 0.950 . S
H680 C676 0.950 . S
C681 C679 1.390 . S
C681 C682 1.387 . S
C681 H684 0.950 . S
C682 C681 1.387 . S
C682 C685 1.387 . S
H683 C679 0.950 . S
H684 C681 0.950 . S
C685 C676 1.390 . S
C685 H678 0.950 . S
C685 C682 1.387 . S
C686 C687 1.387 . S
C686 H690 0.950 . S
C686 C695 1.390 . S
C687 C686 1.387 . S
C687 C689 1.387 . S
H688 C695 0.950 . S
C689 C687 1.387 . S
C689 C691 1.390 . S
C689 H693 0.950 . S
H690 C686 0.950 . S
C691 C689 1.390 . S
C691 C692 1.387 . S
C691 H694 0.950 . S
C692 C691 1.387 . S
C692 C695 1.387 . S
H693 C689 0.950 . S
H694 C691 0.950 . S
C695 C686 1.390 . S
C695 H688 0.950 . S
C695 C692 1.387 . S
C696 C697 1.387 . S
C696 H700 0.950 . S
C696 C705 1.390 . S
C697 C696 1.387 . S
C697 C699 1.387 . S
H698 C705 0.950 . S
C699 C697 1.387 . S
C699 C701 1.390 . S
C699 H703 0.950 . S
H700 C696 0.950 . S
C701 C699 1.390 . S
C701 C702 1.387 . S
C701 H704 0.950 . S
C702 C701 1.387 . S
C702 C705 1.387 . S
H703 C699 0.950 . S
H704 C701 0.950 . S
C705 C696 1.390 . S
C705 H698 0.950 . S
C705 C702 1.387 . S
C706 C707 1.387 . S
C706 H710 0.950 . S
C706 C715 1.390 . S
C707 C706 1.387 . S
C707 C709 1.387 1_565 S
H708 C715 0.950 . S
C709 C707 1.387 1_545 S
C709 C711 1.390 . S
C709 H713 0.950 . S
H710 C706 0.950 . S
C711 C709 1.390 . S
C711 C712 1.387 . S
C711 H714 0.950 . S
C712 C711 1.387 . S
C712 C715 1.387 1_545 S
H713 C709 0.950 . S
H714 C711 0.950 . S
C715 C706 1.390 . S
C715 H708 0.950 . S
C715 C712 1.387 1_565 S
C716 C717 1.387 . S
C716 H720 0.950 . S
C716 C725 1.390 . S
C717 C716 1.387 . S
C717 C719 1.387 . S
H718 C725 0.950 . S
C719 C717 1.387 . S
C719 C721 1.390 . S
C719 H723 0.950 . S
H720 C716 0.950 . S
C721 C719 1.390 . S
C721 C722 1.387 . S
C721 H724 0.950 . S
C722 C721 1.387 . S
C722 C725 1.387 . S
H723 C719 0.950 . S
H724 C721 0.950 . S
C725 C716 1.390 . S
C725 H718 0.950 . S
C725 C722 1.387 . S
C726 C727 1.387 1_556 S
C726 H730 0.950 . S
C726 C735 1.390 . S
C727 C726 1.387 1_554 S
C727 C729 1.387 . S
H728 C735 0.950 . S
C729 C727 1.387 . S
C729 C731 1.390 . S
C729 H733 0.950 . S
H730 C726 0.950 . S
C731 C729 1.390 . S
C731 C732 1.387 1_554 S
C731 H734 0.950 . S
C732 C731 1.387 1_556 S
C732 C735 1.387 . S
H733 C729 0.950 . S
H734 C731 0.950 . S
C735 C726 1.390 . S
C735 H728 0.950 . S
C735 C732 1.387 . S
C736 C737 1.387 . S
C736 H740 0.950 . S
C736 C745 1.390 . S
C737 C736 1.387 . S
C737 C739 1.387 . S
H738 C745 0.950 . S
C739 C737 1.387 . S
C739 C741 1.390 . S
C739 H743 0.950 . S
H740 C736 0.950 . S
C741 C739 1.390 . S
C741 C742 1.387 . S
C741 H744 0.950 . S
C742 C741 1.387 . S
C742 C745 1.387 . S
H743 C739 0.950 . S
H744 C741 0.950 . S
C745 C736 1.390 . S
C745 H738 0.950 . S
C745 C742 1.387 . S
C746 C747 1.387 . S
C746 H750 0.950 . S
C746 C755 1.390 . S
C747 C746 1.387 . S
C747 C749 1.387 . S
H748 C755 0.950 . S
C749 C747 1.387 . S
C749 C751 1.390 . S
C749 H753 0.950 . S
H750 C746 0.950 . S
C751 C749 1.390 . S
C751 C752 1.387 . S
C751 H754 0.950 . S
C752 C751 1.387 . S
C752 C755 1.387 . S
H753 C749 0.950 . S
H754 C751 0.950 . S
C755 C746 1.390 . S
C755 H748 0.950 . S
C755 C752 1.387 . S
C756 C757 1.387 . S
C756 H760 0.950 . S
C756 C765 1.390 . S
C757 C756 1.387 . S
C757 C759 1.387 . S
H758 C765 0.950 . S
C759 C757 1.387 . S
C759 C761 1.390 . S
C759 H763 0.950 . S
H760 C756 0.950 . S
C761 C759 1.390 . S
C761 C762 1.387 . S
C761 H764 0.950 . S
C762 C761 1.387 . S
C762 C765 1.387 . S
H763 C759 0.950 . S
H764 C761 0.950 . S
C765 C756 1.390 . S
C765 H758 0.950 . S
C765 C762 1.387 . S
C766 C767 1.387 . S
C766 H770 0.950 . S
C766 C775 1.390 . S
C767 C766 1.387 . S
C767 C769 1.387 . S
H768 C775 0.950 . S
C769 C767 1.387 . S
C769 C771 1.390 . S
C769 H773 0.950 . S
H770 C766 0.950 . S
C771 C769 1.390 . S
C771 C772 1.387 . S
C771 H774 0.950 . S
C772 C771 1.387 . S
C772 C775 1.387 . S
H773 C769 0.950 . S
H774 C771 0.950 . S
C775 C766 1.390 . S
C775 H768 0.950 . S
C775 C772 1.387 . S
C776 C777 1.387 . S
C776 H780 0.950 . S
C776 C785 1.390 . S
C777 C776 1.387 . S
C777 C779 1.387 . S
H778 C785 0.950 . S
C779 C777 1.387 . S
C779 C781 1.390 . S
C779 H783 0.950 . S
H780 C776 0.950 . S
C781 C779 1.390 . S
C781 C782 1.387 . S
C781 H784 0.950 . S
C782 C781 1.387 . S
C782 C785 1.387 . S
H783 C779 0.950 . S
H784 C781 0.950 . S
C785 C776 1.390 . S
C785 H778 0.950 . S
C785 C782 1.387 . S
C786 C787 1.387 . S
C786 H790 0.950 . S
C786 C795 1.390 . S
C787 C786 1.387 . S
C787 C789 1.387 . S
H788 C795 0.950 . S
C789 C787 1.387 . S
C789 C791 1.390 . S
C789 H793 0.950 . S
H790 C786 0.950 . S
C791 C789 1.390 . S
C791 C792 1.387 . S
C791 H794 0.950 . S
C792 C791 1.387 . S
C792 C795 1.387 . S
H793 C789 0.950 . S
H794 C791 0.950 . S
C795 C786 1.390 . S
C795 H788 0.950 . S
C795 C792 1.387 . S
C796 C797 1.387 . S
C796 H800 0.950 . S
C796 C805 1.390 . S
C797 C796 1.387 . S
C797 C799 1.387 . S
H798 C805 0.950 . S
C799 C797 1.387 . S
C799 C801 1.390 . S
C799 H803 0.950 . S
H800 C796 0.950 . S
C801 C799 1.390 . S
C801 C802 1.387 . S
C801 H804 0.950 . S
C802 C801 1.387 . S
C802 C805 1.387 . S
H803 C799 0.950 . S
H804 C801 0.950 . S
C805 C796 1.390 . S
C805 H798 0.950 . S
C805 C802 1.387 . S
C806 C807 1.387 . S
C806 H810 0.950 . S
C806 C815 1.390 . S
C807 C806 1.387 . S
C807 C809 1.387 . S
H808 C815 0.950 . S
C809 C807 1.387 . S
C809 C811 1.390 . S
C809 H813 0.950 . S
H810 C806 0.950 . S
C811 C809 1.390 . S
C811 C812 1.387 . S
C811 H814 0.950 . S
C812 C811 1.387 . S
C812 C815 1.387 . S
H813 C809 0.950 . S
H814 C811 0.950 . S
C815 C806 1.390 . S
C815 H808 0.950 . S
C815 C812 1.387 . S
C816 C817 1.387 . S
C816 H820 0.950 . S
C816 C825 1.390 . S
C817 C816 1.387 . S
C817 C819 1.387 . S
H818 C825 0.950 . S
C819 C817 1.387 . S
C819 C821 1.390 . S
C819 H823 0.950 . S
H820 C816 0.950 . S
C821 C819 1.390 . S
C821 C822 1.387 . S
C821 H824 0.950 . S
C822 C821 1.387 . S
C822 C825 1.387 . S
H823 C819 0.950 . S
H824 C821 0.950 . S
C825 C816 1.390 . S
C825 H818 0.950 . S
C825 C822 1.387 . S
C826 C827 1.387 . S
C826 H830 0.950 . S
C826 C835 1.390 . S
C827 C826 1.387 . S
C827 C829 1.387 . S
H828 C835 0.950 . S
C829 C827 1.387 . S
C829 C831 1.390 . S
C829 H833 0.950 . S
H830 C826 0.950 . S
C831 C829 1.390 . S
C831 C832 1.387 . S
C831 H834 0.950 . S
C832 C831 1.387 . S
C832 C835 1.387 . S
H833 C829 0.950 . S
H834 C831 0.950 . S
C835 C826 1.390 . S
C835 H828 0.950 . S
C835 C832 1.387 . S
C836 C837 1.387 . S
C836 H840 0.950 . S
C836 C845 1.390 . S
C837 C836 1.387 . S
C837 C839 1.387 . S
H838 C845 0.950 . S
C839 C837 1.387 . S
C839 C841 1.390 . S
C839 H843 0.950 . S
H840 C836 0.950 . S
C841 C839 1.390 . S
C841 C842 1.387 . S
C841 H844 0.950 . S
C842 C841 1.387 . S
C842 C845 1.387 . S
H843 C839 0.950 . S
H844 C841 0.950 . S
C845 C836 1.390 . S
C845 H838 0.950 . S
C845 C842 1.387 . S
C846 C847 1.387 . S
C846 H850 0.950 . S
C846 C855 1.390 . S
C847 C846 1.387 . S
C847 C849 1.387 . S
H848 C855 0.950 . S
C849 C847 1.387 . S
C849 C851 1.390 . S
C849 H853 0.950 . S
H850 C846 0.950 . S
C851 C849 1.390 . S
C851 C852 1.387 . S
C851 H854 0.950 . S
C852 C851 1.387 . S
C852 C855 1.387 . S
H853 C849 0.950 . S
H854 C851 0.950 . S
C855 C846 1.390 . S
C855 H848 0.950 . S
C855 C852 1.387 . S
C856 C857 1.387 . S
C856 H860 0.950 . S
C856 C865 1.390 . S
C857 C856 1.387 . S
C857 C859 1.387 . S
H858 C865 0.950 . S
C859 C857 1.387 . S
C859 C861 1.390 . S
C859 H863 0.950 . S
H860 C856 0.950 . S
C861 C859 1.390 . S
C861 C862 1.387 . S
C861 H864 0.950 . S
C862 C861 1.387 . S
C862 C865 1.387 . S
H863 C859 0.950 . S
H864 C861 0.950 . S
C865 C856 1.390 . S
C865 H858 0.950 . S
C865 C862 1.387 . S
C866 C867 1.387 . S
C866 H870 0.950 . S
C866 C875 1.390 . S
C867 C866 1.387 . S
C867 C869 1.387 . S
H868 C875 0.950 . S
C869 C867 1.387 . S
C869 C871 1.390 . S
C869 H873 0.950 . S
H870 C866 0.950 . S
C871 C869 1.390 . S
C871 C872 1.387 . S
C871 H874 0.950 . S
C872 C871 1.387 . S
C872 C875 1.387 . S
H873 C869 0.950 . S
H874 C871 0.950 . S
C875 C866 1.390 . S
C875 H868 0.950 . S
C875 C872 1.387 . S
C876 C877 1.387 . S
C876 H880 0.950 . S
C876 C885 1.390 . S
C877 C876 1.387 . S
C877 C879 1.387 . S
H878 C885 0.950 . S
C879 C877 1.387 . S
C879 C881 1.390 . S
C879 H883 0.950 . S
H880 C876 0.950 . S
C881 C879 1.390 . S
C881 C882 1.387 . S
C881 H884 0.950 . S
C882 C881 1.387 . S
C882 C885 1.387 . S
H883 C879 0.950 . S
H884 C881 0.950 . S
C885 C876 1.390 . S
C885 H878 0.950 . S
C885 C882 1.387 . S
C886 C887 1.387 . S
C886 H890 0.950 . S
C886 C895 1.390 . S
C887 C886 1.387 . S
C887 C889 1.387 . S
H888 C895 0.950 . S
C889 C887 1.387 . S
C889 C891 1.390 . S
C889 H893 0.950 . S
H890 C886 0.950 . S
C891 C889 1.390 . S
C891 C892 1.387 . S
C891 H894 0.950 . S
C892 C891 1.387 . S
C892 C895 1.387 . S
H893 C889 0.950 . S
H894 C891 0.950 . S
C895 C886 1.390 . S
C895 H888 0.950 . S
C895 C892 1.387 . S
C896 C897 1.387 . S
C896 H900 0.950 . S
C896 C905 1.390 . S
C897 C896 1.387 . S
C897 C899 1.387 . S
H898 C905 0.950 . S
C899 C897 1.387 . S
C899 C901 1.390 . S
C899 H903 0.950 . S
H900 C896 0.950 . S
C901 C899 1.390 . S
C901 C902 1.387 . S
C901 H904 0.950 . S
C902 C901 1.387 . S
C902 C905 1.387 . S
H903 C899 0.950 . S
H904 C901 0.950 . S
C905 C896 1.390 . S
C905 H898 0.950 . S
C905 C902 1.387 . S
C906 C907 1.387 . S
C906 H910 0.950 . S
C906 C915 1.390 . S
C907 C906 1.387 . S
C907 C909 1.387 . S
H908 C915 0.950 . S
C909 C907 1.387 . S
C909 C911 1.390 . S
C909 H913 0.950 . S
H910 C906 0.950 . S
C911 C909 1.390 . S
C911 C912 1.387 . S
C911 H914 0.950 . S
C912 C911 1.387 . S
C912 C915 1.387 . S
H913 C909 0.950 . S
H914 C911 0.950 . S
C915 C906 1.390 . S
C915 H908 0.950 . S
C915 C912 1.387 . S
C916 C917 1.387 . S
C916 H920 0.950 . S
C916 C925 1.390 . S
C917 C916 1.387 . S
C917 C919 1.387 . S
H918 C925 0.950 . S
C919 C917 1.387 . S
C919 C921 1.390 . S
C919 H923 0.950 . S
H920 C916 0.950 . S
C921 C919 1.390 . S
C921 C922 1.387 . S
C921 H924 0.950 . S
C922 C921 1.387 . S
C922 C925 1.387 . S
H923 C919 0.950 . S
H924 C921 0.950 . S
C925 C916 1.390 . S
C925 H918 0.950 . S
C925 C922 1.387 . S
C926 C927 1.387 . S
C926 H930 0.950 . S
C926 C935 1.390 . S
C927 C926 1.387 . S
C927 C929 1.387 . S
H928 C935 0.950 . S
C929 C927 1.387 . S
C929 C931 1.390 . S
C929 H933 0.950 . S
H930 C926 0.950 . S
C931 C929 1.390 . S
C931 C932 1.387 . S
C931 H934 0.950 . S
C932 C931 1.387 . S
C932 C935 1.387 . S
H933 C929 0.950 . S
H934 C931 0.950 . S
C935 C926 1.390 . S
C935 H928 0.950 . S
C935 C932 1.387 . S
C936 C937 1.387 . S
C936 H940 0.950 . S
C936 C945 1.390 . S
C937 C936 1.387 . S
C937 C939 1.387 . S
H938 C945 0.950 . S
C939 C937 1.387 . S
C939 C941 1.390 . S
C939 H943 0.950 . S
H940 C936 0.950 . S
C941 C939 1.390 . S
C941 C942 1.387 . S
C941 H944 0.950 . S
C942 C941 1.387 . S
C942 C945 1.387 . S
H943 C939 0.950 . S
H944 C941 0.950 . S
C945 C936 1.390 . S
C945 H938 0.950 . S
C945 C942 1.387 . S
C946 C947 1.387 . S
C946 H950 0.950 . S
C946 C955 1.390 . S
C947 C946 1.387 . S
C947 C949 1.387 . S
H948 C955 0.950 . S
C949 C947 1.387 . S
C949 C951 1.390 . S
C949 H953 0.950 . S
H950 C946 0.950 . S
C951 C949 1.390 . S
C951 C952 1.387 . S
C951 H954 0.950 . S
C952 C951 1.387 . S
C952 C955 1.387 . S
H953 C949 0.950 . S
H954 C951 0.950 . S
C955 C946 1.390 . S
C955 H948 0.950 . S
C955 C952 1.387 . S
C956 C957 1.387 . S
C956 H960 0.950 . S
C956 C965 1.390 . S
C957 C956 1.387 . S
C957 C959 1.387 . S
H958 C965 0.950 . S
C959 C957 1.387 . S
C959 C961 1.390 . S
C959 H963 0.950 . S
H960 C956 0.950 . S
C961 C959 1.390 . S
C961 C962 1.387 . S
C961 H964 0.950 . S
C962 C961 1.387 . S
C962 C965 1.387 . S
H963 C959 0.950 . S
H964 C961 0.950 . S
C965 C956 1.390 . S
C965 H958 0.950 . S
C965 C962 1.387 . S
C966 C967 1.387 . S
C966 H970 0.950 . S
C966 C975 1.390 . S
C967 C966 1.387 . S
C967 C969 1.387 . S
H968 C975 0.950 . S
C969 C967 1.387 . S
C969 C971 1.390 . S
C969 H973 0.950 . S
H970 C966 0.950 . S
C971 C969 1.390 . S
C971 C972 1.387 . S
C971 H974 0.950 . S
C972 C971 1.387 . S
C972 C975 1.387 . S
H973 C969 0.950 . S
H974 C971 0.950 . S
C975 C966 1.390 . S
C975 H968 0.950 . S
C975 C972 1.387 . S
C976 C977 1.387 . S
C976 H980 0.950 . S
C976 C985 1.390 . S
C977 C976 1.387 . S
C977 C979 1.387 . S
H978 C985 0.950 . S
C979 C977 1.387 . S
C979 C981 1.390 . S
C979 H983 0.950 . S
H980 C976 0.950 . S
C981 C979 1.390 . S
C981 C982 1.387 . S
C981 H984 0.950 . S
C982 C981 1.387 . S
C982 C985 1.387 . S
H983 C979 0.950 . S
H984 C981 0.950 . S
C985 C976 1.390 . S
C985 H978 0.950 . S
C985 C982 1.387 . S
C986 C987 1.387 . S
C986 H990 0.950 . S
C986 C995 1.390 . S
C987 C986 1.387 . S
C987 C989 1.387 . S
H988 C995 0.950 . S
C989 C987 1.387 . S
C989 C991 1.390 . S
C989 H993 0.950 . S
H990 C986 0.950 . S
C991 C989 1.390 . S
C991 C992 1.387 . S
C991 H994 0.950 . S
C992 C991 1.387 . S
C992 C995 1.387 . S
H993 C989 0.950 . S
H994 C991 0.950 . S
C995 C986 1.390 . S
C995 H988 0.950 . S
C995 C992 1.387 . S
C996 C997 1.387 . S
C996 H1000 0.950 . S
C996 C1005 1.390 . S
C997 C996 1.387 . S
C997 C999 1.387 . S
H998 C1005 0.950 . S
C999 C997 1.387 . S
C999 C1001 1.390 . S
C999 H1003 0.950 . S
H1000 C996 0.950 . S
C1001 C999 1.390 . S
C1001 C1002 1.387 . S
C1001 H1004 0.950 . S
C1002 C1001 1.387 . S
C1002 C1005 1.387 . S
H1003 C999 0.950 . S
H1004 C1001 0.950 . S
C1005 C996 1.390 . S
C1005 H998 0.950 . S
C1005 C1002 1.387 . S
C1006 C1007 1.387 . S
C1006 H1010 0.950 . S
C1006 C1015 1.390 . S
C1007 C1006 1.387 . S
C1007 C1009 1.387 . S
H1008 C1015 0.950 . S
C1009 C1007 1.387 . S
C1009 C1011 1.390 . S
C1009 H1013 0.950 . S
H1010 C1006 0.950 . S
C1011 C1009 1.390 . S
C1011 C1012 1.387 . S
C1011 H1014 0.950 . S
C1012 C1011 1.387 . S
C1012 C1015 1.387 . S
H1013 C1009 0.950 . S
H1014 C1011 0.950 . S
C1015 C1006 1.390 . S
C1015 H1008 0.950 . S
C1015 C1012 1.387 . S
C1016 C1017 1.387 . S
C1016 H1020 0.950 . S
C1016 C1025 1.390 . S
C1017 C1016 1.387 . S
C1017 C1019 1.387 . S
H1018 C1025 0.950 . S
C1019 C1017 1.387 . S
C1019 C1021 1.390 . S
C1019 H1023 0.950 . S
H1020 C1016 0.950 . S
C1021 C1019 1.390 . S
C1021 C1022 1.387 . S
C1021 H1024 0.950 . S
C1022 C1021 1.387 . S
C1022 C1025 1.387 . S
H1023 C1019 0.950 . S
H1024 C1021 0.950 . S
C1025 C1016 1.390 . S
C1025 H1018 0.950 . S
C1025 C1022 1.387 . S
C1026 C1027 1.387 . S
C1026 H1030 0.950 . S
C1026 C1035 1.390 . S
C1027 C1026 1.387 . S
C1027 C1029 1.387 . S
H1028 C1035 0.950 . S
C1029 C1027 1.387 . S
C1029 C1031 1.390 . S
C1029 H1033 0.950 . S
H1030 C1026 0.950 . S
C1031 C1029 1.390 . S
C1031 C1032 1.387 . S
C1031 H1034 0.950 . S
C1032 C1031 1.387 . S
C1032 C1035 1.387 . S
H1033 C1029 0.950 . S
H1034 C1031 0.950 . S
C1035 C1026 1.390 . S
C1035 H1028 0.950 . S
C1035 C1032 1.387 . S
C1036 C1037 1.387 . S
C1036 H1040 0.950 . S
C1036 C1045 1.390 . S
C1037 C1036 1.387 . S
C1037 C1039 1.387 . S
H1038 C1045 0.950 . S
C1039 C1037 1.387 . S
C1039 C1041 1.390 . S
C1039 H1043 0.950 . S
H1040 C1036 0.950 . S
C1041 C1039 1.390 . S
C1041 C1042 1.387 . S
C1041 H1044 0.950 . S
C1042 C1041 1.387 . S
C1042 C1045 1.387 . S
H1043 C1039 0.950 . S
H1044 C1041 0.950 . S
C1045 C1036 1.390 . S
C1045 H1038 0.950 . S
C1045 C1042 1.387 . S
C1046 C1047 1.387 . S
C1046 H1050 0.950 . S
C1046 C1055 1.390 . S
C1047 C1046 1.387 . S
C1047 C1049 1.387 . S
H1048 C1055 0.950 . S
C1049 C1047 1.387 . S
C1049 C1051 1.390 . S
C1049 H1053 0.950 . S
H1050 C1046 0.950 . S
C1051 C1049 1.390 . S
C1051 C1052 1.387 . S
C1051 H1054 0.950 . S
C1052 C1051 1.387 . S
C1052 C1055 1.387 . S
H1053 C1049 0.950 . S
H1054 C1051 0.950 . S
C1055 C1046 1.390 . S
C1055 H1048 0.950 . S
C1055 C1052 1.387 . S
C417 C5 1.506 . S
C422 C16 1.506 . S
C427 C42 1.508 . S
C432 C31 1.508 . S
C437 C57 1.506 . S
C442 C68 1.506 . S
C447 C83 1.506 . S
C452 C94 1.506 . S
C457 C109 1.508 . S
C462 C122 1.508 . S
C467 C133 1.506 . S
C472 C146 1.506 . S
C477 C159 1.506 . S
C482 C172 1.506 . S
C487 C185 1.508 . S
C492 C198 1.508 . S
C497 C226 1.506 . S
C502 C211 1.506 . S
C507 C250 1.508 . S
C512 C239 1.508 . S
C517 C276 1.506 . S
C522 C263 1.506 . S
C527 C304 1.506 . S
C532 C289 1.506 . S
C537 C330 1.506 . S
C542 C315 1.506 . S
C547 C356 1.506 . S
C552 C341 1.506 . S
C557 C382 1.506 . S
C562 C367 1.506 . S
C567 C406 1.506 . S
C572 C393 1.506 . S
C577 C4 1.495 . S
C582 C166 1.495 . S
C587 C23 1.495 . S
C592 C283 1.495 . S
C597 C30 1.493 . S
C602 C82 1.493 . S
C607 C49 1.494 . S
C612 C413 1.494 . S
C617 C56 1.495 . S
C622 C108 1.495 . S
C627 C225 1.495 . S
C632 C75 1.495 . S
C637 C355 1.493 . S
C642 C101 1.493 . S
C647 C121 1.495 . S
C652 C381 1.495 . S
C657 C140 1.494 . S
C662 C192 1.494 . S
C667 C153 1.496 . S
C672 C303 1.496 . S
C677 C179 1.493 . S
C682 C329 1.493 . S
C687 C205 1.495 . S
C692 C257 1.495 . S
C697 C374 1.493 . S
C702 C218 1.493 . S
C707 C296 1.495 . S
C712 C238 1.495 . S
C717 C270 1.493 . S
C722 C322 1.493 . S
C727 C400 1.495 . S
C732 C348 1.495 . S
C737 C134 1.010 . S
C742 C10 1.010 . S
C747 C147 1.010 . S
C752 C17 1.010 . S
C757 C36 1.010 . S
C762 C114 1.010 . S
C767 C127 1.011 . S
C772 C43 1.011 . S
C777 C62 1.010 . S
C782 C186 1.010 . S
C787 C69 1.011 . S
C792 C199 1.011 . S
C797 C160 1.011 . S
C802 C88 1.011 . S
C807 C173 1.010 . S
C812 C95 1.010 . S
C817 C212 1.010 . S
C822 C342 1.010 . S
C827 C361 1.010 . S
C832 C231 1.010 . S
C837 C316 1.011 . S
C842 C244 1.011 . S
C847 C251 1.010 . S
C852 C335 1.010 . S
C857 C394 1.011 . S
C862 C264 1.011 . S
C867 C277 1.010 . S
C872 C407 1.010 . S
C877 C368 1.011 . S
C882 C290 1.011 . S
C887 C387 1.010 . S
C892 C309 1.010 . S
C897 C135 1.687 . S
C902 C3 1.687 1_565 S
C907 C148 1.688 . S
C912 C18 1.688 . S
C917 C107 1.688 . S
C922 C29 1.688 . S
C927 C44 1.688 1_565 S
C932 C120 1.688 . S
C937 C187 1.687 . S
C942 C55 1.687 1_545 S
C947 C200 1.687 . S
C952 C70 1.687 . S
C957 C161 1.687 . S
C962 C81 1.687 . S
C967 C174 1.688 . S
C972 C96 1.688 1_545 S
C977 C343 1.688 . S
C982 C213 1.688 1_565 S
C987 C354 1.687 . S
C992 C224 1.687 . S
C997 C317 1.688 . S
C1002 C237 1.688 . S
C1007 C252 1.687 1_565 S
C1012 C328 1.687 . S
C1017 C395 1.687 . S
C1022 C265 1.687 1_545 S
C1027 C278 1.688 . S
C1032 C408 1.688 . S
C1037 C369 1.688 . S
C1042 C291 1.688 . S
C1047 C302 1.687 1_545 S
C1052 C380 1.687 . S
