# Generated by pormake.
# Topology wme, (6)-cn, num edge types: 1
# Building blocks:
#     Node 0, Type 0, BuildingBlock: BETFAJ_clean_sbu_0, # of connection points: 6
#     Node 1, Type 0, BuildingBlock: BETFAJ_clean_sbu_0, # of connection points: 6
#     Node 2, Type 0, BuildingBlock: BETFAJ_clean_sbu_0, # of connection points: 6
#     Node 3, Type 0, BuildingBlock: BETFAJ_clean_sbu_0, # of connection points: 6
#     Node 4, Type 0, BuildingBlock: BETFAJ_clean_sbu_0, # of connection points: 6
#     Node 5, Type 0, BuildingBlock: BETFAJ_clean_sbu_0, # of connection points: 6
#     Node 6, Type 0, BuildingBlock: BETFAJ_clean_sbu_0, # of connection points: 6
#     Node 7, Type 0, BuildingBlock: BETFAJ_clean_sbu_0, # of connection points: 6
#     Node 8, Type 0, BuildingBlock: BETFAJ_clean_sbu_0, # of connection points: 6
#     Node 9, Type 0, BuildingBlock: BETFAJ_clean_sbu_0, # of connection points: 6
#     Node 10, Type 0, BuildingBlock: BETFAJ_clean_sbu_0, # of connection points: 6
#     Node 11, Type 0, BuildingBlock: BETFAJ_clean_sbu_0, # of connection points: 6
#     Edge 12, Type (0, 0), BuildingBlock: OJICUG_clean_linker_0, # of connection points: 2
#     Edge 13, Type (0, 0), BuildingBlock: OJICUG_clean_linker_0, # of connection points: 2
#     Edge 14, Type (0, 0), BuildingBlock: OJICUG_clean_linker_0, # of connection points: 2
#     Edge 15, Type (0, 0), BuildingBlock: OJICUG_clean_linker_0, # of connection points: 2
#     Edge 16, Type (0, 0), BuildingBlock: OJICUG_clean_linker_0, # of connection points: 2
#     Edge 17, Type (0, 0), BuildingBlock: OJICUG_clean_linker_0, # of connection points: 2
#     Edge 18, Type (0, 0), BuildingBlock: OJICUG_clean_linker_0, # of connection points: 2
#     Edge 19, Type (0, 0), BuildingBlock: OJICUG_clean_linker_0, # of connection points: 2
#     Edge 20, Type (0, 0), BuildingBlock: OJICUG_clean_linker_0, # of connection points: 2
#     Edge 21, Type (0, 0), BuildingBlock: OJICUG_clean_linker_0, # of connection points: 2
#     Edge 22, Type (0, 0), BuildingBlock: OJICUG_clean_linker_0, # of connection points: 2
#     Edge 23, Type (0, 0), BuildingBlock: OJICUG_clean_linker_0, # of connection points: 2
#     Edge 24, Type (0, 0), BuildingBlock: OJICUG_clean_linker_0, # of connection points: 2
#     Edge 25, Type (0, 0), BuildingBlock: OJICUG_clean_linker_0, # of connection points: 2
#     Edge 26, Type (0, 0), BuildingBlock: OJICUG_clean_linker_0, # of connection points: 2
#     Edge 27, Type (0, 0), BuildingBlock: OJICUG_clean_linker_0, # of connection points: 2
#     Edge 28, Type (0, 0), BuildingBlock: OJICUG_clean_linker_0, # of connection points: 2
#     Edge 29, Type (0, 0), BuildingBlock: OJICUG_clean_linker_0, # of connection points: 2
#     Edge 30, Type (0, 0), BuildingBlock: OJICUG_clean_linker_0, # of connection points: 2
#     Edge 31, Type (0, 0), BuildingBlock: OJICUG_clean_linker_0, # of connection points: 2
#     Edge 32, Type (0, 0), BuildingBlock: OJICUG_clean_linker_0, # of connection points: 2
#     Edge 33, Type (0, 0), BuildingBlock: OJICUG_clean_linker_0, # of connection points: 2
#     Edge 34, Type (0, 0), BuildingBlock: OJICUG_clean_linker_0, # of connection points: 2
#     Edge 35, Type (0, 0), BuildingBlock: OJICUG_clean_linker_0, # of connection points: 2
#     Edge 36, Type (0, 0), BuildingBlock: OJICUG_clean_linker_0, # of connection points: 2
#     Edge 37, Type (0, 0), BuildingBlock: OJICUG_clean_linker_0, # of connection points: 2
#     Edge 38, Type (0, 0), BuildingBlock: OJICUG_clean_linker_0, # of connection points: 2
#     Edge 39, Type (0, 0), BuildingBlock: OJICUG_clean_linker_0, # of connection points: 2
#     Edge 40, Type (0, 0), BuildingBlock: OJICUG_clean_linker_0, # of connection points: 2
#     Edge 41, Type (0, 0), BuildingBlock: OJICUG_clean_linker_0, # of connection points: 2
#     Edge 42, Type (0, 0), BuildingBlock: OJICUG_clean_linker_0, # of connection points: 2
#     Edge 43, Type (0, 0), BuildingBlock: OJICUG_clean_linker_0, # of connection points: 2
#     Edge 44, Type (0, 0), BuildingBlock: OJICUG_clean_linker_0, # of connection points: 2
#     Edge 45, Type (0, 0), BuildingBlock: OJICUG_clean_linker_0, # of connection points: 2
#     Edge 46, Type (0, 0), BuildingBlock: OJICUG_clean_linker_0, # of connection points: 2
#     Edge 47, Type (0, 0), BuildingBlock: OJICUG_clean_linker_0, # of connection points: 2
# Relax obj value: 0.115
# Max RMSD: 0.231
# Mean RMSD: 0.231
data_MOF--net-wme--node1-BETFAJ_clean_sbu_0--edge1-OJICUG_clean_linker_0
_symmetry_space_group_name_H-M    P1
_symmetry_Int_Tables_number       1
_symmetry_cell_setting            triclinic
loop_
_symmetry_equiv_pos_as_xyz
'x, y, z'
_cell_length_a     32.323798
_cell_length_b     32.225735
_cell_length_c     37.098459
_cell_angle_alpha  89.975461
_cell_angle_beta   89.878129
_cell_angle_gamma 119.95102
loop_
_atom_site_label
_atom_site_type_symbol
_atom_site_fract_x
_atom_site_fract_y
_atom_site_fract_z
_atom_type_partial_charge
Sm0 Sm 0.23539 0.38554 0.1017 0.0
Sm1 Sm 0.27067 0.32444 0.13381 0.0
C2 C 0.21213 0.45108 0.08207 0.0
C3 C 0.19442 0.48266 0.09672 0.0
C4 C 0.22683 0.52918 0.10871 0.0
C5 C 0.21096 0.56056 0.11958 0.0
C6 C 0.16209 0.54662 0.11879 0.0
C7 C 0.12954 0.49989 0.107 0.0
C8 C 0.14549 0.4684 0.09608 0.0
C9 C 0.26694 0.34067 0.05239 0.0
C10 C 0.34406 0.43911 0.13023 0.0
C11 C 0.29166 0.25504 0.1427 0.0
C12 C 0.26836 0.20213 0.14327 0.0
C13 C 0.22606 0.17311 0.12408 0.0
C14 C 0.2076 0.1234 0.12181 0.0
C15 C 0.23123 0.10181 0.13856 0.0
C16 C 0.27254 0.131 0.15888 0.0
C17 C 0.29086 0.1805 0.16113 0.0
C18 C 0.25111 0.37116 0.18682 0.0
C19 C 0.15368 0.28119 0.12286 0.0
O20 O 0.18251 0.40494 0.08062 0.0
O21 O 0.25544 0.46119 0.09045 0.0
O22 O 0.2864 0.36173 0.08098 0.0
O23 O 0.22864 0.3434 0.04773 0.0
O24 O 0.3045 0.44122 0.12883 0.0
O25 O 0.34244 0.39716 0.12754 0.0
O26 O 0.29273 0.27463 0.11163 0.0
O27 O 0.2835 0.27613 0.16966 0.0
O28 O 0.22577 0.35359 0.1586 0.0
O29 O 0.2869 0.36333 0.18746 0.0
O30 O 0.18854 0.27063 0.12311 0.0
O31 O 0.16409 0.32601 0.12124 0.0
H32 H 0.26482 0.54193 0.10898 0.0
H33 H 0.23747 0.59646 0.12757 0.0
H34 H 0.09168 0.48759 0.10612 0.0
H35 H 0.11948 0.43307 0.08658 0.0
H36 H 0.20804 0.18902 0.11002 0.0
H37 H 0.17589 0.1022 0.10584 0.0
H38 H 0.29119 0.11563 0.17275 0.0
H39 H 0.32344 0.20211 0.17614 0.0
Sm40 Sm 0.88048 0.23715 0.61013 0.0
Sm41 Sm 0.97731 0.26697 0.63912 0.0
C42 C 0.79238 0.21896 0.59451 0.0
C43 C 0.74133 0.19305 0.60574 0.0
C44 C 0.72717 0.1958 0.64111 0.0
C45 C 0.67866 0.17692 0.64963 0.0
C46 C 0.64308 0.15485 0.62303 0.0
C47 C 0.65735 0.15 0.58813 0.0
C48 C 0.70583 0.16897 0.57962 0.0
C49 C 0.95444 0.27334 0.55847 0.0
C50 C 0.94276 0.34549 0.63862 0.0
C51 C 0.06611 0.28286 0.64329 0.0
C52 C 0.09554 0.26064 0.65061 0.0
C53 C 0.14522 0.28992 0.65054 0.0
C54 C 0.17479 0.26984 0.65116 0.0
C55 C 0.15541 0.21976 0.65208 0.0
C56 C 0.10532 0.1904 0.65316 0.0
C57 C 0.07564 0.21068 0.65233 0.0
C58 C 0.91266 0.24382 0.694 0.0
C59 C 0.90115 0.15125 0.62345 0.0
O60 O 0.82259 0.25508 0.61416 0.0
O61 O 0.81088 0.19418 0.58138 0.0
O62 O 0.9555 0.28917 0.58937 0.0
O63 O 0.91187 0.23801 0.55248 0.0
O64 O 0.89997 0.30731 0.63913 0.0
O65 O 0.98091 0.34106 0.63254 0.0
O66 O 0.03958 0.26743 0.61449 0.0
O67 O 0.04504 0.29137 0.67017 0.0
O68 O 0.90359 0.22088 0.66437 0.0
O69 O 0.95694 0.27803 0.6954 0.0
O70 O 0.94648 0.18542 0.62585 0.0
O71 O 0.86716 0.1623 0.62246 0.0
H72 H 0.75361 0.2139 0.66194 0.0
H73 H 0.66912 0.18076 0.67693 0.0
H74 H 0.63128 0.13382 0.5668 0.0
H75 H 0.71573 0.16654 0.55211 0.0
H76 H 0.16129 0.32847 0.64844 0.0
H77 H 0.21298 0.29379 0.64945 0.0
H78 H 0.08903 0.1518 0.65421 0.0
H79 H 0.03725 0.18741 0.65192 0.0
Sm80 Sm 0.67667 0.86425 0.10444 0.0
Sm81 Sm 0.73591 0.96469 0.13389 0.0
C82 C 0.62025 0.77297 0.08532 0.0
C83 C 0.58051 0.72474 0.09519 0.0
C84 C 0.55839 0.71472 0.12919 0.0
C85 C 0.52287 0.66774 0.13818 0.0
C86 C 0.50899 0.62967 0.11349 0.0
C87 C 0.53159 0.64021 0.07954 0.0
C88 C 0.56678 0.68706 0.07057 0.0
C89 C 0.72679 0.9379 0.05395 0.0
C90 C 0.61877 0.91772 0.13203 0.0
C91 C 0.79642 0.05782 0.1395 0.0
C92 C 0.84921 0.08628 0.14262 0.0
C93 C 0.87818 0.0689 0.12857 0.0
C94 C 0.92807 0.09795 0.12772 0.0
C95 C 0.95021 0.14515 0.14087 0.0
C96 C 0.92107 0.1615 0.15651 0.0
C97 C 0.8712 0.13247 0.15724 0.0
C98 C 0.71232 0.89717 0.18726 0.0
C99 C 0.7837 0.89708 0.12419 0.0
O100 O 0.66015 0.78865 0.10309 0.0
O101 O 0.61084 0.80701 0.07736 0.0
O102 O 0.703 0.93793 0.08039 0.0
O103 O 0.72373 0.89637 0.05177 0.0
O104 O 0.61651 0.87682 0.12358 0.0
O105 O 0.66034 0.95816 0.13596 0.0
O106 O 0.78065 0.0357 0.10877 0.0
O107 O 0.77224 0.03147 0.16718 0.0
O108 O 0.68434 0.89362 0.16192 0.0
O109 O 0.75248 0.93711 0.18506 0.0
O110 O 0.79162 0.9411 0.11887 0.0
O111 O 0.73991 0.86131 0.12704 0.0
H112 H 0.56884 0.74307 0.14884 0.0
H113 H 0.50666 0.66116 0.16468 0.0
H114 H 0.52152 0.61236 0.05953 0.0
H115 H 0.58362 0.69381 0.04428 0.0
H116 H 0.86217 0.03335 0.11708 0.0
H117 H 0.94906 0.0841 0.11531 0.0
H118 H 0.93677 0.19725 0.16763 0.0
H119 H 0.84976 0.14664 0.16836 0.0
Sm120 Sm 0.8322 0.66301 0.60368 0.0
Sm121 Sm 0.79645 0.72404 0.63572 0.0
C122 C 0.85631 0.5979 0.58446 0.0
C123 C 0.87486 0.56687 0.59872 0.0
C124 C 0.84331 0.52098 0.61247 0.0
C125 C 0.85978 0.48985 0.62262 0.0
C126 C 0.90842 0.50341 0.61936 0.0
C127 C 0.94013 0.54958 0.60594 0.0
C128 C 0.92357 0.5808 0.5957 0.0
C129 C 0.80124 0.70787 0.55408 0.0
C130 C 0.72285 0.60953 0.63288 0.0
C131 C 0.77707 0.79443 0.64537 0.0
C132 C 0.80037 0.84726 0.64026 0.0
C133 C 0.78532 0.86566 0.61203 0.0
C134 C 0.80464 0.91508 0.60771 0.0
C135 C 0.83939 0.9477 0.63167 0.0
C136 C 0.85537 0.92937 0.65945 0.0
C137 C 0.83601 0.87974 0.66377 0.0
C138 C 0.81703 0.67777 0.68865 0.0
C139 C 0.91258 0.76838 0.62173 0.0
O140 O 0.88548 0.64409 0.58244 0.0
O141 O 0.81303 0.5874 0.5935 0.0
O142 O 0.78151 0.68709 0.58279 0.0
O143 O 0.83909 0.70435 0.5493 0.0
O144 O 0.76227 0.60717 0.63034 0.0
O145 O 0.72451 0.65153 0.63107 0.0
O146 O 0.76609 0.76841 0.61619 0.0
O147 O 0.79254 0.77795 0.67113 0.0
O148 O 0.84205 0.6955 0.66023 0.0
O149 O 0.78094 0.68514 0.68955 0.0
O150 O 0.87707 0.77788 0.621 0.0
O151 O 0.90314 0.72382 0.62245 0.0
H152 H 0.80545 0.50847 0.61461 0.0
H153 H 0.83381 0.45437 0.63194 0.0
H154 H 0.97781 0.56163 0.60317 0.0
H155 H 0.94887 0.6156 0.58479 0.0
H156 H 0.75799 0.84171 0.59343 0.0
H157 H 0.79196 0.92774 0.58564 0.0
H158 H 0.88173 0.9533 0.67861 0.0
H159 H 0.84842 0.8669 0.68589 0.0
Sm160 Sm 0.1915 0.81357 0.11043 0.0
Sm161 Sm 0.09676 0.78485 0.1422 0.0
C162 C 0.2792 0.8315 0.09317 0.0
C163 C 0.32983 0.85491 0.10531 0.0
C164 C 0.34236 0.84585 0.13951 0.0
C165 C 0.39042 0.86281 0.14837 0.0
C166 C 0.42726 0.88928 0.1233 0.0
C167 C 0.41466 0.90027 0.08978 0.0
C168 C 0.3666 0.88318 0.0809 0.0
C169 C 0.11634 0.77914 0.06001 0.0
C170 C 0.12953 0.70519 0.14004 0.0
C171 C 1.01003 0.77221 0.15422 0.0
C172 C 0.98568 0.80065 0.15656 0.0
C173 C 1.00064 0.84221 0.13558 0.0
C174 C 0.97201 0.86349 0.13287 0.0
C175 C 0.92789 0.8434 0.15094 0.0
C176 C 0.9149 0.80391 0.17391 0.0
C177 C 0.94342 0.7827 0.17658 0.0
C178 C 0.16358 0.80627 0.19496 0.0
C179 C 0.17153 0.89935 0.12448 0.0
O180 O 0.2478 0.7932 0.11041 0.0
O181 O 0.26194 0.85861 0.08288 0.0
O182 O 0.11546 0.76254 0.09068 0.0
O183 O 0.15913 0.81404 0.0537 0.0
O184 O 0.17252 0.74307 0.13879 0.0
O185 O 0.0912 0.7099 0.13633 0.0
O186 O 1.0266 0.77067 0.12254 0.0
O187 O 0.0387 0.77566 0.1803 0.0
O188 O 0.17142 0.83009 0.16581 0.0
O189 O 0.11999 0.77069 0.19634 0.0
O190 O 0.12623 0.86504 0.12557 0.0
O191 O 0.20545 0.88822 0.12442 0.0
H192 H 0.31498 0.82439 0.15906 0.0
H193 H 0.39864 0.85414 0.17463 0.0
H194 H 0.44173 0.92002 0.06959 0.0
H195 H 0.35803 0.89051 0.05429 0.0
H196 H 1.03321 0.85678 0.11985 0.0
H197 H 0.98301 0.89378 0.11494 0.0
H198 H 0.88153 0.78807 0.18872 0.0
H199 H 0.93122 0.75082 0.19295 0.0
Sm200 Sm 0.39704 0.18287 0.60845 0.0
Sm201 Sm 0.33796 0.085 0.64129 0.0
C202 C 0.46035 0.2722 0.58829 0.0
C203 C 0.49034 0.3225 0.6008 0.0
C204 C 0.51228 0.33352 0.63484 0.0
C205 C 0.54499 0.3812 0.64417 0.0
C206 C 0.55671 0.41912 0.61971 0.0
C207 C 0.533 0.40792 0.58626 0.0
C208 C 0.50036 0.36029 0.57697 0.0
C209 C 0.34706 0.10759 0.5595 0.0
C210 C 0.45151 0.12526 0.63401 0.0
C211 C 0.26702 0.99627 0.65266 0.0
C212 C 0.2147 0.9682 0.64536 0.0
C213 C 0.19755 0.93687 0.61578 0.0
C214 C 0.14847 0.90846 0.60957 0.0
C215 C 0.1149 0.91005 0.63298 0.0
C216 C 0.13201 0.94234 0.66206 0.0
C217 C 0.18128 0.97097 0.66823 0.0
C218 C 0.38813 0.15257 0.69297 0.0
C219 C 0.29345 0.15657 0.63312 0.0
O220 O 0.41416 0.25441 0.58622 0.0
O221 O 0.4719 0.24073 0.59918 0.0
O222 O 0.36968 0.10751 0.58673 0.0
O223 O 0.35368 0.15031 0.55485 0.0
O224 O 0.45422 0.16721 0.63016 0.0
O225 O 0.40965 0.08493 0.63454 0.0
O226 O 0.29573 1.00855 0.62484 0.0
O227 O 0.28192 0.03002 0.67701 0.0
O228 O 0.36843 0.15945 0.66574 0.0
O229 O 0.38022 0.10881 0.6937 0.0
O230 O 0.28414 0.112 0.62832 0.0
O231 O 0.33791 0.19176 0.63372 0.0
H232 H 0.50511 0.30518 0.65387 0.0
H233 H 0.5618 0.38823 0.67039 0.0
H234 H 0.54126 0.43571 0.56646 0.0
H235 H 0.48412 0.3528 0.5505 0.0
H236 H 0.22213 0.93372 0.59762 0.0
H237 H 0.13679 0.88464 0.58656 0.0
H238 H 0.10735 0.94424 0.68086 0.0
H239 H 0.19308 0.99457 0.69136 0.0
Sm240 Sm 0.67249 0.82148 0.41021 0.0
Sm241 Sm 0.73207 0.78447 0.37605 0.0
C242 C 0.60828 0.84608 0.43078 0.0
C243 C 0.57807 0.86626 0.41848 0.0
C244 C 0.55601 0.85545 0.38449 0.0
C245 C 0.52345 0.87061 0.37526 0.0
C246 C 0.51192 0.89687 0.39978 0.0
C247 C 0.53566 0.90917 0.43323 0.0
C248 C 0.56819 0.89401 0.44241 0.0
C249 C 0.72157 0.7943 0.4585 0.0
C250 C 0.61866 0.71093 0.38168 0.0
C251 C 0.80282 0.76691 0.36328 0.0
C252 C 0.85519 0.79102 0.37034 0.0
C253 C 0.87243 0.77668 0.39977 0.0
C254 C 0.92152 0.79721 0.40578 0.0
C255 C 0.95503 0.83235 0.38229 0.0
C256 C 0.93785 0.84771 0.35337 0.0
C257 C 0.88856 0.82722 0.3474 0.0
C258 C 0.68414 0.80596 0.32493 0.0
C259 C 0.77723 0.90065 0.38884 0.0
O260 O 0.59727 0.80338 0.41943 0.0
O261 O 0.65437 0.8748 0.43315 0.0
O262 O 0.69976 0.77278 0.43063 0.0
O263 O 0.71391 0.8295 0.46432 0.0
O264 O 0.61601 0.75013 0.38579 0.0
O265 O 0.66042 0.7124 0.3816 0.0
O266 O 0.77434 0.74987 0.39118 0.0
O267 O 0.78775 0.78627 0.3395 0.0
O268 O 0.70331 0.8306 0.35313 0.0
O269 O 0.68985 0.76876 0.32369 0.0
O270 O 0.7863 0.86484 0.39034 0.0
O271 O 0.73288 0.89164 0.3891 0.0
H272 H 0.56305 0.8343 0.36538 0.0
H273 H 0.50667 0.86101 0.34902 0.0
H274 H 0.52757 0.92871 0.45309 0.0
H275 H 0.58452 0.90269 0.46885 0.0
H276 H 0.84791 0.74894 0.41799 0.0
H277 H 0.93325 0.78494 0.42869 0.0
H278 H 0.96248 0.87431 0.33453 0.0
H279 H 0.87668 0.83915 0.32439 0.0
Sm280 Sm 0.88241 0.65782 0.90691 0.0
Sm281 Sm 0.97647 0.72262 0.87412 0.0
C282 C 0.79511 0.58844 0.92581 0.0
C283 C 0.74507 0.5573 0.91298 0.0
C284 C 0.7288 0.5089 0.90523 0.0
C285 C 0.68095 0.4776 0.89646 0.0
C286 C 0.64751 0.49353 0.89517 0.0
C287 C 0.66382 0.54215 0.90268 0.0
C288 C 0.71197 0.57363 0.9115 0.0
C289 C 0.95829 0.69961 0.95665 0.0
C290 C 0.94147 0.60941 0.87647 0.0
C291 C 0.06411 0.7956 0.86226 0.0
C292 C 0.09027 0.84836 0.8585 0.0
C293 C 0.07571 0.87694 0.87719 0.0
C294 C 0.10579 0.92677 0.87914 0.0
C295 C 0.15103 0.94888 0.86254 0.0
C296 C 0.16386 0.92035 0.84185 0.0
C297 C 0.13389 0.87067 0.83998 0.0
C298 C 0.90904 0.67707 0.82176 0.0
C299 C 0.90211 0.76338 0.89139 0.0
O300 O 0.81069 0.63394 0.93129 0.0
O301 O 0.82816 0.58054 0.91283 0.0
O302 O 0.95863 0.6829 0.92626 0.0
O303 O 0.91576 0.69237 0.96298 0.0
O304 O 0.89905 0.6056 0.8772 0.0
O305 O 0.98033 0.65214 0.88034 0.0
O306 O 0.04608 0.77931 0.89402 0.0
O307 O 1.03601 0.76955 0.83617 0.0
O308 O 0.90159 0.69323 0.85097 0.0
O309 O 0.95263 0.68516 0.82004 0.0
O310 O 0.94737 0.77436 0.88904 0.0
O311 O 0.86823 0.71833 0.89303 0.0
H312 H 0.75293 0.49477 0.90683 0.0
H313 H 0.66993 0.44033 0.8918 0.0
H314 H 0.63939 0.55594 0.90184 0.0
H315 H 0.723 0.61055 0.91771 0.0
H316 H 0.04217 0.86053 0.89179 0.0
H317 H 0.09476 0.94752 0.89533 0.0
H318 H 0.19798 0.93626 0.82807 0.0
H319 H 0.14587 0.84943 0.82543 0.0
Sm320 Sm 0.23729 0.867 0.41329 0.0
Sm321 Sm 0.27407 0.96462 0.38205 0.0
C322 C 0.21305 0.77745 0.43184 0.0
C323 C 0.19543 0.72816 0.4172 0.0
C324 C 0.14644 0.69359 0.41747 0.0
C325 C 0.13053 0.64603 0.40688 0.0
C326 C 0.16318 0.63161 0.3958 0.0
C327 C 0.21213 0.66646 0.39534 0.0
C328 C 0.22795 0.71382 0.40588 0.0
C329 C 0.26828 0.94223 0.46338 0.0
C330 C 0.34692 0.923 0.38543 0.0
C331 C 0.29499 0.05509 0.37327 0.0
C332 C 0.27119 0.08423 0.37281 0.0
C333 C 0.29361 0.12874 0.35533 0.0
C334 C 0.27448 0.15923 0.3574 0.0
C335 C 0.23238 0.14605 0.37714 0.0
C336 C 0.20889 0.10049 0.39354 0.0
C337 C 0.22818 0.06993 0.39147 0.0
C338 C 0.25353 0.89843 0.32866 0.0
C339 C 0.15715 0.89245 0.39429 0.0
O340 O 0.18357 0.79409 0.43319 0.0
O341 O 0.25657 0.8107 0.4238 0.0
O342 O 0.28826 0.94141 0.43475 0.0
O343 O 0.23009 0.90095 0.46777 0.0
O344 O 0.30712 0.88132 0.38644 0.0
O345 O 0.34555 0.96342 0.38837 0.0
O346 O 0.29628 0.03657 0.40428 0.0
O347 O 0.287 0.02592 0.34631 0.0
O348 O 0.22826 0.89084 0.35696 0.0
O349 O 0.2897 0.94189 0.32802 0.0
O350 O 0.19271 0.93752 0.39423 0.0
O351 O 0.16637 0.85717 0.39479 0.0
H352 H 0.12033 0.70305 0.42648 0.0
H353 H 0.09261 0.62054 0.40748 0.0
H354 H 0.2387 0.65691 0.3879 0.0
H355 H 0.26598 0.73898 0.40595 0.0
H356 H 0.32669 0.14049 0.3407 0.0
H357 H 0.2931 0.19355 0.34381 0.0
H358 H 0.17658 0.08916 0.40907 0.0
H359 H 0.21017 0.03569 0.40522 0.0
Sm360 Sm 0.39882 0.22689 0.91124 0.0
Sm361 Sm 0.33997 0.26432 0.87651 0.0
C362 C 0.46244 0.20188 0.93234 0.0
C363 C 0.49308 0.18224 0.91985 0.0
C364 C 0.51534 0.19358 0.88585 0.0
C365 C 0.5482 0.17882 0.8764 0.0
C366 C 0.55977 0.15241 0.90071 0.0
C367 C 0.53583 0.13958 0.93417 0.0
C368 C 0.50304 0.15436 0.94357 0.0
C369 C 0.34828 0.25345 0.95888 0.0
C370 C 0.45338 0.33794 0.88347 0.0
C371 C 0.26964 0.28227 0.8635 0.0
C372 C 0.21721 0.25817 0.87026 0.0
C373 C 0.19953 0.27357 0.89879 0.0
C374 C 0.15036 0.25314 0.90446 0.0
C375 C 0.11727 0.21701 0.88153 0.0
C376 C 0.13488 0.2005 0.85361 0.0
C377 C 0.18426 0.22091 0.84798 0.0
C378 C 0.39032 0.24531 0.82597 0.0
C379 C 0.29479 0.14794 0.88813 0.0
O380 O 0.47373 0.24495 0.92168 0.0
O381 O 0.4163 0.173 0.9339 0.0
O382 O 0.37099 0.27527 0.93131 0.0
O383 O 0.35557 0.21801 0.96479 0.0
O384 O 0.45603 0.29876 0.88775 0.0
O385 O 0.41156 0.33636 0.88282 0.0
O386 O 0.29758 0.29883 0.8916 0.0
O387 O 0.28506 0.26318 0.8397 0.0
O388 O 0.37043 0.21946 0.85363 0.0
O389 O 0.38307 0.28154 0.82457 0.0
O390 O 0.28554 0.1836 0.88978 0.0
O391 O 0.33917 0.15708 0.889 0.0
H392 H 0.50822 0.21481 0.86689 0.0
H393 H 0.56515 0.18885 0.85017 0.0
H394 H 0.54394 0.11988 0.95386 0.0
H395 H 0.48653 0.14525 0.97001 0.0
H396 H 0.22376 0.30208 0.9165 0.0
H397 H 0.13823 0.26628 0.92662 0.0
H398 H 0.11053 0.17307 0.83525 0.0
H399 H 0.19651 0.20809 0.8257 0.0
Sm400 Sm 0.18915 0.39237 0.4056 0.0
Sm401 Sm 0.09441 0.32651 0.37441 0.0
C402 C 0.27642 0.46234 0.42342 0.0
C403 C 0.32654 0.49301 0.41051 0.0
C404 C 0.3593 0.47623 0.40915 0.0
C405 C 0.40757 0.50737 0.40031 0.0
C406 C 0.42431 0.55607 0.39266 0.0
C407 C 0.3912 0.57242 0.3938 0.0
C408 C 0.34323 0.54145 0.40259 0.0
C409 C 0.11388 0.35196 0.45614 0.0
C410 C 0.12897 0.4394 0.37536 0.0
C411 C 1.00672 0.25298 0.36495 0.0
C412 C 0.98098 0.20037 0.36049 0.0
C413 C 0.99597 0.17161 0.37837 0.0
C414 C 0.96615 0.12174 0.37997 0.0
C415 C 0.92078 0.09979 0.3638 0.0
C416 C 0.90759 0.12851 0.34374 0.0
C417 C 0.93729 0.17824 0.34225 0.0
C418 C 0.16051 0.37119 0.32092 0.0
C419 C 0.16972 0.28669 0.39091 0.0
O420 O 0.26078 0.41706 0.43007 0.0
O421 O 0.24351 0.46982 0.40966 0.0
O422 O 0.11338 0.36796 0.42555 0.0
O423 O 0.15632 0.35897 0.46229 0.0
O424 O 0.17153 0.44351 0.37532 0.0
O425 O 0.0904 0.3968 0.3806 0.0
O426 O 1.02667 0.26861 0.39626 0.0
O427 O 1.03279 0.27998 0.33825 0.0
O428 O 0.16885 0.35581 0.35015 0.0
O429 O 0.11664 0.36233 0.31965 0.0
O430 O 0.12438 0.27544 0.38889 0.0
O431 O 0.20348 0.33183 0.39216 0.0
H432 H 0.3479 0.43925 0.41549 0.0
H433 H 0.43176 0.4933 0.39959 0.0
H434 H 0.40258 0.60976 0.38902 0.0
H435 H 0.31934 0.55588 0.4041 0.0
H436 H 1.02961 0.18786 0.3927 0.0
H437 H 0.97744 0.10081 0.39565 0.0
H438 H 0.87335 0.11268 0.33029 0.0
H439 H 0.92501 0.19962 0.32829 0.0
Sm440 Sm 0.83602 0.18324 0.91216 0.0
Sm441 Sm 0.79834 0.08587 0.88056 0.0
C442 C 0.86086 0.27257 0.93188 0.0
C443 C 0.88296 0.3229 0.91873 0.0
C444 C 0.8778 0.33384 0.88292 0.0
C445 C 0.89433 0.38152 0.87231 0.0
C446 C 0.91639 0.41957 0.89722 0.0
C447 C 0.92313 0.40842 0.93269 0.0
C448 C 0.90659 0.36078 0.94325 0.0
C449 C 0.80484 0.10696 0.96155 0.0
C450 C 0.72538 0.1273 0.88561 0.0
C451 C 0.77739 0.99544 0.87156 0.0
C452 C 0.80099 0.96608 0.87188 0.0
C453 C 0.84371 0.98041 0.8908 0.0
C454 C 0.86297 0.94984 0.89328 0.0
C455 C 0.8397 0.90422 0.87709 0.0
C456 C 0.79782 0.89094 0.85718 0.0
C457 C 0.77875 0.92145 0.85467 0.0
C458 C 0.81942 0.15284 0.82749 0.0
C459 C 0.91526 0.1577 0.89186 0.0
O460 O 0.88833 0.25399 0.93649 0.0
O461 O 0.81901 0.24168 0.91904 0.0
O462 O 0.78459 0.10884 0.9335 0.0
O463 O 0.84386 0.14756 0.96559 0.0
O464 O 0.76502 0.16901 0.88764 0.0
O465 O 0.72678 0.08681 0.88714 0.0
O466 O 0.77445 1.01327 0.90245 0.0
O467 O 0.78704 0.02528 0.84475 0.0
O468 O 0.84462 0.15979 0.85562 0.0
O469 O 0.78289 0.10958 0.82687 0.0
O470 O 0.87957 0.11271 0.89302 0.0
O471 O 0.90603 0.19298 0.89134 0.0
H472 H 0.85993 0.30543 0.86334 0.0
H473 H 0.88903 0.38845 0.84463 0.0
H474 H 0.93927 0.43625 0.95286 0.0
H475 H 0.91088 0.35337 0.97106 0.0
H476 H 0.86156 1.01473 0.90436 0.0
H477 H 0.8951 0.96123 0.90893 0.0
H478 H 0.77936 0.85657 0.84375 0.0
H479 H 0.74589 0.90967 0.83985 0.0
C480 C 0.23394 0.98628 0.12452 0.0
C481 C 0.18536 0.95094 0.12612 0.0
H482 H 0.2861 0.06069 0.12659 0.0
C483 C 0.15137 0.96569 0.13073 0.0
H484 H 0.26126 0.97657 0.12073 0.0
C485 C 0.16589 1.01457 0.13434 0.0
C486 C 0.2147 0.04971 0.13362 0.0
H487 H 0.11367 0.9395 0.13215 0.0
H488 H 0.13897 1.02473 0.13855 0.0
C489 C 0.24833 0.03477 0.12818 0.0
C490 C 0.20947 0.14199 0.62565 0.0
C491 C 0.25527 0.16809 0.64074 0.0
H492 H 0.14207 0.13824 0.6167 0.0
C493 C 0.26602 0.20809 0.66225 0.0
H494 H 0.20021 0.11095 0.60902 0.0
C495 C 0.23272 0.22306 0.66736 0.0
C496 C 0.18786 0.19912 0.65048 0.0
H497 H 0.30067 0.22838 0.67494 0.0
H498 H 0.24266 0.25415 0.68409 0.0
C499 C 0.17615 0.15758 0.63025 0.0
C500 C 1.01914 0.22634 0.12602 0.0
C501 C 1.00276 0.17857 0.1359 0.0
H502 H 0.07821 0.29493 0.11381 0.0
C503 C 0.03681 0.16359 0.13998 0.0
H504 H 0.99427 0.23909 0.12151 0.0
C505 C 0.08602 0.19613 0.13519 0.0
C506 C 0.10206 0.24422 0.12612 0.0
H507 H 1.02554 0.12699 0.14752 0.0
H508 H 0.11138 0.18388 0.13916 0.0
C509 C 0.06771 0.25847 0.12127 0.0
C510 C 0.90478 0.03508 0.63445 0.0
C511 C 0.85659 1.0002 0.6287 0.0
H512 H 0.95708 0.11011 0.63687 0.0
C513 C 0.82409 1.0158 0.62054 0.0
H514 H 0.93089 1.0244 0.64056 0.0
C515 C 0.83903 0.06457 0.61839 0.0
C516 C 0.88703 0.09955 0.62428 0.0
H517 H 0.78661 0.99025 0.61653 0.0
H518 H 0.81253 0.07476 0.61234 0.0
C519 C 0.91989 0.08423 0.6321 0.0
C520 C 0.8451 0.82444 0.1363 0.0
C521 C 0.89272 0.85928 0.14286 0.0
H522 H 0.77454 0.80899 0.1247 0.0
C523 C 0.90559 0.908 0.14094 0.0
H524 H 0.83412 0.7867 0.13644 0.0
C525 C 0.87082 0.92122 0.13399 0.0
C526 C 0.82283 0.88585 0.12858 0.0
H527 H 0.94217 0.93572 0.14562 0.0
H528 H 0.88124 0.9588 0.13363 0.0
C529 C 0.81086 0.83744 0.12926 0.0
C530 C 0.99904 0.79399 0.6164 0.0
C531 C 0.96379 0.80663 0.62275 0.0
H532 H 0.07309 0.81578 0.61505 0.0
C533 C 0.97857 0.85453 0.63145 0.0
H534 H 0.98931 0.75756 0.60954 0.0
C535 C 1.02755 0.88853 0.63454 0.0
C536 C 0.06265 0.87538 0.62856 0.0
H537 H 0.95241 0.86547 0.6366 0.0
H538 H 0.03794 0.92506 0.64158 0.0
C539 C 0.04748 0.82767 0.61925 0.0
C540 C 0.09145 0.91284 0.38398 0.0
C541 C 0.10598 0.87953 0.39266 0.0
H542 H 1.03232 0.92431 0.37382 0.0
C543 C 0.07052 0.83156 0.3987 0.0
H544 H 0.11775 0.95002 0.3791 0.0
C545 C 1.02217 0.81696 0.39568 0.0
C546 C 1.00724 0.84973 0.38654 0.0
H547 H 0.08 0.80468 0.40551 0.0
H548 H 0.9964 0.77942 0.39971 0.0
C549 C 0.04252 0.89801 0.38073 0.0
C550 C 0.17394 0.03627 0.87006 0.0
C551 C 0.18668 1.00031 0.86944 0.0
H552 H 0.19795 0.1114 0.87631 0.0
C553 C 0.23436 1.01346 0.87644 0.0
H554 H 0.13747 0.02735 0.86484 0.0
C555 C 0.26858 0.06103 0.88307 0.0
C556 C 0.25641 0.0973 0.88298 0.0
H557 H 0.24537 0.98675 0.87721 0.0
H558 H 0.30488 0.06925 0.88813 0.0
C559 C 0.20854 0.08438 0.87665 0.0
C560 C 0.15076 0.2005 0.38391 0.0
C561 C 0.18411 0.24932 0.38916 0.0
H562 H 0.13959 0.1295 0.37578 0.0
C563 C 0.23278 0.26314 0.3915 0.0
H564 H 0.11302 0.18852 0.38194 0.0
C565 C 0.24789 0.22959 0.38795 0.0
C566 C 0.21494 0.18095 0.38192 0.0
H567 H 0.25967 0.30023 0.3958 0.0
H568 H 0.28569 0.24192 0.39012 0.0
C569 C 0.166 0.16665 0.38045 0.0
C570 C 1.02982 0.15133 0.88075 0.0
C571 C 0.06506 0.19988 0.88514 0.0
H572 H 0.95458 0.09927 0.87991 0.0
C573 C 0.05015 0.23319 0.89226 0.0
H574 H 0.04007 0.12466 0.87536 0.0
C575 C 1.00181 0.21881 0.89481 0.0
C576 C 0.96638 0.17052 0.89032 0.0
H577 H 0.07593 0.27093 0.89512 0.0
H578 H 0.99236 0.24609 0.90012 0.0
C579 C 0.98089 0.13671 0.88354 0.0
C580 C 0.898 1.01237 0.37056 0.0
C581 C 0.88528 0.04834 0.3707 0.0
H582 H 0.87394 0.93711 0.37608 0.0
C583 C 0.83778 0.03522 0.37855 0.0
H584 H 0.93438 1.02132 0.36472 0.0
C585 C 0.80364 0.98761 0.38512 0.0
C586 C 0.81571 0.95129 0.38415 0.0
H587 H 0.82686 0.06196 0.37996 0.0
H588 H 0.76743 0.97938 0.3908 0.0
C589 C 0.86346 0.96419 0.37711 0.0
C590 C 0.83921 0.78717 0.89209 0.0
C591 C 0.88786 0.80089 0.88959 0.0
H592 H 0.78636 0.80846 0.8907 0.0
C593 C 0.92126 0.84969 0.88411 0.0
H594 H 0.81227 0.75011 0.89658 0.0
C595 C 0.90607 0.88359 0.88056 0.0
C596 C 0.85714 0.86935 0.88215 0.0
H597 H 0.95899 0.8616 0.88202 0.0
H598 H 0.93251 0.92071 0.87571 0.0
C599 C 0.82416 0.82075 0.88844 0.0
C600 C 0.10055 0.62217 0.1157 0.0
C601 C 0.12734 0.65801 0.14106 0.0
H602 H 0.09089 0.55928 0.08819 0.0
C603 C 0.16094 0.65331 0.16204 0.0
H604 H 0.07513 0.62533 0.09861 0.0
C605 C 0.1699 0.61558 0.1563 0.0
C606 C 0.14614 0.58171 0.1289 0.0
H607 H 0.18229 0.68046 0.18172 0.0
H608 H 0.19698 0.61415 0.17251 0.0
C609 C 0.10993 0.58445 0.1096 0.0
C610 C 0.55329 0.10094 0.61509 0.0
C611 C 0.59232 0.14179 0.6305 0.0
H612 H 0.47749 0.06257 0.6049 0.0
C613 C 0.58278 0.17294 0.65078 0.0
H614 H 0.55915 0.07591 0.59954 0.0
C615 C 0.53635 0.16524 0.65377 0.0
C616 C 0.49774 0.12592 0.63693 0.0
H617 H 0.6116 0.20501 0.66271 0.0
H618 H 0.53094 0.19145 0.66811 0.0
C619 C 0.50639 0.0929 0.61849 0.0
C620 C 0.42844 0.57259 0.14049 0.0
C621 C 0.46958 0.57976 0.12213 0.0
H622 H 0.35746 0.52291 0.15793 0.0
C623 C 0.47113 0.53888 0.11024 0.0
H624 H 0.42545 0.60282 0.14984 0.0
C625 C 0.43175 0.49245 0.11507 0.0
C626 C 0.38973 0.48585 0.13161 0.0
H627 H 0.50245 0.5428 0.09645 0.0
H628 H 0.43331 0.46209 0.10416 0.0
C629 C 0.3892 0.5265 0.14503 0.0
C630 C 0.90297 0.43526 0.65679 0.0
C631 C 0.92488 0.46844 0.62854 0.0
H632 H 0.89235 0.37107 0.68244 0.0
C633 C 0.95974 0.46515 0.60764 0.0
H634 H 0.87705 0.43714 0.67422 0.0
C635 C 0.96957 0.42764 0.61317 0.0
C636 C 0.94454 0.39248 0.63953 0.0
H637 H 0.97733 0.48972 0.58552 0.0
H638 H 0.99389 0.42408 0.595 0.0
C639 C 0.91231 0.39767 0.66194 0.0
C640 C 0.56421 0.95196 0.12184 0.0
C641 C 0.5721 0.91607 0.13608 0.0
H642 H 0.51227 0.97187 0.10649 0.0
C643 C 0.53264 0.87388 0.14926 0.0
H644 H 0.59376 0.9846 0.11107 0.0
C645 C 0.48628 0.86654 0.14673 0.0
C646 C 0.47767 0.90096 0.13052 0.0
H647 H 0.5374 0.8454 0.1603 0.0
H648 H 0.45691 0.83253 0.1557 0.0
C649 C 0.51742 0.94433 0.11884 0.0
C650 C 0.67776 0.52236 0.64841 0.0
C651 C 0.67706 0.56296 0.63514 0.0
H652 H 0.64141 0.44621 0.65391 0.0
C653 C 0.63453 0.55644 0.6197 0.0
H654 H 0.70986 0.52587 0.66046 0.0
C655 C 0.59472 0.51006 0.61579 0.0
C656 C 0.59636 0.46918 0.62758 0.0
H657 H 0.63284 0.58679 0.60891 0.0
H658 H 0.56303 0.50616 0.60277 0.0
C659 C 0.63816 0.47638 0.6448 0.0
C660 C 0.43489 0.95724 0.39982 0.0
C661 C 0.39252 0.92176 0.38377 0.0
H662 H 0.50594 0.97766 0.41737 0.0
C663 C 0.39169 0.8805 0.37025 0.0
H664 H 0.43671 0.98925 0.4108 0.0
C665 C 0.43093 0.87365 0.37416 0.0
C666 C 0.47257 0.90774 0.39188 0.0
H667 H 0.35974 0.85229 0.35772 0.0
H668 H 0.4275 0.84025 0.3648 0.0
C669 C 0.47437 0.95021 0.40398 0.0
C670 C 0.55853 0.46016 0.90605 0.0
C671 C 0.59587 0.45863 0.88735 0.0
H672 H 0.48339 0.42341 0.91897 0.0
C673 C 0.58358 0.42077 0.86299 0.0
H674 H 0.56639 0.48854 0.92514 0.0
C675 C 0.53634 0.38358 0.85978 0.0
C676 C 0.49961 0.38342 0.88022 0.0
H677 H 0.61082 0.41881 0.84727 0.0
H678 H 0.5288 0.3536 0.84239 0.0
C679 C 0.51082 0.42295 0.90243 0.0
C680 C 0.17147 0.57009 0.35912 0.0
C681 C 0.14722 0.58044 0.38605 0.0
H682 H 0.18376 0.51726 0.33421 0.0
C683 C 0.11035 0.54157 0.40517 0.0
H684 H 0.19908 0.59852 0.34305 0.0
C685 C 0.10066 0.49431 0.39933 0.0
C686 C 0.12779 0.48497 0.37439 0.0
H687 H 0.0909 0.54787 0.42622 0.0
H688 H 0.07457 0.46577 0.41623 0.0
C689 C 0.16218 0.52323 0.35362 0.0
C690 C 0.63722 0.0925 0.89991 0.0
C691 C 0.67972 0.12843 0.88414 0.0
H692 H 0.5659 0.07148 0.91745 0.0
C693 C 0.68056 0.1699 0.87108 0.0
H694 H 0.63539 0.06031 0.91053 0.0
C695 C 0.64114 0.17648 0.87514 0.0
C696 C 0.59934 0.14191 0.8926 0.0
H697 H 0.71261 0.19843 0.85877 0.0
H698 H 0.64452 0.20999 0.86612 0.0
C699 C 0.59758 0.09926 0.90426 0.0
C700 C 0.48889 0.62851 0.3604 0.0
C701 C 0.47608 0.59064 0.38492 0.0
H702 H 0.54418 0.69562 0.33988 0.0
C703 C 0.51299 0.58887 0.40393 0.0
H704 H 0.46197 0.63063 0.34446 0.0
C705 C 0.5608 0.62594 0.40048 0.0
C706 C 0.5725 0.66555 0.37815 0.0
H707 H 0.50469 0.56046 0.42315 0.0
H708 H 0.58788 0.62536 0.41728 0.0
C709 C 0.53623 0.66556 0.35736 0.0
C710 C 0.97539 0.55697 0.89598 0.0
C711 C 0.94244 0.56356 0.87565 0.0
H712 H 0.99343 0.50662 0.9187 0.0
C713 C 0.90413 0.52308 0.85954 0.0
H714 H 1.00492 0.5872 0.90916 0.0
C715 C 0.89725 0.47707 0.86514 0.0
C716 C 0.92832 0.46973 0.88729 0.0
H717 H 0.87786 0.52669 0.84385 0.0
H718 H 0.86582 0.44698 0.85368 0.0
C719 C 0.96829 0.51058 0.90187 0.0
C720 C 0.16795 0.3811 0.25386 0.0
C721 C 0.1879 0.37877 0.28705 0.0
H722 H 0.17214 0.3804 0.19612 0.0
C723 C 0.23161 0.37943 0.28686 0.0
H724 H 0.13442 0.38103 0.25303 0.0
C725 C 0.25356 0.37984 0.25413 0.0
C726 C 0.23189 0.37889 0.22093 0.0
H727 H 0.24797 0.37792 0.31191 0.0
H728 H 0.28644 0.37865 0.2549 0.0
C729 C 0.18951 0.38081 0.22117 0.0
C730 C 0.84052 0.18134 0.72755 0.0
C731 C 0.88482 0.22385 0.7277 0.0
H732 H 0.78455 0.12604 0.75911 0.0
C733 C 0.90467 0.24559 0.76104 0.0
H734 H 0.82418 0.16394 0.70236 0.0
C735 C 0.88236 0.22372 0.79355 0.0
C736 C 0.83937 0.17989 0.79347 0.0
H737 H 0.9386 0.27865 0.76214 0.0
H738 H 0.89961 0.24029 0.81874 0.0
C739 C 0.81788 0.15973 0.76012 0.0
C740 C 0.67057 0.82263 0.22524 0.0
C741 C 0.69623 0.87271 0.22249 0.0
H742 H 0.64638 0.76183 0.26045 0.0
C743 C 0.71119 0.90019 0.25421 0.0
H744 H 0.65868 0.80074 0.20117 0.0
C745 C 0.70332 0.87823 0.28795 0.0
C746 C 0.68128 0.82821 0.2907 0.0
H747 H 0.73064 0.93896 0.25286 0.0
H748 H 0.71744 0.90065 0.31161 0.0
C749 C 0.66355 0.80051 0.25913 0.0
C750 C 0.81562 0.66954 0.75604 0.0
C751 C 0.83671 0.67018 0.72256 0.0
H752 H 0.82193 0.67142 0.81376 0.0
C753 C 0.87891 0.6679 0.72226 0.0
H754 H 0.78292 0.67105 0.75724 0.0
C755 C 0.90077 0.66738 0.75468 0.0
C756 C 0.88135 0.66987 0.78815 0.0
H757 H 0.89586 0.66809 0.69699 0.0
H758 H 0.93412 0.66712 0.75341 0.0
C759 C 0.83788 0.66973 0.78849 0.0
C760 C 0.23432 0.86986 0.22873 0.0
C761 C 0.19077 0.82656 0.22877 0.0
H762 H 0.28884 0.92603 0.26037 0.0
C763 C 0.17074 0.80452 0.2621 0.0
H764 H 0.25073 0.88756 0.20357 0.0
C765 C 0.19208 0.8268 0.29467 0.0
C766 C 0.23433 0.87128 0.29466 0.0
H767 H 0.13731 0.77091 0.26314 0.0
H768 H 0.17468 0.80996 0.31982 0.0
C769 C 0.25605 0.89182 0.26135 0.0
C770 C 0.40163 0.24805 0.75899 0.0
C771 C 0.39891 0.22584 0.79234 0.0
H772 H 0.4002 0.24221 0.70131 0.0
C773 C 0.39902 0.18235 0.79254 0.0
H774 H 0.40192 0.28178 0.75785 0.0
C775 C 0.39879 0.16009 0.76005 0.0
C776 C 0.3977 0.18052 0.72672 0.0
H777 H 0.39724 0.16455 0.81776 0.0
H778 H 0.39686 0.12558 0.76115 0.0
C779 C 0.40064 0.22544 0.72653 0.0
C780 C 0.2812 0.26854 0.97582 0.0
C781 C 0.32548 0.27228 0.98409 0.0
H782 H 0.22768 0.28682 0.99064 0.0
C783 C 0.34978 0.29816 0.01488 0.0
H784 H 0.26161 0.24875 0.95224 0.0
C785 C 0.33067 0.32028 0.03662 0.0
C786 C 0.28641 0.31683 0.02845 0.0
H787 H 0.38422 0.3023 0.02167 0.0
H788 H 0.35094 0.34057 0.05983 0.0
C789 C 0.26179 0.29042 0.99777 0.0
C790 C 0.08134 0.33785 0.51985 0.0
C791 C 0.07329 0.33391 0.48252 0.0
H792 H 0.05059 0.32802 0.57253 0.0
C793 C 1.02571 0.31368 0.47056 0.0
H794 H 0.11745 0.35537 0.53022 0.0
C795 C 0.98711 0.29253 0.49488 0.0
C796 C 0.99514 0.2954 0.53219 0.0
H797 H 1.01805 0.31415 0.44238 0.0
H798 H 0.951 0.27539 0.48452 0.0
C799 C 0.04282 0.32098 0.54423 0.0
C800 C 0.79709 1.01444 0.03061 0.0
C801 C 0.74899 0.97807 0.02744 0.0
H802 H 0.85252 0.08419 0.01299 0.0
C803 C 0.72013 0.9844 1.00238 0.0
H804 H 0.81999 1.01097 0.0502 0.0
C805 C 0.7387 0.02594 0.98102 0.0
C806 C 0.78646 0.063 0.98464 0.0
H807 H 0.68275 0.95758 0.99986 0.0
H808 H 0.71518 0.02947 0.96208 0.0
C809 C 0.81557 0.05661 0.00962 0.0
C810 C 0.80687 0.75689 0.49861 0.0
C811 C 0.78207 0.73142 0.52965 0.0
H812 H 0.8076 0.79765 0.45228 0.0
C813 C 0.73803 0.72864 0.53761 0.0
H814 H 0.84085 0.75997 0.49164 0.0
C815 C 0.71931 0.75055 0.5153 0.0
C816 C 0.74375 0.77538 0.48411 0.0
H817 H 0.71758 0.70896 0.56104 0.0
H818 H 0.68505 0.74702 0.52197 0.0
C819 C 0.78782 0.77847 0.47606 0.0
C820 C 0.99004 0.71311 0.02046 0.0
C821 C 0.99868 0.71773 0.98316 0.0
H822 H 1.01991 0.72244 0.07319 0.0
C823 C 0.04656 0.73891 0.97152 0.0
H824 H 0.95376 0.69486 0.03063 0.0
C825 C 0.08471 0.76024 0.99612 0.0
C826 C 0.07606 0.75672 0.03341 0.0
H827 H 0.05483 0.73905 0.94343 0.0
H828 H 0.121 0.7781 0.98597 0.0
C829 C 1.02818 0.73022 0.04506 0.0
C830 C 0.26167 0.98555 0.51847 0.0
C831 C 0.28706 0.9849 0.48781 0.0
H832 H 0.26033 0.02541 0.56468 0.0
C833 C 0.33134 0.02613 0.48023 0.0
H834 H 0.2275 0.95465 0.52513 0.0
C835 C 0.34983 0.06665 0.50265 0.0
C836 C 0.32478 0.06704 0.53345 0.0
H837 H 0.35214 0.02695 0.45703 0.0
H838 H 0.38438 0.09729 0.49639 0.0
C839 C 0.28042 0.02612 0.54107 0.0
loop_
_geom_bond_atom_site_label_1
_geom_bond_atom_site_label_2
_geom_bond_distance
_geom_bond_site_symmetry_2
_ccdc_geom_bond_type
Sm0 C2 2.846 . S
Sm0 O20 2.543 . S
Sm0 O21 2.450 . S
Sm0 O22 2.681 . S
Sm0 O23 2.464 . S
Sm0 O24 2.396 . S
Sm0 O28 2.386 . S
Sm0 O31 2.408 . S
Sm1 C11 2.846 . S
Sm1 O22 2.386 . S
Sm1 O25 2.408 . S
Sm1 O26 2.543 . S
Sm1 O27 2.450 . S
Sm1 O28 2.681 . S
Sm1 O29 2.464 . S
Sm1 O30 2.396 . S
C2 Sm0 2.846 . S
C2 C3 1.506 . S
C2 O20 1.261 . S
C2 O21 1.242 . S
C3 C2 1.506 . S
C3 C4 1.358 . S
C3 C8 1.382 . S
C4 C3 1.358 . S
C4 C5 1.385 . S
C4 H32 0.930 . S
C5 C4 1.385 . S
C5 C6 1.395 . S
C5 H33 0.929 . S
C6 C5 1.395 . S
C6 C7 1.335 . S
C7 C6 1.335 . S
C7 C8 1.398 . S
C7 H34 0.930 . S
C8 C3 1.382 . S
C8 C7 1.398 . S
C8 H35 0.929 . S
C9 O22 1.271 . S
C9 O23 1.251 . S
C10 O24 1.252 . S
C10 O25 1.272 . S
C11 Sm1 2.846 . S
C11 C12 1.506 . S
C11 O26 1.261 . S
C11 O27 1.242 . S
C12 C11 1.506 . S
C12 C13 1.358 . S
C12 C17 1.382 . S
C13 C12 1.358 . S
C13 C14 1.385 . S
C13 H36 0.930 . S
C14 C13 1.385 . S
C14 C15 1.395 . S
C14 H37 0.929 . S
C15 C14 1.395 . S
C15 C16 1.335 . S
C16 C15 1.335 . S
C16 C17 1.398 . S
C16 H38 0.930 . S
C17 C12 1.382 . S
C17 C16 1.398 . S
C17 H39 0.929 . S
C18 O28 1.271 . S
C18 O29 1.251 . S
C19 O30 1.252 . S
C19 O31 1.272 . S
O20 Sm0 2.543 . S
O20 C2 1.261 . S
O21 Sm0 2.450 . S
O21 C2 1.242 . S
O22 Sm0 2.681 . S
O22 Sm1 2.386 . S
O22 C9 1.271 . S
O23 Sm0 2.464 . S
O23 C9 1.251 . S
O24 Sm0 2.396 . S
O24 C10 1.252 . S
O25 Sm1 2.408 . S
O25 C10 1.272 . S
O26 Sm1 2.543 . S
O26 C11 1.261 . S
O27 Sm1 2.450 . S
O27 C11 1.242 . S
O28 Sm0 2.386 . S
O28 Sm1 2.681 . S
O28 C18 1.271 . S
O29 Sm1 2.464 . S
O29 C18 1.251 . S
O30 Sm1 2.396 . S
O30 C19 1.252 . S
O31 Sm0 2.408 . S
O31 C19 1.272 . S
H32 C4 0.930 . S
H33 C5 0.929 . S
H34 C7 0.930 . S
H35 C8 0.929 . S
H36 C13 0.930 . S
H37 C14 0.929 . S
H38 C16 0.930 . S
H39 C17 0.929 . S
Sm40 C42 2.846 . S
Sm40 O60 2.543 . S
Sm40 O61 2.450 . S
Sm40 O62 2.681 . S
Sm40 O63 2.464 . S
Sm40 O64 2.396 . S
Sm40 O68 2.386 . S
Sm40 O71 2.408 . S
Sm41 C51 2.846 . S
Sm41 O62 2.386 . S
Sm41 O65 2.408 . S
Sm41 O66 2.543 . S
Sm41 O67 2.450 . S
Sm41 O68 2.681 . S
Sm41 O69 2.464 . S
Sm41 O70 2.396 . S
C42 Sm40 2.846 . S
C42 C43 1.506 . S
C42 O60 1.261 . S
C42 O61 1.242 . S
C43 C42 1.506 . S
C43 C44 1.358 . S
C43 C48 1.382 . S
C44 C43 1.358 . S
C44 C45 1.385 . S
C44 H72 0.930 . S
C45 C44 1.385 . S
C45 C46 1.395 . S
C45 H73 0.929 . S
C46 C45 1.395 . S
C46 C47 1.335 . S
C47 C46 1.335 . S
C47 C48 1.398 . S
C47 H74 0.930 . S
C48 C43 1.382 . S
C48 C47 1.398 . S
C48 H75 0.929 . S
C49 O62 1.271 . S
C49 O63 1.251 . S
C50 O64 1.252 . S
C50 O65 1.272 . S
C51 Sm41 2.846 . S
C51 C52 1.506 1_655 S
C51 O66 1.261 . S
C51 O67 1.242 . S
C52 C51 1.506 1_455 S
C52 C53 1.358 . S
C52 C57 1.382 . S
C53 C52 1.358 . S
C53 C54 1.385 . S
C53 H76 0.930 . S
C54 C53 1.385 . S
C54 C55 1.395 . S
C54 H77 0.929 . S
C55 C54 1.395 . S
C55 C56 1.335 . S
C56 C55 1.335 . S
C56 C57 1.398 . S
C56 H78 0.930 . S
C57 C52 1.382 . S
C57 C56 1.398 . S
C57 H79 0.929 . S
C58 O68 1.271 . S
C58 O69 1.251 . S
C59 O70 1.252 . S
C59 O71 1.272 . S
O60 Sm40 2.543 . S
O60 C42 1.261 . S
O61 Sm40 2.450 . S
O61 C42 1.242 . S
O62 Sm40 2.681 . S
O62 Sm41 2.386 . S
O62 C49 1.271 . S
O63 Sm40 2.464 . S
O63 C49 1.251 . S
O64 Sm40 2.396 . S
O64 C50 1.252 . S
O65 Sm41 2.408 . S
O65 C50 1.272 . S
O66 Sm41 2.543 . S
O66 C51 1.261 . S
O67 Sm41 2.450 . S
O67 C51 1.242 . S
O68 Sm40 2.386 . S
O68 Sm41 2.681 . S
O68 C58 1.271 . S
O69 Sm41 2.464 . S
O69 C58 1.251 . S
O70 Sm41 2.396 . S
O70 C59 1.252 . S
O71 Sm40 2.408 . S
O71 C59 1.272 . S
H72 C44 0.930 . S
H73 C45 0.929 . S
H74 C47 0.930 . S
H75 C48 0.929 . S
H76 C53 0.930 . S
H77 C54 0.929 . S
H78 C56 0.930 . S
H79 C57 0.929 . S
Sm80 C82 2.846 . S
Sm80 O100 2.543 . S
Sm80 O101 2.450 . S
Sm80 O102 2.681 . S
Sm80 O103 2.464 . S
Sm80 O104 2.396 . S
Sm80 O108 2.386 . S
Sm80 O111 2.408 . S
Sm81 C91 2.846 . S
Sm81 O102 2.386 . S
Sm81 O105 2.408 . S
Sm81 O106 2.543 . S
Sm81 O107 2.450 . S
Sm81 O108 2.681 . S
Sm81 O109 2.464 . S
Sm81 O110 2.396 . S
C82 Sm80 2.846 . S
C82 C83 1.506 . S
C82 O100 1.261 . S
C82 O101 1.242 . S
C83 C82 1.506 . S
C83 C84 1.358 . S
C83 C88 1.382 . S
C84 C83 1.358 . S
C84 C85 1.385 . S
C84 H112 0.930 . S
C85 C84 1.385 . S
C85 C86 1.395 . S
C85 H113 0.929 . S
C86 C85 1.395 . S
C86 C87 1.335 . S
C87 C86 1.335 . S
C87 C88 1.398 . S
C87 H114 0.930 . S
C88 C83 1.382 . S
C88 C87 1.398 . S
C88 H115 0.929 . S
C89 O102 1.271 . S
C89 O103 1.251 . S
C90 O104 1.252 . S
C90 O105 1.272 . S
C91 Sm81 2.846 . S
C91 C92 1.506 1_565 S
C91 O106 1.261 . S
C91 O107 1.242 . S
C92 C91 1.506 1_545 S
C92 C93 1.358 . S
C92 C97 1.382 . S
C93 C92 1.358 . S
C93 C94 1.385 . S
C93 H116 0.930 . S
C94 C93 1.385 . S
C94 C95 1.395 . S
C94 H117 0.929 . S
C95 C94 1.395 . S
C95 C96 1.335 . S
C96 C95 1.335 . S
C96 C97 1.398 . S
C96 H118 0.930 . S
C97 C92 1.382 . S
C97 C96 1.398 . S
C97 H119 0.929 . S
C98 O108 1.271 . S
C98 O109 1.251 . S
C99 O110 1.252 . S
C99 O111 1.272 . S
O100 Sm80 2.543 . S
O100 C82 1.261 . S
O101 Sm80 2.450 . S
O101 C82 1.242 . S
O102 Sm80 2.681 . S
O102 Sm81 2.386 . S
O102 C89 1.271 . S
O103 Sm80 2.464 . S
O103 C89 1.251 . S
O104 Sm80 2.396 . S
O104 C90 1.252 . S
O105 Sm81 2.408 . S
O105 C90 1.272 . S
O106 Sm81 2.543 . S
O106 C91 1.261 . S
O107 Sm81 2.450 . S
O107 C91 1.242 . S
O108 Sm80 2.386 . S
O108 Sm81 2.681 . S
O108 C98 1.271 . S
O109 Sm81 2.464 . S
O109 C98 1.251 . S
O110 Sm81 2.396 . S
O110 C99 1.252 . S
O111 Sm80 2.408 . S
O111 C99 1.272 . S
H112 C84 0.930 . S
H113 C85 0.929 . S
H114 C87 0.930 . S
H115 C88 0.929 . S
H116 C93 0.930 . S
H117 C94 0.929 . S
H118 C96 0.930 . S
H119 C97 0.929 . S
Sm120 C122 2.846 . S
Sm120 O140 2.543 . S
Sm120 O141 2.450 . S
Sm120 O142 2.681 . S
Sm120 O143 2.464 . S
Sm120 O144 2.396 . S
Sm120 O148 2.386 . S
Sm120 O151 2.408 . S
Sm121 C131 2.846 . S
Sm121 O142 2.386 . S
Sm121 O145 2.408 . S
Sm121 O146 2.543 . S
Sm121 O147 2.450 . S
Sm121 O148 2.681 . S
Sm121 O149 2.464 . S
Sm121 O150 2.396 . S
C122 Sm120 2.846 . S
C122 C123 1.506 . S
C122 O140 1.261 . S
C122 O141 1.242 . S
C123 C122 1.506 . S
C123 C124 1.358 . S
C123 C128 1.382 . S
C124 C123 1.358 . S
C124 C125 1.385 . S
C124 H152 0.930 . S
C125 C124 1.385 . S
C125 C126 1.395 . S
C125 H153 0.929 . S
C126 C125 1.395 . S
C126 C127 1.335 . S
C127 C126 1.335 . S
C127 C128 1.398 . S
C127 H154 0.930 . S
C128 C123 1.382 . S
C128 C127 1.398 . S
C128 H155 0.929 . S
C129 O142 1.271 . S
C129 O143 1.251 . S
C130 O144 1.252 . S
C130 O145 1.272 . S
C131 Sm121 2.846 . S
C131 C132 1.506 . S
C131 O146 1.261 . S
C131 O147 1.242 . S
C132 C131 1.506 . S
C132 C133 1.358 . S
C132 C137 1.382 . S
C133 C132 1.358 . S
C133 C134 1.385 . S
C133 H156 0.930 . S
C134 C133 1.385 . S
C134 C135 1.395 . S
C134 H157 0.929 . S
C135 C134 1.395 . S
C135 C136 1.335 . S
C136 C135 1.335 . S
C136 C137 1.398 . S
C136 H158 0.930 . S
C137 C132 1.382 . S
C137 C136 1.398 . S
C137 H159 0.929 . S
C138 O148 1.271 . S
C138 O149 1.251 . S
C139 O150 1.252 . S
C139 O151 1.272 . S
O140 Sm120 2.543 . S
O140 C122 1.261 . S
O141 Sm120 2.450 . S
O141 C122 1.242 . S
O142 Sm120 2.681 . S
O142 Sm121 2.386 . S
O142 C129 1.271 . S
O143 Sm120 2.464 . S
O143 C129 1.251 . S
O144 Sm120 2.396 . S
O144 C130 1.252 . S
O145 Sm121 2.408 . S
O145 C130 1.272 . S
O146 Sm121 2.543 . S
O146 C131 1.261 . S
O147 Sm121 2.450 . S
O147 C131 1.242 . S
O148 Sm120 2.386 . S
O148 Sm121 2.681 . S
O148 C138 1.271 . S
O149 Sm121 2.464 . S
O149 C138 1.251 . S
O150 Sm121 2.396 . S
O150 C139 1.252 . S
O151 Sm120 2.408 . S
O151 C139 1.272 . S
H152 C124 0.930 . S
H153 C125 0.929 . S
H154 C127 0.930 . S
H155 C128 0.929 . S
H156 C133 0.930 . S
H157 C134 0.929 . S
H158 C136 0.930 . S
H159 C137 0.929 . S
Sm160 C162 2.846 . S
Sm160 O180 2.543 . S
Sm160 O181 2.450 . S
Sm160 O182 2.681 . S
Sm160 O183 2.464 . S
Sm160 O184 2.396 . S
Sm160 O188 2.386 . S
Sm160 O191 2.408 . S
Sm161 C171 2.846 . S
Sm161 O182 2.386 . S
Sm161 O185 2.408 . S
Sm161 O186 2.543 . S
Sm161 O187 2.450 . S
Sm161 O188 2.681 . S
Sm161 O189 2.464 . S
Sm161 O190 2.396 . S
C162 Sm160 2.846 . S
C162 C163 1.506 . S
C162 O180 1.261 . S
C162 O181 1.242 . S
C163 C162 1.506 . S
C163 C164 1.358 . S
C163 C168 1.382 . S
C164 C163 1.358 . S
C164 C165 1.385 . S
C164 H192 0.930 . S
C165 C164 1.385 . S
C165 C166 1.395 . S
C165 H193 0.929 . S
C166 C165 1.395 . S
C166 C167 1.335 . S
C167 C166 1.335 . S
C167 C168 1.398 . S
C167 H194 0.930 . S
C168 C163 1.382 . S
C168 C167 1.398 . S
C168 H195 0.929 . S
C169 O182 1.271 . S
C169 O183 1.251 . S
C170 O184 1.252 . S
C170 O185 1.272 . S
C171 Sm161 2.846 . S
C171 C172 1.506 1_455 S
C171 O186 1.261 . S
C171 O187 1.242 . S
C172 C171 1.506 1_655 S
C172 C173 1.358 . S
C172 C177 1.382 . S
C173 C172 1.358 . S
C173 C174 1.385 . S
C173 H196 0.930 . S
C174 C173 1.385 . S
C174 C175 1.395 . S
C174 H197 0.929 . S
C175 C174 1.395 . S
C175 C176 1.335 . S
C176 C175 1.335 . S
C176 C177 1.398 . S
C176 H198 0.930 . S
C177 C172 1.382 . S
C177 C176 1.398 . S
C177 H199 0.929 . S
C178 O188 1.271 . S
C178 O189 1.251 . S
C179 O190 1.252 . S
C179 O191 1.272 . S
O180 Sm160 2.543 . S
O180 C162 1.261 . S
O181 Sm160 2.450 . S
O181 C162 1.242 . S
O182 Sm160 2.681 . S
O182 Sm161 2.386 . S
O182 C169 1.271 . S
O183 Sm160 2.464 . S
O183 C169 1.251 . S
O184 Sm160 2.396 . S
O184 C170 1.252 . S
O185 Sm161 2.408 . S
O185 C170 1.272 . S
O186 Sm161 2.543 . S
O186 C171 1.261 . S
O187 Sm161 2.450 . S
O187 C171 1.242 . S
O188 Sm160 2.386 . S
O188 Sm161 2.681 . S
O188 C178 1.271 . S
O189 Sm161 2.464 . S
O189 C178 1.251 . S
O190 Sm161 2.396 . S
O190 C179 1.252 . S
O191 Sm160 2.408 . S
O191 C179 1.272 . S
H192 C164 0.930 . S
H193 C165 0.929 . S
H194 C167 0.930 . S
H195 C168 0.929 . S
H196 C173 0.930 . S
H197 C174 0.929 . S
H198 C176 0.930 . S
H199 C177 0.929 . S
Sm200 C202 2.846 . S
Sm200 O220 2.543 . S
Sm200 O221 2.450 . S
Sm200 O222 2.681 . S
Sm200 O223 2.464 . S
Sm200 O224 2.396 . S
Sm200 O228 2.386 . S
Sm200 O231 2.408 . S
Sm201 C211 2.846 . S
Sm201 O222 2.386 . S
Sm201 O225 2.408 . S
Sm201 O226 2.543 . S
Sm201 O227 2.450 . S
Sm201 O228 2.681 . S
Sm201 O229 2.464 . S
Sm201 O230 2.396 . S
C202 Sm200 2.846 . S
C202 C203 1.506 . S
C202 O220 1.261 . S
C202 O221 1.242 . S
C203 C202 1.506 . S
C203 C204 1.358 . S
C203 C208 1.382 . S
C204 C203 1.358 . S
C204 C205 1.385 . S
C204 H232 0.930 . S
C205 C204 1.385 . S
C205 C206 1.395 . S
C205 H233 0.929 . S
C206 C205 1.395 . S
C206 C207 1.335 . S
C207 C206 1.335 . S
C207 C208 1.398 . S
C207 H234 0.930 . S
C208 C203 1.382 . S
C208 C207 1.398 . S
C208 H235 0.929 . S
C209 O222 1.271 . S
C209 O223 1.251 . S
C210 O224 1.252 . S
C210 O225 1.272 . S
C211 Sm201 2.846 . S
C211 C212 1.506 1_545 S
C211 O226 1.261 . S
C211 O227 1.242 . S
C212 C211 1.506 1_565 S
C212 C213 1.358 . S
C212 C217 1.382 . S
C213 C212 1.358 . S
C213 C214 1.385 . S
C213 H236 0.930 . S
C214 C213 1.385 . S
C214 C215 1.395 . S
C214 H237 0.929 . S
C215 C214 1.395 . S
C215 C216 1.335 . S
C216 C215 1.335 . S
C216 C217 1.398 . S
C216 H238 0.930 . S
C217 C212 1.382 . S
C217 C216 1.398 . S
C217 H239 0.929 . S
C218 O228 1.271 . S
C218 O229 1.251 . S
C219 O230 1.252 . S
C219 O231 1.272 . S
O220 Sm200 2.543 . S
O220 C202 1.261 . S
O221 Sm200 2.450 . S
O221 C202 1.242 . S
O222 Sm200 2.681 . S
O222 Sm201 2.386 . S
O222 C209 1.271 . S
O223 Sm200 2.464 . S
O223 C209 1.251 . S
O224 Sm200 2.396 . S
O224 C210 1.252 . S
O225 Sm201 2.408 . S
O225 C210 1.272 . S
O226 Sm201 2.543 . S
O226 C211 1.261 . S
O227 Sm201 2.450 . S
O227 C211 1.242 . S
O228 Sm200 2.386 . S
O228 Sm201 2.681 . S
O228 C218 1.271 . S
O229 Sm201 2.464 . S
O229 C218 1.251 . S
O230 Sm201 2.396 . S
O230 C219 1.252 . S
O231 Sm200 2.408 . S
O231 C219 1.272 . S
H232 C204 0.930 . S
H233 C205 0.929 . S
H234 C207 0.930 . S
H235 C208 0.929 . S
H236 C213 0.930 . S
H237 C214 0.929 . S
H238 C216 0.930 . S
H239 C217 0.929 . S
Sm240 C242 2.846 . S
Sm240 O260 2.543 . S
Sm240 O261 2.450 . S
Sm240 O262 2.681 . S
Sm240 O263 2.464 . S
Sm240 O264 2.396 . S
Sm240 O268 2.386 . S
Sm240 O271 2.408 . S
Sm241 C251 2.846 . S
Sm241 O262 2.386 . S
Sm241 O265 2.408 . S
Sm241 O266 2.543 . S
Sm241 O267 2.450 . S
Sm241 O268 2.681 . S
Sm241 O269 2.464 . S
Sm241 O270 2.396 . S
C242 Sm240 2.846 . S
C242 C243 1.506 . S
C242 O260 1.261 . S
C242 O261 1.242 . S
C243 C242 1.506 . S
C243 C244 1.358 . S
C243 C248 1.382 . S
C244 C243 1.358 . S
C244 C245 1.385 . S
C244 H272 0.930 . S
C245 C244 1.385 . S
C245 C246 1.395 . S
C245 H273 0.929 . S
C246 C245 1.395 . S
C246 C247 1.335 . S
C247 C246 1.335 . S
C247 C248 1.398 . S
C247 H274 0.930 . S
C248 C243 1.382 . S
C248 C247 1.398 . S
C248 H275 0.929 . S
C249 O262 1.271 . S
C249 O263 1.251 . S
C250 O264 1.252 . S
C250 O265 1.272 . S
C251 Sm241 2.846 . S
C251 C252 1.506 . S
C251 O266 1.261 . S
C251 O267 1.242 . S
C252 C251 1.506 . S
C252 C253 1.358 . S
C252 C257 1.382 . S
C253 C252 1.358 . S
C253 C254 1.385 . S
C253 H276 0.930 . S
C254 C253 1.385 . S
C254 C255 1.395 . S
C254 H277 0.929 . S
C255 C254 1.395 . S
C255 C256 1.335 . S
C256 C255 1.335 . S
C256 C257 1.398 . S
C256 H278 0.930 . S
C257 C252 1.382 . S
C257 C256 1.398 . S
C257 H279 0.929 . S
C258 O268 1.271 . S
C258 O269 1.251 . S
C259 O270 1.252 . S
C259 O271 1.272 . S
O260 Sm240 2.543 . S
O260 C242 1.261 . S
O261 Sm240 2.450 . S
O261 C242 1.242 . S
O262 Sm240 2.681 . S
O262 Sm241 2.386 . S
O262 C249 1.271 . S
O263 Sm240 2.464 . S
O263 C249 1.251 . S
O264 Sm240 2.396 . S
O264 C250 1.252 . S
O265 Sm241 2.408 . S
O265 C250 1.272 . S
O266 Sm241 2.543 . S
O266 C251 1.261 . S
O267 Sm241 2.450 . S
O267 C251 1.242 . S
O268 Sm240 2.386 . S
O268 Sm241 2.681 . S
O268 C258 1.271 . S
O269 Sm241 2.464 . S
O269 C258 1.251 . S
O270 Sm241 2.396 . S
O270 C259 1.252 . S
O271 Sm240 2.408 . S
O271 C259 1.272 . S
H272 C244 0.930 . S
H273 C245 0.929 . S
H274 C247 0.930 . S
H275 C248 0.929 . S
H276 C253 0.930 . S
H277 C254 0.929 . S
H278 C256 0.930 . S
H279 C257 0.929 . S
Sm280 C282 2.846 . S
Sm280 O300 2.543 . S
Sm280 O301 2.450 . S
Sm280 O302 2.681 . S
Sm280 O303 2.464 . S
Sm280 O304 2.396 . S
Sm280 O308 2.386 . S
Sm280 O311 2.408 . S
Sm281 C291 2.846 . S
Sm281 O302 2.386 . S
Sm281 O305 2.408 . S
Sm281 O306 2.543 . S
Sm281 O307 2.450 . S
Sm281 O308 2.681 . S
Sm281 O309 2.464 . S
Sm281 O310 2.396 . S
C282 Sm280 2.846 . S
C282 C283 1.506 . S
C282 O300 1.261 . S
C282 O301 1.242 . S
C283 C282 1.506 . S
C283 C284 1.358 . S
C283 C288 1.382 . S
C284 C283 1.358 . S
C284 C285 1.385 . S
C284 H312 0.930 . S
C285 C284 1.385 . S
C285 C286 1.395 . S
C285 H313 0.929 . S
C286 C285 1.395 . S
C286 C287 1.335 . S
C287 C286 1.335 . S
C287 C288 1.398 . S
C287 H314 0.930 . S
C288 C283 1.382 . S
C288 C287 1.398 . S
C288 H315 0.929 . S
C289 O302 1.271 . S
C289 O303 1.251 . S
C290 O304 1.252 . S
C290 O305 1.272 . S
C291 Sm281 2.846 . S
C291 C292 1.506 1_655 S
C291 O306 1.261 . S
C291 O307 1.242 . S
C292 C291 1.506 1_455 S
C292 C293 1.358 . S
C292 C297 1.382 . S
C293 C292 1.358 . S
C293 C294 1.385 . S
C293 H316 0.930 . S
C294 C293 1.385 . S
C294 C295 1.395 . S
C294 H317 0.929 . S
C295 C294 1.395 . S
C295 C296 1.335 . S
C296 C295 1.335 . S
C296 C297 1.398 . S
C296 H318 0.930 . S
C297 C292 1.382 . S
C297 C296 1.398 . S
C297 H319 0.929 . S
C298 O308 1.271 . S
C298 O309 1.251 . S
C299 O310 1.252 . S
C299 O311 1.272 . S
O300 Sm280 2.543 . S
O300 C282 1.261 . S
O301 Sm280 2.450 . S
O301 C282 1.242 . S
O302 Sm280 2.681 . S
O302 Sm281 2.386 . S
O302 C289 1.271 . S
O303 Sm280 2.464 . S
O303 C289 1.251 . S
O304 Sm280 2.396 . S
O304 C290 1.252 . S
O305 Sm281 2.408 . S
O305 C290 1.272 . S
O306 Sm281 2.543 . S
O306 C291 1.261 . S
O307 Sm281 2.450 . S
O307 C291 1.242 . S
O308 Sm280 2.386 . S
O308 Sm281 2.681 . S
O308 C298 1.271 . S
O309 Sm281 2.464 . S
O309 C298 1.251 . S
O310 Sm281 2.396 . S
O310 C299 1.252 . S
O311 Sm280 2.408 . S
O311 C299 1.272 . S
H312 C284 0.930 . S
H313 C285 0.929 . S
H314 C287 0.930 . S
H315 C288 0.929 . S
H316 C293 0.930 . S
H317 C294 0.929 . S
H318 C296 0.930 . S
H319 C297 0.929 . S
Sm320 C322 2.846 . S
Sm320 O340 2.543 . S
Sm320 O341 2.450 . S
Sm320 O342 2.681 . S
Sm320 O343 2.464 . S
Sm320 O344 2.396 . S
Sm320 O348 2.386 . S
Sm320 O351 2.408 . S
Sm321 C331 2.846 . S
Sm321 O342 2.386 . S
Sm321 O345 2.408 . S
Sm321 O346 2.543 . S
Sm321 O347 2.450 . S
Sm321 O348 2.681 . S
Sm321 O349 2.464 . S
Sm321 O350 2.396 . S
C322 Sm320 2.846 . S
C322 C323 1.506 . S
C322 O340 1.261 . S
C322 O341 1.242 . S
C323 C322 1.506 . S
C323 C324 1.358 . S
C323 C328 1.382 . S
C324 C323 1.358 . S
C324 C325 1.385 . S
C324 H352 0.930 . S
C325 C324 1.385 . S
C325 C326 1.395 . S
C325 H353 0.929 . S
C326 C325 1.395 . S
C326 C327 1.335 . S
C327 C326 1.335 . S
C327 C328 1.398 . S
C327 H354 0.930 . S
C328 C323 1.382 . S
C328 C327 1.398 . S
C328 H355 0.929 . S
C329 O342 1.271 . S
C329 O343 1.251 . S
C330 O344 1.252 . S
C330 O345 1.272 . S
C331 Sm321 2.846 . S
C331 C332 1.506 1_565 S
C331 O346 1.261 . S
C331 O347 1.242 . S
C332 C331 1.506 1_545 S
C332 C333 1.358 . S
C332 C337 1.382 . S
C333 C332 1.358 . S
C333 C334 1.385 . S
C333 H356 0.930 . S
C334 C333 1.385 . S
C334 C335 1.395 . S
C334 H357 0.929 . S
C335 C334 1.395 . S
C335 C336 1.335 . S
C336 C335 1.335 . S
C336 C337 1.398 . S
C336 H358 0.930 . S
C337 C332 1.382 . S
C337 C336 1.398 . S
C337 H359 0.929 . S
C338 O348 1.271 . S
C338 O349 1.251 . S
C339 O350 1.252 . S
C339 O351 1.272 . S
O340 Sm320 2.543 . S
O340 C322 1.261 . S
O341 Sm320 2.450 . S
O341 C322 1.242 . S
O342 Sm320 2.681 . S
O342 Sm321 2.386 . S
O342 C329 1.271 . S
O343 Sm320 2.464 . S
O343 C329 1.251 . S
O344 Sm320 2.396 . S
O344 C330 1.252 . S
O345 Sm321 2.408 . S
O345 C330 1.272 . S
O346 Sm321 2.543 . S
O346 C331 1.261 . S
O347 Sm321 2.450 . S
O347 C331 1.242 . S
O348 Sm320 2.386 . S
O348 Sm321 2.681 . S
O348 C338 1.271 . S
O349 Sm321 2.464 . S
O349 C338 1.251 . S
O350 Sm321 2.396 . S
O350 C339 1.252 . S
O351 Sm320 2.408 . S
O351 C339 1.272 . S
H352 C324 0.930 . S
H353 C325 0.929 . S
H354 C327 0.930 . S
H355 C328 0.929 . S
H356 C333 0.930 . S
H357 C334 0.929 . S
H358 C336 0.930 . S
H359 C337 0.929 . S
Sm360 C362 2.846 . S
Sm360 O380 2.543 . S
Sm360 O381 2.450 . S
Sm360 O382 2.681 . S
Sm360 O383 2.464 . S
Sm360 O384 2.396 . S
Sm360 O388 2.386 . S
Sm360 O391 2.408 . S
Sm361 C371 2.846 . S
Sm361 O382 2.386 . S
Sm361 O385 2.408 . S
Sm361 O386 2.543 . S
Sm361 O387 2.450 . S
Sm361 O388 2.681 . S
Sm361 O389 2.464 . S
Sm361 O390 2.396 . S
C362 Sm360 2.846 . S
C362 C363 1.506 . S
C362 O380 1.261 . S
C362 O381 1.242 . S
C363 C362 1.506 . S
C363 C364 1.358 . S
C363 C368 1.382 . S
C364 C363 1.358 . S
C364 C365 1.385 . S
C364 H392 0.930 . S
C365 C364 1.385 . S
C365 C366 1.395 . S
C365 H393 0.929 . S
C366 C365 1.395 . S
C366 C367 1.335 . S
C367 C366 1.335 . S
C367 C368 1.398 . S
C367 H394 0.930 . S
C368 C363 1.382 . S
C368 C367 1.398 . S
C368 H395 0.929 . S
C369 O382 1.271 . S
C369 O383 1.251 . S
C370 O384 1.252 . S
C370 O385 1.272 . S
C371 Sm361 2.846 . S
C371 C372 1.506 . S
C371 O386 1.261 . S
C371 O387 1.242 . S
C372 C371 1.506 . S
C372 C373 1.358 . S
C372 C377 1.382 . S
C373 C372 1.358 . S
C373 C374 1.385 . S
C373 H396 0.930 . S
C374 C373 1.385 . S
C374 C375 1.395 . S
C374 H397 0.929 . S
C375 C374 1.395 . S
C375 C376 1.335 . S
C376 C375 1.335 . S
C376 C377 1.398 . S
C376 H398 0.930 . S
C377 C372 1.382 . S
C377 C376 1.398 . S
C377 H399 0.929 . S
C378 O388 1.271 . S
C378 O389 1.251 . S
C379 O390 1.252 . S
C379 O391 1.272 . S
O380 Sm360 2.543 . S
O380 C362 1.261 . S
O381 Sm360 2.450 . S
O381 C362 1.242 . S
O382 Sm360 2.681 . S
O382 Sm361 2.386 . S
O382 C369 1.271 . S
O383 Sm360 2.464 . S
O383 C369 1.251 . S
O384 Sm360 2.396 . S
O384 C370 1.252 . S
O385 Sm361 2.408 . S
O385 C370 1.272 . S
O386 Sm361 2.543 . S
O386 C371 1.261 . S
O387 Sm361 2.450 . S
O387 C371 1.242 . S
O388 Sm360 2.386 . S
O388 Sm361 2.681 . S
O388 C378 1.271 . S
O389 Sm361 2.464 . S
O389 C378 1.251 . S
O390 Sm361 2.396 . S
O390 C379 1.252 . S
O391 Sm360 2.408 . S
O391 C379 1.272 . S
H392 C364 0.930 . S
H393 C365 0.929 . S
H394 C367 0.930 . S
H395 C368 0.929 . S
H396 C373 0.930 . S
H397 C374 0.929 . S
H398 C376 0.930 . S
H399 C377 0.929 . S
Sm400 C402 2.846 . S
Sm400 O420 2.543 . S
Sm400 O421 2.450 . S
Sm400 O422 2.681 . S
Sm400 O423 2.464 . S
Sm400 O424 2.396 . S
Sm400 O428 2.386 . S
Sm400 O431 2.408 . S
Sm401 C411 2.846 . S
Sm401 O422 2.386 . S
Sm401 O425 2.408 . S
Sm401 O426 2.543 . S
Sm401 O427 2.450 . S
Sm401 O428 2.681 . S
Sm401 O429 2.464 . S
Sm401 O430 2.396 . S
C402 Sm400 2.846 . S
C402 C403 1.506 . S
C402 O420 1.261 . S
C402 O421 1.242 . S
C403 C402 1.506 . S
C403 C404 1.358 . S
C403 C408 1.382 . S
C404 C403 1.358 . S
C404 C405 1.385 . S
C404 H432 0.930 . S
C405 C404 1.385 . S
C405 C406 1.395 . S
C405 H433 0.929 . S
C406 C405 1.395 . S
C406 C407 1.335 . S
C407 C406 1.335 . S
C407 C408 1.398 . S
C407 H434 0.930 . S
C408 C403 1.382 . S
C408 C407 1.398 . S
C408 H435 0.929 . S
C409 O422 1.271 . S
C409 O423 1.251 . S
C410 O424 1.252 . S
C410 O425 1.272 . S
C411 Sm401 2.846 . S
C411 C412 1.506 1_455 S
C411 O426 1.261 . S
C411 O427 1.242 . S
C412 C411 1.506 1_655 S
C412 C413 1.358 . S
C412 C417 1.382 . S
C413 C412 1.358 . S
C413 C414 1.385 . S
C413 H436 0.930 . S
C414 C413 1.385 . S
C414 C415 1.395 . S
C414 H437 0.929 . S
C415 C414 1.395 . S
C415 C416 1.335 . S
C416 C415 1.335 . S
C416 C417 1.398 . S
C416 H438 0.930 . S
C417 C412 1.382 . S
C417 C416 1.398 . S
C417 H439 0.929 . S
C418 O428 1.271 . S
C418 O429 1.251 . S
C419 O430 1.252 . S
C419 O431 1.272 . S
O420 Sm400 2.543 . S
O420 C402 1.261 . S
O421 Sm400 2.450 . S
O421 C402 1.242 . S
O422 Sm400 2.681 . S
O422 Sm401 2.386 . S
O422 C409 1.271 . S
O423 Sm400 2.464 . S
O423 C409 1.251 . S
O424 Sm400 2.396 . S
O424 C410 1.252 . S
O425 Sm401 2.408 . S
O425 C410 1.272 . S
O426 Sm401 2.543 . S
O426 C411 1.261 . S
O427 Sm401 2.450 . S
O427 C411 1.242 . S
O428 Sm400 2.386 . S
O428 Sm401 2.681 . S
O428 C418 1.271 . S
O429 Sm401 2.464 . S
O429 C418 1.251 . S
O430 Sm401 2.396 . S
O430 C419 1.252 . S
O431 Sm400 2.408 . S
O431 C419 1.272 . S
H432 C404 0.930 . S
H433 C405 0.929 . S
H434 C407 0.930 . S
H435 C408 0.929 . S
H436 C413 0.930 . S
H437 C414 0.929 . S
H438 C416 0.930 . S
H439 C417 0.929 . S
Sm440 C442 2.846 . S
Sm440 O460 2.543 . S
Sm440 O461 2.450 . S
Sm440 O462 2.681 . S
Sm440 O463 2.464 . S
Sm440 O464 2.396 . S
Sm440 O468 2.386 . S
Sm440 O471 2.408 . S
Sm441 C451 2.846 . S
Sm441 O462 2.386 . S
Sm441 O465 2.408 . S
Sm441 O466 2.543 . S
Sm441 O467 2.450 . S
Sm441 O468 2.681 . S
Sm441 O469 2.464 . S
Sm441 O470 2.396 . S
C442 Sm440 2.846 . S
C442 C443 1.506 . S
C442 O460 1.261 . S
C442 O461 1.242 . S
C443 C442 1.506 . S
C443 C444 1.358 . S
C443 C448 1.382 . S
C444 C443 1.358 . S
C444 C445 1.385 . S
C444 H472 0.930 . S
C445 C444 1.385 . S
C445 C446 1.395 . S
C445 H473 0.929 . S
C446 C445 1.395 . S
C446 C447 1.335 . S
C447 C446 1.335 . S
C447 C448 1.398 . S
C447 H474 0.930 . S
C448 C443 1.382 . S
C448 C447 1.398 . S
C448 H475 0.929 . S
C449 O462 1.271 . S
C449 O463 1.251 . S
C450 O464 1.252 . S
C450 O465 1.272 . S
C451 Sm441 2.846 . S
C451 C452 1.506 1_545 S
C451 O466 1.261 . S
C451 O467 1.242 . S
C452 C451 1.506 1_565 S
C452 C453 1.358 . S
C452 C457 1.382 . S
C453 C452 1.358 . S
C453 C454 1.385 . S
C453 H476 0.930 . S
C454 C453 1.385 . S
C454 C455 1.395 . S
C454 H477 0.929 . S
C455 C454 1.395 . S
C455 C456 1.335 . S
C456 C455 1.335 . S
C456 C457 1.398 . S
C456 H478 0.930 . S
C457 C452 1.382 . S
C457 C456 1.398 . S
C457 H479 0.929 . S
C458 O468 1.271 . S
C458 O469 1.251 . S
C459 O470 1.252 . S
C459 O471 1.272 . S
O460 Sm440 2.543 . S
O460 C442 1.261 . S
O461 Sm440 2.450 . S
O461 C442 1.242 . S
O462 Sm440 2.681 . S
O462 Sm441 2.386 . S
O462 C449 1.271 . S
O463 Sm440 2.464 . S
O463 C449 1.251 . S
O464 Sm440 2.396 . S
O464 C450 1.252 . S
O465 Sm441 2.408 . S
O465 C450 1.272 . S
O466 Sm441 2.543 . S
O466 C451 1.261 . S
O467 Sm441 2.450 . S
O467 C451 1.242 . S
O468 Sm440 2.386 . S
O468 Sm441 2.681 . S
O468 C458 1.271 . S
O469 Sm441 2.464 . S
O469 C458 1.251 . S
O470 Sm441 2.396 . S
O470 C459 1.252 . S
O471 Sm440 2.408 . S
O471 C459 1.272 . S
H472 C444 0.930 . S
H473 C445 0.929 . S
H474 C447 0.930 . S
H475 C448 0.929 . S
H476 C453 0.930 . S
H477 C454 0.929 . S
H478 C456 0.930 . S
H479 C457 0.929 . S
C480 C481 1.387 . S
C480 H484 0.950 . S
C480 C489 1.390 1_565 S
C481 C480 1.387 . S
C481 C483 1.387 . S
H482 C489 0.950 . S
C483 C481 1.387 . S
C483 C485 1.390 . S
C483 H487 0.950 . S
H484 C480 0.950 . S
C485 C483 1.390 . S
C485 C486 1.387 1_565 S
C485 H488 0.957 . S
C486 C485 1.387 1_545 S
C486 C489 1.387 . S
H487 C483 0.950 . S
H488 C485 0.957 . S
C489 C480 1.390 1_545 S
C489 H482 0.950 . S
C489 C486 1.387 . S
C490 C491 1.387 . S
C490 H494 0.950 . S
C490 C499 1.390 . S
C491 C490 1.387 . S
C491 C493 1.387 . S
H492 C499 0.950 . S
C493 C491 1.387 . S
C493 C495 1.390 . S
C493 H497 0.950 . S
H494 C490 0.950 . S
C495 C493 1.390 . S
C495 C496 1.387 . S
C495 H498 0.950 . S
C496 C495 1.387 . S
C496 C499 1.387 . S
H497 C493 0.950 . S
H498 C495 0.950 . S
C499 C490 1.390 . S
C499 H492 0.950 . S
C499 C496 1.387 . S
C500 C501 1.387 1_455 S
C500 H504 0.950 . S
C500 C509 1.390 . S
C501 C500 1.387 1_655 S
C501 C503 1.387 . S
H502 C509 0.950 . S
C503 C501 1.387 . S
C503 C505 1.390 1_655 S
C503 H507 0.950 . S
H504 C500 0.950 . S
C505 C503 1.390 1_455 S
C505 C506 1.387 . S
C505 H508 0.950 . S
C506 C505 1.387 . S
C506 C509 1.387 . S
H507 C503 0.950 . S
H508 C505 0.950 . S
C509 C500 1.390 . S
C509 H502 0.950 . S
C509 C506 1.387 . S
C510 C511 1.387 1_545 S
C510 H514 0.950 . S
C510 C519 1.390 . S
C511 C510 1.387 1_565 S
C511 C513 1.387 . S
H512 C519 0.950 . S
C513 C511 1.387 . S
C513 C515 1.390 1_565 S
C513 H517 0.950 . S
H514 C510 0.950 . S
C515 C513 1.390 1_545 S
C515 C516 1.387 . S
C515 H518 0.950 . S
C516 C515 1.387 . S
C516 C519 1.387 . S
H517 C513 0.950 . S
H518 C515 0.950 . S
C519 C510 1.390 . S
C519 H512 0.950 . S
C519 C516 1.387 . S
C520 C521 1.387 . S
C520 H524 0.950 . S
C520 C529 1.390 . S
C521 C520 1.387 . S
C521 C523 1.387 . S
H522 C529 0.950 . S
C523 C521 1.387 . S
C523 C525 1.390 . S
C523 H527 0.950 . S
H524 C520 0.950 . S
C525 C523 1.390 . S
C525 C526 1.387 . S
C525 H528 0.950 . S
C526 C525 1.387 . S
C526 C529 1.387 . S
H527 C523 0.950 . S
H528 C525 0.950 . S
C529 C520 1.390 . S
C529 H522 0.950 . S
C529 C526 1.387 . S
C530 C531 1.387 . S
C530 H534 0.950 . S
C530 C539 1.390 1_655 S
C531 C530 1.387 . S
C531 C533 1.387 . S
H532 C539 0.950 . S
C533 C531 1.387 . S
C533 C535 1.390 . S
C533 H537 0.950 . S
H534 C530 0.950 . S
C535 C533 1.390 . S
C535 C536 1.387 1_655 S
C535 H538 0.950 . S
C536 C535 1.387 1_455 S
C536 C539 1.387 . S
H537 C533 0.950 . S
H538 C535 0.950 . S
C539 C530 1.390 1_455 S
C539 H532 0.950 . S
C539 C536 1.387 . S
C540 C541 1.387 . S
C540 H544 0.950 . S
C540 C549 1.390 . S
C541 C540 1.387 . S
C541 C543 1.387 . S
H542 C549 0.950 . S
C543 C541 1.387 . S
C543 C545 1.390 1_455 S
C543 H547 0.950 . S
H544 C540 0.950 . S
C545 C543 1.390 1_655 S
C545 C546 1.387 . S
C545 H548 0.950 . S
C546 C545 1.387 . S
C546 C549 1.387 1_655 S
H547 C543 0.950 . S
H548 C545 0.950 . S
C549 C540 1.390 . S
C549 H542 0.950 . S
C549 C546 1.387 1_455 S
C550 C551 1.399 . S
C550 H554 0.951 . S
C550 C559 1.377 1_565 S
C551 C550 1.399 . S
C551 C553 1.387 1_565 S
H552 C559 0.950 . S
C553 C551 1.387 1_545 S
C553 C555 1.390 . S
C553 H557 0.950 1_545 S
H554 C550 0.951 . S
C555 C553 1.390 . S
C555 C556 1.387 . S
C555 H558 0.950 . S
C556 C555 1.387 . S
C556 C559 1.387 . S
H557 C553 0.950 1_565 S
H558 C555 0.950 . S
C559 C550 1.377 1_545 S
C559 H552 0.950 . S
C559 C556 1.387 . S
C560 C561 1.387 . S
C560 H564 0.950 . S
C560 C569 1.390 . S
C561 C560 1.387 . S
C561 C563 1.387 . S
H562 C569 0.950 . S
C563 C561 1.387 . S
C563 C565 1.390 . S
C563 H567 0.950 . S
H564 C560 0.950 . S
C565 C563 1.390 . S
C565 C566 1.387 . S
C565 H568 0.950 . S
C566 C565 1.387 . S
C566 C569 1.387 . S
H567 C563 0.950 . S
H568 C565 0.950 . S
C569 C560 1.390 . S
C569 H562 0.950 . S
C569 C566 1.387 . S
C570 C571 1.387 1_655 S
C570 H574 0.950 . S
C570 C579 1.390 . S
C571 C570 1.387 1_455 S
C571 C573 1.387 . S
H572 C579 0.950 . S
C573 C571 1.387 . S
C573 C575 1.390 1_455 S
C573 H577 0.950 . S
H574 C570 0.950 . S
C575 C573 1.390 1_655 S
C575 C576 1.387 . S
C575 H578 0.950 . S
C576 C575 1.387 . S
C576 C579 1.387 . S
H577 C573 0.950 . S
H578 C575 0.950 . S
C579 C570 1.390 . S
C579 H572 0.950 . S
C579 C576 1.387 . S
C580 C581 1.387 . S
C580 H584 0.950 . S
C580 C589 1.390 1_545 S
C581 C580 1.387 . S
C581 C583 1.387 1_545 S
H582 C589 0.950 . S
C583 C581 1.387 1_565 S
C583 C585 1.390 . S
C583 H587 0.950 . S
H584 C580 0.950 . S
C585 C583 1.390 . S
C585 C586 1.387 . S
C585 H588 0.950 . S
C586 C585 1.387 . S
C586 C589 1.387 . S
H587 C583 0.950 . S
H588 C585 0.950 . S
C589 C580 1.390 1_565 S
C589 H582 0.950 . S
C589 C586 1.387 . S
C590 C591 1.387 . S
C590 H594 0.950 . S
C590 C599 1.390 . S
C591 C590 1.387 . S
C591 C593 1.387 . S
H592 C599 0.950 . S
C593 C591 1.387 . S
C593 C595 1.390 . S
C593 H597 0.950 . S
H594 C590 0.950 . S
C595 C593 1.390 . S
C595 C596 1.387 . S
C595 H598 0.950 . S
C596 C595 1.387 . S
C596 C599 1.387 . S
H597 C593 0.950 . S
H598 C595 0.950 . S
C599 C590 1.390 . S
C599 H592 0.950 . S
C599 C596 1.387 . S
C600 C601 1.387 . S
C600 H604 0.950 . S
C600 C609 1.390 . S
C601 C600 1.387 . S
C601 C603 1.387 . S
H602 C609 0.950 . S
C603 C601 1.387 . S
C603 C605 1.390 . S
C603 H607 0.950 . S
H604 C600 0.950 . S
C605 C603 1.390 . S
C605 C606 1.387 . S
C605 H608 0.950 . S
C606 C605 1.387 . S
C606 C609 1.387 . S
H607 C603 0.950 . S
H608 C605 0.950 . S
C609 C600 1.390 . S
C609 H602 0.950 . S
C609 C606 1.387 . S
C610 C611 1.387 . S
C610 H614 0.950 . S
C610 C619 1.390 . S
C611 C610 1.387 . S
C611 C613 1.387 . S
H612 C619 0.950 . S
C613 C611 1.387 . S
C613 C615 1.390 . S
C613 H617 0.950 . S
H614 C610 0.950 . S
C615 C613 1.390 . S
C615 C616 1.387 . S
C615 H618 0.950 . S
C616 C615 1.387 . S
C616 C619 1.387 . S
H617 C613 0.950 . S
H618 C615 0.950 . S
C619 C610 1.390 . S
C619 H612 0.950 . S
C619 C616 1.387 . S
C620 C621 1.387 . S
C620 H624 0.950 . S
C620 C629 1.390 . S
C621 C620 1.387 . S
C621 C623 1.387 . S
H622 C629 0.950 . S
C623 C621 1.387 . S
C623 C625 1.390 . S
C623 H627 0.950 . S
H624 C620 0.950 . S
C625 C623 1.390 . S
C625 C626 1.387 . S
C625 H628 0.950 . S
C626 C625 1.387 . S
C626 C629 1.387 . S
H627 C623 0.950 . S
H628 C625 0.950 . S
C629 C620 1.390 . S
C629 H622 0.950 . S
C629 C626 1.387 . S
C630 C631 1.387 . S
C630 H634 0.950 . S
C630 C639 1.390 . S
C631 C630 1.387 . S
C631 C633 1.387 . S
H632 C639 0.950 . S
C633 C631 1.387 . S
C633 C635 1.390 . S
C633 H637 0.950 . S
H634 C630 0.950 . S
C635 C633 1.390 . S
C635 C636 1.387 . S
C635 H638 0.950 . S
C636 C635 1.387 . S
C636 C639 1.387 . S
H637 C633 0.950 . S
H638 C635 0.950 . S
C639 C630 1.390 . S
C639 H632 0.950 . S
C639 C636 1.387 . S
C640 C641 1.387 . S
C640 H644 0.950 . S
C640 C649 1.390 . S
C641 C640 1.387 . S
C641 C643 1.387 . S
H642 C649 0.950 . S
C643 C641 1.387 . S
C643 C645 1.390 . S
C643 H647 0.950 . S
H644 C640 0.950 . S
C645 C643 1.390 . S
C645 C646 1.387 . S
C645 H648 0.950 . S
C646 C645 1.387 . S
C646 C649 1.387 . S
H647 C643 0.950 . S
H648 C645 0.950 . S
C649 C640 1.390 . S
C649 H642 0.950 . S
C649 C646 1.387 . S
C650 C651 1.387 . S
C650 H654 0.950 . S
C650 C659 1.390 . S
C651 C650 1.387 . S
C651 C653 1.387 . S
H652 C659 0.950 . S
C653 C651 1.387 . S
C653 C655 1.390 . S
C653 H657 0.950 . S
H654 C650 0.950 . S
C655 C653 1.390 . S
C655 C656 1.387 . S
C655 H658 0.950 . S
C656 C655 1.387 . S
C656 C659 1.387 . S
H657 C653 0.950 . S
H658 C655 0.950 . S
C659 C650 1.390 . S
C659 H652 0.950 . S
C659 C656 1.387 . S
C660 C661 1.387 . S
C660 H664 0.950 . S
C660 C669 1.390 . S
C661 C660 1.387 . S
C661 C663 1.387 . S
H662 C669 0.950 . S
C663 C661 1.387 . S
C663 C665 1.390 . S
C663 H667 0.950 . S
H664 C660 0.950 . S
C665 C663 1.390 . S
C665 C666 1.387 . S
C665 H668 0.950 . S
C666 C665 1.387 . S
C666 C669 1.387 . S
H667 C663 0.950 . S
H668 C665 0.950 . S
C669 C660 1.390 . S
C669 H662 0.950 . S
C669 C666 1.387 . S
C670 C671 1.387 . S
C670 H674 0.950 . S
C670 C679 1.390 . S
C671 C670 1.387 . S
C671 C673 1.387 . S
H672 C679 0.950 . S
C673 C671 1.387 . S
C673 C675 1.390 . S
C673 H677 0.950 . S
H674 C670 0.950 . S
C675 C673 1.390 . S
C675 C676 1.387 . S
C675 H678 0.950 . S
C676 C675 1.387 . S
C676 C679 1.387 . S
H677 C673 0.950 . S
H678 C675 0.950 . S
C679 C670 1.390 . S
C679 H672 0.950 . S
C679 C676 1.387 . S
C680 C681 1.387 . S
C680 H684 0.950 . S
C680 C689 1.390 . S
C681 C680 1.387 . S
C681 C683 1.387 . S
H682 C689 0.950 . S
C683 C681 1.387 . S
C683 C685 1.390 . S
C683 H687 0.950 . S
H684 C680 0.950 . S
C685 C683 1.390 . S
C685 C686 1.387 . S
C685 H688 0.950 . S
C686 C685 1.387 . S
C686 C689 1.387 . S
H687 C683 0.950 . S
H688 C685 0.950 . S
C689 C680 1.390 . S
C689 H682 0.950 . S
C689 C686 1.387 . S
C690 C691 1.387 . S
C690 H694 0.950 . S
C690 C699 1.390 . S
C691 C690 1.387 . S
C691 C693 1.387 . S
H692 C699 0.950 . S
C693 C691 1.387 . S
C693 C695 1.390 . S
C693 H697 0.950 . S
H694 C690 0.950 . S
C695 C693 1.390 . S
C695 C696 1.387 . S
C695 H698 0.950 . S
C696 C695 1.387 . S
C696 C699 1.387 . S
H697 C693 0.950 . S
H698 C695 0.950 . S
C699 C690 1.390 . S
C699 H692 0.950 . S
C699 C696 1.387 . S
C700 C701 1.387 . S
C700 H704 0.950 . S
C700 C709 1.390 . S
C701 C700 1.387 . S
C701 C703 1.387 . S
H702 C709 0.950 . S
C703 C701 1.387 . S
C703 C705 1.390 . S
C703 H707 0.950 . S
H704 C700 0.950 . S
C705 C703 1.390 . S
C705 C706 1.387 . S
C705 H708 0.950 . S
C706 C705 1.387 . S
C706 C709 1.387 . S
H707 C703 0.950 . S
H708 C705 0.950 . S
C709 C700 1.390 . S
C709 H702 0.950 . S
C709 C706 1.387 . S
C710 C711 1.387 . S
C710 H714 0.950 . S
C710 C719 1.390 . S
C711 C710 1.387 . S
C711 C713 1.387 . S
H712 C719 0.950 . S
C713 C711 1.387 . S
C713 C715 1.390 . S
C713 H717 0.950 . S
H714 C710 0.950 . S
C715 C713 1.390 . S
C715 C716 1.387 . S
C715 H718 0.950 . S
C716 C715 1.387 . S
C716 C719 1.387 . S
H717 C713 0.950 . S
H718 C715 0.950 . S
C719 C710 1.390 . S
C719 H712 0.950 . S
C719 C716 1.387 . S
C720 C721 1.387 . S
C720 H724 0.950 . S
C720 C729 1.390 . S
C721 C720 1.387 . S
C721 C723 1.387 . S
H722 C729 0.950 . S
C723 C721 1.387 . S
C723 C725 1.390 . S
C723 H727 0.950 . S
H724 C720 0.950 . S
C725 C723 1.390 . S
C725 C726 1.387 . S
C725 H728 0.950 . S
C726 C725 1.387 . S
C726 C729 1.387 . S
H727 C723 0.950 . S
H728 C725 0.950 . S
C729 C720 1.390 . S
C729 H722 0.950 . S
C729 C726 1.387 . S
C730 C731 1.387 . S
C730 H734 0.950 . S
C730 C739 1.390 . S
C731 C730 1.387 . S
C731 C733 1.387 . S
H732 C739 0.950 . S
C733 C731 1.387 . S
C733 C735 1.390 . S
C733 H737 0.950 . S
H734 C730 0.950 . S
C735 C733 1.390 . S
C735 C736 1.387 . S
C735 H738 0.950 . S
C736 C735 1.387 . S
C736 C739 1.387 . S
H737 C733 0.950 . S
H738 C735 0.950 . S
C739 C730 1.390 . S
C739 H732 0.950 . S
C739 C736 1.387 . S
C740 C741 1.387 . S
C740 H744 0.950 . S
C740 C749 1.390 . S
C741 C740 1.387 . S
C741 C743 1.387 . S
H742 C749 0.950 . S
C743 C741 1.387 . S
C743 C745 1.390 . S
C743 H747 0.950 . S
H744 C740 0.950 . S
C745 C743 1.390 . S
C745 C746 1.387 . S
C745 H748 0.950 . S
C746 C745 1.387 . S
C746 C749 1.387 . S
H747 C743 0.950 . S
H748 C745 0.950 . S
C749 C740 1.390 . S
C749 H742 0.950 . S
C749 C746 1.387 . S
C750 C751 1.387 . S
C750 H754 0.950 . S
C750 C759 1.390 . S
C751 C750 1.387 . S
C751 C753 1.387 . S
H752 C759 0.950 . S
C753 C751 1.387 . S
C753 C755 1.390 . S
C753 H757 0.950 . S
H754 C750 0.950 . S
C755 C753 1.390 . S
C755 C756 1.387 . S
C755 H758 0.950 . S
C756 C755 1.387 . S
C756 C759 1.387 . S
H757 C753 0.950 . S
H758 C755 0.950 . S
C759 C750 1.390 . S
C759 H752 0.950 . S
C759 C756 1.387 . S
C760 C761 1.387 . S
C760 H764 0.950 . S
C760 C769 1.390 . S
C761 C760 1.387 . S
C761 C763 1.387 . S
H762 C769 0.950 . S
C763 C761 1.387 . S
C763 C765 1.390 . S
C763 H767 0.950 . S
H764 C760 0.950 . S
C765 C763 1.390 . S
C765 C766 1.387 . S
C765 H768 0.950 . S
C766 C765 1.387 . S
C766 C769 1.387 . S
H767 C763 0.950 . S
H768 C765 0.950 . S
C769 C760 1.390 . S
C769 H762 0.950 . S
C769 C766 1.387 . S
C770 C771 1.387 . S
C770 H774 0.950 . S
C770 C779 1.390 . S
C771 C770 1.387 . S
C771 C773 1.387 . S
H772 C779 0.950 . S
C773 C771 1.387 . S
C773 C775 1.390 . S
C773 H777 0.950 . S
H774 C770 0.950 . S
C775 C773 1.390 . S
C775 C776 1.387 . S
C775 H778 0.950 . S
C776 C775 1.387 . S
C776 C779 1.387 . S
H777 C773 0.950 . S
H778 C775 0.950 . S
C779 C770 1.390 . S
C779 H772 0.950 . S
C779 C776 1.387 . S
C780 C781 1.387 . S
C780 H784 0.950 . S
C780 C789 1.390 . S
C781 C780 1.387 . S
C781 C783 1.387 1_556 S
H782 C789 0.950 . S
C783 C781 1.387 1_554 S
C783 C785 1.390 . S
C783 H787 0.950 . S
H784 C780 0.950 . S
C785 C783 1.390 . S
C785 C786 1.387 . S
C785 H788 0.950 . S
C786 C785 1.387 . S
C786 C789 1.387 1_554 S
H787 C783 0.950 . S
H788 C785 0.950 . S
C789 C780 1.390 . S
C789 H782 0.950 . S
C789 C786 1.387 1_556 S
C790 C791 1.387 . S
C790 H794 0.950 . S
C790 C799 1.390 1_455 S
C791 C790 1.387 . S
C791 C793 1.387 . S
H792 C799 0.950 . S
C793 C791 1.387 . S
C793 C795 1.390 1_455 S
C793 H797 0.950 . S
H794 C790 0.950 . S
C795 C793 1.390 1_655 S
C795 C796 1.387 . S
C795 H798 0.950 . S
C796 C795 1.387 . S
C796 C799 1.387 . S
H797 C793 0.950 . S
H798 C795 0.950 . S
C799 C790 1.390 1_655 S
C799 H792 0.950 . S
C799 C796 1.387 . S
C800 C801 1.387 . S
C800 H804 0.950 . S
C800 C809 1.390 1_564 S
C801 C800 1.387 . S
C801 C803 1.387 . S
H802 C809 0.950 . S
C803 C801 1.387 . S
C803 C805 1.390 1_564 S
C803 H807 0.950 . S
H804 C800 0.950 . S
C805 C803 1.390 1_546 S
C805 C806 1.387 . S
C805 H808 0.950 . S
C806 C805 1.387 . S
C806 C809 1.387 . S
H807 C803 0.950 . S
H808 C805 0.950 . S
C809 C800 1.390 1_546 S
C809 H802 0.950 . S
C809 C806 1.387 . S
C810 C811 1.387 . S
C810 H814 0.950 . S
C810 C819 1.390 . S
C811 C810 1.387 . S
C811 C813 1.387 . S
H812 C819 0.950 . S
C813 C811 1.387 . S
C813 C815 1.390 . S
C813 H817 0.950 . S
H814 C810 0.950 . S
C815 C813 1.390 . S
C815 C816 1.387 . S
C815 H818 0.950 . S
C816 C815 1.387 . S
C816 C819 1.387 . S
H817 C813 0.950 . S
H818 C815 0.950 . S
C819 C810 1.390 . S
C819 H812 0.950 . S
C819 C816 1.387 . S
C820 C821 1.387 1_554 S
C820 H824 0.950 . S
C820 C829 1.390 1_655 S
C821 C820 1.387 1_556 S
C821 C823 1.387 . S
H822 C829 0.950 . S
C823 C821 1.387 . S
C823 C825 1.390 1_655 S
C823 H827 0.950 . S
H824 C820 0.950 . S
C825 C823 1.390 1_455 S
C825 C826 1.387 1_556 S
C825 H828 0.950 . S
C826 C825 1.387 1_554 S
C826 C829 1.387 . S
H827 C823 0.950 . S
H828 C825 0.950 . S
C829 C820 1.390 1_455 S
C829 H822 0.950 . S
C829 C826 1.387 . S
C830 C831 1.387 . S
C830 H834 0.950 . S
C830 C839 1.390 1_565 S
C831 C830 1.387 . S
C831 C833 1.387 . S
H832 C839 0.950 . S
C833 C831 1.387 . S
C833 C835 1.390 1_565 S
C833 H837 0.950 . S
H834 C830 0.950 . S
C835 C833 1.390 1_545 S
C835 C836 1.387 . S
C835 H838 0.950 . S
C836 C835 1.387 . S
C836 C839 1.387 . S
H837 C833 0.950 . S
H838 C835 0.950 . S
C839 C830 1.390 1_545 S
C839 H832 0.950 . S
C839 C836 1.387 . S
C481 C179 1.406 . S
C486 C15 1.478 . S
C491 C219 1.409 . S
C496 C55 1.480 . S
C501 C95 1.479 . S
C506 C19 1.408 . S
C511 C135 1.480 . S
C516 C59 1.409 . S
C521 C175 1.477 . S
C526 C99 1.405 . S
C531 C139 1.406 . S
C536 C215 1.479 . S
C541 C339 1.409 . S
C546 C255 1.481 . S
C551 C295 1.480 . S
C556 C379 1.407 . S
C561 C419 1.408 . S
C566 C335 1.479 . S
C571 C375 1.480 . S
C576 C459 1.409 . S
C581 C415 1.480 . S
C586 C259 1.407 . S
C591 C299 1.407 . S
C596 C455 1.479 . S
C601 C170 1.879 . S
C606 C6 1.862 . S
C611 C46 1.864 . S
C616 C210 1.880 . S
C621 C86 1.861 . S
C626 C10 1.878 . S
C631 C126 1.862 . S
C636 C50 1.880 . S
C641 C90 1.880 . S
C646 C166 1.864 . S
C651 C130 1.878 . S
C656 C206 1.861 . S
C661 C330 1.881 . S
C666 C246 1.864 . S
C671 C286 1.862 . S
C676 C370 1.878 . S
C681 C326 1.862 . S
C686 C410 1.878 . S
C691 C450 1.880 . S
C696 C366 1.864 . S
C701 C406 1.862 . S
C706 C250 1.878 . S
C711 C290 1.881 . S
C716 C446 1.864 . S
C721 C418 1.591 . S
C726 C18 1.591 . S
C731 C58 1.595 . S
C736 C458 1.594 . S
C741 C98 1.594 . S
C746 C258 1.592 . S
C751 C138 1.591 . S
C756 C298 1.591 . S
C761 C178 1.592 . S
C766 C338 1.591 . S
C771 C378 1.595 . S
C776 C218 1.595 . S
C781 C369 2.453 . S
C786 C9 2.453 . S
C791 C409 2.453 . S
C796 C49 2.453 . S
C801 C89 2.453 . S
C806 C449 2.453 . S
C811 C129 2.453 . S
C816 C249 2.453 . S
C821 C289 2.453 . S
C826 C169 2.454 . S
C831 C329 2.453 . S
C836 C209 2.453 . S
